# Generated by pormake.
# Topology apo, (3,6)-cn, num edge types: 1
# Building blocks:
#     Node 0, Type 0, BuildingBlock: ESEHIV_clean_linker_0, # of connection points: 3
#     Node 1, Type 0, BuildingBlock: ESEHIV_clean_linker_0, # of connection points: 3
#     Node 2, Type 0, BuildingBlock: ESEHIV_clean_linker_0, # of connection points: 3
#     Node 3, Type 0, BuildingBlock: ESEHIV_clean_linker_0, # of connection points: 3
#     Node 4, Type 0, BuildingBlock: ESEHIV_clean_linker_0, # of connection points: 3
#     Node 5, Type 0, BuildingBlock: ESEHIV_clean_linker_0, # of connection points: 3
#     Node 6, Type 0, BuildingBlock: ESEHIV_clean_linker_0, # of connection points: 3
#     Node 7, Type 0, BuildingBlock: ESEHIV_clean_linker_0, # of connection points: 3
#     Node 8, Type 1, BuildingBlock: MIDCAF_clean_sbu_0, # of connection points: 6
#     Node 9, Type 1, BuildingBlock: MIDCAF_clean_sbu_0, # of connection points: 6
#     Node 10, Type 1, BuildingBlock: MIDCAF_clean_sbu_0, # of connection points: 6
#     Node 11, Type 1, BuildingBlock: MIDCAF_clean_sbu_0, # of connection points: 6
#     Edge 12, Type (0, 1), BuildingBlock: UVAHIK_clean_linker_0, # of connection points: 2
#     Edge 13, Type (0, 1), BuildingBlock: UVAHIK_clean_linker_0, # of connection points: 2
#     Edge 14, Type (0, 1), BuildingBlock: UVAHIK_clean_linker_0, # of connection points: 2
#     Edge 15, Type (0, 1), BuildingBlock: UVAHIK_clean_linker_0, # of connection points: 2
#     Edge 16, Type (0, 1), BuildingBlock: UVAHIK_clean_linker_0, # of connection points: 2
#     Edge 17, Type (0, 1), BuildingBlock: UVAHIK_clean_linker_0, # of connection points: 2
#     Edge 18, Type (0, 1), BuildingBlock: UVAHIK_clean_linker_0, # of connection points: 2
#     Edge 19, Type (0, 1), BuildingBlock: UVAHIK_clean_linker_0, # of connection points: 2
#     Edge 20, Type (0, 1), BuildingBlock: UVAHIK_clean_linker_0, # of connection points: 2
#     Edge 21, Type (0, 1), BuildingBlock: UVAHIK_clean_linker_0, # of connection points: 2
#     Edge 22, Type (0, 1), BuildingBlock: UVAHIK_clean_linker_0, # of connection points: 2
#     Edge 23, Type (0, 1), BuildingBlock: UVAHIK_clean_linker_0, # of connection points: 2
#     Edge 24, Type (0, 1), BuildingBlock: UVAHIK_clean_linker_0, # of connection points: 2
#     Edge 25, Type (0, 1), BuildingBlock: UVAHIK_clean_linker_0, # of connection points: 2
#     Edge 26, Type (0, 1), BuildingBlock: UVAHIK_clean_linker_0, # of connection points: 2
#     Edge 27, Type (0, 1), BuildingBlock: UVAHIK_clean_linker_0, # of connection points: 2
#     Edge 28, Type (0, 1), BuildingBlock: UVAHIK_clean_linker_0, # of connection points: 2
#     Edge 29, Type (0, 1), BuildingBlock: UVAHIK_clean_linker_0, # of connection points: 2
#     Edge 30, Type (0, 1), BuildingBlock: UVAHIK_clean_linker_0, # of connection points: 2
#     Edge 31, Type (0, 1), BuildingBlock: UVAHIK_clean_linker_0, # of connection points: 2
#     Edge 32, Type (0, 1), BuildingBlock: UVAHIK_clean_linker_0, # of connection points: 2
#     Edge 33, Type (0, 1), BuildingBlock: UVAHIK_clean_linker_0, # of connection points: 2
#     Edge 34, Type (0, 1), BuildingBlock: UVAHIK_clean_linker_0, # of connection points: 2
#     Edge 35, Type (0, 1), BuildingBlock: UVAHIK_clean_linker_0, # of connection points: 2
# Relax obj value: 0.086
# Max RMSD: 0.099
# Mean RMSD: 0.089
data_MOF--net-apo--node1-MIDCAF_clean_sbu_0--node2-ESEHIV_clean_linker_0--edge1-UVAHIK_clean_linker_0
_symmetry_space_group_name_H-M    P1
_symmetry_Int_Tables_number       1
_symmetry_cell_setting            triclinic
loop_
_symmetry_equiv_pos_as_xyz
'x, y, z'
_cell_length_a     42.626492
_cell_length_b     51.422674
_cell_length_c     45.067438
_cell_angle_alpha  90.317541
_cell_angle_beta   89.773942
_cell_angle_gamma 90.093266
loop_
_atom_site_label
_atom_site_type_symbol
_atom_site_fract_x
_atom_site_fract_y
_atom_site_fract_z
_atom_type_partial_charge
H0 H 0.33133 0.4076 0.45526 0.0
H1 H 0.27155 0.3942 0.38004 0.0
H2 H 0.25635 0.35192 0.46099 0.0
C3 C 0.31169 0.39764 0.44505 0.0
C4 C 0.2949 0.37913 0.46151 0.0
C5 C 0.30371 0.40311 0.41553 0.0
C6 C 0.27801 0.3901 0.40276 0.0
C7 C 0.26043 0.37189 0.41903 0.0
C8 C 0.26926 0.36631 0.44839 0.0
H9 H 0.1839 0.07005 0.93339 0.0
H10 H 0.24643 0.08031 0.85962 0.0
H11 H 0.2684 0.11504 0.9442 0.0
C12 C 0.20546 0.07802 0.9244 0.0
C13 C 0.22553 0.09265 0.9428 0.0
C14 C 0.21287 0.07354 0.89441 0.0
C15 C 0.24066 0.084 0.88269 0.0
C16 C 0.26076 0.09935 0.90024 0.0
C17 C 0.25306 0.10339 0.93039 0.0
H18 H 0.82069 0.0632 0.54652 0.0
H19 H 0.76688 0.07466 0.62588 0.0
H20 H 0.74151 0.11539 0.5462 0.0
C21 C 0.80112 0.07246 0.55775 0.0
C22 C 0.78139 0.08953 0.54219 0.0
C23 C 0.79576 0.06688 0.58771 0.0
C24 C 0.77097 0.0791 0.60269 0.0
C25 C 0.75161 0.09704 0.58813 0.0
C26 C 0.75666 0.10192 0.55769 0.0
H27 H 0.67503 0.40944 0.10442 0.0
H28 H 0.74073 0.39983 0.1755 0.0
H29 H 0.76068 0.3671 0.08954 0.0
C30 C 0.69734 0.4023 0.11236 0.0
C31 C 0.71717 0.38845 0.09288 0.0
C32 C 0.70565 0.40679 0.14212 0.0
C33 C 0.7337 0.3961 0.15279 0.0
C34 C 0.75343 0.38139 0.13414 0.0
C35 C 0.74521 0.37797 0.10411 0.0
H36 H 0.63084 0.58664 0.60914 0.0
H37 H 0.67958 0.65981 0.60048 0.0
H38 H 0.69465 0.61155 0.67692 0.0
C39 C 0.64702 0.60108 0.61778 0.0
C40 C 0.66203 0.59659 0.64489 0.0
C41 C 0.65325 0.62379 0.60146 0.0
C42 C 0.67427 0.64245 0.61307 0.0
C43 C 0.68976 0.63796 0.64013 0.0
C44 C 0.68328 0.61503 0.65583 0.0
H45 H 0.79857 0.92802 0.0638 0.0
H46 H 0.74865 0.91697 0.1456 0.0
H47 H 0.73902 0.86114 0.07453 0.0
C48 C 0.78231 0.91683 0.0772 0.0
C49 C 0.76898 0.89398 0.06545 0.0
C50 C 0.77547 0.92498 0.1063 0.0
C51 C 0.75425 0.91044 0.12334 0.0
C52 C 0.74096 0.88725 0.11238 0.0
C53 C 0.74863 0.87911 0.0833 0.0
H54 H 0.19583 0.9305 0.44801 0.0
H55 H 0.25842 0.86523 0.45818 0.0
H56 H 0.25808 0.90903 0.37718 0.0
C57 C 0.21442 0.9181 0.43963 0.0
C58 C 0.2258 0.92215 0.41074 0.0
C59 C 0.22586 0.89756 0.45714 0.0
C60 C 0.24929 0.88112 0.44513 0.0
C61 C 0.26066 0.88484 0.41606 0.0
C62 C 0.24888 0.90554 0.39927 0.0
H63 H 0.34813 0.56816 0.90835 0.0
H64 H 0.28346 0.58587 0.83841 0.0
H65 H 0.29017 0.63635 0.91476 0.0
C66 C 0.33043 0.58079 0.899 0.0
C67 C 0.32056 0.60292 0.91486 0.0
C68 C 0.31731 0.57475 0.87127 0.0
C69 C 0.29401 0.5909 0.85953 0.0
C70 C 0.28402 0.61322 0.87497 0.0
C71 C 0.29766 0.61921 0.90257 0.0
Zn72 Zn 0.02089 0.16037 0.31108 0.0
Zn73 Zn 0.0097 0.16921 0.19934 0.0
Zn74 Zn 0.0145 0.16306 0.2541 0.0
C75 C 0.06848 0.15075 0.20518 0.0
C76 C 0.96634 0.13091 0.21631 0.0
O77 O 0.97187 0.14329 0.27303 0.0
O78 O 0.98117 0.14311 0.32134 0.0
C79 C 0.02592 0.21252 0.29847 0.0
O80 O 0.05673 0.14569 0.23098 0.0
O81 O 0.05345 0.16452 0.18713 0.0
O82 O 0.98112 0.139 0.19383 0.0
O83 O 0.97274 0.14015 0.24219 0.0
O84 O 0.02553 0.1976 0.32059 0.0
O85 O 0.0213 0.20324 0.27216 0.0
O86 O 0.05789 0.14028 0.26161 0.0
O87 O 0.05958 0.13934 0.31063 0.0
C88 C 0.07114 0.13295 0.28582 0.0
O89 O 0.00597 0.2051 0.24461 0.0
O90 O 0.99281 0.20453 0.19725 0.0
C91 C 0.96341 0.13784 0.29983 0.0
C92 C 0.99569 0.21681 0.22136 0.0
Zn93 Zn 0.55399 0.313 0.72209 0.0
Zn94 Zn 0.49251 0.31775 0.82087 0.0
Zn95 Zn 0.5223 0.31489 0.76948 0.0
C96 C 0.45648 0.34497 0.7798 0.0
C97 C 0.49807 0.26485 0.80596 0.0
O98 O 0.53399 0.27324 0.75906 0.0
O99 O 0.57332 0.27883 0.72758 0.0
C100 C 0.58094 0.35204 0.75435 0.0
O101 O 0.47881 0.33748 0.76239 0.0
O102 O 0.45621 0.33831 0.80671 0.0
O103 O 0.48766 0.27982 0.82598 0.0
O104 O 0.51235 0.27422 0.7831 0.0
O105 O 0.58042 0.34409 0.72784 0.0
O106 O 0.56299 0.34146 0.77396 0.0
O107 O 0.49094 0.32995 0.73484 0.0
O108 O 0.51647 0.31482 0.69569 0.0
C109 C 0.49216 0.32499 0.70684 0.0
O110 O 0.55322 0.33478 0.8026 0.0
O111 O 0.52535 0.33592 0.84416 0.0
C112 C 0.55691 0.26398 0.74348 0.0
C113 C 0.5505 0.34074 0.83036 0.0
Zn114 Zn 0.01271 0.83637 0.81238 0.0
Zn115 Zn 0.98895 0.80386 0.72075 0.0
Zn116 Zn 0.99557 0.82625 0.76299 0.0
C117 C 0.97006 0.85585 0.71203 0.0
C118 C 0.94409 0.78583 0.75248 0.0
O119 O 0.02794 0.79487 0.77032 0.0
O120 O 0.04145 0.80582 0.8157 0.0
C121 C 0.0273 0.87969 0.77479 0.0
O122 O 0.99302 0.85768 0.73051 0.0
O123 O 0.96003 0.83335 0.70542 0.0
O124 O 0.96685 0.77392 0.74042 0.0
O125 O 0.94793 0.80974 0.76026 0.0
O126 O 0.02942 0.87163 0.80117 0.0
O127 O 0.01494 0.86521 0.75454 0.0
O128 O 0.95064 0.82866 0.78736 0.0
O129 O 0.97077 0.83421 0.83198 0.0
C130 C 0.94707 0.83152 0.81551 0.0
O131 O 0.02599 0.84539 0.72893 0.0
O132 O 0.03517 0.80672 0.70983 0.0
C133 C 0.04369 0.79048 0.79377 0.0
C134 C 0.04302 0.83044 0.71232 0.0
Zn135 Zn 0.53863 0.65574 0.21668 0.0
Zn136 Zn 0.45214 0.66456 0.27513 0.0
Zn137 Zn 0.49888 0.66038 0.25367 0.0
C138 C 0.49753 0.65154 0.31882 0.0
C139 C 0.4587 0.61336 0.26989 0.0
O140 O 0.46995 0.65473 0.21538 0.0
O141 O 0.50804 0.65554 0.18241 0.0
C142 C 0.55034 0.70295 0.24682 0.0
O143 O 0.50669 0.6393 0.29523 0.0
O144 O 0.47464 0.66712 0.3164 0.0
O145 O 0.43738 0.62895 0.26199 0.0
O146 O 0.48657 0.62238 0.27421 0.0
O147 O 0.56152 0.68807 0.22707 0.0
O148 O 0.5248 0.69683 0.26022 0.0
O149 O 0.5231 0.62524 0.27028 0.0
O150 O 0.55645 0.62271 0.23258 0.0
C151 C 0.54605 0.61377 0.25678 0.0
O152 O 0.49069 0.70043 0.27062 0.0
O153 O 0.44229 0.69802 0.25452 0.0
C154 C 0.47904 0.65426 0.1884 0.0
C155 C 0.46455 0.71172 0.26462 0.0
C156 C 0.2116 0.96902 0.40369 0.0
C157 C 0.21361 0.94364 0.39222 0.0
C158 C 0.20151 0.98945 0.38576 0.0
C159 C 0.15383 0.00403 0.32087 0.0
H160 H 0.19761 0.07016 0.32323 0.0
C161 C 0.09998 0.09405 0.26606 0.0
C162 C 0.09826 0.11517 0.28586 0.0
C163 C 0.12045 0.07333 0.27175 0.0
C164 C 0.18511 0.05182 0.32226 0.0
H165 H 0.20598 0.91958 0.35324 0.0
H166 H 0.18781 0.95529 0.32202 0.0
H167 H 0.21927 0.03284 0.34932 0.0
H168 H 0.11852 0.13258 0.32524 0.0
H169 H 0.15395 0.09695 0.33511 0.0
H170 H 0.11877 0.02323 0.29522 0.0
C171 C 0.19434 0.95939 0.34477 0.0
C172 C 0.19751 0.03048 0.33726 0.0
C173 C 0.20484 0.93902 0.36259 0.0
C174 C 0.11932 0.11645 0.30967 0.0
C175 C 0.1398 0.09599 0.31523 0.0
C176 C 0.14123 0.02545 0.3061 0.0
C177 C 0.19283 0.98485 0.3561 0.0
C178 C 0.18155 0.00657 0.3374 0.0
C179 C 0.13965 0.07363 0.29716 0.0
C180 C 0.15623 0.04984 0.30738 0.0
H181 H 0.21839 0.97315 0.42637 0.0
H182 H 0.20015 0.00883 0.3952 0.0
H183 H 0.14098 0.98583 0.32065 0.0
H184 H 0.08383 0.09254 0.24763 0.0
H185 H 0.1201 0.05655 0.25713 0.0
C186 C 0.35924 0.54742 0.84781 0.0
C187 C 0.32743 0.5513 0.85469 0.0
C188 C 0.36871 0.52531 0.83197 0.0
C189 C 0.34935 0.45811 0.82147 0.0
H190 H 0.40221 0.46064 0.75133 0.0
C191 C 0.40302 0.36403 0.77878 0.0
C192 C 0.43479 0.36566 0.77092 0.0
C193 C 0.38461 0.38648 0.78018 0.0
C194 C 0.38767 0.4595 0.77103 0.0
H195 H 0.28059 0.53533 0.85063 0.0
H196 H 0.29737 0.49607 0.82381 0.0
H197 H 0.38183 0.50097 0.77286 0.0
H198 H 0.47189 0.3914 0.75644 0.0
H199 H 0.4406 0.43065 0.76023 0.0
H200 H 0.35676 0.41723 0.82152 0.0
C201 C 0.3148 0.51037 0.83021 0.0
C202 C 0.37591 0.48263 0.78321 0.0
C203 C 0.30525 0.53274 0.8455 0.0
C204 C 0.44724 0.38966 0.76211 0.0
C205 C 0.42914 0.41223 0.76437 0.0
C206 C 0.36165 0.43508 0.80978 0.0
C207 C 0.3466 0.50649 0.8233 0.0
C208 C 0.357 0.48211 0.80876 0.0
C209 C 0.39801 0.41113 0.77499 0.0
C210 C 0.38143 0.43539 0.78462 0.0
H211 H 0.3767 0.56158 0.85455 0.0
H212 H 0.39341 0.52257 0.82714 0.0
H213 H 0.33504 0.45726 0.84137 0.0
H214 H 0.39299 0.34567 0.78574 0.0
H215 H 0.36042 0.38459 0.78725 0.0
C216 C 0.62607 0.56465 0.66973 0.0
C217 C 0.65655 0.57225 0.66155 0.0
C218 C 0.62126 0.54193 0.68612 0.0
C219 C 0.65352 0.47817 0.69756 0.0
H220 H 0.60569 0.47654 0.77088 0.0
C221 C 0.62797 0.38018 0.74992 0.0
C222 C 0.59731 0.37664 0.76044 0.0
C223 C 0.63982 0.4052 0.74545 0.0
C224 C 0.61886 0.47652 0.75031 0.0
H225 H 0.70579 0.56212 0.66369 0.0
H226 H 0.69725 0.5219 0.69147 0.0
H227 H 0.61531 0.51804 0.74618 0.0
H228 H 0.5557 0.39613 0.77669 0.0
H229 H 0.57543 0.43973 0.76753 0.0
H230 H 0.65555 0.43693 0.70001 0.0
C231 C 0.67722 0.53373 0.68565 0.0
C232 C 0.62443 0.50034 0.73627 0.0
C233 C 0.68208 0.55668 0.66982 0.0
C234 C 0.57964 0.39844 0.76893 0.0
C235 C 0.59105 0.42351 0.76353 0.0
C236 C 0.6474 0.45436 0.71114 0.0
C237 C 0.64679 0.52619 0.69402 0.0
C238 C 0.64167 0.5013 0.70969 0.0
C239 C 0.6207 0.4272 0.75018 0.0
C240 C 0.62981 0.45307 0.73767 0.0
H241 H 0.60607 0.57645 0.66372 0.0
H242 H 0.59755 0.53635 0.69211 0.0
H243 H 0.66661 0.47839 0.6769 0.0
H244 H 0.64198 0.36358 0.7432 0.0
H245 H 0.66327 0.40714 0.73642 0.0
C246 C 0.77634 0.96489 0.13902 0.0
C247 C 0.79213 0.9475 0.11993 0.0
C248 C 0.7928 0.98441 0.15414 0.0
C249 C 0.87341 0.00124 0.17819 0.0
H250 H 0.84117 0.07149 0.18549 0.0
C251 C 0.9515 0.0901 0.19076 0.0
C252 C 0.94439 0.109 0.21234 0.0
C253 C 0.9311 0.06951 0.1854 0.0
C254 C 0.85013 0.05182 0.18416 0.0
H255 H 0.83755 0.93741 0.10137 0.0
H256 H 0.86598 0.97189 0.12678 0.0
H257 H 0.80862 0.03754 0.16286 0.0
H258 H 0.91039 0.12125 0.24536 0.0
H259 H 0.87371 0.08509 0.23528 0.0
H260 H 0.91547 0.01583 0.19808 0.0
C261 C 0.84098 0.97012 0.13065 0.0
C262 C 0.83158 0.03239 0.17114 0.0
C263 C 0.82457 0.95059 0.11564 0.0
C264 C 0.91645 0.10678 0.22878 0.0
C265 C 0.89551 0.08627 0.22292 0.0
C266 C 0.89195 0.02064 0.19095 0.0
C267 C 0.82542 0.98699 0.15048 0.0
C268 C 0.84342 0.00705 0.16719 0.0
C269 C 0.90279 0.06748 0.20115 0.0
C270 C 0.88083 0.04625 0.19329 0.0
H271 H 0.75128 0.96323 0.14256 0.0
H272 H 0.78009 -0.00294 0.16923 0.0
H273 H 0.88292 0.98178 0.1763 0.0
H274 H 0.973 0.09122 0.1779 0.0
H275 H 0.93712 0.05547 0.16828 0.0
C276 C 0.80187 0.0264 0.61749 0.0
C277 C 0.81566 0.04769 0.60313 0.0
C278 C 0.82055 0.00751 0.63081 0.0
C279 C 0.90247 0.98209 0.63143 0.0
H280 H 0.87088 0.94388 0.69924 0.0
C281 C 0.97107 0.90333 0.69924 0.0
C282 C 0.95552 0.87919 0.69906 0.0
C283 C 0.95614 0.92553 0.68826 0.0
C284 C 0.87998 0.95451 0.68038 0.0
H285 H 0.8596 0.06648 0.59205 0.0
H286 H 0.89238 0.03413 0.61643 0.0
H287 H 0.84094 0.98044 0.68012 0.0
H288 H 0.91227 0.85935 0.68747 0.0
H289 H 0.88607 0.89821 0.66913 0.0
H290 H 0.94195 0.95619 0.63248 0.0
C291 C 0.86719 0.03143 0.61664 0.0
C292 C 0.86274 0.97531 0.66919 0.0
C293 C 0.84847 0.05008 0.60283 0.0
C294 C 0.92493 0.87764 0.68769 0.0
C295 C 0.90985 0.89985 0.67737 0.0
C296 C 0.92003 0.96158 0.64307 0.0
C297 C 0.85351 0.00971 0.63058 0.0
C298 C 0.87335 0.98904 0.64411 0.0
C299 C 0.92525 0.92397 0.67767 0.0
C300 C 0.90857 0.94733 0.66723 0.0
H301 H 0.77661 0.024 0.61768 0.0
H302 H 0.80903 0.99086 0.64063 0.0
H303 H 0.91131 0.99185 0.61189 0.0
H304 H 0.99465 0.90507 0.70793 0.0
H305 H 0.96839 0.94401 0.68868 0.0
C306 C 0.68162 0.41789 0.19201 0.0
C307 C 0.68552 0.4234 0.16162 0.0
C308 C 0.66329 0.43406 0.2102 0.0
C309 C 0.59992 0.48243 0.20718 0.0
H310 H 0.63584 0.51172 0.27892 0.0
C311 C 0.53788 0.56652 0.26351 0.0
C312 C 0.55767 0.5882 0.26596 0.0
C313 C 0.55053 0.54153 0.26084 0.0
C314 C 0.62532 0.50346 0.25916 0.0
H315 H 0.67348 0.45069 0.12687 0.0
H316 H 0.64101 0.47824 0.15828 0.0
H317 H 0.6637 0.47713 0.25211 0.0
H318 H 0.60586 0.60092 0.2696 0.0
H319 H 0.62812 0.55746 0.26501 0.0
H320 H 0.56246 0.50944 0.21305 0.0
C321 C 0.65189 0.46127 0.16796 0.0
C322 C 0.64118 0.48359 0.24391 0.0
C323 C 0.67045 0.44537 0.14993 0.0
C324 C 0.59013 0.58438 0.26834 0.0
C325 C 0.60283 0.55944 0.26568 0.0
C326 C 0.584 0.50206 0.22248 0.0
C327 C 0.64813 0.45584 0.19828 0.0
C328 C 0.62914 0.47357 0.2172 0.0
C329 C 0.58325 0.53792 0.26015 0.0
C330 C 0.59697 0.51343 0.24811 0.0
H331 H 0.69253 0.40097 0.20175 0.0
H332 H 0.66069 0.42941 0.23349 0.0
H333 H 0.58993 0.47483 0.18683 0.0
H334 H 0.51296 0.56906 0.26028 0.0
H335 H 0.5348 0.52533 0.25685 0.0
C336 C 0.35488 0.42455 0.40162 0.0
C337 C 0.32216 0.42243 0.39815 0.0
C338 C 0.37199 0.4433 0.38605 0.0
C339 C 0.36068 0.50525 0.34545 0.0
H340 H 0.44586 0.49296 0.31815 0.0
C341 C 0.42172 0.57604 0.2677 0.0
C342 C 0.44952 0.58689 0.27896 0.0
C343 C 0.40906 0.5536 0.28015 0.0
C344 C 0.42213 0.49658 0.32577 0.0
H345 H 0.282 0.43836 0.37506 0.0
H346 H 0.31189 0.46985 0.3468 0.0
H347 H 0.41723 0.45835 0.34385 0.0
H348 H 0.48681 0.58204 0.31104 0.0
H349 H 0.46482 0.54214 0.33248 0.0
H350 H 0.36534 0.54316 0.32669 0.0
C351 C 0.32431 0.45759 0.36225 0.0
C352 C 0.40574 0.47687 0.34061 0.0
C353 C 0.30716 0.43915 0.37814 0.0
C354 C 0.46554 0.5739 0.3017 0.0
C355 C 0.45296 0.55117 0.314 0.0
C356 C 0.37682 0.52466 0.33025 0.0
C357 C 0.35689 0.46021 0.3663 0.0
C358 C 0.37472 0.48095 0.35055 0.0
C359 C 0.42402 0.54145 0.304 0.0
C360 C 0.40759 0.5205 0.32018 0.0
H361 H 0.36739 0.4117 0.41638 0.0
H362 H 0.39697 0.44482 0.38999 0.0
H363 H 0.33726 0.50948 0.35347 0.0
H364 H 0.40895 0.58559 0.25012 0.0
H365 H 0.38689 0.54628 0.27188 0.0
C366 C 0.15899 0.06241 0.87577 0.0
C367 C 0.19152 0.05803 0.87519 0.0
C368 C 0.1389 0.04763 0.8579 0.0
C369 C 0.13746 0.0018 0.79332 0.0
H370 H 0.06134 0.97701 0.83104 0.0
C371 C 0.07299 0.90706 0.76209 0.0
C372 C 0.04079 0.90523 0.76815 0.0
C373 C 0.08898 0.93043 0.76715 0.0
C374 C 0.08208 0.98419 0.81977 0.0
H375 H 0.22847 0.03476 0.85533 0.0
H376 H 0.19345 0.00863 0.8246 0.0
H377 H 0.09417 0.0083 0.85672 0.0
H378 H 0.99938 0.92641 0.78174 0.0
H379 H 0.02699 0.96758 0.7897 0.0
H380 H 0.1258 0.97666 0.75683 0.0
C381 C 0.18344 0.02388 0.83832 0.0
C382 C 0.10102 0.00216 0.83461 0.0
C383 C 0.20354 0.03876 0.85606 0.0
C384 C 0.02419 0.92759 0.77656 0.0
C385 C 0.0401 0.95099 0.7815 0.0
C386 C 0.1185 0.9837 0.77847 0.0
C387 C 0.15082 0.02798 0.83915 0.0
C388 C 0.12928 0.01084 0.82187 0.0
C389 C 0.07296 0.95225 0.77855 0.0
C390 C 0.09085 0.97432 0.79177 0.0
H391 H 0.14909 0.07742 0.8899 0.0
H392 H 0.11398 0.05162 0.85879 0.0
H393 H 0.15879 0.00842 0.7826 0.0
H394 H 0.08627 0.88983 0.75616 0.0
H395 H 0.11427 0.93062 0.76476 0.0
C396 C 0.22281 0.1211 0.98862 0.0
C397 C 0.21732 0.09694 0.97475 0.0
C398 C 0.2137 0.12543 0.01812 0.0
C399 C 0.18636 0.09179 0.08723 0.0
H400 H 0.14945 0.15905 0.10425 0.0
C401 C 0.09888 0.11434 0.18326 0.0
C402 C 0.09835 0.13983 0.19451 0.0
C403 C 0.12081 0.10723 0.1614 0.0
C404 C 0.16025 0.14031 0.10018 0.0
H405 H 0.19898 0.05806 0.98183 0.0
H406 H 0.18195 0.06593 0.03264 0.0
H407 H 0.17225 0.15079 0.05581 0.0
H408 H 0.12183 0.17711 0.19404 0.0
H409 H 0.16085 0.16454 0.15691 0.0
H410 H 0.17287 0.08113 0.13153 0.0
C411 C 0.19376 0.08147 0.02092 0.0
C412 C 0.17339 0.13554 0.07224 0.0
C413 C 0.20311 0.07707 0.9915 0.0
C414 C 0.1221 0.15721 0.18601 0.0
C415 C 0.14407 0.15011 0.16436 0.0
C416 C 0.17294 0.09653 0.11523 0.0
C417 C 0.19857 0.10582 0.03457 0.0
C418 C 0.18641 0.11116 0.0652 0.0
C419 C 0.14244 0.1256 0.15044 0.0
C420 C 0.15954 0.12082 0.12198 0.0
H421 H 0.23345 0.13696 0.97648 0.0
H422 H 0.21831 0.14431 0.02793 0.0
H423 H 0.19656 0.07288 0.08283 0.0
H424 H 0.0803 0.10082 0.18893 0.0
H425 H 0.11883 0.0882 0.15116 0.0
C426 C 0.3112 0.34634 0.4993 0.0
C427 C 0.30563 0.37238 0.4918 0.0
C428 C 0.32602 0.3402 0.52598 0.0
C429 C 0.34907 0.36456 0.59997 0.0
H430 H 0.42242 0.32145 0.58724 0.0
C431 C 0.44829 0.35275 0.68761 0.0
C432 C 0.46489 0.32922 0.68749 0.0
C433 C 0.42503 0.35727 0.66629 0.0
C434 C 0.4017 0.33304 0.59154 0.0
H435 H 0.30914 0.41229 0.50714 0.0
H436 H 0.33483 0.40152 0.55396 0.0
H437 H 0.38731 0.32989 0.54629 0.0
H438 H 0.46892 0.29129 0.66679 0.0
H439 H 0.42755 0.29844 0.63089 0.0
H440 H 0.36344 0.36755 0.64541 0.0
C441 C 0.32788 0.3859 0.53916 0.0
C442 C 0.3816 0.33794 0.56791 0.0
C443 C 0.3134 0.39206 0.51231 0.0
C444 C 0.45673 0.30978 0.66699 0.0
C445 C 0.43318 0.31401 0.64624 0.0
C446 C 0.36903 0.35933 0.62387 0.0
C447 C 0.33522 0.35997 0.54583 0.0
C448 C 0.35515 0.35379 0.57178 0.0
C449 C 0.41772 0.33812 0.64484 0.0
C450 C 0.39568 0.3435 0.61994 0.0
H451 H 0.30562 0.33081 0.48386 0.0
H452 H 0.33119 0.32003 0.5307 0.0
H453 H 0.3288 0.37688 0.60353 0.0
H454 H 0.45442 0.36808 0.70308 0.0
H455 H 0.41381 0.37613 0.66586 0.0
C456 C 0.69215 0.40501 0.04608 0.0
C457 C 0.70833 0.38516 0.06096 0.0
C458 C 0.68195 0.40156 0.0169 0.0
C459 C 0.66531 0.34921 0.96149 0.0
H460 H 0.65021 0.40849 0.91068 0.0
C461 C 0.6065 0.33943 0.84634 0.0
C462 C 0.57703 0.35157 0.84731 0.0
C463 C 0.62911 0.34526 0.86791 0.0
C464 C 0.65467 0.39175 0.92452 0.0
H465 H 0.72743 0.34628 0.05585 0.0
H466 H 0.71135 0.34085 1.00449 0.0
H467 H 0.67855 0.41454 0.95716 0.0
H468 H 0.54882 0.38062 0.8698 0.0
H469 H 0.58885 0.39177 0.90649 0.0
H470 H 0.64156 0.32652 0.92838 0.0
C471 C 0.70548 0.35884 0.01577 0.0
C472 C 0.67055 0.39519 0.95138 0.0
C473 C 0.7152 0.36212 0.04524 0.0
C474 C 0.57146 0.37111 0.86855 0.0
C475 C 0.59432 0.37747 0.8895 0.0
C476 C 0.65008 0.34572 0.93431 0.0
C477 C 0.6882 0.37834 1.00129 0.0
C478 C 0.67521 0.37411 0.97079 0.0
C479 C 0.62284 0.36389 0.8901 0.0
C480 C 0.64387 0.36706 0.91598 0.0
H481 H 0.68702 0.42332 0.05704 0.0
H482 H 0.66836 0.41697 1.00699 0.0
H483 H 0.66787 0.3325 0.97576 0.0
H484 H 0.61115 0.32407 0.83037 0.0
H485 H 0.65096 0.33453 0.868 0.0
C486 C 0.79788 0.07386 0.49153 0.0
C487 C 0.78741 0.09428 0.50997 0.0
C488 C 0.80759 0.07856 0.46243 0.0
C489 C 0.83676 0.13263 0.41532 0.0
H490 H 0.8395 0.07784 0.35584 0.0
C491 C 0.90701 0.14632 0.30819 0.0
C492 C 0.93177 0.12839 0.30713 0.0
C493 C 0.88072 0.14159 0.32612 0.0
C494 C 0.83858 0.09342 0.37211 0.0
H495 H 0.7769 0.1355 0.51119 0.0
H496 H 0.79229 0.14354 0.45989 0.0
H497 H 0.80831 0.07185 0.40086 0.0
H498 H 0.94763 0.09072 0.32184 0.0
H499 H 0.9011 0.08182 0.35206 0.0
H500 H 0.86711 0.15408 0.38643 0.0
C501 C 0.79418 0.12395 0.46835 0.0
C502 C 0.82098 0.08994 0.39812 0.0
C503 C 0.78488 0.11929 0.49774 0.0
C504 C 0.92848 0.10455 0.32181 0.0
C505 C 0.90193 0.09956 0.33924 0.0
C506 C 0.85378 0.13628 0.38908 0.0
C507 C 0.80656 0.10377 0.45049 0.0
C508 C 0.82073 0.10912 0.42064 0.0
C509 C 0.87864 0.11866 0.34287 0.0
C510 C 0.85567 0.11642 0.36761 0.0
H511 H 0.7994 0.05418 0.49984 0.0
H512 H 0.81718 0.06244 0.44982 0.0
H513 H 0.83772 0.14776 0.43207 0.0
H514 H 0.9094 0.16509 0.29758 0.0
H515 H 0.86306 0.15659 0.32847 0.0
C516 C 0.78805 0.85996 0.02939 0.0
C517 C 0.77753 0.88541 0.03489 0.0
C518 C 0.79894 0.85271 1.00116 0.0
C519 C 0.8309 0.88222 0.93216 0.0
H520 H 0.82602 0.81132 0.90284 0.0
C521 C 0.89513 0.85236 0.82495 0.0
C522 C 0.916 0.83178 0.82988 0.0
C523 C 0.87073 0.85732 0.8452 0.0
C524 C 0.82739 0.83125 0.91065 0.0
H525 H 0.76858 0.9228 0.01481 0.0
H526 H 0.78655 0.91006 0.96542 0.0
H527 H 0.79771 0.82353 0.94804 0.0
H528 H 0.92667 0.79919 0.85821 0.0
H529 H 0.8837 0.80722 0.8929 0.0
H530 H 0.86092 0.8898 0.89501 0.0
C531 C 0.78743 0.89583 0.98301 0.0
C532 C 0.81137 0.83823 0.93671 0.0
C533 C 0.77694 0.90314 0.0113 0.0
C534 C 0.91056 0.81497 0.85378 0.0
C535 C 0.88596 0.81962 0.87366 0.0
C536 C 0.8466 0.8753 0.90598 0.0
C537 C 0.79924 0.87067 0.97763 0.0
C538 C 0.81349 0.8637 0.94824 0.0
C539 C 0.86666 0.84154 0.8704 0.0
C540 C 0.84563 0.8496 0.89526 0.0
H541 H 0.78905 0.84595 0.04722 0.0
H542 H 0.80824 0.83329 0.99817 0.0
H543 H 0.83367 0.90189 0.94043 0.0
H544 H 0.89923 0.86582 0.80693 0.0
H545 H 0.85608 0.87425 0.842 0.0
C546 C 0.63936 0.60679 0.55094 0.0
C547 C 0.6387 0.62721 0.57177 0.0
C548 C 0.62489 0.60939 0.52332 0.0
C549 C 0.59114 0.6587 0.47176 0.0
H550 H 0.55146 0.59801 0.43667 0.0
C551 C 0.50732 0.66489 0.37147 0.0
C552 C 0.51264 0.64731 0.34799 0.0
C553 C 0.52297 0.66216 0.39848 0.0
C554 C 0.56265 0.61508 0.44608 0.0
H555 H 0.62251 0.66647 0.57993 0.0
H556 H 0.59632 0.67087 0.53209 0.0
H557 H 0.57788 0.59426 0.48431 0.0
H558 H 0.53819 0.61272 0.33472 0.0
H559 H 0.56511 0.60758 0.38228 0.0
H560 H 0.57491 0.67959 0.43375 0.0
C561 C 0.60866 0.65297 0.5367 0.0
C562 C 0.57798 0.61295 0.47339 0.0
C563 C 0.62356 0.65047 0.56423 0.0
C564 C 0.53355 0.62655 0.35236 0.0
C565 C 0.54889 0.6236 0.37961 0.0
C566 C 0.57543 0.66087 0.44465 0.0
C567 C 0.60896 0.6324 0.51586 0.0
C568 C 0.59253 0.63473 0.48666 0.0
C569 C 0.54404 0.64156 0.40284 0.0
C570 C 0.56103 0.63909 0.43149 0.0
H571 H 0.6513 0.58877 0.55595 0.0
H572 H 0.62645 0.59334 0.50775 0.0
H573 H 0.6025 0.67582 0.48081 0.0
H574 H 0.49146 0.68118 0.36881 0.0
H575 H 0.51849 0.67613 0.41604 0.0
C576 C 0.33171 0.59009 0.96726 0.0
C577 C 0.33351 0.60868 0.94464 0.0
C578 C 0.34327 0.59567 0.9956 0.0
C579 C 0.37135 0.65111 0.0433 0.0
H580 H 0.40893 0.59554 0.0888 0.0
C581 C 0.46283 0.66406 0.13667 0.0
C582 C 0.45646 0.65175 0.16379 0.0
C583 C 0.44342 0.66001 0.1122 0.0
C584 C 0.39811 0.61116 0.07647 0.0
H585 H 0.3491 0.64748 0.93358 0.0
H586 H 0.37089 0.65688 0.98241 0.0
H587 H 0.38503 0.58575 0.041 0.0
H588 H 0.42465 0.62582 0.18682 0.0
H589 H 0.39117 0.61784 0.14329 0.0
H590 H 0.38657 0.67666 0.07825 0.0
C591 C 0.35948 0.63831 0.9789 0.0
C592 C 0.38426 0.6056 0.04906 0.0
C593 C 0.34728 0.63289 0.95076 0.0
C594 C 0.42991 0.63566 0.16619 0.0
C595 C 0.41091 0.63102 0.14136 0.0
C596 C 0.38583 0.65671 0.0704 0.0
C597 C 0.35756 0.61982 1.00185 0.0
C598 C 0.37092 0.62553 0.03186 0.0
C599 C 0.4177 0.64304 0.11413 0.0
C600 C 0.39951 0.63681 0.08709 0.0
H601 H 0.32081 0.57137 0.96313 0.0
H602 H 0.34065 0.58107 0.01264 0.0
H603 H 0.36069 0.66695 0.03128 0.0
H604 H 0.48313 0.67659 0.13427 0.0
H605 H 0.44922 0.66935 0.09139 0.0
C606 C 0.20721 0.86739 0.49765 0.0
C607 C 0.2123 0.89286 0.48734 0.0
C608 C 0.19283 0.86303 0.52518 0.0
C609 C 0.13851 0.89296 0.57873 0.0
H610 H 0.16846 0.8393 0.63155 0.0
C611 C 0.07167 0.86744 0.68736 0.0
C612 C 0.06825 0.84068 0.69278 0.0
C613 C 0.09281 0.87627 0.6656 0.0
C614 C 0.15958 0.85425 0.617 0.0
H615 H 0.20709 0.9337 0.49887 0.0
H616 H 0.18134 0.92598 0.54646 0.0
H617 H 0.19802 0.84943 0.58666 0.0
H618 H 0.08546 0.80238 0.68059 0.0
H619 H 0.12145 0.81752 0.64281 0.0
H620 H 0.09942 0.89712 0.60836 0.0
C621 C 0.18835 0.90942 0.53304 0.0
C622 C 0.17661 0.86006 0.59126 0.0
C623 C 0.20304 0.91381 0.50567 0.0
C624 C 0.08738 0.82314 0.67698 0.0
C625 C 0.10833 0.83189 0.65535 0.0
C626 C 0.12126 0.88696 0.60435 0.0
C627 C 0.18289 0.88398 0.54305 0.0
C628 C 0.16603 0.87919 0.57156 0.0
C629 C 0.111 0.85852 0.64889 0.0
C630 C 0.13124 0.86716 0.62358 0.0
H631 H 0.21344 0.85073 0.48408 0.0
H632 H 0.18862 0.84318 0.53207 0.0
H633 H 0.1296 0.90769 0.56389 0.0
H634 H 0.05724 0.88147 0.6991 0.0
H635 H 0.09452 0.89696 0.66154 0.0
C636 C 0.23388 0.35028 0.37561 0.0
C637 C 0.23276 0.35896 0.40526 0.0
C638 C 0.20757 0.33891 0.36236 0.0
C639 C 0.13405 0.30493 0.38098 0.0
H640 H 0.11256 0.31862 0.29896 0.0
C641 C 0.03061 0.25183 0.33029 0.0
C642 C 0.03723 0.23933 0.30323 0.0
C643 C 0.04957 0.27217 0.34036 0.0
C644 C 0.11828 0.31457 0.32187 0.0
H645 H 0.2029 0.36274 0.44408 0.0
H646 H 0.15704 0.34274 0.42105 0.0
H647 H 0.15646 0.34178 0.32194 0.0
H648 H 0.06669 0.23995 0.26402 0.0
H649 H 0.10034 0.27515 0.2818 0.0
H650 H 0.09677 0.27725 0.38091 0.0
C651 C 0.1784 0.3445 0.40812 0.0
C652 C 0.14348 0.32778 0.33501 0.0
C653 C 0.20471 0.35589 0.42136 0.0
C654 C 0.06096 0.2494 0.28489 0.0
C655 C 0.08034 0.26953 0.29521 0.0
C656 C 0.109 0.29174 0.36788 0.0
C657 C 0.17949 0.33587 0.37845 0.0
C658 C 0.15182 0.32293 0.36467 0.0
C659 C 0.07595 0.28007 0.32385 0.0
C660 C 0.10085 0.29621 0.33809 0.0
H661 H 0.25525 0.35201 0.36269 0.0
H662 H 0.20943 0.33203 0.33966 0.0
H663 H 0.14014 0.30034 0.40366 0.0
H664 H 0.01228 0.24452 0.34475 0.0
H665 H 0.04484 0.28045 0.36207 0.0
C666 C 0.31736 0.11404 0.90292 0.0
C667 C 0.28935 0.11144 0.88674 0.0
C668 C 0.3439 0.12562 0.89014 0.0
C669 C 0.36709 0.16899 0.82775 0.0
H670 H 0.45115 0.14929 0.85119 0.0
C671 C 0.47261 0.2257 0.78397 0.0
C672 C 0.48883 0.23727 0.80767 0.0
C673 C 0.45304 0.20423 0.78904 0.0
C674 C 0.42781 0.15481 0.84423 0.0
H675 H 0.26763 0.11934 0.84421 0.0
H676 H 0.31401 0.13803 0.82161 0.0
H677 H 0.40617 0.12449 0.86947 0.0
H678 H 0.5004 0.23388 0.8542 0.0
H679 H 0.46735 0.19594 0.86279 0.0
H680 H 0.38876 0.19939 0.80272 0.0
C681 C 0.31542 0.13171 0.84444 0.0
C682 C 0.40196 0.1408 0.85495 0.0
C683 C 0.28881 0.12052 0.85733 0.0
C684 C 0.48824 0.22518 0.83554 0.0
C685 C 0.46922 0.20348 0.84046 0.0
C686 C 0.39291 0.18269 0.81672 0.0
C687 C 0.34331 0.13468 0.8607 0.0
C688 C 0.37115 0.14806 0.84739 0.0
C689 C 0.44999 0.19376 0.81771 0.0
C690 C 0.42352 0.17613 0.82531 0.0
H691 H 0.31893 0.10701 0.92546 0.0
H692 H 0.36469 0.12788 0.90363 0.0
H693 H 0.34388 0.1756 0.82177 0.0
H694 H 0.47243 0.23484 0.76236 0.0
H695 H 0.43868 0.19693 0.77103 0.0
C696 C 0.733 0.12047 0.63382 0.0
C697 C 0.72654 0.11066 0.60531 0.0
C698 C 0.70942 0.13196 0.651 0.0
C699 C 0.63149 0.16312 0.64626 0.0
H700 H 0.63264 0.15376 0.73162 0.0
C701 C 0.54731 0.22131 0.71988 0.0
C702 C 0.56364 0.23606 0.74108 0.0
C703 C 0.56151 0.19961 0.70654 0.0
C704 C 0.63188 0.15646 0.70781 0.0
H705 H 0.69018 0.10554 0.57235 0.0
H706 H 0.64873 0.12562 0.60245 0.0
H707 H 0.6692 0.12939 0.70034 0.0
H708 H 0.60616 0.23866 0.76688 0.0
H709 H 0.63054 0.20043 0.74456 0.0
H710 H 0.59469 0.19065 0.65381 0.0
C711 C 0.67221 0.12455 0.61144 0.0
C712 C 0.65298 0.14263 0.68986 0.0
C713 C 0.69595 0.11309 0.59414 0.0
C714 C 0.59281 0.22719 0.7511 0.0
C715 C 0.60687 0.20539 0.73805 0.0
C716 C 0.61028 0.17684 0.66421 0.0
C717 C 0.6786 0.13393 0.64024 0.0
C718 C 0.65368 0.14633 0.65891 0.0
C719 C 0.59218 0.19229 0.71438 0.0
C720 C 0.61075 0.17419 0.69528 0.0
H721 H 0.75646 0.11936 0.64288 0.0
H722 H 0.71552 0.13959 0.67267 0.0
H723 H 0.63146 0.16668 0.6226 0.0
H724 H 0.52509 0.22814 0.71133 0.0
H725 H 0.54942 0.18972 0.68864 0.0
C726 C 0.78239 0.35756 0.1741 0.0
C727 C 0.78262 0.36967 0.14618 0.0
C728 C 0.80956 0.34602 0.18528 0.0
C729 C 0.88423 0.3176 0.15998 0.0
H730 H 0.9054 0.31898 0.24362 0.0
C731 C 0.98938 0.26015 0.1987 0.0
C732 C 0.98332 0.2435 0.22259 0.0
C733 C 0.96974 0.28124 0.19319 0.0
C734 C 0.89978 0.3184 0.22021 0.0
H735 H 0.81192 0.3799 0.10859 0.0
H736 H 0.85932 0.35976 0.12804 0.0
H737 H 0.86078 0.34431 0.22577 0.0
H738 H 0.9539 0.237 0.26106 0.0
H739 H 0.91894 0.27359 0.25115 0.0
H740 H 0.92231 0.29121 0.15431 0.0
C741 C 0.83798 0.35883 0.14112 0.0
C742 C 0.87418 0.33286 0.20998 0.0
C743 C 0.8108 0.37033 0.12992 0.0
C744 C 0.95923 0.24979 0.24267 0.0
C745 C 0.93912 0.2707 0.23686 0.0
C746 C 0.90968 0.3032 0.17015 0.0
C747 C 0.83763 0.34631 0.16882 0.0
C748 C 0.86594 0.33242 0.17975 0.0
C749 C 0.94315 0.28573 0.21105 0.0
C750 C 0.91772 0.30322 0.20043 0.0
H751 H 0.76098 0.35644 0.18705 0.0
H752 H 0.80828 0.3362 0.20645 0.0
H753 H 0.87823 0.31633 0.13668 0.0
H754 H 0.00789 0.25566 0.18294 0.0
H755 H 0.97415 0.29292 0.17368 0.0
C756 C 0.70773 0.68329 0.65387 0.0
C757 C 0.71354 0.65641 0.65213 0.0
C758 C 0.72911 0.69993 0.66816 0.0
C759 C 0.79294 0.69788 0.72378 0.0
H760 H 0.81896 0.76403 0.69096 0.0
C761 C 0.91055 0.74618 0.75077 0.0
C762 C 0.91278 0.7734 0.75226 0.0
C763 C 0.88213 0.73414 0.74385 0.0
C764 C 0.81147 0.74585 0.70076 0.0
H765 H 0.74724 0.62621 0.6622 0.0
H766 H 0.78432 0.65499 0.68675 0.0
H767 H 0.77758 0.73891 0.6665 0.0
H768 H 0.88657 0.80937 0.74929 0.0
H769 H 0.83663 0.7882 0.73692 0.0
H770 H 0.82743 0.70434 0.75744 0.0
C771 C 0.76293 0.66323 0.67798 0.0
C772 C 0.78782 0.73143 0.68668 0.0
C773 C 0.74171 0.64673 0.66378 0.0
C774 C 0.88549 0.78832 0.74847 0.0
C775 C 0.85701 0.77624 0.74108 0.0
C776 C 0.81653 0.71223 0.73777 0.0
C777 C 0.75664 0.68994 0.68095 0.0
C778 C 0.77895 0.7069 0.69756 0.0
C779 C 0.85527 0.74903 0.73792 0.0
C780 C 0.8267 0.73604 0.72598 0.0
H781 H 0.68618 0.69129 0.64516 0.0
H782 H 0.72363 0.72043 0.67001 0.0
H783 H 0.7861 0.67938 0.7332 0.0
H784 H 0.93119 0.73418 0.75355 0.0
H785 H 0.88171 0.71317 0.7414 0.0
C786 C 0.69384 0.85807 0.12005 0.0
C787 C 0.71969 0.8716 0.13181 0.0
C788 C 0.67362 0.84405 0.13862 0.0
C789 C 0.66915 0.81583 0.21483 0.0
H790 H 0.58241 0.80493 0.19259 0.0
C791 C 0.59937 0.72775 0.25208 0.0
C792 C 0.56649 0.72789 0.25158 0.0
C793 C 0.6163 0.75018 0.24557 0.0
C794 C 0.60633 0.80824 0.19967 0.0
H795 H 0.74477 0.88013 0.17266 0.0
H796 H 0.70862 0.85761 0.20486 0.0
H797 H 0.61486 0.83441 0.16384 0.0
H798 H 0.5253 0.75198 0.24682 0.0
H799 H 0.55498 0.79181 0.23614 0.0
H800 H 0.66038 0.79029 0.25115 0.0
C801 C 0.70419 0.85713 0.18123 0.0
C802 C 0.62525 0.82476 0.18268 0.0
C803 C 0.72476 0.87059 0.16265 0.0
C804 C 0.55069 0.75151 0.24758 0.0
C805 C 0.56773 0.77415 0.24097 0.0
C806 C 0.65009 0.79977 0.23213 0.0
C807 C 0.67837 0.84351 0.16955 0.0
C808 C 0.65723 0.82812 0.18941 0.0
C809 C 0.60072 0.77338 0.23835 0.0
C810 C 0.61875 0.79492 0.22415 0.0
H811 H 0.68892 0.85851 0.09651 0.0
H812 H 0.65446 0.8334 0.12855 0.0
H813 H 0.69361 0.81762 0.22085 0.0
H814 H 0.61202 0.70967 0.25493 0.0
H815 H 0.64153 0.74852 0.24361 0.0
C816 C 0.31114 0.85914 0.41797 0.0
C817 C 0.28429 0.86707 0.40241 0.0
C818 C 0.33416 0.84387 0.40391 0.0
C819 C 0.34554 0.80044 0.3386 0.0
H820 H 0.43418 0.81498 0.34888 0.0
C821 C 0.43307 0.75206 0.26187 0.0
C822 C 0.4566 0.73782 0.27615 0.0
C823 C 0.41647 0.7713 0.27718 0.0
C824 C 0.40951 0.8107 0.3459 0.0
H825 H 0.26007 0.86437 0.36027 0.0
H826 H 0.30007 0.83848 0.33578 0.0
H827 H 0.39515 0.83991 0.37737 0.0
H828 H 0.48353 0.73434 0.31658 0.0
H829 H 0.4544 0.76816 0.3435 0.0
H830 H 0.35956 0.77151 0.30713 0.0
C831 C 0.30349 0.84376 0.35884 0.0
C832 C 0.38716 0.82482 0.36232 0.0
C833 C 0.28064 0.8589 0.37282 0.0
C834 C 0.46567 0.7452 0.30496 0.0
C835 C 0.44883 0.76444 0.32044 0.0
C836 C 0.36772 0.78656 0.32216 0.0
C837 C 0.33062 0.83608 0.37409 0.0
C838 C 0.35484 0.82008 0.35853 0.0
C839 C 0.42287 0.77656 0.30719 0.0
C840 C 0.39993 0.79174 0.32523 0.0
H841 H 0.31472 0.86524 0.44075 0.0
H842 H 0.35462 0.83808 0.41639 0.0
H843 H 0.32098 0.79571 0.33566 0.0
H844 H 0.4257 0.74681 0.23964 0.0
H845 H 0.39714 0.7808 0.26612 0.0
C846 C 0.23445 0.63892 0.88125 0.0
C847 C 0.25857 0.62966 0.8627 0.0
C848 C 0.20983 0.6535 0.86962 0.0
C849 C 0.18759 0.69441 0.80619 0.0
H850 H 0.10384 0.68344 0.8377 0.0
C851 C 0.0798 0.75678 0.7716 0.0
C852 C 0.06443 0.76764 0.79635 0.0
C853 C 0.1018 0.73679 0.7754 0.0
C854 C 0.12708 0.68663 0.82858 0.0
H855 H 0.27605 0.62892 0.81743 0.0
H856 H 0.23274 0.65415 0.79704 0.0
H857 H 0.14642 0.65496 0.85294 0.0
H858 H 0.05878 0.76541 0.84413 0.0
H859 H 0.0964 0.73057 0.85061 0.0
H860 H 0.16812 0.72652 0.78232 0.0
C861 C 0.23299 0.65019 0.82062 0.0
C862 C 0.1515 0.67045 0.83744 0.0
C863 C 0.25765 0.63556 0.83226 0.0
C864 C 0.07039 0.75752 0.82464 0.0
C865 C 0.09179 0.73741 0.82835 0.0
C866 C 0.16304 0.71059 0.79722 0.0
C867 C 0.20867 0.65916 0.83915 0.0
C868 C 0.18223 0.6746 0.82705 0.0
C869 C 0.10808 0.72706 0.8039 0.0
C870 C 0.13275 0.70731 0.80902 0.0
H871 H 0.23427 0.6345 0.90472 0.0
H872 H 0.19177 0.66049 0.88462 0.0
H873 H 0.211 0.69819 0.79785 0.0
H874 H 0.07569 0.76434 0.74957 0.0
H875 H 0.11406 0.72909 0.75618 0.0
loop_
_geom_bond_atom_site_label_1
_geom_bond_atom_site_label_2
_geom_bond_distance
_geom_bond_site_symmetry_2
_ccdc_geom_bond_type
H0 C3 0.931 . S
H1 C6 0.928 . S
H2 C8 0.930 . S
C3 H0 0.931 . S
C3 C4 1.413 . S
C3 C5 1.360 . S
C4 C3 1.413 . S
C4 C8 1.429 . S
C5 C3 1.360 . S
C5 C6 1.372 . S
C6 H1 0.928 . S
C6 C5 1.372 . S
C6 C7 1.404 . S
C7 C6 1.404 . S
C7 C8 1.391 . S
C8 H2 0.930 . S
C8 C4 1.429 . S
C8 C7 1.391 . S
H9 C12 0.931 . S
H10 C15 0.928 . S
H11 C17 0.930 . S
C12 H9 0.931 . S
C12 C13 1.413 . S
C12 C14 1.360 . S
C13 C12 1.413 . S
C13 C17 1.429 . S
C14 C12 1.360 . S
C14 C15 1.372 . S
C15 H10 0.928 . S
C15 C14 1.372 . S
C15 C16 1.404 . S
C16 C15 1.404 . S
C16 C17 1.391 . S
C17 H11 0.930 . S
C17 C13 1.429 . S
C17 C16 1.391 . S
H18 C21 0.931 . S
H19 C24 0.928 . S
H20 C26 0.930 . S
C21 H18 0.931 . S
C21 C22 1.413 . S
C21 C23 1.360 . S
C22 C21 1.413 . S
C22 C26 1.429 . S
C23 C21 1.360 . S
C23 C24 1.372 . S
C24 H19 0.928 . S
C24 C23 1.372 . S
C24 C25 1.404 . S
C25 C24 1.404 . S
C25 C26 1.391 . S
C26 H20 0.930 . S
C26 C22 1.429 . S
C26 C25 1.391 . S
H27 C30 0.931 . S
H28 C33 0.928 . S
H29 C35 0.930 . S
C30 H27 0.931 . S
C30 C31 1.413 . S
C30 C32 1.360 . S
C31 C30 1.413 . S
C31 C35 1.429 . S
C32 C30 1.360 . S
C32 C33 1.372 . S
C33 H28 0.928 . S
C33 C32 1.372 . S
C33 C34 1.404 . S
C34 C33 1.404 . S
C34 C35 1.391 . S
C35 H29 0.930 . S
C35 C31 1.429 . S
C35 C34 1.391 . S
H36 C39 0.931 . S
H37 C42 0.928 . S
H38 C44 0.930 . S
C39 H36 0.931 . S
C39 C40 1.413 . S
C39 C41 1.360 . S
C40 C39 1.413 . S
C40 C44 1.429 . S
C41 C39 1.360 . S
C41 C42 1.372 . S
C42 H37 0.928 . S
C42 C41 1.372 . S
C42 C43 1.404 . S
C43 C42 1.404 . S
C43 C44 1.391 . S
C44 H38 0.930 . S
C44 C40 1.429 . S
C44 C43 1.391 . S
H45 C48 0.931 . S
H46 C51 0.928 . S
H47 C53 0.930 . S
C48 H45 0.931 . S
C48 C49 1.413 . S
C48 C50 1.360 . S
C49 C48 1.413 . S
C49 C53 1.429 . S
C50 C48 1.360 . S
C50 C51 1.372 . S
C51 H46 0.928 . S
C51 C50 1.372 . S
C51 C52 1.404 . S
C52 C51 1.404 . S
C52 C53 1.391 . S
C53 H47 0.930 . S
C53 C49 1.429 . S
C53 C52 1.391 . S
H54 C57 0.931 . S
H55 C60 0.928 . S
H56 C62 0.930 . S
C57 H54 0.931 . S
C57 C58 1.413 . S
C57 C59 1.360 . S
C58 C57 1.413 . S
C58 C62 1.429 . S
C59 C57 1.360 . S
C59 C60 1.372 . S
C60 H55 0.928 . S
C60 C59 1.372 . S
C60 C61 1.404 . S
C61 C60 1.404 . S
C61 C62 1.391 . S
C62 H56 0.930 . S
C62 C58 1.429 . S
C62 C61 1.391 . S
H63 C66 0.931 . S
H64 C69 0.928 . S
H65 C71 0.930 . S
C66 H63 0.931 . S
C66 C67 1.413 . S
C66 C68 1.360 . S
C67 C66 1.413 . S
C67 C71 1.429 . S
C68 C66 1.360 . S
C68 C69 1.372 . S
C69 H64 0.928 . S
C69 C68 1.372 . S
C69 C70 1.404 . S
C70 C69 1.404 . S
C70 C71 1.391 . S
C71 H65 0.930 . S
C71 C67 1.429 . S
C71 C70 1.391 . S
Zn72 O78 1.920 1_455 S
Zn72 O84 1.898 . S
Zn72 O87 1.905 . S
Zn73 O81 1.905 1_655 S
Zn73 O82 1.898 . S
Zn73 O90 1.920 . S
Zn74 O77 2.080 1_455 S
Zn74 O80 2.114 . S
Zn74 O83 2.120 1_455 S
Zn74 O85 2.120 . S
Zn74 O86 2.114 . S
Zn74 O89 2.080 1_455 S
C75 O80 1.166 . S
C75 O81 1.182 . S
C76 O82 1.167 . S
C76 O83 1.299 . S
O77 Zn74 2.080 1_655 S
O77 C91 1.305 . S
O78 Zn72 1.920 1_655 S
O78 C91 1.234 . S
C79 O84 1.167 . S
C79 O85 1.299 . S
O80 Zn74 2.114 . S
O80 C75 1.166 . S
O81 Zn73 1.905 1_455 S
O81 C75 1.182 . S
O82 Zn73 1.898 . S
O82 C76 1.167 . S
O83 Zn74 2.120 1_655 S
O83 C76 1.299 . S
O84 Zn72 1.898 . S
O84 C79 1.167 . S
O85 Zn74 2.120 . S
O85 C79 1.299 . S
O86 Zn74 2.114 . S
O86 C88 1.166 . S
O87 Zn72 1.905 . S
O87 C88 1.182 . S
C88 O86 1.166 . S
C88 O87 1.182 . S
O89 Zn74 2.080 1_655 S
O89 C92 1.305 . S
O90 Zn73 1.920 . S
O90 C92 1.234 . S
C91 O77 1.305 . S
C91 O78 1.234 . S
C92 O89 1.305 . S
C92 O90 1.234 . S
Zn93 O99 1.920 . S
Zn93 O105 1.898 . S
Zn93 O108 1.905 . S
Zn94 O102 1.905 . S
Zn94 O103 1.898 . S
Zn94 O111 1.920 . S
Zn95 O98 2.080 . S
Zn95 O101 2.114 . S
Zn95 O104 2.120 . S
Zn95 O106 2.120 . S
Zn95 O107 2.114 . S
Zn95 O110 2.080 . S
C96 O101 1.166 . S
C96 O102 1.182 . S
C97 O103 1.167 . S
C97 O104 1.299 . S
O98 Zn95 2.080 . S
O98 C112 1.305 . S
O99 Zn93 1.920 . S
O99 C112 1.234 . S
C100 O105 1.167 . S
C100 O106 1.299 . S
O101 Zn95 2.114 . S
O101 C96 1.166 . S
O102 Zn94 1.905 . S
O102 C96 1.182 . S
O103 Zn94 1.898 . S
O103 C97 1.167 . S
O104 Zn95 2.120 . S
O104 C97 1.299 . S
O105 Zn93 1.898 . S
O105 C100 1.167 . S
O106 Zn95 2.120 . S
O106 C100 1.299 . S
O107 Zn95 2.114 . S
O107 C109 1.166 . S
O108 Zn93 1.905 . S
O108 C109 1.182 . S
C109 O107 1.166 . S
C109 O108 1.182 . S
O110 Zn95 2.080 . S
O110 C113 1.305 . S
O111 Zn94 1.920 . S
O111 C113 1.234 . S
C112 O98 1.305 . S
C112 O99 1.234 . S
C113 O110 1.305 . S
C113 O111 1.234 . S
Zn114 O120 1.920 . S
Zn114 O126 1.898 . S
Zn114 O129 1.905 1_455 S
Zn115 O123 1.905 . S
Zn115 O124 1.898 . S
Zn115 O132 1.920 1_655 S
Zn116 O119 2.080 . S
Zn116 O122 2.114 1_455 S
Zn116 O125 2.120 1_455 S
Zn116 O127 2.120 . S
Zn116 O128 2.114 1_455 S
Zn116 O131 2.080 . S
C117 O122 1.166 . S
C117 O123 1.182 . S
C118 O124 1.167 . S
C118 O125 1.299 . S
O119 Zn116 2.080 . S
O119 C133 1.305 . S
O120 Zn114 1.920 . S
O120 C133 1.234 . S
C121 O126 1.167 . S
C121 O127 1.299 . S
O122 Zn116 2.114 1_655 S
O122 C117 1.166 . S
O123 Zn115 1.905 . S
O123 C117 1.182 . S
O124 Zn115 1.898 . S
O124 C118 1.167 . S
O125 Zn116 2.120 1_655 S
O125 C118 1.299 . S
O126 Zn114 1.898 . S
O126 C121 1.167 . S
O127 Zn116 2.120 . S
O127 C121 1.299 . S
O128 Zn116 2.114 1_655 S
O128 C130 1.166 . S
O129 Zn114 1.905 1_655 S
O129 C130 1.182 . S
C130 O128 1.166 . S
C130 O129 1.182 . S
O131 Zn116 2.080 . S
O131 C134 1.305 . S
O132 Zn115 1.920 1_455 S
O132 C134 1.234 . S
C133 O119 1.305 . S
C133 O120 1.234 . S
C134 O131 1.305 . S
C134 O132 1.234 . S
Zn135 O141 1.920 . S
Zn135 O147 1.898 . S
Zn135 O150 1.905 . S
Zn136 O144 1.905 . S
Zn136 O145 1.898 . S
Zn136 O153 1.920 . S
Zn137 O140 2.080 . S
Zn137 O143 2.114 . S
Zn137 O146 2.120 . S
Zn137 O148 2.120 . S
Zn137 O149 2.114 . S
Zn137 O152 2.080 . S
C138 O143 1.166 . S
C138 O144 1.182 . S
C139 O145 1.167 . S
C139 O146 1.299 . S
O140 Zn137 2.080 . S
O140 C154 1.305 . S
O141 Zn135 1.920 . S
O141 C154 1.234 . S
C142 O147 1.167 . S
C142 O148 1.299 . S
O143 Zn137 2.114 . S
O143 C138 1.166 . S
O144 Zn136 1.905 . S
O144 C138 1.182 . S
O145 Zn136 1.898 . S
O145 C139 1.167 . S
O146 Zn137 2.120 . S
O146 C139 1.299 . S
O147 Zn135 1.898 . S
O147 C142 1.167 . S
O148 Zn137 2.120 . S
O148 C142 1.299 . S
O149 Zn137 2.114 . S
O149 C151 1.166 . S
O150 Zn135 1.905 . S
O150 C151 1.182 . S
C151 O149 1.166 . S
C151 O150 1.182 . S
O152 Zn137 2.080 . S
O152 C155 1.305 . S
O153 Zn136 1.920 . S
O153 C155 1.234 . S
C154 O140 1.305 . S
C154 O141 1.234 . S
C155 O152 1.305 . S
C155 O153 1.234 . S
C156 C157 1.349 . S
C156 C158 1.327 . S
C156 H181 0.950 . S
C157 C156 1.349 . S
C157 C173 1.349 . S
C158 C156 1.327 . S
C158 C177 1.429 . S
C158 H182 0.950 . S
C159 C176 1.574 . S
C159 C178 1.368 . S
C159 H183 0.949 . S
H160 C164 0.949 . S
C161 C162 1.349 . S
C161 C163 1.327 . S
C161 H184 0.950 . S
C162 C161 1.349 . S
C162 C174 1.349 . S
C163 C161 1.327 . S
C163 C179 1.429 . S
C163 H185 0.950 . S
C164 H160 0.949 . S
C164 C172 1.574 1_545 S
C164 C180 1.368 . S
H165 C173 0.950 . S
H166 C171 0.950 . S
H167 C172 0.949 . S
H168 C174 0.950 . S
H169 C175 0.950 . S
H170 C176 0.949 . S
C171 H166 0.950 . S
C171 C173 1.327 . S
C171 C177 1.429 . S
C172 C164 1.574 1_565 S
C172 H167 0.949 . S
C172 C178 1.368 . S
C173 C157 1.349 . S
C173 H165 0.950 . S
C173 C171 1.327 . S
C174 C162 1.349 . S
C174 H168 0.950 . S
C174 C175 1.327 . S
C175 H169 0.950 . S
C175 C174 1.327 . S
C175 C179 1.429 . S
C176 C159 1.574 . S
C176 H170 0.949 . S
C176 C180 1.368 1_565 S
C177 C158 1.429 . S
C177 C171 1.429 . S
C177 C178 1.523 . S
C178 C159 1.368 . S
C178 C172 1.368 . S
C178 C177 1.523 . S
C179 C163 1.429 . S
C179 C175 1.429 . S
C179 C180 1.523 . S
C180 C164 1.368 . S
C180 C176 1.368 1_545 S
C180 C179 1.523 . S
H181 C156 0.950 . S
H182 C158 0.950 . S
H183 C159 0.949 . S
H184 C161 0.950 . S
H185 C163 0.950 . S
C186 C187 1.349 . S
C186 C188 1.327 . S
C186 H211 0.950 . S
C187 C186 1.349 . S
C187 C203 1.349 . S
C188 C186 1.327 . S
C188 C207 1.429 . S
C188 H212 0.950 . S
C189 C206 1.574 . S
C189 C208 1.368 . S
C189 H213 0.949 . S
H190 C194 0.949 . S
C191 C192 1.349 . S
C191 C193 1.327 . S
C191 H214 0.950 . S
C192 C191 1.349 . S
C192 C204 1.349 . S
C193 C191 1.327 . S
C193 C209 1.429 . S
C193 H215 0.950 . S
C194 H190 0.949 . S
C194 C202 1.574 . S
C194 C210 1.368 . S
H195 C203 0.950 . S
H196 C201 0.950 . S
H197 C202 0.949 . S
H198 C204 0.950 . S
H199 C205 0.950 . S
H200 C206 0.949 . S
C201 H196 0.950 . S
C201 C203 1.327 . S
C201 C207 1.429 . S
C202 C194 1.574 . S
C202 H197 0.949 . S
C202 C208 1.368 . S
C203 C187 1.349 . S
C203 H195 0.950 . S
C203 C201 1.327 . S
C204 C192 1.349 . S
C204 H198 0.950 . S
C204 C205 1.327 . S
C205 H199 0.950 . S
C205 C204 1.327 . S
C205 C209 1.429 . S
C206 C189 1.574 . S
C206 H200 0.949 . S
C206 C210 1.368 . S
C207 C188 1.429 . S
C207 C201 1.429 . S
C207 C208 1.523 . S
C208 C189 1.368 . S
C208 C202 1.368 . S
C208 C207 1.523 . S
C209 C193 1.429 . S
C209 C205 1.429 . S
C209 C210 1.523 . S
C210 C194 1.368 . S
C210 C206 1.368 . S
C210 C209 1.523 . S
H211 C186 0.950 . S
H212 C188 0.950 . S
H213 C189 0.949 . S
H214 C191 0.950 . S
H215 C193 0.950 . S
C216 C217 1.349 . S
C216 C218 1.327 . S
C216 H241 0.950 . S
C217 C216 1.349 . S
C217 C233 1.349 . S
C218 C216 1.327 . S
C218 C237 1.429 . S
C218 H242 0.950 . S
C219 C236 1.574 . S
C219 C238 1.368 . S
C219 H243 0.949 . S
H220 C224 0.949 . S
C221 C222 1.349 . S
C221 C223 1.327 . S
C221 H244 0.950 . S
C222 C221 1.349 . S
C222 C234 1.349 . S
C223 C221 1.327 . S
C223 C239 1.429 . S
C223 H245 0.950 . S
C224 H220 0.949 . S
C224 C232 1.574 . S
C224 C240 1.368 . S
H225 C233 0.950 . S
H226 C231 0.950 . S
H227 C232 0.949 . S
H228 C234 0.950 . S
H229 C235 0.950 . S
H230 C236 0.949 . S
C231 H226 0.950 . S
C231 C233 1.327 . S
C231 C237 1.429 . S
C232 C224 1.574 . S
C232 H227 0.949 . S
C232 C238 1.368 . S
C233 C217 1.349 . S
C233 H225 0.950 . S
C233 C231 1.327 . S
C234 C222 1.349 . S
C234 H228 0.950 . S
C234 C235 1.327 . S
C235 H229 0.950 . S
C235 C234 1.327 . S
C235 C239 1.429 . S
C236 C219 1.574 . S
C236 H230 0.949 . S
C236 C240 1.368 . S
C237 C218 1.429 . S
C237 C231 1.429 . S
C237 C238 1.523 . S
C238 C219 1.368 . S
C238 C232 1.368 . S
C238 C237 1.523 . S
C239 C223 1.429 . S
C239 C235 1.429 . S
C239 C240 1.523 . S
C240 C224 1.368 . S
C240 C236 1.368 . S
C240 C239 1.523 . S
H241 C216 0.950 . S
H242 C218 0.950 . S
H243 C219 0.949 . S
H244 C221 0.950 . S
H245 C223 0.950 . S
C246 C247 1.349 . S
C246 C248 1.327 . S
C246 H271 0.950 . S
C247 C246 1.349 . S
C247 C263 1.349 . S
C248 C246 1.327 . S
C248 C267 1.429 . S
C248 H272 0.950 . S
C249 C266 1.574 . S
C249 C268 1.368 . S
C249 H273 0.949 . S
H250 C254 0.949 . S
C251 C252 1.349 . S
C251 C253 1.327 . S
C251 H274 0.950 . S
C252 C251 1.349 . S
C252 C264 1.349 . S
C253 C251 1.327 . S
C253 C269 1.429 . S
C253 H275 0.950 . S
C254 H250 0.949 . S
C254 C262 1.574 1_545 S
C254 C270 1.368 . S
H255 C263 0.950 . S
H256 C261 0.950 . S
H257 C262 0.949 . S
H258 C264 0.950 . S
H259 C265 0.950 . S
H260 C266 0.949 . S
C261 H256 0.950 . S
C261 C263 1.327 . S
C261 C267 1.429 . S
C262 C254 1.574 1_565 S
C262 H257 0.949 . S
C262 C268 1.368 . S
C263 C247 1.349 . S
C263 H255 0.950 . S
C263 C261 1.327 . S
C264 C252 1.349 . S
C264 H258 0.950 . S
C264 C265 1.327 . S
C265 H259 0.950 . S
C265 C264 1.327 . S
C265 C269 1.429 . S
C266 C249 1.574 . S
C266 H260 0.949 . S
C266 C270 1.368 1_565 S
C267 C248 1.429 . S
C267 C261 1.429 . S
C267 C268 1.523 . S
C268 C249 1.368 . S
C268 C262 1.368 . S
C268 C267 1.523 . S
C269 C253 1.429 . S
C269 C265 1.429 . S
C269 C270 1.523 . S
C270 C254 1.368 . S
C270 C266 1.368 1_545 S
C270 C269 1.523 . S
H271 C246 0.950 . S
H272 C248 0.950 . S
H273 C249 0.949 . S
H274 C251 0.950 . S
H275 C253 0.950 . S
C276 C277 1.349 . S
C276 C278 1.327 . S
C276 H301 0.950 . S
C277 C276 1.349 . S
C277 C293 1.349 . S
C278 C276 1.327 . S
C278 C297 1.429 . S
C278 H302 0.950 . S
C279 C296 1.599 . S
C279 C298 1.368 . S
C279 H303 0.949 . S
H280 C284 0.931 1_565 S
C281 C282 1.349 . S
C281 C283 1.327 . S
C281 H304 0.950 . S
C282 C281 1.349 . S
C282 C294 1.349 . S
C283 C281 1.327 . S
C283 C299 1.429 . S
C283 H305 0.950 . S
C284 H280 0.931 1_545 S
C284 C292 1.607 . S
C284 C300 1.356 1_545 S
H285 C293 0.950 . S
H286 C291 0.950 . S
H287 C292 0.949 . S
H288 C294 0.950 . S
H289 C295 0.950 . S
H290 C296 0.935 1_565 S
C291 H286 0.950 . S
C291 C293 1.327 . S
C291 C297 1.429 . S
C292 C284 1.607 . S
C292 H287 0.949 . S
C292 C298 1.368 . S
C293 C277 1.349 . S
C293 H285 0.950 . S
C293 C291 1.327 . S
C294 C282 1.349 . S
C294 H288 0.950 . S
C294 C295 1.327 . S
C295 H289 0.950 . S
C295 C294 1.327 . S
C295 C299 1.429 . S
C296 C279 1.599 . S
C296 H290 0.935 1_545 S
C296 C300 1.359 1_545 S
C297 C278 1.429 . S
C297 C291 1.429 . S
C297 C298 1.523 . S
C298 C279 1.368 . S
C298 C292 1.368 . S
C298 C297 1.523 . S
C299 C283 1.429 . S
C299 C295 1.429 . S
C299 C300 1.523 . S
C300 C284 1.356 1_565 S
C300 C296 1.359 1_565 S
C300 C299 1.523 . S
H301 C276 0.950 . S
H302 C278 0.950 . S
H303 C279 0.949 . S
H304 C281 0.950 . S
H305 C283 0.950 . S
C306 C307 1.349 . S
C306 C308 1.327 . S
C306 H331 0.950 . S
C307 C306 1.349 . S
C307 C323 1.349 . S
C308 C306 1.327 . S
C308 C327 1.429 . S
C308 H332 0.950 . S
C309 C326 1.574 . S
C309 C328 1.368 . S
C309 H333 0.949 . S
H310 C314 0.949 . S
C311 C312 1.349 . S
C311 C313 1.327 . S
C311 H334 0.950 . S
C312 C311 1.349 . S
C312 C324 1.349 . S
C313 C311 1.327 . S
C313 C329 1.429 . S
C313 H335 0.950 . S
C314 H310 0.949 . S
C314 C322 1.574 . S
C314 C330 1.368 . S
H315 C323 0.950 . S
H316 C321 0.950 . S
H317 C322 0.949 . S
H318 C324 0.950 . S
H319 C325 0.950 . S
H320 C326 0.949 . S
C321 H316 0.950 . S
C321 C323 1.327 . S
C321 C327 1.429 . S
C322 C314 1.574 . S
C322 H317 0.949 . S
C322 C328 1.368 . S
C323 C307 1.349 . S
C323 H315 0.950 . S
C323 C321 1.327 . S
C324 C312 1.349 . S
C324 H318 0.950 . S
C324 C325 1.327 . S
C325 H319 0.950 . S
C325 C324 1.327 . S
C325 C329 1.429 . S
C326 C309 1.574 . S
C326 H320 0.949 . S
C326 C330 1.368 . S
C327 C308 1.429 . S
C327 C321 1.429 . S
C327 C328 1.523 . S
C328 C309 1.368 . S
C328 C322 1.368 . S
C328 C327 1.523 . S
C329 C313 1.429 . S
C329 C325 1.429 . S
C329 C330 1.523 . S
C330 C314 1.368 . S
C330 C326 1.368 . S
C330 C329 1.523 . S
H331 C306 0.950 . S
H332 C308 0.950 . S
H333 C309 0.949 . S
H334 C311 0.950 . S
H335 C313 0.950 . S
C336 C337 1.349 . S
C336 C338 1.327 . S
C336 H361 0.950 . S
C337 C336 1.349 . S
C337 C353 1.349 . S
C338 C336 1.327 . S
C338 C357 1.429 . S
C338 H362 0.950 . S
C339 C356 1.574 . S
C339 C358 1.368 . S
C339 H363 0.949 . S
H340 C344 0.949 . S
C341 C342 1.349 . S
C341 C343 1.327 . S
C341 H364 0.950 . S
C342 C341 1.349 . S
C342 C354 1.349 . S
C343 C341 1.327 . S
C343 C359 1.429 . S
C343 H365 0.950 . S
C344 H340 0.949 . S
C344 C352 1.574 . S
C344 C360 1.368 . S
H345 C353 0.950 . S
H346 C351 0.950 . S
H347 C352 0.949 . S
H348 C354 0.950 . S
H349 C355 0.950 . S
H350 C356 0.949 . S
C351 H346 0.950 . S
C351 C353 1.327 . S
C351 C357 1.429 . S
C352 C344 1.574 . S
C352 H347 0.949 . S
C352 C358 1.368 . S
C353 C337 1.349 . S
C353 H345 0.950 . S
C353 C351 1.327 . S
C354 C342 1.349 . S
C354 H348 0.950 . S
C354 C355 1.327 . S
C355 H349 0.950 . S
C355 C354 1.327 . S
C355 C359 1.429 . S
C356 C339 1.574 . S
C356 H350 0.949 . S
C356 C360 1.368 . S
C357 C338 1.429 . S
C357 C351 1.429 . S
C357 C358 1.523 . S
C358 C339 1.368 . S
C358 C352 1.368 . S
C358 C357 1.523 . S
C359 C343 1.429 . S
C359 C355 1.429 . S
C359 C360 1.523 . S
C360 C344 1.368 . S
C360 C356 1.368 . S
C360 C359 1.523 . S
H361 C336 0.950 . S
H362 C338 0.950 . S
H363 C339 0.949 . S
H364 C341 0.950 . S
H365 C343 0.950 . S
C366 C367 1.349 . S
C366 C368 1.327 . S
C366 H391 0.950 . S
C367 C366 1.349 . S
C367 C383 1.349 . S
C368 C366 1.327 . S
C368 C387 1.429 . S
C368 H392 0.950 . S
C369 C386 1.574 . S
C369 C388 1.368 . S
C369 H393 0.949 . S
H370 C374 0.949 1_565 S
C371 C372 1.349 . S
C371 C373 1.327 . S
C371 H394 0.950 . S
C372 C371 1.349 . S
C372 C384 1.349 . S
C373 C371 1.327 . S
C373 C389 1.429 . S
C373 H395 0.950 . S
C374 H370 0.949 1_545 S
C374 C382 1.574 . S
C374 C390 1.368 1_545 S
H375 C383 0.950 . S
H376 C381 0.950 . S
H377 C382 0.949 . S
H378 C384 0.950 . S
H379 C385 0.950 . S
H380 C386 0.949 1_565 S
C381 H376 0.950 . S
C381 C383 1.327 . S
C381 C387 1.429 . S
C382 C374 1.574 . S
C382 H377 0.949 . S
C382 C388 1.368 . S
C383 C367 1.349 . S
C383 H375 0.950 . S
C383 C381 1.327 . S
C384 C372 1.349 . S
C384 H378 0.950 . S
C384 C385 1.327 . S
C385 H379 0.950 . S
C385 C384 1.327 . S
C385 C389 1.429 . S
C386 C369 1.574 . S
C386 H380 0.949 1_545 S
C386 C390 1.368 1_545 S
C387 C368 1.429 . S
C387 C381 1.429 . S
C387 C388 1.523 . S
C388 C369 1.368 . S
C388 C382 1.368 . S
C388 C387 1.523 . S
C389 C373 1.429 . S
C389 C385 1.429 . S
C389 C390 1.523 . S
C390 C374 1.368 1_565 S
C390 C386 1.368 1_565 S
C390 C389 1.523 . S
H391 C366 0.950 . S
H392 C368 0.950 . S
H393 C369 0.949 . S
H394 C371 0.950 . S
H395 C373 0.950 . S
C396 C397 1.349 . S
C396 C398 1.327 . S
C396 H421 0.950 . S
C397 C396 1.349 . S
C397 C413 1.349 . S
C398 C396 1.327 . S
C398 C417 1.429 1_556 S
C398 H422 0.950 . S
C399 C416 1.574 . S
C399 C418 1.368 . S
C399 H423 0.949 . S
H400 C404 0.949 . S
C401 C402 1.349 . S
C401 C403 1.327 . S
C401 H424 0.950 . S
C402 C401 1.349 . S
C402 C414 1.349 . S
C403 C401 1.327 . S
C403 C419 1.429 . S
C403 H425 0.950 . S
C404 H400 0.949 . S
C404 C412 1.574 . S
C404 C420 1.368 . S
H405 C413 0.950 . S
H406 C411 0.950 1_554 S
H407 C412 0.949 . S
H408 C414 0.950 . S
H409 C415 0.950 . S
H410 C416 0.949 . S
C411 H406 0.950 1_556 S
C411 C413 1.327 . S
C411 C417 1.429 1_556 S
C412 C404 1.574 . S
C412 H407 0.949 . S
C412 C418 1.368 . S
C413 C397 1.349 . S
C413 H405 0.950 . S
C413 C411 1.327 . S
C414 C402 1.349 . S
C414 H408 0.950 . S
C414 C415 1.327 . S
C415 H409 0.950 . S
C415 C414 1.327 . S
C415 C419 1.429 . S
C416 C399 1.574 . S
C416 H410 0.949 . S
C416 C420 1.368 . S
C417 C398 1.429 1_554 S
C417 C411 1.429 1_554 S
C417 C418 1.523 . S
C418 C399 1.368 . S
C418 C412 1.368 . S
C418 C417 1.523 . S
C419 C403 1.429 . S
C419 C415 1.429 . S
C419 C420 1.523 . S
C420 C404 1.368 . S
C420 C416 1.368 . S
C420 C419 1.523 . S
H421 C396 0.950 . S
H422 C398 0.950 . S
H423 C399 0.949 . S
H424 C401 0.950 . S
H425 C403 0.950 . S
C426 C427 1.349 . S
C426 C428 1.327 . S
C426 H451 0.950 . S
C427 C426 1.349 . S
C427 C443 1.349 . S
C428 C426 1.327 . S
C428 C447 1.429 . S
C428 H452 0.950 . S
C429 C446 1.574 . S
C429 C448 1.368 . S
C429 H453 0.949 . S
H430 C434 0.949 . S
C431 C432 1.349 . S
C431 C433 1.327 . S
C431 H454 0.950 . S
C432 C431 1.349 . S
C432 C444 1.349 . S
C433 C431 1.327 . S
C433 C449 1.429 . S
C433 H455 0.950 . S
C434 H430 0.949 . S
C434 C442 1.574 . S
C434 C450 1.368 . S
H435 C443 0.950 . S
H436 C441 0.950 . S
H437 C442 0.949 . S
H438 C444 0.950 . S
H439 C445 0.950 . S
H440 C446 0.949 . S
C441 H436 0.950 . S
C441 C443 1.327 . S
C441 C447 1.429 . S
C442 C434 1.574 . S
C442 H437 0.949 . S
C442 C448 1.368 . S
C443 C427 1.349 . S
C443 H435 0.950 . S
C443 C441 1.327 . S
C444 C432 1.349 . S
C444 H438 0.950 . S
C444 C445 1.327 . S
C445 H439 0.950 . S
C445 C444 1.327 . S
C445 C449 1.429 . S
C446 C429 1.574 . S
C446 H440 0.949 . S
C446 C450 1.368 . S
C447 C428 1.429 . S
C447 C441 1.429 . S
C447 C448 1.523 . S
C448 C429 1.368 . S
C448 C442 1.368 . S
C448 C447 1.523 . S
C449 C433 1.429 . S
C449 C445 1.429 . S
C449 C450 1.523 . S
C450 C434 1.368 . S
C450 C446 1.368 . S
C450 C449 1.523 . S
H451 C426 0.950 . S
H452 C428 0.950 . S
H453 C429 0.949 . S
H454 C431 0.950 . S
H455 C433 0.950 . S
C456 C457 1.349 . S
C456 C458 1.327 . S
C456 H481 0.950 . S
C457 C456 1.349 . S
C457 C473 1.349 . S
C458 C456 1.327 . S
C458 C477 1.428 1_554 S
C458 H482 0.950 1_554 S
C459 C476 1.574 . S
C459 C478 1.368 . S
C459 H483 0.949 . S
H460 C464 0.949 . S
C461 C462 1.349 . S
C461 C463 1.327 . S
C461 H484 0.950 . S
C462 C461 1.349 . S
C462 C474 1.349 . S
C463 C461 1.327 . S
C463 C479 1.429 . S
C463 H485 0.950 . S
C464 H460 0.949 . S
C464 C472 1.574 . S
C464 C480 1.368 . S
H465 C473 0.950 . S
H466 C471 0.950 . S
H467 C472 0.949 . S
H468 C474 0.950 . S
H469 C475 0.950 . S
H470 C476 0.949 . S
C471 H466 0.950 . S
C471 C473 1.327 . S
C471 C477 1.426 1_554 S
C472 C464 1.574 . S
C472 H467 0.949 . S
C472 C478 1.368 . S
C473 C457 1.349 . S
C473 H465 0.950 . S
C473 C471 1.327 . S
C474 C462 1.349 . S
C474 H468 0.950 . S
C474 C475 1.327 . S
C475 H469 0.950 . S
C475 C474 1.327 . S
C475 C479 1.429 . S
C476 C459 1.574 . S
C476 H470 0.949 . S
C476 C480 1.368 . S
C477 C458 1.428 1_556 S
C477 C471 1.426 1_556 S
C477 C478 1.526 . S
C478 C459 1.368 . S
C478 C472 1.368 . S
C478 C477 1.526 . S
C479 C463 1.429 . S
C479 C475 1.429 . S
C479 C480 1.523 . S
C480 C464 1.368 . S
C480 C476 1.368 . S
C480 C479 1.523 . S
H481 C456 0.950 . S
H482 C458 0.950 1_556 S
H483 C459 0.949 . S
H484 C461 0.950 . S
H485 C463 0.950 . S
C486 C487 1.349 . S
C486 C488 1.327 . S
C486 H511 0.950 . S
C487 C486 1.349 . S
C487 C503 1.349 . S
C488 C486 1.327 . S
C488 C507 1.429 . S
C488 H512 0.950 . S
C489 C506 1.574 . S
C489 C508 1.368 . S
C489 H513 0.949 . S
H490 C494 0.949 . S
C491 C492 1.349 . S
C491 C493 1.327 . S
C491 H514 0.950 . S
C492 C491 1.349 . S
C492 C504 1.349 . S
C493 C491 1.327 . S
C493 C509 1.429 . S
C493 H515 0.950 . S
C494 H490 0.949 . S
C494 C502 1.574 . S
C494 C510 1.368 . S
H495 C503 0.950 . S
H496 C501 0.950 . S
H497 C502 0.949 . S
H498 C504 0.950 . S
H499 C505 0.950 . S
H500 C506 0.949 . S
C501 H496 0.950 . S
C501 C503 1.327 . S
C501 C507 1.429 . S
C502 C494 1.574 . S
C502 H497 0.949 . S
C502 C508 1.368 . S
C503 C487 1.349 . S
C503 H495 0.950 . S
C503 C501 1.327 . S
C504 C492 1.349 . S
C504 H498 0.950 . S
C504 C505 1.327 . S
C505 H499 0.950 . S
C505 C504 1.327 . S
C505 C509 1.429 . S
C506 C489 1.574 . S
C506 H500 0.949 . S
C506 C510 1.368 . S
C507 C488 1.429 . S
C507 C501 1.429 . S
C507 C508 1.523 . S
C508 C489 1.368 . S
C508 C502 1.368 . S
C508 C507 1.523 . S
C509 C493 1.429 . S
C509 C505 1.429 . S
C509 C510 1.523 . S
C510 C494 1.368 . S
C510 C506 1.368 . S
C510 C509 1.523 . S
H511 C486 0.950 . S
H512 C488 0.950 . S
H513 C489 0.949 . S
H514 C491 0.950 . S
H515 C493 0.950 . S
C516 C517 1.349 . S
C516 C518 1.327 . S
C516 H541 0.950 . S
C517 C516 1.349 . S
C517 C533 1.349 . S
C518 C516 1.327 . S
C518 C537 1.429 1_554 S
C518 H542 0.950 1_554 S
C519 C536 1.574 . S
C519 C538 1.368 . S
C519 H543 0.949 . S
H520 C524 0.949 . S
C521 C522 1.349 . S
C521 C523 1.327 . S
C521 H544 0.950 . S
C522 C521 1.349 . S
C522 C534 1.349 . S
C523 C521 1.327 . S
C523 C539 1.429 . S
C523 H545 0.950 . S
C524 H520 0.949 . S
C524 C532 1.574 . S
C524 C540 1.368 . S
H525 C533 0.950 . S
H526 C531 0.950 . S
H527 C532 0.949 . S
H528 C534 0.950 . S
H529 C535 0.950 . S
H530 C536 0.949 . S
C531 H526 0.950 . S
C531 C533 1.327 . S
C531 C537 1.429 1_554 S
C532 C524 1.574 . S
C532 H527 0.949 . S
C532 C538 1.368 . S
C533 C517 1.349 . S
C533 H525 0.950 . S
C533 C531 1.327 . S
C534 C522 1.349 . S
C534 H528 0.950 . S
C534 C535 1.327 . S
C535 H529 0.950 . S
C535 C534 1.327 . S
C535 C539 1.429 . S
C536 C519 1.574 . S
C536 H530 0.949 . S
C536 C540 1.368 . S
C537 C518 1.429 1_556 S
C537 C531 1.429 1_556 S
C537 C538 1.523 . S
C538 C519 1.368 . S
C538 C532 1.368 . S
C538 C537 1.523 . S
C539 C523 1.429 . S
C539 C535 1.429 . S
C539 C540 1.523 . S
C540 C524 1.368 . S
C540 C536 1.368 . S
C540 C539 1.523 . S
H541 C516 0.950 . S
H542 C518 0.950 1_556 S
H543 C519 0.949 . S
H544 C521 0.950 . S
H545 C523 0.950 . S
C546 C547 1.349 . S
C546 C548 1.327 . S
C546 H571 0.950 . S
C547 C546 1.349 . S
C547 C563 1.349 . S
C548 C546 1.327 . S
C548 C567 1.429 . S
C548 H572 0.950 . S
C549 C566 1.574 . S
C549 C568 1.368 . S
C549 H573 0.949 . S
H550 C554 0.949 . S
C551 C552 1.349 . S
C551 C553 1.327 . S
C551 H574 0.950 . S
C552 C551 1.349 . S
C552 C564 1.349 . S
C553 C551 1.327 . S
C553 C569 1.429 . S
C553 H575 0.950 . S
C554 H550 0.949 . S
C554 C562 1.574 . S
C554 C570 1.368 . S
H555 C563 0.950 . S
H556 C561 0.950 . S
H557 C562 0.949 . S
H558 C564 0.950 . S
H559 C565 0.950 . S
H560 C566 0.949 . S
C561 H556 0.950 . S
C561 C563 1.327 . S
C561 C567 1.429 . S
C562 C554 1.574 . S
C562 H557 0.949 . S
C562 C568 1.368 . S
C563 C547 1.349 . S
C563 H555 0.950 . S
C563 C561 1.327 . S
C564 C552 1.349 . S
C564 H558 0.950 . S
C564 C565 1.327 . S
C565 H559 0.950 . S
C565 C564 1.327 . S
C565 C569 1.429 . S
C566 C549 1.574 . S
C566 H560 0.949 . S
C566 C570 1.368 . S
C567 C548 1.429 . S
C567 C561 1.429 . S
C567 C568 1.523 . S
C568 C549 1.368 . S
C568 C562 1.368 . S
C568 C567 1.523 . S
C569 C553 1.429 . S
C569 C565 1.429 . S
C569 C570 1.523 . S
C570 C554 1.368 . S
C570 C566 1.368 . S
C570 C569 1.523 . S
H571 C546 0.950 . S
H572 C548 0.950 . S
H573 C549 0.949 . S
H574 C551 0.950 . S
H575 C553 0.950 . S
C576 C577 1.349 . S
C576 C578 1.327 . S
C576 H601 0.950 . S
C577 C576 1.349 . S
C577 C593 1.349 . S
C578 C576 1.327 . S
C578 C597 1.421 1_556 S
C578 H602 0.950 . S
C579 C596 1.574 . S
C579 C598 1.368 . S
C579 H603 0.949 . S
H580 C584 0.949 . S
C581 C582 1.349 . S
C581 C583 1.327 . S
C581 H604 0.950 . S
C582 C581 1.349 . S
C582 C594 1.349 . S
C583 C581 1.327 . S
C583 C599 1.429 . S
C583 H605 0.950 . S
C584 H580 0.949 . S
C584 C592 1.574 . S
C584 C600 1.368 . S
H585 C593 0.950 . S
H586 C591 0.950 1_554 S
H587 C592 0.949 . S
H588 C594 0.950 . S
H589 C595 0.950 . S
H590 C596 0.949 . S
C591 H586 0.950 1_556 S
C591 C593 1.327 . S
C591 C597 1.425 1_556 S
C592 C584 1.574 . S
C592 H587 0.949 . S
C592 C598 1.368 . S
C593 C577 1.349 . S
C593 H585 0.950 . S
C593 C591 1.327 . S
C594 C582 1.349 . S
C594 H588 0.950 . S
C594 C595 1.327 . S
C595 H589 0.950 . S
C595 C594 1.327 . S
C595 C599 1.429 . S
C596 C579 1.574 . S
C596 H590 0.949 . S
C596 C600 1.368 . S
C597 C578 1.421 1_554 S
C597 C591 1.425 1_554 S
C597 C598 1.532 . S
C598 C579 1.368 . S
C598 C592 1.368 . S
C598 C597 1.532 . S
C599 C583 1.429 . S
C599 C595 1.429 . S
C599 C600 1.523 . S
C600 C584 1.368 . S
C600 C596 1.368 . S
C600 C599 1.523 . S
H601 C576 0.950 . S
H602 C578 0.950 . S
H603 C579 0.949 . S
H604 C581 0.950 . S
H605 C583 0.950 . S
C606 C607 1.349 . S
C606 C608 1.327 . S
C606 H631 0.950 . S
C607 C606 1.349 . S
C607 C623 1.349 . S
C608 C606 1.327 . S
C608 C627 1.429 . S
C608 H632 0.950 . S
C609 C626 1.574 . S
C609 C628 1.368 . S
C609 H633 0.949 . S
H610 C614 0.949 . S
C611 C612 1.349 . S
C611 C613 1.327 . S
C611 H634 0.950 . S
C612 C611 1.349 . S
C612 C624 1.349 . S
C613 C611 1.327 . S
C613 C629 1.429 . S
C613 H635 0.950 . S
C614 H610 0.949 . S
C614 C622 1.574 . S
C614 C630 1.368 . S
H615 C623 0.950 . S
H616 C621 0.950 . S
H617 C622 0.949 . S
H618 C624 0.950 . S
H619 C625 0.950 . S
H620 C626 0.949 . S
C621 H616 0.950 . S
C621 C623 1.327 . S
C621 C627 1.429 . S
C622 C614 1.574 . S
C622 H617 0.949 . S
C622 C628 1.368 . S
C623 C607 1.349 . S
C623 H615 0.950 . S
C623 C621 1.327 . S
C624 C612 1.349 . S
C624 H618 0.950 . S
C624 C625 1.327 . S
C625 H619 0.950 . S
C625 C624 1.327 . S
C625 C629 1.429 . S
C626 C609 1.574 . S
C626 H620 0.949 . S
C626 C630 1.368 . S
C627 C608 1.429 . S
C627 C621 1.429 . S
C627 C628 1.523 . S
C628 C609 1.368 . S
C628 C622 1.368 . S
C628 C627 1.523 . S
C629 C613 1.429 . S
C629 C625 1.429 . S
C629 C630 1.523 . S
C630 C614 1.368 . S
C630 C626 1.368 . S
C630 C629 1.523 . S
H631 C606 0.950 . S
H632 C608 0.950 . S
H633 C609 0.949 . S
H634 C611 0.950 . S
H635 C613 0.950 . S
C636 C637 1.349 . S
C636 C638 1.327 . S
C636 H661 0.950 . S
C637 C636 1.349 . S
C637 C653 1.349 . S
C638 C636 1.327 . S
C638 C657 1.429 . S
C638 H662 0.950 . S
C639 C656 1.574 . S
C639 C658 1.368 . S
C639 H663 0.949 . S
H640 C644 0.949 . S
C641 C642 1.349 . S
C641 C643 1.327 . S
C641 H664 0.950 . S
C642 C641 1.349 . S
C642 C654 1.349 . S
C643 C641 1.327 . S
C643 C659 1.429 . S
C643 H665 0.950 . S
C644 H640 0.949 . S
C644 C652 1.574 . S
C644 C660 1.368 . S
H645 C653 0.950 . S
H646 C651 0.950 . S
H647 C652 0.949 . S
H648 C654 0.950 . S
H649 C655 0.950 . S
H650 C656 0.949 . S
C651 H646 0.950 . S
C651 C653 1.327 . S
C651 C657 1.429 . S
C652 C644 1.574 . S
C652 H647 0.949 . S
C652 C658 1.368 . S
C653 C637 1.349 . S
C653 H645 0.950 . S
C653 C651 1.327 . S
C654 C642 1.349 . S
C654 H648 0.950 . S
C654 C655 1.327 . S
C655 H649 0.950 . S
C655 C654 1.327 . S
C655 C659 1.429 . S
C656 C639 1.574 . S
C656 H650 0.949 . S
C656 C660 1.368 . S
C657 C638 1.429 . S
C657 C651 1.429 . S
C657 C658 1.523 . S
C658 C639 1.368 . S
C658 C652 1.368 . S
C658 C657 1.523 . S
C659 C643 1.429 . S
C659 C655 1.429 . S
C659 C660 1.523 . S
C660 C644 1.368 . S
C660 C656 1.368 . S
C660 C659 1.523 . S
H661 C636 0.950 . S
H662 C638 0.950 . S
H663 C639 0.949 . S
H664 C641 0.950 . S
H665 C643 0.950 . S
C666 C667 1.349 . S
C666 C668 1.327 . S
C666 H691 0.950 . S
C667 C666 1.349 . S
C667 C683 1.349 . S
C668 C666 1.327 . S
C668 C687 1.429 . S
C668 H692 0.950 . S
C669 C686 1.574 . S
C669 C688 1.368 . S
C669 H693 0.949 . S
H670 C674 0.949 . S
C671 C672 1.349 . S
C671 C673 1.327 . S
C671 H694 0.950 . S
C672 C671 1.349 . S
C672 C684 1.349 . S
C673 C671 1.327 . S
C673 C689 1.429 . S
C673 H695 0.950 . S
C674 H670 0.949 . S
C674 C682 1.574 . S
C674 C690 1.368 . S
H675 C683 0.950 . S
H676 C681 0.950 . S
H677 C682 0.949 . S
H678 C684 0.950 . S
H679 C685 0.950 . S
H680 C686 0.949 . S
C681 H676 0.950 . S
C681 C683 1.327 . S
C681 C687 1.429 . S
C682 C674 1.574 . S
C682 H677 0.949 . S
C682 C688 1.368 . S
C683 C667 1.349 . S
C683 H675 0.950 . S
C683 C681 1.327 . S
C684 C672 1.349 . S
C684 H678 0.950 . S
C684 C685 1.327 . S
C685 H679 0.950 . S
C685 C684 1.327 . S
C685 C689 1.429 . S
C686 C669 1.574 . S
C686 H680 0.949 . S
C686 C690 1.368 . S
C687 C668 1.429 . S
C687 C681 1.429 . S
C687 C688 1.523 . S
C688 C669 1.368 . S
C688 C682 1.368 . S
C688 C687 1.523 . S
C689 C673 1.429 . S
C689 C685 1.429 . S
C689 C690 1.523 . S
C690 C674 1.368 . S
C690 C686 1.368 . S
C690 C689 1.523 . S
H691 C666 0.950 . S
H692 C668 0.950 . S
H693 C669 0.949 . S
H694 C671 0.950 . S
H695 C673 0.950 . S
C696 C697 1.349 . S
C696 C698 1.327 . S
C696 H721 0.950 . S
C697 C696 1.349 . S
C697 C713 1.349 . S
C698 C696 1.327 . S
C698 C717 1.429 . S
C698 H722 0.950 . S
C699 C716 1.574 . S
C699 C718 1.368 . S
C699 H723 0.949 . S
H700 C704 0.949 . S
C701 C702 1.349 . S
C701 C703 1.327 . S
C701 H724 0.950 . S
C702 C701 1.349 . S
C702 C714 1.349 . S
C703 C701 1.327 . S
C703 C719 1.429 . S
C703 H725 0.950 . S
C704 H700 0.949 . S
C704 C712 1.574 . S
C704 C720 1.368 . S
H705 C713 0.950 . S
H706 C711 0.950 . S
H707 C712 0.949 . S
H708 C714 0.950 . S
H709 C715 0.950 . S
H710 C716 0.949 . S
C711 H706 0.950 . S
C711 C713 1.327 . S
C711 C717 1.429 . S
C712 C704 1.574 . S
C712 H707 0.949 . S
C712 C718 1.368 . S
C713 C697 1.349 . S
C713 H705 0.950 . S
C713 C711 1.327 . S
C714 C702 1.349 . S
C714 H708 0.950 . S
C714 C715 1.327 . S
C715 H709 0.950 . S
C715 C714 1.327 . S
C715 C719 1.429 . S
C716 C699 1.574 . S
C716 H710 0.949 . S
C716 C720 1.368 . S
C717 C698 1.429 . S
C717 C711 1.429 . S
C717 C718 1.523 . S
C718 C699 1.368 . S
C718 C712 1.368 . S
C718 C717 1.523 . S
C719 C703 1.429 . S
C719 C715 1.429 . S
C719 C720 1.523 . S
C720 C704 1.368 . S
C720 C716 1.368 . S
C720 C719 1.523 . S
H721 C696 0.950 . S
H722 C698 0.950 . S
H723 C699 0.949 . S
H724 C701 0.950 . S
H725 C703 0.950 . S
C726 C727 1.349 . S
C726 C728 1.327 . S
C726 H751 0.950 . S
C727 C726 1.349 . S
C727 C743 1.349 . S
C728 C726 1.327 . S
C728 C747 1.429 . S
C728 H752 0.950 . S
C729 C746 1.574 . S
C729 C748 1.368 . S
C729 H753 0.949 . S
H730 C734 0.949 . S
C731 C732 1.349 . S
C731 C733 1.327 . S
C731 H754 0.950 . S
C732 C731 1.349 . S
C732 C744 1.349 . S
C733 C731 1.327 . S
C733 C749 1.429 . S
C733 H755 0.950 . S
C734 H730 0.949 . S
C734 C742 1.574 . S
C734 C750 1.368 . S
H735 C743 0.950 . S
H736 C741 0.950 . S
H737 C742 0.949 . S
H738 C744 0.950 . S
H739 C745 0.950 . S
H740 C746 0.949 . S
C741 H736 0.950 . S
C741 C743 1.327 . S
C741 C747 1.429 . S
C742 C734 1.574 . S
C742 H737 0.949 . S
C742 C748 1.368 . S
C743 C727 1.349 . S
C743 H735 0.950 . S
C743 C741 1.327 . S
C744 C732 1.349 . S
C744 H738 0.950 . S
C744 C745 1.327 . S
C745 H739 0.950 . S
C745 C744 1.327 . S
C745 C749 1.429 . S
C746 C729 1.574 . S
C746 H740 0.949 . S
C746 C750 1.368 . S
C747 C728 1.429 . S
C747 C741 1.429 . S
C747 C748 1.523 . S
C748 C729 1.368 . S
C748 C742 1.368 . S
C748 C747 1.523 . S
C749 C733 1.429 . S
C749 C745 1.429 . S
C749 C750 1.523 . S
C750 C734 1.368 . S
C750 C746 1.368 . S
C750 C749 1.523 . S
H751 C726 0.950 . S
H752 C728 0.950 . S
H753 C729 0.949 . S
H754 C731 0.950 . S
H755 C733 0.950 . S
C756 C757 1.349 . S
C756 C758 1.327 . S
C756 H781 0.950 . S
C757 C756 1.349 . S
C757 C773 1.349 . S
C758 C756 1.327 . S
C758 C777 1.429 . S
C758 H782 0.950 . S
C759 C776 1.574 . S
C759 C778 1.368 . S
C759 H783 0.949 . S
H760 C764 0.949 . S
C761 C762 1.349 . S
C761 C763 1.327 . S
C761 H784 0.950 . S
C762 C761 1.349 . S
C762 C774 1.349 . S
C763 C761 1.327 . S
C763 C779 1.429 . S
C763 H785 0.950 . S
C764 H760 0.949 . S
C764 C772 1.574 . S
C764 C780 1.368 . S
H765 C773 0.950 . S
H766 C771 0.950 . S
H767 C772 0.949 . S
H768 C774 0.950 . S
H769 C775 0.950 . S
H770 C776 0.949 . S
C771 H766 0.950 . S
C771 C773 1.327 . S
C771 C777 1.429 . S
C772 C764 1.574 . S
C772 H767 0.949 . S
C772 C778 1.368 . S
C773 C757 1.349 . S
C773 H765 0.950 . S
C773 C771 1.327 . S
C774 C762 1.349 . S
C774 H768 0.950 . S
C774 C775 1.327 . S
C775 H769 0.950 . S
C775 C774 1.327 . S
C775 C779 1.429 . S
C776 C759 1.574 . S
C776 H770 0.949 . S
C776 C780 1.368 . S
C777 C758 1.429 . S
C777 C771 1.429 . S
C777 C778 1.523 . S
C778 C759 1.368 . S
C778 C772 1.368 . S
C778 C777 1.523 . S
C779 C763 1.429 . S
C779 C775 1.429 . S
C779 C780 1.523 . S
C780 C764 1.368 . S
C780 C776 1.368 . S
C780 C779 1.523 . S
H781 C756 0.950 . S
H782 C758 0.950 . S
H783 C759 0.949 . S
H784 C761 0.950 . S
H785 C763 0.950 . S
C786 C787 1.349 . S
C786 C788 1.327 . S
C786 H811 0.950 . S
C787 C786 1.349 . S
C787 C803 1.349 . S
C788 C786 1.327 . S
C788 C807 1.429 . S
C788 H812 0.950 . S
C789 C806 1.574 . S
C789 C808 1.368 . S
C789 H813 0.949 . S
H790 C794 0.949 . S
C791 C792 1.349 . S
C791 C793 1.327 . S
C791 H814 0.950 . S
C792 C791 1.349 . S
C792 C804 1.349 . S
C793 C791 1.327 . S
C793 C809 1.429 . S
C793 H815 0.950 . S
C794 H790 0.949 . S
C794 C802 1.574 . S
C794 C810 1.368 . S
H795 C803 0.950 . S
H796 C801 0.950 . S
H797 C802 0.949 . S
H798 C804 0.950 . S
H799 C805 0.950 . S
H800 C806 0.949 . S
C801 H796 0.950 . S
C801 C803 1.327 . S
C801 C807 1.429 . S
C802 C794 1.574 . S
C802 H797 0.949 . S
C802 C808 1.368 . S
C803 C787 1.349 . S
C803 H795 0.950 . S
C803 C801 1.327 . S
C804 C792 1.349 . S
C804 H798 0.950 . S
C804 C805 1.327 . S
C805 H799 0.950 . S
C805 C804 1.327 . S
C805 C809 1.429 . S
C806 C789 1.574 . S
C806 H800 0.949 . S
C806 C810 1.368 . S
C807 C788 1.429 . S
C807 C801 1.429 . S
C807 C808 1.523 . S
C808 C789 1.368 . S
C808 C802 1.368 . S
C808 C807 1.523 . S
C809 C793 1.429 . S
C809 C805 1.429 . S
C809 C810 1.523 . S
C810 C794 1.368 . S
C810 C806 1.368 . S
C810 C809 1.523 . S
H811 C786 0.950 . S
H812 C788 0.950 . S
H813 C789 0.949 . S
H814 C791 0.950 . S
H815 C793 0.950 . S
C816 C817 1.349 . S
C816 C818 1.327 . S
C816 H841 0.950 . S
C817 C816 1.349 . S
C817 C833 1.349 . S
C818 C816 1.327 . S
C818 C837 1.429 . S
C818 H842 0.950 . S
C819 C836 1.574 . S
C819 C838 1.368 . S
C819 H843 0.949 . S
H820 C824 0.949 . S
C821 C822 1.349 . S
C821 C823 1.327 . S
C821 H844 0.950 . S
C822 C821 1.349 . S
C822 C834 1.349 . S
C823 C821 1.327 . S
C823 C839 1.429 . S
C823 H845 0.950 . S
C824 H820 0.949 . S
C824 C832 1.574 . S
C824 C840 1.368 . S
H825 C833 0.950 . S
H826 C831 0.950 . S
H827 C832 0.949 . S
H828 C834 0.950 . S
H829 C835 0.950 . S
H830 C836 0.949 . S
C831 H826 0.950 . S
C831 C833 1.327 . S
C831 C837 1.429 . S
C832 C824 1.574 . S
C832 H827 0.949 . S
C832 C838 1.368 . S
C833 C817 1.349 . S
C833 H825 0.950 . S
C833 C831 1.327 . S
C834 C822 1.349 . S
C834 H828 0.950 . S
C834 C835 1.327 . S
C835 H829 0.950 . S
C835 C834 1.327 . S
C835 C839 1.429 . S
C836 C819 1.574 . S
C836 H830 0.949 . S
C836 C840 1.368 . S
C837 C818 1.429 . S
C837 C831 1.429 . S
C837 C838 1.523 . S
C838 C819 1.368 . S
C838 C832 1.368 . S
C838 C837 1.523 . S
C839 C823 1.429 . S
C839 C835 1.429 . S
C839 C840 1.523 . S
C840 C824 1.368 . S
C840 C836 1.368 . S
C840 C839 1.523 . S
H841 C816 0.950 . S
H842 C818 0.950 . S
H843 C819 0.949 . S
H844 C821 0.950 . S
H845 C823 0.950 . S
C846 C847 1.349 . S
C846 C848 1.327 . S
C846 H871 0.950 . S
C847 C846 1.349 . S
C847 C863 1.349 . S
C848 C846 1.327 . S
C848 C867 1.429 . S
C848 H872 0.950 . S
C849 C866 1.574 . S
C849 C868 1.368 . S
C849 H873 0.949 . S
H850 C854 0.949 . S
C851 C852 1.349 . S
C851 C853 1.327 . S
C851 H874 0.950 . S
C852 C851 1.349 . S
C852 C864 1.349 . S
C853 C851 1.327 . S
C853 C869 1.429 . S
C853 H875 0.950 . S
C854 H850 0.949 . S
C854 C862 1.574 . S
C854 C870 1.368 . S
H855 C863 0.950 . S
H856 C861 0.950 . S
H857 C862 0.949 . S
H858 C864 0.950 . S
H859 C865 0.950 . S
H860 C866 0.949 . S
C861 H856 0.950 . S
C861 C863 1.327 . S
C861 C867 1.429 . S
C862 C854 1.574 . S
C862 H857 0.949 . S
C862 C868 1.368 . S
C863 C847 1.349 . S
C863 H855 0.950 . S
C863 C861 1.327 . S
C864 C852 1.349 . S
C864 H858 0.950 . S
C864 C865 1.327 . S
C865 H859 0.950 . S
C865 C864 1.327 . S
C865 C869 1.429 . S
C866 C849 1.574 . S
C866 H860 0.949 . S
C866 C870 1.368 . S
C867 C848 1.429 . S
C867 C861 1.429 . S
C867 C868 1.523 . S
C868 C849 1.368 . S
C868 C862 1.368 . S
C868 C867 1.523 . S
C869 C853 1.429 . S
C869 C865 1.429 . S
C869 C870 1.523 . S
C870 C854 1.368 . S
C870 C866 1.368 . S
C870 C869 1.523 . S
H871 C846 0.950 . S
H872 C848 0.950 . S
H873 C849 0.949 . S
H874 C851 0.950 . S
H875 C853 0.950 . S
C157 C58 1.336 . S
C162 C88 1.260 . S
C192 C96 1.264 . S
C187 C68 1.342 . S
C222 C100 1.248 . S
C217 C40 1.331 . S
C247 C50 1.337 . S
C252 C76 1.252 . S
C282 C117 1.263 . S
C277 C23 1.339 . S
C312 C151 1.263 . S
C307 C32 1.339 . S
C337 C5 1.333 . S
C342 C139 1.251 . S
C367 C14 1.334 . S
C372 C121 1.252 . S
C402 C75 1.247 . S
C397 C13 1.408 . S
C432 C109 1.248 . S
C427 C4 1.408 . S
C462 C113 1.251 . S
C457 C31 1.414 . S
C492 C91 1.252 . S
C487 C22 1.415 . S
C522 C130 1.249 . S
C517 C49 1.411 . S
C547 C41 1.411 . S
C552 C138 1.250 . S
C582 C154 1.253 . S
C577 C67 1.417 . S
C607 C59 1.417 . S
C612 C134 1.254 . S
C642 C79 1.310 . S
C637 C7 1.494 . S
C672 C97 1.309 . S
C667 C16 1.492 . S
C697 C25 1.483 . S
C702 C112 1.307 . S
C732 C92 1.306 . S
C727 C34 1.481 . S
C762 C118 1.310 . S
C757 C43 1.494 . S
C787 C52 1.497 . S
C792 C142 1.312 . S
C817 C61 1.483 . S
C822 C155 1.307 . S
C847 C70 1.486 . S
C852 C133 1.309 . S
