# Generated by pormake.
# Topology ptr, (4,4)-cn, num edge types: 1
# Building blocks:
#     Node 0, Type 0, BuildingBlock: NAHDIM_clean_sbu_0, # of connection points: 4
#     Node 1, Type 0, BuildingBlock: NAHDIM_clean_sbu_0, # of connection points: 4
#     Node 2, Type 0, BuildingBlock: NAHDIM_clean_sbu_0, # of connection points: 4
#     Node 3, Type 0, BuildingBlock: NAHDIM_clean_sbu_0, # of connection points: 4
#     Node 4, Type 0, BuildingBlock: NAHDIM_clean_sbu_0, # of connection points: 4
#     Node 5, Type 0, BuildingBlock: NAHDIM_clean_sbu_0, # of connection points: 4
#     Node 6, Type 0, BuildingBlock: NAHDIM_clean_sbu_0, # of connection points: 4
#     Node 7, Type 0, BuildingBlock: NAHDIM_clean_sbu_0, # of connection points: 4
#     Node 8, Type 0, BuildingBlock: NAHDIM_clean_sbu_0, # of connection points: 4
#     Node 9, Type 0, BuildingBlock: NAHDIM_clean_sbu_0, # of connection points: 4
#     Node 10, Type 0, BuildingBlock: NAHDIM_clean_sbu_0, # of connection points: 4
#     Node 11, Type 0, BuildingBlock: NAHDIM_clean_sbu_0, # of connection points: 4
#     Node 12, Type 0, BuildingBlock: NAHDIM_clean_sbu_0, # of connection points: 4
#     Node 13, Type 0, BuildingBlock: NAHDIM_clean_sbu_0, # of connection points: 4
#     Node 14, Type 0, BuildingBlock: NAHDIM_clean_sbu_0, # of connection points: 4
#     Node 15, Type 0, BuildingBlock: NAHDIM_clean_sbu_0, # of connection points: 4
#     Node 16, Type 0, BuildingBlock: NAHDIM_clean_sbu_0, # of connection points: 4
#     Node 17, Type 0, BuildingBlock: NAHDIM_clean_sbu_0, # of connection points: 4
#     Node 18, Type 1, BuildingBlock: NAHDIM_clean_linker_0, # of connection points: 4
#     Node 19, Type 1, BuildingBlock: NAHDIM_clean_linker_0, # of connection points: 4
#     Node 20, Type 1, BuildingBlock: NAHDIM_clean_linker_0, # of connection points: 4
#     Node 21, Type 1, BuildingBlock: NAHDIM_clean_linker_0, # of connection points: 4
#     Node 22, Type 1, BuildingBlock: NAHDIM_clean_linker_0, # of connection points: 4
#     Node 23, Type 1, BuildingBlock: NAHDIM_clean_linker_0, # of connection points: 4
#     Node 24, Type 1, BuildingBlock: NAHDIM_clean_linker_0, # of connection points: 4
#     Node 25, Type 1, BuildingBlock: NAHDIM_clean_linker_0, # of connection points: 4
#     Node 26, Type 1, BuildingBlock: NAHDIM_clean_linker_0, # of connection points: 4
#     Node 27, Type 1, BuildingBlock: NAHDIM_clean_linker_0, # of connection points: 4
#     Node 28, Type 1, BuildingBlock: NAHDIM_clean_linker_0, # of connection points: 4
#     Node 29, Type 1, BuildingBlock: NAHDIM_clean_linker_0, # of connection points: 4
#     Node 30, Type 1, BuildingBlock: NAHDIM_clean_linker_0, # of connection points: 4
#     Node 31, Type 1, BuildingBlock: NAHDIM_clean_linker_0, # of connection points: 4
#     Node 32, Type 1, BuildingBlock: NAHDIM_clean_linker_0, # of connection points: 4
#     Node 33, Type 1, BuildingBlock: NAHDIM_clean_linker_0, # of connection points: 4
#     Node 34, Type 1, BuildingBlock: NAHDIM_clean_linker_0, # of connection points: 4
#     Node 35, Type 1, BuildingBlock: NAHDIM_clean_linker_0, # of connection points: 4
#     Edge 36, Type (0, 1), BuildingBlock: KIFKEQ_clean_linker_1, # of connection points: 2
#     Edge 37, Type (0, 1), BuildingBlock: KIFKEQ_clean_linker_1, # of connection points: 2
#     Edge 38, Type (0, 1), BuildingBlock: KIFKEQ_clean_linker_1, # of connection points: 2
#     Edge 39, Type (0, 1), BuildingBlock: KIFKEQ_clean_linker_1, # of connection points: 2
#     Edge 40, Type (0, 1), BuildingBlock: KIFKEQ_clean_linker_1, # of connection points: 2
#     Edge 41, Type (0, 1), BuildingBlock: KIFKEQ_clean_linker_1, # of connection points: 2
#     Edge 42, Type (0, 1), BuildingBlock: KIFKEQ_clean_linker_1, # of connection points: 2
#     Edge 43, Type (0, 1), BuildingBlock: KIFKEQ_clean_linker_1, # of connection points: 2
#     Edge 44, Type (0, 1), BuildingBlock: KIFKEQ_clean_linker_1, # of connection points: 2
#     Edge 45, Type (0, 1), BuildingBlock: KIFKEQ_clean_linker_1, # of connection points: 2
#     Edge 46, Type (0, 1), BuildingBlock: KIFKEQ_clean_linker_1, # of connection points: 2
#     Edge 47, Type (0, 1), BuildingBlock: KIFKEQ_clean_linker_1, # of connection points: 2
#     Edge 48, Type (0, 1), BuildingBlock: KIFKEQ_clean_linker_1, # of connection points: 2
#     Edge 49, Type (0, 1), BuildingBlock: KIFKEQ_clean_linker_1, # of connection points: 2
#     Edge 50, Type (0, 1), BuildingBlock: KIFKEQ_clean_linker_1, # of connection points: 2
#     Edge 51, Type (0, 1), BuildingBlock: KIFKEQ_clean_linker_1, # of connection points: 2
#     Edge 52, Type (0, 1), BuildingBlock: KIFKEQ_clean_linker_1, # of connection points: 2
#     Edge 53, Type (0, 1), BuildingBlock: KIFKEQ_clean_linker_1, # of connection points: 2
#     Edge 54, Type (0, 1), BuildingBlock: KIFKEQ_clean_linker_1, # of connection points: 2
#     Edge 55, Type (0, 1), BuildingBlock: KIFKEQ_clean_linker_1, # of connection points: 2
#     Edge 56, Type (0, 1), BuildingBlock: KIFKEQ_clean_linker_1, # of connection points: 2
#     Edge 57, Type (0, 1), BuildingBlock: KIFKEQ_clean_linker_1, # of connection points: 2
#     Edge 58, Type (0, 1), BuildingBlock: KIFKEQ_clean_linker_1, # of connection points: 2
#     Edge 59, Type (0, 1), BuildingBlock: KIFKEQ_clean_linker_1, # of connection points: 2
#     Edge 60, Type (0, 1), BuildingBlock: KIFKEQ_clean_linker_1, # of connection points: 2
#     Edge 61, Type (0, 1), BuildingBlock: KIFKEQ_clean_linker_1, # of connection points: 2
#     Edge 62, Type (0, 1), BuildingBlock: KIFKEQ_clean_linker_1, # of connection points: 2
#     Edge 63, Type (0, 1), BuildingBlock: KIFKEQ_clean_linker_1, # of connection points: 2
#     Edge 64, Type (0, 1), BuildingBlock: KIFKEQ_clean_linker_1, # of connection points: 2
#     Edge 65, Type (0, 1), BuildingBlock: KIFKEQ_clean_linker_1, # of connection points: 2
#     Edge 66, Type (0, 1), BuildingBlock: KIFKEQ_clean_linker_1, # of connection points: 2
#     Edge 67, Type (0, 1), BuildingBlock: KIFKEQ_clean_linker_1, # of connection points: 2
#     Edge 68, Type (0, 1), BuildingBlock: KIFKEQ_clean_linker_1, # of connection points: 2
#     Edge 69, Type (0, 1), BuildingBlock: KIFKEQ_clean_linker_1, # of connection points: 2
#     Edge 70, Type (0, 1), BuildingBlock: KIFKEQ_clean_linker_1, # of connection points: 2
#     Edge 71, Type (0, 1), BuildingBlock: KIFKEQ_clean_linker_1, # of connection points: 2
#     Edge 72, Type (0, 1), BuildingBlock: KIFKEQ_clean_linker_1, # of connection points: 2
#     Edge 73, Type (0, 1), BuildingBlock: KIFKEQ_clean_linker_1, # of connection points: 2
#     Edge 74, Type (0, 1), BuildingBlock: KIFKEQ_clean_linker_1, # of connection points: 2
#     Edge 75, Type (0, 1), BuildingBlock: KIFKEQ_clean_linker_1, # of connection points: 2
#     Edge 76, Type (0, 1), BuildingBlock: KIFKEQ_clean_linker_1, # of connection points: 2
#     Edge 77, Type (0, 1), BuildingBlock: KIFKEQ_clean_linker_1, # of connection points: 2
#     Edge 78, Type (0, 1), BuildingBlock: KIFKEQ_clean_linker_1, # of connection points: 2
#     Edge 79, Type (0, 1), BuildingBlock: KIFKEQ_clean_linker_1, # of connection points: 2
#     Edge 80, Type (0, 1), BuildingBlock: KIFKEQ_clean_linker_1, # of connection points: 2
#     Edge 81, Type (0, 1), BuildingBlock: KIFKEQ_clean_linker_1, # of connection points: 2
#     Edge 82, Type (0, 1), BuildingBlock: KIFKEQ_clean_linker_1, # of connection points: 2
#     Edge 83, Type (0, 1), BuildingBlock: KIFKEQ_clean_linker_1, # of connection points: 2
#     Edge 84, Type (0, 1), BuildingBlock: KIFKEQ_clean_linker_1, # of connection points: 2
#     Edge 85, Type (0, 1), BuildingBlock: KIFKEQ_clean_linker_1, # of connection points: 2
#     Edge 86, Type (0, 1), BuildingBlock: KIFKEQ_clean_linker_1, # of connection points: 2
#     Edge 87, Type (0, 1), BuildingBlock: KIFKEQ_clean_linker_1, # of connection points: 2
#     Edge 88, Type (0, 1), BuildingBlock: KIFKEQ_clean_linker_1, # of connection points: 2
#     Edge 89, Type (0, 1), BuildingBlock: KIFKEQ_clean_linker_1, # of connection points: 2
#     Edge 90, Type (0, 1), BuildingBlock: KIFKEQ_clean_linker_1, # of connection points: 2
#     Edge 91, Type (0, 1), BuildingBlock: KIFKEQ_clean_linker_1, # of connection points: 2
#     Edge 92, Type (0, 1), BuildingBlock: KIFKEQ_clean_linker_1, # of connection points: 2
#     Edge 93, Type (0, 1), BuildingBlock: KIFKEQ_clean_linker_1, # of connection points: 2
#     Edge 94, Type (0, 1), BuildingBlock: KIFKEQ_clean_linker_1, # of connection points: 2
#     Edge 95, Type (0, 1), BuildingBlock: KIFKEQ_clean_linker_1, # of connection points: 2
#     Edge 96, Type (0, 1), BuildingBlock: KIFKEQ_clean_linker_1, # of connection points: 2
#     Edge 97, Type (0, 1), BuildingBlock: KIFKEQ_clean_linker_1, # of connection points: 2
#     Edge 98, Type (0, 1), BuildingBlock: KIFKEQ_clean_linker_1, # of connection points: 2
#     Edge 99, Type (0, 1), BuildingBlock: KIFKEQ_clean_linker_1, # of connection points: 2
#     Edge 100, Type (0, 1), BuildingBlock: KIFKEQ_clean_linker_1, # of connection points: 2
#     Edge 101, Type (0, 1), BuildingBlock: KIFKEQ_clean_linker_1, # of connection points: 2
#     Edge 102, Type (0, 1), BuildingBlock: KIFKEQ_clean_linker_1, # of connection points: 2
#     Edge 103, Type (0, 1), BuildingBlock: KIFKEQ_clean_linker_1, # of connection points: 2
#     Edge 104, Type (0, 1), BuildingBlock: KIFKEQ_clean_linker_1, # of connection points: 2
#     Edge 105, Type (0, 1), BuildingBlock: KIFKEQ_clean_linker_1, # of connection points: 2
#     Edge 106, Type (0, 1), BuildingBlock: KIFKEQ_clean_linker_1, # of connection points: 2
#     Edge 107, Type (0, 1), BuildingBlock: KIFKEQ_clean_linker_1, # of connection points: 2
# Relax obj value: 0.084
# Max RMSD: 0.307
# Mean RMSD: 0.119
data_MOF--net-ptr--node1-NAHDIM_clean_sbu_0--node2-NAHDIM_clean_linker_0--edge1-KIFKEQ_clean_linker_1
_symmetry_space_group_name_H-M    P1
_symmetry_Int_Tables_number       1
_symmetry_cell_setting            triclinic
loop_
_symmetry_equiv_pos_as_xyz
'x, y, z'
_cell_length_a     97.032377
_cell_length_b     94.824914
_cell_length_c     80.118419
_cell_angle_alpha  92.408352
_cell_angle_beta   89.610641
_cell_angle_gamma 122.16063
loop_
_atom_site_label
_atom_site_type_symbol
_atom_site_fract_x
_atom_site_fract_y
_atom_site_fract_z
_atom_type_partial_charge
C0 C 0.04494 0.35063 0.01718 0.0
O1 O 0.0452 0.36215 0.02713 0.0
O2 O 0.99578 0.32464 0.99629 0.0
Zn3 Zn 0.01524 0.34676 0.00394 0.0
O4 O 0.01195 0.35543 0.026 0.0
C5 C 0.00537 0.36237 0.98315 0.0
O6 O 0.99218 0.35223 0.99135 0.0
O7 O 0.03389 0.34331 0.00591 0.0
C8 C 0.99822 0.35081 0.03237 0.0
O9 O 0.98486 0.33892 0.0247 0.0
C10 C 0.99117 0.3109 0.0029 0.0
O11 O 0.99866 0.31087 0.01649 0.0
O12 O 0.01843 0.36285 0.98643 0.0
C13 C 0.68755 0.66777 0.99211 0.0
O14 O 0.6794 0.6748 0.98861 0.0
O15 O 0.67047 0.67528 0.02937 0.0
Zn16 Zn 0.66259 0.65429 0.0152 0.0
O17 O 0.64614 0.65099 0.99776 0.0
C18 C 0.65897 0.63378 0.04294 0.0
O19 O 0.67388 0.64596 0.04692 0.0
O20 O 0.68235 0.65728 0.00352 0.0
C21 C 0.63094 0.64289 0.00042 0.0
O22 O 0.62571 0.63703 0.01526 0.0
C23 C 0.66197 0.68094 0.03494 0.0
O24 O 0.64629 0.67273 0.03145 0.0
O25 O 0.65219 0.63459 0.02982 0.0
C26 C 0.35143 0.04031 0.99377 0.0
O27 O 0.36107 0.0376 0.98447 0.0
O28 O 0.32802 0.99634 0.02349 0.0
Zn29 Zn 0.34885 0.01385 0.01332 0.0
O30 O 0.35476 0.0052 0.99291 0.0
C31 C 0.3642 0.0228 0.04601 0.0
O32 O 0.35005 0.02023 0.05064 0.0
O33 O 0.34556 0.03219 0.0069 0.0
C34 C 0.36384 0.99938 0.99424 0.0
O35 O 0.36803 0.99763 0.00921 0.0
C36 C 0.31661 0.98292 0.01643 0.0
O37 O 0.31816 0.97908 0.00088 0.0
O38 O 0.36673 0.02173 0.03057 0.0
C39 C 0.97485 0.66811 0.98735 0.0
O40 O 0.98876 0.67254 0.98026 0.0
O41 O 0.00523 0.68148 0.0204 0.0
Zn42 Zn 0.98937 0.65849 0.01064 0.0
O43 O 0.99922 0.65196 0.99199 0.0
C44 C 0.98283 0.64538 0.04389 0.0
O45 O 0.98851 0.66098 0.04869 0.0
O46 O 0.9714 0.66049 0.00092 0.0
C47 C 0.00453 0.64241 0.99383 0.0
O48 O 0.00446 0.63709 0.00873 0.0
C49 C 0.0197 0.68791 0.02592 0.0
O50 O 0.02642 0.67901 0.02559 0.0
O51 O 0.98152 0.64143 0.02837 0.0
C52 C 0.31717 0.34471 0.02717 0.0
O53 O 0.32602 0.3393 0.03315 0.0
O54 O 0.33206 0.33227 0.99051 0.0
Zn55 Zn 0.34091 0.35477 0.00202 0.0
O56 O 0.3582 0.35945 0.01913 0.0
C57 C 0.36374 0.38007 0.97972 0.0
O58 O 0.37428 0.3771 0.98625 0.0
O59 O 0.32164 0.35281 0.01389 0.0
C60 C 0.36825 0.37392 0.02546 0.0
O61 O 0.36799 0.38677 0.02037 0.0
C62 C 0.33993 0.32553 0.98612 0.0
O63 O 0.35574 0.33371 0.98882 0.0
O64 O 0.34911 0.3722 0.98466 0.0
C65 C 0.65359 0.97305 0.02497 0.0
O66 O 0.64376 0.97532 0.03444 0.0
O67 O 0.67369 0.01555 0.99471 0.0
Zn68 Zn 0.65296 0.99716 0.00431 0.0
O69 O 0.6464 0.00554 0.02449 0.0
C70 C 0.63835 0.987 0.97145 0.0
O71 O 0.6532 0.99129 0.96738 0.0
O72 O 0.65812 0.98028 0.01121 0.0
C73 C 0.63712 0.01113 0.02329 0.0
O74 O 0.63217 0.01215 0.00841 0.0
C75 C 0.68655 0.0227 0.00376 0.0
O76 O 0.68551 0.01899 0.01953 0.0
O77 O 0.63518 0.98782 0.98674 0.0
C78 C 0.68108 0.66841 0.36639 0.0
O79 O 0.66551 0.66221 0.36872 0.0
O80 O 0.65807 0.66088 0.32747 0.0
Zn81 Zn 0.67302 0.68223 0.34097 0.0
O82 O 0.66013 0.68767 0.35694 0.0
C83 C 0.67724 0.70035 0.31221 0.0
O84 O 0.66208 0.68791 0.30999 0.0
O85 O 0.68807 0.67842 0.35471 0.0
C86 C 0.66128 0.70168 0.35783 0.0
O87 O 0.67091 0.71325 0.34759 0.0
C88 C 0.64425 0.64931 0.33232 0.0
O89 O 0.63883 0.65108 0.34683 0.0
O90 O 0.68516 0.70083 0.32504 0.0
C91 C 0.35096 0.9917 0.33247 0.0
O92 O 0.35104 0.00551 0.33113 0.0
O93 O 0.33299 0.00586 0.36196 0.0
Zn94 Zn 0.32231 0.98288 0.35088 0.0
O95 O 0.30655 0.9798 0.33271 0.0
C96 C 0.31819 0.96334 0.3792 0.0
O97 O 0.33419 0.97198 0.3791 0.0
O98 O 0.33964 0.97992 0.34053 0.0
C99 C 0.29145 0.97323 0.33539 0.0
O100 O 0.28601 0.96874 0.35053 0.0
C101 C 0.32485 0.01107 0.36949 0.0
O102 O 0.30892 0.00129 0.36985 0.0
O103 O 0.31045 0.96582 0.36819 0.0
C104 C 0.02412 0.36648 0.32142 0.0
O105 O 0.0243 0.35559 0.31088 0.0
O106 O 0.00255 0.3293 0.35607 0.0
Zn107 Zn 0.0245 0.34524 0.34636 0.0
O108 O 0.02932 0.3334 0.32797 0.0
C109 C 0.0405 0.34781 0.37806 0.0
O110 O 0.02625 0.33478 0.38165 0.0
O111 O 0.02418 0.36457 0.33704 0.0
C112 C 0.03507 0.32445 0.33098 0.0
O113 O 0.03762 0.3225 0.34656 0.0
C114 C 0.98978 0.32515 0.34764 0.0
O115 O 0.9913 0.33119 0.33281 0.0
O116 O 0.04237 0.35425 0.36398 0.0
C117 C 0.64418 0.98728 0.33523 0.0
O118 O 0.6521 0.00091 0.34486 0.0
O119 O 0.68108 0.00319 0.35782 0.0
Zn120 Zn 0.66683 0.97927 0.3493 0.0
O121 O 0.68013 0.97343 0.33455 0.0
C122 C 0.66487 0.95905 0.37678 0.0
O123 O 0.68041 0.96537 0.37405 0.0
O124 O 0.6484 0.97668 0.33523 0.0
C125 C 0.67309 0.96064 0.32461 0.0
O126 O 0.65713 0.95097 0.32469 0.0
C127 C 0.67999 0.00882 0.37213 0.0
O128 O 0.66922 0.99855 0.38266 0.0
O129 O 0.65705 0.96343 0.36796 0.0
C130 C 0.98798 0.68978 0.37009 0.0
O131 O 0.99865 0.69071 0.38081 0.0
O132 O 0.01138 0.67856 0.33552 0.0
Zn133 Zn 0.01413 0.69953 0.34634 0.0
O134 O 0.03087 0.70816 0.36507 0.0
C135 C 0.03296 0.731 0.32889 0.0
O136 O 0.04209 0.73699 0.34253 0.0
O137 O 0.99216 0.69358 0.35506 0.0
C138 C 0.0424 0.70551 0.36435 0.0
O139 O 0.04354 0.69763 0.35105 0.0
C140 C 0.00234 0.66439 0.34171 0.0
O141 O 0.99502 0.66339 0.35585 0.0
O142 O 0.02087 0.71603 0.32824 0.0
C143 C 0.3212 0.31308 0.37012 0.0
O144 O 0.32325 0.32554 0.37992 0.0
O145 O 0.33047 0.34454 0.3348 0.0
Zn146 Zn 0.3104 0.32776 0.34681 0.0
O147 O 0.30595 0.33912 0.36601 0.0
C148 C 0.29426 0.313 0.31565 0.0
O149 O 0.30881 0.31592 0.31231 0.0
O150 O 0.31519 0.31108 0.35551 0.0
C151 C 0.29831 0.3465 0.36448 0.0
O152 O 0.29275 0.34678 0.34968 0.0
C153 C 0.34355 0.35504 0.34268 0.0
O154 O 0.3437 0.35559 0.35909 0.0
O155 O 0.29158 0.3167 0.33024 0.0
C156 C 0.35542 0.01244 0.68834 0.0
O157 O 0.3396 0.00172 0.68784 0.0
O158 O 0.33097 0.00714 0.65414 0.0
Zn159 Zn 0.3446 0.02828 0.66836 0.0
O160 O 0.33104 0.03135 0.68554 0.0
C161 C 0.35874 0.0477 0.63887 0.0
O162 O 0.35516 0.03336 0.63179 0.0
O163 O 0.36119 0.02585 0.68063 0.0
C164 C 0.32442 0.03953 0.68265 0.0
O165 O 0.3259 0.04559 0.66784 0.0
C166 C 0.31582 4e-05 0.65096 0.0
O167 O 0.30793 0.0069 0.65674 0.0
O168 O 0.35557 0.04837 0.65419 0.0
C169 C 0.02083 0.33021 0.65417 0.0
O170 O 0.01183 0.3355 0.64829 0.0
O171 O 0.99859 0.33761 0.68589 0.0
Zn172 Zn 0.99424 0.31577 0.67569 0.0
O173 O 0.97784 0.30808 0.6568 0.0
C174 C 0.98134 0.30064 0.70727 0.0
O175 O 0.98271 0.31499 0.71077 0.0
O176 O 0.01559 0.32059 0.66634 0.0
C177 C 0.96266 0.29831 0.65894 0.0
O178 O 0.9574 0.29289 0.6739 0.0
C179 C 0.9884 0.34214 0.68621 0.0
O180 O 0.97377 0.33212 0.67965 0.0
O181 O 0.98584 0.29816 0.69307 0.0
C182 C 0.68107 0.68975 0.64779 0.0
O183 O 0.68006 0.67778 0.63795 0.0
O184 O 0.6693 0.65723 0.68405 0.0
Zn185 Zn 0.68966 0.67409 0.6724 0.0
O186 O 0.69503 0.66258 0.65404 0.0
C187 C 0.71037 0.69554 0.70061 0.0
O188 O 0.69993 0.70031 0.70191 0.0
O189 O 0.68555 0.69104 0.66295 0.0
C190 C 0.70318 0.65614 0.65768 0.0
O191 O 0.70753 0.65682 0.67333 0.0
C192 C 0.65589 0.64931 0.67587 0.0
O193 O 0.65582 0.65187 0.65989 0.0
O194 O 0.70836 0.68498 0.68906 0.0
C195 C 0.32097 0.33578 0.65707 0.0
O196 O 0.33691 0.34363 0.65624 0.0
O197 O 0.3435 0.33865 0.69092 0.0
Zn198 Zn 0.32851 0.31756 0.67722 0.0
O199 O 0.34086 0.31305 0.65957 0.0
C200 C 0.32399 0.29682 0.70429 0.0
O201 O 0.33979 0.30743 0.70582 0.0
O202 O 0.31347 0.32267 0.66539 0.0
C203 C 0.34319 0.30105 0.65913 0.0
O204 O 0.3376 0.29048 0.67117 0.0
C205 C 0.35889 0.34619 0.69238 0.0
O206 O 0.36652 0.33963 0.68514 0.0
O207 O 0.31623 0.29842 0.69255 0.0
C208 C 0.65563 0.01994 0.67412 0.0
O209 O 0.65408 0.0122 0.6596 0.0
O210 O 0.67926 0.0052 0.66118 0.0
Zn211 Zn 0.68834 0.02884 0.66977 0.0
O212 O 0.70555 0.03435 0.68717 0.0
C213 C 0.71076 0.05422 0.64643 0.0
O214 O 0.72264 0.0549 0.65494 0.0
O215 O 0.66967 0.02876 0.68097 0.0
C216 C 0.71559 0.04859 0.69399 0.0
O217 O 0.71577 0.06178 0.68923 0.0
C218 C 0.67961 0.00074 0.64609 0.0
O219 O 0.68711 0.01216 0.63499 0.0
O220 O 0.6961 0.04443 0.65068 0.0
C221 C 0.98095 0.64251 0.67826 0.0
O222 O 0.9882 0.6485 0.66409 0.0
O223 O 0.99175 0.68166 0.6644 0.0
Zn224 Zn 0.96971 0.66472 0.67342 0.0
O225 O 0.96304 0.67579 0.69093 0.0
C226 C 0.94884 0.66188 0.64617 0.0
O227 O 0.9561 0.67806 0.64907 0.0
O228 O 0.97198 0.64732 0.68455 0.0
C229 C 0.96894 0.69142 0.69158 0.0
O230 O 0.97934 0.70062 0.68021 0.0
C231 C 0.99594 0.68151 0.64934 0.0
O232 O 0.98531 0.67017 0.63852 0.0
O233 O 0.95272 0.65367 0.65504 0.0
C234 C 0.19197 0.27455 0.04399 0.0
C235 C 0.19961 0.28693 0.05899 0.0
C236 C 0.18762 0.28053 0.08647 0.0
C237 C 0.19205 0.29655 0.09239 0.0
C238 C 0.183 0.29872 0.10482 0.0
C239 C 0.16913 0.28456 0.11125 0.0
C240 C 0.16511 0.26837 0.10581 0.0
C241 C 0.17466 0.26659 0.09368 0.0
C242 C 0.18792 0.31616 0.11063 0.0
C243 C 0.15028 0.25296 0.11216 0.0
C244 C 0.08265 0.30878 0.06159 0.0
C245 C 0.0877 0.29927 0.07145 0.0
C246 C 0.10656 0.30399 0.09421 0.0
C247 C 0.10295 0.28752 0.09406 0.0
C248 C 0.11208 0.28335 0.10388 0.0
C249 C 0.1253 0.29595 0.11377 0.0
C250 C 0.12898 0.31254 0.11392 0.0
C251 C 0.11936 0.31626 0.10433 0.0
C252 C 0.1077 0.26549 0.10354 0.0
C253 C 0.14326 0.32641 0.12392 0.0
C254 C 0.09616 0.28771 0.22183 0.0
C255 C 0.09296 0.27207 0.2158 0.0
C256 C 0.10461 0.27077 0.20654 0.0
C257 C 0.11978 0.28535 0.20335 0.0
C258 C 0.12312 0.30105 0.2096 0.0
C259 C 0.11122 0.30201 0.2187 0.0
C260 C 0.10065 0.25384 0.19998 0.0
C261 C 0.13919 0.31684 0.20646 0.0
C262 C 0.21169 0.25442 0.21308 0.0
C263 C 0.21135 0.26928 0.22073 0.0
C264 C 0.18582 0.26814 0.21782 0.0
C265 C 0.16966 0.25567 0.21414 0.0
C266 C 0.15927 0.25921 0.20575 0.0
C267 C 0.16514 0.27579 0.20143 0.0
C268 C 0.18128 0.28863 0.20591 0.0
C269 C 0.19151 0.28465 0.21396 0.0
C270 C 0.1421 0.2452 0.20136 0.0
C271 C 0.18774 0.30655 0.20212 0.0
C272 C 0.15781 0.28668 0.12205 0.0
C273 C 0.14729 0.29027 0.11418 0.0
C274 C 0.13583 0.29193 0.12318 0.0
C275 C 0.13465 0.28983 0.1406 0.0
C276 C 0.1229 0.29087 0.14996 0.0
C277 C 0.12198 0.289 0.16714 0.0
C278 C 0.13276 0.286 0.17561 0.0
C279 C 0.13198 0.2842 0.19309 0.0
C280 C 0.14279 0.28111 0.20111 0.0
C281 C 0.15439 0.2796 0.19213 0.0
C282 C 0.15537 0.28136 0.17462 0.0
C283 C 0.16681 0.27983 0.16514 0.0
C284 C 0.16774 0.28171 0.14795 0.0
C285 C 0.15712 0.28495 0.13954 0.0
C286 C 0.14545 0.28649 0.14883 0.0
C287 C 0.14455 0.28465 0.16637 0.0
C288 C 0.05752 0.27181 0.22074 0.0
C289 C 0.06972 0.27741 0.23536 0.0
O290 O 0.19536 0.27817 0.07352 0.0
O291 O 0.19555 0.26394 0.22531 0.0
O292 O 0.08515 0.28969 0.23051 0.0
O293 O 0.09813 0.30857 0.08475 0.0
H294 H 0.19449 0.29503 0.05879 0.0
H295 H 0.1785 0.26728 0.04499 0.0
H296 H 0.19618 0.2657 0.04351 0.0
H297 H 0.19521 0.28128 0.03218 0.0
H298 H 0.20244 0.30734 0.08712 0.0
H299 H 0.1715 0.25429 0.08912 0.0
H300 H 0.17928 0.31913 0.10528 0.0
H301 H 0.2004 0.32563 0.10667 0.0
H302 H 0.18736 0.31707 0.12446 0.0
H303 H 0.14833 0.24132 0.10594 0.0
H304 H 0.13927 0.25349 0.11007 0.0
H305 H 0.15164 0.25239 0.12581 0.0
H306 H 0.07751 0.28671 0.07491 0.0
H307 H 0.06911 0.30229 0.06329 0.0
H308 H 0.09303 0.31022 0.03823 0.0
H309 H 0.08559 0.32016 0.06955 0.0
H310 H 0.09303 0.27785 0.08635 0.0
H311 H 0.12206 0.32892 0.10435 0.0
H312 H 0.10718 0.26144 0.11646 0.0
H313 H 0.11725 0.26451 0.09689 0.0
H314 H 0.09581 0.25683 0.09712 0.0
H315 H 0.14543 0.33886 0.1214 0.0
H316 H 0.15448 0.32642 0.12101 0.0
H317 H 0.141 0.32434 0.13745 0.0
H318 H 0.06993 0.2665 0.23958 0.0
H319 H 0.0814 0.26083 0.21807 0.0
H320 H 0.1136 0.31401 0.2234 0.0
H321 H 0.10185 0.25381 0.18618 0.0
H322 H 0.08814 0.24372 0.20314 0.0
H323 H 0.10947 0.2511 0.20529 0.0
H324 H 0.14022 0.32799 0.21289 0.0
H325 H 0.14059 0.3188 0.19283 0.0
H326 H 0.14937 0.31567 0.2108 0.0
H327 H 0.21556 0.27866 0.21093 0.0
H328 H 0.22422 0.2584 0.20916 0.0
H329 H 0.20351 0.24919 0.20188 0.0
H330 H 0.2075 0.24447 0.2222 0.0
H331 H 0.16534 0.24302 0.21746 0.0
H332 H 0.20388 0.29441 0.2174 0.0
H333 H 0.1394 0.24527 0.18793 0.0
H334 H 0.13342 0.24706 0.20874 0.0
H335 H 0.13998 0.23279 0.20402 0.0
H336 H 0.19983 0.31527 0.20814 0.0
H337 H 0.17908 0.31015 0.20643 0.0
H338 H 0.18894 0.30795 0.18841 0.0
H339 H 0.14799 0.29172 0.10077 0.0
H340 H 0.11428 0.29315 0.14411 0.0
H341 H 0.1127 0.28998 0.17369 0.0
H342 H 0.14209 0.27972 0.21452 0.0
H343 H 0.17521 0.27721 0.17091 0.0
H344 H 0.17687 0.28055 0.1413 0.0
H345 H 0.05725 0.28254 0.21611 0.0
H346 H 0.04511 0.26219 0.22475 0.0
H347 H 0.06089 0.2663 0.21023 0.0
C348 C 0.73933 0.95249 0.08217 0.0
C349 C 0.72255 0.93659 0.07896 0.0
C350 C 0.71602 0.91726 0.10151 0.0
C351 C 0.70375 0.90783 0.11273 0.0
C352 C 0.70338 0.89493 0.12107 0.0
C353 C 0.71614 0.892 0.11874 0.0
C354 C 0.72876 0.90166 0.10751 0.0
C355 C 0.72843 0.91403 0.0988 0.0
C356 C 0.68927 0.88448 0.13232 0.0
C357 C 0.74266 0.89903 0.1048 0.0
C358 C 0.69983 0.7715 0.07537 0.0
C359 C 0.70781 0.78886 0.08259 0.0
C360 C 0.70071 0.80732 0.097 0.0
C361 C 0.71684 0.81975 0.10155 0.0
C362 C 0.72025 0.83393 0.11129 0.0
C363 C 0.7073 0.83564 0.11676 0.0
C364 C 0.69107 0.82318 0.11218 0.0
C365 C 0.68801 0.8092 0.10228 0.0
C366 C 0.73773 0.84712 0.11574 0.0
C367 C 0.67699 0.82463 0.11781 0.0
C368 C 0.71507 0.81392 0.22311 0.0
C369 C 0.73024 0.82548 0.2164 0.0
C370 C 0.73248 0.83936 0.20823 0.0
C371 C 0.71931 0.84168 0.2067 0.0
C372 C 0.70415 0.83028 0.21376 0.0
C373 C 0.70228 0.81658 0.22194 0.0
C374 C 0.74886 0.85142 0.20098 0.0
C375 C 0.68987 0.8324 0.21237 0.0
C376 C 0.75214 0.97286 0.22825 0.0
C377 C 0.73895 0.95449 0.23002 0.0
C378 C 0.74125 0.93027 0.22469 0.0
C379 C 0.75288 0.92618 0.22133 0.0
C380 C 0.74859 0.9111 0.21284 0.0
C381 C 0.73215 0.89968 0.20799 0.0
C382 C 0.72015 0.90333 0.21223 0.0
C383 C 0.72484 0.91866 0.22044 0.0
C384 C 0.76169 0.90756 0.20867 0.0
C385 C 0.70241 0.89118 0.20781 0.0
C386 C 0.71616 0.87873 0.12794 0.0
C387 C 0.71194 0.8639 0.1191 0.0
C388 C 0.71082 0.85056 0.12715 0.0
C389 C 0.71343 0.85172 0.14463 0.0
C390 C 0.71161 0.83823 0.15325 0.0
C391 C 0.71413 0.83948 0.17046 0.0
C392 C 0.71867 0.85432 0.17972 0.0
C393 C 0.72122 0.85571 0.19723 0.0
C394 C 0.72556 0.87058 0.20607 0.0
C395 C 0.72763 0.88428 0.19786 0.0
C396 C 0.72533 0.8832 0.18032 0.0
C397 C 0.72764 0.89685 0.17159 0.0
C398 C 0.72486 0.8955 0.15442 0.0
C399 C 0.71966 0.88045 0.14529 0.0
C400 C 0.71793 0.86676 0.15372 0.0
C401 C 0.72066 0.8681 0.17126 0.0
C402 C 0.72202 0.78576 0.21391 0.0
C403 C 0.72194 0.79348 0.23111 0.0
O404 O 0.71556 0.92954 0.09392 0.0
O405 O 0.74632 0.94551 0.23194 0.0
O406 O 0.71211 0.80001 0.23066 0.0
O407 O 0.69692 0.79337 0.08764 0.0
H408 H 0.724 0.92763 0.07088 0.0
H409 H 0.74768 0.94957 0.08829 0.0
H410 H 0.7384 0.96164 0.09045 0.0
H411 H 0.74476 0.9583 0.07017 0.0
H412 H 0.69423 0.91042 0.11471 0.0
H413 H 0.73804 0.9213 0.09018 0.0
H414 H 0.68502 0.87108 0.13058 0.0
H415 H 0.67884 0.88595 0.12993 0.0
H416 H 0.69324 0.88839 0.14555 0.0
H417 H 0.75269 0.90916 0.09773 0.0
H418 H 0.73815 0.88703 0.09766 0.0
H419 H 0.74761 0.8983 0.11697 0.0
H420 H 0.71798 0.79849 0.07512 0.0
H421 H 0.7037 0.77287 0.06195 0.0
H422 H 0.68684 0.76733 0.07229 0.0
H423 H 0.70597 0.7595 0.09245 0.0
H424 H 0.72683 0.81852 0.09753 0.0
H425 H 0.67562 0.79957 0.09871 0.0
H426 H 0.74049 0.8595 0.11198 0.0
H427 H 0.74648 0.84447 0.10964 0.0
H428 H 0.73961 0.84791 0.12948 0.0
H429 H 0.66503 0.81344 0.11396 0.0
H430 H 0.67802 0.83574 0.11243 0.0
H431 H 0.67741 0.82643 0.13163 0.0
H432 H 0.73457 0.80352 0.23487 0.0
H433 H 0.74036 0.82376 0.21735 0.0
H434 H 0.69066 0.80766 0.22724 0.0
H435 H 0.74764 0.85115 0.18719 0.0
H436 H 0.75814 0.84842 0.20403 0.0
H437 H 0.75323 0.86431 0.20579 0.0
H438 H 0.67886 0.8224 0.21849 0.0
H439 H 0.68689 0.83235 0.199 0.0
H440 H 0.69311 0.84465 0.21822 0.0
H441 H 0.73159 0.95034 0.21818 0.0
H442 H 0.74652 0.98033 0.22661 0.0
H443 H 0.75954 0.97421 0.21709 0.0
H444 H 0.76036 0.9779 0.23943 0.0
H445 H 0.76547 0.93513 0.2249 0.0
H446 H 0.71568 0.92151 0.22353 0.0
H447 H 0.76157 0.90496 0.19501 0.0
H448 H 0.75921 0.89628 0.21503 0.0
H449 H 0.77402 0.91811 0.21256 0.0
H450 H 0.69439 0.89482 0.21396 0.0
H451 H 0.69863 0.87846 0.21151 0.0
H452 H 0.70059 0.89061 0.19408 0.0
H453 H 0.70947 0.86272 0.10576 0.0
H454 H 0.7081 0.82649 0.14679 0.0
H455 H 0.71246 0.82865 0.17642 0.0
H456 H 0.72735 0.87149 0.21952 0.0
H457 H 0.73155 0.90873 0.17795 0.0
H458 H 0.72679 0.90641 0.1484 0.0
H459 H 0.72966 0.78027 0.21437 0.0
H460 H 0.72713 0.79537 0.20439 0.0
H461 H 0.70944 0.77585 0.2099 0.0
C462 C 0.19433 0.91564 0.0577 0.0
C463 C 0.20719 0.92287 0.07185 0.0
C464 C 0.19289 0.90244 0.09347 0.0
C465 C 0.18207 0.90751 0.09798 0.0
C466 C 0.16933 0.89832 0.10898 0.0
C467 C 0.1673 0.88374 0.11557 0.0
C468 C 0.17848 0.87892 0.11154 0.0
C469 C 0.1912 0.88842 0.10061 0.0
C470 C 0.15771 0.9039 0.11318 0.0
C471 C 0.17665 0.86343 0.11836 0.0
C472 C 0.07091 0.81613 0.04668 0.0
C473 C 0.07754 0.81019 0.06011 0.0
C474 C 0.08517 0.82178 0.08858 0.0
C475 C 0.09618 0.81698 0.09213 0.0
C476 C 0.10822 0.82556 0.10465 0.0
C477 C 0.10944 0.83943 0.11352 0.0
C478 C 0.0979 0.84387 0.11036 0.0
C479 C 0.08565 0.83468 0.09815 0.0
C480 C 0.12003 0.82019 0.10793 0.0
C481 C 0.09897 0.85881 0.1192 0.0
C482 C 0.07767 0.8241 0.22108 0.0
C483 C 0.08749 0.81776 0.21681 0.0
C484 C 0.10226 0.82759 0.20858 0.0
C485 C 0.1072 0.84399 0.20446 0.0
C486 C 0.09753 0.85051 0.20919 0.0
C487 C 0.08297 0.84052 0.21764 0.0
C488 C 0.11255 0.82043 0.20419 0.0
C489 C 0.10246 0.86799 0.20517 0.0
C490 C 0.21938 0.95328 0.22511 0.0
C491 C 0.21152 0.94113 0.23924 0.0
C492 C 0.19301 0.91379 0.22486 0.0
C493 C 0.19051 0.89806 0.22109 0.0
C494 C 0.17674 0.88578 0.21189 0.0
C495 C 0.16524 0.88941 0.20622 0.0
C496 C 0.16761 0.90526 0.21005 0.0
C497 C 0.18144 0.91729 0.21937 0.0
C498 C 0.17457 0.86899 0.20804 0.0
C499 C 0.15559 0.90954 0.20413 0.0
C500 C 0.15261 0.87271 0.1253 0.0
C501 C 0.13846 0.86127 0.11629 0.0
C502 C 0.12395 0.85055 0.12433 0.0
C503 C 0.12351 0.8511 0.14199 0.0
C504 C 0.10921 0.84033 0.15054 0.0
C505 C 0.10879 0.84135 0.1679 0.0
C506 C 0.12273 0.85301 0.1774 0.0
C507 C 0.12238 0.8543 0.19504 0.0
C508 C 0.13646 0.86608 0.20405 0.0
C509 C 0.15094 0.87679 0.19592 0.0
C510 C 0.15154 0.8757 0.1783 0.0
C511 C 0.1659 0.88633 0.16973 0.0
C512 C 0.16632 0.88533 0.15237 0.0
C513 C 0.15239 0.87369 0.14293 0.0
C514 C 0.13777 0.86281 0.15131 0.0
C515 C 0.13736 0.86378 0.16902 0.0
C516 C 0.03542 0.7941 0.22283 0.0
C517 C 0.05247 0.79774 0.22658 0.0
O518 O 0.20486 0.9104 0.08213 0.0
O519 O 0.20678 0.92512 0.2336 0.0
O520 O 0.06312 0.81484 0.22863 0.0
O521 O 0.07425 0.81451 0.07571 0.0
H522 H 0.20626 0.9325 0.07928 0.0
H523 H 0.18195 0.91031 0.06281 0.0
H524 H 0.19464 0.9056 0.05037 0.0
H525 H 0.19656 0.92559 0.0492 0.0
H526 H 0.18324 0.91843 0.0928 0.0
H527 H 0.19965 0.88466 0.0972 0.0
H528 H 0.14553 0.89474 0.1076 0.0
H529 H 0.16185 0.91637 0.10843 0.0
H530 H 0.1563 0.90434 0.12693 0.0
H531 H 0.18662 0.86162 0.1144 0.0
H532 H 0.16483 0.85234 0.11402 0.0
H533 H 0.17653 0.86419 0.13222 0.0
H534 H 0.09096 0.81677 0.05835 0.0
H535 H 0.07359 0.81303 0.03403 0.0
H536 H 0.07677 0.82988 0.0481 0.0
H537 H 0.05753 0.81021 0.04781 0.0
H538 H 0.09549 0.80666 0.08499 0.0
H539 H 0.07694 0.83813 0.09537 0.0
H540 H 0.12221 0.82049 0.12157 0.0
H541 H 0.13187 0.829 0.10218 0.0
H542 H 0.11557 0.80745 0.10256 0.0
H543 H 0.09002 0.8615 0.11413 0.0
H544 H 0.1114 0.87002 0.11808 0.0
H545 H 0.09664 0.85655 0.1327 0.0
H546 H 0.05586 0.79271 0.21556 0.0
H547 H 0.08372 0.80523 0.22001 0.0
H548 H 0.07542 0.84536 0.22123 0.0
H549 H 0.113 0.81912 0.1904 0.0
H550 H 0.10771 0.80802 0.20946 0.0
H551 H 0.12523 0.82905 0.20889 0.0
H552 H 0.09294 0.8707 0.20845 0.0
H553 H 0.10504 0.86991 0.19164 0.0
H554 H 0.11382 0.87708 0.21221 0.0
H555 H 0.20074 0.94131 0.24376 0.0
H556 H 0.22344 0.96615 0.22976 0.0
H557 H 0.21052 0.94979 0.21468 0.0
H558 H 0.23004 0.95316 0.22016 0.0
H559 H 0.19947 0.89546 0.22536 0.0
H560 H 0.18312 0.92937 0.22212 0.0
H561 H 0.17455 0.86687 0.1943 0.0
H562 H 0.16262 0.85898 0.21264 0.0
H563 H 0.18435 0.86794 0.2138 0.0
H564 H 0.15925 0.92249 0.20797 0.0
H565 H 0.14342 0.90079 0.20927 0.0
H566 H 0.1544 0.90806 0.1903 0.0
H567 H 0.1387 0.86084 0.10274 0.0
H568 H 0.09816 0.83108 0.14387 0.0
H569 H 0.09738 0.83288 0.17379 0.0
H570 H 0.13607 0.86711 0.21757 0.0
H571 H 0.17699 0.89559 0.17633 0.0
H572 H 0.17769 0.89385 0.14643 0.0
H573 H 0.03124 0.79894 0.23326 0.0
H574 H 0.02663 0.78045 0.22091 0.0
H575 H 0.03556 0.80021 0.21125 0.0
C576 C 0.29872 0.11017 0.96084 0.0
C577 C 0.29945 0.09887 0.94705 0.0
C578 C 0.302 0.11483 0.92254 0.0
C579 C 0.28548 0.1096 0.921 0.0
C580 C 0.28052 0.11749 0.91031 0.0
C581 C 0.2923 0.13109 0.90118 0.0
C582 C 0.30889 0.13616 0.90244 0.0
C583 C 0.31345 0.12776 0.91291 0.0
C584 C 0.26269 0.11153 0.90905 0.0
C585 C 0.32187 0.1508 0.89316 0.0
C586 C 0.25856 0.19745 0.96731 0.0
C587 C 0.27196 0.20282 0.95443 0.0
C588 C 0.26894 0.19022 0.9266 0.0
C589 C 0.28522 0.19551 0.92363 0.0
C590 C 0.28914 0.18692 0.91178 0.0
C591 C 0.27648 0.17252 0.90306 0.0
C592 C 0.26004 0.16742 0.90581 0.0
C593 C 0.25654 0.17665 0.91727 0.0
C594 C 0.30681 0.193 0.90891 0.0
C595 C 0.24612 0.15187 0.89721 0.0
C596 C 0.26189 0.18777 0.79617 0.0
C597 C 0.2781 0.19434 0.8012 0.0
C598 C 0.2826 0.18437 0.80906 0.0
C599 C 0.27057 0.16761 0.81221 0.0
C600 C 0.25431 0.16087 0.80666 0.0
C601 C 0.25027 0.171 0.79846 0.0
C602 C 0.30017 0.1918 0.81417 0.0
C603 C 0.24116 0.14302 0.80958 0.0
C604 C 0.26825 0.05812 0.79038 0.0
C605 C 0.2744 0.07102 0.77686 0.0
C606 C 0.28431 0.09798 0.79212 0.0
C607 C 0.29821 0.11349 0.79642 0.0
C608 C 0.29713 0.1258 0.80557 0.0
C609 C 0.28172 0.12239 0.81074 0.0
C610 C 0.26757 0.10674 0.80644 0.0
C611 C 0.26898 0.09472 0.79709 0.0
C612 C 0.31246 0.14239 0.80987 0.0
C613 C 0.25096 0.10264 0.81188 0.0
C614 C 0.28747 0.14085 0.89149 0.0
C615 C 0.28465 0.152 0.90045 0.0
C616 C 0.28033 0.1619 0.89237 0.0
C617 C 0.27917 0.16103 0.87473 0.0
C618 C 0.27552 0.17129 0.86613 0.0
C619 C 0.27403 0.17004 0.84878 0.0
C620 C 0.27634 0.15863 0.83934 0.0
C621 C 0.27483 0.15726 0.82169 0.0
C622 C 0.2769 0.14554 0.81276 0.0
C623 C 0.2804 0.13504 0.82096 0.0
C624 C 0.28216 0.13638 0.83857 0.0
C625 C 0.28574 0.12605 0.84721 0.0
C626 C 0.2875 0.1275 0.86454 0.0
C627 C 0.28564 0.13923 0.87389 0.0
C628 C 0.28169 0.14952 0.86547 0.0
C629 C 0.28012 0.14822 0.84778 0.0
C630 C 0.24859 0.2159 0.79657 0.0
C631 C 0.26297 0.21385 0.79319 0.0
O632 O 0.30745 0.10803 0.93328 0.0
O633 O 0.28635 0.08661 0.78339 0.0
O634 O 0.25705 0.19722 0.78904 0.0
O635 O 0.26483 0.19777 0.93861 0.0
H636 H 0.28688 0.0887 0.94334 0.0
H637 H 0.2917 0.11551 0.95642 0.0
H638 H 0.31119 0.12059 0.96453 0.0
H639 H 0.29258 0.10292 0.97199 0.0
H640 H 0.27637 0.09946 0.92813 0.0
H641 H 0.32613 0.13165 0.91408 0.0
H642 H 0.26062 0.12075 0.91568 0.0
H643 H 0.25483 0.09926 0.9147 0.0
H644 H 0.25889 0.11048 0.89578 0.0
H645 H 0.33432 0.15399 0.89653 0.0
H646 H 0.32105 0.16192 0.8959 0.0
H647 H 0.31991 0.14787 0.87951 0.0
H648 H 0.27846 0.19639 0.95727 0.0
H649 H 0.26392 0.2011 0.98016 0.0
H650 H 0.25017 0.18368 0.9664 0.0
H651 H 0.25141 0.20327 0.9651 0.0
H652 H 0.29484 0.2063 0.93061 0.0
H653 H 0.24402 0.17279 0.91963 0.0
H654 H 0.30909 0.19259 0.89535 0.0
H655 H 0.30986 0.18471 0.91507 0.0
H656 H 0.31507 0.20593 0.91411 0.0
H657 H 0.23415 0.14839 0.90249 0.0
H658 H 0.24779 0.14123 0.89829 0.0
H659 H 0.24585 0.15394 0.88372 0.0
H660 H 0.27034 0.21782 0.80501 0.0
H661 H 0.28725 0.2072 0.79888 0.0
H662 H 0.23784 0.16601 0.79426 0.0
H663 H 0.30139 0.19339 0.82799 0.0
H664 H 0.30835 0.20415 0.8088 0.0
H665 H 0.30427 0.18328 0.81012 0.0
H666 H 0.22884 0.14027 0.80626 0.0
H667 H 0.2413 0.14021 0.82287 0.0
H668 H 0.24352 0.13456 0.80184 0.0
H669 H 0.26399 0.07155 0.77192 0.0
H670 H 0.25895 0.04558 0.78499 0.0
H671 H 0.26256 0.06139 0.80063 0.0
H672 H 0.27844 0.05755 0.79583 0.0
H673 H 0.30998 0.11591 0.79255 0.0
H674 H 0.25806 0.08281 0.79392 0.0
H675 H 0.31436 0.14406 0.82364 0.0
H676 H 0.3112 0.15267 0.80566 0.0
H677 H 0.32339 0.14346 0.80407 0.0
H678 H 0.24122 0.08961 0.80827 0.0
H679 H 0.24806 0.11123 0.80611 0.0
H680 H 0.25092 0.10453 0.82565 0.0
H681 H 0.28569 0.15287 0.91399 0.0
H682 H 0.27372 0.18037 0.87273 0.0
H683 H 0.27102 0.17816 0.84288 0.0
H684 H 0.27557 0.14443 0.79924 0.0
H685 H 0.28727 0.11676 0.84068 0.0
H686 H 0.29028 0.11925 0.87052 0.0
H687 H 0.25299 0.22912 0.80008 0.0
H688 H 0.2414 0.20811 0.80706 0.0
H689 H 0.24047 0.21192 0.78535 0.0
C690 C 0.80464 0.06437 0.96681 0.0
C691 C 0.79844 0.0731 0.95641 0.0
C692 C 0.8066 0.08087 0.92804 0.0
C693 C 0.80292 0.09309 0.92594 0.0
C694 C 0.81171 0.10581 0.91476 0.0
C695 C 0.82475 0.10651 0.90591 0.0
C696 C 0.8282 0.09388 0.90778 0.0
C697 C 0.81874 0.08095 0.91855 0.0
C698 C 0.80743 0.11881 0.91288 0.0
C699 C 0.84231 0.09441 0.89908 0.0
C700 C 0.92584 0.22221 0.95942 0.0
C701 C 0.9157 0.20562 0.95054 0.0
C702 C 0.89187 0.19061 0.93185 0.0
C703 C 0.89502 0.1783 0.92644 0.0
C704 C 0.88452 0.16543 0.91497 0.0
C705 C 0.87052 0.16474 0.90889 0.0
C706 C 0.86738 0.17717 0.91418 0.0
C707 C 0.87816 0.19 0.92556 0.0
C708 C 0.88824 0.15237 0.90956 0.0
C709 C 0.85248 0.17671 0.908 0.0
C710 C 0.89986 0.19154 0.80153 0.0
C711 C 0.9029 0.17998 0.80832 0.0
C712 C 0.89067 0.16624 0.81667 0.0
C713 C 0.87511 0.16401 0.81834 0.0
C714 C 0.87195 0.1755 0.81139 0.0
C715 C 0.88438 0.18909 0.80303 0.0
C716 C 0.8944 0.15412 0.82381 0.0
C717 C 0.8555 0.17348 0.81294 0.0
C718 C 0.78111 0.03174 0.78632 0.0
C719 C 0.78457 0.04947 0.78808 0.0
C720 C 0.81011 0.0753 0.79603 0.0
C721 C 0.82633 0.08106 0.79978 0.0
C722 C 0.83602 0.0958 0.80952 0.0
C723 C 0.82939 0.10529 0.81514 0.0
C724 C 0.81315 0.09992 0.81069 0.0
C725 C 0.80359 0.08483 0.80135 0.0
C726 C 0.85329 0.10112 0.81388 0.0
C727 C 0.8059 0.11007 0.81586 0.0
C728 C 0.83594 0.12146 0.89641 0.0
C729 C 0.84701 0.13595 0.90571 0.0
C730 C 0.85863 0.15035 0.89795 0.0
C731 C 0.8593 0.15046 0.88033 0.0
C732 C 0.87095 0.16471 0.87212 0.0
C733 C 0.87178 0.16456 0.85477 0.0
C734 C 0.86105 0.1501 0.84498 0.0
C735 C 0.86216 0.14965 0.82737 0.0
C736 C 0.85134 0.13507 0.81802 0.0
C737 C 0.83948 0.12072 0.82578 0.0
C738 C 0.83816 0.12092 0.84338 0.0
C739 C 0.82644 0.10671 0.85164 0.0
C740 C 0.82541 0.10696 0.86897 0.0
C741 C 0.83635 0.1213 0.87876 0.0
C742 C 0.84815 0.13584 0.8707 0.0
C743 C 0.84903 0.13567 0.853 0.0
C744 C 0.93693 0.21927 0.80856 0.0
C745 C 0.92779 0.21096 0.792 0.0
O746 O 0.79898 0.06925 0.93963 0.0
O747 O 0.80121 0.06059 0.78713 0.0
O748 O 0.91138 0.2052 0.79357 0.0
O749 O 0.90168 0.20318 0.94309 0.0
H750 H 0.80676 0.08678 0.95915 0.0
H751 H 0.81732 0.06857 0.96331 0.0
H752 H 0.79689 0.05062 0.96459 0.0
H753 H 0.8046 0.06748 0.98034 0.0
H754 H 0.79328 0.09275 0.93318 0.0
H755 H 0.82138 0.07134 0.9203 0.0
H756 H 0.81656 0.13049 0.91982 0.0
H757 H 0.7952 0.11472 0.91787 0.0
H758 H 0.8077 0.12167 0.89953 0.0
H759 H 0.84473 0.08505 0.90376 0.0
H760 H 0.85354 0.10698 0.90084 0.0
H761 H 0.83961 0.09182 0.88548 0.0
H762 H 0.91342 0.19476 0.95772 0.0
H763 H 0.94725 0.23394 0.94565 0.0
H764 H 0.92568 0.2194 0.97296 0.0
H765 H 0.91785 0.22745 0.96117 0.0
H766 H 0.90557 0.17856 0.93119 0.0
H767 H 0.87584 0.19955 0.92975 0.0
H768 H 0.87866 0.14009 0.91413 0.0
H769 H 0.90024 0.15535 0.91443 0.0
H770 H 0.88814 0.15115 0.89571 0.0
H771 H 0.85187 0.18743 0.91313 0.0
H772 H 0.84135 0.16495 0.91161 0.0
H773 H 0.85248 0.1768 0.89415 0.0
H774 H 0.92924 0.20038 0.78836 0.0
H775 H 0.91475 0.18157 0.80724 0.0
H776 H 0.88211 0.19801 0.79772 0.0
H777 H 0.8934 0.15437 0.83762 0.0
H778 H 0.9068 0.15706 0.82067 0.0
H779 H 0.88537 0.14124 0.81902 0.0
H780 H 0.85514 0.18379 0.80731 0.0
H781 H 0.85229 0.17302 0.82632 0.0
H782 H 0.84608 0.16149 0.80666 0.0
H783 H 0.78026 0.05082 0.80064 0.0
H784 H 0.76789 0.02244 0.78758 0.0
H785 H 0.78778 0.02983 0.79628 0.0
H786 H 0.78512 0.02958 0.77397 0.0
H787 H 0.83128 0.07369 0.79541 0.0
H788 H 0.79113 0.08063 0.79807 0.0
H789 H 0.85572 0.10421 0.82749 0.0
H790 H 0.86184 0.11252 0.80719 0.0
H791 H 0.8559 0.09132 0.81034 0.0
H792 H 0.79396 0.10537 0.80957 0.0
H793 H 0.81434 0.12333 0.81289 0.0
H794 H 0.80414 0.10964 0.82956 0.0
H795 H 0.84681 0.13591 0.91926 0.0
H796 H 0.87961 0.17613 0.87903 0.0
H797 H 0.88103 0.17588 0.84913 0.0
H798 H 0.85242 0.13476 0.80454 0.0
H799 H 0.81791 0.09519 0.84479 0.0
H800 H 0.81608 0.09571 0.87464 0.0
H801 H 0.9501 0.22406 0.80725 0.0
H802 H 0.93218 0.2102 0.8186 0.0
H803 H 0.9355 0.22981 0.81244 0.0
C804 C 0.81185 0.72283 0.96006 0.0
C805 C 0.80037 0.71845 0.945 0.0
C806 C 0.81459 0.71246 0.92293 0.0
C807 C 0.82705 0.72912 0.92056 0.0
C808 C 0.84015 0.7329 0.91012 0.0
C809 C 0.84091 0.7198 0.902 0.0
C810 C 0.82823 0.70306 0.90404 0.0
C811 C 0.81516 0.69964 0.91438 0.0
C812 C 0.85341 0.7509 0.90807 0.0
C813 C 0.82874 0.68879 0.89567 0.0
C814 C 0.93082 0.74598 0.97295 0.0
C815 C 0.92433 0.73308 0.95831 0.0
C816 C 0.91941 0.73822 0.9302 0.0
C817 C 0.90744 0.72192 0.92482 0.0
C818 C 0.89632 0.71901 0.91201 0.0
C819 C 0.89701 0.73272 0.90471 0.0
C820 C 0.90955 0.74919 0.90966 0.0
C821 C 0.92084 0.75169 0.92212 0.0
C822 C 0.88341 0.70128 0.90679 0.0
C823 C 0.91053 0.76416 0.90248 0.0
C824 C 0.93302 0.75108 0.79944 0.0
C825 C 0.92163 0.7342 0.80214 0.0
C826 C 0.90666 0.72928 0.80959 0.0
C827 C 0.90314 0.74152 0.81457 0.0
C828 C 0.91438 0.75845 0.81132 0.0
C829 C 0.9291 0.76297 0.8036 0.0
C830 C 0.8947 0.71106 0.81235 0.0
C831 C 0.91098 0.77183 0.81632 0.0
C832 C 0.79283 0.7333 0.80436 0.0
C833 C 0.80046 0.73411 0.78731 0.0
C834 C 0.82019 0.72642 0.79477 0.0
C835 C 0.82252 0.7131 0.79491 0.0
C836 C 0.83569 0.71445 0.80366 0.0
C837 C 0.84694 0.72964 0.81231 0.0
C838 C 0.84502 0.7434 0.81174 0.0
C839 C 0.83163 0.74164 0.80306 0.0
C840 C 0.83739 0.69955 0.80396 0.0
C841 C 0.85699 0.75989 0.82056 0.0
C842 C 0.85559 0.7236 0.89251 0.0
C843 C 0.86894 0.72601 0.9016 0.0
C844 C 0.88337 0.72985 0.89377 0.0
C845 C 0.88455 0.73127 0.87624 0.0
C846 C 0.89878 0.73491 0.86787 0.0
C847 C 0.89995 0.73675 0.85067 0.0
C848 C 0.88684 0.73476 0.84114 0.0
C849 C 0.88796 0.73674 0.82367 0.0
C850 C 0.87473 0.7348 0.81462 0.0
C851 C 0.86032 0.73094 0.82255 0.0
C852 C 0.85893 0.72879 0.83998 0.0
C853 C 0.84457 0.7248 0.84833 0.0
C854 C 0.84343 0.72306 0.86553 0.0
C855 C 0.85656 0.72516 0.87502 0.0
C856 C 0.87112 0.72902 0.86685 0.0
C857 C 0.87228 0.73079 0.8493 0.0
C858 C 0.97449 0.76236 0.79826 0.0
C859 C 0.9567 0.74886 0.79434 0.0
O860 O 0.802 0.70814 0.93345 0.0
O861 O 0.80673 0.72392 0.78667 0.0
O862 O 0.94785 0.75638 0.79285 0.0
O863 O 0.92937 0.74132 0.94348 0.0
H864 H 0.8033 0.7301 0.93906 0.0
H865 H 0.82473 0.72981 0.95613 0.0
H866 H 0.80933 0.71132 0.96602 0.0
H867 H 0.81028 0.73081 0.96945 0.0
H868 H 0.82682 0.73927 0.92691 0.0
H869 H 0.80549 0.68684 0.91619 0.0
H870 H 0.86485 0.75344 0.91404 0.0
H871 H 0.85025 0.75967 0.91381 0.0
H872 H 0.8558 0.7534 0.89461 0.0
H873 H 0.81792 0.67646 0.89853 0.0
H874 H 0.83988 0.68926 0.8998 0.0
H875 H 0.82936 0.69001 0.88192 0.0
H876 H 0.91078 0.726 0.959 0.0
H877 H 0.92686 0.73968 0.985 0.0
H878 H 0.926 0.75424 0.97196 0.0
H879 H 0.94434 0.75382 0.97292 0.0
H880 H 0.90666 0.71149 0.93081 0.0
H881 H 0.93027 0.76422 0.9263 0.0
H882 H 0.8818 0.69983 0.89298 0.0
H883 H 0.87162 0.69815 0.91227 0.0
H884 H 0.88644 0.69224 0.9111 0.0
H885 H 0.92021 0.77608 0.90867 0.0
H886 H 0.89869 0.76326 0.90382 0.0
H887 H 0.91312 0.76448 0.88895 0.0
H888 H 0.95234 0.74054 0.80511 0.0
H889 H 0.92436 0.72485 0.79839 0.0
H890 H 0.93789 0.77592 0.80122 0.0
H891 H 0.8936 0.70898 0.82595 0.0
H892 H 0.8985 0.70294 0.80624 0.0
H893 H 0.88247 0.70725 0.80743 0.0
H894 H 0.92134 0.78452 0.8137 0.0
H895 H 0.90834 0.77138 0.82986 0.0
H896 H 0.90004 0.76952 0.8094 0.0
H897 H 0.81035 0.7472 0.78519 0.0
H898 H 0.78757 0.74123 0.80477 0.0
H899 H 0.78306 0.72025 0.80678 0.0
H900 H 0.80215 0.73791 0.81452 0.0
H901 H 0.81372 0.70145 0.7884 0.0
H902 H 0.83019 0.75218 0.80293 0.0
H903 H 0.8374 0.69621 0.81708 0.0
H904 H 0.84922 0.70273 0.79852 0.0
H905 H 0.82743 0.68851 0.79686 0.0
H906 H 0.85473 0.76984 0.81758 0.0
H907 H 0.86962 0.76393 0.81704 0.0
H908 H 0.8561 0.75845 0.83427 0.0
H909 H 0.86813 0.725 0.91507 0.0
H910 H 0.90921 0.7365 0.87457 0.0
H911 H 0.91129 0.73977 0.84496 0.0
H912 H 0.87574 0.73652 0.80126 0.0
H913 H 0.83405 0.72302 0.84168 0.0
H914 H 0.83212 0.7201 0.87131 0.0
H915 H 0.98185 0.75666 0.79974 0.0
H916 H 0.97533 0.76929 0.81013 0.0
H917 H 0.97967 0.77134 0.78812 0.0
C918 C 0.8624 0.60771 0.37478 0.0
C919 C 0.86729 0.62083 0.38904 0.0
C920 C 0.85397 0.61601 0.41581 0.0
C921 C 0.8583 0.63233 0.42034 0.0
C922 C 0.84911 0.63528 0.43194 0.0
C923 C 0.83513 0.6216 0.43886 0.0
C924 C 0.83096 0.60513 0.43452 0.0
C925 C 0.84071 0.60259 0.42332 0.0
C926 C 0.85416 0.65302 0.43652 0.0
C927 C 0.81594 0.59019 0.44128 0.0
C928 C 0.73284 0.63605 0.40624 0.0
C929 C 0.7415 0.62881 0.41392 0.0
C930 C 0.76876 0.63686 0.42315 0.0
C931 C 0.76381 0.62162 0.43033 0.0
C932 C 0.77492 0.6195 0.43926 0.0
C933 C 0.79121 0.63305 0.44148 0.0
C934 C 0.79622 0.64843 0.43434 0.0
C935 C 0.78493 0.65006 0.42511 0.0
C936 C 0.76921 0.60272 0.44623 0.0
C937 C 0.81347 0.66314 0.43646 0.0
C938 C 0.76959 0.63465 0.55226 0.0
C939 C 0.76343 0.61965 0.54268 0.0
C940 C 0.77376 0.61684 0.53267 0.0
C941 C 0.79047 0.62947 0.53183 0.0
C942 C 0.79663 0.64466 0.54127 0.0
C943 C 0.78611 0.64697 0.55147 0.0
C944 C 0.76682 0.60034 0.52307 0.0
C945 C 0.81433 0.65845 0.54059 0.0
C946 C 0.87727 0.58724 0.54222 0.0
C947 C 0.87452 0.60147 0.54621 0.0
C948 C 0.84943 0.60125 0.54264 0.0
C949 C 0.83292 0.59029 0.5388 0.0
C950 C 0.82365 0.59596 0.5317 0.0
C951 C 0.83106 0.61311 0.52878 0.0
C952 C 0.84753 0.62444 0.5336 0.0
C953 C 0.8566 0.61838 0.54039 0.0
C954 C 0.80606 0.58354 0.5269 0.0
C955 C 0.85562 0.64289 0.53123 0.0
C956 C 0.82428 0.62454 0.44963 0.0
C957 C 0.81365 0.62796 0.44172 0.0
C958 C 0.80305 0.63088 0.45089 0.0
C959 C 0.80314 0.63064 0.46852 0.0
C960 C 0.7931 0.63418 0.47819 0.0
C961 C 0.79278 0.63322 0.49549 0.0
C962 C 0.80235 0.6285 0.50377 0.0
C963 C 0.80156 0.62674 0.52126 0.0
C964 C 0.81124 0.62199 0.52906 0.0
C965 C 0.82179 0.619 0.51987 0.0
C966 C 0.82288 0.62086 0.50239 0.0
C967 C 0.83352 0.61814 0.49278 0.0
C968 C 0.83432 0.61976 0.47557 0.0
C969 C 0.82415 0.62366 0.46721 0.0
C970 C 0.81348 0.62665 0.47668 0.0
C971 C 0.81296 0.62542 0.4943 0.0
C972 C 0.73739 0.63235 0.57927 0.0
C973 C 0.74342 0.62754 0.56429 0.0
O974 O 0.86219 0.61287 0.404 0.0
O975 O 0.85803 0.59484 0.54834 0.0
O976 O 0.76015 0.63768 0.56253 0.0
O977 O 0.75832 0.6393 0.41434 0.0
H978 H 0.8609 0.62745 0.38655 0.0
H979 H 0.84896 0.59906 0.37441 0.0
H980 H 0.86809 0.60034 0.37656 0.0
H981 H 0.86621 0.61378 0.3626 0.0
H982 H 0.86883 0.64273 0.41478 0.0
H983 H 0.83758 0.59006 0.41978 0.0
H984 H 0.84551 0.65568 0.43064 0.0
H985 H 0.86661 0.66217 0.43222 0.0
H986 H 0.85375 0.65481 0.45026 0.0
H987 H 0.8134 0.57828 0.43518 0.0
H988 H 0.80517 0.5912 0.43946 0.0
H989 H 0.81758 0.58976 0.4549 0.0
H990 H 0.73726 0.61584 0.40931 0.0
H991 H 0.72653 0.62783 0.39475 0.0
H992 H 0.74219 0.64697 0.39904 0.0
H993 H 0.72007 0.63851 0.42619 0.0
H994 H 0.75135 0.61123 0.42888 0.0
H995 H 0.78865 0.66176 0.41953 0.0
H996 H 0.77784 0.59876 0.44302 0.0
H997 H 0.75688 0.59291 0.44146 0.0
H998 H 0.76881 0.60367 0.46006 0.0
H999 H 0.81489 0.67478 0.43204 0.0
H1000 H 0.82172 0.66051 0.42922 0.0
H1001 H 0.81739 0.66515 0.4498 0.0
H1002 H 0.73655 0.62543 0.55239 0.0
H1003 H 0.75064 0.61002 0.54309 0.0
H1004 H 0.79075 0.65849 0.55888 0.0
H1005 H 0.76702 0.60226 0.50948 0.0
H1006 H 0.75407 0.59115 0.52654 0.0
H1007 H 0.77438 0.595 0.52534 0.0
H1008 H 0.81689 0.67005 0.54747 0.0
H1009 H 0.818 0.66131 0.5274 0.0
H1010 H 0.82197 0.65431 0.54616 0.0
H1011 H 0.87885 0.60946 0.53518 0.0
H1012 H 0.89043 0.59225 0.5404 0.0
H1013 H 0.87056 0.58033 0.53052 0.0
H1014 H 0.87282 0.57837 0.55247 0.0
H1015 H 0.82745 0.57714 0.54084 0.0
H1016 H 0.86925 0.62702 0.54389 0.0
H1017 H 0.80409 0.58412 0.51337 0.0
H1018 H 0.79812 0.58678 0.53388 0.0
H1019 H 0.80225 0.57056 0.52957 0.0
H1020 H 0.86788 0.65024 0.5373 0.0
H1021 H 0.84794 0.64741 0.53643 0.0
H1022 H 0.85692 0.64522 0.51768 0.0
H1023 H 0.81345 0.62811 0.42819 0.0
H1024 H 0.78533 0.63768 0.47247 0.0
H1025 H 0.78476 0.63602 0.50227 0.0
H1026 H 0.81041 0.62043 0.54244 0.0
H1027 H 0.84138 0.61475 0.49846 0.0
H1028 H 0.84281 0.61764 0.46884 0.0
H1029 H 0.72838 0.61178 0.59432 0.0
H1030 H 0.72943 0.63652 0.57411 0.0
H1031 H 0.74743 0.64529 0.58358 0.0
C1032 C 0.39174 0.2604 0.38079 0.0
C1033 C 0.37948 0.25434 0.39493 0.0
C1034 C 0.38512 0.248 0.42219 0.0
C1035 C 0.3693 0.23557 0.42649 0.0
C1036 C 0.36674 0.22386 0.43824 0.0
C1037 C 0.38029 0.22448 0.4456 0.0
C1038 C 0.39627 0.23738 0.44165 0.0
C1039 C 0.39845 0.24921 0.43023 0.0
C1040 C 0.34953 0.21055 0.44241 0.0
C1041 C 0.41105 0.2383 0.44894 0.0
C1042 C 0.36197 0.10338 0.40556 0.0
C1043 C 0.36958 0.12089 0.41226 0.0
C1044 C 0.36213 0.13848 0.42799 0.0
C1045 C 0.37824 0.15144 0.43185 0.0
C1046 C 0.3815 0.16576 0.44124 0.0
C1047 C 0.36842 0.16719 0.44683 0.0
C1048 C 0.3522 0.15421 0.44294 0.0
C1049 C 0.34928 0.13999 0.4336 0.0
C1050 C 0.39894 0.1794 0.44519 0.0
C1051 C 0.33799 0.1554 0.44866 0.0
C1052 C 0.37581 0.14905 0.55471 0.0
C1053 C 0.39015 0.1599 0.54623 0.0
C1054 C 0.39156 0.17314 0.53753 0.0
C1055 C 0.37826 0.17537 0.53699 0.0
C1056 C 0.36387 0.16454 0.54561 0.0
C1057 C 0.3629 0.15159 0.55447 0.0
C1058 C 0.40724 0.18467 0.52878 0.0
C1059 C 0.34944 0.16652 0.54526 0.0
C1060 C 0.41512 0.30716 0.55684 0.0
C1061 C 0.40099 0.28926 0.55904 0.0
C1062 C 0.40144 0.264 0.55315 0.0
C1063 C 0.41246 0.25921 0.54933 0.0
C1064 C 0.4074 0.244 0.54069 0.0
C1065 C 0.39076 0.23312 0.5362 0.0
C1066 C 0.37938 0.23755 0.54076 0.0
C1067 C 0.38486 0.25304 0.54908 0.0
C1068 C 0.41989 0.23967 0.53618 0.0
C1069 C 0.36146 0.22597 0.53677 0.0
C1070 C 0.37773 0.21075 0.45608 0.0
C1071 C 0.37402 0.19583 0.4478 0.0
C1072 C 0.37174 0.18237 0.4566 0.0
C1073 C 0.37316 0.1837 0.47422 0.0
C1074 C 0.37088 0.17036 0.48345 0.0
C1075 C 0.37263 0.1719 0.50076 0.0
C1076 C 0.37689 0.18689 0.5095 0.0
C1077 C 0.37928 0.18876 0.52704 0.0
C1078 C 0.38338 0.20379 0.53537 0.0
C1079 C 0.38538 0.2172 0.52663 0.0
C1080 C 0.38313 0.2156 0.50905 0.0
C1081 C 0.38514 0.22886 0.4998 0.0
C1082 C 0.38307 0.22721 0.48249 0.0
C1083 C 0.37928 0.21238 0.47372 0.0
C1084 C 0.37705 0.19881 0.4828 0.0
C1085 C 0.37893 0.20041 0.50047 0.0
C1086 C 0.3804 0.11763 0.57577 0.0
C1087 C 0.38469 0.13063 0.56345 0.0
O1088 O 0.38788 0.25876 0.4101 0.0
O1089 O 0.40722 0.27922 0.56084 0.0
O1090 O 0.37396 0.13608 0.56326 0.0
O1091 O 0.35846 0.12438 0.419 0.0
H1092 H 0.37168 0.2405 0.39314 0.0
H1093 H 0.39901 0.2545 0.38135 0.0
H1094 H 0.40021 0.27416 0.38189 0.0
H1095 H 0.38531 0.2569 0.36846 0.0
H1096 H 0.35898 0.23496 0.42058 0.0
H1097 H 0.41061 0.25899 0.4269 0.0
H1098 H 0.34658 0.19843 0.4365 0.0
H1099 H 0.34051 0.21339 0.43786 0.0
H1100 H 0.34831 0.20912 0.45613 0.0
H1101 H 0.42255 0.24818 0.44341 0.0
H1102 H 0.41007 0.22614 0.44686 0.0
H1103 H 0.41173 0.24096 0.46263 0.0
H1104 H 0.37833 0.13061 0.40377 0.0
H1105 H 0.36416 0.10441 0.39172 0.0
H1106 H 0.3485 0.09812 0.40427 0.0
H1107 H 0.37156 0.09333 0.42108 0.0
H1108 H 0.38833 0.15048 0.4276 0.0
H1109 H 0.33691 0.12995 0.43058 0.0
H1110 H 0.40156 0.19121 0.43992 0.0
H1111 H 0.40776 0.17633 0.4401 0.0
H1112 H 0.40083 0.18159 0.45894 0.0
H1113 H 0.3261 0.14424 0.44458 0.0
H1114 H 0.33898 0.16662 0.44361 0.0
H1115 H 0.33829 0.15684 0.4625 0.0
H1116 H 0.38749 0.12778 0.55068 0.0
H1117 H 0.40029 0.15815 0.54636 0.0
H1118 H 0.35192 0.14321 0.5611 0.0
H1119 H 0.40511 0.18271 0.51506 0.0
H1120 H 0.41706 0.18252 0.53205 0.0
H1121 H 0.41145 0.19788 0.53207 0.0
H1122 H 0.33884 0.15657 0.55191 0.0
H1123 H 0.34573 0.1663 0.53212 0.0
H1124 H 0.35292 0.1788 0.55118 0.0
H1125 H 0.39328 0.28538 0.54747 0.0
H1126 H 0.41047 0.31549 0.55509 0.0
H1127 H 0.42211 0.30762 0.54561 0.0
H1128 H 0.42348 0.31186 0.56791 0.0
H1129 H 0.42519 0.26768 0.55276 0.0
H1130 H 0.37619 0.25648 0.55253 0.0
H1131 H 0.41901 0.23628 0.52262 0.0
H1132 H 0.41742 0.22866 0.54308 0.0
H1133 H 0.43251 0.25011 0.53927 0.0
H1134 H 0.354 0.23042 0.54273 0.0
H1135 H 0.35718 0.21329 0.54101 0.0
H1136 H 0.35943 0.22492 0.52304 0.0
H1137 H 0.37305 0.19472 0.43426 0.0
H1138 H 0.36776 0.15858 0.47738 0.0
H1139 H 0.37073 0.1612 0.50718 0.0
H1140 H 0.38537 0.20517 0.54881 0.0
H1141 H 0.38833 0.24067 0.50584 0.0
H1142 H 0.38468 0.23778 0.47604 0.0
H1143 H 0.39989 0.12927 0.59299 0.0
H1144 H 0.37734 0.10612 0.568 0.0
H1145 H 0.36742 0.11271 0.57944 0.0
C1146 C 0.86565 0.24403 0.37967 0.0
C1147 C 0.87689 0.25417 0.39462 0.0
C1148 C 0.86293 0.23444 0.41687 0.0
C1149 C 0.8505 0.23768 0.4195 0.0
C1150 C 0.83735 0.22772 0.4298 0.0
C1151 C 0.8364 0.21404 0.4374 0.0
C1152 C 0.8489 0.21076 0.43484 0.0
C1153 C 0.86214 0.22119 0.42482 0.0
C1154 C 0.82436 0.23175 0.43243 0.0
C1155 C 0.84816 0.19609 0.44245 0.0
C1156 C 0.73093 0.13807 0.37622 0.0
C1157 C 0.73964 0.13396 0.38917 0.0
C1158 C 0.75143 0.1491 0.41568 0.0
C1159 C 0.76312 0.14491 0.41793 0.0
C1160 C 0.77656 0.15462 0.42876 0.0
C1161 C 0.77846 0.16897 0.43725 0.0
C1162 C 0.76648 0.17302 0.43521 0.0
C1163 C 0.75291 0.16277 0.42471 0.0
C1164 C 0.78887 0.14969 0.4309 0.0
C1165 C 0.76822 0.18842 0.44369 0.0
C1166 C 0.75079 0.15284 0.54558 0.0
C1167 C 0.76018 0.14644 0.53983 0.0
C1168 C 0.77468 0.15649 0.53125 0.0
C1169 C 0.77967 0.17314 0.52812 0.0
C1170 C 0.77038 0.17968 0.53428 0.0
C1171 C 0.75619 0.16949 0.54318 0.0
C1172 C 0.78462 0.14931 0.52544 0.0
C1173 C 0.77534 0.19739 0.53138 0.0
C1174 C 0.89065 0.28344 0.55078 0.0
C1175 C 0.88312 0.2694 0.56313 0.0
C1176 C 0.86553 0.24326 0.54652 0.0
C1177 C 0.8635 0.22799 0.5414 0.0
C1178 C 0.84956 0.2158 0.53236 0.0
C1179 C 0.83745 0.2191 0.52817 0.0
C1180 C 0.83943 0.23457 0.53321 0.0
C1181 C 0.85342 0.24648 0.54238 0.0
C1182 C 0.84783 0.19944 0.52717 0.0
C1183 C 0.82681 0.23854 0.52878 0.0
C1184 C 0.82199 0.2028 0.44746 0.0
C1185 C 0.80761 0.19112 0.43887 0.0
C1186 C 0.79344 0.1803 0.44739 0.0
C1187 C 0.79363 0.18085 0.46506 0.0
C1188 C 0.77972 0.16993 0.47406 0.0
C1189 C 0.77991 0.17088 0.49144 0.0
C1190 C 0.79412 0.18259 0.50052 0.0
C1191 C 0.79443 0.18369 0.51821 0.0
C1192 C 0.80877 0.19553 0.52681 0.0
C1193 C 0.82283 0.20651 0.51824 0.0
C1194 C 0.82274 0.20567 0.50057 0.0
C1195 C 0.83662 0.2167 0.49157 0.0
C1196 C 0.8364 0.21582 0.47418 0.0
C1197 C 0.82232 0.20384 0.46513 0.0
C1198 C 0.80812 0.19272 0.47395 0.0
C1199 C 0.80835 0.1936 0.4917 0.0
C1200 C 0.70844 0.12359 0.54947 0.0
C1201 C 0.72549 0.12651 0.55074 0.0
O1202 O 0.87575 0.24356 0.40673 0.0
O1203 O 0.87938 0.25447 0.55521 0.0
O1204 O 0.73658 0.14344 0.55364 0.0
O1205 O 0.73875 0.14038 0.40471 0.0
H1206 H 0.87337 0.2628 0.39996 0.0
H1207 H 0.85277 0.23673 0.38361 0.0
H1208 H 0.86893 0.23524 0.37424 0.0
H1209 H 0.86662 0.25245 0.36987 0.0
H1210 H 0.85089 0.24793 0.41361 0.0
H1211 H 0.87177 0.21878 0.42278 0.0
H1212 H 0.81293 0.22196 0.42594 0.0
H1213 H 0.82792 0.24401 0.42753 0.0
H1214 H 0.82173 0.23183 0.44594 0.0
H1215 H 0.85799 0.19429 0.4379 0.0
H1216 H 0.83621 0.1845 0.4395 0.0
H1217 H 0.84935 0.19803 0.45625 0.0
H1218 H 0.75258 0.14019 0.38525 0.0
H1219 H 0.73152 0.13307 0.36362 0.0
H1220 H 0.73693 0.15181 0.37575 0.0
H1221 H 0.71796 0.13269 0.37948 0.0
H1222 H 0.76175 0.13405 0.41124 0.0
H1223 H 0.74372 0.16579 0.42295 0.0
H1224 H 0.7918 0.15012 0.44436 0.0
H1225 H 0.80031 0.1587 0.42464 0.0
H1226 H 0.78446 0.13699 0.42544 0.0
H1227 H 0.75892 0.19087 0.43919 0.0
H1228 H 0.7805 0.19949 0.44152 0.0
H1229 H 0.7669 0.18688 0.45737 0.0
H1230 H 0.72783 0.12216 0.53852 0.0
H1231 H 0.7563 0.13369 0.54218 0.0
H1232 H 0.74896 0.17434 0.54792 0.0
H1233 H 0.78402 0.1479 0.51159 0.0
H1234 H 0.78018 0.13692 0.53058 0.0
H1235 H 0.7976 0.15792 0.52921 0.0
H1236 H 0.76578 0.1999 0.53516 0.0
H1237 H 0.77805 0.20013 0.518 0.0
H1238 H 0.7866 0.20607 0.53876 0.0
H1239 H 0.87189 0.26823 0.56827 0.0
H1240 H 0.89391 0.29545 0.55725 0.0
H1241 H 0.88185 0.28078 0.54052 0.0
H1242 H 0.90176 0.28475 0.54518 0.0
H1243 H 0.87291 0.22563 0.54459 0.0
H1244 H 0.8548 0.25826 0.54608 0.0
H1245 H 0.84753 0.19805 0.51333 0.0
H1246 H 0.83614 0.18893 0.53172 0.0
H1247 H 0.85798 0.19849 0.53208 0.0
H1248 H 0.83051 0.25145 0.53289 0.0
H1249 H 0.81514 0.22969 0.53477 0.0
H1250 H 0.82456 0.23697 0.51506 0.0
H1251 H 0.80737 0.19059 0.42531 0.0
H1252 H 0.76847 0.16058 0.46774 0.0
H1253 H 0.76876 0.16228 0.49766 0.0
H1254 H 0.80891 0.19637 0.54036 0.0
H1255 H 0.84782 0.22617 0.49785 0.0
H1256 H 0.84743 0.22468 0.46793 0.0
H1257 H 0.70528 0.12761 0.56136 0.0
H1258 H 0.69923 0.11019 0.54664 0.0
H1259 H 0.70795 0.13088 0.53924 0.0
C1260 C 0.03763 0.48128 0.29075 0.0
C1261 C 0.02421 0.46617 0.28059 0.0
C1262 C 0.02112 0.47486 0.25351 0.0
C1263 C 0.00434 0.46832 0.25262 0.0
C1264 C 0.99806 0.47535 0.2424 0.0
C1265 C 0.00883 0.48926 0.233 0.0
C1266 C 0.02574 0.49554 0.23352 0.0
C1267 C 0.03163 0.48804 0.2436 0.0
C1268 C 0.97993 0.46805 0.24181 0.0
C1269 C 0.0376 0.51038 0.22373 0.0
C1270 C 0.95493 0.55558 0.26161 0.0
C1271 C 0.97056 0.56014 0.27112 0.0
C1272 C 0.98519 0.55171 0.25198 0.0
C1273 C 0.99941 0.55767 0.24285 0.0
C1274 C 0.00268 0.54674 0.23396 0.0
C1275 C 0.99114 0.52937 0.23385 0.0
C1276 C 0.97674 0.5232 0.24315 0.0
C1277 C 0.974 0.5344 0.25229 0.0
C1278 C 0.01839 0.55378 0.22458 0.0
C1279 C 0.96417 0.50475 0.24334 0.0
C1280 C 0.97002 0.53859 0.12916 0.0
C1281 C 0.98639 0.54489 0.13317 0.0
C1282 C 0.99104 0.53482 0.14051 0.0
C1283 C 0.97902 0.51816 0.14401 0.0
C1284 C 0.9626 0.51156 0.13922 0.0
C1285 C 0.95834 0.52186 0.13164 0.0
C1286 C 0.00876 0.54209 0.14485 0.0
C1287 C 0.94949 0.49383 0.14261 0.0
C1288 C 0.0044 0.42425 0.14162 0.0
C1289 C 0.99357 0.42237 0.12679 0.0
C1290 C 0.99609 0.4495 0.12797 0.0
C1291 C 0.00849 0.4663 0.1275 0.0
C1292 C 0.00681 0.47878 0.13542 0.0
C1293 C 0.99217 0.47428 0.14364 0.0
C1294 C 0.97922 0.45738 0.14336 0.0
C1295 C 0.98134 0.44514 0.13559 0.0
C1296 C 0.02081 0.4967 0.13541 0.0
C1297 C 0.96323 0.45223 0.15151 0.0
C1298 C 0.00253 0.49774 0.22332 0.0
C1299 C 0.99978 0.50909 0.232 0.0
C1300 C 0.99397 0.51767 0.22378 0.0
C1301 C 0.99095 0.51505 0.20633 0.0
C1302 C 0.98506 0.52345 0.19767 0.0
C1303 C 0.98258 0.52117 0.18044 0.0
C1304 C 0.98567 0.51022 0.17122 0.0
C1305 C 0.9835 0.50807 0.15364 0.0
C1306 C 0.98588 0.49645 0.14496 0.0
C1307 C 0.99066 0.48705 0.15337 0.0
C1308 C 0.99359 0.48957 0.17085 0.0
C1309 C 0.99897 0.48075 0.1796 0.0
C1310 C 0.00183 0.48334 0.19678 0.0
C1311 C 0.99945 0.49484 0.20588 0.0
C1312 C 0.99381 0.50369 0.19735 0.0
C1313 C 0.99102 0.50115 0.17979 0.0
C1314 C 0.95582 0.56132 0.14192 0.0
C1315 C 0.96918 0.56374 0.12992 0.0
O1316 O 0.02746 0.46858 0.26371 0.0
O1317 O 0.99875 0.43793 0.1208 0.0
O1318 O 0.9652 0.54838 0.12286 0.0
O1319 O 0.98277 0.5631 0.26005 0.0
H1320 H 0.01247 0.46508 0.28358 0.0
H1321 H 0.03796 0.4927 0.28735 0.0
H1322 H 0.04971 0.48305 0.28818 0.0
H1323 H 0.03523 0.47962 0.30433 0.0
H1324 H 0.99615 0.45768 0.25984 0.0
H1325 H 0.04455 0.49281 0.24422 0.0
H1326 H 0.97726 0.47695 0.24813 0.0
H1327 H 0.97305 0.456 0.24808 0.0
H1328 H 0.97553 0.46607 0.22865 0.0
H1329 H 0.05045 0.51434 0.22626 0.0
H1330 H 0.03616 0.52104 0.22686 0.0
H1331 H 0.03497 0.50726 0.21016 0.0
H1332 H 0.96792 0.54968 0.27911 0.0
H1333 H 0.94538 0.55378 0.27055 0.0
H1334 H 0.95016 0.54381 0.25399 0.0
H1335 H 0.95724 0.56552 0.25307 0.0
H1336 H 0.00802 0.57102 0.24275 0.0
H1337 H 0.96299 0.5295 0.25941 0.0
H1338 H 0.01574 0.55224 0.21094 0.0
H1339 H 0.02439 0.54689 0.22734 0.0
H1340 H 0.02701 0.56724 0.22779 0.0
H1341 H 0.95285 0.50207 0.24967 0.0
H1342 H 0.96931 0.49848 0.24999 0.0
H1343 H 0.96101 0.49924 0.23038 0.0
H1344 H 0.98073 0.56955 0.13736 0.0
H1345 H 0.99554 0.55767 0.13058 0.0
H1346 H 0.94577 0.51706 0.1282 0.0
H1347 H 0.01051 0.54386 0.15863 0.0
H1348 H 0.01682 0.55434 0.13924 0.0
H1349 H 0.01256 0.5334 0.14052 0.0
H1350 H 0.93722 0.49075 0.13858 0.0
H1351 H 0.94931 0.49177 0.15617 0.0
H1352 H 0.9522 0.48512 0.13591 0.0
H1353 H 0.98082 0.41625 0.13107 0.0
H1354 H 0.00049 0.41182 0.14635 0.0
H1355 H 0.00341 0.43183 0.15194 0.0
H1356 H 0.01735 0.43053 0.13789 0.0
H1357 H 0.01973 0.46956 0.12134 0.0
H1358 H 0.97134 0.43227 0.13538 0.0
H1359 H 0.02467 0.50167 0.14847 0.0
H1360 H 0.01683 0.50438 0.12952 0.0
H1361 H 0.03146 0.49814 0.12858 0.0
H1362 H 0.95381 0.43888 0.14872 0.0
H1363 H 0.95862 0.45999 0.14722 0.0
H1364 H 0.96511 0.45434 0.16526 0.0
H1365 H 0.00219 0.51128 0.24537 0.0
H1366 H 0.98243 0.53201 0.20408 0.0
H1367 H 0.97816 0.52808 0.17446 0.0
H1368 H 0.98395 0.49466 0.13152 0.0
H1369 H 0.00112 0.47181 0.17326 0.0
H1370 H 0.00597 0.47622 0.20285 0.0
H1371 H 0.95878 0.57353 0.14764 0.0
H1372 H 0.95484 0.55324 0.1521 0.0
H1373 H 0.94386 0.5553 0.13527 0.0
C1374 C 0.46171 0.41162 0.29345 0.0
C1375 C 0.45128 0.41651 0.2841 0.0
C1376 C 0.45978 0.42282 0.25572 0.0
C1377 C 0.45707 0.4352 0.25106 0.0
C1378 C 0.46751 0.44728 0.23995 0.0
C1379 C 0.48107 0.44705 0.23367 0.0
C1380 C 0.48358 0.43425 0.23813 0.0
C1381 C 0.47268 0.42209 0.24893 0.0
C1382 C 0.46432 0.46056 0.23531 0.0
C1383 C 0.49809 0.4338 0.23203 0.0
C1384 C 0.58332 0.56266 0.28578 0.0
C1385 C 0.57247 0.54579 0.27776 0.0
C1386 C 0.55151 0.5317 0.25583 0.0
C1387 C 0.5527 0.51757 0.25407 0.0
C1388 C 0.54182 0.50386 0.24361 0.0
C1389 C 0.52927 0.50411 0.235 0.0
C1390 C 0.52797 0.51827 0.23683 0.0
C1391 C 0.53929 0.53199 0.24704 0.0
C1392 C 0.54368 0.48904 0.24184 0.0
C1393 C 0.51451 0.51881 0.22815 0.0
C1394 C 0.56373 0.52445 0.12987 0.0
C1395 C 0.56552 0.51275 0.13822 0.0
C1396 C 0.55218 0.49929 0.14581 0.0
C1397 C 0.5368 0.49764 0.1453 0.0
C1398 C 0.53489 0.50918 0.13661 0.0
C1399 C 0.54837 0.52236 0.12889 0.0
C1400 C 0.55459 0.48698 0.15464 0.0
C1401 C 0.51867 0.50779 0.13581 0.0
C1402 C 0.43838 0.36616 0.1206 0.0
C1403 C 0.44178 0.38383 0.11986 0.0
C1404 C 0.46788 0.40969 0.1258 0.0
C1405 C 0.48388 0.41475 0.12979 0.0
C1406 C 0.49415 0.42977 0.1389 0.0
C1407 C 0.48838 0.44028 0.14357 0.0
C1408 C 0.47241 0.43561 0.13877 0.0
C1409 C 0.46222 0.42022 0.13013 0.0
C1410 C 0.51109 0.43427 0.14368 0.0
C1411 C 0.46608 0.44683 0.14281 0.0
C1412 C 0.49345 0.46104 0.22382 0.0
C1413 C 0.50472 0.47578 0.23265 0.0
C1414 C 0.51725 0.48932 0.22453 0.0
C1415 C 0.51858 0.48828 0.207 0.0
C1416 C 0.53113 0.50162 0.19844 0.0
C1417 C 0.53243 0.50042 0.18121 0.0
C1418 C 0.52137 0.48575 0.1719 0.0
C1419 C 0.52295 0.48424 0.15445 0.0
C1420 C 0.51172 0.46952 0.14555 0.0
C1421 C 0.49904 0.45599 0.15364 0.0
C1422 C 0.49735 0.45721 0.17112 0.0
C1423 C 0.48492 0.44379 0.17976 0.0
C1424 C 0.48342 0.44511 0.19696 0.0
C1425 C 0.49452 0.45975 0.20626 0.0
C1426 C 0.50715 0.47344 0.19783 0.0
C1427 C 0.50855 0.47217 0.18025 0.0
C1428 C 0.59867 0.55266 0.14239 0.0
C1429 C 0.5929 0.5443 0.12489 0.0
O1430 O 0.45037 0.4119 0.2673 0.0
O1431 O 0.45832 0.39469 0.11761 0.0
O1432 O 0.57639 0.53796 0.12273 0.0
O1433 O 0.56185 0.54521 0.26586 0.0
H1434 H 0.45725 0.43032 0.28575 0.0
H1435 H 0.47421 0.41818 0.28838 0.0
H1436 H 0.45642 0.39796 0.292 0.0
H1437 H 0.46258 0.41523 0.30695 0.0
H1438 H 0.44692 0.43551 0.25636 0.0
H1439 H 0.47457 0.41239 0.25267 0.0
H1440 H 0.47363 0.47266 0.24149 0.0
H1441 H 0.45208 0.45761 0.23921 0.0
H1442 H 0.46535 0.4621 0.22161 0.0
H1443 H 0.49892 0.42375 0.23765 0.0
H1444 H 0.5095 0.44595 0.23506 0.0
H1445 H 0.49726 0.43173 0.21824 0.0
H1446 H 0.56632 0.53542 0.28654 0.0
H1447 H 0.60665 0.56905 0.27834 0.0
H1448 H 0.57966 0.56136 0.29927 0.0
H1449 H 0.57795 0.57029 0.28276 0.0
H1450 H 0.56213 0.51716 0.26075 0.0
H1451 H 0.53846 0.54293 0.24848 0.0
H1452 H 0.53326 0.47823 0.24779 0.0
H1453 H 0.55513 0.49155 0.24777 0.0
H1454 H 0.54352 0.48547 0.22842 0.0
H1455 H 0.5144 0.53015 0.23195 0.0
H1456 H 0.50252 0.50762 0.23099 0.0
H1457 H 0.51606 0.5186 0.21443 0.0
H1458 H 0.59524 0.53406 0.12322 0.0
H1459 H 0.57725 0.51401 0.13898 0.0
H1460 H 0.54707 0.53137 0.12233 0.0
H1461 H 0.55357 0.48848 0.16832 0.0
H1462 H 0.56668 0.48876 0.15215 0.0
H1463 H 0.54497 0.47402 0.15068 0.0
H1464 H 0.5193 0.51808 0.129 0.0
H1465 H 0.51436 0.50791 0.14865 0.0
H1466 H 0.50951 0.49573 0.12945 0.0
H1467 H 0.43811 0.38681 0.13208 0.0
H1468 H 0.42531 0.35713 0.12304 0.0
H1469 H 0.44572 0.36567 0.13088 0.0
H1470 H 0.44166 0.36238 0.10865 0.0
H1471 H 0.48816 0.4066 0.12616 0.0
H1472 H 0.44994 0.41651 0.12659 0.0
H1473 H 0.51353 0.43793 0.1572 0.0
H1474 H 0.52014 0.44512 0.1366 0.0
H1475 H 0.51296 0.42382 0.14096 0.0
H1476 H 0.45452 0.44269 0.13597 0.0
H1477 H 0.47525 0.45985 0.13967 0.0
H1478 H 0.46384 0.44684 0.15641 0.0
H1479 H 0.50392 0.47661 0.24614 0.0
H1480 H 0.54012 0.51314 0.20497 0.0
H1481 H 0.54231 0.51114 0.17532 0.0
H1482 H 0.51311 0.46841 0.13219 0.0
H1483 H 0.47618 0.4321 0.17333 0.0
H1484 H 0.47355 0.43443 0.20292 0.0
H1485 H 0.59628 0.56284 0.1443 0.0
H1486 H 0.61193 0.55794 0.14406 0.0
H1487 H 0.59222 0.54345 0.15213 0.0
C1488 C 0.44213 0.96704 0.29535 0.0
C1489 C 0.44188 0.98037 0.28548 0.0
C1490 C 0.45236 0.98136 0.25758 0.0
C1491 C 0.46464 0.9983 0.25708 0.0
C1492 C 0.47777 0.00363 0.24624 0.0
C1493 C 0.47854 0.99176 0.23563 0.0
C1494 C 0.46578 0.97478 0.23557 0.0
C1495 C 0.45272 0.96983 0.24644 0.0
C1496 C 0.49098 0.02188 0.24631 0.0
C1497 C 0.46617 0.96183 0.22434 0.0
C1498 C 0.58321 0.9853 0.26932 0.0
C1499 C 0.57174 0.98433 0.25641 0.0
C1500 C 0.55765 0.99834 0.24926 0.0
C1501 C 0.54634 0.98542 0.23822 0.0
C1502 C 0.5342 0.98655 0.23014 0.0
C1503 C 0.53347 0.00095 0.23298 0.0
C1504 C 0.54488 0.01403 0.24398 0.0
C1505 C 0.55682 0.01251 0.25202 0.0
C1506 C 0.52211 0.97229 0.2186 0.0
C1507 C 0.54445 0.02957 0.24722 0.0
C1508 C 0.57122 0.03824 0.13261 0.0
C1509 C 0.55984 0.02106 0.13338 0.0
C1510 C 0.54468 0.01515 0.14084 0.0
C1511 C 0.54096 0.0267 0.14778 0.0
C1512 C 0.55214 0.04401 0.14631 0.0
C1513 C 0.56706 0.04953 0.13851 0.0
C1514 C 0.53279 0.9966 0.14159 0.0
C1515 C 0.5485 0.05667 0.15336 0.0
C1516 C 0.42071 0.99878 0.14337 0.0
C1517 C 0.43313 0.01307 0.13283 0.0
C1518 C 0.45704 0.01082 0.13311 0.0
C1519 C 0.4599 0.99789 0.13116 0.0
C1520 C 0.47329 0.99893 0.13906 0.0
C1521 C 0.48427 0.01347 0.1488 0.0
C1522 C 0.48186 0.02693 0.15017 0.0
C1523 C 0.46823 0.02546 0.14232 0.0
C1524 C 0.47557 0.98439 0.13725 0.0
C1525 C 0.49362 0.04281 0.16003 0.0
C1526 C 0.49322 0.99696 0.22548 0.0
C1527 C 0.5063 0.99727 0.2331 0.0
C1528 C 0.52063 0.00218 0.2245 0.0
C1529 C 0.52218 0.00725 0.2079 0.0
C1530 C 0.53666 0.01285 0.19911 0.0
C1531 C 0.53796 0.01748 0.18266 0.0
C1532 C 0.52475 0.01647 0.17427 0.0
C1533 C 0.52582 0.02075 0.15739 0.0
C1534 C 0.51245 0.0196 0.14945 0.0
C1535 C 0.49798 0.01439 0.15796 0.0
C1536 C 0.4967 0.01013 0.17486 0.0
C1537 C 0.48235 0.00492 0.18382 0.0
C1538 C 0.48123 0.00078 0.20045 0.0
C1539 C 0.49431 0.00143 0.20868 0.0
C1540 C 0.50888 0.00663 0.19988 0.0
C1541 C 0.51011 0.0111 0.18299 0.0
C1542 C 0.61135 0.05144 0.13878 0.0
C1543 C 0.59615 0.03816 0.12894 0.0
O1544 O 0.44001 0.97581 0.26857 0.0
O1545 O 0.44362 0.00893 0.12562 0.0
O1546 O 0.58623 0.04429 0.12617 0.0
O1547 O 0.56939 0.99754 0.25755 0.0
H1548 H 0.4537 0.99225 0.28814 0.0
H1549 H 0.45266 0.96612 0.29153 0.0
H1550 H 0.43079 0.95465 0.29298 0.0
H1551 H 0.44339 0.97039 0.30896 0.0
H1552 H 0.46399 0.00737 0.26515 0.0
H1553 H 0.443 0.95683 0.24672 0.0
H1554 H 0.50259 0.02363 0.25087 0.0
H1555 H 0.48802 0.0297 0.2544 0.0
H1556 H 0.49293 0.02633 0.23339 0.0
H1557 H 0.45518 0.94917 0.22559 0.0
H1558 H 0.47712 0.96147 0.22739 0.0
H1559 H 0.46709 0.96525 0.21111 0.0
H1560 H 0.57399 0.98151 0.24338 0.0
H1561 H 0.5685 0.96466 0.2837 0.0
H1562 H 0.59006 0.9985 0.27474 0.0
H1563 H 0.59386 0.98675 0.2621 0.0
H1564 H 0.54683 0.97438 0.23589 0.0
H1565 H 0.56558 0.02241 0.26055 0.0
H1566 H 0.52357 0.9766 0.20567 0.0
H1567 H 0.5095 0.96804 0.22241 0.0
H1568 H 0.52368 0.96151 0.21853 0.0
H1569 H 0.55472 0.039 0.25541 0.0
H1570 H 0.53282 0.02626 0.25325 0.0
H1571 H 0.5449 0.03522 0.2352 0.0
H1572 H 0.58993 0.02705 0.13677 0.0
H1573 H 0.56278 0.01227 0.12815 0.0
H1574 H 0.57584 0.06276 0.13754 0.0
H1575 H 0.53188 0.99289 0.1547 0.0
H1576 H 0.53656 0.98933 0.13373 0.0
H1577 H 0.52048 0.99328 0.13742 0.0
H1578 H 0.55875 0.06969 0.15178 0.0
H1579 H 0.54586 0.05482 0.16688 0.0
H1580 H 0.53749 0.05486 0.14704 0.0
H1581 H 0.43991 0.02445 0.14118 0.0
H1582 H 0.41213 0.00186 0.14914 0.0
H1583 H 0.42709 0.99673 0.15354 0.0
H1584 H 0.41368 0.98705 0.13554 0.0
H1585 H 0.45133 0.98677 0.12377 0.0
H1586 H 0.46654 0.03585 0.1432 0.0
H1587 H 0.47577 0.97991 0.14978 0.0
H1588 H 0.48748 0.98849 0.13143 0.0
H1589 H 0.46578 0.97384 0.12949 0.0
H1590 H 0.49068 0.05257 0.15892 0.0
H1591 H 0.50622 0.04776 0.15566 0.0
H1592 H 0.49335 0.04013 0.17342 0.0
H1593 H 0.50524 0.99346 0.24587 0.0
H1594 H 0.54717 0.01375 0.20487 0.0
H1595 H 0.54943 0.02174 0.17657 0.0
H1596 H 0.51333 0.02287 0.1365 0.0
H1597 H 0.47182 0.00401 0.17809 0.0
H1598 H 0.46991 0.9969 0.20674 0.0
H1599 H 0.61815 0.06306 0.13181 0.0
H1600 H 0.6195 0.04679 0.14121 0.0
H1601 H 0.60777 0.05442 0.15099 0.0
C1602 C 0.55354 0.97052 0.75292 0.0
C1603 C 0.55629 0.9857 0.74374 0.0
C1604 C 0.54732 0.99992 0.76327 0.0
C1605 C 0.55261 0.01464 0.7728 0.0
C1606 C 0.54163 0.0171 0.78195 0.0
C1607 C 0.52497 0.00424 0.78193 0.0
C1608 C 0.51946 0.98933 0.77218 0.0
C1609 C 0.53065 0.9874 0.76276 0.0
C1610 C 0.54792 0.03338 0.79179 0.0
C1611 C 0.50179 0.9753 0.77193 0.0
C1612 C 0.41473 0.00309 0.74788 0.0
C1613 C 0.42493 5e-05 0.75915 0.0
C1614 C 0.4531 0.01231 0.76841 0.0
C1615 C 0.45042 0.99751 0.77492 0.0
C1616 C 0.46298 0.99715 0.78297 0.0
C1617 C 0.47852 0.01197 0.78494 0.0
C1618 C 0.48135 0.02688 0.77836 0.0
C1619 C 0.46859 0.02682 0.77007 0.0
C1620 C 0.45957 0.98086 0.78945 0.0
C1621 C 0.49776 0.04288 0.78028 0.0
C1622 C 0.4589 0.01789 0.89162 0.0
C1623 C 0.45299 0.00157 0.88533 0.0
C1624 C 0.46334 0.99762 0.87695 0.0
C1625 C 0.47989 0.01022 0.87494 0.0
C1626 C 0.48603 0.02643 0.88206 0.0
C1627 C 0.47544 0.03001 0.89046 0.0
C1628 C 0.45654 0.98009 0.86988 0.0
C1629 C 0.50366 0.0401 0.88032 0.0
C1630 C 0.55535 0.95997 0.86935 0.0
C1631 C 0.55913 0.97427 0.88186 0.0
C1632 C 0.53645 0.97835 0.88347 0.0
C1633 C 0.51976 0.96801 0.8802 0.0
C1634 C 0.51087 0.9744 0.87374 0.0
C1635 C 0.51888 0.99165 0.87096 0.0
C1636 C 0.53557 0.00236 0.87533 0.0
C1637 C 0.54423 0.99556 0.88147 0.0
C1638 C 0.49304 0.96264 0.86944 0.0
C1639 C 0.54433 0.02089 0.87313 0.0
C1640 C 0.51343 0.0062 0.7925 0.0
C1641 C 0.50275 0.00968 0.78476 0.0
C1642 C 0.4916 0.01164 0.79407 0.0
C1643 C 0.49173 0.01116 0.81168 0.0
C1644 C 0.48154 0.01433 0.82149 0.0
C1645 C 0.48131 0.01323 0.83876 0.0
C1646 C 0.49103 0.00855 0.84683 0.0
C1647 C 0.49047 0.00682 0.86432 0.0
C1648 C 0.49991 0.00166 0.87189 0.0
C1649 C 0.51003 0.99822 0.86243 0.0
C1650 C 0.51106 0.00029 0.84498 0.0
C1651 C 0.52125 0.99712 0.83509 0.0
C1652 C 0.52218 0.9992 0.81795 0.0
C1653 C 0.51273 0.00423 0.80996 0.0
C1654 C 0.50208 0.00707 0.81961 0.0
C1655 C 0.50146 0.0054 0.83717 0.0
C1656 C 0.43286 0.03107 0.8868 0.0
C1657 C 0.43319 0.01679 0.89458 0.0
O1658 O 0.55876 0.99832 0.75505 0.0
O1659 O 0.54472 0.97141 0.88865 0.0
O1660 O 0.44912 0.02234 0.89915 0.0
O1661 O 0.44112 0.013 0.76048 0.0
H1662 H 0.54543 0.98179 0.73568 0.0
H1663 H 0.54227 0.96507 0.76031 0.0
H1664 H 0.56386 0.97408 0.76163 0.0
H1665 H 0.55225 0.96073 0.74377 0.0
H1666 H 0.56546 0.02426 0.77304 0.0
H1667 H 0.52626 0.97599 0.75531 0.0
H1668 H 0.53992 0.03824 0.78968 0.0
H1669 H 0.56055 0.04299 0.7884 0.0
H1670 H 0.54783 0.0313 0.80533 0.0
H1671 H 0.49979 0.96382 0.76527 0.0
H1672 H 0.49435 0.97927 0.76559 0.0
H1673 H 0.49733 0.97227 0.78489 0.0
H1674 H 0.41952 0.99525 0.77155 0.0
H1675 H 0.40792 0.98496 0.72849 0.0
H1676 H 0.42186 0.01687 0.74575 0.0
H1677 H 0.40561 0.00354 0.75627 0.0
H1678 H 0.43855 0.98612 0.77373 0.0
H1679 H 0.4706 0.03817 0.76498 0.0
H1680 H 0.45964 0.98155 0.80332 0.0
H1681 H 0.46921 0.97854 0.78549 0.0
H1682 H 0.44758 0.97009 0.78499 0.0
H1683 H 0.49776 0.05363 0.77528 0.0
H1684 H 0.507 0.04141 0.77357 0.0
H1685 H 0.5015 0.04566 0.79368 0.0
H1686 H 0.42833 0.00638 0.88495 0.0
H1687 H 0.44036 0.9919 0.88698 0.0
H1688 H 0.47992 0.04246 0.89571 0.0
H1689 H 0.45707 0.98016 0.85603 0.0
H1690 H 0.44371 0.97144 0.8735 0.0
H1691 H 0.46405 0.97529 0.87426 0.0
H1692 H 0.50666 0.0519 0.88707 0.0
H1693 H 0.50642 0.04254 0.86689 0.0
H1694 H 0.51164 0.03607 0.88522 0.0
H1695 H 0.56525 0.98596 0.87489 0.0
H1696 H 0.56678 0.96202 0.86379 0.0
H1697 H 0.54736 0.95935 0.85911 0.0
H1698 H 0.54901 0.94785 0.87553 0.0
H1699 H 0.51385 0.95479 0.88213 0.0
H1700 H 0.55704 0.00365 0.88469 0.0
H1701 H 0.49074 0.96355 0.85609 0.0
H1702 H 0.48571 0.96627 0.87704 0.0
H1703 H 0.48879 0.94947 0.87175 0.0
H1704 H 0.55664 0.02774 0.87911 0.0
H1705 H 0.53713 0.0259 0.87852 0.0
H1706 H 0.54566 0.02332 0.8596 0.0
H1707 H 0.50277 0.01033 0.77127 0.0
H1708 H 0.47367 0.01779 0.81593 0.0
H1709 H 0.47324 0.01586 0.84565 0.0
H1710 H 0.49921 0.00011 0.88527 0.0
H1711 H 0.52868 0.99304 0.84048 0.0
H1712 H 0.53025 0.9966 0.81102 0.0
H1713 H 0.4375 0.04189 0.89589 0.0
H1714 H 0.42026 0.02693 0.88283 0.0
H1715 H 0.44067 0.03513 0.87562 0.0
C1716 C 0.0294 0.59192 0.75746 0.0
C1717 C 0.01443 0.57839 0.74731 0.0
C1718 C 0.00089 0.55455 0.76561 0.0
C1719 C 0.98674 0.54455 0.77451 0.0
C1720 C 0.98456 0.53096 0.78313 0.0
C1721 C 0.99713 0.52759 0.78324 0.0
C1722 C 0.01146 0.53757 0.77415 0.0
C1723 C 0.01311 0.5508 0.76524 0.0
C1724 C 0.9689 0.52032 0.79226 0.0
C1725 C 0.02517 0.53442 0.77404 0.0
C1726 C 0.00047 0.41696 0.74415 0.0
C1727 C 0.00351 0.43102 0.75577 0.0
C1728 C 0.99086 0.44612 0.7657 0.0
C1729 C 0.00531 0.45967 0.77287 0.0
C1730 C 0.00535 0.47281 0.78157 0.0
C1731 C 0.99059 0.47232 0.78344 0.0
C1732 C 0.97603 0.4588 0.77615 0.0
C1733 C 0.97639 0.44589 0.76728 0.0
C1734 C 0.02123 0.4872 0.78885 0.0
C1735 C 0.96012 0.45793 0.77793 0.0
C1736 C 0.99171 0.44986 0.88944 0.0
C1737 C 0.00682 0.46109 0.8825 0.0
C1738 C 0.00929 0.4751 0.87447 0.0
C1739 C 0.9964 0.47791 0.87342 0.0
C1740 C 0.98138 0.46697 0.88099 0.0
C1741 C 0.9793 0.45314 0.88908 0.0
C1742 C 0.0256 0.48677 0.86688 0.0
C1743 C 0.96742 0.46967 0.88015 0.0
C1744 C 0.04467 0.6118 0.88179 0.0
C1745 C 0.03064 0.5968 0.89021 0.0
C1746 C 0.02777 0.56962 0.88718 0.0
C1747 C 0.03743 0.56327 0.88274 0.0
C1748 C 0.03054 0.54724 0.87524 0.0
C1749 C 0.01348 0.53718 0.87256 0.0
C1750 C 0.00351 0.54316 0.87801 0.0
C1751 C 0.01078 0.55938 0.88522 0.0
C1752 C 0.04155 0.5412 0.86986 0.0
C1753 C 0.98524 0.53251 0.87591 0.0
C1754 C 0.99543 0.51389 0.79316 0.0
C1755 C 0.99199 0.49915 0.78466 0.0
C1756 C 0.99062 0.48596 0.79326 0.0
C1757 C 0.99162 0.48699 0.8109 0.0
C1758 C 0.98909 0.47346 0.81999 0.0
C1759 C 0.99089 0.47486 0.83729 0.0
C1760 C 0.99566 0.48996 0.84614 0.0
C1761 C 0.99835 0.49178 0.86363 0.0
C1762 C 0.00359 0.5071 0.87198 0.0
C1763 C 0.00627 0.5208 0.86329 0.0
C1764 C 0.00325 0.51912 0.84583 0.0
C1765 C 0.00567 0.53259 0.8367 0.0
C1766 C 0.0029 0.53086 0.8195 0.0
C1767 C 0.99789 0.51568 0.81071 0.0
C1768 C 0.99566 0.50205 0.81963 0.0
C1769 C 0.99804 0.50366 0.83724 0.0
C1770 C 0.9799 0.41146 0.87979 0.0
C1771 C 0.99344 0.42516 0.89114 0.0
O1772 O 0.00225 0.56771 0.75785 0.0
O1773 O 0.03525 0.5856 0.89339 0.0
O1774 O 0.98883 0.43602 0.89697 0.0
O1775 O 0.99046 0.43315 0.75723 0.0
H1776 H 0.01812 0.57124 0.73909 0.0
H1777 H 0.03482 0.58634 0.76478 0.0
H1778 H 0.02606 0.59889 0.76635 0.0
H1779 H 0.03884 0.60083 0.74894 0.0
H1780 H 0.97734 0.54745 0.77465 0.0
H1781 H 0.02408 0.55823 0.75827 0.0
H1782 H 0.96404 0.50688 0.78946 0.0
H1783 H 0.95945 0.523 0.78888 0.0
H1784 H 0.97128 0.52272 0.80593 0.0
H1785 H 0.03629 0.54453 0.76817 0.0
H1786 H 0.0212 0.52251 0.76696 0.0
H1787 H 0.02832 0.53321 0.78698 0.0
H1788 H 0.00899 0.43145 0.76813 0.0
H1789 H 0.01696 0.42879 0.72495 0.0
H1790 H 0.98689 0.40898 0.74192 0.0
H1791 H 0.00094 0.40781 0.75228 0.0
H1792 H 0.01666 0.46014 0.77172 0.0
H1793 H 0.9653 0.43544 0.76167 0.0
H1794 H 0.02097 0.48687 0.80269 0.0
H1795 H 0.02294 0.49926 0.78548 0.0
H1796 H 0.03189 0.48676 0.78448 0.0
H1797 H 0.94973 0.44621 0.77217 0.0
H1798 H 0.96096 0.46868 0.77189 0.0
H1799 H 0.95766 0.45882 0.79136 0.0
H1800 H 0.00469 0.43173 0.88369 0.0
H1801 H 0.01677 0.4591 0.88351 0.0
H1802 H 0.96779 0.44455 0.89476 0.0
H1803 H 0.02414 0.48644 0.85311 0.0
H1804 H 0.0347 0.48345 0.86969 0.0
H1805 H 0.03038 0.49976 0.87164 0.0
H1806 H 0.95655 0.4601 0.88682 0.0
H1807 H 0.96394 0.46931 0.86689 0.0
H1808 H 0.97128 0.48219 0.88571 0.0
H1809 H 0.0201 0.59115 0.88127 0.0
H1810 H 0.04126 0.62097 0.87907 0.0
H1811 H 0.04747 0.60761 0.86979 0.0
H1812 H 0.0558 0.61801 0.88989 0.0
H1813 H 0.05051 0.57118 0.88465 0.0
H1814 H 0.0032 0.56403 0.88934 0.0
H1815 H 0.03942 0.53718 0.85641 0.0
H1816 H 0.03866 0.53021 0.87703 0.0
H1817 H 0.05464 0.55094 0.8719 0.0
H1818 H 0.9791 0.53822 0.88242 0.0
H1819 H 0.98057 0.51999 0.8808 0.0
H1820 H 0.98192 0.53074 0.86242 0.0
H1821 H 0.99101 0.49819 0.77112 0.0
H1822 H 0.98565 0.46163 0.81379 0.0
H1823 H 0.98876 0.46402 0.8436 0.0
H1824 H 0.00601 0.5085 0.88535 0.0
H1825 H 0.00972 0.54464 0.84272 0.0
H1826 H 0.00499 0.54167 0.81316 0.0
H1827 H 0.98336 0.40263 0.87495 0.0
H1828 H 0.97783 0.4171 0.86896 0.0
H1829 H 0.96834 0.40446 0.88671 0.0
C1830 C 0.53648 0.56793 0.72087 0.0
C1831 C 0.54816 0.58162 0.73365 0.0
C1832 C 0.5365 0.56632 0.7591 0.0
C1833 C 0.52416 0.56976 0.76132 0.0
C1834 C 0.51112 0.56034 0.77193 0.0
C1835 C 0.51023 0.54704 0.78031 0.0
C1836 C 0.52286 0.54384 0.77847 0.0
C1837 C 0.53598 0.55375 0.76809 0.0
C1838 C 0.49809 0.56438 0.77391 0.0
C1839 C 0.52222 0.52963 0.78701 0.0
C1840 C 0.41008 0.47312 0.7141 0.0
C1841 C 0.41787 0.46797 0.72708 0.0
C1842 C 0.42729 0.4815 0.75464 0.0
C1843 C 0.43904 0.47761 0.75795 0.0
C1844 C 0.45165 0.48729 0.76968 0.0
C1845 C 0.45269 0.50134 0.77795 0.0
C1846 C 0.44063 0.50506 0.7748 0.0
C1847 C 0.42784 0.49479 0.76346 0.0
C1848 C 0.46405 0.48271 0.77295 0.0
C1849 C 0.44152 0.52021 0.7829 0.0
C1850 C 0.41957 0.48704 0.88512 0.0
C1851 C 0.429 0.48049 0.88002 0.0
C1852 C 0.44386 0.49044 0.87199 0.0
C1853 C 0.44913 0.50712 0.86862 0.0
C1854 C 0.43971 0.51378 0.87406 0.0
C1855 C 0.4252 0.5037 0.88253 0.0
C1856 C 0.45391 0.48313 0.86708 0.0
C1857 C 0.4449 0.53151 0.8709 0.0
C1858 C 0.55803 0.61944 0.89001 0.0
C1859 C 0.55065 0.60708 0.90402 0.0
C1860 C 0.53353 0.57952 0.88948 0.0
C1861 C 0.53197 0.56419 0.8859 0.0
C1862 C 0.51859 0.55138 0.87665 0.0
C1863 C 0.50653 0.55408 0.87071 0.0
C1864 C 0.50796 0.56954 0.87431 0.0
C1865 C 0.52139 0.58209 0.88373 0.0
C1866 C 0.51742 0.53502 0.87305 0.0
C1867 C 0.49537 0.57288 0.86802 0.0
C1868 C 0.49549 0.53576 0.7899 0.0
C1869 C 0.48162 0.52376 0.78082 0.0
C1870 C 0.46708 0.51291 0.78875 0.0
C1871 C 0.46636 0.51377 0.80638 0.0
C1872 C 0.45204 0.50286 0.81483 0.0
C1873 C 0.45131 0.50417 0.83214 0.0
C1874 C 0.46499 0.51619 0.84172 0.0
C1875 C 0.46437 0.51764 0.85933 0.0
C1876 C 0.47818 0.52987 0.8684 0.0
C1877 C 0.49261 0.54089 0.86037 0.0
C1878 C 0.49347 0.53962 0.84279 0.0
C1879 C 0.50778 0.55061 0.83431 0.0
C1880 C 0.50848 0.54937 0.817 0.0
C1881 C 0.49492 0.53709 0.8075 0.0
C1882 C 0.48033 0.52596 0.81577 0.0
C1883 C 0.47962 0.52719 0.83345 0.0
C1884 C 0.37738 0.46064 0.88491 0.0
C1885 C 0.39323 0.46137 0.88843 0.0
O1886 O 0.54885 0.57457 0.74822 0.0
O1887 O 0.54697 0.59142 0.8983 0.0
O1888 O 0.40518 0.47773 0.89287 0.0
O1889 O 0.41544 0.47278 0.74285 0.0
H1890 H 0.54384 0.59019 0.73647 0.0
H1891 H 0.52395 0.5609 0.72582 0.0
H1892 H 0.54045 0.55906 0.71806 0.0
H1893 H 0.53607 0.57349 0.70909 0.0
H1894 H 0.52455 0.57971 0.75482 0.0
H1895 H 0.54561 0.55127 0.76642 0.0
H1896 H 0.48677 0.55446 0.76737 0.0
H1897 H 0.50173 0.57652 0.76863 0.0
H1898 H 0.49526 0.56474 0.78732 0.0
H1899 H 0.53252 0.52819 0.78352 0.0
H1900 H 0.5106 0.51777 0.78372 0.0
H1901 H 0.52257 0.53179 0.80077 0.0
H1902 H 0.43114 0.47466 0.7244 0.0
H1903 H 0.41215 0.46979 0.70127 0.0
H1904 H 0.4156 0.48683 0.71519 0.0
H1905 H 0.39676 0.46687 0.71608 0.0
H1906 H 0.43834 0.46704 0.75134 0.0
H1907 H 0.41859 0.49755 0.76085 0.0
H1908 H 0.46646 0.48335 0.78658 0.0
H1909 H 0.47569 0.49176 0.76703 0.0
H1910 H 0.46002 0.46999 0.7678 0.0
H1911 H 0.43256 0.52261 0.77732 0.0
H1912 H 0.45391 0.53144 0.78171 0.0
H1913 H 0.439 0.51833 0.79642 0.0
H1914 H 0.39645 0.45713 0.87669 0.0
H1915 H 0.42485 0.4677 0.88255 0.0
H1916 H 0.41792 0.50866 0.88679 0.0
H1917 H 0.45342 0.48113 0.8533 0.0
H1918 H 0.44943 0.47099 0.87281 0.0
H1919 H 0.46685 0.49189 0.87088 0.0
H1920 H 0.43502 0.53388 0.87347 0.0
H1921 H 0.44873 0.53447 0.85776 0.0
H1922 H 0.45548 0.54012 0.87916 0.0
H1923 H 0.5394 0.60637 0.90842 0.0
H1924 H 0.54917 0.61553 0.8795 0.0
H1925 H 0.5613 0.63206 0.89475 0.0
H1926 H 0.56912 0.62017 0.88512 0.0
H1927 H 0.54137 0.5623 0.89037 0.0
H1928 H 0.52234 0.59385 0.88634 0.0
H1929 H 0.51776 0.53294 0.85935 0.0
H1930 H 0.50562 0.5246 0.87749 0.0
H1931 H 0.52748 0.53465 0.87912 0.0
H1932 H 0.49845 0.58572 0.8715 0.0
H1933 H 0.48335 0.56385 0.87326 0.0
H1934 H 0.49419 0.57104 0.85421 0.0
H1935 H 0.48206 0.52305 0.76728 0.0
H1936 H 0.44118 0.49327 0.80812 0.0
H1937 H 0.43986 0.4956 0.8379 0.0
H1938 H 0.47759 0.53102 0.88188 0.0
H1939 H 0.5186 0.56032 0.84097 0.0
H1940 H 0.51978 0.5582 0.81115 0.0
H1941 H 0.37336 0.46444 0.89632 0.0
H1942 H 0.3676 0.44783 0.88065 0.0
H1943 H 0.37928 0.46922 0.87489 0.0
C1944 C 0.62395 0.7575 0.62927 0.0
C1945 C 0.62916 0.75263 0.61302 0.0
C1946 C 0.63461 0.77488 0.59416 0.0
C1947 C 0.61826 0.76993 0.59157 0.0
C1948 C 0.61422 0.77902 0.58147 0.0
C1949 C 0.62674 0.79333 0.5738 0.0
C1950 C 0.64317 0.7983 0.57628 0.0
C1951 C 0.64686 0.78898 0.58642 0.0
C1952 C 0.59657 0.7734 0.57906 0.0
C1953 C 0.65681 0.81352 0.5683 0.0
C1954 C 0.58894 0.87499 0.60558 0.0
C1955 C 0.60661 0.87961 0.60747 0.0
C1956 C 0.61401 0.86522 0.58665 0.0
C1957 C 0.62722 0.86886 0.57663 0.0
C1958 C 0.62909 0.85616 0.56977 0.0
C1959 C 0.61681 0.83929 0.57215 0.0
C1960 C 0.60349 0.83552 0.58252 0.0
C1961 C 0.60239 0.84857 0.58993 0.0
C1962 C 0.64401 0.86088 0.55963 0.0
C1963 C 0.59016 0.81772 0.58538 0.0
C1964 C 0.59965 0.8497 0.46756 0.0
C1965 C 0.61561 0.85488 0.47235 0.0
C1966 C 0.61895 0.84383 0.47973 0.0
C1967 C 0.60602 0.82733 0.48252 0.0
C1968 C 0.59008 0.82186 0.47686 0.0
C1969 C 0.58715 0.8331 0.46923 0.0
C1970 C 0.63621 0.84994 0.48503 0.0
C1971 C 0.57604 0.80432 0.47939 0.0
C1972 C 0.59696 0.71411 0.4621 0.0
C1973 C 0.60586 0.72837 0.45007 0.0
C1974 C 0.61636 0.75477 0.46649 0.0
C1975 C 0.63057 0.76982 0.47127 0.0
C1976 C 0.62994 0.78277 0.47961 0.0
C1977 C 0.61465 0.78037 0.48368 0.0
C1978 C 0.60018 0.76516 0.47893 0.0
C1979 C 0.60117 0.75257 0.47025 0.0
C1980 C 0.64561 0.79895 0.48419 0.0
C1981 C 0.58366 0.76215 0.48314 0.0
C1982 C 0.62264 0.80333 0.56353 0.0
C1983 C 0.62149 0.81599 0.57168 0.0
C1984 C 0.61739 0.82572 0.56288 0.0
C1985 C 0.61441 0.82282 0.54543 0.0
C1986 C 0.60976 0.83201 0.53626 0.0
C1987 C 0.60786 0.82982 0.51899 0.0
C1988 C 0.61026 0.81817 0.51022 0.0
C1989 C 0.60896 0.81633 0.49258 0.0
C1990 C 0.61067 0.80409 0.4843 0.0
C1991 C 0.61371 0.7936 0.49319 0.0
C1992 C 0.61555 0.79561 0.51081 0.0
C1993 C 0.61887 0.78547 0.52014 0.0
C1994 C 0.62115 0.78792 0.53741 0.0
C1995 C 0.62 0.80046 0.54604 0.0
C1996 C 0.6161 0.81043 0.53694 0.0
C1997 C 0.61396 0.80805 0.51931 0.0
C1998 C 0.58991 0.88059 0.47101 0.0
C1999 C 0.60316 0.87711 0.4663 0.0
O2000 O 0.63916 0.76665 0.60405 0.0
O2001 O 0.61791 0.74275 0.45851 0.0
O2002 O 0.59586 0.86039 0.46143 0.0
O2003 O 0.61249 0.87802 0.59219 0.0
H2004 H 0.6181 0.74372 0.6054 0.0
H2005 H 0.61678 0.76316 0.62653 0.0
H2006 H 0.63477 0.76671 0.63701 0.0
H2007 H 0.61622 0.74629 0.6366 0.0
H2008 H 0.60854 0.7591 0.59742 0.0
H2009 H 0.65942 0.79272 0.58844 0.0
H2010 H 0.59462 0.78329 0.58406 0.0
H2011 H 0.5882 0.76168 0.58541 0.0
H2012 H 0.59338 0.77142 0.56552 0.0
H2013 H 0.66897 0.81579 0.57152 0.0
H2014 H 0.65649 0.82467 0.57239 0.0
H2015 H 0.65514 0.812 0.55451 0.0
H2016 H 0.60692 0.87114 0.6165 0.0
H2017 H 0.58455 0.87709 0.61772 0.0
H2018 H 0.58087 0.86164 0.60164 0.0
H2019 H 0.58782 0.88252 0.59606 0.0
H2020 H 0.63617 0.88179 0.57428 0.0
H2021 H 0.59215 0.84568 0.59772 0.0
H2022 H 0.64099 0.86011 0.54616 0.0
H2023 H 0.64828 0.85228 0.5616 0.0
H2024 H 0.65414 0.87384 0.56285 0.0
H2025 H 0.57974 0.81689 0.59216 0.0
H2026 H 0.59511 0.81175 0.59285 0.0
H2027 H 0.58561 0.8105 0.57327 0.0
H2028 H 0.61084 0.88015 0.47777 0.0
H2029 H 0.62544 0.86757 0.47043 0.0
H2030 H 0.57494 0.82917 0.46517 0.0
H2031 H 0.63735 0.85161 0.49885 0.0
H2032 H 0.64514 0.86203 0.4796 0.0
H2033 H 0.63935 0.8406 0.48121 0.0
H2034 H 0.56423 0.80228 0.47508 0.0
H2035 H 0.57518 0.80153 0.49282 0.0
H2036 H 0.57822 0.79536 0.47237 0.0
H2037 H 0.59673 0.73055 0.44444 0.0
H2038 H 0.58819 0.7023 0.45507 0.0
H2039 H 0.59003 0.71688 0.47131 0.0
H2040 H 0.60567 0.71231 0.46917 0.0
H2041 H 0.64223 0.77143 0.46831 0.0
H2042 H 0.59001 0.74102 0.46671 0.0
H2043 H 0.64732 0.80039 0.49797 0.0
H2044 H 0.64505 0.80965 0.48001 0.0
H2045 H 0.65637 0.79949 0.47856 0.0
H2046 H 0.57363 0.74917 0.4798 0.0
H2047 H 0.58162 0.77083 0.47628 0.0
H2048 H 0.58314 0.76472 0.49671 0.0
H2049 H 0.62385 0.81832 0.58504 0.0
H2050 H 0.6077 0.84114 0.54228 0.0
H2051 H 0.6045 0.83744 0.51262 0.0
H2052 H 0.60953 0.80264 0.47078 0.0
H2053 H 0.61994 0.77564 0.51419 0.0
H2054 H 0.62389 0.77989 0.54391 0.0
H2055 H 0.59546 0.89394 0.47498 0.0
H2056 H 0.58282 0.87287 0.48158 0.0
H2057 H 0.58141 0.8775 0.46029 0.0
C2058 C 0.12206 0.73994 0.64266 0.0
C2059 C 0.11656 0.74678 0.62901 0.0
C2060 C 0.1309 0.75606 0.60286 0.0
C2061 C 0.12802 0.76869 0.59957 0.0
C2062 C 0.13822 0.78148 0.58895 0.0
C2063 C 0.15171 0.78173 0.58171 0.0
C2064 C 0.15439 0.76876 0.58477 0.0
C2065 C 0.1437 0.75588 0.59504 0.0
C2066 C 0.13476 0.79487 0.58572 0.0
C2067 C 0.1688 0.76872 0.57759 0.0
C2068 C 0.25937 0.9067 0.61809 0.0
C2069 C 0.24929 0.88884 0.61231 0.0
C2070 C 0.22211 0.86889 0.60063 0.0
C2071 C 0.22556 0.85669 0.59568 0.0
C2072 C 0.21401 0.8421 0.58665 0.0
C2073 C 0.19877 0.83972 0.58235 0.0
C2074 C 0.19518 0.85186 0.5875 0.0
C2075 C 0.2069 0.86627 0.59665 0.0
C2076 C 0.21814 0.82929 0.58155 0.0
C2077 C 0.17903 0.84968 0.58315 0.0
C2078 C 0.22966 0.86073 0.47598 0.0
C2079 C 0.23193 0.8491 0.48384 0.0
C2080 C 0.21904 0.83567 0.49193 0.0
C2081 C 0.20362 0.83391 0.49237 0.0
C2082 C 0.20122 0.84543 0.48429 0.0
C2083 C 0.21428 0.85865 0.47613 0.0
C2084 C 0.22197 0.82346 0.50024 0.0
C2085 C 0.18495 0.84393 0.48456 0.0
C2086 C 0.10328 0.70196 0.46969 0.0
C2087 C 0.10839 0.72006 0.46762 0.0
C2088 C 0.13506 0.74508 0.47432 0.0
C2089 C 0.15097 0.74989 0.47852 0.0
C2090 C 0.1615 0.76514 0.48715 0.0
C2091 C 0.15606 0.77603 0.49128 0.0
C2092 C 0.14022 0.77161 0.48629 0.0
C2093 C 0.12983 0.75611 0.47794 0.0
C2094 C 0.17835 0.76948 0.49211 0.0
C2095 C 0.13425 0.78319 0.48996 0.0
C2096 C 0.16351 0.79604 0.57179 0.0
C2097 C 0.1749 0.81081 0.58055 0.0
C2098 C 0.18672 0.82468 0.57219 0.0
C2099 C 0.18731 0.82388 0.55456 0.0
C2100 C 0.19908 0.8376 0.54577 0.0
C2101 C 0.19992 0.83653 0.52847 0.0
C2102 C 0.18902 0.8217 0.51928 0.0
C2103 C 0.19019 0.8203 0.50175 0.0
C2104 C 0.17904 0.80546 0.49296 0.0
C2105 C 0.1668 0.79177 0.50124 0.0
C2106 C 0.16555 0.79287 0.5188 0.0
C2107 C 0.15353 0.77928 0.52759 0.0
C2108 C 0.15262 0.78039 0.5449 0.0
C2109 C 0.16388 0.79501 0.55414 0.0
C2110 C 0.17593 0.80895 0.54552 0.0
C2111 C 0.17676 0.80788 0.52784 0.0
C2112 C 0.26642 0.88833 0.48494 0.0
C2113 C 0.25827 0.87961 0.46811 0.0
O2114 O 0.12166 0.74403 0.61368 0.0
O2115 O 0.12521 0.72978 0.46677 0.0
O2116 O 0.24186 0.87415 0.46826 0.0
O2117 O 0.23312 0.88335 0.60907 0.0
H2118 H 0.12251 0.76042 0.63201 0.0
H2119 H 0.13555 0.74641 0.64281 0.0
H2120 H 0.11682 0.72635 0.64036 0.0
H2121 H 0.1182 0.74207 0.65511 0.0
H2122 H 0.1178 0.76854 0.6053 0.0
H2123 H 0.14568 0.74595 0.59758 0.0
H2124 H 0.14409 0.80669 0.59232 0.0
H2125 H 0.12256 0.79157 0.59016 0.0
H2126 H 0.1355 0.79713 0.57216 0.0
H2127 H 0.17026 0.75891 0.58282 0.0
H2128 H 0.18018 0.78103 0.58011 0.0
H2129 H 0.16721 0.76647 0.56384 0.0
H2130 H 0.25074 0.88009 0.61989 0.0
H2131 H 0.26333 0.90654 0.63122 0.0
H2132 H 0.25065 0.91058 0.62204 0.0
H2133 H 0.27594 0.91786 0.59879 0.0
H2134 H 0.23723 0.85846 0.59878 0.0
H2135 H 0.20433 0.87571 0.60055 0.0
H2136 H 0.20855 0.81685 0.58579 0.0
H2137 H 0.23008 0.83246 0.58678 0.0
H2138 H 0.2185 0.82831 0.56772 0.0
H2139 H 0.17826 0.86045 0.58773 0.0
H2140 H 0.16903 0.83821 0.5887 0.0
H2141 H 0.17707 0.84807 0.56939 0.0
H2142 H 0.25967 0.86881 0.46565 0.0
H2143 H 0.24368 0.85039 0.48384 0.0
H2144 H 0.2126 0.86762 0.47 0.0
H2145 H 0.22101 0.82461 0.51398 0.0
H2146 H 0.23416 0.82563 0.49746 0.0
H2147 H 0.21253 0.81049 0.49608 0.0
H2148 H 0.18515 0.85415 0.47802 0.0
H2149 H 0.18128 0.84413 0.49769 0.0
H2150 H 0.17554 0.83181 0.4785 0.0
H2151 H 0.10417 0.72388 0.4789 0.0
H2152 H 0.08984 0.69387 0.47075 0.0
H2153 H 0.10896 0.70105 0.48126 0.0
H2154 H 0.10723 0.69731 0.45887 0.0
H2155 H 0.15495 0.74138 0.47542 0.0
H2156 H 0.11769 0.75269 0.47419 0.0
H2157 H 0.18045 0.77261 0.50573 0.0
H2158 H 0.18756 0.78065 0.48551 0.0
H2159 H 0.18029 0.75914 0.48902 0.0
H2160 H 0.12234 0.77874 0.48373 0.0
H2161 H 0.1433 0.79587 0.48581 0.0
H2162 H 0.13289 0.78422 0.50365 0.0
H2163 H 0.17468 0.81147 0.5941 0.0
H2164 H 0.20786 0.8493 0.55217 0.0
H2165 H 0.20931 0.84747 0.5224 0.0
H2166 H 0.18012 0.80441 0.47954 0.0
H2167 H 0.1447 0.7676 0.52119 0.0
H2168 H 0.14308 0.76956 0.55097 0.0
H2169 H 0.26502 0.89909 0.48769 0.0
H2170 H 0.2796 0.89288 0.48473 0.0
H2171 H 0.26086 0.87956 0.49519 0.0
C2172 C 0.14778 0.38959 0.63155 0.0
C2173 C 0.13711 0.38388 0.61566 0.0
C2174 C 0.15277 0.37747 0.59578 0.0
C2175 C 0.16516 0.39409 0.5931 0.0
C2176 C 0.17849 0.39772 0.58306 0.0
C2177 C 0.1795 0.38452 0.57563 0.0
C2178 C 0.16699 0.36781 0.57813 0.0
C2179 C 0.15374 0.36453 0.5881 0.0
C2180 C 0.1916 0.41568 0.58054 0.0
C2181 C 0.16776 0.35344 0.57047 0.0
C2182 C 0.27757 0.41345 0.63987 0.0
C2183 C 0.26898 0.39923 0.62661 0.0
C2184 C 0.26039 0.40279 0.59953 0.0
C2185 C 0.24744 0.38649 0.59565 0.0
C2186 C 0.23514 0.38346 0.58423 0.0
C2187 C 0.23567 0.39707 0.57687 0.0
C2188 C 0.24893 0.41353 0.58062 0.0
C2189 C 0.26135 0.4161 0.59161 0.0
C2190 C 0.22142 0.36572 0.58031 0.0
C2191 C 0.24977 0.42845 0.57349 0.0
C2192 C 0.2686 0.41215 0.47088 0.0
C2193 C 0.25726 0.3954 0.47415 0.0
C2194 C 0.24246 0.39077 0.48184 0.0
C2195 C 0.23907 0.40317 0.48651 0.0
C2196 C 0.25023 0.41995 0.48264 0.0
C2197 C 0.26478 0.42417 0.47468 0.0
C2198 C 0.23057 0.37268 0.48524 0.0
C2199 C 0.24696 0.43349 0.48726 0.0
C2200 C 0.12907 0.39552 0.47742 0.0
C2201 C 0.13534 0.3937 0.46034 0.0
C2202 C 0.15501 0.38623 0.46871 0.0
C2203 C 0.15714 0.37287 0.47017 0.0
C2204 C 0.17078 0.3749 0.47855 0.0
C2205 C 0.18266 0.39078 0.48553 0.0
C2206 C 0.1809 0.40451 0.48363 0.0
C2207 C 0.16709 0.40211 0.47526 0.0
C2208 C 0.17233 0.36002 0.48028 0.0
C2209 C 0.19348 0.42166 0.49075 0.0
C2210 C 0.19402 0.38819 0.56587 0.0
C2211 C 0.20761 0.39077 0.57466 0.0
C2212 C 0.22173 0.39419 0.56642 0.0
C2213 C 0.22238 0.39507 0.54881 0.0
C2214 C 0.2363 0.39828 0.54005 0.0
C2215 C 0.23697 0.3996 0.52279 0.0
C2216 C 0.22362 0.3974 0.51356 0.0
C2217 C 0.22419 0.39876 0.496 0.0
C2218 C 0.21066 0.39643 0.48723 0.0
C2219 C 0.19651 0.39285 0.49553 0.0
C2220 C 0.19572 0.39151 0.51308 0.0
C2221 C 0.18169 0.38798 0.52183 0.0
C2222 C 0.18109 0.38689 0.53911 0.0
C2223 C 0.19448 0.3892 0.54831 0.0
C2224 C 0.20873 0.39267 0.53975 0.0
C2225 C 0.20934 0.39381 0.52211 0.0
C2226 C 0.31005 0.42333 0.46951 0.0
C2227 C 0.29219 0.40974 0.46612 0.0
O2228 O 0.13982 0.37329 0.60571 0.0
O2229 O 0.14109 0.38311 0.4611 0.0
O2230 O 0.28333 0.41719 0.46416 0.0
O2231 O 0.27202 0.40602 0.61101 0.0
H2232 H 0.13999 0.39496 0.6086 0.0
H2233 H 0.14542 0.39787 0.63962 0.0
H2234 H 0.14525 0.37868 0.6387 0.0
H2235 H 0.16087 0.39668 0.62837 0.0
H2236 H 0.16467 0.40432 0.59885 0.0
H2237 H 0.14414 0.35177 0.59019 0.0
H2238 H 0.20324 0.41841 0.58617 0.0
H2239 H 0.18853 0.42453 0.58627 0.0
H2240 H 0.19357 0.41785 0.56698 0.0
H2241 H 0.15713 0.34115 0.57377 0.0
H2242 H 0.17907 0.35433 0.57476 0.0
H2243 H 0.16821 0.3541 0.55666 0.0
H2244 H 0.25569 0.39246 0.62921 0.0
H2245 H 0.275 0.40849 0.6526 0.0
H2246 H 0.27311 0.42203 0.63899 0.0
H2247 H 0.29095 0.42065 0.63803 0.0
H2248 H 0.24696 0.37617 0.60156 0.0
H2249 H 0.27152 0.42863 0.59466 0.0
H2250 H 0.21875 0.36356 0.56666 0.0
H2251 H 0.21025 0.36347 0.58664 0.0
H2252 H 0.22425 0.35654 0.58462 0.0
H2253 H 0.25962 0.44039 0.57948 0.0
H2254 H 0.238 0.42765 0.57512 0.0
H2255 H 0.25208 0.42865 0.55991 0.0
H2256 H 0.28805 0.40201 0.47734 0.0
H2257 H 0.2599 0.38593 0.4707 0.0
H2258 H 0.27352 0.43702 0.47186 0.0
H2259 H 0.22987 0.37104 0.49892 0.0
H2260 H 0.23416 0.36435 0.47924 0.0
H2261 H 0.2182 0.36876 0.48063 0.0
H2262 H 0.25723 0.44605 0.4841 0.0
H2263 H 0.24471 0.43356 0.50087 0.0
H2264 H 0.23582 0.43092 0.48056 0.0
H2265 H 0.14529 0.40616 0.45645 0.0
H2266 H 0.12415 0.40372 0.47668 0.0
H2267 H 0.13906 0.40122 0.48694 0.0
H2268 H 0.11931 0.38315 0.48165 0.0
H2269 H 0.14784 0.3607 0.46499 0.0
H2270 H 0.16582 0.41268 0.47406 0.0
H2271 H 0.17258 0.35773 0.49372 0.0
H2272 H 0.18399 0.36262 0.47488 0.0
H2273 H 0.16214 0.34854 0.47395 0.0
H2274 H 0.19087 0.43126 0.48736 0.0
H2275 H 0.20573 0.42533 0.48618 0.0
H2276 H 0.19386 0.42145 0.50458 0.0
H2277 H 0.20719 0.39015 0.58817 0.0
H2278 H 0.24688 0.39994 0.54647 0.0
H2279 H 0.2481 0.40233 0.51677 0.0
H2280 H 0.21121 0.39756 0.47379 0.0
H2281 H 0.171 0.38608 0.51542 0.0
H2282 H 0.17 0.38423 0.54517 0.0
H2283 H 0.31505 0.43191 0.45903 0.0
H2284 H 0.31742 0.41765 0.4712 0.0
H2285 H 0.31116 0.43071 0.48112 0.0
H2286 H 0.02344 0.37418 0.0524 0.0
H2287 H 0.97115 0.34821 0.04622 0.0
H2288 H 0.02238 0.39076 0.07583 0.0
H2289 H 0.97014 0.36512 0.06937 0.0
H2290 H 0.97255 0.38879 0.12082 0.0
H2291 H 0.97375 0.37062 0.09913 0.0
H2292 H 0.01758 0.41293 0.0804 0.0
H2293 H 0.01662 0.43091 0.10244 0.0
C2294 C 0.0117 0.37198 0.05606 0.0
C2295 C 0.99738 0.35992 0.04739 0.0
C2296 C 0.01111 0.38157 0.06943 0.0
C2297 C 0.9962 0.3794 0.07439 0.0
C2298 C 0.98182 0.36702 0.06599 0.0
C2299 C 0.9824 0.35736 0.05267 0.0
C2300 C 0.98238 0.39418 0.11199 0.0
C2301 C 0.99425 0.41132 0.11305 0.0
C2302 C 0.98305 0.3838 0.09954 0.0
C2303 C 0.99569 0.39032 0.08794 0.0
C2304 C 0.00775 0.40744 0.08921 0.0
C2305 C 0.00711 0.4178 0.10171 0.0
H2306 H 0.67003 0.62669 0.07077 0.0
H2307 H 0.62665 0.60949 0.04068 0.0
H2308 H 0.65408 0.60464 0.09017 0.0
H2309 H 0.61081 0.58754 0.06006 0.0
H2310 H 0.58604 0.56583 0.11018 0.0
H2311 H 0.60219 0.58681 0.08995 0.0
H2312 H 0.63812 0.57317 0.09094 0.0
H2313 H 0.62185 0.55201 0.11111 0.0
C2314 C 0.65714 0.61816 0.06823 0.0
C2315 C 0.64961 0.61988 0.0542 0.0
C2316 C 0.64803 0.6055 0.0793 0.0
C2317 C 0.63119 0.59444 0.07665 0.0
C2318 C 0.62373 0.59601 0.06251 0.0
C2319 C 0.63284 0.60854 0.05137 0.0
C2320 C 0.59725 0.56711 0.10587 0.0
C2321 C 0.60246 0.55693 0.11186 0.0
C2322 C 0.6065 0.57913 0.09432 0.0
C2323 C 0.62134 0.58151 0.08877 0.0
C2324 C 0.62673 0.5716 0.09501 0.0
C2325 C 0.61738 0.55944 0.10643 0.0
H2326 H 0.36265 0.02523 0.08003 0.0
H2327 H 0.39248 0.02366 0.04056 0.0
H2328 H 0.38043 0.02431 0.10076 0.0
H2329 H 0.41027 0.02288 0.06132 0.0
H2330 H 0.42202 0.99705 0.10184 0.0
H2331 H 0.40676 0.00147 0.08083 0.0
H2332 H 0.40852 0.0402 0.11288 0.0
H2333 H 0.4238 0.03573 0.13394 0.0
C2334 C 0.37313 0.02495 0.07578 0.0
C2335 C 0.37608 0.02441 0.05863 0.0
C2336 C 0.38334 0.02448 0.08767 0.0
C2337 C 0.39666 0.02338 0.08265 0.0
C2338 C 0.39996 0.02348 0.06554 0.0
C2339 C 0.38982 0.02405 0.05366 0.0
C2340 C 0.41938 0.00669 0.10427 0.0
C2341 C 0.42443 0.01633 0.11936 0.0
C2342 C 0.41067 0.00924 0.09224 0.0
C2343 C 0.40658 0.02129 0.09515 0.0
C2344 C 0.41149 0.03082 0.1103 0.0
C2345 C 0.42031 0.02835 0.12229 0.0
H2346 H 0.38908 0.99439 0.99327 0.0
H2347 H 0.35693 0.0004 0.96143 0.0
H2348 H 0.4051 0.99583 0.96905 0.0
H2349 H 0.37298 0.00181 0.93724 0.0
H2350 H 0.40057 0.99334 0.89542 0.0
H2351 H 0.38236 0.9858 0.91927 0.0
H2352 H 0.42319 0.02047 0.95127 0.0
H2353 H 0.44127 0.02813 0.92753 0.0
C2354 C 0.38524 0.9957 0.98108 0.0
C2355 C 0.37183 0.99746 0.9793 0.0
C2356 C 0.39447 0.99661 0.96724 0.0
C2357 C 0.39036 0.99909 0.95132 0.0
C2358 C 0.37637 0.99981 0.94936 0.0
C2359 C 0.36723 0.99907 0.96323 0.0
C2360 C 0.40565 0.99911 0.90763 0.0
C2361 C 0.42238 0.01105 0.90967 0.0
C2362 C 0.39524 0.99487 0.92122 0.0
C2363 C 0.4014 0.00244 0.93712 0.0
C2364 C 0.41817 0.01419 0.93922 0.0
C2365 C 0.42852 0.01858 0.92562 0.0
H2366 H 0.97843 0.36109 0.97175 0.0
H2367 H 0.03042 0.38648 0.965 0.0
H2368 H 0.97648 0.37699 0.95005 0.0
H2369 H 0.02853 0.40294 0.94345 0.0
H2370 H 0.01457 0.41445 0.89279 0.0
H2371 H 0.01829 0.40008 0.91528 0.0
H2372 H 0.9829 0.40418 0.94459 0.0
H2373 H 0.9787 0.41778 0.92186 0.0
C2374 C 0.9895 0.37021 0.96573 0.0
C2375 C 0.0046 0.37253 0.97012 0.0
C2376 C 0.98839 0.37944 0.95334 0.0
C2377 C 0.00236 0.39136 0.94507 0.0
C2378 C 0.01751 0.39375 0.94947 0.0
C2379 C 0.01861 0.38439 0.96186 0.0
C2380 C 0.00775 0.4124 0.90414 0.0
C2381 C 0.99658 0.41751 0.90568 0.0
C2382 C 0.00992 0.40426 0.91705 0.0
C2383 C 0.00091 0.40098 0.93176 0.0
C2384 C 0.98989 0.40629 0.93335 0.0
C2385 C 0.98761 0.41428 0.9204 0.0
H2386 H 0.6377 0.65072 0.96771 0.0
H2387 H 0.59773 0.62631 0.0018 0.0
H2388 H 0.6184 0.64289 0.9446 0.0
H2389 H 0.57844 0.61834 0.97859 0.0
H2390 H 0.54951 0.62069 0.93462 0.0
H2391 H 0.569 0.63041 0.95801 0.0
H2392 H 0.59831 0.61668 0.92935 0.0
H2393 H 0.5789 0.60709 0.90597 0.0
C2394 C 0.6248 0.64376 0.9703 0.0
C2395 C 0.61925 0.63908 0.9866 0.0
C2396 C 0.61375 0.63919 0.95703 0.0
C2397 C 0.5969 0.62991 0.95976 0.0
C2398 C 0.59135 0.6256 0.97612 0.0
C2399 C 0.60241 0.63011 0.9894 0.0
C2400 C 0.5601 0.61972 0.93337 0.0
C2401 C 0.56262 0.61298 0.91856 0.0
C2402 C 0.57123 0.62524 0.94676 0.0
C2403 C 0.58518 0.6243 0.94552 0.0
C2404 C 0.58777 0.61774 0.93062 0.0
C2405 C 0.57662 0.61214 0.91729 0.0
H2406 H 0.01485 0.62055 0.99286 0.0
H2407 H 0.00512 0.65028 0.96132 0.0
H2408 H 0.02099 0.60898 0.9682 0.0
H2409 H 0.01151 0.63893 0.93678 0.0
H2410 H 0.00538 0.60137 0.89567 0.0
H2411 H 0.99945 0.61235 0.92094 0.0
H2412 H 0.04102 0.61685 0.94594 0.0
H2413 H 0.04676 0.6056 0.92068 0.0
C2414 C 0.01416 0.62473 0.9807 0.0
C2415 C 0.00942 0.63628 0.97906 0.0
C2416 C 0.01773 0.61814 0.96658 0.0
C2417 C 0.0166 0.62293 0.95052 0.0
C2418 C 0.0122 0.63475 0.94894 0.0
C2419 C 0.00866 0.64135 0.96304 0.0
C2420 C 0.01311 0.60452 0.90664 0.0
C2421 C 0.02637 0.60241 0.9063 0.0
C2422 C 0.00982 0.61096 0.92106 0.0
C2423 C 0.01981 0.61554 0.93543 0.0
C2424 C 0.03299 0.61326 0.93514 0.0
C2425 C 0.03628 0.60684 0.9207 0.0
H2426 H 0.39451 0.40553 0.97279 0.0
H2427 H 0.34424 0.38204 0.95681 0.0
H2428 H 0.40269 0.42557 0.95077 0.0
H2429 H 0.35251 0.40183 0.93465 0.0
H2430 H 0.37784 0.42758 0.88572 0.0
H2431 H 0.37111 0.40796 0.90782 0.0
H2432 H 0.39602 0.4491 0.94409 0.0
H2433 H 0.40233 0.46875 0.92216 0.0
C2434 C 0.38524 0.40462 0.96456 0.0
C2435 C 0.36874 0.39223 0.96652 0.0
C2436 C 0.38991 0.4161 0.95203 0.0
C2437 C 0.37822 0.41515 0.94103 0.0
C2438 C 0.36175 0.40272 0.94292 0.0
C2439 C 0.35704 0.39147 0.95564 0.0
C2440 C 0.382 0.43242 0.89839 0.0
C2441 C 0.39074 0.4497 0.90212 0.0
C2442 C 0.3781 0.42122 0.91101 0.0
C2443 C 0.38307 0.42707 0.9276 0.0
C2444 C 0.39217 0.44433 0.93134 0.0
C2445 C 0.3958 0.45555 0.91877 0.0
H2446 H 0.64175 0.98615 0.9376 0.0
H2447 H 0.60705 0.97912 0.97558 0.0
H2448 H 0.62224 0.98212 0.916 0.0
H2449 H 0.58766 0.97536 0.95397 0.0
H2450 H 0.5518 0.95496 0.90923 0.0
H2451 H 0.57047 0.95657 0.93067 0.0
H2452 H 0.61074 0.99792 0.90633 0.0
H2453 H 0.59209 0.99612 0.88483 0.0
C2454 C 0.62993 0.98364 0.94135 0.0
C2455 C 0.626 0.98305 0.95832 0.0
C2456 C 0.6188 0.98145 0.92897 0.0
C2457 C 0.60347 0.97858 0.93329 0.0
C2458 C 0.59933 0.97743 0.95023 0.0
C2459 C 0.61047 0.97966 0.96262 0.0
C2460 C 0.56463 0.96447 0.90859 0.0
C2461 C 0.57047 0.97563 0.89556 0.0
C2462 C 0.57531 0.9654 0.92084 0.0
C2463 C 0.59208 0.97738 0.9202 0.0
C2464 C 0.59791 0.98842 0.90707 0.0
C2465 C 0.58724 0.98752 0.89486 0.0
H2466 H 0.64381 0.00899 0.05585 0.0
H2467 H 0.61701 0.02318 0.02522 0.0
H2468 H 0.63344 0.0154 0.0809 0.0
H2469 H 0.60642 0.02933 0.05033 0.0
H2470 H 0.60561 0.05555 0.10007 0.0
H2471 H 0.61549 0.04923 0.07442 0.0
H2472 H 0.60782 0.00445 0.09552 0.0
H2473 H 0.5982 0.01094 0.1212 0.0
C2474 C 0.63571 0.01349 0.05445 0.0
C2475 C 0.63124 0.01557 0.03852 0.0
C2476 C 0.62966 0.01704 0.06882 0.0
C2477 C 0.61902 0.02278 0.06762 0.0
C2478 C 0.6147 0.02506 0.05169 0.0
C2479 C 0.62073 0.02148 0.0373 0.0
C2480 C 0.60584 0.04425 0.09909 0.0
C2481 C 0.60092 0.0336 0.11252 0.0
C2482 C 0.61148 0.04062 0.08442 0.0
C2483 C 0.61246 0.02635 0.08294 0.0
C2484 C 0.6074 0.01564 0.09634 0.0
C2485 C 0.60175 0.01926 0.11097 0.0
H2486 H 0.98522 0.64987 0.07792 0.0
H2487 H 0.97291 0.61261 0.03814 0.0
H2488 H 0.98142 0.62985 0.09838 0.0
H2489 H 0.9694 0.59269 0.05861 0.0
H2490 H 0.94972 0.55695 0.10206 0.0
H2491 H 0.95207 0.57632 0.08134 0.0
H2492 H 0.99518 0.61617 0.10711 0.0
H2493 H 0.99261 0.59687 0.1279 0.0
C2494 C 0.98165 0.6374 0.07353 0.0
C2495 C 0.97941 0.63287 0.05638 0.0
C2496 C 0.97958 0.62595 0.08526 0.0
C2497 C 0.97524 0.6097 0.08013 0.0
C2498 C 0.97262 0.60505 0.063 0.0
C2499 C 0.97469 0.6165 0.05126 0.0
C2500 C 0.95977 0.56982 0.10314 0.0
C2501 C 0.97113 0.57536 0.11643 0.0
C2502 C 0.96114 0.58091 0.0913 0.0
C2503 C 0.97381 0.5978 0.09258 0.0
C2504 C 0.98516 0.60329 0.10587 0.0
C2505 C 0.98379 0.59222 0.11769 0.0
H2506 H 0.3966 0.4025 0.03562 0.0
H2507 H 0.36552 0.35031 0.04583 0.0
H2508 H 0.41505 0.40607 0.05847 0.0
H2509 H 0.38377 0.35401 0.06878 0.0
H2510 H 0.40979 0.3737 0.12044 0.0
H2511 H 0.3923 0.37185 0.09749 0.0
H2512 H 0.43346 0.3933 0.06479 0.0
H2513 H 0.45091 0.39474 0.08757 0.0
C2514 C 0.39371 0.39182 0.04274 0.0
C2515 C 0.37963 0.37612 0.03895 0.0
C2516 C 0.40428 0.39386 0.05574 0.0
C2517 C 0.40074 0.38033 0.06538 0.0
C2518 C 0.38668 0.36466 0.06159 0.0
C2519 C 0.3763 0.36254 0.04841 0.0
C2520 C 0.41512 0.37819 0.1084 0.0
C2521 C 0.43174 0.38454 0.1059 0.0
C2522 C 0.40513 0.37705 0.09529 0.0
C2523 C 0.41158 0.38244 0.07943 0.0
C2524 C 0.42826 0.3892 0.07696 0.0
C2525 C 0.43822 0.39005 0.09001 0.0
H2526 H 0.65812 0.72863 0.36106 0.0
H2527 H 0.64467 0.68269 0.38414 0.0
H2528 H 0.6444 0.73483 0.38318 0.0
H2529 H 0.63106 0.689 0.40625 0.0
H2530 H 0.62802 0.71869 0.45249 0.0
H2531 H 0.64072 0.71174 0.42991 0.0
H2532 H 0.61513 0.72233 0.39361 0.0
H2533 H 0.60205 0.72888 0.41619 0.0
C2534 C 0.65219 0.71983 0.3708 0.0
C2535 C 0.65248 0.70517 0.37085 0.0
C2536 C 0.64429 0.72336 0.3834 0.0
C2537 C 0.63671 0.7124 0.3964 0.0
C2538 C 0.63693 0.69772 0.39643 0.0
C2539 C 0.64465 0.69408 0.38373 0.0
C2540 C 0.62486 0.71924 0.4397 0.0
C2541 C 0.61367 0.72389 0.43612 0.0
C2542 C 0.63217 0.71532 0.4268 0.0
C2543 C 0.62879 0.71638 0.41005 0.0
C2544 C 0.61793 0.7214 0.40643 0.0
C2545 C 0.6104 0.72506 0.41934 0.0
H2546 H 0.33088 0.95356 0.40323 0.0
H2547 H 0.28535 0.94511 0.38425 0.0
H2548 H 0.31621 0.9333 0.42449 0.0
H2549 H 0.27071 0.92472 0.40541 0.0
H2550 H 0.25314 0.90386 0.45766 0.0
H2551 H 0.26754 0.92397 0.43612 0.0
H2552 H 0.29707 0.90302 0.42646 0.0
H2553 H 0.28273 0.883 0.44807 0.0
C2554 C 0.31775 0.94736 0.40356 0.0
C2555 C 0.30929 0.95095 0.39204 0.0
C2556 C 0.30934 0.93568 0.41568 0.0
C2557 C 0.2923 0.92739 0.41661 0.0
C2558 C 0.28385 0.93102 0.40512 0.0
C2559 C 0.29224 0.94264 0.39294 0.0
C2560 C 0.26256 0.90342 0.45076 0.0
C2561 C 0.26656 0.8916 0.45425 0.0
C2562 C 0.2708 0.91493 0.43844 0.0
C2563 C 0.28338 0.91503 0.42954 0.0
C2564 C 0.2875 0.90332 0.43317 0.0
C2565 C 0.27921 0.89177 0.44542 0.0
H2566 H 0.04041 0.33798 0.40969 0.0
H2567 H 0.07202 0.37311 0.37361 0.0
H2568 H 0.06328 0.34911 0.42937 0.0
H2569 H 0.09496 0.38395 0.39311 0.0
H2570 H 0.12837 0.41087 0.4388 0.0
H2571 H 0.10545 0.39998 0.41914 0.0
H2572 H 0.0882 0.34991 0.43367 0.0
H2573 H 0.11086 0.36091 0.45366 0.0
C2574 C 0.05224 0.34803 0.40593 0.0
C2575 C 0.05437 0.35466 0.39008 0.0
C2576 C 0.06539 0.35435 0.41717 0.0
C2577 C 0.08099 0.3674 0.41282 0.0
C2578 C 0.08308 0.37404 0.39697 0.0
C2579 C 0.06993 0.36776 0.38575 0.0
C2580 C 0.11975 0.39753 0.43764 0.0
C2581 C 0.12162 0.38672 0.44748 0.0
C2582 C 0.10664 0.39128 0.42636 0.0
C2583 C 0.09501 0.37405 0.42474 0.0
C2584 C 0.09684 0.36325 0.43469 0.0
C2585 C 0.10992 0.36952 0.446 0.0
H2586 H 0.03095 0.32574 0.29748 0.0
H2587 H 0.04918 0.30611 0.33294 0.0
H2588 H 0.03888 0.314 0.27453 0.0
H2589 H 0.0574 0.29464 0.30995 0.0
H2590 H 0.05492 0.2623 0.26435 0.0
H2591 H 0.04598 0.27311 0.28738 0.0
H2592 H 0.06368 0.31869 0.26167 0.0
H2593 H 0.07234 0.30773 0.23857 0.0
C2594 C 0.03666 0.31893 0.30039 0.0
C2595 C 0.03945 0.31688 0.31706 0.0
C2596 C 0.04129 0.31228 0.28722 0.0
C2597 C 0.04884 0.30345 0.2904 0.0
C2598 C 0.05145 0.30123 0.30707 0.0
C2599 C 0.04681 0.30787 0.32025 0.0
C2600 C 0.05696 0.27466 0.2637 0.0
C2601 C 0.06454 0.28428 0.24979 0.0
C2602 C 0.05189 0.28087 0.27689 0.0
C2603 C 0.05416 0.29678 0.27638 0.0
C2604 C 0.0616 0.30633 0.26238 0.0
C2605 C 0.06669 0.30013 0.24922 0.0
H2606 H 0.66528 0.70037 0.2816 0.0
H2607 H 0.70564 0.73093 0.31586 0.0
H2608 H 0.67647 0.7228 0.26226 0.0
H2609 H 0.71662 0.75371 0.2967 0.0
H2610 H 0.73938 0.78516 0.25069 0.0
H2611 H 0.72918 0.76261 0.2701 0.0
H2612 H 0.67992 0.74923 0.25944 0.0
H2613 H 0.6901 0.77121 0.2396 0.0
C2614 C 0.67653 0.71192 0.28504 0.0
C2615 C 0.68455 0.71389 0.30029 0.0
C2616 C 0.6829 0.72485 0.27398 0.0
C2617 C 0.69737 0.74016 0.27797 0.0
C2618 C 0.70554 0.74204 0.29314 0.0
C2619 C 0.69922 0.72901 0.30416 0.0
C2620 C 0.72639 0.77745 0.25266 0.0
C2621 C 0.71558 0.78019 0.24392 0.0
C2622 C 0.72054 0.76457 0.2638 0.0
C2623 C 0.70373 0.7541 0.26639 0.0
C2624 C 0.69293 0.75689 0.25762 0.0
C2625 C 0.69877 0.76964 0.24639 0.0
H2626 H 0.29841 0.97914 0.30233 0.0
H2627 H 0.25856 0.95951 0.33685 0.0
H2628 H 0.27934 0.97224 0.27919 0.0
H2629 H 0.2395 0.95241 0.31365 0.0
H2630 H 0.21218 0.95643 0.26941 0.0
H2631 H 0.23174 0.96524 0.2926 0.0
H2632 H 0.25763 0.94689 0.26447 0.0
H2633 H 0.23819 0.93829 0.24127 0.0
C2634 C 0.28559 0.9734 0.305 0.0
C2635 C 0.28 0.96982 0.32144 0.0
C2636 C 0.27466 0.96936 0.29172 0.0
C2637 C 0.2579 0.9617 0.29458 0.0
C2638 C 0.25236 0.95844 0.31105 0.0
C2639 C 0.26328 0.96243 0.32434 0.0
C2640 C 0.22203 0.95424 0.26825 0.0
C2641 C 0.22354 0.94646 0.25365 0.0
C2642 C 0.2332 0.95924 0.28151 0.0
C2643 C 0.24621 0.95672 0.28039 0.0
C2644 C 0.24784 0.94916 0.26567 0.0
C2645 C 0.23666 0.94411 0.25244 0.0
H2646 H 0.70614 0.97818 0.32105 0.0
H2647 H 0.66155 0.93619 0.29973 0.0
H2648 H 0.72154 0.97468 0.29889 0.0
H2649 H 0.67702 0.93258 0.27768 0.0
H2650 H 0.70813 0.94869 0.22969 0.0
H2651 H 0.69201 0.94836 0.25335 0.0
H2652 H 0.73006 0.95611 0.28733 0.0
H2653 H 0.74625 0.9566 0.26354 0.0
C2654 C 0.69964 0.96807 0.31176 0.0
C2655 C 0.6826 0.95754 0.3121 0.0
C2656 C 0.70849 0.966 0.29911 0.0
C2657 C 0.7005 0.95339 0.28648 0.0
C2658 C 0.68351 0.94254 0.28711 0.0
C2659 C 0.67466 0.94457 0.2998 0.0
C2660 C 0.71291 0.95007 0.24223 0.0
C2661 C 0.72837 0.95256 0.2448 0.0
C2662 C 0.70367 0.94982 0.25579 0.0
C2663 C 0.70976 0.95221 0.27222 0.0
C2664 C 0.7251 0.95437 0.27481 0.0
C2665 C 0.73432 0.95454 0.26123 0.0
H2666 H 0.01789 0.72143 0.29822 0.0
H2667 H 0.05684 0.76398 0.32614 0.0
H2668 H 0.02418 0.7382 0.27388 0.0
H2669 H 0.06322 0.78076 0.30159 0.0
H2670 H 0.05412 0.80812 0.25963 0.0
H2671 H 0.05053 0.79248 0.2845 0.0
H2672 H 0.04587 0.75184 0.25328 0.0
H2673 H 0.04936 0.76747 0.22846 0.0
C2674 C 0.02783 0.73436 0.29917 0.0
C2675 C 0.03686 0.74136 0.31416 0.0
C2676 C 0.03151 0.74394 0.28516 0.0
C2677 C 0.04427 0.76078 0.28577 0.0
C2678 C 0.05326 0.76784 0.30076 0.0
C2679 C 0.04963 0.75821 0.3148 0.0
C2680 C 0.05266 0.79599 0.25815 0.0
C2681 C 0.05226 0.7891 0.24213 0.0
C2682 C 0.0506 0.78704 0.27237 0.0
C2683 C 0.04787 0.77091 0.27085 0.0
C2684 C 0.04779 0.76417 0.25485 0.0
C2685 C 0.04992 0.77315 0.24066 0.0
H2686 H 0.29721 0.30634 0.28284 0.0
H2687 H 0.26256 0.30461 0.31821 0.0
H2688 H 0.27675 0.29624 0.26058 0.0
H2689 H 0.24206 0.29459 0.29577 0.0
H2690 H 0.20606 0.2589 0.25314 0.0
H2691 H 0.22569 0.26956 0.27649 0.0
H2692 H 0.26233 0.30664 0.24508 0.0
H2693 H 0.24275 0.29591 0.22178 0.0
C2694 C 0.28522 0.30379 0.28589 0.0
C2695 C 0.28154 0.30631 0.30231 0.0
C2696 C 0.27353 0.29812 0.27308 0.0
C2697 C 0.25783 0.29475 0.27639 0.0
C2698 C 0.25403 0.297 0.29286 0.0
C2699 C 0.26579 0.30279 0.30569 0.0
C2700 C 0.21823 0.26952 0.25136 0.0
C2701 C 0.22282 0.27677 0.23572 0.0
C2702 C 0.22946 0.27561 0.2647 0.0
C2703 C 0.24556 0.28891 0.26261 0.0
C2704 C 0.25006 0.29627 0.24703 0.0
C2705 C 0.23883 0.29024 0.23374 0.0
H2706 H 0.30957 0.34934 0.39636 0.0
H2707 H 0.28198 0.36282 0.36606 0.0
H2708 H 0.30659 0.36383 0.42052 0.0
H2709 H 0.27868 0.37705 0.39043 0.0
H2710 H 0.2946 0.41773 0.43314 0.0
H2711 H 0.29494 0.40182 0.40851 0.0
H2712 H 0.28672 0.36213 0.43987 0.0
H2713 H 0.28681 0.37828 0.46446 0.0
C2714 C 0.30274 0.35528 0.39487 0.0
C2715 C 0.29604 0.35494 0.37925 0.0
C2716 C 0.30094 0.3635 0.40878 0.0
C2717 C 0.29234 0.37155 0.40745 0.0
C2718 C 0.28552 0.37112 0.39185 0.0
C2719 C 0.28735 0.3629 0.3779 0.0
C2720 C 0.29266 0.40551 0.43468 0.0
C2721 C 0.29059 0.39918 0.45068 0.0
C2722 C 0.29279 0.39636 0.4206 0.0
C2723 C 0.29093 0.38072 0.42222 0.0
C2724 C 0.28844 0.37424 0.4382 0.0
C2725 C 0.28835 0.38341 0.45227 0.0
H2726 H 0.6779 0.94784 0.39899 0.0
H2727 H 0.63248 0.94213 0.38377 0.0
H2728 H 0.66357 0.92715 0.42007 0.0
H2729 H 0.61828 0.92167 0.40487 0.0
H2730 H 0.59502 0.87397 0.43295 0.0
H2731 H 0.61043 0.89316 0.41099 0.0
H2732 H 0.64924 0.92449 0.44658 0.0
H2733 H 0.63387 0.90518 0.46845 0.0
C2734 C 0.66488 0.9422 0.40014 0.0
C2735 C 0.65634 0.94664 0.3897 0.0
C2736 C 0.65669 0.93039 0.41225 0.0
C2737 C 0.63978 0.92272 0.41408 0.0
C2738 C 0.63127 0.92716 0.4036 0.0
C2739 C 0.63944 0.93899 0.39159 0.0
C2740 C 0.60695 0.88484 0.43597 0.0
C2741 C 0.61332 0.88804 0.45235 0.0
C2742 C 0.61571 0.89588 0.42347 0.0
C2743 C 0.63102 0.91038 0.42707 0.0
C2744 C 0.63756 0.91335 0.44336 0.0
C2745 C 0.62876 0.90233 0.45589 0.0
H2746 H 0.06496 0.69711 0.36884 0.0
H2747 H 0.04533 0.72433 0.39255 0.0
H2748 H 0.08197 0.70273 0.39342 0.0
H2749 H 0.06282 0.73049 0.41698 0.0
H2750 H 0.07922 0.71772 0.46498 0.0
H2751 H 0.06444 0.71605 0.43975 0.0
H2752 H 0.10473 0.72313 0.40984 0.0
H2753 H 0.11916 0.72409 0.4351 0.0
C2754 C 0.06446 0.70452 0.3792 0.0
C2755 C 0.0537 0.71017 0.37878 0.0
C2756 C 0.07432 0.70786 0.39329 0.0
C2757 C 0.07377 0.71705 0.40725 0.0
C2758 C 0.06337 0.72314 0.40659 0.0
C2759 C 0.0534 0.71969 0.39254 0.0
C2760 C 0.08499 0.71919 0.45301 0.0
C2761 C 0.10042 0.72128 0.45203 0.0
C2762 C 0.07656 0.7183 0.43854 0.0
C2763 C 0.08337 0.71946 0.42271 0.0
C2764 C 0.09902 0.72198 0.42178 0.0
C2765 C 0.10738 0.72273 0.43626 0.0
H2766 H 0.30878 0.05638 0.6807 0.0
H2767 H 0.32106 0.03067 0.71516 0.0
H2768 H 0.29629 0.06351 0.70332 0.0
H2769 H 0.30842 0.03767 0.7377 0.0
H2770 H 0.30297 0.07152 0.77654 0.0
H2771 H 0.3143 0.06318 0.75368 0.0
H2772 H 0.27282 0.05042 0.72235 0.0
H2773 H 0.26154 0.05886 0.74523 0.0
C2774 C 0.30871 0.05213 0.69306 0.0
C2775 C 0.31598 0.04301 0.69613 0.0
C2776 C 0.30148 0.05616 0.706 0.0
C2777 C 0.30144 0.05122 0.72231 0.0
C2778 C 0.30846 0.04185 0.72531 0.0
C2779 C 0.31562 0.03776 0.71237 0.0
C2780 C 0.29631 0.06695 0.76475 0.0
C2781 C 0.28145 0.06598 0.76261 0.0
C2782 C 0.30272 0.06208 0.75171 0.0
C2783 C 0.29445 0.05614 0.73622 0.0
C2784 C 0.27957 0.05512 0.73408 0.0
C2785 C 0.27309 0.0599 0.74718 0.0
H2786 H 0.97174 0.3027 0.73885 0.0
H2787 H 0.97402 0.26846 0.70332 0.0
H2788 H 0.9588 0.28083 0.75877 0.0
H2789 H 0.96065 0.24637 0.72318 0.0
H2790 H 0.95186 0.21636 0.77023 0.0
H2791 H 0.96503 0.23781 0.74967 0.0
H2792 H 0.93336 0.25548 0.76305 0.0
H2793 H 0.92066 0.23443 0.78393 0.0
C2794 C 0.96945 0.29049 0.73526 0.0
C2795 C 0.97391 0.28734 0.71947 0.0
C2796 C 0.9619 0.27789 0.74666 0.0
C2797 C 0.95855 0.26179 0.74255 0.0
C2798 C 0.96318 0.25867 0.72681 0.0
C2799 C 0.97079 0.27131 0.7154 0.0
C2800 C 0.94763 0.22473 0.7686 0.0
C2801 C 0.935 0.22348 0.77844 0.0
C2802 C 0.95513 0.23699 0.75681 0.0
C2803 C 0.95024 0.24836 0.75467 0.0
C2804 C 0.93757 0.24706 0.76449 0.0
C2805 C 0.93014 0.23487 0.77633 0.0
H2806 H 0.71923 0.71911 0.72615 0.0
H2807 H 0.73239 0.68607 0.70278 0.0
H2808 H 0.74122 0.72863 0.74678 0.0
H2809 H 0.75437 0.69568 0.72329 0.0
H2810 H 0.77828 0.70215 0.77492 0.0
H2811 H 0.75688 0.69333 0.75378 0.0
H2812 H 0.77156 0.74464 0.7486 0.0
H2813 H 0.79302 0.75346 0.76978 0.0
C2814 C 0.72685 0.71394 0.72535 0.0
C2815 C 0.72402 0.70181 0.71283 0.0
C2816 C 0.73949 0.71945 0.73712 0.0
C2817 C 0.74949 0.71286 0.73668 0.0
C2818 C 0.74674 0.70084 0.72408 0.0
C2819 C 0.73419 0.69541 0.71227 0.0
C2820 C 0.7771 0.71156 0.76907 0.0
C2821 C 0.78762 0.72856 0.77366 0.0
C2822 C 0.76484 0.70652 0.75699 0.0
C2823 C 0.76262 0.71831 0.74943 0.0
C2824 C 0.77294 0.73526 0.75423 0.0
C2825 C 0.7853 0.74033 0.76622 0.0
H2826 H 0.72389 0.64518 0.66092 0.0
H2827 H 0.69397 0.64984 0.62458 0.0
H2828 H 0.73265 0.63302 0.63929 0.0
H2829 H 0.70295 0.63776 0.60284 0.0
H2830 H 0.70852 0.5984 0.56257 0.0
H2831 H 0.69782 0.61158 0.58932 0.0
H2832 H 0.75232 0.63861 0.61838 0.0
H2833 H 0.76426 0.62583 0.59259 0.0
C2834 C 0.71918 0.64362 0.6483 0.0
C2835 C 0.70823 0.6485 0.64448 0.0
C2836 C 0.72434 0.63678 0.63586 0.0
C2837 C 0.71857 0.63454 0.61935 0.0
C2838 C 0.70748 0.6392 0.6155 0.0
C2839 C 0.70241 0.6462 0.62794 0.0
C2840 C 0.71632 0.60512 0.57332 0.0
C2841 C 0.73852 0.61328 0.57333 0.0
C2842 C 0.71009 0.61416 0.58958 0.0
C2843 C 0.72412 0.62737 0.60625 0.0
C2844 C 0.74439 0.63108 0.60799 0.0
C2845 C 0.75176 0.62261 0.59238 0.0
H2846 H 0.36751 0.05093 0.60602 0.0
H2847 H 0.36616 0.07878 0.64945 0.0
H2848 H 0.37862 0.07579 0.58974 0.0
H2849 H 0.37756 0.10362 0.63328 0.0
H2850 H 0.38375 0.14879 0.59635 0.0
H2851 H 0.37232 0.11998 0.61618 0.0
H2852 H 0.40294 0.10079 0.58116 0.0
H2853 H 0.41482 0.12894 0.56021 0.0
C2854 C 0.36966 0.06237 0.61212 0.0
C2855 C 0.36592 0.06285 0.62904 0.0
C2856 C 0.37613 0.07664 0.60281 0.0
C2857 C 0.37892 0.09165 0.61021 0.0
C2858 C 0.37527 0.09218 0.62711 0.0
C2859 C 0.36886 0.07794 0.63644 0.0
C2860 C 0.38785 0.14029 0.59402 0.0
C2861 C 0.39813 0.14022 0.57433 0.0
C2862 C 0.38029 0.12193 0.60586 0.0
C2863 C 0.38556 0.10667 0.60034 0.0
C2864 C 0.39945 0.10975 0.58366 0.0
C2865 C 0.40764 0.12772 0.57107 0.0
H2866 H 0.96954 0.30748 0.62657 0.0
H2867 H 0.92943 0.27866 0.65943 0.0
H2868 H 0.95034 0.30041 0.60353 0.0
H2869 H 0.91025 0.27143 0.63629 0.0
H2870 H 0.88145 0.27867 0.59569 0.0
H2871 H 0.90063 0.28541 0.61876 0.0
H2872 H 0.93063 0.2761 0.58579 0.0
H2873 H 0.91149 0.26948 0.56271 0.0
C2874 C 0.95664 0.29956 0.62887 0.0
C2875 C 0.95102 0.29365 0.64485 0.0
C2876 C 0.94564 0.29545 0.61564 0.0
C2877 C 0.92878 0.28538 0.61811 0.0
C2878 C 0.92317 0.27939 0.63406 0.0
C2879 C 0.93416 0.28346 0.64728 0.0
C2880 C 0.89212 0.27801 0.59342 0.0
C2881 C 0.89492 0.27343 0.57745 0.0
C2882 C 0.90305 0.2818 0.60663 0.0
C2883 C 0.91711 0.28123 0.6041 0.0
C2884 C 0.91998 0.27678 0.58809 0.0
C2885 C 0.909 0.27292 0.57491 0.0
H2886 H 0.35303 0.31848 0.63066 0.0
H2887 H 0.35233 0.27831 0.65507 0.0
H2888 H 0.3663 0.31434 0.60673 0.0
H2889 H 0.36558 0.27414 0.63098 0.0
H2890 H 0.40681 0.28724 0.59232 0.0
H2891 H 0.3925 0.28932 0.61665 0.0
H2892 H 0.35942 0.29297 0.58395 0.0
H2893 H 0.37376 0.29093 0.55969 0.0
C2894 C 0.35571 0.30876 0.63093 0.0
C2895 C 0.35159 0.29871 0.64478 0.0
C2896 C 0.36321 0.30632 0.61716 0.0
C2897 C 0.36688 0.29384 0.61693 0.0
C2898 C 0.36297 0.2839 0.63084 0.0
C2899 C 0.35533 0.28626 0.6446 0.0
C2900 C 0.39628 0.28816 0.59036 0.0
C2901 C 0.39121 0.28865 0.57411 0.0
C2902 C 0.3881 0.28936 0.60427 0.0
C2903 C 0.37487 0.29135 0.6022 0.0
C2904 C 0.36968 0.29161 0.58594 0.0
C2905 C 0.37778 0.2903 0.57206 0.0
H2906 H 0.68991 0.04967 0.62122 0.0
H2907 H 0.73951 0.08262 0.63903 0.0
H2908 H 0.69531 0.06736 0.59771 0.0
H2909 H 0.74481 0.10049 0.61551 0.0
H2910 H 0.73541 0.13631 0.5839 0.0
H2911 H 0.73334 0.11879 0.60652 0.0
H2912 H 0.71371 0.07625 0.57172 0.0
H2913 H 0.71609 0.09383 0.54899 0.0
C2914 C 0.70197 0.06068 0.6201 0.0
C2915 C 0.71428 0.06478 0.63199 0.0
C2916 C 0.70508 0.07074 0.60659 0.0
C2917 C 0.72048 0.08524 0.6048 0.0
C2918 C 0.73282 0.08938 0.61665 0.0
C2919 C 0.7298 0.07913 0.63005 0.0
C2920 C 0.73103 0.12332 0.58099 0.0
C2921 C 0.72615 0.11648 0.56459 0.0
C2922 C 0.72984 0.11331 0.59395 0.0
C2923 C 0.72337 0.0962 0.59084 0.0
C2924 C 0.7187 0.08941 0.57444 0.0
C2925 C 0.72014 0.09946 0.56146 0.0
H2926 H 0.93063 0.62849 0.63797 0.0
H2927 H 0.93971 0.67596 0.62304 0.0
H2928 H 0.91165 0.61453 0.61447 0.0
H2929 H 0.92053 0.6619 0.5996 0.0
H2930 H 0.90278 0.63221 0.54833 0.0
H2931 H 0.91972 0.64717 0.57306 0.0
H2932 H 0.88492 0.60774 0.6038 0.0
H2933 H 0.86807 0.59273 0.57897 0.0
C2934 C 0.92849 0.63594 0.62975 0.0
C2935 C 0.93675 0.65335 0.63234 0.0
C2936 C 0.91752 0.62791 0.61634 0.0
C2937 C 0.91459 0.63711 0.60518 0.0
C2938 C 0.92266 0.6545 0.6079 0.0
C2939 C 0.93359 0.66253 0.62137 0.0
C2940 C 0.89867 0.62688 0.56042 0.0
C2941 C 0.88409 0.61138 0.56177 0.0
C2942 C 0.90832 0.63546 0.57458 0.0
C2943 C 0.90367 0.62862 0.59038 0.0
C2944 C 0.88891 0.61325 0.59177 0.0
C2945 C 0.87922 0.60471 0.57761 0.0
H2946 H 0.98178 0.72465 0.69838 0.0
H2947 H 0.94727 0.67602 0.71662 0.0
H2948 H 0.97693 0.73772 0.72258 0.0
H2949 H 0.9421 0.68911 0.74064 0.0
H2950 H 0.95504 0.71918 0.7912 0.0
H2951 H 0.95639 0.70486 0.76581 0.0
H2952 H 0.95754 0.74253 0.7362 0.0
H2953 H 0.95668 0.75706 0.76171 0.0
C2954 C 0.97299 0.71673 0.70744 0.0
C2955 C 0.965 0.69929 0.70561 0.0
C2956 C 0.97013 0.72424 0.72128 0.0
C2957 C 0.95915 0.71447 0.7336 0.0
C2958 C 0.95082 0.697 0.73152 0.0
C2959 C 0.95372 0.6895 0.7177 0.0
C2960 C 0.95531 0.72421 0.77922 0.0
C2961 C 0.95552 0.73908 0.7784 0.0
C2962 C 0.95603 0.716 0.76467 0.0
C2963 C 0.95706 0.72252 0.74894 0.0
C2964 C 0.95693 0.73725 0.74811 0.0
C2965 C 0.95626 0.74549 0.76269 0.0
H2966 H 0.33735 0.28934 0.72968 0.0
H2967 H 0.2912 0.27415 0.70623 0.0
H2968 H 0.32327 0.26824 0.75027 0.0
H2969 H 0.27709 0.25327 0.72709 0.0
H2970 H 0.25709 0.20823 0.75917 0.0
H2971 H 0.27225 0.22723 0.73699 0.0
H2972 H 0.30609 0.2637 0.77392 0.0
H2973 H 0.29113 0.24454 0.79593 0.0
C2974 C 0.32419 0.2815 0.7289 0.0
C2975 C 0.3154 0.28349 0.71635 0.0
C2976 C 0.31612 0.26944 0.74077 0.0
C2977 C 0.29904 0.2591 0.7404 0.0
C2978 C 0.29026 0.26088 0.72763 0.0
C2979 C 0.29835 0.27293 0.71573 0.0
C2980 C 0.26795 0.22019 0.76245 0.0
C2981 C 0.27311 0.22481 0.77924 0.0
C2982 C 0.27654 0.23115 0.7498 0.0
C2983 C 0.2904 0.247 0.75367 0.0
C2984 C 0.29564 0.25149 0.77045 0.0
C2985 C 0.28706 0.24055 0.78308 0.0
H2986 H 0.74381 0.07648 0.70594 0.0
H2987 H 0.71159 0.02377 0.71321 0.0
H2988 H 0.7613 0.07837 0.72907 0.0
H2989 H 0.72882 0.02579 0.73635 0.0
H2990 H 0.75297 0.04077 0.78846 0.0
H2991 H 0.73667 0.04172 0.76588 0.0
H2992 H 0.77889 0.06444 0.73461 0.0
H2993 H 0.79515 0.06314 0.75704 0.0
C2994 C 0.74045 0.06534 0.71249 0.0
C2995 C 0.72635 0.04998 0.70777 0.0
C2996 C 0.75046 0.06643 0.72564 0.0
C2997 C 0.7463 0.05224 0.7345 0.0
C2998 C 0.73219 0.03693 0.72981 0.0
C2999 C 0.7224 0.03578 0.7165 0.0
C3000 C 0.75881 0.04619 0.77685 0.0
C3001 C 0.77535 0.05207 0.77461 0.0
C3002 C 0.74949 0.04667 0.76394 0.0
C3003 C 0.75657 0.05317 0.74857 0.0
C3004 C 0.77322 0.05953 0.74644 0.0
C3005 C 0.7825 0.05879 0.75927 0.0
H3006 H 0.0694 0.36267 0.04076 0.0
H3007 H 0.04465 0.32426 0.00164 0.0
H3008 H 0.08438 0.34995 0.04896 0.0
H3009 H 0.05981 0.31175 0.0097 0.0
H3010 H 0.07041 0.27365 0.04325 0.0
H3011 H 0.05777 0.29165 0.02815 0.0
H3012 H 0.1075 0.34655 0.04634 0.0
H3013 H 0.12142 0.32983 0.06194 0.0
C3014 C 0.06735 0.35169 0.03373 0.0
C3015 C 0.0557 0.3444 0.02065 0.0
C3016 C 0.07601 0.34445 0.03837 0.0
C3017 C 0.07312 0.32975 0.03009 0.0
C3018 C 0.06204 0.32288 0.01656 0.0
C3019 C 0.05345 0.33015 0.01184 0.0
C3020 C 0.07768 0.28711 0.04298 0.0
C3021 C 0.09596 0.29989 0.05674 0.0
C3022 C 0.06963 0.29849 0.03422 0.0
C3023 C 0.08081 0.32104 0.03624 0.0
C3024 C 0.10089 0.33308 0.04588 0.0
C3025 C 0.11 0.32283 0.05501 0.0
H3026 H 0.64803 0.69739 0.0485 0.0
H3027 H 0.6939 0.70024 0.0447 0.0
H3028 H 0.66147 0.72368 0.06511 0.0
H3029 H 0.70712 0.72612 0.06154 0.0
H3030 H 0.73785 0.78717 0.07989 0.0
H3031 H 0.72151 0.75529 0.06186 0.0
H3032 H 0.66979 0.73698 0.09274 0.0
H3033 H 0.68493 0.76858 0.11155 0.0
C3034 C 0.66094 0.70357 0.05126 0.0
C3035 C 0.66989 0.69674 0.04522 0.0
C3036 C 0.66862 0.71858 0.06087 0.0
C3037 C 0.68537 0.72702 0.06457 0.0
C3038 C 0.69428 0.72015 0.05861 0.0
C3039 C 0.68664 0.70519 0.04905 0.0
C3040 C 0.72553 0.77757 0.08288 0.0
C3041 C 0.71219 0.7823 0.09546 0.0
C3042 C 0.71497 0.75791 0.07118 0.0
C3043 C 0.69359 0.74294 0.07454 0.0
C3044 C 0.68232 0.74651 0.09047 0.0
C3045 C 0.69183 0.7658 0.10284 0.0
H3046 H 0.30923 0.98896 0.04776 0.0
H3047 H 0.28904 0.95378 0.00534 0.0
H3048 H 0.28325 0.97367 0.06169 0.0
H3049 H 0.26288 0.9385 0.01937 0.0
H3050 H 0.22238 0.90799 0.05717 0.0
H3051 H 0.24921 0.9215 0.0443 0.0
H3052 H 0.25624 0.96972 0.0566 0.0
H3053 H 0.22957 0.95626 0.06947 0.0
C3054 C 0.29928 0.97789 0.04143 0.0
C3055 C 0.30118 0.97267 0.02535 0.0
C3056 C 0.28437 0.96919 0.0494 0.0
C3057 C 0.271 0.95501 0.04155 0.0
C3058 C 0.27301 0.94937 0.02575 0.0
C3059 C 0.28796 0.95815 0.0177 0.0
C3060 C 0.22977 0.92148 0.05722 0.0
C3061 C 0.22402 0.9311 0.06455 0.0
C3062 C 0.24504 0.92919 0.04978 0.0
C3063 C 0.25485 0.94666 0.04955 0.0
C3064 C 0.24907 0.95624 0.05685 0.0
C3065 C 0.2338 0.94855 0.06418 0.0
H3066 H 0.36007 0.05816 0.96544 0.0
H3067 H 0.32985 0.04666 0.00891 0.0
H3068 H 0.34836 0.07325 0.95444 0.0
H3069 H 0.31831 0.06185 0.99796 0.0
H3070 H 0.28609 0.06924 0.9622 0.0
H3071 H 0.29977 0.05652 0.97416 0.0
H3072 H 0.34627 0.09832 0.95985 0.0
H3073 H 0.33253 0.11106 0.94786 0.0
C3074 C 0.35111 0.05904 0.97276 0.0
C3075 C 0.3458 0.05108 0.98799 0.0
C3076 C 0.34444 0.06773 0.96648 0.0
C3077 C 0.33229 0.06857 0.97525 0.0
C3078 C 0.32745 0.06116 0.99077 0.0
C3079 C 0.33415 0.05255 0.99709 0.0
C3080 C 0.29922 0.07562 0.96148 0.0
C3081 C 0.30818 0.09091 0.95371 0.0
C3082 C 0.30707 0.06844 0.96847 0.0
C3083 C 0.3241 0.07643 0.96793 0.0
C3084 C 0.33312 0.09179 0.96026 0.0
C3085 C 0.32526 0.09905 0.95337 0.0
H3086 H 0.97774 0.27903 0.01321 0.0
H3087 H 0.97753 0.30696 0.97206 0.0
H3088 H 0.96038 0.2531 0.99688 0.0
H3089 H 0.96095 0.28129 0.95557 0.0
H3090 H 0.92119 0.22937 0.92206 0.0
H3091 H 0.93783 0.25913 0.94354 0.0
H3092 H 0.9615 0.23397 0.97849 0.0
H3093 H 0.94497 0.20342 0.95812 0.0
C3094 C 0.97392 0.27963 0.00073 0.0
C3095 C 0.97914 0.29507 0.99391 0.0
C3096 C 0.96409 0.26477 0.99128 0.0
C3097 C 0.95941 0.26506 0.9748 0.0
C3098 C 0.96407 0.28047 0.96827 0.0
C3099 C 0.97374 0.29529 0.97773 0.0
C3100 C 0.92915 0.23052 0.93213 0.0
C3101 C 0.92899 0.21215 0.93976 0.0
C3102 C 0.93905 0.24874 0.94606 0.0
C3103 C 0.95067 0.24957 0.96412 0.0
C3104 C 0.95372 0.23276 0.96822 0.0
C3105 C 0.94427 0.21402 0.95503 0.0
H3106 H 0.70015 0.68777 0.96569 0.0
H3107 H 0.71034 0.66021 0.99982 0.0
H3108 H 0.72677 0.69882 0.95341 0.0
H3109 H 0.73725 0.67163 0.98773 0.0
H3110 H 0.77979 0.68546 0.95251 0.0
H3111 H 0.75196 0.67192 0.9628 0.0
H3112 H 0.75458 0.71883 0.9621 0.0
H3113 H 0.78214 0.73217 0.95147 0.0
C3114 C 0.70806 0.68402 0.97055 0.0
C3115 C 0.70317 0.6732 0.98382 0.0
C3116 C 0.72337 0.69045 0.96356 0.0
C3117 C 0.73422 0.68628 0.96972 0.0
C3118 C 0.72914 0.675 0.98262 0.0
C3119 C 0.71375 0.6685 0.98959 0.0
C3120 C 0.77427 0.69277 0.95435 0.0
C3121 C 0.78296 0.70977 0.95079 0.0
C3122 C 0.75842 0.68507 0.96038 0.0
C3123 C 0.75098 0.69425 0.96312 0.0
C3124 C 0.75979 0.7113 0.95976 0.0
C3125 C 0.77559 0.71897 0.95372 0.0
H3126 H 0.9496 0.66828 0.00269 0.0
H3127 H 0.97758 0.68207 0.95751 0.0
H3128 H 0.93614 0.68237 0.99382 0.0
H3129 H 0.96386 0.69579 0.94846 0.0
H3130 H 0.95476 0.73896 0.95174 0.0
H3131 H 0.96519 0.72114 0.95712 0.0
H3132 H 0.91779 0.68308 0.9741 0.0
H3133 H 0.90754 0.70116 0.96905 0.0
C3134 C 0.95262 0.67399 0.9907 0.0
C3135 C 0.96478 0.67421 0.98089 0.0
C3136 C 0.94487 0.68204 0.98558 0.0
C3137 C 0.94907 0.69039 0.9705 0.0
C3138 C 0.96059 0.68979 0.96029 0.0
C3139 C 0.96838 0.68183 0.96545 0.0
C3140 C 0.94655 0.72667 0.95637 0.0
C3141 C 0.93032 0.72136 0.95984 0.0
C3142 C 0.95247 0.71642 0.9594 0.0
C3143 C 0.94231 0.70064 0.96602 0.0
C3144 C 0.92598 0.69521 0.96915 0.0
C3145 C 0.92007 0.70549 0.96615 0.0
H3146 H 0.30733 0.3055 0.97956 0.0
H3147 H 0.35222 0.30628 0.97646 0.0
H3148 H 0.29216 0.27648 0.96971 0.0
H3149 H 0.33697 0.27715 0.96616 0.0
H3150 H 0.30078 0.22019 0.97195 0.0
H3151 H 0.31813 0.25025 0.97751 0.0
H3152 H 0.28662 0.2576 0.94612 0.0
H3153 H 0.26904 0.22746 0.941 0.0
C3154 C 0.31401 0.29954 0.97658 0.0
C3155 C 0.331 0.30821 0.97892 0.0
C3156 C 0.3053 0.28289 0.97079 0.0
C3157 C 0.31333 0.27446 0.96712 0.0
C3158 C 0.33039 0.28323 0.96905 0.0
C3159 C 0.33913 0.29994 0.97488 0.0
C3160 C 0.29776 0.22829 0.96602 0.0
C3161 C 0.28369 0.22152 0.9559 0.0
C3162 C 0.30772 0.24551 0.96913 0.0
C3163 C 0.30376 0.25635 0.96228 0.0
C3164 C 0.28992 0.24959 0.95175 0.0
C3165 C 0.27993 0.23235 0.94868 0.0
H3166 H 0.71619 0.04089 0.01965 0.0
H3167 H 0.69342 0.0276 0.97055 0.0
H3168 H 0.74293 0.05481 0.00697 0.0
H3169 H 0.72024 0.04163 0.95788 0.0
H3170 H 0.76933 0.04521 0.94549 0.0
H3171 H 0.74211 0.03524 0.9561 0.0
H3172 H 0.76195 0.0786 0.9899 0.0
H3173 H 0.78918 0.08852 0.97929 0.0
C3174 C 0.71689 0.04117 0.00616 0.0
C3175 C 0.70268 0.03305 0.99612 0.0
C3176 C 0.73222 0.04921 0.99889 0.0
C3177 C 0.73367 0.04922 0.98142 0.0
C3178 C 0.71948 0.04166 0.97138 0.0
C3179 C 0.70413 0.03372 0.97865 0.0
C3180 C 0.7678 0.05277 0.95492 0.0
C3181 C 0.78132 0.06778 0.96139 0.0
C3182 C 0.75223 0.04709 0.96098 0.0
C3183 C 0.7499 0.05616 0.97381 0.0
C3184 C 0.76339 0.07131 0.98007 0.0
C3185 C 0.77893 0.07704 0.97394 0.0
H3186 H 0.64789 0.95745 0.05444 0.0
H3187 H 0.67726 0.96965 0.01027 0.0
H3188 H 0.66339 0.94693 0.06677 0.0
H3189 H 0.69298 0.95948 0.02276 0.0
H3190 H 0.71137 0.92916 0.04626 0.0
H3191 H 0.69301 0.93551 0.03242 0.0
H3192 H 0.69078 0.96002 0.07815 0.0
H3193 H 0.70874 0.95332 0.09196 0.0
C3194 C 0.65753 0.95773 0.04728 0.0
C3195 C 0.66142 0.96454 0.03144 0.0
C3196 C 0.6665 0.95181 0.0544 0.0
C3197 C 0.67959 0.95259 0.04585 0.0
C3198 C 0.68293 0.95861 0.02965 0.0
C3199 C 0.67394 0.9645 0.02251 0.0
C3200 C 0.70687 0.93583 0.05331 0.0
C3201 C 0.71137 0.94064 0.07021 0.0
C3202 C 0.69641 0.93952 0.0454 0.0
C3203 C 0.6903 0.94814 0.05422 0.0
C3204 C 0.69495 0.95305 0.07108 0.0
C3205 C 0.70535 0.94935 0.07897 0.0
H3206 H 0.00834 0.70865 0.02923 0.0
H3207 H 0.0513 0.70685 0.0378 0.0
H3208 H 0.02286 0.73754 0.03938 0.0
H3209 H 0.06586 0.73595 0.04833 0.0
H3210 H 0.09 0.79352 0.04393 0.0
H3211 H 0.07655 0.76362 0.03729 0.0
H3212 H 0.03435 0.75507 0.06452 0.0
H3213 H 0.04769 0.785 0.07075 0.0
C3214 C 0.02087 0.71438 0.03341 0.0
C3215 C 0.02867 0.70541 0.03265 0.0
C3216 C 0.02917 0.73095 0.03938 0.0
C3217 C 0.04549 0.73905 0.04478 0.0
C3218 C 0.05331 0.73009 0.04416 0.0
C3219 C 0.04496 0.71341 0.03818 0.0
C3220 C 0.07796 0.78517 0.04872 0.0
C3221 C 0.06995 0.79154 0.05799 0.0
C3222 C 0.07028 0.76806 0.04498 0.0
C3223 C 0.05436 0.75696 0.05033 0.0
C3224 C 0.04655 0.76331 0.06004 0.0
C3225 C 0.05422 0.78042 0.06374 0.0
H3226 H 0.30483 0.32885 0.05623 0.0
H3227 H 0.29308 0.34815 0.0144 0.0
H3228 H 0.27721 0.3168 0.06636 0.0
H3229 H 0.26536 0.33572 0.02426 0.0
H3230 H 0.21849 0.31958 0.05057 0.0
H3231 H 0.24767 0.33578 0.04531 0.0
H3232 H 0.25084 0.29363 0.05766 0.0
H3233 H 0.22178 0.2777 0.06337 0.0
C3234 C 0.2964 0.33065 0.04927 0.0
C3235 C 0.30112 0.33934 0.03443 0.0
C3236 C 0.28053 0.32365 0.05503 0.0
C3237 C 0.26899 0.32512 0.04604 0.0
C3238 C 0.27395 0.33448 0.03161 0.0
C3239 C 0.28985 0.34156 0.0259 0.0
C3240 C 0.22552 0.31392 0.05243 0.0
C3241 C 0.21792 0.29743 0.05747 0.0
C3242 C 0.2422 0.32314 0.0493 0.0
C3243 C 0.25162 0.31601 0.05099 0.0
C3244 C 0.24405 0.29963 0.05647 0.0
C3245 C 0.22739 0.29045 0.05967 0.0
H3246 H 0.6678 0.64266 0.38719 0.0
H3247 H 0.7141 0.68189 0.36915 0.0
H3248 H 0.68165 0.63316 0.40418 0.0
H3249 H 0.72805 0.67223 0.38635 0.0
H3250 H 0.75526 0.66205 0.43539 0.0
H3251 H 0.7386 0.67374 0.41574 0.0
H3252 H 0.69204 0.61507 0.40348 0.0
H3253 H 0.70743 0.60194 0.42266 0.0
C3254 C 0.68096 0.64928 0.38685 0.0
C3255 C 0.68985 0.66302 0.37679 0.0
C3256 C 0.68889 0.64372 0.39649 0.0
C3257 C 0.7059 0.65187 0.39645 0.0
C3258 C 0.7149 0.66578 0.38664 0.0
C3259 C 0.70692 0.67125 0.37676 0.0
C3260 C 0.74327 0.65345 0.43002 0.0
C3261 C 0.73432 0.63048 0.42852 0.0
C3262 C 0.73318 0.66051 0.4171 0.0
C3263 C 0.71404 0.64571 0.40662 0.0
C3264 C 0.70372 0.62354 0.4095 0.0
C3265 C 0.71281 0.61525 0.42209 0.0
H3266 H 0.31118 0.02665 0.38549 0.0
H3267 H 0.35764 0.03327 0.3731 0.0
H3268 H 0.32514 0.05396 0.40006 0.0
H3269 H 0.37154 0.06028 0.38808 0.0
H3270 H 0.40049 0.12173 0.40493 0.0
H3271 H 0.38409 0.08918 0.38821 0.0
H3272 H 0.33619 0.06887 0.42601 0.0
H3273 H 0.35146 0.10106 0.44363 0.0
C3274 C 0.32437 0.0339 0.38592 0.0
C3275 C 0.33329 0.02777 0.37813 0.0
C3276 C 0.33238 0.04952 0.39439 0.0
C3277 C 0.34946 0.05931 0.39527 0.0
C3278 C 0.35838 0.05324 0.3874 0.0
C3279 C 0.35039 0.03765 0.3789 0.0
C3280 C 0.38898 0.1117 0.40937 0.0
C3281 C 0.37636 0.11565 0.42408 0.0
C3282 C 0.37828 0.09156 0.39855 0.0
C3283 C 0.35791 0.07567 0.40452 0.0
C3284 C 0.348 0.07887 0.4222 0.0
C3285 C 0.35771 0.0986 0.43381 0.0
H3286 H 0.98197 0.30814 0.37653 0.0
H3287 H 0.96054 0.31732 0.33451 0.0
H3288 H 0.95491 0.29074 0.38828 0.0
H3289 H 0.93362 0.29997 0.34625 0.0
H3290 H 0.89181 0.2853 0.38252 0.0
H3291 H 0.91914 0.3021 0.37133 0.0
H3292 H 0.92819 0.26332 0.38145 0.0
H3293 H 0.90075 0.24643 0.39254 0.0
C3294 C 0.9715 0.30641 0.36978 0.0
C3295 C 0.97342 0.31417 0.35461 0.0
C3296 C 0.95602 0.29639 0.37647 0.0
C3297 C 0.94218 0.29409 0.36823 0.0
C3298 C 0.94409 0.30171 0.353 0.0
C3299 C 0.95952 0.31157 0.34623 0.0
C3300 C 0.89972 0.28047 0.38253 0.0
C3301 C 0.89427 0.26473 0.38877 0.0
C3302 C 0.91529 0.29 0.376 0.0
C3303 C 0.9258 0.28403 0.37555 0.0
C3304 C 0.92042 0.26832 0.38184 0.0
C3305 C 0.90473 0.25868 0.38821 0.0
H3306 H 0.02561 0.37509 0.28902 0.0
H3307 H 0.02183 0.3902 0.33963 0.0
H3308 H 0.02506 0.39862 0.27868 0.0
H3309 H 0.02146 0.41382 0.32927 0.0
H3310 H 0.00412 0.44386 0.30334 0.0
H3311 H 0.00365 0.41948 0.31291 0.0
H3312 H 0.0426 0.42944 0.27939 0.0
H3313 H 0.04297 0.45376 0.26977 0.0
C3314 C 0.02469 0.38344 0.29795 0.0
C3315 C 0.02377 0.38077 0.31516 0.0
C3316 C 0.02445 0.39696 0.29201 0.0
C3317 C 0.02321 0.40807 0.30315 0.0
C3318 C 0.02222 0.40536 0.32035 0.0
C3319 C 0.02254 0.39188 0.3263 0.0
C3320 C 0.01242 0.44068 0.29788 0.0
C3321 C 0.02333 0.45048 0.28556 0.0
C3322 C 0.01226 0.42684 0.30345 0.0
C3323 C 0.02307 0.42252 0.29688 0.0
C3324 C 0.03396 0.43229 0.28451 0.0
C3325 C 0.03417 0.4462 0.279 0.0
H3326 H 0.62075 0.61873 0.34272 0.0
H3327 H 0.64658 0.64448 0.29887 0.0
H3328 H 0.60626 0.59246 0.32606 0.0
H3329 H 0.63192 0.61823 0.28222 0.0
H3330 H 0.58924 0.56701 0.24671 0.0
H3331 H 0.60649 0.5983 0.26608 0.0
H3332 H 0.61112 0.57001 0.31531 0.0
H3333 H 0.59381 0.53798 0.29733 0.0
C3334 C 0.62321 0.6188 0.3295 0.0
C3335 C 0.63481 0.63363 0.32209 0.0
C3336 C 0.61501 0.60376 0.32002 0.0
C3337 C 0.61802 0.60337 0.30291 0.0
C3338 C 0.62927 0.61823 0.29537 0.0
C3339 C 0.63772 0.63322 0.30492 0.0
C3340 C 0.5939 0.56771 0.25915 0.0
C3341 C 0.58716 0.54873 0.27113 0.0
C3342 C 0.60401 0.58697 0.27157 0.0
C3343 C 0.60979 0.58744 0.29309 0.0
C3344 C 0.60685 0.5691 0.30264 0.0
C3345 C 0.59686 0.54925 0.29128 0.0
H3346 H 0.35316 0.96407 0.33066 0.0
H3347 H 0.37819 0.01548 0.31693 0.0
H3348 H 0.37488 0.9615 0.31845 0.0
H3349 H 0.39981 0.01283 0.30463 0.0
H3350 H 0.44391 0.00645 0.30397 0.0
H3351 H 0.42176 0.00916 0.31466 0.0
H3352 H 0.38668 0.96148 0.2908 0.0
H3353 H 0.40891 0.95876 0.28016 0.0
C3354 C 0.36325 0.9748 0.325 0.0
C3355 C 0.36396 0.98999 0.32481 0.0
C3356 C 0.37564 0.97329 0.31791 0.0
C3357 C 0.38905 0.98696 0.31058 0.0
C3358 C 0.38972 0.00212 0.31033 0.0
C3359 C 0.37728 0.00361 0.31732 0.0
C3360 C 0.43147 0.99663 0.30088 0.0
C3361 C 0.42812 0.98244 0.29116 0.0
C3362 C 0.41879 0.9982 0.30696 0.0
C3363 C 0.40248 0.98553 0.30357 0.0
C3364 C 0.39913 0.97137 0.29375 0.0
C3365 C 0.41182 0.96986 0.28758 0.0
H3366 H 0.62455 0.9598 0.31494 0.0
H3367 H 0.63265 0.00775 0.33111 0.0
H3368 H 0.60182 0.95454 0.29742 0.0
H3369 H 0.61013 0.00266 0.31314 0.0
H3370 H 0.55552 0.98689 0.28929 0.0
H3371 H 0.58155 0.99144 0.31076 0.0
H3372 H 0.59229 0.9559 0.27129 0.0
H3373 H 0.56657 0.95045 0.249 0.0
C3374 C 0.62155 0.96928 0.31467 0.0
C3375 C 0.63043 0.9842 0.32444 0.0
C3376 C 0.60857 0.96632 0.30449 0.0
C3377 C 0.60419 0.97821 0.30381 0.0
C3378 C 0.61303 0.99313 0.31357 0.0
C3379 C 0.62603 0.9961 0.32379 0.0
C3380 C 0.56192 0.98064 0.28636 0.0
C3381 C 0.56031 0.97058 0.26537 0.0
C3382 C 0.57867 0.98404 0.2992 0.0
C3383 C 0.59047 0.97505 0.29301 0.0
C3384 C 0.58529 0.96143 0.27449 0.0
C3385 C 0.56877 0.9573 0.26084 0.0
H3386 H 0.01816 0.662 0.31442 0.0
H3387 H 0.97911 0.63215 0.34795 0.0
H3388 H 0.0117 0.63687 0.29813 0.0
H3389 H 0.97224 0.6071 0.33134 0.0
H3390 H 0.97138 0.56321 0.30548 0.0
H3391 H 0.98047 0.58832 0.3232 0.0
H3392 H 0.99119 0.61705 0.27915 0.0
H3393 H 0.9828 0.59209 0.26157 0.0
C3394 C 0.0082 0.65007 0.31831 0.0
C3395 C 0.9991 0.64908 0.33243 0.0
C3396 C 0.00441 0.63566 0.30891 0.0
C3397 C 0.99135 0.61994 0.31331 0.0
C3398 C 0.98251 0.61895 0.32768 0.0
C3399 C 0.9864 0.63334 0.33717 0.0
C3400 C 0.9758 0.57494 0.29963 0.0
C3401 C 0.97638 0.57571 0.28215 0.0
C3402 C 0.98091 0.58931 0.30976 0.0
C3403 C 0.98656 0.60474 0.30262 0.0
C3404 C 0.98719 0.60547 0.28511 0.0
C3405 C 0.98223 0.59115 0.27501 0.0
H3406 H 0.37363 0.37846 0.35561 0.0
H3407 H 0.34797 0.35493 0.30891 0.0
H3408 H 0.3991 0.39388 0.34068 0.0
H3409 H 0.37345 0.37055 0.29398 0.0
H3410 H 0.42519 0.38438 0.27808 0.0
H3411 H 0.39879 0.37048 0.29166 0.0
H3412 H 0.41338 0.41589 0.32069 0.0
H3413 H 0.43982 0.42969 0.30721 0.0
C3414 C 0.37338 0.37671 0.34215 0.0
C3415 C 0.35877 0.36542 0.33347 0.0
C3416 C 0.38798 0.38562 0.33358 0.0
C3417 C 0.3883 0.38339 0.31615 0.0
C3418 C 0.37363 0.37237 0.30743 0.0
C3419 C 0.35901 0.36351 0.31599 0.0
C3420 C 0.42262 0.39143 0.28716 0.0
C3421 C 0.43443 0.4082 0.29138 0.0
C3422 C 0.40751 0.3835 0.29492 0.0
C3423 C 0.40398 0.39211 0.30721 0.0
C3424 C 0.41578 0.40889 0.31135 0.0
C3425 C 0.43085 0.41683 0.30355 0.0
H3426 H 0.33535 0.31469 0.40012 0.0
H3427 H 0.32137 0.28804 0.35201 0.0
H3428 H 0.34786 0.29935 0.4079 0.0
H3429 H 0.33415 0.27297 0.35968 0.0
H3430 H 0.34842 0.23964 0.38233 0.0
H3431 H 0.3326 0.25241 0.37793 0.0
H3432 H 0.37193 0.29904 0.39984 0.0
H3433 H 0.38756 0.28612 0.40451 0.0
C3434 C 0.33484 0.30548 0.39124 0.0
C3435 C 0.32743 0.30265 0.3754 0.0
C3436 C 0.3421 0.29676 0.39567 0.0
C3437 C 0.34211 0.28501 0.38439 0.0
C3438 C 0.33421 0.28179 0.36876 0.0
C3439 C 0.32695 0.29051 0.36432 0.0
C3440 C 0.35353 0.25254 0.38646 0.0
C3441 C 0.36912 0.26184 0.39394 0.0
C3442 C 0.34454 0.25989 0.38382 0.0
C3443 C 0.35101 0.27676 0.38849 0.0
C3444 C 0.36648 0.28596 0.39632 0.0
C3445 C 0.37546 0.27859 0.39897 0.0
H3446 H 0.6808 0.02545 0.40133 0.0
H3447 H 0.70174 0.03335 0.35223 0.0
H3448 H 0.69634 0.05555 0.40741 0.0
H3449 H 0.71686 0.06327 0.35813 0.0
H3450 H 0.75206 0.11571 0.37679 0.0
H3451 H 0.7389 0.08547 0.3745 0.0
H3452 H 0.69654 0.07992 0.39895 0.0
H3453 H 0.71001 0.11025 0.40166 0.0
C3454 C 0.68875 0.03358 0.39186 0.0
C3455 C 0.69 0.02698 0.37629 0.0
C3456 C 0.69758 0.05084 0.39532 0.0
C3457 C 0.70786 0.06185 0.38327 0.0
C3458 C 0.70929 0.05518 0.36782 0.0
C3459 C 0.70051 0.03798 0.36439 0.0
C3460 C 0.74005 0.10801 0.38191 0.0
C3461 C 0.73206 0.1153 0.38943 0.0
C3462 C 0.73244 0.09069 0.38049 0.0
C3463 C 0.71659 0.08024 0.3864 0.0
C3464 C 0.70881 0.08757 0.39442 0.0
C3465 C 0.71647 0.10492 0.39591 0.0
H3466 H 0.97405 0.67686 0.39998 0.0
H3467 H 0.96278 0.68537 0.35073 0.0
H3468 H 0.94517 0.66192 0.40664 0.0
H3469 H 0.93399 0.67024 0.35729 0.0
H3470 H 0.88413 0.6522 0.37706 0.0
H3471 H 0.91352 0.67082 0.37437 0.0
H3472 H 0.92087 0.63508 0.3979 0.0
H3473 H 0.89145 0.61663 0.40084 0.0
C3474 C 0.96545 0.6757 0.39063 0.0
C3475 C 0.97073 0.68226 0.37479 0.0
C3476 C 0.94889 0.66704 0.39442 0.0
C3477 C 0.93726 0.66482 0.38248 0.0
C3478 C 0.94263 0.67189 0.36686 0.0
C3479 C 0.95915 0.6805 0.36306 0.0
C3480 C 0.89207 0.6485 0.38193 0.0
C3481 C 0.88553 0.63306 0.3893 0.0
C3482 C 0.90888 0.65908 0.38028 0.0
C3483 C 0.91955 0.65441 0.38585 0.0
C3484 C 0.91302 0.63917 0.39368 0.0
C3485 C 0.89619 0.62858 0.39533 0.0
H3486 H 0.34685 0.98344 0.70272 0.0
H3487 H 0.38832 0.03274 0.69453 0.0
H3488 H 0.36424 0.97662 0.71716 0.0
H3489 H 0.40577 0.02607 0.70967 0.0
H3490 H 0.44406 0.00752 0.72568 0.0
H3491 H 0.42298 0.01521 0.70824 0.0
H3492 H 0.37504 0.97451 0.74161 0.0
H3493 H 0.39483 0.96582 0.7596 0.0
C3494 C 0.35968 0.99291 0.70417 0.0
C3495 C 0.36619 0.00864 0.69747 0.0
C3496 C 0.36968 0.98904 0.71264 0.0
C3497 C 0.38641 0.00085 0.71474 0.0
C3498 C 0.39297 0.01661 0.70809 0.0
C3499 C 0.38295 0.02047 0.6995 0.0
C3500 C 0.43116 0.001 0.7281 0.0
C3501 C 0.42214 0.98797 0.7466 0.0
C3502 C 0.41809 0.0063 0.71795 0.0
C3503 C 0.39691 0.99655 0.72363 0.0
C3504 C 0.38779 0.98044 0.73873 0.0
C3505 C 0.39984 0.97432 0.74952 0.0
H3506 H 0.01818 0.36647 0.6988 0.0
H3507 H 0.96888 0.35455 0.69207 0.0
H3508 H 0.0257 0.39298 0.71249 0.0
H3509 H 0.97632 0.38097 0.70635 0.0
H3510 H 0.99365 0.44026 0.72273 0.0
H3511 H 0.98622 0.40991 0.70456 0.0
H3512 H 0.02907 0.4079 0.73734 0.0
H3513 H 0.03754 0.43808 0.7561 0.0
C3514 C 0.00891 0.36947 0.70034 0.0
C3515 C 0.99291 0.35836 0.69438 0.0
C3516 C 0.01319 0.38465 0.70835 0.0
C3517 C 0.00158 0.38905 0.71067 0.0
C3518 C 0.98562 0.37805 0.70458 0.0
C3519 C 0.98132 0.36285 0.69648 0.0
C3520 C 0.0006 0.43459 0.7249 0.0
C3521 C 0.01446 0.44067 0.74342 0.0
C3522 C 0.99556 0.41526 0.71425 0.0
C3523 C 0.0061 0.40495 0.71952 0.0
C3524 C 0.02274 0.41411 0.73468 0.0
C3525 C 0.02866 0.43336 0.74597 0.0
H3526 H 0.65161 0.63949 0.7082 0.0
H3527 H 0.62509 0.63428 0.66285 0.0
H3528 H 0.62583 0.62274 0.72257 0.0
H3529 H 0.59947 0.61762 0.67723 0.0
H3530 H 0.55943 0.60835 0.71421 0.0
H3531 H 0.58556 0.624 0.70034 0.0
H3532 H 0.60048 0.59299 0.72161 0.0
H3533 H 0.5742 0.57716 0.73538 0.0
C3534 C 0.64031 0.63469 0.70127 0.0
C3535 C 0.6404 0.6383 0.6844 0.0
C3536 C 0.62557 0.62506 0.70949 0.0
C3537 C 0.61068 0.61901 0.70104 0.0
C3538 C 0.61078 0.62232 0.68411 0.0
C3539 C 0.62547 0.6318 0.67586 0.0
C3540 C 0.56837 0.605 0.71606 0.0
C3541 C 0.5649 0.59179 0.72618 0.0
C3542 C 0.58325 0.61385 0.70802 0.0
C3543 C 0.59504 0.60971 0.70992 0.0
C3544 C 0.59167 0.59656 0.7201 0.0
C3545 C 0.57666 0.58754 0.728 0.0
H3546 H 0.68217 0.71623 0.66437 0.0
H3547 H 0.66703 0.68732 0.61752 0.0
H3548 H 0.67067 0.73215 0.65514 0.0
H3549 H 0.65566 0.7033 0.60832 0.0
H3550 H 0.61825 0.71938 0.60904 0.0
H3551 H 0.63203 0.70524 0.61668 0.0
H3552 H 0.67394 0.75237 0.63407 0.0
H3553 H 0.66006 0.76654 0.62641 0.0
C3554 C 0.67655 0.71339 0.65204 0.0
C3555 C 0.67544 0.70044 0.64172 0.0
C3556 C 0.67003 0.72256 0.64673 0.0
C3557 C 0.66217 0.7189 0.63105 0.0
C3558 C 0.66145 0.70626 0.62056 0.0
C3559 C 0.66806 0.69718 0.62581 0.0
C3560 C 0.63047 0.72674 0.61432 0.0
C3561 C 0.63815 0.74409 0.61697 0.0
C3562 C 0.63839 0.71866 0.61865 0.0
C3563 C 0.6541 0.7277 0.62591 0.0
C3564 C 0.6618 0.74506 0.62858 0.0
C3565 C 0.65392 0.75318 0.62412 0.0
H3566 H 0.28366 0.98149 0.64118 0.0
H3567 H 0.32828 0.98166 0.6394 0.0
H3568 H 0.26929 0.95415 0.6265 0.0
H3569 H 0.31401 0.95459 0.62455 0.0
H3570 H 0.28197 0.89226 0.61153 0.0
H3571 H 0.29923 0.92538 0.62702 0.0
H3572 H 0.26162 0.93901 0.59948 0.0
H3573 H 0.24336 0.90609 0.58326 0.0
C3574 C 0.29042 0.97575 0.63758 0.0
C3575 C 0.30712 0.98375 0.6415 0.0
C3576 C 0.2822 0.96012 0.62909 0.0
C3577 C 0.29049 0.95217 0.62447 0.0
C3578 C 0.30718 0.96022 0.62824 0.0
C3579 C 0.31541 0.97584 0.63664 0.0
C3580 C 0.27874 0.9012 0.6086 0.0
C3581 C 0.25906 0.89473 0.59815 0.0
C3582 C 0.28893 0.92162 0.61881 0.0
C3583 C 0.28181 0.93554 0.6158 0.0
C3584 C 0.26507 0.9301 0.60163 0.0
C3585 C 0.25409 0.90994 0.59082 0.0
H3586 H 0.04433 0.32518 0.66583 0.0
H3587 H 0.03457 0.34952 0.62738 0.0
H3588 H 0.07214 0.3375 0.65599 0.0
H3589 H 0.06216 0.36148 0.61735 0.0
H3590 H 0.11755 0.39656 0.61805 0.0
H3591 H 0.08931 0.38277 0.62681 0.0
H3592 H 0.08854 0.3373 0.63306 0.0
H3593 H 0.11698 0.35132 0.62468 0.0
C3594 C 0.04805 0.33299 0.65516 0.0
C3595 C 0.03727 0.33646 0.64747 0.0
C3596 C 0.06397 0.33999 0.64947 0.0
C3597 C 0.06942 0.35059 0.63596 0.0
C3598 C 0.05846 0.35364 0.62798 0.0
C3599 C 0.04259 0.34668 0.63368 0.0
C3600 C 0.11127 0.38357 0.62113 0.0
C3601 C 0.11934 0.37491 0.62032 0.0
C3602 C 0.09508 0.37564 0.6261 0.0
C3603 C 0.0866 0.35887 0.63048 0.0
C3604 C 0.09473 0.35024 0.62984 0.0
C3605 C 0.11095 0.3582 0.62489 0.0
H3606 H 0.28799 0.32216 0.65411 0.0
H3607 H 0.33448 0.36626 0.64388 0.0
H3608 H 0.27417 0.33552 0.64399 0.0
H3609 H 0.32086 0.37982 0.63454 0.0
H3610 H 0.29372 0.39885 0.60942 0.0
H3611 H 0.30477 0.3815 0.61409 0.0
H3612 H 0.26966 0.3568 0.65284 0.0
H3613 H 0.2581 0.37356 0.64744 0.0
C3614 C 0.29525 0.33467 0.64966 0.0
C3615 C 0.31233 0.34316 0.64986 0.0
C3616 C 0.28735 0.34239 0.64395 0.0
C3617 C 0.29636 0.35882 0.63848 0.0
C3618 C 0.31344 0.36707 0.63833 0.0
C3619 C 0.3213 0.35932 0.64384 0.0
C3620 C 0.2881 0.38941 0.61862 0.0
C3621 C 0.27487 0.38738 0.62791 0.0
C3622 C 0.29456 0.37958 0.62147 0.0
C3623 C 0.28821 0.36777 0.63395 0.0
C3624 C 0.27472 0.36551 0.64294 0.0
C3625 C 0.26813 0.37518 0.63992 0.0
H3626 H 0.66022 0.97435 0.66538 0.0
H3627 H 0.6776 0.98656 0.61502 0.0
H3628 H 0.6429 0.94512 0.6564 0.0
H3629 H 0.66059 0.9572 0.60613 0.0
H3630 H 0.61397 0.90796 0.59196 0.0
H3631 H 0.63213 0.9369 0.60159 0.0
H3632 H 0.64272 0.92062 0.64667 0.0
H3633 H 0.624 0.89158 0.63721 0.0
C3634 C 0.66052 0.97077 0.65243 0.0
C3635 C 0.67023 0.98282 0.64089 0.0
C3636 C 0.65063 0.95397 0.6473 0.0
C3637 C 0.65025 0.94881 0.63052 0.0
C3638 C 0.66035 0.9608 0.61909 0.0
C3639 C 0.6702 0.97762 0.62421 0.0
C3640 C 0.62004 0.91059 0.60401 0.0
C3641 C 0.61744 0.89752 0.61391 0.0
C3642 C 0.63062 0.92716 0.60944 0.0
C3643 C 0.63899 0.9311 0.62485 0.0
C3644 C 0.63634 0.91803 0.63481 0.0
C3645 C 0.62566 0.9014 0.62939 0.0
H3646 H 0.00987 0.68259 0.61918 0.0
H3647 H 0.02099 0.7058 0.66891 0.0
H3648 H 0.03865 0.69956 0.61229 0.0
H3649 H 0.04968 0.72247 0.66213 0.0
H3650 H 0.09888 0.75925 0.6422 0.0
H3651 H 0.06943 0.7449 0.64535 0.0
H3652 H 0.06363 0.70082 0.62013 0.0
H3653 H 0.09309 0.71536 0.61671 0.0
C3654 C 0.01841 0.69139 0.6286 0.0
C3655 C 0.01313 0.69278 0.64462 0.0
C3656 C 0.03492 0.70104 0.62467 0.0
C3657 C 0.04648 0.71233 0.63667 0.0
C3658 C 0.04109 0.71406 0.65252 0.0
C3659 C 0.02463 0.70441 0.65645 0.0
C3660 C 0.09126 0.7466 0.63706 0.0
C3661 C 0.09824 0.73847 0.62908 0.0
C3662 C 0.07442 0.73834 0.63897 0.0
C3663 C 0.06418 0.72169 0.63306 0.0
C3664 C 0.07114 0.71371 0.62463 0.0
C3665 C 0.088 0.722 0.6227 0.0
H3666 H 0.96496 0.62425 0.70526 0.0
H3667 H 0.00445 0.6356 0.67197 0.0
H3668 H 0.97145 0.60709 0.72115 0.0
H3669 H 0.01139 0.6191 0.6882 0.0
H3670 H 0.0136 0.57864 0.71301 0.0
H3671 H 0.00378 0.59217 0.69569 0.0
H3672 H 0.99143 0.61025 0.74019 0.0
H3673 H 0.00045 0.59596 0.75735 0.0
C3674 C 0.97503 0.62309 0.70134 0.0
C3675 C 0.98422 0.63133 0.68739 0.0
C3676 C 0.97883 0.61333 0.71052 0.0
C3677 C 0.99203 0.61177 0.70606 0.0
C3678 C 0.00099 0.61978 0.69189 0.0
C3679 C 0.99707 0.62935 0.68261 0.0
C3680 C 0.00865 0.5854 0.71904 0.0
C3681 C 0.00789 0.58635 0.73653 0.0
C3682 C 0.00313 0.59326 0.70913 0.0
C3683 C 0.99689 0.60243 0.71651 0.0
C3684 C 0.99592 0.60313 0.73402 0.0
C3685 C 0.00125 0.5951 0.7439 0.0
H3686 H 0.39174 0.36591 0.69897 0.0
H3687 H 0.34682 0.36478 0.70431 0.0
H3688 H 0.4069 0.39466 0.71033 0.0
H3689 H 0.3619 0.39349 0.71501 0.0
H3690 H 0.39078 0.44271 0.74247 0.0
H3691 H 0.37757 0.4127 0.73707 0.0
H3692 H 0.41448 0.42139 0.70118 0.0
H3693 H 0.42802 0.45131 0.70721 0.0
C3694 C 0.3851 0.37175 0.70265 0.0
C3695 C 0.36809 0.36307 0.70064 0.0
C3696 C 0.39379 0.38827 0.70907 0.0
C3697 C 0.38566 0.39648 0.71352 0.0
C3698 C 0.36859 0.38756 0.71199 0.0
C3699 C 0.35992 0.37106 0.70571 0.0
C3700 C 0.39628 0.43816 0.73376 0.0
C3701 C 0.41059 0.44933 0.72544 0.0
C3702 C 0.38862 0.42096 0.73051 0.0
C3703 C 0.39489 0.41457 0.71861 0.0
C3704 C 0.40943 0.42578 0.71063 0.0
C3705 C 0.41717 0.44295 0.71401 0.0
H3706 H 0.62399 0.99595 0.66678 0.0
H3707 H 0.65422 0.03678 0.702 0.0
H3708 H 0.60016 0.98884 0.68315 0.0
H3709 H 0.63021 0.03014 0.71807 0.0
H3710 H 0.58826 0.00027 0.7536 0.0
H3711 H 0.61203 0.00965 0.73622 0.0
H3712 H 0.58156 0.99628 0.69193 0.0
H3713 H 0.55769 0.9861 0.70942 0.0
C3714 C 0.6255 0.00362 0.67786 0.0
C3715 C 0.64101 0.01686 0.68316 0.0
C3716 C 0.61179 0.99959 0.68723 0.0
C3717 C 0.61322 0.00884 0.70202 0.0
C3718 C 0.62868 0.02251 0.70695 0.0
C3719 C 0.64244 0.02641 0.69768 0.0
C3720 C 0.58668 0.99931 0.74014 0.0
C3721 C 0.57111 0.9923 0.73286 0.0
C3722 C 0.60032 0.00486 0.73015 0.0
C3723 C 0.59877 0.00374 0.71262 0.0
C3724 C 0.58321 0.99708 0.70537 0.0
C3725 C 0.56953 0.99134 0.71537 0.0
loop_
_geom_bond_atom_site_label_1
_geom_bond_atom_site_label_2
_geom_bond_distance
_geom_bond_site_symmetry_2
_ccdc_geom_bond_type
C0 O1 1.160 . S
C0 O7 1.185 . S
O1 C0 1.160 . S
O2 Zn3 1.899 1_656 S
O2 C10 1.284 . S
Zn3 O2 1.899 1_454 S
Zn3 O4 2.032 . S
Zn3 O7 2.086 . S
Zn3 O12 1.977 1_554 S
O4 Zn3 2.032 . S
O4 C8 1.278 1_455 S
C5 O6 1.203 1_455 S
C5 O12 1.267 . S
O6 C5 1.203 1_655 S
O7 C0 1.185 . S
O7 Zn3 2.086 . S
C8 O4 1.278 1_655 S
C8 O9 1.211 . S
O9 C8 1.211 . S
C10 O2 1.284 . S
C10 O11 1.273 1_556 S
O11 C10 1.273 1_554 S
O12 Zn3 1.977 1_556 S
O12 C5 1.267 . S
C13 O14 1.153 1_554 S
C13 O20 1.200 . S
O14 C13 1.153 1_556 S
O15 Zn16 1.899 . S
O15 C23 1.284 . S
Zn16 O15 1.899 . S
Zn16 O17 2.032 1_554 S
Zn16 O20 2.086 . S
Zn16 O25 1.977 . S
O17 Zn16 2.032 1_556 S
O17 C21 1.278 . S
C18 O19 1.203 . S
C18 O25 1.267 . S
O19 C18 1.203 . S
O20 C13 1.200 . S
O20 Zn16 2.086 . S
C21 O17 1.278 . S
C21 O22 1.211 1_556 S
O22 C21 1.211 1_554 S
C23 O15 1.284 . S
C23 O24 1.273 . S
O24 C23 1.273 . S
O25 Zn16 1.977 . S
O25 C18 1.267 . S
C26 O27 1.160 . S
C26 O33 1.185 1_556 S
O27 C26 1.160 . S
O28 Zn29 1.899 . S
O28 C36 1.284 1_545 S
Zn29 O28 1.899 . S
Zn29 O30 2.032 1_554 S
Zn29 O33 2.086 . S
Zn29 O38 1.977 . S
O30 Zn29 2.032 1_556 S
O30 C34 1.278 . S
C31 O32 1.203 . S
C31 O38 1.267 . S
O32 C31 1.203 . S
O33 C26 1.185 1_554 S
O33 Zn29 2.086 . S
C34 O30 1.278 . S
C34 O35 1.225 1_545 S
O35 C34 1.225 1_565 S
C36 O28 1.284 1_565 S
C36 O37 1.273 . S
O37 C36 1.273 . S
O38 Zn29 1.977 . S
O38 C31 1.267 . S
C39 O40 1.160 . S
C39 O46 1.185 1_556 S
O40 C39 1.160 . S
O41 Zn42 1.899 1_455 S
O41 C49 1.284 . S
Zn42 O41 1.899 1_655 S
Zn42 O43 2.032 1_654 S
Zn42 O46 2.086 . S
Zn42 O51 1.977 . S
O43 Zn42 2.032 1_456 S
O43 C47 1.278 . S
C44 O45 1.203 1_655 S
C44 O51 1.267 . S
O45 C44 1.203 1_455 S
O46 C39 1.185 1_554 S
O46 Zn42 2.086 . S
C47 O43 1.278 . S
C47 O48 1.230 . S
O48 C47 1.230 . S
C49 O41 1.284 . S
C49 O50 1.273 . S
O50 C49 1.273 . S
O51 Zn42 1.977 . S
O51 C44 1.267 . S
C52 O53 1.160 . S
C52 O59 1.185 . S
O53 C52 1.160 . S
O54 Zn55 1.889 1_556 S
O54 C62 1.284 . S
Zn55 O54 1.889 1_554 S
Zn55 O56 2.048 . S
Zn55 O59 2.094 . S
Zn55 O64 1.966 1_554 S
O56 Zn55 2.048 . S
O56 C60 1.278 . S
C57 O58 1.203 . S
C57 O64 1.267 . S
O58 C57 1.203 . S
O59 C52 1.185 . S
O59 Zn55 2.094 . S
C60 O56 1.278 . S
C60 O61 1.211 . S
O61 C60 1.211 . S
C62 O54 1.284 . S
C62 O63 1.273 . S
O63 C62 1.273 . S
O64 Zn55 1.966 1_556 S
O64 C57 1.267 . S
C65 O66 1.160 . S
C65 O72 1.185 . S
O66 C65 1.160 . S
O67 Zn68 1.899 1_546 S
O67 C75 1.281 1_556 S
Zn68 O67 1.899 1_564 S
Zn68 O69 2.032 1_565 S
Zn68 O72 2.086 . S
Zn68 O77 1.977 1_554 S
O69 Zn68 2.032 1_545 S
O69 C73 1.278 . S
C70 O71 1.203 1_565 S
C70 O77 1.267 . S
O71 C70 1.203 1_545 S
O72 C65 1.185 . S
O72 Zn68 2.086 . S
C73 O69 1.278 . S
C73 O74 1.211 . S
O74 C73 1.211 . S
C75 O67 1.281 1_554 S
C75 O76 1.287 . S
O76 C75 1.287 . S
O77 Zn68 1.977 1_556 S
O77 C70 1.267 . S
C78 O79 1.160 . S
C78 O85 1.185 . S
O79 C78 1.160 . S
O80 Zn81 1.899 . S
O80 C88 1.284 . S
Zn81 O80 1.899 . S
Zn81 O82 2.032 . S
Zn81 O85 2.086 . S
Zn81 O90 1.977 . S
O82 Zn81 2.032 . S
O82 C86 1.278 . S
C83 O84 1.203 . S
C83 O90 1.267 . S
O84 C83 1.203 . S
O85 C78 1.185 . S
O85 Zn81 2.086 . S
C86 O82 1.278 . S
C86 O87 1.211 . S
O87 C86 1.211 . S
C88 O80 1.284 . S
C88 O89 1.273 . S
O89 C88 1.273 . S
O90 Zn81 1.977 . S
O90 C83 1.267 . S
C91 O92 1.160 1_565 S
C91 O98 1.185 . S
O92 C91 1.160 1_545 S
O93 Zn94 1.899 1_545 S
O93 C101 1.284 . S
Zn94 O93 1.899 1_565 S
Zn94 O95 2.032 . S
Zn94 O98 2.086 . S
Zn94 O103 1.977 . S
O95 Zn94 2.032 . S
O95 C99 1.278 . S
C96 O97 1.203 . S
C96 O103 1.267 . S
O97 C96 1.203 . S
O98 C91 1.185 . S
O98 Zn94 2.086 . S
C99 O95 1.278 . S
C99 O100 1.211 . S
O100 C99 1.211 . S
C101 O93 1.284 . S
C101 O102 1.273 . S
O102 C101 1.273 . S
O103 Zn94 1.977 . S
O103 C96 1.267 . S
C104 O105 1.160 . S
C104 O111 1.185 . S
O105 C104 1.160 . S
O106 Zn107 1.899 . S
O106 C114 1.283 . S
Zn107 O106 1.899 . S
Zn107 O108 2.032 . S
Zn107 O111 2.086 . S
Zn107 O116 1.977 . S
O108 Zn107 2.032 . S
O108 C112 1.278 . S
C109 O110 1.203 . S
C109 O116 1.267 . S
O110 C109 1.203 . S
O111 C104 1.185 . S
O111 Zn107 2.086 . S
C112 O108 1.278 . S
C112 O113 1.211 . S
O113 C112 1.211 . S
C114 O106 1.283 . S
C114 O115 1.297 . S
O115 C114 1.297 . S
O116 Zn107 1.977 . S
O116 C109 1.267 . S
C117 O118 1.160 1_565 S
C117 O124 1.185 . S
O118 C117 1.160 1_545 S
O119 Zn120 1.899 1_545 S
O119 C127 1.284 . S
Zn120 O119 1.899 1_565 S
Zn120 O121 2.032 . S
Zn120 O124 2.086 . S
Zn120 O129 1.977 . S
O121 Zn120 2.032 . S
O121 C125 1.278 . S
C122 O123 1.203 . S
C122 O129 1.267 . S
O123 C122 1.203 . S
O124 C117 1.185 . S
O124 Zn120 2.086 . S
C125 O121 1.278 . S
C125 O126 1.211 . S
O126 C125 1.211 . S
C127 O119 1.284 . S
C127 O128 1.273 . S
O128 C127 1.273 . S
O129 Zn120 1.977 . S
O129 C122 1.267 . S
C130 O131 1.160 . S
C130 O137 1.185 . S
O131 C130 1.160 . S
O132 Zn133 1.899 . S
O132 C140 1.284 . S
Zn133 O132 1.899 . S
Zn133 O134 2.032 . S
Zn133 O137 2.086 1_455 S
Zn133 O142 1.977 . S
O134 Zn133 2.032 . S
O134 C138 1.278 . S
C135 O136 1.203 . S
C135 O142 1.267 . S
O136 C135 1.203 . S
O137 C130 1.185 . S
O137 Zn133 2.086 1_655 S
C138 O134 1.278 . S
C138 O139 1.211 . S
O139 C138 1.211 . S
C140 O132 1.284 . S
C140 O141 1.273 . S
O141 C140 1.273 . S
O142 Zn133 1.977 . S
O142 C135 1.267 . S
C143 O144 1.160 . S
C143 O150 1.185 . S
O144 C143 1.160 . S
O145 Zn146 1.899 . S
O145 C153 1.284 . S
Zn146 O145 1.899 . S
Zn146 O147 2.032 . S
Zn146 O150 2.086 . S
Zn146 O155 1.977 . S
O147 Zn146 2.032 . S
O147 C151 1.278 . S
C148 O149 1.203 . S
C148 O155 1.267 . S
O149 C148 1.203 . S
O150 C143 1.185 . S
O150 Zn146 2.086 . S
C151 O147 1.278 . S
C151 O152 1.211 . S
O152 C151 1.211 . S
C153 O145 1.284 . S
C153 O154 1.273 . S
O154 C153 1.273 . S
O155 Zn146 1.977 . S
O155 C148 1.267 . S
C156 O157 1.160 . S
C156 O163 1.185 . S
O157 C156 1.160 . S
O158 Zn159 1.899 . S
O158 C166 1.284 1_545 S
Zn159 O158 1.899 . S
Zn159 O160 2.032 . S
Zn159 O163 2.086 . S
Zn159 O168 1.977 . S
O160 Zn159 2.032 . S
O160 C164 1.278 . S
C161 O162 1.203 . S
C161 O168 1.267 . S
O162 C161 1.203 . S
O163 C156 1.185 . S
O163 Zn159 2.086 . S
C164 O160 1.278 . S
C164 O165 1.211 . S
O165 C164 1.211 . S
C166 O158 1.284 1_565 S
C166 O167 1.273 1_565 S
O167 C166 1.273 1_545 S
O168 Zn159 1.977 . S
O168 C161 1.267 . S
C169 O170 1.160 . S
C169 O176 1.185 . S
O170 C169 1.160 . S
O171 Zn172 1.899 . S
O171 C179 1.284 . S
Zn172 O171 1.899 . S
Zn172 O173 2.032 . S
Zn172 O176 2.086 1_655 S
Zn172 O181 1.977 . S
O173 Zn172 2.032 . S
O173 C177 1.278 . S
C174 O175 1.203 . S
C174 O181 1.267 . S
O175 C174 1.203 . S
O176 C169 1.185 . S
O176 Zn172 2.086 1_455 S
C177 O173 1.278 . S
C177 O178 1.211 . S
O178 C177 1.211 . S
C179 O171 1.284 . S
C179 O180 1.273 . S
O180 C179 1.273 . S
O181 Zn172 1.977 . S
O181 C174 1.267 . S
C182 O183 1.160 . S
C182 O189 1.185 . S
O183 C182 1.160 . S
O184 Zn185 1.899 . S
O184 C192 1.284 . S
Zn185 O184 1.899 . S
Zn185 O186 2.032 . S
Zn185 O189 2.086 . S
Zn185 O194 1.977 . S
O186 Zn185 2.032 . S
O186 C190 1.278 . S
C187 O188 1.203 . S
C187 O194 1.267 . S
O188 C187 1.203 . S
O189 C182 1.185 . S
O189 Zn185 2.086 . S
C190 O186 1.278 . S
C190 O191 1.211 . S
O191 C190 1.211 . S
C192 O184 1.284 . S
C192 O193 1.273 . S
O193 C192 1.273 . S
O194 Zn185 1.977 . S
O194 C187 1.267 . S
C195 O196 1.160 . S
C195 O202 1.185 . S
O196 C195 1.160 . S
O197 Zn198 1.899 . S
O197 C205 1.284 . S
Zn198 O197 1.899 . S
Zn198 O199 2.032 . S
Zn198 O202 2.086 . S
Zn198 O207 1.977 . S
O199 Zn198 2.032 . S
O199 C203 1.278 . S
C200 O201 1.203 . S
C200 O207 1.267 . S
O201 C200 1.203 . S
O202 C195 1.185 . S
O202 Zn198 2.086 . S
C203 O199 1.278 . S
C203 O204 1.211 . S
O204 C203 1.211 . S
C205 O197 1.284 . S
C205 O206 1.273 . S
O206 C205 1.273 . S
O207 Zn198 1.977 . S
O207 C200 1.267 . S
C208 O209 1.160 . S
C208 O215 1.185 . S
O209 C208 1.160 . S
O210 Zn211 1.899 . S
O210 C218 1.284 1_545 S
Zn211 O210 1.899 . S
Zn211 O212 2.032 . S
Zn211 O215 2.086 . S
Zn211 O220 1.977 . S
O212 Zn211 2.032 . S
O212 C216 1.278 . S
C213 O214 1.203 . S
C213 O220 1.267 . S
O214 C213 1.203 . S
O215 C208 1.185 . S
O215 Zn211 2.086 . S
C216 O212 1.278 . S
C216 O217 1.211 . S
O217 C216 1.211 . S
C218 O210 1.284 1_565 S
C218 O219 1.273 1_565 S
O219 C218 1.273 1_545 S
O220 Zn211 1.977 . S
O220 C213 1.267 . S
C221 O222 1.160 . S
C221 O228 1.185 . S
O222 C221 1.160 . S
O223 Zn224 1.899 . S
O223 C231 1.284 1_655 S
Zn224 O223 1.899 . S
Zn224 O225 2.032 . S
Zn224 O228 2.086 . S
Zn224 O233 1.977 . S
O225 Zn224 2.032 . S
O225 C229 1.278 . S
C226 O227 1.203 . S
C226 O233 1.267 . S
O227 C226 1.203 . S
O228 C221 1.185 . S
O228 Zn224 2.086 . S
C229 O225 1.278 . S
C229 O230 1.211 . S
O230 C229 1.211 . S
C231 O223 1.284 1_455 S
C231 O232 1.273 1_455 S
O232 C231 1.273 1_655 S
O233 Zn224 1.977 . S
O233 C226 1.267 . S
C234 C235 1.560 . S
C234 H295 0.959 . S
C234 H296 0.959 . S
C234 H297 0.960 . S
C235 C234 1.560 . S
C235 O290 1.426 . S
C235 H294 0.980 . S
C236 C237 1.407 . S
C236 C241 1.418 . S
C236 O290 1.334 . S
C237 C236 1.407 . S
C237 C238 1.360 . S
C237 H298 0.929 . S
C238 C237 1.360 . S
C238 C239 1.401 . S
C238 C242 1.527 . S
C239 C238 1.401 . S
C239 C240 1.405 . S
C239 C272 1.587 . S
C240 C239 1.405 . S
C240 C241 1.332 . S
C240 C243 1.496 . S
C241 C236 1.418 . S
C241 C240 1.332 . S
C241 H299 0.929 . S
C242 C238 1.527 . S
C242 H300 0.959 . S
C242 H301 0.961 . S
C242 H302 0.961 . S
C243 C240 1.496 . S
C243 H303 0.960 . S
C243 H304 0.960 . S
C243 H305 0.961 . S
C244 C245 1.517 . S
C244 H307 0.961 . S
C244 H308 0.960 . S
C244 H309 0.959 . S
C245 C244 1.517 . S
C245 O293 1.468 . S
C245 H306 0.980 . S
C246 C247 1.349 . S
C246 C251 1.367 . S
C246 O293 1.408 . S
C247 C246 1.349 . S
C247 C248 1.407 . S
C247 H310 0.930 . S
C248 C247 1.407 . S
C248 C249 1.449 . S
C248 C252 1.535 . S
C249 C248 1.449 . S
C249 C250 1.384 . S
C249 C274 1.553 . S
C250 C249 1.384 . S
C250 C251 1.364 . S
C250 C253 1.450 . S
C251 C246 1.367 . S
C251 C250 1.364 . S
C251 H311 0.931 . S
C252 C248 1.535 . S
C252 H312 0.959 . S
C252 H313 0.961 . S
C252 H314 0.959 . S
C253 C250 1.450 . S
C253 H315 0.960 . S
C253 H316 0.960 . S
C253 H317 0.960 . S
C254 C255 1.309 . S
C254 C259 1.304 . S
C254 O292 1.435 . S
C255 C254 1.309 . S
C255 C256 1.476 . S
C255 H319 0.930 . S
C256 C255 1.476 . S
C256 C257 1.400 . S
C256 C260 1.567 . S
C257 C256 1.400 . S
C257 C258 1.373 . S
C257 C279 1.432 . S
C258 C257 1.373 . S
C258 C259 1.339 . S
C258 C261 1.530 . S
C259 C254 1.304 . S
C259 C258 1.339 . S
C259 H320 0.930 . S
C260 C256 1.567 . S
C260 H321 0.961 . S
C260 H322 0.960 . S
C260 H323 0.958 . S
C261 C258 1.530 . S
C261 H324 0.961 . S
C261 H325 0.960 . S
C261 H326 0.960 . S
C262 C263 1.530 . S
C262 H328 0.961 . S
C262 H329 0.961 . S
C262 H330 0.959 . S
C263 C262 1.530 . S
C263 O291 1.412 . S
C263 H327 0.980 . S
C264 C265 1.288 . S
C264 C269 1.377 . S
C264 O291 1.393 . S
C265 C264 1.288 . S
C265 C266 1.369 . S
C265 H331 0.932 . S
C266 C265 1.369 . S
C266 C267 1.398 . S
C266 C270 1.527 . S
C267 C266 1.398 . S
C267 C268 1.380 . S
C267 C281 1.497 . S
C268 C267 1.380 . S
C268 C269 1.383 . S
C268 C271 1.603 . S
C269 C264 1.377 . S
C269 C268 1.383 . S
C269 H332 0.929 . S
C270 C266 1.527 . S
C270 H333 0.961 . S
C270 H334 0.959 . S
C270 H335 0.959 . S
C271 C268 1.603 . S
C271 H336 0.960 . S
C271 H337 0.962 . S
C271 H338 0.961 . S
C272 C239 1.587 . S
C272 C273 1.360 . S
C272 C285 1.412 . S
C273 C272 1.360 . S
C273 C274 1.365 . S
C273 H339 0.929 . S
C274 C249 1.553 . S
C274 C273 1.365 . S
C274 C275 1.404 . S
C275 C274 1.404 . S
C275 C276 1.395 . S
C275 C286 1.451 . S
C276 C275 1.395 . S
C276 C277 1.322 . S
C276 H340 0.930 . S
C277 C276 1.322 . S
C277 C278 1.459 . S
C277 H341 0.929 . S
C278 C277 1.459 . S
C278 C279 1.445 . S
C278 C287 1.395 . S
C279 C257 1.432 . S
C279 C278 1.445 . S
C279 C280 1.370 . S
C280 C279 1.370 . S
C280 C281 1.438 . S
C280 H342 0.930 . S
C281 C267 1.497 . S
C281 C280 1.438 . S
C281 C282 1.360 . S
C282 C281 1.360 . S
C282 C283 1.401 . S
C282 C287 1.446 . S
C283 C282 1.401 . S
C283 C284 1.347 . S
C283 H343 0.929 . S
C284 C283 1.347 . S
C284 C285 1.455 . S
C284 H344 0.930 . S
C285 C272 1.412 . S
C285 C284 1.455 . S
C285 C286 1.331 . S
C286 C275 1.451 . S
C286 C285 1.331 . S
C286 C287 1.497 . S
C287 C278 1.395 . S
C287 C282 1.446 . S
C287 C286 1.497 . S
C288 C289 1.582 . S
C288 H345 0.962 . S
C288 H346 0.959 . S
C288 H347 0.958 . S
C289 C288 1.582 . S
C289 O292 1.458 . S
C289 H318 0.980 . S
O290 C235 1.426 . S
O290 C236 1.334 . S
O291 C263 1.412 . S
O291 C264 1.393 . S
O292 C254 1.435 . S
O292 C289 1.458 . S
O293 C245 1.468 . S
O293 C246 1.408 . S
H294 C235 0.980 . S
H295 C234 0.959 . S
H296 C234 0.959 . S
H297 C234 0.960 . S
H298 C237 0.929 . S
H299 C241 0.929 . S
H300 C242 0.959 . S
H301 C242 0.961 . S
H302 C242 0.961 . S
H303 C243 0.960 . S
H304 C243 0.960 . S
H305 C243 0.961 . S
H306 C245 0.980 . S
H307 C244 0.961 . S
H308 C244 0.960 . S
H309 C244 0.959 . S
H310 C247 0.930 . S
H311 C251 0.931 . S
H312 C252 0.959 . S
H313 C252 0.961 . S
H314 C252 0.959 . S
H315 C253 0.960 . S
H316 C253 0.960 . S
H317 C253 0.960 . S
H318 C289 0.980 . S
H319 C255 0.930 . S
H320 C259 0.930 . S
H321 C260 0.961 . S
H322 C260 0.960 . S
H323 C260 0.958 . S
H324 C261 0.961 . S
H325 C261 0.960 . S
H326 C261 0.960 . S
H327 C263 0.980 . S
H328 C262 0.961 . S
H329 C262 0.961 . S
H330 C262 0.959 . S
H331 C265 0.932 . S
H332 C269 0.929 . S
H333 C270 0.961 . S
H334 C270 0.959 . S
H335 C270 0.959 . S
H336 C271 0.960 . S
H337 C271 0.962 . S
H338 C271 0.961 . S
H339 C273 0.929 . S
H340 C276 0.930 . S
H341 C277 0.929 . S
H342 C280 0.930 . S
H343 C283 0.929 . S
H344 C284 0.930 . S
H345 C288 0.962 . S
H346 C288 0.959 . S
H347 C288 0.958 . S
C348 C349 1.560 . S
C348 H409 0.959 . S
C348 H410 0.959 . S
C348 H411 0.960 . S
C349 C348 1.560 . S
C349 O404 1.426 . S
C349 H408 0.980 . S
C350 C351 1.407 . S
C350 C355 1.418 . S
C350 O404 1.334 . S
C351 C350 1.407 . S
C351 C352 1.360 . S
C351 H412 0.929 . S
C352 C351 1.360 . S
C352 C353 1.401 . S
C352 C356 1.527 . S
C353 C352 1.401 . S
C353 C354 1.405 . S
C353 C386 1.587 . S
C354 C353 1.405 . S
C354 C355 1.332 . S
C354 C357 1.496 . S
C355 C350 1.418 . S
C355 C354 1.332 . S
C355 H413 0.929 . S
C356 C352 1.527 . S
C356 H414 0.959 . S
C356 H415 0.961 . S
C356 H416 0.961 . S
C357 C354 1.496 . S
C357 H417 0.960 . S
C357 H418 0.960 . S
C357 H419 0.961 . S
C358 C359 1.517 . S
C358 H421 0.961 . S
C358 H422 0.960 . S
C358 H423 0.959 . S
C359 C358 1.517 . S
C359 O407 1.468 . S
C359 H420 0.980 . S
C360 C361 1.349 . S
C360 C365 1.367 . S
C360 O407 1.408 . S
C361 C360 1.349 . S
C361 C362 1.407 . S
C361 H424 0.930 . S
C362 C361 1.407 . S
C362 C363 1.449 . S
C362 C366 1.535 . S
C363 C362 1.449 . S
C363 C364 1.384 . S
C363 C388 1.553 . S
C364 C363 1.384 . S
C364 C365 1.364 . S
C364 C367 1.450 . S
C365 C360 1.367 . S
C365 C364 1.364 . S
C365 H425 0.931 . S
C366 C362 1.535 . S
C366 H426 0.959 . S
C366 H427 0.961 . S
C366 H428 0.959 . S
C367 C364 1.450 . S
C367 H429 0.960 . S
C367 H430 0.960 . S
C367 H431 0.960 . S
C368 C369 1.309 . S
C368 C373 1.304 . S
C368 O406 1.435 . S
C369 C368 1.309 . S
C369 C370 1.476 . S
C369 H433 0.930 . S
C370 C369 1.476 . S
C370 C371 1.400 . S
C370 C374 1.567 . S
C371 C370 1.400 . S
C371 C372 1.373 . S
C371 C393 1.432 . S
C372 C371 1.373 . S
C372 C373 1.339 . S
C372 C375 1.530 . S
C373 C368 1.304 . S
C373 C372 1.339 . S
C373 H434 0.930 . S
C374 C370 1.567 . S
C374 H435 0.961 . S
C374 H436 0.960 . S
C374 H437 0.958 . S
C375 C372 1.530 . S
C375 H438 0.961 . S
C375 H439 0.960 . S
C375 H440 0.960 . S
C376 C377 1.530 . S
C376 H442 0.961 . S
C376 H443 0.961 . S
C376 H444 0.959 . S
C377 C376 1.530 . S
C377 O405 1.412 . S
C377 H441 0.980 . S
C378 C379 1.288 . S
C378 C383 1.377 . S
C378 O405 1.393 . S
C379 C378 1.288 . S
C379 C380 1.369 . S
C379 H445 0.932 . S
C380 C379 1.369 . S
C380 C381 1.398 . S
C380 C384 1.527 . S
C381 C380 1.398 . S
C381 C382 1.380 . S
C381 C395 1.497 . S
C382 C381 1.380 . S
C382 C383 1.383 . S
C382 C385 1.603 . S
C383 C378 1.377 . S
C383 C382 1.383 . S
C383 H446 0.929 . S
C384 C380 1.527 . S
C384 H447 0.961 . S
C384 H448 0.959 . S
C384 H449 0.959 . S
C385 C382 1.603 . S
C385 H450 0.960 . S
C385 H451 0.962 . S
C385 H452 0.961 . S
C386 C353 1.587 . S
C386 C387 1.360 . S
C386 C399 1.412 . S
C387 C386 1.360 . S
C387 C388 1.365 . S
C387 H453 0.929 . S
C388 C363 1.553 . S
C388 C387 1.365 . S
C388 C389 1.404 . S
C389 C388 1.404 . S
C389 C390 1.395 . S
C389 C400 1.451 . S
C390 C389 1.395 . S
C390 C391 1.322 . S
C390 H454 0.930 . S
C391 C390 1.322 . S
C391 C392 1.459 . S
C391 H455 0.929 . S
C392 C391 1.459 . S
C392 C393 1.445 . S
C392 C401 1.395 . S
C393 C371 1.432 . S
C393 C392 1.445 . S
C393 C394 1.370 . S
C394 C393 1.370 . S
C394 C395 1.438 . S
C394 H456 0.930 . S
C395 C381 1.497 . S
C395 C394 1.438 . S
C395 C396 1.360 . S
C396 C395 1.360 . S
C396 C397 1.401 . S
C396 C401 1.446 . S
C397 C396 1.401 . S
C397 C398 1.347 . S
C397 H457 0.929 . S
C398 C397 1.347 . S
C398 C399 1.455 . S
C398 H458 0.930 . S
C399 C386 1.412 . S
C399 C398 1.455 . S
C399 C400 1.331 . S
C400 C389 1.451 . S
C400 C399 1.331 . S
C400 C401 1.497 . S
C401 C392 1.395 . S
C401 C396 1.446 . S
C401 C400 1.497 . S
C402 C403 1.582 . S
C402 H459 0.962 . S
C402 H460 0.959 . S
C402 H461 0.958 . S
C403 C402 1.582 . S
C403 O406 1.458 . S
C403 H432 0.980 . S
O404 C349 1.426 . S
O404 C350 1.334 . S
O405 C377 1.412 . S
O405 C378 1.393 . S
O406 C368 1.435 . S
O406 C403 1.458 . S
O407 C359 1.468 . S
O407 C360 1.408 . S
H408 C349 0.980 . S
H409 C348 0.959 . S
H410 C348 0.959 . S
H411 C348 0.960 . S
H412 C351 0.929 . S
H413 C355 0.929 . S
H414 C356 0.959 . S
H415 C356 0.961 . S
H416 C356 0.961 . S
H417 C357 0.960 . S
H418 C357 0.960 . S
H419 C357 0.961 . S
H420 C359 0.980 . S
H421 C358 0.961 . S
H422 C358 0.960 . S
H423 C358 0.959 . S
H424 C361 0.930 . S
H425 C365 0.931 . S
H426 C366 0.959 . S
H427 C366 0.961 . S
H428 C366 0.959 . S
H429 C367 0.960 . S
H430 C367 0.960 . S
H431 C367 0.960 . S
H432 C403 0.980 . S
H433 C369 0.930 . S
H434 C373 0.930 . S
H435 C374 0.961 . S
H436 C374 0.960 . S
H437 C374 0.958 . S
H438 C375 0.961 . S
H439 C375 0.960 . S
H440 C375 0.960 . S
H441 C377 0.980 . S
H442 C376 0.961 . S
H443 C376 0.961 . S
H444 C376 0.959 . S
H445 C379 0.932 . S
H446 C383 0.929 . S
H447 C384 0.961 . S
H448 C384 0.959 . S
H449 C384 0.959 . S
H450 C385 0.960 . S
H451 C385 0.962 . S
H452 C385 0.961 . S
H453 C387 0.929 . S
H454 C390 0.930 . S
H455 C391 0.929 . S
H456 C394 0.930 . S
H457 C397 0.929 . S
H458 C398 0.930 . S
H459 C402 0.962 . S
H460 C402 0.959 . S
H461 C402 0.958 . S
C462 C463 1.560 . S
C462 H523 0.959 . S
C462 H524 0.959 . S
C462 H525 0.960 . S
C463 C462 1.560 . S
C463 O518 1.426 . S
C463 H522 0.980 . S
C464 C465 1.407 . S
C464 C469 1.418 . S
C464 O518 1.334 . S
C465 C464 1.407 . S
C465 C466 1.360 . S
C465 H526 0.929 . S
C466 C465 1.360 . S
C466 C467 1.401 . S
C466 C470 1.527 . S
C467 C466 1.401 . S
C467 C468 1.405 . S
C467 C500 1.587 . S
C468 C467 1.405 . S
C468 C469 1.332 . S
C468 C471 1.496 . S
C469 C464 1.418 . S
C469 C468 1.332 . S
C469 H527 0.929 . S
C470 C466 1.527 . S
C470 H528 0.959 . S
C470 H529 0.961 . S
C470 H530 0.961 . S
C471 C468 1.496 . S
C471 H531 0.960 . S
C471 H532 0.960 . S
C471 H533 0.961 . S
C472 C473 1.517 . S
C472 H535 0.961 . S
C472 H536 0.960 . S
C472 H537 0.959 . S
C473 C472 1.517 . S
C473 O521 1.468 . S
C473 H534 0.980 . S
C474 C475 1.349 . S
C474 C479 1.367 . S
C474 O521 1.408 . S
C475 C474 1.349 . S
C475 C476 1.407 . S
C475 H538 0.930 . S
C476 C475 1.407 . S
C476 C477 1.449 . S
C476 C480 1.535 . S
C477 C476 1.449 . S
C477 C478 1.384 . S
C477 C502 1.553 . S
C478 C477 1.384 . S
C478 C479 1.364 . S
C478 C481 1.450 . S
C479 C474 1.367 . S
C479 C478 1.364 . S
C479 H539 0.931 . S
C480 C476 1.535 . S
C480 H540 0.959 . S
C480 H541 0.961 . S
C480 H542 0.959 . S
C481 C478 1.450 . S
C481 H543 0.960 . S
C481 H544 0.960 . S
C481 H545 0.960 . S
C482 C483 1.309 . S
C482 C487 1.304 . S
C482 O520 1.435 . S
C483 C482 1.309 . S
C483 C484 1.476 . S
C483 H547 0.930 . S
C484 C483 1.476 . S
C484 C485 1.400 . S
C484 C488 1.567 . S
C485 C484 1.400 . S
C485 C486 1.373 . S
C485 C507 1.432 . S
C486 C485 1.373 . S
C486 C487 1.339 . S
C486 C489 1.530 . S
C487 C482 1.304 . S
C487 C486 1.339 . S
C487 H548 0.930 . S
C488 C484 1.567 . S
C488 H549 0.961 . S
C488 H550 0.960 . S
C488 H551 0.958 . S
C489 C486 1.530 . S
C489 H552 0.961 . S
C489 H553 0.960 . S
C489 H554 0.960 . S
C490 C491 1.530 . S
C490 H556 0.961 . S
C490 H557 0.961 . S
C490 H558 0.959 . S
C491 C490 1.530 . S
C491 O519 1.412 . S
C491 H555 0.980 . S
C492 C493 1.288 . S
C492 C497 1.377 . S
C492 O519 1.393 . S
C493 C492 1.288 . S
C493 C494 1.369 . S
C493 H559 0.932 . S
C494 C493 1.369 . S
C494 C495 1.398 . S
C494 C498 1.527 . S
C495 C494 1.398 . S
C495 C496 1.380 . S
C495 C509 1.497 . S
C496 C495 1.380 . S
C496 C497 1.383 . S
C496 C499 1.603 . S
C497 C492 1.377 . S
C497 C496 1.383 . S
C497 H560 0.929 . S
C498 C494 1.527 . S
C498 H561 0.961 . S
C498 H562 0.959 . S
C498 H563 0.959 . S
C499 C496 1.603 . S
C499 H564 0.960 . S
C499 H565 0.962 . S
C499 H566 0.961 . S
C500 C467 1.587 . S
C500 C501 1.360 . S
C500 C513 1.412 . S
C501 C500 1.360 . S
C501 C502 1.365 . S
C501 H567 0.929 . S
C502 C477 1.553 . S
C502 C501 1.365 . S
C502 C503 1.404 . S
C503 C502 1.404 . S
C503 C504 1.395 . S
C503 C514 1.451 . S
C504 C503 1.395 . S
C504 C505 1.322 . S
C504 H568 0.930 . S
C505 C504 1.322 . S
C505 C506 1.459 . S
C505 H569 0.929 . S
C506 C505 1.459 . S
C506 C507 1.445 . S
C506 C515 1.395 . S
C507 C485 1.432 . S
C507 C506 1.445 . S
C507 C508 1.370 . S
C508 C507 1.370 . S
C508 C509 1.438 . S
C508 H570 0.930 . S
C509 C495 1.497 . S
C509 C508 1.438 . S
C509 C510 1.360 . S
C510 C509 1.360 . S
C510 C511 1.401 . S
C510 C515 1.446 . S
C511 C510 1.401 . S
C511 C512 1.347 . S
C511 H571 0.929 . S
C512 C511 1.347 . S
C512 C513 1.455 . S
C512 H572 0.930 . S
C513 C500 1.412 . S
C513 C512 1.455 . S
C513 C514 1.331 . S
C514 C503 1.451 . S
C514 C513 1.331 . S
C514 C515 1.497 . S
C515 C506 1.395 . S
C515 C510 1.446 . S
C515 C514 1.497 . S
C516 C517 1.582 . S
C516 H573 0.962 . S
C516 H574 0.959 . S
C516 H575 0.958 . S
C517 C516 1.582 . S
C517 O520 1.458 . S
C517 H546 0.980 . S
O518 C463 1.426 . S
O518 C464 1.334 . S
O519 C491 1.412 . S
O519 C492 1.393 . S
O520 C482 1.435 . S
O520 C517 1.458 . S
O521 C473 1.468 . S
O521 C474 1.408 . S
H522 C463 0.980 . S
H523 C462 0.959 . S
H524 C462 0.959 . S
H525 C462 0.960 . S
H526 C465 0.929 . S
H527 C469 0.929 . S
H528 C470 0.959 . S
H529 C470 0.961 . S
H530 C470 0.961 . S
H531 C471 0.960 . S
H532 C471 0.960 . S
H533 C471 0.961 . S
H534 C473 0.980 . S
H535 C472 0.961 . S
H536 C472 0.960 . S
H537 C472 0.959 . S
H538 C475 0.930 . S
H539 C479 0.931 . S
H540 C480 0.959 . S
H541 C480 0.961 . S
H542 C480 0.959 . S
H543 C481 0.960 . S
H544 C481 0.960 . S
H545 C481 0.960 . S
H546 C517 0.980 . S
H547 C483 0.930 . S
H548 C487 0.930 . S
H549 C488 0.961 . S
H550 C488 0.960 . S
H551 C488 0.958 . S
H552 C489 0.961 . S
H553 C489 0.960 . S
H554 C489 0.960 . S
H555 C491 0.980 . S
H556 C490 0.961 . S
H557 C490 0.961 . S
H558 C490 0.959 . S
H559 C493 0.932 . S
H560 C497 0.929 . S
H561 C498 0.961 . S
H562 C498 0.959 . S
H563 C498 0.959 . S
H564 C499 0.960 . S
H565 C499 0.962 . S
H566 C499 0.961 . S
H567 C501 0.929 . S
H568 C504 0.930 . S
H569 C505 0.929 . S
H570 C508 0.930 . S
H571 C511 0.929 . S
H572 C512 0.930 . S
H573 C516 0.962 . S
H574 C516 0.959 . S
H575 C516 0.958 . S
C576 C577 1.560 . S
C576 H637 0.959 . S
C576 H638 0.959 . S
C576 H639 0.960 . S
C577 C576 1.560 . S
C577 O632 1.426 . S
C577 H636 0.980 . S
C578 C579 1.407 . S
C578 C583 1.418 . S
C578 O632 1.334 . S
C579 C578 1.407 . S
C579 C580 1.360 . S
C579 H640 0.929 . S
C580 C579 1.360 . S
C580 C581 1.401 . S
C580 C584 1.527 . S
C581 C580 1.401 . S
C581 C582 1.405 . S
C581 C614 1.587 . S
C582 C581 1.405 . S
C582 C583 1.332 . S
C582 C585 1.496 . S
C583 C578 1.418 . S
C583 C582 1.332 . S
C583 H641 0.929 . S
C584 C580 1.527 . S
C584 H642 0.959 . S
C584 H643 0.961 . S
C584 H644 0.961 . S
C585 C582 1.496 . S
C585 H645 0.960 . S
C585 H646 0.960 . S
C585 H647 0.961 . S
C586 C587 1.517 . S
C586 H649 0.961 . S
C586 H650 0.960 . S
C586 H651 0.959 . S
C587 C586 1.517 . S
C587 O635 1.468 . S
C587 H648 0.980 . S
C588 C589 1.349 . S
C588 C593 1.367 . S
C588 O635 1.408 . S
C589 C588 1.349 . S
C589 C590 1.407 . S
C589 H652 0.930 . S
C590 C589 1.407 . S
C590 C591 1.449 . S
C590 C594 1.535 . S
C591 C590 1.449 . S
C591 C592 1.384 . S
C591 C616 1.553 . S
C592 C591 1.384 . S
C592 C593 1.364 . S
C592 C595 1.450 . S
C593 C588 1.367 . S
C593 C592 1.364 . S
C593 H653 0.931 . S
C594 C590 1.535 . S
C594 H654 0.959 . S
C594 H655 0.961 . S
C594 H656 0.959 . S
C595 C592 1.450 . S
C595 H657 0.960 . S
C595 H658 0.960 . S
C595 H659 0.960 . S
C596 C597 1.309 . S
C596 C601 1.304 . S
C596 O634 1.435 . S
C597 C596 1.309 . S
C597 C598 1.476 . S
C597 H661 0.930 . S
C598 C597 1.476 . S
C598 C599 1.400 . S
C598 C602 1.567 . S
C599 C598 1.400 . S
C599 C600 1.373 . S
C599 C621 1.432 . S
C600 C599 1.373 . S
C600 C601 1.339 . S
C600 C603 1.530 . S
C601 C596 1.304 . S
C601 C600 1.339 . S
C601 H662 0.930 . S
C602 C598 1.567 . S
C602 H663 0.961 . S
C602 H664 0.960 . S
C602 H665 0.958 . S
C603 C600 1.530 . S
C603 H666 0.961 . S
C603 H667 0.960 . S
C603 H668 0.960 . S
C604 C605 1.530 . S
C604 H670 0.961 . S
C604 H671 0.961 . S
C604 H672 0.959 . S
C605 C604 1.530 . S
C605 O633 1.412 . S
C605 H669 0.980 . S
C606 C607 1.288 . S
C606 C611 1.377 . S
C606 O633 1.393 . S
C607 C606 1.288 . S
C607 C608 1.369 . S
C607 H673 0.932 . S
C608 C607 1.369 . S
C608 C609 1.398 . S
C608 C612 1.527 . S
C609 C608 1.398 . S
C609 C610 1.380 . S
C609 C623 1.497 . S
C610 C609 1.380 . S
C610 C611 1.383 . S
C610 C613 1.603 . S
C611 C606 1.377 . S
C611 C610 1.383 . S
C611 H674 0.929 . S
C612 C608 1.527 . S
C612 H675 0.961 . S
C612 H676 0.959 . S
C612 H677 0.959 . S
C613 C610 1.603 . S
C613 H678 0.960 . S
C613 H679 0.962 . S
C613 H680 0.961 . S
C614 C581 1.587 . S
C614 C615 1.360 . S
C614 C627 1.412 . S
C615 C614 1.360 . S
C615 C616 1.365 . S
C615 H681 0.929 . S
C616 C591 1.553 . S
C616 C615 1.365 . S
C616 C617 1.404 . S
C617 C616 1.404 . S
C617 C618 1.395 . S
C617 C628 1.451 . S
C618 C617 1.395 . S
C618 C619 1.322 . S
C618 H682 0.930 . S
C619 C618 1.322 . S
C619 C620 1.459 . S
C619 H683 0.929 . S
C620 C619 1.459 . S
C620 C621 1.445 . S
C620 C629 1.395 . S
C621 C599 1.432 . S
C621 C620 1.445 . S
C621 C622 1.370 . S
C622 C621 1.370 . S
C622 C623 1.438 . S
C622 H684 0.930 . S
C623 C609 1.497 . S
C623 C622 1.438 . S
C623 C624 1.360 . S
C624 C623 1.360 . S
C624 C625 1.401 . S
C624 C629 1.446 . S
C625 C624 1.401 . S
C625 C626 1.347 . S
C625 H685 0.929 . S
C626 C625 1.347 . S
C626 C627 1.455 . S
C626 H686 0.930 . S
C627 C614 1.412 . S
C627 C626 1.455 . S
C627 C628 1.331 . S
C628 C617 1.451 . S
C628 C627 1.331 . S
C628 C629 1.497 . S
C629 C620 1.395 . S
C629 C624 1.446 . S
C629 C628 1.497 . S
C630 C631 1.582 . S
C630 H687 0.962 . S
C630 H688 0.959 . S
C630 H689 0.958 . S
C631 C630 1.582 . S
C631 O634 1.458 . S
C631 H660 0.980 . S
O632 C577 1.426 . S
O632 C578 1.334 . S
O633 C605 1.412 . S
O633 C606 1.393 . S
O634 C596 1.435 . S
O634 C631 1.458 . S
O635 C587 1.468 . S
O635 C588 1.408 . S
H636 C577 0.980 . S
H637 C576 0.959 . S
H638 C576 0.959 . S
H639 C576 0.960 . S
H640 C579 0.929 . S
H641 C583 0.929 . S
H642 C584 0.959 . S
H643 C584 0.961 . S
H644 C584 0.961 . S
H645 C585 0.960 . S
H646 C585 0.960 . S
H647 C585 0.961 . S
H648 C587 0.980 . S
H649 C586 0.961 . S
H650 C586 0.960 . S
H651 C586 0.959 . S
H652 C589 0.930 . S
H653 C593 0.931 . S
H654 C594 0.959 . S
H655 C594 0.961 . S
H656 C594 0.959 . S
H657 C595 0.960 . S
H658 C595 0.960 . S
H659 C595 0.960 . S
H660 C631 0.980 . S
H661 C597 0.930 . S
H662 C601 0.930 . S
H663 C602 0.961 . S
H664 C602 0.960 . S
H665 C602 0.958 . S
H666 C603 0.961 . S
H667 C603 0.960 . S
H668 C603 0.960 . S
H669 C605 0.980 . S
H670 C604 0.961 . S
H671 C604 0.961 . S
H672 C604 0.959 . S
H673 C607 0.932 . S
H674 C611 0.929 . S
H675 C612 0.961 . S
H676 C612 0.959 . S
H677 C612 0.959 . S
H678 C613 0.960 . S
H679 C613 0.962 . S
H680 C613 0.961 . S
H681 C615 0.929 . S
H682 C618 0.930 . S
H683 C619 0.929 . S
H684 C622 0.930 . S
H685 C625 0.929 . S
H686 C626 0.930 . S
H687 C630 0.962 . S
H688 C630 0.959 . S
H689 C630 0.958 . S
C690 C691 1.560 . S
C690 H751 0.959 . S
C690 H752 0.959 . S
C690 H753 0.960 . S
C691 C690 1.560 . S
C691 O746 1.426 . S
C691 H750 0.980 . S
C692 C693 1.407 . S
C692 C697 1.418 . S
C692 O746 1.334 . S
C693 C692 1.407 . S
C693 C694 1.360 . S
C693 H754 0.929 . S
C694 C693 1.360 . S
C694 C695 1.401 . S
C694 C698 1.527 . S
C695 C694 1.401 . S
C695 C696 1.405 . S
C695 C728 1.587 . S
C696 C695 1.405 . S
C696 C697 1.332 . S
C696 C699 1.496 . S
C697 C692 1.418 . S
C697 C696 1.332 . S
C697 H755 0.929 . S
C698 C694 1.527 . S
C698 H756 0.959 . S
C698 H757 0.961 . S
C698 H758 0.961 . S
C699 C696 1.496 . S
C699 H759 0.960 . S
C699 H760 0.960 . S
C699 H761 0.961 . S
C700 C701 1.517 . S
C700 H763 0.961 . S
C700 H764 0.960 . S
C700 H765 0.959 . S
C701 C700 1.517 . S
C701 O749 1.468 . S
C701 H762 0.980 . S
C702 C703 1.349 . S
C702 C707 1.367 . S
C702 O749 1.408 . S
C703 C702 1.349 . S
C703 C704 1.407 . S
C703 H766 0.930 . S
C704 C703 1.407 . S
C704 C705 1.449 . S
C704 C708 1.535 . S
C705 C704 1.449 . S
C705 C706 1.384 . S
C705 C730 1.553 . S
C706 C705 1.384 . S
C706 C707 1.364 . S
C706 C709 1.450 . S
C707 C702 1.367 . S
C707 C706 1.364 . S
C707 H767 0.931 . S
C708 C704 1.535 . S
C708 H768 0.959 . S
C708 H769 0.961 . S
C708 H770 0.959 . S
C709 C706 1.450 . S
C709 H771 0.960 . S
C709 H772 0.960 . S
C709 H773 0.960 . S
C710 C711 1.309 . S
C710 C715 1.304 . S
C710 O748 1.435 . S
C711 C710 1.309 . S
C711 C712 1.476 . S
C711 H775 0.930 . S
C712 C711 1.476 . S
C712 C713 1.400 . S
C712 C716 1.567 . S
C713 C712 1.400 . S
C713 C714 1.373 . S
C713 C735 1.432 . S
C714 C713 1.373 . S
C714 C715 1.339 . S
C714 C717 1.530 . S
C715 C710 1.304 . S
C715 C714 1.339 . S
C715 H776 0.930 . S
C716 C712 1.567 . S
C716 H777 0.961 . S
C716 H778 0.960 . S
C716 H779 0.958 . S
C717 C714 1.530 . S
C717 H780 0.961 . S
C717 H781 0.960 . S
C717 H782 0.960 . S
C718 C719 1.530 . S
C718 H784 0.961 . S
C718 H785 0.961 . S
C718 H786 0.959 . S
C719 C718 1.530 . S
C719 O747 1.412 . S
C719 H783 0.980 . S
C720 C721 1.288 . S
C720 C725 1.377 . S
C720 O747 1.393 . S
C721 C720 1.288 . S
C721 C722 1.369 . S
C721 H787 0.932 . S
C722 C721 1.369 . S
C722 C723 1.398 . S
C722 C726 1.527 . S
C723 C722 1.398 . S
C723 C724 1.380 . S
C723 C737 1.497 . S
C724 C723 1.380 . S
C724 C725 1.383 . S
C724 C727 1.603 . S
C725 C720 1.377 . S
C725 C724 1.383 . S
C725 H788 0.929 . S
C726 C722 1.527 . S
C726 H789 0.961 . S
C726 H790 0.959 . S
C726 H791 0.959 . S
C727 C724 1.603 . S
C727 H792 0.960 . S
C727 H793 0.962 . S
C727 H794 0.961 . S
C728 C695 1.587 . S
C728 C729 1.360 . S
C728 C741 1.412 . S
C729 C728 1.360 . S
C729 C730 1.365 . S
C729 H795 0.929 . S
C730 C705 1.553 . S
C730 C729 1.365 . S
C730 C731 1.404 . S
C731 C730 1.404 . S
C731 C732 1.395 . S
C731 C742 1.451 . S
C732 C731 1.395 . S
C732 C733 1.322 . S
C732 H796 0.930 . S
C733 C732 1.322 . S
C733 C734 1.459 . S
C733 H797 0.929 . S
C734 C733 1.459 . S
C734 C735 1.445 . S
C734 C743 1.395 . S
C735 C713 1.432 . S
C735 C734 1.445 . S
C735 C736 1.370 . S
C736 C735 1.370 . S
C736 C737 1.438 . S
C736 H798 0.930 . S
C737 C723 1.497 . S
C737 C736 1.438 . S
C737 C738 1.360 . S
C738 C737 1.360 . S
C738 C739 1.401 . S
C738 C743 1.446 . S
C739 C738 1.401 . S
C739 C740 1.347 . S
C739 H799 0.929 . S
C740 C739 1.347 . S
C740 C741 1.455 . S
C740 H800 0.930 . S
C741 C728 1.412 . S
C741 C740 1.455 . S
C741 C742 1.331 . S
C742 C731 1.451 . S
C742 C741 1.331 . S
C742 C743 1.497 . S
C743 C734 1.395 . S
C743 C738 1.446 . S
C743 C742 1.497 . S
C744 C745 1.582 . S
C744 H801 0.962 . S
C744 H802 0.959 . S
C744 H803 0.958 . S
C745 C744 1.582 . S
C745 O748 1.458 . S
C745 H774 0.980 . S
O746 C691 1.426 . S
O746 C692 1.334 . S
O747 C719 1.412 . S
O747 C720 1.393 . S
O748 C710 1.435 . S
O748 C745 1.458 . S
O749 C701 1.468 . S
O749 C702 1.408 . S
H750 C691 0.980 . S
H751 C690 0.959 . S
H752 C690 0.959 . S
H753 C690 0.960 . S
H754 C693 0.929 . S
H755 C697 0.929 . S
H756 C698 0.959 . S
H757 C698 0.961 . S
H758 C698 0.961 . S
H759 C699 0.960 . S
H760 C699 0.960 . S
H761 C699 0.961 . S
H762 C701 0.980 . S
H763 C700 0.961 . S
H764 C700 0.960 . S
H765 C700 0.959 . S
H766 C703 0.930 . S
H767 C707 0.931 . S
H768 C708 0.959 . S
H769 C708 0.961 . S
H770 C708 0.959 . S
H771 C709 0.960 . S
H772 C709 0.960 . S
H773 C709 0.960 . S
H774 C745 0.980 . S
H775 C711 0.930 . S
H776 C715 0.930 . S
H777 C716 0.961 . S
H778 C716 0.960 . S
H779 C716 0.958 . S
H780 C717 0.961 . S
H781 C717 0.960 . S
H782 C717 0.960 . S
H783 C719 0.980 . S
H784 C718 0.961 . S
H785 C718 0.961 . S
H786 C718 0.959 . S
H787 C721 0.932 . S
H788 C725 0.929 . S
H789 C726 0.961 . S
H790 C726 0.959 . S
H791 C726 0.959 . S
H792 C727 0.960 . S
H793 C727 0.962 . S
H794 C727 0.961 . S
H795 C729 0.929 . S
H796 C732 0.930 . S
H797 C733 0.929 . S
H798 C736 0.930 . S
H799 C739 0.929 . S
H800 C740 0.930 . S
H801 C744 0.962 . S
H802 C744 0.959 . S
H803 C744 0.958 . S
C804 C805 1.560 . S
C804 H865 0.959 . S
C804 H866 0.959 . S
C804 H867 0.960 . S
C805 C804 1.560 . S
C805 O860 1.426 . S
C805 H864 0.980 . S
C806 C807 1.407 . S
C806 C811 1.418 . S
C806 O860 1.334 . S
C807 C806 1.407 . S
C807 C808 1.360 . S
C807 H868 0.929 . S
C808 C807 1.360 . S
C808 C809 1.401 . S
C808 C812 1.527 . S
C809 C808 1.401 . S
C809 C810 1.405 . S
C809 C842 1.587 . S
C810 C809 1.405 . S
C810 C811 1.332 . S
C810 C813 1.496 . S
C811 C806 1.418 . S
C811 C810 1.332 . S
C811 H869 0.929 . S
C812 C808 1.527 . S
C812 H870 0.959 . S
C812 H871 0.961 . S
C812 H872 0.961 . S
C813 C810 1.496 . S
C813 H873 0.960 . S
C813 H874 0.960 . S
C813 H875 0.961 . S
C814 C815 1.517 . S
C814 H877 0.961 . S
C814 H878 0.960 . S
C814 H879 0.959 . S
C815 C814 1.517 . S
C815 O863 1.468 . S
C815 H876 0.980 . S
C816 C817 1.349 . S
C816 C821 1.367 . S
C816 O863 1.408 . S
C817 C816 1.349 . S
C817 C818 1.407 . S
C817 H880 0.930 . S
C818 C817 1.407 . S
C818 C819 1.449 . S
C818 C822 1.535 . S
C819 C818 1.449 . S
C819 C820 1.384 . S
C819 C844 1.553 . S
C820 C819 1.384 . S
C820 C821 1.364 . S
C820 C823 1.450 . S
C821 C816 1.367 . S
C821 C820 1.364 . S
C821 H881 0.931 . S
C822 C818 1.535 . S
C822 H882 0.959 . S
C822 H883 0.961 . S
C822 H884 0.959 . S
C823 C820 1.450 . S
C823 H885 0.960 . S
C823 H886 0.960 . S
C823 H887 0.960 . S
C824 C825 1.309 . S
C824 C829 1.304 . S
C824 O862 1.435 . S
C825 C824 1.309 . S
C825 C826 1.476 . S
C825 H889 0.930 . S
C826 C825 1.476 . S
C826 C827 1.400 . S
C826 C830 1.567 . S
C827 C826 1.400 . S
C827 C828 1.373 . S
C827 C849 1.432 . S
C828 C827 1.373 . S
C828 C829 1.339 . S
C828 C831 1.530 . S
C829 C824 1.304 . S
C829 C828 1.339 . S
C829 H890 0.930 . S
C830 C826 1.567 . S
C830 H891 0.961 . S
C830 H892 0.960 . S
C830 H893 0.958 . S
C831 C828 1.530 . S
C831 H894 0.961 . S
C831 H895 0.960 . S
C831 H896 0.960 . S
C832 C833 1.530 . S
C832 H898 0.961 . S
C832 H899 0.961 . S
C832 H900 0.959 . S
C833 C832 1.530 . S
C833 O861 1.412 . S
C833 H897 0.980 . S
C834 C835 1.288 . S
C834 C839 1.377 . S
C834 O861 1.393 . S
C835 C834 1.288 . S
C835 C836 1.369 . S
C835 H901 0.932 . S
C836 C835 1.369 . S
C836 C837 1.398 . S
C836 C840 1.527 . S
C837 C836 1.398 . S
C837 C838 1.380 . S
C837 C851 1.497 . S
C838 C837 1.380 . S
C838 C839 1.383 . S
C838 C841 1.603 . S
C839 C834 1.377 . S
C839 C838 1.383 . S
C839 H902 0.929 . S
C840 C836 1.527 . S
C840 H903 0.961 . S
C840 H904 0.959 . S
C840 H905 0.959 . S
C841 C838 1.603 . S
C841 H906 0.960 . S
C841 H907 0.962 . S
C841 H908 0.961 . S
C842 C809 1.587 . S
C842 C843 1.360 . S
C842 C855 1.412 . S
C843 C842 1.360 . S
C843 C844 1.365 . S
C843 H909 0.929 . S
C844 C819 1.553 . S
C844 C843 1.365 . S
C844 C845 1.404 . S
C845 C844 1.404 . S
C845 C846 1.395 . S
C845 C856 1.451 . S
C846 C845 1.395 . S
C846 C847 1.322 . S
C846 H910 0.930 . S
C847 C846 1.322 . S
C847 C848 1.459 . S
C847 H911 0.929 . S
C848 C847 1.459 . S
C848 C849 1.445 . S
C848 C857 1.395 . S
C849 C827 1.432 . S
C849 C848 1.445 . S
C849 C850 1.370 . S
C850 C849 1.370 . S
C850 C851 1.438 . S
C850 H912 0.930 . S
C851 C837 1.497 . S
C851 C850 1.438 . S
C851 C852 1.360 . S
C852 C851 1.360 . S
C852 C853 1.401 . S
C852 C857 1.446 . S
C853 C852 1.401 . S
C853 C854 1.347 . S
C853 H913 0.929 . S
C854 C853 1.347 . S
C854 C855 1.455 . S
C854 H914 0.930 . S
C855 C842 1.412 . S
C855 C854 1.455 . S
C855 C856 1.331 . S
C856 C845 1.451 . S
C856 C855 1.331 . S
C856 C857 1.497 . S
C857 C848 1.395 . S
C857 C852 1.446 . S
C857 C856 1.497 . S
C858 C859 1.582 . S
C858 H915 0.962 . S
C858 H916 0.959 . S
C858 H917 0.958 . S
C859 C858 1.582 . S
C859 O862 1.458 . S
C859 H888 0.980 . S
O860 C805 1.426 . S
O860 C806 1.334 . S
O861 C833 1.412 . S
O861 C834 1.393 . S
O862 C824 1.435 . S
O862 C859 1.458 . S
O863 C815 1.468 . S
O863 C816 1.408 . S
H864 C805 0.980 . S
H865 C804 0.959 . S
H866 C804 0.959 . S
H867 C804 0.960 . S
H868 C807 0.929 . S
H869 C811 0.929 . S
H870 C812 0.959 . S
H871 C812 0.961 . S
H872 C812 0.961 . S
H873 C813 0.960 . S
H874 C813 0.960 . S
H875 C813 0.961 . S
H876 C815 0.980 . S
H877 C814 0.961 . S
H878 C814 0.960 . S
H879 C814 0.959 . S
H880 C817 0.930 . S
H881 C821 0.931 . S
H882 C822 0.959 . S
H883 C822 0.961 . S
H884 C822 0.959 . S
H885 C823 0.960 . S
H886 C823 0.960 . S
H887 C823 0.960 . S
H888 C859 0.980 . S
H889 C825 0.930 . S
H890 C829 0.930 . S
H891 C830 0.961 . S
H892 C830 0.960 . S
H893 C830 0.958 . S
H894 C831 0.961 . S
H895 C831 0.960 . S
H896 C831 0.960 . S
H897 C833 0.980 . S
H898 C832 0.961 . S
H899 C832 0.961 . S
H900 C832 0.959 . S
H901 C835 0.932 . S
H902 C839 0.929 . S
H903 C840 0.961 . S
H904 C840 0.959 . S
H905 C840 0.959 . S
H906 C841 0.960 . S
H907 C841 0.962 . S
H908 C841 0.961 . S
H909 C843 0.929 . S
H910 C846 0.930 . S
H911 C847 0.929 . S
H912 C850 0.930 . S
H913 C853 0.929 . S
H914 C854 0.930 . S
H915 C858 0.962 . S
H916 C858 0.959 . S
H917 C858 0.958 . S
C918 C919 1.560 . S
C918 H979 0.959 . S
C918 H980 0.959 . S
C918 H981 0.960 . S
C919 C918 1.560 . S
C919 O974 1.426 . S
C919 H978 0.980 . S
C920 C921 1.407 . S
C920 C925 1.418 . S
C920 O974 1.334 . S
C921 C920 1.407 . S
C921 C922 1.360 . S
C921 H982 0.929 . S
C922 C921 1.360 . S
C922 C923 1.401 . S
C922 C926 1.527 . S
C923 C922 1.401 . S
C923 C924 1.405 . S
C923 C956 1.587 . S
C924 C923 1.405 . S
C924 C925 1.332 . S
C924 C927 1.496 . S
C925 C920 1.418 . S
C925 C924 1.332 . S
C925 H983 0.929 . S
C926 C922 1.527 . S
C926 H984 0.959 . S
C926 H985 0.961 . S
C926 H986 0.961 . S
C927 C924 1.496 . S
C927 H987 0.960 . S
C927 H988 0.960 . S
C927 H989 0.961 . S
C928 C929 1.517 . S
C928 H991 0.961 . S
C928 H992 0.960 . S
C928 H993 0.959 . S
C929 C928 1.517 . S
C929 O977 1.468 . S
C929 H990 0.980 . S
C930 C931 1.349 . S
C930 C935 1.367 . S
C930 O977 1.408 . S
C931 C930 1.349 . S
C931 C932 1.407 . S
C931 H994 0.930 . S
C932 C931 1.407 . S
C932 C933 1.449 . S
C932 C936 1.535 . S
C933 C932 1.449 . S
C933 C934 1.384 . S
C933 C958 1.553 . S
C934 C933 1.384 . S
C934 C935 1.364 . S
C934 C937 1.450 . S
C935 C930 1.367 . S
C935 C934 1.364 . S
C935 H995 0.931 . S
C936 C932 1.535 . S
C936 H996 0.959 . S
C936 H997 0.961 . S
C936 H998 0.959 . S
C937 C934 1.450 . S
C937 H999 0.960 . S
C937 H1000 0.960 . S
C937 H1001 0.960 . S
C938 C939 1.309 . S
C938 C943 1.304 . S
C938 O976 1.435 . S
C939 C938 1.309 . S
C939 C940 1.476 . S
C939 H1003 0.930 . S
C940 C939 1.476 . S
C940 C941 1.400 . S
C940 C944 1.567 . S
C941 C940 1.400 . S
C941 C942 1.373 . S
C941 C963 1.432 . S
C942 C941 1.373 . S
C942 C943 1.339 . S
C942 C945 1.530 . S
C943 C938 1.304 . S
C943 C942 1.339 . S
C943 H1004 0.930 . S
C944 C940 1.567 . S
C944 H1005 0.961 . S
C944 H1006 0.960 . S
C944 H1007 0.958 . S
C945 C942 1.530 . S
C945 H1008 0.961 . S
C945 H1009 0.960 . S
C945 H1010 0.960 . S
C946 C947 1.530 . S
C946 H1012 0.961 . S
C946 H1013 0.961 . S
C946 H1014 0.959 . S
C947 C946 1.530 . S
C947 O975 1.412 . S
C947 H1011 0.980 . S
C948 C949 1.288 . S
C948 C953 1.377 . S
C948 O975 1.393 . S
C949 C948 1.288 . S
C949 C950 1.369 . S
C949 H1015 0.932 . S
C950 C949 1.369 . S
C950 C951 1.398 . S
C950 C954 1.527 . S
C951 C950 1.398 . S
C951 C952 1.380 . S
C951 C965 1.497 . S
C952 C951 1.380 . S
C952 C953 1.383 . S
C952 C955 1.603 . S
C953 C948 1.377 . S
C953 C952 1.383 . S
C953 H1016 0.929 . S
C954 C950 1.527 . S
C954 H1017 0.961 . S
C954 H1018 0.959 . S
C954 H1019 0.959 . S
C955 C952 1.603 . S
C955 H1020 0.960 . S
C955 H1021 0.962 . S
C955 H1022 0.961 . S
C956 C923 1.587 . S
C956 C957 1.360 . S
C956 C969 1.412 . S
C957 C956 1.360 . S
C957 C958 1.365 . S
C957 H1023 0.929 . S
C958 C933 1.553 . S
C958 C957 1.365 . S
C958 C959 1.404 . S
C959 C958 1.404 . S
C959 C960 1.395 . S
C959 C970 1.451 . S
C960 C959 1.395 . S
C960 C961 1.322 . S
C960 H1024 0.930 . S
C961 C960 1.322 . S
C961 C962 1.459 . S
C961 H1025 0.929 . S
C962 C961 1.459 . S
C962 C963 1.445 . S
C962 C971 1.395 . S
C963 C941 1.432 . S
C963 C962 1.445 . S
C963 C964 1.370 . S
C964 C963 1.370 . S
C964 C965 1.438 . S
C964 H1026 0.930 . S
C965 C951 1.497 . S
C965 C964 1.438 . S
C965 C966 1.360 . S
C966 C965 1.360 . S
C966 C967 1.401 . S
C966 C971 1.446 . S
C967 C966 1.401 . S
C967 C968 1.347 . S
C967 H1027 0.929 . S
C968 C967 1.347 . S
C968 C969 1.455 . S
C968 H1028 0.930 . S
C969 C956 1.412 . S
C969 C968 1.455 . S
C969 C970 1.331 . S
C970 C959 1.451 . S
C970 C969 1.331 . S
C970 C971 1.497 . S
C971 C962 1.395 . S
C971 C966 1.446 . S
C971 C970 1.497 . S
C972 C973 1.582 . S
C972 H1029 0.962 . S
C972 H1030 0.959 . S
C972 H1031 0.958 . S
C973 C972 1.582 . S
C973 O976 1.458 . S
C973 H1002 0.980 . S
O974 C919 1.426 . S
O974 C920 1.334 . S
O975 C947 1.412 . S
O975 C948 1.393 . S
O976 C938 1.435 . S
O976 C973 1.458 . S
O977 C929 1.468 . S
O977 C930 1.408 . S
H978 C919 0.980 . S
H979 C918 0.959 . S
H980 C918 0.959 . S
H981 C918 0.960 . S
H982 C921 0.929 . S
H983 C925 0.929 . S
H984 C926 0.959 . S
H985 C926 0.961 . S
H986 C926 0.961 . S
H987 C927 0.960 . S
H988 C927 0.960 . S
H989 C927 0.961 . S
H990 C929 0.980 . S
H991 C928 0.961 . S
H992 C928 0.960 . S
H993 C928 0.959 . S
H994 C931 0.930 . S
H995 C935 0.931 . S
H996 C936 0.959 . S
H997 C936 0.961 . S
H998 C936 0.959 . S
H999 C937 0.960 . S
H1000 C937 0.960 . S
H1001 C937 0.960 . S
H1002 C973 0.980 . S
H1003 C939 0.930 . S
H1004 C943 0.930 . S
H1005 C944 0.961 . S
H1006 C944 0.960 . S
H1007 C944 0.958 . S
H1008 C945 0.961 . S
H1009 C945 0.960 . S
H1010 C945 0.960 . S
H1011 C947 0.980 . S
H1012 C946 0.961 . S
H1013 C946 0.961 . S
H1014 C946 0.959 . S
H1015 C949 0.932 . S
H1016 C953 0.929 . S
H1017 C954 0.961 . S
H1018 C954 0.959 . S
H1019 C954 0.959 . S
H1020 C955 0.960 . S
H1021 C955 0.962 . S
H1022 C955 0.961 . S
H1023 C957 0.929 . S
H1024 C960 0.930 . S
H1025 C961 0.929 . S
H1026 C964 0.930 . S
H1027 C967 0.929 . S
H1028 C968 0.930 . S
H1029 C972 0.962 . S
H1030 C972 0.959 . S
H1031 C972 0.958 . S
C1032 C1033 1.560 . S
C1032 H1093 0.959 . S
C1032 H1094 0.959 . S
C1032 H1095 0.960 . S
C1033 C1032 1.560 . S
C1033 O1088 1.426 . S
C1033 H1092 0.980 . S
C1034 C1035 1.407 . S
C1034 C1039 1.418 . S
C1034 O1088 1.334 . S
C1035 C1034 1.407 . S
C1035 C1036 1.360 . S
C1035 H1096 0.929 . S
C1036 C1035 1.360 . S
C1036 C1037 1.401 . S
C1036 C1040 1.527 . S
C1037 C1036 1.401 . S
C1037 C1038 1.405 . S
C1037 C1070 1.587 . S
C1038 C1037 1.405 . S
C1038 C1039 1.332 . S
C1038 C1041 1.496 . S
C1039 C1034 1.418 . S
C1039 C1038 1.332 . S
C1039 H1097 0.929 . S
C1040 C1036 1.527 . S
C1040 H1098 0.959 . S
C1040 H1099 0.961 . S
C1040 H1100 0.961 . S
C1041 C1038 1.496 . S
C1041 H1101 0.960 . S
C1041 H1102 0.960 . S
C1041 H1103 0.961 . S
C1042 C1043 1.517 . S
C1042 H1105 0.961 . S
C1042 H1106 0.960 . S
C1042 H1107 0.959 . S
C1043 C1042 1.517 . S
C1043 O1091 1.468 . S
C1043 H1104 0.980 . S
C1044 C1045 1.349 . S
C1044 C1049 1.367 . S
C1044 O1091 1.408 . S
C1045 C1044 1.349 . S
C1045 C1046 1.407 . S
C1045 H1108 0.930 . S
C1046 C1045 1.407 . S
C1046 C1047 1.449 . S
C1046 C1050 1.535 . S
C1047 C1046 1.449 . S
C1047 C1048 1.384 . S
C1047 C1072 1.553 . S
C1048 C1047 1.384 . S
C1048 C1049 1.364 . S
C1048 C1051 1.450 . S
C1049 C1044 1.367 . S
C1049 C1048 1.364 . S
C1049 H1109 0.931 . S
C1050 C1046 1.535 . S
C1050 H1110 0.959 . S
C1050 H1111 0.961 . S
C1050 H1112 0.959 . S
C1051 C1048 1.450 . S
C1051 H1113 0.960 . S
C1051 H1114 0.960 . S
C1051 H1115 0.960 . S
C1052 C1053 1.309 . S
C1052 C1057 1.304 . S
C1052 O1090 1.435 . S
C1053 C1052 1.309 . S
C1053 C1054 1.476 . S
C1053 H1117 0.930 . S
C1054 C1053 1.476 . S
C1054 C1055 1.400 . S
C1054 C1058 1.567 . S
C1055 C1054 1.400 . S
C1055 C1056 1.373 . S
C1055 C1077 1.432 . S
C1056 C1055 1.373 . S
C1056 C1057 1.339 . S
C1056 C1059 1.530 . S
C1057 C1052 1.304 . S
C1057 C1056 1.339 . S
C1057 H1118 0.930 . S
C1058 C1054 1.567 . S
C1058 H1119 0.961 . S
C1058 H1120 0.960 . S
C1058 H1121 0.958 . S
C1059 C1056 1.530 . S
C1059 H1122 0.961 . S
C1059 H1123 0.960 . S
C1059 H1124 0.960 . S
C1060 C1061 1.530 . S
C1060 H1126 0.961 . S
C1060 H1127 0.961 . S
C1060 H1128 0.959 . S
C1061 C1060 1.530 . S
C1061 O1089 1.412 . S
C1061 H1125 0.980 . S
C1062 C1063 1.288 . S
C1062 C1067 1.377 . S
C1062 O1089 1.393 . S
C1063 C1062 1.288 . S
C1063 C1064 1.369 . S
C1063 H1129 0.932 . S
C1064 C1063 1.369 . S
C1064 C1065 1.398 . S
C1064 C1068 1.527 . S
C1065 C1064 1.398 . S
C1065 C1066 1.380 . S
C1065 C1079 1.497 . S
C1066 C1065 1.380 . S
C1066 C1067 1.383 . S
C1066 C1069 1.603 . S
C1067 C1062 1.377 . S
C1067 C1066 1.383 . S
C1067 H1130 0.929 . S
C1068 C1064 1.527 . S
C1068 H1131 0.961 . S
C1068 H1132 0.959 . S
C1068 H1133 0.959 . S
C1069 C1066 1.603 . S
C1069 H1134 0.960 . S
C1069 H1135 0.962 . S
C1069 H1136 0.961 . S
C1070 C1037 1.587 . S
C1070 C1071 1.360 . S
C1070 C1083 1.412 . S
C1071 C1070 1.360 . S
C1071 C1072 1.365 . S
C1071 H1137 0.929 . S
C1072 C1047 1.553 . S
C1072 C1071 1.365 . S
C1072 C1073 1.404 . S
C1073 C1072 1.404 . S
C1073 C1074 1.395 . S
C1073 C1084 1.451 . S
C1074 C1073 1.395 . S
C1074 C1075 1.322 . S
C1074 H1138 0.930 . S
C1075 C1074 1.322 . S
C1075 C1076 1.459 . S
C1075 H1139 0.929 . S
C1076 C1075 1.459 . S
C1076 C1077 1.445 . S
C1076 C1085 1.395 . S
C1077 C1055 1.432 . S
C1077 C1076 1.445 . S
C1077 C1078 1.370 . S
C1078 C1077 1.370 . S
C1078 C1079 1.438 . S
C1078 H1140 0.930 . S
C1079 C1065 1.497 . S
C1079 C1078 1.438 . S
C1079 C1080 1.360 . S
C1080 C1079 1.360 . S
C1080 C1081 1.401 . S
C1080 C1085 1.446 . S
C1081 C1080 1.401 . S
C1081 C1082 1.347 . S
C1081 H1141 0.929 . S
C1082 C1081 1.347 . S
C1082 C1083 1.455 . S
C1082 H1142 0.930 . S
C1083 C1070 1.412 . S
C1083 C1082 1.455 . S
C1083 C1084 1.331 . S
C1084 C1073 1.451 . S
C1084 C1083 1.331 . S
C1084 C1085 1.497 . S
C1085 C1076 1.395 . S
C1085 C1080 1.446 . S
C1085 C1084 1.497 . S
C1086 C1087 1.582 . S
C1086 H1143 0.962 . S
C1086 H1144 0.959 . S
C1086 H1145 0.958 . S
C1087 C1086 1.582 . S
C1087 O1090 1.458 . S
C1087 H1116 0.980 . S
O1088 C1033 1.426 . S
O1088 C1034 1.334 . S
O1089 C1061 1.412 . S
O1089 C1062 1.393 . S
O1090 C1052 1.435 . S
O1090 C1087 1.458 . S
O1091 C1043 1.468 . S
O1091 C1044 1.408 . S
H1092 C1033 0.980 . S
H1093 C1032 0.959 . S
H1094 C1032 0.959 . S
H1095 C1032 0.960 . S
H1096 C1035 0.929 . S
H1097 C1039 0.929 . S
H1098 C1040 0.959 . S
H1099 C1040 0.961 . S
H1100 C1040 0.961 . S
H1101 C1041 0.960 . S
H1102 C1041 0.960 . S
H1103 C1041 0.961 . S
H1104 C1043 0.980 . S
H1105 C1042 0.961 . S
H1106 C1042 0.960 . S
H1107 C1042 0.959 . S
H1108 C1045 0.930 . S
H1109 C1049 0.931 . S
H1110 C1050 0.959 . S
H1111 C1050 0.961 . S
H1112 C1050 0.959 . S
H1113 C1051 0.960 . S
H1114 C1051 0.960 . S
H1115 C1051 0.960 . S
H1116 C1087 0.980 . S
H1117 C1053 0.930 . S
H1118 C1057 0.930 . S
H1119 C1058 0.961 . S
H1120 C1058 0.960 . S
H1121 C1058 0.958 . S
H1122 C1059 0.961 . S
H1123 C1059 0.960 . S
H1124 C1059 0.960 . S
H1125 C1061 0.980 . S
H1126 C1060 0.961 . S
H1127 C1060 0.961 . S
H1128 C1060 0.959 . S
H1129 C1063 0.932 . S
H1130 C1067 0.929 . S
H1131 C1068 0.961 . S
H1132 C1068 0.959 . S
H1133 C1068 0.959 . S
H1134 C1069 0.960 . S
H1135 C1069 0.962 . S
H1136 C1069 0.961 . S
H1137 C1071 0.929 . S
H1138 C1074 0.930 . S
H1139 C1075 0.929 . S
H1140 C1078 0.930 . S
H1141 C1081 0.929 . S
H1142 C1082 0.930 . S
H1143 C1086 0.962 . S
H1144 C1086 0.959 . S
H1145 C1086 0.958 . S
C1146 C1147 1.560 . S
C1146 H1207 0.959 . S
C1146 H1208 0.959 . S
C1146 H1209 0.960 . S
C1147 C1146 1.560 . S
C1147 O1202 1.426 . S
C1147 H1206 0.980 . S
C1148 C1149 1.407 . S
C1148 C1153 1.418 . S
C1148 O1202 1.334 . S
C1149 C1148 1.407 . S
C1149 C1150 1.360 . S
C1149 H1210 0.929 . S
C1150 C1149 1.360 . S
C1150 C1151 1.401 . S
C1150 C1154 1.527 . S
C1151 C1150 1.401 . S
C1151 C1152 1.405 . S
C1151 C1184 1.587 . S
C1152 C1151 1.405 . S
C1152 C1153 1.332 . S
C1152 C1155 1.496 . S
C1153 C1148 1.418 . S
C1153 C1152 1.332 . S
C1153 H1211 0.929 . S
C1154 C1150 1.527 . S
C1154 H1212 0.959 . S
C1154 H1213 0.961 . S
C1154 H1214 0.961 . S
C1155 C1152 1.496 . S
C1155 H1215 0.960 . S
C1155 H1216 0.960 . S
C1155 H1217 0.961 . S
C1156 C1157 1.517 . S
C1156 H1219 0.961 . S
C1156 H1220 0.960 . S
C1156 H1221 0.959 . S
C1157 C1156 1.517 . S
C1157 O1205 1.468 . S
C1157 H1218 0.980 . S
C1158 C1159 1.349 . S
C1158 C1163 1.367 . S
C1158 O1205 1.408 . S
C1159 C1158 1.349 . S
C1159 C1160 1.407 . S
C1159 H1222 0.930 . S
C1160 C1159 1.407 . S
C1160 C1161 1.449 . S
C1160 C1164 1.535 . S
C1161 C1160 1.449 . S
C1161 C1162 1.384 . S
C1161 C1186 1.553 . S
C1162 C1161 1.384 . S
C1162 C1163 1.364 . S
C1162 C1165 1.450 . S
C1163 C1158 1.367 . S
C1163 C1162 1.364 . S
C1163 H1223 0.931 . S
C1164 C1160 1.535 . S
C1164 H1224 0.959 . S
C1164 H1225 0.961 . S
C1164 H1226 0.959 . S
C1165 C1162 1.450 . S
C1165 H1227 0.960 . S
C1165 H1228 0.960 . S
C1165 H1229 0.960 . S
C1166 C1167 1.309 . S
C1166 C1171 1.304 . S
C1166 O1204 1.435 . S
C1167 C1166 1.309 . S
C1167 C1168 1.476 . S
C1167 H1231 0.930 . S
C1168 C1167 1.476 . S
C1168 C1169 1.400 . S
C1168 C1172 1.567 . S
C1169 C1168 1.400 . S
C1169 C1170 1.373 . S
C1169 C1191 1.432 . S
C1170 C1169 1.373 . S
C1170 C1171 1.339 . S
C1170 C1173 1.530 . S
C1171 C1166 1.304 . S
C1171 C1170 1.339 . S
C1171 H1232 0.930 . S
C1172 C1168 1.567 . S
C1172 H1233 0.961 . S
C1172 H1234 0.960 . S
C1172 H1235 0.958 . S
C1173 C1170 1.530 . S
C1173 H1236 0.961 . S
C1173 H1237 0.960 . S
C1173 H1238 0.960 . S
C1174 C1175 1.530 . S
C1174 H1240 0.961 . S
C1174 H1241 0.961 . S
C1174 H1242 0.959 . S
C1175 C1174 1.530 . S
C1175 O1203 1.412 . S
C1175 H1239 0.980 . S
C1176 C1177 1.288 . S
C1176 C1181 1.377 . S
C1176 O1203 1.393 . S
C1177 C1176 1.288 . S
C1177 C1178 1.369 . S
C1177 H1243 0.932 . S
C1178 C1177 1.369 . S
C1178 C1179 1.398 . S
C1178 C1182 1.527 . S
C1179 C1178 1.398 . S
C1179 C1180 1.380 . S
C1179 C1193 1.497 . S
C1180 C1179 1.380 . S
C1180 C1181 1.383 . S
C1180 C1183 1.603 . S
C1181 C1176 1.377 . S
C1181 C1180 1.383 . S
C1181 H1244 0.929 . S
C1182 C1178 1.527 . S
C1182 H1245 0.961 . S
C1182 H1246 0.959 . S
C1182 H1247 0.959 . S
C1183 C1180 1.603 . S
C1183 H1248 0.960 . S
C1183 H1249 0.962 . S
C1183 H1250 0.961 . S
C1184 C1151 1.587 . S
C1184 C1185 1.360 . S
C1184 C1197 1.412 . S
C1185 C1184 1.360 . S
C1185 C1186 1.365 . S
C1185 H1251 0.929 . S
C1186 C1161 1.553 . S
C1186 C1185 1.365 . S
C1186 C1187 1.404 . S
C1187 C1186 1.404 . S
C1187 C1188 1.395 . S
C1187 C1198 1.451 . S
C1188 C1187 1.395 . S
C1188 C1189 1.322 . S
C1188 H1252 0.930 . S
C1189 C1188 1.322 . S
C1189 C1190 1.459 . S
C1189 H1253 0.929 . S
C1190 C1189 1.459 . S
C1190 C1191 1.445 . S
C1190 C1199 1.395 . S
C1191 C1169 1.432 . S
C1191 C1190 1.445 . S
C1191 C1192 1.370 . S
C1192 C1191 1.370 . S
C1192 C1193 1.438 . S
C1192 H1254 0.930 . S
C1193 C1179 1.497 . S
C1193 C1192 1.438 . S
C1193 C1194 1.360 . S
C1194 C1193 1.360 . S
C1194 C1195 1.401 . S
C1194 C1199 1.446 . S
C1195 C1194 1.401 . S
C1195 C1196 1.347 . S
C1195 H1255 0.929 . S
C1196 C1195 1.347 . S
C1196 C1197 1.455 . S
C1196 H1256 0.930 . S
C1197 C1184 1.412 . S
C1197 C1196 1.455 . S
C1197 C1198 1.331 . S
C1198 C1187 1.451 . S
C1198 C1197 1.331 . S
C1198 C1199 1.497 . S
C1199 C1190 1.395 . S
C1199 C1194 1.446 . S
C1199 C1198 1.497 . S
C1200 C1201 1.582 . S
C1200 H1257 0.962 . S
C1200 H1258 0.959 . S
C1200 H1259 0.958 . S
C1201 C1200 1.582 . S
C1201 O1204 1.458 . S
C1201 H1230 0.980 . S
O1202 C1147 1.426 . S
O1202 C1148 1.334 . S
O1203 C1175 1.412 . S
O1203 C1176 1.393 . S
O1204 C1166 1.435 . S
O1204 C1201 1.458 . S
O1205 C1157 1.468 . S
O1205 C1158 1.408 . S
H1206 C1147 0.980 . S
H1207 C1146 0.959 . S
H1208 C1146 0.959 . S
H1209 C1146 0.960 . S
H1210 C1149 0.929 . S
H1211 C1153 0.929 . S
H1212 C1154 0.959 . S
H1213 C1154 0.961 . S
H1214 C1154 0.961 . S
H1215 C1155 0.960 . S
H1216 C1155 0.960 . S
H1217 C1155 0.961 . S
H1218 C1157 0.980 . S
H1219 C1156 0.961 . S
H1220 C1156 0.960 . S
H1221 C1156 0.959 . S
H1222 C1159 0.930 . S
H1223 C1163 0.931 . S
H1224 C1164 0.959 . S
H1225 C1164 0.961 . S
H1226 C1164 0.959 . S
H1227 C1165 0.960 . S
H1228 C1165 0.960 . S
H1229 C1165 0.960 . S
H1230 C1201 0.980 . S
H1231 C1167 0.930 . S
H1232 C1171 0.930 . S
H1233 C1172 0.961 . S
H1234 C1172 0.960 . S
H1235 C1172 0.958 . S
H1236 C1173 0.961 . S
H1237 C1173 0.960 . S
H1238 C1173 0.960 . S
H1239 C1175 0.980 . S
H1240 C1174 0.961 . S
H1241 C1174 0.961 . S
H1242 C1174 0.959 . S
H1243 C1177 0.932 . S
H1244 C1181 0.929 . S
H1245 C1182 0.961 . S
H1246 C1182 0.959 . S
H1247 C1182 0.959 . S
H1248 C1183 0.960 . S
H1249 C1183 0.962 . S
H1250 C1183 0.961 . S
H1251 C1185 0.929 . S
H1252 C1188 0.930 . S
H1253 C1189 0.929 . S
H1254 C1192 0.930 . S
H1255 C1195 0.929 . S
H1256 C1196 0.930 . S
H1257 C1200 0.962 . S
H1258 C1200 0.959 . S
H1259 C1200 0.958 . S
C1260 C1261 1.560 . S
C1260 H1321 0.959 . S
C1260 H1322 0.959 . S
C1260 H1323 0.960 . S
C1261 C1260 1.560 . S
C1261 O1316 1.426 . S
C1261 H1320 0.980 . S
C1262 C1263 1.407 1_455 S
C1262 C1267 1.418 . S
C1262 O1316 1.334 . S
C1263 C1262 1.407 1_655 S
C1263 C1264 1.360 . S
C1263 H1324 0.929 . S
C1264 C1263 1.360 . S
C1264 C1265 1.401 1_655 S
C1264 C1268 1.527 . S
C1265 C1264 1.401 1_455 S
C1265 C1266 1.405 . S
C1265 C1298 1.587 1_455 S
C1266 C1265 1.405 . S
C1266 C1267 1.332 . S
C1266 C1269 1.496 . S
C1267 C1262 1.418 . S
C1267 C1266 1.332 . S
C1267 H1325 0.929 . S
C1268 C1264 1.527 . S
C1268 H1326 0.959 . S
C1268 H1327 0.961 . S
C1268 H1328 0.961 . S
C1269 C1266 1.496 . S
C1269 H1329 0.960 . S
C1269 H1330 0.960 . S
C1269 H1331 0.961 . S
C1270 C1271 1.517 . S
C1270 H1333 0.961 . S
C1270 H1334 0.960 . S
C1270 H1335 0.959 . S
C1271 C1270 1.517 . S
C1271 O1319 1.468 . S
C1271 H1332 0.950 1_655 S
C1272 C1273 1.349 . S
C1272 C1277 1.367 . S
C1272 O1319 1.408 . S
C1273 C1272 1.349 . S
C1273 C1274 1.401 1_655 S
C1273 H1336 0.930 1_655 S
C1274 C1273 1.401 1_455 S
C1274 C1275 1.444 1_455 S
C1274 C1278 1.546 . S
C1275 C1274 1.444 1_655 S
C1275 C1276 1.384 . S
C1275 C1300 1.553 . S
C1276 C1275 1.384 . S
C1276 C1277 1.364 . S
C1276 C1279 1.450 . S
C1277 C1272 1.367 . S
C1277 C1276 1.364 . S
C1277 H1337 0.931 . S
C1278 C1274 1.546 . S
C1278 H1338 0.959 . S
C1278 H1339 0.961 . S
C1278 H1340 0.959 . S
C1279 C1276 1.450 . S
C1279 H1341 0.960 . S
C1279 H1342 0.960 . S
C1279 H1343 0.960 . S
C1280 C1281 1.309 . S
C1280 C1285 1.304 . S
C1280 O1318 1.435 . S
C1281 C1280 1.309 . S
C1281 C1282 1.488 . S
C1281 H1345 0.930 1_655 S
C1282 C1281 1.488 . S
C1282 C1283 1.407 . S
C1282 C1286 1.549 1_655 S
C1283 C1282 1.407 . S
C1283 C1284 1.373 . S
C1283 C1305 1.432 . S
C1284 C1283 1.373 . S
C1284 C1285 1.339 . S
C1284 C1287 1.530 . S
C1285 C1280 1.304 . S
C1285 C1284 1.339 . S
C1285 H1346 0.930 . S
C1286 C1282 1.549 1_455 S
C1286 H1347 0.961 . S
C1286 H1348 0.960 . S
C1286 H1349 0.958 . S
C1287 C1284 1.530 . S
C1287 H1350 0.961 . S
C1287 H1351 0.960 . S
C1287 H1352 0.960 . S
C1288 C1289 1.530 . S
C1288 H1354 0.961 . S
C1288 H1355 0.961 . S
C1288 H1356 0.959 . S
C1289 C1288 1.530 . S
C1289 O1317 1.412 . S
C1289 H1353 0.980 1_455 S
C1290 C1291 1.288 . S
C1290 C1295 1.377 1_455 S
C1290 O1317 1.393 . S
C1291 C1290 1.288 . S
C1291 C1292 1.369 . S
C1291 H1357 0.932 . S
C1292 C1291 1.369 . S
C1292 C1293 1.328 1_455 S
C1292 C1296 1.527 . S
C1293 C1292 1.328 1_655 S
C1293 C1294 1.400 . S
C1293 C1307 1.547 . S
C1294 C1293 1.400 . S
C1294 C1295 1.383 . S
C1294 C1297 1.603 . S
C1295 C1290 1.377 1_655 S
C1295 C1294 1.383 . S
C1295 H1358 0.929 . S
C1296 C1292 1.527 . S
C1296 H1359 0.961 . S
C1296 H1360 0.959 . S
C1296 H1361 0.959 . S
C1297 C1294 1.603 . S
C1297 H1362 0.960 . S
C1297 H1363 0.962 . S
C1297 H1364 0.961 . S
C1298 C1265 1.587 1_655 S
C1298 C1299 1.360 . S
C1298 C1311 1.412 . S
C1299 C1298 1.360 . S
C1299 C1300 1.365 . S
C1299 H1365 0.929 . S
C1300 C1275 1.553 . S
C1300 C1299 1.365 . S
C1300 C1301 1.404 . S
C1301 C1300 1.404 . S
C1301 C1302 1.395 . S
C1301 C1312 1.451 . S
C1302 C1301 1.395 . S
C1302 C1303 1.322 . S
C1302 H1366 0.930 . S
C1303 C1302 1.322 . S
C1303 C1304 1.459 . S
C1303 H1367 0.929 . S
C1304 C1303 1.459 . S
C1304 C1305 1.445 . S
C1304 C1313 1.395 . S
C1305 C1283 1.432 . S
C1305 C1304 1.445 . S
C1305 C1306 1.370 . S
C1306 C1305 1.370 . S
C1306 C1307 1.438 . S
C1306 H1368 0.930 . S
C1307 C1293 1.547 . S
C1307 C1306 1.438 . S
C1307 C1308 1.360 . S
C1308 C1307 1.360 . S
C1308 C1309 1.401 . S
C1308 C1313 1.446 . S
C1309 C1308 1.401 . S
C1309 C1310 1.347 . S
C1309 H1369 0.968 . S
C1310 C1309 1.347 . S
C1310 C1311 1.455 . S
C1310 H1370 0.968 . S
C1311 C1298 1.412 . S
C1311 C1310 1.455 . S
C1311 C1312 1.331 . S
C1312 C1301 1.451 . S
C1312 C1311 1.331 . S
C1312 C1313 1.497 . S
C1313 C1304 1.395 . S
C1313 C1308 1.446 . S
C1313 C1312 1.497 . S
C1314 C1315 1.582 . S
C1314 H1371 0.962 . S
C1314 H1372 0.959 . S
C1314 H1373 0.958 . S
C1315 C1314 1.582 . S
C1315 O1318 1.458 . S
C1315 H1344 0.980 . S
O1316 C1261 1.426 . S
O1316 C1262 1.334 . S
O1317 C1289 1.412 . S
O1317 C1290 1.393 . S
O1318 C1280 1.435 . S
O1318 C1315 1.458 . S
O1319 C1271 1.468 . S
O1319 C1272 1.408 . S
H1320 C1261 0.980 . S
H1321 C1260 0.959 . S
H1322 C1260 0.959 . S
H1323 C1260 0.960 . S
H1324 C1263 0.929 . S
H1325 C1267 0.929 . S
H1326 C1268 0.959 . S
H1327 C1268 0.961 . S
H1328 C1268 0.961 . S
H1329 C1269 0.960 . S
H1330 C1269 0.960 . S
H1331 C1269 0.961 . S
H1332 C1271 0.950 1_455 S
H1333 C1270 0.961 . S
H1334 C1270 0.960 . S
H1335 C1270 0.959 . S
H1336 C1273 0.930 1_455 S
H1337 C1277 0.931 . S
H1338 C1278 0.959 . S
H1339 C1278 0.961 . S
H1340 C1278 0.959 . S
H1341 C1279 0.960 . S
H1342 C1279 0.960 . S
H1343 C1279 0.960 . S
H1344 C1315 0.980 . S
H1345 C1281 0.930 1_455 S
H1346 C1285 0.930 . S
H1347 C1286 0.961 . S
H1348 C1286 0.960 . S
H1349 C1286 0.958 . S
H1350 C1287 0.961 . S
H1351 C1287 0.960 . S
H1352 C1287 0.960 . S
H1353 C1289 0.980 1_655 S
H1354 C1288 0.961 . S
H1355 C1288 0.961 . S
H1356 C1288 0.959 . S
H1357 C1291 0.932 . S
H1358 C1295 0.929 . S
H1359 C1296 0.961 . S
H1360 C1296 0.959 . S
H1361 C1296 0.959 . S
H1362 C1297 0.960 . S
H1363 C1297 0.962 . S
H1364 C1297 0.961 . S
H1365 C1299 0.929 . S
H1366 C1302 0.930 . S
H1367 C1303 0.929 . S
H1368 C1306 0.930 . S
H1369 C1309 0.968 . S
H1370 C1310 0.968 . S
H1371 C1314 0.962 . S
H1372 C1314 0.959 . S
H1373 C1314 0.958 . S
C1374 C1375 1.560 . S
C1374 H1435 0.959 . S
C1374 H1436 0.959 . S
C1374 H1437 0.960 . S
C1375 C1374 1.560 . S
C1375 O1430 1.426 . S
C1375 H1434 0.980 . S
C1376 C1377 1.407 . S
C1376 C1381 1.418 . S
C1376 O1430 1.334 . S
C1377 C1376 1.407 . S
C1377 C1378 1.360 . S
C1377 H1438 0.929 . S
C1378 C1377 1.360 . S
C1378 C1379 1.401 . S
C1378 C1382 1.527 . S
C1379 C1378 1.401 . S
C1379 C1380 1.405 . S
C1379 C1412 1.587 . S
C1380 C1379 1.405 . S
C1380 C1381 1.332 . S
C1380 C1383 1.496 . S
C1381 C1376 1.418 . S
C1381 C1380 1.332 . S
C1381 H1439 0.929 . S
C1382 C1378 1.527 . S
C1382 H1440 0.959 . S
C1382 H1441 0.961 . S
C1382 H1442 0.961 . S
C1383 C1380 1.496 . S
C1383 H1443 0.960 . S
C1383 H1444 0.960 . S
C1383 H1445 0.961 . S
C1384 C1385 1.517 . S
C1384 H1447 0.961 . S
C1384 H1448 0.960 . S
C1384 H1449 0.959 . S
C1385 C1384 1.517 . S
C1385 O1433 1.468 . S
C1385 H1446 0.980 . S
C1386 C1387 1.349 . S
C1386 C1391 1.367 . S
C1386 O1433 1.408 . S
C1387 C1386 1.349 . S
C1387 C1388 1.407 . S
C1387 H1450 0.930 . S
C1388 C1387 1.407 . S
C1388 C1389 1.449 . S
C1388 C1392 1.535 . S
C1389 C1388 1.449 . S
C1389 C1390 1.384 . S
C1389 C1414 1.553 . S
C1390 C1389 1.384 . S
C1390 C1391 1.364 . S
C1390 C1393 1.450 . S
C1391 C1386 1.367 . S
C1391 C1390 1.364 . S
C1391 H1451 0.931 . S
C1392 C1388 1.535 . S
C1392 H1452 0.959 . S
C1392 H1453 0.961 . S
C1392 H1454 0.959 . S
C1393 C1390 1.450 . S
C1393 H1455 0.960 . S
C1393 H1456 0.960 . S
C1393 H1457 0.960 . S
C1394 C1395 1.309 . S
C1394 C1399 1.304 . S
C1394 O1432 1.435 . S
C1395 C1394 1.309 . S
C1395 C1396 1.476 . S
C1395 H1459 0.930 . S
C1396 C1395 1.476 . S
C1396 C1397 1.400 . S
C1396 C1400 1.567 . S
C1397 C1396 1.400 . S
C1397 C1398 1.373 . S
C1397 C1419 1.432 . S
C1398 C1397 1.373 . S
C1398 C1399 1.339 . S
C1398 C1401 1.530 . S
C1399 C1394 1.304 . S
C1399 C1398 1.339 . S
C1399 H1460 0.930 . S
C1400 C1396 1.567 . S
C1400 H1461 0.961 . S
C1400 H1462 0.960 . S
C1400 H1463 0.958 . S
C1401 C1398 1.530 . S
C1401 H1464 0.961 . S
C1401 H1465 0.960 . S
C1401 H1466 0.960 . S
C1402 C1403 1.530 . S
C1402 H1468 0.961 . S
C1402 H1469 0.961 . S
C1402 H1470 0.959 . S
C1403 C1402 1.530 . S
C1403 O1431 1.412 . S
C1403 H1467 0.980 . S
C1404 C1405 1.288 . S
C1404 C1409 1.377 . S
C1404 O1431 1.393 . S
C1405 C1404 1.288 . S
C1405 C1406 1.369 . S
C1405 H1471 0.932 . S
C1406 C1405 1.369 . S
C1406 C1407 1.398 . S
C1406 C1410 1.527 . S
C1407 C1406 1.398 . S
C1407 C1408 1.380 . S
C1407 C1421 1.497 . S
C1408 C1407 1.380 . S
C1408 C1409 1.383 . S
C1408 C1411 1.603 . S
C1409 C1404 1.377 . S
C1409 C1408 1.383 . S
C1409 H1472 0.929 . S
C1410 C1406 1.527 . S
C1410 H1473 0.961 . S
C1410 H1474 0.959 . S
C1410 H1475 0.959 . S
C1411 C1408 1.603 . S
C1411 H1476 0.960 . S
C1411 H1477 0.962 . S
C1411 H1478 0.961 . S
C1412 C1379 1.587 . S
C1412 C1413 1.360 . S
C1412 C1425 1.412 . S
C1413 C1412 1.360 . S
C1413 C1414 1.365 . S
C1413 H1479 0.929 . S
C1414 C1389 1.553 . S
C1414 C1413 1.365 . S
C1414 C1415 1.404 . S
C1415 C1414 1.404 . S
C1415 C1416 1.395 . S
C1415 C1426 1.451 . S
C1416 C1415 1.395 . S
C1416 C1417 1.322 . S
C1416 H1480 0.930 . S
C1417 C1416 1.322 . S
C1417 C1418 1.459 . S
C1417 H1481 0.929 . S
C1418 C1417 1.459 . S
C1418 C1419 1.445 . S
C1418 C1427 1.395 . S
C1419 C1397 1.432 . S
C1419 C1418 1.445 . S
C1419 C1420 1.370 . S
C1420 C1419 1.370 . S
C1420 C1421 1.438 . S
C1420 H1482 0.930 . S
C1421 C1407 1.497 . S
C1421 C1420 1.438 . S
C1421 C1422 1.360 . S
C1422 C1421 1.360 . S
C1422 C1423 1.401 . S
C1422 C1427 1.446 . S
C1423 C1422 1.401 . S
C1423 C1424 1.347 . S
C1423 H1483 0.929 . S
C1424 C1423 1.347 . S
C1424 C1425 1.455 . S
C1424 H1484 0.930 . S
C1425 C1412 1.412 . S
C1425 C1424 1.455 . S
C1425 C1426 1.331 . S
C1426 C1415 1.451 . S
C1426 C1425 1.331 . S
C1426 C1427 1.497 . S
C1427 C1418 1.395 . S
C1427 C1422 1.446 . S
C1427 C1426 1.497 . S
C1428 C1429 1.582 . S
C1428 H1485 0.962 . S
C1428 H1486 0.959 . S
C1428 H1487 0.958 . S
C1429 C1428 1.582 . S
C1429 O1432 1.458 . S
C1429 H1458 0.980 . S
O1430 C1375 1.426 . S
O1430 C1376 1.334 . S
O1431 C1403 1.412 . S
O1431 C1404 1.393 . S
O1432 C1394 1.435 . S
O1432 C1429 1.458 . S
O1433 C1385 1.468 . S
O1433 C1386 1.408 . S
H1434 C1375 0.980 . S
H1435 C1374 0.959 . S
H1436 C1374 0.959 . S
H1437 C1374 0.960 . S
H1438 C1377 0.929 . S
H1439 C1381 0.929 . S
H1440 C1382 0.959 . S
H1441 C1382 0.961 . S
H1442 C1382 0.961 . S
H1443 C1383 0.960 . S
H1444 C1383 0.960 . S
H1445 C1383 0.961 . S
H1446 C1385 0.980 . S
H1447 C1384 0.961 . S
H1448 C1384 0.960 . S
H1449 C1384 0.959 . S
H1450 C1387 0.930 . S
H1451 C1391 0.931 . S
H1452 C1392 0.959 . S
H1453 C1392 0.961 . S
H1454 C1392 0.959 . S
H1455 C1393 0.960 . S
H1456 C1393 0.960 . S
H1457 C1393 0.960 . S
H1458 C1429 0.980 . S
H1459 C1395 0.930 . S
H1460 C1399 0.930 . S
H1461 C1400 0.961 . S
H1462 C1400 0.960 . S
H1463 C1400 0.958 . S
H1464 C1401 0.961 . S
H1465 C1401 0.960 . S
H1466 C1401 0.960 . S
H1467 C1403 0.980 . S
H1468 C1402 0.961 . S
H1469 C1402 0.961 . S
H1470 C1402 0.959 . S
H1471 C1405 0.932 . S
H1472 C1409 0.929 . S
H1473 C1410 0.961 . S
H1474 C1410 0.959 . S
H1475 C1410 0.959 . S
H1476 C1411 0.960 . S
H1477 C1411 0.962 . S
H1478 C1411 0.961 . S
H1479 C1413 0.929 . S
H1480 C1416 0.930 . S
H1481 C1417 0.929 . S
H1482 C1420 0.930 . S
H1483 C1423 0.929 . S
H1484 C1424 0.930 . S
H1485 C1428 0.962 . S
H1486 C1428 0.959 . S
H1487 C1428 0.958 . S
C1488 C1489 1.560 . S
C1488 H1549 0.959 . S
C1488 H1550 0.959 . S
C1488 H1551 0.960 . S
C1489 C1488 1.560 . S
C1489 O1544 1.426 . S
C1489 H1548 0.980 . S
C1490 C1491 1.407 1_565 S
C1490 C1495 1.418 . S
C1490 O1544 1.334 . S
C1491 C1490 1.407 1_545 S
C1491 C1492 1.360 . S
C1491 H1552 0.929 . S
C1492 C1491 1.360 . S
C1492 C1493 1.401 1_545 S
C1492 C1496 1.527 . S
C1493 C1492 1.401 1_565 S
C1493 C1494 1.405 . S
C1493 C1526 1.587 1_565 S
C1494 C1493 1.405 . S
C1494 C1495 1.332 . S
C1494 C1497 1.496 . S
C1495 C1490 1.418 . S
C1495 C1494 1.332 . S
C1495 H1553 0.929 . S
C1496 C1492 1.527 . S
C1496 H1554 0.959 . S
C1496 H1555 0.961 . S
C1496 H1556 0.961 . S
C1497 C1494 1.496 . S
C1497 H1557 0.960 . S
C1497 H1558 0.960 . S
C1497 H1559 0.961 . S
C1498 C1499 1.517 . S
C1498 H1561 0.961 1_545 S
C1498 H1562 0.960 . S
C1498 H1563 0.959 . S
C1499 C1498 1.517 . S
C1499 O1547 1.468 . S
C1499 H1560 0.980 1_545 S
C1500 C1501 1.329 1_545 S
C1500 C1505 1.367 . S
C1500 O1547 1.408 . S
C1501 C1500 1.329 1_565 S
C1501 C1502 1.393 . S
C1501 H1564 0.967 . S
C1502 C1501 1.393 . S
C1502 C1503 1.449 1_565 S
C1502 C1506 1.535 . S
C1503 C1502 1.449 1_545 S
C1503 C1504 1.384 . S
C1503 C1528 1.553 . S
C1504 C1503 1.384 . S
C1504 C1505 1.364 . S
C1504 C1507 1.450 . S
C1505 C1500 1.367 . S
C1505 C1504 1.364 . S
C1505 H1565 0.931 . S
C1506 C1502 1.535 . S
C1506 H1566 0.959 . S
C1506 H1567 0.961 . S
C1506 H1568 0.959 . S
C1507 C1504 1.450 . S
C1507 H1569 0.960 . S
C1507 H1570 0.960 . S
C1507 H1571 0.960 . S
C1508 C1509 1.309 . S
C1508 C1513 1.304 . S
C1508 O1546 1.435 . S
C1509 C1508 1.309 . S
C1509 C1510 1.494 1_545 S
C1509 H1573 0.930 1_545 S
C1510 C1509 1.494 1_565 S
C1510 C1511 1.345 1_565 S
C1510 C1514 1.604 . S
C1511 C1510 1.345 1_545 S
C1511 C1512 1.373 . S
C1511 C1533 1.432 . S
C1512 C1511 1.373 . S
C1512 C1513 1.339 . S
C1512 C1515 1.530 . S
C1513 C1508 1.304 . S
C1513 C1512 1.339 . S
C1513 H1574 0.930 . S
C1514 C1510 1.604 . S
C1514 H1575 0.961 . S
C1514 H1576 0.960 . S
C1514 H1577 0.958 . S
C1515 C1512 1.530 . S
C1515 H1578 0.961 . S
C1515 H1579 0.960 . S
C1515 H1580 0.960 . S
C1516 C1517 1.530 1_565 S
C1516 H1582 1.019 . S
C1516 H1583 0.961 . S
C1516 H1584 0.959 . S
C1517 C1516 1.530 1_545 S
C1517 O1545 1.412 1_545 S
C1517 H1581 0.980 . S
C1518 C1519 1.288 . S
C1518 C1523 1.377 1_565 S
C1518 O1545 1.393 . S
C1519 C1518 1.288 . S
C1519 C1520 1.369 . S
C1519 H1585 0.932 . S
C1520 C1519 1.369 . S
C1520 C1521 1.398 1_565 S
C1520 C1524 1.527 . S
C1521 C1520 1.398 1_545 S
C1521 C1522 1.380 . S
C1521 C1535 1.497 . S
C1522 C1521 1.380 . S
C1522 C1523 1.383 . S
C1522 C1525 1.603 . S
C1523 C1518 1.377 1_545 S
C1523 C1522 1.383 . S
C1523 H1586 0.929 . S
C1524 C1520 1.527 . S
C1524 H1587 0.961 . S
C1524 H1588 0.959 . S
C1524 H1589 0.959 . S
C1525 C1522 1.603 . S
C1525 H1590 0.960 . S
C1525 H1591 0.962 . S
C1525 H1592 0.961 . S
C1526 C1493 1.587 1_545 S
C1526 C1527 1.360 . S
C1526 C1539 1.412 . S
C1527 C1526 1.360 . S
C1527 C1528 1.365 . S
C1527 H1593 0.929 . S
C1528 C1503 1.553 . S
C1528 C1527 1.365 . S
C1528 C1529 1.404 . S
C1529 C1528 1.404 . S
C1529 C1530 1.395 . S
C1529 C1540 1.451 . S
C1530 C1529 1.395 . S
C1530 C1531 1.322 . S
C1530 H1594 0.930 . S
C1531 C1530 1.322 . S
C1531 C1532 1.459 . S
C1531 H1595 0.929 . S
C1532 C1531 1.459 . S
C1532 C1533 1.445 . S
C1532 C1541 1.395 . S
C1533 C1511 1.432 . S
C1533 C1532 1.445 . S
C1533 C1534 1.370 . S
C1534 C1533 1.370 . S
C1534 C1535 1.438 . S
C1534 H1596 0.930 . S
C1535 C1521 1.497 . S
C1535 C1534 1.438 . S
C1535 C1536 1.360 . S
C1536 C1535 1.360 . S
C1536 C1537 1.401 . S
C1536 C1541 1.446 . S
C1537 C1536 1.401 . S
C1537 C1538 1.347 . S
C1537 H1597 0.929 . S
C1538 C1537 1.347 . S
C1538 C1539 1.455 . S
C1538 H1598 0.930 . S
C1539 C1526 1.412 . S
C1539 C1538 1.455 . S
C1539 C1540 1.331 . S
C1540 C1529 1.451 . S
C1540 C1539 1.331 . S
C1540 C1541 1.497 . S
C1541 C1532 1.395 . S
C1541 C1536 1.446 . S
C1541 C1540 1.497 . S
C1542 C1543 1.582 . S
C1542 H1599 0.962 . S
C1542 H1600 0.959 . S
C1542 H1601 0.958 . S
C1543 C1542 1.582 . S
C1543 O1546 1.458 . S
C1543 H1572 0.980 . S
O1544 C1489 1.426 . S
O1544 C1490 1.334 . S
O1545 C1517 1.412 1_565 S
O1545 C1518 1.393 . S
O1546 C1508 1.435 . S
O1546 C1543 1.458 . S
O1547 C1499 1.468 . S
O1547 C1500 1.408 . S
H1548 C1489 0.980 . S
H1549 C1488 0.959 . S
H1550 C1488 0.959 . S
H1551 C1488 0.960 . S
H1552 C1491 0.929 . S
H1553 C1495 0.929 . S
H1554 C1496 0.959 . S
H1555 C1496 0.961 . S
H1556 C1496 0.961 . S
H1557 C1497 0.960 . S
H1558 C1497 0.960 . S
H1559 C1497 0.961 . S
H1560 C1499 0.980 1_565 S
H1561 C1498 0.961 1_565 S
H1562 C1498 0.960 . S
H1563 C1498 0.959 . S
H1564 C1501 0.967 . S
H1565 C1505 0.931 . S
H1566 C1506 0.959 . S
H1567 C1506 0.961 . S
H1568 C1506 0.959 . S
H1569 C1507 0.960 . S
H1570 C1507 0.960 . S
H1571 C1507 0.960 . S
H1572 C1543 0.980 . S
H1573 C1509 0.930 1_565 S
H1574 C1513 0.930 . S
H1575 C1514 0.961 . S
H1576 C1514 0.960 . S
H1577 C1514 0.958 . S
H1578 C1515 0.961 . S
H1579 C1515 0.960 . S
H1580 C1515 0.960 . S
H1581 C1517 0.980 . S
H1582 C1516 1.019 . S
H1583 C1516 0.961 . S
H1584 C1516 0.959 . S
H1585 C1519 0.932 . S
H1586 C1523 0.929 . S
H1587 C1524 0.961 . S
H1588 C1524 0.959 . S
H1589 C1524 0.959 . S
H1590 C1525 0.960 . S
H1591 C1525 0.962 . S
H1592 C1525 0.961 . S
H1593 C1527 0.929 . S
H1594 C1530 0.930 . S
H1595 C1531 0.929 . S
H1596 C1534 0.930 . S
H1597 C1537 0.929 . S
H1598 C1538 0.930 . S
H1599 C1542 0.962 . S
H1600 C1542 0.959 . S
H1601 C1542 0.958 . S
C1602 C1603 1.560 . S
C1602 H1663 0.959 . S
C1602 H1664 0.959 . S
C1602 H1665 0.960 . S
C1603 C1602 1.560 . S
C1603 O1658 1.426 . S
C1603 H1662 0.980 1_565 S
C1604 C1605 1.407 1_565 S
C1604 C1609 1.418 . S
C1604 O1658 1.334 . S
C1605 C1604 1.407 1_545 S
C1605 C1606 1.360 . S
C1605 H1666 0.929 . S
C1606 C1605 1.360 . S
C1606 C1607 1.401 . S
C1606 C1610 1.527 . S
C1607 C1606 1.401 . S
C1607 C1608 1.405 1_545 S
C1607 C1640 1.587 . S
C1608 C1607 1.405 1_565 S
C1608 C1609 1.332 . S
C1608 C1611 1.496 . S
C1609 C1604 1.418 . S
C1609 C1608 1.332 . S
C1609 H1667 0.929 . S
C1610 C1606 1.527 . S
C1610 H1668 0.959 . S
C1610 H1669 0.961 . S
C1610 H1670 0.961 . S
C1611 C1608 1.496 . S
C1611 H1671 0.960 . S
C1611 H1672 0.960 . S
C1611 H1673 0.961 . S
C1612 C1613 1.517 . S
C1612 H1675 0.961 . S
C1612 H1676 0.960 . S
C1612 H1677 0.959 . S
C1613 C1612 1.517 . S
C1613 O1661 1.468 . S
C1613 H1674 0.980 . S
C1614 C1615 1.349 . S
C1614 C1619 1.367 . S
C1614 O1661 1.408 . S
C1615 C1614 1.349 . S
C1615 C1616 1.407 . S
C1615 H1678 0.945 . S
C1616 C1615 1.407 . S
C1616 C1617 1.449 . S
C1616 C1620 1.535 1_545 S
C1617 C1616 1.449 . S
C1617 C1618 1.384 . S
C1617 C1642 1.553 . S
C1618 C1617 1.384 . S
C1618 C1619 1.364 . S
C1618 C1621 1.450 . S
C1619 C1614 1.367 . S
C1619 C1618 1.364 . S
C1619 H1679 0.931 . S
C1620 C1616 1.535 1_565 S
C1620 H1680 0.959 . S
C1620 H1681 0.961 . S
C1620 H1682 0.959 . S
C1621 C1618 1.450 . S
C1621 H1683 0.960 . S
C1621 H1684 0.960 . S
C1621 H1685 0.960 . S
C1622 C1623 1.309 1_545 S
C1622 C1627 1.304 . S
C1622 O1660 1.435 . S
C1623 C1622 1.309 1_565 S
C1623 C1624 1.476 . S
C1623 H1687 0.930 . S
C1624 C1623 1.476 . S
C1624 C1625 1.400 1_565 S
C1624 C1628 1.567 . S
C1625 C1624 1.400 1_545 S
C1625 C1626 1.373 . S
C1625 C1647 1.432 . S
C1626 C1625 1.373 . S
C1626 C1627 1.339 . S
C1626 C1629 1.530 . S
C1627 C1622 1.304 . S
C1627 C1626 1.339 . S
C1627 H1688 0.930 . S
C1628 C1624 1.567 . S
C1628 H1689 0.961 . S
C1628 H1690 0.960 . S
C1628 H1691 0.958 . S
C1629 C1626 1.530 . S
C1629 H1692 0.961 . S
C1629 H1693 0.960 . S
C1629 H1694 0.960 . S
C1630 C1631 1.530 . S
C1630 H1696 0.961 . S
C1630 H1697 0.961 . S
C1630 H1698 0.959 . S
C1631 C1630 1.530 . S
C1631 O1659 1.412 . S
C1631 H1695 0.980 . S
C1632 C1633 1.288 . S
C1632 C1637 1.377 1_565 S
C1632 O1659 1.393 . S
C1633 C1632 1.288 . S
C1633 C1634 1.369 . S
C1633 H1699 0.932 . S
C1634 C1633 1.369 . S
C1634 C1635 1.398 . S
C1634 C1638 1.527 . S
C1635 C1634 1.398 . S
C1635 C1636 1.380 1_565 S
C1635 C1649 1.497 1_565 S
C1636 C1635 1.380 1_545 S
C1636 C1637 1.383 . S
C1636 C1639 1.603 . S
C1637 C1632 1.377 1_545 S
C1637 C1636 1.383 . S
C1637 H1700 0.929 . S
C1638 C1634 1.527 . S
C1638 H1701 0.961 . S
C1638 H1702 0.959 . S
C1638 H1703 0.959 . S
C1639 C1636 1.603 . S
C1639 H1704 0.960 . S
C1639 H1705 0.962 . S
C1639 H1706 0.961 . S
C1640 C1607 1.587 . S
C1640 C1641 1.360 . S
C1640 C1653 1.412 . S
C1641 C1640 1.360 . S
C1641 C1642 1.365 . S
C1641 H1707 0.929 . S
C1642 C1617 1.553 . S
C1642 C1641 1.365 . S
C1642 C1643 1.404 . S
C1643 C1642 1.404 . S
C1643 C1644 1.395 . S
C1643 C1654 1.451 . S
C1644 C1643 1.395 . S
C1644 C1645 1.322 . S
C1644 H1708 0.930 . S
C1645 C1644 1.322 . S
C1645 C1646 1.459 . S
C1645 H1709 0.929 . S
C1646 C1645 1.459 . S
C1646 C1647 1.445 . S
C1646 C1655 1.395 . S
C1647 C1625 1.432 . S
C1647 C1646 1.445 . S
C1647 C1648 1.370 . S
C1648 C1647 1.370 . S
C1648 C1649 1.438 . S
C1648 H1710 0.930 . S
C1649 C1635 1.497 1_545 S
C1649 C1648 1.438 . S
C1649 C1650 1.360 . S
C1650 C1649 1.360 . S
C1650 C1651 1.401 . S
C1650 C1655 1.446 . S
C1651 C1650 1.401 . S
C1651 C1652 1.347 . S
C1651 H1711 0.935 . S
C1652 C1651 1.347 . S
C1652 C1653 1.455 . S
C1652 H1712 0.930 . S
C1653 C1640 1.412 . S
C1653 C1652 1.455 . S
C1653 C1654 1.331 . S
C1654 C1643 1.451 . S
C1654 C1653 1.331 . S
C1654 C1655 1.497 . S
C1655 C1646 1.395 . S
C1655 C1650 1.446 . S
C1655 C1654 1.497 . S
C1656 C1657 1.582 . S
C1656 H1713 0.962 . S
C1656 H1714 0.959 . S
C1656 H1715 0.958 . S
C1657 C1656 1.582 . S
C1657 O1660 1.458 . S
C1657 H1686 0.983 1_545 S
O1658 C1603 1.426 . S
O1658 C1604 1.334 . S
O1659 C1631 1.412 . S
O1659 C1632 1.393 . S
O1660 C1622 1.435 . S
O1660 C1657 1.458 . S
O1661 C1613 1.468 . S
O1661 C1614 1.408 . S
H1662 C1603 0.980 1_545 S
H1663 C1602 0.959 . S
H1664 C1602 0.959 . S
H1665 C1602 0.960 . S
H1666 C1605 0.929 . S
H1667 C1609 0.929 . S
H1668 C1610 0.959 . S
H1669 C1610 0.961 . S
H1670 C1610 0.961 . S
H1671 C1611 0.960 . S
H1672 C1611 0.960 . S
H1673 C1611 0.961 . S
H1674 C1613 0.980 . S
H1675 C1612 0.961 . S
H1676 C1612 0.960 . S
H1677 C1612 0.959 . S
H1678 C1615 0.945 . S
H1679 C1619 0.931 . S
H1680 C1620 0.959 . S
H1681 C1620 0.961 . S
H1682 C1620 0.959 . S
H1683 C1621 0.960 . S
H1684 C1621 0.960 . S
H1685 C1621 0.960 . S
H1686 C1657 0.983 1_565 S
H1687 C1623 0.930 . S
H1688 C1627 0.930 . S
H1689 C1628 0.961 . S
H1690 C1628 0.960 . S
H1691 C1628 0.958 . S
H1692 C1629 0.961 . S
H1693 C1629 0.960 . S
H1694 C1629 0.960 . S
H1695 C1631 0.980 . S
H1696 C1630 0.961 . S
H1697 C1630 0.961 . S
H1698 C1630 0.959 . S
H1699 C1633 0.932 . S
H1700 C1637 0.929 . S
H1701 C1638 0.961 . S
H1702 C1638 0.959 . S
H1703 C1638 0.959 . S
H1704 C1639 0.960 . S
H1705 C1639 0.962 . S
H1706 C1639 0.961 . S
H1707 C1641 0.929 . S
H1708 C1644 0.930 . S
H1709 C1645 0.929 . S
H1710 C1648 0.930 . S
H1711 C1651 0.935 . S
H1712 C1652 0.930 . S
H1713 C1656 0.962 . S
H1714 C1656 0.959 . S
H1715 C1656 0.958 . S
C1716 C1717 1.563 . S
C1716 H1777 0.959 . S
C1716 H1778 0.959 . S
C1716 H1779 0.960 . S
C1717 C1716 1.563 . S
C1717 O1772 1.431 . S
C1717 H1776 0.979 1_455 S
C1718 C1719 1.407 1_455 S
C1718 C1723 1.418 . S
C1718 O1772 1.334 . S
C1719 C1718 1.407 1_655 S
C1719 C1720 1.360 . S
C1719 H1780 0.929 . S
C1720 C1719 1.360 . S
C1720 C1721 1.401 . S
C1720 C1724 1.527 . S
C1721 C1720 1.401 . S
C1721 C1722 1.405 1_655 S
C1721 C1754 1.587 . S
C1722 C1721 1.405 1_455 S
C1722 C1723 1.332 . S
C1722 C1725 1.496 . S
C1723 C1718 1.418 . S
C1723 C1722 1.332 . S
C1723 H1781 0.929 . S
C1724 C1720 1.527 . S
C1724 H1782 0.959 . S
C1724 H1783 0.961 . S
C1724 H1784 0.961 . S
C1725 C1722 1.496 . S
C1725 H1785 0.960 . S
C1725 H1786 0.960 . S
C1725 H1787 0.961 . S
C1726 C1727 1.517 . S
C1726 H1789 0.961 . S
C1726 H1790 0.960 . S
C1726 H1791 0.959 . S
C1727 C1726 1.517 . S
C1727 O1775 1.468 . S
C1727 H1788 0.980 . S
C1728 C1729 1.349 . S
C1728 C1733 1.367 . S
C1728 O1775 1.408 . S
C1729 C1728 1.349 . S
C1729 C1730 1.407 . S
C1729 H1792 0.861 1_655 S
C1730 C1729 1.407 . S
C1730 C1731 1.449 . S
C1730 C1734 1.535 1_655 S
C1731 C1730 1.449 . S
C1731 C1732 1.384 . S
C1731 C1756 1.553 . S
C1732 C1731 1.384 . S
C1732 C1733 1.364 . S
C1732 C1735 1.450 . S
C1733 C1728 1.367 . S
C1733 C1732 1.364 . S
C1733 H1793 0.931 . S
C1734 C1730 1.535 1_455 S
C1734 H1794 0.959 . S
C1734 H1795 0.961 . S
C1734 H1796 0.959 . S
C1735 C1732 1.450 . S
C1735 H1797 0.960 . S
C1735 H1798 0.960 . S
C1735 H1799 0.960 . S
C1736 C1737 1.309 1_655 S
C1736 C1741 1.304 . S
C1736 O1774 1.435 . S
C1737 C1736 1.309 1_455 S
C1737 C1738 1.476 . S
C1737 H1801 0.930 . S
C1738 C1737 1.476 . S
C1738 C1739 1.400 1_455 S
C1738 C1742 1.567 . S
C1739 C1738 1.400 1_655 S
C1739 C1740 1.373 . S
C1739 C1761 1.432 . S
C1740 C1739 1.373 . S
C1740 C1741 1.339 . S
C1740 C1743 1.530 . S
C1741 C1736 1.304 . S
C1741 C1740 1.339 . S
C1741 H1802 0.930 . S
C1742 C1738 1.567 . S
C1742 H1803 0.961 . S
C1742 H1804 0.960 . S
C1742 H1805 0.958 . S
C1743 C1740 1.530 . S
C1743 H1806 0.961 . S
C1743 H1807 0.960 . S
C1743 H1808 0.960 . S
C1744 C1745 1.530 . S
C1744 H1810 0.961 . S
C1744 H1811 0.961 . S
C1744 H1812 0.959 . S
C1745 C1744 1.530 . S
C1745 O1773 1.412 . S
C1745 H1809 0.980 1_455 S
C1746 C1747 1.288 . S
C1746 C1751 1.377 1_455 S
C1746 O1773 1.393 . S
C1747 C1746 1.288 . S
C1747 C1748 1.369 . S
C1747 H1813 0.932 . S
C1748 C1747 1.369 . S
C1748 C1749 1.398 . S
C1748 C1752 1.527 . S
C1749 C1748 1.398 . S
C1749 C1750 1.380 1_455 S
C1749 C1763 1.497 1_455 S
C1750 C1749 1.380 1_655 S
C1750 C1751 1.383 . S
C1750 C1753 1.603 . S
C1751 C1746 1.377 1_655 S
C1751 C1750 1.383 . S
C1751 H1814 0.929 . S
C1752 C1748 1.527 . S
C1752 H1815 0.961 . S
C1752 H1816 0.959 . S
C1752 H1817 0.959 . S
C1753 C1750 1.603 . S
C1753 H1818 0.960 . S
C1753 H1819 0.962 . S
C1753 H1820 0.961 . S
C1754 C1721 1.587 . S
C1754 C1755 1.360 . S
C1754 C1767 1.412 . S
C1755 C1754 1.360 . S
C1755 C1756 1.365 . S
C1755 H1821 0.929 . S
C1756 C1731 1.553 . S
C1756 C1755 1.365 . S
C1756 C1757 1.404 . S
C1757 C1756 1.404 . S
C1757 C1758 1.395 . S
C1757 C1768 1.451 . S
C1758 C1757 1.395 . S
C1758 C1759 1.322 . S
C1758 H1822 0.930 . S
C1759 C1758 1.322 . S
C1759 C1760 1.459 . S
C1759 H1823 0.929 . S
C1760 C1759 1.459 . S
C1760 C1761 1.445 . S
C1760 C1769 1.395 . S
C1761 C1739 1.432 . S
C1761 C1760 1.445 . S
C1761 C1762 1.370 . S
C1762 C1761 1.370 . S
C1762 C1763 1.438 . S
C1762 H1824 0.930 . S
C1763 C1749 1.497 1_655 S
C1763 C1762 1.438 . S
C1763 C1764 1.360 . S
C1764 C1763 1.360 . S
C1764 C1765 1.401 . S
C1764 C1769 1.446 . S
C1765 C1764 1.401 . S
C1765 C1766 1.347 . S
C1765 H1825 0.929 . S
C1766 C1765 1.347 . S
C1766 C1767 1.455 . S
C1766 H1826 0.930 . S
C1767 C1754 1.412 . S
C1767 C1766 1.455 . S
C1767 C1768 1.331 . S
C1768 C1757 1.451 . S
C1768 C1767 1.331 . S
C1768 C1769 1.497 . S
C1769 C1760 1.395 . S
C1769 C1764 1.446 . S
C1769 C1768 1.497 . S
C1770 C1771 1.582 1_655 S
C1770 H1827 0.962 1_655 S
C1770 H1828 0.959 . S
C1770 H1829 0.958 . S
C1771 C1770 1.582 1_455 S
C1771 O1774 1.458 1_455 S
C1771 H1800 0.980 . S
O1772 C1717 1.431 . S
O1772 C1718 1.334 . S
O1773 C1745 1.412 . S
O1773 C1746 1.393 . S
O1774 C1736 1.435 . S
O1774 C1771 1.458 1_655 S
O1775 C1727 1.468 . S
O1775 C1728 1.408 . S
H1776 C1717 0.979 1_655 S
H1777 C1716 0.959 . S
H1778 C1716 0.959 . S
H1779 C1716 0.960 . S
H1780 C1719 0.929 . S
H1781 C1723 0.929 . S
H1782 C1724 0.959 . S
H1783 C1724 0.961 . S
H1784 C1724 0.961 . S
H1785 C1725 0.960 . S
H1786 C1725 0.960 . S
H1787 C1725 0.961 . S
H1788 C1727 0.980 . S
H1789 C1726 0.961 . S
H1790 C1726 0.960 . S
H1791 C1726 0.959 . S
H1792 C1729 0.861 1_455 S
H1793 C1733 0.931 . S
H1794 C1734 0.959 . S
H1795 C1734 0.961 . S
H1796 C1734 0.959 . S
H1797 C1735 0.960 . S
H1798 C1735 0.960 . S
H1799 C1735 0.960 . S
H1800 C1771 0.980 . S
H1801 C1737 0.930 . S
H1802 C1741 0.930 . S
H1803 C1742 0.961 . S
H1804 C1742 0.960 . S
H1805 C1742 0.958 . S
H1806 C1743 0.961 . S
H1807 C1743 0.960 . S
H1808 C1743 0.960 . S
H1809 C1745 0.980 1_655 S
H1810 C1744 0.961 . S
H1811 C1744 0.961 . S
H1812 C1744 0.959 . S
H1813 C1747 0.932 . S
H1814 C1751 0.929 . S
H1815 C1752 0.961 . S
H1816 C1752 0.959 . S
H1817 C1752 0.959 . S
H1818 C1753 0.960 . S
H1819 C1753 0.962 . S
H1820 C1753 0.961 . S
H1821 C1755 0.929 . S
H1822 C1758 0.930 . S
H1823 C1759 0.929 . S
H1824 C1762 0.930 . S
H1825 C1765 0.929 . S
H1826 C1766 0.930 . S
H1827 C1770 0.962 1_455 S
H1828 C1770 0.959 . S
H1829 C1770 0.958 . S
C1830 C1831 1.560 . S
C1830 H1891 0.959 . S
C1830 H1892 0.959 . S
C1830 H1893 0.960 . S
C1831 C1830 1.560 . S
C1831 O1886 1.426 . S
C1831 H1890 0.980 . S
C1832 C1833 1.407 . S
C1832 C1837 1.418 . S
C1832 O1886 1.334 . S
C1833 C1832 1.407 . S
C1833 C1834 1.360 . S
C1833 H1894 0.929 . S
C1834 C1833 1.360 . S
C1834 C1835 1.401 . S
C1834 C1838 1.527 . S
C1835 C1834 1.401 . S
C1835 C1836 1.405 . S
C1835 C1868 1.587 . S
C1836 C1835 1.405 . S
C1836 C1837 1.332 . S
C1836 C1839 1.496 . S
C1837 C1832 1.418 . S
C1837 C1836 1.332 . S
C1837 H1895 0.929 . S
C1838 C1834 1.527 . S
C1838 H1896 0.959 . S
C1838 H1897 0.961 . S
C1838 H1898 0.961 . S
C1839 C1836 1.496 . S
C1839 H1899 0.960 . S
C1839 H1900 0.960 . S
C1839 H1901 0.961 . S
C1840 C1841 1.517 . S
C1840 H1903 0.961 . S
C1840 H1904 0.960 . S
C1840 H1905 0.959 . S
C1841 C1840 1.517 . S
C1841 O1889 1.468 . S
C1841 H1902 0.980 . S
C1842 C1843 1.349 . S
C1842 C1847 1.367 . S
C1842 O1889 1.408 . S
C1843 C1842 1.349 . S
C1843 C1844 1.407 . S
C1843 H1906 0.930 . S
C1844 C1843 1.407 . S
C1844 C1845 1.449 . S
C1844 C1848 1.535 . S
C1845 C1844 1.449 . S
C1845 C1846 1.384 . S
C1845 C1870 1.553 . S
C1846 C1845 1.384 . S
C1846 C1847 1.364 . S
C1846 C1849 1.450 . S
C1847 C1842 1.367 . S
C1847 C1846 1.364 . S
C1847 H1907 0.931 . S
C1848 C1844 1.535 . S
C1848 H1908 0.959 . S
C1848 H1909 0.961 . S
C1848 H1910 0.959 . S
C1849 C1846 1.450 . S
C1849 H1911 0.960 . S
C1849 H1912 0.960 . S
C1849 H1913 0.960 . S
C1850 C1851 1.309 . S
C1850 C1855 1.304 . S
C1850 O1888 1.435 . S
C1851 C1850 1.309 . S
C1851 C1852 1.476 . S
C1851 H1915 0.930 . S
C1852 C1851 1.476 . S
C1852 C1853 1.400 . S
C1852 C1856 1.567 . S
C1853 C1852 1.400 . S
C1853 C1854 1.373 . S
C1853 C1875 1.432 . S
C1854 C1853 1.373 . S
C1854 C1855 1.339 . S
C1854 C1857 1.530 . S
C1855 C1850 1.304 . S
C1855 C1854 1.339 . S
C1855 H1916 0.930 . S
C1856 C1852 1.567 . S
C1856 H1917 0.961 . S
C1856 H1918 0.960 . S
C1856 H1919 0.958 . S
C1857 C1854 1.530 . S
C1857 H1920 0.961 . S
C1857 H1921 0.960 . S
C1857 H1922 0.960 . S
C1858 C1859 1.530 . S
C1858 H1924 0.961 . S
C1858 H1925 0.961 . S
C1858 H1926 0.959 . S
C1859 C1858 1.530 . S
C1859 O1887 1.412 . S
C1859 H1923 0.980 . S
C1860 C1861 1.288 . S
C1860 C1865 1.377 . S
C1860 O1887 1.393 . S
C1861 C1860 1.288 . S
C1861 C1862 1.369 . S
C1861 H1927 0.932 . S
C1862 C1861 1.369 . S
C1862 C1863 1.398 . S
C1862 C1866 1.527 . S
C1863 C1862 1.398 . S
C1863 C1864 1.380 . S
C1863 C1877 1.497 . S
C1864 C1863 1.380 . S
C1864 C1865 1.383 . S
C1864 C1867 1.603 . S
C1865 C1860 1.377 . S
C1865 C1864 1.383 . S
C1865 H1928 0.929 . S
C1866 C1862 1.527 . S
C1866 H1929 0.961 . S
C1866 H1930 0.959 . S
C1866 H1931 0.959 . S
C1867 C1864 1.603 . S
C1867 H1932 0.960 . S
C1867 H1933 0.962 . S
C1867 H1934 0.961 . S
C1868 C1835 1.587 . S
C1868 C1869 1.360 . S
C1868 C1881 1.412 . S
C1869 C1868 1.360 . S
C1869 C1870 1.365 . S
C1869 H1935 0.929 . S
C1870 C1845 1.553 . S
C1870 C1869 1.365 . S
C1870 C1871 1.404 . S
C1871 C1870 1.404 . S
C1871 C1872 1.395 . S
C1871 C1882 1.451 . S
C1872 C1871 1.395 . S
C1872 C1873 1.322 . S
C1872 H1936 0.930 . S
C1873 C1872 1.322 . S
C1873 C1874 1.459 . S
C1873 H1937 0.929 . S
C1874 C1873 1.459 . S
C1874 C1875 1.445 . S
C1874 C1883 1.395 . S
C1875 C1853 1.432 . S
C1875 C1874 1.445 . S
C1875 C1876 1.370 . S
C1876 C1875 1.370 . S
C1876 C1877 1.438 . S
C1876 H1938 0.930 . S
C1877 C1863 1.497 . S
C1877 C1876 1.438 . S
C1877 C1878 1.360 . S
C1878 C1877 1.360 . S
C1878 C1879 1.401 . S
C1878 C1883 1.446 . S
C1879 C1878 1.401 . S
C1879 C1880 1.347 . S
C1879 H1939 0.929 . S
C1880 C1879 1.347 . S
C1880 C1881 1.455 . S
C1880 H1940 0.930 . S
C1881 C1868 1.412 . S
C1881 C1880 1.455 . S
C1881 C1882 1.331 . S
C1882 C1871 1.451 . S
C1882 C1881 1.331 . S
C1882 C1883 1.497 . S
C1883 C1874 1.395 . S
C1883 C1878 1.446 . S
C1883 C1882 1.497 . S
C1884 C1885 1.582 . S
C1884 H1941 0.962 . S
C1884 H1942 0.959 . S
C1884 H1943 0.958 . S
C1885 C1884 1.582 . S
C1885 O1888 1.458 . S
C1885 H1914 0.980 . S
O1886 C1831 1.426 . S
O1886 C1832 1.334 . S
O1887 C1859 1.412 . S
O1887 C1860 1.393 . S
O1888 C1850 1.435 . S
O1888 C1885 1.458 . S
O1889 C1841 1.468 . S
O1889 C1842 1.408 . S
H1890 C1831 0.980 . S
H1891 C1830 0.959 . S
H1892 C1830 0.959 . S
H1893 C1830 0.960 . S
H1894 C1833 0.929 . S
H1895 C1837 0.929 . S
H1896 C1838 0.959 . S
H1897 C1838 0.961 . S
H1898 C1838 0.961 . S
H1899 C1839 0.960 . S
H1900 C1839 0.960 . S
H1901 C1839 0.961 . S
H1902 C1841 0.980 . S
H1903 C1840 0.961 . S
H1904 C1840 0.960 . S
H1905 C1840 0.959 . S
H1906 C1843 0.930 . S
H1907 C1847 0.931 . S
H1908 C1848 0.959 . S
H1909 C1848 0.961 . S
H1910 C1848 0.959 . S
H1911 C1849 0.960 . S
H1912 C1849 0.960 . S
H1913 C1849 0.960 . S
H1914 C1885 0.980 . S
H1915 C1851 0.930 . S
H1916 C1855 0.930 . S
H1917 C1856 0.961 . S
H1918 C1856 0.960 . S
H1919 C1856 0.958 . S
H1920 C1857 0.961 . S
H1921 C1857 0.960 . S
H1922 C1857 0.960 . S
H1923 C1859 0.980 . S
H1924 C1858 0.961 . S
H1925 C1858 0.961 . S
H1926 C1858 0.959 . S
H1927 C1861 0.932 . S
H1928 C1865 0.929 . S
H1929 C1866 0.961 . S
H1930 C1866 0.959 . S
H1931 C1866 0.959 . S
H1932 C1867 0.960 . S
H1933 C1867 0.962 . S
H1934 C1867 0.961 . S
H1935 C1869 0.929 . S
H1936 C1872 0.930 . S
H1937 C1873 0.929 . S
H1938 C1876 0.930 . S
H1939 C1879 0.929 . S
H1940 C1880 0.930 . S
H1941 C1884 0.962 . S
H1942 C1884 0.959 . S
H1943 C1884 0.958 . S
C1944 C1945 1.560 . S
C1944 H2005 0.959 . S
C1944 H2006 0.959 . S
C1944 H2007 0.960 . S
C1945 C1944 1.560 . S
C1945 O2000 1.426 . S
C1945 H2004 0.980 . S
C1946 C1947 1.407 . S
C1946 C1951 1.418 . S
C1946 O2000 1.334 . S
C1947 C1946 1.407 . S
C1947 C1948 1.360 . S
C1947 H2008 0.929 . S
C1948 C1947 1.360 . S
C1948 C1949 1.401 . S
C1948 C1952 1.527 . S
C1949 C1948 1.401 . S
C1949 C1950 1.405 . S
C1949 C1982 1.587 . S
C1950 C1949 1.405 . S
C1950 C1951 1.332 . S
C1950 C1953 1.496 . S
C1951 C1946 1.418 . S
C1951 C1950 1.332 . S
C1951 H2009 0.929 . S
C1952 C1948 1.527 . S
C1952 H2010 0.959 . S
C1952 H2011 0.961 . S
C1952 H2012 0.961 . S
C1953 C1950 1.496 . S
C1953 H2013 0.960 . S
C1953 H2014 0.960 . S
C1953 H2015 0.961 . S
C1954 C1955 1.517 . S
C1954 H2017 0.961 . S
C1954 H2018 0.960 . S
C1954 H2019 0.959 . S
C1955 C1954 1.517 . S
C1955 O2003 1.468 . S
C1955 H2016 0.980 . S
C1956 C1957 1.349 . S
C1956 C1961 1.367 . S
C1956 O2003 1.408 . S
C1957 C1956 1.349 . S
C1957 C1958 1.407 . S
C1957 H2020 0.930 . S
C1958 C1957 1.407 . S
C1958 C1959 1.449 . S
C1958 C1962 1.535 . S
C1959 C1958 1.449 . S
C1959 C1960 1.384 . S
C1959 C1984 1.553 . S
C1960 C1959 1.384 . S
C1960 C1961 1.364 . S
C1960 C1963 1.450 . S
C1961 C1956 1.367 . S
C1961 C1960 1.364 . S
C1961 H2021 0.931 . S
C1962 C1958 1.535 . S
C1962 H2022 0.959 . S
C1962 H2023 0.961 . S
C1962 H2024 0.959 . S
C1963 C1960 1.450 . S
C1963 H2025 0.960 . S
C1963 H2026 0.960 . S
C1963 H2027 0.960 . S
C1964 C1965 1.309 . S
C1964 C1969 1.304 . S
C1964 O2002 1.435 . S
C1965 C1964 1.309 . S
C1965 C1966 1.476 . S
C1965 H2029 0.930 . S
C1966 C1965 1.476 . S
C1966 C1967 1.400 . S
C1966 C1970 1.567 . S
C1967 C1966 1.400 . S
C1967 C1968 1.373 . S
C1967 C1989 1.432 . S
C1968 C1967 1.373 . S
C1968 C1969 1.339 . S
C1968 C1971 1.530 . S
C1969 C1964 1.304 . S
C1969 C1968 1.339 . S
C1969 H2030 0.930 . S
C1970 C1966 1.567 . S
C1970 H2031 0.961 . S
C1970 H2032 0.960 . S
C1970 H2033 0.958 . S
C1971 C1968 1.530 . S
C1971 H2034 0.961 . S
C1971 H2035 0.960 . S
C1971 H2036 0.960 . S
C1972 C1973 1.530 . S
C1972 H2038 0.961 . S
C1972 H2039 0.961 . S
C1972 H2040 0.959 . S
C1973 C1972 1.530 . S
C1973 O2001 1.412 . S
C1973 H2037 0.980 . S
C1974 C1975 1.288 . S
C1974 C1979 1.377 . S
C1974 O2001 1.393 . S
C1975 C1974 1.288 . S
C1975 C1976 1.369 . S
C1975 H2041 0.932 . S
C1976 C1975 1.369 . S
C1976 C1977 1.398 . S
C1976 C1980 1.527 . S
C1977 C1976 1.398 . S
C1977 C1978 1.380 . S
C1977 C1991 1.497 . S
C1978 C1977 1.380 . S
C1978 C1979 1.383 . S
C1978 C1981 1.603 . S
C1979 C1974 1.377 . S
C1979 C1978 1.383 . S
C1979 H2042 0.929 . S
C1980 C1976 1.527 . S
C1980 H2043 0.961 . S
C1980 H2044 0.959 . S
C1980 H2045 0.959 . S
C1981 C1978 1.603 . S
C1981 H2046 0.960 . S
C1981 H2047 0.962 . S
C1981 H2048 0.961 . S
C1982 C1949 1.587 . S
C1982 C1983 1.360 . S
C1982 C1995 1.412 . S
C1983 C1982 1.360 . S
C1983 C1984 1.365 . S
C1983 H2049 0.929 . S
C1984 C1959 1.553 . S
C1984 C1983 1.365 . S
C1984 C1985 1.404 . S
C1985 C1984 1.404 . S
C1985 C1986 1.395 . S
C1985 C1996 1.451 . S
C1986 C1985 1.395 . S
C1986 C1987 1.322 . S
C1986 H2050 0.930 . S
C1987 C1986 1.322 . S
C1987 C1988 1.459 . S
C1987 H2051 0.929 . S
C1988 C1987 1.459 . S
C1988 C1989 1.445 . S
C1988 C1997 1.395 . S
C1989 C1967 1.432 . S
C1989 C1988 1.445 . S
C1989 C1990 1.370 . S
C1990 C1989 1.370 . S
C1990 C1991 1.438 . S
C1990 H2052 0.930 . S
C1991 C1977 1.497 . S
C1991 C1990 1.438 . S
C1991 C1992 1.360 . S
C1992 C1991 1.360 . S
C1992 C1993 1.401 . S
C1992 C1997 1.446 . S
C1993 C1992 1.401 . S
C1993 C1994 1.347 . S
C1993 H2053 0.929 . S
C1994 C1993 1.347 . S
C1994 C1995 1.455 . S
C1994 H2054 0.930 . S
C1995 C1982 1.412 . S
C1995 C1994 1.455 . S
C1995 C1996 1.331 . S
C1996 C1985 1.451 . S
C1996 C1995 1.331 . S
C1996 C1997 1.497 . S
C1997 C1988 1.395 . S
C1997 C1992 1.446 . S
C1997 C1996 1.497 . S
C1998 C1999 1.582 . S
C1998 H2055 0.962 . S
C1998 H2056 0.959 . S
C1998 H2057 0.958 . S
C1999 C1998 1.582 . S
C1999 O2002 1.458 . S
C1999 H2028 0.980 . S
O2000 C1945 1.426 . S
O2000 C1946 1.334 . S
O2001 C1973 1.412 . S
O2001 C1974 1.393 . S
O2002 C1964 1.435 . S
O2002 C1999 1.458 . S
O2003 C1955 1.468 . S
O2003 C1956 1.408 . S
H2004 C1945 0.980 . S
H2005 C1944 0.959 . S
H2006 C1944 0.959 . S
H2007 C1944 0.960 . S
H2008 C1947 0.929 . S
H2009 C1951 0.929 . S
H2010 C1952 0.959 . S
H2011 C1952 0.961 . S
H2012 C1952 0.961 . S
H2013 C1953 0.960 . S
H2014 C1953 0.960 . S
H2015 C1953 0.961 . S
H2016 C1955 0.980 . S
H2017 C1954 0.961 . S
H2018 C1954 0.960 . S
H2019 C1954 0.959 . S
H2020 C1957 0.930 . S
H2021 C1961 0.931 . S
H2022 C1962 0.959 . S
H2023 C1962 0.961 . S
H2024 C1962 0.959 . S
H2025 C1963 0.960 . S
H2026 C1963 0.960 . S
H2027 C1963 0.960 . S
H2028 C1999 0.980 . S
H2029 C1965 0.930 . S
H2030 C1969 0.930 . S
H2031 C1970 0.961 . S
H2032 C1970 0.960 . S
H2033 C1970 0.958 . S
H2034 C1971 0.961 . S
H2035 C1971 0.960 . S
H2036 C1971 0.960 . S
H2037 C1973 0.980 . S
H2038 C1972 0.961 . S
H2039 C1972 0.961 . S
H2040 C1972 0.959 . S
H2041 C1975 0.932 . S
H2042 C1979 0.929 . S
H2043 C1980 0.961 . S
H2044 C1980 0.959 . S
H2045 C1980 0.959 . S
H2046 C1981 0.960 . S
H2047 C1981 0.962 . S
H2048 C1981 0.961 . S
H2049 C1983 0.929 . S
H2050 C1986 0.930 . S
H2051 C1987 0.929 . S
H2052 C1990 0.930 . S
H2053 C1993 0.929 . S
H2054 C1994 0.930 . S
H2055 C1998 0.962 . S
H2056 C1998 0.959 . S
H2057 C1998 0.958 . S
C2058 C2059 1.560 . S
C2058 H2119 0.959 . S
C2058 H2120 0.959 . S
C2058 H2121 0.960 . S
C2059 C2058 1.560 . S
C2059 O2114 1.426 . S
C2059 H2118 0.980 . S
C2060 C2061 1.407 . S
C2060 C2065 1.418 . S
C2060 O2114 1.334 . S
C2061 C2060 1.407 . S
C2061 C2062 1.360 . S
C2061 H2122 0.929 . S
C2062 C2061 1.360 . S
C2062 C2063 1.401 . S
C2062 C2066 1.527 . S
C2063 C2062 1.401 . S
C2063 C2064 1.405 . S
C2063 C2096 1.587 . S
C2064 C2063 1.405 . S
C2064 C2065 1.332 . S
C2064 C2067 1.496 . S
C2065 C2060 1.418 . S
C2065 C2064 1.332 . S
C2065 H2123 0.929 . S
C2066 C2062 1.527 . S
C2066 H2124 0.959 . S
C2066 H2125 0.961 . S
C2066 H2126 0.961 . S
C2067 C2064 1.496 . S
C2067 H2127 0.960 . S
C2067 H2128 0.960 . S
C2067 H2129 0.961 . S
C2068 C2069 1.517 . S
C2068 H2131 0.961 . S
C2068 H2132 0.960 . S
C2068 H2133 0.959 . S
C2069 C2068 1.517 . S
C2069 O2117 1.468 . S
C2069 H2130 0.980 . S
C2070 C2071 1.349 . S
C2070 C2075 1.367 . S
C2070 O2117 1.408 . S
C2071 C2070 1.349 . S
C2071 C2072 1.407 . S
C2071 H2134 0.930 . S
C2072 C2071 1.407 . S
C2072 C2073 1.449 . S
C2072 C2076 1.535 . S
C2073 C2072 1.449 . S
C2073 C2074 1.384 . S
C2073 C2098 1.553 . S
C2074 C2073 1.384 . S
C2074 C2075 1.364 . S
C2074 C2077 1.450 . S
C2075 C2070 1.367 . S
C2075 C2074 1.364 . S
C2075 H2135 0.931 . S
C2076 C2072 1.535 . S
C2076 H2136 0.959 . S
C2076 H2137 0.961 . S
C2076 H2138 0.959 . S
C2077 C2074 1.450 . S
C2077 H2139 0.960 . S
C2077 H2140 0.960 . S
C2077 H2141 0.960 . S
C2078 C2079 1.309 . S
C2078 C2083 1.304 . S
C2078 O2116 1.435 . S
C2079 C2078 1.309 . S
C2079 C2080 1.476 . S
C2079 H2143 0.930 . S
C2080 C2079 1.476 . S
C2080 C2081 1.400 . S
C2080 C2084 1.567 . S
C2081 C2080 1.400 . S
C2081 C2082 1.373 . S
C2081 C2103 1.432 . S
C2082 C2081 1.373 . S
C2082 C2083 1.339 . S
C2082 C2085 1.530 . S
C2083 C2078 1.304 . S
C2083 C2082 1.339 . S
C2083 H2144 0.930 . S
C2084 C2080 1.567 . S
C2084 H2145 0.961 . S
C2084 H2146 0.960 . S
C2084 H2147 0.958 . S
C2085 C2082 1.530 . S
C2085 H2148 0.961 . S
C2085 H2149 0.960 . S
C2085 H2150 0.960 . S
C2086 C2087 1.530 . S
C2086 H2152 0.961 . S
C2086 H2153 0.961 . S
C2086 H2154 0.959 . S
C2087 C2086 1.530 . S
C2087 O2115 1.412 . S
C2087 H2151 0.980 . S
C2088 C2089 1.288 . S
C2088 C2093 1.377 . S
C2088 O2115 1.393 . S
C2089 C2088 1.288 . S
C2089 C2090 1.369 . S
C2089 H2155 0.932 . S
C2090 C2089 1.369 . S
C2090 C2091 1.398 . S
C2090 C2094 1.527 . S
C2091 C2090 1.398 . S
C2091 C2092 1.380 . S
C2091 C2105 1.497 . S
C2092 C2091 1.380 . S
C2092 C2093 1.383 . S
C2092 C2095 1.603 . S
C2093 C2088 1.377 . S
C2093 C2092 1.383 . S
C2093 H2156 0.929 . S
C2094 C2090 1.527 . S
C2094 H2157 0.961 . S
C2094 H2158 0.959 . S
C2094 H2159 0.959 . S
C2095 C2092 1.603 . S
C2095 H2160 0.960 . S
C2095 H2161 0.962 . S
C2095 H2162 0.961 . S
C2096 C2063 1.587 . S
C2096 C2097 1.360 . S
C2096 C2109 1.412 . S
C2097 C2096 1.360 . S
C2097 C2098 1.365 . S
C2097 H2163 0.929 . S
C2098 C2073 1.553 . S
C2098 C2097 1.365 . S
C2098 C2099 1.404 . S
C2099 C2098 1.404 . S
C2099 C2100 1.395 . S
C2099 C2110 1.451 . S
C2100 C2099 1.395 . S
C2100 C2101 1.322 . S
C2100 H2164 0.930 . S
C2101 C2100 1.322 . S
C2101 C2102 1.459 . S
C2101 H2165 0.929 . S
C2102 C2101 1.459 . S
C2102 C2103 1.445 . S
C2102 C2111 1.395 . S
C2103 C2081 1.432 . S
C2103 C2102 1.445 . S
C2103 C2104 1.370 . S
C2104 C2103 1.370 . S
C2104 C2105 1.438 . S
C2104 H2166 0.930 . S
C2105 C2091 1.497 . S
C2105 C2104 1.438 . S
C2105 C2106 1.360 . S
C2106 C2105 1.360 . S
C2106 C2107 1.401 . S
C2106 C2111 1.446 . S
C2107 C2106 1.401 . S
C2107 C2108 1.347 . S
C2107 H2167 0.929 . S
C2108 C2107 1.347 . S
C2108 C2109 1.455 . S
C2108 H2168 0.930 . S
C2109 C2096 1.412 . S
C2109 C2108 1.455 . S
C2109 C2110 1.331 . S
C2110 C2099 1.451 . S
C2110 C2109 1.331 . S
C2110 C2111 1.497 . S
C2111 C2102 1.395 . S
C2111 C2106 1.446 . S
C2111 C2110 1.497 . S
C2112 C2113 1.582 . S
C2112 H2169 0.962 . S
C2112 H2170 0.959 . S
C2112 H2171 0.958 . S
C2113 C2112 1.582 . S
C2113 O2116 1.458 . S
C2113 H2142 0.980 . S
O2114 C2059 1.426 . S
O2114 C2060 1.334 . S
O2115 C2087 1.412 . S
O2115 C2088 1.393 . S
O2116 C2078 1.435 . S
O2116 C2113 1.458 . S
O2117 C2069 1.468 . S
O2117 C2070 1.408 . S
H2118 C2059 0.980 . S
H2119 C2058 0.959 . S
H2120 C2058 0.959 . S
H2121 C2058 0.960 . S
H2122 C2061 0.929 . S
H2123 C2065 0.929 . S
H2124 C2066 0.959 . S
H2125 C2066 0.961 . S
H2126 C2066 0.961 . S
H2127 C2067 0.960 . S
H2128 C2067 0.960 . S
H2129 C2067 0.961 . S
H2130 C2069 0.980 . S
H2131 C2068 0.961 . S
H2132 C2068 0.960 . S
H2133 C2068 0.959 . S
H2134 C2071 0.930 . S
H2135 C2075 0.931 . S
H2136 C2076 0.959 . S
H2137 C2076 0.961 . S
H2138 C2076 0.959 . S
H2139 C2077 0.960 . S
H2140 C2077 0.960 . S
H2141 C2077 0.960 . S
H2142 C2113 0.980 . S
H2143 C2079 0.930 . S
H2144 C2083 0.930 . S
H2145 C2084 0.961 . S
H2146 C2084 0.960 . S
H2147 C2084 0.958 . S
H2148 C2085 0.961 . S
H2149 C2085 0.960 . S
H2150 C2085 0.960 . S
H2151 C2087 0.980 . S
H2152 C2086 0.961 . S
H2153 C2086 0.961 . S
H2154 C2086 0.959 . S
H2155 C2089 0.932 . S
H2156 C2093 0.929 . S
H2157 C2094 0.961 . S
H2158 C2094 0.959 . S
H2159 C2094 0.959 . S
H2160 C2095 0.960 . S
H2161 C2095 0.962 . S
H2162 C2095 0.961 . S
H2163 C2097 0.929 . S
H2164 C2100 0.930 . S
H2165 C2101 0.929 . S
H2166 C2104 0.930 . S
H2167 C2107 0.929 . S
H2168 C2108 0.930 . S
H2169 C2112 0.962 . S
H2170 C2112 0.959 . S
H2171 C2112 0.958 . S
C2172 C2173 1.560 . S
C2172 H2233 0.959 . S
C2172 H2234 0.959 . S
C2172 H2235 0.960 . S
C2173 C2172 1.560 . S
C2173 O2228 1.426 . S
C2173 H2232 0.980 . S
C2174 C2175 1.407 . S
C2174 C2179 1.418 . S
C2174 O2228 1.334 . S
C2175 C2174 1.407 . S
C2175 C2176 1.360 . S
C2175 H2236 0.929 . S
C2176 C2175 1.360 . S
C2176 C2177 1.401 . S
C2176 C2180 1.527 . S
C2177 C2176 1.401 . S
C2177 C2178 1.405 . S
C2177 C2210 1.587 . S
C2178 C2177 1.405 . S
C2178 C2179 1.332 . S
C2178 C2181 1.496 . S
C2179 C2174 1.418 . S
C2179 C2178 1.332 . S
C2179 H2237 0.929 . S
C2180 C2176 1.527 . S
C2180 H2238 0.959 . S
C2180 H2239 0.961 . S
C2180 H2240 0.961 . S
C2181 C2178 1.496 . S
C2181 H2241 0.960 . S
C2181 H2242 0.960 . S
C2181 H2243 0.961 . S
C2182 C2183 1.517 . S
C2182 H2245 0.961 . S
C2182 H2246 0.960 . S
C2182 H2247 0.959 . S
C2183 C2182 1.517 . S
C2183 O2231 1.468 . S
C2183 H2244 0.980 . S
C2184 C2185 1.349 . S
C2184 C2189 1.367 . S
C2184 O2231 1.408 . S
C2185 C2184 1.349 . S
C2185 C2186 1.407 . S
C2185 H2248 0.930 . S
C2186 C2185 1.407 . S
C2186 C2187 1.449 . S
C2186 C2190 1.535 . S
C2187 C2186 1.449 . S
C2187 C2188 1.384 . S
C2187 C2212 1.553 . S
C2188 C2187 1.384 . S
C2188 C2189 1.364 . S
C2188 C2191 1.450 . S
C2189 C2184 1.367 . S
C2189 C2188 1.364 . S
C2189 H2249 0.931 . S
C2190 C2186 1.535 . S
C2190 H2250 0.959 . S
C2190 H2251 0.961 . S
C2190 H2252 0.959 . S
C2191 C2188 1.450 . S
C2191 H2253 0.960 . S
C2191 H2254 0.960 . S
C2191 H2255 0.960 . S
C2192 C2193 1.309 . S
C2192 C2197 1.304 . S
C2192 O2230 1.435 . S
C2193 C2192 1.309 . S
C2193 C2194 1.476 . S
C2193 H2257 0.930 . S
C2194 C2193 1.476 . S
C2194 C2195 1.400 . S
C2194 C2198 1.567 . S
C2195 C2194 1.400 . S
C2195 C2196 1.373 . S
C2195 C2217 1.432 . S
C2196 C2195 1.373 . S
C2196 C2197 1.339 . S
C2196 C2199 1.530 . S
C2197 C2192 1.304 . S
C2197 C2196 1.339 . S
C2197 H2258 0.930 . S
C2198 C2194 1.567 . S
C2198 H2259 0.961 . S
C2198 H2260 0.960 . S
C2198 H2261 0.958 . S
C2199 C2196 1.530 . S
C2199 H2262 0.961 . S
C2199 H2263 0.960 . S
C2199 H2264 0.960 . S
C2200 C2201 1.530 . S
C2200 H2266 0.961 . S
C2200 H2267 0.961 . S
C2200 H2268 0.959 . S
C2201 C2200 1.530 . S
C2201 O2229 1.412 . S
C2201 H2265 0.980 . S
C2202 C2203 1.288 . S
C2202 C2207 1.377 . S
C2202 O2229 1.393 . S
C2203 C2202 1.288 . S
C2203 C2204 1.369 . S
C2203 H2269 0.932 . S
C2204 C2203 1.369 . S
C2204 C2205 1.398 . S
C2204 C2208 1.527 . S
C2205 C2204 1.398 . S
C2205 C2206 1.380 . S
C2205 C2219 1.497 . S
C2206 C2205 1.380 . S
C2206 C2207 1.383 . S
C2206 C2209 1.603 . S
C2207 C2202 1.377 . S
C2207 C2206 1.383 . S
C2207 H2270 0.929 . S
C2208 C2204 1.527 . S
C2208 H2271 0.961 . S
C2208 H2272 0.959 . S
C2208 H2273 0.959 . S
C2209 C2206 1.603 . S
C2209 H2274 0.960 . S
C2209 H2275 0.962 . S
C2209 H2276 0.961 . S
C2210 C2177 1.587 . S
C2210 C2211 1.360 . S
C2210 C2223 1.412 . S
C2211 C2210 1.360 . S
C2211 C2212 1.365 . S
C2211 H2277 0.929 . S
C2212 C2187 1.553 . S
C2212 C2211 1.365 . S
C2212 C2213 1.404 . S
C2213 C2212 1.404 . S
C2213 C2214 1.395 . S
C2213 C2224 1.451 . S
C2214 C2213 1.395 . S
C2214 C2215 1.322 . S
C2214 H2278 0.930 . S
C2215 C2214 1.322 . S
C2215 C2216 1.459 . S
C2215 H2279 0.929 . S
C2216 C2215 1.459 . S
C2216 C2217 1.445 . S
C2216 C2225 1.395 . S
C2217 C2195 1.432 . S
C2217 C2216 1.445 . S
C2217 C2218 1.370 . S
C2218 C2217 1.370 . S
C2218 C2219 1.438 . S
C2218 H2280 0.930 . S
C2219 C2205 1.497 . S
C2219 C2218 1.438 . S
C2219 C2220 1.360 . S
C2220 C2219 1.360 . S
C2220 C2221 1.401 . S
C2220 C2225 1.446 . S
C2221 C2220 1.401 . S
C2221 C2222 1.347 . S
C2221 H2281 0.929 . S
C2222 C2221 1.347 . S
C2222 C2223 1.455 . S
C2222 H2282 0.930 . S
C2223 C2210 1.412 . S
C2223 C2222 1.455 . S
C2223 C2224 1.331 . S
C2224 C2213 1.451 . S
C2224 C2223 1.331 . S
C2224 C2225 1.497 . S
C2225 C2216 1.395 . S
C2225 C2220 1.446 . S
C2225 C2224 1.497 . S
C2226 C2227 1.582 . S
C2226 H2283 0.962 . S
C2226 H2284 0.959 . S
C2226 H2285 0.958 . S
C2227 C2226 1.582 . S
C2227 O2230 1.458 . S
C2227 H2256 0.980 . S
O2228 C2173 1.426 . S
O2228 C2174 1.334 . S
O2229 C2201 1.412 . S
O2229 C2202 1.393 . S
O2230 C2192 1.435 . S
O2230 C2227 1.458 . S
O2231 C2183 1.468 . S
O2231 C2184 1.408 . S
H2232 C2173 0.980 . S
H2233 C2172 0.959 . S
H2234 C2172 0.959 . S
H2235 C2172 0.960 . S
H2236 C2175 0.929 . S
H2237 C2179 0.929 . S
H2238 C2180 0.959 . S
H2239 C2180 0.961 . S
H2240 C2180 0.961 . S
H2241 C2181 0.960 . S
H2242 C2181 0.960 . S
H2243 C2181 0.961 . S
H2244 C2183 0.980 . S
H2245 C2182 0.961 . S
H2246 C2182 0.960 . S
H2247 C2182 0.959 . S
H2248 C2185 0.930 . S
H2249 C2189 0.931 . S
H2250 C2190 0.959 . S
H2251 C2190 0.961 . S
H2252 C2190 0.959 . S
H2253 C2191 0.960 . S
H2254 C2191 0.960 . S
H2255 C2191 0.960 . S
H2256 C2227 0.980 . S
H2257 C2193 0.930 . S
H2258 C2197 0.930 . S
H2259 C2198 0.961 . S
H2260 C2198 0.960 . S
H2261 C2198 0.958 . S
H2262 C2199 0.961 . S
H2263 C2199 0.960 . S
H2264 C2199 0.960 . S
H2265 C2201 0.980 . S
H2266 C2200 0.961 . S
H2267 C2200 0.961 . S
H2268 C2200 0.959 . S
H2269 C2203 0.932 . S
H2270 C2207 0.929 . S
H2271 C2208 0.961 . S
H2272 C2208 0.959 . S
H2273 C2208 0.959 . S
H2274 C2209 0.960 . S
H2275 C2209 0.962 . S
H2276 C2209 0.961 . S
H2277 C2211 0.929 . S
H2278 C2214 0.930 . S
H2279 C2215 0.929 . S
H2280 C2218 0.930 . S
H2281 C2221 0.929 . S
H2282 C2222 0.930 . S
H2283 C2226 0.962 . S
H2284 C2226 0.959 . S
H2285 C2226 0.958 . S
H2286 C2294 0.950 . S
H2287 C2299 0.950 . S
H2288 C2296 0.950 . S
H2289 C2298 0.950 . S
H2290 C2300 0.950 . S
H2291 C2302 0.950 . S
H2292 C2304 0.950 . S
H2293 C2305 0.950 . S
C2294 H2286 0.950 . S
C2294 C2295 1.386 1_455 S
C2294 C2296 1.391 . S
C2295 C2294 1.386 1_655 S
C2295 C2299 1.393 . S
C2296 H2288 0.950 . S
C2296 C2294 1.391 . S
C2296 C2297 1.400 1_455 S
C2297 C2296 1.400 1_655 S
C2297 C2298 1.398 . S
C2297 C2303 1.491 . S
C2298 H2289 0.950 . S
C2298 C2297 1.398 . S
C2298 C2299 1.391 . S
C2299 H2287 0.950 . S
C2299 C2295 1.393 . S
C2299 C2298 1.391 . S
C2300 H2290 0.950 . S
C2300 C2301 1.386 . S
C2300 C2302 1.391 . S
C2301 C2300 1.386 . S
C2301 C2305 1.393 1_655 S
C2302 H2291 0.950 . S
C2302 C2300 1.391 . S
C2302 C2303 1.400 . S
C2303 C2297 1.491 . S
C2303 C2302 1.400 . S
C2303 C2304 1.398 1_655 S
C2304 H2292 0.950 . S
C2304 C2303 1.398 1_455 S
C2304 C2305 1.391 . S
C2305 H2293 0.950 . S
C2305 C2301 1.393 1_455 S
C2305 C2304 1.391 . S
H2306 C2314 0.950 . S
H2307 C2319 0.950 . S
H2308 C2316 0.950 . S
H2309 C2318 0.950 . S
H2310 C2320 0.950 . S
H2311 C2322 0.950 . S
H2312 C2324 0.950 . S
H2313 C2325 0.950 . S
C2314 H2306 0.950 . S
C2314 C2315 1.386 . S
C2314 C2316 1.391 . S
C2315 C2314 1.386 . S
C2315 C2319 1.393 . S
C2316 H2308 0.950 . S
C2316 C2314 1.391 . S
C2316 C2317 1.400 . S
C2317 C2316 1.400 . S
C2317 C2318 1.398 . S
C2317 C2323 1.491 . S
C2318 H2309 0.950 . S
C2318 C2317 1.398 . S
C2318 C2319 1.391 . S
C2319 H2307 0.950 . S
C2319 C2315 1.393 . S
C2319 C2318 1.391 . S
C2320 H2310 0.950 . S
C2320 C2321 1.386 . S
C2320 C2322 1.391 . S
C2321 C2320 1.386 . S
C2321 C2325 1.393 . S
C2322 H2311 0.950 . S
C2322 C2320 1.391 . S
C2322 C2323 1.400 . S
C2323 C2317 1.491 . S
C2323 C2322 1.400 . S
C2323 C2324 1.398 . S
C2324 H2312 0.950 . S
C2324 C2323 1.398 . S
C2324 C2325 1.391 . S
C2325 H2313 0.950 . S
C2325 C2321 1.393 . S
C2325 C2324 1.391 . S
H2326 C2334 0.950 . S
H2327 C2339 0.950 . S
H2328 C2336 0.950 1_565 S
H2329 C2338 0.950 . S
H2330 C2340 0.950 . S
H2331 C2342 0.950 . S
H2332 C2344 0.950 1_565 S
H2333 C2345 0.907 1_565 S
C2334 H2326 0.950 . S
C2334 C2335 1.386 . S
C2334 C2336 1.391 . S
C2335 C2334 1.386 . S
C2335 C2339 1.393 . S
C2336 H2328 0.950 1_545 S
C2336 C2334 1.391 . S
C2336 C2337 1.400 . S
C2337 C2336 1.400 . S
C2337 C2338 1.398 . S
C2337 C2343 1.491 . S
C2338 H2329 0.950 . S
C2338 C2337 1.398 . S
C2338 C2339 1.391 . S
C2339 H2327 0.950 . S
C2339 C2335 1.393 . S
C2339 C2338 1.391 . S
C2340 H2330 0.950 . S
C2340 C2341 1.386 . S
C2340 C2342 1.391 . S
C2341 C2340 1.386 . S
C2341 C2345 1.401 . S
C2342 H2331 0.950 . S
C2342 C2340 1.391 . S
C2342 C2343 1.400 . S
C2343 C2337 1.491 . S
C2343 C2342 1.400 . S
C2343 C2344 1.398 . S
C2344 H2332 0.950 1_545 S
C2344 C2343 1.398 . S
C2344 C2345 1.430 . S
C2345 H2333 0.907 1_545 S
C2345 C2341 1.401 . S
C2345 C2344 1.430 . S
H2346 C2354 0.950 . S
H2347 C2359 0.950 . S
H2348 C2356 0.950 . S
H2349 C2358 0.961 . S
H2350 C2360 0.948 1_545 S
H2351 C2362 0.966 . S
H2352 C2364 0.950 . S
H2353 C2365 0.950 . S
C2354 H2346 0.950 . S
C2354 C2355 1.386 . S
C2354 C2356 1.391 . S
C2355 C2354 1.386 . S
C2355 C2359 1.393 1_565 S
C2356 H2348 0.950 . S
C2356 C2354 1.391 . S
C2356 C2357 1.400 . S
C2357 C2356 1.400 . S
C2357 C2358 1.375 1_565 S
C2357 C2363 1.491 . S
C2358 H2349 0.961 . S
C2358 C2357 1.375 1_545 S
C2358 C2359 1.404 . S
C2359 H2347 0.950 . S
C2359 C2355 1.393 1_545 S
C2359 C2358 1.404 . S
C2360 H2350 0.948 1_565 S
C2360 C2361 1.388 . S
C2360 C2362 1.382 1_565 S
C2361 C2360 1.388 . S
C2361 C2365 1.393 . S
C2362 H2351 0.966 . S
C2362 C2360 1.382 1_545 S
C2362 C2363 1.393 1_545 S
C2363 C2357 1.491 . S
C2363 C2362 1.393 1_565 S
C2363 C2364 1.398 . S
C2364 H2352 0.950 . S
C2364 C2363 1.398 . S
C2364 C2365 1.391 . S
C2365 H2353 0.950 . S
C2365 C2361 1.393 . S
C2365 C2364 1.391 . S
H2366 C2374 0.950 . S
H2367 C2379 0.950 . S
H2368 C2376 1.007 . S
H2369 C2378 0.950 . S
H2370 C2380 0.950 . S
H2371 C2382 0.950 . S
H2372 C2384 0.950 1_655 S
H2373 C2385 0.950 1_655 S
C2374 H2366 0.950 . S
C2374 C2375 1.386 . S
C2374 C2376 1.391 . S
C2375 C2374 1.386 . S
C2375 C2379 1.393 . S
C2376 H2368 1.007 . S
C2376 C2374 1.391 . S
C2376 C2377 1.400 . S
C2377 C2376 1.400 . S
C2377 C2378 1.398 . S
C2377 C2383 1.491 . S
C2378 H2369 0.950 . S
C2378 C2377 1.398 . S
C2378 C2379 1.391 . S
C2379 H2367 0.950 . S
C2379 C2375 1.393 . S
C2379 C2378 1.391 . S
C2380 H2370 0.950 . S
C2380 C2381 1.386 . S
C2380 C2382 1.391 . S
C2381 C2380 1.386 . S
C2381 C2385 1.393 . S
C2382 H2371 0.950 . S
C2382 C2380 1.391 . S
C2382 C2383 1.400 . S
C2383 C2377 1.491 . S
C2383 C2382 1.400 . S
C2383 C2384 1.398 . S
C2384 H2372 0.950 1_455 S
C2384 C2383 1.398 . S
C2384 C2385 1.391 . S
C2385 H2373 0.950 1_455 S
C2385 C2381 1.393 . S
C2385 C2384 1.391 . S
H2386 C2394 0.950 . S
H2387 C2399 0.950 . S
H2388 C2396 0.950 . S
H2389 C2398 0.950 . S
H2390 C2400 0.950 . S
H2391 C2402 0.950 . S
H2392 C2404 0.950 . S
H2393 C2405 0.950 . S
C2394 H2386 0.950 . S
C2394 C2395 1.386 . S
C2394 C2396 1.391 . S
C2395 C2394 1.386 . S
C2395 C2399 1.393 . S
C2396 H2388 0.950 . S
C2396 C2394 1.391 . S
C2396 C2397 1.400 . S
C2397 C2396 1.400 . S
C2397 C2398 1.398 . S
C2397 C2403 1.491 . S
C2398 H2389 0.950 . S
C2398 C2397 1.398 . S
C2398 C2399 1.391 . S
C2399 H2387 0.950 . S
C2399 C2395 1.393 . S
C2399 C2398 1.391 . S
C2400 H2390 0.950 . S
C2400 C2401 1.386 . S
C2400 C2402 1.391 . S
C2401 C2400 1.386 . S
C2401 C2405 1.393 . S
C2402 H2391 0.950 . S
C2402 C2400 1.391 . S
C2402 C2403 1.400 . S
C2403 C2397 1.491 . S
C2403 C2402 1.400 . S
C2403 C2404 1.398 . S
C2404 H2392 0.950 . S
C2404 C2403 1.398 . S
C2404 C2405 1.391 . S
C2405 H2393 0.950 . S
C2405 C2401 1.393 . S
C2405 C2404 1.391 . S
H2406 C2414 0.944 1_655 S
H2407 C2419 0.950 . S
H2408 C2416 0.950 1_655 S
H2409 C2418 0.950 . S
H2410 C2420 0.950 . S
H2411 C2422 0.950 . S
H2412 C2424 0.950 . S
H2413 C2425 0.950 . S
C2414 H2406 0.944 1_455 S
C2414 C2415 1.386 . S
C2414 C2416 1.391 . S
C2415 C2414 1.386 . S
C2415 C2419 1.393 . S
C2416 H2408 0.950 1_455 S
C2416 C2414 1.391 . S
C2416 C2417 1.400 . S
C2417 C2416 1.400 . S
C2417 C2418 1.398 . S
C2417 C2423 1.491 . S
C2418 H2409 0.950 . S
C2418 C2417 1.398 . S
C2418 C2419 1.391 . S
C2419 H2407 0.950 . S
C2419 C2415 1.393 . S
C2419 C2418 1.391 . S
C2420 H2410 0.950 . S
C2420 C2421 1.386 . S
C2420 C2422 1.391 . S
C2421 C2420 1.386 . S
C2421 C2425 1.393 1_455 S
C2422 H2411 0.950 . S
C2422 C2420 1.391 . S
C2422 C2423 1.400 . S
C2423 C2417 1.491 . S
C2423 C2422 1.400 . S
C2423 C2424 1.398 1_455 S
C2424 H2412 0.950 . S
C2424 C2423 1.398 1_655 S
C2424 C2425 1.391 . S
C2425 H2413 0.950 . S
C2425 C2421 1.393 1_655 S
C2425 C2424 1.391 . S
H2426 C2434 0.950 . S
H2427 C2439 0.950 . S
H2428 C2436 0.950 . S
H2429 C2438 0.950 . S
H2430 C2440 0.950 . S
H2431 C2442 0.950 . S
H2432 C2444 0.950 . S
H2433 C2445 0.950 . S
C2434 H2426 0.950 . S
C2434 C2435 1.386 . S
C2434 C2436 1.391 . S
C2435 C2434 1.386 . S
C2435 C2439 1.393 . S
C2436 H2428 0.950 . S
C2436 C2434 1.391 . S
C2436 C2437 1.400 . S
C2437 C2436 1.400 . S
C2437 C2438 1.398 . S
C2437 C2443 1.491 . S
C2438 H2429 0.950 . S
C2438 C2437 1.398 . S
C2438 C2439 1.391 . S
C2439 H2427 0.950 . S
C2439 C2435 1.393 . S
C2439 C2438 1.391 . S
C2440 H2430 0.950 . S
C2440 C2441 1.386 . S
C2440 C2442 1.391 . S
C2441 C2440 1.386 . S
C2441 C2445 1.393 . S
C2442 H2431 0.950 . S
C2442 C2440 1.391 . S
C2442 C2443 1.400 . S
C2443 C2437 1.491 . S
C2443 C2442 1.400 . S
C2443 C2444 1.398 . S
C2444 H2432 0.950 . S
C2444 C2443 1.398 . S
C2444 C2445 1.391 . S
C2445 H2433 0.950 . S
C2445 C2441 1.393 . S
C2445 C2444 1.391 . S
H2446 C2454 0.950 . S
H2447 C2459 0.950 . S
H2448 C2456 0.950 . S
H2449 C2458 0.950 . S
H2450 C2460 0.950 . S
H2451 C2462 0.950 . S
H2452 C2464 0.950 . S
H2453 C2465 0.950 . S
C2454 H2446 0.950 . S
C2454 C2455 1.386 . S
C2454 C2456 1.391 . S
C2455 C2454 1.386 . S
C2455 C2459 1.393 . S
C2456 H2448 0.950 . S
C2456 C2454 1.391 . S
C2456 C2457 1.400 . S
C2457 C2456 1.400 . S
C2457 C2458 1.398 . S
C2457 C2463 1.491 . S
C2458 H2449 0.950 . S
C2458 C2457 1.398 . S
C2458 C2459 1.391 . S
C2459 H2447 0.950 . S
C2459 C2455 1.393 . S
C2459 C2458 1.391 . S
C2460 H2450 0.950 . S
C2460 C2461 1.386 . S
C2460 C2462 1.391 . S
C2461 C2460 1.386 . S
C2461 C2465 1.393 . S
C2462 H2451 0.950 . S
C2462 C2460 1.391 . S
C2462 C2463 1.400 . S
C2463 C2457 1.491 . S
C2463 C2462 1.400 . S
C2463 C2464 1.398 . S
C2464 H2452 0.950 . S
C2464 C2463 1.398 . S
C2464 C2465 1.391 . S
C2465 H2453 0.950 . S
C2465 C2461 1.393 . S
C2465 C2464 1.391 . S
H2466 C2474 0.950 . S
H2467 C2479 0.956 . S
H2468 C2476 0.950 . S
H2469 C2478 0.950 1_565 S
H2470 C2480 0.950 . S
H2471 C2482 0.950 . S
H2472 C2484 0.950 . S
H2473 C2485 0.950 . S
C2474 H2466 0.950 . S
C2474 C2475 1.386 . S
C2474 C2476 1.391 . S
C2475 C2474 1.386 . S
C2475 C2479 1.393 . S
C2476 H2468 0.950 . S
C2476 C2474 1.391 . S
C2476 C2477 1.400 . S
C2477 C2476 1.400 . S
C2477 C2478 1.398 . S
C2477 C2483 1.491 . S
C2478 H2469 0.950 1_545 S
C2478 C2477 1.398 . S
C2478 C2479 1.391 . S
C2479 H2467 0.956 . S
C2479 C2475 1.393 . S
C2479 C2478 1.391 . S
C2480 H2470 0.950 . S
C2480 C2481 1.386 1_565 S
C2480 C2482 1.391 . S
C2481 C2480 1.386 1_545 S
C2481 C2485 1.393 . S
C2482 H2471 0.950 . S
C2482 C2480 1.391 . S
C2482 C2483 1.400 1_565 S
C2483 C2477 1.491 . S
C2483 C2482 1.400 1_545 S
C2483 C2484 1.398 . S
C2484 H2472 0.950 . S
C2484 C2483 1.398 . S
C2484 C2485 1.391 . S
C2485 H2473 0.950 . S
C2485 C2481 1.393 . S
C2485 C2484 1.391 . S
H2486 C2494 0.950 . S
H2487 C2499 0.950 . S
H2488 C2496 0.950 . S
H2489 C2498 0.950 . S
H2490 C2500 0.950 . S
H2491 C2502 0.950 . S
H2492 C2504 0.950 . S
H2493 C2505 0.950 . S
C2494 H2486 0.950 . S
C2494 C2495 1.386 1_455 S
C2494 C2496 1.391 . S
C2495 C2494 1.386 1_655 S
C2495 C2499 1.393 . S
C2496 H2488 0.950 . S
C2496 C2494 1.391 . S
C2496 C2497 1.400 1_455 S
C2497 C2496 1.400 1_655 S
C2497 C2498 1.398 . S
C2497 C2503 1.491 . S
C2498 H2489 0.950 . S
C2498 C2497 1.398 . S
C2498 C2499 1.391 . S
C2499 H2487 0.950 . S
C2499 C2495 1.393 . S
C2499 C2498 1.391 . S
C2500 H2490 0.950 . S
C2500 C2501 1.386 . S
C2500 C2502 1.391 . S
C2501 C2500 1.386 . S
C2501 C2505 1.393 1_655 S
C2502 H2491 0.950 . S
C2502 C2500 1.391 . S
C2502 C2503 1.400 . S
C2503 C2497 1.491 . S
C2503 C2502 1.400 . S
C2503 C2504 1.398 1_655 S
C2504 H2492 0.950 . S
C2504 C2503 1.398 1_455 S
C2504 C2505 1.391 . S
C2505 H2493 0.950 . S
C2505 C2501 1.393 1_455 S
C2505 C2504 1.391 . S
H2506 C2514 0.950 . S
H2507 C2519 0.950 . S
H2508 C2516 0.950 . S
H2509 C2518 0.950 . S
H2510 C2520 0.950 . S
H2511 C2522 0.950 . S
H2512 C2524 0.950 . S
H2513 C2525 0.950 . S
C2514 H2506 0.950 . S
C2514 C2515 1.386 . S
C2514 C2516 1.391 . S
C2515 C2514 1.386 . S
C2515 C2519 1.393 . S
C2516 H2508 0.950 . S
C2516 C2514 1.391 . S
C2516 C2517 1.400 . S
C2517 C2516 1.400 . S
C2517 C2518 1.398 . S
C2517 C2523 1.491 . S
C2518 H2509 0.950 . S
C2518 C2517 1.398 . S
C2518 C2519 1.391 . S
C2519 H2507 0.950 . S
C2519 C2515 1.393 . S
C2519 C2518 1.391 . S
C2520 H2510 0.950 . S
C2520 C2521 1.386 . S
C2520 C2522 1.391 . S
C2521 C2520 1.386 . S
C2521 C2525 1.393 . S
C2522 H2511 0.950 . S
C2522 C2520 1.391 . S
C2522 C2523 1.400 . S
C2523 C2517 1.491 . S
C2523 C2522 1.400 . S
C2523 C2524 1.398 . S
C2524 H2512 0.950 . S
C2524 C2523 1.398 . S
C2524 C2525 1.391 . S
C2525 H2513 0.950 . S
C2525 C2521 1.393 . S
C2525 C2524 1.391 . S
H2526 C2534 0.950 . S
H2527 C2539 0.950 . S
H2528 C2536 0.950 . S
H2529 C2538 0.950 . S
H2530 C2540 0.950 . S
H2531 C2542 0.950 . S
H2532 C2544 0.950 . S
H2533 C2545 0.950 . S
C2534 H2526 0.950 . S
C2534 C2535 1.386 . S
C2534 C2536 1.391 . S
C2535 C2534 1.386 . S
C2535 C2539 1.393 . S
C2536 H2528 0.950 . S
C2536 C2534 1.391 . S
C2536 C2537 1.400 . S
C2537 C2536 1.400 . S
C2537 C2538 1.398 . S
C2537 C2543 1.491 . S
C2538 H2529 0.950 . S
C2538 C2537 1.398 . S
C2538 C2539 1.391 . S
C2539 H2527 0.950 . S
C2539 C2535 1.393 . S
C2539 C2538 1.391 . S
C2540 H2530 0.950 . S
C2540 C2541 1.386 . S
C2540 C2542 1.391 . S
C2541 C2540 1.386 . S
C2541 C2545 1.393 . S
C2542 H2531 0.950 . S
C2542 C2540 1.391 . S
C2542 C2543 1.400 . S
C2543 C2537 1.491 . S
C2543 C2542 1.400 . S
C2543 C2544 1.398 . S
C2544 H2532 0.950 . S
C2544 C2543 1.398 . S
C2544 C2545 1.391 . S
C2545 H2533 0.950 . S
C2545 C2541 1.393 . S
C2545 C2544 1.391 . S
H2546 C2554 0.950 . S
H2547 C2559 0.950 . S
H2548 C2556 0.950 . S
H2549 C2558 0.950 . S
H2550 C2560 0.950 . S
H2551 C2562 0.950 . S
H2552 C2564 0.950 . S
H2553 C2565 0.950 . S
C2554 H2546 0.950 . S
C2554 C2555 1.386 . S
C2554 C2556 1.391 . S
C2555 C2554 1.386 . S
C2555 C2559 1.393 . S
C2556 H2548 0.950 . S
C2556 C2554 1.391 . S
C2556 C2557 1.400 . S
C2557 C2556 1.400 . S
C2557 C2558 1.398 . S
C2557 C2563 1.491 . S
C2558 H2549 0.950 . S
C2558 C2557 1.398 . S
C2558 C2559 1.391 . S
C2559 H2547 0.950 . S
C2559 C2555 1.393 . S
C2559 C2558 1.391 . S
C2560 H2550 0.950 . S
C2560 C2561 1.386 . S
C2560 C2562 1.391 . S
C2561 C2560 1.386 . S
C2561 C2565 1.393 . S
C2562 H2551 0.950 . S
C2562 C2560 1.391 . S
C2562 C2563 1.400 . S
C2563 C2557 1.491 . S
C2563 C2562 1.400 . S
C2563 C2564 1.398 . S
C2564 H2552 0.950 . S
C2564 C2563 1.398 . S
C2564 C2565 1.391 . S
C2565 H2553 0.950 . S
C2565 C2561 1.393 . S
C2565 C2564 1.391 . S
H2566 C2574 0.950 . S
H2567 C2579 0.950 . S
H2568 C2576 0.950 . S
H2569 C2578 0.950 . S
H2570 C2580 0.950 . S
H2571 C2582 0.950 . S
H2572 C2584 0.950 . S
H2573 C2585 0.950 . S
C2574 H2566 0.950 . S
C2574 C2575 1.386 . S
C2574 C2576 1.391 . S
C2575 C2574 1.386 . S
C2575 C2579 1.393 . S
C2576 H2568 0.950 . S
C2576 C2574 1.391 . S
C2576 C2577 1.400 . S
C2577 C2576 1.400 . S
C2577 C2578 1.398 . S
C2577 C2583 1.491 . S
C2578 H2569 0.950 . S
C2578 C2577 1.398 . S
C2578 C2579 1.391 . S
C2579 H2567 0.950 . S
C2579 C2575 1.393 . S
C2579 C2578 1.391 . S
C2580 H2570 0.950 . S
C2580 C2581 1.386 . S
C2580 C2582 1.391 . S
C2581 C2580 1.386 . S
C2581 C2585 1.393 . S
C2582 H2571 0.950 . S
C2582 C2580 1.391 . S
C2582 C2583 1.400 . S
C2583 C2577 1.491 . S
C2583 C2582 1.400 . S
C2583 C2584 1.398 . S
C2584 H2572 0.950 . S
C2584 C2583 1.398 . S
C2584 C2585 1.391 . S
C2585 H2573 0.950 . S
C2585 C2581 1.393 . S
C2585 C2584 1.391 . S
H2586 C2594 0.950 . S
H2587 C2599 0.950 . S
H2588 C2596 0.950 . S
H2589 C2598 0.950 . S
H2590 C2600 0.950 . S
H2591 C2602 0.950 . S
H2592 C2604 0.950 . S
H2593 C2605 0.950 . S
C2594 H2586 0.950 . S
C2594 C2595 1.386 . S
C2594 C2596 1.391 . S
C2595 C2594 1.386 . S
C2595 C2599 1.393 . S
C2596 H2588 0.950 . S
C2596 C2594 1.391 . S
C2596 C2597 1.400 . S
C2597 C2596 1.400 . S
C2597 C2598 1.398 . S
C2597 C2603 1.491 . S
C2598 H2589 0.950 . S
C2598 C2597 1.398 . S
C2598 C2599 1.391 . S
C2599 H2587 0.950 . S
C2599 C2595 1.393 . S
C2599 C2598 1.391 . S
C2600 H2590 0.950 . S
C2600 C2601 1.386 . S
C2600 C2602 1.391 . S
C2601 C2600 1.386 . S
C2601 C2605 1.393 . S
C2602 H2591 0.950 . S
C2602 C2600 1.391 . S
C2602 C2603 1.400 . S
C2603 C2597 1.491 . S
C2603 C2602 1.400 . S
C2603 C2604 1.398 . S
C2604 H2592 0.950 . S
C2604 C2603 1.398 . S
C2604 C2605 1.391 . S
C2605 H2593 0.950 . S
C2605 C2601 1.393 . S
C2605 C2604 1.391 . S
H2606 C2614 0.950 . S
H2607 C2619 0.950 . S
H2608 C2616 0.950 . S
H2609 C2618 0.950 . S
H2610 C2620 0.950 . S
H2611 C2622 0.950 . S
H2612 C2624 0.950 . S
H2613 C2625 0.950 . S
C2614 H2606 0.950 . S
C2614 C2615 1.386 . S
C2614 C2616 1.391 . S
C2615 C2614 1.386 . S
C2615 C2619 1.393 . S
C2616 H2608 0.950 . S
C2616 C2614 1.391 . S
C2616 C2617 1.400 . S
C2617 C2616 1.400 . S
C2617 C2618 1.398 . S
C2617 C2623 1.491 . S
C2618 H2609 0.950 . S
C2618 C2617 1.398 . S
C2618 C2619 1.391 . S
C2619 H2607 0.950 . S
C2619 C2615 1.393 . S
C2619 C2618 1.391 . S
C2620 H2610 0.950 . S
C2620 C2621 1.386 . S
C2620 C2622 1.391 . S
C2621 C2620 1.386 . S
C2621 C2625 1.393 . S
C2622 H2611 0.950 . S
C2622 C2620 1.391 . S
C2622 C2623 1.400 . S
C2623 C2617 1.491 . S
C2623 C2622 1.400 . S
C2623 C2624 1.398 . S
C2624 H2612 0.950 . S
C2624 C2623 1.398 . S
C2624 C2625 1.391 . S
C2625 H2613 0.950 . S
C2625 C2621 1.393 . S
C2625 C2624 1.391 . S
H2626 C2634 0.950 . S
H2627 C2639 0.950 . S
H2628 C2636 0.950 . S
H2629 C2638 0.950 . S
H2630 C2640 0.950 . S
H2631 C2642 0.950 . S
H2632 C2644 0.950 . S
H2633 C2645 0.950 . S
C2634 H2626 0.950 . S
C2634 C2635 1.386 . S
C2634 C2636 1.391 . S
C2635 C2634 1.386 . S
C2635 C2639 1.393 . S
C2636 H2628 0.950 . S
C2636 C2634 1.391 . S
C2636 C2637 1.400 . S
C2637 C2636 1.400 . S
C2637 C2638 1.398 . S
C2637 C2643 1.491 . S
C2638 H2629 0.950 . S
C2638 C2637 1.398 . S
C2638 C2639 1.391 . S
C2639 H2627 0.950 . S
C2639 C2635 1.393 . S
C2639 C2638 1.391 . S
C2640 H2630 0.950 . S
C2640 C2641 1.386 . S
C2640 C2642 1.391 . S
C2641 C2640 1.386 . S
C2641 C2645 1.393 . S
C2642 H2631 0.950 . S
C2642 C2640 1.391 . S
C2642 C2643 1.400 . S
C2643 C2637 1.491 . S
C2643 C2642 1.400 . S
C2643 C2644 1.398 . S
C2644 H2632 0.950 . S
C2644 C2643 1.398 . S
C2644 C2645 1.391 . S
C2645 H2633 0.950 . S
C2645 C2641 1.393 . S
C2645 C2644 1.391 . S
H2646 C2654 0.950 . S
H2647 C2659 0.950 . S
H2648 C2656 0.950 . S
H2649 C2658 0.950 . S
H2650 C2660 0.950 . S
H2651 C2662 0.950 . S
H2652 C2664 0.950 . S
H2653 C2665 0.950 . S
C2654 H2646 0.950 . S
C2654 C2655 1.386 . S
C2654 C2656 1.391 . S
C2655 C2654 1.386 . S
C2655 C2659 1.393 . S
C2656 H2648 0.950 . S
C2656 C2654 1.391 . S
C2656 C2657 1.400 . S
C2657 C2656 1.400 . S
C2657 C2658 1.398 . S
C2657 C2663 1.491 . S
C2658 H2649 0.950 . S
C2658 C2657 1.398 . S
C2658 C2659 1.391 . S
C2659 H2647 0.950 . S
C2659 C2655 1.393 . S
C2659 C2658 1.391 . S
C2660 H2650 0.950 . S
C2660 C2661 1.386 . S
C2660 C2662 1.391 . S
C2661 C2660 1.386 . S
C2661 C2665 1.393 . S
C2662 H2651 0.950 . S
C2662 C2660 1.391 . S
C2662 C2663 1.400 . S
C2663 C2657 1.491 . S
C2663 C2662 1.400 . S
C2663 C2664 1.398 . S
C2664 H2652 0.950 . S
C2664 C2663 1.398 . S
C2664 C2665 1.391 . S
C2665 H2653 0.950 . S
C2665 C2661 1.393 . S
C2665 C2664 1.391 . S
H2666 C2674 0.950 . S
H2667 C2679 0.950 . S
H2668 C2676 0.950 . S
H2669 C2678 0.950 . S
H2670 C2680 0.950 . S
H2671 C2682 0.950 . S
H2672 C2684 0.950 . S
H2673 C2685 0.950 . S
C2674 H2666 0.950 . S
C2674 C2675 1.386 . S
C2674 C2676 1.391 . S
C2675 C2674 1.386 . S
C2675 C2679 1.393 . S
C2676 H2668 0.950 . S
C2676 C2674 1.391 . S
C2676 C2677 1.400 . S
C2677 C2676 1.400 . S
C2677 C2678 1.398 . S
C2677 C2683 1.491 . S
C2678 H2669 0.950 . S
C2678 C2677 1.398 . S
C2678 C2679 1.391 . S
C2679 H2667 0.950 . S
C2679 C2675 1.393 . S
C2679 C2678 1.391 . S
C2680 H2670 0.950 . S
C2680 C2681 1.386 . S
C2680 C2682 1.391 . S
C2681 C2680 1.386 . S
C2681 C2685 1.393 . S
C2682 H2671 0.950 . S
C2682 C2680 1.391 . S
C2682 C2683 1.400 . S
C2683 C2677 1.491 . S
C2683 C2682 1.400 . S
C2683 C2684 1.398 . S
C2684 H2672 0.950 . S
C2684 C2683 1.398 . S
C2684 C2685 1.391 . S
C2685 H2673 0.950 . S
C2685 C2681 1.393 . S
C2685 C2684 1.391 . S
H2686 C2694 0.950 . S
H2687 C2699 0.950 . S
H2688 C2696 0.950 . S
H2689 C2698 0.950 . S
H2690 C2700 0.950 . S
H2691 C2702 0.950 . S
H2692 C2704 0.950 . S
H2693 C2705 0.950 . S
C2694 H2686 0.950 . S
C2694 C2695 1.386 . S
C2694 C2696 1.391 . S
C2695 C2694 1.386 . S
C2695 C2699 1.393 . S
C2696 H2688 0.950 . S
C2696 C2694 1.391 . S
C2696 C2697 1.400 . S
C2697 C2696 1.400 . S
C2697 C2698 1.398 . S
C2697 C2703 1.491 . S
C2698 H2689 0.950 . S
C2698 C2697 1.398 . S
C2698 C2699 1.391 . S
C2699 H2687 0.950 . S
C2699 C2695 1.393 . S
C2699 C2698 1.391 . S
C2700 H2690 0.950 . S
C2700 C2701 1.386 . S
C2700 C2702 1.391 . S
C2701 C2700 1.386 . S
C2701 C2705 1.393 . S
C2702 H2691 0.950 . S
C2702 C2700 1.391 . S
C2702 C2703 1.400 . S
C2703 C2697 1.491 . S
C2703 C2702 1.400 . S
C2703 C2704 1.398 . S
C2704 H2692 0.950 . S
C2704 C2703 1.398 . S
C2704 C2705 1.391 . S
C2705 H2693 0.950 . S
C2705 C2701 1.393 . S
C2705 C2704 1.391 . S
H2706 C2714 0.950 . S
H2707 C2719 0.950 . S
H2708 C2716 0.950 . S
H2709 C2718 0.950 . S
H2710 C2720 0.950 . S
H2711 C2722 0.950 . S
H2712 C2724 0.950 . S
H2713 C2725 0.950 . S
C2714 H2706 0.950 . S
C2714 C2715 1.386 . S
C2714 C2716 1.391 . S
C2715 C2714 1.386 . S
C2715 C2719 1.393 . S
C2716 H2708 0.950 . S
C2716 C2714 1.391 . S
C2716 C2717 1.400 . S
C2717 C2716 1.400 . S
C2717 C2718 1.398 . S
C2717 C2723 1.491 . S
C2718 H2709 0.950 . S
C2718 C2717 1.398 . S
C2718 C2719 1.391 . S
C2719 H2707 0.950 . S
C2719 C2715 1.393 . S
C2719 C2718 1.391 . S
C2720 H2710 0.950 . S
C2720 C2721 1.386 . S
C2720 C2722 1.391 . S
C2721 C2720 1.386 . S
C2721 C2725 1.393 . S
C2722 H2711 0.950 . S
C2722 C2720 1.391 . S
C2722 C2723 1.400 . S
C2723 C2717 1.491 . S
C2723 C2722 1.400 . S
C2723 C2724 1.398 . S
C2724 H2712 0.950 . S
C2724 C2723 1.398 . S
C2724 C2725 1.391 . S
C2725 H2713 0.950 . S
C2725 C2721 1.393 . S
C2725 C2724 1.391 . S
H2726 C2734 0.950 . S
H2727 C2739 0.950 . S
H2728 C2736 0.950 . S
H2729 C2738 0.950 . S
H2730 C2740 0.950 . S
H2731 C2742 0.950 . S
H2732 C2744 0.950 . S
H2733 C2745 0.950 . S
C2734 H2726 0.950 . S
C2734 C2735 1.386 . S
C2734 C2736 1.391 . S
C2735 C2734 1.386 . S
C2735 C2739 1.393 . S
C2736 H2728 0.950 . S
C2736 C2734 1.391 . S
C2736 C2737 1.400 . S
C2737 C2736 1.400 . S
C2737 C2738 1.398 . S
C2737 C2743 1.491 . S
C2738 H2729 0.950 . S
C2738 C2737 1.398 . S
C2738 C2739 1.391 . S
C2739 H2727 0.950 . S
C2739 C2735 1.393 . S
C2739 C2738 1.391 . S
C2740 H2730 0.950 . S
C2740 C2741 1.386 . S
C2740 C2742 1.391 . S
C2741 C2740 1.386 . S
C2741 C2745 1.393 . S
C2742 H2731 0.950 . S
C2742 C2740 1.391 . S
C2742 C2743 1.400 . S
C2743 C2737 1.491 . S
C2743 C2742 1.400 . S
C2743 C2744 1.398 . S
C2744 H2732 0.950 . S
C2744 C2743 1.398 . S
C2744 C2745 1.391 . S
C2745 H2733 0.950 . S
C2745 C2741 1.393 . S
C2745 C2744 1.391 . S
H2746 C2754 0.950 . S
H2747 C2759 0.950 . S
H2748 C2756 0.950 . S
H2749 C2758 0.950 . S
H2750 C2760 0.950 . S
H2751 C2762 0.950 . S
H2752 C2764 0.950 . S
H2753 C2765 0.950 . S
C2754 H2746 0.950 . S
C2754 C2755 1.386 . S
C2754 C2756 1.391 . S
C2755 C2754 1.386 . S
C2755 C2759 1.393 . S
C2756 H2748 0.950 . S
C2756 C2754 1.391 . S
C2756 C2757 1.400 . S
C2757 C2756 1.400 . S
C2757 C2758 1.398 . S
C2757 C2763 1.491 . S
C2758 H2749 0.950 . S
C2758 C2757 1.398 . S
C2758 C2759 1.391 . S
C2759 H2747 0.950 . S
C2759 C2755 1.393 . S
C2759 C2758 1.391 . S
C2760 H2750 0.950 . S
C2760 C2761 1.386 . S
C2760 C2762 1.391 . S
C2761 C2760 1.386 . S
C2761 C2765 1.393 . S
C2762 H2751 0.950 . S
C2762 C2760 1.391 . S
C2762 C2763 1.400 . S
C2763 C2757 1.491 . S
C2763 C2762 1.400 . S
C2763 C2764 1.398 . S
C2764 H2752 0.950 . S
C2764 C2763 1.398 . S
C2764 C2765 1.391 . S
C2765 H2753 0.950 . S
C2765 C2761 1.393 . S
C2765 C2764 1.391 . S
H2766 C2774 0.950 . S
H2767 C2779 0.950 . S
H2768 C2776 0.950 . S
H2769 C2778 0.950 . S
H2770 C2780 0.950 . S
H2771 C2782 0.950 . S
H2772 C2784 0.950 . S
H2773 C2785 0.950 . S
C2774 H2766 0.950 . S
C2774 C2775 1.386 . S
C2774 C2776 1.391 . S
C2775 C2774 1.386 . S
C2775 C2779 1.393 . S
C2776 H2768 0.950 . S
C2776 C2774 1.391 . S
C2776 C2777 1.400 . S
C2777 C2776 1.400 . S
C2777 C2778 1.398 . S
C2777 C2783 1.491 . S
C2778 H2769 0.950 . S
C2778 C2777 1.398 . S
C2778 C2779 1.391 . S
C2779 H2767 0.950 . S
C2779 C2775 1.393 . S
C2779 C2778 1.391 . S
C2780 H2770 0.950 . S
C2780 C2781 1.386 . S
C2780 C2782 1.391 . S
C2781 C2780 1.386 . S
C2781 C2785 1.393 . S
C2782 H2771 0.950 . S
C2782 C2780 1.391 . S
C2782 C2783 1.400 . S
C2783 C2777 1.491 . S
C2783 C2782 1.400 . S
C2783 C2784 1.398 . S
C2784 H2772 0.950 . S
C2784 C2783 1.398 . S
C2784 C2785 1.391 . S
C2785 H2773 0.950 . S
C2785 C2781 1.393 . S
C2785 C2784 1.391 . S
H2786 C2794 0.950 . S
H2787 C2799 0.950 . S
H2788 C2796 0.950 . S
H2789 C2798 0.950 . S
H2790 C2800 0.950 . S
H2791 C2802 0.950 . S
H2792 C2804 0.950 . S
H2793 C2805 0.950 . S
C2794 H2786 0.950 . S
C2794 C2795 1.386 . S
C2794 C2796 1.391 . S
C2795 C2794 1.386 . S
C2795 C2799 1.393 . S
C2796 H2788 0.950 . S
C2796 C2794 1.391 . S
C2796 C2797 1.400 . S
C2797 C2796 1.400 . S
C2797 C2798 1.398 . S
C2797 C2803 1.491 . S
C2798 H2789 0.950 . S
C2798 C2797 1.398 . S
C2798 C2799 1.391 . S
C2799 H2787 0.950 . S
C2799 C2795 1.393 . S
C2799 C2798 1.391 . S
C2800 H2790 0.950 . S
C2800 C2801 1.386 . S
C2800 C2802 1.391 . S
C2801 C2800 1.386 . S
C2801 C2805 1.393 . S
C2802 H2791 0.950 . S
C2802 C2800 1.391 . S
C2802 C2803 1.400 . S
C2803 C2797 1.491 . S
C2803 C2802 1.400 . S
C2803 C2804 1.398 . S
C2804 H2792 0.950 . S
C2804 C2803 1.398 . S
C2804 C2805 1.391 . S
C2805 H2793 0.950 . S
C2805 C2801 1.393 . S
C2805 C2804 1.391 . S
H2806 C2814 0.950 . S
H2807 C2819 0.950 . S
H2808 C2816 0.950 . S
H2809 C2818 0.950 . S
H2810 C2820 0.950 . S
H2811 C2822 0.950 . S
H2812 C2824 0.950 . S
H2813 C2825 0.950 . S
C2814 H2806 0.950 . S
C2814 C2815 1.386 . S
C2814 C2816 1.391 . S
C2815 C2814 1.386 . S
C2815 C2819 1.393 . S
C2816 H2808 0.950 . S
C2816 C2814 1.391 . S
C2816 C2817 1.400 . S
C2817 C2816 1.400 . S
C2817 C2818 1.398 . S
C2817 C2823 1.491 . S
C2818 H2809 0.950 . S
C2818 C2817 1.398 . S
C2818 C2819 1.391 . S
C2819 H2807 0.950 . S
C2819 C2815 1.393 . S
C2819 C2818 1.391 . S
C2820 H2810 0.950 . S
C2820 C2821 1.386 . S
C2820 C2822 1.391 . S
C2821 C2820 1.386 . S
C2821 C2825 1.393 . S
C2822 H2811 0.950 . S
C2822 C2820 1.391 . S
C2822 C2823 1.400 . S
C2823 C2817 1.491 . S
C2823 C2822 1.400 . S
C2823 C2824 1.398 . S
C2824 H2812 0.950 . S
C2824 C2823 1.398 . S
C2824 C2825 1.391 . S
C2825 H2813 0.950 . S
C2825 C2821 1.393 . S
C2825 C2824 1.391 . S
H2826 C2834 0.950 . S
H2827 C2839 0.950 . S
H2828 C2836 0.950 . S
H2829 C2838 0.950 . S
H2830 C2840 0.950 . S
H2831 C2842 0.950 . S
H2832 C2844 0.950 . S
H2833 C2845 0.950 . S
C2834 H2826 0.950 . S
C2834 C2835 1.386 . S
C2834 C2836 1.391 . S
C2835 C2834 1.386 . S
C2835 C2839 1.393 . S
C2836 H2828 0.950 . S
C2836 C2834 1.391 . S
C2836 C2837 1.400 . S
C2837 C2836 1.400 . S
C2837 C2838 1.398 . S
C2837 C2843 1.491 . S
C2838 H2829 0.950 . S
C2838 C2837 1.398 . S
C2838 C2839 1.391 . S
C2839 H2827 0.950 . S
C2839 C2835 1.393 . S
C2839 C2838 1.391 . S
C2840 H2830 0.950 . S
C2840 C2841 1.386 . S
C2840 C2842 1.391 . S
C2841 C2840 1.386 . S
C2841 C2845 1.393 . S
C2842 H2831 0.950 . S
C2842 C2840 1.391 . S
C2842 C2843 1.400 . S
C2843 C2837 1.491 . S
C2843 C2842 1.400 . S
C2843 C2844 1.398 . S
C2844 H2832 0.950 . S
C2844 C2843 1.398 . S
C2844 C2845 1.391 . S
C2845 H2833 0.950 . S
C2845 C2841 1.393 . S
C2845 C2844 1.391 . S
H2846 C2854 0.950 . S
H2847 C2859 0.950 . S
H2848 C2856 0.950 . S
H2849 C2858 0.950 . S
H2850 C2860 0.950 . S
H2851 C2862 0.950 . S
H2852 C2864 0.950 . S
H2853 C2865 0.950 . S
C2854 H2846 0.950 . S
C2854 C2855 1.386 . S
C2854 C2856 1.391 . S
C2855 C2854 1.386 . S
C2855 C2859 1.393 . S
C2856 H2848 0.950 . S
C2856 C2854 1.391 . S
C2856 C2857 1.400 . S
C2857 C2856 1.400 . S
C2857 C2858 1.398 . S
C2857 C2863 1.491 . S
C2858 H2849 0.950 . S
C2858 C2857 1.398 . S
C2858 C2859 1.391 . S
C2859 H2847 0.950 . S
C2859 C2855 1.393 . S
C2859 C2858 1.391 . S
C2860 H2850 0.950 . S
C2860 C2861 1.386 . S
C2860 C2862 1.391 . S
C2861 C2860 1.386 . S
C2861 C2865 1.393 . S
C2862 H2851 0.950 . S
C2862 C2860 1.391 . S
C2862 C2863 1.400 . S
C2863 C2857 1.491 . S
C2863 C2862 1.400 . S
C2863 C2864 1.398 . S
C2864 H2852 0.950 . S
C2864 C2863 1.398 . S
C2864 C2865 1.391 . S
C2865 H2853 0.950 . S
C2865 C2861 1.393 . S
C2865 C2864 1.391 . S
H2866 C2874 0.950 . S
H2867 C2879 0.950 . S
H2868 C2876 0.950 . S
H2869 C2878 0.950 . S
H2870 C2880 0.950 . S
H2871 C2882 0.950 . S
H2872 C2884 0.950 . S
H2873 C2885 0.950 . S
C2874 H2866 0.950 . S
C2874 C2875 1.386 . S
C2874 C2876 1.391 . S
C2875 C2874 1.386 . S
C2875 C2879 1.393 . S
C2876 H2868 0.950 . S
C2876 C2874 1.391 . S
C2876 C2877 1.400 . S
C2877 C2876 1.400 . S
C2877 C2878 1.398 . S
C2877 C2883 1.491 . S
C2878 H2869 0.950 . S
C2878 C2877 1.398 . S
C2878 C2879 1.391 . S
C2879 H2867 0.950 . S
C2879 C2875 1.393 . S
C2879 C2878 1.391 . S
C2880 H2870 0.950 . S
C2880 C2881 1.386 . S
C2880 C2882 1.391 . S
C2881 C2880 1.386 . S
C2881 C2885 1.393 . S
C2882 H2871 0.950 . S
C2882 C2880 1.391 . S
C2882 C2883 1.400 . S
C2883 C2877 1.491 . S
C2883 C2882 1.400 . S
C2883 C2884 1.398 . S
C2884 H2872 0.950 . S
C2884 C2883 1.398 . S
C2884 C2885 1.391 . S
C2885 H2873 0.950 . S
C2885 C2881 1.393 . S
C2885 C2884 1.391 . S
H2886 C2894 0.950 . S
H2887 C2899 0.950 . S
H2888 C2896 0.950 . S
H2889 C2898 0.950 . S
H2890 C2900 0.950 . S
H2891 C2902 0.950 . S
H2892 C2904 0.950 . S
H2893 C2905 0.950 . S
C2894 H2886 0.950 . S
C2894 C2895 1.386 . S
C2894 C2896 1.391 . S
C2895 C2894 1.386 . S
C2895 C2899 1.393 . S
C2896 H2888 0.950 . S
C2896 C2894 1.391 . S
C2896 C2897 1.400 . S
C2897 C2896 1.400 . S
C2897 C2898 1.398 . S
C2897 C2903 1.491 . S
C2898 H2889 0.950 . S
C2898 C2897 1.398 . S
C2898 C2899 1.391 . S
C2899 H2887 0.950 . S
C2899 C2895 1.393 . S
C2899 C2898 1.391 . S
C2900 H2890 0.950 . S
C2900 C2901 1.386 . S
C2900 C2902 1.391 . S
C2901 C2900 1.386 . S
C2901 C2905 1.393 . S
C2902 H2891 0.950 . S
C2902 C2900 1.391 . S
C2902 C2903 1.400 . S
C2903 C2897 1.491 . S
C2903 C2902 1.400 . S
C2903 C2904 1.398 . S
C2904 H2892 0.950 . S
C2904 C2903 1.398 . S
C2904 C2905 1.391 . S
C2905 H2893 0.950 . S
C2905 C2901 1.393 . S
C2905 C2904 1.391 . S
H2906 C2914 0.950 . S
H2907 C2919 0.950 . S
H2908 C2916 0.950 . S
H2909 C2918 0.950 . S
H2910 C2920 0.950 . S
H2911 C2922 0.950 . S
H2912 C2924 0.950 . S
H2913 C2925 0.950 . S
C2914 H2906 0.950 . S
C2914 C2915 1.386 . S
C2914 C2916 1.391 . S
C2915 C2914 1.386 . S
C2915 C2919 1.393 . S
C2916 H2908 0.950 . S
C2916 C2914 1.391 . S
C2916 C2917 1.400 . S
C2917 C2916 1.400 . S
C2917 C2918 1.398 . S
C2917 C2923 1.491 . S
C2918 H2909 0.950 . S
C2918 C2917 1.398 . S
C2918 C2919 1.391 . S
C2919 H2907 0.950 . S
C2919 C2915 1.393 . S
C2919 C2918 1.391 . S
C2920 H2910 0.950 . S
C2920 C2921 1.386 . S
C2920 C2922 1.391 . S
C2921 C2920 1.386 . S
C2921 C2925 1.393 . S
C2922 H2911 0.950 . S
C2922 C2920 1.391 . S
C2922 C2923 1.400 . S
C2923 C2917 1.491 . S
C2923 C2922 1.400 . S
C2923 C2924 1.398 . S
C2924 H2912 0.950 . S
C2924 C2923 1.398 . S
C2924 C2925 1.391 . S
C2925 H2913 0.950 . S
C2925 C2921 1.393 . S
C2925 C2924 1.391 . S
H2926 C2934 0.950 . S
H2927 C2939 0.950 . S
H2928 C2936 0.950 . S
H2929 C2938 0.950 . S
H2930 C2940 0.950 . S
H2931 C2942 0.950 . S
H2932 C2944 0.950 . S
H2933 C2945 0.950 . S
C2934 H2926 0.950 . S
C2934 C2935 1.386 . S
C2934 C2936 1.391 . S
C2935 C2934 1.386 . S
C2935 C2939 1.393 . S
C2936 H2928 0.950 . S
C2936 C2934 1.391 . S
C2936 C2937 1.400 . S
C2937 C2936 1.400 . S
C2937 C2938 1.398 . S
C2937 C2943 1.491 . S
C2938 H2929 0.950 . S
C2938 C2937 1.398 . S
C2938 C2939 1.391 . S
C2939 H2927 0.950 . S
C2939 C2935 1.393 . S
C2939 C2938 1.391 . S
C2940 H2930 0.950 . S
C2940 C2941 1.386 . S
C2940 C2942 1.391 . S
C2941 C2940 1.386 . S
C2941 C2945 1.393 . S
C2942 H2931 0.950 . S
C2942 C2940 1.391 . S
C2942 C2943 1.400 . S
C2943 C2937 1.491 . S
C2943 C2942 1.400 . S
C2943 C2944 1.398 . S
C2944 H2932 0.950 . S
C2944 C2943 1.398 . S
C2944 C2945 1.391 . S
C2945 H2933 0.950 . S
C2945 C2941 1.393 . S
C2945 C2944 1.391 . S
H2946 C2954 0.950 . S
H2947 C2959 0.950 . S
H2948 C2956 0.950 . S
H2949 C2958 0.950 . S
H2950 C2960 0.950 . S
H2951 C2962 0.950 . S
H2952 C2964 0.950 . S
H2953 C2965 0.950 . S
C2954 H2946 0.950 . S
C2954 C2955 1.386 . S
C2954 C2956 1.391 . S
C2955 C2954 1.386 . S
C2955 C2959 1.393 . S
C2956 H2948 0.950 . S
C2956 C2954 1.391 . S
C2956 C2957 1.400 . S
C2957 C2956 1.400 . S
C2957 C2958 1.398 . S
C2957 C2963 1.491 . S
C2958 H2949 0.950 . S
C2958 C2957 1.398 . S
C2958 C2959 1.391 . S
C2959 H2947 0.950 . S
C2959 C2955 1.393 . S
C2959 C2958 1.391 . S
C2960 H2950 0.950 . S
C2960 C2961 1.386 . S
C2960 C2962 1.391 . S
C2961 C2960 1.386 . S
C2961 C2965 1.393 . S
C2962 H2951 0.950 . S
C2962 C2960 1.391 . S
C2962 C2963 1.400 . S
C2963 C2957 1.491 . S
C2963 C2962 1.400 . S
C2963 C2964 1.398 . S
C2964 H2952 0.950 . S
C2964 C2963 1.398 . S
C2964 C2965 1.391 . S
C2965 H2953 0.950 . S
C2965 C2961 1.393 . S
C2965 C2964 1.391 . S
H2966 C2974 0.950 . S
H2967 C2979 0.950 . S
H2968 C2976 0.950 . S
H2969 C2978 0.950 . S
H2970 C2980 0.950 . S
H2971 C2982 0.950 . S
H2972 C2984 0.950 . S
H2973 C2985 0.950 . S
C2974 H2966 0.950 . S
C2974 C2975 1.386 . S
C2974 C2976 1.391 . S
C2975 C2974 1.386 . S
C2975 C2979 1.393 . S
C2976 H2968 0.950 . S
C2976 C2974 1.391 . S
C2976 C2977 1.400 . S
C2977 C2976 1.400 . S
C2977 C2978 1.398 . S
C2977 C2983 1.491 . S
C2978 H2969 0.950 . S
C2978 C2977 1.398 . S
C2978 C2979 1.391 . S
C2979 H2967 0.950 . S
C2979 C2975 1.393 . S
C2979 C2978 1.391 . S
C2980 H2970 0.950 . S
C2980 C2981 1.386 . S
C2980 C2982 1.391 . S
C2981 C2980 1.386 . S
C2981 C2985 1.393 . S
C2982 H2971 0.950 . S
C2982 C2980 1.391 . S
C2982 C2983 1.400 . S
C2983 C2977 1.491 . S
C2983 C2982 1.400 . S
C2983 C2984 1.398 . S
C2984 H2972 0.950 . S
C2984 C2983 1.398 . S
C2984 C2985 1.391 . S
C2985 H2973 0.950 . S
C2985 C2981 1.393 . S
C2985 C2984 1.391 . S
H2986 C2994 0.950 . S
H2987 C2999 0.950 . S
H2988 C2996 0.950 . S
H2989 C2998 0.950 . S
H2990 C3000 0.950 . S
H2991 C3002 0.950 . S
H2992 C3004 0.950 . S
H2993 C3005 0.950 . S
C2994 H2986 0.950 . S
C2994 C2995 1.386 . S
C2994 C2996 1.391 . S
C2995 C2994 1.386 . S
C2995 C2999 1.393 . S
C2996 H2988 0.950 . S
C2996 C2994 1.391 . S
C2996 C2997 1.400 . S
C2997 C2996 1.400 . S
C2997 C2998 1.398 . S
C2997 C3003 1.491 . S
C2998 H2989 0.950 . S
C2998 C2997 1.398 . S
C2998 C2999 1.391 . S
C2999 H2987 0.950 . S
C2999 C2995 1.393 . S
C2999 C2998 1.391 . S
C3000 H2990 0.950 . S
C3000 C3001 1.386 . S
C3000 C3002 1.391 . S
C3001 C3000 1.386 . S
C3001 C3005 1.393 . S
C3002 H2991 0.950 . S
C3002 C3000 1.391 . S
C3002 C3003 1.400 . S
C3003 C2997 1.491 . S
C3003 C3002 1.400 . S
C3003 C3004 1.398 . S
C3004 H2992 0.950 . S
C3004 C3003 1.398 . S
C3004 C3005 1.391 . S
C3005 H2993 0.950 . S
C3005 C3001 1.393 . S
C3005 C3004 1.391 . S
H3006 C3014 0.950 . S
H3007 C3019 0.950 . S
H3008 C3016 0.950 . S
H3009 C3018 0.950 . S
H3010 C3020 0.950 . S
H3011 C3022 0.950 . S
H3012 C3024 0.950 . S
H3013 C3025 0.950 . S
C3014 H3006 0.950 . S
C3014 C3015 1.386 . S
C3014 C3016 1.391 . S
C3015 C3014 1.386 . S
C3015 C3019 1.393 . S
C3016 H3008 0.950 . S
C3016 C3014 1.391 . S
C3016 C3017 1.400 . S
C3017 C3016 1.400 . S
C3017 C3018 1.398 . S
C3017 C3023 1.491 . S
C3018 H3009 0.950 . S
C3018 C3017 1.398 . S
C3018 C3019 1.391 . S
C3019 H3007 0.950 . S
C3019 C3015 1.393 . S
C3019 C3018 1.391 . S
C3020 H3010 0.950 . S
C3020 C3021 1.386 . S
C3020 C3022 1.391 . S
C3021 C3020 1.386 . S
C3021 C3025 1.393 . S
C3022 H3011 0.950 . S
C3022 C3020 1.391 . S
C3022 C3023 1.400 . S
C3023 C3017 1.491 . S
C3023 C3022 1.400 . S
C3023 C3024 1.398 . S
C3024 H3012 0.950 . S
C3024 C3023 1.398 . S
C3024 C3025 1.391 . S
C3025 H3013 0.950 . S
C3025 C3021 1.393 . S
C3025 C3024 1.391 . S
H3026 C3034 0.950 . S
H3027 C3039 0.950 . S
H3028 C3036 0.950 . S
H3029 C3038 0.950 . S
H3030 C3040 0.950 . S
H3031 C3042 0.950 . S
H3032 C3044 0.950 . S
H3033 C3045 0.950 . S
C3034 H3026 0.950 . S
C3034 C3035 1.386 . S
C3034 C3036 1.391 . S
C3035 C3034 1.386 . S
C3035 C3039 1.393 . S
C3036 H3028 0.950 . S
C3036 C3034 1.391 . S
C3036 C3037 1.400 . S
C3037 C3036 1.400 . S
C3037 C3038 1.398 . S
C3037 C3043 1.491 . S
C3038 H3029 0.950 . S
C3038 C3037 1.398 . S
C3038 C3039 1.391 . S
C3039 H3027 0.950 . S
C3039 C3035 1.393 . S
C3039 C3038 1.391 . S
C3040 H3030 0.950 . S
C3040 C3041 1.386 . S
C3040 C3042 1.391 . S
C3041 C3040 1.386 . S
C3041 C3045 1.393 . S
C3042 H3031 0.950 . S
C3042 C3040 1.391 . S
C3042 C3043 1.400 . S
C3043 C3037 1.491 . S
C3043 C3042 1.400 . S
C3043 C3044 1.398 . S
C3044 H3032 0.950 . S
C3044 C3043 1.398 . S
C3044 C3045 1.391 . S
C3045 H3033 0.950 . S
C3045 C3041 1.393 . S
C3045 C3044 1.391 . S
H3046 C3054 0.950 . S
H3047 C3059 0.950 . S
H3048 C3056 0.950 . S
H3049 C3058 0.950 . S
H3050 C3060 0.950 . S
H3051 C3062 0.950 . S
H3052 C3064 0.950 . S
H3053 C3065 0.950 . S
C3054 H3046 0.950 . S
C3054 C3055 1.386 . S
C3054 C3056 1.391 . S
C3055 C3054 1.386 . S
C3055 C3059 1.393 . S
C3056 H3048 0.950 . S
C3056 C3054 1.391 . S
C3056 C3057 1.400 . S
C3057 C3056 1.400 . S
C3057 C3058 1.398 . S
C3057 C3063 1.491 . S
C3058 H3049 0.950 . S
C3058 C3057 1.398 . S
C3058 C3059 1.391 . S
C3059 H3047 0.950 . S
C3059 C3055 1.393 . S
C3059 C3058 1.391 . S
C3060 H3050 0.950 . S
C3060 C3061 1.386 . S
C3060 C3062 1.391 . S
C3061 C3060 1.386 . S
C3061 C3065 1.393 . S
C3062 H3051 0.950 . S
C3062 C3060 1.391 . S
C3062 C3063 1.400 . S
C3063 C3057 1.491 . S
C3063 C3062 1.400 . S
C3063 C3064 1.398 . S
C3064 H3052 0.950 . S
C3064 C3063 1.398 . S
C3064 C3065 1.391 . S
C3065 H3053 0.950 . S
C3065 C3061 1.393 . S
C3065 C3064 1.391 . S
H3066 C3074 0.950 . S
H3067 C3079 0.950 1_554 S
H3068 C3076 0.950 . S
H3069 C3078 0.950 . S
H3070 C3080 0.950 . S
H3071 C3082 0.950 . S
H3072 C3084 0.950 . S
H3073 C3085 0.950 . S
C3074 H3066 0.950 . S
C3074 C3075 1.386 . S
C3074 C3076 1.391 . S
C3075 C3074 1.386 . S
C3075 C3079 1.393 . S
C3076 H3068 0.950 . S
C3076 C3074 1.391 . S
C3076 C3077 1.400 . S
C3077 C3076 1.400 . S
C3077 C3078 1.398 . S
C3077 C3083 1.491 . S
C3078 H3069 0.950 . S
C3078 C3077 1.398 . S
C3078 C3079 1.391 . S
C3079 H3067 0.950 1_556 S
C3079 C3075 1.393 . S
C3079 C3078 1.391 . S
C3080 H3070 0.950 . S
C3080 C3081 1.386 . S
C3080 C3082 1.391 . S
C3081 C3080 1.386 . S
C3081 C3085 1.393 . S
C3082 H3071 0.950 . S
C3082 C3080 1.391 . S
C3082 C3083 1.400 . S
C3083 C3077 1.491 . S
C3083 C3082 1.400 . S
C3083 C3084 1.398 . S
C3084 H3072 0.950 . S
C3084 C3083 1.398 . S
C3084 C3085 1.391 . S
C3085 H3073 0.950 . S
C3085 C3081 1.393 . S
C3085 C3084 1.391 . S
H3086 C3094 0.950 . S
H3087 C3099 0.950 . S
H3088 C3096 0.950 . S
H3089 C3098 0.950 . S
H3090 C3100 0.950 . S
H3091 C3102 0.950 . S
H3092 C3104 0.950 . S
H3093 C3105 0.950 . S
C3094 H3086 0.950 . S
C3094 C3095 1.386 . S
C3094 C3096 1.391 . S
C3095 C3094 1.386 . S
C3095 C3099 1.393 . S
C3096 H3088 0.950 . S
C3096 C3094 1.391 . S
C3096 C3097 1.400 . S
C3097 C3096 1.400 . S
C3097 C3098 1.398 . S
C3097 C3103 1.491 . S
C3098 H3089 0.950 . S
C3098 C3097 1.398 . S
C3098 C3099 1.391 . S
C3099 H3087 0.950 . S
C3099 C3095 1.393 . S
C3099 C3098 1.391 . S
C3100 H3090 0.950 . S
C3100 C3101 1.386 . S
C3100 C3102 1.391 . S
C3101 C3100 1.386 . S
C3101 C3105 1.393 . S
C3102 H3091 0.950 . S
C3102 C3100 1.391 . S
C3102 C3103 1.400 . S
C3103 C3097 1.491 . S
C3103 C3102 1.400 . S
C3103 C3104 1.398 . S
C3104 H3092 0.950 . S
C3104 C3103 1.398 . S
C3104 C3105 1.391 . S
C3105 H3093 0.950 . S
C3105 C3101 1.393 . S
C3105 C3104 1.391 . S
H3106 C3114 0.908 1_554 S
H3107 C3119 0.950 . S
H3108 C3116 0.950 . S
H3109 C3118 0.950 . S
H3110 C3120 0.950 . S
H3111 C3122 0.950 . S
H3112 C3124 0.950 . S
H3113 C3125 0.950 . S
C3114 H3106 0.908 1_556 S
C3114 C3115 1.386 . S
C3114 C3116 1.391 . S
C3115 C3114 1.386 . S
C3115 C3119 1.393 . S
C3116 H3108 0.950 . S
C3116 C3114 1.391 . S
C3116 C3117 1.400 . S
C3117 C3116 1.400 . S
C3117 C3118 1.398 . S
C3117 C3123 1.491 . S
C3118 H3109 0.950 . S
C3118 C3117 1.398 . S
C3118 C3119 1.391 . S
C3119 H3107 0.950 . S
C3119 C3115 1.393 . S
C3119 C3118 1.391 . S
C3120 H3110 0.950 . S
C3120 C3121 1.386 . S
C3120 C3122 1.391 . S
C3121 C3120 1.386 . S
C3121 C3125 1.393 . S
C3122 H3111 0.950 . S
C3122 C3120 1.391 . S
C3122 C3123 1.400 . S
C3123 C3117 1.491 . S
C3123 C3122 1.400 . S
C3123 C3124 1.398 . S
C3124 H3112 0.950 . S
C3124 C3123 1.398 . S
C3124 C3125 1.391 . S
C3125 H3113 0.950 . S
C3125 C3121 1.393 . S
C3125 C3124 1.391 . S
H3126 C3134 0.950 . S
H3127 C3139 0.950 . S
H3128 C3136 0.950 . S
H3129 C3138 0.950 . S
H3130 C3140 0.950 . S
H3131 C3142 0.950 . S
H3132 C3144 0.950 . S
H3133 C3145 0.950 . S
C3134 H3126 0.950 . S
C3134 C3135 1.386 . S
C3134 C3136 1.391 . S
C3135 C3134 1.386 . S
C3135 C3139 1.393 . S
C3136 H3128 0.950 . S
C3136 C3134 1.391 . S
C3136 C3137 1.400 . S
C3137 C3136 1.400 . S
C3137 C3138 1.398 . S
C3137 C3143 1.491 . S
C3138 H3129 0.950 . S
C3138 C3137 1.398 . S
C3138 C3139 1.391 . S
C3139 H3127 0.950 . S
C3139 C3135 1.393 . S
C3139 C3138 1.391 . S
C3140 H3130 0.950 . S
C3140 C3141 1.386 . S
C3140 C3142 1.391 . S
C3141 C3140 1.386 . S
C3141 C3145 1.393 . S
C3142 H3131 0.950 . S
C3142 C3140 1.391 . S
C3142 C3143 1.400 . S
C3143 C3137 1.491 . S
C3143 C3142 1.400 . S
C3143 C3144 1.398 . S
C3144 H3132 0.950 . S
C3144 C3143 1.398 . S
C3144 C3145 1.391 . S
C3145 H3133 0.950 . S
C3145 C3141 1.393 . S
C3145 C3144 1.391 . S
H3146 C3154 0.950 . S
H3147 C3159 0.950 . S
H3148 C3156 0.950 . S
H3149 C3158 0.950 . S
H3150 C3160 0.950 . S
H3151 C3162 0.950 . S
H3152 C3164 0.950 . S
H3153 C3165 0.950 . S
C3154 H3146 0.950 . S
C3154 C3155 1.386 . S
C3154 C3156 1.391 . S
C3155 C3154 1.386 . S
C3155 C3159 1.393 . S
C3156 H3148 0.950 . S
C3156 C3154 1.391 . S
C3156 C3157 1.400 . S
C3157 C3156 1.400 . S
C3157 C3158 1.398 . S
C3157 C3163 1.491 . S
C3158 H3149 0.950 . S
C3158 C3157 1.398 . S
C3158 C3159 1.391 . S
C3159 H3147 0.950 . S
C3159 C3155 1.393 . S
C3159 C3158 1.391 . S
C3160 H3150 0.950 . S
C3160 C3161 1.386 . S
C3160 C3162 1.391 . S
C3161 C3160 1.386 . S
C3161 C3165 1.393 . S
C3162 H3151 0.950 . S
C3162 C3160 1.391 . S
C3162 C3163 1.400 . S
C3163 C3157 1.491 . S
C3163 C3162 1.400 . S
C3163 C3164 1.398 . S
C3164 H3152 0.950 . S
C3164 C3163 1.398 . S
C3164 C3165 1.391 . S
C3165 H3153 0.950 . S
C3165 C3161 1.393 . S
C3165 C3164 1.391 . S
H3166 C3174 0.950 1_554 S
H3167 C3179 0.950 . S
H3168 C3176 0.950 . S
H3169 C3178 0.950 . S
H3170 C3180 0.950 . S
H3171 C3182 0.950 . S
H3172 C3184 0.950 . S
H3173 C3185 0.950 . S
C3174 H3166 0.950 1_556 S
C3174 C3175 1.386 . S
C3174 C3176 1.391 . S
C3175 C3174 1.386 . S
C3175 C3179 1.393 . S
C3176 H3168 0.950 . S
C3176 C3174 1.391 . S
C3176 C3177 1.400 . S
C3177 C3176 1.400 . S
C3177 C3178 1.398 . S
C3177 C3183 1.491 . S
C3178 H3169 0.950 . S
C3178 C3177 1.398 . S
C3178 C3179 1.391 . S
C3179 H3167 0.950 . S
C3179 C3175 1.393 . S
C3179 C3178 1.391 . S
C3180 H3170 0.950 . S
C3180 C3181 1.386 . S
C3180 C3182 1.391 . S
C3181 C3180 1.386 . S
C3181 C3185 1.393 . S
C3182 H3171 0.950 . S
C3182 C3180 1.391 . S
C3182 C3183 1.400 . S
C3183 C3177 1.491 . S
C3183 C3182 1.400 . S
C3183 C3184 1.398 . S
C3184 H3172 0.950 . S
C3184 C3183 1.398 . S
C3184 C3185 1.391 . S
C3185 H3173 0.950 . S
C3185 C3181 1.393 . S
C3185 C3184 1.391 . S
H3186 C3194 0.950 . S
H3187 C3199 0.950 . S
H3188 C3196 0.950 . S
H3189 C3198 0.950 . S
H3190 C3200 0.950 . S
H3191 C3202 0.950 . S
H3192 C3204 0.950 . S
H3193 C3205 0.950 . S
C3194 H3186 0.950 . S
C3194 C3195 1.386 . S
C3194 C3196 1.391 . S
C3195 C3194 1.386 . S
C3195 C3199 1.393 . S
C3196 H3188 0.950 . S
C3196 C3194 1.391 . S
C3196 C3197 1.400 . S
C3197 C3196 1.400 . S
C3197 C3198 1.398 . S
C3197 C3203 1.491 . S
C3198 H3189 0.950 . S
C3198 C3197 1.398 . S
C3198 C3199 1.391 . S
C3199 H3187 0.950 . S
C3199 C3195 1.393 . S
C3199 C3198 1.391 . S
C3200 H3190 0.950 . S
C3200 C3201 1.386 . S
C3200 C3202 1.391 . S
C3201 C3200 1.386 . S
C3201 C3205 1.393 . S
C3202 H3191 0.950 . S
C3202 C3200 1.391 . S
C3202 C3203 1.400 . S
C3203 C3197 1.491 . S
C3203 C3202 1.400 . S
C3203 C3204 1.398 . S
C3204 H3192 0.950 . S
C3204 C3203 1.398 . S
C3204 C3205 1.391 . S
C3205 H3193 0.950 . S
C3205 C3201 1.393 . S
C3205 C3204 1.391 . S
H3206 C3214 0.950 . S
H3207 C3219 0.950 . S
H3208 C3216 0.950 . S
H3209 C3218 0.950 . S
H3210 C3220 0.950 . S
H3211 C3222 0.950 . S
H3212 C3224 0.950 . S
H3213 C3225 0.950 . S
C3214 H3206 0.950 . S
C3214 C3215 1.386 . S
C3214 C3216 1.391 . S
C3215 C3214 1.386 . S
C3215 C3219 1.393 . S
C3216 H3208 0.950 . S
C3216 C3214 1.391 . S
C3216 C3217 1.400 . S
C3217 C3216 1.400 . S
C3217 C3218 1.398 . S
C3217 C3223 1.491 . S
C3218 H3209 0.950 . S
C3218 C3217 1.398 . S
C3218 C3219 1.391 . S
C3219 H3207 0.950 . S
C3219 C3215 1.393 . S
C3219 C3218 1.391 . S
C3220 H3210 0.950 . S
C3220 C3221 1.386 . S
C3220 C3222 1.391 . S
C3221 C3220 1.386 . S
C3221 C3225 1.393 . S
C3222 H3211 0.950 . S
C3222 C3220 1.391 . S
C3222 C3223 1.400 . S
C3223 C3217 1.491 . S
C3223 C3222 1.400 . S
C3223 C3224 1.398 . S
C3224 H3212 0.950 . S
C3224 C3223 1.398 . S
C3224 C3225 1.391 . S
C3225 H3213 0.950 . S
C3225 C3221 1.393 . S
C3225 C3224 1.391 . S
H3226 C3234 0.950 . S
H3227 C3239 0.950 . S
H3228 C3236 0.950 . S
H3229 C3238 0.950 . S
H3230 C3240 0.950 . S
H3231 C3242 0.950 . S
H3232 C3244 0.950 . S
H3233 C3245 0.950 . S
C3234 H3226 0.950 . S
C3234 C3235 1.386 . S
C3234 C3236 1.391 . S
C3235 C3234 1.386 . S
C3235 C3239 1.393 . S
C3236 H3228 0.950 . S
C3236 C3234 1.391 . S
C3236 C3237 1.400 . S
C3237 C3236 1.400 . S
C3237 C3238 1.398 . S
C3237 C3243 1.491 . S
C3238 H3229 0.950 . S
C3238 C3237 1.398 . S
C3238 C3239 1.391 . S
C3239 H3227 0.950 . S
C3239 C3235 1.393 . S
C3239 C3238 1.391 . S
C3240 H3230 0.950 . S
C3240 C3241 1.386 . S
C3240 C3242 1.391 . S
C3241 C3240 1.386 . S
C3241 C3245 1.393 . S
C3242 H3231 0.950 . S
C3242 C3240 1.391 . S
C3242 C3243 1.400 . S
C3243 C3237 1.491 . S
C3243 C3242 1.400 . S
C3243 C3244 1.398 . S
C3244 H3232 0.950 . S
C3244 C3243 1.398 . S
C3244 C3245 1.391 . S
C3245 H3233 0.950 . S
C3245 C3241 1.393 . S
C3245 C3244 1.391 . S
H3246 C3254 0.950 . S
H3247 C3259 0.950 . S
H3248 C3256 0.950 . S
H3249 C3258 0.950 . S
H3250 C3260 0.950 . S
H3251 C3262 0.950 . S
H3252 C3264 0.950 . S
H3253 C3265 0.950 . S
C3254 H3246 0.950 . S
C3254 C3255 1.386 . S
C3254 C3256 1.391 . S
C3255 C3254 1.386 . S
C3255 C3259 1.393 . S
C3256 H3248 0.950 . S
C3256 C3254 1.391 . S
C3256 C3257 1.400 . S
C3257 C3256 1.400 . S
C3257 C3258 1.398 . S
C3257 C3263 1.491 . S
C3258 H3249 0.950 . S
C3258 C3257 1.398 . S
C3258 C3259 1.391 . S
C3259 H3247 0.950 . S
C3259 C3255 1.393 . S
C3259 C3258 1.391 . S
C3260 H3250 0.950 . S
C3260 C3261 1.386 . S
C3260 C3262 1.391 . S
C3261 C3260 1.386 . S
C3261 C3265 1.393 . S
C3262 H3251 0.950 . S
C3262 C3260 1.391 . S
C3262 C3263 1.400 . S
C3263 C3257 1.491 . S
C3263 C3262 1.400 . S
C3263 C3264 1.398 . S
C3264 H3252 0.950 . S
C3264 C3263 1.398 . S
C3264 C3265 1.391 . S
C3265 H3253 0.950 . S
C3265 C3261 1.393 . S
C3265 C3264 1.391 . S
H3266 C3274 0.950 . S
H3267 C3279 0.950 . S
H3268 C3276 0.950 . S
H3269 C3278 0.950 . S
H3270 C3280 0.950 . S
H3271 C3282 0.950 . S
H3272 C3284 0.950 . S
H3273 C3285 0.950 . S
C3274 H3266 0.950 . S
C3274 C3275 1.386 . S
C3274 C3276 1.391 . S
C3275 C3274 1.386 . S
C3275 C3279 1.393 . S
C3276 H3268 0.950 . S
C3276 C3274 1.391 . S
C3276 C3277 1.400 . S
C3277 C3276 1.400 . S
C3277 C3278 1.398 . S
C3277 C3283 1.491 . S
C3278 H3269 0.950 . S
C3278 C3277 1.398 . S
C3278 C3279 1.391 . S
C3279 H3267 0.950 . S
C3279 C3275 1.393 . S
C3279 C3278 1.391 . S
C3280 H3270 0.950 . S
C3280 C3281 1.386 . S
C3280 C3282 1.391 . S
C3281 C3280 1.386 . S
C3281 C3285 1.393 . S
C3282 H3271 0.950 . S
C3282 C3280 1.391 . S
C3282 C3283 1.400 . S
C3283 C3277 1.491 . S
C3283 C3282 1.400 . S
C3283 C3284 1.398 . S
C3284 H3272 0.950 . S
C3284 C3283 1.398 . S
C3284 C3285 1.391 . S
C3285 H3273 0.950 . S
C3285 C3281 1.393 . S
C3285 C3284 1.391 . S
H3286 C3294 0.950 . S
H3287 C3299 0.950 . S
H3288 C3296 0.950 . S
H3289 C3298 0.950 . S
H3290 C3300 0.950 . S
H3291 C3302 0.950 . S
H3292 C3304 0.950 . S
H3293 C3305 0.950 . S
C3294 H3286 0.950 . S
C3294 C3295 1.386 . S
C3294 C3296 1.391 . S
C3295 C3294 1.386 . S
C3295 C3299 1.393 . S
C3296 H3288 0.950 . S
C3296 C3294 1.391 . S
C3296 C3297 1.400 . S
C3297 C3296 1.400 . S
C3297 C3298 1.398 . S
C3297 C3303 1.491 . S
C3298 H3289 0.950 . S
C3298 C3297 1.398 . S
C3298 C3299 1.391 . S
C3299 H3287 0.950 . S
C3299 C3295 1.393 . S
C3299 C3298 1.391 . S
C3300 H3290 0.950 . S
C3300 C3301 1.386 . S
C3300 C3302 1.391 . S
C3301 C3300 1.386 . S
C3301 C3305 1.393 . S
C3302 H3291 0.950 . S
C3302 C3300 1.391 . S
C3302 C3303 1.400 . S
C3303 C3297 1.491 . S
C3303 C3302 1.400 . S
C3303 C3304 1.398 . S
C3304 H3292 0.950 . S
C3304 C3303 1.398 . S
C3304 C3305 1.391 . S
C3305 H3293 0.950 . S
C3305 C3301 1.393 . S
C3305 C3304 1.391 . S
H3306 C3314 0.950 . S
H3307 C3319 0.950 . S
H3308 C3316 0.919 1_655 S
H3309 C3318 0.950 . S
H3310 C3320 0.950 . S
H3311 C3322 0.950 . S
H3312 C3324 0.950 1_655 S
H3313 C3325 0.905 1_655 S
C3314 H3306 0.950 . S
C3314 C3315 1.386 . S
C3314 C3316 1.391 . S
C3315 C3314 1.386 . S
C3315 C3319 1.393 . S
C3316 H3308 0.919 1_455 S
C3316 C3314 1.391 . S
C3316 C3317 1.400 . S
C3317 C3316 1.400 . S
C3317 C3318 1.398 . S
C3317 C3323 1.491 . S
C3318 H3309 0.950 . S
C3318 C3317 1.398 . S
C3318 C3319 1.391 . S
C3319 H3307 0.950 . S
C3319 C3315 1.393 . S
C3319 C3318 1.391 . S
C3320 H3310 0.950 . S
C3320 C3321 1.386 . S
C3320 C3322 1.391 . S
C3321 C3320 1.386 . S
C3321 C3325 1.399 . S
C3322 H3311 0.950 . S
C3322 C3320 1.391 . S
C3322 C3323 1.400 . S
C3323 C3317 1.491 . S
C3323 C3322 1.400 . S
C3323 C3324 1.398 . S
C3324 H3312 0.950 1_455 S
C3324 C3323 1.398 . S
C3324 C3325 1.434 . S
C3325 H3313 0.905 1_455 S
C3325 C3321 1.399 . S
C3325 C3324 1.434 . S
H3326 C3334 0.950 . S
H3327 C3339 0.950 . S
H3328 C3336 0.950 . S
H3329 C3338 0.950 . S
H3330 C3340 0.950 . S
H3331 C3342 0.950 . S
H3332 C3344 0.950 . S
H3333 C3345 0.950 . S
C3334 H3326 0.950 . S
C3334 C3335 1.386 . S
C3334 C3336 1.391 . S
C3335 C3334 1.386 . S
C3335 C3339 1.393 . S
C3336 H3328 0.950 . S
C3336 C3334 1.391 . S
C3336 C3337 1.400 . S
C3337 C3336 1.400 . S
C3337 C3338 1.398 . S
C3337 C3343 1.491 . S
C3338 H3329 0.950 . S
C3338 C3337 1.398 . S
C3338 C3339 1.391 . S
C3339 H3327 0.950 . S
C3339 C3335 1.393 . S
C3339 C3338 1.391 . S
C3340 H3330 0.950 . S
C3340 C3341 1.386 . S
C3340 C3342 1.391 . S
C3341 C3340 1.386 . S
C3341 C3345 1.393 . S
C3342 H3331 0.950 . S
C3342 C3340 1.391 . S
C3342 C3343 1.400 . S
C3343 C3337 1.491 . S
C3343 C3342 1.400 . S
C3343 C3344 1.398 . S
C3344 H3332 0.950 . S
C3344 C3343 1.398 . S
C3344 C3345 1.391 . S
C3345 H3333 0.950 . S
C3345 C3341 1.393 . S
C3345 C3344 1.391 . S
H3346 C3354 0.950 . S
H3347 C3359 0.950 . S
H3348 C3356 0.950 . S
H3349 C3358 0.950 . S
H3350 C3360 0.950 . S
H3351 C3362 0.950 . S
H3352 C3364 0.950 . S
H3353 C3365 0.950 . S
C3354 H3346 0.950 . S
C3354 C3355 1.386 . S
C3354 C3356 1.391 . S
C3355 C3354 1.386 . S
C3355 C3359 1.393 1_565 S
C3356 H3348 0.950 . S
C3356 C3354 1.391 . S
C3356 C3357 1.400 . S
C3357 C3356 1.400 . S
C3357 C3358 1.398 1_565 S
C3357 C3363 1.491 . S
C3358 H3349 0.950 . S
C3358 C3357 1.398 1_545 S
C3358 C3359 1.391 . S
C3359 H3347 0.950 . S
C3359 C3355 1.393 1_545 S
C3359 C3358 1.391 . S
C3360 H3350 0.950 . S
C3360 C3361 1.386 1_545 S
C3360 C3362 1.391 . S
C3361 C3360 1.386 1_565 S
C3361 C3365 1.393 . S
C3362 H3351 0.950 . S
C3362 C3360 1.391 . S
C3362 C3363 1.400 1_545 S
C3363 C3357 1.491 . S
C3363 C3362 1.400 1_565 S
C3363 C3364 1.398 . S
C3364 H3352 0.950 . S
C3364 C3363 1.398 . S
C3364 C3365 1.391 . S
C3365 H3353 0.950 . S
C3365 C3361 1.393 . S
C3365 C3364 1.391 . S
H3366 C3374 0.950 . S
H3367 C3379 0.950 1_545 S
H3368 C3376 0.950 . S
H3369 C3378 0.950 1_545 S
H3370 C3380 0.950 . S
H3371 C3382 0.950 . S
H3372 C3384 0.950 . S
H3373 C3385 0.950 . S
C3374 H3366 0.950 . S
C3374 C3375 1.386 . S
C3374 C3376 1.391 . S
C3375 C3374 1.386 . S
C3375 C3379 1.393 . S
C3376 H3368 0.950 . S
C3376 C3374 1.391 . S
C3376 C3377 1.400 . S
C3377 C3376 1.400 . S
C3377 C3378 1.398 . S
C3377 C3383 1.491 . S
C3378 H3369 0.950 1_565 S
C3378 C3377 1.398 . S
C3378 C3379 1.391 . S
C3379 H3367 0.950 1_565 S
C3379 C3375 1.393 . S
C3379 C3378 1.391 . S
C3380 H3370 0.950 . S
C3380 C3381 1.386 1_545 S
C3380 C3382 1.391 . S
C3381 C3380 1.386 1_565 S
C3381 C3385 1.393 . S
C3382 H3371 0.950 . S
C3382 C3380 1.391 . S
C3382 C3383 1.400 1_545 S
C3383 C3377 1.491 . S
C3383 C3382 1.400 1_565 S
C3383 C3384 1.398 . S
C3384 H3372 0.950 . S
C3384 C3383 1.398 . S
C3384 C3385 1.391 . S
C3385 H3373 0.950 . S
C3385 C3381 1.393 . S
C3385 C3384 1.391 . S
H3386 C3394 0.950 . S
H3387 C3399 0.950 . S
H3388 C3396 0.950 . S
H3389 C3398 0.950 1_655 S
H3390 C3400 0.950 . S
H3391 C3402 0.950 . S
H3392 C3404 0.950 . S
H3393 C3405 0.950 . S
C3394 H3386 0.950 . S
C3394 C3395 1.386 . S
C3394 C3396 1.391 . S
C3395 C3394 1.386 . S
C3395 C3399 1.393 . S
C3396 H3388 0.950 . S
C3396 C3394 1.391 . S
C3396 C3397 1.400 . S
C3397 C3396 1.400 . S
C3397 C3398 1.398 . S
C3397 C3403 1.491 . S
C3398 H3389 0.950 1_455 S
C3398 C3397 1.398 . S
C3398 C3399 1.391 . S
C3399 H3387 0.950 . S
C3399 C3395 1.393 . S
C3399 C3398 1.391 . S
C3400 H3390 0.950 . S
C3400 C3401 1.386 . S
C3400 C3402 1.391 . S
C3401 C3400 1.386 . S
C3401 C3405 1.393 1_655 S
C3402 H3391 0.950 . S
C3402 C3400 1.391 . S
C3402 C3403 1.400 1_655 S
C3403 C3397 1.491 . S
C3403 C3402 1.400 1_455 S
C3403 C3404 1.398 . S
C3404 H3392 0.950 . S
C3404 C3403 1.398 . S
C3404 C3405 1.391 . S
C3405 H3393 0.950 . S
C3405 C3401 1.393 1_455 S
C3405 C3404 1.391 . S
H3406 C3414 0.950 . S
H3407 C3419 0.950 . S
H3408 C3416 0.950 . S
H3409 C3418 0.950 . S
H3410 C3420 0.950 . S
H3411 C3422 0.950 . S
H3412 C3424 0.950 . S
H3413 C3425 0.950 . S
C3414 H3406 0.950 . S
C3414 C3415 1.386 . S
C3414 C3416 1.391 . S
C3415 C3414 1.386 . S
C3415 C3419 1.393 . S
C3416 H3408 0.950 . S
C3416 C3414 1.391 . S
C3416 C3417 1.400 . S
C3417 C3416 1.400 . S
C3417 C3418 1.398 . S
C3417 C3423 1.491 . S
C3418 H3409 0.950 . S
C3418 C3417 1.398 . S
C3418 C3419 1.391 . S
C3419 H3407 0.950 . S
C3419 C3415 1.393 . S
C3419 C3418 1.391 . S
C3420 H3410 0.950 . S
C3420 C3421 1.386 . S
C3420 C3422 1.391 . S
C3421 C3420 1.386 . S
C3421 C3425 1.393 . S
C3422 H3411 0.950 . S
C3422 C3420 1.391 . S
C3422 C3423 1.400 . S
C3423 C3417 1.491 . S
C3423 C3422 1.400 . S
C3423 C3424 1.398 . S
C3424 H3412 0.950 . S
C3424 C3423 1.398 . S
C3424 C3425 1.391 . S
C3425 H3413 0.950 . S
C3425 C3421 1.393 . S
C3425 C3424 1.391 . S
H3426 C3434 0.950 . S
H3427 C3439 0.950 . S
H3428 C3436 0.950 . S
H3429 C3438 0.950 . S
H3430 C3440 0.950 . S
H3431 C3442 0.950 . S
H3432 C3444 0.950 . S
H3433 C3445 0.950 . S
C3434 H3426 0.950 . S
C3434 C3435 1.386 . S
C3434 C3436 1.391 . S
C3435 C3434 1.386 . S
C3435 C3439 1.393 . S
C3436 H3428 0.950 . S
C3436 C3434 1.391 . S
C3436 C3437 1.400 . S
C3437 C3436 1.400 . S
C3437 C3438 1.398 . S
C3437 C3443 1.491 . S
C3438 H3429 0.950 . S
C3438 C3437 1.398 . S
C3438 C3439 1.391 . S
C3439 H3427 0.950 . S
C3439 C3435 1.393 . S
C3439 C3438 1.391 . S
C3440 H3430 0.950 . S
C3440 C3441 1.386 . S
C3440 C3442 1.391 . S
C3441 C3440 1.386 . S
C3441 C3445 1.393 . S
C3442 H3431 0.950 . S
C3442 C3440 1.391 . S
C3442 C3443 1.400 . S
C3443 C3437 1.491 . S
C3443 C3442 1.400 . S
C3443 C3444 1.398 . S
C3444 H3432 0.950 . S
C3444 C3443 1.398 . S
C3444 C3445 1.391 . S
C3445 H3433 0.950 . S
C3445 C3441 1.393 . S
C3445 C3444 1.391 . S
H3446 C3454 0.950 . S
H3447 C3459 0.950 . S
H3448 C3456 0.950 . S
H3449 C3458 0.950 . S
H3450 C3460 0.950 . S
H3451 C3462 0.950 . S
H3452 C3464 0.950 . S
H3453 C3465 0.950 . S
C3454 H3446 0.950 . S
C3454 C3455 1.386 . S
C3454 C3456 1.391 . S
C3455 C3454 1.386 . S
C3455 C3459 1.393 . S
C3456 H3448 0.950 . S
C3456 C3454 1.391 . S
C3456 C3457 1.400 . S
C3457 C3456 1.400 . S
C3457 C3458 1.398 . S
C3457 C3463 1.491 . S
C3458 H3449 0.950 . S
C3458 C3457 1.398 . S
C3458 C3459 1.391 . S
C3459 H3447 0.950 . S
C3459 C3455 1.393 . S
C3459 C3458 1.391 . S
C3460 H3450 0.950 . S
C3460 C3461 1.386 . S
C3460 C3462 1.391 . S
C3461 C3460 1.386 . S
C3461 C3465 1.393 . S
C3462 H3451 0.950 . S
C3462 C3460 1.391 . S
C3462 C3463 1.400 . S
C3463 C3457 1.491 . S
C3463 C3462 1.400 . S
C3463 C3464 1.398 . S
C3464 H3452 0.950 . S
C3464 C3463 1.398 . S
C3464 C3465 1.391 . S
C3465 H3453 0.950 . S
C3465 C3461 1.393 . S
C3465 C3464 1.391 . S
H3466 C3474 0.950 . S
H3467 C3479 0.950 . S
H3468 C3476 0.950 . S
H3469 C3478 0.950 . S
H3470 C3480 0.950 . S
H3471 C3482 0.950 . S
H3472 C3484 0.950 . S
H3473 C3485 0.950 . S
C3474 H3466 0.950 . S
C3474 C3475 1.386 . S
C3474 C3476 1.391 . S
C3475 C3474 1.386 . S
C3475 C3479 1.393 . S
C3476 H3468 0.950 . S
C3476 C3474 1.391 . S
C3476 C3477 1.400 . S
C3477 C3476 1.400 . S
C3477 C3478 1.398 . S
C3477 C3483 1.491 . S
C3478 H3469 0.950 . S
C3478 C3477 1.398 . S
C3478 C3479 1.391 . S
C3479 H3467 0.950 . S
C3479 C3475 1.393 . S
C3479 C3478 1.391 . S
C3480 H3470 0.950 . S
C3480 C3481 1.386 . S
C3480 C3482 1.391 . S
C3481 C3480 1.386 . S
C3481 C3485 1.393 . S
C3482 H3471 0.950 . S
C3482 C3480 1.391 . S
C3482 C3483 1.400 . S
C3483 C3477 1.491 . S
C3483 C3482 1.400 . S
C3483 C3484 1.398 . S
C3484 H3472 0.950 . S
C3484 C3483 1.398 . S
C3484 C3485 1.391 . S
C3485 H3473 0.950 . S
C3485 C3481 1.393 . S
C3485 C3484 1.391 . S
H3486 C3494 0.949 1_565 S
H3487 C3499 0.950 . S
H3488 C3496 0.950 1_565 S
H3489 C3498 0.950 . S
H3490 C3500 0.950 . S
H3491 C3502 0.950 . S
H3492 C3504 0.950 1_565 S
H3493 C3505 0.966 . S
C3494 H3486 0.949 1_545 S
C3494 C3495 1.386 . S
C3494 C3496 1.391 . S
C3495 C3494 1.386 . S
C3495 C3499 1.393 . S
C3496 H3488 0.950 1_545 S
C3496 C3494 1.391 . S
C3496 C3497 1.400 . S
C3497 C3496 1.400 . S
C3497 C3498 1.398 . S
C3497 C3503 1.491 . S
C3498 H3489 0.950 . S
C3498 C3497 1.398 . S
C3498 C3499 1.391 . S
C3499 H3487 0.950 . S
C3499 C3495 1.393 . S
C3499 C3498 1.391 . S
C3500 H3490 0.950 . S
C3500 C3501 1.386 . S
C3500 C3502 1.391 . S
C3501 C3500 1.386 . S
C3501 C3505 1.392 1_545 S
C3502 H3491 0.950 . S
C3502 C3500 1.391 . S
C3502 C3503 1.400 . S
C3503 C3497 1.491 . S
C3503 C3502 1.400 . S
C3503 C3504 1.398 . S
C3504 H3492 0.950 1_545 S
C3504 C3503 1.398 . S
C3504 C3505 1.376 1_545 S
C3505 H3493 0.966 . S
C3505 C3501 1.392 1_565 S
C3505 C3504 1.376 1_565 S
H3506 C3514 0.950 . S
H3507 C3519 0.950 . S
H3508 C3516 0.950 . S
H3509 C3518 0.950 . S
H3510 C3520 0.950 . S
H3511 C3522 0.950 . S
H3512 C3524 0.950 . S
H3513 C3525 0.950 . S
C3514 H3506 0.950 . S
C3514 C3515 1.386 1_455 S
C3514 C3516 1.391 . S
C3515 C3514 1.386 1_655 S
C3515 C3519 1.393 . S
C3516 H3508 0.950 . S
C3516 C3514 1.391 . S
C3516 C3517 1.400 1_455 S
C3517 C3516 1.400 1_655 S
C3517 C3518 1.398 . S
C3517 C3523 1.491 . S
C3518 H3509 0.950 . S
C3518 C3517 1.398 . S
C3518 C3519 1.391 . S
C3519 H3507 0.950 . S
C3519 C3515 1.393 . S
C3519 C3518 1.391 . S
C3520 H3510 0.950 . S
C3520 C3521 1.386 . S
C3520 C3522 1.391 . S
C3521 C3520 1.386 . S
C3521 C3525 1.393 1_655 S
C3522 H3511 0.950 . S
C3522 C3520 1.391 . S
C3522 C3523 1.400 . S
C3523 C3517 1.491 . S
C3523 C3522 1.400 . S
C3523 C3524 1.398 1_655 S
C3524 H3512 0.950 . S
C3524 C3523 1.398 1_455 S
C3524 C3525 1.391 . S
C3525 H3513 0.950 . S
C3525 C3521 1.393 1_455 S
C3525 C3524 1.391 . S
H3526 C3534 0.950 . S
H3527 C3539 0.950 . S
H3528 C3536 0.950 . S
H3529 C3538 0.950 . S
H3530 C3540 0.950 . S
H3531 C3542 0.950 . S
H3532 C3544 0.950 . S
H3533 C3545 0.950 . S
C3534 H3526 0.950 . S
C3534 C3535 1.386 . S
C3534 C3536 1.391 . S
C3535 C3534 1.386 . S
C3535 C3539 1.393 . S
C3536 H3528 0.950 . S
C3536 C3534 1.391 . S
C3536 C3537 1.400 . S
C3537 C3536 1.400 . S
C3537 C3538 1.398 . S
C3537 C3543 1.491 . S
C3538 H3529 0.950 . S
C3538 C3537 1.398 . S
C3538 C3539 1.391 . S
C3539 H3527 0.950 . S
C3539 C3535 1.393 . S
C3539 C3538 1.391 . S
C3540 H3530 0.950 . S
C3540 C3541 1.386 . S
C3540 C3542 1.391 . S
C3541 C3540 1.386 . S
C3541 C3545 1.393 . S
C3542 H3531 0.950 . S
C3542 C3540 1.391 . S
C3542 C3543 1.400 . S
C3543 C3537 1.491 . S
C3543 C3542 1.400 . S
C3543 C3544 1.398 . S
C3544 H3532 0.950 . S
C3544 C3543 1.398 . S
C3544 C3545 1.391 . S
C3545 H3533 0.950 . S
C3545 C3541 1.393 . S
C3545 C3544 1.391 . S
H3546 C3554 0.950 . S
H3547 C3559 0.950 . S
H3548 C3556 0.950 . S
H3549 C3558 0.950 . S
H3550 C3560 0.950 . S
H3551 C3562 0.950 . S
H3552 C3564 0.950 . S
H3553 C3565 0.950 . S
C3554 H3546 0.950 . S
C3554 C3555 1.386 . S
C3554 C3556 1.391 . S
C3555 C3554 1.386 . S
C3555 C3559 1.393 . S
C3556 H3548 0.950 . S
C3556 C3554 1.391 . S
C3556 C3557 1.400 . S
C3557 C3556 1.400 . S
C3557 C3558 1.398 . S
C3557 C3563 1.491 . S
C3558 H3549 0.950 . S
C3558 C3557 1.398 . S
C3558 C3559 1.391 . S
C3559 H3547 0.950 . S
C3559 C3555 1.393 . S
C3559 C3558 1.391 . S
C3560 H3550 0.950 . S
C3560 C3561 1.386 . S
C3560 C3562 1.391 . S
C3561 C3560 1.386 . S
C3561 C3565 1.393 . S
C3562 H3551 0.950 . S
C3562 C3560 1.391 . S
C3562 C3563 1.400 . S
C3563 C3557 1.491 . S
C3563 C3562 1.400 . S
C3563 C3564 1.398 . S
C3564 H3552 0.950 . S
C3564 C3563 1.398 . S
C3564 C3565 1.391 . S
C3565 H3553 0.950 . S
C3565 C3561 1.393 . S
C3565 C3564 1.391 . S
H3566 C3574 0.950 . S
H3567 C3579 0.950 . S
H3568 C3576 0.950 . S
H3569 C3578 0.950 . S
H3570 C3580 0.950 . S
H3571 C3582 0.950 . S
H3572 C3584 0.950 . S
H3573 C3585 0.950 . S
C3574 H3566 0.950 . S
C3574 C3575 1.386 . S
C3574 C3576 1.391 . S
C3575 C3574 1.386 . S
C3575 C3579 1.393 . S
C3576 H3568 0.950 . S
C3576 C3574 1.391 . S
C3576 C3577 1.400 . S
C3577 C3576 1.400 . S
C3577 C3578 1.398 . S
C3577 C3583 1.491 . S
C3578 H3569 0.950 . S
C3578 C3577 1.398 . S
C3578 C3579 1.391 . S
C3579 H3567 0.950 . S
C3579 C3575 1.393 . S
C3579 C3578 1.391 . S
C3580 H3570 0.950 . S
C3580 C3581 1.386 . S
C3580 C3582 1.391 . S
C3581 C3580 1.386 . S
C3581 C3585 1.393 . S
C3582 H3571 0.950 . S
C3582 C3580 1.391 . S
C3582 C3583 1.400 . S
C3583 C3577 1.491 . S
C3583 C3582 1.400 . S
C3583 C3584 1.398 . S
C3584 H3572 0.950 . S
C3584 C3583 1.398 . S
C3584 C3585 1.391 . S
C3585 H3573 0.950 . S
C3585 C3581 1.393 . S
C3585 C3584 1.391 . S
H3586 C3594 0.950 . S
H3587 C3599 0.950 . S
H3588 C3596 0.950 . S
H3589 C3598 0.950 . S
H3590 C3600 0.950 . S
H3591 C3602 0.950 . S
H3592 C3604 0.950 . S
H3593 C3605 0.950 . S
C3594 H3586 0.950 . S
C3594 C3595 1.386 . S
C3594 C3596 1.391 . S
C3595 C3594 1.386 . S
C3595 C3599 1.393 . S
C3596 H3588 0.950 . S
C3596 C3594 1.391 . S
C3596 C3597 1.400 . S
C3597 C3596 1.400 . S
C3597 C3598 1.398 . S
C3597 C3603 1.491 . S
C3598 H3589 0.950 . S
C3598 C3597 1.398 . S
C3598 C3599 1.391 . S
C3599 H3587 0.950 . S
C3599 C3595 1.393 . S
C3599 C3598 1.391 . S
C3600 H3590 0.950 . S
C3600 C3601 1.386 . S
C3600 C3602 1.391 . S
C3601 C3600 1.386 . S
C3601 C3605 1.393 . S
C3602 H3591 0.950 . S
C3602 C3600 1.391 . S
C3602 C3603 1.400 . S
C3603 C3597 1.491 . S
C3603 C3602 1.400 . S
C3603 C3604 1.398 . S
C3604 H3592 0.950 . S
C3604 C3603 1.398 . S
C3604 C3605 1.391 . S
C3605 H3593 0.950 . S
C3605 C3601 1.393 . S
C3605 C3604 1.391 . S
H3606 C3614 0.950 . S
H3607 C3619 0.950 . S
H3608 C3616 0.950 . S
H3609 C3618 0.950 . S
H3610 C3620 0.950 . S
H3611 C3622 0.950 . S
H3612 C3624 0.950 . S
H3613 C3625 0.950 . S
C3614 H3606 0.950 . S
C3614 C3615 1.386 . S
C3614 C3616 1.391 . S
C3615 C3614 1.386 . S
C3615 C3619 1.393 . S
C3616 H3608 0.950 . S
C3616 C3614 1.391 . S
C3616 C3617 1.400 . S
C3617 C3616 1.400 . S
C3617 C3618 1.398 . S
C3617 C3623 1.491 . S
C3618 H3609 0.950 . S
C3618 C3617 1.398 . S
C3618 C3619 1.391 . S
C3619 H3607 0.950 . S
C3619 C3615 1.393 . S
C3619 C3618 1.391 . S
C3620 H3610 0.950 . S
C3620 C3621 1.386 . S
C3620 C3622 1.391 . S
C3621 C3620 1.386 . S
C3621 C3625 1.393 . S
C3622 H3611 0.950 . S
C3622 C3620 1.391 . S
C3622 C3623 1.400 . S
C3623 C3617 1.491 . S
C3623 C3622 1.400 . S
C3623 C3624 1.398 . S
C3624 H3612 0.950 . S
C3624 C3623 1.398 . S
C3624 C3625 1.391 . S
C3625 H3613 0.950 . S
C3625 C3621 1.393 . S
C3625 C3624 1.391 . S
H3626 C3634 0.950 . S
H3627 C3639 0.950 . S
H3628 C3636 0.950 . S
H3629 C3638 0.950 . S
H3630 C3640 0.950 . S
H3631 C3642 0.950 . S
H3632 C3644 0.950 . S
H3633 C3645 0.950 . S
C3634 H3626 0.950 . S
C3634 C3635 1.386 . S
C3634 C3636 1.391 . S
C3635 C3634 1.386 . S
C3635 C3639 1.393 . S
C3636 H3628 0.950 . S
C3636 C3634 1.391 . S
C3636 C3637 1.400 . S
C3637 C3636 1.400 . S
C3637 C3638 1.398 . S
C3637 C3643 1.491 . S
C3638 H3629 0.950 . S
C3638 C3637 1.398 . S
C3638 C3639 1.391 . S
C3639 H3627 0.950 . S
C3639 C3635 1.393 . S
C3639 C3638 1.391 . S
C3640 H3630 0.950 . S
C3640 C3641 1.386 . S
C3640 C3642 1.391 . S
C3641 C3640 1.386 . S
C3641 C3645 1.393 . S
C3642 H3631 0.950 . S
C3642 C3640 1.391 . S
C3642 C3643 1.400 . S
C3643 C3637 1.491 . S
C3643 C3642 1.400 . S
C3643 C3644 1.398 . S
C3644 H3632 0.950 . S
C3644 C3643 1.398 . S
C3644 C3645 1.391 . S
C3645 H3633 0.950 . S
C3645 C3641 1.393 . S
C3645 C3644 1.391 . S
H3646 C3654 0.950 . S
H3647 C3659 0.950 . S
H3648 C3656 0.950 . S
H3649 C3658 0.950 . S
H3650 C3660 0.950 . S
H3651 C3662 0.950 . S
H3652 C3664 0.950 . S
H3653 C3665 0.950 . S
C3654 H3646 0.950 . S
C3654 C3655 1.386 . S
C3654 C3656 1.391 . S
C3655 C3654 1.386 . S
C3655 C3659 1.393 . S
C3656 H3648 0.950 . S
C3656 C3654 1.391 . S
C3656 C3657 1.400 . S
C3657 C3656 1.400 . S
C3657 C3658 1.398 . S
C3657 C3663 1.491 . S
C3658 H3649 0.950 . S
C3658 C3657 1.398 . S
C3658 C3659 1.391 . S
C3659 H3647 0.950 . S
C3659 C3655 1.393 . S
C3659 C3658 1.391 . S
C3660 H3650 0.950 . S
C3660 C3661 1.386 . S
C3660 C3662 1.391 . S
C3661 C3660 1.386 . S
C3661 C3665 1.393 . S
C3662 H3651 0.950 . S
C3662 C3660 1.391 . S
C3662 C3663 1.400 . S
C3663 C3657 1.491 . S
C3663 C3662 1.400 . S
C3663 C3664 1.398 . S
C3664 H3652 0.950 . S
C3664 C3663 1.398 . S
C3664 C3665 1.391 . S
C3665 H3653 0.950 . S
C3665 C3661 1.393 . S
C3665 C3664 1.391 . S
H3666 C3674 0.950 . S
H3667 C3679 0.950 . S
H3668 C3676 0.950 . S
H3669 C3678 0.942 1_455 S
H3670 C3680 0.950 . S
H3671 C3682 0.951 . S
H3672 C3684 0.950 . S
H3673 C3685 0.950 . S
C3674 H3666 0.950 . S
C3674 C3675 1.386 . S
C3674 C3676 1.391 . S
C3675 C3674 1.386 . S
C3675 C3679 1.393 . S
C3676 H3668 0.950 . S
C3676 C3674 1.391 . S
C3676 C3677 1.400 . S
C3677 C3676 1.400 . S
C3677 C3678 1.398 . S
C3677 C3683 1.491 . S
C3678 H3669 0.942 1_655 S
C3678 C3677 1.398 . S
C3678 C3679 1.391 . S
C3679 H3667 0.950 . S
C3679 C3675 1.393 . S
C3679 C3678 1.391 . S
C3680 H3670 0.950 . S
C3680 C3681 1.386 1_455 S
C3680 C3682 1.393 . S
C3681 C3680 1.386 1_655 S
C3681 C3685 1.393 . S
C3682 H3671 0.951 . S
C3682 C3680 1.393 . S
C3682 C3683 1.397 1_455 S
C3683 C3677 1.491 . S
C3683 C3682 1.397 1_655 S
C3683 C3684 1.398 . S
C3684 H3672 0.950 . S
C3684 C3683 1.398 . S
C3684 C3685 1.391 . S
C3685 H3673 0.950 . S
C3685 C3681 1.393 . S
C3685 C3684 1.391 . S
H3686 C3694 0.950 . S
H3687 C3699 0.950 . S
H3688 C3696 0.950 . S
H3689 C3698 0.950 . S
H3690 C3700 0.950 . S
H3691 C3702 0.950 . S
H3692 C3704 0.950 . S
H3693 C3705 0.950 . S
C3694 H3686 0.950 . S
C3694 C3695 1.386 . S
C3694 C3696 1.391 . S
C3695 C3694 1.386 . S
C3695 C3699 1.393 . S
C3696 H3688 0.950 . S
C3696 C3694 1.391 . S
C3696 C3697 1.400 . S
C3697 C3696 1.400 . S
C3697 C3698 1.398 . S
C3697 C3703 1.491 . S
C3698 H3689 0.950 . S
C3698 C3697 1.398 . S
C3698 C3699 1.391 . S
C3699 H3687 0.950 . S
C3699 C3695 1.393 . S
C3699 C3698 1.391 . S
C3700 H3690 0.950 . S
C3700 C3701 1.386 . S
C3700 C3702 1.391 . S
C3701 C3700 1.386 . S
C3701 C3705 1.393 . S
C3702 H3691 0.950 . S
C3702 C3700 1.391 . S
C3702 C3703 1.400 . S
C3703 C3697 1.491 . S
C3703 C3702 1.400 . S
C3703 C3704 1.398 . S
C3704 H3692 0.950 . S
C3704 C3703 1.398 . S
C3704 C3705 1.391 . S
C3705 H3693 0.950 . S
C3705 C3701 1.393 . S
C3705 C3704 1.391 . S
H3706 C3714 0.950 . S
H3707 C3719 0.950 . S
H3708 C3716 0.950 1_565 S
H3709 C3718 0.950 . S
H3710 C3720 0.950 . S
H3711 C3722 0.950 . S
H3712 C3724 0.950 . S
H3713 C3725 0.950 . S
C3714 H3706 0.950 . S
C3714 C3715 1.386 . S
C3714 C3716 1.391 . S
C3715 C3714 1.386 . S
C3715 C3719 1.393 . S
C3716 H3708 0.950 1_545 S
C3716 C3714 1.391 . S
C3716 C3717 1.400 . S
C3717 C3716 1.400 . S
C3717 C3718 1.398 . S
C3717 C3723 1.491 . S
C3718 H3709 0.950 . S
C3718 C3717 1.398 . S
C3718 C3719 1.391 . S
C3719 H3707 0.950 . S
C3719 C3715 1.393 . S
C3719 C3718 1.391 . S
C3720 H3710 0.950 . S
C3720 C3721 1.386 . S
C3720 C3722 1.391 . S
C3721 C3720 1.386 . S
C3721 C3725 1.393 1_545 S
C3722 H3711 0.950 . S
C3722 C3720 1.391 . S
C3722 C3723 1.400 . S
C3723 C3717 1.491 . S
C3723 C3722 1.400 . S
C3723 C3724 1.398 1_545 S
C3724 H3712 0.950 . S
C3724 C3723 1.398 1_565 S
C3724 C3725 1.391 . S
C3725 H3713 0.950 . S
C3725 C3721 1.393 1_565 S
C3725 C3724 1.391 . S
C2295 C8 1.211 . S
C2301 C1289 1.045 1_655 S
C2315 C18 1.555 . S
C2321 C1429 1.058 . S
C2341 C1517 1.135 . S
C2335 C31 1.273 . S
C2355 C34 1.362 1_565 S
C2361 C1657 1.020 1_565 S
C2375 C5 1.329 . S
C2381 C1771 1.016 . S
C2395 C21 1.605 . S
C2401 C1859 1.226 . S
C2415 C47 1.218 . S
C2421 C1745 1.027 . S
C2441 C1885 1.241 . S
C2435 C57 1.466 . S
C2461 C1631 1.150 . S
C2455 C70 1.332 . S
C2475 C73 1.308 . S
C2481 C1543 1.009 . S
C2501 C1315 1.082 . S
C2495 C44 1.345 . S
C2515 C60 1.515 . S
C2521 C1403 1.378 . S
C2535 C86 1.675 . S
C2541 C1973 1.231 . S
C2555 C96 1.656 . S
C2561 C2113 1.132 . S
C2581 C2201 1.227 . S
C2575 C109 1.715 . S
C2595 C112 1.793 . S
C2601 C289 1.187 . S
C2615 C83 1.779 . S
C2621 C403 1.130 . S
C2635 C99 1.717 . S
C2641 C491 1.286 . S
C2655 C125 1.416 . S
C2661 C377 1.297 . S
C2675 C135 1.579 . S
C2681 C517 1.360 . S
C2701 C263 1.478 . S
C2695 C148 1.634 . S
C2721 C2227 1.617 . S
C2715 C151 1.819 . S
C2741 C1999 1.413 . S
C2735 C122 1.625 . S
C2761 C2087 1.510 . S
C2755 C138 1.639 . S
C2775 C164 1.533 . S
C2781 C605 1.110 . S
C2795 C174 1.668 . S
C2801 C745 1.068 . S
C2815 C187 1.719 . S
C2821 C833 1.289 . S
C2835 C190 1.925 . S
C2841 C973 1.254 . S
C2861 C1087 1.146 . S
C2855 C161 1.754 . S
C2881 C1175 1.361 . S
C2875 C177 1.760 . S
C2901 C1061 1.477 . S
C2895 C203 1.593 . S
C2921 C1201 1.348 . S
C2915 C213 1.584 . S
C2935 C226 1.590 . S
C2941 C947 1.424 . S
C2961 C859 1.452 . S
C2955 C229 1.665 . S
C2975 C200 1.674 . S
C2981 C631 1.456 . S
C3001 C719 1.504 . S
C2995 C216 1.626 . S
C3021 C245 0.892 . S
C3015 C0 1.643 . S
C3035 C23 1.575 . S
C3041 C359 0.828 . S
C3061 C463 1.246 . S
C3055 C36 1.703 . S
C3081 C577 1.150 . S
C3075 C26 1.510 . S
C3101 C701 0.931 . S
C3095 C10 1.733 . S
C3121 C805 1.182 . S
C3115 C13 1.534 1_556 S
C3135 C39 1.752 . S
C3141 C815 1.460 . S
C3155 C62 1.674 . S
C3161 C587 1.267 . S
C3175 C75 1.774 1_556 S
C3181 C691 1.589 . S
C3195 C65 1.669 . S
C3201 C349 1.602 . S
C3221 C473 1.434 . S
C3215 C49 1.858 . S
C3235 C52 1.665 . S
C3241 C235 1.568 . S
C3261 C929 0.902 . S
C3255 C78 1.570 . S
C3275 C101 1.717 . S
C3281 C1043 0.939 . S
C3295 C114 1.684 1_655 S
C3301 C1147 1.267 . S
C3321 C1261 0.948 . S
C3315 C104 1.105 . S
C3335 C88 1.577 . S
C3341 C1385 0.880 . S
C3355 C91 1.124 . S
C3361 C1489 0.902 . S
C3375 C117 1.270 . S
C3381 C1499 0.834 1_565 S
C3395 C140 1.177 . S
C3401 C1271 0.828 . S
C3421 C1375 1.455 . S
C3415 C153 1.654 . S
C3435 C143 1.592 . S
C3441 C1033 1.497 . S
C3455 C127 1.845 . S
C3461 C1157 1.457 . S
C3481 C919 1.658 . S
C3475 C130 1.797 . S
C3501 C1613 0.818 . S
C3495 C156 1.270 . S
C3515 C179 1.154 . S
C3521 C1727 0.802 . S
C3535 C192 1.545 . S
C3541 C1831 1.117 . S
C3561 C1945 1.086 . S
C3555 C182 1.436 . S
C3581 C2069 0.991 . S
C3575 C166 1.746 . S
C3595 C169 1.683 . S
C3601 C2173 1.252 . S
C3615 C195 1.677 . S
C3621 C2183 1.391 . S
C3635 C218 1.818 . S
C3641 C1955 1.409 . S
C3661 C2059 1.592 . S
C3655 C231 1.785 . S
C3681 C1717 0.971 1_655 S
C3675 C221 1.114 . S
C3701 C1841 1.327 . S
C3695 C205 1.690 . S
C3715 C208 1.161 . S
C3721 C1603 0.997 1_545 S
