# Generated by pormake.
# Topology ptr, (4,4)-cn, num edge types: 1
# Building blocks:
#     Node 0, Type 0, BuildingBlock: GALJAG_clean_sbu_0, # of connection points: 4
#     Node 1, Type 0, BuildingBlock: GALJAG_clean_sbu_0, # of connection points: 4
#     Node 2, Type 0, BuildingBlock: GALJAG_clean_sbu_0, # of connection points: 4
#     Node 3, Type 0, BuildingBlock: GALJAG_clean_sbu_0, # of connection points: 4
#     Node 4, Type 0, BuildingBlock: GALJAG_clean_sbu_0, # of connection points: 4
#     Node 5, Type 0, BuildingBlock: GALJAG_clean_sbu_0, # of connection points: 4
#     Node 6, Type 0, BuildingBlock: GALJAG_clean_sbu_0, # of connection points: 4
#     Node 7, Type 0, BuildingBlock: GALJAG_clean_sbu_0, # of connection points: 4
#     Node 8, Type 0, BuildingBlock: GALJAG_clean_sbu_0, # of connection points: 4
#     Node 9, Type 0, BuildingBlock: GALJAG_clean_sbu_0, # of connection points: 4
#     Node 10, Type 0, BuildingBlock: GALJAG_clean_sbu_0, # of connection points: 4
#     Node 11, Type 0, BuildingBlock: GALJAG_clean_sbu_0, # of connection points: 4
#     Node 12, Type 0, BuildingBlock: GALJAG_clean_sbu_0, # of connection points: 4
#     Node 13, Type 0, BuildingBlock: GALJAG_clean_sbu_0, # of connection points: 4
#     Node 14, Type 0, BuildingBlock: GALJAG_clean_sbu_0, # of connection points: 4
#     Node 15, Type 0, BuildingBlock: GALJAG_clean_sbu_0, # of connection points: 4
#     Node 16, Type 0, BuildingBlock: GALJAG_clean_sbu_0, # of connection points: 4
#     Node 17, Type 0, BuildingBlock: GALJAG_clean_sbu_0, # of connection points: 4
#     Node 18, Type 1, BuildingBlock: NAWXER_clean_linker_0, # of connection points: 4
#     Node 19, Type 1, BuildingBlock: NAWXER_clean_linker_0, # of connection points: 4
#     Node 20, Type 1, BuildingBlock: NAWXER_clean_linker_0, # of connection points: 4
#     Node 21, Type 1, BuildingBlock: NAWXER_clean_linker_0, # of connection points: 4
#     Node 22, Type 1, BuildingBlock: NAWXER_clean_linker_0, # of connection points: 4
#     Node 23, Type 1, BuildingBlock: NAWXER_clean_linker_0, # of connection points: 4
#     Node 24, Type 1, BuildingBlock: NAWXER_clean_linker_0, # of connection points: 4
#     Node 25, Type 1, BuildingBlock: NAWXER_clean_linker_0, # of connection points: 4
#     Node 26, Type 1, BuildingBlock: NAWXER_clean_linker_0, # of connection points: 4
#     Node 27, Type 1, BuildingBlock: NAWXER_clean_linker_0, # of connection points: 4
#     Node 28, Type 1, BuildingBlock: NAWXER_clean_linker_0, # of connection points: 4
#     Node 29, Type 1, BuildingBlock: NAWXER_clean_linker_0, # of connection points: 4
#     Node 30, Type 1, BuildingBlock: NAWXER_clean_linker_0, # of connection points: 4
#     Node 31, Type 1, BuildingBlock: NAWXER_clean_linker_0, # of connection points: 4
#     Node 32, Type 1, BuildingBlock: NAWXER_clean_linker_0, # of connection points: 4
#     Node 33, Type 1, BuildingBlock: NAWXER_clean_linker_0, # of connection points: 4
#     Node 34, Type 1, BuildingBlock: NAWXER_clean_linker_0, # of connection points: 4
#     Node 35, Type 1, BuildingBlock: NAWXER_clean_linker_0, # of connection points: 4
#     Edge 36, Type (0, 1), BuildingBlock: UVAHIK_clean_linker_0, # of connection points: 2
#     Edge 37, Type (0, 1), BuildingBlock: UVAHIK_clean_linker_0, # of connection points: 2
#     Edge 38, Type (0, 1), BuildingBlock: UVAHIK_clean_linker_0, # of connection points: 2
#     Edge 39, Type (0, 1), BuildingBlock: UVAHIK_clean_linker_0, # of connection points: 2
#     Edge 40, Type (0, 1), BuildingBlock: UVAHIK_clean_linker_0, # of connection points: 2
#     Edge 41, Type (0, 1), BuildingBlock: UVAHIK_clean_linker_0, # of connection points: 2
#     Edge 42, Type (0, 1), BuildingBlock: UVAHIK_clean_linker_0, # of connection points: 2
#     Edge 43, Type (0, 1), BuildingBlock: UVAHIK_clean_linker_0, # of connection points: 2
#     Edge 44, Type (0, 1), BuildingBlock: UVAHIK_clean_linker_0, # of connection points: 2
#     Edge 45, Type (0, 1), BuildingBlock: UVAHIK_clean_linker_0, # of connection points: 2
#     Edge 46, Type (0, 1), BuildingBlock: UVAHIK_clean_linker_0, # of connection points: 2
#     Edge 47, Type (0, 1), BuildingBlock: UVAHIK_clean_linker_0, # of connection points: 2
#     Edge 48, Type (0, 1), BuildingBlock: UVAHIK_clean_linker_0, # of connection points: 2
#     Edge 49, Type (0, 1), BuildingBlock: UVAHIK_clean_linker_0, # of connection points: 2
#     Edge 50, Type (0, 1), BuildingBlock: UVAHIK_clean_linker_0, # of connection points: 2
#     Edge 51, Type (0, 1), BuildingBlock: UVAHIK_clean_linker_0, # of connection points: 2
#     Edge 52, Type (0, 1), BuildingBlock: UVAHIK_clean_linker_0, # of connection points: 2
#     Edge 53, Type (0, 1), BuildingBlock: UVAHIK_clean_linker_0, # of connection points: 2
#     Edge 54, Type (0, 1), BuildingBlock: UVAHIK_clean_linker_0, # of connection points: 2
#     Edge 55, Type (0, 1), BuildingBlock: UVAHIK_clean_linker_0, # of connection points: 2
#     Edge 56, Type (0, 1), BuildingBlock: UVAHIK_clean_linker_0, # of connection points: 2
#     Edge 57, Type (0, 1), BuildingBlock: UVAHIK_clean_linker_0, # of connection points: 2
#     Edge 58, Type (0, 1), BuildingBlock: UVAHIK_clean_linker_0, # of connection points: 2
#     Edge 59, Type (0, 1), BuildingBlock: UVAHIK_clean_linker_0, # of connection points: 2
#     Edge 60, Type (0, 1), BuildingBlock: UVAHIK_clean_linker_0, # of connection points: 2
#     Edge 61, Type (0, 1), BuildingBlock: UVAHIK_clean_linker_0, # of connection points: 2
#     Edge 62, Type (0, 1), BuildingBlock: UVAHIK_clean_linker_0, # of connection points: 2
#     Edge 63, Type (0, 1), BuildingBlock: UVAHIK_clean_linker_0, # of connection points: 2
#     Edge 64, Type (0, 1), BuildingBlock: UVAHIK_clean_linker_0, # of connection points: 2
#     Edge 65, Type (0, 1), BuildingBlock: UVAHIK_clean_linker_0, # of connection points: 2
#     Edge 66, Type (0, 1), BuildingBlock: UVAHIK_clean_linker_0, # of connection points: 2
#     Edge 67, Type (0, 1), BuildingBlock: UVAHIK_clean_linker_0, # of connection points: 2
#     Edge 68, Type (0, 1), BuildingBlock: UVAHIK_clean_linker_0, # of connection points: 2
#     Edge 69, Type (0, 1), BuildingBlock: UVAHIK_clean_linker_0, # of connection points: 2
#     Edge 70, Type (0, 1), BuildingBlock: UVAHIK_clean_linker_0, # of connection points: 2
#     Edge 71, Type (0, 1), BuildingBlock: UVAHIK_clean_linker_0, # of connection points: 2
#     Edge 72, Type (0, 1), BuildingBlock: UVAHIK_clean_linker_0, # of connection points: 2
#     Edge 73, Type (0, 1), BuildingBlock: UVAHIK_clean_linker_0, # of connection points: 2
#     Edge 74, Type (0, 1), BuildingBlock: UVAHIK_clean_linker_0, # of connection points: 2
#     Edge 75, Type (0, 1), BuildingBlock: UVAHIK_clean_linker_0, # of connection points: 2
#     Edge 76, Type (0, 1), BuildingBlock: UVAHIK_clean_linker_0, # of connection points: 2
#     Edge 77, Type (0, 1), BuildingBlock: UVAHIK_clean_linker_0, # of connection points: 2
#     Edge 78, Type (0, 1), BuildingBlock: UVAHIK_clean_linker_0, # of connection points: 2
#     Edge 79, Type (0, 1), BuildingBlock: UVAHIK_clean_linker_0, # of connection points: 2
#     Edge 80, Type (0, 1), BuildingBlock: UVAHIK_clean_linker_0, # of connection points: 2
#     Edge 81, Type (0, 1), BuildingBlock: UVAHIK_clean_linker_0, # of connection points: 2
#     Edge 82, Type (0, 1), BuildingBlock: UVAHIK_clean_linker_0, # of connection points: 2
#     Edge 83, Type (0, 1), BuildingBlock: UVAHIK_clean_linker_0, # of connection points: 2
#     Edge 84, Type (0, 1), BuildingBlock: UVAHIK_clean_linker_0, # of connection points: 2
#     Edge 85, Type (0, 1), BuildingBlock: UVAHIK_clean_linker_0, # of connection points: 2
#     Edge 86, Type (0, 1), BuildingBlock: UVAHIK_clean_linker_0, # of connection points: 2
#     Edge 87, Type (0, 1), BuildingBlock: UVAHIK_clean_linker_0, # of connection points: 2
#     Edge 88, Type (0, 1), BuildingBlock: UVAHIK_clean_linker_0, # of connection points: 2
#     Edge 89, Type (0, 1), BuildingBlock: UVAHIK_clean_linker_0, # of connection points: 2
#     Edge 90, Type (0, 1), BuildingBlock: UVAHIK_clean_linker_0, # of connection points: 2
#     Edge 91, Type (0, 1), BuildingBlock: UVAHIK_clean_linker_0, # of connection points: 2
#     Edge 92, Type (0, 1), BuildingBlock: UVAHIK_clean_linker_0, # of connection points: 2
#     Edge 93, Type (0, 1), BuildingBlock: UVAHIK_clean_linker_0, # of connection points: 2
#     Edge 94, Type (0, 1), BuildingBlock: UVAHIK_clean_linker_0, # of connection points: 2
#     Edge 95, Type (0, 1), BuildingBlock: UVAHIK_clean_linker_0, # of connection points: 2
#     Edge 96, Type (0, 1), BuildingBlock: UVAHIK_clean_linker_0, # of connection points: 2
#     Edge 97, Type (0, 1), BuildingBlock: UVAHIK_clean_linker_0, # of connection points: 2
#     Edge 98, Type (0, 1), BuildingBlock: UVAHIK_clean_linker_0, # of connection points: 2
#     Edge 99, Type (0, 1), BuildingBlock: UVAHIK_clean_linker_0, # of connection points: 2
#     Edge 100, Type (0, 1), BuildingBlock: UVAHIK_clean_linker_0, # of connection points: 2
#     Edge 101, Type (0, 1), BuildingBlock: UVAHIK_clean_linker_0, # of connection points: 2
#     Edge 102, Type (0, 1), BuildingBlock: UVAHIK_clean_linker_0, # of connection points: 2
#     Edge 103, Type (0, 1), BuildingBlock: UVAHIK_clean_linker_0, # of connection points: 2
#     Edge 104, Type (0, 1), BuildingBlock: UVAHIK_clean_linker_0, # of connection points: 2
#     Edge 105, Type (0, 1), BuildingBlock: UVAHIK_clean_linker_0, # of connection points: 2
#     Edge 106, Type (0, 1), BuildingBlock: UVAHIK_clean_linker_0, # of connection points: 2
#     Edge 107, Type (0, 1), BuildingBlock: UVAHIK_clean_linker_0, # of connection points: 2
# Relax obj value: 0.045
# Max RMSD: 0.081
# Mean RMSD: 0.066
data_MOF--net-ptr--node1-GALJAG_clean_sbu_0--node2-NAWXER_clean_linker_0--edge1-UVAHIK_clean_linker_0
_symmetry_space_group_name_H-M    P1
_symmetry_Int_Tables_number       1
_symmetry_cell_setting            triclinic
loop_
_symmetry_equiv_pos_as_xyz
'x, y, z'
_cell_length_a     107.00333
_cell_length_b     107.09286
_cell_length_c     84.086776
_cell_angle_alpha  90.057245
_cell_angle_beta   89.961053
_cell_angle_gamma 120.06941
loop_
_atom_site_label
_atom_site_type_symbol
_atom_site_fract_x
_atom_site_fract_y
_atom_site_fract_z
_atom_type_partial_charge
In0 In 0.00223 0.34996 0.00728 0.0
O1 O 0.98815 0.35289 0.02576 0.0
O2 O 0.01025 0.3692 0.02373 0.0
C3 C 0.98416 0.32426 0.99388 0.0
C4 C 0.02051 0.3434 0.02203 0.0
C5 C 0.00602 0.3674 0.98247 0.0
O6 O 0.98021 0.32932 0.00516 0.0
O7 O 0.99714 0.33206 0.98966 0.0
O8 O 0.0164 0.36658 0.98853 0.0
O9 O 0.99395 0.3596 0.98905 0.0
C10 C -0.00166 0.36483 0.03072 0.0
O11 O 0.02398 0.35083 0.00943 0.0
O12 O 0.0079 0.33926 0.02696 0.0
In13 In 0.64455 0.64731 0.00955 0.0
O14 O 0.64489 0.63056 0.02634 0.0
O15 O 0.63052 0.63829 0.03153 0.0
C16 C 0.66828 0.64986 0.99517 0.0
C17 C 0.65154 0.67285 0.02301 0.0
C18 C 0.62465 0.63765 0.98588 0.0
O19 O 0.65756 0.63772 0.9986 0.0
O20 O 0.66701 0.66052 0.99912 0.0
O21 O 0.6365 0.6493 0.98491 0.0
O22 O 0.62273 0.63103 0.99882 0.0
C23 C 0.63535 0.63016 0.03553 0.0
O24 O 0.64061 0.66614 0.01416 0.0
O25 O 0.65886 0.66669 0.02495 0.0
In26 In 0.34584 0.99854 0.00896 0.0
O27 O 0.34725 0.02051 0.00679 0.0
O28 O 0.33509 0.00435 0.9895 0.0
C29 C 0.36247 0.00152 0.03441 0.0
C30 C 0.36152 0.99608 0.98538 0.0
C31 C 0.31968 0.97941 0.02058 0.0
O32 O 0.36105 0.01185 0.0293 0.0
O33 O 0.35552 0.98992 0.02673 0.0
O34 O 0.32644 0.97576 0.01107 0.0
O35 O 0.32609 0.99265 0.02406 0.0
C36 C 0.33962 0.01707 0.99431 0.0
O37 O 0.34922 0.98577 0.98921 0.0
O38 O 0.36583 0.0074 0.99353 0.0
In39 In 0.00116 0.65273 0.00829 0.0
O40 O 0.01386 0.64931 0.98847 0.0
O41 O 0.99223 0.63274 0.99284 0.0
C42 C 0.02035 0.67893 0.01974 0.0
C43 C 0.9825 0.65922 0.99443 0.0
C44 C 0.9981 0.63633 0.03395 0.0
O45 O 0.02404 0.67205 0.01045 0.0
O46 O 0.00707 0.67264 0.02306 0.0
O47 O 0.98758 0.63702 0.02812 0.0
O48 O 0.00993 0.64381 0.02682 0.0
C49 C 0.00353 0.63703 0.98466 0.0
O50 O 0.97941 0.65187 0.00707 0.0
O51 O 0.99492 0.66325 0.98893 0.0
In52 In 0.35032 0.35141 0.00795 0.0
O53 O 0.34719 0.35973 0.98391 0.0
O54 O 0.36783 0.37082 0.99482 0.0
C55 C 0.32619 0.34656 0.02341 0.0
C56 C 0.34725 0.3269 0.995 0.0
C57 C 0.36884 0.36412 0.0322 0.0
O58 O 0.33022 0.35375 0.01067 0.0
O59 O 0.33422 0.34183 0.02812 0.0
O60 O 0.36462 0.35123 0.02813 0.0
O61 O 0.36379 0.37044 0.024 0.0
C62 C 0.36007 0.36999 0.98317 0.0
O63 O 0.35947 0.33757 0.99823 0.0
O64 O 0.33674 0.32854 0.99853 0.0
In65 In 0.64815 0.9974 0.00782 0.0
O66 O 0.64522 0.01065 0.02726 0.0
O67 O 0.62769 0.98963 0.02243 0.0
C68 C 0.67417 0.01735 0.99647 0.0
C69 C 0.65475 0.97941 0.02316 0.0
C70 C 0.63166 0.99234 0.98165 0.0
O71 O 0.66617 0.0207 0.00423 0.0
O72 O 0.66915 0.00397 0.99469 0.0
O73 O 0.63216 0.9823 0.98894 0.0
O74 O 0.63935 0.0047 0.9876 0.0
C75 C 0.63252 0.00095 0.03069 0.0
O76 O 0.64882 0.97641 0.00961 0.0
O77 O 0.65738 0.99142 0.02875 0.0
In78 In 0.66419 0.6838 0.34282 0.0
O79 O 0.64958 0.68311 0.36305 0.0
O80 O 0.66691 0.70358 0.35608 0.0
C81 C 0.64711 0.65815 0.32863 0.0
C82 C 0.6836 0.67953 0.35883 0.0
C83 C 0.66956 0.70134 0.31769 0.0
O84 O 0.64228 0.66352 0.33858 0.0
O85 O 0.66048 0.66564 0.32601 0.0
O86 O 0.67955 0.70124 0.32562 0.0
O87 O 0.65694 0.69273 0.32259 0.0
C88 C 0.65634 0.69657 0.36527 0.0
O89 O 0.68682 0.68683 0.34618 0.0
O90 O 0.67073 0.67451 0.3633 0.0
In91 In 0.31281 0.98082 0.345 0.0
O92 O 0.314 0.96969 0.3678 0.0
O93 O 0.29331 0.96447 0.35923 0.0
C94 C 0.33737 0.98563 0.33081 0.0
C95 C 0.31862 0.00607 0.35838 0.0
C96 C 0.29579 0.96923 0.31927 0.0
O97 O 0.32997 0.97477 0.33954 0.0
O98 O 0.33245 0.99411 0.32941 0.0
O99 O 0.29775 0.98081 0.32553 0.0
O100 O 0.30228 0.96361 0.32606 0.0
C101 C 0.30051 0.96245 0.36971 0.0
O102 O 0.30712 0.99833 0.35071 0.0
O103 O 0.32705 0.00107 0.3592 0.0
In104 In 0.01671 0.33321 0.34198 0.0
O105 O 0.02187 0.35634 0.33778 0.0
O106 O 0.00431 0.33955 0.325 0.0
C107 C 0.03381 0.33725 0.36738 0.0
C108 C 0.02972 0.32783 0.31752 0.0
C109 C 0.99079 0.3153 0.35503 0.0
O110 O 0.03191 0.34716 0.36193 0.0
O111 O 0.02717 0.32545 0.35999 0.0
O112 O 0.99702 0.3109 0.34571 0.0
O113 O 0.99761 0.32871 0.35767 0.0
C114 C 0.0119 0.3529 0.32772 0.0
O115 O 0.01744 0.31848 0.32259 0.0
O116 O 0.03538 0.33967 0.32488 0.0
In117 In 0.6654 0.98114 0.34237 0.0
O118 O 0.68149 0.979 0.32608 0.0
O119 O 0.65921 0.96748 0.32004 0.0
C120 C 0.6855 0.00538 0.35704 0.0
C121 C 0.64519 0.98693 0.33116 0.0
C122 C 0.65843 0.96083 0.36501 0.0
O123 O 0.68643 0.00306 0.34248 0.0
O124 O 0.67458 0.99553 0.36401 0.0
O125 O 0.65286 0.96878 0.36442 0.0
O126 O 0.66738 0.96299 0.3541 0.0
C127 C 0.67186 0.97047 0.31652 0.0
O128 O 0.64205 0.97498 0.33732 0.0
O129 O 0.65849 0.99608 0.33096 0.0
In130 In 0.0183 0.68478 0.3441 0.0
O131 O 0.01579 0.69583 0.32194 0.0
O132 O 0.03696 0.70126 0.32917 0.0
C133 C 0.99316 0.67852 0.35818 0.0
C134 C 0.01567 0.66109 0.32967 0.0
C135 C 0.03562 0.69693 0.36952 0.0
O136 O 0.00075 0.69013 0.35066 0.0
O137 O 0.99818 0.67011 0.35844 0.0
O138 O 0.03043 0.68375 0.36613 0.0
O139 O 0.03209 0.7038 0.36012 0.0
C140 C 0.02921 0.70324 0.31937 0.0
O141 O 0.0266 0.66939 0.3379 0.0
O142 O 0.00618 0.66476 0.32881 0.0
In143 In 0.31576 0.33297 0.34395 0.0
O144 O 0.31449 0.31117 0.34765 0.0
O145 O 0.32992 0.32908 0.36107 0.0
C146 C 0.29473 0.32423 0.32187 0.0
C147 C 0.30324 0.33868 0.36857 0.0
C148 C 0.33937 0.35266 0.32785 0.0
O149 O 0.30158 0.31766 0.32431 0.0
O150 O 0.29839 0.33509 0.33065 0.0
O151 O 0.33644 0.35504 0.34165 0.0
O152 O 0.33047 0.34047 0.32229 0.0
C153 C 0.32432 0.31582 0.35802 0.0
O154 O 0.31286 0.34854 0.36006 0.0
O155 O 0.29989 0.32602 0.36453 0.0
In156 In 0.33209 0.0191 0.67586 0.0
O157 O 0.35517 0.03008 0.68564 0.0
O158 O 0.34285 0.00718 0.68596 0.0
C159 C 0.33835 0.03529 0.64923 0.0
C160 C 0.32249 0.02908 0.69982 0.0
C161 C 0.313 0.99287 0.66419 0.0
O162 O 0.34801 0.03491 0.65747 0.0
O163 O 0.32569 0.02758 0.65444 0.0
O164 O 0.30927 -0.00023 0.67336 0.0
O165 O 0.32631 -0.00084 0.66103 0.0
C166 C 0.35462 0.01838 0.68926 0.0
O167 O 0.32645 0.03528 0.68655 0.0
O168 O 0.32319 0.01772 0.70101 0.0
In169 In 0.98016 0.31215 0.67525 0.0
O170 O 0.97815 0.33239 0.67723 0.0
O171 O 0.99013 0.32883 0.69498 0.0
C172 C 0.9617 0.29839 0.65113 0.0
C173 C 0.96734 0.29238 0.69851 0.0
C174 C 0.00581 0.32066 0.66101 0.0
O175 O 0.96234 0.30918 0.65803 0.0
O176 O 0.97019 0.29448 0.65657 0.0
O177 O 0.0019 0.31291 0.67334 0.0
O178 O 0.99691 0.32422 0.65609 0.0
C179 C 0.98545 0.33678 0.68987 0.0
O180 O 0.97926 0.29517 0.69243 0.0
O181 O 0.96188 0.29944 0.69272 0.0
In182 In 0.68313 0.6657 0.67455 0.0
O183 O 0.68722 0.68832 0.66896 0.0
O184 O 0.66797 0.67038 0.6601 0.0
C185 C 0.70272 0.67129 0.69767 0.0
C186 C 0.69504 0.65981 0.6494 0.0
C187 C 0.65904 0.64771 0.69079 0.0
O188 O 0.69912 0.68038 0.69348 0.0
O189 O 0.69651 0.65952 0.69014 0.0
O190 O 0.6628 0.64381 0.67835 0.0
O191 O 0.66738 0.66063 0.69489 0.0
C192 C 0.67573 0.68391 0.66107 0.0
O193 O 0.68372 0.65019 0.6561 0.0
O194 O 0.70018 0.67223 0.65536 0.0
In195 In 0.33148 0.31481 0.67654 0.0
O196 O 0.34777 0.31293 0.66034 0.0
O197 O 0.32535 0.29864 0.65655 0.0
C198 C 0.35407 0.33897 0.6886 0.0
C199 C 0.31312 0.32173 0.66242 0.0
C200 C 0.32057 0.29574 0.70094 0.0
O201 O 0.35399 0.32715 0.68778 0.0
O202 O 0.34297 0.33861 0.68303 0.0
O203 O 0.32347 0.30864 0.70226 0.0
O204 O 0.32287 0.29243 0.68732 0.0
C205 C 0.33811 0.30268 0.65225 0.0
O206 O 0.31002 0.31479 0.67533 0.0
O207 O 0.32542 0.32527 0.65692 0.0
In208 In 0.68459 0.01846 0.67368 0.0
O209 O 0.68514 0.03482 0.6557 0.0
O210 O 0.70045 0.02786 0.65318 0.0
C211 C 0.66073 0.01332 0.68977 0.0
C212 C 0.6773 0.99244 0.66127 0.0
C213 C 0.70466 0.03274 0.69632 0.0
O214 O 0.66376 0.01926 0.67625 0.0
O215 O 0.66964 0.00988 0.69501 0.0
O216 O 0.70034 0.01972 0.69285 0.0
O217 O 0.69898 0.03852 0.68826 0.0
C218 C 0.69563 0.03565 0.64794 0.0
O219 O 0.68919 0.00026 0.6682 0.0
O220 O 0.66902 0.99763 0.66083 0.0
In221 In 0.9791 0.66765 0.67726 0.0
O222 O 0.97723 0.64551 0.67958 0.0
O223 O 0.9892 0.66129 0.69717 0.0
C224 C 0.96002 0.66198 0.65357 0.0
C225 C 0.96605 0.67427 0.70055 0.0
C226 C 0.00467 0.68483 0.66286 0.0
O227 O 0.9618 0.65231 0.65993 0.0
O228 O 0.96778 0.67447 0.65925 0.0
O229 O 0.00091 0.68865 0.67533 0.0
O230 O 0.99563 0.67246 0.65783 0.0
C231 C 0.98451 0.64859 0.69224 0.0
O232 O 0.97762 0.68372 0.69407 0.0
O233 O 0.9611 0.66167 0.69512 0.0
C234 C 0.20505 0.323 0.13324 0.0
C235 C 0.20249 0.31502 0.11916 0.0
C236 C 0.19356 0.32105 0.14283 0.0
C237 C 0.17928 0.31079 0.13877 0.0
C238 C 0.18823 0.30483 0.11501 0.0
C239 C 0.17674 0.30273 0.12474 0.0
C240 C 0.16692 0.30954 0.14802 0.0
C241 C 0.19086 0.29829 0.18515 0.0
C242 C 0.19679 0.30857 0.19746 0.0
C243 C 0.18139 0.29886 0.17406 0.0
C244 C 0.17768 0.30969 0.17516 0.0
C245 C 0.19342 0.31968 0.19806 0.0
C246 C 0.18385 0.32013 0.18716 0.0
C247 C 0.16654 0.30969 0.16481 0.0
C248 C 0.10799 0.30212 0.18008 0.0
C249 C 0.11225 0.31221 0.19256 0.0
C250 C 0.11838 0.30141 0.17057 0.0
C251 C 0.13316 0.31082 0.17337 0.0
C252 C 0.12706 0.32146 0.19537 0.0
C253 C 0.13737 0.32074 0.18592 0.0
C254 C 0.14448 0.31013 0.16393 0.0
C255 C 0.1213 0.324 0.13031 0.0
C256 C 0.11548 0.31529 0.11678 0.0
C257 C 0.13083 0.32233 0.14018 0.0
C258 C 0.13439 0.3116 0.13699 0.0
C259 C 0.11937 0.30485 0.11328 0.0
C260 C 0.12874 0.30302 0.12333 0.0
C261 C 0.14481 0.31 0.14713 0.0
H262 H 0.21592 0.33115 0.13653 0.0
H263 H 0.19587 0.32797 0.15309 0.0
H264 H 0.18597 0.29852 0.10421 0.0
H265 H 0.16582 0.29492 0.1212 0.0
H266 H 0.19312 0.28952 0.1844 0.0
H267 H 0.17658 0.29058 0.165 0.0
H268 H 0.19806 0.32801 0.20708 0.0
H269 H 0.18118 0.32861 0.18816 0.0
H270 H 0.09666 0.29484 0.17764 0.0
H271 H 0.11487 0.29344 0.16117 0.0
H272 H 0.13072 0.32912 0.2051 0.0
H273 H 0.14871 0.328 0.18843 0.0
H274 H 0.11872 0.33234 0.13306 0.0
H275 H 0.13558 0.3296 0.15017 0.0
H276 H 0.11504 0.29802 0.10289 0.0
H277 H 0.13154 0.29486 0.12045 0.0
N278 N 0.15597 0.30959 0.13987 0.0
N279 N 0.15539 0.31003 0.17204 0.0
C280 C 0.67721 0.88049 0.13127 0.0
C281 C 0.68593 0.88649 0.11776 0.0
C282 C 0.67874 0.87067 0.14078 0.0
C283 C 0.68929 0.86694 0.13724 0.0
C284 C 0.69632 0.88259 0.11404 0.0
C285 C 0.69798 0.8729 0.12371 0.0
C286 C 0.69036 0.85582 0.14665 0.0
C287 C 0.69971 0.89163 0.18157 0.0
C288 C 0.68905 0.88744 0.19339 0.0
C289 C 0.70005 0.88128 0.17167 0.0
C290 C 0.68976 0.86659 0.17353 0.0
C291 C 0.67889 0.87272 0.19528 0.0
C292 C 0.67932 0.86241 0.18553 0.0
C293 C 0.68993 0.85534 0.16345 0.0
C294 C 0.69656 0.80398 0.17912 0.0
C295 C 0.68642 0.79819 0.19155 0.0
C296 C 0.69735 0.81505 0.16957 0.0
C297 C 0.68799 0.82048 0.17227 0.0
C298 C 0.67709 0.80366 0.19418 0.0
C299 C 0.67792 0.81473 0.1847 0.0
C300 C 0.68901 0.83263 0.16286 0.0
C301 C 0.67316 0.7958 0.12822 0.0
C302 C 0.68301 0.79797 0.116 0.0
C303 C 0.67544 0.80716 0.13822 0.0
C304 C 0.68762 0.8209 0.13619 0.0
C305 C 0.69523 0.81171 0.11403 0.0
C306 C 0.69743 0.82313 0.12395 0.0
C307 C 0.68954 0.83314 0.14609 0.0
H308 H 0.66889 0.88305 0.1342 0.0
H309 H 0.67139 0.86573 0.15066 0.0
H310 H 0.70318 0.88706 0.10369 0.0
H311 H 0.70602 0.86998 0.12056 0.0
H312 H 0.70767 0.90291 0.17988 0.0
H313 H 0.70837 0.88472 0.16267 0.0
H314 H 0.67071 0.86915 0.20447 0.0
H315 H 0.67136 0.85113 0.18726 0.0
H316 H 0.70387 0.79997 0.1768 0.0
H317 H 0.70543 0.81953 0.16027 0.0
H318 H 0.66934 0.79962 0.20383 0.0
H319 H 0.67068 0.81883 0.1871 0.0
H320 H 0.66368 0.7853 0.13005 0.0
H321 H 0.66754 0.80528 0.14735 0.0
H322 H 0.70291 0.81371 0.1046 0.0
H323 H 0.70679 0.8337 0.12207 0.0
N324 N 0.69027 0.84474 0.13864 0.0
N325 N 0.68919 0.84373 0.17086 0.0
C326 C 0.11884 0.79828 0.12961 0.0
C327 C 0.11151 0.80075 0.11727 0.0
C328 C 0.12775 0.80942 0.13995 0.0
C329 C 0.12949 0.82323 0.13813 0.0
C330 C 0.11297 0.81449 0.1157 0.0
C331 C 0.12203 0.82568 0.12595 0.0
C332 C 0.14041 0.83544 0.14762 0.0
C333 C 0.10557 0.80854 0.18351 0.0
C334 C 0.11013 0.80257 0.19554 0.0
C335 C 0.11559 0.81876 0.17295 0.0
C336 C 0.13032 0.82316 0.17424 0.0
C337 C 0.12483 0.80669 0.19638 0.0
C338 C 0.13481 0.81697 0.18596 0.0
C339 C 0.14131 0.83496 0.16432 0.0
C340 C 0.19267 0.89308 0.18068 0.0
C341 C 0.19855 0.88851 0.19276 0.0
C342 C 0.1815 0.88297 0.17104 0.0
C343 C 0.17606 0.86812 0.1733 0.0
C344 C 0.19304 0.87364 0.19496 0.0
C345 C 0.1819 0.86358 0.18539 0.0
C346 C 0.16377 0.85713 0.16387 0.0
C347 C 0.19958 0.87841 0.12791 0.0
C348 C 0.19705 0.88606 0.11599 0.0
C349 C 0.18859 0.86954 0.13841 0.0
C350 C 0.17486 0.86815 0.13718 0.0
C351 C 0.18338 0.88485 0.11492 0.0
C352 C 0.17232 0.87582 0.12533 0.0
C353 C 0.16285 0.85761 0.14716 0.0
H354 H 0.11784 0.78777 0.13112 0.0
H355 H 0.1337 0.80736 0.14898 0.0
H356 H 0.10753 0.8167 0.10619 0.0
H357 H 0.12341 0.83633 0.1242 0.0
H358 H 0.09437 0.80573 0.18262 0.0
H359 H 0.11191 0.82358 0.16416 0.0
H360 H 0.12868 0.80209 0.20524 0.0
H361 H 0.14612 0.82017 0.18713 0.0
H362 H 0.1967 0.90446 0.17869 0.0
H363 H 0.17695 0.88675 0.16204 0.0
H364 H 0.19711 0.86973 0.20436 0.0
H365 H 0.1778 0.8522 0.18747 0.0
H366 H 0.21004 0.87921 0.12902 0.0
H367 H 0.19069 0.86344 0.14721 0.0
H368 H 0.18113 0.89054 0.10574 0.0
H369 H 0.16173 0.87472 0.12405 0.0
N370 N 0.15118 0.84678 0.13969 0.0
N371 N 0.15297 0.8458 0.17177 0.0
C372 C 0.31413 0.11578 0.83446 0.0
C373 C 0.30253 0.10908 0.82375 0.0
C374 C 0.31534 0.12665 0.84465 0.0
C375 C 0.30479 0.13081 0.84458 0.0
C376 C 0.29195 0.11319 0.82375 0.0
C377 C 0.29308 0.12396 0.83404 0.0
C378 C 0.30659 0.14321 0.85421 0.0
C379 C 0.30363 0.11065 0.8902 0.0
C380 C 0.31616 0.11536 0.89945 0.0
C381 C 0.30197 0.12034 0.88055 0.0
C382 C 0.31286 0.1349 0.87987 0.0
C383 C 0.327 0.12996 0.89877 0.0
C384 C 0.32532 0.13964 0.88917 0.0
C385 C 0.3111 0.14547 0.87026 0.0
C386 C 0.30831 0.19842 0.88885 0.0
C387 C 0.32088 0.2053 0.89823 0.0
C388 C 0.30538 0.18642 0.87956 0.0
C389 C 0.31509 0.1812 0.87929 0.0
C390 C 0.33045 0.1999 0.89807 0.0
C391 C 0.32756 0.18797 0.88873 0.0
C392 C 0.31207 0.16824 0.86999 0.0
C393 C 0.31631 0.20105 0.8336 0.0
C394 C 0.30423 0.19657 0.82369 0.0
C395 C 0.31733 0.1912 0.84364 0.0
C396 C 0.30614 0.17674 0.8442 0.0
C397 C 0.29307 0.1821 0.82423 0.0
C398 C 0.29404 0.17229 0.83436 0.0
C399 C 0.30743 0.16594 0.85398 0.0
H400 H 0.3226 0.11304 0.83451 0.0
H401 H 0.32479 0.13212 0.85217 0.0
H402 H 0.28286 0.10816 0.81566 0.0
H403 H 0.28489 0.12708 0.83363 0.0
H404 H 0.29497 0.09953 0.89066 0.0
H405 H 0.29208 0.11651 0.87382 0.0
H406 H 0.33687 0.13392 0.90556 0.0
H407 H 0.33382 0.15084 0.88889 0.0
H408 H 0.30074 0.20234 0.88864 0.0
H409 H 0.29547 0.18114 0.87274 0.0
H410 H 0.34007 0.20472 0.90539 0.0
H411 H 0.33511 0.18402 0.8889 0.0
H412 H 0.32521 0.21207 0.83321 0.0
H413 H 0.32703 0.19483 0.85065 0.0
H414 H 0.2836 0.17835 0.81679 0.0
H415 H 0.28535 0.16116 0.83446 0.0
N416 N 0.30483 0.15349 0.84677 0.0
N417 N 0.31374 0.15792 0.87744 0.0
C418 C 0.89109 0.19218 0.89205 0.0
C419 C 0.88656 0.19999 0.90159 0.0
C420 C 0.8812 0.18083 0.88247 0.0
C421 C 0.86662 0.17711 0.88223 0.0
C422 C 0.87194 0.19621 0.90126 0.0
C423 C 0.86207 0.18482 0.89178 0.0
C424 C 0.85584 0.16481 0.87272 0.0
C425 C 0.88393 0.19789 0.83614 0.0
C426 C 0.89072 0.19322 0.82524 0.0
C427 C 0.87353 0.18815 0.8467 0.0
C428 C 0.86982 0.17357 0.84671 0.0
C429 C 0.88716 0.17867 0.82548 0.0
C430 C 0.87676 0.16894 0.83605 0.0
C431 C 0.85762 0.16284 0.85644 0.0
C432 C 0.79872 0.11919 0.83523 0.0
C433 C 0.80202 0.11131 0.82431 0.0
C434 C 0.8091 0.1286 0.84603 0.0
C435 C 0.82297 0.13021 0.8462 0.0
C436 C 0.81581 0.11273 0.82473 0.0
C437 C 0.82621 0.12218 0.83549 0.0
C438 C 0.83452 0.14135 0.85624 0.0
C439 C 0.802 0.10889 0.89025 0.0
C440 C 0.79644 0.1145 0.9016 0.0
C441 C 0.81377 0.11811 0.88074 0.0
C442 C 0.82002 0.13315 0.8821 0.0
C443 C 0.80291 0.12956 0.90311 0.0
C444 C 0.81453 0.13875 0.89347 0.0
C445 C 0.83282 0.14322 0.87258 0.0
H446 H 0.90221 0.19464 0.89221 0.0
H447 H 0.8849 0.1748 0.87548 0.0
H448 H 0.8681 0.20213 0.90821 0.0
H449 H 0.85086 0.18211 0.8918 0.0
H450 H 0.88619 0.20894 0.83606 0.0
H451 H 0.86799 0.19192 0.8544 0.0
H452 H 0.89229 0.17476 0.81735 0.0
H453 H 0.87396 0.15772 0.83574 0.0
H454 H 0.78816 0.11827 0.83524 0.0
H455 H 0.80644 0.13495 0.85388 0.0
H456 H 0.81875 0.10697 0.81633 0.0
H457 H 0.8369 0.12342 0.83527 0.0
H458 H 0.79726 0.09736 0.88867 0.0
H459 H 0.81808 0.11345 0.8725 0.0
H460 H 0.79918 0.13431 0.91195 0.0
H461 H 0.81927 0.15031 0.89495 0.0
N462 N 0.84353 0.15493 0.88011 0.0
N463 N 0.84691 0.15116 0.84888 0.0
C464 C 0.7978 0.68877 0.89084 0.0
C465 C 0.79137 0.67656 0.90077 0.0
C466 C 0.81013 0.69202 0.88198 0.0
C467 C 0.81617 0.68303 0.88277 0.0
C468 C 0.79755 0.66768 0.90162 0.0
C469 C 0.80984 0.67092 0.89277 0.0
C470 C 0.82944 0.6864 0.87388 0.0
C471 C 0.79628 0.67717 0.83569 0.0
C472 C 0.79988 0.68864 0.82511 0.0
C473 C 0.80641 0.67782 0.84662 0.0
C474 C 0.82029 0.69002 0.8473 0.0
C475 C 0.8137 0.70095 0.826 0.0
C476 C 0.82384 0.70157 0.83692 0.0
C477 C 0.83156 0.6902 0.85761 0.0
C478 C 0.88089 0.68225 0.83974 0.0
C479 C 0.88747 0.693 0.82804 0.0
C480 C 0.87061 0.68214 0.85004 0.0
C481 C 0.86686 0.69295 0.84909 0.0
C482 C 0.88392 0.70398 0.82732 0.0
C483 C 0.87366 0.70391 0.83769 0.0
C484 C 0.85468 0.6919 0.85855 0.0
C485 C 0.88799 0.69713 0.89466 0.0
C486 C 0.88351 0.6852 0.90482 0.0
C487 C 0.87803 0.6982 0.88483 0.0
C488 C 0.86345 0.68731 0.88489 0.0
C489 C 0.86887 0.67439 0.90491 0.0
C490 C 0.85894 0.67549 0.89513 0.0
C491 C 0.85264 0.68834 0.87488 0.0
H492 H 0.79327 0.6958 0.88987 0.0
H493 H 0.81502 0.70164 0.87468 0.0
H494 H 0.79304 0.65835 0.90937 0.0
H495 H 0.81439 0.66391 0.89371 0.0
H496 H 0.78569 0.66758 0.83536 0.0
H497 H 0.80352 0.66859 0.85419 0.0
H498 H 0.81687 0.70987 0.81786 0.0
H499 H 0.83456 0.711 0.83709 0.0
H500 H 0.88346 0.6737 0.84071 0.0
H501 H 0.86521 0.67327 0.85833 0.0
H502 H 0.88863 0.71231 0.81832 0.0
H503 H 0.87078 0.71223 0.83656 0.0
H504 H 0.89914 0.70576 0.89449 0.0
H505 H 0.8817 0.70762 0.87733 0.0
H506 H 0.86509 0.66495 0.91241 0.0
H507 H 0.84773 0.66698 0.89542 0.0
N508 N 0.84007 0.68564 0.88184 0.0
N509 N 0.84411 0.69282 0.85062 0.0
C510 C 0.77413 0.63604 0.458 0.0
C511 C 0.77936 0.6483 0.44819 0.0
C512 C 0.78359 0.63384 0.46745 0.0
C513 C 0.79845 0.64391 0.46735 0.0
C514 C 0.79428 0.65821 0.44796 0.0
C515 C 0.80372 0.65598 0.45736 0.0
C516 C 0.80869 0.6419 0.47729 0.0
C517 C 0.78184 0.65023 0.51235 0.0
C518 C 0.77461 0.63944 0.52387 0.0
C519 C 0.7919 0.64975 0.50217 0.0
C520 C 0.79476 0.63832 0.50307 0.0
C521 C 0.77729 0.62787 0.52456 0.0
C522 C 0.78732 0.62736 0.51432 0.0
C523 C 0.8066 0.6386 0.49367 0.0
C524 C 0.86431 0.65067 0.51621 0.0
C525 C 0.86024 0.63938 0.52719 0.0
C526 C 0.85431 0.65039 0.50534 0.0
C527 C 0.8401 0.63871 0.50506 0.0
C528 C 0.84602 0.62765 0.5268 0.0
C529 C 0.83604 0.62736 0.51589 0.0
C530 C 0.82907 0.6389 0.49465 0.0
C531 C 0.86202 0.63798 0.46208 0.0
C532 C 0.86841 0.64948 0.45118 0.0
C533 C 0.84989 0.63549 0.47089 0.0
C534 C 0.8441 0.64464 0.46923 0.0
C535 C 0.86233 0.65837 0.44928 0.0
C536 C 0.85034 0.65599 0.45821 0.0
C537 C 0.83117 0.64225 0.47826 0.0
H538 H 0.76273 0.62807 0.45824 0.0
H539 H 0.77933 0.62425 0.47477 0.0
H540 H 0.79866 0.66787 0.44074 0.0
H541 H 0.81515 0.66387 0.45706 0.0
H542 H 0.77995 0.65924 0.51141 0.0
H543 H 0.79781 0.65861 0.49399 0.0
H544 H 0.77208 0.6195 0.53346 0.0
H545 H 0.78952 0.61856 0.51541 0.0
H546 H 0.87509 0.66 0.51641 0.0
H547 H 0.85758 0.65951 0.49747 0.0
H548 H 0.84258 0.61873 0.53501 0.0
H549 H 0.82509 0.61832 0.516 0.0
H550 H 0.86643 0.63094 0.46391 0.0
H551 H 0.84501 0.62635 0.4789 0.0
H552 H 0.86669 0.6671 0.44073 0.0
H553 H 0.84597 0.66308 0.45652 0.0
N554 N 0.8209 0.64364 0.47028 0.0
N555 N 0.81683 0.63712 0.50165 0.0
C556 C 0.34503 0.21564 0.46579 0.0
C557 C 0.35339 0.22116 0.45197 0.0
C558 C 0.34628 0.20557 0.47516 0.0
C559 C 0.35629 0.20121 0.47121 0.0
C560 C 0.36316 0.21659 0.44778 0.0
C561 C 0.36462 0.20673 0.45735 0.0
C562 C 0.35723 0.18997 0.48054 0.0
C563 C 0.36684 0.2257 0.5158 0.0
C564 C 0.35639 0.22135 0.52789 0.0
C565 C 0.36718 0.21544 0.50573 0.0
C566 C 0.35708 0.2007 0.50763 0.0
C567 C 0.34647 0.20657 0.52985 0.0
C568 C 0.34686 0.19638 0.51989 0.0
C569 C 0.35716 0.18953 0.49735 0.0
C570 C 0.3648 0.13858 0.5119 0.0
C571 C 0.35498 0.13266 0.5246 0.0
C572 C 0.3652 0.14959 0.50257 0.0
C573 C 0.35578 0.15485 0.50577 0.0
C574 C 0.34562 0.138 0.52778 0.0
C575 C 0.34608 0.14903 0.51852 0.0
C576 C 0.35634 0.16686 0.4965 0.0
C577 C 0.33976 0.1297 0.46233 0.0
C578 C 0.34911 0.13186 0.44957 0.0
C579 C 0.34225 0.14115 0.47231 0.0
C580 C 0.35418 0.15496 0.46975 0.0
C581 C 0.36104 0.1457 0.44701 0.0
C582 C 0.36347 0.15718 0.45694 0.0
C583 C 0.35636 0.16725 0.47973 0.0
H584 H 0.3372 0.2188 0.46907 0.0
H585 H 0.33915 0.20097 0.48528 0.0
H586 H 0.36969 0.22068 0.43715 0.0
H587 H 0.37223 0.20334 0.45387 0.0
H588 H 0.37463 0.23701 0.51404 0.0
H589 H 0.37535 0.219 0.49653 0.0
H590 H 0.33847 0.20285 0.53926 0.0
H591 H 0.33906 0.18506 0.52168 0.0
H592 H 0.37213 0.13467 0.50916 0.0
H593 H 0.37301 0.15413 0.49301 0.0
H594 H 0.33811 0.13385 0.53764 0.0
H595 H 0.33881 0.15301 0.52132 0.0
H596 H 0.33052 0.11914 0.46464 0.0
H597 H 0.33472 0.13925 0.48188 0.0
H598 H 0.36833 0.1477 0.43715 0.0
H599 H 0.37261 0.16781 0.45463 0.0
N600 N 0.35692 0.17883 0.47241 0.0
N601 N 0.35666 0.17797 0.50462 0.0
C602 C 0.78451 0.12997 0.46191 0.0
C603 C 0.77812 0.13214 0.44839 0.0
C604 C 0.79402 0.14163 0.47132 0.0
C605 C 0.79711 0.15569 0.46762 0.0
C606 C 0.78132 0.14622 0.44458 0.0
C607 C 0.79077 0.15789 0.4541 0.0
C608 C 0.80805 0.16818 0.47684 0.0
C609 C 0.77261 0.14223 0.51256 0.0
C610 C 0.77714 0.13756 0.52584 0.0
C611 C 0.78277 0.15207 0.5018 0.0
C612 C 0.79758 0.15717 0.50404 0.0
C613 C 0.79193 0.14255 0.52789 0.0
C614 C 0.80202 0.15226 0.51715 0.0
C615 C 0.80874 0.16836 0.49364 0.0
C616 C 0.861 0.22567 0.50972 0.0
C617 C 0.86678 0.22075 0.52157 0.0
C618 C 0.84973 0.21583 0.49998 0.0
C619 C 0.84407 0.20092 0.50196 0.0
C620 C 0.86114 0.20583 0.52337 0.0
C621 C 0.84988 0.19605 0.51373 0.0
C622 C 0.83152 0.19016 0.49269 0.0
C623 C 0.86748 0.21161 0.45707 0.0
C624 C 0.86506 0.21973 0.44565 0.0
C625 C 0.85635 0.2022 0.46713 0.0
C626 C 0.8426 0.20075 0.46593 0.0
C627 C 0.85129 0.2183 0.44451 0.0
C628 C 0.8401 0.20874 0.45447 0.0
C629 C 0.83064 0.19024 0.47597 0.0
H630 H 0.78252 0.1193 0.46494 0.0
H631 H 0.79925 0.13966 0.48123 0.0
H632 H 0.77653 0.1482 0.43425 0.0
H633 H 0.79319 0.16867 0.45085 0.0
H634 H 0.76128 0.13863 0.51077 0.0
H635 H 0.77909 0.15595 0.492 0.0
H636 H 0.79573 0.13895 0.53785 0.0
H637 H 0.81336 0.15601 0.51915 0.0
H638 H 0.86513 0.23711 0.50806 0.0
H639 H 0.84523 0.21984 0.49118 0.0
H640 H 0.86514 0.20166 0.53256 0.0
H641 H 0.84562 0.1846 0.51556 0.0
H642 H 0.87801 0.21258 0.45826 0.0
H643 H 0.85842 0.19589 0.47567 0.0
H644 H 0.84912 0.22434 0.4357 0.0
H645 H 0.8295 0.20761 0.45325 0.0
N646 N 0.81895 0.17925 0.46868 0.0
N647 N 0.82051 0.17927 0.50082 0.0
C648 C 0.98207 0.53523 0.17037 0.0
C649 C 0.99195 0.54107 0.15772 0.0
C650 C 0.98174 0.5244 0.17997 0.0
C651 C 0.99134 0.51929 0.17712 0.0
C652 C 0.0015 0.53589 0.15491 0.0
C653 C 0.00115 0.52508 0.16447 0.0
C654 C 0.99076 0.50735 0.18656 0.0
C655 C 0.00559 0.54405 0.22124 0.0
C656 C 0.99592 0.5415 0.23378 0.0
C657 C 0.00354 0.53284 0.21111 0.0
C658 C 0.99173 0.51888 0.21329 0.0
C659 C 0.98408 0.52752 0.23591 0.0
C660 C 0.98208 0.51628 0.22584 0.0
C661 C 0.99009 0.50678 0.20333 0.0
C662 C 0.00361 0.46105 0.21992 0.0
C663 C 0.99324 0.4533 0.23168 0.0
C664 C 0.00221 0.47085 0.21022 0.0
C665 C 0.99045 0.47309 0.21214 0.0
C666 C 0.9814 0.45545 0.23348 0.0
C667 C 0.98011 0.4654 0.22389 0.0
C668 C 0.98953 0.48423 0.20276 0.0
C669 C 0.98124 0.44864 0.16816 0.0
C670 C 0.99114 0.45298 0.15548 0.0
C671 C 0.981 0.45891 0.17827 0.0
C672 C 0.99075 0.47369 0.17598 0.0
C673 C 0.00081 0.46778 0.15321 0.0
C674 C 0.00058 0.478 0.16332 0.0
C675 C 0.99034 0.48486 0.186 0.0
H676 H 0.97459 0.53902 0.17284 0.0
H677 H 0.97381 0.51986 0.18941 0.0
H678 H 0.00905 0.53995 0.14508 0.0
H679 H 0.00855 0.52121 0.16193 0.0
H680 H 0.01477 0.55472 0.21926 0.0
H681 H 0.01134 0.53502 0.20177 0.0
H682 H 0.97655 0.52521 0.2456 0.0
H683 H 0.97303 0.50554 0.22786 0.0
H684 H 0.01281 0.45954 0.21826 0.0
H685 H 0.01048 0.4769 0.20144 0.0
H686 H 0.97335 0.44972 0.24257 0.0
H687 H 0.97106 0.46713 0.22567 0.0
H688 H 0.97366 0.43732 0.17024 0.0
H689 H 0.97303 0.4553 0.18768 0.0
H690 H 0.00837 0.47154 0.14339 0.0
H691 H 0.0081 0.48934 0.16118 0.0
N692 N 0.99093 0.49641 0.17859 0.0
N693 N 0.98938 0.49518 0.21078 0.0
C694 C 0.47288 0.44304 0.16845 0.0
C695 C 0.46626 0.44766 0.15725 0.0
C696 C 0.48333 0.45291 0.17894 0.0
C697 C 0.48742 0.46756 0.17829 0.0
C698 C 0.47012 0.46231 0.15711 0.0
C699 C 0.48073 0.47216 0.16734 0.0
C700 C 0.49923 0.47837 0.18825 0.0
C701 C 0.46094 0.45453 0.22034 0.0
C702 C 0.46325 0.4482 0.23381 0.0
C703 C 0.47254 0.46411 0.2109 0.0
C704 C 0.48666 0.46729 0.21448 0.0
C705 C 0.47739 0.45157 0.23758 0.0
C706 C 0.48899 0.46103 0.228 0.0
C707 C 0.49914 0.478 0.20503 0.0
C708 C 0.5483 0.53699 0.22134 0.0
C709 C 0.55334 0.53366 0.23519 0.0
C710 C 0.53816 0.526 0.21166 0.0
C711 C 0.53325 0.51145 0.21532 0.0
C712 C 0.54814 0.51915 0.23916 0.0
C713 C 0.53822 0.50813 0.22927 0.0
C714 C 0.52213 0.49967 0.20542 0.0
C715 C 0.55954 0.52547 0.17199 0.0
C716 C 0.5562 0.53237 0.15988 0.0
C717 C 0.54857 0.51492 0.18147 0.0
C718 C 0.5341 0.51112 0.17896 0.0
C719 C 0.54169 0.52839 0.15731 0.0
C720 C 0.53076 0.51782 0.16668 0.0
C721 C 0.52223 0.49988 0.1886 0.0
H722 H 0.47032 0.4319 0.16882 0.0
H723 H 0.48851 0.44919 0.18723 0.0
H724 H 0.46501 0.46625 0.14903 0.0
H725 H 0.48371 0.48343 0.16674 0.0
H726 H 0.45019 0.45238 0.21736 0.0
H727 H 0.47045 0.46931 0.20105 0.0
H728 H 0.47947 0.44683 0.2479 0.0
H729 H 0.4998 0.46349 0.23117 0.0
H730 H 0.55192 0.54811 0.21825 0.0
H731 H 0.53397 0.52892 0.20149 0.0
H732 H 0.55185 0.51635 0.24985 0.0
H733 H 0.53439 0.49701 0.23252 0.0
H734 H 0.57062 0.52832 0.17422 0.0
H735 H 0.55136 0.50968 0.19068 0.0
H736 H 0.53875 0.53333 0.14789 0.0
H737 H 0.51967 0.51496 0.16443 0.0
N738 N 0.51072 0.48929 0.18072 0.0
N739 N 0.51064 0.48864 0.21295 0.0
C740 C 0.46166 0.01311 0.22201 0.0
C741 C 0.45557 0.00232 0.23376 0.0
C742 C 0.47297 0.01445 0.21245 0.0
C743 C 0.47816 0.0048 0.21415 0.0
C744 C 0.46105 0.99291 0.23565 0.0
C745 C 0.47219 0.99413 0.22595 0.0
C746 C 0.49031 0.00613 0.2044 0.0
C747 C 0.45543 0.99778 0.16882 0.0
C748 C 0.45926 0.00887 0.15762 0.0
C749 C 0.46584 0.9978 0.17885 0.0
C750 C 0.48027 0.00902 0.17803 0.0
C751 C 0.47371 0.02011 0.15688 0.0
C752 C 0.48412 0.02012 0.16692 0.0
C753 C 0.49159 0.00872 0.18784 0.0
C754 C 0.53875 0.99766 0.1682 0.0
C755 C 0.54604 0.00882 0.15708 0.0
C756 C 0.52857 0.99779 0.17851 0.0
C757 C 0.52556 0.00913 0.17795 0.0
C758 C 0.54311 0.02023 0.15668 0.0
C759 C 0.53289 0.02032 0.16694 0.0
C760 C 0.51395 0.0088 0.18781 0.0
C761 C 0.54842 0.01371 0.22218 0.0
C762 C 0.54377 0.00302 0.23403 0.0
C763 C 0.53842 0.01478 0.21242 0.0
C764 C 0.52357 0.00497 0.21407 0.0
C765 C 0.52888 0.99336 0.23577 0.0
C766 C 0.51892 0.99434 0.22591 0.0
C767 C 0.51268 0.0062 0.20436 0.0
H768 H 0.45769 0.0205 0.22012 0.0
H769 H 0.4777 0.02313 0.20385 0.0
H770 H 0.45689 0.98469 0.2448 0.0
H771 H 0.47616 0.9867 0.22769 0.0
H772 H 0.44438 0.98901 0.16974 0.0
H773 H 0.46266 0.98891 0.18705 0.0
H774 H 0.47708 0.02867 0.14821 0.0
H775 H 0.49522 0.02877 0.16593 0.0
H776 H 0.54082 0.98876 0.16883 0.0
H777 H 0.5228 0.98886 0.18665 0.0
H778 H 0.54839 0.02886 0.14809 0.0
H779 H 0.53059 0.02906 0.16617 0.0
H780 H 0.5598 0.02128 0.22042 0.0
H781 H 0.54231 0.02341 0.20378 0.0
H782 H 0.52486 0.98519 0.24496 0.0
H783 H 0.50752 0.98677 0.2276 0.0
N784 N 0.50088 0.00493 0.21194 0.0
N785 N 0.50341 0.01004 0.18024 0.0
C786 C 0.54445 0.00397 0.79904 0.0
C787 C 0.54128 0.99564 0.78513 0.0
C788 C 0.53334 0.00317 0.80848 0.0
C789 C 0.51884 0.99373 0.80443 0.0
C790 C 0.52678 0.98643 0.78089 0.0
C791 C 0.51566 0.9855 0.79046 0.0
C792 C 0.50695 0.99313 0.81402 0.0
C793 C 0.5306 0.97869 0.84675 0.0
C794 C 0.53719 0.98799 0.85975 0.0
C795 C 0.52063 0.98008 0.83726 0.0
C796 C 0.51713 0.99083 0.84056 0.0
C797 C 0.53346 0.99857 0.86315 0.0
C798 C 0.52348 -8e-05 0.85371 0.0
C799 C 0.50652 0.99245 0.83081 0.0
C800 C 0.4488 0.98596 0.84722 0.0
C801 C 0.45295 0.99494 0.86072 0.0
C802 C 0.45924 0.98587 0.83726 0.0
C803 C 0.474 0.99488 0.84052 0.0
C804 C 0.46775 0.00389 0.86393 0.0
C805 C 0.47813 0.00381 0.85397 0.0
C806 C 0.48527 0.99443 0.83076 0.0
C807 C 0.46333 0.01073 0.79795 0.0
C808 C 0.45689 0.00203 0.7845 0.0
C809 C 0.47255 0.0084 0.80768 0.0
C810 C 0.47537 0.9972 0.80426 0.0
C811 C 0.45987 0.99093 0.78103 0.0
C812 C 0.46907 0.9886 0.79077 0.0
C813 C 0.48562 0.99498 0.81397 0.0
H814 H 0.55554 0.01138 0.8024 0.0
H815 H 0.53612 0.01011 0.8188 0.0
H816 H 0.52405 0.97988 0.77024 0.0
H817 H 0.50456 0.97831 0.78696 0.0
H818 H 0.53327 0.97045 0.84383 0.0
H819 H 0.51561 0.97272 0.82739 0.0
H820 H 0.53813 0.00572 0.87325 0.0
H821 H 0.52081 0.00817 0.8566 0.0
H822 H 0.4375 0.97896 0.8444 0.0
H823 H 0.45575 0.97859 0.82718 0.0
H824 H 0.47134 0.01071 0.87439 0.0
H825 H 0.48945 0.01072 0.85685 0.0
H826 H 0.46121 0.01933 0.801 0.0
H827 H 0.47763 0.01548 0.81775 0.0
H828 H 0.45531 0.9842 0.7706 0.0
H829 H 0.47127 0.98005 0.78775 0.0
N830 N 0.4964 0.99424 0.80628 0.0
N831 N 0.49577 0.99323 0.83848 0.0
C832 C 0.99065 0.53783 0.79825 0.0
C833 C -0.00076 0.54371 0.78464 0.0
C834 C 0.99188 0.52764 0.80746 0.0
C835 C 0.00204 0.52349 0.80348 0.0
C836 C 0.00909 0.53924 0.78039 0.0
C837 C 0.01048 0.52923 0.78974 0.0
C838 C 0.0034 0.51257 0.81294 0.0
C839 C 0.01371 0.54905 0.84727 0.0
C840 C 0.0044 0.54496 0.86048 0.0
C841 C 0.01351 0.53859 0.83711 0.0
C842 C 0.00386 0.52387 0.83987 0.0
C843 C 0.99489 0.5302 0.86326 0.0
C844 C 0.99466 0.51979 0.85309 0.0
C845 C 0.00378 0.51252 0.82974 0.0
C846 C 0.01702 0.46551 0.84513 0.0
C847 C 0.00768 0.45924 0.85817 0.0
C848 C 0.01599 0.47563 0.83554 0.0
C849 C 0.00553 0.47956 0.83876 0.0
C850 C 0.99732 0.46332 0.8614 0.0
C851 C 0.99631 0.47341 0.85184 0.0
C852 C 0.00455 0.49063 0.82921 0.0
C853 C 0.99307 0.45333 0.79642 0.0
C854 C 0.00153 0.45675 0.7826 0.0
C855 C 0.99381 0.46428 0.80612 0.0
C856 C 0.00336 0.47884 0.80243 0.0
C857 C 0.01077 0.4713 0.77866 0.0
C858 C 0.01168 0.48224 0.7885 0.0
C859 C 0.00412 0.49062 0.81241 0.0
H860 H 0.98279 0.5409 0.8016 0.0
H861 H 0.98478 0.52293 0.81757 0.0
H862 H 0.01585 0.54363 0.76995 0.0
H863 H 0.01824 0.52604 0.78629 0.0
H864 H 0.02115 0.56033 0.84478 0.0
H865 H 0.02099 0.54201 0.82722 0.0
H866 H 0.9878 0.52664 0.8735 0.0
H867 H 0.98727 0.5085 0.85559 0.0
H868 H 0.02509 0.46257 0.84232 0.0
H869 H 0.02347 0.4805 0.82574 0.0
H870 H 0.99015 0.45891 0.87153 0.0
H871 H 0.98828 0.47641 0.85467 0.0
H872 H 0.98565 0.44219 0.79954 0.0
H873 H 0.98677 0.46132 0.81637 0.0
H874 H 0.01742 0.4742 0.76807 0.0
H875 H 0.01897 0.49339 0.78527 0.0
N876 N 0.00368 0.50165 0.80497 0.0
N877 N 0.00426 0.50151 0.83716 0.0
C878 C 0.52785 0.55529 0.79436 0.0
C879 C 0.53594 0.55079 0.78529 0.0
C880 C 0.51632 0.54542 0.80374 0.0
C881 C 0.51275 0.53089 0.80432 0.0
C882 C 0.53227 0.53622 0.78587 0.0
C883 C 0.52074 0.52637 0.79521 0.0
C884 C 0.50026 0.52014 0.81366 0.0
C885 C 0.53219 0.54994 0.85011 0.0
C886 C 0.52692 0.55634 0.86076 0.0
C887 C 0.52281 0.53906 0.83974 0.0
C888 C 0.50802 0.53461 0.83953 0.0
C889 C 0.51214 0.55193 0.8605 0.0
C890 C 0.50279 0.54116 0.85 0.0
C891 C 0.49769 0.52221 0.82966 0.0
C892 C 0.44892 0.46403 0.84904 0.0
C893 C 0.44173 0.46861 0.85941 0.0
C894 C 0.45986 0.47391 0.83904 0.0
C895 C 0.46351 0.48849 0.83892 0.0
C896 C 0.44538 0.48317 0.8593 0.0
C897 C 0.45615 0.49299 0.84914 0.0
C898 C 0.47581 0.49939 0.82939 0.0
C899 C 0.44484 0.46757 0.79352 0.0
C900 C 0.45061 0.4605 0.78463 0.0
C901 C 0.45381 0.4795 0.80299 0.0
C902 C 0.46868 0.48447 0.80386 0.0
C903 C 0.46553 0.46563 0.78541 0.0
C904 C 0.47447 0.47752 0.79487 0.0
C905 C 0.47847 0.4973 0.81341 0.0
H906 H 0.53024 0.56638 0.79397 0.0
H907 H 0.51006 0.54908 0.81033 0.0
H908 H 0.53839 0.53243 0.77922 0.0
H909 H 0.51813 0.5152 0.79541 0.0
H910 H 0.54348 0.55293 0.85027 0.0
H911 H 0.52708 0.53382 0.83228 0.0
H912 H 0.50779 0.55671 0.86853 0.0
H913 H 0.49142 0.53782 0.8502 0.0
H914 H 0.44649 0.45292 0.84911 0.0
H915 H 0.46573 0.47021 0.83179 0.0
H916 H 0.43997 0.48697 0.86717 0.0
H917 H 0.45886 0.50419 0.84942 0.0
H918 H 0.43338 0.46385 0.79322 0.0
H919 H 0.44914 0.48489 0.8095 0.0
H920 H 0.47036 0.4606 0.77849 0.0
H921 H 0.48594 0.48129 0.79519 0.0
N922 N 0.49061 0.50774 0.80624 0.0
N923 N 0.48552 0.51179 0.83681 0.0
C924 C 0.64725 0.78161 0.50316 0.0
C925 C 0.63691 0.776 0.49096 0.0
C926 C 0.64736 0.79161 0.51396 0.0
C927 C 0.63682 0.79577 0.51303 0.0
C928 C 0.62635 0.78008 0.49009 0.0
C929 C 0.62628 0.78982 0.50105 0.0
C930 C 0.63763 0.80756 0.52303 0.0
C931 C 0.63464 0.77384 0.55733 0.0
C932 C 0.64594 0.77892 0.56851 0.0
C933 C 0.63266 0.78352 0.54797 0.0
C934 C 0.64218 0.79845 0.54931 0.0
C935 C 0.6551 0.7939 0.57018 0.0
C936 C 0.65326 0.80352 0.56068 0.0
C937 C 0.64051 0.80904 0.53954 0.0
C938 C 0.63614 0.86174 0.55672 0.0
C939 C 0.64749 0.86785 0.56785 0.0
C940 C 0.63383 0.84988 0.54751 0.0
C941 C 0.64303 0.84412 0.54898 0.0
C942 C 0.65634 0.8617 0.56965 0.0
C943 C 0.65414 0.85001 0.56031 0.0
C944 C 0.64097 0.83162 0.53938 0.0
C945 C 0.64924 0.86595 0.5027 0.0
C946 C 0.63899 0.86152 0.49042 0.0
C947 C 0.64884 0.8559 0.5136 0.0
C948 C 0.6379 0.84133 0.5127 0.0
C949 C 0.62804 0.84701 0.48957 0.0
C950 C 0.62747 0.83704 0.50063 0.0
C951 C 0.63813 0.83015 0.52286 0.0
H952 H 0.65563 0.77877 0.50387 0.0
H953 H 0.65598 0.79645 0.52263 0.0
H954 H 0.61829 0.77588 0.48075 0.0
H955 H 0.61816 0.79299 0.49994 0.0
H956 H 0.62739 0.76239 0.55566 0.0
H957 H 0.62371 0.77931 0.53971 0.0
H958 H 0.66366 0.79827 0.57894 0.0
H959 H 0.6606 0.81499 0.56217 0.0
H960 H 0.62913 0.8662 0.55498 0.0
H961 H 0.62486 0.84524 0.53925 0.0
H962 H 0.66493 0.86584 0.57838 0.0
H963 H 0.66125 0.84562 0.56189 0.0
H964 H 0.65792 0.87706 0.50341 0.0
H965 H 0.65738 0.85944 0.52233 0.0
H966 H 0.62002 0.84336 0.48021 0.0
H967 H 0.61904 0.82585 0.49953 0.0
N968 N 0.63647 0.81813 0.51547 0.0
N969 N 0.6421 0.82103 0.54697 0.0
C970 C 0.13997 0.77553 0.50571 0.0
C971 C 0.13276 0.77984 0.49494 0.0
C972 C 0.15027 0.78552 0.51626 0.0
C973 C 0.15356 0.79996 0.51614 0.0
C974 C 0.13586 0.79425 0.49529 0.0
C975 C 0.14627 0.80422 0.5056 0.0
C976 C 0.16512 0.81098 0.52622 0.0
C977 C 0.12811 0.78392 0.55855 0.0
C978 C 0.13124 0.77777 0.57158 0.0
C979 C 0.13922 0.79431 0.5492 0.0
C980 C 0.15369 0.79844 0.55236 0.0
C981 C 0.14569 0.78212 0.57504 0.0
C982 C 0.15683 0.79235 0.56548 0.0
C983 C 0.16559 0.80997 0.54295 0.0
C984 C 0.20875 0.8696 0.56225 0.0
C985 C 0.21673 0.86724 0.57391 0.0
C986 C 0.19955 0.85847 0.55208 0.0
C987 C 0.19814 0.84476 0.55339 0.0
C988 C 0.21546 0.85356 0.57509 0.0
C989 C 0.20609 0.84235 0.56501 0.0
C990 C 0.1875 0.83271 0.54349 0.0
C991 C 0.22248 0.86063 0.50783 0.0
C992 C 0.21781 0.86679 0.49615 0.0
C993 C 0.21257 0.8503 0.51839 0.0
C994 C 0.19785 0.84597 0.5174 0.0
C995 C 0.20315 0.86287 0.49576 0.0
C996 C 0.19327 0.85246 0.50615 0.0
C997 C 0.18692 0.83371 0.52683 0.0
H998 H 0.13799 0.76458 0.50569 0.0
H999 H 0.15592 0.78207 0.5242 0.0
H1000 H 0.13028 0.79791 0.48753 0.0
H1001 H 0.14862 0.81531 0.50539 0.0
H1002 H 0.11708 0.78101 0.55588 0.0
H1003 H 0.13646 0.79937 0.53978 0.0
H1004 H 0.14836 0.77757 0.58509 0.0
H1005 H 0.1679 0.79556 0.56836 0.0
H1006 H 0.20959 0.88007 0.56104 0.0
H1007 H 0.19326 0.86049 0.54345 0.0
H1008 H 0.22142 0.85145 0.58407 0.0
H1009 H 0.205 0.83178 0.56633 0.0
H1010 H 0.23366 0.86329 0.50838 0.0
H1011 H 0.2163 0.84525 0.52683 0.0
H1012 H 0.19922 0.86764 0.4872 0.0
H1013 H 0.18196 0.8493 0.50523 0.0
N1014 N 0.17575 0.82282 0.51886 0.0
N1015 N 0.17685 0.82086 0.55093 0.0
C1016 C 0.225 0.36535 0.50507 0.0
C1017 C 0.22099 0.35517 0.49272 0.0
C1018 C 0.21447 0.36553 0.51481 0.0
C1019 C 0.19978 0.35554 0.51234 0.0
C1020 C 0.20627 0.3453 0.49024 0.0
C1021 C 0.19579 0.34554 0.49988 0.0
C1022 C 0.18834 0.35565 0.52214 0.0
C1023 C 0.21262 0.34226 0.55484 0.0
C1024 C 0.21827 0.35072 0.56858 0.0
C1025 C 0.20299 0.34393 0.54512 0.0
C1026 C 0.19914 0.35438 0.5487 0.0
C1027 C 0.2142 0.36096 0.57237 0.0
C1028 C 0.20472 0.36278 0.5625 0.0
C1029 C 0.18834 0.35572 0.53895 0.0
C1030 C 0.12788 0.34157 0.55457 0.0
C1031 C 0.13055 0.35034 0.56802 0.0
C1032 C 0.13929 0.34314 0.54508 0.0
C1033 C 0.15356 0.35384 0.54855 0.0
C1034 C 0.14484 0.36076 0.57177 0.0
C1035 C 0.15624 0.3625 0.56211 0.0
C1036 C 0.16581 0.35533 0.53887 0.0
C1037 C 0.13744 0.36278 0.5048 0.0
C1038 C 0.13177 0.35251 0.49248 0.0
C1039 C 0.14851 0.36375 0.51454 0.0
C1040 C 0.15401 0.35441 0.51215 0.0
C1041 C 0.1375 0.34338 0.49001 0.0
C1042 C 0.14851 0.34436 0.4997 0.0
C1043 C 0.16581 0.35519 0.52206 0.0
H1044 H 0.23627 0.37308 0.50725 0.0
H1045 H 0.21779 0.37354 0.52416 0.0
H1046 H 0.20281 0.3375 0.48065 0.0
H1047 H 0.18451 0.33783 0.49765 0.0
H1048 H 0.21534 0.33406 0.55184 0.0
H1049 H 0.19832 0.33679 0.53502 0.0
H1050 H 0.21841 0.3676 0.58291 0.0
H1051 H 0.20171 0.37073 0.56567 0.0
H1052 H 0.11698 0.33325 0.55163 0.0
H1053 H 0.13693 0.33582 0.53518 0.0
H1054 H 0.14716 0.36763 0.5821 0.0
H1055 H 0.16717 0.37064 0.5652 0.0
H1056 H 0.13326 0.36997 0.50698 0.0
H1057 H 0.15281 0.37181 0.52386 0.0
H1058 H 0.13362 0.33559 0.48041 0.0
H1059 H 0.15269 0.33715 0.49751 0.0
N1060 N 0.17704 0.3553 0.51442 0.0
N1061 N 0.17714 0.3557 0.54662 0.0
C1062 C 0.98314 0.36875 0.05066 0.0
C1063 C 0.99671 0.37305 0.04388 0.0
C1064 C 0.98182 0.37672 0.0631 0.0
C1065 C 0.0013 0.41296 0.08176 0.0
H1066 H 0.97579 0.39412 0.11752 0.0
C1067 C 0.00431 0.44412 0.13837 0.0
C1068 C 0.99118 0.44226 0.14427 0.0
C1069 C 0.00442 0.43491 0.1267 0.0
C1070 C 0.98288 0.39951 0.10754 0.0
H1071 H 0.01955 0.38888 0.04498 0.0
H1072 H 0.01732 0.40253 0.06677 0.0
H1073 H 0.97693 0.37955 0.09572 0.0
H1074 H 0.96787 0.4289 0.14288 0.0
H1075 H 0.96809 0.41266 0.12258 0.0
H1076 H 0.0074 0.43287 0.09364 0.0
C1077 C 0.00762 0.39324 0.06231 0.0
C1078 C 0.9835 0.39119 0.09504 0.0
C1079 C 0.00892 0.38536 0.04986 0.0
C1080 C 0.97817 0.43057 0.1387 0.0
C1081 C 0.97828 0.42128 0.12705 0.0
C1082 C 0.00075 0.42123 0.09427 0.0
C1083 C 0.99406 0.38911 0.06902 0.0
C1084 C 0.99282 0.39783 0.08206 0.0
C1085 C 0.99141 0.42356 0.1207 0.0
C1086 C 0.99164 0.41461 0.10736 0.0
H1087 H 0.97354 0.3593 0.04627 0.0
H1088 H 0.97119 0.3733 0.0679 0.0
H1089 H 0.00834 0.41847 0.0718 0.0
H1090 H 0.01453 0.45282 0.14266 0.0
H1091 H 0.01471 0.43675 0.12225 0.0
C1092 C 0.62037 0.62204 0.06014 0.0
C1093 C 0.63009 0.62093 0.04982 0.0
C1094 C 0.61505 0.61321 0.07351 0.0
C1095 C 0.60776 0.57833 0.08916 0.0
H1096 H 0.6019 0.59346 0.12865 0.0
C1097 C 0.57849 0.54146 0.143 0.0
C1098 C 0.56766 0.54359 0.14971 0.0
C1099 C 0.58848 0.55152 0.1323 0.0
C1100 C 0.60344 0.58906 0.1177 0.0
H1101 H 0.64199 0.60979 0.04548 0.0
H1102 H 0.63258 0.59421 0.06894 0.0
H1103 H 0.6151 0.60993 0.10694 0.0
H1104 H 0.55924 0.55823 0.15111 0.0
H1105 H 0.5765 0.57565 0.13238 0.0
H1106 H 0.59571 0.55741 0.09977 0.0
C1107 C 0.62907 0.60193 0.0666 0.0
C1108 C 0.611 0.59849 0.10527 0.0
C1109 C 0.63449 0.61086 0.05323 0.0
C1110 C 0.56736 0.55622 0.14598 0.0
C1111 C 0.57736 0.56628 0.13538 0.0
C1112 C 0.60017 0.56888 0.10162 0.0
C1113 C 0.61927 0.603 0.07687 0.0
C1114 C 0.61292 0.5932 0.09072 0.0
C1115 C 0.5879 0.56396 0.12822 0.0
C1116 C 0.59761 0.57411 0.11587 0.0
H1117 H 0.61677 0.62969 0.05783 0.0
H1118 H 0.60733 0.61415 0.08102 0.0
H1119 H 0.60896 0.57391 0.07806 0.0
H1120 H 0.57893 0.53179 0.14561 0.0
H1121 H 0.59655 0.54949 0.12708 0.0
C1122 C 0.37218 0.99058 0.05332 0.0
C1123 C 0.37174 0.0028 0.04805 0.0
C1124 C 0.3813 0.99166 0.06574 0.0
C1125 C 0.40249 0.01438 0.09961 0.0
H1126 H 0.42306 0.99336 0.09475 0.0
C1127 C 0.44821 0.02101 0.14213 0.0
C1128 C 0.44842 0.00839 0.14622 0.0
C1129 C 0.43853 0.02063 0.1307 0.0
C1130 C 0.41727 -0.00084 0.09639 0.0
H1131 H 0.38031 0.02568 0.05183 0.0
H1132 H 0.39646 0.02762 0.07353 0.0
H1133 H 0.40695 0.99235 0.07377 0.0
H1134 H 0.4385 0.98543 0.1416 0.0
H1135 H 0.42148 0.98471 0.12191 0.0
H1136 H 0.41294 0.02124 0.12227 0.0
C1137 C 0.38962 0.01718 0.06812 0.0
C1138 C 0.40804 0.99859 0.08435 0.0
C1139 C 0.38043 0.01609 0.05566 0.0
C1140 C 0.43854 0.99533 0.13885 0.0
C1141 C 0.4289 0.99495 0.12742 0.0
C1142 C 0.41178 0.01498 0.11168 0.0
C1143 C 0.39026 0.00498 0.07316 0.0
C1144 C 0.40043 0.00608 0.08586 0.0
C1145 C 0.4289 0.00762 0.12307 0.0
C1146 C 0.41918 0.00727 0.11024 0.0
H1147 H 0.36552 0.98015 0.04779 0.0
H1148 H 0.38131 0.982 0.06953 0.0
H1149 H 0.39669 0.02018 0.10119 0.0
H1150 H 0.45559 0.03122 0.14771 0.0
H1151 H 0.43885 0.03059 0.12755 0.0
C1152 C 0.38294 0.00765 0.9675 0.0
C1153 C 0.37017 0.99523 0.97219 0.0
C1154 C 0.39121 0.00708 0.95499 0.0
C1155 C 0.38971 0.98539 0.91998 0.0
H1156 H 0.43142 0.00785 0.9237 0.0
C1157 C 0.4298 0.98154 0.87619 0.0
C1158 C 0.44202 0.99467 0.87183 0.0
C1159 C 0.42025 0.98123 0.88777 0.0
C1160 C 0.41978 0.00163 0.92242 0.0
H1161 H 0.35599 0.97247 0.96747 0.0
H1162 H 0.37064 0.97137 0.94575 0.0
H1163 H 0.41642 0.00767 0.94554 0.0
H1164 H 0.45331 0.01784 0.87554 0.0
H1165 H 0.43676 0.01725 0.89584 0.0
H1166 H 0.39322 0.97922 0.89686 0.0
C1167 C 0.37414 0.98161 0.9516 0.0
C1168 C 0.41118 0.00153 0.93493 0.0
C1169 C 0.3658 0.98221 0.96409 0.0
C1170 C 0.44418 0.00752 0.87887 0.0
C1171 C 0.4347 0.00719 0.89049 0.0
C1172 C 0.39836 0.98541 0.90748 0.0
C1173 C 0.38697 0.99405 0.94694 0.0
C1174 C 0.39603 0.99355 0.93381 0.0
C1175 C 0.42279 0.99403 0.89526 0.0
C1176 C 0.41348 0.99367 0.90852 0.0
H1177 H 0.38654 0.01788 0.97342 0.0
H1178 H 0.40086 0.01693 0.95153 0.0
H1179 H 0.37809 0.97925 0.91866 0.0
H1180 H 0.42789 0.97144 0.87111 0.0
H1181 H 0.41119 0.97092 0.89129 0.0
C1182 C 0.99532 0.37549 0.96136 0.0
C1183 C 0.00764 0.3765 0.96855 0.0
C1184 C 0.99661 0.38387 0.94811 0.0
C1185 C 0.02153 0.41745 0.92784 0.0
H1186 H 0.99454 0.40033 0.89286 0.0
C1187 C 0.02241 0.45106 0.8736 0.0
C1188 C 0.00885 0.44873 0.86867 0.0
C1189 C 0.02341 0.44167 0.88441 0.0
C1190 C 0.00211 0.4053 0.90257 0.0
H1191 H 0.03099 0.38712 0.96756 0.0
H1192 H 0.03328 0.40196 0.94435 0.0
H1193 H 0.99423 0.38512 0.91458 0.0
H1194 H 0.98573 0.43437 0.8707 0.0
H1195 H 0.98743 0.41823 0.88976 0.0
H1196 H 0.02912 0.43771 0.91609 0.0
C1197 C 0.02263 0.39464 0.94902 0.0
C1198 C 0.00194 0.39658 0.91499 0.0
C1199 C 0.02132 0.38613 0.96225 0.0
C1200 C 0.99633 0.43658 0.87442 0.0
C1201 C 0.99732 0.42722 0.8852 0.0
C1202 C 0.02165 0.4262 0.91544 0.0
C1203 C 0.01027 0.39354 0.94179 0.0
C1204 C 0.01146 0.4026 0.9279 0.0
C1205 C 0.01086 0.42973 0.89048 0.0
C1206 C 0.01175 0.42026 0.90281 0.0
H1207 H 0.98462 0.36817 0.96595 0.0
H1208 H 0.98691 0.38295 0.94296 0.0
H1209 H 0.02891 0.42241 0.9377 0.0
H1210 H 0.03226 0.46038 0.86947 0.0
H1211 H 0.034 0.44383 0.8881 0.0
C1212 C 0.60033 0.6199 0.97516 0.0
C1213 C 0.6142 0.63176 0.97264 0.0
C1214 C 0.59073 0.61368 0.96247 0.0
C1215 C 0.5902 0.60807 0.91977 0.0
H1216 H 0.54971 0.59664 0.92303 0.0
C1217 C 0.55039 0.57819 0.86843 0.0
C1218 C 0.53664 0.56693 0.87274 0.0
C1219 C 0.55978 0.58769 0.87994 0.0
C1220 C 0.56095 0.59962 0.92196 0.0
H1221 H 0.62885 0.64657 0.95493 0.0
H1222 H 0.61211 0.63551 0.93265 0.0
H1223 H 0.5662 0.61032 0.94457 0.0
H1224 H 0.52193 0.55676 0.89246 0.0
H1225 H 0.53834 0.57304 0.91257 0.0
H1226 H 0.58495 0.59691 0.89753 0.0
C1227 C 0.60868 0.63109 0.94448 0.0
C1228 C 0.5704 0.60752 0.93429 0.0
C1229 C 0.61821 0.63745 0.95722 0.0
C1230 C 0.53239 0.56547 0.88875 0.0
C1231 C 0.54181 0.57486 0.90027 0.0
C1232 C 0.58073 0.60003 0.90752 0.0
C1233 C 0.59489 0.61907 0.94696 0.0
C1234 C 0.58508 0.61168 0.93339 0.0
C1235 C 0.55567 0.58605 0.89606 0.0
C1236 C 0.56594 0.59553 0.90854 0.0
H1237 H 0.59694 0.6153 0.98692 0.0
H1238 H 0.58022 0.60434 0.96471 0.0
H1239 H 0.60144 0.61099 0.91885 0.0
H1240 H 0.55389 0.57964 0.85614 0.0
H1241 H 0.57026 0.59632 0.8762 0.0
C1242 C 0.99187 0.61569 0.96666 0.0
C1243 C 0.00436 0.62833 0.9715 0.0
C1244 C 0.99242 0.60736 0.95423 0.0
C1245 C 0.0145 0.60842 0.91972 0.0
H1246 H 0.99115 0.56679 0.92322 0.0
C1247 C 0.01803 0.56783 0.87642 0.0
C1248 C 0.00481 0.55591 0.8717 0.0
C1249 C 0.0184 0.57742 0.88798 0.0
C1250 C 0.99763 0.5784 0.922 0.0
H1251 H 0.02725 0.6422 0.96711 0.0
H1252 H 0.02833 0.62741 0.94555 0.0
H1253 H 0.99131 0.58191 0.9449 0.0
H1254 H 0.98156 0.54522 0.87476 0.0
H1255 H 0.98226 0.5618 0.89506 0.0
H1256 H 0.02096 0.60475 0.89683 0.0
C1257 C 0.01803 0.62408 0.9512 0.0
C1258 C 0.99771 0.58709 0.93442 0.0
C1259 C 0.01744 0.6325 0.96361 0.0
C1260 C 0.99195 0.55409 0.87839 0.0
C1261 C 0.99234 0.5636 0.88999 0.0
C1262 C 0.0145 0.59969 0.90732 0.0
C1263 C 0.00552 0.61137 0.9464 0.0
C1264 C 0.00601 0.60221 0.93338 0.0
C1265 C 0.00557 0.57522 0.8951 0.0
C1266 C 0.00594 0.5846 0.90828 0.0
H1267 H 0.98159 0.61226 0.97241 0.0
H1268 H 0.98251 0.59782 0.95065 0.0
H1269 H 0.0209 0.62002 0.91844 0.0
H1270 H 0.02814 0.56947 0.87163 0.0
H1271 H 0.02876 0.58625 0.89176 0.0
C1272 C 0.3591 0.37658 0.95476 0.0
C1273 C 0.36587 0.38015 0.96971 0.0
C1274 C 0.3653 0.38598 0.94186 0.0
C1275 C 0.38963 0.42369 0.93147 0.0
H1276 H 0.3998 0.40938 0.89417 0.0
C1277 C 0.43226 0.46228 0.88714 0.0
C1278 C 0.43108 0.45845 0.87102 0.0
C1279 C 0.42267 0.45258 0.89832 0.0
C1280 C 0.39679 0.41354 0.90431 0.0
H1281 H 0.38412 0.39645 0.98306 0.0
H1282 H 0.39469 0.41297 0.96067 0.0
H1283 H 0.38539 0.39265 0.91521 0.0
H1284 H 0.41878 0.44164 0.85383 0.0
H1285 H 0.40164 0.42478 0.87326 0.0
H1286 H 0.40081 0.44452 0.92069 0.0
C1287 C 0.3847 0.4029 0.95888 0.0
C1288 C 0.38857 0.40393 0.91638 0.0
C1289 C 0.37868 0.39341 0.97166 0.0
C1290 C 0.41997 0.4448 0.86623 0.0
C1291 C 0.41021 0.43514 0.87739 0.0
C1292 C 0.39762 0.43326 0.91932 0.0
C1293 C 0.37817 0.3992 0.94384 0.0
C1294 C 0.38522 0.40899 0.93022 0.0
C1295 C 0.4115 0.43886 0.89362 0.0
C1296 C 0.40165 0.42839 0.90574 0.0
H1297 H 0.34924 0.36639 0.95296 0.0
H1298 H 0.36008 0.38292 0.93034 0.0
H1299 H 0.38703 0.42781 0.94198 0.0
H1300 H 0.44088 0.47266 0.89119 0.0
H1301 H 0.42429 0.45575 0.91071 0.0
C1302 C 0.62408 0.00199 0.95898 0.0
C1303 C 0.62275 0.99004 0.96734 0.0
C1304 C 0.61552 8e-05 0.94569 0.0
C1305 C 0.58088 0.97466 0.92766 0.0
H1306 H 0.59693 -0.00012 0.89112 0.0
C1307 C 0.54533 0.97311 0.87493 0.0
C1308 C 0.54783 0.98669 0.86988 0.0
C1309 C 0.55499 0.97204 0.88526 0.0
C1310 C 0.59227 0.99279 0.90125 0.0
H1311 H 0.61151 0.96667 0.96825 0.0
H1312 H 0.59636 0.9633 0.94493 0.0
H1313 H 0.61294 0.00058 0.91216 0.0
H1314 H 0.56272 0.00973 0.87119 0.0
H1315 H 0.57941 0.0079 0.88936 0.0
H1316 H 0.56016 0.96719 0.91698 0.0
C1317 C 0.60406 0.97416 0.94875 0.0
C1318 C 0.60144 0.99317 0.91329 0.0
C1319 C 0.61275 0.97608 0.96203 0.0
C1320 C 0.56039 -0.00088 0.87502 0.0
C1321 C 0.57005 0.99806 0.88529 0.0
C1322 C 0.57169 0.97429 0.91562 0.0
C1323 C 0.60536 0.98616 0.94046 0.0
C1324 C 0.59582 0.98437 0.9268 0.0
C1325 C 0.5674 0.98452 0.89067 0.0
C1326 C 0.57726 0.98361 0.90247 0.0
H1327 H 0.63169 0.01289 0.96278 0.0
H1328 H 0.61662 0.00954 0.93974 0.0
H1329 H 0.57622 0.96783 0.93799 0.0
H1330 H 0.5357 0.96333 0.87124 0.0
H1331 H 0.55271 0.96145 0.8891 0.0
C1332 C 0.61067 0.99067 0.04808 0.0
C1333 C 0.62414 0.00242 0.0438 0.0
C1334 C 0.60296 0.99175 0.06088 0.0
C1335 C 0.59878 0.01782 0.0854 0.0
H1336 H 0.58078 0.98603 0.11527 0.0
C1337 C 0.56924 0.02069 0.1416 0.0
C1338 C 0.55613 0.00823 0.14538 0.0
C1339 C 0.57835 0.02025 0.12995 0.0
C1340 C 0.58562 0.99494 0.10696 0.0
H1341 H 0.64003 0.02457 0.04942 0.0
H1342 H 0.62647 0.02649 0.0718 0.0
H1343 H 0.59496 0.98484 0.09323 0.0
H1344 H 0.54226 0.98555 0.1399 0.0
H1345 H 0.55803 0.9848 0.1195 0.0
H1346 H 0.58923 0.02781 0.09893 0.0
C1347 C 0.62189 0.01646 0.06521 0.0
C1348 C 0.59375 0.99426 0.09434 0.0
C1349 C 0.62966 0.01535 0.05244 0.0
C1350 C 0.5524 0.99528 0.13743 0.0
C1351 C 0.56146 0.99486 0.12574 0.0
C1352 C 0.59057 0.01847 0.09798 0.0
C1353 C 0.6085 0.00463 0.06964 0.0
C1354 C 0.60032 0.00564 0.08335 0.0
C1355 C 0.5745 0.00736 0.12177 0.0
C1356 C 0.5838 0.00699 0.10884 0.0
H1357 H 0.60613 0.98056 0.04163 0.0
H1358 H 0.59258 0.98252 0.06387 0.0
H1359 H 0.60359 0.02668 0.07703 0.0
H1360 H 0.57248 0.03078 0.14768 0.0
H1361 H 0.58842 0.03002 0.12738 0.0
C1362 C 0.0093 0.62826 0.05447 0.0
C1363 C 0.99682 0.62734 0.04784 0.0
C1364 C 0.00829 0.61947 0.06719 0.0
C1365 C 0.98411 0.59623 0.09925 0.0
H1366 H 0.00931 0.57993 0.09786 0.0
C1367 C 0.97909 0.55092 0.1415 0.0
C1368 C 0.99207 0.55218 0.14704 0.0
C1369 C 0.97928 0.56065 0.13028 0.0
C1370 C 0.00232 0.58453 0.09853 0.0
H1371 H 0.9735 0.61667 0.04951 0.0
H1372 H 0.97168 0.60103 0.07168 0.0
H1373 H 0.01016 0.59555 0.07645 0.0
H1374 H 0.01542 0.56515 0.14588 0.0
H1375 H 0.01575 0.58205 0.12628 0.0
H1376 H 0.97617 0.58493 0.12133 0.0
C1377 C 0.98227 0.60872 0.06713 0.0
C1378 C 0.0028 0.5935 0.08625 0.0
C1379 C 0.98329 0.61761 0.0544 0.0
C1380 C 0.00523 0.5637 0.1416 0.0
C1381 C 0.00542 0.57339 0.13038 0.0
C1382 C 0.98358 0.58716 0.11154 0.0
C1383 C 0.99476 0.60944 0.07354 0.0
C1384 C 0.99382 0.59957 0.08651 0.0
C1385 C 0.99246 0.5718 0.12435 0.0
C1386 C 0.99278 0.58133 0.11136 0.0
H1387 H 0.01989 0.63576 0.04978 0.0
H1388 H 0.01815 0.62054 0.07206 0.0
H1389 H 0.97713 0.60083 0.09987 0.0
H1390 H 0.96877 0.54209 0.14536 0.0
H1391 H 0.96912 0.55911 0.12578 0.0
C1392 C 0.38088 0.36339 0.0575 0.0
C1393 C 0.37868 0.37134 0.04567 0.0
C1394 C 0.38962 0.37042 0.07068 0.0
C1395 C 0.40571 0.40552 0.0923 0.0
H1396 H 0.431 0.3932 0.1107 0.0
C1397 C 0.45531 0.44231 0.12994 0.0
C1398 C 0.45572 0.43748 0.14539 0.0
C1399 C 0.44515 0.43309 0.11891 0.0
C1400 C 0.42385 0.39662 0.10575 0.0
H1401 H 0.38426 0.39283 0.03798 0.0
H1402 H 0.39988 0.40509 0.06043 0.0
H1403 H 0.41479 0.3793 0.08888 0.0
H1404 H 0.44586 0.41888 0.1611 0.0
H1405 H 0.42845 0.40257 0.14139 0.0
H1406 H 0.41534 0.42324 0.10864 0.0
C1407 C 0.3945 0.39342 0.06 0.0
C1408 C 0.41454 0.38866 0.0933 0.0
C1409 C 0.38563 0.38641 0.04702 0.0
C1410 C 0.44598 0.42297 0.1493 0.0
C1411 C 0.43596 0.41363 0.13809 0.0
C1412 C 0.41516 0.41356 0.1045 0.0
C1413 C 0.39643 0.38553 0.07216 0.0
C1414 C 0.40554 0.39319 0.08622 0.0
C1415 C 0.43537 0.41872 0.1229 0.0
C1416 C 0.42444 0.4093 0.11115 0.0
H1417 H 0.37558 0.35174 0.05676 0.0
H1418 H 0.39076 0.36397 0.07985 0.0
H1419 H 0.39864 0.40911 0.08752 0.0
H1420 H 0.46289 0.45323 0.12626 0.0
H1421 H 0.44501 0.43716 0.10716 0.0
C1422 C 0.65717 0.71835 0.3771 0.0
C1423 C 0.65259 0.70358 0.37802 0.0
C1424 C 0.6541 0.72515 0.38943 0.0
C1425 C 0.64954 0.72489 0.43152 0.0
H1426 H 0.62877 0.74532 0.42372 0.0
C1427 C 0.63761 0.75397 0.48229 0.0
C1428 C 0.63774 0.76676 0.47843 0.0
C1429 C 0.63833 0.7453 0.47027 0.0
C1430 C 0.6348 0.73988 0.42611 0.0
H1431 H 0.64129 0.68432 0.39248 0.0
H1432 H 0.63634 0.69641 0.41437 0.0
H1433 H 0.63228 0.7322 0.40209 0.0
H1434 H 0.63913 0.78084 0.45924 0.0
H1435 H 0.64113 0.76623 0.43834 0.0
H1436 H 0.65282 0.73311 0.45524 0.0
C1437 C 0.6421 0.70259 0.40397 0.0
C1438 C 0.63667 0.73227 0.41372 0.0
C1439 C 0.64487 0.69571 0.39146 0.0
C1440 C 0.6388 0.77089 0.46245 0.0
C1441 C 0.63983 0.76242 0.45048 0.0
C1442 C 0.64795 0.73277 0.44385 0.0
C1443 C 0.64669 0.71736 0.40303 0.0
C1444 C 0.6441 0.72478 0.41632 0.0
C1445 C 0.63951 0.74944 0.45418 0.0
C1446 C 0.64065 0.74047 0.44129 0.0
H1447 H 0.66313 0.72465 0.36685 0.0
H1448 H 0.65779 0.73657 0.38851 0.0
H1449 H 0.65542 0.71926 0.43373 0.0
H1450 H 0.63673 0.75057 0.49457 0.0
H1451 H 0.63782 0.7353 0.47362 0.0
C1452 C 0.27874 0.94238 0.38263 0.0
C1453 C 0.2936 0.95239 0.3831 0.0
C1454 C 0.27206 0.93284 0.39524 0.0
C1455 C 0.27431 0.92846 0.43771 0.0
H1456 H 0.24841 0.88792 0.42876 0.0
C1457 C 0.24229 0.88687 0.48741 0.0
C1458 C 0.2279 0.87657 0.48375 0.0
C1459 C 0.25164 0.8959 0.47554 0.0
C1460 C 0.25549 0.89922 0.43148 0.0
H1461 H 0.31313 0.96041 0.39713 0.0
H1462 H 0.3013 0.94384 0.41944 0.0
H1463 H 0.26221 0.90421 0.4072 0.0
H1464 H 0.21223 0.86749 0.4646 0.0
H1465 H 0.2282 0.8835 0.44425 0.0
H1466 H 0.26716 0.92362 0.46188 0.0
C1467 C 0.29491 0.94335 0.40922 0.0
C1468 C 0.26344 0.90852 0.41913 0.0
C1469 C 0.30166 0.95275 0.39646 0.0
C1470 C 0.22314 0.87546 0.46796 0.0
C1471 C 0.23241 0.88451 0.45618 0.0
C1472 C 0.26621 0.91917 0.45008 0.0
C1473 C 0.28006 0.93326 0.40867 0.0
C1474 C 0.27273 0.92326 0.42207 0.0
C1475 C 0.2468 0.89481 0.45977 0.0
C1476 C 0.25648 0.90448 0.44704 0.0
H1477 H 0.27227 0.94185 0.37248 0.0
H1478 H 0.26057 0.92527 0.39459 0.0
H1479 H 0.28136 0.93981 0.44026 0.0
H1480 H 0.24629 0.88807 0.49946 0.0
H1481 H 0.26268 0.90364 0.47871 0.0
C1482 C 0.04328 0.32731 0.38787 0.0
C1483 C 0.04308 0.33923 0.38125 0.0
C1484 C 0.05221 0.32908 0.40077 0.0
C1485 C 0.07381 0.35444 0.43304 0.0
H1486 H 0.09288 0.33174 0.433 0.0
C1487 C 0.1206 0.36385 0.47576 0.0
C1488 C 0.12017 0.35141 0.48186 0.0
C1489 C 0.11048 0.36267 0.46445 0.0
C1490 C 0.08751 0.33805 0.43327 0.0
H1491 H 0.05194 0.36235 0.38301 0.0
H1492 H 0.06787 0.36552 0.40537 0.0
H1493 H 0.07692 0.32926 0.41117 0.0
H1494 H 0.10816 0.328 0.48172 0.0
H1495 H 0.09063 0.32598 0.46193 0.0
H1496 H 0.08477 0.36341 0.45509 0.0
C1497 C 0.06093 0.35476 0.40077 0.0
C1498 C 0.07833 0.33661 0.42077 0.0
C1499 C 0.05188 0.35296 0.3879 0.0
C1500 C 0.109 0.33779 0.47697 0.0
C1501 C 0.09895 0.33663 0.46565 0.0
C1502 C 0.08312 0.35596 0.44553 0.0
C1503 C 0.06128 0.34284 0.40727 0.0
C1504 C 0.07126 0.34469 0.42054 0.0
C1505 C 0.09977 0.34904 0.45901 0.0
C1506 C 0.08997 0.34767 0.44582 0.0
H1507 H 0.03651 0.31657 0.38309 0.0
H1508 H 0.05197 0.31961 0.40568 0.0
H1509 H 0.06844 0.36072 0.43331 0.0
H1510 H 0.12912 0.37449 0.47922 0.0
H1511 H 0.1114 0.37242 0.45947 0.0
C1512 C 0.03149 0.31153 0.29729 0.0
C1513 C 0.03697 0.32533 0.30396 0.0
C1514 C 0.03865 0.30933 0.28459 0.0
C1515 C 0.07455 0.32633 0.26506 0.0
H1516 H 0.05382 0.30061 0.23004 0.0
C1517 C 0.10373 0.32642 0.20821 0.0
C1518 C 0.10148 0.31296 0.20306 0.0
C1519 C 0.09476 0.32727 0.21966 0.0
C1520 C 0.05972 0.30775 0.2398 0.0
H1521 H 0.05397 0.3477 0.30234 0.0
H1522 H 0.0662 0.34399 0.28008 0.0
H1523 H 0.04033 0.30332 0.25203 0.0
H1524 H 0.08751 0.2898 0.20527 0.0
H1525 H 0.07163 0.29131 0.22522 0.0
H1526 H 0.09389 0.33096 0.25276 0.0
C1527 C 0.05663 0.33475 0.28484 0.0
C1528 C 0.05202 0.30927 0.25242 0.0
C1529 C 0.04957 0.33691 0.29756 0.0
C1530 C 0.08949 0.30033 0.20894 0.0
C1531 C 0.08043 0.30119 0.22037 0.0
C1532 C 0.08219 0.32492 0.25243 0.0
C1533 C 0.05138 0.32091 0.2783 0.0
C1534 C 0.05937 0.31871 0.26512 0.0
C1535 C 0.08324 0.31467 0.22615 0.0
C1536 C 0.07488 0.31574 0.2396 0.0
H1537 H 0.02178 0.30241 0.302 0.0
H1538 H 0.03438 0.29851 0.27993 0.0
H1539 H 0.08059 0.33339 0.27482 0.0
H1540 H 0.11266 0.33635 0.20363 0.0
H1541 H 0.09699 0.33781 0.22366 0.0
C1542 C 0.66076 0.70991 0.29502 0.0
C1543 C 0.67235 0.71067 0.30367 0.0
C1544 C 0.66329 0.71864 0.28172 0.0
C1545 C 0.69074 0.75255 0.26338 0.0
H1546 H 0.66623 0.73724 0.22618 0.0
C1547 C 0.69849 0.78782 0.20822 0.0
C1548 C 0.68578 0.7868 0.20215 0.0
C1549 C 0.69779 0.77777 0.21932 0.0
C1550 C 0.67312 0.74169 0.2365 0.0
H1551 H 0.69568 0.72114 0.30515 0.0
H1552 H 0.70011 0.73644 0.28184 0.0
H1553 H 0.66327 0.72121 0.24824 0.0
H1554 H 0.6624 0.77408 0.20237 0.0
H1555 H 0.66116 0.7567 0.22187 0.0
H1556 H 0.70039 0.77308 0.25178 0.0
C1557 C 0.68907 0.72914 0.28543 0.0
C1558 C 0.67142 0.73252 0.24915 0.0
C1559 C 0.68653 0.72035 0.29874 0.0
C1560 C 0.67238 0.77525 0.20697 0.0
C1561 C 0.67168 0.7652 0.21802 0.0
C1562 C 0.69243 0.76173 0.25073 0.0
C1563 C 0.67747 0.72837 0.27677 0.0
C1564 C 0.68005 0.73789 0.26284 0.0
C1565 C 0.68437 0.76646 0.22452 0.0
C1566 C 0.68349 0.75645 0.23726 0.0
H1567 H 0.6497 0.70257 0.29855 0.0
H1568 H 0.65412 0.71795 0.27547 0.0
H1569 H 0.69745 0.75705 0.27382 0.0
H1570 H 0.70898 0.79666 0.2048 0.0
H1571 H 0.70777 0.77895 0.22397 0.0
C1572 C 0.2776 0.9675 0.29919 0.0
C1573 C 0.28658 0.96253 0.30518 0.0
C1574 C 0.2685 0.96058 0.28622 0.0
C1575 C 0.25131 0.92553 0.26506 0.0
H1576 H 0.24443 0.94628 0.23162 0.0
C1577 C 0.22137 0.89683 0.20827 0.0
C1578 C 0.21003 0.89903 0.20352 0.0
C1579 C 0.23125 0.90568 0.21976 0.0
C1580 C 0.2462 0.94036 0.24095 0.0
H1581 H 0.29349 0.94681 0.30196 0.0
H1582 H 0.27798 0.93502 0.27926 0.0
H1583 H 0.2606 0.95967 0.25368 0.0
H1584 H 0.20056 0.91266 0.20661 0.0
H1585 H 0.21799 0.92824 0.22667 0.0
H1586 H 0.23707 0.90628 0.25236 0.0
C1587 C 0.2776 0.94397 0.28476 0.0
C1588 C 0.25541 0.94801 0.25359 0.0
C1589 C 0.28657 0.95079 0.29774 0.0
C1590 C 0.20924 0.91075 0.20994 0.0
C1591 C 0.21919 0.91965 0.22144 0.0
C1592 C 0.24223 0.91794 0.25243 0.0
C1593 C 0.26828 0.94861 0.27898 0.0
C1594 C 0.25817 0.94067 0.26573 0.0
C1595 C 0.23007 0.91696 0.22675 0.0
C1596 C 0.23966 0.92526 0.24017 0.0
H1597 H 0.2774 0.97654 0.30471 0.0
H1598 H 0.26139 0.96437 0.28213 0.0
H1599 H 0.25288 0.91949 0.2744 0.0
H1600 H 0.22247 0.8881 0.20328 0.0
H1601 H 0.23972 0.90354 0.22337 0.0
C1602 C 0.66349 0.95457 0.29264 0.0
C1603 C 0.67487 0.96392 0.30264 0.0
C1604 C 0.66591 0.94757 0.28006 0.0
C1605 C 0.69385 0.94793 0.25407 0.0
H1606 H 0.66567 0.90728 0.24946 0.0
C1607 C 0.70097 0.90891 0.21161 0.0
C1608 C 0.68847 0.89821 0.20401 0.0
C1609 C 0.70004 0.91803 0.22291 0.0
C1610 C 0.67354 0.91867 0.25041 0.0
H1611 H 0.69784 0.97362 0.30704 0.0
H1612 H 0.7021 0.96123 0.28496 0.0
H1613 H 0.66283 0.92114 0.27058 0.0
H1614 H 0.66539 0.88929 0.20142 0.0
H1615 H 0.66378 0.90526 0.22089 0.0
H1616 H 0.70454 0.94536 0.2338 0.0
C1617 C 0.6913 0.95942 0.28686 0.0
C1618 C 0.67192 0.92661 0.26256 0.0
C1619 C 0.68886 0.96645 0.29952 0.0
C1620 C 0.67516 0.89725 0.20734 0.0
C1621 C 0.67424 0.90638 0.21852 0.0
C1622 C 0.69546 0.93996 0.24183 0.0
C1623 C 0.67979 0.94971 0.27717 0.0
C1624 C 0.68196 0.94136 0.26445 0.0
C1625 C 0.6866 0.91664 0.22674 0.0
C1626 C 0.68523 0.92525 0.23979 0.0
H1627 H 0.6526 0.95249 0.29464 0.0
H1628 H 0.65687 0.94037 0.27263 0.0
H1629 H 0.70172 0.9593 0.25519 0.0
H1630 H 0.71137 0.90983 0.20932 0.0
H1631 H 0.70976 0.92577 0.22908 0.0
C1632 C 0.05023 0.72412 0.30648 0.0
C1633 C 0.03551 0.71361 0.30615 0.0
C1634 C 0.05638 0.73402 0.2941 0.0
C1635 C 0.05376 0.73908 0.25207 0.0
H1636 H 0.07781 0.77972 0.26204 0.0
C1637 C 0.08566 0.78202 0.20353 0.0
C1638 C 0.09982 0.79262 0.20766 0.0
C1639 C 0.07616 0.77266 0.21509 0.0
C1640 C 0.07124 0.76841 0.25903 0.0
H1641 H 0.01569 0.7051 0.29256 0.0
H1642 H 0.02665 0.72232 0.27054 0.0
H1643 H 0.06428 0.76267 0.28315 0.0
H1644 H 0.11487 0.80192 0.22732 0.0
H1645 H 0.09866 0.78535 0.24716 0.0
H1646 H 0.06124 0.74467 0.22809 0.0
C1647 C 0.03331 0.72291 0.28053 0.0
C1648 C 0.06343 0.75867 0.27112 0.0
C1649 C 0.02706 0.71313 0.29311 0.0
C1650 C 0.10416 0.79373 0.22362 0.0
C1651 C 0.09474 0.78436 0.23509 0.0
C1652 C 0.06174 0.74881 0.23996 0.0
C1653 C 0.04801 0.73349 0.28099 0.0
C1654 C 0.05486 0.7439 0.26781 0.0
C1655 C 0.08061 0.7737 0.23102 0.0
C1656 C 0.07084 0.76355 0.24338 0.0
H1657 H 0.05699 0.72476 0.31639 0.0
H1658 H 0.06778 0.74198 0.29465 0.0
H1659 H 0.04727 0.72771 0.24925 0.0
H1660 H 0.08199 0.78082 0.19133 0.0
H1661 H 0.06532 0.76466 0.21155 0.0
C1662 C 0.27392 0.32512 0.30974 0.0
C1663 C 0.28363 0.31992 0.30939 0.0
C1664 C 0.26374 0.32153 0.29765 0.0
C1665 C 0.25779 0.31279 0.25586 0.0
H1666 H 0.21755 0.29903 0.26564 0.0
C1667 C 0.21611 0.30319 0.20649 0.0
C1668 C 0.206 0.30752 0.21006 0.0
C1669 C 0.22494 0.30264 0.21844 0.0
C1670 C 0.22877 0.30301 0.26267 0.0
H1671 H 0.29035 0.3069 0.29617 0.0
H1672 H 0.27272 0.30092 0.27471 0.0
H1673 H 0.23427 0.30216 0.287 0.0
H1674 H 0.1969 0.31411 0.22919 0.0
H1675 H 0.21264 0.31386 0.24965 0.0
H1676 H 0.25256 0.31438 0.23168 0.0
C1677 C 0.27293 0.30764 0.28447 0.0
C1678 C 0.2383 0.30471 0.27492 0.0
C1679 C 0.28294 0.311 0.29675 0.0
C1680 C 0.20477 0.31102 0.22589 0.0
C1681 C 0.21365 0.31061 0.23774 0.0
C1682 C 0.2483 0.31131 0.24361 0.0
C1683 C 0.26325 0.31289 0.28482 0.0
C1684 C 0.25293 0.30982 0.27166 0.0
C1685 C 0.2239 0.30646 0.23421 0.0
C1686 C 0.23371 0.30666 0.24691 0.0
H1687 H 0.27421 0.33201 0.31935 0.0
H1688 H 0.25647 0.32581 0.29811 0.0
H1689 H 0.26907 0.31684 0.25307 0.0
H1690 H 0.21741 0.30048 0.19443 0.0
H1691 H 0.23259 0.29922 0.21529 0.0
C1692 C 0.28609 0.33018 0.39149 0.0
C1693 C 0.29646 0.34163 0.38228 0.0
C1694 C 0.27967 0.33285 0.40451 0.0
C1695 C 0.27164 0.35985 0.42117 0.0
H1696 H 0.26385 0.33703 0.45952 0.0
C1697 C 0.24326 0.36769 0.47571 0.0
C1698 C 0.23197 0.35489 0.48217 0.0
C1699 C 0.25283 0.36722 0.4647 0.0
C1700 C 0.2659 0.34345 0.44887 0.0
H1701 H 0.30827 0.36489 0.37949 0.0
H1702 H 0.29704 0.36958 0.40233 0.0
H1703 H 0.27729 0.33408 0.43784 0.0
H1704 H 0.22227 0.33161 0.48274 0.0
H1705 H 0.23881 0.33075 0.46346 0.0
H1706 H 0.26 0.36902 0.4321 0.0
C1707 C 0.29382 0.35852 0.39939 0.0
C1708 C 0.27358 0.34175 0.43644 0.0
C1709 C 0.30028 0.35584 0.38636 0.0
C1710 C 0.23076 0.34165 0.47783 0.0
C1711 C 0.24034 0.34118 0.4669 0.0
C1712 C 0.26394 0.36155 0.43362 0.0
C1713 C 0.28345 0.34705 0.40863 0.0
C1714 C 0.27632 0.34974 0.42232 0.0
C1715 C 0.25136 0.35393 0.46003 0.0
C1716 C 0.26076 0.35318 0.4475 0.0
H1717 H 0.28289 0.31911 0.38862 0.0
H1718 H 0.27154 0.32376 0.4112 0.0
H1719 H 0.27344 0.36607 0.4104 0.0
H1720 H 0.24442 0.37805 0.47877 0.0
H1721 H 0.2613 0.37723 0.45973 0.0
C1722 C 0.65844 0.93915 0.37592 0.0
C1723 C 0.6552 0.95025 0.37783 0.0
C1724 C 0.65576 0.92936 0.38823 0.0
C1725 C 0.65395 0.92593 0.43092 0.0
H1726 H 0.63105 0.88471 0.42361 0.0
C1727 C 0.64107 0.88488 0.48179 0.0
C1728 C 0.64024 0.87175 0.47789 0.0
C1729 C 0.64218 0.89443 0.46979 0.0
C1730 C 0.63768 0.89617 0.42584 0.0
H1731 H 0.64671 0.95992 0.39407 0.0
H1732 H 0.64242 0.943 0.41582 0.0
H1733 H 0.63456 0.9014 0.40211 0.0
H1734 H 0.64033 0.85841 0.4586 0.0
H1735 H 0.64292 0.87524 0.43772 0.0
H1736 H 0.65769 0.92086 0.45437 0.0
C1737 C 0.64686 0.94181 0.40471 0.0
C1738 C 0.63958 0.9057 0.41352 0.0
C1739 C 0.64925 0.95141 0.39227 0.0
C1740 C 0.64074 0.8684 0.46186 0.0
C1741 C 0.64213 0.87803 0.4499 0.0
C1742 C 0.6523 0.9164 0.44317 0.0
C1743 C 0.65008 0.93071 0.40277 0.0
C1744 C 0.64775 0.92065 0.41595 0.0
C1745 C 0.64276 0.89116 0.45366 0.0
C1746 C 0.64418 0.90137 0.44079 0.0
H1747 H 0.66303 0.93801 0.36489 0.0
H1748 H 0.65839 0.92091 0.38651 0.0
H1749 H 0.6604 0.93744 0.43301 0.0
H1750 H 0.64064 0.88764 0.4941 0.0
H1751 H 0.6424 0.90429 0.47319 0.0
C1752 C 0.05243 0.71903 0.38464 0.0
C1753 C 0.04505 0.70394 0.38337 0.0
C1754 C 0.06113 0.72588 0.39778 0.0
C1755 C 0.08042 0.72059 0.43137 0.0
H1756 H 0.08203 0.75563 0.44641 0.0
C1757 C 0.11297 0.75496 0.48681 0.0
C1758 C 0.12234 0.76959 0.48306 0.0
C1759 C 0.10289 0.74562 0.47564 0.0
C1760 C 0.08165 0.74583 0.44235 0.0
H1761 H 0.04101 0.68413 0.39479 0.0
H1762 H 0.05599 0.69612 0.41811 0.0
H1763 H 0.06519 0.7416 0.42536 0.0
H1764 H 0.12889 0.78556 0.46423 0.0
H1765 H 0.11097 0.76945 0.44519 0.0
H1766 H 0.09689 0.72494 0.44868 0.0
C1767 C 0.05524 0.70267 0.40878 0.0
C1768 C 0.07209 0.73784 0.43021 0.0
C1769 C 0.04662 0.6958 0.39547 0.0
C1770 C 0.12158 0.77452 0.46778 0.0
C1771 C 0.11139 0.76528 0.45679 0.0
C1772 C 0.08987 0.72852 0.44372 0.0
C1773 C 0.06253 0.71781 0.41014 0.0
C1774 C 0.07163 0.72534 0.42423 0.0
C1775 C 0.10188 0.7508 0.46065 0.0
C1776 C 0.0908 0.7414 0.44901 0.0
H1777 H 0.05155 0.72561 0.37542 0.0
H1778 H 0.06687 0.73756 0.39816 0.0
H1779 H 0.08043 0.71108 0.42702 0.0
H1780 H 0.11317 0.75079 0.49847 0.0
H1781 H 0.09563 0.73446 0.47885 0.0
C1782 C 0.31671 0.02964 0.72858 0.0
C1783 C 0.31794 0.03498 0.71305 0.0
C1784 C 0.31329 0.03588 0.74124 0.0
C1785 C 0.29697 0.05808 0.75097 0.0
H1786 H 0.32218 0.07003 0.78778 0.0
C1787 C 0.29917 0.09971 0.79588 0.0
C1788 C 0.302 0.09852 0.81194 0.0
C1789 C 0.2996 0.09043 0.7845 0.0
C1790 C 0.31483 0.06653 0.77776 0.0
H1791 H 0.31617 0.05072 0.6985 0.0
H1792 H 0.31001 0.06148 0.72057 0.0
H1793 H 0.3254 0.0563 0.76666 0.0
H1794 H 0.30701 0.08638 0.82879 0.0
H1795 H 0.30746 0.06991 0.80898 0.0
H1796 H 0.28636 0.06825 0.76201 0.0
C1797 C 0.3117 0.0525 0.72296 0.0
C1798 C 0.31673 0.0587 0.76564 0.0
C1799 C 0.31531 0.0464 0.71035 0.0
C1800 C 0.30494 0.08763 0.81646 0.0
C1801 C 0.30524 0.07824 0.80509 0.0
C1802 C 0.29497 0.06578 0.76317 0.0
C1803 C 0.31083 0.04742 0.73855 0.0
C1804 C 0.30798 0.05461 0.752 0.0
C1805 C 0.30275 0.07964 0.78892 0.0
C1806 C 0.30404 0.07034 0.7766 0.0
H1807 H 0.3187 0.02085 0.731 0.0
H1808 H 0.3126 0.0317 0.75313 0.0
H1809 H 0.28995 0.0549 0.74068 0.0
H1810 H 0.2971 0.10815 0.792 0.0
H1811 H 0.29791 0.09205 0.77215 0.0
C1812 C 0.96684 0.27439 0.71794 0.0
C1813 C 0.96043 0.282 0.71167 0.0
C1814 C 0.96041 0.26486 0.73067 0.0
C1815 C 0.93467 0.2567 0.76371 0.0
H1816 H 0.93205 0.21925 0.76368 0.0
C1817 C 0.91063 0.21774 0.81683 0.0
C1818 C 0.90073 0.20329 0.813 0.0
C1819 C 0.91924 0.22744 0.80502 0.0
C1820 C 0.93268 0.22967 0.76385 0.0
H1821 H 0.94222 0.28552 0.71369 0.0
H1822 H 0.93097 0.26885 0.73576 0.0
H1823 H 0.94416 0.23596 0.74174 0.0
H1824 H 0.89224 0.1877 0.79376 0.0
H1825 H 0.90726 0.20458 0.77323 0.0
H1826 H 0.92286 0.2503 0.78556 0.0
C1827 C 0.94105 0.27037 0.73102 0.0
C1828 C 0.93973 0.23929 0.75136 0.0
C1829 C 0.94744 0.27984 0.71829 0.0
C1830 C 0.89992 0.19869 0.79718 0.0
C1831 C 0.90853 0.20838 0.78539 0.0
C1832 C 0.92766 0.24711 0.77621 0.0
C1833 C 0.94748 0.26282 0.73742 0.0
C1834 C 0.94065 0.25285 0.75105 0.0
C1835 C 0.91815 0.22291 0.78913 0.0
C1836 C 0.92645 0.23342 0.77635 0.0
H1837 H 0.97687 0.27586 0.71309 0.0
H1838 H 0.96569 0.25929 0.73541 0.0
H1839 H 0.93536 0.26714 0.76394 0.0
H1840 H 0.91167 0.22158 0.82895 0.0
H1841 H 0.92671 0.23852 0.80834 0.0
C1842 C 0.71996 0.68724 0.7187 0.0
C1843 C 0.71317 0.67401 0.71054 0.0
C1844 C 0.7297 0.68961 0.73101 0.0
C1845 C 0.75285 0.67604 0.74714 0.0
H1846 H 0.75159 0.69482 0.78608 0.0
C1847 C 0.78183 0.67452 0.8039 0.0
C1848 C 0.78958 0.68742 0.81254 0.0
C1849 C 0.77269 0.67349 0.79152 0.0
C1850 C 0.75217 0.6897 0.77521 0.0
H1851 H 0.71118 0.65288 0.70888 0.0
H1852 H 0.72798 0.65692 0.7304 0.0
H1853 H 0.73546 0.69206 0.7641 0.0
H1854 H 0.79357 0.70926 0.81519 0.0
H1855 H 0.77761 0.70748 0.79341 0.0
H1856 H 0.76942 0.67352 0.75827 0.0
C1857 C 0.726 0.66557 0.72717 0.0
C1858 C 0.74296 0.68814 0.76261 0.0
C1859 C 0.7163 0.66322 0.71489 0.0
C1860 C 0.78781 0.69921 0.80867 0.0
C1861 C 0.7786 0.69816 0.79629 0.0
C1862 C 0.76201 0.67755 0.75972 0.0
C1863 C 0.73284 0.6788 0.73538 0.0
C1864 C 0.74309 0.68115 0.7485 0.0
C1865 C 0.77106 0.68533 0.78748 0.0
C1866 C 0.76167 0.68426 0.77395 0.0
H1867 H 0.71776 0.69576 0.71558 0.0
H1868 H 0.73489 0.69996 0.73699 0.0
H1869 H 0.75344 0.67087 0.73631 0.0
H1870 H 0.78308 0.66529 0.80646 0.0
H1871 H 0.76688 0.6634 0.78508 0.0
C1872 C 0.69647 0.64287 0.62978 0.0
C1873 C 0.70206 0.65688 0.63591 0.0
C1874 C 0.70356 0.64022 0.61735 0.0
C1875 C 0.7395 0.6556 0.59875 0.0
H1876 H 0.71887 0.6311 0.56289 0.0
C1877 C 0.76935 0.65432 0.54278 0.0
C1878 C 0.76516 0.64083 0.53587 0.0
C1879 C 0.76102 0.65564 0.5547 0.0
C1880 C 0.72475 0.63784 0.57292 0.0
H1881 H 0.71924 0.67913 0.63365 0.0
H1882 H 0.73149 0.67455 0.61201 0.0
H1883 H 0.70539 0.63445 0.58439 0.0
H1884 H 0.74869 0.61819 0.53582 0.0
H1885 H 0.73419 0.62047 0.5569 0.0
H1886 H 0.75883 0.65903 0.5874 0.0
C1887 C 0.72178 0.66556 0.6169 0.0
C1888 C 0.71704 0.63975 0.58522 0.0
C1889 C 0.71471 0.6682 0.62925 0.0
C1890 C 0.75228 0.62871 0.541 0.0
C1891 C 0.74391 0.63004 0.55296 0.0
C1892 C 0.74718 0.65368 0.58651 0.0
C1893 C 0.71639 0.65153 0.61091 0.0
C1894 C 0.72436 0.64881 0.59817 0.0
C1895 C 0.7483 0.6435 0.56009 0.0
C1896 C 0.73993 0.64494 0.57335 0.0
H1897 H 0.68672 0.63394 0.63469 0.0
H1898 H 0.69919 0.62928 0.61304 0.0
H1899 H 0.74544 0.66239 0.60874 0.0
H1900 H 0.7793 0.66386 0.53928 0.0
H1901 H 0.76459 0.6662 0.55977 0.0
C1902 C 0.35576 0.05355 0.62985 0.0
C1903 C 0.34148 0.04417 0.63475 0.0
C1904 C 0.35856 0.06224 0.61639 0.0
C1905 C 0.34133 0.06614 0.57994 0.0
H1906 H 0.37013 0.1067 0.58333 0.0
C1907 C 0.34138 0.10948 0.5397 0.0
C1908 C 0.35464 0.12121 0.53483 0.0
C1909 C 0.34097 0.09927 0.55031 0.0
C1910 C 0.36223 0.09535 0.58206 0.0
H1911 H 0.31895 0.03638 0.62928 0.0
H1912 H 0.32382 0.05155 0.60595 0.0
H1913 H 0.36732 0.0903 0.60492 0.0
H1914 H 0.3779 0.13123 0.53696 0.0
H1915 H 0.37718 0.11325 0.55543 0.0
H1916 H 0.33601 0.07124 0.55725 0.0
C1917 C 0.33286 0.05211 0.61235 0.0
C1918 C 0.36062 0.08596 0.59444 0.0
C1919 C 0.33008 0.04349 0.6258 0.0
C1920 C 0.36751 0.12226 0.54043 0.0
C1921 C 0.3671 0.11205 0.55112 0.0
C1922 C 0.34295 0.07552 0.56756 0.0
C1923 C 0.34713 0.06165 0.60753 0.0
C1924 C 0.34993 0.0713 0.59367 0.0
C1925 C 0.35381 0.10054 0.55633 0.0
C1926 C 0.35321 0.09029 0.56863 0.0
H1927 H 0.36476 0.05427 0.63651 0.0
H1928 H 0.36967 0.06941 0.6129 0.0
H1929 H 0.33319 0.05485 0.57886 0.0
H1930 H 0.33129 0.10829 0.53545 0.0
H1931 H 0.33054 0.09062 0.5542 0.0
C1932 C 0.94238 0.29537 0.63203 0.0
C1933 C 0.95209 0.2911 0.63746 0.0
C1934 C 0.93348 0.28852 0.61892 0.0
C1935 C 0.91837 0.25482 0.59539 0.0
H1936 H 0.91122 0.27673 0.56362 0.0
C1937 C 0.88948 0.22861 0.53711 0.0
C1938 C 0.87815 0.23092 0.53263 0.0
C1939 C 0.89913 0.23693 0.54905 0.0
C1940 C 0.91306 0.27048 0.57246 0.0
H1941 H 0.96022 0.27645 0.63337 0.0
H1942 H 0.94491 0.26468 0.61046 0.0
H1943 H 0.92658 0.28917 0.5865 0.0
H1944 H 0.86847 0.24424 0.53666 0.0
H1945 H 0.88544 0.25888 0.55752 0.0
H1946 H 0.90494 0.23616 0.58138 0.0
C1947 C 0.94393 0.27311 0.61644 0.0
C1948 C 0.92181 0.27758 0.58559 0.0
C1949 C 0.95277 0.27991 0.62954 0.0
C1950 C 0.87715 0.24226 0.53977 0.0
C1951 C 0.88685 0.25063 0.55173 0.0
C1952 C 0.90971 0.24776 0.58227 0.0
C1953 C 0.93414 0.27729 0.61099 0.0
C1954 C 0.92462 0.26983 0.59717 0.0
C1955 C 0.89771 0.24779 0.55677 0.0
C1956 C 0.90701 0.2555 0.57062 0.0
H1957 H 0.94163 0.30397 0.63791 0.0
H1958 H 0.92595 0.29189 0.61515 0.0
H1959 H 0.92004 0.24846 0.60425 0.0
H1960 H 0.89071 0.22013 0.5316 0.0
H1961 H 0.90759 0.2347 0.55243 0.0
C1962 C 0.32977 0.28498 0.63 0.0
C1963 C 0.34124 0.29577 0.63882 0.0
C1964 C 0.33241 0.27804 0.61752 0.0
C1965 C 0.36028 0.28082 0.58955 0.0
H1966 H 0.33461 0.23947 0.58635 0.0
C1967 C 0.36838 0.24305 0.54583 0.0
C1968 C 0.35578 0.23198 0.53872 0.0
C1969 C 0.36747 0.25197 0.55742 0.0
C1970 C 0.34178 0.25103 0.58696 0.0
H1971 H 0.36452 0.30798 0.64133 0.0
H1972 H 0.36918 0.29565 0.6195 0.0
H1973 H 0.33161 0.25272 0.60806 0.0
H1974 H 0.33252 0.22227 0.53728 0.0
H1975 H 0.33094 0.23778 0.55739 0.0
H1976 H 0.37048 0.27899 0.56838 0.0
C1977 C 0.35814 0.29267 0.6222 0.0
C1978 C 0.34007 0.25864 0.59942 0.0
C1979 C 0.35547 0.29967 0.63473 0.0
C1980 C 0.34238 0.23049 0.54281 0.0
C1981 C 0.34147 0.23937 0.55434 0.0
C1982 C 0.36203 0.27317 0.57705 0.0
C1983 C 0.3466 0.28166 0.61359 0.0
C1984 C 0.34914 0.27364 0.60075 0.0
C1985 C 0.35396 0.24995 0.56207 0.0
C1986 C 0.35264 0.25822 0.57552 0.0
H1987 H 0.31868 0.28182 0.63275 0.0
H1988 H 0.3233 0.26982 0.61092 0.0
H1989 H 0.36739 0.2924 0.59021 0.0
H1990 H 0.37885 0.24441 0.54294 0.0
H1991 H 0.37727 0.26002 0.5632 0.0
C1992 C 0.71375 0.04549 0.62605 0.0
C1993 C 0.70216 0.04527 0.63413 0.0
C1994 C 0.72058 0.0551 0.61356 0.0
C1995 C 0.7169 0.0789 0.58454 0.0
H1996 H 0.75876 0.09901 0.58545 0.0
C1997 C 0.75392 0.11524 0.53326 0.0
C1998 C 0.76668 0.12775 0.53784 0.0
C1999 C 0.74489 0.10535 0.54474 0.0
C2000 C 0.74708 0.09358 0.58508 0.0
H2001 H 0.6883 0.05464 0.63516 0.0
H2002 H 0.70037 0.07162 0.61333 0.0
H2003 H 0.74514 0.08117 0.60575 0.0
H2004 H 0.77946 0.14026 0.558 0.0
H2005 H 0.76376 0.12311 0.57795 0.0
H2006 H 0.71896 0.09156 0.56388 0.0
C2007 C 0.70409 0.06425 0.61662 0.0
C2008 C 0.73927 0.08322 0.59661 0.0
C2009 C 0.69724 0.05459 0.62916 0.0
C2010 C 0.76987 0.13054 0.5541 0.0
C2011 C 0.76088 0.12072 0.56552 0.0
C2012 C 0.72475 0.08928 0.57291 0.0
C2013 C 0.71599 0.06476 0.60887 0.0
C2014 C 0.7241 0.07574 0.59647 0.0
C2015 C 0.74849 0.10784 0.56097 0.0
C2016 C 0.73993 0.09677 0.57313 0.0
H2017 H 0.71771 0.03835 0.62951 0.0
H2018 H 0.72955 0.05506 0.60764 0.0
H2019 H 0.70521 0.07324 0.58409 0.0
H2020 H 0.75122 0.11281 0.5208 0.0
H2021 H 0.73543 0.09549 0.54088 0.0
C2022 C 0.94813 0.67012 0.63384 0.0
C2023 C 0.94983 0.65898 0.64033 0.0
C2024 C 0.93865 0.66736 0.62118 0.0
C2025 C 0.90694 0.6379 0.60096 0.0
H2026 H 0.91783 0.66606 0.56713 0.0
C2027 C 0.86599 0.63641 0.55535 0.0
C2028 C 0.87056 0.64023 0.53953 0.0
C2029 C 0.87581 0.63791 0.56717 0.0
C2030 C 0.91468 0.658 0.57638 0.0
H2031 H 0.94297 0.63623 0.63866 0.0
H2032 H 0.92649 0.63143 0.61644 0.0
H2033 H 0.93483 0.67022 0.58852 0.0
H2034 H 0.88893 0.64819 0.52363 0.0
H2035 H 0.9061 0.65075 0.54427 0.0
H2036 H 0.88685 0.6256 0.58871 0.0
C2037 C 0.93236 0.64226 0.62125 0.0
C2038 C 0.92436 0.66048 0.58876 0.0
C2039 C 0.94184 0.64502 0.63394 0.0
C2040 C 0.88513 0.64534 0.53575 0.0
C2041 C 0.89495 0.64682 0.54757 0.0
C2042 C 0.89726 0.63542 0.58858 0.0
C2043 C 0.93067 0.65341 0.61471 0.0
C2044 C 0.92056 0.65052 0.60127 0.0
C2045 C 0.89043 0.64324 0.56345 0.0
C2046 C 0.90098 0.6455 0.57621 0.0
H2047 H 0.95412 0.68098 0.63855 0.0
H2048 H 0.93744 0.67614 0.61658 0.0
H2049 H 0.90363 0.63006 0.61047 0.0
H2050 H 0.8549 0.63267 0.55871 0.0
H2051 H 0.87201 0.63528 0.57932 0.0
C2052 C 0.96472 0.69155 0.71975 0.0
C2053 C 0.95901 0.67745 0.71382 0.0
C2054 C 0.9582 0.69429 0.73269 0.0
C2055 C 0.9342 0.67597 0.76679 0.0
H2056 H 0.92715 0.70814 0.76649 0.0
C2057 C 0.89378 0.67879 0.80931 0.0
C2058 C 0.8972 0.69217 0.81599 0.0
C2059 C 0.90254 0.6779 0.7976 0.0
C2060 C 0.92924 0.69924 0.76686 0.0
H2061 H 0.94191 0.65523 0.71662 0.0
H2062 H 0.93053 0.66001 0.73903 0.0
H2063 H 0.94021 0.70501 0.74441 0.0
H2064 H 0.91265 0.71512 0.81567 0.0
H2065 H 0.928 0.71356 0.79511 0.0
H2066 H 0.92313 0.67008 0.7891 0.0
C2067 C 0.94013 0.66892 0.73387 0.0
C2068 C 0.93671 0.69744 0.75421 0.0
C2069 C 0.9466 0.6662 0.72095 0.0
C2070 C 0.90965 0.70467 0.81067 0.0
C2071 C 0.91843 0.70377 0.7989 0.0
C2072 C 0.92678 0.67778 0.77941 0.0
C2073 C 0.9459 0.68296 0.73997 0.0
C2074 C 0.93902 0.68563 0.75391 0.0
C2075 C 0.91496 0.69037 0.79223 0.0
C2076 C 0.92397 0.68927 0.77946 0.0
H2077 H 0.97429 0.70043 0.71448 0.0
H2078 H 0.96292 0.70521 0.73718 0.0
H2079 H 0.93609 0.66694 0.76707 0.0
H2080 H 0.8841 0.66899 0.81284 0.0
H2081 H 0.89938 0.66744 0.79249 0.0
C2082 C 0.31142 0.27096 0.71177 0.0
C2083 C 0.31582 0.28554 0.71442 0.0
C2084 C 0.3081 0.26149 0.72455 0.0
C2085 C 0.31697 0.26116 0.76632 0.0
H2086 H 0.2849 0.22184 0.76533 0.0
C2087 C 0.3076 0.22092 0.81693 0.0
C2088 C 0.30359 0.2068 0.81227 0.0
C2089 C 0.30752 0.23068 0.80593 0.0
C2090 C 0.29398 0.23275 0.76574 0.0
H2091 H 0.31984 0.30159 0.73247 0.0
H2092 H 0.31414 0.28501 0.75489 0.0
H2093 H 0.28739 0.23862 0.7443 0.0
H2094 H 0.29644 0.19185 0.79244 0.0
H2095 H 0.29654 0.20887 0.77323 0.0
H2096 H 0.32391 0.25523 0.78739 0.0
C2097 C 0.31329 0.28094 0.7429 0.0
C2098 C 0.29536 0.24237 0.75372 0.0
C2099 C 0.31647 0.2904 0.73009 0.0
C2100 C 0.29937 0.20259 0.79645 0.0
C2101 C 0.29939 0.21236 0.78544 0.0
C2102 C 0.31567 0.25152 0.77828 0.0
C2103 C 0.30923 0.26643 0.74026 0.0
C2104 C 0.30698 0.25661 0.75377 0.0
C2105 C 0.30355 0.22656 0.79001 0.0
C2106 C 0.30427 0.23713 0.77801 0.0
H2107 H 0.31082 0.26691 0.69982 0.0
H2108 H 0.30515 0.25041 0.72214 0.0
H2109 H 0.32615 0.27203 0.76657 0.0
H2110 H 0.31075 0.22441 0.82909 0.0
H2111 H 0.31057 0.24145 0.80993 0.0
C2112 C 0.72156 0.03385 0.71764 0.0
C2113 C 0.71518 0.04051 0.70914 0.0
C2114 C 0.73122 0.04117 0.73004 0.0
C2115 C 0.75473 0.0779 0.74631 0.0
H2116 H 0.75269 0.05749 0.78519 0.0
C2117 C 0.78383 0.10777 0.80346 0.0
C2118 C 0.79149 0.10239 0.81185 0.0
C2119 C 0.77456 0.09983 0.79107 0.0
C2120 C 0.75347 0.06329 0.77434 0.0
H2121 H 0.71389 0.06 0.70693 0.0
H2122 H 0.73052 0.07265 0.72864 0.0
H2123 H 0.73664 0.04442 0.76304 0.0
H2124 H 0.79513 0.08429 0.81408 0.0
H2125 H 0.7789 0.0704 0.79233 0.0
H2126 H 0.77141 0.0968 0.75769 0.0
C2127 C 0.7283 0.0619 0.72561 0.0
C2128 C 0.74431 0.05581 0.76164 0.0
C2129 C 0.71869 0.05462 0.71321 0.0
C2130 C 0.78945 0.08876 0.80776 0.0
C2131 C 0.78008 0.08076 0.7954 0.0
C2132 C 0.76382 0.08538 0.75902 0.0
C2133 C 0.73467 0.05527 0.73419 0.0
C2134 C 0.74476 0.06305 0.74751 0.0
C2135 C 0.77268 0.0863 0.7868 0.0
C2136 C 0.76322 0.07819 0.77322 0.0
H2137 H 0.71906 0.02299 0.71474 0.0
H2138 H 0.73607 0.03581 0.73627 0.0
H2139 H 0.75558 0.08376 0.7355 0.0
H2140 H 0.78529 0.1183 0.80621 0.0
H2141 H 0.76887 0.10431 0.78478 0.0
C2142 C 0.04349 0.34257 0.02384 0.0
C2143 C 0.03049 0.34014 0.03075 0.0
C2144 C 0.05295 0.33965 0.03241 0.0
C2145 C 0.06363 0.33757 0.07296 0.0
H2146 H 0.07814 0.3136 0.05593 0.0
C2147 C 0.09386 0.31804 0.11278 0.0
C2148 C 0.10555 0.3173 0.10627 0.0
C2149 C 0.08481 0.32055 0.10303 0.0
C2150 C 0.07437 0.3205 0.06078 0.0
H2151 H 0.01718 0.33273 0.05196 0.0
H2152 H 0.0338 0.32791 0.06696 0.0
H2153 H 0.06251 0.31895 0.03959 0.0
H2154 H 0.11694 0.31852 0.08451 0.0
H2155 H 0.10138 0.32335 0.06745 0.0
H2156 H 0.07564 0.3395 0.09396 0.0
C2157 C 0.03664 0.33201 0.05493 0.0
C2158 C 0.0654 0.32351 0.05143 0.0
C2159 C 0.02711 0.33471 0.04632 0.0
C2160 C 0.10792 0.31893 0.08979 0.0
C2161 C 0.09897 0.32165 0.08003 0.0
C2162 C 0.07274 0.33475 0.08222 0.0
C2163 C 0.04966 0.3345 0.04809 0.0
C2164 C 0.0598 0.33192 0.05753 0.0
C2165 C 0.08736 0.32262 0.08655 0.0
C2166 C 0.07807 0.326 0.07635 0.0
H2167 H 0.04633 0.34673 0.01184 0.0
H2168 H 0.06296 0.3417 0.02691 0.0
H2169 H 0.05962 0.34427 0.07784 0.0
H2170 H 0.0917 0.31661 0.12543 0.0
H2171 H 0.07577 0.32084 0.10844 0.0
C2172 C 0.66884 0.69463 0.03842 0.0
C2173 C 0.65538 0.68662 0.03092 0.0
C2174 C 0.67235 0.70733 0.04656 0.0
C2175 C 0.66138 0.735 0.05196 0.0
H2176 H 0.68251 0.74216 0.09155 0.0
C2177 C 0.66664 0.77716 0.09856 0.0
C2178 C 0.68038 0.78594 0.10522 0.0
C2179 C 0.66404 0.76563 0.08864 0.0
C2180 C 0.67674 0.74038 0.08043 0.0
H2181 H 0.63508 0.68568 0.02584 0.0
H2182 H 0.641 0.70767 0.04046 0.0
H2183 H 0.67695 0.72087 0.07588 0.0
H2184 H 0.70218 0.78961 0.10672 0.0
H2185 H 0.69761 0.76934 0.08945 0.0
H2186 H 0.66087 0.75438 0.05688 0.0
C2187 C 0.649 0.70433 0.03979 0.0
C2188 C 0.67358 0.7282 0.0714 0.0
C2189 C 0.64556 0.69168 0.03149 0.0
C2190 C 0.69151 0.78304 0.10168 0.0
C2191 C 0.68887 0.77141 0.0919 0.0
C2192 C 0.66442 0.74712 0.06109 0.0
C2193 C 0.6624 0.71225 0.04757 0.0
C2194 C 0.66587 0.72535 0.05703 0.0
C2195 C 0.67509 0.76256 0.08533 0.0
C2196 C 0.67213 0.74992 0.07541 0.0
H2197 H 0.67669 0.69106 0.03806 0.0
H2198 H 0.68288 0.7133 0.05208 0.0
H2199 H 0.65563 0.73328 0.04085 0.0
H2200 H 0.6579 0.77924 0.10097 0.0
H2201 H 0.6533 0.75892 0.08383 0.0
C2202 C 0.30043 0.95409 0.02664 0.0
C2203 C 0.30567 0.96899 0.02769 0.0
C2204 C 0.2877 0.94433 0.03447 0.0
C2205 C 0.25442 0.94015 0.05231 0.0
H2206 H 0.25674 0.91244 0.07996 0.0
C2207 C 0.2119 0.90906 0.10092 0.0
C2208 C 0.20854 0.8949 0.10441 0.0
C2209 C 0.22305 0.91749 0.09032 0.0
C2210 C 0.25577 0.9199 0.07209 0.0
H2211 H 0.30147 0.98537 0.03719 0.0
H2212 H 0.27915 0.96831 0.05069 0.0
H2213 H 0.27715 0.92796 0.06303 0.0
H2214 H 0.21374 0.87822 0.09913 0.0
H2215 H 0.23292 0.89274 0.08032 0.0
H2216 H 0.23301 0.93208 0.06126 0.0
C2217 C 0.28489 0.96418 0.04387 0.0
C2218 C 0.2675 0.92882 0.06241 0.0
C2219 C 0.2977 0.97393 0.03622 0.0
C2220 C 0.21629 0.8892 0.09684 0.0
C2221 C 0.2273 0.89755 0.0861 0.0
C2222 C 0.24261 0.93112 0.06186 0.0
C2223 C 0.27989 0.94931 0.04328 0.0
C2224 C 0.267 0.93914 0.05257 0.0
C2225 C 0.23095 0.91186 0.08283 0.0
C2226 C 0.2432 0.921 0.07202 0.0
H2227 H 0.30637 0.94999 0.02013 0.0
H2228 H 0.28401 0.9329 0.03375 0.0
H2229 H 0.25372 0.94794 0.0447 0.0
H2230 H 0.20614 0.91373 0.10669 0.0
H2231 H 0.22569 0.92853 0.0883 0.0
C2232 C 0.34152 0.04127 0.99115 0.0
C2233 C 0.33656 0.02719 0.98555 0.0
C2234 C 0.33902 0.0509 0.98236 0.0
C2235 C 0.33161 0.05765 0.94154 0.0
H2236 H 0.31872 0.08188 0.96152 0.0
C2237 C 0.31362 0.09107 0.90454 0.0
C2238 C 0.31796 0.10513 0.90981 0.0
C2239 C 0.31563 0.08159 0.91414 0.0
C2240 C 0.32248 0.07531 0.95578 0.0
H2241 H 0.32487 0.01206 0.96655 0.0
H2242 H 0.32051 0.02881 0.95131 0.0
H2243 H 0.32292 0.06545 0.97779 0.0
H2244 H 0.3275 0.12009 0.92951 0.0
H2245 H 0.33139 0.10368 0.94605 0.0
H2246 H 0.33134 0.06754 0.91957 0.0
C2247 C 0.32645 0.03248 0.96236 0.0
C2248 C 0.32487 0.0659 0.96511 0.0
C2249 C 0.32889 0.02286 0.97116 0.0
C2250 C 0.32422 0.10941 0.92498 0.0
C2251 C 0.32628 0.09993 0.93456 0.0
C2252 C 0.32929 0.06709 0.93223 0.0
C2253 C 0.33159 0.04663 0.96779 0.0
C2254 C 0.32937 0.05691 0.95806 0.0
C2255 C 0.32208 0.08594 0.92922 0.0
C2256 C 0.32462 0.07598 0.93922 0.0
H2257 H 0.34747 0.04489 0.00221 0.0
H2258 H 0.34318 0.06178 0.98679 0.0
H2259 H 0.33532 0.05103 0.9358 0.0
H2260 H 0.30887 0.08746 0.89288 0.0
H2261 H 0.31209 0.07081 0.90975 0.0
C2262 C 0.96004 0.30178 0.99086 0.0
C2263 C 0.97431 0.31064 0.98563 0.0
C2264 C 0.95064 0.28926 0.98243 0.0
C2265 C 0.94476 0.27375 0.94244 0.0
H2266 H 0.92025 0.23715 0.96333 0.0
C2267 C 0.91104 0.22166 0.90646 0.0
C2268 C 0.89698 0.21205 0.91185 0.0
C2269 C 0.92064 0.23327 0.9159 0.0
C2270 C 0.92689 0.24733 0.95732 0.0
H2271 H 0.99001 0.31324 0.96767 0.0
H2272 H 0.97362 0.29149 0.95298 0.0
H2273 H 0.93646 0.25826 0.9792 0.0
H2274 H 0.88218 0.20691 0.93166 0.0
H2275 H 0.89871 0.22743 0.94784 0.0
H2276 H 0.93509 0.26303 0.92063 0.0
C2277 C 0.96966 0.29424 0.96352 0.0
C2278 C 0.93619 0.25939 0.96643 0.0
C2279 C 0.97906 0.30665 0.97199 0.0
C2280 C 0.89284 0.21423 0.92701 0.0
C2281 C 0.9024 0.2259 0.93641 0.0
C2282 C 0.9354 0.26174 0.93337 0.0
C2283 C 0.95533 0.28549 0.96856 0.0
C2284 C 0.94526 0.2727 0.95905 0.0
C2285 C 0.91639 0.23563 0.93093 0.0
C2286 C 0.92639 0.24836 0.94067 0.0
H2287 H 0.95609 0.3046 0.00134 0.0
H2288 H 0.93961 0.28274 0.98653 0.0
H2289 H 0.95148 0.28393 0.93647 0.0
H2290 H 0.91456 0.22039 0.89479 0.0
H2291 H 0.9314 0.24042 0.9114 0.0
C2292 C 0.69303 0.66551 0.98428 0.0
C2293 C 0.68118 0.65163 0.98674 0.0
C2294 C 0.70504 0.66743 0.97574 0.0
C2295 C 0.71599 0.65023 0.94538 0.0
H2296 H 0.75468 0.67848 0.95897 0.0
C2297 C 0.76721 0.6589 0.91237 0.0
C2298 C 0.77848 0.67323 0.91052 0.0
C2299 C 0.75532 0.65571 0.92199 0.0
C2300 C 0.74394 0.67066 0.95493 0.0
H2301 H 0.67266 0.62882 0.98239 0.0
H2302 H 0.69375 0.63217 0.96738 0.0
H2303 H 0.73408 0.67366 0.97561 0.0
H2304 H 0.78607 0.69543 0.91733 0.0
H2305 H 0.76517 0.68991 0.93379 0.0
H2306 H 0.72584 0.64737 0.92458 0.0
C2307 C 0.69367 0.64157 0.97201 0.0
C2308 C 0.73214 0.66787 0.96448 0.0
C2309 C 0.68165 0.63965 0.98066 0.0
C2310 C 0.77751 0.6843 0.91837 0.0
C2311 C 0.76562 0.68111 0.92798 0.0
C2312 C 0.7278 0.65304 0.93579 0.0
C2313 C 0.70546 0.6555 0.9694 0.0
C2314 C 0.71803 0.65773 0.95974 0.0
C2315 C 0.75443 0.66677 0.92997 0.0
C2316 C 0.7419 0.6634 0.94038 0.0
H2317 H 0.69297 0.67496 0.98881 0.0
H2318 H 0.71386 0.6783 0.97376 0.0
H2319 H 0.70523 0.64249 0.94131 0.0
H2320 H 0.76755 0.65014 0.90634 0.0
H2321 H 0.74694 0.64454 0.92335 0.0
C2322 C 0.95889 0.6588 0.99324 0.0
C2323 C 0.97238 0.66279 0.98649 0.0
C2324 C 0.94932 0.66207 0.98549 0.0
C2325 C 0.94781 0.68562 0.95408 0.0
H2326 H 0.90719 0.6566 0.95249 0.0
C2327 C 0.90787 0.68777 0.90961 0.0
C2328 C 0.89402 0.68392 0.91524 0.0
C2329 C 0.91753 0.68603 0.91921 0.0
C2330 C 0.91848 0.66489 0.953 0.0
H2331 H 0.98648 0.67334 0.96638 0.0
H2332 H 0.96976 0.6788 0.95275 0.0
H2333 H 0.92381 0.65194 0.9677 0.0
H2334 H 0.87969 0.67571 0.93562 0.0
H2335 H 0.89651 0.67251 0.9523 0.0
H2336 H 0.94248 0.69843 0.93908 0.0
C2337 C 0.96662 0.67339 0.96415 0.0
C2338 C 0.928 0.66223 0.96173 0.0
C2339 C 0.97617 0.67017 0.97191 0.0
C2340 C 0.89016 0.67851 0.9308 0.0
C2341 C 0.8998 0.6767 0.94037 0.0
C2342 C 0.9383 0.68824 0.94528 0.0
C2343 C 0.95307 0.66937 0.97082 0.0
C2344 C 0.94281 0.67251 0.96226 0.0
C2345 C 0.91354 0.68035 0.93464 0.0
C2346 C 0.92355 0.67786 0.94454 0.0
H2347 H 0.95571 0.65314 0.0045 0.0
H2348 H 0.93904 0.65897 0.99104 0.0
H2349 H 0.95911 0.69389 0.95447 0.0
H2350 H 0.91112 0.69179 0.89762 0.0
H2351 H 0.92799 0.68876 0.9144 0.0
C2352 C 0.33135 0.302 0.98458 0.0
C2353 C 0.34531 0.31381 0.98689 0.0
C2354 C 0.32929 0.28998 0.97594 0.0
C2355 C 0.34605 0.27952 0.9447 0.0
H2356 H 0.31834 0.24055 0.95784 0.0
C2357 C 0.33811 0.22951 0.91001 0.0
C2358 C 0.32393 0.21788 0.90839 0.0
C2359 C 0.34108 0.24111 0.91998 0.0
C2360 C 0.32599 0.25137 0.95391 0.0
H2361 H 0.36807 0.32218 0.98229 0.0
H2362 H 0.36445 0.30112 0.9671 0.0
H2363 H 0.32309 0.26081 0.97504 0.0
H2364 H 0.30174 0.20938 0.91601 0.0
H2365 H 0.30685 0.22984 0.93299 0.0
H2366 H 0.34876 0.27017 0.92344 0.0
C2367 C 0.35512 0.30123 0.97192 0.0
C2368 C 0.32875 0.26297 0.96379 0.0
C2369 C 0.3572 0.31323 0.98068 0.0
C2370 C 0.31276 0.21822 0.91684 0.0
C2371 C 0.31573 0.22986 0.92676 0.0
C2372 C 0.34324 0.26794 0.93477 0.0
C2373 C 0.34112 0.28955 0.96933 0.0
C2374 C 0.33875 0.27717 0.95925 0.0
C2375 C 0.32993 0.24141 0.92852 0.0
C2376 C 0.33311 0.25372 0.93921 0.0
H2377 H 0.32198 0.30214 0.98923 0.0
H2378 H 0.31837 0.28122 0.97401 0.0
H2379 H 0.35365 0.29037 0.94077 0.0
H2380 H 0.34694 0.22968 0.90353 0.0
H2381 H 0.35216 0.24975 0.92116 0.0
C2382 C 0.69114 0.04255 0.98746 0.0
C2383 C 0.68786 0.02817 0.98908 0.0
C2384 C 0.70345 0.05246 0.9791 0.0
C2385 C 0.73895 0.05998 0.96497 0.0
H2386 H 0.73289 0.08083 0.931 0.0
C2387 C 0.78274 0.09181 0.91781 0.0
C2388 C 0.7841 0.10475 0.91201 0.0
C2389 C 0.77125 0.08279 0.92774 0.0
C2390 C 0.73488 0.07532 0.9406 0.0
H2391 H 0.69512 0.01299 0.98382 0.0
H2392 H 0.71677 0.03041 0.96947 0.0
H2393 H 0.71282 0.06503 0.94821 0.0
H2394 H 0.7742 0.11818 0.91204 0.0
H2395 H 0.75465 0.10286 0.9299 0.0
H2396 H 0.76104 0.07039 0.95762 0.0
C2397 C 0.70979 0.03398 0.97458 0.0
C2398 C 0.72334 0.06623 0.95043 0.0
C2399 C 0.69738 0.02401 0.98273 0.0
C2400 C 0.77366 0.10842 0.91643 0.0
C2401 C 0.76228 0.09949 0.92652 0.0
C2402 C 0.75055 0.06922 0.95529 0.0
C2403 C 0.71279 0.04822 0.97244 0.0
C2404 C 0.72525 0.0584 0.96262 0.0
C2405 C 0.7609 0.08654 0.93229 0.0
C2406 C 0.74864 0.07694 0.94288 0.0
H2407 H 0.68398 0.04604 0.99222 0.0
H2408 H 0.70559 0.06342 0.97772 0.0
H2409 H 0.74071 0.05413 0.97439 0.0
H2410 H 0.79066 0.08871 0.91486 0.0
H2411 H 0.77044 0.0728 0.93174 0.0
C2412 C 0.65722 0.95735 0.02478 0.0
C2413 C 0.65816 0.96961 0.03205 0.0
C2414 C 0.6604 0.94812 0.03343 0.0
C2415 C 0.66135 0.93659 0.07413 0.0
H2416 H 0.68756 0.92459 0.05769 0.0
C2417 C 0.68238 0.90768 0.11402 0.0
C2418 C 0.68378 0.89641 0.10737 0.0
C2419 C 0.67956 0.91656 0.10436 0.0
C2420 C 0.68006 0.92767 0.06237 0.0
H2421 H 0.66315 0.98185 0.054 0.0
H2422 H 0.66851 0.96568 0.06909 0.0
H2423 H 0.68159 0.93978 0.04143 0.0
H2424 H 0.68341 0.88564 0.08541 0.0
H2425 H 0.67817 0.90097 0.0685 0.0
H2426 H 0.65955 0.92437 0.09492 0.0
C2427 C 0.66532 0.96319 0.05674 0.0
C2428 C 0.67667 0.93638 0.05306 0.0
C2429 C 0.66233 0.97248 0.04808 0.0
C2430 C 0.68253 0.89435 0.09082 0.0
C2431 C 0.67955 0.90315 0.08115 0.0
C2432 C 0.66461 0.92778 0.08336 0.0
C2433 C 0.66437 0.95091 0.04953 0.0
C2434 C 0.66742 0.94106 0.05894 0.0
C2435 C 0.67788 0.91429 0.08782 0.0
C2436 C 0.67414 0.92334 0.0777 0.0
H2437 H 0.65405 0.9549 0.01243 0.0
H2438 H 0.65952 0.93868 0.02762 0.0
H2439 H 0.654 0.93986 0.07885 0.0
H2440 H 0.68349 0.90962 0.12673 0.0
H2441 H 0.6787 0.92524 0.10988 0.0
C2442 C 0.02573 0.70107 0.03495 0.0
C2443 C 0.03075 0.69293 0.02689 0.0
C2444 C 0.03538 0.7138 0.04278 0.0
C2445 C 0.07002 0.73056 0.06292 0.0
H2446 H 0.06739 0.76535 0.06093 0.0
C2447 C 0.10871 0.78131 0.09865 0.0
C2448 C 0.1029 0.78919 0.10565 0.0
C2449 C 0.10066 0.77036 0.08773 0.0
C2450 C 0.06816 0.75567 0.06176 0.0
H2451 H 0.04979 0.69186 0.02037 0.0
H2452 H 0.06671 0.71409 0.03433 0.0
H2453 H 0.05203 0.74491 0.0438 0.0
H2454 H 0.08416 0.79187 0.10675 0.0
H2455 H 0.06986 0.77242 0.08802 0.0
H2456 H 0.08568 0.74097 0.08125 0.0
C2457 C 0.05529 0.71059 0.03452 0.0
C2458 C 0.05943 0.74401 0.05188 0.0
C2459 C 0.04564 0.69793 0.02649 0.0
C2460 C 0.08891 0.786 0.10144 0.0
C2461 C 0.08078 0.77491 0.09064 0.0
C2462 C 0.07863 0.74214 0.07292 0.0
C2463 C 0.05022 0.71855 0.04288 0.0
C2464 C 0.0602 0.73131 0.05245 0.0
C2465 C 0.08654 0.76692 0.08368 0.0
C2466 C 0.07775 0.75482 0.07256 0.0
H2467 H 0.0143 0.69748 0.03542 0.0
H2468 H 0.03117 0.71965 0.04924 0.0
H2469 H 0.07067 0.72081 0.06377 0.0
H2470 H 0.11958 0.78373 0.1015 0.0
H2471 H 0.10558 0.76465 0.08238 0.0
C2472 C 0.30278 0.34652 0.0256 0.0
C2473 C 0.31327 0.34396 0.03242 0.0
C2474 C 0.2905 0.3438 0.03431 0.0
C2475 C 0.2775 0.34117 0.07504 0.0
H2476 H 0.23917 0.31679 0.05771 0.0
C2477 C 0.22727 0.31877 0.11486 0.0
C2478 C 0.21467 0.3178 0.10856 0.0
C2479 C 0.23906 0.32211 0.10503 0.0
C2480 C 0.24978 0.3238 0.06266 0.0
H2481 H 0.31928 0.33672 0.05366 0.0
H2482 H 0.29804 0.33225 0.06887 0.0
H2483 H 0.26035 0.32305 0.04129 0.0
H2484 H 0.20447 0.31954 0.0871 0.0
H2485 H 0.22517 0.3257 0.06994 0.0
H2486 H 0.26711 0.34219 0.09629 0.0
C2487 C 0.29925 0.33629 0.05683 0.0
C2488 C 0.26189 0.32736 0.05324 0.0
C2489 C 0.31136 0.33878 0.04809 0.0
C2490 C 0.21401 0.32006 0.09221 0.0
C2491 C 0.22587 0.32357 0.08239 0.0
C2492 C 0.26542 0.33778 0.08438 0.0
C2493 C 0.2887 0.33874 0.05003 0.0
C2494 C 0.27585 0.33589 0.05945 0.0
C2495 C 0.23859 0.32475 0.0887 0.0
C2496 C 0.2514 0.32886 0.07841 0.0
H2497 H 0.30399 0.35049 0.01353 0.0
H2498 H 0.28252 0.34582 0.02884 0.0
H2499 H 0.28816 0.34794 0.08003 0.0
H2500 H 0.22799 0.3169 0.1274 0.0
H2501 H 0.24852 0.32256 0.11025 0.0
C2502 C 0.70764 0.68103 0.36152 0.0
C2503 C 0.69391 0.67685 0.36772 0.0
C2504 C 0.71718 0.67813 0.36993 0.0
C2505 C 0.72499 0.67048 0.41019 0.0
H2506 H 0.74502 0.65368 0.38842 0.0
C2507 C 0.75597 0.64811 0.44461 0.0
C2508 C 0.76934 0.65092 0.43842 0.0
C2509 C 0.74684 0.65118 0.43569 0.0
C2510 C 0.73965 0.65853 0.39464 0.0
H2511 H 0.67941 0.6665 0.3876 0.0
H2512 H 0.69605 0.66152 0.40227 0.0
H2513 H 0.72933 0.65981 0.37337 0.0
H2514 H 0.78339 0.65878 0.41779 0.0
H2515 H 0.76765 0.66452 0.40242 0.0
H2516 H 0.73534 0.66934 0.43142 0.0
C2517 C 0.69948 0.66707 0.39097 0.0
C2518 C 0.73067 0.66204 0.38602 0.0
C2519 C 0.68993 0.66986 0.38252 0.0
C2520 C 0.77325 0.65667 0.423 0.0
C2521 C 0.76414 0.65979 0.4141 0.0
C2522 C 0.73402 0.66705 0.41879 0.0
C2523 C 0.71319 0.67114 0.38475 0.0
C2524 C 0.72317 0.66795 0.39373 0.0
C2525 C 0.75088 0.65719 0.42039 0.0
C2526 C 0.74139 0.66095 0.41115 0.0
H2527 H 0.71097 0.68643 0.35013 0.0
H2528 H 0.72772 0.68149 0.36492 0.0
H2529 H 0.71951 0.67522 0.4164 0.0
H2530 H 0.75268 0.64381 0.4565 0.0
H2531 H 0.73659 0.64883 0.4408 0.0
C2532 C 0.33583 0.0288 0.37239 0.0
C2533 C 0.32198 0.01977 0.36614 0.0
C2534 C 0.33899 0.04148 0.38038 0.0
C2535 C 0.32594 0.06729 0.38721 0.0
H2536 H 0.34999 0.07689 0.42485 0.0
C2537 C 0.33229 0.11033 0.43323 0.0
C2538 C 0.34631 0.1197 0.4389 0.0
C2539 C 0.32955 0.09864 0.42352 0.0
C2540 C 0.34339 0.07444 0.41426 0.0
H2541 H 0.30063 0.01699 0.36311 0.0
H2542 H 0.30602 0.039 0.37745 0.0
H2543 H 0.34459 0.05547 0.40953 0.0
H2544 H 0.36846 0.12425 0.43878 0.0
H2545 H 0.36366 0.10378 0.42181 0.0
H2546 H 0.32452 0.08616 0.39228 0.0
C2547 C 0.31454 0.03643 0.37593 0.0
C2548 C 0.34031 0.06218 0.40544 0.0
C2549 C 0.31141 0.02378 0.36779 0.0
C2550 C 0.35756 0.11725 0.43452 0.0
C2551 C 0.3548 0.10548 0.42492 0.0
C2552 C 0.32893 0.07951 0.39613 0.0
C2553 C 0.32834 0.04535 0.38246 0.0
C2554 C 0.33158 0.05846 0.39178 0.0
C2555 C 0.34075 0.09602 0.41939 0.0
C2556 C 0.33771 0.08321 0.40973 0.0
H2557 H 0.34425 0.02606 0.37116 0.0
H2558 H 0.34982 0.04823 0.38493 0.0
H2559 H 0.31934 0.06486 0.37664 0.0
H2560 H 0.32343 0.11206 0.4363 0.0
H2561 H 0.3186 0.09147 0.41952 0.0
C2562 C 0.96933 0.3112 0.37089 0.0
C2563 C 0.9768 0.30554 0.36264 0.0
C2564 C 0.95637 0.30203 0.37866 0.0
C2565 C 0.92723 0.2636 0.38159 0.0
H2566 H 0.92088 0.27574 0.42283 0.0
C2567 C 0.88537 0.2248 0.42713 0.0
C2568 C 0.87686 0.22955 0.43488 0.0
C2569 C 0.89676 0.23413 0.4173 0.0
C2570 C 0.92243 0.27228 0.41124 0.0
H2571 H 0.97654 0.28589 0.35587 0.0
H2572 H 0.95415 0.26987 0.36982 0.0
H2573 H 0.94235 0.29187 0.40759 0.0
H2574 H 0.87351 0.2477 0.43837 0.0
H2575 H 0.89358 0.26412 0.42124 0.0
H2576 H 0.90747 0.24378 0.38561 0.0
C2577 C 0.95808 0.28136 0.37002 0.0
C2578 C 0.93471 0.28154 0.40247 0.0
C2579 C 0.97097 0.29053 0.3621 0.0
C2580 C 0.87987 0.24376 0.43247 0.0
C2581 C 0.89138 0.25316 0.42278 0.0
C2582 C 0.91502 0.25428 0.39046 0.0
C2583 C 0.95067 0.287 0.3785 0.0
C2584 C 0.93731 0.2773 0.38756 0.0
C2585 C 0.89997 0.24844 0.41515 0.0
C2586 C 0.91254 0.25852 0.4054 0.0
H2587 H 0.97352 0.32273 0.37139 0.0
H2588 H 0.95083 0.30674 0.38479 0.0
H2589 H 0.92874 0.26007 0.37004 0.0
H2590 H 0.88319 0.21384 0.42868 0.0
H2591 H 0.90328 0.23025 0.41165 0.0
C2592 C 0.02002 0.37839 0.32004 0.0
C2593 C 0.00957 0.36366 0.31937 0.0
C2594 C 0.01814 0.38847 0.31139 0.0
C2595 C 0.99088 0.39464 0.29247 0.0
H2596 H 0.02236 0.42119 0.26537 0.0
C2597 C 0.98341 0.42934 0.24516 0.0
C2598 C 0.995 0.44329 0.24232 0.0
C2599 C 0.98516 0.41988 0.2551 0.0
C2600 C 0.01353 0.41404 0.27306 0.0
H2601 H 0.98882 0.34795 0.30951 0.0
H2602 H 0.98546 0.36562 0.29459 0.0
H2603 H 0.02545 0.40448 0.28228 0.0
H2604 H 0.01736 0.45845 0.24794 0.0
H2605 H 0.02034 0.44213 0.26564 0.0
H2606 H 0.979 0.40428 0.2835 0.0
C2607 C 0.9951 0.36934 0.30175 0.0
C2608 C 0.01531 0.40444 0.28271 0.0
C2609 C 0.99706 0.35924 0.31022 0.0
C2610 C 0.00831 0.44767 0.24976 0.0
C2611 C 0.01002 0.43829 0.25985 0.0
C2612 C 0.98914 0.40436 0.28296 0.0
C2613 C 0.0057 0.38402 0.30211 0.0
C2614 C 0.00397 0.39458 0.29241 0.0
C2615 C -0.00151 0.42423 0.26259 0.0
C2616 C 0.00042 0.41412 0.27304 0.0
H2617 H 0.02977 0.38209 0.32699 0.0
H2618 H 0.02642 0.39975 0.31196 0.0
H2619 H 0.98201 0.38723 0.29998 0.0
H2620 H 0.97307 0.42567 0.23945 0.0
H2621 H 0.97611 0.40907 0.25669 0.0
C2622 C 0.64297 0.64108 0.30642 0.0
C2623 C 0.63783 0.64451 0.32016 0.0
C2624 C 0.63403 0.62857 0.29783 0.0
C2625 C 0.60292 0.59252 0.30042 0.0
H2626 H 0.59804 0.59718 0.25554 0.0
C2627 C 0.56051 0.54573 0.26174 0.0
C2628 C 0.5637 0.54538 0.24562 0.0
C2629 C 0.56981 0.55743 0.27129 0.0
C2630 C 0.59947 0.59559 0.26797 0.0
H2631 H 0.61949 0.63739 0.33597 0.0
H2632 H 0.60391 0.61522 0.32106 0.0
H2633 H 0.61393 0.61818 0.27151 0.0
H2634 H 0.57928 0.5565 0.22692 0.0
H2635 H 0.59589 0.5766 0.24367 0.0
H2636 H 0.58884 0.56989 0.29688 0.0
C2637 C 0.61483 0.62233 0.31694 0.0
C2638 C 0.6085 0.60766 0.27712 0.0
C2639 C 0.6237 0.63501 0.32539 0.0
C2640 C 0.57655 0.55665 0.2393 0.0
C2641 C 0.58598 0.5682 0.2489 0.0
C2642 C 0.59407 0.58037 0.2912 0.0
C2643 C 0.61987 0.61913 0.30297 0.0
C2644 C 0.61028 0.60624 0.29341 0.0
C2645 C 0.58261 0.5689 0.26495 0.0
C2646 C 0.5922 0.58174 0.27484 0.0
H2647 H 0.65381 0.64822 0.30211 0.0
H2648 H 0.63818 0.62626 0.28714 0.0
H2649 H 0.60424 0.59118 0.31297 0.0
H2650 H 0.55057 0.53719 0.26681 0.0
H2651 H 0.56672 0.55765 0.2835 0.0
C2652 C 0.35332 0.97663 0.32052 0.0
C2653 C 0.35041 0.98795 0.32229 0.0
C2654 C 0.36517 0.97857 0.31156 0.0
C2655 C 0.39065 0.00252 0.28054 0.0
H2656 H 0.41155 0.98284 0.2916 0.0
C2657 C 0.44338 0.01331 0.24937 0.0
C2658 C 0.44367 0.00097 0.24414 0.0
C2659 C 0.43226 0.01201 0.2592 0.0
C2660 C 0.40575 0.98834 0.28836 0.0
H2661 H 0.35781 0.01032 0.31662 0.0
H2662 H 0.37881 0.01394 0.30154 0.0
H2663 H 0.39205 0.98037 0.30877 0.0
H2664 H 0.43225 0.97754 0.24502 0.0
H2665 H 0.41314 0.97537 0.2626 0.0
H2666 H 0.40464 0.01072 0.2603 0.0
C2667 C 0.37173 0.00339 0.30658 0.0
C2668 C 0.39454 0.98689 0.29814 0.0
C2669 C 0.35976 0.00137 0.31533 0.0
C2670 C 0.43257 0.9873 0.24905 0.0
C2671 C 0.42158 0.98603 0.25907 0.0
C2672 C 0.402 0.00413 0.27091 0.0
C2673 C 0.37448 0.99196 0.30438 0.0
C2674 C 0.38676 0.99388 0.2943 0.0
C2675 C 0.42132 0.99836 0.2642 0.0
C2676 C 0.40957 0.99697 0.27467 0.0
H2677 H 0.34622 0.96613 0.32568 0.0
H2678 H 0.36678 0.96945 0.30994 0.0
H2679 H 0.38475 0.00783 0.277 0.0
H2680 H 0.45187 0.02402 0.24609 0.0
H2681 H 0.43235 0.02169 0.26313 0.0
C2682 C 0.62024 0.97813 0.32093 0.0
C2683 C 0.63429 0.9896 0.32363 0.0
C2684 C 0.6103 0.98035 0.31244 0.0
C2685 C 0.60889 0.00562 0.28345 0.0
H2686 H 0.56784 0.98376 0.29243 0.0
C2687 C 0.56662 0.01461 0.25026 0.0
C2688 C 0.55433 0.00205 0.24473 0.0
C2689 C 0.57638 0.01366 0.26053 0.0
C2690 C 0.57927 0.98989 0.28976 0.0
H2691 H 0.64881 0.0125 0.3202 0.0
H2692 H 0.63133 0.01651 0.30583 0.0
H2693 H 0.58473 0.98143 0.30993 0.0
H2694 H 0.54291 0.97863 0.24548 0.0
H2695 H 0.55978 0.97705 0.26367 0.0
H2696 H 0.60336 0.01416 0.26335 0.0
C2697 C 0.62808 0.0057 0.30985 0.0
C2698 C 0.58896 0.98854 0.29975 0.0
C2699 C 0.63806 0.00344 0.3182 0.0
C2700 C 0.55208 0.98854 0.24972 0.0
C2701 C 0.56176 0.98761 0.26012 0.0
C2702 C 0.59921 0.00709 0.27357 0.0
C2703 C 0.61415 0.99413 0.30661 0.0
C2704 C 0.60388 0.99625 0.29661 0.0
C2705 C 0.57399 0.00016 0.26562 0.0
C2706 C 0.5843 -0.00089 0.27652 0.0
H2707 H 0.61705 0.96732 0.32491 0.0
H2708 H 0.59977 0.97113 0.31 0.0
H2709 H 0.62026 0.01154 0.28047 0.0
H2710 H 0.56858 0.0252 0.24691 0.0
H2711 H 0.58567 0.02351 0.26471 0.0
C2712 C 0.02568 0.64561 0.32039 0.0
C2713 C 0.01406 0.64819 0.32145 0.0
C2714 C 0.02416 0.63362 0.31204 0.0
C2715 C 0.99695 0.59782 0.29715 0.0
H2716 H 0.02603 0.60358 0.2659 0.0
C2717 C 0.98678 0.55534 0.2492 0.0
C2718 C 0.9983 0.55334 0.24475 0.0
C2719 C 0.98906 0.56658 0.25943 0.0
C2720 C 0.01792 0.60171 0.27475 0.0
H2721 H 0.99171 0.64017 0.31489 0.0
H2722 H 0.98905 0.61923 0.30044 0.0
H2723 H 0.0295 0.62368 0.28264 0.0
H2724 H 0.02119 0.56131 0.24779 0.0
H2725 H 0.02517 0.58082 0.26582 0.0
H2726 H 0.98535 0.57587 0.28934 0.0
C2727 C -0.0007 0.62642 0.30608 0.0
C2728 C 0.01991 0.61324 0.28433 0.0
C2729 C 0.00085 0.63846 0.31426 0.0
C2730 C 0.01215 0.56273 0.25083 0.0
C2731 C 0.01442 0.57391 0.26115 0.0
C2732 C 0.995 0.58626 0.28767 0.0
C2733 C 0.01096 0.62393 0.30478 0.0
C2734 C 0.00936 0.61146 0.29547 0.0
C2735 C 0.00292 0.57601 0.26553 0.0
C2736 C 0.00536 0.58811 0.2762 0.0
H2737 H 0.03598 0.65295 0.32582 0.0
H2738 H 0.03329 0.63189 0.31131 0.0
H2739 H 0.98874 0.59609 0.30581 0.0
H2740 H 0.97603 0.54836 0.24454 0.0
H2741 H 0.98 0.56802 0.26231 0.0
C2742 C 0.36338 0.37543 0.32625 0.0
C2743 C 0.35218 0.36317 0.3188 0.0
C2744 C 0.37561 0.38513 0.31759 0.0
C2745 C 0.38799 0.39784 0.27706 0.0
H2746 H 0.42627 0.40951 0.2931 0.0
C2747 C 0.43812 0.42746 0.23722 0.0
C2748 C 0.45093 0.4384 0.24404 0.0
C2749 C 0.42628 0.41855 0.24677 0.0
C2750 C 0.41568 0.40655 0.28854 0.0
H2751 H 0.34487 0.35153 0.2965 0.0
H2752 H 0.36609 0.36856 0.28139 0.0
H2753 H 0.4051 0.39391 0.30921 0.0
H2754 H 0.46141 0.44863 0.26618 0.0
H2755 H 0.44063 0.43327 0.28289 0.0
H2756 H 0.39842 0.41057 0.25653 0.0
C2757 C 0.36544 0.37066 0.29388 0.0
C2758 C 0.40357 0.3976 0.29777 0.0
C2759 C 0.35334 0.36088 0.30255 0.0
C2760 C 0.45171 0.44017 0.26063 0.0
C2761 C 0.43981 0.43134 0.27019 0.0
C2762 C 0.40008 0.40691 0.26791 0.0
C2763 C 0.37672 0.38285 0.30131 0.0
C2764 C 0.38961 0.39302 0.29202 0.0
C2765 C 0.4269 0.42047 0.26337 0.0
C2766 C 0.41408 0.41124 0.27343 0.0
H2767 H 0.36277 0.37744 0.33877 0.0
H2768 H 0.38413 0.3945 0.32357 0.0
H2769 H 0.37735 0.39464 0.27244 0.0
H2770 H 0.43729 0.42574 0.22447 0.0
H2771 H 0.41666 0.41008 0.24111 0.0
C2772 C 0.32416 0.29248 0.36102 0.0
C2773 C 0.32843 0.30642 0.36661 0.0
C2774 C 0.32759 0.28342 0.36963 0.0
C2775 C 0.33395 0.27596 0.40983 0.0
H2776 H 0.3535 0.25735 0.39095 0.0
C2777 C 0.3523 0.24375 0.44831 0.0
C2778 C 0.35156 0.23135 0.44174 0.0
C2779 C 0.35009 0.25314 0.43877 0.0
C2780 C 0.34782 0.26226 0.39637 0.0
H2781 H 0.33968 0.32187 0.38547 0.0
H2782 H 0.34534 0.3059 0.40068 0.0
H2783 H 0.34816 0.273 0.3747 0.0
H2784 H 0.34787 0.21893 0.42018 0.0
H2785 H 0.34341 0.23497 0.40358 0.0
H2786 H 0.33304 0.26494 0.4313 0.0
C2787 C 0.33946 0.30205 0.3896 0.0
C2788 C 0.34485 0.27127 0.38706 0.0
C2789 C 0.33628 0.31118 0.38087 0.0
C2790 C 0.34864 0.22852 0.42546 0.0
C2791 C 0.34616 0.23777 0.41596 0.0
C2792 C 0.33668 0.26676 0.41906 0.0
C2793 C 0.33509 0.28808 0.3841 0.0
C2794 C 0.338 0.27828 0.39376 0.0
C2795 C 0.34679 0.25018 0.4225 0.0
C2796 C 0.34376 0.25987 0.41252 0.0
H2797 H 0.31812 0.28855 0.35005 0.0
H2798 H 0.32406 0.27265 0.36521 0.0
H2799 H 0.32848 0.28111 0.41519 0.0
H2800 H 0.35469 0.24622 0.46082 0.0
H2801 H 0.35103 0.26274 0.44419 0.0
C2802 C 0.70698 0.03045 0.35709 0.0
C2803 C 0.6961 0.01861 0.36542 0.0
C2804 C 0.71664 0.04307 0.36522 0.0
C2805 C 0.73173 0.05644 0.40507 0.0
H2806 H 0.739 0.09362 0.38971 0.0
C2807 C 0.75815 0.10661 0.44492 0.0
C2808 C 0.76852 0.11973 0.43811 0.0
C2809 C 0.74973 0.09462 0.43537 0.0
C2810 C 0.73724 0.08335 0.39405 0.0
H2811 H 0.68688 0.01062 0.38874 0.0
H2812 H 0.7037 0.03253 0.40286 0.0
H2813 H 0.72406 0.07192 0.374 0.0
H2814 H 0.77808 0.13062 0.4159 0.0
H2815 H 0.76341 0.1096 0.39916 0.0
H2816 H 0.74485 0.06774 0.42509 0.0
C2817 C 0.70485 0.03208 0.3901 0.0
C2818 C 0.72869 0.07093 0.38505 0.0
C2819 C 0.69516 0.01956 0.382 0.0
C2820 C 0.77007 0.12069 0.42148 0.0
C2821 C 0.76167 0.10865 0.4119 0.0
C2822 C 0.7403 0.06882 0.41401 0.0
C2823 C 0.71566 0.04399 0.38182 0.0
C2824 C 0.72567 0.05732 0.39061 0.0
C2825 C 0.75153 0.09542 0.41876 0.0
C2826 C 0.74298 0.0824 0.40875 0.0
H2827 H 0.70793 0.03001 0.34431 0.0
H2828 H 0.72493 0.05207 0.35855 0.0
H2829 H 0.72979 0.04612 0.40952 0.0
H2830 H 0.75656 0.10562 0.45768 0.0
H2831 H 0.74179 0.0847 0.44102 0.0
C2832 C 0.97628 0.68603 0.36943 0.0
C2833 C 0.97971 0.67519 0.36652 0.0
C2834 C 0.96394 0.68298 0.37815 0.0
C2835 C 0.9376 0.65611 0.40659 0.0
H2836 H 0.91579 0.67516 0.39702 0.0
C2837 C 0.88263 0.6406 0.43575 0.0
C2838 C 0.88125 0.65216 0.44164 0.0
C2839 C 0.89453 0.64319 0.42647 0.0
C2840 C 0.92184 0.66983 0.39986 0.0
H2841 H 0.97274 0.65257 0.36994 0.0
H2842 H 0.95097 0.6471 0.38463 0.0
H2843 H 0.93644 0.67989 0.38048 0.0
H2844 H 0.89161 0.67553 0.44269 0.0
H2845 H 0.91212 0.67996 0.42613 0.0
H2846 H 0.92274 0.64584 0.42579 0.0
C2847 C 0.95798 0.65807 0.38066 0.0
C2848 C 0.93371 0.67257 0.39044 0.0
C2849 C 0.97041 0.66117 0.37213 0.0
C2850 C 0.89212 0.66635 0.43809 0.0
C2851 C 0.90391 0.66892 0.42864 0.0
C2852 C 0.92562 0.65324 0.41587 0.0
C2853 C 0.95468 0.66897 0.38397 0.0
C2854 C 0.9418 0.66581 0.39373 0.0
C2855 C 0.90521 0.65737 0.42272 0.0
C2856 C 0.91769 0.66014 0.41265 0.0
H2857 H 0.98331 0.69695 0.36531 0.0
H2858 H 0.96189 0.69171 0.38065 0.0
H2859 H 0.94372 0.65091 0.40971 0.0
H2860 H 0.87438 0.62954 0.43802 0.0
H2861 H 0.89524 0.63409 0.42194 0.0
C2862 C 0.36515 0.00428 0.70093 0.0
C2863 C 0.36654 0.01772 0.6973 0.0
C2864 C 0.37602 0.00348 0.70921 0.0
C2865 C 0.40613 0.0241 0.73679 0.0
H2866 H 0.41599 0.99482 0.72627 0.0
C2867 C 0.45058 0.01868 0.77005 0.0
C2868 C 0.44722 0.00457 0.774 0.0
C2869 C 0.44157 0.02102 0.75998 0.0
C2870 C 0.41328 0.00298 0.72942 0.0
H2871 H 0.38052 0.04088 0.69923 0.0
H2872 H 0.39964 0.0395 0.71366 0.0
H2873 H 0.39905 0.99776 0.70954 0.0
H2874 H 0.43158 0.98188 0.77073 0.0
H2875 H 0.4159 0.98596 0.75316 0.0
H2876 H 0.42026 0.02921 0.75679 0.0
C2877 C 0.39005 0.02958 0.71022 0.0
C2878 C 0.40358 0.00468 0.71983 0.0
C2879 C 0.37915 0.03037 0.70189 0.0
C2880 C 0.43462 0.99288 0.76771 0.0
C2881 C 0.42563 0.99521 0.75763 0.0
C2882 C 0.41585 0.02242 0.74638 0.0
C2883 C 0.38855 0.01611 0.71406 0.0
C2884 C 0.39973 0.01511 0.72353 0.0
C2885 C 0.42902 0.0093 0.75361 0.0
C2886 C 0.41937 0.0117 0.74293 0.0
H2887 H 0.35554 0.99433 0.69758 0.0
H2888 H 0.37443 0.99294 0.71216 0.0
H2889 H 0.40326 0.03213 0.74007 0.0
H2890 H 0.46032 0.02792 0.77451 0.0
H2891 H 0.44454 0.032 0.75697 0.0
C2892 C 0.99368 0.35266 0.71381 0.0
C2893 C 0.98802 0.34993 0.69832 0.0
C2894 C 0.99576 0.36485 0.7221 0.0
C2895 C 0.98445 0.39243 0.72259 0.0
H2896 H 0.01653 0.41159 0.752 0.0
C2897 C -0.00126 0.44545 0.75577 0.0
C2898 C 0.00064 0.44513 0.77226 0.0
C2899 C 0.99764 0.43433 0.74607 0.0
C2900 C 0.0075 0.4063 0.74386 0.0
H2901 H 0.98035 0.35793 0.67923 0.0
H2902 H 0.98442 0.37951 0.69351 0.0
H2903 H 0.01414 0.39157 0.7359 0.0
H2904 H 0.00313 0.43315 0.79155 0.0
H2905 H 0.00142 0.4138 0.77455 0.0
H2906 H 0.97803 0.40744 0.73046 0.0
C2907 C 0.98691 0.37205 0.69943 0.0
C2908 C 0.00607 0.39479 0.73468 0.0
C2909 C 0.98466 0.35974 0.69119 0.0
C2910 C 0.00158 0.4336 0.77887 0.0
C2911 C 0.00071 0.4226 0.76916 0.0
C2912 C 0.98601 0.40409 0.73163 0.0
C2913 C 0.99241 0.37472 0.71504 0.0
C2914 C 0.99441 0.38756 0.72409 0.0
C2915 C -0.00134 0.42284 0.75268 0.0
C2916 C 0.99744 0.411 0.74249 0.0
H2917 H 0.99627 0.34523 0.71965 0.0
H2918 H -0.00027 0.36635 0.7342 0.0
H2919 H 0.97522 0.38702 0.71476 0.0
H2920 H 0.99789 0.45419 0.75041 0.0
H2921 H 0.99612 0.43478 0.73339 0.0
C2922 C 0.63653 0.62384 0.69473 0.0
C2923 C 0.646 0.63795 0.70001 0.0
C2924 C 0.62432 0.61461 0.70367 0.0
C2925 C 0.60988 0.60879 0.74439 0.0
H2926 H 0.57285 0.58493 0.72395 0.0
C2927 C 0.55772 0.57521 0.78063 0.0
C2928 C 0.54812 0.56118 0.77516 0.0
C2929 C 0.56939 0.58483 0.77125 0.0
C2930 C 0.58315 0.59141 0.72983 0.0
H2931 H 0.65009 0.65351 0.71871 0.0
H2932 H 0.62879 0.63742 0.73427 0.0
H2933 H 0.59382 0.60108 0.70791 0.0
H2934 H 0.54305 0.54642 0.75534 0.0
H2935 H 0.56359 0.56304 0.73919 0.0
H2936 H 0.59933 0.59903 0.76627 0.0
C2937 C 0.63085 0.63344 0.72331 0.0
C2938 C 0.59515 0.60066 0.72063 0.0
C2939 C 0.643 0.64268 0.71435 0.0
C2940 C 0.55036 0.55707 0.76002 0.0
C2941 C 0.56203 0.56667 0.75066 0.0
C2942 C 0.59791 0.5995 0.75358 0.0
C2943 C 0.6214 0.6193 0.7181 0.0
C2944 C 0.60864 0.60945 0.72782 0.0
C2945 C 0.57174 0.58064 0.75619 0.0
C2946 C 0.5844 0.59069 0.74641 0.0
H2947 H 0.63858 0.6199 0.68373 0.0
H2948 H 0.61729 0.60372 0.69943 0.0
H2949 H 0.62019 0.61528 0.75024 0.0
H2950 H 0.55638 0.57869 0.79229 0.0
H2951 H 0.57655 0.59557 0.77579 0.0
C2952 C 0.65783 0.68854 0.64717 0.0
C2953 C 0.67185 0.69376 0.65308 0.0
C2954 C 0.65429 0.69769 0.63899 0.0
C2955 C 0.66746 0.73653 0.63059 0.0
H2956 H 0.64175 0.72095 0.59433 0.0
C2957 C 0.66235 0.77198 0.58243 0.0
C2958 C 0.64826 0.76875 0.57843 0.0
C2959 C 0.66461 0.76273 0.59213 0.0
C2960 C 0.64883 0.7254 0.60452 0.0
H2961 H 0.69316 0.71261 0.65516 0.0
H2962 H 0.68719 0.72848 0.64039 0.0
H2963 H 0.64697 0.70511 0.61026 0.0
H2964 H 0.62551 0.75308 0.58153 0.0
H2965 H 0.62955 0.73667 0.59803 0.0
H2966 H 0.6697 0.75695 0.62434 0.0
C2967 C 0.67876 0.71744 0.64242 0.0
C2968 C 0.6518 0.71633 0.61372 0.0
C2969 C 0.68223 0.70833 0.65081 0.0
C2970 C 0.6365 0.75584 0.58415 0.0
C2971 C 0.63879 0.74647 0.59367 0.0
C2972 C 0.66466 0.74562 0.62124 0.0
C2973 C 0.66475 0.71222 0.63631 0.0
C2974 C 0.66121 0.72179 0.62684 0.0
C2975 C 0.65286 0.74991 0.59786 0.0
C2976 C 0.65538 0.74015 0.60808 0.0
H2977 H 0.64958 0.67736 0.64886 0.0
H2978 H 0.64332 0.69334 0.63477 0.0
H2979 H 0.67451 0.74108 0.64078 0.0
H2980 H 0.67169 0.78161 0.57796 0.0
H2981 H 0.67558 0.7655 0.59498 0.0
C2982 C 0.30754 0.9708 0.64868 0.0
C2983 C 0.3026 0.97879 0.65717 0.0
C2984 C 0.29776 0.95784 0.6413 0.0
C2985 C 0.26182 0.93957 0.62377 0.0
H2986 H 0.26547 0.90536 0.62573 0.0
C2987 C 0.22073 0.88701 0.59268 0.0
C2988 C 0.22607 0.87899 0.58501 0.0
C2989 C 0.2296 0.89843 0.60274 0.0
C2990 C 0.26439 0.91487 0.6249 0.0
H2991 H 0.28356 0.97938 0.66488 0.0
H2992 H 0.26644 0.95678 0.65177 0.0
H2993 H 0.28188 0.9267 0.64115 0.0
H2994 H 0.24477 0.87647 0.58191 0.0
H2995 H 0.26047 0.89671 0.59913 0.0
H2996 H 0.24472 0.92807 0.60716 0.0
C2997 C 0.27789 0.96057 0.65085 0.0
C2998 C 0.27376 0.92706 0.6338 0.0
C2999 C 0.28767 0.97345 0.65839 0.0
C3000 C 0.24038 0.88245 0.58777 0.0
C3001 C 0.24933 0.894 0.5977 0.0
C3002 C 0.25257 0.92747 0.61475 0.0
C3003 C 0.28285 0.9527 0.64212 0.0
C3004 C 0.27257 0.93953 0.63328 0.0
C3005 C 0.24408 0.90222 0.60521 0.0
C3006 C 0.25375 0.91496 0.61516 0.0
H3007 H 0.31899 0.97465 0.64757 0.0
H3008 H 0.30188 0.95206 0.63453 0.0
H3009 H 0.26082 0.94913 0.62294 0.0
H3010 H 0.20965 0.8844 0.59095 0.0
H3011 H 0.22507 0.90428 0.60859 0.0
C3012 C 0.03009 0.32254 0.65932 0.0
C3013 C 0.01937 0.32473 0.65246 0.0
C3014 C 0.04266 0.32594 0.65082 0.0
C3015 C 0.05574 0.32872 0.61032 0.0
H3016 H 0.0941 0.35239 0.6279 0.0
C3017 C 0.10615 0.34774 0.57135 0.0
C3018 C 0.11842 0.3484 0.57819 0.0
C3019 C 0.09444 0.34537 0.58082 0.0
C3020 C 0.08347 0.34558 0.62288 0.0
H3021 H 0.0134 0.33227 0.63144 0.0
H3022 H 0.03518 0.33793 0.61655 0.0
H3023 H 0.07294 0.34699 0.64398 0.0
H3024 H 0.12815 0.34715 0.60025 0.0
H3025 H 0.10753 0.34254 0.61682 0.0
H3026 H 0.06603 0.32687 0.58944 0.0
C3027 C 0.0339 0.33365 0.62848 0.0
C3028 C 0.07138 0.34255 0.63209 0.0
C3029 C 0.02148 0.33048 0.63704 0.0
C3030 C 0.11885 0.3468 0.59472 0.0
C3031 C 0.10704 0.34422 0.60419 0.0
C3032 C 0.06778 0.33156 0.60121 0.0
C3033 C 0.04456 0.33134 0.63525 0.0
C3034 C 0.05742 0.33421 0.62582 0.0
C3035 C 0.09463 0.34337 0.59735 0.0
C3036 C 0.08183 0.34015 0.60729 0.0
H3037 H 0.02874 0.31814 0.6712 0.0
H3038 H 0.05071 0.32401 0.65626 0.0
H3039 H 0.04507 0.32208 0.6053 0.0
H3040 H 0.10564 0.34913 0.55865 0.0
H3041 H 0.08525 0.34516 0.57515 0.0
C3042 C 0.30615 0.33018 0.63822 0.0
C3043 C 0.30308 0.32506 0.65392 0.0
C3044 C 0.29653 0.33285 0.62977 0.0
C3045 C 0.26804 0.34173 0.63375 0.0
H3046 H 0.25736 0.3256 0.59131 0.0
C3047 C 0.22569 0.34681 0.59554 0.0
C3048 C 0.22812 0.34854 0.57907 0.0
C3049 C 0.23453 0.34391 0.60528 0.0
C3050 C 0.26038 0.33038 0.60304 0.0
H3051 H 0.28769 0.319 0.67324 0.0
H3052 H 0.27089 0.32397 0.65844 0.0
H3053 H 0.27332 0.32065 0.60732 0.0
H3054 H 0.24197 0.3492 0.55992 0.0
H3055 H 0.25768 0.34461 0.57688 0.0
H3056 H 0.25545 0.35183 0.62933 0.0
C3057 C 0.28074 0.3258 0.65272 0.0
C3058 C 0.26945 0.32745 0.61223 0.0
C3059 C 0.2903 0.32292 0.66114 0.0
C3060 C 0.23976 0.3477 0.57256 0.0
C3061 C 0.24869 0.34498 0.58229 0.0
C3062 C 0.25908 0.34482 0.62446 0.0
C3063 C 0.28371 0.33064 0.6369 0.0
C3064 C 0.27347 0.3332 0.62761 0.0
C3065 C 0.24607 0.34284 0.59875 0.0
C3066 C 0.25524 0.33928 0.60892 0.0
H3067 H 0.31591 0.33193 0.63234 0.0
H3068 H 0.29915 0.33672 0.61765 0.0
H3069 H 0.27107 0.34636 0.64555 0.0
H3070 H 0.2167 0.34727 0.60083 0.0
H3071 H 0.23208 0.34216 0.61785 0.0
C3072 C 0.65964 0.96948 0.64778 0.0
C3073 C 0.6737 0.97873 0.65339 0.0
C3074 C 0.65647 0.957 0.63931 0.0
C3075 C 0.67339 0.94264 0.61333 0.0
H3076 H 0.64006 0.90524 0.62242 0.0
C3077 C 0.66439 0.89134 0.58125 0.0
C3078 C 0.65018 0.88058 0.57758 0.0
C3079 C 0.66701 0.90311 0.59073 0.0
C3080 C 0.64929 0.91564 0.61955 0.0
H3081 H 0.69541 0.98208 0.65483 0.0
H3082 H 0.6899 0.96036 0.63979 0.0
H3083 H 0.64501 0.92598 0.63895 0.0
H3084 H 0.62758 0.8739 0.58101 0.0
H3085 H 0.63217 0.89478 0.59693 0.0
H3086 H 0.67753 0.93257 0.59371 0.0
C3087 C 0.68135 0.96277 0.64199 0.0
C3088 C 0.65215 0.92748 0.62909 0.0
C3089 C 0.68447 0.97514 0.65065 0.0
C3090 C 0.63866 0.88204 0.58345 0.0
C3091 C 0.6413 0.89392 0.59279 0.0
C3092 C 0.67044 0.93087 0.60367 0.0
C3093 C 0.66736 0.95367 0.63611 0.0
C3094 C 0.66428 0.94106 0.62611 0.0
C3095 C 0.65551 0.90458 0.59662 0.0
C3096 C 0.65841 0.91718 0.60671 0.0
H3097 H 0.65113 0.97198 0.64974 0.0
H3098 H 0.64562 0.95019 0.63483 0.0
H3099 H 0.68269 0.95306 0.61063 0.0
H3100 H 0.67355 0.89073 0.57675 0.0
H3101 H 0.67809 0.91097 0.59358 0.0
C3102 C 0.0205 0.69041 0.63908 0.0
C3103 C 0.01837 0.69415 0.65444 0.0
C3104 C 0.03318 0.69933 0.63076 0.0
C3105 C 0.07104 0.72688 0.63515 0.0
H3106 H 0.06709 0.73731 0.59207 0.0
C3107 C 0.11968 0.76928 0.59828 0.0
C3108 C 0.11935 0.76723 0.58176 0.0
C3109 C 0.10778 0.76009 0.60766 0.0
C3110 C 0.06845 0.73432 0.60397 0.0
H3111 H 0.02793 0.70999 0.67331 0.0
H3112 H 0.05034 0.72556 0.65875 0.0
H3113 H 0.0456 0.72185 0.60757 0.0
H3114 H 0.10677 0.75363 0.56216 0.0
H3115 H 0.08623 0.73725 0.57851 0.0
H3116 H 0.0939 0.73906 0.63147 0.0
C3117 C 0.04211 0.71573 0.65319 0.0
C3118 C 0.0561 0.72553 0.61287 0.0
C3119 C 0.02929 0.70688 0.66146 0.0
C3120 C 0.10719 0.75552 0.57486 0.0
C3121 C 0.0954 0.74622 0.58424 0.0
C3122 C 0.08344 0.73555 0.62616 0.0
C3123 C 0.04408 0.71209 0.63769 0.0
C3124 C 0.05727 0.7217 0.62852 0.0
C3125 C 0.09539 0.74856 0.60071 0.0
C3126 C 0.08229 0.73933 0.61041 0.0
H3127 H 0.01228 0.68066 0.63337 0.0
H3128 H 0.0345 0.69622 0.61888 0.0
H3129 H 0.07222 0.72398 0.64717 0.0
H3130 H 0.12891 0.77832 0.60385 0.0
H3131 H 0.10812 0.76234 0.62026 0.0
C3132 C 0.99197 0.64093 0.71676 0.0
C3133 C 0.98683 0.63802 0.70105 0.0
C3134 C 0.99347 0.63067 0.72547 0.0
C3135 C -0.00143 0.59961 0.72195 0.0
H3136 H 0.98115 0.58957 0.76386 0.0
C3137 C 0.99633 0.55279 0.75827 0.0
C3138 C 0.99788 0.55443 0.77484 0.0
C3139 C 0.99493 0.56286 0.74905 0.0
C3140 C 0.98629 0.59239 0.7523 0.0
H3141 H 0.97954 0.62227 0.68199 0.0
H3142 H 0.98246 0.60439 0.69719 0.0
H3143 H 0.97927 0.60764 0.74813 0.0
H3144 H -0.00049 0.56799 0.79477 0.0
H3145 H 0.99756 0.58586 0.77869 0.0
H3146 H 0.00597 0.58471 0.72621 0.0
C3147 C 0.98523 0.61459 0.70274 0.0
C3148 C 0.98513 0.6027 0.74327 0.0
C3149 C 0.98352 0.62478 0.69409 0.0
C3150 C 0.99814 0.56639 0.78202 0.0
C3151 C 0.99695 0.57658 0.77279 0.0
C3152 C -8e-05 0.58944 0.73108 0.0
C3153 C 0.99006 0.61739 0.71857 0.0
C3154 C 0.99126 0.6064 0.72803 0.0
C3155 C 0.99525 0.57492 0.75618 0.0
C3156 C 0.99379 0.5857 0.74639 0.0
H3157 H 0.99459 0.65104 0.72243 0.0
H3158 H 0.99733 0.63313 0.73762 0.0
H3159 H 0.00349 0.60239 0.71027 0.0
H3160 H 0.99594 0.54356 0.75248 0.0
H3161 H 0.99337 0.56106 0.73635 0.0
C3162 C 0.36501 0.3647 0.69698 0.0
C3163 C 0.36569 0.35195 0.69644 0.0
C3164 C 0.37525 0.37665 0.70552 0.0
C3165 C 0.40046 0.38613 0.73896 0.0
H3166 H 0.41513 0.42523 0.7238 0.0
C3167 C 0.4432 0.43596 0.77358 0.0
C3168 C 0.4412 0.44796 0.77436 0.0
C3169 C 0.4346 0.42432 0.76363 0.0
C3170 C 0.41102 0.41438 0.72827 0.0
H3171 H 0.37787 0.34183 0.70401 0.0
H3172 H 0.39589 0.36279 0.71887 0.0
H3173 H 0.39951 0.40491 0.7067 0.0
H3174 H 0.4286 0.45714 0.76522 0.0
H3175 H 0.41338 0.43668 0.7481 0.0
H3176 H 0.41182 0.39559 0.7606 0.0
C3177 C 0.38731 0.36347 0.71283 0.0
C3178 C 0.4021 0.40274 0.71845 0.0
C3179 C 0.37707 0.35151 0.70424 0.0
C3180 C 0.43033 0.448 0.76502 0.0
C3181 C 0.42173 0.43636 0.75506 0.0
C3182 C 0.40938 0.39777 0.74878 0.0
C3183 C 0.3864 0.37611 0.71373 0.0
C3184 C 0.39662 0.38849 0.72374 0.0
C3185 C 0.4238 0.4244 0.75421 0.0
C3186 C 0.41466 0.41203 0.7436 0.0
H3187 H 0.35635 0.36536 0.6911 0.0
H3188 H 0.37414 0.38615 0.70611 0.0
H3189 H 0.39623 0.37529 0.74349 0.0
H3190 H 0.45139 0.43553 0.78075 0.0
H3191 H 0.43655 0.41532 0.76317 0.0
C3192 C 0.6465 0.00652 0.71495 0.0
C3193 C 0.64798 0.01091 0.69899 0.0
C3194 C 0.63472 0.00467 0.72393 0.0
C3195 C 0.59763 0.99755 0.72097 0.0
H3196 H 0.60493 0.01487 0.76294 0.0
C3197 C 0.55281 0.9985 0.75843 0.0
C3198 C 0.55311 0.99679 0.77496 0.0
C3199 C 0.56422 7e-05 0.74891 0.0
C3200 C 0.60266 0.00977 0.75135 0.0
H3201 H 0.63822 0.01659 0.67982 0.0
H3202 H 0.61747 0.01319 0.69554 0.0
H3203 H 0.62507 0.01772 0.74674 0.0
H3204 H 0.56531 0.99495 0.79446 0.0
H3205 H 0.58506 0.99733 0.77785 0.0
H3206 H 0.5752 0.98934 0.72566 0.0
C3207 C 0.62546 0.01121 0.70106 0.0
C3208 C 0.61421 0.01147 0.74206 0.0
C3209 C 0.63734 0.01321 0.69211 0.0
C3210 C 0.56491 0.99645 0.78176 0.0
C3211 C 0.57624 0.99788 0.77224 0.0
C3212 C 0.58603 0.99572 0.73034 0.0
C3213 C 0.62412 0.00705 0.7171 0.0
C3214 C 0.61182 0.00535 0.7268 0.0
C3215 C 0.57611 -0.00016 0.75571 0.0
C3216 C 0.5884 0.00179 0.74566 0.0
H3217 H 0.65453 0.00466 0.72057 0.0
H3218 H 0.63387 0.00131 0.73622 0.0
H3219 H 0.59549 0.99261 0.7093 0.0
H3220 H 0.5439 0.99896 0.75292 0.0
H3221 H 0.56384 0.00178 0.73628 0.0
loop_
_geom_bond_atom_site_label_1
_geom_bond_atom_site_label_2
_geom_bond_distance
_geom_bond_site_symmetry_2
_ccdc_geom_bond_type
In0 O1 2.294 1_455 S
In0 O2 2.326 . S
In0 O6 2.266 1_455 S
In0 O7 2.326 1_454 S
In0 O8 2.266 1_554 S
In0 O9 2.326 1_454 S
In0 O11 2.294 . S
In0 O12 2.326 . S
O1 In0 2.294 1_655 S
O1 C10 1.231 1_655 S
O2 In0 2.326 . S
O2 C10 1.269 . S
C3 O6 1.252 1_556 S
C3 O7 1.260 . S
C4 O11 1.240 . S
C4 O12 1.252 . S
C5 O8 1.252 . S
C5 O9 1.260 1_455 S
O6 In0 2.266 1_655 S
O6 C3 1.252 1_554 S
O7 In0 2.326 1_656 S
O7 C3 1.260 . S
O8 In0 2.266 1_556 S
O8 C5 1.252 . S
O9 In0 2.326 1_656 S
O9 C5 1.260 1_655 S
C10 O1 1.231 1_455 S
C10 O2 1.269 . S
O11 In0 2.294 . S
O11 C4 1.240 . S
O12 In0 2.326 . S
O12 C4 1.252 . S
In13 O14 2.294 . S
In13 O15 2.326 . S
In13 O19 2.266 . S
In13 O20 2.326 1_554 S
In13 O21 2.266 1_554 S
In13 O22 2.326 1_554 S
In13 O24 2.294 . S
In13 O25 2.326 . S
O14 In13 2.294 . S
O14 C23 1.240 . S
O15 In13 2.326 . S
O15 C23 1.252 . S
C16 O19 1.252 1_556 S
C16 O20 1.260 . S
C17 O24 1.240 . S
C17 O25 1.252 . S
C18 O21 1.252 . S
C18 O22 1.260 . S
O19 In13 2.266 . S
O19 C16 1.252 1_554 S
O20 In13 2.326 1_556 S
O20 C16 1.260 . S
O21 In13 2.266 1_556 S
O21 C18 1.252 . S
O22 In13 2.326 1_556 S
O22 C18 1.260 . S
C23 O14 1.240 . S
C23 O15 1.252 . S
O24 In13 2.294 . S
O24 C17 1.240 . S
O25 In13 2.326 . S
O25 C17 1.252 . S
In26 O27 2.294 . S
In26 O28 2.326 1_554 S
In26 O32 2.266 . S
In26 O33 2.326 1_545 S
In26 O34 2.266 1_545 S
In26 O35 2.326 1_545 S
In26 O37 2.294 1_544 S
In26 O38 2.326 1_554 S
O27 In26 2.294 . S
O27 C36 1.240 1_554 S
O28 In26 2.326 1_556 S
O28 C36 1.252 . S
C29 O32 1.252 . S
C29 O33 1.260 1_545 S
C30 O37 1.222 1_545 S
C30 O38 1.288 . S
C31 O34 1.252 . S
C31 O35 1.260 . S
O32 In26 2.266 . S
O32 C29 1.252 . S
O33 In26 2.326 1_565 S
O33 C29 1.260 1_565 S
O34 In26 2.266 1_565 S
O34 C31 1.252 . S
O35 In26 2.326 1_565 S
O35 C31 1.260 . S
C36 O27 1.240 1_556 S
C36 O28 1.252 . S
O37 In26 2.294 1_566 S
O37 C30 1.222 1_565 S
O38 In26 2.326 1_556 S
O38 C30 1.288 . S
In39 O40 2.293 1_554 S
In39 O41 2.326 1_454 S
In39 O45 2.265 . S
In39 O46 2.326 . S
In39 O47 2.267 1_455 S
In39 O48 2.324 . S
In39 O50 2.296 1_455 S
In39 O51 2.327 1_454 S
O40 In39 2.293 1_556 S
O40 C49 1.273 . S
O41 In39 2.326 1_656 S
O41 C49 1.195 1_655 S
C42 O45 1.252 . S
C42 O46 1.260 . S
C43 O50 1.240 1_556 S
C43 O51 1.252 . S
C44 O47 1.283 . S
C44 O48 1.238 1_655 S
O45 In39 2.265 . S
O45 C42 1.252 . S
O46 In39 2.326 . S
O46 C42 1.260 . S
O47 In39 2.267 1_655 S
O47 C44 1.283 . S
O48 In39 2.324 . S
O48 C44 1.238 1_455 S
C49 O40 1.273 . S
C49 O41 1.195 1_455 S
O50 In39 2.296 1_655 S
O50 C43 1.240 1_554 S
O51 In39 2.327 1_656 S
O51 C43 1.252 . S
In52 O53 2.294 1_554 S
In52 O54 2.326 1_554 S
In52 O58 2.266 . S
In52 O59 2.326 . S
In52 O60 2.266 . S
In52 O61 2.326 . S
In52 O63 2.294 . S
In52 O64 2.326 1_554 S
O53 In52 2.294 1_556 S
O53 C62 1.240 . S
O54 In52 2.326 1_556 S
O54 C62 1.252 . S
C55 O58 1.252 . S
C55 O59 1.260 . S
C56 O63 1.240 1_556 S
C56 O64 1.252 . S
C57 O60 1.252 . S
C57 O61 1.260 . S
O58 In52 2.266 . S
O58 C55 1.252 . S
O59 In52 2.326 . S
O59 C55 1.260 . S
O60 In52 2.266 . S
O60 C57 1.252 . S
O61 In52 2.326 . S
O61 C57 1.260 . S
C62 O53 1.240 . S
C62 O54 1.252 . S
O63 In52 2.294 . S
O63 C56 1.240 1_554 S
O64 In52 2.326 1_556 S
O64 C56 1.252 . S
In65 O66 2.293 . S
In65 O67 2.326 1_545 S
In65 O71 2.265 . S
In65 O72 2.326 1_554 S
In65 O73 2.267 1_544 S
In65 O74 2.324 1_554 S
In65 O76 2.296 1_545 S
In65 O77 2.327 1_545 S
O66 In65 2.293 . S
O66 C75 1.272 . S
O67 In65 2.326 1_565 S
O67 C75 1.196 1_565 S
C68 O71 1.252 1_556 S
C68 O72 1.260 . S
C69 O76 1.240 . S
C69 O77 1.252 . S
C70 O73 1.285 . S
C70 O74 1.236 1_565 S
O71 In65 2.265 . S
O71 C68 1.252 1_554 S
O72 In65 2.326 1_556 S
O72 C68 1.260 . S
O73 In65 2.267 1_566 S
O73 C70 1.285 . S
O74 In65 2.324 1_556 S
O74 C70 1.236 1_545 S
C75 O66 1.272 . S
C75 O67 1.196 1_545 S
O76 In65 2.296 1_565 S
O76 C69 1.240 . S
O77 In65 2.327 1_565 S
O77 C69 1.252 . S
In78 O79 2.294 . S
In78 O80 2.326 . S
In78 O84 2.266 . S
In78 O85 2.326 . S
In78 O86 2.266 . S
In78 O87 2.326 . S
In78 O89 2.294 . S
In78 O90 2.326 . S
O79 In78 2.294 . S
O79 C88 1.240 . S
O80 In78 2.326 . S
O80 C88 1.252 . S
C81 O84 1.252 . S
C81 O85 1.260 . S
C82 O89 1.240 . S
C82 O90 1.252 . S
C83 O86 1.252 . S
C83 O87 1.260 . S
O84 In78 2.266 . S
O84 C81 1.252 . S
O85 In78 2.326 . S
O85 C81 1.260 . S
O86 In78 2.266 . S
O86 C83 1.252 . S
O87 In78 2.326 . S
O87 C83 1.260 . S
C88 O79 1.240 . S
C88 O80 1.252 . S
O89 In78 2.294 . S
O89 C82 1.240 . S
O90 In78 2.326 . S
O90 C82 1.252 . S
In91 O92 2.294 . S
In91 O93 2.326 . S
In91 O97 2.266 . S
In91 O98 2.326 . S
In91 O99 2.266 . S
In91 O100 2.326 . S
In91 O102 2.294 1_565 S
In91 O103 2.326 . S
O92 In91 2.294 . S
O92 C101 1.240 . S
O93 In91 2.326 . S
O93 C101 1.252 . S
C94 O97 1.252 . S
C94 O98 1.260 . S
C95 O102 1.240 . S
C95 O103 1.252 1_545 S
C96 O99 1.252 . S
C96 O100 1.260 . S
O97 In91 2.266 . S
O97 C94 1.252 . S
O98 In91 2.326 . S
O98 C94 1.260 . S
O99 In91 2.266 . S
O99 C96 1.252 . S
O100 In91 2.326 . S
O100 C96 1.260 . S
C101 O92 1.240 . S
C101 O93 1.252 . S
O102 In91 2.294 1_545 S
O102 C95 1.240 . S
O103 In91 2.326 . S
O103 C95 1.252 1_565 S
In104 O105 2.294 . S
In104 O106 2.326 . S
In104 O110 2.266 . S
In104 O111 2.326 . S
In104 O112 2.258 1_455 S
In104 O113 2.326 . S
In104 O115 2.294 . S
In104 O116 2.326 . S
O105 In104 2.294 . S
O105 C114 1.240 . S
O106 In104 2.326 . S
O106 C114 1.252 . S
C107 O110 1.252 . S
C107 O111 1.260 . S
C108 O115 1.240 . S
C108 O116 1.252 . S
C109 O112 1.264 . S
C109 O113 1.260 1_655 S
O110 In104 2.266 . S
O110 C107 1.252 . S
O111 In104 2.326 . S
O111 C107 1.260 . S
O112 In104 2.258 1_655 S
O112 C109 1.264 . S
O113 In104 2.326 . S
O113 C109 1.260 1_455 S
C114 O105 1.240 . S
C114 O106 1.252 . S
O115 In104 2.294 . S
O115 C108 1.240 . S
O116 In104 2.326 . S
O116 C108 1.252 . S
In117 O118 2.294 . S
In117 O119 2.326 . S
In117 O123 2.266 1_565 S
In117 O124 2.326 . S
In117 O125 2.266 . S
In117 O126 2.326 . S
In117 O128 2.294 . S
In117 O129 2.326 . S
O118 In117 2.294 . S
O118 C127 1.240 . S
O119 In117 2.326 . S
O119 C127 1.252 . S
C120 O123 1.252 . S
C120 O124 1.260 1_545 S
C121 O128 1.240 . S
C121 O129 1.252 . S
C122 O125 1.252 . S
C122 O126 1.260 . S
O123 In117 2.266 1_545 S
O123 C120 1.252 . S
O124 In117 2.326 . S
O124 C120 1.260 1_565 S
O125 In117 2.266 . S
O125 C122 1.252 . S
O126 In117 2.326 . S
O126 C122 1.260 . S
C127 O118 1.240 . S
C127 O119 1.252 . S
O128 In117 2.294 . S
O128 C121 1.240 . S
O129 In117 2.326 . S
O129 C121 1.252 . S
In130 O131 2.294 . S
In130 O132 2.326 . S
In130 O136 2.245 1_455 S
In130 O137 2.326 . S
In130 O138 2.266 . S
In130 O139 2.326 . S
In130 O141 2.294 . S
In130 O142 2.326 . S
O131 In130 2.294 . S
O131 C140 1.240 . S
O132 In130 2.326 . S
O132 C140 1.252 . S
C133 O136 1.252 . S
C133 O137 1.260 1_655 S
C134 O141 1.240 . S
C134 O142 1.252 . S
C135 O138 1.252 . S
C135 O139 1.260 . S
O136 In130 2.245 1_655 S
O136 C133 1.252 . S
O137 In130 2.326 . S
O137 C133 1.260 1_455 S
O138 In130 2.266 . S
O138 C135 1.252 . S
O139 In130 2.326 . S
O139 C135 1.260 . S
C140 O131 1.240 . S
C140 O132 1.252 . S
O141 In130 2.294 . S
O141 C134 1.240 . S
O142 In130 2.326 . S
O142 C134 1.252 . S
In143 O144 2.294 . S
In143 O145 2.326 . S
In143 O149 2.266 . S
In143 O150 2.326 . S
In143 O151 2.266 . S
In143 O152 2.326 . S
In143 O154 2.294 . S
In143 O155 2.326 . S
O144 In143 2.294 . S
O144 C153 1.240 . S
O145 In143 2.326 . S
O145 C153 1.252 . S
C146 O149 1.252 . S
C146 O150 1.260 . S
C147 O154 1.240 . S
C147 O155 1.252 . S
C148 O151 1.252 . S
C148 O152 1.260 . S
O149 In143 2.266 . S
O149 C146 1.252 . S
O150 In143 2.326 . S
O150 C146 1.260 . S
O151 In143 2.266 . S
O151 C148 1.252 . S
O152 In143 2.326 . S
O152 C148 1.260 . S
C153 O144 1.240 . S
C153 O145 1.252 . S
O154 In143 2.294 . S
O154 C147 1.240 . S
O155 In143 2.326 . S
O155 C147 1.252 . S
In156 O157 2.294 . S
In156 O158 2.326 . S
In156 O162 2.266 . S
In156 O163 2.326 . S
In156 O164 2.265 1_545 S
In156 O165 2.326 . S
In156 O167 2.294 . S
In156 O168 2.326 . S
O157 In156 2.294 . S
O157 C166 1.240 . S
O158 In156 2.326 . S
O158 C166 1.252 . S
C159 O162 1.252 . S
C159 O163 1.260 . S
C160 O167 1.240 . S
C160 O168 1.252 . S
C161 O164 1.254 . S
C161 O165 1.260 1_565 S
O162 In156 2.266 . S
O162 C159 1.252 . S
O163 In156 2.326 . S
O163 C159 1.260 . S
O164 In156 2.265 1_565 S
O164 C161 1.254 . S
O165 In156 2.326 . S
O165 C161 1.260 1_545 S
C166 O157 1.240 . S
C166 O158 1.252 . S
O167 In156 2.294 . S
O167 C160 1.240 . S
O168 In156 2.326 . S
O168 C160 1.252 . S
In169 O170 2.294 . S
In169 O171 2.326 . S
In169 O175 2.266 . S
In169 O176 2.326 . S
In169 O177 2.178 1_655 S
In169 O178 2.326 . S
In169 O180 2.294 . S
In169 O181 2.326 . S
O170 In169 2.294 . S
O170 C179 1.240 . S
O171 In169 2.326 . S
O171 C179 1.252 . S
C172 O175 1.252 . S
C172 O176 1.260 . S
C173 O180 1.240 . S
C173 O181 1.252 . S
C174 O177 1.253 . S
C174 O178 1.260 1_455 S
O175 In169 2.266 . S
O175 C172 1.252 . S
O176 In169 2.326 . S
O176 C172 1.260 . S
O177 In169 2.178 1_455 S
O177 C174 1.253 . S
O178 In169 2.326 . S
O178 C174 1.260 1_655 S
C179 O170 1.240 . S
C179 O171 1.252 . S
O180 In169 2.294 . S
O180 C173 1.240 . S
O181 In169 2.326 . S
O181 C173 1.252 . S
In182 O183 2.294 . S
In182 O184 2.326 . S
In182 O188 2.266 . S
In182 O189 2.326 . S
In182 O190 2.266 . S
In182 O191 2.326 . S
In182 O193 2.294 . S
In182 O194 2.326 . S
O183 In182 2.294 . S
O183 C192 1.240 . S
O184 In182 2.326 . S
O184 C192 1.252 . S
C185 O188 1.252 . S
C185 O189 1.260 . S
C186 O193 1.240 . S
C186 O194 1.252 . S
C187 O190 1.252 . S
C187 O191 1.260 . S
O188 In182 2.266 . S
O188 C185 1.252 . S
O189 In182 2.326 . S
O189 C185 1.260 . S
O190 In182 2.266 . S
O190 C187 1.252 . S
O191 In182 2.326 . S
O191 C187 1.260 . S
C192 O183 1.240 . S
C192 O184 1.252 . S
O193 In182 2.294 . S
O193 C186 1.240 . S
O194 In182 2.326 . S
O194 C186 1.252 . S
In195 O196 2.294 . S
In195 O197 2.326 . S
In195 O201 2.266 . S
In195 O202 2.326 . S
In195 O203 2.266 . S
In195 O204 2.326 . S
In195 O206 2.294 . S
In195 O207 2.326 . S
O196 In195 2.294 . S
O196 C205 1.240 . S
O197 In195 2.326 . S
O197 C205 1.252 . S
C198 O201 1.252 . S
C198 O202 1.260 . S
C199 O206 1.240 . S
C199 O207 1.252 . S
C200 O203 1.252 . S
C200 O204 1.260 . S
O201 In195 2.266 . S
O201 C198 1.252 . S
O202 In195 2.326 . S
O202 C198 1.260 . S
O203 In195 2.266 . S
O203 C200 1.252 . S
O204 In195 2.326 . S
O204 C200 1.260 . S
C205 O196 1.240 . S
C205 O197 1.252 . S
O206 In195 2.294 . S
O206 C199 1.240 . S
O207 In195 2.326 . S
O207 C199 1.252 . S
In208 O209 2.294 . S
In208 O210 2.326 . S
In208 O214 2.266 . S
In208 O215 2.326 . S
In208 O216 2.266 . S
In208 O217 2.326 . S
In208 O219 2.230 1_545 S
In208 O220 2.326 . S
O209 In208 2.294 . S
O209 C218 1.240 . S
O210 In208 2.326 . S
O210 C218 1.252 . S
C211 O214 1.252 . S
C211 O215 1.260 . S
C212 O219 1.240 . S
C212 O220 1.252 1_565 S
C213 O216 1.252 . S
C213 O217 1.260 . S
O214 In208 2.266 . S
O214 C211 1.252 . S
O215 In208 2.326 . S
O215 C211 1.260 . S
O216 In208 2.266 . S
O216 C213 1.252 . S
O217 In208 2.326 . S
O217 C213 1.260 . S
C218 O209 1.240 . S
C218 O210 1.252 . S
O219 In208 2.230 1_565 S
O219 C212 1.240 . S
O220 In208 2.326 . S
O220 C212 1.252 1_545 S
In221 O222 2.294 . S
In221 O223 2.326 . S
In221 O227 2.266 . S
In221 O228 2.326 . S
In221 O229 2.233 1_655 S
In221 O230 2.326 . S
In221 O232 2.294 . S
In221 O233 2.326 . S
O222 In221 2.294 . S
O222 C231 1.240 . S
O223 In221 2.326 . S
O223 C231 1.252 . S
C224 O227 1.252 . S
C224 O228 1.260 . S
C225 O232 1.240 . S
C225 O233 1.252 . S
C226 O229 1.306 . S
C226 O230 1.260 1_455 S
O227 In221 2.266 . S
O227 C224 1.252 . S
O228 In221 2.326 . S
O228 C224 1.260 . S
O229 In221 2.233 1_455 S
O229 C226 1.306 . S
O230 In221 2.326 . S
O230 C226 1.260 1_655 S
C231 O222 1.240 . S
C231 O223 1.252 . S
O232 In221 2.294 . S
O232 C225 1.240 . S
O233 In221 2.326 . S
O233 C225 1.252 . S
C234 C235 1.384 . S
C234 C236 1.384 . S
C234 H262 0.931 . S
C235 C234 1.384 . S
C235 C238 1.382 . S
C236 C234 1.384 . S
C236 C237 1.381 . S
C236 H263 0.930 . S
C237 C236 1.381 . S
C237 C239 1.381 . S
C237 C240 1.487 . S
C238 C235 1.382 . S
C238 C239 1.387 . S
C238 H264 0.930 . S
C239 C237 1.381 . S
C239 C238 1.387 . S
C239 H265 0.931 . S
C240 C237 1.487 . S
C240 C247 1.399 . S
C240 N278 1.343 . S
C241 C242 1.384 . S
C241 C243 1.384 . S
C241 H266 0.931 . S
C242 C241 1.384 . S
C242 C245 1.382 . S
C243 C241 1.384 . S
C243 C244 1.381 . S
C243 H267 0.930 . S
C244 C243 1.381 . S
C244 C246 1.381 . S
C244 C247 1.487 . S
C245 C242 1.382 . S
C245 C246 1.387 . S
C245 H268 0.930 . S
C246 C244 1.381 . S
C246 C245 1.387 . S
C246 H269 0.931 . S
C247 C240 1.399 . S
C247 C244 1.487 . S
C247 N279 1.343 . S
C248 C249 1.384 . S
C248 C250 1.384 . S
C248 H270 0.931 . S
C249 C248 1.384 . S
C249 C252 1.382 . S
C250 C248 1.384 . S
C250 C251 1.381 . S
C250 H271 0.930 . S
C251 C250 1.381 . S
C251 C253 1.381 . S
C251 C254 1.487 . S
C252 C249 1.382 . S
C252 C253 1.387 . S
C252 H272 0.930 . S
C253 C251 1.381 . S
C253 C252 1.387 . S
C253 H273 0.931 . S
C254 C251 1.487 . S
C254 C261 1.399 . S
C254 N279 1.343 . S
C255 C256 1.384 . S
C255 C257 1.384 . S
C255 H274 0.931 . S
C256 C255 1.384 . S
C256 C259 1.382 . S
C257 C255 1.384 . S
C257 C258 1.381 . S
C257 H275 0.930 . S
C258 C257 1.381 . S
C258 C260 1.381 . S
C258 C261 1.487 . S
C259 C256 1.382 . S
C259 C260 1.387 . S
C259 H276 0.930 . S
C260 C258 1.381 . S
C260 C259 1.387 . S
C260 H277 0.931 . S
C261 C254 1.399 . S
C261 C258 1.487 . S
C261 N278 1.343 . S
H262 C234 0.931 . S
H263 C236 0.930 . S
H264 C238 0.930 . S
H265 C239 0.931 . S
H266 C241 0.931 . S
H267 C243 0.930 . S
H268 C245 0.930 . S
H269 C246 0.931 . S
H270 C248 0.931 . S
H271 C250 0.930 . S
H272 C252 0.930 . S
H273 C253 0.931 . S
H274 C255 0.931 . S
H275 C257 0.930 . S
H276 C259 0.930 . S
H277 C260 0.931 . S
N278 C240 1.343 . S
N278 C261 1.343 . S
N279 C247 1.343 . S
N279 C254 1.343 . S
C280 C281 1.384 . S
C280 C282 1.384 . S
C280 H308 0.931 . S
C281 C280 1.384 . S
C281 C284 1.382 . S
C282 C280 1.384 . S
C282 C283 1.381 . S
C282 H309 0.930 . S
C283 C282 1.381 . S
C283 C285 1.381 . S
C283 C286 1.487 . S
C284 C281 1.382 . S
C284 C285 1.387 . S
C284 H310 0.930 . S
C285 C283 1.381 . S
C285 C284 1.387 . S
C285 H311 0.931 . S
C286 C283 1.487 . S
C286 C293 1.399 . S
C286 N324 1.343 . S
C287 C288 1.384 . S
C287 C289 1.384 . S
C287 H312 0.931 . S
C288 C287 1.384 . S
C288 C291 1.382 . S
C289 C287 1.384 . S
C289 C290 1.381 . S
C289 H313 0.930 . S
C290 C289 1.381 . S
C290 C292 1.381 . S
C290 C293 1.487 . S
C291 C288 1.382 . S
C291 C292 1.387 . S
C291 H314 0.930 . S
C292 C290 1.381 . S
C292 C291 1.387 . S
C292 H315 0.931 . S
C293 C286 1.399 . S
C293 C290 1.487 . S
C293 N325 1.343 . S
C294 C295 1.384 . S
C294 C296 1.384 . S
C294 H316 0.931 . S
C295 C294 1.384 . S
C295 C298 1.382 . S
C296 C294 1.384 . S
C296 C297 1.381 . S
C296 H317 0.930 . S
C297 C296 1.381 . S
C297 C299 1.381 . S
C297 C300 1.487 . S
C298 C295 1.382 . S
C298 C299 1.387 . S
C298 H318 0.930 . S
C299 C297 1.381 . S
C299 C298 1.387 . S
C299 H319 0.931 . S
C300 C297 1.487 . S
C300 C307 1.399 . S
C300 N325 1.343 . S
C301 C302 1.384 . S
C301 C303 1.384 . S
C301 H320 0.931 . S
C302 C301 1.384 . S
C302 C305 1.382 . S
C303 C301 1.384 . S
C303 C304 1.381 . S
C303 H321 0.930 . S
C304 C303 1.381 . S
C304 C306 1.381 . S
C304 C307 1.487 . S
C305 C302 1.382 . S
C305 C306 1.387 . S
C305 H322 0.930 . S
C306 C304 1.381 . S
C306 C305 1.387 . S
C306 H323 0.931 . S
C307 C300 1.399 . S
C307 C304 1.487 . S
C307 N324 1.343 . S
H308 C280 0.931 . S
H309 C282 0.930 . S
H310 C284 0.930 . S
H311 C285 0.931 . S
H312 C287 0.931 . S
H313 C289 0.930 . S
H314 C291 0.930 . S
H315 C292 0.931 . S
H316 C294 0.931 . S
H317 C296 0.930 . S
H318 C298 0.930 . S
H319 C299 0.931 . S
H320 C301 0.931 . S
H321 C303 0.930 . S
H322 C305 0.930 . S
H323 C306 0.931 . S
N324 C286 1.343 . S
N324 C307 1.343 . S
N325 C293 1.343 . S
N325 C300 1.343 . S
C326 C327 1.384 . S
C326 C328 1.384 . S
C326 H354 0.931 . S
C327 C326 1.384 . S
C327 C330 1.382 . S
C328 C326 1.384 . S
C328 C329 1.381 . S
C328 H355 0.930 . S
C329 C328 1.381 . S
C329 C331 1.381 . S
C329 C332 1.487 . S
C330 C327 1.382 . S
C330 C331 1.387 . S
C330 H356 0.930 . S
C331 C329 1.381 . S
C331 C330 1.387 . S
C331 H357 0.931 . S
C332 C329 1.487 . S
C332 C339 1.399 . S
C332 N370 1.343 . S
C333 C334 1.384 . S
C333 C335 1.384 . S
C333 H358 0.931 . S
C334 C333 1.384 . S
C334 C337 1.382 . S
C335 C333 1.384 . S
C335 C336 1.381 . S
C335 H359 0.930 . S
C336 C335 1.381 . S
C336 C338 1.381 . S
C336 C339 1.487 . S
C337 C334 1.382 . S
C337 C338 1.387 . S
C337 H360 0.930 . S
C338 C336 1.381 . S
C338 C337 1.387 . S
C338 H361 0.931 . S
C339 C332 1.399 . S
C339 C336 1.487 . S
C339 N371 1.343 . S
C340 C341 1.384 . S
C340 C342 1.384 . S
C340 H362 0.931 . S
C341 C340 1.384 . S
C341 C344 1.382 . S
C342 C340 1.384 . S
C342 C343 1.381 . S
C342 H363 0.930 . S
C343 C342 1.381 . S
C343 C345 1.381 . S
C343 C346 1.487 . S
C344 C341 1.382 . S
C344 C345 1.387 . S
C344 H364 0.930 . S
C345 C343 1.381 . S
C345 C344 1.387 . S
C345 H365 0.931 . S
C346 C343 1.487 . S
C346 C353 1.399 . S
C346 N371 1.343 . S
C347 C348 1.384 . S
C347 C349 1.384 . S
C347 H366 0.931 . S
C348 C347 1.384 . S
C348 C351 1.382 . S
C349 C347 1.384 . S
C349 C350 1.381 . S
C349 H367 0.930 . S
C350 C349 1.381 . S
C350 C352 1.381 . S
C350 C353 1.487 . S
C351 C348 1.382 . S
C351 C352 1.387 . S
C351 H368 0.930 . S
C352 C350 1.381 . S
C352 C351 1.387 . S
C352 H369 0.931 . S
C353 C346 1.399 . S
C353 C350 1.487 . S
C353 N370 1.343 . S
H354 C326 0.931 . S
H355 C328 0.930 . S
H356 C330 0.930 . S
H357 C331 0.931 . S
H358 C333 0.931 . S
H359 C335 0.930 . S
H360 C337 0.930 . S
H361 C338 0.931 . S
H362 C340 0.931 . S
H363 C342 0.930 . S
H364 C344 0.930 . S
H365 C345 0.931 . S
H366 C347 0.931 . S
H367 C349 0.930 . S
H368 C351 0.930 . S
H369 C352 0.931 . S
N370 C332 1.343 . S
N370 C353 1.343 . S
N371 C339 1.343 . S
N371 C346 1.343 . S
C372 C373 1.384 . S
C372 C374 1.384 . S
C372 H400 0.931 . S
C373 C372 1.384 . S
C373 C376 1.382 . S
C374 C372 1.384 . S
C374 C375 1.381 . S
C374 H401 0.930 . S
C375 C374 1.381 . S
C375 C377 1.381 . S
C375 C378 1.487 . S
C376 C373 1.382 . S
C376 C377 1.387 . S
C376 H402 0.930 . S
C377 C375 1.381 . S
C377 C376 1.387 . S
C377 H403 0.931 . S
C378 C375 1.487 . S
C378 C385 1.399 . S
C378 N416 1.343 . S
C379 C380 1.384 . S
C379 C381 1.384 . S
C379 H404 0.931 . S
C380 C379 1.384 . S
C380 C383 1.382 . S
C381 C379 1.384 . S
C381 C382 1.381 . S
C381 H405 0.930 . S
C382 C381 1.381 . S
C382 C384 1.381 . S
C382 C385 1.487 . S
C383 C380 1.382 . S
C383 C384 1.387 . S
C383 H406 0.930 . S
C384 C382 1.381 . S
C384 C383 1.387 . S
C384 H407 0.931 . S
C385 C378 1.399 . S
C385 C382 1.487 . S
C385 N417 1.343 . S
C386 C387 1.384 . S
C386 C388 1.384 . S
C386 H408 0.931 . S
C387 C386 1.384 . S
C387 C390 1.382 . S
C388 C386 1.384 . S
C388 C389 1.381 . S
C388 H409 0.930 . S
C389 C388 1.381 . S
C389 C391 1.381 . S
C389 C392 1.487 . S
C390 C387 1.382 . S
C390 C391 1.387 . S
C390 H410 0.930 . S
C391 C389 1.381 . S
C391 C390 1.387 . S
C391 H411 0.931 . S
C392 C389 1.487 . S
C392 C399 1.399 . S
C392 N417 1.343 . S
C393 C394 1.384 . S
C393 C395 1.384 . S
C393 H412 0.931 . S
C394 C393 1.384 . S
C394 C397 1.382 . S
C395 C393 1.384 . S
C395 C396 1.381 . S
C395 H413 0.930 . S
C396 C395 1.381 . S
C396 C398 1.381 . S
C396 C399 1.487 . S
C397 C394 1.382 . S
C397 C398 1.387 . S
C397 H414 0.930 . S
C398 C396 1.381 . S
C398 C397 1.387 . S
C398 H415 0.931 . S
C399 C392 1.399 . S
C399 C396 1.487 . S
C399 N416 1.343 . S
H400 C372 0.931 . S
H401 C374 0.930 . S
H402 C376 0.930 . S
H403 C377 0.931 . S
H404 C379 0.931 . S
H405 C381 0.930 . S
H406 C383 0.930 . S
H407 C384 0.931 . S
H408 C386 0.931 . S
H409 C388 0.930 . S
H410 C390 0.930 . S
H411 C391 0.931 . S
H412 C393 0.931 . S
H413 C395 0.930 . S
H414 C397 0.930 . S
H415 C398 0.931 . S
N416 C378 1.343 . S
N416 C399 1.343 . S
N417 C385 1.343 . S
N417 C392 1.343 . S
C418 C419 1.384 . S
C418 C420 1.384 . S
C418 H446 0.931 . S
C419 C418 1.384 . S
C419 C422 1.382 . S
C420 C418 1.384 . S
C420 C421 1.381 . S
C420 H447 0.930 . S
C421 C420 1.381 . S
C421 C423 1.381 . S
C421 C424 1.487 . S
C422 C419 1.382 . S
C422 C423 1.387 . S
C422 H448 0.930 . S
C423 C421 1.381 . S
C423 C422 1.387 . S
C423 H449 0.931 . S
C424 C421 1.487 . S
C424 C431 1.399 . S
C424 N462 1.343 . S
C425 C426 1.384 . S
C425 C427 1.384 . S
C425 H450 0.931 . S
C426 C425 1.384 . S
C426 C429 1.382 . S
C427 C425 1.384 . S
C427 C428 1.381 . S
C427 H451 0.930 . S
C428 C427 1.381 . S
C428 C430 1.381 . S
C428 C431 1.487 . S
C429 C426 1.382 . S
C429 C430 1.387 . S
C429 H452 0.930 . S
C430 C428 1.381 . S
C430 C429 1.387 . S
C430 H453 0.931 . S
C431 C424 1.399 . S
C431 C428 1.487 . S
C431 N463 1.343 . S
C432 C433 1.384 . S
C432 C434 1.384 . S
C432 H454 0.931 . S
C433 C432 1.384 . S
C433 C436 1.382 . S
C434 C432 1.384 . S
C434 C435 1.381 . S
C434 H455 0.930 . S
C435 C434 1.381 . S
C435 C437 1.381 . S
C435 C438 1.487 . S
C436 C433 1.382 . S
C436 C437 1.387 . S
C436 H456 0.930 . S
C437 C435 1.381 . S
C437 C436 1.387 . S
C437 H457 0.931 . S
C438 C435 1.487 . S
C438 C445 1.399 . S
C438 N463 1.343 . S
C439 C440 1.384 . S
C439 C441 1.384 . S
C439 H458 0.931 . S
C440 C439 1.384 . S
C440 C443 1.382 . S
C441 C439 1.384 . S
C441 C442 1.381 . S
C441 H459 0.930 . S
C442 C441 1.381 . S
C442 C444 1.381 . S
C442 C445 1.487 . S
C443 C440 1.382 . S
C443 C444 1.387 . S
C443 H460 0.930 . S
C444 C442 1.381 . S
C444 C443 1.387 . S
C444 H461 0.931 . S
C445 C438 1.399 . S
C445 C442 1.487 . S
C445 N462 1.343 . S
H446 C418 0.931 . S
H447 C420 0.930 . S
H448 C422 0.930 . S
H449 C423 0.931 . S
H450 C425 0.931 . S
H451 C427 0.930 . S
H452 C429 0.930 . S
H453 C430 0.931 . S
H454 C432 0.931 . S
H455 C434 0.930 . S
H456 C436 0.930 . S
H457 C437 0.931 . S
H458 C439 0.931 . S
H459 C441 0.930 . S
H460 C443 0.930 . S
H461 C444 0.931 . S
N462 C424 1.343 . S
N462 C445 1.343 . S
N463 C431 1.343 . S
N463 C438 1.343 . S
C464 C465 1.384 . S
C464 C466 1.384 . S
C464 H492 0.931 . S
C465 C464 1.384 . S
C465 C468 1.382 . S
C466 C464 1.384 . S
C466 C467 1.381 . S
C466 H493 0.930 . S
C467 C466 1.381 . S
C467 C469 1.381 . S
C467 C470 1.487 . S
C468 C465 1.382 . S
C468 C469 1.387 . S
C468 H494 0.930 . S
C469 C467 1.381 . S
C469 C468 1.387 . S
C469 H495 0.931 . S
C470 C467 1.487 . S
C470 C477 1.399 . S
C470 N508 1.343 . S
C471 C472 1.384 . S
C471 C473 1.384 . S
C471 H496 0.931 . S
C472 C471 1.384 . S
C472 C475 1.382 . S
C473 C471 1.384 . S
C473 C474 1.381 . S
C473 H497 0.930 . S
C474 C473 1.381 . S
C474 C476 1.381 . S
C474 C477 1.487 . S
C475 C472 1.382 . S
C475 C476 1.387 . S
C475 H498 0.930 . S
C476 C474 1.381 . S
C476 C475 1.387 . S
C476 H499 0.931 . S
C477 C470 1.399 . S
C477 C474 1.487 . S
C477 N509 1.343 . S
C478 C479 1.384 . S
C478 C480 1.384 . S
C478 H500 0.931 . S
C479 C478 1.384 . S
C479 C482 1.382 . S
C480 C478 1.384 . S
C480 C481 1.381 . S
C480 H501 0.930 . S
C481 C480 1.381 . S
C481 C483 1.381 . S
C481 C484 1.487 . S
C482 C479 1.382 . S
C482 C483 1.387 . S
C482 H502 0.930 . S
C483 C481 1.381 . S
C483 C482 1.387 . S
C483 H503 0.931 . S
C484 C481 1.487 . S
C484 C491 1.399 . S
C484 N509 1.343 . S
C485 C486 1.384 . S
C485 C487 1.384 . S
C485 H504 0.931 . S
C486 C485 1.384 . S
C486 C489 1.382 . S
C487 C485 1.384 . S
C487 C488 1.381 . S
C487 H505 0.930 . S
C488 C487 1.381 . S
C488 C490 1.381 . S
C488 C491 1.487 . S
C489 C486 1.382 . S
C489 C490 1.387 . S
C489 H506 0.930 . S
C490 C488 1.381 . S
C490 C489 1.387 . S
C490 H507 0.931 . S
C491 C484 1.399 . S
C491 C488 1.487 . S
C491 N508 1.343 . S
H492 C464 0.931 . S
H493 C466 0.930 . S
H494 C468 0.930 . S
H495 C469 0.931 . S
H496 C471 0.931 . S
H497 C473 0.930 . S
H498 C475 0.930 . S
H499 C476 0.931 . S
H500 C478 0.931 . S
H501 C480 0.930 . S
H502 C482 0.930 . S
H503 C483 0.931 . S
H504 C485 0.931 . S
H505 C487 0.930 . S
H506 C489 0.930 . S
H507 C490 0.931 . S
N508 C470 1.343 . S
N508 C491 1.343 . S
N509 C477 1.343 . S
N509 C484 1.343 . S
C510 C511 1.384 . S
C510 C512 1.384 . S
C510 H538 0.931 . S
C511 C510 1.384 . S
C511 C514 1.382 . S
C512 C510 1.384 . S
C512 C513 1.381 . S
C512 H539 0.930 . S
C513 C512 1.381 . S
C513 C515 1.381 . S
C513 C516 1.487 . S
C514 C511 1.382 . S
C514 C515 1.387 . S
C514 H540 0.930 . S
C515 C513 1.381 . S
C515 C514 1.387 . S
C515 H541 0.931 . S
C516 C513 1.487 . S
C516 C523 1.399 . S
C516 N554 1.343 . S
C517 C518 1.384 . S
C517 C519 1.384 . S
C517 H542 0.931 . S
C518 C517 1.384 . S
C518 C521 1.382 . S
C519 C517 1.384 . S
C519 C520 1.381 . S
C519 H543 0.930 . S
C520 C519 1.381 . S
C520 C522 1.381 . S
C520 C523 1.487 . S
C521 C518 1.382 . S
C521 C522 1.387 . S
C521 H544 0.930 . S
C522 C520 1.381 . S
C522 C521 1.387 . S
C522 H545 0.931 . S
C523 C516 1.399 . S
C523 C520 1.487 . S
C523 N555 1.343 . S
C524 C525 1.384 . S
C524 C526 1.384 . S
C524 H546 0.931 . S
C525 C524 1.384 . S
C525 C528 1.382 . S
C526 C524 1.384 . S
C526 C527 1.381 . S
C526 H547 0.930 . S
C527 C526 1.381 . S
C527 C529 1.381 . S
C527 C530 1.487 . S
C528 C525 1.382 . S
C528 C529 1.387 . S
C528 H548 0.930 . S
C529 C527 1.381 . S
C529 C528 1.387 . S
C529 H549 0.931 . S
C530 C527 1.487 . S
C530 C537 1.399 . S
C530 N555 1.343 . S
C531 C532 1.384 . S
C531 C533 1.384 . S
C531 H550 0.931 . S
C532 C531 1.384 . S
C532 C535 1.382 . S
C533 C531 1.384 . S
C533 C534 1.381 . S
C533 H551 0.930 . S
C534 C533 1.381 . S
C534 C536 1.381 . S
C534 C537 1.487 . S
C535 C532 1.382 . S
C535 C536 1.387 . S
C535 H552 0.930 . S
C536 C534 1.381 . S
C536 C535 1.387 . S
C536 H553 0.931 . S
C537 C530 1.399 . S
C537 C534 1.487 . S
C537 N554 1.343 . S
H538 C510 0.931 . S
H539 C512 0.930 . S
H540 C514 0.930 . S
H541 C515 0.931 . S
H542 C517 0.931 . S
H543 C519 0.930 . S
H544 C521 0.930 . S
H545 C522 0.931 . S
H546 C524 0.931 . S
H547 C526 0.930 . S
H548 C528 0.930 . S
H549 C529 0.931 . S
H550 C531 0.931 . S
H551 C533 0.930 . S
H552 C535 0.930 . S
H553 C536 0.931 . S
N554 C516 1.343 . S
N554 C537 1.343 . S
N555 C523 1.343 . S
N555 C530 1.343 . S
C556 C557 1.384 . S
C556 C558 1.384 . S
C556 H584 0.931 . S
C557 C556 1.384 . S
C557 C560 1.382 . S
C558 C556 1.384 . S
C558 C559 1.381 . S
C558 H585 0.930 . S
C559 C558 1.381 . S
C559 C561 1.381 . S
C559 C562 1.487 . S
C560 C557 1.382 . S
C560 C561 1.387 . S
C560 H586 0.930 . S
C561 C559 1.381 . S
C561 C560 1.387 . S
C561 H587 0.931 . S
C562 C559 1.487 . S
C562 C569 1.399 . S
C562 N600 1.343 . S
C563 C564 1.384 . S
C563 C565 1.384 . S
C563 H588 0.931 . S
C564 C563 1.384 . S
C564 C567 1.382 . S
C565 C563 1.384 . S
C565 C566 1.381 . S
C565 H589 0.930 . S
C566 C565 1.381 . S
C566 C568 1.381 . S
C566 C569 1.487 . S
C567 C564 1.382 . S
C567 C568 1.387 . S
C567 H590 0.930 . S
C568 C566 1.381 . S
C568 C567 1.387 . S
C568 H591 0.931 . S
C569 C562 1.399 . S
C569 C566 1.487 . S
C569 N601 1.343 . S
C570 C571 1.384 . S
C570 C572 1.384 . S
C570 H592 0.931 . S
C571 C570 1.384 . S
C571 C574 1.382 . S
C572 C570 1.384 . S
C572 C573 1.381 . S
C572 H593 0.930 . S
C573 C572 1.381 . S
C573 C575 1.381 . S
C573 C576 1.487 . S
C574 C571 1.382 . S
C574 C575 1.387 . S
C574 H594 0.930 . S
C575 C573 1.381 . S
C575 C574 1.387 . S
C575 H595 0.931 . S
C576 C573 1.487 . S
C576 C583 1.399 . S
C576 N601 1.343 . S
C577 C578 1.384 . S
C577 C579 1.384 . S
C577 H596 0.931 . S
C578 C577 1.384 . S
C578 C581 1.382 . S
C579 C577 1.384 . S
C579 C580 1.381 . S
C579 H597 0.930 . S
C580 C579 1.381 . S
C580 C582 1.381 . S
C580 C583 1.487 . S
C581 C578 1.382 . S
C581 C582 1.387 . S
C581 H598 0.930 . S
C582 C580 1.381 . S
C582 C581 1.387 . S
C582 H599 0.931 . S
C583 C576 1.399 . S
C583 C580 1.487 . S
C583 N600 1.343 . S
H584 C556 0.931 . S
H585 C558 0.930 . S
H586 C560 0.930 . S
H587 C561 0.931 . S
H588 C563 0.931 . S
H589 C565 0.930 . S
H590 C567 0.930 . S
H591 C568 0.931 . S
H592 C570 0.931 . S
H593 C572 0.930 . S
H594 C574 0.930 . S
H595 C575 0.931 . S
H596 C577 0.931 . S
H597 C579 0.930 . S
H598 C581 0.930 . S
H599 C582 0.931 . S
N600 C562 1.343 . S
N600 C583 1.343 . S
N601 C569 1.343 . S
N601 C576 1.343 . S
C602 C603 1.384 . S
C602 C604 1.384 . S
C602 H630 0.931 . S
C603 C602 1.384 . S
C603 C606 1.382 . S
C604 C602 1.384 . S
C604 C605 1.381 . S
C604 H631 0.930 . S
C605 C604 1.381 . S
C605 C607 1.381 . S
C605 C608 1.487 . S
C606 C603 1.382 . S
C606 C607 1.387 . S
C606 H632 0.930 . S
C607 C605 1.381 . S
C607 C606 1.387 . S
C607 H633 0.931 . S
C608 C605 1.487 . S
C608 C615 1.399 . S
C608 N646 1.343 . S
C609 C610 1.384 . S
C609 C611 1.384 . S
C609 H634 0.931 . S
C610 C609 1.384 . S
C610 C613 1.382 . S
C611 C609 1.384 . S
C611 C612 1.381 . S
C611 H635 0.930 . S
C612 C611 1.381 . S
C612 C614 1.381 . S
C612 C615 1.487 . S
C613 C610 1.382 . S
C613 C614 1.387 . S
C613 H636 0.930 . S
C614 C612 1.381 . S
C614 C613 1.387 . S
C614 H637 0.931 . S
C615 C608 1.399 . S
C615 C612 1.487 . S
C615 N647 1.343 . S
C616 C617 1.384 . S
C616 C618 1.384 . S
C616 H638 0.931 . S
C617 C616 1.384 . S
C617 C620 1.382 . S
C618 C616 1.384 . S
C618 C619 1.381 . S
C618 H639 0.930 . S
C619 C618 1.381 . S
C619 C621 1.381 . S
C619 C622 1.487 . S
C620 C617 1.382 . S
C620 C621 1.387 . S
C620 H640 0.930 . S
C621 C619 1.381 . S
C621 C620 1.387 . S
C621 H641 0.931 . S
C622 C619 1.487 . S
C622 C629 1.399 . S
C622 N647 1.343 . S
C623 C624 1.384 . S
C623 C625 1.384 . S
C623 H642 0.931 . S
C624 C623 1.384 . S
C624 C627 1.382 . S
C625 C623 1.384 . S
C625 C626 1.381 . S
C625 H643 0.930 . S
C626 C625 1.381 . S
C626 C628 1.381 . S
C626 C629 1.487 . S
C627 C624 1.382 . S
C627 C628 1.387 . S
C627 H644 0.930 . S
C628 C626 1.381 . S
C628 C627 1.387 . S
C628 H645 0.931 . S
C629 C622 1.399 . S
C629 C626 1.487 . S
C629 N646 1.343 . S
H630 C602 0.931 . S
H631 C604 0.930 . S
H632 C606 0.930 . S
H633 C607 0.931 . S
H634 C609 0.931 . S
H635 C611 0.930 . S
H636 C613 0.930 . S
H637 C614 0.931 . S
H638 C616 0.931 . S
H639 C618 0.930 . S
H640 C620 0.930 . S
H641 C621 0.931 . S
H642 C623 0.931 . S
H643 C625 0.930 . S
H644 C627 0.930 . S
H645 C628 0.931 . S
N646 C608 1.343 . S
N646 C629 1.343 . S
N647 C615 1.343 . S
N647 C622 1.343 . S
C648 C649 1.384 . S
C648 C650 1.384 . S
C648 H676 0.931 . S
C649 C648 1.384 . S
C649 C652 1.382 1_655 S
C650 C648 1.384 . S
C650 C651 1.383 . S
C650 H677 0.930 . S
C651 C650 1.383 . S
C651 C653 1.380 1_655 S
C651 C654 1.479 1_655 S
C652 C649 1.382 1_455 S
C652 C653 1.387 . S
C652 H678 0.930 . S
C653 C651 1.380 1_455 S
C653 C652 1.387 . S
C653 H679 0.931 . S
C654 C651 1.479 1_455 S
C654 C661 1.399 1_455 S
C654 N692 1.319 . S
C655 C656 1.384 . S
C655 C657 1.384 . S
C655 H680 0.931 . S
C656 C655 1.384 . S
C656 C659 1.382 1_455 S
C657 C655 1.384 . S
C657 C658 1.384 . S
C657 H681 0.930 . S
C658 C657 1.384 . S
C658 C660 1.373 1_455 S
C658 C661 1.493 1_455 S
C659 C656 1.382 1_655 S
C659 C660 1.387 . S
C659 H682 0.930 . S
C660 C658 1.373 1_655 S
C660 C659 1.387 . S
C660 H683 0.931 . S
C661 C654 1.399 1_655 S
C661 C658 1.493 1_655 S
C661 N693 1.364 . S
C662 C663 1.384 . S
C662 C664 1.384 . S
C662 H684 0.931 . S
C663 C662 1.384 . S
C663 C666 1.382 1_455 S
C664 C662 1.384 . S
C664 C665 1.403 . S
C664 H685 0.930 . S
C665 C664 1.403 . S
C665 C667 1.370 1_455 S
C665 C668 1.479 1_455 S
C666 C663 1.382 1_655 S
C666 C667 1.387 . S
C666 H686 0.930 . S
C667 C665 1.370 1_655 S
C667 C666 1.387 . S
C667 H687 0.931 . S
C668 C665 1.479 1_655 S
C668 C675 1.399 1_655 S
C668 N693 1.319 . S
C669 C670 1.384 . S
C669 C671 1.384 . S
C669 H688 0.931 . S
C670 C669 1.384 . S
C670 C673 1.382 1_655 S
C671 C669 1.384 . S
C671 C672 1.380 . S
C671 H689 0.930 . S
C672 C671 1.380 . S
C672 C674 1.385 1_655 S
C672 C675 1.493 1_655 S
C673 C670 1.382 1_455 S
C673 C674 1.387 . S
C673 H690 0.930 . S
C674 C672 1.385 1_455 S
C674 C673 1.387 . S
C674 H691 0.931 . S
C675 C668 1.399 1_455 S
C675 C672 1.493 1_455 S
C675 N692 1.364 . S
H676 C648 0.931 . S
H677 C650 0.930 . S
H678 C652 0.930 . S
H679 C653 0.931 . S
H680 C655 0.931 . S
H681 C657 0.930 . S
H682 C659 0.930 . S
H683 C660 0.931 . S
H684 C662 0.931 . S
H685 C664 0.930 . S
H686 C666 0.930 . S
H687 C667 0.931 . S
H688 C669 0.931 . S
H689 C671 0.930 . S
H690 C673 0.930 . S
H691 C674 0.931 . S
N692 C654 1.319 . S
N692 C675 1.364 . S
N693 C661 1.364 . S
N693 C668 1.319 . S
C694 C695 1.384 . S
C694 C696 1.384 . S
C694 H722 0.931 . S
C695 C694 1.384 . S
C695 C698 1.382 . S
C696 C694 1.384 . S
C696 C697 1.381 . S
C696 H723 0.930 . S
C697 C696 1.381 . S
C697 C699 1.381 . S
C697 C700 1.487 . S
C698 C695 1.382 . S
C698 C699 1.387 . S
C698 H724 0.930 . S
C699 C697 1.381 . S
C699 C698 1.387 . S
C699 H725 0.931 . S
C700 C697 1.487 . S
C700 C707 1.399 . S
C700 N738 1.343 . S
C701 C702 1.384 . S
C701 C703 1.384 . S
C701 H726 0.931 . S
C702 C701 1.384 . S
C702 C705 1.382 . S
C703 C701 1.384 . S
C703 C704 1.381 . S
C703 H727 0.930 . S
C704 C703 1.381 . S
C704 C706 1.381 . S
C704 C707 1.487 . S
C705 C702 1.382 . S
C705 C706 1.387 . S
C705 H728 0.930 . S
C706 C704 1.381 . S
C706 C705 1.387 . S
C706 H729 0.931 . S
C707 C700 1.399 . S
C707 C704 1.487 . S
C707 N739 1.343 . S
C708 C709 1.384 . S
C708 C710 1.384 . S
C708 H730 0.931 . S
C709 C708 1.384 . S
C709 C712 1.382 . S
C710 C708 1.384 . S
C710 C711 1.381 . S
C710 H731 0.930 . S
C711 C710 1.381 . S
C711 C713 1.381 . S
C711 C714 1.487 . S
C712 C709 1.382 . S
C712 C713 1.387 . S
C712 H732 0.930 . S
C713 C711 1.381 . S
C713 C712 1.387 . S
C713 H733 0.931 . S
C714 C711 1.487 . S
C714 C721 1.399 . S
C714 N739 1.343 . S
C715 C716 1.384 . S
C715 C717 1.384 . S
C715 H734 0.931 . S
C716 C715 1.384 . S
C716 C719 1.382 . S
C717 C715 1.384 . S
C717 C718 1.381 . S
C717 H735 0.930 . S
C718 C717 1.381 . S
C718 C720 1.381 . S
C718 C721 1.487 . S
C719 C716 1.382 . S
C719 C720 1.387 . S
C719 H736 0.930 . S
C720 C718 1.381 . S
C720 C719 1.387 . S
C720 H737 0.931 . S
C721 C714 1.399 . S
C721 C718 1.487 . S
C721 N738 1.343 . S
H722 C694 0.931 . S
H723 C696 0.930 . S
H724 C698 0.930 . S
H725 C699 0.931 . S
H726 C701 0.931 . S
H727 C703 0.930 . S
H728 C705 0.930 . S
H729 C706 0.931 . S
H730 C708 0.931 . S
H731 C710 0.930 . S
H732 C712 0.930 . S
H733 C713 0.931 . S
H734 C715 0.931 . S
H735 C717 0.930 . S
H736 C719 0.930 . S
H737 C720 0.931 . S
N738 C700 1.343 . S
N738 C721 1.343 . S
N739 C707 1.343 . S
N739 C714 1.343 . S
C740 C741 1.384 1_545 S
C740 C742 1.384 . S
C740 H768 0.931 . S
C741 C740 1.384 1_565 S
C741 C744 1.382 . S
C742 C740 1.384 . S
C742 C743 1.381 1_545 S
C742 H769 0.930 . S
C743 C742 1.381 1_565 S
C743 C745 1.381 . S
C743 C746 1.487 . S
C744 C741 1.382 . S
C744 C745 1.387 . S
C744 H770 0.930 . S
C745 C743 1.381 . S
C745 C744 1.387 . S
C745 H771 0.931 . S
C746 C743 1.487 . S
C746 C753 1.399 1_565 S
C746 N784 1.343 . S
C747 C748 1.384 1_565 S
C747 C749 1.384 . S
C747 H772 0.931 . S
C748 C747 1.384 1_545 S
C748 C751 1.382 . S
C749 C747 1.384 . S
C749 C750 1.381 1_565 S
C749 H773 0.930 . S
C750 C749 1.381 1_545 S
C750 C752 1.381 . S
C750 C753 1.487 . S
C751 C748 1.382 . S
C751 C752 1.387 . S
C751 H774 0.930 . S
C752 C750 1.381 . S
C752 C751 1.387 . S
C752 H775 0.931 . S
C753 C746 1.399 1_545 S
C753 C750 1.487 . S
C753 N785 1.343 . S
C754 C755 1.384 1_565 S
C754 C756 1.384 . S
C754 H776 0.931 . S
C755 C754 1.384 1_545 S
C755 C758 1.382 . S
C756 C754 1.384 . S
C756 C757 1.381 1_565 S
C756 H777 0.930 . S
C757 C756 1.381 1_545 S
C757 C759 1.381 . S
C757 C760 1.455 . S
C758 C755 1.382 . S
C758 C759 1.387 . S
C758 H778 0.930 . S
C759 C757 1.381 . S
C759 C758 1.387 . S
C759 H779 0.931 . S
C760 C757 1.455 . S
C760 C767 1.390 1_545 S
C760 N785 1.393 . S
C761 C762 1.384 1_545 S
C761 C763 1.384 . S
C761 H780 0.931 . S
C762 C761 1.384 1_565 S
C762 C765 1.382 . S
C763 C761 1.384 . S
C763 C764 1.381 1_545 S
C763 H781 0.930 . S
C764 C763 1.381 1_565 S
C764 C766 1.381 . S
C764 C767 1.487 . S
C765 C762 1.382 . S
C765 C766 1.387 . S
C765 H782 0.930 . S
C766 C764 1.381 . S
C766 C765 1.387 . S
C766 H783 0.931 . S
C767 C760 1.390 1_565 S
C767 C764 1.487 . S
C767 N784 1.343 . S
H768 C740 0.931 . S
H769 C742 0.930 . S
H770 C744 0.930 . S
H771 C745 0.931 . S
H772 C747 0.931 . S
H773 C749 0.930 . S
H774 C751 0.930 . S
H775 C752 0.931 . S
H776 C754 0.931 . S
H777 C756 0.930 . S
H778 C758 0.930 . S
H779 C759 0.931 . S
H780 C761 0.931 . S
H781 C763 0.930 . S
H782 C765 0.930 . S
H783 C766 0.931 . S
N784 C746 1.343 . S
N784 C767 1.343 . S
N785 C753 1.343 . S
N785 C760 1.393 . S
C786 C787 1.384 . S
C786 C788 1.384 . S
C786 H814 0.931 . S
C787 C786 1.384 . S
C787 C790 1.382 1_545 S
C788 C786 1.384 . S
C788 C789 1.384 . S
C788 H815 0.930 . S
C789 C788 1.384 . S
C789 C791 1.374 1_545 S
C789 C792 1.492 1_545 S
C790 C787 1.382 1_565 S
C790 C791 1.387 . S
C790 H816 0.930 . S
C791 C789 1.374 1_565 S
C791 C790 1.387 . S
C791 H817 0.931 . S
C792 C789 1.492 1_565 S
C792 C799 1.399 1_565 S
C792 N830 1.364 . S
C793 C794 1.384 . S
C793 C795 1.384 . S
C793 H818 0.931 . S
C794 C793 1.384 . S
C794 C797 1.382 1_565 S
C795 C793 1.384 . S
C795 C796 1.384 . S
C795 H819 0.930 . S
C796 C795 1.384 . S
C796 C798 1.380 1_565 S
C796 C799 1.479 1_565 S
C797 C794 1.382 1_545 S
C797 C798 1.387 . S
C797 H820 0.930 . S
C798 C796 1.380 1_545 S
C798 C797 1.387 . S
C798 H821 0.931 . S
C799 C792 1.399 1_545 S
C799 C796 1.479 1_545 S
C799 N831 1.318 . S
C800 C801 1.384 . S
C800 C802 1.384 . S
C800 H822 0.931 . S
C801 C800 1.384 . S
C801 C804 1.382 1_565 S
C802 C800 1.384 . S
C802 C803 1.380 . S
C802 H823 0.930 . S
C803 C802 1.380 . S
C803 C805 1.386 1_565 S
C803 C806 1.492 1_565 S
C804 C801 1.382 1_545 S
C804 C805 1.387 . S
C804 H824 0.930 . S
C805 C803 1.386 1_545 S
C805 C804 1.387 . S
C805 H825 0.931 . S
C806 C803 1.492 1_545 S
C806 C813 1.399 1_545 S
C806 N831 1.364 . S
C807 C808 1.384 . S
C807 C809 1.384 . S
C807 H826 0.931 . S
C808 C807 1.384 . S
C808 C811 1.382 1_545 S
C809 C807 1.384 . S
C809 C810 1.404 . S
C809 H827 0.930 . S
C810 C809 1.404 . S
C810 C812 1.369 1_545 S
C810 C813 1.479 1_545 S
C811 C808 1.382 1_565 S
C811 C812 1.387 . S
C811 H828 0.930 . S
C812 C810 1.369 1_565 S
C812 C811 1.387 . S
C812 H829 0.931 . S
C813 C806 1.399 1_565 S
C813 C810 1.479 1_565 S
C813 N830 1.318 . S
H814 C786 0.931 . S
H815 C788 0.930 . S
H816 C790 0.930 . S
H817 C791 0.931 . S
H818 C793 0.931 . S
H819 C795 0.930 . S
H820 C797 0.930 . S
H821 C798 0.931 . S
H822 C800 0.931 . S
H823 C802 0.930 . S
H824 C804 0.930 . S
H825 C805 0.931 . S
H826 C807 0.931 . S
H827 C809 0.930 . S
H828 C811 0.930 . S
H829 C812 0.931 . S
N830 C792 1.364 . S
N830 C813 1.318 . S
N831 C799 1.318 . S
N831 C806 1.364 . S
C832 C833 1.384 . S
C832 C834 1.384 . S
C832 H860 0.931 . S
C833 C832 1.384 . S
C833 C836 1.382 1_655 S
C834 C832 1.384 . S
C834 C835 1.406 . S
C834 H861 0.930 . S
C835 C834 1.406 . S
C835 C837 1.369 1_655 S
C835 C838 1.478 1_655 S
C836 C833 1.382 1_455 S
C836 C837 1.387 . S
C836 H862 0.930 . S
C837 C835 1.369 1_455 S
C837 C836 1.387 . S
C837 H863 0.931 . S
C838 C835 1.478 1_455 S
C838 C845 1.399 1_455 S
C838 N876 1.319 . S
C839 C840 1.384 . S
C839 C841 1.384 . S
C839 H864 0.931 . S
C840 C839 1.384 . S
C840 C843 1.382 1_455 S
C841 C839 1.384 . S
C841 C842 1.381 . S
C841 H865 0.930 . S
C842 C841 1.381 . S
C842 C844 1.383 1_455 S
C842 C845 1.493 1_455 S
C843 C840 1.382 1_655 S
C843 C844 1.387 . S
C843 H866 0.930 . S
C844 C842 1.383 1_655 S
C844 C843 1.387 . S
C844 H867 0.931 . S
C845 C838 1.399 1_655 S
C845 C842 1.493 1_655 S
C845 N877 1.364 . S
C846 C847 1.384 . S
C846 C848 1.384 . S
C846 H868 0.931 . S
C847 C846 1.384 . S
C847 C850 1.382 1_455 S
C848 C846 1.384 . S
C848 C849 1.386 . S
C848 H869 0.930 . S
C849 C848 1.386 . S
C849 C851 1.379 1_455 S
C849 C852 1.478 1_455 S
C850 C847 1.382 1_655 S
C850 C851 1.387 . S
C850 H870 0.930 . S
C851 C849 1.379 1_655 S
C851 C850 1.387 . S
C851 H871 0.931 . S
C852 C849 1.478 1_655 S
C852 C859 1.399 1_655 S
C852 N877 1.319 . S
C853 C854 1.384 . S
C853 C855 1.384 . S
C853 H872 0.931 . S
C854 C853 1.384 . S
C854 C857 1.382 1_655 S
C855 C853 1.384 . S
C855 C856 1.385 . S
C855 H873 0.930 . S
C856 C855 1.385 . S
C856 C858 1.371 1_655 S
C856 C859 1.493 1_655 S
C857 C854 1.382 1_455 S
C857 C858 1.387 . S
C857 H874 0.930 . S
C858 C856 1.371 1_455 S
C858 C857 1.387 . S
C858 H875 0.931 . S
C859 C852 1.399 1_455 S
C859 C856 1.493 1_455 S
C859 N876 1.364 . S
H860 C832 0.931 . S
H861 C834 0.930 . S
H862 C836 0.930 . S
H863 C837 0.931 . S
H864 C839 0.931 . S
H865 C841 0.930 . S
H866 C843 0.930 . S
H867 C844 0.931 . S
H868 C846 0.931 . S
H869 C848 0.930 . S
H870 C850 0.930 . S
H871 C851 0.931 . S
H872 C853 0.931 . S
H873 C855 0.930 . S
H874 C857 0.930 . S
H875 C858 0.931 . S
N876 C838 1.319 . S
N876 C859 1.364 . S
N877 C845 1.364 . S
N877 C852 1.319 . S
C878 C879 1.384 . S
C878 C880 1.384 . S
C878 H906 0.931 . S
C879 C878 1.384 . S
C879 C882 1.382 . S
C880 C878 1.384 . S
C880 C881 1.381 . S
C880 H907 0.930 . S
C881 C880 1.381 . S
C881 C883 1.381 . S
C881 C884 1.487 . S
C882 C879 1.382 . S
C882 C883 1.387 . S
C882 H908 0.930 . S
C883 C881 1.381 . S
C883 C882 1.387 . S
C883 H909 0.931 . S
C884 C881 1.487 . S
C884 C891 1.399 . S
C884 N922 1.343 . S
C885 C886 1.384 . S
C885 C887 1.384 . S
C885 H910 0.931 . S
C886 C885 1.384 . S
C886 C889 1.382 . S
C887 C885 1.384 . S
C887 C888 1.381 . S
C887 H911 0.930 . S
C888 C887 1.381 . S
C888 C890 1.381 . S
C888 C891 1.487 . S
C889 C886 1.382 . S
C889 C890 1.387 . S
C889 H912 0.930 . S
C890 C888 1.381 . S
C890 C889 1.387 . S
C890 H913 0.931 . S
C891 C884 1.399 . S
C891 C888 1.487 . S
C891 N923 1.343 . S
C892 C893 1.384 . S
C892 C894 1.384 . S
C892 H914 0.931 . S
C893 C892 1.384 . S
C893 C896 1.382 . S
C894 C892 1.384 . S
C894 C895 1.381 . S
C894 H915 0.930 . S
C895 C894 1.381 . S
C895 C897 1.381 . S
C895 C898 1.487 . S
C896 C893 1.382 . S
C896 C897 1.387 . S
C896 H916 0.930 . S
C897 C895 1.381 . S
C897 C896 1.387 . S
C897 H917 0.931 . S
C898 C895 1.487 . S
C898 C905 1.399 . S
C898 N923 1.343 . S
C899 C900 1.384 . S
C899 C901 1.384 . S
C899 H918 0.931 . S
C900 C899 1.384 . S
C900 C903 1.382 . S
C901 C899 1.384 . S
C901 C902 1.381 . S
C901 H919 0.930 . S
C902 C901 1.381 . S
C902 C904 1.381 . S
C902 C905 1.487 . S
C903 C900 1.382 . S
C903 C904 1.387 . S
C903 H920 0.930 . S
C904 C902 1.381 . S
C904 C903 1.387 . S
C904 H921 0.931 . S
C905 C898 1.399 . S
C905 C902 1.487 . S
C905 N922 1.343 . S
H906 C878 0.931 . S
H907 C880 0.930 . S
H908 C882 0.930 . S
H909 C883 0.931 . S
H910 C885 0.931 . S
H911 C887 0.930 . S
H912 C889 0.930 . S
H913 C890 0.931 . S
H914 C892 0.931 . S
H915 C894 0.930 . S
H916 C896 0.930 . S
H917 C897 0.931 . S
H918 C899 0.931 . S
H919 C901 0.930 . S
H920 C903 0.930 . S
H921 C904 0.931 . S
N922 C884 1.343 . S
N922 C905 1.343 . S
N923 C891 1.343 . S
N923 C898 1.343 . S
C924 C925 1.384 . S
C924 C926 1.384 . S
C924 H952 0.931 . S
C925 C924 1.384 . S
C925 C928 1.382 . S
C926 C924 1.384 . S
C926 C927 1.381 . S
C926 H953 0.930 . S
C927 C926 1.381 . S
C927 C929 1.381 . S
C927 C930 1.487 . S
C928 C925 1.382 . S
C928 C929 1.387 . S
C928 H954 0.930 . S
C929 C927 1.381 . S
C929 C928 1.387 . S
C929 H955 0.931 . S
C930 C927 1.487 . S
C930 C937 1.399 . S
C930 N968 1.343 . S
C931 C932 1.384 . S
C931 C933 1.384 . S
C931 H956 0.931 . S
C932 C931 1.384 . S
C932 C935 1.382 . S
C933 C931 1.384 . S
C933 C934 1.381 . S
C933 H957 0.930 . S
C934 C933 1.381 . S
C934 C936 1.381 . S
C934 C937 1.487 . S
C935 C932 1.382 . S
C935 C936 1.387 . S
C935 H958 0.930 . S
C936 C934 1.381 . S
C936 C935 1.387 . S
C936 H959 0.931 . S
C937 C930 1.399 . S
C937 C934 1.487 . S
C937 N969 1.343 . S
C938 C939 1.384 . S
C938 C940 1.384 . S
C938 H960 0.931 . S
C939 C938 1.384 . S
C939 C942 1.382 . S
C940 C938 1.384 . S
C940 C941 1.381 . S
C940 H961 0.930 . S
C941 C940 1.381 . S
C941 C943 1.381 . S
C941 C944 1.487 . S
C942 C939 1.382 . S
C942 C943 1.387 . S
C942 H962 0.930 . S
C943 C941 1.381 . S
C943 C942 1.387 . S
C943 H963 0.931 . S
C944 C941 1.487 . S
C944 C951 1.399 . S
C944 N969 1.343 . S
C945 C946 1.384 . S
C945 C947 1.384 . S
C945 H964 0.931 . S
C946 C945 1.384 . S
C946 C949 1.382 . S
C947 C945 1.384 . S
C947 C948 1.381 . S
C947 H965 0.930 . S
C948 C947 1.381 . S
C948 C950 1.381 . S
C948 C951 1.487 . S
C949 C946 1.382 . S
C949 C950 1.387 . S
C949 H966 0.930 . S
C950 C948 1.381 . S
C950 C949 1.387 . S
C950 H967 0.931 . S
C951 C944 1.399 . S
C951 C948 1.487 . S
C951 N968 1.343 . S
H952 C924 0.931 . S
H953 C926 0.930 . S
H954 C928 0.930 . S
H955 C929 0.931 . S
H956 C931 0.931 . S
H957 C933 0.930 . S
H958 C935 0.930 . S
H959 C936 0.931 . S
H960 C938 0.931 . S
H961 C940 0.930 . S
H962 C942 0.930 . S
H963 C943 0.931 . S
H964 C945 0.931 . S
H965 C947 0.930 . S
H966 C949 0.930 . S
H967 C950 0.931 . S
N968 C930 1.343 . S
N968 C951 1.343 . S
N969 C937 1.343 . S
N969 C944 1.343 . S
C970 C971 1.384 . S
C970 C972 1.384 . S
C970 H998 0.931 . S
C971 C970 1.384 . S
C971 C974 1.382 . S
C972 C970 1.384 . S
C972 C973 1.381 . S
C972 H999 0.930 . S
C973 C972 1.381 . S
C973 C975 1.381 . S
C973 C976 1.487 . S
C974 C971 1.382 . S
C974 C975 1.387 . S
C974 H1000 0.930 . S
C975 C973 1.381 . S
C975 C974 1.387 . S
C975 H1001 0.931 . S
C976 C973 1.487 . S
C976 C983 1.399 . S
C976 N1014 1.343 . S
C977 C978 1.384 . S
C977 C979 1.384 . S
C977 H1002 0.931 . S
C978 C977 1.384 . S
C978 C981 1.382 . S
C979 C977 1.384 . S
C979 C980 1.381 . S
C979 H1003 0.930 . S
C980 C979 1.381 . S
C980 C982 1.381 . S
C980 C983 1.487 . S
C981 C978 1.382 . S
C981 C982 1.387 . S
C981 H1004 0.930 . S
C982 C980 1.381 . S
C982 C981 1.387 . S
C982 H1005 0.931 . S
C983 C976 1.399 . S
C983 C980 1.487 . S
C983 N1015 1.343 . S
C984 C985 1.384 . S
C984 C986 1.384 . S
C984 H1006 0.931 . S
C985 C984 1.384 . S
C985 C988 1.382 . S
C986 C984 1.384 . S
C986 C987 1.381 . S
C986 H1007 0.930 . S
C987 C986 1.381 . S
C987 C989 1.381 . S
C987 C990 1.487 . S
C988 C985 1.382 . S
C988 C989 1.387 . S
C988 H1008 0.930 . S
C989 C987 1.381 . S
C989 C988 1.387 . S
C989 H1009 0.931 . S
C990 C987 1.487 . S
C990 C997 1.399 . S
C990 N1015 1.343 . S
C991 C992 1.384 . S
C991 C993 1.384 . S
C991 H1010 0.931 . S
C992 C991 1.384 . S
C992 C995 1.382 . S
C993 C991 1.384 . S
C993 C994 1.381 . S
C993 H1011 0.930 . S
C994 C993 1.381 . S
C994 C996 1.381 . S
C994 C997 1.487 . S
C995 C992 1.382 . S
C995 C996 1.387 . S
C995 H1012 0.930 . S
C996 C994 1.381 . S
C996 C995 1.387 . S
C996 H1013 0.931 . S
C997 C990 1.399 . S
C997 C994 1.487 . S
C997 N1014 1.343 . S
H998 C970 0.931 . S
H999 C972 0.930 . S
H1000 C974 0.930 . S
H1001 C975 0.931 . S
H1002 C977 0.931 . S
H1003 C979 0.930 . S
H1004 C981 0.930 . S
H1005 C982 0.931 . S
H1006 C984 0.931 . S
H1007 C986 0.930 . S
H1008 C988 0.930 . S
H1009 C989 0.931 . S
H1010 C991 0.931 . S
H1011 C993 0.930 . S
H1012 C995 0.930 . S
H1013 C996 0.931 . S
N1014 C976 1.343 . S
N1014 C997 1.343 . S
N1015 C983 1.343 . S
N1015 C990 1.343 . S
C1016 C1017 1.384 . S
C1016 C1018 1.384 . S
C1016 H1044 0.931 . S
C1017 C1016 1.384 . S
C1017 C1020 1.382 . S
C1018 C1016 1.384 . S
C1018 C1019 1.381 . S
C1018 H1045 0.930 . S
C1019 C1018 1.381 . S
C1019 C1021 1.381 . S
C1019 C1022 1.487 . S
C1020 C1017 1.382 . S
C1020 C1021 1.387 . S
C1020 H1046 0.930 . S
C1021 C1019 1.381 . S
C1021 C1020 1.387 . S
C1021 H1047 0.931 . S
C1022 C1019 1.487 . S
C1022 C1029 1.399 . S
C1022 N1060 1.343 . S
C1023 C1024 1.384 . S
C1023 C1025 1.384 . S
C1023 H1048 0.931 . S
C1024 C1023 1.384 . S
C1024 C1027 1.382 . S
C1025 C1023 1.384 . S
C1025 C1026 1.381 . S
C1025 H1049 0.930 . S
C1026 C1025 1.381 . S
C1026 C1028 1.381 . S
C1026 C1029 1.487 . S
C1027 C1024 1.382 . S
C1027 C1028 1.387 . S
C1027 H1050 0.930 . S
C1028 C1026 1.381 . S
C1028 C1027 1.387 . S
C1028 H1051 0.931 . S
C1029 C1022 1.399 . S
C1029 C1026 1.487 . S
C1029 N1061 1.343 . S
C1030 C1031 1.384 . S
C1030 C1032 1.384 . S
C1030 H1052 0.931 . S
C1031 C1030 1.384 . S
C1031 C1034 1.382 . S
C1032 C1030 1.384 . S
C1032 C1033 1.381 . S
C1032 H1053 0.930 . S
C1033 C1032 1.381 . S
C1033 C1035 1.381 . S
C1033 C1036 1.487 . S
C1034 C1031 1.382 . S
C1034 C1035 1.387 . S
C1034 H1054 0.930 . S
C1035 C1033 1.381 . S
C1035 C1034 1.387 . S
C1035 H1055 0.931 . S
C1036 C1033 1.487 . S
C1036 C1043 1.399 . S
C1036 N1061 1.343 . S
C1037 C1038 1.384 . S
C1037 C1039 1.384 . S
C1037 H1056 0.931 . S
C1038 C1037 1.384 . S
C1038 C1041 1.382 . S
C1039 C1037 1.384 . S
C1039 C1040 1.381 . S
C1039 H1057 0.930 . S
C1040 C1039 1.381 . S
C1040 C1042 1.381 . S
C1040 C1043 1.487 . S
C1041 C1038 1.382 . S
C1041 C1042 1.387 . S
C1041 H1058 0.930 . S
C1042 C1040 1.381 . S
C1042 C1041 1.387 . S
C1042 H1059 0.931 . S
C1043 C1036 1.399 . S
C1043 C1040 1.487 . S
C1043 N1060 1.343 . S
H1044 C1016 0.931 . S
H1045 C1018 0.930 . S
H1046 C1020 0.930 . S
H1047 C1021 0.931 . S
H1048 C1023 0.931 . S
H1049 C1025 0.930 . S
H1050 C1027 0.930 . S
H1051 C1028 0.931 . S
H1052 C1030 0.931 . S
H1053 C1032 0.930 . S
H1054 C1034 0.930 . S
H1055 C1035 0.931 . S
H1056 C1037 0.931 . S
H1057 C1039 0.930 . S
H1058 C1041 0.930 . S
H1059 C1042 0.931 . S
N1060 C1022 1.343 . S
N1060 C1043 1.343 . S
N1061 C1029 1.343 . S
N1061 C1036 1.343 . S
C1062 C1063 1.375 . S
C1062 C1064 1.327 . S
C1062 H1087 0.950 . S
C1063 C1062 1.375 . S
C1063 C1079 1.335 1_655 S
C1064 C1062 1.327 . S
C1064 C1083 1.464 . S
C1064 H1088 0.950 . S
C1065 C1082 1.574 . S
C1065 C1084 1.368 1_455 S
C1065 H1089 0.949 . S
H1066 C1070 0.949 . S
C1067 C1068 1.349 1_455 S
C1067 C1069 1.327 . S
C1067 H1090 0.950 . S
C1068 C1067 1.349 1_655 S
C1068 C1080 1.349 . S
C1069 C1067 1.327 . S
C1069 C1085 1.429 1_455 S
C1069 H1091 0.950 . S
C1070 H1066 0.949 . S
C1070 C1078 1.574 . S
C1070 C1086 1.368 . S
H1071 C1079 0.950 . S
H1072 C1077 0.950 . S
H1073 C1078 0.949 . S
H1074 C1080 0.950 . S
H1075 C1081 0.950 . S
H1076 C1082 0.949 . S
C1077 H1072 0.950 . S
C1077 C1079 1.327 . S
C1077 C1083 1.364 1_455 S
C1078 C1070 1.574 . S
C1078 H1073 0.949 . S
C1078 C1084 1.368 . S
C1079 C1063 1.335 1_455 S
C1079 H1071 0.950 . S
C1079 C1077 1.327 . S
C1080 C1068 1.349 . S
C1080 H1074 0.950 . S
C1080 C1081 1.327 . S
C1081 H1075 0.950 . S
C1081 C1080 1.327 . S
C1081 C1085 1.429 . S
C1082 C1065 1.574 . S
C1082 H1076 0.949 . S
C1082 C1086 1.368 1_455 S
C1083 C1064 1.464 . S
C1083 C1077 1.364 1_655 S
C1083 C1084 1.554 . S
C1084 C1065 1.368 1_655 S
C1084 C1078 1.368 . S
C1084 C1083 1.554 . S
C1085 C1069 1.429 1_655 S
C1085 C1081 1.429 . S
C1085 C1086 1.523 . S
C1086 C1070 1.368 . S
C1086 C1082 1.368 1_655 S
C1086 C1085 1.523 . S
H1087 C1062 0.950 . S
H1088 C1064 0.950 . S
H1089 C1065 0.949 . S
H1090 C1067 0.950 . S
H1091 C1069 0.950 . S
C1092 C1093 1.349 . S
C1092 C1094 1.327 . S
C1092 H1117 0.950 . S
C1093 C1092 1.349 . S
C1093 C1109 1.349 . S
C1094 C1092 1.327 . S
C1094 C1113 1.429 . S
C1094 H1118 0.950 . S
C1095 C1112 1.574 . S
C1095 C1114 1.368 . S
C1095 H1119 0.949 . S
H1096 C1100 0.949 . S
C1097 C1098 1.349 . S
C1097 C1099 1.327 . S
C1097 H1120 0.950 . S
C1098 C1097 1.349 . S
C1098 C1110 1.349 . S
C1099 C1097 1.327 . S
C1099 C1115 1.429 . S
C1099 H1121 0.950 . S
C1100 H1096 0.949 . S
C1100 C1108 1.574 . S
C1100 C1116 1.368 . S
H1101 C1109 0.950 . S
H1102 C1107 0.950 . S
H1103 C1108 0.949 . S
H1104 C1110 0.950 . S
H1105 C1111 0.950 . S
H1106 C1112 0.949 . S
C1107 H1102 0.950 . S
C1107 C1109 1.327 . S
C1107 C1113 1.429 . S
C1108 C1100 1.574 . S
C1108 H1103 0.949 . S
C1108 C1114 1.368 . S
C1109 C1093 1.349 . S
C1109 H1101 0.950 . S
C1109 C1107 1.327 . S
C1110 C1098 1.349 . S
C1110 H1104 0.950 . S
C1110 C1111 1.327 . S
C1111 H1105 0.950 . S
C1111 C1110 1.327 . S
C1111 C1115 1.429 . S
C1112 C1095 1.574 . S
C1112 H1106 0.949 . S
C1112 C1116 1.368 . S
C1113 C1094 1.429 . S
C1113 C1107 1.429 . S
C1113 C1114 1.523 . S
C1114 C1095 1.368 . S
C1114 C1108 1.368 . S
C1114 C1113 1.523 . S
C1115 C1099 1.429 . S
C1115 C1111 1.429 . S
C1115 C1116 1.523 . S
C1116 C1100 1.368 . S
C1116 C1112 1.368 . S
C1116 C1115 1.523 . S
H1117 C1092 0.950 . S
H1118 C1094 0.950 . S
H1119 C1095 0.949 . S
H1120 C1097 0.950 . S
H1121 C1099 0.950 . S
C1122 C1123 1.349 1_565 S
C1122 C1124 1.327 . S
C1122 H1147 0.950 . S
C1123 C1122 1.349 1_545 S
C1123 C1139 1.349 . S
C1124 C1122 1.327 . S
C1124 C1143 1.429 1_565 S
C1124 H1148 0.950 . S
C1125 C1142 1.574 . S
C1125 C1144 1.368 . S
C1125 H1149 0.949 . S
H1126 C1130 0.949 . S
C1127 C1128 1.349 . S
C1127 C1129 1.327 . S
C1127 H1150 0.950 . S
C1128 C1127 1.349 . S
C1128 C1140 1.349 1_545 S
C1129 C1127 1.327 . S
C1129 C1145 1.429 . S
C1129 H1151 0.950 . S
C1130 H1126 0.949 . S
C1130 C1138 1.574 . S
C1130 C1146 1.368 1_565 S
H1131 C1139 0.950 . S
H1132 C1137 0.950 . S
H1133 C1138 0.949 . S
H1134 C1140 0.950 . S
H1135 C1141 0.950 . S
H1136 C1142 0.949 . S
C1137 H1132 0.950 . S
C1137 C1139 1.327 . S
C1137 C1143 1.429 . S
C1138 C1130 1.574 . S
C1138 H1133 0.949 . S
C1138 C1144 1.368 1_565 S
C1139 C1123 1.349 . S
C1139 H1131 0.950 . S
C1139 C1137 1.327 . S
C1140 C1128 1.349 1_565 S
C1140 H1134 0.950 . S
C1140 C1141 1.327 . S
C1141 H1135 0.950 . S
C1141 C1140 1.327 . S
C1141 C1145 1.429 1_565 S
C1142 C1125 1.574 . S
C1142 H1136 0.949 . S
C1142 C1146 1.368 . S
C1143 C1124 1.429 1_545 S
C1143 C1137 1.429 . S
C1143 C1144 1.523 . S
C1144 C1125 1.368 . S
C1144 C1138 1.368 1_545 S
C1144 C1143 1.523 . S
C1145 C1129 1.429 . S
C1145 C1141 1.429 1_545 S
C1145 C1146 1.523 . S
C1146 C1130 1.368 1_545 S
C1146 C1142 1.368 . S
C1146 C1145 1.523 . S
H1147 C1122 0.950 . S
H1148 C1124 0.950 . S
H1149 C1125 0.949 . S
H1150 C1127 0.950 . S
H1151 C1129 0.950 . S
C1152 C1153 1.347 1_545 S
C1152 C1154 1.327 . S
C1152 H1177 0.950 . S
C1153 C1152 1.347 1_565 S
C1153 C1169 1.354 . S
C1154 C1152 1.327 . S
C1154 C1173 1.391 1_545 S
C1154 H1178 0.950 . S
C1155 C1172 1.574 . S
C1155 C1174 1.425 . S
C1155 H1179 0.949 . S
H1156 C1160 0.949 . S
C1157 C1158 1.349 . S
C1157 C1159 1.327 . S
C1157 H1180 0.950 . S
C1158 C1157 1.349 . S
C1158 C1170 1.349 1_565 S
C1159 C1157 1.327 . S
C1159 C1175 1.429 . S
C1159 H1181 0.950 . S
C1160 H1156 0.949 . S
C1160 C1168 1.574 . S
C1160 C1176 1.368 1_545 S
H1161 C1169 0.950 . S
H1162 C1167 0.950 . S
H1163 C1168 0.949 . S
H1164 C1170 0.950 . S
H1165 C1171 0.950 . S
H1166 C1172 0.949 . S
C1167 H1162 0.950 . S
C1167 C1169 1.327 . S
C1167 C1173 1.444 . S
C1168 C1160 1.574 . S
C1168 H1163 0.949 . S
C1168 C1174 1.342 1_545 S
C1169 C1153 1.354 . S
C1169 H1161 0.950 . S
C1169 C1167 1.327 . S
C1170 C1158 1.349 1_545 S
C1170 H1164 0.950 . S
C1170 C1171 1.327 . S
C1171 H1165 0.950 . S
C1171 C1170 1.327 . S
C1171 C1175 1.429 1_545 S
C1172 C1155 1.574 . S
C1172 H1166 0.949 . S
C1172 C1176 1.368 . S
C1173 C1154 1.391 1_565 S
C1173 C1167 1.444 . S
C1173 C1174 1.513 . S
C1174 C1155 1.425 . S
C1174 C1168 1.342 1_565 S
C1174 C1173 1.513 . S
C1175 C1159 1.429 . S
C1175 C1171 1.429 1_565 S
C1175 C1176 1.523 . S
C1176 C1160 1.368 1_565 S
C1176 C1172 1.368 . S
C1176 C1175 1.523 . S
H1177 C1152 0.950 . S
H1178 C1154 0.950 . S
H1179 C1155 0.949 . S
H1180 C1157 0.950 . S
H1181 C1159 0.950 . S
C1182 C1183 1.349 1_655 S
C1182 C1184 1.327 . S
C1182 H1207 0.950 . S
C1183 C1182 1.349 1_455 S
C1183 C1199 1.349 . S
C1184 C1182 1.327 . S
C1184 C1203 1.429 1_655 S
C1184 H1208 0.950 . S
C1185 C1202 1.574 . S
C1185 C1204 1.368 . S
C1185 H1209 0.949 . S
H1186 C1190 0.949 . S
C1187 C1188 1.349 . S
C1187 C1189 1.327 . S
C1187 H1210 0.950 . S
C1188 C1187 1.349 . S
C1188 C1200 1.349 1_455 S
C1189 C1187 1.327 . S
C1189 C1205 1.429 . S
C1189 H1211 0.950 . S
C1190 H1186 0.949 . S
C1190 C1198 1.574 . S
C1190 C1206 1.368 1_655 S
H1191 C1199 0.950 . S
H1192 C1197 0.950 . S
H1193 C1198 0.949 . S
H1194 C1200 0.950 . S
H1195 C1201 0.950 . S
H1196 C1202 0.949 . S
C1197 H1192 0.950 . S
C1197 C1199 1.327 . S
C1197 C1203 1.429 . S
C1198 C1190 1.574 . S
C1198 H1193 0.949 . S
C1198 C1204 1.368 1_655 S
C1199 C1183 1.349 . S
C1199 H1191 0.950 . S
C1199 C1197 1.327 . S
C1200 C1188 1.349 1_655 S
C1200 H1194 0.950 . S
C1200 C1201 1.327 . S
C1201 H1195 0.950 . S
C1201 C1200 1.327 . S
C1201 C1205 1.429 1_655 S
C1202 C1185 1.574 . S
C1202 H1196 0.949 . S
C1202 C1206 1.368 . S
C1203 C1184 1.429 1_455 S
C1203 C1197 1.429 . S
C1203 C1204 1.523 . S
C1204 C1185 1.368 . S
C1204 C1198 1.368 1_455 S
C1204 C1203 1.523 . S
C1205 C1189 1.429 . S
C1205 C1201 1.429 1_455 S
C1205 C1206 1.523 . S
C1206 C1190 1.368 1_455 S
C1206 C1202 1.368 . S
C1206 C1205 1.523 . S
H1207 C1182 0.950 . S
H1208 C1184 0.950 . S
H1209 C1185 0.949 . S
H1210 C1187 0.950 . S
H1211 C1189 0.950 . S
C1212 C1213 1.349 . S
C1212 C1214 1.327 . S
C1212 H1237 0.950 . S
C1213 C1212 1.349 . S
C1213 C1229 1.349 . S
C1214 C1212 1.327 . S
C1214 C1233 1.429 . S
C1214 H1238 0.950 . S
C1215 C1232 1.574 . S
C1215 C1234 1.368 . S
C1215 H1239 0.949 . S
H1216 C1220 0.949 . S
C1217 C1218 1.349 . S
C1217 C1219 1.327 . S
C1217 H1240 0.950 . S
C1218 C1217 1.349 . S
C1218 C1230 1.349 . S
C1219 C1217 1.327 . S
C1219 C1235 1.429 . S
C1219 H1241 0.950 . S
C1220 H1216 0.949 . S
C1220 C1228 1.574 . S
C1220 C1236 1.368 . S
H1221 C1229 0.950 . S
H1222 C1227 0.950 . S
H1223 C1228 0.949 . S
H1224 C1230 0.950 . S
H1225 C1231 0.950 . S
H1226 C1232 0.949 . S
C1227 H1222 0.950 . S
C1227 C1229 1.327 . S
C1227 C1233 1.429 . S
C1228 C1220 1.574 . S
C1228 H1223 0.949 . S
C1228 C1234 1.368 . S
C1229 C1213 1.349 . S
C1229 H1221 0.950 . S
C1229 C1227 1.327 . S
C1230 C1218 1.349 . S
C1230 H1224 0.950 . S
C1230 C1231 1.327 . S
C1231 H1225 0.950 . S
C1231 C1230 1.327 . S
C1231 C1235 1.429 . S
C1232 C1215 1.574 . S
C1232 H1226 0.949 . S
C1232 C1236 1.368 . S
C1233 C1214 1.429 . S
C1233 C1227 1.429 . S
C1233 C1234 1.523 . S
C1234 C1215 1.368 . S
C1234 C1228 1.368 . S
C1234 C1233 1.523 . S
C1235 C1219 1.429 . S
C1235 C1231 1.429 . S
C1235 C1236 1.523 . S
C1236 C1220 1.368 . S
C1236 C1232 1.368 . S
C1236 C1235 1.523 . S
H1237 C1212 0.950 . S
H1238 C1214 0.950 . S
H1239 C1215 0.949 . S
H1240 C1217 0.950 . S
H1241 C1219 0.950 . S
C1242 C1243 1.349 1_655 S
C1242 C1244 1.327 . S
C1242 H1267 0.950 . S
C1243 C1242 1.349 1_455 S
C1243 C1259 1.349 . S
C1244 C1242 1.327 . S
C1244 C1263 1.429 1_655 S
C1244 H1268 0.950 . S
C1245 C1262 1.574 . S
C1245 C1264 1.368 . S
C1245 H1269 0.949 . S
H1246 C1250 0.949 . S
C1247 C1248 1.349 . S
C1247 C1249 1.327 . S
C1247 H1270 0.950 . S
C1248 C1247 1.349 . S
C1248 C1260 1.349 1_455 S
C1249 C1247 1.327 . S
C1249 C1265 1.429 . S
C1249 H1271 0.950 . S
C1250 H1246 0.949 . S
C1250 C1258 1.574 . S
C1250 C1266 1.368 1_655 S
H1251 C1259 0.950 . S
H1252 C1257 0.950 . S
H1253 C1258 0.949 . S
H1254 C1260 0.950 . S
H1255 C1261 0.950 . S
H1256 C1262 0.949 . S
C1257 H1252 0.950 . S
C1257 C1259 1.327 . S
C1257 C1263 1.429 . S
C1258 C1250 1.574 . S
C1258 H1253 0.949 . S
C1258 C1264 1.368 1_655 S
C1259 C1243 1.349 . S
C1259 H1251 0.950 . S
C1259 C1257 1.327 . S
C1260 C1248 1.349 1_655 S
C1260 H1254 0.950 . S
C1260 C1261 1.327 . S
C1261 H1255 0.950 . S
C1261 C1260 1.327 . S
C1261 C1265 1.429 1_655 S
C1262 C1245 1.574 . S
C1262 H1256 0.949 . S
C1262 C1266 1.368 . S
C1263 C1244 1.429 1_455 S
C1263 C1257 1.429 . S
C1263 C1264 1.523 . S
C1264 C1245 1.368 . S
C1264 C1258 1.368 1_455 S
C1264 C1263 1.523 . S
C1265 C1249 1.429 . S
C1265 C1261 1.429 1_455 S
C1265 C1266 1.523 . S
C1266 C1250 1.368 1_455 S
C1266 C1262 1.368 . S
C1266 C1265 1.523 . S
H1267 C1242 0.950 . S
H1268 C1244 0.950 . S
H1269 C1245 0.949 . S
H1270 C1247 0.950 . S
H1271 C1249 0.950 . S
C1272 C1273 1.349 . S
C1272 C1274 1.327 . S
C1272 H1297 0.950 . S
C1273 C1272 1.349 . S
C1273 C1289 1.349 . S
C1274 C1272 1.327 . S
C1274 C1293 1.429 . S
C1274 H1298 0.950 . S
C1275 C1292 1.574 . S
C1275 C1294 1.368 . S
C1275 H1299 0.949 . S
H1276 C1280 0.949 . S
C1277 C1278 1.349 . S
C1277 C1279 1.327 . S
C1277 H1300 0.950 . S
C1278 C1277 1.349 . S
C1278 C1290 1.349 . S
C1279 C1277 1.327 . S
C1279 C1295 1.429 . S
C1279 H1301 0.950 . S
C1280 H1276 0.949 . S
C1280 C1288 1.574 . S
C1280 C1296 1.368 . S
H1281 C1289 0.950 . S
H1282 C1287 0.950 . S
H1283 C1288 0.949 . S
H1284 C1290 0.950 . S
H1285 C1291 0.950 . S
H1286 C1292 0.949 . S
C1287 H1282 0.950 . S
C1287 C1289 1.327 . S
C1287 C1293 1.429 . S
C1288 C1280 1.574 . S
C1288 H1283 0.949 . S
C1288 C1294 1.368 . S
C1289 C1273 1.349 . S
C1289 H1281 0.950 . S
C1289 C1287 1.327 . S
C1290 C1278 1.349 . S
C1290 H1284 0.950 . S
C1290 C1291 1.327 . S
C1291 H1285 0.950 . S
C1291 C1290 1.327 . S
C1291 C1295 1.429 . S
C1292 C1275 1.574 . S
C1292 H1286 0.949 . S
C1292 C1296 1.368 . S
C1293 C1274 1.429 . S
C1293 C1287 1.429 . S
C1293 C1294 1.523 . S
C1294 C1275 1.368 . S
C1294 C1288 1.368 . S
C1294 C1293 1.523 . S
C1295 C1279 1.429 . S
C1295 C1291 1.429 . S
C1295 C1296 1.523 . S
C1296 C1280 1.368 . S
C1296 C1292 1.368 . S
C1296 C1295 1.523 . S
H1297 C1272 0.950 . S
H1298 C1274 0.950 . S
H1299 C1275 0.949 . S
H1300 C1277 0.950 . S
H1301 C1279 0.950 . S
C1302 C1303 1.349 1_545 S
C1302 C1304 1.327 . S
C1302 H1327 0.950 . S
C1303 C1302 1.349 1_565 S
C1303 C1319 1.349 . S
C1304 C1302 1.327 . S
C1304 C1323 1.429 1_545 S
C1304 H1328 0.950 . S
C1305 C1322 1.574 . S
C1305 C1324 1.368 . S
C1305 H1329 0.949 . S
H1306 C1310 0.949 . S
C1307 C1308 1.349 . S
C1307 C1309 1.327 . S
C1307 H1330 0.950 . S
C1308 C1307 1.349 . S
C1308 C1320 1.349 1_565 S
C1309 C1307 1.327 . S
C1309 C1325 1.429 . S
C1309 H1331 0.950 . S
C1310 H1306 0.949 . S
C1310 C1318 1.574 . S
C1310 C1326 1.368 1_545 S
H1311 C1319 0.950 . S
H1312 C1317 0.950 . S
H1313 C1318 0.949 . S
H1314 C1320 0.950 . S
H1315 C1321 0.950 . S
H1316 C1322 0.949 . S
C1317 H1312 0.950 . S
C1317 C1319 1.327 . S
C1317 C1323 1.429 . S
C1318 C1310 1.574 . S
C1318 H1313 0.949 . S
C1318 C1324 1.368 1_545 S
C1319 C1303 1.349 . S
C1319 H1311 0.950 . S
C1319 C1317 1.327 . S
C1320 C1308 1.349 1_545 S
C1320 H1314 0.950 . S
C1320 C1321 1.327 . S
C1321 H1315 0.950 . S
C1321 C1320 1.327 . S
C1321 C1325 1.429 1_545 S
C1322 C1305 1.574 . S
C1322 H1316 0.949 . S
C1322 C1326 1.368 . S
C1323 C1304 1.429 1_565 S
C1323 C1317 1.429 . S
C1323 C1324 1.523 . S
C1324 C1305 1.368 . S
C1324 C1318 1.368 1_565 S
C1324 C1323 1.523 . S
C1325 C1309 1.429 . S
C1325 C1321 1.429 1_565 S
C1325 C1326 1.523 . S
C1326 C1310 1.368 1_565 S
C1326 C1322 1.368 . S
C1326 C1325 1.523 . S
H1327 C1302 0.950 . S
H1328 C1304 0.950 . S
H1329 C1305 0.949 . S
H1330 C1307 0.950 . S
H1331 C1309 0.950 . S
C1332 C1333 1.349 1_565 S
C1332 C1334 1.327 . S
C1332 H1357 0.950 . S
C1333 C1332 1.349 1_545 S
C1333 C1349 1.349 . S
C1334 C1332 1.327 . S
C1334 C1353 1.429 1_565 S
C1334 H1358 0.950 . S
C1335 C1352 1.574 . S
C1335 C1354 1.368 . S
C1335 H1359 0.949 . S
H1336 C1340 0.949 . S
C1337 C1338 1.349 . S
C1337 C1339 1.327 . S
C1337 H1360 0.950 . S
C1338 C1337 1.349 . S
C1338 C1350 1.349 1_545 S
C1339 C1337 1.327 . S
C1339 C1355 1.429 . S
C1339 H1361 0.950 . S
C1340 H1336 0.949 . S
C1340 C1348 1.574 . S
C1340 C1356 1.368 1_565 S
H1341 C1349 0.950 . S
H1342 C1347 0.950 . S
H1343 C1348 0.949 . S
H1344 C1350 0.950 . S
H1345 C1351 0.950 . S
H1346 C1352 0.949 . S
C1347 H1342 0.950 . S
C1347 C1349 1.327 . S
C1347 C1353 1.429 . S
C1348 C1340 1.574 . S
C1348 H1343 0.949 . S
C1348 C1354 1.368 1_565 S
C1349 C1333 1.349 . S
C1349 H1341 0.950 . S
C1349 C1347 1.327 . S
C1350 C1338 1.349 1_565 S
C1350 H1344 0.950 . S
C1350 C1351 1.327 . S
C1351 H1345 0.950 . S
C1351 C1350 1.327 . S
C1351 C1355 1.429 1_565 S
C1352 C1335 1.574 . S
C1352 H1346 0.949 . S
C1352 C1356 1.368 . S
C1353 C1334 1.429 1_545 S
C1353 C1347 1.429 . S
C1353 C1354 1.523 . S
C1354 C1335 1.368 . S
C1354 C1348 1.368 1_545 S
C1354 C1353 1.523 . S
C1355 C1339 1.429 . S
C1355 C1351 1.429 1_545 S
C1355 C1356 1.523 . S
C1356 C1340 1.368 1_545 S
C1356 C1352 1.368 . S
C1356 C1355 1.523 . S
H1357 C1332 0.950 . S
H1358 C1334 0.950 . S
H1359 C1335 0.949 . S
H1360 C1337 0.950 . S
H1361 C1339 0.950 . S
C1362 C1363 1.349 1_455 S
C1362 C1364 1.327 . S
C1362 H1387 0.950 . S
C1363 C1362 1.349 1_655 S
C1363 C1379 1.349 . S
C1364 C1362 1.327 . S
C1364 C1383 1.429 1_455 S
C1364 H1388 0.950 . S
C1365 C1382 1.574 . S
C1365 C1384 1.368 . S
C1365 H1389 0.949 . S
H1366 C1370 0.949 . S
C1367 C1368 1.349 . S
C1367 C1369 1.327 . S
C1367 H1390 0.950 . S
C1368 C1367 1.349 . S
C1368 C1380 1.349 1_655 S
C1369 C1367 1.327 . S
C1369 C1385 1.429 . S
C1369 H1391 0.950 . S
C1370 H1366 0.949 . S
C1370 C1378 1.574 . S
C1370 C1386 1.368 1_455 S
H1371 C1379 0.950 . S
H1372 C1377 0.950 . S
H1373 C1378 0.949 . S
H1374 C1380 0.950 . S
H1375 C1381 0.950 . S
H1376 C1382 0.949 . S
C1377 H1372 0.950 . S
C1377 C1379 1.327 . S
C1377 C1383 1.429 . S
C1378 C1370 1.574 . S
C1378 H1373 0.949 . S
C1378 C1384 1.368 1_455 S
C1379 C1363 1.349 . S
C1379 H1371 0.950 . S
C1379 C1377 1.327 . S
C1380 C1368 1.349 1_455 S
C1380 H1374 0.950 . S
C1380 C1381 1.327 . S
C1381 H1375 0.950 . S
C1381 C1380 1.327 . S
C1381 C1385 1.429 1_455 S
C1382 C1365 1.574 . S
C1382 H1376 0.949 . S
C1382 C1386 1.368 . S
C1383 C1364 1.429 1_655 S
C1383 C1377 1.429 . S
C1383 C1384 1.523 . S
C1384 C1365 1.368 . S
C1384 C1378 1.368 1_655 S
C1384 C1383 1.523 . S
C1385 C1369 1.429 . S
C1385 C1381 1.429 1_655 S
C1385 C1386 1.523 . S
C1386 C1370 1.368 1_655 S
C1386 C1382 1.368 . S
C1386 C1385 1.523 . S
H1387 C1362 0.950 . S
H1388 C1364 0.950 . S
H1389 C1365 0.949 . S
H1390 C1367 0.950 . S
H1391 C1369 0.950 . S
C1392 C1393 1.349 . S
C1392 C1394 1.327 . S
C1392 H1417 0.950 . S
C1393 C1392 1.349 . S
C1393 C1409 1.349 . S
C1394 C1392 1.327 . S
C1394 C1413 1.429 . S
C1394 H1418 0.950 . S
C1395 C1412 1.574 . S
C1395 C1414 1.368 . S
C1395 H1419 0.949 . S
H1396 C1400 0.949 . S
C1397 C1398 1.349 . S
C1397 C1399 1.327 . S
C1397 H1420 0.950 . S
C1398 C1397 1.349 . S
C1398 C1410 1.349 . S
C1399 C1397 1.327 . S
C1399 C1415 1.429 . S
C1399 H1421 0.950 . S
C1400 H1396 0.949 . S
C1400 C1408 1.574 . S
C1400 C1416 1.368 . S
H1401 C1409 0.950 . S
H1402 C1407 0.950 . S
H1403 C1408 0.949 . S
H1404 C1410 0.950 . S
H1405 C1411 0.950 . S
H1406 C1412 0.949 . S
C1407 H1402 0.950 . S
C1407 C1409 1.327 . S
C1407 C1413 1.429 . S
C1408 C1400 1.574 . S
C1408 H1403 0.949 . S
C1408 C1414 1.368 . S
C1409 C1393 1.349 . S
C1409 H1401 0.950 . S
C1409 C1407 1.327 . S
C1410 C1398 1.349 . S
C1410 H1404 0.950 . S
C1410 C1411 1.327 . S
C1411 H1405 0.950 . S
C1411 C1410 1.327 . S
C1411 C1415 1.429 . S
C1412 C1395 1.574 . S
C1412 H1406 0.949 . S
C1412 C1416 1.368 . S
C1413 C1394 1.429 . S
C1413 C1407 1.429 . S
C1413 C1414 1.523 . S
C1414 C1395 1.368 . S
C1414 C1408 1.368 . S
C1414 C1413 1.523 . S
C1415 C1399 1.429 . S
C1415 C1411 1.429 . S
C1415 C1416 1.523 . S
C1416 C1400 1.368 . S
C1416 C1412 1.368 . S
C1416 C1415 1.523 . S
H1417 C1392 0.950 . S
H1418 C1394 0.950 . S
H1419 C1395 0.949 . S
H1420 C1397 0.950 . S
H1421 C1399 0.950 . S
C1422 C1423 1.349 . S
C1422 C1424 1.327 . S
C1422 H1447 0.950 . S
C1423 C1422 1.349 . S
C1423 C1439 1.349 . S
C1424 C1422 1.327 . S
C1424 C1443 1.429 . S
C1424 H1448 0.950 . S
C1425 C1442 1.574 . S
C1425 C1444 1.368 . S
C1425 H1449 0.949 . S
H1426 C1430 0.949 . S
C1427 C1428 1.349 . S
C1427 C1429 1.327 . S
C1427 H1450 0.950 . S
C1428 C1427 1.349 . S
C1428 C1440 1.349 . S
C1429 C1427 1.327 . S
C1429 C1445 1.429 . S
C1429 H1451 0.950 . S
C1430 H1426 0.949 . S
C1430 C1438 1.574 . S
C1430 C1446 1.368 . S
H1431 C1439 0.950 . S
H1432 C1437 0.950 . S
H1433 C1438 0.949 . S
H1434 C1440 0.950 . S
H1435 C1441 0.950 . S
H1436 C1442 0.949 . S
C1437 H1432 0.950 . S
C1437 C1439 1.327 . S
C1437 C1443 1.429 . S
C1438 C1430 1.574 . S
C1438 H1433 0.949 . S
C1438 C1444 1.368 . S
C1439 C1423 1.349 . S
C1439 H1431 0.950 . S
C1439 C1437 1.327 . S
C1440 C1428 1.349 . S
C1440 H1434 0.950 . S
C1440 C1441 1.327 . S
C1441 H1435 0.950 . S
C1441 C1440 1.327 . S
C1441 C1445 1.429 . S
C1442 C1425 1.574 . S
C1442 H1436 0.949 . S
C1442 C1446 1.368 . S
C1443 C1424 1.429 . S
C1443 C1437 1.429 . S
C1443 C1444 1.523 . S
C1444 C1425 1.368 . S
C1444 C1438 1.368 . S
C1444 C1443 1.523 . S
C1445 C1429 1.429 . S
C1445 C1441 1.429 . S
C1445 C1446 1.523 . S
C1446 C1430 1.368 . S
C1446 C1442 1.368 . S
C1446 C1445 1.523 . S
H1447 C1422 0.950 . S
H1448 C1424 0.950 . S
H1449 C1425 0.949 . S
H1450 C1427 0.950 . S
H1451 C1429 0.950 . S
C1452 C1453 1.349 . S
C1452 C1454 1.327 . S
C1452 H1477 0.950 . S
C1453 C1452 1.349 . S
C1453 C1469 1.349 . S
C1454 C1452 1.327 . S
C1454 C1473 1.429 . S
C1454 H1478 0.950 . S
C1455 C1472 1.574 . S
C1455 C1474 1.368 . S
C1455 H1479 0.949 . S
H1456 C1460 0.949 . S
C1457 C1458 1.349 . S
C1457 C1459 1.327 . S
C1457 H1480 0.950 . S
C1458 C1457 1.349 . S
C1458 C1470 1.349 . S
C1459 C1457 1.327 . S
C1459 C1475 1.429 . S
C1459 H1481 0.950 . S
C1460 H1456 0.949 . S
C1460 C1468 1.574 . S
C1460 C1476 1.368 . S
H1461 C1469 0.950 . S
H1462 C1467 0.950 . S
H1463 C1468 0.949 . S
H1464 C1470 0.950 . S
H1465 C1471 0.950 . S
H1466 C1472 0.949 . S
C1467 H1462 0.950 . S
C1467 C1469 1.327 . S
C1467 C1473 1.429 . S
C1468 C1460 1.574 . S
C1468 H1463 0.949 . S
C1468 C1474 1.368 . S
C1469 C1453 1.349 . S
C1469 H1461 0.950 . S
C1469 C1467 1.327 . S
C1470 C1458 1.349 . S
C1470 H1464 0.950 . S
C1470 C1471 1.327 . S
C1471 H1465 0.950 . S
C1471 C1470 1.327 . S
C1471 C1475 1.429 . S
C1472 C1455 1.574 . S
C1472 H1466 0.949 . S
C1472 C1476 1.368 . S
C1473 C1454 1.429 . S
C1473 C1467 1.429 . S
C1473 C1474 1.523 . S
C1474 C1455 1.368 . S
C1474 C1468 1.368 . S
C1474 C1473 1.523 . S
C1475 C1459 1.429 . S
C1475 C1471 1.429 . S
C1475 C1476 1.523 . S
C1476 C1460 1.368 . S
C1476 C1472 1.368 . S
C1476 C1475 1.523 . S
H1477 C1452 0.950 . S
H1478 C1454 0.950 . S
H1479 C1455 0.949 . S
H1480 C1457 0.950 . S
H1481 C1459 0.950 . S
C1482 C1483 1.349 . S
C1482 C1484 1.327 . S
C1482 H1507 0.950 . S
C1483 C1482 1.349 . S
C1483 C1499 1.349 . S
C1484 C1482 1.327 . S
C1484 C1503 1.429 . S
C1484 H1508 0.950 . S
C1485 C1502 1.574 . S
C1485 C1504 1.368 . S
C1485 H1509 0.949 . S
H1486 C1490 0.949 . S
C1487 C1488 1.349 . S
C1487 C1489 1.327 . S
C1487 H1510 0.950 . S
C1488 C1487 1.349 . S
C1488 C1500 1.349 . S
C1489 C1487 1.327 . S
C1489 C1505 1.429 . S
C1489 H1511 0.950 . S
C1490 H1486 0.949 . S
C1490 C1498 1.574 . S
C1490 C1506 1.368 . S
H1491 C1499 0.950 . S
H1492 C1497 0.950 . S
H1493 C1498 0.949 . S
H1494 C1500 0.950 . S
H1495 C1501 0.950 . S
H1496 C1502 0.949 . S
C1497 H1492 0.950 . S
C1497 C1499 1.327 . S
C1497 C1503 1.429 . S
C1498 C1490 1.574 . S
C1498 H1493 0.949 . S
C1498 C1504 1.368 . S
C1499 C1483 1.349 . S
C1499 H1491 0.950 . S
C1499 C1497 1.327 . S
C1500 C1488 1.349 . S
C1500 H1494 0.950 . S
C1500 C1501 1.327 . S
C1501 H1495 0.950 . S
C1501 C1500 1.327 . S
C1501 C1505 1.429 . S
C1502 C1485 1.574 . S
C1502 H1496 0.949 . S
C1502 C1506 1.368 . S
C1503 C1484 1.429 . S
C1503 C1497 1.429 . S
C1503 C1504 1.523 . S
C1504 C1485 1.368 . S
C1504 C1498 1.368 . S
C1504 C1503 1.523 . S
C1505 C1489 1.429 . S
C1505 C1501 1.429 . S
C1505 C1506 1.523 . S
C1506 C1490 1.368 . S
C1506 C1502 1.368 . S
C1506 C1505 1.523 . S
H1507 C1482 0.950 . S
H1508 C1484 0.950 . S
H1509 C1485 0.949 . S
H1510 C1487 0.950 . S
H1511 C1489 0.950 . S
C1512 C1513 1.349 . S
C1512 C1514 1.327 . S
C1512 H1537 0.950 . S
C1513 C1512 1.349 . S
C1513 C1529 1.349 . S
C1514 C1512 1.327 . S
C1514 C1533 1.429 . S
C1514 H1538 0.950 . S
C1515 C1532 1.574 . S
C1515 C1534 1.368 . S
C1515 H1539 0.949 . S
H1516 C1520 0.949 . S
C1517 C1518 1.349 . S
C1517 C1519 1.327 . S
C1517 H1540 0.950 . S
C1518 C1517 1.349 . S
C1518 C1530 1.349 . S
C1519 C1517 1.327 . S
C1519 C1535 1.429 . S
C1519 H1541 0.950 . S
C1520 H1516 0.949 . S
C1520 C1528 1.574 . S
C1520 C1536 1.368 . S
H1521 C1529 0.950 . S
H1522 C1527 0.950 . S
H1523 C1528 0.949 . S
H1524 C1530 0.950 . S
H1525 C1531 0.950 . S
H1526 C1532 0.949 . S
C1527 H1522 0.950 . S
C1527 C1529 1.327 . S
C1527 C1533 1.429 . S
C1528 C1520 1.574 . S
C1528 H1523 0.949 . S
C1528 C1534 1.368 . S
C1529 C1513 1.349 . S
C1529 H1521 0.950 . S
C1529 C1527 1.327 . S
C1530 C1518 1.349 . S
C1530 H1524 0.950 . S
C1530 C1531 1.327 . S
C1531 H1525 0.950 . S
C1531 C1530 1.327 . S
C1531 C1535 1.429 . S
C1532 C1515 1.574 . S
C1532 H1526 0.949 . S
C1532 C1536 1.368 . S
C1533 C1514 1.429 . S
C1533 C1527 1.429 . S
C1533 C1534 1.523 . S
C1534 C1515 1.368 . S
C1534 C1528 1.368 . S
C1534 C1533 1.523 . S
C1535 C1519 1.429 . S
C1535 C1531 1.429 . S
C1535 C1536 1.523 . S
C1536 C1520 1.368 . S
C1536 C1532 1.368 . S
C1536 C1535 1.523 . S
H1537 C1512 0.950 . S
H1538 C1514 0.950 . S
H1539 C1515 0.949 . S
H1540 C1517 0.950 . S
H1541 C1519 0.950 . S
C1542 C1543 1.349 . S
C1542 C1544 1.327 . S
C1542 H1567 0.950 . S
C1543 C1542 1.349 . S
C1543 C1559 1.349 . S
C1544 C1542 1.327 . S
C1544 C1563 1.429 . S
C1544 H1568 0.950 . S
C1545 C1562 1.574 . S
C1545 C1564 1.368 . S
C1545 H1569 0.949 . S
H1546 C1550 0.949 . S
C1547 C1548 1.349 . S
C1547 C1549 1.327 . S
C1547 H1570 0.950 . S
C1548 C1547 1.349 . S
C1548 C1560 1.349 . S
C1549 C1547 1.327 . S
C1549 C1565 1.429 . S
C1549 H1571 0.950 . S
C1550 H1546 0.949 . S
C1550 C1558 1.574 . S
C1550 C1566 1.368 . S
H1551 C1559 0.950 . S
H1552 C1557 0.950 . S
H1553 C1558 0.949 . S
H1554 C1560 0.950 . S
H1555 C1561 0.950 . S
H1556 C1562 0.949 . S
C1557 H1552 0.950 . S
C1557 C1559 1.327 . S
C1557 C1563 1.429 . S
C1558 C1550 1.574 . S
C1558 H1553 0.949 . S
C1558 C1564 1.368 . S
C1559 C1543 1.349 . S
C1559 H1551 0.950 . S
C1559 C1557 1.327 . S
C1560 C1548 1.349 . S
C1560 H1554 0.950 . S
C1560 C1561 1.327 . S
C1561 H1555 0.950 . S
C1561 C1560 1.327 . S
C1561 C1565 1.429 . S
C1562 C1545 1.574 . S
C1562 H1556 0.949 . S
C1562 C1566 1.368 . S
C1563 C1544 1.429 . S
C1563 C1557 1.429 . S
C1563 C1564 1.523 . S
C1564 C1545 1.368 . S
C1564 C1558 1.368 . S
C1564 C1563 1.523 . S
C1565 C1549 1.429 . S
C1565 C1561 1.429 . S
C1565 C1566 1.523 . S
C1566 C1550 1.368 . S
C1566 C1562 1.368 . S
C1566 C1565 1.523 . S
H1567 C1542 0.950 . S
H1568 C1544 0.950 . S
H1569 C1545 0.949 . S
H1570 C1547 0.950 . S
H1571 C1549 0.950 . S
C1572 C1573 1.349 . S
C1572 C1574 1.327 . S
C1572 H1597 0.950 . S
C1573 C1572 1.349 . S
C1573 C1589 1.349 . S
C1574 C1572 1.327 . S
C1574 C1593 1.429 . S
C1574 H1598 0.950 . S
C1575 C1592 1.574 . S
C1575 C1594 1.368 . S
C1575 H1599 0.949 . S
H1576 C1580 0.949 . S
C1577 C1578 1.349 . S
C1577 C1579 1.327 . S
C1577 H1600 0.950 . S
C1578 C1577 1.349 . S
C1578 C1590 1.349 . S
C1579 C1577 1.327 . S
C1579 C1595 1.429 . S
C1579 H1601 0.950 . S
C1580 H1576 0.949 . S
C1580 C1588 1.574 . S
C1580 C1596 1.368 . S
H1581 C1589 0.950 . S
H1582 C1587 0.950 . S
H1583 C1588 0.949 . S
H1584 C1590 0.950 . S
H1585 C1591 0.950 . S
H1586 C1592 0.949 . S
C1587 H1582 0.950 . S
C1587 C1589 1.327 . S
C1587 C1593 1.429 . S
C1588 C1580 1.574 . S
C1588 H1583 0.949 . S
C1588 C1594 1.368 . S
C1589 C1573 1.349 . S
C1589 H1581 0.950 . S
C1589 C1587 1.327 . S
C1590 C1578 1.349 . S
C1590 H1584 0.950 . S
C1590 C1591 1.327 . S
C1591 H1585 0.950 . S
C1591 C1590 1.327 . S
C1591 C1595 1.429 . S
C1592 C1575 1.574 . S
C1592 H1586 0.949 . S
C1592 C1596 1.368 . S
C1593 C1574 1.429 . S
C1593 C1587 1.429 . S
C1593 C1594 1.523 . S
C1594 C1575 1.368 . S
C1594 C1588 1.368 . S
C1594 C1593 1.523 . S
C1595 C1579 1.429 . S
C1595 C1591 1.429 . S
C1595 C1596 1.523 . S
C1596 C1580 1.368 . S
C1596 C1592 1.368 . S
C1596 C1595 1.523 . S
H1597 C1572 0.950 . S
H1598 C1574 0.950 . S
H1599 C1575 0.949 . S
H1600 C1577 0.950 . S
H1601 C1579 0.950 . S
C1602 C1603 1.349 . S
C1602 C1604 1.327 . S
C1602 H1627 0.950 . S
C1603 C1602 1.349 . S
C1603 C1619 1.349 . S
C1604 C1602 1.327 . S
C1604 C1623 1.429 . S
C1604 H1628 0.950 . S
C1605 C1622 1.574 . S
C1605 C1624 1.368 . S
C1605 H1629 0.949 . S
H1606 C1610 0.949 . S
C1607 C1608 1.349 . S
C1607 C1609 1.327 . S
C1607 H1630 0.950 . S
C1608 C1607 1.349 . S
C1608 C1620 1.349 . S
C1609 C1607 1.327 . S
C1609 C1625 1.429 . S
C1609 H1631 0.950 . S
C1610 H1606 0.949 . S
C1610 C1618 1.574 . S
C1610 C1626 1.368 . S
H1611 C1619 0.950 . S
H1612 C1617 0.950 . S
H1613 C1618 0.949 . S
H1614 C1620 0.950 . S
H1615 C1621 0.950 . S
H1616 C1622 0.949 . S
C1617 H1612 0.950 . S
C1617 C1619 1.327 . S
C1617 C1623 1.429 . S
C1618 C1610 1.574 . S
C1618 H1613 0.949 . S
C1618 C1624 1.368 . S
C1619 C1603 1.349 . S
C1619 H1611 0.950 . S
C1619 C1617 1.327 . S
C1620 C1608 1.349 . S
C1620 H1614 0.950 . S
C1620 C1621 1.327 . S
C1621 H1615 0.950 . S
C1621 C1620 1.327 . S
C1621 C1625 1.429 . S
C1622 C1605 1.574 . S
C1622 H1616 0.949 . S
C1622 C1626 1.368 . S
C1623 C1604 1.429 . S
C1623 C1617 1.429 . S
C1623 C1624 1.523 . S
C1624 C1605 1.368 . S
C1624 C1618 1.368 . S
C1624 C1623 1.523 . S
C1625 C1609 1.429 . S
C1625 C1621 1.429 . S
C1625 C1626 1.523 . S
C1626 C1610 1.368 . S
C1626 C1622 1.368 . S
C1626 C1625 1.523 . S
H1627 C1602 0.950 . S
H1628 C1604 0.950 . S
H1629 C1605 0.949 . S
H1630 C1607 0.950 . S
H1631 C1609 0.950 . S
C1632 C1633 1.349 . S
C1632 C1634 1.327 . S
C1632 H1657 0.950 . S
C1633 C1632 1.349 . S
C1633 C1649 1.349 . S
C1634 C1632 1.327 . S
C1634 C1653 1.429 . S
C1634 H1658 0.950 . S
C1635 C1652 1.574 . S
C1635 C1654 1.368 . S
C1635 H1659 0.949 . S
H1636 C1640 0.949 . S
C1637 C1638 1.349 . S
C1637 C1639 1.327 . S
C1637 H1660 0.950 . S
C1638 C1637 1.349 . S
C1638 C1650 1.349 . S
C1639 C1637 1.327 . S
C1639 C1655 1.429 . S
C1639 H1661 0.950 . S
C1640 H1636 0.949 . S
C1640 C1648 1.574 . S
C1640 C1656 1.368 . S
H1641 C1649 0.950 . S
H1642 C1647 0.950 . S
H1643 C1648 0.949 . S
H1644 C1650 0.950 . S
H1645 C1651 0.950 . S
H1646 C1652 0.949 . S
C1647 H1642 0.950 . S
C1647 C1649 1.327 . S
C1647 C1653 1.429 . S
C1648 C1640 1.574 . S
C1648 H1643 0.949 . S
C1648 C1654 1.368 . S
C1649 C1633 1.349 . S
C1649 H1641 0.950 . S
C1649 C1647 1.327 . S
C1650 C1638 1.349 . S
C1650 H1644 0.950 . S
C1650 C1651 1.327 . S
C1651 H1645 0.950 . S
C1651 C1650 1.327 . S
C1651 C1655 1.429 . S
C1652 C1635 1.574 . S
C1652 H1646 0.949 . S
C1652 C1656 1.368 . S
C1653 C1634 1.429 . S
C1653 C1647 1.429 . S
C1653 C1654 1.523 . S
C1654 C1635 1.368 . S
C1654 C1648 1.368 . S
C1654 C1653 1.523 . S
C1655 C1639 1.429 . S
C1655 C1651 1.429 . S
C1655 C1656 1.523 . S
C1656 C1640 1.368 . S
C1656 C1652 1.368 . S
C1656 C1655 1.523 . S
H1657 C1632 0.950 . S
H1658 C1634 0.950 . S
H1659 C1635 0.949 . S
H1660 C1637 0.950 . S
H1661 C1639 0.950 . S
C1662 C1663 1.349 . S
C1662 C1664 1.327 . S
C1662 H1687 0.950 . S
C1663 C1662 1.349 . S
C1663 C1679 1.349 . S
C1664 C1662 1.327 . S
C1664 C1683 1.429 . S
C1664 H1688 0.950 . S
C1665 C1682 1.574 . S
C1665 C1684 1.368 . S
C1665 H1689 0.949 . S
H1666 C1670 0.949 . S
C1667 C1668 1.349 . S
C1667 C1669 1.327 . S
C1667 H1690 0.950 . S
C1668 C1667 1.349 . S
C1668 C1680 1.349 . S
C1669 C1667 1.327 . S
C1669 C1685 1.429 . S
C1669 H1691 0.950 . S
C1670 H1666 0.949 . S
C1670 C1678 1.574 . S
C1670 C1686 1.368 . S
H1671 C1679 0.950 . S
H1672 C1677 0.950 . S
H1673 C1678 0.949 . S
H1674 C1680 0.950 . S
H1675 C1681 0.950 . S
H1676 C1682 0.949 . S
C1677 H1672 0.950 . S
C1677 C1679 1.327 . S
C1677 C1683 1.429 . S
C1678 C1670 1.574 . S
C1678 H1673 0.949 . S
C1678 C1684 1.368 . S
C1679 C1663 1.349 . S
C1679 H1671 0.950 . S
C1679 C1677 1.327 . S
C1680 C1668 1.349 . S
C1680 H1674 0.950 . S
C1680 C1681 1.327 . S
C1681 H1675 0.950 . S
C1681 C1680 1.327 . S
C1681 C1685 1.429 . S
C1682 C1665 1.574 . S
C1682 H1676 0.949 . S
C1682 C1686 1.368 . S
C1683 C1664 1.429 . S
C1683 C1677 1.429 . S
C1683 C1684 1.523 . S
C1684 C1665 1.368 . S
C1684 C1678 1.368 . S
C1684 C1683 1.523 . S
C1685 C1669 1.429 . S
C1685 C1681 1.429 . S
C1685 C1686 1.523 . S
C1686 C1670 1.368 . S
C1686 C1682 1.368 . S
C1686 C1685 1.523 . S
H1687 C1662 0.950 . S
H1688 C1664 0.950 . S
H1689 C1665 0.949 . S
H1690 C1667 0.950 . S
H1691 C1669 0.950 . S
C1692 C1693 1.349 . S
C1692 C1694 1.327 . S
C1692 H1717 0.950 . S
C1693 C1692 1.349 . S
C1693 C1709 1.349 . S
C1694 C1692 1.327 . S
C1694 C1713 1.429 . S
C1694 H1718 0.950 . S
C1695 C1712 1.574 . S
C1695 C1714 1.368 . S
C1695 H1719 0.949 . S
H1696 C1700 0.949 . S
C1697 C1698 1.349 . S
C1697 C1699 1.327 . S
C1697 H1720 0.950 . S
C1698 C1697 1.349 . S
C1698 C1710 1.349 . S
C1699 C1697 1.327 . S
C1699 C1715 1.429 . S
C1699 H1721 0.950 . S
C1700 H1696 0.949 . S
C1700 C1708 1.574 . S
C1700 C1716 1.368 . S
H1701 C1709 0.950 . S
H1702 C1707 0.950 . S
H1703 C1708 0.949 . S
H1704 C1710 0.950 . S
H1705 C1711 0.950 . S
H1706 C1712 0.949 . S
C1707 H1702 0.950 . S
C1707 C1709 1.327 . S
C1707 C1713 1.429 . S
C1708 C1700 1.574 . S
C1708 H1703 0.949 . S
C1708 C1714 1.368 . S
C1709 C1693 1.349 . S
C1709 H1701 0.950 . S
C1709 C1707 1.327 . S
C1710 C1698 1.349 . S
C1710 H1704 0.950 . S
C1710 C1711 1.327 . S
C1711 H1705 0.950 . S
C1711 C1710 1.327 . S
C1711 C1715 1.429 . S
C1712 C1695 1.574 . S
C1712 H1706 0.949 . S
C1712 C1716 1.368 . S
C1713 C1694 1.429 . S
C1713 C1707 1.429 . S
C1713 C1714 1.523 . S
C1714 C1695 1.368 . S
C1714 C1708 1.368 . S
C1714 C1713 1.523 . S
C1715 C1699 1.429 . S
C1715 C1711 1.429 . S
C1715 C1716 1.523 . S
C1716 C1700 1.368 . S
C1716 C1712 1.368 . S
C1716 C1715 1.523 . S
H1717 C1692 0.950 . S
H1718 C1694 0.950 . S
H1719 C1695 0.949 . S
H1720 C1697 0.950 . S
H1721 C1699 0.950 . S
C1722 C1723 1.349 . S
C1722 C1724 1.327 . S
C1722 H1747 0.950 . S
C1723 C1722 1.349 . S
C1723 C1739 1.349 . S
C1724 C1722 1.327 . S
C1724 C1743 1.429 . S
C1724 H1748 0.950 . S
C1725 C1742 1.574 . S
C1725 C1744 1.368 . S
C1725 H1749 0.949 . S
H1726 C1730 0.949 . S
C1727 C1728 1.349 . S
C1727 C1729 1.327 . S
C1727 H1750 0.950 . S
C1728 C1727 1.349 . S
C1728 C1740 1.349 . S
C1729 C1727 1.327 . S
C1729 C1745 1.429 . S
C1729 H1751 0.950 . S
C1730 H1726 0.949 . S
C1730 C1738 1.574 . S
C1730 C1746 1.368 . S
H1731 C1739 0.950 . S
H1732 C1737 0.950 . S
H1733 C1738 0.949 . S
H1734 C1740 0.950 . S
H1735 C1741 0.950 . S
H1736 C1742 0.949 . S
C1737 H1732 0.950 . S
C1737 C1739 1.327 . S
C1737 C1743 1.429 . S
C1738 C1730 1.574 . S
C1738 H1733 0.949 . S
C1738 C1744 1.368 . S
C1739 C1723 1.349 . S
C1739 H1731 0.950 . S
C1739 C1737 1.327 . S
C1740 C1728 1.349 . S
C1740 H1734 0.950 . S
C1740 C1741 1.327 . S
C1741 H1735 0.950 . S
C1741 C1740 1.327 . S
C1741 C1745 1.429 . S
C1742 C1725 1.574 . S
C1742 H1736 0.949 . S
C1742 C1746 1.368 . S
C1743 C1724 1.429 . S
C1743 C1737 1.429 . S
C1743 C1744 1.523 . S
C1744 C1725 1.368 . S
C1744 C1738 1.368 . S
C1744 C1743 1.523 . S
C1745 C1729 1.429 . S
C1745 C1741 1.429 . S
C1745 C1746 1.523 . S
C1746 C1730 1.368 . S
C1746 C1742 1.368 . S
C1746 C1745 1.523 . S
H1747 C1722 0.950 . S
H1748 C1724 0.950 . S
H1749 C1725 0.949 . S
H1750 C1727 0.950 . S
H1751 C1729 0.950 . S
C1752 C1753 1.349 . S
C1752 C1754 1.327 . S
C1752 H1777 0.950 . S
C1753 C1752 1.349 . S
C1753 C1769 1.349 . S
C1754 C1752 1.327 . S
C1754 C1773 1.429 . S
C1754 H1778 0.950 . S
C1755 C1772 1.574 . S
C1755 C1774 1.368 . S
C1755 H1779 0.949 . S
H1756 C1760 0.949 . S
C1757 C1758 1.349 . S
C1757 C1759 1.327 . S
C1757 H1780 0.950 . S
C1758 C1757 1.349 . S
C1758 C1770 1.349 . S
C1759 C1757 1.327 . S
C1759 C1775 1.429 . S
C1759 H1781 0.950 . S
C1760 H1756 0.949 . S
C1760 C1768 1.574 . S
C1760 C1776 1.368 . S
H1761 C1769 0.950 . S
H1762 C1767 0.950 . S
H1763 C1768 0.949 . S
H1764 C1770 0.950 . S
H1765 C1771 0.950 . S
H1766 C1772 0.949 . S
C1767 H1762 0.950 . S
C1767 C1769 1.327 . S
C1767 C1773 1.429 . S
C1768 C1760 1.574 . S
C1768 H1763 0.949 . S
C1768 C1774 1.368 . S
C1769 C1753 1.349 . S
C1769 H1761 0.950 . S
C1769 C1767 1.327 . S
C1770 C1758 1.349 . S
C1770 H1764 0.950 . S
C1770 C1771 1.327 . S
C1771 H1765 0.950 . S
C1771 C1770 1.327 . S
C1771 C1775 1.429 . S
C1772 C1755 1.574 . S
C1772 H1766 0.949 . S
C1772 C1776 1.368 . S
C1773 C1754 1.429 . S
C1773 C1767 1.429 . S
C1773 C1774 1.523 . S
C1774 C1755 1.368 . S
C1774 C1768 1.368 . S
C1774 C1773 1.523 . S
C1775 C1759 1.429 . S
C1775 C1771 1.429 . S
C1775 C1776 1.523 . S
C1776 C1760 1.368 . S
C1776 C1772 1.368 . S
C1776 C1775 1.523 . S
H1777 C1752 0.950 . S
H1778 C1754 0.950 . S
H1779 C1755 0.949 . S
H1780 C1757 0.950 . S
H1781 C1759 0.950 . S
C1782 C1783 1.349 . S
C1782 C1784 1.327 . S
C1782 H1807 0.950 . S
C1783 C1782 1.349 . S
C1783 C1799 1.349 . S
C1784 C1782 1.327 . S
C1784 C1803 1.429 . S
C1784 H1808 0.950 . S
C1785 C1802 1.574 . S
C1785 C1804 1.368 . S
C1785 H1809 0.949 . S
H1786 C1790 0.949 . S
C1787 C1788 1.349 . S
C1787 C1789 1.327 . S
C1787 H1810 0.950 . S
C1788 C1787 1.349 . S
C1788 C1800 1.349 . S
C1789 C1787 1.327 . S
C1789 C1805 1.429 . S
C1789 H1811 0.950 . S
C1790 H1786 0.949 . S
C1790 C1798 1.574 . S
C1790 C1806 1.368 . S
H1791 C1799 0.950 . S
H1792 C1797 0.950 . S
H1793 C1798 0.949 . S
H1794 C1800 0.950 . S
H1795 C1801 0.950 . S
H1796 C1802 0.949 . S
C1797 H1792 0.950 . S
C1797 C1799 1.327 . S
C1797 C1803 1.429 . S
C1798 C1790 1.574 . S
C1798 H1793 0.949 . S
C1798 C1804 1.368 . S
C1799 C1783 1.349 . S
C1799 H1791 0.950 . S
C1799 C1797 1.327 . S
C1800 C1788 1.349 . S
C1800 H1794 0.950 . S
C1800 C1801 1.327 . S
C1801 H1795 0.950 . S
C1801 C1800 1.327 . S
C1801 C1805 1.429 . S
C1802 C1785 1.574 . S
C1802 H1796 0.949 . S
C1802 C1806 1.368 . S
C1803 C1784 1.429 . S
C1803 C1797 1.429 . S
C1803 C1804 1.523 . S
C1804 C1785 1.368 . S
C1804 C1798 1.368 . S
C1804 C1803 1.523 . S
C1805 C1789 1.429 . S
C1805 C1801 1.429 . S
C1805 C1806 1.523 . S
C1806 C1790 1.368 . S
C1806 C1802 1.368 . S
C1806 C1805 1.523 . S
H1807 C1782 0.950 . S
H1808 C1784 0.950 . S
H1809 C1785 0.949 . S
H1810 C1787 0.950 . S
H1811 C1789 0.950 . S
C1812 C1813 1.349 . S
C1812 C1814 1.327 . S
C1812 H1837 0.950 . S
C1813 C1812 1.349 . S
C1813 C1829 1.349 . S
C1814 C1812 1.327 . S
C1814 C1833 1.429 . S
C1814 H1838 0.950 . S
C1815 C1832 1.574 . S
C1815 C1834 1.368 . S
C1815 H1839 0.949 . S
H1816 C1820 0.949 . S
C1817 C1818 1.349 . S
C1817 C1819 1.327 . S
C1817 H1840 0.950 . S
C1818 C1817 1.349 . S
C1818 C1830 1.349 . S
C1819 C1817 1.327 . S
C1819 C1835 1.429 . S
C1819 H1841 0.950 . S
C1820 H1816 0.949 . S
C1820 C1828 1.574 . S
C1820 C1836 1.368 . S
H1821 C1829 0.950 . S
H1822 C1827 0.950 . S
H1823 C1828 0.949 . S
H1824 C1830 0.950 . S
H1825 C1831 0.950 . S
H1826 C1832 0.949 . S
C1827 H1822 0.950 . S
C1827 C1829 1.327 . S
C1827 C1833 1.429 . S
C1828 C1820 1.574 . S
C1828 H1823 0.949 . S
C1828 C1834 1.368 . S
C1829 C1813 1.349 . S
C1829 H1821 0.950 . S
C1829 C1827 1.327 . S
C1830 C1818 1.349 . S
C1830 H1824 0.950 . S
C1830 C1831 1.327 . S
C1831 H1825 0.950 . S
C1831 C1830 1.327 . S
C1831 C1835 1.429 . S
C1832 C1815 1.574 . S
C1832 H1826 0.949 . S
C1832 C1836 1.368 . S
C1833 C1814 1.429 . S
C1833 C1827 1.429 . S
C1833 C1834 1.523 . S
C1834 C1815 1.368 . S
C1834 C1828 1.368 . S
C1834 C1833 1.523 . S
C1835 C1819 1.429 . S
C1835 C1831 1.429 . S
C1835 C1836 1.523 . S
C1836 C1820 1.368 . S
C1836 C1832 1.368 . S
C1836 C1835 1.523 . S
H1837 C1812 0.950 . S
H1838 C1814 0.950 . S
H1839 C1815 0.949 . S
H1840 C1817 0.950 . S
H1841 C1819 0.950 . S
C1842 C1843 1.349 . S
C1842 C1844 1.327 . S
C1842 H1867 0.950 . S
C1843 C1842 1.349 . S
C1843 C1859 1.349 . S
C1844 C1842 1.327 . S
C1844 C1863 1.429 . S
C1844 H1868 0.950 . S
C1845 C1862 1.574 . S
C1845 C1864 1.368 . S
C1845 H1869 0.949 . S
H1846 C1850 0.949 . S
C1847 C1848 1.349 . S
C1847 C1849 1.327 . S
C1847 H1870 0.950 . S
C1848 C1847 1.349 . S
C1848 C1860 1.349 . S
C1849 C1847 1.327 . S
C1849 C1865 1.429 . S
C1849 H1871 0.950 . S
C1850 H1846 0.949 . S
C1850 C1858 1.574 . S
C1850 C1866 1.368 . S
H1851 C1859 0.950 . S
H1852 C1857 0.950 . S
H1853 C1858 0.949 . S
H1854 C1860 0.950 . S
H1855 C1861 0.950 . S
H1856 C1862 0.949 . S
C1857 H1852 0.950 . S
C1857 C1859 1.327 . S
C1857 C1863 1.429 . S
C1858 C1850 1.574 . S
C1858 H1853 0.949 . S
C1858 C1864 1.368 . S
C1859 C1843 1.349 . S
C1859 H1851 0.950 . S
C1859 C1857 1.327 . S
C1860 C1848 1.349 . S
C1860 H1854 0.950 . S
C1860 C1861 1.327 . S
C1861 H1855 0.950 . S
C1861 C1860 1.327 . S
C1861 C1865 1.429 . S
C1862 C1845 1.574 . S
C1862 H1856 0.949 . S
C1862 C1866 1.368 . S
C1863 C1844 1.429 . S
C1863 C1857 1.429 . S
C1863 C1864 1.523 . S
C1864 C1845 1.368 . S
C1864 C1858 1.368 . S
C1864 C1863 1.523 . S
C1865 C1849 1.429 . S
C1865 C1861 1.429 . S
C1865 C1866 1.523 . S
C1866 C1850 1.368 . S
C1866 C1862 1.368 . S
C1866 C1865 1.523 . S
H1867 C1842 0.950 . S
H1868 C1844 0.950 . S
H1869 C1845 0.949 . S
H1870 C1847 0.950 . S
H1871 C1849 0.950 . S
C1872 C1873 1.349 . S
C1872 C1874 1.327 . S
C1872 H1897 0.950 . S
C1873 C1872 1.349 . S
C1873 C1889 1.349 . S
C1874 C1872 1.327 . S
C1874 C1893 1.429 . S
C1874 H1898 0.950 . S
C1875 C1892 1.574 . S
C1875 C1894 1.368 . S
C1875 H1899 0.949 . S
H1876 C1880 0.949 . S
C1877 C1878 1.349 . S
C1877 C1879 1.327 . S
C1877 H1900 0.950 . S
C1878 C1877 1.349 . S
C1878 C1890 1.349 . S
C1879 C1877 1.327 . S
C1879 C1895 1.429 . S
C1879 H1901 0.950 . S
C1880 H1876 0.949 . S
C1880 C1888 1.574 . S
C1880 C1896 1.368 . S
H1881 C1889 0.950 . S
H1882 C1887 0.950 . S
H1883 C1888 0.949 . S
H1884 C1890 0.950 . S
H1885 C1891 0.950 . S
H1886 C1892 0.949 . S
C1887 H1882 0.950 . S
C1887 C1889 1.327 . S
C1887 C1893 1.429 . S
C1888 C1880 1.574 . S
C1888 H1883 0.949 . S
C1888 C1894 1.368 . S
C1889 C1873 1.349 . S
C1889 H1881 0.950 . S
C1889 C1887 1.327 . S
C1890 C1878 1.349 . S
C1890 H1884 0.950 . S
C1890 C1891 1.327 . S
C1891 H1885 0.950 . S
C1891 C1890 1.327 . S
C1891 C1895 1.429 . S
C1892 C1875 1.574 . S
C1892 H1886 0.949 . S
C1892 C1896 1.368 . S
C1893 C1874 1.429 . S
C1893 C1887 1.429 . S
C1893 C1894 1.523 . S
C1894 C1875 1.368 . S
C1894 C1888 1.368 . S
C1894 C1893 1.523 . S
C1895 C1879 1.429 . S
C1895 C1891 1.429 . S
C1895 C1896 1.523 . S
C1896 C1880 1.368 . S
C1896 C1892 1.368 . S
C1896 C1895 1.523 . S
H1897 C1872 0.950 . S
H1898 C1874 0.950 . S
H1899 C1875 0.949 . S
H1900 C1877 0.950 . S
H1901 C1879 0.950 . S
C1902 C1903 1.349 . S
C1902 C1904 1.327 . S
C1902 H1927 0.950 . S
C1903 C1902 1.349 . S
C1903 C1919 1.349 . S
C1904 C1902 1.327 . S
C1904 C1923 1.429 . S
C1904 H1928 0.950 . S
C1905 C1922 1.574 . S
C1905 C1924 1.368 . S
C1905 H1929 0.949 . S
H1906 C1910 0.949 . S
C1907 C1908 1.349 . S
C1907 C1909 1.327 . S
C1907 H1930 0.950 . S
C1908 C1907 1.349 . S
C1908 C1920 1.349 . S
C1909 C1907 1.327 . S
C1909 C1925 1.429 . S
C1909 H1931 0.950 . S
C1910 H1906 0.949 . S
C1910 C1918 1.574 . S
C1910 C1926 1.368 . S
H1911 C1919 0.950 . S
H1912 C1917 0.950 . S
H1913 C1918 0.949 . S
H1914 C1920 0.950 . S
H1915 C1921 0.950 . S
H1916 C1922 0.949 . S
C1917 H1912 0.950 . S
C1917 C1919 1.327 . S
C1917 C1923 1.429 . S
C1918 C1910 1.574 . S
C1918 H1913 0.949 . S
C1918 C1924 1.368 . S
C1919 C1903 1.349 . S
C1919 H1911 0.950 . S
C1919 C1917 1.327 . S
C1920 C1908 1.349 . S
C1920 H1914 0.950 . S
C1920 C1921 1.327 . S
C1921 H1915 0.950 . S
C1921 C1920 1.327 . S
C1921 C1925 1.429 . S
C1922 C1905 1.574 . S
C1922 H1916 0.949 . S
C1922 C1926 1.368 . S
C1923 C1904 1.429 . S
C1923 C1917 1.429 . S
C1923 C1924 1.523 . S
C1924 C1905 1.368 . S
C1924 C1918 1.368 . S
C1924 C1923 1.523 . S
C1925 C1909 1.429 . S
C1925 C1921 1.429 . S
C1925 C1926 1.523 . S
C1926 C1910 1.368 . S
C1926 C1922 1.368 . S
C1926 C1925 1.523 . S
H1927 C1902 0.950 . S
H1928 C1904 0.950 . S
H1929 C1905 0.949 . S
H1930 C1907 0.950 . S
H1931 C1909 0.950 . S
C1932 C1933 1.349 . S
C1932 C1934 1.327 . S
C1932 H1957 0.950 . S
C1933 C1932 1.349 . S
C1933 C1949 1.349 . S
C1934 C1932 1.327 . S
C1934 C1953 1.429 . S
C1934 H1958 0.950 . S
C1935 C1952 1.574 . S
C1935 C1954 1.368 . S
C1935 H1959 0.949 . S
H1936 C1940 0.949 . S
C1937 C1938 1.349 . S
C1937 C1939 1.327 . S
C1937 H1960 0.950 . S
C1938 C1937 1.349 . S
C1938 C1950 1.349 . S
C1939 C1937 1.327 . S
C1939 C1955 1.429 . S
C1939 H1961 0.950 . S
C1940 H1936 0.949 . S
C1940 C1948 1.574 . S
C1940 C1956 1.368 . S
H1941 C1949 0.950 . S
H1942 C1947 0.950 . S
H1943 C1948 0.949 . S
H1944 C1950 0.950 . S
H1945 C1951 0.950 . S
H1946 C1952 0.949 . S
C1947 H1942 0.950 . S
C1947 C1949 1.327 . S
C1947 C1953 1.429 . S
C1948 C1940 1.574 . S
C1948 H1943 0.949 . S
C1948 C1954 1.368 . S
C1949 C1933 1.349 . S
C1949 H1941 0.950 . S
C1949 C1947 1.327 . S
C1950 C1938 1.349 . S
C1950 H1944 0.950 . S
C1950 C1951 1.327 . S
C1951 H1945 0.950 . S
C1951 C1950 1.327 . S
C1951 C1955 1.429 . S
C1952 C1935 1.574 . S
C1952 H1946 0.949 . S
C1952 C1956 1.368 . S
C1953 C1934 1.429 . S
C1953 C1947 1.429 . S
C1953 C1954 1.523 . S
C1954 C1935 1.368 . S
C1954 C1948 1.368 . S
C1954 C1953 1.523 . S
C1955 C1939 1.429 . S
C1955 C1951 1.429 . S
C1955 C1956 1.523 . S
C1956 C1940 1.368 . S
C1956 C1952 1.368 . S
C1956 C1955 1.523 . S
H1957 C1932 0.950 . S
H1958 C1934 0.950 . S
H1959 C1935 0.949 . S
H1960 C1937 0.950 . S
H1961 C1939 0.950 . S
C1962 C1963 1.349 . S
C1962 C1964 1.327 . S
C1962 H1987 0.950 . S
C1963 C1962 1.349 . S
C1963 C1979 1.349 . S
C1964 C1962 1.327 . S
C1964 C1983 1.429 . S
C1964 H1988 0.950 . S
C1965 C1982 1.574 . S
C1965 C1984 1.368 . S
C1965 H1989 0.949 . S
H1966 C1970 0.949 . S
C1967 C1968 1.349 . S
C1967 C1969 1.327 . S
C1967 H1990 0.950 . S
C1968 C1967 1.349 . S
C1968 C1980 1.349 . S
C1969 C1967 1.327 . S
C1969 C1985 1.429 . S
C1969 H1991 0.950 . S
C1970 H1966 0.949 . S
C1970 C1978 1.574 . S
C1970 C1986 1.368 . S
H1971 C1979 0.950 . S
H1972 C1977 0.950 . S
H1973 C1978 0.949 . S
H1974 C1980 0.950 . S
H1975 C1981 0.950 . S
H1976 C1982 0.949 . S
C1977 H1972 0.950 . S
C1977 C1979 1.327 . S
C1977 C1983 1.429 . S
C1978 C1970 1.574 . S
C1978 H1973 0.949 . S
C1978 C1984 1.368 . S
C1979 C1963 1.349 . S
C1979 H1971 0.950 . S
C1979 C1977 1.327 . S
C1980 C1968 1.349 . S
C1980 H1974 0.950 . S
C1980 C1981 1.327 . S
C1981 H1975 0.950 . S
C1981 C1980 1.327 . S
C1981 C1985 1.429 . S
C1982 C1965 1.574 . S
C1982 H1976 0.949 . S
C1982 C1986 1.368 . S
C1983 C1964 1.429 . S
C1983 C1977 1.429 . S
C1983 C1984 1.523 . S
C1984 C1965 1.368 . S
C1984 C1978 1.368 . S
C1984 C1983 1.523 . S
C1985 C1969 1.429 . S
C1985 C1981 1.429 . S
C1985 C1986 1.523 . S
C1986 C1970 1.368 . S
C1986 C1982 1.368 . S
C1986 C1985 1.523 . S
H1987 C1962 0.950 . S
H1988 C1964 0.950 . S
H1989 C1965 0.949 . S
H1990 C1967 0.950 . S
H1991 C1969 0.950 . S
C1992 C1993 1.349 . S
C1992 C1994 1.327 . S
C1992 H2017 0.950 . S
C1993 C1992 1.349 . S
C1993 C2009 1.349 . S
C1994 C1992 1.327 . S
C1994 C2013 1.429 . S
C1994 H2018 0.950 . S
C1995 C2012 1.574 . S
C1995 C2014 1.368 . S
C1995 H2019 0.949 . S
H1996 C2000 0.949 . S
C1997 C1998 1.349 . S
C1997 C1999 1.327 . S
C1997 H2020 0.950 . S
C1998 C1997 1.349 . S
C1998 C2010 1.349 . S
C1999 C1997 1.327 . S
C1999 C2015 1.429 . S
C1999 H2021 0.950 . S
C2000 H1996 0.949 . S
C2000 C2008 1.574 . S
C2000 C2016 1.368 . S
H2001 C2009 0.950 . S
H2002 C2007 0.950 . S
H2003 C2008 0.949 . S
H2004 C2010 0.950 . S
H2005 C2011 0.950 . S
H2006 C2012 0.949 . S
C2007 H2002 0.950 . S
C2007 C2009 1.327 . S
C2007 C2013 1.429 . S
C2008 C2000 1.574 . S
C2008 H2003 0.949 . S
C2008 C2014 1.368 . S
C2009 C1993 1.349 . S
C2009 H2001 0.950 . S
C2009 C2007 1.327 . S
C2010 C1998 1.349 . S
C2010 H2004 0.950 . S
C2010 C2011 1.327 . S
C2011 H2005 0.950 . S
C2011 C2010 1.327 . S
C2011 C2015 1.429 . S
C2012 C1995 1.574 . S
C2012 H2006 0.949 . S
C2012 C2016 1.368 . S
C2013 C1994 1.429 . S
C2013 C2007 1.429 . S
C2013 C2014 1.523 . S
C2014 C1995 1.368 . S
C2014 C2008 1.368 . S
C2014 C2013 1.523 . S
C2015 C1999 1.429 . S
C2015 C2011 1.429 . S
C2015 C2016 1.523 . S
C2016 C2000 1.368 . S
C2016 C2012 1.368 . S
C2016 C2015 1.523 . S
H2017 C1992 0.950 . S
H2018 C1994 0.950 . S
H2019 C1995 0.949 . S
H2020 C1997 0.950 . S
H2021 C1999 0.950 . S
C2022 C2023 1.349 . S
C2022 C2024 1.327 . S
C2022 H2047 0.950 . S
C2023 C2022 1.349 . S
C2023 C2039 1.349 . S
C2024 C2022 1.327 . S
C2024 C2043 1.429 . S
C2024 H2048 0.950 . S
C2025 C2042 1.574 . S
C2025 C2044 1.368 . S
C2025 H2049 0.949 . S
H2026 C2030 0.949 . S
C2027 C2028 1.349 . S
C2027 C2029 1.327 . S
C2027 H2050 0.950 . S
C2028 C2027 1.349 . S
C2028 C2040 1.349 . S
C2029 C2027 1.327 . S
C2029 C2045 1.429 . S
C2029 H2051 0.950 . S
C2030 H2026 0.949 . S
C2030 C2038 1.574 . S
C2030 C2046 1.368 . S
H2031 C2039 0.950 . S
H2032 C2037 0.950 . S
H2033 C2038 0.949 . S
H2034 C2040 0.950 . S
H2035 C2041 0.950 . S
H2036 C2042 0.949 . S
C2037 H2032 0.950 . S
C2037 C2039 1.327 . S
C2037 C2043 1.429 . S
C2038 C2030 1.574 . S
C2038 H2033 0.949 . S
C2038 C2044 1.368 . S
C2039 C2023 1.349 . S
C2039 H2031 0.950 . S
C2039 C2037 1.327 . S
C2040 C2028 1.349 . S
C2040 H2034 0.950 . S
C2040 C2041 1.327 . S
C2041 H2035 0.950 . S
C2041 C2040 1.327 . S
C2041 C2045 1.429 . S
C2042 C2025 1.574 . S
C2042 H2036 0.949 . S
C2042 C2046 1.368 . S
C2043 C2024 1.429 . S
C2043 C2037 1.429 . S
C2043 C2044 1.523 . S
C2044 C2025 1.368 . S
C2044 C2038 1.368 . S
C2044 C2043 1.523 . S
C2045 C2029 1.429 . S
C2045 C2041 1.429 . S
C2045 C2046 1.523 . S
C2046 C2030 1.368 . S
C2046 C2042 1.368 . S
C2046 C2045 1.523 . S
H2047 C2022 0.950 . S
H2048 C2024 0.950 . S
H2049 C2025 0.949 . S
H2050 C2027 0.950 . S
H2051 C2029 0.950 . S
C2052 C2053 1.349 . S
C2052 C2054 1.327 . S
C2052 H2077 0.950 . S
C2053 C2052 1.349 . S
C2053 C2069 1.349 . S
C2054 C2052 1.327 . S
C2054 C2073 1.429 . S
C2054 H2078 0.950 . S
C2055 C2072 1.574 . S
C2055 C2074 1.368 . S
C2055 H2079 0.949 . S
H2056 C2060 0.949 . S
C2057 C2058 1.349 . S
C2057 C2059 1.327 . S
C2057 H2080 0.950 . S
C2058 C2057 1.349 . S
C2058 C2070 1.349 . S
C2059 C2057 1.327 . S
C2059 C2075 1.429 . S
C2059 H2081 0.950 . S
C2060 H2056 0.949 . S
C2060 C2068 1.574 . S
C2060 C2076 1.368 . S
H2061 C2069 0.950 . S
H2062 C2067 0.950 . S
H2063 C2068 0.949 . S
H2064 C2070 0.950 . S
H2065 C2071 0.950 . S
H2066 C2072 0.949 . S
C2067 H2062 0.950 . S
C2067 C2069 1.327 . S
C2067 C2073 1.429 . S
C2068 C2060 1.574 . S
C2068 H2063 0.949 . S
C2068 C2074 1.368 . S
C2069 C2053 1.349 . S
C2069 H2061 0.950 . S
C2069 C2067 1.327 . S
C2070 C2058 1.349 . S
C2070 H2064 0.950 . S
C2070 C2071 1.327 . S
C2071 H2065 0.950 . S
C2071 C2070 1.327 . S
C2071 C2075 1.429 . S
C2072 C2055 1.574 . S
C2072 H2066 0.949 . S
C2072 C2076 1.368 . S
C2073 C2054 1.429 . S
C2073 C2067 1.429 . S
C2073 C2074 1.523 . S
C2074 C2055 1.368 . S
C2074 C2068 1.368 . S
C2074 C2073 1.523 . S
C2075 C2059 1.429 . S
C2075 C2071 1.429 . S
C2075 C2076 1.523 . S
C2076 C2060 1.368 . S
C2076 C2072 1.368 . S
C2076 C2075 1.523 . S
H2077 C2052 0.950 . S
H2078 C2054 0.950 . S
H2079 C2055 0.949 . S
H2080 C2057 0.950 . S
H2081 C2059 0.950 . S
C2082 C2083 1.349 . S
C2082 C2084 1.327 . S
C2082 H2107 0.950 . S
C2083 C2082 1.349 . S
C2083 C2099 1.349 . S
C2084 C2082 1.327 . S
C2084 C2103 1.429 . S
C2084 H2108 0.950 . S
C2085 C2102 1.574 . S
C2085 C2104 1.368 . S
C2085 H2109 0.949 . S
H2086 C2090 0.949 . S
C2087 C2088 1.349 . S
C2087 C2089 1.327 . S
C2087 H2110 0.950 . S
C2088 C2087 1.349 . S
C2088 C2100 1.349 . S
C2089 C2087 1.327 . S
C2089 C2105 1.429 . S
C2089 H2111 0.950 . S
C2090 H2086 0.949 . S
C2090 C2098 1.574 . S
C2090 C2106 1.368 . S
H2091 C2099 0.950 . S
H2092 C2097 0.950 . S
H2093 C2098 0.949 . S
H2094 C2100 0.950 . S
H2095 C2101 0.950 . S
H2096 C2102 0.949 . S
C2097 H2092 0.950 . S
C2097 C2099 1.327 . S
C2097 C2103 1.429 . S
C2098 C2090 1.574 . S
C2098 H2093 0.949 . S
C2098 C2104 1.368 . S
C2099 C2083 1.349 . S
C2099 H2091 0.950 . S
C2099 C2097 1.327 . S
C2100 C2088 1.349 . S
C2100 H2094 0.950 . S
C2100 C2101 1.327 . S
C2101 H2095 0.950 . S
C2101 C2100 1.327 . S
C2101 C2105 1.429 . S
C2102 C2085 1.574 . S
C2102 H2096 0.949 . S
C2102 C2106 1.368 . S
C2103 C2084 1.429 . S
C2103 C2097 1.429 . S
C2103 C2104 1.523 . S
C2104 C2085 1.368 . S
C2104 C2098 1.368 . S
C2104 C2103 1.523 . S
C2105 C2089 1.429 . S
C2105 C2101 1.429 . S
C2105 C2106 1.523 . S
C2106 C2090 1.368 . S
C2106 C2102 1.368 . S
C2106 C2105 1.523 . S
H2107 C2082 0.950 . S
H2108 C2084 0.950 . S
H2109 C2085 0.949 . S
H2110 C2087 0.950 . S
H2111 C2089 0.950 . S
C2112 C2113 1.349 . S
C2112 C2114 1.327 . S
C2112 H2137 0.950 . S
C2113 C2112 1.349 . S
C2113 C2129 1.349 . S
C2114 C2112 1.327 . S
C2114 C2133 1.429 . S
C2114 H2138 0.950 . S
C2115 C2132 1.574 . S
C2115 C2134 1.368 . S
C2115 H2139 0.949 . S
H2116 C2120 0.949 . S
C2117 C2118 1.349 . S
C2117 C2119 1.327 . S
C2117 H2140 0.950 . S
C2118 C2117 1.349 . S
C2118 C2130 1.349 . S
C2119 C2117 1.327 . S
C2119 C2135 1.429 . S
C2119 H2141 0.950 . S
C2120 H2116 0.949 . S
C2120 C2128 1.574 . S
C2120 C2136 1.368 . S
H2121 C2129 0.950 . S
H2122 C2127 0.950 . S
H2123 C2128 0.949 . S
H2124 C2130 0.950 . S
H2125 C2131 0.950 . S
H2126 C2132 0.949 . S
C2127 H2122 0.950 . S
C2127 C2129 1.327 . S
C2127 C2133 1.429 . S
C2128 C2120 1.574 . S
C2128 H2123 0.949 . S
C2128 C2134 1.368 . S
C2129 C2113 1.349 . S
C2129 H2121 0.950 . S
C2129 C2127 1.327 . S
C2130 C2118 1.349 . S
C2130 H2124 0.950 . S
C2130 C2131 1.327 . S
C2131 H2125 0.950 . S
C2131 C2130 1.327 . S
C2131 C2135 1.429 . S
C2132 C2115 1.574 . S
C2132 H2126 0.949 . S
C2132 C2136 1.368 . S
C2133 C2114 1.429 . S
C2133 C2127 1.429 . S
C2133 C2134 1.523 . S
C2134 C2115 1.368 . S
C2134 C2128 1.368 . S
C2134 C2133 1.523 . S
C2135 C2119 1.429 . S
C2135 C2131 1.429 . S
C2135 C2136 1.523 . S
C2136 C2120 1.368 . S
C2136 C2132 1.368 . S
C2136 C2135 1.523 . S
H2137 C2112 0.950 . S
H2138 C2114 0.950 . S
H2139 C2115 0.949 . S
H2140 C2117 0.950 . S
H2141 C2119 0.950 . S
C2142 C2143 1.349 . S
C2142 C2144 1.327 . S
C2142 H2167 0.950 . S
C2143 C2142 1.349 . S
C2143 C2159 1.349 . S
C2144 C2142 1.327 . S
C2144 C2163 1.429 . S
C2144 H2168 0.950 . S
C2145 C2162 1.574 . S
C2145 C2164 1.368 . S
C2145 H2169 0.949 . S
H2146 C2150 0.949 . S
C2147 C2148 1.349 . S
C2147 C2149 1.327 . S
C2147 H2170 0.950 . S
C2148 C2147 1.349 . S
C2148 C2160 1.349 . S
C2149 C2147 1.327 . S
C2149 C2165 1.429 . S
C2149 H2171 0.950 . S
C2150 H2146 0.949 . S
C2150 C2158 1.574 . S
C2150 C2166 1.368 . S
H2151 C2159 0.950 . S
H2152 C2157 0.950 . S
H2153 C2158 0.949 . S
H2154 C2160 0.950 . S
H2155 C2161 0.950 . S
H2156 C2162 0.949 . S
C2157 H2152 0.950 . S
C2157 C2159 1.327 . S
C2157 C2163 1.429 . S
C2158 C2150 1.574 . S
C2158 H2153 0.949 . S
C2158 C2164 1.368 . S
C2159 C2143 1.349 . S
C2159 H2151 0.950 . S
C2159 C2157 1.327 . S
C2160 C2148 1.349 . S
C2160 H2154 0.950 . S
C2160 C2161 1.327 . S
C2161 H2155 0.950 . S
C2161 C2160 1.327 . S
C2161 C2165 1.429 . S
C2162 C2145 1.574 . S
C2162 H2156 0.949 . S
C2162 C2166 1.368 . S
C2163 C2144 1.429 . S
C2163 C2157 1.429 . S
C2163 C2164 1.523 . S
C2164 C2145 1.368 . S
C2164 C2158 1.368 . S
C2164 C2163 1.523 . S
C2165 C2149 1.429 . S
C2165 C2161 1.429 . S
C2165 C2166 1.523 . S
C2166 C2150 1.368 . S
C2166 C2162 1.368 . S
C2166 C2165 1.523 . S
H2167 C2142 0.950 . S
H2168 C2144 0.950 . S
H2169 C2145 0.949 . S
H2170 C2147 0.950 . S
H2171 C2149 0.950 . S
C2172 C2173 1.349 . S
C2172 C2174 1.327 . S
C2172 H2197 0.950 . S
C2173 C2172 1.349 . S
C2173 C2189 1.349 . S
C2174 C2172 1.327 . S
C2174 C2193 1.429 . S
C2174 H2198 0.950 . S
C2175 C2192 1.574 . S
C2175 C2194 1.368 . S
C2175 H2199 0.949 . S
H2176 C2180 0.949 . S
C2177 C2178 1.349 . S
C2177 C2179 1.327 . S
C2177 H2200 0.950 . S
C2178 C2177 1.349 . S
C2178 C2190 1.349 . S
C2179 C2177 1.327 . S
C2179 C2195 1.429 . S
C2179 H2201 0.950 . S
C2180 H2176 0.949 . S
C2180 C2188 1.574 . S
C2180 C2196 1.368 . S
H2181 C2189 0.950 . S
H2182 C2187 0.950 . S
H2183 C2188 0.949 . S
H2184 C2190 0.950 . S
H2185 C2191 0.950 . S
H2186 C2192 0.949 . S
C2187 H2182 0.950 . S
C2187 C2189 1.327 . S
C2187 C2193 1.429 . S
C2188 C2180 1.574 . S
C2188 H2183 0.949 . S
C2188 C2194 1.368 . S
C2189 C2173 1.349 . S
C2189 H2181 0.950 . S
C2189 C2187 1.327 . S
C2190 C2178 1.349 . S
C2190 H2184 0.950 . S
C2190 C2191 1.327 . S
C2191 H2185 0.950 . S
C2191 C2190 1.327 . S
C2191 C2195 1.429 . S
C2192 C2175 1.574 . S
C2192 H2186 0.949 . S
C2192 C2196 1.368 . S
C2193 C2174 1.429 . S
C2193 C2187 1.429 . S
C2193 C2194 1.523 . S
C2194 C2175 1.368 . S
C2194 C2188 1.368 . S
C2194 C2193 1.523 . S
C2195 C2179 1.429 . S
C2195 C2191 1.429 . S
C2195 C2196 1.523 . S
C2196 C2180 1.368 . S
C2196 C2192 1.368 . S
C2196 C2195 1.523 . S
H2197 C2172 0.950 . S
H2198 C2174 0.950 . S
H2199 C2175 0.949 . S
H2200 C2177 0.950 . S
H2201 C2179 0.950 . S
C2202 C2203 1.349 . S
C2202 C2204 1.327 . S
C2202 H2227 0.950 . S
C2203 C2202 1.349 . S
C2203 C2219 1.349 . S
C2204 C2202 1.327 . S
C2204 C2223 1.429 . S
C2204 H2228 0.950 . S
C2205 C2222 1.574 . S
C2205 C2224 1.368 . S
C2205 H2229 0.949 . S
H2206 C2210 0.949 . S
C2207 C2208 1.349 . S
C2207 C2209 1.327 . S
C2207 H2230 0.950 . S
C2208 C2207 1.349 . S
C2208 C2220 1.349 . S
C2209 C2207 1.327 . S
C2209 C2225 1.429 . S
C2209 H2231 0.950 . S
C2210 H2206 0.949 . S
C2210 C2218 1.574 . S
C2210 C2226 1.368 . S
H2211 C2219 0.950 . S
H2212 C2217 0.950 . S
H2213 C2218 0.949 . S
H2214 C2220 0.950 . S
H2215 C2221 0.950 . S
H2216 C2222 0.949 . S
C2217 H2212 0.950 . S
C2217 C2219 1.327 . S
C2217 C2223 1.429 . S
C2218 C2210 1.574 . S
C2218 H2213 0.949 . S
C2218 C2224 1.368 . S
C2219 C2203 1.349 . S
C2219 H2211 0.950 . S
C2219 C2217 1.327 . S
C2220 C2208 1.349 . S
C2220 H2214 0.950 . S
C2220 C2221 1.327 . S
C2221 H2215 0.950 . S
C2221 C2220 1.327 . S
C2221 C2225 1.429 . S
C2222 C2205 1.574 . S
C2222 H2216 0.949 . S
C2222 C2226 1.368 . S
C2223 C2204 1.429 . S
C2223 C2217 1.429 . S
C2223 C2224 1.523 . S
C2224 C2205 1.368 . S
C2224 C2218 1.368 . S
C2224 C2223 1.523 . S
C2225 C2209 1.429 . S
C2225 C2221 1.429 . S
C2225 C2226 1.523 . S
C2226 C2210 1.368 . S
C2226 C2222 1.368 . S
C2226 C2225 1.523 . S
H2227 C2202 0.950 . S
H2228 C2204 0.950 . S
H2229 C2205 0.949 . S
H2230 C2207 0.950 . S
H2231 C2209 0.950 . S
C2232 C2233 1.349 . S
C2232 C2234 1.327 . S
C2232 H2257 0.950 1_556 S
C2233 C2232 1.349 . S
C2233 C2249 1.349 . S
C2234 C2232 1.327 . S
C2234 C2253 1.429 . S
C2234 H2258 0.950 . S
C2235 C2252 1.574 . S
C2235 C2254 1.368 . S
C2235 H2259 0.949 . S
H2236 C2240 0.949 . S
C2237 C2238 1.349 . S
C2237 C2239 1.327 . S
C2237 H2260 0.950 . S
C2238 C2237 1.349 . S
C2238 C2250 1.349 . S
C2239 C2237 1.327 . S
C2239 C2255 1.429 . S
C2239 H2261 0.950 . S
C2240 H2236 0.949 . S
C2240 C2248 1.574 . S
C2240 C2256 1.368 . S
H2241 C2249 0.950 . S
H2242 C2247 0.950 . S
H2243 C2248 0.949 . S
H2244 C2250 0.950 . S
H2245 C2251 0.950 . S
H2246 C2252 0.949 . S
C2247 H2242 0.950 . S
C2247 C2249 1.327 . S
C2247 C2253 1.429 . S
C2248 C2240 1.574 . S
C2248 H2243 0.949 . S
C2248 C2254 1.368 . S
C2249 C2233 1.349 . S
C2249 H2241 0.950 . S
C2249 C2247 1.327 . S
C2250 C2238 1.349 . S
C2250 H2244 0.950 . S
C2250 C2251 1.327 . S
C2251 H2245 0.950 . S
C2251 C2250 1.327 . S
C2251 C2255 1.429 . S
C2252 C2235 1.574 . S
C2252 H2246 0.949 . S
C2252 C2256 1.368 . S
C2253 C2234 1.429 . S
C2253 C2247 1.429 . S
C2253 C2254 1.523 . S
C2254 C2235 1.368 . S
C2254 C2248 1.368 . S
C2254 C2253 1.523 . S
C2255 C2239 1.429 . S
C2255 C2251 1.429 . S
C2255 C2256 1.523 . S
C2256 C2240 1.368 . S
C2256 C2252 1.368 . S
C2256 C2255 1.523 . S
H2257 C2232 0.950 1_554 S
H2258 C2234 0.950 . S
H2259 C2235 0.949 . S
H2260 C2237 0.950 . S
H2261 C2239 0.950 . S
C2262 C2263 1.349 . S
C2262 C2264 1.327 . S
C2262 H2287 0.950 1_556 S
C2263 C2262 1.349 . S
C2263 C2279 1.349 . S
C2264 C2262 1.327 . S
C2264 C2283 1.429 . S
C2264 H2288 0.950 . S
C2265 C2282 1.574 . S
C2265 C2284 1.368 . S
C2265 H2289 0.949 . S
H2266 C2270 0.949 . S
C2267 C2268 1.349 . S
C2267 C2269 1.327 . S
C2267 H2290 0.950 . S
C2268 C2267 1.349 . S
C2268 C2280 1.349 . S
C2269 C2267 1.327 . S
C2269 C2285 1.429 . S
C2269 H2291 0.950 . S
C2270 H2266 0.949 . S
C2270 C2278 1.574 . S
C2270 C2286 1.368 . S
H2271 C2279 0.950 . S
H2272 C2277 0.950 . S
H2273 C2278 0.949 . S
H2274 C2280 0.950 . S
H2275 C2281 0.950 . S
H2276 C2282 0.949 . S
C2277 H2272 0.950 . S
C2277 C2279 1.327 . S
C2277 C2283 1.429 . S
C2278 C2270 1.574 . S
C2278 H2273 0.949 . S
C2278 C2284 1.368 . S
C2279 C2263 1.349 . S
C2279 H2271 0.950 . S
C2279 C2277 1.327 . S
C2280 C2268 1.349 . S
C2280 H2274 0.950 . S
C2280 C2281 1.327 . S
C2281 H2275 0.950 . S
C2281 C2280 1.327 . S
C2281 C2285 1.429 . S
C2282 C2265 1.574 . S
C2282 H2276 0.949 . S
C2282 C2286 1.368 . S
C2283 C2264 1.429 . S
C2283 C2277 1.429 . S
C2283 C2284 1.523 . S
C2284 C2265 1.368 . S
C2284 C2278 1.368 . S
C2284 C2283 1.523 . S
C2285 C2269 1.429 . S
C2285 C2281 1.429 . S
C2285 C2286 1.523 . S
C2286 C2270 1.368 . S
C2286 C2282 1.368 . S
C2286 C2285 1.523 . S
H2287 C2262 0.950 1_554 S
H2288 C2264 0.950 . S
H2289 C2265 0.949 . S
H2290 C2267 0.950 . S
H2291 C2269 0.950 . S
C2292 C2293 1.349 . S
C2292 C2294 1.327 . S
C2292 H2317 0.950 . S
C2293 C2292 1.349 . S
C2293 C2309 1.349 . S
C2294 C2292 1.327 . S
C2294 C2313 1.429 . S
C2294 H2318 0.950 . S
C2295 C2312 1.574 . S
C2295 C2314 1.368 . S
C2295 H2319 0.949 . S
H2296 C2300 0.949 . S
C2297 C2298 1.349 . S
C2297 C2299 1.327 . S
C2297 H2320 0.950 . S
C2298 C2297 1.349 . S
C2298 C2310 1.349 . S
C2299 C2297 1.327 . S
C2299 C2315 1.429 . S
C2299 H2321 0.950 . S
C2300 H2296 0.949 . S
C2300 C2308 1.574 . S
C2300 C2316 1.368 . S
H2301 C2309 0.950 . S
H2302 C2307 0.950 . S
H2303 C2308 0.949 . S
H2304 C2310 0.950 . S
H2305 C2311 0.950 . S
H2306 C2312 0.949 . S
C2307 H2302 0.950 . S
C2307 C2309 1.327 . S
C2307 C2313 1.429 . S
C2308 C2300 1.574 . S
C2308 H2303 0.949 . S
C2308 C2314 1.368 . S
C2309 C2293 1.349 . S
C2309 H2301 0.950 . S
C2309 C2307 1.327 . S
C2310 C2298 1.349 . S
C2310 H2304 0.950 . S
C2310 C2311 1.327 . S
C2311 H2305 0.950 . S
C2311 C2310 1.327 . S
C2311 C2315 1.429 . S
C2312 C2295 1.574 . S
C2312 H2306 0.949 . S
C2312 C2316 1.368 . S
C2313 C2294 1.429 . S
C2313 C2307 1.429 . S
C2313 C2314 1.523 . S
C2314 C2295 1.368 . S
C2314 C2308 1.368 . S
C2314 C2313 1.523 . S
C2315 C2299 1.429 . S
C2315 C2311 1.429 . S
C2315 C2316 1.523 . S
C2316 C2300 1.368 . S
C2316 C2312 1.368 . S
C2316 C2315 1.523 . S
H2317 C2292 0.950 . S
H2318 C2294 0.950 . S
H2319 C2295 0.949 . S
H2320 C2297 0.950 . S
H2321 C2299 0.950 . S
C2322 C2323 1.349 . S
C2322 C2324 1.327 . S
C2322 H2347 0.950 . S
C2323 C2322 1.349 . S
C2323 C2339 1.349 . S
C2324 C2322 1.327 . S
C2324 C2343 1.429 . S
C2324 H2348 0.950 . S
C2325 C2342 1.574 . S
C2325 C2344 1.368 . S
C2325 H2349 0.949 . S
H2326 C2330 0.949 . S
C2327 C2328 1.349 . S
C2327 C2329 1.327 . S
C2327 H2350 0.950 . S
C2328 C2327 1.349 . S
C2328 C2340 1.349 . S
C2329 C2327 1.327 . S
C2329 C2345 1.429 . S
C2329 H2351 0.950 . S
C2330 H2326 0.949 . S
C2330 C2338 1.574 . S
C2330 C2346 1.368 . S
H2331 C2339 0.950 . S
H2332 C2337 0.950 . S
H2333 C2338 0.949 . S
H2334 C2340 0.950 . S
H2335 C2341 0.950 . S
H2336 C2342 0.949 . S
C2337 H2332 0.950 . S
C2337 C2339 1.327 . S
C2337 C2343 1.429 . S
C2338 C2330 1.574 . S
C2338 H2333 0.949 . S
C2338 C2344 1.368 . S
C2339 C2323 1.349 . S
C2339 H2331 0.950 . S
C2339 C2337 1.327 . S
C2340 C2328 1.349 . S
C2340 H2334 0.950 . S
C2340 C2341 1.327 . S
C2341 H2335 0.950 . S
C2341 C2340 1.327 . S
C2341 C2345 1.429 . S
C2342 C2325 1.574 . S
C2342 H2336 0.949 . S
C2342 C2346 1.368 . S
C2343 C2324 1.429 . S
C2343 C2337 1.429 . S
C2343 C2344 1.523 . S
C2344 C2325 1.368 . S
C2344 C2338 1.368 . S
C2344 C2343 1.523 . S
C2345 C2329 1.429 . S
C2345 C2341 1.429 . S
C2345 C2346 1.523 . S
C2346 C2330 1.368 . S
C2346 C2342 1.368 . S
C2346 C2345 1.523 . S
H2347 C2322 0.950 . S
H2348 C2324 0.950 . S
H2349 C2325 0.949 . S
H2350 C2327 0.950 . S
H2351 C2329 0.950 . S
C2352 C2353 1.349 . S
C2352 C2354 1.327 . S
C2352 H2377 0.950 . S
C2353 C2352 1.349 . S
C2353 C2369 1.349 . S
C2354 C2352 1.327 . S
C2354 C2373 1.429 . S
C2354 H2378 0.950 . S
C2355 C2372 1.574 . S
C2355 C2374 1.368 . S
C2355 H2379 0.949 . S
H2356 C2360 0.949 . S
C2357 C2358 1.349 . S
C2357 C2359 1.327 . S
C2357 H2380 0.950 . S
C2358 C2357 1.349 . S
C2358 C2370 1.349 . S
C2359 C2357 1.327 . S
C2359 C2375 1.429 . S
C2359 H2381 0.950 . S
C2360 H2356 0.949 . S
C2360 C2368 1.574 . S
C2360 C2376 1.368 . S
H2361 C2369 0.950 . S
H2362 C2367 0.950 . S
H2363 C2368 0.949 . S
H2364 C2370 0.950 . S
H2365 C2371 0.950 . S
H2366 C2372 0.949 . S
C2367 H2362 0.950 . S
C2367 C2369 1.327 . S
C2367 C2373 1.429 . S
C2368 C2360 1.574 . S
C2368 H2363 0.949 . S
C2368 C2374 1.368 . S
C2369 C2353 1.349 . S
C2369 H2361 0.950 . S
C2369 C2367 1.327 . S
C2370 C2358 1.349 . S
C2370 H2364 0.950 . S
C2370 C2371 1.327 . S
C2371 H2365 0.950 . S
C2371 C2370 1.327 . S
C2371 C2375 1.429 . S
C2372 C2355 1.574 . S
C2372 H2366 0.949 . S
C2372 C2376 1.368 . S
C2373 C2354 1.429 . S
C2373 C2367 1.429 . S
C2373 C2374 1.523 . S
C2374 C2355 1.368 . S
C2374 C2368 1.368 . S
C2374 C2373 1.523 . S
C2375 C2359 1.429 . S
C2375 C2371 1.429 . S
C2375 C2376 1.523 . S
C2376 C2360 1.368 . S
C2376 C2372 1.368 . S
C2376 C2375 1.523 . S
H2377 C2352 0.950 . S
H2378 C2354 0.950 . S
H2379 C2355 0.949 . S
H2380 C2357 0.950 . S
H2381 C2359 0.950 . S
C2382 C2383 1.349 . S
C2382 C2384 1.327 . S
C2382 H2407 0.950 . S
C2383 C2382 1.349 . S
C2383 C2399 1.349 . S
C2384 C2382 1.327 . S
C2384 C2403 1.429 . S
C2384 H2408 0.950 . S
C2385 C2402 1.574 . S
C2385 C2404 1.368 . S
C2385 H2409 0.949 . S
H2386 C2390 0.949 . S
C2387 C2388 1.349 . S
C2387 C2389 1.327 . S
C2387 H2410 0.950 . S
C2388 C2387 1.349 . S
C2388 C2400 1.349 . S
C2389 C2387 1.327 . S
C2389 C2405 1.429 . S
C2389 H2411 0.950 . S
C2390 H2386 0.949 . S
C2390 C2398 1.574 . S
C2390 C2406 1.368 . S
H2391 C2399 0.950 . S
H2392 C2397 0.950 . S
H2393 C2398 0.949 . S
H2394 C2400 0.950 . S
H2395 C2401 0.950 . S
H2396 C2402 0.949 . S
C2397 H2392 0.950 . S
C2397 C2399 1.327 . S
C2397 C2403 1.429 . S
C2398 C2390 1.574 . S
C2398 H2393 0.949 . S
C2398 C2404 1.368 . S
C2399 C2383 1.349 . S
C2399 H2391 0.950 . S
C2399 C2397 1.327 . S
C2400 C2388 1.349 . S
C2400 H2394 0.950 . S
C2400 C2401 1.327 . S
C2401 H2395 0.950 . S
C2401 C2400 1.327 . S
C2401 C2405 1.429 . S
C2402 C2385 1.574 . S
C2402 H2396 0.949 . S
C2402 C2406 1.368 . S
C2403 C2384 1.429 . S
C2403 C2397 1.429 . S
C2403 C2404 1.523 . S
C2404 C2385 1.368 . S
C2404 C2398 1.368 . S
C2404 C2403 1.523 . S
C2405 C2389 1.429 . S
C2405 C2401 1.429 . S
C2405 C2406 1.523 . S
C2406 C2390 1.368 . S
C2406 C2402 1.368 . S
C2406 C2405 1.523 . S
H2407 C2382 0.950 . S
H2408 C2384 0.950 . S
H2409 C2385 0.949 . S
H2410 C2387 0.950 . S
H2411 C2389 0.950 . S
C2412 C2413 1.349 . S
C2412 C2414 1.327 . S
C2412 H2437 0.950 . S
C2413 C2412 1.349 . S
C2413 C2429 1.349 . S
C2414 C2412 1.327 . S
C2414 C2433 1.429 . S
C2414 H2438 0.950 . S
C2415 C2432 1.574 . S
C2415 C2434 1.368 . S
C2415 H2439 0.949 . S
H2416 C2420 0.949 . S
C2417 C2418 1.349 . S
C2417 C2419 1.327 . S
C2417 H2440 0.950 . S
C2418 C2417 1.349 . S
C2418 C2430 1.349 . S
C2419 C2417 1.327 . S
C2419 C2435 1.429 . S
C2419 H2441 0.950 . S
C2420 H2416 0.949 . S
C2420 C2428 1.574 . S
C2420 C2436 1.368 . S
H2421 C2429 0.950 . S
H2422 C2427 0.950 . S
H2423 C2428 0.949 . S
H2424 C2430 0.950 . S
H2425 C2431 0.950 . S
H2426 C2432 0.949 . S
C2427 H2422 0.950 . S
C2427 C2429 1.327 . S
C2427 C2433 1.429 . S
C2428 C2420 1.574 . S
C2428 H2423 0.949 . S
C2428 C2434 1.368 . S
C2429 C2413 1.349 . S
C2429 H2421 0.950 . S
C2429 C2427 1.327 . S
C2430 C2418 1.349 . S
C2430 H2424 0.950 . S
C2430 C2431 1.327 . S
C2431 H2425 0.950 . S
C2431 C2430 1.327 . S
C2431 C2435 1.429 . S
C2432 C2415 1.574 . S
C2432 H2426 0.949 . S
C2432 C2436 1.368 . S
C2433 C2414 1.429 . S
C2433 C2427 1.429 . S
C2433 C2434 1.523 . S
C2434 C2415 1.368 . S
C2434 C2428 1.368 . S
C2434 C2433 1.523 . S
C2435 C2419 1.429 . S
C2435 C2431 1.429 . S
C2435 C2436 1.523 . S
C2436 C2420 1.368 . S
C2436 C2432 1.368 . S
C2436 C2435 1.523 . S
H2437 C2412 0.950 . S
H2438 C2414 0.950 . S
H2439 C2415 0.949 . S
H2440 C2417 0.950 . S
H2441 C2419 0.950 . S
C2442 C2443 1.349 . S
C2442 C2444 1.327 . S
C2442 H2467 0.950 . S
C2443 C2442 1.349 . S
C2443 C2459 1.349 . S
C2444 C2442 1.327 . S
C2444 C2463 1.429 . S
C2444 H2468 0.950 . S
C2445 C2462 1.574 . S
C2445 C2464 1.368 . S
C2445 H2469 0.949 . S
H2446 C2450 0.949 . S
C2447 C2448 1.349 . S
C2447 C2449 1.327 . S
C2447 H2470 0.950 . S
C2448 C2447 1.349 . S
C2448 C2460 1.349 . S
C2449 C2447 1.327 . S
C2449 C2465 1.429 . S
C2449 H2471 0.950 . S
C2450 H2446 0.949 . S
C2450 C2458 1.574 . S
C2450 C2466 1.368 . S
H2451 C2459 0.950 . S
H2452 C2457 0.950 . S
H2453 C2458 0.949 . S
H2454 C2460 0.950 . S
H2455 C2461 0.950 . S
H2456 C2462 0.949 . S
C2457 H2452 0.950 . S
C2457 C2459 1.327 . S
C2457 C2463 1.429 . S
C2458 C2450 1.574 . S
C2458 H2453 0.949 . S
C2458 C2464 1.368 . S
C2459 C2443 1.349 . S
C2459 H2451 0.950 . S
C2459 C2457 1.327 . S
C2460 C2448 1.349 . S
C2460 H2454 0.950 . S
C2460 C2461 1.327 . S
C2461 H2455 0.950 . S
C2461 C2460 1.327 . S
C2461 C2465 1.429 . S
C2462 C2445 1.574 . S
C2462 H2456 0.949 . S
C2462 C2466 1.368 . S
C2463 C2444 1.429 . S
C2463 C2457 1.429 . S
C2463 C2464 1.523 . S
C2464 C2445 1.368 . S
C2464 C2458 1.368 . S
C2464 C2463 1.523 . S
C2465 C2449 1.429 . S
C2465 C2461 1.429 . S
C2465 C2466 1.523 . S
C2466 C2450 1.368 . S
C2466 C2462 1.368 . S
C2466 C2465 1.523 . S
H2467 C2442 0.950 . S
H2468 C2444 0.950 . S
H2469 C2445 0.949 . S
H2470 C2447 0.950 . S
H2471 C2449 0.950 . S
C2472 C2473 1.349 . S
C2472 C2474 1.327 . S
C2472 H2497 0.950 . S
C2473 C2472 1.349 . S
C2473 C2489 1.349 . S
C2474 C2472 1.327 . S
C2474 C2493 1.429 . S
C2474 H2498 0.950 . S
C2475 C2492 1.574 . S
C2475 C2494 1.368 . S
C2475 H2499 0.949 . S
H2476 C2480 0.949 . S
C2477 C2478 1.349 . S
C2477 C2479 1.327 . S
C2477 H2500 0.950 . S
C2478 C2477 1.349 . S
C2478 C2490 1.349 . S
C2479 C2477 1.327 . S
C2479 C2495 1.429 . S
C2479 H2501 0.950 . S
C2480 H2476 0.949 . S
C2480 C2488 1.574 . S
C2480 C2496 1.368 . S
H2481 C2489 0.950 . S
H2482 C2487 0.950 . S
H2483 C2488 0.949 . S
H2484 C2490 0.950 . S
H2485 C2491 0.950 . S
H2486 C2492 0.949 . S
C2487 H2482 0.950 . S
C2487 C2489 1.327 . S
C2487 C2493 1.429 . S
C2488 C2480 1.574 . S
C2488 H2483 0.949 . S
C2488 C2494 1.368 . S
C2489 C2473 1.349 . S
C2489 H2481 0.950 . S
C2489 C2487 1.327 . S
C2490 C2478 1.349 . S
C2490 H2484 0.950 . S
C2490 C2491 1.327 . S
C2491 H2485 0.950 . S
C2491 C2490 1.327 . S
C2491 C2495 1.429 . S
C2492 C2475 1.574 . S
C2492 H2486 0.949 . S
C2492 C2496 1.368 . S
C2493 C2474 1.429 . S
C2493 C2487 1.429 . S
C2493 C2494 1.523 . S
C2494 C2475 1.368 . S
C2494 C2488 1.368 . S
C2494 C2493 1.523 . S
C2495 C2479 1.429 . S
C2495 C2491 1.429 . S
C2495 C2496 1.523 . S
C2496 C2480 1.368 . S
C2496 C2492 1.368 . S
C2496 C2495 1.523 . S
H2497 C2472 0.950 . S
H2498 C2474 0.950 . S
H2499 C2475 0.949 . S
H2500 C2477 0.950 . S
H2501 C2479 0.950 . S
C2502 C2503 1.349 . S
C2502 C2504 1.327 . S
C2502 H2527 0.950 . S
C2503 C2502 1.349 . S
C2503 C2519 1.349 . S
C2504 C2502 1.327 . S
C2504 C2523 1.429 . S
C2504 H2528 0.950 . S
C2505 C2522 1.574 . S
C2505 C2524 1.368 . S
C2505 H2529 0.949 . S
H2506 C2510 0.949 . S
C2507 C2508 1.349 . S
C2507 C2509 1.327 . S
C2507 H2530 0.950 . S
C2508 C2507 1.349 . S
C2508 C2520 1.349 . S
C2509 C2507 1.327 . S
C2509 C2525 1.429 . S
C2509 H2531 0.950 . S
C2510 H2506 0.949 . S
C2510 C2518 1.574 . S
C2510 C2526 1.368 . S
H2511 C2519 0.950 . S
H2512 C2517 0.950 . S
H2513 C2518 0.949 . S
H2514 C2520 0.950 . S
H2515 C2521 0.950 . S
H2516 C2522 0.949 . S
C2517 H2512 0.950 . S
C2517 C2519 1.327 . S
C2517 C2523 1.429 . S
C2518 C2510 1.574 . S
C2518 H2513 0.949 . S
C2518 C2524 1.368 . S
C2519 C2503 1.349 . S
C2519 H2511 0.950 . S
C2519 C2517 1.327 . S
C2520 C2508 1.349 . S
C2520 H2514 0.950 . S
C2520 C2521 1.327 . S
C2521 H2515 0.950 . S
C2521 C2520 1.327 . S
C2521 C2525 1.429 . S
C2522 C2505 1.574 . S
C2522 H2516 0.949 . S
C2522 C2526 1.368 . S
C2523 C2504 1.429 . S
C2523 C2517 1.429 . S
C2523 C2524 1.523 . S
C2524 C2505 1.368 . S
C2524 C2518 1.368 . S
C2524 C2523 1.523 . S
C2525 C2509 1.429 . S
C2525 C2521 1.429 . S
C2525 C2526 1.523 . S
C2526 C2510 1.368 . S
C2526 C2522 1.368 . S
C2526 C2525 1.523 . S
H2527 C2502 0.950 . S
H2528 C2504 0.950 . S
H2529 C2505 0.949 . S
H2530 C2507 0.950 . S
H2531 C2509 0.950 . S
C2532 C2533 1.349 . S
C2532 C2534 1.327 . S
C2532 H2557 0.950 . S
C2533 C2532 1.349 . S
C2533 C2549 1.349 . S
C2534 C2532 1.327 . S
C2534 C2553 1.429 . S
C2534 H2558 0.950 . S
C2535 C2552 1.574 . S
C2535 C2554 1.368 . S
C2535 H2559 0.949 . S
H2536 C2540 0.949 . S
C2537 C2538 1.349 . S
C2537 C2539 1.327 . S
C2537 H2560 0.950 . S
C2538 C2537 1.349 . S
C2538 C2550 1.349 . S
C2539 C2537 1.327 . S
C2539 C2555 1.429 . S
C2539 H2561 0.950 . S
C2540 H2536 0.949 . S
C2540 C2548 1.574 . S
C2540 C2556 1.368 . S
H2541 C2549 0.950 . S
H2542 C2547 0.950 . S
H2543 C2548 0.949 . S
H2544 C2550 0.950 . S
H2545 C2551 0.950 . S
H2546 C2552 0.949 . S
C2547 H2542 0.950 . S
C2547 C2549 1.327 . S
C2547 C2553 1.429 . S
C2548 C2540 1.574 . S
C2548 H2543 0.949 . S
C2548 C2554 1.368 . S
C2549 C2533 1.349 . S
C2549 H2541 0.950 . S
C2549 C2547 1.327 . S
C2550 C2538 1.349 . S
C2550 H2544 0.950 . S
C2550 C2551 1.327 . S
C2551 H2545 0.950 . S
C2551 C2550 1.327 . S
C2551 C2555 1.429 . S
C2552 C2535 1.574 . S
C2552 H2546 0.949 . S
C2552 C2556 1.368 . S
C2553 C2534 1.429 . S
C2553 C2547 1.429 . S
C2553 C2554 1.523 . S
C2554 C2535 1.368 . S
C2554 C2548 1.368 . S
C2554 C2553 1.523 . S
C2555 C2539 1.429 . S
C2555 C2551 1.429 . S
C2555 C2556 1.523 . S
C2556 C2540 1.368 . S
C2556 C2552 1.368 . S
C2556 C2555 1.523 . S
H2557 C2532 0.950 . S
H2558 C2534 0.950 . S
H2559 C2535 0.949 . S
H2560 C2537 0.950 . S
H2561 C2539 0.950 . S
C2562 C2563 1.349 . S
C2562 C2564 1.327 . S
C2562 H2587 0.950 . S
C2563 C2562 1.349 . S
C2563 C2579 1.349 . S
C2564 C2562 1.327 . S
C2564 C2583 1.429 . S
C2564 H2588 0.950 . S
C2565 C2582 1.574 . S
C2565 C2584 1.368 . S
C2565 H2589 0.949 . S
H2566 C2570 0.949 . S
C2567 C2568 1.349 . S
C2567 C2569 1.327 . S
C2567 H2590 0.950 . S
C2568 C2567 1.349 . S
C2568 C2580 1.349 . S
C2569 C2567 1.327 . S
C2569 C2585 1.429 . S
C2569 H2591 0.950 . S
C2570 H2566 0.949 . S
C2570 C2578 1.574 . S
C2570 C2586 1.368 . S
H2571 C2579 0.950 . S
H2572 C2577 0.950 . S
H2573 C2578 0.949 . S
H2574 C2580 0.950 . S
H2575 C2581 0.950 . S
H2576 C2582 0.949 . S
C2577 H2572 0.950 . S
C2577 C2579 1.327 . S
C2577 C2583 1.429 . S
C2578 C2570 1.574 . S
C2578 H2573 0.949 . S
C2578 C2584 1.368 . S
C2579 C2563 1.349 . S
C2579 H2571 0.950 . S
C2579 C2577 1.327 . S
C2580 C2568 1.349 . S
C2580 H2574 0.950 . S
C2580 C2581 1.327 . S
C2581 H2575 0.950 . S
C2581 C2580 1.327 . S
C2581 C2585 1.429 . S
C2582 C2565 1.574 . S
C2582 H2576 0.949 . S
C2582 C2586 1.368 . S
C2583 C2564 1.429 . S
C2583 C2577 1.429 . S
C2583 C2584 1.523 . S
C2584 C2565 1.368 . S
C2584 C2578 1.368 . S
C2584 C2583 1.523 . S
C2585 C2569 1.429 . S
C2585 C2581 1.429 . S
C2585 C2586 1.523 . S
C2586 C2570 1.368 . S
C2586 C2582 1.368 . S
C2586 C2585 1.523 . S
H2587 C2562 0.950 . S
H2588 C2564 0.950 . S
H2589 C2565 0.949 . S
H2590 C2567 0.950 . S
H2591 C2569 0.950 . S
C2592 C2593 1.349 . S
C2592 C2594 1.327 . S
C2592 H2617 0.950 . S
C2593 C2592 1.349 . S
C2593 C2609 1.343 . S
C2594 C2592 1.327 . S
C2594 C2613 1.429 . S
C2594 H2618 0.950 . S
C2595 C2612 1.574 . S
C2595 C2614 1.368 1_655 S
C2595 H2619 0.949 . S
H2596 C2600 0.949 . S
C2597 C2598 1.349 1_655 S
C2597 C2599 1.327 . S
C2597 H2620 0.950 . S
C2598 C2597 1.349 1_455 S
C2598 C2610 1.349 . S
C2599 C2597 1.327 . S
C2599 C2615 1.429 1_655 S
C2599 H2621 0.950 . S
C2600 H2596 0.949 . S
C2600 C2608 1.574 . S
C2600 C2616 1.368 . S
H2601 C2609 0.952 1_655 S
H2602 C2607 0.950 . S
H2603 C2608 0.949 . S
H2604 C2610 0.950 . S
H2605 C2611 0.950 . S
H2606 C2612 0.949 . S
C2607 H2602 0.950 . S
C2607 C2609 1.330 1_655 S
C2607 C2613 1.429 1_655 S
C2608 C2600 1.574 . S
C2608 H2603 0.949 . S
C2608 C2614 1.368 . S
C2609 C2593 1.343 . S
C2609 H2601 0.952 1_455 S
C2609 C2607 1.330 1_455 S
C2610 C2598 1.349 . S
C2610 H2604 0.950 . S
C2610 C2611 1.327 . S
C2611 H2605 0.950 . S
C2611 C2610 1.327 . S
C2611 C2615 1.429 . S
C2612 C2595 1.574 . S
C2612 H2606 0.949 . S
C2612 C2616 1.368 1_655 S
C2613 C2594 1.429 . S
C2613 C2607 1.429 1_455 S
C2613 C2614 1.523 . S
C2614 C2595 1.368 1_455 S
C2614 C2608 1.368 . S
C2614 C2613 1.523 . S
C2615 C2599 1.429 1_455 S
C2615 C2611 1.429 . S
C2615 C2616 1.523 . S
C2616 C2600 1.368 . S
C2616 C2612 1.368 1_455 S
C2616 C2615 1.523 . S
H2617 C2592 0.950 . S
H2618 C2594 0.950 . S
H2619 C2595 0.949 . S
H2620 C2597 0.950 . S
H2621 C2599 0.950 . S
C2622 C2623 1.349 . S
C2622 C2624 1.327 . S
C2622 H2647 0.950 . S
C2623 C2622 1.349 . S
C2623 C2639 1.349 . S
C2624 C2622 1.327 . S
C2624 C2643 1.429 . S
C2624 H2648 0.950 . S
C2625 C2642 1.574 . S
C2625 C2644 1.368 . S
C2625 H2649 0.949 . S
H2626 C2630 0.949 . S
C2627 C2628 1.349 . S
C2627 C2629 1.327 . S
C2627 H2650 0.950 . S
C2628 C2627 1.349 . S
C2628 C2640 1.349 . S
C2629 C2627 1.327 . S
C2629 C2645 1.429 . S
C2629 H2651 0.950 . S
C2630 H2626 0.949 . S
C2630 C2638 1.574 . S
C2630 C2646 1.368 . S
H2631 C2639 0.950 . S
H2632 C2637 0.950 . S
H2633 C2638 0.949 . S
H2634 C2640 0.950 . S
H2635 C2641 0.950 . S
H2636 C2642 0.949 . S
C2637 H2632 0.950 . S
C2637 C2639 1.327 . S
C2637 C2643 1.429 . S
C2638 C2630 1.574 . S
C2638 H2633 0.949 . S
C2638 C2644 1.368 . S
C2639 C2623 1.349 . S
C2639 H2631 0.950 . S
C2639 C2637 1.327 . S
C2640 C2628 1.349 . S
C2640 H2634 0.950 . S
C2640 C2641 1.327 . S
C2641 H2635 0.950 . S
C2641 C2640 1.327 . S
C2641 C2645 1.429 . S
C2642 C2625 1.574 . S
C2642 H2636 0.949 . S
C2642 C2646 1.368 . S
C2643 C2624 1.429 . S
C2643 C2637 1.429 . S
C2643 C2644 1.523 . S
C2644 C2625 1.368 . S
C2644 C2638 1.368 . S
C2644 C2643 1.523 . S
C2645 C2629 1.429 . S
C2645 C2641 1.429 . S
C2645 C2646 1.523 . S
C2646 C2630 1.368 . S
C2646 C2642 1.368 . S
C2646 C2645 1.523 . S
H2647 C2622 0.950 . S
H2648 C2624 0.950 . S
H2649 C2625 0.949 . S
H2650 C2627 0.950 . S
H2651 C2629 0.950 . S
C2652 C2653 1.349 . S
C2652 C2654 1.327 . S
C2652 H2677 0.950 . S
C2653 C2652 1.349 . S
C2653 C2669 1.349 1_565 S
C2654 C2652 1.327 . S
C2654 C2673 1.429 . S
C2654 H2678 0.950 . S
C2655 C2672 1.574 . S
C2655 C2674 1.368 1_545 S
C2655 H2679 0.949 . S
H2656 C2660 0.949 . S
C2657 C2658 1.349 1_545 S
C2657 C2659 1.327 . S
C2657 H2680 0.950 . S
C2658 C2657 1.349 1_565 S
C2658 C2670 1.349 . S
C2659 C2657 1.327 . S
C2659 C2675 1.429 1_545 S
C2659 H2681 0.950 . S
C2660 H2656 0.949 . S
C2660 C2668 1.574 . S
C2660 C2676 1.368 . S
H2661 C2669 0.950 . S
H2662 C2667 0.950 . S
H2663 C2668 0.949 . S
H2664 C2670 0.950 . S
H2665 C2671 0.950 . S
H2666 C2672 0.949 . S
C2667 H2662 0.950 . S
C2667 C2669 1.327 . S
C2667 C2673 1.429 1_545 S
C2668 C2660 1.574 . S
C2668 H2663 0.949 . S
C2668 C2674 1.368 . S
C2669 C2653 1.349 1_545 S
C2669 H2661 0.950 . S
C2669 C2667 1.327 . S
C2670 C2658 1.349 . S
C2670 H2664 0.950 . S
C2670 C2671 1.327 . S
C2671 H2665 0.950 . S
C2671 C2670 1.327 . S
C2671 C2675 1.429 . S
C2672 C2655 1.574 . S
C2672 H2666 0.949 . S
C2672 C2676 1.368 1_545 S
C2673 C2654 1.429 . S
C2673 C2667 1.429 1_565 S
C2673 C2674 1.523 . S
C2674 C2655 1.368 1_565 S
C2674 C2668 1.368 . S
C2674 C2673 1.523 . S
C2675 C2659 1.429 1_565 S
C2675 C2671 1.429 . S
C2675 C2676 1.523 . S
C2676 C2660 1.368 . S
C2676 C2672 1.368 1_565 S
C2676 C2675 1.523 . S
H2677 C2652 0.950 . S
H2678 C2654 0.950 . S
H2679 C2655 0.949 . S
H2680 C2657 0.950 . S
H2681 C2659 0.950 . S
C2682 C2683 1.349 . S
C2682 C2684 1.327 . S
C2682 H2707 0.950 . S
C2683 C2682 1.349 . S
C2683 C2699 1.299 1_565 S
C2684 C2682 1.327 . S
C2684 C2703 1.429 . S
C2684 H2708 0.950 . S
C2685 C2702 1.574 . S
C2685 C2704 1.368 1_545 S
C2685 H2709 0.949 . S
H2686 C2690 0.949 . S
C2687 C2688 1.349 1_545 S
C2687 C2689 1.327 . S
C2687 H2710 0.950 . S
C2688 C2687 1.349 1_565 S
C2688 C2700 1.349 . S
C2689 C2687 1.327 . S
C2689 C2705 1.429 1_545 S
C2689 H2711 0.950 . S
C2690 H2686 0.949 . S
C2690 C2698 1.574 . S
C2690 C2706 1.368 . S
H2691 C2699 0.971 . S
H2692 C2697 0.950 . S
H2693 C2698 0.949 . S
H2694 C2700 0.950 . S
H2695 C2701 0.950 . S
H2696 C2702 0.949 . S
C2697 H2692 0.950 . S
C2697 C2699 1.359 . S
C2697 C2703 1.429 1_545 S
C2698 C2690 1.574 . S
C2698 H2693 0.949 . S
C2698 C2704 1.368 . S
C2699 C2683 1.299 1_545 S
C2699 H2691 0.971 . S
C2699 C2697 1.359 . S
C2700 C2688 1.349 . S
C2700 H2694 0.950 . S
C2700 C2701 1.327 . S
C2701 H2695 0.950 . S
C2701 C2700 1.327 . S
C2701 C2705 1.429 . S
C2702 C2685 1.574 . S
C2702 H2696 0.949 . S
C2702 C2706 1.368 1_545 S
C2703 C2684 1.429 . S
C2703 C2697 1.429 1_565 S
C2703 C2704 1.523 . S
C2704 C2685 1.368 1_565 S
C2704 C2698 1.368 . S
C2704 C2703 1.523 . S
C2705 C2689 1.429 1_565 S
C2705 C2701 1.429 . S
C2705 C2706 1.523 . S
C2706 C2690 1.368 . S
C2706 C2702 1.368 1_565 S
C2706 C2705 1.523 . S
H2707 C2682 0.950 . S
H2708 C2684 0.950 . S
H2709 C2685 0.949 . S
H2710 C2687 0.950 . S
H2711 C2689 0.950 . S
C2712 C2713 1.349 . S
C2712 C2714 1.327 . S
C2712 H2737 0.950 . S
C2713 C2712 1.349 . S
C2713 C2729 1.349 1_455 S
C2714 C2712 1.327 . S
C2714 C2733 1.429 . S
C2714 H2738 0.950 . S
C2715 C2732 1.574 . S
C2715 C2734 1.368 1_655 S
C2715 H2739 0.949 . S
H2716 C2720 0.949 . S
C2717 C2718 1.349 1_655 S
C2717 C2719 1.327 . S
C2717 H2740 0.950 . S
C2718 C2717 1.349 1_455 S
C2718 C2730 1.349 . S
C2719 C2717 1.327 . S
C2719 C2735 1.429 1_655 S
C2719 H2741 0.950 . S
C2720 H2716 0.949 . S
C2720 C2728 1.574 . S
C2720 C2736 1.368 . S
H2721 C2729 0.950 . S
H2722 C2727 0.950 . S
H2723 C2728 0.949 . S
H2724 C2730 0.950 . S
H2725 C2731 0.950 . S
H2726 C2732 0.949 . S
C2727 H2722 0.950 . S
C2727 C2729 1.327 . S
C2727 C2733 1.429 1_655 S
C2728 C2720 1.574 . S
C2728 H2723 0.949 . S
C2728 C2734 1.368 . S
C2729 C2713 1.349 1_655 S
C2729 H2721 0.950 . S
C2729 C2727 1.327 . S
C2730 C2718 1.349 . S
C2730 H2724 0.950 . S
C2730 C2731 1.327 . S
C2731 H2725 0.950 . S
C2731 C2730 1.327 . S
C2731 C2735 1.429 . S
C2732 C2715 1.574 . S
C2732 H2726 0.949 . S
C2732 C2736 1.368 1_655 S
C2733 C2714 1.429 . S
C2733 C2727 1.429 1_455 S
C2733 C2734 1.523 . S
C2734 C2715 1.368 1_455 S
C2734 C2728 1.368 . S
C2734 C2733 1.523 . S
C2735 C2719 1.429 1_455 S
C2735 C2731 1.429 . S
C2735 C2736 1.523 . S
C2736 C2720 1.368 . S
C2736 C2732 1.368 1_455 S
C2736 C2735 1.523 . S
H2737 C2712 0.950 . S
H2738 C2714 0.950 . S
H2739 C2715 0.949 . S
H2740 C2717 0.950 . S
H2741 C2719 0.950 . S
C2742 C2743 1.349 . S
C2742 C2744 1.327 . S
C2742 H2767 0.950 . S
C2743 C2742 1.349 . S
C2743 C2759 1.349 . S
C2744 C2742 1.327 . S
C2744 C2763 1.429 . S
C2744 H2768 0.950 . S
C2745 C2762 1.574 . S
C2745 C2764 1.368 . S
C2745 H2769 0.949 . S
H2746 C2750 0.949 . S
C2747 C2748 1.349 . S
C2747 C2749 1.327 . S
C2747 H2770 0.950 . S
C2748 C2747 1.349 . S
C2748 C2760 1.349 . S
C2749 C2747 1.327 . S
C2749 C2765 1.429 . S
C2749 H2771 0.950 . S
C2750 H2746 0.949 . S
C2750 C2758 1.574 . S
C2750 C2766 1.368 . S
H2751 C2759 0.950 . S
H2752 C2757 0.950 . S
H2753 C2758 0.949 . S
H2754 C2760 0.950 . S
H2755 C2761 0.950 . S
H2756 C2762 0.949 . S
C2757 H2752 0.950 . S
C2757 C2759 1.327 . S
C2757 C2763 1.429 . S
C2758 C2750 1.574 . S
C2758 H2753 0.949 . S
C2758 C2764 1.368 . S
C2759 C2743 1.349 . S
C2759 H2751 0.950 . S
C2759 C2757 1.327 . S
C2760 C2748 1.349 . S
C2760 H2754 0.950 . S
C2760 C2761 1.327 . S
C2761 H2755 0.950 . S
C2761 C2760 1.327 . S
C2761 C2765 1.429 . S
C2762 C2745 1.574 . S
C2762 H2756 0.949 . S
C2762 C2766 1.368 . S
C2763 C2744 1.429 . S
C2763 C2757 1.429 . S
C2763 C2764 1.523 . S
C2764 C2745 1.368 . S
C2764 C2758 1.368 . S
C2764 C2763 1.523 . S
C2765 C2749 1.429 . S
C2765 C2761 1.429 . S
C2765 C2766 1.523 . S
C2766 C2750 1.368 . S
C2766 C2762 1.368 . S
C2766 C2765 1.523 . S
H2767 C2742 0.950 . S
H2768 C2744 0.950 . S
H2769 C2745 0.949 . S
H2770 C2747 0.950 . S
H2771 C2749 0.950 . S
C2772 C2773 1.349 . S
C2772 C2774 1.327 . S
C2772 H2797 0.950 . S
C2773 C2772 1.349 . S
C2773 C2789 1.349 . S
C2774 C2772 1.327 . S
C2774 C2793 1.429 . S
C2774 H2798 0.950 . S
C2775 C2792 1.574 . S
C2775 C2794 1.368 . S
C2775 H2799 0.949 . S
H2776 C2780 0.949 . S
C2777 C2778 1.349 . S
C2777 C2779 1.327 . S
C2777 H2800 0.950 . S
C2778 C2777 1.349 . S
C2778 C2790 1.349 . S
C2779 C2777 1.327 . S
C2779 C2795 1.429 . S
C2779 H2801 0.950 . S
C2780 H2776 0.949 . S
C2780 C2788 1.574 . S
C2780 C2796 1.368 . S
H2781 C2789 0.950 . S
H2782 C2787 0.950 . S
H2783 C2788 0.949 . S
H2784 C2790 0.950 . S
H2785 C2791 0.950 . S
H2786 C2792 0.949 . S
C2787 H2782 0.950 . S
C2787 C2789 1.327 . S
C2787 C2793 1.429 . S
C2788 C2780 1.574 . S
C2788 H2783 0.949 . S
C2788 C2794 1.368 . S
C2789 C2773 1.349 . S
C2789 H2781 0.950 . S
C2789 C2787 1.327 . S
C2790 C2778 1.349 . S
C2790 H2784 0.950 . S
C2790 C2791 1.327 . S
C2791 H2785 0.950 . S
C2791 C2790 1.327 . S
C2791 C2795 1.429 . S
C2792 C2775 1.574 . S
C2792 H2786 0.949 . S
C2792 C2796 1.368 . S
C2793 C2774 1.429 . S
C2793 C2787 1.429 . S
C2793 C2794 1.523 . S
C2794 C2775 1.368 . S
C2794 C2788 1.368 . S
C2794 C2793 1.523 . S
C2795 C2779 1.429 . S
C2795 C2791 1.429 . S
C2795 C2796 1.523 . S
C2796 C2780 1.368 . S
C2796 C2792 1.368 . S
C2796 C2795 1.523 . S
H2797 C2772 0.950 . S
H2798 C2774 0.950 . S
H2799 C2775 0.949 . S
H2800 C2777 0.950 . S
H2801 C2779 0.950 . S
C2802 C2803 1.349 . S
C2802 C2804 1.327 . S
C2802 H2827 0.950 . S
C2803 C2802 1.349 . S
C2803 C2819 1.349 . S
C2804 C2802 1.327 . S
C2804 C2823 1.429 . S
C2804 H2828 0.950 . S
C2805 C2822 1.574 . S
C2805 C2824 1.368 . S
C2805 H2829 0.949 . S
H2806 C2810 0.949 . S
C2807 C2808 1.349 . S
C2807 C2809 1.327 . S
C2807 H2830 0.950 . S
C2808 C2807 1.349 . S
C2808 C2820 1.349 . S
C2809 C2807 1.327 . S
C2809 C2825 1.429 . S
C2809 H2831 0.950 . S
C2810 H2806 0.949 . S
C2810 C2818 1.574 . S
C2810 C2826 1.368 . S
H2811 C2819 0.950 . S
H2812 C2817 0.950 . S
H2813 C2818 0.949 . S
H2814 C2820 0.950 . S
H2815 C2821 0.950 . S
H2816 C2822 0.949 . S
C2817 H2812 0.950 . S
C2817 C2819 1.327 . S
C2817 C2823 1.429 . S
C2818 C2810 1.574 . S
C2818 H2813 0.949 . S
C2818 C2824 1.368 . S
C2819 C2803 1.349 . S
C2819 H2811 0.950 . S
C2819 C2817 1.327 . S
C2820 C2808 1.349 . S
C2820 H2814 0.950 . S
C2820 C2821 1.327 . S
C2821 H2815 0.950 . S
C2821 C2820 1.327 . S
C2821 C2825 1.429 . S
C2822 C2805 1.574 . S
C2822 H2816 0.949 . S
C2822 C2826 1.368 . S
C2823 C2804 1.429 . S
C2823 C2817 1.429 . S
C2823 C2824 1.523 . S
C2824 C2805 1.368 . S
C2824 C2818 1.368 . S
C2824 C2823 1.523 . S
C2825 C2809 1.429 . S
C2825 C2821 1.429 . S
C2825 C2826 1.523 . S
C2826 C2810 1.368 . S
C2826 C2822 1.368 . S
C2826 C2825 1.523 . S
H2827 C2802 0.950 . S
H2828 C2804 0.950 . S
H2829 C2805 0.949 . S
H2830 C2807 0.950 . S
H2831 C2809 0.950 . S
C2832 C2833 1.349 . S
C2832 C2834 1.327 . S
C2832 H2857 0.950 . S
C2833 C2832 1.349 . S
C2833 C2849 1.349 . S
C2834 C2832 1.327 . S
C2834 C2853 1.429 . S
C2834 H2858 0.950 . S
C2835 C2852 1.574 . S
C2835 C2854 1.368 . S
C2835 H2859 0.949 . S
H2836 C2840 0.949 . S
C2837 C2838 1.349 . S
C2837 C2839 1.327 . S
C2837 H2860 0.950 . S
C2838 C2837 1.349 . S
C2838 C2850 1.349 . S
C2839 C2837 1.327 . S
C2839 C2855 1.429 . S
C2839 H2861 0.950 . S
C2840 H2836 0.949 . S
C2840 C2848 1.574 . S
C2840 C2856 1.368 . S
H2841 C2849 0.950 . S
H2842 C2847 0.950 . S
H2843 C2848 0.949 . S
H2844 C2850 0.950 . S
H2845 C2851 0.950 . S
H2846 C2852 0.949 . S
C2847 H2842 0.950 . S
C2847 C2849 1.327 . S
C2847 C2853 1.429 . S
C2848 C2840 1.574 . S
C2848 H2843 0.949 . S
C2848 C2854 1.368 . S
C2849 C2833 1.349 . S
C2849 H2841 0.950 . S
C2849 C2847 1.327 . S
C2850 C2838 1.349 . S
C2850 H2844 0.950 . S
C2850 C2851 1.327 . S
C2851 H2845 0.950 . S
C2851 C2850 1.327 . S
C2851 C2855 1.429 . S
C2852 C2835 1.574 . S
C2852 H2846 0.949 . S
C2852 C2856 1.368 . S
C2853 C2834 1.429 . S
C2853 C2847 1.429 . S
C2853 C2854 1.523 . S
C2854 C2835 1.368 . S
C2854 C2848 1.368 . S
C2854 C2853 1.523 . S
C2855 C2839 1.429 . S
C2855 C2851 1.429 . S
C2855 C2856 1.523 . S
C2856 C2840 1.368 . S
C2856 C2852 1.368 . S
C2856 C2855 1.523 . S
H2857 C2832 0.950 . S
H2858 C2834 0.950 . S
H2859 C2835 0.949 . S
H2860 C2837 0.950 . S
H2861 C2839 0.950 . S
C2862 C2863 1.349 . S
C2862 C2864 1.347 . S
C2862 H2887 0.950 1_545 S
C2863 C2862 1.349 . S
C2863 C2879 1.349 . S
C2864 C2862 1.347 . S
C2864 C2883 1.445 . S
C2864 H2888 0.913 1_545 S
C2865 C2882 1.574 . S
C2865 C2884 1.368 . S
C2865 H2889 0.949 . S
H2866 C2870 0.949 . S
C2867 C2868 1.349 . S
C2867 C2869 1.327 . S
C2867 H2890 0.950 . S
C2868 C2867 1.349 . S
C2868 C2880 1.349 1_545 S
C2869 C2867 1.327 . S
C2869 C2885 1.429 . S
C2869 H2891 0.950 . S
C2870 H2866 0.949 . S
C2870 C2878 1.574 . S
C2870 C2886 1.368 1_565 S
H2871 C2879 0.950 . S
H2872 C2877 0.950 . S
H2873 C2878 0.949 . S
H2874 C2880 0.950 . S
H2875 C2881 0.950 . S
H2876 C2882 0.949 . S
C2877 H2872 0.950 . S
C2877 C2879 1.327 . S
C2877 C2883 1.429 . S
C2878 C2870 1.574 . S
C2878 H2873 0.949 . S
C2878 C2884 1.368 1_565 S
C2879 C2863 1.349 . S
C2879 H2871 0.950 . S
C2879 C2877 1.327 . S
C2880 C2868 1.349 1_565 S
C2880 H2874 0.950 . S
C2880 C2881 1.327 . S
C2881 H2875 0.950 . S
C2881 C2880 1.327 . S
C2881 C2885 1.429 1_565 S
C2882 C2865 1.574 . S
C2882 H2876 0.949 . S
C2882 C2886 1.368 . S
C2883 C2864 1.445 . S
C2883 C2877 1.429 . S
C2883 C2884 1.523 . S
C2884 C2865 1.368 . S
C2884 C2878 1.368 1_545 S
C2884 C2883 1.523 . S
C2885 C2869 1.429 . S
C2885 C2881 1.429 1_545 S
C2885 C2886 1.523 . S
C2886 C2870 1.368 1_545 S
C2886 C2882 1.368 . S
C2886 C2885 1.523 . S
H2887 C2862 0.950 1_565 S
H2888 C2864 0.913 1_565 S
H2889 C2865 0.949 . S
H2890 C2867 0.950 . S
H2891 C2869 0.950 . S
C2892 C2893 1.349 . S
C2892 C2894 1.327 . S
C2892 H2917 0.950 . S
C2893 C2892 1.349 . S
C2893 C2909 1.349 . S
C2894 C2892 1.327 . S
C2894 C2913 1.429 . S
C2894 H2918 0.948 . S
C2895 C2912 1.574 . S
C2895 C2914 1.368 . S
C2895 H2919 0.949 . S
H2896 C2900 0.930 1_455 S
C2897 C2898 1.349 . S
C2897 C2899 1.327 . S
C2897 H2920 0.950 . S
C2898 C2897 1.349 . S
C2898 C2910 1.349 1_655 S
C2899 C2897 1.327 . S
C2899 C2915 1.429 . S
C2899 H2921 0.950 . S
C2900 H2896 0.930 1_655 S
C2900 C2908 1.551 . S
C2900 C2916 1.416 . S
H2901 C2909 0.950 . S
H2902 C2907 0.950 . S
H2903 C2908 0.949 1_455 S
H2904 C2910 0.950 . S
H2905 C2911 0.950 . S
H2906 C2912 0.949 . S
C2907 H2902 0.950 . S
C2907 C2909 1.327 . S
C2907 C2913 1.429 . S
C2908 C2900 1.551 . S
C2908 H2903 0.949 1_655 S
C2908 C2914 1.368 . S
C2909 C2893 1.349 . S
C2909 H2901 0.950 . S
C2909 C2907 1.327 . S
C2910 C2898 1.349 1_455 S
C2910 H2904 0.950 . S
C2910 C2911 1.327 . S
C2911 H2905 0.950 . S
C2911 C2910 1.327 . S
C2911 C2915 1.429 1_455 S
C2912 C2895 1.574 . S
C2912 H2906 0.949 . S
C2912 C2916 1.368 . S
C2913 C2894 1.429 . S
C2913 C2907 1.429 . S
C2913 C2914 1.523 . S
C2914 C2895 1.368 . S
C2914 C2908 1.368 . S
C2914 C2913 1.523 . S
C2915 C2899 1.429 . S
C2915 C2911 1.429 1_655 S
C2915 C2916 1.523 . S
C2916 C2900 1.416 . S
C2916 C2912 1.368 . S
C2916 C2915 1.523 . S
H2917 C2892 0.950 . S
H2918 C2894 0.948 . S
H2919 C2895 0.949 . S
H2920 C2897 0.950 . S
H2921 C2899 0.950 . S
C2922 C2923 1.349 . S
C2922 C2924 1.327 . S
C2922 H2947 0.950 . S
C2923 C2922 1.349 . S
C2923 C2939 1.349 . S
C2924 C2922 1.327 . S
C2924 C2943 1.429 . S
C2924 H2948 0.950 . S
C2925 C2942 1.574 . S
C2925 C2944 1.368 . S
C2925 H2949 0.949 . S
H2926 C2930 0.949 . S
C2927 C2928 1.349 . S
C2927 C2929 1.327 . S
C2927 H2950 0.950 . S
C2928 C2927 1.349 . S
C2928 C2940 1.349 . S
C2929 C2927 1.327 . S
C2929 C2945 1.429 . S
C2929 H2951 0.950 . S
C2930 H2926 0.949 . S
C2930 C2938 1.574 . S
C2930 C2946 1.368 . S
H2931 C2939 0.950 . S
H2932 C2937 0.950 . S
H2933 C2938 0.949 . S
H2934 C2940 0.950 . S
H2935 C2941 0.950 . S
H2936 C2942 0.949 . S
C2937 H2932 0.950 . S
C2937 C2939 1.327 . S
C2937 C2943 1.429 . S
C2938 C2930 1.574 . S
C2938 H2933 0.949 . S
C2938 C2944 1.368 . S
C2939 C2923 1.349 . S
C2939 H2931 0.950 . S
C2939 C2937 1.327 . S
C2940 C2928 1.349 . S
C2940 H2934 0.950 . S
C2940 C2941 1.327 . S
C2941 H2935 0.950 . S
C2941 C2940 1.327 . S
C2941 C2945 1.429 . S
C2942 C2925 1.574 . S
C2942 H2936 0.949 . S
C2942 C2946 1.368 . S
C2943 C2924 1.429 . S
C2943 C2937 1.429 . S
C2943 C2944 1.523 . S
C2944 C2925 1.368 . S
C2944 C2938 1.368 . S
C2944 C2943 1.523 . S
C2945 C2929 1.429 . S
C2945 C2941 1.429 . S
C2945 C2946 1.523 . S
C2946 C2930 1.368 . S
C2946 C2942 1.368 . S
C2946 C2945 1.523 . S
H2947 C2922 0.950 . S
H2948 C2924 0.950 . S
H2949 C2925 0.949 . S
H2950 C2927 0.950 . S
H2951 C2929 0.950 . S
C2952 C2953 1.349 . S
C2952 C2954 1.327 . S
C2952 H2977 0.950 . S
C2953 C2952 1.349 . S
C2953 C2969 1.349 . S
C2954 C2952 1.327 . S
C2954 C2973 1.429 . S
C2954 H2978 0.950 . S
C2955 C2972 1.574 . S
C2955 C2974 1.368 . S
C2955 H2979 0.949 . S
H2956 C2960 0.949 . S
C2957 C2958 1.349 . S
C2957 C2959 1.327 . S
C2957 H2980 0.950 . S
C2958 C2957 1.349 . S
C2958 C2970 1.349 . S
C2959 C2957 1.327 . S
C2959 C2975 1.429 . S
C2959 H2981 0.950 . S
C2960 H2956 0.949 . S
C2960 C2968 1.574 . S
C2960 C2976 1.368 . S
H2961 C2969 0.950 . S
H2962 C2967 0.950 . S
H2963 C2968 0.949 . S
H2964 C2970 0.950 . S
H2965 C2971 0.950 . S
H2966 C2972 0.949 . S
C2967 H2962 0.950 . S
C2967 C2969 1.327 . S
C2967 C2973 1.429 . S
C2968 C2960 1.574 . S
C2968 H2963 0.949 . S
C2968 C2974 1.368 . S
C2969 C2953 1.349 . S
C2969 H2961 0.950 . S
C2969 C2967 1.327 . S
C2970 C2958 1.349 . S
C2970 H2964 0.950 . S
C2970 C2971 1.327 . S
C2971 H2965 0.950 . S
C2971 C2970 1.327 . S
C2971 C2975 1.429 . S
C2972 C2955 1.574 . S
C2972 H2966 0.949 . S
C2972 C2976 1.368 . S
C2973 C2954 1.429 . S
C2973 C2967 1.429 . S
C2973 C2974 1.523 . S
C2974 C2955 1.368 . S
C2974 C2968 1.368 . S
C2974 C2973 1.523 . S
C2975 C2959 1.429 . S
C2975 C2971 1.429 . S
C2975 C2976 1.523 . S
C2976 C2960 1.368 . S
C2976 C2972 1.368 . S
C2976 C2975 1.523 . S
H2977 C2952 0.950 . S
H2978 C2954 0.950 . S
H2979 C2955 0.949 . S
H2980 C2957 0.950 . S
H2981 C2959 0.950 . S
C2982 C2983 1.349 . S
C2982 C2984 1.327 . S
C2982 H3007 0.950 . S
C2983 C2982 1.349 . S
C2983 C2999 1.349 . S
C2984 C2982 1.327 . S
C2984 C3003 1.429 . S
C2984 H3008 0.950 . S
C2985 C3002 1.574 . S
C2985 C3004 1.368 . S
C2985 H3009 0.949 . S
H2986 C2990 0.949 . S
C2987 C2988 1.349 . S
C2987 C2989 1.327 . S
C2987 H3010 0.950 . S
C2988 C2987 1.349 . S
C2988 C3000 1.349 . S
C2989 C2987 1.327 . S
C2989 C3005 1.429 . S
C2989 H3011 0.950 . S
C2990 H2986 0.949 . S
C2990 C2998 1.574 . S
C2990 C3006 1.368 . S
H2991 C2999 0.950 . S
H2992 C2997 0.950 . S
H2993 C2998 0.949 . S
H2994 C3000 0.950 . S
H2995 C3001 0.950 . S
H2996 C3002 0.949 . S
C2997 H2992 0.950 . S
C2997 C2999 1.327 . S
C2997 C3003 1.429 . S
C2998 C2990 1.574 . S
C2998 H2993 0.949 . S
C2998 C3004 1.368 . S
C2999 C2983 1.349 . S
C2999 H2991 0.950 . S
C2999 C2997 1.327 . S
C3000 C2988 1.349 . S
C3000 H2994 0.950 . S
C3000 C3001 1.327 . S
C3001 H2995 0.950 . S
C3001 C3000 1.327 . S
C3001 C3005 1.429 . S
C3002 C2985 1.574 . S
C3002 H2996 0.949 . S
C3002 C3006 1.368 . S
C3003 C2984 1.429 . S
C3003 C2997 1.429 . S
C3003 C3004 1.523 . S
C3004 C2985 1.368 . S
C3004 C2998 1.368 . S
C3004 C3003 1.523 . S
C3005 C2989 1.429 . S
C3005 C3001 1.429 . S
C3005 C3006 1.523 . S
C3006 C2990 1.368 . S
C3006 C3002 1.368 . S
C3006 C3005 1.523 . S
H3007 C2982 0.950 . S
H3008 C2984 0.950 . S
H3009 C2985 0.949 . S
H3010 C2987 0.950 . S
H3011 C2989 0.950 . S
C3012 C3013 1.349 . S
C3012 C3014 1.327 . S
C3012 H3037 0.950 . S
C3013 C3012 1.349 . S
C3013 C3029 1.349 . S
C3014 C3012 1.327 . S
C3014 C3033 1.429 . S
C3014 H3038 0.950 . S
C3015 C3032 1.574 . S
C3015 C3034 1.368 . S
C3015 H3039 0.949 . S
H3016 C3020 0.949 . S
C3017 C3018 1.349 . S
C3017 C3019 1.327 . S
C3017 H3040 0.950 . S
C3018 C3017 1.349 . S
C3018 C3030 1.349 . S
C3019 C3017 1.327 . S
C3019 C3035 1.429 . S
C3019 H3041 0.950 . S
C3020 H3016 0.949 . S
C3020 C3028 1.574 . S
C3020 C3036 1.368 . S
H3021 C3029 0.950 . S
H3022 C3027 0.950 . S
H3023 C3028 0.949 . S
H3024 C3030 0.950 . S
H3025 C3031 0.950 . S
H3026 C3032 0.949 . S
C3027 H3022 0.950 . S
C3027 C3029 1.327 . S
C3027 C3033 1.429 . S
C3028 C3020 1.574 . S
C3028 H3023 0.949 . S
C3028 C3034 1.368 . S
C3029 C3013 1.349 . S
C3029 H3021 0.950 . S
C3029 C3027 1.327 . S
C3030 C3018 1.349 . S
C3030 H3024 0.950 . S
C3030 C3031 1.327 . S
C3031 H3025 0.950 . S
C3031 C3030 1.327 . S
C3031 C3035 1.429 . S
C3032 C3015 1.574 . S
C3032 H3026 0.949 . S
C3032 C3036 1.368 . S
C3033 C3014 1.429 . S
C3033 C3027 1.429 . S
C3033 C3034 1.523 . S
C3034 C3015 1.368 . S
C3034 C3028 1.368 . S
C3034 C3033 1.523 . S
C3035 C3019 1.429 . S
C3035 C3031 1.429 . S
C3035 C3036 1.523 . S
C3036 C3020 1.368 . S
C3036 C3032 1.368 . S
C3036 C3035 1.523 . S
H3037 C3012 0.950 . S
H3038 C3014 0.950 . S
H3039 C3015 0.949 . S
H3040 C3017 0.950 . S
H3041 C3019 0.950 . S
C3042 C3043 1.349 . S
C3042 C3044 1.327 . S
C3042 H3067 0.950 . S
C3043 C3042 1.349 . S
C3043 C3059 1.349 . S
C3044 C3042 1.327 . S
C3044 C3063 1.429 . S
C3044 H3068 0.950 . S
C3045 C3062 1.574 . S
C3045 C3064 1.368 . S
C3045 H3069 0.949 . S
H3046 C3050 0.949 . S
C3047 C3048 1.349 . S
C3047 C3049 1.327 . S
C3047 H3070 0.950 . S
C3048 C3047 1.349 . S
C3048 C3060 1.349 . S
C3049 C3047 1.327 . S
C3049 C3065 1.429 . S
C3049 H3071 0.950 . S
C3050 H3046 0.949 . S
C3050 C3058 1.574 . S
C3050 C3066 1.368 . S
H3051 C3059 0.950 . S
H3052 C3057 0.950 . S
H3053 C3058 0.949 . S
H3054 C3060 0.950 . S
H3055 C3061 0.950 . S
H3056 C3062 0.949 . S
C3057 H3052 0.950 . S
C3057 C3059 1.327 . S
C3057 C3063 1.429 . S
C3058 C3050 1.574 . S
C3058 H3053 0.949 . S
C3058 C3064 1.368 . S
C3059 C3043 1.349 . S
C3059 H3051 0.950 . S
C3059 C3057 1.327 . S
C3060 C3048 1.349 . S
C3060 H3054 0.950 . S
C3060 C3061 1.327 . S
C3061 H3055 0.950 . S
C3061 C3060 1.327 . S
C3061 C3065 1.429 . S
C3062 C3045 1.574 . S
C3062 H3056 0.949 . S
C3062 C3066 1.368 . S
C3063 C3044 1.429 . S
C3063 C3057 1.429 . S
C3063 C3064 1.523 . S
C3064 C3045 1.368 . S
C3064 C3058 1.368 . S
C3064 C3063 1.523 . S
C3065 C3049 1.429 . S
C3065 C3061 1.429 . S
C3065 C3066 1.523 . S
C3066 C3050 1.368 . S
C3066 C3062 1.368 . S
C3066 C3065 1.523 . S
H3067 C3042 0.950 . S
H3068 C3044 0.950 . S
H3069 C3045 0.949 . S
H3070 C3047 0.950 . S
H3071 C3049 0.950 . S
C3072 C3073 1.349 . S
C3072 C3074 1.327 . S
C3072 H3097 0.950 . S
C3073 C3072 1.349 . S
C3073 C3089 1.349 . S
C3074 C3072 1.327 . S
C3074 C3093 1.429 . S
C3074 H3098 0.950 . S
C3075 C3092 1.574 . S
C3075 C3094 1.368 . S
C3075 H3099 0.949 . S
H3076 C3080 0.949 . S
C3077 C3078 1.349 . S
C3077 C3079 1.327 . S
C3077 H3100 0.950 . S
C3078 C3077 1.349 . S
C3078 C3090 1.349 . S
C3079 C3077 1.327 . S
C3079 C3095 1.429 . S
C3079 H3101 0.950 . S
C3080 H3076 0.949 . S
C3080 C3088 1.574 . S
C3080 C3096 1.368 . S
H3081 C3089 0.950 . S
H3082 C3087 0.950 . S
H3083 C3088 0.949 . S
H3084 C3090 0.950 . S
H3085 C3091 0.950 . S
H3086 C3092 0.949 . S
C3087 H3082 0.950 . S
C3087 C3089 1.327 . S
C3087 C3093 1.429 . S
C3088 C3080 1.574 . S
C3088 H3083 0.949 . S
C3088 C3094 1.368 . S
C3089 C3073 1.349 . S
C3089 H3081 0.950 . S
C3089 C3087 1.327 . S
C3090 C3078 1.349 . S
C3090 H3084 0.950 . S
C3090 C3091 1.327 . S
C3091 H3085 0.950 . S
C3091 C3090 1.327 . S
C3091 C3095 1.429 . S
C3092 C3075 1.574 . S
C3092 H3086 0.949 . S
C3092 C3096 1.368 . S
C3093 C3074 1.429 . S
C3093 C3087 1.429 . S
C3093 C3094 1.523 . S
C3094 C3075 1.368 . S
C3094 C3088 1.368 . S
C3094 C3093 1.523 . S
C3095 C3079 1.429 . S
C3095 C3091 1.429 . S
C3095 C3096 1.523 . S
C3096 C3080 1.368 . S
C3096 C3092 1.368 . S
C3096 C3095 1.523 . S
H3097 C3072 0.950 . S
H3098 C3074 0.950 . S
H3099 C3075 0.949 . S
H3100 C3077 0.950 . S
H3101 C3079 0.950 . S
C3102 C3103 1.349 . S
C3102 C3104 1.327 . S
C3102 H3127 0.950 . S
C3103 C3102 1.349 . S
C3103 C3119 1.349 . S
C3104 C3102 1.327 . S
C3104 C3123 1.429 . S
C3104 H3128 0.950 . S
C3105 C3122 1.574 . S
C3105 C3124 1.368 . S
C3105 H3129 0.949 . S
H3106 C3110 0.949 . S
C3107 C3108 1.349 . S
C3107 C3109 1.327 . S
C3107 H3130 0.950 . S
C3108 C3107 1.349 . S
C3108 C3120 1.349 . S
C3109 C3107 1.327 . S
C3109 C3125 1.429 . S
C3109 H3131 0.950 . S
C3110 H3106 0.949 . S
C3110 C3118 1.574 . S
C3110 C3126 1.368 . S
H3111 C3119 0.950 . S
H3112 C3117 0.950 . S
H3113 C3118 0.949 . S
H3114 C3120 0.950 . S
H3115 C3121 0.950 . S
H3116 C3122 0.949 . S
C3117 H3112 0.950 . S
C3117 C3119 1.327 . S
C3117 C3123 1.429 . S
C3118 C3110 1.574 . S
C3118 H3113 0.949 . S
C3118 C3124 1.368 . S
C3119 C3103 1.349 . S
C3119 H3111 0.950 . S
C3119 C3117 1.327 . S
C3120 C3108 1.349 . S
C3120 H3114 0.950 . S
C3120 C3121 1.327 . S
C3121 H3115 0.950 . S
C3121 C3120 1.327 . S
C3121 C3125 1.429 . S
C3122 C3105 1.574 . S
C3122 H3116 0.949 . S
C3122 C3126 1.368 . S
C3123 C3104 1.429 . S
C3123 C3117 1.429 . S
C3123 C3124 1.523 . S
C3124 C3105 1.368 . S
C3124 C3118 1.368 . S
C3124 C3123 1.523 . S
C3125 C3109 1.429 . S
C3125 C3121 1.429 . S
C3125 C3126 1.523 . S
C3126 C3110 1.368 . S
C3126 C3122 1.368 . S
C3126 C3125 1.523 . S
H3127 C3102 0.950 . S
H3128 C3104 0.950 . S
H3129 C3105 0.949 . S
H3130 C3107 0.950 . S
H3131 C3109 0.950 . S
C3132 C3133 1.349 . S
C3132 C3134 1.327 . S
C3132 H3157 0.950 . S
C3133 C3132 1.349 . S
C3133 C3149 1.349 . S
C3134 C3132 1.327 . S
C3134 C3153 1.429 . S
C3134 H3158 0.950 . S
C3135 C3152 1.574 . S
C3135 C3154 1.368 . S
C3135 H3159 0.949 . S
H3136 C3140 0.949 . S
C3137 C3138 1.349 1_455 S
C3137 C3139 1.294 1_455 S
C3137 H3160 0.951 . S
C3138 C3137 1.349 1_655 S
C3138 C3150 1.349 . S
C3139 C3137 1.294 1_655 S
C3139 C3155 1.478 . S
C3139 H3161 0.937 1_655 S
C3140 H3136 0.949 . S
C3140 C3148 1.574 . S
C3140 C3156 1.368 . S
H3141 C3149 0.950 . S
H3142 C3147 0.950 . S
H3143 C3148 0.949 . S
H3144 C3150 0.950 . S
H3145 C3151 0.950 . S
H3146 C3152 0.931 1_455 S
C3147 H3142 0.950 . S
C3147 C3149 1.327 . S
C3147 C3153 1.429 . S
C3148 C3140 1.574 . S
C3148 H3143 0.949 . S
C3148 C3154 1.368 . S
C3149 C3133 1.349 . S
C3149 H3141 0.950 . S
C3149 C3147 1.327 . S
C3150 C3138 1.349 . S
C3150 H3144 0.950 . S
C3150 C3151 1.327 . S
C3151 H3145 0.950 . S
C3151 C3150 1.327 . S
C3151 C3155 1.429 . S
C3152 C3135 1.574 . S
C3152 H3146 0.931 1_655 S
C3152 C3156 1.368 . S
C3153 C3134 1.429 . S
C3153 C3147 1.429 . S
C3153 C3154 1.523 . S
C3154 C3135 1.368 . S
C3154 C3148 1.368 . S
C3154 C3153 1.523 . S
C3155 C3139 1.478 . S
C3155 C3151 1.429 . S
C3155 C3156 1.523 . S
C3156 C3140 1.368 . S
C3156 C3152 1.368 . S
C3156 C3155 1.523 . S
H3157 C3132 0.950 . S
H3158 C3134 0.950 . S
H3159 C3135 0.949 . S
H3160 C3137 0.951 . S
H3161 C3139 0.937 1_455 S
C3162 C3163 1.349 . S
C3162 C3164 1.327 . S
C3162 H3187 0.950 . S
C3163 C3162 1.349 . S
C3163 C3179 1.349 . S
C3164 C3162 1.327 . S
C3164 C3183 1.429 . S
C3164 H3188 0.950 . S
C3165 C3182 1.574 . S
C3165 C3184 1.368 . S
C3165 H3189 0.949 . S
H3166 C3170 0.949 . S
C3167 C3168 1.349 . S
C3167 C3169 1.327 . S
C3167 H3190 0.950 . S
C3168 C3167 1.349 . S
C3168 C3180 1.349 . S
C3169 C3167 1.327 . S
C3169 C3185 1.429 . S
C3169 H3191 0.950 . S
C3170 H3166 0.949 . S
C3170 C3178 1.574 . S
C3170 C3186 1.368 . S
H3171 C3179 0.950 . S
H3172 C3177 0.950 . S
H3173 C3178 0.949 . S
H3174 C3180 0.950 . S
H3175 C3181 0.950 . S
H3176 C3182 0.949 . S
C3177 H3172 0.950 . S
C3177 C3179 1.327 . S
C3177 C3183 1.429 . S
C3178 C3170 1.574 . S
C3178 H3173 0.949 . S
C3178 C3184 1.368 . S
C3179 C3163 1.349 . S
C3179 H3171 0.950 . S
C3179 C3177 1.327 . S
C3180 C3168 1.349 . S
C3180 H3174 0.950 . S
C3180 C3181 1.327 . S
C3181 H3175 0.950 . S
C3181 C3180 1.327 . S
C3181 C3185 1.429 . S
C3182 C3165 1.574 . S
C3182 H3176 0.949 . S
C3182 C3186 1.368 . S
C3183 C3164 1.429 . S
C3183 C3177 1.429 . S
C3183 C3184 1.523 . S
C3184 C3165 1.368 . S
C3184 C3178 1.368 . S
C3184 C3183 1.523 . S
C3185 C3169 1.429 . S
C3185 C3181 1.429 . S
C3185 C3186 1.523 . S
C3186 C3170 1.368 . S
C3186 C3182 1.368 . S
C3186 C3185 1.523 . S
H3187 C3162 0.950 . S
H3188 C3164 0.950 . S
H3189 C3165 0.949 . S
H3190 C3167 0.950 . S
H3191 C3169 0.950 . S
C3192 C3193 1.349 . S
C3192 C3194 1.327 . S
C3192 H3217 0.950 . S
C3193 C3192 1.349 . S
C3193 C3209 1.349 . S
C3194 C3192 1.327 . S
C3194 C3213 1.429 . S
C3194 H3218 0.950 . S
C3195 C3212 1.574 . S
C3195 C3214 1.368 . S
C3195 H3219 0.949 . S
H3196 C3200 0.949 . S
C3197 C3198 1.349 . S
C3197 C3199 1.327 . S
C3197 H3220 0.950 . S
C3198 C3197 1.349 . S
C3198 C3210 1.349 . S
C3199 C3197 1.327 . S
C3199 C3215 1.429 . S
C3199 H3221 0.950 . S
C3200 H3196 0.949 . S
C3200 C3208 1.574 . S
C3200 C3216 1.368 . S
H3201 C3209 0.950 . S
H3202 C3207 0.950 . S
H3203 C3208 0.949 . S
H3204 C3210 0.949 1_565 S
H3205 C3211 0.950 . S
H3206 C3212 0.949 . S
C3207 H3202 0.950 . S
C3207 C3209 1.327 . S
C3207 C3213 1.429 . S
C3208 C3200 1.574 . S
C3208 H3203 0.949 . S
C3208 C3214 1.368 . S
C3209 C3193 1.349 . S
C3209 H3201 0.950 . S
C3209 C3207 1.327 . S
C3210 C3198 1.349 . S
C3210 H3204 0.949 1_545 S
C3210 C3211 1.327 . S
C3211 H3205 0.950 . S
C3211 C3210 1.327 . S
C3211 C3215 1.429 . S
C3212 C3195 1.574 . S
C3212 H3206 0.949 . S
C3212 C3216 1.368 . S
C3213 C3194 1.429 . S
C3213 C3207 1.429 . S
C3213 C3214 1.523 . S
C3214 C3195 1.368 . S
C3214 C3208 1.368 . S
C3214 C3213 1.523 . S
C3215 C3199 1.429 . S
C3215 C3211 1.429 . S
C3215 C3216 1.523 . S
C3216 C3200 1.368 . S
C3216 C3212 1.368 . S
C3216 C3215 1.523 . S
H3217 C3192 0.950 . S
H3218 C3194 0.950 . S
H3219 C3195 0.949 . S
H3220 C3197 0.950 . S
H3221 C3199 0.950 . S
C1063 C10 1.538 1_655 S
C1068 C670 1.552 . S
C1093 C23 1.612 . S
C1098 C716 1.602 . S
C1128 C748 1.562 . S
C1123 C29 1.563 . S
C1153 C30 1.537 1_565 S
C1158 C801 1.551 . S
C1183 C5 1.567 . S
C1188 C847 1.572 . S
C1213 C18 1.617 . S
C1218 C886 1.615 . S
C1243 C49 1.583 . S
C1248 C840 1.544 . S
C1278 C893 1.607 . S
C1273 C62 1.611 . S
C1308 C794 1.566 . S
C1303 C70 1.556 . S
C1333 C75 1.580 . S
C1338 C755 1.544 . S
C1368 C649 1.573 . S
C1363 C44 1.564 . S
C1393 C57 1.616 . S
C1398 C695 1.608 . S
C1423 C88 1.663 . S
C1428 C925 1.659 . S
C1453 C101 1.662 . S
C1458 C992 1.650 . S
C1488 C1038 1.630 . S
C1483 C107 1.639 . S
C1513 C108 1.613 . S
C1518 C249 1.602 . S
C1543 C83 1.643 . S
C1548 C295 1.634 . S
C1573 C96 1.640 . S
C1578 C341 1.629 . S
C1603 C127 1.613 . S
C1608 C288 1.602 . S
C1633 C140 1.635 . S
C1638 C334 1.623 . S
C1668 C242 1.625 . S
C1663 C146 1.634 . S
C1698 C1017 1.653 . S
C1693 C147 1.664 . S
C1728 C946 1.643 . S
C1723 C122 1.646 . S
C1758 C971 1.657 . S
C1753 C135 1.667 . S
C1783 C160 1.614 . S
C1788 C373 1.610 . S
C1813 C173 1.633 . S
C1818 C426 1.628 . S
C1843 C185 1.634 . S
C1848 C472 1.631 . S
C1873 C186 1.662 . S
C1878 C518 1.657 . S
C1908 C571 1.640 . S
C1903 C159 1.649 . S
C1938 C617 1.657 . S
C1933 C172 1.667 . S
C1968 C564 1.654 . S
C1963 C205 1.666 . S
C1998 C610 1.651 . S
C1993 C218 1.663 . S
C2023 C224 1.636 . S
C2028 C525 1.634 . S
C2058 C479 1.606 . S
C2053 C225 1.611 . S
C2083 C200 1.643 . S
C2088 C394 1.640 . S
C2118 C433 1.637 . S
C2113 C213 1.641 . S
C2148 C256 1.532 . S
C2143 C4 1.536 . S
C2173 C17 1.487 . S
C2178 C302 1.481 . S
C2208 C348 1.530 . S
C2203 C31 1.535 . S
C2238 C380 1.525 . S
C2233 C36 1.535 . S
C2268 C419 1.530 . S
C2263 C3 1.542 . S
C2298 C465 1.483 . S
C2293 C16 1.495 . S
C2323 C43 1.541 . S
C2328 C486 1.540 . S
C2353 C56 1.486 . S
C2358 C387 1.475 . S
C2383 C68 1.530 . S
C2388 C440 1.515 . S
C2413 C69 1.541 . S
C2418 C281 1.545 . S
C2448 C327 1.532 . S
C2443 C42 1.535 . S
C2473 C55 1.495 . S
C2478 C235 1.489 . S
C2508 C511 1.516 . S
C2503 C82 1.526 . S
C2533 C95 1.562 . S
C2538 C578 1.557 . S
C2563 C109 1.578 . S
C2568 C624 1.572 . S
C2598 C663 1.463 . S
C2593 C114 1.458 . S
C2623 C81 1.540 . S
C2628 C709 1.535 . S
C2653 C94 1.467 . S
C2658 C741 1.468 . S
C2683 C121 1.462 . S
C2688 C762 1.456 . S
C2713 C134 1.459 . S
C2718 C656 1.462 . S
C2748 C702 1.531 . S
C2743 C148 1.536 . S
C2773 C153 1.530 . S
C2778 C557 1.524 . S
C2803 C120 1.581 . S
C2808 C603 1.575 . S
C2838 C532 1.559 . S
C2833 C133 1.570 . S
C2868 C808 1.466 . S
C2863 C166 1.461 . S
C2893 C179 1.456 . S
C2898 C854 1.460 . S
C2923 C187 1.535 . S
C2928 C879 1.524 . S
C2958 C932 1.515 . S
C2953 C192 1.526 . S
C2988 C985 1.577 . S
C2983 C161 1.583 . S
C3013 C174 1.572 . S
C3018 C1031 1.566 . S
C3043 C199 1.531 . S
C3048 C1024 1.525 . S
C3073 C212 1.561 . S
C3078 C939 1.550 . S
C3108 C978 1.569 . S
C3103 C226 1.576 . S
C3138 C833 1.459 . S
C3133 C231 1.454 . S
C3168 C900 1.531 . S
C3163 C198 1.542 . S
C3193 C211 1.470 . S
C3198 C787 1.471 . S
