# Generated by pormake.
# Topology eea, (3,6)-cn, num edge types: 1
# Building blocks:
#     Node 0, Type 0, BuildingBlock: CUQRIR_clean_linker_1, # of connection points: 3
#     Node 1, Type 0, BuildingBlock: CUQRIR_clean_linker_1, # of connection points: 3
#     Node 2, Type 0, BuildingBlock: CUQRIR_clean_linker_1, # of connection points: 3
#     Node 3, Type 0, BuildingBlock: CUQRIR_clean_linker_1, # of connection points: 3
#     Node 4, Type 0, BuildingBlock: CUQRIR_clean_linker_1, # of connection points: 3
#     Node 5, Type 0, BuildingBlock: CUQRIR_clean_linker_1, # of connection points: 3
#     Node 6, Type 0, BuildingBlock: CUQRIR_clean_linker_1, # of connection points: 3
#     Node 7, Type 0, BuildingBlock: CUQRIR_clean_linker_1, # of connection points: 3
#     Node 8, Type 0, BuildingBlock: CUQRIR_clean_linker_1, # of connection points: 3
#     Node 9, Type 0, BuildingBlock: CUQRIR_clean_linker_1, # of connection points: 3
#     Node 10, Type 0, BuildingBlock: CUQRIR_clean_linker_1, # of connection points: 3
#     Node 11, Type 0, BuildingBlock: CUQRIR_clean_linker_1, # of connection points: 3
#     Node 12, Type 0, BuildingBlock: CUQRIR_clean_linker_1, # of connection points: 3
#     Node 13, Type 0, BuildingBlock: CUQRIR_clean_linker_1, # of connection points: 3
#     Node 14, Type 0, BuildingBlock: CUQRIR_clean_linker_1, # of connection points: 3
#     Node 15, Type 0, BuildingBlock: CUQRIR_clean_linker_1, # of connection points: 3
#     Node 16, Type 0, BuildingBlock: CUQRIR_clean_linker_1, # of connection points: 3
#     Node 17, Type 0, BuildingBlock: CUQRIR_clean_linker_1, # of connection points: 3
#     Node 18, Type 1, BuildingBlock: KUMBUR_clean_sbu_0, # of connection points: 6
#     Node 19, Type 1, BuildingBlock: KUMBUR_clean_sbu_0, # of connection points: 6
#     Node 20, Type 1, BuildingBlock: KUMBUR_clean_sbu_0, # of connection points: 6
#     Node 21, Type 1, BuildingBlock: KUMBUR_clean_sbu_0, # of connection points: 6
#     Node 22, Type 1, BuildingBlock: KUMBUR_clean_sbu_0, # of connection points: 6
#     Node 23, Type 1, BuildingBlock: KUMBUR_clean_sbu_0, # of connection points: 6
#     Node 24, Type 1, BuildingBlock: KUMBUR_clean_sbu_0, # of connection points: 6
#     Node 25, Type 1, BuildingBlock: KUMBUR_clean_sbu_0, # of connection points: 6
#     Node 26, Type 1, BuildingBlock: KUMBUR_clean_sbu_0, # of connection points: 6
#     Edge 27, Type (0, 1), BuildingBlock: OJICUG_clean_linker_0, # of connection points: 2
#     Edge 28, Type (0, 1), BuildingBlock: OJICUG_clean_linker_0, # of connection points: 2
#     Edge 29, Type (0, 1), BuildingBlock: OJICUG_clean_linker_0, # of connection points: 2
#     Edge 30, Type (0, 1), BuildingBlock: OJICUG_clean_linker_0, # of connection points: 2
#     Edge 31, Type (0, 1), BuildingBlock: OJICUG_clean_linker_0, # of connection points: 2
#     Edge 32, Type (0, 1), BuildingBlock: OJICUG_clean_linker_0, # of connection points: 2
#     Edge 33, Type (0, 1), BuildingBlock: OJICUG_clean_linker_0, # of connection points: 2
#     Edge 34, Type (0, 1), BuildingBlock: OJICUG_clean_linker_0, # of connection points: 2
#     Edge 35, Type (0, 1), BuildingBlock: OJICUG_clean_linker_0, # of connection points: 2
#     Edge 36, Type (0, 1), BuildingBlock: OJICUG_clean_linker_0, # of connection points: 2
#     Edge 37, Type (0, 1), BuildingBlock: OJICUG_clean_linker_0, # of connection points: 2
#     Edge 38, Type (0, 1), BuildingBlock: OJICUG_clean_linker_0, # of connection points: 2
#     Edge 39, Type (0, 1), BuildingBlock: OJICUG_clean_linker_0, # of connection points: 2
#     Edge 40, Type (0, 1), BuildingBlock: OJICUG_clean_linker_0, # of connection points: 2
#     Edge 41, Type (0, 1), BuildingBlock: OJICUG_clean_linker_0, # of connection points: 2
#     Edge 42, Type (0, 1), BuildingBlock: OJICUG_clean_linker_0, # of connection points: 2
#     Edge 43, Type (0, 1), BuildingBlock: OJICUG_clean_linker_0, # of connection points: 2
#     Edge 44, Type (0, 1), BuildingBlock: OJICUG_clean_linker_0, # of connection points: 2
#     Edge 45, Type (0, 1), BuildingBlock: OJICUG_clean_linker_0, # of connection points: 2
#     Edge 46, Type (0, 1), BuildingBlock: OJICUG_clean_linker_0, # of connection points: 2
#     Edge 47, Type (0, 1), BuildingBlock: OJICUG_clean_linker_0, # of connection points: 2
#     Edge 48, Type (0, 1), BuildingBlock: OJICUG_clean_linker_0, # of connection points: 2
#     Edge 49, Type (0, 1), BuildingBlock: OJICUG_clean_linker_0, # of connection points: 2
#     Edge 50, Type (0, 1), BuildingBlock: OJICUG_clean_linker_0, # of connection points: 2
#     Edge 51, Type (0, 1), BuildingBlock: OJICUG_clean_linker_0, # of connection points: 2
#     Edge 52, Type (0, 1), BuildingBlock: OJICUG_clean_linker_0, # of connection points: 2
#     Edge 53, Type (0, 1), BuildingBlock: OJICUG_clean_linker_0, # of connection points: 2
#     Edge 54, Type (0, 1), BuildingBlock: OJICUG_clean_linker_0, # of connection points: 2
#     Edge 55, Type (0, 1), BuildingBlock: OJICUG_clean_linker_0, # of connection points: 2
#     Edge 56, Type (0, 1), BuildingBlock: OJICUG_clean_linker_0, # of connection points: 2
#     Edge 57, Type (0, 1), BuildingBlock: OJICUG_clean_linker_0, # of connection points: 2
#     Edge 58, Type (0, 1), BuildingBlock: OJICUG_clean_linker_0, # of connection points: 2
#     Edge 59, Type (0, 1), BuildingBlock: OJICUG_clean_linker_0, # of connection points: 2
#     Edge 60, Type (0, 1), BuildingBlock: OJICUG_clean_linker_0, # of connection points: 2
#     Edge 61, Type (0, 1), BuildingBlock: OJICUG_clean_linker_0, # of connection points: 2
#     Edge 62, Type (0, 1), BuildingBlock: OJICUG_clean_linker_0, # of connection points: 2
#     Edge 63, Type (0, 1), BuildingBlock: OJICUG_clean_linker_0, # of connection points: 2
#     Edge 64, Type (0, 1), BuildingBlock: OJICUG_clean_linker_0, # of connection points: 2
#     Edge 65, Type (0, 1), BuildingBlock: OJICUG_clean_linker_0, # of connection points: 2
#     Edge 66, Type (0, 1), BuildingBlock: OJICUG_clean_linker_0, # of connection points: 2
#     Edge 67, Type (0, 1), BuildingBlock: OJICUG_clean_linker_0, # of connection points: 2
#     Edge 68, Type (0, 1), BuildingBlock: OJICUG_clean_linker_0, # of connection points: 2
#     Edge 69, Type (0, 1), BuildingBlock: OJICUG_clean_linker_0, # of connection points: 2
#     Edge 70, Type (0, 1), BuildingBlock: OJICUG_clean_linker_0, # of connection points: 2
#     Edge 71, Type (0, 1), BuildingBlock: OJICUG_clean_linker_0, # of connection points: 2
#     Edge 72, Type (0, 1), BuildingBlock: OJICUG_clean_linker_0, # of connection points: 2
#     Edge 73, Type (0, 1), BuildingBlock: OJICUG_clean_linker_0, # of connection points: 2
#     Edge 74, Type (0, 1), BuildingBlock: OJICUG_clean_linker_0, # of connection points: 2
#     Edge 75, Type (0, 1), BuildingBlock: OJICUG_clean_linker_0, # of connection points: 2
#     Edge 76, Type (0, 1), BuildingBlock: OJICUG_clean_linker_0, # of connection points: 2
#     Edge 77, Type (0, 1), BuildingBlock: OJICUG_clean_linker_0, # of connection points: 2
#     Edge 78, Type (0, 1), BuildingBlock: OJICUG_clean_linker_0, # of connection points: 2
#     Edge 79, Type (0, 1), BuildingBlock: OJICUG_clean_linker_0, # of connection points: 2
#     Edge 80, Type (0, 1), BuildingBlock: OJICUG_clean_linker_0, # of connection points: 2
# Relax obj value: 0.041
# Max RMSD: 0.229
# Mean RMSD: 0.164
data_MOF--net-eea--node1-KUMBUR_clean_sbu_0--node2-CUQRIR_clean_linker_1--edge1-OJICUG_clean_linker_0
_symmetry_space_group_name_H-M    P1
_symmetry_Int_Tables_number       1
_symmetry_cell_setting            triclinic
loop_
_symmetry_equiv_pos_as_xyz
'x, y, z'
_cell_length_a     33.040753
_cell_length_b     35.604225
_cell_length_c     48.251209
_cell_angle_alpha  83.136316
_cell_angle_beta   89.716672
_cell_angle_gamma 118.90892
loop_
_atom_site_label
_atom_site_type_symbol
_atom_site_fract_x
_atom_site_fract_y
_atom_site_fract_z
_atom_type_partial_charge
C0 C 0.21304 0.11147 0.40976 0.0
N1 N 0.23196 0.14542 0.42467 0.0
N2 N 0.22448 0.08078 0.41966 0.0
C3 C 0.18246 0.10782 0.38599 0.0
C4 C 0.25149 0.09747 0.44083 0.0
N5 N 0.25625 0.13678 0.4438 0.0
C6 C 0.27136 0.07423 0.45936 0.0
H7 H 0.14595 0.09246 0.3946 0.0
H8 H 0.18429 0.08743 0.37099 0.0
H9 H 0.19219 0.14028 0.37454 0.0
H10 H 0.30418 0.09706 0.46761 0.0
H11 H 0.27763 0.05212 0.44788 0.0
H12 H 0.24609 0.05461 0.47746 0.0
C13 C 0.91698 0.12358 0.40866 0.0
N14 N 0.93566 0.15725 0.42398 0.0
N15 N 0.87581 0.09103 0.42098 0.0
C16 C 0.93706 0.12294 0.3808 0.0
C17 C 0.87009 0.10592 0.44444 0.0
N18 N 0.90614 0.14589 0.44638 0.0
C19 C 0.82793 0.08204 0.46483 0.0
H20 H 0.92325 0.13677 0.36408 0.0
H21 H 0.92679 0.08925 0.37752 0.0
H22 H 0.97519 0.14216 0.37867 0.0
H23 H 0.8324 0.05838 0.47983 0.0
H24 H 0.79634 0.06391 0.45371 0.0
H25 H 0.82276 0.10407 0.47699 0.0
C26 C 0.89841 0.80792 0.39756 0.0
N27 N 0.9201 0.79144 0.41464 0.0
N28 N 0.85757 0.79905 0.41011 0.0
C29 C 0.91455 0.82829 0.36766 0.0
C30 C 0.8552 0.77699 0.43537 0.0
N31 N 0.89306 0.77212 0.43815 0.0
C32 C 0.81529 0.75936 0.45716 0.0
H33 H 0.94248 0.86228 0.36719 0.0
H34 H 0.88608 0.82837 0.35568 0.0
H35 H 0.92886 0.81056 0.35744 0.0
H36 H 0.7903 0.72545 0.45447 0.0
H37 H 0.79708 0.77871 0.45493 0.0
H38 H 0.82755 0.75933 0.47853 0.0
C39 C 0.11787 0.24399 0.68207 0.0
N40 N 0.15456 0.25605 0.66378 0.0
N41 N 0.08648 0.25321 0.66982 0.0
C42 C 0.11344 0.2244 0.71197 0.0
C43 C 0.10476 0.27051 0.64331 0.0
N44 N 0.14612 0.27204 0.63953 0.0
C45 C 0.08128 0.28414 0.62068 0.0
H46 H 0.11471 0.19373 0.71277 0.0
H47 H 0.08082 0.21791 0.72311 0.0
H48 H 0.14326 0.24704 0.72269 0.0
H49 H 0.05657 0.29313 0.62931 0.0
H50 H 0.06162 0.25667 0.6088 0.0
H51 H 0.10729 0.312 0.6059 0.0
C52 C 0.80728 0.91413 0.65909 0.0
N53 N 0.79234 0.88213 0.64262 0.0
N54 N 0.7996 0.94673 0.64786 0.0
C55 C 0.83261 0.91509 0.68509 0.0
C56 C 0.77962 0.93349 0.62384 0.0
N57 N 0.77596 0.89471 0.62031 0.0
C58 C 0.75879 0.95604 0.60547 0.0
H59 H 0.80706 0.89887 0.70346 0.0
H60 H 0.85667 0.94891 0.68847 0.0
H61 H 0.85259 0.89765 0.68368 0.0
H62 H 0.78486 0.9785 0.58838 0.0
H63 H 0.74838 0.97501 0.61754 0.0
H64 H 0.72786 0.93237 0.59594 0.0
C65 C 0.1048 0.92175 0.66218 0.0
N66 N 0.08685 0.887 0.64783 0.0
N67 N 0.14357 0.95568 0.6482 0.0
C68 C 0.0875 0.92093 0.69118 0.0
C69 C 0.1481 0.94026 0.62464 0.0
N70 N 0.11428 0.89879 0.62448 0.0
C71 C 0.1847 0.96608 0.60102 0.0
H72 H 0.0619 0.93267 0.68981 0.0
H73 H 0.11626 0.94197 0.70333 0.0
H74 H 0.07034 0.88753 0.70234 0.0
H75 H 0.21429 0.95982 0.60403 0.0
H76 H 0.19733 1.0013 0.60027 0.0
H77 H 0.17082 0.95602 0.58068 0.0
C78 C 0.86506 0.43779 0.74727 0.0
N79 N 0.88357 0.47107 0.76264 0.0
N80 N 0.8701 0.40393 0.75929 0.0
C81 C 0.84066 0.4379 0.72105 0.0
C82 C 0.89261 0.41809 0.7825 0.0
N83 N 0.90043 0.45866 0.78465 0.0
C84 C 0.90918 0.39312 0.80223 0.0
H85 H 0.8147 0.40446 0.71799 0.0
H86 H 0.86656 0.45242 0.7028 0.0
H87 H 0.82322 0.45773 0.72188 0.0
H88 H 0.9374 0.4144 0.81456 0.0
H89 H 0.92143 0.3751 0.7905 0.0
H90 H 0.87984 0.36928 0.81715 0.0
C91 C 0.58659 0.45474 0.74268 0.0
N92 N 0.60577 0.4881 0.75816 0.0
N93 N 0.54437 0.42327 0.75432 0.0
C94 C 0.60836 0.45284 0.71585 0.0
C95 C 0.53848 0.43857 0.77752 0.0
N96 N 0.57555 0.47765 0.78007 0.0
C97 C 0.49478 0.41685 0.79665 0.0
H98 H 0.59623 0.46664 0.69814 0.0
H99 H 0.59771 0.41881 0.7133 0.0
H100 H 0.6466 0.47154 0.71497 0.0
H101 H 0.49803 0.39507 0.81388 0.0
H102 H 0.46411 0.39723 0.78526 0.0
H103 H 0.48904 0.44104 0.806 0.0
C104 C 0.56255 0.13622 0.73192 0.0
N105 N 0.5839 0.11924 0.74896 0.0
N106 N 0.52096 0.12621 0.74396 0.0
C107 C 0.58001 0.15872 0.70252 0.0
C108 C 0.51769 0.1029 0.76888 0.0
N109 N 0.55574 0.09837 0.77192 0.0
C110 C 0.47718 0.0845 0.79033 0.0
H111 H 0.55142 0.15693 0.68984 0.0
H112 H 0.5979 0.144 0.69234 0.0
H113 H 0.60521 0.19335 0.70313 0.0
H114 H 0.45261 0.05068 0.78721 0.0
H115 H 0.45872 0.10362 0.78815 0.0
H116 H 0.48883 0.08399 0.81183 0.0
C117 C 0.78331 0.56999 1.01309 0.0
N118 N 0.81932 0.5817 0.99433 0.0
N119 N 0.75083 0.57765 1.001 0.0
C120 C 0.78123 0.55362 0.04349 0.0
C121 C 0.76773 0.59372 0.97415 0.0
N122 N 0.8094 0.59602 0.96997 0.0
C123 C 0.74329 0.6066 0.9518 0.0
H124 H 0.78862 0.52623 0.04568 0.0
H125 H 0.74703 0.54303 0.05438 0.0
H126 H 0.80838 0.5801 0.05358 0.0
H127 H 0.76844 0.63698 0.9385 0.0
H128 H 0.71515 0.61107 0.96059 0.0
H129 H 0.72771 0.58076 0.93822 0.0
C130 C 0.47401 0.24579 0.99333 0.0
N131 N 0.45875 0.2145 0.97633 0.0
N132 N 0.46767 0.27933 0.98243 0.0
C133 C 0.49798 0.24491 0.01967 0.0
C134 C 0.44811 0.26734 0.95808 0.0
N135 N 0.44341 0.22834 0.95406 0.0
C136 C 0.42865 0.29136 0.93989 0.0
H137 H 0.47161 0.22817 0.03761 0.0
H138 H 0.52231 0.27822 0.02385 0.0
H139 H 0.51739 0.22696 1.01814 0.0
H140 H 0.45527 0.31379 0.92305 0.0
H141 H 0.41893 0.31058 0.95218 0.0
H142 H 0.39752 0.26862 0.93004 0.0
C143 C 0.76925 0.24909 0.99762 0.0
N144 N 0.75265 0.21417 0.98347 0.0
N145 N 0.81014 0.28204 0.98515 0.0
C146 C 0.746 0.25125 0.02372 0.0
C147 C 0.81769 0.26592 0.96281 0.0
N148 N 0.78298 0.22506 0.96164 0.0
C149 C 0.86071 0.28892 0.94312 0.0
H150 H 0.75443 0.28509 0.02523 0.0
H151 H 0.75885 0.23953 0.04209 0.0
H152 H 0.70795 0.23078 0.02438 0.0
H153 H 0.89106 0.31089 0.95388 0.0
H154 H 0.8551 0.3085 0.92547 0.0
H155 H 0.86852 0.26546 0.93443 0.0
C156 C 0.54304 0.77504 0.07709 0.0
N157 N 0.56143 0.80908 0.092 0.0
N158 N 0.55459 0.7445 0.08721 0.0
C159 C 0.51324 0.77129 0.0529 0.0
C160 C 0.58117 0.76136 0.10851 0.0
N161 N 0.58555 0.80059 0.11135 0.0
C162 C 0.60116 0.73842 0.12722 0.0
H163 H 0.47642 0.75534 0.06101 0.0
H164 H 0.51613 0.75139 0.03791 0.0
H165 H 0.52289 0.80375 0.04154 0.0
H166 H 0.63328 0.76139 0.13603 0.0
H167 H 0.60866 0.7171 0.11564 0.0
H168 H 0.57537 0.71795 0.14492 0.0
C169 C 0.24875 0.78886 0.07439 0.0
N170 N 0.26682 0.82227 0.08983 0.0
N171 N 0.20733 0.75623 0.08631 0.0
C172 C 0.27147 0.78779 0.04768 0.0
C173 C 0.20087 0.771 0.10964 0.0
N174 N 0.23696 0.81074 0.11206 0.0
C175 C 0.15732 0.74817 0.12891 0.0
H176 H 0.25867 0.8007 0.02985 0.0
H177 H 0.26244 0.75408 0.04525 0.0
H178 H 0.30963 0.80787 0.04696 0.0
H179 H 0.16153 0.72701 0.14614 0.0
H180 H 0.12687 0.72778 0.11761 0.0
H181 H 0.1505 0.77177 0.13824 0.0
C182 C 0.22417 0.45789 0.06111 0.0
N183 N 0.24712 0.4439 0.07896 0.0
N184 N 0.18222 0.44709 0.07297 0.0
C185 C 0.24156 0.48 0.03167 0.0
C186 C 0.18044 0.42652 0.09873 0.0
N187 N 0.21979 0.42436 0.10237 0.0
C188 C 0.1411 0.40974 0.12091 0.0
H189 H 0.26613 0.51484 0.03206 0.0
H190 H 0.21277 0.47721 0.01881 0.0
H191 H 0.26026 0.46563 0.02194 0.0
H192 H 0.11235 0.41527 0.11384 0.0
H193 H 0.15403 0.42613 0.13965 0.0
H194 H 0.12779 0.37457 0.12739 0.0
C195 C 0.45216 0.91109 0.34773 0.0
N196 N 0.488 0.92285 0.32884 0.0
N197 N 0.41988 0.91935 0.33593 0.0
C198 C 0.44964 0.89321 0.37785 0.0
C199 C 0.4367 0.93575 0.3091 0.0
N200 N 0.47814 0.9377 0.30467 0.0
C201 C 0.41193 0.94845 0.28687 0.0
H202 H 0.41619 0.88424 0.38909 0.0
H203 H 0.47826 0.91816 0.38812 0.0
H204 H 0.45451 0.86437 0.37921 0.0
H205 H 0.43714 0.97701 0.27221 0.0
H206 H 0.3862 0.95593 0.29587 0.0
H207 H 0.39324 0.9211 0.27474 0.0
C208 C 0.14917 0.58634 0.32506 0.0
N209 N 0.13227 0.5531 0.30962 0.0
N210 N 0.142 0.61893 0.31325 0.0
C211 C 0.17506 0.58807 0.3509 0.0
C212 C 0.12052 0.60449 0.28983 0.0
N213 N 0.11498 0.5647 0.28741 0.0
C214 C 0.10236 0.62826 0.27027 0.0
H215 H 0.14996 0.57277 0.36953 0.0
H216 H 0.19959 0.62208 0.35365 0.0
H217 H 0.19452 0.57011 0.34971 0.0
H218 H 0.13161 0.65418 0.25616 0.0
H219 H 0.08721 0.64374 0.28229 0.0
H220 H 0.07597 0.60675 0.2571 0.0
C221 C 0.43801 0.58813 0.32942 0.0
N222 N 0.41994 0.55306 0.31534 0.0
N223 N 0.47679 0.62187 0.3153 0.0
C224 C 0.42081 0.58786 0.35831 0.0
C225 C 0.4812 0.60603 0.29192 0.0
N226 N 0.44733 0.56451 0.292 0.0
C227 C 0.51772 0.6315 0.2682 0.0
H228 H 0.39541 0.59984 0.35676 0.0
H229 H 0.44966 0.60893 0.37039 0.0
H230 H 0.40346 0.55459 0.36961 0.0
H231 H 0.53037 0.66676 0.2672 0.0
H232 H 0.50375 0.62111 0.24794 0.0
H233 H 0.5473 0.62526 0.27131 0.0
Tb234 Tb 0.50245 0.98917 1.00478 0.0
C235 C 0.5722 0.13809 0.07442 0.0
C236 C 0.65446 0.16396 0.0755 0.0
C237 C 0.62417 0.21322 0.07997 0.0
C238 C 0.60921 0.1307 0.07254 0.0
C239 C 0.57898 0.1792 0.07865 0.0
C240 C 0.66183 0.20547 0.07872 0.0
C241 C 0.49587 0.14814 0.08454 0.0
N242 N 0.52912 0.10373 0.07475 0.0
C243 C 0.49106 0.10773 0.08119 0.0
C244 C 0.54004 0.18422 0.08289 0.0
Tb245 Tb 0.52411 0.03887 0.06785 0.0
N246 N 0.60027 0.08982 0.07039 0.0
C247 C 0.63513 0.07953 0.07274 0.0
C248 C 0.69051 0.15395 0.0765 0.0
C249 C 0.68069 0.11143 0.0754 0.0
H250 H 0.45677 0.07996 0.08288 0.0
H251 H 0.70816 0.10312 0.07673 0.0
H252 H 0.69632 0.23148 0.08101 0.0
H253 H 0.46553 0.15134 0.08866 0.0
H254 H 0.62838 0.04685 0.0721 0.0
H255 H 0.32006 0.92982 0.9915 0.0
H256 H 0.72569 0.17837 0.07907 0.0
H257 H 0.56836 0.9432 0.9994 0.0
H258 H 0.39981 0.98482 0.99764 0.0
H259 H 0.557 0.87008 0.9959 0.0
H260 H 0.63018 0.24509 0.08312 0.0
H261 H 0.30107 0.854 0.98991 0.0
H262 H 0.32802 0.79876 0.99148 0.0
H263 H 0.54374 0.21533 0.08601 0.0
H264 H 0.39225 0.7822 0.99344 0.0
N265 N 0.42635 0.94059 1.00053 0.0
C266 C 0.39237 0.95189 0.9973 0.0
C267 C 0.33619 0.87786 0.99311 0.0
C268 C 0.37123 0.86659 0.99577 0.0
C269 C 0.34686 0.92071 0.99378 0.0
C270 C 0.41654 0.89913 0.99938 0.0
H271 H 0.47783 0.80865 0.99496 0.0
N272 N 0.49611 0.92278 1.00193 0.0
C273 C 0.52734 0.87517 0.99723 0.0
C274 C 0.4526 0.88982 1.00021 0.0
C275 C 0.53366 0.91651 0.99919 0.0
C276 C 0.48257 0.84054 0.99679 0.0
C277 C 0.44457 0.84777 0.99772 0.0
O278 O 0.54877 1.00737 0.96955 0.0
O279 O 0.54852 0.04339 0.02554 0.0
O280 O 0.51271 0.08176 0.03619 0.0
O281 O 0.4784 0.03782 1.0012 0.0
O282 O 0.57861 0.01777 1.00313 0.0
O283 O 0.48097 1.00071 0.96488 0.0
O284 O 0.4871 0.02333 0.10697 0.0
O285 O 0.47613 0.98725 0.04625 0.0
O286 O 0.50187 0.9432 0.03907 0.0
O287 O 0.55025 0.99142 0.06784 0.0
O288 O 0.44811 1.00992 0.0724 0.0
O289 O 0.54753 0.0158 0.10292 0.0
C290 C 0.58752 0.049 1.01726 0.0
C291 C 0.51715 0.98824 0.92666 0.0
C292 C 0.53451 0.99579 0.87614 0.0
C293 C 0.53225 0.01394 0.90025 0.0
C294 C 0.52208 0.95161 0.87921 0.0
C295 C 0.50364 0.9441 0.92878 0.0
C296 C 0.50638 0.92602 0.90527 0.0
C297 C 0.48934 0.07281 1.01338 0.0
C298 C 0.51969 1.00875 0.95194 0.0
C299 C 0.39922 0.8148 0.99524 0.0
C300 C 0.36265 0.82425 0.99411 0.0
C301 C 0.43746 0.98175 0.05555 0.0
C302 C 0.53305 0.03392 0.14582 0.0
C303 C 0.53115 1.00782 0.17064 0.0
C304 C 0.5444 0.02556 0.19594 0.0
C305 C 0.56129 0.07047 0.19528 0.0
C306 C 0.55025 0.07837 0.14592 0.0
C307 C 0.56467 0.09654 0.17043 0.0
C308 C 0.53024 0.95259 0.0594 0.0
C309 C 0.51621 0.01416 0.12018 0.0
H310 H 0.54176 0.04787 0.89856 0.0
H311 H 0.5244 0.93663 0.86146 0.0
H312 H 0.49172 0.9236 0.94856 0.0
H313 H 0.49653 0.89201 0.90728 0.0
H314 H 0.51865 0.97367 0.17011 0.0
H315 H 0.57039 0.08568 0.21407 0.0
H316 H 0.55191 0.09901 0.12726 0.0
H317 H 0.57738 0.13085 0.17036 0.0
Tb318 Tb 0.03489 0.5395 0.99849 0.0
C319 C 0.87282 0.46181 0.08853 0.0
C320 C 0.85488 0.51974 0.09025 0.0
C321 C 0.79432 0.4449 0.10236 0.0
C322 C 0.88654 0.50531 0.0844 0.0
C323 C 0.82685 0.43102 0.09824 0.0
C324 C 0.80839 0.48926 0.09852 0.0
C325 C 0.85043 0.37622 0.10303 0.0
N326 N 0.90565 0.45001 0.08523 0.0
C327 C 0.89572 0.40817 0.09384 0.0
C328 C 0.81562 0.38757 0.1048 0.0
Tb329 Tb 0.97875 0.50419 0.06942 0.0
N330 N 0.9319 0.53359 0.07699 0.0
C331 C 0.94847 0.57706 0.07694 0.0
C332 C 0.87137 0.56426 0.08894 0.0
C333 C 0.91844 0.59301 0.08246 0.0
H334 H 0.92266 0.39933 0.09306 0.0
H335 H 0.93173 0.62749 0.08191 0.0
H336 H 0.78344 0.4997 0.10281 0.0
H337 H 0.84252 0.34297 0.10899 0.0
H338 H 0.98475 0.5999 0.07219 0.0
H339 H 0.07849 0.41464 0.98302 0.0
H340 H 0.84843 0.57665 0.09386 0.0
H341 H 0.09387 0.64486 0.97649 0.0
H342 H 0.02619 0.44345 0.99159 0.0
H343 H 0.1752 0.70041 0.96245 0.0
H344 H 0.7587 0.42176 0.10957 0.0
H345 H 0.16302 0.46394 0.9752 0.0
H346 H 0.22955 0.54039 0.96851 0.0
H347 H 0.78069 0.36288 0.11228 0.0
H348 H 0.25613 0.61872 0.96289 0.0
N349 N 0.08029 0.50901 0.98945 0.0
C350 C 0.06282 0.46574 0.98808 0.0
C351 C 0.14017 0.47694 0.97896 0.0
C352 C 0.15755 0.52147 0.97843 0.0
C353 C 0.09247 0.44906 0.98325 0.0
C354 C 0.1262 0.5366 0.98344 0.0
H355 H 0.23589 0.67886 0.96003 0.0
N356 N 0.10888 0.59284 0.98349 0.0
C357 C 0.16619 0.66675 0.9677 0.0
C358 C 0.1411 0.58026 0.98038 0.0
C359 C 0.12022 0.63524 0.97572 0.0
C360 C 0.20036 0.65447 0.96642 0.0
C361 C 0.18782 0.6106 0.97214 0.0
O362 O 0.01863 0.57049 0.96393 0.0
O363 O 0.98052 0.53235 0.02697 0.0
O364 O 0.93013 0.45659 0.04409 0.0
O365 O 0.97675 0.47162 1.00286 0.0
O366 O 0.01332 0.58837 0.99962 0.0
O367 O 0.0122 0.50775 0.96281 0.0
O368 O 1.00064 0.47727 0.10347 0.0
O369 O 0.03262 0.51099 0.04071 0.0
O370 O 0.08398 0.58525 0.02463 0.0
O371 O 0.03627 0.57208 0.06487 0.0
O372 O 0.99997 0.4551 0.06847 0.0
O373 O 0.99663 0.53496 0.10587 0.0
C374 C 0.97996 0.56702 0.01871 0.0
C375 C 0.0281 0.55313 0.91942 0.0
C376 C 0.01561 0.54887 0.86952 0.0
C377 C 0.99914 0.53457 0.898 0.0
C378 C 0.06164 0.58241 0.8631 0.0
C379 C 0.07413 0.58547 0.91232 0.0
C380 C 0.09064 0.60014 0.88434 0.0
C381 C 0.9385 0.4468 0.01973 0.0
C382 C 0.009 0.53968 0.94884 0.0
C383 C 0.21992 0.59595 0.96883 0.0
C384 C 0.20478 0.55137 0.97201 0.0
C385 C 0.03225 0.47586 0.04868 0.0
C386 C 0.98739 0.48987 0.14877 0.0
C387 C 0.01719 0.50401 0.17069 0.0
C388 C 1.00091 0.48593 0.19899 0.0
C389 C 0.95444 0.45275 0.20447 0.0
C390 C 0.94088 0.45855 0.15534 0.0
C391 C 0.92473 0.4398 0.18292 0.0
C392 C 0.07533 0.59576 0.04861 0.0
C393 C 0.00574 0.50624 0.11917 0.0
H394 H 0.96398 0.50876 0.90367 0.0
H395 H 0.07542 0.5953 0.84163 0.0
H396 H 0.09726 0.59981 0.92828 0.0
H397 H 0.12605 0.62561 0.87908 0.0
H398 H 0.0527 0.52932 0.16553 0.0
H399 H 0.94063 0.43647 0.22547 0.0
H400 H 0.91703 0.44807 0.13922 0.0
H401 H 0.88895 0.41485 0.18763 0.0
Tb402 Tb 0.50678 0.48742 0.07621 0.0
C403 C 0.42394 0.55902 0.98448 0.0
C404 C 0.34708 0.49858 0.98347 0.0
C405 C 0.36062 0.57211 0.97085 0.0
C406 C 0.39415 0.5152 0.98888 0.0
C407 C 0.40801 0.5881 0.97461 0.0
C408 C 0.33019 0.52733 0.97518 0.0
C409 C 0.48768 0.64538 0.96909 0.0
N410 N 0.46945 0.57277 0.98749 0.0
C411 C 0.50166 0.615 0.9785 0.0
C412 C 0.44053 0.632 0.96757 0.0
Tb413 Tb 0.48975 0.52164 1.00441 0.0
N414 N 0.41224 0.48878 0.9963 0.0
C415 C 0.38535 0.44496 0.99675 0.0
C416 C 0.31897 0.45369 0.98542 0.0
C417 C 0.33834 0.42681 0.99179 0.0
H418 H 0.53819 0.62547 0.97942 0.0
H419 H 0.31712 0.39205 0.99283 0.0
H420 H 0.29403 0.51523 0.9712 0.0
H421 H 0.51327 0.679 0.96285 0.0
H422 H 0.39934 0.42339 1.00159 0.0
H423 H 0.68064 0.61133 0.0917 0.0
H424 H 0.28268 0.43956 0.98128 0.0
H425 H 0.45412 0.38186 0.0981 0.0
H426 H 0.59858 0.58316 0.08282 0.0
H427 H 0.47622 0.32594 0.11345 0.0
H428 H 0.34751 0.59391 0.96358 0.0
H429 H 0.71261 0.56126 0.10059 0.0
H430 H 0.69806 0.48441 0.10864 0.0
H431 H 0.42976 0.65545 0.95994 0.0
H432 H 0.64212 0.40626 0.11476 0.0
N433 N 0.58348 0.51729 0.08581 0.0
C434 C 0.61152 0.56059 0.08681 0.0
C435 C 0.67634 0.54857 0.09673 0.0
C436 C 0.64678 0.50403 0.09774 0.0
C437 C 0.65837 0.57688 0.09182 0.0
C438 C 0.59991 0.48932 0.09245 0.0
H439 H 0.55893 0.34675 0.11718 0.0
N440 N 0.52374 0.43356 0.09206 0.0
C441 C 0.5027 0.35951 0.10831 0.0
C442 C 0.56881 0.44574 0.09576 0.0
C443 C 0.4903 0.39127 0.09961 0.0
C444 C 0.54941 0.37136 0.11033 0.0
C445 C 0.58312 0.41509 0.10459 0.0
O446 O 0.45665 0.45791 0.11041 0.0
O447 O 0.4608 0.49404 0.04692 0.0
O448 O 0.48982 0.56937 0.02925 0.0
O449 O 0.51997 0.55516 0.07087 0.0
O450 O 0.43478 0.43813 0.07444 0.0
O451 O 0.51655 0.51968 0.11172 0.0
O452 O 0.53791 0.55292 0.96914 0.0
O453 O 0.53563 0.51635 0.03409 0.0
O454 O 0.51126 0.44245 0.05055 0.0
O455 O 0.47896 0.45493 1.00957 0.0
O456 O 0.56197 0.57122 1.00557 0.0
O457 O 0.48326 0.48774 0.97023 0.0
C458 C 0.42408 0.45922 0.05509 0.0
C459 C 0.48249 0.47504 0.15522 0.0
C460 C 0.47196 0.47799 0.20528 0.0
C461 C 0.47002 0.49193 0.1768 0.0
C462 C 0.48546 0.44614 0.21155 0.0
C463 C 0.49706 0.44435 0.16231 0.0
C464 C 0.49811 0.42977 0.19026 0.0
C465 C 0.50773 0.57943 0.05363 0.0
C466 C 0.479 0.4887 0.1255 0.0
C467 C 0.63023 0.42929 0.10834 0.0
C468 C 0.66208 0.47376 0.10487 0.0
C469 C 0.57211 0.55122 0.02594 0.0
C470 C 0.51107 0.52975 0.92551 0.0
C471 C 0.53673 0.52546 0.90362 0.0
C472 C 0.52877 0.53334 0.87511 0.0
C473 C 0.49456 0.54557 0.86942 0.0
C474 C 0.47778 0.5423 0.91881 0.0
C475 C 0.46976 0.55026 0.89098 0.0
C476 C 0.49369 0.43217 0.02615 0.0
C477 C 0.51827 0.52017 0.95526 0.0
H478 H 0.4597 0.51635 0.17137 0.0
H479 H 0.48637 0.4338 0.23304 0.0
H480 H 0.50732 0.43131 0.14633 0.0
H481 H 0.50886 0.40563 0.19547 0.0
H482 H 0.56262 0.51596 0.9089 0.0
H483 H 0.48565 0.55041 0.84824 0.0
H484 H 0.45752 0.54544 0.9351 0.0
H485 H 0.44353 0.55947 0.88608 0.0
Tb486 Tb 0.1702 0.32654 0.33959 0.0
C487 C 0.24629 0.47336 0.41111 0.0
C488 C 0.32825 0.49724 0.41131 0.0
C489 C 0.30016 0.54761 0.41764 0.0
C490 C 0.28248 0.46497 0.40838 0.0
C491 C 0.25445 0.51449 0.41636 0.0
C492 C 0.337 0.53887 0.41539 0.0
C493 C 0.17167 0.48498 0.42338 0.0
N494 N 0.20269 0.4398 0.41138 0.0
C495 C 0.16551 0.44448 0.41895 0.0
C496 C 0.21635 0.52034 0.42169 0.0
Tb497 Tb 0.19542 0.37461 0.40325 0.0
N498 N 0.27237 0.42415 0.40501 0.0
C499 C 0.30676 0.41311 0.40553 0.0
C500 C 0.36356 0.48626 0.4111 0.0
C501 C 0.35273 0.44401 0.40819 0.0
H502 H 0.13086 0.41719 0.42069 0.0
H503 H 0.37973 0.43507 0.40823 0.0
H504 H 0.37195 0.56419 0.41753 0.0
H505 H 0.14199 0.48876 0.42839 0.0
H506 H 0.29936 0.3806 0.40361 0.0
H507 H 0.98679 0.26782 0.33118 0.0
H508 H 0.39911 0.50993 0.41363 0.0
H509 H 0.2354 0.28124 0.32976 0.0
H510 H 0.06703 0.32214 0.33668 0.0
H511 H 0.22364 0.20881 0.32356 0.0
H512 H 0.30722 0.5795 0.42151 0.0
H513 H 0.96742 0.19275 0.32651 0.0
H514 H 0.99423 0.13793 0.32419 0.0
H515 H 0.22111 0.5515 0.42566 0.0
H516 H 0.05848 0.12153 0.32284 0.0
N517 N 0.09356 0.27812 0.3365 0.0
C518 C 0.05947 0.28949 0.33509 0.0
C519 C 1.00276 0.21622 0.32958 0.0
C520 C 0.03786 0.20492 0.33031 0.0
C521 C 0.01364 0.25867 0.33197 0.0
C522 C 0.08346 0.23703 0.33376 0.0
H523 H 0.14423 0.14776 0.32263 0.0
N524 N 0.16323 0.26081 0.33367 0.0
C525 C 0.19406 0.21377 0.32604 0.0
C526 C 0.11957 0.22804 0.3323 0.0
C527 C 0.20059 0.25474 0.32949 0.0
C528 C 0.14917 0.17935 0.32561 0.0
C529 C 0.11126 0.18644 0.32819 0.0
O530 O 0.2111 0.3408 0.30217 0.0
O531 O 0.21793 0.38002 0.36032 0.0
O532 O 0.18265 0.41818 0.37295 0.0
O533 O 0.14615 0.37484 0.3381 0.0
O534 O 0.24646 0.35578 0.33558 0.0
O535 O 0.1486 0.34591 0.30226 0.0
O536 O 0.15963 0.35845 0.44284 0.0
O537 O 0.14599 0.32307 0.38199 0.0
O538 O 0.17223 0.27986 0.37232 0.0
O539 O 0.22102 0.32722 0.40145 0.0
O540 O 0.11953 0.34599 0.40913 0.0
O541 O 0.21994 0.35111 0.43756 0.0
C542 C 0.25648 0.38634 0.35047 0.0
C543 C 0.17086 0.32818 0.26108 0.0
C544 C 0.18491 0.33382 0.21037 0.0
C545 C 0.19727 0.35128 0.23579 0.0
C546 C 0.14632 0.29199 0.21124 0.0
C547 C 0.13284 0.28677 0.26116 0.0
C548 C 0.12099 0.26866 0.23643 0.0
C549 C 0.15823 0.40971 0.35054 0.0
C550 C 0.1827 0.34833 0.28693 0.0
C551 C 0.06566 0.15376 0.32595 0.0
C552 C 0.02907 0.16309 0.32676 0.0
C553 C 0.10787 0.31768 0.39228 0.0
C554 C 0.20667 0.36848 0.48108 0.0
C555 C 0.20371 0.34188 0.50588 0.0
C556 C 0.21723 0.35932 0.53125 0.0
C557 C 0.23563 0.40444 0.53066 0.0
C558 C 0.22527 0.41307 0.48129 0.0
C559 C 0.2401 0.43095 0.50584 0.0
C560 C 0.20105 0.28887 0.39244 0.0
C561 C 0.18911 0.34912 0.45539 0.0
H562 H 0.22691 0.38309 0.23605 0.0
H563 H 0.13422 0.27755 0.19237 0.0
H564 H 0.11176 0.26868 0.28015 0.0
H565 H 0.09122 0.23681 0.23666 0.0
H566 H 0.19006 0.30758 0.50528 0.0
H567 H 0.245 0.41953 0.54949 0.0
H568 H 0.22764 0.43408 0.46272 0.0
H569 H 0.25389 0.46541 0.50582 0.0
Tb570 Tb 0.70446 0.87879 0.32934 0.0
C571 C 0.53918 0.79873 0.41803 0.0
C572 C 0.52227 0.85652 0.42309 0.0
C573 C 0.46087 0.78159 0.43254 0.0
C574 C 0.55357 0.84231 0.41596 0.0
C575 C 0.49286 0.76771 0.42677 0.0
C576 C 0.47563 0.82596 0.43087 0.0
C577 C 0.51456 0.71198 0.42644 0.0
N578 N 0.57144 0.78678 0.41312 0.0
C579 C 0.56025 0.74406 0.41834 0.0
C580 C 0.48056 0.72381 0.43039 0.0
Tb581 Tb 0.64521 0.84137 0.39931 0.0
N582 N 0.59899 0.87066 0.40872 0.0
C583 C 0.61579 0.91395 0.40956 0.0
C584 C 0.53914 0.90086 0.42317 0.0
C585 C 0.58613 0.92967 0.41645 0.0
H586 H 0.58633 0.73463 0.41537 0.0
H587 H 0.59964 0.96402 0.41673 0.0
H588 H 0.45098 0.83628 0.43619 0.0
H589 H 0.50565 0.67818 0.42976 0.0
H590 H 0.65195 0.93692 0.40458 0.0
H591 H 0.76216 0.76254 0.31704 0.0
H592 H 0.51647 0.91306 0.42909 0.0
H593 H 0.75751 0.98472 0.30796 0.0
H594 H 0.70488 0.78633 0.32406 0.0
H595 H 0.8373 0.0439 0.29467 0.0
H596 H 0.42503 0.75831 0.43912 0.0
H597 H 0.8456 0.8163 0.30957 0.0
H598 H 0.9078 0.89465 0.30274 0.0
H599 H 0.4453 0.69895 0.43698 0.0
H600 H 0.9284 0.97168 0.29658 0.0
N601 N 0.75495 0.85321 0.3216 0.0
C602 C 0.74096 0.81039 0.32079 0.0
C603 C 0.82052 0.82702 0.31275 0.0
C604 C 0.83442 0.87103 0.31173 0.0
C605 C 0.77347 0.79662 0.31683 0.0
C606 C 0.80027 0.88314 0.31593 0.0
H607 H 0.90214 0.02775 0.29301 0.0
N608 N 0.77711 0.93566 0.31511 0.0
C609 C 0.8307 1.01091 0.29988 0.0
C610 C 0.81182 0.92607 0.31254 0.0
C611 C 0.78551 0.97727 0.30746 0.0
C612 C 0.86722 1.00169 0.29902 0.0
C613 C 0.85789 0.95869 0.30481 0.0
O614 O 0.68393 0.90542 0.29451 0.0
O615 O 0.64896 0.87075 0.35715 0.0
O616 O 0.59707 0.79953 0.37103 0.0
O617 O 0.64958 0.80924 0.33455 0.0
O618 O 0.68063 0.92638 0.32954 0.0
O619 O 0.68688 0.84681 0.29348 0.0
O620 O 0.65793 0.80793 0.43423 0.0
O621 O 0.70076 0.84969 0.37157 0.0
O622 O 0.75143 0.92489 0.35609 0.0
O623 O 0.70245 0.90928 0.39627 0.0
O624 O 0.66778 0.79309 0.39827 0.0
O625 O 0.66944 0.8726 0.43495 0.0
C626 C 0.64785 0.90512 0.34896 0.0
C627 C 0.69951 0.89157 0.25018 0.0
C628 C 0.69032 0.88987 0.19981 0.0
C629 C 0.67221 0.8738 0.22793 0.0
C630 C 0.73597 0.92457 0.19458 0.0
C631 C 0.7453 0.92508 0.24422 0.0
C632 C 0.76322 0.94167 0.2166 0.0
C633 C 0.60822 0.78692 0.34878 0.0
C634 C 0.67925 0.87595 0.27936 0.0
C635 C 0.89266 0.94711 0.30216 0.0
C636 C 0.88093 0.90327 0.30565 0.0
C637 C 0.70162 0.81524 0.37961 0.0
C638 C 0.65268 0.82782 0.47865 0.0
C639 C 0.68378 0.83643 0.49999 0.0
C640 C 0.66766 0.8264 0.5286 0.0
C641 C 0.61947 0.80691 0.53511 0.0
C642 C 0.60507 0.80833 0.48588 0.0
C643 C 0.58865 0.7978 0.51396 0.0
C644 C 0.74177 0.93398 0.38036 0.0
C645 C 0.67064 0.83958 0.44902 0.0
H646 H 0.63722 0.84713 0.23262 0.0
H647 H 0.75084 0.93869 0.1734 0.0
H648 H 0.76718 0.93881 0.26079 0.0
H649 H 0.79841 0.96801 0.21224 0.0
H650 H 0.7205 0.85099 0.49416 0.0
H651 H 0.60535 0.79971 0.55656 0.0
H652 H 0.58065 0.80145 0.46986 0.0
H653 H 0.55181 0.78304 0.51938 0.0
Tb654 Tb 0.17335 0.823 0.40816 0.0
C655 C 0.09181 0.89728 0.31725 0.0
C656 C 0.01395 0.83792 0.31737 0.0
C657 C 0.0292 0.91198 0.30463 0.0
C658 C 0.0612 0.85367 0.32197 0.0
C659 C 0.07664 0.92705 0.3077 0.0
C660 C 0.99787 0.8674 0.30939 0.0
C661 C 0.15686 0.98306 0.30128 0.0
N662 N 0.13725 0.91011 0.31974 0.0
C663 C 0.17005 0.95203 0.31047 0.0
C664 C 0.10985 0.97066 0.30033 0.0
Tb665 Tb 0.15624 0.85798 0.33645 0.0
N666 N 0.07852 0.82653 0.32904 0.0
C667 C 0.05063 0.78279 0.3298 0.0
C668 C 0.98478 0.79312 0.31986 0.0
C669 C 1.00336 0.76547 0.32574 0.0
H670 H 0.20646 0.96177 0.311 0.0
H671 H 0.98132 0.73077 0.32712 0.0
H672 H 0.96162 0.856 0.306 0.0
H673 H 0.18294 0.01645 0.29481 0.0
H674 H 0.06411 0.76073 0.33432 0.0
H675 H 0.34655 0.94572 0.42598 0.0
H676 H 0.94826 0.77964 0.31648 0.0
H677 H 0.12012 0.71715 0.42868 0.0
H678 H 0.26495 0.91817 0.41617 0.0
H679 H 0.14165 0.66074 0.44372 0.0
H680 H 0.01666 0.93433 0.29762 0.0
H681 H 0.37813 0.89533 0.43472 0.0
H682 H 0.36337 0.8184 0.44185 0.0
H683 H 0.09969 0.99462 0.29292 0.0
H684 H 0.30728 0.74035 0.44686 0.0
N685 N 0.24973 0.85233 0.41843 0.0
C686 C 0.27771 0.89545 0.42004 0.0
C687 C 0.34206 0.88291 0.43041 0.0
C688 C 0.31252 0.83851 0.43074 0.0
C689 C 0.32431 0.9114 0.4256 0.0
C690 C 0.2659 0.82413 0.42494 0.0
H691 H 0.22412 0.68112 0.44819 0.0
N692 N 0.18983 0.7687 0.42354 0.0
C693 C 0.16827 0.69433 0.43904 0.0
C694 C 0.23472 0.7806 0.42764 0.0
C695 C 0.1562 0.72636 0.43051 0.0
C696 C 0.21486 0.70594 0.44147 0.0
C697 C 0.24871 0.74967 0.43632 0.0
O698 O 0.12318 0.7927 0.44229 0.0
O699 O 0.12769 0.83017 0.37897 0.0
O700 O 0.15778 0.90617 0.36132 0.0
O701 O 0.18708 0.89089 0.40305 0.0
O702 O 0.10103 0.77423 0.40632 0.0
O703 O 0.18238 0.85494 0.44375 0.0
O704 O 0.20457 0.88793 0.3012 0.0
O705 O 0.2021 0.85247 0.36609 0.0
O706 O 0.17895 0.77933 0.38178 0.0
O707 O 0.1446 0.79101 0.34155 0.0
O708 O 0.22874 0.9071 0.33723 0.0
O709 O 0.14747 0.82398 0.30203 0.0
C710 C 0.09055 0.79587 0.38722 0.0
C711 C 0.14871 0.8098 0.48716 0.0
C712 C 0.1386 0.81277 0.53726 0.0
C713 C 0.13653 0.82677 0.50882 0.0
C714 C 0.15198 0.78083 0.54343 0.0
C715 C 0.16307 0.77892 0.49415 0.0
C716 C 0.1643 0.76433 0.52207 0.0
C717 C 0.17548 0.91568 0.38582 0.0
C718 C 0.14506 0.82348 0.45748 0.0
C719 C 0.29563 0.76358 0.44054 0.0
C720 C 0.32755 0.80801 0.43771 0.0
C721 C 0.2386 0.88728 0.35785 0.0
C722 C 0.1767 0.86623 0.25746 0.0
C723 C 0.20125 0.86076 0.23553 0.0
C724 C 0.19397 0.8697 0.20704 0.0
C725 C 0.16173 0.88442 0.20138 0.0
C726 C 0.14523 0.8811 0.25084 0.0
C727 C 0.13801 0.89028 0.22301 0.0
C728 C 0.16073 0.76892 0.35755 0.0
C729 C 0.18331 0.85559 0.28716 0.0
H730 H 0.1263 0.85127 0.50347 0.0
H731 H 0.15302 0.76848 0.56489 0.0
H732 H 0.17297 0.76571 0.47809 0.0
H733 H 0.1749 0.74008 0.5272 0.0
H734 H 0.22575 0.84948 0.24077 0.0
H735 H 0.15347 0.89029 0.18019 0.0
H736 H 0.1258 0.88517 0.26717 0.0
H737 H 0.11323 0.90134 0.21816 0.0
Tb738 Tb 0.83979 0.65904 0.66995 0.0
C739 C 0.91096 0.80489 0.74253 0.0
C740 C 0.99287 0.82879 0.74358 0.0
C741 C 0.96442 0.87902 0.74952 0.0
C742 C 0.94727 0.79653 0.74027 0.0
C743 C 0.91885 0.84596 0.74775 0.0
C744 C 1.00136 0.87034 0.74768 0.0
C745 C 0.83593 0.81662 0.75337 0.0
N746 N 0.86746 0.77151 0.74206 0.0
C747 C 0.83 0.7762 0.74893 0.0
C748 C 0.88059 0.85186 0.75239 0.0
Tb749 Tb 0.86071 0.70653 0.734 0.0
N750 N 0.93744 0.75584 0.7367 0.0
C751 C 0.97183 0.74482 0.73764 0.0
C752 C 0.02825 0.8179 0.74366 0.0
C753 C 0.01764 0.7757 0.74073 0.0
H754 H 0.79538 0.74893 0.75016 0.0
H755 H 0.04469 0.76682 0.74102 0.0
H756 H 0.03619 0.89566 0.75011 0.0
H757 H 0.80609 0.82044 0.75783 0.0
H758 H 0.96459 0.71239 0.73559 0.0
H759 H 0.65592 0.59864 0.66183 0.0
H760 H 0.06368 0.84157 0.74646 0.0
H761 H 0.90472 0.61569 0.65494 0.0
H762 H 0.73636 0.65405 0.66566 0.0
H763 H 0.89346 0.54298 0.64981 0.0
H764 H 0.97129 0.91088 0.75336 0.0
H765 H 0.63649 0.52272 0.66045 0.0
H766 H 0.66353 0.46772 0.66019 0.0
H767 H 0.88516 0.88297 0.75631 0.0
H768 H 0.72823 0.45206 0.65817 0.0
N769 N 0.76303 0.60992 0.66772 0.0
C770 C 0.72881 0.62107 0.66545 0.0
C771 C 0.67196 0.5467 0.66278 0.0
C772 C 0.70722 0.53563 0.66412 0.0
C773 C 0.68286 0.58964 0.66327 0.0
C774 C 0.75298 0.56842 0.66647 0.0
H775 H 0.81433 0.48 0.65418 0.0
N776 N 0.83302 0.59322 0.66448 0.0
C777 C 0.86387 0.54714 0.65434 0.0
C778 C 0.78925 0.55964 0.66504 0.0
C779 C 0.87015 0.58818 0.65732 0.0
C780 C 0.81915 0.51164 0.65693 0.0
C781 C 0.78105 0.51788 0.66141 0.0
O782 O 0.88485 0.68045 0.63365 0.0
O783 O 0.88515 0.71284 0.6913 0.0
O784 O 0.84771 0.74957 0.70343 0.0
O785 O 0.81516 0.70724 0.66752 0.0
O786 O 0.91593 0.68932 0.6673 0.0
O787 O 0.81532 0.6697 0.63098 0.0
O788 O 0.82253 0.6905 0.77275 0.0
O789 O 0.81396 0.65396 0.7124 0.0
O790 O 0.84848 0.61448 0.7011 0.0
O791 O 0.88581 0.65871 0.73507 0.0
O792 O 0.78497 0.67728 0.73784 0.0
O793 O 0.88349 0.6836 0.76944 0.0
C794 C 0.92435 0.71963 0.68221 0.0
C795 C 0.85089 0.65953 0.59158 0.0
C796 C 0.86987 0.66708 0.5413 0.0
C797 C 0.86895 0.68561 0.56549 0.0
C798 C 0.85389 0.62217 0.54412 0.0
C799 C 0.83272 0.61465 0.59324 0.0
C800 C 0.83494 0.59622 0.56981 0.0
C801 C 0.82495 0.74136 0.68038 0.0
C802 C 0.8539 0.67991 0.61698 0.0
C803 C 0.73532 0.48446 0.66075 0.0
C804 C 0.69848 0.4934 0.66188 0.0
C805 C 0.77517 0.64813 0.72181 0.0
C806 C 0.8666 0.69983 0.8125 0.0
C807 C 0.86494 0.673 0.83689 0.0
C808 C 0.8766 0.68941 0.86271 0.0
C809 C 0.8916 0.73383 0.86303 0.0
C810 C 0.88193 0.74377 0.81359 0.0
C811 C 0.89474 0.76068 0.83864 0.0
C812 C 0.87275 0.62305 0.72335 0.0
C813 C 0.85128 0.68121 0.78632 0.0
H814 H 0.88127 0.72008 0.56408 0.0
H815 H 0.85534 0.60679 0.52638 0.0
H816 H 0.81706 0.59371 0.61256 0.0
H817 H 0.82172 0.56159 0.57154 0.0
H818 H 0.85385 0.63928 0.83562 0.0
H819 H 0.89937 0.74799 0.88225 0.0
H820 H 0.88336 0.76497 0.79531 0.0
H821 H 0.90599 0.79458 0.83933 0.0
Tb822 Tb 0.37139 0.21153 0.66299 0.0
C823 C 0.20628 0.13287 0.75161 0.0
C824 C 0.1904 0.19126 0.75675 0.0
C825 C 0.12823 0.11664 0.76598 0.0
C826 C 0.22126 0.17654 0.74964 0.0
C827 C 0.15979 0.10225 0.76025 0.0
C828 C 0.1436 0.16111 0.7644 0.0
C829 C 0.18048 0.04585 0.75995 0.0
N830 N 0.23813 0.12042 0.74674 0.0
C831 C 0.22636 0.07755 0.75195 0.0
C832 C 0.14689 0.05821 0.76383 0.0
Tb833 Tb 0.31224 0.17439 0.73297 0.0
N834 N 0.26682 0.20447 0.74251 0.0
C835 C 0.28419 0.24781 0.74351 0.0
C836 C 0.20786 0.23565 0.75696 0.0
C837 C 0.25499 0.26401 0.75041 0.0
H838 H 0.25212 0.0677 0.74902 0.0
H839 H 0.26895 0.29839 0.75081 0.0
H840 H 0.11929 0.17181 0.76972 0.0
H841 H 0.17111 1.01193 0.76326 0.0
H842 H 0.32045 0.27048 0.73863 0.0
H843 H 0.4291 0.09529 0.65064 0.0
H844 H 0.18554 0.24824 0.76284 0.0
H845 H 0.42429 0.31729 0.64126 0.0
H846 H 0.37178 0.11911 0.6576 0.0
H847 H 0.50405 0.37646 0.62776 0.0
H848 H 0.09227 0.09367 0.77247 0.0
H849 H 0.51257 0.14904 0.64337 0.0
H850 H 0.57476 0.22739 0.6366 0.0
H851 H 0.11148 0.03364 0.77034 0.0
H852 H 0.59534 0.3044 0.6303 0.0
N853 N 0.4219 0.18593 0.65537 0.0
C854 C 0.40789 0.14313 0.65444 0.0
C855 C 0.48748 0.15975 0.64656 0.0
C856 C 0.50139 0.20375 0.64559 0.0
C857 C 0.44041 0.12937 0.65052 0.0
C858 C 0.46724 0.21587 0.64979 0.0
H859 H 0.56898 0.36042 0.62641 0.0
N860 N 0.44404 0.26839 0.64882 0.0
C861 C 0.49751 0.34353 0.63319 0.0
C862 C 0.47878 0.2588 0.64634 0.0
C863 C 0.45234 0.3099 0.64089 0.0
C864 C 0.53408 0.33436 0.63251 0.0
C865 C 0.52482 0.29141 0.63852 0.0
O866 O 0.35118 0.23819 0.62801 0.0
O867 O 0.31598 0.20363 0.69082 0.0
O868 O 0.264 0.13268 0.70464 0.0
O869 O 0.31639 0.14212 0.66815 0.0
O870 O 0.34713 0.25894 0.66297 0.0
O871 O 0.35422 0.1796 0.62709 0.0
O872 O 0.32417 0.14047 0.76797 0.0
O873 O 0.36772 0.18227 0.70526 0.0
O874 O 0.41863 0.25754 0.68961 0.0
O875 O 0.36987 0.24213 0.72984 0.0
O876 O 0.33391 0.12556 0.7319 0.0
O877 O 0.33736 0.2057 0.76848 0.0
C878 C 0.3146 0.23781 0.68255 0.0
C879 C 0.36772 0.22462 0.5838 0.0
C880 C 0.35957 0.22393 0.53329 0.0
C881 C 0.34076 0.2076 0.56127 0.0
C882 C 0.40551 0.25819 0.52846 0.0
C883 C 0.41384 0.2576 0.57822 0.0
C884 C 0.43241 0.2745 0.55075 0.0
C885 C 0.27504 0.11997 0.68239 0.0
C886 C 0.34683 0.20882 0.61285 0.0
C887 C 0.55961 0.27984 0.63594 0.0
C888 C 0.5479 0.236 0.63951 0.0
C889 C 0.36789 0.14745 0.7133 0.0
C890 C 0.31968 0.16107 0.81227 0.0
C891 C 0.35077 0.17016 0.83364 0.0
C892 C 0.33457 0.1605 0.86221 0.0
C893 C 0.28638 0.14097 0.86868 0.0
C894 C 0.27205 0.14157 0.81945 0.0
C895 C 0.25559 0.13146 0.84751 0.0
C896 C 0.40915 0.26672 0.71389 0.0
C897 C 0.33766 0.17232 0.78266 0.0
H898 H 0.30552 0.18128 0.56565 0.0
H899 H 0.42091 0.27254 0.5074 0.0
H900 H 0.43553 0.27065 0.59497 0.0
H901 H 0.46786 0.30045 0.54671 0.0
H902 H 0.38751 0.18477 0.82786 0.0
H903 H 0.27226 0.13404 0.89011 0.0
H904 H 0.24764 0.13434 0.80341 0.0
H905 H 0.21873 0.11669 0.85289 0.0
Tb906 Tb 0.83963 0.15527 0.74087 0.0
C907 C 0.75891 0.23193 0.65109 0.0
C908 C 0.68033 0.17372 0.65076 0.0
C909 C 0.69746 0.24844 0.63863 0.0
C910 C 0.72737 0.18836 0.6555 0.0
C911 C 0.74467 0.26253 0.64191 0.0
C912 C 0.66533 0.20405 0.64299 0.0
C913 C 0.82528 0.31778 0.63668 0.0
N914 N 0.80417 0.24404 0.65405 0.0
C915 C 0.83765 0.28607 0.64557 0.0
C916 C 0.77852 0.30608 0.63528 0.0
Tb917 Tb 0.82096 0.18997 0.66957 0.0
N918 N 0.74341 0.1602 0.66265 0.0
C919 C 0.71453 0.11663 0.66339 0.0
C920 C 0.65019 0.12909 0.65301 0.0
C921 C 0.6675 0.10046 0.65907 0.0
H922 H 0.87389 0.29526 0.64629 0.0
H923 H 0.64467 0.06589 0.66034 0.0
H924 H 0.62924 0.19345 0.63955 0.0
H925 H 0.85183 0.35115 0.63078 0.0
H926 H 0.72719 0.09392 0.66791 0.0
H927 H 0.00934 0.28463 0.75845 0.0
H928 H 0.61383 0.11648 0.64942 0.0
H929 H 0.79315 0.05024 0.76237 0.0
H930 H 0.92719 0.25281 0.7494 0.0
H931 H 0.81988 0.99714 0.77611 0.0
H932 H 0.68567 0.27144 0.63188 0.0
H933 H 0.04622 0.23842 0.76547 0.0
H934 H 0.0372 0.16346 0.7712 0.0
H935 H 0.76904 0.33063 0.62815 0.0
H936 H 0.98535 0.08456 0.77588 0.0
N937 N 0.91658 0.18849 0.7504 0.0
C938 C 0.94212 0.23175 0.7525 0.0
C939 C 0.00986 0.22406 0.76147 0.0
C940 C 0.98289 0.17944 0.76129 0.0
C941 C 0.98911 0.25019 0.75764 0.0
C942 C 0.93574 0.16251 0.75596 0.0
H943 H 0.90376 0.02201 0.7784 0.0
N944 N 0.86128 0.10425 0.75566 0.0
C945 C 0.84484 0.03121 0.77102 0.0
C946 C 0.90695 0.11857 0.75854 0.0
C947 C 0.82982 0.06136 0.7633 0.0
C948 C 0.89221 0.04534 0.77217 0.0
C949 C 0.92389 0.08968 0.76659 0.0
O950 O 0.7951 0.12119 0.7773 0.0
O951 O 0.79267 0.16064 0.71207 0.0
O952 O 0.82024 0.23689 0.69482 0.0
O953 O 0.84997 0.22204 0.73641 0.0
O954 O 0.76729 0.10563 0.74004 0.0
O955 O 0.84297 0.18916 0.77442 0.0
O956 O 0.8722 0.21518 0.63591 0.0
O957 O 0.8676 0.18429 0.69866 0.0
O958 O 0.84357 0.11106 0.71424 0.0
O959 O 0.80834 0.12261 0.67443 0.0
O960 O 0.89306 0.2399 0.67062 0.0
O961 O 0.80615 0.1608 0.63236 0.0
C962 C 0.75582 0.1263 0.72085 0.0
C963 C 0.82456 0.14895 0.81944 0.0
C964 C 0.81832 0.15515 0.86938 0.0
C965 C 0.80424 0.15782 0.84183 0.0
C966 C 0.85301 0.14316 0.8737 0.0
C967 C 0.85837 0.13657 0.8247 0.0
C968 C 0.87235 0.13359 0.85166 0.0
C969 C 0.83716 0.24618 0.71949 0.0
C970 C 0.81216 0.15489 0.79049 0.0
C971 C 0.97143 0.10617 0.77008 0.0
C972 C 1.00094 0.15108 0.76743 0.0
C973 C 0.9036 0.21974 0.69073 0.0
C974 C 0.84768 0.2064 0.58999 0.0
C975 C 0.86509 0.19464 0.5675 0.0
C976 C 0.86978 0.21519 0.53954 0.0
C977 C 0.8582 0.24867 0.53523 0.0
C978 C 0.83372 0.23771 0.58417 0.0
C979 C 0.83965 0.25911 0.55716 0.0
C980 C 0.82437 0.10029 0.6903 0.0
C981 C 0.84643 0.18787 0.61954 0.0
H982 H 0.77782 0.16699 0.83759 0.0
H983 H 0.8665 0.14222 0.894 0.0
H984 H 0.87452 0.12984 0.80793 0.0
H985 H 0.89901 0.1246 0.85541 0.0
H986 H 0.87432 0.16932 0.57189 0.0
H987 H 0.86326 0.26713 0.51479 0.0
H988 H 0.81874 0.24617 0.60053 0.0
H989 H 0.82995 0.28417 0.55318 0.0
C990 C 0.35276 0.86402 0.08399 0.0
C991 C 0.30966 0.86285 0.08266 0.0
H992 H 0.42669 0.90245 0.07621 0.0
C993 C 0.30894 0.90051 0.07076 0.0
H994 H 0.3543 0.8353 0.09271 0.0
C995 C 0.3504 0.93875 0.06121 0.0
C996 C 0.39347 0.93968 0.06201 0.0
H997 H 0.27622 0.90016 0.06845 0.0
H998 H 0.34883 0.96762 0.05292 0.0
C999 C 0.39407 0.90196 0.07382 0.0
C1000 C 0.15457 0.4977 0.05599 0.0
C1001 C 0.14712 0.45522 0.06128 0.0
H1002 H 0.12315 0.53786 0.0477 0.0
C1003 C 0.10335 0.4203 0.05852 0.0
H1004 H 0.18833 0.52481 0.05821 0.0
C1005 C 0.06627 0.4275 0.0528 0.0
C1006 C 0.07295 0.46981 0.04903 0.0
H1007 H 0.09746 0.3874 0.06256 0.0
H1008 H 0.03201 0.4 0.05233 0.0
C1009 C 0.11749 0.50503 0.05001 0.0
C1010 C 0.55322 0.70014 0.05108 0.0
C1011 C 0.54067 0.70286 0.07831 0.0
H1012 H 0.55232 0.65889 0.02192 0.0
C1013 C 0.5165 0.66455 0.09724 0.0
H1014 H 0.57326 0.72932 0.03644 0.0
C1015 C 0.50535 0.62431 0.08914 0.0
C1016 C 0.51727 0.62158 0.06175 0.0
H1017 H 0.5067 0.6659 0.11839 0.0
H1018 H 0.48733 0.5953 0.10425 0.0
C1019 C 0.54116 0.65985 0.04279 0.0
C1020 C 0.85843 0.36235 0.97528 0.0
C1021 C 0.84038 0.32369 0.99421 0.0
H1022 H 0.90381 0.43139 0.96839 0.0
C1023 C 0.85438 0.32616 0.02169 0.0
H1024 H 0.84817 0.36156 0.954 0.0
C1025 C 0.88557 0.36613 0.03003 0.0
C1026 C 0.90389 0.40471 1.01109 0.0
H1027 H 0.84224 0.29696 0.03654 0.0
H1028 H 0.89684 0.36645 0.05098 0.0
C1029 C 0.89017 0.40231 0.98353 0.0
C1030 C 0.70113 0.60563 1.01602 0.0
C1031 C 0.70786 0.5703 1.01333 0.0
H1032 H 0.65154 0.62676 0.02221 0.0
C1033 C 0.67069 0.52804 0.01895 0.0
H1034 H 0.72983 0.63836 1.01161 0.0
C1035 C 0.62623 0.52128 0.02518 0.0
C1036 C 0.61893 0.55685 0.02595 0.0
H1037 H 0.67574 0.50065 1.01673 0.0
H1038 H 0.59744 0.48858 0.02764 0.0
C1039 C 0.65672 0.59898 0.02194 0.0
C1040 C 0.48559 0.16348 0.96527 0.0
C1041 C 0.45852 0.17363 0.98221 0.0
H1042 H 0.5166 0.12288 0.96195 0.0
C1043 C 0.43718 0.14686 1.00763 0.0
H1044 H 0.50273 0.18396 0.94573 0.0
C1045 C 0.44541 0.11263 1.01698 0.0
C1046 C 0.4749 0.10417 1.00103 0.0
H1047 H 0.416 0.15398 0.02094 0.0
H1048 H 0.42973 0.0935 0.03711 0.0
C1049 C 0.49365 0.12882 0.9746 0.0
C1050 C 0.66683 0.16934 0.99138 0.0
C1051 C 0.71103 0.1726 0.99118 0.0
H1052 H 0.59337 0.12836 1.00062 0.0
C1053 C 0.71406 0.13516 1.00046 0.0
H1054 H 0.66341 0.19769 0.98451 0.0
C1055 C 0.67397 0.09515 1.0086 0.0
C1056 C 0.6299 0.09204 1.00943 0.0
H1057 H 0.74751 0.13698 1.00212 0.0
H1058 H 0.67749 0.06675 1.01516 0.0
C1059 C 0.62679 0.1297 1.00075 0.0
C1060 C 0.85671 0.53711 1.00459 0.0
C1061 C 0.85993 0.5781 0.99988 0.0
H1062 H 0.89221 0.50112 1.01518 0.0
C1063 C 0.90152 0.61482 1.0038 0.0
H1064 H 0.82431 0.50841 1.00232 0.0
C1065 C 0.94035 0.6109 1.01086 0.0
C1066 C 0.93739 0.56995 1.0153 0.0
H1067 H 0.90376 0.64635 1.00175 0.0
H1068 H 0.97272 0.63981 1.01292 0.0
C1069 C 0.89516 0.53297 1.01237 0.0
C1070 C 0.46207 0.31541 0.02207 0.0
C1071 C 0.47741 0.31805 0.99431 0.0
H1072 H 0.4549 0.34943 0.0539 0.0
C1073 C 0.50033 0.35887 0.97778 0.0
H1074 H 0.44352 0.28429 0.03509 0.0
C1075 C 0.50629 0.39598 0.98842 0.0
C1076 C 0.49044 0.39325 1.01603 0.0
H1077 H 0.51295 0.36188 0.95644 0.0
H1078 H 0.52311 0.42688 0.97498 0.0
C1079 C 0.46874 0.35271 0.03288 0.0
C1080 C 0.15732 0.67616 0.09439 0.0
C1081 C 0.17616 0.71569 0.07631 0.0
H1082 H 0.11039 0.60746 0.09988 0.0
C1083 C 0.16218 0.71516 0.04883 0.0
H1084 H 0.1676 0.67547 0.11562 0.0
C1085 C 0.13007 0.67618 0.0397 0.0
C1086 C 0.1109 0.63679 0.05785 0.0
H1087 H 0.17502 0.74511 0.03464 0.0
H1088 H 0.11881 0.67728 0.01881 0.0
C1089 C 0.1247 0.63726 0.08537 0.0
C1090 C 0.29611 0.41085 0.0724 0.0
C1091 C 0.29174 0.44791 0.0731 0.0
H1092 H 0.34199 0.38568 0.06546 0.0
C1093 C 0.33047 0.48899 0.06554 0.0
H1094 H 0.26622 0.37896 0.07701 0.0
C1095 C 0.37341 0.49297 0.05812 0.0
C1096 C 0.37805 0.45581 0.05804 0.0
H1097 H 0.32742 0.51791 0.06565 0.0
H1098 H 0.40308 0.52502 0.0533 0.0
C1099 C 0.33906 0.41475 0.06519 0.0
C1100 C 0.50907 0.84002 0.08579 0.0
C1101 C 0.55406 0.84628 0.08845 0.0
H1102 H 0.46683 0.86797 0.07321 0.0
C1103 C 0.59139 0.889 0.08499 0.0
H1104 H 0.47955 0.8077 0.08912 0.0
C1105 C 0.58374 0.92446 0.07744 0.0
C1106 C 0.53885 0.91746 0.07254 0.0
H1107 H 0.62652 0.89481 0.08679 0.0
H1108 H 0.6131 0.95691 0.07371 0.0
C1109 C 0.50172 0.87485 0.07714 0.0
C1110 C 0.0209 0.19754 0.41234 0.0
C1111 C 0.97891 0.19778 0.41697 0.0
H1112 H 0.09331 0.23443 0.3994 0.0
C1113 C 0.97969 0.2379 0.41271 0.0
H1114 H 0.02176 0.16734 0.41594 0.0
C1115 C 0.02134 0.27658 0.40394 0.0
C1116 C 0.063 0.27603 0.39839 0.0
H1117 H 0.94803 0.23931 0.41581 0.0
H1118 H 0.02098 0.30705 0.40136 0.0
C1119 C 0.06202 0.23594 0.40276 0.0
C1120 C 0.77854 0.76689 0.39536 0.0
C1121 C 0.82083 0.80385 0.39787 0.0
H1122 H 0.70715 0.74199 0.38717 0.0
C1123 C 0.82545 0.84509 0.39097 0.0
H1124 H 0.77491 0.73491 0.40051 0.0
C1125 C 0.78701 0.84924 0.38335 0.0
C1126 C 0.74396 0.81209 0.38223 0.0
H1127 H 0.85806 0.87374 0.39295 0.0
H1128 H 0.7905 0.88126 0.3797 0.0
C1129 C 0.74018 0.77096 0.38776 0.0
C1130 C 0.22198 0.03636 0.38338 0.0
C1131 C 0.20999 0.03914 0.41071 0.0
H1132 H 0.22018 0.995 0.35407 0.0
C1133 C 0.18582 1.00089 0.42969 0.0
H1134 H 0.24192 0.06553 0.3687 0.0
C1135 C 0.17416 0.96061 0.42152 0.0
C1136 C 0.18561 0.95784 0.39404 0.0
H1137 H 0.17645 1.00234 0.45091 0.0
H1138 H 0.15614 0.93161 0.43664 0.0
C1139 C 0.20945 0.99605 0.37503 0.0
C1140 C 0.55733 0.67801 0.32174 0.0
C1141 C 0.50929 0.66298 0.32436 0.0
H1142 H 0.62577 0.72874 0.32667 0.0
C1143 C 0.49395 0.68896 0.33572 0.0
H1144 H 0.57044 0.65835 0.31402 0.0
C1145 C 0.52586 0.72891 0.34403 0.0
C1146 C 0.57394 0.74442 0.34041 0.0
H1147 H 0.4573 0.67858 0.33792 0.0
H1148 H 0.51294 0.74807 0.35277 0.0
C1149 C 0.58915 0.71838 0.32917 0.0
C1150 C 0.36776 0.94458 0.35105 0.0
C1151 C 0.37611 0.91029 0.34803 0.0
H1152 H 0.31625 0.96362 0.35651 0.0
C1153 C 0.33971 0.86753 0.35264 0.0
H1154 H 0.39585 0.97769 0.34741 0.0
C1155 C 0.29449 0.85934 0.35806 0.0
C1156 C 0.2857 0.89399 0.35901 0.0
H1157 H 0.34602 0.84094 0.35012 0.0
H1158 H 0.26635 0.82637 0.35965 0.0
C1159 C 0.32262 0.93654 0.3561 0.0
C1160 C 0.11227 0.48879 0.34412 0.0
C1161 C 0.13068 0.5119 0.3173 0.0
H1162 H 0.10636 0.43814 0.37554 0.0
C1163 C 0.15373 0.49782 0.30021 0.0
H1164 H 0.09391 0.49876 0.35754 0.0
C1165 C 0.1607 0.46289 0.31051 0.0
C1166 C 0.14524 0.44206 0.33814 0.0
H1167 H 0.16869 0.51543 0.27962 0.0
H1168 H 0.18036 0.45373 0.29747 0.0
C1169 C 0.11978 0.45448 0.35451 0.0
C1170 C 0.38089 0.47234 0.32569 0.0
C1171 C 0.379 0.51117 0.32404 0.0
H1172 H 0.34393 0.40284 0.33557 0.0
C1173 C 0.33654 0.50865 0.33186 0.0
H1174 H 0.41313 0.47307 0.32039 0.0
C1175 C 0.29704 0.4685 0.34095 0.0
C1176 C 0.29894 0.42964 0.34273 0.0
H1177 H 0.33384 0.53791 0.33068 0.0
H1178 H 0.26489 0.46795 0.3462 0.0
C1179 C 0.34133 0.43214 0.33472 0.0
C1180 C 0.52426 0.87709 0.33775 0.0
C1181 C 0.52817 0.91835 0.33391 0.0
H1182 H 0.55918 0.84022 0.34613 0.0
C1183 C 0.57037 0.95458 0.33758 0.0
H1184 H 0.49146 0.8488 0.3355 0.0
C1185 C 0.60908 0.94988 0.3436 0.0
C1186 C 0.60549 0.90866 0.34707 0.0
H1187 H 0.57322 0.98634 0.33596 0.0
H1188 H 0.64193 0.97842 0.34542 0.0
C1189 C 0.56268 0.8722 0.34432 0.0
C1190 C 0.13287 0.65354 0.35259 0.0
C1191 C 0.14928 0.6571 0.32493 0.0
H1192 H 0.12316 0.68601 0.3845 0.0
C1193 C 0.17094 0.69803 0.30853 0.0
H1194 H 0.11506 0.62223 0.36545 0.0
C1195 C 0.17508 0.73443 0.31935 0.0
C1196 C 0.15853 0.73077 0.34697 0.0
H1197 H 0.18437 0.70176 0.28729 0.0
H1198 H 0.19126 0.76553 0.30612 0.0
C1199 C 0.13766 0.69006 0.36355 0.0
C1200 C 0.82453 1.01103 0.42758 0.0
C1201 C 0.84324 0.05141 0.41047 0.0
H1202 H 0.77744 0.94243 0.43158 0.0
C1203 C 0.82819 0.05263 0.38331 0.0
H1204 H 0.83558 1.00896 0.44852 0.0
C1205 C 0.79573 0.0145 0.37344 0.0
C1206 C 0.77696 0.97426 0.39058 0.0
H1207 H 0.84076 0.08325 0.36991 0.0
H1208 H 0.78412 0.01681 0.35273 0.0
C1209 C 0.7914 0.97298 0.41787 0.0
C1210 C 0.96436 0.7536 0.40788 0.0
C1211 C 0.96278 0.79224 0.40772 0.0
H1212 H 0.00662 0.72467 0.4007 0.0
C1213 C 1.00259 0.83195 0.39889 0.0
H1214 H 0.93362 0.72264 0.41401 0.0
C1215 C 0.04375 0.83319 0.39074 0.0
C1216 C 0.04571 0.79462 0.39121 0.0
H1217 H 1.00184 0.86205 0.39867 0.0
H1218 H 0.07421 0.86437 0.38492 0.0
C1219 C 0.00568 0.75479 0.39983 0.0
C1220 C 0.17995 0.17672 0.41991 0.0
C1221 C 0.22501 0.18277 0.42126 0.0
H1222 H 0.1374 0.20497 0.40904 0.0
C1223 C 0.26266 0.22523 0.41643 0.0
H1224 H 0.15033 0.14454 0.42428 0.0
C1225 C 0.25512 0.26067 0.40872 0.0
C1226 C 0.20993 0.25381 0.40518 0.0
H1227 H 0.2978 0.23071 0.41729 0.0
H1228 H 0.2846 0.29292 0.40392 0.0
C1229 C 0.17256 0.21156 0.41138 0.0
C1230 C 0.69172 0.52918 0.7491 0.0
C1231 C 0.64875 0.52856 0.75056 0.0
H1232 H 0.76517 0.5667 0.73777 0.0
C1233 C 0.64786 0.5669 0.74084 0.0
H1234 H 0.69336 0.4999 0.756 0.0
C1235 C 0.68888 0.6052 0.73095 0.0
C1236 C 0.7317 0.60576 0.72904 0.0
H1237 H 0.61526 0.56705 0.74023 0.0
H1238 H 0.68708 0.6345 0.72435 0.0
C1239 C 0.73266 0.56719 0.73824 0.0
C1240 C 0.44221 0.09623 0.72879 0.0
C1241 C 0.48498 0.13239 0.73168 0.0
H1242 H 0.37121 0.07315 0.72024 0.0
C1243 C 0.49085 0.17416 0.72502 0.0
H1244 H 0.43758 0.06384 0.73367 0.0
C1245 C 0.45316 0.1796 0.71729 0.0
C1246 C 0.40962 0.14319 0.71586 0.0
H1247 H 0.52383 0.20224 0.72727 0.0
H1248 H 0.45755 0.21198 0.71383 0.0
C1249 C 0.40463 0.10156 0.7211 0.0
C1250 C 0.87321 0.36453 0.72103 0.0
C1251 C 0.85879 0.36394 0.74861 0.0
H1252 H 0.87815 0.32787 0.69033 0.0
C1253 C 0.83556 0.32398 0.76611 0.0
H1254 H 0.89208 0.39493 0.7073 0.0
C1255 C 0.82819 0.28567 0.75653 0.0
C1256 C 0.84292 0.28638 0.72902 0.0
H1257 H 0.8235 0.32248 0.78731 0.0
H1258 H 0.8109 0.25543 0.77061 0.0
C1259 C 0.86513 0.32612 0.7113 0.0
C1260 C 0.1607 0.02238 0.66906 0.0
C1261 C 0.17604 0.99651 0.65753 0.0
H1262 H 0.17975 0.08129 0.68639 0.0
C1263 C 0.22404 1.0114 0.655 0.0
H1264 H 0.12406 1.01206 0.67121 0.0
C1265 C 0.25587 0.05158 0.66263 0.0
C1266 C 0.24069 0.07756 0.67398 0.0
H1267 H 0.2371 0.99178 0.64716 0.0
H1268 H 0.29247 0.06187 0.66016 0.0
C1269 C 0.19263 0.06216 0.67756 0.0
C1270 C 0.03315 0.27783 0.68395 0.0
C1271 C 0.04199 0.24377 0.68104 0.0
H1272 H 0.98119 0.29644 0.68913 0.0
C1273 C 0.00563 0.20096 0.68504 0.0
H1274 H 0.06115 0.31099 0.68076 0.0
C1275 C 0.96018 0.19251 0.69003 0.0
C1276 C 0.95103 0.22692 0.69123 0.0
H1277 H 0.01224 0.17453 0.68256 0.0
H1278 H 0.93218 0.15949 0.69141 0.0
C1279 C 0.98779 0.26953 0.68856 0.0
C1280 C 0.77374 0.81637 0.67531 0.0
C1281 C 0.79288 0.84163 0.64914 0.0
H1282 H 0.7685 0.76462 0.70545 0.0
C1283 C 0.8182 0.8302 0.63172 0.0
H1284 H 0.75369 0.82427 0.68896 0.0
C1285 C 0.82669 0.79582 0.64119 0.0
C1286 C 0.81032 0.7728 0.66829 0.0
H1287 H 0.83358 0.84939 0.61156 0.0
H1288 H 0.84814 0.78881 0.62801 0.0
C1289 C 0.78259 0.78257 0.68484 0.0
C1290 C 1.00342 0.84211 0.66404 0.0
C1291 C 0.04613 0.84499 0.65639 0.0
H1292 H 0.93168 0.80086 0.67806 0.0
C1293 C 0.04855 0.80644 0.65815 0.0
H1294 H 1.0004 0.87121 0.66281 0.0
C1295 C 0.00923 0.76609 0.66709 0.0
C1296 C 0.96653 0.76317 0.67485 0.0
H1297 H 0.08102 0.80752 0.65298 0.0
H1298 H 0.01221 0.73699 0.66801 0.0
C1299 C 0.96409 0.80177 0.67298 0.0
C1300 C 0.2368 0.28729 0.67294 0.0
C1301 C 0.19443 0.25118 0.66933 0.0
H1302 H 0.30865 0.31106 0.67997 0.0
C1303 C 0.19051 0.20991 0.67277 0.0
H1304 H 0.23971 0.31904 0.67166 0.0
C1305 C 0.22914 0.20498 0.67868 0.0
C1306 C 0.27216 0.24139 0.6812 0.0
H1307 H 0.15766 0.18171 0.67047 0.0
H1308 H 0.22564 0.17303 0.6801 0.0
C1309 C 0.2757 0.28257 0.67826 0.0
C1310 C 0.82969 0.02608 0.64209 0.0
C1311 C 0.80854 0.98569 0.65921 0.0
H1312 H 0.85066 0.09384 0.63852 0.0
C1313 C 0.79427 0.98366 0.68711 0.0
H1314 H 0.84151 0.02869 0.62063 0.0
C1315 C 0.80051 0.02108 0.69753 0.0
C1316 C 0.82056 0.06116 0.68017 0.0
H1317 H 0.77702 0.95288 0.70059 0.0
H1318 H 0.78775 0.01823 0.71877 0.0
C1319 C 0.83508 0.0633 0.65235 0.0
C1320 C 0.49806 0.38485 0.71633 0.0
C1321 C 0.51169 0.38374 0.74383 0.0
H1322 H 0.45431 0.34921 0.68565 0.0
C1323 C 0.49127 0.34366 0.76137 0.0
H1324 H 0.51206 0.41533 0.70259 0.0
C1325 C 0.4578 0.30575 0.7517 0.0
C1326 C 0.44461 0.30688 0.72409 0.0
H1327 H 0.50116 0.34178 0.78263 0.0
H1328 H 0.44256 0.27542 0.76573 0.0
C1329 C 0.46506 0.34688 0.70657 0.0
C1330 C 0.66666 0.1608 0.73357 0.0
C1331 C 0.62713 0.12078 0.74231 0.0
H1332 H 0.73817 0.19406 0.71928 0.0
C1333 C 0.62944 0.0825 0.74227 0.0
H1334 H 0.66545 0.19066 0.7335 0.0
C1335 C 0.67103 0.08435 0.73395 0.0
C1336 C 0.71068 0.12446 0.72523 0.0
H1337 H 0.59899 0.05129 0.74835 0.0
H1338 H 0.67245 0.05448 0.73463 0.0
C1339 C 0.70806 0.16266 0.72511 0.0
C1340 C 0.91138 0.53885 0.7301 0.0
C1341 C 0.88752 0.51328 0.75537 0.0
H1342 H 0.92718 0.59516 0.70081 0.0
C1343 C 0.8637 0.52736 0.77184 0.0
H1344 H 0.93013 0.52863 0.71719 0.0
C1345 C 0.86165 0.56524 0.76238 0.0
C1346 C 0.88337 0.58939 0.7363 0.0
H1347 H 0.84451 0.50775 0.79118 0.0
H1348 H 0.84084 0.57419 0.77459 0.0
C1349 C 0.90944 0.57663 0.72071 0.0
C1350 C 0.54494 0.99274 0.27375 0.0
C1351 C 0.50488 0.9522 0.27819 0.0
H1352 H 0.59132 0.04654 0.24414 0.0
C1353 C 0.48416 0.932 0.25496 0.0
H1354 H 0.56113 1.00937 0.29124 0.0
C1355 C 0.499 0.9545 0.22789 0.0
C1356 C 0.53615 0.99733 0.22341 0.0
H1357 H 0.45307 0.90066 0.25803 0.0
H1358 H 0.47848 0.93939 0.21103 0.0
C1359 C 0.56114 0.01464 0.24659 0.0
C1360 C 0.10742 0.5381 0.24173 0.0
C1361 C 0.08716 0.53737 0.26755 0.0
H1362 H 0.09664 0.52137 0.20015 0.0
C1363 C 0.03884 0.51756 0.27131 0.0
H1364 H 0.14479 0.5542 0.23824 0.0
C1365 C 0.01121 0.5006 0.24931 0.0
C1366 C 0.03106 0.50202 0.22293 0.0
H1367 H 0.02275 0.51799 0.2908 0.0
H1368 H 0.97433 0.4883 0.25283 0.0
C1369 C 0.07971 0.52015 0.21975 0.0
C1370 C 0.41904 0.52765 0.25011 0.0
C1371 C 0.44743 0.5366 0.27268 0.0
H1372 H 0.40423 0.50199 0.21095 0.0
C1373 C 0.48243 0.52509 0.27336 0.0
H1374 H 0.39256 0.53728 0.24891 0.0
C1375 C 0.48976 0.50581 0.25173 0.0
C1376 C 0.46223 0.49744 0.22863 0.0
H1377 H 0.50543 0.53284 0.29023 0.0
H1378 H 0.5183 0.49893 0.25268 0.0
C1379 C 0.42634 0.5082 0.22824 0.0
C1380 C 0.97728 0.50342 0.80091 0.0
C1381 C 0.92916 0.48598 0.80414 0.0
H1382 H 0.04194 0.53515 0.81919 0.0
C1383 C 0.90929 0.49077 0.82825 0.0
H1384 H 0.99293 0.49919 0.7826 0.0
C1385 C 0.93725 0.51219 0.84917 0.0
C1386 C 0.98561 0.52846 0.84657 0.0
H1387 H 0.87204 0.47682 0.83121 0.0
H1388 H 0.9208 0.51551 0.86747 0.0
C1389 C 0.00518 0.52408 0.82193 0.0
C1390 C 0.57142 0.53617 0.80057 0.0
C1391 C 0.58011 0.50112 0.80347 0.0
H1392 H 0.55162 0.57576 0.82062 0.0
C1393 C 0.57897 0.48122 0.83072 0.0
H1394 H 0.57005 0.55113 0.78002 0.0
C1395 C 0.56531 0.49334 0.85424 0.0
C1396 C 0.55297 0.52629 0.8512 0.0
H1397 H 0.58435 0.45335 0.83354 0.0
H1398 H 0.5611 0.47454 0.87445 0.0
C1399 C 0.55909 0.5492 0.82408 0.0
C1400 C 0.53136 0.02737 0.79854 0.0
C1401 C 0.56128 0.07216 0.79498 0.0
H1402 H 0.49827 0.96857 0.82681 0.0
C1403 C 0.58664 0.09139 0.81732 0.0
H1404 H 0.51067 1.01232 0.78166 0.0
C1405 C 0.57984 0.06641 0.84348 0.0
C1406 C 0.54718 0.02183 0.84768 0.0
H1407 H 0.60916 0.12613 0.81504 0.0
H1408 H 0.59887 0.08233 0.8606 0.0
C1409 C 0.5242 1.00249 0.82454 0.0
C1410 C 0.21447 0.32594 0.60922 0.0
C1411 C 0.17356 0.28607 0.61334 0.0
H1412 H 0.263 0.3789 0.57996 0.0
C1413 C 0.15323 0.26613 0.58995 0.0
H1414 H 0.23041 0.34242 0.6268 0.0
C1415 C 0.16941 0.28847 0.56294 0.0
C1416 C 0.20755 0.33077 0.55872 0.0
H1417 H 0.12153 0.23527 0.59277 0.0
H1418 H 0.14918 0.27376 0.54589 0.0
C1419 C 0.23208 0.34753 0.58216 0.0
C1420 C 0.7144 0.83153 0.60135 0.0
C1421 C 0.7555 0.87137 0.59709 0.0
H1422 H 0.65514 0.78506 0.58306 0.0
C1423 C 0.77101 0.89273 0.56962 0.0
H1424 H 0.70161 0.81455 0.62234 0.0
C1425 C 0.74382 0.87702 0.5472 0.0
C1426 C 0.70053 0.8389 0.55156 0.0
H1427 H 0.80265 0.92359 0.56588 0.0
H1428 H 0.75553 0.89655 0.52684 0.0
C1429 C 0.68738 0.81527 0.57881 0.0
C1430 C 0.08587 0.86216 0.58249 0.0
C1431 C 0.11449 0.87116 0.60496 0.0
H1432 H 0.07078 0.83656 0.54331 0.0
C1433 C 0.14963 0.85985 0.60541 0.0
H1434 H 0.05926 0.87162 0.58147 0.0
C1435 C 0.15685 0.84067 0.58367 0.0
C1436 C 0.12908 0.83223 0.56069 0.0
H1437 H 0.17279 0.8676 0.6222 0.0
H1438 H 0.18546 0.83388 0.58446 0.0
C1439 C 0.09308 0.84284 0.56051 0.0
C1440 C 0.58901 0.83224 0.15474 0.0
C1441 C 0.61158 0.82774 0.13173 0.0
H1442 H 0.59605 0.8559 0.1943 0.0
C1443 C 0.65985 0.84585 0.13032 0.0
H1444 H 0.55166 0.81827 0.15613 0.0
C1445 C 0.68516 0.86629 0.1522 0.0
C1446 C 0.66285 0.86982 0.17594 0.0
H1447 H 0.67766 0.84236 0.11273 0.0
H1448 H 0.72212 0.87788 0.15086 0.0
C1449 C 0.61441 0.85318 0.17668 0.0
C1450 C 0.23563 0.87062 0.13258 0.0
C1451 C 0.24138 0.83388 0.13561 0.0
H1452 H 0.21896 0.91236 0.15255 0.0
C1453 C 0.23882 0.8133 0.16287 0.0
H1454 H 0.23614 0.88654 0.11196 0.0
C1455 C 0.22632 0.82642 0.18628 0.0
C1456 C 0.2167 0.86111 0.18314 0.0
H1457 H 0.24241 0.78444 0.16576 0.0
H1458 H 0.22095 0.80721 0.20648 0.0
C1459 C 0.22428 0.88451 0.15603 0.0
C1460 C 0.23724 0.42832 0.15138 0.0
C1461 C 0.22982 0.40647 0.128 0.0
H1462 H 0.22733 0.42278 0.19563 0.0
C1463 C 0.21713 0.36247 0.13214 0.0
H1464 H 0.24613 0.46214 0.14854 0.0
C1465 C 0.2077 0.33977 0.15921 0.0
C1466 C 0.20847 0.36018 0.18269 0.0
H1467 H 0.20998 0.34465 0.11449 0.0
H1468 H 0.19634 0.30545 0.16144 0.0
C1469 C 0.22609 0.40541 0.17845 0.0
C1470 C 0.8179 0.59288 0.92003 0.0
C1471 C 0.83717 0.61223 0.9438 0.0
H1472 H 0.81326 0.60203 0.87603 0.0
C1473 C 0.8761 0.65358 0.94016 0.0
H1474 H 0.78764 0.56097 0.92244 0.0
C1475 C 0.89248 0.67688 0.91335 0.0
C1476 C 0.86867 0.66018 0.8897 0.0
H1477 H 0.89105 0.66971 0.95803 0.0
H1478 H 0.92171 0.7093 0.91159 0.0
C1479 C 0.83283 0.61673 0.8933 0.0
C1480 C 0.43768 0.22726 0.90327 0.0
C1481 C 0.42238 0.2056 0.93069 0.0
H1482 H 0.42202 0.23118 0.86051 0.0
C1483 C 0.38141 0.16565 0.9349 0.0
H1484 H 0.46927 0.25816 0.89955 0.0
C1485 C 0.35436 0.14946 0.91237 0.0
C1486 C 0.36738 0.17324 0.88517 0.0
H1487 H 0.36878 0.14843 0.95585 0.0
H1488 H 0.32224 0.11913 0.91657 0.0
C1489 C 0.41046 0.21157 0.88084 0.0
C1490 C 0.77631 0.21544 0.91187 0.0
C1491 C 0.77958 0.19993 0.93948 0.0
H1492 H 0.78685 0.21477 0.86822 0.0
C1493 C 0.79054 0.16638 0.94388 0.0
H1494 H 0.76922 0.24221 0.90794 0.0
C1495 C 0.79916 0.14942 0.92123 0.0
C1496 C 0.79967 0.1672 0.89336 0.0
H1497 H 0.79593 0.15537 0.96464 0.0
H1498 H 0.80772 0.12368 0.92576 0.0
C1499 C 0.7865 0.19956 0.88908 0.0
C1500 C 0.25919 0.16801 0.48729 0.0
C1501 C 0.28204 0.16354 0.4644 0.0
H1502 H 0.26563 0.1911 0.527 0.0
C1503 C 0.33025 0.18123 0.46335 0.0
H1504 H 0.22189 0.15437 0.48839 0.0
C1505 C 0.35517 0.20111 0.4855 0.0
C1506 C 0.33254 0.20454 0.50912 0.0
H1507 H 0.34827 0.1778 0.44584 0.0
H1508 H 0.39206 0.21231 0.48444 0.0
C1509 C 0.28422 0.18842 0.50948 0.0
C1510 C 0.92466 0.16772 0.49352 0.0
C1511 C 0.90766 0.17221 0.46739 0.0
H1512 H 0.92748 0.17839 0.53654 0.0
C1513 C 0.88067 0.19278 0.4648 0.0
H1514 H 0.94433 0.15066 0.49625 0.0
C1515 C 0.86904 0.20681 0.48795 0.0
C1516 C 0.8849 0.20168 0.51458 0.0
H1517 H 0.86549 0.19487 0.44523 0.0
H1518 H 0.84541 0.21963 0.48497 0.0
C1519 C 0.91389 0.18269 0.51677 0.0
C1520 C 0.86756 0.70049 0.46397 0.0
C1521 C 0.89822 0.74508 0.46079 0.0
H1522 H 0.83336 0.64139 0.49173 0.0
C1523 C 0.92434 0.7634 0.48311 0.0
H1524 H 0.84642 0.68617 0.44708 0.0
C1525 C 0.9174 0.73773 0.50899 0.0
C1526 C 0.88371 0.69344 0.51294 0.0
H1527 H 0.94758 0.798 0.48107 0.0
H1528 H 0.93698 0.753 0.52614 0.0
C1529 C 0.86013 0.67498 0.48971 0.0
loop_
_geom_bond_atom_site_label_1
_geom_bond_atom_site_label_2
_geom_bond_distance
_geom_bond_site_symmetry_2
_ccdc_geom_bond_type
C0 N1 1.317 . S
C0 N2 1.348 . S
C0 C3 1.485 . S
N1 C0 1.317 . S
N1 N5 1.370 . S
N2 C0 1.348 . S
N2 C4 1.346 . S
C3 C0 1.485 . S
C3 H7 0.960 . S
C3 H8 0.961 . S
C3 H9 0.960 . S
C4 N2 1.346 . S
C4 N5 1.307 . S
C4 C6 1.486 . S
N5 N1 1.370 . S
N5 C4 1.307 . S
C6 C4 1.486 . S
C6 H10 0.960 . S
C6 H11 0.960 . S
C6 H12 0.959 . S
H7 C3 0.960 . S
H8 C3 0.961 . S
H9 C3 0.960 . S
H10 C6 0.960 . S
H11 C6 0.960 . S
H12 C6 0.959 . S
C13 N14 1.317 . S
C13 N15 1.348 . S
C13 C16 1.485 . S
N14 C13 1.317 . S
N14 N18 1.370 . S
N15 C13 1.348 . S
N15 C17 1.346 . S
C16 C13 1.485 . S
C16 H20 0.960 . S
C16 H21 0.961 . S
C16 H22 0.960 . S
C17 N15 1.346 . S
C17 N18 1.307 . S
C17 C19 1.486 . S
N18 N14 1.370 . S
N18 C17 1.307 . S
C19 C17 1.486 . S
C19 H23 0.960 . S
C19 H24 0.960 . S
C19 H25 0.959 . S
H20 C16 0.960 . S
H21 C16 0.961 . S
H22 C16 0.960 . S
H23 C19 0.960 . S
H24 C19 0.960 . S
H25 C19 0.959 . S
C26 N27 1.317 . S
C26 N28 1.348 . S
C26 C29 1.485 . S
N27 C26 1.317 . S
N27 N31 1.370 . S
N28 C26 1.348 . S
N28 C30 1.346 . S
C29 C26 1.485 . S
C29 H33 0.960 . S
C29 H34 0.961 . S
C29 H35 0.960 . S
C30 N28 1.346 . S
C30 N31 1.307 . S
C30 C32 1.486 . S
N31 N27 1.370 . S
N31 C30 1.307 . S
C32 C30 1.486 . S
C32 H36 0.960 . S
C32 H37 0.960 . S
C32 H38 0.959 . S
H33 C29 0.960 . S
H34 C29 0.961 . S
H35 C29 0.960 . S
H36 C32 0.960 . S
H37 C32 0.960 . S
H38 C32 0.959 . S
C39 N40 1.317 . S
C39 N41 1.348 . S
C39 C42 1.485 . S
N40 C39 1.317 . S
N40 N44 1.370 . S
N41 C39 1.348 . S
N41 C43 1.346 . S
C42 C39 1.485 . S
C42 H46 0.960 . S
C42 H47 0.961 . S
C42 H48 0.960 . S
C43 N41 1.346 . S
C43 N44 1.307 . S
C43 C45 1.486 . S
N44 N40 1.370 . S
N44 C43 1.307 . S
C45 C43 1.486 . S
C45 H49 0.960 . S
C45 H50 0.960 1_455 S
C45 H51 0.959 . S
H46 C42 0.960 . S
H47 C42 0.961 . S
H48 C42 0.960 . S
H49 C45 0.960 . S
H50 C45 0.960 1_655 S
H51 C45 0.959 . S
C52 N53 1.317 . S
C52 N54 1.348 . S
C52 C55 1.485 . S
N53 C52 1.317 . S
N53 N57 1.370 . S
N54 C52 1.348 . S
N54 C56 1.346 . S
C55 C52 1.485 . S
C55 H59 0.960 . S
C55 H60 0.961 . S
C55 H61 0.960 . S
C56 N54 1.346 . S
C56 N57 1.307 . S
C56 C58 1.486 . S
N57 N53 1.370 . S
N57 C56 1.307 . S
C58 C56 1.486 . S
C58 H62 0.960 . S
C58 H63 0.960 . S
C58 H64 0.959 . S
H59 C55 0.960 . S
H60 C55 0.961 . S
H61 C55 0.960 . S
H62 C58 0.960 . S
H63 C58 0.960 . S
H64 C58 0.959 . S
C65 N66 1.317 . S
C65 N67 1.348 . S
C65 C68 1.485 . S
N66 C65 1.317 . S
N66 N70 1.370 . S
N67 C65 1.348 . S
N67 C69 1.346 . S
C68 C65 1.485 . S
C68 H72 0.960 . S
C68 H73 0.961 . S
C68 H74 0.960 . S
C69 N67 1.346 . S
C69 N70 1.307 . S
C69 C71 1.486 . S
N70 N66 1.370 . S
N70 C69 1.307 . S
C71 C69 1.486 . S
C71 H75 0.960 . S
C71 H76 0.960 . S
C71 H77 0.959 . S
H72 C68 0.960 . S
H73 C68 0.961 . S
H74 C68 0.960 . S
H75 C71 0.960 . S
H76 C71 0.960 . S
H77 C71 0.959 . S
C78 N79 1.317 . S
C78 N80 1.348 . S
C78 C81 1.485 . S
N79 C78 1.317 . S
N79 N83 1.370 . S
N80 C78 1.348 . S
N80 C82 1.346 . S
C81 C78 1.485 . S
C81 H85 0.960 . S
C81 H86 0.961 . S
C81 H87 0.960 . S
C82 N80 1.346 . S
C82 N83 1.307 . S
C82 C84 1.486 . S
N83 N79 1.370 . S
N83 C82 1.307 . S
C84 C82 1.486 . S
C84 H88 0.960 . S
C84 H89 0.960 . S
C84 H90 0.959 . S
H85 C81 0.960 . S
H86 C81 0.961 . S
H87 C81 0.960 . S
H88 C84 0.960 . S
H89 C84 0.960 . S
H90 C84 0.959 . S
C91 N92 1.317 . S
C91 N93 1.348 . S
C91 C94 1.485 . S
N92 C91 1.317 . S
N92 N96 1.370 . S
N93 C91 1.348 . S
N93 C95 1.346 . S
C94 C91 1.485 . S
C94 H98 0.960 . S
C94 H99 0.961 . S
C94 H100 0.960 . S
C95 N93 1.346 . S
C95 N96 1.307 . S
C95 C97 1.486 . S
N96 N92 1.370 . S
N96 C95 1.307 . S
C97 C95 1.486 . S
C97 H101 0.960 . S
C97 H102 0.960 . S
C97 H103 0.959 . S
H98 C94 0.960 . S
H99 C94 0.961 . S
H100 C94 0.960 . S
H101 C97 0.960 . S
H102 C97 0.960 . S
H103 C97 0.959 . S
C104 N105 1.317 . S
C104 N106 1.348 . S
C104 C107 1.485 . S
N105 C104 1.317 . S
N105 N109 1.370 . S
N106 C104 1.348 . S
N106 C108 1.346 . S
C107 C104 1.485 . S
C107 H111 0.960 . S
C107 H112 0.961 . S
C107 H113 0.960 . S
C108 N106 1.346 . S
C108 N109 1.307 . S
C108 C110 1.486 . S
N109 N105 1.370 . S
N109 C108 1.307 . S
C110 C108 1.486 . S
C110 H114 0.960 . S
C110 H115 0.960 . S
C110 H116 0.959 . S
H111 C107 0.960 . S
H112 C107 0.961 . S
H113 C107 0.960 . S
H114 C110 0.960 . S
H115 C110 0.960 . S
H116 C110 0.959 . S
C117 N118 1.317 . S
C117 N119 1.348 . S
C117 C120 1.485 1_556 S
N118 C117 1.317 . S
N118 N122 1.370 . S
N119 C117 1.348 . S
N119 C121 1.346 . S
C120 C117 1.485 1_554 S
C120 H124 0.960 . S
C120 H125 0.961 . S
C120 H126 0.960 . S
C121 N119 1.346 . S
C121 N122 1.307 . S
C121 C123 1.486 . S
N122 N118 1.370 . S
N122 C121 1.307 . S
C123 C121 1.486 . S
C123 H127 0.960 . S
C123 H128 0.960 . S
C123 H129 0.959 . S
H124 C120 0.960 . S
H125 C120 0.961 . S
H126 C120 0.960 . S
H127 C123 0.960 . S
H128 C123 0.960 . S
H129 C123 0.959 . S
C130 N131 1.317 . S
C130 N132 1.348 . S
C130 C133 1.485 1_556 S
N131 C130 1.317 . S
N131 N135 1.370 . S
N132 C130 1.348 . S
N132 C134 1.346 . S
C133 C130 1.485 1_554 S
C133 H137 0.960 . S
C133 H138 0.961 . S
C133 H139 0.960 . S
C134 N132 1.346 . S
C134 N135 1.307 . S
C134 C136 1.486 . S
N135 N131 1.370 . S
N135 C134 1.307 . S
C136 C134 1.486 . S
C136 H140 0.960 . S
C136 H141 0.960 . S
C136 H142 0.959 . S
H137 C133 0.960 . S
H138 C133 0.961 . S
H139 C133 0.960 . S
H140 C136 0.960 . S
H141 C136 0.960 . S
H142 C136 0.959 . S
C143 N144 1.317 . S
C143 N145 1.348 . S
C143 C146 1.485 1_556 S
N144 C143 1.317 . S
N144 N148 1.370 . S
N145 C143 1.348 . S
N145 C147 1.346 . S
C146 C143 1.485 1_554 S
C146 H150 0.960 . S
C146 H151 0.961 . S
C146 H152 0.960 . S
C147 N145 1.346 . S
C147 N148 1.307 . S
C147 C149 1.486 . S
N148 N144 1.370 . S
N148 C147 1.307 . S
C149 C147 1.486 . S
C149 H153 0.960 . S
C149 H154 0.960 . S
C149 H155 0.959 . S
H150 C146 0.960 . S
H151 C146 0.961 . S
H152 C146 0.960 . S
H153 C149 0.960 . S
H154 C149 0.960 . S
H155 C149 0.959 . S
C156 N157 1.317 . S
C156 N158 1.348 . S
C156 C159 1.485 . S
N157 C156 1.317 . S
N157 N161 1.370 . S
N158 C156 1.348 . S
N158 C160 1.346 . S
C159 C156 1.485 . S
C159 H163 0.960 . S
C159 H164 0.961 . S
C159 H165 0.960 . S
C160 N158 1.346 . S
C160 N161 1.307 . S
C160 C162 1.486 . S
N161 N157 1.370 . S
N161 C160 1.307 . S
C162 C160 1.486 . S
C162 H166 0.960 . S
C162 H167 0.960 . S
C162 H168 0.959 . S
H163 C159 0.960 . S
H164 C159 0.961 . S
H165 C159 0.960 . S
H166 C162 0.960 . S
H167 C162 0.960 . S
H168 C162 0.959 . S
C169 N170 1.317 . S
C169 N171 1.348 . S
C169 C172 1.485 . S
N170 C169 1.317 . S
N170 N174 1.370 . S
N171 C169 1.348 . S
N171 C173 1.346 . S
C172 C169 1.485 . S
C172 H176 0.960 . S
C172 H177 0.961 . S
C172 H178 0.960 . S
C173 N171 1.346 . S
C173 N174 1.307 . S
C173 C175 1.486 . S
N174 N170 1.370 . S
N174 C173 1.307 . S
C175 C173 1.486 . S
C175 H179 0.960 . S
C175 H180 0.960 . S
C175 H181 0.959 . S
H176 C172 0.960 . S
H177 C172 0.961 . S
H178 C172 0.960 . S
H179 C175 0.960 . S
H180 C175 0.960 . S
H181 C175 0.959 . S
C182 N183 1.317 . S
C182 N184 1.348 . S
C182 C185 1.485 . S
N183 C182 1.317 . S
N183 N187 1.370 . S
N184 C182 1.348 . S
N184 C186 1.346 . S
C185 C182 1.485 . S
C185 H189 0.960 . S
C185 H190 0.961 . S
C185 H191 0.960 . S
C186 N184 1.346 . S
C186 N187 1.307 . S
C186 C188 1.486 . S
N187 N183 1.370 . S
N187 C186 1.307 . S
C188 C186 1.486 . S
C188 H192 0.960 . S
C188 H193 0.960 . S
C188 H194 0.959 . S
H189 C185 0.960 . S
H190 C185 0.961 . S
H191 C185 0.960 . S
H192 C188 0.960 . S
H193 C188 0.960 . S
H194 C188 0.959 . S
C195 N196 1.317 . S
C195 N197 1.348 . S
C195 C198 1.485 . S
N196 C195 1.317 . S
N196 N200 1.370 . S
N197 C195 1.348 . S
N197 C199 1.346 . S
C198 C195 1.485 . S
C198 H202 0.960 . S
C198 H203 0.961 . S
C198 H204 0.960 . S
C199 N197 1.346 . S
C199 N200 1.307 . S
C199 C201 1.486 . S
N200 N196 1.370 . S
N200 C199 1.307 . S
C201 C199 1.486 . S
C201 H205 0.960 . S
C201 H206 0.960 . S
C201 H207 0.959 . S
H202 C198 0.960 . S
H203 C198 0.961 . S
H204 C198 0.960 . S
H205 C201 0.960 . S
H206 C201 0.960 . S
H207 C201 0.959 . S
C208 N209 1.317 . S
C208 N210 1.348 . S
C208 C211 1.485 . S
N209 C208 1.317 . S
N209 N213 1.370 . S
N210 C208 1.348 . S
N210 C212 1.346 . S
C211 C208 1.485 . S
C211 H215 0.960 . S
C211 H216 0.961 . S
C211 H217 0.960 . S
C212 N210 1.346 . S
C212 N213 1.307 . S
C212 C214 1.486 . S
N213 N209 1.370 . S
N213 C212 1.307 . S
C214 C212 1.486 . S
C214 H218 0.960 . S
C214 H219 0.960 . S
C214 H220 0.959 . S
H215 C211 0.960 . S
H216 C211 0.961 . S
H217 C211 0.960 . S
H218 C214 0.960 . S
H219 C214 0.960 . S
H220 C214 0.959 . S
C221 N222 1.317 . S
C221 N223 1.348 . S
C221 C224 1.485 . S
N222 C221 1.317 . S
N222 N226 1.370 . S
N223 C221 1.348 . S
N223 C225 1.346 . S
C224 C221 1.485 . S
C224 H228 0.960 . S
C224 H229 0.961 . S
C224 H230 0.960 . S
C225 N223 1.346 . S
C225 N226 1.307 . S
C225 C227 1.486 . S
N226 N222 1.370 . S
N226 C225 1.307 . S
C227 C225 1.486 . S
C227 H231 0.960 . S
C227 H232 0.960 . S
C227 H233 0.959 . S
H228 C224 0.960 . S
H229 C224 0.961 . S
H230 C224 0.960 . S
H231 C227 0.960 . S
H232 C227 0.960 . S
H233 C227 0.959 . S
Tb234 N265 2.660 . S
Tb234 N272 2.600 . S
Tb234 O278 2.546 . S
Tb234 O279 2.610 1_566 S
Tb234 O281 2.320 1_565 S
Tb234 O282 2.552 1_565 S
Tb234 O283 2.413 1_565 S
Tb234 O285 2.362 1_556 S
Tb234 O286 2.421 1_556 S
Tb234 C298 2.833 1_565 S
C235 C238 1.432 . S
C235 C239 1.414 . S
C235 N242 1.359 . S
C236 C238 1.417 . S
C236 C240 1.432 . S
C236 C248 1.410 . S
C237 C239 1.444 . S
C237 C240 1.317 . S
C237 H260 0.929 . S
C238 C235 1.432 . S
C238 C236 1.417 . S
C238 N246 1.360 . S
C239 C235 1.414 . S
C239 C237 1.444 . S
C239 C244 1.385 . S
C240 C236 1.432 . S
C240 C237 1.317 . S
C240 H252 0.930 . S
C241 C243 1.392 . S
C241 C244 1.370 . S
C241 H253 0.931 . S
N242 C235 1.359 . S
N242 C243 1.327 . S
N242 Tb245 2.600 . S
C243 C241 1.392 . S
C243 N242 1.327 . S
C243 H250 0.930 . S
C244 C239 1.385 . S
C244 C241 1.370 . S
C244 H263 0.930 . S
Tb245 N242 2.600 . S
Tb245 N246 2.660 . S
Tb245 O279 2.362 . S
Tb245 O280 2.421 . S
Tb245 O284 2.546 . S
Tb245 O285 2.610 1_545 S
Tb245 O287 2.320 1_545 S
Tb245 O288 2.552 1_545 S
Tb245 O289 2.413 1_545 S
Tb245 C309 2.833 1_545 S
N246 C238 1.360 . S
N246 Tb245 2.660 . S
N246 C247 1.305 . S
C247 N246 1.305 . S
C247 C249 1.407 . S
C247 H254 0.930 . S
C248 C236 1.410 . S
C248 C249 1.345 . S
C248 H256 0.930 . S
C249 C247 1.407 . S
C249 C248 1.345 . S
C249 H251 0.930 . S
H250 C243 0.930 . S
H251 C249 0.930 . S
H252 C240 0.930 . S
H253 C241 0.931 . S
H254 C247 0.930 . S
H255 C269 0.930 . S
H256 C248 0.930 . S
H257 C275 0.930 . S
H258 C266 0.930 1_545 S
H259 C273 0.931 . S
H260 C237 0.929 . S
H261 C267 0.930 . S
H262 C300 0.930 . S
H263 C244 0.930 . S
H264 C299 0.929 . S
N265 Tb234 2.660 . S
N265 C266 1.305 . S
N265 C270 1.360 . S
C266 H258 0.930 1_565 S
C266 N265 1.305 . S
C266 C269 1.407 . S
C267 H261 0.930 . S
C267 C268 1.410 . S
C267 C269 1.345 . S
C268 C267 1.410 . S
C268 C270 1.417 . S
C268 C300 1.432 . S
C269 H255 0.930 . S
C269 C266 1.407 . S
C269 C267 1.345 . S
C270 N265 1.360 . S
C270 C268 1.417 . S
C270 C274 1.432 . S
H271 C276 0.930 . S
N272 Tb234 2.600 . S
N272 C274 1.359 . S
N272 C275 1.327 . S
C273 H259 0.931 . S
C273 C275 1.392 . S
C273 C276 1.370 . S
C274 C270 1.432 . S
C274 N272 1.359 . S
C274 C277 1.414 . S
C275 H257 0.930 . S
C275 N272 1.327 . S
C275 C273 1.392 . S
C276 H271 0.930 . S
C276 C273 1.370 . S
C276 C277 1.385 . S
C277 C274 1.414 . S
C277 C276 1.385 . S
C277 C299 1.444 . S
O278 Tb234 2.546 . S
O278 C298 1.251 1_565 S
O279 Tb234 2.610 1_544 S
O279 Tb245 2.362 . S
O279 C290 1.283 1_554 S
O280 Tb245 2.421 . S
O280 C297 1.262 . S
O281 Tb234 2.320 1_545 S
O281 C297 1.260 1_556 S
O282 Tb234 2.552 1_545 S
O282 C290 1.243 . S
O283 Tb234 2.413 1_545 S
O283 C298 1.256 . S
O284 Tb245 2.546 . S
O284 C309 1.251 1_545 S
O285 Tb234 2.362 1_554 S
O285 Tb245 2.610 1_565 S
O285 C301 1.283 . S
O286 Tb234 2.421 1_554 S
O286 C308 1.262 . S
O287 Tb245 2.320 1_565 S
O287 C308 1.260 . S
O288 Tb245 2.552 1_565 S
O288 C301 1.243 . S
O289 Tb245 2.413 1_565 S
O289 C309 1.256 . S
C290 O279 1.283 1_556 S
C290 O282 1.243 . S
C291 C293 1.382 . S
C291 C295 1.393 . S
C291 C298 1.500 . S
C292 C293 1.400 . S
C292 C294 1.384 . S
C293 C291 1.382 . S
C293 C292 1.400 . S
C293 H310 0.930 . S
C294 C292 1.384 . S
C294 C296 1.392 . S
C294 H311 0.931 . S
C295 C291 1.393 . S
C295 C296 1.401 . S
C295 H312 0.930 1_545 S
C296 C294 1.392 . S
C296 C295 1.401 . S
C296 H313 0.930 . S
C297 O280 1.262 . S
C297 O281 1.260 1_554 S
C298 Tb234 2.833 1_545 S
C298 O278 1.251 1_545 S
C298 O283 1.256 . S
C298 C291 1.500 . S
C299 H264 0.929 . S
C299 C277 1.444 . S
C299 C300 1.317 . S
C300 H262 0.930 . S
C300 C268 1.432 . S
C300 C299 1.317 . S
C301 O285 1.283 . S
C301 O288 1.243 . S
C302 C303 1.382 . S
C302 C306 1.393 . S
C302 C309 1.500 . S
C303 C302 1.382 . S
C303 C304 1.400 . S
C303 H314 0.930 . S
C304 C303 1.400 . S
C304 C305 1.384 . S
C305 C304 1.384 . S
C305 C307 1.392 . S
C305 H315 0.931 . S
C306 C302 1.393 . S
C306 C307 1.401 . S
C306 H316 0.930 1_565 S
C307 C305 1.392 . S
C307 C306 1.401 . S
C307 H317 0.930 . S
C308 O286 1.262 . S
C308 O287 1.260 . S
C309 Tb245 2.833 1_565 S
C309 O284 1.251 1_565 S
C309 O289 1.256 . S
C309 C302 1.500 . S
H310 C293 0.930 . S
H311 C294 0.931 . S
H312 C295 0.930 1_565 S
H313 C296 0.930 . S
H314 C303 0.930 . S
H315 C305 0.931 . S
H316 C306 0.930 1_545 S
H317 C307 0.930 . S
Tb318 N349 2.660 . S
Tb318 N356 2.600 . S
Tb318 O362 2.546 . S
Tb318 O363 2.610 1_456 S
Tb318 O365 2.320 1_455 S
Tb318 O366 2.552 1_455 S
Tb318 O367 2.413 . S
Tb318 O369 2.362 1_556 S
Tb318 O370 2.421 . S
Tb318 C382 2.833 . S
C319 C322 1.432 . S
C319 C323 1.414 . S
C319 N326 1.359 . S
C320 C322 1.417 . S
C320 C324 1.432 . S
C320 C332 1.410 . S
C321 C323 1.444 . S
C321 C324 1.317 . S
C321 H344 0.929 . S
C322 C319 1.432 . S
C322 C320 1.417 . S
C322 N330 1.360 . S
C323 C319 1.414 . S
C323 C321 1.444 . S
C323 C328 1.385 . S
C324 C320 1.432 . S
C324 C321 1.317 . S
C324 H336 0.930 . S
C325 C327 1.392 . S
C325 C328 1.370 . S
C325 H337 0.931 . S
N326 C319 1.359 . S
N326 C327 1.327 . S
N326 Tb329 2.600 . S
C327 C325 1.392 . S
C327 N326 1.327 . S
C327 H334 0.930 . S
C328 C323 1.385 . S
C328 C325 1.370 . S
C328 H347 0.930 . S
Tb329 N326 2.600 . S
Tb329 N330 2.660 . S
Tb329 O363 2.362 . S
Tb329 O364 2.421 . S
Tb329 O368 2.546 . S
Tb329 O369 2.610 1_655 S
Tb329 O371 2.320 1_655 S
Tb329 O372 2.552 1_655 S
Tb329 O373 2.413 . S
Tb329 C393 2.833 . S
N330 C322 1.360 . S
N330 Tb329 2.660 . S
N330 C331 1.305 . S
C331 N330 1.305 . S
C331 C333 1.407 . S
C331 H338 0.930 . S
C332 C320 1.410 . S
C332 C333 1.345 . S
C332 H340 0.930 . S
C333 C331 1.407 . S
C333 C332 1.345 . S
C333 H335 0.930 . S
H334 C327 0.930 . S
H335 C333 0.930 . S
H336 C324 0.930 . S
H337 C325 0.931 . S
H338 C331 0.930 . S
H339 C353 0.930 . S
H340 C332 0.930 . S
H341 C359 0.930 . S
H342 C350 0.930 . S
H343 C357 0.931 . S
H344 C321 0.929 . S
H345 C351 0.930 . S
H346 C384 0.930 . S
H347 C328 0.930 . S
H348 C383 0.929 . S
N349 Tb318 2.660 . S
N349 C350 1.305 . S
N349 C354 1.360 . S
C350 H342 0.930 . S
C350 N349 1.305 . S
C350 C353 1.407 . S
C351 H345 0.930 . S
C351 C352 1.410 . S
C351 C353 1.345 . S
C352 C351 1.410 . S
C352 C354 1.417 . S
C352 C384 1.432 . S
C353 H339 0.930 . S
C353 C350 1.407 . S
C353 C351 1.345 . S
C354 N349 1.360 . S
C354 C352 1.417 . S
C354 C358 1.432 . S
H355 C360 0.930 . S
N356 Tb318 2.600 . S
N356 C358 1.359 . S
N356 C359 1.327 . S
C357 H343 0.931 . S
C357 C359 1.392 . S
C357 C360 1.370 . S
C358 C354 1.432 . S
C358 N356 1.359 . S
C358 C361 1.414 . S
C359 H341 0.930 . S
C359 N356 1.327 . S
C359 C357 1.392 . S
C360 H355 0.930 . S
C360 C357 1.370 . S
C360 C361 1.385 . S
C361 C358 1.414 . S
C361 C360 1.385 . S
C361 C383 1.444 . S
O362 Tb318 2.546 . S
O362 C382 1.251 . S
O363 Tb318 2.610 1_654 S
O363 Tb329 2.362 . S
O363 C374 1.283 1_554 S
O364 Tb329 2.421 . S
O364 C381 1.260 1_554 S
O365 Tb318 2.320 1_655 S
O365 C381 1.261 . S
O366 Tb318 2.552 1_655 S
O366 C374 1.243 . S
O367 Tb318 2.413 . S
O367 C382 1.256 . S
O368 Tb329 2.546 . S
O368 C393 1.251 . S
O369 Tb318 2.362 1_554 S
O369 Tb329 2.610 1_455 S
O369 C385 1.283 . S
O370 Tb318 2.421 . S
O370 C392 1.262 1_556 S
O371 Tb329 2.320 1_455 S
O371 C392 1.260 . S
O372 Tb329 2.552 1_455 S
O372 C385 1.243 . S
O373 Tb329 2.413 . S
O373 C393 1.256 . S
C374 O363 1.283 1_556 S
C374 O366 1.243 . S
C375 C377 1.382 1_455 S
C375 C379 1.393 . S
C375 C382 1.500 . S
C376 C377 1.400 . S
C376 C378 1.384 1_655 S
C377 C375 1.382 1_655 S
C377 C376 1.400 . S
C377 H394 0.930 . S
C378 C376 1.384 1_455 S
C378 C380 1.392 . S
C378 H395 0.931 . S
C379 C375 1.393 . S
C379 C380 1.401 . S
C379 H396 0.930 . S
C380 C378 1.392 . S
C380 C379 1.401 . S
C380 H397 0.930 . S
C381 O364 1.260 1_556 S
C381 O365 1.261 . S
C382 Tb318 2.833 . S
C382 O362 1.251 . S
C382 O367 1.256 . S
C382 C375 1.500 . S
C383 H348 0.929 . S
C383 C361 1.444 . S
C383 C384 1.317 . S
C384 H346 0.930 . S
C384 C352 1.432 . S
C384 C383 1.317 . S
C385 O369 1.283 . S
C385 O372 1.243 . S
C386 C387 1.382 1_655 S
C386 C390 1.393 . S
C386 C393 1.500 . S
C387 C386 1.382 1_455 S
C387 C388 1.400 . S
C387 H398 0.930 . S
C388 C387 1.400 . S
C388 C389 1.384 . S
C389 C388 1.384 . S
C389 C391 1.392 1_455 S
C389 H399 0.931 . S
C390 C386 1.393 . S
C390 C391 1.401 . S
C390 H400 0.930 . S
C391 C389 1.392 1_655 S
C391 C390 1.401 . S
C391 H401 0.930 . S
C392 O370 1.262 1_554 S
C392 O371 1.260 . S
C393 Tb329 2.833 . S
C393 O368 1.251 . S
C393 O373 1.256 . S
C393 C386 1.500 . S
H394 C377 0.930 . S
H395 C378 0.931 . S
H396 C379 0.930 . S
H397 C380 0.930 . S
H398 C387 0.930 . S
H399 C389 0.931 . S
H400 C390 0.930 . S
H401 C391 0.930 . S
Tb402 N433 2.660 . S
Tb402 N440 2.600 . S
Tb402 O446 2.546 . S
Tb402 O447 2.610 . S
Tb402 O449 2.320 . S
Tb402 O450 2.552 . S
Tb402 O451 2.413 . S
Tb402 O453 2.362 . S
Tb402 O454 2.421 . S
Tb402 C466 2.833 . S
C403 C406 1.432 . S
C403 C407 1.414 . S
C403 N410 1.359 . S
C404 C406 1.417 . S
C404 C408 1.432 . S
C404 C416 1.410 . S
C405 C407 1.444 . S
C405 C408 1.317 . S
C405 H428 0.929 . S
C406 C403 1.432 . S
C406 C404 1.417 . S
C406 N414 1.360 . S
C407 C403 1.414 . S
C407 C405 1.444 . S
C407 C412 1.385 . S
C408 C404 1.432 . S
C408 C405 1.317 . S
C408 H420 0.930 . S
C409 C411 1.392 . S
C409 C412 1.370 . S
C409 H421 0.931 . S
N410 C403 1.359 . S
N410 C411 1.327 . S
N410 Tb413 2.600 . S
C411 C409 1.392 . S
C411 N410 1.327 . S
C411 H418 0.930 . S
C412 C407 1.385 . S
C412 C409 1.370 . S
C412 H431 0.930 . S
Tb413 N410 2.600 . S
Tb413 N414 2.660 . S
Tb413 O447 2.362 1_556 S
Tb413 O448 2.421 1_556 S
Tb413 O452 2.546 . S
Tb413 O453 2.610 1_556 S
Tb413 O455 2.316 1_556 S
Tb413 O456 2.552 . S
Tb413 O457 2.413 . S
Tb413 C477 2.833 . S
N414 C406 1.360 . S
N414 Tb413 2.660 . S
N414 C415 1.305 . S
C415 N414 1.305 . S
C415 C417 1.407 . S
C415 H422 0.930 . S
C416 C404 1.410 . S
C416 C417 1.345 . S
C416 H424 0.930 . S
C417 C415 1.407 . S
C417 C416 1.345 . S
C417 H419 0.930 . S
H418 C411 0.930 . S
H419 C417 0.930 . S
H420 C408 0.930 . S
H421 C409 0.931 . S
H422 C415 0.930 . S
H423 C437 0.930 . S
H424 C416 0.930 . S
H425 C443 0.930 . S
H426 C434 0.930 . S
H427 C441 0.931 . S
H428 C405 0.929 . S
H429 C435 0.930 . S
H430 C468 0.930 . S
H431 C412 0.930 . S
H432 C467 0.929 . S
N433 Tb402 2.660 . S
N433 C434 1.305 . S
N433 C438 1.360 . S
C434 H426 0.930 . S
C434 N433 1.305 . S
C434 C437 1.407 . S
C435 H429 0.930 . S
C435 C436 1.410 . S
C435 C437 1.345 . S
C436 C435 1.410 . S
C436 C438 1.417 . S
C436 C468 1.432 . S
C437 H423 0.930 . S
C437 C434 1.407 . S
C437 C435 1.345 . S
C438 N433 1.360 . S
C438 C436 1.417 . S
C438 C442 1.432 . S
H439 C444 0.930 . S
N440 Tb402 2.600 . S
N440 C442 1.359 . S
N440 C443 1.327 . S
C441 H427 0.931 . S
C441 C443 1.392 . S
C441 C444 1.370 . S
C442 C438 1.432 . S
C442 N440 1.359 . S
C442 C445 1.414 . S
C443 H425 0.930 . S
C443 N440 1.327 . S
C443 C441 1.392 . S
C444 H439 0.930 . S
C444 C441 1.370 . S
C444 C445 1.385 . S
C445 C442 1.414 . S
C445 C444 1.385 . S
C445 C467 1.444 . S
O446 Tb402 2.546 . S
O446 C466 1.251 . S
O447 Tb402 2.610 . S
O447 Tb413 2.362 1_554 S
O447 C458 1.283 . S
O448 Tb413 2.421 1_554 S
O448 C465 1.262 . S
O449 Tb402 2.320 . S
O449 C465 1.260 . S
O450 Tb402 2.552 . S
O450 C458 1.243 . S
O451 Tb402 2.413 . S
O451 C466 1.256 . S
O452 Tb413 2.546 . S
O452 C477 1.251 . S
O453 Tb402 2.362 . S
O453 Tb413 2.610 1_554 S
O453 C469 1.314 . S
O454 Tb402 2.421 . S
O454 C476 1.262 . S
O455 Tb413 2.316 1_554 S
O455 C476 1.285 . S
O456 Tb413 2.552 . S
O456 C469 1.207 1_556 S
O457 Tb413 2.413 . S
O457 C477 1.256 . S
C458 O447 1.283 . S
C458 O450 1.243 . S
C459 C461 1.382 . S
C459 C463 1.393 . S
C459 C466 1.500 . S
C460 C461 1.400 . S
C460 C462 1.384 . S
C461 C459 1.382 . S
C461 C460 1.400 . S
C461 H478 0.930 . S
C462 C460 1.384 . S
C462 C464 1.392 . S
C462 H479 0.931 . S
C463 C459 1.393 . S
C463 C464 1.401 . S
C463 H480 0.930 . S
C464 C462 1.392 . S
C464 C463 1.401 . S
C464 H481 0.930 . S
C465 O448 1.262 . S
C465 O449 1.260 . S
C466 Tb402 2.833 . S
C466 O446 1.251 . S
C466 O451 1.256 . S
C466 C459 1.500 . S
C467 H432 0.929 . S
C467 C445 1.444 . S
C467 C468 1.317 . S
C468 H430 0.930 . S
C468 C436 1.432 . S
C468 C467 1.317 . S
C469 O453 1.314 . S
C469 O456 1.207 1_554 S
C470 C471 1.382 . S
C470 C474 1.393 . S
C470 C477 1.500 . S
C471 C470 1.382 . S
C471 C472 1.400 . S
C471 H482 0.930 . S
C472 C471 1.400 . S
C472 C473 1.384 . S
C473 C472 1.384 . S
C473 C475 1.392 . S
C473 H483 0.931 . S
C474 C470 1.393 . S
C474 C475 1.401 . S
C474 H484 0.930 . S
C475 C473 1.392 . S
C475 C474 1.401 . S
C475 H485 0.930 . S
C476 O454 1.262 . S
C476 O455 1.285 . S
C477 Tb413 2.833 . S
C477 O452 1.251 . S
C477 O457 1.256 . S
C477 C470 1.500 . S
H478 C461 0.930 . S
H479 C462 0.931 . S
H480 C463 0.930 . S
H481 C464 0.930 . S
H482 C471 0.930 . S
H483 C473 0.931 . S
H484 C474 0.930 . S
H485 C475 0.930 . S
Tb486 N517 2.660 . S
Tb486 N524 2.600 . S
Tb486 O530 2.546 . S
Tb486 O531 2.610 . S
Tb486 O533 2.320 . S
Tb486 O534 2.552 . S
Tb486 O535 2.413 . S
Tb486 O537 2.362 . S
Tb486 O538 2.421 . S
Tb486 C550 2.833 . S
C487 C490 1.432 . S
C487 C491 1.414 . S
C487 N494 1.359 . S
C488 C490 1.417 . S
C488 C492 1.432 . S
C488 C500 1.410 . S
C489 C491 1.444 . S
C489 C492 1.317 . S
C489 H512 0.929 . S
C490 C487 1.432 . S
C490 C488 1.417 . S
C490 N498 1.360 . S
C491 C487 1.414 . S
C491 C489 1.444 . S
C491 C496 1.385 . S
C492 C488 1.432 . S
C492 C489 1.317 . S
C492 H504 0.930 . S
C493 C495 1.392 . S
C493 C496 1.370 . S
C493 H505 0.931 . S
N494 C487 1.359 . S
N494 C495 1.327 . S
N494 Tb497 2.600 . S
C495 C493 1.392 . S
C495 N494 1.327 . S
C495 H502 0.930 . S
C496 C491 1.385 . S
C496 C493 1.370 . S
C496 H515 0.930 . S
Tb497 N494 2.600 . S
Tb497 N498 2.660 . S
Tb497 O531 2.362 . S
Tb497 O532 2.421 . S
Tb497 O536 2.546 . S
Tb497 O537 2.610 . S
Tb497 O539 2.320 . S
Tb497 O540 2.552 . S
Tb497 O541 2.413 . S
Tb497 C561 2.833 . S
N498 C490 1.360 . S
N498 Tb497 2.660 . S
N498 C499 1.305 . S
C499 N498 1.305 . S
C499 C501 1.407 . S
C499 H506 0.930 . S
C500 C488 1.410 . S
C500 C501 1.345 . S
C500 H508 0.930 . S
C501 C499 1.407 . S
C501 C500 1.345 . S
C501 H503 0.930 . S
H502 C495 0.930 . S
H503 C501 0.930 . S
H504 C492 0.930 . S
H505 C493 0.931 . S
H506 C499 0.930 . S
H507 C521 0.930 . S
H508 C500 0.930 . S
H509 C527 0.930 . S
H510 C518 0.930 . S
H511 C525 0.931 . S
H512 C489 0.929 . S
H513 C519 0.930 1_655 S
H514 C552 0.930 1_655 S
H515 C496 0.930 . S
H516 C551 0.929 . S
N517 Tb486 2.660 . S
N517 C518 1.305 . S
N517 C522 1.360 . S
C518 H510 0.930 . S
C518 N517 1.305 . S
C518 C521 1.407 . S
C519 H513 0.930 1_455 S
C519 C520 1.410 . S
C519 C521 1.345 . S
C520 C519 1.410 . S
C520 C522 1.417 . S
C520 C552 1.432 . S
C521 H507 0.930 . S
C521 C518 1.407 . S
C521 C519 1.345 . S
C522 N517 1.360 . S
C522 C520 1.417 . S
C522 C526 1.432 . S
H523 C528 0.930 . S
N524 Tb486 2.600 . S
N524 C526 1.359 . S
N524 C527 1.327 . S
C525 H511 0.931 . S
C525 C527 1.392 . S
C525 C528 1.370 . S
C526 C522 1.432 . S
C526 N524 1.359 . S
C526 C529 1.414 . S
C527 H509 0.930 . S
C527 N524 1.327 . S
C527 C525 1.392 . S
C528 H523 0.930 . S
C528 C525 1.370 . S
C528 C529 1.385 . S
C529 C526 1.414 . S
C529 C528 1.385 . S
C529 C551 1.444 . S
O530 Tb486 2.546 . S
O530 C550 1.251 . S
O531 Tb486 2.610 . S
O531 Tb497 2.362 . S
O531 C542 1.283 . S
O532 Tb497 2.421 . S
O532 C549 1.262 . S
O533 Tb486 2.320 . S
O533 C549 1.260 . S
O534 Tb486 2.552 . S
O534 C542 1.243 . S
O535 Tb486 2.413 . S
O535 C550 1.256 . S
O536 Tb497 2.546 . S
O536 C561 1.251 . S
O537 Tb486 2.362 . S
O537 Tb497 2.610 . S
O537 C553 1.283 . S
O538 Tb486 2.421 . S
O538 C560 1.262 . S
O539 Tb497 2.320 . S
O539 C560 1.260 . S
O540 Tb497 2.552 . S
O540 C553 1.243 . S
O541 Tb497 2.413 . S
O541 C561 1.256 . S
C542 O531 1.283 . S
C542 O534 1.243 . S
C543 C545 1.382 . S
C543 C547 1.393 . S
C543 C550 1.500 . S
C544 C545 1.400 . S
C544 C546 1.384 . S
C545 C543 1.382 . S
C545 C544 1.400 . S
C545 H562 0.930 . S
C546 C544 1.384 . S
C546 C548 1.392 . S
C546 H563 0.931 . S
C547 C543 1.393 . S
C547 C548 1.401 . S
C547 H564 0.930 . S
C548 C546 1.392 . S
C548 C547 1.401 . S
C548 H565 0.930 . S
C549 O532 1.262 . S
C549 O533 1.260 . S
C550 Tb486 2.833 . S
C550 O530 1.251 . S
C550 O535 1.256 . S
C550 C543 1.500 . S
C551 H516 0.929 . S
C551 C529 1.444 . S
C551 C552 1.317 . S
C552 H514 0.930 1_455 S
C552 C520 1.432 . S
C552 C551 1.317 . S
C553 O537 1.283 . S
C553 O540 1.243 . S
C554 C555 1.382 . S
C554 C558 1.393 . S
C554 C561 1.500 . S
C555 C554 1.382 . S
C555 C556 1.400 . S
C555 H566 0.930 . S
C556 C555 1.400 . S
C556 C557 1.384 . S
C557 C556 1.384 . S
C557 C559 1.392 . S
C557 H567 0.931 . S
C558 C554 1.393 . S
C558 C559 1.401 . S
C558 H568 0.930 . S
C559 C557 1.392 . S
C559 C558 1.401 . S
C559 H569 0.930 . S
C560 O538 1.262 . S
C560 O539 1.260 . S
C561 Tb497 2.833 . S
C561 O536 1.251 . S
C561 O541 1.256 . S
C561 C554 1.500 . S
H562 C545 0.930 . S
H563 C546 0.931 . S
H564 C547 0.930 . S
H565 C548 0.930 . S
H566 C555 0.930 . S
H567 C557 0.931 . S
H568 C558 0.930 . S
H569 C559 0.930 . S
Tb570 N601 2.660 . S
Tb570 N608 2.600 . S
Tb570 O614 2.546 . S
Tb570 O615 2.610 . S
Tb570 O617 2.320 . S
Tb570 O618 2.552 . S
Tb570 O619 2.413 . S
Tb570 O621 2.362 . S
Tb570 O622 2.421 . S
Tb570 C634 2.833 . S
C571 C574 1.432 . S
C571 C575 1.414 . S
C571 N578 1.359 . S
C572 C574 1.417 . S
C572 C576 1.432 . S
C572 C584 1.410 . S
C573 C575 1.444 . S
C573 C576 1.317 . S
C573 H596 0.929 . S
C574 C571 1.432 . S
C574 C572 1.417 . S
C574 N582 1.360 . S
C575 C571 1.414 . S
C575 C573 1.444 . S
C575 C580 1.385 . S
C576 C572 1.432 . S
C576 C573 1.317 . S
C576 H588 0.930 . S
C577 C579 1.392 . S
C577 C580 1.370 . S
C577 H589 0.931 . S
N578 C571 1.359 . S
N578 C579 1.327 . S
N578 Tb581 2.600 . S
C579 C577 1.392 . S
C579 N578 1.327 . S
C579 H586 0.930 . S
C580 C575 1.385 . S
C580 C577 1.370 . S
C580 H599 0.930 . S
Tb581 N578 2.600 . S
Tb581 N582 2.660 . S
Tb581 O615 2.362 . S
Tb581 O616 2.421 . S
Tb581 O620 2.546 . S
Tb581 O621 2.610 . S
Tb581 O623 2.320 . S
Tb581 O624 2.552 . S
Tb581 O625 2.413 . S
Tb581 C645 2.833 . S
N582 C574 1.360 . S
N582 Tb581 2.660 . S
N582 C583 1.305 . S
C583 N582 1.305 . S
C583 C585 1.407 . S
C583 H590 0.930 . S
C584 C572 1.410 . S
C584 C585 1.345 . S
C584 H592 0.930 . S
C585 C583 1.407 . S
C585 C584 1.345 . S
C585 H587 0.930 . S
H586 C579 0.930 . S
H587 C585 0.930 . S
H588 C576 0.930 . S
H589 C577 0.931 . S
H590 C583 0.930 . S
H591 C605 0.930 . S
H592 C584 0.930 . S
H593 C611 0.930 . S
H594 C602 0.930 . S
H595 C609 0.931 1_545 S
H596 C573 0.929 . S
H597 C603 0.930 . S
H598 C636 0.930 . S
H599 C580 0.930 . S
H600 C635 0.929 . S
N601 Tb570 2.660 . S
N601 C602 1.305 . S
N601 C606 1.360 . S
C602 H594 0.930 . S
C602 N601 1.305 . S
C602 C605 1.407 . S
C603 H597 0.930 . S
C603 C604 1.410 . S
C603 C605 1.345 . S
C604 C603 1.410 . S
C604 C606 1.417 . S
C604 C636 1.432 . S
C605 H591 0.930 . S
C605 C602 1.407 . S
C605 C603 1.345 . S
C606 N601 1.360 . S
C606 C604 1.417 . S
C606 C610 1.432 . S
H607 C612 0.930 . S
N608 Tb570 2.600 . S
N608 C610 1.359 . S
N608 C611 1.327 . S
C609 H595 0.931 1_565 S
C609 C611 1.392 . S
C609 C612 1.370 . S
C610 C606 1.432 . S
C610 N608 1.359 . S
C610 C613 1.414 . S
C611 H593 0.930 . S
C611 N608 1.327 . S
C611 C609 1.392 . S
C612 H607 0.930 . S
C612 C609 1.370 . S
C612 C613 1.385 . S
C613 C610 1.414 . S
C613 C612 1.385 . S
C613 C635 1.444 . S
O614 Tb570 2.546 . S
O614 C634 1.251 . S
O615 Tb570 2.610 . S
O615 Tb581 2.362 . S
O615 C626 1.283 . S
O616 Tb581 2.421 . S
O616 C633 1.262 . S
O617 Tb570 2.320 . S
O617 C633 1.260 . S
O618 Tb570 2.552 . S
O618 C626 1.243 . S
O619 Tb570 2.413 . S
O619 C634 1.256 . S
O620 Tb581 2.546 . S
O620 C645 1.251 . S
O621 Tb570 2.362 . S
O621 Tb581 2.610 . S
O621 C637 1.283 . S
O622 Tb570 2.421 . S
O622 C644 1.262 . S
O623 Tb581 2.320 . S
O623 C644 1.260 . S
O624 Tb581 2.552 . S
O624 C637 1.243 . S
O625 Tb581 2.413 . S
O625 C645 1.256 . S
C626 O615 1.283 . S
C626 O618 1.243 . S
C627 C629 1.382 . S
C627 C631 1.393 . S
C627 C634 1.500 . S
C628 C629 1.400 . S
C628 C630 1.384 . S
C629 C627 1.382 . S
C629 C628 1.400 . S
C629 H646 0.930 . S
C630 C628 1.384 . S
C630 C632 1.392 . S
C630 H647 0.931 . S
C631 C627 1.393 . S
C631 C632 1.401 . S
C631 H648 0.930 . S
C632 C630 1.392 . S
C632 C631 1.401 . S
C632 H649 0.930 . S
C633 O616 1.262 . S
C633 O617 1.260 . S
C634 Tb570 2.833 . S
C634 O614 1.251 . S
C634 O619 1.256 . S
C634 C627 1.500 . S
C635 H600 0.929 . S
C635 C613 1.444 . S
C635 C636 1.317 . S
C636 H598 0.930 . S
C636 C604 1.432 . S
C636 C635 1.317 . S
C637 O621 1.283 . S
C637 O624 1.243 . S
C638 C639 1.382 . S
C638 C642 1.393 . S
C638 C645 1.500 . S
C639 C638 1.382 . S
C639 C640 1.400 . S
C639 H650 0.930 . S
C640 C639 1.400 . S
C640 C641 1.384 . S
C641 C640 1.384 . S
C641 C643 1.392 . S
C641 H651 0.931 . S
C642 C638 1.393 . S
C642 C643 1.401 . S
C642 H652 0.930 . S
C643 C641 1.392 . S
C643 C642 1.401 . S
C643 H653 0.930 . S
C644 O622 1.262 . S
C644 O623 1.260 . S
C645 Tb581 2.833 . S
C645 O620 1.251 . S
C645 O625 1.256 . S
C645 C638 1.500 . S
H646 C629 0.930 . S
H647 C630 0.931 . S
H648 C631 0.930 . S
H649 C632 0.930 . S
H650 C639 0.930 . S
H651 C641 0.931 . S
H652 C642 0.930 . S
H653 C643 0.930 . S
Tb654 N685 2.660 . S
Tb654 N692 2.600 . S
Tb654 O698 2.546 . S
Tb654 O699 2.610 . S
Tb654 O701 2.320 . S
Tb654 O702 2.552 . S
Tb654 O703 2.413 . S
Tb654 O705 2.362 . S
Tb654 O706 2.421 . S
Tb654 C718 2.833 . S
C655 C658 1.432 . S
C655 C659 1.414 . S
C655 N662 1.359 . S
C656 C658 1.417 1_655 S
C656 C660 1.432 . S
C656 C668 1.410 . S
C657 C659 1.444 . S
C657 C660 1.317 1_455 S
C657 H680 0.929 1_455 S
C658 C655 1.432 . S
C658 C656 1.417 1_455 S
C658 N666 1.360 . S
C659 C655 1.414 . S
C659 C657 1.444 . S
C659 C664 1.385 . S
C660 C656 1.432 . S
C660 C657 1.317 1_655 S
C660 H672 0.930 . S
C661 C663 1.392 . S
C661 C664 1.370 . S
C661 H673 0.931 . S
N662 C655 1.359 . S
N662 C663 1.327 . S
N662 Tb665 2.600 . S
C663 C661 1.392 . S
C663 N662 1.327 . S
C663 H670 0.930 . S
C664 C659 1.385 . S
C664 C661 1.370 . S
C664 H683 0.930 . S
Tb665 N662 2.600 . S
Tb665 N666 2.660 . S
Tb665 O699 2.362 . S
Tb665 O700 2.421 . S
Tb665 O704 2.546 . S
Tb665 O705 2.610 . S
Tb665 O707 2.320 . S
Tb665 O708 2.552 . S
Tb665 O709 2.413 . S
Tb665 C729 2.833 . S
N666 C658 1.360 . S
N666 Tb665 2.660 . S
N666 C667 1.305 . S
C667 N666 1.305 . S
C667 C669 1.407 1_455 S
C667 H674 0.930 . S
C668 C656 1.410 . S
C668 C669 1.345 . S
C668 H676 0.930 . S
C669 C667 1.407 1_655 S
C669 C668 1.345 . S
C669 H671 0.930 . S
H670 C663 0.930 . S
H671 C669 0.930 . S
H672 C660 0.930 . S
H673 C661 0.931 . S
H674 C667 0.930 . S
H675 C689 0.930 . S
H676 C668 0.930 . S
H677 C695 0.930 . S
H678 C686 0.930 . S
H679 C693 0.931 . S
H680 C657 0.929 1_655 S
H681 C687 0.930 . S
H682 C720 0.930 . S
H683 C664 0.930 . S
H684 C719 0.929 . S
N685 Tb654 2.660 . S
N685 C686 1.305 . S
N685 C690 1.360 . S
C686 H678 0.930 . S
C686 N685 1.305 . S
C686 C689 1.407 . S
C687 H681 0.930 . S
C687 C688 1.410 . S
C687 C689 1.345 . S
C688 C687 1.410 . S
C688 C690 1.417 . S
C688 C720 1.432 . S
C689 H675 0.930 . S
C689 C686 1.407 . S
C689 C687 1.345 . S
C690 N685 1.360 . S
C690 C688 1.417 . S
C690 C694 1.432 . S
H691 C696 0.930 . S
N692 Tb654 2.600 . S
N692 C694 1.359 . S
N692 C695 1.327 . S
C693 H679 0.931 . S
C693 C695 1.392 . S
C693 C696 1.370 . S
C694 C690 1.432 . S
C694 N692 1.359 . S
C694 C697 1.414 . S
C695 H677 0.930 . S
C695 N692 1.327 . S
C695 C693 1.392 . S
C696 H691 0.930 . S
C696 C693 1.370 . S
C696 C697 1.385 . S
C697 C694 1.414 . S
C697 C696 1.385 . S
C697 C719 1.444 . S
O698 Tb654 2.546 . S
O698 C718 1.251 . S
O699 Tb654 2.610 . S
O699 Tb665 2.362 . S
O699 C710 1.283 . S
O700 Tb665 2.421 . S
O700 C717 1.262 . S
O701 Tb654 2.320 . S
O701 C717 1.260 . S
O702 Tb654 2.552 . S
O702 C710 1.243 . S
O703 Tb654 2.413 . S
O703 C718 1.256 . S
O704 Tb665 2.546 . S
O704 C729 1.251 . S
O705 Tb654 2.362 . S
O705 Tb665 2.610 . S
O705 C721 1.283 . S
O706 Tb654 2.421 . S
O706 C728 1.262 . S
O707 Tb665 2.320 . S
O707 C728 1.260 . S
O708 Tb665 2.552 . S
O708 C721 1.243 . S
O709 Tb665 2.413 . S
O709 C729 1.256 . S
C710 O699 1.283 . S
C710 O702 1.243 . S
C711 C713 1.382 . S
C711 C715 1.393 . S
C711 C718 1.500 . S
C712 C713 1.400 . S
C712 C714 1.384 . S
C713 C711 1.382 . S
C713 C712 1.400 . S
C713 H730 0.930 . S
C714 C712 1.384 . S
C714 C716 1.392 . S
C714 H731 0.931 . S
C715 C711 1.393 . S
C715 C716 1.401 . S
C715 H732 0.930 . S
C716 C714 1.392 . S
C716 C715 1.401 . S
C716 H733 0.930 . S
C717 O700 1.262 . S
C717 O701 1.260 . S
C718 Tb654 2.833 . S
C718 O698 1.251 . S
C718 O703 1.256 . S
C718 C711 1.500 . S
C719 H684 0.929 . S
C719 C697 1.444 . S
C719 C720 1.317 . S
C720 H682 0.930 . S
C720 C688 1.432 . S
C720 C719 1.317 . S
C721 O705 1.283 . S
C721 O708 1.243 . S
C722 C723 1.382 . S
C722 C726 1.393 . S
C722 C729 1.500 . S
C723 C722 1.382 . S
C723 C724 1.400 . S
C723 H734 0.930 . S
C724 C723 1.400 . S
C724 C725 1.384 . S
C725 C724 1.384 . S
C725 C727 1.392 . S
C725 H735 0.931 . S
C726 C722 1.393 . S
C726 C727 1.401 . S
C726 H736 0.930 . S
C727 C725 1.392 . S
C727 C726 1.401 . S
C727 H737 0.930 . S
C728 O706 1.262 . S
C728 O707 1.260 . S
C729 Tb665 2.833 . S
C729 O704 1.251 . S
C729 O709 1.256 . S
C729 C722 1.500 . S
H730 C713 0.930 . S
H731 C714 0.931 . S
H732 C715 0.930 . S
H733 C716 0.930 . S
H734 C723 0.930 . S
H735 C725 0.931 . S
H736 C726 0.930 . S
H737 C727 0.930 . S
Tb738 N769 2.660 . S
Tb738 N776 2.600 . S
Tb738 O782 2.546 . S
Tb738 O783 2.610 . S
Tb738 O785 2.320 . S
Tb738 O786 2.552 . S
Tb738 O787 2.413 . S
Tb738 O789 2.362 . S
Tb738 O790 2.421 . S
Tb738 C802 2.833 . S
C739 C742 1.432 . S
C739 C743 1.414 . S
C739 N746 1.359 . S
C740 C742 1.417 1_455 S
C740 C744 1.432 . S
C740 C752 1.410 . S
C741 C743 1.444 1_455 S
C741 C744 1.317 . S
C741 H764 0.929 . S
C742 C739 1.432 . S
C742 C740 1.417 1_655 S
C742 N750 1.360 . S
C743 C739 1.414 . S
C743 C741 1.444 1_655 S
C743 C748 1.385 . S
C744 C740 1.432 . S
C744 C741 1.317 . S
C744 H756 0.930 . S
C745 C747 1.392 . S
C745 C748 1.370 . S
C745 H757 0.931 . S
N746 C739 1.359 . S
N746 C747 1.327 . S
N746 Tb749 2.600 . S
C747 C745 1.392 . S
C747 N746 1.327 . S
C747 H754 0.930 . S
C748 C743 1.385 . S
C748 C745 1.370 . S
C748 H767 0.930 . S
Tb749 N746 2.600 . S
Tb749 N750 2.660 . S
Tb749 O783 2.362 . S
Tb749 O784 2.421 . S
Tb749 O788 2.546 . S
Tb749 O789 2.610 . S
Tb749 O791 2.320 . S
Tb749 O792 2.552 . S
Tb749 O793 2.413 . S
Tb749 C813 2.833 . S
N750 C742 1.360 . S
N750 Tb749 2.660 . S
N750 C751 1.305 . S
C751 N750 1.305 . S
C751 C753 1.407 1_655 S
C751 H758 0.930 . S
C752 C740 1.410 . S
C752 C753 1.345 . S
C752 H760 0.930 . S
C753 C751 1.407 1_455 S
C753 C752 1.345 . S
C753 H755 0.930 . S
H754 C747 0.930 . S
H755 C753 0.930 . S
H756 C744 0.930 . S
H757 C745 0.931 . S
H758 C751 0.930 . S
H759 C773 0.930 . S
H760 C752 0.930 . S
H761 C779 0.930 . S
H762 C770 0.930 . S
H763 C777 0.931 . S
H764 C741 0.929 . S
H765 C771 0.930 . S
H766 C804 0.930 . S
H767 C748 0.930 . S
H768 C803 0.929 . S
N769 Tb738 2.660 . S
N769 C770 1.305 . S
N769 C774 1.360 . S
C770 H762 0.930 . S
C770 N769 1.305 . S
C770 C773 1.407 . S
C771 H765 0.930 . S
C771 C772 1.410 . S
C771 C773 1.345 . S
C772 C771 1.410 . S
C772 C774 1.417 . S
C772 C804 1.432 . S
C773 H759 0.930 . S
C773 C770 1.407 . S
C773 C771 1.345 . S
C774 N769 1.360 . S
C774 C772 1.417 . S
C774 C778 1.432 . S
H775 C780 0.930 . S
N776 Tb738 2.600 . S
N776 C778 1.359 . S
N776 C779 1.327 . S
C777 H763 0.931 . S
C777 C779 1.392 . S
C777 C780 1.370 . S
C778 C774 1.432 . S
C778 N776 1.359 . S
C778 C781 1.414 . S
C779 H761 0.930 . S
C779 N776 1.327 . S
C779 C777 1.392 . S
C780 H775 0.930 . S
C780 C777 1.370 . S
C780 C781 1.385 . S
C781 C778 1.414 . S
C781 C780 1.385 . S
C781 C803 1.444 . S
O782 Tb738 2.546 . S
O782 C802 1.251 . S
O783 Tb738 2.610 . S
O783 Tb749 2.362 . S
O783 C794 1.283 . S
O784 Tb749 2.421 . S
O784 C801 1.262 . S
O785 Tb738 2.320 . S
O785 C801 1.260 . S
O786 Tb738 2.552 . S
O786 C794 1.243 . S
O787 Tb738 2.413 . S
O787 C802 1.256 . S
O788 Tb749 2.546 . S
O788 C813 1.251 . S
O789 Tb738 2.362 . S
O789 Tb749 2.610 . S
O789 C805 1.283 . S
O790 Tb738 2.421 . S
O790 C812 1.262 . S
O791 Tb749 2.320 . S
O791 C812 1.260 . S
O792 Tb749 2.552 . S
O792 C805 1.243 . S
O793 Tb749 2.413 . S
O793 C813 1.256 . S
C794 O783 1.283 . S
C794 O786 1.243 . S
C795 C797 1.382 . S
C795 C799 1.393 . S
C795 C802 1.500 . S
C796 C797 1.400 . S
C796 C798 1.384 . S
C797 C795 1.382 . S
C797 C796 1.400 . S
C797 H814 0.930 . S
C798 C796 1.384 . S
C798 C800 1.392 . S
C798 H815 0.931 . S
C799 C795 1.393 . S
C799 C800 1.401 . S
C799 H816 0.930 . S
C800 C798 1.392 . S
C800 C799 1.401 . S
C800 H817 0.930 . S
C801 O784 1.262 . S
C801 O785 1.260 . S
C802 Tb738 2.833 . S
C802 O782 1.251 . S
C802 O787 1.256 . S
C802 C795 1.500 . S
C803 H768 0.929 . S
C803 C781 1.444 . S
C803 C804 1.317 . S
C804 H766 0.930 . S
C804 C772 1.432 . S
C804 C803 1.317 . S
C805 O789 1.283 . S
C805 O792 1.243 . S
C806 C807 1.382 . S
C806 C810 1.393 . S
C806 C813 1.500 . S
C807 C806 1.382 . S
C807 C808 1.400 . S
C807 H818 0.930 . S
C808 C807 1.400 . S
C808 C809 1.384 . S
C809 C808 1.384 . S
C809 C811 1.392 . S
C809 H819 0.931 . S
C810 C806 1.393 . S
C810 C811 1.401 . S
C810 H820 0.930 . S
C811 C809 1.392 . S
C811 C810 1.401 . S
C811 H821 0.930 . S
C812 O790 1.262 . S
C812 O791 1.260 . S
C813 Tb749 2.833 . S
C813 O788 1.251 . S
C813 O793 1.256 . S
C813 C806 1.500 . S
H814 C797 0.930 . S
H815 C798 0.931 . S
H816 C799 0.930 . S
H817 C800 0.930 . S
H818 C807 0.930 . S
H819 C809 0.931 . S
H820 C810 0.930 . S
H821 C811 0.930 . S
Tb822 N853 2.660 . S
Tb822 N860 2.600 . S
Tb822 O866 2.546 . S
Tb822 O867 2.610 . S
Tb822 O869 2.320 . S
Tb822 O870 2.552 . S
Tb822 O871 2.413 . S
Tb822 O873 2.362 . S
Tb822 O874 2.421 . S
Tb822 C886 2.833 . S
C823 C826 1.432 . S
C823 C827 1.414 . S
C823 N830 1.359 . S
C824 C826 1.417 . S
C824 C828 1.432 . S
C824 C836 1.410 . S
C825 C827 1.444 . S
C825 C828 1.317 . S
C825 H848 0.929 . S
C826 C823 1.432 . S
C826 C824 1.417 . S
C826 N834 1.360 . S
C827 C823 1.414 . S
C827 C825 1.444 . S
C827 C832 1.385 . S
C828 C824 1.432 . S
C828 C825 1.317 . S
C828 H840 0.930 . S
C829 C831 1.392 . S
C829 C832 1.370 . S
C829 H841 0.931 . S
N830 C823 1.359 . S
N830 C831 1.327 . S
N830 Tb833 2.600 . S
C831 C829 1.392 . S
C831 N830 1.327 . S
C831 H838 0.930 . S
C832 C827 1.385 . S
C832 C829 1.370 . S
C832 H851 0.930 . S
Tb833 N830 2.600 . S
Tb833 N834 2.660 . S
Tb833 O867 2.362 . S
Tb833 O868 2.421 . S
Tb833 O872 2.546 . S
Tb833 O873 2.610 . S
Tb833 O875 2.320 . S
Tb833 O876 2.552 . S
Tb833 O877 2.413 . S
Tb833 C897 2.833 . S
N834 C826 1.360 . S
N834 Tb833 2.660 . S
N834 C835 1.305 . S
C835 N834 1.305 . S
C835 C837 1.407 . S
C835 H842 0.930 . S
C836 C824 1.410 . S
C836 C837 1.345 . S
C836 H844 0.930 . S
C837 C835 1.407 . S
C837 C836 1.345 . S
C837 H839 0.930 . S
H838 C831 0.930 . S
H839 C837 0.930 . S
H840 C828 0.930 . S
H841 C829 0.931 . S
H842 C835 0.930 . S
H843 C857 0.930 . S
H844 C836 0.930 . S
H845 C863 0.930 . S
H846 C854 0.930 . S
H847 C861 0.931 . S
H848 C825 0.929 . S
H849 C855 0.930 . S
H850 C888 0.930 . S
H851 C832 0.930 . S
H852 C887 0.929 . S
N853 Tb822 2.660 . S
N853 C854 1.305 . S
N853 C858 1.360 . S
C854 H846 0.930 . S
C854 N853 1.305 . S
C854 C857 1.407 . S
C855 H849 0.930 . S
C855 C856 1.410 . S
C855 C857 1.345 . S
C856 C855 1.410 . S
C856 C858 1.417 . S
C856 C888 1.432 . S
C857 H843 0.930 . S
C857 C854 1.407 . S
C857 C855 1.345 . S
C858 N853 1.360 . S
C858 C856 1.417 . S
C858 C862 1.432 . S
H859 C864 0.930 . S
N860 Tb822 2.600 . S
N860 C862 1.359 . S
N860 C863 1.327 . S
C861 H847 0.931 . S
C861 C863 1.392 . S
C861 C864 1.370 . S
C862 C858 1.432 . S
C862 N860 1.359 . S
C862 C865 1.414 . S
C863 H845 0.930 . S
C863 N860 1.327 . S
C863 C861 1.392 . S
C864 H859 0.930 . S
C864 C861 1.370 . S
C864 C865 1.385 . S
C865 C862 1.414 . S
C865 C864 1.385 . S
C865 C887 1.444 . S
O866 Tb822 2.546 . S
O866 C886 1.251 . S
O867 Tb822 2.610 . S
O867 Tb833 2.362 . S
O867 C878 1.283 . S
O868 Tb833 2.421 . S
O868 C885 1.262 . S
O869 Tb822 2.320 . S
O869 C885 1.260 . S
O870 Tb822 2.552 . S
O870 C878 1.243 . S
O871 Tb822 2.413 . S
O871 C886 1.256 . S
O872 Tb833 2.546 . S
O872 C897 1.251 . S
O873 Tb822 2.362 . S
O873 Tb833 2.610 . S
O873 C889 1.283 . S
O874 Tb822 2.421 . S
O874 C896 1.262 . S
O875 Tb833 2.320 . S
O875 C896 1.260 . S
O876 Tb833 2.552 . S
O876 C889 1.243 . S
O877 Tb833 2.413 . S
O877 C897 1.256 . S
C878 O867 1.283 . S
C878 O870 1.243 . S
C879 C881 1.382 . S
C879 C883 1.393 . S
C879 C886 1.500 . S
C880 C881 1.400 . S
C880 C882 1.384 . S
C881 C879 1.382 . S
C881 C880 1.400 . S
C881 H898 0.930 . S
C882 C880 1.384 . S
C882 C884 1.392 . S
C882 H899 0.931 . S
C883 C879 1.393 . S
C883 C884 1.401 . S
C883 H900 0.930 . S
C884 C882 1.392 . S
C884 C883 1.401 . S
C884 H901 0.930 . S
C885 O868 1.262 . S
C885 O869 1.260 . S
C886 Tb822 2.833 . S
C886 O866 1.251 . S
C886 O871 1.256 . S
C886 C879 1.500 . S
C887 H852 0.929 . S
C887 C865 1.444 . S
C887 C888 1.317 . S
C888 H850 0.930 . S
C888 C856 1.432 . S
C888 C887 1.317 . S
C889 O873 1.283 . S
C889 O876 1.243 . S
C890 C891 1.382 . S
C890 C894 1.393 . S
C890 C897 1.500 . S
C891 C890 1.382 . S
C891 C892 1.400 . S
C891 H902 0.930 . S
C892 C891 1.400 . S
C892 C893 1.384 . S
C893 C892 1.384 . S
C893 C895 1.392 . S
C893 H903 0.931 . S
C894 C890 1.393 . S
C894 C895 1.401 . S
C894 H904 0.930 . S
C895 C893 1.392 . S
C895 C894 1.401 . S
C895 H905 0.930 . S
C896 O874 1.262 . S
C896 O875 1.260 . S
C897 Tb833 2.833 . S
C897 O872 1.251 . S
C897 O877 1.256 . S
C897 C890 1.500 . S
H898 C881 0.930 . S
H899 C882 0.931 . S
H900 C883 0.930 . S
H901 C884 0.930 . S
H902 C891 0.930 . S
H903 C893 0.931 . S
H904 C894 0.930 . S
H905 C895 0.930 . S
Tb906 N937 2.660 . S
Tb906 N944 2.600 . S
Tb906 O950 2.546 . S
Tb906 O951 2.610 . S
Tb906 O953 2.320 . S
Tb906 O954 2.552 . S
Tb906 O955 2.413 . S
Tb906 O957 2.362 . S
Tb906 O958 2.421 . S
Tb906 C970 2.833 . S
C907 C910 1.432 . S
C907 C911 1.414 . S
C907 N914 1.359 . S
C908 C910 1.417 . S
C908 C912 1.432 . S
C908 C920 1.410 . S
C909 C911 1.444 . S
C909 C912 1.317 . S
C909 H932 0.929 . S
C910 C907 1.432 . S
C910 C908 1.417 . S
C910 N918 1.360 . S
C911 C907 1.414 . S
C911 C909 1.444 . S
C911 C916 1.385 . S
C912 C908 1.432 . S
C912 C909 1.317 . S
C912 H924 0.930 . S
C913 C915 1.392 . S
C913 C916 1.370 . S
C913 H925 0.931 . S
N914 C907 1.359 . S
N914 C915 1.327 . S
N914 Tb917 2.600 . S
C915 C913 1.392 . S
C915 N914 1.327 . S
C915 H922 0.930 . S
C916 C911 1.385 . S
C916 C913 1.370 . S
C916 H935 0.930 . S
Tb917 N914 2.600 . S
Tb917 N918 2.660 . S
Tb917 O951 2.362 . S
Tb917 O952 2.421 . S
Tb917 O956 2.546 . S
Tb917 O957 2.610 . S
Tb917 O959 2.320 . S
Tb917 O960 2.552 . S
Tb917 O961 2.413 . S
Tb917 C981 2.833 . S
N918 C910 1.360 . S
N918 Tb917 2.660 . S
N918 C919 1.305 . S
C919 N918 1.305 . S
C919 C921 1.407 . S
C919 H926 0.930 . S
C920 C908 1.410 . S
C920 C921 1.345 . S
C920 H928 0.930 . S
C921 C919 1.407 . S
C921 C920 1.345 . S
C921 H923 0.930 . S
H922 C915 0.930 . S
H923 C921 0.930 . S
H924 C912 0.930 . S
H925 C913 0.931 . S
H926 C919 0.930 . S
H927 C941 0.930 1_455 S
H928 C920 0.930 . S
H929 C947 0.930 . S
H930 C938 0.930 . S
H931 C945 0.931 1_565 S
H932 C909 0.929 . S
H933 C939 0.930 . S
H934 C972 0.930 . S
H935 C916 0.930 . S
H936 C971 0.929 . S
N937 Tb906 2.660 . S
N937 C938 1.305 . S
N937 C942 1.360 . S
C938 H930 0.930 . S
C938 N937 1.305 . S
C938 C941 1.407 . S
C939 H933 0.930 . S
C939 C940 1.410 1_455 S
C939 C941 1.345 1_455 S
C940 C939 1.410 1_655 S
C940 C942 1.417 . S
C940 C972 1.432 1_655 S
C941 H927 0.930 1_655 S
C941 C938 1.407 . S
C941 C939 1.345 1_655 S
C942 N937 1.360 . S
C942 C940 1.417 . S
C942 C946 1.432 . S
H943 C948 0.930 . S
N944 Tb906 2.600 . S
N944 C946 1.359 . S
N944 C947 1.327 . S
C945 H931 0.931 1_545 S
C945 C947 1.392 . S
C945 C948 1.370 . S
C946 C942 1.432 . S
C946 N944 1.359 . S
C946 C949 1.414 . S
C947 H929 0.930 . S
C947 N944 1.327 . S
C947 C945 1.392 . S
C948 H943 0.930 . S
C948 C945 1.370 . S
C948 C949 1.385 . S
C949 C946 1.414 . S
C949 C948 1.385 . S
C949 C971 1.444 . S
O950 Tb906 2.546 . S
O950 C970 1.251 . S
O951 Tb906 2.610 . S
O951 Tb917 2.362 . S
O951 C962 1.283 . S
O952 Tb917 2.421 . S
O952 C969 1.262 . S
O953 Tb906 2.320 . S
O953 C969 1.260 . S
O954 Tb906 2.552 . S
O954 C962 1.243 . S
O955 Tb906 2.413 . S
O955 C970 1.256 . S
O956 Tb917 2.546 . S
O956 C981 1.251 . S
O957 Tb906 2.362 . S
O957 Tb917 2.610 . S
O957 C973 1.283 . S
O958 Tb906 2.421 . S
O958 C980 1.262 . S
O959 Tb917 2.320 . S
O959 C980 1.260 . S
O960 Tb917 2.552 . S
O960 C973 1.243 . S
O961 Tb917 2.413 . S
O961 C981 1.256 . S
C962 O951 1.283 . S
C962 O954 1.243 . S
C963 C965 1.382 . S
C963 C967 1.393 . S
C963 C970 1.500 . S
C964 C965 1.400 . S
C964 C966 1.384 . S
C965 C963 1.382 . S
C965 C964 1.400 . S
C965 H982 0.930 . S
C966 C964 1.384 . S
C966 C968 1.392 . S
C966 H983 0.931 . S
C967 C963 1.393 . S
C967 C968 1.401 . S
C967 H984 0.930 . S
C968 C966 1.392 . S
C968 C967 1.401 . S
C968 H985 0.930 . S
C969 O952 1.262 . S
C969 O953 1.260 . S
C970 Tb906 2.833 . S
C970 O950 1.251 . S
C970 O955 1.256 . S
C970 C963 1.500 . S
C971 H936 0.929 . S
C971 C949 1.444 . S
C971 C972 1.317 1_655 S
C972 H934 0.930 . S
C972 C940 1.432 1_455 S
C972 C971 1.317 1_455 S
C973 O957 1.283 . S
C973 O960 1.243 . S
C974 C975 1.382 . S
C974 C978 1.393 . S
C974 C981 1.500 . S
C975 C974 1.382 . S
C975 C976 1.400 . S
C975 H986 0.930 . S
C976 C975 1.400 . S
C976 C977 1.384 . S
C977 C976 1.384 . S
C977 C979 1.392 . S
C977 H987 0.931 . S
C978 C974 1.393 . S
C978 C979 1.401 . S
C978 H988 0.930 . S
C979 C977 1.392 . S
C979 C978 1.401 . S
C979 H989 0.930 . S
C980 O958 1.262 . S
C980 O959 1.260 . S
C981 Tb917 2.833 . S
C981 O956 1.251 . S
C981 O961 1.256 . S
C981 C974 1.500 . S
H982 C965 0.930 . S
H983 C966 0.931 . S
H984 C967 0.930 . S
H985 C968 0.930 . S
H986 C975 0.930 . S
H987 C977 0.931 . S
H988 C978 0.930 . S
H989 C979 0.930 . S
C990 C991 1.387 . S
C990 H994 0.950 . S
C990 C999 1.390 . S
C991 C990 1.387 . S
C991 C993 1.387 . S
H992 C999 0.950 . S
C993 C991 1.387 . S
C993 C995 1.390 . S
C993 H997 0.950 . S
H994 C990 0.950 . S
C995 C993 1.390 . S
C995 C996 1.387 . S
C995 H998 0.950 . S
C996 C995 1.387 . S
C996 C999 1.387 . S
H997 C993 0.950 . S
H998 C995 0.950 . S
C999 C990 1.390 . S
C999 H992 0.950 . S
C999 C996 1.387 . S
C1000 C1001 1.387 . S
C1000 H1004 0.950 . S
C1000 C1009 1.390 . S
C1001 C1000 1.387 . S
C1001 C1003 1.387 . S
H1002 C1009 0.950 . S
C1003 C1001 1.387 . S
C1003 C1005 1.390 . S
C1003 H1007 0.950 . S
H1004 C1000 0.950 . S
C1005 C1003 1.390 . S
C1005 C1006 1.387 . S
C1005 H1008 0.950 . S
C1006 C1005 1.387 . S
C1006 C1009 1.387 . S
H1007 C1003 0.950 . S
H1008 C1005 0.950 . S
C1009 C1000 1.390 . S
C1009 H1002 0.950 . S
C1009 C1006 1.387 . S
C1010 C1011 1.387 . S
C1010 H1014 0.950 . S
C1010 C1019 1.390 . S
C1011 C1010 1.387 . S
C1011 C1013 1.387 . S
H1012 C1019 0.950 . S
C1013 C1011 1.387 . S
C1013 C1015 1.390 . S
C1013 H1017 0.950 . S
H1014 C1010 0.950 . S
C1015 C1013 1.390 . S
C1015 C1016 1.387 . S
C1015 H1018 0.950 . S
C1016 C1015 1.387 . S
C1016 C1019 1.387 . S
H1017 C1013 0.950 . S
H1018 C1015 0.950 . S
C1019 C1010 1.390 . S
C1019 H1012 0.950 . S
C1019 C1016 1.387 . S
C1020 C1021 1.387 . S
C1020 H1024 0.950 . S
C1020 C1029 1.390 . S
C1021 C1020 1.387 . S
C1021 C1023 1.387 1_556 S
H1022 C1029 0.950 . S
C1023 C1021 1.387 1_554 S
C1023 C1025 1.390 . S
C1023 H1027 0.950 . S
H1024 C1020 0.950 . S
C1025 C1023 1.390 . S
C1025 C1026 1.387 1_554 S
C1025 H1028 0.950 . S
C1026 C1025 1.387 1_556 S
C1026 C1029 1.387 . S
H1027 C1023 0.950 . S
H1028 C1025 0.950 . S
C1029 C1020 1.390 . S
C1029 H1022 0.950 . S
C1029 C1026 1.387 . S
C1030 C1031 1.387 . S
C1030 H1034 0.950 . S
C1030 C1039 1.390 . S
C1031 C1030 1.387 . S
C1031 C1033 1.387 . S
H1032 C1039 0.950 . S
C1033 C1031 1.387 . S
C1033 C1035 1.390 1_556 S
C1033 H1037 0.950 . S
H1034 C1030 0.950 . S
C1035 C1033 1.390 1_554 S
C1035 C1036 1.387 . S
C1035 H1038 0.950 . S
C1036 C1035 1.387 . S
C1036 C1039 1.387 1_554 S
H1037 C1033 0.950 . S
H1038 C1035 0.950 . S
C1039 C1030 1.390 . S
C1039 H1032 0.950 . S
C1039 C1036 1.387 1_556 S
C1040 C1041 1.387 . S
C1040 H1044 0.950 . S
C1040 C1049 1.390 . S
C1041 C1040 1.387 . S
C1041 C1043 1.387 1_556 S
H1042 C1049 0.950 . S
C1043 C1041 1.387 1_554 S
C1043 C1045 1.390 . S
C1043 H1047 0.950 . S
H1044 C1040 0.950 . S
C1045 C1043 1.390 . S
C1045 C1046 1.387 1_554 S
C1045 H1048 0.950 . S
C1046 C1045 1.387 1_556 S
C1046 C1049 1.387 . S
H1047 C1043 0.950 . S
H1048 C1045 0.950 . S
C1049 C1040 1.390 . S
C1049 H1042 0.950 . S
C1049 C1046 1.387 . S
C1050 C1051 1.387 . S
C1050 H1054 0.950 . S
C1050 C1059 1.390 . S
C1051 C1050 1.387 . S
C1051 C1053 1.387 1_556 S
H1052 C1059 0.950 . S
C1053 C1051 1.387 1_554 S
C1053 C1055 1.390 . S
C1053 H1057 0.950 . S
H1054 C1050 0.950 . S
C1055 C1053 1.390 . S
C1055 C1056 1.387 1_554 S
C1055 H1058 0.950 . S
C1056 C1055 1.387 1_556 S
C1056 C1059 1.387 . S
H1057 C1053 0.950 . S
H1058 C1055 0.950 . S
C1059 C1050 1.390 . S
C1059 H1052 0.950 . S
C1059 C1056 1.387 . S
C1060 C1061 1.387 . S
C1060 H1064 0.950 1_556 S
C1060 C1069 1.390 . S
C1061 C1060 1.387 . S
C1061 C1063 1.387 . S
H1062 C1069 0.950 1_554 S
C1063 C1061 1.387 . S
C1063 C1065 1.390 . S
C1063 H1067 0.950 . S
H1064 C1060 0.950 1_554 S
C1065 C1063 1.390 . S
C1065 C1066 1.387 . S
C1065 H1068 0.950 . S
C1066 C1065 1.387 . S
C1066 C1069 1.387 . S
H1067 C1063 0.950 . S
H1068 C1065 0.950 . S
C1069 C1060 1.390 . S
C1069 H1062 0.950 1_556 S
C1069 C1066 1.387 . S
C1070 C1071 1.387 1_554 S
C1070 H1074 0.950 . S
C1070 C1079 1.390 . S
C1071 C1070 1.387 1_556 S
C1071 C1073 1.387 . S
H1072 C1079 0.950 . S
C1073 C1071 1.387 . S
C1073 C1075 1.390 . S
C1073 H1077 0.950 . S
H1074 C1070 0.950 . S
C1075 C1073 1.390 . S
C1075 C1076 1.387 1_556 S
C1075 H1078 0.950 . S
C1076 C1075 1.387 1_554 S
C1076 C1079 1.387 . S
H1077 C1073 0.950 . S
H1078 C1075 0.950 . S
C1079 C1070 1.390 . S
C1079 H1072 0.950 . S
C1079 C1076 1.387 . S
C1080 C1081 1.387 . S
C1080 H1084 0.950 . S
C1080 C1089 1.390 . S
C1081 C1080 1.387 . S
C1081 C1083 1.387 . S
H1082 C1089 0.950 . S
C1083 C1081 1.387 . S
C1083 C1085 1.390 . S
C1083 H1087 0.950 . S
H1084 C1080 0.950 . S
C1085 C1083 1.390 . S
C1085 C1086 1.387 . S
C1085 H1088 0.950 . S
C1086 C1085 1.387 . S
C1086 C1089 1.387 . S
H1087 C1083 0.950 . S
H1088 C1085 0.950 . S
C1089 C1080 1.390 . S
C1089 H1082 0.950 . S
C1089 C1086 1.387 . S
C1090 C1091 1.387 . S
C1090 H1094 0.950 . S
C1090 C1099 1.390 . S
C1091 C1090 1.387 . S
C1091 C1093 1.387 . S
H1092 C1099 0.950 . S
C1093 C1091 1.387 . S
C1093 C1095 1.390 . S
C1093 H1097 0.950 . S
H1094 C1090 0.950 . S
C1095 C1093 1.390 . S
C1095 C1096 1.387 . S
C1095 H1098 0.950 . S
C1096 C1095 1.387 . S
C1096 C1099 1.387 . S
H1097 C1093 0.950 . S
H1098 C1095 0.950 . S
C1099 C1090 1.390 . S
C1099 H1092 0.950 . S
C1099 C1096 1.387 . S
C1100 C1101 1.387 . S
C1100 H1104 0.950 . S
C1100 C1109 1.390 . S
C1101 C1100 1.387 . S
C1101 C1103 1.387 . S
H1102 C1109 0.950 . S
C1103 C1101 1.387 . S
C1103 C1105 1.390 . S
C1103 H1107 0.950 . S
H1104 C1100 0.950 . S
C1105 C1103 1.390 . S
C1105 C1106 1.387 . S
C1105 H1108 0.950 . S
C1106 C1105 1.387 . S
C1106 C1109 1.387 . S
H1107 C1103 0.950 . S
H1108 C1105 0.950 . S
C1109 C1100 1.390 . S
C1109 H1102 0.950 . S
C1109 C1106 1.387 . S
C1110 C1111 1.387 . S
C1110 H1114 0.950 . S
C1110 C1119 1.390 1_655 S
C1111 C1110 1.387 . S
C1111 C1113 1.387 . S
H1112 C1119 0.950 . S
C1113 C1111 1.387 . S
C1113 C1115 1.390 1_655 S
C1113 H1117 0.950 . S
H1114 C1110 0.950 . S
C1115 C1113 1.390 1_455 S
C1115 C1116 1.387 . S
C1115 H1118 0.950 . S
C1116 C1115 1.387 . S
C1116 C1119 1.387 . S
H1117 C1113 0.950 . S
H1118 C1115 0.950 . S
C1119 C1110 1.390 1_455 S
C1119 H1112 0.950 . S
C1119 C1116 1.387 . S
C1120 C1121 1.387 . S
C1120 H1124 0.950 . S
C1120 C1129 1.390 . S
C1121 C1120 1.387 . S
C1121 C1123 1.387 . S
H1122 C1129 0.950 . S
C1123 C1121 1.387 . S
C1123 C1125 1.390 . S
C1123 H1127 0.950 . S
H1124 C1120 0.950 . S
C1125 C1123 1.390 . S
C1125 C1126 1.387 . S
C1125 H1128 0.950 . S
C1126 C1125 1.387 . S
C1126 C1129 1.387 . S
H1127 C1123 0.950 . S
H1128 C1125 0.950 . S
C1129 C1120 1.390 . S
C1129 H1122 0.950 . S
C1129 C1126 1.387 . S
C1130 C1131 1.387 . S
C1130 H1134 0.950 . S
C1130 C1139 1.390 1_545 S
C1131 C1130 1.387 . S
C1131 C1133 1.387 1_545 S
H1132 C1139 0.950 . S
C1133 C1131 1.387 1_565 S
C1133 C1135 1.390 . S
C1133 H1137 0.950 . S
H1134 C1130 0.950 . S
C1135 C1133 1.390 . S
C1135 C1136 1.387 . S
C1135 H1138 0.950 . S
C1136 C1135 1.387 . S
C1136 C1139 1.387 . S
H1137 C1133 0.950 . S
H1138 C1135 0.950 . S
C1139 C1130 1.390 1_565 S
C1139 H1132 0.950 . S
C1139 C1136 1.387 . S
C1140 C1141 1.387 . S
C1140 H1144 0.950 . S
C1140 C1149 1.390 . S
C1141 C1140 1.387 . S
C1141 C1143 1.387 . S
H1142 C1149 0.950 . S
C1143 C1141 1.387 . S
C1143 C1145 1.390 . S
C1143 H1147 0.950 . S
H1144 C1140 0.950 . S
C1145 C1143 1.390 . S
C1145 C1146 1.387 . S
C1145 H1148 0.950 . S
C1146 C1145 1.387 . S
C1146 C1149 1.387 . S
H1147 C1143 0.950 . S
H1148 C1145 0.950 . S
C1149 C1140 1.390 . S
C1149 H1142 0.950 . S
C1149 C1146 1.387 . S
C1150 C1151 1.387 . S
C1150 H1154 0.950 . S
C1150 C1159 1.390 . S
C1151 C1150 1.387 . S
C1151 C1153 1.387 . S
H1152 C1159 0.950 . S
C1153 C1151 1.387 . S
C1153 C1155 1.390 . S
C1153 H1157 0.950 . S
H1154 C1150 0.950 . S
C1155 C1153 1.390 . S
C1155 C1156 1.387 . S
C1155 H1158 0.950 . S
C1156 C1155 1.387 . S
C1156 C1159 1.387 . S
H1157 C1153 0.950 . S
H1158 C1155 0.950 . S
C1159 C1150 1.390 . S
C1159 H1152 0.950 . S
C1159 C1156 1.387 . S
C1160 C1161 1.387 . S
C1160 H1164 0.950 . S
C1160 C1169 1.390 . S
C1161 C1160 1.387 . S
C1161 C1163 1.387 . S
H1162 C1169 0.950 . S
C1163 C1161 1.387 . S
C1163 C1165 1.390 . S
C1163 H1167 0.950 . S
H1164 C1160 0.950 . S
C1165 C1163 1.390 . S
C1165 C1166 1.387 . S
C1165 H1168 0.950 . S
C1166 C1165 1.387 . S
C1166 C1169 1.387 . S
H1167 C1163 0.950 . S
H1168 C1165 0.950 . S
C1169 C1160 1.390 . S
C1169 H1162 0.950 . S
C1169 C1166 1.387 . S
C1170 C1171 1.387 . S
C1170 H1174 0.950 . S
C1170 C1179 1.390 . S
C1171 C1170 1.387 . S
C1171 C1173 1.387 . S
H1172 C1179 0.950 . S
C1173 C1171 1.387 . S
C1173 C1175 1.390 . S
C1173 H1177 0.950 . S
H1174 C1170 0.950 . S
C1175 C1173 1.390 . S
C1175 C1176 1.387 . S
C1175 H1178 0.950 . S
C1176 C1175 1.387 . S
C1176 C1179 1.387 . S
H1177 C1173 0.950 . S
H1178 C1175 0.950 . S
C1179 C1170 1.390 . S
C1179 H1172 0.950 . S
C1179 C1176 1.387 . S
C1180 C1181 1.387 . S
C1180 H1184 0.950 . S
C1180 C1189 1.390 . S
C1181 C1180 1.387 . S
C1181 C1183 1.387 . S
H1182 C1189 0.950 . S
C1183 C1181 1.387 . S
C1183 C1185 1.390 . S
C1183 H1187 0.950 . S
H1184 C1180 0.950 . S
C1185 C1183 1.390 . S
C1185 C1186 1.387 . S
C1185 H1188 0.950 . S
C1186 C1185 1.387 . S
C1186 C1189 1.387 . S
H1187 C1183 0.950 . S
H1188 C1185 0.950 . S
C1189 C1180 1.390 . S
C1189 H1182 0.950 . S
C1189 C1186 1.387 . S
C1190 C1191 1.387 . S
C1190 H1194 0.950 . S
C1190 C1199 1.390 . S
C1191 C1190 1.387 . S
C1191 C1193 1.387 . S
H1192 C1199 0.950 . S
C1193 C1191 1.387 . S
C1193 C1195 1.390 . S
C1193 H1197 0.950 . S
H1194 C1190 0.950 . S
C1195 C1193 1.390 . S
C1195 C1196 1.387 . S
C1195 H1198 0.950 . S
C1196 C1195 1.387 . S
C1196 C1199 1.387 . S
H1197 C1193 0.950 . S
H1198 C1195 0.950 . S
C1199 C1190 1.390 . S
C1199 H1192 0.950 . S
C1199 C1196 1.387 . S
C1200 C1201 1.387 . S
C1200 H1204 0.950 . S
C1200 C1209 1.390 1_545 S
C1201 C1200 1.387 . S
C1201 C1203 1.387 . S
H1202 C1209 0.950 . S
C1203 C1201 1.387 . S
C1203 C1205 1.390 . S
C1203 H1207 0.950 . S
H1204 C1200 0.950 . S
C1205 C1203 1.390 . S
C1205 C1206 1.387 1_545 S
C1205 H1208 0.950 . S
C1206 C1205 1.387 1_565 S
C1206 C1209 1.387 . S
H1207 C1203 0.950 . S
H1208 C1205 0.950 . S
C1209 C1200 1.390 1_565 S
C1209 H1202 0.950 . S
C1209 C1206 1.387 . S
C1210 C1211 1.387 . S
C1210 H1214 0.950 . S
C1210 C1219 1.390 1_655 S
C1211 C1210 1.387 . S
C1211 C1213 1.387 1_655 S
H1212 C1219 0.950 . S
C1213 C1211 1.387 1_455 S
C1213 C1215 1.390 . S
C1213 H1217 0.950 . S
H1214 C1210 0.950 . S
C1215 C1213 1.390 . S
C1215 C1216 1.387 . S
C1215 H1218 0.950 . S
C1216 C1215 1.387 . S
C1216 C1219 1.387 . S
H1217 C1213 0.950 . S
H1218 C1215 0.950 . S
C1219 C1210 1.390 1_455 S
C1219 H1212 0.950 . S
C1219 C1216 1.387 . S
C1220 C1221 1.387 . S
C1220 H1224 0.950 . S
C1220 C1229 1.390 . S
C1221 C1220 1.387 . S
C1221 C1223 1.387 . S
H1222 C1229 0.950 . S
C1223 C1221 1.387 . S
C1223 C1225 1.390 . S
C1223 H1227 0.950 . S
H1224 C1220 0.950 . S
C1225 C1223 1.390 . S
C1225 C1226 1.387 . S
C1225 H1228 0.950 . S
C1226 C1225 1.387 . S
C1226 C1229 1.387 . S
H1227 C1223 0.950 . S
H1228 C1225 0.950 . S
C1229 C1220 1.390 . S
C1229 H1222 0.950 . S
C1229 C1226 1.387 . S
C1230 C1231 1.387 . S
C1230 H1234 0.950 . S
C1230 C1239 1.390 . S
C1231 C1230 1.387 . S
C1231 C1233 1.387 . S
H1232 C1239 0.950 . S
C1233 C1231 1.387 . S
C1233 C1235 1.390 . S
C1233 H1237 0.950 . S
H1234 C1230 0.950 . S
C1235 C1233 1.390 . S
C1235 C1236 1.387 . S
C1235 H1238 0.950 . S
C1236 C1235 1.387 . S
C1236 C1239 1.387 . S
H1237 C1233 0.950 . S
H1238 C1235 0.950 . S
C1239 C1230 1.390 . S
C1239 H1232 0.950 . S
C1239 C1236 1.387 . S
C1240 C1241 1.387 . S
C1240 H1244 0.950 . S
C1240 C1249 1.390 . S
C1241 C1240 1.387 . S
C1241 C1243 1.387 . S
H1242 C1249 0.950 . S
C1243 C1241 1.387 . S
C1243 C1245 1.390 . S
C1243 H1247 0.950 . S
H1244 C1240 0.950 . S
C1245 C1243 1.390 . S
C1245 C1246 1.387 . S
C1245 H1248 0.950 . S
C1246 C1245 1.387 . S
C1246 C1249 1.387 . S
H1247 C1243 0.950 . S
H1248 C1245 0.950 . S
C1249 C1240 1.390 . S
C1249 H1242 0.950 . S
C1249 C1246 1.387 . S
C1250 C1251 1.387 . S
C1250 H1254 0.950 . S
C1250 C1259 1.390 . S
C1251 C1250 1.387 . S
C1251 C1253 1.387 . S
H1252 C1259 0.950 . S
C1253 C1251 1.387 . S
C1253 C1255 1.390 . S
C1253 H1257 0.950 . S
H1254 C1250 0.950 . S
C1255 C1253 1.390 . S
C1255 C1256 1.387 . S
C1255 H1258 0.950 . S
C1256 C1255 1.387 . S
C1256 C1259 1.387 . S
H1257 C1253 0.950 . S
H1258 C1255 0.950 . S
C1259 C1250 1.390 . S
C1259 H1252 0.950 . S
C1259 C1256 1.387 . S
C1260 C1261 1.387 1_545 S
C1260 H1264 0.950 1_545 S
C1260 C1269 1.390 . S
C1261 C1260 1.387 1_565 S
C1261 C1263 1.387 1_565 S
H1262 C1269 0.950 . S
C1263 C1261 1.387 1_545 S
C1263 C1265 1.390 . S
C1263 H1267 0.950 1_545 S
H1264 C1260 0.950 1_565 S
C1265 C1263 1.390 . S
C1265 C1266 1.387 . S
C1265 H1268 0.950 . S
C1266 C1265 1.387 . S
C1266 C1269 1.387 . S
H1267 C1263 0.950 1_565 S
H1268 C1265 0.950 . S
C1269 C1260 1.390 . S
C1269 H1262 0.950 . S
C1269 C1266 1.387 . S
C1270 C1271 1.387 . S
C1270 H1274 0.950 1_655 S
C1270 C1279 1.390 . S
C1271 C1270 1.387 . S
C1271 C1273 1.387 . S
H1272 C1279 0.950 . S
C1273 C1271 1.387 . S
C1273 C1275 1.390 . S
C1273 H1277 0.950 . S
H1274 C1270 0.950 1_455 S
C1275 C1273 1.390 . S
C1275 C1276 1.387 . S
C1275 H1278 0.950 . S
C1276 C1275 1.387 . S
C1276 C1279 1.387 . S
H1277 C1273 0.950 . S
H1278 C1275 0.950 . S
C1279 C1270 1.390 . S
C1279 H1272 0.950 . S
C1279 C1276 1.387 . S
C1280 C1281 1.387 . S
C1280 H1284 0.950 . S
C1280 C1289 1.390 . S
C1281 C1280 1.387 . S
C1281 C1283 1.387 . S
H1282 C1289 0.950 . S
C1283 C1281 1.387 . S
C1283 C1285 1.390 . S
C1283 H1287 0.950 . S
H1284 C1280 0.950 . S
C1285 C1283 1.390 . S
C1285 C1286 1.387 . S
C1285 H1288 0.950 . S
C1286 C1285 1.387 . S
C1286 C1289 1.387 . S
H1287 C1283 0.950 . S
H1288 C1285 0.950 . S
C1289 C1280 1.390 . S
C1289 H1282 0.950 . S
C1289 C1286 1.387 . S
C1290 C1291 1.387 . S
C1290 H1294 0.950 . S
C1290 C1299 1.390 . S
C1291 C1290 1.387 . S
C1291 C1293 1.387 . S
H1292 C1299 0.950 1_655 S
C1293 C1291 1.387 . S
C1293 C1295 1.404 . S
C1293 H1297 0.950 . S
H1294 C1290 0.950 . S
C1295 C1293 1.404 . S
C1295 C1296 1.381 1_455 S
C1295 H1298 0.943 1_455 S
C1296 C1295 1.381 1_655 S
C1296 C1299 1.387 1_655 S
H1297 C1293 0.950 . S
H1298 C1295 0.943 1_655 S
C1299 C1290 1.390 . S
C1299 H1292 0.950 1_455 S
C1299 C1296 1.387 1_455 S
C1300 C1301 1.387 . S
C1300 H1304 0.950 . S
C1300 C1309 1.390 . S
C1301 C1300 1.387 . S
C1301 C1303 1.387 . S
H1302 C1309 0.950 . S
C1303 C1301 1.387 . S
C1303 C1305 1.390 . S
C1303 H1307 0.950 . S
H1304 C1300 0.950 . S
C1305 C1303 1.390 . S
C1305 C1306 1.387 . S
C1305 H1308 0.950 . S
C1306 C1305 1.387 . S
C1306 C1309 1.387 . S
H1307 C1303 0.950 . S
H1308 C1305 0.950 . S
C1309 C1300 1.390 . S
C1309 H1302 0.950 . S
C1309 C1306 1.387 . S
C1310 C1311 1.387 . S
C1310 H1314 0.943 . S
C1310 C1319 1.390 1_565 S
C1311 C1310 1.387 . S
C1311 C1313 1.387 . S
H1312 C1319 0.950 . S
C1313 C1311 1.387 . S
C1313 C1315 1.390 . S
C1313 H1317 0.950 . S
H1314 C1310 0.943 . S
C1315 C1313 1.390 . S
C1315 C1316 1.387 1_565 S
C1315 H1318 0.950 . S
C1316 C1315 1.387 1_545 S
C1316 C1319 1.387 . S
H1317 C1313 0.950 . S
H1318 C1315 0.950 . S
C1319 C1310 1.390 1_545 S
C1319 H1312 0.950 . S
C1319 C1316 1.387 . S
C1320 C1321 1.387 . S
C1320 H1324 0.950 . S
C1320 C1329 1.390 . S
C1321 C1320 1.387 . S
C1321 C1323 1.387 . S
H1322 C1329 0.950 . S
C1323 C1321 1.387 . S
C1323 C1325 1.390 . S
C1323 H1327 0.950 . S
H1324 C1320 0.950 . S
C1325 C1323 1.390 . S
C1325 C1326 1.387 . S
C1325 H1328 0.950 . S
C1326 C1325 1.387 . S
C1326 C1329 1.387 . S
H1327 C1323 0.950 . S
H1328 C1325 0.950 . S
C1329 C1320 1.390 . S
C1329 H1322 0.950 . S
C1329 C1326 1.387 . S
C1330 C1331 1.387 . S
C1330 H1334 0.950 . S
C1330 C1339 1.390 . S
C1331 C1330 1.387 . S
C1331 C1333 1.387 . S
H1332 C1339 0.950 . S
C1333 C1331 1.387 . S
C1333 C1335 1.390 . S
C1333 H1337 0.950 . S
H1334 C1330 0.950 . S
C1335 C1333 1.390 . S
C1335 C1336 1.387 . S
C1335 H1338 0.950 . S
C1336 C1335 1.387 . S
C1336 C1339 1.387 . S
H1337 C1333 0.950 . S
H1338 C1335 0.950 . S
C1339 C1330 1.390 . S
C1339 H1332 0.950 . S
C1339 C1336 1.387 . S
C1340 C1341 1.387 . S
C1340 H1344 0.950 . S
C1340 C1349 1.390 . S
C1341 C1340 1.387 . S
C1341 C1343 1.387 . S
H1342 C1349 0.950 . S
C1343 C1341 1.387 . S
C1343 C1345 1.390 . S
C1343 H1347 0.950 . S
H1344 C1340 0.950 . S
C1345 C1343 1.390 . S
C1345 C1346 1.387 . S
C1345 H1348 0.950 . S
C1346 C1345 1.387 . S
C1346 C1349 1.387 . S
H1347 C1343 0.950 . S
H1348 C1345 0.950 . S
C1349 C1340 1.390 . S
C1349 H1342 0.950 . S
C1349 C1346 1.387 . S
C1350 C1351 1.387 . S
C1350 H1354 0.950 . S
C1350 C1359 1.390 . S
C1351 C1350 1.387 . S
C1351 C1353 1.387 . S
H1352 C1359 0.950 . S
C1353 C1351 1.387 . S
C1353 C1355 1.390 . S
C1353 H1357 0.950 . S
H1354 C1350 0.950 . S
C1355 C1353 1.390 . S
C1355 C1356 1.387 . S
C1355 H1358 0.950 . S
C1356 C1355 1.387 . S
C1356 C1359 1.387 . S
H1357 C1353 0.950 . S
H1358 C1355 0.950 . S
C1359 C1350 1.390 . S
C1359 H1352 0.950 . S
C1359 C1356 1.387 . S
C1360 C1361 1.387 . S
C1360 H1364 0.950 . S
C1360 C1369 1.390 . S
C1361 C1360 1.387 . S
C1361 C1363 1.387 . S
H1362 C1369 0.950 . S
C1363 C1361 1.387 . S
C1363 C1365 1.390 . S
C1363 H1367 0.950 . S
H1364 C1360 0.950 . S
C1365 C1363 1.390 . S
C1365 C1366 1.387 . S
C1365 H1368 0.950 . S
C1366 C1365 1.387 . S
C1366 C1369 1.387 . S
H1367 C1363 0.950 . S
H1368 C1365 0.950 . S
C1369 C1360 1.390 . S
C1369 H1362 0.950 . S
C1369 C1366 1.387 . S
C1370 C1371 1.387 . S
C1370 H1374 0.950 . S
C1370 C1379 1.390 . S
C1371 C1370 1.387 . S
C1371 C1373 1.387 . S
H1372 C1379 0.950 . S
C1373 C1371 1.387 . S
C1373 C1375 1.390 . S
C1373 H1377 0.950 . S
H1374 C1370 0.950 . S
C1375 C1373 1.390 . S
C1375 C1376 1.387 . S
C1375 H1378 0.950 . S
C1376 C1375 1.387 . S
C1376 C1379 1.387 . S
H1377 C1373 0.950 . S
H1378 C1375 0.950 . S
C1379 C1370 1.390 . S
C1379 H1372 0.950 . S
C1379 C1376 1.387 . S
C1380 C1381 1.387 . S
C1380 H1384 0.950 1_655 S
C1380 C1389 1.390 . S
C1381 C1380 1.387 . S
C1381 C1383 1.387 . S
H1382 C1389 0.950 1_455 S
C1383 C1381 1.387 . S
C1383 C1385 1.390 . S
C1383 H1387 0.950 . S
H1384 C1380 0.950 1_455 S
C1385 C1383 1.390 . S
C1385 C1386 1.387 . S
C1385 H1388 0.950 . S
C1386 C1385 1.387 . S
C1386 C1389 1.387 . S
H1387 C1383 0.950 . S
H1388 C1385 0.950 . S
C1389 C1380 1.390 . S
C1389 H1382 0.950 1_655 S
C1389 C1386 1.387 . S
C1390 C1391 1.387 . S
C1390 H1394 0.950 . S
C1390 C1399 1.390 . S
C1391 C1390 1.387 . S
C1391 C1393 1.387 . S
H1392 C1399 0.950 . S
C1393 C1391 1.387 . S
C1393 C1395 1.390 . S
C1393 H1397 0.950 . S
H1394 C1390 0.950 . S
C1395 C1393 1.390 . S
C1395 C1396 1.387 . S
C1395 H1398 0.950 . S
C1396 C1395 1.387 . S
C1396 C1399 1.387 . S
H1397 C1393 0.950 . S
H1398 C1395 0.950 . S
C1399 C1390 1.390 . S
C1399 H1392 0.950 . S
C1399 C1396 1.387 . S
C1400 C1401 1.387 . S
C1400 H1404 0.950 . S
C1400 C1409 1.390 . S
C1401 C1400 1.387 . S
C1401 C1403 1.387 . S
H1402 C1409 0.950 . S
C1403 C1401 1.387 . S
C1403 C1405 1.390 . S
C1403 H1407 0.950 . S
H1404 C1400 0.950 . S
C1405 C1403 1.390 . S
C1405 C1406 1.387 . S
C1405 H1408 0.950 . S
C1406 C1405 1.387 . S
C1406 C1409 1.387 . S
H1407 C1403 0.950 . S
H1408 C1405 0.950 . S
C1409 C1400 1.390 . S
C1409 H1402 0.950 . S
C1409 C1406 1.387 . S
C1410 C1411 1.387 . S
C1410 H1414 0.950 . S
C1410 C1419 1.390 . S
C1411 C1410 1.387 . S
C1411 C1413 1.387 . S
H1412 C1419 0.950 . S
C1413 C1411 1.387 . S
C1413 C1415 1.390 . S
C1413 H1417 0.950 . S
H1414 C1410 0.950 . S
C1415 C1413 1.390 . S
C1415 C1416 1.387 . S
C1415 H1418 0.950 . S
C1416 C1415 1.387 . S
C1416 C1419 1.387 . S
H1417 C1413 0.950 . S
H1418 C1415 0.950 . S
C1419 C1410 1.390 . S
C1419 H1412 0.950 . S
C1419 C1416 1.387 . S
C1420 C1421 1.387 . S
C1420 H1424 0.950 . S
C1420 C1429 1.390 . S
C1421 C1420 1.387 . S
C1421 C1423 1.387 . S
H1422 C1429 0.950 . S
C1423 C1421 1.387 . S
C1423 C1425 1.390 . S
C1423 H1427 0.950 . S
H1424 C1420 0.950 . S
C1425 C1423 1.390 . S
C1425 C1426 1.387 . S
C1425 H1428 0.950 . S
C1426 C1425 1.387 . S
C1426 C1429 1.387 . S
H1427 C1423 0.950 . S
H1428 C1425 0.950 . S
C1429 C1420 1.390 . S
C1429 H1422 0.950 . S
C1429 C1426 1.387 . S
C1430 C1431 1.387 . S
C1430 H1434 0.950 . S
C1430 C1439 1.390 . S
C1431 C1430 1.387 . S
C1431 C1433 1.387 . S
H1432 C1439 0.950 . S
C1433 C1431 1.387 . S
C1433 C1435 1.390 . S
C1433 H1437 0.950 . S
H1434 C1430 0.950 . S
C1435 C1433 1.390 . S
C1435 C1436 1.387 . S
C1435 H1438 0.950 . S
C1436 C1435 1.387 . S
C1436 C1439 1.387 . S
H1437 C1433 0.950 . S
H1438 C1435 0.950 . S
C1439 C1430 1.390 . S
C1439 H1432 0.950 . S
C1439 C1436 1.387 . S
C1440 C1441 1.387 . S
C1440 H1444 0.950 . S
C1440 C1449 1.390 . S
C1441 C1440 1.387 . S
C1441 C1443 1.387 . S
H1442 C1449 0.950 . S
C1443 C1441 1.387 . S
C1443 C1445 1.390 . S
C1443 H1447 0.950 . S
H1444 C1440 0.950 . S
C1445 C1443 1.390 . S
C1445 C1446 1.387 . S
C1445 H1448 0.950 . S
C1446 C1445 1.387 . S
C1446 C1449 1.387 . S
H1447 C1443 0.950 . S
H1448 C1445 0.950 . S
C1449 C1440 1.390 . S
C1449 H1442 0.950 . S
C1449 C1446 1.387 . S
C1450 C1451 1.387 . S
C1450 H1454 0.950 . S
C1450 C1459 1.390 . S
C1451 C1450 1.387 . S
C1451 C1453 1.387 . S
H1452 C1459 0.950 . S
C1453 C1451 1.387 . S
C1453 C1455 1.390 . S
C1453 H1457 0.950 . S
H1454 C1450 0.950 . S
C1455 C1453 1.390 . S
C1455 C1456 1.387 . S
C1455 H1458 0.950 . S
C1456 C1455 1.387 . S
C1456 C1459 1.387 . S
H1457 C1453 0.950 . S
H1458 C1455 0.950 . S
C1459 C1450 1.390 . S
C1459 H1452 0.950 . S
C1459 C1456 1.387 . S
C1460 C1461 1.387 . S
C1460 H1464 0.950 . S
C1460 C1469 1.390 . S
C1461 C1460 1.387 . S
C1461 C1463 1.387 . S
H1462 C1469 0.950 . S
C1463 C1461 1.387 . S
C1463 C1465 1.390 . S
C1463 H1467 0.950 . S
H1464 C1460 0.950 . S
C1465 C1463 1.390 . S
C1465 C1466 1.387 . S
C1465 H1468 0.950 . S
C1466 C1465 1.387 . S
C1466 C1469 1.387 . S
H1467 C1463 0.950 . S
H1468 C1465 0.950 . S
C1469 C1460 1.390 . S
C1469 H1462 0.950 . S
C1469 C1466 1.387 . S
C1470 C1471 1.387 . S
C1470 H1474 0.950 . S
C1470 C1479 1.390 . S
C1471 C1470 1.387 . S
C1471 C1473 1.387 . S
H1472 C1479 0.950 . S
C1473 C1471 1.387 . S
C1473 C1475 1.390 . S
C1473 H1477 0.950 . S
H1474 C1470 0.950 . S
C1475 C1473 1.390 . S
C1475 C1476 1.387 . S
C1475 H1478 0.950 . S
C1476 C1475 1.387 . S
C1476 C1479 1.387 . S
H1477 C1473 0.950 . S
H1478 C1475 0.950 . S
C1479 C1470 1.390 . S
C1479 H1472 0.950 . S
C1479 C1476 1.387 . S
C1480 C1481 1.387 . S
C1480 H1484 0.950 . S
C1480 C1489 1.390 . S
C1481 C1480 1.387 . S
C1481 C1483 1.387 . S
H1482 C1489 0.950 . S
C1483 C1481 1.387 . S
C1483 C1485 1.390 . S
C1483 H1487 0.950 . S
H1484 C1480 0.950 . S
C1485 C1483 1.390 . S
C1485 C1486 1.387 . S
C1485 H1488 0.950 . S
C1486 C1485 1.387 . S
C1486 C1489 1.387 . S
H1487 C1483 0.950 . S
H1488 C1485 0.950 . S
C1489 C1480 1.390 . S
C1489 H1482 0.950 . S
C1489 C1486 1.387 . S
C1490 C1491 1.387 . S
C1490 H1494 0.950 . S
C1490 C1499 1.390 . S
C1491 C1490 1.387 . S
C1491 C1493 1.387 . S
H1492 C1499 0.950 . S
C1493 C1491 1.387 . S
C1493 C1495 1.390 . S
C1493 H1497 0.950 . S
H1494 C1490 0.950 . S
C1495 C1493 1.390 . S
C1495 C1496 1.387 . S
C1495 H1498 0.950 . S
C1496 C1495 1.387 . S
C1496 C1499 1.387 . S
H1497 C1493 0.950 . S
H1498 C1495 0.950 . S
C1499 C1490 1.390 . S
C1499 H1492 0.950 . S
C1499 C1496 1.387 . S
C1500 C1501 1.387 . S
C1500 H1504 0.950 . S
C1500 C1509 1.390 . S
C1501 C1500 1.387 . S
C1501 C1503 1.387 . S
H1502 C1509 0.950 . S
C1503 C1501 1.387 . S
C1503 C1505 1.390 . S
C1503 H1507 0.950 . S
H1504 C1500 0.950 . S
C1505 C1503 1.390 . S
C1505 C1506 1.387 . S
C1505 H1508 0.950 . S
C1506 C1505 1.387 . S
C1506 C1509 1.387 . S
H1507 C1503 0.950 . S
H1508 C1505 0.950 . S
C1509 C1500 1.390 . S
C1509 H1502 0.950 . S
C1509 C1506 1.387 . S
C1510 C1511 1.387 . S
C1510 H1514 0.950 . S
C1510 C1519 1.390 . S
C1511 C1510 1.387 . S
C1511 C1513 1.387 . S
H1512 C1519 0.950 . S
C1513 C1511 1.387 . S
C1513 C1515 1.390 . S
C1513 H1517 0.950 . S
H1514 C1510 0.950 . S
C1515 C1513 1.390 . S
C1515 C1516 1.387 . S
C1515 H1518 0.950 . S
C1516 C1515 1.387 . S
C1516 C1519 1.387 . S
H1517 C1513 0.950 . S
H1518 C1515 0.950 . S
C1519 C1510 1.390 . S
C1519 H1512 0.950 . S
C1519 C1516 1.387 . S
C1520 C1521 1.387 . S
C1520 H1524 0.950 . S
C1520 C1529 1.390 . S
C1521 C1520 1.387 . S
C1521 C1523 1.387 . S
H1522 C1529 0.950 . S
C1523 C1521 1.387 . S
C1523 C1525 1.390 . S
C1523 H1527 0.950 . S
H1524 C1520 0.950 . S
C1525 C1523 1.390 . S
C1525 C1526 1.387 . S
C1525 H1528 0.950 . S
C1526 C1525 1.387 . S
C1526 C1529 1.387 . S
H1527 C1523 0.950 . S
H1528 C1525 0.950 . S
C1529 C1520 1.390 . S
C1529 H1522 0.950 . S
C1529 C1526 1.387 . S
C991 N170 1.894 . S
C996 C301 1.824 . S
C1001 N184 1.098 . S
C1006 C385 1.081 . S
C1011 N158 1.557 . S
C1016 C465 1.528 . S
C1021 N145 1.538 . S
C1026 C381 1.511 . S
C1036 C469 1.034 . S
C1031 N119 1.059 . S
C1041 N131 1.854 . S
C1046 C297 1.812 1_556 S
C1056 C290 1.568 . S
C1051 N144 1.630 . S
C1066 C374 1.417 . S
C1061 N118 1.422 . S
C1071 N132 1.462 . S
C1076 C476 1.457 . S
C1081 N171 1.451 . S
C1086 C392 1.445 . S
C1091 N183 1.385 . S
C1096 C458 1.378 . S
C1106 C308 1.556 . S
C1101 N157 1.593 . S
C1116 C553 1.824 . S
C1111 N14 1.893 . S
C1121 N28 1.100 . S
C1126 C637 1.077 . S
C1131 N2 1.557 . S
C1136 C717 1.528 . S
C1141 N223 1.538 . S
C1146 C633 1.510 . S
C1151 N197 1.059 . S
C1156 C721 1.033 . S
C1161 N209 1.852 . S
C1166 C549 1.809 . S
C1171 N222 1.630 . S
C1176 C542 1.568 . S
C1181 N196 1.422 . S
C1186 C626 1.417 . S
C1196 C728 1.457 . S
C1191 N210 1.462 . S
C1201 N15 1.451 . S
C1206 C644 1.445 . S
C1216 C710 1.378 . S
C1211 N27 1.385 . S
C1221 N1 1.592 . S
C1226 C560 1.556 . S
C1236 C805 1.824 . S
C1231 N92 1.893 . S
C1241 N106 1.099 . S
C1246 C889 1.077 . S
C1256 C969 1.527 . S
C1251 N80 1.557 . S
C1266 C885 1.508 . S
C1261 N67 1.537 . S
C1276 C973 1.034 . S
C1271 N41 1.059 1_655 S
C1281 N53 1.852 . S
C1286 C801 1.809 . S
C1291 N66 1.631 . S
C1296 C794 1.569 . S
C1301 N40 1.425 . S
C1306 C878 1.419 . S
C1316 C980 1.456 . S
C1311 N54 1.461 . S
C1321 N93 1.452 . S
C1326 C896 1.447 . S
C1331 N105 1.385 . S
C1336 C962 1.377 . S
C1341 N79 1.592 . S
C1346 C812 1.555 . S
C1351 N200 1.329 . S
C1356 C304 1.216 . S
C1366 C388 1.507 . S
C1361 N213 1.697 . S
C1371 N226 1.525 . S
C1376 C460 1.400 . S
C1381 N83 1.552 . S
C1386 C376 1.415 . S
C1391 N96 1.681 . S
C1396 C472 1.499 . S
C1406 C292 1.254 . S
C1401 N109 1.356 . S
C1411 N44 1.329 . S
C1416 C556 1.218 . S
C1421 N57 1.698 . S
C1426 C640 1.506 . S
C1431 N70 1.525 . S
C1436 C712 1.402 . S
C1441 N161 1.553 . S
C1446 C628 1.419 . S
C1456 C724 1.499 . S
C1451 N174 1.681 . S
C1461 N187 1.358 . S
C1466 C544 1.254 . S
C1471 N122 1.331 . S
C1476 C808 1.214 . S
C1481 N135 1.697 . S
C1486 C892 1.508 . S
C1496 C964 1.399 . S
C1491 N148 1.525 . S
C1501 N5 1.553 . S
C1506 C880 1.419 . S
C1511 N18 1.680 . S
C1516 C976 1.500 . S
C1521 N31 1.357 . S
C1526 C796 1.253 . S
