# Generated by pormake.
# Topology pyr, (3,6)-cn, num edge types: 1
# Building blocks:
#     Node 0, Type 0, BuildingBlock: KAKCAD_clean_linker_0, # of connection points: 3
#     Node 1, Type 0, BuildingBlock: KAKCAD_clean_linker_0, # of connection points: 3
#     Node 2, Type 0, BuildingBlock: KAKCAD_clean_linker_0, # of connection points: 3
#     Node 3, Type 0, BuildingBlock: KAKCAD_clean_linker_0, # of connection points: 3
#     Node 4, Type 0, BuildingBlock: KAKCAD_clean_linker_0, # of connection points: 3
#     Node 5, Type 0, BuildingBlock: KAKCAD_clean_linker_0, # of connection points: 3
#     Node 6, Type 0, BuildingBlock: KAKCAD_clean_linker_0, # of connection points: 3
#     Node 7, Type 0, BuildingBlock: KAKCAD_clean_linker_0, # of connection points: 3
#     Node 8, Type 1, BuildingBlock: GEDQOX_clean_sbu_0, # of connection points: 6
#     Node 9, Type 1, BuildingBlock: GEDQOX_clean_sbu_0, # of connection points: 6
#     Node 10, Type 1, BuildingBlock: GEDQOX_clean_sbu_0, # of connection points: 6
#     Node 11, Type 1, BuildingBlock: GEDQOX_clean_sbu_0, # of connection points: 6
#     Edge 12, Type (0, 1), BuildingBlock: OJICUG_clean_linker_0, # of connection points: 2
#     Edge 13, Type (0, 1), BuildingBlock: OJICUG_clean_linker_0, # of connection points: 2
#     Edge 14, Type (0, 1), BuildingBlock: OJICUG_clean_linker_0, # of connection points: 2
#     Edge 15, Type (0, 1), BuildingBlock: OJICUG_clean_linker_0, # of connection points: 2
#     Edge 16, Type (0, 1), BuildingBlock: OJICUG_clean_linker_0, # of connection points: 2
#     Edge 17, Type (0, 1), BuildingBlock: OJICUG_clean_linker_0, # of connection points: 2
#     Edge 18, Type (0, 1), BuildingBlock: OJICUG_clean_linker_0, # of connection points: 2
#     Edge 19, Type (0, 1), BuildingBlock: OJICUG_clean_linker_0, # of connection points: 2
#     Edge 20, Type (0, 1), BuildingBlock: OJICUG_clean_linker_0, # of connection points: 2
#     Edge 21, Type (0, 1), BuildingBlock: OJICUG_clean_linker_0, # of connection points: 2
#     Edge 22, Type (0, 1), BuildingBlock: OJICUG_clean_linker_0, # of connection points: 2
#     Edge 23, Type (0, 1), BuildingBlock: OJICUG_clean_linker_0, # of connection points: 2
#     Edge 24, Type (0, 1), BuildingBlock: OJICUG_clean_linker_0, # of connection points: 2
#     Edge 25, Type (0, 1), BuildingBlock: OJICUG_clean_linker_0, # of connection points: 2
#     Edge 26, Type (0, 1), BuildingBlock: OJICUG_clean_linker_0, # of connection points: 2
#     Edge 27, Type (0, 1), BuildingBlock: OJICUG_clean_linker_0, # of connection points: 2
#     Edge 28, Type (0, 1), BuildingBlock: OJICUG_clean_linker_0, # of connection points: 2
#     Edge 29, Type (0, 1), BuildingBlock: OJICUG_clean_linker_0, # of connection points: 2
#     Edge 30, Type (0, 1), BuildingBlock: OJICUG_clean_linker_0, # of connection points: 2
#     Edge 31, Type (0, 1), BuildingBlock: OJICUG_clean_linker_0, # of connection points: 2
#     Edge 32, Type (0, 1), BuildingBlock: OJICUG_clean_linker_0, # of connection points: 2
#     Edge 33, Type (0, 1), BuildingBlock: OJICUG_clean_linker_0, # of connection points: 2
#     Edge 34, Type (0, 1), BuildingBlock: OJICUG_clean_linker_0, # of connection points: 2
#     Edge 35, Type (0, 1), BuildingBlock: OJICUG_clean_linker_0, # of connection points: 2
# Relax obj value: 0.137
# Max RMSD: 0.164
# Mean RMSD: 0.067
data_MOF--net-pyr--node1-GEDQOX_clean_sbu_0--node2-KAKCAD_clean_linker_0--edge1-OJICUG_clean_linker_0
_symmetry_space_group_name_H-M    P1
_symmetry_Int_Tables_number       1
_symmetry_cell_setting            triclinic
loop_
_symmetry_equiv_pos_as_xyz
'x, y, z'
_cell_length_a     37.482301
_cell_length_b     39.091814
_cell_length_c     32.59475
_cell_angle_alpha  87.431441
_cell_angle_beta   89.356283
_cell_angle_gamma 83.608764
loop_
_atom_site_label
_atom_site_type_symbol
_atom_site_fract_x
_atom_site_fract_y
_atom_site_fract_z
_atom_type_partial_charge
C0 C 0.14778 0.14862 0.32408 0.0
C1 C 0.15145 0.11245 0.33025 0.0
C2 C 0.16385 0.16454 0.29022 0.0
C3 C 0.1838 0.14495 0.26076 0.0
C4 C 0.18732 0.10879 0.26678 0.0
C5 C 0.17168 0.09288 0.30097 0.0
C6 C 0.20077 0.16214 0.22414 0.0
C7 C 0.18403 0.19306 0.20566 0.0
C8 C 0.19962 0.20992 0.17186 0.0
C9 C 0.23292 0.19493 0.15621 0.0
C10 C 0.25045 0.16381 0.17383 0.0
C11 C 0.23388 0.14788 0.20771 0.0
C12 C 0.28623 0.14781 0.15767 0.0
C13 C 0.29439 0.14776 0.11528 0.0
C14 C 0.31247 0.1315 0.18484 0.0
C15 C 0.34525 0.11538 0.17034 0.0
C16 C 0.35351 0.11512 0.12802 0.0
C17 C 0.18104 0.24349 0.15391 0.0
C18 C 0.14329 0.24889 0.15081 0.0
C19 C 0.20052 0.27102 0.14141 0.0
C20 C 0.18283 0.30298 0.12719 0.0
C21 C 0.14501 0.30857 0.1249 0.0
C22 C 0.12563 0.2808 0.13667 0.0
C23 C 0.32741 0.13161 0.1007 0.0
H24 H 0.13212 0.16491 0.34519 0.0
H25 H 0.16081 0.1924 0.28753 0.0
H26 H 0.2019 0.09249 0.24482 0.0
H27 H 0.17588 0.06507 0.30448 0.0
H28 H 0.15862 0.20428 0.21782 0.0
H29 H 0.24702 0.12418 0.22156 0.0
H30 H 0.24528 0.2076 0.1304 0.0
H31 H 0.27499 0.15972 0.09318 0.0
H32 H 0.30785 0.13124 0.21769 0.0
H33 H 0.364 0.10265 0.19266 0.0
H34 H 0.12717 0.22831 0.15921 0.0
H35 H 0.2295 0.26827 0.14373 0.0
H36 H 0.33258 0.1324 0.06795 0.0
H37 H 0.09663 0.28354 0.13462 0.0
H38 H 0.19891 0.32362 0.11896 0.0
C39 C 0.42567 0.8475 0.90807 0.0
C40 C 0.45546 0.86438 0.89576 0.0
C41 C 0.41387 0.82235 0.88394 0.0
C42 C 0.43201 0.8131 0.84743 0.0
C43 C 0.46254 0.82907 0.8358 0.0
C44 C 0.47398 0.85472 0.85958 0.0
C45 C 0.41679 0.78958 0.81958 0.0
C46 C 0.38123 0.79767 0.80626 0.0
C47 C 0.36642 0.7772 0.77822 0.0
C48 C 0.38712 0.74799 0.76422 0.0
C49 C 0.4227 0.7391 0.77718 0.0
C50 C 0.43764 0.76041 0.80466 0.0
C51 C 0.44402 0.70892 0.75899 0.0
C52 C 0.42732 0.67953 0.75059 0.0
C53 C 0.47948 0.71068 0.74532 0.0
C54 C 0.49677 0.68482 0.72135 0.0
C55 C 0.47881 0.65686 0.70994 0.0
C56 C 0.33093 0.78805 0.75957 0.0
C57 C 0.30631 0.76397 0.75437 0.0
C58 C 0.32342 0.8216 0.74235 0.0
C59 C 0.29298 0.83029 0.71825 0.0
C60 C 0.26936 0.8057 0.71124 0.0
C61 C 0.2756 0.77281 0.73057 0.0
C62 C 0.4442 0.65415 0.72602 0.0
H63 H 0.41085 0.85449 0.93574 0.0
H64 H 0.39015 0.81048 0.89343 0.0
H65 H 0.47672 0.82264 0.80755 0.0
H66 H 0.49724 0.86711 0.84962 0.0
H67 H 0.36541 0.8206 0.81671 0.0
H68 H 0.46517 0.75428 0.81468 0.0
H69 H 0.376 0.73323 0.74108 0.0
H70 H 0.40031 0.67686 0.76147 0.0
H71 H 0.49325 0.73286 0.75127 0.0
H72 H 0.52385 0.68741 0.71079 0.0
H73 H 0.31151 0.73797 0.76751 0.0
H74 H 0.34209 0.84055 0.74557 0.0
H75 H 0.42913 0.63337 0.71808 0.0
H76 H 0.25774 0.75344 0.72559 0.0
H77 H 0.28845 0.85597 0.70401 0.0
C78 C 0.86663 0.46284 0.89053 0.0
C79 C 0.89223 0.44112 0.91348 0.0
C80 C 0.83667 0.44994 0.87438 0.0
C81 C 0.83156 0.41502 0.88086 0.0
C82 C 0.85734 0.39322 0.90343 0.0
C83 C 0.88731 0.40611 0.91954 0.0
C84 C 0.79894 0.40159 0.86516 0.0
C85 C 0.78584 0.41163 0.82551 0.0
C86 C 0.75465 0.39934 0.81097 0.0
C87 C 0.73636 0.37749 0.83693 0.0
C88 C 0.74911 0.36693 0.87621 0.0
C89 C 0.78054 0.37887 0.89011 0.0
C90 C 0.72984 0.34218 0.90127 0.0
C91 C 0.69217 0.34663 0.90344 0.0
C92 C 0.74842 0.31187 0.91853 0.0
C93 C 0.72953 0.28535 0.93464 0.0
C94 C 0.69174 0.28873 0.93376 0.0
C95 C 0.74008 0.40936 0.76925 0.0
C96 C 0.73944 0.44331 0.75296 0.0
C97 C 0.72366 0.38547 0.74695 0.0
C98 C 0.70428 0.39586 0.71145 0.0
C99 C 0.70159 0.43032 0.69635 0.0
C100 C 0.72069 0.45359 0.71674 0.0
C101 C 0.67333 0.32019 0.91937 0.0
H102 H 0.86934 0.49002 0.88573 0.0
H103 H 0.81706 0.46751 0.85764 0.0
H104 H 0.85449 0.36608 0.90843 0.0
H105 H 0.90682 0.38854 0.93642 0.0
H106 H 0.80037 0.42835 0.80571 0.0
H107 H 0.79009 0.37112 0.92076 0.0
H108 H 0.71195 0.36831 0.82643 0.0
H109 H 0.67719 0.36998 0.89086 0.0
H110 H 0.77747 0.30778 0.91729 0.0
H111 H 0.74452 0.26168 0.94625 0.0
H112 H 0.75195 0.46238 0.76913 0.0
H113 H 0.72453 0.35879 0.75781 0.0
H114 H 0.64429 0.32373 0.91795 0.0
H115 H 0.72034 0.4801 0.70551 0.0
H116 H 0.69 0.37699 0.69721 0.0
C117 C 0.82493 0.76502 0.20833 0.0
C118 C 0.86016 0.74881 0.20616 0.0
C119 C 0.81697 0.79373 0.2321 0.0
C120 C 0.84395 0.80638 0.25492 0.0
C121 C 0.87968 0.79171 0.25022 0.0
C122 C 0.88773 0.76323 0.22586 0.0
C123 C 0.83392 0.83077 0.28795 0.0
C124 C 0.80466 0.82498 0.31364 0.0
C125 C 0.79631 0.84461 0.34812 0.0
C126 C 0.81696 0.87124 0.35613 0.0
C127 C 0.84668 0.87726 0.33127 0.0
C128 C 0.85517 0.85688 0.29723 0.0
C129 C 0.87084 0.90203 0.34464 0.0
C130 C 0.85653 0.9349 0.35636 0.0
C131 C 0.9073 0.89115 0.35173 0.0
C132 C 0.9284 0.91176 0.37292 0.0
C133 C 0.91345 0.94372 0.38716 0.0
C134 C 0.76986 0.8333 0.37867 0.0
C135 C 0.73859 0.82039 0.36556 0.0
C136 C 0.77857 0.83005 0.42061 0.0
C137 C 0.75859 0.81115 0.44797 0.0
C138 C 0.7298 0.7948 0.43382 0.0
C139 C 0.71888 0.80117 0.39276 0.0
C140 C 0.87766 0.95561 0.37719 0.0
H141 H 0.80332 0.75464 0.19291 0.0
H142 H 0.78929 0.80491 0.2344 0.0
H143 H 0.90106 0.80062 0.26756 0.0
H144 H 0.91512 0.75107 0.2247 0.0
H145 H 0.79001 0.80317 0.30859 0.0
H146 H 0.8785 0.86103 0.27849 0.0
H147 H 0.81115 0.88606 0.38322 0.0
H148 H 0.82852 0.94394 0.35093 0.0
H149 H 0.91885 0.86574 0.3434 0.0
H150 H 0.95578 0.90168 0.38026 0.0
H151 H 0.7308 0.82308 0.33357 0.0
H152 H 0.80248 0.83967 0.43183 0.0
H153 H 0.86555 0.98047 0.38676 0.0
H154 H 0.69692 0.78902 0.38059 0.0
H155 H 0.76719 0.80746 0.47962 0.0
C156 C 0.95151 0.8816 0.7589 0.0
C157 C 0.94777 0.9178 0.75304 0.0
C158 C 0.93492 0.8654 0.7922 0.0
C159 C 0.9143 0.88474 0.82136 0.0
C160 C 0.9108 0.92094 0.81571 0.0
C161 C 0.92699 0.93712 0.7821 0.0
C162 C 0.89648 0.86729 0.85718 0.0
C163 C 0.91274 0.8362 0.87584 0.0
C164 C 0.89626 0.81917 0.90889 0.0
C165 C 0.86263 0.83415 0.92359 0.0
C166 C 0.84557 0.86538 0.90577 0.0
C167 C 0.86296 0.88148 0.87265 0.0
C168 C 0.80947 0.88128 0.92103 0.0
C169 C 0.8004 0.88093 0.96318 0.0
C170 C 0.78383 0.89781 0.8933 0.0
C171 C 0.75069 0.91372 0.90707 0.0
C172 C 0.74152 0.91355 0.94916 0.0
C173 C 0.91421 0.78549 0.92724 0.0
C174 C 0.95182 0.7799 0.93183 0.0
C175 C 0.89422 0.75814 0.93902 0.0
C176 C 0.91128 0.72621 0.95415 0.0
C177 C 0.94897 0.72046 0.9581 0.0
C178 C 0.96887 0.748 0.94691 0.0
C179 C 0.76704 0.89685 0.97702 0.0
H180 H 0.96761 0.86549 0.73797 0.0
H181 H 0.93803 0.83753 0.79465 0.0
H182 H 0.89575 0.93706 0.83749 0.0
H183 H 0.92273 0.96494 0.77881 0.0
H184 H 0.93844 0.825 0.86442 0.0
H185 H 0.85015 0.90526 0.85866 0.0
H186 H 0.84962 0.82138 0.94883 0.0
H187 H 0.81933 0.86882 0.9857 0.0
H188 H 0.78918 0.89837 0.86059 0.0
H189 H 0.73239 0.92662 0.8844 0.0
H190 H 0.96829 0.80033 0.92399 0.0
H191 H 0.86534 0.76104 0.93553 0.0
H192 H 0.76116 0.89574 1.00961 0.0
H193 H 0.99777 0.74512 0.95018 0.0
H194 H 0.89485 0.70573 0.96182 0.0
C195 C 0.67928 0.14564 0.20785 0.0
C196 C 0.65426 0.15587 0.17661 0.0
C197 C 0.69349 0.17007 0.23097 0.0
C198 C 0.68377 0.20557 0.22303 0.0
C199 C 0.65866 0.21587 0.19191 0.0
C200 C 0.64394 0.19137 0.1692 0.0
C201 C 0.70013 0.23149 0.24697 0.0
C202 C 0.73599 0.22473 0.2602 0.0
C203 C 0.75119 0.24759 0.28502 0.0
C204 C 0.73095 0.2784 0.29489 0.0
C205 C 0.69533 0.28598 0.28193 0.0
C206 C 0.67985 0.26232 0.25827 0.0
C207 C 0.67402 0.31697 0.2976 0.0
C208 C 0.64185 0.31397 0.31925 0.0
C209 C 0.68864 0.34858 0.29659 0.0
C210 C 0.67277 0.37591 0.31901 0.0
C211 C 0.64197 0.37222 0.34305 0.0
C212 C 0.78597 0.23744 0.30578 0.0
C213 C 0.79228 0.20485 0.32592 0.0
C214 C 0.81067 0.26156 0.31055 0.0
C215 C 0.83992 0.25391 0.33693 0.0
C216 C 0.84468 0.22217 0.35918 0.0
C217 C 0.82129 0.19734 0.35241 0.0
C218 C 0.62599 0.34133 0.34184 0.0
H219 H 0.68834 0.1187 0.21432 0.0
H220 H 0.71207 0.16092 0.25527 0.0
H221 H 0.65064 0.24291 0.18465 0.0
H222 H 0.62425 0.20038 0.14599 0.0
H223 H 0.75215 0.20132 0.25186 0.0
H224 H 0.6519 0.26761 0.24963 0.0
H225 H 0.74211 0.2955 0.31538 0.0
H226 H 0.63027 0.28976 0.32095 0.0
H227 H 0.71331 0.35161 0.27985 0.0
H228 H 0.68527 0.39961 0.31851 0.0
H229 H 0.77358 0.18586 0.32319 0.0
H230 H 0.80652 0.28681 0.29517 0.0
H231 H 0.60238 0.33752 0.36019 0.0
H232 H 0.82474 0.17245 0.36877 0.0
H233 H 0.85767 0.27343 0.34156 0.0
C234 C 0.20021 0.59231 0.21789 0.0
C235 C 0.19896 0.58866 0.17518 0.0
C236 C 0.22845 0.60692 0.23544 0.0
C237 C 0.25597 0.6185 0.2107 0.0
C238 C 0.25501 0.61459 0.16809 0.0
C239 C 0.2269 0.59973 0.15055 0.0
C240 C 0.2849 0.63564 0.22922 0.0
C241 C 0.30195 0.62169 0.26552 0.0
C242 C 0.32843 0.63863 0.28374 0.0
C243 C 0.33765 0.66961 0.26564 0.0
C244 C 0.32162 0.68337 0.22907 0.0
C245 C 0.29536 0.66628 0.21081 0.0
C246 C 0.33465 0.71439 0.20923 0.0
C247 C 0.33792 0.74327 0.23241 0.0
C248 C 0.3485 0.7135 0.16906 0.0
C249 C 0.36755 0.74004 0.1534 0.0
C250 C 0.37262 0.76801 0.17754 0.0
C251 C 0.34925 0.6232 0.31951 0.0
C252 C 0.35446 0.64324 0.35316 0.0
C253 C 0.36858 0.59048 0.31729 0.0
C254 C 0.39463 0.57907 0.34667 0.0
C255 C 0.40157 0.60006 0.37903 0.0
C256 C 0.38017 0.6317 0.38277 0.0
C257 C 0.35658 0.76991 0.21665 0.0
H258 H 0.17889 0.58463 0.23777 0.0
H259 H 0.22823 0.61003 0.26831 0.0
H260 H 0.27613 0.62287 0.14832 0.0
H261 H 0.22718 0.59676 0.11767 0.0
H262 H 0.29497 0.59756 0.27932 0.0
H263 H 0.28268 0.6772 0.18274 0.0
H264 H 0.35891 0.68216 0.27895 0.0
H265 H 0.32739 0.74448 0.26348 0.0
H266 H 0.34649 0.69135 0.15074 0.0
H267 H 0.37937 0.73813 0.12299 0.0
H268 H 0.33968 0.66853 0.35556 0.0
H269 H 0.36532 0.57476 0.29134 0.0
H270 H 0.36026 0.791 0.23608 0.0
H271 H 0.38413 0.64815 0.40782 0.0
H272 H 0.41074 0.5547 0.34252 0.0
C273 C 0.20764 0.09172 0.71411 0.0
C274 C 0.1792 0.10405 0.68772 0.0
C275 C 0.22512 0.1147 0.73635 0.0
C276 C 0.21478 0.15025 0.73181 0.0
C277 C 0.18628 0.16254 0.70569 0.0
C278 C 0.16845 0.13963 0.68409 0.0
C279 C 0.23479 0.175 0.75217 0.0
C280 C 0.25453 0.19694 0.72794 0.0
C281 C 0.27064 0.22318 0.7459 0.0
C282 C 0.26791 0.22652 0.78837 0.0
C283 C 0.24749 0.20555 0.81301 0.0
C284 C 0.23111 0.17942 0.79469 0.0
C285 C 0.23801 0.2168 0.85502 0.0
C286 C 0.26419 0.22962 0.87884 0.0
C287 C 0.2017 0.22482 0.86544 0.0
C288 C 0.19175 0.25001 0.89379 0.0
C289 C 0.21792 0.26798 0.91138 0.0
C290 C 0.28738 0.24952 0.72059 0.0
C291 C 0.31276 0.24016 0.68995 0.0
C292 C 0.27883 0.28455 0.72846 0.0
C293 C 0.29652 0.30962 0.70764 0.0
C294 C 0.32301 0.30028 0.67825 0.0
C295 C 0.33048 0.2654 0.66891 0.0
C296 C 0.25428 0.2554 0.90638 0.0
H297 H 0.21628 0.06437 0.71752 0.0
H298 H 0.24722 0.10485 0.75624 0.0
H299 H 0.17807 0.18995 0.70174 0.0
H300 H 0.14681 0.1498 0.66369 0.0
H301 H 0.25589 0.19455 0.69492 0.0
H302 H 0.21421 0.16376 0.81295 0.0
H303 H 0.27976 0.24742 0.80186 0.0
H304 H 0.29245 0.22317 0.87213 0.0
H305 H 0.18084 0.21498 0.84814 0.0
H306 H 0.16343 0.25786 0.89853 0.0
H307 H 0.31976 0.21334 0.68331 0.0
H308 H 0.25864 0.29258 0.75117 0.0
H309 H 0.27536 0.26799 0.91979 0.0
H310 H 0.35085 0.25752 0.64636 0.0
H311 H 0.28961 0.33637 0.71474 0.0
Nd312 Nd 0.06953 0.98205 0.53169 0.0
Nd313 Nd 1.03175 0.0494 0.55382 0.0
C314 C 0.09062 0.91704 0.51715 0.0
C315 C 0.10813 0.88921 0.54403 0.0
C316 C 0.13516 0.86578 0.52804 0.0
C317 C 0.15836 0.84511 0.55451 0.0
C318 C 0.15482 0.84773 0.59731 0.0
C319 C 0.12581 0.86914 0.61316 0.0
C320 C 0.10276 0.88989 0.58671 0.0
C321 C 0.1075 0.01753 0.58436 0.0
C322 C 1.01603 0.98525 0.61297 0.0
C323 C 1.01109 0.1146 0.56774 0.0
C324 C 0.99542 0.14251 0.53965 0.0
C325 C 0.96751 0.16614 0.55344 0.0
C326 C 0.94603 0.18675 0.52515 0.0
C327 C 0.95213 0.18383 0.4827 0.0
C328 C 0.98207 0.16228 0.46925 0.0
C329 C 1.00344 0.14165 0.49749 0.0
C330 C 0.99334 1.01393 0.50168 0.0
C331 C 0.08468 0.04599 0.47202 0.0
O332 O 0.05735 0.92818 0.52617 0.0
O333 O 0.11028 0.94204 0.50867 0.0
O334 O 0.12247 0.99927 0.55543 0.0
O335 O 0.07455 1.01481 0.58637 0.0
O336 O 1.02816 0.96699 0.58147 0.0
O337 O 1.02032 0.01834 0.61328 0.0
O338 O 1.04463 0.10287 0.56097 0.0
O339 O 0.99062 0.09001 0.57485 0.0
O340 O 0.97893 0.03184 0.53122 0.0
O341 O 1.02633 0.01666 0.4989 0.0
O342 O 0.07273 0.06436 0.50348 0.0
O343 O 0.08046 1.0129 0.47201 0.0
H344 H 0.13983 0.86512 0.4952 0.0
H345 H 0.18032 0.82855 0.54154 0.0
H346 H 0.12264 0.87196 0.64595 0.0
H347 H 0.08234 0.90816 0.59972 0.0
H348 H 0.96079 0.16697 0.58583 0.0
H349 H 0.92335 0.20345 0.53636 0.0
H350 H 0.98728 0.15918 0.43679 0.0
H351 H 1.02459 0.12327 0.48608 0.0
Nd352 Nd 0.5499 0.99139 0.0719 0.0
Nd353 Nd 0.54431 0.0363 1.00345 0.0
C354 C 0.5528 0.93672 0.12291 0.0
C355 C 0.52627 0.91221 0.13007 0.0
C356 C 0.53595 0.87999 0.14971 0.0
C357 C 0.51059 0.85645 0.15504 0.0
C358 C 0.47523 0.86493 0.14084 0.0
C359 C 0.46581 0.89723 0.12096 0.0
C360 C 0.49115 0.92061 0.1155 0.0
C361 C 0.49154 0.04115 0.07961 0.0
C362 C 0.50649 0.97005 0.99126 0.0
C363 C 0.53987 0.09224 0.9544 0.0
C364 C 0.56288 0.12032 0.95163 0.0
C365 C 0.54851 0.15382 0.93958 0.0
C366 C 0.56997 0.18089 0.93964 0.0
C367 C 0.60614 0.17478 0.95172 0.0
C368 C 0.62037 0.14113 0.96384 0.0
C369 C 0.59889 0.11418 0.96399 0.0
C370 C 0.60258 0.98658 0.99566 0.0
C371 C 0.59022 0.05604 0.08278 0.0
O372 O 0.56777 0.93621 0.08657 0.0
O373 O 0.5429 0.96797 0.13423 0.0
O374 O 0.51518 0.03208 0.10774 0.0
O375 O 0.49936 0.02469 0.04743 0.0
O376 O 0.52513 0.95927 1.02421 0.0
O377 O 0.50478 1.00246 0.97827 0.0
O378 O 0.52141 0.09018 0.98843 0.0
O379 O 0.55468 0.06222 0.94332 0.0
O380 O 0.57917 0.99593 0.96728 0.0
O381 O 0.59472 1.00296 1.02789 0.0
O382 O 0.57017 0.06771 0.05122 0.0
O383 O 0.5921 0.02338 0.09465 0.0
H384 H 0.56304 0.87305 0.16081 0.0
H385 H 0.51848 0.83183 0.17079 0.0
H386 H 0.43894 0.90428 0.10923 0.0
H387 H 0.48338 0.94525 0.09968 0.0
H388 H 0.52066 0.15906 0.93045 0.0
H389 H 0.55841 0.20653 0.92977 0.0
H390 H 0.64798 0.13574 0.9738 0.0
H391 H 0.6103 0.08859 0.97429 0.0
Nd392 Nd 0.53161 0.49411 0.53022 0.0
Nd393 Nd 0.59233 0.53889 0.51528 0.0
C394 C 0.4702 0.46689 0.53327 0.0
C395 C 0.44564 0.44896 0.55937 0.0
C396 C 0.41249 0.44326 0.5432 0.0
C397 C 0.39105 0.42116 0.56405 0.0
C398 C 0.40251 0.40447 0.60143 0.0
C399 C 0.43497 0.41169 0.61862 0.0
C400 C 0.45652 0.43374 0.5976 0.0
C401 C 0.59286 0.47253 0.57417 0.0
C402 C 0.53487 0.56343 0.58514 0.0
C403 C 0.65299 0.56667 0.50506 0.0
C404 C 0.66392 0.60139 0.50593 0.0
C405 C 0.69856 0.60706 0.49318 0.0
C406 C 0.70832 0.64048 0.48999 0.0
C407 C 0.6835 0.66881 0.49955 0.0
C408 C 0.64905 0.6628 0.51366 0.0
C409 C 0.63931 0.62928 0.5168 0.0
C410 C 0.52977 0.56119 0.4746 0.0
C411 C 0.58824 0.47217 0.46112 0.0
O412 O 0.47226 0.49959 0.53878 0.0
O413 O 0.50122 0.4495 0.52568 0.0
O414 O 0.57209 0.45141 0.56009 0.0
O415 O 0.57948 0.50312 0.56773 0.0
O416 O 0.51597 0.53858 0.57418 0.0
O417 O 0.56647 0.56784 0.56881 0.0
O418 O 0.63195 0.56154 0.47472 0.0
O419 O 0.64313 0.55307 0.54023 0.0
O420 O 0.55043 0.58217 0.48931 0.0
O421 O 0.54376 0.53058 0.47893 0.0
O422 O 0.61028 0.48851 0.48242 0.0
O423 O 0.55347 0.47716 0.46803 0.0
H424 H 0.40386 0.45477 0.51358 0.0
H425 H 0.3659 0.41648 0.55045 0.0
H426 H 0.44452 0.39903 0.6473 0.0
H427 H 0.48226 0.43774 0.61026 0.0
H428 H 0.71773 0.58575 0.48445 0.0
H429 H 0.73482 0.64418 0.47826 0.0
H430 H 0.62945 0.68403 0.52152 0.0
H431 H 0.61235 0.62519 0.52668 0.0
Nd432 Nd 1.01639 0.51186 0.0744 0.0
Nd433 Nd 0.07578 0.51757 1.01303 0.0
C434 C 0.95359 0.51732 0.11235 0.0
C435 C 0.92925 0.54808 0.12293 0.0
C436 C 0.91822 0.57383 0.09276 0.0
C437 C 0.90217 0.60605 0.10404 0.0
C438 C 0.8964 0.61292 0.14559 0.0
C439 C 0.90476 0.58634 0.17555 0.0
C440 C 0.92119 0.55421 0.1643 0.0
C441 C 0.07661 0.53447 0.10565 0.0
C442 C 1.01846 0.58476 1.01583 0.0
C443 C 0.13931 0.51141 0.97693 0.0
C444 C 0.16305 0.4798 0.96769 0.0
C445 C 0.17763 0.45708 0.99947 0.0
C446 C 0.19132 0.42331 0.99125 0.0
C447 C 0.19039 0.41157 0.95122 0.0
C448 C 0.1798 0.43556 0.91892 0.0
C449 C 0.16624 0.46931 0.92709 0.0
C450 C 1.01569 0.49467 0.9816 0.0
C451 C 0.07364 0.44451 0.07098 0.0
O452 O 0.95733 0.51105 0.07329 0.0
O453 O 0.98416 0.51326 0.13187 0.0
O454 O 0.05779 0.51316 0.12548 0.0
O455 O 0.06272 0.54424 0.07147 0.0
O456 O 0.99948 0.56447 1.03896 0.0
O457 O 0.05181 0.57416 1.005 0.0
O458 O 0.13481 0.51824 1.01575 0.0
O459 O 0.10919 0.51611 0.95646 0.0
O460 O 1.03483 0.5156 0.96154 0.0
O461 O 1.02944 0.48513 1.01593 0.0
O462 O 0.09255 0.46493 0.04805 0.0
O463 O 1.04031 0.45508 0.082 0.0
H464 H 0.92364 0.56976 0.06054 0.0
H465 H 0.89539 0.62602 0.0804 0.0
H466 H 0.90054 0.59104 0.20784 0.0
H467 H 0.92939 0.53477 0.1881 0.0
H468 H 0.17608 0.46443 1.03114 0.0
H469 H 0.19979 0.40574 1.01681 0.0
H470 H 0.18022 0.4278 0.88742 0.0
H471 H 0.15592 0.48648 0.9019 0.0
C472 C 0.12945 0.11167 0.40456 0.0
C473 C 0.1343 0.09534 0.3668 0.0
H474 H 0.11005 0.10933 0.46676 0.0
C475 C 0.12246 0.06244 0.36442 0.0
H476 H 0.13865 0.13659 0.4084 0.0
C477 C 0.10673 0.04643 0.39847 0.0
C478 C 0.10177 0.06293 0.43592 0.0
H479 H 0.12477 0.04904 0.33602 0.0
H480 H 0.09799 0.02121 0.39519 0.0
C481 C 0.11321 0.09585 0.4384 0.0
C482 C 0.47148 0.88708 0.96308 0.0
C483 C 0.46689 0.8922 0.92046 0.0
H484 H 0.4876 0.90773 1.01885 0.0
C485 C 0.47332 0.92403 0.90163 0.0
H486 H 0.46676 0.8628 0.97838 0.0
C487 C 0.48462 0.95005 0.92491 0.0
C488 C 0.49034 0.94447 0.96733 0.0
H489 H 0.46961 0.92877 0.86888 0.0
H490 H 0.49002 0.97407 0.90947 0.0
C491 C 0.4834 0.91281 0.9862 0.0
C492 C 0.66862 0.41966 0.63154 0.0
C493 C 0.67655 0.44227 0.6619 0.0
H494 H 0.63539 0.41129 0.58048 0.0
C495 C 0.65798 0.47567 0.661 0.0
H496 H 0.68288 0.39409 0.63023 0.0
C497 C 0.63172 0.48576 0.63151 0.0
C498 C 0.62265 0.46247 0.60287 0.0
H499 H 0.66252 0.49377 0.68403 0.0
H500 H 0.61747 0.51142 0.63224 0.0
C501 C 0.64157 0.42949 0.60275 0.0
C502 C 0.84763 0.68785 0.20036 0.0
C503 C 0.86743 0.71493 0.18743 0.0
H504 H 0.84149 0.63411 0.19737 0.0
C505 C 0.89541 0.70869 0.15884 0.0
H506 H 0.82616 0.69196 0.22273 0.0
C507 C 0.90376 0.67576 0.14389 0.0
C508 C 0.88479 0.6484 0.15799 0.0
H509 H 0.91103 0.72917 0.14849 0.0
H510 H 0.92595 0.67135 0.12248 0.0
C511 C 0.85646 0.65479 0.18608 0.0
C512 C 0.42041 0.09817 0.13686 0.0
C513 C 0.38923 0.09786 0.11316 0.0
H514 H 0.47627 0.08102 0.1448 0.0
C515 C 0.39269 0.0801 0.07619 0.0
H516 H 0.41958 0.11216 0.16483 0.0
C517 C 0.42591 0.06242 0.06423 0.0
C518 C 0.45652 0.06189 0.089 0.0
H519 H 0.3695 0.07896 0.05701 0.0
H520 H 0.42737 0.04841 1.03623 0.0
C521 C 0.45327 0.08043 0.12512 0.0
C522 C 0.24732 0.82838 0.64251 0.0
C523 C 0.23995 0.81378 0.68136 0.0
H524 H 0.22619 0.85012 0.58544 0.0
C525 C 0.20464 0.80752 0.6913 0.0
H526 H 0.27445 0.83298 0.63391 0.0
C527 C 0.17685 0.81726 0.66338 0.0
C528 C 0.18416 0.83284 0.62493 0.0
H529 H 0.19839 0.79616 0.72107 0.0
H530 H 0.14961 0.81324 0.67211 0.0
C531 C 0.21977 0.8377 0.61455 0.0
C532 C 0.94224 0.47899 0.90839 0.0
C533 C 0.92389 0.45492 0.93113 0.0
H534 H 0.98564 0.51034 0.90656 0.0
C535 C 0.936 0.44419 0.97086 0.0
H536 H 0.93392 0.4875 0.87754 0.0
C537 C 0.9658 0.45714 0.98737 0.0
C538 C 0.98409 0.48106 0.96448 0.0
H539 H 0.92219 0.42607 0.98944 0.0
H540 H 0.97447 0.44845 1.01806 0.0
C541 C 0.972 0.49192 0.9249 0.0
C542 C 0.73896 0.74312 0.48225 0.0
C543 C 0.71533 0.7668 0.45909 0.0
H544 H 0.7471 0.69398 0.51423 0.0
C545 C 0.6794 0.76026 0.45535 0.0
H546 H 0.7669 0.74703 0.48565 0.0
C547 C 0.66829 0.72927 0.47102 0.0
C548 C 0.69284 0.70435 0.491 0.0
H549 H 0.66033 0.77823 0.43837 0.0
H550 H 0.64114 0.72396 0.46498 0.0
C551 C 0.72777 0.71235 0.49817 0.0
C552 C 0.14072 0.36328 0.07922 0.0
C553 C 0.12595 0.34308 0.11054 0.0
H554 H 0.13552 0.41009 0.04205 0.0
C555 C 0.09288 0.35637 0.12802 0.0
H556 H 0.16559 0.35398 0.06416 0.0
C557 C 0.07556 0.38887 0.11501 0.0
C558 C 0.09077 0.40918 0.08417 0.0
H559 H 0.08063 0.34197 0.15247 0.0
H560 H 0.05052 0.39829 0.12964 0.0
C561 C 0.1234 0.39565 0.06634 0.0
C562 C 0.63755 0.26286 0.9622 0.0
C563 C 0.67158 0.25863 0.94327 0.0
H564 H 0.5902 0.23962 0.97984 0.0
C565 C 0.68472 0.22594 0.92963 0.0
H566 H 0.62684 0.28753 0.97364 0.0
C567 C 0.66383 0.19854 0.93342 0.0
C568 C 0.62923 0.20322 0.95069 0.0
H569 H 0.71049 0.22184 0.91423 0.0
H570 H 0.67421 0.17404 0.92127 0.0
C571 C 0.61653 0.23548 0.9657 0.0
C572 C 0.97101 0.96479 0.40963 0.0
C573 C 0.93396 0.96313 0.41524 0.0
H574 H 1.0189 0.98216 0.43271 0.0
C575 C 0.91674 0.97876 0.44935 0.0
H576 H 0.98505 0.95327 0.38358 0.0
C577 C 0.93605 0.99546 0.47721 0.0
C578 C 0.97303 0.99677 0.47174 0.0
H579 H 0.88843 0.97736 0.45519 0.0
H580 H 0.92208 1.00695 0.50334 0.0
C581 C 0.99037 0.98141 0.43767 0.0
C582 C 0.48625 0.59776 0.67993 0.0
C583 C 0.49476 0.63205 0.67924 0.0
H584 H 0.49154 0.54947 0.65035 0.0
C585 C 0.51699 0.64307 0.64727 0.0
H586 H 0.46996 0.58784 0.70435 0.0
C587 C 0.53015 0.62064 0.61706 0.0
C588 C 0.52078 0.58685 0.61733 0.0
H589 H 0.52359 0.66934 0.64476 0.0
H590 H 0.54705 0.63006 0.59284 0.0
C591 C 0.4987 0.5756 0.64903 0.0
C592 C 0.97694 0.96815 0.71985 0.0
C593 C 0.96532 0.9352 0.71696 0.0
H594 H 1.00158 1.00966 0.68987 0.0
C595 C 0.9707 0.91911 0.67911 0.0
H596 H 0.97418 0.98139 0.74835 0.0
C597 C 0.98726 0.93518 0.64569 0.0
C598 C 0.99853 0.96813 0.64867 0.0
H599 H 0.96168 0.89417 0.67486 0.0
H600 H 0.99082 0.92186 0.61725 0.0
C601 C 0.99301 0.98441 0.68621 0.0
C602 C 0.63279 0.09734 0.17009 0.0
C603 C 0.63899 0.12963 0.15206 0.0
H604 H 0.61315 0.04863 0.16222 0.0
C605 C 0.63031 0.13663 0.11039 0.0
H606 H 0.63842 0.09108 0.20221 0.0
C607 C 0.61503 0.11248 0.08779 0.0
C608 C 0.60869 0.08045 0.10599 0.0
H609 H 0.63538 0.16075 0.09501 0.0
H610 H 0.60815 0.11895 0.05599 0.0
C611 C 0.61815 0.07294 0.14721 0.0
C612 C 0.44299 0.55569 0.41873 0.0
C613 C 0.43286 0.59033 0.40652 0.0
H614 H 0.48168 0.5194 0.44972 0.0
C615 C 0.45426 0.61551 0.41865 0.0
H616 H 0.42691 0.53569 0.41056 0.0
C617 C 0.48537 0.60619 0.44163 0.0
C618 C 0.49593 0.57149 0.45253 0.0
H619 H 0.44772 0.64237 0.40926 0.0
H620 H 0.50163 0.62603 0.4499 0.0
C621 C 0.47428 0.54636 0.44132 0.0
C622 C 0.18082 0.3253 0.90663 0.0
C623 C 0.20805 0.30323 0.92663 0.0
H624 H 0.15371 0.376 0.89909 0.0
C625 C 0.22854 0.31686 0.95664 0.0
H626 H 0.1648 0.31628 0.88279 0.0
C627 C 0.22294 0.35194 0.96496 0.0
C628 C 0.19664 0.37411 0.94356 0.0
H629 H 0.24952 0.30065 0.97299 0.0
H630 H 0.23987 0.36181 0.98731 0.0
C631 C 0.17505 0.36005 0.91519 0.0
C632 C 0.6748 0.93055 0.93875 0.0
C633 C 0.70552 0.93063 0.9633 0.0
H634 H 0.61903 0.94767 0.92977 0.0
C635 C 0.70136 0.94793 1.00053 0.0
H636 H 0.6762 0.91691 0.9105 0.0
C637 C 0.66791 0.96537 1.01201 0.0
C638 C 0.63776 0.96611 0.98648 0.0
H639 H 0.72418 0.94891 1.02034 0.0
H640 H 0.66592 0.97902 0.04028 0.0
C641 C 0.64169 0.94807 0.95003 0.0
C642 C 0.86246 0.20256 0.43048 0.0
C643 C 0.87215 0.21561 0.39161 0.0
H644 H 0.88009 0.18267 0.4897 0.0
C645 C 0.90797 0.22151 0.38408 0.0
H646 H 0.83489 0.19833 0.43729 0.0
C647 C 0.934 0.21272 0.41434 0.0
C648 C 0.92446 0.19839 0.45273 0.0
H649 H 0.91602 0.2317 0.35437 0.0
H650 H 0.9617 0.21636 0.40743 0.0
C651 C 0.88828 0.19412 0.46071 0.0
C652 C 0.15376 0.58765 0.11879 0.0
C653 C 0.1683 0.57397 0.15647 0.0
H654 H 0.11338 0.5858 0.07309 0.0
C655 C 0.15279 0.5466 0.17658 0.0
H656 H 0.16468 0.60901 0.10269 0.0
C657 C 0.12311 0.5337 0.15987 0.0
C658 C 0.10844 0.5477 0.12256 0.0
H659 H 0.16365 0.53499 0.20522 0.0
H660 H 0.11165 0.51274 0.17621 0.0
C661 C 0.12421 0.57455 0.10194 0.0
C662 C 0.35639 0.35198 0.68212 0.0
C663 C 0.34332 0.32694 0.65842 0.0
H664 H 0.38521 0.39629 0.68261 0.0
C665 C 0.34966 0.32769 0.6159 0.0
H666 H 0.3522 0.35177 0.71506 0.0
C667 C 0.36855 0.35314 0.5974 0.0
C668 C 0.38167 0.37815 0.62111 0.0
H669 H 0.3397 0.30883 0.59692 0.0
H670 H 0.37336 0.35294 0.56457 0.0
C671 C 0.37549 0.37727 0.66366 0.0
C672 C 0.95152 0.66605 1.0043 0.0
C673 C 0.96737 0.68597 0.97351 0.0
H674 H 0.95526 0.61951 0.04195 0.0
C675 C 1.00092 0.67242 0.95751 0.0
H676 H 0.92618 0.67557 1.01819 0.0
C677 C 1.01771 0.64 0.97145 0.0
C678 C 1.0015 0.61996 1.0018 0.0
H679 H 1.01401 0.68656 0.93349 0.0
H680 H 1.0432 0.63042 0.95793 0.0
C681 C 0.96831 0.6337 1.01814 0.0
C682 C 0.38845 0.82862 0.1702 0.0
C683 C 0.39738 0.79337 0.16404 0.0
H684 H 0.40617 0.87887 0.16781 0.0
C685 C 0.43151 0.78203 0.14829 0.0
H686 H 0.3623 0.83807 0.18218 0.0
C687 C 0.45664 0.80532 0.14019 0.0
C688 C 0.44804 0.84044 0.14739 0.0
H689 H 0.43928 0.75494 0.14369 0.0
H690 H 0.48293 0.79582 0.12863 0.0
C691 C 0.41349 0.85196 0.1618 0.0
C692 C 0.18118 0.05623 0.63869 0.0
C693 C 0.1611 0.08021 0.66313 0.0
H694 H 0.17982 0.01776 0.59392 0.0
C695 C 0.12347 0.08255 0.66237 0.0
H696 H 0.21024 0.05417 0.63851 0.0
C697 C 0.10618 0.0616 0.63732 0.0
C698 C 0.12618 0.03828 0.61207 0.0
H699 H 0.10741 0.10072 0.68107 0.0
H700 H 0.0771 0.06416 0.63715 0.0
C701 C 0.16383 0.0356 0.61307 0.0
C702 C 0.59105 0.40772 0.37737 0.0
C703 C 0.62812 0.3994 0.3715 0.0
H704 H 0.54944 0.43725 0.40997 0.0
C705 C 0.65204 0.41611 0.39452 0.0
H706 H 0.57191 0.39563 0.35985 0.0
C707 C 0.63919 0.44015 0.42319 0.0
C708 C 0.60213 0.44795 0.42955 0.0
H709 H 0.68079 0.40991 0.39127 0.0
H710 H 0.65833 0.45212 0.44085 0.0
C711 C 0.5782 0.43171 0.40604 0.0
loop_
_geom_bond_atom_site_label_1
_geom_bond_atom_site_label_2
_geom_bond_distance
_geom_bond_site_symmetry_2
_ccdc_geom_bond_type
C0 C1 1.386 . S
C0 C2 1.397 . S
C0 H24 0.931 . S
C1 C0 1.386 . S
C1 C5 1.397 . S
C2 C0 1.397 . S
C2 C3 1.384 . S
C2 H25 0.930 . S
C3 C2 1.384 . S
C3 C4 1.377 . S
C3 C6 1.481 . S
C4 C3 1.377 . S
C4 C5 1.389 . S
C4 H26 0.929 . S
C5 C1 1.397 . S
C5 C4 1.389 . S
C5 H27 0.931 . S
C6 C3 1.481 . S
C6 C7 1.387 . S
C6 C11 1.390 . S
C7 C6 1.387 . S
C7 C8 1.401 . S
C7 H28 0.930 . S
C8 C7 1.401 . S
C8 C9 1.376 . S
C8 C17 1.511 . S
C9 C8 1.376 . S
C9 C10 1.392 . S
C9 H30 0.931 . S
C10 C9 1.392 . S
C10 C11 1.361 . S
C10 C12 1.500 . S
C11 C6 1.390 . S
C11 C10 1.361 . S
C11 H29 0.931 . S
C12 C10 1.500 . S
C12 C13 1.371 . S
C12 C14 1.365 . S
C13 C12 1.371 . S
C13 C23 1.386 . S
C13 H31 0.931 . S
C14 C12 1.365 . S
C14 C15 1.409 . S
C14 H32 0.929 . S
C15 C14 1.409 . S
C15 C16 1.380 . S
C15 H33 0.930 . S
C16 C15 1.380 . S
C16 C23 1.357 . S
C17 C8 1.511 . S
C17 C18 1.341 . S
C17 C19 1.371 . S
C18 C17 1.341 . S
C18 C22 1.394 . S
C18 H34 0.930 . S
C19 C17 1.371 . S
C19 C20 1.392 . S
C19 H35 0.931 . S
C20 C19 1.392 . S
C20 C21 1.331 . S
C20 H38 0.932 . S
C21 C20 1.331 . S
C21 C22 1.336 . S
C22 C18 1.394 . S
C22 C21 1.336 . S
C22 H37 0.929 . S
C23 C13 1.386 . S
C23 C16 1.357 . S
C23 H36 0.928 . S
H24 C0 0.931 . S
H25 C2 0.930 . S
H26 C4 0.929 . S
H27 C5 0.931 . S
H28 C7 0.930 . S
H29 C11 0.931 . S
H30 C9 0.931 . S
H31 C13 0.931 . S
H32 C14 0.929 . S
H33 C15 0.930 . S
H34 C18 0.930 . S
H35 C19 0.931 . S
H36 C23 0.928 . S
H37 C22 0.929 . S
H38 C20 0.932 . S
C39 C40 1.386 . S
C39 C41 1.397 . S
C39 H63 0.931 . S
C40 C39 1.386 . S
C40 C44 1.397 . S
C41 C39 1.397 . S
C41 C42 1.384 . S
C41 H64 0.930 . S
C42 C41 1.384 . S
C42 C43 1.377 . S
C42 C45 1.481 . S
C43 C42 1.377 . S
C43 C44 1.389 . S
C43 H65 0.929 . S
C44 C40 1.397 . S
C44 C43 1.389 . S
C44 H66 0.931 . S
C45 C42 1.481 . S
C45 C46 1.387 . S
C45 C50 1.390 . S
C46 C45 1.387 . S
C46 C47 1.401 . S
C46 H67 0.930 . S
C47 C46 1.401 . S
C47 C48 1.376 . S
C47 C56 1.511 . S
C48 C47 1.376 . S
C48 C49 1.392 . S
C48 H69 0.931 . S
C49 C48 1.392 . S
C49 C50 1.361 . S
C49 C51 1.500 . S
C50 C45 1.390 . S
C50 C49 1.361 . S
C50 H68 0.931 . S
C51 C49 1.500 . S
C51 C52 1.371 . S
C51 C53 1.365 . S
C52 C51 1.371 . S
C52 C62 1.386 . S
C52 H70 0.931 . S
C53 C51 1.365 . S
C53 C54 1.409 . S
C53 H71 0.929 . S
C54 C53 1.409 . S
C54 C55 1.380 . S
C54 H72 0.930 . S
C55 C54 1.380 . S
C55 C62 1.357 . S
C56 C47 1.511 . S
C56 C57 1.341 . S
C56 C58 1.371 . S
C57 C56 1.341 . S
C57 C61 1.394 . S
C57 H73 0.930 . S
C58 C56 1.371 . S
C58 C59 1.392 . S
C58 H74 0.931 . S
C59 C58 1.392 . S
C59 C60 1.331 . S
C59 H77 0.932 . S
C60 C59 1.331 . S
C60 C61 1.336 . S
C61 C57 1.394 . S
C61 C60 1.336 . S
C61 H76 0.929 . S
C62 C52 1.386 . S
C62 C55 1.357 . S
C62 H75 0.928 . S
H63 C39 0.931 . S
H64 C41 0.930 . S
H65 C43 0.929 . S
H66 C44 0.931 . S
H67 C46 0.930 . S
H68 C50 0.931 . S
H69 C48 0.931 . S
H70 C52 0.931 . S
H71 C53 0.929 . S
H72 C54 0.930 . S
H73 C57 0.930 . S
H74 C58 0.931 . S
H75 C62 0.928 . S
H76 C61 0.929 . S
H77 C59 0.932 . S
C78 C79 1.386 . S
C78 C80 1.397 . S
C78 H102 0.931 . S
C79 C78 1.386 . S
C79 C83 1.397 . S
C80 C78 1.397 . S
C80 C81 1.384 . S
C80 H103 0.930 . S
C81 C80 1.384 . S
C81 C82 1.377 . S
C81 C84 1.481 . S
C82 C81 1.377 . S
C82 C83 1.389 . S
C82 H104 0.929 . S
C83 C79 1.397 . S
C83 C82 1.389 . S
C83 H105 0.931 . S
C84 C81 1.481 . S
C84 C85 1.387 . S
C84 C89 1.390 . S
C85 C84 1.387 . S
C85 C86 1.401 . S
C85 H106 0.930 . S
C86 C85 1.401 . S
C86 C87 1.376 . S
C86 C95 1.511 . S
C87 C86 1.376 . S
C87 C88 1.392 . S
C87 H108 0.931 . S
C88 C87 1.392 . S
C88 C89 1.361 . S
C88 C90 1.500 . S
C89 C84 1.390 . S
C89 C88 1.361 . S
C89 H107 0.931 . S
C90 C88 1.500 . S
C90 C91 1.371 . S
C90 C92 1.365 . S
C91 C90 1.371 . S
C91 C101 1.386 . S
C91 H109 0.931 . S
C92 C90 1.365 . S
C92 C93 1.409 . S
C92 H110 0.929 . S
C93 C92 1.409 . S
C93 C94 1.380 . S
C93 H111 0.930 . S
C94 C93 1.380 . S
C94 C101 1.357 . S
C95 C86 1.511 . S
C95 C96 1.341 . S
C95 C97 1.371 . S
C96 C95 1.341 . S
C96 C100 1.394 . S
C96 H112 0.930 . S
C97 C95 1.371 . S
C97 C98 1.392 . S
C97 H113 0.931 . S
C98 C97 1.392 . S
C98 C99 1.331 . S
C98 H116 0.932 . S
C99 C98 1.331 . S
C99 C100 1.336 . S
C100 C96 1.394 . S
C100 C99 1.336 . S
C100 H115 0.929 . S
C101 C91 1.386 . S
C101 C94 1.357 . S
C101 H114 0.928 . S
H102 C78 0.931 . S
H103 C80 0.930 . S
H104 C82 0.929 . S
H105 C83 0.931 . S
H106 C85 0.930 . S
H107 C89 0.931 . S
H108 C87 0.931 . S
H109 C91 0.931 . S
H110 C92 0.929 . S
H111 C93 0.930 . S
H112 C96 0.930 . S
H113 C97 0.931 . S
H114 C101 0.928 . S
H115 C100 0.929 . S
H116 C98 0.932 . S
C117 C118 1.386 . S
C117 C119 1.397 . S
C117 H141 0.931 . S
C118 C117 1.386 . S
C118 C122 1.397 . S
C119 C117 1.397 . S
C119 C120 1.384 . S
C119 H142 0.930 . S
C120 C119 1.384 . S
C120 C121 1.377 . S
C120 C123 1.481 . S
C121 C120 1.377 . S
C121 C122 1.389 . S
C121 H143 0.929 . S
C122 C118 1.397 . S
C122 C121 1.389 . S
C122 H144 0.931 . S
C123 C120 1.481 . S
C123 C124 1.387 . S
C123 C128 1.390 . S
C124 C123 1.387 . S
C124 C125 1.401 . S
C124 H145 0.930 . S
C125 C124 1.401 . S
C125 C126 1.376 . S
C125 C134 1.511 . S
C126 C125 1.376 . S
C126 C127 1.392 . S
C126 H147 0.931 . S
C127 C126 1.392 . S
C127 C128 1.361 . S
C127 C129 1.500 . S
C128 C123 1.390 . S
C128 C127 1.361 . S
C128 H146 0.931 . S
C129 C127 1.500 . S
C129 C130 1.371 . S
C129 C131 1.365 . S
C130 C129 1.371 . S
C130 C140 1.386 . S
C130 H148 0.931 . S
C131 C129 1.365 . S
C131 C132 1.409 . S
C131 H149 0.929 . S
C132 C131 1.409 . S
C132 C133 1.380 . S
C132 H150 0.930 . S
C133 C132 1.380 . S
C133 C140 1.357 . S
C134 C125 1.511 . S
C134 C135 1.341 . S
C134 C136 1.371 . S
C135 C134 1.341 . S
C135 C139 1.394 . S
C135 H151 0.930 . S
C136 C134 1.371 . S
C136 C137 1.392 . S
C136 H152 0.931 . S
C137 C136 1.392 . S
C137 C138 1.331 . S
C137 H155 0.932 . S
C138 C137 1.331 . S
C138 C139 1.336 . S
C139 C135 1.394 . S
C139 C138 1.336 . S
C139 H154 0.929 . S
C140 C130 1.386 . S
C140 C133 1.357 . S
C140 H153 0.928 . S
H141 C117 0.931 . S
H142 C119 0.930 . S
H143 C121 0.929 . S
H144 C122 0.931 . S
H145 C124 0.930 . S
H146 C128 0.931 . S
H147 C126 0.931 . S
H148 C130 0.931 . S
H149 C131 0.929 . S
H150 C132 0.930 . S
H151 C135 0.930 . S
H152 C136 0.931 . S
H153 C140 0.928 . S
H154 C139 0.929 . S
H155 C137 0.932 . S
C156 C157 1.386 . S
C156 C158 1.397 . S
C156 H180 0.931 . S
C157 C156 1.386 . S
C157 C161 1.397 . S
C158 C156 1.397 . S
C158 C159 1.384 . S
C158 H181 0.930 . S
C159 C158 1.384 . S
C159 C160 1.377 . S
C159 C162 1.481 . S
C160 C159 1.377 . S
C160 C161 1.389 . S
C160 H182 0.929 . S
C161 C157 1.397 . S
C161 C160 1.389 . S
C161 H183 0.931 . S
C162 C159 1.481 . S
C162 C163 1.387 . S
C162 C167 1.390 . S
C163 C162 1.387 . S
C163 C164 1.401 . S
C163 H184 0.930 . S
C164 C163 1.401 . S
C164 C165 1.376 . S
C164 C173 1.511 . S
C165 C164 1.376 . S
C165 C166 1.392 . S
C165 H186 0.931 . S
C166 C165 1.392 . S
C166 C167 1.361 . S
C166 C168 1.500 . S
C167 C162 1.390 . S
C167 C166 1.361 . S
C167 H185 0.931 . S
C168 C166 1.500 . S
C168 C169 1.371 . S
C168 C170 1.365 . S
C169 C168 1.371 . S
C169 C179 1.386 . S
C169 H187 0.931 . S
C170 C168 1.365 . S
C170 C171 1.409 . S
C170 H188 0.929 . S
C171 C170 1.409 . S
C171 C172 1.380 . S
C171 H189 0.930 . S
C172 C171 1.380 . S
C172 C179 1.357 . S
C173 C164 1.511 . S
C173 C174 1.341 . S
C173 C175 1.371 . S
C174 C173 1.341 . S
C174 C178 1.394 . S
C174 H190 0.930 . S
C175 C173 1.371 . S
C175 C176 1.392 . S
C175 H191 0.931 . S
C176 C175 1.392 . S
C176 C177 1.331 . S
C176 H194 0.932 . S
C177 C176 1.331 . S
C177 C178 1.336 . S
C178 C174 1.394 . S
C178 C177 1.336 . S
C178 H193 0.929 . S
C179 C169 1.386 . S
C179 C172 1.357 . S
C179 H192 0.928 . S
H180 C156 0.931 . S
H181 C158 0.930 . S
H182 C160 0.929 . S
H183 C161 0.931 . S
H184 C163 0.930 . S
H185 C167 0.931 . S
H186 C165 0.931 . S
H187 C169 0.931 . S
H188 C170 0.929 . S
H189 C171 0.930 . S
H190 C174 0.930 . S
H191 C175 0.931 . S
H192 C179 0.928 . S
H193 C178 0.929 . S
H194 C176 0.932 . S
C195 C196 1.386 . S
C195 C197 1.397 . S
C195 H219 0.931 . S
C196 C195 1.386 . S
C196 C200 1.397 . S
C197 C195 1.397 . S
C197 C198 1.384 . S
C197 H220 0.930 . S
C198 C197 1.384 . S
C198 C199 1.377 . S
C198 C201 1.481 . S
C199 C198 1.377 . S
C199 C200 1.389 . S
C199 H221 0.929 . S
C200 C196 1.397 . S
C200 C199 1.389 . S
C200 H222 0.931 . S
C201 C198 1.481 . S
C201 C202 1.387 . S
C201 C206 1.390 . S
C202 C201 1.387 . S
C202 C203 1.401 . S
C202 H223 0.930 . S
C203 C202 1.401 . S
C203 C204 1.376 . S
C203 C212 1.511 . S
C204 C203 1.376 . S
C204 C205 1.392 . S
C204 H225 0.931 . S
C205 C204 1.392 . S
C205 C206 1.361 . S
C205 C207 1.500 . S
C206 C201 1.390 . S
C206 C205 1.361 . S
C206 H224 0.931 . S
C207 C205 1.500 . S
C207 C208 1.371 . S
C207 C209 1.365 . S
C208 C207 1.371 . S
C208 C218 1.386 . S
C208 H226 0.931 . S
C209 C207 1.365 . S
C209 C210 1.409 . S
C209 H227 0.929 . S
C210 C209 1.409 . S
C210 C211 1.380 . S
C210 H228 0.930 . S
C211 C210 1.380 . S
C211 C218 1.357 . S
C212 C203 1.511 . S
C212 C213 1.341 . S
C212 C214 1.371 . S
C213 C212 1.341 . S
C213 C217 1.394 . S
C213 H229 0.930 . S
C214 C212 1.371 . S
C214 C215 1.392 . S
C214 H230 0.931 . S
C215 C214 1.392 . S
C215 C216 1.331 . S
C215 H233 0.932 . S
C216 C215 1.331 . S
C216 C217 1.336 . S
C217 C213 1.394 . S
C217 C216 1.336 . S
C217 H232 0.929 . S
C218 C208 1.386 . S
C218 C211 1.357 . S
C218 H231 0.928 . S
H219 C195 0.931 . S
H220 C197 0.930 . S
H221 C199 0.929 . S
H222 C200 0.931 . S
H223 C202 0.930 . S
H224 C206 0.931 . S
H225 C204 0.931 . S
H226 C208 0.931 . S
H227 C209 0.929 . S
H228 C210 0.930 . S
H229 C213 0.930 . S
H230 C214 0.931 . S
H231 C218 0.928 . S
H232 C217 0.929 . S
H233 C215 0.932 . S
C234 C235 1.386 . S
C234 C236 1.397 . S
C234 H258 0.931 . S
C235 C234 1.386 . S
C235 C239 1.397 . S
C236 C234 1.397 . S
C236 C237 1.384 . S
C236 H259 0.930 . S
C237 C236 1.384 . S
C237 C238 1.377 . S
C237 C240 1.481 . S
C238 C237 1.377 . S
C238 C239 1.389 . S
C238 H260 0.929 . S
C239 C235 1.397 . S
C239 C238 1.389 . S
C239 H261 0.931 . S
C240 C237 1.481 . S
C240 C241 1.387 . S
C240 C245 1.390 . S
C241 C240 1.387 . S
C241 C242 1.401 . S
C241 H262 0.930 . S
C242 C241 1.401 . S
C242 C243 1.376 . S
C242 C251 1.511 . S
C243 C242 1.376 . S
C243 C244 1.392 . S
C243 H264 0.931 . S
C244 C243 1.392 . S
C244 C245 1.361 . S
C244 C246 1.500 . S
C245 C240 1.390 . S
C245 C244 1.361 . S
C245 H263 0.931 . S
C246 C244 1.500 . S
C246 C247 1.371 . S
C246 C248 1.365 . S
C247 C246 1.371 . S
C247 C257 1.386 . S
C247 H265 0.931 . S
C248 C246 1.365 . S
C248 C249 1.409 . S
C248 H266 0.929 . S
C249 C248 1.409 . S
C249 C250 1.380 . S
C249 H267 0.930 . S
C250 C249 1.380 . S
C250 C257 1.357 . S
C251 C242 1.511 . S
C251 C252 1.341 . S
C251 C253 1.371 . S
C252 C251 1.341 . S
C252 C256 1.394 . S
C252 H268 0.930 . S
C253 C251 1.371 . S
C253 C254 1.392 . S
C253 H269 0.931 . S
C254 C253 1.392 . S
C254 C255 1.331 . S
C254 H272 0.932 . S
C255 C254 1.331 . S
C255 C256 1.336 . S
C256 C252 1.394 . S
C256 C255 1.336 . S
C256 H271 0.929 . S
C257 C247 1.386 . S
C257 C250 1.357 . S
C257 H270 0.928 . S
H258 C234 0.931 . S
H259 C236 0.930 . S
H260 C238 0.929 . S
H261 C239 0.931 . S
H262 C241 0.930 . S
H263 C245 0.931 . S
H264 C243 0.931 . S
H265 C247 0.931 . S
H266 C248 0.929 . S
H267 C249 0.930 . S
H268 C252 0.930 . S
H269 C253 0.931 . S
H270 C257 0.928 . S
H271 C256 0.929 . S
H272 C254 0.932 . S
C273 C274 1.386 . S
C273 C275 1.397 . S
C273 H297 0.931 . S
C274 C273 1.386 . S
C274 C278 1.397 . S
C275 C273 1.397 . S
C275 C276 1.384 . S
C275 H298 0.930 . S
C276 C275 1.384 . S
C276 C277 1.377 . S
C276 C279 1.481 . S
C277 C276 1.377 . S
C277 C278 1.389 . S
C277 H299 0.929 . S
C278 C274 1.397 . S
C278 C277 1.389 . S
C278 H300 0.931 . S
C279 C276 1.481 . S
C279 C280 1.387 . S
C279 C284 1.390 . S
C280 C279 1.387 . S
C280 C281 1.401 . S
C280 H301 0.930 . S
C281 C280 1.401 . S
C281 C282 1.376 . S
C281 C290 1.511 . S
C282 C281 1.376 . S
C282 C283 1.392 . S
C282 H303 0.931 . S
C283 C282 1.392 . S
C283 C284 1.361 . S
C283 C285 1.500 . S
C284 C279 1.390 . S
C284 C283 1.361 . S
C284 H302 0.931 . S
C285 C283 1.500 . S
C285 C286 1.371 . S
C285 C287 1.365 . S
C286 C285 1.371 . S
C286 C296 1.386 . S
C286 H304 0.931 . S
C287 C285 1.365 . S
C287 C288 1.409 . S
C287 H305 0.929 . S
C288 C287 1.409 . S
C288 C289 1.380 . S
C288 H306 0.930 . S
C289 C288 1.380 . S
C289 C296 1.357 . S
C290 C281 1.511 . S
C290 C291 1.341 . S
C290 C292 1.371 . S
C291 C290 1.341 . S
C291 C295 1.394 . S
C291 H307 0.930 . S
C292 C290 1.371 . S
C292 C293 1.392 . S
C292 H308 0.931 . S
C293 C292 1.392 . S
C293 C294 1.331 . S
C293 H311 0.932 . S
C294 C293 1.331 . S
C294 C295 1.336 . S
C295 C291 1.394 . S
C295 C294 1.336 . S
C295 H310 0.929 . S
C296 C286 1.386 . S
C296 C289 1.357 . S
C296 H309 0.928 . S
H297 C273 0.931 . S
H298 C275 0.930 . S
H299 C277 0.929 . S
H300 C278 0.931 . S
H301 C280 0.930 . S
H302 C284 0.931 . S
H303 C282 0.931 . S
H304 C286 0.931 . S
H305 C287 0.929 . S
H306 C288 0.930 . S
H307 C291 0.930 . S
H308 C292 0.931 . S
H309 C296 0.928 . S
H310 C295 0.929 . S
H311 C293 0.932 . S
Nd312 C314 2.836 . S
Nd312 O332 2.500 . S
Nd312 O333 2.492 . S
Nd312 O334 2.487 1_565 S
Nd312 O335 2.682 1_565 S
Nd312 O336 2.410 . S
Nd312 O341 2.414 1_455 S
Nd312 O343 2.424 1_565 S
Nd313 C323 2.836 . S
Nd313 O335 2.414 1_655 S
Nd313 O337 2.424 1_545 S
Nd313 O338 2.500 . S
Nd313 O339 2.492 . S
Nd313 O340 2.487 1_545 S
Nd313 O341 2.682 1_545 S
Nd313 O342 2.410 . S
C314 Nd312 2.836 . S
C314 C315 1.498 . S
C314 O332 1.258 . S
C314 O333 1.239 . S
C315 C314 1.498 . S
C315 C316 1.366 . S
C315 C320 1.407 . S
C316 C315 1.366 . S
C316 C317 1.392 . S
C316 H344 0.930 . S
C317 C316 1.392 . S
C317 C318 1.398 . S
C317 H345 0.929 . S
C318 C317 1.398 . S
C318 C319 1.352 . S
C319 C318 1.352 . S
C319 C320 1.384 . S
C319 H346 0.930 . S
C320 C315 1.407 . S
C320 C319 1.384 . S
C320 H347 0.929 . S
C321 O334 1.241 . S
C321 O335 1.273 . S
C322 O336 1.251 1_655 S
C322 O337 1.268 . S
C323 Nd313 2.836 . S
C323 C324 1.498 . S
C323 O338 1.258 . S
C323 O339 1.239 . S
C324 C323 1.498 . S
C324 C325 1.366 . S
C324 C329 1.407 . S
C325 C324 1.366 . S
C325 C326 1.392 . S
C325 H348 0.930 . S
C326 C325 1.392 . S
C326 C327 1.398 . S
C326 H349 0.929 . S
C327 C326 1.398 . S
C327 C328 1.352 . S
C328 C327 1.352 . S
C328 C329 1.384 . S
C328 H350 0.930 . S
C329 C324 1.407 . S
C329 C328 1.384 . S
C329 H351 0.929 . S
C330 O340 1.241 . S
C330 O341 1.273 . S
C331 O342 1.251 1_455 S
C331 O343 1.268 . S
O332 Nd312 2.500 . S
O332 C314 1.258 . S
O333 Nd312 2.492 . S
O333 C314 1.239 . S
O334 Nd312 2.487 1_545 S
O334 C321 1.241 . S
O335 Nd312 2.682 1_545 S
O335 Nd313 2.414 1_455 S
O335 C321 1.273 . S
O336 Nd312 2.410 . S
O336 C322 1.251 1_455 S
O337 Nd313 2.424 1_565 S
O337 C322 1.268 . S
O338 Nd313 2.500 . S
O338 C323 1.258 . S
O339 Nd313 2.492 . S
O339 C323 1.239 . S
O340 Nd313 2.487 1_565 S
O340 C330 1.241 . S
O341 Nd312 2.414 1_655 S
O341 Nd313 2.682 1_565 S
O341 C330 1.273 . S
O342 Nd313 2.410 . S
O342 C331 1.251 1_655 S
O343 Nd312 2.424 1_545 S
O343 C331 1.268 . S
H344 C316 0.930 . S
H345 C317 0.929 . S
H346 C319 0.930 . S
H347 C320 0.929 . S
H348 C325 0.930 . S
H349 C326 0.929 . S
H350 C328 0.930 . S
H351 C329 0.929 . S
Nd352 C354 2.836 . S
Nd352 O372 2.500 . S
Nd352 O373 2.492 . S
Nd352 O374 2.487 1_565 S
Nd352 O375 2.682 1_565 S
Nd352 O376 2.410 1_554 S
Nd352 O381 2.414 1_554 S
Nd352 O383 2.424 1_565 S
Nd353 C363 2.836 . S
Nd353 O375 2.414 1_556 S
Nd353 O377 2.424 1_545 S
Nd353 O378 2.500 . S
Nd353 O379 2.492 . S
Nd353 O380 2.487 1_545 S
Nd353 O381 2.682 1_545 S
Nd353 O382 2.410 1_556 S
C354 Nd352 2.836 . S
C354 C355 1.498 . S
C354 O372 1.258 . S
C354 O373 1.239 . S
C355 C354 1.498 . S
C355 C356 1.366 . S
C355 C360 1.407 . S
C356 C355 1.366 . S
C356 C357 1.392 . S
C356 H384 0.930 . S
C357 C356 1.392 . S
C357 C358 1.398 . S
C357 H385 0.929 . S
C358 C357 1.398 . S
C358 C359 1.352 . S
C359 C358 1.352 . S
C359 C360 1.384 . S
C359 H386 0.930 . S
C360 C355 1.407 . S
C360 C359 1.384 . S
C360 H387 0.929 . S
C361 O374 1.241 . S
C361 O375 1.273 . S
C362 O376 1.251 . S
C362 O377 1.268 . S
C363 Nd353 2.836 . S
C363 C364 1.498 . S
C363 O378 1.258 . S
C363 O379 1.239 . S
C364 C363 1.498 . S
C364 C365 1.366 . S
C364 C369 1.407 . S
C365 C364 1.366 . S
C365 C366 1.392 . S
C365 H388 0.930 . S
C366 C365 1.392 . S
C366 C367 1.398 . S
C366 H389 0.929 . S
C367 C366 1.398 . S
C367 C368 1.352 . S
C368 C367 1.352 . S
C368 C369 1.384 . S
C368 H390 0.930 . S
C369 C364 1.407 . S
C369 C368 1.384 . S
C369 H391 0.929 . S
C370 O380 1.241 . S
C370 O381 1.273 . S
C371 O382 1.251 . S
C371 O383 1.268 . S
O372 Nd352 2.500 . S
O372 C354 1.258 . S
O373 Nd352 2.492 . S
O373 C354 1.239 . S
O374 Nd352 2.487 1_545 S
O374 C361 1.241 . S
O375 Nd352 2.682 1_545 S
O375 Nd353 2.414 1_554 S
O375 C361 1.273 . S
O376 Nd352 2.410 1_556 S
O376 C362 1.251 . S
O377 Nd353 2.424 1_565 S
O377 C362 1.268 . S
O378 Nd353 2.500 . S
O378 C363 1.258 . S
O379 Nd353 2.492 . S
O379 C363 1.239 . S
O380 Nd353 2.487 1_565 S
O380 C370 1.241 . S
O381 Nd352 2.414 1_556 S
O381 Nd353 2.682 1_565 S
O381 C370 1.273 . S
O382 Nd353 2.410 1_554 S
O382 C371 1.251 . S
O383 Nd352 2.424 1_545 S
O383 C371 1.268 . S
H384 C356 0.930 . S
H385 C357 0.929 . S
H386 C359 0.930 . S
H387 C360 0.929 . S
H388 C365 0.930 . S
H389 C366 0.929 . S
H390 C368 0.930 . S
H391 C369 0.929 . S
Nd392 C394 2.836 . S
Nd392 O412 2.500 . S
Nd392 O413 2.492 . S
Nd392 O414 2.487 . S
Nd392 O415 2.682 . S
Nd392 O416 2.410 . S
Nd392 O421 2.414 . S
Nd392 O423 2.424 . S
Nd393 C403 2.836 . S
Nd393 O415 2.414 . S
Nd393 O417 2.424 . S
Nd393 O418 2.500 . S
Nd393 O419 2.492 . S
Nd393 O420 2.487 . S
Nd393 O421 2.682 . S
Nd393 O422 2.410 . S
C394 Nd392 2.836 . S
C394 C395 1.498 . S
C394 O412 1.258 . S
C394 O413 1.239 . S
C395 C394 1.498 . S
C395 C396 1.366 . S
C395 C400 1.407 . S
C396 C395 1.366 . S
C396 C397 1.392 . S
C396 H424 0.930 . S
C397 C396 1.392 . S
C397 C398 1.398 . S
C397 H425 0.929 . S
C398 C397 1.398 . S
C398 C399 1.352 . S
C399 C398 1.352 . S
C399 C400 1.384 . S
C399 H426 0.930 . S
C400 C395 1.407 . S
C400 C399 1.384 . S
C400 H427 0.929 . S
C401 O414 1.241 . S
C401 O415 1.273 . S
C402 O416 1.251 . S
C402 O417 1.268 . S
C403 Nd393 2.836 . S
C403 C404 1.498 . S
C403 O418 1.258 . S
C403 O419 1.239 . S
C404 C403 1.498 . S
C404 C405 1.366 . S
C404 C409 1.407 . S
C405 C404 1.366 . S
C405 C406 1.392 . S
C405 H428 0.930 . S
C406 C405 1.392 . S
C406 C407 1.398 . S
C406 H429 0.929 . S
C407 C406 1.398 . S
C407 C408 1.352 . S
C408 C407 1.352 . S
C408 C409 1.384 . S
C408 H430 0.930 . S
C409 C404 1.407 . S
C409 C408 1.384 . S
C409 H431 0.929 . S
C410 O420 1.241 . S
C410 O421 1.273 . S
C411 O422 1.251 . S
C411 O423 1.268 . S
O412 Nd392 2.500 . S
O412 C394 1.258 . S
O413 Nd392 2.492 . S
O413 C394 1.239 . S
O414 Nd392 2.487 . S
O414 C401 1.241 . S
O415 Nd392 2.682 . S
O415 Nd393 2.414 . S
O415 C401 1.273 . S
O416 Nd392 2.410 . S
O416 C402 1.251 . S
O417 Nd393 2.424 . S
O417 C402 1.268 . S
O418 Nd393 2.500 . S
O418 C403 1.258 . S
O419 Nd393 2.492 . S
O419 C403 1.239 . S
O420 Nd393 2.487 . S
O420 C410 1.241 . S
O421 Nd392 2.414 . S
O421 Nd393 2.682 . S
O421 C410 1.273 . S
O422 Nd393 2.410 . S
O422 C411 1.251 . S
O423 Nd392 2.424 . S
O423 C411 1.268 . S
H424 C396 0.930 . S
H425 C397 0.929 . S
H426 C399 0.930 . S
H427 C400 0.929 . S
H428 C405 0.930 . S
H429 C406 0.929 . S
H430 C408 0.930 . S
H431 C409 0.929 . S
Nd432 C434 2.836 . S
Nd432 O452 2.500 . S
Nd432 O453 2.492 . S
Nd432 O454 2.487 1_655 S
Nd432 O455 2.682 1_655 S
Nd432 O456 2.410 . S
Nd432 O461 2.414 1_554 S
Nd432 O463 2.424 1_655 S
Nd433 C443 2.836 . S
Nd433 O455 2.414 1_556 S
Nd433 O457 2.424 1_455 S
Nd433 O458 2.500 . S
Nd433 O459 2.492 . S
Nd433 O460 2.487 1_455 S
Nd433 O461 2.682 1_455 S
Nd433 O462 2.410 . S
C434 Nd432 2.836 . S
C434 C435 1.498 . S
C434 O452 1.258 . S
C434 O453 1.239 . S
C435 C434 1.498 . S
C435 C436 1.366 . S
C435 C440 1.407 . S
C436 C435 1.366 . S
C436 C437 1.392 . S
C436 H464 0.930 . S
C437 C436 1.392 . S
C437 C438 1.398 . S
C437 H465 0.929 . S
C438 C437 1.398 . S
C438 C439 1.352 . S
C439 C438 1.352 . S
C439 C440 1.384 . S
C439 H466 0.930 . S
C440 C435 1.407 . S
C440 C439 1.384 . S
C440 H467 0.929 . S
C441 O454 1.241 . S
C441 O455 1.273 . S
C442 O456 1.251 1_556 S
C442 O457 1.268 . S
C443 Nd433 2.836 . S
C443 C444 1.498 . S
C443 O458 1.258 . S
C443 O459 1.239 . S
C444 C443 1.498 . S
C444 C445 1.366 . S
C444 C449 1.407 . S
C445 C444 1.366 . S
C445 C446 1.392 . S
C445 H468 0.930 . S
C446 C445 1.392 . S
C446 C447 1.398 . S
C446 H469 0.929 . S
C447 C446 1.398 . S
C447 C448 1.352 . S
C448 C447 1.352 . S
C448 C449 1.384 . S
C448 H470 0.930 . S
C449 C444 1.407 . S
C449 C448 1.384 . S
C449 H471 0.929 . S
C450 O460 1.241 . S
C450 O461 1.273 . S
C451 O462 1.251 1_554 S
C451 O463 1.268 . S
O452 Nd432 2.500 . S
O452 C434 1.258 . S
O453 Nd432 2.492 . S
O453 C434 1.239 . S
O454 Nd432 2.487 1_455 S
O454 C441 1.241 . S
O455 Nd432 2.682 1_455 S
O455 Nd433 2.414 1_554 S
O455 C441 1.273 . S
O456 Nd432 2.410 . S
O456 C442 1.251 1_554 S
O457 Nd433 2.424 1_655 S
O457 C442 1.268 . S
O458 Nd433 2.500 . S
O458 C443 1.258 . S
O459 Nd433 2.492 . S
O459 C443 1.239 . S
O460 Nd433 2.487 1_655 S
O460 C450 1.241 . S
O461 Nd432 2.414 1_556 S
O461 Nd433 2.682 1_655 S
O461 C450 1.273 . S
O462 Nd433 2.410 . S
O462 C451 1.251 1_556 S
O463 Nd432 2.424 1_455 S
O463 C451 1.268 . S
H464 C436 0.930 . S
H465 C437 0.929 . S
H466 C439 0.930 . S
H467 C440 0.929 . S
H468 C445 0.930 . S
H469 C446 0.929 . S
H470 C448 0.930 . S
H471 C449 0.929 . S
C472 C473 1.387 . S
C472 H476 0.950 . S
C472 C481 1.390 . S
C473 C472 1.387 . S
C473 C475 1.387 . S
H474 C481 0.950 . S
C475 C473 1.387 . S
C475 C477 1.390 . S
C475 H479 0.950 . S
H476 C472 0.950 . S
C477 C475 1.390 . S
C477 C478 1.387 . S
C477 H480 0.950 . S
C478 C477 1.387 . S
C478 C481 1.387 . S
H479 C475 0.950 . S
H480 C477 0.950 . S
C481 C472 1.390 . S
C481 H474 0.950 . S
C481 C478 1.387 . S
C482 C483 1.387 . S
C482 H486 0.950 . S
C482 C491 1.390 . S
C483 C482 1.387 . S
C483 C485 1.387 . S
H484 C491 0.950 . S
C485 C483 1.387 . S
C485 C487 1.390 . S
C485 H489 0.950 . S
H486 C482 0.950 . S
C487 C485 1.390 . S
C487 C488 1.387 . S
C487 H490 0.950 . S
C488 C487 1.387 . S
C488 C491 1.387 . S
H489 C485 0.950 . S
H490 C487 0.950 . S
C491 C482 1.390 . S
C491 H484 0.950 . S
C491 C488 1.387 . S
C492 C493 1.387 . S
C492 H496 0.950 . S
C492 C501 1.390 . S
C493 C492 1.387 . S
C493 C495 1.387 . S
H494 C501 0.950 . S
C495 C493 1.387 . S
C495 C497 1.390 . S
C495 H499 0.950 . S
H496 C492 0.950 . S
C497 C495 1.390 . S
C497 C498 1.387 . S
C497 H500 0.950 . S
C498 C497 1.387 . S
C498 C501 1.387 . S
H499 C495 0.950 . S
H500 C497 0.950 . S
C501 C492 1.390 . S
C501 H494 0.950 . S
C501 C498 1.387 . S
C502 C503 1.387 . S
C502 H506 0.950 . S
C502 C511 1.390 . S
C503 C502 1.387 . S
C503 C505 1.387 . S
H504 C511 0.950 . S
C505 C503 1.387 . S
C505 C507 1.390 . S
C505 H509 0.950 . S
H506 C502 0.950 . S
C507 C505 1.390 . S
C507 C508 1.387 . S
C507 H510 0.950 . S
C508 C507 1.387 . S
C508 C511 1.387 . S
H509 C505 0.950 . S
H510 C507 0.950 . S
C511 C502 1.390 . S
C511 H504 0.950 . S
C511 C508 1.387 . S
C512 C513 1.387 . S
C512 H516 0.950 . S
C512 C521 1.390 . S
C513 C512 1.387 . S
C513 C515 1.387 . S
H514 C521 0.950 . S
C515 C513 1.387 . S
C515 C517 1.390 . S
C515 H519 0.949 1_554 S
H516 C512 0.950 . S
C517 C515 1.390 . S
C517 C518 1.387 . S
C517 H520 0.950 1_554 S
C518 C517 1.387 . S
C518 C521 1.387 . S
H519 C515 0.949 1_556 S
H520 C517 0.950 1_556 S
C521 C512 1.390 . S
C521 H514 0.950 . S
C521 C518 1.387 . S
C522 C523 1.387 . S
C522 H526 0.950 . S
C522 C531 1.390 . S
C523 C522 1.387 . S
C523 C525 1.387 . S
H524 C531 0.950 . S
C525 C523 1.387 . S
C525 C527 1.390 . S
C525 H529 0.950 . S
H526 C522 0.950 . S
C527 C525 1.390 . S
C527 C528 1.387 . S
C527 H530 0.950 . S
C528 C527 1.387 . S
C528 C531 1.387 . S
H529 C525 0.950 . S
H530 C527 0.950 . S
C531 C522 1.390 . S
C531 H524 0.950 . S
C531 C528 1.387 . S
C532 C533 1.387 . S
C532 H536 0.950 . S
C532 C541 1.390 . S
C533 C532 1.387 . S
C533 C535 1.387 . S
H534 C541 0.950 . S
C535 C533 1.387 . S
C535 C537 1.390 . S
C535 H539 0.950 . S
H536 C532 0.950 . S
C537 C535 1.390 . S
C537 C538 1.387 . S
C537 H540 0.950 . S
C538 C537 1.387 . S
C538 C541 1.387 . S
H539 C535 0.950 . S
H540 C537 0.950 . S
C541 C532 1.390 . S
C541 H534 0.950 . S
C541 C538 1.387 . S
C542 C543 1.387 . S
C542 H546 0.950 . S
C542 C551 1.390 . S
C543 C542 1.387 . S
C543 C545 1.387 . S
H544 C551 0.950 . S
C545 C543 1.387 . S
C545 C547 1.390 . S
C545 H549 0.950 . S
H546 C542 0.950 . S
C547 C545 1.390 . S
C547 C548 1.387 . S
C547 H550 0.950 . S
C548 C547 1.387 . S
C548 C551 1.387 . S
H549 C545 0.950 . S
H550 C547 0.950 . S
C551 C542 1.390 . S
C551 H544 0.950 . S
C551 C548 1.387 . S
C552 C553 1.387 . S
C552 H556 0.950 1_554 S
C552 C561 1.396 . S
C553 C552 1.387 . S
C553 C555 1.387 . S
H554 C561 0.921 1_556 S
C555 C553 1.387 . S
C555 C557 1.390 . S
C555 H559 0.950 . S
H556 C552 0.950 1_556 S
C557 C555 1.390 . S
C557 C558 1.387 . S
C557 H560 0.950 . S
C558 C557 1.387 . S
C558 C561 1.411 . S
H559 C555 0.950 . S
H560 C557 0.950 . S
C561 C552 1.396 . S
C561 H554 0.921 1_554 S
C561 C558 1.411 . S
C562 C563 1.387 . S
C562 H566 0.950 . S
C562 C571 1.390 . S
C563 C562 1.387 . S
C563 C565 1.387 . S
H564 C571 0.950 . S
C565 C563 1.387 . S
C565 C567 1.390 . S
C565 H569 0.950 . S
H566 C562 0.950 . S
C567 C565 1.390 . S
C567 C568 1.387 . S
C567 H570 0.950 . S
C568 C567 1.387 . S
C568 C571 1.387 . S
H569 C565 0.950 . S
H570 C567 0.950 . S
C571 C562 1.390 . S
C571 H564 0.950 . S
C571 C568 1.387 . S
C572 C573 1.387 . S
C572 H576 0.950 . S
C572 C581 1.390 . S
C573 C572 1.387 . S
C573 C575 1.387 . S
H574 C581 0.950 . S
C575 C573 1.387 . S
C575 C577 1.390 . S
C575 H579 0.950 . S
H576 C572 0.950 . S
C577 C575 1.390 . S
C577 C578 1.387 . S
C577 H580 0.950 . S
C578 C577 1.387 . S
C578 C581 1.387 . S
H579 C575 0.950 . S
H580 C577 0.950 . S
C581 C572 1.390 . S
C581 H574 0.950 . S
C581 C578 1.387 . S
C582 C583 1.387 . S
C582 H586 0.950 . S
C582 C591 1.390 . S
C583 C582 1.387 . S
C583 C585 1.387 . S
H584 C591 0.950 . S
C585 C583 1.387 . S
C585 C587 1.390 . S
C585 H589 0.950 . S
H586 C582 0.950 . S
C587 C585 1.390 . S
C587 C588 1.387 . S
C587 H590 0.950 . S
C588 C587 1.387 . S
C588 C591 1.387 . S
H589 C585 0.950 . S
H590 C587 0.950 . S
C591 C582 1.390 . S
C591 H584 0.950 . S
C591 C588 1.387 . S
C592 C593 1.387 . S
C592 H596 0.950 . S
C592 C601 1.390 . S
C593 C592 1.387 . S
C593 C595 1.387 . S
H594 C601 0.950 . S
C595 C593 1.387 . S
C595 C597 1.390 . S
C595 H599 0.950 . S
H596 C592 0.950 . S
C597 C595 1.390 . S
C597 C598 1.387 . S
C597 H600 0.950 . S
C598 C597 1.387 . S
C598 C601 1.387 . S
H599 C595 0.950 . S
H600 C597 0.950 . S
C601 C592 1.390 . S
C601 H594 0.950 . S
C601 C598 1.387 . S
C602 C603 1.387 . S
C602 H606 0.950 . S
C602 C611 1.390 . S
C603 C602 1.387 . S
C603 C605 1.387 . S
H604 C611 0.950 . S
C605 C603 1.387 . S
C605 C607 1.390 . S
C605 H609 0.950 . S
H606 C602 0.950 . S
C607 C605 1.390 . S
C607 C608 1.387 . S
C607 H610 0.950 . S
C608 C607 1.387 . S
C608 C611 1.387 . S
H609 C605 0.950 . S
H610 C607 0.950 . S
C611 C602 1.390 . S
C611 H604 0.950 . S
C611 C608 1.387 . S
C612 C613 1.387 . S
C612 H616 0.950 . S
C612 C621 1.390 . S
C613 C612 1.387 . S
C613 C615 1.387 . S
H614 C621 0.950 . S
C615 C613 1.387 . S
C615 C617 1.390 . S
C615 H619 0.950 . S
H616 C612 0.950 . S
C617 C615 1.390 . S
C617 C618 1.387 . S
C617 H620 0.950 . S
C618 C617 1.387 . S
C618 C621 1.387 . S
H619 C615 0.950 . S
H620 C617 0.950 . S
C621 C612 1.390 . S
C621 H614 0.950 . S
C621 C618 1.387 . S
C622 C623 1.387 . S
C622 H626 0.950 . S
C622 C631 1.390 . S
C623 C622 1.387 . S
C623 C625 1.387 . S
H624 C631 0.950 . S
C625 C623 1.387 . S
C625 C627 1.390 . S
C625 H629 0.950 . S
H626 C622 0.950 . S
C627 C625 1.390 . S
C627 C628 1.387 . S
C627 H630 0.950 . S
C628 C627 1.387 . S
C628 C631 1.387 . S
H629 C625 0.950 . S
H630 C627 0.950 . S
C631 C622 1.390 . S
C631 H624 0.950 . S
C631 C628 1.387 . S
C632 C633 1.387 . S
C632 H636 0.950 . S
C632 C641 1.390 . S
C633 C632 1.387 . S
C633 C635 1.387 . S
H634 C641 0.950 . S
C635 C633 1.387 . S
C635 C637 1.390 . S
C635 H639 0.950 . S
H636 C632 0.950 . S
C637 C635 1.390 . S
C637 C638 1.387 . S
C637 H640 0.950 1_556 S
C638 C637 1.387 . S
C638 C641 1.387 . S
H639 C635 0.950 . S
H640 C637 0.950 1_554 S
C641 C632 1.390 . S
C641 H634 0.950 . S
C641 C638 1.387 . S
C642 C643 1.387 . S
C642 H646 0.950 . S
C642 C651 1.390 . S
C643 C642 1.387 . S
C643 C645 1.387 . S
H644 C651 0.950 . S
C645 C643 1.387 . S
C645 C647 1.390 . S
C645 H649 0.950 . S
H646 C642 0.950 . S
C647 C645 1.390 . S
C647 C648 1.387 . S
C647 H650 0.950 . S
C648 C647 1.387 . S
C648 C651 1.387 . S
H649 C645 0.950 . S
H650 C647 0.950 . S
C651 C642 1.390 . S
C651 H644 0.950 . S
C651 C648 1.387 . S
C652 C653 1.387 . S
C652 H656 0.950 . S
C652 C661 1.390 . S
C653 C652 1.387 . S
C653 C655 1.387 . S
H654 C661 0.950 . S
C655 C653 1.387 . S
C655 C657 1.390 . S
C655 H659 0.950 . S
H656 C652 0.950 . S
C657 C655 1.390 . S
C657 C658 1.387 . S
C657 H660 0.950 . S
C658 C657 1.387 . S
C658 C661 1.387 . S
H659 C655 0.950 . S
H660 C657 0.950 . S
C661 C652 1.390 . S
C661 H654 0.950 . S
C661 C658 1.387 . S
C662 C663 1.387 . S
C662 H666 0.950 . S
C662 C671 1.390 . S
C663 C662 1.387 . S
C663 C665 1.387 . S
H664 C671 0.950 . S
C665 C663 1.387 . S
C665 C667 1.390 . S
C665 H669 0.950 . S
H666 C662 0.950 . S
C667 C665 1.390 . S
C667 C668 1.387 . S
C667 H670 0.950 . S
C668 C667 1.387 . S
C668 C671 1.387 . S
H669 C665 0.950 . S
H670 C667 0.950 . S
C671 C662 1.390 . S
C671 H664 0.950 . S
C671 C668 1.387 . S
C672 C673 1.387 . S
C672 H676 0.950 1_556 S
C672 C681 1.390 1_556 S
C673 C672 1.387 . S
C673 C675 1.387 . S
H674 C681 0.950 . S
C675 C673 1.387 . S
C675 C677 1.390 . S
C675 H679 0.950 . S
H676 C672 0.950 1_554 S
C677 C675 1.390 . S
C677 C678 1.387 . S
C677 H680 0.950 . S
C678 C677 1.387 . S
C678 C681 1.387 1_556 S
H679 C675 0.950 . S
H680 C677 0.950 . S
C681 C672 1.390 1_554 S
C681 H674 0.950 . S
C681 C678 1.387 1_554 S
C682 C683 1.387 . S
C682 H686 0.950 . S
C682 C691 1.390 . S
C683 C682 1.387 . S
C683 C685 1.387 . S
H684 C691 0.950 . S
C685 C683 1.387 . S
C685 C687 1.390 . S
C685 H689 0.950 . S
H686 C682 0.950 . S
C687 C685 1.390 . S
C687 C688 1.387 . S
C687 H690 0.950 . S
C688 C687 1.387 . S
C688 C691 1.387 . S
H689 C685 0.950 . S
H690 C687 0.950 . S
C691 C682 1.390 . S
C691 H684 0.950 . S
C691 C688 1.387 . S
C692 C693 1.387 . S
C692 H696 0.950 . S
C692 C701 1.390 . S
C693 C692 1.387 . S
C693 C695 1.387 . S
H694 C701 0.950 . S
C695 C693 1.387 . S
C695 C697 1.390 . S
C695 H699 0.950 . S
H696 C692 0.950 . S
C697 C695 1.390 . S
C697 C698 1.387 . S
C697 H700 0.950 . S
C698 C697 1.387 . S
C698 C701 1.387 . S
H699 C695 0.950 . S
H700 C697 0.950 . S
C701 C692 1.390 . S
C701 H694 0.950 . S
C701 C698 1.387 . S
C702 C703 1.387 . S
C702 H706 0.950 . S
C702 C711 1.390 . S
C703 C702 1.387 . S
C703 C705 1.387 . S
H704 C711 0.950 . S
C705 C703 1.387 . S
C705 C707 1.390 . S
C705 H709 0.950 . S
H706 C702 0.950 . S
C707 C705 1.390 . S
C707 C708 1.387 . S
C707 H710 0.950 . S
C708 C707 1.387 . S
C708 C711 1.387 . S
H709 C705 0.950 . S
H710 C707 0.950 . S
C711 C702 1.390 . S
C711 H704 0.950 . S
C711 C708 1.387 . S
C473 C1 2.884 . S
C478 C331 2.856 . S
C483 C40 2.486 . S
C488 C362 2.649 . S
C498 C401 1.512 . S
C493 C99 1.507 . S
C503 C118 0.723 . S
C508 C438 0.724 . S
C518 C361 2.794 . S
C513 C16 2.882 . S
C528 C318 1.469 . S
C523 C60 1.437 . S
C538 C450 1.554 . S
C533 C79 1.602 . S
C548 C407 1.312 . S
C543 C138 1.350 . S
C553 C21 2.315 . S
C558 C451 2.320 . S
C568 C367 1.340 . S
C563 C94 1.340 . S
C573 C133 0.606 . S
C578 C330 0.666 . S
C583 C55 2.484 . S
C588 C402 2.555 . S
C598 C322 2.861 . S
C593 C157 2.887 . S
C603 C196 2.469 . S
C608 C371 2.647 . S
C613 C255 1.493 . S
C618 C410 1.510 . S
C623 C289 0.720 . S
C628 C447 0.721 . S
C633 C172 2.883 . S
C638 C370 2.793 . S
C648 C327 1.469 . S
C643 C216 1.425 . S
C658 C441 1.556 . S
C653 C235 1.599 . S
C668 C398 1.314 . S
C663 C294 1.335 . S
C673 C177 2.312 . S
C678 C442 2.320 . S
C688 C358 1.341 . S
C683 C250 1.342 . S
C698 C321 0.665 . S
C693 C274 0.603 . S
C703 C211 2.488 . S
C708 C411 2.551 . S
