# Generated by pormake.
# Topology pto, (3,4)-cn, num edge types: 1
# Building blocks:
#     Node 0, Type 0, BuildingBlock: KAKCAD_clean_linker_0, # of connection points: 3
#     Node 1, Type 0, BuildingBlock: KAKCAD_clean_linker_0, # of connection points: 3
#     Node 2, Type 0, BuildingBlock: KAKCAD_clean_linker_0, # of connection points: 3
#     Node 3, Type 0, BuildingBlock: KAKCAD_clean_linker_0, # of connection points: 3
#     Node 4, Type 0, BuildingBlock: KAKCAD_clean_linker_0, # of connection points: 3
#     Node 5, Type 0, BuildingBlock: KAKCAD_clean_linker_0, # of connection points: 3
#     Node 6, Type 0, BuildingBlock: KAKCAD_clean_linker_0, # of connection points: 3
#     Node 7, Type 0, BuildingBlock: KAKCAD_clean_linker_0, # of connection points: 3
#     Node 8, Type 1, BuildingBlock: KOZSID_clean_sbu_0, # of connection points: 4
#     Node 9, Type 1, BuildingBlock: KOZSID_clean_sbu_0, # of connection points: 4
#     Node 10, Type 1, BuildingBlock: KOZSID_clean_sbu_0, # of connection points: 4
#     Node 11, Type 1, BuildingBlock: KOZSID_clean_sbu_0, # of connection points: 4
#     Node 12, Type 1, BuildingBlock: KOZSID_clean_sbu_0, # of connection points: 4
#     Node 13, Type 1, BuildingBlock: KOZSID_clean_sbu_0, # of connection points: 4
#     Edge 14, Type (0, 1), BuildingBlock: EZIPEK_clean_linker_0, # of connection points: 2
#     Edge 15, Type (0, 1), BuildingBlock: EZIPEK_clean_linker_0, # of connection points: 2
#     Edge 16, Type (0, 1), BuildingBlock: EZIPEK_clean_linker_0, # of connection points: 2
#     Edge 17, Type (0, 1), BuildingBlock: EZIPEK_clean_linker_0, # of connection points: 2
#     Edge 18, Type (0, 1), BuildingBlock: EZIPEK_clean_linker_0, # of connection points: 2
#     Edge 19, Type (0, 1), BuildingBlock: EZIPEK_clean_linker_0, # of connection points: 2
#     Edge 20, Type (0, 1), BuildingBlock: EZIPEK_clean_linker_0, # of connection points: 2
#     Edge 21, Type (0, 1), BuildingBlock: EZIPEK_clean_linker_0, # of connection points: 2
#     Edge 22, Type (0, 1), BuildingBlock: EZIPEK_clean_linker_0, # of connection points: 2
#     Edge 23, Type (0, 1), BuildingBlock: EZIPEK_clean_linker_0, # of connection points: 2
#     Edge 24, Type (0, 1), BuildingBlock: EZIPEK_clean_linker_0, # of connection points: 2
#     Edge 25, Type (0, 1), BuildingBlock: EZIPEK_clean_linker_0, # of connection points: 2
#     Edge 26, Type (0, 1), BuildingBlock: EZIPEK_clean_linker_0, # of connection points: 2
#     Edge 27, Type (0, 1), BuildingBlock: EZIPEK_clean_linker_0, # of connection points: 2
#     Edge 28, Type (0, 1), BuildingBlock: EZIPEK_clean_linker_0, # of connection points: 2
#     Edge 29, Type (0, 1), BuildingBlock: EZIPEK_clean_linker_0, # of connection points: 2
#     Edge 30, Type (0, 1), BuildingBlock: EZIPEK_clean_linker_0, # of connection points: 2
#     Edge 31, Type (0, 1), BuildingBlock: EZIPEK_clean_linker_0, # of connection points: 2
#     Edge 32, Type (0, 1), BuildingBlock: EZIPEK_clean_linker_0, # of connection points: 2
#     Edge 33, Type (0, 1), BuildingBlock: EZIPEK_clean_linker_0, # of connection points: 2
#     Edge 34, Type (0, 1), BuildingBlock: EZIPEK_clean_linker_0, # of connection points: 2
#     Edge 35, Type (0, 1), BuildingBlock: EZIPEK_clean_linker_0, # of connection points: 2
#     Edge 36, Type (0, 1), BuildingBlock: EZIPEK_clean_linker_0, # of connection points: 2
#     Edge 37, Type (0, 1), BuildingBlock: EZIPEK_clean_linker_0, # of connection points: 2
# Relax obj value: 0.000
# Max RMSD: 0.029
# Mean RMSD: 0.012
data_MOF--net-pto--node1-KOZSID_clean_sbu_0--node2-KAKCAD_clean_linker_0--edge1-EZIPEK_clean_linker_0
_symmetry_space_group_name_H-M    P1
_symmetry_Int_Tables_number       1
_symmetry_cell_setting            triclinic
loop_
_symmetry_equiv_pos_as_xyz
'x, y, z'
_cell_length_a     37.293655
_cell_length_b     50.159428
_cell_length_c     43.787582
_cell_angle_alpha  87.498165
_cell_angle_beta   87.515821
_cell_angle_gamma 93.58613
loop_
_atom_site_label
_atom_site_type_symbol
_atom_site_fract_x
_atom_site_fract_y
_atom_site_fract_z
_atom_type_partial_charge
C0 C 0.2924 0.17292 0.37883 0.0
C1 C 0.25913 0.16412 0.39308 0.0
C2 C 0.29534 0.19576 0.35916 0.0
C3 C 0.26496 0.21017 0.35321 0.0
C4 C 0.23168 0.2013 0.36782 0.0
C5 C 0.22883 0.17851 0.38762 0.0
C6 C 0.26783 0.23399 0.33139 0.0
C7 C 0.28955 0.23401 0.3043 0.0
C8 C 0.29231 0.25619 0.2834 0.0
C9 C 0.27253 0.27843 0.28961 0.0
C10 C 0.25067 0.27902 0.31659 0.0
C11 C 0.24875 0.2567 0.33741 0.0
C12 C 0.22958 0.3028 0.32264 0.0
C13 C 0.24347 0.32879 0.31325 0.0
C14 C 0.19498 0.29971 0.33713 0.0
C15 C 0.17475 0.3219 0.34169 0.0
C16 C 0.18838 0.34761 0.33143 0.0
C17 C 0.31593 0.2562 0.25509 0.0
C18 C 0.33803 0.27908 0.2455 0.0
C19 C 0.31679 0.23336 0.23756 0.0
C20 C 0.33921 0.23342 0.21108 0.0
C21 C 0.36121 0.25627 0.20173 0.0
C22 C 0.3605 0.27909 0.21908 0.0
C23 C 0.22298 0.35088 0.31736 0.0
H24 H 0.31609 0.16208 0.38295 0.0
H25 H 0.32149 0.20222 0.34876 0.0
H26 H 0.20766 0.21165 0.3635 0.0
H27 H 0.20293 0.17192 0.39843 0.0
H28 H 0.3044 0.21669 0.29941 0.0
H29 H 0.23294 0.25716 0.35869 0.0
H30 H 0.27351 0.29504 0.27288 0.0
H31 H 0.27024 0.33215 0.30266 0.0
H32 H 0.18306 0.28008 0.34431 0.0
H33 H 0.14807 0.31896 0.35258 0.0
H34 H 0.33833 0.29687 0.25867 0.0
H35 H 0.29983 0.21554 0.24411 0.0
H36 H 0.23405 0.37057 0.30942 0.0
H37 H 0.37741 0.29686 0.21218 0.0
H38 H 0.33942 0.21567 0.19786 0.0
C39 C 0.32622 0.8005 0.83037 0.0
C40 C 0.34919 0.78056 0.83857 0.0
C41 C 0.30608 0.79825 0.80428 0.0
C42 C 0.30845 0.77593 0.78605 0.0
C43 C 0.33166 0.75605 0.79439 0.0
C44 C 0.35192 0.75839 0.82038 0.0
C45 C 0.28622 0.77314 0.75883 0.0
C46 C 0.28267 0.79511 0.73843 0.0
C47 C 0.26078 0.79286 0.7132 0.0
C48 C 0.2422 0.76817 0.70851 0.0
C49 C 0.24554 0.74587 0.72865 0.0
C50 C 0.26781 0.74859 0.7536 0.0
C51 C 0.22496 0.71994 0.72446 0.0
C52 C 0.20788 0.70547 0.74988 0.0
C53 C 0.22197 0.70949 0.69528 0.0
C54 C 0.20209 0.68526 0.69163 0.0
C55 C 0.18484 0.67116 0.7171 0.0
C56 C 0.25689 0.81662 0.69233 0.0
C57 C 0.22269 0.82391 0.68401 0.0
C58 C 0.28738 0.83285 0.68163 0.0
C59 C 0.28374 0.85604 0.66341 0.0
C60 C 0.24955 0.86357 0.65577 0.0
C61 C 0.21904 0.8473 0.66603 0.0
C62 C 0.18801 0.68138 0.74621 0.0
H63 H 0.32382 0.81772 0.84423 0.0
H64 H 0.28814 0.81373 0.79868 0.0
H65 H 0.33434 0.73877 0.78067 0.0
H66 H 0.36964 0.74287 0.82641 0.0
H67 H 0.29677 0.81412 0.74235 0.0
H68 H 0.27044 0.73159 0.7693 0.0
H69 H 0.2249 0.76641 0.68935 0.0
H70 H 0.20912 0.7131 0.7726 0.0
H71 H 0.23504 0.72002 0.67529 0.0
H72 H 0.19959 0.67776 0.66895 0.0
H73 H 0.19871 0.81195 0.69215 0.0
H74 H 0.31408 0.82763 0.68745 0.0
H75 H 0.17444 0.67093 0.76605 0.0
H76 H 0.19245 0.85289 0.66039 0.0
H77 H 0.30756 0.86838 0.65566 0.0
C78 C 0.68771 0.7507 0.23324 0.0
C79 C 0.68848 0.77363 0.21367 0.0
C80 C 0.71031 0.74977 0.25789 0.0
C81 C 0.73394 0.77183 0.26348 0.0
C82 C 0.73451 0.7948 0.24376 0.0
C83 C 0.71202 0.79565 0.21903 0.0
C84 C 0.75788 0.77089 0.28979 0.0
C85 C 0.77618 0.74783 0.29664 0.0
C86 C 0.79907 0.74696 0.32122 0.0
C87 C 0.80307 0.76906 0.33963 0.0
C88 C 0.78472 0.79214 0.3333 0.0
C89 C 0.76256 0.79305 0.30818 0.0
C90 C 0.78806 0.8152 0.3532 0.0
C91 C 0.77782 0.81206 0.38445 0.0
C92 C 0.80045 0.8406 0.3409 0.0
C93 C 0.80268 0.86252 0.35959 0.0
C94 C 0.79164 0.85952 0.39072 0.0
C95 C 0.81975 0.72322 0.32687 0.0
C96 C 0.80242 0.69905 0.33857 0.0
C97 C 0.85681 0.72443 0.31947 0.0
C98 C 0.8762 0.70161 0.32314 0.0
C99 C 0.85894 0.67735 0.3348 0.0
C100 C 0.82196 0.67635 0.34287 0.0
C101 C 0.77919 0.8341 0.40298 0.0
H102 H 0.6696 0.73356 0.22942 0.0
H103 H 0.70893 0.73191 0.27283 0.0
H104 H 0.75267 0.81199 0.24723 0.0
H105 H 0.71295 0.81348 0.20407 0.0
H106 H 0.77349 0.73078 0.28233 0.0
H107 H 0.74813 0.81078 0.30355 0.0
H108 H 0.8206 0.76836 0.35873 0.0
H109 H 0.76798 0.79266 0.39435 0.0
H110 H 0.80853 0.84343 0.31685 0.0
H111 H 0.81247 0.88193 0.3497 0.0
H112 H 0.7738 0.69778 0.34434 0.0
H113 H 0.87057 0.7429 0.31026 0.0
H114 H 0.77048 0.83136 0.4269 0.0
H115 H 0.80818 0.65786 0.352 0.0
H116 H 0.90467 0.70281 0.31677 0.0
C117 C 0.82322 0.19785 0.6944 0.0
C118 C 0.79153 0.18437 0.68555 0.0
C119 C 0.82153 0.2197 0.71312 0.0
C120 C 0.78809 0.22831 0.72345 0.0
C121 C 0.75642 0.21463 0.71452 0.0
C122 C 0.75814 0.1929 0.69567 0.0
C123 C 0.78618 0.25143 0.74352 0.0
C124 C 0.80835 0.27491 0.73704 0.0
C125 C 0.80634 0.29699 0.75568 0.0
C126 C 0.78183 0.29521 0.78116 0.0
C127 C 0.75966 0.27184 0.78819 0.0
C128 C 0.76199 0.2501 0.76916 0.0
C129 C 0.73424 0.27012 0.8155 0.0
C130 C 0.73046 0.24681 0.83477 0.0
C131 C 0.71382 0.29187 0.82272 0.0
C132 C 0.69038 0.29038 0.84865 0.0
C133 C 0.68694 0.26715 0.86783 0.0
C134 C 0.82956 0.32198 0.74852 0.0
C135 C 0.83594 0.33203 0.71809 0.0
C136 C 0.84501 0.3363 0.77216 0.0
C137 C 0.86575 0.36023 0.76559 0.0
C138 C 0.87164 0.37023 0.73529 0.0
C139 C 0.85685 0.35592 0.71154 0.0
C140 C 0.70704 0.24536 0.86071 0.0
H141 H 0.8492 0.19147 0.68677 0.0
H142 H 0.84638 0.22964 0.71984 0.0
H143 H 0.73027 0.22095 0.7218 0.0
H144 H 0.73344 0.18273 0.68893 0.0
H145 H 0.82714 0.276 0.71738 0.0
H146 H 0.7449 0.23205 0.77433 0.0
H147 H 0.77999 0.31209 0.79564 0.0
H148 H 0.74607 0.22983 0.83009 0.0
H149 H 0.71574 0.30998 0.80818 0.0
H150 H 0.67497 0.30736 0.85381 0.0
H151 H 0.82413 0.32175 0.69935 0.0
H152 H 0.8412 0.32898 0.79578 0.0
H153 H 0.70473 0.2273 0.87536 0.0
H154 H 0.86107 0.36346 0.68802 0.0
H155 H 0.87711 0.37102 0.78417 0.0
C156 C 0.74842 0.86314 0.67967 0.0
C157 C 0.78319 0.8739 0.67117 0.0
C158 C 0.74343 0.8402 0.69907 0.0
C159 C 0.77317 0.8275 0.71015 0.0
C160 C 0.80803 0.83814 0.70119 0.0
C161 C 0.813 0.86125 0.68197 0.0
C162 C 0.76762 0.80352 0.73145 0.0
C163 C 0.78746 0.78091 0.72717 0.0
C164 C 0.7816 0.7579 0.74688 0.0
C165 C 0.75569 0.7581 0.77123 0.0
C166 C 0.73654 0.78082 0.77649 0.0
C167 C 0.74242 0.80333 0.75627 0.0
C168 C 0.71143 0.78127 0.8038 0.0
C169 C 0.6885 0.7587 0.81294 0.0
C170 C 0.71139 0.80388 0.82174 0.0
C171 C 0.68943 0.80374 0.84846 0.0
C172 C 0.66718 0.781 0.85772 0.0
C173 C 0.80261 0.73377 0.74246 0.0
C174 C 0.8139 0.72654 0.71299 0.0
C175 C 0.81141 0.71758 0.76784 0.0
C176 C 0.83025 0.69469 0.76386 0.0
C177 C 0.84188 0.68784 0.73452 0.0
C178 C 0.83369 0.70401 0.70911 0.0
C179 C 0.66663 0.75857 0.8397 0.0
H180 H 0.72515 0.87268 0.6715 0.0
H181 H 0.71627 0.83232 0.7053 0.0
H182 H 0.83144 0.82893 0.70957 0.0
H183 H 0.84002 0.86938 0.67565 0.0
H184 H 0.80746 0.78134 0.70845 0.0
H185 H 0.72749 0.82085 0.75998 0.0
H186 H 0.75062 0.74062 0.78654 0.0
H187 H 0.68753 0.74111 0.79945 0.0
H188 H 0.72905 0.82143 0.81559 0.0
H189 H 0.69016 0.82121 0.86217 0.0
H190 H 0.80721 0.73807 0.69279 0.0
H191 H 0.80426 0.72267 0.79098 0.0
H192 H 0.64946 0.7409 0.84651 0.0
H193 H 0.84247 0.69908 0.68625 0.0
H194 H 0.83648 0.68259 0.78381 0.0
C195 C 0.68521 0.24611 0.24828 0.0
C196 C 0.69607 0.25926 0.22016 0.0
C197 C 0.7079 0.24691 0.27288 0.0
C198 C 0.74206 0.26066 0.26971 0.0
C199 C 0.75288 0.27355 0.24129 0.0
C200 C 0.73003 0.27298 0.21684 0.0
C201 C 0.76627 0.26169 0.29592 0.0
C202 C 0.76831 0.23933 0.3161 0.0
C203 C 0.79101 0.24017 0.34093 0.0
C204 C 0.81257 0.26371 0.34501 0.0
C205 C 0.81122 0.28625 0.32488 0.0
C206 C 0.78757 0.28509 0.30075 0.0
C207 C 0.83435 0.31112 0.32871 0.0
C208 C 0.8402 0.32076 0.35793 0.0
C209 C 0.85018 0.32579 0.30287 0.0
C210 C 0.87063 0.34971 0.3061 0.0
C211 C 0.87594 0.35936 0.33519 0.0
C212 C 0.79213 0.21631 0.36232 0.0
C213 C 0.76026 0.20093 0.37146 0.0
C214 C 0.82493 0.2084 0.37337 0.0
C215 C 0.82583 0.18555 0.3928 0.0
C216 C 0.79399 0.1702 0.40144 0.0
C217 C 0.76122 0.17807 0.39076 0.0
C218 C 0.8609 0.34467 0.36114 0.0
H219 H 0.65903 0.23545 0.25124 0.0
H220 H 0.69843 0.23707 0.2945 0.0
H221 H 0.7792 0.28391 0.23778 0.0
H222 H 0.73889 0.28315 0.19524 0.0
H223 H 0.75279 0.22094 0.31204 0.0
H224 H 0.78524 0.30273 0.28597 0.0
H225 H 0.83043 0.26447 0.36386 0.0
H226 H 0.82815 0.31016 0.37828 0.0
H227 H 0.84686 0.31874 0.28008 0.0
H228 H 0.88228 0.36075 0.28587 0.0
H229 H 0.73448 0.20664 0.36381 0.0
H230 H 0.85001 0.21956 0.36655 0.0
H231 H 0.86479 0.35192 0.38378 0.0
H232 H 0.73639 0.16649 0.39737 0.0
H233 H 0.85137 0.17967 0.40085 0.0
C234 C 0.32031 0.28097 0.84996 0.0
C235 C 0.3527 0.26831 0.84724 0.0
C236 C 0.29767 0.28215 0.8254 0.0
C237 C 0.30716 0.27098 0.79744 0.0
C238 C 0.33989 0.25851 0.7948 0.0
C239 C 0.36233 0.25706 0.81952 0.0
C240 C 0.28273 0.27207 0.77139 0.0
C241 C 0.26322 0.29469 0.76572 0.0
C242 C 0.23848 0.29549 0.74236 0.0
C243 C 0.23459 0.27343 0.7236 0.0
C244 C 0.2548 0.25091 0.72822 0.0
C245 C 0.27831 0.25032 0.75246 0.0
C246 C 0.25152 0.22778 0.70803 0.0
C247 C 0.21775 0.21786 0.69874 0.0
C248 C 0.28238 0.21502 0.69844 0.0
C249 C 0.27953 0.19271 0.68045 0.0
C250 C 0.24581 0.18272 0.6716 0.0
C251 C 0.21667 0.31931 0.73807 0.0
C252 C 0.20495 0.33322 0.76357 0.0
C253 C 0.20756 0.32855 0.70872 0.0
C254 C 0.18737 0.35103 0.70506 0.0
C255 C 0.17643 0.36497 0.7306 0.0
C256 C 0.18542 0.35592 0.75983 0.0
C257 C 0.21493 0.1955 0.68069 0.0
H258 H 0.31241 0.28968 0.87124 0.0
H259 H 0.27244 0.29148 0.82853 0.0
H260 H 0.34838 0.25004 0.77355 0.0
H261 H 0.38729 0.24726 0.81702 0.0
H262 H 0.26773 0.31196 0.77939 0.0
H263 H 0.29253 0.2325 0.75707 0.0
H264 H 0.21584 0.27372 0.70541 0.0
H265 H 0.19344 0.22702 0.70595 0.0
H266 H 0.30885 0.22235 0.70477 0.0
H267 H 0.30364 0.18315 0.6735 0.0
H268 H 0.21051 0.32646 0.7866 0.0
H269 H 0.2164 0.31868 0.68849 0.0
H270 H 0.18868 0.18798 0.67406 0.0
H271 H 0.17686 0.36626 0.77983 0.0
H272 H 0.18058 0.35773 0.6823 0.0
C273 C 0.23934 0.85737 0.3515 0.0
C274 C 0.24809 0.8546 0.38232 0.0
C275 C 0.24109 0.83574 0.33249 0.0
C276 C 0.25082 0.8108 0.34415 0.0
C277 C 0.25876 0.80786 0.37514 0.0
C278 C 0.25778 0.82965 0.39399 0.0
C279 C 0.25385 0.78808 0.32385 0.0
C280 C 0.27579 0.79113 0.29687 0.0
C281 C 0.28028 0.76947 0.27801 0.0
C282 C 0.26174 0.74474 0.28635 0.0
C283 C 0.23842 0.74158 0.31258 0.0
C284 C 0.23517 0.76333 0.33152 0.0
C285 C 0.217 0.7157 0.31952 0.0
C286 C 0.20286 0.70103 0.29557 0.0
C287 C 0.21026 0.70548 0.34985 0.0
C288 C 0.18996 0.68123 0.35599 0.0
C289 C 0.17639 0.66667 0.33192 0.0
C290 C 0.30438 0.77245 0.24974 0.0
C291 C 0.33648 0.78892 0.24879 0.0
C292 C 0.29573 0.75847 0.22353 0.0
C293 C 0.31887 0.76041 0.19745 0.0
C294 C 0.35083 0.77676 0.19671 0.0
C295 C 0.35928 0.79122 0.22245 0.0
C296 C 0.18298 0.67672 0.30172 0.0
H297 H 0.23168 0.87642 0.3421 0.0
H298 H 0.23471 0.83843 0.3087 0.0
H299 H 0.26656 0.78887 0.38458 0.0
H300 H 0.26469 0.82711 0.41767 0.0
H301 H 0.28952 0.81042 0.29078 0.0
H302 H 0.21732 0.76138 0.3518 0.0
H303 H 0.26592 0.72767 0.27264 0.0
H304 H 0.20672 0.70847 0.272 0.0
H305 H 0.22098 0.71603 0.36884 0.0
H306 H 0.18503 0.67372 0.37947 0.0
H307 H 0.34443 0.79967 0.26856 0.0
H308 H 0.27095 0.74608 0.22301 0.0
H309 H 0.17238 0.66583 0.2829 0.0
H310 H 0.38386 0.80395 0.22229 0.0
H311 H 0.31179 0.7492 0.17774 0.0
C312 C 0.07828 0.55196 0.37155 0.0
C313 C 0.08946 0.55951 0.39989 0.0
C314 C 0.06969 0.54356 0.42128 0.0
C315 C 0.04768 0.52726 0.40483 0.0
N316 N 0.05254 0.53156 0.37418 0.0
Co317 Co 0.02524 0.51322 0.34175 0.0
N318 N 0.99382 0.49148 0.37329 0.0
C319 C 0.99483 0.4925 0.40408 0.0
C320 C 0.97062 0.47466 0.41975 0.0
C321 C 0.95349 0.4611 0.39768 0.0
C322 C 0.96837 0.47151 0.36976 0.0
N323 N 0.99801 0.49482 0.30931 0.0
C324 C 0.97268 0.47414 0.31195 0.0
C325 C 0.96181 0.46637 0.28359 0.0
C326 C 0.98132 0.48248 0.2622 0.0
C327 C 0.00292 0.49908 0.27864 0.0
N328 N 0.05659 0.53501 0.31019 0.0
C329 C 0.05548 0.53409 0.27939 0.0
C330 C 0.0794 0.55213 0.26372 0.0
C331 C 0.09646 0.56572 0.28579 0.0
C332 C 0.08185 0.55511 0.31373 0.0
N333 N 0.05971 0.48445 0.34143 0.0
C334 C 0.10341 0.44059 0.3401 0.0
C335 C 0.09679 0.4551 0.31328 0.0
C336 C 0.07479 0.47659 0.31442 0.0
C337 C 0.08885 0.44884 0.36776 0.0
C338 C 0.06769 0.47093 0.36795 0.0
N339 N 0.99069 0.54195 0.342 0.0
C340 C 0.9605 0.5766 0.31503 0.0
C341 C 0.94503 0.58474 0.34237 0.0
C342 C 0.95205 0.57076 0.3695 0.0
C343 C 0.97522 0.54987 0.36885 0.0
C344 C 0.98253 0.55508 0.31531 0.0
H345 H 0.98049 0.54065 0.3904 0.0
H346 H 0.99287 0.54962 0.29362 0.0
H347 H 0.06989 0.48619 0.29303 0.0
H348 H 0.05763 0.47641 0.38976 0.0
C349 C 0.02047 0.50919 0.41749 0.0
C350 C 0.0915 0.56576 0.3429 0.0
C351 C 0.95926 0.46051 0.34065 0.0
C352 C 0.02997 0.51728 0.26595 0.0
H353 H 0.10921 0.57537 0.40458 0.0
H354 H 0.07043 0.54434 0.44591 0.0
H355 H 0.96673 0.47131 0.44429 0.0
H356 H 0.93311 0.44483 0.40165 0.0
H357 H 0.94239 0.4503 0.27886 0.0
H358 H 0.98073 0.48159 0.23757 0.0
H359 H 0.08317 0.55557 0.23918 0.0
H360 H 0.11671 0.58207 0.28179 0.0
H361 H 0.10779 0.44939 0.29139 0.0
H362 H 0.09363 0.43818 0.3891 0.0
H363 H 0.95546 0.58678 0.29345 0.0
H364 H 0.94035 0.57636 0.39118 0.0
C365 C 0.06965 0.5664 0.74474 0.0
C366 C 0.07862 0.57673 0.77252 0.0
C367 C 0.05263 0.56687 0.79371 0.0
C368 C 0.02948 0.55096 0.77784 0.0
N369 N 0.03954 0.54971 0.74799 0.0
Co370 Co 0.01317 0.52899 0.71718 0.0
N371 N 0.98311 0.50808 0.74972 0.0
C372 C 0.97923 0.51398 0.77933 0.0
C373 C 0.95796 0.49513 0.79654 0.0
C374 C 0.94767 0.47619 0.77651 0.0
C375 C 0.96316 0.4847 0.74808 0.0
N376 N 0.98594 0.50886 0.68661 0.0
C377 C 0.96395 0.48633 0.69041 0.0
C378 C 0.94959 0.47924 0.66299 0.0
C379 C 0.96322 0.49805 0.64122 0.0
C380 C 0.98499 0.5155 0.65656 0.0
N381 N 0.04427 0.54918 0.68457 0.0
C382 C 0.03816 0.55032 0.65443 0.0
C383 C 0.06316 0.56658 0.63741 0.0
C384 C 0.08616 0.57681 0.65812 0.0
C385 C 0.07383 0.56619 0.68675 0.0
N386 N 0.04814 0.50141 0.71894 0.0
C387 C 0.09269 0.4586 0.72216 0.0
C388 C 0.08212 0.46864 0.69389 0.0
C389 C 0.05999 0.49014 0.69275 0.0
C390 C 0.08163 0.47088 0.74869 0.0
C391 C 0.05934 0.4922 0.7466 0.0
N392 N 0.97759 0.55652 0.7155 0.0
C393 C 0.9644 0.60276 0.70828 0.0
C394 C 0.92894 0.59687 0.71908 0.0
C395 C 0.91751 0.57014 0.72628 0.0
C396 C 0.94202 0.55022 0.72356 0.0
C397 C 0.98816 0.58248 0.70693 0.0
H398 H 0.93207 0.52982 0.72849 0.0
H399 H 0.01512 0.58829 0.6992 0.0
H400 H 0.05181 0.49721 0.67072 0.0
H401 H 0.05047 0.50072 0.76751 0.0
C402 C 0.00071 0.53458 0.79091 0.0
C403 C 0.08727 0.57617 0.71546 0.0
C404 C 0.95577 0.47145 0.71962 0.0
C405 C 0.00954 0.53511 0.64292 0.0
H406 H 0.10089 0.59078 0.77676 0.0
H407 H 0.05105 0.57061 0.81788 0.0
H408 H 0.95186 0.49463 0.82096 0.0
H409 H 0.93051 0.4583 0.78216 0.0
H410 H 0.93152 0.46211 0.65911 0.0
H411 H 0.95907 0.49825 0.6169 0.0
H412 H 0.06429 0.57079 0.61292 0.0
H413 H 0.10847 0.59137 0.65291 0.0
H414 H 0.09037 0.4596 0.67291 0.0
H415 H 0.08945 0.46358 0.77093 0.0
H416 H 0.97407 0.62317 0.70197 0.0
H417 H 0.88998 0.56475 0.73419 0.0
C418 C 0.27742 0.97844 0.57675 0.0
C419 C 0.3098 0.97168 0.58845 0.0
C420 C 0.33607 0.98794 0.5733 0.0
C421 C 0.3183 0.00369 0.55338 0.0
N422 N 0.2822 0.99867 0.55513 0.0
Co423 Co 0.24612 0.01675 0.53014 0.0
N424 N 0.28507 0.03773 0.5047 0.0
C425 C 0.32094 0.03573 0.50634 0.0
C426 C 0.34104 0.05251 0.48575 0.0
C427 C 0.31656 0.06619 0.47015 0.0
C428 C 0.28284 0.05699 0.48229 0.0
N429 N 0.21 0.0358 0.50612 0.0
C430 C 0.21492 0.0561 0.48455 0.0
C431 C 0.18243 0.06488 0.47514 0.0
C432 C 0.15599 0.04976 0.49156 0.0
C433 C 0.17377 0.03278 0.51006 0.0
N434 N 0.20725 0.99472 0.55456 0.0
C435 C 0.17137 0.99524 0.55147 0.0
C436 C 0.15146 0.97642 0.56977 0.0
C437 C 0.17611 0.96263 0.58501 0.0
C438 C 0.20972 0.97397 0.57513 0.0
N439 N 0.24511 0.04559 0.55997 0.0
C440 C 0.24294 0.08917 0.59828 0.0
C441 C 0.21174 0.07357 0.59317 0.0
C442 C 0.2134 0.05203 0.57403 0.0
C443 C 0.27538 0.08232 0.58475 0.0
C444 C 0.27591 0.06049 0.56601 0.0
N445 N 0.24706 0.98801 0.5003 0.0
C446 C 0.21616 0.9585 0.46631 0.0
C447 C 0.24735 0.94518 0.46079 0.0
C448 C 0.27856 0.95389 0.47481 0.0
C449 C 0.27796 0.97539 0.49404 0.0
C450 C 0.21652 0.97957 0.48618 0.0
H451 H 0.30275 0.98125 0.50381 0.0
H452 H 0.19164 0.98851 0.48999 0.0
H453 H 0.18857 0.04115 0.57067 0.0
H454 H 0.30154 0.05629 0.55637 0.0
C455 C 0.3349 0.02034 0.52981 0.0
C456 C 0.24321 0.96379 0.58524 0.0
C457 C 0.24969 0.06819 0.47293 0.0
C458 C 0.1573 0.01347 0.53092 0.0
H459 H 0.31407 0.95594 0.60536 0.0
H460 H 0.36483 0.98739 0.57543 0.0
H461 H 0.37006 0.05523 0.48321 0.0
H462 H 0.32281 0.08172 0.45243 0.0
H463 H 0.17832 0.08075 0.45836 0.0
H464 H 0.12723 0.05113 0.49033 0.0
H465 H 0.1225 0.97282 0.57139 0.0
H466 H 0.17014 0.94585 0.60121 0.0
H467 H 0.18612 0.07828 0.60351 0.0
H468 H 0.30018 0.09391 0.58849 0.0
H469 H 0.19145 0.95237 0.45569 0.0
H470 H 0.30335 0.94411 0.47092 0.0
C471 C 0.46216 0.8061 0.07441 0.0
C472 C 0.45347 0.83078 0.0847 0.0
C473 C 0.47461 0.84963 0.06778 0.0
C474 C 0.49505 0.83545 0.04833 0.0
N475 N 0.48795 0.80865 0.05148 0.0
Co476 Co 0.51347 0.78047 0.02955 0.0
N477 N 0.54593 0.80819 0.00585 0.0
C478 C 0.54577 0.83506 0.00746 0.0
C479 C 0.56991 0.84894 0.98723 0.0
C480 C 0.58611 0.82982 0.97138 0.0
C481 C 0.57084 0.80532 0.98297 0.0
N482 N 0.53956 0.75227 0.0082 0.0
C483 C 0.56591 0.75478 0.98578 0.0
C484 C 0.5765 0.73009 0.97705 0.0
C485 C 0.55571 0.71124 0.9943 0.0
C486 C 0.53378 0.72544 0.01252 0.0
N487 N 0.48044 0.75277 0.05263 0.0
C488 C 0.47963 0.72596 0.05002 0.0
C489 C 0.45379 0.71212 0.0687 0.0
C490 C 0.4373 0.73118 0.08441 0.0
C491 C 0.45426 0.75563 0.07446 0.0
N492 N 0.47912 0.78183 0.99609 0.0
C493 C 0.4344 0.7839 0.946 0.0
C494 C 0.44484 0.75951 0.95788 0.0
C495 C 0.4669 0.75891 0.98284 0.0
C496 C 0.44578 0.80722 0.95993 0.0
C497 C 0.46804 0.80574 0.98477 0.0
N498 N 0.5479 0.77912 0.06297 0.0
C499 C 0.57819 0.75392 0.10141 0.0
C500 C 0.59464 0.77734 0.11166 0.0
C501 C 0.5878 0.80164 0.09717 0.0
C502 C 0.56458 0.80208 0.07297 0.0
C503 C 0.55505 0.75524 0.0772 0.0
H504 H 0.56038 0.82123 0.06289 0.0
H505 H 0.54309 0.7367 0.07058 0.0
H506 H 0.47406 0.73969 0.99073 0.0
H507 H 0.47627 0.82424 0.99417 0.0
C508 C 0.52184 0.84665 0.02753 0.0
C509 C 0.44586 0.7808 0.0877 0.0
C510 C 0.58005 0.77995 0.97075 0.0
C511 C 0.50529 0.71427 0.03164 0.0
H512 H 0.43421 0.83476 0.10287 0.0
H513 H 0.4755 0.87108 0.06984 0.0
H514 H 0.57463 0.8704 0.98397 0.0
H515 H 0.60644 0.83348 0.95301 0.0
H516 H 0.59647 0.72615 0.95942 0.0
H517 H 0.55567 0.68974 0.99292 0.0
H518 H 0.4483 0.69067 0.07123 0.0
H519 H 0.41582 0.72748 0.1018 0.0
H520 H 0.43625 0.74099 0.94772 0.0
H521 H 0.43796 0.82649 0.95137 0.0
H522 H 0.58297 0.73469 0.11221 0.0
H523 H 0.60025 0.82022 0.10458 0.0
C524 C 0.82788 0.9842 0.58209 0.0
C525 C 0.86091 0.9763 0.59122 0.0
C526 C 0.88653 0.99189 0.57443 0.0
C527 C 0.86775 0.00831 0.55607 0.0
N528 N 0.83163 0.00445 0.56041 0.0
Co529 Co 0.79415 0.02284 0.53733 0.0
N530 N 0.83189 0.04449 0.51113 0.0
C531 C 0.86801 0.04383 0.51258 0.0
C532 C 0.88701 0.06157 0.49233 0.0
C533 C 0.86156 0.07466 0.4773 0.0
C534 C 0.82839 0.06406 0.48932 0.0
N535 N 0.75668 0.04091 0.51393 0.0
C536 C 0.76039 0.06081 0.49183 0.0
C537 C 0.72733 0.06801 0.48196 0.0
C538 C 0.70175 0.05228 0.49864 0.0
C539 C 0.72057 0.03643 0.51764 0.0
N540 N 0.75642 1.00152 0.56387 0.0
C541 C 0.72032 1.00276 0.56303 0.0
C542 C 0.70133 0.98536 0.58367 0.0
C543 C 0.72676 0.97196 0.59836 0.0
C544 C 0.75991 0.98199 0.58572 0.0
N545 N 0.79441 0.05179 0.56704 0.0
C546 C 0.79457 0.09437 0.60688 0.0
C547 C 0.76233 0.08215 0.59808 0.0
C548 C 0.76285 0.06114 0.57817 0.0
C549 C 0.82677 0.08483 0.59592 0.0
C550 C 0.82608 0.06351 0.57635 0.0
N551 N 0.79385 0.99385 0.50767 0.0
C552 C 0.76181 0.95838 0.48214 0.0
C553 C 0.79378 0.95076 0.46841 0.0
C554 C 0.82573 0.96528 0.47414 0.0
C555 C 0.82521 0.98642 0.4939 0.0
C556 C 0.76239 0.98003 0.50119 0.0
H557 H 0.85057 0.99624 0.49791 0.0
H558 H 0.73704 0.98502 0.51061 0.0
H559 H 0.73736 0.053 0.57188 0.0
H560 H 0.85149 0.05703 0.56886 0.0
C561 C 0.88321 0.02672 0.5337 0.0
C562 C 0.79375 0.97125 0.594 0.0
C563 C 0.79445 0.07412 0.48022 0.0
C564 C 0.70509 0.01887 0.54089 0.0
H565 H 0.8659 0.96058 0.60794 0.0
H566 H 0.91541 0.99094 0.57502 0.0
H567 H 0.91592 0.06492 0.48926 0.0
H568 H 0.86677 0.09056 0.45986 0.0
H569 H 0.72226 0.08341 0.46488 0.0
H570 H 0.67286 0.0529 0.49769 0.0
H571 H 0.67242 0.98218 0.58692 0.0
H572 H 0.72151 0.95608 0.61582 0.0
H573 H 0.73683 0.08909 0.60617 0.0
H574 H 0.85232 0.09384 0.60241 0.0
H575 H 0.73643 0.94769 0.4781 0.0
H576 H 0.85108 0.96001 0.46378 0.0
C577 C 0.47031 0.28446 0.07954 0.0
C578 C 0.46023 0.30866 0.09023 0.0
C579 C 0.48085 0.32822 0.07393 0.0
C580 C 0.50231 0.31489 0.05438 0.0
N581 N 0.49629 0.28798 0.05683 0.0
Co582 Co 0.52329 0.26089 0.03436 0.0
N583 N 0.55449 0.28966 0.01111 0.0
C584 C 0.55249 0.3164 0.0128 0.0
C585 C 0.57609 0.33114 0.99288 0.0
C586 C 0.59389 0.31275 0.97714 0.0
C587 C 0.58011 0.28776 0.98851 0.0
N588 N 0.5512 0.23378 0.01281 0.0
C589 C 0.57796 0.23722 0.99077 0.0
C590 C 0.59014 0.21299 0.98202 0.0
C591 C 0.57002 0.19348 0.99886 0.0
C592 C 0.54689 0.20686 0.01692 0.0
N593 N 0.49118 0.23215 0.05669 0.0
C594 C 0.49144 0.20549 0.05331 0.0
C595 C 0.46625 0.19076 0.07181 0.0
C596 C 0.44902 0.20909 0.08816 0.0
C597 C 0.46489 0.234 0.07871 0.0
N598 N 0.48916 0.26171 1.00076 0.0
C599 C 0.44388 0.26336 0.95108 0.0
C600 C 0.45738 0.23939 0.96109 0.0
C601 C 0.47959 0.23896 0.98596 0.0
C602 C 0.45278 0.28642 0.96647 0.0
C603 C 0.47541 0.28518 0.99102 0.0
N604 N 0.55743 0.26007 0.06793 0.0
C605 C 0.58604 0.23564 0.10801 0.0
C606 C 0.60321 0.25919 0.1173 0.0
C607 C 0.59764 0.28313 0.10139 0.0
C608 C 0.5747 0.28314 0.07701 0.0
C609 C 0.56363 0.23649 0.0833 0.0
H610 H 0.57116 0.30209 0.06607 0.0
H611 H 0.55143 0.21783 0.07723 0.0
H612 H 0.48889 0.22003 0.99259 0.0
H613 H 0.48164 0.30353 0.00153 0.0
C614 C 0.52825 0.32702 0.03343 0.0
C615 C 0.45524 0.25868 0.0924 0.0
C616 C 0.59145 0.26286 0.97642 0.0
C617 C 0.5183 0.19478 0.03527 0.0
H618 H 0.44034 0.31181 0.10824 0.0
H619 H 0.48054 0.3496 0.0763 0.0
H620 H 0.57962 0.3527 0.98992 0.0
H621 H 0.61439 0.31719 0.95906 0.0
H622 H 0.61081 0.20977 0.96469 0.0
H623 H 0.57118 0.17207 0.99728 0.0
H624 H 0.46186 0.16921 0.07399 0.0
H625 H 0.42784 0.20461 0.10566 0.0
H626 H 0.45085 0.22107 0.94972 0.0
H627 H 0.44263 0.30537 0.95933 0.0
H628 H 0.58989 0.21668 0.11983 0.0
H629 H 0.61067 0.30179 0.10798 0.0
C630 C 0.17693 0.39208 0.35353 0.0
C631 C 0.16604 0.37108 0.33456 0.0
C632 C 0.11162 0.39394 0.3231 0.0
C633 C 0.12473 0.41642 0.33891 0.0
N634 N 0.17331 0.43877 0.36453 0.0
N635 N 0.12646 0.35458 0.29642 0.0
C636 C 0.15835 0.41601 0.35293 0.0
C637 C 0.13428 0.37268 0.31801 0.0
N638 N 0.20435 0.38888 0.37281 0.0
N639 N 0.07711 0.39248 0.31369 0.0
H640 H 0.14276 0.33906 0.29136 0.0
H641 H 0.10572 0.35652 0.28144 0.0
H642 H 0.05945 0.40747 0.31722 0.0
H643 H 0.06493 0.37531 0.30505 0.0
H644 H 0.211 0.40239 0.38938 0.0
H645 H 0.2182 0.37147 0.37428 0.0
H646 H 0.19943 0.44035 0.37209 0.0
H647 H 0.16099 0.45687 0.36395 0.0
C648 C 0.17454 0.62126 0.71229 0.0
C649 C 0.16061 0.64692 0.7134 0.0
C650 C 0.09922 0.62643 0.71769 0.0
C651 C 0.11277 0.60071 0.71457 0.0
N652 N 0.16298 0.57377 0.70497 0.0
N653 N 0.11013 0.67441 0.71001 0.0
C654 C 0.1504 0.59819 0.71054 0.0
C655 C 0.12306 0.6496 0.71376 0.0
N656 N 0.21073 0.61892 0.71393 0.0
N657 N 0.06387 0.62886 0.72592 0.0
H658 H 0.12679 0.69193 0.7074 0.0
H659 H 0.08321 0.67743 0.70651 0.0
H660 H 0.04556 0.61261 0.73043 0.0
H661 H 0.05347 0.64685 0.73171 0.0
H662 H 0.22238 0.60071 0.7167 0.0
H663 H 0.22911 0.63544 0.71439 0.0
H664 H 0.18965 0.571 0.69858 0.0
H665 H 0.1462 0.55634 0.70476 0.0
C666 C 0.87145 0.63046 0.32059 0.0
C667 C 0.87969 0.65298 0.33818 0.0
C668 C 0.93186 0.63133 0.35767 0.0
C669 C 0.92163 0.60784 0.34231 0.0
N670 N 0.87639 0.58296 0.31543 0.0
N671 N 0.91267 0.67212 0.37901 0.0
C672 C 0.88978 0.60677 0.32566 0.0
C673 C 0.90838 0.65259 0.35842 0.0
N674 N 0.84735 0.63199 0.29803 0.0
N675 N 0.96465 0.63396 0.37036 0.0
H676 H 0.89552 0.68768 0.38076 0.0
H677 H 0.93091 0.67135 0.39634 0.0
H678 H 0.98302 0.61915 0.36991 0.0
H679 H 0.975 0.65181 0.37881 0.0
H680 H 0.84323 0.61708 0.28248 0.0
H681 H 0.83408 0.64919 0.29287 0.0
H682 H 0.85141 0.58058 0.30577 0.0
H683 H 0.88843 0.56501 0.31951 0.0
C684 C 0.87488 0.42035 0.72924 0.0
C685 C 0.89267 0.39616 0.72861 0.0
C686 C 0.95023 0.42143 0.7159 0.0
C687 C 0.93336 0.44556 0.72053 0.0
N688 N 0.87974 0.46884 0.73037 0.0
N689 N 0.94726 0.37313 0.72331 0.0
C690 C 0.89559 0.44526 0.72664 0.0
C691 C 0.93033 0.39654 0.72225 0.0
N692 N 0.83812 0.4194 0.73176 0.0
N693 N 0.98505 0.42235 0.70463 0.0
H694 H 0.93346 0.35445 0.727 0.0
H695 H 0.97511 0.37228 0.72255 0.0
H696 H 0.00067 0.44021 0.70028 0.0
H697 H 0.99756 0.40566 0.69721 0.0
H698 H 0.82305 0.43606 0.72931 0.0
H699 H 0.8222 0.40152 0.73433 0.0
H700 H 0.85333 0.47015 0.73854 0.0
H701 H 0.8936 0.48746 0.72647 0.0
C702 C 0.26097 0.1417 0.44541 0.0
C703 C 0.25604 0.1396 0.41362 0.0
C704 C 0.24879 0.09068 0.42038 0.0
C705 C 0.25149 0.09291 0.45239 0.0
N706 N 0.25572 0.12007 0.49628 0.0
N707 N 0.24082 0.11293 0.37101 0.0
C708 C 0.25633 0.11832 0.46518 0.0
C709 C 0.24866 0.11429 0.40115 0.0
N710 N 0.27091 0.16601 0.45653 0.0
N711 N 0.24732 0.06594 0.40837 0.0
H712 H 0.24143 0.12973 0.35604 0.0
H713 H 0.23129 0.09548 0.36121 0.0
H714 H 0.24654 0.04823 0.42186 0.0
H715 H 0.24937 0.06286 0.38503 0.0
H716 H 0.27893 0.16856 0.47874 0.0
H717 H 0.27347 0.18366 0.4429 0.0
H718 H 0.25529 0.13802 0.50728 0.0
H719 H 0.25315 0.10333 0.51141 0.0
C720 C 0.35479 0.7734 0.89527 0.0
C721 C 0.37045 0.78279 0.86637 0.0
C722 C 0.42807 0.79312 0.8896 0.0
C723 C 0.41197 0.78486 0.91875 0.0
N724 N 0.35883 0.77184 0.95049 0.0
N725 N 0.41969 0.80557 0.83632 0.0
C726 C 0.37493 0.77635 0.92192 0.0
C727 C 0.40644 0.79387 0.86364 0.0
N728 N 0.32101 0.76098 0.89708 0.0
N729 N 0.46432 0.79933 0.88658 0.0
H730 H 0.40485 0.80599 0.81666 0.0
H731 H 0.44427 0.81663 0.83359 0.0
H732 H 0.48089 0.79977 0.90513 0.0
H733 H 0.47849 0.80231 0.86557 0.0
H734 H 0.30963 0.75093 0.91681 0.0
H735 H 0.3051 0.75905 0.87819 0.0
H736 H 0.33119 0.76833 0.95455 0.0
H737 H 0.37278 0.77385 0.9705 0.0
C738 C 0.77109 0.90482 0.40382 0.0
C739 C 0.79262 0.88309 0.41042 0.0
C740 C 0.81187 0.90448 0.45685 0.0
C741 C 0.79376 0.92754 0.44825 0.0
N742 N 0.76252 0.95177 0.40985 0.0
N743 N 0.8396 0.86506 0.43978 0.0
C744 C 0.77521 0.92834 0.42063 0.0
C745 C 0.8148 0.88372 0.43597 0.0
N746 N 0.74562 0.90266 0.38238 0.0
N747 N 0.82507 0.90187 0.48539 0.0
H748 H 0.84333 0.84996 0.42453 0.0
H749 H 0.85886 0.86619 0.45629 0.0
H750 H 0.82269 0.91627 0.50169 0.0
H751 H 0.83518 0.88427 0.4939 0.0
H752 H 0.72679 0.91686 0.37893 0.0
H753 H 0.74086 0.88547 0.37023 0.0
H754 H 0.75202 0.95407 0.38829 0.0
H755 H 0.76578 0.96962 0.42106 0.0
C756 C 0.62488 0.26089 0.89292 0.0
C757 C 0.66249 0.26578 0.89568 0.0
C758 C 0.6538 0.26636 0.95152 0.0
C759 C 0.61607 0.26362 0.94851 0.0
N760 N 0.56492 0.26158 0.9167 0.0
N761 N 0.71271 0.27687 0.92667 0.0
C762 C 0.60136 0.26181 0.91928 0.0
C763 C 0.67698 0.26948 0.92476 0.0
N764 N 0.61181 0.25458 0.86526 0.0
N765 N 0.66744 0.26545 0.98002 0.0
H766 H 0.73058 0.27912 0.9076 0.0
H767 H 0.72421 0.28276 0.94674 0.0
H768 H 0.6512 0.26382 1.00011 0.0
H769 H 0.69467 0.26433 0.98383 0.0
H770 H 0.58522 0.24797 0.86233 0.0
H771 H 0.62821 0.25396 0.84542 0.0
H772 H 0.55262 0.26332 0.89588 0.0
H773 H 0.54683 0.26155 0.93557 0.0
C774 C 0.24363 0.88886 0.60551 0.0
C775 C 0.24583 0.88906 0.63779 0.0
C776 C 0.24182 0.93782 0.63589 0.0
C777 C 0.24274 0.93783 0.60347 0.0
N778 N 0.24734 0.9143 0.55681 0.0
N779 N 0.2498 0.91339 0.68395 0.0
C780 C 0.24425 0.91356 0.5881 0.0
C781 C 0.24559 0.91347 0.65307 0.0
N782 N 0.24049 0.86498 0.59161 0.0
N783 N 0.23667 0.96109 0.65016 0.0
H784 H 0.25098 0.89588 0.69753 0.0
H785 H 0.25422 0.93062 0.69601 0.0
H786 H 0.23463 0.97936 0.63824 0.0
H787 H 0.23188 0.96213 0.67365 0.0
H788 H 0.2348 0.8632 0.56871 0.0
H789 H 0.2412 0.84656 0.6035 0.0
H790 H 0.2527 0.89783 0.54411 0.0
H791 H 0.2467 0.93191 0.54332 0.0
C792 C 0.67764 0.76827 0.15798 0.0
C793 C 0.66444 0.77461 0.1875 0.0
C794 C 0.60484 0.78091 0.16769 0.0
C795 C 0.61874 0.77645 0.13778 0.0
N796 N 0.66903 0.76939 0.1033 0.0
N797 N 0.61737 0.79034 0.22021 0.0
C798 C 0.65536 0.77108 0.13259 0.0
C799 C 0.62852 0.78186 0.1923 0.0
N800 N 0.71115 0.7589 0.1544 0.0
N801 N 0.56879 0.78353 0.17264 0.0
H802 H 0.63374 0.79079 0.23893 0.0
H803 H 0.59292 0.79876 0.22432 0.0
H804 H 0.55078 0.78354 0.15507 0.0
H805 H 0.55619 0.78376 0.1943 0.0
H806 H 0.7209 0.75108 0.13427 0.0
H807 H 0.72848 0.7571 0.17234 0.0
H808 H 0.69631 0.76849 0.09763 0.0
H809 H 0.65336 0.77084 0.0842 0.0
C810 C 0.79259 0.16582 0.6332 0.0
C811 C 0.79321 0.16133 0.66539 0.0
C812 C 0.79768 0.11321 0.65908 0.0
C813 C 0.79452 0.11748 0.62706 0.0
N814 N 0.785 0.14696 0.58361 0.0
N815 N 0.7925 0.13103 0.70968 0.0
C816 C 0.79088 0.14357 0.61411 0.0
C817 C 0.79478 0.13508 0.67854 0.0
N818 N 0.79446 0.19144 0.6209 0.0
N819 N 0.8039 0.08827 0.67077 0.0
H820 H 0.79139 0.14664 0.72462 0.0
H821 H 0.78936 0.11224 0.72085 0.0
H822 H 0.80467 0.07157 0.65742 0.0
H823 H 0.81056 0.08429 0.69327 0.0
H824 H 0.79821 0.1963 0.59759 0.0
H825 H 0.7948 0.2082 0.6342 0.0
H826 H 0.77798 0.16485 0.57328 0.0
H827 H 0.78479 0.13129 0.56874 0.0
C828 C 0.42216 0.25202 0.17632 0.0
C829 C 0.38514 0.25636 0.17368 0.0
C830 C 0.39343 0.2597 0.11769 0.0
C831 C 0.43089 0.25752 0.1205 0.0
N832 N 0.4821 0.25473 0.15193 0.0
N833 N 0.33595 0.26766 0.14265 0.0
C834 C 0.44561 0.25453 0.14969 0.0
C835 C 0.37085 0.26106 0.14454 0.0
N836 N 0.43464 0.24478 0.2042 0.0
N837 N 0.37945 0.25997 0.08933 0.0
H838 H 0.31846 0.26845 0.16179 0.0
H839 H 0.32497 0.27424 0.12243 0.0
H840 H 0.39535 0.25966 0.06916 0.0
H841 H 0.352 0.25855 0.08575 0.0
H842 H 0.46037 0.2385 0.20724 0.0
H843 H 0.41833 0.24309 0.22425 0.0
H844 H 0.49487 0.25568 0.17256 0.0
H845 H 0.50005 0.25582 0.1329 0.0
C846 C 0.8972 0.66316 0.74455 0.0
C847 C 0.86358 0.66413 0.73067 0.0
C848 C 0.87338 0.62135 0.70748 0.0
C849 C 0.90496 0.61909 0.72415 0.0
N850 N 0.94147 0.63485 0.76476 0.0
N851 N 0.81599 0.64114 0.70444 0.0
C852 C 0.9152 0.6391 0.7446 0.0
C853 C 0.85054 0.64232 0.71372 0.0
N854 N 0.91278 0.68552 0.75655 0.0
N855 N 0.8659 0.60423 0.68483 0.0
H856 H 0.7981 0.65573 0.70926 0.0
H857 H 0.80407 0.62441 0.69466 0.0
H858 H 0.88235 0.58899 0.67904 0.0
H859 H 0.84523 0.60676 0.66991 0.0
H860 H 0.93889 0.68647 0.7642 0.0
H861 H 0.90126 0.70394 0.75587 0.0
H862 H 0.94756 0.6478 0.78205 0.0
H863 H 0.95443 0.61703 0.76638 0.0
C864 C 0.93506 0.38547 0.3396 0.0
C865 C 0.89708 0.38515 0.33825 0.0
C866 C 0.89977 0.43421 0.33779 0.0
C867 C 0.93759 0.43444 0.34029 0.0
N868 N 0.99102 0.41085 0.34811 0.0
N869 N 0.84237 0.40831 0.34002 0.0
C870 C 0.95517 0.4102 0.34254 0.0
C871 C 0.87915 0.4093 0.33854 0.0
N872 N 0.95194 0.36216 0.33721 0.0
N873 N 0.88379 0.45788 0.334 0.0
H874 H 0.82644 0.39048 0.3397 0.0
H875 H 0.82744 0.42482 0.34361 0.0
H876 H 0.89789 0.47647 0.3345 0.0
H877 H 0.85707 0.45927 0.32855 0.0
H878 H 0.97968 0.36131 0.33429 0.0
H879 H 0.93803 0.34353 0.33625 0.0
H880 H 0.00455 0.39393 0.3538 0.0
H881 H 0.00698 0.4286 0.34914 0.0
C882 C 0.17199 0.41402 0.71748 0.0
C883 C 0.15476 0.3888 0.7271 0.0
C884 C 0.09667 0.40917 0.73243 0.0
C885 C 0.11421 0.43459 0.72412 0.0
N886 N 0.16856 0.46226 0.71236 0.0
N887 N 0.1016 0.36195 0.74526 0.0
C888 C 0.15188 0.43728 0.71746 0.0
C889 C 0.11729 0.38627 0.73495 0.0
N890 N 0.2076 0.41566 0.70821 0.0
N891 N 0.0601 0.40694 0.73727 0.0
H892 H 0.11516 0.34439 0.74535 0.0
H893 H 0.07562 0.35908 0.75495 0.0
H894 H 0.04443 0.42342 0.73733 0.0
H895 H 0.04479 0.38887 0.73984 0.0
H896 H 0.22095 0.43264 0.6976 0.0
H897 H 0.22369 0.39942 0.7095 0.0
H898 H 0.19631 0.46613 0.7106 0.0
H899 H 0.15464 0.47967 0.71198 0.0
C900 C 0.11649 0.64076 0.33807 0.0
C901 C 0.1546 0.641 0.33802 0.0
C902 C 0.15143 0.59193 0.34271 0.0
C903 C 0.11336 0.59175 0.34319 0.0
N904 N 0.05901 0.61522 0.34588 0.0
N905 N 0.20856 0.61775 0.34461 0.0
C906 C 0.0957 0.61599 0.3423 0.0
C907 C 0.17213 0.61682 0.34177 0.0
N908 N 0.10033 0.66424 0.33329 0.0
N909 N 0.1677 0.56825 0.34206 0.0
H910 H 0.22471 0.63554 0.34291 0.0
H911 H 0.22269 0.60121 0.35061 0.0
H912 H 0.15333 0.54967 0.34375 0.0
H913 H 0.1952 0.56681 0.33814 0.0
H914 H 0.07316 0.66539 0.3293 0.0
H915 H 0.11453 0.68288 0.33177 0.0
H916 H 0.0445 0.63207 0.3485 0.0
H917 H 0.04291 0.59742 0.34831 0.0
C918 C 0.79168 0.89724 0.61916 0.0
C919 C 0.78818 0.89885 0.65143 0.0
C920 C 0.7929 0.9479 0.6461 0.0
C921 C 0.79325 0.94622 0.61385 0.0
N922 N 0.79019 0.91999 0.56912 0.0
N923 N 0.78255 0.92507 0.69604 0.0
C924 C 0.79203 0.92105 0.6002 0.0
C925 C 0.78813 0.92403 0.66504 0.0
N926 N 0.79518 0.87292 0.60676 0.0
N927 N 0.79775 0.97235 0.65852 0.0
H928 H 0.78037 0.90806 0.71077 0.0
H929 H 0.77795 0.94253 0.70715 0.0
H930 H 0.80042 0.99024 0.64531 0.0
H931 H 0.80167 0.97495 0.6816 0.0
H932 H 0.8017 0.87051 0.58374 0.0
H933 H 0.794 0.85502 0.61991 0.0
H934 H 0.78514 0.9024 0.55785 0.0
H935 H 0.79158 0.93702 0.55445 0.0
C936 C 0.68103 0.24458 0.16779 0.0
C937 C 0.67183 0.25876 0.19407 0.0
C938 C 0.6156 0.27042 0.17137 0.0
C939 C 0.62676 0.25883 0.14382 0.0
N940 N 0.67293 0.23891 0.11382 0.0
N941 N 0.63354 0.28919 0.21882 0.0
C942 C 0.66029 0.24699 0.14146 0.0
C943 C 0.63994 0.27279 0.19533 0.0
N944 N 0.70888 0.22811 0.16834 0.0
N945 N 0.58135 0.27841 0.17504 0.0
H946 H 0.65091 0.29175 0.23665 0.0
H947 H 0.61272 0.3021 0.2192 0.0
H948 H 0.5626 0.27681 0.15811 0.0
H949 H 0.57049 0.28431 0.1958 0.0
H950 H 0.71443 0.21514 0.15106 0.0
H951 H 0.72444 0.22554 0.18735 0.0
H952 H 0.69887 0.2328 0.11003 0.0
H953 H 0.65871 0.24058 0.09391 0.0
C954 C 0.2452 0.13288 0.66747 0.0
C955 C 0.24303 0.15859 0.65302 0.0
C956 C 0.23603 0.13829 0.60345 0.0
C957 C 0.24172 0.11291 0.61741 0.0
N958 N 0.25508 0.08592 0.66184 0.0
N959 N 0.24063 0.18652 0.60703 0.0
C960 C 0.24718 0.11016 0.64923 0.0
C961 C 0.23945 0.1615 0.62093 0.0
N962 N 0.24441 0.13016 0.69871 0.0
N963 N 0.22676 0.14008 0.57359 0.0
H964 H 0.24256 0.20397 0.61912 0.0
H965 H 0.24235 0.19011 0.58341 0.0
H966 H 0.22454 0.12356 0.55999 0.0
H967 H 0.2185 0.15747 0.56293 0.0
H968 H 0.24205 0.11178 0.71085 0.0
H969 H 0.24322 0.14638 0.71277 0.0
H970 H 0.26352 0.08319 0.68405 0.0
H971 H 0.25549 0.06865 0.64943 0.0
C972 C 0.36411 0.78976 0.14098 0.0
C973 C 0.37556 0.77849 0.16896 0.0
C974 C 0.4346 0.77205 0.14445 0.0
C975 C 0.42167 0.78047 0.11585 0.0
N976 N 0.37235 0.7931 0.0857 0.0
N977 N 0.41935 0.75421 0.19594 0.0
C978 C 0.38585 0.78807 0.11375 0.0
C979 C 0.41024 0.76839 0.17037 0.0
N980 N 0.33315 0.80295 0.14061 0.0
N981 N 0.47029 0.76801 0.14695 0.0
H982 H 0.40198 0.75047 0.21517 0.0
H983 H 0.44277 0.744 0.19702 0.0
H984 H 0.48893 0.77039 0.1284 0.0
H985 H 0.48195 0.7646 0.16783 0.0
H986 H 0.32538 0.81388 0.12151 0.0
H987 H 0.31691 0.80517 0.16022 0.0
H988 H 0.34529 0.79592 0.08259 0.0
H989 H 0.3876 0.79227 0.06526 0.0
C990 C 0.79366 0.14766 0.45384 0.0
C991 C 0.79486 0.14564 0.42159 0.0
C992 C 0.79371 0.09669 0.42771 0.0
C993 C 0.79462 0.09885 0.45987 0.0
N994 N 0.80046 0.12595 0.50369 0.0
N995 N 0.8008 0.11909 0.37731 0.0
C996 C 0.79603 0.12424 0.47298 0.0
C997 C 0.79621 0.12036 0.40836 0.0
N998 N 0.78916 0.1719 0.46615 0.0
N999 N 0.78976 0.07198 0.4158 0.0
H1000 H 0.80208 0.13597 0.36242 0.0
H1001 H 0.80591 0.10165 0.36633 0.0
H1002 H 0.78905 0.05424 0.42923 0.0
H1003 H 0.78483 0.06893 0.39297 0.0
H1004 H 0.78389 0.17431 0.48937 0.0
H1005 H 0.78818 0.18959 0.45285 0.0
H1006 H 0.80616 0.14389 0.5141 0.0
H1007 H 0.80101 0.10921 0.51862 0.0
C1008 C 0.36479 0.25069 0.9002 0.0
C1009 C 0.3764 0.26669 0.87364 0.0
C1010 C 0.43392 0.27788 0.89659 0.0
C1011 C 0.42067 0.26437 0.92435 0.0
N1012 N 0.37112 0.24188 0.95446 0.0
N1013 N 0.41937 0.29936 0.8485 0.0
C1014 C 0.38541 0.25185 0.9267 0.0
C1015 C 0.41028 0.28136 0.87234 0.0
N1016 N 0.3347 0.2337 0.89979 0.0
N1017 N 0.46938 0.28662 0.89301 0.0
H1018 H 0.40261 0.30276 0.83046 0.0
H1019 H 0.44201 0.31266 0.84801 0.0
H1020 H 0.48766 0.28423 0.91014 0.0
H1021 H 0.4814 0.29401 0.87217 0.0
H1022 H 0.32709 0.21954 0.91736 0.0
H1023 H 0.31914 0.23197 0.88066 0.0
H1024 H 0.34424 0.23512 0.95816 0.0
H1025 H 0.38522 0.24259 0.9745 0.0
C1026 C 0.22323 0.87736 0.42816 0.0
C1027 C 0.24765 0.87793 0.4023 0.0
C1028 C 0.26854 0.92385 0.41275 0.0
C1029 C 0.24728 0.92205 0.44053 0.0
N1030 N 0.20992 0.89483 0.47777 0.0
N1031 N 0.29896 0.89974 0.37372 0.0
C1032 C 0.22614 0.89815 0.44914 0.0
C1033 C 0.27186 0.90064 0.39561 0.0
N1034 N 0.19641 0.85751 0.43215 0.0
N1035 N 0.28461 0.94791 0.40214 0.0
H1036 H 0.30301 0.88287 0.36122 0.0
H1037 H 0.31953 0.91473 0.37013 0.0
H1038 H 0.28219 0.96552 0.41365 0.0
H1039 H 0.29734 0.95089 0.38049 0.0
H1040 H 0.1757 0.85765 0.44889 0.0
H1041 H 0.19278 0.84227 0.4169 0.0
H1042 H 0.19736 0.87673 0.48631 0.0
H1043 H 0.21199 0.90931 0.49409 0.0
C1044 C 0.60718 0.78274 0.88568 0.0
C1045 C 0.64486 0.7805 0.8867 0.0
C1046 C 0.64043 0.77945 0.94282 0.0
C1047 C 0.60252 0.7798 0.94173 0.0
N1048 N 0.54897 0.77734 0.91284 0.0
N1049 N 0.69689 0.77231 0.91574 0.0
C1050 C 0.58564 0.78012 0.91334 0.0
C1051 C 0.6614 0.77766 0.91517 0.0
N1052 N 0.59219 0.78837 0.85837 0.0
N1053 N 0.65634 0.78128 0.97027 0.0
H1054 H 0.71312 0.77084 0.89595 0.0
H1055 H 0.70959 0.76719 0.93567 0.0
H1056 H 0.64169 0.78176 0.99106 0.0
H1057 H 0.684 0.7842 0.97231 0.0
H1058 H 0.56559 0.79318 0.85654 0.0
H1059 H 0.6071 0.7904 0.8376 0.0
H1060 H 0.53528 0.77399 0.893 0.0
H1061 H 0.53221 0.77621 0.93262 0.0
loop_
_geom_bond_atom_site_label_1
_geom_bond_atom_site_label_2
_geom_bond_distance
_geom_bond_site_symmetry_2
_ccdc_geom_bond_type
C0 C1 1.386 . S
C0 C2 1.397 . S
C0 H24 0.931 . S
C1 C0 1.386 . S
C1 C5 1.397 . S
C2 C0 1.397 . S
C2 C3 1.384 . S
C2 H25 0.930 . S
C3 C2 1.384 . S
C3 C4 1.377 . S
C3 C6 1.481 . S
C4 C3 1.377 . S
C4 C5 1.389 . S
C4 H26 0.929 . S
C5 C1 1.397 . S
C5 C4 1.389 . S
C5 H27 0.931 . S
C6 C3 1.481 . S
C6 C7 1.387 . S
C6 C11 1.390 . S
C7 C6 1.387 . S
C7 C8 1.401 . S
C7 H28 0.930 . S
C8 C7 1.401 . S
C8 C9 1.376 . S
C8 C17 1.511 . S
C9 C8 1.376 . S
C9 C10 1.392 . S
C9 H30 0.931 . S
C10 C9 1.392 . S
C10 C11 1.361 . S
C10 C12 1.500 . S
C11 C6 1.390 . S
C11 C10 1.361 . S
C11 H29 0.931 . S
C12 C10 1.500 . S
C12 C13 1.371 . S
C12 C14 1.365 . S
C13 C12 1.371 . S
C13 C23 1.386 . S
C13 H31 0.931 . S
C14 C12 1.365 . S
C14 C15 1.409 . S
C14 H32 0.929 . S
C15 C14 1.409 . S
C15 C16 1.380 . S
C15 H33 0.930 . S
C16 C15 1.380 . S
C16 C23 1.357 . S
C17 C8 1.511 . S
C17 C18 1.341 . S
C17 C19 1.371 . S
C18 C17 1.341 . S
C18 C22 1.394 . S
C18 H34 0.930 . S
C19 C17 1.371 . S
C19 C20 1.392 . S
C19 H35 0.931 . S
C20 C19 1.392 . S
C20 C21 1.331 . S
C20 H38 0.932 . S
C21 C20 1.331 . S
C21 C22 1.336 . S
C22 C18 1.394 . S
C22 C21 1.336 . S
C22 H37 0.929 . S
C23 C13 1.386 . S
C23 C16 1.357 . S
C23 H36 0.928 . S
H24 C0 0.931 . S
H25 C2 0.930 . S
H26 C4 0.929 . S
H27 C5 0.931 . S
H28 C7 0.930 . S
H29 C11 0.931 . S
H30 C9 0.931 . S
H31 C13 0.931 . S
H32 C14 0.929 . S
H33 C15 0.930 . S
H34 C18 0.930 . S
H35 C19 0.931 . S
H36 C23 0.928 . S
H37 C22 0.929 . S
H38 C20 0.932 . S
C39 C40 1.386 . S
C39 C41 1.397 . S
C39 H63 0.931 . S
C40 C39 1.386 . S
C40 C44 1.397 . S
C41 C39 1.397 . S
C41 C42 1.384 . S
C41 H64 0.930 . S
C42 C41 1.384 . S
C42 C43 1.377 . S
C42 C45 1.481 . S
C43 C42 1.377 . S
C43 C44 1.389 . S
C43 H65 0.929 . S
C44 C40 1.397 . S
C44 C43 1.389 . S
C44 H66 0.931 . S
C45 C42 1.481 . S
C45 C46 1.387 . S
C45 C50 1.390 . S
C46 C45 1.387 . S
C46 C47 1.401 . S
C46 H67 0.930 . S
C47 C46 1.401 . S
C47 C48 1.376 . S
C47 C56 1.511 . S
C48 C47 1.376 . S
C48 C49 1.392 . S
C48 H69 0.931 . S
C49 C48 1.392 . S
C49 C50 1.361 . S
C49 C51 1.500 . S
C50 C45 1.390 . S
C50 C49 1.361 . S
C50 H68 0.931 . S
C51 C49 1.500 . S
C51 C52 1.371 . S
C51 C53 1.365 . S
C52 C51 1.371 . S
C52 C62 1.386 . S
C52 H70 0.931 . S
C53 C51 1.365 . S
C53 C54 1.409 . S
C53 H71 0.929 . S
C54 C53 1.409 . S
C54 C55 1.380 . S
C54 H72 0.930 . S
C55 C54 1.380 . S
C55 C62 1.357 . S
C56 C47 1.511 . S
C56 C57 1.341 . S
C56 C58 1.371 . S
C57 C56 1.341 . S
C57 C61 1.394 . S
C57 H73 0.930 . S
C58 C56 1.371 . S
C58 C59 1.392 . S
C58 H74 0.931 . S
C59 C58 1.392 . S
C59 C60 1.331 . S
C59 H77 0.932 . S
C60 C59 1.331 . S
C60 C61 1.336 . S
C61 C57 1.394 . S
C61 C60 1.336 . S
C61 H76 0.929 . S
C62 C52 1.386 . S
C62 C55 1.357 . S
C62 H75 0.928 . S
H63 C39 0.931 . S
H64 C41 0.930 . S
H65 C43 0.929 . S
H66 C44 0.931 . S
H67 C46 0.930 . S
H68 C50 0.931 . S
H69 C48 0.931 . S
H70 C52 0.931 . S
H71 C53 0.929 . S
H72 C54 0.930 . S
H73 C57 0.930 . S
H74 C58 0.931 . S
H75 C62 0.928 . S
H76 C61 0.929 . S
H77 C59 0.932 . S
C78 C79 1.386 . S
C78 C80 1.397 . S
C78 H102 0.931 . S
C79 C78 1.386 . S
C79 C83 1.397 . S
C80 C78 1.397 . S
C80 C81 1.384 . S
C80 H103 0.930 . S
C81 C80 1.384 . S
C81 C82 1.377 . S
C81 C84 1.481 . S
C82 C81 1.377 . S
C82 C83 1.389 . S
C82 H104 0.929 . S
C83 C79 1.397 . S
C83 C82 1.389 . S
C83 H105 0.931 . S
C84 C81 1.481 . S
C84 C85 1.387 . S
C84 C89 1.390 . S
C85 C84 1.387 . S
C85 C86 1.401 . S
C85 H106 0.930 . S
C86 C85 1.401 . S
C86 C87 1.376 . S
C86 C95 1.511 . S
C87 C86 1.376 . S
C87 C88 1.392 . S
C87 H108 0.931 . S
C88 C87 1.392 . S
C88 C89 1.361 . S
C88 C90 1.500 . S
C89 C84 1.390 . S
C89 C88 1.361 . S
C89 H107 0.931 . S
C90 C88 1.500 . S
C90 C91 1.371 . S
C90 C92 1.365 . S
C91 C90 1.371 . S
C91 C101 1.386 . S
C91 H109 0.931 . S
C92 C90 1.365 . S
C92 C93 1.409 . S
C92 H110 0.929 . S
C93 C92 1.409 . S
C93 C94 1.380 . S
C93 H111 0.930 . S
C94 C93 1.380 . S
C94 C101 1.357 . S
C95 C86 1.511 . S
C95 C96 1.341 . S
C95 C97 1.371 . S
C96 C95 1.341 . S
C96 C100 1.394 . S
C96 H112 0.930 . S
C97 C95 1.371 . S
C97 C98 1.392 . S
C97 H113 0.931 . S
C98 C97 1.392 . S
C98 C99 1.331 . S
C98 H116 0.932 . S
C99 C98 1.331 . S
C99 C100 1.336 . S
C100 C96 1.394 . S
C100 C99 1.336 . S
C100 H115 0.929 . S
C101 C91 1.386 . S
C101 C94 1.357 . S
C101 H114 0.928 . S
H102 C78 0.931 . S
H103 C80 0.930 . S
H104 C82 0.929 . S
H105 C83 0.931 . S
H106 C85 0.930 . S
H107 C89 0.931 . S
H108 C87 0.931 . S
H109 C91 0.931 . S
H110 C92 0.929 . S
H111 C93 0.930 . S
H112 C96 0.930 . S
H113 C97 0.931 . S
H114 C101 0.928 . S
H115 C100 0.929 . S
H116 C98 0.932 . S
C117 C118 1.386 . S
C117 C119 1.397 . S
C117 H141 0.931 . S
C118 C117 1.386 . S
C118 C122 1.397 . S
C119 C117 1.397 . S
C119 C120 1.384 . S
C119 H142 0.930 . S
C120 C119 1.384 . S
C120 C121 1.377 . S
C120 C123 1.481 . S
C121 C120 1.377 . S
C121 C122 1.389 . S
C121 H143 0.929 . S
C122 C118 1.397 . S
C122 C121 1.389 . S
C122 H144 0.931 . S
C123 C120 1.481 . S
C123 C124 1.387 . S
C123 C128 1.390 . S
C124 C123 1.387 . S
C124 C125 1.401 . S
C124 H145 0.930 . S
C125 C124 1.401 . S
C125 C126 1.376 . S
C125 C134 1.511 . S
C126 C125 1.376 . S
C126 C127 1.392 . S
C126 H147 0.931 . S
C127 C126 1.392 . S
C127 C128 1.361 . S
C127 C129 1.500 . S
C128 C123 1.390 . S
C128 C127 1.361 . S
C128 H146 0.931 . S
C129 C127 1.500 . S
C129 C130 1.371 . S
C129 C131 1.365 . S
C130 C129 1.371 . S
C130 C140 1.386 . S
C130 H148 0.931 . S
C131 C129 1.365 . S
C131 C132 1.409 . S
C131 H149 0.929 . S
C132 C131 1.409 . S
C132 C133 1.380 . S
C132 H150 0.930 . S
C133 C132 1.380 . S
C133 C140 1.357 . S
C134 C125 1.511 . S
C134 C135 1.341 . S
C134 C136 1.371 . S
C135 C134 1.341 . S
C135 C139 1.394 . S
C135 H151 0.930 . S
C136 C134 1.371 . S
C136 C137 1.392 . S
C136 H152 0.931 . S
C137 C136 1.392 . S
C137 C138 1.331 . S
C137 H155 0.932 . S
C138 C137 1.331 . S
C138 C139 1.336 . S
C139 C135 1.394 . S
C139 C138 1.336 . S
C139 H154 0.929 . S
C140 C130 1.386 . S
C140 C133 1.357 . S
C140 H153 0.928 . S
H141 C117 0.931 . S
H142 C119 0.930 . S
H143 C121 0.929 . S
H144 C122 0.931 . S
H145 C124 0.930 . S
H146 C128 0.931 . S
H147 C126 0.931 . S
H148 C130 0.931 . S
H149 C131 0.929 . S
H150 C132 0.930 . S
H151 C135 0.930 . S
H152 C136 0.931 . S
H153 C140 0.928 . S
H154 C139 0.929 . S
H155 C137 0.932 . S
C156 C157 1.386 . S
C156 C158 1.397 . S
C156 H180 0.931 . S
C157 C156 1.386 . S
C157 C161 1.397 . S
C158 C156 1.397 . S
C158 C159 1.384 . S
C158 H181 0.930 . S
C159 C158 1.384 . S
C159 C160 1.377 . S
C159 C162 1.481 . S
C160 C159 1.377 . S
C160 C161 1.389 . S
C160 H182 0.929 . S
C161 C157 1.397 . S
C161 C160 1.389 . S
C161 H183 0.931 . S
C162 C159 1.481 . S
C162 C163 1.387 . S
C162 C167 1.390 . S
C163 C162 1.387 . S
C163 C164 1.401 . S
C163 H184 0.930 . S
C164 C163 1.401 . S
C164 C165 1.376 . S
C164 C173 1.511 . S
C165 C164 1.376 . S
C165 C166 1.392 . S
C165 H186 0.931 . S
C166 C165 1.392 . S
C166 C167 1.361 . S
C166 C168 1.500 . S
C167 C162 1.390 . S
C167 C166 1.361 . S
C167 H185 0.931 . S
C168 C166 1.500 . S
C168 C169 1.371 . S
C168 C170 1.365 . S
C169 C168 1.371 . S
C169 C179 1.386 . S
C169 H187 0.931 . S
C170 C168 1.365 . S
C170 C171 1.409 . S
C170 H188 0.929 . S
C171 C170 1.409 . S
C171 C172 1.380 . S
C171 H189 0.930 . S
C172 C171 1.380 . S
C172 C179 1.357 . S
C173 C164 1.511 . S
C173 C174 1.341 . S
C173 C175 1.371 . S
C174 C173 1.341 . S
C174 C178 1.394 . S
C174 H190 0.930 . S
C175 C173 1.371 . S
C175 C176 1.392 . S
C175 H191 0.931 . S
C176 C175 1.392 . S
C176 C177 1.331 . S
C176 H194 0.932 . S
C177 C176 1.331 . S
C177 C178 1.336 . S
C178 C174 1.394 . S
C178 C177 1.336 . S
C178 H193 0.929 . S
C179 C169 1.386 . S
C179 C172 1.357 . S
C179 H192 0.928 . S
H180 C156 0.931 . S
H181 C158 0.930 . S
H182 C160 0.929 . S
H183 C161 0.931 . S
H184 C163 0.930 . S
H185 C167 0.931 . S
H186 C165 0.931 . S
H187 C169 0.931 . S
H188 C170 0.929 . S
H189 C171 0.930 . S
H190 C174 0.930 . S
H191 C175 0.931 . S
H192 C179 0.928 . S
H193 C178 0.929 . S
H194 C176 0.932 . S
C195 C196 1.386 . S
C195 C197 1.397 . S
C195 H219 0.931 . S
C196 C195 1.386 . S
C196 C200 1.397 . S
C197 C195 1.397 . S
C197 C198 1.384 . S
C197 H220 0.930 . S
C198 C197 1.384 . S
C198 C199 1.377 . S
C198 C201 1.481 . S
C199 C198 1.377 . S
C199 C200 1.389 . S
C199 H221 0.929 . S
C200 C196 1.397 . S
C200 C199 1.389 . S
C200 H222 0.931 . S
C201 C198 1.481 . S
C201 C202 1.387 . S
C201 C206 1.390 . S
C202 C201 1.387 . S
C202 C203 1.401 . S
C202 H223 0.930 . S
C203 C202 1.401 . S
C203 C204 1.376 . S
C203 C212 1.511 . S
C204 C203 1.376 . S
C204 C205 1.392 . S
C204 H225 0.931 . S
C205 C204 1.392 . S
C205 C206 1.361 . S
C205 C207 1.500 . S
C206 C201 1.390 . S
C206 C205 1.361 . S
C206 H224 0.931 . S
C207 C205 1.500 . S
C207 C208 1.371 . S
C207 C209 1.365 . S
C208 C207 1.371 . S
C208 C218 1.386 . S
C208 H226 0.931 . S
C209 C207 1.365 . S
C209 C210 1.409 . S
C209 H227 0.929 . S
C210 C209 1.409 . S
C210 C211 1.380 . S
C210 H228 0.930 . S
C211 C210 1.380 . S
C211 C218 1.357 . S
C212 C203 1.511 . S
C212 C213 1.341 . S
C212 C214 1.371 . S
C213 C212 1.341 . S
C213 C217 1.394 . S
C213 H229 0.930 . S
C214 C212 1.371 . S
C214 C215 1.392 . S
C214 H230 0.931 . S
C215 C214 1.392 . S
C215 C216 1.331 . S
C215 H233 0.932 . S
C216 C215 1.331 . S
C216 C217 1.336 . S
C217 C213 1.394 . S
C217 C216 1.336 . S
C217 H232 0.929 . S
C218 C208 1.386 . S
C218 C211 1.357 . S
C218 H231 0.928 . S
H219 C195 0.931 . S
H220 C197 0.930 . S
H221 C199 0.929 . S
H222 C200 0.931 . S
H223 C202 0.930 . S
H224 C206 0.931 . S
H225 C204 0.931 . S
H226 C208 0.931 . S
H227 C209 0.929 . S
H228 C210 0.930 . S
H229 C213 0.930 . S
H230 C214 0.931 . S
H231 C218 0.928 . S
H232 C217 0.929 . S
H233 C215 0.932 . S
C234 C235 1.386 . S
C234 C236 1.397 . S
C234 H258 0.931 . S
C235 C234 1.386 . S
C235 C239 1.397 . S
C236 C234 1.397 . S
C236 C237 1.384 . S
C236 H259 0.930 . S
C237 C236 1.384 . S
C237 C238 1.377 . S
C237 C240 1.481 . S
C238 C237 1.377 . S
C238 C239 1.389 . S
C238 H260 0.929 . S
C239 C235 1.397 . S
C239 C238 1.389 . S
C239 H261 0.931 . S
C240 C237 1.481 . S
C240 C241 1.387 . S
C240 C245 1.390 . S
C241 C240 1.387 . S
C241 C242 1.401 . S
C241 H262 0.930 . S
C242 C241 1.401 . S
C242 C243 1.376 . S
C242 C251 1.511 . S
C243 C242 1.376 . S
C243 C244 1.392 . S
C243 H264 0.931 . S
C244 C243 1.392 . S
C244 C245 1.361 . S
C244 C246 1.500 . S
C245 C240 1.390 . S
C245 C244 1.361 . S
C245 H263 0.931 . S
C246 C244 1.500 . S
C246 C247 1.371 . S
C246 C248 1.365 . S
C247 C246 1.371 . S
C247 C257 1.386 . S
C247 H265 0.931 . S
C248 C246 1.365 . S
C248 C249 1.409 . S
C248 H266 0.929 . S
C249 C248 1.409 . S
C249 C250 1.380 . S
C249 H267 0.930 . S
C250 C249 1.380 . S
C250 C257 1.357 . S
C251 C242 1.511 . S
C251 C252 1.341 . S
C251 C253 1.371 . S
C252 C251 1.341 . S
C252 C256 1.394 . S
C252 H268 0.930 . S
C253 C251 1.371 . S
C253 C254 1.392 . S
C253 H269 0.931 . S
C254 C253 1.392 . S
C254 C255 1.331 . S
C254 H272 0.932 . S
C255 C254 1.331 . S
C255 C256 1.336 . S
C256 C252 1.394 . S
C256 C255 1.336 . S
C256 H271 0.929 . S
C257 C247 1.386 . S
C257 C250 1.357 . S
C257 H270 0.928 . S
H258 C234 0.931 . S
H259 C236 0.930 . S
H260 C238 0.929 . S
H261 C239 0.931 . S
H262 C241 0.930 . S
H263 C245 0.931 . S
H264 C243 0.931 . S
H265 C247 0.931 . S
H266 C248 0.929 . S
H267 C249 0.930 . S
H268 C252 0.930 . S
H269 C253 0.931 . S
H270 C257 0.928 . S
H271 C256 0.929 . S
H272 C254 0.932 . S
C273 C274 1.386 . S
C273 C275 1.397 . S
C273 H297 0.931 . S
C274 C273 1.386 . S
C274 C278 1.397 . S
C275 C273 1.397 . S
C275 C276 1.384 . S
C275 H298 0.930 . S
C276 C275 1.384 . S
C276 C277 1.377 . S
C276 C279 1.481 . S
C277 C276 1.377 . S
C277 C278 1.389 . S
C277 H299 0.929 . S
C278 C274 1.397 . S
C278 C277 1.389 . S
C278 H300 0.931 . S
C279 C276 1.481 . S
C279 C280 1.387 . S
C279 C284 1.390 . S
C280 C279 1.387 . S
C280 C281 1.401 . S
C280 H301 0.930 . S
C281 C280 1.401 . S
C281 C282 1.376 . S
C281 C290 1.511 . S
C282 C281 1.376 . S
C282 C283 1.392 . S
C282 H303 0.931 . S
C283 C282 1.392 . S
C283 C284 1.361 . S
C283 C285 1.500 . S
C284 C279 1.390 . S
C284 C283 1.361 . S
C284 H302 0.931 . S
C285 C283 1.500 . S
C285 C286 1.371 . S
C285 C287 1.365 . S
C286 C285 1.371 . S
C286 C296 1.386 . S
C286 H304 0.931 . S
C287 C285 1.365 . S
C287 C288 1.409 . S
C287 H305 0.929 . S
C288 C287 1.409 . S
C288 C289 1.380 . S
C288 H306 0.930 . S
C289 C288 1.380 . S
C289 C296 1.357 . S
C290 C281 1.511 . S
C290 C291 1.341 . S
C290 C292 1.371 . S
C291 C290 1.341 . S
C291 C295 1.394 . S
C291 H307 0.930 . S
C292 C290 1.371 . S
C292 C293 1.392 . S
C292 H308 0.931 . S
C293 C292 1.392 . S
C293 C294 1.331 . S
C293 H311 0.932 . S
C294 C293 1.331 . S
C294 C295 1.336 . S
C295 C291 1.394 . S
C295 C294 1.336 . S
C295 H310 0.929 . S
C296 C286 1.386 . S
C296 C289 1.357 . S
C296 H309 0.928 . S
H297 C273 0.931 . S
H298 C275 0.930 . S
H299 C277 0.929 . S
H300 C278 0.931 . S
H301 C280 0.930 . S
H302 C284 0.931 . S
H303 C282 0.931 . S
H304 C286 0.931 . S
H305 C287 0.929 . S
H306 C288 0.930 . S
H307 C291 0.930 . S
H308 C292 0.931 . S
H309 C296 0.928 . S
H310 C295 0.929 . S
H311 C293 0.932 . S
C312 C313 1.443 . S
C312 N316 1.376 . S
C312 C350 1.389 . S
C313 C312 1.443 . S
C313 C314 1.340 . S
C313 H353 0.951 . S
C314 C313 1.340 . S
C314 C315 1.439 . S
C314 H354 0.950 . S
C315 C314 1.439 . S
C315 N316 1.374 . S
C315 C349 1.395 . S
N316 C312 1.376 . S
N316 C315 1.374 . S
N316 Co317 2.008 . S
Co317 N316 2.008 . S
Co317 N318 1.980 1_455 S
Co317 N323 2.008 . S
Co317 N328 1.995 . S
Co317 N333 2.282 . S
Co317 N339 2.282 1_455 S
N318 Co317 1.980 1_655 S
N318 C319 1.375 . S
N318 C322 1.401 . S
C319 N318 1.375 . S
C319 C320 1.454 . S
C319 C349 1.383 1_655 S
C320 C319 1.454 . S
C320 C321 1.339 . S
C320 H355 0.949 . S
C321 C320 1.339 . S
C321 C322 1.439 . S
C321 H356 0.950 . S
C322 N318 1.401 . S
C322 C321 1.439 . S
C322 C351 1.392 . S
N323 Co317 2.008 . S
N323 C324 1.376 1_455 S
N323 C327 1.374 . S
C324 N323 1.376 1_655 S
C324 C325 1.443 . S
C324 C351 1.389 . S
C325 C324 1.443 . S
C325 C326 1.340 . S
C325 H357 0.951 . S
C326 C325 1.340 . S
C326 C327 1.439 1_655 S
C326 H358 0.950 . S
C327 N323 1.374 . S
C327 C326 1.439 1_455 S
C327 C352 1.395 . S
N328 Co317 1.995 . S
N328 C329 1.376 . S
N328 C332 1.383 . S
C329 N328 1.376 . S
C329 C330 1.446 . S
C329 C352 1.391 . S
C330 C329 1.446 . S
C330 C331 1.339 . S
C330 H359 0.949 . S
C331 C330 1.339 . S
C331 C332 1.439 . S
C331 H360 0.950 . S
C332 N328 1.383 . S
C332 C331 1.439 . S
C332 C350 1.392 . S
N333 Co317 2.282 . S
N333 C336 1.332 . S
N333 C338 1.332 . S
C334 C335 1.386 . S
C334 C337 1.388 . S
C335 C334 1.386 . S
C335 C336 1.382 . S
C335 H361 0.950 . S
C336 N333 1.332 . S
C336 C335 1.382 . S
C336 H347 0.952 . S
C337 C334 1.388 . S
C337 C338 1.382 . S
C337 H362 0.950 . S
C338 N333 1.332 . S
C338 C337 1.382 . S
C338 H348 0.948 . S
N339 Co317 2.282 1_655 S
N339 C343 1.332 . S
N339 C344 1.332 . S
C340 C341 1.388 . S
C340 C344 1.382 . S
C340 H363 0.950 . S
C341 C340 1.388 . S
C341 C342 1.386 . S
C342 C341 1.386 . S
C342 C343 1.382 . S
C342 H364 0.950 . S
C343 N339 1.332 . S
C343 C342 1.382 . S
C343 H345 0.952 . S
C344 N339 1.332 . S
C344 C340 1.382 . S
C344 H346 0.948 . S
H345 C343 0.952 . S
H346 C344 0.948 . S
H347 C336 0.952 . S
H348 C338 0.948 . S
C349 C315 1.395 . S
C349 C319 1.383 1_455 S
C350 C312 1.389 . S
C350 C332 1.392 . S
C351 C322 1.392 . S
C351 C324 1.389 . S
C352 C327 1.395 . S
C352 C329 1.391 . S
H353 C313 0.951 . S
H354 C314 0.950 . S
H355 C320 0.949 . S
H356 C321 0.950 . S
H357 C325 0.951 . S
H358 C326 0.950 . S
H359 C330 0.949 . S
H360 C331 0.950 . S
H361 C335 0.950 . S
H362 C337 0.950 . S
H363 C340 0.950 . S
H364 C342 0.950 . S
C365 C366 1.443 . S
C365 N369 1.376 . S
C365 C403 1.389 . S
C366 C365 1.443 . S
C366 C367 1.340 . S
C366 H406 0.951 . S
C367 C366 1.340 . S
C367 C368 1.439 . S
C367 H407 0.950 . S
C368 C367 1.439 . S
C368 N369 1.374 . S
C368 C402 1.395 . S
N369 C365 1.376 . S
N369 C368 1.374 . S
N369 Co370 2.008 . S
Co370 N369 2.008 . S
Co370 N371 1.995 1_455 S
Co370 N376 2.008 1_455 S
Co370 N381 1.995 . S
Co370 N386 2.282 . S
Co370 N392 2.282 1_455 S
N371 Co370 1.995 1_655 S
N371 C372 1.376 . S
N371 C375 1.383 . S
C372 N371 1.376 . S
C372 C373 1.446 . S
C372 C402 1.391 1_655 S
C373 C372 1.446 . S
C373 C374 1.339 . S
C373 H408 0.949 . S
C374 C373 1.339 . S
C374 C375 1.439 . S
C374 H409 0.950 . S
C375 N371 1.383 . S
C375 C374 1.439 . S
C375 C404 1.392 . S
N376 Co370 2.008 1_655 S
N376 C377 1.376 . S
N376 C380 1.374 . S
C377 N376 1.376 . S
C377 C378 1.443 . S
C377 C404 1.389 . S
C378 C377 1.443 . S
C378 C379 1.340 . S
C378 H410 0.951 . S
C379 C378 1.340 . S
C379 C380 1.439 . S
C379 H411 0.950 . S
C380 N376 1.374 . S
C380 C379 1.439 . S
C380 C405 1.395 1_655 S
N381 Co370 1.995 . S
N381 C382 1.376 . S
N381 C385 1.383 . S
C382 N381 1.376 . S
C382 C383 1.446 . S
C382 C405 1.391 . S
C383 C382 1.446 . S
C383 C384 1.339 . S
C383 H412 0.949 . S
C384 C383 1.339 . S
C384 C385 1.439 . S
C384 H413 0.950 . S
C385 N381 1.383 . S
C385 C384 1.439 . S
C385 C403 1.392 . S
N386 Co370 2.282 . S
N386 C389 1.332 . S
N386 C391 1.332 . S
C387 C388 1.386 . S
C387 C390 1.388 . S
C388 C387 1.386 . S
C388 C389 1.382 . S
C388 H414 0.950 . S
C389 N386 1.332 . S
C389 C388 1.382 . S
C389 H400 0.952 . S
C390 C387 1.388 . S
C390 C391 1.382 . S
C390 H415 0.950 . S
C391 N386 1.332 . S
C391 C390 1.382 . S
C391 H401 0.948 . S
N392 Co370 2.282 1_655 S
N392 C396 1.332 . S
N392 C397 1.332 . S
C393 C394 1.388 . S
C393 C397 1.382 . S
C393 H416 0.950 . S
C394 C393 1.388 . S
C394 C395 1.386 . S
C395 C394 1.386 . S
C395 C396 1.382 . S
C395 H417 0.950 . S
C396 N392 1.332 . S
C396 C395 1.382 . S
C396 H398 0.952 . S
C397 N392 1.332 . S
C397 C393 1.382 . S
C397 H399 0.948 . S
H398 C396 0.952 . S
H399 C397 0.948 . S
H400 C389 0.952 . S
H401 C391 0.948 . S
C402 C368 1.395 . S
C402 C372 1.391 1_455 S
C403 C365 1.389 . S
C403 C385 1.392 . S
C404 C375 1.392 . S
C404 C377 1.389 . S
C405 C380 1.395 1_455 S
C405 C382 1.391 . S
H406 C366 0.951 . S
H407 C367 0.950 . S
H408 C373 0.949 . S
H409 C374 0.950 . S
H410 C378 0.951 . S
H411 C379 0.950 . S
H412 C383 0.949 . S
H413 C384 0.950 . S
H414 C388 0.950 . S
H415 C390 0.950 . S
H416 C393 0.950 . S
H417 C395 0.950 . S
C418 C419 1.443 . S
C418 N422 1.376 . S
C418 C456 1.389 . S
C419 C418 1.443 . S
C419 C420 1.340 . S
C419 H459 0.951 . S
C420 C419 1.340 . S
C420 C421 1.439 . S
C420 H460 0.950 . S
C421 C420 1.439 . S
C421 N422 1.374 . S
C421 C455 1.395 1_565 S
N422 C418 1.376 . S
N422 C421 1.374 . S
N422 Co423 2.008 1_565 S
Co423 N422 2.008 1_545 S
Co423 N424 1.995 . S
Co423 N429 2.008 . S
Co423 N434 1.995 1_545 S
Co423 N439 2.282 . S
Co423 N445 2.282 1_545 S
N424 Co423 1.995 . S
N424 C425 1.376 . S
N424 C428 1.383 . S
C425 N424 1.376 . S
C425 C426 1.446 . S
C425 C455 1.391 . S
C426 C425 1.446 . S
C426 C427 1.339 . S
C426 H461 0.949 . S
C427 C426 1.339 . S
C427 C428 1.439 . S
C427 H462 0.950 . S
C428 N424 1.383 . S
C428 C427 1.439 . S
C428 C457 1.392 . S
N429 Co423 2.008 . S
N429 C430 1.376 . S
N429 C433 1.374 . S
C430 N429 1.376 . S
C430 C431 1.443 . S
C430 C457 1.389 . S
C431 C430 1.443 . S
C431 C432 1.340 . S
C431 H463 0.951 . S
C432 C431 1.340 . S
C432 C433 1.439 . S
C432 H464 0.950 . S
C433 N429 1.374 . S
C433 C432 1.439 . S
C433 C458 1.395 . S
N434 Co423 1.995 1_565 S
N434 C435 1.376 . S
N434 C438 1.383 . S
C435 N434 1.376 . S
C435 C436 1.446 . S
C435 C458 1.391 1_565 S
C436 C435 1.446 . S
C436 C437 1.339 . S
C436 H465 0.949 . S
C437 C436 1.339 . S
C437 C438 1.439 . S
C437 H466 0.950 . S
C438 N434 1.383 . S
C438 C437 1.439 . S
C438 C456 1.392 . S
N439 Co423 2.282 . S
N439 C442 1.332 . S
N439 C444 1.332 . S
C440 C441 1.386 . S
C440 C443 1.388 . S
C441 C440 1.386 . S
C441 C442 1.382 . S
C441 H467 0.950 . S
C442 N439 1.332 . S
C442 C441 1.382 . S
C442 H453 0.952 . S
C443 C440 1.388 . S
C443 C444 1.382 . S
C443 H468 0.950 . S
C444 N439 1.332 . S
C444 C443 1.382 . S
C444 H454 0.948 . S
N445 Co423 2.282 1_565 S
N445 C449 1.332 . S
N445 C450 1.332 . S
C446 C447 1.388 . S
C446 C450 1.382 . S
C446 H469 0.950 . S
C447 C446 1.388 . S
C447 C448 1.386 . S
C448 C447 1.386 . S
C448 C449 1.382 . S
C448 H470 0.950 . S
C449 N445 1.332 . S
C449 C448 1.382 . S
C449 H451 0.952 . S
C450 N445 1.332 . S
C450 C446 1.382 . S
C450 H452 0.948 . S
H451 C449 0.952 . S
H452 C450 0.948 . S
H453 C442 0.952 . S
H454 C444 0.948 . S
C455 C421 1.395 1_545 S
C455 C425 1.391 . S
C456 C418 1.389 . S
C456 C438 1.392 . S
C457 C428 1.392 . S
C457 C430 1.389 . S
C458 C433 1.395 . S
C458 C435 1.391 1_545 S
H459 C419 0.951 . S
H460 C420 0.950 . S
H461 C426 0.949 . S
H462 C427 0.950 . S
H463 C431 0.951 . S
H464 C432 0.950 . S
H465 C436 0.949 . S
H466 C437 0.950 . S
H467 C441 0.950 . S
H468 C443 0.950 . S
H469 C446 0.950 . S
H470 C448 0.950 . S
C471 C472 1.443 . S
C471 N475 1.376 . S
C471 C509 1.389 . S
C472 C471 1.443 . S
C472 C473 1.340 . S
C472 H512 0.951 . S
C473 C472 1.340 . S
C473 C474 1.439 . S
C473 H513 0.950 . S
C474 C473 1.439 . S
C474 N475 1.374 . S
C474 C508 1.395 . S
N475 C471 1.376 . S
N475 C474 1.374 . S
N475 Co476 2.008 . S
Co476 N475 2.008 . S
Co476 N477 1.981 1_554 S
Co476 N482 2.008 1_554 S
Co476 N487 1.995 . S
Co476 N492 2.282 1_554 S
Co476 N498 2.282 . S
N477 Co476 1.981 1_556 S
N477 C478 1.372 1_556 S
N477 C481 1.407 . S
C478 N477 1.372 1_554 S
C478 C479 1.446 1_554 S
C478 C508 1.391 . S
C479 C478 1.446 1_556 S
C479 C480 1.339 . S
C479 H514 0.949 . S
C480 C479 1.339 . S
C480 C481 1.439 . S
C480 H515 0.950 . S
C481 N477 1.407 . S
C481 C480 1.439 . S
C481 C510 1.392 . S
N482 Co476 2.008 1_556 S
N482 C483 1.376 . S
N482 C486 1.374 . S
C483 N482 1.376 . S
C483 C484 1.443 . S
C483 C510 1.389 . S
C484 C483 1.443 . S
C484 C485 1.340 . S
C484 H516 0.951 . S
C485 C484 1.340 . S
C485 C486 1.439 . S
C485 H517 0.950 . S
C486 N482 1.374 . S
C486 C485 1.439 . S
C486 C511 1.395 1_556 S
N487 Co476 1.995 . S
N487 C488 1.376 . S
N487 C491 1.383 . S
C488 N487 1.376 . S
C488 C489 1.446 . S
C488 C511 1.391 . S
C489 C488 1.446 . S
C489 C490 1.339 . S
C489 H518 0.949 . S
C490 C489 1.339 . S
C490 C491 1.439 . S
C490 H519 0.950 . S
C491 N487 1.383 . S
C491 C490 1.439 . S
C491 C509 1.392 . S
N492 Co476 2.282 1_556 S
N492 C495 1.332 . S
N492 C497 1.332 . S
C493 C494 1.386 . S
C493 C496 1.388 . S
C494 C493 1.386 . S
C494 C495 1.382 . S
C494 H520 0.950 . S
C495 N492 1.332 . S
C495 C494 1.382 . S
C495 H506 0.952 . S
C496 C493 1.388 . S
C496 C497 1.382 . S
C496 H521 0.950 . S
C497 N492 1.332 . S
C497 C496 1.382 . S
C497 H507 0.948 . S
N498 Co476 2.282 . S
N498 C502 1.332 . S
N498 C503 1.332 . S
C499 C500 1.388 . S
C499 C503 1.382 . S
C499 H522 0.950 . S
C500 C499 1.388 . S
C500 C501 1.386 . S
C501 C500 1.386 . S
C501 C502 1.382 . S
C501 H523 0.950 . S
C502 N498 1.332 . S
C502 C501 1.382 . S
C502 H504 0.952 . S
C503 N498 1.332 . S
C503 C499 1.382 . S
C503 H505 0.948 . S
H504 C502 0.952 . S
H505 C503 0.948 . S
H506 C495 0.952 . S
H507 C497 0.948 . S
C508 C474 1.395 . S
C508 C478 1.391 . S
C509 C471 1.389 . S
C509 C491 1.392 . S
C510 C481 1.392 . S
C510 C483 1.389 . S
C511 C486 1.395 1_554 S
C511 C488 1.391 . S
H512 C472 0.951 . S
H513 C473 0.950 . S
H514 C479 0.949 . S
H515 C480 0.950 . S
H516 C484 0.951 . S
H517 C485 0.950 . S
H518 C489 0.949 . S
H519 C490 0.950 . S
H520 C494 0.950 . S
H521 C496 0.950 . S
H522 C499 0.950 . S
H523 C501 0.950 . S
C524 C525 1.443 . S
C524 N528 1.360 1_565 S
C524 C562 1.389 . S
C525 C524 1.443 . S
C525 C526 1.340 . S
C525 H565 0.951 . S
C526 C525 1.340 . S
C526 C527 1.439 1_565 S
C526 H566 0.950 . S
C527 C526 1.439 1_545 S
C527 N528 1.374 . S
C527 C561 1.395 . S
N528 C524 1.360 1_545 S
N528 C527 1.374 . S
N528 Co529 2.020 . S
Co529 N528 2.020 . S
Co529 N530 1.995 . S
Co529 N535 2.008 . S
Co529 N540 1.995 . S
Co529 N545 2.282 . S
Co529 N551 2.282 1_545 S
N530 Co529 1.995 . S
N530 C531 1.376 . S
N530 C534 1.383 . S
C531 N530 1.376 . S
C531 C532 1.446 . S
C531 C561 1.391 . S
C532 C531 1.446 . S
C532 C533 1.339 . S
C532 H567 0.949 . S
C533 C532 1.339 . S
C533 C534 1.439 . S
C533 H568 0.950 . S
C534 N530 1.383 . S
C534 C533 1.439 . S
C534 C563 1.392 . S
N535 Co529 2.008 . S
N535 C536 1.376 . S
N535 C539 1.374 . S
C536 N535 1.376 . S
C536 C537 1.443 . S
C536 C563 1.389 . S
C537 C536 1.443 . S
C537 C538 1.340 . S
C537 H569 0.951 . S
C538 C537 1.340 . S
C538 C539 1.439 . S
C538 H570 0.950 . S
C539 N535 1.374 . S
C539 C538 1.439 . S
C539 C564 1.395 . S
N540 Co529 1.995 . S
N540 C541 1.376 . S
N540 C544 1.383 1_545 S
C541 N540 1.376 . S
C541 C542 1.446 1_545 S
C541 C564 1.391 . S
C542 C541 1.446 1_565 S
C542 C543 1.339 . S
C542 H571 0.949 . S
C543 C542 1.339 . S
C543 C544 1.439 . S
C543 H572 0.950 . S
C544 N540 1.383 1_565 S
C544 C543 1.439 . S
C544 C562 1.392 . S
N545 Co529 2.282 . S
N545 C548 1.332 . S
N545 C550 1.332 . S
C546 C547 1.386 . S
C546 C549 1.388 . S
C547 C546 1.386 . S
C547 C548 1.382 . S
C547 H573 0.950 . S
C548 N545 1.332 . S
C548 C547 1.382 . S
C548 H559 0.952 . S
C549 C546 1.388 . S
C549 C550 1.382 . S
C549 H574 0.950 . S
C550 N545 1.332 . S
C550 C549 1.382 . S
C550 H560 0.948 . S
N551 Co529 2.282 1_565 S
N551 C555 1.332 . S
N551 C556 1.332 . S
C552 C553 1.388 . S
C552 C556 1.382 . S
C552 H575 0.950 . S
C553 C552 1.388 . S
C553 C554 1.386 . S
C554 C553 1.386 . S
C554 C555 1.382 . S
C554 H576 0.950 . S
C555 N551 1.332 . S
C555 C554 1.382 . S
C555 H557 0.952 . S
C556 N551 1.332 . S
C556 C552 1.382 . S
C556 H558 0.948 . S
H557 C555 0.952 . S
H558 C556 0.948 . S
H559 C548 0.952 . S
H560 C550 0.948 . S
C561 C527 1.395 . S
C561 C531 1.391 . S
C562 C524 1.389 . S
C562 C544 1.392 . S
C563 C534 1.392 . S
C563 C536 1.389 . S
C564 C539 1.395 . S
C564 C541 1.391 . S
H565 C525 0.951 . S
H566 C526 0.950 . S
H567 C532 0.949 . S
H568 C533 0.950 . S
H569 C537 0.951 . S
H570 C538 0.950 . S
H571 C542 0.949 . S
H572 C543 0.950 . S
H573 C547 0.950 . S
H574 C549 0.950 . S
H575 C552 0.950 . S
H576 C554 0.950 . S
C577 C578 1.443 . S
C577 N581 1.376 . S
C577 C615 1.389 . S
C578 C577 1.443 . S
C578 C579 1.340 . S
C578 H618 0.951 . S
C579 C578 1.340 . S
C579 C580 1.439 . S
C579 H619 0.950 . S
C580 C579 1.439 . S
C580 N581 1.374 . S
C580 C614 1.395 . S
N581 C577 1.376 . S
N581 C580 1.374 . S
N581 Co582 2.008 . S
Co582 N581 2.008 . S
Co582 N583 1.995 . S
Co582 N588 2.008 . S
Co582 N593 1.995 . S
Co582 N598 2.282 1_554 S
Co582 N604 2.282 . S
N583 Co582 1.995 . S
N583 C584 1.376 . S
N583 C587 1.383 1_554 S
C584 N583 1.376 . S
C584 C585 1.446 1_554 S
C584 C614 1.391 . S
C585 C584 1.446 1_556 S
C585 C586 1.339 . S
C585 H620 0.949 . S
C586 C585 1.339 . S
C586 C587 1.439 . S
C586 H621 0.950 . S
C587 N583 1.383 1_556 S
C587 C586 1.439 . S
C587 C616 1.392 . S
N588 Co582 2.008 . S
N588 C589 1.376 1_554 S
N588 C592 1.374 . S
C589 N588 1.376 1_556 S
C589 C590 1.443 . S
C589 C616 1.389 . S
C590 C589 1.443 . S
C590 C591 1.340 . S
C590 H622 0.951 . S
C591 C590 1.340 . S
C591 C592 1.439 1_556 S
C591 H623 0.950 . S
C592 N588 1.374 . S
C592 C591 1.439 1_554 S
C592 C617 1.395 . S
N593 Co582 1.995 . S
N593 C594 1.376 . S
N593 C597 1.383 . S
C594 N593 1.376 . S
C594 C595 1.446 . S
C594 C617 1.391 . S
C595 C594 1.446 . S
C595 C596 1.339 . S
C595 H624 0.949 . S
C596 C595 1.339 . S
C596 C597 1.439 . S
C596 H625 0.950 . S
C597 N593 1.383 . S
C597 C596 1.439 . S
C597 C615 1.392 . S
N598 Co582 2.282 1_556 S
N598 C601 1.332 . S
N598 C603 1.332 . S
C599 C600 1.386 . S
C599 C602 1.388 . S
C600 C599 1.386 . S
C600 C601 1.382 . S
C600 H626 0.950 . S
C601 N598 1.332 . S
C601 C600 1.382 . S
C601 H612 0.952 1_556 S
C602 C599 1.388 . S
C602 C603 1.382 . S
C602 H627 0.950 . S
C603 N598 1.332 . S
C603 C602 1.382 . S
C603 H613 0.948 . S
N604 Co582 2.282 . S
N604 C608 1.332 . S
N604 C609 1.332 . S
C605 C606 1.388 . S
C605 C609 1.382 . S
C605 H628 0.950 . S
C606 C605 1.388 . S
C606 C607 1.386 . S
C607 C606 1.386 . S
C607 C608 1.382 . S
C607 H629 0.950 . S
C608 N604 1.332 . S
C608 C607 1.382 . S
C608 H610 0.952 . S
C609 N604 1.332 . S
C609 C605 1.382 . S
C609 H611 0.948 . S
H610 C608 0.952 . S
H611 C609 0.948 . S
H612 C601 0.952 1_554 S
H613 C603 0.948 . S
C614 C580 1.395 . S
C614 C584 1.391 . S
C615 C577 1.389 . S
C615 C597 1.392 . S
C616 C587 1.392 . S
C616 C589 1.389 . S
C617 C592 1.395 . S
C617 C594 1.391 . S
H618 C578 0.951 . S
H619 C579 0.950 . S
H620 C585 0.949 . S
H621 C586 0.950 . S
H622 C590 0.951 . S
H623 C591 0.950 . S
H624 C595 0.949 . S
H625 C596 0.950 . S
H626 C600 0.950 . S
H627 C602 0.950 . S
H628 C605 0.950 . S
H629 C607 0.950 . S
C630 C631 1.363 . S
C630 C636 1.379 . S
C630 N638 1.356 . S
C631 C630 1.363 . S
C631 C637 1.363 . S
C632 C633 1.363 . S
C632 C637 1.379 . S
C632 N639 1.356 . S
C633 C632 1.363 . S
C633 C636 1.363 . S
N634 C636 1.356 . S
N634 H646 0.984 . S
N634 H647 0.985 . S
N635 C637 1.356 . S
N635 H640 0.984 . S
N635 H641 0.985 . S
C636 C630 1.379 . S
C636 C633 1.363 . S
C636 N634 1.356 . S
C637 C631 1.363 . S
C637 C632 1.379 . S
C637 N635 1.356 . S
N638 C630 1.356 . S
N638 H644 0.984 . S
N638 H645 0.984 . S
N639 C632 1.356 . S
N639 H642 0.984 . S
N639 H643 0.985 . S
H640 N635 0.984 . S
H641 N635 0.985 . S
H642 N639 0.984 . S
H643 N639 0.985 . S
H644 N638 0.984 . S
H645 N638 0.984 . S
H646 N634 0.984 . S
H647 N634 0.985 . S
C648 C649 1.363 . S
C648 C654 1.379 . S
C648 N656 1.356 . S
C649 C648 1.363 . S
C649 C655 1.363 . S
C650 C651 1.363 . S
C650 C655 1.379 . S
C650 N657 1.356 . S
C651 C650 1.363 . S
C651 C654 1.363 . S
N652 C654 1.356 . S
N652 H664 0.984 . S
N652 H665 0.985 . S
N653 C655 1.356 . S
N653 H658 0.984 . S
N653 H659 0.985 . S
C654 C648 1.379 . S
C654 C651 1.363 . S
C654 N652 1.356 . S
C655 C649 1.363 . S
C655 C650 1.379 . S
C655 N653 1.356 . S
N656 C648 1.356 . S
N656 H662 0.984 . S
N656 H663 0.984 . S
N657 C650 1.356 . S
N657 H660 0.984 . S
N657 H661 0.985 . S
H658 N653 0.984 . S
H659 N653 0.985 . S
H660 N657 0.984 . S
H661 N657 0.985 . S
H662 N656 0.984 . S
H663 N656 0.984 . S
H664 N652 0.984 . S
H665 N652 0.985 . S
C666 C667 1.363 . S
C666 C672 1.379 . S
C666 N674 1.356 . S
C667 C666 1.363 . S
C667 C673 1.363 . S
C668 C669 1.363 . S
C668 C673 1.379 . S
C668 N675 1.356 . S
C669 C668 1.363 . S
C669 C672 1.363 . S
N670 C672 1.356 . S
N670 H682 0.984 . S
N670 H683 0.985 . S
N671 C673 1.356 . S
N671 H676 0.984 . S
N671 H677 0.985 . S
C672 C666 1.379 . S
C672 C669 1.363 . S
C672 N670 1.356 . S
C673 C667 1.363 . S
C673 C668 1.379 . S
C673 N671 1.356 . S
N674 C666 1.356 . S
N674 H680 0.984 . S
N674 H681 0.984 . S
N675 C668 1.356 . S
N675 H678 0.984 . S
N675 H679 0.985 . S
H676 N671 0.984 . S
H677 N671 0.985 . S
H678 N675 0.984 . S
H679 N675 0.985 . S
H680 N674 0.984 . S
H681 N674 0.984 . S
H682 N670 0.984 . S
H683 N670 0.985 . S
C684 C685 1.363 . S
C684 C690 1.379 . S
C684 N692 1.356 . S
C685 C684 1.363 . S
C685 C691 1.363 . S
C686 C687 1.363 . S
C686 C691 1.379 . S
C686 N693 1.356 . S
C687 C686 1.363 . S
C687 C690 1.363 . S
N688 C690 1.356 . S
N688 H700 0.984 . S
N688 H701 0.985 . S
N689 C691 1.356 . S
N689 H694 0.984 . S
N689 H695 0.985 . S
C690 C684 1.379 . S
C690 C687 1.363 . S
C690 N688 1.356 . S
C691 C685 1.363 . S
C691 C686 1.379 . S
C691 N689 1.356 . S
N692 C684 1.356 . S
N692 H698 0.984 . S
N692 H699 0.984 . S
N693 C686 1.356 . S
N693 H696 0.984 . S
N693 H697 0.985 . S
H694 N689 0.984 . S
H695 N689 0.985 . S
H696 N693 0.984 . S
H697 N693 0.985 . S
H698 N692 0.984 . S
H699 N692 0.984 . S
H700 N688 0.984 . S
H701 N688 0.985 . S
C702 C703 1.363 . S
C702 C708 1.379 . S
C702 N710 1.356 . S
C703 C702 1.363 . S
C703 C709 1.363 . S
C704 C705 1.363 . S
C704 C709 1.379 . S
C704 N711 1.356 . S
C705 C704 1.363 . S
C705 C708 1.363 . S
N706 C708 1.356 . S
N706 H718 0.984 . S
N706 H719 0.985 . S
N707 C709 1.356 . S
N707 H712 0.984 . S
N707 H713 0.985 . S
C708 C702 1.379 . S
C708 C705 1.363 . S
C708 N706 1.356 . S
C709 C703 1.363 . S
C709 C704 1.379 . S
C709 N707 1.356 . S
N710 C702 1.356 . S
N710 H716 0.984 . S
N710 H717 0.984 . S
N711 C704 1.356 . S
N711 H714 0.984 . S
N711 H715 0.985 . S
H712 N707 0.984 . S
H713 N707 0.985 . S
H714 N711 0.984 . S
H715 N711 0.985 . S
H716 N710 0.984 . S
H717 N710 0.984 . S
H718 N706 0.984 . S
H719 N706 0.985 . S
C720 C721 1.363 . S
C720 C726 1.379 . S
C720 N728 1.356 . S
C721 C720 1.363 . S
C721 C727 1.363 . S
C722 C723 1.363 . S
C722 C727 1.379 . S
C722 N729 1.356 . S
C723 C722 1.363 . S
C723 C726 1.363 . S
N724 C726 1.356 . S
N724 H736 0.984 . S
N724 H737 0.985 . S
N725 C727 1.356 . S
N725 H730 0.984 . S
N725 H731 0.985 . S
C726 C720 1.379 . S
C726 C723 1.363 . S
C726 N724 1.356 . S
C727 C721 1.363 . S
C727 C722 1.379 . S
C727 N725 1.356 . S
N728 C720 1.356 . S
N728 H734 0.984 . S
N728 H735 0.984 . S
N729 C722 1.356 . S
N729 H732 0.984 . S
N729 H733 0.985 . S
H730 N725 0.984 . S
H731 N725 0.985 . S
H732 N729 0.984 . S
H733 N729 0.985 . S
H734 N728 0.984 . S
H735 N728 0.984 . S
H736 N724 0.984 . S
H737 N724 0.985 . S
C738 C739 1.363 . S
C738 C744 1.379 . S
C738 N746 1.356 . S
C739 C738 1.363 . S
C739 C745 1.363 . S
C740 C741 1.363 . S
C740 C745 1.379 . S
C740 N747 1.356 . S
C741 C740 1.363 . S
C741 C744 1.363 . S
N742 C744 1.356 . S
N742 H754 0.984 . S
N742 H755 0.985 . S
N743 C745 1.356 . S
N743 H748 0.984 . S
N743 H749 0.985 . S
C744 C738 1.379 . S
C744 C741 1.363 . S
C744 N742 1.356 . S
C745 C739 1.363 . S
C745 C740 1.379 . S
C745 N743 1.356 . S
N746 C738 1.356 . S
N746 H752 0.984 . S
N746 H753 0.984 . S
N747 C740 1.356 . S
N747 H750 0.984 . S
N747 H751 0.985 . S
H748 N743 0.984 . S
H749 N743 0.985 . S
H750 N747 0.984 . S
H751 N747 0.985 . S
H752 N746 0.984 . S
H753 N746 0.984 . S
H754 N742 0.984 . S
H755 N742 0.985 . S
C756 C757 1.363 . S
C756 C762 1.379 . S
C756 N764 1.356 . S
C757 C756 1.363 . S
C757 C763 1.363 . S
C758 C759 1.363 . S
C758 C763 1.379 . S
C758 N765 1.356 . S
C759 C758 1.363 . S
C759 C762 1.363 . S
N760 C762 1.356 . S
N760 H772 0.984 . S
N760 H773 0.985 . S
N761 C763 1.356 . S
N761 H766 0.984 . S
N761 H767 0.985 . S
C762 C756 1.379 . S
C762 C759 1.363 . S
C762 N760 1.356 . S
C763 C757 1.363 . S
C763 C758 1.379 . S
C763 N761 1.356 . S
N764 C756 1.356 . S
N764 H770 0.984 . S
N764 H771 0.984 . S
N765 C758 1.356 . S
N765 H768 0.984 . S
N765 H769 0.985 . S
H766 N761 0.984 . S
H767 N761 0.985 . S
H768 N765 0.984 . S
H769 N765 0.985 . S
H770 N764 0.984 . S
H771 N764 0.984 . S
H772 N760 0.984 . S
H773 N760 0.985 . S
C774 C775 1.363 . S
C774 C780 1.379 . S
C774 N782 1.356 . S
C775 C774 1.363 . S
C775 C781 1.363 . S
C776 C777 1.363 . S
C776 C781 1.379 . S
C776 N783 1.356 . S
C777 C776 1.363 . S
C777 C780 1.363 . S
N778 C780 1.356 . S
N778 H790 0.984 . S
N778 H791 0.985 . S
N779 C781 1.356 . S
N779 H784 0.984 . S
N779 H785 0.985 . S
C780 C774 1.379 . S
C780 C777 1.363 . S
C780 N778 1.356 . S
C781 C775 1.363 . S
C781 C776 1.379 . S
C781 N779 1.356 . S
N782 C774 1.356 . S
N782 H788 0.984 . S
N782 H789 0.984 . S
N783 C776 1.356 . S
N783 H786 0.984 . S
N783 H787 0.985 . S
H784 N779 0.984 . S
H785 N779 0.985 . S
H786 N783 0.984 . S
H787 N783 0.985 . S
H788 N782 0.984 . S
H789 N782 0.984 . S
H790 N778 0.984 . S
H791 N778 0.985 . S
C792 C793 1.363 . S
C792 C798 1.379 . S
C792 N800 1.356 . S
C793 C792 1.363 . S
C793 C799 1.363 . S
C794 C795 1.363 . S
C794 C799 1.379 . S
C794 N801 1.356 . S
C795 C794 1.363 . S
C795 C798 1.363 . S
N796 C798 1.356 . S
N796 H808 0.984 . S
N796 H809 0.985 . S
N797 C799 1.356 . S
N797 H802 0.984 . S
N797 H803 0.985 . S
C798 C792 1.379 . S
C798 C795 1.363 . S
C798 N796 1.356 . S
C799 C793 1.363 . S
C799 C794 1.379 . S
C799 N797 1.356 . S
N800 C792 1.356 . S
N800 H806 0.984 . S
N800 H807 0.984 . S
N801 C794 1.356 . S
N801 H804 0.984 . S
N801 H805 0.985 . S
H802 N797 0.984 . S
H803 N797 0.985 . S
H804 N801 0.984 . S
H805 N801 0.985 . S
H806 N800 0.984 . S
H807 N800 0.984 . S
H808 N796 0.984 . S
H809 N796 0.985 . S
C810 C811 1.363 . S
C810 C816 1.379 . S
C810 N818 1.356 . S
C811 C810 1.363 . S
C811 C817 1.363 . S
C812 C813 1.363 . S
C812 C817 1.379 . S
C812 N819 1.356 . S
C813 C812 1.363 . S
C813 C816 1.363 . S
N814 C816 1.356 . S
N814 H826 0.984 . S
N814 H827 0.985 . S
N815 C817 1.356 . S
N815 H820 0.984 . S
N815 H821 0.985 . S
C816 C810 1.379 . S
C816 C813 1.363 . S
C816 N814 1.356 . S
C817 C811 1.363 . S
C817 C812 1.379 . S
C817 N815 1.356 . S
N818 C810 1.356 . S
N818 H824 0.984 . S
N818 H825 0.984 . S
N819 C812 1.356 . S
N819 H822 0.984 . S
N819 H823 0.985 . S
H820 N815 0.984 . S
H821 N815 0.985 . S
H822 N819 0.984 . S
H823 N819 0.985 . S
H824 N818 0.984 . S
H825 N818 0.984 . S
H826 N814 0.984 . S
H827 N814 0.985 . S
C828 C829 1.363 . S
C828 C834 1.379 . S
C828 N836 1.356 . S
C829 C828 1.363 . S
C829 C835 1.363 . S
C830 C831 1.363 . S
C830 C835 1.379 . S
C830 N837 1.356 . S
C831 C830 1.363 . S
C831 C834 1.363 . S
N832 C834 1.356 . S
N832 H844 0.984 . S
N832 H845 0.985 . S
N833 C835 1.356 . S
N833 H838 0.984 . S
N833 H839 0.985 . S
C834 C828 1.379 . S
C834 C831 1.363 . S
C834 N832 1.356 . S
C835 C829 1.363 . S
C835 C830 1.379 . S
C835 N833 1.356 . S
N836 C828 1.356 . S
N836 H842 0.984 . S
N836 H843 0.984 . S
N837 C830 1.356 . S
N837 H840 0.984 . S
N837 H841 0.985 . S
H838 N833 0.984 . S
H839 N833 0.985 . S
H840 N837 0.984 . S
H841 N837 0.985 . S
H842 N836 0.984 . S
H843 N836 0.984 . S
H844 N832 0.984 . S
H845 N832 0.985 . S
C846 C847 1.363 . S
C846 C852 1.379 . S
C846 N854 1.356 . S
C847 C846 1.363 . S
C847 C853 1.363 . S
C848 C849 1.363 . S
C848 C853 1.379 . S
C848 N855 1.356 . S
C849 C848 1.363 . S
C849 C852 1.363 . S
N850 C852 1.356 . S
N850 H862 0.984 . S
N850 H863 0.985 . S
N851 C853 1.356 . S
N851 H856 0.984 . S
N851 H857 0.985 . S
C852 C846 1.379 . S
C852 C849 1.363 . S
C852 N850 1.356 . S
C853 C847 1.363 . S
C853 C848 1.379 . S
C853 N851 1.356 . S
N854 C846 1.356 . S
N854 H860 0.984 . S
N854 H861 0.984 . S
N855 C848 1.356 . S
N855 H858 0.984 . S
N855 H859 0.985 . S
H856 N851 0.984 . S
H857 N851 0.985 . S
H858 N855 0.984 . S
H859 N855 0.985 . S
H860 N854 0.984 . S
H861 N854 0.984 . S
H862 N850 0.984 . S
H863 N850 0.985 . S
C864 C865 1.363 . S
C864 C870 1.379 . S
C864 N872 1.356 . S
C865 C864 1.363 . S
C865 C871 1.363 . S
C866 C867 1.363 . S
C866 C871 1.379 . S
C866 N873 1.356 . S
C867 C866 1.363 . S
C867 C870 1.363 . S
N868 C870 1.356 . S
N868 H880 0.984 . S
N868 H881 0.985 . S
N869 C871 1.356 . S
N869 H874 0.984 . S
N869 H875 0.985 . S
C870 C864 1.379 . S
C870 C867 1.363 . S
C870 N868 1.356 . S
C871 C865 1.363 . S
C871 C866 1.379 . S
C871 N869 1.356 . S
N872 C864 1.356 . S
N872 H878 0.984 . S
N872 H879 0.984 . S
N873 C866 1.356 . S
N873 H876 0.984 . S
N873 H877 0.985 . S
H874 N869 0.984 . S
H875 N869 0.985 . S
H876 N873 0.984 . S
H877 N873 0.985 . S
H878 N872 0.984 . S
H879 N872 0.984 . S
H880 N868 0.984 . S
H881 N868 0.985 . S
C882 C883 1.363 . S
C882 C888 1.379 . S
C882 N890 1.356 . S
C883 C882 1.363 . S
C883 C889 1.363 . S
C884 C885 1.363 . S
C884 C889 1.379 . S
C884 N891 1.356 . S
C885 C884 1.363 . S
C885 C888 1.363 . S
N886 C888 1.356 . S
N886 H898 0.984 . S
N886 H899 0.985 . S
N887 C889 1.356 . S
N887 H892 0.984 . S
N887 H893 0.985 . S
C888 C882 1.379 . S
C888 C885 1.363 . S
C888 N886 1.356 . S
C889 C883 1.363 . S
C889 C884 1.379 . S
C889 N887 1.356 . S
N890 C882 1.356 . S
N890 H896 0.984 . S
N890 H897 0.984 . S
N891 C884 1.356 . S
N891 H894 0.984 . S
N891 H895 0.985 . S
H892 N887 0.984 . S
H893 N887 0.985 . S
H894 N891 0.984 . S
H895 N891 0.985 . S
H896 N890 0.984 . S
H897 N890 0.984 . S
H898 N886 0.984 . S
H899 N886 0.985 . S
C900 C901 1.363 . S
C900 C906 1.379 . S
C900 N908 1.356 . S
C901 C900 1.363 . S
C901 C907 1.363 . S
C902 C903 1.363 . S
C902 C907 1.379 . S
C902 N909 1.356 . S
C903 C902 1.363 . S
C903 C906 1.363 . S
N904 C906 1.356 . S
N904 H916 0.984 . S
N904 H917 0.985 . S
N905 C907 1.356 . S
N905 H910 0.984 . S
N905 H911 0.985 . S
C906 C900 1.379 . S
C906 C903 1.363 . S
C906 N904 1.356 . S
C907 C901 1.363 . S
C907 C902 1.379 . S
C907 N905 1.356 . S
N908 C900 1.356 . S
N908 H914 0.984 . S
N908 H915 0.984 . S
N909 C902 1.356 . S
N909 H912 0.984 . S
N909 H913 0.985 . S
H910 N905 0.984 . S
H911 N905 0.985 . S
H912 N909 0.984 . S
H913 N909 0.985 . S
H914 N908 0.984 . S
H915 N908 0.984 . S
H916 N904 0.984 . S
H917 N904 0.985 . S
C918 C919 1.363 . S
C918 C924 1.379 . S
C918 N926 1.356 . S
C919 C918 1.363 . S
C919 C925 1.363 . S
C920 C921 1.363 . S
C920 C925 1.379 . S
C920 N927 1.356 . S
C921 C920 1.363 . S
C921 C924 1.363 . S
N922 C924 1.356 . S
N922 H934 0.984 . S
N922 H935 0.985 . S
N923 C925 1.356 . S
N923 H928 0.984 . S
N923 H929 0.985 . S
C924 C918 1.379 . S
C924 C921 1.363 . S
C924 N922 1.356 . S
C925 C919 1.363 . S
C925 C920 1.379 . S
C925 N923 1.356 . S
N926 C918 1.356 . S
N926 H932 0.984 . S
N926 H933 0.984 . S
N927 C920 1.356 . S
N927 H930 0.984 . S
N927 H931 0.985 . S
H928 N923 0.984 . S
H929 N923 0.985 . S
H930 N927 0.984 . S
H931 N927 0.985 . S
H932 N926 0.984 . S
H933 N926 0.984 . S
H934 N922 0.984 . S
H935 N922 0.985 . S
C936 C937 1.363 . S
C936 C942 1.379 . S
C936 N944 1.356 . S
C937 C936 1.363 . S
C937 C943 1.363 . S
C938 C939 1.363 . S
C938 C943 1.379 . S
C938 N945 1.356 . S
C939 C938 1.363 . S
C939 C942 1.363 . S
N940 C942 1.356 . S
N940 H952 0.984 . S
N940 H953 0.985 . S
N941 C943 1.356 . S
N941 H946 0.984 . S
N941 H947 0.985 . S
C942 C936 1.379 . S
C942 C939 1.363 . S
C942 N940 1.356 . S
C943 C937 1.363 . S
C943 C938 1.379 . S
C943 N941 1.356 . S
N944 C936 1.356 . S
N944 H950 0.984 . S
N944 H951 0.984 . S
N945 C938 1.356 . S
N945 H948 0.984 . S
N945 H949 0.985 . S
H946 N941 0.984 . S
H947 N941 0.985 . S
H948 N945 0.984 . S
H949 N945 0.985 . S
H950 N944 0.984 . S
H951 N944 0.984 . S
H952 N940 0.984 . S
H953 N940 0.985 . S
C954 C955 1.363 . S
C954 C960 1.379 . S
C954 N962 1.356 . S
C955 C954 1.363 . S
C955 C961 1.363 . S
C956 C957 1.363 . S
C956 C961 1.379 . S
C956 N963 1.356 . S
C957 C956 1.363 . S
C957 C960 1.363 . S
N958 C960 1.356 . S
N958 H970 0.984 . S
N958 H971 0.985 . S
N959 C961 1.356 . S
N959 H964 0.984 . S
N959 H965 0.985 . S
C960 C954 1.379 . S
C960 C957 1.363 . S
C960 N958 1.356 . S
C961 C955 1.363 . S
C961 C956 1.379 . S
C961 N959 1.356 . S
N962 C954 1.356 . S
N962 H968 0.984 . S
N962 H969 0.984 . S
N963 C956 1.356 . S
N963 H966 0.984 . S
N963 H967 0.985 . S
H964 N959 0.984 . S
H965 N959 0.985 . S
H966 N963 0.984 . S
H967 N963 0.985 . S
H968 N962 0.984 . S
H969 N962 0.984 . S
H970 N958 0.984 . S
H971 N958 0.985 . S
C972 C973 1.363 . S
C972 C978 1.379 . S
C972 N980 1.356 . S
C973 C972 1.363 . S
C973 C979 1.363 . S
C974 C975 1.363 . S
C974 C979 1.379 . S
C974 N981 1.356 . S
C975 C974 1.363 . S
C975 C978 1.363 . S
N976 C978 1.356 . S
N976 H988 0.984 . S
N976 H989 0.985 . S
N977 C979 1.356 . S
N977 H982 0.984 . S
N977 H983 0.985 . S
C978 C972 1.379 . S
C978 C975 1.363 . S
C978 N976 1.356 . S
C979 C973 1.363 . S
C979 C974 1.379 . S
C979 N977 1.356 . S
N980 C972 1.356 . S
N980 H986 0.984 . S
N980 H987 0.984 . S
N981 C974 1.356 . S
N981 H984 0.984 . S
N981 H985 0.985 . S
H982 N977 0.984 . S
H983 N977 0.985 . S
H984 N981 0.984 . S
H985 N981 0.985 . S
H986 N980 0.984 . S
H987 N980 0.984 . S
H988 N976 0.984 . S
H989 N976 0.985 . S
C990 C991 1.363 . S
C990 C996 1.379 . S
C990 N998 1.356 . S
C991 C990 1.363 . S
C991 C997 1.363 . S
C992 C993 1.363 . S
C992 C997 1.379 . S
C992 N999 1.356 . S
C993 C992 1.363 . S
C993 C996 1.363 . S
N994 C996 1.356 . S
N994 H1006 0.984 . S
N994 H1007 0.985 . S
N995 C997 1.356 . S
N995 H1000 0.984 . S
N995 H1001 0.985 . S
C996 C990 1.379 . S
C996 C993 1.363 . S
C996 N994 1.356 . S
C997 C991 1.363 . S
C997 C992 1.379 . S
C997 N995 1.356 . S
N998 C990 1.356 . S
N998 H1004 0.984 . S
N998 H1005 0.984 . S
N999 C992 1.356 . S
N999 H1002 0.984 . S
N999 H1003 0.985 . S
H1000 N995 0.984 . S
H1001 N995 0.985 . S
H1002 N999 0.984 . S
H1003 N999 0.985 . S
H1004 N998 0.984 . S
H1005 N998 0.984 . S
H1006 N994 0.984 . S
H1007 N994 0.985 . S
C1008 C1009 1.363 . S
C1008 C1014 1.379 . S
C1008 N1016 1.356 . S
C1009 C1008 1.363 . S
C1009 C1015 1.363 . S
C1010 C1011 1.363 . S
C1010 C1015 1.379 . S
C1010 N1017 1.356 . S
C1011 C1010 1.363 . S
C1011 C1014 1.363 . S
N1012 C1014 1.356 . S
N1012 H1024 0.984 . S
N1012 H1025 0.985 . S
N1013 C1015 1.356 . S
N1013 H1018 0.984 . S
N1013 H1019 0.985 . S
C1014 C1008 1.379 . S
C1014 C1011 1.363 . S
C1014 N1012 1.356 . S
C1015 C1009 1.363 . S
C1015 C1010 1.379 . S
C1015 N1013 1.356 . S
N1016 C1008 1.356 . S
N1016 H1022 0.984 . S
N1016 H1023 0.984 . S
N1017 C1010 1.356 . S
N1017 H1020 0.984 . S
N1017 H1021 0.985 . S
H1018 N1013 0.984 . S
H1019 N1013 0.985 . S
H1020 N1017 0.984 . S
H1021 N1017 0.985 . S
H1022 N1016 0.984 . S
H1023 N1016 0.984 . S
H1024 N1012 0.984 . S
H1025 N1012 0.985 . S
C1026 C1027 1.363 . S
C1026 C1032 1.379 . S
C1026 N1034 1.356 . S
C1027 C1026 1.363 . S
C1027 C1033 1.363 . S
C1028 C1029 1.363 . S
C1028 C1033 1.379 . S
C1028 N1035 1.356 . S
C1029 C1028 1.363 . S
C1029 C1032 1.363 . S
N1030 C1032 1.356 . S
N1030 H1042 0.984 . S
N1030 H1043 0.985 . S
N1031 C1033 1.356 . S
N1031 H1036 0.984 . S
N1031 H1037 0.985 . S
C1032 C1026 1.379 . S
C1032 C1029 1.363 . S
C1032 N1030 1.356 . S
C1033 C1027 1.363 . S
C1033 C1028 1.379 . S
C1033 N1031 1.356 . S
N1034 C1026 1.356 . S
N1034 H1040 0.984 . S
N1034 H1041 0.984 . S
N1035 C1028 1.356 . S
N1035 H1038 0.984 . S
N1035 H1039 0.985 . S
H1036 N1031 0.984 . S
H1037 N1031 0.985 . S
H1038 N1035 0.984 . S
H1039 N1035 0.985 . S
H1040 N1034 0.984 . S
H1041 N1034 0.984 . S
H1042 N1030 0.984 . S
H1043 N1030 0.985 . S
C1044 C1045 1.363 . S
C1044 C1050 1.379 . S
C1044 N1052 1.356 . S
C1045 C1044 1.363 . S
C1045 C1051 1.363 . S
C1046 C1047 1.363 . S
C1046 C1051 1.379 . S
C1046 N1053 1.356 . S
C1047 C1046 1.363 . S
C1047 C1050 1.363 . S
N1048 C1050 1.356 . S
N1048 H1060 0.984 . S
N1048 H1061 0.985 . S
N1049 C1051 1.356 . S
N1049 H1054 0.984 . S
N1049 H1055 0.985 . S
C1050 C1044 1.379 . S
C1050 C1047 1.363 . S
C1050 N1048 1.356 . S
C1051 C1045 1.363 . S
C1051 C1046 1.379 . S
C1051 N1049 1.356 . S
N1052 C1044 1.356 . S
N1052 H1058 0.984 . S
N1052 H1059 0.984 . S
N1053 C1046 1.356 . S
N1053 H1056 0.984 . S
N1053 H1057 0.985 . S
H1054 N1049 0.984 . S
H1055 N1049 0.985 . S
H1056 N1053 0.984 . S
H1057 N1053 0.985 . S
H1058 N1052 0.984 . S
H1059 N1052 0.984 . S
H1060 N1048 0.984 . S
H1061 N1048 0.985 . S
C633 C334 1.565 . S
C631 C16 1.571 . S
C651 C403 1.534 . S
C649 C55 1.543 . S
C669 C341 1.550 . S
C667 C99 1.559 . S
C687 C404 1.532 . S
C685 C138 1.539 . S
C705 C457 1.576 . S
C703 C1 1.581 . S
C723 C493 1.527 . S
C721 C40 1.525 . S
C739 C94 1.559 . S
C741 C553 1.555 . S
C759 C616 1.523 . S
C757 C133 1.523 . S
C777 C456 1.547 . S
C775 C60 1.551 . S
C793 C79 1.536 . S
C795 C500 1.533 . S
C813 C546 1.545 . S
C811 C118 1.546 . S
C831 C615 1.536 . S
C829 C21 1.539 . S
C847 C177 1.549 . S
C849 C394 1.542 . S
C867 C351 1.547 . S
C865 C211 1.556 . S
C883 C255 1.546 . S
C885 C387 1.540 . S
C901 C289 1.564 . S
C903 C350 1.557 . S
C921 C562 1.551 . S
C919 C157 1.554 . S
C939 C606 1.532 . S
C937 C196 1.532 . S
C957 C440 1.566 . S
C955 C250 1.574 . S
C973 C294 1.524 . S
C975 C509 1.527 . S
C993 C563 1.544 . S
C991 C216 1.553 . S
C1011 C599 1.533 . S
C1009 C235 1.532 . S
C1029 C447 1.573 . S
C1027 C274 1.576 . S
C1045 C172 1.532 . S
C1047 C510 1.532 . S
