# Generated by pormake.
# Topology eea, (3,6)-cn, num edge types: 1
# Building blocks:
#     Node 0, Type 0, BuildingBlock: PAMTOO_clean_linker_0, # of connection points: 3
#     Node 1, Type 0, BuildingBlock: PAMTOO_clean_linker_0, # of connection points: 3
#     Node 2, Type 0, BuildingBlock: PAMTOO_clean_linker_0, # of connection points: 3
#     Node 3, Type 0, BuildingBlock: PAMTOO_clean_linker_0, # of connection points: 3
#     Node 4, Type 0, BuildingBlock: PAMTOO_clean_linker_0, # of connection points: 3
#     Node 5, Type 0, BuildingBlock: PAMTOO_clean_linker_0, # of connection points: 3
#     Node 6, Type 0, BuildingBlock: PAMTOO_clean_linker_0, # of connection points: 3
#     Node 7, Type 0, BuildingBlock: PAMTOO_clean_linker_0, # of connection points: 3
#     Node 8, Type 0, BuildingBlock: PAMTOO_clean_linker_0, # of connection points: 3
#     Node 9, Type 0, BuildingBlock: PAMTOO_clean_linker_0, # of connection points: 3
#     Node 10, Type 0, BuildingBlock: PAMTOO_clean_linker_0, # of connection points: 3
#     Node 11, Type 0, BuildingBlock: PAMTOO_clean_linker_0, # of connection points: 3
#     Node 12, Type 0, BuildingBlock: PAMTOO_clean_linker_0, # of connection points: 3
#     Node 13, Type 0, BuildingBlock: PAMTOO_clean_linker_0, # of connection points: 3
#     Node 14, Type 0, BuildingBlock: PAMTOO_clean_linker_0, # of connection points: 3
#     Node 15, Type 0, BuildingBlock: PAMTOO_clean_linker_0, # of connection points: 3
#     Node 16, Type 0, BuildingBlock: PAMTOO_clean_linker_0, # of connection points: 3
#     Node 17, Type 0, BuildingBlock: PAMTOO_clean_linker_0, # of connection points: 3
#     Node 18, Type 1, BuildingBlock: LEVNOQ01_clean_sbu_1, # of connection points: 6
#     Node 19, Type 1, BuildingBlock: LEVNOQ01_clean_sbu_1, # of connection points: 6
#     Node 20, Type 1, BuildingBlock: LEVNOQ01_clean_sbu_1, # of connection points: 6
#     Node 21, Type 1, BuildingBlock: LEVNOQ01_clean_sbu_1, # of connection points: 6
#     Node 22, Type 1, BuildingBlock: LEVNOQ01_clean_sbu_1, # of connection points: 6
#     Node 23, Type 1, BuildingBlock: LEVNOQ01_clean_sbu_1, # of connection points: 6
#     Node 24, Type 1, BuildingBlock: LEVNOQ01_clean_sbu_1, # of connection points: 6
#     Node 25, Type 1, BuildingBlock: LEVNOQ01_clean_sbu_1, # of connection points: 6
#     Node 26, Type 1, BuildingBlock: LEVNOQ01_clean_sbu_1, # of connection points: 6
#     Edge 27, Type (0, 1), BuildingBlock: XUDNAN_clean_linker_2, # of connection points: 2
#     Edge 28, Type (0, 1), BuildingBlock: XUDNAN_clean_linker_2, # of connection points: 2
#     Edge 29, Type (0, 1), BuildingBlock: XUDNAN_clean_linker_2, # of connection points: 2
#     Edge 30, Type (0, 1), BuildingBlock: XUDNAN_clean_linker_2, # of connection points: 2
#     Edge 31, Type (0, 1), BuildingBlock: XUDNAN_clean_linker_2, # of connection points: 2
#     Edge 32, Type (0, 1), BuildingBlock: XUDNAN_clean_linker_2, # of connection points: 2
#     Edge 33, Type (0, 1), BuildingBlock: XUDNAN_clean_linker_2, # of connection points: 2
#     Edge 34, Type (0, 1), BuildingBlock: XUDNAN_clean_linker_2, # of connection points: 2
#     Edge 35, Type (0, 1), BuildingBlock: XUDNAN_clean_linker_2, # of connection points: 2
#     Edge 36, Type (0, 1), BuildingBlock: XUDNAN_clean_linker_2, # of connection points: 2
#     Edge 37, Type (0, 1), BuildingBlock: XUDNAN_clean_linker_2, # of connection points: 2
#     Edge 38, Type (0, 1), BuildingBlock: XUDNAN_clean_linker_2, # of connection points: 2
#     Edge 39, Type (0, 1), BuildingBlock: XUDNAN_clean_linker_2, # of connection points: 2
#     Edge 40, Type (0, 1), BuildingBlock: XUDNAN_clean_linker_2, # of connection points: 2
#     Edge 41, Type (0, 1), BuildingBlock: XUDNAN_clean_linker_2, # of connection points: 2
#     Edge 42, Type (0, 1), BuildingBlock: XUDNAN_clean_linker_2, # of connection points: 2
#     Edge 43, Type (0, 1), BuildingBlock: XUDNAN_clean_linker_2, # of connection points: 2
#     Edge 44, Type (0, 1), BuildingBlock: XUDNAN_clean_linker_2, # of connection points: 2
#     Edge 45, Type (0, 1), BuildingBlock: XUDNAN_clean_linker_2, # of connection points: 2
#     Edge 46, Type (0, 1), BuildingBlock: XUDNAN_clean_linker_2, # of connection points: 2
#     Edge 47, Type (0, 1), BuildingBlock: XUDNAN_clean_linker_2, # of connection points: 2
#     Edge 48, Type (0, 1), BuildingBlock: XUDNAN_clean_linker_2, # of connection points: 2
#     Edge 49, Type (0, 1), BuildingBlock: XUDNAN_clean_linker_2, # of connection points: 2
#     Edge 50, Type (0, 1), BuildingBlock: XUDNAN_clean_linker_2, # of connection points: 2
#     Edge 51, Type (0, 1), BuildingBlock: XUDNAN_clean_linker_2, # of connection points: 2
#     Edge 52, Type (0, 1), BuildingBlock: XUDNAN_clean_linker_2, # of connection points: 2
#     Edge 53, Type (0, 1), BuildingBlock: XUDNAN_clean_linker_2, # of connection points: 2
#     Edge 54, Type (0, 1), BuildingBlock: XUDNAN_clean_linker_2, # of connection points: 2
#     Edge 55, Type (0, 1), BuildingBlock: XUDNAN_clean_linker_2, # of connection points: 2
#     Edge 56, Type (0, 1), BuildingBlock: XUDNAN_clean_linker_2, # of connection points: 2
#     Edge 57, Type (0, 1), BuildingBlock: XUDNAN_clean_linker_2, # of connection points: 2
#     Edge 58, Type (0, 1), BuildingBlock: XUDNAN_clean_linker_2, # of connection points: 2
#     Edge 59, Type (0, 1), BuildingBlock: XUDNAN_clean_linker_2, # of connection points: 2
#     Edge 60, Type (0, 1), BuildingBlock: XUDNAN_clean_linker_2, # of connection points: 2
#     Edge 61, Type (0, 1), BuildingBlock: XUDNAN_clean_linker_2, # of connection points: 2
#     Edge 62, Type (0, 1), BuildingBlock: XUDNAN_clean_linker_2, # of connection points: 2
#     Edge 63, Type (0, 1), BuildingBlock: XUDNAN_clean_linker_2, # of connection points: 2
#     Edge 64, Type (0, 1), BuildingBlock: XUDNAN_clean_linker_2, # of connection points: 2
#     Edge 65, Type (0, 1), BuildingBlock: XUDNAN_clean_linker_2, # of connection points: 2
#     Edge 66, Type (0, 1), BuildingBlock: XUDNAN_clean_linker_2, # of connection points: 2
#     Edge 67, Type (0, 1), BuildingBlock: XUDNAN_clean_linker_2, # of connection points: 2
#     Edge 68, Type (0, 1), BuildingBlock: XUDNAN_clean_linker_2, # of connection points: 2
#     Edge 69, Type (0, 1), BuildingBlock: XUDNAN_clean_linker_2, # of connection points: 2
#     Edge 70, Type (0, 1), BuildingBlock: XUDNAN_clean_linker_2, # of connection points: 2
#     Edge 71, Type (0, 1), BuildingBlock: XUDNAN_clean_linker_2, # of connection points: 2
#     Edge 72, Type (0, 1), BuildingBlock: XUDNAN_clean_linker_2, # of connection points: 2
#     Edge 73, Type (0, 1), BuildingBlock: XUDNAN_clean_linker_2, # of connection points: 2
#     Edge 74, Type (0, 1), BuildingBlock: XUDNAN_clean_linker_2, # of connection points: 2
#     Edge 75, Type (0, 1), BuildingBlock: XUDNAN_clean_linker_2, # of connection points: 2
#     Edge 76, Type (0, 1), BuildingBlock: XUDNAN_clean_linker_2, # of connection points: 2
#     Edge 77, Type (0, 1), BuildingBlock: XUDNAN_clean_linker_2, # of connection points: 2
#     Edge 78, Type (0, 1), BuildingBlock: XUDNAN_clean_linker_2, # of connection points: 2
#     Edge 79, Type (0, 1), BuildingBlock: XUDNAN_clean_linker_2, # of connection points: 2
#     Edge 80, Type (0, 1), BuildingBlock: XUDNAN_clean_linker_2, # of connection points: 2
# Relax obj value: 0.082
# Max RMSD: 0.114
# Mean RMSD: 0.099
data_MOF--net-eea--node1-LEVNOQ01_clean_sbu_1--node2-PAMTOO_clean_linker_0--edge1-XUDNAN_clean_linker_2
_symmetry_space_group_name_H-M    P1
_symmetry_Int_Tables_number       1
_symmetry_cell_setting            triclinic
loop_
_symmetry_equiv_pos_as_xyz
'x, y, z'
_cell_length_a     58.752346
_cell_length_b     58.354717
_cell_length_c     44.742361
_cell_angle_alpha  90.003617
_cell_angle_beta   90.393789
_cell_angle_gamma 120.16859
loop_
_atom_site_label
_atom_site_type_symbol
_atom_site_fract_x
_atom_site_fract_y
_atom_site_fract_z
_atom_type_partial_charge
H0 H 0.23532 0.0652 0.39354 0.0
H1 H 0.22588 0.13037 0.42266 0.0
H2 H 0.18431 0.08512 0.34513 0.0
H3 H 0.21103 0.14421 0.33986 0.0
C4 C 0.20642 0.14864 0.3625 0.0
O5 O 0.19428 0.12569 0.379 0.0
H6 H 0.22514 0.16331 0.37366 0.0
C7 C 0.22679 0.0778 0.39089 0.0
C8 C 0.20871 0.07242 0.3676 0.0
C9 C 0.23295 0.09828 0.41141 0.0
C10 C 0.22207 0.11471 0.40693 0.0
C11 C 0.20514 0.11031 0.38264 0.0
C12 C 0.19835 0.08911 0.36304 0.0
H13 H 0.90565 0.15405 0.40446 0.0
H14 H 0.85767 0.06892 0.39701 0.0
H15 H 0.9202 0.11215 0.33512 0.0
H16 H 0.87908 0.06271 0.30497 0.0
C17 C 0.86641 0.0567 0.3251 0.0
O18 O 0.88229 0.06536 0.35028 0.0
H19 H 0.85378 0.06591 0.3235 0.0
C20 C 0.90034 0.13557 0.39317 0.0
C21 C 0.91502 0.13599 0.36832 0.0
C22 C 0.87973 0.11143 0.40418 0.0
C23 C 0.87368 0.08772 0.38938 0.0
C24 C 0.88827 0.08813 0.36454 0.0
C25 C 0.9091 0.11212 0.35438 0.0
H26 H 0.83816 0.77184 0.4048 0.0
H27 H 0.91515 0.78113 0.41494 0.0
H28 H 0.89441 0.80557 0.33347 0.0
H29 H 0.92141 0.77428 0.32729 0.0
C30 C 0.9358 0.78313 0.34609 0.0
O31 O 0.93131 0.80097 0.36145 0.0
H32 H 0.93291 0.76678 0.36125 0.0
C33 C 0.85735 0.77771 0.39556 0.0
C34 C 0.86388 0.78887 0.36689 0.0
C35 C 0.87574 0.77507 0.41301 0.0
C36 C 0.90081 0.78317 0.40159 0.0
C37 C 0.90737 0.79382 0.37274 0.0
C38 C 0.88907 0.79702 0.3556 0.0
H39 H 0.08631 0.25553 0.61281 0.0
H40 H 0.15086 0.24049 0.61057 0.0
H41 H 0.0869 0.19721 0.6712 0.0
H42 H 0.13653 0.20834 0.69741 0.0
C43 C 0.1483 0.21157 0.67687 0.0
O44 O 0.1319 0.20407 0.65216 0.0
H45 H 0.16338 0.233 0.67528 0.0
C46 C 0.09602 0.24523 0.62141 0.0
C47 C 0.08366 0.22584 0.64355 0.0
C48 C 0.1202 0.25067 0.60929 0.0
C49 C 0.13236 0.2368 0.61993 0.0
C50 C 0.12054 0.21795 0.64265 0.0
C51 C 0.09627 0.21248 0.65441 0.0
H52 H 0.7614 0.83501 0.60093 0.0
H53 H 0.77191 0.91363 0.60429 0.0
H54 H 0.82509 0.89631 0.6521 0.0
H55 H 0.81628 0.93695 0.68369 0.0
C56 C 0.80814 0.94225 0.66408 0.0
O57 O 0.81395 0.9332 0.63841 0.0
H58 H 0.78642 0.93284 0.66666 0.0
C59 C 0.7718 0.85525 0.6092 0.0
C60 C 0.79402 0.86354 0.62754 0.0
C61 C 0.7634 0.87307 0.60085 0.0
C62 C 0.77779 0.89946 0.61083 0.0
C63 C 0.79986 0.90769 0.62946 0.0
C64 C 0.80784 0.88972 0.63796 0.0
H65 H 0.15157 0.92543 0.591 0.0
H66 H 0.08567 0.84727 0.60673 0.0
H67 H 0.09859 0.91226 0.66328 0.0
H68 H 0.0764 0.86287 0.69655 0.0
C69 C 0.0677 0.84851 0.67772 0.0
O70 O 0.06775 0.86175 0.65215 0.0
H71 H 0.07974 0.83886 0.67445 0.0
C72 C 0.13398 0.91217 0.60335 0.0
C73 C 0.12661 0.92213 0.62762 0.0
C74 C 0.11955 0.88522 0.59555 0.0
C75 C 0.09743 0.86807 0.61262 0.0
C76 C 0.08989 0.87791 0.63693 0.0
C77 C 0.10454 0.90484 0.64447 0.0
H78 H 0.88739 0.39406 0.75078 0.0
H79 H 0.89878 0.47287 0.74699 0.0
H80 H 0.84342 0.41239 0.68752 0.0
H81 H 0.87674 0.46756 0.66239 0.0
C82 C 0.8763 0.47879 0.68229 0.0
O83 O 0.86329 0.46165 0.70536 0.0
H84 H 0.89696 0.49304 0.68912 0.0
C85 C 0.88245 0.40815 0.74133 0.0
C86 C 0.86375 0.40009 0.71826 0.0
C87 C 0.89556 0.43444 0.7515 0.0
C88 C 0.88932 0.45262 0.73887 0.0
C89 C 0.87037 0.44455 0.71607 0.0
C90 C 0.85787 0.41842 0.7054 0.0
H91 H 0.59156 0.49864 0.72822 0.0
H92 H 0.52309 0.42186 0.743 0.0
H93 H 0.5808 0.43058 0.67896 0.0
H94 H 0.52667 0.395 0.65989 0.0
C95 C 0.51712 0.38782 0.68198 0.0
O96 O 0.53624 0.39736 0.70404 0.0
H97 H 0.50321 0.39521 0.68574 0.0
C98 C 0.57963 0.47774 0.72285 0.0
C99 C 0.5887 0.46669 0.70135 0.0
C100 C 0.55605 0.46185 0.73837 0.0
C101 C 0.54152 0.43458 0.73182 0.0
C102 C 0.55049 0.42348 0.71042 0.0
C103 C 0.5741 0.43943 0.69546 0.0
H104 H 0.49537 0.08964 0.73609 0.0
H105 H 0.56825 0.08928 0.74403 0.0
H106 H 0.55825 0.13442 0.67446 0.0
H107 H 0.58637 0.11258 0.65433 0.0
C108 C 0.59644 0.11081 0.67459 0.0
O109 O 0.59098 0.12173 0.69892 0.0
H110 H 0.58908 0.08943 0.67895 0.0
C111 C 0.5152 0.09624 0.7284 0.0
C112 C 0.52494 0.11283 0.70343 0.0
C113 C 0.53064 0.08763 0.7431 0.0
C114 C 0.55613 0.09584 0.73282 0.0
C115 C 0.56613 0.11291 0.70821 0.0
C116 C 0.5505 0.12134 0.69354 0.0
H117 H 0.74633 0.57409 0.94561 0.0
H118 H 0.81294 0.56212 0.94888 0.0
H119 H 0.75203 0.52551 0.01438 0.0
H120 H 0.80201 0.5433 0.04043 0.0
C121 C 0.81375 0.54411 0.02063 0.0
O122 O 0.79698 0.53199 -0.00333 0.0
H123 H 0.82791 0.56525 0.01543 0.0
C124 C 0.7567 0.56511 0.95594 0.0
C125 C 0.74611 0.54903 0.9813 0.0
C126 C 0.78079 0.56992 0.94404 0.0
C127 C 0.79426 0.55845 0.95766 0.0
C128 C 0.78392 0.54271 0.9832 0.0
C129 C 0.7599 0.53794 -0.00518 0.0
H130 H 0.42652 0.17893 0.92459 0.0
H131 H 0.43399 0.25352 0.94976 0.0
H132 H 0.4774 0.22413 -0.00235 0.0
H133 H 0.46296 0.26914 0.03414 0.0
C134 C 0.45862 0.27301 0.01108 0.0
O135 O 0.47007 0.2641 0.99094 0.0
H136 H 0.43685 0.26278 0.00805 0.0
C137 C 0.43467 0.19621 0.93907 0.0
C138 C 0.45259 0.19911 0.96168 0.0
C139 C 0.42752 0.21563 0.93489 0.0
C140 C 0.4391 0.2383 0.95301 0.0
C141 C 0.45689 0.24116 0.97568 0.0
C142 C 0.46317 0.22139 0.98042 0.0
H143 H 0.8176 0.2666 0.92862 0.0
H144 H 0.75125 0.18765 0.9361 0.0
H145 H 0.76864 0.24465 0.00634 0.0
H146 H 0.74431 0.19074 0.02973 0.0
C147 C 0.73348 0.17949 0.00937 0.0
O148 O 0.73558 0.19696 0.98737 0.0
H149 H 0.74196 0.16727 0.00159 0.0
C150 C 0.801 0.25176 0.94123 0.0
C151 C 0.79503 0.2586 0.9688 0.0
C152 C 0.78544 0.22636 0.92914 0.0
C153 C 0.76409 0.20712 0.94559 0.0
C154 C 0.75821 0.21383 0.97357 0.0
C155 C 0.77382 0.23943 0.98524 0.0
H156 H 0.56362 0.73189 0.07926 0.0
H157 H 0.56763 0.80748 0.07927 0.0
H158 H 0.50579 0.74267 0.03089 0.0
H159 H 0.52347 0.79166 -0.00084 0.0
C160 C 0.53336 0.80583 0.01794 0.0
O161 O 0.52663 0.79239 0.04463 0.0
H162 H 0.55503 0.81578 0.01446 0.0
C163 C 0.55552 0.74412 0.07228 0.0
C164 C 0.53299 0.73358 0.0537 0.0
C165 C 0.56797 0.7706 0.08196 0.0
C166 C 0.55849 0.78704 0.07185 0.0
C167 C 0.53632 0.77683 0.05323 0.0
C168 C 0.52342 0.75023 0.04454 0.0
H169 H 0.25402 0.83291 0.05564 0.0
H170 H 0.18851 0.75341 0.0669 0.0
H171 H 0.25028 0.76766 0.00664 0.0
H172 H 0.20054 0.72784 0.9836 0.0
C173 C 0.18891 0.72168 0.00456 0.0
O174 O 0.20574 0.73218 0.02867 0.0
H175 H 0.17473 0.72908 0.00424 0.0
C176 C 0.24356 0.81204 0.0498 0.0
C177 C 0.25486 0.80238 0.02938 0.0
C178 C 0.21959 0.79456 0.06389 0.0
C179 C 0.20662 0.76754 0.05604 0.0
C180 C 0.21772 0.75816 0.0353 0.0
C181 C 0.24175 0.77541 0.02223 0.0
H182 H 0.16948 0.42561 0.07052 0.0
H183 H 0.24186 0.42388 0.06677 0.0
H184 H 0.22635 0.46862 0.00205 0.0
H185 H 0.25336 0.44475 0.9761 0.0
C186 C 0.26318 0.44209 -0.00393 0.0
O187 O 0.26021 0.45502 0.02022 0.0
H188 H 0.25377 0.42048 0.00069 0.0
C189 C 0.18843 0.43195 0.06035 0.0
C190 C 0.19589 0.44825 0.03493 0.0
C191 C 0.2047 0.42283 0.072 0.0
C192 C 0.22884 0.43042 0.058 0.0
C193 C 0.23658 0.44696 0.03291 0.0
C194 C 0.22012 0.45578 0.02142 0.0
H195 H 0.41139 0.90794 0.27402 0.0
H196 H 0.48184 0.90267 0.2814 0.0
H197 H 0.41428 0.8521 0.33443 0.0
H198 H 0.46091 0.86902 0.36837 0.0
C199 C 0.47579 0.8754 0.35032 0.0
O200 O 0.46307 0.86611 0.32319 0.0
H201 H 0.48753 0.89746 0.35029 0.0
C202 C 0.42219 0.89929 0.28405 0.0
C203 C 0.40983 0.87904 0.30522 0.0
C204 C 0.44804 0.90765 0.2749 0.0
C205 C 0.46179 0.89621 0.28796 0.0
C206 C 0.4497 0.87657 0.30985 0.0
C207 C 0.42361 0.86761 0.31789 0.0
H208 H 0.08198 0.5024 0.2893 0.0
H209 H 0.09437 0.58213 0.28744 0.0
H210 H 0.14837 0.56558 0.33368 0.0
H211 H 0.14826 0.6022 0.36575 0.0
C212 C 0.13632 0.60852 0.35246 0.0
O213 O 0.1354 0.6012 0.32296 0.0
H214 H 0.11601 0.59877 0.36166 0.0
C215 C 0.09292 0.52322 0.29513 0.0
C216 C 0.11612 0.53222 0.31164 0.0
C217 C 0.08542 0.54115 0.2841 0.0
C218 C 0.09921 0.56748 0.295 0.0
C219 C 0.12122 0.5758 0.31389 0.0
C220 C 0.13016 0.55843 0.32116 0.0
H221 H 0.49254 0.59887 0.27566 0.0
H222 H 0.42132 0.52396 0.2637 0.0
H223 H 0.42711 0.57637 0.33442 0.0
H224 H 0.40326 0.52386 0.3544 0.0
C225 C 0.39362 0.5124 0.33371 0.0
O226 O 0.39786 0.52954 0.31038 0.0
H227 H 0.40227 0.4998 0.32808 0.0
C228 C 0.47252 0.58491 0.28218 0.0
C229 C 0.46138 0.59114 0.3062 0.0
C230 C 0.45804 0.56144 0.26573 0.0
C231 C 0.43298 0.54233 0.2759 0.0
C232 C 0.42226 0.54754 0.30119 0.0
C233 C 0.43617 0.57211 0.31587 0.0
O234 O 0.49528 0.98296 0.93557 0.0
Mg235 Mg 0.5184 -0.00554 0.97394 0.0
O236 O 0.48523 0.01002 0.9579 0.0
Mg237 Mg 0.48557 0.00067 0.0105 0.0
O238 O 0.50089 0.97035 0.00942 0.0
O239 O 0.53332 0.97077 0.98236 0.0
O240 O 0.4852 -0.00734 0.06255 0.0
O241 O 0.44485 0.96249 0.00134 0.0
Mg242 Mg 0.44101 0.00175 0.03988 0.0
O243 O 0.47026 0.03057 0.01466 0.0
O244 O 0.45312 -0.00306 0.08224 0.0
O245 O 0.41281 0.9691 0.01573 0.0
O246 O 0.43779 0.03418 0.03646 0.0
C247 C 0.54714 0.04743 0.00233 0.0
C248 C 0.48613 -0.00167 0.9341 0.0
C249 C 0.51562 0.96032 0.00277 0.0
C250 C 0.47225 -0.00705 0.08525 0.0
C251 C 0.42042 0.95491 0.00284 0.0
C252 C 0.45857 0.04406 0.02005 0.0
O253 O 0.54745 0.03446 0.97987 0.0
O254 O 0.52699 0.03786 0.01904 0.0
O255 O 0.98326 0.50371 0.94416 0.0
Mg256 Mg -0.00599 0.52267 0.98538 0.0
O257 O 0.98746 0.47067 0.96179 0.0
Mg258 Mg -0.00379 0.48122 0.01275 0.0
O259 O 0.0272 0.52624 0.00414 0.0
O260 O 0.02466 0.55885 0.98005 0.0
O261 O 0.00509 0.49159 0.06348 0.0
O262 O 0.03493 0.47907 0.00575 0.0
Mg263 Mg -0.00251 0.43576 0.04285 0.0
O264 O 0.96724 0.43658 0.02157 0.0
O265 O 0.0077 0.45796 0.08246 0.0
O266 O 0.02741 0.43883 0.01545 0.0
O267 O 0.96388 0.40034 0.04317 0.0
C268 C 0.95079 0.50095 0.0219 0.0
C269 C 0.98317 0.48226 0.94017 0.0
C270 C 0.03816 0.55054 -0.00548 0.0
C271 C 0.00897 0.48017 0.08562 0.0
C272 C 0.04209 0.46173 0.00516 0.0
C273 C 0.9533 0.41158 0.02823 0.0
O274 O 0.9664 0.5238 0.01232 0.0
O275 O 0.95692 0.48287 0.0205 0.0
O276 O 0.4839 0.48573 0.07378 0.0
Mg277 Mg 0.47774 0.46959 0.03138 0.0
O278 O 0.5121 0.523 0.05228 0.0
Mg279 Mg 0.51418 0.51459 0.00118 0.0
O280 O 0.50773 0.47185 0.00657 0.0
O281 O 0.47932 0.43669 0.03416 0.0
O282 O 0.51833 0.51028 0.94927 0.0
O283 O 0.55731 0.52371 0.01007 0.0
Mg284 Mg 0.5594 0.56874 0.97726 0.0
O285 O 0.52382 0.55718 -0.0034 0.0
O286 O 0.55073 0.54999 0.93528 0.0
O287 O 0.58716 0.56592 0.00489 0.0
O288 O 0.55159 0.59878 0.98298 0.0
C289 C 0.44678 0.48357 -0.00432 0.0
C290 C 0.50004 0.51019 0.07557 0.0
C291 C 0.499 0.44786 0.0162 0.0
C292 C 0.53312 0.52635 0.92903 0.0
C293 C 0.58095 0.54271 0.01277 0.0
C294 C 0.52929 0.58147 0.994 0.0
O295 O 0.44468 0.46349 0.00876 0.0
O296 O 0.46954 0.50409 0.99201 0.0
O297 O 0.18383 0.33929 0.27778 0.0
Mg298 Mg 0.18283 0.32442 0.32053 0.0
O299 O 0.14621 0.33722 0.28695 0.0
Mg300 Mg 0.14625 0.33065 0.33933 0.0
O301 O 0.14978 0.29137 0.33591 0.0
O302 O 0.18319 0.2912 0.31182 0.0
O303 O 0.1483 0.32412 0.3914 0.0
O304 O 0.10025 0.29708 0.33302 0.0
Mg305 Mg 0.11302 0.34034 0.36631 0.0
O306 O 0.14363 0.36996 0.34329 0.0
O307 O 0.1163 0.32883 0.4093 0.0
O308 O 0.079 0.31815 0.34225 0.0
O309 O 0.11635 0.37542 0.3737 0.0
C310 C 0.21267 0.36753 0.35172 0.0
C311 C 0.16439 0.34102 0.26872 0.0
C312 C 0.16114 0.27872 0.32564 0.0
C313 C 0.13473 0.3241 0.41349 0.0
C314 C 0.07881 0.29784 0.33256 0.0
C315 C 0.13568 0.38502 0.35531 0.0
O316 O 0.21445 0.34701 0.34952 0.0
O317 O 0.1907 0.36585 0.34531 0.0
O318 O 0.66256 0.85135 0.27676 0.0
Mg319 Mg 0.67073 0.86571 0.32038 0.0
O320 O 0.65663 0.81263 0.29163 0.0
Mg321 Mg 0.66428 0.81839 0.34375 0.0
O322 O 0.7002 0.86257 0.34045 0.0
O323 O 0.70391 0.90051 0.32267 0.0
O324 O 0.6718 0.82506 0.39534 0.0
O325 O 0.70036 0.81125 0.33523 0.0
Mg326 Mg 0.65995 0.77381 0.36696 0.0
O327 O 0.62801 0.77408 0.34844 0.0
O328 O 0.67069 0.78865 0.41043 0.0
O329 O 0.68618 0.769 0.34074 0.0
O330 O 0.62718 0.73902 0.37099 0.0
C331 C 0.62435 0.84515 0.35275 0.0
C332 C 0.65752 0.82807 0.27083 0.0
C333 C 0.71423 0.88792 0.3351 0.0
C334 C 0.6734 0.81106 0.41619 0.0
C335 C 0.70416 0.7916 0.33292 0.0
C336 C 0.61523 0.74952 0.3575 0.0
O337 O 0.64204 0.86769 0.34447 0.0
O338 O 0.62832 0.82559 0.35175 0.0
O339 O 0.1366 0.82629 0.3884 0.0
Mg340 Mg 0.13516 0.80794 0.34686 0.0
O341 O 0.17885 0.85464 0.38236 0.0
Mg342 Mg 0.17766 0.84685 0.33134 0.0
O343 O 0.16557 0.80181 0.33909 0.0
O344 O 0.12614 0.77094 0.35675 0.0
O345 O 0.17532 0.83797 0.28039 0.0
O346 O 0.218 0.84635 0.33661 0.0
Mg347 Mg 0.22091 0.88522 0.312 0.0
O348 O 0.19129 0.89217 0.32358 0.0
O349 O 0.21744 0.86412 0.27219 0.0
O350 O 0.24773 0.88759 0.34478 0.0
O351 O 0.22809 0.92106 0.29897 0.0
C352 C 0.11585 0.83023 0.31342 0.0
C353 C 0.15851 0.84413 0.39882 0.0
C354 C 0.14974 0.77793 0.34861 0.0
C355 C 0.19496 0.84647 0.26301 0.0
C356 C 0.24137 0.8635 0.34473 0.0
C357 C 0.20599 0.91514 0.31111 0.0
O358 O 0.11183 0.80708 0.31053 0.0
O359 O 0.13704 0.84735 0.32639 0.0
O360 O 0.83187 0.66014 0.59284 0.0
Mg361 Mg 0.84963 0.65559 0.63096 0.0
O362 O 0.82037 0.68 0.62598 0.0
Mg363 Mg 0.81894 0.66274 0.67492 0.0
O364 O 0.82706 0.62814 0.66194 0.0
O365 O 0.8521 0.62286 0.62767 0.0
O366 O 0.81894 0.64924 0.7254 0.0
O367 O 0.77603 0.62816 0.66519 0.0
Mg368 Mg 0.77622 0.66477 0.7099 0.0
O369 O 0.80734 0.69466 0.68754 0.0
O370 O 0.7879 0.65337 0.74845 0.0
O371 O 0.74564 0.63556 0.68342 0.0
O372 O 0.7779 0.70002 0.71384 0.0
C373 C 0.88456 0.70183 0.66983 0.0
C374 C 0.82388 0.67598 0.59872 0.0
C375 C 0.8355 0.61369 0.64931 0.0
C376 C 0.80622 0.64797 0.74909 0.0
C377 C 0.75188 0.62136 0.66816 0.0
C378 C 0.79833 0.70977 0.69688 0.0
O379 O 0.88398 0.68834 0.64737 0.0
O380 O 0.86332 0.69595 0.68364 0.0
O381 O 0.30873 0.16363 0.61509 0.0
Mg382 Mg 0.32419 0.18543 0.65486 0.0
O383 O 0.31726 0.13254 0.62945 0.0
Mg384 Mg 0.3265 0.14409 0.67927 0.0
O385 O 0.35844 0.18907 0.66978 0.0
O386 O 0.35501 0.22111 0.64568 0.0
O387 O 0.3354 0.1567 0.72891 0.0
O388 O 0.36373 0.13997 0.67344 0.0
Mg389 Mg 0.32513 0.09937 0.71946 0.0
O390 O 0.29835 0.09993 0.69027 0.0
O391 O 0.32995 0.12314 0.757 0.0
O392 O 0.35904 0.10469 0.69759 0.0
O393 O 0.29112 0.06393 0.71554 0.0
C394 C 0.28238 0.16412 0.69114 0.0
C395 C 0.30992 0.143 0.60942 0.0
C396 C 0.36911 0.21317 0.65953 0.0
C397 C 0.33487 0.14683 0.75446 0.0
C398 C 0.3719 0.12414 0.68034 0.0
C399 C 0.28295 0.07514 0.69686 0.0
O400 O 0.30019 0.18779 0.68741 0.0
O401 O 0.28704 0.14562 0.68455 0.0
O402 O 0.81317 0.15944 0.73783 0.0
Mg403 Mg 0.80272 0.13624 0.69938 0.0
O404 O 0.84421 0.19425 0.71404 0.0
Mg405 Mg 0.84275 0.17893 0.66461 0.0
O406 O 0.83282 0.13558 0.67816 0.0
O407 O 0.80256 0.10252 0.70658 0.0
O408 O 0.83952 0.16188 0.6155 0.0
O409 O 0.88649 0.18824 0.67068 0.0
Mg410 Mg 0.87619 0.21892 0.61822 0.0
O411 O 0.85423 0.22218 0.6511 0.0
O412 O 0.85419 0.19442 0.58293 0.0
O413 O 0.9083 0.21577 0.63378 0.0
O414 O 0.87903 0.25485 0.61922 0.0
C415 C 0.77607 0.1526 0.65969 0.0
C416 C 0.83135 0.18339 0.73786 0.0
C417 C 0.82295 0.1119 0.68959 0.0
C418 C 0.84267 0.16992 0.58843 0.0
C419 C 0.90767 0.20196 0.65595 0.0
C420 C 0.86253 0.24604 0.64103 0.0
O421 O 0.77127 0.13163 0.67303 0.0
O422 O 0.79973 0.17163 0.65744 0.0
H423 H 0.27278 0.84976 0.00111 0.0
H424 H 0.29651 0.79436 0.03164 0.0
H425 H 0.342 0.82494 0.01538 0.0
H426 H 0.32162 0.87678 0.93578 0.0
H427 H 0.32671 0.90961 0.94152 0.0
H428 H 0.29499 0.88096 0.9489 0.0
H429 H 0.29639 0.89777 0.0029 0.0
H430 H 0.32773 0.92644 -0.00448 0.0
H431 H 0.32425 0.90533 0.02667 0.0
H432 H 0.38549 0.86415 0.00518 0.0
H433 H 0.4234 0.9098 0.00581 0.0
H434 H 0.37183 0.93978 0.98102 0.0
C435 C 0.28752 0.84393 0.0036 0.0
C436 C 0.28135 0.81982 0.01734 0.0
C437 C 0.30096 0.81269 0.02068 0.0
C438 C 0.32675 0.82983 0.01133 0.0
C439 C 0.33243 0.85373 -0.00185 0.0
C440 C 0.31329 0.8607 0.99403 0.0
C441 C 0.3251 0.88881 0.98285 0.0
C442 C 0.3166 0.88905 0.95033 0.0
C443 C 0.31796 0.90555 0.00323 0.0
C444 C 0.35405 0.89749 0.98469 0.0
C445 C 0.35787 0.87664 0.99214 0.0
C446 C 0.38285 0.88049 -0.00149 0.0
C447 C 0.4043 0.90647 -0.00125 0.0
C448 C 0.40035 0.92809 0.99338 0.0
C449 C 0.37523 0.92341 0.98484 0.0
H450 H 0.16977 0.46854 0.06512 0.0
H451 H 0.18096 0.44623 0.9764 0.0
H452 H 0.147 0.45547 0.95644 0.0
H453 H 0.10268 0.43746 0.06168 0.0
H454 H 0.09959 0.46211 0.08267 0.0
H455 H 0.12773 0.45822 0.08843 0.0
H456 H 0.15862 0.50798 0.07646 0.0
H457 H 0.13043 0.51196 0.07043 0.0
H458 H 0.15476 0.5212 0.04159 0.0
H459 H 0.10649 0.45924 0.94827 0.0
H460 H 0.06368 0.45775 0.95292 0.0
H461 H 0.08043 0.47946 0.04624 0.0
C462 C 0.16545 0.46617 0.04137 0.0
C463 C 0.17796 0.45676 0.02226 0.0
C464 C 0.17178 0.45375 0.99134 0.0
C465 C 0.15255 0.45896 0.97983 0.0
C466 C 0.14006 0.46762 -0.00054 0.0
C467 C 0.14652 0.47148 0.02956 0.0
C468 C 0.12858 0.47832 0.04658 0.0
C469 C 0.11377 0.4578 0.07127 0.0
C470 C 0.14403 0.50655 0.05952 0.0
C471 C 0.11022 0.47654 0.02167 0.0
C472 C 0.11729 0.47067 -0.00549 0.0
C473 C 0.10125 0.46472 0.96914 0.0
C474 C 0.07709 0.46403 0.97186 0.0
C475 C 0.06953 0.46947 -0.00037 0.0
C476 C 0.08654 0.47643 0.02451 0.0
H477 H 0.52811 0.69064 0.08467 0.0
H478 H 0.50884 0.71273 -0.00046 0.0
H479 H 0.49132 0.66724 0.98129 0.0
H480 H 0.55726 0.66005 0.05406 0.0
H481 H 0.54748 0.63443 0.08182 0.0
H482 H 0.54968 0.66525 0.09156 0.0
H483 H 0.50127 0.63946 0.10934 0.0
H484 H 0.49878 0.60846 0.09868 0.0
H485 H 0.47565 0.61735 0.08391 0.0
H486 H 0.48562 0.6243 0.96786 0.0
H487 H 0.49851 0.59093 0.95788 0.0
H488 H 0.52514 0.59703 0.04925 0.0
C489 C 0.51979 0.68586 0.06235 0.0
C490 C 0.51973 0.7054 0.04374 0.0
C491 C 0.50853 0.69812 0.0147 0.0
C492 C 0.49842 0.67218 0.00409 0.0
C493 C 0.49971 0.65367 0.02265 0.0
C494 C 0.51037 0.66028 0.05113 0.0
C495 C 0.51498 0.63896 0.06411 0.0
C496 C 0.54406 0.65036 0.07337 0.0
C497 C 0.49656 0.62525 0.09057 0.0
C498 C 0.5074 0.62042 0.03747 0.0
C499 C 0.49729 0.62857 0.01438 0.0
C500 C 0.49251 0.61708 0.98604 0.0
C501 C 0.49961 0.59791 0.98059 0.0
C502 C 0.51141 0.59054 0.00331 0.0
C503 C 0.51445 0.60113 0.0323 0.0
H504 H 0.82208 0.27587 0.02124 0.0
H505 H 0.80494 0.30301 0.93863 0.0
H506 H 0.83951 0.34889 0.95037 0.0
H507 H 0.84391 0.34001 0.06655 0.0
H508 H 0.86936 0.33638 0.0848 0.0
H509 H 0.83869 0.3074 0.07429 0.0
H510 H 0.86439 0.28975 0.04445 0.0
H511 H 0.89496 0.3186 0.05457 0.0
H512 H 0.8868 0.31012 0.01569 0.0
H513 H 0.88148 0.38913 0.9652 0.0
H514 H 0.92701 0.42022 0.98253 0.0
H515 H 0.91682 0.36679 0.05523 0.0
C516 C 0.8248 0.29177 0.00651 0.0
C517 C 0.81088 0.28621 0.97929 0.0
C518 C 0.81544 0.30714 0.95975 0.0
C519 C 0.83491 0.33323 0.9663 0.0
C520 C 0.8494 0.33802 0.99263 0.0
C521 C 0.84432 0.31791 0.0127 0.0
C522 C 0.86519 0.32737 0.03692 0.0
C523 C 0.85359 0.32782 0.06745 0.0
C524 C 0.87862 0.31047 0.03792 0.0
C525 C 0.88371 0.35517 0.02606 0.0
C526 C 0.87398 0.36131 0.00103 0.0
C527 C 0.88901 0.38488 0.9853 0.0
C528 C 0.91483 0.40237 -0.00482 0.0
C529 C 0.92528 0.39576 0.02009 0.0
C530 C 0.90923 0.37231 0.03611 0.0
H531 H 0.69955 0.53157 0.95156 0.0
H532 H 0.73593 0.55559 0.03918 0.0
H533 H 0.69432 0.54993 0.05951 0.0
H534 H 0.66469 0.56453 0.95296 0.0
H535 H 0.63588 0.53913 0.93387 0.0
H536 H 0.66737 0.54198 0.92762 0.0
H537 H 0.6481 0.49282 0.94298 0.0
H538 H 0.61655 0.48997 0.9496 0.0
H539 H 0.63255 0.48185 0.97882 0.0
H540 H 0.6513 0.54873 0.06792 0.0
H541 H 0.61009 0.55063 0.06379 0.0
H542 H 0.60077 0.52415 0.97188 0.0
C543 C 0.69855 0.53525 0.97511 0.0
C544 C 0.72081 0.54406 0.99386 0.0
C545 C 0.71894 0.54867 0.02456 0.0
C546 C 0.6954 0.54544 0.03628 0.0
C547 C 0.67382 0.53704 0.01709 0.0
C548 C 0.67511 0.53166 0.98722 0.0
C549 C 0.64977 0.52449 0.97085 0.0
C550 C 0.65474 0.54369 0.94481 0.0
C551 C 0.63592 0.49556 0.95993 0.0
C552 C 0.63453 0.52812 -0.00427 0.0
C553 C 0.64856 0.53507 0.02236 0.0
C554 C 0.63979 0.54256 0.04747 0.0
C555 C 0.61645 0.5436 0.045 0.0
C556 C 0.60222 0.53689 0.01778 0.0
C557 C 0.61101 0.52846 0.99319 0.0
H558 H 0.45111 0.17378 0.01289 0.0
H559 H 0.47102 0.17897 0.91914 0.0
H560 H 0.48241 0.14374 0.92593 0.0
H561 H 0.50045 0.15773 0.04253 0.0
H562 H 0.47752 0.1347 0.06923 0.0
H563 H 0.47517 0.16307 0.05783 0.0
H564 H 0.42647 0.13217 0.04196 0.0
H565 H 0.42858 0.1038 0.05341 0.0
H566 H 0.41848 0.10565 0.01578 0.0
H567 H 0.48731 0.10489 0.94219 0.0
H568 H 0.48077 0.06332 0.96526 0.0
H569 H 0.4568 0.08398 0.04759 0.0
C570 C 0.45852 0.16792 0.99402 0.0
C571 C 0.46049 0.17905 0.96563 0.0
C572 C 0.46945 0.1705 0.9411 0.0
C573 C 0.47619 0.15077 0.94482 0.0
C574 C 0.4738 0.13993 0.97317 0.0
C575 C 0.46501 0.14816 -0.00271 0.0
C576 C 0.46085 0.13126 0.02444 0.0
C577 C 0.47963 0.14768 0.05001 0.0
C578 C 0.43189 0.1174 0.03446 0.0
C579 C 0.46801 0.11178 0.0117 0.0
C580 C 0.47598 0.11731 0.9823 0.0
C581 C 0.48152 0.1006 0.96535 0.0
C582 C 0.47789 0.07716 0.97857 0.0
C583 C 0.46837 0.07073 0.00807 0.0
C584 C 0.46428 0.08866 0.025 0.0
H585 H 0.6946 0.15138 0.96894 0.0
H586 H 0.70795 0.16728 0.06394 0.0
H587 H 0.65995 0.13878 0.07282 0.0
H588 H 0.63281 0.15193 0.96536 0.0
H589 H 0.61887 0.12601 0.93754 0.0
H590 H 0.65394 0.14834 0.93909 0.0
H591 H 0.66175 0.10841 0.94398 0.0
H592 H 0.6268 0.08611 0.94187 0.0
H593 H 0.64537 0.0845 0.97322 0.0
H594 H 0.61 0.10617 0.07055 0.0
H595 H 0.56457 0.0706 0.05784 0.0
H596 H 0.58536 0.07926 0.96409 0.0
C597 C 0.68735 0.14896 0.99159 0.0
C598 C 0.70474 0.16158 0.01573 0.0
C599 C 0.69476 0.15781 0.04515 0.0
C600 C 0.66759 0.14186 0.05033 0.0
C601 C 0.65083 0.13016 0.02579 0.0
C602 C 0.66047 0.1336 -0.00298 0.0
C603 C 0.63885 0.11839 0.97442 0.0
C604 C 0.63595 0.1373 0.95283 0.0
C605 C 0.64347 0.09815 0.9574 0.0
C606 C 0.61553 0.10493 -0.00506 0.0
C607 C 0.62256 0.11213 0.02447 0.0
C608 C 0.60427 0.10066 0.04745 0.0
C609 C 0.57849 0.08062 0.04005 0.0
C610 C 0.57156 0.07223 0.01 0.0
C611 C 0.5901 0.08532 0.98725 0.0
H612 H 0.83969 0.53028 0.98067 0.0
H613 H 0.82377 0.5289 0.07522 0.0
H614 H 0.85202 0.50944 0.08565 0.0
H615 H 0.84298 0.46821 0.97839 0.0
H616 H 0.86945 0.48208 0.95181 0.0
H617 H 0.84522 0.49241 0.95171 0.0
H618 H 0.88223 0.54154 0.95752 0.0
H619 H 0.90645 0.53138 0.95721 0.0
H620 H 0.90545 0.55074 0.98803 0.0
H621 H 0.88674 0.49576 0.08597 0.0
H622 H 0.92612 0.49168 0.076 0.0
H623 H 0.91714 0.50015 0.98131 0.0
C624 C 0.84157 0.52513 0.00345 0.0
C625 C 0.82912 0.53041 0.02707 0.0
C626 C 0.83278 0.52445 0.05677 0.0
C627 C 0.84866 0.5133 0.06286 0.0
C628 C 0.86057 0.50815 0.03896 0.0
C629 C 0.8571 0.51384 0.00982 0.0
C630 C 0.87396 0.50901 0.98836 0.0
C631 C 0.85687 0.48659 0.96627 0.0
C632 C 0.89316 0.53469 0.97184 0.0
C633 C 0.88823 0.50061 0.01001 0.0
C634 C 0.88007 0.49983 0.03911 0.0
C635 C 0.89276 0.49555 0.06322 0.0
C636 C 0.91492 0.49304 0.05744 0.0
C637 C 0.92389 0.49484 0.02788 0.0
C638 C 0.90988 0.49775 0.00397 0.0
H639 H 0.48182 0.31423 0.05154 0.0
H640 H 0.46008 0.297 0.95801 0.0
H641 H 0.48187 0.34455 0.94715 0.0
H642 H 0.46672 0.36478 0.05566 0.0
H643 H 0.49257 0.38426 0.08222 0.0
H644 H 0.47893 0.34905 0.08057 0.0
H645 H 0.52633 0.3573 0.07301 0.0
H646 H 0.53963 0.39267 0.0729 0.0
H647 H 0.54546 0.37676 0.04173 0.0
H648 H 0.50118 0.39263 0.94675 0.0
H649 H 0.50513 0.4356 0.95951 0.0
H650 H 0.51566 0.42318 0.05265 0.0
C651 C 0.48205 0.32059 0.02875 0.0
C652 C 0.4699 0.30202 0.00549 0.0
C653 C 0.46966 0.3109 0.97609 0.0
C654 C 0.48238 0.33791 0.9696 0.0
C655 C 0.49511 0.35583 0.99278 0.0
C656 C 0.49443 0.34756 0.02193 0.0
C657 C 0.50548 0.37064 0.04348 0.0
C658 C 0.48469 0.36697 0.06681 0.0
C659 C 0.53074 0.37457 0.05866 0.0
C660 C 0.51133 0.39297 0.022 0.0
C661 C 0.50616 0.38417 0.99267 0.0
C662 C 0.50593 0.40005 0.96944 0.0
C663 C 0.5085 0.42456 0.97675 0.0
C664 C 0.51074 0.43226 0.00694 0.0
C665 C 0.51455 0.41758 0.02935 0.0
H666 H 0.15847 0.68822 0.96093 0.0
H667 H 0.18289 0.68863 0.05268 0.0
H668 H 0.15269 0.64052 0.05563 0.0
H669 H 0.0941 0.64923 0.97328 0.0
H670 H 0.08574 0.63137 0.93831 0.0
H671 H 0.11405 0.66395 0.94066 0.0
H672 H 0.14338 0.64569 0.92119 0.0
H673 H 0.11497 0.61284 0.91899 0.0
H674 H 0.14349 0.61856 0.94035 0.0
H675 H 0.11458 0.59449 0.05192 0.0
H676 H 0.06965 0.55642 0.04294 0.0
H677 H 0.06962 0.58635 0.95436 0.0
C678 C 0.15814 0.67789 0.98118 0.0
C679 C 0.17347 0.69197 0.00615 0.0
C680 C 0.17181 0.67819 0.0329 0.0
C681 C 0.15479 0.65076 0.03477 0.0
C682 C 0.13953 0.63746 0.00981 0.0
C683 C 0.14107 0.65062 0.98347 0.0
C684 C 0.11955 0.63301 0.96172 0.0
C685 C 0.10235 0.6451 0.95303 0.0
C686 C 0.13105 0.62718 0.93392 0.0
C687 C 0.10467 0.60854 0.98068 0.0
C688 C 0.11691 0.61101 0.00796 0.0
C689 C 0.10509 0.59202 0.03039 0.0
C690 C 0.07966 0.57052 0.02519 0.0
C691 C 0.06644 0.56883 -0.0019 0.0
C692 C 0.07953 0.58735 0.97525 0.0
H693 H 0.29824 0.43712 0.03166 0.0
H694 H 0.29279 0.47146 0.94802 0.0
H695 H 0.34026 0.48845 0.93906 0.0
H696 H 0.36422 0.49018 0.05225 0.0
H697 H 0.3732 0.46756 0.06854 0.0
H698 H 0.33935 0.45964 0.06869 0.0
H699 H 0.32558 0.41499 0.04191 0.0
H700 H 0.35936 0.42286 0.04169 0.0
H701 H 0.34098 0.41515 0.00713 0.0
H702 H 0.38917 0.50087 0.93936 0.0
H703 H 0.43321 0.50533 0.94821 0.0
H704 H 0.40457 0.46199 0.0311 0.0
C705 C 0.30716 0.44835 0.01157 0.0
C706 C 0.29203 0.45295 0.99047 0.0
C707 C 0.30418 0.46772 0.96439 0.0
C708 C 0.33109 0.47748 0.95919 0.0
C709 C 0.34553 0.47244 0.98041 0.0
C710 C 0.33387 0.45822 0.00611 0.0
C711 C 0.35322 0.45472 0.02511 0.0
C712 C 0.35776 0.46887 0.05544 0.0
C713 C 0.34425 0.42518 0.02917 0.0
C714 C 0.37738 0.46854 0.0058 0.0
C715 C 0.37294 0.47907 0.9803 0.0
C716 C 0.39284 0.49271 0.95931 0.0
C717 C 0.41775 0.49526 0.96448 0.0
C718 C 0.42211 0.48379 0.99013 0.0
C719 C 0.4017 0.47068 0.01104 0.0
H720 H 0.56304 0.8588 0.03105 0.0
H721 H 0.48389 0.79742 0.00739 0.0
H722 H 0.46873 0.83004 0.01066 0.0
H723 H 0.5439 0.89641 0.08241 0.0
H724 H 0.5705 0.92795 0.07025 0.0
H725 H 0.57437 0.89919 0.07023 0.0
H726 H 0.58628 0.90604 0.01396 0.0
H727 H 0.58306 0.93505 0.01417 0.0
H728 H 0.56422 0.90869 0.98783 0.0
H729 H 0.4631 0.86983 0.01282 0.0
H730 H 0.46884 0.91451 0.00588 0.0
H731 H 0.55194 0.9499 0.0262 0.0
C732 C 0.54251 0.85232 0.02672 0.0
C733 C 0.52458 0.82586 0.01863 0.0
C734 C 0.49784 0.8178 0.01329 0.0
C735 C 0.48906 0.83607 0.01547 0.0
C736 C 0.50726 0.86215 0.02341 0.0
C737 C 0.53349 0.87031 0.0287 0.0
C738 C 0.5496 0.89991 0.03384 0.0
C739 C 0.56021 0.90622 0.0661 0.0
C740 C 0.57209 0.91319 0.01108 0.0
C741 C 0.52867 0.90736 0.02872 0.0
C742 C 0.50416 0.88521 0.02397 0.0
C743 C 0.48208 0.88728 0.01697 0.0
C744 C 0.48543 0.91267 0.0133 0.0
C745 C 0.51074 0.93533 0.01591 0.0
C746 C 0.53236 0.93271 0.02469 0.0
H747 H 0.96625 0.14967 0.35895 0.0
H748 H 0.91209 0.17948 0.35243 0.0
H749 H 0.94793 0.22211 0.33325 0.0
H750 H 0.01911 0.20769 0.38738 0.0
H751 H 0.04428 0.20482 0.36776 0.0
H752 H 0.01361 0.17555 0.37641 0.0
H753 H 0.00683 0.16244 0.32034 0.0
H754 H 0.03742 0.19196 0.31148 0.0
H755 H 0.00735 0.18541 0.29304 0.0
H756 H 0.98933 0.26166 0.31788 0.0
H757 H 0.03488 0.2986 0.31569 0.0
H758 H 0.06367 0.24468 0.33508 0.0
C759 C 0.96195 0.16508 0.3529 0.0
C760 C 0.93647 0.16136 0.35673 0.0
C761 C 0.93153 0.18205 0.34948 0.0
C762 C 0.95166 0.20615 0.3383 0.0
C763 C 0.9766 0.20921 0.33467 0.0
C764 C 0.98195 0.18941 0.34215 0.0
C765 C 0.01111 0.19895 0.3395 0.0
C766 C 0.0227 0.19663 0.36955 0.0
C767 C 0.01596 0.18379 0.31461 0.0
C768 C 0.02152 0.22764 0.33085 0.0
C769 C 0.00106 0.23273 0.32711 0.0
C770 C 0.00549 0.25792 0.32058 0.0
C771 C 0.0315 0.27878 0.31939 0.0
C772 C 0.05284 0.27453 0.32539 0.0
C773 C 0.0478 0.24843 0.32995 0.0
H774 H 0.81251 0.75242 0.35602 0.0
H775 H 0.87122 0.83459 0.34099 0.0
H776 H 0.83651 0.84313 0.32181 0.0
H777 H 0.76763 0.74498 0.29113 0.0
H778 H 0.73888 0.72424 0.31305 0.0
H779 H 0.76892 0.72368 0.31945 0.0
H780 H 0.76792 0.73461 0.37537 0.0
H781 H 0.7381 0.73538 0.36918 0.0
H782 H 0.76642 0.76376 0.38536 0.0
H783 H 0.79433 0.8444 0.31431 0.0
H784 H 0.74926 0.83764 0.31688 0.0
H785 H 0.71878 0.75419 0.33498 0.0
C786 C 0.81811 0.77199 0.34773 0.0
C787 C 0.84444 0.79284 0.34983 0.0
C788 C 0.85115 0.81829 0.33916 0.0
C789 C 0.83156 0.82329 0.3283 0.0
C790 C 0.8055 0.8025 0.32775 0.0
C791 C 0.79888 0.77719 0.33668 0.0
C792 C 0.76938 0.75891 0.3371 0.0
C793 C 0.7607 0.73664 0.31378 0.0
C794 C 0.75992 0.74753 0.36861 0.0
C795 C 0.76034 0.77813 0.32842 0.0
C796 C 0.78135 0.80313 0.32277 0.0
C797 C 0.77771 0.82474 0.31786 0.0
C798 C 0.75204 0.82075 0.3194 0.0
C799 C 0.73043 0.79536 0.32587 0.0
C800 C 0.73475 0.77377 0.32944 0.0
H801 H 0.18766 0.02334 0.39034 0.0
H802 H 0.20967 0.06647 0.30689 0.0
H803 H 0.20197 0.02578 0.28046 0.0
H804 H 0.22235 -0.00692 0.3803 0.0
H805 H 0.19979 0.96212 0.39792 0.0
H806 H 0.19997 -0.00812 0.40844 0.0
H807 H 0.15018 0.96977 0.39567 0.0
H808 H 0.14985 0.93973 0.38532 0.0
H809 H 0.13846 0.95536 0.35916 0.0
H810 H 0.20271 0.98503 0.26635 0.0
H811 H 0.20962 0.94664 0.26481 0.0
H812 H 0.18583 0.92924 0.35726 0.0
C813 C 0.18985 0.02383 0.36629 0.0
C814 C 0.19912 0.04772 0.35044 0.0
C815 C 0.20226 0.04811 0.31917 0.0
C816 C 0.1979 0.02513 0.30409 0.0
C817 C 0.19005 0.0021 0.32071 0.0
C818 C 0.18567 0.00121 0.35111 0.0
C819 C 0.18136 0.97564 0.36479 0.0
C820 C 0.2021 0.98102 0.38927 0.0
C821 C 0.15328 0.95915 0.37694 0.0
C822 C 0.18526 0.9627 0.33763 0.0
C823 C 0.18995 0.97811 0.31233 0.0
C824 C 0.19816 0.97234 0.28567 0.0
C825 C 0.2022 0.95067 0.28505 0.0
C826 C 0.19779 0.935 0.31082 0.0
C827 C 0.18843 0.94053 0.33708 0.0
H828 H 0.49135 0.63819 0.27764 0.0
H829 H 0.46616 0.60448 0.36592 0.0
H830 H 0.49734 0.64791 0.38846 0.0
H831 H 0.55588 0.66839 0.29446 0.0
H832 H 0.56601 0.69694 0.27092 0.0
H833 H 0.53668 0.66635 0.26192 0.0
H834 H 0.50975 0.6905 0.2623 0.0
H835 H 0.53918 0.72126 0.2715 0.0
H836 H 0.51058 0.70903 0.29493 0.0
H837 H 0.53672 0.69072 0.40128 0.0
H838 H 0.58247 0.72783 0.40365 0.0
H839 H 0.58448 0.73331 0.30717 0.0
C840 C 0.49194 0.64005 0.30175 0.0
C841 C 0.47637 0.61789 0.32005 0.0
C842 C 0.47761 0.62122 0.35144 0.0
C843 C 0.49528 0.64586 0.3644 0.0
C844 C 0.51141 0.66691 0.34565 0.0
C845 C 0.50986 0.66421 0.31493 0.0
C846 C 0.53244 0.68789 0.2998 0.0
C847 C 0.5487 0.67938 0.28068 0.0
C848 C 0.52238 0.70307 0.28103 0.0
C849 C 0.5478 0.70384 0.32686 0.0
C850 C 0.53487 0.69175 0.35308 0.0
C851 C 0.54664 0.70075 0.38099 0.0
C852 C 0.57259 0.72182 0.38213 0.0
C853 C 0.5865 0.73356 0.35558 0.0
C854 C 0.57373 0.72521 0.32769 0.0
H855 H 0.3912 0.90513 0.3383 0.0
H856 H 0.36701 0.83169 0.29079 0.0
H857 H 0.32037 0.81628 0.30286 0.0
H858 H 0.33966 0.87451 0.39792 0.0
H859 H 0.33583 0.90324 0.39985 0.0
H860 H 0.36732 0.90695 0.39056 0.0
H861 H 0.36826 0.93124 0.34174 0.0
H862 H 0.33701 0.92783 0.35099 0.0
H863 H 0.34108 0.91545 0.31569 0.0
H864 H 0.27646 0.81117 0.31561 0.0
H865 H 0.23883 0.81778 0.3251 0.0
H866 H 0.29181 0.8943 0.36541 0.0
C867 C 0.376 0.88566 0.33092 0.0
C868 C 0.38234 0.86945 0.31374 0.0
C869 C 0.36225 0.84417 0.30417 0.0
C870 C 0.33584 0.83527 0.31105 0.0
C871 C 0.33008 0.85174 0.32803 0.0
C872 C 0.34963 0.87635 0.33803 0.0
C873 C 0.33812 0.8909 0.35429 0.0
C874 C 0.34568 0.89408 0.38763 0.0
C875 C 0.34661 0.91793 0.33978 0.0
C876 C 0.309 0.87155 0.34986 0.0
C877 C 0.30474 0.84872 0.33551 0.0
C878 C 0.27952 0.82875 0.3273 0.0
C879 C 0.25822 0.83265 0.3329 0.0
C880 C 0.26238 0.85656 0.34606 0.0
C881 C 0.288 0.87573 0.35557 0.0
H882 H 0.121 0.50928 0.36233 0.0
H883 H 0.13632 0.51675 0.26732 0.0
H884 H 0.15405 0.48634 0.27107 0.0
H885 H 0.17715 0.49965 0.38662 0.0
H886 H 0.15684 0.47494 0.4136 0.0
H887 H 0.15092 0.50167 0.40482 0.0
H888 H 0.10233 0.46781 0.3911 0.0
H889 H 0.108 0.44118 0.40036 0.0
H890 H 0.09544 0.44231 0.36386 0.0
H891 H 0.16326 0.45037 0.28329 0.0
H892 H 0.15785 0.40799 0.30181 0.0
H893 H 0.13671 0.42383 0.38887 0.0
C894 C 0.12886 0.50499 0.34264 0.0
C895 C 0.12777 0.5153 0.31468 0.0
C896 C 0.13731 0.50893 0.28895 0.0
C897 C 0.14763 0.49198 0.29094 0.0
C898 C 0.14822 0.48171 0.31884 0.0
C899 C 0.1389 0.48783 0.34422 0.0
C900 C 0.13756 0.47086 0.37034 0.0
C901 C 0.15677 0.4878 0.39532 0.0
C902 C 0.10916 0.45458 0.38206 0.0
C903 C 0.14639 0.45345 0.35535 0.0
C904 C 0.15319 0.46044 0.32586 0.0
C905 C 0.15862 0.44502 0.30653 0.0
C906 C 0.15561 0.42105 0.3172 0.0
C907 C 0.14683 0.41283 0.34664 0.0
C908 C 0.14365 0.4299 0.36628 0.0
H909 H 0.36734 0.46106 0.3534 0.0
H910 H 0.35474 0.52566 0.32844 0.0
H911 H 0.30696 0.49686 0.33665 0.0
H912 H 0.31231 0.41 0.31834 0.0
H913 H 0.3049 0.38584 0.34731 0.0
H914 H 0.33816 0.41236 0.34241 0.0
H915 H 0.3399 0.42613 0.39784 0.0
H916 H 0.30647 0.39967 0.40281 0.0
H917 H 0.3154 0.43332 0.41164 0.0
H918 H 0.26017 0.45963 0.34266 0.0
H919 H 0.21837 0.41689 0.34475 0.0
H920 H 0.26178 0.37705 0.36716 0.0
C921 C 0.35448 0.46912 0.34986 0.0
C922 C 0.36455 0.49528 0.33948 0.0
C923 C 0.3473 0.50543 0.33569 0.0
C924 C 0.32018 0.48931 0.34057 0.0
C925 C 0.31076 0.46333 0.35003 0.0
C926 C 0.32743 0.45338 0.3549 0.0
C927 C 0.31224 0.42443 0.36362 0.0
C928 C 0.3172 0.40716 0.34159 0.0
C929 C 0.3189 0.42068 0.3959 0.0
C930 C 0.28433 0.41925 0.3612 0.0
C931 C 0.28386 0.44205 0.354 0.0
C932 C 0.26028 0.44173 0.34875 0.0
C933 C 0.23662 0.41736 0.35004 0.0
C934 C 0.23679 0.39362 0.35615 0.0
C935 C 0.26096 0.39486 0.36265 0.0
H936 H 0.51466 0.88012 0.31373 0.0
H937 H 0.47884 0.8482 0.39938 0.0
H938 H 0.51063 0.83263 0.40815 0.0
H939 H 0.529 0.82759 0.29454 0.0
H940 H 0.55968 0.85047 0.27701 0.0
H941 H 0.53285 0.8571 0.27691 0.0
H942 H 0.56303 0.90297 0.30173 0.0
H943 H 0.58994 0.8966 0.30166 0.0
H944 H 0.57993 0.9047 0.33619 0.0
H945 H 0.54857 0.82255 0.40801 0.0
H946 H 0.59021 0.82191 0.39999 0.0
H947 H 0.5997 0.86069 0.3147 0.0
C948 C 0.51331 0.86948 0.33411 0.0
C949 C 0.4942 0.86496 0.35567 0.0
C950 C 0.49324 0.85151 0.38242 0.0
C951 C 0.51112 0.84256 0.38753 0.0
C952 C 0.52969 0.84717 0.3656 0.0
C953 C 0.53082 0.86036 0.33943 0.0
C954 C 0.55332 0.86423 0.32 0.0
C955 C 0.5431 0.84893 0.29036 0.0
C956 C 0.57269 0.89388 0.3146 0.0
C957 C 0.56528 0.85196 0.33966 0.0
C958 C 0.55128 0.84175 0.36569 0.0
C959 C 0.55953 0.8303 0.38757 0.0
C960 C 0.58304 0.8299 0.38288 0.0
C961 C 0.5979 0.8413 0.35682 0.0
C962 C 0.58856 0.85187 0.33485 0.0
H963 H 0.12294 0.63694 0.38942 0.0
H964 H 0.17853 0.64632 0.3207 0.0
H965 H 0.19481 0.69444 0.31917 0.0
H966 H 0.10245 0.67534 0.36059 0.0
H967 H 0.09995 0.69044 0.39463 0.0
H968 H 0.09758 0.65862 0.39589 0.0
H969 H 0.13609 0.67649 0.43428 0.0
H970 H 0.13853 0.70855 0.43325 0.0
H971 H 0.16702 0.70562 0.42555 0.0
H972 H 0.19799 0.73882 0.3174 0.0
H973 H 0.18814 0.77544 0.31648 0.0
H974 H 0.13112 0.7369 0.38694 0.0
C975 C 0.13905 0.64934 0.37471 0.0
C976 C 0.149 0.63808 0.35459 0.0
C977 C 0.17028 0.65469 0.33582 0.0
C978 C 0.17984 0.68203 0.33504 0.0
C979 C 0.1685 0.69243 0.35394 0.0
C980 C 0.14894 0.67663 0.37393 0.0
C981 C 0.13776 0.69184 0.38921 0.0
C982 C 0.10768 0.67826 0.38477 0.0
C983 C 0.14531 0.69586 0.42255 0.0
C984 C 0.1521 0.71771 0.37249 0.0
C985 C 0.1705 0.71815 0.35305 0.0
C986 C 0.18415 0.73901 0.33308 0.0
C987 C 0.17836 0.75961 0.33257 0.0
C988 C 0.1587 0.75866 0.35141 0.0
C989 C 0.14615 0.73794 0.37218 0.0
H990 H 0.82818 0.02856 0.36577 0.0
H991 H 0.86465 0.0188 0.28675 0.0
H992 H 0.83406 0.97028 0.2883 0.0
H993 H 0.81296 0.96467 0.4026 0.0
H994 H 0.78207 0.95963 0.41655 0.0
H995 H 0.80951 -0.0072 0.41204 0.0
H996 H 0.78111 0.00493 0.3782 0.0
H997 H 0.75357 0.97219 0.38325 0.0
H998 H 0.76452 0.98452 0.34605 0.0
H999 H 0.79619 0.92407 0.29484 0.0
H1000 H 0.75125 0.88601 0.30159 0.0
H1001 H 0.7398 0.9259 0.37641 0.0
C1002 C 0.83008 0.01604 0.34929 0.0
C1003 C 0.84886 0.02716 0.32643 0.0
C1004 C 0.85049 0.01047 0.30466 0.0
C1005 C 0.83337 0.98293 0.30553 0.0
C1006 C 0.81504 0.97248 0.32853 0.0
C1007 C 0.81326 0.98861 0.34994 0.0
C1008 C 0.78997 0.97309 0.37016 0.0
C1009 C 0.79919 0.97252 0.40224 0.0
C1010 C 0.77119 0.98433 0.36932 0.0
C1011 C 0.77788 0.94599 0.35566 0.0
C1012 C 0.79311 0.94577 0.33231 0.0
C1013 C 0.78448 0.92375 0.31357 0.0
C1014 C 0.75908 0.90207 0.31776 0.0
C1015 C 0.74266 0.90291 0.34012 0.0
C1016 C 0.75258 0.92451 0.36006 0.0
H1017 H 0.98168 0.80432 0.37873 0.0
H1018 H 0.95215 0.79147 0.28766 0.0
H1019 H -0.00254 0.8097 0.26883 0.0
H1020 H 0.04578 0.86655 0.36426 0.0
H1021 H 0.06335 0.85732 0.39023 0.0
H1022 H 0.02919 0.84678 0.3965 0.0
H1023 H 0.01808 0.7978 0.39872 0.0
H1024 H 0.05215 0.80829 0.39273 0.0
H1025 H 0.02728 0.78421 0.36799 0.0
H1026 H 0.04426 0.82219 0.26028 0.0
H1027 H 0.08918 0.82848 0.2628 0.0
H1028 H 0.08943 0.8362 0.35898 0.0
C1029 C 0.98497 0.80604 0.35485 0.0
C1030 C 0.96358 0.79668 0.33459 0.0
C1031 C 0.96836 0.79869 0.30348 0.0
C1032 C -0.00598 0.8091 0.29262 0.0
C1033 C 0.01471 0.81777 0.31316 0.0
C1034 C 0.01052 0.81657 0.34365 0.0
C1035 C 0.0358 0.82501 0.36098 0.0
C1036 C 0.04401 0.85043 0.37906 0.0
C1037 C 0.03316 0.80249 0.38128 0.0
C1038 C 0.05465 0.83018 0.33552 0.0
C1039 C 0.04215 0.8261 0.30809 0.0
C1040 C 0.05454 0.82633 0.2815 0.0
C1041 C 0.08005 0.83003 0.28307 0.0
C1042 C 0.09295 0.83389 0.31092 0.0
C1043 C 0.08037 0.83465 0.33733 0.0
H1044 H 0.19583 0.16918 0.31291 0.0
H1045 H 0.17942 0.15632 0.40752 0.0
H1046 H 0.15435 0.17992 0.40473 0.0
H1047 H 0.21075 0.23295 0.31331 0.0
H1048 H 0.19722 0.23262 0.27693 0.0
H1049 H 0.20794 0.20948 0.28522 0.0
H1050 H 0.1616 0.17071 0.27068 0.0
H1051 H 0.15061 0.19393 0.26285 0.0
H1052 H 0.13291 0.16743 0.28906 0.0
H1053 H 0.13854 0.21155 0.39383 0.0
H1054 H 0.13842 0.25192 0.3772 0.0
H1055 H 0.16426 0.24361 0.28957 0.0
C1056 C 0.18608 0.17051 0.33274 0.0
C1057 C 0.1888 0.16033 0.36021 0.0
C1058 C 0.17688 0.16343 0.38609 0.0
C1059 C 0.1625 0.17664 0.38466 0.0
C1060 C 0.16025 0.18664 0.35718 0.0
C1061 C 0.17179 0.18373 0.33166 0.0
C1062 C 0.17043 0.19993 0.30612 0.0
C1063 C 0.19822 0.21992 0.29478 0.0
C1064 C 0.15283 0.18191 0.28068 0.0
C1065 C 0.15773 0.21365 0.32168 0.0
C1066 C 0.15125 0.20519 0.35088 0.0
C1067 C 0.14282 0.21783 0.37079 0.0
C1068 C 0.14259 0.24064 0.36115 0.0
C1069 C 0.15118 0.25058 0.33211 0.0
C1070 C 0.15718 0.23599 0.31174 0.0
H1071 H 0.60418 0.51392 0.67407 0.0
H1072 H 0.63014 0.45821 0.6952 0.0
H1073 H 0.67454 0.48991 0.67637 0.0
H1074 H 0.64979 0.54487 0.60615 0.0
H1075 H 0.65447 0.57701 0.61546 0.0
H1076 H 0.62341 0.54752 0.62292 0.0
H1077 H 0.62695 0.56151 0.6785 0.0
H1078 H 0.65778 0.59086 0.67124 0.0
H1079 H 0.6558 0.5682 0.69989 0.0
H1080 H 0.71751 0.53045 0.66487 0.0
H1081 H 0.75503 0.57631 0.66526 0.0
H1082 H 0.70129 0.60602 0.65268 0.0
C1083 C 0.61907 0.50817 0.67383 0.0
C1084 C 0.61388 0.48372 0.68592 0.0
C1085 C 0.63373 0.47676 0.68559 0.0
C1086 C 0.65894 0.49461 0.67483 0.0
C1087 C 0.66376 0.51905 0.66393 0.0
C1088 C 0.64421 0.52568 0.66301 0.0
C1089 C 0.65511 0.55432 0.65409 0.0
C1090 C 0.6451 0.55603 0.6228 0.0
C1091 C 0.64854 0.5696 0.67734 0.0
C1092 C 0.68423 0.5636 0.65354 0.0
C1093 C 0.68875 0.54271 0.65775 0.0
C1094 C 0.71419 0.54683 0.66084 0.0
C1095 C 0.73542 0.57298 0.66097 0.0
C1096 C 0.73095 0.59462 0.65894 0.0
C1097 C 0.70517 0.58976 0.65393 0.0
H1098 H 0.50897 0.14592 0.72397 0.0
H1099 H 0.50137 0.09563 0.64908 0.0
H1100 H 0.46532 0.10126 0.62815 0.0
H1101 H 0.44572 0.12087 0.73712 0.0
H1102 H 0.44627 0.15114 0.74685 0.0
H1103 H 0.47544 0.14893 0.75146 0.0
H1104 H 0.50139 0.19018 0.71795 0.0
H1105 H 0.4722 0.19268 0.71334 0.0
H1106 H 0.48926 0.1907 0.681 0.0
H1107 H 0.42421 0.10351 0.62245 0.0
H1108 H 0.38264 0.10348 0.63165 0.0
H1109 H 0.41791 0.15386 0.709 0.0
C1110 C 0.50039 0.13715 0.70249 0.0
C1111 C 0.50788 0.1207 0.68778 0.0
C1112 C 0.496 0.10871 0.66022 0.0
C1113 C 0.47561 0.11185 0.64822 0.0
C1114 C 0.46787 0.12748 0.66386 0.0
C1115 C 0.4803 0.14039 0.69014 0.0
C1116 C 0.4662 0.15308 0.70478 0.0
C1117 C 0.45791 0.14287 0.73692 0.0
C1118 C 0.48328 0.18346 0.70422 0.0
C1119 C 0.4427 0.14348 0.68404 0.0
C1120 C 0.4443 0.12931 0.66011 0.0
C1121 C 0.42317 0.1154 0.64037 0.0
C1122 C 0.39969 0.11546 0.64569 0.0
C1123 C 0.39771 0.12935 0.67043 0.0
C1124 C 0.41958 0.14404 0.68928 0.0
H1125 H 0.87302 0.38506 0.66483 0.0
H1126 H 0.8307 0.35453 0.74748 0.0
H1127 H 0.81979 0.30913 0.73296 0.0
H1128 H 0.83203 0.32449 0.61631 0.0
H1129 H 0.86109 0.329 0.59763 0.0
H1130 H 0.85968 0.35739 0.61107 0.0
H1131 H 0.90273 0.37241 0.64125 0.0
H1132 H 0.9041 0.34396 0.62847 0.0
H1133 H 0.90422 0.35007 0.66798 0.0
H1134 H 0.81947 0.26853 0.71294 0.0
H1135 H 0.83023 0.2367 0.68929 0.0
H1136 H 0.8752 0.29522 0.62175 0.0
C1137 C 0.86035 0.36853 0.67904 0.0
C1138 C 0.85201 0.37285 0.70678 0.0
C1139 C 0.83664 0.35122 0.72579 0.0
C1140 C 0.83041 0.32547 0.71772 0.0
C1141 C 0.83987 0.32187 0.69068 0.0
C1142 C 0.85439 0.34285 0.67152 0.0
C1143 C 0.86564 0.33469 0.64612 0.0
C1144 C 0.8539 0.33649 0.616 0.0
C1145 C 0.89595 0.35125 0.64598 0.0
C1146 C 0.85605 0.3062 0.65455 0.0
C1147 C 0.84077 0.29891 0.67993 0.0
C1148 C 0.83114 0.27393 0.69282 0.0
C1149 C 0.83752 0.25608 0.67948 0.0
C1150 C 0.85382 0.2636 0.65404 0.0
C1151 C 0.8627 0.28881 0.64125 0.0
H1152 H 0.14943 0.94151 0.68165 0.0
H1153 H 0.143 0.96554 0.59194 0.0
H1154 H 0.17835 0.01134 0.60332 0.0
H1155 H 0.1701 0.00727 0.72074 0.0
H1156 H 0.19269 0.00313 0.74448 0.0
H1157 H 0.16258 0.97452 0.7319 0.0
H1158 H 0.18954 0.95439 0.7102 0.0
H1159 H 0.2196 0.98291 0.72238 0.0
H1160 H 0.21514 0.9732 0.68357 0.0
H1161 H 0.21951 0.05211 0.62151 0.0
H1162 H 0.26293 0.08313 0.64449 0.0
H1163 H 0.24265 0.03145 0.7214 0.0
C1164 C 0.15465 0.95677 0.66496 0.0
C1165 C 0.14336 0.95028 0.63615 0.0
C1166 C 0.15135 0.97036 0.61428 0.0
C1167 C 0.1713 -0.0036 0.62059 0.0
C1168 C 0.18298 0.00198 0.64889 0.0
C1169 C 0.17475 0.98271 0.67082 0.0
C1170 C 0.19299 -0.00758 0.69766 0.0
C1171 C 0.17873 -0.00554 0.72533 0.0
C1172 C 0.20502 0.97469 0.70377 0.0
C1173 C 0.21345 0.01956 0.68681 0.0
C1174 C 0.20711 0.02513 0.65901 0.0
C1175 C 0.22441 0.04819 0.64357 0.0
C1176 C 0.24901 0.06566 0.65668 0.0
C1177 C 0.25608 0.05952 0.68455 0.0
C1178 C 0.23774 0.03661 0.70001 0.0
H1179 H 0.04227 0.21524 0.60754 0.0
H1180 H 0.06428 0.2194 0.70086 0.0
H1181 H 0.01949 0.20951 0.71554 0.0
H1182 H 0.00703 0.24806 0.61437 0.0
H1183 H 0.98242 0.22807 0.58684 0.0
H1184 H 0.01493 0.23254 0.58452 0.0
H1185 H -0.00487 0.18148 0.58488 0.0
H1186 H 0.96248 0.17687 0.58724 0.0
H1187 H 0.9737 0.16222 0.61488 0.0
H1188 H 0.97201 0.20202 0.71901 0.0
H1189 H 0.92875 0.19938 0.71071 0.0
H1190 H 0.9406 0.20148 0.61506 0.0
C1191 C 0.03766 0.21394 0.6311 0.0
C1192 C 0.05668 0.21825 0.65309 0.0
C1193 C 0.04983 0.21604 0.68368 0.0
C1194 C 0.02449 0.21045 0.69217 0.0
C1195 C 0.00628 0.20682 0.66974 0.0
C1196 C 0.01269 0.20837 0.63982 0.0
C1197 C -0.00944 0.2052 0.61977 0.0
C1198 C -0.00074 0.22994 0.60024 0.0
C1199 C 0.97984 0.17994 0.60057 0.0
C1200 C 0.97089 0.20252 0.64293 0.0
C1201 C 0.97985 0.20299 0.6717 0.0
C1202 C 0.96482 0.20147 0.69654 0.0
C1203 C 0.94031 0.19992 0.69169 0.0
C1204 C 0.93157 0.20045 0.66227 0.0
C1205 C 0.94692 0.20127 0.63782 0.0
H1206 H 0.78851 0.8388 0.6806 0.0
H1207 H 0.81806 0.8453 0.59082 0.0
H1208 H 0.82975 0.81085 0.60214 0.0
H1209 H 0.83546 0.82326 0.71954 0.0
H1210 H 0.8102 0.7996 0.74379 0.0
H1211 H 0.80846 0.8278 0.73028 0.0
H1212 H 0.76178 0.79647 0.70862 0.0
H1213 H 0.76328 0.76828 0.7222 0.0
H1214 H 0.7569 0.77042 0.68313 0.0
H1215 H 0.83407 0.77275 0.62173 0.0
H1216 H 0.82619 0.73128 0.64631 0.0
H1217 H 0.79238 0.74887 0.72217 0.0
C1218 C 0.79815 0.83341 0.66373 0.0
C1219 C 0.80297 0.84481 0.63512 0.0
C1220 C 0.81468 0.83686 0.61302 0.0
C1221 C 0.82147 0.81748 0.61932 0.0
C1222 C 0.81626 0.8063 0.64776 0.0
C1223 C 0.80471 0.81387 0.66956 0.0
C1224 C 0.79804 0.79653 0.69692 0.0
C1225 C 0.814 0.81277 0.72425 0.0
C1226 C 0.76824 0.78207 0.70305 0.0
C1227 C 0.80689 0.77751 0.6868 0.0
C1228 C 0.81792 0.7838 0.65868 0.0
C1229 C 0.82582 0.76789 0.64394 0.0
C1230 C 0.82145 0.74449 0.65793 0.0
C1231 C 0.80882 0.73702 0.68584 0.0
C1232 C 0.8023 0.75423 0.70083 0.0
H1233 H 0.03611 0.80465 0.64449 0.0
H1234 H 0.03658 0.84572 0.72531 0.0
H1235 H -0.01022 0.81192 0.73399 0.0
H1236 H 0.97177 0.78796 0.62052 0.0
H1237 H 0.96406 0.75627 0.60521 0.0
H1238 H -0.0023 0.78292 0.60671 0.0
H1239 H 0.01072 0.753 0.63651 0.0
H1240 H 0.97708 0.72629 0.63506 0.0
H1241 H -0.00632 0.73764 0.6706 0.0
H1242 H 0.94141 0.77357 0.73191 0.0
H1243 H 0.89742 0.73505 0.71937 0.0
H1244 H 0.93055 0.7207 0.63995 0.0
C1245 C 0.02637 0.80627 0.66419 0.0
C1246 C 0.03983 0.8275 0.68438 0.0
C1247 C 0.02652 0.82938 0.70972 0.0
C1248 C -1e-05 0.81031 0.71478 0.0
C1249 C 0.98714 0.78962 0.69421 0.0
C1250 C 2e-05 0.78757 0.66944 0.0
C1251 C 0.98185 0.76423 0.65 0.0
C1252 C 0.97866 0.7734 0.61877 0.0
C1253 C -0.00859 0.7441 0.64794 0.0
C1254 C 0.95673 0.75333 0.66763 0.0
C1255 C 0.95991 0.76809 0.69305 0.0
C1256 C 0.9388 0.76183 0.7121 0.0
C1257 C 0.91389 0.73997 0.70481 0.0
C1258 C 0.91044 0.72473 0.67873 0.0
C1259 C 0.93234 0.73167 0.6602 0.0
H1260 H 0.18884 0.22123 0.71409 0.0
H1261 H 0.139 0.16623 0.64513 0.0
H1262 H 0.16381 0.14258 0.64885 0.0
H1263 H 0.2475 0.22886 0.69006 0.0
H1264 H 0.26117 0.23036 0.7267 0.0
H1265 H 0.23684 0.24006 0.72175 0.0
H1266 H 0.20805 0.20617 0.76215 0.0
H1267 H 0.23224 0.19605 0.76676 0.0
H1268 H 0.19859 0.17178 0.75787 0.0
H1269 H 0.19687 0.12773 0.65626 0.0
H1270 H 0.23816 0.12664 0.66247 0.0
H1271 H 0.26667 0.19155 0.72589 0.0
C1272 C 0.18293 0.20393 0.70016 0.0
C1273 C 0.16218 0.19576 0.67926 0.0
C1274 C 0.15495 0.17307 0.66124 0.0
C1275 C 0.16877 0.15929 0.66339 0.0
C1276 C 0.18941 0.16812 0.68401 0.0
C1277 C 0.19646 0.18995 0.70208 0.0
C1278 C 0.22096 0.19705 0.72026 0.0
C1279 C 0.2429 0.22576 0.7143 0.0
C1280 C 0.21457 0.19249 0.75375 0.0
C1281 C 0.22766 0.177 0.70802 0.0
C1282 C 0.2087 0.1598 0.688 0.0
C1283 C 0.21159 0.14075 0.67229 0.0
C1284 C 0.235 0.14012 0.67611 0.0
C1285 C 0.25533 0.15886 0.69488 0.0
C1286 C 0.25115 0.17675 0.71184 0.0
H1287 H 0.81128 0.97399 0.70999 0.0
H1288 H 0.82876 0.97685 0.61561 0.0
H1289 H 0.84358 0.02453 0.61489 0.0
H1290 H 0.78264 0.01246 0.70461 0.0
H1291 H 0.79434 0.02886 0.74021 0.0
H1292 H 0.7902 -0.00346 0.73446 0.0
H1293 H 0.83901 0.01471 0.74988 0.0
H1294 H 0.84333 0.04729 0.75522 0.0
H1295 H 0.86471 0.04268 0.73033 0.0
H1296 H 0.85123 0.07062 0.62281 0.0
H1297 H 0.84574 0.10852 0.63762 0.0
H1298 H 0.82267 0.07514 0.72619 0.0
C1299 C 0.81906 0.98492 0.68945 0.0
C1300 C 0.81962 0.97188 0.66321 0.0
C1301 C 0.82879 0.98648 0.6363 0.0
C1302 C 0.83738 0.01367 0.63566 0.0
C1303 C 0.83657 0.02597 0.66201 0.0
C1304 C 0.82749 0.01197 0.68839 0.0
C1305 C 0.82496 0.02865 0.71252 0.0
C1306 C 0.79635 0.01587 0.72357 0.0
C1307 C 0.84416 0.03362 0.73852 0.0
C1308 C 0.83296 0.05382 0.69526 0.0
C1309 C 0.84027 0.05226 0.66638 0.0
C1310 C 0.84599 0.07226 0.64553 0.0
C1311 C 0.84293 0.09375 0.65408 0.0
C1312 C 0.8337 0.09453 0.6829 0.0
C1313 C 0.8299 0.075 0.70402 0.0
H1314 H 0.48736 0.35599 0.6365 0.0
H1315 H 0.50971 0.35282 0.72823 0.0
H1316 H 0.47974 0.30436 0.72847 0.0
H1317 H 0.42197 0.31432 0.64618 0.0
H1318 H 0.41547 0.29858 0.61 0.0
H1319 H 0.4428 0.33155 0.61492 0.0
H1320 H 0.4743 0.31628 0.59452 0.0
H1321 H 0.4469 0.28307 0.58981 0.0
H1322 H 0.4751 0.2888 0.61184 0.0
H1323 H 0.44292 0.25734 0.721 0.0
H1324 H 0.39974 0.21802 0.70836 0.0
H1325 H 0.40083 0.25256 0.6223 0.0
C1326 C 0.48663 0.34487 0.65622 0.0
C1327 C 0.50155 0.35797 0.68188 0.0
C1328 C 0.49914 0.34309 0.70792 0.0
C1329 C 0.4822 0.31551 0.70823 0.0
C1330 C 0.46765 0.30316 0.68248 0.0
C1331 C 0.46967 0.31746 0.65695 0.0
C1332 C 0.44918 0.30046 0.63384 0.0
C1333 C 0.4313 0.3119 0.62581 0.0
C1334 C 0.46216 0.29694 0.60585 0.0
C1335 C 0.43444 0.27478 0.6509 0.0
C1336 C 0.44581 0.27634 0.67854 0.0
C1337 C 0.43413 0.2557 0.69919 0.0
C1338 C 0.4097 0.23342 0.69184 0.0
C1339 C 0.39716 0.23244 0.6644 0.0
C1340 C 0.4102 0.25286 0.64335 0.0
H1341 H 0.6239 0.09063 0.64741 0.0
H1342 H 0.63442 0.16305 0.68735 0.0
H1343 H 0.68235 0.18479 0.67869 0.0
H1344 H 0.67752 0.09155 0.6785 0.0
H1345 H 0.68611 0.0792 0.6461 0.0
H1346 H 0.65267 0.07122 0.65131 0.0
H1347 H 0.65302 0.09069 0.59911 0.0
H1348 H 0.68677 0.09911 0.59401 0.0
H1349 H 0.67778 0.12433 0.59072 0.0
H1350 H 0.72963 0.19674 0.67118 0.0
H1351 H 0.77147 0.1962 0.66967 0.0
H1352 H 0.72975 0.11601 0.63485 0.0
C1353 C 0.63632 0.11116 0.654 0.0
C1354 C 0.62562 0.12492 0.6687 0.0
C1355 C 0.64231 0.15192 0.67662 0.0
C1356 C 0.66951 0.16454 0.67146 0.0
C1357 C 0.67957 0.15013 0.65759 0.0
C1358 C 0.6634 0.12404 0.64883 0.0
C1359 C 0.67916 0.11212 0.63678 0.0
C1360 C 0.67354 0.08707 0.65424 0.0
C1361 C 0.67387 0.10622 0.60316 0.0
C1362 C 0.70681 0.13484 0.64237 0.0
C1363 C 0.70673 0.15699 0.65327 0.0
C1364 C 0.72995 0.17972 0.66211 0.0
C1365 C 0.75365 0.17933 0.66101 0.0
C1366 C 0.75367 0.15612 0.65188 0.0
C1367 C 0.73017 0.13408 0.64144 0.0
H1368 H 0.87608 0.5179 0.71546 0.0
H1369 H 0.84487 0.47264 0.63368 0.0
H1370 H 0.82097 0.49661 0.62303 0.0
H1371 H 0.81634 0.5236 0.73302 0.0
H1372 H 0.83619 0.55688 0.74722 0.0
H1373 H 0.84738 0.53335 0.7512 0.0
H1374 H 0.891 0.56531 0.72422 0.0
H1375 H 0.88023 0.58906 0.72135 0.0
H1376 H 0.88957 0.57836 0.68815 0.0
H1377 H 0.80582 0.52891 0.61789 0.0
H1378 H 0.80609 0.57119 0.61466 0.0
H1379 H 0.84601 0.59549 0.7002 0.0
C1380 C 0.86391 0.51294 0.69553 0.0
C1381 C 0.8623 0.49367 0.67524 0.0
C1382 C 0.84635 0.48749 0.64934 0.0
C1383 C 0.83247 0.50074 0.64337 0.0
C1384 C 0.83439 0.51967 0.66387 0.0
C1385 C 0.84983 0.52587 0.68938 0.0
C1386 C 0.851 0.54908 0.70596 0.0
C1387 C 0.83688 0.54019 0.73614 0.0
C1388 C 0.87964 0.57178 0.71011 0.0
C1389 C 0.8357 0.55643 0.68448 0.0
C1390 C 0.82531 0.53847 0.66101 0.0
C1391 C 0.81319 0.5427 0.63648 0.0
C1392 C 0.81327 0.56667 0.63491 0.0
C1393 C 0.82556 0.58606 0.65756 0.0
C1394 C 0.83561 0.58037 0.68333 0.0
H1395 H 0.46421 0.90183 0.21972 0.0
H1396 H 0.45723 0.95814 0.27636 0.0
H1397 H 0.47165 0.99009 0.23465 0.0
H1398 H 0.52103 0.95204 0.17246 0.0
H1399 H 0.50711 0.93249 0.13906 0.0
H1400 H 0.50197 0.91641 0.17482 0.0
H1401 H 0.45155 0.89238 0.16597 0.0
H1402 H 0.45654 0.90836 0.13036 0.0
H1403 H 0.43605 0.91164 0.15783 0.0
H1404 H 0.47935 0.01245 0.18614 0.0
H1405 H 0.47793 0.02327 0.13319 0.0
H1406 H 0.47969 0.95286 0.10625 0.0
C1407 C 0.46672 0.92131 0.22347 0.0
C1408 C 0.46014 0.92788 0.25124 0.0
C1409 C 0.46255 0.95303 0.25528 0.0
C1410 C 0.47083 0.97128 0.23178 0.0
C1411 C 0.47656 0.96403 0.20437 0.0
C1412 C 0.47466 0.93965 0.20003 0.0
C1413 C 0.47843 0.93543 0.16733 0.0
C1414 C 0.50364 0.93402 0.16318 0.0
C1415 C 0.4542 0.91049 0.15465 0.0
C1416 C 0.48128 0.96058 0.15377 0.0
C1417 C 0.48081 0.97705 0.17574 0.0
C1418 C 0.48039 8e-05 0.1688 0.0
C1419 C 0.47956 0.00605 0.13869 0.0
C1420 C 0.47917 0.98912 0.11582 0.0
C1421 C 0.48086 0.96653 0.12339 0.0
H1422 H 0.07428 0.50181 0.24287 0.0
H1423 H 0.05529 0.56321 0.26329 0.0
H1424 H 0.03172 0.55398 0.21482 0.0
H1425 H 0.08656 0.51267 0.17067 0.0
H1426 H 0.07135 0.47836 0.15962 0.0
H1427 H 0.08434 0.48811 0.19679 0.0
H1428 H 0.03906 0.45488 0.21953 0.0
H1429 H 0.02602 0.44427 0.18235 0.0
H1430 H 0.01006 0.45566 0.2077 0.0
H1431 H 0.01487 0.54053 0.15941 0.0
H1432 H 0.00302 0.52131 0.10808 0.0
H1433 H 0.03078 0.4672 0.13075 0.0
C1434 C 0.06429 0.51276 0.2387 0.0
C1435 C 0.06693 0.53331 0.25779 0.0
C1436 C 0.05419 0.5476 0.24925 0.0
C1437 C 0.04049 0.54235 0.22174 0.0
C1438 C 0.03906 0.52227 0.20342 0.0
C1439 C 0.05009 0.5073 0.21224 0.0
C1440 C 0.04698 0.48733 0.1889 0.0
C1441 C 0.0739 0.49193 0.17839 0.0
C1442 C 0.02948 0.45886 0.20031 0.0
C1443 C 0.03332 0.49394 0.16483 0.0
C1444 C 0.02874 0.51407 0.17318 0.0
C1445 C 0.01792 0.52439 0.15302 0.0
C1446 C 0.01143 0.51353 0.12391 0.0
C1447 C 0.01575 0.49258 0.11555 0.0
C1448 C 0.02677 0.48286 0.13647 0.0
H1449 H 0.45423 0.51626 0.24025 0.0
H1450 H 0.48502 0.60029 0.22478 0.0
H1451 H 0.50423 0.59722 0.17758 0.0
H1452 H 0.50807 0.51139 0.20572 0.0
H1453 H 0.48636 0.47973 0.18855 0.0
H1454 H 0.47726 0.48866 0.22317 0.0
H1455 H 0.43346 0.48032 0.19898 0.0
H1456 H 0.44242 0.47118 0.1645 0.0
H1457 H 0.43441 0.49721 0.16486 0.0
H1458 H 0.51867 0.58531 0.13107 0.0
H1459 H 0.52268 0.5637 0.08549 0.0
H1460 H 0.48103 0.48733 0.12965 0.0
C1461 C 0.46511 0.53401 0.22701 0.0
C1462 C 0.46873 0.55865 0.2368 0.0
C1463 C 0.48279 0.58134 0.21847 0.0
C1464 C 0.49375 0.57985 0.19148 0.0
C1465 C 0.49025 0.55545 0.18275 0.0
C1466 C 0.476 0.53283 0.19969 0.0
C1467 C 0.4733 0.50869 0.18375 0.0
C1468 C 0.48708 0.4964 0.20136 0.0
C1469 C 0.44418 0.48816 0.17766 0.0
C1470 C 0.48778 0.52132 0.15512 0.0
C1471 C 0.49781 0.54836 0.1552 0.0
C1472 C 0.51103 0.56413 0.13071 0.0
C1473 C 0.51332 0.55174 0.10498 0.0
C1474 C 0.50215 0.52389 0.10401 0.0
C1475 C 0.48988 0.5087 0.12973 0.0
H1476 H 0.88994 0.41031 0.80512 0.0
H1477 H 0.94553 0.47712 0.75219 0.0
H1478 H 0.97839 0.49091 0.79315 0.0
H1479 H 0.9031 0.44423 0.87138 0.0
H1480 H 0.89912 0.41736 0.89486 0.0
H1481 H 0.88227 0.41034 0.85949 0.0
H1482 H 0.90364 0.38263 0.8439 0.0
H1483 H 0.92089 0.38994 0.87924 0.0
H1484 H 0.93897 0.39762 0.84479 0.0
H1485 H 0.0026 0.50041 0.84092 0.0
H1486 H 0.01448 0.50856 0.89434 0.0
H1487 H 0.94326 0.436 0.91724 0.0
C1488 C 0.9093 0.42745 0.80196 0.0
C1489 C 0.91545 0.44254 0.77555 0.0
C1490 C 0.94058 0.46534 0.77235 0.0
C1491 C 0.95941 0.47308 0.79529 0.0
C1492 C 0.95272 0.45776 0.82115 0.0
C1493 C 0.92818 0.43555 0.82473 0.0
C1494 C 0.9246 0.42469 0.85614 0.0
C1495 C 0.90089 0.42415 0.87136 0.0
C1496 C 0.92187 0.39708 0.856 0.0
C1497 C 0.95046 0.44511 0.87023 0.0
C1498 C 0.96671 0.46349 0.84931 0.0
C1499 C -0.00961 0.48585 0.85735 0.0
C1500 C -0.00299 0.49029 0.88767 0.0
C1501 C 0.97997 0.47255 0.90947 0.0
C1502 C 0.95696 0.44919 0.9007 0.0
H1503 H 0.53308 0.44004 0.79235 0.0
H1504 H 0.55982 0.51076 0.73838 0.0
H1505 H 0.55076 0.53252 0.78002 0.0
H1506 H 0.47985 0.44702 0.832 0.0
H1507 H 0.48529 0.43415 0.86625 0.0
H1508 H 0.49016 0.4227 0.83072 0.0
H1509 H 0.53767 0.43597 0.8468 0.0
H1510 H 0.53308 0.44764 0.88216 0.0
H1511 H 0.56006 0.46959 0.85856 0.0
H1512 H 0.54514 0.54872 0.82869 0.0
H1513 H 0.54284 0.5585 0.88159 0.0
H1514 H 0.51782 0.477 0.90468 0.0
C1515 C 0.53621 0.45977 0.78887 0.0
C1516 C 0.54736 0.47369 0.76204 0.0
C1517 C 0.55173 0.49977 0.75881 0.0
C1518 C 0.54634 0.51222 0.78223 0.0
C1519 C 0.53605 0.49818 0.80859 0.0
C1520 C 0.53066 0.47241 0.81196 0.0
C1521 C 0.52145 0.46253 0.84344 0.0
C1522 C 0.49247 0.44028 0.84308 0.0
C1523 C 0.53914 0.45342 0.85862 0.0
C1524 C 0.5245 0.48747 0.85786 0.0
C1525 C 0.53231 0.50753 0.83702 0.0
C1526 C 0.53852 0.53305 0.84508 0.0
C1527 C 0.5373 0.53842 0.87525 0.0
C1528 C 0.53009 0.51846 0.89721 0.0
C1529 C 0.52289 0.49245 0.88828 0.0
H1530 H 0.52936 0.10086 0.80129 0.0
H1531 H 0.50667 0.03401 0.74201 0.0
H1532 H 0.48595 0.00318 0.7844 0.0
H1533 H 0.54741 0.07523 0.86269 0.0
H1534 H 0.53533 0.08854 0.89076 0.0
H1535 H 0.54587 0.10479 0.85523 0.0
H1536 H 0.50039 0.1012 0.84798 0.0
H1537 H 0.4896 0.08447 0.88334 0.0
H1538 H 0.47088 0.06918 0.84979 0.0
H1539 H 0.47071 0.98016 0.83306 0.0
H1540 H 0.46629 0.96626 0.88572 0.0
H1541 H 0.49872 0.04786 0.91438 0.0
C1542 C 0.51989 0.0797 0.79743 0.0
C1543 C 0.51954 0.06956 0.76869 0.0
C1544 C 0.50714 0.04191 0.76407 0.0
C1545 C 0.49515 0.02436 0.78788 0.0
C1546 C 0.49568 0.03489 0.81606 0.0
C1547 C 0.50793 0.06192 0.82103 0.0
C1548 C 0.50755 0.06808 0.85392 0.0
C1549 C 0.53571 0.08515 0.86637 0.0
C1550 C 0.49112 0.08152 0.85905 0.0
C1551 C 0.49405 0.04031 0.86683 0.0
C1552 C 0.48686 0.02149 0.84443 0.0
C1553 C 0.47591 -0.00536 0.85075 0.0
C1554 C 0.47338 0.98692 0.88072 0.0
C1555 C 0.48184 0.00595 0.90403 0.0
C1556 C 0.49138 0.03285 0.897 0.0
H1557 H 0.13513 0.24237 0.55435 0.0
H1558 H 0.12872 0.30098 0.60743 0.0
H1559 H 0.13951 0.32974 0.5632 0.0
H1560 H 0.18888 0.29156 0.50235 0.0
H1561 H 0.17434 0.26962 0.47077 0.0
H1562 H 0.17173 0.25617 0.50771 0.0
H1563 H 0.12101 0.22915 0.50171 0.0
H1564 H 0.12343 0.24266 0.46502 0.0
H1565 H 0.10335 0.24618 0.49285 0.0
H1566 H 0.14264 0.34794 0.51315 0.0
H1567 H 0.13875 0.3553 0.45966 0.0
H1568 H 0.14398 0.28583 0.43725 0.0
C1569 C 0.13712 0.26176 0.55681 0.0
C1570 C 0.13143 0.26969 0.58428 0.0
C1571 C 0.1332 0.29471 0.58658 0.0
C1572 C 0.13943 0.31119 0.56163 0.0
C1573 C 0.144 0.30244 0.53457 0.0
C1574 C 0.14321 0.27844 0.53195 0.0
C1575 C 0.14586 0.27245 0.49952 0.0
C1576 C 0.17174 0.27246 0.49482 0.0
C1577 C 0.12199 0.24606 0.48919 0.0
C1578 C 0.14653 0.29599 0.4842 0.0
C1579 C 0.14602 0.31327 0.50503 0.0
C1580 C 0.14375 0.33499 0.49664 0.0
C1581 C 0.14144 0.33894 0.46624 0.0
C1582 C 0.14144 0.32132 0.44452 0.0
C1583 C 0.14469 0.29994 0.45349 0.0
H1584 H 0.76086 0.89744 0.54985 0.0
H1585 H 0.71545 0.82793 0.60456 0.0
H1586 H 0.68147 0.8085 0.56504 0.0
H1587 H 0.70066 0.89491 0.50961 0.0
H1588 H 0.71899 0.90587 0.47535 0.0
H1589 H 0.73568 0.91755 0.51084 0.0
H1590 H 0.76761 0.90101 0.49646 0.0
H1591 H 0.75089 0.88895 0.46131 0.0
H1592 H 0.75442 0.86668 0.48634 0.0
H1593 H 0.65919 0.79215 0.51699 0.0
H1594 H 0.6488 0.78056 0.46381 0.0
H1595 H 0.70713 0.86062 0.4389 0.0
C1596 C 0.74312 0.87872 0.55399 0.0
C1597 C 0.74067 0.86417 0.58018 0.0
C1598 C 0.71767 0.83933 0.58457 0.0
C1599 C 0.69817 0.82826 0.56236 0.0
C1600 C 0.7018 0.84244 0.53605 0.0
C1601 C 0.72347 0.86738 0.53191 0.0
C1602 C 0.7246 0.87665 0.49997 0.0
C1603 C 0.71968 0.90014 0.49889 0.0
C1604 C 0.75093 0.88371 0.48517 0.0
C1605 C 0.70172 0.85203 0.48618 0.0
C1606 C 0.68837 0.83288 0.50767 0.0
C1607 C 0.66887 0.80723 0.50011 0.0
C1608 C 0.66327 0.80075 0.46986 0.0
C1609 C 0.67706 0.81982 0.44752 0.0
C1610 C 0.6959 0.84599 0.45574 0.0
H1611 H 0.13562 0.90923 0.54121 0.0
H1612 H 0.12181 0.83938 0.59046 0.0
H1613 H 0.13627 0.82419 0.54663 0.0
H1614 H 0.11199 0.87839 0.47219 0.0
H1615 H 0.13615 0.90572 0.45044 0.0
H1616 H 0.12685 0.91178 0.48649 0.0
H1617 H 0.17579 0.93593 0.5034 0.0
H1618 H 0.18519 0.92971 0.46737 0.0
H1619 H 0.1943 0.91902 0.50091 0.0
H1620 H 0.14889 0.81515 0.49644 0.0
H1621 H 0.15581 0.81138 0.44261 0.0
H1622 H 0.16271 0.88779 0.42663 0.0
C1623 C 0.13608 0.89096 0.54302 0.0
C1624 C 0.12775 0.87556 0.56932 0.0
C1625 C 0.12794 0.8514 0.57047 0.0
C1626 C 0.13642 0.8428 0.54583 0.0
C1627 C 0.14472 0.85865 0.52035 0.0
C1628 C 0.14453 0.88218 0.51877 0.0
C1629 C 0.15266 0.8947 0.48818 0.0
C1630 C 0.13059 0.89781 0.47347 0.0
C1631 C 0.17853 0.92142 0.49009 0.0
C1632 C 0.15655 0.87403 0.47232 0.0
C1633 C 0.15231 0.85361 0.49146 0.0
C1634 C 0.15273 0.83123 0.48143 0.0
C1635 C 0.15674 0.82928 0.45094 0.0
C1636 C 0.16033 0.84959 0.43096 0.0
C1637 C 0.16084 0.87248 0.4418 0.0
H1638 H 0.56791 0.74682 0.13426 0.0
H1639 H 0.61532 0.81708 0.08134 0.0
H1640 H 0.64815 0.83571 0.12236 0.0
H1641 H 0.57472 0.77887 0.19972 0.0
H1642 H 0.57605 0.75483 0.22388 0.0
H1643 H 0.55943 0.7446 0.18839 0.0
H1644 H 0.5888 0.72509 0.17347 0.0
H1645 H 0.60546 0.73516 0.20915 0.0
H1646 H 0.62412 0.74578 0.17508 0.0
H1647 H 0.67159 0.84948 0.17065 0.0
H1648 H 0.68348 0.85873 0.22387 0.0
H1649 H 0.62098 0.7798 0.24676 0.0
C1650 C 0.58572 0.76568 0.13094 0.0
C1651 C 0.58935 0.78041 0.10458 0.0
C1652 C 0.61233 0.80548 0.10135 0.0
C1653 C 0.63112 0.81607 0.12441 0.0
C1654 C 0.62663 0.80131 0.15046 0.0
C1655 C 0.60452 0.7766 0.15386 0.0
C1656 C 0.60256 0.76642 0.18548 0.0
C1657 C 0.57667 0.76088 0.20022 0.0
C1658 C 0.60542 0.74164 0.18581 0.0
C1659 C 0.62626 0.7899 0.19982 0.0
C1660 C 0.64018 0.80949 0.17893 0.0
C1661 C 0.66123 0.83411 0.18706 0.0
C1662 C 0.66776 0.83921 0.21734 0.0
C1663 C 0.65325 0.81986 0.23923 0.0
C1664 C 0.63277 0.7946 0.23032 0.0
H1665 H 0.24889 0.82969 0.10803 0.0
H1666 H 0.16818 0.77902 0.07812 0.0
H1667 H 0.15235 0.78822 0.12518 0.0
H1668 H 0.24028 0.81048 0.18094 0.0
H1669 H 0.26233 0.84271 0.19665 0.0
H1670 H 0.26734 0.83499 0.15924 0.0
H1671 H 0.26537 0.87559 0.1388 0.0
H1672 H 0.26093 0.88376 0.17633 0.0
H1673 H 0.23748 0.8793 0.14749 0.0
H1674 H 0.14575 0.79914 0.17868 0.0
H1675 H 0.14924 0.81369 0.23148 0.0
H1676 H 0.23439 0.85766 0.22401 0.0
C1677 C 0.22789 0.82126 0.11072 0.0
C1678 C 0.20982 0.8036 0.08931 0.0
C1679 C 0.18244 0.7924 0.09434 0.0
C1680 C 0.17325 0.79761 0.12095 0.0
C1681 C 0.19169 0.81434 0.14208 0.0
C1682 C 0.21845 0.82637 0.13692 0.0
C1683 C 0.23435 0.84233 0.16367 0.0
C1684 C 0.2521 0.83199 0.17583 0.0
C1685 C 0.25048 0.872 0.15611 0.0
C1686 C 0.21243 0.83674 0.18505 0.0
C1687 C 0.18792 0.82073 0.17233 0.0
C1688 C 0.16486 0.81203 0.18869 0.0
C1689 C 0.16702 0.82022 0.21868 0.0
C1690 C 0.19207 0.83688 0.23185 0.0
C1691 C 0.21491 0.84511 0.21463 0.0
H1692 H 0.18383 0.42839 0.12452 0.0
H1693 H 0.20641 0.37721 0.07909 0.0
H1694 H 0.19232 0.3475 0.12281 0.0
H1695 H 0.20701 0.42423 0.19575 0.0
H1696 H 0.18067 0.42427 0.21613 0.0
H1697 H 0.18995 0.43997 0.18017 0.0
H1698 H 0.14188 0.41091 0.16137 0.0
H1699 H 0.13251 0.39494 0.1973 0.0
H1700 H 0.12614 0.37533 0.16385 0.0
H1701 H 0.17882 0.32516 0.17168 0.0
H1702 H 0.17069 0.31347 0.22493 0.0
H1703 H 0.15681 0.37879 0.24015 0.0
C1704 C 0.18541 0.41069 0.12365 0.0
C1705 C 0.19612 0.40501 0.09836 0.0
C1706 C 0.19842 0.382 0.09828 0.0
C1707 C 0.1902 0.36488 0.12287 0.0
C1708 C 0.17973 0.37104 0.1474 0.0
C1709 C 0.17747 0.39347 0.14816 0.0
C1710 C 0.1675 0.39652 0.1783 0.0
C1711 C 0.18748 0.4228 0.19348 0.0
C1712 C 0.14039 0.39429 0.175 0.0
C1713 C 0.16541 0.37278 0.19475 0.0
C1714 C 0.17204 0.35811 0.17613 0.0
C1715 C 0.17326 0.33625 0.18634 0.0
C1716 C 0.16856 0.32974 0.21659 0.0
C1717 C 0.16276 0.345 0.23641 0.0
C1718 C 0.16044 0.36638 0.22524 0.0
H1719 H 0.79024 0.55751 0.88808 0.0
H1720 H 0.79555 0.62196 0.94151 0.0
H1721 H 0.81144 0.65145 0.89757 0.0
H1722 H 0.84737 0.59935 0.83702 0.0
H1723 H 0.8304 0.57914 0.8049 0.0
H1724 H 0.8244 0.56447 0.84157 0.0
H1725 H 0.77445 0.54671 0.83482 0.0
H1726 H 0.78033 0.56117 0.79821 0.0
H1727 H 0.76325 0.56952 0.82557 0.0
H1728 H 0.82191 0.67229 0.84808 0.0
H1729 H 0.82097 0.68206 0.79476 0.0
H1730 H 0.80687 0.60393 0.77115 0.0
C1731 C 0.7955 0.57806 0.89052 0.0
C1732 C 0.79216 0.58775 0.91812 0.0
C1733 C 0.7983 0.6144 0.92054 0.0
C1734 C 0.8075 0.63128 0.89579 0.0
C1735 C 0.81033 0.62114 0.86873 0.0
C1736 C 0.80433 0.5951 0.86579 0.0
C1737 C 0.80585 0.58838 0.83329 0.0
C1738 C 0.82835 0.58248 0.82894 0.0
C1739 C 0.77939 0.56508 0.82234 0.0
C1740 C 0.8121 0.61423 0.81825 0.0
C1741 C 0.81554 0.63307 0.83939 0.0
C1742 C 0.8197 0.6579 0.83136 0.0
C1743 C 0.81922 0.66329 0.80101 0.0
C1744 C 0.81431 0.64391 0.77896 0.0
C1745 C 0.81151 0.61934 0.78757 0.0
H1746 H 0.38166 0.17113 0.91952 0.0
H1747 H 0.43231 0.25341 0.89507 0.0
H1748 H 0.40527 0.24645 0.84993 0.0
H1749 H 0.37893 0.14585 0.85314 0.0
H1750 H 0.34513 0.11932 0.85372 0.0
H1751 H 0.36267 0.13238 0.88817 0.0
H1752 H 0.32671 0.14249 0.90604 0.0
H1753 H 0.30893 0.12926 0.87143 0.0
H1754 H 0.31799 0.16235 0.8831 0.0
H1755 H 0.38027 0.22852 0.80269 0.0
H1756 H 0.36045 0.20111 0.75755 0.0
H1757 H 0.3264 0.13024 0.81209 0.0
C1758 C 0.38652 0.18784 0.90507 0.0
C1759 C 0.40899 0.21275 0.91068 0.0
C1760 C 0.41492 0.23421 0.89136 0.0
C1761 C 0.39961 0.23046 0.86571 0.0
C1762 C 0.37827 0.20524 0.85998 0.0
C1763 C 0.37151 0.18433 0.87938 0.0
C1764 C 0.35071 0.15832 0.86592 0.0
C1765 C 0.35994 0.1378 0.86518 0.0
C1766 C 0.32453 0.14748 0.88262 0.0
C1767 C 0.34869 0.16747 0.83495 0.0
C1768 C 0.3639 0.1947 0.83226 0.0
C1769 C 0.36769 0.20727 0.80471 0.0
C1770 C 0.35643 0.19154 0.77917 0.0
C1771 C 0.34202 0.16357 0.78143 0.0
C1772 C 0.33724 0.1516 0.80979 0.0
H1773 H 0.79727 0.18922 0.9074 0.0
H1774 H 0.78593 0.25437 0.88113 0.0
H1775 H 0.8028 0.25424 0.8309 0.0
H1776 H 0.85702 0.20999 0.86643 0.0
H1777 H 0.84886 0.17713 0.85487 0.0
H1778 H 0.83599 0.18186 0.88932 0.0
H1779 H 0.78824 0.14921 0.87166 0.0
H1780 H 0.8011 0.14372 0.83773 0.0
H1781 H 0.7771 0.1543 0.83594 0.0
H1782 H 0.82293 0.24905 0.78476 0.0
H1783 H 0.83483 0.23163 0.74095 0.0
H1784 H 0.83117 0.16847 0.79538 0.0
C1785 C 0.79791 0.20304 0.8908 0.0
C1786 C 0.79056 0.22197 0.89801 0.0
C1787 C 0.79171 0.23988 0.8759 0.0
C1788 C 0.80148 0.24013 0.84748 0.0
C1789 C 0.80985 0.22219 0.8414 0.0
C1790 C 0.8075 0.20345 0.86203 0.0
C1791 C 0.81681 0.18562 0.84894 0.0
C1792 C 0.84111 0.18885 0.86591 0.0
C1793 C 0.79447 0.1565 0.84853 0.0
C1794 C 0.82401 0.19692 0.81764 0.0
C1795 C 0.82064 0.21854 0.81413 0.0
C1796 C 0.82564 0.23212 0.78712 0.0
C1797 C 0.83271 0.22232 0.76243 0.0
C1798 C 0.834 0.19887 0.7649 0.0
C1799 C 0.83062 0.18667 0.7931 0.0
H1800 H 0.26793 0.14368 0.44206 0.0
H1801 H 0.23213 0.05793 0.44383 0.0
H1802 H 0.25473 0.0611 0.49119 0.0
H1803 H 0.33086 0.16047 0.48188 0.0
H1804 H 0.33066 0.18687 0.50256 0.0
H1805 H 0.31674 0.17875 0.4654 0.0
H1806 H 0.27268 0.17237 0.48561 0.0
H1807 H 0.28646 0.18041 0.52267 0.0
H1808 H 0.25652 0.14947 0.51578 0.0
H1809 H 0.27591 0.0725 0.5416 0.0
H1810 H 0.29225 0.09158 0.59199 0.0
H1811 H 0.31158 0.16912 0.55877 0.0
C1812 C 0.26515 0.12559 0.45211 0.0
C1813 C 0.24853 0.10063 0.43875 0.0
C1814 C 0.24539 0.07743 0.4529 0.0
C1815 C 0.25809 0.07897 0.48 0.0
C1816 C 0.27379 0.10379 0.49288 0.0
C1817 C 0.27737 0.12672 0.47943 0.0
C1818 C 0.29227 0.1505 0.49975 0.0
C1819 C 0.31923 0.17031 0.4866 0.0
C1820 C 0.276 0.16395 0.50634 0.0
C1821 C 0.29529 0.13708 0.52716 0.0
C1822 C 0.28519 0.11029 0.52255 0.0
C1823 C 0.28428 0.09355 0.54539 0.0
C1824 C 0.29353 0.10449 0.57388 0.0
C1825 C 0.30298 0.13171 0.57914 0.0
C1826 C 0.30436 0.14819 0.55532 0.0
H1827 H 0.86457 0.14703 0.42126 0.0
H1828 H 0.86365 0.0756 0.45022 0.0
H1829 H 0.84515 0.07813 0.49859 0.0
H1830 H 0.88854 0.18104 0.48667 0.0
H1831 H 0.86988 0.19787 0.48571 0.0
H1832 H 0.87756 0.18728 0.45147 0.0
H1833 H 0.82786 0.16069 0.4377 0.0
H1834 H 0.82009 0.1712 0.47215 0.0
H1835 H 0.80494 0.13639 0.46343 0.0
H1836 H 0.83371 0.0925 0.54665 0.0
H1837 H 0.83235 0.11834 0.58974 0.0
H1838 H 0.8414 0.1805 0.52942 0.0
C1839 C 0.86005 0.13163 0.43755 0.0
C1840 C 0.86552 0.11107 0.4318 0.0
C1841 C 0.85922 0.0913 0.45378 0.0
C1842 C 0.84872 0.09259 0.48141 0.0
C1843 C 0.84436 0.11362 0.48668 0.0
C1844 C 0.8497 0.13271 0.46522 0.0
C1845 C 0.84634 0.15499 0.47749 0.0
C1846 C 0.87211 0.18186 0.47521 0.0
C1847 C 0.82344 0.15585 0.46175 0.0
C1848 C 0.83969 0.1462 0.50961 0.0
C1849 C 0.83799 0.122 0.51441 0.0
C1850 C 0.83449 0.11122 0.54302 0.0
C1851 C 0.8337 0.12601 0.56741 0.0
C1852 C 0.83685 0.15147 0.56299 0.0
C1853 C 0.83877 0.16103 0.53356 0.0
H1854 H 0.84773 0.72335 0.43015 0.0
H1855 H 0.88749 0.80384 0.46414 0.0
H1856 H 0.87307 0.78698 0.51549 0.0
H1857 H 0.79164 0.69629 0.48041 0.0
H1858 H 0.79061 0.66509 0.48496 0.0
H1859 H 0.80266 0.68343 0.45071 0.0
H1860 H 0.84652 0.68335 0.45685 0.0
H1861 H 0.83437 0.66459 0.49073 0.0
H1862 H 0.86515 0.69554 0.49113 0.0
H1863 H 0.85641 0.76135 0.56291 0.0
H1864 H 0.84301 0.72898 0.60366 0.0
H1865 H 0.81299 0.66479 0.5393 0.0
C1866 C 0.85334 0.73728 0.44854 0.0
C1867 C 0.86871 0.76479 0.44362 0.0
C1868 C 0.87583 0.78267 0.46785 0.0
C1869 C 0.86754 0.77328 0.4969 0.0
C1870 C 0.85214 0.74598 0.50112 0.0
C1871 C 0.84536 0.7282 0.47768 0.0
C1872 C 0.83015 0.69982 0.48855 0.0
C1873 C 0.8021 0.68531 0.47537 0.0
C1874 C 0.84494 0.68496 0.4814 0.0
C1875 C 0.82983 0.7044 0.52184 0.0
C1876 C 0.84224 0.73116 0.52854 0.0
C1877 C 0.84603 0.74034 0.55791 0.0
C1878 C 0.83776 0.72173 0.58106 0.0
C1879 C 0.82573 0.69429 0.5748 0.0
C1880 C 0.82131 0.68559 0.54474 0.0
loop_
_geom_bond_atom_site_label_1
_geom_bond_atom_site_label_2
_geom_bond_distance
_geom_bond_site_symmetry_2
_ccdc_geom_bond_type
H0 C7 0.929 . S
H1 C10 0.930 . S
H2 C12 0.929 . S
H3 C4 0.969 . S
C4 H3 0.969 . S
C4 O5 1.550 . S
C4 H6 0.973 . S
O5 C4 1.550 . S
O5 C11 1.412 . S
H6 C4 0.973 . S
C7 H0 0.929 . S
C7 C8 1.400 . S
C7 C9 1.364 . S
C8 C7 1.400 . S
C8 C12 1.377 . S
C9 C7 1.364 . S
C9 C10 1.374 . S
C10 H1 0.930 . S
C10 C9 1.374 . S
C10 C11 1.383 . S
C11 O5 1.412 . S
C11 C10 1.383 . S
C11 C12 1.394 . S
C12 H2 0.929 . S
C12 C8 1.377 . S
C12 C11 1.394 . S
H13 C20 0.929 . S
H14 C23 0.930 . S
H15 C25 0.929 . S
H16 C17 0.969 . S
C17 H16 0.969 . S
C17 O18 1.550 . S
C17 H19 0.973 . S
O18 C17 1.550 . S
O18 C24 1.412 . S
H19 C17 0.973 . S
C20 H13 0.929 . S
C20 C21 1.400 . S
C20 C22 1.364 . S
C21 C20 1.400 . S
C21 C25 1.377 . S
C22 C20 1.364 . S
C22 C23 1.374 . S
C23 H14 0.930 . S
C23 C22 1.374 . S
C23 C24 1.383 . S
C24 O18 1.412 . S
C24 C23 1.383 . S
C24 C25 1.394 . S
C25 H15 0.929 . S
C25 C21 1.377 . S
C25 C24 1.394 . S
H26 C33 0.929 . S
H27 C36 0.930 . S
H28 C38 0.929 . S
H29 C30 0.969 . S
C30 H29 0.969 . S
C30 O31 1.550 . S
C30 H32 0.973 . S
O31 C30 1.550 . S
O31 C37 1.412 . S
H32 C30 0.973 . S
C33 H26 0.929 . S
C33 C34 1.400 . S
C33 C35 1.364 . S
C34 C33 1.400 . S
C34 C38 1.377 . S
C35 C33 1.364 . S
C35 C36 1.374 . S
C36 H27 0.930 . S
C36 C35 1.374 . S
C36 C37 1.383 . S
C37 O31 1.412 . S
C37 C36 1.383 . S
C37 C38 1.394 . S
C38 H28 0.929 . S
C38 C34 1.377 . S
C38 C37 1.394 . S
H39 C46 0.929 . S
H40 C49 0.930 . S
H41 C51 0.929 . S
H42 C43 0.969 . S
C43 H42 0.969 . S
C43 O44 1.550 . S
C43 H45 0.973 . S
O44 C43 1.550 . S
O44 C50 1.412 . S
H45 C43 0.973 . S
C46 H39 0.929 . S
C46 C47 1.400 . S
C46 C48 1.364 . S
C47 C46 1.400 . S
C47 C51 1.377 . S
C48 C46 1.364 . S
C48 C49 1.374 . S
C49 H40 0.930 . S
C49 C48 1.374 . S
C49 C50 1.383 . S
C50 O44 1.412 . S
C50 C49 1.383 . S
C50 C51 1.394 . S
C51 H41 0.929 . S
C51 C47 1.377 . S
C51 C50 1.394 . S
H52 C59 0.929 . S
H53 C62 0.930 . S
H54 C64 0.929 . S
H55 C56 0.969 . S
C56 H55 0.969 . S
C56 O57 1.550 . S
C56 H58 0.973 . S
O57 C56 1.550 . S
O57 C63 1.412 . S
H58 C56 0.973 . S
C59 H52 0.929 . S
C59 C60 1.400 . S
C59 C61 1.364 . S
C60 C59 1.400 . S
C60 C64 1.377 . S
C61 C59 1.364 . S
C61 C62 1.374 . S
C62 H53 0.930 . S
C62 C61 1.374 . S
C62 C63 1.383 . S
C63 O57 1.412 . S
C63 C62 1.383 . S
C63 C64 1.394 . S
C64 H54 0.929 . S
C64 C60 1.377 . S
C64 C63 1.394 . S
H65 C72 0.929 . S
H66 C75 0.930 . S
H67 C77 0.929 . S
H68 C69 0.969 . S
C69 H68 0.969 . S
C69 O70 1.550 . S
C69 H71 0.973 . S
O70 C69 1.550 . S
O70 C76 1.412 . S
H71 C69 0.973 . S
C72 H65 0.929 . S
C72 C73 1.400 . S
C72 C74 1.364 . S
C73 C72 1.400 . S
C73 C77 1.377 . S
C74 C72 1.364 . S
C74 C75 1.374 . S
C75 H66 0.930 . S
C75 C74 1.374 . S
C75 C76 1.383 . S
C76 O70 1.412 . S
C76 C75 1.383 . S
C76 C77 1.394 . S
C77 H67 0.929 . S
C77 C73 1.377 . S
C77 C76 1.394 . S
H78 C85 0.929 . S
H79 C88 0.930 . S
H80 C90 0.929 . S
H81 C82 0.969 . S
C82 H81 0.969 . S
C82 O83 1.550 . S
C82 H84 0.973 . S
O83 C82 1.550 . S
O83 C89 1.412 . S
H84 C82 0.973 . S
C85 H78 0.929 . S
C85 C86 1.400 . S
C85 C87 1.364 . S
C86 C85 1.400 . S
C86 C90 1.377 . S
C87 C85 1.364 . S
C87 C88 1.374 . S
C88 H79 0.930 . S
C88 C87 1.374 . S
C88 C89 1.383 . S
C89 O83 1.412 . S
C89 C88 1.383 . S
C89 C90 1.394 . S
C90 H80 0.929 . S
C90 C86 1.377 . S
C90 C89 1.394 . S
H91 C98 0.929 . S
H92 C101 0.930 . S
H93 C103 0.929 . S
H94 C95 0.969 . S
C95 H94 0.969 . S
C95 O96 1.550 . S
C95 H97 0.973 . S
O96 C95 1.550 . S
O96 C102 1.412 . S
H97 C95 0.973 . S
C98 H91 0.929 . S
C98 C99 1.400 . S
C98 C100 1.364 . S
C99 C98 1.400 . S
C99 C103 1.377 . S
C100 C98 1.364 . S
C100 C101 1.374 . S
C101 H92 0.930 . S
C101 C100 1.374 . S
C101 C102 1.383 . S
C102 O96 1.412 . S
C102 C101 1.383 . S
C102 C103 1.394 . S
C103 H93 0.929 . S
C103 C99 1.377 . S
C103 C102 1.394 . S
H104 C111 0.929 . S
H105 C114 0.930 . S
H106 C116 0.929 . S
H107 C108 0.969 . S
C108 H107 0.969 . S
C108 O109 1.550 . S
C108 H110 0.973 . S
O109 C108 1.550 . S
O109 C115 1.412 . S
H110 C108 0.973 . S
C111 H104 0.929 . S
C111 C112 1.400 . S
C111 C113 1.364 . S
C112 C111 1.400 . S
C112 C116 1.377 . S
C113 C111 1.364 . S
C113 C114 1.374 . S
C114 H105 0.930 . S
C114 C113 1.374 . S
C114 C115 1.383 . S
C115 O109 1.412 . S
C115 C114 1.383 . S
C115 C116 1.394 . S
C116 H106 0.929 . S
C116 C112 1.377 . S
C116 C115 1.394 . S
H117 C124 0.929 . S
H118 C127 0.930 . S
H119 C129 0.929 . S
H120 C121 0.969 . S
C121 H120 0.969 . S
C121 O122 1.550 . S
C121 H123 0.973 1_554 S
O122 C121 1.550 . S
O122 C128 1.399 1_554 S
H123 C121 0.973 1_556 S
C124 H117 0.929 . S
C124 C125 1.400 . S
C124 C126 1.364 . S
C125 C124 1.400 . S
C125 C129 1.377 1_556 S
C126 C124 1.364 . S
C126 C127 1.374 . S
C127 H118 0.930 . S
C127 C126 1.374 . S
C127 C128 1.416 . S
C128 O122 1.399 1_556 S
C128 C127 1.416 . S
C128 C129 1.380 1_556 S
C129 H119 0.929 . S
C129 C125 1.377 1_554 S
C129 C128 1.380 1_554 S
H130 C137 0.929 . S
H131 C140 0.930 . S
H132 C142 0.929 . S
H133 C134 0.969 . S
C134 H133 0.969 . S
C134 O135 1.550 . S
C134 H136 0.973 1_554 S
O135 C134 1.550 . S
O135 C141 1.412 . S
H136 C134 0.973 1_556 S
C137 H130 0.929 . S
C137 C138 1.382 1_556 S
C137 C139 1.364 . S
C138 C137 1.382 1_554 S
C138 C142 1.386 . S
C139 C137 1.364 . S
C139 C140 1.374 . S
C140 H131 0.930 . S
C140 C139 1.374 . S
C140 C141 1.383 1_556 S
C141 O135 1.412 . S
C141 C140 1.383 1_554 S
C141 C142 1.394 . S
C142 H132 0.929 . S
C142 C138 1.386 . S
C142 C141 1.394 . S
H143 C150 0.929 . S
H144 C153 0.930 . S
H145 C155 0.929 . S
H146 C147 0.969 . S
C147 H146 0.969 . S
C147 O148 1.550 . S
C147 H149 0.973 1_554 S
O148 C147 1.550 . S
O148 C154 1.412 1_554 S
H149 C147 0.973 1_556 S
C150 H143 0.929 . S
C150 C151 1.400 . S
C150 C152 1.364 . S
C151 C150 1.400 . S
C151 C155 1.377 1_556 S
C152 C150 1.364 . S
C152 C153 1.374 . S
C153 H144 0.930 . S
C153 C152 1.374 . S
C153 C154 1.383 . S
C154 O148 1.412 1_556 S
C154 C153 1.383 . S
C154 C155 1.394 1_556 S
C155 H145 0.929 . S
C155 C151 1.377 1_554 S
C155 C154 1.394 1_554 S
H156 C163 0.929 . S
H157 C166 0.930 . S
H158 C168 0.929 1_556 S
H159 C160 0.969 . S
C160 H159 0.969 . S
C160 O161 1.550 . S
C160 H162 0.973 . S
O161 C160 1.550 . S
O161 C167 1.412 . S
H162 C160 0.973 . S
C163 H156 0.929 . S
C163 C164 1.400 . S
C163 C165 1.364 . S
C164 C163 1.400 . S
C164 C168 1.377 . S
C165 C163 1.364 . S
C165 C166 1.374 . S
C166 H157 0.930 . S
C166 C165 1.374 . S
C166 C167 1.383 . S
C167 O161 1.412 . S
C167 C166 1.383 . S
C167 C168 1.394 . S
C168 H158 0.929 1_554 S
C168 C164 1.377 . S
C168 C167 1.394 . S
H169 C176 0.929 . S
H170 C179 0.930 . S
H171 C181 0.929 1_556 S
H172 C173 0.969 . S
C173 H172 0.969 . S
C173 O174 1.550 . S
C173 H175 0.973 . S
O174 C173 1.550 . S
O174 C180 1.412 . S
H175 C173 0.973 . S
C176 H169 0.929 . S
C176 C177 1.400 . S
C176 C178 1.364 . S
C177 C176 1.400 . S
C177 C181 1.377 . S
C178 C176 1.364 . S
C178 C179 1.374 . S
C179 H170 0.930 . S
C179 C178 1.374 . S
C179 C180 1.383 . S
C180 O174 1.412 . S
C180 C179 1.383 . S
C180 C181 1.394 . S
C181 H171 0.929 1_554 S
C181 C177 1.377 . S
C181 C180 1.394 . S
H182 C189 0.929 . S
H183 C192 0.930 . S
H184 C194 0.921 1_556 S
H185 C186 0.969 . S
C186 H185 0.969 . S
C186 O187 1.550 . S
C186 H188 0.973 . S
O187 C186 1.550 . S
O187 C193 1.412 . S
H188 C186 0.973 . S
C189 H182 0.929 . S
C189 C190 1.400 . S
C189 C191 1.364 . S
C190 C189 1.400 . S
C190 C194 1.377 . S
C191 C189 1.364 . S
C191 C192 1.374 . S
C192 H183 0.930 . S
C192 C191 1.374 . S
C192 C193 1.383 . S
C193 O187 1.412 . S
C193 C192 1.383 . S
C193 C194 1.394 . S
C194 H184 0.921 1_554 S
C194 C190 1.377 . S
C194 C193 1.394 . S
H195 C202 0.929 . S
H196 C205 0.930 . S
H197 C207 0.929 . S
H198 C199 0.969 . S
C199 H198 0.969 . S
C199 O200 1.550 . S
C199 H201 0.973 . S
O200 C199 1.550 . S
O200 C206 1.412 . S
H201 C199 0.973 . S
C202 H195 0.929 . S
C202 C203 1.400 . S
C202 C204 1.364 . S
C203 C202 1.400 . S
C203 C207 1.377 . S
C204 C202 1.364 . S
C204 C205 1.374 . S
C205 H196 0.930 . S
C205 C204 1.374 . S
C205 C206 1.383 . S
C206 O200 1.412 . S
C206 C205 1.383 . S
C206 C207 1.394 . S
C207 H197 0.929 . S
C207 C203 1.377 . S
C207 C206 1.394 . S
H208 C215 0.929 . S
H209 C218 0.930 . S
H210 C220 0.929 . S
H211 C212 0.969 . S
C212 H211 0.969 . S
C212 O213 1.550 . S
C212 H214 0.973 . S
O213 C212 1.550 . S
O213 C219 1.412 . S
H214 C212 0.973 . S
C215 H208 0.929 . S
C215 C216 1.400 . S
C215 C217 1.364 . S
C216 C215 1.400 . S
C216 C220 1.377 . S
C217 C215 1.364 . S
C217 C218 1.374 . S
C218 H209 0.930 . S
C218 C217 1.374 . S
C218 C219 1.383 . S
C219 O213 1.412 . S
C219 C218 1.383 . S
C219 C220 1.394 . S
C220 H210 0.929 . S
C220 C216 1.377 . S
C220 C219 1.394 . S
H221 C228 0.929 . S
H222 C231 0.930 . S
H223 C233 0.929 . S
H224 C225 0.969 . S
C225 H224 0.969 . S
C225 O226 1.550 . S
C225 H227 0.973 . S
O226 C225 1.550 . S
O226 C232 1.412 . S
H227 C225 0.973 . S
C228 H221 0.929 . S
C228 C229 1.400 . S
C228 C230 1.364 . S
C229 C228 1.400 . S
C229 C233 1.377 . S
C230 C228 1.364 . S
C230 C231 1.374 . S
C231 H222 0.930 . S
C231 C230 1.374 . S
C231 C232 1.383 . S
C232 O226 1.412 . S
C232 C231 1.383 . S
C232 C233 1.394 . S
C233 H223 0.929 . S
C233 C229 1.377 . S
C233 C232 1.394 . S
O234 Mg235 1.990 . S
O234 C248 1.253 . S
Mg235 O234 1.990 . S
Mg235 O238 2.180 1_546 S
Mg235 O239 2.117 1_545 S
Mg235 O253 2.030 . S
O236 Mg237 2.072 1_556 S
O236 C248 1.260 . S
Mg237 O236 2.072 1_554 S
Mg237 O238 2.099 1_545 S
Mg237 O240 2.079 . S
Mg237 O241 2.072 1_545 S
Mg237 O243 2.099 . S
Mg237 O254 2.079 . S
O238 Mg235 2.180 1_564 S
O238 Mg237 2.099 1_565 S
O238 C249 1.279 1_554 S
O239 Mg235 2.117 1_565 S
O239 C249 1.250 . S
O240 Mg237 2.079 . S
O240 C250 1.264 1_545 S
O241 Mg237 2.072 1_565 S
O241 C251 1.260 . S
Mg242 O243 2.180 . S
Mg242 O244 2.030 1_545 S
Mg242 O245 1.990 1_545 S
Mg242 O246 2.117 . S
O243 Mg237 2.099 . S
O243 Mg242 2.180 . S
O243 C252 1.279 . S
O244 Mg242 2.030 1_565 S
O244 C250 1.248 . S
O245 Mg242 1.990 1_565 S
O245 C251 1.253 . S
O246 Mg242 2.117 . S
O246 C252 1.250 . S
C247 O253 1.248 1_554 S
C247 O254 1.264 . S
C248 O234 1.253 . S
C248 O236 1.260 . S
C249 O238 1.279 1_556 S
C249 O239 1.250 . S
C250 O240 1.264 1_565 S
C250 O244 1.248 . S
C251 O241 1.260 . S
C251 O245 1.253 . S
C252 O243 1.279 . S
C252 O246 1.250 . S
O253 Mg235 2.030 . S
O253 C247 1.248 1_556 S
O254 Mg237 2.079 . S
O254 C247 1.264 . S
O255 Mg256 1.990 . S
O255 C269 1.253 1_455 S
Mg256 O255 1.990 . S
Mg256 O259 2.180 1_556 S
Mg256 O260 2.117 . S
Mg256 O274 2.030 1_455 S
O257 Mg258 2.072 1_656 S
O257 C269 1.260 . S
Mg258 O257 2.072 1_454 S
Mg258 O259 2.099 . S
Mg258 O261 2.079 . S
Mg258 O262 2.072 . S
Mg258 O264 2.099 1_455 S
Mg258 O275 2.079 1_455 S
O259 Mg256 2.180 1_554 S
O259 Mg258 2.099 . S
O259 C270 1.269 1_554 S
O260 Mg256 2.117 . S
O260 C270 1.279 . S
O261 Mg258 2.079 . S
O261 C271 1.264 . S
O262 Mg258 2.072 . S
O262 C272 1.260 . S
Mg263 O264 2.180 1_455 S
Mg263 O265 2.030 . S
Mg263 O266 1.990 . S
Mg263 O267 2.117 1_455 S
O264 Mg258 2.099 1_655 S
O264 Mg263 2.180 1_655 S
O264 C273 1.279 . S
O265 Mg263 2.030 . S
O265 C271 1.248 . S
O266 Mg263 1.990 . S
O266 C272 1.253 . S
O267 Mg263 2.117 1_655 S
O267 C273 1.250 . S
C268 O274 1.248 1_554 S
C268 O275 1.264 . S
C269 O255 1.253 1_655 S
C269 O257 1.260 . S
C270 O259 1.269 1_556 S
C270 O260 1.279 . S
C271 O261 1.264 . S
C271 O265 1.248 . S
C272 O262 1.260 . S
C272 O266 1.253 . S
C273 O264 1.279 . S
C273 O267 1.250 . S
O274 Mg256 2.030 1_655 S
O274 C268 1.248 1_556 S
O275 Mg258 2.079 1_655 S
O275 C268 1.264 . S
O276 Mg277 1.990 . S
O276 C290 1.253 . S
Mg277 O276 1.990 . S
Mg277 O280 2.180 . S
Mg277 O281 2.117 . S
Mg277 O295 2.030 . S
O278 Mg279 2.072 . S
O278 C290 1.260 . S
Mg279 O278 2.072 . S
Mg279 O280 2.099 . S
Mg279 O282 2.079 1_554 S
Mg279 O283 2.072 . S
Mg279 O285 2.099 1_554 S
Mg279 O296 2.079 . S
O280 Mg277 2.180 . S
O280 Mg279 2.099 . S
O280 C291 1.279 . S
O281 Mg277 2.117 . S
O281 C291 1.250 . S
O282 Mg279 2.079 1_556 S
O282 C292 1.264 . S
O283 Mg279 2.072 . S
O283 C293 1.260 . S
Mg284 O285 2.180 . S
Mg284 O286 2.030 . S
Mg284 O287 1.990 . S
Mg284 O288 2.137 . S
O285 Mg279 2.099 1_556 S
O285 Mg284 2.180 . S
O285 C294 1.279 1_556 S
O286 Mg284 2.030 . S
O286 C292 1.248 . S
O287 Mg284 1.990 . S
O287 C293 1.253 1_556 S
O288 Mg284 2.137 . S
O288 C294 1.243 1_556 S
C289 O295 1.248 . S
C289 O296 1.264 . S
C290 O276 1.253 . S
C290 O278 1.260 . S
C291 O280 1.279 . S
C291 O281 1.250 . S
C292 O282 1.264 . S
C292 O286 1.248 . S
C293 O283 1.260 . S
C293 O287 1.253 1_554 S
C294 O285 1.279 1_554 S
C294 O288 1.243 1_554 S
O295 Mg277 2.030 . S
O295 C289 1.248 . S
O296 Mg279 2.079 . S
O296 C289 1.264 . S
O297 Mg298 1.990 . S
O297 C311 1.253 . S
Mg298 O297 1.990 . S
Mg298 O301 2.180 . S
Mg298 O302 2.117 . S
Mg298 O316 2.030 . S
O299 Mg300 2.072 . S
O299 C311 1.260 . S
Mg300 O299 2.072 . S
Mg300 O301 2.099 . S
Mg300 O303 2.079 . S
Mg300 O304 2.072 . S
Mg300 O306 2.099 . S
Mg300 O317 2.079 . S
O301 Mg298 2.180 . S
O301 Mg300 2.099 . S
O301 C312 1.279 . S
O302 Mg298 2.117 . S
O302 C312 1.250 . S
O303 Mg300 2.079 . S
O303 C313 1.264 . S
O304 Mg300 2.072 . S
O304 C314 1.260 . S
Mg305 O306 2.180 . S
Mg305 O307 2.030 . S
Mg305 O308 1.990 . S
Mg305 O309 2.117 . S
O306 Mg300 2.099 . S
O306 Mg305 2.180 . S
O306 C315 1.279 . S
O307 Mg305 2.030 . S
O307 C313 1.248 . S
O308 Mg305 1.990 . S
O308 C314 1.253 . S
O309 Mg305 2.117 . S
O309 C315 1.250 . S
C310 O316 1.248 . S
C310 O317 1.264 . S
C311 O297 1.253 . S
C311 O299 1.260 . S
C312 O301 1.279 . S
C312 O302 1.250 . S
C313 O303 1.264 . S
C313 O307 1.248 . S
C314 O304 1.260 . S
C314 O308 1.253 . S
C315 O306 1.279 . S
C315 O309 1.250 . S
O316 Mg298 2.030 . S
O316 C310 1.248 . S
O317 Mg300 2.079 . S
O317 C310 1.264 . S
O318 Mg319 1.990 . S
O318 C332 1.253 . S
Mg319 O318 1.990 . S
Mg319 O322 2.180 . S
Mg319 O323 2.117 . S
Mg319 O337 2.030 . S
O320 Mg321 2.072 . S
O320 C332 1.260 . S
Mg321 O320 2.072 . S
Mg321 O322 2.099 . S
Mg321 O324 2.079 . S
Mg321 O325 2.072 . S
Mg321 O327 2.099 . S
Mg321 O338 2.079 . S
O322 Mg319 2.180 . S
O322 Mg321 2.099 . S
O322 C333 1.279 . S
O323 Mg319 2.117 . S
O323 C333 1.250 . S
O324 Mg321 2.079 . S
O324 C334 1.264 . S
O325 Mg321 2.072 . S
O325 C335 1.260 . S
Mg326 O327 2.180 . S
Mg326 O328 2.030 . S
Mg326 O329 1.990 . S
Mg326 O330 2.117 . S
O327 Mg321 2.099 . S
O327 Mg326 2.180 . S
O327 C336 1.279 . S
O328 Mg326 2.030 . S
O328 C334 1.248 . S
O329 Mg326 1.990 . S
O329 C335 1.253 . S
O330 Mg326 2.117 . S
O330 C336 1.250 . S
C331 O337 1.248 . S
C331 O338 1.264 . S
C332 O318 1.253 . S
C332 O320 1.260 . S
C333 O322 1.279 . S
C333 O323 1.250 . S
C334 O324 1.264 . S
C334 O328 1.248 . S
C335 O325 1.260 . S
C335 O329 1.253 . S
C336 O327 1.279 . S
C336 O330 1.250 . S
O337 Mg319 2.030 . S
O337 C331 1.248 . S
O338 Mg321 2.079 . S
O338 C331 1.264 . S
O339 Mg340 1.990 . S
O339 C353 1.253 . S
Mg340 O339 1.990 . S
Mg340 O343 2.180 . S
Mg340 O344 2.117 . S
Mg340 O358 2.030 . S
O341 Mg342 2.072 . S
O341 C353 1.260 . S
Mg342 O341 2.072 . S
Mg342 O343 2.099 . S
Mg342 O345 2.079 . S
Mg342 O346 2.072 . S
Mg342 O348 2.099 . S
Mg342 O359 2.079 . S
O343 Mg340 2.180 . S
O343 Mg342 2.099 . S
O343 C354 1.279 . S
O344 Mg340 2.117 . S
O344 C354 1.250 . S
O345 Mg342 2.079 . S
O345 C355 1.264 . S
O346 Mg342 2.072 . S
O346 C356 1.260 . S
Mg347 O348 2.180 . S
Mg347 O349 2.030 . S
Mg347 O350 1.990 . S
Mg347 O351 2.117 . S
O348 Mg342 2.099 . S
O348 Mg347 2.180 . S
O348 C357 1.279 . S
O349 Mg347 2.030 . S
O349 C355 1.248 . S
O350 Mg347 1.990 . S
O350 C356 1.253 . S
O351 Mg347 2.117 . S
O351 C357 1.250 . S
C352 O358 1.248 . S
C352 O359 1.264 . S
C353 O339 1.253 . S
C353 O341 1.260 . S
C354 O343 1.279 . S
C354 O344 1.250 . S
C355 O345 1.264 . S
C355 O349 1.248 . S
C356 O346 1.260 . S
C356 O350 1.253 . S
C357 O348 1.279 . S
C357 O351 1.250 . S
O358 Mg340 2.030 . S
O358 C352 1.248 . S
O359 Mg342 2.079 . S
O359 C352 1.264 . S
O360 Mg361 1.990 . S
O360 C374 1.253 . S
Mg361 O360 1.990 . S
Mg361 O364 2.180 . S
Mg361 O365 2.117 . S
Mg361 O379 2.030 . S
O362 Mg363 2.072 . S
O362 C374 1.260 . S
Mg363 O362 2.072 . S
Mg363 O364 2.099 . S
Mg363 O366 2.079 . S
Mg363 O367 2.072 . S
Mg363 O369 2.099 . S
Mg363 O380 2.079 . S
O364 Mg361 2.180 . S
O364 Mg363 2.099 . S
O364 C375 1.279 . S
O365 Mg361 2.117 . S
O365 C375 1.250 . S
O366 Mg363 2.079 . S
O366 C376 1.264 . S
O367 Mg363 2.072 . S
O367 C377 1.260 . S
Mg368 O369 2.180 . S
Mg368 O370 2.030 . S
Mg368 O371 1.990 . S
Mg368 O372 2.117 . S
O369 Mg363 2.099 . S
O369 Mg368 2.180 . S
O369 C378 1.279 . S
O370 Mg368 2.030 . S
O370 C376 1.248 . S
O371 Mg368 1.990 . S
O371 C377 1.253 . S
O372 Mg368 2.117 . S
O372 C378 1.250 . S
C373 O379 1.248 . S
C373 O380 1.264 . S
C374 O360 1.253 . S
C374 O362 1.260 . S
C375 O364 1.279 . S
C375 O365 1.250 . S
C376 O366 1.264 . S
C376 O370 1.248 . S
C377 O367 1.260 . S
C377 O371 1.253 . S
C378 O369 1.279 . S
C378 O372 1.250 . S
O379 Mg361 2.030 . S
O379 C373 1.248 . S
O380 Mg363 2.079 . S
O380 C373 1.264 . S
O381 Mg382 1.990 . S
O381 C395 1.253 . S
Mg382 O381 1.990 . S
Mg382 O385 2.180 . S
Mg382 O386 2.117 . S
Mg382 O400 2.030 . S
O383 Mg384 2.072 . S
O383 C395 1.260 . S
Mg384 O383 2.072 . S
Mg384 O385 2.099 . S
Mg384 O387 2.079 . S
Mg384 O388 2.072 . S
Mg384 O390 2.099 . S
Mg384 O401 2.079 . S
O385 Mg382 2.180 . S
O385 Mg384 2.099 . S
O385 C396 1.279 . S
O386 Mg382 2.117 . S
O386 C396 1.250 . S
O387 Mg384 2.079 . S
O387 C397 1.264 . S
O388 Mg384 2.072 . S
O388 C398 1.260 . S
Mg389 O390 2.180 . S
Mg389 O391 2.030 . S
Mg389 O392 1.990 . S
Mg389 O393 2.117 . S
O390 Mg384 2.099 . S
O390 Mg389 2.180 . S
O390 C399 1.279 . S
O391 Mg389 2.030 . S
O391 C397 1.248 . S
O392 Mg389 1.990 . S
O392 C398 1.253 . S
O393 Mg389 2.117 . S
O393 C399 1.250 . S
C394 O400 1.248 . S
C394 O401 1.264 . S
C395 O381 1.253 . S
C395 O383 1.260 . S
C396 O385 1.279 . S
C396 O386 1.250 . S
C397 O387 1.264 . S
C397 O391 1.248 . S
C398 O388 1.260 . S
C398 O392 1.253 . S
C399 O390 1.279 . S
C399 O393 1.250 . S
O400 Mg382 2.030 . S
O400 C394 1.248 . S
O401 Mg384 2.079 . S
O401 C394 1.264 . S
O402 Mg403 1.990 . S
O402 C416 1.253 . S
Mg403 O402 1.990 . S
Mg403 O406 2.180 . S
Mg403 O407 2.117 . S
Mg403 O421 2.030 . S
O404 Mg405 2.072 . S
O404 C416 1.260 . S
Mg405 O404 2.072 . S
Mg405 O406 2.099 . S
Mg405 O408 2.079 . S
Mg405 O409 2.072 . S
Mg405 O411 2.099 . S
Mg405 O422 2.079 . S
O406 Mg403 2.180 . S
O406 Mg405 2.099 . S
O406 C417 1.279 . S
O407 Mg403 2.117 . S
O407 C417 1.250 . S
O408 Mg405 2.079 . S
O408 C418 1.264 . S
O409 Mg405 2.072 . S
O409 C419 1.260 . S
Mg410 O411 2.180 . S
Mg410 O412 2.030 . S
Mg410 O413 1.990 . S
Mg410 O414 2.117 . S
O411 Mg405 2.099 . S
O411 Mg410 2.180 . S
O411 C420 1.279 . S
O412 Mg410 2.030 . S
O412 C418 1.248 . S
O413 Mg410 1.990 . S
O413 C419 1.253 . S
O414 Mg410 2.117 . S
O414 C420 1.250 . S
C415 O421 1.248 . S
C415 O422 1.264 . S
C416 O402 1.253 . S
C416 O404 1.260 . S
C417 O406 1.279 . S
C417 O407 1.250 . S
C418 O408 1.264 . S
C418 O412 1.248 . S
C419 O409 1.260 . S
C419 O413 1.253 . S
C420 O411 1.279 . S
C420 O414 1.250 . S
O421 Mg403 2.030 . S
O421 C415 1.248 . S
O422 Mg405 2.079 . S
O422 C415 1.264 . S
H423 C435 0.930 . S
H424 C437 0.930 . S
H425 C438 0.930 . S
H426 C442 0.959 . S
H427 C442 0.959 . S
H428 C442 0.961 . S
H429 C443 0.960 . S
H430 C443 0.961 . S
H431 C443 0.959 . S
H432 C446 0.929 . S
H433 C447 0.931 . S
H434 C449 0.930 . S
C435 H423 0.930 . S
C435 C436 1.399 1_556 S
C435 C440 1.399 1_556 S
C436 C435 1.399 1_554 S
C436 C437 1.376 . S
C437 H424 0.930 . S
C437 C436 1.376 . S
C437 C438 1.388 . S
C438 H425 0.930 . S
C438 C437 1.388 . S
C438 C439 1.390 . S
C439 C438 1.390 . S
C439 C440 1.394 . S
C439 C445 1.465 . S
C440 C435 1.399 1_554 S
C440 C439 1.394 . S
C440 C441 1.516 1_554 S
C441 C440 1.516 1_556 S
C441 C442 1.502 . S
C441 C443 1.561 . S
C441 C444 1.526 1_556 S
C442 H426 0.959 . S
C442 H427 0.959 . S
C442 H428 0.961 . S
C442 C441 1.502 . S
C443 H429 0.960 . S
C443 H430 0.961 . S
C443 H431 0.959 . S
C443 C441 1.561 . S
C444 C441 1.526 1_554 S
C444 C445 1.396 . S
C444 C449 1.390 1_554 S
C445 C439 1.465 . S
C445 C444 1.396 . S
C445 C446 1.399 . S
C446 H432 0.929 . S
C446 C445 1.399 . S
C446 C447 1.385 . S
C447 H433 0.931 . S
C447 C446 1.385 . S
C447 C448 1.389 . S
C448 C447 1.389 . S
C448 C449 1.387 1_554 S
C449 H434 0.930 . S
C449 C444 1.390 1_556 S
C449 C448 1.387 1_556 S
H450 C462 0.930 . S
H451 C464 0.930 . S
H452 C465 0.930 . S
H453 C469 0.959 . S
H454 C469 0.959 . S
H455 C469 0.961 . S
H456 C470 0.960 . S
H457 C470 0.961 . S
H458 C470 0.959 . S
H459 C473 0.929 . S
H460 C474 0.931 . S
H461 C476 0.930 . S
C462 H450 0.930 . S
C462 C463 1.399 . S
C462 C467 1.399 . S
C463 C462 1.399 . S
C463 C464 1.376 1_554 S
C464 H451 0.930 . S
C464 C463 1.376 1_556 S
C464 C465 1.388 . S
C465 H452 0.930 . S
C465 C464 1.388 . S
C465 C466 1.390 1_556 S
C466 C465 1.390 1_554 S
C466 C467 1.394 . S
C466 C472 1.465 . S
C467 C462 1.399 . S
C467 C466 1.394 . S
C467 C468 1.516 . S
C468 C467 1.516 . S
C468 C469 1.502 . S
C468 C470 1.561 . S
C468 C471 1.526 . S
C469 H453 0.959 . S
C469 H454 0.959 . S
C469 H455 0.961 . S
C469 C468 1.502 . S
C470 H456 0.960 . S
C470 H457 0.961 . S
C470 H458 0.959 . S
C470 C468 1.561 . S
C471 C468 1.526 . S
C471 C472 1.396 . S
C471 C476 1.390 . S
C472 C466 1.465 . S
C472 C471 1.396 . S
C472 C473 1.399 1_554 S
C473 H459 0.929 . S
C473 C472 1.399 1_556 S
C473 C474 1.385 . S
C474 H460 0.931 . S
C474 C473 1.385 . S
C474 C475 1.389 1_556 S
C475 C474 1.389 1_554 S
C475 C476 1.387 . S
C476 H461 0.930 . S
C476 C471 1.390 . S
C476 C475 1.387 . S
H477 C489 0.930 . S
H478 C491 0.930 . S
H479 C492 0.930 . S
H480 C496 0.959 . S
H481 C496 0.959 . S
H482 C496 0.961 . S
H483 C497 0.960 . S
H484 C497 0.961 . S
H485 C497 0.959 . S
H486 C500 0.929 . S
H487 C501 0.931 . S
H488 C503 0.930 . S
C489 H477 0.930 . S
C489 C490 1.399 . S
C489 C494 1.399 . S
C490 C489 1.399 . S
C490 C491 1.376 1_554 S
C491 H478 0.930 . S
C491 C490 1.376 1_556 S
C491 C492 1.388 . S
C492 H479 0.930 . S
C492 C491 1.388 . S
C492 C493 1.390 1_556 S
C493 C492 1.390 1_554 S
C493 C494 1.394 . S
C493 C499 1.465 . S
C494 C489 1.399 . S
C494 C493 1.394 . S
C494 C495 1.516 . S
C495 C494 1.516 . S
C495 C496 1.502 . S
C495 C497 1.561 . S
C495 C498 1.526 . S
C496 H480 0.959 . S
C496 H481 0.959 . S
C496 H482 0.961 . S
C496 C495 1.502 . S
C497 H483 0.960 . S
C497 H484 0.961 . S
C497 H485 0.959 . S
C497 C495 1.561 . S
C498 C495 1.526 . S
C498 C499 1.396 . S
C498 C503 1.390 . S
C499 C493 1.465 . S
C499 C498 1.396 . S
C499 C500 1.399 1_554 S
C500 H486 0.929 . S
C500 C499 1.399 1_556 S
C500 C501 1.385 . S
C501 H487 0.931 . S
C501 C500 1.385 . S
C501 C502 1.389 1_556 S
C502 C501 1.389 1_554 S
C502 C503 1.387 . S
C503 H488 0.930 . S
C503 C498 1.390 . S
C503 C502 1.387 . S
H504 C516 0.930 . S
H505 C518 0.930 . S
H506 C519 0.930 . S
H507 C523 0.959 . S
H508 C523 0.959 . S
H509 C523 0.961 . S
H510 C524 0.960 . S
H511 C524 0.961 . S
H512 C524 0.959 . S
H513 C527 0.929 . S
H514 C528 0.931 . S
H515 C530 0.930 . S
C516 H504 0.930 . S
C516 C517 1.399 1_554 S
C516 C521 1.399 . S
C517 C516 1.399 1_556 S
C517 C518 1.376 . S
C518 H505 0.930 . S
C518 C517 1.376 . S
C518 C519 1.388 . S
C519 H506 0.930 . S
C519 C518 1.388 . S
C519 C520 1.390 . S
C520 C519 1.390 . S
C520 C521 1.394 1_556 S
C520 C526 1.465 . S
C521 C516 1.399 . S
C521 C520 1.394 1_554 S
C521 C522 1.516 . S
C522 C521 1.516 . S
C522 C523 1.502 . S
C522 C524 1.561 . S
C522 C525 1.526 . S
C523 H507 0.959 . S
C523 H508 0.959 . S
C523 H509 0.961 . S
C523 C522 1.502 . S
C524 H510 0.960 . S
C524 H511 0.961 . S
C524 H512 0.959 . S
C524 C522 1.561 . S
C525 C522 1.526 . S
C525 C526 1.396 1_554 S
C525 C530 1.390 . S
C526 C520 1.465 . S
C526 C525 1.396 1_556 S
C526 C527 1.399 . S
C527 H513 0.929 . S
C527 C526 1.399 . S
C527 C528 1.385 . S
C528 H514 0.931 . S
C528 C527 1.385 . S
C528 C529 1.389 1_556 S
C529 C528 1.389 1_554 S
C529 C530 1.387 . S
C530 H515 0.930 . S
C530 C525 1.390 . S
C530 C529 1.387 . S
H531 C543 0.930 . S
H532 C545 0.930 . S
H533 C546 0.930 . S
H534 C550 0.959 . S
H535 C550 0.959 . S
H536 C550 0.961 . S
H537 C551 0.960 . S
H538 C551 0.961 . S
H539 C551 0.959 . S
H540 C554 0.929 . S
H541 C555 0.931 . S
H542 C557 0.930 . S
C543 H531 0.930 . S
C543 C544 1.399 1_556 S
C543 C548 1.399 . S
C544 C543 1.399 1_554 S
C544 C545 1.376 . S
C545 H532 0.930 . S
C545 C544 1.376 . S
C545 C546 1.388 . S
C546 H533 0.930 . S
C546 C545 1.388 . S
C546 C547 1.390 . S
C547 C546 1.390 . S
C547 C548 1.394 1_554 S
C547 C553 1.465 . S
C548 C543 1.399 . S
C548 C547 1.394 1_556 S
C548 C549 1.516 . S
C549 C548 1.516 . S
C549 C550 1.502 . S
C549 C551 1.561 . S
C549 C552 1.526 . S
C550 H534 0.959 . S
C550 H535 0.959 . S
C550 H536 0.961 . S
C550 C549 1.502 . S
C551 H537 0.960 . S
C551 H538 0.961 . S
C551 H539 0.959 . S
C551 C549 1.561 . S
C552 C549 1.526 . S
C552 C553 1.396 1_556 S
C552 C557 1.390 . S
C553 C547 1.465 . S
C553 C552 1.396 1_554 S
C553 C554 1.399 . S
C554 H540 0.929 . S
C554 C553 1.399 . S
C554 C555 1.385 . S
C555 H541 0.931 . S
C555 C554 1.385 . S
C555 C556 1.389 . S
C556 C555 1.389 . S
C556 C557 1.387 1_554 S
C557 H542 0.930 . S
C557 C552 1.390 . S
C557 C556 1.387 1_556 S
H558 C570 0.930 . S
H559 C572 0.930 . S
H560 C573 0.930 . S
H561 C577 0.959 . S
H562 C577 0.959 . S
H563 C577 0.961 . S
H564 C578 0.960 . S
H565 C578 0.961 . S
H566 C578 0.959 . S
H567 C581 0.929 . S
H568 C582 0.931 . S
H569 C584 0.930 . S
C570 H558 0.930 . S
C570 C571 1.399 . S
C570 C575 1.399 . S
C571 C570 1.399 . S
C571 C572 1.376 1_554 S
C572 H559 0.930 . S
C572 C571 1.376 1_556 S
C572 C573 1.388 . S
C573 H560 0.930 . S
C573 C572 1.388 . S
C573 C574 1.390 . S
C574 C573 1.390 . S
C574 C575 1.394 1_556 S
C574 C580 1.465 . S
C575 C570 1.399 . S
C575 C574 1.394 1_554 S
C575 C576 1.516 . S
C576 C575 1.516 . S
C576 C577 1.502 . S
C576 C578 1.561 . S
C576 C579 1.526 . S
C577 H561 0.959 . S
C577 H562 0.959 . S
C577 H563 0.961 . S
C577 C576 1.502 . S
C578 H564 0.960 . S
C578 H565 0.961 . S
C578 H566 0.959 . S
C578 C576 1.561 . S
C579 C576 1.526 . S
C579 C580 1.396 1_554 S
C579 C584 1.390 . S
C580 C574 1.465 . S
C580 C579 1.396 1_556 S
C580 C581 1.399 . S
C581 H567 0.929 . S
C581 C580 1.399 . S
C581 C582 1.385 . S
C582 H568 0.931 . S
C582 C581 1.385 . S
C582 C583 1.389 1_556 S
C583 C582 1.389 1_554 S
C583 C584 1.387 . S
C584 H569 0.930 . S
C584 C579 1.390 . S
C584 C583 1.387 . S
H585 C597 0.930 . S
H586 C599 0.930 . S
H587 C600 0.930 . S
H588 C604 0.959 . S
H589 C604 0.959 . S
H590 C604 0.961 . S
H591 C605 0.960 . S
H592 C605 0.961 . S
H593 C605 0.959 . S
H594 C608 0.929 . S
H595 C609 0.931 . S
H596 C611 0.930 . S
C597 H585 0.930 . S
C597 C598 1.399 1_556 S
C597 C602 1.399 . S
C598 C597 1.399 1_554 S
C598 C599 1.376 . S
C599 H586 0.930 . S
C599 C598 1.376 . S
C599 C600 1.388 . S
C600 H587 0.930 . S
C600 C599 1.388 . S
C600 C601 1.390 . S
C601 C600 1.390 . S
C601 C602 1.394 1_554 S
C601 C607 1.465 . S
C602 C597 1.399 . S
C602 C601 1.394 1_556 S
C602 C603 1.516 . S
C603 C602 1.516 . S
C603 C604 1.502 . S
C603 C605 1.561 . S
C603 C606 1.526 . S
C604 H588 0.959 . S
C604 H589 0.959 . S
C604 H590 0.961 . S
C604 C603 1.502 . S
C605 H591 0.960 . S
C605 H592 0.961 . S
C605 H593 0.959 . S
C605 C603 1.561 . S
C606 C603 1.526 . S
C606 C607 1.396 1_556 S
C606 C611 1.390 . S
C607 C601 1.465 . S
C607 C606 1.396 1_554 S
C607 C608 1.399 . S
C608 H594 0.929 . S
C608 C607 1.399 . S
C608 C609 1.385 . S
C609 H595 0.931 . S
C609 C608 1.385 . S
C609 C610 1.389 . S
C610 C609 1.389 . S
C610 C611 1.387 1_554 S
C611 H596 0.930 . S
C611 C606 1.390 . S
C611 C610 1.387 1_556 S
H612 C624 0.930 . S
H613 C626 0.930 . S
H614 C627 0.930 . S
H615 C631 0.959 . S
H616 C631 0.959 . S
H617 C631 0.961 . S
H618 C632 0.960 . S
H619 C632 0.961 . S
H620 C632 0.959 . S
H621 C635 0.929 . S
H622 C636 0.931 . S
H623 C638 0.930 . S
C624 H612 0.930 . S
C624 C625 1.399 1_556 S
C624 C629 1.403 . S
C625 C624 1.399 1_554 S
C625 C626 1.376 . S
C626 H613 0.930 . S
C626 C625 1.376 . S
C626 C627 1.388 . S
C627 H614 0.930 . S
C627 C626 1.388 . S
C627 C628 1.390 . S
C628 C627 1.390 . S
C628 C629 1.373 1_554 S
C628 C634 1.465 . S
C629 C624 1.403 . S
C629 C628 1.373 1_556 S
C629 C630 1.531 . S
C630 C629 1.531 . S
C630 C631 1.502 . S
C630 C632 1.561 . S
C630 C633 1.526 . S
C631 H615 0.959 . S
C631 H616 0.959 . S
C631 H617 0.961 . S
C631 C630 1.502 . S
C632 H618 0.960 . S
C632 H619 0.961 . S
C632 H620 0.959 . S
C632 C630 1.561 . S
C633 C630 1.526 . S
C633 C634 1.396 1_556 S
C633 C638 1.390 . S
C634 C628 1.465 . S
C634 C633 1.396 1_554 S
C634 C635 1.399 . S
C635 H621 0.929 . S
C635 C634 1.399 . S
C635 C636 1.385 . S
C636 H622 0.931 . S
C636 C635 1.385 . S
C636 C637 1.389 . S
C637 C636 1.389 . S
C637 C638 1.387 1_554 S
C638 H623 0.930 . S
C638 C633 1.390 . S
C638 C637 1.387 1_556 S
H639 C651 0.930 . S
H640 C653 0.930 . S
H641 C654 0.930 . S
H642 C658 0.959 . S
H643 C658 0.959 . S
H644 C658 0.961 . S
H645 C659 0.960 . S
H646 C659 0.961 . S
H647 C659 0.959 . S
H648 C662 0.929 . S
H649 C663 0.931 . S
H650 C665 0.930 . S
C651 H639 0.930 . S
C651 C652 1.399 . S
C651 C656 1.399 . S
C652 C651 1.399 . S
C652 C653 1.376 1_554 S
C653 H640 0.930 . S
C653 C652 1.376 1_556 S
C653 C654 1.388 . S
C654 H641 0.930 . S
C654 C653 1.388 . S
C654 C655 1.390 1_556 S
C655 C654 1.390 1_554 S
C655 C656 1.394 . S
C655 C661 1.465 . S
C656 C651 1.399 . S
C656 C655 1.394 . S
C656 C657 1.516 . S
C657 C656 1.516 . S
C657 C658 1.502 . S
C657 C659 1.561 . S
C657 C660 1.526 . S
C658 H642 0.959 . S
C658 H643 0.959 . S
C658 H644 0.961 . S
C658 C657 1.502 . S
C659 H645 0.960 . S
C659 H646 0.961 . S
C659 H647 0.959 . S
C659 C657 1.561 . S
C660 C657 1.526 . S
C660 C661 1.396 . S
C660 C665 1.390 . S
C661 C655 1.465 . S
C661 C660 1.396 . S
C661 C662 1.399 1_554 S
C662 H648 0.929 . S
C662 C661 1.399 1_556 S
C662 C663 1.385 . S
C663 H649 0.931 . S
C663 C662 1.385 . S
C663 C664 1.389 1_556 S
C664 C663 1.389 1_554 S
C664 C665 1.387 . S
C665 H650 0.930 . S
C665 C660 1.390 . S
C665 C664 1.387 . S
H666 C678 0.930 . S
H667 C680 0.930 . S
H668 C681 0.930 . S
H669 C685 0.959 . S
H670 C685 0.959 . S
H671 C685 0.961 . S
H672 C686 0.960 . S
H673 C686 0.961 . S
H674 C686 0.959 . S
H675 C689 0.929 . S
H676 C690 0.931 . S
H677 C692 0.930 . S
C678 H666 0.930 . S
C678 C679 1.399 1_556 S
C678 C683 1.399 . S
C679 C678 1.399 1_554 S
C679 C680 1.376 . S
C680 H667 0.930 . S
C680 C679 1.376 . S
C680 C681 1.388 . S
C681 H668 0.930 . S
C681 C680 1.388 . S
C681 C682 1.390 . S
C682 C681 1.390 . S
C682 C683 1.394 1_554 S
C682 C688 1.465 . S
C683 C678 1.399 . S
C683 C682 1.394 1_556 S
C683 C684 1.516 . S
C684 C683 1.516 . S
C684 C685 1.502 . S
C684 C686 1.561 . S
C684 C687 1.526 . S
C685 H669 0.959 . S
C685 H670 0.959 . S
C685 H671 0.961 . S
C685 C684 1.502 . S
C686 H672 0.960 . S
C686 H673 0.961 . S
C686 H674 0.959 . S
C686 C684 1.561 . S
C687 C684 1.526 . S
C687 C688 1.396 1_556 S
C687 C692 1.390 . S
C688 C682 1.465 . S
C688 C687 1.396 1_554 S
C688 C689 1.399 . S
C689 H675 0.929 . S
C689 C688 1.399 . S
C689 C690 1.385 . S
C690 H676 0.931 . S
C690 C689 1.385 . S
C690 C691 1.389 . S
C691 C690 1.389 . S
C691 C692 1.387 1_554 S
C692 H677 0.930 . S
C692 C687 1.390 . S
C692 C691 1.387 1_556 S
H693 C705 0.930 . S
H694 C707 0.930 . S
H695 C708 0.930 . S
H696 C712 0.959 . S
H697 C712 0.959 . S
H698 C712 0.961 . S
H699 C713 0.960 . S
H700 C713 0.961 . S
H701 C713 0.959 . S
H702 C716 0.929 . S
H703 C717 0.931 . S
H704 C719 0.930 . S
C705 H693 0.930 . S
C705 C706 1.399 . S
C705 C710 1.399 . S
C706 C705 1.399 . S
C706 C707 1.376 1_554 S
C707 H694 0.930 . S
C707 C706 1.376 1_556 S
C707 C708 1.388 . S
C708 H695 0.930 . S
C708 C707 1.388 . S
C708 C709 1.390 . S
C709 C708 1.390 . S
C709 C710 1.394 1_556 S
C709 C715 1.465 . S
C710 C705 1.399 . S
C710 C709 1.394 1_554 S
C710 C711 1.516 . S
C711 C710 1.516 . S
C711 C712 1.502 . S
C711 C713 1.561 . S
C711 C714 1.526 . S
C712 H696 0.959 . S
C712 H697 0.959 . S
C712 H698 0.961 . S
C712 C711 1.502 . S
C713 H699 0.960 . S
C713 H700 0.961 . S
C713 H701 0.959 . S
C713 C711 1.561 . S
C714 C711 1.526 . S
C714 C715 1.396 1_554 S
C714 C719 1.390 . S
C715 C709 1.465 . S
C715 C714 1.396 1_556 S
C715 C716 1.399 . S
C716 H702 0.929 . S
C716 C715 1.399 . S
C716 C717 1.385 . S
C717 H703 0.931 . S
C717 C716 1.385 . S
C717 C718 1.389 1_556 S
C718 C717 1.389 1_554 S
C718 C719 1.387 . S
C719 H704 0.930 . S
C719 C714 1.390 . S
C719 C718 1.387 . S
H720 C732 0.930 . S
H721 C734 0.930 . S
H722 C735 0.930 . S
H723 C739 0.959 . S
H724 C739 0.959 . S
H725 C739 0.961 . S
H726 C740 0.960 . S
H727 C740 0.961 . S
H728 C740 0.959 1_556 S
H729 C743 0.929 . S
H730 C744 0.931 . S
H731 C746 0.930 . S
C732 H720 0.930 . S
C732 C733 1.399 . S
C732 C737 1.399 . S
C733 C732 1.399 . S
C733 C734 1.376 1_554 S
C734 H721 0.930 . S
C734 C733 1.376 1_556 S
C734 C735 1.388 . S
C735 H722 0.930 . S
C735 C734 1.388 . S
C735 C736 1.397 . S
C736 C735 1.397 . S
C736 C737 1.384 1_556 S
C736 C742 1.465 . S
C737 C732 1.399 . S
C737 C736 1.384 1_554 S
C737 C738 1.516 . S
C738 C737 1.516 . S
C738 C739 1.502 . S
C738 C740 1.561 . S
C738 C741 1.526 . S
C739 H723 0.959 . S
C739 H724 0.959 . S
C739 H725 0.961 . S
C739 C738 1.502 . S
C740 H726 0.960 . S
C740 H727 0.961 . S
C740 H728 0.959 1_554 S
C740 C738 1.561 . S
C741 C738 1.526 . S
C741 C742 1.384 1_554 S
C741 C746 1.390 . S
C742 C736 1.465 . S
C742 C741 1.384 1_556 S
C742 C743 1.409 . S
C743 H729 0.929 . S
C743 C742 1.409 . S
C743 C744 1.385 . S
C744 H730 0.931 . S
C744 C743 1.385 . S
C744 C745 1.389 1_556 S
C745 C744 1.389 1_554 S
C745 C746 1.387 . S
C746 H731 0.930 . S
C746 C741 1.390 . S
C746 C745 1.387 . S
H747 C759 0.930 . S
H748 C761 0.930 . S
H749 C762 0.930 . S
H750 C766 0.959 . S
H751 C766 0.959 . S
H752 C766 0.961 . S
H753 C767 0.960 1_655 S
H754 C767 0.961 . S
H755 C767 0.959 . S
H756 C770 0.929 . S
H757 C771 0.931 . S
H758 C773 0.930 . S
C759 H747 0.930 . S
C759 C760 1.399 . S
C759 C764 1.399 . S
C760 C759 1.399 . S
C760 C761 1.376 . S
C761 H748 0.930 . S
C761 C760 1.376 . S
C761 C762 1.388 . S
C762 H749 0.930 . S
C762 C761 1.388 . S
C762 C763 1.390 . S
C763 C762 1.390 . S
C763 C764 1.394 . S
C763 C769 1.465 1_655 S
C764 C759 1.399 . S
C764 C763 1.394 . S
C764 C765 1.516 1_655 S
C765 C764 1.516 1_455 S
C765 C766 1.502 . S
C765 C767 1.561 . S
C765 C768 1.526 . S
C766 H750 0.959 . S
C766 H751 0.959 . S
C766 H752 0.961 . S
C766 C765 1.502 . S
C767 H753 0.960 1_455 S
C767 H754 0.961 . S
C767 H755 0.959 . S
C767 C765 1.561 . S
C768 C765 1.526 . S
C768 C769 1.396 . S
C768 C773 1.390 . S
C769 C763 1.465 1_455 S
C769 C768 1.396 . S
C769 C770 1.399 . S
C770 H756 0.929 . S
C770 C769 1.399 . S
C770 C771 1.385 . S
C771 H757 0.931 . S
C771 C770 1.385 . S
C771 C772 1.389 . S
C772 C771 1.389 . S
C772 C773 1.387 . S
C773 H758 0.930 . S
C773 C768 1.390 . S
C773 C772 1.387 . S
H774 C786 0.930 . S
H775 C788 0.930 . S
H776 C789 0.930 . S
H777 C793 0.959 . S
H778 C793 0.959 . S
H779 C793 0.961 . S
H780 C794 0.960 . S
H781 C794 0.961 . S
H782 C794 0.959 . S
H783 C797 0.929 . S
H784 C798 0.931 . S
H785 C800 0.930 . S
C786 H774 0.930 . S
C786 C787 1.399 . S
C786 C791 1.399 . S
C787 C786 1.399 . S
C787 C788 1.376 . S
C788 H775 0.930 . S
C788 C787 1.376 . S
C788 C789 1.388 . S
C789 H776 0.930 . S
C789 C788 1.388 . S
C789 C790 1.390 . S
C790 C789 1.390 . S
C790 C791 1.394 . S
C790 C796 1.465 . S
C791 C786 1.399 . S
C791 C790 1.394 . S
C791 C792 1.516 . S
C792 C791 1.516 . S
C792 C793 1.502 . S
C792 C794 1.561 . S
C792 C795 1.526 . S
C793 H777 0.959 . S
C793 H778 0.959 . S
C793 H779 0.961 . S
C793 C792 1.502 . S
C794 H780 0.960 . S
C794 H781 0.961 . S
C794 H782 0.959 . S
C794 C792 1.561 . S
C795 C792 1.526 . S
C795 C796 1.396 . S
C795 C800 1.390 . S
C796 C790 1.465 . S
C796 C795 1.396 . S
C796 C797 1.399 . S
C797 H783 0.929 . S
C797 C796 1.399 . S
C797 C798 1.385 . S
C798 H784 0.931 . S
C798 C797 1.385 . S
C798 C799 1.389 . S
C799 C798 1.389 . S
C799 C800 1.387 . S
C800 H785 0.930 . S
C800 C795 1.390 . S
C800 C799 1.387 . S
H801 C813 0.930 . S
H802 C815 0.930 . S
H803 C816 0.930 . S
H804 C820 0.959 . S
H805 C820 0.959 . S
H806 C820 0.961 . S
H807 C821 0.960 . S
H808 C821 0.961 1_565 S
H809 C821 0.959 1_565 S
H810 C824 0.929 . S
H811 C825 0.931 . S
H812 C827 0.930 . S
C813 H801 0.930 . S
C813 C814 1.399 . S
C813 C818 1.399 . S
C814 C813 1.399 . S
C814 C815 1.376 . S
C815 H802 0.930 . S
C815 C814 1.376 . S
C815 C816 1.388 . S
C816 H803 0.930 . S
C816 C815 1.388 . S
C816 C817 1.390 . S
C817 C816 1.390 . S
C817 C818 1.394 . S
C817 C823 1.465 1_545 S
C818 C813 1.399 . S
C818 C817 1.394 . S
C818 C819 1.516 . S
C819 C818 1.516 . S
C819 C820 1.502 . S
C819 C821 1.561 . S
C819 C822 1.526 1_545 S
C820 H804 0.959 . S
C820 H805 0.959 . S
C820 H806 0.961 . S
C820 C819 1.502 . S
C821 H807 0.960 . S
C821 H808 0.961 1_545 S
C821 H809 0.959 1_545 S
C821 C819 1.561 . S
C822 C819 1.526 1_565 S
C822 C823 1.396 . S
C822 C827 1.390 . S
C823 C817 1.465 1_565 S
C823 C822 1.396 . S
C823 C824 1.399 . S
C824 H810 0.929 . S
C824 C823 1.399 . S
C824 C825 1.385 . S
C825 H811 0.931 . S
C825 C824 1.385 . S
C825 C826 1.389 . S
C826 C825 1.389 . S
C826 C827 1.387 . S
C827 H812 0.930 . S
C827 C822 1.390 . S
C827 C826 1.387 . S
H828 C840 0.930 . S
H829 C842 0.930 . S
H830 C843 0.930 . S
H831 C847 0.959 . S
H832 C847 0.959 . S
H833 C847 0.961 . S
H834 C848 0.960 . S
H835 C848 0.961 . S
H836 C848 0.959 . S
H837 C851 0.929 . S
H838 C852 0.931 . S
H839 C854 0.930 . S
C840 H828 0.930 . S
C840 C841 1.399 . S
C840 C845 1.399 . S
C841 C840 1.399 . S
C841 C842 1.376 . S
C842 H829 0.930 . S
C842 C841 1.376 . S
C842 C843 1.388 . S
C843 H830 0.930 . S
C843 C842 1.388 . S
C843 C844 1.390 . S
C844 C843 1.390 . S
C844 C845 1.394 . S
C844 C850 1.465 . S
C845 C840 1.399 . S
C845 C844 1.394 . S
C845 C846 1.516 . S
C846 C845 1.516 . S
C846 C847 1.502 . S
C846 C848 1.561 . S
C846 C849 1.526 . S
C847 H831 0.959 . S
C847 H832 0.959 . S
C847 H833 0.961 . S
C847 C846 1.502 . S
C848 H834 0.960 . S
C848 H835 0.961 . S
C848 H836 0.959 . S
C848 C846 1.561 . S
C849 C846 1.526 . S
C849 C850 1.396 . S
C849 C854 1.390 . S
C850 C844 1.465 . S
C850 C849 1.396 . S
C850 C851 1.399 . S
C851 H837 0.929 . S
C851 C850 1.399 . S
C851 C852 1.385 . S
C852 H838 0.931 . S
C852 C851 1.385 . S
C852 C853 1.389 . S
C853 C852 1.389 . S
C853 C854 1.387 . S
C854 H839 0.930 . S
C854 C849 1.390 . S
C854 C853 1.387 . S
H855 C867 0.930 . S
H856 C869 0.930 . S
H857 C870 0.930 . S
H858 C874 0.959 . S
H859 C874 0.959 . S
H860 C874 0.961 . S
H861 C875 0.960 . S
H862 C875 0.961 . S
H863 C875 0.959 . S
H864 C878 0.929 . S
H865 C879 0.931 . S
H866 C881 0.930 . S
C867 H855 0.930 . S
C867 C868 1.399 . S
C867 C872 1.399 . S
C868 C867 1.399 . S
C868 C869 1.376 . S
C869 H856 0.930 . S
C869 C868 1.376 . S
C869 C870 1.388 . S
C870 H857 0.930 . S
C870 C869 1.388 . S
C870 C871 1.390 . S
C871 C870 1.390 . S
C871 C872 1.394 . S
C871 C877 1.465 . S
C872 C867 1.399 . S
C872 C871 1.394 . S
C872 C873 1.516 . S
C873 C872 1.516 . S
C873 C874 1.502 . S
C873 C875 1.561 . S
C873 C876 1.526 . S
C874 H858 0.959 . S
C874 H859 0.959 . S
C874 H860 0.961 . S
C874 C873 1.502 . S
C875 H861 0.960 . S
C875 H862 0.961 . S
C875 H863 0.959 . S
C875 C873 1.561 . S
C876 C873 1.526 . S
C876 C877 1.396 . S
C876 C881 1.390 . S
C877 C871 1.465 . S
C877 C876 1.396 . S
C877 C878 1.399 . S
C878 H864 0.929 . S
C878 C877 1.399 . S
C878 C879 1.385 . S
C879 H865 0.931 . S
C879 C878 1.385 . S
C879 C880 1.389 . S
C880 C879 1.389 . S
C880 C881 1.387 . S
C881 H866 0.930 . S
C881 C876 1.390 . S
C881 C880 1.387 . S
H882 C894 0.930 . S
H883 C896 0.930 . S
H884 C897 0.930 . S
H885 C901 0.959 . S
H886 C901 0.959 . S
H887 C901 0.961 . S
H888 C902 0.960 . S
H889 C902 0.961 . S
H890 C902 0.959 . S
H891 C905 0.929 . S
H892 C906 0.931 . S
H893 C908 0.930 . S
C894 H882 0.930 . S
C894 C895 1.399 . S
C894 C899 1.399 . S
C895 C894 1.399 . S
C895 C896 1.376 . S
C896 H883 0.930 . S
C896 C895 1.376 . S
C896 C897 1.388 . S
C897 H884 0.930 . S
C897 C896 1.388 . S
C897 C898 1.390 . S
C898 C897 1.390 . S
C898 C899 1.394 . S
C898 C904 1.465 . S
C899 C894 1.399 . S
C899 C898 1.394 . S
C899 C900 1.516 . S
C900 C899 1.516 . S
C900 C901 1.502 . S
C900 C902 1.561 . S
C900 C903 1.526 . S
C901 H885 0.959 . S
C901 H886 0.959 . S
C901 H887 0.961 . S
C901 C900 1.502 . S
C902 H888 0.960 . S
C902 H889 0.961 . S
C902 H890 0.959 . S
C902 C900 1.561 . S
C903 C900 1.526 . S
C903 C904 1.396 . S
C903 C908 1.390 . S
C904 C898 1.465 . S
C904 C903 1.396 . S
C904 C905 1.399 . S
C905 H891 0.929 . S
C905 C904 1.399 . S
C905 C906 1.385 . S
C906 H892 0.931 . S
C906 C905 1.385 . S
C906 C907 1.389 . S
C907 C906 1.389 . S
C907 C908 1.387 . S
C908 H893 0.930 . S
C908 C903 1.390 . S
C908 C907 1.387 . S
H909 C921 0.930 . S
H910 C923 0.930 . S
H911 C924 0.930 . S
H912 C928 0.959 . S
H913 C928 0.959 . S
H914 C928 0.961 . S
H915 C929 0.960 . S
H916 C929 0.961 . S
H917 C929 0.959 . S
H918 C932 0.929 . S
H919 C933 0.931 . S
H920 C935 0.930 . S
C921 H909 0.930 . S
C921 C922 1.399 . S
C921 C926 1.399 . S
C922 C921 1.399 . S
C922 C923 1.376 . S
C923 H910 0.930 . S
C923 C922 1.376 . S
C923 C924 1.388 . S
C924 H911 0.930 . S
C924 C923 1.388 . S
C924 C925 1.390 . S
C925 C924 1.390 . S
C925 C926 1.394 . S
C925 C931 1.465 . S
C926 C921 1.399 . S
C926 C925 1.394 . S
C926 C927 1.516 . S
C927 C926 1.516 . S
C927 C928 1.502 . S
C927 C929 1.561 . S
C927 C930 1.526 . S
C928 H912 0.959 . S
C928 H913 0.959 . S
C928 H914 0.961 . S
C928 C927 1.502 . S
C929 H915 0.960 . S
C929 H916 0.961 . S
C929 H917 0.959 . S
C929 C927 1.561 . S
C930 C927 1.526 . S
C930 C931 1.396 . S
C930 C935 1.390 . S
C931 C925 1.465 . S
C931 C930 1.396 . S
C931 C932 1.399 . S
C932 H918 0.929 . S
C932 C931 1.399 . S
C932 C933 1.385 . S
C933 H919 0.931 . S
C933 C932 1.385 . S
C933 C934 1.389 . S
C934 C933 1.389 . S
C934 C935 1.387 . S
C935 H920 0.930 . S
C935 C930 1.390 . S
C935 C934 1.387 . S
H936 C948 0.930 . S
H937 C950 0.930 . S
H938 C951 0.930 . S
H939 C955 0.959 . S
H940 C955 0.959 . S
H941 C955 0.961 . S
H942 C956 0.960 . S
H943 C956 0.961 . S
H944 C956 0.959 . S
H945 C959 0.929 . S
H946 C960 0.931 . S
H947 C962 0.930 . S
C948 H936 0.930 . S
C948 C949 1.399 . S
C948 C953 1.399 . S
C949 C948 1.399 . S
C949 C950 1.376 . S
C950 H937 0.930 . S
C950 C949 1.376 . S
C950 C951 1.388 . S
C951 H938 0.930 . S
C951 C950 1.388 . S
C951 C952 1.390 . S
C952 C951 1.390 . S
C952 C953 1.394 . S
C952 C958 1.465 . S
C953 C948 1.399 . S
C953 C952 1.394 . S
C953 C954 1.516 . S
C954 C953 1.516 . S
C954 C955 1.502 . S
C954 C956 1.561 . S
C954 C957 1.526 . S
C955 H939 0.959 . S
C955 H940 0.959 . S
C955 H941 0.961 . S
C955 C954 1.502 . S
C956 H942 0.960 . S
C956 H943 0.961 . S
C956 H944 0.959 . S
C956 C954 1.561 . S
C957 C954 1.526 . S
C957 C958 1.396 . S
C957 C962 1.390 . S
C958 C952 1.465 . S
C958 C957 1.396 . S
C958 C959 1.399 . S
C959 H945 0.929 . S
C959 C958 1.399 . S
C959 C960 1.385 . S
C960 H946 0.931 . S
C960 C959 1.385 . S
C960 C961 1.389 . S
C961 C960 1.389 . S
C961 C962 1.387 . S
C962 H947 0.930 . S
C962 C957 1.390 . S
C962 C961 1.387 . S
H963 C975 0.930 . S
H964 C977 0.930 . S
H965 C978 0.930 . S
H966 C982 0.959 . S
H967 C982 0.959 . S
H968 C982 0.961 . S
H969 C983 0.960 . S
H970 C983 0.961 . S
H971 C983 0.959 . S
H972 C986 0.929 . S
H973 C987 0.931 . S
H974 C989 0.930 . S
C975 H963 0.930 . S
C975 C976 1.399 . S
C975 C980 1.399 . S
C976 C975 1.399 . S
C976 C977 1.376 . S
C977 H964 0.930 . S
C977 C976 1.376 . S
C977 C978 1.388 . S
C978 H965 0.930 . S
C978 C977 1.388 . S
C978 C979 1.390 . S
C979 C978 1.390 . S
C979 C980 1.394 . S
C979 C985 1.465 . S
C980 C975 1.399 . S
C980 C979 1.394 . S
C980 C981 1.516 . S
C981 C980 1.516 . S
C981 C982 1.502 . S
C981 C983 1.561 . S
C981 C984 1.526 . S
C982 H966 0.959 . S
C982 H967 0.959 . S
C982 H968 0.961 . S
C982 C981 1.502 . S
C983 H969 0.960 . S
C983 H970 0.961 . S
C983 H971 0.959 . S
C983 C981 1.561 . S
C984 C981 1.526 . S
C984 C985 1.396 . S
C984 C989 1.390 . S
C985 C979 1.465 . S
C985 C984 1.396 . S
C985 C986 1.399 . S
C986 H972 0.929 . S
C986 C985 1.399 . S
C986 C987 1.385 . S
C987 H973 0.931 . S
C987 C986 1.385 . S
C987 C988 1.389 . S
C988 C987 1.389 . S
C988 C989 1.387 . S
C989 H974 0.930 . S
C989 C984 1.390 . S
C989 C988 1.387 . S
H990 C1002 0.930 . S
H991 C1004 0.930 . S
H992 C1005 0.929 1_565 S
H993 C1009 0.959 . S
H994 C1009 0.959 . S
H995 C1009 0.961 . S
H996 C1010 0.960 . S
H997 C1010 0.961 . S
H998 C1010 0.959 . S
H999 C1013 0.929 . S
H1000 C1014 0.931 . S
H1001 C1016 0.930 . S
C1002 H990 0.930 . S
C1002 C1003 1.399 . S
C1002 C1007 1.399 1_545 S
C1003 C1002 1.399 . S
C1003 C1004 1.376 . S
C1004 H991 0.930 . S
C1004 C1003 1.376 . S
C1004 C1005 1.413 . S
C1005 H992 0.929 1_545 S
C1005 C1004 1.413 . S
C1005 C1006 1.367 1_545 S
C1006 C1005 1.367 1_565 S
C1006 C1007 1.394 . S
C1006 C1012 1.465 . S
C1007 C1002 1.399 1_565 S
C1007 C1006 1.394 . S
C1007 C1008 1.516 . S
C1008 C1007 1.516 . S
C1008 C1009 1.502 . S
C1008 C1010 1.561 . S
C1008 C1011 1.526 . S
C1009 H993 0.959 . S
C1009 H994 0.959 . S
C1009 H995 0.961 . S
C1009 C1008 1.502 . S
C1010 H996 0.960 . S
C1010 H997 0.961 . S
C1010 H998 0.959 . S
C1010 C1008 1.561 . S
C1011 C1008 1.526 . S
C1011 C1012 1.396 . S
C1011 C1016 1.390 . S
C1012 C1006 1.465 . S
C1012 C1011 1.396 . S
C1012 C1013 1.399 . S
C1013 H999 0.929 . S
C1013 C1012 1.399 . S
C1013 C1014 1.385 . S
C1014 H1000 0.931 . S
C1014 C1013 1.385 . S
C1014 C1015 1.389 . S
C1015 C1014 1.389 . S
C1015 C1016 1.387 . S
C1016 H1001 0.930 . S
C1016 C1011 1.390 . S
C1016 C1015 1.387 . S
H1017 C1029 0.930 . S
H1018 C1031 0.930 . S
H1019 C1032 0.930 . S
H1020 C1036 0.959 . S
H1021 C1036 0.959 . S
H1022 C1036 0.961 . S
H1023 C1037 0.960 . S
H1024 C1037 0.961 . S
H1025 C1037 0.959 . S
H1026 C1040 0.929 . S
H1027 C1041 0.931 . S
H1028 C1043 0.930 . S
C1029 H1017 0.930 . S
C1029 C1030 1.399 . S
C1029 C1034 1.399 1_655 S
C1030 C1029 1.399 . S
C1030 C1031 1.376 . S
C1031 H1018 0.930 . S
C1031 C1030 1.376 . S
C1031 C1032 1.388 1_655 S
C1032 H1019 0.930 . S
C1032 C1031 1.388 1_455 S
C1032 C1033 1.390 . S
C1033 C1032 1.390 . S
C1033 C1034 1.394 . S
C1033 C1039 1.465 . S
C1034 C1029 1.399 1_455 S
C1034 C1033 1.394 . S
C1034 C1035 1.516 . S
C1035 C1034 1.516 . S
C1035 C1036 1.502 . S
C1035 C1037 1.561 . S
C1035 C1038 1.526 . S
C1036 H1020 0.959 . S
C1036 H1021 0.959 . S
C1036 H1022 0.961 . S
C1036 C1035 1.502 . S
C1037 H1023 0.960 . S
C1037 H1024 0.961 . S
C1037 H1025 0.959 . S
C1037 C1035 1.561 . S
C1038 C1035 1.526 . S
C1038 C1039 1.396 . S
C1038 C1043 1.390 . S
C1039 C1033 1.465 . S
C1039 C1038 1.396 . S
C1039 C1040 1.399 . S
C1040 H1026 0.929 . S
C1040 C1039 1.399 . S
C1040 C1041 1.385 . S
C1041 H1027 0.931 . S
C1041 C1040 1.385 . S
C1041 C1042 1.389 . S
C1042 C1041 1.389 . S
C1042 C1043 1.387 . S
C1043 H1028 0.930 . S
C1043 C1038 1.390 . S
C1043 C1042 1.387 . S
H1044 C1056 0.930 . S
H1045 C1058 0.930 . S
H1046 C1059 0.930 . S
H1047 C1063 0.959 . S
H1048 C1063 0.959 . S
H1049 C1063 0.961 . S
H1050 C1064 0.960 . S
H1051 C1064 0.961 . S
H1052 C1064 0.959 . S
H1053 C1067 0.929 . S
H1054 C1068 0.931 . S
H1055 C1070 0.930 . S
C1056 H1044 0.930 . S
C1056 C1057 1.399 . S
C1056 C1061 1.399 . S
C1057 C1056 1.399 . S
C1057 C1058 1.376 . S
C1058 H1045 0.930 . S
C1058 C1057 1.376 . S
C1058 C1059 1.388 . S
C1059 H1046 0.930 . S
C1059 C1058 1.388 . S
C1059 C1060 1.390 . S
C1060 C1059 1.390 . S
C1060 C1061 1.394 . S
C1060 C1066 1.465 . S
C1061 C1056 1.399 . S
C1061 C1060 1.394 . S
C1061 C1062 1.516 . S
C1062 C1061 1.516 . S
C1062 C1063 1.502 . S
C1062 C1064 1.561 . S
C1062 C1065 1.526 . S
C1063 H1047 0.959 . S
C1063 H1048 0.959 . S
C1063 H1049 0.961 . S
C1063 C1062 1.502 . S
C1064 H1050 0.960 . S
C1064 H1051 0.961 . S
C1064 H1052 0.959 . S
C1064 C1062 1.561 . S
C1065 C1062 1.526 . S
C1065 C1066 1.396 . S
C1065 C1070 1.390 . S
C1066 C1060 1.465 . S
C1066 C1065 1.396 . S
C1066 C1067 1.399 . S
C1067 H1053 0.929 . S
C1067 C1066 1.399 . S
C1067 C1068 1.385 . S
C1068 H1054 0.931 . S
C1068 C1067 1.385 . S
C1068 C1069 1.389 . S
C1069 C1068 1.389 . S
C1069 C1070 1.387 . S
C1070 H1055 0.930 . S
C1070 C1065 1.390 . S
C1070 C1069 1.387 . S
H1071 C1083 0.930 . S
H1072 C1085 0.930 . S
H1073 C1086 0.930 . S
H1074 C1090 0.959 . S
H1075 C1090 0.959 . S
H1076 C1090 0.961 . S
H1077 C1091 0.960 . S
H1078 C1091 0.961 . S
H1079 C1091 0.959 . S
H1080 C1094 0.929 . S
H1081 C1095 0.931 . S
H1082 C1097 0.930 . S
C1083 H1071 0.930 . S
C1083 C1084 1.399 . S
C1083 C1088 1.399 . S
C1084 C1083 1.399 . S
C1084 C1085 1.376 . S
C1085 H1072 0.930 . S
C1085 C1084 1.376 . S
C1085 C1086 1.388 . S
C1086 H1073 0.930 . S
C1086 C1085 1.388 . S
C1086 C1087 1.390 . S
C1087 C1086 1.390 . S
C1087 C1088 1.394 . S
C1087 C1093 1.465 . S
C1088 C1083 1.399 . S
C1088 C1087 1.394 . S
C1088 C1089 1.516 . S
C1089 C1088 1.516 . S
C1089 C1090 1.502 . S
C1089 C1091 1.561 . S
C1089 C1092 1.526 . S
C1090 H1074 0.959 . S
C1090 H1075 0.959 . S
C1090 H1076 0.961 . S
C1090 C1089 1.502 . S
C1091 H1077 0.960 . S
C1091 H1078 0.961 . S
C1091 H1079 0.959 . S
C1091 C1089 1.561 . S
C1092 C1089 1.526 . S
C1092 C1093 1.396 . S
C1092 C1097 1.390 . S
C1093 C1087 1.465 . S
C1093 C1092 1.396 . S
C1093 C1094 1.399 . S
C1094 H1080 0.929 . S
C1094 C1093 1.399 . S
C1094 C1095 1.385 . S
C1095 H1081 0.931 . S
C1095 C1094 1.385 . S
C1095 C1096 1.389 . S
C1096 C1095 1.389 . S
C1096 C1097 1.387 . S
C1097 H1082 0.930 . S
C1097 C1092 1.390 . S
C1097 C1096 1.387 . S
H1098 C1110 0.930 . S
H1099 C1112 0.930 . S
H1100 C1113 0.930 . S
H1101 C1117 0.959 . S
H1102 C1117 0.959 . S
H1103 C1117 0.961 . S
H1104 C1118 0.960 . S
H1105 C1118 0.961 . S
H1106 C1118 0.959 . S
H1107 C1121 0.929 . S
H1108 C1122 0.931 . S
H1109 C1124 0.930 . S
C1110 H1098 0.930 . S
C1110 C1111 1.399 . S
C1110 C1115 1.399 . S
C1111 C1110 1.399 . S
C1111 C1112 1.376 . S
C1112 H1099 0.930 . S
C1112 C1111 1.376 . S
C1112 C1113 1.388 . S
C1113 H1100 0.930 . S
C1113 C1112 1.388 . S
C1113 C1114 1.390 . S
C1114 C1113 1.390 . S
C1114 C1115 1.394 . S
C1114 C1120 1.465 . S
C1115 C1110 1.399 . S
C1115 C1114 1.394 . S
C1115 C1116 1.516 . S
C1116 C1115 1.516 . S
C1116 C1117 1.502 . S
C1116 C1118 1.561 . S
C1116 C1119 1.526 . S
C1117 H1101 0.959 . S
C1117 H1102 0.959 . S
C1117 H1103 0.961 . S
C1117 C1116 1.502 . S
C1118 H1104 0.960 . S
C1118 H1105 0.961 . S
C1118 H1106 0.959 . S
C1118 C1116 1.561 . S
C1119 C1116 1.526 . S
C1119 C1120 1.396 . S
C1119 C1124 1.390 . S
C1120 C1114 1.465 . S
C1120 C1119 1.396 . S
C1120 C1121 1.399 . S
C1121 H1107 0.929 . S
C1121 C1120 1.399 . S
C1121 C1122 1.385 . S
C1122 H1108 0.931 . S
C1122 C1121 1.385 . S
C1122 C1123 1.389 . S
C1123 C1122 1.389 . S
C1123 C1124 1.387 . S
C1124 H1109 0.930 . S
C1124 C1119 1.390 . S
C1124 C1123 1.387 . S
H1125 C1137 0.930 . S
H1126 C1139 0.930 . S
H1127 C1140 0.930 . S
H1128 C1144 0.959 . S
H1129 C1144 0.959 . S
H1130 C1144 0.961 . S
H1131 C1145 0.960 . S
H1132 C1145 0.961 . S
H1133 C1145 0.959 . S
H1134 C1148 0.929 . S
H1135 C1149 0.931 . S
H1136 C1151 0.930 . S
C1137 H1125 0.930 . S
C1137 C1138 1.399 . S
C1137 C1142 1.399 . S
C1138 C1137 1.399 . S
C1138 C1139 1.376 . S
C1139 H1126 0.930 . S
C1139 C1138 1.376 . S
C1139 C1140 1.388 . S
C1140 H1127 0.930 . S
C1140 C1139 1.388 . S
C1140 C1141 1.390 . S
C1141 C1140 1.390 . S
C1141 C1142 1.394 . S
C1141 C1147 1.465 . S
C1142 C1137 1.399 . S
C1142 C1141 1.394 . S
C1142 C1143 1.516 . S
C1143 C1142 1.516 . S
C1143 C1144 1.502 . S
C1143 C1145 1.561 . S
C1143 C1146 1.526 . S
C1144 H1128 0.959 . S
C1144 H1129 0.959 . S
C1144 H1130 0.961 . S
C1144 C1143 1.502 . S
C1145 H1131 0.960 . S
C1145 H1132 0.961 . S
C1145 H1133 0.959 . S
C1145 C1143 1.561 . S
C1146 C1143 1.526 . S
C1146 C1147 1.396 . S
C1146 C1151 1.390 . S
C1147 C1141 1.465 . S
C1147 C1146 1.396 . S
C1147 C1148 1.399 . S
C1148 H1134 0.929 . S
C1148 C1147 1.399 . S
C1148 C1149 1.385 . S
C1149 H1135 0.931 . S
C1149 C1148 1.385 . S
C1149 C1150 1.389 . S
C1150 C1149 1.389 . S
C1150 C1151 1.387 . S
C1151 H1136 0.930 . S
C1151 C1146 1.390 . S
C1151 C1150 1.387 . S
H1152 C1164 0.930 . S
H1153 C1166 0.930 . S
H1154 C1167 0.930 . S
H1155 C1171 0.959 . S
H1156 C1171 0.959 . S
H1157 C1171 0.955 1_565 S
H1158 C1172 0.960 . S
H1159 C1172 0.961 1_545 S
H1160 C1172 0.959 . S
H1161 C1175 0.929 . S
H1162 C1176 0.931 . S
H1163 C1178 0.930 . S
C1164 H1152 0.930 . S
C1164 C1165 1.399 . S
C1164 C1169 1.399 . S
C1165 C1164 1.399 . S
C1165 C1166 1.376 . S
C1166 H1153 0.930 . S
C1166 C1165 1.376 . S
C1166 C1167 1.388 . S
C1167 H1154 0.930 . S
C1167 C1166 1.388 . S
C1167 C1168 1.390 . S
C1168 C1167 1.390 . S
C1168 C1169 1.394 . S
C1168 C1174 1.465 1_565 S
C1169 C1164 1.399 . S
C1169 C1168 1.394 . S
C1169 C1170 1.516 1_565 S
C1170 C1169 1.516 1_545 S
C1170 C1171 1.502 . S
C1170 C1172 1.561 1_545 S
C1170 C1173 1.526 . S
C1171 H1155 0.959 . S
C1171 H1156 0.959 . S
C1171 H1157 0.955 1_545 S
C1171 C1170 1.502 . S
C1172 H1158 0.960 . S
C1172 H1159 0.961 1_565 S
C1172 H1160 0.959 . S
C1172 C1170 1.561 1_565 S
C1173 C1170 1.526 . S
C1173 C1174 1.396 . S
C1173 C1178 1.390 . S
C1174 C1168 1.465 1_545 S
C1174 C1173 1.396 . S
C1174 C1175 1.399 . S
C1175 H1161 0.929 . S
C1175 C1174 1.399 . S
C1175 C1176 1.385 . S
C1176 H1162 0.931 . S
C1176 C1175 1.385 . S
C1176 C1177 1.389 . S
C1177 C1176 1.389 . S
C1177 C1178 1.387 . S
C1178 H1163 0.930 . S
C1178 C1173 1.390 . S
C1178 C1177 1.387 . S
H1179 C1191 0.930 . S
H1180 C1193 0.930 . S
H1181 C1194 0.930 . S
H1182 C1198 0.959 . S
H1183 C1198 0.959 1_655 S
H1184 C1198 0.961 . S
H1185 C1199 0.960 1_455 S
H1186 C1199 0.961 . S
H1187 C1199 0.959 . S
H1188 C1202 0.929 . S
H1189 C1203 0.931 . S
H1190 C1205 0.930 . S
C1191 H1179 0.930 . S
C1191 C1192 1.399 . S
C1191 C1196 1.399 . S
C1192 C1191 1.399 . S
C1192 C1193 1.376 . S
C1193 H1180 0.930 . S
C1193 C1192 1.376 . S
C1193 C1194 1.388 . S
C1194 H1181 0.930 . S
C1194 C1193 1.388 . S
C1194 C1195 1.390 . S
C1195 C1194 1.390 . S
C1195 C1196 1.394 . S
C1195 C1201 1.465 1_455 S
C1196 C1191 1.399 . S
C1196 C1195 1.394 . S
C1196 C1197 1.516 . S
C1197 C1196 1.516 . S
C1197 C1198 1.502 . S
C1197 C1199 1.561 1_455 S
C1197 C1200 1.526 1_455 S
C1198 H1182 0.959 . S
C1198 H1183 0.959 1_455 S
C1198 H1184 0.961 . S
C1198 C1197 1.502 . S
C1199 H1185 0.960 1_655 S
C1199 H1186 0.961 . S
C1199 H1187 0.959 . S
C1199 C1197 1.561 1_655 S
C1200 C1197 1.526 1_655 S
C1200 C1201 1.396 . S
C1200 C1205 1.390 . S
C1201 C1195 1.465 1_655 S
C1201 C1200 1.396 . S
C1201 C1202 1.399 . S
C1202 H1188 0.929 . S
C1202 C1201 1.399 . S
C1202 C1203 1.385 . S
C1203 H1189 0.931 . S
C1203 C1202 1.385 . S
C1203 C1204 1.389 . S
C1204 C1203 1.389 . S
C1204 C1205 1.387 . S
C1205 H1190 0.930 . S
C1205 C1200 1.390 . S
C1205 C1204 1.387 . S
H1206 C1218 0.930 . S
H1207 C1220 0.930 . S
H1208 C1221 0.930 . S
H1209 C1225 0.959 . S
H1210 C1225 0.959 . S
H1211 C1225 0.961 . S
H1212 C1226 0.960 . S
H1213 C1226 0.961 . S
H1214 C1226 0.959 . S
H1215 C1229 0.929 . S
H1216 C1230 0.931 . S
H1217 C1232 0.930 . S
C1218 H1206 0.930 . S
C1218 C1219 1.399 . S
C1218 C1223 1.399 . S
C1219 C1218 1.399 . S
C1219 C1220 1.376 . S
C1220 H1207 0.930 . S
C1220 C1219 1.376 . S
C1220 C1221 1.388 . S
C1221 H1208 0.930 . S
C1221 C1220 1.388 . S
C1221 C1222 1.390 . S
C1222 C1221 1.390 . S
C1222 C1223 1.394 . S
C1222 C1228 1.465 . S
C1223 C1218 1.399 . S
C1223 C1222 1.394 . S
C1223 C1224 1.516 . S
C1224 C1223 1.516 . S
C1224 C1225 1.502 . S
C1224 C1226 1.561 . S
C1224 C1227 1.526 . S
C1225 H1209 0.959 . S
C1225 H1210 0.959 . S
C1225 H1211 0.961 . S
C1225 C1224 1.502 . S
C1226 H1212 0.960 . S
C1226 H1213 0.961 . S
C1226 H1214 0.959 . S
C1226 C1224 1.561 . S
C1227 C1224 1.526 . S
C1227 C1228 1.396 . S
C1227 C1232 1.390 . S
C1228 C1222 1.465 . S
C1228 C1227 1.396 . S
C1228 C1229 1.399 . S
C1229 H1215 0.929 . S
C1229 C1228 1.399 . S
C1229 C1230 1.385 . S
C1230 H1216 0.931 . S
C1230 C1229 1.385 . S
C1230 C1231 1.389 . S
C1231 C1230 1.389 . S
C1231 C1232 1.387 . S
C1232 H1217 0.930 . S
C1232 C1227 1.390 . S
C1232 C1231 1.387 . S
H1233 C1245 0.930 . S
H1234 C1247 0.930 . S
H1235 C1248 0.930 . S
H1236 C1252 0.959 . S
H1237 C1252 0.959 . S
H1238 C1252 0.961 . S
H1239 C1253 0.960 . S
H1240 C1253 0.961 . S
H1241 C1253 0.959 . S
H1242 C1256 0.929 . S
H1243 C1257 0.931 . S
H1244 C1259 0.930 . S
C1245 H1233 0.930 . S
C1245 C1246 1.399 . S
C1245 C1250 1.394 1_455 S
C1246 C1245 1.399 . S
C1246 C1247 1.376 . S
C1247 H1234 0.930 . S
C1247 C1246 1.376 . S
C1247 C1248 1.388 . S
C1248 H1235 0.930 . S
C1248 C1247 1.388 . S
C1248 C1249 1.390 1_455 S
C1249 C1248 1.390 1_655 S
C1249 C1250 1.396 . S
C1249 C1255 1.465 . S
C1250 C1245 1.394 1_655 S
C1250 C1249 1.396 . S
C1250 C1251 1.520 . S
C1251 C1250 1.520 . S
C1251 C1252 1.502 . S
C1251 C1253 1.561 . S
C1251 C1254 1.526 . S
C1252 H1236 0.959 . S
C1252 H1237 0.959 . S
C1252 H1238 0.961 . S
C1252 C1251 1.502 . S
C1253 H1239 0.960 . S
C1253 H1240 0.961 . S
C1253 H1241 0.959 . S
C1253 C1251 1.561 . S
C1254 C1251 1.526 . S
C1254 C1255 1.396 . S
C1254 C1259 1.390 . S
C1255 C1249 1.465 . S
C1255 C1254 1.396 . S
C1255 C1256 1.399 . S
C1256 H1242 0.929 . S
C1256 C1255 1.399 . S
C1256 C1257 1.385 . S
C1257 H1243 0.931 . S
C1257 C1256 1.385 . S
C1257 C1258 1.389 . S
C1258 C1257 1.389 . S
C1258 C1259 1.387 . S
C1259 H1244 0.930 . S
C1259 C1254 1.390 . S
C1259 C1258 1.387 . S
H1260 C1272 0.930 . S
H1261 C1274 0.930 . S
H1262 C1275 0.930 . S
H1263 C1279 0.959 . S
H1264 C1279 0.959 . S
H1265 C1279 0.961 . S
H1266 C1280 0.960 . S
H1267 C1280 0.961 . S
H1268 C1280 0.959 . S
H1269 C1283 0.929 . S
H1270 C1284 0.931 . S
H1271 C1286 0.930 . S
C1272 H1260 0.930 . S
C1272 C1273 1.399 . S
C1272 C1277 1.399 . S
C1273 C1272 1.399 . S
C1273 C1274 1.376 . S
C1274 H1261 0.930 . S
C1274 C1273 1.376 . S
C1274 C1275 1.388 . S
C1275 H1262 0.930 . S
C1275 C1274 1.388 . S
C1275 C1276 1.390 . S
C1276 C1275 1.390 . S
C1276 C1277 1.394 . S
C1276 C1282 1.465 . S
C1277 C1272 1.399 . S
C1277 C1276 1.394 . S
C1277 C1278 1.516 . S
C1278 C1277 1.516 . S
C1278 C1279 1.502 . S
C1278 C1280 1.561 . S
C1278 C1281 1.526 . S
C1279 H1263 0.959 . S
C1279 H1264 0.959 . S
C1279 H1265 0.961 . S
C1279 C1278 1.502 . S
C1280 H1266 0.960 . S
C1280 H1267 0.961 . S
C1280 H1268 0.959 . S
C1280 C1278 1.561 . S
C1281 C1278 1.526 . S
C1281 C1282 1.396 . S
C1281 C1286 1.390 . S
C1282 C1276 1.465 . S
C1282 C1281 1.396 . S
C1282 C1283 1.399 . S
C1283 H1269 0.929 . S
C1283 C1282 1.399 . S
C1283 C1284 1.385 . S
C1284 H1270 0.931 . S
C1284 C1283 1.385 . S
C1284 C1285 1.389 . S
C1285 C1284 1.389 . S
C1285 C1286 1.387 . S
C1286 H1271 0.930 . S
C1286 C1281 1.390 . S
C1286 C1285 1.387 . S
H1287 C1299 0.930 . S
H1288 C1301 0.930 . S
H1289 C1302 0.930 . S
H1290 C1306 0.959 . S
H1291 C1306 0.959 . S
H1292 C1306 0.961 . S
H1293 C1307 0.960 . S
H1294 C1307 0.961 . S
H1295 C1307 0.959 . S
H1296 C1310 0.929 . S
H1297 C1311 0.931 . S
H1298 C1313 0.930 . S
C1299 H1287 0.930 . S
C1299 C1300 1.399 . S
C1299 C1304 1.399 1_565 S
C1300 C1299 1.399 . S
C1300 C1301 1.376 . S
C1301 H1288 0.930 . S
C1301 C1300 1.376 . S
C1301 C1302 1.388 1_565 S
C1302 H1289 0.930 . S
C1302 C1301 1.388 1_545 S
C1302 C1303 1.390 . S
C1303 C1302 1.390 . S
C1303 C1304 1.394 . S
C1303 C1309 1.465 . S
C1304 C1299 1.399 1_545 S
C1304 C1303 1.394 . S
C1304 C1305 1.516 . S
C1305 C1304 1.516 . S
C1305 C1306 1.502 . S
C1305 C1307 1.561 . S
C1305 C1308 1.526 . S
C1306 H1290 0.959 . S
C1306 H1291 0.959 . S
C1306 H1292 0.961 . S
C1306 C1305 1.502 . S
C1307 H1293 0.960 . S
C1307 H1294 0.961 . S
C1307 H1295 0.959 . S
C1307 C1305 1.561 . S
C1308 C1305 1.526 . S
C1308 C1309 1.396 . S
C1308 C1313 1.390 . S
C1309 C1303 1.465 . S
C1309 C1308 1.396 . S
C1309 C1310 1.399 . S
C1310 H1296 0.929 . S
C1310 C1309 1.399 . S
C1310 C1311 1.385 . S
C1311 H1297 0.931 . S
C1311 C1310 1.385 . S
C1311 C1312 1.389 . S
C1312 C1311 1.389 . S
C1312 C1313 1.387 . S
C1313 H1298 0.930 . S
C1313 C1308 1.390 . S
C1313 C1312 1.387 . S
H1314 C1326 0.930 . S
H1315 C1328 0.930 . S
H1316 C1329 0.930 . S
H1317 C1333 0.959 . S
H1318 C1333 0.959 . S
H1319 C1333 0.961 . S
H1320 C1334 0.960 . S
H1321 C1334 0.961 . S
H1322 C1334 0.959 . S
H1323 C1337 0.929 . S
H1324 C1338 0.931 . S
H1325 C1340 0.930 . S
C1326 H1314 0.930 . S
C1326 C1327 1.399 . S
C1326 C1331 1.399 . S
C1327 C1326 1.399 . S
C1327 C1328 1.376 . S
C1328 H1315 0.930 . S
C1328 C1327 1.376 . S
C1328 C1329 1.388 . S
C1329 H1316 0.930 . S
C1329 C1328 1.388 . S
C1329 C1330 1.390 . S
C1330 C1329 1.390 . S
C1330 C1331 1.394 . S
C1330 C1336 1.465 . S
C1331 C1326 1.399 . S
C1331 C1330 1.394 . S
C1331 C1332 1.516 . S
C1332 C1331 1.516 . S
C1332 C1333 1.502 . S
C1332 C1334 1.561 . S
C1332 C1335 1.526 . S
C1333 H1317 0.959 . S
C1333 H1318 0.959 . S
C1333 H1319 0.961 . S
C1333 C1332 1.502 . S
C1334 H1320 0.960 . S
C1334 H1321 0.961 . S
C1334 H1322 0.959 . S
C1334 C1332 1.561 . S
C1335 C1332 1.526 . S
C1335 C1336 1.396 . S
C1335 C1340 1.390 . S
C1336 C1330 1.465 . S
C1336 C1335 1.396 . S
C1336 C1337 1.399 . S
C1337 H1323 0.929 . S
C1337 C1336 1.399 . S
C1337 C1338 1.385 . S
C1338 H1324 0.931 . S
C1338 C1337 1.385 . S
C1338 C1339 1.389 . S
C1339 C1338 1.389 . S
C1339 C1340 1.387 . S
C1340 H1325 0.930 . S
C1340 C1335 1.390 . S
C1340 C1339 1.387 . S
H1341 C1353 0.930 . S
H1342 C1355 0.930 . S
H1343 C1356 0.930 . S
H1344 C1360 0.959 . S
H1345 C1360 0.959 . S
H1346 C1360 0.961 . S
H1347 C1361 0.960 . S
H1348 C1361 0.961 . S
H1349 C1361 0.959 . S
H1350 C1364 0.929 . S
H1351 C1365 0.931 . S
H1352 C1367 0.930 . S
C1353 H1341 0.930 . S
C1353 C1354 1.399 . S
C1353 C1358 1.399 . S
C1354 C1353 1.399 . S
C1354 C1355 1.376 . S
C1355 H1342 0.930 . S
C1355 C1354 1.376 . S
C1355 C1356 1.388 . S
C1356 H1343 0.930 . S
C1356 C1355 1.388 . S
C1356 C1357 1.390 . S
C1357 C1356 1.390 . S
C1357 C1358 1.394 . S
C1357 C1363 1.465 . S
C1358 C1353 1.399 . S
C1358 C1357 1.394 . S
C1358 C1359 1.516 . S
C1359 C1358 1.516 . S
C1359 C1360 1.502 . S
C1359 C1361 1.561 . S
C1359 C1362 1.526 . S
C1360 H1344 0.959 . S
C1360 H1345 0.959 . S
C1360 H1346 0.961 . S
C1360 C1359 1.502 . S
C1361 H1347 0.960 . S
C1361 H1348 0.961 . S
C1361 H1349 0.959 . S
C1361 C1359 1.561 . S
C1362 C1359 1.526 . S
C1362 C1363 1.396 . S
C1362 C1367 1.390 . S
C1363 C1357 1.465 . S
C1363 C1362 1.396 . S
C1363 C1364 1.399 . S
C1364 H1350 0.929 . S
C1364 C1363 1.399 . S
C1364 C1365 1.385 . S
C1365 H1351 0.931 . S
C1365 C1364 1.385 . S
C1365 C1366 1.389 . S
C1366 C1365 1.389 . S
C1366 C1367 1.387 . S
C1367 H1352 0.930 . S
C1367 C1362 1.390 . S
C1367 C1366 1.387 . S
H1368 C1380 0.930 . S
H1369 C1382 0.930 . S
H1370 C1383 0.930 . S
H1371 C1387 0.959 . S
H1372 C1387 0.959 . S
H1373 C1387 0.961 . S
H1374 C1388 0.960 . S
H1375 C1388 0.961 . S
H1376 C1388 0.959 . S
H1377 C1391 0.929 . S
H1378 C1392 0.931 . S
H1379 C1394 0.930 . S
C1380 H1368 0.930 . S
C1380 C1381 1.399 . S
C1380 C1385 1.399 . S
C1381 C1380 1.399 . S
C1381 C1382 1.376 . S
C1382 H1369 0.930 . S
C1382 C1381 1.376 . S
C1382 C1383 1.388 . S
C1383 H1370 0.930 . S
C1383 C1382 1.388 . S
C1383 C1384 1.390 . S
C1384 C1383 1.390 . S
C1384 C1385 1.394 . S
C1384 C1390 1.465 . S
C1385 C1380 1.399 . S
C1385 C1384 1.394 . S
C1385 C1386 1.516 . S
C1386 C1385 1.516 . S
C1386 C1387 1.502 . S
C1386 C1388 1.561 . S
C1386 C1389 1.526 . S
C1387 H1371 0.959 . S
C1387 H1372 0.959 . S
C1387 H1373 0.961 . S
C1387 C1386 1.502 . S
C1388 H1374 0.960 . S
C1388 H1375 0.961 . S
C1388 H1376 0.959 . S
C1388 C1386 1.561 . S
C1389 C1386 1.526 . S
C1389 C1390 1.396 . S
C1389 C1394 1.390 . S
C1390 C1384 1.465 . S
C1390 C1389 1.396 . S
C1390 C1391 1.399 . S
C1391 H1377 0.929 . S
C1391 C1390 1.399 . S
C1391 C1392 1.385 . S
C1392 H1378 0.931 . S
C1392 C1391 1.385 . S
C1392 C1393 1.389 . S
C1393 C1392 1.389 . S
C1393 C1394 1.387 . S
C1394 H1379 0.930 . S
C1394 C1389 1.390 . S
C1394 C1393 1.387 . S
H1395 C1407 0.930 . S
H1396 C1409 0.930 . S
H1397 C1410 0.930 . S
H1398 C1414 0.959 . S
H1399 C1414 0.959 . S
H1400 C1414 0.961 . S
H1401 C1415 0.960 . S
H1402 C1415 0.961 . S
H1403 C1415 0.959 . S
H1404 C1418 0.929 1_545 S
H1405 C1419 0.945 . S
H1406 C1421 0.930 . S
C1407 H1395 0.930 . S
C1407 C1408 1.399 . S
C1407 C1412 1.399 . S
C1408 C1407 1.399 . S
C1408 C1409 1.376 . S
C1409 H1396 0.930 . S
C1409 C1408 1.376 . S
C1409 C1410 1.388 . S
C1410 H1397 0.930 . S
C1410 C1409 1.388 . S
C1410 C1411 1.390 . S
C1411 C1410 1.390 . S
C1411 C1412 1.394 . S
C1411 C1417 1.465 . S
C1412 C1407 1.399 . S
C1412 C1411 1.394 . S
C1412 C1413 1.516 . S
C1413 C1412 1.516 . S
C1413 C1414 1.502 . S
C1413 C1415 1.561 . S
C1413 C1416 1.526 . S
C1414 H1398 0.959 . S
C1414 H1399 0.959 . S
C1414 H1400 0.961 . S
C1414 C1413 1.502 . S
C1415 H1401 0.960 . S
C1415 H1402 0.961 . S
C1415 H1403 0.959 . S
C1415 C1413 1.561 . S
C1416 C1413 1.526 . S
C1416 C1417 1.396 . S
C1416 C1421 1.390 . S
C1417 C1411 1.465 . S
C1417 C1416 1.396 . S
C1417 C1418 1.399 . S
C1418 H1404 0.929 1_565 S
C1418 C1417 1.399 . S
C1418 C1419 1.382 1_565 S
C1419 H1405 0.945 . S
C1419 C1418 1.382 1_545 S
C1419 C1420 1.378 1_545 S
C1420 C1419 1.378 1_565 S
C1420 C1421 1.387 . S
C1421 H1406 0.930 . S
C1421 C1416 1.390 . S
C1421 C1420 1.387 . S
H1422 C1434 0.930 . S
H1423 C1436 0.930 . S
H1424 C1437 0.930 . S
H1425 C1441 0.959 . S
H1426 C1441 0.959 . S
H1427 C1441 0.961 . S
H1428 C1442 0.960 . S
H1429 C1442 0.961 . S
H1430 C1442 0.959 . S
H1431 C1445 0.929 . S
H1432 C1446 0.931 . S
H1433 C1448 0.930 . S
C1434 H1422 0.930 . S
C1434 C1435 1.399 . S
C1434 C1439 1.399 . S
C1435 C1434 1.399 . S
C1435 C1436 1.376 . S
C1436 H1423 0.930 . S
C1436 C1435 1.376 . S
C1436 C1437 1.388 . S
C1437 H1424 0.930 . S
C1437 C1436 1.388 . S
C1437 C1438 1.390 . S
C1438 C1437 1.390 . S
C1438 C1439 1.394 . S
C1438 C1444 1.465 . S
C1439 C1434 1.399 . S
C1439 C1438 1.394 . S
C1439 C1440 1.516 . S
C1440 C1439 1.516 . S
C1440 C1441 1.502 . S
C1440 C1442 1.561 . S
C1440 C1443 1.526 . S
C1441 H1425 0.959 . S
C1441 H1426 0.959 . S
C1441 H1427 0.961 . S
C1441 C1440 1.502 . S
C1442 H1428 0.960 . S
C1442 H1429 0.961 . S
C1442 H1430 0.959 . S
C1442 C1440 1.561 . S
C1443 C1440 1.526 . S
C1443 C1444 1.396 . S
C1443 C1448 1.390 . S
C1444 C1438 1.465 . S
C1444 C1443 1.396 . S
C1444 C1445 1.399 . S
C1445 H1431 0.929 . S
C1445 C1444 1.399 . S
C1445 C1446 1.385 . S
C1446 H1432 0.931 . S
C1446 C1445 1.385 . S
C1446 C1447 1.389 . S
C1447 C1446 1.389 . S
C1447 C1448 1.387 . S
C1448 H1433 0.930 . S
C1448 C1443 1.390 . S
C1448 C1447 1.387 . S
H1449 C1461 0.930 . S
H1450 C1463 0.930 . S
H1451 C1464 0.930 . S
H1452 C1468 0.959 . S
H1453 C1468 0.959 . S
H1454 C1468 0.961 . S
H1455 C1469 0.960 . S
H1456 C1469 0.961 . S
H1457 C1469 0.959 . S
H1458 C1472 0.929 . S
H1459 C1473 0.931 . S
H1460 C1475 0.930 . S
C1461 H1449 0.930 . S
C1461 C1462 1.399 . S
C1461 C1466 1.399 . S
C1462 C1461 1.399 . S
C1462 C1463 1.376 . S
C1463 H1450 0.930 . S
C1463 C1462 1.376 . S
C1463 C1464 1.388 . S
C1464 H1451 0.930 . S
C1464 C1463 1.388 . S
C1464 C1465 1.390 . S
C1465 C1464 1.390 . S
C1465 C1466 1.394 . S
C1465 C1471 1.465 . S
C1466 C1461 1.399 . S
C1466 C1465 1.394 . S
C1466 C1467 1.516 . S
C1467 C1466 1.516 . S
C1467 C1468 1.502 . S
C1467 C1469 1.561 . S
C1467 C1470 1.526 . S
C1468 H1452 0.959 . S
C1468 H1453 0.959 . S
C1468 H1454 0.961 . S
C1468 C1467 1.502 . S
C1469 H1455 0.960 . S
C1469 H1456 0.961 . S
C1469 H1457 0.959 . S
C1469 C1467 1.561 . S
C1470 C1467 1.526 . S
C1470 C1471 1.396 . S
C1470 C1475 1.390 . S
C1471 C1465 1.465 . S
C1471 C1470 1.396 . S
C1471 C1472 1.399 . S
C1472 H1458 0.929 . S
C1472 C1471 1.399 . S
C1472 C1473 1.385 . S
C1473 H1459 0.931 . S
C1473 C1472 1.385 . S
C1473 C1474 1.389 . S
C1474 C1473 1.389 . S
C1474 C1475 1.387 . S
C1475 H1460 0.930 . S
C1475 C1470 1.390 . S
C1475 C1474 1.387 . S
H1476 C1488 0.930 . S
H1477 C1490 0.930 . S
H1478 C1491 0.930 . S
H1479 C1495 0.959 . S
H1480 C1495 0.959 . S
H1481 C1495 0.961 . S
H1482 C1496 0.960 . S
H1483 C1496 0.961 . S
H1484 C1496 0.959 . S
H1485 C1499 0.929 1_455 S
H1486 C1500 0.931 . S
H1487 C1502 0.930 . S
C1488 H1476 0.930 . S
C1488 C1489 1.399 . S
C1488 C1493 1.399 . S
C1489 C1488 1.399 . S
C1489 C1490 1.376 . S
C1490 H1477 0.930 . S
C1490 C1489 1.376 . S
C1490 C1491 1.388 . S
C1491 H1478 0.930 . S
C1491 C1490 1.388 . S
C1491 C1492 1.390 . S
C1492 C1491 1.390 . S
C1492 C1493 1.394 . S
C1492 C1498 1.465 . S
C1493 C1488 1.399 . S
C1493 C1492 1.394 . S
C1493 C1494 1.516 . S
C1494 C1493 1.516 . S
C1494 C1495 1.502 . S
C1494 C1496 1.561 . S
C1494 C1497 1.526 . S
C1495 H1479 0.959 . S
C1495 H1480 0.959 . S
C1495 H1481 0.961 . S
C1495 C1494 1.502 . S
C1496 H1482 0.960 . S
C1496 H1483 0.961 . S
C1496 H1484 0.959 . S
C1496 C1494 1.561 . S
C1497 C1494 1.526 . S
C1497 C1498 1.396 . S
C1497 C1502 1.390 . S
C1498 C1492 1.465 . S
C1498 C1497 1.396 . S
C1498 C1499 1.399 . S
C1499 H1485 0.929 1_655 S
C1499 C1498 1.399 . S
C1499 C1500 1.385 1_655 S
C1500 H1486 0.931 . S
C1500 C1499 1.385 1_455 S
C1500 C1501 1.389 1_455 S
C1501 C1500 1.389 1_655 S
C1501 C1502 1.387 . S
C1502 H1487 0.930 . S
C1502 C1497 1.390 . S
C1502 C1501 1.387 . S
H1503 C1515 0.930 . S
H1504 C1517 0.930 . S
H1505 C1518 0.930 . S
H1506 C1522 0.959 . S
H1507 C1522 0.959 . S
H1508 C1522 0.961 . S
H1509 C1523 0.960 . S
H1510 C1523 0.961 . S
H1511 C1523 0.959 . S
H1512 C1526 0.929 . S
H1513 C1527 0.931 . S
H1514 C1529 0.930 . S
C1515 H1503 0.930 . S
C1515 C1516 1.399 . S
C1515 C1520 1.399 . S
C1516 C1515 1.399 . S
C1516 C1517 1.376 . S
C1517 H1504 0.930 . S
C1517 C1516 1.376 . S
C1517 C1518 1.388 . S
C1518 H1505 0.930 . S
C1518 C1517 1.388 . S
C1518 C1519 1.390 . S
C1519 C1518 1.390 . S
C1519 C1520 1.394 . S
C1519 C1525 1.465 . S
C1520 C1515 1.399 . S
C1520 C1519 1.394 . S
C1520 C1521 1.516 . S
C1521 C1520 1.516 . S
C1521 C1522 1.502 . S
C1521 C1523 1.561 . S
C1521 C1524 1.526 . S
C1522 H1506 0.959 . S
C1522 H1507 0.959 . S
C1522 H1508 0.961 . S
C1522 C1521 1.502 . S
C1523 H1509 0.960 . S
C1523 H1510 0.961 . S
C1523 H1511 0.959 . S
C1523 C1521 1.561 . S
C1524 C1521 1.526 . S
C1524 C1525 1.396 . S
C1524 C1529 1.390 . S
C1525 C1519 1.465 . S
C1525 C1524 1.396 . S
C1525 C1526 1.399 . S
C1526 H1512 0.929 . S
C1526 C1525 1.399 . S
C1526 C1527 1.385 . S
C1527 H1513 0.931 . S
C1527 C1526 1.385 . S
C1527 C1528 1.389 . S
C1528 C1527 1.389 . S
C1528 C1529 1.387 . S
C1529 H1514 0.930 . S
C1529 C1524 1.390 . S
C1529 C1528 1.387 . S
H1530 C1542 0.930 . S
H1531 C1544 0.930 . S
H1532 C1545 0.930 . S
H1533 C1549 0.959 . S
H1534 C1549 0.959 . S
H1535 C1549 0.961 . S
H1536 C1550 0.960 . S
H1537 C1550 0.961 . S
H1538 C1550 0.959 . S
H1539 C1553 0.929 1_565 S
H1540 C1554 0.931 1_565 S
H1541 C1556 0.930 . S
C1542 H1530 0.930 . S
C1542 C1543 1.399 . S
C1542 C1547 1.399 . S
C1543 C1542 1.399 . S
C1543 C1544 1.376 . S
C1544 H1531 0.930 . S
C1544 C1543 1.376 . S
C1544 C1545 1.388 . S
C1545 H1532 0.930 . S
C1545 C1544 1.388 . S
C1545 C1546 1.390 . S
C1546 C1545 1.390 . S
C1546 C1547 1.394 . S
C1546 C1552 1.465 . S
C1547 C1542 1.399 . S
C1547 C1546 1.394 . S
C1547 C1548 1.516 . S
C1548 C1547 1.516 . S
C1548 C1549 1.502 . S
C1548 C1550 1.561 . S
C1548 C1551 1.526 . S
C1549 H1533 0.959 . S
C1549 H1534 0.959 . S
C1549 H1535 0.961 . S
C1549 C1548 1.502 . S
C1550 H1536 0.960 . S
C1550 H1537 0.961 . S
C1550 H1538 0.959 . S
C1550 C1548 1.561 . S
C1551 C1548 1.526 . S
C1551 C1552 1.396 . S
C1551 C1556 1.390 . S
C1552 C1546 1.465 . S
C1552 C1551 1.396 . S
C1552 C1553 1.399 . S
C1553 H1539 0.929 1_545 S
C1553 C1552 1.399 . S
C1553 C1554 1.385 . S
C1554 H1540 0.931 1_545 S
C1554 C1553 1.385 . S
C1554 C1555 1.389 . S
C1555 C1554 1.389 . S
C1555 C1556 1.387 . S
C1556 H1541 0.930 . S
C1556 C1551 1.390 . S
C1556 C1555 1.387 . S
H1557 C1569 0.930 . S
H1558 C1571 0.930 . S
H1559 C1572 0.930 . S
H1560 C1576 0.959 . S
H1561 C1576 0.959 . S
H1562 C1576 0.961 . S
H1563 C1577 0.960 . S
H1564 C1577 0.961 . S
H1565 C1577 0.959 . S
H1566 C1580 0.929 . S
H1567 C1581 0.931 . S
H1568 C1583 0.930 . S
C1569 H1557 0.930 . S
C1569 C1570 1.399 . S
C1569 C1574 1.399 . S
C1570 C1569 1.399 . S
C1570 C1571 1.376 . S
C1571 H1558 0.930 . S
C1571 C1570 1.376 . S
C1571 C1572 1.388 . S
C1572 H1559 0.930 . S
C1572 C1571 1.388 . S
C1572 C1573 1.390 . S
C1573 C1572 1.390 . S
C1573 C1574 1.394 . S
C1573 C1579 1.465 . S
C1574 C1569 1.399 . S
C1574 C1573 1.394 . S
C1574 C1575 1.516 . S
C1575 C1574 1.516 . S
C1575 C1576 1.502 . S
C1575 C1577 1.561 . S
C1575 C1578 1.526 . S
C1576 H1560 0.959 . S
C1576 H1561 0.959 . S
C1576 H1562 0.961 . S
C1576 C1575 1.502 . S
C1577 H1563 0.960 . S
C1577 H1564 0.961 . S
C1577 H1565 0.959 . S
C1577 C1575 1.561 . S
C1578 C1575 1.526 . S
C1578 C1579 1.396 . S
C1578 C1583 1.390 . S
C1579 C1573 1.465 . S
C1579 C1578 1.396 . S
C1579 C1580 1.399 . S
C1580 H1566 0.929 . S
C1580 C1579 1.399 . S
C1580 C1581 1.385 . S
C1581 H1567 0.931 . S
C1581 C1580 1.385 . S
C1581 C1582 1.389 . S
C1582 C1581 1.389 . S
C1582 C1583 1.387 . S
C1583 H1568 0.930 . S
C1583 C1578 1.390 . S
C1583 C1582 1.387 . S
H1584 C1596 0.930 . S
H1585 C1598 0.930 . S
H1586 C1599 0.930 . S
H1587 C1603 0.959 . S
H1588 C1603 0.959 . S
H1589 C1603 0.961 . S
H1590 C1604 0.960 . S
H1591 C1604 0.961 . S
H1592 C1604 0.959 . S
H1593 C1607 0.929 . S
H1594 C1608 0.931 . S
H1595 C1610 0.930 . S
C1596 H1584 0.930 . S
C1596 C1597 1.399 . S
C1596 C1601 1.399 . S
C1597 C1596 1.399 . S
C1597 C1598 1.376 . S
C1598 H1585 0.930 . S
C1598 C1597 1.376 . S
C1598 C1599 1.388 . S
C1599 H1586 0.930 . S
C1599 C1598 1.388 . S
C1599 C1600 1.390 . S
C1600 C1599 1.390 . S
C1600 C1601 1.394 . S
C1600 C1606 1.465 . S
C1601 C1596 1.399 . S
C1601 C1600 1.394 . S
C1601 C1602 1.516 . S
C1602 C1601 1.516 . S
C1602 C1603 1.502 . S
C1602 C1604 1.561 . S
C1602 C1605 1.526 . S
C1603 H1587 0.959 . S
C1603 H1588 0.959 . S
C1603 H1589 0.961 . S
C1603 C1602 1.502 . S
C1604 H1590 0.960 . S
C1604 H1591 0.961 . S
C1604 H1592 0.959 . S
C1604 C1602 1.561 . S
C1605 C1602 1.526 . S
C1605 C1606 1.396 . S
C1605 C1610 1.390 . S
C1606 C1600 1.465 . S
C1606 C1605 1.396 . S
C1606 C1607 1.399 . S
C1607 H1593 0.929 . S
C1607 C1606 1.399 . S
C1607 C1608 1.385 . S
C1608 H1594 0.931 . S
C1608 C1607 1.385 . S
C1608 C1609 1.389 . S
C1609 C1608 1.389 . S
C1609 C1610 1.387 . S
C1610 H1595 0.930 . S
C1610 C1605 1.390 . S
C1610 C1609 1.387 . S
H1611 C1623 0.930 . S
H1612 C1625 0.930 . S
H1613 C1626 0.930 . S
H1614 C1630 0.959 . S
H1615 C1630 0.959 . S
H1616 C1630 0.961 . S
H1617 C1631 0.960 . S
H1618 C1631 0.961 . S
H1619 C1631 0.959 . S
H1620 C1634 0.929 . S
H1621 C1635 0.931 . S
H1622 C1637 0.930 . S
C1623 H1611 0.930 . S
C1623 C1624 1.399 . S
C1623 C1628 1.399 . S
C1624 C1623 1.399 . S
C1624 C1625 1.376 . S
C1625 H1612 0.930 . S
C1625 C1624 1.376 . S
C1625 C1626 1.388 . S
C1626 H1613 0.930 . S
C1626 C1625 1.388 . S
C1626 C1627 1.390 . S
C1627 C1626 1.390 . S
C1627 C1628 1.394 . S
C1627 C1633 1.465 . S
C1628 C1623 1.399 . S
C1628 C1627 1.394 . S
C1628 C1629 1.516 . S
C1629 C1628 1.516 . S
C1629 C1630 1.502 . S
C1629 C1631 1.561 . S
C1629 C1632 1.526 . S
C1630 H1614 0.959 . S
C1630 H1615 0.959 . S
C1630 H1616 0.961 . S
C1630 C1629 1.502 . S
C1631 H1617 0.960 . S
C1631 H1618 0.961 . S
C1631 H1619 0.959 . S
C1631 C1629 1.561 . S
C1632 C1629 1.526 . S
C1632 C1633 1.396 . S
C1632 C1637 1.390 . S
C1633 C1627 1.465 . S
C1633 C1632 1.396 . S
C1633 C1634 1.399 . S
C1634 H1620 0.929 . S
C1634 C1633 1.399 . S
C1634 C1635 1.385 . S
C1635 H1621 0.931 . S
C1635 C1634 1.385 . S
C1635 C1636 1.389 . S
C1636 C1635 1.389 . S
C1636 C1637 1.387 . S
C1637 H1622 0.930 . S
C1637 C1632 1.390 . S
C1637 C1636 1.387 . S
H1638 C1650 0.930 . S
H1639 C1652 0.930 . S
H1640 C1653 0.930 . S
H1641 C1657 0.959 . S
H1642 C1657 0.959 . S
H1643 C1657 0.961 . S
H1644 C1658 0.960 . S
H1645 C1658 0.961 . S
H1646 C1658 0.959 . S
H1647 C1661 0.929 . S
H1648 C1662 0.931 . S
H1649 C1664 0.930 . S
C1650 H1638 0.930 . S
C1650 C1651 1.399 . S
C1650 C1655 1.399 . S
C1651 C1650 1.399 . S
C1651 C1652 1.376 . S
C1652 H1639 0.930 . S
C1652 C1651 1.376 . S
C1652 C1653 1.388 . S
C1653 H1640 0.930 . S
C1653 C1652 1.388 . S
C1653 C1654 1.390 . S
C1654 C1653 1.390 . S
C1654 C1655 1.394 . S
C1654 C1660 1.465 . S
C1655 C1650 1.399 . S
C1655 C1654 1.394 . S
C1655 C1656 1.516 . S
C1656 C1655 1.516 . S
C1656 C1657 1.502 . S
C1656 C1658 1.561 . S
C1656 C1659 1.526 . S
C1657 H1641 0.959 . S
C1657 H1642 0.959 . S
C1657 H1643 0.961 . S
C1657 C1656 1.502 . S
C1658 H1644 0.960 . S
C1658 H1645 0.961 . S
C1658 H1646 0.959 . S
C1658 C1656 1.561 . S
C1659 C1656 1.526 . S
C1659 C1660 1.396 . S
C1659 C1664 1.390 . S
C1660 C1654 1.465 . S
C1660 C1659 1.396 . S
C1660 C1661 1.399 . S
C1661 H1647 0.929 . S
C1661 C1660 1.399 . S
C1661 C1662 1.385 . S
C1662 H1648 0.931 . S
C1662 C1661 1.385 . S
C1662 C1663 1.389 . S
C1663 C1662 1.389 . S
C1663 C1664 1.387 . S
C1664 H1649 0.930 . S
C1664 C1659 1.390 . S
C1664 C1663 1.387 . S
H1665 C1677 0.930 . S
H1666 C1679 0.930 . S
H1667 C1680 0.930 . S
H1668 C1684 0.959 . S
H1669 C1684 0.959 . S
H1670 C1684 0.961 . S
H1671 C1685 0.960 . S
H1672 C1685 0.961 . S
H1673 C1685 0.959 . S
H1674 C1688 0.929 . S
H1675 C1689 0.931 . S
H1676 C1691 0.930 . S
C1677 H1665 0.930 . S
C1677 C1678 1.399 . S
C1677 C1682 1.399 . S
C1678 C1677 1.399 . S
C1678 C1679 1.376 . S
C1679 H1666 0.930 . S
C1679 C1678 1.376 . S
C1679 C1680 1.388 . S
C1680 H1667 0.930 . S
C1680 C1679 1.388 . S
C1680 C1681 1.390 . S
C1681 C1680 1.390 . S
C1681 C1682 1.394 . S
C1681 C1687 1.465 . S
C1682 C1677 1.399 . S
C1682 C1681 1.394 . S
C1682 C1683 1.516 . S
C1683 C1682 1.516 . S
C1683 C1684 1.502 . S
C1683 C1685 1.561 . S
C1683 C1686 1.526 . S
C1684 H1668 0.959 . S
C1684 H1669 0.959 . S
C1684 H1670 0.961 . S
C1684 C1683 1.502 . S
C1685 H1671 0.960 . S
C1685 H1672 0.961 . S
C1685 H1673 0.959 . S
C1685 C1683 1.561 . S
C1686 C1683 1.526 . S
C1686 C1687 1.396 . S
C1686 C1691 1.390 . S
C1687 C1681 1.465 . S
C1687 C1686 1.396 . S
C1687 C1688 1.399 . S
C1688 H1674 0.929 . S
C1688 C1687 1.399 . S
C1688 C1689 1.385 . S
C1689 H1675 0.931 . S
C1689 C1688 1.385 . S
C1689 C1690 1.389 . S
C1690 C1689 1.389 . S
C1690 C1691 1.387 . S
C1691 H1676 0.930 . S
C1691 C1686 1.390 . S
C1691 C1690 1.387 . S
H1692 C1704 0.930 . S
H1693 C1706 0.930 . S
H1694 C1707 0.930 . S
H1695 C1711 0.959 . S
H1696 C1711 0.959 . S
H1697 C1711 0.961 . S
H1698 C1712 0.960 . S
H1699 C1712 0.961 . S
H1700 C1712 0.959 . S
H1701 C1715 0.929 . S
H1702 C1716 0.931 . S
H1703 C1718 0.930 . S
C1704 H1692 0.930 . S
C1704 C1705 1.399 . S
C1704 C1709 1.399 . S
C1705 C1704 1.399 . S
C1705 C1706 1.376 . S
C1706 H1693 0.930 . S
C1706 C1705 1.376 . S
C1706 C1707 1.388 . S
C1707 H1694 0.930 . S
C1707 C1706 1.388 . S
C1707 C1708 1.390 . S
C1708 C1707 1.390 . S
C1708 C1709 1.394 . S
C1708 C1714 1.465 . S
C1709 C1704 1.399 . S
C1709 C1708 1.394 . S
C1709 C1710 1.516 . S
C1710 C1709 1.516 . S
C1710 C1711 1.502 . S
C1710 C1712 1.561 . S
C1710 C1713 1.526 . S
C1711 H1695 0.959 . S
C1711 H1696 0.959 . S
C1711 H1697 0.961 . S
C1711 C1710 1.502 . S
C1712 H1698 0.960 . S
C1712 H1699 0.961 . S
C1712 H1700 0.959 . S
C1712 C1710 1.561 . S
C1713 C1710 1.526 . S
C1713 C1714 1.396 . S
C1713 C1718 1.390 . S
C1714 C1708 1.465 . S
C1714 C1713 1.396 . S
C1714 C1715 1.399 . S
C1715 H1701 0.929 . S
C1715 C1714 1.399 . S
C1715 C1716 1.385 . S
C1716 H1702 0.931 . S
C1716 C1715 1.385 . S
C1716 C1717 1.389 . S
C1717 C1716 1.389 . S
C1717 C1718 1.387 . S
C1718 H1703 0.930 . S
C1718 C1713 1.390 . S
C1718 C1717 1.387 . S
H1719 C1731 0.930 . S
H1720 C1733 0.930 . S
H1721 C1734 0.930 . S
H1722 C1738 0.959 . S
H1723 C1738 0.959 . S
H1724 C1738 0.961 . S
H1725 C1739 0.960 . S
H1726 C1739 0.961 . S
H1727 C1739 0.959 . S
H1728 C1742 0.929 . S
H1729 C1743 0.931 . S
H1730 C1745 0.930 . S
C1731 H1719 0.930 . S
C1731 C1732 1.399 . S
C1731 C1736 1.399 . S
C1732 C1731 1.399 . S
C1732 C1733 1.376 . S
C1733 H1720 0.930 . S
C1733 C1732 1.376 . S
C1733 C1734 1.388 . S
C1734 H1721 0.930 . S
C1734 C1733 1.388 . S
C1734 C1735 1.390 . S
C1735 C1734 1.390 . S
C1735 C1736 1.394 . S
C1735 C1741 1.465 . S
C1736 C1731 1.399 . S
C1736 C1735 1.394 . S
C1736 C1737 1.516 . S
C1737 C1736 1.516 . S
C1737 C1738 1.502 . S
C1737 C1739 1.561 . S
C1737 C1740 1.526 . S
C1738 H1722 0.959 . S
C1738 H1723 0.959 . S
C1738 H1724 0.961 . S
C1738 C1737 1.502 . S
C1739 H1725 0.960 . S
C1739 H1726 0.961 . S
C1739 H1727 0.959 . S
C1739 C1737 1.561 . S
C1740 C1737 1.526 . S
C1740 C1741 1.396 . S
C1740 C1745 1.390 . S
C1741 C1735 1.465 . S
C1741 C1740 1.396 . S
C1741 C1742 1.399 . S
C1742 H1728 0.929 . S
C1742 C1741 1.399 . S
C1742 C1743 1.385 . S
C1743 H1729 0.931 . S
C1743 C1742 1.385 . S
C1743 C1744 1.389 . S
C1744 C1743 1.389 . S
C1744 C1745 1.387 . S
C1745 H1730 0.930 . S
C1745 C1740 1.390 . S
C1745 C1744 1.387 . S
H1746 C1758 0.930 . S
H1747 C1760 0.930 . S
H1748 C1761 0.930 . S
H1749 C1765 0.959 . S
H1750 C1765 0.959 . S
H1751 C1765 0.961 . S
H1752 C1766 0.960 . S
H1753 C1766 0.961 . S
H1754 C1766 0.959 . S
H1755 C1769 0.929 . S
H1756 C1770 0.931 . S
H1757 C1772 0.930 . S
C1758 H1746 0.930 . S
C1758 C1759 1.399 . S
C1758 C1763 1.399 . S
C1759 C1758 1.399 . S
C1759 C1760 1.376 . S
C1760 H1747 0.930 . S
C1760 C1759 1.376 . S
C1760 C1761 1.388 . S
C1761 H1748 0.930 . S
C1761 C1760 1.388 . S
C1761 C1762 1.390 . S
C1762 C1761 1.390 . S
C1762 C1763 1.394 . S
C1762 C1768 1.465 . S
C1763 C1758 1.399 . S
C1763 C1762 1.394 . S
C1763 C1764 1.516 . S
C1764 C1763 1.516 . S
C1764 C1765 1.502 . S
C1764 C1766 1.561 . S
C1764 C1767 1.526 . S
C1765 H1749 0.959 . S
C1765 H1750 0.959 . S
C1765 H1751 0.961 . S
C1765 C1764 1.502 . S
C1766 H1752 0.960 . S
C1766 H1753 0.961 . S
C1766 H1754 0.959 . S
C1766 C1764 1.561 . S
C1767 C1764 1.526 . S
C1767 C1768 1.396 . S
C1767 C1772 1.390 . S
C1768 C1762 1.465 . S
C1768 C1767 1.396 . S
C1768 C1769 1.399 . S
C1769 H1755 0.929 . S
C1769 C1768 1.399 . S
C1769 C1770 1.385 . S
C1770 H1756 0.931 . S
C1770 C1769 1.385 . S
C1770 C1771 1.389 . S
C1771 C1770 1.389 . S
C1771 C1772 1.387 . S
C1772 H1757 0.930 . S
C1772 C1767 1.390 . S
C1772 C1771 1.387 . S
H1773 C1785 0.930 . S
H1774 C1787 0.930 . S
H1775 C1788 0.930 . S
H1776 C1792 0.959 . S
H1777 C1792 0.959 . S
H1778 C1792 0.961 . S
H1779 C1793 0.960 . S
H1780 C1793 0.961 . S
H1781 C1793 0.959 . S
H1782 C1796 0.929 . S
H1783 C1797 0.931 . S
H1784 C1799 0.930 . S
C1785 H1773 0.930 . S
C1785 C1786 1.399 . S
C1785 C1790 1.399 . S
C1786 C1785 1.399 . S
C1786 C1787 1.376 . S
C1787 H1774 0.930 . S
C1787 C1786 1.376 . S
C1787 C1788 1.388 . S
C1788 H1775 0.930 . S
C1788 C1787 1.388 . S
C1788 C1789 1.390 . S
C1789 C1788 1.390 . S
C1789 C1790 1.394 . S
C1789 C1795 1.465 . S
C1790 C1785 1.399 . S
C1790 C1789 1.394 . S
C1790 C1791 1.516 . S
C1791 C1790 1.516 . S
C1791 C1792 1.502 . S
C1791 C1793 1.561 . S
C1791 C1794 1.526 . S
C1792 H1776 0.959 . S
C1792 H1777 0.959 . S
C1792 H1778 0.961 . S
C1792 C1791 1.502 . S
C1793 H1779 0.960 . S
C1793 H1780 0.961 . S
C1793 H1781 0.959 . S
C1793 C1791 1.561 . S
C1794 C1791 1.526 . S
C1794 C1795 1.396 . S
C1794 C1799 1.390 . S
C1795 C1789 1.465 . S
C1795 C1794 1.396 . S
C1795 C1796 1.399 . S
C1796 H1782 0.929 . S
C1796 C1795 1.399 . S
C1796 C1797 1.385 . S
C1797 H1783 0.931 . S
C1797 C1796 1.385 . S
C1797 C1798 1.389 . S
C1798 C1797 1.389 . S
C1798 C1799 1.387 . S
C1799 H1784 0.930 . S
C1799 C1794 1.390 . S
C1799 C1798 1.387 . S
H1800 C1812 0.930 . S
H1801 C1814 0.930 . S
H1802 C1815 0.930 . S
H1803 C1819 0.959 . S
H1804 C1819 0.959 . S
H1805 C1819 0.961 . S
H1806 C1820 0.960 . S
H1807 C1820 0.961 . S
H1808 C1820 0.959 . S
H1809 C1823 0.929 . S
H1810 C1824 0.931 . S
H1811 C1826 0.930 . S
C1812 H1800 0.930 . S
C1812 C1813 1.399 . S
C1812 C1817 1.399 . S
C1813 C1812 1.399 . S
C1813 C1814 1.376 . S
C1814 H1801 0.930 . S
C1814 C1813 1.376 . S
C1814 C1815 1.388 . S
C1815 H1802 0.930 . S
C1815 C1814 1.388 . S
C1815 C1816 1.390 . S
C1816 C1815 1.390 . S
C1816 C1817 1.394 . S
C1816 C1822 1.465 . S
C1817 C1812 1.399 . S
C1817 C1816 1.394 . S
C1817 C1818 1.516 . S
C1818 C1817 1.516 . S
C1818 C1819 1.502 . S
C1818 C1820 1.561 . S
C1818 C1821 1.526 . S
C1819 H1803 0.959 . S
C1819 H1804 0.959 . S
C1819 H1805 0.961 . S
C1819 C1818 1.502 . S
C1820 H1806 0.960 . S
C1820 H1807 0.961 . S
C1820 H1808 0.959 . S
C1820 C1818 1.561 . S
C1821 C1818 1.526 . S
C1821 C1822 1.396 . S
C1821 C1826 1.390 . S
C1822 C1816 1.465 . S
C1822 C1821 1.396 . S
C1822 C1823 1.399 . S
C1823 H1809 0.929 . S
C1823 C1822 1.399 . S
C1823 C1824 1.385 . S
C1824 H1810 0.931 . S
C1824 C1823 1.385 . S
C1824 C1825 1.389 . S
C1825 C1824 1.389 . S
C1825 C1826 1.387 . S
C1826 H1811 0.930 . S
C1826 C1821 1.390 . S
C1826 C1825 1.387 . S
H1827 C1839 0.930 . S
H1828 C1841 0.930 . S
H1829 C1842 0.930 . S
H1830 C1846 0.959 . S
H1831 C1846 0.959 . S
H1832 C1846 0.961 . S
H1833 C1847 0.960 . S
H1834 C1847 0.961 . S
H1835 C1847 0.959 . S
H1836 C1850 0.929 . S
H1837 C1851 0.931 . S
H1838 C1853 0.930 . S
C1839 H1827 0.930 . S
C1839 C1840 1.399 . S
C1839 C1844 1.399 . S
C1840 C1839 1.399 . S
C1840 C1841 1.376 . S
C1841 H1828 0.930 . S
C1841 C1840 1.376 . S
C1841 C1842 1.388 . S
C1842 H1829 0.930 . S
C1842 C1841 1.388 . S
C1842 C1843 1.390 . S
C1843 C1842 1.390 . S
C1843 C1844 1.394 . S
C1843 C1849 1.465 . S
C1844 C1839 1.399 . S
C1844 C1843 1.394 . S
C1844 C1845 1.516 . S
C1845 C1844 1.516 . S
C1845 C1846 1.502 . S
C1845 C1847 1.561 . S
C1845 C1848 1.526 . S
C1846 H1830 0.959 . S
C1846 H1831 0.959 . S
C1846 H1832 0.961 . S
C1846 C1845 1.502 . S
C1847 H1833 0.960 . S
C1847 H1834 0.961 . S
C1847 H1835 0.959 . S
C1847 C1845 1.561 . S
C1848 C1845 1.526 . S
C1848 C1849 1.396 . S
C1848 C1853 1.390 . S
C1849 C1843 1.465 . S
C1849 C1848 1.396 . S
C1849 C1850 1.399 . S
C1850 H1836 0.929 . S
C1850 C1849 1.399 . S
C1850 C1851 1.385 . S
C1851 H1837 0.931 . S
C1851 C1850 1.385 . S
C1851 C1852 1.389 . S
C1852 C1851 1.389 . S
C1852 C1853 1.387 . S
C1853 H1838 0.930 . S
C1853 C1848 1.390 . S
C1853 C1852 1.387 . S
H1854 C1866 0.930 . S
H1855 C1868 0.930 . S
H1856 C1869 0.930 . S
H1857 C1873 0.959 . S
H1858 C1873 0.959 . S
H1859 C1873 0.961 . S
H1860 C1874 0.960 . S
H1861 C1874 0.961 . S
H1862 C1874 0.959 . S
H1863 C1877 0.929 . S
H1864 C1878 0.931 . S
H1865 C1880 0.930 . S
C1866 H1854 0.930 . S
C1866 C1867 1.399 . S
C1866 C1871 1.399 . S
C1867 C1866 1.399 . S
C1867 C1868 1.376 . S
C1868 H1855 0.930 . S
C1868 C1867 1.376 . S
C1868 C1869 1.388 . S
C1869 H1856 0.930 . S
C1869 C1868 1.388 . S
C1869 C1870 1.390 . S
C1870 C1869 1.390 . S
C1870 C1871 1.394 . S
C1870 C1876 1.465 . S
C1871 C1866 1.399 . S
C1871 C1870 1.394 . S
C1871 C1872 1.516 . S
C1872 C1871 1.516 . S
C1872 C1873 1.502 . S
C1872 C1874 1.561 . S
C1872 C1875 1.526 . S
C1873 H1857 0.959 . S
C1873 H1858 0.959 . S
C1873 H1859 0.961 . S
C1873 C1872 1.502 . S
C1874 H1860 0.960 . S
C1874 H1861 0.961 . S
C1874 H1862 0.959 . S
C1874 C1872 1.561 . S
C1875 C1872 1.526 . S
C1875 C1876 1.396 . S
C1875 C1880 1.390 . S
C1876 C1870 1.465 . S
C1876 C1875 1.396 . S
C1876 C1877 1.399 . S
C1877 H1863 0.929 . S
C1877 C1876 1.399 . S
C1877 C1878 1.385 . S
C1878 H1864 0.931 . S
C1878 C1877 1.385 . S
C1878 C1879 1.389 . S
C1879 C1878 1.389 . S
C1879 C1880 1.387 . S
C1880 H1865 0.930 . S
C1880 C1875 1.390 . S
C1880 C1879 1.387 . S
C436 C177 1.403 . S
C448 C251 1.376 . S
C463 C190 1.438 . S
C475 C272 1.384 . S
C490 C164 1.397 . S
C502 C294 1.214 . S
C517 C151 1.340 . S
C529 C273 1.236 . S
C556 C293 1.397 . S
C544 C125 1.443 1_554 S
C571 C138 1.356 . S
C583 C252 1.266 . S
C610 C247 1.407 . S
C598 C147 1.413 . S
C637 C268 1.403 . S
C625 C121 1.389 . S
C652 C134 1.442 . S
C664 C291 1.347 . S
C679 C173 1.410 . S
C691 C270 1.319 1_554 S
C706 C186 1.397 . S
C718 C289 1.402 . S
C745 C249 1.297 1_554 S
C733 C160 1.488 . S
C772 C314 1.365 . S
C760 C21 1.411 . S
C787 C34 1.419 . S
C799 C335 1.417 . S
C814 C8 1.397 . S
C826 C357 1.216 . S
C841 C229 1.383 . S
C853 C336 1.203 . S
C868 C203 1.399 . S
C880 C356 1.350 . S
C895 C216 1.357 . S
C907 C315 1.250 . S
C922 C225 1.425 . S
C934 C310 1.427 . S
C949 C199 1.407 . S
C961 C331 1.419 . S
C988 C354 1.348 . S
C976 C212 1.445 . S
C1003 C17 1.423 . S
C1015 C333 1.188 . S
C1042 C352 1.380 . S
C1030 C30 1.374 . S
C1057 C4 1.433 . S
C1069 C312 1.342 . S
C1096 C377 1.369 . S
C1084 C99 1.407 . S
C1111 C112 1.436 . S
C1123 C398 1.362 . S
C1150 C420 1.262 . S
C1138 C86 1.347 . S
C1177 C399 1.238 . S
C1165 C73 1.339 . S
C1204 C419 1.404 . S
C1192 C47 1.441 . S
C1219 C60 1.357 . S
C1231 C378 1.249 . S
C1246 C69 1.434 . S
C1258 C373 1.428 . S
C1273 C43 1.350 . S
C1285 C394 1.377 . S
C1312 C417 1.337 . S
C1300 C56 1.428 . S
C1327 C95 1.413 . S
C1339 C396 1.333 . S
C1354 C108 1.370 . S
C1366 C415 1.380 . S
C1381 C82 1.437 . S
C1393 C375 1.196 . S
C1408 C204 1.469 . S
C1420 C250 1.444 . S
C1447 C271 1.537 . S
C1435 C217 1.543 . S
C1462 C230 1.525 . S
C1474 C290 1.523 . S
C1489 C87 1.627 . S
C1501 C269 1.519 . S
C1516 C100 1.535 . S
C1528 C292 1.508 . S
C1555 C248 1.483 . S
C1543 C113 1.577 . S
C1570 C48 1.467 . S
C1582 C313 1.441 . S
C1597 C61 1.510 . S
C1609 C334 1.487 . S
C1624 C74 1.559 . S
C1636 C353 1.450 . S
C1651 C165 1.627 . S
C1663 C332 1.520 . S
C1690 C355 1.559 . S
C1678 C178 1.566 . S
C1705 C191 1.582 . S
C1717 C311 1.470 . S
C1732 C126 1.471 . S
C1744 C376 1.446 . S
C1759 C139 1.533 . S
C1771 C397 1.529 . S
C1798 C416 1.510 . S
C1786 C152 1.530 . S
C1813 C9 1.597 . S
C1825 C395 1.589 . S
C1840 C22 1.551 . S
C1852 C418 1.538 . S
C1867 C35 1.566 . S
C1879 C374 1.503 . S
