# Generated by pormake.
# Topology rtl, (3,6)-cn, num edge types: 1
# Building blocks:
#     Node 0, Type 0, BuildingBlock: CUQRIR_clean_linker_1, # of connection points: 3
#     Node 1, Type 0, BuildingBlock: CUQRIR_clean_linker_1, # of connection points: 3
#     Node 2, Type 0, BuildingBlock: CUQRIR_clean_linker_1, # of connection points: 3
#     Node 3, Type 0, BuildingBlock: CUQRIR_clean_linker_1, # of connection points: 3
#     Node 4, Type 1, BuildingBlock: FUNLAD_clean_sbu_0, # of connection points: 6
#     Node 5, Type 1, BuildingBlock: FUNLAD_clean_sbu_0, # of connection points: 6
#     Edge 6, Type (0, 1), BuildingBlock: EZIPEK_clean_linker_0, # of connection points: 2
#     Edge 7, Type (0, 1), BuildingBlock: EZIPEK_clean_linker_0, # of connection points: 2
#     Edge 8, Type (0, 1), BuildingBlock: EZIPEK_clean_linker_0, # of connection points: 2
#     Edge 9, Type (0, 1), BuildingBlock: EZIPEK_clean_linker_0, # of connection points: 2
#     Edge 10, Type (0, 1), BuildingBlock: EZIPEK_clean_linker_0, # of connection points: 2
#     Edge 11, Type (0, 1), BuildingBlock: EZIPEK_clean_linker_0, # of connection points: 2
#     Edge 12, Type (0, 1), BuildingBlock: EZIPEK_clean_linker_0, # of connection points: 2
#     Edge 13, Type (0, 1), BuildingBlock: EZIPEK_clean_linker_0, # of connection points: 2
#     Edge 14, Type (0, 1), BuildingBlock: EZIPEK_clean_linker_0, # of connection points: 2
#     Edge 15, Type (0, 1), BuildingBlock: EZIPEK_clean_linker_0, # of connection points: 2
#     Edge 16, Type (0, 1), BuildingBlock: EZIPEK_clean_linker_0, # of connection points: 2
#     Edge 17, Type (0, 1), BuildingBlock: EZIPEK_clean_linker_0, # of connection points: 2
# Relax obj value: 0.002
# Max RMSD: 0.020
# Mean RMSD: 0.013
data_MOF--net-rtl--node1-FUNLAD_clean_sbu_0--node2-CUQRIR_clean_linker_1--edge1-EZIPEK_clean_linker_0
_symmetry_space_group_name_H-M    P1
_symmetry_Int_Tables_number       1
_symmetry_cell_setting            triclinic
loop_
_symmetry_equiv_pos_as_xyz
'x, y, z'
_cell_length_a     28.31986
_cell_length_b     28.143805
_cell_length_c     13.094125
_cell_angle_alpha  90.134433
_cell_angle_beta   90.943181
_cell_angle_gamma 90.182372
loop_
_atom_site_label
_atom_site_type_symbol
_atom_site_fract_x
_atom_site_fract_y
_atom_site_fract_z
_atom_type_partial_charge
C0 C 0.18533 0.81688 0.95141 0.0
N1 N 0.15104 0.8474 0.9803 0.0
N2 N 0.19912 0.78896 0.0303 0.0
C3 C 0.20562 0.81449 0.84615 0.0
C4 C 0.17244 0.80387 0.10887 0.0
N5 N 0.14379 0.84006 0.07946 0.0
C6 C 0.17429 0.78288 0.21431 0.0
H7 H 0.18591 0.78752 0.80042 0.0
H8 H 0.24327 0.80373 0.85002 0.0
H9 H 0.20243 0.8493 0.807 0.0
H10 H 0.20224 0.80112 0.26013 0.0
H11 H 0.18311 0.74452 0.21078 0.0
H12 H 0.14008 0.78763 0.25311 0.0
C13 C 0.67642 0.7034 0.59975 0.0
N14 N 0.6458 0.66862 0.57042 0.0
N15 N 0.70093 0.71942 0.5192 0.0
C16 C 0.68316 0.72144 0.70718 0.0
C17 C 0.68396 0.69387 0.43918 0.0
N18 N 0.64969 0.66345 0.46948 0.0
C19 C 0.70074 0.69916 0.3315 0.0
H20 H 0.65182 0.71373 0.75418 0.0
H21 H 0.68995 0.76029 0.70697 0.0
H22 H 0.71449 0.70394 0.74223 0.0
H23 H 0.69297 0.66677 0.28567 0.0
H24 H 0.73926 0.70649 0.33115 0.0
H25 H 0.68254 0.72986 0.29552 0.0
C26 C 0.82056 0.19969 0.09959 0.0
N27 N 0.85111 0.16551 0.071 0.0
N28 N 0.79548 0.21573 0.01793 0.0
C29 C 0.81452 0.21647 0.20776 0.0
C30 C 0.81187 0.19004 0.93854 0.0
N31 N 0.84599 0.15965 0.97039 0.0
C32 C 0.7949 0.19486 0.82974 0.0
H33 H 0.79571 0.18858 0.2511 0.0
H34 H 0.79413 0.24999 0.21119 0.0
H35 H 0.84944 0.22205 0.24544 0.0
H36 H 0.81812 0.2203 0.78965 0.0
H37 H 0.75818 0.20845 0.82612 0.0
H38 H 0.79675 0.16014 0.78965 0.0
C39 C 0.32951 0.30283 0.42928 0.0
N40 N 0.36503 0.33238 0.45932 0.0
N41 N 0.30395 0.2892 0.50992 0.0
C42 C 0.31819 0.28957 0.31992 0.0
C43 C 0.3243 0.31203 0.5901 0.0
N44 N 0.36393 0.33619 0.56148 0.0
C45 C 0.2993 0.31745 0.69036 0.0
H46 H 0.31292 0.32228 0.27402 0.0
H47 H 0.28631 0.26685 0.31268 0.0
H48 H 0.34825 0.26996 0.28712 0.0
H49 H 0.30696 0.28648 0.74004 0.0
H50 H 0.2605 0.3178 0.67687 0.0
H51 H 0.30929 0.35092 0.73005 0.0
C52 C 0.04531 0.95334 0.37548 0.0
N53 N 0.0841 0.08109 0.52387 0.0
C54 C 0.12845 0.0687 0.49541 0.0
C55 C 0.16418 0.10293 0.49067 0.0
C56 C 0.1547 0.15 0.51926 0.0
C57 C 0.10908 0.16167 0.55036 0.0
C58 C 0.07397 0.12679 0.54997 0.0
Zn59 Zn 0.03078 0.031 0.52466 0.0
C60 C 0.95411 0.05672 0.37432 0.0
N61 N 0.91726 0.93021 0.52632 0.0
C62 C 0.90022 0.91389 0.61641 0.0
C63 C 0.90008 0.91355 0.43529 0.0
C64 C 0.86423 0.87937 0.43245 0.0
C65 C 0.84629 0.86206 0.52418 0.0
C66 C 0.86451 0.87952 0.61707 0.0
Zn67 Zn 0.97061 0.97969 0.52686 0.0
O68 O 0.0636 0.99199 0.40739 0.0
C69 C 0.04779 0.95498 0.67703 0.0
O70 O 0.0068 0.93901 0.41365 0.0
H71 H 0.91445 0.92647 0.36472 0.0
H72 H 0.13631 0.0323 0.47588 0.0
H73 H 0.91454 0.9273 0.68788 0.0
O74 O 0.06743 0.99119 0.63792 0.0
O75 O 0.00704 0.94208 0.64492 0.0
H76 H 0.03859 0.13655 0.57022 0.0
O77 O 0.93536 0.01979 0.63768 0.0
O78 O 0.99552 0.06884 0.64495 0.0
O79 O 0.93503 0.01978 0.41165 0.0
O80 O 0.9944 0.06942 0.40884 0.0
C81 C 0.95518 0.05617 0.67684 0.0
H82 H 0.19911 0.09267 0.4665 0.0
H83 H 0.10055 0.19763 0.57311 0.0
H84 H 0.85088 0.86628 0.35962 0.0
H85 H 0.85129 0.8666 0.68906 0.0
C86 C 0.45382 0.45346 0.86093 0.0
N87 N 0.58344 0.43034 0.01316 0.0
C88 C 0.57228 0.38438 0.98995 0.0
C89 C 0.60719 0.34968 0.98775 0.0
C90 C 0.65382 0.36174 0.01417 0.0
C91 C 0.66451 0.40908 0.03973 0.0
C92 C 0.62873 0.44318 0.03688 0.0
Zn93 Zn 0.52991 0.47957 0.01455 0.0
C94 C 0.54439 0.55745 0.86594 0.0
N95 N 0.41471 0.57773 0.01592 0.0
C96 C 0.36973 0.56325 0.03471 0.0
C97 C 0.42487 0.62447 1.00033 0.0
C98 C 0.38914 0.65844 1.00123 0.0
C99 C 0.34272 0.64458 0.02228 0.0
C100 C 0.33317 0.59638 0.04005 0.0
Zn101 Zn 0.46882 0.52918 0.01286 0.0
O102 O 0.49223 0.44009 0.90264 0.0
C103 C 0.45563 0.44989 0.16008 0.0
O104 O 0.43465 0.49192 0.88945 0.0
H105 H 0.46078 0.63572 0.98764 0.0
H106 H 0.5362 0.37414 0.97362 0.0
H107 H 0.36205 0.52603 0.04608 0.0
O108 O 0.49748 0.44102 0.13269 0.0
O109 O 0.43369 0.48459 0.11943 0.0
H110 H 0.63723 0.4798 0.05436 0.0
O111 O 0.50311 0.56578 0.13721 0.0
O112 O 0.56604 0.52078 0.12685 0.0
O113 O 0.50627 0.5719 0.90535 0.0
O114 O 0.56205 0.51833 0.8961 0.0
C115 C 0.5446 0.55524 0.16819 0.0
H116 H 0.59772 0.31346 0.96786 0.0
H117 H 0.70023 0.41954 0.06065 0.0
H118 H 0.39775 0.69539 0.98751 0.0
H119 H 0.29771 0.58451 0.05679 0.0
C120 C 0.22189 0.26508 0.46639 0.0
C121 C 0.26607 0.25488 0.51283 0.0
C122 C 0.23469 0.17989 0.57707 0.0
C123 C 0.19269 0.18677 0.5182 0.0
N124 N 0.15061 0.23246 0.38966 0.0
N125 N 0.31783 0.19859 0.59487 0.0
C126 C 0.1873 0.22856 0.45815 0.0
C127 C 0.27343 0.21107 0.56322 0.0
N128 N 0.21293 0.30985 0.43147 0.0
N129 N 0.23702 0.14491 0.64916 0.0
H130 H 0.34726 0.22 0.58229 0.0
H131 H 0.326 0.16508 0.62376 0.0
H132 H 0.20857 0.12272 0.66542 0.0
H133 H 0.26538 0.14138 0.70027 0.0
H134 H 0.17973 0.32064 0.40526 0.0
H135 H 0.23779 0.33721 0.43753 0.0
H136 H 0.14765 0.26034 0.33776 0.0
H137 H 0.12579 0.20554 0.37732 0.0
C138 C 0.27662 0.75776 0.08857 0.0
C139 C 0.23443 0.75203 0.0305 0.0
C140 C 0.26467 0.67779 0.95976 0.0
C141 C 0.30453 0.68078 0.02689 0.0
N142 N 0.34192 0.7184 0.1736 0.0
N143 N 0.18356 0.70147 0.92927 0.0
C144 C 0.30862 0.71926 0.09694 0.0
C145 C 0.22701 0.7104 0.97159 0.0
N146 N 0.28703 0.80061 0.13233 0.0
N147 N 0.26358 0.64542 0.88183 0.0
H148 H 0.15501 0.72409 0.93997 0.0
H149 H 0.17484 0.66955 0.89301 0.0
H150 H 0.29133 0.6222 0.86749 0.0
H151 H 0.23727 0.64498 0.82526 0.0
H152 H 0.31941 0.80814 0.16783 0.0
H153 H 0.26513 0.83 0.12343 0.0
H154 H 0.34343 0.74366 0.23191 0.0
H155 H 0.36475 0.68984 0.18521 0.0
C156 C 0.7852 0.74132 0.52998 0.0
C157 C 0.73743 0.75515 0.51926 0.0
C158 C 0.76057 0.83909 0.51776 0.0
C159 C 0.80871 0.82519 0.5228 0.0
N160 N 0.86792 0.76378 0.52231 0.0
N161 N 0.67865 0.81505 0.49189 0.0
C162 C 0.82137 0.77641 0.52581 0.0
C163 C 0.72485 0.80354 0.51 0.0
N164 N 0.79556 0.69455 0.54624 0.0
N165 N 0.74914 0.88621 0.52277 0.0
H166 H 0.65189 0.78951 0.48837 0.0
H167 H 0.66707 0.84913 0.47409 0.0
H168 H 0.77445 0.9132 0.5262 0.0
H169 H 0.71481 0.89868 0.52996 0.0
H170 H 0.8291 0.68211 0.56536 0.0
H171 H 0.76961 0.66816 0.54659 0.0
H172 H 0.87947 0.72898 0.51356 0.0
H173 H 0.89538 0.78857 0.52176 0.0
C174 C 0.71717 0.24516 0.06799 0.0
C175 C 0.75994 0.25227 0.01603 0.0
C176 C 0.73126 0.32883 0.95335 0.0
C177 C 0.691 0.32447 0.01606 0.0
N178 N 0.65178 0.28271 0.15213 0.0
N179 N 0.81227 0.30504 0.92798 0.0
C180 C 0.68561 0.28376 0.07895 0.0
C181 C 0.76837 0.2954 0.96412 0.0
N182 N 0.70635 0.20122 0.10492 0.0
N183 N 0.73329 0.36342 0.88051 0.0
H184 H 0.84052 0.28176 0.9378 0.0
H185 H 0.82161 0.3379 0.89771 0.0
H186 H 0.70591 0.38736 0.86675 0.0
H187 H 0.75999 0.36514 0.8268 0.0
H188 H 0.67361 0.19289 0.13547 0.0
H189 H 0.72852 0.17203 0.09575 0.0
H190 H 0.64931 0.25554 0.20574 0.0
H191 H 0.62947 0.31129 0.1664 0.0
C192 C 0.14396 0.89631 0.22501 0.0
C193 C 0.11846 0.87099 0.14816 0.0
C194 C 0.04493 0.9047 0.21197 0.0
C195 C 0.06998 0.92445 0.29725 0.0
N196 N 0.14263 0.92698 0.39709 0.0
N197 N 0.0437 0.84282 0.08305 0.0
C198 C 0.11939 0.91704 0.30718 0.0
C199 C 0.06857 0.87291 0.14548 0.0
N200 N 0.19177 0.90104 0.21898 0.0
N201 N 0.99929 0.91753 0.19181 0.0
H202 H 0.06032 0.81747 0.0383 0.0
H203 H 0.00704 0.8397 0.08427 0.0
H204 H 0.98148 0.94246 0.23548 0.0
H205 H 0.98104 0.90732 0.12552 0.0
H206 H 0.21158 0.92278 0.26808 0.0
H207 H 0.21073 0.88744 0.15813 0.0
H208 H 0.17787 0.91807 0.41052 0.0
H209 H 0.12554 0.93864 0.46242 0.0
C210 C 0.5697 0.64038 0.64077 0.0
C211 C 0.61954 0.63846 0.63896 0.0
C212 C 0.61956 0.59081 0.79528 0.0
C213 C 0.56956 0.58667 0.78868 0.0
N214 N 0.49749 0.60184 0.69135 0.0
N215 N 0.69189 0.60442 0.70449 0.0
C216 C 0.54463 0.60979 0.70743 0.0
C217 C 0.64437 0.61101 0.71277 0.0
N218 N 0.5464 0.67334 0.58309 0.0
N219 N 0.64332 0.57872 0.88317 0.0
H220 H 0.71147 0.61912 0.64567 0.0
H221 H 0.71087 0.58077 0.75037 0.0
H222 H 0.6264 0.56806 0.94945 0.0
H223 H 0.67927 0.58518 0.89467 0.0
H224 H 0.51027 0.67959 0.58831 0.0
H225 H 0.56426 0.69793 0.53865 0.0
H226 H 0.4793 0.61395 0.6267 0.0
H227 H 0.47732 0.57966 0.73682 0.0
C228 C 0.92013 0.15697 0.18781 0.0
C229 C 0.87962 0.13719 0.13979 0.0
C230 C 0.89366 0.06301 0.22948 0.0
C231 C 0.9296 0.08467 0.29146 0.0
N232 N 0.96503 0.15995 0.34547 0.0
N233 N 0.81799 0.07857 0.15082 0.0
C234 C 0.94013 0.13382 0.27477 0.0
C235 C 0.86335 0.09227 0.17092 0.0
N236 N 0.938 0.19893 0.15365 0.0
N237 N 0.88925 0.01488 0.22165 0.0
H238 H 0.79342 0.10152 0.11728 0.0
H239 H 0.80398 0.0469 0.17868 0.0
H240 H 0.91451 0.99158 0.25052 0.0
H241 H 0.86436 0.99887 0.17286 0.0
H242 H 0.97006 0.21292 0.18025 0.0
H243 H 0.92234 0.21753 0.09331 0.0
H244 H 0.9704 0.19644 0.33832 0.0
H245 H 0.97404 0.14753 0.4179 0.0
C246 C 0.40166 0.3439 0.73516 0.0
C247 C 0.39872 0.35839 0.63194 0.0
C248 C 0.43961 0.43186 0.67722 0.0
C249 C 0.43179 0.4226 0.78203 0.0
N250 N 0.40466 0.36877 0.912 0.0
N251 N 0.46022 0.38895 0.52771 0.0
C252 C 0.41318 0.37794 0.81165 0.0
C253 C 0.42928 0.39585 0.60449 0.0
N254 N 0.39779 0.29687 0.7581 0.0
N255 N 0.45971 0.47346 0.64701 0.0
H256 H 0.46484 0.35506 0.49719 0.0
H257 H 0.4864 0.41352 0.50934 0.0
H258 H 0.47007 0.49986 0.69864 0.0
H259 H 0.4632 0.48209 0.56997 0.0
H260 H 0.40373 0.28334 0.83119 0.0
H261 H 0.39377 0.2713 0.70068 0.0
H262 H 0.38744 0.33814 0.93633 0.0
H263 H 0.4107 0.39393 0.96942 0.0
C264 C 0.59063 0.65976 0.32803 0.0
C265 C 0.61908 0.63591 0.40188 0.0
C266 C 0.59079 0.55954 0.33424 0.0
C267 C 0.56822 0.58326 0.25114 0.0
N268 N 0.55504 0.6566 0.1591 0.0
N269 N 0.65397 0.56306 0.46065 0.0
C270 C 0.56997 0.63364 0.24565 0.0
C271 C 0.62108 0.5857 0.40151 0.0
N272 N 0.58365 0.70758 0.33628 0.0
N273 N 0.58244 0.51237 0.35074 0.0
H274 H 0.67866 0.58165 0.50495 0.0
H275 H 0.65998 0.52659 0.45677 0.0
H276 H 0.55899 0.49237 0.30573 0.0
H277 H 0.5948 0.49456 0.41551 0.0
H278 H 0.55939 0.72606 0.29092 0.0
H279 H 0.59891 0.728 0.39463 0.0
H280 H 0.56012 0.69285 0.14739 0.0
H281 H 0.54226 0.63898 0.09421 0.0
C282 C 0.90982 0.1579 0.84353 0.0
C283 C 0.87691 0.13327 0.90431 0.0
C284 C 0.90372 0.05838 0.83198 0.0
C285 C 0.93088 0.08324 0.75885 0.0
N286 N 0.94837 0.1591 0.68056 0.0
N287 N 0.83142 0.06195 0.92587 0.0
C288 C 0.93139 0.13382 0.76098 0.0
C289 C 0.87078 0.0839 0.89066 0.0
N290 N 0.91931 0.20463 0.8626 0.0
N291 N 0.90976 0.01084 0.84739 0.0
H292 H 0.80342 0.08138 0.95494 0.0
H293 H 0.82404 0.02616 0.91201 0.0
H294 H 0.93637 0.99149 0.81235 0.0
H295 H 0.89228 0.99243 0.90468 0.0
H296 H 0.94615 0.22321 0.82637 0.0
H297 H 0.90296 0.22342 0.92075 0.0
H298 H 0.94587 0.19596 0.67556 0.0
H299 H 0.95899 0.14321 0.61293 0.0
C300 C 0.42137 0.34207 0.31917 0.0
C301 C 0.38937 0.36256 0.38818 0.0
C302 C 0.40539 0.44104 0.31668 0.0
C303 C 0.43273 0.41977 0.23866 0.0
N304 N 0.45739 0.34729 0.15416 0.0
N305 N 0.34255 0.42976 0.43754 0.0
C306 C 0.43831 0.36947 0.23669 0.0
C307 C 0.37862 0.41153 0.38199 0.0
N308 N 0.43663 0.29667 0.33484 0.0
N309 N 0.40705 0.489 0.33291 0.0
H310 H 0.32199 0.4089 0.48534 0.0
H311 H 0.33046 0.46447 0.42867 0.0
H312 H 0.42894 0.51176 0.29239 0.0
H313 H 0.39104 0.50532 0.39486 0.0
H314 H 0.4637 0.28127 0.29331 0.0
H315 H 0.42515 0.2762 0.3961 0.0
H316 H 0.45782 0.31048 0.14566 0.0
H317 H 0.46796 0.36517 0.08893 0.0
C318 C 0.09451 0.85115 0.83451 0.0
C319 C 0.12164 0.875 0.91104 0.0
C320 C 0.09375 0.95124 0.84388 0.0
C321 C 0.07252 0.92749 0.75866 0.0
N322 N 0.06251 0.85451 0.66262 0.0
N323 N 0.15482 0.948 0.97527 0.0
C324 C 0.07532 0.87727 0.75126 0.0
C325 C 0.12329 0.92521 0.9124 0.0
N326 N 0.08686 0.80339 0.84174 0.0
N327 N 0.08455 0.99813 0.86163 0.0
H328 H 0.17858 0.92951 0.02168 0.0
H329 H 0.16064 0.98456 0.97309 0.0
H330 H 0.06143 0.01798 0.81609 0.0
H331 H 0.09589 0.01577 0.92771 0.0
H332 H 0.06367 0.7849 0.79338 0.0
H333 H 0.09986 0.78331 0.90263 0.0
H334 H 0.06838 0.81842 0.65038 0.0
H335 H 0.05109 0.8723 0.59706 0.0
loop_
_geom_bond_atom_site_label_1
_geom_bond_atom_site_label_2
_geom_bond_distance
_geom_bond_site_symmetry_2
_ccdc_geom_bond_type
C0 N1 1.317 . S
C0 N2 1.348 1_556 S
C0 C3 1.485 . S
N1 C0 1.317 . S
N1 N5 1.370 1_556 S
N2 C0 1.348 1_554 S
N2 C4 1.346 . S
C3 C0 1.485 . S
C3 H7 0.960 . S
C3 H8 0.961 . S
C3 H9 0.960 . S
C4 N2 1.346 . S
C4 N5 1.307 . S
C4 C6 1.486 . S
N5 N1 1.370 1_554 S
N5 C4 1.307 . S
C6 C4 1.486 . S
C6 H10 0.960 . S
C6 H11 0.960 . S
C6 H12 0.959 . S
H7 C3 0.960 . S
H8 C3 0.961 . S
H9 C3 0.960 . S
H10 C6 0.960 . S
H11 C6 0.960 . S
H12 C6 0.959 . S
C13 N14 1.317 . S
C13 N15 1.348 . S
C13 C16 1.485 . S
N14 C13 1.317 . S
N14 N18 1.370 . S
N15 C13 1.348 . S
N15 C17 1.346 . S
C16 C13 1.485 . S
C16 H20 0.960 . S
C16 H21 0.961 . S
C16 H22 0.960 . S
C17 N15 1.346 . S
C17 N18 1.307 . S
C17 C19 1.486 . S
N18 N14 1.370 . S
N18 C17 1.307 . S
C19 C17 1.486 . S
C19 H23 0.960 . S
C19 H24 0.960 . S
C19 H25 0.959 . S
H20 C16 0.960 . S
H21 C16 0.961 . S
H22 C16 0.960 . S
H23 C19 0.960 . S
H24 C19 0.960 . S
H25 C19 0.959 . S
C26 N27 1.317 . S
C26 N28 1.348 . S
C26 C29 1.485 . S
N27 C26 1.317 . S
N27 N31 1.370 1_554 S
N28 C26 1.348 . S
N28 C30 1.346 1_554 S
C29 C26 1.485 . S
C29 H33 0.960 . S
C29 H34 0.961 . S
C29 H35 0.960 . S
C30 N28 1.346 1_556 S
C30 N31 1.307 . S
C30 C32 1.486 . S
N31 N27 1.370 1_556 S
N31 C30 1.307 . S
C32 C30 1.486 . S
C32 H36 0.960 . S
C32 H37 0.960 . S
C32 H38 0.959 . S
H33 C29 0.960 . S
H34 C29 0.961 . S
H35 C29 0.960 . S
H36 C32 0.960 . S
H37 C32 0.960 . S
H38 C32 0.959 . S
C39 N40 1.317 . S
C39 N41 1.348 . S
C39 C42 1.485 . S
N40 C39 1.317 . S
N40 N44 1.370 . S
N41 C39 1.348 . S
N41 C43 1.346 . S
C42 C39 1.485 . S
C42 H46 0.960 . S
C42 H47 0.961 . S
C42 H48 0.960 . S
C43 N41 1.346 . S
C43 N44 1.307 . S
C43 C45 1.486 . S
N44 N40 1.370 . S
N44 C43 1.307 . S
C45 C43 1.486 . S
C45 H49 0.960 . S
C45 H50 0.960 . S
C45 H51 0.959 . S
H46 C42 0.960 . S
H47 C42 0.961 . S
H48 C42 0.960 . S
H49 C45 0.960 . S
H50 C45 0.960 . S
H51 C45 0.959 . S
C52 O68 1.251 . S
C52 O70 1.254 . S
N53 C54 1.333 . S
N53 C58 1.307 . S
N53 Zn59 2.020 . S
C54 N53 1.333 . S
C54 C55 1.379 . S
C54 H72 0.952 . S
C55 C54 1.379 . S
C55 C56 1.390 . S
C55 H82 0.949 . S
C56 C55 1.390 . S
C56 C57 1.357 . S
C57 C56 1.357 . S
C57 C58 1.370 . S
C57 H83 0.950 . S
C58 N53 1.307 . S
C58 C57 1.370 . S
C58 H76 0.948 . S
Zn59 N53 2.020 . S
Zn59 O68 2.039 1_545 S
Zn59 O74 2.034 1_545 S
Zn59 O78 2.025 1_455 S
Zn59 O80 2.024 1_455 S
C60 O79 1.246 . S
C60 O80 1.249 . S
N61 C62 1.307 . S
N61 C63 1.333 . S
N61 Zn67 2.020 . S
C62 N61 1.307 . S
C62 C66 1.370 . S
C62 H73 0.948 . S
C63 N61 1.333 . S
C63 C64 1.379 . S
C63 H71 0.952 . S
C64 C63 1.379 . S
C64 C65 1.390 . S
C64 H84 0.949 . S
C65 C64 1.390 . S
C65 C66 1.357 . S
C66 C62 1.370 . S
C66 C65 1.357 . S
C66 H85 0.950 . S
Zn67 N61 2.020 . S
Zn67 O70 2.025 1_655 S
Zn67 O75 2.024 1_655 S
Zn67 O77 2.039 1_565 S
Zn67 O79 2.034 1_565 S
O68 C52 1.251 . S
O68 Zn59 2.039 1_565 S
C69 O74 1.246 . S
C69 O75 1.249 . S
O70 C52 1.254 . S
O70 Zn67 2.025 1_455 S
H71 C63 0.952 . S
H72 C54 0.952 . S
H73 C62 0.948 . S
O74 Zn59 2.034 1_565 S
O74 C69 1.246 . S
O75 Zn67 2.024 1_455 S
O75 C69 1.249 . S
H76 C58 0.948 . S
O77 Zn67 2.039 1_545 S
O77 C81 1.251 . S
O78 Zn59 2.025 1_655 S
O78 C81 1.254 . S
O79 C60 1.246 . S
O79 Zn67 2.034 1_545 S
O80 Zn59 2.024 1_655 S
O80 C60 1.249 . S
C81 O77 1.251 . S
C81 O78 1.254 . S
H82 C55 0.949 . S
H83 C57 0.950 . S
H84 C64 0.949 . S
H85 C66 0.950 . S
C86 O102 1.251 . S
C86 O104 1.254 . S
N87 C88 1.333 1_554 S
N87 C92 1.307 . S
N87 Zn93 2.020 . S
C88 N87 1.333 1_556 S
C88 C89 1.379 . S
C88 H106 0.952 . S
C89 C88 1.379 . S
C89 C90 1.390 1_556 S
C89 H116 0.949 . S
C90 C89 1.390 1_554 S
C90 C91 1.357 . S
C91 C90 1.357 . S
C91 C92 1.370 . S
C91 H117 0.950 . S
C92 N87 1.307 . S
C92 C91 1.370 . S
C92 H110 0.948 . S
Zn93 N87 2.020 . S
Zn93 O102 2.039 1_554 S
Zn93 O108 2.034 . S
Zn93 O112 2.025 . S
Zn93 O114 2.024 1_554 S
C94 O113 1.246 . S
C94 O114 1.249 . S
N95 C96 1.307 1_554 S
N95 C97 1.333 . S
N95 Zn101 2.020 . S
C96 N95 1.307 1_556 S
C96 C100 1.370 . S
C96 H107 0.948 . S
C97 N95 1.333 . S
C97 C98 1.379 . S
C97 H105 0.952 . S
C98 C97 1.379 . S
C98 C99 1.390 . S
C98 H118 0.949 . S
C99 C98 1.390 . S
C99 C100 1.357 1_554 S
C100 C96 1.370 . S
C100 C99 1.357 1_556 S
C100 H119 0.950 . S
Zn101 N95 2.020 . S
Zn101 O104 2.025 1_554 S
Zn101 O109 2.024 . S
Zn101 O111 2.039 . S
Zn101 O113 2.034 1_554 S
O102 C86 1.251 . S
O102 Zn93 2.039 1_556 S
C103 O108 1.246 . S
C103 O109 1.249 . S
O104 C86 1.254 . S
O104 Zn101 2.025 1_556 S
H105 C97 0.952 . S
H106 C88 0.952 . S
H107 C96 0.948 . S
O108 Zn93 2.034 . S
O108 C103 1.246 . S
O109 Zn101 2.024 . S
O109 C103 1.249 . S
H110 C92 0.948 . S
O111 Zn101 2.039 . S
O111 C115 1.251 . S
O112 Zn93 2.025 . S
O112 C115 1.254 . S
O113 C94 1.246 . S
O113 Zn101 2.034 1_556 S
O114 Zn93 2.024 1_556 S
O114 C94 1.249 . S
C115 O111 1.251 . S
C115 O112 1.254 . S
H116 C89 0.949 . S
H117 C91 0.950 . S
H118 C98 0.949 . S
H119 C100 0.950 . S
C120 C121 1.363 . S
C120 C126 1.379 . S
C120 N128 1.356 . S
C121 C120 1.363 . S
C121 C127 1.363 . S
C122 C123 1.363 . S
C122 C127 1.379 . S
C122 N129 1.356 . S
C123 C122 1.363 . S
C123 C126 1.363 . S
N124 C126 1.356 . S
N124 H136 0.984 . S
N124 H137 0.985 . S
N125 C127 1.356 . S
N125 H130 0.984 . S
N125 H131 0.985 . S
C126 C120 1.379 . S
C126 C123 1.363 . S
C126 N124 1.356 . S
C127 C121 1.363 . S
C127 C122 1.379 . S
C127 N125 1.356 . S
N128 C120 1.356 . S
N128 H134 0.984 . S
N128 H135 0.984 . S
N129 C122 1.356 . S
N129 H132 0.984 . S
N129 H133 0.985 . S
H130 N125 0.984 . S
H131 N125 0.985 . S
H132 N129 0.984 . S
H133 N129 0.985 . S
H134 N128 0.984 . S
H135 N128 0.984 . S
H136 N124 0.984 . S
H137 N124 0.985 . S
C138 C139 1.363 . S
C138 C144 1.379 . S
C138 N146 1.356 . S
C139 C138 1.363 . S
C139 C145 1.363 1_554 S
C140 C141 1.363 1_556 S
C140 C145 1.379 . S
C140 N147 1.356 . S
C141 C140 1.363 1_554 S
C141 C144 1.363 . S
N142 C144 1.356 . S
N142 H154 0.984 . S
N142 H155 0.985 . S
N143 C145 1.356 . S
N143 H148 0.984 . S
N143 H149 0.985 . S
C144 C138 1.379 . S
C144 C141 1.363 . S
C144 N142 1.356 . S
C145 C139 1.363 1_556 S
C145 C140 1.379 . S
C145 N143 1.356 . S
N146 C138 1.356 . S
N146 H152 0.984 . S
N146 H153 0.984 . S
N147 C140 1.356 . S
N147 H150 0.984 . S
N147 H151 0.985 . S
H148 N143 0.984 . S
H149 N143 0.985 . S
H150 N147 0.984 . S
H151 N147 0.985 . S
H152 N146 0.984 . S
H153 N146 0.984 . S
H154 N142 0.984 . S
H155 N142 0.985 . S
C156 C157 1.363 . S
C156 C162 1.379 . S
C156 N164 1.356 . S
C157 C156 1.363 . S
C157 C163 1.363 . S
C158 C159 1.363 . S
C158 C163 1.379 . S
C158 N165 1.356 . S
C159 C158 1.363 . S
C159 C162 1.363 . S
N160 C162 1.356 . S
N160 H172 0.984 . S
N160 H173 0.985 . S
N161 C163 1.356 . S
N161 H166 0.984 . S
N161 H167 0.985 . S
C162 C156 1.379 . S
C162 C159 1.363 . S
C162 N160 1.356 . S
C163 C157 1.363 . S
C163 C158 1.379 . S
C163 N161 1.356 . S
N164 C156 1.356 . S
N164 H170 0.984 . S
N164 H171 0.984 . S
N165 C158 1.356 . S
N165 H168 0.984 . S
N165 H169 0.985 . S
H166 N161 0.984 . S
H167 N161 0.985 . S
H168 N165 0.984 . S
H169 N165 0.985 . S
H170 N164 0.984 . S
H171 N164 0.984 . S
H172 N160 0.984 . S
H173 N160 0.985 . S
C174 C175 1.363 . S
C174 C180 1.379 . S
C174 N182 1.356 . S
C175 C174 1.363 . S
C175 C181 1.363 1_554 S
C176 C177 1.363 1_556 S
C176 C181 1.379 . S
C176 N183 1.356 . S
C177 C176 1.363 1_554 S
C177 C180 1.363 . S
N178 C180 1.356 . S
N178 H190 0.984 . S
N178 H191 0.985 . S
N179 C181 1.356 . S
N179 H184 0.984 . S
N179 H185 0.985 . S
C180 C174 1.379 . S
C180 C177 1.363 . S
C180 N178 1.356 . S
C181 C175 1.363 1_556 S
C181 C176 1.379 . S
C181 N179 1.356 . S
N182 C174 1.356 . S
N182 H188 0.984 . S
N182 H189 0.984 . S
N183 C176 1.356 . S
N183 H186 0.984 . S
N183 H187 0.985 . S
H184 N179 0.984 . S
H185 N179 0.985 . S
H186 N183 0.984 . S
H187 N183 0.985 . S
H188 N182 0.984 . S
H189 N182 0.984 . S
H190 N178 0.984 . S
H191 N178 0.985 . S
C192 C193 1.363 . S
C192 C198 1.379 . S
C192 N200 1.356 . S
C193 C192 1.363 . S
C193 C199 1.363 . S
C194 C195 1.363 . S
C194 C199 1.379 . S
C194 N201 1.356 . S
C195 C194 1.363 . S
C195 C198 1.363 . S
N196 C198 1.356 . S
N196 H208 0.984 . S
N196 H209 0.985 . S
N197 C199 1.356 . S
N197 H202 0.984 1_554 S
N197 H203 0.985 1_554 S
C198 C192 1.379 . S
C198 C195 1.363 . S
C198 N196 1.356 . S
C199 C193 1.363 . S
C199 C194 1.379 . S
C199 N197 1.356 . S
N200 C192 1.356 . S
N200 H206 0.984 . S
N200 H207 0.984 . S
N201 C194 1.356 . S
N201 H204 0.984 . S
N201 H205 0.985 . S
H202 N197 0.984 1_556 S
H203 N197 0.985 1_556 S
H204 N201 0.984 . S
H205 N201 0.985 . S
H206 N200 0.984 . S
H207 N200 0.984 . S
H208 N196 0.984 . S
H209 N196 0.985 . S
C210 C211 1.363 . S
C210 C216 1.379 . S
C210 N218 1.356 . S
C211 C210 1.363 . S
C211 C217 1.363 . S
C212 C213 1.363 . S
C212 C217 1.379 . S
C212 N219 1.356 . S
C213 C212 1.363 . S
C213 C216 1.363 . S
N214 C216 1.356 . S
N214 H226 0.984 . S
N214 H227 0.985 . S
N215 C217 1.356 . S
N215 H220 0.984 . S
N215 H221 0.985 . S
C216 C210 1.379 . S
C216 C213 1.363 . S
C216 N214 1.356 . S
C217 C211 1.363 . S
C217 C212 1.379 . S
C217 N215 1.356 . S
N218 C210 1.356 . S
N218 H224 0.984 . S
N218 H225 0.984 . S
N219 C212 1.356 . S
N219 H222 0.984 . S
N219 H223 0.985 . S
H220 N215 0.984 . S
H221 N215 0.985 . S
H222 N219 0.984 . S
H223 N219 0.985 . S
H224 N218 0.984 . S
H225 N218 0.984 . S
H226 N214 0.984 . S
H227 N214 0.985 . S
C228 C229 1.363 . S
C228 C234 1.379 . S
C228 N236 1.356 . S
C229 C228 1.363 . S
C229 C235 1.363 . S
C230 C231 1.363 . S
C230 C235 1.379 . S
C230 N237 1.356 1_545 S
C231 C230 1.363 . S
C231 C234 1.363 . S
N232 C234 1.356 . S
N232 H244 0.984 . S
N232 H245 0.985 . S
N233 C235 1.356 . S
N233 H238 0.984 . S
N233 H239 0.985 . S
C234 C228 1.379 . S
C234 C231 1.363 . S
C234 N232 1.356 . S
C235 C229 1.363 . S
C235 C230 1.379 . S
C235 N233 1.356 . S
N236 C228 1.356 . S
N236 H242 0.984 . S
N236 H243 0.984 . S
N237 C230 1.356 1_565 S
N237 H240 0.984 . S
N237 H241 0.985 . S
H238 N233 0.984 . S
H239 N233 0.985 . S
H240 N237 0.984 . S
H241 N237 0.985 . S
H242 N236 0.984 . S
H243 N236 0.984 . S
H244 N232 0.984 . S
H245 N232 0.985 . S
C246 C247 1.363 . S
C246 C252 1.379 . S
C246 N254 1.356 . S
C247 C246 1.363 . S
C247 C253 1.363 . S
C248 C249 1.363 . S
C248 C253 1.379 . S
C248 N255 1.356 . S
C249 C248 1.363 . S
C249 C252 1.363 . S
N250 C252 1.356 . S
N250 H262 0.984 . S
N250 H263 0.985 . S
N251 C253 1.356 . S
N251 H256 0.984 . S
N251 H257 0.985 . S
C252 C246 1.379 . S
C252 C249 1.363 . S
C252 N250 1.356 . S
C253 C247 1.363 . S
C253 C248 1.379 . S
C253 N251 1.356 . S
N254 C246 1.356 . S
N254 H260 0.984 . S
N254 H261 0.984 . S
N255 C248 1.356 . S
N255 H258 0.984 . S
N255 H259 0.985 . S
H256 N251 0.984 . S
H257 N251 0.985 . S
H258 N255 0.984 . S
H259 N255 0.985 . S
H260 N254 0.984 . S
H261 N254 0.984 . S
H262 N250 0.984 . S
H263 N250 0.985 . S
C264 C265 1.363 . S
C264 C270 1.379 . S
C264 N272 1.356 . S
C265 C264 1.363 . S
C265 C271 1.363 . S
C266 C267 1.363 . S
C266 C271 1.379 . S
C266 N273 1.356 . S
C267 C266 1.363 . S
C267 C270 1.363 . S
N268 C270 1.356 . S
N268 H280 0.984 . S
N268 H281 0.985 . S
N269 C271 1.356 . S
N269 H274 0.984 . S
N269 H275 0.985 . S
C270 C264 1.379 . S
C270 C267 1.363 . S
C270 N268 1.356 . S
C271 C265 1.363 . S
C271 C266 1.379 . S
C271 N269 1.356 . S
N272 C264 1.356 . S
N272 H278 0.984 . S
N272 H279 0.984 . S
N273 C266 1.356 . S
N273 H276 0.984 . S
N273 H277 0.985 . S
H274 N269 0.984 . S
H275 N269 0.985 . S
H276 N273 0.984 . S
H277 N273 0.985 . S
H278 N272 0.984 . S
H279 N272 0.984 . S
H280 N268 0.984 . S
H281 N268 0.985 . S
C282 C283 1.363 . S
C282 C288 1.379 . S
C282 N290 1.356 . S
C283 C282 1.363 . S
C283 C289 1.363 . S
C284 C285 1.363 . S
C284 C289 1.379 . S
C284 N291 1.356 1_545 S
C285 C284 1.363 . S
C285 C288 1.363 . S
N286 C288 1.356 . S
N286 H298 0.984 . S
N286 H299 0.985 . S
N287 C289 1.356 . S
N287 H292 0.984 . S
N287 H293 0.985 . S
C288 C282 1.379 . S
C288 C285 1.363 . S
C288 N286 1.356 . S
C289 C283 1.363 . S
C289 C284 1.379 . S
C289 N287 1.356 . S
N290 C282 1.356 . S
N290 H296 0.984 . S
N290 H297 0.984 . S
N291 C284 1.356 1_565 S
N291 H294 0.984 . S
N291 H295 0.985 . S
H292 N287 0.984 . S
H293 N287 0.985 . S
H294 N291 0.984 . S
H295 N291 0.985 . S
H296 N290 0.984 . S
H297 N290 0.984 . S
H298 N286 0.984 . S
H299 N286 0.985 . S
C300 C301 1.363 . S
C300 C306 1.379 . S
C300 N308 1.356 . S
C301 C300 1.363 . S
C301 C307 1.363 . S
C302 C303 1.363 . S
C302 C307 1.379 . S
C302 N309 1.356 . S
C303 C302 1.363 . S
C303 C306 1.363 . S
N304 C306 1.356 . S
N304 H316 0.984 . S
N304 H317 0.985 . S
N305 C307 1.356 . S
N305 H310 0.984 . S
N305 H311 0.985 . S
C306 C300 1.379 . S
C306 C303 1.363 . S
C306 N304 1.356 . S
C307 C301 1.363 . S
C307 C302 1.379 . S
C307 N305 1.356 . S
N308 C300 1.356 . S
N308 H314 0.984 . S
N308 H315 0.984 . S
N309 C302 1.356 . S
N309 H312 0.984 . S
N309 H313 0.985 . S
H310 N305 0.984 . S
H311 N305 0.985 . S
H312 N309 0.984 . S
H313 N309 0.985 . S
H314 N308 0.984 . S
H315 N308 0.984 . S
H316 N304 0.984 . S
H317 N304 0.985 . S
C318 C319 1.363 . S
C318 C324 1.379 . S
C318 N326 1.356 . S
C319 C318 1.363 . S
C319 C325 1.363 . S
C320 C321 1.363 . S
C320 C325 1.379 . S
C320 N327 1.356 . S
C321 C320 1.363 . S
C321 C324 1.363 . S
N322 C324 1.356 . S
N322 H334 0.984 . S
N322 H335 0.985 . S
N323 C325 1.356 1_554 S
N323 H328 0.984 . S
N323 H329 0.985 . S
C324 C318 1.379 . S
C324 C321 1.363 . S
C324 N322 1.356 . S
C325 C319 1.363 . S
C325 C320 1.379 . S
C325 N323 1.356 1_556 S
N326 C318 1.356 . S
N326 H332 0.984 . S
N326 H333 0.984 . S
N327 C320 1.356 . S
N327 H330 0.984 . S
N327 H331 0.985 . S
H328 N323 0.984 . S
H329 N323 0.985 . S
H330 N327 0.984 . S
H331 N327 0.985 . S
H332 N326 0.984 . S
H333 N326 0.984 . S
H334 N322 0.984 . S
H335 N322 0.985 . S
C123 C56 1.507 . S
C121 N41 1.509 . S
C139 N2 1.509 . S
C141 C99 1.507 . S
C157 N15 1.508 . S
C159 C65 1.507 . S
C175 N28 1.508 . S
C177 C90 1.507 . S
C195 C52 1.516 . S
C193 N5 1.512 . S
C213 C94 1.512 . S
C211 N14 1.508 . S
C229 N27 1.506 . S
C231 C60 1.512 . S
C247 N44 1.509 . S
C249 C86 1.515 . S
C267 C115 1.515 . S
C265 N18 1.509 . S
C285 C81 1.516 . S
C283 N31 1.511 . S
C303 C103 1.512 . S
C301 N40 1.511 . S
C319 N1 1.509 . S
C321 C69 1.512 . S
