# Generated by pormake.
# Topology ssa, (4,4)-cn, num edge types: 1
# Building blocks:
#     Node 0, Type 0, BuildingBlock: KOZSID_clean_sbu_0, # of connection points: 4
#     Node 1, Type 0, BuildingBlock: KOZSID_clean_sbu_0, # of connection points: 4
#     Node 2, Type 0, BuildingBlock: KOZSID_clean_sbu_0, # of connection points: 4
#     Node 3, Type 0, BuildingBlock: KOZSID_clean_sbu_0, # of connection points: 4
#     Node 4, Type 0, BuildingBlock: KOZSID_clean_sbu_0, # of connection points: 4
#     Node 5, Type 0, BuildingBlock: KOZSID_clean_sbu_0, # of connection points: 4
#     Node 6, Type 1, BuildingBlock: AZAVOO_clean_linker_0, # of connection points: 4
#     Node 7, Type 1, BuildingBlock: AZAVOO_clean_linker_0, # of connection points: 4
#     Node 8, Type 1, BuildingBlock: AZAVOO_clean_linker_0, # of connection points: 4
#     Node 9, Type 1, BuildingBlock: AZAVOO_clean_linker_0, # of connection points: 4
#     Node 10, Type 1, BuildingBlock: AZAVOO_clean_linker_0, # of connection points: 4
#     Node 11, Type 1, BuildingBlock: AZAVOO_clean_linker_0, # of connection points: 4
#     Edge 12, Type (0, 1), BuildingBlock: XIVTED_clean_linker_0, # of connection points: 2
#     Edge 13, Type (0, 1), BuildingBlock: XIVTED_clean_linker_0, # of connection points: 2
#     Edge 14, Type (0, 1), BuildingBlock: XIVTED_clean_linker_0, # of connection points: 2
#     Edge 15, Type (0, 1), BuildingBlock: XIVTED_clean_linker_0, # of connection points: 2
#     Edge 16, Type (0, 1), BuildingBlock: XIVTED_clean_linker_0, # of connection points: 2
#     Edge 17, Type (0, 1), BuildingBlock: XIVTED_clean_linker_0, # of connection points: 2
#     Edge 18, Type (0, 1), BuildingBlock: XIVTED_clean_linker_0, # of connection points: 2
#     Edge 19, Type (0, 1), BuildingBlock: XIVTED_clean_linker_0, # of connection points: 2
#     Edge 20, Type (0, 1), BuildingBlock: XIVTED_clean_linker_0, # of connection points: 2
#     Edge 21, Type (0, 1), BuildingBlock: XIVTED_clean_linker_0, # of connection points: 2
#     Edge 22, Type (0, 1), BuildingBlock: XIVTED_clean_linker_0, # of connection points: 2
#     Edge 23, Type (0, 1), BuildingBlock: XIVTED_clean_linker_0, # of connection points: 2
#     Edge 24, Type (0, 1), BuildingBlock: XIVTED_clean_linker_0, # of connection points: 2
#     Edge 25, Type (0, 1), BuildingBlock: XIVTED_clean_linker_0, # of connection points: 2
#     Edge 26, Type (0, 1), BuildingBlock: XIVTED_clean_linker_0, # of connection points: 2
#     Edge 27, Type (0, 1), BuildingBlock: XIVTED_clean_linker_0, # of connection points: 2
#     Edge 28, Type (0, 1), BuildingBlock: XIVTED_clean_linker_0, # of connection points: 2
#     Edge 29, Type (0, 1), BuildingBlock: XIVTED_clean_linker_0, # of connection points: 2
#     Edge 30, Type (0, 1), BuildingBlock: XIVTED_clean_linker_0, # of connection points: 2
#     Edge 31, Type (0, 1), BuildingBlock: XIVTED_clean_linker_0, # of connection points: 2
#     Edge 32, Type (0, 1), BuildingBlock: XIVTED_clean_linker_0, # of connection points: 2
#     Edge 33, Type (0, 1), BuildingBlock: XIVTED_clean_linker_0, # of connection points: 2
#     Edge 34, Type (0, 1), BuildingBlock: XIVTED_clean_linker_0, # of connection points: 2
#     Edge 35, Type (0, 1), BuildingBlock: XIVTED_clean_linker_0, # of connection points: 2
# Relax obj value: 0.069
# Max RMSD: 0.232
# Mean RMSD: 0.120
data_MOF--net-ssa--node1-KOZSID_clean_sbu_0--node2-AZAVOO_clean_linker_0--edge1-XIVTED_clean_linker_0
_symmetry_space_group_name_H-M    P1
_symmetry_Int_Tables_number       1
_symmetry_cell_setting            triclinic
loop_
_symmetry_equiv_pos_as_xyz
'x, y, z'
_cell_length_a     53.759888
_cell_length_b     55.294561
_cell_length_c     51.980367
_cell_angle_alpha  87.514425
_cell_angle_beta   92.625483
_cell_angle_gamma 122.42785
loop_
_atom_site_label
_atom_site_type_symbol
_atom_site_fract_x
_atom_site_fract_y
_atom_site_fract_z
_atom_type_partial_charge
C0 C 0.0958 0.56236 0.00019 0.0
C1 C 0.06617 0.54763 0.0064 0.0
C2 C 0.05962 0.52224 0.01801 0.0
C3 C 0.08542 0.52276 0.0183 0.0
N4 N 0.10787 0.54708 0.00783 0.0
Co5 Co 0.14845 0.55605 0.00377 0.0
N6 N 0.1426 0.52668 0.03014 0.0
C7 C 0.1166 0.50428 0.03805 0.0
C8 C 0.11975 0.48755 0.05657 0.0
C9 C 0.14961 0.50023 0.06038 0.0
C10 C 0.16295 0.52405 0.0439 0.0
N11 N 0.18893 0.56473 -0.0002 0.0
C12 C 0.20535 0.55879 0.01615 0.0
C13 C 0.2328 0.56871 0.00619 0.0
C14 C 0.23336 0.58125 0.98263 0.0
C15 C 0.20631 0.57826 0.9796 0.0
N16 N 0.15426 0.58532 0.97723 0.0
C17 C 0.17545 0.59715 0.95955 0.0
C18 C 0.17396 0.61684 0.94365 0.0
C19 C 0.15018 0.61715 0.95168 0.0
C20 C 0.13834 0.59743 0.97203 0.0
N21 N 0.16277 0.58472 0.03038 0.0
C22 C 0.18161 0.62643 0.06779 0.0
C23 C 0.19722 0.63247 0.0451 0.0
C24 C 0.18745 0.61134 0.02666 0.0
C25 C 0.15668 0.59886 0.07151 0.0
C26 C 0.14767 0.57839 0.05263 0.0
N27 N 0.13388 0.52728 0.97712 0.0
C28 C 0.10083 0.50347 0.94121 0.0
C29 C 0.10836 0.4828 0.94183 0.0
C30 C 0.1299 0.4856 0.95989 0.0
C31 C 0.14242 0.508 0.97731 0.0
C32 C 0.11387 0.52549 0.95887 0.0
H33 H 0.15847 0.50929 0.99135 0.0
H34 H 0.10696 0.54054 0.95823 0.0
H35 H 0.19968 0.61664 0.00926 0.0
H36 H 0.12832 0.55744 0.05597 0.0
C37 C 0.09042 0.50299 0.03136 0.0
C38 C 0.11041 0.5887 0.98412 0.0
C39 C 0.19477 0.54266 0.04048 0.0
C40 C 0.19864 0.59241 0.96098 0.0
H41 H 0.05065 0.55415 0.0024 0.0
H42 H 0.03872 0.50569 0.02582 0.0
H43 H 0.10249 0.46912 0.06689 0.0
H44 H 0.1603 0.49279 0.0737 0.0
H45 H 0.25051 0.56714 0.01504 0.0
H46 H 0.25178 0.59238 0.96987 0.0
H47 H 0.18886 0.63001 0.92854 0.0
H48 H 0.14221 0.63008 0.94325 0.0
H49 H 0.21651 0.65352 0.04132 0.0
H50 H 0.14424 0.59302 0.08896 0.0
H51 H 0.08404 0.50208 0.92789 0.0
H52 H 0.13676 0.4704 0.96084 0.0
C53 C 0.61628 0.02341 0.5998 0.0
C54 C 0.61347 0.00953 0.62343 0.0
C55 C 0.58695 0.98414 0.62263 0.0
C56 C 0.57492 0.98405 0.59882 0.0
N57 N 0.59224 0.00776 0.58421 0.0
Co58 Co 0.5817 0.01764 0.54948 0.0
N59 N 0.54267 0.98021 0.54838 0.0
C60 C 0.53255 0.95848 0.56602 0.0
C61 C 0.5057 0.93487 0.55946 0.0
C62 C 0.4983 0.94177 0.53607 0.0
C63 C 0.5211 0.96941 0.5298 0.0
N64 N 0.57058 0.02824 0.51541 0.0
C65 C 0.54575 0.01347 0.50056 0.0
C66 C 0.54643 0.02925 0.47878 0.0
C67 C 0.5728 0.05479 0.47974 0.0
C68 C 0.58654 0.05323 0.50202 0.0
N69 N 0.62132 0.05435 0.54987 0.0
C70 C 0.63273 0.07462 0.53087 0.0
C71 C 0.66112 0.0966 0.53583 0.0
C72 C 0.66829 0.09008 0.55949 0.0
C73 C 0.64357 0.06456 0.56777 0.0
N74 N 0.59919 0.99917 0.53202 0.0
C75 C 0.62119 0.97109 0.50604 0.0
C76 C 0.62347 0.99586 0.49554 0.0
C77 C 0.61261 0.00957 0.50883 0.0
C78 C 0.60844 0.96103 0.53004 0.0
C79 C 0.59758 0.97521 0.54255 0.0
N80 N 0.56415 0.036 0.56701 0.0
C81 C 0.5627 0.07785 0.57576 0.0
C82 C 0.54066 0.06234 0.59375 0.0
C83 C 0.53017 0.03328 0.59761 0.0
C84 C 0.54216 0.02071 0.58428 0.0
C85 C 0.57395 0.06434 0.56262 0.0
H86 H 0.53334 0.99861 0.58846 0.0
H87 H 0.59077 0.07734 0.54922 0.0
H88 H 0.61507 0.02837 0.4998 0.0
H89 H 0.58758 0.96606 0.56054 0.0
C90 C 0.54794 0.96162 0.58926 0.0
C91 C 0.64198 0.05151 0.59317 0.0
C92 C 0.52142 0.98429 0.50585 0.0
C93 C 0.61545 0.07357 0.50959 0.0
H94 H 0.62882 0.01696 0.63972 0.0
H95 H 0.57753 0.96772 0.63764 0.0
H96 H 0.49292 0.91508 0.57046 0.0
H97 H 0.47837 0.92801 0.5249 0.0
H98 H 0.52978 0.02277 0.46356 0.0
H99 H 0.58127 0.07212 0.46554 0.0
H100 H 0.67477 0.11541 0.52392 0.0
H101 H 0.68922 0.10294 0.56966 0.0
H102 H 0.63357 0.00464 0.4771 0.0
H103 H 0.60597 0.94175 0.53882 0.0
H104 H 0.57179 0.10048 0.57217 0.0
H105 H 0.51266 0.0201 0.61088 0.0
C106 C 0.64114 0.54704 0.04049 0.0
C107 C 0.64602 0.56366 0.01814 0.0
C108 C 0.61962 0.56023 0.01061 0.0
C109 C 0.60004 0.54172 0.02853 0.0
N110 N 0.61253 0.53356 0.04715 0.0
Co111 Co 0.59116 0.50527 0.07534 0.0
N112 N 0.55671 0.50927 0.07044 0.0
C113 C 0.55018 0.52003 0.04939 0.0
C114 C 0.52527 0.52072 0.052 0.0
C115 C 0.51552 0.5096 0.07618 0.0
C116 C 0.53504 0.50257 0.08692 0.0
N117 N 0.56946 0.47681 0.10324 0.0
C118 C 0.54659 0.47267 0.11686 0.0
C119 C 0.53789 0.45048 0.13486 0.0
C120 C 0.55621 0.44056 0.13239 0.0
C121 C 0.57492 0.45714 0.11303 0.0
N122 N 0.62557 0.50118 0.08043 0.0
C123 C 0.62573 0.47971 0.09359 0.0
C124 C 0.65292 0.48301 0.09466 0.0
C125 C 0.67085 0.50779 0.08095 0.0
C126 C 0.65343 0.5181 0.07188 0.0
N127 N 0.60849 0.53587 0.1003 0.0
C128 C 0.63051 0.57822 0.13743 0.0
C129 C 0.63014 0.55293 0.1423 0.0
C130 C 0.61916 0.53214 0.1235 0.0
C131 C 0.62018 0.58212 0.11334 0.0
C132 C 0.60921 0.56067 0.09507 0.0
N133 N 0.57379 0.47449 0.05039 0.0
C134 C 0.5797 0.45157 0.01502 0.0
C135 C 0.54963 0.43034 0.01489 0.0
C136 C 0.53175 0.43175 0.03275 0.0
C137 C 0.54431 0.45389 0.05049 0.0
C138 C 0.59126 0.47344 0.03275 0.0
H139 H 0.53019 0.45426 0.06434 0.0
H140 H 0.61444 0.48948 0.03211 0.0
H141 H 0.61898 0.51284 0.12791 0.0
H142 H 0.60086 0.56393 0.07688 0.0
C143 C 0.57079 0.53415 0.03008 0.0
C144 C 0.66307 0.54159 0.05259 0.0
C145 C 0.53182 0.48836 0.11213 0.0
C146 C 0.6012 0.45914 0.1075 0.0
H147 H 0.66624 0.57627 0.00774 0.0
H148 H 0.61532 0.57025 0.99414 0.0
H149 H 0.51612 0.52959 0.03849 0.0
H150 H 0.49638 0.50716 0.08488 0.0
H151 H 0.52029 0.44246 0.14841 0.0
H152 H 0.55678 0.42427 0.14423 0.0
H153 H 0.65918 0.46942 0.10471 0.0
H154 H 0.69393 0.51681 0.07745 0.0
H155 H 0.63831 0.54921 0.16051 0.0
H156 H 0.61985 0.60126 0.10884 0.0
H157 H 0.59421 0.45149 0.00128 0.0
H158 H 0.50839 0.41564 0.03331 0.0
C159 C 0.98731 0.41443 0.57213 0.0
C160 C 0.9595 0.39074 0.56656 0.0
C161 C 0.94897 0.39791 0.54515 0.0
C162 C 0.97081 0.42545 0.53891 0.0
N163 N 0.9948 0.43624 0.55489 0.0
Co164 Co 0.03138 0.47565 0.55309 0.0
N165 N 0.01421 0.48741 0.5238 0.0
C166 C 0.98677 0.47159 0.51319 0.0
C167 C 0.98104 0.48558 0.49372 0.0
C168 C 0.0064 0.5119 0.49164 0.0
C169 C 0.02627 0.51231 0.50993 0.0
N170 N 0.06845 0.51469 0.55067 0.0
C171 C 0.07579 0.53659 0.53357 0.0
C172 C 0.10467 0.55926 0.53761 0.0
C173 C 0.11595 0.55144 0.55797 0.0
C174 C 0.09356 0.5245 0.56506 0.0
N175 N 0.04808 0.46428 0.58311 0.0
C176 C 0.07494 0.48056 0.59469 0.0
C177 C 0.07968 0.46737 0.61553 0.0
C178 C 0.05409 0.44128 0.61778 0.0
C179 C 0.03516 0.44014 0.59809 0.0
N180 N 0.048 0.46186 0.52833 0.0
C181 C 0.07563 0.45027 0.49017 0.0
C182 C 0.08947 0.46062 0.51409 0.0
C183 C 0.07537 0.46609 0.53273 0.0
C184 C 0.04686 0.44395 0.48629 0.0
C185 C 0.03351 0.44975 0.50554 0.0
N186 N 0.01498 0.48972 0.57768 0.0
C187 C 0.0222 0.52007 0.61301 0.0
C188 C 0.99222 0.51033 0.61264 0.0
C189 C 0.97384 0.49001 0.59435 0.0
C190 C 0.98558 0.48018 0.57713 0.0
C191 C 0.03293 0.50943 0.59571 0.0
H192 H 0.97045 0.46478 0.56362 0.0
H193 H 0.0559 0.51758 0.5973 0.0
H194 H 0.08747 0.47439 0.55027 0.0
H195 H 0.01178 0.44499 0.50125 0.0
C196 C 0.96788 0.44288 0.52041 0.0
C197 C 0.00485 0.41604 0.595 0.0
C198 C 0.05664 0.53642 0.51265 0.0
C199 C 0.09529 0.50809 0.58539 0.0
H200 H 0.94755 0.37069 0.57731 0.0
H201 H 0.9274 0.38507 0.53598 0.0
H202 H 0.96108 0.47736 0.48197 0.0
H203 H 0.0101 0.52869 0.47787 0.0
H204 H 0.1166 0.57926 0.52679 0.0
H205 H 0.13795 0.56382 0.56644 0.0
H206 H 0.09929 0.47583 0.6278 0.0
H207 H 0.04966 0.42505 0.63245 0.0
H208 H 0.11143 0.46501 0.51833 0.0
H209 H 0.0351 0.43566 0.46812 0.0
H210 H 0.0376 0.53616 0.6264 0.0
H211 H 0.95037 0.48139 0.59343 0.0
C212 C 0.52215 0.03025 0.13272 0.0
C213 C 0.52356 0.04506 0.1542 0.0
C214 C 0.54903 0.07136 0.15268 0.0
C215 C 0.56174 0.07112 0.13052 0.0
N216 N 0.54579 0.04633 0.11764 0.0
Co217 Co 0.55657 0.03651 0.08495 0.0
N218 N 0.59639 0.07306 0.08527 0.0
C219 C 0.60749 0.0936 0.10321 0.0
C220 C 0.636 0.11546 0.09915 0.0
C221 C 0.6437 0.10842 0.07736 0.0
C222 C 0.61921 0.08267 0.06923 0.0
N223 N 0.56686 0.02705 0.05181 0.0
C224 C 0.59196 0.04164 0.03827 0.0
C225 C 0.58931 0.02814 0.01546 0.0
C226 C 0.56175 0.00399 0.01474 0.0
C227 C 0.54907 0.00419 0.03691 0.0
N228 N 0.51732 0.99933 0.08528 0.0
C229 C 0.50612 0.97867 0.06743 0.0
C230 C 0.47921 0.95505 0.07344 0.0
C231 C 0.47309 0.96065 0.09681 0.0
C232 C 0.49678 0.98746 0.10372 0.0
N233 N 0.53952 0.05589 0.06465 0.0
C234 C 0.52294 0.08561 0.02983 0.0
C235 C 0.51039 0.05617 0.02794 0.0
C236 C 0.5187 0.04184 0.04551 0.0
C237 C 0.54203 0.09952 0.05072 0.0
C238 C 0.54985 0.08431 0.06786 0.0
N239 N 0.57381 0.01741 0.10483 0.0
C240 C 0.58379 0.97973 0.10895 0.0
C241 C 0.60013 0.9911 0.1318 0.0
C242 C 0.60279 0.01581 0.14101 0.0
C243 C 0.58964 0.02857 0.12729 0.0
C244 C 0.57074 0.99295 0.09602 0.0
H245 H 0.59257 0.04747 0.13516 0.0
H246 H 0.55842 0.98311 0.07881 0.0
H247 H 0.50848 0.01956 0.04263 0.0
H248 H 0.56497 0.09629 0.08304 0.0
C249 C 0.59036 0.09198 0.12339 0.0
C250 C 0.49903 0.0004 0.12826 0.0
C251 C 0.6187 0.06827 0.04616 0.0
C252 C 0.52144 0.98218 0.0452 0.0
H253 H 0.50837 0.0374 0.16986 0.0
H254 H 0.55797 0.0881 0.16675 0.0
H255 H 0.64959 0.13424 0.11068 0.0
H256 H 0.66498 0.12084 0.06849 0.0
H257 H 0.60563 0.03493 0.00085 0.0
H258 H 0.55226 0.98794 1e-05 0.0
H259 H 0.46582 0.9359 0.0623 0.0
H260 H 0.45354 0.94646 0.1077 0.0
H261 H 0.4947 0.04429 0.01253 0.0
H262 H 0.55203 0.1223 0.05316 0.0
H263 H 0.58133 0.96087 0.10073 0.0
H264 H 0.61473 0.02521 0.15886 0.0
C265 C 0.59441 0.60248 0.56113 0.0
C266 C 0.59081 0.6254 0.56296 0.0
C267 C 0.5696 0.61746 0.58064 0.0
C268 C 0.56146 0.59027 0.58852 0.0
N269 N 0.57649 0.58048 0.57723 0.0
Co270 Co 0.57093 0.54169 0.58231 0.0
N271 N 0.53719 0.52874 0.6058 0.0
C272 C 0.52531 0.54379 0.61233 0.0
C273 C 0.5026 0.52935 0.62909 0.0
C274 C 0.50001 0.50364 0.6338 0.0
C275 C 0.52147 0.50398 0.61965 0.0
N276 N 0.56578 0.5031 0.58777 0.0
C277 C 0.54753 0.48093 0.60358 0.0
C278 C 0.55205 0.4585 0.60259 0.0
C279 C 0.57409 0.46687 0.58572 0.0
C280 C 0.58184 0.49384 0.57748 0.0
N281 N 0.60427 0.55445 0.5584 0.0
C282 C 0.61575 0.53921 0.55133 0.0
C283 C 0.63762 0.55324 0.53374 0.0
C284 C 0.63986 0.57877 0.52885 0.0
C285 C 0.61911 0.57874 0.54379 0.0
N286 N 0.59881 0.55588 0.61243 0.0
C287 C 0.63359 0.56905 0.65802 0.0
C288 C 0.63839 0.55691 0.63733 0.0
C289 C 0.62104 0.55071 0.61489 0.0
C290 C 0.61225 0.57606 0.65498 0.0
C291 C 0.59527 0.56939 0.63215 0.0
N292 N 0.54295 0.52729 0.55233 0.0
C293 C 0.52445 0.49972 0.51347 0.0
C294 C 0.50381 0.50753 0.50925 0.0
C295 C 0.50311 0.5254 0.52704 0.0
C296 C 0.5226 0.53484 0.54828 0.0
C297 C 0.54368 0.50981 0.53488 0.0
H298 H 0.52093 0.54841 0.56106 0.0
H299 H 0.55897 0.50321 0.53684 0.0
H300 H 0.62564 0.54115 0.60007 0.0
H301 H 0.57893 0.57471 0.63121 0.0
C302 C 0.53764 0.57231 0.6042 0.0
C303 C 0.61335 0.60168 0.54245 0.0
C304 C 0.52684 0.4808 0.62087 0.0
C305 C 0.60464 0.51129 0.56069 0.0
H306 H 0.60161 0.6454 0.55203 0.0
H307 H 0.56029 0.62957 0.58619 0.0
H308 H 0.49006 0.53697 0.63752 0.0
H309 H 0.48456 0.48679 0.64666 0.0
H310 H 0.54105 0.4384 0.61336 0.0
H311 H 0.58377 0.45497 0.58052 0.0
H312 H 0.6499 0.54552 0.525 0.0
H313 H 0.6546 0.59529 0.51538 0.0
H314 H 0.65531 0.55186 0.63851 0.0
H315 H 0.60788 0.58568 0.67045 0.0
H316 H 0.52569 0.48563 0.50047 0.0
H317 H 0.4879 0.53253 0.52446 0.0
H318 H 0.28939 0.45048 0.45804 0.0
H319 H 0.11438 0.41745 0.20711 0.0
H320 H 0.34163 0.496 0.3222 0.0
H321 H 0.3783 0.50373 0.35584 0.0
H322 H 0.35917 0.41827 0.34554 0.0
H323 H 0.3219 0.41044 0.31186 0.0
H324 H 0.28534 0.47914 0.34891 0.0
H325 H 0.28788 0.4748 0.39588 0.0
H326 H 0.27363 0.39057 0.38887 0.0
H327 H 0.27085 0.39511 0.34193 0.0
H328 H 0.24247 0.48123 0.30701 0.0
H329 H 0.20758 0.48053 0.33596 0.0
H330 H 0.17678 0.39274 0.35794 0.0
H331 H 0.2113 0.39341 0.32818 0.0
H332 H 0.25372 0.48972 0.25168 0.0
H333 H 0.21298 0.48936 0.22831 0.0
H334 H 0.1575 0.39783 0.24196 0.0
H335 H 0.19857 0.39845 0.26499 0.0
H336 H 0.31723 0.50226 0.23987 0.0
H337 H 0.31508 0.52119 0.19711 0.0
H338 H 0.24246 0.43717 0.17554 0.0
H339 H 0.24554 0.41815 0.21818 0.0
H340 H 0.35877 0.49712 0.27027 0.0
H341 H 0.39892 0.50359 0.24434 0.0
H342 H 0.34217 0.41729 0.2168 0.0
H343 H 0.30211 0.41143 0.24225 0.0
O344 O 0.28793 0.45159 0.43945 0.0
O345 O 0.28047 0.40836 0.4348 0.0
O346 O 0.16033 0.46525 0.20969 0.0
O347 O 0.13085 0.41822 0.21629 0.0
C348 C 0.30227 0.44633 0.29986 0.0
C349 C 0.27746 0.44055 0.31356 0.0
C350 C 0.25337 0.4395 0.3004 0.0
C351 C 0.25408 0.44414 0.27344 0.0
C352 C 0.27882 0.44957 0.25966 0.0
C353 C 0.30264 0.45 0.27285 0.0
C354 C 0.3292 0.45269 0.31468 0.0
C355 C 0.34601 0.47926 0.32661 0.0
C356 C 0.36671 0.48356 0.34589 0.0
C357 C 0.37116 0.46145 0.35334 0.0
C358 C 0.35606 0.4356 0.33998 0.0
C359 C 0.33498 0.43117 0.32075 0.0
C360 C 0.27772 0.43736 0.34209 0.0
C361 C 0.28248 0.45967 0.3576 0.0
C362 C 0.28405 0.45717 0.3844 0.0
C363 C 0.28099 0.43235 0.39614 0.0
C364 C 0.27608 0.40997 0.38046 0.0
C365 C 0.27444 0.41248 0.35367 0.0
C366 C 0.22935 0.43735 0.31542 0.0
C367 C 0.22768 0.46162 0.31758 0.0
C368 C 0.20797 0.46127 0.33436 0.0
C369 C 0.18965 0.43668 0.34948 0.0
C370 C 0.19045 0.41194 0.34644 0.0
C371 C 0.21019 0.4123 0.32954 0.0
C372 C 0.22915 0.44406 0.2598 0.0
C373 C 0.23279 0.4696 0.24949 0.0
C374 C 0.20946 0.46934 0.23621 0.0
C375 C 0.18198 0.44353 0.23321 0.0
C376 C 0.17836 0.41805 0.24387 0.0
C377 C 0.20175 0.41834 0.25706 0.0
C378 C 0.28146 0.45886 0.23217 0.0
C379 C 0.30159 0.4877 0.22561 0.0
C380 C 0.30009 0.49856 0.20127 0.0
C381 C 0.27828 0.48079 0.18311 0.0
C382 C 0.25962 0.45138 0.18905 0.0
C383 C 0.26126 0.44048 0.21341 0.0
C384 C 0.32759 0.45377 0.2582 0.0
C385 C 0.35518 0.47958 0.25878 0.0
C386 C 0.37809 0.48318 0.244 0.0
C387 C 0.37381 0.46098 0.22838 0.0
C388 C 0.34616 0.43502 0.22821 0.0
C389 C 0.32328 0.43152 0.24289 0.0
C390 C 0.28308 0.42993 0.4246 0.0
C391 C 0.15716 0.44311 0.21902 0.0
H392 H 0.89371 0.27492 0.98576 0.0
H393 H 0.6973 0.02327 0.80995 0.0
H394 H 0.88448 0.28019 0.84153 0.0
H395 H 0.93042 0.32447 0.85365 0.0
H396 H 0.97815 0.28248 0.8464 0.0
H397 H 0.93197 0.23824 0.83406 0.0
H398 H 0.83992 0.23778 0.8831 0.0
H399 H 0.8567 0.25597 0.92666 0.0
H400 H 0.91948 0.22984 0.92655 0.0
H401 H 0.90225 0.2115 0.88306 0.0
H402 H 0.78202 0.18533 0.85492 0.0
H403 H 0.74865 0.16579 0.89087 0.0
H404 H 0.80341 0.13893 0.92895 0.0
H405 H 0.83636 0.15782 0.89214 0.0
H406 H 0.77014 0.16615 0.80484 0.0
H407 H 0.72488 0.11966 0.79704 0.0
H408 H 0.76826 0.07708 0.82743 0.0
H409 H 0.8135 0.12375 0.83482 0.0
H410 H 0.8103 0.21071 0.77222 0.0
H411 H 0.78247 0.18894 0.73262 0.0
H412 H 0.81545 0.13258 0.7347 0.0
H413 H 0.84188 0.15363 0.77527 0.0
H414 H 0.86402 0.26552 0.79165 0.0
H415 H 0.88877 0.2986 0.75557 0.0
H416 H 0.9278 0.25075 0.73689 0.0
H417 H 0.90224 0.21729 0.77297 0.0
O418 O 0.88735 0.26752 0.96856 0.0
O419 O 0.91936 0.25383 0.96747 0.0
O420 O 0.69363 0.06487 0.79736 0.0
O421 O 0.71489 0.04194 0.81289 0.0
C422 C 0.87685 0.22869 0.83238 0.0
C423 C 0.8597 0.21239 0.85358 0.0
C424 C 0.83226 0.18668 0.84943 0.0
C425 C 0.82294 0.17641 0.82421 0.0
C426 C 0.83978 0.1931 0.80297 0.0
C427 C 0.86635 0.21961 0.80705 0.0
C428 C 0.90505 0.25618 0.83688 0.0
C429 C 0.90497 0.28077 0.84209 0.0
C430 C 0.93119 0.306 0.84893 0.0
C431 C 0.95783 0.30687 0.85096 0.0
C432 C 0.9579 0.28232 0.8451 0.0
C433 C 0.93168 0.25718 0.83795 0.0
C434 C 0.86981 0.22324 0.88005 0.0
C435 C 0.8572 0.23591 0.89259 0.0
C436 C 0.86687 0.24632 0.91744 0.0
C437 C 0.88943 0.24434 0.9301 0.0
C438 C 0.90206 0.23168 0.91736 0.0
C439 C 0.89229 0.22121 0.89254 0.0
C440 C 0.81147 0.17282 0.87086 0.0
C441 C 0.78658 0.17482 0.87083 0.0
C442 C 0.76776 0.16399 0.89156 0.0
C443 C 0.77358 0.15112 0.91293 0.0
C444 C 0.79827 0.1486 0.91271 0.0
C445 C 0.81713 0.15942 0.8918 0.0
C446 C 0.79516 0.14827 0.8201 0.0
C447 C 0.76987 0.14675 0.80962 0.0
C448 C 0.74402 0.12017 0.80528 0.0
C449 C 0.74298 0.09463 0.81153 0.0
C450 C 0.76832 0.0963 0.82234 0.0
C451 C 0.79417 0.12291 0.82661 0.0
C452 C 0.82799 0.18367 0.77654 0.0
C453 C 0.81195 0.19406 0.76377 0.0
C454 C 0.79612 0.18158 0.74103 0.0
C455 C 0.7964 0.15871 0.73041 0.0
C456 C 0.8141 0.14964 0.74256 0.0
C457 C 0.82956 0.16186 0.76556 0.0
C458 C 0.88158 0.23923 0.78496 0.0
C459 C 0.87799 0.26227 0.77978 0.0
C460 C 0.89228 0.28121 0.75924 0.0
C461 C 0.91051 0.2775 0.74346 0.0
C462 C 0.91376 0.25409 0.74856 0.0
C463 C 0.89936 0.23507 0.76919 0.0
C464 C 0.89969 0.25548 0.95648 0.0
C465 C 0.71564 0.06633 0.8068 0.0
H466 H 0.67931 0.76338 0.15163 0.0
H467 H 0.71704 0.98684 0.35582 0.0
H468 H 0.64618 0.74387 0.30411 0.0
H469 H 0.64017 0.70325 0.28154 0.0
H470 H 0.73345 0.75136 0.26697 0.0
H471 H 0.73937 0.7919 0.29013 0.0
H472 H 0.65285 0.77598 0.25627 0.0
H473 H 0.6552 0.7644 0.21191 0.0
H474 H 0.74718 0.83277 0.21048 0.0
H475 H 0.74458 0.84385 0.25502 0.0
H476 H 0.64587 0.82392 0.26699 0.0
H477 H 0.63446 0.85063 0.23538 0.0
H478 H 0.72549 0.92126 0.23877 0.0
H479 H 0.73653 0.89422 0.27108 0.0
H480 H 0.64744 0.8493 0.32403 0.0
H481 H 0.64542 0.89029 0.33686 0.0
H482 H 0.74069 0.94297 0.3379 0.0
H483 H 0.74233 0.90167 0.32536 0.0
H484 H 0.64051 0.80269 0.35984 0.0
H485 H 0.62811 0.82182 0.39509 0.0
H486 H 0.72051 0.88514 0.40827 0.0
H487 H 0.73282 0.86546 0.37315 0.0
H488 H 0.63952 0.7578 0.34662 0.0
H489 H 0.62924 0.72325 0.38183 0.0
H490 H 0.72266 0.76527 0.39922 0.0
H491 H 0.73267 0.80004 0.36385 0.0
O492 O 0.67882 0.76847 0.16911 0.0
O493 O 0.72591 0.80418 0.16919 0.0
O494 O 0.66828 0.94214 0.35032 0.0
O495 O 0.71718 0.97037 0.35041 0.0
C496 C 0.69524 0.79739 0.30614 0.0
C497 C 0.69753 0.8167 0.28619 0.0
C498 C 0.69727 0.8412 0.29201 0.0
C499 C 0.6962 0.84725 0.31781 0.0
C500 C 0.6935 0.82784 0.33777 0.0
C501 C 0.69251 0.80264 0.33191 0.0
C502 C 0.69329 0.7707 0.29915 0.0
C503 C 0.66558 0.74514 0.29728 0.0
C504 C 0.66215 0.72202 0.28413 0.0
C505 C 0.68631 0.72425 0.27231 0.0
C506 C 0.71441 0.74918 0.2757 0.0
C507 C 0.71789 0.77219 0.28915 0.0
C508 C 0.69864 0.81053 0.25889 0.0
C509 C 0.6735 0.78835 0.24635 0.0
C510 C 0.6749 0.78183 0.22101 0.0
C511 C 0.70142 0.79758 0.20768 0.0
C512 C 0.72644 0.82016 0.22021 0.0
C513 C 0.72502 0.82659 0.24561 0.0
C514 C 0.69201 0.85712 0.27113 0.0
C515 C 0.66343 0.845 0.26061 0.0
C516 C 0.65702 0.86028 0.24246 0.0
C517 C 0.67911 0.88805 0.2344 0.0
C518 C 0.70796 0.9 0.24472 0.0
C519 C 0.71436 0.8846 0.26301 0.0
C520 C 0.69503 0.87261 0.32381 0.0
C521 C 0.66781 0.86977 0.32691 0.0
C522 C 0.66674 0.89319 0.33428 0.0
C523 C 0.69292 0.91991 0.33847 0.0
C524 C 0.72014 0.92272 0.33487 0.0
C525 C 0.72116 0.89923 0.32762 0.0
C526 C 0.68757 0.83259 0.36404 0.0
C527 C 0.65819 0.81967 0.37121 0.0
C528 C 0.65112 0.83091 0.39108 0.0
C529 C 0.67333 0.85526 0.40404 0.0
C530 C 0.70298 0.8663 0.39864 0.0
C531 C 0.71006 0.85502 0.37868 0.0
C532 C 0.68683 0.78114 0.35256 0.0
C533 C 0.65777 0.75932 0.35785 0.0
C534 C 0.65197 0.73957 0.37793 0.0
C535 C 0.67515 0.74141 0.39323 0.0
C536 C 0.70433 0.76341 0.38787 0.0
C537 C 0.71012 0.78313 0.36763 0.0
C538 C 0.70291 0.79039 0.18084 0.0
C539 C 0.69192 0.94473 0.34673 0.0
H540 H 0.79881 0.62432 0.68004 0.0
H541 H 0.0166 0.56977 0.8449 0.0
H542 H 0.84244 0.65136 0.8125 0.0
H543 H 0.79684 0.64501 0.79421 0.0
H544 H 0.74826 0.55888 0.82656 0.0
H545 H 0.79427 0.56483 0.84319 0.0
H546 H 0.87909 0.6467 0.76851 0.0
H547 H 0.85221 0.64505 0.72861 0.0
H548 H 0.78072 0.55989 0.74998 0.0
H549 H 0.80807 0.56162 0.7895 0.0
H550 H 0.93799 0.63978 0.78233 0.0
H551 H 0.95642 0.62695 0.74633 0.0
H552 H 0.87533 0.54385 0.74378 0.0
H553 H 0.85743 0.55647 0.78012 0.0
H554 H 0.95854 0.65058 0.83691 0.0
H555 H 0.00184 0.6468 0.84213 0.0
H556 H 0.94588 0.55501 0.83362 0.0
H557 H 0.90276 0.55912 0.82862 0.0
H558 H 0.93221 0.65424 0.88146 0.0
H559 H 0.9688 0.65322 0.91059 0.0
H560 H 0.91683 0.56069 0.91059 0.0
H561 H 0.88063 0.56194 0.88132 0.0
H562 H 0.86604 0.65018 0.88329 0.0
H563 H 0.84013 0.64335 0.92323 0.0
H564 H 0.79944 0.55161 0.9181 0.0
H565 H 0.8267 0.55901 0.87945 0.0
O566 O 0.80935 0.62427 0.69561 0.0
O567 O 0.77284 0.58092 0.70795 0.0
O568 O 0.02787 0.61931 0.84586 0.0
O569 O -3e-05 0.57196 0.84222 0.0
C570 C 0.8493 0.60836 0.83027 0.0
C571 C 0.86084 0.60632 0.807 0.0
C572 C 0.88647 0.60521 0.80761 0.0
C573 C 0.90115 0.60721 0.83137 0.0
C574 C 0.88934 0.60874 0.85459 0.0
C575 C 0.86301 0.60854 0.85415 0.0
C576 C 0.82175 0.6085 0.82897 0.0
C577 C 0.82178 0.63156 0.81658 0.0
C578 C 0.79559 0.62786 0.80613 0.0
C579 C 0.76895 0.60112 0.80832 0.0
C580 C 0.76854 0.57948 0.82394 0.0
C581 C 0.7948 0.58302 0.83396 0.0
C582 C 0.84541 0.6044 0.78197 0.0
C583 C 0.85776 0.62762 0.76439 0.0
C584 C 0.84229 0.62665 0.74168 0.0
C585 C 0.81422 0.60242 0.73619 0.0
C586 C 0.80223 0.57893 0.75366 0.0
C587 C 0.81778 0.57987 0.77625 0.0
C588 C 0.89636 0.59907 0.78385 0.0
C589 C 0.92414 0.61891 0.77383 0.0
C590 C 0.93463 0.61155 0.75335 0.0
C591 C 0.91729 0.58439 0.7423 0.0
C592 C 0.88902 0.56503 0.75172 0.0
C593 C 0.87875 0.57223 0.77244 0.0
C594 C 0.92761 0.60513 0.8324 0.0
C595 C 0.95576 0.62972 0.836 0.0
C596 C 0.98041 0.62749 0.83901 0.0
C597 C 0.9773 0.60057 0.83837 0.0
C598 C 0.94905 0.57604 0.83424 0.0
C599 C 0.92441 0.57832 0.83127 0.0
C600 C 0.90394 0.60816 0.87923 0.0
C601 C 0.92801 0.63379 0.88884 0.0
C602 C 0.94895 0.63316 0.90535 0.0
C603 C 0.9459 0.60688 0.91232 0.0
C604 C 0.9199 0.58124 0.90514 0.0
C605 C 0.89902 0.58189 0.88871 0.0
C606 C 0.84811 0.60507 0.87854 0.0
C607 C 0.85171 0.62871 0.89109 0.0
C608 C 0.8367 0.62468 0.9138 0.0
C609 C 0.8176 0.59689 0.92413 0.0
C610 C 0.81439 0.57339 0.91132 0.0
C611 C 0.82972 0.5775 0.88899 0.0
C612 C 0.79749 0.60176 0.71243 0.0
C613 C 0.00331 0.59798 0.84233 0.0
H614 H 0.26727 0.82089 0.48923 0.0
H615 H 0.11686 0.6276 0.24308 0.0
H616 H 0.30061 0.86417 0.3423 0.0
H617 H 0.34408 0.89919 0.36785 0.0
H618 H 0.3691 0.83713 0.38014 0.0
H619 H 0.32577 0.80247 0.3549 0.0
H620 H 0.2537 0.82491 0.37712 0.0
H621 H 0.25793 0.82976 0.42396 0.0
H622 H 0.27424 0.76117 0.4314 0.0
H623 H 0.27017 0.75674 0.38451 0.0
H624 H 0.19299 0.7646 0.36598 0.0
H625 H 0.15642 0.72569 0.39372 0.0
H626 H 0.18915 0.67288 0.37326 0.0
H627 H 0.22508 0.71158 0.34549 0.0
H628 H 0.17645 0.75022 0.30597 0.0
H629 H 0.13335 0.70907 0.28561 0.0
H630 H 0.18696 0.67573 0.26732 0.0
H631 H 0.22972 0.71676 0.28803 0.0
H632 H 0.21935 0.78551 0.25813 0.0
H633 H 0.21098 0.76852 0.21395 0.0
H634 H 0.28019 0.75117 0.22559 0.0
H635 H 0.28863 0.76861 0.26941 0.0
H636 H 0.27925 0.84427 0.27292 0.0
H637 H 0.31793 0.87858 0.24412 0.0
H638 H 0.37563 0.85199 0.27587 0.0
H639 H 0.33619 0.81669 0.30348 0.0
O640 O 0.26569 0.8186 0.47076 0.0
O641 O 0.27405 0.78329 0.47355 0.0
O642 O 0.10681 0.66189 0.26148 0.0
O643 O 0.1335 0.64401 0.25139 0.0
C644 C 0.2827 0.80859 0.33379 0.0
C645 C 0.25928 0.78788 0.34907 0.0
C646 C 0.23426 0.76431 0.33741 0.0
C647 C 0.23234 0.76175 0.3104 0.0
C648 C 0.25558 0.78273 0.29502 0.0
C649 C 0.28075 0.80626 0.30671 0.0
C650 C 0.3103 0.83097 0.34666 0.0
C651 C 0.3158 0.85842 0.35023 0.0
C652 C 0.34043 0.87824 0.36491 0.0
C653 C 0.35999 0.87088 0.37589 0.0
C654 C 0.35468 0.84355 0.37162 0.0
C655 C 0.32996 0.82374 0.35729 0.0
C656 C 0.26153 0.79043 0.37751 0.0
C657 C 0.25819 0.81098 0.38893 0.0
C658 C 0.26061 0.81368 0.41567 0.0
C659 C 0.2664 0.79583 0.43144 0.0
C660 C 0.26973 0.77523 0.41984 0.0
C661 C 0.26735 0.77259 0.39309 0.0
C662 C 0.21148 0.74076 0.35366 0.0
C663 C 0.19203 0.74452 0.36745 0.0
C664 C 0.1713 0.72235 0.38332 0.0
C665 C 0.16976 0.69611 0.38559 0.0
C666 C 0.1893 0.69254 0.37157 0.0
C667 C 0.20994 0.71466 0.35578 0.0
C668 C 0.2062 0.73654 0.29829 0.0
C669 C 0.17878 0.73395 0.29761 0.0
C670 C 0.15424 0.71047 0.28594 0.0
C671 C 0.15674 0.68915 0.27475 0.0
C672 C 0.18427 0.69178 0.27567 0.0
C673 C 0.20875 0.71522 0.28742 0.0
C674 C 0.25452 0.77819 0.26695 0.0
C675 C 0.23318 0.77874 0.25084 0.0
C676 C 0.22828 0.76879 0.22571 0.0
C677 C 0.24466 0.75813 0.21633 0.0
C678 C 0.26737 0.75947 0.23205 0.0
C679 C 0.27224 0.76943 0.25713 0.0
C680 C 0.30502 0.82822 0.29048 0.0
C681 C 0.30032 0.84599 0.27367 0.0
C682 C 0.32255 0.86573 0.25737 0.0
C683 C 0.35002 0.86818 0.25768 0.0
C684 C 0.35469 0.8505 0.27485 0.0
C685 C 0.33232 0.83057 0.29094 0.0
C686 C 0.26896 0.79877 0.45984 0.0
C687 C 0.13079 0.66425 0.26218 0.0
H688 H 0.46135 0.29196 0.62654 0.0
H689 H 0.46651 0.06587 0.82773 0.0
H690 H 0.51304 0.30426 0.78193 0.0
H691 H 0.51552 0.34635 0.76236 0.0
H692 H 0.42227 0.29503 0.74341 0.0
H693 H 0.42007 0.25288 0.76308 0.0
H694 H 0.50254 0.27806 0.72889 0.0
H695 H 0.49354 0.29104 0.68544 0.0
H696 H 0.40575 0.21481 0.68491 0.0
H697 H 0.41489 0.20233 0.72858 0.0
H698 H 0.50936 0.22895 0.72744 0.0
H699 H 0.51528 0.20213 0.69476 0.0
H700 H 0.43437 0.12529 0.71821 0.0
H701 H 0.4284 0.1525 0.75078 0.0
H702 H 0.51791 0.19649 0.77623 0.0
H703 H 0.52372 0.15597 0.78538 0.0
H704 H 0.43964 0.11047 0.82268 0.0
H705 H 0.43393 0.15098 0.81309 0.0
H706 H 0.52737 0.22691 0.82623 0.0
H707 H 0.5379 0.20943 0.86669 0.0
H708 H 0.44985 0.17826 0.89159 0.0
H709 H 0.4395 0.19592 0.85088 0.0
H710 H 0.5248 0.27961 0.82833 0.0
H711 H 0.53382 0.30924 0.86535 0.0
H712 H 0.44079 0.27745 0.86675 0.0
H713 H 0.43215 0.24824 0.82916 0.0
O714 O 0.46448 0.28634 0.64369 0.0
O715 O 0.41978 0.24656 0.64415 0.0
O716 O 0.50755 0.1062 0.80394 0.0
O717 O 0.46465 0.08208 0.82364 0.0
C718 C 0.4669 0.24923 0.77945 0.0
C719 C 0.46434 0.23211 0.75873 0.0
C720 C 0.46734 0.20844 0.76336 0.0
C721 C 0.47216 0.20141 0.78876 0.0
C722 C 0.47504 0.21866 0.80938 0.0
C723 C 0.47259 0.24265 0.80473 0.0
C724 C 0.46641 0.27552 0.77387 0.0
C725 C 0.49292 0.30234 0.77448 0.0
C726 C 0.49428 0.32638 0.7632 0.0
C727 C 0.46914 0.32395 0.75104 0.0
C728 C 0.44209 0.29747 0.75229 0.0
C729 C 0.44073 0.27345 0.7637 0.0
C730 C 0.45926 0.23941 0.73195 0.0
C731 C 0.48133 0.26427 0.71939 0.0
C732 C 0.47616 0.27159 0.69455 0.0
C733 C 0.44889 0.25401 0.68172 0.0
C734 C 0.42697 0.22886 0.69426 0.0
C735 C 0.43214 0.22163 0.71916 0.0
C736 C 0.46842 0.19269 0.74144 0.0
C737 C 0.4925 0.2065 0.72507 0.0
C738 C 0.49586 0.19114 0.70642 0.0
C739 C 0.47533 0.16159 0.70399 0.0
C740 C 0.45066 0.14799 0.71982 0.0
C741 C 0.44715 0.16348 0.73832 0.0
C742 C 0.47541 0.17656 0.79384 0.0
C743 C 0.50066 0.17764 0.78617 0.0
C744 C 0.50398 0.15452 0.79152 0.0
C745 C 0.48213 0.12996 0.80477 0.0
C746 C 0.45686 0.12902 0.81243 0.0
C747 C 0.45353 0.15211 0.80699 0.0
C748 C 0.4826 0.21236 0.83558 0.0
C749 C 0.51055 0.21675 0.84062 0.0
C750 C 0.51646 0.20667 0.86365 0.0
C751 C 0.49455 0.19215 0.88211 0.0
C752 C 0.46716 0.18947 0.87773 0.0
C753 C 0.4612 0.19947 0.85454 0.0
C754 C 0.47784 0.26174 0.82621 0.0
C755 C 0.50642 0.27917 0.83659 0.0
C756 C 0.51145 0.2959 0.85785 0.0
C757 C 0.48795 0.29543 0.86924 0.0
C758 C 0.45937 0.27841 0.85836 0.0
C759 C 0.45437 0.26169 0.83697 0.0
C760 C 0.44339 0.26196 0.6554 0.0
C761 C 0.48565 0.10544 0.8107 0.0
H762 H 0.21801 0.56939 0.08575 0.0
H763 H 0.26479 0.46006 0.13387 0.0
H764 H 0.21502 0.50721 0.03651 0.0
H765 H 0.27815 0.53007 0.17891 0.0
H766 H 0.25009 0.47896 0.09679 0.0
H767 H 0.24418 0.55786 0.11894 0.0
C768 C 0.22353 0.55374 0.08185 0.0
C769 C 0.21479 0.53935 0.05855 0.0
C770 C 0.25665 0.49039 0.1147 0.0
C771 C 0.24379 0.52539 0.09635 0.0
C772 C 0.26492 0.47954 0.13587 0.0
C773 C 0.27269 0.49347 0.15953 0.0
C774 C 0.25582 0.51515 0.1173 0.0
C775 C 0.2727 0.51879 0.16099 0.0
C776 C 0.23829 0.54703 0.10074 0.0
C777 C 0.22182 0.51888 0.0543 0.0
N778 N 0.26412 0.52862 0.14028 0.0
N779 N 0.23568 0.51225 0.07318 0.0
H780 H 0.65881 0.10259 0.61405 0.0
H781 H 0.76713 0.10107 0.7206 0.0
H782 H 0.67952 0.03726 0.61596 0.0
H783 H 0.77973 0.18045 0.68911 0.0
H784 H 0.73148 0.07541 0.68579 0.0
H785 H 0.69895 0.12968 0.64568 0.0
C786 C 0.67187 0.09402 0.62123 0.0
C787 C 0.66594 0.06772 0.61263 0.0
C788 C 0.7423 0.09848 0.68646 0.0
C789 C 0.71136 0.09818 0.6488 0.0
C790 C 0.76288 0.11327 0.70622 0.0
C791 C 0.77658 0.14313 0.708 0.0
C792 C 0.73485 0.11349 0.66863 0.0
C793 C 0.76936 0.15743 0.68899 0.0
C794 C 0.69474 0.10946 0.63911 0.0
C795 C 0.68336 0.05739 0.62239 0.0
N796 N 0.74874 0.14244 0.6703 0.0
N797 N 0.70517 0.07253 0.64021 0.0
H798 H 0.66588 0.63669 0.13201 0.0
H799 H 0.65255 0.66578 0.27867 0.0
H800 H 0.61883 0.56935 0.18886 0.0
H801 H 0.70817 0.73248 0.22416 0.0
H802 H 0.6406 0.62998 0.24628 0.0
H803 H 0.6819 0.67215 0.16561 0.0
C804 C 0.65889 0.62938 0.15156 0.0
C805 C 0.64098 0.60003 0.15764 0.0
C806 C 0.65566 0.65243 0.24149 0.0
C807 C 0.65933 0.64045 0.19622 0.0
C808 C 0.66245 0.67283 0.25996 0.0
C809 C 0.68146 0.7021 0.25412 0.0
C810 C 0.6677 0.66137 0.21689 0.0
C811 C 0.69377 0.71011 0.22961 0.0
C812 C 0.6682 0.64961 0.17076 0.0
C813 C 0.63289 0.59175 0.18336 0.0
N814 N 0.6865 0.68988 0.21184 0.0
N815 N 0.642 0.61184 0.20166 0.0
H816 H 0.94751 0.5206 0.60489 0.0
H817 H 0.97114 0.59052 0.74209 0.0
H818 H 0.00997 0.5253 0.66302 0.0
H819 H 0.89043 0.55762 0.69698 0.0
H820 H 0.98948 0.57307 0.71007 0.0
H821 H 0.92931 0.53936 0.63575 0.0
C822 C 0.95732 0.52535 0.62412 0.0
C823 C 0.98045 0.52136 0.63122 0.0
C824 C 0.96779 0.56974 0.70713 0.0
C825 C 0.9601 0.54352 0.6664 0.0
C826 C 0.95743 0.57991 0.72527 0.0
C827 C 0.92925 0.57551 0.72214 0.0
C828 C 0.94999 0.55533 0.68554 0.0
C829 C 0.91222 0.56126 0.70017 0.0
C830 C 0.947 0.53624 0.64166 0.0
C831 C 0.99256 0.52851 0.65636 0.0
N832 N 0.92288 0.55172 0.68264 0.0
N833 N 0.98234 0.53933 0.67295 0.0
H834 H 0.4553 0.00495 0.1477 0.0
H835 H 0.38876 0.86043 0.23214 0.0
H836 H 0.49535 0.95515 0.15467 0.0
H837 H 0.36445 0.92227 0.24188 0.0
H838 H 0.42621 0.89361 0.20205 0.0
H839 H 0.41981 0.97362 0.18044 0.0
C840 C 0.45669 0.98753 0.15639 0.0
C841 C 0.47827 0.98262 0.14887 0.0
C842 C 0.41276 0.89997 0.21087 0.0
C843 C 0.4377 0.94653 0.1857 0.0
C844 C 0.39145 0.88108 0.2282 0.0
C845 C 0.37335 0.8885 0.23969 0.0
C846 C 0.41591 0.92642 0.2047 0.0
C847 C 0.37752 0.91538 0.23325 0.0
C848 C 0.4365 0.96967 0.17497 0.0
C849 C 0.47904 0.95958 0.16021 0.0
N850 N 0.39827 0.9333 0.21612 0.0
N851 N 0.45894 0.94227 0.17801 0.0
H852 H 0.48118 0.42532 0.61604 0.0
H853 H 0.50133 0.38162 0.76078 0.0
H854 H 0.54237 0.48568 0.67175 0.0
H855 H 0.44445 0.3208 0.70317 0.0
H856 H 0.51158 0.42073 0.73036 0.0
H857 H 0.46234 0.38738 0.64955 0.0
C858 C 0.49034 0.43049 0.63548 0.0
C859 C 0.51336 0.45832 0.64134 0.0
C860 C 0.49656 0.39882 0.72449 0.0
C861 C 0.49228 0.41543 0.6796 0.0
C862 C 0.49073 0.3765 0.74184 0.0
C863 C 0.4721 0.34788 0.7345 0.0
C864 C 0.48379 0.3925 0.69955 0.0
C865 C 0.4587 0.34251 0.70981 0.0
C866 C 0.47969 0.40895 0.65457 0.0
C867 C 0.52462 0.46429 0.66667 0.0
N868 N 0.46503 0.36458 0.69316 0.0
N869 N 0.51413 0.44293 0.68488 0.0
H870 H 0.65266 0.94753 0.52399 0.0
H871 H 0.63387 0.87044 0.39176 0.0
H872 H 0.61091 0.95779 0.45516 0.0
H873 H 0.69542 0.87792 0.45197 0.0
H874 H 0.62201 0.89907 0.41672 0.0
H875 H 0.66588 0.91909 0.49972 0.0
C876 C 0.64633 0.94382 0.50378 0.0
C877 C 0.63071 0.95505 0.49153 0.0
C878 C 0.63804 0.89442 0.42458 0.0
C879 C 0.64557 0.92253 0.46381 0.0
C880 C 0.64459 0.87781 0.41046 0.0
C881 C 0.66534 0.87147 0.42003 0.0
C882 C 0.65221 0.90473 0.44857 0.0
C883 C 0.6792 0.88226 0.44402 0.0
C884 C 0.65397 0.92772 0.48995 0.0
C885 C 0.62325 0.94982 0.46528 0.0
N886 N 0.67226 0.89828 0.45759 0.0
N887 N 0.63058 0.93381 0.45235 0.0
H888 H 0.7099 0.59689 0.04562 0.0
H889 H 0.80106 0.55502 0.96205 0.0
H890 H 0.67788 0.50968 0.02634 0.0
H891 H 0.79414 0.62753 0.94002 0.0
H892 H 0.76679 0.54326 0.99656 0.0
H893 H 0.75189 0.61334 0.01716 0.0
C894 C 0.71216 0.58126 0.03589 0.0
C895 C 0.69072 0.55192 0.03853 0.0
C896 C 0.77313 0.56191 0.98427 0.0
C897 C 0.73841 0.57037 0.00659 0.0
C898 C 0.79249 0.56857 0.96439 0.0
C899 C 0.80011 0.59197 0.94748 0.0
C900 C 0.76175 0.5791 0.98782 0.0
C901 C 0.78909 0.60933 0.95243 0.0
C902 C 0.73588 0.59061 0.01965 0.0
C903 C 0.69425 0.53244 0.02523 0.0
N904 N 0.77033 0.60246 0.97208 0.0
N905 N 0.71771 0.542 0.00994 0.0
H906 H 0.06752 0.53202 0.46314 0.0
H907 H 0.15443 0.70059 0.43401 0.0
H908 H 0.0738 0.59247 0.51668 0.0
H909 H 0.13711 0.63836 0.37716 0.0
H910 H 0.12298 0.66147 0.46387 0.0
H911 H 0.09123 0.57066 0.43065 0.0
C912 C 0.07375 0.5535 0.46786 0.0
C913 C 0.06907 0.55936 0.49246 0.0
C914 C 0.12588 0.65638 0.44478 0.0
C915 C 0.09629 0.6036 0.45576 0.0
C916 C 0.1437 0.67873 0.42766 0.0
C917 C 0.14866 0.67276 0.40311 0.0
C918 C 0.11302 0.62786 0.43734 0.0
C919 C 0.13443 0.64397 0.39608 0.0
C920 C 0.08726 0.57552 0.44941 0.0
C921 C 0.07736 0.58736 0.49786 0.0
N922 N 0.11747 0.62262 0.41317 0.0
N923 N 0.09085 0.60858 0.4797 0.0
H924 H 0.51144 0.12825 0.03398 0.0
H925 H 0.5179 0.1591 0.88202 0.0
H926 H 0.52365 0.08015 0.97821 0.0
H927 H 0.48174 0.1915 0.93296 0.0
H928 H 0.52491 0.13392 0.9184 0.0
H929 H 0.50467 0.15522 0.99843 0.0
C930 C 0.51265 0.12337 0.01429 0.0
C931 C 0.51788 0.1018 0.009 0.0
C932 C 0.51548 0.14655 0.92171 0.0
C933 C 0.51044 0.13255 0.9685 0.0
C934 C 0.51172 0.16115 0.90097 0.0
C935 C 0.49944 0.17758 0.90454 0.0
C936 C 0.50704 0.14842 0.94634 0.0
C937 C 0.49122 0.17896 0.92943 0.0
C938 C 0.50869 0.13865 0.99407 0.0
C939 C 0.51918 0.09626 0.98317 0.0
N940 N 0.49528 0.16463 0.94948 0.0
N941 N 0.51562 0.11159 0.96395 0.0
H942 H 0.51501 0.50025 0.45996 0.0
H943 H 0.36358 0.47379 0.401 0.0
H944 H 0.44589 0.49169 0.50626 0.0
H945 H 0.41913 0.45621 0.35877 0.0
H946 H 0.39469 0.48206 0.43949 0.0
H947 H 0.48143 0.4854 0.42238 0.0
C948 C 0.49272 0.49497 0.46234 0.0
C949 C 0.48339 0.49745 0.48637 0.0
C950 C 0.40006 0.47623 0.4219 0.0
C951 C 0.44506 0.48093 0.44328 0.0
C952 C 0.38241 0.47166 0.39994 0.0
C953 C 0.38912 0.46463 0.37677 0.0
C954 C 0.42485 0.47412 0.42061 0.0
C955 C 0.41341 0.46168 0.37636 0.0
C956 C 0.47361 0.4866 0.44083 0.0
C957 C 0.45434 0.49073 0.48809 0.0
N958 N 0.43069 0.46678 0.39796 0.0
N959 N 0.43633 0.48299 0.46682 0.0
H960 H 0.08956 0.48091 0.89145 0.0
H961 H 0.99692 0.30965 0.88806 0.0
H962 H 0.08979 0.42685 0.95385 0.0
H963 H 0.98002 0.36291 0.83662 0.0
H964 H 0.03853 0.35283 0.90744 0.0
H965 H 0.05683 0.43818 0.86644 0.0
C966 C 0.08291 0.4601 0.89986 0.0
C967 C 0.09215 0.45751 0.92499 0.0
C968 C 0.0259 0.35506 0.89173 0.0
C969 C 0.05492 0.40853 0.89629 0.0
C970 C 0.0023 0.33045 0.88056 0.0
C971 C 0.98494 0.33276 0.86082 0.0
C972 C 0.03227 0.38214 0.88299 0.0
C973 C 0.99265 0.36022 0.85203 0.0
C974 C 0.0643 0.43573 0.88552 0.0
C975 C 0.0834 0.42998 0.93455 0.0
N976 N 0.01568 0.38386 0.86325 0.0
N977 N 0.06506 0.40655 0.92029 0.0
H978 H 0.09181 0.62092 0.00484 0.0
H979 H 0.96724 0.57615 0.89502 0.0
H980 H 0.08448 0.57567 0.93669 0.0
H981 H 0.98338 0.63681 0.95302 0.0
H982 H 0.01032 0.57591 0.91089 0.0
H983 H 0.0531 0.62826 0.98677 0.0
C984 C 0.08249 0.61322 0.98581 0.0
C985 C 0.09139 0.59806 0.97197 0.0
C986 C 0.00454 0.58928 0.92026 0.0
C987 C 0.04696 0.60552 0.95162 0.0
C988 C 0.97972 0.58918 0.91137 0.0
C989 C 0.97146 0.60614 0.92304 0.0
C990 C 0.02126 0.60629 0.94121 0.0
C991 C 0.98894 0.62326 0.94366 0.0
C992 C 0.06038 0.61721 0.97559 0.0
C993 C 0.0784 0.58785 0.94768 0.0
N994 N 0.01295 0.62273 0.95229 0.0
N995 N 0.05669 0.59157 0.93837 0.0
H996 H 0.46531 0.97274 0.5057 0.0
H997 H 0.41684 0.8842 0.37556 0.0
H998 H 0.52433 0.96206 0.46132 0.0
H999 H 0.36011 0.90254 0.41502 0.0
H1000 H 0.45674 0.91341 0.40637 0.0
H1001 H 0.42639 0.94746 0.47257 0.0
C1002 C 0.46991 0.965 0.48889 0.0
C1003 C 0.49772 0.96917 0.48605 0.0
C1004 C 0.43565 0.91125 0.40822 0.0
C1005 C 0.45379 0.94051 0.44825 0.0
C1006 C 0.41287 0.89453 0.39066 0.0
C1007 C 0.38513 0.89087 0.39283 0.0
C1008 C 0.43062 0.92423 0.42827 0.0
C1009 C 0.38124 0.90499 0.41257 0.0
C1010 C 0.44786 0.95071 0.47 0.0
C1011 C 0.50298 0.95903 0.46405 0.0
N1012 N 0.40367 0.92086 0.42967 0.0
N1013 N 0.48115 0.94505 0.44599 0.0
H1014 H 0.57155 0.39786 0.00311 0.0
H1015 H 0.46379 0.32651 0.88115 0.0
H1016 H 0.5001 0.41011 0.98375 0.0
H1017 H 0.52457 0.303 0.91063 0.0
H1018 H 0.47562 0.35644 0.91875 0.0
H1019 H 0.55389 0.36248 0.96941 0.0
C1020 C 0.55203 0.39297 0.99177 0.0
C1021 C 0.53737 0.40705 0.99605 0.0
C1022 C 0.48621 0.34458 0.91703 0.0
C1023 C 0.51703 0.36662 0.95732 0.0
C1024 C 0.4794 0.32741 0.89562 0.0
C1025 C 0.49347 0.31247 0.89254 0.0
C1026 C 0.50733 0.3469 0.93541 0.0
C1027 C 0.51369 0.31465 0.91184 0.0
C1028 C 0.54187 0.37269 0.9726 0.0
C1029 C 0.51196 0.39964 0.98108 0.0
N1030 N 0.52013 0.33167 0.9323 0.0
N1031 N 0.50274 0.38012 0.96215 0.0
H1032 H 0.13273 0.48796 0.4772 0.0
H1033 H 0.13259 0.39568 0.36251 0.0
H1034 H 0.05557 0.40719 0.45499 0.0
H1035 H 0.20559 0.47988 0.38263 0.0
H1036 H 0.10396 0.39823 0.3966 0.0
H1037 H 0.15973 0.48411 0.44302 0.0
C1038 C 0.1215 0.46924 0.46524 0.0
C1039 C 0.09189 0.44773 0.46916 0.0
C1040 C 0.1262 0.41616 0.39343 0.0
C1041 C 0.12272 0.44333 0.42951 0.0
C1042 C 0.14258 0.41467 0.37407 0.0
C1043 C 0.17146 0.4377 0.36957 0.0
C1044 C 0.13892 0.44075 0.4085 0.0
C1045 C 0.18325 0.46184 0.38505 0.0
C1046 C 0.13691 0.46715 0.44555 0.0
C1047 C 0.07834 0.42432 0.45259 0.0
N1048 N 0.16699 0.46268 0.40378 0.0
N1049 N 0.0939 0.42268 0.43352 0.0
H1050 H 0.65523 0.04976 0.03643 0.0
H1051 H 0.74946 0.17753 0.93519 0.0
H1052 H 0.64 0.11746 0.01746 0.0
H1053 H 0.75312 0.10141 0.9418 0.0
H1054 H 0.71408 0.1588 0.96965 0.0
H1055 H 0.69584 0.07126 0.00603 0.0
C1056 C 0.66073 0.06931 0.02595 0.0
C1057 C 0.64451 0.082 0.02926 0.0
C1058 C 0.72266 0.14619 0.96364 0.0
C1059 C 0.69055 0.10661 0.99473 0.0
C1060 C 0.74277 0.15682 0.94387 0.0
C1061 C 0.75393 0.1408 0.9353 0.0
C1062 C 0.71361 0.11935 0.97507 0.0
C1063 C 0.74511 0.11448 0.9478 0.0
C1064 C 0.68375 0.08152 0.00864 0.0
C1065 C 0.65219 0.10721 0.01537 0.0
N1066 N 0.7253 0.10447 0.96697 0.0
N1067 N 0.67466 0.1187 0.99866 0.0
H1068 H 0.5928 0.59054 0.49304 0.0
H1069 H 0.70015 0.75219 0.44196 0.0
H1070 H 0.65753 0.65839 0.54148 0.0
H1071 H 0.6351 0.68348 0.3941 0.0
H1072 H 0.68677 0.71802 0.47817 0.0
H1073 H 0.60951 0.62412 0.45608 0.0
C1074 C 0.61059 0.61261 0.49574 0.0
C1075 C 0.62374 0.62199 0.52012 0.0
C1076 C 0.67551 0.71041 0.45972 0.0
C1077 C 0.64305 0.66047 0.47822 0.0
C1078 C 0.68328 0.72987 0.43899 0.0
C1079 C 0.66861 0.72071 0.41499 0.0
C1080 C 0.65295 0.68156 0.45641 0.0
C1081 C 0.64666 0.69159 0.41236 0.0
C1082 C 0.62014 0.63176 0.47474 0.0
C1083 C 0.64679 0.65061 0.52288 0.0
N1084 N 0.63945 0.67311 0.43281 0.0
N1085 N 0.65568 0.66894 0.50215 0.0
H1086 H 0.53026 0.1044 0.57779 0.0
H1087 H 0.47008 0.11018 0.71396 0.0
H1088 H 0.52477 0.05233 0.64433 0.0
H1089 H 0.49415 0.17508 0.65422 0.0
H1090 H 0.48375 0.08479 0.68625 0.0
H1091 H 0.51194 0.12739 0.60352 0.0
C1092 C 0.52531 0.09783 0.59779 0.0
C1093 C 0.52909 0.07633 0.60885 0.0
C1094 C 0.4859 0.1045 0.67913 0.0
C1095 C 0.50763 0.10225 0.63825 0.0
C1096 C 0.47783 0.11886 0.69485 0.0
C1097 C 0.48101 0.14479 0.68638 0.0
C1098 C 0.49712 0.11607 0.65469 0.0
C1099 C 0.49164 0.15529 0.66158 0.0
C1100 C 0.51468 0.11086 0.61241 0.0
C1101 C 0.52178 0.06841 0.63477 0.0
N1102 N 0.49938 0.14092 0.6466 0.0
N1103 N 0.51142 0.08135 0.64855 0.0
H1104 H 0.47239 0.45308 0.10516 0.0
H1105 H 0.43346 0.48926 0.23959 0.0
H1106 H 0.53863 0.51219 0.1588 0.0
H1107 H 0.36895 0.44201 0.17938 0.0
H1108 H 0.47222 0.49573 0.21181 0.0
H1109 H 0.43396 0.44599 0.13384 0.0
C1110 C 0.4787 0.46461 0.12302 0.0
C1111 C 0.50847 0.4836 0.12958 0.0
C1112 C 0.44957 0.48392 0.20472 0.0
C1113 C 0.46492 0.47543 0.16262 0.0
C1114 C 0.42741 0.48034 0.22052 0.0
C1115 C 0.39778 0.465 0.2119 0.0
C1116 C 0.44209 0.47202 0.18012 0.0
C1117 C 0.39133 0.45356 0.18711 0.0
C1118 C 0.45687 0.46059 0.13938 0.0
C1119 C 0.51578 0.49765 0.15308 0.0
N1120 N 0.41326 0.45729 0.17216 0.0
N1121 N 0.49411 0.49336 0.16878 0.0
H1122 H 0.98799 0.35968 0.5968 0.0
H1123 H 0.93732 0.33584 0.74307 0.0
H1124 H 0.9913 0.42494 0.64186 0.0
H1125 H 0.91915 0.26632 0.6947 0.0
H1126 H 0.96051 0.3693 0.70699 0.0
H1127 H 0.96582 0.32548 0.63317 0.0
C1128 C 0.98387 0.36664 0.61439 0.0
C1129 C 0.99107 0.39487 0.61648 0.0
C1130 C 0.95146 0.34674 0.70423 0.0
C1131 C 0.96633 0.35639 0.65803 0.0
C1132 C 0.93808 0.32756 0.72482 0.0
C1133 C 0.92599 0.29814 0.72188 0.0
C1134 C 0.95296 0.33653 0.68045 0.0
C1135 C 0.92834 0.28882 0.69791 0.0
C1136 C 0.97133 0.34726 0.63509 0.0
C1137 C 0.98581 0.40321 0.63962 0.0
N1138 N 0.94148 0.30795 0.67808 0.0
N1139 N 0.97375 0.38405 0.65952 0.0
H1140 H 0.65337 0.01654 0.1586 0.0
H1141 H 0.6419 0.86864 0.19204 0.0
H1142 H 0.57867 0.93361 0.13723 0.0
H1143 H 0.69844 0.94522 0.23542 0.0
H1144 H 0.62442 0.89452 0.16581 0.0
H1145 H 0.67533 0.99268 0.18177 0.0
C1146 C 0.64149 0.99337 0.15883 0.0
C1147 C 0.61403 0.97712 0.14589 0.0
C1148 C 0.64077 0.9057 0.18099 0.0
C1149 C 0.63948 0.94983 0.17185 0.0
C1150 C 0.65073 0.89094 0.19601 0.0
C1151 C 0.67135 0.90464 0.21625 0.0
C1152 C 0.65163 0.93448 0.18603 0.0
C1153 C 0.68261 0.9338 0.21999 0.0
C1154 C 0.65418 0.97981 0.17191 0.0
C1155 C 0.60006 0.94714 0.14647 0.0
N1156 N 0.67246 0.94774 0.20512 0.0
N1157 N 0.61295 0.93452 0.15918 0.0
H1158 H 0.6586 0.61539 0.68988 0.0
H1159 H 0.73326 0.55155 0.78252 0.0
H1160 H 0.64563 0.53187 0.68273 0.0
H1161 H 0.74759 0.63528 0.79269 0.0
H1162 H 0.69683 0.54253 0.74887 0.0
H1163 H 0.68749 0.62192 0.72984 0.0
C1164 C 0.66165 0.59837 0.69682 0.0
C1165 C 0.65007 0.57322 0.68278 0.0
C1166 C 0.7076 0.56278 0.75862 0.0
C1167 C 0.68297 0.58051 0.72831 0.0
C1168 C 0.72824 0.56784 0.77819 0.0
C1169 C 0.74353 0.59422 0.79068 0.0
C1170 C 0.70226 0.58431 0.7511 0.0
C1171 C 0.73656 0.61474 0.78344 0.0
C1172 C 0.67817 0.60213 0.71956 0.0
C1173 C 0.65471 0.55188 0.69259 0.0
N1174 N 0.71659 0.60946 0.76396 0.0
N1175 N 0.67087 0.55607 0.71464 0.0
H1176 H 0.14681 0.63725 0.0958 0.0
H1177 H 0.28089 0.7596 0.17968 0.0
H1178 H 0.23791 0.66642 0.08461 0.0
H1179 H 0.18911 0.72149 0.19657 0.0
H1180 H 0.26599 0.72991 0.14156 0.0
H1181 H 0.16239 0.67213 0.12967 0.0
C1182 C 0.17011 0.65094 0.10051 0.0
C1183 C 0.19105 0.64864 0.08751 0.0
C1184 C 0.24914 0.72827 0.1535 0.0
C1185 C 0.20911 0.68898 0.12615 0.0
C1186 C 0.25762 0.74516 0.17529 0.0
C1187 C 0.23625 0.74301 0.19145 0.0
C1188 C 0.21905 0.70905 0.14781 0.0
C1189 C 0.2064 0.72422 0.18456 0.0
C1190 C 0.17901 0.67099 0.11976 0.0
C1191 C 0.221 0.6675 0.09402 0.0
N1192 N 0.19873 0.70787 0.16339 0.0
N1193 N 0.22912 0.68675 0.11299 0.0
loop_
_geom_bond_atom_site_label_1
_geom_bond_atom_site_label_2
_geom_bond_distance
_geom_bond_site_symmetry_2
_ccdc_geom_bond_type
C0 C1 1.443 . S
C0 N4 1.376 . S
C0 C38 1.389 . S
C1 C0 1.443 . S
C1 C2 1.340 1_556 S
C1 H41 0.951 . S
C2 C1 1.340 1_554 S
C2 C3 1.439 . S
C2 H42 0.950 . S
C3 C2 1.439 . S
C3 N4 1.374 1_554 S
C3 C37 1.395 . S
N4 C0 1.376 . S
N4 C3 1.374 1_556 S
N4 Co5 2.008 1_556 S
Co5 N4 2.008 1_554 S
Co5 N6 1.995 . S
Co5 N11 2.008 . S
Co5 N16 1.995 1_554 S
Co5 N21 2.282 . S
Co5 N27 2.282 1_554 S
N6 Co5 1.995 . S
N6 C7 1.376 . S
N6 C10 1.383 . S
C7 N6 1.376 . S
C7 C8 1.446 . S
C7 C37 1.391 . S
C8 C7 1.446 . S
C8 C9 1.339 . S
C8 H43 0.949 . S
C9 C8 1.339 . S
C9 C10 1.439 . S
C9 H44 0.950 . S
C10 N6 1.383 . S
C10 C9 1.439 . S
C10 C39 1.392 . S
N11 Co5 2.008 . S
N11 C12 1.376 . S
N11 C15 1.374 1_554 S
C12 N11 1.376 . S
C12 C13 1.443 . S
C12 C39 1.389 . S
C13 C12 1.443 . S
C13 C14 1.340 1_554 S
C13 H45 0.951 . S
C14 C13 1.340 1_556 S
C14 C15 1.439 . S
C14 H46 0.950 . S
C15 N11 1.374 1_556 S
C15 C14 1.439 . S
C15 C40 1.395 . S
N16 Co5 1.995 1_556 S
N16 C17 1.376 . S
N16 C20 1.383 . S
C17 N16 1.376 . S
C17 C18 1.446 . S
C17 C40 1.391 . S
C18 C17 1.446 . S
C18 C19 1.339 . S
C18 H47 0.949 . S
C19 C18 1.339 . S
C19 C20 1.439 . S
C19 H48 0.950 . S
C20 N16 1.383 . S
C20 C19 1.439 . S
C20 C38 1.392 . S
N21 Co5 2.282 . S
N21 C24 1.332 . S
N21 C26 1.332 . S
C22 C23 1.386 . S
C22 C25 1.388 . S
C23 C22 1.386 . S
C23 C24 1.382 . S
C23 H49 0.950 . S
C24 N21 1.332 . S
C24 C23 1.382 . S
C24 H35 0.952 . S
C25 C22 1.388 . S
C25 C26 1.382 . S
C25 H50 0.950 . S
C26 N21 1.332 . S
C26 C25 1.382 . S
C26 H36 0.948 . S
N27 Co5 2.282 1_556 S
N27 C31 1.332 . S
N27 C32 1.332 . S
C28 C29 1.388 . S
C28 C32 1.382 . S
C28 H51 0.950 . S
C29 C28 1.388 . S
C29 C30 1.386 . S
C30 C29 1.386 . S
C30 C31 1.382 . S
C30 H52 0.950 . S
C31 N27 1.332 . S
C31 C30 1.382 . S
C31 H33 0.952 . S
C32 N27 1.332 . S
C32 C28 1.382 . S
C32 H34 0.948 . S
H33 C31 0.952 . S
H34 C32 0.948 . S
H35 C24 0.952 . S
H36 C26 0.948 . S
C37 C3 1.395 . S
C37 C7 1.391 . S
C38 C0 1.389 . S
C38 C20 1.392 . S
C39 C10 1.392 . S
C39 C12 1.389 . S
C40 C15 1.395 . S
C40 C17 1.391 . S
H41 C1 0.951 . S
H42 C2 0.950 . S
H43 C8 0.949 . S
H44 C9 0.950 . S
H45 C13 0.951 . S
H46 C14 0.950 . S
H47 C18 0.949 . S
H48 C19 0.950 . S
H49 C23 0.950 . S
H50 C25 0.950 . S
H51 C28 0.950 . S
H52 C30 0.950 . S
C53 C54 1.443 . S
C53 N57 1.385 . S
C53 C91 1.389 . S
C54 C53 1.443 . S
C54 C55 1.340 1_545 S
C54 H94 0.951 . S
C55 C54 1.340 1_565 S
C55 C56 1.439 . S
C55 H95 0.950 . S
C56 C55 1.439 . S
C56 N57 1.357 1_565 S
C56 C90 1.395 . S
N57 C53 1.385 . S
N57 C56 1.357 1_545 S
N57 Co58 2.019 . S
Co58 N57 2.019 . S
Co58 N59 1.995 1_545 S
Co58 N64 2.008 . S
Co58 N69 1.995 . S
Co58 N74 2.282 1_545 S
Co58 N80 2.282 . S
N59 Co58 1.995 1_565 S
N59 C60 1.376 . S
N59 C63 1.383 . S
C60 N59 1.376 . S
C60 C61 1.446 . S
C60 C90 1.391 . S
C61 C60 1.446 . S
C61 C62 1.339 . S
C61 H96 0.949 . S
C62 C61 1.339 . S
C62 C63 1.439 . S
C62 H97 0.950 . S
C63 N59 1.383 . S
C63 C62 1.439 . S
C63 C92 1.392 . S
N64 Co58 2.008 . S
N64 C65 1.376 . S
N64 C68 1.374 . S
C65 N64 1.376 . S
C65 C66 1.443 . S
C65 C92 1.389 1_545 S
C66 C65 1.443 . S
C66 C67 1.340 . S
C66 H98 0.951 . S
C67 C66 1.340 . S
C67 C68 1.439 . S
C67 H99 0.950 . S
C68 N64 1.374 . S
C68 C67 1.439 . S
C68 C93 1.395 . S
N69 Co58 1.995 . S
N69 C70 1.376 . S
N69 C73 1.383 . S
C70 N69 1.376 . S
C70 C71 1.446 . S
C70 C93 1.391 . S
C71 C70 1.446 . S
C71 C72 1.339 . S
C71 H100 0.949 . S
C72 C71 1.339 . S
C72 C73 1.439 . S
C72 H101 0.950 . S
C73 N69 1.383 . S
C73 C72 1.439 . S
C73 C91 1.392 . S
N74 Co58 2.282 1_565 S
N74 C77 1.332 1_565 S
N74 C79 1.332 . S
C75 C76 1.386 . S
C75 C78 1.388 . S
C76 C75 1.386 . S
C76 C77 1.382 1_565 S
C76 H102 0.950 1_565 S
C77 N74 1.332 1_545 S
C77 C76 1.382 1_545 S
C77 H88 0.952 . S
C78 C75 1.388 . S
C78 C79 1.382 . S
C78 H103 0.950 . S
C79 N74 1.332 . S
C79 C78 1.382 . S
C79 H89 0.948 . S
N80 Co58 2.282 . S
N80 C84 1.332 . S
N80 C85 1.332 . S
C81 C82 1.388 . S
C81 C85 1.382 . S
C81 H104 0.950 . S
C82 C81 1.388 . S
C82 C83 1.386 . S
C83 C82 1.386 . S
C83 C84 1.382 . S
C83 H105 0.950 . S
C84 N80 1.332 . S
C84 C83 1.382 . S
C84 H86 0.952 1_545 S
C85 N80 1.332 . S
C85 C81 1.382 . S
C85 H87 0.948 . S
H86 C84 0.952 1_565 S
H87 C85 0.948 . S
H88 C77 0.952 . S
H89 C79 0.948 . S
C90 C56 1.395 . S
C90 C60 1.391 . S
C91 C53 1.389 . S
C91 C73 1.392 . S
C92 C63 1.392 . S
C92 C65 1.389 1_565 S
C93 C68 1.395 . S
C93 C70 1.391 . S
H94 C54 0.951 . S
H95 C55 0.950 . S
H96 C61 0.949 . S
H97 C62 0.950 . S
H98 C66 0.951 . S
H99 C67 0.950 . S
H100 C71 0.949 . S
H101 C72 0.950 . S
H102 C76 0.950 1_545 S
H103 C78 0.950 . S
H104 C81 0.950 . S
H105 C83 0.950 . S
C106 C107 1.443 . S
C106 N110 1.376 . S
C106 C144 1.389 . S
C107 C106 1.443 . S
C107 C108 1.340 . S
C107 H147 0.951 . S
C108 C107 1.340 . S
C108 C109 1.439 . S
C108 H148 0.950 . S
C109 C108 1.439 . S
C109 N110 1.374 . S
C109 C143 1.395 . S
N110 C106 1.376 . S
N110 C109 1.374 . S
N110 Co111 2.008 . S
Co111 N110 2.008 . S
Co111 N112 1.995 . S
Co111 N117 2.008 . S
Co111 N122 1.995 . S
Co111 N127 2.282 . S
Co111 N133 2.282 . S
N112 Co111 1.995 . S
N112 C113 1.376 . S
N112 C116 1.383 . S
C113 N112 1.376 . S
C113 C114 1.446 . S
C113 C143 1.391 . S
C114 C113 1.446 . S
C114 C115 1.339 . S
C114 H149 0.949 . S
C115 C114 1.339 . S
C115 C116 1.439 . S
C115 H150 0.950 . S
C116 N112 1.383 . S
C116 C115 1.439 . S
C116 C145 1.392 . S
N117 Co111 2.008 . S
N117 C118 1.376 . S
N117 C121 1.374 . S
C118 N117 1.376 . S
C118 C119 1.443 . S
C118 C145 1.389 . S
C119 C118 1.443 . S
C119 C120 1.340 . S
C119 H151 0.951 . S
C120 C119 1.340 . S
C120 C121 1.439 . S
C120 H152 0.950 . S
C121 N117 1.374 . S
C121 C120 1.439 . S
C121 C146 1.395 . S
N122 Co111 1.995 . S
N122 C123 1.376 . S
N122 C126 1.383 . S
C123 N122 1.376 . S
C123 C124 1.446 . S
C123 C146 1.391 . S
C124 C123 1.446 . S
C124 C125 1.339 . S
C124 H153 0.949 . S
C125 C124 1.339 . S
C125 C126 1.439 . S
C125 H154 0.950 . S
C126 N122 1.383 . S
C126 C125 1.439 . S
C126 C144 1.392 . S
N127 Co111 2.282 . S
N127 C130 1.332 . S
N127 C132 1.332 . S
C128 C129 1.386 . S
C128 C131 1.388 . S
C129 C128 1.386 . S
C129 C130 1.382 . S
C129 H155 0.950 . S
C130 N127 1.332 . S
C130 C129 1.382 . S
C130 H141 0.952 . S
C131 C128 1.388 . S
C131 C132 1.382 . S
C131 H156 0.950 . S
C132 N127 1.332 . S
C132 C131 1.382 . S
C132 H142 0.948 . S
N133 Co111 2.282 . S
N133 C137 1.332 . S
N133 C138 1.332 . S
C134 C135 1.388 . S
C134 C138 1.382 . S
C134 H157 0.950 . S
C135 C134 1.388 . S
C135 C136 1.386 . S
C136 C135 1.386 . S
C136 C137 1.382 . S
C136 H158 0.950 . S
C137 N133 1.332 . S
C137 C136 1.382 . S
C137 H139 0.952 . S
C138 N133 1.332 . S
C138 C134 1.382 . S
C138 H140 0.948 . S
H139 C137 0.952 . S
H140 C138 0.948 . S
H141 C130 0.952 . S
H142 C132 0.948 . S
C143 C109 1.395 . S
C143 C113 1.391 . S
C144 C106 1.389 . S
C144 C126 1.392 . S
C145 C116 1.392 . S
C145 C118 1.389 . S
C146 C121 1.395 . S
C146 C123 1.391 . S
H147 C107 0.951 . S
H148 C108 0.950 . S
H149 C114 0.949 . S
H150 C115 0.950 . S
H151 C119 0.951 . S
H152 C120 0.950 . S
H153 C124 0.949 . S
H154 C125 0.950 . S
H155 C129 0.950 . S
H156 C131 0.950 . S
H157 C134 0.950 . S
H158 C136 0.950 . S
C159 C160 1.443 . S
C159 N163 1.376 . S
C159 C197 1.389 . S
C160 C159 1.443 . S
C160 C161 1.340 . S
C160 H200 0.951 . S
C161 C160 1.340 . S
C161 C162 1.439 . S
C161 H201 0.950 . S
C162 C161 1.439 . S
C162 N163 1.374 . S
C162 C196 1.395 . S
N163 C159 1.376 . S
N163 C162 1.374 . S
N163 Co164 2.008 1_655 S
Co164 N163 2.008 1_455 S
Co164 N165 1.995 1_455 S
Co164 N170 2.008 . S
Co164 N175 1.995 . S
Co164 N180 2.282 . S
Co164 N186 2.282 1_455 S
N165 Co164 1.995 1_655 S
N165 C166 1.376 . S
N165 C169 1.383 1_655 S
C166 N165 1.376 . S
C166 C167 1.446 . S
C166 C196 1.391 . S
C167 C166 1.446 . S
C167 C168 1.339 . S
C167 H202 0.949 . S
C168 C167 1.339 . S
C168 C169 1.439 1_655 S
C168 H203 0.950 . S
C169 N165 1.383 1_455 S
C169 C168 1.439 1_455 S
C169 C198 1.392 . S
N170 Co164 2.008 . S
N170 C171 1.376 . S
N170 C174 1.374 . S
C171 N170 1.376 . S
C171 C172 1.443 . S
C171 C198 1.389 . S
C172 C171 1.443 . S
C172 C173 1.340 . S
C172 H204 0.951 . S
C173 C172 1.340 . S
C173 C174 1.439 . S
C173 H205 0.950 . S
C174 N170 1.374 . S
C174 C173 1.439 . S
C174 C199 1.395 . S
N175 Co164 1.995 . S
N175 C176 1.376 . S
N175 C179 1.383 1_455 S
C176 N175 1.376 . S
C176 C177 1.446 . S
C176 C199 1.391 . S
C177 C176 1.446 . S
C177 C178 1.339 . S
C177 H206 0.949 . S
C178 C177 1.339 . S
C178 C179 1.439 1_455 S
C178 H207 0.950 . S
C179 N175 1.383 1_655 S
C179 C178 1.439 1_655 S
C179 C197 1.392 . S
N180 Co164 2.282 . S
N180 C183 1.332 . S
N180 C185 1.332 . S
C181 C182 1.386 . S
C181 C184 1.388 . S
C182 C181 1.386 . S
C182 C183 1.382 . S
C182 H208 0.950 . S
C183 N180 1.332 . S
C183 C182 1.382 . S
C183 H194 0.952 . S
C184 C181 1.388 . S
C184 C185 1.382 . S
C184 H209 0.950 . S
C185 N180 1.332 . S
C185 C184 1.382 . S
C185 H195 0.948 1_455 S
N186 Co164 2.282 1_655 S
N186 C190 1.332 . S
N186 C191 1.332 . S
C187 C188 1.388 . S
C187 C191 1.382 . S
C187 H210 0.950 . S
C188 C187 1.388 . S
C188 C189 1.386 . S
C189 C188 1.386 . S
C189 C190 1.382 . S
C189 H211 0.950 . S
C190 N186 1.332 . S
C190 C189 1.382 . S
C190 H192 0.952 . S
C191 N186 1.332 . S
C191 C187 1.382 . S
C191 H193 0.948 1_655 S
H192 C190 0.952 . S
H193 C191 0.948 1_455 S
H194 C183 0.952 . S
H195 C185 0.948 1_655 S
C196 C162 1.395 . S
C196 C166 1.391 . S
C197 C159 1.389 . S
C197 C179 1.392 . S
C198 C169 1.392 . S
C198 C171 1.389 . S
C199 C174 1.395 . S
C199 C176 1.391 . S
H200 C160 0.951 . S
H201 C161 0.950 . S
H202 C167 0.949 . S
H203 C168 0.950 . S
H204 C172 0.951 . S
H205 C173 0.950 . S
H206 C177 0.949 . S
H207 C178 0.950 . S
H208 C182 0.950 . S
H209 C184 0.950 . S
H210 C187 0.950 . S
H211 C189 0.950 . S
C212 C213 1.443 . S
C212 N216 1.376 . S
C212 C250 1.389 . S
C213 C212 1.443 . S
C213 C214 1.340 . S
C213 H253 0.951 . S
C214 C213 1.340 . S
C214 C215 1.439 . S
C214 H254 0.950 . S
C215 C214 1.439 . S
C215 N216 1.374 . S
C215 C249 1.395 . S
N216 C212 1.376 . S
N216 C215 1.374 . S
N216 Co217 2.008 . S
Co217 N216 2.008 . S
Co217 N218 1.995 . S
Co217 N223 2.008 . S
Co217 N228 1.995 . S
Co217 N233 2.282 . S
Co217 N239 2.282 . S
N218 Co217 1.995 . S
N218 C219 1.376 . S
N218 C222 1.383 . S
C219 N218 1.376 . S
C219 C220 1.446 . S
C219 C249 1.391 . S
C220 C219 1.446 . S
C220 C221 1.339 . S
C220 H255 0.949 . S
C221 C220 1.339 . S
C221 C222 1.439 . S
C221 H256 0.950 . S
C222 N218 1.383 . S
C222 C221 1.439 . S
C222 C251 1.392 . S
N223 Co217 2.008 . S
N223 C224 1.376 . S
N223 C227 1.374 . S
C224 N223 1.376 . S
C224 C225 1.443 . S
C224 C251 1.389 . S
C225 C224 1.443 . S
C225 C226 1.340 . S
C225 H257 0.974 . S
C226 C225 1.340 . S
C226 C227 1.439 . S
C226 H258 0.950 . S
C227 N223 1.374 . S
C227 C226 1.439 . S
C227 C252 1.395 1_545 S
N228 Co217 1.995 . S
N228 C229 1.376 1_545 S
N228 C232 1.383 . S
C229 N228 1.376 1_565 S
C229 C230 1.446 . S
C229 C252 1.391 . S
C230 C229 1.446 . S
C230 C231 1.339 . S
C230 H259 0.949 . S
C231 C230 1.339 . S
C231 C232 1.439 1_565 S
C231 H260 0.950 . S
C232 N228 1.383 . S
C232 C231 1.439 1_545 S
C232 C250 1.392 . S
N233 Co217 2.282 . S
N233 C236 1.332 . S
N233 C238 1.332 . S
C234 C235 1.386 . S
C234 C237 1.388 . S
C235 C234 1.386 . S
C235 C236 1.382 . S
C235 H261 0.950 . S
C236 N233 1.332 . S
C236 C235 1.382 . S
C236 H247 0.952 . S
C237 C234 1.388 . S
C237 C238 1.382 . S
C237 H262 0.950 . S
C238 N233 1.332 . S
C238 C237 1.382 . S
C238 H248 0.948 . S
N239 Co217 2.282 . S
N239 C243 1.332 . S
N239 C244 1.332 . S
C240 C241 1.388 1_565 S
C240 C244 1.382 1_565 S
C240 H263 0.950 . S
C241 C240 1.388 1_545 S
C241 C242 1.386 . S
C242 C241 1.386 . S
C242 C243 1.382 . S
C242 H264 0.950 . S
C243 N239 1.332 . S
C243 C242 1.382 . S
C243 H245 0.952 . S
C244 N239 1.332 . S
C244 C240 1.382 1_545 S
C244 H246 0.948 1_545 S
H245 C243 0.952 . S
H246 C244 0.948 1_565 S
H247 C236 0.952 . S
H248 C238 0.948 . S
C249 C215 1.395 . S
C249 C219 1.391 . S
C250 C212 1.389 . S
C250 C232 1.392 . S
C251 C222 1.392 . S
C251 C224 1.389 . S
C252 C227 1.395 1_565 S
C252 C229 1.391 . S
H253 C213 0.951 . S
H254 C214 0.950 . S
H255 C220 0.949 . S
H256 C221 0.950 . S
H257 C225 0.974 . S
H258 C226 0.950 . S
H259 C230 0.949 . S
H260 C231 0.950 . S
H261 C235 0.950 . S
H262 C237 0.950 . S
H263 C240 0.950 . S
H264 C242 0.950 . S
C265 C266 1.443 . S
C265 N269 1.376 . S
C265 C303 1.389 . S
C266 C265 1.443 . S
C266 C267 1.340 . S
C266 H306 0.951 . S
C267 C266 1.340 . S
C267 C268 1.439 . S
C267 H307 0.950 . S
C268 C267 1.439 . S
C268 N269 1.374 . S
C268 C302 1.395 . S
N269 C265 1.376 . S
N269 C268 1.374 . S
N269 Co270 2.008 . S
Co270 N269 2.008 . S
Co270 N271 1.995 . S
Co270 N276 2.008 . S
Co270 N281 1.995 . S
Co270 N286 2.282 . S
Co270 N292 2.282 . S
N271 Co270 1.995 . S
N271 C272 1.376 . S
N271 C275 1.383 . S
C272 N271 1.376 . S
C272 C273 1.446 . S
C272 C302 1.391 . S
C273 C272 1.446 . S
C273 C274 1.339 . S
C273 H308 0.949 . S
C274 C273 1.339 . S
C274 C275 1.439 . S
C274 H309 0.950 . S
C275 N271 1.383 . S
C275 C274 1.439 . S
C275 C304 1.392 . S
N276 Co270 2.008 . S
N276 C277 1.376 . S
N276 C280 1.374 . S
C277 N276 1.376 . S
C277 C278 1.443 . S
C277 C304 1.389 . S
C278 C277 1.443 . S
C278 C279 1.340 . S
C278 H310 0.951 . S
C279 C278 1.340 . S
C279 C280 1.439 . S
C279 H311 0.950 . S
C280 N276 1.374 . S
C280 C279 1.439 . S
C280 C305 1.395 . S
N281 Co270 1.995 . S
N281 C282 1.376 . S
N281 C285 1.383 . S
C282 N281 1.376 . S
C282 C283 1.446 . S
C282 C305 1.391 . S
C283 C282 1.446 . S
C283 C284 1.339 . S
C283 H312 0.949 . S
C284 C283 1.339 . S
C284 C285 1.439 . S
C284 H313 0.950 . S
C285 N281 1.383 . S
C285 C284 1.439 . S
C285 C303 1.392 . S
N286 Co270 2.282 . S
N286 C289 1.332 . S
N286 C291 1.332 . S
C287 C288 1.386 . S
C287 C290 1.388 . S
C288 C287 1.386 . S
C288 C289 1.382 . S
C288 H314 0.950 . S
C289 N286 1.332 . S
C289 C288 1.382 . S
C289 H300 0.952 . S
C290 C287 1.388 . S
C290 C291 1.382 . S
C290 H315 0.950 . S
C291 N286 1.332 . S
C291 C290 1.382 . S
C291 H301 0.948 . S
N292 Co270 2.282 . S
N292 C296 1.332 . S
N292 C297 1.332 . S
C293 C294 1.388 . S
C293 C297 1.382 . S
C293 H316 0.950 . S
C294 C293 1.388 . S
C294 C295 1.386 . S
C295 C294 1.386 . S
C295 C296 1.382 . S
C295 H317 0.950 . S
C296 N292 1.332 . S
C296 C295 1.382 . S
C296 H298 0.952 . S
C297 N292 1.332 . S
C297 C293 1.382 . S
C297 H299 0.948 . S
H298 C296 0.952 . S
H299 C297 0.948 . S
H300 C289 0.952 . S
H301 C291 0.948 . S
C302 C268 1.395 . S
C302 C272 1.391 . S
C303 C265 1.389 . S
C303 C285 1.392 . S
C304 C275 1.392 . S
C304 C277 1.389 . S
C305 C280 1.395 . S
C305 C282 1.391 . S
H306 C266 0.951 . S
H307 C267 0.950 . S
H308 C273 0.949 . S
H309 C274 0.950 . S
H310 C278 0.951 . S
H311 C279 0.950 . S
H312 C283 0.949 . S
H313 C284 0.950 . S
H314 C288 0.950 . S
H315 C290 0.950 . S
H316 C293 0.950 . S
H317 C295 0.950 . S
H318 O344 0.856 . S
H319 O347 0.854 . S
H320 C355 0.930 . S
H321 C356 0.930 . S
H322 C358 0.930 . S
H323 C359 0.930 . S
H324 C361 0.931 . S
H325 C362 0.930 . S
H326 C364 0.930 . S
H327 C365 0.929 . S
H328 C367 0.930 . S
H329 C368 0.931 . S
H330 C370 0.930 . S
H331 C371 0.929 . S
H332 C373 0.931 . S
H333 C374 0.930 . S
H334 C376 0.930 . S
H335 C377 0.932 . S
H336 C379 0.930 . S
H337 C380 0.929 . S
H338 C382 0.931 . S
H339 C383 0.930 . S
H340 C385 0.929 . S
H341 C386 0.931 . S
H342 C388 0.930 . S
H343 C389 0.929 . S
O344 H318 0.856 . S
O344 C390 1.300 . S
O345 C390 1.209 . S
O346 C391 1.199 . S
O347 H319 0.854 . S
O347 C391 1.297 . S
C348 C349 1.404 . S
C348 C353 1.397 . S
C348 C354 1.492 . S
C349 C348 1.404 . S
C349 C350 1.396 . S
C349 C360 1.492 . S
C350 C349 1.396 . S
C350 C351 1.397 . S
C350 C366 1.509 . S
C351 C350 1.397 . S
C351 C352 1.412 . S
C351 C372 1.485 . S
C352 C351 1.412 . S
C352 C353 1.388 . S
C352 C378 1.490 . S
C353 C348 1.397 . S
C353 C352 1.388 . S
C353 C384 1.519 . S
C354 C348 1.492 . S
C354 C355 1.363 . S
C354 C359 1.390 . S
C355 H320 0.930 . S
C355 C354 1.363 . S
C355 C356 1.372 . S
C356 H321 0.930 . S
C356 C355 1.372 . S
C356 C357 1.383 . S
C357 C356 1.383 . S
C357 C358 1.395 . S
C358 H322 0.930 . S
C358 C357 1.395 . S
C358 C359 1.362 . S
C359 H323 0.930 . S
C359 C354 1.390 . S
C359 C358 1.362 . S
C360 C349 1.492 . S
C360 C361 1.377 . S
C360 C365 1.397 . S
C361 H324 0.931 . S
C361 C360 1.377 . S
C361 C362 1.376 . S
C362 H325 0.930 . S
C362 C361 1.376 . S
C362 C363 1.376 . S
C363 C362 1.376 . S
C363 C364 1.378 . S
C363 C390 1.486 . S
C364 H326 0.930 . S
C364 C363 1.378 . S
C364 C365 1.376 . S
C365 H327 0.929 . S
C365 C360 1.397 . S
C365 C364 1.376 . S
C366 C350 1.509 . S
C366 C367 1.391 . S
C366 C371 1.386 . S
C367 H328 0.930 . S
C367 C366 1.391 . S
C367 C368 1.375 . S
C368 H329 0.931 . S
C368 C367 1.375 . S
C368 C369 1.375 . S
C369 C368 1.375 . S
C369 C370 1.361 . S
C370 H330 0.930 . S
C370 C369 1.361 . S
C370 C371 1.399 . S
C371 H331 0.929 . S
C371 C366 1.386 . S
C371 C370 1.399 . S
C372 C351 1.485 . S
C372 C373 1.394 . S
C372 C377 1.360 . S
C373 H332 0.931 . S
C373 C372 1.394 . S
C373 C374 1.372 . S
C374 H333 0.930 . S
C374 C373 1.372 . S
C374 C375 1.397 . S
C375 C374 1.397 . S
C375 C376 1.390 . S
C375 C391 1.476 . S
C376 H334 0.930 . S
C376 C375 1.390 . S
C376 C377 1.366 . S
C377 H335 0.932 . S
C377 C372 1.360 . S
C377 C376 1.366 . S
C378 C352 1.490 . S
C378 C379 1.380 . S
C378 C383 1.386 . S
C379 H336 0.930 . S
C379 C378 1.380 . S
C379 C380 1.381 . S
C380 H337 0.929 . S
C380 C379 1.381 . S
C380 C381 1.371 . S
C381 C380 1.371 . S
C381 C382 1.380 . S
C382 H338 0.931 . S
C382 C381 1.380 . S
C382 C383 1.387 . S
C383 H339 0.930 . S
C383 C378 1.386 . S
C383 C382 1.387 . S
C384 C353 1.519 . S
C384 C385 1.377 . S
C384 C389 1.361 . S
C385 H340 0.929 . S
C385 C384 1.377 . S
C385 C386 1.386 . S
C386 H341 0.931 . S
C386 C385 1.386 . S
C386 C387 1.363 . S
C387 C386 1.363 . S
C387 C388 1.385 . S
C388 H342 0.930 . S
C388 C387 1.385 . S
C388 C389 1.396 . S
C389 H343 0.929 . S
C389 C384 1.361 . S
C389 C388 1.396 . S
C390 O344 1.300 . S
C390 O345 1.209 . S
C390 C363 1.486 . S
C391 O346 1.199 . S
C391 O347 1.297 . S
C391 C375 1.476 . S
H392 O418 0.856 . S
H393 O421 0.854 . S
H394 C429 0.930 . S
H395 C430 0.930 . S
H396 C432 0.930 . S
H397 C433 0.930 . S
H398 C435 0.931 . S
H399 C436 0.930 . S
H400 C438 0.930 . S
H401 C439 0.929 . S
H402 C441 0.930 . S
H403 C442 0.931 . S
H404 C444 0.930 . S
H405 C445 0.929 . S
H406 C447 0.931 . S
H407 C448 0.930 . S
H408 C450 0.930 . S
H409 C451 0.932 . S
H410 C453 0.930 . S
H411 C454 0.929 . S
H412 C456 0.931 . S
H413 C457 0.930 . S
H414 C459 0.929 . S
H415 C460 0.931 . S
H416 C462 0.930 . S
H417 C463 0.929 . S
O418 H392 0.856 . S
O418 C464 1.300 . S
O419 C464 1.209 . S
O420 C465 1.199 . S
O421 H393 0.854 . S
O421 C465 1.297 . S
C422 C423 1.404 . S
C422 C427 1.397 . S
C422 C428 1.492 . S
C423 C422 1.404 . S
C423 C424 1.396 . S
C423 C434 1.492 . S
C424 C423 1.396 . S
C424 C425 1.397 . S
C424 C440 1.509 . S
C425 C424 1.397 . S
C425 C426 1.412 . S
C425 C446 1.485 . S
C426 C425 1.412 . S
C426 C427 1.388 . S
C426 C452 1.490 . S
C427 C422 1.397 . S
C427 C426 1.388 . S
C427 C458 1.519 . S
C428 C422 1.492 . S
C428 C429 1.363 . S
C428 C433 1.390 . S
C429 H394 0.930 . S
C429 C428 1.363 . S
C429 C430 1.372 . S
C430 H395 0.930 . S
C430 C429 1.372 . S
C430 C431 1.383 . S
C431 C430 1.383 . S
C431 C432 1.395 . S
C432 H396 0.930 . S
C432 C431 1.395 . S
C432 C433 1.362 . S
C433 H397 0.930 . S
C433 C428 1.390 . S
C433 C432 1.362 . S
C434 C423 1.492 . S
C434 C435 1.377 . S
C434 C439 1.397 . S
C435 H398 0.931 . S
C435 C434 1.377 . S
C435 C436 1.376 . S
C436 H399 0.930 . S
C436 C435 1.376 . S
C436 C437 1.376 . S
C437 C436 1.376 . S
C437 C438 1.378 . S
C437 C464 1.486 . S
C438 H400 0.930 . S
C438 C437 1.378 . S
C438 C439 1.376 . S
C439 H401 0.929 . S
C439 C434 1.397 . S
C439 C438 1.376 . S
C440 C424 1.509 . S
C440 C441 1.391 . S
C440 C445 1.386 . S
C441 H402 0.930 . S
C441 C440 1.391 . S
C441 C442 1.375 . S
C442 H403 0.931 . S
C442 C441 1.375 . S
C442 C443 1.375 . S
C443 C442 1.375 . S
C443 C444 1.361 . S
C444 H404 0.930 . S
C444 C443 1.361 . S
C444 C445 1.399 . S
C445 H405 0.929 . S
C445 C440 1.386 . S
C445 C444 1.399 . S
C446 C425 1.485 . S
C446 C447 1.394 . S
C446 C451 1.360 . S
C447 H406 0.931 . S
C447 C446 1.394 . S
C447 C448 1.372 . S
C448 H407 0.930 . S
C448 C447 1.372 . S
C448 C449 1.397 . S
C449 C448 1.397 . S
C449 C450 1.390 . S
C449 C465 1.476 . S
C450 H408 0.930 . S
C450 C449 1.390 . S
C450 C451 1.366 . S
C451 H409 0.932 . S
C451 C446 1.360 . S
C451 C450 1.366 . S
C452 C426 1.490 . S
C452 C453 1.380 . S
C452 C457 1.386 . S
C453 H410 0.930 . S
C453 C452 1.380 . S
C453 C454 1.381 . S
C454 H411 0.929 . S
C454 C453 1.381 . S
C454 C455 1.371 . S
C455 C454 1.371 . S
C455 C456 1.380 . S
C456 H412 0.931 . S
C456 C455 1.380 . S
C456 C457 1.387 . S
C457 H413 0.930 . S
C457 C452 1.386 . S
C457 C456 1.387 . S
C458 C427 1.519 . S
C458 C459 1.377 . S
C458 C463 1.361 . S
C459 H414 0.929 . S
C459 C458 1.377 . S
C459 C460 1.386 . S
C460 H415 0.931 . S
C460 C459 1.386 . S
C460 C461 1.363 . S
C461 C460 1.363 . S
C461 C462 1.385 . S
C462 H416 0.930 . S
C462 C461 1.385 . S
C462 C463 1.396 . S
C463 H417 0.929 . S
C463 C458 1.361 . S
C463 C462 1.396 . S
C464 O418 1.300 . S
C464 O419 1.209 . S
C464 C437 1.486 . S
C465 O420 1.199 . S
C465 O421 1.297 . S
C465 C449 1.476 . S
H466 O492 0.856 . S
H467 O495 0.854 1_545 S
H468 C503 0.930 . S
H469 C504 0.930 . S
H470 C506 0.930 . S
H471 C507 0.930 . S
H472 C509 0.931 . S
H473 C510 0.930 . S
H474 C512 0.930 . S
H475 C513 0.929 . S
H476 C515 0.930 . S
H477 C516 0.931 . S
H478 C518 0.930 . S
H479 C519 0.929 . S
H480 C521 0.931 . S
H481 C522 0.930 . S
H482 C524 0.930 . S
H483 C525 0.932 . S
H484 C527 0.930 . S
H485 C528 0.929 . S
H486 C530 0.931 . S
H487 C531 0.930 . S
H488 C533 0.929 . S
H489 C534 0.931 . S
H490 C536 0.930 . S
H491 C537 0.929 . S
O492 H466 0.856 . S
O492 C538 1.300 . S
O493 C538 1.209 . S
O494 C539 1.199 . S
O495 H467 0.854 1_565 S
O495 C539 1.297 . S
C496 C497 1.404 . S
C496 C501 1.397 . S
C496 C502 1.492 . S
C497 C496 1.404 . S
C497 C498 1.396 . S
C497 C508 1.492 . S
C498 C497 1.396 . S
C498 C499 1.397 . S
C498 C514 1.509 . S
C499 C498 1.397 . S
C499 C500 1.412 . S
C499 C520 1.485 . S
C500 C499 1.412 . S
C500 C501 1.388 . S
C500 C526 1.490 . S
C501 C496 1.397 . S
C501 C500 1.388 . S
C501 C532 1.519 . S
C502 C496 1.492 . S
C502 C503 1.363 . S
C502 C507 1.390 . S
C503 H468 0.930 . S
C503 C502 1.363 . S
C503 C504 1.372 . S
C504 H469 0.930 . S
C504 C503 1.372 . S
C504 C505 1.383 . S
C505 C504 1.383 . S
C505 C506 1.395 . S
C506 H470 0.930 . S
C506 C505 1.395 . S
C506 C507 1.362 . S
C507 H471 0.930 . S
C507 C502 1.390 . S
C507 C506 1.362 . S
C508 C497 1.492 . S
C508 C509 1.377 . S
C508 C513 1.397 . S
C509 H472 0.931 . S
C509 C508 1.377 . S
C509 C510 1.376 . S
C510 H473 0.930 . S
C510 C509 1.376 . S
C510 C511 1.376 . S
C511 C510 1.376 . S
C511 C512 1.378 . S
C511 C538 1.486 . S
C512 H474 0.930 . S
C512 C511 1.378 . S
C512 C513 1.376 . S
C513 H475 0.929 . S
C513 C508 1.397 . S
C513 C512 1.376 . S
C514 C498 1.509 . S
C514 C515 1.391 . S
C514 C519 1.386 . S
C515 H476 0.930 . S
C515 C514 1.391 . S
C515 C516 1.375 . S
C516 H477 0.931 . S
C516 C515 1.375 . S
C516 C517 1.375 . S
C517 C516 1.375 . S
C517 C518 1.361 . S
C518 H478 0.930 . S
C518 C517 1.361 . S
C518 C519 1.399 . S
C519 H479 0.929 . S
C519 C514 1.386 . S
C519 C518 1.399 . S
C520 C499 1.485 . S
C520 C521 1.394 . S
C520 C525 1.360 . S
C521 H480 0.931 . S
C521 C520 1.394 . S
C521 C522 1.372 . S
C522 H481 0.930 . S
C522 C521 1.372 . S
C522 C523 1.397 . S
C523 C522 1.397 . S
C523 C524 1.390 . S
C523 C539 1.476 . S
C524 H482 0.930 . S
C524 C523 1.390 . S
C524 C525 1.366 . S
C525 H483 0.932 . S
C525 C520 1.360 . S
C525 C524 1.366 . S
C526 C500 1.490 . S
C526 C527 1.380 . S
C526 C531 1.386 . S
C527 H484 0.930 . S
C527 C526 1.380 . S
C527 C528 1.381 . S
C528 H485 0.929 . S
C528 C527 1.381 . S
C528 C529 1.371 . S
C529 C528 1.371 . S
C529 C530 1.380 . S
C530 H486 0.931 . S
C530 C529 1.380 . S
C530 C531 1.387 . S
C531 H487 0.930 . S
C531 C526 1.386 . S
C531 C530 1.387 . S
C532 C501 1.519 . S
C532 C533 1.377 . S
C532 C537 1.361 . S
C533 H488 0.929 . S
C533 C532 1.377 . S
C533 C534 1.386 . S
C534 H489 0.931 . S
C534 C533 1.386 . S
C534 C535 1.363 . S
C535 C534 1.363 . S
C535 C536 1.385 . S
C536 H490 0.930 . S
C536 C535 1.385 . S
C536 C537 1.396 . S
C537 H491 0.929 . S
C537 C532 1.361 . S
C537 C536 1.396 . S
C538 O492 1.300 . S
C538 O493 1.209 . S
C538 C511 1.486 . S
C539 O494 1.199 . S
C539 O495 1.297 . S
C539 C523 1.476 . S
H540 O566 0.856 . S
H541 O569 0.854 . S
H542 C577 0.930 . S
H543 C578 0.930 . S
H544 C580 0.930 . S
H545 C581 0.930 . S
H546 C583 0.931 . S
H547 C584 0.930 . S
H548 C586 0.930 . S
H549 C587 0.929 . S
H550 C589 0.930 . S
H551 C590 0.931 . S
H552 C592 0.930 . S
H553 C593 0.929 . S
H554 C595 0.931 . S
H555 C596 0.942 . S
H556 C598 0.930 . S
H557 C599 0.932 . S
H558 C601 0.930 . S
H559 C602 0.929 . S
H560 C604 0.931 . S
H561 C605 0.930 . S
H562 C607 0.929 . S
H563 C608 0.931 . S
H564 C610 0.930 . S
H565 C611 0.929 . S
O566 H540 0.856 . S
O566 C612 1.300 . S
O567 C612 1.209 . S
O568 C613 1.199 . S
O569 H541 0.854 . S
O569 C613 1.297 . S
C570 C571 1.404 . S
C570 C575 1.397 . S
C570 C576 1.492 . S
C571 C570 1.404 . S
C571 C572 1.396 . S
C571 C582 1.492 . S
C572 C571 1.396 . S
C572 C573 1.397 . S
C572 C588 1.509 . S
C573 C572 1.397 . S
C573 C574 1.412 . S
C573 C594 1.485 . S
C574 C573 1.412 . S
C574 C575 1.388 . S
C574 C600 1.490 . S
C575 C570 1.397 . S
C575 C574 1.388 . S
C575 C606 1.519 . S
C576 C570 1.492 . S
C576 C577 1.363 . S
C576 C581 1.390 . S
C577 H542 0.930 . S
C577 C576 1.363 . S
C577 C578 1.372 . S
C578 H543 0.930 . S
C578 C577 1.372 . S
C578 C579 1.383 . S
C579 C578 1.383 . S
C579 C580 1.395 . S
C580 H544 0.930 . S
C580 C579 1.395 . S
C580 C581 1.362 . S
C581 H545 0.930 . S
C581 C576 1.390 . S
C581 C580 1.362 . S
C582 C571 1.492 . S
C582 C583 1.377 . S
C582 C587 1.397 . S
C583 H546 0.931 . S
C583 C582 1.377 . S
C583 C584 1.376 . S
C584 H547 0.930 . S
C584 C583 1.376 . S
C584 C585 1.376 . S
C585 C584 1.376 . S
C585 C586 1.378 . S
C585 C612 1.486 . S
C586 H548 0.930 . S
C586 C585 1.378 . S
C586 C587 1.376 . S
C587 H549 0.929 . S
C587 C582 1.397 . S
C587 C586 1.376 . S
C588 C572 1.509 . S
C588 C589 1.391 . S
C588 C593 1.386 . S
C589 H550 0.930 . S
C589 C588 1.391 . S
C589 C590 1.375 . S
C590 H551 0.931 . S
C590 C589 1.375 . S
C590 C591 1.375 . S
C591 C590 1.375 . S
C591 C592 1.361 . S
C592 H552 0.930 . S
C592 C591 1.361 . S
C592 C593 1.399 . S
C593 H553 0.929 . S
C593 C588 1.386 . S
C593 C592 1.399 . S
C594 C573 1.485 . S
C594 C595 1.394 . S
C594 C599 1.360 . S
C595 H554 0.931 . S
C595 C594 1.394 . S
C595 C596 1.347 1_655 S
C596 H555 0.942 . S
C596 C595 1.347 1_455 S
C596 C597 1.409 1_455 S
C597 C596 1.409 1_655 S
C597 C598 1.389 . S
C597 C613 1.478 1_655 S
C598 H556 0.930 . S
C598 C597 1.389 . S
C598 C599 1.366 . S
C599 H557 0.932 . S
C599 C594 1.360 . S
C599 C598 1.366 . S
C600 C574 1.490 . S
C600 C601 1.380 . S
C600 C605 1.386 . S
C601 H558 0.930 . S
C601 C600 1.380 . S
C601 C602 1.381 . S
C602 H559 0.929 . S
C602 C601 1.381 . S
C602 C603 1.371 . S
C603 C602 1.371 . S
C603 C604 1.380 . S
C604 H560 0.931 . S
C604 C603 1.380 . S
C604 C605 1.387 . S
C605 H561 0.930 . S
C605 C600 1.386 . S
C605 C604 1.387 . S
C606 C575 1.519 . S
C606 C607 1.377 . S
C606 C611 1.361 . S
C607 H562 0.929 . S
C607 C606 1.377 . S
C607 C608 1.386 . S
C608 H563 0.931 . S
C608 C607 1.386 . S
C608 C609 1.363 . S
C609 C608 1.363 . S
C609 C610 1.385 . S
C610 H564 0.930 . S
C610 C609 1.385 . S
C610 C611 1.396 . S
C611 H565 0.929 . S
C611 C606 1.361 . S
C611 C610 1.396 . S
C612 O566 1.300 . S
C612 O567 1.209 . S
C612 C585 1.486 . S
C613 O568 1.199 . S
C613 O569 1.297 . S
C613 C597 1.478 1_455 S
H614 O640 0.856 . S
H615 O643 0.854 . S
H616 C651 0.930 . S
H617 C652 0.930 . S
H618 C654 0.930 . S
H619 C655 0.930 . S
H620 C657 0.931 . S
H621 C658 0.930 . S
H622 C660 0.930 . S
H623 C661 0.929 . S
H624 C663 0.930 . S
H625 C664 0.931 . S
H626 C666 0.930 . S
H627 C667 0.929 . S
H628 C669 0.931 . S
H629 C670 0.930 . S
H630 C672 0.930 . S
H631 C673 0.932 . S
H632 C675 0.930 . S
H633 C676 0.929 . S
H634 C678 0.931 . S
H635 C679 0.930 . S
H636 C681 0.929 . S
H637 C682 0.931 . S
H638 C684 0.930 . S
H639 C685 0.929 . S
O640 H614 0.856 . S
O640 C686 1.300 . S
O641 C686 1.209 . S
O642 C687 1.199 . S
O643 H615 0.854 . S
O643 C687 1.297 . S
C644 C645 1.404 . S
C644 C649 1.397 . S
C644 C650 1.492 . S
C645 C644 1.404 . S
C645 C646 1.396 . S
C645 C656 1.492 . S
C646 C645 1.396 . S
C646 C647 1.397 . S
C646 C662 1.509 . S
C647 C646 1.397 . S
C647 C648 1.412 . S
C647 C668 1.485 . S
C648 C647 1.412 . S
C648 C649 1.388 . S
C648 C674 1.490 . S
C649 C644 1.397 . S
C649 C648 1.388 . S
C649 C680 1.519 . S
C650 C644 1.492 . S
C650 C651 1.363 . S
C650 C655 1.390 . S
C651 H616 0.930 . S
C651 C650 1.363 . S
C651 C652 1.372 . S
C652 H617 0.930 . S
C652 C651 1.372 . S
C652 C653 1.383 . S
C653 C652 1.383 . S
C653 C654 1.395 . S
C654 H618 0.930 . S
C654 C653 1.395 . S
C654 C655 1.362 . S
C655 H619 0.930 . S
C655 C650 1.390 . S
C655 C654 1.362 . S
C656 C645 1.492 . S
C656 C657 1.377 . S
C656 C661 1.397 . S
C657 H620 0.931 . S
C657 C656 1.377 . S
C657 C658 1.376 . S
C658 H621 0.930 . S
C658 C657 1.376 . S
C658 C659 1.376 . S
C659 C658 1.376 . S
C659 C660 1.378 . S
C659 C686 1.486 . S
C660 H622 0.930 . S
C660 C659 1.378 . S
C660 C661 1.376 . S
C661 H623 0.929 . S
C661 C656 1.397 . S
C661 C660 1.376 . S
C662 C646 1.509 . S
C662 C663 1.391 . S
C662 C667 1.386 . S
C663 H624 0.930 . S
C663 C662 1.391 . S
C663 C664 1.375 . S
C664 H625 0.931 . S
C664 C663 1.375 . S
C664 C665 1.375 . S
C665 C664 1.375 . S
C665 C666 1.361 . S
C666 H626 0.930 . S
C666 C665 1.361 . S
C666 C667 1.399 . S
C667 H627 0.929 . S
C667 C662 1.386 . S
C667 C666 1.399 . S
C668 C647 1.485 . S
C668 C669 1.394 . S
C668 C673 1.360 . S
C669 H628 0.931 . S
C669 C668 1.394 . S
C669 C670 1.372 . S
C670 H629 0.930 . S
C670 C669 1.372 . S
C670 C671 1.397 . S
C671 C670 1.397 . S
C671 C672 1.390 . S
C671 C687 1.476 . S
C672 H630 0.930 . S
C672 C671 1.390 . S
C672 C673 1.366 . S
C673 H631 0.932 . S
C673 C668 1.360 . S
C673 C672 1.366 . S
C674 C648 1.490 . S
C674 C675 1.380 . S
C674 C679 1.386 . S
C675 H632 0.930 . S
C675 C674 1.380 . S
C675 C676 1.381 . S
C676 H633 0.929 . S
C676 C675 1.381 . S
C676 C677 1.371 . S
C677 C676 1.371 . S
C677 C678 1.380 . S
C678 H634 0.931 . S
C678 C677 1.380 . S
C678 C679 1.387 . S
C679 H635 0.930 . S
C679 C674 1.386 . S
C679 C678 1.387 . S
C680 C649 1.519 . S
C680 C681 1.377 . S
C680 C685 1.361 . S
C681 H636 0.929 . S
C681 C680 1.377 . S
C681 C682 1.386 . S
C682 H637 0.931 . S
C682 C681 1.386 . S
C682 C683 1.363 . S
C683 C682 1.363 . S
C683 C684 1.385 . S
C684 H638 0.930 . S
C684 C683 1.385 . S
C684 C685 1.396 . S
C685 H639 0.929 . S
C685 C680 1.361 . S
C685 C684 1.396 . S
C686 O640 1.300 . S
C686 O641 1.209 . S
C686 C659 1.486 . S
C687 O642 1.199 . S
C687 O643 1.297 . S
C687 C671 1.476 . S
H688 O714 0.856 . S
H689 O717 0.854 . S
H690 C725 0.930 . S
H691 C726 0.930 . S
H692 C728 0.930 . S
H693 C729 0.930 . S
H694 C731 0.931 . S
H695 C732 0.930 . S
H696 C734 0.930 . S
H697 C735 0.929 . S
H698 C737 0.930 . S
H699 C738 0.931 . S
H700 C740 0.930 . S
H701 C741 0.929 . S
H702 C743 0.931 . S
H703 C744 0.930 . S
H704 C746 0.930 . S
H705 C747 0.932 . S
H706 C749 0.930 . S
H707 C750 0.929 . S
H708 C752 0.931 . S
H709 C753 0.930 . S
H710 C755 0.929 . S
H711 C756 0.931 . S
H712 C758 0.930 . S
H713 C759 0.929 . S
O714 H688 0.856 . S
O714 C760 1.300 . S
O715 C760 1.209 . S
O716 C761 1.199 . S
O717 H689 0.854 . S
O717 C761 1.297 . S
C718 C719 1.404 . S
C718 C723 1.397 . S
C718 C724 1.492 . S
C719 C718 1.404 . S
C719 C720 1.396 . S
C719 C730 1.492 . S
C720 C719 1.396 . S
C720 C721 1.397 . S
C720 C736 1.509 . S
C721 C720 1.397 . S
C721 C722 1.412 . S
C721 C742 1.485 . S
C722 C721 1.412 . S
C722 C723 1.388 . S
C722 C748 1.490 . S
C723 C718 1.397 . S
C723 C722 1.388 . S
C723 C754 1.519 . S
C724 C718 1.492 . S
C724 C725 1.363 . S
C724 C729 1.390 . S
C725 H690 0.930 . S
C725 C724 1.363 . S
C725 C726 1.372 . S
C726 H691 0.930 . S
C726 C725 1.372 . S
C726 C727 1.383 . S
C727 C726 1.383 . S
C727 C728 1.395 . S
C728 H692 0.930 . S
C728 C727 1.395 . S
C728 C729 1.362 . S
C729 H693 0.930 . S
C729 C724 1.390 . S
C729 C728 1.362 . S
C730 C719 1.492 . S
C730 C731 1.377 . S
C730 C735 1.397 . S
C731 H694 0.931 . S
C731 C730 1.377 . S
C731 C732 1.376 . S
C732 H695 0.930 . S
C732 C731 1.376 . S
C732 C733 1.376 . S
C733 C732 1.376 . S
C733 C734 1.378 . S
C733 C760 1.486 . S
C734 H696 0.930 . S
C734 C733 1.378 . S
C734 C735 1.376 . S
C735 H697 0.929 . S
C735 C730 1.397 . S
C735 C734 1.376 . S
C736 C720 1.509 . S
C736 C737 1.391 . S
C736 C741 1.386 . S
C737 H698 0.930 . S
C737 C736 1.391 . S
C737 C738 1.375 . S
C738 H699 0.931 . S
C738 C737 1.375 . S
C738 C739 1.375 . S
C739 C738 1.375 . S
C739 C740 1.361 . S
C740 H700 0.930 . S
C740 C739 1.361 . S
C740 C741 1.399 . S
C741 H701 0.929 . S
C741 C736 1.386 . S
C741 C740 1.399 . S
C742 C721 1.485 . S
C742 C743 1.394 . S
C742 C747 1.360 . S
C743 H702 0.931 . S
C743 C742 1.394 . S
C743 C744 1.372 . S
C744 H703 0.930 . S
C744 C743 1.372 . S
C744 C745 1.397 . S
C745 C744 1.397 . S
C745 C746 1.390 . S
C745 C761 1.476 . S
C746 H704 0.930 . S
C746 C745 1.390 . S
C746 C747 1.366 . S
C747 H705 0.932 . S
C747 C742 1.360 . S
C747 C746 1.366 . S
C748 C722 1.490 . S
C748 C749 1.380 . S
C748 C753 1.386 . S
C749 H706 0.930 . S
C749 C748 1.380 . S
C749 C750 1.381 . S
C750 H707 0.929 . S
C750 C749 1.381 . S
C750 C751 1.371 . S
C751 C750 1.371 . S
C751 C752 1.380 . S
C752 H708 0.931 . S
C752 C751 1.380 . S
C752 C753 1.387 . S
C753 H709 0.930 . S
C753 C748 1.386 . S
C753 C752 1.387 . S
C754 C723 1.519 . S
C754 C755 1.377 . S
C754 C759 1.361 . S
C755 H710 0.929 . S
C755 C754 1.377 . S
C755 C756 1.386 . S
C756 H711 0.931 . S
C756 C755 1.386 . S
C756 C757 1.363 . S
C757 C756 1.363 . S
C757 C758 1.385 . S
C758 H712 0.930 . S
C758 C757 1.385 . S
C758 C759 1.396 . S
C759 H713 0.929 . S
C759 C754 1.361 . S
C759 C758 1.396 . S
C760 O714 1.300 . S
C760 O715 1.209 . S
C760 C733 1.486 . S
C761 O716 1.199 . S
C761 O717 1.297 . S
C761 C745 1.476 . S
H762 C768 0.930 . S
H763 C772 0.930 . S
H764 C777 0.929 . S
H765 C775 0.929 . S
H766 C770 0.929 . S
H767 C776 0.929 . S
C768 H762 0.930 . S
C768 C769 1.367 . S
C768 C776 1.378 . S
C769 C768 1.367 . S
C769 C777 1.433 . S
C770 H766 0.929 . S
C770 C772 1.378 . S
C770 C774 1.350 . S
C771 C774 1.463 . S
C771 C776 1.350 . S
C771 N779 1.427 . S
C772 H763 0.930 . S
C772 C770 1.378 . S
C772 C773 1.367 . S
C773 C772 1.367 . S
C773 C775 1.433 . S
C774 C770 1.350 . S
C774 C771 1.463 . S
C774 N778 1.427 . S
C775 H765 0.929 . S
C775 C773 1.433 . S
C775 N778 1.384 . S
C776 H767 0.929 . S
C776 C768 1.378 . S
C776 C771 1.350 . S
C777 H764 0.929 . S
C777 C769 1.433 . S
C777 N779 1.384 . S
N778 C774 1.427 . S
N778 C775 1.384 . S
N779 C771 1.427 . S
N779 C777 1.384 . S
H780 C786 0.930 . S
H781 C790 0.930 . S
H782 C795 0.929 . S
H783 C793 0.929 . S
H784 C788 0.929 . S
H785 C794 0.929 . S
C786 H780 0.930 . S
C786 C787 1.367 . S
C786 C794 1.378 . S
C787 C786 1.367 . S
C787 C795 1.433 . S
C788 H784 0.929 . S
C788 C790 1.378 . S
C788 C792 1.350 . S
C789 C792 1.463 . S
C789 C794 1.350 . S
C789 N797 1.427 . S
C790 H781 0.930 . S
C790 C788 1.378 . S
C790 C791 1.367 . S
C791 C790 1.367 . S
C791 C793 1.433 . S
C792 C788 1.350 . S
C792 C789 1.463 . S
C792 N796 1.427 . S
C793 H783 0.929 . S
C793 C791 1.433 . S
C793 N796 1.384 . S
C794 H785 0.929 . S
C794 C786 1.378 . S
C794 C789 1.350 . S
C795 H782 0.929 . S
C795 C787 1.433 . S
C795 N797 1.384 . S
N796 C792 1.427 . S
N796 C793 1.384 . S
N797 C789 1.427 . S
N797 C795 1.384 . S
H798 C804 0.930 . S
H799 C808 0.930 . S
H800 C813 0.929 . S
H801 C811 0.929 . S
H802 C806 0.929 . S
H803 C812 0.929 . S
C804 H798 0.930 . S
C804 C805 1.367 . S
C804 C812 1.378 . S
C805 C804 1.367 . S
C805 C813 1.433 . S
C806 H802 0.929 . S
C806 C808 1.378 . S
C806 C810 1.350 . S
C807 C810 1.463 . S
C807 C812 1.350 . S
C807 N815 1.427 . S
C808 H799 0.930 . S
C808 C806 1.378 . S
C808 C809 1.367 . S
C809 C808 1.367 . S
C809 C811 1.433 . S
C810 C806 1.350 . S
C810 C807 1.463 . S
C810 N814 1.427 . S
C811 H801 0.929 . S
C811 C809 1.433 . S
C811 N814 1.384 . S
C812 H803 0.929 . S
C812 C804 1.378 . S
C812 C807 1.350 . S
C813 H800 0.929 . S
C813 C805 1.433 . S
C813 N815 1.384 . S
N814 C810 1.427 . S
N814 C811 1.384 . S
N815 C807 1.427 . S
N815 C813 1.384 . S
H816 C822 0.930 . S
H817 C826 0.930 . S
H818 C831 0.929 . S
H819 C829 0.929 . S
H820 C824 0.929 . S
H821 C830 0.929 . S
C822 H816 0.930 . S
C822 C823 1.367 . S
C822 C830 1.378 . S
C823 C822 1.367 . S
C823 C831 1.433 . S
C824 H820 0.929 . S
C824 C826 1.378 . S
C824 C828 1.350 . S
C825 C828 1.463 . S
C825 C830 1.350 . S
C825 N833 1.427 . S
C826 H817 0.930 . S
C826 C824 1.378 . S
C826 C827 1.367 . S
C827 C826 1.367 . S
C827 C829 1.433 . S
C828 C824 1.350 . S
C828 C825 1.463 . S
C828 N832 1.427 . S
C829 H819 0.929 . S
C829 C827 1.433 . S
C829 N832 1.384 . S
C830 H821 0.929 . S
C830 C822 1.378 . S
C830 C825 1.350 . S
C831 H818 0.929 . S
C831 C823 1.433 . S
C831 N833 1.384 . S
N832 C828 1.427 . S
N832 C829 1.384 . S
N833 C825 1.427 . S
N833 C831 1.384 . S
H834 C840 0.930 . S
H835 C844 0.930 . S
H836 C849 0.929 . S
H837 C847 0.929 . S
H838 C842 0.929 . S
H839 C848 0.929 . S
C840 H834 0.930 . S
C840 C841 1.367 1_545 S
C840 C848 1.378 1_545 S
C841 C840 1.367 1_565 S
C841 C849 1.433 . S
C842 H838 0.929 . S
C842 C844 1.378 . S
C842 C846 1.350 . S
C843 C846 1.463 . S
C843 C848 1.350 . S
C843 N851 1.427 . S
C844 H835 0.930 . S
C844 C842 1.378 . S
C844 C845 1.367 . S
C845 C844 1.367 . S
C845 C847 1.433 . S
C846 C842 1.350 . S
C846 C843 1.463 . S
C846 N850 1.427 . S
C847 H837 0.929 . S
C847 C845 1.433 . S
C847 N850 1.384 . S
C848 H839 0.929 . S
C848 C840 1.378 1_565 S
C848 C843 1.350 . S
C849 H836 0.929 . S
C849 C841 1.433 . S
C849 N851 1.384 . S
N850 C846 1.427 . S
N850 C847 1.384 . S
N851 C843 1.427 . S
N851 C849 1.384 . S
H852 C858 0.930 . S
H853 C862 0.930 . S
H854 C867 0.929 . S
H855 C865 0.929 . S
H856 C860 0.929 . S
H857 C866 0.929 . S
C858 H852 0.930 . S
C858 C859 1.367 . S
C858 C866 1.378 . S
C859 C858 1.367 . S
C859 C867 1.433 . S
C860 H856 0.929 . S
C860 C862 1.378 . S
C860 C864 1.350 . S
C861 C864 1.463 . S
C861 C866 1.350 . S
C861 N869 1.427 . S
C862 H853 0.930 . S
C862 C860 1.378 . S
C862 C863 1.367 . S
C863 C862 1.367 . S
C863 C865 1.433 . S
C864 C860 1.350 . S
C864 C861 1.463 . S
C864 N868 1.427 . S
C865 H855 0.929 . S
C865 C863 1.433 . S
C865 N868 1.384 . S
C866 H857 0.929 . S
C866 C858 1.378 . S
C866 C861 1.350 . S
C867 H854 0.929 . S
C867 C859 1.433 . S
C867 N869 1.384 . S
N868 C864 1.427 . S
N868 C865 1.384 . S
N869 C861 1.427 . S
N869 C867 1.384 . S
H870 C876 0.930 . S
H871 C880 0.930 . S
H872 C885 0.929 . S
H873 C883 0.929 . S
H874 C878 0.929 . S
H875 C884 0.929 . S
C876 H870 0.930 . S
C876 C877 1.367 . S
C876 C884 1.378 . S
C877 C876 1.367 . S
C877 C885 1.433 . S
C878 H874 0.929 . S
C878 C880 1.378 . S
C878 C882 1.350 . S
C879 C882 1.463 . S
C879 C884 1.350 . S
C879 N887 1.427 . S
C880 H871 0.930 . S
C880 C878 1.378 . S
C880 C881 1.367 . S
C881 C880 1.367 . S
C881 C883 1.433 . S
C882 C878 1.350 . S
C882 C879 1.463 . S
C882 N886 1.427 . S
C883 H873 0.929 . S
C883 C881 1.433 . S
C883 N886 1.384 . S
C884 H875 0.929 . S
C884 C876 1.378 . S
C884 C879 1.350 . S
C885 H872 0.929 . S
C885 C877 1.433 . S
C885 N887 1.384 . S
N886 C882 1.427 . S
N886 C883 1.384 . S
N887 C879 1.427 . S
N887 C885 1.384 . S
H888 C894 0.930 . S
H889 C898 0.930 . S
H890 C903 0.929 . S
H891 C901 0.929 . S
H892 C896 0.929 . S
H893 C902 0.929 . S
C894 H888 0.930 . S
C894 C895 1.367 . S
C894 C902 1.378 1_554 S
C895 C894 1.367 . S
C895 C903 1.433 . S
C896 H892 0.929 . S
C896 C898 1.378 . S
C896 C900 1.350 . S
C897 C900 1.463 . S
C897 C902 1.350 . S
C897 N905 1.427 . S
C898 H889 0.930 . S
C898 C896 1.378 . S
C898 C899 1.367 . S
C899 C898 1.367 . S
C899 C901 1.433 . S
C900 C896 1.350 . S
C900 C897 1.463 . S
C900 N904 1.427 . S
C901 H891 0.929 . S
C901 C899 1.433 . S
C901 N904 1.384 . S
C902 H893 0.929 . S
C902 C894 1.378 1_556 S
C902 C897 1.350 . S
C903 H890 0.929 . S
C903 C895 1.433 . S
C903 N905 1.384 1_554 S
N904 C900 1.427 . S
N904 C901 1.384 . S
N905 C897 1.427 . S
N905 C903 1.384 1_556 S
H906 C912 0.930 . S
H907 C916 0.930 . S
H908 C921 0.929 . S
H909 C919 0.929 . S
H910 C914 0.929 . S
H911 C920 0.929 . S
C912 H906 0.930 . S
C912 C913 1.367 . S
C912 C920 1.378 . S
C913 C912 1.367 . S
C913 C921 1.433 . S
C914 H910 0.929 . S
C914 C916 1.378 . S
C914 C918 1.350 . S
C915 C918 1.463 . S
C915 C920 1.350 . S
C915 N923 1.427 . S
C916 H907 0.930 . S
C916 C914 1.378 . S
C916 C917 1.367 . S
C917 C916 1.367 . S
C917 C919 1.433 . S
C918 C914 1.350 . S
C918 C915 1.463 . S
C918 N922 1.427 . S
C919 H909 0.929 . S
C919 C917 1.433 . S
C919 N922 1.384 . S
C920 H911 0.929 . S
C920 C912 1.378 . S
C920 C915 1.350 . S
C921 H908 0.929 . S
C921 C913 1.433 . S
C921 N923 1.384 . S
N922 C918 1.427 . S
N922 C919 1.384 . S
N923 C915 1.427 . S
N923 C921 1.384 . S
H924 C930 0.930 . S
H925 C934 0.930 . S
H926 C939 0.929 . S
H927 C937 0.929 . S
H928 C932 0.929 . S
H929 C938 0.929 . S
C930 H924 0.930 . S
C930 C931 1.367 . S
C930 C938 1.378 1_554 S
C931 C930 1.367 . S
C931 C939 1.433 1_554 S
C932 H928 0.929 . S
C932 C934 1.378 . S
C932 C936 1.350 . S
C933 C936 1.463 . S
C933 C938 1.350 . S
C933 N941 1.427 . S
C934 H925 0.930 . S
C934 C932 1.378 . S
C934 C935 1.367 . S
C935 C934 1.367 . S
C935 C937 1.433 . S
C936 C932 1.350 . S
C936 C933 1.463 . S
C936 N940 1.427 . S
C937 H927 0.929 . S
C937 C935 1.433 . S
C937 N940 1.384 . S
C938 H929 0.929 . S
C938 C930 1.378 1_556 S
C938 C933 1.350 . S
C939 H926 0.929 . S
C939 C931 1.433 1_556 S
C939 N941 1.384 . S
N940 C936 1.427 . S
N940 C937 1.384 . S
N941 C933 1.427 . S
N941 C939 1.384 . S
H942 C948 0.930 . S
H943 C952 0.930 . S
H944 C957 0.929 . S
H945 C955 0.929 . S
H946 C950 0.929 . S
H947 C956 0.929 . S
C948 H942 0.930 . S
C948 C949 1.367 . S
C948 C956 1.378 . S
C949 C948 1.367 . S
C949 C957 1.433 . S
C950 H946 0.929 . S
C950 C952 1.378 . S
C950 C954 1.350 . S
C951 C954 1.463 . S
C951 C956 1.350 . S
C951 N959 1.427 . S
C952 H943 0.930 . S
C952 C950 1.378 . S
C952 C953 1.367 . S
C953 C952 1.367 . S
C953 C955 1.433 . S
C954 C950 1.350 . S
C954 C951 1.463 . S
C954 N958 1.427 . S
C955 H945 0.929 . S
C955 C953 1.433 . S
C955 N958 1.384 . S
C956 H947 0.929 . S
C956 C948 1.378 . S
C956 C951 1.350 . S
C957 H944 0.929 . S
C957 C949 1.433 . S
C957 N959 1.384 . S
N958 C954 1.427 . S
N958 C955 1.384 . S
N959 C951 1.427 . S
N959 C957 1.384 . S
H960 C966 0.930 . S
H961 C970 0.930 . S
H962 C975 0.929 . S
H963 C973 0.929 . S
H964 C968 0.929 . S
H965 C974 0.929 . S
C966 H960 0.930 . S
C966 C967 1.367 . S
C966 C974 1.378 . S
C967 C966 1.367 . S
C967 C975 1.433 . S
C968 H964 0.929 . S
C968 C970 1.378 . S
C968 C972 1.350 1_655 S
C969 C972 1.463 . S
C969 C974 1.350 . S
C969 N977 1.427 . S
C970 H961 0.930 . S
C970 C968 1.378 . S
C970 C971 1.367 . S
C971 C970 1.367 . S
C971 C973 1.433 1_655 S
C972 C968 1.350 1_455 S
C972 C969 1.463 . S
C972 N976 1.427 . S
C973 H963 0.929 . S
C973 C971 1.433 1_455 S
C973 N976 1.384 . S
C974 H965 0.929 . S
C974 C966 1.378 . S
C974 C969 1.350 . S
C975 H962 0.929 . S
C975 C967 1.433 . S
C975 N977 1.384 . S
N976 C972 1.427 . S
N976 C973 1.384 . S
N977 C969 1.427 . S
N977 C975 1.384 . S
H978 C984 0.930 . S
H979 C988 0.930 . S
H980 C993 0.929 . S
H981 C991 0.929 . S
H982 C986 0.929 . S
H983 C992 0.929 . S
C984 H978 0.930 . S
C984 C985 1.367 . S
C984 C992 1.378 . S
C985 C984 1.367 . S
C985 C993 1.433 . S
C986 H982 0.929 . S
C986 C988 1.378 1_455 S
C986 C990 1.350 . S
C987 C990 1.463 . S
C987 C992 1.350 . S
C987 N995 1.427 . S
C988 H979 0.930 . S
C988 C986 1.378 1_655 S
C988 C989 1.367 . S
C989 C988 1.367 . S
C989 C991 1.433 . S
C990 C986 1.350 . S
C990 C987 1.463 . S
C990 N994 1.427 . S
C991 H981 0.929 . S
C991 C989 1.433 . S
C991 N994 1.384 1_655 S
C992 H983 0.929 . S
C992 C984 1.378 . S
C992 C987 1.350 . S
C993 H980 0.929 . S
C993 C985 1.433 . S
C993 N995 1.384 . S
N994 C990 1.427 . S
N994 C991 1.384 1_455 S
N995 C987 1.427 . S
N995 C993 1.384 . S
H996 C1002 0.930 . S
H997 C1006 0.930 . S
H998 C1011 0.929 . S
H999 C1009 0.929 . S
H1000 C1004 0.929 . S
H1001 C1010 0.929 . S
C1002 H996 0.930 . S
C1002 C1003 1.367 . S
C1002 C1010 1.378 . S
C1003 C1002 1.367 . S
C1003 C1011 1.433 . S
C1004 H1000 0.929 . S
C1004 C1006 1.378 . S
C1004 C1008 1.350 . S
C1005 C1008 1.463 . S
C1005 C1010 1.350 . S
C1005 N1013 1.427 . S
C1006 H997 0.930 . S
C1006 C1004 1.378 . S
C1006 C1007 1.367 . S
C1007 C1006 1.367 . S
C1007 C1009 1.433 . S
C1008 C1004 1.350 . S
C1008 C1005 1.463 . S
C1008 N1012 1.427 . S
C1009 H999 0.929 . S
C1009 C1007 1.433 . S
C1009 N1012 1.384 . S
C1010 H1001 0.929 . S
C1010 C1002 1.378 . S
C1010 C1005 1.350 . S
C1011 H998 0.929 . S
C1011 C1003 1.433 . S
C1011 N1013 1.384 . S
N1012 C1008 1.427 . S
N1012 C1009 1.384 . S
N1013 C1005 1.427 . S
N1013 C1011 1.384 . S
H1014 C1020 0.930 1_554 S
H1015 C1024 0.930 . S
H1016 C1029 0.929 . S
H1017 C1027 0.929 . S
H1018 C1022 0.929 . S
H1019 C1028 0.929 . S
C1020 H1014 0.930 1_556 S
C1020 C1021 1.367 . S
C1020 C1028 1.378 . S
C1021 C1020 1.367 . S
C1021 C1029 1.433 . S
C1022 H1018 0.929 . S
C1022 C1024 1.378 . S
C1022 C1026 1.350 . S
C1023 C1026 1.463 . S
C1023 C1028 1.350 . S
C1023 N1031 1.427 . S
C1024 H1015 0.930 . S
C1024 C1022 1.378 . S
C1024 C1025 1.367 . S
C1025 C1024 1.367 . S
C1025 C1027 1.433 . S
C1026 C1022 1.350 . S
C1026 C1023 1.463 . S
C1026 N1030 1.427 . S
C1027 H1017 0.929 . S
C1027 C1025 1.433 . S
C1027 N1030 1.384 . S
C1028 H1019 0.929 . S
C1028 C1020 1.378 . S
C1028 C1023 1.350 . S
C1029 H1016 0.929 . S
C1029 C1021 1.433 . S
C1029 N1031 1.384 . S
N1030 C1026 1.427 . S
N1030 C1027 1.384 . S
N1031 C1023 1.427 . S
N1031 C1029 1.384 . S
H1032 C1038 0.930 . S
H1033 C1042 0.930 . S
H1034 C1047 0.929 . S
H1035 C1045 0.929 . S
H1036 C1040 0.929 . S
H1037 C1046 0.929 . S
C1038 H1032 0.930 . S
C1038 C1039 1.367 . S
C1038 C1046 1.378 . S
C1039 C1038 1.367 . S
C1039 C1047 1.433 . S
C1040 H1036 0.929 . S
C1040 C1042 1.378 . S
C1040 C1044 1.350 . S
C1041 C1044 1.463 . S
C1041 C1046 1.350 . S
C1041 N1049 1.427 . S
C1042 H1033 0.930 . S
C1042 C1040 1.378 . S
C1042 C1043 1.367 . S
C1043 C1042 1.367 . S
C1043 C1045 1.433 . S
C1044 C1040 1.350 . S
C1044 C1041 1.463 . S
C1044 N1048 1.427 . S
C1045 H1035 0.929 . S
C1045 C1043 1.433 . S
C1045 N1048 1.384 . S
C1046 H1037 0.929 . S
C1046 C1038 1.378 . S
C1046 C1041 1.350 . S
C1047 H1034 0.929 . S
C1047 C1039 1.433 . S
C1047 N1049 1.384 . S
N1048 C1044 1.427 . S
N1048 C1045 1.384 . S
N1049 C1041 1.427 . S
N1049 C1047 1.384 . S
H1050 C1056 0.930 . S
H1051 C1060 0.930 . S
H1052 C1065 0.929 . S
H1053 C1063 0.929 . S
H1054 C1058 0.929 . S
H1055 C1064 0.929 . S
C1056 H1050 0.930 . S
C1056 C1057 1.367 . S
C1056 C1064 1.378 1_554 S
C1057 C1056 1.367 . S
C1057 C1065 1.433 . S
C1058 H1054 0.929 . S
C1058 C1060 1.378 . S
C1058 C1062 1.350 . S
C1059 C1062 1.463 . S
C1059 C1064 1.350 . S
C1059 N1067 1.427 1_556 S
C1060 H1051 0.930 . S
C1060 C1058 1.378 . S
C1060 C1061 1.367 . S
C1061 C1060 1.367 . S
C1061 C1063 1.433 . S
C1062 C1058 1.350 . S
C1062 C1059 1.463 . S
C1062 N1066 1.427 . S
C1063 H1053 0.929 . S
C1063 C1061 1.433 . S
C1063 N1066 1.384 . S
C1064 H1055 0.929 . S
C1064 C1056 1.378 1_556 S
C1064 C1059 1.350 . S
C1065 H1052 0.929 . S
C1065 C1057 1.433 . S
C1065 N1067 1.384 . S
N1066 C1062 1.427 . S
N1066 C1063 1.384 . S
N1067 C1059 1.427 1_554 S
N1067 C1065 1.384 . S
H1068 C1074 0.930 . S
H1069 C1078 0.930 . S
H1070 C1083 0.929 . S
H1071 C1081 0.929 . S
H1072 C1076 0.929 . S
H1073 C1082 0.929 . S
C1074 H1068 0.930 . S
C1074 C1075 1.367 . S
C1074 C1082 1.378 . S
C1075 C1074 1.367 . S
C1075 C1083 1.433 . S
C1076 H1072 0.929 . S
C1076 C1078 1.378 . S
C1076 C1080 1.350 . S
C1077 C1080 1.463 . S
C1077 C1082 1.350 . S
C1077 N1085 1.427 . S
C1078 H1069 0.930 . S
C1078 C1076 1.378 . S
C1078 C1079 1.367 . S
C1079 C1078 1.367 . S
C1079 C1081 1.433 . S
C1080 C1076 1.350 . S
C1080 C1077 1.463 . S
C1080 N1084 1.427 . S
C1081 H1071 0.929 . S
C1081 C1079 1.433 . S
C1081 N1084 1.384 . S
C1082 H1073 0.929 . S
C1082 C1074 1.378 . S
C1082 C1077 1.350 . S
C1083 H1070 0.929 . S
C1083 C1075 1.433 . S
C1083 N1085 1.384 . S
N1084 C1080 1.427 . S
N1084 C1081 1.384 . S
N1085 C1077 1.427 . S
N1085 C1083 1.384 . S
H1086 C1092 0.930 . S
H1087 C1096 0.930 . S
H1088 C1101 0.929 . S
H1089 C1099 0.929 . S
H1090 C1094 0.929 . S
H1091 C1100 0.929 . S
C1092 H1086 0.930 . S
C1092 C1093 1.367 . S
C1092 C1100 1.378 . S
C1093 C1092 1.367 . S
C1093 C1101 1.433 . S
C1094 H1090 0.929 . S
C1094 C1096 1.378 . S
C1094 C1098 1.350 . S
C1095 C1098 1.463 . S
C1095 C1100 1.350 . S
C1095 N1103 1.427 . S
C1096 H1087 0.930 . S
C1096 C1094 1.378 . S
C1096 C1097 1.367 . S
C1097 C1096 1.367 . S
C1097 C1099 1.433 . S
C1098 C1094 1.350 . S
C1098 C1095 1.463 . S
C1098 N1102 1.427 . S
C1099 H1089 0.929 . S
C1099 C1097 1.433 . S
C1099 N1102 1.384 . S
C1100 H1091 0.929 . S
C1100 C1092 1.378 . S
C1100 C1095 1.350 . S
C1101 H1088 0.929 . S
C1101 C1093 1.433 . S
C1101 N1103 1.384 . S
N1102 C1098 1.427 . S
N1102 C1099 1.384 . S
N1103 C1095 1.427 . S
N1103 C1101 1.384 . S
H1104 C1110 0.930 . S
H1105 C1114 0.930 . S
H1106 C1119 0.929 . S
H1107 C1117 0.929 . S
H1108 C1112 0.929 . S
H1109 C1118 0.929 . S
C1110 H1104 0.930 . S
C1110 C1111 1.367 . S
C1110 C1118 1.378 . S
C1111 C1110 1.367 . S
C1111 C1119 1.433 . S
C1112 H1108 0.929 . S
C1112 C1114 1.378 . S
C1112 C1116 1.350 . S
C1113 C1116 1.463 . S
C1113 C1118 1.350 . S
C1113 N1121 1.427 . S
C1114 H1105 0.930 . S
C1114 C1112 1.378 . S
C1114 C1115 1.367 . S
C1115 C1114 1.367 . S
C1115 C1117 1.433 . S
C1116 C1112 1.350 . S
C1116 C1113 1.463 . S
C1116 N1120 1.427 . S
C1117 H1107 0.929 . S
C1117 C1115 1.433 . S
C1117 N1120 1.384 . S
C1118 H1109 0.929 . S
C1118 C1110 1.378 . S
C1118 C1113 1.350 . S
C1119 H1106 0.929 . S
C1119 C1111 1.433 . S
C1119 N1121 1.384 . S
N1120 C1116 1.427 . S
N1120 C1117 1.384 . S
N1121 C1113 1.427 . S
N1121 C1119 1.384 . S
H1122 C1128 0.930 . S
H1123 C1132 0.930 . S
H1124 C1137 0.929 . S
H1125 C1135 0.929 . S
H1126 C1130 0.929 . S
H1127 C1136 0.929 . S
C1128 H1122 0.930 . S
C1128 C1129 1.367 . S
C1128 C1136 1.378 . S
C1129 C1128 1.367 . S
C1129 C1137 1.433 . S
C1130 H1126 0.929 . S
C1130 C1132 1.378 . S
C1130 C1134 1.350 . S
C1131 C1134 1.463 . S
C1131 C1136 1.350 . S
C1131 N1139 1.427 . S
C1132 H1123 0.930 . S
C1132 C1130 1.378 . S
C1132 C1133 1.367 . S
C1133 C1132 1.367 . S
C1133 C1135 1.433 . S
C1134 C1130 1.350 . S
C1134 C1131 1.463 . S
C1134 N1138 1.427 . S
C1135 H1125 0.929 . S
C1135 C1133 1.433 . S
C1135 N1138 1.384 . S
C1136 H1127 0.929 . S
C1136 C1128 1.378 . S
C1136 C1131 1.350 . S
C1137 H1124 0.929 . S
C1137 C1129 1.433 . S
C1137 N1139 1.384 . S
N1138 C1134 1.427 . S
N1138 C1135 1.384 . S
N1139 C1131 1.427 . S
N1139 C1137 1.384 . S
H1140 C1146 0.930 . S
H1141 C1150 0.930 . S
H1142 C1155 0.929 . S
H1143 C1153 0.929 . S
H1144 C1148 0.929 . S
H1145 C1154 0.926 1_545 S
C1146 H1140 0.930 . S
C1146 C1147 1.367 1_545 S
C1146 C1154 1.354 1_545 S
C1147 C1146 1.367 1_565 S
C1147 C1155 1.433 . S
C1148 H1144 0.929 . S
C1148 C1150 1.378 . S
C1148 C1152 1.350 . S
C1149 C1152 1.463 . S
C1149 C1154 1.377 . S
C1149 N1157 1.427 . S
C1150 H1141 0.930 . S
C1150 C1148 1.378 . S
C1150 C1151 1.367 . S
C1151 C1150 1.367 . S
C1151 C1153 1.433 . S
C1152 C1148 1.350 . S
C1152 C1149 1.463 . S
C1152 N1156 1.427 . S
C1153 H1143 0.929 . S
C1153 C1151 1.433 . S
C1153 N1156 1.384 . S
C1154 H1145 0.926 1_565 S
C1154 C1146 1.354 1_565 S
C1154 C1149 1.377 . S
C1155 H1142 0.929 . S
C1155 C1147 1.433 . S
C1155 N1157 1.384 . S
N1156 C1152 1.427 . S
N1156 C1153 1.384 . S
N1157 C1149 1.427 . S
N1157 C1155 1.384 . S
H1158 C1164 0.930 . S
H1159 C1168 0.930 . S
H1160 C1173 0.929 . S
H1161 C1171 0.929 . S
H1162 C1166 0.929 . S
H1163 C1172 0.929 . S
C1164 H1158 0.930 . S
C1164 C1165 1.367 . S
C1164 C1172 1.378 . S
C1165 C1164 1.367 . S
C1165 C1173 1.433 . S
C1166 H1162 0.929 . S
C1166 C1168 1.378 . S
C1166 C1170 1.350 . S
C1167 C1170 1.463 . S
C1167 C1172 1.350 . S
C1167 N1175 1.427 . S
C1168 H1159 0.930 . S
C1168 C1166 1.378 . S
C1168 C1169 1.367 . S
C1169 C1168 1.367 . S
C1169 C1171 1.433 . S
C1170 C1166 1.350 . S
C1170 C1167 1.463 . S
C1170 N1174 1.427 . S
C1171 H1161 0.929 . S
C1171 C1169 1.433 . S
C1171 N1174 1.384 . S
C1172 H1163 0.929 . S
C1172 C1164 1.378 . S
C1172 C1167 1.350 . S
C1173 H1160 0.929 . S
C1173 C1165 1.433 . S
C1173 N1175 1.384 . S
N1174 C1170 1.427 . S
N1174 C1171 1.384 . S
N1175 C1167 1.427 . S
N1175 C1173 1.384 . S
H1176 C1182 0.930 . S
H1177 C1186 0.930 . S
H1178 C1191 0.929 . S
H1179 C1189 0.929 . S
H1180 C1184 0.929 . S
H1181 C1190 0.929 . S
C1182 H1176 0.930 . S
C1182 C1183 1.367 . S
C1182 C1190 1.378 . S
C1183 C1182 1.367 . S
C1183 C1191 1.433 . S
C1184 H1180 0.929 . S
C1184 C1186 1.378 . S
C1184 C1188 1.350 . S
C1185 C1188 1.463 . S
C1185 C1190 1.350 . S
C1185 N1193 1.427 . S
C1186 H1177 0.930 . S
C1186 C1184 1.378 . S
C1186 C1187 1.367 . S
C1187 C1186 1.367 . S
C1187 C1189 1.433 . S
C1188 C1184 1.350 . S
C1188 C1185 1.463 . S
C1188 N1192 1.427 . S
C1189 H1179 0.929 . S
C1189 C1187 1.433 . S
C1189 N1192 1.384 . S
C1190 H1181 0.929 . S
C1190 C1182 1.378 . S
C1190 C1185 1.350 . S
C1191 H1178 0.929 . S
C1191 C1183 1.433 . S
C1191 N1193 1.384 . S
N1192 C1188 1.427 . S
N1192 C1189 1.384 . S
N1193 C1185 1.427 . S
N1193 C1191 1.384 . S
C769 C39 2.253 . S
C773 C381 2.195 . S
C787 C91 1.424 . S
C791 C455 1.390 . S
C809 C505 1.708 . S
C805 C128 1.760 . S
C827 C591 1.143 . S
C823 C188 1.143 . S
C845 C683 1.914 . S
C841 C250 1.913 1_565 S
C863 C727 1.885 . S
C859 C304 1.926 . S
C877 C75 1.197 . S
C881 C529 1.122 . S
C895 C144 2.510 . S
C899 C609 2.489 . S
C917 C665 1.440 . S
C913 C198 1.433 . S
C935 C751 1.272 . S
C931 C234 1.307 . S
C949 C294 2.087 . S
C953 C357 1.973 . S
C971 C431 1.834 . S
C967 C29 1.858 . S
C989 C603 2.015 . S
C985 C38 2.198 . S
C1003 C92 2.167 . S
C1007 C653 2.021 . S
C1025 C757 2.235 . S
C1021 C135 2.335 1_556 S
C1039 C181 1.299 . S
C1043 C369 1.281 . S
C1057 C251 1.905 . S
C1061 C443 1.838 . S
C1075 C303 2.442 . S
C1079 C535 2.337 . S
C1093 C82 1.838 . S
C1097 C739 1.749 . S
C1115 C387 2.261 . S
C1111 C145 2.285 . S
C1129 C197 2.316 . S
C1133 C461 2.217 . S
C1147 C241 1.604 1_565 S
C1151 C517 1.502 . S
C1165 C287 1.578 . S
C1169 C579 1.431 . S
C1183 C22 1.920 . S
C1187 C677 1.823 . S
