# Generated by pormake.
# Topology pth, (4,4)-cn, num edge types: 1
# Building blocks:
#     Node 0, Type 0, BuildingBlock: KUFVIS_clean_sbu_0, # of connection points: 4
#     Node 1, Type 0, BuildingBlock: KUFVIS_clean_sbu_0, # of connection points: 4
#     Node 2, Type 0, BuildingBlock: KUFVIS_clean_sbu_0, # of connection points: 4
#     Node 3, Type 1, BuildingBlock: AZAVOO_clean_linker_0, # of connection points: 4
#     Node 4, Type 1, BuildingBlock: AZAVOO_clean_linker_0, # of connection points: 4
#     Node 5, Type 1, BuildingBlock: AZAVOO_clean_linker_0, # of connection points: 4
#     Edge 6, Type (0, 1), BuildingBlock: UVAHIK_clean_linker_0, # of connection points: 2
#     Edge 7, Type (0, 1), BuildingBlock: UVAHIK_clean_linker_0, # of connection points: 2
#     Edge 8, Type (0, 1), BuildingBlock: UVAHIK_clean_linker_0, # of connection points: 2
#     Edge 9, Type (0, 1), BuildingBlock: UVAHIK_clean_linker_0, # of connection points: 2
#     Edge 10, Type (0, 1), BuildingBlock: UVAHIK_clean_linker_0, # of connection points: 2
#     Edge 11, Type (0, 1), BuildingBlock: UVAHIK_clean_linker_0, # of connection points: 2
#     Edge 12, Type (0, 1), BuildingBlock: UVAHIK_clean_linker_0, # of connection points: 2
#     Edge 13, Type (0, 1), BuildingBlock: UVAHIK_clean_linker_0, # of connection points: 2
#     Edge 14, Type (0, 1), BuildingBlock: UVAHIK_clean_linker_0, # of connection points: 2
#     Edge 15, Type (0, 1), BuildingBlock: UVAHIK_clean_linker_0, # of connection points: 2
#     Edge 16, Type (0, 1), BuildingBlock: UVAHIK_clean_linker_0, # of connection points: 2
#     Edge 17, Type (0, 1), BuildingBlock: UVAHIK_clean_linker_0, # of connection points: 2
# Relax obj value: 0.103
# Max RMSD: 0.224
# Mean RMSD: 0.161
data_MOF--net-pth--node1-KUFVIS_clean_sbu_0--node2-AZAVOO_clean_linker_0--edge1-UVAHIK_clean_linker_0
_symmetry_space_group_name_H-M    P1
_symmetry_Int_Tables_number       1
_symmetry_cell_setting            triclinic
loop_
_symmetry_equiv_pos_as_xyz
'x, y, z'
_cell_length_a     32.471909
_cell_length_b     32.762202
_cell_length_c     89.443064
_cell_angle_alpha  92.617737
_cell_angle_beta   90.948569
_cell_angle_gamma 120.28278
loop_
_atom_site_label
_atom_site_type_symbol
_atom_site_fract_x
_atom_site_fract_y
_atom_site_fract_z
_atom_type_partial_charge
Mn0 Mn 0.07982 0.07765 0.06774 0.0
Mn1 Mn 0.0188 0.12462 0.05228 0.0
C2 C 0.04125 0.04826 0.04459 0.0
C3 C 0.08301 0.0253 0.08366 0.0
C4 C 0.12683 0.17204 0.05316 0.0
O5 O 0.07236 0.11465 0.08527 0.0
O6 O 0.02523 0.13794 0.07436 0.0
C7 C 0.92472 0.0644 0.06503 0.0
N8 N 0.95169 0.0815 0.05288 0.0
C9 C 0.88269 0.03821 0.03602 0.0
C10 C 0.85413 0.02038 0.04836 0.0
C11 C 0.87527 0.03346 0.06293 0.0
C12 C 0.93174 0.06903 0.03881 0.0
H13 H 0.94084 0.07425 0.07624 0.0
C14 C 0.04695 0.13421 0.08585 0.0
O15 O 0.1215 0.0635 0.08032 0.0
O16 O 0.04274 0.01777 0.07781 0.0
N17 N 0.00933 0.11372 0.03096 0.0
C18 C 0.04216 0.13223 0.02024 0.0
C19 C 0.02695 0.12174 0.00505 0.0
C20 C 0.97819 0.09266 0.00103 0.0
C21 C 0.94503 0.07438 0.01225 0.0
C22 C 0.96223 0.08637 0.02721 0.0
H23 H 0.07968 0.15469 0.02325 0.0
O24 O 0.07538 0.04094 0.04873 0.0
O25 O 0.0303 0.07177 0.05422 0.0
O26 O 0.12953 0.13883 0.05911 0.0
O27 O 0.08747 0.17113 0.05072 0.0
C28 C 0.89567 0.04408 0.00918 0.0
C29 C 0.86454 0.02592 0.02105 0.0
H30 H 0.81601 0.99634 0.04679 0.0
H31 H 0.8535 0.01965 0.07251 0.0
H32 H 0.05278 0.13596 -0.00354 0.0
H33 H 0.96665 0.08438 0.9893 0.0
H34 H 0.88138 0.03396 -0.00228 0.0
H35 H 0.82677 0.00212 0.01855 0.0
Mn36 Mn 0.99 0.04292 0.39828 0.0
Mn37 Mn 0.0596 0.15319 0.41425 0.0
C38 C 0.04559 0.05639 0.41706 0.0
C39 C 0.97757 0.98612 0.37944 0.0
C40 C 0.95604 0.08901 0.42144 0.0
O41 O 0.98141 0.08433 0.38371 0.0
O42 O 0.03498 0.15633 0.39419 0.0
C43 C 0.13906 0.18847 0.39356 0.0
N44 N 0.12328 0.17952 0.40772 0.0
C45 C 0.20327 0.21148 0.41806 0.0
C46 C 0.22044 0.22132 0.40361 0.0
C47 C 0.18816 0.2096 0.3913 0.0
C48 C 0.15397 0.19031 0.41962 0.0
H49 H 0.11435 0.17954 0.38408 0.0
C50 C 0.00482 0.12945 0.3837 0.0
O51 O 0.94205 0.98352 0.3867 0.0
O52 O 0.01949 0.02246 0.38276 0.0
N53 N 0.08631 0.15552 0.43373 0.0
C54 C 0.0638 0.14189 0.44685 0.0
C55 C 0.09093 0.14998 0.46019 0.0
C56 C 0.14091 0.17259 0.45995 0.0
C57 C 0.16331 0.18698 0.44636 0.0
C58 C 0.13443 0.17796 0.43341 0.0
H59 H 0.02543 0.12477 0.44713 0.0
O60 O 0.0103 0.01392 0.41375 0.0
O61 O 0.04802 0.08956 0.40905 0.0
O62 O 0.94847 0.05253 0.41338 0.0
O63 O -0.0047 0.12854 0.42194 0.0
C64 C 0.21313 0.20945 0.44511 0.0
C65 C 0.23309 0.22141 0.43097 0.0
H66 H 0.25828 0.23759 0.40182 0.0
H67 H 0.20111 0.2169 0.38011 0.0
H68 H 0.07337 0.13884 0.47064 0.0
H69 H 0.1617 0.17855 0.47025 0.0
H70 H 0.23639 0.21713 0.45494 0.0
H71 H 0.27139 0.23796 0.43013 0.0
Mn72 Mn 0.05278 0.07962 0.73605 0.0
Mn73 Mn 0.02504 0.15489 0.75387 0.0
C74 C 0.10173 0.13036 0.75551 0.0
C75 C 0.09159 0.06388 0.71704 0.0
C76 C 0.97538 0.04973 0.75881 0.0
O77 O 0.00352 0.07931 0.72174 0.0
O78 O 0.99169 0.13452 0.73371 0.0
C79 C 0.07205 0.23521 0.73434 0.0
N80 N 0.0667 0.21789 0.74817 0.0
C81 C 0.12575 0.29423 0.75926 0.0
C82 C 0.13152 0.31301 0.74516 0.0
C83 C 0.10463 0.28333 0.73264 0.0
C84 C 0.09248 0.24609 0.76028 0.0
H85 H 0.05177 0.21245 0.72466 0.0
C86 C 0.98441 0.10509 0.7226 0.0
O87 O 0.05612 0.0296 0.72343 0.0
O88 O 0.10249 0.10671 0.72118 0.0
N89 N 0.0556 0.17764 0.77339 0.0
C90 C 0.0482 0.15332 0.78597 0.0
C91 C 0.07376 0.17749 0.79938 0.0
C92 C 0.10645 0.22638 0.79973 0.0
C93 C 0.11321 0.2507 0.78667 0.0
C94 C 0.08649 0.22481 0.77365 0.0
H95 H 0.02326 0.11571 0.78576 0.0
O96 O 0.10297 0.09234 0.7517 0.0
O97 O 0.0719 0.13744 0.7478 0.0
O98 O 0.00023 0.03982 0.75009 0.0
O99 O 0.98117 0.09123 0.76076 0.0
C100 C 0.1461 0.29942 0.78598 0.0
C101 C 0.15245 0.32116 0.77228 0.0
H102 H 0.15686 0.35002 0.74379 0.0
H103 H 0.10915 0.29747 0.7217 0.0
H104 H 0.06843 0.15844 0.80941 0.0
H105 H 0.12643 0.24481 0.81006 0.0
H106 H 0.16727 0.32035 0.79586 0.0
H107 H 0.17844 0.35847 0.77184 0.0
H108 H -0.00345 0.48139 0.13433 0.0
H109 H 0.10922 0.85647 0.26455 0.0
H110 H 0.93379 0.43723 0.21848 0.0
H111 H 0.92566 0.36389 0.20718 0.0
H112 H 0.07794 0.42256 0.21394 0.0
H113 H 0.08508 0.49476 0.22575 0.0
H114 H 0.95624 0.5242 0.19471 0.0
H115 H 0.95973 0.50366 0.16827 0.0
H116 H 0.10309 0.53058 0.17678 0.0
H117 H 0.09919 0.5514 0.20315 0.0
H118 H 0.96951 0.62312 0.21127 0.0
H119 H 0.98368 0.68021 0.19249 0.0
H120 H 0.12509 0.70136 0.18694 0.0
H121 H 0.1111 0.64549 0.2062 0.0
H122 H 0.95863 0.62935 0.2434 0.0
H123 H 0.97207 0.70637 0.25314 0.0
H124 H 0.12432 0.76533 0.2501 0.0
H125 H 0.11032 0.68793 0.24054 0.0
H126 H 0.93311 0.54961 0.26027 0.0
H127 H 0.92523 0.58868 0.28302 0.0
H128 H 0.078 0.65915 0.29184 0.0
H129 H 0.08545 0.62125 0.26866 0.0
H130 H 0.92754 0.45695 0.25229 0.0
H131 H 0.91755 0.39753 0.2699 0.0
H132 H 0.07107 0.46273 0.27494 0.0
H133 H 0.08038 0.52227 0.25773 0.0
O134 O -0.00402 0.48979 0.14481 0.0
O135 O 0.06949 0.50385 0.14979 0.0
O136 O 0.0243 0.79366 0.262 0.0
O137 O 0.10284 0.82579 0.26054 0.0
C138 C 0.01571 0.51752 0.22755 0.0
C139 C 0.02479 0.55098 0.21682 0.0
C140 C 0.03012 0.59528 0.22129 0.0
C141 C 0.02565 0.60575 0.23643 0.0
C142 C 0.0156 0.57176 0.24709 0.0
C143 C 0.01113 0.52791 0.24267 0.0
C144 C 0.01003 0.47113 0.22277 0.0
C145 C 0.96508 0.4336 0.2178 0.0
C146 C 0.96064 0.39198 0.21128 0.0
C147 C 0.00125 0.38757 0.20948 0.0
C148 C 0.04587 0.42448 0.21528 0.0
C149 C 0.05015 0.4659 0.22193 0.0
C150 C 0.02736 0.53901 0.2008 0.0
C151 C 0.98835 0.52567 0.19081 0.0
C152 C 0.99045 0.51393 0.17573 0.0
C153 C 0.03166 0.51537 0.17041 0.0
C154 C 0.07078 0.529 0.1805 0.0
C155 C 0.06864 0.5408 0.19557 0.0
C156 C 0.03928 0.6303 0.21005 0.0
C157 C 0.00364 0.64041 0.20606 0.0
C158 C 0.01167 0.67265 0.19524 0.0
C159 C 0.05542 0.69508 0.18816 0.0
C160 C 0.09121 0.68503 0.19229 0.0
C161 C 0.08319 0.65292 0.20318 0.0
C162 C 0.03353 0.65316 0.24133 0.0
C163 C 0.99482 0.65901 0.24482 0.0
C164 C 0.00261 0.70301 0.25038 0.0
C165 C 0.04931 0.74199 0.25245 0.0
C166 C 0.08794 0.73606 0.24867 0.0
C167 C 0.08007 0.69199 0.24316 0.0
C168 C 0.00984 0.58299 0.26283 0.0
C169 C 0.96459 0.57217 0.26742 0.0
C170 C 0.96022 0.59459 0.28045 0.0
C171 C 0.00113 0.62785 0.2891 0.0
C172 C 0.04593 0.63464 0.28522 0.0
C173 C 0.05027 0.61259 0.27211 0.0
C174 C 0.00464 0.49388 0.25393 0.0
C175 C 0.95883 0.4585 0.2574 0.0
C176 C 0.95326 0.42448 0.26732 0.0
C177 C 0.99352 0.4255 0.27384 0.0
C178 C 0.03934 0.46142 0.27033 0.0
C179 C 0.04481 0.49536 0.26048 0.0
C180 C 0.03371 0.5027 0.15441 0.0
C181 C 0.05785 0.7886 0.25861 0.0
H182 H 0.57453 0.07595 0.47131 0.0
H183 H 0.28729 0.14811 0.59132 0.0
H184 H 0.55756 0.0155 0.54975 0.0
H185 H 0.62001 0.0116 0.53623 0.0
H186 H 0.72294 0.1524 0.55457 0.0
H187 H 0.65923 0.15642 0.5677 0.0
H188 H 0.49132 0.03255 0.53007 0.0
H189 H 0.51478 0.03782 0.50405 0.0
H190 H 0.63559 0.17767 0.51523 0.0
H191 H 0.61131 0.17217 0.54116 0.0
H192 H 0.40742 0.02892 0.54829 0.0
H193 H 0.35509 0.02788 0.52819 0.0
H194 H 0.46042 0.17186 0.51951 0.0
H195 H 0.5121 0.17297 0.54006 0.0
H196 H 0.39928 0.0255 0.58211 0.0
H197 H 0.32872 0.02881 0.58947 0.0
H198 H 0.39846 0.17595 0.57905 0.0
H199 H 0.46905 0.17234 0.57195 0.0
H200 H 0.47807 0.01308 0.59912 0.0
H201 H 0.43479 -0.00295 0.62226 0.0
H202 H 0.46331 0.14127 0.62548 0.0
H203 H 0.50828 0.15732 0.60284 0.0
H204 H 0.57096 0.01845 0.58269 0.0
H205 H 0.6273 0.01652 0.6006 0.0
H206 H 0.65523 0.15045 0.62146 0.0
H207 H 0.60189 0.15376 0.6027 0.0
O208 O 0.56563 0.07478 0.48162 0.0
O209 O 0.62742 0.14638 0.48799 0.0
O210 O 0.28059 0.0702 0.5938 0.0
O211 O 0.31469 0.14578 0.58846 0.0
C212 C 0.56382 0.09233 0.56439 0.0
C213 C 0.53602 0.09835 0.55336 0.0
C214 C 0.49523 0.10014 0.5574 0.0
C215 C 0.48271 0.09712 0.57249 0.0
C216 C 0.51121 0.09223 0.58361 0.0
C217 C 0.55192 0.08994 0.57957 0.0
C218 C 0.60393 0.08636 0.55956 0.0
C219 C 0.59388 0.04495 0.55117 0.0
C220 C 0.62975 0.04276 0.54351 0.0
C221 C 0.67644 0.08193 0.54418 0.0
C222 C 0.68714 0.12197 0.55362 0.0
C223 C 0.65102 0.1242 0.56125 0.0
C224 C 0.54951 0.10205 0.53746 0.0
C225 C 0.52258 0.06443 0.52683 0.0
C226 C 0.53619 0.06748 0.512 0.0
C227 C 0.57709 0.10817 0.50756 0.0
C228 C 0.6039 0.14585 0.51827 0.0
C229 C 0.59014 0.14281 0.53308 0.0
C230 C 0.4633 0.10104 0.54561 0.0
C231 C 0.41892 0.06036 0.54214 0.0
C232 C 0.3894 0.05969 0.53056 0.0
C233 C 0.40392 0.09965 0.52219 0.0
C234 C 0.44824 0.14067 0.52583 0.0
C235 C 0.47778 0.14134 0.53748 0.0
C236 C 0.43934 0.09875 0.57659 0.0
C237 C 0.39928 0.05844 0.58148 0.0
C238 C 0.35901 0.06041 0.58564 0.0
C239 C 0.35798 0.1027 0.58487 0.0
C240 C 0.39807 0.14287 0.5798 0.0
C241 C 0.43839 0.14089 0.5757 0.0
C242 C 0.4958 0.0862 0.59926 0.0
C243 C 0.47641 0.0416 0.60517 0.0
C244 C 0.45118 0.03237 0.61827 0.0
C245 C 0.44474 0.06757 0.62559 0.0
C246 C 0.46775 0.11335 0.62026 0.0
C247 C 0.49335 0.12263 0.60726 0.0
C248 C 0.58287 0.08658 0.59124 0.0
C249 C 0.58964 0.04754 0.59106 0.0
C250 C 0.62143 0.04624 0.60146 0.0
C251 C 0.64626 0.08352 0.61247 0.0
C252 C 0.63779 0.12168 0.61294 0.0
C253 C 0.60679 0.12338 0.60234 0.0
C254 C 0.5917 0.11112 0.49182 0.0
C255 C 0.31535 0.10505 0.58932 0.0
H256 H 0.59687 0.71804 -0.00291 0.0
H257 H 0.36823 0.27462 0.88794 0.0
H258 H 0.58601 0.70938 0.91697 0.0
H259 H 0.64892 0.78442 0.92899 0.0
H260 H 0.75366 0.74469 0.91799 0.0
H261 H 0.69067 0.67018 0.9059 0.0
H262 H 0.51694 0.62703 0.9376 0.0
H263 H 0.53759 0.66448 0.96302 0.0
H264 H 0.67419 0.67172 0.9616 0.0
H265 H 0.65272 0.63348 0.9363 0.0
H266 H 0.44155 0.52039 0.92173 0.0
H267 H 0.39808 0.47225 0.94239 0.0
H268 H 0.5285 0.48497 0.96043 0.0
H269 H 0.5716 0.5318 0.93943 0.0
H270 H 0.437 0.50399 0.88782 0.0
H271 H 0.37734 0.42118 0.88116 0.0
H272 H 0.46891 0.37748 0.90196 0.0
H273 H 0.52865 0.46056 0.90833 0.0
H274 H 0.50088 0.58367 0.86818 0.0
H275 H 0.46155 0.53401 0.8453 0.0
H276 H 0.52832 0.45141 0.85395 0.0
H277 H 0.56758 0.50138 0.87683 0.0
H278 H 0.57298 0.68459 0.88176 0.0
H279 H 0.61571 0.73572 0.86165 0.0
H280 H 0.69552 0.66342 0.85585 0.0
H281 H 0.65136 0.61155 0.87568 0.0
O282 O 0.5892 0.7028 0.9871 0.0
O283 O 0.65947 0.70687 0.98562 0.0
O284 O 0.34561 0.33206 0.87986 0.0
O285 O 0.391 0.30764 0.89058 0.0
C286 C 0.59548 0.63461 0.90748 0.0
C287 C 0.5714 0.60652 0.91947 0.0
C288 C 0.53577 0.5586 0.91655 0.0
C289 C 0.52462 0.53872 0.90167 0.0
C290 C 0.54922 0.56684 0.88973 0.0
C291 C 0.58431 0.61482 0.89263 0.0
C292 C 0.63389 0.68431 0.91077 0.0
C293 C 0.62281 0.71777 0.9167 0.0
C294 C 0.65867 0.76039 0.92362 0.0
C295 C 0.70604 0.77001 0.92464 0.0
C296 C 0.71758 0.73845 0.9173 0.0
C297 C 0.68166 0.69582 0.91041 0.0
C298 C 0.58337 0.62767 0.93511 0.0
C299 C 0.55114 0.63642 0.94285 0.0
C300 C 0.56311 0.65795 0.95735 0.0
C301 C 0.60762 0.67123 0.96433 0.0
C302 C 0.63966 0.66203 0.95655 0.0
C303 C 0.62753 0.64026 0.94209 0.0
C304 C 0.50965 0.52942 0.92907 0.0
C305 C 0.46063 0.51238 0.93005 0.0
C306 C 0.43594 0.48504 0.94183 0.0
C307 C 0.4601 0.47509 0.95294 0.0
C308 C 0.50928 0.49255 0.95203 0.0
C309 C 0.5338 0.51916 0.94009 0.0
C310 C 0.48718 0.48824 0.89851 0.0
C311 C 0.44407 0.47646 0.89094 0.0
C312 C 0.41005 0.42914 0.88716 0.0
C313 C 0.41842 0.39269 0.89099 0.0
C314 C 0.46137 0.40466 0.89882 0.0
C315 C 0.49546 0.45204 0.90253 0.0
C316 C 0.53656 0.54568 0.87418 0.0
C317 C 0.50843 0.55602 0.86481 0.0
C318 C 0.48601 0.52761 0.85177 0.0
C319 C 0.4914 0.48847 0.84801 0.0
C320 C 0.52311 0.48098 0.85672 0.0
C321 C 0.54571 0.50956 0.86971 0.0
C322 C 0.60924 0.64457 0.88013 0.0
C323 C 0.59953 0.67975 0.87606 0.0
C324 C 0.62417 0.70903 0.86464 0.0
C325 C 0.65924 0.70384 0.85718 0.0
C326 C 0.66832 0.66798 0.86121 0.0
C327 C 0.64339 0.6385 0.87258 0.0
C328 C 0.62049 0.69469 0.97965 0.0
C329 C 0.3827 0.34239 0.88679 0.0
C330 C 0.06617 0.15265 0.11356 0.0
C331 C 0.0405 0.15202 0.10063 0.0
C332 C 0.05904 0.16872 0.12749 0.0
C333 C 0.97297 0.19102 0.14752 0.0
H334 H 0.08379 0.28581 0.17142 0.0
C335 C 0.96954 0.33119 0.18683 0.0
C336 C -0.00192 0.3473 0.20018 0.0
C337 C 0.97078 0.29765 0.177 0.0
C338 C 0.05243 0.25858 0.16508 0.0
H339 H 0.98688 0.16747 0.0923 0.0
H340 H 0.97494 0.1957 0.11646 0.0
H341 H 0.09451 0.24555 0.14951 0.0
H342 H 0.04842 0.33881 0.21403 0.0
H343 H 0.05102 0.28037 0.19665 0.0
H344 H 0.93099 0.20529 0.16275 0.0
C345 C 0.00015 0.18329 0.11587 0.0
C346 C 0.0586 0.2356 0.15251 0.0
C347 C 0.00743 0.16755 0.10198 0.0
C348 C 0.0265 0.3276 0.20374 0.0
C349 C 0.02794 0.29412 0.19382 0.0
C350 C 0.96681 0.21392 0.16007 0.0
C351 C 0.02582 0.18404 0.12878 0.0
C352 C 0.01901 0.20277 0.14333 0.0
C353 C 0.00076 0.27952 0.18022 0.0
C354 C 0.00657 0.24907 0.16869 0.0
H355 H 0.09182 0.1408 0.11293 0.0
H356 H 0.07923 0.16883 0.13727 0.0
H357 H 0.94175 0.16511 0.14082 0.0
H358 H 0.948 0.34625 0.18355 0.0
H359 H 0.95007 0.28781 0.16648 0.0
C360 C 0.88883 0.04103 0.43793 0.0
C361 C 0.92 0.08476 0.43208 0.0
C362 C 0.86137 0.03887 0.45008 0.0
C363 C 0.86282 0.11622 0.48167 0.0
H364 H 0.73444 0.01323 0.48707 0.0
C365 C 0.73992 0.12385 0.52594 0.0
C366 C 0.71166 0.08291 0.53362 0.0
C367 C 0.76774 0.12304 0.51435 0.0
C368 C 0.77055 0.04188 0.48578 0.0
H369 H 0.94409 0.15982 0.43353 0.0
H370 H 0.89513 0.15582 0.45431 0.0
H371 H 0.77463 0.01327 0.46421 0.0
H372 H 0.69257 0.00974 0.53567 0.0
H373 H 0.74082 0.00825 0.5152 0.0
H374 H 0.85831 0.14529 0.50309 0.0
C375 C 0.89308 0.12345 0.44993 0.0
C376 C 0.79351 0.04196 0.47269 0.0
C377 C 0.9208 0.12568 0.43792 0.0
C378 C 0.71343 0.04168 0.52984 0.0
C379 C 0.74095 0.04076 0.51813 0.0
C380 C 0.83977 0.11629 0.49467 0.0
C381 C 0.86434 0.08034 0.45649 0.0
C382 C 0.83975 0.07941 0.47043 0.0
C383 C 0.76762 0.08119 0.5101 0.0
C384 C 0.79329 0.07934 0.49681 0.0
H385 H 0.88772 0.00894 0.43372 0.0
H386 H 0.83969 0.00511 0.45489 0.0
H387 H 0.89892 0.14499 0.48047 0.0
H388 H 0.73872 0.15593 0.52833 0.0
H389 H 0.7876 0.15459 0.50824 0.0
C390 C 0.91615 0.0222 0.77896 0.0
C391 C 0.9386 0.01149 0.76738 0.0
C392 C 0.8826 0.98649 0.78739 0.0
C393 C 0.84419 0.86553 0.79825 0.0
H394 H 0.73419 0.87048 0.81215 0.0
C395 C 0.69993 0.72006 0.83268 0.0
C396 C 0.68721 0.73661 0.84557 0.0
C397 C 0.72765 0.75138 0.82205 0.0
C398 C 0.76485 0.86878 0.80838 0.0
H399 H 0.94248 0.95446 0.7554 0.0
H400 H 0.88329 0.89205 0.76996 0.0
H401 H 0.78768 0.92901 0.79532 0.0
H402 H 0.69398 0.79921 0.8574 0.0
H403 H 0.7416 0.85354 0.83874 0.0
H404 H 0.82126 0.80529 0.81137 0.0
C405 C 0.89235 0.92826 0.77269 0.0
C406 C 0.79556 0.90233 0.79879 0.0
C407 C 0.92614 0.96405 0.7643 0.0
C408 C 0.70233 0.78507 0.84747 0.0
C409 C 0.7297 0.81626 0.8368 0.0
C410 C 0.81328 0.83178 0.80777 0.0
C411 C 0.87042 0.93912 0.7844 0.0
C412 C 0.83599 0.90153 0.79378 0.0
C413 C 0.74289 0.7998 0.82404 0.0
C414 C 0.7737 0.83349 0.8131 0.0
H415 H 0.92503 0.05835 0.78172 0.0
H416 H 0.86703 0.99623 0.79649 0.0
H417 H 0.87533 0.86425 0.79478 0.0
H418 H 0.68827 0.68284 0.83075 0.0
H419 H 0.73692 0.73768 0.81222 0.0
C420 C 0.12749 0.00279 0.10142 0.0
C421 C 0.08477 0.99162 0.09365 0.0
C422 C 0.12877 0.97085 0.11099 0.0
C423 C 0.0658 0.84491 0.11877 0.0
H424 H 0.12188 0.88976 0.15902 0.0
C425 C 0.02662 0.71867 0.16584 0.0
C426 C 0.06338 0.72857 0.17644 0.0
C427 C 0.03335 0.7507 0.15508 0.0
C428 C 0.10683 0.87676 0.14774 0.0
H429 H 0.01005 0.93824 0.08967 0.0
H430 H 0.01236 0.88253 0.10632 0.0
H431 H 0.12651 0.94625 0.14132 0.0
H432 H 0.13629 0.77966 0.18396 0.0
H433 H 0.14846 0.83517 0.16489 0.0
H434 H 0.04589 0.77545 0.12515 0.0
C435 C 0.04488 0.91581 0.10496 0.0
C436 C 0.10941 0.90911 0.13762 0.0
C437 C 0.0435 0.94784 0.09552 0.0
C438 C 0.10738 0.77086 0.17587 0.0
C439 C 0.11418 0.80289 0.16505 0.0
C440 C 0.06348 0.81261 0.12884 0.0
C441 C 0.08746 0.92704 0.11282 0.0
C442 C 0.08819 0.89336 0.12313 0.0
C443 C 0.0771 0.79329 0.1546 0.0
C444 C 0.0832 0.82805 0.14353 0.0
H445 H 0.15987 0.03629 0.10019 0.0
H446 H 0.16211 0.98023 0.11686 0.0
H447 H 0.04982 0.83194 0.10758 0.0
H448 H 0.99253 0.68609 0.16584 0.0
H449 H 0.00383 0.74246 0.14732 0.0
C450 C 0.13092 0.08333 0.42237 0.0
C451 C 0.08436 0.06341 0.42733 0.0
C452 C 0.16767 0.088 0.43191 0.0
C453 C 0.24201 0.11846 0.45746 0.0
H454 H 0.2176 0.01586 0.48258 0.0
C455 C 0.36518 0.13632 0.50787 0.0
C456 C 0.37257 0.09811 0.50973 0.0
C457 C 0.33275 0.13315 0.49677 0.0
C458 C 0.22503 0.04467 0.47555 0.0
H459 H 0.03833 0.03018 0.44554 0.0
H460 H 0.10272 0.03929 0.46248 0.0
H461 H 0.15491 0.00725 0.46516 0.0
H462 H 0.35408 0.02783 0.50093 0.0
H463 H 0.29717 0.02217 0.48166 0.0
H464 H 0.31235 0.15574 0.46788 0.0
C465 C 0.11111 0.05139 0.45127 0.0
C466 C 0.18898 0.03998 0.46571 0.0
C467 C 0.07438 0.04648 0.44168 0.0
C468 C 0.34829 0.05741 0.49996 0.0
C469 C 0.31583 0.05419 0.48893 0.0
C470 C 0.27801 0.12331 0.4674 0.0
C471 C 0.15815 0.07222 0.44648 0.0
C472 C 0.19695 0.07695 0.45664 0.0
C473 C 0.30716 0.09167 0.4874 0.0
C474 C 0.26976 0.08647 0.47656 0.0
H475 H 0.13877 0.09498 0.4111 0.0
H476 H 0.20335 0.10337 0.42781 0.0
H477 H 0.2493 0.14747 0.45058 0.0
H478 H 0.38315 0.16798 0.51531 0.0
H479 H 0.32642 0.16242 0.49589 0.0
C480 C 0.15478 0.15879 0.77857 0.0
C481 C 0.14125 0.16824 0.7648 0.0
C482 C 0.19492 0.19417 0.7868 0.0
C483 C 0.27479 0.32312 0.7913 0.0
H484 H 0.36285 0.29062 0.80951 0.0
C485 C 0.44865 0.46472 0.82271 0.0
C486 C 0.45892 0.45202 0.83647 0.0
C487 C 0.41339 0.43032 0.81271 0.0
C488 C 0.33842 0.30019 0.8046 0.0
H489 H 0.16018 0.22013 0.74818 0.0
H490 H 0.23007 0.28238 0.76262 0.0
H491 H 0.29245 0.22985 0.79504 0.0
H492 H 0.44062 0.39356 0.85055 0.0
H493 H 0.37913 0.33385 0.83325 0.0
H494 H 0.31999 0.39315 0.80112 0.0
C495 C 0.20906 0.24828 0.76731 0.0
C496 C 0.2981 0.26538 0.79633 0.0
C497 C 0.16904 0.21287 0.7591 0.0
C498 C 0.43425 0.40423 0.83987 0.0
C499 C 0.39892 0.36999 0.82995 0.0
C500 C 0.31491 0.35788 0.79966 0.0
C501 C 0.22249 0.23922 0.78121 0.0
C502 C 0.26567 0.2764 0.78973 0.0
C503 C 0.38753 0.3827 0.81636 0.0
C504 C 0.34696 0.3467 0.80652 0.0
H505 H 0.13424 0.12414 0.78296 0.0
H506 H 0.20434 0.18634 0.79753 0.0
H507 H 0.25031 0.33257 0.78636 0.0
H508 H 0.46731 0.50133 0.81982 0.0
H509 H 0.40593 0.44113 0.80223 0.0
C510 C 0.94583 0.13933 0.70719 0.0
C511 C 0.95178 0.10083 0.71018 0.0
C512 C 0.91436 0.13524 0.69563 0.0
C513 C 0.80444 0.05353 0.67598 0.0
H514 H 0.84739 0.14111 0.64432 0.0
C515 C 0.67463 0.04066 0.62861 0.0
C516 C 0.68169 0.08326 0.62318 0.0
C517 C 0.70847 0.0406 0.63845 0.0
C518 C 0.83456 0.11678 0.65319 0.0
H519 H 0.92926 0.02779 0.70352 0.0
H520 H 0.87277 0.02027 0.68354 0.0
H521 H 0.9051 0.14563 0.66309 0.0
H522 H 0.7306 0.15925 0.62382 0.0
H523 H 0.7876 0.15951 0.64163 0.0
H524 H 0.73368 0.02617 0.66673 0.0
C525 C 0.8932 0.05369 0.69005 0.0
C526 C 0.86774 0.11919 0.66383 0.0
C527 C 0.92555 0.05809 0.7014 0.0
C528 C 0.72334 0.12579 0.62793 0.0
C529 C 0.75669 0.12583 0.63797 0.0
C530 C 0.77103 0.0517 0.66552 0.0
C531 C 0.88752 0.09229 0.68708 0.0
C532 C 0.85286 0.08778 0.67534 0.0
C533 C 0.74989 0.08323 0.64331 0.0
C534 C 0.7856 0.08359 0.65405 0.0
H535 H 0.96563 0.17271 0.71374 0.0
H536 H 0.91022 0.16533 0.69355 0.0
H537 H 0.79225 0.02925 0.68488 0.0
H538 H 0.64275 0.00725 0.62537 0.0
H539 H 0.7022 0.007 0.64214 0.0
C540 C 0.96112 0.99086 0.03357 0.0
C541 C 0.00981 0.02108 0.03158 0.0
C542 C 0.93036 0.96493 0.02136 0.0
C543 C 0.9187 0.96357 0.98036 0.0
H544 H 0.81451 0.83588 0.98489 0.0
C545 C 0.78959 0.83527 0.93192 0.0
C546 C 0.74134 0.80795 0.93534 0.0
C547 C 0.82387 0.86503 0.94302 0.0
C548 C 0.84315 0.8717 0.9835 0.0
H549 H 0.06585 0.04551 0.01575 0.0
H550 H 0.01178 -4e-05 0.99412 0.0
H551 H 0.87288 0.87777 0.00551 0.0
H552 H 0.69096 0.79158 0.95292 0.0
H553 H 0.75045 0.84399 0.97212 0.0
H554 H 0.88872 0.95695 0.9582 0.0
C555 C -0.00284 -0.00269 0.00506 0.0
C556 C 0.87661 0.89567 -0.00469 0.0
C557 C 0.02804 0.02312 0.01737 0.0
C558 C 0.72771 0.8127 0.94985 0.0
C559 C 0.76186 0.8422 0.96091 0.0
C560 C 0.88521 0.93939 0.96847 0.0
C561 C 0.9479 0.96832 0.00693 0.0
C562 C 0.91441 0.94206 0.99395 0.0
C563 C 0.81039 0.86756 0.95773 0.0
C564 C 0.84678 0.89346 0.97003 0.0
H565 H 0.94672 0.98787 0.04458 0.0
H566 H 0.8926 0.94324 0.02317 0.0
H567 H 0.9472 -0.00052 0.97904 0.0
H568 H 0.80101 0.83237 0.92081 0.0
H569 H 0.86109 0.88419 0.94029 0.0
C570 C 0.0103 0.95503 0.36003 0.0
C571 C 0.97233 0.94742 0.36901 0.0
C572 C 0.00961 0.91729 0.35196 0.0
C573 C 0.93364 0.79314 0.3375 0.0
H574 H 0.05438 0.79558 0.33901 0.0
C575 C 0.95861 0.64335 0.30999 0.0
C576 C -0.00215 0.65977 0.30075 0.0
C577 C 0.95338 0.67503 0.3197 0.0
C578 C 0.02045 0.79444 0.33847 0.0
H579 H 0.90264 0.89473 0.37601 0.0
H580 H 0.90153 0.82827 0.36191 0.0
H581 H 0.04748 0.85784 0.35255 0.0
H582 H 0.06218 0.72255 0.29447 0.0
H583 H 0.05368 0.77711 0.31158 0.0
H584 H 0.90693 0.72967 0.32325 0.0
C585 C 0.93175 0.86359 0.36108 0.0
C586 C 0.01652 0.83019 0.34616 0.0
C587 C 0.93234 0.90161 0.36913 0.0
C588 C 0.03225 0.70832 0.30171 0.0
C589 C 0.02724 0.73975 0.31147 0.0
C590 C 0.93756 0.75714 0.32981 0.0
C591 C 0.97108 0.87093 0.35278 0.0
C592 C 0.97345 0.83063 0.34547 0.0
C593 C 0.98752 0.72359 0.32042 0.0
C594 C 0.98135 0.75809 0.32997 0.0
H595 H 0.04139 0.99003 0.35958 0.0
H596 H 0.03985 0.92432 0.34533 0.0
H597 H 0.90002 0.79255 0.33674 0.0
H598 H 0.93164 0.60614 0.30959 0.0
H599 H 0.92259 0.66163 0.32658 0.0
C600 C 0.11026 0.00956 0.70165 0.0
C601 C 0.1223 0.05556 0.70687 0.0
C602 C 0.1426 0.00226 0.69342 0.0
C603 C 0.2693 0.05223 0.6896 0.0
H604 H 0.24247 -0.00119 0.64864 0.0
C605 C 0.41793 0.08873 0.6494 0.0
C606 C 0.40989 0.05557 0.63754 0.0
C607 C 0.38189 0.08058 0.65919 0.0
C608 C 0.25036 0.01273 0.6602 0.0
H609 H 0.17699 0.12995 0.70726 0.0
H610 H 0.23326 0.11692 0.69322 0.0
H611 H 0.17887 -0.00123 0.66284 0.0
H612 H 0.35819 0.98654 0.62719 0.0
H613 H 0.29632 0.97137 0.64469 0.0
H614 H 0.34055 0.06636 0.68713 0.0
C615 C 0.19897 0.08668 0.69546 0.0
C616 C 0.2139 0.01285 0.66826 0.0
C617 C 0.16655 0.09407 0.7034 0.0
C618 C 0.36592 0.01274 0.63628 0.0
C619 C 0.33005 0.00433 0.64618 0.0
C620 C 0.30551 0.05145 0.68165 0.0
C621 C 0.1876 0.04076 0.69061 0.0
C622 C 0.22356 0.03388 0.68285 0.0
C623 C 0.33706 0.03876 0.65748 0.0
C624 C 0.29694 0.03307 0.66668 0.0
H625 H 0.07641 0.97926 0.70418 0.0
H626 H 0.13316 0.96655 0.68969 0.0
H627 H 0.27728 0.06819 0.70093 0.0
H628 H 0.45159 0.1218 0.65083 0.0
H629 H 0.38861 0.1082 0.66765 0.0
C630 C 0.17031 0.24976 0.04124 0.0
C631 C 0.17091 0.21148 0.04752 0.0
C632 C 0.2098 0.28324 0.03393 0.0
C633 C 0.30435 0.28854 0.0119 0.0
H634 H 0.35089 0.42344 0.01281 0.0
C635 C 0.44991 0.46258 0.98033 0.0
C636 C 0.43378 0.44627 0.96539 0.0
C637 C 0.42367 0.43601 0.99208 0.0
C638 C 0.33862 0.38592 0.01258 0.0
H639 H 0.2148 0.18019 0.05186 0.0
H640 H 0.2834 0.23847 0.03898 0.0
H641 H 0.29515 0.37524 0.03146 0.0
H642 H 0.37874 0.38927 0.95093 0.0
H643 H 0.33322 0.34242 0.97147 0.0
H644 H 0.34625 0.29879 0.99269 0.0
C645 C 0.2522 0.24227 0.03966 0.0
C646 C 0.30662 0.3584 0.02316 0.0
C647 C 0.21291 0.20902 0.04708 0.0
C648 C 0.39168 0.40262 0.96237 0.0
C649 C 0.36592 0.37576 0.97409 0.0
C650 C 0.33579 0.3159 0.00123 0.0
C651 C 0.2505 0.27891 0.03267 0.0
C652 C 0.28865 0.30934 0.02276 0.0
C653 C 0.38146 0.39239 0.98904 0.0
C654 C 0.35251 0.36463 0.00132 0.0
H655 H 0.13867 0.25291 0.04143 0.0
H656 H 0.20745 0.311 0.02855 0.0
H657 H 0.29067 0.25072 0.01123 0.0
H658 H 0.48221 0.49631 0.98289 0.0
H659 H 0.43633 0.44943 0.00353 0.0
C660 C 0.96302 0.12708 0.35936 0.0
C661 C -0.00142 0.15273 0.37075 0.0
C662 C 0.95856 0.15003 0.34712 0.0
C663 C 0.02844 0.25719 0.32659 0.0
H664 H 0.90724 0.2456 0.31492 0.0
C665 C 0.0193 0.40211 0.29683 0.0
C666 C 0.98828 0.38908 0.28412 0.0
C667 C 0.01712 0.36782 0.30595 0.0
C668 C 0.94115 0.24858 0.31792 0.0
H669 H 0.05715 0.22267 0.37817 0.0
H670 H 0.04917 0.26204 0.35706 0.0
H671 H 0.90987 0.19368 0.33337 0.0
H672 H 0.92962 0.32983 0.27128 0.0
H673 H 0.92528 0.26969 0.28753 0.0
H674 H 0.06006 0.31296 0.31161 0.0
C675 C 0.02507 0.22426 0.35746 0.0
C676 C 0.94264 0.21888 0.32842 0.0
C677 C 0.02932 0.20162 0.36965 0.0
C678 C 0.95377 0.34101 0.28106 0.0
C679 C 0.95137 0.3066 0.2903 0.0
C680 C 0.02697 0.2868 0.31619 0.0
C681 C 0.98995 0.19877 0.34602 0.0
C682 C 0.98657 0.22407 0.33319 0.0
C683 C 0.98367 0.31972 0.30266 0.0
C684 C 0.98358 0.28383 0.31212 0.0
H685 H 0.93873 0.0894 0.35989 0.0
H686 H 0.93114 0.12963 0.33843 0.0
H687 H 0.06266 0.26122 0.32984 0.0
H688 H 0.04551 0.4389 0.2997 0.0
H689 H 0.04173 0.37898 0.31562 0.0
loop_
_geom_bond_atom_site_label_1
_geom_bond_atom_site_label_2
_geom_bond_distance
_geom_bond_site_symmetry_2
_ccdc_geom_bond_type
Mn0 O5 2.095 . S
Mn0 O15 2.162 . S
Mn0 O16 2.297 . S
Mn0 O24 2.385 . S
Mn0 O25 2.209 . S
Mn0 O26 2.094 . S
Mn1 O6 2.121 . S
Mn1 N8 2.257 1_455 S
Mn1 N17 2.282 . S
Mn1 O25 2.215 . S
Mn1 O27 2.117 . S
C2 O24 1.234 . S
C2 O25 1.283 . S
C3 O15 1.281 . S
C3 O16 1.236 . S
C4 O26 1.240 . S
C4 O27 1.264 . S
O5 Mn0 2.095 . S
O5 C14 1.250 . S
O6 Mn1 2.121 . S
O6 C14 1.258 . S
C7 N8 1.326 . S
C7 C11 1.460 . S
C7 H13 0.929 . S
N8 Mn1 2.257 1_655 S
N8 C7 1.326 . S
N8 C12 1.362 . S
C9 C10 1.258 . S
C9 C12 1.431 . S
C9 C29 1.449 . S
C10 C9 1.258 . S
C10 C11 1.477 . S
C10 H30 0.931 . S
C11 C7 1.460 . S
C11 C10 1.477 . S
C11 H31 0.930 . S
C12 N8 1.362 . S
C12 C9 1.431 . S
C12 C22 1.476 . S
H13 C7 0.929 . S
C14 O5 1.250 . S
C14 O6 1.258 . S
O15 Mn0 2.162 . S
O15 C3 1.281 . S
O16 Mn0 2.297 . S
O16 C3 1.236 . S
N17 Mn1 2.282 . S
N17 C18 1.328 . S
N17 C22 1.318 1_455 S
C18 N17 1.328 . S
C18 C19 1.457 . S
C18 H23 0.929 . S
C19 C18 1.457 . S
C19 C20 1.291 1_455 S
C19 H32 0.973 . S
C20 C19 1.291 1_655 S
C20 C21 1.373 . S
C20 H33 0.929 1_554 S
C21 C20 1.373 . S
C21 C22 1.396 . S
C21 C28 1.403 . S
C22 C12 1.476 . S
C22 N17 1.318 1_655 S
C22 C21 1.396 . S
H23 C18 0.929 . S
O24 Mn0 2.385 . S
O24 C2 1.234 . S
O25 Mn0 2.209 . S
O25 Mn1 2.215 . S
O25 C2 1.283 . S
O26 Mn0 2.094 . S
O26 C4 1.240 . S
O27 Mn1 2.117 . S
O27 C4 1.264 . S
C28 C21 1.403 . S
C28 C29 1.399 . S
C28 H34 0.992 . S
C29 C9 1.449 . S
C29 C28 1.399 . S
C29 H35 0.930 . S
H30 C10 0.931 . S
H31 C11 0.930 . S
H32 C19 0.973 . S
H33 C20 0.929 1_556 S
H34 C28 0.992 . S
H35 C29 0.930 . S
Mn36 O41 2.095 . S
Mn36 O51 2.162 1_545 S
Mn36 O52 2.297 1_655 S
Mn36 O60 2.385 1_655 S
Mn36 O61 2.209 1_655 S
Mn36 O62 2.094 . S
Mn37 O42 2.121 . S
Mn37 N44 2.257 . S
Mn37 N53 2.282 . S
Mn37 O61 2.215 . S
Mn37 O63 2.117 1_455 S
C38 O60 1.234 . S
C38 O61 1.283 . S
C39 O51 1.281 . S
C39 O52 1.236 1_665 S
C40 O62 1.240 . S
C40 O63 1.264 . S
O41 Mn36 2.095 . S
O41 C50 1.250 1_655 S
O42 Mn37 2.121 . S
O42 C50 1.258 . S
C43 N44 1.326 . S
C43 C47 1.460 . S
C43 H49 0.929 . S
N44 Mn37 2.257 . S
N44 C43 1.326 . S
N44 C48 1.362 . S
C45 C46 1.258 . S
C45 C48 1.431 . S
C45 C65 1.449 . S
C46 C45 1.258 . S
C46 C47 1.477 . S
C46 H66 0.931 . S
C47 C43 1.460 . S
C47 C46 1.477 . S
C47 H67 0.930 . S
C48 N44 1.362 . S
C48 C45 1.431 . S
C48 C58 1.476 . S
H49 C43 0.929 . S
C50 O41 1.250 1_455 S
C50 O42 1.258 . S
O51 Mn36 2.162 1_565 S
O51 C39 1.281 . S
O52 Mn36 2.297 1_455 S
O52 C39 1.236 1_445 S
N53 Mn37 2.282 . S
N53 C54 1.328 . S
N53 C58 1.318 . S
C54 N53 1.328 . S
C54 C55 1.457 . S
C54 H59 0.929 . S
C55 C54 1.457 . S
C55 C56 1.291 . S
C55 H68 0.931 . S
C56 C55 1.291 . S
C56 C57 1.373 . S
C56 H69 0.929 . S
C57 C56 1.373 . S
C57 C58 1.396 . S
C57 C64 1.403 . S
C58 C48 1.476 . S
C58 N53 1.318 . S
C58 C57 1.396 . S
H59 C54 0.929 . S
O60 Mn36 2.385 1_455 S
O60 C38 1.234 . S
O61 Mn36 2.209 1_455 S
O61 Mn37 2.215 . S
O61 C38 1.283 . S
O62 Mn36 2.094 . S
O62 C40 1.240 . S
O63 Mn37 2.117 1_655 S
O63 C40 1.264 . S
C64 C57 1.403 . S
C64 C65 1.399 . S
C64 H70 0.929 . S
C65 C45 1.449 . S
C65 C64 1.399 . S
C65 H71 0.930 . S
H66 C46 0.931 . S
H67 C47 0.930 . S
H68 C55 0.931 . S
H69 C56 0.929 . S
H70 C64 0.929 . S
H71 C65 0.930 . S
Mn72 O77 2.095 . S
Mn72 O87 2.162 . S
Mn72 O88 2.297 . S
Mn72 O96 2.385 . S
Mn72 O97 2.209 . S
Mn72 O98 2.094 . S
Mn73 O78 2.121 . S
Mn73 N80 2.257 . S
Mn73 N89 2.282 . S
Mn73 O97 2.215 . S
Mn73 O99 2.117 . S
C74 O96 1.234 . S
C74 O97 1.283 . S
C75 O87 1.281 . S
C75 O88 1.236 . S
C76 O98 1.240 . S
C76 O99 1.264 . S
O77 Mn72 2.095 . S
O77 C86 1.250 . S
O78 Mn73 2.121 . S
O78 C86 1.258 . S
C79 N80 1.326 . S
C79 C83 1.460 . S
C79 H85 0.929 . S
N80 Mn73 2.257 . S
N80 C79 1.326 . S
N80 C84 1.362 . S
C81 C82 1.258 . S
C81 C84 1.431 . S
C81 C101 1.449 . S
C82 C81 1.258 . S
C82 C83 1.477 . S
C82 H102 0.931 . S
C83 C79 1.460 . S
C83 C82 1.477 . S
C83 H103 0.930 . S
C84 N80 1.362 . S
C84 C81 1.431 . S
C84 C94 1.476 . S
H85 C79 0.929 . S
C86 O77 1.250 . S
C86 O78 1.258 . S
O87 Mn72 2.162 . S
O87 C75 1.281 . S
O88 Mn72 2.297 . S
O88 C75 1.236 . S
N89 Mn73 2.282 . S
N89 C90 1.328 . S
N89 C94 1.318 . S
C90 N89 1.328 . S
C90 C91 1.457 . S
C90 H95 0.929 . S
C91 C90 1.457 . S
C91 C92 1.291 . S
C91 H104 0.931 . S
C92 C91 1.291 . S
C92 C93 1.373 . S
C92 H105 0.929 . S
C93 C92 1.373 . S
C93 C94 1.396 . S
C93 C100 1.403 . S
C94 C84 1.476 . S
C94 N89 1.318 . S
C94 C93 1.396 . S
H95 C90 0.929 . S
O96 Mn72 2.385 . S
O96 C74 1.234 . S
O97 Mn72 2.209 . S
O97 Mn73 2.215 . S
O97 C74 1.283 . S
O98 Mn72 2.094 . S
O98 C76 1.240 . S
O99 Mn73 2.117 . S
O99 C76 1.264 . S
C100 C93 1.403 . S
C100 C101 1.399 . S
C100 H106 0.929 . S
C101 C81 1.449 . S
C101 C100 1.399 . S
C101 H107 0.930 . S
H102 C82 0.931 . S
H103 C83 0.930 . S
H104 C91 0.931 . S
H105 C92 0.929 . S
H106 C100 0.929 . S
H107 C101 0.930 . S
H108 O134 0.856 . S
H109 O137 0.854 . S
H110 C145 0.930 . S
H111 C146 0.930 . S
H112 C148 0.930 . S
H113 C149 0.930 . S
H114 C151 0.931 1_655 S
H115 C152 0.930 1_655 S
H116 C154 0.930 . S
H117 C155 0.929 . S
H118 C157 0.930 1_655 S
H119 C158 0.931 1_655 S
H120 C160 0.930 . S
H121 C161 0.929 . S
H122 C163 0.931 . S
H123 C164 0.932 . S
H124 C166 0.930 . S
H125 C167 0.932 . S
H126 C169 0.930 . S
H127 C170 0.929 . S
H128 C172 0.931 . S
H129 C173 0.930 . S
H130 C175 0.929 . S
H131 C176 0.931 . S
H132 C178 0.930 . S
H133 C179 0.929 . S
O134 H108 0.856 . S
O134 C180 1.300 . S
O135 C180 1.209 . S
O136 C181 1.199 . S
O137 H109 0.854 . S
O137 C181 1.297 . S
C138 C139 1.404 . S
C138 C143 1.397 . S
C138 C144 1.492 . S
C139 C138 1.404 . S
C139 C140 1.396 . S
C139 C150 1.492 . S
C140 C139 1.396 . S
C140 C141 1.397 . S
C140 C156 1.509 . S
C141 C140 1.397 . S
C141 C142 1.412 . S
C141 C162 1.485 . S
C142 C141 1.412 . S
C142 C143 1.388 . S
C142 C168 1.490 . S
C143 C138 1.397 . S
C143 C142 1.388 . S
C143 C174 1.519 . S
C144 C138 1.492 . S
C144 C145 1.363 1_455 S
C144 C149 1.390 . S
C145 H110 0.930 . S
C145 C144 1.363 1_655 S
C145 C146 1.372 . S
C146 H111 0.930 . S
C146 C145 1.372 . S
C146 C147 1.383 1_655 S
C147 C146 1.383 1_455 S
C147 C148 1.395 . S
C148 H112 0.930 . S
C148 C147 1.395 . S
C148 C149 1.362 . S
C149 H113 0.930 . S
C149 C144 1.390 . S
C149 C148 1.362 . S
C150 C139 1.492 . S
C150 C151 1.377 . S
C150 C155 1.397 . S
C151 H114 0.931 1_455 S
C151 C150 1.377 . S
C151 C152 1.376 . S
C152 H115 0.930 1_455 S
C152 C151 1.376 . S
C152 C153 1.376 . S
C153 C152 1.376 . S
C153 C154 1.378 . S
C153 C180 1.486 . S
C154 H116 0.930 . S
C154 C153 1.378 . S
C154 C155 1.376 . S
C155 H117 0.929 . S
C155 C150 1.397 . S
C155 C154 1.376 . S
C156 C140 1.509 . S
C156 C157 1.391 . S
C156 C161 1.386 . S
C157 H118 0.930 1_455 S
C157 C156 1.391 . S
C157 C158 1.375 . S
C158 H119 0.931 1_455 S
C158 C157 1.375 . S
C158 C159 1.375 . S
C159 C158 1.375 . S
C159 C160 1.361 . S
C160 H120 0.930 . S
C160 C159 1.361 . S
C160 C161 1.399 . S
C161 H121 0.929 . S
C161 C156 1.386 . S
C161 C160 1.399 . S
C162 C141 1.485 . S
C162 C163 1.394 1_455 S
C162 C167 1.360 . S
C163 H122 0.931 . S
C163 C162 1.394 1_655 S
C163 C164 1.370 . S
C164 H123 0.932 . S
C164 C163 1.370 . S
C164 C165 1.395 1_655 S
C165 C164 1.395 1_455 S
C165 C166 1.390 . S
C165 C181 1.476 . S
C166 H124 0.930 . S
C166 C165 1.390 . S
C166 C167 1.366 . S
C167 H125 0.932 . S
C167 C162 1.360 . S
C167 C166 1.366 . S
C168 C142 1.490 . S
C168 C169 1.380 1_455 S
C168 C173 1.386 . S
C169 H126 0.930 . S
C169 C168 1.380 1_655 S
C169 C170 1.381 . S
C170 H127 0.929 . S
C170 C169 1.381 . S
C170 C171 1.371 1_655 S
C171 C170 1.371 1_455 S
C171 C172 1.380 . S
C172 H128 0.931 . S
C172 C171 1.380 . S
C172 C173 1.387 . S
C173 H129 0.930 . S
C173 C168 1.386 . S
C173 C172 1.387 . S
C174 C143 1.519 . S
C174 C175 1.377 1_455 S
C174 C179 1.361 . S
C175 H130 0.929 . S
C175 C174 1.377 1_655 S
C175 C176 1.386 . S
C176 H131 0.931 . S
C176 C175 1.386 . S
C176 C177 1.363 1_655 S
C177 C176 1.363 1_455 S
C177 C178 1.385 . S
C178 H132 0.930 . S
C178 C177 1.385 . S
C178 C179 1.396 . S
C179 H133 0.929 . S
C179 C174 1.361 . S
C179 C178 1.396 . S
C180 O134 1.300 . S
C180 O135 1.209 . S
C180 C153 1.486 . S
C181 O136 1.199 . S
C181 O137 1.297 . S
C181 C165 1.476 . S
H182 O208 0.856 . S
H183 O211 0.854 . S
H184 C219 0.930 . S
H185 C220 0.930 . S
H186 C222 0.930 . S
H187 C223 0.930 . S
H188 C225 0.931 . S
H189 C226 0.930 . S
H190 C228 0.930 . S
H191 C229 0.929 . S
H192 C231 0.930 . S
H193 C232 0.931 . S
H194 C234 0.930 . S
H195 C235 0.929 . S
H196 C237 0.931 . S
H197 C238 0.930 . S
H198 C240 0.930 . S
H199 C241 0.932 . S
H200 C243 0.930 . S
H201 C244 0.929 . S
H202 C246 0.931 . S
H203 C247 0.930 . S
H204 C249 0.929 . S
H205 C250 0.931 . S
H206 C252 0.930 . S
H207 C253 0.929 . S
O208 H182 0.856 . S
O208 C254 1.300 . S
O209 C254 1.209 . S
O210 C255 1.199 . S
O211 H183 0.854 . S
O211 C255 1.297 . S
C212 C213 1.404 . S
C212 C217 1.397 . S
C212 C218 1.492 . S
C213 C212 1.404 . S
C213 C214 1.396 . S
C213 C224 1.492 . S
C214 C213 1.396 . S
C214 C215 1.397 . S
C214 C230 1.509 . S
C215 C214 1.397 . S
C215 C216 1.412 . S
C215 C236 1.485 . S
C216 C215 1.412 . S
C216 C217 1.388 . S
C216 C242 1.490 . S
C217 C212 1.397 . S
C217 C216 1.388 . S
C217 C248 1.519 . S
C218 C212 1.492 . S
C218 C219 1.363 . S
C218 C223 1.390 . S
C219 H184 0.930 . S
C219 C218 1.363 . S
C219 C220 1.372 . S
C220 H185 0.930 . S
C220 C219 1.372 . S
C220 C221 1.383 . S
C221 C220 1.383 . S
C221 C222 1.395 . S
C222 H186 0.930 . S
C222 C221 1.395 . S
C222 C223 1.362 . S
C223 H187 0.930 . S
C223 C218 1.390 . S
C223 C222 1.362 . S
C224 C213 1.492 . S
C224 C225 1.377 . S
C224 C229 1.397 . S
C225 H188 0.931 . S
C225 C224 1.377 . S
C225 C226 1.376 . S
C226 H189 0.930 . S
C226 C225 1.376 . S
C226 C227 1.376 . S
C227 C226 1.376 . S
C227 C228 1.378 . S
C227 C254 1.486 . S
C228 H190 0.930 . S
C228 C227 1.378 . S
C228 C229 1.376 . S
C229 H191 0.929 . S
C229 C224 1.397 . S
C229 C228 1.376 . S
C230 C214 1.509 . S
C230 C231 1.391 . S
C230 C235 1.386 . S
C231 H192 0.930 . S
C231 C230 1.391 . S
C231 C232 1.375 . S
C232 H193 0.931 . S
C232 C231 1.375 . S
C232 C233 1.375 . S
C233 C232 1.375 . S
C233 C234 1.361 . S
C234 H194 0.930 . S
C234 C233 1.361 . S
C234 C235 1.399 . S
C235 H195 0.929 . S
C235 C230 1.386 . S
C235 C234 1.399 . S
C236 C215 1.485 . S
C236 C237 1.394 . S
C236 C241 1.360 . S
C237 H196 0.931 . S
C237 C236 1.394 . S
C237 C238 1.372 . S
C238 H197 0.930 . S
C238 C237 1.372 . S
C238 C239 1.397 . S
C239 C238 1.397 . S
C239 C240 1.390 . S
C239 C255 1.476 . S
C240 H198 0.930 . S
C240 C239 1.390 . S
C240 C241 1.366 . S
C241 H199 0.932 . S
C241 C236 1.360 . S
C241 C240 1.366 . S
C242 C216 1.490 . S
C242 C243 1.380 . S
C242 C247 1.386 . S
C243 H200 0.930 . S
C243 C242 1.380 . S
C243 C244 1.381 . S
C244 H201 0.929 . S
C244 C243 1.381 . S
C244 C245 1.371 . S
C245 C244 1.371 . S
C245 C246 1.380 . S
C246 H202 0.931 . S
C246 C245 1.380 . S
C246 C247 1.387 . S
C247 H203 0.930 . S
C247 C242 1.386 . S
C247 C246 1.387 . S
C248 C217 1.519 . S
C248 C249 1.377 . S
C248 C253 1.361 . S
C249 H204 0.929 . S
C249 C248 1.377 . S
C249 C250 1.386 . S
C250 H205 0.931 . S
C250 C249 1.386 . S
C250 C251 1.363 . S
C251 C250 1.363 . S
C251 C252 1.385 . S
C252 H206 0.930 . S
C252 C251 1.385 . S
C252 C253 1.396 . S
C253 H207 0.929 . S
C253 C248 1.361 . S
C253 C252 1.396 . S
C254 O208 1.300 . S
C254 O209 1.209 . S
C254 C227 1.486 . S
C255 O210 1.199 . S
C255 O211 1.297 . S
C255 C239 1.476 . S
H256 O282 0.856 . S
H257 O285 0.854 . S
H258 C293 0.930 . S
H259 C294 0.930 . S
H260 C296 0.930 . S
H261 C297 0.930 . S
H262 C299 0.931 . S
H263 C300 0.930 . S
H264 C302 0.930 . S
H265 C303 0.929 . S
H266 C305 0.930 . S
H267 C306 0.931 . S
H268 C308 0.930 . S
H269 C309 0.929 . S
H270 C311 0.931 . S
H271 C312 0.930 . S
H272 C314 0.930 . S
H273 C315 0.932 . S
H274 C317 0.930 . S
H275 C318 0.929 . S
H276 C320 0.931 . S
H277 C321 0.930 . S
H278 C323 0.929 . S
H279 C324 0.931 . S
H280 C326 0.930 . S
H281 C327 0.929 . S
O282 H256 0.856 . S
O282 C328 1.300 1_554 S
O283 C328 1.188 1_554 S
O284 C329 1.199 . S
O285 H257 0.854 . S
O285 C329 1.297 . S
C286 C287 1.404 . S
C286 C291 1.397 . S
C286 C292 1.492 . S
C287 C286 1.404 . S
C287 C288 1.396 . S
C287 C298 1.492 . S
C288 C287 1.396 . S
C288 C289 1.397 . S
C288 C304 1.509 . S
C289 C288 1.397 . S
C289 C290 1.412 . S
C289 C310 1.485 . S
C290 C289 1.412 . S
C290 C291 1.388 . S
C290 C316 1.490 . S
C291 C286 1.397 . S
C291 C290 1.388 . S
C291 C322 1.519 . S
C292 C286 1.492 . S
C292 C293 1.363 . S
C292 C297 1.390 . S
C293 H258 0.930 . S
C293 C292 1.363 . S
C293 C294 1.372 . S
C294 H259 0.930 . S
C294 C293 1.372 . S
C294 C295 1.383 . S
C295 C294 1.383 . S
C295 C296 1.395 . S
C296 H260 0.930 . S
C296 C295 1.395 . S
C296 C297 1.362 . S
C297 H261 0.930 . S
C297 C292 1.390 . S
C297 C296 1.362 . S
C298 C287 1.492 . S
C298 C299 1.377 . S
C298 C303 1.397 . S
C299 H262 0.931 . S
C299 C298 1.377 . S
C299 C300 1.376 . S
C300 H263 0.930 . S
C300 C299 1.376 . S
C300 C301 1.376 . S
C301 C300 1.376 . S
C301 C302 1.378 . S
C301 C328 1.486 . S
C302 H264 0.930 . S
C302 C301 1.378 . S
C302 C303 1.376 . S
C303 H265 0.929 . S
C303 C298 1.397 . S
C303 C302 1.376 . S
C304 C288 1.509 . S
C304 C305 1.391 . S
C304 C309 1.386 . S
C305 H266 0.930 . S
C305 C304 1.391 . S
C305 C306 1.375 . S
C306 H267 0.931 . S
C306 C305 1.375 . S
C306 C307 1.375 . S
C307 C306 1.375 . S
C307 C308 1.361 . S
C308 H268 0.930 . S
C308 C307 1.361 . S
C308 C309 1.399 . S
C309 H269 0.929 . S
C309 C304 1.386 . S
C309 C308 1.399 . S
C310 C289 1.485 . S
C310 C311 1.394 . S
C310 C315 1.360 . S
C311 H270 0.931 . S
C311 C310 1.394 . S
C311 C312 1.372 . S
C312 H271 0.930 . S
C312 C311 1.372 . S
C312 C313 1.397 . S
C313 C312 1.397 . S
C313 C314 1.390 . S
C313 C329 1.476 . S
C314 H272 0.930 . S
C314 C313 1.390 . S
C314 C315 1.366 . S
C315 H273 0.932 . S
C315 C310 1.360 . S
C315 C314 1.366 . S
C316 C290 1.490 . S
C316 C317 1.380 . S
C316 C321 1.386 . S
C317 H274 0.930 . S
C317 C316 1.380 . S
C317 C318 1.381 . S
C318 H275 0.929 . S
C318 C317 1.381 . S
C318 C319 1.371 . S
C319 C318 1.371 . S
C319 C320 1.380 . S
C320 H276 0.931 . S
C320 C319 1.380 . S
C320 C321 1.387 . S
C321 H277 0.930 . S
C321 C316 1.386 . S
C321 C320 1.387 . S
C322 C291 1.519 . S
C322 C323 1.377 . S
C322 C327 1.361 . S
C323 H278 0.929 . S
C323 C322 1.377 . S
C323 C324 1.386 . S
C324 H279 0.931 . S
C324 C323 1.386 . S
C324 C325 1.363 . S
C325 C324 1.363 . S
C325 C326 1.385 . S
C326 H280 0.930 . S
C326 C325 1.385 . S
C326 C327 1.396 . S
C327 H281 0.929 . S
C327 C322 1.361 . S
C327 C326 1.396 . S
C328 O282 1.300 1_556 S
C328 O283 1.188 1_556 S
C328 C301 1.486 . S
C329 O284 1.199 . S
C329 O285 1.297 . S
C329 C313 1.476 . S
C330 C331 1.349 . S
C330 C332 1.327 . S
C330 H355 0.950 . S
C331 C330 1.349 . S
C331 C347 1.349 . S
C332 C330 1.327 . S
C332 C351 1.429 . S
C332 H356 0.950 . S
C333 C350 1.574 . S
C333 C352 1.368 . S
C333 H357 0.949 . S
H334 C338 0.949 . S
C335 C336 1.349 . S
C335 C337 1.327 . S
C335 H358 0.950 1_455 S
C336 C335 1.349 . S
C336 C348 1.349 . S
C337 C335 1.327 . S
C337 C353 1.429 . S
C337 H359 0.950 1_455 S
C338 H334 0.949 . S
C338 C346 1.574 . S
C338 C354 1.368 . S
H339 C347 0.950 . S
H340 C345 0.950 . S
H341 C346 0.949 . S
H342 C348 0.950 . S
H343 C349 0.950 . S
H344 C350 0.949 . S
C345 H340 0.950 . S
C345 C347 1.327 . S
C345 C351 1.429 . S
C346 C338 1.574 . S
C346 H341 0.949 . S
C346 C352 1.368 . S
C347 C331 1.349 . S
C347 H339 0.950 . S
C347 C345 1.327 . S
C348 C336 1.349 . S
C348 H342 0.950 . S
C348 C349 1.327 . S
C349 H343 0.950 . S
C349 C348 1.327 . S
C349 C353 1.429 . S
C350 C333 1.574 . S
C350 H344 0.949 . S
C350 C354 1.368 . S
C351 C332 1.429 . S
C351 C345 1.429 . S
C351 C352 1.523 . S
C352 C333 1.368 . S
C352 C346 1.368 . S
C352 C351 1.523 . S
C353 C337 1.429 . S
C353 C349 1.429 . S
C353 C354 1.523 . S
C354 C338 1.368 . S
C354 C350 1.368 . S
C354 C353 1.523 . S
H355 C330 0.950 . S
H356 C332 0.950 . S
H357 C333 0.949 . S
H358 C335 0.950 1_655 S
H359 C337 0.950 1_655 S
C360 C361 1.349 . S
C360 C362 1.327 . S
C360 H385 0.950 1_545 S
C361 C360 1.349 . S
C361 C377 1.349 . S
C362 C360 1.327 . S
C362 C381 1.429 . S
C362 H386 0.950 1_545 S
C363 C380 1.574 . S
C363 C382 1.368 . S
C363 H387 0.949 . S
H364 C368 0.949 . S
C365 C366 1.349 . S
C365 C367 1.327 . S
C365 H388 0.950 . S
C366 C365 1.349 . S
C366 C378 1.349 . S
C367 C365 1.327 . S
C367 C383 1.429 . S
C367 H389 0.950 . S
C368 H364 0.949 . S
C368 C376 1.574 . S
C368 C384 1.368 . S
H369 C377 0.950 . S
H370 C375 0.950 . S
H371 C376 0.949 . S
H372 C378 0.950 . S
H373 C379 0.950 . S
H374 C380 0.949 . S
C375 H370 0.950 . S
C375 C377 1.327 . S
C375 C381 1.429 . S
C376 C368 1.574 . S
C376 H371 0.949 . S
C376 C382 1.368 . S
C377 C361 1.349 . S
C377 H369 0.950 . S
C377 C375 1.327 . S
C378 C366 1.349 . S
C378 H372 0.950 . S
C378 C379 1.327 . S
C379 H373 0.950 . S
C379 C378 1.327 . S
C379 C383 1.429 . S
C380 C363 1.574 . S
C380 H374 0.949 . S
C380 C384 1.368 . S
C381 C362 1.429 . S
C381 C375 1.429 . S
C381 C382 1.523 . S
C382 C363 1.368 . S
C382 C376 1.368 . S
C382 C381 1.523 . S
C383 C367 1.429 . S
C383 C379 1.429 . S
C383 C384 1.523 . S
C384 C368 1.368 . S
C384 C380 1.368 . S
C384 C383 1.523 . S
H385 C360 0.950 1_565 S
H386 C362 0.950 1_565 S
H387 C363 0.949 . S
H388 C365 0.950 . S
H389 C367 0.950 . S
C390 C391 1.349 . S
C390 C392 1.327 . S
C390 H415 0.950 1_565 S
C391 C390 1.349 . S
C391 C407 1.349 . S
C392 C390 1.327 . S
C392 C411 1.429 . S
C392 H416 0.950 . S
C393 C410 1.574 . S
C393 C412 1.368 . S
C393 H417 0.949 . S
H394 C398 0.949 . S
C395 C396 1.349 . S
C395 C397 1.327 . S
C395 H418 0.950 . S
C396 C395 1.349 . S
C396 C408 1.349 . S
C397 C395 1.327 . S
C397 C413 1.429 . S
C397 H419 0.950 . S
C398 H394 0.949 . S
C398 C406 1.574 . S
C398 C414 1.368 . S
H399 C407 0.950 . S
H400 C405 0.950 . S
H401 C406 0.949 . S
H402 C408 0.950 . S
H403 C409 0.950 . S
H404 C410 0.949 . S
C405 H400 0.950 . S
C405 C407 1.327 . S
C405 C411 1.429 . S
C406 C398 1.574 . S
C406 H401 0.949 . S
C406 C412 1.368 . S
C407 C391 1.349 . S
C407 H399 0.950 . S
C407 C405 1.327 . S
C408 C396 1.349 . S
C408 H402 0.950 . S
C408 C409 1.327 . S
C409 H403 0.950 . S
C409 C408 1.327 . S
C409 C413 1.429 . S
C410 C393 1.574 . S
C410 H404 0.949 . S
C410 C414 1.368 . S
C411 C392 1.429 . S
C411 C405 1.429 . S
C411 C412 1.523 . S
C412 C393 1.368 . S
C412 C406 1.368 . S
C412 C411 1.523 . S
C413 C397 1.429 . S
C413 C409 1.429 . S
C413 C414 1.523 . S
C414 C398 1.368 . S
C414 C410 1.368 . S
C414 C413 1.523 . S
H415 C390 0.950 1_545 S
H416 C392 0.950 . S
H417 C393 0.949 . S
H418 C395 0.950 . S
H419 C397 0.950 . S
C420 C421 1.349 1_545 S
C420 C422 1.327 1_545 S
C420 H445 0.950 . S
C421 C420 1.349 1_565 S
C421 C437 1.349 . S
C422 C420 1.327 1_565 S
C422 C441 1.429 . S
C422 H446 0.950 . S
C423 C440 1.574 . S
C423 C442 1.368 . S
C423 H447 0.949 . S
H424 C428 0.949 . S
C425 C426 1.349 . S
C425 C427 1.327 . S
C425 H448 0.950 . S
C426 C425 1.349 . S
C426 C438 1.349 . S
C427 C425 1.327 . S
C427 C443 1.429 . S
C427 H449 0.950 . S
C428 H424 0.949 . S
C428 C436 1.574 . S
C428 C444 1.368 . S
H429 C437 0.950 . S
H430 C435 0.950 . S
H431 C436 0.949 . S
H432 C438 0.950 . S
H433 C439 0.950 . S
H434 C440 0.949 . S
C435 H430 0.950 . S
C435 C437 1.327 . S
C435 C441 1.429 . S
C436 C428 1.574 . S
C436 H431 0.949 . S
C436 C442 1.368 . S
C437 C421 1.349 . S
C437 H429 0.950 . S
C437 C435 1.327 . S
C438 C426 1.349 . S
C438 H432 0.950 . S
C438 C439 1.327 . S
C439 H433 0.950 . S
C439 C438 1.327 . S
C439 C443 1.429 . S
C440 C423 1.574 . S
C440 H434 0.949 . S
C440 C444 1.368 . S
C441 C422 1.429 . S
C441 C435 1.429 . S
C441 C442 1.523 . S
C442 C423 1.368 . S
C442 C436 1.368 . S
C442 C441 1.523 . S
C443 C427 1.429 . S
C443 C439 1.429 . S
C443 C444 1.523 . S
C444 C428 1.368 . S
C444 C440 1.368 . S
C444 C443 1.523 . S
H445 C420 0.950 . S
H446 C422 0.950 . S
H447 C423 0.949 . S
H448 C425 0.950 . S
H449 C427 0.950 . S
C450 C451 1.349 . S
C450 C452 1.327 . S
C450 H475 0.950 . S
C451 C450 1.349 . S
C451 C467 1.349 . S
C452 C450 1.327 . S
C452 C471 1.429 . S
C452 H476 0.950 . S
C453 C470 1.574 . S
C453 C472 1.368 . S
C453 H477 0.949 . S
H454 C458 0.949 . S
C455 C456 1.349 . S
C455 C457 1.327 . S
C455 H478 0.950 . S
C456 C455 1.349 . S
C456 C468 1.349 . S
C457 C455 1.327 . S
C457 C473 1.429 . S
C457 H479 0.950 . S
C458 H454 0.949 . S
C458 C466 1.574 . S
C458 C474 1.368 . S
H459 C467 0.950 . S
H460 C465 0.950 . S
H461 C466 0.949 . S
H462 C468 0.950 . S
H463 C469 0.950 . S
H464 C470 0.949 . S
C465 H460 0.950 . S
C465 C467 1.327 . S
C465 C471 1.429 . S
C466 C458 1.574 . S
C466 H461 0.949 . S
C466 C472 1.368 . S
C467 C451 1.349 . S
C467 H459 0.950 . S
C467 C465 1.327 . S
C468 C456 1.349 . S
C468 H462 0.950 . S
C468 C469 1.327 . S
C469 H463 0.950 . S
C469 C468 1.327 . S
C469 C473 1.429 . S
C470 C453 1.574 . S
C470 H464 0.949 . S
C470 C474 1.368 . S
C471 C452 1.429 . S
C471 C465 1.429 . S
C471 C472 1.523 . S
C472 C453 1.368 . S
C472 C466 1.368 . S
C472 C471 1.523 . S
C473 C457 1.429 . S
C473 C469 1.429 . S
C473 C474 1.523 . S
C474 C458 1.368 . S
C474 C470 1.368 . S
C474 C473 1.523 . S
H475 C450 0.950 . S
H476 C452 0.950 . S
H477 C453 0.949 . S
H478 C455 0.950 . S
H479 C457 0.950 . S
C480 C481 1.349 . S
C480 C482 1.327 . S
C480 H505 0.950 . S
C481 C480 1.349 . S
C481 C497 1.349 . S
C482 C480 1.327 . S
C482 C501 1.429 . S
C482 H506 0.950 . S
C483 C500 1.574 . S
C483 C502 1.368 . S
C483 H507 0.949 . S
H484 C488 0.949 . S
C485 C486 1.349 . S
C485 C487 1.327 . S
C485 H508 0.950 . S
C486 C485 1.349 . S
C486 C498 1.349 . S
C487 C485 1.327 . S
C487 C503 1.429 . S
C487 H509 0.950 . S
C488 H484 0.949 . S
C488 C496 1.574 . S
C488 C504 1.368 . S
H489 C497 0.950 . S
H490 C495 0.950 . S
H491 C496 0.949 . S
H492 C498 0.950 . S
H493 C499 0.950 . S
H494 C500 0.949 . S
C495 H490 0.950 . S
C495 C497 1.327 . S
C495 C501 1.429 . S
C496 C488 1.574 . S
C496 H491 0.949 . S
C496 C502 1.368 . S
C497 C481 1.349 . S
C497 H489 0.950 . S
C497 C495 1.327 . S
C498 C486 1.349 . S
C498 H492 0.950 . S
C498 C499 1.327 . S
C499 H493 0.950 . S
C499 C498 1.327 . S
C499 C503 1.429 . S
C500 C483 1.574 . S
C500 H494 0.949 . S
C500 C504 1.368 . S
C501 C482 1.429 . S
C501 C495 1.429 . S
C501 C502 1.523 . S
C502 C483 1.368 . S
C502 C496 1.368 . S
C502 C501 1.523 . S
C503 C487 1.429 . S
C503 C499 1.429 . S
C503 C504 1.523 . S
C504 C488 1.368 . S
C504 C500 1.368 . S
C504 C503 1.523 . S
H505 C480 0.950 . S
H506 C482 0.950 . S
H507 C483 0.949 . S
H508 C485 0.950 . S
H509 C487 0.950 . S
C510 C511 1.349 . S
C510 C512 1.327 . S
C510 H535 0.950 1_655 S
C511 C510 1.349 . S
C511 C527 1.349 . S
C512 C510 1.327 . S
C512 C531 1.429 . S
C512 H536 0.950 . S
C513 C530 1.574 . S
C513 C532 1.368 . S
C513 H537 0.949 . S
H514 C518 0.949 . S
C515 C516 1.349 . S
C515 C517 1.327 . S
C515 H538 0.950 . S
C516 C515 1.349 . S
C516 C528 1.349 . S
C517 C515 1.327 . S
C517 C533 1.429 . S
C517 H539 0.950 . S
C518 H514 0.949 . S
C518 C526 1.574 . S
C518 C534 1.368 . S
H519 C527 0.950 . S
H520 C525 0.950 . S
H521 C526 0.949 . S
H522 C528 0.950 . S
H523 C529 0.950 . S
H524 C530 0.949 . S
C525 H520 0.950 . S
C525 C527 1.327 . S
C525 C531 1.429 . S
C526 C518 1.574 . S
C526 H521 0.949 . S
C526 C532 1.368 . S
C527 C511 1.349 . S
C527 H519 0.950 . S
C527 C525 1.327 . S
C528 C516 1.349 . S
C528 H522 0.950 . S
C528 C529 1.327 . S
C529 H523 0.950 . S
C529 C528 1.327 . S
C529 C533 1.429 . S
C530 C513 1.574 . S
C530 H524 0.949 . S
C530 C534 1.368 . S
C531 C512 1.429 . S
C531 C525 1.429 . S
C531 C532 1.523 . S
C532 C513 1.368 . S
C532 C526 1.368 . S
C532 C531 1.523 . S
C533 C517 1.429 . S
C533 C529 1.429 . S
C533 C534 1.523 . S
C534 C518 1.368 . S
C534 C530 1.368 . S
C534 C533 1.523 . S
H535 C510 0.950 1_455 S
H536 C512 0.950 . S
H537 C513 0.949 . S
H538 C515 0.950 . S
H539 C517 0.950 . S
C540 C541 1.349 . S
C540 C542 1.327 . S
C540 H565 0.950 . S
C541 C540 1.349 . S
C541 C557 1.349 1_565 S
C542 C540 1.327 . S
C542 C561 1.429 . S
C542 H566 0.950 . S
C543 C560 1.574 . S
C543 C562 1.368 1_556 S
C543 H567 0.949 . S
H544 C548 0.949 . S
C545 C546 1.349 . S
C545 C547 1.327 . S
C545 H568 0.950 . S
C546 C545 1.349 . S
C546 C558 1.349 . S
C547 C545 1.327 . S
C547 C563 1.429 . S
C547 H569 0.950 . S
C548 H544 0.949 . S
C548 C556 1.574 1_556 S
C548 C564 1.368 . S
H549 C557 0.950 1_455 S
H550 C555 0.950 1_545 S
H551 C556 0.949 . S
H552 C558 0.950 . S
H553 C559 0.950 . S
H554 C560 0.949 . S
C555 H550 0.950 1_565 S
C555 C557 1.327 1_565 S
C555 C561 1.429 . S
C556 C548 1.574 1_554 S
C556 H551 0.949 . S
C556 C562 1.368 . S
C557 C541 1.349 1_545 S
C557 H549 0.950 1_655 S
C557 C555 1.327 1_545 S
C558 C546 1.349 . S
C558 H552 0.950 . S
C558 C559 1.327 . S
C559 H553 0.950 . S
C559 C558 1.327 . S
C559 C563 1.429 . S
C560 C543 1.574 . S
C560 H554 0.949 . S
C560 C564 1.368 . S
C561 C542 1.429 . S
C561 C555 1.429 . S
C561 C562 1.523 . S
C562 C543 1.368 1_554 S
C562 C556 1.368 . S
C562 C561 1.523 . S
C563 C547 1.429 . S
C563 C559 1.429 . S
C563 C564 1.523 . S
C564 C548 1.368 . S
C564 C560 1.368 . S
C564 C563 1.523 . S
H565 C540 0.950 . S
H566 C542 0.950 . S
H567 C543 0.949 . S
H568 C545 0.950 . S
H569 C547 0.950 . S
C570 C571 1.349 1_455 S
C570 C572 1.327 . S
C570 H595 0.950 . S
C571 C570 1.349 1_655 S
C571 C587 1.349 . S
C572 C570 1.327 . S
C572 C591 1.429 1_455 S
C572 H596 0.950 . S
C573 C590 1.574 . S
C573 C592 1.368 . S
C573 H597 0.949 . S
H574 C578 0.949 . S
C575 C576 1.349 . S
C575 C577 1.327 . S
C575 H598 0.950 . S
C576 C575 1.349 . S
C576 C588 1.349 1_655 S
C577 C575 1.327 . S
C577 C593 1.429 . S
C577 H599 0.950 . S
C578 H574 0.949 . S
C578 C586 1.574 . S
C578 C594 1.368 1_455 S
H579 C587 0.950 . S
H580 C585 0.950 . S
H581 C586 0.949 . S
H582 C588 0.950 . S
H583 C589 0.950 . S
H584 C590 0.949 . S
C585 H580 0.950 . S
C585 C587 1.327 . S
C585 C591 1.429 . S
C586 C578 1.574 . S
C586 H581 0.949 . S
C586 C592 1.368 1_455 S
C587 C571 1.349 . S
C587 H579 0.950 . S
C587 C585 1.327 . S
C588 C576 1.349 1_455 S
C588 H582 0.950 . S
C588 C589 1.327 . S
C589 H583 0.950 . S
C589 C588 1.327 . S
C589 C593 1.429 1_455 S
C590 C573 1.574 . S
C590 H584 0.949 . S
C590 C594 1.368 . S
C591 C572 1.429 1_655 S
C591 C585 1.429 . S
C591 C592 1.523 . S
C592 C573 1.368 . S
C592 C586 1.368 1_655 S
C592 C591 1.523 . S
C593 C577 1.429 . S
C593 C589 1.429 1_655 S
C593 C594 1.523 . S
C594 C578 1.368 1_655 S
C594 C590 1.368 . S
C594 C593 1.523 . S
H595 C570 0.950 . S
H596 C572 0.950 . S
H597 C573 0.949 . S
H598 C575 0.950 . S
H599 C577 0.950 . S
C600 C601 1.349 . S
C600 C602 1.327 . S
C600 H625 0.950 . S
C601 C600 1.349 . S
C601 C617 1.349 . S
C602 C600 1.327 . S
C602 C621 1.429 . S
C602 H626 0.950 . S
C603 C620 1.574 . S
C603 C622 1.368 . S
C603 H627 0.949 . S
H604 C608 0.949 . S
C605 C606 1.349 . S
C605 C607 1.327 . S
C605 H628 0.950 . S
C606 C605 1.349 . S
C606 C618 1.349 . S
C607 C605 1.327 . S
C607 C623 1.429 . S
C607 H629 0.950 . S
C608 H604 0.949 . S
C608 C616 1.574 . S
C608 C624 1.368 . S
H609 C617 0.950 . S
H610 C615 0.950 . S
H611 C616 0.949 . S
H612 C618 0.950 . S
H613 C619 0.950 . S
H614 C620 0.949 . S
C615 H610 0.950 . S
C615 C617 1.327 . S
C615 C621 1.429 . S
C616 C608 1.574 . S
C616 H611 0.949 . S
C616 C622 1.368 . S
C617 C601 1.349 . S
C617 H609 0.950 . S
C617 C615 1.327 . S
C618 C606 1.349 . S
C618 H612 0.950 . S
C618 C619 1.327 . S
C619 H613 0.950 . S
C619 C618 1.327 . S
C619 C623 1.429 . S
C620 C603 1.574 . S
C620 H614 0.949 . S
C620 C624 1.368 . S
C621 C602 1.429 . S
C621 C615 1.429 . S
C621 C622 1.523 . S
C622 C603 1.368 . S
C622 C616 1.368 . S
C622 C621 1.523 . S
C623 C607 1.429 . S
C623 C619 1.429 . S
C623 C624 1.523 . S
C624 C608 1.368 . S
C624 C620 1.368 . S
C624 C623 1.523 . S
H625 C600 0.950 . S
H626 C602 0.950 . S
H627 C603 0.949 . S
H628 C605 0.950 . S
H629 C607 0.950 . S
C630 C631 1.349 . S
C630 C632 1.327 . S
C630 H655 0.950 . S
C631 C630 1.349 . S
C631 C647 1.349 . S
C632 C630 1.327 . S
C632 C651 1.429 . S
C632 H656 0.950 . S
C633 C650 1.574 . S
C633 C652 1.368 . S
C633 H657 0.949 . S
H634 C638 0.949 . S
C635 C636 1.349 . S
C635 C637 1.327 . S
C635 H658 0.950 . S
C636 C635 1.349 . S
C636 C648 1.349 . S
C637 C635 1.327 . S
C637 C653 1.429 . S
C637 H659 0.944 . S
C638 H634 0.949 . S
C638 C646 1.574 1_556 S
C638 C654 1.369 . S
H639 C647 0.950 . S
H640 C645 0.950 . S
H641 C646 0.949 . S
H642 C648 0.950 . S
H643 C649 0.950 . S
H644 C650 0.949 . S
C645 H640 0.950 . S
C645 C647 1.327 . S
C645 C651 1.429 . S
C646 C638 1.574 1_554 S
C646 H641 0.949 . S
C646 C652 1.368 . S
C647 C631 1.349 . S
C647 H639 0.950 . S
C647 C645 1.327 . S
C648 C636 1.349 . S
C648 H642 0.950 . S
C648 C649 1.327 . S
C649 H643 0.950 . S
C649 C648 1.327 . S
C649 C653 1.429 . S
C650 C633 1.574 . S
C650 H644 0.949 . S
C650 C654 1.368 1_554 S
C651 C632 1.429 . S
C651 C645 1.429 . S
C651 C652 1.523 . S
C652 C633 1.368 . S
C652 C646 1.368 . S
C652 C651 1.523 . S
C653 C637 1.429 . S
C653 C649 1.429 . S
C653 C654 1.524 . S
C654 C638 1.369 . S
C654 C650 1.368 1_556 S
C654 C653 1.524 . S
H655 C630 0.950 . S
H656 C632 0.950 . S
H657 C633 0.949 . S
H658 C635 0.950 . S
H659 C637 0.944 . S
C660 C661 1.349 1_655 S
C660 C662 1.327 . S
C660 H685 0.950 . S
C661 C660 1.349 1_455 S
C661 C677 1.349 . S
C662 C660 1.327 . S
C662 C681 1.429 1_655 S
C662 H686 0.950 . S
C663 C680 1.574 . S
C663 C682 1.368 . S
C663 H687 0.949 . S
H664 C668 0.949 . S
C665 C666 1.349 . S
C665 C667 1.327 . S
C665 H688 0.950 . S
C666 C665 1.349 . S
C666 C678 1.349 1_455 S
C667 C665 1.327 . S
C667 C683 1.429 . S
C667 H689 0.950 . S
C668 H664 0.949 . S
C668 C676 1.574 . S
C668 C684 1.368 1_655 S
H669 C677 0.950 . S
H670 C675 0.950 . S
H671 C676 0.949 . S
H672 C678 0.950 . S
H673 C679 0.950 . S
H674 C680 0.949 . S
C675 H670 0.950 . S
C675 C677 1.327 . S
C675 C681 1.429 . S
C676 C668 1.574 . S
C676 H671 0.949 . S
C676 C682 1.368 1_655 S
C677 C661 1.349 . S
C677 H669 0.950 . S
C677 C675 1.327 . S
C678 C666 1.349 1_655 S
C678 H672 0.950 . S
C678 C679 1.327 . S
C679 H673 0.950 . S
C679 C678 1.327 . S
C679 C683 1.429 1_655 S
C680 C663 1.574 . S
C680 H674 0.949 . S
C680 C684 1.368 . S
C681 C662 1.429 1_455 S
C681 C675 1.429 . S
C681 C682 1.523 . S
C682 C663 1.368 . S
C682 C676 1.368 1_455 S
C682 C681 1.523 . S
C683 C667 1.429 . S
C683 C679 1.429 1_455 S
C683 C684 1.523 . S
C684 C668 1.368 1_455 S
C684 C680 1.368 . S
C684 C683 1.523 . S
H685 C660 0.950 . S
H686 C662 0.950 . S
H687 C663 0.949 . S
H688 C665 0.950 . S
H689 C667 0.950 . S
C336 C147 1.384 . S
C331 C14 1.440 . S
C361 C40 1.353 . S
C366 C221 1.319 . S
C391 C76 2.150 1_665 S
C396 C325 2.169 . S
C421 C3 0.682 1_565 S
C426 C159 0.683 . S
C456 C233 0.728 . S
C451 C38 0.728 . S
C481 C74 1.430 . S
C486 C319 1.348 . S
C516 C251 2.177 . S
C511 C86 2.140 1_655 S
C541 C2 1.443 1_665 S
C546 C295 1.385 . S
C576 C171 1.345 1_655 S
C571 C39 1.429 . S
C606 C245 1.281 . S
C601 C75 1.352 . S
C636 C307 0.701 . S
C631 C4 0.704 . S
C661 C50 2.211 . S
C666 C177 2.258 . S
