# Generated by pormake.
# Topology the, (3,8)-cn, num edge types: 1
# Building blocks:
#     Node 0, Type 0, BuildingBlock: PAMTOO_clean_linker_0, # of connection points: 3
#     Node 1, Type 0, BuildingBlock: PAMTOO_clean_linker_0, # of connection points: 3
#     Node 2, Type 0, BuildingBlock: PAMTOO_clean_linker_0, # of connection points: 3
#     Node 3, Type 0, BuildingBlock: PAMTOO_clean_linker_0, # of connection points: 3
#     Node 4, Type 0, BuildingBlock: PAMTOO_clean_linker_0, # of connection points: 3
#     Node 5, Type 0, BuildingBlock: PAMTOO_clean_linker_0, # of connection points: 3
#     Node 6, Type 0, BuildingBlock: PAMTOO_clean_linker_0, # of connection points: 3
#     Node 7, Type 0, BuildingBlock: PAMTOO_clean_linker_0, # of connection points: 3
#     Node 8, Type 1, BuildingBlock: GIZVER_clean_sbu_0, # of connection points: 8
#     Node 9, Type 1, BuildingBlock: GIZVER_clean_sbu_0, # of connection points: 8
#     Node 10, Type 1, BuildingBlock: GIZVER_clean_sbu_0, # of connection points: 8
#     Edge 11, Type (0, 1), BuildingBlock: TEMPAE_clean_linker_10, # of connection points: 2
#     Edge 12, Type (0, 1), BuildingBlock: TEMPAE_clean_linker_10, # of connection points: 2
#     Edge 13, Type (0, 1), BuildingBlock: TEMPAE_clean_linker_10, # of connection points: 2
#     Edge 14, Type (0, 1), BuildingBlock: TEMPAE_clean_linker_10, # of connection points: 2
#     Edge 15, Type (0, 1), BuildingBlock: TEMPAE_clean_linker_10, # of connection points: 2
#     Edge 16, Type (0, 1), BuildingBlock: TEMPAE_clean_linker_10, # of connection points: 2
#     Edge 17, Type (0, 1), BuildingBlock: TEMPAE_clean_linker_10, # of connection points: 2
#     Edge 18, Type (0, 1), BuildingBlock: TEMPAE_clean_linker_10, # of connection points: 2
#     Edge 19, Type (0, 1), BuildingBlock: TEMPAE_clean_linker_10, # of connection points: 2
#     Edge 20, Type (0, 1), BuildingBlock: TEMPAE_clean_linker_10, # of connection points: 2
#     Edge 21, Type (0, 1), BuildingBlock: TEMPAE_clean_linker_10, # of connection points: 2
#     Edge 22, Type (0, 1), BuildingBlock: TEMPAE_clean_linker_10, # of connection points: 2
#     Edge 23, Type (0, 1), BuildingBlock: TEMPAE_clean_linker_10, # of connection points: 2
#     Edge 24, Type (0, 1), BuildingBlock: TEMPAE_clean_linker_10, # of connection points: 2
#     Edge 25, Type (0, 1), BuildingBlock: TEMPAE_clean_linker_10, # of connection points: 2
#     Edge 26, Type (0, 1), BuildingBlock: TEMPAE_clean_linker_10, # of connection points: 2
#     Edge 27, Type (0, 1), BuildingBlock: TEMPAE_clean_linker_10, # of connection points: 2
#     Edge 28, Type (0, 1), BuildingBlock: TEMPAE_clean_linker_10, # of connection points: 2
#     Edge 29, Type (0, 1), BuildingBlock: TEMPAE_clean_linker_10, # of connection points: 2
#     Edge 30, Type (0, 1), BuildingBlock: TEMPAE_clean_linker_10, # of connection points: 2
#     Edge 31, Type (0, 1), BuildingBlock: TEMPAE_clean_linker_10, # of connection points: 2
#     Edge 32, Type (0, 1), BuildingBlock: TEMPAE_clean_linker_10, # of connection points: 2
#     Edge 33, Type (0, 1), BuildingBlock: TEMPAE_clean_linker_10, # of connection points: 2
#     Edge 34, Type (0, 1), BuildingBlock: TEMPAE_clean_linker_10, # of connection points: 2
# Relax obj value: 0.075
# Max RMSD: 0.227
# Mean RMSD: 0.144
data_MOF--net-the--node1-GIZVER_clean_sbu_0--node2-PAMTOO_clean_linker_0--edge1-TEMPAE_clean_linker_10
_symmetry_space_group_name_H-M    P1
_symmetry_Int_Tables_number       1
_symmetry_cell_setting            triclinic
loop_
_symmetry_equiv_pos_as_xyz
'x, y, z'
_cell_length_a     41.520228
_cell_length_b     39.035574
_cell_length_c     36.207043
_cell_angle_alpha  87.794097
_cell_angle_beta   94.810157
_cell_angle_gamma 107.84456
loop_
_atom_site_label
_atom_site_type_symbol
_atom_site_fract_x
_atom_site_fract_y
_atom_site_fract_z
_atom_type_partial_charge
H0 H 0.26809 0.42131 0.37564 0.0
H1 H 0.27178 0.35236 0.47098 0.0
H2 H 0.32874 0.34918 0.3793 0.0
H3 H 0.28053 0.28086 0.41008 0.0
C4 C 0.29188 0.28576 0.43912 0.0
O5 O 0.31111 0.32129 0.44355 0.0
H6 H 0.27076 0.27949 0.45773 0.0
C7 C 0.27752 0.40121 0.39016 0.0
C8 C 0.30094 0.38825 0.37352 0.0
C9 C 0.26604 0.38817 0.42515 0.0
C10 C 0.27907 0.36233 0.44364 0.0
C11 C 0.30114 0.34821 0.42674 0.0
C12 C 0.31202 0.36105 0.39197 0.0
H13 H 0.72603 0.30223 0.39457 0.0
H14 H 0.64674 0.30276 0.31057 0.0
H15 H 0.73445 0.39547 0.32308 0.0
H16 H 0.67109 0.41212 0.30963 0.0
C17 C 0.65555 0.38836 0.29327 0.0
O18 O 0.67609 0.36787 0.28572 0.0
H19 H 0.63482 0.37225 0.31019 0.0
C20 C 0.71619 0.31617 0.37208 0.0
C21 C 0.73517 0.35117 0.36114 0.0
C22 C 0.68431 0.29863 0.35418 0.0
C23 C 0.6715 0.3158 0.32427 0.0
C24 C 0.68968 0.35066 0.31315 0.0
C25 C 0.72134 0.36816 0.33146 0.0
H26 H 0.62748 0.76262 0.31934 0.0
H27 H 0.69942 0.70242 0.32359 0.0
H28 H 0.70761 0.7797 0.40694 0.0
H29 H 0.77314 0.779 0.38612 0.0
C30 C 0.76668 0.75077 0.37661 0.0
O31 O 0.73357 0.73236 0.38352 0.0
H32 H 0.76955 0.75146 0.34626 0.0
C33 C 0.64959 0.75654 0.33233 0.0
C34 C 0.66572 0.77433 0.36529 0.0
C35 C 0.66146 0.73049 0.31652 0.0
C36 C 0.69017 0.72294 0.33416 0.0
C37 C 0.7067 0.74084 0.3664 0.0
C38 C 0.69448 0.76625 0.38188 0.0
H39 H 0.25433 0.75848 0.39554 0.0
H40 H 0.23934 0.67269 0.3189 0.0
H41 H 0.3275 0.76464 0.31529 0.0
H42 H 0.29396 0.73215 0.24106 0.0
C43 C 0.28675 0.70351 0.25051 0.0
O44 O 0.29605 0.70152 0.28777 0.0
H45 H 0.25877 0.69177 0.24537 0.0
C46 C 0.26252 0.74787 0.37203 0.0
C47 C 0.29376 0.76631 0.35749 0.0
C48 C 0.24267 0.71433 0.35796 0.0
C49 C 0.254 0.69902 0.32925 0.0
C50 C 0.28439 0.71741 0.3139 0.0
C51 C 0.30394 0.75104 0.32756 0.0
H52 H 0.28619 0.7797 0.69917 0.0
H53 H 0.27531 0.68623 0.77075 0.0
H54 H 0.36919 0.77171 0.7748 0.0
H55 H 0.3741 0.69944 0.77756 0.0
C56 C 0.35342 0.68584 0.79571 0.0
O57 O 0.3362 0.70956 0.80369 0.0
H58 H 0.33542 0.66254 0.78059 0.0
C59 C 0.29621 0.76492 0.72074 0.0
C60 C 0.32999 0.77953 0.7352 0.0
C61 C 0.27595 0.73094 0.7328 0.0
C62 C 0.2898 0.71265 0.76121 0.0
C63 C 0.32315 0.72754 0.7766 0.0
C64 C 0.3432 0.76076 0.76336 0.0
H65 H 0.2727 0.38906 0.76588 0.0
H66 H 0.25656 0.31051 0.68032 0.0
H67 H 0.33541 0.31888 0.76637 0.0
H68 H 0.35613 0.31872 0.69274 0.0
C69 C 0.33269 0.30016 0.67887 0.0
O70 O 0.30812 0.28847 0.70395 0.0
H71 H 0.32326 0.31535 0.65599 0.0
C72 C 0.27882 0.36681 0.7544 0.0
C73 C 0.30629 0.35603 0.77093 0.0
C74 C 0.26037 0.35046 0.72179 0.0
C75 C 0.26994 0.32319 0.70562 0.0
C76 C 0.29726 0.31244 0.7215 0.0
C77 C 0.31471 0.32812 0.75439 0.0
H78 H 0.62258 0.30886 0.77122 0.0
H79 H 0.7191 0.39181 0.78554 0.0
H80 H 0.70639 0.30793 0.70866 0.0
H81 H 0.77196 0.32826 0.74431 0.0
C82 C 0.77557 0.35687 0.7508 0.0
O83 O 0.74773 0.36664 0.7365 0.0
H84 H 0.77845 0.3601 0.78143 0.0
C85 C 0.64871 0.32034 0.76463 0.0
C86 C 0.66211 0.30313 0.73878 0.0
C87 C 0.66886 0.35287 0.78133 0.0
C88 C 0.70287 0.36722 0.7728 0.0
C89 C 0.71609 0.35073 0.74693 0.0
C90 C 0.69579 0.31927 0.72973 0.0
H91 H 0.64044 0.74257 0.71278 0.0
H92 H 0.70054 0.6726 0.69703 0.0
H93 H 0.68702 0.74477 0.61014 0.0
H94 H 0.70117 0.67312 0.5849 0.0
C95 C 0.7119 0.66856 0.61318 0.0
O96 O 0.71934 0.69983 0.63301 0.0
H97 H 0.69292 0.64609 0.62674 0.0
C98 C 0.65498 0.73214 0.69521 0.0
C99 C 0.66127 0.74709 0.65941 0.0
C100 C 0.66816 0.70449 0.70904 0.0
C101 C 0.68959 0.69347 0.68731 0.0
C102 C 0.6966 0.70858 0.65219 0.0
C103 C 0.6818 0.73438 0.63788 0.0
Co104 Co 0.06775 0.50391 0.5764 0.0
Co105 Co 0.03482 0.48967 0.5111 0.0
Co106 Co 1.0037 0.54049 0.55218 0.0
O107 O 0.02181 0.49822 0.55724 0.0
H108 H 1.00569 0.47692 0.56672 0.0
O109 O 0.9854 0.58251 0.5469 0.0
Co110 Co 0.9389 0.57654 0.52991 0.0
Co111 Co 0.97489 0.59314 0.5939 0.0
H112 H 1.001 0.60348 0.53612 0.0
O113 O 0.04266 0.44717 0.49911 0.0
O114 O 0.08015 0.49562 0.52653 0.0
O115 O 0.03492 0.52497 0.47201 0.0
O116 O 0.03484 0.56565 0.51303 0.0
O117 O 0.96853 0.51277 0.51336 0.0
O118 O 0.8972 0.57601 0.51312 0.0
O119 O 0.94412 0.62377 0.51934 0.0
O120 O 0.92734 0.5265 0.53746 0.0
O121 O 0.9729 0.51606 0.59205 0.0
O122 O 0.97841 0.55896 0.63285 0.0
O123 O 0.92865 0.58122 0.58094 0.0
O124 O 0.96076 0.63357 0.60505 0.0
C125 C 0.09428 0.47133 0.60138 0.0
C126 C 0.07064 0.57305 0.58799 0.0
C127 C 0.04175 0.55748 0.48148 0.0
C128 C 0.07363 0.46477 0.51041 0.0
C129 C 0.91194 0.61032 0.5087 0.0
C130 C 0.93687 0.50793 0.5152 0.0
C131 C 0.96939 0.52593 0.62438 0.0
C132 C 0.93104 0.61157 0.59563 0.0
O133 O 0.10851 0.50544 0.59556 0.0
O134 O 0.06234 0.45687 0.59003 0.0
O135 O 0.03908 0.56827 0.59057 0.0
O136 O 0.07973 0.5536 0.56626 0.0
Co137 Co 0.53057 0.96547 0.51175 0.0
Co138 Co 0.54778 0.99471 0.57695 0.0
Co139 Co 0.50088 0.03438 0.53154 0.0
O140 O 0.53927 0.01344 0.53054 0.0
H141 H 0.55959 0.03046 0.52201 0.0
O142 O 0.46204 0.05454 0.53273 0.0
Co143 Co 0.4692 0.10221 0.55074 0.0
Co144 Co 0.45311 0.072 0.48608 0.0
H145 H 0.44187 0.0372 0.54123 0.0
O146 O 0.5881 0.98545 0.5913 0.0
O147 O 0.54132 0.94769 0.56208 0.0
O148 O 0.51611 0.99268 0.61369 0.0
O149 O 0.47691 0.99908 0.57061 0.0
O150 O 0.52751 0.06899 0.57071 0.0
O151 O 0.47274 0.14482 0.56881 0.0
O152 O 0.42644 0.09619 0.56402 0.0
O153 O 0.51523 0.11429 0.54113 0.0
O154 O 0.52506 0.06978 0.49243 0.0
O155 O 0.48567 0.07705 0.45014 0.0
O156 O 0.45652 0.11821 0.5002 0.0
O157 O 0.41145 0.07712 0.47172 0.0
C158 C 0.55798 0.93753 0.48742 0.0
C159 C 0.46563 0.96648 0.49839 0.0
C160 C 0.48533 0.98846 0.60283 0.0
C161 C 0.57131 0.9535 0.57933 0.0
C162 C 0.44101 0.12943 0.5745 0.0
C163 C 0.53299 0.10286 0.56605 0.0
C164 C 0.51653 0.08168 0.46085 0.0
C165 C 0.42595 0.10957 0.48375 0.0
O166 O 0.52608 0.923 0.49281 0.0
O167 O 0.57339 0.97034 0.49883 0.0
O168 O 0.4736 1.00031 0.49248 0.0
O169 O 0.48425 0.95363 0.52088 0.0
Co170 Co 0.45607 0.54629 0.11213 0.0
Co171 Co 0.44135 0.48032 0.09425 0.0
Co172 Co 0.49855 0.52962 0.0428 0.0
O173 O 0.45585 0.52247 0.06755 0.0
H174 H 0.43763 0.52424 0.04986 0.0
O175 O 0.54075 0.53598 0.01687 0.0
Co176 Co 0.53628 0.51619 0.96832 0.0
Co177 Co 0.55597 0.58026 0.99408 0.0
H178 H 0.55869 0.53107 0.03284 0.0
O179 O 0.39636 0.45877 0.10323 0.0
O180 O 0.4361 0.49987 0.13834 0.0
O181 O 0.47384 0.45514 0.10472 0.0
O182 O 0.51568 0.49441 0.0763 0.0
O183 O 0.47176 0.49026 1.00794 0.0
O184 O 0.535 0.49631 0.92508 0.0
O185 O 0.57666 0.50677 0.97105 0.0
O186 O 0.4928 0.52159 0.95908 0.0
O187 O 0.48175 0.56527 0.00984 0.0
O188 O 0.52586 0.60907 0.99075 0.0
O189 O 0.55673 0.56466 0.94634 0.0
O190 O 0.60026 0.60031 0.98239 0.0
C191 C 0.42388 0.56904 0.13402 0.0
C192 C 0.52481 0.56606 0.11289 0.0
C193 C 0.50473 0.4669 0.09758 0.0
C194 C 0.4059 0.47673 0.13377 0.0
C195 C 0.56394 0.49312 0.93863 0.0
C196 C 0.46905 0.49735 0.97332 0.0
C197 C 0.49422 0.59575 0.99368 0.0
C198 C 0.58765 0.58642 0.95033 0.0
O199 O 0.4527 0.56991 0.15182 0.0
O200 O 0.41501 0.55241 0.10247 0.0
O201 O 0.52503 0.56945 0.07764 0.0
O202 O 0.49988 0.54366 0.1273 0.0
C203 C 0.23662 0.43482 0.43394 0.0
C204 C 0.23947 0.40022 0.44154 0.0
C205 C 0.20987 0.4451 0.44636 0.0
C206 C 0.18632 0.42098 0.46861 0.0
C207 C 0.19014 0.38695 0.47839 0.0
C208 C 0.21594 0.3766 0.46387 0.0
C209 C 0.20638 0.4815 0.43494 0.0
C210 C 0.16656 0.36098 0.50349 0.0
C211 C 0.13351 0.46341 0.5215 0.0
C212 C 0.10191 0.45187 0.50123 0.0
C213 C 0.16078 0.45216 0.51236 0.0
C214 C 0.15703 0.43088 0.48057 0.0
C215 C 0.12534 0.41963 0.45958 0.0
C216 C 0.09793 0.42956 0.47069 0.0
C217 C 0.19361 0.46381 0.53652 0.0
C218 C 0.12067 0.39808 0.42469 0.0
H219 H 0.25507 0.45395 0.41792 0.0
H220 H 0.21702 0.34953 0.46957 0.0
H221 H 0.18052 0.47841 0.42182 0.0
H222 H 0.20987 0.49842 0.45973 0.0
H223 H 0.22522 0.49593 0.41517 0.0
H224 H 0.17834 0.34106 0.51661 0.0
H225 H 0.15927 0.37534 0.52568 0.0
H226 H 0.14305 0.346 0.48703 0.0
H227 H 0.13713 0.48128 0.54458 0.0
H228 H 0.07372 0.42106 0.45451 0.0
H229 H 0.21012 0.48956 0.52558 0.0
H230 H 0.20754 0.44364 0.53701 0.0
H231 H 0.18899 0.46838 0.56544 0.0
H232 H 0.13985 0.41243 0.40527 0.0
H233 H 0.09499 0.39329 0.41036 0.0
H234 H 0.12466 0.37167 0.43144 0.0
C235 C 0.65189 0.23322 0.34613 0.0
C236 C 0.66318 0.2636 0.36868 0.0
C237 C 0.6305 0.20045 0.35937 0.0
C238 C 0.61927 0.19848 0.39554 0.0
C239 C 0.63103 0.22912 0.4185 0.0
C240 C 0.6532 0.26113 0.40494 0.0
C241 C 0.61938 0.16818 0.33443 0.0
C242 C 0.61906 0.22859 0.45685 0.0
C243 C 0.53367 0.13307 0.4159 0.0
C244 C 0.54287 0.10788 0.43986 0.0
C245 C 0.55826 0.16205 0.40058 0.0
C246 C 0.5931 0.16556 0.40844 0.0
C247 C 0.60258 0.13906 0.43076 0.0
C248 C 0.57739 0.11082 0.44668 0.0
C249 C 0.54692 0.19006 0.37771 0.0
C250 C 0.63939 0.14121 0.43891 0.0
H251 H 0.65981 0.23514 0.31814 0.0
H252 H 0.66178 0.28476 0.42225 0.0
H253 H 0.62348 0.14434 0.34941 0.0
H254 H 0.59184 0.16159 0.32629 0.0
H255 H 0.63325 0.17293 0.30886 0.0
H256 H 0.63126 0.25436 0.47152 0.0
H257 H 0.59116 0.22339 0.45489 0.0
H258 H 0.62453 0.20649 0.47382 0.0
H259 H 0.50714 0.13138 0.41066 0.0
H260 H 0.58476 0.0915 0.46508 0.0
H261 H 0.55785 0.19387 0.35039 0.0
H262 H 0.55632 0.21631 0.392 0.0
H263 H 0.51886 0.18274 0.37304 0.0
H264 H 0.6527 0.14633 0.41298 0.0
H265 H 0.64236 0.11616 0.45231 0.0
H266 H 0.65208 0.16402 0.45765 0.0
C267 C 0.81018 0.71716 0.37823 0.0
C268 C 0.79046 0.73291 0.39734 0.0
C269 C 0.83194 0.70002 0.39744 0.0
C270 C 0.83366 0.69808 0.43671 0.0
C271 C 0.81453 0.71506 0.45611 0.0
C272 C 0.7931 0.7321 0.43615 0.0
C273 C 0.85298 0.68381 0.37563 0.0
C274 C 0.81551 0.71497 0.49785 0.0
C275 C 0.85795 0.6177 0.47852 0.0
C276 C 0.89183 0.63344 0.49199 0.0
C277 C 0.83868 0.63851 0.46114 0.0
C278 C 0.85355 0.67613 0.4569 0.0
C279 C 0.88753 0.69235 0.47104 0.0
C280 C 0.90625 0.67084 0.48849 0.0
C281 C 0.80253 0.61986 0.44671 0.0
C282 C 0.90415 0.73239 0.46737 0.0
H283 H 0.80847 0.7181 0.34819 0.0
H284 H 0.77808 0.74459 0.45096 0.0
H285 H 0.87995 0.69312 0.38665 0.0
H286 H 0.84406 0.65407 0.37858 0.0
H287 H 0.8515 0.69092 0.34566 0.0
H288 H 0.7911 0.69683 0.50679 0.0
H289 H 0.8366 0.70629 0.51159 0.0
H290 H 0.81791 0.74232 0.50766 0.0
H291 H 0.84642 0.58885 0.48108 0.0
H292 H 0.9323 0.68331 0.49904 0.0
H293 H 0.80161 0.61632 0.41636 0.0
H294 H 0.78562 0.63612 0.45168 0.0
H295 H 0.79238 0.59285 0.45974 0.0
H296 H 0.90313 0.74074 0.43775 0.0
H297 H 0.93105 0.7408 0.47879 0.0
H298 H 0.89006 0.74691 0.48221 0.0
C299 C 0.35216 0.80565 0.3785 0.0
C300 C 0.31691 0.79967 0.37542 0.0
C301 C 0.37432 0.83556 0.39719 0.0
C302 C 0.361 0.85981 0.41416 0.0
C303 C 0.32559 0.85441 0.41083 0.0
C304 C 0.304 0.82463 0.39119 0.0
C305 C 0.412 0.84055 0.39972 0.0
C306 C 0.31042 0.87941 0.42901 0.0
C307 C 0.41922 0.90829 0.49458 0.0
C308 C 0.43576 0.9415 0.4783 0.0
C309 C 0.39325 0.88234 0.47468 0.0
C310 C 0.38425 0.8894 0.43721 0.0
C311 C 0.39996 0.92348 0.42107 0.0
C312 C 0.42531 0.94936 0.44202 0.0
C313 C 0.37653 0.84676 0.49331 0.0
C314 C 0.39149 0.93182 0.38105 0.0
H315 H 0.36258 0.78633 0.36731 0.0
H316 H 0.27693 0.82072 0.38857 0.0
H317 H 0.42606 0.86826 0.39087 0.0
H318 H 0.421 0.83693 0.42891 0.0
H319 H 0.4185 0.82112 0.38235 0.0
H320 H 0.28259 0.87257 0.4223 0.0
H321 H 0.31535 0.87803 0.45955 0.0
H322 H 0.32257 0.90764 0.4202 0.0
H323 H 0.42702 0.9023 0.5228 0.0
H324 H 0.43819 0.975 0.42935 0.0
H325 H 0.38418 0.82516 0.48091 0.0
H326 H 0.34852 0.83974 0.48884 0.0
H327 H 0.38363 0.84711 0.52361 0.0
H328 H 0.40072 0.91516 0.36285 0.0
H329 H 0.40328 0.96062 0.3738 0.0
H330 H 0.36363 0.92489 0.37498 0.0
C331 C 0.2154 0.69031 0.73359 0.0
C332 C 0.24151 0.71347 0.71396 0.0
C333 C 0.18448 0.67036 0.71523 0.0
C334 C 0.1791 0.67415 0.67634 0.0
C335 C 0.20429 0.69934 0.65676 0.0
C336 C 0.23525 0.71823 0.67561 0.0
C337 C 0.15857 0.64341 0.73713 0.0
C338 C 0.19946 0.70472 0.61536 0.0
C339 C 0.129 0.59335 0.61908 0.0
C340 C 0.09728 0.59902 0.61171 0.0
C341 C 0.15502 0.61675 0.64132 0.0
C342 C 0.15007 0.64793 0.65532 0.0
C343 C 0.11826 0.65428 0.64775 0.0
C344 C 0.09195 0.62934 0.62654 0.0
C345 C 0.18806 0.60815 0.6494 0.0
C346 C 0.11242 0.68787 0.66108 0.0
H347 H 0.21941 0.68694 0.76328 0.0
H348 H 0.25509 0.73548 0.65973 0.0
H349 H 0.13283 0.6457 0.72983 0.0
H350 H 0.15794 0.61578 0.7301 0.0
H351 H 0.16448 0.64689 0.76751 0.0
H352 H 0.21854 0.72928 0.60536 0.0
H353 H 0.2019 0.68118 0.60092 0.0
H354 H 0.17371 0.70677 0.60741 0.0
H355 H 0.13368 0.57038 0.60756 0.0
H356 H 0.06765 0.63412 0.62066 0.0
H357 H 0.19513 0.60901 0.67968 0.0
H358 H 0.20871 0.6286 0.63596 0.0
H359 H 0.18667 0.58118 0.63926 0.0
H360 H 0.11859 0.6906 0.69143 0.0
H361 H 0.08582 0.68799 0.65462 0.0
H362 H 0.1296 0.71184 0.64773 0.0
C363 C 0.34881 0.24251 0.68686 0.0
C364 C 0.34186 0.26924 0.66344 0.0
C365 C 0.36201 0.21667 0.67321 0.0
C366 C 0.36894 0.21799 0.6354 0.0
C367 C 0.36129 0.24461 0.61161 0.0
C368 C 0.34799 0.26985 0.62593 0.0
C369 C 0.3702 0.18915 0.69965 0.0
C370 C 0.36913 0.24846 0.57149 0.0
C371 C 0.43982 0.18421 0.60708 0.0
C372 C 0.422 0.15071 0.59144 0.0
C373 C 0.42288 0.20581 0.62213 0.0
C374 C 0.38703 0.19389 0.62148 0.0
C375 C 0.36878 0.15998 0.60594 0.0
C376 C 0.3865 0.13867 0.59129 0.0
C377 C 0.44343 0.24181 0.63809 0.0
C378 C 0.33056 0.1462 0.60466 0.0
H379 H 0.34489 0.24251 0.71608 0.0
H380 H 0.34351 0.291 0.60787 0.0
H381 H 0.35841 0.16169 0.6885 0.0
H382 H 0.39805 0.19397 0.7026 0.0
H383 H 0.36126 0.19012 0.72755 0.0
H384 H 0.35035 0.25851 0.55435 0.0
H385 H 0.39446 0.26851 0.5692 0.0
H386 H 0.36955 0.22281 0.55991 0.0
H387 H 0.46727 0.19381 0.60745 0.0
H388 H 0.3725 0.1129 0.57919 0.0
H389 H 0.43635 0.24432 0.66652 0.0
H390 H 0.43782 0.2637 0.62086 0.0
H391 H 0.47117 0.24586 0.63921 0.0
H392 H 0.32269 0.13688 0.63278 0.0
H393 H 0.31995 0.12334 0.58536 0.0
H394 H 0.31928 0.16788 0.59608 0.0
C395 C 0.80541 0.39456 0.69799 0.0
C396 C 0.80717 0.38 0.73388 0.0
C397 C 0.83456 0.41682 0.68256 0.0
C398 C 0.86646 0.42367 0.70296 0.0
C399 C 0.86868 0.4075 0.73837 0.0
C400 C 0.83894 0.3859 0.75346 0.0
C401 C 0.83106 0.43376 0.64479 0.0
C402 C 0.90237 0.41347 0.76047 0.0
C403 C 0.94056 0.46232 0.64358 0.0
C404 C 0.94776 0.49933 0.6493 0.0
C405 C 0.9156 0.43703 0.66277 0.0
C406 C 0.89701 0.44917 0.68765 0.0
C407 C 0.90542 0.48635 0.69497 0.0
C408 C 0.93092 0.51095 0.67598 0.0
C409 C 0.90786 0.39753 0.65484 0.0
C410 C 0.88587 0.50045 0.72087 0.0
H411 H 0.78109 0.38915 0.68214 0.0
H412 H 0.84043 0.37381 0.78076 0.0
H413 H 0.83996 0.46353 0.64696 0.0
H414 H 0.84721 0.42628 0.62561 0.0
H415 H 0.80446 0.42541 0.63243 0.0
H416 H 0.90007 0.39692 0.78634 0.0
H417 H 0.92069 0.40688 0.74353 0.0
H418 H 0.91314 0.44224 0.76795 0.0
H419 H 0.95364 0.45314 0.62317 0.0
H420 H 0.93615 0.5395 0.68047 0.0
H421 H 0.88331 0.38798 0.63799 0.0
H422 H 0.90534 0.3815 0.68101 0.0
H423 H 0.92779 0.39217 0.6394 0.0
H424 H 0.85947 0.49584 0.7087 0.0
H425 H 0.89744 0.5297 0.72601 0.0
H426 H 0.88445 0.48579 0.74783 0.0
C427 C 0.66529 0.80335 0.62098 0.0
C428 C 0.64721 0.77642 0.64498 0.0
C429 C 0.65253 0.83117 0.60747 0.0
C430 C 0.62172 0.83331 0.61963 0.0
C431 C 0.60327 0.80641 0.64376 0.0
C432 C 0.61585 0.77794 0.65549 0.0
C433 C 0.67255 0.85864 0.5808 0.0
C434 C 0.57054 0.80806 0.6578 0.0
C435 C 0.60963 0.92585 0.61811 0.0
C436 C 0.58495 0.92309 0.58853 0.0
C437 C 0.62153 0.89669 0.62871 0.0
C438 C 0.60945 0.86444 0.60831 0.0
C439 C 0.58538 0.8619 0.57761 0.0
C440 C 0.57267 0.89087 0.56883 0.0
C441 C 0.64645 0.90012 0.66226 0.0
C442 C 0.57262 0.82855 0.55422 0.0
H443 H 0.68984 0.80326 0.61307 0.0
H444 H 0.60102 0.75696 0.67309 0.0
H445 H 0.65552 0.8669 0.55944 0.0
H446 H 0.68776 0.88301 0.59625 0.0
H447 H 0.69026 0.84815 0.56665 0.0
H448 H 0.5601 0.78597 0.67785 0.0
H449 H 0.57476 0.83419 0.67151 0.0
H450 H 0.55129 0.80635 0.63423 0.0
H451 H 0.61893 0.95049 0.63382 0.0
H452 H 0.55319 0.88819 0.54639 0.0
H453 H 0.67058 0.89718 0.65402 0.0
H454 H 0.6362 0.87825 0.68258 0.0
H455 H 0.65208 0.92641 0.67615 0.0
H456 H 0.5931 0.81644 0.55081 0.0
H457 H 0.56211 0.83447 0.52631 0.0
H458 H 0.55211 0.80826 0.56801 0.0
C459 C 0.30613 0.2351 0.47519 0.0
C460 C 0.31383 0.26174 0.44748 0.0
C461 C 0.32542 0.21134 0.48184 0.0
C462 C 0.35307 0.21435 0.46014 0.0
C463 C 0.36101 0.24139 0.43221 0.0
C464 C 0.34129 0.26484 0.42627 0.0
C465 C 0.31494 0.18237 0.51121 0.0
C466 C 0.38978 0.24497 0.40801 0.0
C467 C 0.42138 0.17122 0.4927 0.0
C468 C 0.40793 0.13688 0.47738 0.0
C469 C 0.40403 0.19692 0.48735 0.0
C470 C 0.3727 0.18824 0.46545 0.0
C471 C 0.35968 0.15405 0.44877 0.0
C472 C 0.37716 0.12864 0.4554 0.0
C473 C 0.42017 0.23318 0.50502 0.0
C474 C 0.32738 0.14431 0.4236 0.0
H475 H 0.28464 0.23244 0.49135 0.0
H476 H 0.34695 0.28533 0.40463 0.0
H477 H 0.29424 0.15939 0.49911 0.0
H478 H 0.33607 0.17224 0.52236 0.0
H479 H 0.30474 0.19244 0.53452 0.0
H480 H 0.3912 0.26585 0.38594 0.0
H481 H 0.4142 0.25223 0.42527 0.0
H482 H 0.38672 0.21884 0.39482 0.0
H483 H 0.44547 0.17816 0.50914 0.0
H484 H 0.36676 0.10235 0.44293 0.0
H485 H 0.40372 0.25088 0.50267 0.0
H486 H 0.44395 0.24711 0.49173 0.0
H487 H 0.42747 0.2295 0.53479 0.0
H488 H 0.30533 0.14089 0.44021 0.0
H489 H 0.32346 0.1189 0.40856 0.0
H490 H 0.32778 0.16619 0.40296 0.0
C491 C 0.77396 0.36464 0.42 0.0
C492 C 0.76841 0.37045 0.38171 0.0
C493 C 0.8042 0.3838 0.44005 0.0
C494 C 0.82935 0.41048 0.42187 0.0
C495 C 0.82449 0.41592 0.38316 0.0
C496 C 0.7944 0.39557 0.36352 0.0
C497 C 0.80848 0.37662 0.48117 0.0
C498 C 0.85025 0.44462 0.36276 0.0
C499 C 0.87878 0.48871 0.48315 0.0
C500 C 0.91053 0.48298 0.49011 0.0
C501 C 0.85291 0.46615 0.45997 0.0
C502 C 0.85812 0.43587 0.44423 0.0
C503 C 0.89003 0.42957 0.45116 0.0
C504 C 0.91611 0.45358 0.47358 0.0
C505 C 0.81977 0.47467 0.45272 0.0
C506 C 0.89624 0.39698 0.4358 0.0
H507 H 0.75419 0.34598 0.43488 0.0
H508 H 0.79108 0.39989 0.33391 0.0
H509 H 0.83421 0.3745 0.48903 0.0
H510 H 0.80571 0.39938 0.49671 0.0
H511 H 0.78937 0.35152 0.49002 0.0
H512 H 0.84436 0.44328 0.33225 0.0
H513 H 0.8508 0.47156 0.37209 0.0
H514 H 0.87603 0.44214 0.36918 0.0
H515 H 0.87395 0.51112 0.49576 0.0
H516 H 0.94045 0.44877 0.47901 0.0
H517 H 0.79909 0.45329 0.46506 0.0
H518 H 0.81297 0.47541 0.42246 0.0
H519 H 0.82083 0.5009 0.46451 0.0
H520 H 0.87872 0.37219 0.44743 0.0
H521 H 0.92274 0.39659 0.44244 0.0
H522 H 0.89081 0.39616 0.40527 0.0
C523 C 0.65098 0.80027 0.42187 0.0
C524 C 0.65221 0.80052 0.38318 0.0
C525 C 0.63808 0.82434 0.43929 0.0
C526 C 0.62573 0.84927 0.41759 0.0
C527 C 0.6273 0.85005 0.37859 0.0
C528 C 0.64047 0.82572 0.36187 0.0
C529 C 0.6365 0.82205 0.48085 0.0
C530 C 0.61445 0.87618 0.3544 0.0
C531 C 0.5577 0.88124 0.45646 0.0
C532 C 0.57606 0.91573 0.4695 0.0
C533 C 0.57355 0.85959 0.43957 0.0
C534 C 0.60883 0.87253 0.4354 0.0
C535 C 0.62767 0.90725 0.44861 0.0
C536 C 0.61107 0.92847 0.46549 0.0
C537 C 0.55243 0.8227 0.42631 0.0
C538 C 0.66541 0.9218 0.44519 0.0
H539 H 0.65941 0.78059 0.43864 0.0
H540 H 0.6417 0.82653 0.33206 0.0
H541 H 0.64493 0.84928 0.49304 0.0
H542 H 0.60987 0.80904 0.48747 0.0
H543 H 0.65236 0.80605 0.49428 0.0
H544 H 0.61909 0.87478 0.32481 0.0
H545 H 0.58677 0.87032 0.35654 0.0
H546 H 0.62691 0.90409 0.36409 0.0
H547 H 0.53066 0.87091 0.45946 0.0
H548 H 0.62554 0.95492 0.47565 0.0
H549 H 0.56191 0.80181 0.44101 0.0
H550 H 0.55475 0.82034 0.39627 0.0
H551 H 0.52516 0.81687 0.43097 0.0
H552 H 0.67834 0.90399 0.46061 0.0
H553 H 0.67636 0.94951 0.45609 0.0
H554 H 0.67094 0.92201 0.41571 0.0
C555 C 0.20894 0.661 0.39258 0.0
C556 C 0.21112 0.69399 0.37478 0.0
C557 C 0.1792 0.64101 0.40857 0.0
C558 C 0.15071 0.65398 0.40582 0.0
C559 C 0.15272 0.68718 0.38741 0.0
C560 C 0.18317 0.70709 0.37248 0.0
C561 C 0.17839 0.60616 0.42872 0.0
C562 C 0.12265 0.70143 0.38322 0.0
C563 C 0.06875 0.58055 0.4224 0.0
C564 C 0.06538 0.58566 0.45981 0.0
C565 C 0.09516 0.60419 0.4036 0.0
C566 C 0.11924 0.63291 0.42304 0.0
C567 C 0.115 0.63915 0.46031 0.0
C568 C 0.08785 0.61574 0.47807 0.0
C569 C 0.09831 0.59729 0.36353 0.0
C570 C 0.14051 0.66891 0.48232 0.0
H571 H 0.23075 0.65111 0.39436 0.0
H572 H 0.185 0.73257 0.3584 0.0
H573 H 0.17205 0.60729 0.45773 0.0
H574 H 0.15834 0.58344 0.41526 0.0
H575 H 0.203 0.60037 0.42915 0.0
H576 H 0.12806 0.72714 0.36717 0.0
H577 H 0.1006 0.68131 0.369 0.0
H578 H 0.11516 0.70586 0.4109 0.0
H579 H 0.05135 0.55746 0.40813 0.0
H580 H 0.08562 0.61975 0.5071 0.0
H581 H 0.12015 0.5869 0.3615 0.0
H582 H 0.10325 0.62268 0.34704 0.0
H583 H 0.07512 0.57732 0.35102 0.0
H584 H 0.16507 0.66299 0.48634 0.0
H585 H 0.1321 0.67197 0.51001 0.0
H586 H 0.14517 0.69494 0.46706 0.0
C587 C 0.38226 0.81297 0.70419 0.0
C588 C 0.3521 0.81307 0.71881 0.0
C589 C 0.40245 0.84357 0.6862 0.0
C590 C 0.39267 0.87538 0.68352 0.0
C591 C 0.3626 0.87587 0.69906 0.0
C592 C 0.34242 0.84452 0.7161 0.0
C593 C 0.43388 0.84158 0.66932 0.0
C594 C 0.35173 0.90945 0.69755 0.0
C595 C 0.46473 0.9596 0.66299 0.0
C596 C 0.45882 0.96382 0.62463 0.0
C597 C 0.44226 0.93221 0.68293 0.0
C598 C 0.41377 0.90776 0.66386 0.0
C599 C 0.40705 0.91273 0.62533 0.0
C600 C 0.42937 0.94103 0.60632 0.0
C601 C 0.44984 0.92849 0.72413 0.0
C602 C 0.37752 0.88684 0.60366 0.0
H603 H 0.38951 0.78849 0.70587 0.0
H604 H 0.31911 0.8446 0.72749 0.0
H605 H 0.4321 0.84766 0.63916 0.0
H606 H 0.45662 0.86207 0.68184 0.0
H607 H 0.43767 0.81468 0.67333 0.0
H608 H 0.3286 0.90594 0.71248 0.0
H609 H 0.37249 0.93225 0.70991 0.0
H610 H 0.34655 0.91693 0.66829 0.0
H611 H 0.4874 0.97721 0.67728 0.0
H612 H 0.42481 0.9439 0.57661 0.0
H613 H 0.45773 0.904 0.72999 0.0
H614 H 0.42675 0.9253 0.73898 0.0
H615 H 0.4704 0.95207 0.7355 0.0
H616 H 0.38159 0.86004 0.60346 0.0
H617 H 0.37434 0.89595 0.57451 0.0
H618 H 0.35362 0.88334 0.61701 0.0
C619 C 0.22943 0.36799 0.66496 0.0
C620 C 0.23234 0.36316 0.70361 0.0
C621 C 0.20434 0.38176 0.64759 0.0
C622 C 0.18162 0.39123 0.66933 0.0
C623 C 0.18366 0.38528 0.7082 0.0
C624 C 0.20898 0.37139 0.72484 0.0
C625 C 0.20352 0.38802 0.60616 0.0
C626 C 0.1599 0.39488 0.73241 0.0
C627 C 0.14871 0.4679 0.63359 0.0
C628 C 0.11551 0.44989 0.61933 0.0
C629 C 0.17022 0.44908 0.6498 0.0
C630 C 0.15844 0.41108 0.65209 0.0
C631 C 0.12496 0.39255 0.63781 0.0
C632 C 0.10383 0.41219 0.6216 0.0
C633 C 0.20576 0.47003 0.66425 0.0
C634 C 0.1117 0.35201 0.63927 0.0
H635 H 0.24757 0.36222 0.64826 0.0
H636 H 0.21066 0.36724 0.75463 0.0
H637 H 0.17707 0.38107 0.5936 0.0
H638 H 0.21601 0.41694 0.60034 0.0
H639 H 0.21713 0.37214 0.59246 0.0
H640 H 0.16274 0.38568 0.76158 0.0
H641 H 0.16504 0.42451 0.73211 0.0
H642 H 0.13319 0.38275 0.72144 0.0
H643 H 0.15816 0.49702 0.63199 0.0
H644 H 0.07837 0.39803 0.6104 0.0
H645 H 0.22455 0.46201 0.64936 0.0
H646 H 0.2099 0.46377 0.69409 0.0
H647 H 0.21085 0.49958 0.66085 0.0
H648 H 0.12754 0.34054 0.62331 0.0
H649 H 0.0849 0.34162 0.62779 0.0
H650 H 0.11352 0.34226 0.66833 0.0
C651 C 0.6564 0.24351 0.71056 0.0
C652 C 0.6412 0.26943 0.71953 0.0
C653 C 0.63893 0.2143 0.68783 0.0
C654 C 0.60492 0.21002 0.67456 0.0
C655 C 0.58858 0.23459 0.68551 0.0
C656 C 0.60699 0.26419 0.70754 0.0
C657 C 0.6575 0.18909 0.67646 0.0
C658 C 0.55204 0.23044 0.67269 0.0
C659 C 0.57174 0.16359 0.58253 0.0
C660 C 0.5539 0.12871 0.59388 0.0
C661 C 0.589 0.18999 0.6085 0.0
C662 C 0.58748 0.18164 0.64688 0.0
C663 C 0.56957 0.14632 0.65851 0.0
C664 C 0.55337 0.12007 0.6318 0.0
C665 C 0.60861 0.22693 0.59481 0.0
C666 C 0.56657 0.13662 0.6991 0.0
H667 H 0.68247 0.24659 0.72049 0.0
H668 H 0.59491 0.28396 0.71404 0.0
H669 H 0.643 0.16078 0.68261 0.0
H670 H 0.65986 0.19145 0.64609 0.0
H671 H 0.68333 0.19498 0.69071 0.0
H672 H 0.54181 0.24894 0.68724 0.0
H673 H 0.54995 0.23621 0.64249 0.0
H674 H 0.53595 0.20236 0.6773 0.0
H675 H 0.57206 0.17026 0.55318 0.0
H676 H 0.53904 0.09326 0.6406 0.0
H677 H 0.63523 0.23438 0.60698 0.0
H678 H 0.59728 0.24722 0.60386 0.0
H679 H 0.60879 0.22845 0.56412 0.0
H680 H 0.59211 0.14223 0.71384 0.0
H681 H 0.55224 0.10785 0.70359 0.0
H682 H 0.55346 0.15353 0.71187 0.0
C683 C 0.7523 0.64733 0.57846 0.0
C684 C 0.7439 0.65837 0.61171 0.0
C685 C 0.78263 0.63889 0.57675 0.0
C686 C 0.80506 0.64179 0.60899 0.0
C687 C 0.79614 0.6518 0.6429 0.0
C688 C 0.76544 0.65959 0.64395 0.0
C689 C 0.79085 0.62712 0.54044 0.0
C690 C 0.81916 0.65462 0.67795 0.0
C691 C 0.87039 0.59224 0.6084 0.0
C692 C 0.8997 0.62023 0.601 0.0
C693 C 0.83963 0.59904 0.61204 0.0
C694 C 0.83795 0.63458 0.60704 0.0
C695 C 0.86754 0.66301 0.59945 0.0
C696 C 0.89831 0.65553 0.59714 0.0
C697 C 0.80897 0.56817 0.62121 0.0
C698 C 0.867 0.70137 0.59399 0.0
H699 H 0.73527 0.64564 0.55373 0.0
H700 H 0.75852 0.6673 0.66988 0.0
H701 H 0.81657 0.6437 0.53361 0.0
H702 H 0.79106 0.59879 0.54277 0.0
H703 H 0.77216 0.62917 0.51734 0.0
H704 H 0.80766 0.66089 0.70246 0.0
H705 H 0.82522 0.62902 0.68346 0.0
H706 H 0.84346 0.67608 0.67451 0.0
H707 H 0.8716 0.56491 0.61164 0.0
H708 H 0.92098 0.67709 0.59117 0.0
H709 H 0.78898 0.56409 0.59806 0.0
H710 H 0.79814 0.57447 0.64615 0.0
H711 H 0.81513 0.54256 0.6264 0.0
H712 H 0.84283 0.70275 0.57946 0.0
H713 H 0.88833 0.7176 0.578 0.0
H714 H 0.86953 0.71389 0.62151 0.0
C715 C 0.34742 0.40632 0.32983 0.0
C716 C 0.31386 0.40296 0.33704 0.0
C717 C 0.35994 0.41928 0.29557 0.0
C718 C 0.33883 0.43042 0.26806 0.0
C719 C 0.30528 0.42812 0.2753 0.0
C720 C 0.29299 0.41385 0.30942 0.0
C721 C 0.39574 0.42076 0.28871 0.0
C722 C 0.28235 0.44066 0.24699 0.0
C723 C 0.38846 0.49076 0.19442 0.0
C724 C 0.38499 0.46637 0.16586 0.0
C725 C 0.37154 0.48007 0.22686 0.0
C726 C 0.35195 0.44367 0.2315 0.0
C727 C 0.34758 0.41915 0.20231 0.0
C728 C 0.36371 0.43098 0.16956 0.0
C729 C 0.37578 0.50741 0.25671 0.0
C730 C 0.32763 0.37991 0.20651 0.0
H731 H 0.36415 0.39894 0.35109 0.0
H732 H 0.26687 0.41089 0.31415 0.0
H733 H 0.39555 0.40517 0.26365 0.0
H734 H 0.41111 0.44897 0.28347 0.0
H735 H 0.40842 0.40979 0.31248 0.0
H736 H 0.2577 0.43922 0.2578 0.0
H737 H 0.295 0.46885 0.23831 0.0
H738 H 0.27729 0.4239 0.22187 0.0
H739 H 0.40492 0.51808 0.1918 0.0
H740 H 0.36118 0.41191 0.1477 0.0
H741 H 0.39227 0.50195 0.28046 0.0
H742 H 0.35088 0.50541 0.26716 0.0
H743 H 0.3874 0.53538 0.24661 0.0
H744 H 0.34071 0.36721 0.22841 0.0
H745 H 0.32481 0.36488 0.1804 0.0
H746 H 0.30202 0.37711 0.21538 0.0
C747 C 0.37602 0.69068 0.86397 0.0
C748 C 0.36927 0.67225 0.83023 0.0
C749 C 0.39348 0.67908 0.89459 0.0
C750 C 0.40529 0.64899 0.8911 0.0
C751 C 0.39814 0.63013 0.85726 0.0
C752 C 0.38028 0.64198 0.82737 0.0
C753 C 0.40013 0.69961 0.93032 0.0
C754 C 0.41054 0.59819 0.85208 0.0
C755 C 0.4844 0.64175 0.94752 0.0
C756 C 0.47106 0.61306 0.97207 0.0
C757 C 0.46319 0.65456 0.92209 0.0
C758 C 0.42756 0.63886 0.92144 0.0
C759 C 0.41376 0.61146 0.94766 0.0
C760 C 0.43565 0.59868 0.97243 0.0
C761 C 0.47912 0.68347 0.89441 0.0
C762 C 0.37592 0.59445 0.94841 0.0
H763 H 0.36815 0.71447 0.86638 0.0
H764 H 0.37559 0.62804 0.8012 0.0
H765 H 0.39259 0.68079 0.95406 0.0
H766 H 0.42767 0.71376 0.93519 0.0
H767 H 0.38621 0.71983 0.92994 0.0
H768 H 0.40136 0.5853 0.82476 0.0
H769 H 0.43869 0.60689 0.85434 0.0
H770 H 0.40198 0.57776 0.87422 0.0
H771 H 0.51164 0.65318 0.9468 0.0
H772 H 0.42497 0.5766 0.99126 0.0
H773 H 0.468 0.70591 0.89464 0.0
H774 H 0.47372 0.6722 0.86608 0.0
H775 H 0.50706 0.69451 0.90006 0.0
H776 H 0.36285 0.61542 0.94696 0.0
H777 H 0.36912 0.57768 0.97375 0.0
H778 H 0.36619 0.57708 0.92386 0.0
C779 C 0.31285 0.38855 0.83164 0.0
C780 C 0.32743 0.37516 0.80398 0.0
C781 C 0.33291 0.40784 0.86188 0.0
C782 C 0.36838 0.41338 0.86503 0.0
C783 C 0.38313 0.39924 0.83777 0.0
C784 C 0.36266 0.38081 0.80749 0.0
C785 C 0.31627 0.42291 0.89005 0.0
C786 C 0.42083 0.40438 0.84005 0.0
C787 C 0.43089 0.49283 0.91565 0.0
C788 C 0.43985 0.47668 0.94858 0.0
C789 C 0.4064 0.47291 0.88914 0.0
C790 C 0.39063 0.43571 0.89543 0.0
C791 C 0.39852 0.41957 0.92936 0.0
C792 C 0.42286 0.44036 0.95574 0.0
C793 C 0.39827 0.49144 0.85379 0.0
C794 C 0.38268 0.37993 0.93693 0.0
H795 H 0.28569 0.38403 0.8297 0.0
H796 H 0.37459 0.37157 0.78607 0.0
H797 H 0.32215 0.41332 0.91829 0.0
H798 H 0.32656 0.45271 0.88995 0.0
H799 H 0.28827 0.41522 0.88442 0.0
H800 H 0.42799 0.38946 0.8182 0.0
H801 H 0.4349 0.43339 0.83709 0.0
H802 H 0.4292 0.39518 0.86754 0.0
H803 H 0.44361 0.52107 0.91023 0.0
H804 H 0.42981 0.42775 0.98108 0.0
H805 H 0.37078 0.48868 0.85071 0.0
H806 H 0.40407 0.47853 0.82948 0.0
H807 H 0.41285 0.52049 0.85314 0.0
H808 H 0.35469 0.37233 0.93177 0.0
H809 H 0.38897 0.37217 0.96585 0.0
H810 H 0.39189 0.36415 0.91771 0.0
C811 C 0.66304 0.41084 0.80303 0.0
C812 C 0.65445 0.37316 0.80618 0.0
C813 C 0.65019 0.43077 0.82613 0.0
C814 C 0.6278 0.41268 0.85293 0.0
C815 C 0.61901 0.37468 0.8564 0.0
C816 C 0.63244 0.35537 0.833 0.0
C817 C 0.66006 0.4712 0.8213 0.0
C818 C 0.595 0.35439 0.88447 0.0
C819 C 0.61195 0.46778 0.93051 0.0
C820 C 0.58145 0.47368 0.91681 0.0
C821 C 0.62735 0.44783 0.91016 0.0
C822 C 0.61181 0.43339 0.87542 0.0
C823 C 0.58118 0.43951 0.86143 0.0
C824 C 0.5665 0.45959 0.88217 0.0
C825 C 0.6602 0.44215 0.9258 0.0
C826 C 0.56377 0.42476 0.82451 0.0
H827 H 0.67947 0.42486 0.78193 0.0
H828 H 0.6259 0.32636 0.8359 0.0
H829 H 0.6373 0.4794 0.81207 0.0
H830 H 0.67044 0.48445 0.84816 0.0
H831 H 0.67927 0.48137 0.80068 0.0
H832 H 0.59178 0.32506 0.88478 0.0
H833 H 0.60445 0.36504 0.91262 0.0
H834 H 0.56977 0.35837 0.87816 0.0
H835 H 0.62366 0.47851 0.95722 0.0
H836 H 0.54296 0.46396 0.87117 0.0
H837 H 0.68026 0.45346 0.9064 0.0
H838 H 0.65701 0.41292 0.92882 0.0
H839 H 0.66898 0.45494 0.95323 0.0
H840 H 0.58081 0.43588 0.80207 0.0
H841 H 0.53969 0.43132 0.81791 0.0
H842 H 0.55811 0.39508 0.82449 0.0
C843 C 0.68246 0.6741 0.76824 0.0
C844 C 0.65915 0.68678 0.74569 0.0
C845 C 0.67353 0.6558 0.80182 0.0
C846 C 0.6409 0.6511 0.81387 0.0
C847 C 0.61746 0.66434 0.79172 0.0
C848 C 0.62666 0.68147 0.75773 0.0
C849 C 0.69895 0.64136 0.82433 0.0
C850 C 0.58259 0.66046 0.80396 0.0
C851 C 0.59973 0.5806 0.88482 0.0
C852 C 0.60547 0.6012 0.91692 0.0
C853 C 0.613 0.59594 0.85151 0.0
C854 C 0.63129 0.63308 0.85003 0.0
C855 C 0.63805 0.6537 0.8827 0.0
C856 C 0.62549 0.63733 0.9159 0.0
C857 C 0.60629 0.57272 0.81761 0.0
C858 C 0.65672 0.69354 0.88214 0.0
H859 H 0.70785 0.67853 0.75981 0.0
H860 H 0.60808 0.6903 0.74037 0.0
H861 H 0.70566 0.65474 0.85159 0.0
H862 H 0.68765 0.61212 0.82979 0.0
H863 H 0.7226 0.64555 0.81014 0.0
H864 H 0.56784 0.6735 0.78422 0.0
H865 H 0.5681 0.63156 0.80665 0.0
H866 H 0.58483 0.67264 0.83162 0.0
H867 H 0.58434 0.55263 0.88555 0.0
H868 H 0.62967 0.65346 0.94058 0.0
H869 H 0.62991 0.57726 0.80335 0.0
H870 H 0.58758 0.5801 0.79777 0.0
H871 H 0.59613 0.54361 0.82461 0.0
H872 H 0.68125 0.69878 0.86956 0.0
H873 H 0.66174 0.70521 0.91032 0.0
H874 H 0.64143 0.7078 0.86476 0.0
C875 C 0.66163 0.69931 0.25662 0.0
C876 C 0.6434 0.70995 0.28271 0.0
C877 C 0.64497 0.67726 0.2266 0.0
C878 C 0.60908 0.66603 0.22183 0.0
C879 C 0.59053 0.67786 0.24706 0.0
C880 C 0.60781 0.69933 0.27727 0.0
C881 C 0.66577 0.66501 0.20067 0.0
C882 C 0.55225 0.66693 0.2428 0.0
C883 C 0.5627 0.62803 0.12951 0.0
C884 C 0.55061 0.59118 0.13802 0.0
C885 C 0.58238 0.65275 0.15621 0.0
C886 C 0.59078 0.64017 0.19192 0.0
C887 C 0.58019 0.6027 0.19975 0.0
C888 C 0.55989 0.5788 0.17295 0.0
C889 C 0.59267 0.69244 0.14685 0.0
C890 C 0.58927 0.58786 0.23696 0.0
H891 H 0.68911 0.70789 0.25983 0.0
H892 H 0.59324 0.70679 0.29726 0.0
H893 H 0.65976 0.6353 0.20254 0.0
H894 H 0.65925 0.67189 0.17158 0.0
H895 H 0.69348 0.6773 0.20715 0.0
H896 H 0.5417 0.68081 0.26273 0.0
H897 H 0.54347 0.67307 0.21423 0.0
H898 H 0.5417 0.63746 0.24732 0.0
H899 H 0.5552 0.63775 0.10271 0.0
H900 H 0.55064 0.55028 0.17957 0.0
H901 H 0.6203 0.70486 0.15336 0.0
H902 H 0.57942 0.70599 0.16406 0.0
H903 H 0.58637 0.69773 0.11717 0.0
H904 H 0.61696 0.59864 0.24431 0.0
H905 H 0.58191 0.55798 0.23738 0.0
H906 H 0.57622 0.59648 0.25871 0.0
C907 C 0.33249 0.70024 0.21038 0.0
C908 C 0.30408 0.68247 0.22968 0.0
C909 C 0.35037 0.68079 0.19329 0.0
C910 C 0.33981 0.64272 0.19608 0.0
C911 C 0.31091 0.62464 0.21529 0.0
C912 C 0.29337 0.64479 0.2319 0.0
C913 C 0.38107 0.70102 0.17306 0.0
C914 C 0.29909 0.58412 0.21915 0.0
C915 C 0.37341 0.59182 0.12886 0.0
C916 C 0.40123 0.5863 0.15016 0.0
C917 C 0.35284 0.60974 0.14358 0.0
C918 C 0.36013 0.62205 0.18054 0.0
C919 C 0.38762 0.61564 0.20245 0.0
C920 C 0.40794 0.59804 0.18693 0.0
C921 C 0.32378 0.61618 0.11938 0.0
C922 C 0.39592 0.62786 0.24215 0.0
H923 H 0.341 0.7294 0.20911 0.0
H924 H 0.27164 0.6312 0.24731 0.0
H925 H 0.40415 0.69639 0.18727 0.0
H926 H 0.37852 0.6909 0.14441 0.0
H927 H 0.38483 0.73046 0.17169 0.0
H928 H 0.27536 0.57415 0.23366 0.0
H929 H 0.29467 0.57165 0.19143 0.0
H930 H 0.31907 0.57489 0.2349 0.0
H931 H 0.36809 0.58281 0.10043 0.0
H932 H 0.42919 0.59354 0.20371 0.0
H933 H 0.32803 0.64554 0.11557 0.0
H934 H 0.29971 0.60501 0.13299 0.0
H935 H 0.32077 0.60385 0.09165 0.0
H936 H 0.40274 0.65763 0.24311 0.0
H937 H 0.41731 0.61947 0.25587 0.0
H938 H 0.37339 0.61668 0.25832 0.0
C939 C 0.63003 0.37991 0.22631 0.0
C940 C 0.63927 0.40088 0.25838 0.0
C941 C 0.61116 0.38981 0.19583 0.0
C942 C 0.60037 0.42077 0.19788 0.0
C943 C 0.61014 0.44229 0.22998 0.0
C944 C 0.62937 0.43206 0.25971 0.0
C945 C 0.60167 0.36636 0.16201 0.0
C946 C 0.59885 0.47522 0.23374 0.0
C947 C 0.56436 0.46482 0.11508 0.0
C948 C 0.52931 0.45122 0.119 0.0
C949 C 0.58783 0.45374 0.13927 0.0
C950 C 0.57609 0.42889 0.16843 0.0
C951 C 0.54073 0.41391 0.17144 0.0
C952 C 0.5179 0.42497 0.14662 0.0
C953 C 0.62526 0.46982 0.1346 0.0
C954 C 0.52695 0.38764 0.20226 0.0
H955 H 0.6369 0.35534 0.22532 0.0
H956 H 0.6358 0.44792 0.28472 0.0
H957 H 0.57405 0.35198 0.16029 0.0
H958 H 0.60706 0.38309 0.13645 0.0
H959 H 0.61554 0.34609 0.16268 0.0
H960 H 0.61026 0.49027 0.25946 0.0
H961 H 0.60578 0.49364 0.20961 0.0
H962 H 0.57081 0.46704 0.23411 0.0
H963 H 0.57358 0.48501 0.09388 0.0
H964 H 0.49096 0.41409 0.15007 0.0
H965 H 0.63785 0.44845 0.136 0.0
H966 H 0.63718 0.48866 0.15753 0.0
H967 H 0.63014 0.48478 0.10789 0.0
H968 H 0.5375 0.36474 0.20266 0.0
H969 H 0.49881 0.37687 0.19952 0.0
H970 H 0.53484 0.40121 0.22938 0.0
loop_
_geom_bond_atom_site_label_1
_geom_bond_atom_site_label_2
_geom_bond_distance
_geom_bond_site_symmetry_2
_ccdc_geom_bond_type
H0 C7 0.929 . S
H1 C10 0.930 . S
H2 C12 0.929 . S
H3 C4 0.969 . S
C4 H3 0.969 . S
C4 O5 1.550 . S
C4 H6 0.973 . S
O5 C4 1.550 . S
O5 C11 1.412 . S
H6 C4 0.973 . S
C7 H0 0.929 . S
C7 C8 1.400 . S
C7 C9 1.364 . S
C8 C7 1.400 . S
C8 C12 1.377 . S
C9 C7 1.364 . S
C9 C10 1.374 . S
C10 H1 0.930 . S
C10 C9 1.374 . S
C10 C11 1.383 . S
C11 O5 1.412 . S
C11 C10 1.383 . S
C11 C12 1.394 . S
C12 H2 0.929 . S
C12 C8 1.377 . S
C12 C11 1.394 . S
H13 C20 0.929 . S
H14 C23 0.930 . S
H15 C25 0.929 . S
H16 C17 0.969 . S
C17 H16 0.969 . S
C17 O18 1.550 . S
C17 H19 0.973 . S
O18 C17 1.550 . S
O18 C24 1.412 . S
H19 C17 0.973 . S
C20 H13 0.929 . S
C20 C21 1.400 . S
C20 C22 1.364 . S
C21 C20 1.400 . S
C21 C25 1.377 . S
C22 C20 1.364 . S
C22 C23 1.374 . S
C23 H14 0.930 . S
C23 C22 1.374 . S
C23 C24 1.383 . S
C24 O18 1.412 . S
C24 C23 1.383 . S
C24 C25 1.394 . S
C25 H15 0.929 . S
C25 C21 1.377 . S
C25 C24 1.394 . S
H26 C33 0.929 . S
H27 C36 0.930 . S
H28 C38 0.929 . S
H29 C30 0.969 . S
C30 H29 0.969 . S
C30 O31 1.550 . S
C30 H32 0.973 . S
O31 C30 1.550 . S
O31 C37 1.412 . S
H32 C30 0.973 . S
C33 H26 0.929 . S
C33 C34 1.400 . S
C33 C35 1.364 . S
C34 C33 1.400 . S
C34 C38 1.377 . S
C35 C33 1.364 . S
C35 C36 1.374 . S
C36 H27 0.930 . S
C36 C35 1.374 . S
C36 C37 1.383 . S
C37 O31 1.412 . S
C37 C36 1.383 . S
C37 C38 1.394 . S
C38 H28 0.929 . S
C38 C34 1.377 . S
C38 C37 1.394 . S
H39 C46 0.929 . S
H40 C49 0.930 . S
H41 C51 0.929 . S
H42 C43 0.969 . S
C43 H42 0.969 . S
C43 O44 1.550 . S
C43 H45 0.973 . S
O44 C43 1.550 . S
O44 C50 1.412 . S
H45 C43 0.973 . S
C46 H39 0.929 . S
C46 C47 1.400 . S
C46 C48 1.364 . S
C47 C46 1.400 . S
C47 C51 1.377 . S
C48 C46 1.364 . S
C48 C49 1.374 . S
C49 H40 0.930 . S
C49 C48 1.374 . S
C49 C50 1.383 . S
C50 O44 1.412 . S
C50 C49 1.383 . S
C50 C51 1.394 . S
C51 H41 0.929 . S
C51 C47 1.377 . S
C51 C50 1.394 . S
H52 C59 0.929 . S
H53 C62 0.930 . S
H54 C64 0.929 . S
H55 C56 0.969 . S
C56 H55 0.969 . S
C56 O57 1.550 . S
C56 H58 0.973 . S
O57 C56 1.550 . S
O57 C63 1.412 . S
H58 C56 0.973 . S
C59 H52 0.929 . S
C59 C60 1.400 . S
C59 C61 1.364 . S
C60 C59 1.400 . S
C60 C64 1.377 . S
C61 C59 1.364 . S
C61 C62 1.374 . S
C62 H53 0.930 . S
C62 C61 1.374 . S
C62 C63 1.383 . S
C63 O57 1.412 . S
C63 C62 1.383 . S
C63 C64 1.394 . S
C64 H54 0.929 . S
C64 C60 1.377 . S
C64 C63 1.394 . S
H65 C72 0.929 . S
H66 C75 0.930 . S
H67 C77 0.929 . S
H68 C69 0.969 . S
C69 H68 0.969 . S
C69 O70 1.550 . S
C69 H71 0.973 . S
O70 C69 1.550 . S
O70 C76 1.412 . S
H71 C69 0.973 . S
C72 H65 0.929 . S
C72 C73 1.400 . S
C72 C74 1.364 . S
C73 C72 1.400 . S
C73 C77 1.377 . S
C74 C72 1.364 . S
C74 C75 1.374 . S
C75 H66 0.930 . S
C75 C74 1.374 . S
C75 C76 1.383 . S
C76 O70 1.412 . S
C76 C75 1.383 . S
C76 C77 1.394 . S
C77 H67 0.929 . S
C77 C73 1.377 . S
C77 C76 1.394 . S
H78 C85 0.929 . S
H79 C88 0.930 . S
H80 C90 0.929 . S
H81 C82 0.969 . S
C82 H81 0.969 . S
C82 O83 1.550 . S
C82 H84 0.973 . S
O83 C82 1.550 . S
O83 C89 1.412 . S
H84 C82 0.973 . S
C85 H78 0.929 . S
C85 C86 1.400 . S
C85 C87 1.364 . S
C86 C85 1.400 . S
C86 C90 1.377 . S
C87 C85 1.364 . S
C87 C88 1.374 . S
C88 H79 0.930 . S
C88 C87 1.374 . S
C88 C89 1.383 . S
C89 O83 1.412 . S
C89 C88 1.383 . S
C89 C90 1.394 . S
C90 H80 0.929 . S
C90 C86 1.377 . S
C90 C89 1.394 . S
H91 C98 0.929 . S
H92 C101 0.930 . S
H93 C103 0.929 . S
H94 C95 0.969 . S
C95 H94 0.969 . S
C95 O96 1.550 . S
C95 H97 0.973 . S
O96 C95 1.550 . S
O96 C102 1.412 . S
H97 C95 0.973 . S
C98 H91 0.929 . S
C98 C99 1.400 . S
C98 C100 1.364 . S
C99 C98 1.400 . S
C99 C103 1.377 . S
C100 C98 1.364 . S
C100 C101 1.374 . S
C101 H92 0.930 . S
C101 C100 1.374 . S
C101 C102 1.383 . S
C102 O96 1.412 . S
C102 C101 1.383 . S
C102 C103 1.394 . S
C103 H93 0.929 . S
C103 C99 1.377 . S
C103 C102 1.394 . S
Co104 O107 2.042 . S
Co104 O114 2.264 . S
Co104 O133 2.286 . S
Co104 O134 2.069 . S
Co104 O136 2.015 . S
Co105 O107 2.122 . S
Co105 O113 2.073 . S
Co105 O114 2.327 . S
Co105 O115 1.976 . S
Co106 O107 2.087 . S
Co106 O109 2.087 1_455 S
Co106 O116 2.111 . S
Co106 O117 2.143 1_455 S
Co106 O121 2.111 1_455 S
Co106 O135 2.143 . S
O107 Co104 2.042 . S
O107 Co105 2.122 . S
O107 Co106 2.087 . S
O107 H108 0.980 . S
H108 O107 0.980 . S
O109 Co106 2.087 1_655 S
O109 Co110 2.042 . S
O109 Co111 2.122 . S
O109 H112 0.980 1_655 S
Co110 O109 2.042 . S
Co110 O118 2.286 . S
Co110 O119 2.069 . S
Co110 O120 2.015 . S
Co110 O123 2.264 . S
Co111 O109 2.122 . S
Co111 O122 1.976 . S
Co111 O123 2.327 . S
Co111 O124 2.073 . S
H112 O109 0.980 1_455 S
O113 Co105 2.073 . S
O113 C128 1.245 . S
O114 Co104 2.264 . S
O114 Co105 2.327 . S
O114 C128 1.257 . S
O115 Co105 1.976 . S
O115 C127 1.251 . S
O116 Co106 2.111 . S
O116 C127 1.274 . S
O117 Co106 2.143 1_655 S
O117 C130 1.246 . S
O118 Co110 2.286 . S
O118 C129 1.259 . S
O119 Co110 2.069 . S
O119 C129 1.289 . S
O120 Co110 2.015 . S
O120 C130 1.257 . S
O121 Co106 2.111 1_655 S
O121 C131 1.274 . S
O122 Co111 1.976 . S
O122 C131 1.251 . S
O123 Co110 2.264 . S
O123 Co111 2.327 . S
O123 C132 1.257 . S
O124 Co111 2.073 . S
O124 C132 1.245 . S
C125 O133 1.259 . S
C125 O134 1.289 . S
C126 O135 1.246 . S
C126 O136 1.257 . S
C127 O115 1.251 . S
C127 O116 1.274 . S
C128 O113 1.245 . S
C128 O114 1.257 . S
C129 O118 1.259 . S
C129 O119 1.289 . S
C130 O117 1.246 . S
C130 O120 1.257 . S
C131 O121 1.274 . S
C131 O122 1.251 . S
C132 O123 1.257 . S
C132 O124 1.245 . S
O133 Co104 2.286 . S
O133 C125 1.259 . S
O134 Co104 2.069 . S
O134 C125 1.289 . S
O135 Co106 2.143 . S
O135 C126 1.246 . S
O136 Co104 2.015 . S
O136 C126 1.257 . S
Co137 O140 2.042 . S
Co137 O147 2.264 . S
Co137 O166 2.286 . S
Co137 O167 2.069 . S
Co137 O169 2.015 . S
Co138 O140 2.122 . S
Co138 O146 2.073 . S
Co138 O147 2.327 . S
Co138 O148 1.976 . S
Co139 O140 2.087 1_545 S
Co139 O142 2.087 . S
Co139 O149 2.111 1_545 S
Co139 O150 2.143 . S
Co139 O154 2.111 . S
Co139 O168 2.143 1_545 S
O140 Co137 2.042 . S
O140 Co138 2.122 . S
O140 Co139 2.087 1_565 S
O140 H141 0.980 1_565 S
H141 O140 0.980 1_545 S
O142 Co139 2.087 . S
O142 Co143 2.042 . S
O142 Co144 2.122 . S
O142 H145 0.980 . S
Co143 O142 2.042 . S
Co143 O151 2.286 . S
Co143 O152 2.069 . S
Co143 O153 2.015 . S
Co143 O156 2.264 . S
Co144 O142 2.122 . S
Co144 O155 1.976 . S
Co144 O156 2.327 . S
Co144 O157 2.073 . S
H145 O142 0.980 . S
O146 Co138 2.073 . S
O146 C161 1.245 . S
O147 Co137 2.264 . S
O147 Co138 2.327 . S
O147 C161 1.257 . S
O148 Co138 1.976 . S
O148 C160 1.251 . S
O149 Co139 2.111 1_565 S
O149 C160 1.274 . S
O150 Co139 2.143 . S
O150 C163 1.246 . S
O151 Co143 2.286 . S
O151 C162 1.259 . S
O152 Co143 2.069 . S
O152 C162 1.289 . S
O153 Co143 2.015 . S
O153 C163 1.257 . S
O154 Co139 2.111 . S
O154 C164 1.274 . S
O155 Co144 1.976 . S
O155 C164 1.251 . S
O156 Co143 2.264 . S
O156 Co144 2.327 . S
O156 C165 1.257 . S
O157 Co144 2.073 . S
O157 C165 1.245 . S
C158 O166 1.259 . S
C158 O167 1.289 . S
C159 O168 1.246 . S
C159 O169 1.257 . S
C160 O148 1.251 . S
C160 O149 1.274 . S
C161 O146 1.245 . S
C161 O147 1.257 . S
C162 O151 1.259 . S
C162 O152 1.289 . S
C163 O150 1.246 . S
C163 O153 1.257 . S
C164 O154 1.274 . S
C164 O155 1.251 . S
C165 O156 1.257 . S
C165 O157 1.245 . S
O166 Co137 2.286 . S
O166 C158 1.259 . S
O167 Co137 2.069 . S
O167 C158 1.289 . S
O168 Co139 2.143 1_565 S
O168 C159 1.246 . S
O169 Co137 2.015 . S
O169 C159 1.257 . S
Co170 O173 2.042 . S
Co170 O180 2.264 . S
Co170 O199 2.286 . S
Co170 O200 2.069 . S
Co170 O202 2.015 . S
Co171 O173 2.122 . S
Co171 O179 2.073 . S
Co171 O180 2.327 . S
Co171 O181 1.976 . S
Co172 O173 2.087 . S
Co172 O175 2.087 1_554 S
Co172 O182 2.111 . S
Co172 O183 2.143 1_554 S
Co172 O187 2.111 . S
Co172 O201 2.143 . S
O173 Co170 2.042 . S
O173 Co171 2.122 . S
O173 Co172 2.087 . S
O173 H174 0.980 . S
H174 O173 0.980 . S
O175 Co172 2.087 1_556 S
O175 Co176 2.042 . S
O175 Co177 2.122 . S
O175 H178 0.980 . S
Co176 O175 2.042 . S
Co176 O184 2.286 . S
Co176 O185 2.069 . S
Co176 O186 2.015 . S
Co176 O189 2.264 . S
Co177 O175 2.122 . S
Co177 O188 1.976 . S
Co177 O189 2.327 . S
Co177 O190 2.073 . S
H178 O175 0.980 . S
O179 Co171 2.073 . S
O179 C194 1.245 . S
O180 Co170 2.264 . S
O180 Co171 2.327 . S
O180 C194 1.257 . S
O181 Co171 1.976 . S
O181 C193 1.251 . S
O182 Co172 2.111 . S
O182 C193 1.274 . S
O183 Co172 2.143 1_556 S
O183 C196 1.246 . S
O184 Co176 2.286 . S
O184 C195 1.259 . S
O185 Co176 2.069 . S
O185 C195 1.289 . S
O186 Co176 2.015 . S
O186 C196 1.257 . S
O187 Co172 2.111 . S
O187 C197 1.274 1_554 S
O188 Co177 1.976 . S
O188 C197 1.251 . S
O189 Co176 2.264 . S
O189 Co177 2.327 . S
O189 C198 1.257 . S
O190 Co177 2.073 . S
O190 C198 1.245 . S
C191 O199 1.259 . S
C191 O200 1.289 . S
C192 O201 1.246 . S
C192 O202 1.257 . S
C193 O181 1.251 . S
C193 O182 1.274 . S
C194 O179 1.245 . S
C194 O180 1.257 . S
C195 O184 1.259 . S
C195 O185 1.289 . S
C196 O183 1.246 . S
C196 O186 1.257 . S
C197 O187 1.274 1_556 S
C197 O188 1.251 . S
C198 O189 1.257 . S
C198 O190 1.245 . S
O199 Co170 2.286 . S
O199 C191 1.259 . S
O200 Co170 2.069 . S
O200 C191 1.289 . S
O201 Co172 2.143 . S
O201 C192 1.246 . S
O202 Co170 2.015 . S
O202 C192 1.257 . S
C203 C204 1.391 . S
C203 C205 1.394 . S
C203 H219 0.931 . S
C204 C203 1.391 . S
C204 C208 1.376 . S
C205 C203 1.394 . S
C205 C206 1.369 . S
C205 C209 1.531 . S
C206 C205 1.369 . S
C206 C207 1.410 . S
C206 C214 1.503 . S
C207 C206 1.410 . S
C207 C208 1.392 . S
C207 C210 1.511 . S
C208 C204 1.376 . S
C208 C207 1.392 . S
C208 H220 0.929 . S
C209 C205 1.531 . S
C209 H221 0.960 . S
C209 H222 0.962 . S
C209 H223 0.960 . S
C210 C207 1.511 . S
C210 H224 0.961 . S
C210 H225 0.961 . S
C210 H226 0.961 . S
C211 C212 1.370 . S
C211 C213 1.363 . S
C211 H227 0.931 . S
C212 C211 1.370 . S
C212 C216 1.408 . S
C213 C211 1.363 . S
C213 C214 1.370 . S
C213 C217 1.524 . S
C214 C206 1.503 . S
C214 C213 1.370 . S
C214 C215 1.403 . S
C215 C214 1.403 . S
C215 C216 1.404 . S
C215 C218 1.539 . S
C216 C212 1.408 . S
C216 C215 1.404 . S
C216 H228 0.930 . S
C217 C213 1.524 . S
C217 H229 0.956 . S
C217 H230 0.961 . S
C217 H231 0.961 . S
C218 C215 1.539 . S
C218 H232 0.958 . S
C218 H233 0.961 . S
C218 H234 0.960 . S
H219 C203 0.931 . S
H220 C208 0.929 . S
H221 C209 0.960 . S
H222 C209 0.962 . S
H223 C209 0.960 . S
H224 C210 0.961 . S
H225 C210 0.961 . S
H226 C210 0.961 . S
H227 C211 0.931 . S
H228 C216 0.930 . S
H229 C217 0.956 . S
H230 C217 0.961 . S
H231 C217 0.961 . S
H232 C218 0.958 . S
H233 C218 0.961 . S
H234 C218 0.960 . S
C235 C236 1.391 . S
C235 C237 1.394 . S
C235 H251 0.931 . S
C236 C235 1.391 . S
C236 C240 1.376 . S
C237 C235 1.394 . S
C237 C238 1.369 . S
C237 C241 1.531 . S
C238 C237 1.369 . S
C238 C239 1.410 . S
C238 C246 1.503 . S
C239 C238 1.410 . S
C239 C240 1.392 . S
C239 C242 1.511 . S
C240 C236 1.376 . S
C240 C239 1.392 . S
C240 H252 0.929 . S
C241 C237 1.531 . S
C241 H253 0.960 . S
C241 H254 0.962 . S
C241 H255 0.960 . S
C242 C239 1.511 . S
C242 H256 0.961 . S
C242 H257 0.961 . S
C242 H258 0.961 . S
C243 C244 1.370 . S
C243 C245 1.363 . S
C243 H259 0.931 . S
C244 C243 1.370 . S
C244 C248 1.408 . S
C245 C243 1.363 . S
C245 C246 1.370 . S
C245 C249 1.524 . S
C246 C238 1.503 . S
C246 C245 1.370 . S
C246 C247 1.403 . S
C247 C246 1.403 . S
C247 C248 1.404 . S
C247 C250 1.539 . S
C248 C244 1.408 . S
C248 C247 1.404 . S
C248 H260 0.930 . S
C249 C245 1.524 . S
C249 H261 0.956 . S
C249 H262 0.961 . S
C249 H263 0.961 . S
C250 C247 1.539 . S
C250 H264 0.958 . S
C250 H265 0.961 . S
C250 H266 0.960 . S
H251 C235 0.931 . S
H252 C240 0.929 . S
H253 C241 0.960 . S
H254 C241 0.962 . S
H255 C241 0.960 . S
H256 C242 0.961 . S
H257 C242 0.961 . S
H258 C242 0.961 . S
H259 C243 0.931 . S
H260 C248 0.930 . S
H261 C249 0.956 . S
H262 C249 0.961 . S
H263 C249 0.961 . S
H264 C250 0.958 . S
H265 C250 0.961 . S
H266 C250 0.960 . S
C267 C268 1.391 . S
C267 C269 1.394 . S
C267 H283 0.931 . S
C268 C267 1.391 . S
C268 C272 1.376 . S
C269 C267 1.394 . S
C269 C270 1.369 . S
C269 C273 1.531 . S
C270 C269 1.369 . S
C270 C271 1.410 . S
C270 C278 1.503 . S
C271 C270 1.410 . S
C271 C272 1.392 . S
C271 C274 1.511 . S
C272 C268 1.376 . S
C272 C271 1.392 . S
C272 H284 0.929 . S
C273 C269 1.531 . S
C273 H285 0.960 . S
C273 H286 0.962 . S
C273 H287 0.960 . S
C274 C271 1.511 . S
C274 H288 0.961 . S
C274 H289 0.961 . S
C274 H290 0.961 . S
C275 C276 1.370 . S
C275 C277 1.363 . S
C275 H291 0.931 . S
C276 C275 1.370 . S
C276 C280 1.408 . S
C277 C275 1.363 . S
C277 C278 1.370 . S
C277 C281 1.524 . S
C278 C270 1.503 . S
C278 C277 1.370 . S
C278 C279 1.403 . S
C279 C278 1.403 . S
C279 C280 1.404 . S
C279 C282 1.539 . S
C280 C276 1.408 . S
C280 C279 1.404 . S
C280 H292 0.930 . S
C281 C277 1.524 . S
C281 H293 0.956 . S
C281 H294 0.961 . S
C281 H295 0.961 . S
C282 C279 1.539 . S
C282 H296 0.958 . S
C282 H297 0.961 . S
C282 H298 0.960 . S
H283 C267 0.931 . S
H284 C272 0.929 . S
H285 C273 0.960 . S
H286 C273 0.962 . S
H287 C273 0.960 . S
H288 C274 0.961 . S
H289 C274 0.961 . S
H290 C274 0.961 . S
H291 C275 0.931 . S
H292 C280 0.930 . S
H293 C281 0.956 . S
H294 C281 0.961 . S
H295 C281 0.961 . S
H296 C282 0.958 . S
H297 C282 0.961 . S
H298 C282 0.960 . S
C299 C300 1.391 . S
C299 C301 1.394 . S
C299 H315 0.931 . S
C300 C299 1.391 . S
C300 C304 1.376 . S
C301 C299 1.394 . S
C301 C302 1.369 . S
C301 C305 1.531 . S
C302 C301 1.369 . S
C302 C303 1.410 . S
C302 C310 1.503 . S
C303 C302 1.410 . S
C303 C304 1.392 . S
C303 C306 1.511 . S
C304 C300 1.376 . S
C304 C303 1.392 . S
C304 H316 0.929 . S
C305 C301 1.531 . S
C305 H317 0.960 . S
C305 H318 0.962 . S
C305 H319 0.960 . S
C306 C303 1.511 . S
C306 H320 0.961 . S
C306 H321 0.961 . S
C306 H322 0.961 . S
C307 C308 1.370 . S
C307 C309 1.363 . S
C307 H323 0.931 . S
C308 C307 1.370 . S
C308 C312 1.408 . S
C309 C307 1.363 . S
C309 C310 1.370 . S
C309 C313 1.524 . S
C310 C302 1.503 . S
C310 C309 1.370 . S
C310 C311 1.403 . S
C311 C310 1.403 . S
C311 C312 1.404 . S
C311 C314 1.539 . S
C312 C308 1.408 . S
C312 C311 1.404 . S
C312 H324 0.930 . S
C313 C309 1.524 . S
C313 H325 0.956 . S
C313 H326 0.961 . S
C313 H327 0.961 . S
C314 C311 1.539 . S
C314 H328 0.958 . S
C314 H329 0.961 . S
C314 H330 0.960 . S
H315 C299 0.931 . S
H316 C304 0.929 . S
H317 C305 0.960 . S
H318 C305 0.962 . S
H319 C305 0.960 . S
H320 C306 0.961 . S
H321 C306 0.961 . S
H322 C306 0.961 . S
H323 C307 0.931 . S
H324 C312 0.930 . S
H325 C313 0.956 . S
H326 C313 0.961 . S
H327 C313 0.961 . S
H328 C314 0.958 . S
H329 C314 0.961 . S
H330 C314 0.960 . S
C331 C332 1.391 . S
C331 C333 1.394 . S
C331 H347 0.931 . S
C332 C331 1.391 . S
C332 C336 1.376 . S
C333 C331 1.394 . S
C333 C334 1.369 . S
C333 C337 1.531 . S
C334 C333 1.369 . S
C334 C335 1.410 . S
C334 C342 1.503 . S
C335 C334 1.410 . S
C335 C336 1.392 . S
C335 C338 1.511 . S
C336 C332 1.376 . S
C336 C335 1.392 . S
C336 H348 0.929 . S
C337 C333 1.531 . S
C337 H349 0.960 . S
C337 H350 0.962 . S
C337 H351 0.960 . S
C338 C335 1.511 . S
C338 H352 0.961 . S
C338 H353 0.961 . S
C338 H354 0.961 . S
C339 C340 1.370 . S
C339 C341 1.363 . S
C339 H355 0.931 . S
C340 C339 1.370 . S
C340 C344 1.408 . S
C341 C339 1.363 . S
C341 C342 1.370 . S
C341 C345 1.524 . S
C342 C334 1.503 . S
C342 C341 1.370 . S
C342 C343 1.403 . S
C343 C342 1.403 . S
C343 C344 1.404 . S
C343 C346 1.539 . S
C344 C340 1.408 . S
C344 C343 1.404 . S
C344 H356 0.930 . S
C345 C341 1.524 . S
C345 H357 0.956 . S
C345 H358 0.961 . S
C345 H359 0.961 . S
C346 C343 1.539 . S
C346 H360 0.958 . S
C346 H361 0.961 . S
C346 H362 0.960 . S
H347 C331 0.931 . S
H348 C336 0.929 . S
H349 C337 0.960 . S
H350 C337 0.962 . S
H351 C337 0.960 . S
H352 C338 0.961 . S
H353 C338 0.961 . S
H354 C338 0.961 . S
H355 C339 0.931 . S
H356 C344 0.930 . S
H357 C345 0.956 . S
H358 C345 0.961 . S
H359 C345 0.961 . S
H360 C346 0.958 . S
H361 C346 0.961 . S
H362 C346 0.960 . S
C363 C364 1.391 . S
C363 C365 1.394 . S
C363 H379 0.931 . S
C364 C363 1.391 . S
C364 C368 1.376 . S
C365 C363 1.394 . S
C365 C366 1.369 . S
C365 C369 1.531 . S
C366 C365 1.369 . S
C366 C367 1.410 . S
C366 C374 1.503 . S
C367 C366 1.410 . S
C367 C368 1.392 . S
C367 C370 1.511 . S
C368 C364 1.376 . S
C368 C367 1.392 . S
C368 H380 0.929 . S
C369 C365 1.531 . S
C369 H381 0.960 . S
C369 H382 0.962 . S
C369 H383 0.960 . S
C370 C367 1.511 . S
C370 H384 0.961 . S
C370 H385 0.961 . S
C370 H386 0.961 . S
C371 C372 1.370 . S
C371 C373 1.363 . S
C371 H387 0.931 . S
C372 C371 1.370 . S
C372 C376 1.408 . S
C373 C371 1.363 . S
C373 C374 1.370 . S
C373 C377 1.524 . S
C374 C366 1.503 . S
C374 C373 1.370 . S
C374 C375 1.403 . S
C375 C374 1.403 . S
C375 C376 1.404 . S
C375 C378 1.539 . S
C376 C372 1.408 . S
C376 C375 1.404 . S
C376 H388 0.930 . S
C377 C373 1.524 . S
C377 H389 0.956 . S
C377 H390 0.961 . S
C377 H391 0.961 . S
C378 C375 1.539 . S
C378 H392 0.958 . S
C378 H393 0.961 . S
C378 H394 0.960 . S
H379 C363 0.931 . S
H380 C368 0.929 . S
H381 C369 0.960 . S
H382 C369 0.962 . S
H383 C369 0.960 . S
H384 C370 0.961 . S
H385 C370 0.961 . S
H386 C370 0.961 . S
H387 C371 0.931 . S
H388 C376 0.930 . S
H389 C377 0.956 . S
H390 C377 0.961 . S
H391 C377 0.961 . S
H392 C378 0.958 . S
H393 C378 0.961 . S
H394 C378 0.960 . S
C395 C396 1.391 . S
C395 C397 1.394 . S
C395 H411 0.931 . S
C396 C395 1.391 . S
C396 C400 1.376 . S
C397 C395 1.394 . S
C397 C398 1.369 . S
C397 C401 1.531 . S
C398 C397 1.369 . S
C398 C399 1.410 . S
C398 C406 1.503 . S
C399 C398 1.410 . S
C399 C400 1.392 . S
C399 C402 1.511 . S
C400 C396 1.376 . S
C400 C399 1.392 . S
C400 H412 0.929 . S
C401 C397 1.531 . S
C401 H413 0.960 . S
C401 H414 0.962 . S
C401 H415 0.960 . S
C402 C399 1.511 . S
C402 H416 0.961 . S
C402 H417 0.961 . S
C402 H418 0.961 . S
C403 C404 1.370 . S
C403 C405 1.363 . S
C403 H419 0.931 . S
C404 C403 1.370 . S
C404 C408 1.408 . S
C405 C403 1.363 . S
C405 C406 1.370 . S
C405 C409 1.524 . S
C406 C398 1.503 . S
C406 C405 1.370 . S
C406 C407 1.403 . S
C407 C406 1.403 . S
C407 C408 1.404 . S
C407 C410 1.539 . S
C408 C404 1.408 . S
C408 C407 1.404 . S
C408 H420 0.930 . S
C409 C405 1.524 . S
C409 H421 0.956 . S
C409 H422 0.961 . S
C409 H423 0.961 . S
C410 C407 1.539 . S
C410 H424 0.958 . S
C410 H425 0.961 . S
C410 H426 0.960 . S
H411 C395 0.931 . S
H412 C400 0.929 . S
H413 C401 0.960 . S
H414 C401 0.962 . S
H415 C401 0.960 . S
H416 C402 0.961 . S
H417 C402 0.961 . S
H418 C402 0.961 . S
H419 C403 0.931 . S
H420 C408 0.930 . S
H421 C409 0.956 . S
H422 C409 0.961 . S
H423 C409 0.961 . S
H424 C410 0.958 . S
H425 C410 0.961 . S
H426 C410 0.960 . S
C427 C428 1.391 . S
C427 C429 1.394 . S
C427 H443 0.931 . S
C428 C427 1.391 . S
C428 C432 1.376 . S
C429 C427 1.394 . S
C429 C430 1.369 . S
C429 C433 1.531 . S
C430 C429 1.369 . S
C430 C431 1.410 . S
C430 C438 1.503 . S
C431 C430 1.410 . S
C431 C432 1.392 . S
C431 C434 1.511 . S
C432 C428 1.376 . S
C432 C431 1.392 . S
C432 H444 0.929 . S
C433 C429 1.531 . S
C433 H445 0.960 . S
C433 H446 0.962 . S
C433 H447 0.960 . S
C434 C431 1.511 . S
C434 H448 0.961 . S
C434 H449 0.961 . S
C434 H450 0.961 . S
C435 C436 1.370 . S
C435 C437 1.363 . S
C435 H451 0.931 . S
C436 C435 1.370 . S
C436 C440 1.408 . S
C437 C435 1.363 . S
C437 C438 1.370 . S
C437 C441 1.524 . S
C438 C430 1.503 . S
C438 C437 1.370 . S
C438 C439 1.403 . S
C439 C438 1.403 . S
C439 C440 1.404 . S
C439 C442 1.539 . S
C440 C436 1.408 . S
C440 C439 1.404 . S
C440 H452 0.930 . S
C441 C437 1.524 . S
C441 H453 0.956 . S
C441 H454 0.961 . S
C441 H455 0.961 . S
C442 C439 1.539 . S
C442 H456 0.958 . S
C442 H457 0.961 . S
C442 H458 0.960 . S
H443 C427 0.931 . S
H444 C432 0.929 . S
H445 C433 0.960 . S
H446 C433 0.962 . S
H447 C433 0.960 . S
H448 C434 0.961 . S
H449 C434 0.961 . S
H450 C434 0.961 . S
H451 C435 0.931 . S
H452 C440 0.930 . S
H453 C441 0.956 . S
H454 C441 0.961 . S
H455 C441 0.961 . S
H456 C442 0.958 . S
H457 C442 0.961 . S
H458 C442 0.960 . S
C459 C460 1.391 . S
C459 C461 1.394 . S
C459 H475 0.931 . S
C460 C459 1.391 . S
C460 C464 1.376 . S
C461 C459 1.394 . S
C461 C462 1.369 . S
C461 C465 1.531 . S
C462 C461 1.369 . S
C462 C463 1.410 . S
C462 C470 1.503 . S
C463 C462 1.410 . S
C463 C464 1.392 . S
C463 C466 1.511 . S
C464 C460 1.376 . S
C464 C463 1.392 . S
C464 H476 0.929 . S
C465 C461 1.531 . S
C465 H477 0.960 . S
C465 H478 0.962 . S
C465 H479 0.960 . S
C466 C463 1.511 . S
C466 H480 0.961 . S
C466 H481 0.961 . S
C466 H482 0.961 . S
C467 C468 1.370 . S
C467 C469 1.363 . S
C467 H483 0.931 . S
C468 C467 1.370 . S
C468 C472 1.408 . S
C469 C467 1.363 . S
C469 C470 1.370 . S
C469 C473 1.524 . S
C470 C462 1.503 . S
C470 C469 1.370 . S
C470 C471 1.403 . S
C471 C470 1.403 . S
C471 C472 1.404 . S
C471 C474 1.539 . S
C472 C468 1.408 . S
C472 C471 1.404 . S
C472 H484 0.930 . S
C473 C469 1.524 . S
C473 H485 0.956 . S
C473 H486 0.961 . S
C473 H487 0.961 . S
C474 C471 1.539 . S
C474 H488 0.958 . S
C474 H489 0.961 . S
C474 H490 0.960 . S
H475 C459 0.931 . S
H476 C464 0.929 . S
H477 C465 0.960 . S
H478 C465 0.962 . S
H479 C465 0.960 . S
H480 C466 0.961 . S
H481 C466 0.961 . S
H482 C466 0.961 . S
H483 C467 0.931 . S
H484 C472 0.930 . S
H485 C473 0.956 . S
H486 C473 0.961 . S
H487 C473 0.961 . S
H488 C474 0.958 . S
H489 C474 0.961 . S
H490 C474 0.960 . S
C491 C492 1.391 . S
C491 C493 1.394 . S
C491 H507 0.931 . S
C492 C491 1.391 . S
C492 C496 1.376 . S
C493 C491 1.394 . S
C493 C494 1.369 . S
C493 C497 1.531 . S
C494 C493 1.369 . S
C494 C495 1.410 . S
C494 C502 1.503 . S
C495 C494 1.410 . S
C495 C496 1.392 . S
C495 C498 1.511 . S
C496 C492 1.376 . S
C496 C495 1.392 . S
C496 H508 0.929 . S
C497 C493 1.531 . S
C497 H509 0.960 . S
C497 H510 0.962 . S
C497 H511 0.960 . S
C498 C495 1.511 . S
C498 H512 0.961 . S
C498 H513 0.961 . S
C498 H514 0.961 . S
C499 C500 1.370 . S
C499 C501 1.363 . S
C499 H515 0.931 . S
C500 C499 1.370 . S
C500 C504 1.408 . S
C501 C499 1.363 . S
C501 C502 1.370 . S
C501 C505 1.524 . S
C502 C494 1.503 . S
C502 C501 1.370 . S
C502 C503 1.403 . S
C503 C502 1.403 . S
C503 C504 1.404 . S
C503 C506 1.539 . S
C504 C500 1.408 . S
C504 C503 1.404 . S
C504 H516 0.930 . S
C505 C501 1.524 . S
C505 H517 0.956 . S
C505 H518 0.961 . S
C505 H519 0.961 . S
C506 C503 1.539 . S
C506 H520 0.958 . S
C506 H521 0.961 . S
C506 H522 0.960 . S
H507 C491 0.931 . S
H508 C496 0.929 . S
H509 C497 0.960 . S
H510 C497 0.962 . S
H511 C497 0.960 . S
H512 C498 0.961 . S
H513 C498 0.961 . S
H514 C498 0.961 . S
H515 C499 0.931 . S
H516 C504 0.930 . S
H517 C505 0.956 . S
H518 C505 0.961 . S
H519 C505 0.961 . S
H520 C506 0.958 . S
H521 C506 0.961 . S
H522 C506 0.960 . S
C523 C524 1.391 . S
C523 C525 1.394 . S
C523 H539 0.931 . S
C524 C523 1.391 . S
C524 C528 1.376 . S
C525 C523 1.394 . S
C525 C526 1.369 . S
C525 C529 1.531 . S
C526 C525 1.369 . S
C526 C527 1.410 . S
C526 C534 1.503 . S
C527 C526 1.410 . S
C527 C528 1.392 . S
C527 C530 1.511 . S
C528 C524 1.376 . S
C528 C527 1.392 . S
C528 H540 0.929 . S
C529 C525 1.531 . S
C529 H541 0.960 . S
C529 H542 0.962 . S
C529 H543 0.960 . S
C530 C527 1.511 . S
C530 H544 0.961 . S
C530 H545 0.961 . S
C530 H546 0.961 . S
C531 C532 1.370 . S
C531 C533 1.363 . S
C531 H547 0.931 . S
C532 C531 1.370 . S
C532 C536 1.408 . S
C533 C531 1.363 . S
C533 C534 1.370 . S
C533 C537 1.524 . S
C534 C526 1.503 . S
C534 C533 1.370 . S
C534 C535 1.403 . S
C535 C534 1.403 . S
C535 C536 1.404 . S
C535 C538 1.539 . S
C536 C532 1.408 . S
C536 C535 1.404 . S
C536 H548 0.930 . S
C537 C533 1.524 . S
C537 H549 0.956 . S
C537 H550 0.961 . S
C537 H551 0.961 . S
C538 C535 1.539 . S
C538 H552 0.958 . S
C538 H553 0.961 . S
C538 H554 0.960 . S
H539 C523 0.931 . S
H540 C528 0.929 . S
H541 C529 0.960 . S
H542 C529 0.962 . S
H543 C529 0.960 . S
H544 C530 0.961 . S
H545 C530 0.961 . S
H546 C530 0.961 . S
H547 C531 0.931 . S
H548 C536 0.930 . S
H549 C537 0.956 . S
H550 C537 0.961 . S
H551 C537 0.961 . S
H552 C538 0.958 . S
H553 C538 0.961 . S
H554 C538 0.960 . S
C555 C556 1.391 . S
C555 C557 1.394 . S
C555 H571 0.931 . S
C556 C555 1.391 . S
C556 C560 1.376 . S
C557 C555 1.394 . S
C557 C558 1.369 . S
C557 C561 1.531 . S
C558 C557 1.369 . S
C558 C559 1.410 . S
C558 C566 1.503 . S
C559 C558 1.410 . S
C559 C560 1.392 . S
C559 C562 1.511 . S
C560 C556 1.376 . S
C560 C559 1.392 . S
C560 H572 0.929 . S
C561 C557 1.531 . S
C561 H573 0.960 . S
C561 H574 0.962 . S
C561 H575 0.960 . S
C562 C559 1.511 . S
C562 H576 0.961 . S
C562 H577 0.961 . S
C562 H578 0.961 . S
C563 C564 1.370 . S
C563 C565 1.363 . S
C563 H579 0.931 . S
C564 C563 1.370 . S
C564 C568 1.408 . S
C565 C563 1.363 . S
C565 C566 1.370 . S
C565 C569 1.524 . S
C566 C558 1.503 . S
C566 C565 1.370 . S
C566 C567 1.403 . S
C567 C566 1.403 . S
C567 C568 1.404 . S
C567 C570 1.539 . S
C568 C564 1.408 . S
C568 C567 1.404 . S
C568 H580 0.930 . S
C569 C565 1.524 . S
C569 H581 0.956 . S
C569 H582 0.961 . S
C569 H583 0.961 . S
C570 C567 1.539 . S
C570 H584 0.958 . S
C570 H585 0.961 . S
C570 H586 0.960 . S
H571 C555 0.931 . S
H572 C560 0.929 . S
H573 C561 0.960 . S
H574 C561 0.962 . S
H575 C561 0.960 . S
H576 C562 0.961 . S
H577 C562 0.961 . S
H578 C562 0.961 . S
H579 C563 0.931 . S
H580 C568 0.930 . S
H581 C569 0.956 . S
H582 C569 0.961 . S
H583 C569 0.961 . S
H584 C570 0.958 . S
H585 C570 0.961 . S
H586 C570 0.960 . S
C587 C588 1.391 . S
C587 C589 1.394 . S
C587 H603 0.931 . S
C588 C587 1.391 . S
C588 C592 1.376 . S
C589 C587 1.394 . S
C589 C590 1.369 . S
C589 C593 1.531 . S
C590 C589 1.369 . S
C590 C591 1.410 . S
C590 C598 1.503 . S
C591 C590 1.410 . S
C591 C592 1.392 . S
C591 C594 1.511 . S
C592 C588 1.376 . S
C592 C591 1.392 . S
C592 H604 0.929 . S
C593 C589 1.531 . S
C593 H605 0.960 . S
C593 H606 0.962 . S
C593 H607 0.960 . S
C594 C591 1.511 . S
C594 H608 0.961 . S
C594 H609 0.961 . S
C594 H610 0.961 . S
C595 C596 1.370 . S
C595 C597 1.363 . S
C595 H611 0.931 . S
C596 C595 1.370 . S
C596 C600 1.408 . S
C597 C595 1.363 . S
C597 C598 1.370 . S
C597 C601 1.524 . S
C598 C590 1.503 . S
C598 C597 1.370 . S
C598 C599 1.403 . S
C599 C598 1.403 . S
C599 C600 1.404 . S
C599 C602 1.539 . S
C600 C596 1.408 . S
C600 C599 1.404 . S
C600 H612 0.930 . S
C601 C597 1.524 . S
C601 H613 0.956 . S
C601 H614 0.961 . S
C601 H615 0.961 . S
C602 C599 1.539 . S
C602 H616 0.958 . S
C602 H617 0.961 . S
C602 H618 0.960 . S
H603 C587 0.931 . S
H604 C592 0.929 . S
H605 C593 0.960 . S
H606 C593 0.962 . S
H607 C593 0.960 . S
H608 C594 0.961 . S
H609 C594 0.961 . S
H610 C594 0.961 . S
H611 C595 0.931 . S
H612 C600 0.930 . S
H613 C601 0.956 . S
H614 C601 0.961 . S
H615 C601 0.961 . S
H616 C602 0.958 . S
H617 C602 0.961 . S
H618 C602 0.960 . S
C619 C620 1.391 . S
C619 C621 1.394 . S
C619 H635 0.931 . S
C620 C619 1.391 . S
C620 C624 1.376 . S
C621 C619 1.394 . S
C621 C622 1.369 . S
C621 C625 1.531 . S
C622 C621 1.369 . S
C622 C623 1.410 . S
C622 C630 1.503 . S
C623 C622 1.410 . S
C623 C624 1.392 . S
C623 C626 1.511 . S
C624 C620 1.376 . S
C624 C623 1.392 . S
C624 H636 0.929 . S
C625 C621 1.531 . S
C625 H637 0.960 . S
C625 H638 0.962 . S
C625 H639 0.960 . S
C626 C623 1.511 . S
C626 H640 0.961 . S
C626 H641 0.961 . S
C626 H642 0.961 . S
C627 C628 1.370 . S
C627 C629 1.363 . S
C627 H643 0.931 . S
C628 C627 1.370 . S
C628 C632 1.408 . S
C629 C627 1.363 . S
C629 C630 1.370 . S
C629 C633 1.524 . S
C630 C622 1.503 . S
C630 C629 1.370 . S
C630 C631 1.403 . S
C631 C630 1.403 . S
C631 C632 1.404 . S
C631 C634 1.539 . S
C632 C628 1.408 . S
C632 C631 1.404 . S
C632 H644 0.930 . S
C633 C629 1.524 . S
C633 H645 0.956 . S
C633 H646 0.961 . S
C633 H647 0.961 . S
C634 C631 1.539 . S
C634 H648 0.958 . S
C634 H649 0.961 . S
C634 H650 0.960 . S
H635 C619 0.931 . S
H636 C624 0.929 . S
H637 C625 0.960 . S
H638 C625 0.962 . S
H639 C625 0.960 . S
H640 C626 0.961 . S
H641 C626 0.961 . S
H642 C626 0.961 . S
H643 C627 0.931 . S
H644 C632 0.930 . S
H645 C633 0.956 . S
H646 C633 0.961 . S
H647 C633 0.961 . S
H648 C634 0.958 . S
H649 C634 0.961 . S
H650 C634 0.960 . S
C651 C652 1.391 . S
C651 C653 1.394 . S
C651 H667 0.931 . S
C652 C651 1.391 . S
C652 C656 1.376 . S
C653 C651 1.394 . S
C653 C654 1.369 . S
C653 C657 1.531 . S
C654 C653 1.369 . S
C654 C655 1.410 . S
C654 C662 1.503 . S
C655 C654 1.410 . S
C655 C656 1.392 . S
C655 C658 1.511 . S
C656 C652 1.376 . S
C656 C655 1.392 . S
C656 H668 0.929 . S
C657 C653 1.531 . S
C657 H669 0.960 . S
C657 H670 0.962 . S
C657 H671 0.960 . S
C658 C655 1.511 . S
C658 H672 0.961 . S
C658 H673 0.961 . S
C658 H674 0.961 . S
C659 C660 1.370 . S
C659 C661 1.363 . S
C659 H675 0.931 . S
C660 C659 1.370 . S
C660 C664 1.408 . S
C661 C659 1.363 . S
C661 C662 1.370 . S
C661 C665 1.524 . S
C662 C654 1.503 . S
C662 C661 1.370 . S
C662 C663 1.403 . S
C663 C662 1.403 . S
C663 C664 1.404 . S
C663 C666 1.539 . S
C664 C660 1.408 . S
C664 C663 1.404 . S
C664 H676 0.930 . S
C665 C661 1.524 . S
C665 H677 0.956 . S
C665 H678 0.961 . S
C665 H679 0.961 . S
C666 C663 1.539 . S
C666 H680 0.958 . S
C666 H681 0.961 . S
C666 H682 0.960 . S
H667 C651 0.931 . S
H668 C656 0.929 . S
H669 C657 0.960 . S
H670 C657 0.962 . S
H671 C657 0.960 . S
H672 C658 0.961 . S
H673 C658 0.961 . S
H674 C658 0.961 . S
H675 C659 0.931 . S
H676 C664 0.930 . S
H677 C665 0.956 . S
H678 C665 0.961 . S
H679 C665 0.961 . S
H680 C666 0.958 . S
H681 C666 0.961 . S
H682 C666 0.960 . S
C683 C684 1.391 . S
C683 C685 1.394 . S
C683 H699 0.931 . S
C684 C683 1.391 . S
C684 C688 1.376 . S
C685 C683 1.394 . S
C685 C686 1.369 . S
C685 C689 1.531 . S
C686 C685 1.369 . S
C686 C687 1.410 . S
C686 C694 1.503 . S
C687 C686 1.410 . S
C687 C688 1.392 . S
C687 C690 1.511 . S
C688 C684 1.376 . S
C688 C687 1.392 . S
C688 H700 0.929 . S
C689 C685 1.531 . S
C689 H701 0.960 . S
C689 H702 0.962 . S
C689 H703 0.960 . S
C690 C687 1.511 . S
C690 H704 0.961 . S
C690 H705 0.961 . S
C690 H706 0.961 . S
C691 C692 1.370 . S
C691 C693 1.363 . S
C691 H707 0.931 . S
C692 C691 1.370 . S
C692 C696 1.408 . S
C693 C691 1.363 . S
C693 C694 1.370 . S
C693 C697 1.524 . S
C694 C686 1.503 . S
C694 C693 1.370 . S
C694 C695 1.403 . S
C695 C694 1.403 . S
C695 C696 1.404 . S
C695 C698 1.539 . S
C696 C692 1.408 . S
C696 C695 1.404 . S
C696 H708 0.930 . S
C697 C693 1.524 . S
C697 H709 0.956 . S
C697 H710 0.961 . S
C697 H711 0.961 . S
C698 C695 1.539 . S
C698 H712 0.958 . S
C698 H713 0.961 . S
C698 H714 0.960 . S
H699 C683 0.931 . S
H700 C688 0.929 . S
H701 C689 0.960 . S
H702 C689 0.962 . S
H703 C689 0.960 . S
H704 C690 0.961 . S
H705 C690 0.961 . S
H706 C690 0.961 . S
H707 C691 0.931 . S
H708 C696 0.930 . S
H709 C697 0.956 . S
H710 C697 0.961 . S
H711 C697 0.961 . S
H712 C698 0.958 . S
H713 C698 0.961 . S
H714 C698 0.960 . S
C715 C716 1.391 . S
C715 C717 1.394 . S
C715 H731 0.931 . S
C716 C715 1.391 . S
C716 C720 1.376 . S
C717 C715 1.394 . S
C717 C718 1.369 . S
C717 C721 1.531 . S
C718 C717 1.369 . S
C718 C719 1.410 . S
C718 C726 1.503 . S
C719 C718 1.410 . S
C719 C720 1.392 . S
C719 C722 1.511 . S
C720 C716 1.376 . S
C720 C719 1.392 . S
C720 H732 0.929 . S
C721 C717 1.531 . S
C721 H733 0.960 . S
C721 H734 0.962 . S
C721 H735 0.960 . S
C722 C719 1.511 . S
C722 H736 0.961 . S
C722 H737 0.961 . S
C722 H738 0.961 . S
C723 C724 1.370 . S
C723 C725 1.363 . S
C723 H739 0.931 . S
C724 C723 1.370 . S
C724 C728 1.408 . S
C725 C723 1.363 . S
C725 C726 1.370 . S
C725 C729 1.524 . S
C726 C718 1.503 . S
C726 C725 1.370 . S
C726 C727 1.403 . S
C727 C726 1.403 . S
C727 C728 1.404 . S
C727 C730 1.539 . S
C728 C724 1.408 . S
C728 C727 1.404 . S
C728 H740 0.930 . S
C729 C725 1.524 . S
C729 H741 0.956 . S
C729 H742 0.961 . S
C729 H743 0.961 . S
C730 C727 1.539 . S
C730 H744 0.958 . S
C730 H745 0.961 . S
C730 H746 0.960 . S
H731 C715 0.931 . S
H732 C720 0.929 . S
H733 C721 0.960 . S
H734 C721 0.962 . S
H735 C721 0.960 . S
H736 C722 0.961 . S
H737 C722 0.961 . S
H738 C722 0.961 . S
H739 C723 0.931 . S
H740 C728 0.930 . S
H741 C729 0.956 . S
H742 C729 0.961 . S
H743 C729 0.961 . S
H744 C730 0.958 . S
H745 C730 0.961 . S
H746 C730 0.960 . S
C747 C748 1.391 . S
C747 C749 1.394 . S
C747 H763 0.931 . S
C748 C747 1.391 . S
C748 C752 1.376 . S
C749 C747 1.394 . S
C749 C750 1.369 . S
C749 C753 1.531 . S
C750 C749 1.369 . S
C750 C751 1.410 . S
C750 C758 1.503 . S
C751 C750 1.410 . S
C751 C752 1.392 . S
C751 C754 1.511 . S
C752 C748 1.376 . S
C752 C751 1.392 . S
C752 H764 0.929 . S
C753 C749 1.531 . S
C753 H765 0.960 . S
C753 H766 0.962 . S
C753 H767 0.960 . S
C754 C751 1.511 . S
C754 H768 0.961 . S
C754 H769 0.961 . S
C754 H770 0.961 . S
C755 C756 1.370 . S
C755 C757 1.363 . S
C755 H771 0.931 . S
C756 C755 1.370 . S
C756 C760 1.408 . S
C757 C755 1.363 . S
C757 C758 1.370 . S
C757 C761 1.524 . S
C758 C750 1.503 . S
C758 C757 1.370 . S
C758 C759 1.403 . S
C759 C758 1.403 . S
C759 C760 1.404 . S
C759 C762 1.539 . S
C760 C756 1.408 . S
C760 C759 1.404 . S
C760 H772 0.930 . S
C761 C757 1.524 . S
C761 H773 0.956 . S
C761 H774 0.961 . S
C761 H775 0.961 . S
C762 C759 1.539 . S
C762 H776 0.958 . S
C762 H777 0.961 . S
C762 H778 0.960 . S
H763 C747 0.931 . S
H764 C752 0.929 . S
H765 C753 0.960 . S
H766 C753 0.962 . S
H767 C753 0.960 . S
H768 C754 0.961 . S
H769 C754 0.961 . S
H770 C754 0.961 . S
H771 C755 0.931 . S
H772 C760 0.930 . S
H773 C761 0.956 . S
H774 C761 0.961 . S
H775 C761 0.961 . S
H776 C762 0.958 . S
H777 C762 0.961 . S
H778 C762 0.960 . S
C779 C780 1.391 . S
C779 C781 1.394 . S
C779 H795 0.931 . S
C780 C779 1.391 . S
C780 C784 1.376 . S
C781 C779 1.394 . S
C781 C782 1.369 . S
C781 C785 1.531 . S
C782 C781 1.369 . S
C782 C783 1.410 . S
C782 C790 1.503 . S
C783 C782 1.410 . S
C783 C784 1.392 . S
C783 C786 1.511 . S
C784 C780 1.376 . S
C784 C783 1.392 . S
C784 H796 0.929 . S
C785 C781 1.531 . S
C785 H797 0.960 . S
C785 H798 0.962 . S
C785 H799 0.960 . S
C786 C783 1.511 . S
C786 H800 0.961 . S
C786 H801 0.961 . S
C786 H802 0.961 . S
C787 C788 1.370 . S
C787 C789 1.363 . S
C787 H803 0.931 . S
C788 C787 1.370 . S
C788 C792 1.408 . S
C789 C787 1.363 . S
C789 C790 1.370 . S
C789 C793 1.524 . S
C790 C782 1.503 . S
C790 C789 1.370 . S
C790 C791 1.403 . S
C791 C790 1.403 . S
C791 C792 1.404 . S
C791 C794 1.539 . S
C792 C788 1.408 . S
C792 C791 1.404 . S
C792 H804 0.930 . S
C793 C789 1.524 . S
C793 H805 0.956 . S
C793 H806 0.961 . S
C793 H807 0.961 . S
C794 C791 1.539 . S
C794 H808 0.958 . S
C794 H809 0.961 . S
C794 H810 0.960 . S
H795 C779 0.931 . S
H796 C784 0.929 . S
H797 C785 0.960 . S
H798 C785 0.962 . S
H799 C785 0.960 . S
H800 C786 0.961 . S
H801 C786 0.961 . S
H802 C786 0.961 . S
H803 C787 0.931 . S
H804 C792 0.930 . S
H805 C793 0.956 . S
H806 C793 0.961 . S
H807 C793 0.961 . S
H808 C794 0.958 . S
H809 C794 0.961 . S
H810 C794 0.960 . S
C811 C812 1.391 . S
C811 C813 1.394 . S
C811 H827 0.931 . S
C812 C811 1.391 . S
C812 C816 1.376 . S
C813 C811 1.394 . S
C813 C814 1.369 . S
C813 C817 1.531 . S
C814 C813 1.369 . S
C814 C815 1.410 . S
C814 C822 1.503 . S
C815 C814 1.410 . S
C815 C816 1.392 . S
C815 C818 1.511 . S
C816 C812 1.376 . S
C816 C815 1.392 . S
C816 H828 0.929 . S
C817 C813 1.531 . S
C817 H829 0.960 . S
C817 H830 0.962 . S
C817 H831 0.960 . S
C818 C815 1.511 . S
C818 H832 0.961 . S
C818 H833 0.961 . S
C818 H834 0.961 . S
C819 C820 1.370 . S
C819 C821 1.363 . S
C819 H835 0.931 . S
C820 C819 1.370 . S
C820 C824 1.408 . S
C821 C819 1.363 . S
C821 C822 1.370 . S
C821 C825 1.524 . S
C822 C814 1.503 . S
C822 C821 1.370 . S
C822 C823 1.403 . S
C823 C822 1.403 . S
C823 C824 1.404 . S
C823 C826 1.539 . S
C824 C820 1.408 . S
C824 C823 1.404 . S
C824 H836 0.930 . S
C825 C821 1.524 . S
C825 H837 0.956 . S
C825 H838 0.961 . S
C825 H839 0.961 . S
C826 C823 1.539 . S
C826 H840 0.958 . S
C826 H841 0.961 . S
C826 H842 0.960 . S
H827 C811 0.931 . S
H828 C816 0.929 . S
H829 C817 0.960 . S
H830 C817 0.962 . S
H831 C817 0.960 . S
H832 C818 0.961 . S
H833 C818 0.961 . S
H834 C818 0.961 . S
H835 C819 0.931 . S
H836 C824 0.930 . S
H837 C825 0.956 . S
H838 C825 0.961 . S
H839 C825 0.961 . S
H840 C826 0.958 . S
H841 C826 0.961 . S
H842 C826 0.960 . S
C843 C844 1.391 . S
C843 C845 1.394 . S
C843 H859 0.931 . S
C844 C843 1.391 . S
C844 C848 1.376 . S
C845 C843 1.394 . S
C845 C846 1.369 . S
C845 C849 1.531 . S
C846 C845 1.369 . S
C846 C847 1.410 . S
C846 C854 1.503 . S
C847 C846 1.410 . S
C847 C848 1.392 . S
C847 C850 1.511 . S
C848 C844 1.376 . S
C848 C847 1.392 . S
C848 H860 0.929 . S
C849 C845 1.531 . S
C849 H861 0.960 . S
C849 H862 0.962 . S
C849 H863 0.960 . S
C850 C847 1.511 . S
C850 H864 0.961 . S
C850 H865 0.961 . S
C850 H866 0.961 . S
C851 C852 1.370 . S
C851 C853 1.363 . S
C851 H867 0.931 . S
C852 C851 1.370 . S
C852 C856 1.408 . S
C853 C851 1.363 . S
C853 C854 1.370 . S
C853 C857 1.524 . S
C854 C846 1.503 . S
C854 C853 1.370 . S
C854 C855 1.403 . S
C855 C854 1.403 . S
C855 C856 1.404 . S
C855 C858 1.539 . S
C856 C852 1.408 . S
C856 C855 1.404 . S
C856 H868 0.930 . S
C857 C853 1.524 . S
C857 H869 0.956 . S
C857 H870 0.961 . S
C857 H871 0.961 . S
C858 C855 1.539 . S
C858 H872 0.958 . S
C858 H873 0.961 . S
C858 H874 0.960 . S
H859 C843 0.931 . S
H860 C848 0.929 . S
H861 C849 0.960 . S
H862 C849 0.962 . S
H863 C849 0.960 . S
H864 C850 0.961 . S
H865 C850 0.961 . S
H866 C850 0.961 . S
H867 C851 0.931 . S
H868 C856 0.930 . S
H869 C857 0.956 . S
H870 C857 0.961 . S
H871 C857 0.961 . S
H872 C858 0.958 . S
H873 C858 0.961 . S
H874 C858 0.960 . S
C875 C876 1.391 . S
C875 C877 1.394 . S
C875 H891 0.931 . S
C876 C875 1.391 . S
C876 C880 1.376 . S
C877 C875 1.394 . S
C877 C878 1.369 . S
C877 C881 1.531 . S
C878 C877 1.369 . S
C878 C879 1.410 . S
C878 C886 1.503 . S
C879 C878 1.410 . S
C879 C880 1.392 . S
C879 C882 1.511 . S
C880 C876 1.376 . S
C880 C879 1.392 . S
C880 H892 0.929 . S
C881 C877 1.531 . S
C881 H893 0.960 . S
C881 H894 0.962 . S
C881 H895 0.960 . S
C882 C879 1.511 . S
C882 H896 0.961 . S
C882 H897 0.961 . S
C882 H898 0.961 . S
C883 C884 1.370 . S
C883 C885 1.363 . S
C883 H899 0.931 . S
C884 C883 1.370 . S
C884 C888 1.408 . S
C885 C883 1.363 . S
C885 C886 1.370 . S
C885 C889 1.524 . S
C886 C878 1.503 . S
C886 C885 1.370 . S
C886 C887 1.403 . S
C887 C886 1.403 . S
C887 C888 1.404 . S
C887 C890 1.539 . S
C888 C884 1.408 . S
C888 C887 1.404 . S
C888 H900 0.930 . S
C889 C885 1.524 . S
C889 H901 0.956 . S
C889 H902 0.961 . S
C889 H903 0.961 . S
C890 C887 1.539 . S
C890 H904 0.958 . S
C890 H905 0.961 . S
C890 H906 0.960 . S
H891 C875 0.931 . S
H892 C880 0.929 . S
H893 C881 0.960 . S
H894 C881 0.962 . S
H895 C881 0.960 . S
H896 C882 0.961 . S
H897 C882 0.961 . S
H898 C882 0.961 . S
H899 C883 0.931 . S
H900 C888 0.930 . S
H901 C889 0.956 . S
H902 C889 0.961 . S
H903 C889 0.961 . S
H904 C890 0.958 . S
H905 C890 0.961 . S
H906 C890 0.960 . S
C907 C908 1.391 . S
C907 C909 1.394 . S
C907 H923 0.931 . S
C908 C907 1.391 . S
C908 C912 1.376 . S
C909 C907 1.394 . S
C909 C910 1.369 . S
C909 C913 1.531 . S
C910 C909 1.369 . S
C910 C911 1.410 . S
C910 C918 1.503 . S
C911 C910 1.410 . S
C911 C912 1.392 . S
C911 C914 1.511 . S
C912 C908 1.376 . S
C912 C911 1.392 . S
C912 H924 0.929 . S
C913 C909 1.531 . S
C913 H925 0.960 . S
C913 H926 0.962 . S
C913 H927 0.960 . S
C914 C911 1.511 . S
C914 H928 0.961 . S
C914 H929 0.961 . S
C914 H930 0.961 . S
C915 C916 1.370 . S
C915 C917 1.363 . S
C915 H931 0.931 . S
C916 C915 1.370 . S
C916 C920 1.408 . S
C917 C915 1.363 . S
C917 C918 1.370 . S
C917 C921 1.524 . S
C918 C910 1.503 . S
C918 C917 1.370 . S
C918 C919 1.403 . S
C919 C918 1.403 . S
C919 C920 1.404 . S
C919 C922 1.539 . S
C920 C916 1.408 . S
C920 C919 1.404 . S
C920 H932 0.930 . S
C921 C917 1.524 . S
C921 H933 0.956 . S
C921 H934 0.961 . S
C921 H935 0.961 . S
C922 C919 1.539 . S
C922 H936 0.958 . S
C922 H937 0.961 . S
C922 H938 0.960 . S
H923 C907 0.931 . S
H924 C912 0.929 . S
H925 C913 0.960 . S
H926 C913 0.962 . S
H927 C913 0.960 . S
H928 C914 0.961 . S
H929 C914 0.961 . S
H930 C914 0.961 . S
H931 C915 0.931 . S
H932 C920 0.930 . S
H933 C921 0.956 . S
H934 C921 0.961 . S
H935 C921 0.961 . S
H936 C922 0.958 . S
H937 C922 0.961 . S
H938 C922 0.960 . S
C939 C940 1.391 . S
C939 C941 1.394 . S
C939 H955 0.931 . S
C940 C939 1.391 . S
C940 C944 1.376 . S
C941 C939 1.394 . S
C941 C942 1.369 . S
C941 C945 1.531 . S
C942 C941 1.369 . S
C942 C943 1.410 . S
C942 C950 1.503 . S
C943 C942 1.410 . S
C943 C944 1.392 . S
C943 C946 1.511 . S
C944 C940 1.376 . S
C944 C943 1.392 . S
C944 H956 0.929 . S
C945 C941 1.531 . S
C945 H957 0.960 . S
C945 H958 0.962 . S
C945 H959 0.960 . S
C946 C943 1.511 . S
C946 H960 0.961 . S
C946 H961 0.961 . S
C946 H962 0.961 . S
C947 C948 1.370 . S
C947 C949 1.363 . S
C947 H963 0.931 . S
C948 C947 1.370 . S
C948 C952 1.408 . S
C949 C947 1.363 . S
C949 C950 1.370 . S
C949 C953 1.524 . S
C950 C942 1.503 . S
C950 C949 1.370 . S
C950 C951 1.403 . S
C951 C950 1.403 . S
C951 C952 1.404 . S
C951 C954 1.539 . S
C952 C948 1.408 . S
C952 C951 1.404 . S
C952 H964 0.930 . S
C953 C949 1.524 . S
C953 H965 0.956 . S
C953 H966 0.961 . S
C953 H967 0.961 . S
C954 C951 1.539 . S
C954 H968 0.958 . S
C954 H969 0.961 . S
C954 H970 0.960 . S
H955 C939 0.931 . S
H956 C944 0.929 . S
H957 C945 0.960 . S
H958 C945 0.962 . S
H959 C945 0.960 . S
H960 C946 0.961 . S
H961 C946 0.961 . S
H962 C946 0.961 . S
H963 C947 0.931 . S
H964 C952 0.930 . S
H965 C953 0.956 . S
H966 C953 0.961 . S
H967 C953 0.961 . S
H968 C954 0.958 . S
H969 C954 0.961 . S
H970 C954 0.960 . S
C212 C128 1.428 . S
C204 C9 1.498 . S
C244 C164 2.030 . S
C236 C22 2.131 . S
C276 C129 1.354 . S
C268 C30 1.315 . S
C308 C159 1.121 . S
C300 C47 1.154 . S
C340 C126 1.143 . S
C332 C61 1.142 . S
C364 C69 1.318 . S
C372 C162 1.358 . S
C396 C82 0.945 . S
C404 C131 0.856 . S
C436 C161 1.675 . S
C428 C99 1.712 . S
C468 C165 1.388 . S
C460 C4 1.457 . S
C500 C130 1.705 . S
C492 C21 1.764 . S
C532 C158 1.935 . S
C524 C34 1.938 . S
C564 C127 0.767 . S
C556 C48 0.744 . S
C596 C160 1.303 . S
C588 C60 1.358 . S
C620 C74 1.562 . S
C628 C125 1.567 . S
C652 C86 1.530 . S
C660 C163 1.446 . S
C692 C132 1.252 . S
C684 C95 1.252 . S
C724 C194 1.846 . S
C716 C8 1.975 . S
C748 C56 1.282 . S
C756 C197 1.227 . S
C788 C196 1.607 . S
C780 C73 1.661 . S
C812 C87 2.254 . S
C820 C195 2.240 . S
C852 C198 1.885 . S
C844 C100 2.001 . S
C876 C35 2.088 . S
C884 C192 2.029 . S
C916 C191 1.307 . S
C908 C43 1.317 . S
C940 C17 1.910 . S
C948 C193 1.882 . S
