# Generated by pormake.
# Topology zzz, (3,6)-cn, num edge types: 1
# Building blocks:
#     Node 0, Type 0, BuildingBlock: VETTIZ_charged_linker_0, # of connection points: 3
#     Node 1, Type 0, BuildingBlock: VETTIZ_charged_linker_0, # of connection points: 3
#     Node 2, Type 0, BuildingBlock: VETTIZ_charged_linker_0, # of connection points: 3
#     Node 3, Type 0, BuildingBlock: VETTIZ_charged_linker_0, # of connection points: 3
#     Node 4, Type 0, BuildingBlock: VETTIZ_charged_linker_0, # of connection points: 3
#     Node 5, Type 0, BuildingBlock: VETTIZ_charged_linker_0, # of connection points: 3
#     Node 6, Type 0, BuildingBlock: VETTIZ_charged_linker_0, # of connection points: 3
#     Node 7, Type 0, BuildingBlock: VETTIZ_charged_linker_0, # of connection points: 3
#     Node 8, Type 1, BuildingBlock: BETGAK_clean_sbu_0, # of connection points: 6
#     Node 9, Type 1, BuildingBlock: BETGAK_clean_sbu_0, # of connection points: 6
#     Node 10, Type 1, BuildingBlock: BETGAK_clean_sbu_0, # of connection points: 6
#     Node 11, Type 1, BuildingBlock: BETGAK_clean_sbu_0, # of connection points: 6
#     Edge 12, Type (0, 1), BuildingBlock: KIFKEQ_clean_linker_1, # of connection points: 2
#     Edge 13, Type (0, 1), BuildingBlock: KIFKEQ_clean_linker_1, # of connection points: 2
#     Edge 14, Type (0, 1), BuildingBlock: KIFKEQ_clean_linker_1, # of connection points: 2
#     Edge 15, Type (0, 1), BuildingBlock: KIFKEQ_clean_linker_1, # of connection points: 2
#     Edge 16, Type (0, 1), BuildingBlock: KIFKEQ_clean_linker_1, # of connection points: 2
#     Edge 17, Type (0, 1), BuildingBlock: KIFKEQ_clean_linker_1, # of connection points: 2
#     Edge 18, Type (0, 1), BuildingBlock: KIFKEQ_clean_linker_1, # of connection points: 2
#     Edge 19, Type (0, 1), BuildingBlock: KIFKEQ_clean_linker_1, # of connection points: 2
#     Edge 20, Type (0, 1), BuildingBlock: KIFKEQ_clean_linker_1, # of connection points: 2
#     Edge 21, Type (0, 1), BuildingBlock: KIFKEQ_clean_linker_1, # of connection points: 2
#     Edge 22, Type (0, 1), BuildingBlock: KIFKEQ_clean_linker_1, # of connection points: 2
#     Edge 23, Type (0, 1), BuildingBlock: KIFKEQ_clean_linker_1, # of connection points: 2
#     Edge 24, Type (0, 1), BuildingBlock: KIFKEQ_clean_linker_1, # of connection points: 2
#     Edge 25, Type (0, 1), BuildingBlock: KIFKEQ_clean_linker_1, # of connection points: 2
#     Edge 26, Type (0, 1), BuildingBlock: KIFKEQ_clean_linker_1, # of connection points: 2
#     Edge 27, Type (0, 1), BuildingBlock: KIFKEQ_clean_linker_1, # of connection points: 2
#     Edge 28, Type (0, 1), BuildingBlock: KIFKEQ_clean_linker_1, # of connection points: 2
#     Edge 29, Type (0, 1), BuildingBlock: KIFKEQ_clean_linker_1, # of connection points: 2
#     Edge 30, Type (0, 1), BuildingBlock: KIFKEQ_clean_linker_1, # of connection points: 2
#     Edge 31, Type (0, 1), BuildingBlock: KIFKEQ_clean_linker_1, # of connection points: 2
#     Edge 32, Type (0, 1), BuildingBlock: KIFKEQ_clean_linker_1, # of connection points: 2
#     Edge 33, Type (0, 1), BuildingBlock: KIFKEQ_clean_linker_1, # of connection points: 2
#     Edge 34, Type (0, 1), BuildingBlock: KIFKEQ_clean_linker_1, # of connection points: 2
#     Edge 35, Type (0, 1), BuildingBlock: KIFKEQ_clean_linker_1, # of connection points: 2
# Relax obj value: 0.458
# Max RMSD: 0.272
# Mean RMSD: 0.256
data_MOF--net-zzz--node1-BETGAK_clean_sbu_0--node2-VETTIZ_charged_linker_0--edge1-KIFKEQ_clean_linker_1
_symmetry_space_group_name_H-M    P1
_symmetry_Int_Tables_number       1
_symmetry_cell_setting            triclinic
loop_
_symmetry_equiv_pos_as_xyz
'x, y, z'
_cell_length_a     59.080394
_cell_length_b     58.912028
_cell_length_c     18.444528
_cell_angle_alpha  89.88376
_cell_angle_beta   90.072281
_cell_angle_gamma 89.974228
loop_
_atom_site_label
_atom_site_type_symbol
_atom_site_fract_x
_atom_site_fract_y
_atom_site_fract_z
_atom_type_partial_charge
C0 C 0.78246 0.5245 0.54823 0.0
C1 C 0.80348 0.51192 0.55204 0.0
C2 C 0.80529 0.49218 0.50925 0.0
C3 C 0.77141 0.50244 0.44456 0.0
C4 C 0.76557 0.51802 0.49568 0.0
C5 C 0.74167 0.52712 0.47512 0.0
H6 H 0.66977 0.54119 0.17403 0.0
C7 C 0.75768 0.50612 0.38003 0.0
C8 C 0.73692 0.51607 0.39974 0.0
H9 H 0.64348 0.50328 0.35455 0.0
H10 H 0.68117 0.50576 0.41643 0.0
H11 H 0.71134 0.57321 0.24889 0.0
H12 H 0.70138 0.50663 0.16068 0.0
H13 H 0.72906 0.51312 0.13748 0.0
H14 H 0.70645 0.53073 0.10349 0.0
H15 H 0.70753 0.56764 0.15403 0.0
H16 H 0.73528 0.56738 0.19541 0.0
C17 C 0.74191 0.55317 0.46998 0.0
C18 C 0.72412 0.51907 0.53084 0.0
C19 C 0.8072 0.52012 0.16142 0.0
C20 C 0.80178 0.52631 0.09029 0.0
C21 C 0.78076 0.53613 0.07443 0.0
C22 C 0.76442 0.53794 0.12884 0.0
C23 C 0.76898 0.52864 0.19781 0.0
C24 C 0.79028 0.52045 0.21374 0.0
C25 C 0.79202 0.5108 0.28892 0.0
C26 C 0.76729 0.5121 0.31229 0.0
C27 C 0.75448 0.5238 0.26062 0.0
C28 C 0.80732 0.52694 0.33335 0.0
C29 C 0.80125 0.4861 0.28682 0.0
C30 C 0.67143 0.53455 0.22866 0.0
C31 C 0.65328 0.523 0.2599 0.0
C32 C 0.65693 0.51297 0.32947 0.0
C33 C 0.67851 0.51448 0.36545 0.0
C34 C 0.69678 0.5255 0.33074 0.0
C35 C 0.69287 0.53424 0.26166 0.0
C36 C 0.71426 0.53702 0.21965 0.0
C37 C 0.73154 0.52865 0.2738 0.0
C38 C 0.72212 0.52412 0.34215 0.0
C39 C 0.71734 0.5626 0.20289 0.0
C40 C 0.71287 0.52133 0.15154 0.0
H41 H 0.79154 0.47279 0.42112 0.0
H42 H 0.7797 0.53901 0.58295 0.0
H43 H 0.72391 0.50023 0.53415 0.0
H44 H 0.70691 0.52495 0.51527 0.0
H45 H 0.72818 0.52587 0.5855 0.0
H46 H 0.75469 0.55889 0.42972 0.0
H47 H 0.74614 0.56078 0.52339 0.0
H48 H 0.72506 0.55963 0.45282 0.0
H49 H 0.82363 0.51289 0.17394 0.0
H50 H 0.77653 0.54096 0.01935 0.0
H51 H 0.74837 0.54493 0.11343 0.0
H52 H 0.79974 0.54421 0.3364 0.0
H53 H 0.82429 0.52843 0.30787 0.0
H54 H 0.81011 0.52093 0.38929 0.0
H55 H 0.80957 0.48172 0.23485 0.0
H56 H 0.78743 0.47352 0.29403 0.0
H57 H 0.81432 0.48328 0.32914 0.0
H58 H 0.82015 0.48145 0.51307 0.0
C59 C 0.78933 0.48742 0.45538 0.0
C60 C 1.00611 0.77918 0.06821 0.0
C61 C 1.00987 0.80254 0.06041 0.0
C62 C 1.01002 0.8166 0.12173 0.0
C63 C 1.00495 0.78399 0.19884 0.0
C64 C 1.00311 0.77031 0.13844 0.0
C65 C 0.99883 0.74595 0.15882 0.0
H66 H 0.03489 0.6631 0.32415 0.0
C67 C 1.00416 0.76954 0.26382 0.0
C68 C 0.99899 0.74755 0.2421 0.0
H69 H 0.98088 0.66456 0.16404 0.0
H70 H 0.97035 0.7023 0.20607 0.0
H71 H 0.05408 0.71863 0.3373 0.0
H72 H 0.99219 0.7003 0.45094 0.0
H73 H 1.01597 0.71149 0.5007 0.0
H74 H 1.01717 0.68324 0.46448 0.0
H75 H 0.05466 0.69548 0.4015 0.0
H76 H 0.0515 0.72426 0.43299 0.0
C77 C 1.0186 0.73134 0.1299 0.0
C78 C 0.97571 0.73863 0.12674 0.0
C79 C 0.02674 0.8082 0.49341 0.0
C80 C 0.0219 0.80417 0.56604 0.0
C81 C 1.01571 0.78149 0.58536 0.0
C82 C 1.01468 0.76364 0.5319 0.0
C83 C 1.01909 0.76857 0.45799 0.0
C84 C 0.02348 0.79119 0.44141 0.0
C85 C 1.01832 0.7968 0.36481 0.0
C86 C 1.01126 0.77401 0.33558 0.0
C87 C 1.01316 0.75644 0.38745 0.0
C88 C 0.04056 0.80578 0.33008 0.0
C89 C 0.99795 0.81372 0.3644 0.0
C90 C 0.02125 0.67178 0.29639 0.0
C91 C 1.00994 0.66121 0.23538 0.0
C92 C 0.99089 0.67241 0.20641 0.0
C93 C 0.98529 0.69438 0.22775 0.0
C94 C 0.99919 0.70571 0.27667 0.0
C95 C 1.01435 0.6942 0.31903 0.0
C96 C 0.02104 0.71006 0.38322 0.0
C97 C 1.0099 0.73317 0.36207 0.0
C98 C 0.99975 0.72977 0.29367 0.0
C99 C 0.04687 0.71223 0.38908 0.0
C100 C 1.01098 0.70077 0.45405 0.0
H101 H 1.00924 0.8192 0.23443 0.0
H102 H 1.00589 0.76819 0.02124 0.0
H103 H 0.97062 0.74919 0.07944 0.0
H104 H 0.96198 0.74014 0.16762 0.0
H105 H 0.97628 0.72103 0.10563 0.0
H106 H 0.03497 0.73705 0.15351 0.0
H107 H 0.01978 0.73259 0.06993 0.0
H108 H 1.01647 0.71315 0.14297 0.0
H109 H 0.03002 0.82543 0.47543 0.0
H110 H 1.0111 0.77773 0.64088 0.0
H111 H 1.00884 0.74699 0.54774 0.0
H112 H 0.05573 0.79765 0.35492 0.0
H113 H 0.04226 0.8244 0.33774 0.0
H114 H 0.04208 0.80185 0.27183 0.0
H115 H 0.98722 0.81186 0.41365 0.0
H116 H 0.98591 0.81063 0.31939 0.0
H117 H 1.00381 0.83162 0.36233 0.0
H118 H 1.01318 0.83467 0.11645 0.0
C119 C 1.00769 0.80749 0.19061 0.0
C120 C 0.86912 1.02108 0.30459 0.0
C121 C 0.87933 1.00942 0.24395 0.0
C122 C 0.86789 0.9903 0.21628 0.0
C123 C 0.83497 0.99928 0.2874 0.0
C124 C 0.84688 1.01442 0.32867 0.0
C125 C 0.83131 0.02219 0.39191 0.0
H126 H 0.71872 0.03975 0.48626 0.0
C127 C 0.81092 1.001 0.30404 0.0
C128 C 0.80812 1.01122 0.37257 0.0
H129 H 0.76018 1.00411 0.64044 0.0
H130 H 0.79196 1.00346 0.55082 0.0
H131 H 0.75269 0.06536 0.37255 0.0
H132 H 0.72612 0.99872 0.41067 0.0
H133 H 0.72819 0.99998 0.31689 0.0
H134 H 0.71007 1.01993 0.36337 0.0
H135 H 0.72403 0.05747 0.35264 0.0
H136 H 0.74631 0.0547 0.28624 0.0
C137 C 0.8296 0.04821 0.39386 0.0
C138 C 0.84027 1.01291 0.46432 0.0
C139 C 0.76247 1.00828 0.07606 0.0
C140 C 0.74031 1.01625 0.06655 0.0
C141 C 0.72739 0.02276 0.12679 0.0
C142 C 0.7364 0.02176 0.19601 0.0
C143 C 0.75853 1.01376 0.20595 0.0
C144 C 0.77122 1.00699 0.14695 0.0
C145 C 0.7948 1.00002 0.16883 0.0
C146 C 0.79341 1.00257 0.2516 0.0
C147 C 0.77249 1.01158 0.27144 0.0
C148 C 0.81144 1.01722 0.13437 0.0
C149 C 0.79928 0.97528 0.14413 0.0
C150 C 0.735 0.03315 0.50361 0.0
C151 C 0.73691 0.02311 0.57185 0.0
C152 C 0.75812 1.01269 0.58891 0.0
C153 C 0.77657 1.01254 0.53778 0.0
C154 C 0.77355 0.0219 0.46765 0.0
C155 C 0.75208 0.03024 0.45164 0.0
C156 C 0.74666 0.02829 0.37305 0.0
C157 C 0.76835 1.01852 0.34341 0.0
C158 C 0.78535 1.01687 0.39641 0.0
C159 C 0.74199 0.05261 0.34416 0.0
C160 C 0.72666 1.01107 0.36494 0.0
H161 H 0.83749 0.97058 0.21549 0.0
H162 H 0.87789 0.03495 0.33079 0.0
H163 H 0.84106 0.99406 0.4632 0.0
H164 H 0.82906 1.01813 0.50962 0.0
H165 H 0.85756 1.0195 0.47525 0.0
H166 H 0.82325 0.05483 0.34115 0.0
H167 H 0.84644 0.05589 0.40477 0.0
H168 H 0.81777 0.0537 0.43722 0.0
H169 H 0.77265 1.00345 0.02983 0.0
H170 H 0.71028 0.0291 0.11988 0.0
H171 H 0.72564 0.02765 0.23852 0.0
H172 H 0.80803 0.03468 0.15444 0.0
H173 H 0.80974 1.0173 0.07438 0.0
H174 H 0.8293 1.0132 0.14613 0.0
H175 H 0.78668 0.96925 0.10376 0.0
H176 H 0.79854 0.96327 0.1906 0.0
H177 H 0.81599 0.97363 0.11718 0.0
H178 H 0.8754 0.98019 0.1736 0.0
C179 C 0.84589 0.98509 0.23827 0.0
C180 C 0.52345 0.75907 0.54997 0.0
C181 C 0.51076 0.73807 0.55502 0.0
C182 C 0.49065 0.73646 0.51399 0.0
C183 C 0.50047 0.7704 0.44857 0.0
C184 C 0.51659 0.77612 0.49805 0.0
C185 C 0.52564 0.80003 0.47618 0.0
H186 H 0.53694 0.87172 0.17241 0.0
C187 C 0.50353 0.78407 0.38362 0.0
C188 C 0.51377 0.80487 0.40195 0.0
H189 H 0.5058 0.90018 0.36223 0.0
H190 H 0.50661 0.8619 0.42209 0.0
H191 H 0.56843 0.83098 0.23607 0.0
H192 H 0.49955 0.8402 0.16919 0.0
H193 H 0.50628 0.81297 0.13978 0.0
H194 H 0.52216 0.83676 0.10539 0.0
H195 H 0.5601 0.83231 0.14263 0.0
H196 H 0.56118 0.80569 0.19146 0.0
C197 C 0.55152 0.7995 0.46801 0.0
C198 C 0.51848 0.81774 0.53262 0.0
C199 C 0.51773 0.73353 0.16711 0.0
C200 C 0.52283 0.73873 0.09497 0.0
C201 C 0.53057 0.76037 0.07604 0.0
C202 C 0.53159 0.77737 0.12855 0.0
C203 C 0.52372 0.77269 0.19914 0.0
C204 C 0.51726 0.75097 0.21778 0.0
C205 C 0.50846 0.7493 0.29397 0.0
C206 C 0.50866 0.77433 0.31544 0.0
C207 C 0.51907 0.78733 0.2617 0.0
C208 C 0.52572 0.73516 0.33826 0.0
C209 C 0.48441 0.73869 0.29459 0.0
C210 C 0.53132 0.87033 0.2282 0.0
C211 C 0.52226 0.88928 0.26274 0.0
C212 C 0.51351 0.88602 0.33422 0.0
C213 C 0.51414 0.86412 0.36912 0.0
C214 C 0.523 0.8452 0.33158 0.0
C215 C 0.53029 0.84883 0.26079 0.0
C216 C 0.53155 0.82744 0.21828 0.0
C217 C 0.52405 0.8103 0.27403 0.0
C218 C 0.52091 0.81977 0.34316 0.0
C219 C 0.55653 0.82384 0.19524 0.0
C220 C 0.51423 0.82929 0.15447 0.0
H221 H 0.47058 0.75048 0.42751 0.0
H222 H 0.5383 0.76168 0.58325 0.0
H223 H 0.49974 0.81821 0.5379 0.0
H224 H 0.52439 0.83492 0.51638 0.0
H225 H 0.52582 0.81358 0.58654 0.0
H226 H 0.55659 0.78659 0.42727 0.0
H227 H 0.55973 0.79523 0.52053 0.0
H228 H 0.5579 0.81632 0.44986 0.0
H229 H 0.51189 0.71669 0.18176 0.0
H230 H 0.53436 0.76447 0.02006 0.0
H231 H 0.537 0.79379 0.11061 0.0
H232 H 0.54251 0.74369 0.3395 0.0
H233 H 0.52793 0.71806 0.31396 0.0
H234 H 0.52027 0.73248 0.39482 0.0
H235 H 0.47113 0.75201 0.29791 0.0
H236 H 0.48233 0.72661 0.34028 0.0
H237 H 0.48059 0.72865 0.24529 0.0
H238 H 0.47988 0.72165 0.51873 0.0
C239 C 0.48549 0.75254 0.46066 0.0
C240 C 0.37361 0.51703 0.1176 0.0
C241 C 0.38384 0.52722 0.18141 0.0
C242 C 0.37161 0.54452 0.21655 0.0
C243 C 0.33861 0.53575 0.14653 0.0
C244 C 0.35063 0.52299 0.09835 0.0
C245 C 0.33452 0.51757 0.033 0.0
H246 H 0.22265 0.54804 0.92632 0.0
C247 C 0.31481 0.5349 0.12985 0.0
C248 C 0.31117 0.52684 0.05903 0.0
H249 H 0.25965 0.49884 0.80258 0.0
H250 H 0.29266 0.50304 0.88729 0.0
H251 H 0.23222 0.50481 1.01142 0.0
H252 H 0.24943 0.57496 0.04257 0.0
H253 H 0.23847 0.56415 0.125 0.0
H254 H 0.22124 0.56344 0.04496 0.0
H255 H 0.21377 0.52333 0.06044 0.0
H256 H 0.2358 0.50679 0.10428 0.0
C257 C 0.3335 0.4919 0.01956 0.0
C258 C 0.34242 0.53026 0.96478 0.0
C259 C 0.26394 0.52294 0.34673 0.0
C260 C 0.24036 0.52109 0.35166 0.0
C261 C 0.22688 0.52436 0.28961 0.0
C262 C 0.23665 0.52977 0.22349 0.0
C263 C 0.26024 0.53083 0.21808 0.0
C264 C 0.27357 0.52776 0.27895 0.0
C265 C 0.29821 0.53158 0.26283 0.0
C266 C 0.29713 0.53547 0.18062 0.0
C267 C 0.27509 0.53451 0.15565 0.0
C268 C 0.31174 0.51002 0.28266 0.0
C269 C 0.30634 0.55252 0.30626 0.0
C270 C 0.23818 0.53906 0.91389 0.0
C271 C 0.23826 0.52373 0.85642 0.0
C272 C 0.2588 0.51126 0.84566 0.0
C273 C 0.27784 0.51354 0.89472 0.0
C274 C 0.27581 0.52722 0.95763 0.0
C275 C 0.25491 0.53776 0.96752 0.0
C276 C 0.24831 0.53761 0.04524 0.0
C277 C 0.27063 0.53293 0.08079 0.0
C278 C 0.28791 0.52724 0.03097 0.0
C279 C 0.23156 0.51734 0.05644 0.0
C280 C 0.23874 0.56123 0.06585 0.0
H281 H 0.3406 0.56299 0.22373 0.0
H282 H 0.38299 0.50496 0.08525 0.0
H283 H 0.34308 0.54884 0.97496 0.0
H284 H 0.33058 0.52716 0.919 0.0
H285 H 0.3596 0.5245 0.9486 0.0
H286 H 0.32795 0.48285 0.0694 0.0
H287 H 0.35043 0.48533 1.00381 0.0
H288 H 0.32134 0.48798 0.97537 0.0
H289 H 0.27441 0.52151 0.39476 0.0
H290 H 0.20856 0.52418 0.29339 0.0
H291 H 0.22533 0.53386 0.18011 0.0
H292 H 0.30553 0.49517 0.25129 0.0
H293 H 0.31011 0.50611 0.34137 0.0
H294 H 0.33002 0.51216 0.27114 0.0
H295 H 0.29715 0.55446 0.35838 0.0
H296 H 0.3037 0.56845 0.27493 0.0
H297 H 0.32437 0.55094 0.32223 0.0
H298 H 0.37895 0.55389 0.26128 0.0
C299 C 0.34928 0.54909 0.19821 0.0
C300 C 0.02489 0.26156 0.35416 0.0
C301 C 0.03302 0.23927 0.36061 0.0
C302 C 0.04359 0.22908 0.30036 0.0
C303 C 0.03312 0.26115 0.22564 0.0
C304 C 0.0247 0.27197 0.28601 0.0
C305 C 1.01395 0.29436 0.26805 0.0
H306 H 0.03039 0.38295 0.08496 0.0
C307 C 0.02731 0.27499 0.16165 0.0
C308 C 1.01592 0.29434 0.18548 0.0
H309 H 0.98869 0.37382 0.2766 0.0
H310 H 0.98298 0.33476 0.24457 0.0
H311 H 0.05784 0.33175 0.06257 0.0
H312 H 0.98857 0.33817 0.98446 0.0
H313 H 1.01079 0.3301 0.92269 0.0
H314 H 1.00935 0.35874 0.95619 0.0
H315 H 0.05092 0.35408 0.99923 0.0
H316 H 0.0513 0.32495 0.96961 0.0
C317 C 0.02868 0.31289 0.3043 0.0
C318 C 0.98892 0.29434 0.29405 0.0
C319 C 0.03649 0.23743 0.92106 0.0
C320 C 0.02252 0.23828 0.85998 0.0
C321 C 1.00973 0.25862 0.84953 0.0
C322 C 1.01113 0.27726 0.8998 0.0
C323 C 0.02469 0.27534 0.96285 0.0
C324 C 0.03567 0.25468 0.97352 0.0
C325 C 0.03966 0.24988 0.05197 0.0
C326 C 0.03037 0.27108 0.08679 0.0
C327 C 0.02351 0.28741 0.03544 0.0
C328 C 0.06552 0.24752 0.06388 0.0
C329 C 0.02543 0.22847 0.0728 0.0
C330 C 0.0203 0.37241 0.12048 0.0
C331 C 1.01131 0.38154 0.18734 0.0
C332 C 0.99676 0.36751 0.22788 0.0
C333 C 0.99375 0.34474 0.21045 0.0
C334 C 1.00578 0.33535 0.15284 0.0
C335 C 1.01598 0.34897 0.10218 0.0
C336 C 0.02184 0.33399 0.03528 0.0
C337 C 1.01628 0.30953 0.06195 0.0
C338 C 1.00983 0.31149 0.13518 0.0
C339 C 0.04698 0.33635 0.01552 0.0
C340 C 1.00673 0.34062 0.97081 0.0
H341 H 0.05131 0.23091 0.18893 0.0
H342 H 1.01703 0.26996 0.39985 0.0
H343 H 0.98342 0.27761 0.31571 0.0
H344 H 0.97703 0.29795 0.24881 0.0
H345 H 0.98615 0.30697 0.33781 0.0
H346 H 0.04576 0.31355 0.27902 0.0
H347 H 0.03092 0.30928 0.36305 0.0
H348 H 0.02122 0.32996 0.30136 0.0
H349 H 0.04526 0.22177 0.93406 0.0
H350 H 0.99821 0.25982 0.804 0.0
H351 H 1.00029 0.29187 0.89237 0.0
H352 H 0.07509 0.25891 0.02672 0.0
H353 H 0.07127 0.22987 0.05352 0.0
H354 H 0.07085 0.25269 0.11895 0.0
H355 H 1.01007 0.22685 0.03815 0.0
H356 H 1.01837 0.22901 0.12807 0.0
H357 H 0.03544 0.21264 0.06642 0.0
H358 H 0.04987 0.21183 0.30317 0.0
C359 C 0.04397 0.24005 0.23323 0.0
C360 C 0.28426 1.01709 0.89249 0.0
C361 C 0.30445 0.03013 0.87614 0.0
C362 C 0.3055 0.0526 0.90213 0.0
C363 C 0.27253 0.04622 0.97533 0.0
C364 C 0.26738 0.02656 0.94027 0.0
C365 C 0.24408 1.01825 0.9702 0.0
H366 H 0.17395 0.03186 0.27991 0.0
C367 C 0.25927 0.04798 0.04097 0.0
C368 C 0.23977 0.03436 0.03604 0.0
H369 H 0.14615 1.00758 0.07892 0.0
H370 H 0.18344 1.01431 0.01827 0.0
H371 H 0.21275 1.00663 0.28343 0.0
H372 H 0.19905 0.07349 0.22119 0.0
H373 H 0.22524 0.07475 0.26675 0.0
H374 H 0.20121 0.06205 0.31133 0.0
H375 H 0.22257 0.02871 0.3401 0.0
H376 H 0.24092 1.0155 0.27381 0.0
C377 C 0.24544 0.99336 0.99446 0.0
C378 C 0.22597 0.02148 0.91124 0.0
C379 C 0.30834 0.03974 0.25978 0.0
C380 C 0.30248 0.03575 0.33226 0.0
C381 C 0.28137 0.04287 0.35832 0.0
C382 C 0.26513 0.05117 0.30977 0.0
C383 C 0.26994 0.05109 0.2351 0.0
C384 C 0.29175 0.04747 0.21171 0.0
C385 C 0.29382 0.04922 0.13077 0.0
C386 C 0.26882 0.05226 0.10963 0.0
C387 C 0.25512 0.05125 0.17091 0.0
C388 C 0.30409 0.02687 0.10089 0.0
C389 C 0.30881 0.06994 0.1126 0.0
C390 C 0.17549 0.02778 0.22282 0.0
C391 C 0.15695 1.01903 0.18558 0.0
C392 C 0.16012 1.0143 0.11025 0.0
C393 C 0.18169 1.01794 0.07524 0.0
C394 C 0.20032 0.02631 0.11576 0.0
C395 C 0.19627 0.03124 0.18825 0.0
C396 C 0.21632 0.04024 0.22671 0.0
C397 C 0.23286 0.04261 0.16499 0.0
C398 C 0.22457 0.03362 0.09868 0.0
C399 C 0.22362 0.02206 0.28398 0.0
C400 C 0.21022 0.06382 0.25881 0.0
H401 H 0.29144 0.07744 0.97461 0.0
H402 H 0.28216 1.00017 0.87084 0.0
H403 H 0.22431 0.03972 0.89648 0.0
H404 H 0.20929 1.01526 0.92988 0.0
H405 H 0.23061 1.01188 0.86161 0.0
H406 H 0.25893 0.99113 0.03591 0.0
H407 H 0.2493 0.98217 0.94761 0.0
H408 H 0.22907 0.98788 0.01841 0.0
H409 H 0.325 0.03514 0.24032 0.0
H410 H 0.27695 0.04055 0.41484 0.0
H411 H 0.24904 0.05605 0.33142 0.0
H412 H 0.29289 1.0122 0.11329 0.0
H413 H 0.32104 0.02346 0.12442 0.0
H414 H 0.30678 0.02752 0.0417 0.0
H415 H 0.32276 0.07187 0.15265 0.0
H416 H 0.29875 0.08588 0.11276 0.0
H417 H 0.31739 0.06805 0.05966 0.0
H418 H 0.31979 0.06336 0.88884 0.0
C419 C 0.28964 0.06065 0.95177 0.0
C420 C 0.52216 0.28428 0.89003 0.0
C421 C 0.50932 0.30509 0.88248 0.0
C422 C 0.48872 0.30662 0.9209 0.0
C423 C 0.49787 0.27282 0.9884 0.0
C424 C 0.51491 0.26734 0.94159 0.0
C425 C 0.52378 0.24337 0.96322 0.0
H426 H 0.53831 0.17064 0.25685 0.0
C427 C 0.49897 0.25819 0.05211 0.0
C428 C 0.51083 0.23815 0.0349 0.0
H429 H 0.50838 0.14169 0.06589 0.0
H430 H 0.50701 0.18024 1.00854 0.0
H431 H 0.56246 0.21792 0.20885 0.0
H432 H 0.496 0.19307 0.25672 0.0
H433 H 0.49525 0.22074 0.28904 0.0
H434 H 0.51542 0.20092 0.32711 0.0
H435 H 0.55283 0.21218 0.29921 0.0
H436 H 0.54965 0.23982 0.25799 0.0
C437 C 0.54949 0.244 0.97589 0.0
C438 C 0.51767 0.226 0.90444 0.0
C439 C 0.50651 0.30506 0.28087 0.0
C440 C 0.51566 0.29964 0.34898 0.0
C441 C 0.5195 0.27697 0.36795 0.0
C442 C 0.51585 0.25988 0.31754 0.0
C443 C 0.50849 0.26555 0.24717 0.0
C444 C 0.50317 0.28773 0.23031 0.0
C445 C 0.49735 0.29078 0.15136 0.0
C446 C 0.49907 0.2662 0.12457 0.0
C447 C 0.50707 0.2522 0.18014 0.0
C448 C 0.51564 0.30623 0.11672 0.0
C449 C 0.4733 0.30102 0.14458 0.0
C450 C 0.53288 0.17196 0.2008 0.0
C451 C 0.5246 0.15275 0.16569 0.0
C452 C 0.51559 0.156 0.09446 0.0
C453 C 0.51501 0.17813 0.0609 0.0
C454 C 0.52242 0.1974 0.10001 0.0
C455 C 0.52939 0.19361 0.17108 0.0
C456 C 0.5253 0.21368 0.21809 0.0
C457 C 0.51557 0.2304 0.16456 0.0
C458 C 0.51606 0.22227 0.09311 0.0
C459 C 0.54862 0.22135 0.24829 0.0
C460 C 0.50727 0.20691 0.27626 0.0
H461 H 0.46731 0.29223 1.00311 0.0
H462 H 0.53733 0.28165 0.85835 0.0
H463 H 0.49904 0.22539 0.89613 0.0
H464 H 0.52356 0.20878 0.92029 0.0
H465 H 0.52575 0.23064 0.85207 0.0
H466 H 0.55381 0.2567 0.0182 0.0
H467 H 0.55849 0.24863 0.92512 0.0
H468 H 0.5557 0.22711 0.99412 0.0
H469 H 0.50388 0.32262 0.26536 0.0
H470 H 0.52666 0.27266 0.42034 0.0
H471 H 0.52035 0.24316 0.33476 0.0
H472 H 0.53269 0.29834 0.12166 0.0
H473 H 0.51613 0.32308 0.14348 0.0
H474 H 0.51248 0.30962 0.05876 0.0
H475 H 0.46832 0.31062 0.19387 0.0
H476 H 0.4604 0.28756 0.13612 0.0
H477 H 0.47226 0.31352 0.09968 0.0
H478 H 0.47779 0.32125 0.91403 0.0
C479 C 0.48291 0.2905 0.9734 0.0
La480 La 0.03855 1.02045 0.75326 0.0
La481 La 0.99806 0.02154 0.66767 0.0
C482 C 0.06892 1.01055 0.84346 0.0
C483 C 0.07028 0.98972 0.88719 0.0
C484 C 0.08886 0.97508 0.87921 0.0
C485 C 0.08713 0.95233 0.90039 0.0
C486 C 0.06678 0.94403 0.9297 0.0
C487 C 0.04906 0.95931 0.94368 0.0
C488 C 0.05083 0.98189 0.9229 0.0
C489 C 0.04736 0.02873 0.61282 0.0
C490 C 1.01531 0.97257 0.70576 0.0
C491 C 0.97359 0.0286 0.5585 0.0
C492 C 0.97172 0.05034 0.51946 0.0
C493 C 0.95294 0.06441 0.53284 0.0
C494 C 0.95454 0.08778 0.52149 0.0
C495 C 0.97467 0.09706 0.49483 0.0
C496 C 0.99238 0.08282 0.47336 0.0
C497 C 0.99093 0.05956 0.48539 0.0
C498 C 0.98285 1.01997 0.80467 0.0
C499 C 1.01817 0.06877 0.72708 0.0
O500 O 0.07092 1.00716 0.77388 0.0
O501 O 0.05207 0.02421 0.858 0.0
O502 O 0.0565 0.03892 0.66764 0.0
O503 O 0.03299 1.01479 0.63885 0.0
O504 O 0.03089 0.98329 0.74514 0.0
O505 O 1.00006 0.9844 0.6692 0.0
O506 O 0.96602 0.02913 0.62483 0.0
O507 O 0.99319 1.01835 0.55517 0.0
O508 O 0.97075 1.01919 0.74653 0.0
O509 O 1.00368 1.02015 0.78556 0.0
O510 O 1.00613 0.05849 0.67599 0.0
O511 O 0.03103 0.05658 0.77096 0.0
H512 H 0.10399 0.98075 0.85143 0.0
H513 H 0.1012 0.941 0.89008 0.0
H514 H 0.03301 0.95355 0.96515 0.0
H515 H 0.03612 0.99264 0.92922 0.0
H516 H 0.93791 0.05769 0.55877 0.0
H517 H 0.94069 0.09871 0.53766 0.0
H518 H 1.00802 0.08988 0.45247 0.0
H519 H 1.00569 0.04926 0.47411 0.0
La520 La 0.52079 0.04266 0.75295 0.0
La521 La 0.51828 1.00061 0.66952 0.0
C522 C 0.53195 0.07337 0.84014 0.0
C523 C 0.55281 0.07409 0.88373 0.0
C524 C 0.56847 0.09165 0.87284 0.0
C525 C 0.59102 0.08886 0.89426 0.0
C526 C 0.59816 0.06839 0.92644 0.0
C527 C 0.58188 0.05184 0.94349 0.0
C528 C 0.55945 0.05471 0.92276 0.0
C529 C 0.51095 0.04969 0.61245 0.0
C530 C 0.56764 1.01752 0.70425 0.0
C531 C 0.51062 0.97528 0.56293 0.0
C532 C 0.4895 0.97397 0.52147 0.0
C533 C 0.47878 0.95288 0.51235 0.0
C534 C 0.45588 0.95198 0.4933 0.0
C535 C 0.44371 0.97216 0.48357 0.0
C536 C 0.45478 0.99311 0.4876 0.0
C537 C 0.47753 0.99405 0.5063 0.0
C538 C 0.52124 0.98769 0.80922 0.0
C539 C 0.47245 0.02156 0.73555 0.0
O540 O 0.53533 0.07473 0.7703 0.0
O541 O 0.51757 0.05725 0.85628 0.0
O542 O 0.50162 0.06002 0.6667 0.0
O543 O 0.52496 0.03553 0.63905 0.0
O544 O 0.5575 0.0336 0.74332 0.0
O545 O 0.5554 1.00225 0.66911 0.0
O546 O 0.50857 0.96869 0.63012 0.0
O547 O 0.52192 0.99431 0.55791 0.0
O548 O 0.52061 0.97433 0.75386 0.0
O549 O 0.52111 1.00792 0.78465 0.0
O550 O 0.48176 1.0101 0.68109 0.0
O551 O 0.48547 0.03399 0.77826 0.0
H552 H 0.56371 0.10673 0.84274 0.0
H553 H 0.60307 0.10216 0.88188 0.0
H554 H 0.58665 0.03574 0.96747 0.0
H555 H 0.54782 0.04082 0.93189 0.0
H556 H 0.48765 0.93726 0.52498 0.0
H557 H 0.44741 0.9357 0.49019 0.0
H558 H 0.4455 1.00882 0.47994 0.0
H559 H 0.48522 1.01056 0.51402 0.0
La560 La 0.50062 0.52084 0.74818 0.0
La561 La 0.54138 0.51924 0.66424 0.0
C562 C 0.46988 0.52978 0.83778 0.0
C563 C 0.46837 0.54998 0.88332 0.0
C564 C 0.44804 0.56226 0.88701 0.0
C565 C 0.44832 0.58495 0.90918 0.0
C566 C 0.46895 0.59522 0.92722 0.0
C567 C 0.48878 0.58229 0.93036 0.0
C568 C 0.48852 0.55985 0.90835 0.0
C569 C 0.49241 0.50968 0.60943 0.0
C570 C 0.52337 0.56854 0.69571 0.0
C571 C 0.56704 0.51385 0.55684 0.0
C572 C 0.56795 0.49458 0.50719 0.0
C573 C 0.58858 0.48306 0.49853 0.0
C574 C 0.58862 0.46008 0.48019 0.0
C575 C 0.56802 0.44877 0.47037 0.0
C576 C 0.54769 0.46104 0.46943 0.0
C577 C 0.54763 0.48387 0.48768 0.0
C578 C 0.55596 0.52281 0.80194 0.0
C579 C 0.522 0.47279 0.73004 0.0
O580 O 0.46824 0.53405 0.76853 0.0
O581 O 0.4868 0.51619 0.85199 0.0
O582 O 0.48327 0.50034 0.66579 0.0
O583 O 0.50634 0.52443 0.63291 0.0
O584 O 0.50733 0.55812 0.7342 0.0
O585 O 0.53926 0.55643 0.66359 0.0
O586 O 0.57253 0.5084 0.62311 0.0
O587 O 0.54873 0.52632 0.55482 0.0
O588 O 0.56831 0.52292 0.74445 0.0
O589 O 0.53532 0.52208 0.78133 0.0
O590 O 0.53265 0.48231 0.67421 0.0
O591 O 0.51024 0.48577 0.77435 0.0
H592 H 0.43241 0.55496 0.867 0.0
H593 H 0.4329 0.59488 0.90655 0.0
H594 H 0.50483 0.59007 0.94433 0.0
H595 H 0.5045 0.55095 0.90465 0.0
H596 H 0.60438 0.49106 0.51392 0.0
H597 H 0.60443 0.45074 0.4807 0.0
H598 H 0.53166 0.45249 0.46103 0.0
H599 H 0.53146 0.4923 0.49425 0.0
La600 La 1.01919 0.50192 0.74594 0.0
La601 La 0.02148 0.54188 0.66958 0.0
C602 C 1.00907 0.47145 0.83608 0.0
C603 C 0.98798 0.46964 0.87728 0.0
C604 C 0.97574 0.44922 0.87789 0.0
C605 C 0.95288 0.44925 0.89775 0.0
C606 C 0.94237 0.46974 0.91664 0.0
C607 C 0.95516 0.48963 0.92229 0.0
C608 C 0.97775 0.48962 0.90256 0.0
C609 C 0.02865 0.49312 0.60635 0.0
C610 C 0.97218 0.52465 0.69156 0.0
C611 C 0.03168 0.57225 0.5794 0.0
C612 C 0.05151 0.57247 0.5318 0.0
C613 C 0.06689 0.59054 0.53592 0.0
C614 C 0.08915 0.58758 0.51239 0.0
C615 C 0.09617 0.5665 0.48476 0.0
C616 C 0.08002 0.54939 0.47339 0.0
C617 C 0.05789 0.55235 0.49658 0.0
C618 C 1.01328 0.55058 0.81112 0.0
C619 C 0.06834 0.51865 0.72105 0.0
O620 O 1.00658 0.46914 0.76624 0.0
O621 O 0.02174 0.48892 0.8517 0.0
O622 O 0.03788 0.48351 0.66217 0.0
O623 O 1.01462 0.50781 0.63009 0.0
O624 O 0.98223 0.51016 0.73654 0.0
O625 O 0.9848 0.53895 0.65443 0.0
O626 O 0.03654 0.57349 0.64828 0.0
O627 O 1.01681 0.55637 0.56653 0.0
O628 O 1.00432 0.56081 0.75602 0.0
O629 O 0.02669 0.53577 0.78493 0.0
O630 O 0.05831 0.53216 0.67293 0.0
O631 O 0.05554 0.50581 0.76269 0.0
H632 H 0.98331 0.43371 0.85778 0.0
H633 H 0.94308 0.43378 0.89314 0.0
H634 H 0.94722 0.50557 0.93691 0.0
H635 H 0.98659 0.50569 0.90131 0.0
H636 H 0.06227 0.60615 0.56311 0.0
H637 H 0.1012 0.6012 0.52041 0.0
H638 H 0.08485 0.53286 0.45292 0.0
H639 H 0.04648 0.538 0.4931 0.0
H640 H 0.11369 0.0386 0.17583 0.0
H641 H 0.15286 0.99167 0.30387 0.0
H642 H 0.08466 0.03965 0.27243 0.0
H643 H 0.12459 0.99331 0.40017 0.0
H644 H 0.09215 0.03756 0.58793 0.0
H645 H 0.11463 0.03249 0.47842 0.0
H646 H 0.05562 1.00902 0.36389 0.0
H647 H 0.03291 1.0132 0.47588 0.0
C648 C 0.11578 0.02782 0.223 0.0
C649 C 0.13575 1.01478 0.23078 0.0
C650 C 0.09918 0.02861 0.27905 0.0
C651 C 0.10222 1.01672 0.34519 0.0
C652 C 0.12152 1.00279 0.35075 0.0
C653 C 0.13774 1.00169 0.29478 0.0
C654 C 0.08372 0.03129 0.53981 0.0
C655 C 0.06045 0.02579 0.54213 0.0
C656 C 0.09678 0.02836 0.47648 0.0
C657 C 0.08717 1.02039 0.4114 0.0
C658 C 0.06374 1.01531 0.41252 0.0
C659 C 0.05068 1.01765 0.4771 0.0
H660 H 0.55837 0.12937 0.23667 0.0
H661 H 0.48616 0.12899 0.20668 0.0
H662 H 0.55474 0.10247 0.33702 0.0
H663 H 0.48234 0.10184 0.30709 0.0
H664 H 0.48133 0.07996 0.55061 0.0
H665 H 0.48423 0.10078 0.43641 0.0
H666 H 0.54663 0.06588 0.38859 0.0
H667 H 0.54359 0.04499 0.50375 0.0
C668 C 0.5417 0.12291 0.24972 0.0
C669 C 0.52263 0.13129 0.21167 0.0
C670 C 0.53956 0.10743 0.30818 0.0
C671 C 0.51818 0.0998 0.33237 0.0
C672 C 0.49915 0.10735 0.29195 0.0
C673 C 0.50134 0.1227 0.23284 0.0
C674 C 0.49559 0.07646 0.51552 0.0
C675 C 0.51217 0.06059 0.53751 0.0
C676 C 0.49723 0.08844 0.4491 0.0
C677 C 0.51572 0.08538 0.4015 0.0
C678 C 0.53218 0.06916 0.42302 0.0
C679 C 0.53036 0.05692 0.48933 0.0
H680 H 0.42051 0.55431 0.2118 0.0
H681 H 0.3962 0.48628 0.24422 0.0
H682 H 0.44807 0.54923 0.30847 0.0
H683 H 0.42463 0.48045 0.33898 0.0
H684 H 0.4554 0.48492 0.56732 0.0
H685 H 0.43311 0.48711 0.457 0.0
H686 H 0.47919 0.53744 0.37197 0.0
H687 H 0.50101 0.53575 0.48512 0.0
C688 C 0.42173 0.53778 0.23731 0.0
C689 C 0.40599 0.52065 0.21843 0.0
C690 C 0.43765 0.53484 0.29403 0.0
C691 C 0.43881 0.51451 0.33483 0.0
C692 C 0.42425 0.49672 0.31179 0.0
C693 C 0.40813 0.49978 0.2553 0.0
C694 C 0.46097 0.49643 0.52509 0.0
C695 C 0.4802 0.5102 0.53651 0.0
C696 C 0.4481 0.49758 0.46045 0.0
C697 C 0.45385 0.51245 0.40303 0.0
C698 C 0.47353 0.52592 0.41392 0.0
C699 C 0.48637 0.52485 0.47923 0.0
H700 H 0.05233 0.39802 0.23841 0.0
H701 H 0.98188 0.41579 0.22399 0.0
H702 H 0.05793 0.4276 0.32975 0.0
H703 H 0.98695 0.4446 0.31694 0.0
H704 H 0.99997 0.49984 0.48651 0.0
H705 H 0.99782 0.47754 0.37429 0.0
H706 H 0.05308 0.43568 0.44981 0.0
H707 H 0.0555 0.4583 0.55934 0.0
C708 C 0.03814 0.40875 0.25264 0.0
C709 C 1.01669 0.40443 0.22194 0.0
C710 C 0.04116 0.42554 0.30711 0.0
C711 C 0.02282 0.43865 0.3341 0.0
C712 C 1.00175 0.43535 0.2992 0.0
C713 C 0.9988 0.4187 0.24468 0.0
C714 C 1.01184 0.48605 0.47867 0.0
C715 C 0.02786 0.48105 0.53324 0.0
C716 C 1.01052 0.47294 0.41397 0.0
C717 C 0.02518 0.45423 0.4009 0.0
C718 C 0.04155 0.44983 0.45518 0.0
C719 C 0.04285 0.46288 0.51935 0.0
H720 H 0.88616 0.04784 0.16111 0.0
H721 H 0.91926 0.98584 0.22434 0.0
H722 H 0.91376 0.0529 0.06328 0.0
H723 H 0.94688 0.99071 0.12653 0.0
H724 H 0.9995 1.00909 0.94521 0.0
H725 H 0.97831 1.00967 0.06077 0.0
H726 H 0.91979 0.03563 0.9479 0.0
H727 H 0.94057 0.03482 0.83477 0.0
C728 C 0.89987 0.03573 0.15628 0.0
C729 C 0.90045 1.01663 0.20244 0.0
C730 C 0.9156 0.03835 0.09874 0.0
C731 C 0.93268 0.02201 0.08472 0.0
C732 C 0.93427 1.0038 0.13446 0.0
C733 C 0.9184 1.00108 0.19149 0.0
C734 C 0.98223 1.01513 0.94529 0.0
C735 C 0.97196 0.02183 0.87942 0.0
C736 C 0.96989 1.01537 1.01187 0.0
C737 C 0.94701 0.0228 0.01526 0.0
C738 C 0.93726 0.03009 0.94942 0.0
C739 C 0.94932 0.02946 0.88353 0.0
H740 H 0.48405 0.90885 0.20264 0.0
H741 H 0.55637 0.91668 0.21167 0.0
H742 H 0.48235 0.93588 0.10131 0.0
H743 H 0.55485 0.94372 0.11072 0.0
H744 H 0.54508 0.99957 0.93547 0.0
H745 H 0.54417 0.98015 0.05416 0.0
H746 H 0.49209 0.93539 0.97434 0.0
H747 H 0.49322 0.95457 0.85728 0.0
C748 C 0.49954 0.917 0.18505 0.0
C749 C 0.52029 0.91078 0.21732 0.0
C750 C 0.49866 0.93231 0.12559 0.0
C751 C 0.5185 0.94214 0.09595 0.0
C752 C 0.53909 0.93692 0.13129 0.0
C753 C 0.53998 0.9214 0.19004 0.0
C754 C 0.53303 0.98601 0.94401 0.0
C755 C 0.51897 0.97902 0.88639 0.0
C756 C 0.53268 0.97456 1.0121 0.0
C757 C 0.51798 0.95595 0.0254 0.0
C758 C 0.50345 0.94966 0.96806 0.0
C759 C 0.50414 0.96074 0.90016 0.0
H760 H 0.64596 0.48767 0.16709 0.0
H761 H 0.61599 0.55062 0.2353 0.0
H762 H 0.62006 0.48624 0.06347 0.0
H763 H 0.58963 0.54914 0.13176 0.0
H764 H 0.53711 0.53036 0.9416 0.0
H765 H 0.55693 0.52874 0.05992 0.0
H766 H 0.61835 0.50912 0.95091 0.0
H767 H 0.59908 0.5113 0.83497 0.0
C768 C 0.63319 0.50077 0.1618 0.0
C769 C 0.63286 0.51893 0.21146 0.0
C770 C 0.61845 0.50017 0.10133 0.0
C771 C 0.6026 0.51769 0.08772 0.0
C772 C 0.60132 0.5352 0.13985 0.0
C773 C 0.61639 0.53598 0.19995 0.0
C774 C 0.55481 0.52573 0.94295 0.0
C775 C 0.56631 0.52113 0.87749 0.0
C776 C 0.56628 0.52482 1.01109 0.0
C777 C 0.58946 0.51863 0.01618 0.0
C778 C 0.60058 0.51365 0.95061 0.0
C779 C 0.58939 0.51507 0.88329 0.0
H780 H 0.04715 0.65385 0.1479 0.0
H781 H 0.98676 0.62082 0.22374 0.0
H782 H 0.05082 0.62539 0.05169 0.0
H783 H 0.9901 0.5925 0.12765 0.0
H784 H 1.00408 0.5379 0.95408 0.0
H785 H 1.00671 0.56105 0.06451 0.0
H786 H 0.03374 0.61645 0.93829 0.0
H787 H 0.03084 0.59335 0.82876 0.0
C788 C 0.03513 0.63998 0.14618 0.0
C789 C 1.01694 0.63964 0.19567 0.0
C790 C 0.03691 0.62378 0.08944 0.0
C791 C 0.02053 0.60646 0.07945 0.0
C792 C 1.00324 0.60522 0.13228 0.0
C793 C 1.00141 0.62149 0.18855 0.0
C794 C 1.01085 0.55491 0.94994 0.0
C795 C 1.01728 0.56352 0.88152 0.0
C796 C 1.01223 0.56841 0.01372 0.0
C797 C 0.02046 0.59104 1.01208 0.0
C798 C 0.02755 0.59924 0.94362 0.0
C799 C 0.0258 0.5859 0.87999 0.0
H800 H 0.05705 0.20582 0.43047 0.0
H801 H 0.99189 0.23938 0.42665 0.0
H802 H 0.03974 0.17331 0.49143 0.0
H803 H 0.97506 0.20712 0.48801 0.0
H804 H 0.98637 0.12162 0.61248 0.0
H805 H 1.00064 0.16097 0.61259 0.0
H806 H 0.98719 0.16568 0.38311 0.0
H807 H 0.97345 0.12644 0.38264 0.0
C808 C 0.03938 0.20677 0.4458 0.0
C809 C 0.02575 0.22488 0.42205 0.0
C810 C 0.02957 0.1883 0.4812 0.0
C811 C 1.00616 0.18794 0.49336 0.0
C812 C 0.9932 0.2073 0.47932 0.0
C813 C 1.00296 0.22577 0.44419 0.0
C814 C 0.98596 0.13144 0.56274 0.0
C815 C 0.97869 0.12148 0.49755 0.0
C816 C 0.99415 0.15367 0.56291 0.0
C817 C 0.99477 0.16599 0.49808 0.0
C818 C 0.9865 0.15634 0.43376 0.0
C819 C 0.97865 0.1341 0.43336 0.0
H820 H 0.31003 0.99144 0.30979 0.0
H821 H 0.3278 0.04712 0.45015 0.0
H822 H 0.34024 0.96841 0.36246 0.0
H823 H 0.35851 0.0244 0.50213 0.0
H824 H 0.41283 0.98098 0.58689 0.0
H825 H 0.37301 0.99084 0.56702 0.0
H826 H 0.3805 0.97446 0.33979 0.0
H827 H 0.42005 0.96445 0.36062 0.0
C828 C 0.32016 0.99845 0.35337 0.0
C829 C 0.3171 1.02099 0.37568 0.0
C830 C 0.33739 0.98535 0.38329 0.0
C831 C 0.35194 0.99474 0.43537 0.0
C832 C 0.34747 1.01666 0.46231 0.0
C833 C 0.33006 0.02974 0.43253 0.0
C834 C 0.40555 0.97883 0.53343 0.0
C835 C 0.41912 0.97207 0.47504 0.0
C836 C 0.38293 0.98453 0.52199 0.0
C837 C 0.37373 0.9836 0.45187 0.0
C838 C 0.387 0.97505 0.39468 0.0
C839 C 0.40961 0.96936 0.40625 0.0
H840 H 0.49388 0.33613 0.40474 0.0
H841 H 0.55929 0.30379 0.38898 0.0
H842 H 0.51178 0.36979 0.45674 0.0
H843 H 0.5773 0.33763 0.43974 0.0
H844 H 0.58665 0.41823 0.37672 0.0
H845 H 0.57738 0.37766 0.37045 0.0
H846 H 0.53753 0.38368 0.56554 0.0
H847 H 0.54698 0.42403 0.57185 0.0
C848 C 0.51197 0.33608 0.4146 0.0
C849 C 0.5253 0.31764 0.39357 0.0
C850 C 0.52219 0.35515 0.44442 0.0
C851 C 0.54585 0.35605 0.45197 0.0
C852 C 0.55904 0.33711 0.43453 0.0
C853 C 0.54875 0.31786 0.40599 0.0
C854 C 0.57652 0.4106 0.41917 0.0
C855 C 0.56688 0.424 0.47351 0.0
C856 C 0.57135 0.38752 0.41604 0.0
C857 C 0.55655 0.37791 0.46726 0.0
C858 C 0.54878 0.39094 0.5254 0.0
C859 C 0.554 0.41387 0.5286 0.0
H860 H 0.23951 0.55514 0.44765 0.0
H861 H 0.21326 0.48814 0.40667 0.0
H862 H 0.20368 0.56615 0.50153 0.0
H863 H 0.17747 0.49884 0.46256 0.0
H864 H 0.11679 0.54128 0.37986 0.0
H865 H 0.15494 0.52588 0.38313 0.0
H866 H 0.16881 0.5633 0.57932 0.0
H867 H 0.13023 0.57817 0.57777 0.0
C868 C 0.22669 0.54222 0.45566 0.0
C869 C 0.22866 0.52109 0.42141 0.0
C870 C 0.20604 0.54861 0.48571 0.0
C871 C 0.18763 0.5336 0.4829 0.0
C872 C 0.19133 0.51088 0.46309 0.0
C873 C 0.21192 0.50459 0.43252 0.0
C874 C 0.12793 0.54618 0.42384 0.0
C875 C 0.12043 0.56078 0.4788 0.0
C876 C 0.14965 0.53715 0.42628 0.0
C877 C 0.16443 0.54273 0.4833 0.0
C878 C 0.15751 0.55841 0.53576 0.0
C879 C 0.13559 0.56721 0.53396 0.0
H880 H 0.98466 0.8303 0.97648 0.0
H881 H 0.05092 0.80038 0.99779 0.0
H882 H 1.00151 0.86424 0.92349 0.0
H883 H 0.06784 0.83438 0.94475 0.0
H884 H 0.07978 0.91006 0.83716 0.0
H885 H 0.06598 0.8708 0.83651 0.0
H886 H 0.0291 0.88359 0.0339 0.0
H887 H 0.04357 0.92224 0.03707 0.0
C888 C 1.00261 0.83027 0.9644 0.0
C889 C 1.0166 0.81303 0.99177 0.0
C890 C 1.01228 0.84979 0.93512 0.0
C891 C 0.03592 0.85191 0.93211 0.0
C892 C 0.04957 0.833 0.94682 0.0
C893 C 0.03986 0.81345 0.97632 0.0
C894 C 0.06928 0.9043 0.88161 0.0
C895 C 0.06248 0.91937 0.9367 0.0
C896 C 0.06117 0.88199 0.88041 0.0
C897 C 0.04593 0.87471 0.93356 0.0
C898 C 0.04029 0.88923 0.99096 0.0
C899 C 0.04866 0.91127 0.99292 0.0
H900 H 0.71302 0.98654 0.99867 0.0
H901 H 0.74159 0.05362 0.98242 0.0
H902 H 0.67808 1.00022 0.94347 0.0
H903 H 0.70665 0.06743 0.92736 0.0
H904 H 0.63274 0.07949 0.83366 0.0
H905 H 0.67137 0.06451 0.83486 0.0
H906 H 0.65694 0.02862 0.0336 0.0
H907 H 0.61885 0.04421 0.0347 0.0
C908 C 0.71247 1.00376 0.97793 0.0
C909 C 0.72966 1.01918 0.99558 0.0
C910 C 0.69234 1.0117 0.94768 0.0
C911 C 0.68959 0.03499 0.93381 0.0
C912 C 0.70839 0.04943 0.93819 0.0
C913 C 0.72852 0.04146 0.96868 0.0
C914 C 0.63794 0.06884 0.8786 0.0
C915 C 0.62253 0.06274 0.93353 0.0
C916 C 0.65992 0.06002 0.87843 0.0
C917 C 0.66665 0.04474 0.93253 0.0
C918 C 0.65174 0.03965 0.98951 0.0
C919 C 0.63 0.0487 0.99037 0.0
H920 H 0.47992 0.7361 0.05245 0.0
H921 H 0.54593 0.70649 0.02032 0.0
H922 H 0.4623 0.70379 0.99175 0.0
H923 H 0.52842 0.6742 0.95819 0.0
H924 H 0.49184 0.6216 0.83505 0.0
H925 H 0.50259 0.66122 0.85205 0.0
H926 H 0.46275 0.66325 0.04832 0.0
H927 H 0.45172 0.62352 0.02992 0.0
C928 C 0.49062 0.72307 0.02916 0.0
C929 C 0.51411 0.72347 0.03993 0.0
C930 C 0.48059 0.70466 0.99514 0.0
C931 C 0.49405 0.68667 0.97095 0.0
C932 C 0.51778 0.68811 0.97593 0.0
C933 C 0.52781 0.70644 1.01104 0.0
C934 C 0.48481 0.63087 0.88019 0.0
C935 C 0.47106 0.61987 0.93124 0.0
C936 C 0.491 0.65336 0.89004 0.0
C937 C 0.48352 0.66505 0.95139 0.0
C938 C 0.46842 0.65453 0.99996 0.0
C939 C 0.46217 0.63194 0.98982 0.0
H940 H 0.83368 0.54859 1.01175 0.0
H941 H 0.80256 0.48326 0.04662 0.0
H942 H 0.86485 0.53017 0.94718 0.0
H943 H 0.83376 0.46471 0.98326 0.0
H944 H 0.91372 0.45186 0.01745 0.0
H945 H 0.87427 0.46343 0.03624 0.0
H946 H 0.87707 0.50452 0.84204 0.0
H947 H 0.91642 0.49328 0.82502 0.0
C948 C 0.8331 0.53044 1.00245 0.0
C949 C 0.81601 0.5172 0.03306 0.0
C950 C 0.85083 0.51987 0.96594 0.0
C951 C 0.85161 0.49603 0.96106 0.0
C952 C 0.83345 0.48307 0.98663 0.0
C953 C 0.81565 0.49364 0.02214 0.0
C954 C 0.9055 0.46265 0.97771 0.0
C955 C 0.91774 0.47175 0.91975 0.0
C956 C 0.88305 0.46923 0.98809 0.0
C957 C 0.87283 0.48489 0.94039 0.0
C958 C 0.88465 0.49248 0.87937 0.0
C959 C 0.90699 0.48598 0.86937 0.0
H960 H 0.98384 0.21257 0.83522 0.0
H961 H 0.05546 0.21258 0.79362 0.0
H962 H 0.98164 0.17284 0.79587 0.0
H963 H 0.05353 0.17301 0.75516 0.0
H964 H 0.04398 0.10171 0.659 0.0
H965 H 0.04361 0.143 0.67707 0.0
H966 H 0.99012 0.13541 0.83437 0.0
H967 H 0.99049 0.09427 0.81508 0.0
C968 C 0.99905 0.20438 0.81559 0.0
C969 C 0.01979 0.21626 0.81719 0.0
C970 C 0.99792 0.18123 0.79416 0.0
C971 C 1.01747 0.16892 0.77306 0.0
C972 C 0.03793 0.18135 0.77045 0.0
C973 C 0.03907 0.20435 0.79246 0.0
C974 C 0.03206 0.10889 0.69719 0.0
C975 C 1.01728 0.09441 0.73552 0.0
C976 C 0.03192 0.13275 0.70816 0.0
C977 C 1.01688 0.14323 0.7578 0.0
C978 C 1.00182 0.12858 0.79497 0.0
C979 C 1.00209 0.10473 0.78425 0.0
H980 H 0.32313 0.04247 0.74438 0.0
H981 H 0.33654 1.00115 0.93202 0.0
H982 H 0.36279 0.03876 0.70655 0.0
H983 H 0.3763 0.99768 0.89526 0.0
H984 H 0.45012 0.02504 0.86602 0.0
H985 H 0.40955 0.02328 0.89192 0.0
H986 H 0.39561 1.01464 0.66429 0.0
H987 H 0.43654 1.01562 0.63865 0.0
C988 C 0.33428 0.03174 0.77613 0.0
C989 C 0.32604 0.02148 0.84037 0.0
C990 C 0.3573 0.02983 0.75479 0.0
C991 C 0.37333 1.01813 0.7979 0.0
C992 C 0.36486 1.0071 0.86052 0.0
C993 C 0.34176 1.00867 0.88108 0.0
C994 C 0.43851 0.02264 0.82121 0.0
C995 C 0.44703 1.02042 0.75007 0.0
C996 C 0.41502 0.02145 0.83624 0.0
C997 C 0.39877 1.0186 0.78065 0.0
C998 C 0.40727 1.01676 0.70908 0.0
C999 C 0.43091 1.01727 0.69425 0.0
H1000 H 0.48772 0.32661 0.76856 0.0
H1001 H 0.54547 0.33377 0.90878 0.0
H1002 H 0.49231 0.36587 0.72725 0.0
H1003 H 0.55018 0.37318 0.86785 0.0
H1004 H 0.53234 0.45054 0.85697 0.0
H1005 H 0.53232 0.4098 0.88368 0.0
H1006 H 0.51217 0.39593 0.66344 0.0
H1007 H 0.51273 0.43689 0.63674 0.0
C1008 C 0.50198 0.33628 0.78877 0.0
C1009 C 0.51651 0.32642 0.84119 0.0
C1010 C 0.50454 0.3591 0.76533 0.0
C1011 C 0.52148 0.37341 0.79437 0.0
C1012 C 0.53664 0.36321 0.84444 0.0
C1013 C 0.53425 0.34025 0.86712 0.0
C1014 C 0.52819 0.43881 0.81379 0.0
C1015 C 0.52293 0.44731 0.74418 0.0
C1016 C 0.52829 0.41521 0.82906 0.0
C1017 C 0.5225 0.3989 0.77594 0.0
C1018 C 0.51691 0.40751 0.7063 0.0
C1019 C 0.51737 0.43117 0.69058 0.0
H1020 H 0.20055 0.51136 0.93013 0.0
H1021 H 0.22179 0.52519 0.71122 0.0
H1022 H 0.16164 0.51063 0.89267 0.0
H1023 H 0.1818 0.52294 0.67123 0.0
H1024 H 0.10303 0.54165 0.6462 0.0
H1025 H 0.14412 0.54063 0.67027 0.0
H1026 H 0.13301 0.49124 0.83912 0.0
H1027 H 0.09269 0.49294 0.81762 0.0
C1028 C 0.19705 0.51357 0.87298 0.0
C1029 C 0.21494 0.51818 0.82435 0.0
C1030 C 0.17428 0.51302 0.85097 0.0
C1031 C 0.16779 0.51645 0.77818 0.0
C1032 C 0.18567 0.52035 0.72804 0.0
C1033 C 0.20884 0.52126 0.75075 0.0
C1034 C 0.10938 0.53059 0.68855 0.0
C1035 C 0.09402 0.51759 0.73034 0.0
C1036 C 0.13315 0.52984 0.70197 0.0
C1037 C 0.14253 0.51611 0.75758 0.0
C1038 C 0.12704 0.50263 0.79716 0.0
C1039 C 0.10352 0.50344 0.7842 0.0
H1040 H 0.05683 0.83113 0.61377 0.0
H1041 H 0.98423 0.82658 0.61861 0.0
H1042 H 0.05487 0.87043 0.65538 0.0
H1043 H 0.98201 0.86593 0.66107 0.0
H1044 H 0.98417 0.9445 0.63836 0.0
H1045 H 0.98537 0.90358 0.61958 0.0
H1046 H 0.04827 0.90005 0.73779 0.0
H1047 H 0.04698 0.94117 0.75695 0.0
C1048 C 0.04039 0.8382 0.62666 0.0
C1049 C 0.02074 0.82509 0.61435 0.0
C1050 C 0.0392 0.86107 0.65016 0.0
C1051 C 1.01823 0.87216 0.66115 0.0
C1052 C 0.99858 0.85862 0.65227 0.0
C1053 C 0.99982 0.83564 0.62931 0.0
C1054 C 0.99822 0.93509 0.66128 0.0
C1055 C 1.01547 0.94669 0.69929 0.0
C1056 C 0.99885 0.91127 0.65077 0.0
C1057 C 1.0169 0.89777 0.67714 0.0
C1058 C 0.03405 0.90938 0.71603 0.0
C1059 C 0.03328 0.93323 0.72733 0.0
H1060 H 0.70987 0.05748 0.62308 0.0
H1061 H 0.71299 0.98464 0.61299 0.0
H1062 H 0.67042 0.05554 0.66103 0.0
H1063 H 0.67339 0.98239 0.65228 0.0
H1064 H 0.59494 0.98643 0.63275 0.0
H1065 H 0.63581 0.98695 0.61385 0.0
H1066 H 0.64058 0.04854 0.73858 0.0
H1067 H 0.59964 0.04797 0.75775 0.0
C1068 C 0.70237 0.04091 0.6315 0.0
C1069 C 0.71515 1.02124 0.61591 0.0
C1070 C 0.67941 0.03974 0.65313 0.0
C1071 C 0.66787 1.01878 0.65936 0.0
C1072 C 0.68104 0.99899 0.64714 0.0
C1073 C 0.70414 1.00021 0.62592 0.0
C1074 C 0.60463 1.00003 0.65707 0.0
C1075 C 0.59344 1.01715 0.69698 0.0
C1076 C 0.62842 1.00027 0.64647 0.0
C1077 C 0.64226 1.01775 0.67477 0.0
C1078 C 0.63101 0.03474 0.71538 0.0
C1079 C 0.60724 0.03439 0.72664 0.0
H1080 H 0.49041 0.717 0.67201 0.0
H1081 H 0.54508 0.7082 0.52128 0.0
H1082 H 0.4945 0.67766 0.71202 0.0
H1083 H 0.54877 0.66854 0.55816 0.0
H1084 H 0.55795 0.59686 0.64898 0.0
H1085 H 0.5576 0.63765 0.62667 0.0
H1086 H 0.48744 0.64023 0.69141 0.0
H1087 H 0.48828 0.5995 0.71608 0.0
C1088 C 0.50385 0.70686 0.64879 0.0
C1089 C 0.51788 0.71644 0.59475 0.0
C1090 C 0.50591 0.68381 0.6706 0.0
C1091 C 0.52179 0.66888 0.63827 0.0
C1092 C 0.53642 0.67885 0.58609 0.0
C1093 C 0.53449 0.702 0.56495 0.0
C1094 C 0.54243 0.60609 0.65913 0.0
C1095 C 0.5232 0.59437 0.68522 0.0
C1096 C 0.54213 0.62984 0.64555 0.0
C1097 C 0.52245 0.6432 0.65638 0.0
C1098 C 0.50322 0.63135 0.6829 0.0
C1099 C 0.50362 0.6076 0.69707 0.0
H1100 H 0.8325 0.5473 0.52221 0.0
H1101 H 0.82491 0.49041 0.66624 0.0
H1102 H 0.87204 0.55114 0.55869 0.0
H1103 H 0.86408 0.49462 0.70604 0.0
H1104 H 0.94174 0.48926 0.70935 0.0
H1105 H 0.90118 0.4883 0.68444 0.0
H1106 H 0.90315 0.55928 0.62561 0.0
H1107 H 0.94393 0.55961 0.64688 0.0
C1108 C 0.83894 0.53622 0.56439 0.0
C1109 C 0.82492 0.51892 0.59231 0.0
C1110 C 0.86202 0.53824 0.58528 0.0
C1111 C 0.87228 0.52303 0.63533 0.0
C1112 C 0.85772 0.50649 0.66612 0.0
C1113 C 0.83476 0.50434 0.64449 0.0
C1114 C 0.93353 0.50473 0.69136 0.0
C1115 C 0.94654 0.52452 0.68067 0.0
C1116 C 0.90989 0.50428 0.67719 0.0
C1117 C 0.8979 0.52374 0.65265 0.0
C1118 C 0.91107 0.54364 0.64302 0.0
C1119 C 0.93478 0.54394 0.65595 0.0
loop_
_geom_bond_atom_site_label_1
_geom_bond_atom_site_label_2
_geom_bond_distance
_geom_bond_site_symmetry_2
_ccdc_geom_bond_type
C0 C1 1.391 . S
C0 C4 1.391 . S
C0 H42 0.948 . S
C1 C0 1.391 . S
C1 C2 1.391 . S
C2 C1 1.391 . S
C2 H58 0.947 . S
C2 C59 1.392 . S
C3 C4 1.391 . S
C3 C7 1.397 . S
C3 C59 1.419 . S
C4 C0 1.391 . S
C4 C3 1.391 . S
C4 C5 1.399 . S
C5 C4 1.399 . S
C5 C8 1.396 . S
C5 C17 1.453 . S
C5 C18 1.684 . S
H6 C30 0.948 . S
C7 C3 1.397 . S
C7 C8 1.394 . S
C7 C26 1.723 . S
C8 C5 1.396 . S
C8 C7 1.394 . S
C8 C38 1.723 . S
H9 C32 0.947 . S
H10 C33 0.948 . S
H11 C39 0.982 . S
H12 C40 0.979 . S
H13 C40 0.980 . S
H14 C40 0.983 . S
H15 C39 0.979 . S
H16 C39 0.977 . S
C17 C5 1.453 . S
C17 H46 0.982 . S
C17 H47 0.979 . S
C17 H48 0.977 . S
C18 C5 1.684 . S
C18 H43 0.979 . S
C18 H44 0.980 . S
C18 H45 0.983 . S
C19 C20 1.391 . S
C19 C24 1.391 . S
C19 H49 0.948 . S
C20 C19 1.391 . S
C20 C21 1.391 . S
C21 C20 1.391 . S
C21 C22 1.392 . S
C21 H50 0.947 . S
C22 C21 1.392 . S
C22 C23 1.419 . S
C22 H51 0.948 . S
C23 C22 1.419 . S
C23 C24 1.391 . S
C23 C27 1.397 . S
C24 C19 1.391 . S
C24 C23 1.391 . S
C24 C25 1.399 . S
C25 C24 1.399 . S
C25 C26 1.396 . S
C25 C28 1.453 . S
C25 C29 1.684 . S
C26 C7 1.723 . S
C26 C25 1.396 . S
C26 C27 1.394 . S
C27 C23 1.397 . S
C27 C26 1.394 . S
C27 C37 1.723 . S
C28 C25 1.453 . S
C28 H52 0.982 . S
C28 H53 0.979 . S
C28 H54 0.977 . S
C29 C25 1.684 . S
C29 H55 0.979 . S
C29 H56 0.980 . S
C29 H57 0.983 . S
C30 H6 0.948 . S
C30 C31 1.391 . S
C30 C35 1.391 . S
C31 C30 1.391 . S
C31 C32 1.391 . S
C32 H9 0.947 . S
C32 C31 1.391 . S
C32 C33 1.392 . S
C33 H10 0.948 . S
C33 C32 1.392 . S
C33 C34 1.419 . S
C34 C33 1.419 . S
C34 C35 1.391 . S
C34 C38 1.397 . S
C35 C30 1.391 . S
C35 C34 1.391 . S
C35 C36 1.399 . S
C36 C35 1.399 . S
C36 C37 1.396 . S
C36 C39 1.453 . S
C36 C40 1.684 . S
C37 C27 1.723 . S
C37 C36 1.396 . S
C37 C38 1.394 . S
C38 C8 1.723 . S
C38 C34 1.397 . S
C38 C37 1.394 . S
C39 H11 0.982 . S
C39 H15 0.979 . S
C39 H16 0.977 . S
C39 C36 1.453 . S
C40 H12 0.979 . S
C40 H13 0.980 . S
C40 H14 0.983 . S
C40 C36 1.684 . S
H41 C59 0.948 . S
H42 C0 0.948 . S
H43 C18 0.979 . S
H44 C18 0.980 . S
H45 C18 0.983 . S
H46 C17 0.982 . S
H47 C17 0.979 . S
H48 C17 0.977 . S
H49 C19 0.948 . S
H50 C21 0.947 . S
H51 C22 0.948 . S
H52 C28 0.982 . S
H53 C28 0.979 . S
H54 C28 0.977 . S
H55 C29 0.979 . S
H56 C29 0.980 . S
H57 C29 0.983 . S
H58 C2 0.947 . S
C59 C2 1.392 . S
C59 C3 1.419 . S
C59 H41 0.948 . S
C60 C61 1.391 . S
C60 C64 1.391 . S
C60 H102 0.948 . S
C61 C60 1.391 . S
C61 C62 1.391 . S
C62 C61 1.391 . S
C62 H118 0.947 . S
C62 C119 1.392 . S
C63 C64 1.391 . S
C63 C67 1.397 1_655 S
C63 C119 1.419 . S
C64 C60 1.391 . S
C64 C63 1.391 . S
C64 C65 1.399 . S
C65 C64 1.399 . S
C65 C68 1.396 1_655 S
C65 C77 1.453 1_655 S
C65 C78 1.684 . S
H66 C90 0.948 . S
C67 C63 1.397 1_455 S
C67 C68 1.394 . S
C67 C86 1.723 . S
C68 C65 1.396 1_455 S
C68 C67 1.394 . S
C68 C98 1.723 . S
H69 C92 0.947 . S
H70 C93 0.948 . S
H71 C99 0.982 . S
H72 C100 0.979 . S
H73 C100 0.980 . S
H74 C100 0.983 . S
H75 C99 0.979 . S
H76 C99 0.977 . S
C77 C65 1.453 1_455 S
C77 H106 0.982 . S
C77 H107 0.979 . S
C77 H108 0.977 . S
C78 C65 1.684 . S
C78 H103 0.979 . S
C78 H104 0.980 . S
C78 H105 0.983 . S
C79 C80 1.391 . S
C79 C84 1.391 . S
C79 H109 0.948 . S
C80 C79 1.391 . S
C80 C81 1.391 . S
C81 C80 1.391 . S
C81 C82 1.392 . S
C81 H110 0.947 . S
C82 C81 1.392 . S
C82 C83 1.419 . S
C82 H111 0.948 . S
C83 C82 1.419 . S
C83 C84 1.391 . S
C83 C87 1.397 1_655 S
C84 C79 1.391 . S
C84 C83 1.391 . S
C84 C85 1.399 . S
C85 C84 1.399 . S
C85 C86 1.396 1_655 S
C85 C88 1.453 1_655 S
C85 C89 1.684 . S
C86 C67 1.723 . S
C86 C85 1.396 1_455 S
C86 C87 1.394 . S
C87 C83 1.397 1_455 S
C87 C86 1.394 . S
C87 C97 1.723 . S
C88 C85 1.453 1_455 S
C88 H112 0.982 . S
C88 H113 0.979 . S
C88 H114 0.977 . S
C89 C85 1.684 . S
C89 H115 0.979 . S
C89 H116 0.980 . S
C89 H117 0.983 . S
C90 H66 0.948 . S
C90 C91 1.391 . S
C90 C95 1.391 . S
C91 C90 1.391 . S
C91 C92 1.391 . S
C92 H69 0.947 . S
C92 C91 1.391 . S
C92 C93 1.392 . S
C93 H70 0.948 . S
C93 C92 1.392 . S
C93 C94 1.419 . S
C94 C93 1.419 . S
C94 C95 1.391 . S
C94 C98 1.397 1_655 S
C95 C90 1.391 . S
C95 C94 1.391 . S
C95 C96 1.399 . S
C96 C95 1.399 . S
C96 C97 1.396 1_655 S
C96 C99 1.453 1_655 S
C96 C100 1.684 . S
C97 C87 1.723 . S
C97 C96 1.396 1_455 S
C97 C98 1.394 . S
C98 C68 1.723 . S
C98 C94 1.397 1_455 S
C98 C97 1.394 . S
C99 H71 0.982 . S
C99 H75 0.979 . S
C99 H76 0.977 . S
C99 C96 1.453 1_455 S
C100 H72 0.979 . S
C100 H73 0.980 . S
C100 H74 0.983 . S
C100 C96 1.684 . S
H101 C119 0.948 . S
H102 C60 0.948 . S
H103 C78 0.979 . S
H104 C78 0.980 . S
H105 C78 0.983 . S
H106 C77 0.982 . S
H107 C77 0.979 . S
H108 C77 0.977 . S
H109 C79 0.948 . S
H110 C81 0.947 . S
H111 C82 0.948 . S
H112 C88 0.982 . S
H113 C88 0.979 . S
H114 C88 0.977 . S
H115 C89 0.979 . S
H116 C89 0.980 . S
H117 C89 0.983 . S
H118 C62 0.947 . S
C119 C62 1.392 . S
C119 C63 1.419 . S
C119 H101 0.948 . S
C120 C121 1.391 . S
C120 C124 1.391 . S
C120 H162 0.948 . S
C121 C120 1.391 . S
C121 C122 1.391 . S
C122 C121 1.391 . S
C122 H178 0.947 . S
C122 C179 1.392 . S
C123 C124 1.391 . S
C123 C127 1.397 1_565 S
C123 C179 1.419 . S
C124 C120 1.391 . S
C124 C123 1.391 . S
C124 C125 1.399 . S
C125 C124 1.399 . S
C125 C128 1.396 1_565 S
C125 C137 1.453 1_565 S
C125 C138 1.684 . S
H126 C150 0.948 . S
C127 C123 1.397 1_545 S
C127 C128 1.394 . S
C127 C146 1.723 . S
C128 C125 1.396 1_545 S
C128 C127 1.394 . S
C128 C158 1.723 . S
H129 C152 0.947 . S
H130 C153 0.948 . S
H131 C159 0.982 . S
H132 C160 0.979 . S
H133 C160 0.980 . S
H134 C160 0.983 . S
H135 C159 0.979 . S
H136 C159 0.977 . S
C137 C125 1.453 1_545 S
C137 H166 0.982 . S
C137 H167 0.979 . S
C137 H168 0.977 . S
C138 C125 1.684 . S
C138 H163 0.979 . S
C138 H164 0.980 . S
C138 H165 0.983 . S
C139 C140 1.391 . S
C139 C144 1.391 . S
C139 H169 0.948 . S
C140 C139 1.391 . S
C140 C141 1.391 . S
C141 C140 1.391 . S
C141 C142 1.392 . S
C141 H170 0.947 . S
C142 C141 1.392 . S
C142 C143 1.419 . S
C142 H171 0.948 . S
C143 C142 1.419 . S
C143 C144 1.391 . S
C143 C147 1.397 1_565 S
C144 C139 1.391 . S
C144 C143 1.391 . S
C144 C145 1.399 . S
C145 C144 1.399 . S
C145 C146 1.396 1_565 S
C145 C148 1.453 1_565 S
C145 C149 1.684 . S
C146 C127 1.723 . S
C146 C145 1.396 1_545 S
C146 C147 1.394 . S
C147 C143 1.397 1_545 S
C147 C146 1.394 . S
C147 C157 1.723 . S
C148 C145 1.453 1_545 S
C148 H172 0.982 . S
C148 H173 0.979 . S
C148 H174 0.977 . S
C149 C145 1.684 . S
C149 H175 0.979 . S
C149 H176 0.980 . S
C149 H177 0.983 . S
C150 H126 0.948 . S
C150 C151 1.391 . S
C150 C155 1.391 . S
C151 C150 1.391 . S
C151 C152 1.391 . S
C152 H129 0.947 . S
C152 C151 1.391 . S
C152 C153 1.392 . S
C153 H130 0.948 . S
C153 C152 1.392 . S
C153 C154 1.419 . S
C154 C153 1.419 . S
C154 C155 1.391 . S
C154 C158 1.397 1_565 S
C155 C150 1.391 . S
C155 C154 1.391 . S
C155 C156 1.399 . S
C156 C155 1.399 . S
C156 C157 1.396 1_565 S
C156 C159 1.453 1_565 S
C156 C160 1.684 . S
C157 C147 1.723 . S
C157 C156 1.396 1_545 S
C157 C158 1.394 . S
C158 C128 1.723 . S
C158 C154 1.397 1_545 S
C158 C157 1.394 . S
C159 H131 0.982 . S
C159 H135 0.979 . S
C159 H136 0.977 . S
C159 C156 1.453 1_545 S
C160 H132 0.979 . S
C160 H133 0.980 . S
C160 H134 0.983 . S
C160 C156 1.684 . S
H161 C179 0.948 . S
H162 C120 0.948 . S
H163 C138 0.979 . S
H164 C138 0.980 . S
H165 C138 0.983 . S
H166 C137 0.982 . S
H167 C137 0.979 . S
H168 C137 0.977 . S
H169 C139 0.948 . S
H170 C141 0.947 . S
H171 C142 0.948 . S
H172 C148 0.982 . S
H173 C148 0.979 . S
H174 C148 0.977 . S
H175 C149 0.979 . S
H176 C149 0.980 . S
H177 C149 0.983 . S
H178 C122 0.947 . S
C179 C122 1.392 . S
C179 C123 1.419 . S
C179 H161 0.948 . S
C180 C181 1.391 . S
C180 C184 1.391 . S
C180 H222 0.948 . S
C181 C180 1.391 . S
C181 C182 1.391 . S
C182 C181 1.391 . S
C182 H238 0.947 . S
C182 C239 1.392 . S
C183 C184 1.391 . S
C183 C187 1.397 . S
C183 C239 1.419 . S
C184 C180 1.391 . S
C184 C183 1.391 . S
C184 C185 1.399 . S
C185 C184 1.399 . S
C185 C188 1.396 . S
C185 C197 1.453 . S
C185 C198 1.684 . S
H186 C210 0.948 . S
C187 C183 1.397 . S
C187 C188 1.394 . S
C187 C206 1.723 . S
C188 C185 1.396 . S
C188 C187 1.394 . S
C188 C218 1.723 . S
H189 C212 0.947 . S
H190 C213 0.948 . S
H191 C219 0.982 . S
H192 C220 0.979 . S
H193 C220 0.980 . S
H194 C220 0.983 . S
H195 C219 0.979 . S
H196 C219 0.977 . S
C197 C185 1.453 . S
C197 H226 0.982 . S
C197 H227 0.979 . S
C197 H228 0.977 . S
C198 C185 1.684 . S
C198 H223 0.979 . S
C198 H224 0.980 . S
C198 H225 0.983 . S
C199 C200 1.391 . S
C199 C204 1.391 . S
C199 H229 0.948 . S
C200 C199 1.391 . S
C200 C201 1.391 . S
C201 C200 1.391 . S
C201 C202 1.392 . S
C201 H230 0.947 . S
C202 C201 1.392 . S
C202 C203 1.419 . S
C202 H231 0.948 . S
C203 C202 1.419 . S
C203 C204 1.391 . S
C203 C207 1.397 . S
C204 C199 1.391 . S
C204 C203 1.391 . S
C204 C205 1.399 . S
C205 C204 1.399 . S
C205 C206 1.396 . S
C205 C208 1.453 . S
C205 C209 1.684 . S
C206 C187 1.723 . S
C206 C205 1.396 . S
C206 C207 1.394 . S
C207 C203 1.397 . S
C207 C206 1.394 . S
C207 C217 1.723 . S
C208 C205 1.453 . S
C208 H232 0.982 . S
C208 H233 0.979 . S
C208 H234 0.977 . S
C209 C205 1.684 . S
C209 H235 0.979 . S
C209 H236 0.980 . S
C209 H237 0.983 . S
C210 H186 0.948 . S
C210 C211 1.391 . S
C210 C215 1.391 . S
C211 C210 1.391 . S
C211 C212 1.391 . S
C212 H189 0.947 . S
C212 C211 1.391 . S
C212 C213 1.392 . S
C213 H190 0.948 . S
C213 C212 1.392 . S
C213 C214 1.419 . S
C214 C213 1.419 . S
C214 C215 1.391 . S
C214 C218 1.397 . S
C215 C210 1.391 . S
C215 C214 1.391 . S
C215 C216 1.399 . S
C216 C215 1.399 . S
C216 C217 1.396 . S
C216 C219 1.453 . S
C216 C220 1.684 . S
C217 C207 1.723 . S
C217 C216 1.396 . S
C217 C218 1.394 . S
C218 C188 1.723 . S
C218 C214 1.397 . S
C218 C217 1.394 . S
C219 H191 0.982 . S
C219 H195 0.979 . S
C219 H196 0.977 . S
C219 C216 1.453 . S
C220 H192 0.979 . S
C220 H193 0.980 . S
C220 H194 0.983 . S
C220 C216 1.684 . S
H221 C239 0.948 . S
H222 C180 0.948 . S
H223 C198 0.979 . S
H224 C198 0.980 . S
H225 C198 0.983 . S
H226 C197 0.982 . S
H227 C197 0.979 . S
H228 C197 0.977 . S
H229 C199 0.948 . S
H230 C201 0.947 . S
H231 C202 0.948 . S
H232 C208 0.982 . S
H233 C208 0.979 . S
H234 C208 0.977 . S
H235 C209 0.979 . S
H236 C209 0.980 . S
H237 C209 0.983 . S
H238 C182 0.947 . S
C239 C182 1.392 . S
C239 C183 1.419 . S
C239 H221 0.948 . S
C240 C241 1.391 . S
C240 C244 1.391 . S
C240 H282 0.948 . S
C241 C240 1.391 . S
C241 C242 1.391 . S
C242 C241 1.391 . S
C242 H298 0.947 . S
C242 C299 1.392 . S
C243 C244 1.391 . S
C243 C247 1.397 . S
C243 C299 1.419 . S
C244 C240 1.391 . S
C244 C243 1.391 . S
C244 C245 1.399 1_554 S
C245 C244 1.399 1_556 S
C245 C248 1.396 . S
C245 C257 1.453 . S
C245 C258 1.684 . S
H246 C270 0.948 . S
C247 C243 1.397 . S
C247 C248 1.394 1_554 S
C247 C266 1.723 . S
C248 C245 1.396 . S
C248 C247 1.394 1_556 S
C248 C278 1.723 . S
H249 C272 0.947 . S
H250 C273 0.948 . S
H251 C279 0.982 . S
H252 C280 0.979 . S
H253 C280 0.980 1_554 S
H254 C280 0.983 . S
H255 C279 0.979 . S
H256 C279 0.977 1_554 S
C257 C245 1.453 . S
C257 H286 0.982 . S
C257 H287 0.979 . S
C257 H288 0.977 . S
C258 C245 1.684 . S
C258 H283 0.979 . S
C258 H284 0.980 . S
C258 H285 0.983 . S
C259 C260 1.391 . S
C259 C264 1.391 . S
C259 H289 0.948 . S
C260 C259 1.391 . S
C260 C261 1.391 . S
C261 C260 1.391 . S
C261 C262 1.392 . S
C261 H290 0.947 . S
C262 C261 1.392 . S
C262 C263 1.419 . S
C262 H291 0.948 . S
C263 C262 1.419 . S
C263 C264 1.391 . S
C263 C267 1.397 . S
C264 C259 1.391 . S
C264 C263 1.391 . S
C264 C265 1.399 . S
C265 C264 1.399 . S
C265 C266 1.396 . S
C265 C268 1.453 . S
C265 C269 1.684 . S
C266 C247 1.723 . S
C266 C265 1.396 . S
C266 C267 1.394 . S
C267 C263 1.397 . S
C267 C266 1.394 . S
C267 C277 1.724 1_554 S
C268 C265 1.453 . S
C268 H292 0.982 . S
C268 H293 0.979 . S
C268 H294 0.977 . S
C269 C265 1.684 . S
C269 H295 0.979 . S
C269 H296 0.980 . S
C269 H297 0.983 . S
C270 H246 0.948 . S
C270 C271 1.391 . S
C270 C275 1.391 . S
C271 C270 1.391 . S
C271 C272 1.391 . S
C272 H249 0.947 . S
C272 C271 1.391 . S
C272 C273 1.392 . S
C273 H250 0.948 . S
C273 C272 1.392 . S
C273 C274 1.419 . S
C274 C273 1.419 . S
C274 C275 1.391 . S
C274 C278 1.397 . S
C275 C270 1.391 . S
C275 C274 1.391 . S
C275 C276 1.399 . S
C276 C275 1.399 . S
C276 C277 1.396 . S
C276 C279 1.453 . S
C276 C280 1.684 . S
C277 C267 1.724 1_556 S
C277 C276 1.396 . S
C277 C278 1.394 . S
C278 C248 1.723 . S
C278 C274 1.397 . S
C278 C277 1.394 . S
C279 H251 0.982 . S
C279 H255 0.979 . S
C279 H256 0.977 1_556 S
C279 C276 1.453 . S
C280 H252 0.979 . S
C280 H253 0.980 1_556 S
C280 H254 0.983 . S
C280 C276 1.684 . S
H281 C299 0.948 . S
H282 C240 0.948 . S
H283 C258 0.979 . S
H284 C258 0.980 . S
H285 C258 0.983 . S
H286 C257 0.982 . S
H287 C257 0.979 . S
H288 C257 0.977 . S
H289 C259 0.948 . S
H290 C261 0.947 . S
H291 C262 0.948 . S
H292 C268 0.982 . S
H293 C268 0.979 . S
H294 C268 0.977 . S
H295 C269 0.979 . S
H296 C269 0.980 . S
H297 C269 0.983 . S
H298 C242 0.947 . S
C299 C242 1.392 . S
C299 C243 1.419 . S
C299 H281 0.948 . S
C300 C301 1.391 . S
C300 C304 1.391 . S
C300 H342 0.948 . S
C301 C300 1.391 . S
C301 C302 1.391 . S
C302 C301 1.391 . S
C302 H358 0.947 . S
C302 C359 1.392 . S
C303 C304 1.398 . S
C303 C307 1.395 1_655 S
C303 C359 1.424 . S
C304 C300 1.391 . S
C304 C303 1.398 . S
C304 C305 1.399 . S
C305 C304 1.399 . S
C305 C308 1.396 1_655 S
C305 C317 1.453 1_655 S
C305 C318 1.684 . S
H306 C330 0.948 . S
C307 C303 1.395 1_455 S
C307 C308 1.395 . S
C307 C326 1.723 . S
C308 C305 1.396 1_455 S
C308 C307 1.395 . S
C308 C338 1.723 . S
H309 C332 0.947 . S
H310 C333 0.948 . S
H311 C339 0.982 . S
H312 C340 0.979 . S
H313 C340 0.980 . S
H314 C340 0.983 . S
H315 C339 0.979 . S
H316 C339 0.977 . S
C317 C305 1.453 1_455 S
C317 H346 0.982 . S
C317 H347 0.979 . S
C317 H348 0.977 . S
C318 C305 1.684 . S
C318 H343 0.979 . S
C318 H344 0.980 . S
C318 H345 0.983 . S
C319 C320 1.391 . S
C319 C324 1.391 . S
C319 H349 0.948 . S
C320 C319 1.391 . S
C320 C321 1.391 . S
C321 C320 1.391 . S
C321 C322 1.392 . S
C321 H350 0.947 . S
C322 C321 1.392 . S
C322 C323 1.424 . S
C322 H351 0.948 . S
C323 C322 1.424 . S
C323 C324 1.398 . S
C323 C327 1.395 1_655 S
C324 C319 1.391 . S
C324 C323 1.398 . S
C324 C325 1.399 . S
C325 C324 1.399 . S
C325 C326 1.396 1_656 S
C325 C328 1.453 1_655 S
C325 C329 1.684 . S
C326 C307 1.723 . S
C326 C325 1.396 1_454 S
C326 C327 1.395 1_554 S
C327 C323 1.395 1_455 S
C327 C326 1.395 1_556 S
C327 C337 1.723 . S
C328 C325 1.453 1_455 S
C328 H352 0.982 . S
C328 H353 0.979 . S
C328 H354 0.977 1_556 S
C329 C325 1.684 . S
C329 H355 0.979 . S
C329 H356 0.980 1_556 S
C329 H357 0.983 . S
C330 H306 0.948 . S
C330 C331 1.391 . S
C330 C335 1.391 . S
C331 C330 1.391 . S
C331 C332 1.391 . S
C332 H309 0.947 . S
C332 C331 1.391 . S
C332 C333 1.392 . S
C333 H310 0.948 . S
C333 C332 1.392 . S
C333 C334 1.424 . S
C334 C333 1.424 . S
C334 C335 1.398 . S
C334 C338 1.395 1_655 S
C335 C330 1.391 . S
C335 C334 1.398 . S
C335 C336 1.399 1_554 S
C336 C335 1.399 1_556 S
C336 C337 1.397 1_655 S
C336 C339 1.453 1_655 S
C336 C340 1.684 . S
C337 C327 1.723 . S
C337 C336 1.397 1_455 S
C337 C338 1.394 1_556 S
C338 C308 1.723 . S
C338 C334 1.395 1_455 S
C338 C337 1.394 1_554 S
C339 H311 0.982 . S
C339 H315 0.979 . S
C339 H316 0.977 . S
C339 C336 1.453 1_455 S
C340 H312 0.979 . S
C340 H313 0.980 . S
C340 H314 0.983 . S
C340 C336 1.684 . S
H341 C359 0.948 . S
H342 C300 0.948 . S
H343 C318 0.979 . S
H344 C318 0.980 . S
H345 C318 0.983 . S
H346 C317 0.982 . S
H347 C317 0.979 . S
H348 C317 0.977 . S
H349 C319 0.948 . S
H350 C321 0.947 . S
H351 C322 0.948 . S
H352 C328 0.982 . S
H353 C328 0.979 . S
H354 C328 0.977 1_554 S
H355 C329 0.979 . S
H356 C329 0.980 1_554 S
H357 C329 0.983 . S
H358 C302 0.947 . S
C359 C302 1.392 . S
C359 C303 1.424 . S
C359 H341 0.948 . S
C360 C361 1.391 . S
C360 C364 1.391 . S
C360 H402 0.948 . S
C361 C360 1.391 . S
C361 C362 1.391 . S
C362 C361 1.391 . S
C362 H418 0.947 . S
C362 C419 1.392 . S
C363 C364 1.391 . S
C363 C367 1.397 1_545 S
C363 C419 1.419 . S
C364 C360 1.391 . S
C364 C363 1.391 . S
C364 C365 1.399 . S
C365 C364 1.399 . S
C365 C368 1.396 1_545 S
C365 C377 1.453 1_545 S
C365 C378 1.684 . S
H366 C390 0.948 . S
C367 C363 1.397 1_565 S
C367 C368 1.394 . S
C367 C386 1.723 1_556 S
C368 C365 1.396 1_565 S
C368 C367 1.394 . S
C368 C398 1.723 1_556 S
H369 C392 0.947 1_556 S
H370 C393 0.948 1_556 S
H371 C399 0.982 . S
H372 C400 0.979 . S
H373 C400 0.980 . S
H374 C400 0.983 . S
H375 C399 0.979 . S
H376 C399 0.977 . S
C377 C365 1.453 1_565 S
C377 H406 0.982 . S
C377 H407 0.979 . S
C377 H408 0.977 . S
C378 C365 1.684 . S
C378 H403 0.979 . S
C378 H404 0.980 . S
C378 H405 0.983 . S
C379 C380 1.391 . S
C379 C384 1.391 . S
C379 H409 0.948 . S
C380 C379 1.391 . S
C380 C381 1.391 . S
C381 C380 1.391 . S
C381 C382 1.392 . S
C381 H410 0.947 . S
C382 C381 1.392 . S
C382 C383 1.419 . S
C382 H411 0.948 . S
C383 C382 1.419 . S
C383 C384 1.391 . S
C383 C387 1.397 1_545 S
C384 C379 1.391 . S
C384 C383 1.391 . S
C384 C385 1.399 . S
C385 C384 1.399 . S
C385 C386 1.396 1_545 S
C385 C388 1.453 1_545 S
C385 C389 1.684 . S
C386 C367 1.723 1_554 S
C386 C385 1.396 1_565 S
C386 C387 1.394 . S
C387 C383 1.397 1_565 S
C387 C386 1.394 . S
C387 C397 1.723 . S
C388 C385 1.453 1_565 S
C388 H412 0.982 . S
C388 H413 0.979 . S
C388 H414 0.977 1_554 S
C389 C385 1.684 . S
C389 H415 0.979 . S
C389 H416 0.980 1_554 S
C389 H417 0.983 . S
C390 H366 0.948 . S
C390 C391 1.391 . S
C390 C395 1.391 . S
C391 C390 1.391 . S
C391 C392 1.391 . S
C392 H369 0.947 1_554 S
C392 C391 1.391 . S
C392 C393 1.392 . S
C393 H370 0.948 1_554 S
C393 C392 1.392 . S
C393 C394 1.419 . S
C394 C393 1.419 . S
C394 C395 1.391 . S
C394 C398 1.397 1_545 S
C395 C390 1.391 . S
C395 C394 1.391 . S
C395 C396 1.399 . S
C396 C395 1.399 . S
C396 C397 1.396 1_545 S
C396 C399 1.453 1_545 S
C396 C400 1.684 . S
C397 C387 1.723 . S
C397 C396 1.396 1_565 S
C397 C398 1.394 . S
C398 C368 1.723 1_554 S
C398 C394 1.397 1_565 S
C398 C397 1.394 . S
C399 H371 0.982 . S
C399 H375 0.979 . S
C399 H376 0.977 . S
C399 C396 1.453 1_565 S
C400 H372 0.979 . S
C400 H373 0.980 . S
C400 H374 0.983 . S
C400 C396 1.684 . S
H401 C419 0.948 . S
H402 C360 0.948 . S
H403 C378 0.979 . S
H404 C378 0.980 . S
H405 C378 0.983 . S
H406 C377 0.982 . S
H407 C377 0.979 . S
H408 C377 0.977 . S
H409 C379 0.948 . S
H410 C381 0.947 . S
H411 C382 0.948 . S
H412 C388 0.982 . S
H413 C388 0.979 . S
H414 C388 0.977 1_556 S
H415 C389 0.979 . S
H416 C389 0.980 1_556 S
H417 C389 0.983 . S
H418 C362 0.947 . S
C419 C362 1.392 . S
C419 C363 1.419 . S
C419 H401 0.948 . S
C420 C421 1.391 . S
C420 C424 1.391 . S
C420 H462 0.948 . S
C421 C420 1.391 . S
C421 C422 1.391 . S
C422 C421 1.391 . S
C422 H478 0.947 . S
C422 C479 1.392 . S
C423 C424 1.391 . S
C423 C427 1.397 . S
C423 C479 1.419 . S
C424 C420 1.391 . S
C424 C423 1.391 . S
C424 C425 1.399 . S
C425 C424 1.399 . S
C425 C428 1.396 . S
C425 C437 1.453 . S
C425 C438 1.684 . S
H426 C450 0.948 . S
C427 C423 1.397 . S
C427 C428 1.394 . S
C427 C446 1.723 1_556 S
C428 C425 1.396 . S
C428 C427 1.394 . S
C428 C458 1.723 1_556 S
H429 C452 0.947 1_556 S
H430 C453 0.950 . S
H431 C459 0.982 . S
H432 C460 0.979 . S
H433 C460 0.980 . S
H434 C460 0.983 . S
H435 C459 0.979 . S
H436 C459 0.977 . S
C437 C425 1.453 . S
C437 H466 0.982 . S
C437 H467 0.979 . S
C437 H468 0.977 . S
C438 C425 1.684 . S
C438 H463 0.979 . S
C438 H464 0.980 . S
C438 H465 0.983 . S
C439 C440 1.391 . S
C439 C444 1.391 . S
C439 H469 0.948 . S
C440 C439 1.391 . S
C440 C441 1.391 . S
C441 C440 1.391 . S
C441 C442 1.392 . S
C441 H470 0.947 . S
C442 C441 1.392 . S
C442 C443 1.419 . S
C442 H471 0.948 . S
C443 C442 1.419 . S
C443 C444 1.391 . S
C443 C447 1.397 . S
C444 C439 1.391 . S
C444 C443 1.391 . S
C444 C445 1.399 . S
C445 C444 1.399 . S
C445 C446 1.396 . S
C445 C448 1.453 . S
C445 C449 1.684 . S
C446 C427 1.723 1_554 S
C446 C445 1.396 . S
C446 C447 1.394 . S
C447 C443 1.397 . S
C447 C446 1.394 . S
C447 C457 1.723 . S
C448 C445 1.453 . S
C448 H472 0.982 . S
C448 H473 0.979 . S
C448 H474 0.977 1_554 S
C449 C445 1.684 . S
C449 H475 0.979 . S
C449 H476 0.980 1_554 S
C449 H477 0.983 . S
C450 H426 0.948 . S
C450 C451 1.391 . S
C450 C455 1.391 . S
C451 C450 1.391 . S
C451 C452 1.391 . S
C452 H429 0.947 1_554 S
C452 C451 1.391 . S
C452 C453 1.391 1_554 S
C453 H430 0.950 . S
C453 C452 1.391 1_556 S
C453 C454 1.417 1_556 S
C454 C453 1.417 1_554 S
C454 C455 1.391 . S
C454 C458 1.397 . S
C455 C450 1.391 . S
C455 C454 1.391 . S
C455 C456 1.399 . S
C456 C455 1.399 . S
C456 C457 1.396 . S
C456 C459 1.453 . S
C456 C460 1.684 . S
C457 C447 1.723 . S
C457 C456 1.396 . S
C457 C458 1.394 . S
C458 C428 1.723 1_554 S
C458 C454 1.397 . S
C458 C457 1.394 . S
C459 H431 0.982 . S
C459 H435 0.979 . S
C459 H436 0.977 . S
C459 C456 1.453 . S
C460 H432 0.979 . S
C460 H433 0.980 . S
C460 H434 0.983 . S
C460 C456 1.684 . S
H461 C479 0.948 . S
H462 C420 0.948 . S
H463 C438 0.979 . S
H464 C438 0.980 . S
H465 C438 0.983 . S
H466 C437 0.982 . S
H467 C437 0.979 . S
H468 C437 0.977 . S
H469 C439 0.948 . S
H470 C441 0.947 . S
H471 C442 0.948 . S
H472 C448 0.982 . S
H473 C448 0.979 . S
H474 C448 0.977 1_556 S
H475 C449 0.979 . S
H476 C449 0.980 1_556 S
H477 C449 0.983 . S
H478 C422 0.947 . S
C479 C422 1.392 . S
C479 C423 1.419 . S
C479 H461 0.948 . S
La480 C482 2.928 . S
La480 O500 2.521 . S
La480 O501 2.628 . S
La480 O502 2.554 . S
La480 O503 2.757 1_565 S
La480 O504 2.470 . S
La480 O509 2.482 1_455 S
La480 O511 2.503 1_565 S
La481 C491 2.928 . S
La481 O503 2.482 1_655 S
La481 O505 2.503 1_545 S
La481 O506 2.521 . S
La481 O507 2.628 . S
La481 O508 2.554 . S
La481 O509 2.757 1_545 S
La481 O510 2.470 . S
C482 La480 2.928 . S
C482 C483 1.503 . S
C482 O500 1.261 . S
C482 O501 1.243 . S
C483 C482 1.503 . S
C483 C484 1.394 . S
C483 C488 1.373 . S
C484 C483 1.394 . S
C484 C485 1.380 . S
C484 H512 0.930 . S
C485 C484 1.380 . S
C485 C486 1.376 . S
C485 H513 0.930 . S
C486 C485 1.376 . S
C486 C487 1.370 . S
C487 C486 1.370 . S
C487 C488 1.396 . S
C487 H514 0.932 . S
C488 C483 1.373 . S
C488 C487 1.396 . S
C488 H515 0.929 1_455 S
C489 O502 1.269 . S
C489 O503 1.272 1_565 S
C490 O504 1.258 1_655 S
C490 O505 1.256 . S
C491 La481 2.928 . S
C491 C492 1.503 . S
C491 O506 1.261 . S
C491 O507 1.243 . S
C492 C491 1.503 . S
C492 C493 1.394 . S
C492 C497 1.373 . S
C493 C492 1.394 . S
C493 C494 1.380 . S
C493 H516 0.930 . S
C494 C493 1.380 . S
C494 C495 1.376 . S
C494 H517 0.930 . S
C495 C494 1.376 . S
C495 C496 1.370 . S
C496 C495 1.370 . S
C496 C497 1.396 . S
C496 H518 0.932 1_655 S
C497 C492 1.373 . S
C497 C496 1.396 . S
C497 H519 0.929 1_655 S
C498 O508 1.240 . S
C498 O509 1.289 1_545 S
C499 O510 1.258 1_455 S
C499 O511 1.256 . S
O500 La480 2.521 . S
O500 C482 1.261 . S
O501 La480 2.628 . S
O501 C482 1.243 . S
O502 La480 2.554 . S
O502 C489 1.269 . S
O503 La480 2.757 1_545 S
O503 La481 2.482 1_455 S
O503 C489 1.272 1_545 S
O504 La480 2.470 . S
O504 C490 1.258 1_455 S
O505 La481 2.503 1_565 S
O505 C490 1.256 . S
O506 La481 2.521 . S
O506 C491 1.261 . S
O507 La481 2.628 . S
O507 C491 1.243 . S
O508 La481 2.554 . S
O508 C498 1.240 . S
O509 La480 2.482 1_655 S
O509 La481 2.757 1_565 S
O509 C498 1.289 1_565 S
O510 La481 2.470 . S
O510 C499 1.258 1_655 S
O511 La480 2.503 1_545 S
O511 C499 1.256 . S
H512 C484 0.930 . S
H513 C485 0.930 . S
H514 C487 0.932 . S
H515 C488 0.929 1_655 S
H516 C493 0.930 . S
H517 C494 0.930 . S
H518 C496 0.932 1_455 S
H519 C497 0.929 1_455 S
La520 C522 2.928 . S
La520 O540 2.521 . S
La520 O541 2.628 . S
La520 O542 2.554 . S
La520 O543 2.757 . S
La520 O544 2.470 . S
La520 O549 2.482 1_545 S
La520 O551 2.503 . S
La521 C531 2.928 . S
La521 O543 2.482 1_565 S
La521 O545 2.503 . S
La521 O546 2.521 . S
La521 O547 2.628 . S
La521 O548 2.554 . S
La521 O549 2.757 . S
La521 O550 2.470 . S
C522 La520 2.928 . S
C522 C523 1.503 . S
C522 O540 1.261 . S
C522 O541 1.243 . S
C523 C522 1.503 . S
C523 C524 1.394 . S
C523 C528 1.373 . S
C524 C523 1.394 . S
C524 C525 1.380 . S
C524 H552 0.930 . S
C525 C524 1.380 . S
C525 C526 1.376 . S
C525 H553 0.930 . S
C526 C525 1.376 . S
C526 C527 1.370 . S
C527 C526 1.370 . S
C527 C528 1.396 . S
C527 H554 0.922 1_545 S
C528 C523 1.373 . S
C528 C527 1.396 . S
C528 H555 0.929 1_545 S
C529 O542 1.240 . S
C529 O543 1.289 . S
C530 O544 1.258 1_565 S
C530 O545 1.256 . S
C531 La521 2.928 . S
C531 C532 1.503 . S
C531 O546 1.261 . S
C531 O547 1.243 . S
C532 C531 1.503 . S
C532 C533 1.394 . S
C532 C537 1.373 . S
C533 C532 1.394 . S
C533 C534 1.380 . S
C533 H556 0.930 . S
C534 C533 1.380 . S
C534 C535 1.376 . S
C534 H557 0.930 . S
C535 C534 1.376 . S
C535 C536 1.370 . S
C536 C535 1.370 . S
C536 C537 1.396 . S
C536 H558 0.912 1_565 S
C537 C532 1.373 . S
C537 C536 1.396 . S
C537 H559 0.929 1_565 S
C538 O548 1.240 . S
C538 O549 1.289 . S
C539 O550 1.258 1_545 S
C539 O551 1.256 . S
O540 La520 2.521 . S
O540 C522 1.261 . S
O541 La520 2.628 . S
O541 C522 1.243 . S
O542 La520 2.554 . S
O542 C529 1.240 . S
O543 La520 2.757 . S
O543 La521 2.482 1_545 S
O543 C529 1.289 . S
O544 La520 2.470 . S
O544 C530 1.258 1_545 S
O545 La521 2.503 . S
O545 C530 1.256 . S
O546 La521 2.521 . S
O546 C531 1.261 . S
O547 La521 2.628 . S
O547 C531 1.243 . S
O548 La521 2.554 . S
O548 C538 1.240 . S
O549 La520 2.482 1_565 S
O549 La521 2.757 . S
O549 C538 1.289 . S
O550 La521 2.470 . S
O550 C539 1.258 1_565 S
O551 La520 2.503 . S
O551 C539 1.256 . S
H552 C524 0.930 . S
H553 C525 0.930 . S
H554 C527 0.922 1_565 S
H555 C528 0.929 1_565 S
H556 C533 0.930 . S
H557 C534 0.930 . S
H558 C536 0.912 1_545 S
H559 C537 0.929 1_545 S
La560 C562 2.928 . S
La560 O580 2.521 . S
La560 O581 2.628 . S
La560 O582 2.554 . S
La560 O583 2.757 . S
La560 O584 2.470 . S
La560 O589 2.482 . S
La560 O591 2.503 . S
La561 C571 2.928 . S
La561 O583 2.482 . S
La561 O585 2.503 . S
La561 O586 2.521 . S
La561 O587 2.628 . S
La561 O588 2.554 . S
La561 O589 2.757 . S
La561 O590 2.470 . S
C562 La560 2.928 . S
C562 C563 1.503 . S
C562 O580 1.261 . S
C562 O581 1.243 . S
C563 C562 1.503 . S
C563 C564 1.394 . S
C563 C568 1.373 . S
C564 C563 1.394 . S
C564 C565 1.380 . S
C564 H592 0.930 . S
C565 C564 1.380 . S
C565 C566 1.376 . S
C565 H593 0.930 . S
C566 C565 1.376 . S
C566 C567 1.370 . S
C567 C566 1.370 . S
C567 C568 1.396 . S
C567 H594 0.929 . S
C568 C563 1.373 . S
C568 C567 1.396 . S
C568 H595 0.929 . S
C569 O582 1.240 . S
C569 O583 1.289 . S
C570 O584 1.258 . S
C570 O585 1.256 . S
C571 La561 2.928 . S
C571 C572 1.503 . S
C571 O586 1.261 . S
C571 O587 1.243 . S
C572 C571 1.503 . S
C572 C573 1.394 . S
C572 C577 1.373 . S
C573 C572 1.394 . S
C573 C574 1.380 . S
C573 H596 0.930 . S
C574 C573 1.380 . S
C574 C575 1.376 . S
C574 H597 0.930 . S
C575 C574 1.376 . S
C575 C576 1.370 . S
C576 C575 1.370 . S
C576 C577 1.396 . S
C576 H598 0.929 . S
C577 C572 1.373 . S
C577 C576 1.396 . S
C577 H599 0.929 . S
C578 O588 1.240 . S
C578 O589 1.289 . S
C579 O590 1.258 . S
C579 O591 1.256 . S
O580 La560 2.521 . S
O580 C562 1.261 . S
O581 La560 2.628 . S
O581 C562 1.243 . S
O582 La560 2.554 . S
O582 C569 1.240 . S
O583 La560 2.757 . S
O583 La561 2.482 . S
O583 C569 1.289 . S
O584 La560 2.470 . S
O584 C570 1.258 . S
O585 La561 2.503 . S
O585 C570 1.256 . S
O586 La561 2.521 . S
O586 C571 1.261 . S
O587 La561 2.628 . S
O587 C571 1.243 . S
O588 La561 2.554 . S
O588 C578 1.240 . S
O589 La560 2.482 . S
O589 La561 2.757 . S
O589 C578 1.289 . S
O590 La561 2.470 . S
O590 C579 1.258 . S
O591 La560 2.503 . S
O591 C579 1.256 . S
H592 C564 0.930 . S
H593 C565 0.930 . S
H594 C567 0.929 . S
H595 C568 0.929 . S
H596 C573 0.930 . S
H597 C574 0.930 . S
H598 C576 0.929 . S
H599 C577 0.929 . S
La600 C602 2.928 . S
La600 O620 2.521 . S
La600 O621 2.628 . S
La600 O622 2.554 . S
La600 O623 2.757 1_655 S
La600 O624 2.470 . S
La600 O629 2.482 . S
La600 O631 2.503 1_655 S
La601 C611 2.928 . S
La601 O623 2.482 . S
La601 O625 2.503 1_455 S
La601 O626 2.521 . S
La601 O627 2.628 . S
La601 O628 2.554 . S
La601 O629 2.757 1_455 S
La601 O630 2.470 . S
C602 La600 2.928 . S
C602 C603 1.503 . S
C602 O620 1.261 . S
C602 O621 1.243 . S
C603 C602 1.503 . S
C603 C604 1.394 . S
C603 C608 1.373 . S
C604 C603 1.394 . S
C604 C605 1.380 . S
C604 H632 0.930 . S
C605 C604 1.380 . S
C605 C606 1.376 . S
C605 H633 0.930 . S
C606 C605 1.376 . S
C606 C607 1.370 . S
C607 C606 1.370 . S
C607 C608 1.396 . S
C607 H634 0.929 . S
C608 C603 1.373 . S
C608 C607 1.396 . S
C608 H635 0.929 . S
C609 O622 1.258 . S
C609 O623 1.279 1_655 S
C610 O624 1.258 . S
C610 O625 1.256 . S
C611 La601 2.928 . S
C611 C612 1.503 . S
C611 O626 1.261 . S
C611 O627 1.243 . S
C612 C611 1.503 . S
C612 C613 1.394 . S
C612 C617 1.373 . S
C613 C612 1.394 . S
C613 C614 1.380 . S
C613 H636 0.930 . S
C614 C613 1.380 . S
C614 C615 1.376 . S
C614 H637 0.930 . S
C615 C614 1.376 . S
C615 C616 1.370 . S
C616 C615 1.370 . S
C616 C617 1.396 . S
C616 H638 0.929 . S
C617 C612 1.373 . S
C617 C616 1.396 . S
C617 H639 0.929 . S
C618 O628 1.264 . S
C618 O629 1.275 1_455 S
C619 O630 1.258 . S
C619 O631 1.256 . S
O620 La600 2.521 . S
O620 C602 1.261 . S
O621 La600 2.628 . S
O621 C602 1.243 . S
O622 La600 2.554 . S
O622 C609 1.258 . S
O623 La600 2.757 1_455 S
O623 La601 2.482 . S
O623 C609 1.279 1_455 S
O624 La600 2.470 . S
O624 C610 1.258 . S
O625 La601 2.503 1_655 S
O625 C610 1.256 . S
O626 La601 2.521 . S
O626 C611 1.261 . S
O627 La601 2.628 . S
O627 C611 1.243 . S
O628 La601 2.554 . S
O628 C618 1.264 . S
O629 La600 2.482 . S
O629 La601 2.757 1_655 S
O629 C618 1.275 1_655 S
O630 La601 2.470 . S
O630 C619 1.258 . S
O631 La600 2.503 1_455 S
O631 C619 1.256 . S
H632 C604 0.930 . S
H633 C605 0.930 . S
H634 C607 0.929 . S
H635 C608 0.929 . S
H636 C613 0.930 . S
H637 C614 0.930 . S
H638 C616 0.929 . S
H639 C617 0.929 . S
H640 C648 0.950 . S
H641 C653 0.951 . S
H642 C650 0.950 . S
H643 C652 0.950 . S
H644 C654 0.950 . S
H645 C656 0.950 . S
H646 C658 0.950 . S
H647 C659 0.949 . S
C648 H640 0.950 . S
C648 C649 1.387 . S
C648 C650 1.391 . S
C649 C648 1.387 . S
C649 C653 1.391 1_565 S
C650 H642 0.950 . S
C650 C648 1.391 . S
C650 C651 1.400 1_565 S
C651 C650 1.400 1_545 S
C651 C652 1.398 . S
C651 C657 1.491 . S
C652 H643 0.950 . S
C652 C651 1.398 . S
C652 C653 1.391 . S
C653 H641 0.951 . S
C653 C649 1.391 1_545 S
C653 C652 1.391 . S
C654 H644 0.950 . S
C654 C655 1.386 . S
C654 C656 1.391 . S
C655 C654 1.386 . S
C655 C659 1.396 . S
C656 H645 0.950 . S
C656 C654 1.391 . S
C656 C657 1.400 . S
C657 C651 1.491 . S
C657 C656 1.400 . S
C657 C658 1.400 . S
C658 H646 0.950 . S
C658 C657 1.400 . S
C658 C659 1.391 . S
C659 H647 0.949 . S
C659 C655 1.396 . S
C659 C658 1.391 . S
H660 C668 0.950 . S
H661 C673 0.950 . S
H662 C670 0.950 . S
H663 C672 0.950 . S
H664 C674 0.950 . S
H665 C676 0.950 . S
H666 C678 0.950 . S
H667 C679 0.950 . S
C668 H660 0.950 . S
C668 C669 1.386 . S
C668 C670 1.391 . S
C669 C668 1.386 . S
C669 C673 1.393 . S
C670 H662 0.950 . S
C670 C668 1.391 . S
C670 C671 1.400 . S
C671 C670 1.400 . S
C671 C672 1.398 . S
C671 C677 1.491 . S
C672 H663 0.950 . S
C672 C671 1.398 . S
C672 C673 1.391 . S
C673 H661 0.950 . S
C673 C669 1.393 . S
C673 C672 1.391 . S
C674 H664 0.950 . S
C674 C675 1.386 . S
C674 C676 1.391 . S
C675 C674 1.386 . S
C675 C679 1.393 . S
C676 H665 0.950 . S
C676 C674 1.391 . S
C676 C677 1.400 . S
C677 C671 1.491 . S
C677 C676 1.400 . S
C677 C678 1.398 . S
C678 H666 0.950 . S
C678 C677 1.398 . S
C678 C679 1.391 . S
C679 H667 0.950 . S
C679 C675 1.393 . S
C679 C678 1.391 . S
H680 C688 0.950 . S
H681 C693 0.950 . S
H682 C690 0.950 . S
H683 C692 0.950 . S
H684 C694 0.950 . S
H685 C696 0.950 . S
H686 C698 0.950 . S
H687 C699 0.950 . S
C688 H680 0.950 . S
C688 C689 1.386 . S
C688 C690 1.391 . S
C689 C688 1.386 . S
C689 C693 1.393 . S
C690 H682 0.950 . S
C690 C688 1.391 . S
C690 C691 1.400 . S
C691 C690 1.400 . S
C691 C692 1.398 . S
C691 C697 1.491 . S
C692 H683 0.950 . S
C692 C691 1.398 . S
C692 C693 1.391 . S
C693 H681 0.950 . S
C693 C689 1.393 . S
C693 C692 1.391 . S
C694 H684 0.950 . S
C694 C695 1.386 . S
C694 C696 1.391 . S
C695 C694 1.386 . S
C695 C699 1.393 . S
C696 H685 0.950 . S
C696 C694 1.391 . S
C696 C697 1.400 . S
C697 C691 1.491 . S
C697 C696 1.400 . S
C697 C698 1.398 . S
C698 H686 0.950 . S
C698 C697 1.398 . S
C698 C699 1.391 . S
C699 H687 0.950 . S
C699 C695 1.393 . S
C699 C698 1.391 . S
H700 C708 0.950 . S
H701 C713 0.950 . S
H702 C710 0.950 . S
H703 C712 0.950 . S
H704 C714 0.950 . S
H705 C716 0.950 . S
H706 C718 0.950 . S
H707 C719 0.950 . S
C708 H700 0.950 . S
C708 C709 1.397 . S
C708 C710 1.391 . S
C709 C708 1.397 . S
C709 C713 1.381 1_455 S
C710 H702 0.950 . S
C710 C708 1.391 . S
C710 C711 1.437 . S
C711 C710 1.437 . S
C711 C712 1.361 1_455 S
C711 C717 1.492 . S
C712 H703 0.950 . S
C712 C711 1.361 1_655 S
C712 C713 1.391 . S
C713 H701 0.950 . S
C713 C709 1.381 1_655 S
C713 C712 1.391 . S
C714 H704 0.950 . S
C714 C715 1.386 1_655 S
C714 C716 1.391 . S
C715 C714 1.386 1_455 S
C715 C719 1.393 . S
C716 H705 0.950 . S
C716 C714 1.391 . S
C716 C717 1.400 1_655 S
C717 C711 1.492 . S
C717 C716 1.400 1_455 S
C717 C718 1.398 . S
C718 H706 0.950 . S
C718 C717 1.398 . S
C718 C719 1.391 . S
C719 H707 0.950 . S
C719 C715 1.393 . S
C719 C718 1.391 . S
H720 C728 0.950 . S
H721 C733 0.950 . S
H722 C730 0.950 . S
H723 C732 0.950 . S
H724 C734 0.950 . S
H725 C736 0.950 1_554 S
H726 C738 0.950 . S
H727 C739 0.950 . S
C728 H720 0.950 . S
C728 C729 1.397 . S
C728 C730 1.391 . S
C729 C728 1.397 . S
C729 C733 1.381 1_545 S
C730 H722 0.950 . S
C730 C728 1.391 . S
C730 C731 1.399 1_545 S
C731 C730 1.399 1_565 S
C731 C732 1.400 . S
C731 C737 1.490 . S
C732 H723 0.950 . S
C732 C731 1.400 . S
C732 C733 1.391 . S
C733 H721 0.950 . S
C733 C729 1.381 1_565 S
C733 C732 1.391 . S
C734 H724 0.950 . S
C734 C735 1.386 . S
C734 C736 1.391 . S
C735 C734 1.386 . S
C735 C739 1.393 1_565 S
C736 H725 0.950 1_556 S
C736 C734 1.391 . S
C736 C737 1.428 1_556 S
C737 C731 1.490 . S
C737 C736 1.428 1_554 S
C737 C738 1.373 1_564 S
C738 H726 0.950 . S
C738 C737 1.373 1_546 S
C738 C739 1.391 . S
C739 H727 0.950 . S
C739 C735 1.393 1_545 S
C739 C738 1.391 . S
H740 C748 0.950 . S
H741 C753 0.950 . S
H742 C750 0.950 . S
H743 C752 0.950 . S
H744 C754 0.950 . S
H745 C756 0.958 . S
H746 C758 0.950 . S
H747 C759 0.950 . S
C748 H740 0.950 . S
C748 C749 1.386 . S
C748 C750 1.391 . S
C749 C748 1.386 . S
C749 C753 1.393 . S
C750 H742 0.950 . S
C750 C748 1.391 . S
C750 C751 1.400 . S
C751 C750 1.400 . S
C751 C752 1.398 . S
C751 C757 1.502 . S
C752 H743 0.950 . S
C752 C751 1.398 . S
C752 C753 1.391 . S
C753 H741 0.950 . S
C753 C749 1.393 . S
C753 C752 1.391 . S
C754 H744 0.950 . S
C754 C755 1.386 . S
C754 C756 1.391 . S
C755 C754 1.386 . S
C755 C759 1.393 . S
C756 H745 0.958 . S
C756 C754 1.391 . S
C756 C757 1.395 1_556 S
C757 C751 1.502 . S
C757 C756 1.395 1_554 S
C757 C758 1.391 1_554 S
C758 H746 0.950 . S
C758 C757 1.391 1_556 S
C758 C759 1.391 . S
C759 H747 0.950 . S
C759 C755 1.393 . S
C759 C758 1.391 . S
H760 C768 0.950 . S
H761 C773 0.950 . S
H762 C770 0.950 . S
H763 C772 0.950 . S
H764 C774 0.950 . S
H765 C776 0.950 1_554 S
H766 C778 0.950 . S
H767 C779 0.950 . S
C768 H760 0.950 . S
C768 C769 1.386 . S
C768 C770 1.391 . S
C769 C768 1.386 . S
C769 C773 1.393 . S
C770 H762 0.950 . S
C770 C768 1.391 . S
C770 C771 1.400 . S
C771 C770 1.400 . S
C771 C772 1.398 . S
C771 C777 1.501 . S
C772 H763 0.950 . S
C772 C771 1.398 . S
C772 C773 1.391 . S
C773 H761 0.950 . S
C773 C769 1.393 . S
C773 C772 1.391 . S
C774 H764 0.950 . S
C774 C775 1.386 . S
C774 C776 1.391 . S
C775 C774 1.386 . S
C775 C779 1.393 . S
C776 H765 0.950 1_556 S
C776 C774 1.391 . S
C776 C777 1.399 1_556 S
C777 C771 1.501 . S
C777 C776 1.399 1_554 S
C777 C778 1.389 1_554 S
C778 H766 0.950 . S
C778 C777 1.389 1_556 S
C778 C779 1.391 . S
C779 H767 0.950 . S
C779 C775 1.393 . S
C779 C778 1.391 . S
H780 C788 0.950 . S
H781 C793 0.950 . S
H782 C790 0.950 . S
H783 C792 0.950 . S
H784 C794 0.950 . S
H785 C796 0.950 1_554 S
H786 C798 0.950 . S
H787 C799 0.950 . S
C788 H780 0.950 . S
C788 C789 1.382 . S
C788 C790 1.391 . S
C789 C788 1.382 . S
C789 C793 1.397 1_455 S
C790 H782 0.950 . S
C790 C788 1.391 . S
C790 C791 1.378 1_455 S
C791 C790 1.378 1_655 S
C791 C792 1.420 . S
C791 C797 1.488 1_554 S
C792 H783 0.950 . S
C792 C791 1.420 . S
C792 C793 1.391 . S
C793 H781 0.950 . S
C793 C789 1.397 1_655 S
C793 C792 1.391 . S
C794 H784 0.950 . S
C794 C795 1.386 . S
C794 C796 1.391 . S
C795 C794 1.386 . S
C795 C799 1.393 1_655 S
C796 H785 0.950 1_556 S
C796 C794 1.391 . S
C796 C797 1.401 . S
C797 C791 1.488 1_556 S
C797 C796 1.401 . S
C797 C798 1.401 1_655 S
C798 H786 0.950 . S
C798 C797 1.401 1_455 S
C798 C799 1.391 . S
C799 H787 0.950 . S
C799 C795 1.393 1_455 S
C799 C798 1.391 . S
H800 C808 0.950 . S
H801 C813 0.950 . S
H802 C810 0.950 . S
H803 C812 0.950 . S
H804 C814 0.950 . S
H805 C816 0.950 . S
H806 C818 0.950 . S
H807 C819 0.950 . S
C808 H800 0.950 . S
C808 C809 1.386 . S
C808 C810 1.391 1_455 S
C809 C808 1.386 . S
C809 C813 1.393 1_455 S
C810 H802 0.950 . S
C810 C808 1.391 1_655 S
C810 C811 1.400 . S
C811 C810 1.400 . S
C811 C812 1.398 . S
C811 C817 1.491 . S
C812 H803 0.950 . S
C812 C811 1.398 . S
C812 C813 1.391 . S
C813 H801 0.950 . S
C813 C809 1.393 1_655 S
C813 C812 1.391 . S
C814 H804 0.950 . S
C814 C815 1.386 . S
C814 C816 1.391 . S
C815 C814 1.386 . S
C815 C819 1.393 . S
C816 H805 0.950 . S
C816 C814 1.391 . S
C816 C817 1.400 . S
C817 C811 1.491 . S
C817 C816 1.400 . S
C817 C818 1.398 . S
C818 H806 0.950 . S
C818 C817 1.398 . S
C818 C819 1.391 . S
C819 H807 0.950 . S
C819 C815 1.393 . S
C819 C818 1.391 . S
H820 C828 0.950 . S
H821 C833 0.950 . S
H822 C830 0.950 . S
H823 C832 0.950 . S
H824 C834 0.950 . S
H825 C836 0.950 . S
H826 C838 0.950 . S
H827 C839 0.950 . S
C828 H820 0.950 . S
C828 C829 1.386 1_565 S
C828 C830 1.391 . S
C829 C828 1.386 1_545 S
C829 C833 1.393 . S
C830 H822 0.950 . S
C830 C828 1.391 . S
C830 C831 1.400 . S
C831 C830 1.400 . S
C831 C832 1.398 . S
C831 C837 1.491 . S
C832 H823 0.950 . S
C832 C831 1.398 . S
C832 C833 1.391 1_565 S
C833 H821 0.950 . S
C833 C829 1.393 . S
C833 C832 1.391 1_545 S
C834 H824 0.950 . S
C834 C835 1.386 . S
C834 C836 1.391 . S
C835 C834 1.386 . S
C835 C839 1.393 . S
C836 H825 0.950 . S
C836 C834 1.391 . S
C836 C837 1.400 . S
C837 C831 1.491 . S
C837 C836 1.400 . S
C837 C838 1.398 . S
C838 H826 0.950 . S
C838 C837 1.398 . S
C838 C839 1.391 . S
C839 H827 0.950 . S
C839 C835 1.393 . S
C839 C838 1.391 . S
H840 C848 0.950 . S
H841 C853 0.950 . S
H842 C850 0.950 . S
H843 C852 0.950 . S
H844 C854 0.950 . S
H845 C856 0.950 . S
H846 C858 0.950 . S
H847 C859 0.950 . S
C848 H840 0.950 . S
C848 C849 1.386 . S
C848 C850 1.391 . S
C849 C848 1.386 . S
C849 C853 1.393 . S
C850 H842 0.950 . S
C850 C848 1.391 . S
C850 C851 1.400 . S
C851 C850 1.400 . S
C851 C852 1.398 . S
C851 C857 1.491 . S
C852 H843 0.950 . S
C852 C851 1.398 . S
C852 C853 1.391 . S
C853 H841 0.950 . S
C853 C849 1.393 . S
C853 C852 1.391 . S
C854 H844 0.950 . S
C854 C855 1.386 . S
C854 C856 1.391 . S
C855 C854 1.386 . S
C855 C859 1.393 . S
C856 H845 0.950 . S
C856 C854 1.391 . S
C856 C857 1.400 . S
C857 C851 1.491 . S
C857 C856 1.400 . S
C857 C858 1.398 . S
C858 H846 0.950 . S
C858 C857 1.398 . S
C858 C859 1.391 . S
C859 H847 0.950 . S
C859 C855 1.393 . S
C859 C858 1.391 . S
H860 C868 0.950 . S
H861 C873 0.950 . S
H862 C870 0.950 . S
H863 C872 0.950 . S
H864 C874 0.950 . S
H865 C876 0.950 . S
H866 C878 0.950 . S
H867 C879 0.950 . S
C868 H860 0.950 . S
C868 C869 1.386 . S
C868 C870 1.391 . S
C869 C868 1.386 . S
C869 C873 1.393 . S
C870 H862 0.950 . S
C870 C868 1.391 . S
C870 C871 1.400 . S
C871 C870 1.400 . S
C871 C872 1.398 . S
C871 C877 1.491 . S
C872 H863 0.950 . S
C872 C871 1.398 . S
C872 C873 1.391 . S
C873 H861 0.950 . S
C873 C869 1.393 . S
C873 C872 1.391 . S
C874 H864 0.950 . S
C874 C875 1.386 . S
C874 C876 1.391 . S
C875 C874 1.386 . S
C875 C879 1.393 . S
C876 H865 0.950 . S
C876 C874 1.391 . S
C876 C877 1.400 . S
C877 C871 1.491 . S
C877 C876 1.400 . S
C877 C878 1.398 . S
C878 H866 0.950 . S
C878 C877 1.398 . S
C878 C879 1.391 . S
C879 H867 0.950 . S
C879 C875 1.393 . S
C879 C878 1.391 . S
H880 C888 0.950 . S
H881 C893 0.950 . S
H882 C890 0.950 . S
H883 C892 0.950 . S
H884 C894 0.950 . S
H885 C896 0.950 . S
H886 C898 0.950 1_655 S
H887 C899 0.950 . S
C888 H880 0.950 . S
C888 C889 1.386 . S
C888 C890 1.391 . S
C889 C888 1.386 . S
C889 C893 1.393 1_655 S
C890 H882 0.950 . S
C890 C888 1.391 . S
C890 C891 1.400 1_655 S
C891 C890 1.400 1_455 S
C891 C892 1.398 . S
C891 C897 1.491 . S
C892 H883 0.950 . S
C892 C891 1.398 . S
C892 C893 1.391 . S
C893 H881 0.950 . S
C893 C889 1.393 1_455 S
C893 C892 1.391 . S
C894 H884 0.950 . S
C894 C895 1.386 . S
C894 C896 1.391 . S
C895 C894 1.386 . S
C895 C899 1.393 . S
C896 H885 0.950 . S
C896 C894 1.391 . S
C896 C897 1.400 1_556 S
C897 C891 1.491 . S
C897 C896 1.400 1_554 S
C897 C898 1.398 . S
C898 H886 0.950 1_455 S
C898 C897 1.398 . S
C898 C899 1.391 1_554 S
C899 H887 0.950 . S
C899 C895 1.393 . S
C899 C898 1.391 1_556 S
H900 C908 0.950 . S
H901 C913 0.950 . S
H902 C910 0.950 . S
H903 C912 0.950 . S
H904 C914 0.950 . S
H905 C916 0.950 . S
H906 C918 0.926 1_565 S
H907 C919 0.950 1_554 S
C908 H900 0.950 . S
C908 C909 1.386 . S
C908 C910 1.391 . S
C909 C908 1.386 . S
C909 C913 1.393 1_565 S
C910 H902 0.950 . S
C910 C908 1.391 . S
C910 C911 1.400 1_565 S
C911 C910 1.400 1_545 S
C911 C912 1.398 . S
C911 C917 1.491 . S
C912 H903 0.950 . S
C912 C911 1.398 . S
C912 C913 1.391 . S
C913 H901 0.950 . S
C913 C909 1.393 1_545 S
C913 C912 1.391 . S
C914 H904 0.950 . S
C914 C915 1.386 . S
C914 C916 1.391 . S
C915 C914 1.386 . S
C915 C919 1.393 . S
C916 H905 0.950 . S
C916 C914 1.391 . S
C916 C917 1.400 1_556 S
C917 C911 1.491 . S
C917 C916 1.400 1_554 S
C917 C918 1.398 . S
C918 H906 0.926 1_545 S
C918 C917 1.398 . S
C918 C919 1.391 1_554 S
C919 H907 0.950 1_556 S
C919 C915 1.393 . S
C919 C918 1.391 1_556 S
H920 C928 0.950 . S
H921 C933 0.950 . S
H922 C930 0.950 . S
H923 C932 0.950 1_556 S
H924 C934 0.950 . S
H925 C936 0.950 . S
H926 C938 0.950 . S
H927 C939 0.950 . S
C928 H920 0.950 . S
C928 C929 1.386 . S
C928 C930 1.391 . S
C929 C928 1.386 . S
C929 C933 1.393 . S
C930 H922 0.950 . S
C930 C928 1.391 . S
C930 C931 1.400 . S
C931 C930 1.400 . S
C931 C932 1.398 . S
C931 C937 1.491 . S
C932 H923 0.950 1_554 S
C932 C931 1.398 . S
C932 C933 1.391 . S
C933 H921 0.950 . S
C933 C929 1.393 . S
C933 C932 1.391 . S
C934 H924 0.950 . S
C934 C935 1.386 . S
C934 C936 1.391 . S
C935 C934 1.386 . S
C935 C939 1.393 1_556 S
C936 H925 0.950 . S
C936 C934 1.391 . S
C936 C937 1.400 1_556 S
C937 C931 1.491 . S
C937 C936 1.400 1_554 S
C937 C938 1.398 . S
C938 H926 0.950 . S
C938 C937 1.398 . S
C938 C939 1.391 . S
C939 H927 0.950 . S
C939 C935 1.393 1_554 S
C939 C938 1.391 . S
H940 C948 0.950 . S
H941 C953 0.950 . S
H942 C950 0.950 1_556 S
H943 C952 0.950 . S
H944 C954 0.950 . S
H945 C956 0.950 . S
H946 C958 0.950 . S
H947 C959 0.950 . S
C948 H940 0.950 . S
C948 C949 1.386 . S
C948 C950 1.391 . S
C949 C948 1.386 . S
C949 C953 1.393 . S
C950 H942 0.950 1_554 S
C950 C948 1.391 . S
C950 C951 1.400 . S
C951 C950 1.400 . S
C951 C952 1.398 . S
C951 C957 1.491 . S
C952 H943 0.950 . S
C952 C951 1.398 . S
C952 C953 1.391 . S
C953 H941 0.950 . S
C953 C949 1.393 . S
C953 C952 1.391 . S
C954 H944 0.950 . S
C954 C955 1.386 1_554 S
C954 C956 1.391 . S
C955 C954 1.386 1_556 S
C955 C959 1.393 . S
C956 H945 0.950 . S
C956 C954 1.391 . S
C956 C957 1.400 . S
C957 C951 1.491 . S
C957 C956 1.400 . S
C957 C958 1.398 1_554 S
C958 H946 0.950 . S
C958 C957 1.398 1_556 S
C958 C959 1.391 . S
C959 H947 0.950 . S
C959 C955 1.393 . S
C959 C958 1.391 . S
H960 C968 0.950 . S
H961 C973 0.950 . S
H962 C970 0.950 . S
H963 C972 0.950 . S
H964 C974 0.950 . S
H965 C976 0.950 . S
H966 C978 0.950 . S
H967 C979 0.950 . S
C968 H960 0.950 . S
C968 C969 1.386 1_655 S
C968 C970 1.391 . S
C969 C968 1.386 1_455 S
C969 C973 1.393 . S
C970 H962 0.950 . S
C970 C968 1.391 . S
C970 C971 1.400 1_655 S
C971 C970 1.400 1_455 S
C971 C972 1.398 . S
C971 C977 1.491 . S
C972 H963 0.950 . S
C972 C971 1.398 . S
C972 C973 1.391 . S
C973 H961 0.950 . S
C973 C969 1.393 . S
C973 C972 1.391 . S
C974 H964 0.950 . S
C974 C975 1.386 . S
C974 C976 1.391 . S
C975 C974 1.386 . S
C975 C979 1.393 1_455 S
C976 H965 0.950 . S
C976 C974 1.391 . S
C976 C977 1.400 . S
C977 C971 1.491 . S
C977 C976 1.400 . S
C977 C978 1.398 1_455 S
C978 H966 0.950 . S
C978 C977 1.398 1_655 S
C978 C979 1.391 . S
C979 H967 0.950 . S
C979 C975 1.393 1_655 S
C979 C978 1.391 . S
H980 C988 0.950 . S
H981 C993 0.950 . S
H982 C990 0.950 . S
H983 C992 0.950 . S
H984 C994 0.941 1_565 S
H985 C996 0.965 . S
H986 C998 0.950 . S
H987 C999 0.950 . S
C988 H980 0.950 . S
C988 C989 1.386 . S
C988 C990 1.391 . S
C989 C988 1.386 . S
C989 C993 1.393 1_545 S
C990 H982 0.950 . S
C990 C988 1.391 . S
C990 C991 1.400 . S
C991 C990 1.400 . S
C991 C992 1.398 1_545 S
C991 C997 1.491 . S
C992 H983 0.950 . S
C992 C991 1.398 1_565 S
C992 C993 1.391 . S
C993 H981 0.950 . S
C993 C989 1.393 1_565 S
C993 C992 1.391 . S
C994 H984 0.941 1_545 S
C994 C995 1.395 . S
C994 C996 1.389 1_545 S
C995 C994 1.395 . S
C995 C999 1.393 . S
C996 H985 0.965 . S
C996 C994 1.389 1_565 S
C996 C997 1.388 1_565 S
C997 C991 1.491 . S
C997 C996 1.388 1_545 S
C997 C998 1.398 . S
C998 H986 0.950 . S
C998 C997 1.398 . S
C998 C999 1.391 . S
C999 H987 0.950 . S
C999 C995 1.393 . S
C999 C998 1.391 . S
H1000 C1008 0.950 . S
H1001 C1013 0.950 . S
H1002 C1010 0.950 . S
H1003 C1012 0.950 . S
H1004 C1014 0.950 . S
H1005 C1016 0.950 . S
H1006 C1018 0.950 . S
H1007 C1019 0.950 . S
C1008 H1000 0.950 . S
C1008 C1009 1.386 . S
C1008 C1010 1.391 . S
C1009 C1008 1.386 . S
C1009 C1013 1.393 . S
C1010 H1002 0.950 . S
C1010 C1008 1.391 . S
C1010 C1011 1.400 . S
C1011 C1010 1.400 . S
C1011 C1012 1.398 . S
C1011 C1017 1.491 . S
C1012 H1003 0.950 . S
C1012 C1011 1.398 . S
C1012 C1013 1.391 . S
C1013 H1001 0.950 . S
C1013 C1009 1.393 . S
C1013 C1012 1.391 . S
C1014 H1004 0.950 . S
C1014 C1015 1.386 . S
C1014 C1016 1.391 . S
C1015 C1014 1.386 . S
C1015 C1019 1.393 . S
C1016 H1005 0.950 . S
C1016 C1014 1.391 . S
C1016 C1017 1.400 . S
C1017 C1011 1.491 . S
C1017 C1016 1.400 . S
C1017 C1018 1.398 . S
C1018 H1006 0.950 . S
C1018 C1017 1.398 . S
C1018 C1019 1.391 . S
C1019 H1007 0.950 . S
C1019 C1015 1.393 . S
C1019 C1018 1.391 . S
H1020 C1028 0.950 . S
H1021 C1033 0.950 . S
H1022 C1030 0.950 . S
H1023 C1032 0.950 . S
H1024 C1034 0.950 . S
H1025 C1036 0.950 . S
H1026 C1038 0.950 . S
H1027 C1039 0.950 . S
C1028 H1020 0.950 . S
C1028 C1029 1.386 . S
C1028 C1030 1.391 . S
C1029 C1028 1.386 . S
C1029 C1033 1.393 . S
C1030 H1022 0.950 . S
C1030 C1028 1.391 . S
C1030 C1031 1.400 . S
C1031 C1030 1.400 . S
C1031 C1032 1.398 . S
C1031 C1037 1.491 . S
C1032 H1023 0.950 . S
C1032 C1031 1.398 . S
C1032 C1033 1.391 . S
C1033 H1021 0.950 . S
C1033 C1029 1.393 . S
C1033 C1032 1.391 . S
C1034 H1024 0.950 . S
C1034 C1035 1.386 . S
C1034 C1036 1.391 . S
C1035 C1034 1.386 . S
C1035 C1039 1.393 . S
C1036 H1025 0.950 . S
C1036 C1034 1.391 . S
C1036 C1037 1.400 . S
C1037 C1031 1.491 . S
C1037 C1036 1.400 . S
C1037 C1038 1.398 . S
C1038 H1026 0.950 . S
C1038 C1037 1.398 . S
C1038 C1039 1.391 . S
C1039 H1027 0.950 . S
C1039 C1035 1.393 . S
C1039 C1038 1.391 . S
H1040 C1048 0.950 . S
H1041 C1053 0.950 . S
H1042 C1050 0.950 . S
H1043 C1052 0.950 . S
H1044 C1054 0.950 . S
H1045 C1056 0.950 . S
H1046 C1058 0.950 . S
H1047 C1059 0.950 . S
C1048 H1040 0.950 . S
C1048 C1049 1.386 1_455 S
C1048 C1050 1.391 . S
C1049 C1048 1.386 1_655 S
C1049 C1053 1.393 . S
C1050 H1042 0.950 . S
C1050 C1048 1.391 . S
C1050 C1051 1.400 1_455 S
C1051 C1050 1.400 1_655 S
C1051 C1052 1.398 . S
C1051 C1057 1.491 . S
C1052 H1043 0.950 . S
C1052 C1051 1.398 . S
C1052 C1053 1.391 . S
C1053 H1041 0.950 . S
C1053 C1049 1.393 . S
C1053 C1052 1.391 . S
C1054 H1044 0.950 . S
C1054 C1055 1.386 . S
C1054 C1056 1.391 . S
C1055 C1054 1.386 . S
C1055 C1059 1.393 1_655 S
C1056 H1045 0.950 . S
C1056 C1054 1.391 . S
C1056 C1057 1.400 . S
C1057 C1051 1.491 . S
C1057 C1056 1.400 . S
C1057 C1058 1.398 1_655 S
C1058 H1046 0.950 . S
C1058 C1057 1.398 1_455 S
C1058 C1059 1.391 . S
C1059 H1047 0.950 . S
C1059 C1055 1.393 1_455 S
C1059 C1058 1.391 . S
H1060 C1068 0.950 . S
H1061 C1073 0.950 . S
H1062 C1070 0.950 . S
H1063 C1072 0.950 . S
H1064 C1074 0.950 . S
H1065 C1076 0.950 . S
H1066 C1078 0.950 . S
H1067 C1079 0.950 . S
C1068 H1060 0.950 . S
C1068 C1069 1.386 1_545 S
C1068 C1070 1.391 . S
C1069 C1068 1.386 1_565 S
C1069 C1073 1.393 . S
C1070 H1062 0.950 . S
C1070 C1068 1.391 . S
C1070 C1071 1.400 1_545 S
C1071 C1070 1.400 1_565 S
C1071 C1072 1.398 . S
C1071 C1077 1.491 . S
C1072 H1063 0.950 . S
C1072 C1071 1.398 . S
C1072 C1073 1.391 . S
C1073 H1061 0.950 . S
C1073 C1069 1.393 . S
C1073 C1072 1.391 . S
C1074 H1064 0.950 . S
C1074 C1075 1.386 . S
C1074 C1076 1.391 . S
C1075 C1074 1.386 . S
C1075 C1079 1.393 1_565 S
C1076 H1065 0.950 . S
C1076 C1074 1.391 . S
C1076 C1077 1.400 . S
C1077 C1071 1.491 . S
C1077 C1076 1.400 . S
C1077 C1078 1.398 1_565 S
C1078 H1066 0.950 . S
C1078 C1077 1.398 1_545 S
C1078 C1079 1.391 . S
C1079 H1067 0.950 . S
C1079 C1075 1.393 1_545 S
C1079 C1078 1.391 . S
H1080 C1088 0.950 . S
H1081 C1093 0.950 . S
H1082 C1090 0.950 . S
H1083 C1092 0.950 . S
H1084 C1094 0.950 . S
H1085 C1096 0.950 . S
H1086 C1098 0.950 . S
H1087 C1099 0.950 . S
C1088 H1080 0.950 . S
C1088 C1089 1.386 . S
C1088 C1090 1.391 . S
C1089 C1088 1.386 . S
C1089 C1093 1.393 . S
C1090 H1082 0.950 . S
C1090 C1088 1.391 . S
C1090 C1091 1.400 . S
C1091 C1090 1.400 . S
C1091 C1092 1.398 . S
C1091 C1097 1.491 . S
C1092 H1083 0.950 . S
C1092 C1091 1.398 . S
C1092 C1093 1.391 . S
C1093 H1081 0.950 . S
C1093 C1089 1.393 . S
C1093 C1092 1.391 . S
C1094 H1084 0.950 . S
C1094 C1095 1.386 . S
C1094 C1096 1.391 . S
C1095 C1094 1.386 . S
C1095 C1099 1.393 . S
C1096 H1085 0.950 . S
C1096 C1094 1.391 . S
C1096 C1097 1.400 . S
C1097 C1091 1.491 . S
C1097 C1096 1.400 . S
C1097 C1098 1.398 . S
C1098 H1086 0.950 . S
C1098 C1097 1.398 . S
C1098 C1099 1.391 . S
C1099 H1087 0.950 . S
C1099 C1095 1.393 . S
C1099 C1098 1.391 . S
H1100 C1108 0.950 . S
H1101 C1113 0.950 . S
H1102 C1110 0.950 . S
H1103 C1112 0.950 . S
H1104 C1114 0.950 . S
H1105 C1116 0.950 . S
H1106 C1118 0.950 . S
H1107 C1119 0.950 . S
C1108 H1100 0.950 . S
C1108 C1109 1.386 . S
C1108 C1110 1.391 . S
C1109 C1108 1.386 . S
C1109 C1113 1.393 . S
C1110 H1102 0.950 . S
C1110 C1108 1.391 . S
C1110 C1111 1.400 . S
C1111 C1110 1.400 . S
C1111 C1112 1.398 . S
C1111 C1117 1.491 . S
C1112 H1103 0.950 . S
C1112 C1111 1.398 . S
C1112 C1113 1.391 . S
C1113 H1101 0.950 . S
C1113 C1109 1.393 . S
C1113 C1112 1.391 . S
C1114 H1104 0.950 . S
C1114 C1115 1.386 . S
C1114 C1116 1.391 . S
C1115 C1114 1.386 . S
C1115 C1119 1.393 . S
C1116 H1105 0.950 . S
C1116 C1114 1.391 . S
C1116 C1117 1.400 . S
C1117 C1111 1.491 . S
C1117 C1116 1.400 . S
C1117 C1118 1.398 . S
C1118 H1106 0.950 . S
C1118 C1117 1.398 . S
C1118 C1119 1.391 . S
C1119 H1107 0.950 . S
C1119 C1115 1.393 . S
C1119 C1118 1.391 . S
C649 C391 2.255 1_565 S
C655 C489 2.342 1_545 S
C675 C529 2.350 . S
C669 C451 2.250 . S
C695 C569 2.355 . S
C689 C241 1.982 . S
C715 C609 2.347 1_455 S
C709 C331 2.005 1_455 S
C735 C498 2.348 1_565 S
C729 C121 2.002 1_545 S
C749 C211 2.277 . S
C755 C538 2.357 . S
C769 C31 2.273 . S
C775 C578 2.358 . S
C789 C91 2.004 1_455 S
C795 C618 2.348 1_655 S
C815 C495 0.481 . S
C809 C301 0.600 1_455 S
C835 C535 0.480 . S
C829 C380 0.354 . S
C855 C575 0.415 . S
C849 C440 0.328 . S
C869 C260 0.509 . S
C875 C615 0.412 . S
C889 C61 0.441 . S
C895 C486 0.414 . S
C915 C526 0.404 . S
C909 C140 0.454 . S
C935 C566 0.404 . S
C929 C200 0.399 . S
C949 C20 0.457 . S
C955 C606 0.467 . S
C969 C320 2.997 1_455 S
C975 C499 3.198 . S
C989 C361 2.560 . S
C995 C539 3.181 . S
C1015 C579 3.174 . S
C1009 C421 2.550 . S
C1035 C619 3.199 . S
C1029 C271 2.981 . S
C1049 C80 2.964 . S
C1055 C490 3.204 . S
C1075 C530 3.184 . S
C1069 C151 2.949 . S
C1095 C570 3.180 . S
C1089 C181 2.568 . S
C1109 C1 2.610 . S
C1115 C610 3.202 . S
