# Generated by pormake.
# Topology zzz, (3,6)-cn, num edge types: 1
# Building blocks:
#     Node 0, Type 0, BuildingBlock: ESEHIV_clean_linker_0, # of connection points: 3
#     Node 1, Type 0, BuildingBlock: ESEHIV_clean_linker_0, # of connection points: 3
#     Node 2, Type 0, BuildingBlock: ESEHIV_clean_linker_0, # of connection points: 3
#     Node 3, Type 0, BuildingBlock: ESEHIV_clean_linker_0, # of connection points: 3
#     Node 4, Type 0, BuildingBlock: ESEHIV_clean_linker_0, # of connection points: 3
#     Node 5, Type 0, BuildingBlock: ESEHIV_clean_linker_0, # of connection points: 3
#     Node 6, Type 0, BuildingBlock: ESEHIV_clean_linker_0, # of connection points: 3
#     Node 7, Type 0, BuildingBlock: ESEHIV_clean_linker_0, # of connection points: 3
#     Node 8, Type 1, BuildingBlock: GEDQOX_clean_sbu_0, # of connection points: 6
#     Node 9, Type 1, BuildingBlock: GEDQOX_clean_sbu_0, # of connection points: 6
#     Node 10, Type 1, BuildingBlock: GEDQOX_clean_sbu_0, # of connection points: 6
#     Node 11, Type 1, BuildingBlock: GEDQOX_clean_sbu_0, # of connection points: 6
#     Edge 12, Type (0, 1), BuildingBlock: CIFDUS_clean_linker_0, # of connection points: 2
#     Edge 13, Type (0, 1), BuildingBlock: CIFDUS_clean_linker_0, # of connection points: 2
#     Edge 14, Type (0, 1), BuildingBlock: CIFDUS_clean_linker_0, # of connection points: 2
#     Edge 15, Type (0, 1), BuildingBlock: CIFDUS_clean_linker_0, # of connection points: 2
#     Edge 16, Type (0, 1), BuildingBlock: CIFDUS_clean_linker_0, # of connection points: 2
#     Edge 17, Type (0, 1), BuildingBlock: CIFDUS_clean_linker_0, # of connection points: 2
#     Edge 18, Type (0, 1), BuildingBlock: CIFDUS_clean_linker_0, # of connection points: 2
#     Edge 19, Type (0, 1), BuildingBlock: CIFDUS_clean_linker_0, # of connection points: 2
#     Edge 20, Type (0, 1), BuildingBlock: CIFDUS_clean_linker_0, # of connection points: 2
#     Edge 21, Type (0, 1), BuildingBlock: CIFDUS_clean_linker_0, # of connection points: 2
#     Edge 22, Type (0, 1), BuildingBlock: CIFDUS_clean_linker_0, # of connection points: 2
#     Edge 23, Type (0, 1), BuildingBlock: CIFDUS_clean_linker_0, # of connection points: 2
#     Edge 24, Type (0, 1), BuildingBlock: CIFDUS_clean_linker_0, # of connection points: 2
#     Edge 25, Type (0, 1), BuildingBlock: CIFDUS_clean_linker_0, # of connection points: 2
#     Edge 26, Type (0, 1), BuildingBlock: CIFDUS_clean_linker_0, # of connection points: 2
#     Edge 27, Type (0, 1), BuildingBlock: CIFDUS_clean_linker_0, # of connection points: 2
#     Edge 28, Type (0, 1), BuildingBlock: CIFDUS_clean_linker_0, # of connection points: 2
#     Edge 29, Type (0, 1), BuildingBlock: CIFDUS_clean_linker_0, # of connection points: 2
#     Edge 30, Type (0, 1), BuildingBlock: CIFDUS_clean_linker_0, # of connection points: 2
#     Edge 31, Type (0, 1), BuildingBlock: CIFDUS_clean_linker_0, # of connection points: 2
#     Edge 32, Type (0, 1), BuildingBlock: CIFDUS_clean_linker_0, # of connection points: 2
#     Edge 33, Type (0, 1), BuildingBlock: CIFDUS_clean_linker_0, # of connection points: 2
#     Edge 34, Type (0, 1), BuildingBlock: CIFDUS_clean_linker_0, # of connection points: 2
#     Edge 35, Type (0, 1), BuildingBlock: CIFDUS_clean_linker_0, # of connection points: 2
# Relax obj value: 0.319
# Max RMSD: 0.342
# Mean RMSD: 0.192
data_MOF--net-zzz--node1-GEDQOX_clean_sbu_0--node2-ESEHIV_clean_linker_0--edge1-CIFDUS_clean_linker_0
_symmetry_space_group_name_H-M    P1
_symmetry_Int_Tables_number       1
_symmetry_cell_setting            triclinic
loop_
_symmetry_equiv_pos_as_xyz
'x, y, z'
_cell_length_a     42.296691
_cell_length_b     39.932517
_cell_length_c     16.147942
_cell_angle_alpha  77.453838
_cell_angle_beta   90.439487
_cell_angle_gamma 105.91818
loop_
_atom_site_label
_atom_site_type_symbol
_atom_site_fract_x
_atom_site_fract_y
_atom_site_fract_z
_atom_type_partial_charge
H0 H 0.83582 0.54782 0.15095 0.0
H1 H 0.76173 0.54385 0.96786 0.0
H2 H 0.76153 0.60123 0.16617 0.0
C3 C 0.8135 0.55405 0.12769 0.0
C4 C 0.79949 0.57452 0.16855 0.0
C5 C 0.80047 0.54373 0.05409 0.0
C6 C 0.77224 0.55293 0.02319 0.0
C7 C 0.75762 0.57351 0.06304 0.0
C8 C 0.77178 0.58463 0.1356 0.0
H9 H 0.02503 0.79804 0.31858 0.0
H10 H 0.039 0.74053 0.1335 0.0
H11 H 0.00943 0.68438 0.39368 0.0
C12 C 0.02588 0.77321 0.30288 0.0
C13 C 0.01767 0.74181 0.36657 0.0
C14 C 0.03335 0.77297 0.21904 0.0
C15 C 0.03264 0.74057 0.19839 0.0
C16 C 0.02385 0.70827 0.26022 0.0
C17 C 0.01641 0.70894 0.34532 0.0
H18 H 0.69143 0.0053 0.12141 0.0
H19 H 0.77912 0.02184 0.96866 0.0
H20 H 0.77276 0.97209 0.23686 0.0
C21 C 0.71607 1.00243 0.11582 0.0
C22 C 0.72994 0.98703 0.18783 0.0
C23 C 0.73357 0.01473 0.03703 0.0
C24 C 0.76539 0.01119 0.02947 0.0
C25 C 0.78011 0.9961 0.1015 0.0
C26 C 0.76185 0.98346 0.18059 0.0
H27 H 0.61632 0.81037 0.4314 0.0
H28 H 0.53605 0.85357 0.46624 0.0
H29 H 0.60816 0.90492 0.25817 0.0
C30 C 0.60431 0.83134 0.41295 0.0
C31 C 0.61408 0.85622 0.33535 0.0
C32 C 0.57561 0.82898 0.45985 0.0
C33 C 0.55911 0.85567 0.43401 0.0
C34 C 0.57162 0.88377 0.36207 0.0
C35 C 0.59997 0.88462 0.31626 0.0
H36 H 0.21748 0.56169 0.52254 0.0
H37 H 0.28864 0.57093 0.71264 0.0
H38 H 0.30076 0.52209 0.50448 0.0
C39 C 0.24082 0.55856 0.54634 0.0
C40 C 0.2579 0.54065 0.50622 0.0
C41 C 0.25192 0.56985 0.62022 0.0
C42 C 0.28107 0.56352 0.6534 0.0
C43 C 0.29961 0.54674 0.61204 0.0
C44 C 0.28748 0.53521 0.53795 0.0
H45 H 0.02832 0.2575 0.43246 0.0
H46 H 0.01413 0.31426 0.61825 0.0
H47 H 0.05419 0.37231 0.36563 0.0
C48 C 0.02881 0.28253 0.44919 0.0
C49 C 0.04148 0.31456 0.38905 0.0
C50 C 0.01893 0.28229 0.53156 0.0
C51 C 0.02114 0.31479 0.55354 0.0
C52 C 0.03324 0.34772 0.49472 0.0
C53 C 0.04411 0.34747 0.4118 0.0
H54 H 0.33003 0.05753 0.48474 0.0
H55 H 0.25885 0.04165 0.68604 0.0
H56 H 0.24243 0.08988 0.42727 0.0
C57 C 0.30638 0.05936 0.50588 0.0
C58 C 0.28782 0.07611 0.44774 0.0
C59 C 0.29545 0.046 0.59113 0.0
C60 C 0.26581 0.0503 0.61886 0.0
C61 C 0.24559 0.06551 0.56078 0.0
C62 C 0.25703 0.07823 0.47425 0.0
H63 H 0.45644 0.33731 0.38752 0.0
H64 H 0.48587 0.26713 0.25405 0.0
H65 H 0.4603 0.23449 0.52296 0.0
C66 C 0.45872 0.31112 0.38554 0.0
C67 C 0.45648 0.28626 0.46247 0.0
C68 C 0.46833 0.30469 0.30849 0.0
C69 C 0.47637 0.2721 0.31089 0.0
C70 C 0.47328 0.24659 0.38891 0.0
C71 C 0.46166 0.25339 0.46261 0.0
Nd72 Nd 0.00234 0.00538 0.80438 0.0
Nd73 Nd 0.03628 0.04995 0.9411 0.0
C74 C 0.97085 0.95456 0.72679 0.0
C75 C 0.97714 0.9223 0.70738 0.0
C76 C 0.95752 0.90439 0.65122 0.0
C77 C 0.96468 0.87525 0.62797 0.0
C78 C 0.99166 0.86329 0.66059 0.0
C79 C 0.01058 0.88073 0.71923 0.0
C80 C 0.00356 0.91003 0.74177 0.0
C81 C 0.06794 0.04288 0.7698 0.0
C82 C 0.03766 0.96755 0.9715 0.0
C83 C 0.07448 0.10048 0.00837 0.0
C84 C 0.06938 0.13117 0.03924 0.0
C85 C 0.09412 0.16386 0.0252 0.0
C86 C 0.08908 0.19322 0.05255 0.0
C87 C 0.05908 0.19057 0.09446 0.0
C88 C 0.03447 0.15759 0.10854 0.0
C89 C 0.03947 0.12844 0.08093 0.0
C90 C 0.96881 0.02423 0.97616 0.0
C91 C 0.99806 0.08491 0.78091 0.0
O92 O 0.965 0.95364 0.8069 0.0
O93 O 0.99044 0.98524 0.68678 0.0
O94 O 0.04633 0.03947 0.71241 0.0
O95 O 0.05449 0.02619 0.84192 0.0
O96 O 0.01853 0.96444 0.90662 0.0
O97 O 0.04998 0.99823 0.99439 0.0
O98 O 0.07334 0.10285 0.92614 0.0
O99 O 0.0594 0.06836 0.05294 0.0
O100 O 0.9887 0.04181 0.02334 0.0
O101 O 0.98545 0.02043 0.91677 0.0
O102 O 0.02357 0.08934 0.8293 0.0
O103 O 0.98133 0.05316 0.76973 0.0
H104 H 0.9371 0.91351 0.62358 0.0
H105 H 0.94982 0.86306 0.58173 0.0
H106 H 0.03127 0.87216 0.74676 0.0
H107 H 0.01921 0.9236 0.7847 0.0
H108 H 0.11733 0.16674 0.9926 0.0
H109 H 0.10853 0.21811 0.03979 0.0
H110 H 0.0113 0.154 0.14211 0.0
H111 H 0.01984 0.10369 0.09236 0.0
Nd112 Nd 0.51583 0.02183 0.79908 0.0
Nd113 Nd 0.51901 0.08241 0.88006 0.0
C114 C 0.52723 0.96826 0.74388 0.0
C115 C 0.55035 0.96747 0.67646 0.0
C116 C 0.57403 0.94859 0.69596 0.0
C117 C 0.59871 0.95164 0.63495 0.0
C118 C 0.60012 0.9738 0.55371 0.0
C119 C 0.57538 0.99112 0.53319 0.0
C120 C 0.55088 0.98813 0.59379 0.0
C121 C 0.51535 0.084 0.68381 0.0
C122 C 0.5881 0.07319 0.83449 0.0
C123 C 0.50608 0.13687 0.92757 0.0
C124 C 0.47758 0.1381 0.97726 0.0
C125 C 0.47351 0.17068 0.98734 0.0
C126 C 0.44674 0.17116 0.03735 0.0
C127 C 0.42359 0.13903 0.07774 0.0
C128 C 0.42757 0.10655 0.06558 0.0
C129 C 0.45426 0.10612 0.016 0.0
C130 C 0.52159 0.02181 0.99637 0.0
C131 C 0.44694 0.02943 0.85051 0.0
O132 O 0.54066 0.97872 0.81044 0.0
O133 O 0.50306 0.98194 0.71909 0.0
O134 O 0.49795 0.05251 0.67829 0.0
O135 O 0.53333 0.08201 0.74639 0.0
O136 O 0.57045 0.04141 0.82615 0.0
O137 O 0.57392 0.09787 0.84327 0.0
O138 O 0.49989 0.13 0.85263 0.0
O139 O 0.52473 0.1185 0.96922 0.0
O140 O 0.5378 0.05398 1.00026 0.0
O141 O 0.50283 0.02194 0.93464 0.0
O142 O 0.46425 0.06162 0.85632 0.0
O143 O 0.46148 0.00507 0.84205 0.0
H144 H 0.57416 0.93254 0.75929 0.0
H145 H 0.61748 0.93802 0.65246 0.0
H146 H 0.57546 0.00782 0.47053 0.0
H147 H 0.53305 1.00304 0.5764 0.0
H148 H 0.49121 0.19564 0.95751 0.0
H149 H 0.44432 0.19664 0.04499 0.0
H150 H 0.41071 0.08126 0.09691 0.0
H151 H 0.45707 0.08066 0.00922 0.0
Nd152 Nd 0.51238 0.58662 0.96098 0.0
Nd153 Nd 0.5402 0.55206 0.83081 0.0
C154 C 0.48907 0.61351 0.07232 0.0
C155 C 0.50781 0.6459 0.09922 0.0
C156 C 0.49398 0.67411 0.09726 0.0
C157 C 0.51393 0.70759 0.10408 0.0
C158 C 0.54827 0.71372 0.11077 0.0
C159 C 0.56172 0.68493 0.11552 0.0
C160 C 0.54167 0.65138 0.11113 0.0
C161 C 0.57986 0.59708 0.95357 0.0
C162 C 0.53916 0.63565 0.77419 0.0
C163 C 0.57568 0.52102 0.7573 0.0
C164 C 0.56545 0.48313 0.75552 0.0
C165 C 0.58469 0.46763 0.71416 0.0
C166 C 0.57238 0.4319 0.70853 0.0
C167 C 0.54094 0.4115 0.74517 0.0
C168 C 0.523 0.42669 0.79137 0.0
C169 C 0.53479 0.46231 0.79466 0.0
C170 C 0.47424 0.54618 0.80535 0.0
C171 C 0.50005 0.49888 1.00323 0.0
O172 O 0.48113 0.619 0.99278 0.0
O173 O 0.50056 0.58569 0.09486 0.0
O174 O 0.56589 0.62068 0.96572 0.0
O175 O 0.5581 0.5689 0.95051 0.0
O176 O 0.51721 0.6295 0.83758 0.0
O177 O 0.55562 0.61231 0.76733 0.0
O178 O 0.58108 0.52717 0.83319 0.0
O179 O 0.55751 0.53984 0.71456 0.0
O180 O 0.49185 0.53284 0.76334 0.0
O181 O 0.49144 0.5598 0.85951 0.0
O182 O 0.52147 0.50338 0.94028 0.0
O183 O 0.48992 0.52579 0.01842 0.0
H184 H 0.468 0.67059 0.08748 0.0
H185 H 0.50237 0.72871 0.10321 0.0
H186 H 0.58791 0.68837 0.12003 0.0
H187 H 0.55314 0.63012 0.11314 0.0
H188 H 0.60842 0.4834 0.68358 0.0
H189 H 0.58658 0.42096 0.67144 0.0
H190 H 0.49889 0.41163 0.82079 0.0
H191 H 0.51912 0.47393 0.82468 0.0
Nd192 Nd 0.01905 0.55197 0.808 0.0
Nd193 Nd 0.02559 0.4968 0.95855 0.0
C194 C 0.0034 0.60115 0.68815 0.0
C195 C 0.97363 0.60541 0.64401 0.0
C196 C 0.94216 0.58814 0.6831 0.0
C197 C 0.91427 0.58558 0.63501 0.0
C198 C 0.91738 0.6006 0.54712 0.0
C199 C 0.94876 0.62032 0.50963 0.0
C200 C 0.97665 0.62248 0.55765 0.0
C201 C 0.03123 0.49298 0.76601 0.0
C202 C 0.95129 0.49505 0.90758 0.0
C203 C 0.03457 0.44422 0.07844 0.0
C204 C 0.06003 0.44547 0.14177 0.0
C205 C 0.07571 0.41816 0.16283 0.0
C206 C 0.10316 0.42229 0.21317 0.0
C207 C 0.11553 0.45405 0.2417 0.0
C208 C 0.09884 0.48049 0.22349 0.0
C209 C 0.07146 0.47625 0.17431 0.0
C210 C 0.03121 0.56263 0.99639 0.0
C211 C 0.09133 0.55329 0.86347 0.0
O212 O 0.00466 0.60263 0.76827 0.0
O213 O 0.01414 0.57538 0.67283 0.0
O214 O 0.04647 0.52571 0.72991 0.0
O215 O 0.01139 0.49213 0.82515 0.0
O216 O 0.96437 0.5228 0.84469 0.0
O217 O 0.96967 0.47877 0.95834 0.0
O218 O 0.04561 0.4502 0.9995 0.0
O219 O 0.01279 0.46129 0.08682 0.0
O220 O 0.04936 0.54205 0.02672 0.0
O221 O 0.011 0.54815 0.94819 0.0
O222 O 0.07761 0.51934 0.89791 0.0
O223 O 0.07309 0.57494 0.83527 0.0
H224 H 0.93934 0.57522 0.74983 0.0
H225 H 0.89039 0.57057 0.6658 0.0
H226 H 0.95203 0.63196 0.44202 0.0
H227 H 0.00077 0.63574 0.52625 0.0
H228 H 0.06738 0.39422 0.13824 0.0
H229 H 0.11541 0.40134 0.22705 0.0
H230 H 0.1073 0.50485 0.24641 0.0
H231 H 0.05982 0.49766 0.15984 0.0
H232 H 0.20551 0.02244 0.69856 0.0
H233 H 0.21064 0.11372 0.49217 0.0
H234 H 0.15649 0.11497 0.53837 0.0
H235 H 0.10669 0.08924 0.63657 0.0
H236 H 0.10673 0.00443 0.85373 0.0
H237 H 0.1609 1.00319 0.80653 0.0
C238 C 0.19579 0.04359 0.66448 0.0
C239 C 0.21284 0.06775 0.59096 0.0
C240 C 0.16547 0.04567 0.69414 0.0
C241 C 0.19824 0.09386 0.54729 0.0
C242 C 0.16726 0.09502 0.57441 0.0
C243 C 0.11894 0.07101 0.6741 0.0
C244 C 0.10278 0.04692 0.74822 0.0
C245 C 0.15054 0.0709 0.64751 0.0
C246 C 0.11878 0.02342 0.79672 0.0
C247 C 0.14964 0.02247 0.76937 0.0
H248 H 0.52739 0.23928 0.46909 0.0
H249 H 0.44527 0.18201 0.34955 0.0
H250 H 0.453 0.12499 0.42712 0.0
H251 H 0.47724 0.09208 0.54764 0.0
H252 H 0.55569 0.15082 0.67685 0.0
H253 H 0.55507 0.20656 0.57851 0.0
C254 C 0.51219 0.21425 0.4572 0.0
C255 C 0.48607 0.2148 0.40259 0.0
C256 C 0.51538 0.18184 0.50669 0.0
C257 C 0.46591 0.18227 0.38954 0.0
C258 C 0.46995 0.1497 0.43551 0.0
C259 C 0.49447 0.11705 0.5535 0.0
C260 C 0.51633 0.11732 0.62004 0.0
C261 C 0.49357 0.14921 0.49736 0.0
C262 C 0.53849 0.14987 0.62676 0.0
C263 C 0.53822 0.18176 0.57028 0.0
H264 H 0.34402 0.58734 0.70202 0.0
H265 H 0.32628 0.49162 0.60391 0.0
H266 H 0.37833 0.48324 0.65498 0.0
H267 H 0.42971 0.5035 0.72518 0.0
H268 H 0.44445 0.59478 0.83751 0.0
H269 H 0.39197 0.60349 0.78635 0.0
C270 C 0.35089 0.5641 0.69313 0.0
C271 C 0.33095 0.54057 0.64739 0.0
C272 C 0.38032 0.55839 0.72607 0.0
C273 C 0.34123 0.51107 0.63591 0.0
C274 C 0.37095 0.50588 0.66622 0.0
C275 C 0.42116 0.52503 0.73921 0.0
C276 C 0.44084 0.54859 0.78452 0.0
C277 C 0.3908 0.5295 0.71076 0.0
C278 C 0.42956 0.57623 0.803 0.0
C279 C 0.39969 0.58133 0.77328 0.0
H280 H 0.9898 0.35898 0.60215 0.0
H281 H 0.08158 0.41255 0.45583 0.0
H282 H 0.08897 0.46273 0.52563 0.0
H283 H 0.07108 0.48921 0.63732 0.0
H284 H 0.98251 0.43057 0.79336 0.0
H285 H 0.97312 0.38365 0.71392 0.0
C286 C 0.01178 0.38131 0.58592 0.0
C287 C 0.03551 0.38128 0.52489 0.0
C288 C 0.0168 0.40887 0.62985 0.0
C289 C 0.06288 0.41154 0.50235 0.0
C290 C 0.06732 0.44009 0.54323 0.0
C291 C 0.04986 0.466 0.65413 0.0
C292 C 0.02756 0.46337 0.72152 0.0
C293 C 0.04483 0.43862 0.60872 0.0
C294 C 1.00017 0.43319 0.74246 0.0
C295 C 0.99465 0.40645 0.69656 0.0
H296 H 0.81366 0.98196 0.97456 0.0
H297 H 0.82656 0.01391 0.21438 0.0
H298 H 0.88562 0.02254 0.19907 0.0
H299 H 0.93409 0.02595 0.11293 0.0
H300 H 0.92265 0.9959 0.87134 0.0
H301 H 0.86257 0.98182 0.89156 0.0
C302 C 0.8294 0.99067 0.0236 0.0
C303 C 0.81555 0.99728 0.09553 0.0
C304 C 0.86363 0.99624 0.01371 0.0
C305 C 0.83631 0.00807 0.159 0.0
C306 C 0.87021 0.01338 0.14994 0.0
C307 C 0.91843 0.01599 0.06502 0.0
C308 C 0.93265 0.01215 0.99056 0.0
C309 C 0.88416 0.00823 0.07694 0.0
C310 C 0.91216 0.99906 0.92918 0.0
C311 C 0.87787 0.99114 0.94067 0.0
H312 H 0.53152 0.87708 0.23268 0.0
H313 H 0.57402 0.94838 0.39435 0.0
H314 H 0.56005 0.9977 0.29626 0.0
H315 H 0.54271 0.0219 0.15513 0.0
H316 H 0.50104 0.95099 0.99108 0.0
H317 H 0.50757 0.89997 0.0991 0.0
C318 C 0.53636 0.90311 0.24797 0.0
C319 C 0.55316 0.90907 0.32153 0.0
C320 C 0.52917 0.93148 0.18958 0.0
C321 C 0.56043 0.94309 0.3394 0.0
C322 C 0.55287 0.97134 0.2825 0.0
C323 C 0.53464 0.9952 0.1434 0.0
C324 C 0.52172 0.99024 0.06472 0.0
C325 C 0.5384 0.96612 0.20588 0.0
C326 C 0.51109 0.95549 0.05091 0.0
C327 C 0.51488 0.92636 0.11267 0.0
H328 H 0.70446 0.57797 0.15115 0.0
H329 H 0.7431 0.59074 0.89582 0.0
H330 H 0.6916 0.59908 0.83933 0.0
H331 H 0.63424 0.59996 0.86258 0.0
H332 H 0.59723 0.59199 0.11584 0.0
H333 H 0.64956 0.58529 0.17289 0.0
C334 C 0.70198 0.5833 0.08303 0.0
C335 C 0.72757 0.58291 0.02833 0.0
C336 C 0.67247 0.58891 0.05046 0.0
C337 C 0.72356 0.5897 0.94007 0.0
C338 C 0.69415 0.59477 0.90738 0.0
C339 C 0.63797 0.59717 0.93002 0.0
C340 C 0.6123 0.5964 0.98528 0.0
C341 C 0.66823 0.59384 0.96202 0.0
C342 C 0.61699 0.59278 0.07251 0.0
C343 C 0.64679 0.58885 0.10502 0.0
H344 H 0.99427 0.68647 0.12421 0.0
H345 H 0.0525 0.6556 0.33186 0.0
H346 H 0.06028 0.60765 0.26828 0.0
H347 H 0.05394 0.57763 0.14718 0.0
H348 H 0.99559 0.6094 0.94025 0.0
H349 H 0.98515 0.6545 0.00879 0.0
C350 C 0.00841 0.66899 0.15606 0.0
C351 C 0.02305 0.6748 0.23236 0.0
C352 C 0.01337 0.6422 0.11811 0.0
C353 C 0.04084 0.6516 0.27346 0.0
C354 C 0.04562 0.62449 0.23647 0.0
C355 C 0.03906 0.59454 0.117 0.0
C356 C 0.02594 0.59052 0.03793 0.0
C357 C 0.0327 0.62014 0.15764 0.0
C358 C 0.00623 0.6122 1.00046 0.0
C359 C 1.00011 0.63787 0.03989 0.0
H360 H 0.98104 0.21717 0.51306 0.0
H361 H 0.03664 0.2706 0.69592 0.0
H362 H 0.02943 0.21355 0.79527 0.0
H363 H 0.01495 0.14891 0.82164 0.0
H364 H 0.96435 0.09411 0.63523 0.0
H365 H 0.96185 0.15133 0.54581 0.0
C366 C 0.99139 0.21631 0.57488 0.0
C367 C 0.00966 0.24816 0.59646 0.0
C368 C 0.9884 0.18319 0.63057 0.0
C369 C 0.02221 0.24668 0.67765 0.0
C370 C 0.01842 0.21398 0.73433 0.0
C371 C 0.00306 0.14936 0.76176 0.0
C372 C 0.99053 0.11752 0.73395 0.0
C373 C 0.00269 0.18214 0.71007 0.0
C374 C 0.97441 0.11838 0.65753 0.0
C375 C 0.97318 0.15107 0.60628 0.0
H376 H 0.31605 0.06203 0.741 0.0
H377 H 0.32239 0.99334 0.57324 0.0
H378 H 0.36642 0.97528 0.65369 0.0
H379 H 0.40957 0.98801 0.75392 0.0
H380 H 0.40576 0.06028 0.91445 0.0
H381 H 0.35375 0.06702 0.85711 0.0
C382 C 0.32642 0.04229 0.72385 0.0
C383 C 0.31648 0.02942 0.65079 0.0
C384 C 0.35236 0.03285 0.76892 0.0
C385 C 0.33014 0.00399 0.62867 0.0
C386 C 0.35529 0.99368 0.67458 0.0
C387 C 0.39669 0.00412 0.77859 0.0
C388 C 0.41155 0.02392 0.83747 0.0
C389 C 0.3676 0.00919 0.74238 0.0
C390 C 0.39482 0.04501 0.86849 0.0
C391 C 0.36522 0.0491 0.83525 0.0
H392 H 0.50235 0.2816 0.57632 0.0
H393 H 0.41735 0.321 0.52298 0.0
H394 H 0.43383 0.35942 0.62407 0.0
H395 H 0.47862 0.39099 0.69802 0.0
H396 H 0.56645 0.35581 0.73971 0.0
H397 H 0.54253 0.30602 0.67213 0.0
C398 C 0.48664 0.29743 0.58961 0.0
C399 C 0.45886 0.2989 0.54209 0.0
C400 C 0.49732 0.32077 0.64357 0.0
C401 C 0.43891 0.31976 0.55883 0.0
C402 C 0.44853 0.34189 0.61581 0.0
C403 C 0.49212 0.37172 0.69533 0.0
C404 C 0.52444 0.37723 0.72275 0.0
C405 C 0.4787 0.34412 0.65421 0.0
C406 C 0.54177 0.35235 0.71757 0.0
C407 C 0.52808 0.32395 0.67919 0.0
H408 H 0.23217 0.54727 0.78673 0.0
H409 H 0.22149 0.62157 0.55825 0.0
H410 H 0.17254 0.62915 0.62274 0.0
H411 H 0.12665 0.60414 0.73142 0.0
H412 H 0.13629 0.52699 0.95576 0.0
H413 H 0.19208 0.53178 0.90696 0.0
C414 C 0.21992 0.56622 0.75238 0.0
C415 C 0.22996 0.58331 0.66749 0.0
C416 C 0.1912 0.56945 0.78877 0.0
C417 C 0.21378 0.60769 0.62343 0.0
C418 C 0.18572 0.61188 0.66009 0.0
C419 C 0.14144 0.58941 0.77086 0.0
C420 C 0.12728 0.56474 0.84602 0.0
C421 C 0.17315 0.5913 0.74087 0.0
C422 C 0.1466 0.54572 0.89677 0.0
C423 C 0.17845 0.54833 0.86881 0.0
H424 H 0.06922 0.83975 0.22863 0.0
H425 H 0.009 0.78117 0.06115 0.0
H426 H 0.00844 0.8371 0.96443 0.0
H427 H 0.01813 0.90147 0.93872 0.0
H428 H 0.07486 0.96048 0.11076 0.0
H429 H 0.08305 0.90522 0.19581 0.0
C430 C 0.05617 0.83927 0.17061 0.0
C431 C 0.03875 0.80638 0.15278 0.0
C432 C 0.0547 0.87145 0.11728 0.0
C433 C 0.02272 0.80608 0.07629 0.0
C434 C 0.02203 0.83805 0.02148 0.0
C435 C 0.03265 0.90251 0.99417 0.0
C436 C 0.04546 0.93505 0.01896 0.0
C437 C 0.03685 0.87074 0.04314 0.0
C438 C 0.0644 0.93574 0.09075 0.0
C439 C 0.06913 0.90418 0.13934 0.0
H440 H 0.71676 0.076 0.02009 0.0
H441 H 0.71322 0.98993 0.89621 0.0
H442 H 0.67075 0.00637 0.80521 0.0
H443 H 0.62692 0.03642 0.78558 0.0
H444 H 0.62832 0.12012 0.91674 0.0
H445 H 0.67999 0.11432 0.97841 0.0
C446 C 0.70751 0.06185 0.97072 0.0
C447 C 0.71766 0.03173 0.9647 0.0
C448 C 0.6824 0.07072 0.92114 0.0
C449 C 0.70571 0.01329 0.90124 0.0
C450 C 0.68121 0.02246 0.85007 0.0
C451 C 0.63904 0.05411 0.82575 0.0
C452 C 0.62346 0.07806 0.84834 0.0
C453 C 0.66813 0.0498 0.86305 0.0
C454 C 0.63968 0.10129 0.89895 0.0
C455 C 0.66909 0.09774 0.93487 0.0
H456 H 0.59751 0.86648 0.16927 0.0
H457 H 0.6601 0.81767 0.33762 0.0
H458 H 0.64728 0.76699 0.26959 0.0
H459 H 0.60407 0.72975 0.19927 0.0
H460 H 0.54176 0.7793 0.03041 0.0
H461 H 0.56823 0.83652 0.06466 0.0
C462 C 0.60973 0.84573 0.18945 0.0
C463 C 0.627 0.84402 0.26468 0.0
C464 C 0.60081 0.81595 0.15308 0.0
C465 C 0.64459 0.81829 0.28394 0.0
C466 C 0.63687 0.78898 0.24589 0.0
C467 C 0.59692 0.75312 0.16718 0.0
C468 C 0.56962 0.74964 0.11569 0.0
C469 C 0.61245 0.78613 0.18643 0.0
C470 C 0.56136 0.78067 0.07415 0.0
C471 C 0.57684 0.81359 0.09265 0.0
H472 H 0.82677 0.48875 0.1142 0.0
H473 H 0.81591 0.562 0.88369 0.0
H474 H 0.85752 0.54578 0.8094 0.0
H475 H 0.90443 0.52045 0.81895 0.0
H476 H 0.91823 0.45122 0.0534 0.0
H477 H 0.86743 0.45495 0.11566 0.0
C478 C 0.83308 0.50055 0.04722 0.0
C479 C 0.81886 0.52706 0.005 0.0
C480 C 0.85779 0.492 0.00564 0.0
C481 C 0.82659 0.5416 0.91774 0.0
C482 C 0.8506 0.53256 0.87534 0.0
C483 C 0.89607 0.50573 0.88312 0.0
C484 C 0.9159 0.48693 0.93248 0.0
C485 C 0.86757 0.50926 0.91996 0.0
C486 C 0.90389 0.46659 0.01428 0.0
C487 C 0.87492 0.46894 0.05041 0.0
H488 H 0.0043 0.29266 0.26444 0.0
H489 H 0.10462 0.32368 0.33505 0.0
H490 H 0.12041 0.28979 0.2407 0.0
H491 H 0.10293 0.2414 0.16238 0.0
H492 H 0.00184 0.21015 0.09411 0.0
H493 H 0.9891 0.2535 0.16381 0.0
C494 C 0.02994 0.29352 0.25553 0.0
C495 C 0.05331 0.3109 0.30605 0.0
C496 C 0.03841 0.27253 0.2044 0.0
C497 C 0.08631 0.31109 0.29567 0.0
C498 C 0.09517 0.291 0.24308 0.0
C499 C 0.0783 0.24462 0.16071 0.0
C500 C 0.0532 0.22144 0.12501 0.0
C501 C 0.07103 0.26999 0.20087 0.0
C502 C 0.02147 0.22643 0.12368 0.0
C503 C 0.01416 0.25157 0.16289 0.0
H504 H 0.33809 0.13515 0.39724 0.0
H505 H 0.27133 0.05014 0.30598 0.0
H506 H 0.3061 0.06558 0.1746 0.0
H507 H 0.35976 0.09723 0.09753 0.0
H508 H 0.42777 0.17999 0.19492 0.0
H509 H 0.38776 0.17244 0.31028 0.0
C510 C 0.33066 0.12094 0.34698 0.0
C511 C 0.30226 0.09179 0.36031 0.0
C512 C 0.35127 0.12927 0.27338 0.0
C513 C 0.29291 0.073 0.29604 0.0
C514 C 0.313 0.08156 0.22163 0.0
C515 C 0.36574 0.11382 0.14362 0.0
C516 C 0.39702 0.13871 0.13823 0.0
C517 C 0.34296 0.10864 0.21141 0.0
C518 C 0.40398 0.16064 0.19723 0.0
C519 C 0.38123 0.15612 0.26382 0.0
H520 H 0.43247 0.35276 0.26182 0.0
H521 H 0.51787 0.32619 0.18123 0.0
H522 H 0.53354 0.38278 0.0753 0.0
H523 H 0.52667 0.44284 0.01744 0.0
H524 H 0.44503 0.47186 0.11201 0.0
H525 H 0.4251 0.41192 0.2031 0.0
C526 C 0.45463 0.35921 0.22136 0.0
C527 C 0.47419 0.33507 0.23129 0.0
C528 C 0.46467 0.3928 0.16448 0.0
C529 C 0.5021 0.34374 0.17556 0.0
C530 C 0.51139 0.3765 0.11565 0.0
C531 C 0.5044 0.43609 0.05767 0.0
C532 C 0.48749 0.46216 0.05802 0.0
C533 C 0.49348 0.40173 0.11155 0.0
C534 C 0.45874 0.45269 0.11084 0.0
C535 C 0.44724 0.41828 0.16268 0.0
H536 H 0.22258 0.47256 0.51325 0.0
H537 H 0.25606 0.57629 0.34427 0.0
H538 H 0.2168 0.55654 0.24064 0.0
H539 H 0.16754 0.513 0.20906 0.0
H540 H 0.13183 0.40992 0.38022 0.0
H541 H 0.17752 0.42575 0.47186 0.0
C542 C 0.22203 0.49023 0.45219 0.0
C543 C 0.24234 0.5256 0.43531 0.0
C544 C 0.19852 0.47902 0.3945 0.0
C545 C 0.24099 0.54879 0.35739 0.0
C546 C 0.21829 0.53762 0.29883 0.0
C547 C 0.17004 0.49385 0.26595 0.0
C548 C 0.146 0.46069 0.28911 0.0
C549 C 0.19605 0.50332 0.31838 0.0
C550 C 0.14987 0.43575 0.36169 0.0
C551 C 0.17592 0.44486 0.41412 0.0
H552 H 0.05803 0.7762 0.46935 0.0
H553 H 0.9568 0.72021 0.44838 0.0
H554 H 0.93926 0.75098 0.54793 0.0
H555 H 0.95245 0.80224 0.61832 0.0
H556 H 0.05424 0.86126 0.62647 0.0
H557 H 0.07169 0.82099 0.55581 0.0
C558 C 0.03225 0.76949 0.48998 0.0
C559 C 0.00877 0.74582 0.45202 0.0
C560 C 0.02235 0.78887 0.54299 0.0
C561 C 0.97538 0.73785 0.47773 0.0
C562 C 0.96534 0.75609 0.53326 0.0
C563 C 0.97847 0.80613 0.60536 0.0
C564 C 0.00186 0.83523 0.62751 0.0
C565 C 0.98851 0.78313 0.56245 0.0
C566 C 0.03552 0.83917 0.61137 0.0
C567 C 0.04562 0.81617 0.57023 0.0
H568 H 0.71178 0.03299 0.2616 0.0
H569 H 0.70526 0.92132 0.29577 0.0
H570 H 0.66553 0.90693 0.41774 0.0
H571 H 0.62839 0.92629 0.50473 0.0
H572 H 0.63539 0.03864 0.46435 0.0
H573 H 0.67881 0.0526 0.35402 0.0
C574 C 0.70206 0.00557 0.29693 0.0
C575 C 0.71134 0.97825 0.27053 0.0
C576 C 0.67882 0.99762 0.36463 0.0
C577 C 0.69864 0.94278 0.31599 0.0
C578 C 0.6757 0.93458 0.38489 0.0
C579 C 0.63985 0.95381 0.47256 0.0
C580 C 0.62836 0.98136 0.49184 0.0
C581 C 0.66494 0.96175 0.40841 0.0
C582 C 0.6433 0.0169 0.44943 0.0
C583 C 0.66827 0.02496 0.38666 0.0
H584 H 0.57019 0.76115 0.44697 0.0
H585 H 0.54911 0.82068 0.62227 0.0
H586 H 0.53401 0.76555 0.73491 0.0
H587 H 0.53132 0.70087 0.78583 0.0
H588 H 0.55901 0.64518 0.6096 0.0
H589 H 0.56811 0.69863 0.49597 0.0
C590 C 0.56259 0.76235 0.51003 0.0
C591 C 0.56156 0.79538 0.5264 0.0
C592 C 0.55567 0.73118 0.57479 0.0
C593 C 0.55029 0.79581 0.60773 0.0
C594 C 0.54199 0.7643 0.67233 0.0
C595 C 0.53929 0.7005 0.72246 0.0
C596 C 0.54465 0.66895 0.70653 0.0
C597 C 0.54533 0.73193 0.65711 0.0
C598 C 0.55507 0.66902 0.6241 0.0
C599 C 0.5601 0.69958 0.55883 0.0
H600 H 0.80787 0.53308 0.3181 0.0
H601 H 0.8289 0.64282 0.18206 0.0
H602 H 0.86596 0.66159 0.29145 0.0
H603 H 0.89691 0.64553 0.41793 0.0
H604 H 0.87481 0.5353 0.55326 0.0
H605 H 0.83339 0.51801 0.45314 0.0
C606 C 0.82 0.56117 0.31378 0.0
C607 C 0.81578 0.5866 0.24262 0.0
C608 C 0.84131 0.5716 0.37641 0.0
C609 C 0.83162 0.62291 0.23694 0.0
C610 C 0.85301 0.63355 0.29901 0.0
C611 C 0.88267 0.61783 0.42598 0.0
C612 C 0.88906 0.59174 0.49284 0.0
C613 C 0.85878 0.60798 0.3678 0.0
C614 C 0.87022 0.55597 0.50296 0.0
C615 C 0.84665 0.54599 0.44531 0.0
loop_
_geom_bond_atom_site_label_1
_geom_bond_atom_site_label_2
_geom_bond_distance
_geom_bond_site_symmetry_2
_ccdc_geom_bond_type
H0 C3 0.931 . S
H1 C6 0.928 . S
H2 C8 0.930 . S
C3 H0 0.931 . S
C3 C4 1.413 . S
C3 C5 1.360 1_554 S
C4 C3 1.413 . S
C4 C8 1.429 . S
C5 C3 1.360 1_556 S
C5 C6 1.372 . S
C6 H1 0.928 . S
C6 C5 1.372 . S
C6 C7 1.404 1_556 S
C7 C6 1.404 1_554 S
C7 C8 1.391 . S
C8 H2 0.930 . S
C8 C4 1.429 . S
C8 C7 1.391 . S
H9 C12 0.931 . S
H10 C15 0.928 . S
H11 C17 0.930 . S
C12 H9 0.931 . S
C12 C13 1.413 . S
C12 C14 1.368 . S
C13 C12 1.413 . S
C13 C17 1.429 . S
C14 C12 1.368 . S
C14 C15 1.369 1_554 S
C15 H10 0.928 . S
C15 C14 1.369 1_556 S
C15 C16 1.404 1_556 S
C16 C15 1.404 1_554 S
C16 C17 1.391 . S
C17 H11 0.930 . S
C17 C13 1.429 . S
C17 C16 1.391 . S
H18 C21 0.931 . S
H19 C24 0.928 . S
H20 C26 0.930 . S
C21 H18 0.931 . S
C21 C22 1.413 . S
C21 C23 1.360 1_554 S
C22 C21 1.413 . S
C22 C26 1.429 . S
C23 C21 1.360 1_556 S
C23 C24 1.372 . S
C24 H19 0.928 . S
C24 C23 1.372 . S
C24 C25 1.404 . S
C25 C24 1.404 . S
C25 C26 1.391 1_556 S
C26 H20 0.930 . S
C26 C22 1.429 . S
C26 C25 1.391 1_554 S
H27 C30 0.931 . S
H28 C33 0.928 . S
H29 C35 0.930 . S
C30 H27 0.931 . S
C30 C31 1.413 . S
C30 C32 1.360 . S
C31 C30 1.413 . S
C31 C35 1.429 . S
C32 C30 1.360 . S
C32 C33 1.372 . S
C33 H28 0.928 . S
C33 C32 1.372 . S
C33 C34 1.404 . S
C34 C33 1.404 . S
C34 C35 1.391 . S
C35 H29 0.930 . S
C35 C31 1.429 . S
C35 C34 1.391 . S
H36 C39 0.931 . S
H37 C42 0.928 . S
H38 C44 0.930 . S
C39 H36 0.931 . S
C39 C40 1.413 . S
C39 C41 1.360 . S
C40 C39 1.413 . S
C40 C44 1.429 . S
C41 C39 1.360 . S
C41 C42 1.372 . S
C42 H37 0.928 . S
C42 C41 1.372 . S
C42 C43 1.404 . S
C43 C42 1.404 . S
C43 C44 1.391 . S
C44 H38 0.930 . S
C44 C40 1.429 . S
C44 C43 1.391 . S
H45 C48 0.931 . S
H46 C51 0.928 . S
H47 C53 0.930 . S
C48 H45 0.931 . S
C48 C49 1.413 . S
C48 C50 1.360 . S
C49 C48 1.413 . S
C49 C53 1.429 . S
C50 C48 1.360 . S
C50 C51 1.372 . S
C51 H46 0.928 . S
C51 C50 1.372 . S
C51 C52 1.404 . S
C52 C51 1.404 . S
C52 C53 1.391 . S
C53 H47 0.930 . S
C53 C49 1.429 . S
C53 C52 1.391 . S
H54 C57 0.931 . S
H55 C60 0.928 . S
H56 C62 0.930 . S
C57 H54 0.931 . S
C57 C58 1.413 . S
C57 C59 1.360 . S
C58 C57 1.413 . S
C58 C62 1.429 . S
C59 C57 1.360 . S
C59 C60 1.372 . S
C60 H55 0.928 . S
C60 C59 1.372 . S
C60 C61 1.404 . S
C61 C60 1.404 . S
C61 C62 1.391 . S
C62 H56 0.930 . S
C62 C58 1.429 . S
C62 C61 1.391 . S
H63 C66 0.931 . S
H64 C69 0.928 . S
H65 C71 0.930 . S
C66 H63 0.931 . S
C66 C67 1.413 . S
C66 C68 1.360 . S
C67 C66 1.413 . S
C67 C71 1.429 . S
C68 C66 1.360 . S
C68 C69 1.372 . S
C69 H64 0.928 . S
C69 C68 1.372 . S
C69 C70 1.404 . S
C70 C69 1.404 . S
C70 C71 1.391 . S
C71 H65 0.930 . S
C71 C67 1.429 . S
C71 C70 1.391 . S
Nd72 C74 2.836 1_445 S
Nd72 O92 2.500 1_445 S
Nd72 O93 2.514 . S
Nd72 O94 2.487 . S
Nd72 O95 2.682 . S
Nd72 O96 2.410 1_545 S
Nd72 O101 2.414 1_455 S
Nd72 O103 2.424 . S
Nd73 C83 2.836 1_556 S
Nd73 O95 2.414 . S
Nd73 O97 2.424 1_545 S
Nd73 O98 2.500 1_556 S
Nd73 O99 2.492 1_556 S
Nd73 O100 2.487 1_455 S
Nd73 O101 2.682 1_455 S
Nd73 O102 2.410 . S
C74 Nd72 2.836 1_665 S
C74 C75 1.498 . S
C74 O92 1.258 . S
C74 O93 1.233 1_665 S
C75 C74 1.498 . S
C75 C76 1.366 . S
C75 C80 1.407 1_655 S
C76 C75 1.366 . S
C76 C77 1.392 . S
C76 H104 0.930 . S
C77 C76 1.392 . S
C77 C78 1.398 . S
C77 H105 0.929 . S
C78 C77 1.398 . S
C78 C79 1.352 . S
C79 C78 1.352 . S
C79 C80 1.384 1_655 S
C79 H106 0.930 1_655 S
C80 C75 1.407 1_455 S
C80 C79 1.384 1_455 S
C80 H107 0.929 . S
C81 O94 1.241 . S
C81 O95 1.273 . S
C82 O96 1.251 . S
C82 O97 1.268 . S
C83 Nd73 2.836 1_554 S
C83 C84 1.498 . S
C83 O98 1.258 . S
C83 O99 1.239 . S
C84 C83 1.498 . S
C84 C85 1.366 . S
C84 C89 1.407 . S
C85 C84 1.366 . S
C85 C86 1.392 . S
C85 H108 0.930 . S
C86 C85 1.392 . S
C86 C87 1.398 . S
C86 H109 0.929 . S
C87 C86 1.398 . S
C87 C88 1.352 . S
C88 C87 1.352 . S
C88 C89 1.384 . S
C88 H110 0.930 . S
C89 C84 1.407 . S
C89 C88 1.384 . S
C89 H111 0.929 . S
C90 O100 1.241 . S
C90 O101 1.273 . S
C91 O102 1.251 . S
C91 O103 1.268 . S
O92 Nd72 2.500 1_665 S
O92 C74 1.258 . S
O93 Nd72 2.514 . S
O93 C74 1.233 1_445 S
O94 Nd72 2.487 . S
O94 C81 1.241 . S
O95 Nd72 2.682 . S
O95 Nd73 2.414 . S
O95 C81 1.273 . S
O96 Nd72 2.410 1_565 S
O96 C82 1.251 . S
O97 Nd73 2.424 1_565 S
O97 C82 1.268 . S
O98 Nd73 2.500 1_554 S
O98 C83 1.258 . S
O99 Nd73 2.492 1_554 S
O99 C83 1.239 . S
O100 Nd73 2.487 1_655 S
O100 C90 1.241 . S
O101 Nd72 2.414 1_655 S
O101 Nd73 2.682 1_655 S
O101 C90 1.273 . S
O102 Nd73 2.410 . S
O102 C91 1.251 . S
O103 Nd72 2.424 . S
O103 C91 1.268 . S
H104 C76 0.930 . S
H105 C77 0.929 . S
H106 C79 0.930 1_455 S
H107 C80 0.929 . S
H108 C85 0.930 . S
H109 C86 0.929 . S
H110 C88 0.930 . S
H111 C89 0.929 . S
Nd112 C114 2.836 1_545 S
Nd112 O132 2.500 1_545 S
Nd112 O133 2.492 . S
Nd112 O134 2.487 . S
Nd112 O135 2.682 . S
Nd112 O136 2.410 . S
Nd112 O141 2.414 . S
Nd112 O143 2.424 . S
Nd113 C123 2.836 1_556 S
Nd113 O135 2.414 . S
Nd113 O137 2.424 . S
Nd113 O138 2.500 . S
Nd113 O139 2.492 1_556 S
Nd113 O140 2.487 1_556 S
Nd113 O141 2.682 . S
Nd113 O142 2.410 . S
C114 Nd112 2.836 1_565 S
C114 C115 1.498 . S
C114 O132 1.258 . S
C114 O133 1.239 1_565 S
C115 C114 1.498 . S
C115 C116 1.366 . S
C115 C120 1.407 . S
C116 C115 1.366 . S
C116 C117 1.392 . S
C116 H144 0.930 . S
C117 C116 1.392 . S
C117 C118 1.398 . S
C117 H145 0.929 . S
C118 C117 1.398 . S
C118 C119 1.352 . S
C119 C118 1.352 . S
C119 C120 1.384 . S
C119 H146 0.930 . S
C120 C115 1.407 . S
C120 C119 1.384 . S
C120 H147 0.929 1_565 S
C121 O134 1.241 . S
C121 O135 1.273 . S
C122 O136 1.251 . S
C122 O137 1.268 . S
C123 Nd113 2.836 1_554 S
C123 C124 1.498 . S
C123 O138 1.258 1_554 S
C123 O139 1.239 . S
C124 C123 1.498 . S
C124 C125 1.366 . S
C124 C129 1.407 . S
C125 C124 1.366 . S
C125 C126 1.392 . S
C125 H148 0.930 1_554 S
C126 C125 1.392 . S
C126 C127 1.398 . S
C126 H149 0.929 . S
C127 C126 1.398 . S
C127 C128 1.352 . S
C128 C127 1.352 . S
C128 C129 1.384 . S
C128 H150 0.930 . S
C129 C124 1.407 . S
C129 C128 1.384 . S
C129 H151 0.929 . S
C130 O140 1.241 1_566 S
C130 O141 1.273 1_565 S
C131 O142 1.251 . S
C131 O143 1.268 . S
O132 Nd112 2.500 1_565 S
O132 C114 1.258 . S
O133 Nd112 2.492 . S
O133 C114 1.239 1_545 S
O134 Nd112 2.487 . S
O134 C121 1.241 . S
O135 Nd112 2.682 . S
O135 Nd113 2.414 . S
O135 C121 1.273 . S
O136 Nd112 2.410 . S
O136 C122 1.251 . S
O137 Nd113 2.424 . S
O137 C122 1.268 . S
O138 Nd113 2.500 . S
O138 C123 1.258 1_556 S
O139 Nd113 2.492 1_554 S
O139 C123 1.239 . S
O140 Nd113 2.487 1_554 S
O140 C130 1.241 1_544 S
O141 Nd112 2.414 . S
O141 Nd113 2.682 . S
O141 C130 1.273 1_545 S
O142 Nd113 2.410 . S
O142 C131 1.251 . S
O143 Nd112 2.424 . S
O143 C131 1.268 . S
H144 C116 0.930 . S
H145 C117 0.929 . S
H146 C119 0.930 . S
H147 C120 0.929 1_545 S
H148 C125 0.930 1_556 S
H149 C126 0.929 . S
H150 C128 0.930 . S
H151 C129 0.929 . S
Nd152 C154 2.836 1_556 S
Nd152 O172 2.500 . S
Nd152 O173 2.492 1_556 S
Nd152 O174 2.487 . S
Nd152 O175 2.682 . S
Nd152 O176 2.410 . S
Nd152 O181 2.414 . S
Nd152 O183 2.424 . S
Nd153 C163 2.836 . S
Nd153 O175 2.414 . S
Nd153 O177 2.424 . S
Nd153 O178 2.500 . S
Nd153 O179 2.492 . S
Nd153 O180 2.487 . S
Nd153 O181 2.682 . S
Nd153 O182 2.410 . S
C154 Nd152 2.836 1_554 S
C154 C155 1.498 . S
C154 O172 1.258 1_554 S
C154 O173 1.239 . S
C155 C154 1.498 . S
C155 C156 1.366 . S
C155 C160 1.407 . S
C156 C155 1.366 . S
C156 C157 1.392 . S
C156 H184 0.930 1_554 S
C157 C156 1.392 . S
C157 C158 1.398 . S
C157 H185 0.929 . S
C158 C157 1.398 . S
C158 C159 1.352 . S
C159 C158 1.352 . S
C159 C160 1.384 . S
C159 H186 0.930 . S
C160 C155 1.407 . S
C160 C159 1.384 . S
C160 H187 0.929 . S
C161 O174 1.241 . S
C161 O175 1.273 . S
C162 O176 1.251 . S
C162 O177 1.268 . S
C163 Nd153 2.836 . S
C163 C164 1.498 . S
C163 O178 1.258 . S
C163 O179 1.239 . S
C164 C163 1.498 . S
C164 C165 1.366 . S
C164 C169 1.407 . S
C165 C164 1.366 . S
C165 C166 1.392 . S
C165 H188 0.930 . S
C166 C165 1.392 . S
C166 C167 1.398 . S
C166 H189 0.929 . S
C167 C166 1.398 . S
C167 C168 1.352 . S
C168 C167 1.352 . S
C168 C169 1.384 . S
C168 H190 0.930 . S
C169 C164 1.407 . S
C169 C168 1.384 . S
C169 H191 0.929 . S
C170 O180 1.241 . S
C170 O181 1.273 . S
C171 O182 1.251 . S
C171 O183 1.268 . S
O172 Nd152 2.500 . S
O172 C154 1.258 1_556 S
O173 Nd152 2.492 1_554 S
O173 C154 1.239 . S
O174 Nd152 2.487 . S
O174 C161 1.241 . S
O175 Nd152 2.682 . S
O175 Nd153 2.414 . S
O175 C161 1.273 . S
O176 Nd152 2.410 . S
O176 C162 1.251 . S
O177 Nd153 2.424 . S
O177 C162 1.268 . S
O178 Nd153 2.500 . S
O178 C163 1.258 . S
O179 Nd153 2.492 . S
O179 C163 1.239 . S
O180 Nd153 2.487 . S
O180 C170 1.241 . S
O181 Nd152 2.414 . S
O181 Nd153 2.682 . S
O181 C170 1.273 . S
O182 Nd153 2.410 . S
O182 C171 1.251 . S
O183 Nd152 2.424 . S
O183 C171 1.268 . S
H184 C156 0.930 1_556 S
H185 C157 0.929 . S
H186 C159 0.930 . S
H187 C160 0.929 . S
H188 C165 0.930 . S
H189 C166 0.929 . S
H190 C168 0.930 . S
H191 C169 0.929 . S
Nd192 C194 2.836 1_455 S
Nd192 O212 2.500 1_455 S
Nd192 O213 2.492 1_455 S
Nd192 O214 2.487 . S
Nd192 O215 2.682 . S
Nd192 O216 2.410 1_455 S
Nd192 O221 2.414 . S
Nd192 O223 2.424 . S
Nd193 C203 2.836 1_556 S
Nd193 O215 2.414 . S
Nd193 O217 2.424 1_455 S
Nd193 O218 2.500 1_556 S
Nd193 O219 2.492 1_556 S
Nd193 O220 2.487 . S
Nd193 O221 2.682 . S
Nd193 O222 2.410 . S
C194 Nd192 2.836 1_655 S
C194 C195 1.498 . S
C194 O212 1.258 . S
C194 O213 1.239 . S
C195 C194 1.498 . S
C195 C196 1.366 . S
C195 C200 1.407 . S
C196 C195 1.366 . S
C196 C197 1.392 . S
C196 H224 0.930 . S
C197 C196 1.392 . S
C197 C198 1.398 . S
C197 H225 0.929 . S
C198 C197 1.398 . S
C198 C199 1.352 . S
C199 C198 1.352 . S
C199 C200 1.384 . S
C199 H226 0.930 . S
C200 C195 1.407 . S
C200 C199 1.384 . S
C200 H227 0.929 . S
C201 O214 1.241 . S
C201 O215 1.273 . S
C202 O216 1.251 . S
C202 O217 1.268 . S
C203 Nd193 2.836 1_554 S
C203 C204 1.498 . S
C203 O218 1.258 . S
C203 O219 1.239 . S
C204 C203 1.498 . S
C204 C205 1.366 . S
C204 C209 1.407 . S
C205 C204 1.366 . S
C205 C206 1.392 . S
C205 H228 0.930 . S
C206 C205 1.392 . S
C206 C207 1.398 . S
C206 H229 0.929 . S
C207 C206 1.398 . S
C207 C208 1.352 . S
C208 C207 1.352 . S
C208 C209 1.384 . S
C208 H230 0.930 . S
C209 C204 1.407 . S
C209 C208 1.384 . S
C209 H231 0.929 . S
C210 O220 1.241 . S
C210 O221 1.273 . S
C211 O222 1.251 . S
C211 O223 1.268 . S
O212 Nd192 2.500 1_655 S
O212 C194 1.258 . S
O213 Nd192 2.492 1_655 S
O213 C194 1.239 . S
O214 Nd192 2.487 . S
O214 C201 1.241 . S
O215 Nd192 2.682 . S
O215 Nd193 2.414 . S
O215 C201 1.273 . S
O216 Nd192 2.410 1_655 S
O216 C202 1.251 . S
O217 Nd193 2.424 1_655 S
O217 C202 1.268 . S
O218 Nd193 2.500 1_554 S
O218 C203 1.258 . S
O219 Nd193 2.492 1_554 S
O219 C203 1.239 . S
O220 Nd193 2.487 . S
O220 C210 1.241 . S
O221 Nd192 2.414 . S
O221 Nd193 2.682 . S
O221 C210 1.273 . S
O222 Nd193 2.410 . S
O222 C211 1.251 . S
O223 Nd192 2.424 . S
O223 C211 1.268 . S
H224 C196 0.930 . S
H225 C197 0.929 . S
H226 C199 0.930 . S
H227 C200 0.929 . S
H228 C205 0.930 . S
H229 C206 0.929 . S
H230 C208 0.930 . S
H231 C209 0.929 . S
H232 C238 0.930 . S
H233 C241 0.930 . S
H234 C242 0.930 . S
H235 C243 0.930 . S
H236 C246 0.930 . S
H237 C247 0.930 . S
C238 H232 0.930 . S
C238 C239 1.355 . S
C238 C240 1.415 . S
C239 C238 1.355 . S
C239 C241 1.419 . S
C240 C238 1.415 . S
C240 C245 1.425 . S
C240 C247 1.409 . S
C241 H233 0.930 . S
C241 C239 1.419 . S
C241 C242 1.362 . S
C242 H234 0.930 . S
C242 C241 1.362 . S
C242 C245 1.409 . S
C243 H235 0.930 . S
C243 C244 1.355 . S
C243 C245 1.415 . S
C244 C243 1.355 . S
C244 C246 1.419 . S
C245 C240 1.425 . S
C245 C242 1.409 . S
C245 C243 1.415 . S
C246 H236 0.930 . S
C246 C244 1.419 . S
C246 C247 1.362 . S
C247 H237 0.930 . S
C247 C240 1.409 . S
C247 C246 1.362 . S
H248 C254 0.930 . S
H249 C257 0.930 . S
H250 C258 0.930 . S
H251 C259 0.930 . S
H252 C262 0.930 . S
H253 C263 0.930 . S
C254 H248 0.930 . S
C254 C255 1.355 . S
C254 C256 1.415 . S
C255 C254 1.355 . S
C255 C257 1.419 . S
C256 C254 1.415 . S
C256 C261 1.425 . S
C256 C263 1.409 . S
C257 H249 0.930 . S
C257 C255 1.419 . S
C257 C258 1.362 . S
C258 H250 0.930 . S
C258 C257 1.362 . S
C258 C261 1.409 . S
C259 H251 0.930 . S
C259 C260 1.355 . S
C259 C261 1.415 . S
C260 C259 1.355 . S
C260 C262 1.419 . S
C261 C256 1.425 . S
C261 C258 1.409 . S
C261 C259 1.415 . S
C262 H252 0.930 . S
C262 C260 1.419 . S
C262 C263 1.362 . S
C263 H253 0.930 . S
C263 C256 1.409 . S
C263 C262 1.362 . S
H264 C270 0.930 . S
H265 C273 0.930 . S
H266 C274 0.930 . S
H267 C275 0.930 . S
H268 C278 0.930 . S
H269 C279 0.930 . S
C270 H264 0.930 . S
C270 C271 1.355 . S
C270 C272 1.415 . S
C271 C270 1.355 . S
C271 C273 1.419 . S
C272 C270 1.415 . S
C272 C277 1.425 . S
C272 C279 1.409 . S
C273 H265 0.930 . S
C273 C271 1.419 . S
C273 C274 1.362 . S
C274 H266 0.930 . S
C274 C273 1.362 . S
C274 C277 1.409 . S
C275 H267 0.930 . S
C275 C276 1.355 . S
C275 C277 1.415 . S
C276 C275 1.355 . S
C276 C278 1.419 . S
C277 C272 1.425 . S
C277 C274 1.409 . S
C277 C275 1.415 . S
C278 H268 0.930 . S
C278 C276 1.419 . S
C278 C279 1.362 . S
C279 H269 0.930 . S
C279 C272 1.409 . S
C279 C278 1.362 . S
H280 C286 0.930 . S
H281 C289 0.930 . S
H282 C290 0.930 . S
H283 C291 0.930 . S
H284 C294 0.930 . S
H285 C295 0.930 . S
C286 H280 0.930 . S
C286 C287 1.355 . S
C286 C288 1.415 . S
C287 C286 1.355 . S
C287 C289 1.419 . S
C288 C286 1.415 . S
C288 C293 1.425 . S
C288 C295 1.409 . S
C289 H281 0.930 . S
C289 C287 1.419 . S
C289 C290 1.362 . S
C290 H282 0.930 . S
C290 C289 1.362 . S
C290 C293 1.409 . S
C291 H283 0.930 . S
C291 C292 1.355 . S
C291 C293 1.415 . S
C292 C291 1.355 . S
C292 C294 1.419 . S
C293 C288 1.425 . S
C293 C290 1.409 . S
C293 C291 1.415 . S
C294 H284 0.930 . S
C294 C292 1.419 . S
C294 C295 1.362 . S
C295 H285 0.930 . S
C295 C288 1.409 . S
C295 C294 1.362 . S
H296 C302 0.930 . S
H297 C305 0.930 . S
H298 C306 0.930 . S
H299 C307 0.930 . S
H300 C310 0.930 . S
H301 C311 0.930 . S
C302 H296 0.930 . S
C302 C303 1.355 . S
C302 C304 1.415 . S
C303 C302 1.355 . S
C303 C305 1.419 1_566 S
C304 C302 1.415 . S
C304 C309 1.425 1_565 S
C304 C311 1.409 . S
C305 H297 0.930 . S
C305 C303 1.419 1_544 S
C305 C306 1.362 . S
C306 H298 0.930 . S
C306 C305 1.362 . S
C306 C309 1.409 1_554 S
C307 H299 0.930 . S
C307 C308 1.355 . S
C307 C309 1.415 . S
C308 C307 1.355 . S
C308 C310 1.419 1_545 S
C309 C304 1.425 1_545 S
C309 C306 1.409 1_556 S
C309 C307 1.415 . S
C310 H300 0.930 . S
C310 C308 1.419 1_565 S
C310 C311 1.362 . S
C311 H301 0.930 . S
C311 C304 1.409 . S
C311 C310 1.362 . S
H312 C318 0.930 . S
H313 C321 0.930 . S
H314 C322 0.930 . S
H315 C323 0.930 . S
H316 C326 0.930 1_556 S
H317 C327 0.930 . S
C318 H312 0.930 . S
C318 C319 1.355 . S
C318 C320 1.415 . S
C319 C318 1.355 . S
C319 C321 1.419 . S
C320 C318 1.415 . S
C320 C325 1.425 . S
C320 C327 1.409 . S
C321 H313 0.930 . S
C321 C319 1.419 . S
C321 C322 1.362 . S
C322 H314 0.930 . S
C322 C321 1.362 . S
C322 C325 1.409 . S
C323 H315 0.930 . S
C323 C324 1.355 . S
C323 C325 1.415 . S
C324 C323 1.355 . S
C324 C326 1.419 . S
C325 C320 1.425 . S
C325 C322 1.409 . S
C325 C323 1.415 . S
C326 H316 0.930 1_554 S
C326 C324 1.419 . S
C326 C327 1.362 . S
C327 H317 0.930 . S
C327 C320 1.409 . S
C327 C326 1.362 . S
H328 C334 0.930 . S
H329 C337 0.930 . S
H330 C338 0.930 . S
H331 C339 0.930 . S
H332 C342 0.930 . S
H333 C343 0.930 . S
C334 H328 0.930 . S
C334 C335 1.355 1_554 S
C334 C336 1.415 1_554 S
C335 C334 1.355 1_556 S
C335 C337 1.419 . S
C336 C334 1.415 1_556 S
C336 C341 1.425 . S
C336 C343 1.409 1_556 S
C337 H329 0.930 . S
C337 C335 1.419 . S
C337 C338 1.362 . S
C338 H330 0.930 . S
C338 C337 1.362 . S
C338 C341 1.409 . S
C339 H331 0.930 . S
C339 C340 1.355 . S
C339 C341 1.415 . S
C340 C339 1.355 . S
C340 C342 1.419 1_556 S
C341 C336 1.425 . S
C341 C338 1.409 . S
C341 C339 1.415 . S
C342 H332 0.930 . S
C342 C340 1.419 1_554 S
C342 C343 1.362 . S
C343 H333 0.930 . S
C343 C336 1.409 1_554 S
C343 C342 1.362 . S
H344 C350 0.930 . S
H345 C353 0.930 . S
H346 C354 0.930 . S
H347 C355 0.930 . S
H348 C358 0.930 1_455 S
H349 C359 0.930 . S
C350 H344 0.930 . S
C350 C351 1.355 . S
C350 C352 1.415 . S
C351 C350 1.355 . S
C351 C353 1.419 1_554 S
C352 C350 1.415 . S
C352 C357 1.425 1_554 S
C352 C359 1.409 . S
C353 H345 0.930 . S
C353 C351 1.419 1_556 S
C353 C354 1.362 . S
C354 H346 0.930 . S
C354 C353 1.362 . S
C354 C357 1.409 . S
C355 H347 0.930 . S
C355 C356 1.355 . S
C355 C357 1.415 . S
C356 C355 1.355 . S
C356 C358 1.419 1_556 S
C357 C352 1.425 1_556 S
C357 C354 1.409 . S
C357 C355 1.415 . S
C358 H348 0.930 1_655 S
C358 C356 1.419 1_554 S
C358 C359 1.362 . S
C359 H349 0.930 . S
C359 C352 1.409 . S
C359 C358 1.362 . S
H360 C366 0.930 . S
H361 C369 0.930 . S
H362 C370 0.930 . S
H363 C371 0.930 . S
H364 C374 0.930 . S
H365 C375 0.930 . S
C366 H360 0.930 . S
C366 C367 1.355 . S
C366 C368 1.415 . S
C367 C366 1.355 . S
C367 C369 1.419 . S
C368 C366 1.415 . S
C368 C373 1.425 . S
C368 C375 1.409 . S
C369 H361 0.930 . S
C369 C367 1.419 . S
C369 C370 1.362 . S
C370 H362 0.930 . S
C370 C369 1.362 . S
C370 C373 1.409 . S
C371 H363 0.930 . S
C371 C372 1.355 . S
C371 C373 1.415 . S
C372 C371 1.355 . S
C372 C374 1.419 . S
C373 C368 1.425 . S
C373 C370 1.409 . S
C373 C371 1.415 . S
C374 H364 0.930 . S
C374 C372 1.419 . S
C374 C375 1.362 . S
C375 H365 0.930 . S
C375 C368 1.409 . S
C375 C374 1.362 . S
H376 C382 0.930 . S
H377 C385 0.930 . S
H378 C386 0.930 . S
H379 C387 0.930 . S
H380 C390 0.930 . S
H381 C391 0.930 . S
C382 H376 0.930 . S
C382 C383 1.355 . S
C382 C384 1.415 . S
C383 C382 1.355 . S
C383 C385 1.419 . S
C384 C382 1.415 . S
C384 C389 1.425 . S
C384 C391 1.409 . S
C385 H377 0.930 . S
C385 C383 1.419 . S
C385 C386 1.362 . S
C386 H378 0.930 . S
C386 C385 1.362 . S
C386 C389 1.409 . S
C387 H379 0.930 . S
C387 C388 1.355 . S
C387 C389 1.415 . S
C388 C387 1.355 . S
C388 C390 1.419 . S
C389 C384 1.425 . S
C389 C386 1.409 . S
C389 C387 1.415 . S
C390 H380 0.930 . S
C390 C388 1.419 . S
C390 C391 1.362 . S
C391 H381 0.930 . S
C391 C384 1.409 . S
C391 C390 1.362 . S
H392 C398 0.930 . S
H393 C401 0.930 . S
H394 C402 0.930 . S
H395 C403 0.930 . S
H396 C406 0.930 . S
H397 C407 0.930 . S
C398 H392 0.930 . S
C398 C399 1.355 . S
C398 C400 1.415 . S
C399 C398 1.355 . S
C399 C401 1.419 . S
C400 C398 1.415 . S
C400 C405 1.425 . S
C400 C407 1.409 . S
C401 H393 0.930 . S
C401 C399 1.419 . S
C401 C402 1.362 . S
C402 H394 0.930 . S
C402 C401 1.362 . S
C402 C405 1.409 . S
C403 H395 0.930 . S
C403 C404 1.355 . S
C403 C405 1.415 . S
C404 C403 1.355 . S
C404 C406 1.419 . S
C405 C400 1.425 . S
C405 C402 1.409 . S
C405 C403 1.415 . S
C406 H396 0.930 . S
C406 C404 1.419 . S
C406 C407 1.362 . S
C407 H397 0.930 . S
C407 C400 1.409 . S
C407 C406 1.362 . S
H408 C414 0.930 . S
H409 C417 0.930 . S
H410 C418 0.930 . S
H411 C419 0.930 . S
H412 C422 0.930 . S
H413 C423 0.930 . S
C414 H408 0.930 . S
C414 C415 1.355 . S
C414 C416 1.415 . S
C415 C414 1.355 . S
C415 C417 1.419 . S
C416 C414 1.415 . S
C416 C421 1.425 . S
C416 C423 1.409 . S
C417 H409 0.930 . S
C417 C415 1.419 . S
C417 C418 1.362 . S
C418 H410 0.930 . S
C418 C417 1.362 . S
C418 C421 1.409 . S
C419 H411 0.930 . S
C419 C420 1.355 . S
C419 C421 1.415 . S
C420 C419 1.355 . S
C420 C422 1.419 . S
C421 C416 1.425 . S
C421 C418 1.409 . S
C421 C419 1.415 . S
C422 H412 0.930 . S
C422 C420 1.419 . S
C422 C423 1.362 . S
C423 H413 0.930 . S
C423 C416 1.409 . S
C423 C422 1.362 . S
H424 C430 0.930 . S
H425 C433 0.930 . S
H426 C434 0.930 1_455 S
H427 C435 0.930 . S
H428 C438 0.930 . S
H429 C439 0.930 . S
C430 H424 0.930 . S
C430 C431 1.355 . S
C430 C432 1.415 . S
C431 C430 1.355 . S
C431 C433 1.419 . S
C432 C430 1.415 . S
C432 C437 1.425 . S
C432 C439 1.409 . S
C433 H425 0.930 . S
C433 C431 1.419 . S
C433 C434 1.362 . S
C434 H426 0.930 1_655 S
C434 C433 1.362 . S
C434 C437 1.409 . S
C435 H427 0.930 . S
C435 C436 1.355 1_455 S
C435 C437 1.415 1_455 S
C436 C435 1.355 1_655 S
C436 C438 1.419 . S
C437 C432 1.425 . S
C437 C434 1.409 . S
C437 C435 1.415 1_655 S
C438 H428 0.930 . S
C438 C436 1.419 . S
C438 C439 1.362 . S
C439 H429 0.930 . S
C439 C432 1.409 . S
C439 C438 1.362 . S
H440 C446 0.930 . S
H441 C449 0.930 . S
H442 C450 0.930 . S
H443 C451 0.930 1_565 S
H444 C454 0.930 . S
H445 C455 0.930 . S
C446 H440 0.930 . S
C446 C447 1.355 1_545 S
C446 C448 1.415 . S
C447 C446 1.355 1_565 S
C447 C449 1.419 . S
C448 C446 1.415 . S
C448 C453 1.425 1_545 S
C448 C455 1.409 . S
C449 H441 0.930 . S
C449 C447 1.419 . S
C449 C450 1.362 . S
C450 H442 0.930 . S
C450 C449 1.362 . S
C450 C453 1.409 . S
C451 H443 0.930 1_545 S
C451 C452 1.355 . S
C451 C453 1.415 1_545 S
C452 C451 1.355 . S
C452 C454 1.419 . S
C453 C448 1.425 1_565 S
C453 C450 1.409 . S
C453 C451 1.415 1_565 S
C454 H444 0.930 . S
C454 C452 1.419 . S
C454 C455 1.362 . S
C455 H445 0.930 . S
C455 C448 1.409 . S
C455 C454 1.362 . S
H456 C462 0.930 . S
H457 C465 0.930 . S
H458 C466 0.930 . S
H459 C467 0.930 . S
H460 C470 0.930 . S
H461 C471 0.930 . S
C462 H456 0.930 . S
C462 C463 1.355 . S
C462 C464 1.415 . S
C463 C462 1.355 . S
C463 C465 1.419 . S
C464 C462 1.415 . S
C464 C469 1.425 . S
C464 C471 1.409 . S
C465 H457 0.930 . S
C465 C463 1.419 . S
C465 C466 1.362 . S
C466 H458 0.930 . S
C466 C465 1.362 . S
C466 C469 1.409 . S
C467 H459 0.930 . S
C467 C468 1.355 . S
C467 C469 1.415 . S
C468 C467 1.355 . S
C468 C470 1.419 . S
C469 C464 1.425 . S
C469 C466 1.409 . S
C469 C467 1.415 . S
C470 H460 0.930 . S
C470 C468 1.419 . S
C470 C471 1.362 . S
C471 H461 0.930 . S
C471 C464 1.409 . S
C471 C470 1.362 . S
H472 C478 0.930 . S
H473 C481 0.930 . S
H474 C482 0.930 . S
H475 C483 0.930 . S
H476 C486 0.930 . S
H477 C487 0.930 1_554 S
C478 H472 0.930 . S
C478 C479 1.355 . S
C478 C480 1.415 . S
C479 C478 1.355 . S
C479 C481 1.419 . S
C480 C478 1.415 . S
C480 C485 1.425 . S
C480 C487 1.409 . S
C481 H473 0.930 . S
C481 C479 1.419 . S
C481 C482 1.362 . S
C482 H474 0.930 . S
C482 C481 1.362 . S
C482 C485 1.409 . S
C483 H475 0.930 . S
C483 C484 1.355 . S
C483 C485 1.415 . S
C484 C483 1.355 . S
C484 C486 1.419 . S
C485 C480 1.425 . S
C485 C482 1.409 . S
C485 C483 1.415 . S
C486 H476 0.930 . S
C486 C484 1.419 . S
C486 C487 1.362 . S
C487 H477 0.930 1_556 S
C487 C480 1.409 . S
C487 C486 1.362 . S
H488 C494 0.930 . S
H489 C497 0.930 . S
H490 C498 0.930 . S
H491 C499 0.930 . S
H492 C502 0.930 . S
H493 C503 0.930 . S
C494 H488 0.930 . S
C494 C495 1.355 . S
C494 C496 1.415 . S
C495 C494 1.355 . S
C495 C497 1.419 . S
C496 C494 1.415 . S
C496 C501 1.425 . S
C496 C503 1.409 . S
C497 H489 0.930 . S
C497 C495 1.419 . S
C497 C498 1.362 . S
C498 H490 0.930 . S
C498 C497 1.362 . S
C498 C501 1.409 . S
C499 H491 0.930 . S
C499 C500 1.355 . S
C499 C501 1.415 . S
C500 C499 1.355 . S
C500 C502 1.419 . S
C501 C496 1.425 . S
C501 C498 1.409 . S
C501 C499 1.415 . S
C502 H492 0.930 . S
C502 C500 1.419 . S
C502 C503 1.362 . S
C503 H493 0.930 . S
C503 C496 1.409 . S
C503 C502 1.362 . S
H504 C510 0.930 . S
H505 C513 0.930 . S
H506 C514 0.930 . S
H507 C515 0.930 . S
H508 C518 0.930 . S
H509 C519 0.930 . S
C510 H504 0.930 . S
C510 C511 1.355 . S
C510 C512 1.415 . S
C511 C510 1.355 . S
C511 C513 1.419 . S
C512 C510 1.415 . S
C512 C517 1.425 . S
C512 C519 1.409 . S
C513 H505 0.930 . S
C513 C511 1.419 . S
C513 C514 1.362 . S
C514 H506 0.930 . S
C514 C513 1.362 . S
C514 C517 1.409 . S
C515 H507 0.930 . S
C515 C516 1.355 . S
C515 C517 1.415 . S
C516 C515 1.355 . S
C516 C518 1.419 . S
C517 C512 1.425 . S
C517 C514 1.409 . S
C517 C515 1.415 . S
C518 H508 0.930 . S
C518 C516 1.419 . S
C518 C519 1.362 . S
C519 H509 0.930 . S
C519 C512 1.409 . S
C519 C518 1.362 . S
H520 C526 0.930 . S
H521 C529 0.930 . S
H522 C530 0.930 . S
H523 C531 0.930 . S
H524 C534 0.930 . S
H525 C535 0.930 . S
C526 H520 0.930 . S
C526 C527 1.355 . S
C526 C528 1.415 . S
C527 C526 1.355 . S
C527 C529 1.419 . S
C528 C526 1.415 . S
C528 C533 1.425 . S
C528 C535 1.409 . S
C529 H521 0.930 . S
C529 C527 1.419 . S
C529 C530 1.362 . S
C530 H522 0.930 . S
C530 C529 1.362 . S
C530 C533 1.409 . S
C531 H523 0.930 . S
C531 C532 1.355 . S
C531 C533 1.415 . S
C532 C531 1.355 . S
C532 C534 1.419 . S
C533 C528 1.425 . S
C533 C530 1.409 . S
C533 C531 1.415 . S
C534 H524 0.930 . S
C534 C532 1.419 . S
C534 C535 1.362 . S
C535 H525 0.930 . S
C535 C528 1.409 . S
C535 C534 1.362 . S
H536 C542 0.930 . S
H537 C545 0.930 . S
H538 C546 0.930 . S
H539 C547 0.930 . S
H540 C550 0.930 . S
H541 C551 0.930 . S
C542 H536 0.930 . S
C542 C543 1.355 . S
C542 C544 1.415 . S
C543 C542 1.355 . S
C543 C545 1.419 . S
C544 C542 1.415 . S
C544 C549 1.425 . S
C544 C551 1.409 . S
C545 H537 0.930 . S
C545 C543 1.419 . S
C545 C546 1.362 . S
C546 H538 0.930 . S
C546 C545 1.362 . S
C546 C549 1.409 . S
C547 H539 0.930 . S
C547 C548 1.355 . S
C547 C549 1.415 . S
C548 C547 1.355 . S
C548 C550 1.419 . S
C549 C544 1.425 . S
C549 C546 1.409 . S
C549 C547 1.415 . S
C550 H540 0.930 . S
C550 C548 1.419 . S
C550 C551 1.362 . S
C551 H541 0.930 . S
C551 C544 1.409 . S
C551 C550 1.362 . S
H552 C558 0.930 . S
H553 C561 0.930 . S
H554 C562 0.930 . S
H555 C563 0.930 . S
H556 C566 0.930 . S
H557 C567 0.930 . S
C558 H552 0.930 . S
C558 C559 1.355 . S
C558 C560 1.415 . S
C559 C558 1.355 . S
C559 C561 1.419 . S
C560 C558 1.415 . S
C560 C565 1.425 . S
C560 C567 1.409 . S
C561 H553 0.930 . S
C561 C559 1.419 . S
C561 C562 1.362 . S
C562 H554 0.930 . S
C562 C561 1.362 . S
C562 C565 1.409 . S
C563 H555 0.930 . S
C563 C564 1.355 . S
C563 C565 1.415 . S
C564 C563 1.355 . S
C564 C566 1.419 . S
C565 C560 1.425 . S
C565 C562 1.409 . S
C565 C563 1.415 . S
C566 H556 0.930 . S
C566 C564 1.419 . S
C566 C567 1.362 . S
C567 H557 0.930 . S
C567 C560 1.409 . S
C567 C566 1.362 . S
H568 C574 0.930 . S
H569 C577 0.930 . S
H570 C578 0.930 . S
H571 C579 0.930 . S
H572 C582 0.930 . S
H573 C583 0.930 1_545 S
C574 H568 0.930 . S
C574 C575 1.355 . S
C574 C576 1.415 . S
C575 C574 1.355 . S
C575 C577 1.419 . S
C576 C574 1.415 . S
C576 C581 1.425 . S
C576 C583 1.409 . S
C577 H569 0.930 . S
C577 C575 1.419 . S
C577 C578 1.362 . S
C578 H570 0.930 . S
C578 C577 1.362 . S
C578 C581 1.409 . S
C579 H571 0.930 . S
C579 C580 1.355 . S
C579 C581 1.415 . S
C580 C579 1.355 . S
C580 C582 1.419 . S
C581 C576 1.425 . S
C581 C578 1.409 . S
C581 C579 1.415 . S
C582 H572 0.930 . S
C582 C580 1.419 . S
C582 C583 1.362 . S
C583 H573 0.930 1_565 S
C583 C576 1.409 . S
C583 C582 1.362 . S
H584 C590 0.930 . S
H585 C593 0.930 . S
H586 C594 0.930 . S
H587 C595 0.930 . S
H588 C598 0.930 . S
H589 C599 0.930 . S
C590 H584 0.930 . S
C590 C591 1.355 . S
C590 C592 1.415 . S
C591 C590 1.355 . S
C591 C593 1.419 . S
C592 C590 1.415 . S
C592 C597 1.425 . S
C592 C599 1.409 . S
C593 H585 0.930 . S
C593 C591 1.419 . S
C593 C594 1.362 . S
C594 H586 0.930 . S
C594 C593 1.362 . S
C594 C597 1.409 . S
C595 H587 0.930 . S
C595 C596 1.355 . S
C595 C597 1.415 . S
C596 C595 1.355 . S
C596 C598 1.419 . S
C597 C592 1.425 . S
C597 C594 1.409 . S
C597 C595 1.415 . S
C598 H588 0.930 . S
C598 C596 1.419 . S
C598 C599 1.362 . S
C599 H589 0.930 . S
C599 C592 1.409 . S
C599 C598 1.362 . S
H600 C606 0.930 . S
H601 C609 0.930 . S
H602 C610 0.930 . S
H603 C611 0.930 . S
H604 C614 0.930 . S
H605 C615 0.930 . S
C606 H600 0.930 . S
C606 C607 1.355 . S
C606 C608 1.415 . S
C607 C606 1.355 . S
C607 C609 1.419 . S
C608 C606 1.415 . S
C608 C613 1.425 . S
C608 C615 1.409 . S
C609 H601 0.930 . S
C609 C607 1.419 . S
C609 C610 1.362 . S
C610 H602 0.930 . S
C610 C609 1.362 . S
C610 C613 1.409 . S
C611 H603 0.930 . S
C611 C612 1.355 . S
C611 C613 1.415 . S
C612 C611 1.355 . S
C612 C614 1.419 . S
C613 C608 1.425 . S
C613 C610 1.409 . S
C613 C611 1.415 . S
C614 H604 0.930 . S
C614 C612 1.419 . S
C614 C615 1.362 . S
C615 H605 0.930 . S
C615 C608 1.409 . S
C615 C614 1.362 . S
C239 C61 1.402 . S
C244 C81 1.402 . S
C260 C121 1.514 . S
C255 C70 1.560 . S
C276 C170 1.287 . S
C271 C43 1.264 . S
C292 C201 1.730 . S
C287 C52 1.799 . S
C308 C90 1.391 . S
C303 C25 1.383 . S
C319 C34 1.568 . S
C324 C130 1.538 1_554 S
C335 C7 1.275 1_556 S
C340 C161 1.206 . S
C351 C16 1.760 . S
C356 C210 1.671 1_655 S
C372 C91 0.905 . S
C367 C50 0.899 . S
C388 C131 1.134 . S
C383 C59 1.017 . S
C404 C167 0.811 . S
C399 C67 0.778 . S
C415 C41 0.976 . S
C420 C211 1.100 . S
C431 C14 0.854 1_556 S
C436 C82 0.877 1_655 S
C452 C122 1.198 . S
C447 C23 1.099 . S
C468 C158 0.812 . S
C463 C31 0.774 . S
C479 C5 1.021 . S
C484 C202 1.101 . S
C495 C49 1.683 . S
C500 C87 1.752 . S
C511 C58 1.677 . S
C516 C127 1.663 . S
C532 C171 2.090 1_554 S
C527 C68 1.923 . S
C548 C207 1.525 . S
C543 C40 1.523 . S
C559 C13 1.731 . S
C564 C78 1.739 . S
C580 C118 1.605 . S
C575 C22 1.687 . S
C596 C162 2.090 . S
C591 C32 1.936 . S
C607 C4 1.480 . S
C612 C198 1.491 . S
