# Generated by pormake.
# Topology anh, (6,3)-cn, num edge types: 1
# Building blocks:
#     Node 0, Type 0, BuildingBlock: BETDAH_clean_sbu_0, # of connection points: 6
#     Node 1, Type 0, BuildingBlock: BETDAH_clean_sbu_0, # of connection points: 6
#     Node 2, Type 0, BuildingBlock: BETDAH_clean_sbu_0, # of connection points: 6
#     Node 3, Type 1, BuildingBlock: QEWDON_clean_linker_0, # of connection points: 3
#     Node 4, Type 1, BuildingBlock: QEWDON_clean_linker_0, # of connection points: 3
#     Node 5, Type 1, BuildingBlock: QEWDON_clean_linker_0, # of connection points: 3
#     Node 6, Type 1, BuildingBlock: QEWDON_clean_linker_0, # of connection points: 3
#     Node 7, Type 1, BuildingBlock: QEWDON_clean_linker_0, # of connection points: 3
#     Node 8, Type 1, BuildingBlock: QEWDON_clean_linker_0, # of connection points: 3
#     Edge 9, Type (0, 1), BuildingBlock: ZUJKAS_clean_linker_0, # of connection points: 2
#     Edge 10, Type (0, 1), BuildingBlock: ZUJKAS_clean_linker_0, # of connection points: 2
#     Edge 11, Type (0, 1), BuildingBlock: ZUJKAS_clean_linker_0, # of connection points: 2
#     Edge 12, Type (0, 1), BuildingBlock: ZUJKAS_clean_linker_0, # of connection points: 2
#     Edge 13, Type (0, 1), BuildingBlock: ZUJKAS_clean_linker_0, # of connection points: 2
#     Edge 14, Type (0, 1), BuildingBlock: ZUJKAS_clean_linker_0, # of connection points: 2
#     Edge 15, Type (0, 1), BuildingBlock: ZUJKAS_clean_linker_0, # of connection points: 2
#     Edge 16, Type (0, 1), BuildingBlock: ZUJKAS_clean_linker_0, # of connection points: 2
#     Edge 17, Type (0, 1), BuildingBlock: ZUJKAS_clean_linker_0, # of connection points: 2
#     Edge 18, Type (0, 1), BuildingBlock: ZUJKAS_clean_linker_0, # of connection points: 2
#     Edge 19, Type (0, 1), BuildingBlock: ZUJKAS_clean_linker_0, # of connection points: 2
#     Edge 20, Type (0, 1), BuildingBlock: ZUJKAS_clean_linker_0, # of connection points: 2
#     Edge 21, Type (0, 1), BuildingBlock: ZUJKAS_clean_linker_0, # of connection points: 2
#     Edge 22, Type (0, 1), BuildingBlock: ZUJKAS_clean_linker_0, # of connection points: 2
#     Edge 23, Type (0, 1), BuildingBlock: ZUJKAS_clean_linker_0, # of connection points: 2
#     Edge 24, Type (0, 1), BuildingBlock: ZUJKAS_clean_linker_0, # of connection points: 2
#     Edge 25, Type (0, 1), BuildingBlock: ZUJKAS_clean_linker_0, # of connection points: 2
#     Edge 26, Type (0, 1), BuildingBlock: ZUJKAS_clean_linker_0, # of connection points: 2
# Relax obj value: 0.108
# Max RMSD: 0.160
# Mean RMSD: 0.125
data_MOF--net-anh--node1-BETDAH_clean_sbu_0--node2-QEWDON_clean_linker_0--edge1-ZUJKAS_clean_linker_0
_symmetry_space_group_name_H-M    P1
_symmetry_Int_Tables_number       1
_symmetry_cell_setting            triclinic
loop_
_symmetry_equiv_pos_as_xyz
'x, y, z'
_cell_length_a     40.924358
_cell_length_b     48.600208
_cell_length_c     62.15172
_cell_angle_alpha  96.113438
_cell_angle_beta   91.005793
_cell_angle_gamma 128.04041
loop_
_atom_site_label
_atom_site_type_symbol
_atom_site_fract_x
_atom_site_fract_y
_atom_site_fract_z
_atom_type_partial_charge
Ho0 Ho 0.12028 0.54091 0.1517 0.0
Ho1 Ho 1.06615 0.56164 0.16552 0.0
C2 C 0.16517 0.62343 0.16264 0.0
C3 C 0.16069 0.52153 0.13365 0.0
C4 C 0.20582 0.54092 0.13444 0.0
C5 C 0.22218 0.52581 0.12361 0.0
C6 C 0.26527 0.54382 0.12576 0.0
C7 C 0.29239 0.57713 0.13881 0.0
C8 C 0.27575 0.59252 0.14908 0.0
C9 C 0.23285 0.57452 0.14695 0.0
C10 C 0.12097 0.55423 0.19495 0.0
C11 C 1.02156 0.47994 0.15484 0.0
C12 C 1.02651 0.58017 0.18555 0.0
C13 C 0.98477 0.55831 0.19299 0.0
C14 C 0.96848 0.52556 0.19949 0.0
C15 C 0.92619 0.50164 0.2023 0.0
C16 C 0.89962 0.51002 0.19837 0.0
C17 C 0.91651 0.54363 0.19318 0.0
C18 C 0.95882 0.56761 0.19052 0.0
C19 C 1.06631 0.54866 0.12219 0.0
O20 O 0.16762 0.59941 0.15271 0.0
O21 O 0.13046 0.61474 0.17039 0.0
O22 O 0.14554 0.51293 0.15229 0.0
O23 O 0.14641 0.53484 0.12335 0.0
O24 O 0.15352 0.56268 0.18565 0.0
O25 O 0.08962 0.5378 0.18105 0.0
O26 O 1.02159 0.50397 0.16693 0.0
O27 O 1.05434 0.4888 0.14465 0.0
O28 O 1.02671 0.57705 0.1644 0.0
O29 O 1.05476 0.57995 0.19553 0.0
O30 O 1.03346 0.54014 0.13122 0.0
O31 O 0.09715 0.56499 0.13635 0.0
H32 H 0.20165 0.49984 0.11394 0.0
H33 H 0.27718 0.53114 0.11786 0.0
H34 H 0.29586 0.61826 0.15902 0.0
H35 H 0.22071 0.58653 0.1555 0.0
H36 H 0.98785 0.51763 0.20126 0.0
H37 H 0.91381 0.4758 0.20613 0.0
H38 H 0.89657 0.55073 0.19024 0.0
H39 H 0.97076 0.59262 0.18538 0.0
Ho40 Ho 0.6519 0.07208 0.49246 0.0
Ho41 Ho 0.59366 0.08887 0.48064 0.0
C42 C 0.55149 0.00851 0.48037 0.0
C43 C 0.68551 0.04713 0.5091 0.0
C44 C 0.67354 0.01186 0.51086 0.0
C45 C 0.67063 1.00153 0.53146 0.0
C46 C 0.6607 0.96881 0.53353 0.0
C47 C 0.65383 0.9458 0.51504 0.0
C48 C 0.65639 0.95603 0.49441 0.0
C49 C 0.66605 0.98864 0.49232 0.0
C50 C 0.64458 0.07773 0.45036 0.0
C51 C 0.69445 0.15284 0.49215 0.0
C52 C 0.55942 0.11361 0.4645 0.0
C53 C 0.56737 0.14775 0.46829 0.0
C54 C 0.54688 0.15477 0.45433 0.0
C55 C 0.55304 0.18665 0.45835 0.0
C56 C 0.57969 0.21196 0.47649 0.0
C57 C 0.60075 0.20499 0.49021 0.0
C58 C 0.59471 0.1732 0.48612 0.0
C59 C 0.60211 0.08452 0.52299 0.0
O60 O 0.58693 0.01971 0.49107 0.0
O61 O 0.54846 0.03028 0.47121 0.0
O62 O 0.69141 0.05674 0.48976 0.0
O63 O 0.66571 0.05605 0.52023 0.0
O64 O 0.67905 0.08827 0.46081 0.0
O65 O 0.61521 0.06283 0.46223 0.0
O66 O 0.65797 0.14177 0.48299 0.0
O67 O 0.69917 0.13104 0.49995 0.0
O68 O 0.54609 0.09547 0.48074 0.0
O69 O 0.58814 0.11376 0.45544 0.0
O70 O 0.56781 0.07482 0.51289 0.0
O71 O 0.63071 0.09844 0.51066 0.0
H72 H 0.67642 0.01897 0.54602 0.0
H73 H 0.65932 0.96187 0.54967 0.0
H74 H 0.65069 0.93871 0.47982 0.0
H75 H 0.66785 0.99565 0.47618 0.0
H76 H 0.52567 0.1354 0.44049 0.0
H77 H 0.5361 0.19108 0.44758 0.0
H78 H 0.62192 0.22412 0.50413 0.0
H79 H 0.61102 0.1683 0.497 0.0
Ho80 Ho 0.65843 0.59231 0.83774 0.0
Ho81 Ho 0.59915 0.51397 0.84189 0.0
C82 C 0.55839 0.55276 0.84138 0.0
C83 C 0.69549 0.65372 0.82585 0.0
C84 C 0.68643 0.67818 0.82289 0.0
C85 C 0.64933 0.66668 0.81118 0.0
C86 C 0.64218 0.69076 0.80819 0.0
C87 C 0.67176 0.72662 0.81705 0.0
C88 C 0.7086 0.7379 0.82893 0.0
C89 C 0.71591 0.71392 0.83174 0.0
C90 C 0.65209 0.57679 0.87849 0.0
C91 C 0.69964 0.55385 0.83903 0.0
C92 C 0.56449 0.45278 0.85353 0.0
C93 C 0.57345 0.42772 0.85076 0.0
C94 C 0.55719 0.40155 0.86419 0.0
C95 C 0.56512 0.37728 0.86141 0.0
C96 C 0.58936 0.37873 0.84508 0.0
C97 C 0.60619 0.40554 0.83191 0.0
C98 C 0.59844 0.42988 0.83479 0.0
C99 C 0.60544 0.52904 0.80101 0.0
O100 O 0.59397 0.57914 0.83459 0.0
O101 O 0.5548 0.52612 0.84819 0.0
O102 O 0.69916 0.6493 0.84589 0.0
O103 O 0.67499 0.62424 0.81217 0.0
O104 O 0.68679 0.60252 0.87197 0.0
O105 O 0.62268 0.56214 0.8636 0.0
O106 O 0.66321 0.52659 0.84447 0.0
O107 O 0.70431 0.58145 0.83319 0.0
O108 O 0.55191 0.45728 0.83569 0.0
O109 O 0.59228 0.48256 0.86627 0.0
O110 O 0.57113 0.50287 0.8075 0.0
O111 O 0.63488 0.544 0.81595 0.0
H112 H 0.62592 0.63917 0.8043 0.0
H113 H 0.61331 0.68129 0.79917 0.0
H114 H 0.73211 0.76542 0.83576 0.0
H115 H 0.74476 0.72333 0.84076 0.0
H116 H 0.53823 0.39979 0.87676 0.0
H117 H 0.55229 0.35742 0.8721 0.0
H118 H 0.62454 0.40725 0.819 0.0
H119 H 0.61153 0.45014 0.82436 0.0
H120 H 0.60749 0.09273 0.21027 0.0
C121 C 0.58386 0.06476 0.20463 0.0
C122 C 0.57 0.04061 0.2195 0.0
C123 C 0.56667 0.053 0.18267 0.0
H124 H 0.52584 0.98588 0.22373 0.0
C125 C 0.53838 1.00448 0.21218 0.0
C126 C 0.52115 0.99205 0.1904 0.0
C127 C 0.53564 0.01641 0.17571 0.0
C128 C 0.57927 0.07879 0.1672 0.0
H129 H 0.52271 1.00671 0.15881 0.0
C130 C 0.62079 0.11024 0.16814 0.0
C131 C 0.63171 0.13472 0.15378 0.0
C132 C 0.54906 0.07232 0.15159 0.0
H133 H 0.51671 0.0491 0.1507 0.0
C134 C 0.55988 0.09603 0.13712 0.0
H135 H 0.64447 0.11584 0.1801 0.0
C136 C 0.60078 0.12691 0.13813 0.0
H137 H 0.60821 0.14467 0.12654 0.0
H138 H 0.53633 0.09056 0.12513 0.0
H139 H 0.58099 0.58049 0.56979 0.0
C140 C 0.5862 0.56246 0.56234 0.0
C141 C 0.60352 0.55153 0.57533 0.0
C142 C 0.57412 0.54915 0.54001 0.0
H143 H 0.62189 0.51859 0.57597 0.0
C144 C 0.60897 0.52728 0.56583 0.0
C145 C 0.59603 0.51279 0.54372 0.0
C146 C 0.5793 0.52438 0.53085 0.0
C147 C 0.55326 0.55902 0.52661 0.0
H148 H 0.5691 0.51332 0.51379 0.0
C149 C 0.56796 0.59427 0.52846 0.0
C150 C 0.54769 0.60322 0.51578 0.0
C151 C 0.51776 0.53282 0.51207 0.0
H152 H 0.50514 0.50542 0.51058 0.0
C153 C 0.4975 0.54147 0.49961 0.0
H154 H 0.59564 0.61477 0.53937 0.0
C155 C 0.51222 0.57631 0.50142 0.0
H156 H 0.49536 0.58207 0.49178 0.0
H157 H 0.47001 0.52101 0.4886 0.0
H158 H 0.14363 0.55093 0.88661 0.0
C159 C 0.1182 0.54976 0.87982 0.0
C160 C 0.08641 0.54154 0.89286 0.0
C161 C 0.11792 0.55739 0.85856 0.0
H162 H 1.0304 0.53598 0.89525 0.0
C163 C 1.0543 0.54171 0.88487 0.0
C164 C 1.05314 0.55039 0.86421 0.0
C165 C 0.08437 0.55703 0.85081 0.0
C166 C 0.15425 0.56842 0.84542 0.0
H167 H 0.08283 0.56271 0.83464 0.0
C168 C 0.17987 0.55796 0.84849 0.0
C169 C 0.21448 0.57 0.83628 0.0
C170 C 0.16499 0.59149 0.83016 0.0
H171 H 0.14823 0.60167 0.82773 0.0
C172 C 0.1986 0.60309 0.81813 0.0
H173 H 0.17276 0.54011 0.85993 0.0
C174 C 0.22297 0.59253 0.82109 0.0
H175 H 0.24928 0.60272 0.81168 0.0
H176 H 0.20623 0.62091 0.80656 0.0
H177 H 0.07437 0.55557 0.435 0.0
C178 C 0.10463 0.5802 0.44123 0.0
C179 C 0.13535 0.59779 0.42695 0.0
C180 C 0.11235 0.59489 0.46328 0.0
H181 H 0.197 0.64472 0.42367 0.0
C182 C 0.17403 0.63027 0.43488 0.0
C183 C 0.18245 0.6456 0.45669 0.0
C184 C 0.15157 0.62765 0.47085 0.0
C185 C 0.07858 0.57739 0.47798 0.0
H186 H 0.15814 0.63933 0.48776 0.0
C187 C 1.05055 0.54021 0.47689 0.0
C188 C 1.01751 0.5241 0.49015 0.0
C189 C 0.07324 0.59806 0.49276 0.0
H190 H 0.09347 0.62653 0.49375 0.0
C191 C 1.04104 0.58224 0.50611 0.0
H192 H 1.05409 0.52382 0.46561 0.0
C193 C 1.01332 0.54561 0.50481 0.0
H194 H 0.98864 0.53406 0.51542 0.0
H195 H 1.03731 0.59848 0.51739 0.0
H196 H 0.60407 0.02011 0.75369 0.0
C197 C 0.6096 0.04371 0.76182 0.0
C198 C 0.62365 0.07193 0.75026 0.0
C199 C 0.60127 0.04537 0.7836 0.0
H200 H 0.63825 0.12304 0.75167 0.0
C201 C 0.62954 0.10199 0.76077 0.0
C202 C 0.62125 0.10403 0.78242 0.0
C203 C 0.6077 0.07585 0.79379 0.0
C204 C 0.58371 0.01476 0.79551 0.0
H205 H 0.60182 0.0776 0.81062 0.0
C206 C 0.59903 0.99549 0.79408 0.0
C207 C 0.58312 0.96744 0.80613 0.0
C208 C 0.55149 1.00492 0.80868 0.0
H209 H 0.53835 0.01865 0.80975 0.0
C210 C 0.53551 0.977 0.82049 0.0
H211 H 0.6241 1.00292 0.78418 0.0
C212 C 0.5513 0.95847 0.81934 0.0
H213 H 0.53824 0.93675 0.82858 0.0
H214 H 0.51072 0.96968 0.83056 0.0
H215 H 0.63575 0.55096 0.10559 0.0
C216 C 0.62823 0.52761 0.11144 0.0
C217 C 0.6141 0.49763 0.09652 0.0
C218 C 0.63527 0.52858 0.13376 0.0
H219 H 0.59593 0.44502 0.0928 0.0
C220 C 0.60622 0.46808 0.10421 0.0
C221 C 0.61214 0.46841 0.12661 0.0
C222 C 0.62675 0.49881 0.14125 0.0
C223 C 0.65278 0.56119 0.1491 0.0
H224 H 0.63279 0.49975 0.15848 0.0
C225 C 0.63456 0.57786 0.14864 0.0
C226 C 0.65067 0.60896 0.16298 0.0
C227 C 0.68764 0.57588 0.16412 0.0
H228 H 0.70241 0.56357 0.16468 0.0
C229 C 0.7041 0.60695 0.1783 0.0
H230 H 0.60678 0.56573 0.13755 0.0
C231 C 0.68574 0.62344 0.17781 0.0
H232 H 0.69894 0.64743 0.18899 0.0
H233 H 0.73112 0.61824 0.18976 0.0
H234 H 0.34103 0.60929 0.17767 0.0
H235 H 0.41349 0.63308 0.18533 0.0
H236 H 0.41761 0.60712 0.1174 0.0
H237 H 0.34525 0.58389 0.10948 0.0
H238 H 0.43508 0.58865 0.17633 0.0
H239 H 0.53086 0.70691 0.135 0.0
H240 H 0.47922 0.68918 0.14206 0.0
H241 H 0.48552 0.66889 0.11834 0.0
C242 C 0.3577 0.60955 0.16424 0.0
C243 C 0.33746 0.59467 0.14295 0.0
C244 C 0.39905 0.6231 0.16868 0.0
C245 C 0.42098 0.62229 0.15189 0.0
C246 C 0.40142 0.60864 0.1305 0.0
H247 H 0.61707 0.61678 0.12802 0.0
H248 H 0.56714 0.62855 0.12845 0.0
C249 C 0.35996 0.59494 0.12605 0.0
C250 C 0.4619 0.63083 0.15713 0.0
H251 H 0.56234 0.68076 0.14445 0.0
C252 C 0.46321 0.60926 0.16977 0.0
C253 C 0.49826 0.65762 0.14841 0.0
C254 C 0.49865 0.68223 0.13535 0.0
C255 C 0.49928 0.61222 0.17284 0.0
C256 C 0.53545 0.6383 0.16352 0.0
C257 C 0.53467 0.66099 0.15168 0.0
C258 C 0.57215 0.63908 0.16357 0.0
C259 C 0.4973 0.58577 0.18476 0.0
C260 C 0.59321 0.64302 0.18314 0.0
C261 C 0.62107 0.63544 0.18297 0.0
C262 C 0.62868 0.62438 0.16318 0.0
C263 C 0.61089 0.62422 0.14355 0.0
C264 C 0.5827 0.63133 0.14376 0.0
H265 H 0.46474 0.56316 0.18693 0.0
H266 H 0.51163 0.57522 0.17587 0.0
H267 H 0.5148 0.59893 0.20115 0.0
H268 H 0.5862 0.64983 0.19859 0.0
H269 H 0.63439 0.63597 0.19837 0.0
H270 H 0.69332 0.2068 0.48518 0.0
H271 H 0.75268 0.26892 0.4856 0.0
H272 H 0.83712 0.24764 0.50213 0.0
H273 H 0.77766 0.18509 0.50186 0.0
H274 H 0.82009 0.31701 0.52275 0.0
H275 H 0.87619 0.29878 0.44558 0.0
H276 H 0.82311 0.26676 0.45158 0.0
H277 H 0.86456 0.27024 0.46545 0.0
C278 C 0.72445 0.21519 0.48896 0.0
C279 C 0.73068 0.19085 0.49345 0.0
C280 C 0.75835 0.25077 0.48919 0.0
C281 C 0.79925 0.26278 0.49367 0.0
C282 C 0.80575 0.23878 0.49842 0.0
H283 H 1.0328 0.47628 0.48938 0.0
H284 H 0.98191 0.41256 0.4907 0.0
C285 C 0.77174 0.20311 0.49838 0.0
C286 C 0.83481 0.30057 0.49352 0.0
H287 H 0.91249 0.35703 0.46342 0.0
C288 C 0.84049 0.3258 0.50987 0.0
C289 C 0.86151 0.31187 0.47678 0.0
C290 C 0.8562 0.28567 0.45872 0.0
C291 C 0.8719 0.36212 0.50982 0.0
C292 C 0.8976 0.37359 0.49258 0.0
C293 C 0.89268 0.34827 0.47655 0.0
C294 C 0.9284 0.41172 0.49052 0.0
C295 C 0.87738 0.38782 0.52836 0.0
C296 C 0.91513 0.43216 0.4892 0.0
C297 C 0.944 0.46838 0.48851 0.0
C298 C 0.98686 0.48499 0.48885 0.0
C299 C 1.0 0.46423 0.48908 0.0
C300 C 0.97099 0.42788 0.48992 0.0
H301 H 0.86511 0.3752 0.54319 0.0
H302 H 0.91072 0.4112 0.53247 0.0
H303 H 0.85972 0.39705 0.52358 0.0
H304 H 0.88234 0.42013 0.48892 0.0
H305 H 0.93279 0.4835 0.48787 0.0
H306 H 0.68298 0.77716 0.84765 0.0
H307 H 0.67125 0.81979 0.84254 0.0
H308 H 0.63346 0.77746 0.77428 0.0
H309 H 0.64439 0.73427 0.7794 0.0
H310 H 0.70733 0.8717 0.81728 0.0
H311 H 0.53698 0.77445 0.79178 0.0
H312 H 0.56628 0.76218 0.80335 0.0
H313 H 0.56805 0.76824 0.77523 0.0
C314 C 0.67217 0.77696 0.83155 0.0
C315 C 0.66435 0.75228 0.81394 0.0
C316 C 0.66545 0.80129 0.82866 0.0
C317 C 0.6509 0.80149 0.8081 0.0
C318 C 0.64368 0.77722 0.7904 0.0
H319 H 0.59397 0.93781 0.76988 0.0
H320 H 0.61448 0.8996 0.76848 0.0
C321 C 0.65 0.75262 0.79333 0.0
C322 C 0.64375 0.82741 0.80531 0.0
H323 H 0.56864 0.83451 0.79065 0.0
C324 C 0.67703 0.86355 0.8114 0.0
C325 C 0.60418 0.81675 0.79761 0.0
C326 C 0.56671 0.7783 0.7918 0.0
C327 C 0.67166 0.88924 0.81022 0.0
C328 C 0.63205 0.8785 0.8028 0.0
C329 C 0.59905 0.84255 0.79618 0.0
C330 C 0.62327 0.90386 0.80344 0.0
C331 C 0.70821 0.9277 0.81708 0.0
C332 C 0.62169 0.91888 0.82354 0.0
C333 C 0.60974 0.94033 0.82437 0.0
C334 C 0.59933 0.94727 0.8051 0.0
C335 C 0.60215 0.93307 0.78496 0.0
C336 C 0.61367 0.91121 0.78414 0.0
H337 H 0.73836 0.93223 0.81795 0.0
H338 H 0.70915 0.94414 0.8056 0.0
H339 H 0.70473 0.93668 0.83344 0.0
H340 H 0.62861 0.91319 0.8386 0.0
H341 H 0.60806 0.95114 0.8401 0.0
H342 H 0.84379 0.49152 0.16492 0.0
H343 H 0.76809 0.44878 0.16237 0.0
H344 H 0.77593 0.42287 0.22555 0.0
H345 H 0.8528 0.46614 0.22818 0.0
H346 H 0.7088 0.37024 0.16861 0.0
H347 H 0.70884 0.46381 0.22873 0.0
H348 H 0.75583 0.48086 0.21591 0.0
H349 H 0.73918 0.44942 0.2343 0.0
C350 C 0.82947 0.47665 0.17825 0.0
C351 C 0.85391 0.48257 0.19693 0.0
C352 C 0.78629 0.45189 0.17665 0.0
C353 C 0.76654 0.43262 0.19372 0.0
C354 C 0.79075 0.43741 0.21217 0.0
H355 H 0.57192 0.43435 0.16087 0.0
H356 H 0.58565 0.40098 0.18073 0.0
C357 C 0.83441 0.46214 0.21369 0.0
C358 C 0.72083 0.41173 0.1926 0.0
H359 H 0.65764 0.43439 0.19857 0.0
C360 C 0.69643 0.38299 0.17582 0.0
C361 C 0.70403 0.42735 0.20257 0.0
C362 C 0.72806 0.45697 0.22148 0.0
C363 C 0.65912 0.37395 0.16619 0.0
C364 C 0.64722 0.39503 0.17312 0.0
C365 C 0.66724 0.41881 0.19265 0.0
C366 C 0.62496 0.40129 0.15772 0.0
C367 C 0.63518 0.34427 0.14735 0.0
C368 C 0.64001 0.41048 0.1374 0.0
C369 C 0.63177 0.42909 0.12596 0.0
C370 C 0.60896 0.43944 0.13481 0.0
C371 C 0.59002 0.42695 0.15386 0.0
C372 C 0.59771 0.40777 0.16516 0.0
H373 H 0.63244 0.32117 0.15121 0.0
H374 H 0.60343 0.33597 0.14339 0.0
H375 H 0.65257 0.35276 0.13282 0.0
H376 H 0.66203 0.40691 0.13142 0.0
H377 H 0.647 0.43861 0.11141 0.0
H378 H 0.47267 0.97599 0.46114 0.0
H379 H 0.41105 0.91431 0.45979 0.0
H380 H 0.48425 0.8936 0.49448 0.0
H381 H 0.54599 0.95535 0.4962 0.0
H382 H 0.39765 0.85387 0.44126 0.0
H383 H 0.38499 0.85411 0.53001 0.0
H384 H 0.41766 0.89425 0.51818 0.0
H385 H 0.43504 0.86892 0.52242 0.0
C386 C 0.47576 0.95838 0.46851 0.0
C387 C 0.51435 0.97076 0.47885 0.0
C388 C 0.44043 0.9231 0.46775 0.0
C389 C 0.44282 0.89945 0.47737 0.0
C390 C 0.4814 0.91153 0.4874 0.0
H391 H 0.26101 0.6707 0.44811 0.0
H392 H 0.32485 0.73207 0.45455 0.0
C393 C 0.51678 0.94684 0.4882 0.0
C394 C 0.40515 0.86193 0.47628 0.0
H395 H 0.34046 0.79824 0.50746 0.0
C396 C 0.38514 0.84174 0.45574 0.0
C397 C 0.3885 0.84622 0.49519 0.0
C398 C 0.40736 0.86703 0.51771 0.0
C399 C 0.34934 0.80621 0.45356 0.0
C400 C 0.33345 0.79017 0.47244 0.0
C401 C 0.353 0.81046 0.49301 0.0
C402 C 0.2961 0.7525 0.47098 0.0
C403 C 0.32838 0.78632 0.43103 0.0
C404 C 0.25925 0.74333 0.47908 0.0
C405 C 0.22269 0.70818 0.47553 0.0
C406 C 0.22243 0.68161 0.46381 0.0
C407 C 0.26007 0.69065 0.45689 0.0
C408 C 0.29653 0.72571 0.4605 0.0
H409 H 0.33804 0.8045 0.41883 0.0
H410 H 0.3372 0.76927 0.42604 0.0
H411 H 0.29389 0.76913 0.43073 0.0
H412 H 0.25831 0.76359 0.48733 0.0
H413 H 0.19417 0.70212 0.48094 0.0
H414 H 0.66021 0.38823 0.83428 0.0
H415 H 0.66865 0.34282 0.82528 0.0
H416 H 0.54268 0.26311 0.83922 0.0
H417 H 0.53318 0.30787 0.84715 0.0
H418 H 0.66268 0.29535 0.84892 0.0
H419 H 0.54204 0.22474 0.77794 0.0
H420 H 0.56228 0.26806 0.79119 0.0
H421 H 0.5227 0.22933 0.80263 0.0
C422 C 0.63413 0.36099 0.83523 0.0
C423 C 0.59584 0.35171 0.84122 0.0
C424 C 0.63916 0.33512 0.83026 0.0
C425 C 0.60603 0.29952 0.83116 0.0
C426 C 0.56836 0.29034 0.83794 0.0
H427 H 0.56389 0.10145 0.80584 0.0
H428 H 0.56337 0.15032 0.81929 0.0
C429 C 0.56319 0.31609 0.84277 0.0
C430 C 0.61054 0.27184 0.8247 0.0
H431 H 0.56761 0.19563 0.78974 0.0
C432 C 0.64208 0.27365 0.83591 0.0
C433 C 0.58381 0.2437 0.80758 0.0
C434 C 0.55109 0.24145 0.79399 0.0
C435 C 0.64682 0.24749 0.83081 0.0
C436 C 0.61944 0.21901 0.81407 0.0
C437 C 0.58828 0.21741 0.80272 0.0
C438 C 0.62236 0.1904 0.80794 0.0
C439 C 0.68044 0.24999 0.8436 0.0
C440 C 0.65592 0.19691 0.79728 0.0
C441 C 0.65632 0.16902 0.78955 0.0
C442 C 0.62317 0.1342 0.79243 0.0
C443 C 0.59018 0.12801 0.80366 0.0
C444 C 0.5897 0.15584 0.81124 0.0
H445 H 0.69426 0.27018 0.8584 0.0
H446 H 0.66774 0.22404 0.84852 0.0
H447 H 0.70568 0.25729 0.8332 0.0
H448 H 0.68116 0.22338 0.79435 0.0
H449 H 0.68221 0.17458 0.78103 0.0
H450 H 0.60097 0.89758 0.54129 0.0
H451 H 0.58564 0.84092 0.54454 0.0
H452 H 0.66968 0.85942 0.49672 0.0
H453 H 0.6857 0.91627 0.49365 0.0
H454 H 0.55201 0.7833 0.5109 0.0
H455 H 0.70732 0.83311 0.54747 0.0
H456 H 0.69182 0.86078 0.54735 0.0
H457 H 0.70868 0.85092 0.52331 0.0
C458 C 0.61656 0.88977 0.53166 0.0
C459 C 0.6446 0.91147 0.51722 0.0
C460 C 0.60764 0.85734 0.53347 0.0
C461 C 0.62696 0.84618 0.5211 0.0
C462 C 0.65495 0.86777 0.5067 0.0
H463 H 0.55305 0.63827 0.48268 0.0
H464 H 0.57223 0.69718 0.48542 0.0
C465 C 0.66371 0.90008 0.50478 0.0
C466 C 0.61649 0.81128 0.52248 0.0
H467 H 0.65903 0.77146 0.53397 0.0
C468 C 0.57532 0.78071 0.5161 0.0
C469 C 0.64685 0.80796 0.52951 0.0
C470 C 0.69108 0.83991 0.5375 0.0
C471 C 0.56401 0.74689 0.51587 0.0
C472 C 0.59477 0.74356 0.52199 0.0
C473 C 0.63562 0.7741 0.52909 0.0
C474 C 0.58515 0.70852 0.52048 0.0
C475 C 0.5192 0.71495 0.50904 0.0
C476 C 0.58736 0.69578 0.53924 0.0
C477 C 0.57619 0.66191 0.53776 0.0
C478 C 0.56282 0.64029 0.51744 0.0
C479 C 0.56224 0.65383 0.49863 0.0
C480 C 0.57327 0.68754 0.50014 0.0
H481 H 0.4978 0.72175 0.51014 0.0
H482 H 0.5162 0.70393 0.49189 0.0
H483 H 0.50909 0.69408 0.51927 0.0
H484 H 0.5967 0.71168 0.55508 0.0
H485 H 0.57679 0.65227 0.55257 0.0
H486 H 0.70792 0.50832 0.85663 0.0
H487 H 0.76827 0.50896 0.8582 0.0
H488 H 0.83362 0.59719 0.82245 0.0
H489 H 0.7742 0.59763 0.82168 0.0
H490 H 0.80816 0.4991 0.83038 0.0
H491 H 0.92174 0.63726 0.87084 0.0
H492 H 0.86656 0.61513 0.86736 0.0
H493 H 0.89796 0.63443 0.84536 0.0
C494 C 0.73521 0.52804 0.84918 0.0
C495 C 0.73604 0.55323 0.83928 0.0
C496 C 0.7699 0.52833 0.85004 0.0
C497 C 0.80656 0.55369 0.84094 0.0
C498 C 0.80676 0.57806 0.83036 0.0
H499 H 1.00408 0.52785 0.82465 0.0
H500 H 0.94589 0.52922 0.81689 0.0
C501 C 0.77235 0.5781 0.82976 0.0
C502 C 0.8442 0.55454 0.8425 0.0
H503 H 0.94973 0.60897 0.85761 0.0
C504 C 0.83908 0.5232 0.83638 0.0
C505 C 0.88492 0.58569 0.85057 0.0
C506 C 0.89313 0.61992 0.85912 0.0
C507 C 0.87285 0.52211 0.83811 0.0
C508 C 0.91376 0.5535 0.84561 0.0
C509 C 0.91884 0.58483 0.8516 0.0
C510 C 0.95101 0.55416 0.84922 0.0
C511 C 0.86382 0.48687 0.83268 0.0
C512 C 0.97541 0.56942 0.86948 0.0
C513 C 1.00921 0.56944 0.87371 0.0
C514 C 1.01998 0.55385 0.85795 0.0
C515 C 0.99682 0.5399 0.83728 0.0
C516 C 0.96291 0.54016 0.83295 0.0
H517 H 0.83024 0.46452 0.83301 0.0
H518 H 0.87204 0.48455 0.81603 0.0
H519 H 0.88242 0.48425 0.84424 0.0
H520 H 0.9678 0.58083 0.88237 0.0
H521 H 1.0267 0.58138 0.88966 0.0
H522 H 0.1716 0.68109 0.17996 0.0
H523 H 0.23182 0.74347 0.18209 0.0
H524 H 0.30244 0.71427 0.15179 0.0
H525 H 0.2423 0.65183 0.1493 0.0
H526 H 0.31031 0.7794 0.20341 0.0
H527 H 0.31928 0.7861 0.11495 0.0
H528 H 0.27415 0.74959 0.12568 0.0
H529 H 0.31962 0.75208 0.12341 0.0
C530 C 0.19986 0.68786 0.17367 0.0
C531 C 0.20194 0.66134 0.16436 0.0
C532 C 0.23427 0.72357 0.17489 0.0
C533 C 0.27141 0.73358 0.16676 0.0
C534 C 0.2738 0.70722 0.1577 0.0
H535 H 0.51608 0.93636 0.20078 0.0
H536 H 0.45568 0.87365 0.1939 0.0
C537 C 0.23941 0.67148 0.15645 0.0
C538 C 0.30808 0.77156 0.16851 0.0
H539 H 0.37643 0.83616 0.13875 0.0
C540 C 0.32466 0.79182 0.18927 0.0
C541 C 0.32649 0.78787 0.15001 0.0
C542 C 0.3088 0.76793 0.12723 0.0
C543 C 0.35959 0.82772 0.19208 0.0
C544 C 0.37892 0.84372 0.17367 0.0
C545 C 0.36186 0.82372 0.15285 0.0
C546 C 0.41678 0.88126 0.17586 0.0
C547 C 0.3752 0.84836 0.21476 0.0
C548 C 0.4156 0.90617 0.16714 0.0
C549 C 0.45019 0.94211 0.17101 0.0
C550 C 0.48655 0.95368 0.18363 0.0
C551 C 0.48827 0.92835 0.19133 0.0
C552 C 0.45379 0.89253 0.18744 0.0
H553 H 0.35115 0.83489 0.22622 0.0
H554 H 0.4028 0.85106 0.22093 0.0
H555 H 0.3848 0.87529 0.21477 0.0
H556 H 0.38738 0.89797 0.15805 0.0
H557 H 0.44779 0.96096 0.16495 0.0
H558 H 0.5802 0.24273 0.51607 0.0
H559 H 0.58644 0.29618 0.52431 0.0
H560 H 0.59665 0.30965 0.45664 0.0
H561 H 0.58997 0.25586 0.44823 0.0
H562 H 0.64921 0.36412 0.51916 0.0
H563 H 0.50411 0.31534 0.46942 0.0
H564 H 0.51557 0.28642 0.47545 0.0
H565 H 0.54028 0.31376 0.45456 0.0
C566 C 0.58402 0.25716 0.50294 0.0
C567 C 0.58447 0.24498 0.48147 0.0
C568 C 0.58742 0.28766 0.50767 0.0
C569 C 0.59136 0.30667 0.49105 0.0
C570 C 0.59259 0.29496 0.46965 0.0
H571 H 0.6163 0.50149 0.50338 0.0
H572 H 0.61745 0.45305 0.48897 0.0
C573 C 0.58889 0.26427 0.46487 0.0
C574 C 0.59463 0.33889 0.49638 0.0
H575 H 0.54613 0.37453 0.48691 0.0
C576 C 0.62675 0.36642 0.51202 0.0
C577 C 0.56536 0.34195 0.48703 0.0
C578 C 0.52915 0.31271 0.47082 0.0
C579 C 0.63003 0.3966 0.51879 0.0
C580 C 0.60033 0.39929 0.50977 0.0
C581 C 0.56894 0.37237 0.49369 0.0
C582 C 0.5995 0.42853 0.51815 0.0
C583 C 0.66498 0.42531 0.53573 0.0
C584 C 0.58835 0.43034 0.53913 0.0
C585 C 0.58713 0.45754 0.54728 0.0
C586 C 0.59735 0.48382 0.53468 0.0
C587 C 0.60809 0.48168 0.5135 0.0
C588 C 0.60897 0.45415 0.50527 0.0
H589 H 0.69034 0.42312 0.53744 0.0
H590 H 0.67834 0.45182 0.53157 0.0
H591 H 0.65252 0.42319 0.5517 0.0
H592 H 0.5802 0.41043 0.54916 0.0
H593 H 0.57755 0.45764 0.5634 0.0
H594 H 0.55143 0.60146 0.82763 0.0
H595 H 0.49195 0.60196 0.82848 0.0
H596 H 0.42322 0.50658 0.85759 0.0
H597 H 0.48215 0.50551 0.85637 0.0
H598 H 0.3732 0.50163 0.82703 0.0
H599 H 0.45395 0.63153 0.87834 0.0
H600 H 0.47875 0.63437 0.85425 0.0
H601 H 0.47723 0.60992 0.87457 0.0
C602 C 0.52377 0.58061 0.83432 0.0
C603 C 0.52209 0.55352 0.84201 0.0
C604 C 0.48965 0.58108 0.83496 0.0
C605 C 0.45281 0.55469 0.84351 0.0
C606 C 0.45101 0.52746 0.851 0.0
H607 H 0.25481 0.57324 0.874 0.0
H608 H 0.31026 0.56723 0.87692 0.0
C609 C 0.48501 0.52691 0.85031 0.0
C610 C 0.41583 0.55472 0.84412 0.0
H611 H 0.38642 0.60553 0.86104 0.0
C612 C 0.37626 0.52439 0.83458 0.0
C613 C 0.41891 0.58398 0.85428 0.0
C614 C 0.45938 0.61665 0.86614 0.0
C615 C 0.34055 0.52284 0.83437 0.0
C616 C 0.34403 0.55266 0.84364 0.0
C617 C 0.38332 0.58265 0.85373 0.0
C618 C 0.30786 0.55376 0.84227 0.0
C619 C 0.29919 0.48885 0.82444 0.0
C620 C 0.28721 0.54786 0.82194 0.0
C621 C 0.25541 0.55105 0.8203 0.0
C622 C 0.24309 0.56049 0.83889 0.0
C623 C 0.26284 0.56542 0.85934 0.0
C624 C 0.29499 0.56235 0.86099 0.0
H625 H 0.29876 0.46581 0.82475 0.0
H626 H 0.27305 0.48422 0.83308 0.0
H627 H 0.29384 0.4903 0.80717 0.0
H628 H 0.29663 0.5419 0.80714 0.0
H629 H 0.24117 0.54712 0.80424 0.0
H630 H 1.00586 0.42092 0.13104 0.0
H631 H 0.94379 0.35902 0.13009 0.0
H632 H 0.89121 0.3922 0.1751 0.0
H633 H 0.95247 0.45354 0.17623 0.0
H634 H 0.88801 0.33424 0.18572 0.0
H635 H 0.82497 0.31346 0.10031 0.0
H636 H 0.87848 0.3308 0.10491 0.0
H637 H 0.86355 0.35701 0.11542 0.0
C638 C 0.98103 0.41501 0.14069 0.0
C639 C 0.98422 0.4423 0.15365 0.0
C640 C 0.94557 0.37965 0.14009 0.0
C641 C 0.91283 0.37106 0.15246 0.0
C642 C 0.91612 0.39822 0.16546 0.0
H643 H 0.65477 0.19995 0.15013 0.0
H644 H 0.72487 0.25498 0.14962 0.0
C645 C 0.95125 0.43338 0.166 0.0
C646 C 0.87474 0.33396 0.152 0.0
H647 H 0.78501 0.2663 0.12028 0.0
C648 C 0.8657 0.31912 0.17135 0.0
C649 C 0.84557 0.31453 0.13328 0.0
C650 C 0.85323 0.32965 0.11228 0.0
C651 C 0.82783 0.28566 0.17259 0.0
C652 C 0.79837 0.2665 0.15397 0.0
C653 C 0.80781 0.281 0.13449 0.0
C654 C 0.75616 0.23276 0.1548 0.0
C655 C 0.81877 0.27168 0.19404 0.0
C656 C 0.75043 0.20192 0.15803 0.0
C657 C 0.71014 0.17014 0.15818 0.0
C658 C 0.67491 0.16867 0.15502 0.0
C659 C 0.68105 0.19988 0.1522 0.0
C660 C 0.72115 0.23145 0.15198 0.0
H661 H 0.84204 0.29202 0.20766 0.0
H662 H 0.78721 0.26203 0.19789 0.0
H663 H 0.8193 0.24902 0.1929 0.0
H664 H 0.77705 0.20229 0.16003 0.0
H665 H 0.70655 0.14657 0.16017 0.0
H666 H 1.00188 0.50964 0.08976 0.0
H667 H 1.00645 0.50293 0.05049 0.0
H668 H 0.14073 0.57108 0.06225 0.0
H669 H 0.13625 0.57727 0.10141 0.0
H670 H 1.04327 0.5539 0.02483 0.0
H671 H 0.11819 0.48998 0.02087 0.0
H672 H 0.09566 0.49337 0.04473 0.0
H673 H 0.1469 0.53047 0.03956 0.0
C674 C 1.0323 0.52287 0.08393 0.0
C675 C 0.06868 0.54376 0.09858 0.0
C676 C 1.0349 0.51901 0.06153 0.0
C677 C 0.07391 0.53596 0.05342 0.0
C678 C 0.11026 0.55692 0.06811 0.0
H679 H 0.1528 0.5805 0.9245 0.0
H680 H 0.15085 0.57661 0.96358 0.0
C681 C 0.10766 0.56062 0.09049 0.0
C682 C 0.07668 0.53361 0.02958 0.0
H683 H 0.11609 0.51238 0.98886 0.0
C684 C 1.05888 0.54452 0.01697 0.0
C685 C 0.09723 0.5215 0.01932 0.0
C686 C 0.11524 0.50784 0.03178 0.0
C687 C 1.06161 0.5442 0.9945 0.0
C688 C 0.08246 0.53244 0.98431 0.0
C689 C 0.10026 0.52147 -0.00319 0.0
C690 C 0.08549 0.53128 0.96059 0.0
C691 C 1.04271 0.55692 0.98177 0.0
C692 C 1.0498 0.50623 0.94602 0.0
C693 C 1.05088 0.50822 0.92377 0.0
C694 C 0.08766 0.53541 0.91569 0.0
C695 C 0.12411 0.55912 0.9302 0.0
C696 C 0.123 0.55705 0.95252 0.0
H697 H 1.03372 0.5705 0.99256 0.0
H698 H 1.06497 0.57532 0.97089 0.0
H699 H 1.01434 0.53397 0.9714 0.0
H700 H 1.02066 0.48598 0.95197 0.0
H701 H 1.02245 0.48931 0.91294 0.0
H702 H 0.57323 0.03801 0.42242 0.0
H703 H 0.5669 0.03922 0.38332 0.0
H704 H 0.69873 0.12608 0.38765 0.0
H705 H 0.70548 0.12339 0.42643 0.0
H706 H 0.57884 0.08476 0.35947 0.0
H707 H 0.6919 0.06078 0.34047 0.0
H708 H 0.67392 0.05811 0.36697 0.0
H709 H 0.71482 0.10038 0.3593 0.0
C710 C 0.60081 0.05726 0.41495 0.0
C711 C 0.63996 0.08018 0.42725 0.0
C712 C 0.59719 0.05804 0.39264 0.0
C713 C 0.63256 0.08213 0.38235 0.0
C714 C 0.67128 0.10637 0.39498 0.0
H715 H 0.59156 0.09987 0.24616 0.0
H716 H 0.61223 0.11534 0.28543 0.0
C717 C 0.67507 0.105 0.41716 0.0
C718 C 0.6288 0.08133 0.35839 0.0
H719 H 0.66683 0.07339 0.31167 0.0
C720 C 0.59806 0.08225 0.34901 0.0
C721 C 0.65362 0.07771 0.34467 0.0
C722 C 0.68509 0.07382 0.35333 0.0
C723 C 0.5908 0.07887 0.32635 0.0
C724 C 0.61621 0.07598 0.31268 0.0
C725 C 0.64763 0.07597 0.32212 0.0
C726 C 0.60821 0.06938 0.28852 0.0
C727 C 0.55465 0.0767 0.31734 0.0
C728 C 0.60184 0.03977 0.27692 0.0
C729 C 0.59157 0.03161 0.25443 0.0
C730 C 0.58665 0.05248 0.24295 0.0
C731 C 0.59501 0.08314 0.25443 0.0
C732 C 0.60611 0.09169 0.27698 0.0
H733 H 0.532 0.06993 0.32945 0.0
H734 H 0.56658 0.10274 0.31295 0.0
H735 H 0.53778 0.05661 0.30253 0.0
H736 H 0.60374 0.02232 0.28534 0.0
H737 H 0.58658 0.00837 0.2461 0.0
H738 H 0.67743 0.5748 0.78295 0.0
H739 H 0.68409 0.58833 0.74554 0.0
H740 H 0.55014 0.51791 0.73191 0.0
H741 H 0.54319 0.50407 0.76916 0.0
H742 H 0.62969 0.5211 0.70464 0.0
H743 H 0.61187 0.62641 0.71285 0.0
H744 H 0.63597 0.621 0.73492 0.0
H745 H 0.58075 0.58954 0.72765 0.0
C746 C 0.64944 0.56245 0.77201 0.0
C747 C 0.60978 0.53834 0.77886 0.0
C748 C 0.65331 0.57023 0.75072 0.0
C749 C 0.61758 0.55427 0.73615 0.0
C750 C 0.57799 0.53063 0.74305 0.0
H751 H 0.55108 0.54811 0.60337 0.0
H752 H 0.55922 0.55382 0.64311 0.0
C753 C 0.5741 0.52266 0.76425 0.0
C754 C 0.62137 0.56028 0.71324 0.0
H755 H 0.61447 0.60539 0.67733 0.0
C756 C 0.62686 0.53977 0.69862 0.0
C757 C 0.61716 0.58438 0.70562 0.0
C758 C 0.61121 0.60681 0.72098 0.0
C759 C 0.62716 0.54204 0.67631 0.0
C760 C 0.62298 0.56623 0.66855 0.0
C761 C 0.61804 0.58711 0.68332 0.0
C762 C 0.6211 0.56844 0.64499 0.0
C763 C 0.6301 0.51735 0.66116 0.0
C764 C 0.65394 0.57639 0.63297 0.0
C765 C 0.64921 0.57287 0.61028 0.0
C766 C 0.61184 0.56199 0.59928 0.0
C767 C 0.5803 0.55676 0.61145 0.0
C768 C 0.58487 0.55989 0.63414 0.0
H769 H 0.62261 0.49477 0.66893 0.0
H770 H 0.6086 0.50672 0.64603 0.0
H771 H 0.66242 0.53201 0.65662 0.0
H772 H 0.6826 0.58393 0.64106 0.0
H773 H 0.67415 0.57741 0.60126 0.0
H774 H 0.67385 0.1094 0.54746 0.0
H775 H 0.6814 0.10365 0.58564 0.0
H776 H 0.54921 0.04631 0.58812 0.0
H777 H 0.54142 0.05173 0.55 0.0
H778 H 0.60226 0.105 0.62206 0.0
H779 H 0.64174 0.01368 0.61282 0.0
H780 H 0.67139 0.05141 0.59873 0.0
H781 H 0.61658 0.01791 0.59068 0.0
C782 C 0.64638 0.09522 0.55611 0.0
C783 C 0.60702 0.08087 0.54581 0.0
C784 C 0.65071 0.09185 0.57785 0.0
C785 C 0.61576 0.07417 0.58957 0.0
C786 C 0.57648 0.05984 0.57928 0.0
H787 H 0.57154 0.01529 0.71837 0.0
H788 H 0.57327 0.01472 0.67895 0.0
C789 C 0.57211 0.06304 0.55756 0.0
C790 C 0.62032 0.07246 0.61296 0.0
H791 H 0.64454 0.03737 0.64886 0.0
C792 C 0.61154 0.09025 0.62793 0.0
C793 C 0.63221 0.05301 0.62047 0.0
C794 C 0.64077 0.03264 0.60489 0.0
C795 C 0.61457 0.08932 0.65029 0.0
C796 C 0.62692 0.07025 0.65786 0.0
C797 C 0.63542 0.05218 0.64292 0.0
C798 C 0.63009 0.06848 0.68132 0.0
C799 C 0.60409 0.1084 0.66572 0.0
C800 C 0.66233 0.09848 0.69556 0.0
C801 C 0.6616 0.09885 0.71804 0.0
C802 C 0.62849 0.06923 0.72665 0.0
C803 C 0.59765 0.03842 0.71228 0.0
C804 C 0.59848 0.03807 0.68976 0.0
H805 H 0.58905 0.1174 0.657 0.0
H806 H 0.58291 0.09099 0.67731 0.0
H807 H 0.63314 0.1319 0.67534 0.0
H808 H 0.6871 0.12212 0.68928 0.0
H809 H 0.68613 0.12279 0.7287 0.0
H810 H 0.57962 0.52836 0.89489 0.0
H811 H 0.57085 0.51191 0.93142 0.0
H812 H 0.70435 0.58468 0.94775 0.0
H813 H 0.71325 0.60176 0.91129 0.0
H814 H 0.59982 0.48306 0.95288 0.0
H815 H 0.66282 0.61504 -0.00354 0.0
H816 H 0.64951 0.60337 0.96736 0.0
H817 H 0.69802 0.61571 0.97926 0.0
C818 C 0.60709 0.54089 0.90629 0.0
C819 C 0.64711 0.56654 0.90039 0.0
C820 C 0.60203 0.53141 0.92712 0.0
C821 C 0.63688 0.54746 0.9424 0.0
C822 C 0.67698 0.57254 0.93636 0.0
H823 H 0.64474 0.47882 0.0646 0.0
H824 H 0.64732 0.48801 0.02651 0.0
C825 C 0.68205 0.58217 0.91553 0.0
C826 C 0.63108 0.53798 0.96466 0.0
H827 H 0.6494 0.57255 0.01823 0.0
C828 C 0.61055 0.50257 0.96719 0.0
C829 C 0.64452 0.5634 0.98325 0.0
C830 C 0.66458 0.60144 0.98151 0.0
C831 C 0.60358 0.49197 0.98788 0.0
C832 C 0.61825 0.51762 0.00651 0.0
C833 C 0.63836 0.55294 0.00393 0.0
C834 C 0.61319 0.50869 0.02891 0.0
C835 C 0.5799 0.45335 0.98955 0.0
C836 C 0.59327 0.51733 0.04294 0.0
C837 C 0.59208 0.5124 0.06472 0.0
C838 C 0.61078 0.49868 0.07288 0.0
C839 C 0.6295 0.48891 0.05866 0.0
C840 C 0.63095 0.49411 0.03689 0.0
H841 H 0.5607 0.43626 0.97404 0.0
H842 H 0.60243 0.44849 0.99325 0.0
H843 H 0.55915 0.44538 0.00277 0.0
H844 H 0.57938 0.52863 0.03713 0.0
H845 H 0.57727 0.51997 0.07531 0.0
H846 H 0.18509 0.58461 0.2268 0.0
H847 H 0.18149 0.58714 0.26618 0.0
H848 H 1.0493 0.53356 0.25597 0.0
H849 H 1.05257 0.53003 0.21656 0.0
H850 H 0.15741 0.61855 0.29307 0.0
H851 H 1.05351 0.474 0.2953 0.0
H852 H 0.07868 0.49282 0.27154 0.0
H853 H 1.03277 0.48801 0.27767 0.0
C854 C 0.15528 0.57331 0.23298 0.0
C855 C 0.11909 0.55707 0.21868 0.0
C856 C 0.15324 0.57478 0.25545 0.0
C857 C 0.115 0.55999 0.26399 0.0
C858 C 0.07895 0.5444 0.24973 0.0
H859 H 1.06568 0.57149 0.39965 0.0
H860 H 1.05714 0.55892 0.35975 0.0
C861 C 0.08093 0.54275 0.22724 0.0
C862 C 0.11331 0.56171 0.28787 0.0
H863 H 0.07041 0.5111 0.3286 0.0
C864 C 0.13838 0.59505 0.30081 0.0
C865 C 0.08837 0.53098 0.29795 0.0
C866 C 1.06206 0.49439 0.28495 0.0
C867 C 0.13931 0.5985 0.32354 0.0
C868 C 0.11475 0.56783 0.33358 0.0
C869 C 0.0891 0.5345 0.32074 0.0
C870 C 0.11693 0.57028 0.35753 0.0
C871 C 0.16666 0.63493 0.33675 0.0
C872 C 0.15266 0.5795 0.36934 0.0
C873 C 0.15749 0.58639 0.39202 0.0
C874 C 0.12669 0.58431 0.4033 0.0
C875 C 0.08978 0.57304 0.39144 0.0
C876 C 0.08494 0.56604 0.36868 0.0
H877 H 0.17814 0.65598 0.32646 0.0
H878 H 0.14937 0.63729 0.34942 0.0
H879 H 0.19408 0.63943 0.34515 0.0
H880 H 0.17748 0.58258 0.36095 0.0
H881 H 0.186 0.59455 0.40073 0.0
loop_
_geom_bond_atom_site_label_1
_geom_bond_atom_site_label_2
_geom_bond_distance
_geom_bond_site_symmetry_2
_ccdc_geom_bond_type
Ho0 C3 2.811 . S
Ho0 O20 2.322 . S
Ho0 O22 2.378 . S
Ho0 O23 2.524 . S
Ho0 O24 2.381 . S
Ho0 O25 2.669 . S
Ho0 O27 2.319 1_455 S
Ho0 O31 2.305 . S
Ho1 C12 2.811 1_455 S
Ho1 O21 2.346 . S
Ho1 O25 2.305 . S
Ho1 O26 2.322 1_455 S
Ho1 O28 2.378 1_455 S
Ho1 O29 2.524 1_455 S
Ho1 O30 2.381 . S
Ho1 O31 2.669 . S
C2 O20 1.259 . S
C2 O21 1.268 . S
C3 Ho0 2.811 . S
C3 C4 1.488 . S
C3 O22 1.215 . S
C3 O23 1.289 . S
C4 C3 1.488 . S
C4 C5 1.348 . S
C4 C9 1.413 . S
C5 C4 1.348 . S
C5 C6 1.442 . S
C5 H32 0.930 . S
C6 C5 1.442 . S
C6 C7 1.381 . S
C6 H33 0.931 . S
C7 C6 1.381 . S
C7 C8 1.321 . S
C8 C7 1.321 . S
C8 C9 1.403 . S
C8 H34 0.934 . S
C9 C4 1.413 . S
C9 C8 1.403 . S
C9 H35 0.930 . S
C10 O24 1.275 . S
C10 O25 1.256 . S
C11 O26 1.259 . S
C11 O27 1.303 . S
C12 Ho1 2.811 1_655 S
C12 C13 1.488 . S
C12 O28 1.215 . S
C12 O29 1.289 . S
C13 C12 1.488 . S
C13 C14 1.348 . S
C13 C18 1.413 . S
C14 C13 1.348 . S
C14 C15 1.442 . S
C14 H36 0.930 . S
C15 C14 1.442 . S
C15 C16 1.381 . S
C15 H37 0.931 . S
C16 C15 1.381 . S
C16 C17 1.321 . S
C17 C16 1.321 . S
C17 C18 1.403 . S
C17 H38 0.934 . S
C18 C13 1.413 . S
C18 C17 1.403 . S
C18 H39 0.930 . S
C19 O30 1.275 . S
C19 O31 1.256 . S
O20 Ho0 2.322 . S
O20 C2 1.259 . S
O21 Ho1 2.346 . S
O21 C2 1.268 . S
O22 Ho0 2.378 . S
O22 C3 1.215 . S
O23 Ho0 2.524 . S
O23 C3 1.289 . S
O24 Ho0 2.381 . S
O24 C10 1.275 . S
O25 Ho0 2.669 . S
O25 Ho1 2.305 . S
O25 C10 1.256 . S
O26 Ho1 2.322 1_655 S
O26 C11 1.259 . S
O27 Ho0 2.319 1_655 S
O27 C11 1.303 . S
O28 Ho1 2.378 1_655 S
O28 C12 1.215 . S
O29 Ho1 2.524 1_655 S
O29 C12 1.289 . S
O30 Ho1 2.381 . S
O30 C19 1.275 . S
O31 Ho0 2.305 . S
O31 Ho1 2.669 . S
O31 C19 1.256 . S
H32 C5 0.930 . S
H33 C6 0.931 . S
H34 C8 0.934 . S
H35 C9 0.930 . S
H36 C14 0.930 . S
H37 C15 0.931 . S
H38 C17 0.934 . S
H39 C18 0.930 . S
Ho40 C43 2.811 1_545 S
Ho40 O60 2.322 1_545 S
Ho40 O62 2.378 1_545 S
Ho40 O63 2.524 1_545 S
Ho40 O64 2.381 . S
Ho40 O65 2.669 . S
Ho40 O67 2.346 . S
Ho40 O71 2.305 . S
Ho41 C52 2.811 . S
Ho41 O61 2.346 . S
Ho41 O65 2.305 . S
Ho41 O66 2.322 . S
Ho41 O68 2.378 . S
Ho41 O69 2.524 . S
Ho41 O70 2.381 . S
Ho41 O71 2.669 . S
C42 O60 1.259 . S
C42 O61 1.268 1_565 S
C43 Ho40 2.811 1_565 S
C43 C44 1.488 . S
C43 O62 1.215 . S
C43 O63 1.289 . S
C44 C43 1.488 . S
C44 C45 1.348 . S
C44 C49 1.413 . S
C45 C44 1.348 . S
C45 C46 1.442 . S
C45 H72 0.930 . S
C46 C45 1.442 . S
C46 C47 1.381 . S
C46 H73 0.931 . S
C47 C46 1.381 . S
C47 C48 1.321 . S
C48 C47 1.321 . S
C48 C49 1.403 . S
C48 H74 0.934 . S
C49 C44 1.413 . S
C49 C48 1.403 . S
C49 H75 0.930 . S
C50 O64 1.275 . S
C50 O65 1.256 . S
C51 O66 1.259 . S
C51 O67 1.268 . S
C52 Ho41 2.811 . S
C52 C53 1.488 . S
C52 O68 1.215 . S
C52 O69 1.289 . S
C53 C52 1.488 . S
C53 C54 1.348 . S
C53 C58 1.413 . S
C54 C53 1.348 . S
C54 C55 1.442 . S
C54 H76 0.930 . S
C55 C54 1.442 . S
C55 C56 1.381 . S
C55 H77 0.931 . S
C56 C55 1.381 . S
C56 C57 1.321 . S
C57 C56 1.321 . S
C57 C58 1.403 . S
C57 H78 0.934 . S
C58 C53 1.413 . S
C58 C57 1.403 . S
C58 H79 0.930 . S
C59 O70 1.275 . S
C59 O71 1.256 . S
O60 Ho40 2.322 1_565 S
O60 C42 1.259 . S
O61 Ho41 2.346 . S
O61 C42 1.268 1_545 S
O62 Ho40 2.378 1_565 S
O62 C43 1.215 . S
O63 Ho40 2.524 1_565 S
O63 C43 1.289 . S
O64 Ho40 2.381 . S
O64 C50 1.275 . S
O65 Ho40 2.669 . S
O65 Ho41 2.305 . S
O65 C50 1.256 . S
O66 Ho41 2.322 . S
O66 C51 1.259 . S
O67 Ho40 2.346 . S
O67 C51 1.268 . S
O68 Ho41 2.378 . S
O68 C52 1.215 . S
O69 Ho41 2.524 . S
O69 C52 1.289 . S
O70 Ho41 2.381 . S
O70 C59 1.275 . S
O71 Ho40 2.305 . S
O71 Ho41 2.669 . S
O71 C59 1.256 . S
H72 C45 0.930 . S
H73 C46 0.931 . S
H74 C48 0.934 . S
H75 C49 0.930 . S
H76 C54 0.930 . S
H77 C55 0.931 . S
H78 C57 0.934 . S
H79 C58 0.930 . S
Ho80 C83 2.811 . S
Ho80 O100 2.322 . S
Ho80 O102 2.378 . S
Ho80 O103 2.524 . S
Ho80 O104 2.381 . S
Ho80 O105 2.669 . S
Ho80 O107 2.346 . S
Ho80 O111 2.305 . S
Ho81 C92 2.811 . S
Ho81 O101 2.346 . S
Ho81 O105 2.305 . S
Ho81 O106 2.322 . S
Ho81 O108 2.378 . S
Ho81 O109 2.524 . S
Ho81 O110 2.381 . S
Ho81 O111 2.669 . S
C82 O100 1.259 . S
C82 O101 1.268 . S
C83 Ho80 2.811 . S
C83 C84 1.488 . S
C83 O102 1.215 . S
C83 O103 1.289 . S
C84 C83 1.488 . S
C84 C85 1.348 . S
C84 C89 1.413 . S
C85 C84 1.348 . S
C85 C86 1.442 . S
C85 H112 0.930 . S
C86 C85 1.442 . S
C86 C87 1.381 . S
C86 H113 0.931 . S
C87 C86 1.381 . S
C87 C88 1.321 . S
C88 C87 1.321 . S
C88 C89 1.403 . S
C88 H114 0.934 . S
C89 C84 1.413 . S
C89 C88 1.403 . S
C89 H115 0.930 . S
C90 O104 1.275 . S
C90 O105 1.256 . S
C91 O106 1.259 . S
C91 O107 1.268 . S
C92 Ho81 2.811 . S
C92 C93 1.488 . S
C92 O108 1.215 . S
C92 O109 1.289 . S
C93 C92 1.488 . S
C93 C94 1.348 . S
C93 C98 1.413 . S
C94 C93 1.348 . S
C94 C95 1.442 . S
C94 H116 0.930 . S
C95 C94 1.442 . S
C95 C96 1.381 . S
C95 H117 0.931 . S
C96 C95 1.381 . S
C96 C97 1.321 . S
C97 C96 1.321 . S
C97 C98 1.403 . S
C97 H118 0.934 . S
C98 C93 1.413 . S
C98 C97 1.403 . S
C98 H119 0.930 . S
C99 O110 1.275 . S
C99 O111 1.256 . S
O100 Ho80 2.322 . S
O100 C82 1.259 . S
O101 Ho81 2.346 . S
O101 C82 1.268 . S
O102 Ho80 2.378 . S
O102 C83 1.215 . S
O103 Ho80 2.524 . S
O103 C83 1.289 . S
O104 Ho80 2.381 . S
O104 C90 1.275 . S
O105 Ho80 2.669 . S
O105 Ho81 2.305 . S
O105 C90 1.256 . S
O106 Ho81 2.322 . S
O106 C91 1.259 . S
O107 Ho80 2.346 . S
O107 C91 1.268 . S
O108 Ho81 2.378 . S
O108 C92 1.215 . S
O109 Ho81 2.524 . S
O109 C92 1.289 . S
O110 Ho81 2.381 . S
O110 C99 1.275 . S
O111 Ho80 2.305 . S
O111 Ho81 2.669 . S
O111 C99 1.256 . S
H112 C85 0.930 . S
H113 C86 0.931 . S
H114 C88 0.934 . S
H115 C89 0.930 . S
H116 C94 0.930 . S
H117 C95 0.931 . S
H118 C97 0.934 . S
H119 C98 0.930 . S
H120 C121 0.949 . S
C121 H120 0.949 . S
C121 C122 1.395 . S
C121 C123 1.391 . S
C122 C121 1.395 . S
C122 C125 1.390 . S
C123 C121 1.391 . S
C123 C127 1.387 . S
C123 C128 1.491 . S
H124 C125 0.942 1_565 S
C125 C122 1.390 . S
C125 H124 0.942 1_545 S
C125 C126 1.378 . S
C126 C125 1.378 . S
C126 C127 1.409 . S
C127 C123 1.387 . S
C127 C126 1.409 . S
C127 H129 0.951 . S
C128 C123 1.491 . S
C128 C130 1.382 . S
C128 C132 1.404 . S
H129 C127 0.951 . S
C130 C128 1.382 . S
C130 C131 1.390 . S
C130 H135 0.949 . S
C131 C130 1.390 . S
C131 C136 1.399 . S
C132 C128 1.404 . S
C132 H133 0.950 . S
C132 C134 1.375 . S
H133 C132 0.950 . S
C134 C132 1.375 . S
C134 C136 1.382 . S
C134 H138 0.950 . S
H135 C130 0.949 . S
C136 C131 1.399 . S
C136 C134 1.382 . S
C136 H137 0.952 . S
H137 C136 0.952 . S
H138 C134 0.950 . S
H139 C140 0.949 . S
C140 H139 0.949 . S
C140 C141 1.395 . S
C140 C142 1.391 . S
C141 C140 1.395 . S
C141 C144 1.390 . S
C142 C140 1.391 . S
C142 C146 1.387 . S
C142 C147 1.491 . S
H143 C144 0.950 . S
C144 C141 1.390 . S
C144 H143 0.950 . S
C144 C145 1.378 . S
C145 C144 1.378 . S
C145 C146 1.409 . S
C146 C142 1.387 . S
C146 C145 1.409 . S
C146 H148 0.951 . S
C147 C142 1.491 . S
C147 C149 1.382 . S
C147 C151 1.404 . S
H148 C146 0.951 . S
C149 C147 1.382 . S
C149 C150 1.390 . S
C149 H154 0.949 . S
C150 C149 1.390 . S
C150 C155 1.399 . S
C151 C147 1.404 . S
C151 H152 0.950 . S
C151 C153 1.375 . S
H152 C151 0.950 . S
C153 C151 1.375 . S
C153 C155 1.382 . S
C153 H157 0.950 . S
H154 C149 0.949 . S
C155 C150 1.399 . S
C155 C153 1.382 . S
C155 H156 0.952 . S
H156 C155 0.952 . S
H157 C153 0.950 . S
H158 C159 0.949 . S
C159 H158 0.949 . S
C159 C160 1.395 . S
C159 C161 1.391 . S
C160 C159 1.395 . S
C160 C163 1.390 . S
C161 C159 1.391 . S
C161 C165 1.387 . S
C161 C166 1.491 . S
H162 C163 0.950 . S
C163 C160 1.390 . S
C163 H162 0.950 . S
C163 C164 1.378 . S
C164 C163 1.378 . S
C164 C165 1.409 . S
C165 C161 1.387 . S
C165 C164 1.409 . S
C165 H167 0.951 . S
C166 C161 1.491 . S
C166 C168 1.382 . S
C166 C170 1.404 . S
H167 C165 0.951 . S
C168 C166 1.382 . S
C168 C169 1.390 . S
C168 H173 0.949 . S
C169 C168 1.390 . S
C169 C174 1.399 . S
C170 C166 1.404 . S
C170 H171 0.950 . S
C170 C172 1.375 . S
H171 C170 0.950 . S
C172 C170 1.375 . S
C172 C174 1.382 . S
C172 H176 0.950 . S
H173 C168 0.949 . S
C174 C169 1.399 . S
C174 C172 1.382 . S
C174 H175 0.952 . S
H175 C174 0.952 . S
H176 C172 0.950 . S
H177 C178 0.949 . S
C178 H177 0.949 . S
C178 C179 1.395 1_655 S
C178 C180 1.391 1_655 S
C179 C178 1.395 1_455 S
C179 C182 1.390 . S
C180 C178 1.391 1_455 S
C180 C184 1.387 . S
C180 C185 1.491 1_455 S
H181 C182 0.950 . S
C182 C179 1.390 . S
C182 H181 0.950 . S
C182 C183 1.378 . S
C183 C182 1.378 . S
C183 C184 1.409 . S
C184 C180 1.387 . S
C184 C183 1.409 . S
C184 H186 0.951 . S
C185 C180 1.491 1_655 S
C185 C187 1.382 . S
C185 C189 1.404 . S
H186 C184 0.951 . S
C187 C185 1.382 . S
C187 C188 1.390 . S
C187 H192 0.949 . S
C188 C187 1.390 . S
C188 C193 1.399 . S
C189 C185 1.404 . S
C189 H190 0.950 . S
C189 C191 1.375 . S
H190 C189 0.950 . S
C191 C189 1.375 . S
C191 C193 1.382 . S
C191 H195 0.950 . S
H192 C187 0.949 . S
C193 C188 1.399 . S
C193 C191 1.382 . S
C193 H194 0.952 . S
H194 C193 0.952 . S
H195 C191 0.950 . S
H196 C197 0.949 . S
C197 H196 0.949 . S
C197 C198 1.395 . S
C197 C199 1.391 . S
C198 C197 1.395 . S
C198 C201 1.390 . S
C199 C197 1.391 . S
C199 C203 1.387 . S
C199 C204 1.491 . S
H200 C201 0.950 . S
C201 C198 1.390 . S
C201 H200 0.950 . S
C201 C202 1.378 . S
C202 C201 1.378 . S
C202 C203 1.409 . S
C203 C199 1.387 . S
C203 C202 1.409 . S
C203 H205 0.951 . S
C204 C199 1.491 . S
C204 C206 1.382 1_545 S
C204 C208 1.404 1_545 S
H205 C203 0.951 . S
C206 C204 1.382 1_565 S
C206 C207 1.390 . S
C206 H211 0.949 . S
C207 C206 1.390 . S
C207 C212 1.399 . S
C208 C204 1.404 1_565 S
C208 H209 0.950 1_565 S
C208 C210 1.375 . S
H209 C208 0.950 1_545 S
C210 C208 1.375 . S
C210 C212 1.382 . S
C210 H214 0.950 . S
H211 C206 0.949 . S
C212 C207 1.399 . S
C212 C210 1.382 . S
C212 H213 0.952 . S
H213 C212 0.952 . S
H214 C210 0.950 . S
H215 C216 0.949 . S
C216 H215 0.949 . S
C216 C217 1.395 . S
C216 C218 1.391 . S
C217 C216 1.395 . S
C217 C220 1.390 . S
C218 C216 1.391 . S
C218 C222 1.387 . S
C218 C223 1.491 . S
H219 C220 0.950 . S
C220 C217 1.390 . S
C220 H219 0.950 . S
C220 C221 1.378 . S
C221 C220 1.378 . S
C221 C222 1.409 . S
C222 C218 1.387 . S
C222 C221 1.409 . S
C222 H224 0.951 . S
C223 C218 1.491 . S
C223 C225 1.382 . S
C223 C227 1.404 . S
H224 C222 0.951 . S
C225 C223 1.382 . S
C225 C226 1.390 . S
C225 H230 0.949 . S
C226 C225 1.390 . S
C226 C231 1.399 . S
C227 C223 1.404 . S
C227 H228 0.950 . S
C227 C229 1.375 . S
H228 C227 0.950 . S
C229 C227 1.375 . S
C229 C231 1.382 . S
C229 H233 0.950 . S
H230 C225 0.949 . S
C231 C226 1.399 . S
C231 C229 1.382 . S
C231 H232 0.952 . S
H232 C231 0.952 . S
H233 C229 0.950 . S
H234 C242 0.929 . S
H235 C244 0.930 . S
H236 C246 0.930 . S
H237 C249 0.929 . S
H238 C252 0.930 . S
H239 C254 0.960 . S
H240 C254 0.960 . S
H241 C254 0.960 . S
C242 H234 0.929 . S
C242 C243 1.377 . S
C242 C244 1.384 . S
C243 C242 1.377 . S
C243 C249 1.390 . S
C244 H235 0.930 . S
C244 C242 1.384 . S
C244 C245 1.372 . S
C245 C244 1.372 . S
C245 C246 1.400 . S
C245 C250 1.490 . S
C246 H236 0.930 . S
C246 C245 1.400 . S
C246 C249 1.386 . S
H247 C263 0.930 . S
H248 C264 0.931 . S
C249 H237 0.929 . S
C249 C243 1.390 . S
C249 C246 1.386 . S
C250 C245 1.490 . S
C250 C252 1.395 . S
C250 C253 1.403 . S
H251 C257 0.930 . S
C252 H238 0.930 . S
C252 C250 1.395 . S
C252 C255 1.403 . S
C253 C250 1.403 . S
C253 C254 1.524 . S
C253 C257 1.400 . S
C254 H239 0.960 . S
C254 H240 0.960 . S
C254 H241 0.960 . S
C254 C253 1.524 . S
C255 C252 1.403 . S
C255 C256 1.392 . S
C255 C259 1.495 . S
C256 C255 1.392 . S
C256 C257 1.385 . S
C256 C258 1.478 . S
C257 H251 0.930 . S
C257 C253 1.400 . S
C257 C256 1.385 . S
C258 C256 1.478 . S
C258 C260 1.381 . S
C258 C264 1.383 . S
C259 C255 1.495 . S
C259 H265 0.959 . S
C259 H266 0.961 . S
C259 H267 0.960 . S
C260 C258 1.381 . S
C260 C261 1.394 . S
C260 H268 0.930 . S
C261 C260 1.394 . S
C261 C262 1.383 . S
C261 H269 0.929 . S
C262 C261 1.383 . S
C262 C263 1.377 . S
C263 H247 0.930 . S
C263 C262 1.377 . S
C263 C264 1.379 . S
C264 H248 0.931 . S
C264 C258 1.383 . S
C264 C263 1.379 . S
H265 C259 0.959 . S
H266 C259 0.961 . S
H267 C259 0.960 . S
H268 C260 0.930 . S
H269 C261 0.929 . S
H270 C278 0.929 . S
H271 C280 0.930 . S
H272 C282 0.930 . S
H273 C285 0.929 . S
H274 C288 0.930 . S
H275 C290 0.960 . S
H276 C290 0.960 . S
H277 C290 0.960 . S
C278 H270 0.929 . S
C278 C279 1.377 . S
C278 C280 1.384 . S
C279 C278 1.377 . S
C279 C285 1.390 . S
C280 H271 0.930 . S
C280 C278 1.384 . S
C280 C281 1.372 . S
C281 C280 1.372 . S
C281 C282 1.400 . S
C281 C286 1.490 . S
C282 H272 0.930 . S
C282 C281 1.400 . S
C282 C285 1.386 . S
H283 C299 0.930 . S
H284 C300 0.931 . S
C285 H273 0.929 . S
C285 C279 1.390 . S
C285 C282 1.386 . S
C286 C281 1.490 . S
C286 C288 1.395 . S
C286 C289 1.403 . S
H287 C293 0.930 . S
C288 H274 0.930 . S
C288 C286 1.395 . S
C288 C291 1.403 . S
C289 C286 1.403 . S
C289 C290 1.524 . S
C289 C293 1.400 . S
C290 H275 0.960 . S
C290 H276 0.960 . S
C290 H277 0.960 . S
C290 C289 1.524 . S
C291 C288 1.403 . S
C291 C292 1.392 . S
C291 C295 1.495 . S
C292 C291 1.392 . S
C292 C293 1.385 . S
C292 C294 1.478 . S
C293 H287 0.930 . S
C293 C289 1.400 . S
C293 C292 1.385 . S
C294 C292 1.478 . S
C294 C296 1.381 . S
C294 C300 1.383 . S
C295 C291 1.495 . S
C295 H301 0.959 . S
C295 H302 0.961 . S
C295 H303 0.960 . S
C296 C294 1.381 . S
C296 C297 1.394 . S
C296 H304 0.930 . S
C297 C296 1.394 . S
C297 C298 1.383 . S
C297 H305 0.929 . S
C298 C297 1.383 . S
C298 C299 1.377 . S
C299 H283 0.930 . S
C299 C298 1.377 . S
C299 C300 1.379 . S
C300 H284 0.931 . S
C300 C294 1.383 . S
C300 C299 1.379 . S
H301 C295 0.959 . S
H302 C295 0.961 . S
H303 C295 0.960 . S
H304 C296 0.930 . S
H305 C297 0.929 . S
H306 C314 0.929 . S
H307 C316 0.930 . S
H308 C318 0.930 . S
H309 C321 0.929 . S
H310 C324 0.930 . S
H311 C326 0.960 . S
H312 C326 0.960 . S
H313 C326 0.960 . S
C314 H306 0.929 . S
C314 C315 1.377 . S
C314 C316 1.384 . S
C315 C314 1.377 . S
C315 C321 1.390 . S
C316 H307 0.930 . S
C316 C314 1.384 . S
C316 C317 1.372 . S
C317 C316 1.372 . S
C317 C318 1.400 . S
C317 C322 1.490 . S
C318 H308 0.930 . S
C318 C317 1.400 . S
C318 C321 1.386 . S
H319 C335 0.930 . S
H320 C336 0.931 . S
C321 H309 0.929 . S
C321 C315 1.390 . S
C321 C318 1.386 . S
C322 C317 1.490 . S
C322 C324 1.395 . S
C322 C325 1.403 . S
H323 C329 0.930 . S
C324 H310 0.930 . S
C324 C322 1.395 . S
C324 C327 1.403 . S
C325 C322 1.403 . S
C325 C326 1.524 . S
C325 C329 1.400 . S
C326 H311 0.960 . S
C326 H312 0.960 . S
C326 H313 0.960 . S
C326 C325 1.524 . S
C327 C324 1.403 . S
C327 C328 1.392 . S
C327 C331 1.495 . S
C328 C327 1.392 . S
C328 C329 1.385 . S
C328 C330 1.478 . S
C329 H323 0.930 . S
C329 C325 1.400 . S
C329 C328 1.385 . S
C330 C328 1.478 . S
C330 C332 1.381 . S
C330 C336 1.383 . S
C331 C327 1.495 . S
C331 H337 0.959 . S
C331 H338 0.961 . S
C331 H339 0.960 . S
C332 C330 1.381 . S
C332 C333 1.394 . S
C332 H340 0.930 . S
C333 C332 1.394 . S
C333 C334 1.383 . S
C333 H341 0.929 . S
C334 C333 1.383 . S
C334 C335 1.377 . S
C335 H319 0.930 . S
C335 C334 1.377 . S
C335 C336 1.379 . S
C336 H320 0.931 . S
C336 C330 1.383 . S
C336 C335 1.379 . S
H337 C331 0.959 . S
H338 C331 0.961 . S
H339 C331 0.960 . S
H340 C332 0.930 . S
H341 C333 0.929 . S
H342 C350 0.929 . S
H343 C352 0.930 . S
H344 C354 0.930 . S
H345 C357 0.929 . S
H346 C360 0.930 . S
H347 C362 0.960 . S
H348 C362 0.960 . S
H349 C362 0.960 . S
C350 H342 0.929 . S
C350 C351 1.377 . S
C350 C352 1.384 . S
C351 C350 1.377 . S
C351 C357 1.390 . S
C352 H343 0.930 . S
C352 C350 1.384 . S
C352 C353 1.372 . S
C353 C352 1.372 . S
C353 C354 1.400 . S
C353 C358 1.490 . S
C354 H344 0.930 . S
C354 C353 1.400 . S
C354 C357 1.386 . S
H355 C371 0.930 . S
H356 C372 0.931 . S
C357 H345 0.929 . S
C357 C351 1.390 . S
C357 C354 1.386 . S
C358 C353 1.490 . S
C358 C360 1.395 . S
C358 C361 1.403 . S
H359 C365 0.930 . S
C360 H346 0.930 . S
C360 C358 1.395 . S
C360 C363 1.403 . S
C361 C358 1.403 . S
C361 C362 1.524 . S
C361 C365 1.400 . S
C362 H347 0.960 . S
C362 H348 0.960 . S
C362 H349 0.960 . S
C362 C361 1.524 . S
C363 C360 1.403 . S
C363 C364 1.392 . S
C363 C367 1.495 . S
C364 C363 1.392 . S
C364 C365 1.385 . S
C364 C366 1.478 . S
C365 H359 0.930 . S
C365 C361 1.400 . S
C365 C364 1.385 . S
C366 C364 1.478 . S
C366 C368 1.381 . S
C366 C372 1.383 . S
C367 C363 1.495 . S
C367 H373 0.959 . S
C367 H374 0.961 . S
C367 H375 0.960 . S
C368 C366 1.381 . S
C368 C369 1.394 . S
C368 H376 0.930 . S
C369 C368 1.394 . S
C369 C370 1.383 . S
C369 H377 0.929 . S
C370 C369 1.383 . S
C370 C371 1.377 . S
C371 H355 0.930 . S
C371 C370 1.377 . S
C371 C372 1.379 . S
C372 H356 0.931 . S
C372 C366 1.383 . S
C372 C371 1.379 . S
H373 C367 0.959 . S
H374 C367 0.961 . S
H375 C367 0.960 . S
H376 C368 0.930 . S
H377 C369 0.929 . S
H378 C386 0.929 . S
H379 C388 0.930 . S
H380 C390 0.930 . S
H381 C393 0.929 . S
H382 C396 0.930 . S
H383 C398 0.960 . S
H384 C398 0.960 . S
H385 C398 0.960 . S
C386 H378 0.929 . S
C386 C387 1.377 . S
C386 C388 1.384 . S
C387 C386 1.377 . S
C387 C393 1.390 . S
C388 H379 0.930 . S
C388 C386 1.384 . S
C388 C389 1.372 . S
C389 C388 1.372 . S
C389 C390 1.400 . S
C389 C394 1.490 . S
C390 H380 0.930 . S
C390 C389 1.400 . S
C390 C393 1.386 . S
H391 C407 0.930 . S
H392 C408 0.931 . S
C393 H381 0.929 . S
C393 C387 1.390 . S
C393 C390 1.386 . S
C394 C389 1.490 . S
C394 C396 1.395 . S
C394 C397 1.403 . S
H395 C401 0.930 . S
C396 H382 0.930 . S
C396 C394 1.395 . S
C396 C399 1.403 . S
C397 C394 1.403 . S
C397 C398 1.524 . S
C397 C401 1.400 . S
C398 H383 0.960 . S
C398 H384 0.960 . S
C398 H385 0.960 . S
C398 C397 1.524 . S
C399 C396 1.403 . S
C399 C400 1.392 . S
C399 C403 1.495 . S
C400 C399 1.392 . S
C400 C401 1.385 . S
C400 C402 1.478 . S
C401 H395 0.930 . S
C401 C397 1.400 . S
C401 C400 1.385 . S
C402 C400 1.478 . S
C402 C404 1.381 . S
C402 C408 1.383 . S
C403 C399 1.495 . S
C403 H409 0.959 . S
C403 H410 0.961 . S
C403 H411 0.960 . S
C404 C402 1.381 . S
C404 C405 1.394 . S
C404 H412 0.930 . S
C405 C404 1.394 . S
C405 C406 1.383 . S
C405 H413 0.929 . S
C406 C405 1.383 . S
C406 C407 1.377 . S
C407 H391 0.930 . S
C407 C406 1.377 . S
C407 C408 1.379 . S
C408 H392 0.931 . S
C408 C402 1.383 . S
C408 C407 1.379 . S
H409 C403 0.959 . S
H410 C403 0.961 . S
H411 C403 0.960 . S
H412 C404 0.930 . S
H413 C405 0.929 . S
H414 C422 0.929 . S
H415 C424 0.930 . S
H416 C426 0.930 . S
H417 C429 0.929 . S
H418 C432 0.930 . S
H419 C434 0.960 . S
H420 C434 0.960 . S
H421 C434 0.960 . S
C422 H414 0.929 . S
C422 C423 1.377 . S
C422 C424 1.384 . S
C423 C422 1.377 . S
C423 C429 1.390 . S
C424 H415 0.930 . S
C424 C422 1.384 . S
C424 C425 1.372 . S
C425 C424 1.372 . S
C425 C426 1.400 . S
C425 C430 1.490 . S
C426 H416 0.930 . S
C426 C425 1.400 . S
C426 C429 1.386 . S
H427 C443 0.930 . S
H428 C444 0.931 . S
C429 H417 0.929 . S
C429 C423 1.390 . S
C429 C426 1.386 . S
C430 C425 1.490 . S
C430 C432 1.395 . S
C430 C433 1.403 . S
H431 C437 0.930 . S
C432 H418 0.930 . S
C432 C430 1.395 . S
C432 C435 1.403 . S
C433 C430 1.403 . S
C433 C434 1.524 . S
C433 C437 1.400 . S
C434 H419 0.960 . S
C434 H420 0.960 . S
C434 H421 0.960 . S
C434 C433 1.524 . S
C435 C432 1.403 . S
C435 C436 1.392 . S
C435 C439 1.495 . S
C436 C435 1.392 . S
C436 C437 1.385 . S
C436 C438 1.478 . S
C437 H431 0.930 . S
C437 C433 1.400 . S
C437 C436 1.385 . S
C438 C436 1.478 . S
C438 C440 1.381 . S
C438 C444 1.383 . S
C439 C435 1.495 . S
C439 H445 0.959 . S
C439 H446 0.961 . S
C439 H447 0.960 . S
C440 C438 1.381 . S
C440 C441 1.394 . S
C440 H448 0.930 . S
C441 C440 1.394 . S
C441 C442 1.383 . S
C441 H449 0.929 . S
C442 C441 1.383 . S
C442 C443 1.377 . S
C443 H427 0.930 . S
C443 C442 1.377 . S
C443 C444 1.379 . S
C444 H428 0.931 . S
C444 C438 1.383 . S
C444 C443 1.379 . S
H445 C439 0.959 . S
H446 C439 0.961 . S
H447 C439 0.960 . S
H448 C440 0.930 . S
H449 C441 0.929 . S
H450 C458 0.929 . S
H451 C460 0.930 . S
H452 C462 0.930 . S
H453 C465 0.929 . S
H454 C468 0.930 . S
H455 C470 0.960 . S
H456 C470 0.960 . S
H457 C470 0.960 . S
C458 H450 0.929 . S
C458 C459 1.377 . S
C458 C460 1.384 . S
C459 C458 1.377 . S
C459 C465 1.390 . S
C460 H451 0.930 . S
C460 C458 1.384 . S
C460 C461 1.372 . S
C461 C460 1.372 . S
C461 C462 1.400 . S
C461 C466 1.490 . S
C462 H452 0.930 . S
C462 C461 1.400 . S
C462 C465 1.386 . S
H463 C479 0.930 . S
H464 C480 0.931 . S
C465 H453 0.929 . S
C465 C459 1.390 . S
C465 C462 1.386 . S
C466 C461 1.490 . S
C466 C468 1.395 . S
C466 C469 1.403 . S
H467 C473 0.930 . S
C468 H454 0.930 . S
C468 C466 1.395 . S
C468 C471 1.403 . S
C469 C466 1.403 . S
C469 C470 1.524 . S
C469 C473 1.400 . S
C470 H455 0.960 . S
C470 H456 0.960 . S
C470 H457 0.960 . S
C470 C469 1.524 . S
C471 C468 1.403 . S
C471 C472 1.392 . S
C471 C475 1.495 . S
C472 C471 1.392 . S
C472 C473 1.385 . S
C472 C474 1.478 . S
C473 H467 0.930 . S
C473 C469 1.400 . S
C473 C472 1.385 . S
C474 C472 1.478 . S
C474 C476 1.381 . S
C474 C480 1.383 . S
C475 C471 1.495 . S
C475 H481 0.959 . S
C475 H482 0.961 . S
C475 H483 0.960 . S
C476 C474 1.381 . S
C476 C477 1.394 . S
C476 H484 0.930 . S
C477 C476 1.394 . S
C477 C478 1.383 . S
C477 H485 0.929 . S
C478 C477 1.383 . S
C478 C479 1.377 . S
C479 H463 0.930 . S
C479 C478 1.377 . S
C479 C480 1.379 . S
C480 H464 0.931 . S
C480 C474 1.383 . S
C480 C479 1.379 . S
H481 C475 0.959 . S
H482 C475 0.961 . S
H483 C475 0.960 . S
H484 C476 0.930 . S
H485 C477 0.929 . S
H486 C494 0.929 . S
H487 C496 0.930 . S
H488 C498 0.930 . S
H489 C501 0.929 . S
H490 C504 0.930 . S
H491 C506 0.960 . S
H492 C506 0.960 . S
H493 C506 0.960 . S
C494 H486 0.929 . S
C494 C495 1.377 . S
C494 C496 1.384 . S
C495 C494 1.377 . S
C495 C501 1.390 . S
C496 H487 0.930 . S
C496 C494 1.384 . S
C496 C497 1.372 . S
C497 C496 1.372 . S
C497 C498 1.400 . S
C497 C502 1.490 . S
C498 H488 0.930 . S
C498 C497 1.400 . S
C498 C501 1.386 . S
H499 C515 0.930 . S
H500 C516 0.931 . S
C501 H489 0.929 . S
C501 C495 1.390 . S
C501 C498 1.386 . S
C502 C497 1.490 . S
C502 C504 1.395 . S
C502 C505 1.403 . S
H503 C509 0.930 . S
C504 H490 0.930 . S
C504 C502 1.395 . S
C504 C507 1.403 . S
C505 C502 1.403 . S
C505 C506 1.524 . S
C505 C509 1.400 . S
C506 H491 0.960 . S
C506 H492 0.960 . S
C506 H493 0.960 . S
C506 C505 1.524 . S
C507 C504 1.403 . S
C507 C508 1.392 . S
C507 C511 1.495 . S
C508 C507 1.392 . S
C508 C509 1.385 . S
C508 C510 1.478 . S
C509 H503 0.930 . S
C509 C505 1.400 . S
C509 C508 1.385 . S
C510 C508 1.478 . S
C510 C512 1.381 . S
C510 C516 1.383 . S
C511 C507 1.495 . S
C511 H517 0.959 . S
C511 H518 0.961 . S
C511 H519 0.960 . S
C512 C510 1.381 . S
C512 C513 1.394 . S
C512 H520 0.930 . S
C513 C512 1.394 . S
C513 C514 1.383 . S
C513 H521 0.929 . S
C514 C513 1.383 . S
C514 C515 1.377 . S
C515 H499 0.930 . S
C515 C514 1.377 . S
C515 C516 1.379 . S
C516 H500 0.931 . S
C516 C510 1.383 . S
C516 C515 1.379 . S
H517 C511 0.959 . S
H518 C511 0.961 . S
H519 C511 0.960 . S
H520 C512 0.930 . S
H521 C513 0.929 . S
H522 C530 0.929 . S
H523 C532 0.930 . S
H524 C534 0.930 . S
H525 C537 0.929 . S
H526 C540 0.930 . S
H527 C542 0.960 . S
H528 C542 0.960 . S
H529 C542 0.960 . S
C530 H522 0.929 . S
C530 C531 1.377 . S
C530 C532 1.384 . S
C531 C530 1.377 . S
C531 C537 1.390 . S
C532 H523 0.930 . S
C532 C530 1.384 . S
C532 C533 1.372 . S
C533 C532 1.372 . S
C533 C534 1.400 . S
C533 C538 1.490 . S
C534 H524 0.930 . S
C534 C533 1.400 . S
C534 C537 1.386 . S
H535 C551 0.930 . S
H536 C552 0.931 . S
C537 H525 0.929 . S
C537 C531 1.390 . S
C537 C534 1.386 . S
C538 C533 1.490 . S
C538 C540 1.395 . S
C538 C541 1.403 . S
H539 C545 0.930 . S
C540 H526 0.930 . S
C540 C538 1.395 . S
C540 C543 1.403 . S
C541 C538 1.403 . S
C541 C542 1.524 . S
C541 C545 1.400 . S
C542 H527 0.960 . S
C542 H528 0.960 . S
C542 H529 0.960 . S
C542 C541 1.524 . S
C543 C540 1.403 . S
C543 C544 1.392 . S
C543 C547 1.495 . S
C544 C543 1.392 . S
C544 C545 1.385 . S
C544 C546 1.478 . S
C545 H539 0.930 . S
C545 C541 1.400 . S
C545 C544 1.385 . S
C546 C544 1.478 . S
C546 C548 1.381 . S
C546 C552 1.383 . S
C547 C543 1.495 . S
C547 H553 0.959 . S
C547 H554 0.961 . S
C547 H555 0.960 . S
C548 C546 1.381 . S
C548 C549 1.394 . S
C548 H556 0.930 . S
C549 C548 1.394 . S
C549 C550 1.383 . S
C549 H557 0.929 . S
C550 C549 1.383 . S
C550 C551 1.377 . S
C551 H535 0.930 . S
C551 C550 1.377 . S
C551 C552 1.379 . S
C552 H536 0.931 . S
C552 C546 1.383 . S
C552 C551 1.379 . S
H553 C547 0.959 . S
H554 C547 0.961 . S
H555 C547 0.960 . S
H556 C548 0.930 . S
H557 C549 0.929 . S
H558 C566 0.929 . S
H559 C568 0.930 . S
H560 C570 0.930 . S
H561 C573 0.929 . S
H562 C576 0.930 . S
H563 C578 0.960 . S
H564 C578 0.960 . S
H565 C578 0.960 . S
C566 H558 0.929 . S
C566 C567 1.377 . S
C566 C568 1.384 . S
C567 C566 1.377 . S
C567 C573 1.390 . S
C568 H559 0.930 . S
C568 C566 1.384 . S
C568 C569 1.372 . S
C569 C568 1.372 . S
C569 C570 1.400 . S
C569 C574 1.490 . S
C570 H560 0.930 . S
C570 C569 1.400 . S
C570 C573 1.386 . S
H571 C587 0.930 . S
H572 C588 0.931 . S
C573 H561 0.929 . S
C573 C567 1.390 . S
C573 C570 1.386 . S
C574 C569 1.490 . S
C574 C576 1.395 . S
C574 C577 1.403 . S
H575 C581 0.930 . S
C576 H562 0.930 . S
C576 C574 1.395 . S
C576 C579 1.403 . S
C577 C574 1.403 . S
C577 C578 1.524 . S
C577 C581 1.400 . S
C578 H563 0.960 . S
C578 H564 0.960 . S
C578 H565 0.960 . S
C578 C577 1.524 . S
C579 C576 1.403 . S
C579 C580 1.392 . S
C579 C583 1.495 . S
C580 C579 1.392 . S
C580 C581 1.385 . S
C580 C582 1.478 . S
C581 H575 0.930 . S
C581 C577 1.400 . S
C581 C580 1.385 . S
C582 C580 1.478 . S
C582 C584 1.381 . S
C582 C588 1.383 . S
C583 C579 1.495 . S
C583 H589 0.959 . S
C583 H590 0.961 . S
C583 H591 0.960 . S
C584 C582 1.381 . S
C584 C585 1.394 . S
C584 H592 0.930 . S
C585 C584 1.394 . S
C585 C586 1.383 . S
C585 H593 0.929 . S
C586 C585 1.383 . S
C586 C587 1.377 . S
C587 H571 0.930 . S
C587 C586 1.377 . S
C587 C588 1.379 . S
C588 H572 0.931 . S
C588 C582 1.383 . S
C588 C587 1.379 . S
H589 C583 0.959 . S
H590 C583 0.961 . S
H591 C583 0.960 . S
H592 C584 0.930 . S
H593 C585 0.929 . S
H594 C602 0.929 . S
H595 C604 0.930 . S
H596 C606 0.930 . S
H597 C609 0.929 . S
H598 C612 0.930 . S
H599 C614 0.960 . S
H600 C614 0.960 . S
H601 C614 0.960 . S
C602 H594 0.929 . S
C602 C603 1.377 . S
C602 C604 1.384 . S
C603 C602 1.377 . S
C603 C609 1.390 . S
C604 H595 0.930 . S
C604 C602 1.384 . S
C604 C605 1.372 . S
C605 C604 1.372 . S
C605 C606 1.400 . S
C605 C610 1.490 . S
C606 H596 0.930 . S
C606 C605 1.400 . S
C606 C609 1.386 . S
H607 C623 0.930 . S
H608 C624 0.931 . S
C609 H597 0.929 . S
C609 C603 1.390 . S
C609 C606 1.386 . S
C610 C605 1.490 . S
C610 C612 1.395 . S
C610 C613 1.403 . S
H611 C617 0.930 . S
C612 H598 0.930 . S
C612 C610 1.395 . S
C612 C615 1.403 . S
C613 C610 1.403 . S
C613 C614 1.524 . S
C613 C617 1.400 . S
C614 H599 0.960 . S
C614 H600 0.960 . S
C614 H601 0.960 . S
C614 C613 1.524 . S
C615 C612 1.403 . S
C615 C616 1.392 . S
C615 C619 1.495 . S
C616 C615 1.392 . S
C616 C617 1.385 . S
C616 C618 1.478 . S
C617 H611 0.930 . S
C617 C613 1.400 . S
C617 C616 1.385 . S
C618 C616 1.478 . S
C618 C620 1.381 . S
C618 C624 1.383 . S
C619 C615 1.495 . S
C619 H625 0.959 . S
C619 H626 0.961 . S
C619 H627 0.960 . S
C620 C618 1.381 . S
C620 C621 1.394 . S
C620 H628 0.930 . S
C621 C620 1.394 . S
C621 C622 1.383 . S
C621 H629 0.929 . S
C622 C621 1.383 . S
C622 C623 1.377 . S
C623 H607 0.930 . S
C623 C622 1.377 . S
C623 C624 1.379 . S
C624 H608 0.931 . S
C624 C618 1.383 . S
C624 C623 1.379 . S
H625 C619 0.959 . S
H626 C619 0.961 . S
H627 C619 0.960 . S
H628 C620 0.930 . S
H629 C621 0.929 . S
H630 C638 0.929 . S
H631 C640 0.930 . S
H632 C642 0.930 . S
H633 C645 0.929 . S
H634 C648 0.930 . S
H635 C650 0.960 . S
H636 C650 0.960 . S
H637 C650 0.960 . S
C638 H630 0.929 . S
C638 C639 1.377 . S
C638 C640 1.384 . S
C639 C638 1.377 . S
C639 C645 1.390 . S
C640 H631 0.930 . S
C640 C638 1.384 . S
C640 C641 1.372 . S
C641 C640 1.372 . S
C641 C642 1.400 . S
C641 C646 1.490 . S
C642 H632 0.930 . S
C642 C641 1.400 . S
C642 C645 1.386 . S
H643 C659 0.930 . S
H644 C660 0.931 . S
C645 H633 0.929 . S
C645 C639 1.390 . S
C645 C642 1.386 . S
C646 C641 1.490 . S
C646 C648 1.395 . S
C646 C649 1.403 . S
H647 C653 0.930 . S
C648 H634 0.930 . S
C648 C646 1.395 . S
C648 C651 1.403 . S
C649 C646 1.403 . S
C649 C650 1.524 . S
C649 C653 1.400 . S
C650 H635 0.960 . S
C650 H636 0.960 . S
C650 H637 0.960 . S
C650 C649 1.524 . S
C651 C648 1.403 . S
C651 C652 1.392 . S
C651 C655 1.495 . S
C652 C651 1.392 . S
C652 C653 1.385 . S
C652 C654 1.478 . S
C653 H647 0.930 . S
C653 C649 1.400 . S
C653 C652 1.385 . S
C654 C652 1.478 . S
C654 C656 1.381 . S
C654 C660 1.383 . S
C655 C651 1.495 . S
C655 H661 0.959 . S
C655 H662 0.961 . S
C655 H663 0.960 . S
C656 C654 1.381 . S
C656 C657 1.394 . S
C656 H664 0.930 . S
C657 C656 1.394 . S
C657 C658 1.383 . S
C657 H665 0.929 . S
C658 C657 1.383 . S
C658 C659 1.377 . S
C659 H643 0.930 . S
C659 C658 1.377 . S
C659 C660 1.379 . S
C660 H644 0.931 . S
C660 C654 1.383 . S
C660 C659 1.379 . S
H661 C655 0.959 . S
H662 C655 0.961 . S
H663 C655 0.960 . S
H664 C656 0.930 . S
H665 C657 0.929 . S
H666 C674 0.929 1_655 S
H667 C676 0.930 1_655 S
H668 C678 0.930 . S
H669 C681 0.929 . S
H670 C684 0.930 . S
H671 C686 0.960 . S
H672 C686 0.960 . S
H673 C686 0.960 . S
C674 H666 0.929 1_455 S
C674 C675 1.377 . S
C674 C676 1.384 . S
C675 C674 1.377 . S
C675 C681 1.390 . S
C676 H667 0.930 1_455 S
C676 C674 1.384 . S
C676 C677 1.372 . S
C677 C676 1.372 . S
C677 C678 1.400 . S
C677 C682 1.490 . S
C678 H668 0.930 . S
C678 C677 1.400 . S
C678 C681 1.386 . S
H679 C695 0.930 . S
H680 C696 0.931 . S
C681 H669 0.929 . S
C681 C675 1.390 . S
C681 C678 1.386 . S
C682 C677 1.490 . S
C682 C684 1.395 . S
C682 C685 1.403 . S
H683 C689 0.930 1_556 S
C684 H670 0.930 . S
C684 C682 1.395 . S
C684 C687 1.395 1_554 S
C685 C682 1.403 . S
C685 C686 1.524 . S
C685 C689 1.400 . S
C686 H671 0.960 . S
C686 H672 0.960 . S
C686 H673 0.960 . S
C686 C685 1.524 . S
C687 C684 1.395 1_556 S
C687 C688 1.396 . S
C687 C691 1.500 . S
C688 C687 1.396 . S
C688 C689 1.385 1_556 S
C688 C690 1.478 . S
C689 H683 0.930 1_554 S
C689 C685 1.400 . S
C689 C688 1.385 1_554 S
C690 C688 1.478 . S
C690 C692 1.381 . S
C690 C696 1.383 . S
C691 C687 1.500 . S
C691 H697 0.959 . S
C691 H698 0.961 . S
C691 H699 0.960 1_455 S
C692 C690 1.381 . S
C692 C693 1.394 . S
C692 H700 0.930 1_455 S
C693 C692 1.394 . S
C693 C694 1.383 . S
C693 H701 0.929 . S
C694 C693 1.383 . S
C694 C695 1.377 . S
C695 H679 0.930 . S
C695 C694 1.377 . S
C695 C696 1.379 . S
C696 H680 0.931 . S
C696 C690 1.383 . S
C696 C695 1.379 . S
H697 C691 0.959 . S
H698 C691 0.961 . S
H699 C691 0.960 1_655 S
H700 C692 0.930 1_655 S
H701 C693 0.929 . S
H702 C710 0.929 1_565 S
H703 C712 0.930 1_565 S
H704 C714 0.930 . S
H705 C717 0.929 . S
H706 C720 0.930 . S
H707 C722 0.960 . S
H708 C722 0.960 . S
H709 C722 0.960 . S
C710 H702 0.929 1_545 S
C710 C711 1.377 . S
C710 C712 1.384 . S
C711 C710 1.377 . S
C711 C717 1.390 . S
C712 H703 0.930 1_545 S
C712 C710 1.384 . S
C712 C713 1.372 . S
C713 C712 1.372 . S
C713 C714 1.400 . S
C713 C718 1.490 . S
C714 H704 0.930 . S
C714 C713 1.400 . S
C714 C717 1.386 . S
H715 C731 0.930 . S
H716 C732 0.931 . S
C717 H705 0.929 . S
C717 C711 1.390 . S
C717 C714 1.386 . S
C718 C713 1.490 . S
C718 C720 1.395 . S
C718 C721 1.403 . S
H719 C725 0.930 . S
C720 H706 0.930 . S
C720 C718 1.395 . S
C720 C723 1.403 . S
C721 C718 1.403 . S
C721 C722 1.524 . S
C721 C725 1.400 . S
C722 H707 0.960 . S
C722 H708 0.960 . S
C722 H709 0.960 . S
C722 C721 1.524 . S
C723 C720 1.403 . S
C723 C724 1.392 . S
C723 C727 1.495 . S
C724 C723 1.392 . S
C724 C725 1.385 . S
C724 C726 1.478 . S
C725 H719 0.930 . S
C725 C721 1.400 . S
C725 C724 1.385 . S
C726 C724 1.478 . S
C726 C728 1.381 . S
C726 C732 1.383 . S
C727 C723 1.495 . S
C727 H733 0.959 1_545 S
C727 H734 0.961 . S
C727 H735 0.960 1_545 S
C728 C726 1.381 . S
C728 C729 1.394 . S
C728 H736 0.930 1_545 S
C729 C728 1.394 . S
C729 C730 1.383 . S
C729 H737 0.929 . S
C730 C729 1.383 . S
C730 C731 1.377 . S
C731 H715 0.930 . S
C731 C730 1.377 . S
C731 C732 1.379 . S
C732 H716 0.931 . S
C732 C726 1.383 . S
C732 C731 1.379 . S
H733 C727 0.959 1_565 S
H734 C727 0.961 . S
H735 C727 0.960 1_565 S
H736 C728 0.930 1_565 S
H737 C729 0.929 . S
H738 C746 0.929 . S
H739 C748 0.930 . S
H740 C750 0.930 . S
H741 C753 0.929 . S
H742 C756 0.930 . S
H743 C758 0.960 . S
H744 C758 0.960 . S
H745 C758 0.960 . S
C746 H738 0.929 . S
C746 C747 1.377 . S
C746 C748 1.384 . S
C747 C746 1.377 . S
C747 C753 1.390 . S
C748 H739 0.930 . S
C748 C746 1.384 . S
C748 C749 1.372 . S
C749 C748 1.372 . S
C749 C750 1.400 . S
C749 C754 1.490 . S
C750 H740 0.930 . S
C750 C749 1.400 . S
C750 C753 1.386 . S
H751 C767 0.930 . S
H752 C768 0.931 . S
C753 H741 0.929 . S
C753 C747 1.390 . S
C753 C750 1.386 . S
C754 C749 1.490 . S
C754 C756 1.395 . S
C754 C757 1.403 . S
H755 C761 0.930 . S
C756 H742 0.930 . S
C756 C754 1.395 . S
C756 C759 1.403 . S
C757 C754 1.403 . S
C757 C758 1.524 . S
C757 C761 1.400 . S
C758 H743 0.960 . S
C758 H744 0.960 . S
C758 H745 0.960 . S
C758 C757 1.524 . S
C759 C756 1.403 . S
C759 C760 1.392 . S
C759 C763 1.495 . S
C760 C759 1.392 . S
C760 C761 1.385 . S
C760 C762 1.478 . S
C761 H755 0.930 . S
C761 C757 1.400 . S
C761 C760 1.385 . S
C762 C760 1.478 . S
C762 C764 1.381 . S
C762 C768 1.383 . S
C763 C759 1.495 . S
C763 H769 0.959 . S
C763 H770 0.961 . S
C763 H771 0.960 . S
C764 C762 1.381 . S
C764 C765 1.394 . S
C764 H772 0.930 . S
C765 C764 1.394 . S
C765 C766 1.383 . S
C765 H773 0.929 . S
C766 C765 1.383 . S
C766 C767 1.377 . S
C767 H751 0.930 . S
C767 C766 1.377 . S
C767 C768 1.379 . S
C768 H752 0.931 . S
C768 C762 1.383 . S
C768 C767 1.379 . S
H769 C763 0.959 . S
H770 C763 0.961 . S
H771 C763 0.960 . S
H772 C764 0.930 . S
H773 C765 0.929 . S
H774 C782 0.929 . S
H775 C784 0.930 . S
H776 C786 0.930 . S
H777 C789 0.929 . S
H778 C792 0.930 . S
H779 C794 0.960 . S
H780 C794 0.960 . S
H781 C794 0.960 . S
C782 H774 0.929 . S
C782 C783 1.377 . S
C782 C784 1.384 . S
C783 C782 1.377 . S
C783 C789 1.390 . S
C784 H775 0.930 . S
C784 C782 1.384 . S
C784 C785 1.372 . S
C785 C784 1.372 . S
C785 C786 1.400 . S
C785 C790 1.490 . S
C786 H776 0.930 . S
C786 C785 1.400 . S
C786 C789 1.386 . S
H787 C803 0.930 . S
H788 C804 0.931 . S
C789 H777 0.929 . S
C789 C783 1.390 . S
C789 C786 1.386 . S
C790 C785 1.490 . S
C790 C792 1.395 . S
C790 C793 1.403 . S
H791 C797 0.930 . S
C792 H778 0.930 . S
C792 C790 1.395 . S
C792 C795 1.403 . S
C793 C790 1.403 . S
C793 C794 1.524 1_545 S
C793 C797 1.400 . S
C794 H779 0.960 . S
C794 H780 0.960 . S
C794 H781 0.960 . S
C794 C793 1.524 1_565 S
C795 C792 1.403 . S
C795 C796 1.392 . S
C795 C799 1.495 . S
C796 C795 1.392 . S
C796 C797 1.385 . S
C796 C798 1.478 . S
C797 H791 0.930 . S
C797 C793 1.400 . S
C797 C796 1.385 . S
C798 C796 1.478 . S
C798 C800 1.381 . S
C798 C804 1.383 . S
C799 C795 1.495 . S
C799 H805 0.959 . S
C799 H806 0.961 . S
C799 H807 0.960 . S
C800 C798 1.381 . S
C800 C801 1.394 . S
C800 H808 0.930 . S
C801 C800 1.394 . S
C801 C802 1.383 . S
C801 H809 0.929 . S
C802 C801 1.383 . S
C802 C803 1.377 . S
C803 H787 0.930 . S
C803 C802 1.377 . S
C803 C804 1.379 . S
C804 H788 0.931 . S
C804 C798 1.383 . S
C804 C803 1.379 . S
H805 C799 0.959 . S
H806 C799 0.961 . S
H807 C799 0.960 . S
H808 C800 0.930 . S
H809 C801 0.929 . S
H810 C818 0.929 . S
H811 C820 0.930 . S
H812 C822 0.930 . S
H813 C825 0.929 . S
H814 C828 0.930 . S
H815 C830 0.960 . S
H816 C830 0.960 . S
H817 C830 0.960 . S
C818 H810 0.929 . S
C818 C819 1.377 . S
C818 C820 1.384 . S
C819 C818 1.377 . S
C819 C825 1.390 . S
C820 H811 0.930 . S
C820 C818 1.384 . S
C820 C821 1.372 . S
C821 C820 1.372 . S
C821 C822 1.400 . S
C821 C826 1.490 . S
C822 H812 0.930 . S
C822 C821 1.400 . S
C822 C825 1.386 . S
H823 C839 0.930 . S
H824 C840 0.931 . S
C825 H813 0.929 . S
C825 C819 1.390 . S
C825 C822 1.386 . S
C826 C821 1.490 . S
C826 C828 1.395 . S
C826 C829 1.403 . S
H827 C833 0.930 . S
C828 H814 0.930 . S
C828 C826 1.395 . S
C828 C831 1.403 . S
C829 C826 1.403 . S
C829 C830 1.524 . S
C829 C833 1.400 1_556 S
C830 H815 0.960 . S
C830 H816 0.960 . S
C830 H817 0.960 . S
C830 C829 1.524 . S
C831 C828 1.403 . S
C831 C832 1.392 1_556 S
C831 C835 1.495 . S
C832 C831 1.392 1_554 S
C832 C833 1.385 . S
C832 C834 1.478 . S
C833 H827 0.930 . S
C833 C829 1.400 1_554 S
C833 C832 1.385 . S
C834 C832 1.478 . S
C834 C836 1.381 . S
C834 C840 1.383 . S
C835 C831 1.495 . S
C835 H841 0.959 . S
C835 H842 0.946 1_556 S
C835 H843 0.938 1_556 S
C836 C834 1.381 . S
C836 C837 1.394 . S
C836 H844 0.930 . S
C837 C836 1.394 . S
C837 C838 1.383 . S
C837 H845 0.929 . S
C838 C837 1.383 . S
C838 C839 1.377 . S
C839 H823 0.930 . S
C839 C838 1.377 . S
C839 C840 1.379 . S
C840 H824 0.931 . S
C840 C834 1.383 . S
C840 C839 1.379 . S
H841 C835 0.959 . S
H842 C835 0.946 1_554 S
H843 C835 0.938 1_554 S
H844 C836 0.930 . S
H845 C837 0.929 . S
H846 C854 0.929 . S
H847 C856 0.930 . S
H848 C858 0.930 1_655 S
H849 C861 0.929 1_655 S
H850 C864 0.930 . S
H851 C866 0.960 . S
H852 C866 0.960 . S
H853 C866 0.960 . S
C854 H846 0.929 . S
C854 C855 1.377 . S
C854 C856 1.384 . S
C855 C854 1.377 . S
C855 C861 1.390 . S
C856 H847 0.930 . S
C856 C854 1.384 . S
C856 C857 1.372 . S
C857 C856 1.372 . S
C857 C858 1.400 . S
C857 C862 1.490 . S
C858 H848 0.930 1_455 S
C858 C857 1.400 . S
C858 C861 1.386 . S
H859 C875 0.921 1_655 S
H860 C876 0.931 1_655 S
C861 H849 0.929 1_455 S
C861 C855 1.390 . S
C861 C858 1.386 . S
C862 C857 1.490 . S
C862 C864 1.395 . S
C862 C865 1.403 . S
H863 C869 0.930 1_655 S
C864 H850 0.930 . S
C864 C862 1.395 . S
C864 C867 1.403 . S
C865 C862 1.403 . S
C865 C866 1.524 1_455 S
C865 C869 1.400 . S
C866 H851 0.960 . S
C866 H852 0.960 . S
C866 H853 0.960 . S
C866 C865 1.524 1_655 S
C867 C864 1.403 . S
C867 C868 1.392 . S
C867 C871 1.495 . S
C868 C867 1.392 . S
C868 C869 1.385 . S
C868 C870 1.478 . S
C869 H863 0.930 1_455 S
C869 C865 1.400 . S
C869 C868 1.385 . S
C870 C868 1.478 . S
C870 C872 1.381 . S
C870 C876 1.383 . S
C871 C867 1.495 . S
C871 H877 0.959 . S
C871 H878 0.961 . S
C871 H879 0.960 . S
C872 C870 1.381 . S
C872 C873 1.394 . S
C872 H880 0.930 . S
C873 C872 1.394 . S
C873 C874 1.383 . S
C873 H881 0.929 . S
C874 C873 1.383 . S
C874 C875 1.384 . S
C875 H859 0.921 1_455 S
C875 C874 1.384 . S
C875 C876 1.381 . S
C876 H860 0.931 1_455 S
C876 C870 1.383 . S
C876 C875 1.381 . S
H877 C871 0.959 . S
H878 C871 0.961 . S
H879 C871 0.960 . S
H880 C872 0.930 . S
H881 C873 0.929 . S
C243 C7 0.643 . S
C262 C226 0.754 . S
C279 C51 1.994 . S
C298 C188 1.911 . S
C315 C87 1.276 . S
C334 C207 1.225 . S
C351 C16 0.164 . S
C370 C221 0.230 . S
C406 C183 1.844 . S
C387 C42 1.876 . S
C442 C202 1.101 . S
C423 C96 1.100 . S
C459 C47 1.332 . S
C478 C150 1.221 . S
C495 C91 3.031 . S
C514 C164 2.989 1_655 S
C531 C2 1.886 . S
C550 C126 1.858 1_565 S
C586 C145 1.060 . S
C567 C56 1.087 . S
C622 C169 3.027 . S
C603 C82 3.085 . S
C639 C11 1.996 . S
C658 C131 1.943 . S
C694 C160 1.693 . S
C675 C19 1.697 . S
C711 C50 1.480 . S
C730 C122 1.521 . S
C747 C99 1.567 . S
C766 C141 1.574 . S
C802 C198 1.556 . S
C783 C59 1.580 . S
C838 C217 1.417 . S
C819 C90 1.375 . S
C855 C10 1.451 . S
C874 C179 1.475 . S
