# Generated by pormake.
# Topology zzz, (3,6)-cn, num edge types: 1
# Building blocks:
#     Node 0, Type 0, BuildingBlock: BETDAH_clean_linker_0, # of connection points: 3
#     Node 1, Type 0, BuildingBlock: BETDAH_clean_linker_0, # of connection points: 3
#     Node 2, Type 0, BuildingBlock: BETDAH_clean_linker_0, # of connection points: 3
#     Node 3, Type 0, BuildingBlock: BETDAH_clean_linker_0, # of connection points: 3
#     Node 4, Type 0, BuildingBlock: BETDAH_clean_linker_0, # of connection points: 3
#     Node 5, Type 0, BuildingBlock: BETDAH_clean_linker_0, # of connection points: 3
#     Node 6, Type 0, BuildingBlock: BETDAH_clean_linker_0, # of connection points: 3
#     Node 7, Type 0, BuildingBlock: BETDAH_clean_linker_0, # of connection points: 3
#     Node 8, Type 1, BuildingBlock: CIFDUS_clean_sbu_1, # of connection points: 6
#     Node 9, Type 1, BuildingBlock: CIFDUS_clean_sbu_1, # of connection points: 6
#     Node 10, Type 1, BuildingBlock: CIFDUS_clean_sbu_1, # of connection points: 6
#     Node 11, Type 1, BuildingBlock: CIFDUS_clean_sbu_1, # of connection points: 6
#     Edge 12, Type (0, 1), BuildingBlock: MIFKUJ_clean_linker_0, # of connection points: 2
#     Edge 13, Type (0, 1), BuildingBlock: MIFKUJ_clean_linker_0, # of connection points: 2
#     Edge 14, Type (0, 1), BuildingBlock: MIFKUJ_clean_linker_0, # of connection points: 2
#     Edge 15, Type (0, 1), BuildingBlock: MIFKUJ_clean_linker_0, # of connection points: 2
#     Edge 16, Type (0, 1), BuildingBlock: MIFKUJ_clean_linker_0, # of connection points: 2
#     Edge 17, Type (0, 1), BuildingBlock: MIFKUJ_clean_linker_0, # of connection points: 2
#     Edge 18, Type (0, 1), BuildingBlock: MIFKUJ_clean_linker_0, # of connection points: 2
#     Edge 19, Type (0, 1), BuildingBlock: MIFKUJ_clean_linker_0, # of connection points: 2
#     Edge 20, Type (0, 1), BuildingBlock: MIFKUJ_clean_linker_0, # of connection points: 2
#     Edge 21, Type (0, 1), BuildingBlock: MIFKUJ_clean_linker_0, # of connection points: 2
#     Edge 22, Type (0, 1), BuildingBlock: MIFKUJ_clean_linker_0, # of connection points: 2
#     Edge 23, Type (0, 1), BuildingBlock: MIFKUJ_clean_linker_0, # of connection points: 2
#     Edge 24, Type (0, 1), BuildingBlock: MIFKUJ_clean_linker_0, # of connection points: 2
#     Edge 25, Type (0, 1), BuildingBlock: MIFKUJ_clean_linker_0, # of connection points: 2
#     Edge 26, Type (0, 1), BuildingBlock: MIFKUJ_clean_linker_0, # of connection points: 2
#     Edge 27, Type (0, 1), BuildingBlock: MIFKUJ_clean_linker_0, # of connection points: 2
#     Edge 28, Type (0, 1), BuildingBlock: MIFKUJ_clean_linker_0, # of connection points: 2
#     Edge 29, Type (0, 1), BuildingBlock: MIFKUJ_clean_linker_0, # of connection points: 2
#     Edge 30, Type (0, 1), BuildingBlock: MIFKUJ_clean_linker_0, # of connection points: 2
#     Edge 31, Type (0, 1), BuildingBlock: MIFKUJ_clean_linker_0, # of connection points: 2
#     Edge 32, Type (0, 1), BuildingBlock: MIFKUJ_clean_linker_0, # of connection points: 2
#     Edge 33, Type (0, 1), BuildingBlock: MIFKUJ_clean_linker_0, # of connection points: 2
#     Edge 34, Type (0, 1), BuildingBlock: MIFKUJ_clean_linker_0, # of connection points: 2
#     Edge 35, Type (0, 1), BuildingBlock: MIFKUJ_clean_linker_0, # of connection points: 2
# Relax obj value: 0.144
# Max RMSD: 0.188
# Mean RMSD: 0.107
data_MOF--net-zzz--node1-CIFDUS_clean_sbu_1--node2-BETDAH_clean_linker_0--edge1-MIFKUJ_clean_linker_0
_symmetry_space_group_name_H-M    P1
_symmetry_Int_Tables_number       1
_symmetry_cell_setting            triclinic
loop_
_symmetry_equiv_pos_as_xyz
'x, y, z'
_cell_length_a     65.188202
_cell_length_b     65.200795
_cell_length_c     20.91194
_cell_angle_alpha  90.057779
_cell_angle_beta   89.820329
_cell_angle_gamma 90.063128
loop_
_atom_site_label
_atom_site_type_symbol
_atom_site_fract_x
_atom_site_fract_y
_atom_site_fract_z
_atom_type_partial_charge
H0 H 0.82697 0.55651 0.14154 0.0
H1 H 0.7668 0.55034 0.06191 0.0
H2 H 0.7779 0.53347 0.25854 0.0
C3 C 0.81089 0.55273 0.14768 0.0
C4 C 0.80434 0.54458 0.20615 0.0
C5 C 0.7976 0.55462 0.09545 0.0
C6 C 0.77691 0.5493 0.10277 0.0
C7 C 0.76954 0.54218 0.16218 0.0
C8 C 0.78337 0.53975 0.21368 0.0
N9 N 0.74857 0.53658 0.1707 0.0
C10 C 0.73353 0.53821 0.12346 0.0
H11 H 0.95264 0.81988 0.15335 0.0
H12 H 0.96799 0.76171 0.07154 0.0
H13 H 0.98316 0.77475 0.26799 0.0
C14 C 0.95873 0.80453 0.15887 0.0
C15 C 0.96847 0.79943 0.21623 0.0
C16 C 0.95978 0.79165 0.10545 0.0
C17 C 0.96711 0.77164 0.11301 0.0
C18 C 0.97452 0.76502 0.17277 0.0
C19 C 0.97578 0.77922 0.22384 0.0
N20 N 0.98217 0.74475 0.18113 0.0
C21 C 0.98116 0.72957 0.13406 0.0
H22 H 0.69342 0.95903 0.1488 0.0
H23 H 0.75362 0.96431 0.0671 0.0
H24 H 0.74497 0.96985 0.27137 0.0
C25 C 0.70989 0.9604 0.15517 0.0
C26 C 0.71762 0.96395 0.21627 0.0
C27 C 0.72279 0.96056 0.10155 0.0
C28 C 0.7439 0.96361 0.10912 0.0
C29 C 0.75215 0.96642 0.17074 0.0
C30 C 0.73885 0.96678 0.2242 0.0
N31 N 0.7735 0.96979 0.18018 0.0
C32 C 0.78817 0.96982 0.13141 0.0
H33 H 0.55805 0.6913 0.15082 0.0
H34 H 0.55236 0.75119 0.06784 0.0
H35 H 0.54636 0.74314 0.27208 0.0
C36 C 0.55655 0.70778 0.15687 0.0
C37 C 0.55277 0.71565 0.21779 0.0
C38 C 0.55624 0.72049 0.10293 0.0
C39 C 0.55308 0.74161 0.11005 0.0
C40 C 0.55009 0.75006 0.17137 0.0
C41 C 0.54961 0.7369 0.22511 0.0
N42 N 0.54667 0.77146 0.18022 0.0
C43 C 0.54669 0.78611 0.1314 0.0
H44 H 0.19422 0.46712 0.30144 0.0
H45 H 0.25573 0.46645 0.36926 0.0
H46 H 0.244 0.46078 0.16659 0.0
C47 C 0.21037 0.46534 0.29039 0.0
C48 C 0.2169 0.46299 0.22687 0.0
C49 C 0.22423 0.46603 0.34106 0.0
C50 C 0.24525 0.46549 0.32929 0.0
C51 C 0.25254 0.46384 0.26605 0.0
C52 C 0.23831 0.46241 0.21501 0.0
N53 N 0.27399 0.46364 0.25267 0.0
C54 C 0.28919 0.46586 0.29926 0.0
H55 H 0.05864 0.19158 0.28902 0.0
H56 H 0.05335 0.25271 0.36111 0.0
H57 H 0.05196 0.24176 0.15729 0.0
C58 C 0.05762 0.20792 0.27952 0.0
C59 C 0.05505 0.21474 0.21667 0.0
C60 C 0.05661 0.22147 0.33119 0.0
C61 C 0.05475 0.2425 0.32044 0.0
C62 C 0.05389 0.25008 0.25746 0.0
C63 C 0.05384 0.23607 0.20557 0.0
N64 N 0.05193 0.2715 0.24535 0.0
C65 C 0.05082 0.28644 0.29326 0.0
H66 H 0.32383 0.05865 0.30049 0.0
H67 H 0.2633 0.04738 0.36993 0.0
H68 H 0.27602 0.04226 0.16796 0.0
C69 C 0.3079 0.05525 0.29001 0.0
C70 C 0.30212 0.04999 0.22759 0.0
C71 C 0.29418 0.05346 0.34112 0.0
C72 C 0.27357 0.04921 0.32956 0.0
C73 C 0.26663 0.04621 0.26662 0.0
C74 C 0.28108 0.04614 0.21574 0.0
N75 N 0.24557 0.0419 0.25415 0.0
C76 C 0.23036 0.04147 0.30156 0.0
H77 H 0.45878 0.32281 0.28723 0.0
H78 H 0.46986 0.26325 0.36588 0.0
H79 H 0.472 0.27235 0.16139 0.0
C80 C 0.46129 0.30652 0.27974 0.0
C81 C 0.46459 0.29922 0.21772 0.0
C82 C 0.46341 0.29366 0.33284 0.0
C83 C 0.46782 0.27288 0.32423 0.0
C84 C 0.47038 0.26487 0.26222 0.0
C85 C 0.46921 0.27825 0.20908 0.0
N86 N 0.47487 0.24373 0.25217 0.0
C87 C 0.47554 0.229 0.30067 0.0
O88 O 0.02069 0.02853 0.78164 0.0
Mn89 Mn 0.00962 0.00743 0.71304 0.0
O90 O 0.99573 0.05216 0.7906 0.0
Mn91 Mn 0.9781 0.04005 0.73275 0.0
O92 O 0.99784 0.98689 0.64382 0.0
O93 O 0.04 0.00211 0.68767 0.0
Mn94 Mn 0.04029 0.97515 0.67698 0.0
O95 O 0.00919 0.98399 0.78109 0.0
O96 O 0.02424 0.96823 0.60814 0.0
O97 O 0.01048 0.03022 0.64357 0.0
O98 O 0.98123 0.04756 0.64904 0.0
O99 O 0.06645 0.9821 0.66149 0.0
O100 O 0.03414 0.96218 0.75256 0.0
C101 C 0.9601 0.01511 0.75691 0.0
C102 C 0.0133 0.04523 0.80539 0.0
C103 C 0.00567 0.97379 0.60479 0.0
C104 C 0.05948 0.00042 0.67179 0.0
C105 C 0.01969 0.96758 0.78974 0.0
C106 C 0.99787 0.04331 0.62091 0.0
O107 O 0.9794 0.01295 0.73955 0.0
O108 O 0.95272 0.03356 0.75859 0.0
O109 O 0.53124 0.00575 0.78513 0.0
Mn110 Mn 0.50914 0.00783 0.71351 0.0
O111 O 0.54993 0.0344 0.78225 0.0
Mn112 Mn 0.54102 0.04108 0.70186 0.0
O113 O 0.48724 0.0102 0.6414 0.0
O114 O 0.50397 0.97702 0.73214 0.0
Mn115 Mn 0.47738 0.97488 0.71527 0.0
O116 O 0.48673 0.0161 0.78178 0.0
O117 O 0.47284 0.97967 0.63022 0.0
O118 O 0.53132 -0.00073 0.64403 0.0
O119 O 0.55236 0.02644 0.63497 0.0
O120 O 0.48425 0.94922 0.73837 0.0
O121 O 0.46278 0.99141 0.77183 0.0
C122 C 0.51492 0.05854 0.68444 0.0
C123 C 0.54536 0.01735 0.8076 0.0
C124 C 0.47574 0.99775 0.61062 0.0
C125 C 0.50223 0.9574 0.74549 0.0
C126 C 0.46918 0.00817 0.79612 0.0
C127 C 0.54663 0.00861 0.61777 0.0
O128 O 0.51402 0.03878 0.69659 0.0
O129 O 0.53289 0.06701 0.68669 0.0
O130 O 0.51094 0.52839 0.78569 0.0
Mn131 Mn 0.5093 0.50631 0.71359 0.0
O132 O 0.48093 0.54471 0.79034 0.0
Mn133 Mn 0.47401 0.53644 0.70936 0.0
O134 O 0.50687 0.48465 0.64013 0.0
O135 O 0.541 0.50334 0.72993 0.0
Mn136 Mn 0.54244 0.47695 0.70819 0.0
O137 O 0.50256 0.48323 0.78188 0.0
O138 O 0.53789 0.47266 0.6232 0.0
O139 O 0.51585 0.52926 0.64474 0.0
O140 O 0.4878 0.54935 0.64301 0.0
O141 O 0.56831 0.48218 0.72795 0.0
O142 O 0.52785 0.46074 0.76482 0.0
C143 C 0.45841 0.50924 0.68814 0.0
C144 C 0.49883 0.54152 0.81145 0.0
C145 C 0.51949 0.4743 0.60616 0.0
C146 C 0.56087 0.50029 0.73904 0.0
C147 C 0.51139 0.46594 0.79339 0.0
C148 C 0.50558 0.54455 0.62226 0.0
O149 O 0.47815 0.50981 0.69984 0.0
O150 O 0.44861 0.5264 0.69437 0.0
O151 O 0.03175 0.49695 0.78783 0.0
Mn152 Mn 0.01006 0.50685 0.71954 0.0
O153 O 0.05614 0.52092 0.78219 0.0
Mn154 Mn 0.0416 0.53763 0.72763 0.0
O155 O 0.98809 0.51593 0.65192 0.0
O156 O 0.00556 0.47603 0.69552 0.0
Mn157 Mn 0.97914 0.47432 0.7152 0.0
O158 O 0.98734 0.50854 0.79132 0.0
O159 O 0.96379 0.49178 0.66413 0.0
O160 O 0.03222 0.50506 0.6468 0.0
O161 O 0.04771 0.53504 0.64296 0.0
O162 O 0.98438 0.44903 0.68702 0.0
O163 O 0.97601 0.47697 0.80151 0.0
C164 C 0.01923 0.55753 0.75497 0.0
C165 C 0.04938 0.50408 0.80394 0.0
C166 C 0.97025 0.50846 0.63958 0.0
C167 C 0.00267 0.45658 0.68041 0.0
C168 C 0.97649 0.49521 0.8211 0.0
C169 C 0.04432 0.51767 0.61897 0.0
O170 O 0.01452 0.53817 0.74177 0.0
O171 O 0.03832 0.56318 0.75278 0.0
H172 H 0.23337 0.02769 0.42363 0.0
H173 H 0.20594 0.02657 0.5046 0.0
H174 H 0.16383 0.05302 0.36896 0.0
H175 H 0.19136 0.05446 0.2887 0.0
H176 H 0.15892 0.0701 0.48634 0.0
H177 H 0.16616 0.0 0.40332 0.0
H178 H 0.18556 0.96814 0.38335 0.0
H179 H 0.19774 0.9624 0.58424 0.0
H180 H 0.17862 0.99436 0.60524 0.0
H181 H 0.05998 0.02784 0.57393 0.0
H182 H 0.09166 0.04208 0.5285 0.0
H183 H 0.12513 0.02137 0.69361 0.0
H184 H 0.09336 0.00811 0.74018 0.0
H185 H 0.13779 0.00327 0.57821 0.0
H186 H 0.12568 0.06709 0.6677 0.0
H187 H 0.10864 0.09926 0.69815 0.0
H188 H 0.11014 0.11933 0.5029 0.0
H189 H 0.12592 0.08666 0.47026 0.0
C190 C 0.21825 0.03333 0.41144 0.0
C191 C 0.21435 0.04109 0.35007 0.0
C192 C 0.20256 0.03263 0.4576 0.0
C193 C 0.18265 0.03952 0.44291 0.0
C194 C 0.17899 0.04763 0.38169 0.0
C195 C 0.19468 0.04837 0.33572 0.0
C196 C 0.1654 0.0378 0.49004 0.0
C197 C 0.15405 0.05546 0.50577 0.0
C198 C 0.15979 0.0189 0.51857 0.0
C199 C 0.17116 -0.00034 0.50572 0.0
C200 C 0.17309 0.99201 0.44314 0.0
C201 C 0.18402 0.97393 0.43166 0.0
C202 C 0.19293 0.96329 0.48247 0.0
C203 C 0.19087 0.97067 0.54491 0.0
C204 C 0.17999 0.98876 0.55662 0.0
C205 C 0.07374 0.02786 0.60281 0.0
C206 C 0.07401 0.01745 0.6616 0.0
C207 C 0.092 0.03557 0.57612 0.0
C208 C 0.11086 0.03256 0.60727 0.0
C209 C 0.11081 0.02386 0.66862 0.0
C210 C 0.09255 0.01661 0.69575 0.0
C211 C 0.13061 0.03544 0.57208 0.0
C212 C 0.14252 0.01798 0.55892 0.0
C213 C 0.13694 0.05462 0.54727 0.0
C214 C 0.12653 0.07402 0.56611 0.0
C215 C 0.12179 0.07801 0.63072 0.0
C216 C 0.11234 0.09639 0.64845 0.0
C217 C 0.10797 0.11119 0.60229 0.0
C218 C 0.11309 0.10765 0.53835 0.0
C219 C 0.12219 0.08913 0.52015 0.0
H220 H 0.10082 0.1255 0.61616 0.0
H221 H 0.20138 0.94929 0.47348 0.0
H222 H 0.47403 0.18876 0.27455 0.0
H223 H 0.47559 0.16023 0.35038 0.0
H224 H 0.48003 0.20312 0.50697 0.0
H225 H 0.47893 0.23182 0.43036 0.0
H226 H 0.50706 0.17086 0.5204 0.0
H227 H 0.4322 0.17414 0.50427 0.0
H228 H 0.40045 0.17921 0.44204 0.0
H229 H 0.41862 0.13128 0.31269 0.0
H230 H 0.45061 0.12627 0.37374 0.0
H231 H 0.49909 0.09164 0.74347 0.0
H232 H 0.48635 0.12184 0.68708 0.0
H233 H 0.4827 0.08666 0.51285 0.0
H234 H 0.49558 0.0564 0.56954 0.0
H235 H 0.45276 0.11744 0.51863 0.0
H236 H 0.52622 0.11144 0.55178 0.0
H237 H 0.55748 0.10813 0.61706 0.0
H238 H 0.54275 0.1641 0.71532 0.0
H239 H 0.51119 0.16755 0.65132 0.0
C240 C 0.47527 0.19207 0.32519 0.0
C241 C 0.47623 0.21238 0.34679 0.0
C242 C 0.47601 0.17577 0.36861 0.0
C243 C 0.47751 0.17944 0.43472 0.0
C244 C 0.47874 0.19986 0.45634 0.0
C245 C 0.47805 0.21622 0.41266 0.0
C246 C 0.47807 0.16182 0.48037 0.0
C247 C 0.49503 0.15936 0.52074 0.0
C248 C 0.46254 0.14667 0.48078 0.0
C249 C 0.44347 0.14957 0.44401 0.0
C250 C 0.42933 0.16468 0.46262 0.0
C251 C 0.41136 0.16759 0.4275 0.0
C252 C 0.40746 0.1555 0.37364 0.0
C253 C 0.4216 0.14058 0.35456 0.0
C254 C 0.43963 0.13769 0.38939 0.0
C255 C 0.49436 0.09 0.69409 0.0
C256 C 0.49793 0.07149 0.66133 0.0
C257 C 0.48744 0.10742 0.6615 0.0
C258 C 0.48409 0.10674 0.59521 0.0
C259 C 0.4853 0.08765 0.5639 0.0
C260 C 0.49232 0.0702 0.59662 0.0
C261 C 0.48201 0.12612 0.55747 0.0
C262 C 0.46474 0.12895 0.51856 0.0
C263 C 0.49728 0.1417 0.55887 0.0
C264 C 0.51623 0.13962 0.59732 0.0
C265 C 0.52956 0.12295 0.5877 0.0
C266 C 0.54734 0.12105 0.62441 0.0
C267 C 0.55207 0.13586 0.67043 0.0
C268 C 0.53904 0.15261 0.67976 0.0
C269 C 0.5212 0.15454 0.64331 0.0
H270 H 0.56586 0.13438 0.69875 0.0
H271 H 0.39352 0.15773 0.34657 0.0
H272 H 0.32499 0.48559 0.28093 0.0
H273 H 0.35381 0.48819 0.3557 0.0
H274 H 0.31939 0.45398 0.49624 0.0
H275 H 0.2904 0.4515 0.42115 0.0
H276 H 0.34197 0.48806 0.54838 0.0
H277 H 0.35503 0.4285 0.41503 0.0
H278 H 0.3572 0.41141 0.3099 0.0
H279 H 0.4031 0.45461 0.24948 0.0
H280 H 0.40103 0.47206 0.35408 0.0
H281 H 0.42996 0.48371 0.74013 0.0
H282 H 0.40072 0.46989 0.68067 0.0
H283 H 0.43014 0.48724 0.50358 0.0
H284 H 0.45966 0.49986 0.56304 0.0
H285 H 0.40792 0.45763 0.47679 0.0
H286 H 0.39456 0.51912 0.59864 0.0
H287 H 0.39123 0.54056 0.69536 0.0
H288 H 0.3455 0.49955 0.77007 0.0
H289 H 0.34878 0.47769 0.67414 0.0
C290 C 0.32357 0.47875 0.32794 0.0
C291 C 0.30565 0.46824 0.34532 0.0
C292 C 0.34002 0.48021 0.37062 0.0
C293 C 0.33891 0.47106 0.43144 0.0
C294 C 0.32065 0.46112 0.44965 0.0
C295 C 0.30415 0.45965 0.40674 0.0
C296 C 0.35725 0.47108 0.47414 0.0
C297 C 0.35632 0.4811 0.53347 0.0
C298 C 0.3761 0.46244 0.45413 0.0
C299 C 0.37791 0.45152 0.39227 0.0
C300 C 0.36559 0.43432 0.37928 0.0
C301 C 0.36678 0.4246 0.31979 0.0
C302 C 0.38029 0.43191 0.27304 0.0
C303 C 0.39263 0.44897 0.28569 0.0
C304 C 0.39148 0.45876 0.3451 0.0
C305 C 0.4307 0.48332 0.68837 0.0
C306 C 0.44735 0.4924 0.65621 0.0
C307 C 0.41369 0.47595 0.65427 0.0
C308 C 0.41266 0.47824 0.58738 0.0
C309 C 0.43025 0.48538 0.55504 0.0
C310 C 0.44738 0.49235 0.58909 0.0
C311 C 0.39301 0.47507 0.55129 0.0
C312 C 0.39361 0.4644 0.49281 0.0
C313 C 0.37396 0.48362 0.57162 0.0
C314 C 0.37214 0.49662 0.62964 0.0
C315 C 0.38392 0.51458 0.63595 0.0
C316 C 0.38203 0.52682 0.69059 0.0
C317 C 0.36822 0.52138 0.73893 0.0
C318 C 0.35624 0.50371 0.73268 0.0
C319 C 0.35813 0.49138 0.67821 0.0
H320 H 0.36675 0.53089 0.78115 0.0
H321 H 0.38119 0.42437 0.227 0.0
H322 H 0.07452 0.32025 0.30164 0.0
H323 H 0.07097 0.34867 0.37782 0.0
H324 H 0.02053 0.31718 0.46927 0.0
H325 H 0.02399 0.28887 0.39215 0.0
H326 H 0.01011 0.35476 0.45413 0.0
H327 H 0.06705 0.32314 0.5452 0.0
H328 H 0.10089 0.30669 0.55548 0.0
H329 H 0.13034 0.36232 0.49467 0.0
H330 H 0.09663 0.37904 0.48309 0.0
H331 H 0.01452 0.42082 0.73108 0.0
H332 H 0.02741 0.39138 0.67072 0.0
H333 H 0.03712 0.43009 0.50657 0.0
H334 H 0.0231 0.4595 0.5662 0.0
H335 H 0.06824 0.38782 0.56727 0.0
H336 H 0.003 0.41523 0.46753 0.0
H337 H 0.96768 0.42777 0.48305 0.0
H338 H 0.95259 0.37336 0.58882 0.0
H339 H 0.98811 0.36087 0.57584 0.0
C340 C 0.06282 0.31938 0.33846 0.0
C341 C 0.04949 0.30251 0.3412 0.0
C342 C 0.06085 0.33556 0.38226 0.0
C343 C 0.04555 0.33514 0.4299 0.0
C344 C 0.03243 0.31798 0.43308 0.0
C345 C 0.03442 0.30179 0.38918 0.0
C346 C 0.04255 0.35313 0.47351 0.0
C347 C 0.02291 0.36185 0.47875 0.0
C348 C 0.05899 0.36235 0.50742 0.0
C349 C 0.07929 0.35226 0.51245 0.0
C350 C 0.08072 0.33179 0.5332 0.0
C351 C 0.09989 0.32244 0.53948 0.0
C352 C 0.11775 0.33343 0.52552 0.0
C353 C 0.11648 0.35381 0.50531 0.0
C354 C 0.09735 0.36324 0.4989 0.0
C355 C 0.02037 0.42329 0.68313 0.0
C356 C 0.01839 0.44263 0.65399 0.0
C357 C 0.02753 0.40639 0.64849 0.0
C358 C 0.03303 0.4085 0.58405 0.0
C359 C 0.03294 0.42816 0.55638 0.0
C360 C 0.02536 0.44508 0.59084 0.0
C361 C 0.03622 0.38983 0.54425 0.0
C362 C 0.05571 0.38081 0.54116 0.0
C363 C 0.01954 0.37983 0.51432 0.0
C364 C 0.99825 0.38733 0.52167 0.0
C365 C 0.99224 0.40612 0.49494 0.0
C366 C 0.97216 0.41318 0.50309 0.0
C367 C 0.95788 0.40139 0.53694 0.0
C368 C 0.96367 0.38251 0.56278 0.0
C369 C 0.98379 0.37547 0.55521 0.0
H370 H 0.94233 0.40687 0.54299 0.0
H371 H 0.13258 0.32617 0.53055 0.0
H372 H 0.82681 0.95771 0.15261 0.0
H373 H 0.85598 0.95977 0.07869 0.0
H374 H 0.81644 0.98468 0.93311 0.0
H375 H 0.78708 0.98248 0.00752 0.0
H376 H 0.84453 0.95733 0.88174 0.0
H377 H 0.84553 0.01695 0.00864 0.0
H378 H 0.84352 0.03758 0.10728 0.0
H379 H 0.89732 0.00766 0.17952 0.0
H380 H 0.8995 0.98665 0.08144 0.0
H381 H 0.92468 0.00544 0.70071 0.0
H382 H 0.89475 0.99258 0.75689 0.0
H383 H 0.93292 0.97556 0.91663 0.0
H384 H 0.96259 0.99084 0.86243 0.0
H385 H 0.90412 0.99789 0.95737 0.0
H386 H 0.90258 0.94132 0.80235 0.0
H387 H 0.90208 0.92891 0.69072 0.0
H388 H 0.84553 0.96065 0.65776 0.0
H389 H 0.84601 0.97397 0.76795 0.0
C390 C 0.82435 0.96344 0.10461 0.0
C391 C 0.80486 0.96999 0.08553 0.0
C392 C 0.84099 0.96463 0.06243 0.0
C393 C 0.83847 0.97251 0.00039 0.0
C394 C 0.81876 0.97848 0.98058 0.0
C395 C 0.80205 0.97732 0.02306 0.0
C396 C 0.85675 0.9756 0.95838 0.0
C397 C 0.8576 0.9662 0.89802 0.0
C398 C 0.87365 0.98745 0.97908 0.0
C399 C 0.87255 8e-05 0.03805 0.0
C400 C 0.85684 0.01465 0.04579 0.0
C401 C 0.85569 0.02644 0.10152 0.0
C402 C 0.87025 0.02389 0.14972 0.0
C403 C 0.88603 0.00959 0.14216 0.0
C404 C 0.88726 0.99775 0.08647 0.0
C405 C 0.92687 0.99793 0.7464 0.0
C406 C 0.94614 0.99848 0.77622 0.0
C407 C 0.90962 0.99056 0.77885 0.0
C408 C 0.91135 0.9827 0.84116 0.0
C409 C 0.93106 0.9814 0.86852 0.0
C410 C 0.94823 0.98955 0.8368 0.0
C411 C 0.89257 0.97886 0.881 0.0
C412 C 0.89142 0.98847 0.9412 0.0
C413 C 0.87514 0.96788 0.85857 0.0
C414 C 0.87437 0.95869 0.79359 0.0
C415 C 0.89003 0.94565 0.77137 0.0
C416 C 0.88978 0.93849 0.70828 0.0
C417 C 0.87376 0.9439 0.66743 0.0
C418 C 0.85791 0.95644 0.68951 0.0
C419 C 0.85818 0.96383 0.75222 0.0
H420 H 0.87362 0.93849 0.61854 0.0
H421 H 0.86933 0.03303 0.19287 0.0
H422 H 0.53956 0.78491 0.0029 0.0
H423 H 0.53722 0.81455 0.93012 0.0
H424 H 0.55055 0.85521 0.08757 0.0
H425 H 0.55271 0.82573 0.15981 0.0
H426 H 0.51726 0.86757 0.02105 0.0
H427 H 0.58605 0.84316 0.96629 0.0
H428 H 0.61067 0.81756 0.92549 0.0
H429 H 0.57819 0.81478 0.74735 0.0
H430 H 0.5532 0.84012 0.78744 0.0
H431 H 0.51974 0.961 0.86319 0.0
H432 H 0.53342 0.93216 0.92497 0.0
H433 H 0.53035 0.89378 0.75705 0.0
H434 H 0.51785 0.92284 0.6951 0.0
H435 H 0.55876 0.87925 0.82534 0.0
H436 H 0.49014 0.89777 0.86719 0.0
H437 H 0.46068 0.91951 0.89662 0.0
H438 H 0.48578 0.92827 0.0843 0.0
H439 H 0.51562 0.90686 0.05556 0.0
C440 C 0.54217 0.80021 0.0215 0.0
C441 C 0.54635 0.80316 0.08673 0.0
C442 C 0.54092 0.81712 0.97995 0.0
C443 C 0.54388 0.8372 0.00311 0.0
C444 C 0.54825 0.83994 0.06836 0.0
C445 C 0.54952 0.82311 0.10963 0.0
C446 C 0.54128 0.85558 0.9611 0.0
C447 C 0.52663 0.87029 0.97892 0.0
C448 C 0.55261 0.85865 0.9039 0.0
C449 C 0.56765 0.84339 0.88015 0.0
C450 C 0.58405 0.83696 0.91865 0.0
C451 C 0.59809 0.82251 0.89559 0.0
C452 C 0.59596 0.81451 0.83394 0.0
C453 C 0.57981 0.82096 0.79514 0.0
C454 C 0.56571 0.83537 0.818 0.0
C455 C 0.5233 0.94679 0.83867 0.0
C456 C 0.51827 0.94434 0.7739 0.0
C457 C 0.53061 0.93009 0.87436 0.0
C458 C 0.53234 0.91047 0.84639 0.0
C459 C 0.52914 0.90859 0.78024 0.0
C460 C 0.52217 0.92533 0.74452 0.0
C461 C 0.53519 0.89163 0.88657 0.0
C462 C 0.54961 0.87672 0.86802 0.0
C463 C 0.52299 0.88784 0.94164 0.0
C464 C 0.50526 0.90097 0.95891 0.0
C465 C 0.48949 0.90452 0.91452 0.0
C466 C 0.47271 0.91675 0.9311 0.0
C467 C 0.4714 0.92533 0.99222 0.0
C468 C 0.48686 0.92167 0.0369 0.0
C469 C 0.50372 0.90951 0.02048 0.0
H470 H 0.45836 0.93477 0.00502 0.0
H471 H 0.60686 0.80334 0.81618 0.0
H472 H 0.72956 0.51748 0.01157 0.0
H473 H 0.69984 0.51798 0.93925 0.0
H474 H 0.67021 0.56246 0.06128 0.0
H475 H 0.69981 0.56178 0.13356 0.0
H476 H 0.64536 0.53006 0.03365 0.0
H477 H 0.69102 0.57494 0.91134 0.0
H478 H 0.72304 0.58269 0.85292 0.0
H479 H 0.71202 0.53206 0.72609 0.0
H480 H 0.68012 0.52382 0.78424 0.0
H481 H 0.55687 0.52504 0.84551 0.0
H482 H 0.58513 0.54139 0.90362 0.0
H483 H 0.62739 0.51942 0.75916 0.0
H484 H 0.59892 0.5072 0.69655 0.0
H485 H 0.64602 0.54571 0.80203 0.0
H486 H 0.60945 0.49362 0.92326 0.0
H487 H 0.58016 0.47809 0.98066 0.0
H488 H 0.57713 0.53034 0.10556 0.0
H489 H 0.60625 0.54625 0.0484 0.0
C490 C 0.71676 0.52753 0.02226 0.0
C491 C 0.71686 0.53962 0.07784 0.0
C492 C 0.69984 0.52789 0.98086 0.0
C493 C 0.68278 0.54041 -0.00562 0.0
C494 C 0.68316 0.55273 0.0496 0.0
C495 C 0.70006 0.55237 0.09082 0.0
C496 C 0.66391 0.53962 0.95399 0.0
C497 C 0.64542 0.53367 0.983 0.0
C498 C 0.66408 0.54354 0.88745 0.0
C499 C 0.68323 0.5487 0.85247 0.0
C500 C 0.69549 0.56538 0.87127 0.0
C501 C 0.71362 0.56987 0.83815 0.0
C502 C 0.71958 0.55786 0.78591 0.0
C503 C 0.7074 0.54135 0.76657 0.0
C504 C 0.68929 0.53678 0.79955 0.0
C505 C 0.57196 0.52541 0.82394 0.0
C506 C 0.5755 0.51549 0.76538 0.0
C507 C 0.58844 0.53382 0.85872 0.0
C508 C 0.60895 0.53085 0.83829 0.0
C509 C 0.61208 0.52214 0.77745 0.0
C510 C 0.59562 0.51502 0.74119 0.0
C511 C 0.62723 0.53504 0.88067 0.0
C512 C 0.64571 0.5419 0.85246 0.0
C513 C 0.6274 0.53064 0.94731 0.0
C514 C 0.60977 0.52123 0.98103 0.0
C515 C 0.60242 0.50183 0.9627 0.0
C516 C 0.58587 0.49297 -0.0048 0.0
C517 C 0.57674 0.50326 0.04656 0.0
C518 C 0.58416 0.52242 0.06564 0.0
C519 C 0.60067 0.53137 0.0332 0.0
H520 H 0.56395 0.49636 0.0717 0.0
H521 H 0.73361 0.56136 0.76036 0.0
H522 H 0.95425 0.69823 0.13173 0.0
H523 H 0.95335 0.66962 0.05533 0.0
H524 H 0.00459 0.69595 0.95321 0.0
H525 H 0.00531 0.72472 0.02953 0.0
H526 H 0.97538 0.67933 0.87082 0.0
H527 H 0.01339 0.65817 0.05682 0.0
H528 H 0.01793 0.65376 0.17305 0.0
H529 H 0.96505 0.61447 0.17998 0.0
H530 H 0.96009 0.61885 0.06377 0.0
H531 H 0.02086 0.59631 0.71475 0.0
H532 H 0.00774 0.62581 0.76999 0.0
H533 H 0.97026 0.58653 0.88895 0.0
H534 H 0.98562 0.55637 0.83653 0.0
H535 H 0.98715 0.61014 0.96198 0.0
H536 H 0.9512 0.62932 0.7691 0.0
H537 H 0.94791 0.63439 0.6526 0.0
H538 H 0.9969 0.67846 0.65676 0.0
H539 H 0.00067 0.67332 0.77298 0.0
C540 C 0.96518 0.69793 0.09259 0.0
C541 C 0.97995 0.71344 0.08651 0.0
C542 C 0.96467 0.68162 0.049 0.0
C543 C 0.97903 0.68048 -0.00121 0.0
C544 C 0.99334 0.69648 0.99143 0.0
C545 C 0.99384 0.71282 0.03514 0.0
C546 C 0.98 0.66196 0.95686 0.0
C547 C 0.97798 0.66416 0.89048 0.0
C548 C 0.98296 0.64213 0.98251 0.0
C549 C 0.98629 0.63895 0.05185 0.0
C550 C 0.00271 0.64864 0.08322 0.0
C551 C 0.00535 0.64615 0.14905 0.0
C552 C 0.99176 0.63388 0.1839 0.0
C553 C 0.97556 0.62398 0.15291 0.0
C554 C 0.97284 0.62643 0.08707 0.0
C555 C 0.00928 0.59388 0.75128 0.0
C556 C 0.00438 0.57392 0.77164 0.0
C557 C 0.00145 0.61101 0.78269 0.0
C558 C 0.98752 0.60888 0.83359 0.0
C559 C 0.981 0.58884 0.85 0.0
C560 C 0.98945 0.5715 0.81941 0.0
C561 C 0.98242 0.62716 0.87467 0.0
C562 C 0.98391 0.62506 0.9415 0.0
C563 C 0.97897 0.64711 0.84911 0.0
C564 C 0.9763 0.65074 0.77958 0.0
C565 C 0.96135 0.63993 0.74498 0.0
C566 C 0.95939 0.64286 0.67905 0.0
C567 C 0.97223 0.65671 0.64726 0.0
C568 C 0.98697 0.66774 0.68141 0.0
C569 C 0.98897 0.66486 0.74735 0.0
H570 H 0.97072 0.65892 0.5962 0.0
H571 H 0.9938 0.632 0.2349 0.0
H572 H 0.01989 0.21841 0.38685 0.0
H573 H 0.00966 0.18824 0.44624 0.0
H574 H 0.07337 0.17263 0.47516 0.0
H575 H 0.08347 0.20213 0.4101 0.0
H576 H 0.05662 0.144 0.41354 0.0
H577 H 0.03441 0.18025 0.60492 0.0
H578 H 0.01574 0.2068 0.66585 0.0
H579 H 0.95879 0.18635 0.58505 0.0
H580 H 0.97711 0.15976 0.52349 0.0
H581 H 0.03694 0.05522 0.59866 0.0
H582 H 0.04719 0.0872 0.54836 0.0
H583 H 0.98477 0.09746 0.48799 0.0
H584 H 0.97438 0.06527 0.53865 0.0
H585 H -0.00027 0.12814 0.56334 0.0
H586 H 0.0216 0.08888 0.384 0.0
H587 H 0.03981 0.05953 0.33624 0.0
H588 H 0.09747 0.085 0.39499 0.0
H589 H 0.07951 0.11411 0.44563 0.0
C590 C 0.0317 0.20926 0.40937 0.0
C591 C 0.0524 0.21238 0.39388 0.0
C592 C 0.02584 0.19186 0.44333 0.0
C593 C 0.04074 0.17794 0.46471 0.0
C594 C 0.06161 0.18303 0.45833 0.0
C595 C 0.06743 0.20007 0.42229 0.0
C596 C 0.03472 0.15665 0.4808 0.0
C597 C 0.04448 0.14056 0.44748 0.0
C598 C 0.01814 0.15212 0.52228 0.0
C599 C 0.00716 0.16813 0.55931 0.0
C600 C 0.01792 0.18151 0.5999 0.0
C601 C 0.00739 0.19653 0.63464 0.0
C602 C 0.9861 0.19829 0.62922 0.0
C603 C 0.97527 0.18497 0.58924 0.0
C604 C 0.98572 0.1699 0.55457 0.0
C605 C 0.02562 0.06366 0.57167 0.0
C606 C 0.00491 0.05782 0.57231 0.0
C607 C 0.03144 0.08209 0.54366 0.0
C608 C 0.01664 0.09467 0.51522 0.0
C609 C 0.9963 0.08792 0.51032 0.0
C610 C 0.99046 0.06951 0.53861 0.0
C611 C 0.02201 0.11579 0.49757 0.0
C612 C 0.01197 0.13173 0.52983 0.0
C613 C 0.03831 0.12015 0.45523 0.0
C614 C 0.04919 0.10355 0.41986 0.0
C615 C 0.03816 0.08816 0.38745 0.0
C616 C 0.04842 0.07147 0.36019 0.0
C617 C 0.06978 0.07027 0.36337 0.0
C618 C 0.08092 0.08583 0.39336 0.0
C619 C 0.0707 0.1024 0.42149 0.0
H620 H 0.07772 0.05739 0.342 0.0
H621 H 0.97798 0.20995 0.65607 0.0
H622 H 0.2991 0.01692 0.39497 0.0
H623 H 0.32936 0.0082 0.455 0.0
H624 H 0.34089 0.07254 0.49015 0.0
H625 H 0.31162 0.08122 0.42252 0.0
H626 H 0.37092 0.05922 0.43357 0.0
H627 H 0.33518 0.03082 0.61447 0.0
H628 H 0.30906 0.00983 0.6696 0.0
H629 H 0.33333 0.95542 0.58179 0.0
H630 H 0.35945 0.97608 0.52572 0.0
H631 H 0.46271 0.03714 0.60188 0.0
H632 H 0.42965 0.04782 0.56088 0.0
H633 H 0.41999 0.98749 0.48132 0.0
H634 H 0.45321 0.97654 0.52308 0.0
H635 H 0.38967 -0.00091 0.56574 0.0
H636 H 0.42371 0.02916 0.37973 0.0
H637 H 0.45145 0.05043 0.33377 0.0
H638 H 0.43065 0.10193 0.44438 0.0
H639 H 0.40292 0.0812 0.48995 0.0
C640 C 0.30739 0.02915 0.41874 0.0
C641 C 0.30325 0.04969 0.40402 0.0
C642 C 0.32484 0.02415 0.45341 0.0
C643 C 0.3377 0.03969 0.47703 0.0
C644 C 0.33141 0.06027 0.47156 0.0
C645 C 0.31447 0.06528 0.43406 0.0
C646 C 0.35926 0.03481 0.49375 0.0
C647 C 0.37484 0.04632 0.46386 0.0
C648 C 0.36469 0.01752 0.53104 0.0
C649 C 0.34923 0.00503 0.56576 0.0
C650 C 0.3349 0.01439 0.60679 0.0
C651 C 0.3201 0.00254 0.63821 0.0
C652 C 0.31953 0.98131 0.62915 0.0
C653 C 0.3338 0.97186 0.58884 0.0
C654 C 0.34865 0.98362 0.55738 0.0
C655 C 0.45411 0.02642 0.57286 0.0
C656 C 0.4605 0.00597 0.56594 0.0
C657 C 0.43506 0.0325 0.54995 0.0
C658 C 0.42235 0.01834 0.51873 0.0
C659 C 0.42958 0.99853 0.50593 0.0
C660 C 0.44861 0.99239 0.52917 0.0
C661 C 0.40079 0.02359 0.50601 0.0
C662 C 0.3854 0.01205 0.53616 0.0
C663 C 0.39547 0.0409 0.46962 0.0
C664 C 0.41125 0.05369 0.43804 0.0
C665 C 0.42503 0.04511 0.39364 0.0
C666 C 0.44078 0.05709 0.36764 0.0
C667 C 0.44287 0.07761 0.38586 0.0
C668 C 0.42908 0.0862 0.4296 0.0
C669 C 0.41325 0.07438 0.45528 0.0
H670 H 0.45518 0.08683 0.36625 0.0
H671 H 0.30802 0.97217 0.65341 0.0
H672 H 0.49778 0.29786 0.40178 0.0
H673 H 0.50471 0.32759 0.46831 0.0
H674 H 0.44013 0.34235 0.47025 0.0
H675 H 0.43345 0.31311 0.40008 0.0
H676 H 0.45998 0.3706 0.41228 0.0
H677 H 0.4704 0.33691 0.61276 0.0
H678 H 0.48404 0.31082 0.68651 0.0
H679 H 0.54558 0.32967 0.64191 0.0
H680 H 0.53232 0.35572 0.56734 0.0
H681 H 0.47956 0.4643 0.58269 0.0
H682 H 0.4677 0.43137 0.54178 0.0
H683 H 0.52986 0.41506 0.49244 0.0
H684 H 0.54185 0.44819 0.53156 0.0
H685 H 0.50968 0.3882 0.58266 0.0
H686 H 0.49934 0.41822 0.37381 0.0
H687 H 0.48616 0.44503 0.30159 0.0
H688 H 0.42475 0.43282 0.36626 0.0
H689 H 0.43757 0.40616 0.43892 0.0
C690 C 0.48494 0.30674 0.41971 0.0
C691 C 0.46516 0.30348 0.39569 0.0
C692 C 0.4889 0.32381 0.45783 0.0
C693 C 0.47296 0.3374 0.47356 0.0
C694 C 0.45267 0.33215 0.45806 0.0
C695 C 0.44879 0.31535 0.41863 0.0
C696 C 0.47798 0.35882 0.49086 0.0
C697 C 0.47042 0.37439 0.45083 0.0
C698 C 0.49231 0.3638 0.53912 0.0
C699 C 0.50034 0.3482 0.58416 0.0
C700 C 0.48684 0.3354 0.61835 0.0
C701 C 0.49451 0.32064 0.66038 0.0
C702 C 0.51566 0.31857 0.66881 0.0
C703 C 0.52919 0.3313 0.63535 0.0
C704 C 0.52161 0.34609 0.59331 0.0
C705 C 0.49059 0.45418 0.56042 0.0
C706 C 0.51165 0.45873 0.5614 0.0
C707 C 0.48382 0.43526 0.53773 0.0
C708 C 0.49805 0.42077 0.51571 0.0
C709 C 0.51878 0.42606 0.51032 0.0
C710 C 0.52553 0.44505 0.53221 0.0
C711 C 0.49155 0.39951 0.50439 0.0
C712 C 0.49897 0.38416 0.54509 0.0
C713 C 0.47714 0.39463 0.45687 0.0
C714 C 0.46939 0.41031 0.41194 0.0
C715 C 0.48302 0.42135 0.37266 0.0
C716 C 0.47561 0.43652 0.3316 0.0
C717 C 0.4546 0.44071 0.32933 0.0
C718 C 0.44099 0.42965 0.36789 0.0
C719 C 0.4483 0.41446 0.40891 0.0
H720 H 0.44887 0.45249 0.29766 0.0
H721 H 0.52157 0.30712 0.70133 0.0
H722 H 0.21904 0.50116 0.40686 0.0
H723 H 0.18902 0.50701 0.47399 0.0
H724 H 0.17812 0.44175 0.48239 0.0
H725 H 0.20802 0.43602 0.41403 0.0
H726 H 0.14872 0.46078 0.41874 0.0
H727 H 0.18056 0.4704 0.62113 0.0
H728 H 0.20581 0.48374 0.69823 0.0
H729 H 0.18643 0.54534 0.65864 0.0
H730 H 0.16119 0.53239 0.58079 0.0
H731 H 0.05421 0.478 0.59199 0.0
H732 H 0.0868 0.46661 0.54713 0.0
H733 H 0.10236 0.52917 0.50079 0.0
H734 H 0.06942 0.54063 0.54327 0.0
H735 H 0.12886 0.50894 0.5917 0.0
H736 H 0.0999 0.49945 0.38247 0.0
H737 H 0.07407 0.48643 0.30665 0.0
H738 H 0.08795 0.42456 0.36181 0.0
H739 H 0.11377 0.43726 0.43839 0.0
C740 C 0.21107 0.48804 0.42687 0.0
C741 C 0.21561 0.4682 0.40545 0.0
C742 C 0.1938 0.49137 0.46491 0.0
C743 C 0.18115 0.4748 0.48217 0.0
C744 C 0.18763 0.45472 0.46912 0.0
C745 C 0.20485 0.45142 0.43086 0.0
C746 C 0.15949 0.47873 0.49896 0.0
C747 C 0.14436 0.47089 0.45773 0.0
C748 C 0.15388 0.4925 0.54812 0.0
C749 C 0.16906 0.50041 0.59483 0.0
C750 C 0.18178 0.4868 0.62851 0.0
C751 C 0.19607 0.4943 0.67245 0.0
C752 C 0.19775 0.51538 0.68326 0.0
C753 C 0.18511 0.52901 0.65024 0.0
C754 C 0.17077 0.5216 0.60631 0.0
C755 C 0.06397 0.48919 0.56891 0.0
C756 C 0.05933 0.5102 0.57171 0.0
C757 C 0.08274 0.48269 0.54411 0.0
C758 C 0.097 0.49717 0.52214 0.0
C759 C 0.09152 0.51787 0.51839 0.0
C760 C 0.07266 0.52434 0.54227 0.0
C761 C 0.11842 0.49108 0.51135 0.0
C762 C 0.13336 0.49859 0.5535 0.0
C763 C 0.12388 0.47702 0.46317 0.0
C764 C 0.10864 0.4693 0.41645 0.0
C765 C 0.09736 0.48307 0.37866 0.0
C766 C 0.08275 0.47576 0.33549 0.0
C767 C 0.07934 0.45468 0.32949 0.0
C768 C 0.09061 0.44088 0.3665 0.0
C769 C 0.10527 0.44813 0.40969 0.0
H770 H 0.068 0.44904 0.29611 0.0
H771 H 0.20883 0.52115 0.71728 0.0
H772 H 0.98811 0.78851 0.00993 0.0
H773 H 0.99722 0.8174 0.94161 0.0
H774 H 0.94127 0.8481 -0.00478 0.0
H775 H 0.93104 0.81839 0.0587 0.0
H776 H 0.95761 0.85721 0.8692 0.0
H777 H 0.99197 0.8753 0.10646 0.0
H778 H 0.01411 0.86292 0.19372 0.0
H779 H 0.04588 0.8234 0.06294 0.0
H780 H 0.02507 0.83676 0.97402 0.0
H781 H 0.98103 0.96119 0.8355 0.0
H782 H 0.96857 0.93007 0.88787 0.0
H783 H 0.03056 0.90683 0.89395 0.0
H784 H 0.04305 0.93839 0.84594 0.0
H785 H 0.01222 0.89331 0.99018 0.0
H786 H 0.9967 0.89512 0.76899 0.0
H787 H 0.98265 0.90819 0.66906 0.0
H788 H 0.92161 0.90491 0.74726 0.0
H789 H 0.93561 0.89201 0.84876 0.0
C790 C 0.97712 0.80082 0.0042 0.0
C791 C 0.95925 0.80166 0.04199 0.0
C792 C 0.98273 0.81765 0.9669 0.0
C793 C 0.97071 0.83542 0.96816 0.0
C794 C 0.95113 0.83474 -0.00406 0.0
C795 C 0.94519 0.81766 0.03152 0.0
C796 C 0.97905 0.85527 0.94678 0.0
C797 C 0.96955 0.86514 0.89555 0.0
C798 C 0.99488 0.86545 0.98059 0.0
C799 C 0.00614 0.85608 0.03433 0.0
C800 C 0.00345 0.86371 0.09658 0.0
C801 C 0.016 0.85679 0.14614 0.0
C802 C 0.031 0.84199 0.13435 0.0
C803 C 0.03393 0.83452 0.0724 0.0
C804 C 0.02183 0.84182 0.0223 0.0
C805 C 0.99204 0.94994 0.85127 0.0
C806 C 0.01296 0.95225 0.83694 0.0
C807 C 0.98489 0.93193 0.8798 0.0
C808 C 0.99857 0.91585 0.89304 0.0
C809 C 0.01967 0.91893 0.88383 0.0
C810 C 0.02681 0.93701 0.85636 0.0
C811 C 0.99104 0.89526 0.91169 0.0
C812 C 0.00035 0.88543 0.9634 0.0
C813 C 0.97576 0.88476 0.87646 0.0
C814 C 0.96722 0.89302 0.81659 0.0
C815 C 0.98031 0.89749 0.76511 0.0
C816 C 0.97229 0.9049 0.70802 0.0
C817 C 0.95113 0.90784 0.70164 0.0
C818 C 0.93798 0.90303 0.75234 0.0
C819 C 0.94596 0.89563 0.80972 0.0
H820 H 0.94487 0.91374 0.65754 0.0
H821 H 0.04055 0.83655 0.173 0.0
H822 H 0.70056 0.93072 0.04333 0.0
H823 H 0.67127 0.93808 0.97423 0.0
H824 H 0.69164 0.00072 0.95576 0.0
H825 H 0.72117 0.99328 0.02356 0.0
H826 H 0.65467 0.99119 0.03587 0.0
H827 H 0.6841 0.98152 0.82824 0.0
H828 H 0.70249 0.96309 0.74261 0.0
H829 H 0.65653 0.91586 0.74435 0.0
H830 H 0.638 0.93388 0.83073 0.0
H831 H 0.57194 0.03885 0.88168 0.0
H832 H 0.60347 0.02556 0.92699 0.0
H833 H 0.58419 0.96377 0.88301 0.0
H834 H 0.55311 0.9772 0.83373 0.0
H835 H 0.62054 0.97096 0.83386 0.0
H836 H 0.59056 0.981 0.04053 0.0
H837 H 0.57183 -1e-05 0.12434 0.0
H838 H 0.61873 0.04628 0.12553 0.0
H839 H 0.63763 0.02771 0.04115 0.0
C840 C 0.69953 0.94563 0.02074 0.0
C841 C 0.71292 0.9615 0.03864 0.0
C842 C 0.68276 0.94986 0.98168 0.0
C843 C 0.67929 0.96998 0.96093 0.0
C844 C 0.69422 0.9851 0.9714 0.0
C845 C 0.71114 0.9808 0.00964 0.0
C846 C 0.65829 0.97622 0.94461 0.0
C847 C 0.64723 0.98706 0.9913 0.0
C848 C 0.64856 0.96996 0.8878 0.0
C849 C 0.65981 0.95892 0.83658 0.0
C850 C 0.67805 0.96707 0.81098 0.0
C851 C 0.68846 0.95674 0.76213 0.0
C852 C 0.68073 0.93828 0.73821 0.0
C853 C 0.66253 0.93014 0.76302 0.0
C854 C 0.65206 0.94041 0.8119 0.0
C855 C 0.57407 0.02239 0.88359 0.0
C856 C 0.56004 0.00905 0.85413 0.0
C857 C 0.59211 0.01478 0.90969 0.0
C858 C 0.59618 0.99366 0.90835 0.0
C859 C 0.58133 0.98014 0.88435 0.0
C860 C 0.56337 0.98779 0.85733 0.0
C861 C 0.61686 0.98618 0.92494 0.0
C862 C 0.62787 0.97499 0.87866 0.0
C863 C 0.62658 0.99201 0.98246 0.0
C864 C 0.61546 0.003 0.03426 0.0
C865 C 0.59684 0.99527 0.05847 0.0
C866 C 0.5862 0.00596 0.1061 0.0
C867 C 0.59407 0.02434 0.13018 0.0
C868 C 0.61265 0.03203 0.10685 0.0
C869 C 0.62336 0.02141 0.05922 0.0
H870 H 0.58579 0.03261 0.16696 0.0
H871 H 0.6888 0.93031 0.70033 0.0
H872 H 0.58544 0.69726 0.04478 0.0
H873 H 0.57738 0.66839 0.97426 0.0
H874 H 0.51535 0.69039 0.95613 0.0
H875 H 0.52349 0.71955 0.02509 0.0
H876 H 0.5265 0.65179 0.03772 0.0
H877 H 0.53088 0.68372 0.83105 0.0
H878 H 0.54748 0.70304 0.7438 0.0
H879 H 0.59454 0.65721 0.73002 0.0
H880 H 0.57838 0.63775 0.81792 0.0
H881 H 0.47779 0.56673 0.89222 0.0
H882 H 0.49023 0.59926 0.93424 0.0
H883 H 0.5514 0.58472 0.86883 0.0
H884 H 0.53857 0.55324 0.82142 0.0
H885 H 0.54125 0.6203 0.8267 0.0
H886 H 0.53809 0.58829 0.03233 0.0
H887 H 0.5222 0.56827 0.11936 0.0
H888 H 0.47472 0.61349 0.13835 0.0
H889 H 0.49019 0.63366 0.05084 0.0
C890 C 0.57053 0.69666 0.02206 0.0
C891 C 0.55503 0.71044 0.0402 0.0
C892 C 0.56591 0.68015 0.98216 0.0
C893 C 0.54575 0.67731 0.96084 0.0
C894 C 0.53101 0.69253 0.972 0.0
C895 C 0.53572 0.70922 0.01098 0.0
C896 C 0.539 0.65656 0.94339 0.0
C897 C 0.52941 0.64491 0.99127 0.0
C898 C 0.54364 0.64761 0.88381 0.0
C899 C 0.55357 0.65943 0.8317 0.0
C900 C 0.54493 0.6779 0.81005 0.0
C901 C 0.55421 0.68884 0.76028 0.0
C902 C 0.57209 0.6814 0.73154 0.0
C903 C 0.58071 0.66298 0.75242 0.0
C904 C 0.57149 0.65199 0.80218 0.0
C905 C 0.49402 0.57016 0.88871 0.0
C906 C 0.50733 0.55713 0.85477 0.0
C907 C 0.50114 0.58876 0.91284 0.0
C908 C 0.52179 0.59438 0.90494 0.0
C909 C 0.53542 0.58066 0.87558 0.0
C910 C 0.5282 0.5623 0.85012 0.0
C911 C 0.52864 0.61535 0.92111 0.0
C912 C 0.53834 0.62706 0.87328 0.0
C913 C 0.52436 0.62432 0.9812 0.0
C914 C 0.51523 0.61242 0.03471 0.0
C915 C 0.52421 0.59391 0.05485 0.0
C916 C 0.51528 0.58254 0.10428 0.0
C917 C 0.49744 0.58958 0.13427 0.0
C918 C 0.48854 0.60806 0.11506 0.0
C919 C 0.4974 0.61948 0.06561 0.0
H920 H 0.49053 0.58074 0.17248 0.0
H921 H 0.57924 0.68988 0.69296 0.0
H922 H 0.79289 0.53203 0.98648 0.0
H923 H 0.82112 0.52642 0.91167 0.0
H924 H 0.85306 0.57845 0.9913 0.0
H925 H 0.82416 0.58514 0.0618 0.0
H926 H 0.86966 0.56955 0.88173 0.0
H927 H 0.84728 0.52795 0.06954 0.0
H928 H 0.82348 0.50391 0.12382 0.0
H929 H 0.83022 0.46099 0.96965 0.0
H930 H 0.85341 0.48494 0.91361 0.0
H931 H 0.97162 0.53039 0.89303 0.0
H932 H 0.93864 0.54492 0.92813 0.0
H933 H 0.90777 0.49019 0.86241 0.0
H934 H 0.94006 0.4756 0.8309 0.0
H935 H 0.89044 0.50092 0.96032 0.0
H936 H 0.91184 0.53795 0.77119 0.0
H937 H 0.93566 0.55947 0.70824 0.0
H938 H 0.93124 0.60723 0.84899 0.0
H939 H 0.90753 0.58596 0.91302 0.0
C940 C 0.80522 0.54317 0.98474 0.0
C941 C 0.80691 0.55843 0.03193 0.0
C942 C 0.82155 0.53975 0.94258 0.0
C943 C 0.83974 0.55115 0.94928 0.0
C944 C 0.83946 0.56901 0.9867 0.0
C945 C 0.82287 0.57286 0.02708 0.0
C946 C 0.85987 0.54226 0.93132 0.0
C947 C 0.87419 0.55449 0.89852 0.0
C948 C 0.86585 0.52254 0.95298 0.0
C949 C 0.85184 0.50833 0.98716 0.0
C950 C 0.84357 0.51342 0.04724 0.0
C951 C 0.83021 0.49985 0.07823 0.0
C952 C 0.82542 0.48097 0.05031 0.0
C953 C 0.8339 0.47563 0.99119 0.0
C954 C 0.84706 0.48923 0.95967 0.0
C955 C 0.95776 0.52151 0.88709 0.0
C956 C 0.95846 0.50213 0.85798 0.0
C957 C 0.93894 0.52981 0.90666 0.0
C958 C 0.92061 0.51891 0.89599 0.0
C959 C 0.9216 0.499 0.87101 0.0
C960 C 0.94026 0.4906 0.85317 0.0
C961 C 0.90015 0.52791 0.90914 0.0
C962 C 0.88588 0.51583 0.94225 0.0
C963 C 0.89414 0.54739 0.88602 0.0
C964 C 0.90804 0.56034 0.84702 0.0
C965 C 0.91599 0.55303 0.78872 0.0
C966 C 0.92944 0.56516 0.75285 0.0
C967 C 0.93492 0.58467 0.77453 0.0
C968 C 0.92692 0.59214 0.83209 0.0
C969 C 0.91347 0.58007 0.8682 0.0
H970 H 0.94544 0.59391 0.74669 0.0
H971 H 0.81514 0.47047 0.07451 0.0
H972 H 0.0302 0.18129 0.22393 0.0
H973 H 0.0278 0.15248 0.15032 0.0
H974 H 0.06873 0.18315 0.01934 0.0
H975 H 0.07177 0.21218 0.09469 0.0
H976 H 0.03231 0.16312 0.9624 0.0
H977 H 0.08842 0.1471 0.10541 0.0
H978 H 0.10408 0.14321 0.21197 0.0
H979 H 0.0586 0.09834 0.26188 0.0
H980 H 0.04258 0.10205 0.15632 0.0
H981 H 0.041 0.07419 0.7716 0.0
H982 H 0.05216 0.10319 0.83789 0.0
H983 H 0.02188 0.07628 0.00128 0.0
H984 H 0.01073 0.04735 0.93476 0.0
H985 H 0.05633 0.09517 0.03832 0.0
H986 H 0.99817 0.11143 0.91266 0.0
H987 H 0.97717 0.11548 0.81572 0.0
H988 H 0.01989 0.15985 0.74243 0.0
H989 H 0.04139 0.15576 0.83855 0.0
C990 C 0.03879 0.182 0.17956 0.0
C991 C 0.05157 0.19893 0.16591 0.0
C992 C 0.03734 0.16547 0.13742 0.0
C993 C 0.04839 0.16543 0.07987 0.0
C994 C 0.06021 0.18279 0.06387 0.0
C995 C 0.06186 0.1994 0.1067 0.0
C996 C 0.04767 0.14695 0.03786 0.0
C997 C 0.03806 0.14835 0.97812 0.0
C998 C 0.05429 0.12749 0.05976 0.0
C999 C 0.06424 0.12494 0.12299 0.0
C1000 C 0.08171 0.13646 0.13929 0.0
C1001 C 0.09067 0.13426 0.19957 0.0
C1002 C 0.08235 0.12051 0.24384 0.0
C1003 C 0.06509 0.10891 0.22777 0.0
C1004 C 0.05608 0.11104 0.16764 0.0
C1005 C 0.03754 0.07407 0.82232 0.0
C1006 C 0.02548 0.0583 0.84858 0.0
C1007 C 0.04363 0.0908 0.85998 0.0
C1008 C 0.03761 0.09214 0.92451 0.0
C1009 C 0.02675 0.07565 0.95175 0.0
C1010 C 0.02055 0.059 0.91393 0.0
C1011 C 0.04116 0.11131 0.96221 0.0
C1012 C 0.05107 0.11 0.02157 0.0
C1013 C 0.03427 0.13077 0.94075 0.0
C1014 C 0.02159 0.13303 0.88235 0.0
C1015 C 0.00325 0.12185 0.87551 0.0
C1016 C 0.99122 0.12419 0.82078 0.0
C1017 C 0.99724 0.13785 0.7728 0.0
C1018 C 0.01529 0.14922 0.77953 0.0
C1019 C 0.02742 0.14688 0.83411 0.0
H1020 H 0.98789 0.13969 0.73051 0.0
H1021 H 0.08927 0.11885 0.29051 0.0
H1022 H 0.30209 0.05782 0.09655 0.0
H1023 H 0.33086 0.05345 0.02093 0.0
H1024 H 0.36876 0.03059 0.17331 0.0
H1025 H 0.3402 0.03334 0.2472 0.0
H1026 H 0.38773 0.06275 0.09524 0.0
H1027 H 0.35479 0.99754 0.08457 0.0
H1028 H 0.32623 0.97324 0.0698 0.0
H1029 H 0.31815 0.99447 0.87718 0.0
H1030 H 0.34648 0.01921 0.8913 0.0
H1031 H 0.47296 0.01647 0.9246 0.0
H1032 H 0.44517 0.02704 -0.00258 0.0
H1033 H 0.40463 0.03401 0.8361 0.0
H1034 H 0.43205 0.02278 0.76436 0.0
H1035 H 0.38678 0.01152 0.91998 0.0
H1036 H 0.42387 0.07561 0.93298 0.0
H1037 H 0.45362 0.09798 0.9541 0.0
H1038 H 0.45557 0.0769 0.14846 0.0
H1039 H 0.42603 0.05417 0.12826 0.0
C1040 C 0.31645 0.05165 0.11379 0.0
C1041 C 0.31879 0.04656 0.1788 0.0
C1042 C 0.33295 0.04932 0.07064 0.0
C1043 C 0.35212 0.0421 0.09185 0.0
C1044 C 0.35432 0.03663 0.15609 0.0
C1045 C 0.33785 0.03842 0.1985 0.0
C1046 C 0.36989 0.03961 0.04744 0.0
C1047 C 0.38759 0.05155 0.05682 0.0
C1048 C 0.36977 0.02496 -0.00232 0.0
C1049 C 0.35248 0.01047 0.98936 0.0
C1050 C 0.34671 0.99726 0.0394 0.0
C1051 C 0.33062 0.98335 0.03108 0.0
C1052 C 0.32031 0.98238 0.97268 0.0
C1053 C 0.3261 0.9953 0.92247 0.0
C1054 C 0.34216 0.00928 0.93062 0.0
C1055 C 0.45827 0.02088 0.90485 0.0
C1056 C 0.45466 0.01902 0.8389 0.0
C1057 C 0.44234 0.0269 0.94643 0.0
C1058 C 0.42264 0.03141 0.92254 0.0
C1059 C 0.41954 0.03056 0.85611 0.0
C1060 C 0.43528 0.0243 0.81497 0.0
C1061 C 0.40469 0.03509 0.9661 0.0
C1062 C 0.38695 0.02309 0.95729 0.0
C1063 C 0.40497 0.04952 0.01692 0.0
C1064 C 0.42287 0.06303 0.02886 0.0
C1065 C 0.43077 0.0756 0.98004 0.0
C1066 C 0.44758 0.08837 0.99189 0.0
C1067 C 0.45652 0.08882 0.05252 0.0
C1068 C 0.44866 0.07651 0.10148 0.0
C1069 C 0.43188 0.06369 0.08986 0.0
H1070 H 0.46951 0.09874 0.06161 0.0
H1071 H 0.30788 0.97155 0.96626 0.0
H1072 H 0.4962 0.30718 0.13512 0.0
H1073 H 0.50017 0.33742 0.0663 0.0
H1074 H 0.43901 0.35704 0.11598 0.0
H1075 H 0.43504 0.32685 0.1848 0.0
H1076 H 0.447 0.36457 0.99028 0.0
H1077 H 0.47808 0.37931 0.18934 0.0
H1078 H 0.5003 0.37482 0.28349 0.0
H1079 H 0.55361 0.37498 0.16228 0.0
H1080 H 0.53169 0.37926 0.06731 0.0
H1081 H 0.47352 0.46554 0.85669 0.0
H1082 H 0.46076 0.43911 0.93162 0.0
H1083 H 0.51755 0.40593 0.9105 0.0
H1084 H 0.53027 0.43174 0.83782 0.0
H1085 H 0.50699 0.40915 0.03423 0.0
H1086 H 0.47272 0.39206 0.83278 0.0
H1087 H 0.44866 0.39822 0.74405 0.0
H1088 H 0.39905 0.40489 0.87805 0.0
H1089 H 0.42289 0.39906 0.96761 0.0
C1090 C 0.48339 0.31761 0.12974 0.0
C1091 C 0.46524 0.31453 0.16486 0.0
C1092 C 0.48576 0.33506 0.09114 0.0
C1093 C 0.47 0.34974 0.08663 0.0
C1094 C 0.45141 0.34603 0.11869 0.0
C1095 C 0.44913 0.32871 0.15776 0.0
C1096 C 0.47328 0.36929 0.05065 0.0
C1097 C 0.45998 0.37446 0.00042 0.0
C1098 C 0.48998 0.38248 0.0643 0.0
C1099 C 0.50321 0.37938 0.12111 0.0
C1100 C 0.49453 0.37816 0.18267 0.0
C1101 C 0.50707 0.37571 0.23622 0.0
C1102 C 0.52835 0.37454 0.22884 0.0
C1103 C 0.53713 0.37584 0.16791 0.0
C1104 C 0.52465 0.3783 0.11421 0.0
C1105 C 0.48327 0.45266 0.86842 0.0
C1106 C 0.50296 0.45092 0.84086 0.0
C1107 C 0.47592 0.43749 0.91096 0.0
C1108 C 0.48818 0.42042 0.92675 0.0
C1109 C 0.50778 0.4189 0.89958 0.0
C1110 C 0.51502 0.43381 0.85751 0.0
C1111 C 0.48134 0.4039 0.97169 0.0
C1112 C 0.49391 0.39936 0.0243 0.0
C1113 C 0.46379 0.39155 0.96075 0.0
C1114 C 0.44964 0.39543 0.90688 0.0
C1115 C 0.45673 0.39509 0.84334 0.0
C1116 C 0.44312 0.39846 0.79289 0.0
C1117 C 0.42236 0.40203 0.80541 0.0
C1118 C 0.41515 0.4022 0.86841 0.0
C1119 C 0.4287 0.39886 0.91901 0.0
H1120 H 0.41184 0.4046 0.76629 0.0
H1121 H 0.53805 0.37268 0.27035 0.0
H1122 H 0.21877 0.47626 0.10019 0.0
H1123 H 0.19065 0.47792 0.02341 0.0
H1124 H 0.14974 0.45135 0.16366 0.0
H1125 H 0.17817 0.44625 0.23463 0.0
H1126 H 0.13485 0.44056 0.07001 0.0
H1127 H 0.15664 0.50905 0.11776 0.0
H1128 H 0.17993 0.53878 0.12605 0.0
H1129 H 0.19071 0.53668 0.92343 0.0
H1130 H 0.16765 0.50679 0.91409 0.0
H1131 H 0.04479 0.49145 0.92923 0.0
H1132 H 0.07269 0.47982 0.0001 0.0
H1133 H 0.11453 0.48001 0.83993 0.0
H1134 H 0.08698 0.49161 0.76999 0.0
H1135 H 0.12754 0.50408 0.94258 0.0
H1136 H 0.09868 0.43526 0.90886 0.0
H1137 H 0.07069 0.40988 0.9168 0.0
H1138 H 0.0675 0.41924 0.1199 0.0
H1139 H 0.09528 0.44486 0.11304 0.0
C1140 C 0.20393 0.47022 0.11397 0.0
C1141 C 0.20082 0.46188 0.17533 0.0
C1142 C 0.18757 0.47167 0.07036 0.0
C1143 C 0.16746 0.4658 0.08803 0.0
C1144 C 0.16476 0.45638 0.14785 0.0
C1145 C 0.1812 0.4539 0.18968 0.0
C1146 C 0.14913 0.46952 0.04571 0.0
C1147 C 0.13333 0.4547 0.04326 0.0
C1148 C 0.14654 0.48783 0.00977 0.0
C1149 C 0.16065 0.50555 0.01539 0.0
C1150 C 0.16411 0.51484 0.07509 0.0
C1151 C 0.17724 0.53173 0.07995 0.0
C1152 C 0.18685 0.53957 0.02534 0.0
C1153 C 0.18331 0.53056 0.96572 0.0
C1154 C 0.17021 0.51365 0.96061 0.0
C1155 C 0.05978 0.48827 0.90906 0.0
C1156 C 0.06375 0.49223 0.84413 0.0
C1157 C 0.07574 0.48177 0.94952 0.0
C1158 C 0.09578 0.47914 0.92536 0.0
C1159 C 0.09929 0.48201 0.85979 0.0
C1160 C 0.08349 0.48849 0.81976 0.0
C1161 C 0.11365 0.47532 0.96815 0.0
C1162 C 0.12929 0.49011 0.97021 0.0
C1163 C 0.11548 0.45762 0.00657 0.0
C1164 C 0.09894 0.44207 0.01032 0.0
C1165 C 0.09191 0.432 0.95512 0.0
C1166 C 0.0761 0.41756 0.95946 0.0
C1167 C 0.06729 0.41298 0.01879 0.0
C1168 C 0.07432 0.4228 0.07396 0.0
C1169 C 0.0901 0.43726 0.06988 0.0
H1170 H 0.05505 0.4018 0.02203 0.0
H1171 H 0.19699 0.55266 0.02919 0.0
H1172 H 0.98001 0.83824 0.18622 0.0
H1173 H 0.98342 0.86776 0.25527 0.0
H1174 H 0.97257 0.82965 0.42018 0.0
H1175 H 0.9676 0.79966 0.34962 0.0
H1176 H 0.95031 0.86499 0.42362 0.0
H1177 H 0.02032 0.84836 0.38409 0.0
H1178 H 0.0519 0.84074 0.32355 0.0
H1179 H 0.04861 0.89951 0.23181 0.0
H1180 H 0.01669 0.90729 0.29034 0.0
H1181 H 0.97836 0.9449 0.63898 0.0
H1182 H 0.9688 0.91554 0.5729 0.0
H1183 H 0.99429 0.94539 0.4071 0.0
H1184 H 0.00573 0.97383 0.47467 0.0
H1185 H 0.00978 0.91211 0.40925 0.0
H1186 H 0.93778 0.92797 0.44413 0.0
H1187 H 0.9062 0.93494 0.5059 0.0
H1188 H 0.91324 0.87799 0.6063 0.0
H1189 H 0.94499 0.87085 0.54619 0.0
C1190 C 0.97825 0.83594 0.23712 0.0
C1191 C 0.97311 0.81649 0.26199 0.0
C1192 C 0.98057 0.8529 0.27671 0.0
C1193 C 0.97871 0.85095 0.34297 0.0
C1194 C 0.97422 0.83149 0.36896 0.0
C1195 C 0.97153 0.81434 0.32875 0.0
C1196 C 0.98029 0.86969 0.38344 0.0
C1197 C 0.96342 0.87523 0.42135 0.0
C1198 C 0.99714 0.88336 0.37866 0.0
C1199 C 0.01595 0.87834 0.34142 0.0
C1200 C 0.02614 0.85956 0.35038 0.0
C1201 C 0.04416 0.85524 0.31652 0.0
C1202 C 0.05228 0.86965 0.274 0.0
C1203 C 0.04235 0.88839 0.26494 0.0
C1204 C 0.02425 0.89273 0.29833 0.0
C1205 C 0.98114 0.9455 0.58791 0.0
C1206 C 0.99263 0.96161 0.56176 0.0
C1207 C 0.97562 0.92867 0.55004 0.0
C1208 C 0.98079 0.92789 0.48484 0.0
C1209 C 0.9903 0.94523 0.45742 0.0
C1210 C 0.99655 0.96171 0.49576 0.0
C1211 C 0.97936 0.90811 0.44822 0.0
C1212 C 0.99643 0.9022 0.41121 0.0
C1213 C 0.96261 0.8942 0.45349 0.0
C1214 C 0.94378 0.8989 0.49063 0.0
C1215 C 0.93267 0.91702 0.47972 0.0
C1216 C 0.91473 0.92098 0.51443 0.0
C1217 C 0.90769 0.90685 0.55971 0.0
C1218 C 0.91865 0.88885 0.57094 0.0
C1219 C 0.93662 0.88485 0.53664 0.0
H1220 H 0.89369 0.90976 0.58595 0.0
H1221 H 0.06625 0.86628 0.24792 0.0
H1222 H 0.69636 0.99852 0.23971 0.0
H1223 H 0.66618 0.00247 0.30822 0.0
H1224 H 0.67344 0.94028 0.37486 0.0
H1225 H 0.70349 0.9362 0.30416 0.0
H1226 H 0.63393 0.94788 0.3459 0.0
H1227 H 0.68531 0.98286 0.47089 0.0
H1228 H 0.71313 0.00783 0.48936 0.0
H1229 H 0.67294 0.05717 0.43728 0.0
H1230 H 0.64499 0.03248 0.41763 0.0
H1231 H 0.56159 0.96903 0.6107 0.0
H1232 H 0.58957 0.95723 0.53994 0.0
H1233 H 0.58813 0.01511 0.44056 0.0
H1234 H 0.56054 0.02683 0.51047 0.0
H1235 H 0.62568 0.00673 0.49397 0.0
H1236 H 0.57545 0.97366 0.36296 0.0
H1237 H 0.5472 0.95004 0.33617 0.0
H1238 H 0.58408 0.89866 0.39264 0.0
H1239 H 0.61246 0.92202 0.42072 0.0
C1240 C 0.69186 0.98593 0.27054 0.0
C1241 C 0.70259 0.96729 0.26843 0.0
C1242 C 0.67453 0.98813 0.30944 0.0
C1243 C 0.66763 0.97179 0.34775 0.0
C1244 C 0.67852 0.95317 0.34622 0.0
C1245 C 0.69585 0.95092 0.30672 0.0
C1246 C 0.64875 0.9742 0.38775 0.0
C1247 C 0.63227 0.9605 0.37934 0.0
C1248 C 0.64628 0.99097 0.43014 0.0
C1249 C 0.66308 0.00581 0.44262 0.0
C1250 C 0.68244 -0.00098 0.46312 0.0
C1251 C 0.69823 0.01313 0.47379 0.0
C1252 C 0.69481 0.03407 0.46449 0.0
C1253 C 0.67558 0.04095 0.44453 0.0
C1254 C 0.65975 0.02691 0.43371 0.0
C1255 C 0.56677 0.97887 0.57219 0.0
C1256 C 0.559 0.9989 0.56634 0.0
C1257 C 0.58282 0.97218 0.53199 0.0
C1258 C 0.59114 0.9854 0.48541 0.0
C1259 C 0.58214 0.00471 0.47645 0.0
C1260 C 0.5663 0.01136 0.51636 0.0
C1261 C 0.61074 0.98061 0.45158 0.0
C1262 C 0.62741 0.9939 0.46132 0.0
C1263 C 0.61322 0.96362 0.41012 0.0
C1264 C 0.59597 0.94962 0.39498 0.0
C1265 C 0.57744 0.95736 0.37062 0.0
C1266 C 0.56142 0.94401 0.35492 0.0
C1267 C 0.56381 0.92287 0.36297 0.0
C1268 C 0.58222 0.91504 0.38664 0.0
C1269 C 0.59828 0.92833 0.40246 0.0
H1270 H 0.55141 0.91256 0.35065 0.0
H1271 H 0.70705 0.04497 0.47281 0.0
H1272 H 0.51679 0.69882 0.25487 0.0
H1273 H 0.51177 0.66853 0.32197 0.0
H1274 H 0.57665 0.66709 0.36216 0.0
H1275 H 0.5817 0.69701 0.29211 0.0
H1276 H 0.56414 0.62968 0.33849 0.0
H1277 H 0.53862 0.68292 0.47726 0.0
H1278 H 0.51746 0.71299 0.5052 0.0
H1279 H 0.4627 0.67873 0.46479 0.0
H1280 H 0.48354 0.64855 0.4359 0.0
H1281 H 0.54579 0.55697 0.60237 0.0
H1282 H 0.55735 0.58484 0.53102 0.0
H1283 H 0.49597 0.59039 0.45683 0.0
H1284 H 0.48447 0.563 0.52738 0.0
H1285 H 0.5097 0.62623 0.50414 0.0
H1286 H 0.53414 0.57358 0.36325 0.0
H1287 H 0.55437 0.54351 0.32957 0.0
H1288 H 0.61019 0.5759 0.37063 0.0
H1289 H 0.59027 0.60609 0.40548 0.0
C1290 C 0.52985 0.69241 0.27977 0.0
C1291 C 0.54951 0.70068 0.2703 0.0
C1292 C 0.52702 0.675 0.31794 0.0
C1293 C 0.54376 0.66559 0.34859 0.0
C1294 C 0.56344 0.67405 0.33967 0.0
C1295 C 0.5663 0.69135 0.30055 0.0
C1296 C 0.54066 0.64667 0.38827 0.0
C1297 C 0.55249 0.62906 0.37559 0.0
C1298 C 0.52518 0.64551 0.43583 0.0
C1299 C 0.51264 0.66354 0.45411 0.0
C1300 C 0.52207 0.68185 0.47411 0.0
C1301 C 0.51013 0.6989 0.49011 0.0
C1302 C 0.48875 0.69778 0.48668 0.0
C1303 C 0.47926 0.67958 0.46743 0.0
C1304 C 0.49112 0.66249 0.45134 0.0
C1305 C 0.53495 0.56378 0.5695 0.0
C1306 C 0.51416 0.55794 0.57108 0.0
C1307 C 0.54155 0.57974 0.52883 0.0
C1308 C 0.52747 0.58993 0.48893 0.0
C1309 C 0.50709 0.583 0.48754 0.0
C1310 C 0.50054 0.56728 0.52798 0.0
C1311 C 0.53294 0.60916 0.45384 0.0
C1312 C 0.52154 0.62689 0.46758 0.0
C1313 C 0.54872 0.61029 0.40728 0.0
C1314 C 0.5607 0.59198 0.38796 0.0
C1315 C 0.55072 0.57419 0.36599 0.0
C1316 C 0.56213 0.55715 0.34644 0.0
C1317 C 0.58355 0.55776 0.34822 0.0
C1318 C 0.5936 0.57543 0.36948 0.0
C1319 C 0.58225 0.5925 0.38913 0.0
H1320 H 0.59236 0.54457 0.33292 0.0
H1321 H 0.47954 0.71101 0.49901 0.0
H1322 H 0.80323 0.55182 0.33702 0.0
H1323 H 0.83173 0.54797 0.41314 0.0
H1324 H 0.87012 0.52447 0.26142 0.0
H1325 H 0.84193 0.52734 0.18751 0.0
H1326 H 0.87871 0.50427 0.35763 0.0
H1327 H 0.87256 0.57546 0.31858 0.0
H1328 H 0.85599 0.60935 0.31203 0.0
H1329 H 0.84521 0.60863 0.51471 0.0
H1330 H 0.86142 0.57453 0.5223 0.0
H1331 H 0.97507 0.51712 0.5122 0.0
H1332 H 0.94748 0.5265 0.43744 0.0
H1333 H 0.90524 0.53202 0.59564 0.0
H1334 H 0.93251 0.52212 0.66961 0.0
H1335 H 0.89965 0.56247 0.49577 0.0
H1336 H 0.90886 0.48816 0.52247 0.0
H1337 H 0.92914 0.4563 0.51535 0.0
H1338 H 0.93901 0.4666 0.31481 0.0
H1339 H 0.91912 0.49871 0.32102 0.0
C1340 C 0.81764 0.54546 0.32046 0.0
C1341 C 0.82025 0.54011 0.25576 0.0
C1342 C 0.83404 0.54351 0.36375 0.0
C1343 C 0.85336 0.53629 0.34301 0.0
C1344 C 0.85555 0.53014 0.27914 0.0
C1345 C 0.83928 0.53189 0.2365 0.0
C1346 C 0.87153 0.53521 0.38657 0.0
C1347 C 0.8833 0.51715 0.3872 0.0
C1348 C 0.87787 0.55194 0.42517 0.0
C1349 C 0.86793 0.57232 0.42088 0.0
C1350 C 0.86646 0.58243 0.36166 0.0
C1351 C 0.85717 0.60169 0.35777 0.0
C1352 C 0.84948 0.6111 0.41289 0.0
C1353 C 0.85111 0.60128 0.47203 0.0
C1354 C 0.86034 0.58199 0.47616 0.0
C1355 C 0.96007 0.52106 0.53094 0.0
C1356 C 0.9559 0.51917 0.59659 0.0
C1357 C 0.9443 0.52625 0.4883 0.0
C1358 C 0.92424 0.52982 0.51096 0.0
C1359 C 0.92055 0.5294 0.57705 0.0
C1360 C 0.93614 0.52383 0.61929 0.0
C1361 C 0.90658 0.53163 0.46631 0.0
C1362 C 0.89493 0.54973 0.46582 0.0
C1363 C 0.9008 0.51525 0.42573 0.0
C1364 C 0.91269 0.49592 0.42236 0.0
C1365 C 0.91552 0.48372 0.47701 0.0
C1366 C 0.92692 0.46561 0.47312 0.0
C1367 C 0.93537 0.45946 0.41467 0.0
C1368 C 0.93247 0.4714 0.36004 0.0
C1369 C 0.92115 0.48955 0.36373 0.0
H1370 H 0.94409 0.44539 0.41156 0.0
H1371 H 0.84232 0.62603 0.4098 0.0
loop_
_geom_bond_atom_site_label_1
_geom_bond_atom_site_label_2
_geom_bond_distance
_geom_bond_site_symmetry_2
_ccdc_geom_bond_type
H0 C3 0.929 . S
H1 C6 0.929 . S
H2 C8 0.930 . S
C3 H0 0.929 . S
C3 C4 1.398 . S
C3 C5 1.396 . S
C4 C3 1.398 . S
C4 C8 1.407 . S
C5 C3 1.396 . S
C5 C6 1.394 . S
C6 H1 0.929 . S
C6 C5 1.394 . S
C6 C7 1.382 . S
C7 C6 1.382 . S
C7 C8 1.392 . S
C7 N9 1.420 . S
C8 H2 0.930 . S
C8 C4 1.407 . S
C8 C7 1.392 . S
N9 C7 1.420 . S
N9 C10 1.244 . S
C10 N9 1.244 . S
H11 C14 0.929 . S
H12 C17 0.929 . S
H13 C19 0.930 . S
C14 H11 0.929 . S
C14 C15 1.398 . S
C14 C16 1.396 . S
C15 C14 1.398 . S
C15 C19 1.407 . S
C16 C14 1.396 . S
C16 C17 1.394 . S
C17 H12 0.929 . S
C17 C16 1.394 . S
C17 C18 1.382 . S
C18 C17 1.382 . S
C18 C19 1.392 . S
C18 N20 1.420 . S
C19 H13 0.930 . S
C19 C15 1.407 . S
C19 C18 1.392 . S
N20 C18 1.420 . S
N20 C21 1.244 . S
C21 N20 1.244 . S
H22 C25 0.929 . S
H23 C28 0.929 . S
H24 C30 0.930 . S
C25 H22 0.929 . S
C25 C26 1.398 . S
C25 C27 1.396 . S
C26 C25 1.398 . S
C26 C30 1.407 . S
C27 C25 1.396 . S
C27 C28 1.394 . S
C28 H23 0.929 . S
C28 C27 1.394 . S
C28 C29 1.382 . S
C29 C28 1.382 . S
C29 C30 1.392 . S
C29 N31 1.420 . S
C30 H24 0.930 . S
C30 C26 1.407 . S
C30 C29 1.392 . S
N31 C29 1.420 . S
N31 C32 1.244 . S
C32 N31 1.244 . S
H33 C36 0.929 . S
H34 C39 0.929 . S
H35 C41 0.930 . S
C36 H33 0.929 . S
C36 C37 1.398 . S
C36 C38 1.396 . S
C37 C36 1.398 . S
C37 C41 1.407 . S
C38 C36 1.396 . S
C38 C39 1.394 . S
C39 H34 0.929 . S
C39 C38 1.394 . S
C39 C40 1.382 . S
C40 C39 1.382 . S
C40 C41 1.392 . S
C40 N42 1.420 . S
C41 H35 0.930 . S
C41 C37 1.407 . S
C41 C40 1.392 . S
N42 C40 1.420 . S
N42 C43 1.244 . S
C43 N42 1.244 . S
H44 C47 0.929 . S
H45 C50 0.929 . S
H46 C52 0.930 . S
C47 H44 0.929 . S
C47 C48 1.398 . S
C47 C49 1.396 . S
C48 C47 1.398 . S
C48 C52 1.407 . S
C49 C47 1.396 . S
C49 C50 1.394 . S
C50 H45 0.929 . S
C50 C49 1.394 . S
C50 C51 1.382 . S
C51 C50 1.382 . S
C51 C52 1.392 . S
C51 N53 1.420 . S
C52 H46 0.930 . S
C52 C48 1.407 . S
C52 C51 1.392 . S
N53 C51 1.420 . S
N53 C54 1.244 . S
C54 N53 1.244 . S
H55 C58 0.929 . S
H56 C61 0.929 . S
H57 C63 0.930 . S
C58 H55 0.929 . S
C58 C59 1.398 . S
C58 C60 1.396 . S
C59 C58 1.398 . S
C59 C63 1.407 . S
C60 C58 1.396 . S
C60 C61 1.394 . S
C61 H56 0.929 . S
C61 C60 1.394 . S
C61 C62 1.382 . S
C62 C61 1.382 . S
C62 C63 1.392 . S
C62 N64 1.420 . S
C63 H57 0.930 . S
C63 C59 1.407 . S
C63 C62 1.392 . S
N64 C62 1.420 . S
N64 C65 1.244 . S
C65 N64 1.244 . S
H66 C69 0.929 . S
H67 C72 0.929 . S
H68 C74 0.930 . S
C69 H66 0.929 . S
C69 C70 1.398 . S
C69 C71 1.396 . S
C70 C69 1.398 . S
C70 C74 1.407 . S
C71 C69 1.396 . S
C71 C72 1.394 . S
C72 H67 0.929 . S
C72 C71 1.394 . S
C72 C73 1.382 . S
C73 C72 1.382 . S
C73 C74 1.392 . S
C73 N75 1.420 . S
C74 H68 0.930 . S
C74 C70 1.407 . S
C74 C73 1.392 . S
N75 C73 1.420 . S
N75 C76 1.244 . S
C76 N75 1.244 . S
H77 C80 0.929 . S
H78 C83 0.929 . S
H79 C85 0.930 . S
C80 H77 0.929 . S
C80 C81 1.398 . S
C80 C82 1.396 . S
C81 C80 1.398 . S
C81 C85 1.407 . S
C82 C80 1.396 . S
C82 C83 1.394 . S
C83 H78 0.929 . S
C83 C82 1.394 . S
C83 C84 1.382 . S
C84 C83 1.382 . S
C84 C85 1.392 . S
C84 N86 1.420 . S
C85 H79 0.930 . S
C85 C81 1.407 . S
C85 C84 1.392 . S
N86 C84 1.420 . S
N86 C87 1.244 . S
C87 N86 1.244 . S
O88 Mn89 2.163 . S
O88 C102 1.244 . S
Mn89 O88 2.163 . S
Mn89 O92 2.160 1_445 S
Mn89 O93 2.221 . S
Mn89 O95 2.163 1_545 S
Mn89 O97 2.160 . S
Mn89 O107 2.221 1_455 S
O90 Mn91 2.098 . S
O90 C102 1.242 1_655 S
Mn91 O90 2.098 . S
Mn91 O98 2.089 . S
Mn91 O107 2.290 . S
Mn91 O108 2.251 . S
O92 Mn89 2.160 1_665 S
O92 C103 1.239 1_655 S
O93 Mn89 2.221 . S
O93 Mn94 2.290 1_545 S
O93 C104 1.278 . S
Mn94 O93 2.290 1_565 S
Mn94 O96 2.089 . S
Mn94 O99 2.251 . S
Mn94 O100 2.087 . S
O95 Mn89 2.163 1_565 S
O95 C105 1.244 . S
O96 Mn94 2.089 . S
O96 C103 1.256 . S
O97 Mn89 2.160 . S
O97 C106 1.239 . S
O98 Mn91 2.089 . S
O98 C106 1.256 1_655 S
O99 Mn94 2.251 . S
O99 C104 1.241 1_565 S
O100 Mn94 2.087 . S
O100 C105 1.256 . S
C101 O107 1.278 . S
C101 O108 1.241 . S
C102 O88 1.244 . S
C102 O90 1.242 1_455 S
C103 O92 1.239 1_455 S
C103 O96 1.256 . S
C104 O93 1.278 . S
C104 O99 1.241 1_545 S
C105 O95 1.244 . S
C105 O100 1.256 . S
C106 O97 1.239 . S
C106 O98 1.256 1_455 S
O107 Mn89 2.221 1_655 S
O107 Mn91 2.290 . S
O107 C101 1.278 . S
O108 Mn91 2.251 . S
O108 C101 1.241 . S
O109 Mn110 2.163 . S
O109 C123 1.244 . S
Mn110 O109 2.163 . S
Mn110 O113 2.160 . S
Mn110 O114 2.221 1_545 S
Mn110 O116 2.163 . S
Mn110 O118 2.160 1_545 S
Mn110 O128 2.221 . S
O111 Mn112 2.087 . S
O111 C123 1.256 . S
Mn112 O111 2.087 . S
Mn112 O119 2.089 . S
Mn112 O128 2.290 . S
Mn112 O129 2.251 . S
O113 Mn110 2.160 . S
O113 C124 1.239 . S
O114 Mn110 2.221 1_565 S
O114 Mn115 2.290 . S
O114 C125 1.278 . S
Mn115 O114 2.290 . S
Mn115 O117 2.089 . S
Mn115 O120 2.251 . S
Mn115 O121 2.087 . S
O116 Mn110 2.163 . S
O116 C126 1.244 . S
O117 Mn115 2.089 . S
O117 C124 1.256 1_565 S
O118 Mn110 2.160 1_565 S
O118 C127 1.244 . S
O119 Mn112 2.089 . S
O119 C127 1.234 1_545 S
O120 Mn115 2.251 . S
O120 C125 1.241 . S
O121 Mn115 2.087 . S
O121 C126 1.256 1_565 S
C122 O128 1.278 . S
C122 O129 1.241 . S
C123 O109 1.244 . S
C123 O111 1.256 . S
C124 O113 1.239 . S
C124 O117 1.256 1_545 S
C125 O114 1.278 . S
C125 O120 1.241 . S
C126 O116 1.244 . S
C126 O121 1.256 1_545 S
C127 O118 1.244 . S
C127 O119 1.234 1_565 S
O128 Mn110 2.221 . S
O128 Mn112 2.290 . S
O128 C122 1.278 . S
O129 Mn112 2.251 . S
O129 C122 1.241 . S
O130 Mn131 2.163 . S
O130 C144 1.244 . S
Mn131 O130 2.163 . S
Mn131 O134 2.160 . S
Mn131 O135 2.221 . S
Mn131 O137 2.163 . S
Mn131 O139 2.160 . S
Mn131 O149 2.221 . S
O132 Mn133 2.087 . S
O132 C144 1.256 . S
Mn133 O132 2.087 . S
Mn133 O140 2.089 . S
Mn133 O149 2.290 . S
Mn133 O150 2.251 . S
O134 Mn131 2.160 . S
O134 C145 1.239 . S
O135 Mn131 2.221 . S
O135 Mn136 2.290 . S
O135 C146 1.278 . S
Mn136 O135 2.290 . S
Mn136 O138 2.089 . S
Mn136 O141 2.251 . S
Mn136 O142 2.087 . S
O137 Mn131 2.163 . S
O137 C147 1.244 . S
O138 Mn136 2.089 . S
O138 C145 1.256 . S
O139 Mn131 2.160 . S
O139 C148 1.239 . S
O140 Mn133 2.089 . S
O140 C148 1.256 . S
O141 Mn136 2.251 . S
O141 C146 1.241 . S
O142 Mn136 2.087 . S
O142 C147 1.256 . S
C143 O149 1.278 . S
C143 O150 1.241 . S
C144 O130 1.244 . S
C144 O132 1.256 . S
C145 O134 1.239 . S
C145 O138 1.256 . S
C146 O135 1.278 . S
C146 O141 1.241 . S
C147 O137 1.244 . S
C147 O142 1.256 . S
C148 O139 1.239 . S
C148 O140 1.256 . S
O149 Mn131 2.221 . S
O149 Mn133 2.290 . S
O149 C143 1.278 . S
O150 Mn133 2.251 . S
O150 C143 1.241 . S
O151 Mn152 2.163 . S
O151 C165 1.244 . S
Mn152 O151 2.163 . S
Mn152 O155 2.160 1_455 S
Mn152 O156 2.221 . S
Mn152 O158 2.163 1_455 S
Mn152 O160 2.160 . S
Mn152 O170 2.221 . S
O153 Mn154 2.087 . S
O153 C165 1.256 . S
Mn154 O153 2.087 . S
Mn154 O161 2.089 . S
Mn154 O170 2.290 . S
Mn154 O171 2.251 . S
O155 Mn152 2.160 1_655 S
O155 C166 1.239 . S
O156 Mn152 2.221 . S
O156 Mn157 2.290 1_455 S
O156 C167 1.278 . S
Mn157 O156 2.290 1_655 S
Mn157 O159 2.089 . S
Mn157 O162 2.251 . S
Mn157 O163 2.087 . S
O158 Mn152 2.163 1_655 S
O158 C168 1.244 . S
O159 Mn157 2.089 . S
O159 C166 1.256 . S
O160 Mn152 2.160 . S
O160 C169 1.239 . S
O161 Mn154 2.089 . S
O161 C169 1.256 . S
O162 Mn157 2.251 . S
O162 C167 1.241 1_655 S
O163 Mn157 2.087 . S
O163 C168 1.256 . S
C164 O170 1.278 . S
C164 O171 1.241 . S
C165 O151 1.244 . S
C165 O153 1.256 . S
C166 O155 1.239 . S
C166 O159 1.256 . S
C167 O156 1.278 . S
C167 O162 1.241 1_455 S
C168 O158 1.244 . S
C168 O163 1.256 . S
C169 O160 1.239 . S
C169 O161 1.256 . S
O170 Mn152 2.221 . S
O170 Mn154 2.290 . S
O170 C164 1.278 . S
O171 Mn154 2.251 . S
O171 C164 1.241 . S
H172 C190 0.951 . S
H173 C192 0.951 . S
H174 C194 0.950 . S
H175 C195 0.950 . S
H176 C197 0.950 . S
H177 C200 0.950 . S
H178 C201 0.950 . S
H179 C203 0.950 . S
H180 C204 0.950 . S
H181 C205 0.951 . S
H182 C207 0.951 . S
H183 C209 0.950 . S
H184 C210 0.950 . S
H185 C212 0.950 1_565 S
H186 C215 0.950 . S
H187 C216 0.950 . S
H188 C218 0.950 . S
H189 C219 0.950 . S
C190 H172 0.951 . S
C190 C191 1.366 . S
C190 C192 1.388 . S
C191 C190 1.366 . S
C191 C195 1.385 . S
C192 H173 0.951 . S
C192 C190 1.388 . S
C192 C193 1.366 . S
C193 C192 1.366 . S
C193 C194 1.414 . S
C193 C196 1.499 . S
C194 H174 0.950 . S
C194 C193 1.414 . S
C194 C195 1.374 . S
C195 H175 0.950 . S
C195 C191 1.385 . S
C195 C194 1.374 . S
C196 C193 1.499 . S
C196 C197 1.373 . S
C196 C198 1.389 . S
C197 H176 0.950 . S
C197 C196 1.373 . S
C197 C213 1.377 . S
C198 C196 1.389 . S
C198 C199 1.524 1_545 S
C198 C212 1.377 . S
C199 C198 1.524 1_565 S
C199 C200 1.397 . S
C199 C204 1.363 . S
C200 H177 0.950 . S
C200 C199 1.397 . S
C200 C201 1.334 . S
C201 H178 0.950 . S
C201 C200 1.334 . S
C201 C202 1.287 . S
C202 C201 1.287 . S
C202 C203 1.524 . S
C202 H221 0.913 . S
C203 H179 0.950 . S
C203 C202 1.524 . S
C203 C204 1.415 . S
C204 H180 0.950 . S
C204 C199 1.363 . S
C204 C203 1.415 . S
C205 H181 0.951 . S
C205 C206 1.366 . S
C205 C207 1.388 . S
C206 C205 1.366 . S
C206 C210 1.385 . S
C207 H182 0.951 . S
C207 C205 1.388 . S
C207 C208 1.366 . S
C208 C207 1.366 . S
C208 C209 1.414 . S
C208 C211 1.499 . S
C209 H183 0.950 . S
C209 C208 1.414 . S
C209 C210 1.374 . S
C210 H184 0.950 . S
C210 C206 1.385 . S
C210 C209 1.374 . S
C211 C208 1.499 . S
C211 C212 1.373 . S
C211 C213 1.389 . S
C212 H185 0.950 1_545 S
C212 C198 1.377 . S
C212 C211 1.373 . S
C213 C197 1.377 . S
C213 C211 1.389 . S
C213 C214 1.524 . S
C214 C213 1.524 . S
C214 C215 1.397 . S
C214 C219 1.363 . S
C215 H186 0.950 . S
C215 C214 1.397 . S
C215 C216 1.334 . S
C216 H187 0.950 . S
C216 C215 1.334 . S
C216 C217 1.287 . S
C217 C216 1.287 . S
C217 C218 1.524 . S
C217 H220 0.999 . S
C218 H188 0.950 . S
C218 C217 1.524 . S
C218 C219 1.415 . S
C219 H189 0.950 . S
C219 C214 1.363 . S
C219 C218 1.415 . S
H220 C217 0.999 . S
H221 C202 0.913 . S
H222 C240 0.951 . S
H223 C242 0.951 . S
H224 C244 0.950 . S
H225 C245 0.950 . S
H226 C247 0.950 . S
H227 C250 0.950 . S
H228 C251 0.950 . S
H229 C253 0.950 . S
H230 C254 0.950 . S
H231 C255 0.951 . S
H232 C257 0.951 . S
H233 C259 0.950 . S
H234 C260 0.950 . S
H235 C262 0.950 . S
H236 C265 0.950 . S
H237 C266 0.950 . S
H238 C268 0.950 . S
H239 C269 0.950 . S
C240 H222 0.951 . S
C240 C241 1.366 . S
C240 C242 1.388 . S
C241 C240 1.366 . S
C241 C245 1.385 . S
C242 H223 0.951 . S
C242 C240 1.388 . S
C242 C243 1.366 . S
C243 C242 1.366 . S
C243 C244 1.414 . S
C243 C246 1.499 . S
C244 H224 0.950 . S
C244 C243 1.414 . S
C244 C245 1.374 . S
C245 H225 0.950 . S
C245 C241 1.385 . S
C245 C244 1.374 . S
C246 C243 1.499 . S
C246 C247 1.373 . S
C246 C248 1.389 . S
C247 H226 0.950 . S
C247 C246 1.373 . S
C247 C263 1.377 . S
C248 C246 1.389 . S
C248 C249 1.524 . S
C248 C262 1.377 . S
C249 C248 1.524 . S
C249 C250 1.397 . S
C249 C254 1.363 . S
C250 H227 0.950 . S
C250 C249 1.397 . S
C250 C251 1.334 . S
C251 H228 0.950 . S
C251 C250 1.334 . S
C251 C252 1.287 . S
C252 C251 1.287 . S
C252 C253 1.524 . S
C252 H271 0.913 . S
C253 H229 0.950 . S
C253 C252 1.524 . S
C253 C254 1.415 . S
C254 H230 0.950 . S
C254 C249 1.363 . S
C254 C253 1.415 . S
C255 H231 0.951 . S
C255 C256 1.366 . S
C255 C257 1.388 . S
C256 C255 1.366 . S
C256 C260 1.385 . S
C257 H232 0.951 . S
C257 C255 1.388 . S
C257 C258 1.366 . S
C258 C257 1.366 . S
C258 C259 1.414 . S
C258 C261 1.499 . S
C259 H233 0.950 . S
C259 C258 1.414 . S
C259 C260 1.374 . S
C260 H234 0.950 . S
C260 C256 1.385 . S
C260 C259 1.374 . S
C261 C258 1.499 . S
C261 C262 1.373 . S
C261 C263 1.389 . S
C262 H235 0.950 . S
C262 C248 1.377 . S
C262 C261 1.373 . S
C263 C247 1.377 . S
C263 C261 1.389 . S
C263 C264 1.524 . S
C264 C263 1.524 . S
C264 C265 1.397 . S
C264 C269 1.363 . S
C265 H236 0.950 . S
C265 C264 1.397 . S
C265 C266 1.334 . S
C266 H237 0.950 . S
C266 C265 1.334 . S
C266 C267 1.287 . S
C267 C266 1.287 . S
C267 C268 1.524 . S
C267 H270 0.999 . S
C268 H238 0.950 . S
C268 C267 1.524 . S
C268 C269 1.415 . S
C269 H239 0.950 . S
C269 C264 1.363 . S
C269 C268 1.415 . S
H270 C267 0.999 . S
H271 C252 0.913 . S
H272 C290 0.951 . S
H273 C292 0.951 . S
H274 C294 0.950 . S
H275 C295 0.950 . S
H276 C297 0.950 . S
H277 C300 0.950 . S
H278 C301 0.950 . S
H279 C303 0.950 . S
H280 C304 0.950 . S
H281 C305 0.951 . S
H282 C307 0.951 . S
H283 C309 0.950 . S
H284 C310 0.950 . S
H285 C312 0.950 . S
H286 C315 0.950 . S
H287 C316 0.950 . S
H288 C318 0.950 . S
H289 C319 0.950 . S
C290 H272 0.951 . S
C290 C291 1.366 . S
C290 C292 1.388 . S
C291 C290 1.366 . S
C291 C295 1.385 . S
C292 H273 0.951 . S
C292 C290 1.388 . S
C292 C293 1.366 . S
C293 C292 1.366 . S
C293 C294 1.414 . S
C293 C296 1.499 . S
C294 H274 0.950 . S
C294 C293 1.414 . S
C294 C295 1.374 . S
C295 H275 0.950 . S
C295 C291 1.385 . S
C295 C294 1.374 . S
C296 C293 1.499 . S
C296 C297 1.373 . S
C296 C298 1.389 . S
C297 H276 0.950 . S
C297 C296 1.373 . S
C297 C313 1.377 . S
C298 C296 1.389 . S
C298 C299 1.524 . S
C298 C312 1.377 . S
C299 C298 1.524 . S
C299 C300 1.397 . S
C299 C304 1.363 . S
C300 H277 0.950 . S
C300 C299 1.397 . S
C300 C301 1.334 . S
C301 H278 0.950 . S
C301 C300 1.334 . S
C301 C302 1.287 . S
C302 C301 1.287 . S
C302 C303 1.524 . S
C302 H321 0.913 . S
C303 H279 0.950 . S
C303 C302 1.524 . S
C303 C304 1.415 . S
C304 H280 0.950 . S
C304 C299 1.363 . S
C304 C303 1.415 . S
C305 H281 0.951 . S
C305 C306 1.366 . S
C305 C307 1.388 . S
C306 C305 1.366 . S
C306 C310 1.385 . S
C307 H282 0.951 . S
C307 C305 1.388 . S
C307 C308 1.366 . S
C308 C307 1.366 . S
C308 C309 1.414 . S
C308 C311 1.499 . S
C309 H283 0.950 . S
C309 C308 1.414 . S
C309 C310 1.374 . S
C310 H284 0.950 . S
C310 C306 1.385 . S
C310 C309 1.374 . S
C311 C308 1.499 . S
C311 C312 1.373 . S
C311 C313 1.389 . S
C312 H285 0.950 . S
C312 C298 1.377 . S
C312 C311 1.373 . S
C313 C297 1.377 . S
C313 C311 1.389 . S
C313 C314 1.524 . S
C314 C313 1.524 . S
C314 C315 1.397 . S
C314 C319 1.363 . S
C315 H286 0.950 . S
C315 C314 1.397 . S
C315 C316 1.334 . S
C316 H287 0.950 . S
C316 C315 1.334 . S
C316 C317 1.287 . S
C317 C316 1.287 . S
C317 C318 1.524 . S
C317 H320 0.999 . S
C318 H288 0.950 . S
C318 C317 1.524 . S
C318 C319 1.415 . S
C319 H289 0.950 . S
C319 C314 1.363 . S
C319 C318 1.415 . S
H320 C317 0.999 . S
H321 C302 0.913 . S
H322 C340 0.951 . S
H323 C342 0.951 . S
H324 C344 0.950 . S
H325 C345 0.950 . S
H326 C347 0.950 . S
H327 C350 0.950 . S
H328 C351 0.950 . S
H329 C353 0.950 . S
H330 C354 0.950 . S
H331 C355 0.951 1_655 S
H332 C357 0.951 . S
H333 C359 0.950 . S
H334 C360 0.950 . S
H335 C362 0.950 . S
H336 C365 0.950 . S
H337 C366 0.950 . S
H338 C368 0.950 . S
H339 C369 0.950 . S
C340 H322 0.951 . S
C340 C341 1.366 . S
C340 C342 1.388 . S
C341 C340 1.366 . S
C341 C345 1.385 . S
C342 H323 0.951 . S
C342 C340 1.388 . S
C342 C343 1.366 . S
C343 C342 1.366 . S
C343 C344 1.414 . S
C343 C346 1.499 . S
C344 H324 0.950 . S
C344 C343 1.414 . S
C344 C345 1.374 . S
C345 H325 0.950 . S
C345 C341 1.385 . S
C345 C344 1.374 . S
C346 C343 1.499 . S
C346 C347 1.373 . S
C346 C348 1.389 . S
C347 H326 0.950 . S
C347 C346 1.373 . S
C347 C363 1.377 . S
C348 C346 1.389 . S
C348 C349 1.524 . S
C348 C362 1.377 . S
C349 C348 1.524 . S
C349 C350 1.397 . S
C349 C354 1.363 . S
C350 H327 0.950 . S
C350 C349 1.397 . S
C350 C351 1.334 . S
C351 H328 0.950 . S
C351 C350 1.334 . S
C351 C352 1.287 . S
C352 C351 1.287 . S
C352 C353 1.524 . S
C352 H371 0.913 . S
C353 H329 0.950 . S
C353 C352 1.524 . S
C353 C354 1.415 . S
C354 H330 0.950 . S
C354 C349 1.363 . S
C354 C353 1.415 . S
C355 H331 0.951 1_455 S
C355 C356 1.366 . S
C355 C357 1.388 . S
C356 C355 1.366 . S
C356 C360 1.385 . S
C357 H332 0.951 . S
C357 C355 1.388 . S
C357 C358 1.366 . S
C358 C357 1.366 . S
C358 C359 1.414 . S
C358 C361 1.499 . S
C359 H333 0.950 . S
C359 C358 1.414 . S
C359 C360 1.374 . S
C360 H334 0.950 . S
C360 C356 1.385 . S
C360 C359 1.374 . S
C361 C358 1.499 . S
C361 C362 1.373 . S
C361 C363 1.389 . S
C362 H335 0.950 . S
C362 C348 1.377 . S
C362 C361 1.373 . S
C363 C347 1.377 . S
C363 C361 1.389 . S
C363 C364 1.524 1_455 S
C364 C363 1.524 1_655 S
C364 C365 1.397 . S
C364 C369 1.363 . S
C365 H336 0.950 . S
C365 C364 1.397 . S
C365 C366 1.334 . S
C366 H337 0.950 . S
C366 C365 1.334 . S
C366 C367 1.287 . S
C367 C366 1.287 . S
C367 C368 1.524 . S
C367 H370 0.999 . S
C368 H338 0.950 . S
C368 C367 1.524 . S
C368 C369 1.415 . S
C369 H339 0.950 . S
C369 C364 1.363 . S
C369 C368 1.415 . S
H370 C367 0.999 . S
H371 C352 0.913 . S
H372 C390 0.951 . S
H373 C392 0.951 . S
H374 C394 0.950 . S
H375 C395 0.950 . S
H376 C397 0.950 . S
H377 C400 0.950 . S
H378 C401 0.950 . S
H379 C403 0.950 . S
H380 C404 0.927 1_565 S
H381 C405 0.951 . S
H382 C407 0.961 . S
H383 C409 0.950 . S
H384 C410 0.950 . S
H385 C412 0.950 1_545 S
H386 C415 0.950 . S
H387 C416 0.950 . S
H388 C418 0.950 . S
H389 C419 0.950 . S
C390 H372 0.951 . S
C390 C391 1.366 . S
C390 C392 1.388 . S
C391 C390 1.366 . S
C391 C395 1.385 1_554 S
C392 H373 0.951 . S
C392 C390 1.388 . S
C392 C393 1.366 1_554 S
C393 C392 1.366 1_556 S
C393 C394 1.414 . S
C393 C396 1.499 . S
C394 H374 0.950 . S
C394 C393 1.414 . S
C394 C395 1.374 . S
C395 H375 0.950 . S
C395 C391 1.385 1_556 S
C395 C394 1.374 . S
C396 C393 1.499 . S
C396 C397 1.373 . S
C396 C398 1.389 . S
C397 H376 0.950 . S
C397 C396 1.373 . S
C397 C413 1.377 . S
C398 C396 1.389 . S
C398 C399 1.524 1_566 S
C398 C412 1.377 . S
C399 C398 1.524 1_544 S
C399 C400 1.397 . S
C399 C404 1.369 . S
C400 H377 0.950 . S
C400 C399 1.397 . S
C400 C401 1.334 . S
C401 H378 0.950 . S
C401 C400 1.334 . S
C401 C402 1.287 . S
C402 C401 1.287 . S
C402 C403 1.524 . S
C402 H421 0.913 . S
C403 H379 0.950 . S
C403 C402 1.524 . S
C403 C404 1.434 . S
C404 H380 0.927 1_545 S
C404 C399 1.369 . S
C404 C403 1.434 . S
C405 H381 0.951 . S
C405 C406 1.375 . S
C405 C407 1.397 . S
C406 C405 1.375 . S
C406 C410 1.369 1_545 S
C407 H382 0.961 . S
C407 C405 1.397 . S
C407 C408 1.348 1_545 S
C408 C407 1.348 1_565 S
C408 C409 1.414 . S
C408 C411 1.499 . S
C409 H383 0.950 . S
C409 C408 1.414 . S
C409 C410 1.374 . S
C410 H384 0.950 . S
C410 C406 1.369 1_565 S
C410 C409 1.374 . S
C411 C408 1.499 . S
C411 C412 1.373 . S
C411 C413 1.389 . S
C412 H385 0.950 1_565 S
C412 C398 1.377 . S
C412 C411 1.373 . S
C413 C397 1.377 . S
C413 C411 1.389 . S
C413 C414 1.524 . S
C414 C413 1.524 . S
C414 C415 1.397 . S
C414 C419 1.363 . S
C415 H386 0.950 . S
C415 C414 1.397 . S
C415 C416 1.334 . S
C416 H387 0.950 . S
C416 C415 1.334 . S
C416 C417 1.287 . S
C417 C416 1.287 . S
C417 C418 1.524 . S
C417 H420 0.999 . S
C418 H388 0.950 . S
C418 C417 1.524 . S
C418 C419 1.415 . S
C419 H389 0.950 . S
C419 C414 1.363 . S
C419 C418 1.415 . S
H420 C417 0.999 . S
H421 C402 0.913 . S
H422 C440 0.951 . S
H423 C442 0.951 . S
H424 C444 0.950 . S
H425 C445 0.950 . S
H426 C447 0.950 1_554 S
H427 C450 0.950 . S
H428 C451 0.950 . S
H429 C453 0.950 . S
H430 C454 0.950 . S
H431 C455 0.951 . S
H432 C457 0.951 . S
H433 C459 0.950 . S
H434 C460 0.950 . S
H435 C462 0.950 . S
H436 C465 0.950 . S
H437 C466 0.950 . S
H438 C468 0.950 . S
H439 C469 0.950 . S
C440 H422 0.951 . S
C440 C441 1.366 1_556 S
C440 C442 1.388 . S
C441 C440 1.366 1_554 S
C441 C445 1.385 . S
C442 H423 0.951 . S
C442 C440 1.388 . S
C442 C443 1.366 . S
C443 C442 1.366 . S
C443 C444 1.414 1_556 S
C443 C446 1.499 . S
C444 H424 0.950 . S
C444 C443 1.414 1_554 S
C444 C445 1.374 . S
C445 H425 0.950 . S
C445 C441 1.385 . S
C445 C444 1.374 . S
C446 C443 1.499 . S
C446 C447 1.373 . S
C446 C448 1.389 . S
C447 H426 0.950 1_556 S
C447 C446 1.373 . S
C447 C463 1.377 . S
C448 C446 1.389 . S
C448 C449 1.524 . S
C448 C462 1.377 . S
C449 C448 1.524 . S
C449 C450 1.397 . S
C449 C454 1.363 . S
C450 H427 0.950 . S
C450 C449 1.397 . S
C450 C451 1.334 . S
C451 H428 0.950 . S
C451 C450 1.334 . S
C451 C452 1.287 . S
C452 C451 1.287 . S
C452 C453 1.524 . S
C452 H471 0.913 . S
C453 H429 0.950 . S
C453 C452 1.524 . S
C453 C454 1.415 . S
C454 H430 0.950 . S
C454 C449 1.363 . S
C454 C453 1.415 . S
C455 H431 0.951 . S
C455 C456 1.366 . S
C455 C457 1.388 . S
C456 C455 1.366 . S
C456 C460 1.385 . S
C457 H432 0.951 . S
C457 C455 1.388 . S
C457 C458 1.366 . S
C458 C457 1.366 . S
C458 C459 1.414 . S
C458 C461 1.499 . S
C459 H433 0.950 . S
C459 C458 1.414 . S
C459 C460 1.374 . S
C460 H434 0.950 . S
C460 C456 1.385 . S
C460 C459 1.374 . S
C461 C458 1.499 . S
C461 C462 1.373 . S
C461 C463 1.389 . S
C462 H435 0.950 . S
C462 C448 1.377 . S
C462 C461 1.373 . S
C463 C447 1.377 . S
C463 C461 1.389 . S
C463 C464 1.524 . S
C464 C463 1.524 . S
C464 C465 1.397 . S
C464 C469 1.363 1_556 S
C465 H436 0.950 . S
C465 C464 1.397 . S
C465 C466 1.334 . S
C466 H437 0.950 . S
C466 C465 1.334 . S
C466 C467 1.287 1_556 S
C467 C466 1.287 1_554 S
C467 C468 1.524 . S
C467 H470 0.999 . S
C468 H438 0.950 . S
C468 C467 1.524 . S
C468 C469 1.415 . S
C469 H439 0.950 . S
C469 C464 1.363 1_554 S
C469 C468 1.415 . S
H470 C467 0.999 . S
H471 C452 0.913 . S
H472 C490 0.951 . S
H473 C492 0.951 . S
H474 C494 0.950 . S
H475 C495 0.950 . S
H476 C497 0.950 1_554 S
H477 C500 0.950 . S
H478 C501 0.950 . S
H479 C503 0.950 . S
H480 C504 0.950 . S
H481 C505 0.951 . S
H482 C507 0.951 . S
H483 C509 0.950 . S
H484 C510 0.950 . S
H485 C512 0.950 . S
H486 C515 0.950 . S
H487 C516 0.950 . S
H488 C518 0.950 . S
H489 C519 0.950 . S
C490 H472 0.951 . S
C490 C491 1.366 1_556 S
C490 C492 1.388 . S
C491 C490 1.366 1_554 S
C491 C495 1.385 . S
C492 H473 0.951 . S
C492 C490 1.388 . S
C492 C493 1.366 . S
C493 C492 1.366 . S
C493 C494 1.414 1_556 S
C493 C496 1.499 . S
C494 H474 0.950 . S
C494 C493 1.414 1_554 S
C494 C495 1.374 . S
C495 H475 0.950 . S
C495 C491 1.385 . S
C495 C494 1.374 . S
C496 C493 1.499 . S
C496 C497 1.373 . S
C496 C498 1.389 . S
C497 H476 0.950 1_556 S
C497 C496 1.373 . S
C497 C513 1.377 . S
C498 C496 1.389 . S
C498 C499 1.524 . S
C498 C512 1.377 . S
C499 C498 1.524 . S
C499 C500 1.397 . S
C499 C504 1.363 . S
C500 H477 0.950 . S
C500 C499 1.397 . S
C500 C501 1.334 . S
C501 H478 0.950 . S
C501 C500 1.334 . S
C501 C502 1.287 . S
C502 C501 1.287 . S
C502 C503 1.524 . S
C502 H521 0.913 . S
C503 H479 0.950 . S
C503 C502 1.524 . S
C503 C504 1.415 . S
C504 H480 0.950 . S
C504 C499 1.363 . S
C504 C503 1.415 . S
C505 H481 0.951 . S
C505 C506 1.366 . S
C505 C507 1.388 . S
C506 C505 1.366 . S
C506 C510 1.385 . S
C507 H482 0.951 . S
C507 C505 1.388 . S
C507 C508 1.366 . S
C508 C507 1.366 . S
C508 C509 1.414 . S
C508 C511 1.499 . S
C509 H483 0.950 . S
C509 C508 1.414 . S
C509 C510 1.374 . S
C510 H484 0.950 . S
C510 C506 1.385 . S
C510 C509 1.374 . S
C511 C508 1.499 . S
C511 C512 1.373 . S
C511 C513 1.389 . S
C512 H485 0.950 . S
C512 C498 1.377 . S
C512 C511 1.373 . S
C513 C497 1.377 . S
C513 C511 1.389 . S
C513 C514 1.525 . S
C514 C513 1.525 . S
C514 C515 1.397 . S
C514 C519 1.362 1_556 S
C515 H486 0.950 . S
C515 C514 1.397 . S
C515 C516 1.334 1_556 S
C516 H487 0.950 . S
C516 C515 1.334 1_554 S
C516 C517 1.287 . S
C517 C516 1.287 . S
C517 C518 1.524 . S
C517 H520 0.999 . S
C518 H488 0.950 . S
C518 C517 1.524 . S
C518 C519 1.415 . S
C519 H489 0.950 . S
C519 C514 1.362 1_554 S
C519 C518 1.415 . S
H520 C517 0.999 . S
H521 C502 0.913 . S
H522 C540 0.951 . S
H523 C542 0.951 . S
H524 C544 0.950 1_455 S
H525 C545 0.950 . S
H526 C547 0.950 . S
H527 C550 0.950 . S
H528 C551 0.950 . S
H529 C553 0.950 . S
H530 C554 0.950 . S
H531 C555 0.951 . S
H532 C557 0.951 . S
H533 C559 0.950 . S
H534 C560 0.950 . S
H535 C562 0.950 . S
H536 C565 0.950 . S
H537 C566 0.950 . S
H538 C568 0.936 1_455 S
H539 C569 0.982 . S
C540 H522 0.951 . S
C540 C541 1.366 . S
C540 C542 1.388 . S
C541 C540 1.366 . S
C541 C545 1.385 1_554 S
C542 H523 0.951 . S
C542 C540 1.388 . S
C542 C543 1.366 1_554 S
C543 C542 1.366 1_556 S
C543 C544 1.414 . S
C543 C546 1.499 . S
C544 H524 0.950 1_655 S
C544 C543 1.414 . S
C544 C545 1.374 . S
C545 H525 0.950 . S
C545 C541 1.385 1_556 S
C545 C544 1.374 . S
C546 C543 1.499 . S
C546 C547 1.373 . S
C546 C548 1.389 . S
C547 H526 0.950 . S
C547 C546 1.373 . S
C547 C563 1.377 . S
C548 C546 1.389 . S
C548 C549 1.524 1_556 S
C548 C562 1.377 . S
C549 C548 1.524 1_554 S
C549 C550 1.397 1_655 S
C549 C554 1.363 . S
C550 H527 0.950 . S
C550 C549 1.397 1_455 S
C550 C551 1.334 . S
C551 H528 0.950 . S
C551 C550 1.334 . S
C551 C552 1.287 1_455 S
C552 C551 1.287 1_655 S
C552 C553 1.524 . S
C552 H571 0.913 . S
C553 H529 0.950 . S
C553 C552 1.524 . S
C553 C554 1.415 . S
C554 H530 0.950 . S
C554 C549 1.363 . S
C554 C553 1.415 . S
C555 H531 0.951 . S
C555 C556 1.366 . S
C555 C557 1.388 . S
C556 C555 1.366 . S
C556 C560 1.385 1_455 S
C557 H532 0.951 . S
C557 C555 1.388 . S
C557 C558 1.366 1_455 S
C558 C557 1.366 1_655 S
C558 C559 1.414 . S
C558 C561 1.499 . S
C559 H533 0.950 . S
C559 C558 1.414 . S
C559 C560 1.374 . S
C560 H534 0.950 . S
C560 C556 1.385 1_655 S
C560 C559 1.374 . S
C561 C558 1.499 . S
C561 C562 1.373 . S
C561 C563 1.389 . S
C562 H535 0.950 . S
C562 C548 1.377 . S
C562 C561 1.373 . S
C563 C547 1.377 . S
C563 C561 1.389 . S
C563 C564 1.524 . S
C564 C563 1.524 . S
C564 C565 1.397 . S
C564 C569 1.336 1_655 S
C565 H536 0.950 . S
C565 C564 1.397 . S
C565 C566 1.334 . S
C566 H537 0.950 . S
C566 C565 1.334 . S
C566 C567 1.287 . S
C567 C566 1.287 . S
C567 C568 1.541 . S
C567 H570 0.999 . S
C568 H538 0.936 1_655 S
C568 C567 1.541 . S
C568 C569 1.412 1_655 S
C569 H539 0.982 . S
C569 C564 1.336 1_455 S
C569 C568 1.412 1_455 S
H570 C567 0.999 . S
H571 C552 0.913 . S
H572 C590 0.951 . S
H573 C592 0.951 . S
H574 C594 0.950 . S
H575 C595 0.950 . S
H576 C597 0.950 . S
H577 C600 0.950 . S
H578 C601 0.950 . S
H579 C603 0.950 . S
H580 C604 0.950 . S
H581 C605 0.951 . S
H582 C607 0.951 . S
H583 C609 0.950 . S
H584 C610 0.950 . S
H585 C612 0.950 1_655 S
H586 C615 0.950 . S
H587 C616 0.950 . S
H588 C618 0.950 . S
H589 C619 0.950 . S
C590 H572 0.951 . S
C590 C591 1.366 . S
C590 C592 1.388 . S
C591 C590 1.366 . S
C591 C595 1.385 . S
C592 H573 0.951 . S
C592 C590 1.388 . S
C592 C593 1.366 . S
C593 C592 1.366 . S
C593 C594 1.414 . S
C593 C596 1.499 . S
C594 H574 0.950 . S
C594 C593 1.414 . S
C594 C595 1.374 . S
C595 H575 0.950 . S
C595 C591 1.385 . S
C595 C594 1.374 . S
C596 C593 1.499 . S
C596 C597 1.373 . S
C596 C598 1.389 . S
C597 H576 0.950 . S
C597 C596 1.373 . S
C597 C613 1.377 . S
C598 C596 1.389 . S
C598 C599 1.524 . S
C598 C612 1.377 . S
C599 C598 1.524 . S
C599 C600 1.397 . S
C599 C604 1.363 1_455 S
C600 H577 0.950 . S
C600 C599 1.397 . S
C600 C601 1.334 . S
C601 H578 0.950 . S
C601 C600 1.334 . S
C601 C602 1.287 1_455 S
C602 C601 1.287 1_655 S
C602 C603 1.524 . S
C602 H621 0.913 . S
C603 H579 0.950 . S
C603 C602 1.524 . S
C603 C604 1.415 . S
C604 H580 0.950 . S
C604 C599 1.363 1_655 S
C604 C603 1.415 . S
C605 H581 0.951 . S
C605 C606 1.366 . S
C605 C607 1.388 . S
C606 C605 1.366 . S
C606 C610 1.385 1_455 S
C607 H582 0.951 . S
C607 C605 1.388 . S
C607 C608 1.366 . S
C608 C607 1.366 . S
C608 C609 1.414 1_455 S
C608 C611 1.499 . S
C609 H583 0.950 . S
C609 C608 1.414 1_655 S
C609 C610 1.374 . S
C610 H584 0.950 . S
C610 C606 1.385 1_655 S
C610 C609 1.374 . S
C611 C608 1.499 . S
C611 C612 1.373 . S
C611 C613 1.389 . S
C612 H585 0.950 1_455 S
C612 C598 1.377 . S
C612 C611 1.373 . S
C613 C597 1.377 . S
C613 C611 1.389 . S
C613 C614 1.524 . S
C614 C613 1.524 . S
C614 C615 1.397 . S
C614 C619 1.363 . S
C615 H586 0.950 . S
C615 C614 1.397 . S
C615 C616 1.334 . S
C616 H587 0.950 . S
C616 C615 1.334 . S
C616 C617 1.287 . S
C617 C616 1.287 . S
C617 C618 1.524 . S
C617 H620 0.999 . S
C618 H588 0.950 . S
C618 C617 1.524 . S
C618 C619 1.415 . S
C619 H589 0.950 . S
C619 C614 1.363 . S
C619 C618 1.415 . S
H620 C617 0.999 . S
H621 C602 0.913 . S
H622 C640 0.951 . S
H623 C642 0.951 . S
H624 C644 0.950 . S
H625 C645 0.950 . S
H626 C647 0.950 . S
H627 C650 0.950 . S
H628 C651 0.950 . S
H629 C653 0.950 . S
H630 C654 0.950 . S
H631 C655 0.951 . S
H632 C657 0.951 . S
H633 C659 0.950 . S
H634 C660 0.950 . S
H635 C662 0.950 1_565 S
H636 C665 0.950 . S
H637 C666 0.950 . S
H638 C668 0.950 . S
H639 C669 0.950 . S
C640 H622 0.951 . S
C640 C641 1.366 . S
C640 C642 1.388 . S
C641 C640 1.366 . S
C641 C645 1.385 . S
C642 H623 0.951 . S
C642 C640 1.388 . S
C642 C643 1.366 . S
C643 C642 1.366 . S
C643 C644 1.414 . S
C643 C646 1.499 . S
C644 H624 0.950 . S
C644 C643 1.414 . S
C644 C645 1.374 . S
C645 H625 0.950 . S
C645 C641 1.385 . S
C645 C644 1.374 . S
C646 C643 1.499 . S
C646 C647 1.373 . S
C646 C648 1.389 . S
C647 H626 0.950 . S
C647 C646 1.373 . S
C647 C663 1.377 . S
C648 C646 1.389 . S
C648 C649 1.524 . S
C648 C662 1.377 . S
C649 C648 1.524 . S
C649 C650 1.397 . S
C649 C654 1.363 1_545 S
C650 H627 0.950 . S
C650 C649 1.397 . S
C650 C651 1.334 . S
C651 H628 0.950 . S
C651 C650 1.334 . S
C651 C652 1.287 1_545 S
C652 C651 1.287 1_565 S
C652 C653 1.524 . S
C652 H671 0.913 . S
C653 H629 0.950 . S
C653 C652 1.524 . S
C653 C654 1.415 . S
C654 H630 0.950 . S
C654 C649 1.363 1_565 S
C654 C653 1.415 . S
C655 H631 0.951 . S
C655 C656 1.366 . S
C655 C657 1.388 . S
C656 C655 1.366 . S
C656 C660 1.385 1_545 S
C657 H632 0.951 . S
C657 C655 1.388 . S
C657 C658 1.366 . S
C658 C657 1.366 . S
C658 C659 1.414 1_545 S
C658 C661 1.499 . S
C659 H633 0.950 . S
C659 C658 1.414 1_565 S
C659 C660 1.374 . S
C660 H634 0.950 . S
C660 C656 1.385 1_565 S
C660 C659 1.374 . S
C661 C658 1.499 . S
C661 C662 1.373 . S
C661 C663 1.389 . S
C662 H635 0.950 1_545 S
C662 C648 1.377 . S
C662 C661 1.373 . S
C663 C647 1.377 . S
C663 C661 1.389 . S
C663 C664 1.524 . S
C664 C663 1.524 . S
C664 C665 1.397 . S
C664 C669 1.363 . S
C665 H636 0.950 . S
C665 C664 1.397 . S
C665 C666 1.334 . S
C666 H637 0.950 . S
C666 C665 1.334 . S
C666 C667 1.287 . S
C667 C666 1.287 . S
C667 C668 1.524 . S
C667 H670 0.999 . S
C668 H638 0.950 . S
C668 C667 1.524 . S
C668 C669 1.415 . S
C669 H639 0.950 . S
C669 C664 1.363 . S
C669 C668 1.415 . S
H670 C667 0.999 . S
H671 C652 0.913 . S
H672 C690 0.951 . S
H673 C692 0.951 . S
H674 C694 0.950 . S
H675 C695 0.950 . S
H676 C697 0.950 . S
H677 C700 0.950 . S
H678 C701 0.950 . S
H679 C703 0.950 . S
H680 C704 0.950 . S
H681 C705 0.951 . S
H682 C707 0.951 . S
H683 C709 0.950 . S
H684 C710 0.950 . S
H685 C712 0.950 . S
H686 C715 0.950 . S
H687 C716 0.950 . S
H688 C718 0.950 . S
H689 C719 0.950 . S
C690 H672 0.951 . S
C690 C691 1.366 . S
C690 C692 1.388 . S
C691 C690 1.366 . S
C691 C695 1.385 . S
C692 H673 0.951 . S
C692 C690 1.388 . S
C692 C693 1.366 . S
C693 C692 1.366 . S
C693 C694 1.414 . S
C693 C696 1.499 . S
C694 H674 0.950 . S
C694 C693 1.414 . S
C694 C695 1.374 . S
C695 H675 0.950 . S
C695 C691 1.385 . S
C695 C694 1.374 . S
C696 C693 1.499 . S
C696 C697 1.373 . S
C696 C698 1.389 . S
C697 H676 0.950 . S
C697 C696 1.373 . S
C697 C713 1.377 . S
C698 C696 1.389 . S
C698 C699 1.524 . S
C698 C712 1.377 . S
C699 C698 1.524 . S
C699 C700 1.397 . S
C699 C704 1.363 . S
C700 H677 0.950 . S
C700 C699 1.397 . S
C700 C701 1.334 . S
C701 H678 0.950 . S
C701 C700 1.334 . S
C701 C702 1.287 . S
C702 C701 1.287 . S
C702 C703 1.524 . S
C702 H721 0.913 . S
C703 H679 0.950 . S
C703 C702 1.524 . S
C703 C704 1.415 . S
C704 H680 0.950 . S
C704 C699 1.363 . S
C704 C703 1.415 . S
C705 H681 0.951 . S
C705 C706 1.366 . S
C705 C707 1.388 . S
C706 C705 1.366 . S
C706 C710 1.385 . S
C707 H682 0.951 . S
C707 C705 1.388 . S
C707 C708 1.366 . S
C708 C707 1.366 . S
C708 C709 1.414 . S
C708 C711 1.499 . S
C709 H683 0.950 . S
C709 C708 1.414 . S
C709 C710 1.374 . S
C710 H684 0.950 . S
C710 C706 1.385 . S
C710 C709 1.374 . S
C711 C708 1.499 . S
C711 C712 1.373 . S
C711 C713 1.389 . S
C712 H685 0.950 . S
C712 C698 1.377 . S
C712 C711 1.373 . S
C713 C697 1.377 . S
C713 C711 1.389 . S
C713 C714 1.524 . S
C714 C713 1.524 . S
C714 C715 1.397 . S
C714 C719 1.363 . S
C715 H686 0.950 . S
C715 C714 1.397 . S
C715 C716 1.334 . S
C716 H687 0.950 . S
C716 C715 1.334 . S
C716 C717 1.287 . S
C717 C716 1.287 . S
C717 C718 1.524 . S
C717 H720 0.999 . S
C718 H688 0.950 . S
C718 C717 1.524 . S
C718 C719 1.415 . S
C719 H689 0.950 . S
C719 C714 1.363 . S
C719 C718 1.415 . S
H720 C717 0.999 . S
H721 C702 0.913 . S
H722 C740 0.951 . S
H723 C742 0.951 . S
H724 C744 0.950 . S
H725 C745 0.950 . S
H726 C747 0.950 . S
H727 C750 0.950 . S
H728 C751 0.950 . S
H729 C753 0.950 . S
H730 C754 0.950 . S
H731 C755 0.951 . S
H732 C757 0.951 . S
H733 C759 0.950 . S
H734 C760 0.950 . S
H735 C762 0.950 . S
H736 C765 0.950 . S
H737 C766 0.950 . S
H738 C768 0.950 . S
H739 C769 0.950 . S
C740 H722 0.951 . S
C740 C741 1.366 . S
C740 C742 1.388 . S
C741 C740 1.366 . S
C741 C745 1.385 . S
C742 H723 0.951 . S
C742 C740 1.388 . S
C742 C743 1.366 . S
C743 C742 1.366 . S
C743 C744 1.414 . S
C743 C746 1.499 . S
C744 H724 0.950 . S
C744 C743 1.414 . S
C744 C745 1.374 . S
C745 H725 0.950 . S
C745 C741 1.385 . S
C745 C744 1.374 . S
C746 C743 1.499 . S
C746 C747 1.373 . S
C746 C748 1.389 . S
C747 H726 0.950 . S
C747 C746 1.373 . S
C747 C763 1.377 . S
C748 C746 1.389 . S
C748 C749 1.524 . S
C748 C762 1.377 . S
C749 C748 1.524 . S
C749 C750 1.397 . S
C749 C754 1.363 . S
C750 H727 0.950 . S
C750 C749 1.397 . S
C750 C751 1.334 . S
C751 H728 0.950 . S
C751 C750 1.334 . S
C751 C752 1.287 . S
C752 C751 1.287 . S
C752 C753 1.524 . S
C752 H771 0.913 . S
C753 H729 0.950 . S
C753 C752 1.524 . S
C753 C754 1.415 . S
C754 H730 0.950 . S
C754 C749 1.363 . S
C754 C753 1.415 . S
C755 H731 0.951 . S
C755 C756 1.366 . S
C755 C757 1.388 . S
C756 C755 1.366 . S
C756 C760 1.385 . S
C757 H732 0.951 . S
C757 C755 1.388 . S
C757 C758 1.366 . S
C758 C757 1.366 . S
C758 C759 1.414 . S
C758 C761 1.499 . S
C759 H733 0.950 . S
C759 C758 1.414 . S
C759 C760 1.374 . S
C760 H734 0.950 . S
C760 C756 1.385 . S
C760 C759 1.374 . S
C761 C758 1.499 . S
C761 C762 1.373 . S
C761 C763 1.389 . S
C762 H735 0.950 . S
C762 C748 1.377 . S
C762 C761 1.373 . S
C763 C747 1.377 . S
C763 C761 1.389 . S
C763 C764 1.524 . S
C764 C763 1.524 . S
C764 C765 1.397 . S
C764 C769 1.363 . S
C765 H736 0.950 . S
C765 C764 1.397 . S
C765 C766 1.334 . S
C766 H737 0.950 . S
C766 C765 1.334 . S
C766 C767 1.287 . S
C767 C766 1.287 . S
C767 C768 1.524 . S
C767 H770 0.999 . S
C768 H738 0.950 . S
C768 C767 1.524 . S
C768 C769 1.415 . S
C769 H739 0.950 . S
C769 C764 1.363 . S
C769 C768 1.415 . S
H770 C767 0.999 . S
H771 C752 0.913 . S
H772 C790 0.951 1_455 S
H773 C792 0.951 1_455 S
H774 C794 0.950 . S
H775 C795 0.950 . S
H776 C797 0.950 . S
H777 C800 0.950 . S
H778 C801 0.916 1_655 S
H779 C803 0.950 . S
H780 C804 0.950 . S
H781 C805 0.951 . S
H782 C807 0.951 . S
H783 C809 0.950 . S
H784 C810 0.950 . S
H785 C812 0.950 . S
H786 C815 0.950 1_455 S
H787 C816 0.950 . S
H788 C818 0.950 . S
H789 C819 0.950 . S
C790 H772 0.951 1_655 S
C790 C791 1.366 . S
C790 C792 1.388 . S
C791 C790 1.366 . S
C791 C795 1.385 . S
C792 H773 0.951 1_655 S
C792 C790 1.388 . S
C792 C793 1.366 1_554 S
C793 C792 1.366 1_556 S
C793 C794 1.414 . S
C793 C796 1.499 . S
C794 H774 0.950 . S
C794 C793 1.414 . S
C794 C795 1.374 1_556 S
C795 H775 0.950 . S
C795 C791 1.385 . S
C795 C794 1.374 1_554 S
C796 C793 1.499 . S
C796 C797 1.373 . S
C796 C798 1.399 . S
C797 H776 0.950 . S
C797 C796 1.373 . S
C797 C813 1.377 . S
C798 C796 1.399 . S
C798 C799 1.519 1_656 S
C798 C812 1.373 1_655 S
C799 C798 1.519 1_454 S
C799 C800 1.397 1_455 S
C799 C804 1.363 . S
C800 H777 0.950 . S
C800 C799 1.397 1_655 S
C800 C801 1.318 1_655 S
C801 H778 0.916 1_455 S
C801 C800 1.318 1_455 S
C801 C802 1.340 . S
C802 C801 1.340 . S
C802 C803 1.524 . S
C802 H821 0.913 . S
C803 H779 0.950 . S
C803 C802 1.524 . S
C803 C804 1.415 . S
C804 H780 0.950 . S
C804 C799 1.363 . S
C804 C803 1.415 . S
C805 H781 0.951 . S
C805 C806 1.366 1_655 S
C805 C807 1.388 . S
C806 C805 1.366 1_455 S
C806 C810 1.385 . S
C807 H782 0.951 . S
C807 C805 1.388 . S
C807 C808 1.366 1_655 S
C808 C807 1.366 1_455 S
C808 C809 1.414 . S
C808 C811 1.499 1_455 S
C809 H783 0.950 . S
C809 C808 1.414 . S
C809 C810 1.374 . S
C810 H784 0.950 . S
C810 C806 1.385 . S
C810 C809 1.374 . S
C811 C808 1.499 1_655 S
C811 C812 1.373 1_655 S
C811 C813 1.389 . S
C812 H785 0.950 . S
C812 C798 1.373 1_455 S
C812 C811 1.373 1_455 S
C813 C797 1.377 . S
C813 C811 1.389 . S
C813 C814 1.524 . S
C814 C813 1.524 . S
C814 C815 1.397 . S
C814 C819 1.363 . S
C815 H786 0.950 1_655 S
C815 C814 1.397 . S
C815 C816 1.334 . S
C816 H787 0.950 . S
C816 C815 1.334 . S
C816 C817 1.287 . S
C817 C816 1.287 . S
C817 C818 1.524 . S
C817 H820 0.999 . S
C818 H788 0.950 . S
C818 C817 1.524 . S
C818 C819 1.415 . S
C819 H789 0.950 . S
C819 C814 1.363 . S
C819 C818 1.415 . S
H820 C817 0.999 . S
H821 C802 0.913 . S
H822 C840 0.951 . S
H823 C842 0.951 . S
H824 C844 0.950 1_545 S
H825 C845 0.950 . S
H826 C847 0.950 1_544 S
H827 C850 0.950 . S
H828 C851 0.950 . S
H829 C853 0.950 . S
H830 C854 0.950 . S
H831 C855 0.951 . S
H832 C857 0.951 . S
H833 C859 0.950 . S
H834 C860 0.950 . S
H835 C862 0.950 . S
H836 C865 0.950 1_566 S
H837 C866 0.950 . S
H838 C868 0.950 . S
H839 C869 0.950 . S
C840 H822 0.951 . S
C840 C841 1.366 . S
C840 C842 1.388 1_554 S
C841 C840 1.366 . S
C841 C845 1.385 . S
C842 H823 0.951 . S
C842 C840 1.388 1_556 S
C842 C843 1.366 . S
C843 C842 1.366 . S
C843 C844 1.414 1_556 S
C843 C846 1.499 . S
C844 H824 0.950 1_565 S
C844 C843 1.414 1_554 S
C844 C845 1.374 . S
C845 H825 0.950 . S
C845 C841 1.385 . S
C845 C844 1.374 . S
C846 C843 1.499 . S
C846 C847 1.373 . S
C846 C848 1.389 . S
C847 H826 0.950 1_566 S
C847 C846 1.373 . S
C847 C863 1.366 1_565 S
C848 C846 1.389 . S
C848 C849 1.524 . S
C848 C862 1.377 . S
C849 C848 1.524 . S
C849 C850 1.397 . S
C849 C854 1.363 . S
C850 H827 0.950 . S
C850 C849 1.397 . S
C850 C851 1.334 . S
C851 H828 0.950 . S
C851 C850 1.334 . S
C851 C852 1.287 . S
C852 C851 1.287 . S
C852 C853 1.524 . S
C852 H871 0.913 . S
C853 H829 0.950 . S
C853 C852 1.524 . S
C853 C854 1.415 . S
C854 H830 0.950 . S
C854 C849 1.363 . S
C854 C853 1.415 . S
C855 H831 0.951 . S
C855 C856 1.366 . S
C855 C857 1.388 . S
C856 C855 1.366 . S
C856 C860 1.385 1_545 S
C857 H832 0.951 . S
C857 C855 1.388 . S
C857 C858 1.313 1_545 S
C858 C857 1.313 1_565 S
C858 C859 1.453 . S
C858 C861 1.514 . S
C859 H833 0.950 . S
C859 C858 1.453 . S
C859 C860 1.374 . S
C860 H834 0.950 . S
C860 C856 1.385 1_565 S
C860 C859 1.374 . S
C861 C858 1.514 . S
C861 C862 1.373 . S
C861 C863 1.369 1_565 S
C862 H835 0.950 . S
C862 C848 1.377 . S
C862 C861 1.373 . S
C863 C847 1.366 1_545 S
C863 C861 1.369 1_545 S
C863 C864 1.546 1_556 S
C864 C863 1.546 1_554 S
C864 C865 1.401 . S
C864 C869 1.370 . S
C865 H836 0.950 1_544 S
C865 C864 1.401 . S
C865 C866 1.334 . S
C866 H837 0.950 . S
C866 C865 1.334 . S
C866 C867 1.287 . S
C867 C866 1.287 . S
C867 C868 1.524 . S
C867 H870 0.999 . S
C868 H838 0.950 . S
C868 C867 1.524 . S
C868 C869 1.415 . S
C869 H839 0.950 . S
C869 C864 1.370 . S
C869 C868 1.415 . S
H870 C867 0.999 . S
H871 C852 0.913 . S
H872 C890 0.951 . S
H873 C892 0.951 . S
H874 C894 0.950 . S
H875 C895 0.950 . S
H876 C897 0.950 1_554 S
H877 C900 0.950 . S
H878 C901 0.950 . S
H879 C903 0.950 . S
H880 C904 0.950 . S
H881 C905 0.951 . S
H882 C907 0.951 . S
H883 C909 0.950 . S
H884 C910 0.950 . S
H885 C912 0.950 . S
H886 C915 0.950 1_556 S
H887 C916 0.950 . S
H888 C918 0.950 . S
H889 C919 0.950 . S
C890 H872 0.951 . S
C890 C891 1.366 . S
C890 C892 1.388 1_554 S
C891 C890 1.366 . S
C891 C895 1.385 . S
C892 H873 0.951 . S
C892 C890 1.388 1_556 S
C892 C893 1.366 . S
C893 C892 1.366 . S
C893 C894 1.414 1_556 S
C893 C896 1.499 . S
C894 H874 0.950 . S
C894 C893 1.414 1_554 S
C894 C895 1.374 . S
C895 H875 0.950 . S
C895 C891 1.385 . S
C895 C894 1.374 . S
C896 C893 1.499 . S
C896 C897 1.373 . S
C896 C898 1.389 . S
C897 H876 0.950 1_556 S
C897 C896 1.373 . S
C897 C913 1.377 . S
C898 C896 1.389 . S
C898 C899 1.524 . S
C898 C912 1.377 . S
C899 C898 1.524 . S
C899 C900 1.397 . S
C899 C904 1.363 . S
C900 H877 0.950 . S
C900 C899 1.397 . S
C900 C901 1.334 . S
C901 H878 0.950 . S
C901 C900 1.334 . S
C901 C902 1.287 . S
C902 C901 1.287 . S
C902 C903 1.524 . S
C902 H921 0.913 . S
C903 H879 0.950 . S
C903 C902 1.524 . S
C903 C904 1.415 . S
C904 H880 0.950 . S
C904 C899 1.363 . S
C904 C903 1.415 . S
C905 H881 0.951 . S
C905 C906 1.366 . S
C905 C907 1.388 . S
C906 C905 1.366 . S
C906 C910 1.385 . S
C907 H882 0.951 . S
C907 C905 1.388 . S
C907 C908 1.366 . S
C908 C907 1.366 . S
C908 C909 1.414 . S
C908 C911 1.499 . S
C909 H883 0.950 . S
C909 C908 1.414 . S
C909 C910 1.374 . S
C910 H884 0.950 . S
C910 C906 1.385 . S
C910 C909 1.374 . S
C911 C908 1.499 . S
C911 C912 1.373 . S
C911 C913 1.389 . S
C912 H885 0.950 . S
C912 C898 1.377 . S
C912 C911 1.373 . S
C913 C897 1.377 . S
C913 C911 1.389 . S
C913 C914 1.524 1_556 S
C914 C913 1.524 1_554 S
C914 C915 1.397 . S
C914 C919 1.363 . S
C915 H886 0.950 1_554 S
C915 C914 1.397 . S
C915 C916 1.334 . S
C916 H887 0.950 . S
C916 C915 1.334 . S
C916 C917 1.287 . S
C917 C916 1.287 . S
C917 C918 1.524 . S
C917 H920 0.999 . S
C918 H888 0.950 . S
C918 C917 1.524 . S
C918 C919 1.415 . S
C919 H889 0.950 . S
C919 C914 1.363 . S
C919 C918 1.415 . S
H920 C917 0.999 . S
H921 C902 0.913 . S
H922 C940 0.951 . S
H923 C942 0.951 . S
H924 C944 0.950 . S
H925 C945 0.950 . S
H926 C947 0.950 . S
H927 C950 0.950 . S
H928 C951 0.950 . S
H929 C953 0.950 . S
H930 C954 0.950 . S
H931 C955 0.951 . S
H932 C957 0.951 . S
H933 C959 0.950 . S
H934 C960 0.950 . S
H935 C962 0.950 . S
H936 C965 0.950 . S
H937 C966 0.950 . S
H938 C968 0.950 . S
H939 C969 0.950 . S
C940 H922 0.951 . S
C940 C941 1.366 1_556 S
C940 C942 1.388 . S
C941 C940 1.366 1_554 S
C941 C945 1.385 . S
C942 H923 0.951 . S
C942 C940 1.388 . S
C942 C943 1.366 . S
C943 C942 1.366 . S
C943 C944 1.414 1_556 S
C943 C946 1.499 . S
C944 H924 0.950 . S
C944 C943 1.414 1_554 S
C944 C945 1.374 . S
C945 H925 0.950 . S
C945 C941 1.385 . S
C945 C944 1.374 . S
C946 C943 1.499 . S
C946 C947 1.373 . S
C946 C948 1.389 . S
C947 H926 0.950 . S
C947 C946 1.373 . S
C947 C963 1.377 . S
C948 C946 1.389 . S
C948 C949 1.524 . S
C948 C962 1.377 . S
C949 C948 1.524 . S
C949 C950 1.397 1_556 S
C949 C954 1.363 . S
C950 H927 0.950 . S
C950 C949 1.397 1_554 S
C950 C951 1.334 . S
C951 H928 0.950 . S
C951 C950 1.334 . S
C951 C952 1.287 . S
C952 C951 1.287 . S
C952 C953 1.524 1_554 S
C952 H971 0.913 . S
C953 H929 0.950 . S
C953 C952 1.524 1_556 S
C953 C954 1.415 . S
C954 H930 0.950 . S
C954 C949 1.363 . S
C954 C953 1.415 . S
C955 H931 0.951 . S
C955 C956 1.366 . S
C955 C957 1.388 . S
C956 C955 1.366 . S
C956 C960 1.385 . S
C957 H932 0.951 . S
C957 C955 1.388 . S
C957 C958 1.366 . S
C958 C957 1.366 . S
C958 C959 1.414 . S
C958 C961 1.499 . S
C959 H933 0.950 . S
C959 C958 1.414 . S
C959 C960 1.374 . S
C960 H934 0.950 . S
C960 C956 1.385 . S
C960 C959 1.374 . S
C961 C958 1.499 . S
C961 C962 1.373 . S
C961 C963 1.389 . S
C962 H935 0.950 . S
C962 C948 1.377 . S
C962 C961 1.373 . S
C963 C947 1.377 . S
C963 C961 1.389 . S
C963 C964 1.524 . S
C964 C963 1.524 . S
C964 C965 1.397 . S
C964 C969 1.363 . S
C965 H936 0.950 . S
C965 C964 1.397 . S
C965 C966 1.334 . S
C966 H937 0.950 . S
C966 C965 1.334 . S
C966 C967 1.287 . S
C967 C966 1.287 . S
C967 C968 1.524 . S
C967 H970 0.999 . S
C968 H938 0.950 . S
C968 C967 1.524 . S
C968 C969 1.415 . S
C969 H939 0.950 . S
C969 C964 1.363 . S
C969 C968 1.415 . S
H970 C967 0.999 . S
H971 C952 0.913 . S
H972 C990 0.951 . S
H973 C992 0.951 . S
H974 C994 0.950 . S
H975 C995 0.950 . S
H976 C997 0.950 . S
H977 C1000 0.950 . S
H978 C1001 0.950 . S
H979 C1003 0.950 . S
H980 C1004 0.950 . S
H981 C1005 0.951 . S
H982 C1007 0.951 . S
H983 C1009 0.950 1_554 S
H984 C1010 0.950 . S
H985 C1012 0.950 . S
H986 C1015 0.950 . S
H987 C1016 0.950 . S
H988 C1018 0.950 . S
H989 C1019 0.950 . S
C990 H972 0.951 . S
C990 C991 1.366 . S
C990 C992 1.388 . S
C991 C990 1.366 . S
C991 C995 1.385 . S
C992 H973 0.951 . S
C992 C990 1.388 . S
C992 C993 1.366 . S
C993 C992 1.366 . S
C993 C994 1.414 . S
C993 C996 1.499 . S
C994 H974 0.950 . S
C994 C993 1.414 . S
C994 C995 1.374 . S
C995 H975 0.950 . S
C995 C991 1.385 . S
C995 C994 1.374 . S
C996 C993 1.499 . S
C996 C997 1.373 . S
C996 C998 1.389 . S
C997 H976 0.950 . S
C997 C996 1.373 . S
C997 C1013 1.377 1_554 S
C998 C996 1.389 . S
C998 C999 1.524 . S
C998 C1012 1.377 . S
C999 C998 1.524 . S
C999 C1000 1.397 . S
C999 C1004 1.363 . S
C1000 H977 0.950 . S
C1000 C999 1.397 . S
C1000 C1001 1.334 . S
C1001 H978 0.950 . S
C1001 C1000 1.334 . S
C1001 C1002 1.287 . S
C1002 C1001 1.287 . S
C1002 C1003 1.524 . S
C1002 H1021 0.913 . S
C1003 H979 0.950 . S
C1003 C1002 1.524 . S
C1003 C1004 1.415 . S
C1004 H980 0.950 . S
C1004 C999 1.363 . S
C1004 C1003 1.415 . S
C1005 H981 0.951 . S
C1005 C1006 1.366 . S
C1005 C1007 1.388 . S
C1006 C1005 1.366 . S
C1006 C1010 1.385 . S
C1007 H982 0.951 . S
C1007 C1005 1.388 . S
C1007 C1008 1.366 . S
C1008 C1007 1.366 . S
C1008 C1009 1.414 . S
C1008 C1011 1.499 . S
C1009 H983 0.950 1_556 S
C1009 C1008 1.414 . S
C1009 C1010 1.374 . S
C1010 H984 0.950 . S
C1010 C1006 1.385 . S
C1010 C1009 1.374 . S
C1011 C1008 1.499 . S
C1011 C1012 1.373 1_556 S
C1011 C1013 1.389 . S
C1012 H985 0.950 . S
C1012 C998 1.377 . S
C1012 C1011 1.373 1_554 S
C1013 C997 1.377 1_556 S
C1013 C1011 1.389 . S
C1013 C1014 1.524 . S
C1014 C1013 1.524 . S
C1014 C1015 1.397 1_455 S
C1014 C1019 1.363 . S
C1015 H986 0.950 . S
C1015 C1014 1.397 1_655 S
C1015 C1016 1.334 . S
C1016 H987 0.950 . S
C1016 C1015 1.334 . S
C1016 C1017 1.287 . S
C1017 C1016 1.287 . S
C1017 C1018 1.524 1_655 S
C1017 H1020 0.999 . S
C1018 H988 0.950 . S
C1018 C1017 1.524 1_455 S
C1018 C1019 1.415 . S
C1019 H989 0.950 . S
C1019 C1014 1.363 . S
C1019 C1018 1.415 . S
H1020 C1017 0.999 . S
H1021 C1002 0.913 . S
H1022 C1040 0.951 . S
H1023 C1042 0.951 . S
H1024 C1044 0.950 . S
H1025 C1045 0.950 . S
H1026 C1047 0.950 . S
H1027 C1050 0.950 . S
H1028 C1051 0.950 . S
H1029 C1053 0.950 . S
H1030 C1054 0.950 . S
H1031 C1055 0.951 . S
H1032 C1057 0.951 1_554 S
H1033 C1059 0.950 . S
H1034 C1060 0.950 . S
H1035 C1062 0.950 . S
H1036 C1065 0.950 1_556 S
H1037 C1066 0.950 1_556 S
H1038 C1068 0.950 . S
H1039 C1069 0.950 . S
C1040 H1022 0.951 . S
C1040 C1041 1.366 . S
C1040 C1042 1.388 . S
C1041 C1040 1.366 . S
C1041 C1045 1.385 . S
C1042 H1023 0.951 . S
C1042 C1040 1.388 . S
C1042 C1043 1.366 . S
C1043 C1042 1.366 . S
C1043 C1044 1.414 . S
C1043 C1046 1.499 . S
C1044 H1024 0.950 . S
C1044 C1043 1.414 . S
C1044 C1045 1.374 . S
C1045 H1025 0.950 . S
C1045 C1041 1.385 . S
C1045 C1044 1.374 . S
C1046 C1043 1.499 . S
C1046 C1047 1.373 . S
C1046 C1048 1.389 . S
C1047 H1026 0.950 . S
C1047 C1046 1.373 . S
C1047 C1063 1.377 . S
C1048 C1046 1.389 . S
C1048 C1049 1.524 . S
C1048 C1062 1.377 1_554 S
C1049 C1048 1.524 . S
C1049 C1050 1.397 1_545 S
C1049 C1054 1.363 1_554 S
C1050 H1027 0.950 . S
C1050 C1049 1.397 1_565 S
C1050 C1051 1.334 . S
C1051 H1028 0.950 . S
C1051 C1050 1.334 . S
C1051 C1052 1.289 . S
C1052 C1051 1.289 . S
C1052 C1053 1.522 1_554 S
C1052 H1071 0.913 1_554 S
C1053 H1029 0.950 . S
C1053 C1052 1.522 1_556 S
C1053 C1054 1.415 1_565 S
C1054 H1030 0.950 . S
C1054 C1049 1.363 1_556 S
C1054 C1053 1.415 1_545 S
C1055 H1031 0.951 . S
C1055 C1056 1.366 . S
C1055 C1057 1.388 . S
C1056 C1055 1.366 . S
C1056 C1060 1.385 . S
C1057 H1032 0.951 1_556 S
C1057 C1055 1.388 . S
C1057 C1058 1.366 . S
C1058 C1057 1.366 . S
C1058 C1059 1.414 . S
C1058 C1061 1.499 . S
C1059 H1033 0.950 . S
C1059 C1058 1.414 . S
C1059 C1060 1.374 . S
C1060 H1034 0.950 . S
C1060 C1056 1.385 . S
C1060 C1059 1.374 . S
C1061 C1058 1.499 . S
C1061 C1062 1.373 . S
C1061 C1063 1.389 1_556 S
C1062 H1035 0.950 . S
C1062 C1048 1.377 1_556 S
C1062 C1061 1.373 . S
C1063 C1047 1.377 . S
C1063 C1061 1.389 1_554 S
C1063 C1064 1.524 . S
C1064 C1063 1.524 . S
C1064 C1065 1.397 . S
C1064 C1069 1.363 . S
C1065 H1036 0.950 1_554 S
C1065 C1064 1.397 . S
C1065 C1066 1.334 . S
C1066 H1037 0.950 1_554 S
C1066 C1065 1.334 . S
C1066 C1067 1.287 . S
C1067 C1066 1.287 . S
C1067 C1068 1.524 . S
C1067 H1070 0.999 . S
C1068 H1038 0.950 . S
C1068 C1067 1.524 . S
C1068 C1069 1.415 . S
C1069 H1039 0.950 . S
C1069 C1064 1.363 . S
C1069 C1068 1.415 . S
H1070 C1067 0.999 . S
H1071 C1052 0.913 1_556 S
H1072 C1090 0.951 . S
H1073 C1092 0.951 . S
H1074 C1094 0.950 . S
H1075 C1095 0.950 . S
H1076 C1097 0.950 . S
H1077 C1100 0.950 . S
H1078 C1101 0.950 . S
H1079 C1103 0.950 . S
H1080 C1104 0.950 . S
H1081 C1105 0.951 . S
H1082 C1107 0.951 . S
H1083 C1109 0.950 . S
H1084 C1110 0.950 . S
H1085 C1112 0.950 . S
H1086 C1115 0.950 . S
H1087 C1116 0.950 . S
H1088 C1118 0.950 . S
H1089 C1119 0.950 . S
C1090 H1072 0.951 . S
C1090 C1091 1.366 . S
C1090 C1092 1.388 . S
C1091 C1090 1.366 . S
C1091 C1095 1.385 . S
C1092 H1073 0.951 . S
C1092 C1090 1.388 . S
C1092 C1093 1.366 . S
C1093 C1092 1.366 . S
C1093 C1094 1.414 . S
C1093 C1096 1.499 . S
C1094 H1074 0.950 . S
C1094 C1093 1.414 . S
C1094 C1095 1.374 . S
C1095 H1075 0.950 . S
C1095 C1091 1.385 . S
C1095 C1094 1.374 . S
C1096 C1093 1.499 . S
C1096 C1097 1.373 . S
C1096 C1098 1.389 . S
C1097 H1076 0.950 . S
C1097 C1096 1.373 . S
C1097 C1113 1.377 1_554 S
C1098 C1096 1.389 . S
C1098 C1099 1.524 . S
C1098 C1112 1.377 . S
C1099 C1098 1.524 . S
C1099 C1100 1.397 . S
C1099 C1104 1.363 . S
C1100 H1077 0.950 . S
C1100 C1099 1.397 . S
C1100 C1101 1.334 . S
C1101 H1078 0.950 . S
C1101 C1100 1.334 . S
C1101 C1102 1.287 . S
C1102 C1101 1.287 . S
C1102 C1103 1.524 . S
C1102 H1121 0.913 . S
C1103 H1079 0.950 . S
C1103 C1102 1.524 . S
C1103 C1104 1.415 . S
C1104 H1080 0.950 . S
C1104 C1099 1.363 . S
C1104 C1103 1.415 . S
C1105 H1081 0.951 . S
C1105 C1106 1.366 . S
C1105 C1107 1.388 . S
C1106 C1105 1.366 . S
C1106 C1110 1.385 . S
C1107 H1082 0.951 . S
C1107 C1105 1.388 . S
C1107 C1108 1.366 . S
C1108 C1107 1.366 . S
C1108 C1109 1.414 . S
C1108 C1111 1.499 . S
C1109 H1083 0.950 . S
C1109 C1108 1.414 . S
C1109 C1110 1.374 . S
C1110 H1084 0.950 . S
C1110 C1106 1.385 . S
C1110 C1109 1.374 . S
C1111 C1108 1.499 . S
C1111 C1112 1.373 1_556 S
C1111 C1113 1.389 . S
C1112 H1085 0.950 . S
C1112 C1098 1.377 . S
C1112 C1111 1.373 1_554 S
C1113 C1097 1.377 1_556 S
C1113 C1111 1.389 . S
C1113 C1114 1.524 . S
C1114 C1113 1.524 . S
C1114 C1115 1.397 . S
C1114 C1119 1.363 . S
C1115 H1086 0.950 . S
C1115 C1114 1.397 . S
C1115 C1116 1.334 . S
C1116 H1087 0.950 . S
C1116 C1115 1.334 . S
C1116 C1117 1.287 . S
C1117 C1116 1.287 . S
C1117 C1118 1.524 . S
C1117 H1120 0.999 . S
C1118 H1088 0.950 . S
C1118 C1117 1.524 . S
C1118 C1119 1.415 . S
C1119 H1089 0.950 . S
C1119 C1114 1.363 . S
C1119 C1118 1.415 . S
H1120 C1117 0.999 . S
H1121 C1102 0.913 . S
H1122 C1140 0.951 . S
H1123 C1142 0.951 . S
H1124 C1144 0.950 . S
H1125 C1145 0.950 . S
H1126 C1147 0.950 . S
H1127 C1150 0.950 . S
H1128 C1151 0.950 . S
H1129 C1153 0.950 . S
H1130 C1154 0.950 . S
H1131 C1155 0.951 . S
H1132 C1157 0.951 1_554 S
H1133 C1159 0.950 . S
H1134 C1160 0.950 . S
H1135 C1162 0.950 . S
H1136 C1165 0.950 . S
H1137 C1166 0.950 . S
H1138 C1168 0.950 . S
H1139 C1169 0.950 . S
C1140 H1122 0.951 . S
C1140 C1141 1.366 . S
C1140 C1142 1.388 . S
C1141 C1140 1.366 . S
C1141 C1145 1.385 . S
C1142 H1123 0.951 . S
C1142 C1140 1.388 . S
C1142 C1143 1.366 . S
C1143 C1142 1.366 . S
C1143 C1144 1.414 . S
C1143 C1146 1.499 . S
C1144 H1124 0.950 . S
C1144 C1143 1.414 . S
C1144 C1145 1.374 . S
C1145 H1125 0.950 . S
C1145 C1141 1.385 . S
C1145 C1144 1.374 . S
C1146 C1143 1.499 . S
C1146 C1147 1.373 . S
C1146 C1148 1.389 . S
C1147 H1126 0.950 . S
C1147 C1146 1.373 . S
C1147 C1163 1.377 . S
C1148 C1146 1.389 . S
C1148 C1149 1.524 . S
C1148 C1162 1.377 1_554 S
C1149 C1148 1.524 . S
C1149 C1150 1.397 . S
C1149 C1154 1.363 1_554 S
C1150 H1127 0.950 . S
C1150 C1149 1.397 . S
C1150 C1151 1.334 . S
C1151 H1128 0.950 . S
C1151 C1150 1.334 . S
C1151 C1152 1.287 . S
C1152 C1151 1.287 . S
C1152 C1153 1.524 1_554 S
C1152 H1171 0.913 . S
C1153 H1129 0.950 . S
C1153 C1152 1.524 1_556 S
C1153 C1154 1.415 . S
C1154 H1130 0.950 . S
C1154 C1149 1.363 1_556 S
C1154 C1153 1.415 . S
C1155 H1131 0.951 . S
C1155 C1156 1.366 . S
C1155 C1157 1.388 . S
C1156 C1155 1.366 . S
C1156 C1160 1.385 . S
C1157 H1132 0.951 1_556 S
C1157 C1155 1.388 . S
C1157 C1158 1.366 . S
C1158 C1157 1.366 . S
C1158 C1159 1.414 . S
C1158 C1161 1.499 . S
C1159 H1133 0.950 . S
C1159 C1158 1.414 . S
C1159 C1160 1.374 . S
C1160 H1134 0.950 . S
C1160 C1156 1.385 . S
C1160 C1159 1.374 . S
C1161 C1158 1.499 . S
C1161 C1162 1.373 . S
C1161 C1163 1.389 1_556 S
C1162 H1135 0.950 . S
C1162 C1148 1.377 1_556 S
C1162 C1161 1.373 . S
C1163 C1147 1.377 . S
C1163 C1161 1.389 1_554 S
C1163 C1164 1.524 . S
C1164 C1163 1.524 . S
C1164 C1165 1.397 1_554 S
C1164 C1169 1.363 . S
C1165 H1136 0.950 . S
C1165 C1164 1.397 1_556 S
C1165 C1166 1.334 . S
C1166 H1137 0.950 . S
C1166 C1165 1.334 . S
C1166 C1167 1.287 1_556 S
C1167 C1166 1.287 1_554 S
C1167 C1168 1.524 . S
C1167 H1170 0.999 . S
C1168 H1138 0.950 . S
C1168 C1167 1.524 . S
C1168 C1169 1.415 . S
C1169 H1139 0.950 . S
C1169 C1164 1.363 . S
C1169 C1168 1.415 . S
H1170 C1167 0.999 . S
H1171 C1152 0.913 . S
H1172 C1190 0.951 . S
H1173 C1192 0.951 . S
H1174 C1194 0.950 . S
H1175 C1195 0.950 . S
H1176 C1197 0.950 . S
H1177 C1200 0.950 . S
H1178 C1201 0.950 . S
H1179 C1203 0.950 . S
H1180 C1204 0.950 . S
H1181 C1205 0.951 . S
H1182 C1207 0.951 . S
H1183 C1209 0.950 . S
H1184 C1210 0.950 . S
H1185 C1212 0.950 1_455 S
H1186 C1215 0.950 . S
H1187 C1216 0.950 . S
H1188 C1218 0.950 . S
H1189 C1219 0.950 . S
C1190 H1172 0.951 . S
C1190 C1191 1.366 . S
C1190 C1192 1.388 . S
C1191 C1190 1.366 . S
C1191 C1195 1.385 . S
C1192 H1173 0.951 . S
C1192 C1190 1.388 . S
C1192 C1193 1.366 . S
C1193 C1192 1.366 . S
C1193 C1194 1.414 . S
C1193 C1196 1.499 . S
C1194 H1174 0.950 . S
C1194 C1193 1.414 . S
C1194 C1195 1.374 . S
C1195 H1175 0.950 . S
C1195 C1191 1.385 . S
C1195 C1194 1.374 . S
C1196 C1193 1.499 . S
C1196 C1197 1.373 . S
C1196 C1198 1.389 . S
C1197 H1176 0.950 . S
C1197 C1196 1.373 . S
C1197 C1213 1.377 . S
C1198 C1196 1.389 . S
C1198 C1199 1.524 1_655 S
C1198 C1212 1.377 . S
C1199 C1198 1.524 1_455 S
C1199 C1200 1.397 . S
C1199 C1204 1.363 . S
C1200 H1177 0.950 . S
C1200 C1199 1.397 . S
C1200 C1201 1.334 . S
C1201 H1178 0.950 . S
C1201 C1200 1.334 . S
C1201 C1202 1.287 . S
C1202 C1201 1.287 . S
C1202 C1203 1.524 . S
C1202 H1221 0.913 . S
C1203 H1179 0.950 . S
C1203 C1202 1.524 . S
C1203 C1204 1.415 . S
C1204 H1180 0.950 . S
C1204 C1199 1.363 . S
C1204 C1203 1.415 . S
C1205 H1181 0.951 . S
C1205 C1206 1.366 . S
C1205 C1207 1.388 . S
C1206 C1205 1.366 . S
C1206 C1210 1.385 . S
C1207 H1182 0.951 . S
C1207 C1205 1.388 . S
C1207 C1208 1.366 . S
C1208 C1207 1.366 . S
C1208 C1209 1.414 . S
C1208 C1211 1.499 . S
C1209 H1183 0.950 . S
C1209 C1208 1.414 . S
C1209 C1210 1.374 . S
C1210 H1184 0.950 . S
C1210 C1206 1.385 . S
C1210 C1209 1.374 . S
C1211 C1208 1.499 . S
C1211 C1212 1.373 . S
C1211 C1213 1.389 . S
C1212 H1185 0.950 1_655 S
C1212 C1198 1.377 . S
C1212 C1211 1.373 . S
C1213 C1197 1.377 . S
C1213 C1211 1.389 . S
C1213 C1214 1.524 . S
C1214 C1213 1.524 . S
C1214 C1215 1.397 . S
C1214 C1219 1.363 . S
C1215 H1186 0.950 . S
C1215 C1214 1.397 . S
C1215 C1216 1.334 . S
C1216 H1187 0.950 . S
C1216 C1215 1.334 . S
C1216 C1217 1.287 . S
C1217 C1216 1.287 . S
C1217 C1218 1.524 . S
C1217 H1220 0.999 . S
C1218 H1188 0.950 . S
C1218 C1217 1.524 . S
C1218 C1219 1.415 . S
C1219 H1189 0.950 . S
C1219 C1214 1.363 . S
C1219 C1218 1.415 . S
H1220 C1217 0.999 . S
H1221 C1202 0.913 . S
H1222 C1240 0.959 . S
H1223 C1242 0.951 1_545 S
H1224 C1244 0.950 . S
H1225 C1245 0.950 . S
H1226 C1247 0.950 . S
H1227 C1250 0.950 1_565 S
H1228 C1251 0.950 . S
H1229 C1253 0.950 . S
H1230 C1254 0.950 . S
H1231 C1255 0.951 . S
H1232 C1257 0.951 . S
H1233 C1259 0.950 . S
H1234 C1260 0.950 . S
H1235 C1262 0.950 1_545 S
H1236 C1265 0.950 . S
H1237 C1266 0.950 . S
H1238 C1268 0.950 . S
H1239 C1269 0.950 . S
C1240 H1222 0.959 . S
C1240 C1241 1.366 . S
C1240 C1242 1.388 . S
C1241 C1240 1.366 . S
C1241 C1245 1.385 . S
C1242 H1223 0.951 1_565 S
C1242 C1240 1.388 . S
C1242 C1243 1.366 . S
C1243 C1242 1.366 . S
C1243 C1244 1.414 . S
C1243 C1246 1.499 . S
C1244 H1224 0.950 . S
C1244 C1243 1.414 . S
C1244 C1245 1.374 . S
C1245 H1225 0.950 . S
C1245 C1241 1.385 . S
C1245 C1244 1.374 . S
C1246 C1243 1.499 . S
C1246 C1247 1.373 . S
C1246 C1248 1.389 . S
C1247 H1226 0.950 . S
C1247 C1246 1.373 . S
C1247 C1263 1.377 . S
C1248 C1246 1.389 . S
C1248 C1249 1.524 1_565 S
C1248 C1262 1.377 . S
C1249 C1248 1.524 1_545 S
C1249 C1250 1.397 . S
C1249 C1254 1.363 . S
C1250 H1227 0.950 1_545 S
C1250 C1249 1.397 . S
C1250 C1251 1.334 . S
C1251 H1228 0.950 . S
C1251 C1250 1.334 . S
C1251 C1252 1.287 . S
C1252 C1251 1.287 . S
C1252 C1253 1.524 . S
C1252 H1271 0.913 . S
C1253 H1229 0.950 . S
C1253 C1252 1.524 . S
C1253 C1254 1.415 . S
C1254 H1230 0.950 . S
C1254 C1249 1.363 . S
C1254 C1253 1.415 . S
C1255 H1231 0.951 . S
C1255 C1256 1.366 . S
C1255 C1257 1.388 . S
C1256 C1255 1.366 . S
C1256 C1260 1.385 1_565 S
C1257 H1232 0.951 . S
C1257 C1255 1.388 . S
C1257 C1258 1.366 . S
C1258 C1257 1.366 . S
C1258 C1259 1.414 1_565 S
C1258 C1261 1.499 . S
C1259 H1233 0.950 . S
C1259 C1258 1.414 1_545 S
C1259 C1260 1.374 . S
C1260 H1234 0.950 . S
C1260 C1256 1.385 1_545 S
C1260 C1259 1.374 . S
C1261 C1258 1.499 . S
C1261 C1262 1.373 . S
C1261 C1263 1.389 . S
C1262 H1235 0.950 1_565 S
C1262 C1248 1.377 . S
C1262 C1261 1.373 . S
C1263 C1247 1.377 . S
C1263 C1261 1.389 . S
C1263 C1264 1.524 . S
C1264 C1263 1.524 . S
C1264 C1265 1.397 . S
C1264 C1269 1.363 . S
C1265 H1236 0.950 . S
C1265 C1264 1.397 . S
C1265 C1266 1.334 . S
C1266 H1237 0.950 . S
C1266 C1265 1.334 . S
C1266 C1267 1.287 . S
C1267 C1266 1.287 . S
C1267 C1268 1.524 . S
C1267 H1270 0.999 . S
C1268 H1238 0.950 . S
C1268 C1267 1.524 . S
C1268 C1269 1.415 . S
C1269 H1239 0.950 . S
C1269 C1264 1.363 . S
C1269 C1268 1.415 . S
H1270 C1267 0.999 . S
H1271 C1252 0.913 . S
H1272 C1290 0.951 . S
H1273 C1292 0.951 . S
H1274 C1294 0.950 . S
H1275 C1295 0.950 . S
H1276 C1297 0.950 . S
H1277 C1300 0.950 . S
H1278 C1301 0.950 . S
H1279 C1303 0.950 . S
H1280 C1304 0.950 . S
H1281 C1305 0.951 . S
H1282 C1307 0.951 . S
H1283 C1309 0.950 . S
H1284 C1310 0.950 . S
H1285 C1312 0.950 . S
H1286 C1315 0.950 . S
H1287 C1316 0.950 . S
H1288 C1318 0.950 . S
H1289 C1319 0.950 . S
C1290 H1272 0.951 . S
C1290 C1291 1.366 . S
C1290 C1292 1.388 . S
C1291 C1290 1.366 . S
C1291 C1295 1.385 . S
C1292 H1273 0.951 . S
C1292 C1290 1.388 . S
C1292 C1293 1.366 . S
C1293 C1292 1.366 . S
C1293 C1294 1.414 . S
C1293 C1296 1.499 . S
C1294 H1274 0.950 . S
C1294 C1293 1.414 . S
C1294 C1295 1.374 . S
C1295 H1275 0.950 . S
C1295 C1291 1.385 . S
C1295 C1294 1.374 . S
C1296 C1293 1.499 . S
C1296 C1297 1.373 . S
C1296 C1298 1.389 . S
C1297 H1276 0.950 . S
C1297 C1296 1.373 . S
C1297 C1313 1.377 . S
C1298 C1296 1.389 . S
C1298 C1299 1.524 . S
C1298 C1312 1.377 . S
C1299 C1298 1.524 . S
C1299 C1300 1.397 . S
C1299 C1304 1.363 . S
C1300 H1277 0.950 . S
C1300 C1299 1.397 . S
C1300 C1301 1.334 . S
C1301 H1278 0.950 . S
C1301 C1300 1.334 . S
C1301 C1302 1.287 . S
C1302 C1301 1.287 . S
C1302 C1303 1.524 . S
C1302 H1321 0.913 . S
C1303 H1279 0.950 . S
C1303 C1302 1.524 . S
C1303 C1304 1.415 . S
C1304 H1280 0.950 . S
C1304 C1299 1.363 . S
C1304 C1303 1.415 . S
C1305 H1281 0.951 . S
C1305 C1306 1.366 . S
C1305 C1307 1.388 . S
C1306 C1305 1.366 . S
C1306 C1310 1.385 . S
C1307 H1282 0.951 . S
C1307 C1305 1.388 . S
C1307 C1308 1.366 . S
C1308 C1307 1.366 . S
C1308 C1309 1.414 . S
C1308 C1311 1.499 . S
C1309 H1283 0.950 . S
C1309 C1308 1.414 . S
C1309 C1310 1.374 . S
C1310 H1284 0.950 . S
C1310 C1306 1.385 . S
C1310 C1309 1.374 . S
C1311 C1308 1.499 . S
C1311 C1312 1.373 . S
C1311 C1313 1.389 . S
C1312 H1285 0.950 . S
C1312 C1298 1.377 . S
C1312 C1311 1.373 . S
C1313 C1297 1.377 . S
C1313 C1311 1.389 . S
C1313 C1314 1.524 . S
C1314 C1313 1.524 . S
C1314 C1315 1.397 . S
C1314 C1319 1.363 . S
C1315 H1286 0.950 . S
C1315 C1314 1.397 . S
C1315 C1316 1.334 . S
C1316 H1287 0.950 . S
C1316 C1315 1.334 . S
C1316 C1317 1.287 . S
C1317 C1316 1.287 . S
C1317 C1318 1.524 . S
C1317 H1320 0.999 . S
C1318 H1288 0.950 . S
C1318 C1317 1.524 . S
C1318 C1319 1.415 . S
C1319 H1289 0.950 . S
C1319 C1314 1.363 . S
C1319 C1318 1.415 . S
H1320 C1317 0.999 . S
H1321 C1302 0.913 . S
H1322 C1340 0.951 . S
H1323 C1342 0.951 . S
H1324 C1344 0.950 . S
H1325 C1345 0.950 . S
H1326 C1347 0.950 . S
H1327 C1350 0.950 . S
H1328 C1351 0.950 . S
H1329 C1353 0.950 . S
H1330 C1354 0.950 . S
H1331 C1355 0.951 . S
H1332 C1357 0.951 . S
H1333 C1359 0.950 . S
H1334 C1360 0.950 . S
H1335 C1362 0.950 . S
H1336 C1365 0.950 . S
H1337 C1366 0.950 . S
H1338 C1368 0.950 . S
H1339 C1369 0.950 . S
C1340 H1322 0.951 . S
C1340 C1341 1.366 . S
C1340 C1342 1.388 . S
C1341 C1340 1.366 . S
C1341 C1345 1.385 . S
C1342 H1323 0.951 . S
C1342 C1340 1.388 . S
C1342 C1343 1.366 . S
C1343 C1342 1.366 . S
C1343 C1344 1.414 . S
C1343 C1346 1.499 . S
C1344 H1324 0.950 . S
C1344 C1343 1.414 . S
C1344 C1345 1.374 . S
C1345 H1325 0.950 . S
C1345 C1341 1.385 . S
C1345 C1344 1.374 . S
C1346 C1343 1.499 . S
C1346 C1347 1.373 . S
C1346 C1348 1.389 . S
C1347 H1326 0.950 . S
C1347 C1346 1.373 . S
C1347 C1363 1.377 . S
C1348 C1346 1.389 . S
C1348 C1349 1.524 . S
C1348 C1362 1.377 . S
C1349 C1348 1.524 . S
C1349 C1350 1.397 . S
C1349 C1354 1.363 . S
C1350 H1327 0.950 . S
C1350 C1349 1.397 . S
C1350 C1351 1.334 . S
C1351 H1328 0.950 . S
C1351 C1350 1.334 . S
C1351 C1352 1.287 . S
C1352 C1351 1.287 . S
C1352 C1353 1.524 . S
C1352 H1371 0.913 . S
C1353 H1329 0.950 . S
C1353 C1352 1.524 . S
C1353 C1354 1.415 . S
C1354 H1330 0.950 . S
C1354 C1349 1.363 . S
C1354 C1353 1.415 . S
C1355 H1331 0.951 . S
C1355 C1356 1.366 . S
C1355 C1357 1.388 . S
C1356 C1355 1.366 . S
C1356 C1360 1.385 . S
C1357 H1332 0.951 . S
C1357 C1355 1.388 . S
C1357 C1358 1.366 . S
C1358 C1357 1.366 . S
C1358 C1359 1.414 . S
C1358 C1361 1.499 . S
C1359 H1333 0.950 . S
C1359 C1358 1.414 . S
C1359 C1360 1.374 . S
C1360 H1334 0.950 . S
C1360 C1356 1.385 . S
C1360 C1359 1.374 . S
C1361 C1358 1.499 . S
C1361 C1362 1.373 . S
C1361 C1363 1.389 . S
C1362 H1335 0.950 . S
C1362 C1348 1.377 . S
C1362 C1361 1.373 . S
C1363 C1347 1.377 . S
C1363 C1361 1.389 . S
C1363 C1364 1.524 . S
C1364 C1363 1.524 . S
C1364 C1365 1.397 . S
C1364 C1369 1.363 . S
C1365 H1336 0.950 . S
C1365 C1364 1.397 . S
C1365 C1366 1.334 . S
C1366 H1337 0.950 . S
C1366 C1365 1.334 . S
C1366 C1367 1.287 . S
C1367 C1366 1.287 . S
C1367 C1368 1.524 . S
C1367 H1370 0.999 . S
C1368 H1338 0.950 . S
C1368 C1367 1.524 . S
C1368 C1369 1.415 . S
C1369 H1339 0.950 . S
C1369 C1364 1.363 . S
C1369 C1368 1.415 . S
H1370 C1367 0.999 . S
H1371 C1352 0.913 . S
C191 C76 1.557 . S
C206 C104 1.405 . S
C256 C122 1.406 . S
C241 C87 1.557 . S
C306 C143 1.407 . S
C291 C54 1.557 . S
C356 C167 1.406 . S
C341 C65 1.557 . S
C406 C101 1.360 . S
C391 C32 1.487 . S
C441 C43 1.486 . S
C456 C125 1.336 . S
C491 C10 1.487 . S
C506 C146 1.337 . S
C541 C21 1.486 . S
C556 C164 1.334 . S
C606 C106 0.411 . S
C591 C60 0.433 . S
C656 C124 0.412 . S
C641 C71 0.434 . S
C706 C145 0.411 . S
C691 C82 0.432 . S
C741 C49 0.433 . S
C756 C169 0.412 . S
C791 C16 0.509 . S
C806 C105 0.471 . S
C856 C123 0.469 . S
C841 C27 0.506 . S
C906 C144 0.469 . S
C891 C38 0.506 . S
C941 C5 0.510 . S
C956 C168 0.471 . S
C991 C59 1.602 . S
C1006 C102 1.566 . S
C1041 C70 1.602 . S
C1056 C126 1.566 . S
C1106 C147 1.565 . S
C1091 C81 1.602 . S
C1156 C165 1.565 . S
C1141 C48 1.602 . S
C1191 C15 1.446 . S
C1206 C103 1.414 1_655 S
C1256 C127 1.426 . S
C1241 C26 1.445 . S
C1306 C148 1.414 . S
C1291 C37 1.445 . S
C1341 C4 1.446 . S
C1356 C166 1.415 . S
