# Generated by pormake.
# Topology tsx, (6,3)-cn, num edge types: 1
# Building blocks:
#     Node 0, Type 0, BuildingBlock: LEVNOQ01_clean_sbu_1, # of connection points: 6
#     Node 1, Type 0, BuildingBlock: LEVNOQ01_clean_sbu_1, # of connection points: 6
#     Node 2, Type 1, BuildingBlock: QEWDON_clean_linker_0, # of connection points: 3
#     Node 3, Type 1, BuildingBlock: QEWDON_clean_linker_0, # of connection points: 3
#     Node 4, Type 1, BuildingBlock: QEWDON_clean_linker_0, # of connection points: 3
#     Node 5, Type 1, BuildingBlock: QEWDON_clean_linker_0, # of connection points: 3
#     Edge 6, Type (0, 1), BuildingBlock: FUNLAD_clean_linker_1, # of connection points: 2
#     Edge 7, Type (0, 1), BuildingBlock: FUNLAD_clean_linker_1, # of connection points: 2
#     Edge 8, Type (0, 1), BuildingBlock: FUNLAD_clean_linker_1, # of connection points: 2
#     Edge 9, Type (0, 1), BuildingBlock: FUNLAD_clean_linker_1, # of connection points: 2
#     Edge 10, Type (0, 1), BuildingBlock: FUNLAD_clean_linker_1, # of connection points: 2
#     Edge 11, Type (0, 1), BuildingBlock: FUNLAD_clean_linker_1, # of connection points: 2
#     Edge 12, Type (0, 1), BuildingBlock: FUNLAD_clean_linker_1, # of connection points: 2
#     Edge 13, Type (0, 1), BuildingBlock: FUNLAD_clean_linker_1, # of connection points: 2
#     Edge 14, Type (0, 1), BuildingBlock: FUNLAD_clean_linker_1, # of connection points: 2
#     Edge 15, Type (0, 1), BuildingBlock: FUNLAD_clean_linker_1, # of connection points: 2
#     Edge 16, Type (0, 1), BuildingBlock: FUNLAD_clean_linker_1, # of connection points: 2
#     Edge 17, Type (0, 1), BuildingBlock: FUNLAD_clean_linker_1, # of connection points: 2
# Relax obj value: 0.108
# Max RMSD: 0.206
# Mean RMSD: 0.149
data_MOF--net-tsx--node1-LEVNOQ01_clean_sbu_1--node2-QEWDON_clean_linker_0--edge1-FUNLAD_clean_linker_1
_symmetry_space_group_name_H-M    P1
_symmetry_Int_Tables_number       1
_symmetry_cell_setting            triclinic
loop_
_symmetry_equiv_pos_as_xyz
'x, y, z'
_cell_length_a     20.886025
_cell_length_b     25.532638
_cell_length_c     34.68299
_cell_angle_alpha  97.919975
_cell_angle_beta   106.06516
_cell_angle_gamma 92.156016
loop_
_atom_site_label
_atom_site_type_symbol
_atom_site_fract_x
_atom_site_fract_y
_atom_site_fract_z
_atom_type_partial_charge
O0 O 0.17699 0.00268 0.11402 0.0
Mg1 Mg 0.21607 -0.0002 0.06264 0.0
O2 O 0.07018 -0.00143 0.07827 0.0
Mg3 Mg 0.05816 -0.00274 0.0103 0.0
O4 O 0.15853 0.04344 0.02346 0.0
O5 O 0.26637 0.0651 0.05013 0.0
O6 O 0.0419 -0.00644 0.94005 0.0
O7 O 0.01219 0.08015 0.01452 0.0
Mg8 Mg 0.89457 -0.01287 0.95885 0.0
O9 O 0.9597 0.95551 1.00155 0.0
O10 O 0.93369 0.96946 0.90868 0.0
O11 O 0.90267 0.0677 0.98338 0.0
O12 O 0.85327 0.92989 0.98518 0.0
C13 C 0.15986 0.89414 0.01235 0.0
C14 C 0.11507 0.00028 0.11191 0.0
C15 C 0.20958 0.07604 0.02772 0.0
C16 C 0.99335 0.97928 0.90775 0.0
C17 C 0.95419 0.09769 0.00391 0.0
C18 C 0.9135 0.92427 0.00559 0.0
O19 O 0.21311 0.92316 0.03072 0.0
O20 O 0.10229 0.91269 0.00572 0.0
O21 O 0.67757 0.51857 0.61836 0.0
Mg22 Mg 0.7116 0.51671 0.56598 0.0
O23 O 0.573 0.50196 0.57993 0.0
Mg24 Mg 0.56073 0.50521 0.51177 0.0
O25 O 0.65724 0.55939 0.5235 0.0
O26 O 0.7653 0.57984 0.55589 0.0
O27 O 0.54166 0.50646 0.44176 0.0
O28 O 0.50713 0.58291 0.51896 0.0
Mg29 Mg 0.39728 0.48809 0.46399 0.0
O30 O 0.46762 0.45333 0.50199 0.0
O31 O 0.43208 0.48703 0.41232 0.0
O32 O 0.39682 0.5648 0.49501 0.0
O33 O 0.36336 0.41997 0.48247 0.0
C34 C 0.67048 0.41063 0.51454 0.0
C35 C 0.61617 0.50778 0.61458 0.0
C36 C 0.71145 0.58992 0.53004 0.0
C37 C 0.49087 0.49737 0.41021 0.0
C38 C 0.44756 0.59708 0.51278 0.0
C39 C 0.42431 0.41693 0.50303 0.0
O40 O 0.71988 0.44038 0.53779 0.0
O41 O 0.61214 0.42674 0.50356 0.0
H42 H 0.08444 0.01865 0.41393 0.0
C43 C 0.0998 0.98302 0.42611 0.0
C44 C 0.11699 0.94132 0.40081 0.0
C45 C 0.10742 0.9804 0.46752 0.0
H46 H 0.16075 0.86633 0.3988 0.0
C47 C 0.14448 0.89769 0.41754 0.0
C48 C 0.15561 0.89584 0.45887 0.0
C49 C 0.13559 0.9362 0.48361 0.0
C50 C 0.08948 0.02511 0.49382 0.0
H51 H 0.14301 0.93275 0.51522 0.0
C52 C 0.03442 0.06975 0.46981 0.0
C53 C 0.01567 0.1493 0.52619 0.0
C54 C 0.12573 0.03437 0.54715 0.0
H55 H 0.1601 0.00624 0.55933 0.0
C56 C 0.11571 0.08636 0.5839 0.0
H57 H 0.0095 0.05894 0.43731 0.0
C58 C 0.06496 0.14006 0.57563 0.0
H59 H 0.06162 0.16696 0.60186 0.0
H60 H 0.14324 0.08482 0.61506 0.0
H61 H 0.01485 0.07926 0.61023 0.0
C62 C 0.99824 0.03983 0.59421 0.0
C63 C 0.97715 0.00457 0.61632 0.0
C64 C 0.99618 0.02485 0.55297 0.0
H65 H 0.92422 0.92918 0.61188 0.0
C66 C 0.94373 0.9559 0.59567 0.0
C67 C 0.93252 0.94256 0.55358 0.0
C68 C 0.96072 0.97612 0.53272 0.0
C69 C 0.01308 0.06436 0.52709 0.0
H70 H 0.95197 0.96559 0.50021 0.0
C71 C 0.1109 0.11998 0.51924 0.0
C72 C 0.08541 0.15782 0.48304 0.0
C73 C 0.93926 0.07589 0.49258 0.0
H74 H 0.89256 0.05512 0.49156 0.0
C75 C 0.93872 0.11911 0.4594 0.0
H76 H 0.09033 0.102 0.52536 0.0
C77 C 0.0051 0.15645 0.45578 0.0
H78 H 0.99456 0.18171 0.43253 0.0
H79 H 0.89222 0.12158 0.43663 0.0
H80 H 0.57082 0.51545 0.91442 0.0
C81 C 0.5877 0.48024 0.92661 0.0
C82 C 0.61049 0.44087 0.9021 0.0
C83 C 0.59237 0.47631 0.96755 0.0
H84 H 0.66165 0.36912 0.90163 0.0
C85 C 0.64074 0.39841 0.91944 0.0
C86 C 0.64747 0.39465 0.96017 0.0
C87 C 0.62135 0.4323 0.98372 0.0
C88 C 0.57453 0.521 0.99416 0.0
H89 H 0.62606 0.42766 0.01485 0.0
C90 C 0.52463 0.5692 0.97065 0.0
C91 C 0.51952 0.65345 0.02713 0.0
C92 C 0.61352 0.53015 0.04738 0.0
H93 H 0.64526 0.50033 0.05931 0.0
C94 C 0.61104 0.58504 0.08419 0.0
H95 H 0.5005 0.56068 0.93794 0.0
C96 C 0.56764 0.64261 0.07622 0.0
H97 H 0.5708 0.67238 0.10222 0.0
H98 H 0.63944 0.5831 0.11511 0.0
H99 H 0.50826 0.58524 0.11159 0.0
C100 C 0.48984 0.54576 0.09596 0.0
C101 C 0.47018 0.51013 0.1184 0.0
C102 C 0.48705 0.53026 0.05479 0.0
H103 H 0.42068 0.43311 0.11499 0.0
C104 C 0.43674 0.46122 0.09817 0.0
C105 C 0.42638 0.44707 0.05625 0.0
C106 C 0.45405 0.4805 0.03505 0.0
C107 C 0.50606 0.56909 0.02923 0.0
H108 H 0.44743 0.46884 0.00284 0.0
C109 C 0.6084 0.61493 0.01823 0.0
C110 C 0.58581 0.65278 0.98131 0.0
C111 C 0.43363 0.58561 0.99659 0.0
H112 H 0.38559 0.56948 0.99764 0.0
C113 C 0.43585 0.62658 0.96245 0.0
H114 H 0.5865 0.5992 0.0252 0.0
C115 C 0.50518 0.65683 0.95557 0.0
H116 H 0.49626 0.68284 0.93283 0.0
H117 H 0.38814 0.6349 0.94324 0.0
H118 H 0.15333 0.14271 0.00443 0.0
C119 C 0.20272 0.12833 0.01382 0.0
H120 H 0.30689 0.14623 0.02838 0.0
H121 H 0.30333 0.36161 0.95949 0.0
H122 H 0.28677 0.30549 0.89438 0.0
H123 H 0.25646 0.20938 0.88619 0.0
H124 H 0.2418 0.16885 0.94311 0.0
C125 C 0.25765 0.16086 0.01894 0.0
C126 C 0.25668 0.21922 0.01985 0.0
C127 C 0.26545 0.24223 0.98664 0.0
C128 C 0.28426 0.29748 0.99162 0.0
C129 C 0.29118 0.3196 0.95764 0.0
C130 C 0.2813 0.2879 0.92008 0.0
C131 C 0.26418 0.23377 0.91546 0.0
C132 C 0.25627 0.21096 0.94829 0.0
H133 H 0.41417 0.36599 0.02159 0.0
C134 C 0.38863 0.39604 0.03559 0.0
H135 H 0.30226 0.41589 0.05217 0.0
H136 H 0.23244 0.1891 0.0876 0.0
H137 H 0.24357 0.24538 0.15167 0.0
H138 H 0.279 0.34065 0.16121 0.0
H139 H 0.30318 0.38013 0.10693 0.0
C140 C 0.32663 0.38482 0.03828 0.0
C141 C 0.29571 0.32927 0.03018 0.0
C142 C 0.28052 0.30713 0.06233 0.0
C143 C 0.26077 0.25205 0.05705 0.0
C144 C 0.24782 0.23059 0.08995 0.0
C145 C 0.25394 0.26248 0.12694 0.0
C146 C 0.27378 0.3161 0.13229 0.0
C147 C 0.28732 0.33832 0.10062 0.0
H148 H 0.1646 0.81678 0.03085 0.0
C149 C 0.16692 0.8367 0.00547 0.0
H150 H 0.2085 0.83921 0.95764 0.0
H151 H 0.49691 0.80951 0.06104 0.0
H152 H 0.50657 0.89833 0.04453 0.0
H153 H 0.40721 0.93873 0.00735 0.0
H154 H 0.29831 0.89178 0.98744 0.0
C155 C 0.20678 0.81883 0.98289 0.0
C156 C 0.26712 0.79121 1.0014 0.0
C157 C 0.33138 0.81915 0.0118 0.0
C158 C 0.38919 0.79533 0.03202 0.0
C159 C 0.45198 0.82511 0.04414 0.0
C160 C 0.45815 0.87623 0.03519 0.0
C161 C 0.40222 0.89902 0.01437 0.0
C162 C 0.33959 0.87125 0.003 0.0
H163 H 0.47439 0.72575 1.00219 0.0
C164 C 0.48172 0.703 0.02709 0.0
H165 H 0.44935 0.69051 0.07749 0.0
H166 H 0.1531 0.72551 0.98391 0.0
H167 H 0.14437 0.63674 1.00083 0.0
H168 H 0.24466 0.59592 0.03637 0.0
H169 H 0.35373 0.64271 0.05469 0.0
C170 C 0.44433 0.71315 0.05267 0.0
C171 C 0.38355 0.74274 0.04011 0.0
C172 C 0.31941 0.71526 0.03074 0.0
C173 C 0.26126 0.73926 0.01096 0.0
C174 C 0.19847 0.70977 1.00005 0.0
C175 C 0.19283 0.65867 0.00931 0.0
C176 C 0.24927 0.63561 0.02922 0.0
C177 C 0.31189 0.66316 0.03963 0.0
H178 H 0.90316 0.88632 0.05511 0.0
C179 C 0.92626 0.88186 0.03044 0.0
H180 H 0.94614 0.82824 0.98491 0.0
H181 H 0.763 0.67911 0.0662 0.0
H182 H 0.8672 0.66946 0.11597 0.0
H183 H 0.97171 0.71901 0.11727 0.0
H184 H 0.97266 0.77741 0.06747 0.0
C185 C 0.92484 0.8328 0.01035 0.0
C186 C 0.86586 0.79589 0.00644 0.0
C187 C 0.86566 0.7639 0.03654 0.0
C188 C 0.80488 0.73688 0.03656 0.0
C189 C 0.80697 0.70217 0.06539 0.0
C190 C 0.86666 0.69602 0.09412 0.0
C191 C 0.92553 0.72389 0.09482 0.0
C192 C 0.92538 0.75743 0.06633 0.0
H193 H 0.64613 0.68595 0.94597 0.0
C194 C 0.63904 0.68724 0.97593 0.0
H195 H 0.6707 0.71809 0.03814 0.0
H196 H 0.85085 0.84027 0.93687 0.0
H197 H 0.74611 0.86316 0.89373 0.0
H198 H 0.63879 0.83713 0.90548 0.0
H199 H 0.63574 0.78443 0.95819 0.0
C200 C 0.68052 0.71737 0.00886 0.0
C201 C 0.74379 0.74523 0.00817 0.0
C202 C 0.74404 0.77934 0.97929 0.0
C203 C 0.80572 0.80018 0.97593 0.0
C204 C 0.80518 0.82741 0.94296 0.0
C205 C 0.74542 0.84043 0.91778 0.0
C206 C 0.68506 0.82552 0.92423 0.0
C207 C 0.684 0.79482 0.95433 0.0
H208 H 0.98854 0.18346 0.02255 0.0
C209 C 0.9454 0.15469 0.01364 0.0
H210 H 0.84052 0.14178 1.00086 0.0
H211 H 0.75377 0.35549 0.0654 0.0
H212 H 0.76342 0.31263 0.12499 0.0
H213 H 0.82094 0.2303 0.13229 0.0
H214 H 0.8697 0.19054 0.08019 0.0
C215 C 0.88323 0.17078 0.00815 0.0
C216 C 0.8669 0.22686 0.00936 0.0
C217 C 0.83976 0.24999 0.04027 0.0
C218 C 0.80621 0.29714 0.03596 0.0
C219 C 0.779 0.31925 0.06708 0.0
C220 C 0.78441 0.29517 0.10142 0.0
C221 C 0.81683 0.24882 0.10553 0.0
C222 C 0.84429 0.2263 0.0754 0.0
H223 H 0.66614 0.31482 0.97651 0.0
C224 C 0.68898 0.35451 0.97884 0.0
H225 H 0.77827 0.40352 0.99214 0.0
H226 H 0.91619 0.19441 0.94499 0.0
H227 H 0.90888 0.23866 0.88671 0.0
H228 H 0.85358 0.32203 0.88041 0.0
H229 H 0.80428 0.36107 0.93216 0.0
C230 C 0.75564 0.36458 0.99246 0.0
C231 C 0.79979 0.32082 1.00068 0.0
C232 C 0.83156 0.3002 0.9713 0.0
C233 C 0.86452 0.2527 0.97535 0.0
C234 C 0.89164 0.23088 0.94403 0.0
C235 C 0.8877 0.25587 0.91027 0.0
C236 C 0.85652 0.30277 0.9067 0.0
C237 C 0.82847 0.32476 0.93667 0.0
H238 H 0.76005 0.63964 0.49904 0.0
C239 C 0.71521 0.6354 0.50885 0.0
H240 H 0.64251 0.67633 0.52911 0.0
H241 H 0.88298 0.84916 0.61542 0.0
H242 H 0.84499 0.82678 0.67098 0.0
H243 H 0.74834 0.76191 0.65881 0.0
H244 H 0.69037 0.71865 0.59083 0.0
C245 C 0.68397 0.67908 0.51608 0.0
C246 C 0.7217 0.73161 0.52076 0.0
C247 C 0.7528 0.75871 0.56049 0.0
C248 C 0.80741 0.79715 0.56733 0.0
C249 C 0.84033 0.82078 0.60787 0.0
C250 C 0.81914 0.80805 0.64033 0.0
C251 C 0.76494 0.77146 0.63349 0.0
C252 C 0.73225 0.74673 0.59419 0.0
H253 H 0.83873 0.90633 0.50916 0.0
C254 C 0.88361 0.89756 0.53124 0.0
H255 H 0.93344 0.84194 0.56518 0.0
H256 H 0.6615 0.69639 0.44087 0.0
H257 H 0.6947 0.722 0.38359 0.0
H258 H 0.79094 0.78712 0.39482 0.0
H259 H 0.8541 0.82739 0.46297 0.0
C260 C 0.88817 0.8494 0.54275 0.0
C261 C 0.82853 0.81076 0.5341 0.0
C262 C 0.79308 0.78713 0.49389 0.0
C263 C 0.73905 0.74803 0.48733 0.0
C264 C 0.70389 0.72522 0.44715 0.0
C265 C 0.72223 0.73974 0.41419 0.0
C266 C 0.77629 0.77657 0.42052 0.0
C267 C 0.81179 0.79981 0.45984 0.0
H268 H 0.69886 0.3469 0.47553 0.0
C269 C 0.68209 0.35563 0.50258 0.0
H270 H 0.68384 0.33561 0.55955 0.0
H271 H 0.82565 0.14081 0.4728 0.0
H272 H 0.71389 0.10725 0.4319 0.0
H273 H 0.61719 0.15794 0.43658 0.0
H274 H 0.63294 0.2414 0.48286 0.0
C275 C 0.69729 0.32468 0.53154 0.0
C276 C 0.75198 0.28939 0.53209 0.0
C277 C 0.74198 0.24262 0.50366 0.0
C278 C 0.79784 0.21532 0.49893 0.0
C279 C 0.78598 0.16566 0.4737 0.0
C280 C 0.7216 0.14543 0.45117 0.0
C281 C 0.66721 0.1738 0.454 0.0
C282 C 0.67692 0.2217 0.48032 0.0
H283 H 0.94648 0.17883 0.56035 0.0
C284 C 0.95922 0.18277 0.53246 0.0
H285 H 0.93161 0.22324 0.48123 0.0
H286 H 0.78603 0.3693 0.59752 0.0
H287 H 0.89788 0.39999 0.6395 0.0
H288 H 0.99603 0.35863 0.62611 0.0
H289 H 0.98253 0.28529 0.57121 0.0
C290 C 0.92239 0.21481 0.50902 0.0
C291 C 0.86376 0.23753 0.51999 0.0
C292 C 0.87317 0.28159 0.55125 0.0
C293 C 0.8168 0.30647 0.55819 0.0
C294 C 0.82704 0.3494 0.5904 0.0
C295 C 0.89108 0.36741 0.61482 0.0
C296 C 0.9463 0.34405 0.60732 0.0
C297 C 0.93782 0.30188 0.57575 0.0
H298 H 0.42312 0.3818 0.55504 0.0
C299 C 0.44027 0.37464 0.52804 0.0
H300 H 0.45138 0.31703 0.48239 0.0
H301 H 0.25072 0.20104 0.57457 0.0
H302 H 0.34992 0.19657 0.62948 0.0
H303 H 0.45916 0.2362 0.62908 0.0
H304 H 0.46961 0.28046 0.57302 0.0
C305 C 0.43179 0.32466 0.50838 0.0
C306 C 0.36926 0.29266 0.50615 0.0
C307 C 0.3635 0.26842 0.53949 0.0
C308 C 0.30007 0.24648 0.53997 0.0
C309 C 0.29675 0.21996 0.57281 0.0
C310 C 0.35361 0.21677 0.60461 0.0
C311 C 0.41512 0.23916 0.60441 0.0
C312 C 0.42038 0.26461 0.57223 0.0
H313 H 0.14839 0.18603 0.44763 0.0
C314 C 0.13715 0.19288 0.47657 0.0
H315 H 0.16258 0.23224 0.53652 0.0
H316 H 0.36362 0.32462 0.43253 0.0
H317 H 0.26371 0.33992 0.3817 0.0
H318 H 0.15221 0.32119 0.39041 0.0
H319 H 0.14051 0.28319 0.44865 0.0
C320 C 0.17605 0.22688 0.50819 0.0
C321 C 0.24188 0.2514 0.50796 0.0
C322 C 0.24764 0.27779 0.47554 0.0
C323 C 0.3118 0.29419 0.47293 0.0
C324 C 0.31629 0.31439 0.4376 0.0
C325 C 0.25917 0.32331 0.40799 0.0
C326 C 0.19647 0.31247 0.41276 0.0
C327 C 0.19046 0.28995 0.44607 0.0
H328 H 0.47971 0.68236 0.53467 0.0
C329 C 0.4368 0.6534 0.5228 0.0
H330 H 0.33133 0.64084 0.50169 0.0
H331 H 0.2554 0.85861 0.57316 0.0
H332 H 0.25656 0.81278 0.63038 0.0
H333 H 0.30592 0.72674 0.63561 0.0
H334 H 0.35503 0.68628 0.5839 0.0
C335 C 0.37462 0.66944 0.51337 0.0
C336 C 0.36073 0.72586 0.5155 0.0
C337 C 0.33393 0.74929 0.54643 0.0
C338 C 0.30509 0.79847 0.54332 0.0
C339 C 0.27737 0.82089 0.57409 0.0
C340 C 0.27791 0.79511 0.60704 0.0
C341 C 0.30575 0.74668 0.60999 0.0
C342 C 0.33355 0.72383 0.58012 0.0
H343 H 0.17752 0.81302 0.4639 0.0
C344 C 0.19511 0.85419 0.47627 0.0
H345 H 0.27797 0.90733 0.51041 0.0
H346 H 0.41262 0.69339 0.45225 0.0
H347 H 0.41318 0.74052 0.39619 0.0
H348 H 0.36504 0.82708 0.39186 0.0
H349 H 0.31528 0.86666 0.44352 0.0
C350 C 0.25769 0.86632 0.50036 0.0
C351 C 0.30241 0.82335 0.50907 0.0
C352 C 0.33432 0.80237 0.47991 0.0
C353 C 0.36307 0.75309 0.48286 0.0
C354 C 0.39093 0.73117 0.45192 0.0
C355 C 0.39152 0.7578 0.41951 0.0
C356 C 0.36433 0.80649 0.41704 0.0
C357 C 0.33585 0.82868 0.44676 0.0
H358 H 0.0399 -0.00427 0.1455 0.0
C359 C 0.09319 -0.00294 0.1485 0.0
H360 H 0.18977 -0.0043 0.18848 0.0
H361 H 0.10665 0.0744 0.34694 0.0
H362 H 0.1501 0.15846 0.33543 0.0
H363 H 0.1757 0.16657 0.27108 0.0
H364 H 0.15879 0.09041 0.21805 0.0
C365 C 0.13625 -0.00642 0.18457 0.0
C366 C 0.11276 -0.0103 0.22084 0.0
C367 C 0.12163 0.03476 0.25114 0.0
C368 C 0.10577 0.03025 0.28789 0.0
C369 C 0.11706 0.07562 0.31819 0.0
C370 C 0.14203 0.12416 0.312 0.0
C371 C 0.15654 0.12872 0.27581 0.0
C372 C 0.14671 0.08467 0.24566 0.0
H373 H 0.14799 0.92126 0.34501 0.0
C374 C 0.11428 0.94451 0.35802 0.0
H375 H 0.03854 -0.00202 0.34619 0.0
H376 H 0.08638 0.89608 0.16784 0.0
H377 H 0.03632 0.81335 0.17755 0.0
H378 H 0.00411 0.80671 0.24011 0.0
H379 H 0.02214 0.88272 0.29343 0.0
C380 C 0.07354 0.97457 0.33473 0.0
C381 C 0.08074 0.98068 0.29408 0.0
C382 C 0.06754 0.93645 0.2626 0.0
C383 C 0.08443 0.94074 0.2261 0.0
C384 C 0.07335 0.89535 0.19586 0.0
C385 C 0.04477 0.84757 0.20108 0.0
C386 C 0.02675 0.84379 0.23633 0.0
C387 C 0.03778 0.88759 0.2668 0.0
H388 H 0.96601 0.95073 0.84256 0.0
C389 C 0.00363 0.97519 0.86727 0.0
H390 H 0.0837 0.03433 0.88188 0.0
H391 H 0.01561 0.91037 0.68788 0.0
H392 H 0.07266 0.83816 0.71738 0.0
H393 H 0.11771 0.84394 0.79169 0.0
H394 H 0.10523 0.92217 0.837 0.0
C395 C 0.04902 0.00622 0.85829 0.0
C396 C 0.04173 0.00929 0.81474 0.0
C397 C 0.05071 0.96408 0.78871 0.0
C398 C 0.02565 0.96116 0.74596 0.0
C399 C 0.03381 0.91486 0.72066 0.0
C400 C 0.06657 0.8731 0.73718 0.0
C401 C 0.09184 0.87633 0.77902 0.0
C402 C 0.08403 0.92118 0.80465 0.0
H403 H 0.03775 0.04728 0.6759 0.0
C404 C 0.99437 0.01936 0.66121 0.0
H405 H 0.91871 0.97033 0.6715 0.0
H406 H 0.02739 0.10527 0.85618 0.0
H407 H 0.97669 0.18006 0.82682 0.0
H408 H 0.93274 0.17512 0.75253 0.0
H409 H 0.93923 0.09524 0.70708 0.0
C410 C 0.96242 -0.00189 0.68469 0.0
C411 C 0.99304 0.00402 0.72931 0.0
C412 C 0.98945 0.05123 0.75521 0.0
C413 C 0.01435 0.05397 0.79808 0.0
C414 C 0.009 0.10105 0.82344 0.0
C415 C 0.98014 0.14428 0.80698 0.0
C416 C 0.95546 0.1415 0.76513 0.0
C417 C 0.95966 0.09553 0.73939 0.0
H418 H 0.54047 0.49928 0.64748 0.0
C419 C 0.59372 0.50055 0.65039 0.0
H420 H 0.69028 0.49561 0.68917 0.0
H421 H 0.62015 0.57401 0.85128 0.0
H422 H 0.67538 0.65479 0.84218 0.0
H423 H 0.70296 0.66152 0.77821 0.0
H424 H 0.67559 0.58757 0.72302 0.0
C425 C 0.6369 0.4941 0.68578 0.0
C426 C 0.61476 0.49057 0.72261 0.0
C427 C 0.63036 0.53434 0.75442 0.0
C428 C 0.614 0.53056 0.79114 0.0
C429 C 0.63111 0.57474 0.82263 0.0
C430 C 0.66283 0.62138 0.81782 0.0
C431 C 0.67839 0.62517 0.78183 0.0
C432 C 0.6625 0.58233 0.75041 0.0
H433 H 0.64372 0.42111 0.84695 0.0
C434 C 0.61047 0.44524 0.85971 0.0
H435 H 0.53853 0.50186 0.84718 0.0
H436 H 0.57756 0.39916 0.66751 0.0
H437 H 0.51808 0.31972 0.6755 0.0
H438 H 0.48527 0.31466 0.73807 0.0
H439 H 0.51275 0.38884 0.79336 0.0
C440 C 0.57293 0.47709 0.83633 0.0
C441 C 0.58242 0.48282 0.79606 0.0
C442 C 0.5639 0.43986 0.76349 0.0
C443 C 0.58091 0.44344 0.72688 0.0
C444 C 0.56446 0.39907 0.69557 0.0
C445 C 0.53046 0.35316 0.6998 0.0
C446 C 0.51217 0.35026 0.73509 0.0
C447 C 0.52856 0.39298 0.76666 0.0
H448 H 0.44997 0.49594 0.34511 0.0
C449 C 0.49685 0.49962 0.36927 0.0
H450 H 0.60257 0.50865 0.382 0.0
H451 H 0.46346 0.40473 0.18794 0.0
H452 H 0.48064 0.32231 0.21509 0.0
H453 H 0.53111 0.32241 0.2884 0.0
H454 H 0.56427 0.40559 0.33508 0.0
C455 C 0.55414 0.50482 0.35941 0.0
C456 C 0.54877 0.50499 0.31579 0.0
C457 C 0.5318 0.45653 0.28871 0.0
C458 C 0.50306 0.45665 0.24653 0.0
C459 C 0.48509 0.40732 0.22036 0.0
C460 C 0.49489 0.35957 0.23553 0.0
C461 C 0.52321 0.35962 0.27681 0.0
C462 C 0.54162 0.40745 0.30324 0.0
H463 H 0.54097 0.54493 0.17712 0.0
C464 C 0.4928 0.52252 0.1633 0.0
H465 H 0.41115 0.48215 0.17407 0.0
H466 H 0.58844 0.6036 0.35903 0.0
H467 H 0.57174 0.6874 0.33294 0.0
H468 H 0.51594 0.68875 0.2604 0.0
H469 H 0.47749 0.6068 0.21348 0.0
C470 C 0.45948 0.50436 0.18734 0.0
C471 C 0.49231 0.5055 0.23144 0.0
C472 C 0.5133 0.55418 0.25838 0.0
C473 C 0.54311 0.55366 0.30049 0.0
C474 C 0.56428 0.60233 0.32692 0.0
C475 C 0.55518 0.65047 0.31234 0.0
C476 C 0.52398 0.6512 0.27146 0.0
C477 C 0.50275 0.60379 0.24472 0.0
loop_
_geom_bond_atom_site_label_1
_geom_bond_atom_site_label_2
_geom_bond_distance
_geom_bond_site_symmetry_2
_ccdc_geom_bond_type
O0 Mg1 1.990 . S
O0 C14 1.253 . S
Mg1 O0 1.990 . S
Mg1 O4 2.180 . S
Mg1 O5 2.117 . S
Mg1 O19 2.030 1_545 S
O2 Mg3 2.074 . S
O2 C14 1.261 . S
Mg3 O2 2.074 . S
Mg3 O4 2.099 . S
Mg3 O6 2.079 1_554 S
Mg3 O7 2.072 . S
Mg3 O9 2.099 1_444 S
Mg3 O20 2.079 1_545 S
O4 Mg1 2.180 . S
O4 Mg3 2.099 . S
O4 C15 1.279 . S
O5 Mg1 2.117 . S
O5 C15 1.250 . S
O6 Mg3 2.079 1_556 S
O6 C16 1.264 . S
O7 Mg3 2.072 . S
O7 C17 1.260 1_454 S
Mg8 O9 2.180 . S
Mg8 O10 2.030 1_565 S
Mg8 O11 1.990 1_565 S
Mg8 O12 2.117 . S
O9 Mg3 2.099 1_666 S
O9 Mg8 2.180 . S
O9 C18 1.279 . S
O10 Mg8 2.030 1_545 S
O10 C16 1.248 1_655 S
O11 Mg8 1.990 1_545 S
O11 C17 1.253 . S
O12 Mg8 2.117 . S
O12 C18 1.250 . S
C13 O19 1.248 . S
C13 O20 1.264 . S
C14 O0 1.253 . S
C14 O2 1.261 . S
C15 O4 1.279 . S
C15 O5 1.250 . S
C16 O6 1.264 . S
C16 O10 1.248 1_455 S
C17 O7 1.260 1_656 S
C17 O11 1.253 . S
C18 O9 1.279 . S
C18 O12 1.250 . S
O19 Mg1 2.030 1_565 S
O19 C13 1.248 . S
O20 Mg3 2.079 1_565 S
O20 C13 1.264 . S
O21 Mg22 1.990 . S
O21 C35 1.253 . S
Mg22 O21 1.990 . S
Mg22 O25 2.180 . S
Mg22 O26 2.117 . S
Mg22 O40 2.030 . S
O23 Mg24 2.072 . S
O23 C35 1.260 . S
Mg24 O23 2.072 . S
Mg24 O25 2.099 . S
Mg24 O27 2.079 . S
Mg24 O28 2.072 . S
Mg24 O30 2.099 . S
Mg24 O41 2.079 . S
O25 Mg22 2.180 . S
O25 Mg24 2.099 . S
O25 C36 1.279 . S
O26 Mg22 2.117 . S
O26 C36 1.250 . S
O27 Mg24 2.079 . S
O27 C37 1.264 . S
O28 Mg24 2.072 . S
O28 C38 1.260 . S
Mg29 O30 2.180 . S
Mg29 O31 2.030 . S
Mg29 O32 1.990 . S
Mg29 O33 2.117 . S
O30 Mg24 2.099 . S
O30 Mg29 2.180 . S
O30 C39 1.279 . S
O31 Mg29 2.030 . S
O31 C37 1.248 . S
O32 Mg29 1.990 . S
O32 C38 1.253 . S
O33 Mg29 2.117 . S
O33 C39 1.250 . S
C34 O40 1.248 . S
C34 O41 1.264 . S
C35 O21 1.253 . S
C35 O23 1.260 . S
C36 O25 1.279 . S
C36 O26 1.250 . S
C37 O27 1.264 . S
C37 O31 1.248 . S
C38 O28 1.260 . S
C38 O32 1.253 . S
C39 O30 1.279 . S
C39 O33 1.250 . S
O40 Mg22 2.030 . S
O40 C34 1.248 . S
O41 Mg24 2.079 . S
O41 C34 1.264 . S
H42 C43 0.949 . S
C43 H42 0.949 . S
C43 C44 1.395 1_545 S
C43 C45 1.391 . S
C44 C43 1.395 1_565 S
C44 C47 1.390 . S
C45 C43 1.391 . S
C45 C49 1.387 1_545 S
C45 C50 1.491 . S
H46 C47 0.950 . S
C47 C44 1.390 . S
C47 H46 0.950 . S
C47 C48 1.378 . S
C48 C47 1.378 . S
C48 C49 1.409 . S
C49 C45 1.387 1_565 S
C49 C48 1.409 . S
C49 H51 0.951 . S
C50 C45 1.491 . S
C50 C52 1.382 . S
C50 C54 1.404 . S
H51 C49 0.951 . S
C52 C50 1.382 . S
C52 C53 1.390 . S
C52 H57 0.949 1_455 S
C53 C52 1.390 . S
C53 C58 1.399 . S
C54 C50 1.404 . S
C54 H55 0.950 . S
C54 C56 1.375 . S
H55 C54 0.950 . S
C56 C54 1.375 . S
C56 C58 1.382 . S
C56 H60 0.950 . S
H57 C52 0.949 1_655 S
C58 C53 1.399 . S
C58 C56 1.382 . S
C58 H59 0.952 . S
H59 C58 0.952 . S
H60 C56 0.950 . S
H61 C62 0.952 . S
C62 H61 0.952 . S
C62 C63 1.392 1_455 S
C62 C64 1.391 1_455 S
C63 C62 1.392 1_655 S
C63 C66 1.390 1_545 S
C64 C62 1.391 1_655 S
C64 C68 1.387 . S
C64 C69 1.491 1_655 S
H65 C66 0.950 . S
C66 C63 1.390 1_565 S
C66 H65 0.950 . S
C66 C67 1.378 . S
C67 C66 1.378 . S
C67 C68 1.409 1_565 S
C68 C64 1.387 . S
C68 C67 1.409 1_545 S
C68 H70 0.951 . S
C69 C64 1.491 1_455 S
C69 C71 1.382 . S
C69 C73 1.404 1_455 S
H70 C68 0.951 . S
C71 C69 1.382 . S
C71 C72 1.390 . S
C71 H76 0.949 . S
C72 C71 1.390 . S
C72 C77 1.399 . S
C73 C69 1.404 1_655 S
C73 H74 0.950 . S
C73 C75 1.375 . S
H74 C73 0.950 . S
C75 C73 1.375 . S
C75 C77 1.382 1_655 S
C75 H79 0.950 . S
H76 C71 0.949 . S
C77 C72 1.399 . S
C77 C75 1.382 1_455 S
C77 H78 0.952 . S
H78 C77 0.952 . S
H79 C75 0.950 . S
H80 C81 0.949 . S
C81 H80 0.949 . S
C81 C82 1.395 . S
C81 C83 1.391 . S
C82 C81 1.395 . S
C82 C85 1.390 . S
C83 C81 1.391 . S
C83 C87 1.387 . S
C83 C88 1.491 1_556 S
H84 C85 0.950 . S
C85 C82 1.390 . S
C85 H84 0.950 . S
C85 C86 1.378 . S
C86 C85 1.378 . S
C86 C87 1.409 . S
C87 C83 1.387 . S
C87 C86 1.409 . S
C87 H89 0.951 1_556 S
C88 C83 1.491 1_554 S
C88 C90 1.382 1_554 S
C88 C92 1.404 . S
H89 C87 0.951 1_554 S
C90 C88 1.382 1_556 S
C90 C91 1.390 1_556 S
C90 H95 0.949 . S
C91 C90 1.390 1_554 S
C91 C96 1.399 . S
C92 C88 1.404 . S
C92 H93 0.950 . S
C92 C94 1.375 . S
H93 C92 0.950 . S
C94 C92 1.375 . S
C94 C96 1.382 . S
C94 H98 0.950 . S
H95 C90 0.949 . S
C96 C91 1.399 . S
C96 C94 1.382 . S
C96 H97 0.952 . S
H97 C96 0.952 . S
H98 C94 0.950 . S
H99 C100 0.949 . S
C100 H99 0.949 . S
C100 C101 1.395 . S
C100 C102 1.391 . S
C101 C100 1.395 . S
C101 C104 1.390 . S
C102 C100 1.391 . S
C102 C106 1.387 . S
C102 C107 1.491 . S
H103 C104 0.950 . S
C104 C101 1.390 . S
C104 H103 0.950 . S
C104 C105 1.378 . S
C105 C104 1.378 . S
C105 C106 1.409 . S
C106 C102 1.387 . S
C106 C105 1.409 . S
C106 H108 0.951 . S
C107 C102 1.491 . S
C107 C109 1.382 . S
C107 C111 1.404 1_554 S
H108 C106 0.951 . S
C109 C107 1.382 . S
C109 C110 1.390 . S
C109 H114 0.949 . S
C110 C109 1.390 . S
C110 C115 1.399 1_554 S
C111 C107 1.404 1_556 S
C111 H112 0.950 . S
C111 C113 1.375 . S
H112 C111 0.950 . S
C113 C111 1.375 . S
C113 C115 1.382 . S
C113 H117 0.950 . S
H114 C109 0.949 . S
C115 C110 1.399 1_556 S
C115 C113 1.382 . S
C115 H116 0.952 . S
H116 C115 0.952 . S
H117 C113 0.950 . S
H118 C119 0.951 . S
C119 H118 0.951 . S
C119 C125 1.265 . S
H120 C125 0.950 . S
H121 C129 0.949 . S
H122 C130 0.950 . S
H123 C131 0.951 . S
H124 C132 0.951 . S
C125 C119 1.265 . S
C125 H120 0.950 . S
C125 C126 1.478 . S
C126 C125 1.478 . S
C126 C127 1.397 1_554 S
C126 C143 1.394 . S
C127 C126 1.397 1_556 S
C127 C128 1.438 1_556 S
C127 C132 1.429 . S
C128 C127 1.438 1_554 S
C128 C129 1.428 1_554 S
C128 C141 1.394 . S
C129 H121 0.949 . S
C129 C128 1.428 1_556 S
C129 C130 1.345 . S
C130 H122 0.950 . S
C130 C129 1.345 . S
C130 C131 1.424 . S
C131 H123 0.951 . S
C131 C130 1.424 . S
C131 C132 1.347 . S
C132 H124 0.951 . S
C132 C127 1.429 . S
C132 C131 1.347 . S
H133 C134 0.951 . S
C134 H133 0.951 . S
C134 C140 1.265 . S
H135 C140 0.950 . S
H136 C144 0.949 . S
H137 C145 0.950 . S
H138 C146 0.951 . S
H139 C147 0.951 . S
C140 C134 1.265 . S
C140 H135 0.950 . S
C140 C141 1.478 . S
C141 C128 1.394 . S
C141 C140 1.478 . S
C141 C142 1.397 . S
C142 C141 1.397 . S
C142 C143 1.438 . S
C142 C147 1.429 . S
C143 C126 1.394 . S
C143 C142 1.438 . S
C143 C144 1.428 . S
C144 H136 0.949 . S
C144 C143 1.428 . S
C144 C145 1.345 . S
C145 H137 0.950 . S
C145 C144 1.345 . S
C145 C146 1.424 . S
C146 H138 0.951 . S
C146 C145 1.424 . S
C146 C147 1.347 . S
C147 H139 0.951 . S
C147 C142 1.429 . S
C147 C146 1.347 . S
H148 C149 0.951 . S
C149 H148 0.951 . S
C149 C155 1.265 . S
H150 C155 0.950 1_556 S
H151 C159 0.949 . S
H152 C160 0.950 . S
H153 C161 0.951 . S
H154 C162 0.950 1_556 S
C155 C149 1.265 . S
C155 H150 0.950 1_554 S
C155 C156 1.478 . S
C156 C155 1.478 . S
C156 C157 1.397 . S
C156 C173 1.394 . S
C157 C156 1.397 . S
C157 C158 1.438 . S
C157 C162 1.437 . S
C158 C157 1.438 . S
C158 C159 1.428 . S
C158 C171 1.394 . S
C159 H151 0.949 . S
C159 C158 1.428 . S
C159 C160 1.345 . S
C160 H152 0.950 . S
C160 C159 1.345 . S
C160 C161 1.424 1_554 S
C161 H153 0.951 . S
C161 C160 1.424 1_556 S
C161 C162 1.340 1_556 S
C162 H154 0.950 1_554 S
C162 C157 1.437 . S
C162 C161 1.340 1_554 S
H163 C164 0.951 1_556 S
C164 H163 0.951 1_554 S
C164 C170 1.265 . S
H165 C170 0.950 . S
H166 C174 0.949 . S
H167 C175 0.950 . S
H168 C176 0.951 . S
H169 C177 0.951 . S
C170 C164 1.265 . S
C170 H165 0.950 . S
C170 C171 1.478 . S
C171 C158 1.394 . S
C171 C170 1.478 . S
C171 C172 1.397 . S
C172 C171 1.397 . S
C172 C173 1.438 . S
C172 C177 1.429 . S
C173 C156 1.394 . S
C173 C172 1.438 . S
C173 C174 1.428 . S
C174 H166 0.949 . S
C174 C173 1.428 . S
C174 C175 1.345 . S
C175 H167 0.950 . S
C175 C174 1.345 . S
C175 C176 1.424 . S
C176 H168 0.951 . S
C176 C175 1.424 . S
C176 C177 1.347 . S
C177 H169 0.951 . S
C177 C172 1.429 . S
C177 C176 1.347 . S
H178 C179 0.951 . S
C179 H178 0.951 . S
C179 C185 1.265 . S
H180 C185 0.950 1_556 S
H181 C189 0.949 . S
H182 C190 0.950 . S
H183 C191 0.951 . S
H184 C192 0.951 . S
C185 C179 1.265 . S
C185 H180 0.950 1_554 S
C185 C186 1.478 . S
C186 C185 1.478 . S
C186 C187 1.397 . S
C186 C203 1.394 1_554 S
C187 C186 1.397 . S
C187 C188 1.438 . S
C187 C192 1.429 . S
C188 C187 1.438 . S
C188 C189 1.428 . S
C188 C201 1.394 . S
C189 H181 0.949 . S
C189 C188 1.428 . S
C189 C190 1.345 . S
C190 H182 0.950 . S
C190 C189 1.345 . S
C190 C191 1.424 . S
C191 H183 0.951 . S
C191 C190 1.424 . S
C191 C192 1.347 . S
C192 H184 0.951 . S
C192 C187 1.429 . S
C192 C191 1.347 . S
H193 C194 0.951 . S
C194 H193 0.951 . S
C194 C200 1.265 . S
H195 C200 0.950 . S
H196 C204 0.949 . S
H197 C205 0.950 . S
H198 C206 0.951 . S
H199 C207 0.951 . S
C200 C194 1.265 . S
C200 H195 0.950 . S
C200 C201 1.478 . S
C201 C188 1.394 . S
C201 C200 1.478 . S
C201 C202 1.397 1_554 S
C202 C201 1.397 1_556 S
C202 C203 1.438 . S
C202 C207 1.429 . S
C203 C186 1.394 1_556 S
C203 C202 1.438 . S
C203 C204 1.428 . S
C204 H196 0.949 . S
C204 C203 1.428 . S
C204 C205 1.345 . S
C205 H197 0.950 . S
C205 C204 1.345 . S
C205 C206 1.424 . S
C206 H198 0.951 . S
C206 C205 1.424 . S
C206 C207 1.347 . S
C207 H199 0.951 . S
C207 C202 1.429 . S
C207 C206 1.347 . S
H208 C209 0.951 . S
C209 H208 0.951 . S
C209 C215 1.265 . S
H210 C215 0.950 . S
H211 C219 0.949 . S
H212 C220 0.950 . S
H213 C221 0.951 . S
H214 C222 0.951 . S
C215 C209 1.265 . S
C215 H210 0.950 . S
C215 C216 1.478 . S
C216 C215 1.478 . S
C216 C217 1.397 1_556 S
C216 C233 1.394 . S
C217 C216 1.397 1_554 S
C217 C218 1.438 . S
C217 C222 1.429 . S
C218 C217 1.438 . S
C218 C219 1.428 . S
C218 C231 1.394 1_554 S
C219 H211 0.949 . S
C219 C218 1.428 . S
C219 C220 1.345 . S
C220 H212 0.950 . S
C220 C219 1.345 . S
C220 C221 1.424 . S
C221 H213 0.951 . S
C221 C220 1.424 . S
C221 C222 1.347 . S
C222 H214 0.951 . S
C222 C217 1.429 . S
C222 C221 1.347 . S
H223 C224 0.951 . S
C224 H223 0.951 . S
C224 C230 1.265 . S
H225 C230 0.950 . S
H226 C234 0.949 . S
H227 C235 0.950 . S
H228 C236 0.951 . S
H229 C237 0.951 . S
C230 C224 1.265 . S
C230 H225 0.950 . S
C230 C231 1.478 . S
C231 C218 1.394 1_556 S
C231 C230 1.478 . S
C231 C232 1.397 . S
C232 C231 1.397 . S
C232 C233 1.438 . S
C232 C237 1.429 . S
C233 C216 1.394 . S
C233 C232 1.438 . S
C233 C234 1.428 . S
C234 H226 0.949 . S
C234 C233 1.428 . S
C234 C235 1.345 . S
C235 H227 0.950 . S
C235 C234 1.345 . S
C235 C236 1.424 . S
C236 H228 0.951 . S
C236 C235 1.424 . S
C236 C237 1.347 . S
C237 H229 0.951 . S
C237 C232 1.429 . S
C237 C236 1.347 . S
H238 C239 0.951 . S
C239 H238 0.951 . S
C239 C245 1.265 . S
H240 C245 0.950 . S
H241 C249 0.949 . S
H242 C250 0.950 . S
H243 C251 0.951 . S
H244 C252 0.951 . S
C245 C239 1.265 . S
C245 H240 0.950 . S
C245 C246 1.478 . S
C246 C245 1.478 . S
C246 C247 1.397 . S
C246 C263 1.394 . S
C247 C246 1.397 . S
C247 C248 1.438 . S
C247 C252 1.429 . S
C248 C247 1.438 . S
C248 C249 1.428 . S
C248 C261 1.394 . S
C249 H241 0.949 . S
C249 C248 1.428 . S
C249 C250 1.345 . S
C250 H242 0.950 . S
C250 C249 1.345 . S
C250 C251 1.424 . S
C251 H243 0.951 . S
C251 C250 1.424 . S
C251 C252 1.347 . S
C252 H244 0.951 . S
C252 C247 1.429 . S
C252 C251 1.347 . S
H253 C254 0.951 . S
C254 H253 0.951 . S
C254 C260 1.265 . S
H255 C260 0.950 . S
H256 C264 0.949 . S
H257 C265 0.950 . S
H258 C266 0.951 . S
H259 C267 0.951 . S
C260 C254 1.265 . S
C260 H255 0.950 . S
C260 C261 1.478 . S
C261 C248 1.394 . S
C261 C260 1.478 . S
C261 C262 1.397 . S
C262 C261 1.397 . S
C262 C263 1.438 . S
C262 C267 1.429 . S
C263 C246 1.394 . S
C263 C262 1.438 . S
C263 C264 1.428 . S
C264 H256 0.949 . S
C264 C263 1.428 . S
C264 C265 1.345 . S
C265 H257 0.950 . S
C265 C264 1.345 . S
C265 C266 1.424 . S
C266 H258 0.951 . S
C266 C265 1.424 . S
C266 C267 1.347 . S
C267 H259 0.951 . S
C267 C262 1.429 . S
C267 C266 1.347 . S
H268 C269 0.951 . S
C269 H268 0.951 . S
C269 C275 1.265 . S
H270 C275 0.950 . S
H271 C279 0.949 . S
H272 C280 0.950 . S
H273 C281 0.951 . S
H274 C282 0.951 . S
C275 C269 1.265 . S
C275 H270 0.950 . S
C275 C276 1.478 . S
C276 C275 1.478 . S
C276 C277 1.397 . S
C276 C293 1.394 . S
C277 C276 1.397 . S
C277 C278 1.438 . S
C277 C282 1.429 . S
C278 C277 1.438 . S
C278 C279 1.428 . S
C278 C291 1.394 . S
C279 H271 0.949 . S
C279 C278 1.428 . S
C279 C280 1.345 . S
C280 H272 0.950 . S
C280 C279 1.345 . S
C280 C281 1.424 . S
C281 H273 0.951 . S
C281 C280 1.424 . S
C281 C282 1.347 . S
C282 H274 0.951 . S
C282 C277 1.429 . S
C282 C281 1.347 . S
H283 C284 0.951 . S
C284 H283 0.951 . S
C284 C290 1.265 . S
H285 C290 0.950 . S
H286 C294 0.949 . S
H287 C295 0.950 . S
H288 C296 0.951 1_455 S
H289 C297 0.951 . S
C290 C284 1.265 . S
C290 H285 0.950 . S
C290 C291 1.478 . S
C291 C278 1.394 . S
C291 C290 1.478 . S
C291 C292 1.397 . S
C292 C291 1.397 . S
C292 C293 1.438 . S
C292 C297 1.429 . S
C293 C276 1.394 . S
C293 C292 1.438 . S
C293 C294 1.428 . S
C294 H286 0.949 . S
C294 C293 1.428 . S
C294 C295 1.345 . S
C295 H287 0.950 . S
C295 C294 1.345 . S
C295 C296 1.424 . S
C296 H288 0.951 1_655 S
C296 C295 1.424 . S
C296 C297 1.347 . S
C297 H289 0.951 . S
C297 C292 1.429 . S
C297 C296 1.347 . S
H298 C299 0.951 . S
C299 H298 0.951 . S
C299 C305 1.265 . S
H300 C305 0.950 . S
H301 C309 0.949 . S
H302 C310 0.950 . S
H303 C311 0.951 . S
H304 C312 0.951 . S
C305 C299 1.265 . S
C305 H300 0.950 . S
C305 C306 1.478 . S
C306 C305 1.478 . S
C306 C307 1.397 . S
C306 C323 1.394 . S
C307 C306 1.397 . S
C307 C308 1.438 . S
C307 C312 1.429 . S
C308 C307 1.438 . S
C308 C309 1.428 . S
C308 C321 1.394 . S
C309 H301 0.949 . S
C309 C308 1.428 . S
C309 C310 1.345 . S
C310 H302 0.950 . S
C310 C309 1.345 . S
C310 C311 1.424 . S
C311 H303 0.951 . S
C311 C310 1.424 . S
C311 C312 1.347 . S
C312 H304 0.951 . S
C312 C307 1.429 . S
C312 C311 1.347 . S
H313 C314 0.951 . S
C314 H313 0.951 . S
C314 C320 1.265 . S
H315 C320 0.950 . S
H316 C324 0.949 . S
H317 C325 0.950 . S
H318 C326 0.951 . S
H319 C327 0.951 . S
C320 C314 1.265 . S
C320 H315 0.950 . S
C320 C321 1.478 . S
C321 C308 1.394 . S
C321 C320 1.478 . S
C321 C322 1.397 . S
C322 C321 1.397 . S
C322 C323 1.438 . S
C322 C327 1.429 . S
C323 C306 1.394 . S
C323 C322 1.438 . S
C323 C324 1.428 . S
C324 H316 0.949 . S
C324 C323 1.428 . S
C324 C325 1.345 . S
C325 H317 0.950 . S
C325 C324 1.345 . S
C325 C326 1.424 . S
C326 H318 0.951 . S
C326 C325 1.424 . S
C326 C327 1.347 . S
C327 H319 0.951 . S
C327 C322 1.429 . S
C327 C326 1.347 . S
H328 C329 0.951 . S
C329 H328 0.951 . S
C329 C335 1.265 . S
H330 C335 0.950 . S
H331 C339 0.949 . S
H332 C340 0.950 . S
H333 C341 0.951 . S
H334 C342 0.951 . S
C335 C329 1.265 . S
C335 H330 0.950 . S
C335 C336 1.478 . S
C336 C335 1.478 . S
C336 C337 1.397 . S
C336 C353 1.394 . S
C337 C336 1.397 . S
C337 C338 1.438 . S
C337 C342 1.429 . S
C338 C337 1.438 . S
C338 C339 1.428 . S
C338 C351 1.394 . S
C339 H331 0.949 . S
C339 C338 1.428 . S
C339 C340 1.345 . S
C340 H332 0.950 . S
C340 C339 1.345 . S
C340 C341 1.424 . S
C341 H333 0.951 . S
C341 C340 1.424 . S
C341 C342 1.347 . S
C342 H334 0.951 . S
C342 C337 1.429 . S
C342 C341 1.347 . S
H343 C344 0.951 . S
C344 H343 0.951 . S
C344 C350 1.265 . S
H345 C350 0.950 . S
H346 C354 0.949 . S
H347 C355 0.950 . S
H348 C356 0.951 . S
H349 C357 0.951 . S
C350 C344 1.265 . S
C350 H345 0.950 . S
C350 C351 1.478 . S
C351 C338 1.394 . S
C351 C350 1.478 . S
C351 C352 1.397 . S
C352 C351 1.397 . S
C352 C353 1.438 . S
C352 C357 1.429 . S
C353 C336 1.394 . S
C353 C352 1.438 . S
C353 C354 1.428 . S
C354 H346 0.949 . S
C354 C353 1.428 . S
C354 C355 1.345 . S
C355 H347 0.950 . S
C355 C354 1.345 . S
C355 C356 1.424 . S
C356 H348 0.951 . S
C356 C355 1.424 . S
C356 C357 1.347 . S
C357 H349 0.951 . S
C357 C352 1.429 . S
C357 C356 1.347 . S
H358 C359 0.951 . S
C359 H358 0.951 . S
C359 C365 1.265 1_565 S
H360 C365 0.950 . S
H361 C369 0.949 . S
H362 C370 0.950 . S
H363 C371 0.951 . S
H364 C372 0.951 . S
C365 C359 1.265 1_545 S
C365 H360 0.950 . S
C365 C366 1.478 1_545 S
C366 C365 1.478 1_565 S
C366 C367 1.397 1_565 S
C366 C383 1.394 . S
C367 C366 1.397 1_545 S
C367 C368 1.438 . S
C367 C372 1.429 . S
C368 C367 1.438 . S
C368 C369 1.428 . S
C368 C381 1.394 1_545 S
C369 H361 0.949 . S
C369 C368 1.428 . S
C369 C370 1.345 . S
C370 H362 0.950 . S
C370 C369 1.345 . S
C370 C371 1.424 . S
C371 H363 0.951 . S
C371 C370 1.424 . S
C371 C372 1.347 . S
C372 H364 0.951 . S
C372 C367 1.429 . S
C372 C371 1.347 . S
H373 C374 0.951 . S
C374 H373 0.951 . S
C374 C380 1.265 . S
H375 C380 0.950 . S
H376 C384 0.949 . S
H377 C385 0.950 . S
H378 C386 0.951 . S
H379 C387 0.951 . S
C380 C374 1.265 . S
C380 H375 0.950 . S
C380 C381 1.478 . S
C381 C368 1.394 1_565 S
C381 C380 1.478 . S
C381 C382 1.397 . S
C382 C381 1.397 . S
C382 C383 1.438 . S
C382 C387 1.429 . S
C383 C366 1.394 . S
C383 C382 1.438 . S
C383 C384 1.428 . S
C384 H376 0.949 . S
C384 C383 1.428 . S
C384 C385 1.345 . S
C385 H377 0.950 . S
C385 C384 1.345 . S
C385 C386 1.424 . S
C386 H378 0.951 . S
C386 C385 1.424 . S
C386 C387 1.347 . S
C387 H379 0.951 . S
C387 C382 1.429 . S
C387 C386 1.347 . S
H388 C389 0.951 1_655 S
C389 H388 0.951 1_455 S
C389 C395 1.265 . S
H390 C395 0.950 . S
H391 C399 0.949 . S
H392 C400 0.950 . S
H393 C401 0.951 . S
H394 C402 0.951 . S
C395 C389 1.265 . S
C395 H390 0.950 . S
C395 C396 1.478 . S
C396 C395 1.478 . S
C396 C397 1.397 1_545 S
C396 C413 1.400 . S
C397 C396 1.397 1_565 S
C397 C398 1.438 . S
C397 C402 1.429 . S
C398 C397 1.438 . S
C398 C399 1.428 . S
C398 C411 1.394 1_465 S
C399 H391 0.949 . S
C399 C398 1.428 . S
C399 C400 1.345 . S
C400 H392 0.950 . S
C400 C399 1.345 . S
C400 C401 1.424 . S
C401 H393 0.951 . S
C401 C400 1.424 . S
C401 C402 1.347 . S
C402 H394 0.951 . S
C402 C397 1.429 . S
C402 C401 1.347 . S
H403 C404 0.951 1_455 S
C404 H403 0.951 1_655 S
C404 C410 1.265 . S
H405 C410 0.950 . S
H406 C414 0.949 1_455 S
H407 C415 0.950 . S
H408 C416 0.951 . S
H409 C417 0.951 . S
C410 C404 1.265 . S
C410 H405 0.950 . S
C410 C411 1.478 . S
C411 C398 1.394 1_645 S
C411 C410 1.478 . S
C411 C412 1.397 . S
C412 C411 1.397 . S
C412 C413 1.437 1_655 S
C412 C417 1.429 . S
C413 C396 1.400 . S
C413 C412 1.437 1_455 S
C413 C414 1.423 1_455 S
C414 H406 0.949 1_655 S
C414 C413 1.423 1_655 S
C414 C415 1.345 . S
C415 H407 0.950 . S
C415 C414 1.345 . S
C415 C416 1.424 . S
C416 H408 0.951 . S
C416 C415 1.424 . S
C416 C417 1.347 . S
C417 H409 0.951 . S
C417 C412 1.429 . S
C417 C416 1.347 . S
H418 C419 0.951 . S
C419 H418 0.951 . S
C419 C425 1.265 . S
H420 C425 0.950 . S
H421 C429 0.949 . S
H422 C430 0.950 . S
H423 C431 0.951 . S
H424 C432 0.951 . S
C425 C419 1.265 . S
C425 H420 0.950 . S
C425 C426 1.478 . S
C426 C425 1.478 . S
C426 C427 1.397 . S
C426 C443 1.394 . S
C427 C426 1.397 . S
C427 C428 1.438 . S
C427 C432 1.429 . S
C428 C427 1.438 . S
C428 C429 1.428 . S
C428 C441 1.394 . S
C429 H421 0.949 . S
C429 C428 1.428 . S
C429 C430 1.345 . S
C430 H422 0.950 . S
C430 C429 1.345 . S
C430 C431 1.424 . S
C431 H423 0.951 . S
C431 C430 1.424 . S
C431 C432 1.347 . S
C432 H424 0.951 . S
C432 C427 1.429 . S
C432 C431 1.347 . S
H433 C434 0.951 . S
C434 H433 0.951 . S
C434 C440 1.265 . S
H435 C440 0.950 . S
H436 C444 0.949 . S
H437 C445 0.950 . S
H438 C446 0.951 . S
H439 C447 0.951 . S
C440 C434 1.265 . S
C440 H435 0.950 . S
C440 C441 1.478 . S
C441 C428 1.394 . S
C441 C440 1.478 . S
C441 C442 1.397 . S
C442 C441 1.397 . S
C442 C443 1.438 . S
C442 C447 1.429 . S
C443 C426 1.394 . S
C443 C442 1.438 . S
C443 C444 1.428 . S
C444 H436 0.949 . S
C444 C443 1.428 . S
C444 C445 1.345 . S
C445 H437 0.950 . S
C445 C444 1.345 . S
C445 C446 1.424 . S
C446 H438 0.951 . S
C446 C445 1.424 . S
C446 C447 1.347 . S
C447 H439 0.951 . S
C447 C442 1.429 . S
C447 C446 1.347 . S
H448 C449 0.951 . S
C449 H448 0.951 . S
C449 C455 1.265 . S
H450 C455 0.950 . S
H451 C459 0.949 . S
H452 C460 0.950 . S
H453 C461 0.951 . S
H454 C462 0.951 . S
C455 C449 1.265 . S
C455 H450 0.950 . S
C455 C456 1.478 . S
C456 C455 1.478 . S
C456 C457 1.397 . S
C456 C473 1.394 . S
C457 C456 1.397 . S
C457 C458 1.438 . S
C457 C462 1.429 . S
C458 C457 1.438 . S
C458 C459 1.428 . S
C458 C471 1.394 . S
C459 H451 0.949 . S
C459 C458 1.428 . S
C459 C460 1.345 . S
C460 H452 0.950 . S
C460 C459 1.345 . S
C460 C461 1.424 . S
C461 H453 0.951 . S
C461 C460 1.424 . S
C461 C462 1.347 . S
C462 H454 0.951 . S
C462 C457 1.429 . S
C462 C461 1.347 . S
H463 C464 0.951 . S
C464 H463 0.951 . S
C464 C470 1.265 . S
H465 C470 0.950 . S
H466 C474 0.949 . S
H467 C475 0.950 . S
H468 C476 0.951 . S
H469 C477 0.951 . S
C470 C464 1.265 . S
C470 H465 0.950 . S
C470 C471 1.478 . S
C471 C458 1.394 . S
C471 C470 1.478 . S
C471 C472 1.397 . S
C472 C471 1.397 . S
C472 C473 1.438 . S
C472 C477 1.429 . S
C473 C456 1.394 . S
C473 C472 1.438 . S
C473 C474 1.428 . S
C474 H466 0.949 . S
C474 C473 1.428 . S
C474 C475 1.345 . S
C475 H467 0.950 . S
C475 C474 1.345 . S
C475 C476 1.424 . S
C476 H468 0.951 . S
C476 C475 1.424 . S
C476 C477 1.347 . S
C477 H469 0.951 . S
C477 C472 1.429 . S
C477 C476 1.347 . S
C134 C105 1.513 . S
C119 C15 1.429 . S
C149 C13 1.403 . S
C164 C91 1.424 . S
C179 C18 1.224 1_554 S
C194 C110 1.448 . S
C209 C17 1.532 . S
C224 C86 1.527 . S
C239 C36 1.363 . S
C254 C67 1.518 . S
C269 C34 1.383 . S
C284 C53 1.429 1_655 S
C314 C72 1.456 . S
C299 C39 1.203 . S
C344 C48 1.526 . S
C329 C38 1.533 . S
C359 C14 1.650 1_565 S
C374 C44 1.652 . S
C389 C16 1.361 . S
C404 C63 1.426 . S
C434 C82 1.651 . S
C419 C35 1.647 . S
C449 C37 1.368 . S
C464 C101 1.413 . S
