# Generated by pormake.
# Topology anh, (6,3)-cn, num edge types: 1
# Building blocks:
#     Node 0, Type 0, BuildingBlock: VOLQOD_clean_sbu_1, # of connection points: 6
#     Node 1, Type 0, BuildingBlock: VOLQOD_clean_sbu_1, # of connection points: 6
#     Node 2, Type 0, BuildingBlock: VOLQOD_clean_sbu_1, # of connection points: 6
#     Node 3, Type 1, BuildingBlock: BELTOD_clean_linker_0, # of connection points: 3
#     Node 4, Type 1, BuildingBlock: BELTOD_clean_linker_0, # of connection points: 3
#     Node 5, Type 1, BuildingBlock: BELTOD_clean_linker_0, # of connection points: 3
#     Node 6, Type 1, BuildingBlock: BELTOD_clean_linker_0, # of connection points: 3
#     Node 7, Type 1, BuildingBlock: BELTOD_clean_linker_0, # of connection points: 3
#     Node 8, Type 1, BuildingBlock: BELTOD_clean_linker_0, # of connection points: 3
#     Edge 9, Type (0, 1), BuildingBlock: AJUNOK_clean_linker_0, # of connection points: 2
#     Edge 10, Type (0, 1), BuildingBlock: AJUNOK_clean_linker_0, # of connection points: 2
#     Edge 11, Type (0, 1), BuildingBlock: AJUNOK_clean_linker_0, # of connection points: 2
#     Edge 12, Type (0, 1), BuildingBlock: AJUNOK_clean_linker_0, # of connection points: 2
#     Edge 13, Type (0, 1), BuildingBlock: AJUNOK_clean_linker_0, # of connection points: 2
#     Edge 14, Type (0, 1), BuildingBlock: AJUNOK_clean_linker_0, # of connection points: 2
#     Edge 15, Type (0, 1), BuildingBlock: AJUNOK_clean_linker_0, # of connection points: 2
#     Edge 16, Type (0, 1), BuildingBlock: AJUNOK_clean_linker_0, # of connection points: 2
#     Edge 17, Type (0, 1), BuildingBlock: AJUNOK_clean_linker_0, # of connection points: 2
#     Edge 18, Type (0, 1), BuildingBlock: AJUNOK_clean_linker_0, # of connection points: 2
#     Edge 19, Type (0, 1), BuildingBlock: AJUNOK_clean_linker_0, # of connection points: 2
#     Edge 20, Type (0, 1), BuildingBlock: AJUNOK_clean_linker_0, # of connection points: 2
#     Edge 21, Type (0, 1), BuildingBlock: AJUNOK_clean_linker_0, # of connection points: 2
#     Edge 22, Type (0, 1), BuildingBlock: AJUNOK_clean_linker_0, # of connection points: 2
#     Edge 23, Type (0, 1), BuildingBlock: AJUNOK_clean_linker_0, # of connection points: 2
#     Edge 24, Type (0, 1), BuildingBlock: AJUNOK_clean_linker_0, # of connection points: 2
#     Edge 25, Type (0, 1), BuildingBlock: AJUNOK_clean_linker_0, # of connection points: 2
#     Edge 26, Type (0, 1), BuildingBlock: AJUNOK_clean_linker_0, # of connection points: 2
# Relax obj value: 0.161
# Max RMSD: 0.227
# Mean RMSD: 0.107
data_MOF--net-anh--node1-VOLQOD_clean_sbu_1--node2-BELTOD_clean_linker_0--edge1-AJUNOK_clean_linker_0
_symmetry_space_group_name_H-M    P1
_symmetry_Int_Tables_number       1
_symmetry_cell_setting            triclinic
loop_
_symmetry_equiv_pos_as_xyz
'x, y, z'
_cell_length_a     25.313243
_cell_length_b     25.218662
_cell_length_c     52.948507
_cell_angle_alpha  89.811585
_cell_angle_beta   89.796041
_cell_angle_gamma 120.30514
loop_
_atom_site_label
_atom_site_type_symbol
_atom_site_fract_x
_atom_site_fract_y
_atom_site_fract_z
_atom_type_partial_charge
O0 O 0.98413 0.55226 0.22259 0.0
Zn1 Zn -0.01196 0.58197 0.18638 0.0
O2 O 0.00026 0.52997 0.16201 0.0
Zn3 Zn 0.9346 0.49363 0.13753 0.0
Zn4 Zn 0.00324 0.46492 0.18016 0.0
Zn5 Zn 0.07611 0.5773 0.14352 0.0
O6 O 0.96491 0.50962 0.10122 0.0
O7 O 0.06311 0.57824 0.10641 0.0
O8 O 0.91119 0.58504 0.17788 0.0
O9 O 0.88408 0.53226 0.14196 0.0
O10 O 0.87808 0.40261 0.14421 0.0
O11 O 0.92875 0.38436 0.17389 0.0
O12 O 0.0754 0.45772 0.17056 0.0
O13 O 0.06166 0.66816 0.18568 0.0
O14 O 0.13008 0.54107 0.14724 0.0
O15 O 0.12134 0.66299 0.15608 0.0
C16 C -0.00342 0.5129 0.23165 0.0
C17 C 0.01763 0.54694 0.09211 0.0
C18 C 0.88301 0.36603 0.15938 0.0
C19 C 0.87718 0.56487 0.15843 0.0
C20 C 0.12322 0.49261 0.1578 0.0
C21 C 0.11104 0.69294 0.17273 0.0
O22 O 0.007 0.47901 0.21721 0.0
O23 O 0.44765 0.02242 0.43833 0.0
Zn24 Zn 0.42195 0.02584 0.47423 0.0
O25 O 0.47709 0.01837 0.49814 0.0
Zn26 Zn 0.52249 0.09252 0.51762 0.0
Zn27 Zn 0.53556 0.00302 0.48007 0.0
Zn28 Zn 0.42892 0.95205 0.5217 0.0
O29 O 0.51392 0.07658 0.55505 0.0
O30 O 0.4395 0.97931 0.55785 0.0
O31 O 0.42144 0.10554 0.47941 0.0
O32 O 0.49191 0.14857 0.50947 0.0
O33 O 0.61151 0.13842 0.5084 0.0
O34 O 0.62112 0.07504 0.48251 0.0
O35 O 0.53437 0.92706 0.49323 0.0
O36 O 0.33638 0.9532 0.47765 0.0
O37 O 0.45847 0.89274 0.52106 0.0
O38 O 0.3406 0.90475 0.51196 0.0
C39 C 0.48444 0.00699 0.42903 0.0
C40 C 0.47757 0.02976 0.56819 0.0
C41 C 0.64423 0.12592 0.49415 0.0
C42 C 0.45337 0.14952 0.49446 0.0
C43 C 0.49985 0.88758 0.50967 0.0
C44 C 0.31082 0.90929 0.49359 0.0
O45 O 0.51809 -0.00486 0.44299 0.0
O46 O 0.44006 0.45948 0.77745 0.0
Zn47 Zn 0.41301 0.43308 0.81362 0.0
O48 O 0.47741 0.48789 0.83726 0.0
Zn49 Zn 0.44773 0.52533 0.86126 0.0
Zn50 Zn 0.54637 0.55195 0.81849 0.0
Zn51 Zn 0.50509 0.4422 0.85675 0.0
O52 O 0.45779 0.50856 0.89802 0.0
O53 O 0.48184 0.43614 0.89297 0.0
O54 O 0.33363 0.43305 0.82072 0.0
O55 O 0.3587 0.48886 0.85586 0.0
O56 O 0.48365 0.61597 0.85393 0.0
O57 O 0.55026 0.63213 0.82327 0.0
O58 O 0.62649 0.56073 0.82926 0.0
O59 O 0.39983 0.34671 0.8156 0.0
O60 O 0.59623 0.48226 0.85574 0.0
O61 O 0.4695 0.35769 0.84375 0.0
C62 C 0.49106 0.49929 0.76771 0.0
C63 C 0.46704 0.46712 0.90715 0.0
C64 C 0.5231 0.65123 0.83765 0.0
C65 C 0.31972 0.45576 0.83934 0.0
C66 C 0.6386 0.52883 0.84427 0.0
C67 C 0.4276 0.32498 0.82816 0.0
O68 O 0.53609 0.53588 0.78132 0.0
P69 P 0.53696 0.96318 0.23688 0.0
H70 H 0.4733 0.87169 0.19801 0.0
H71 H 0.37009 0.82585 0.181 0.0
H72 H 0.33643 0.94788 0.22645 0.0
H73 H 0.44022 -0.00655 0.24367 0.0
H74 H 0.66565 0.04629 0.24712 0.0
H75 H 0.74538 0.13678 0.22508 0.0
H76 H 0.61533 0.11609 0.16774 0.0
H77 H 0.5351 0.02736 0.1905 0.0
H78 H 0.46568 0.87787 0.27664 0.0
H79 H 0.58721 0.07358 0.26935 0.0
O80 O 0.55715 0.90976 0.23478 0.0
H81 H 0.45021 0.89056 0.32145 0.0
H82 H 0.5734 0.08591 0.31437 0.0
C83 C 0.46344 0.9345 0.22259 0.0
C84 C 0.44391 0.88885 0.20421 0.0
C85 C 0.38518 0.86318 0.19433 0.0
C86 C 0.3452 0.88306 0.20261 0.0
C87 C 0.36611 0.93123 0.22006 0.0
C88 C 0.42516 0.95709 0.22989 0.0
C89 C 0.59433 0.03079 0.22075 0.0
C90 C 0.65424 0.06154 0.22991 0.0
C91 C 0.69993 0.11263 0.21706 0.0
C92 C 0.68684 0.13281 0.19438 0.0
C93 C 0.62672 0.10158 0.18516 0.0
C94 C 0.58082 0.05086 0.19822 0.0
C95 C 0.52858 0.97453 0.26983 0.0
C96 C 0.48942 0.92344 0.28473 0.0
C97 C 0.48027 0.93068 0.31019 0.0
C98 C 0.51065 0.98915 0.32113 0.0
C99 C 0.54976 0.0404 0.30622 0.0
C100 C 0.55801 0.03325 0.28058 0.0
P101 P 0.58921 0.55182 0.57523 0.0
H102 H 0.58525 0.53188 0.52125 0.0
H103 H 0.53428 0.4398 0.49516 0.0
H104 H 0.4552 0.32945 0.56239 0.0
H105 H 0.50272 0.42156 0.58802 0.0
H106 H 0.6652 0.68526 0.56937 0.0
H107 H 0.64342 0.7628 0.55228 0.0
H108 H 0.45978 0.61973 0.53429 0.0
H109 H 0.4809 0.54311 0.55215 0.0
H110 H 0.60657 0.48204 0.615 0.0
H111 H 0.52363 0.59471 0.60789 0.0
O112 O 0.66378 0.57607 0.57306 0.0
H113 H 0.57827 0.46564 0.65996 0.0
H114 H 0.497 0.57963 0.65277 0.0
C115 C 0.54836 0.48355 0.55658 0.0
C116 C 0.5559 0.48789 0.53028 0.0
C117 C 0.52657 0.43536 0.51539 0.0
C118 C 0.49008 0.37736 0.52664 0.0
C119 C 0.48138 0.37351 0.55299 0.0
C120 C 0.50984 0.42625 0.56781 0.0
C121 C 0.57492 0.60859 0.56165 0.0
C122 C 0.62044 0.67073 0.56161 0.0
C123 C 0.60808 0.7148 0.55177 0.0
C124 C 0.54988 0.69708 0.54212 0.0
C125 C 0.50474 0.63462 0.54194 0.0
C126 C 0.51695 0.59082 0.55193 0.0
C127 C 0.56717 0.53942 0.60806 0.0
C128 C 0.5822 0.50306 0.62307 0.0
C129 C 0.56587 0.49351 0.64863 0.0
C130 C 0.53524 0.52116 0.65959 0.0
C131 C 0.52047 0.55778 0.64461 0.0
C132 C 0.53582 0.5664 0.61896 0.0
P133 P 0.07675 0.64354 0.89904 0.0
H134 H 0.18822 0.67709 0.87025 0.0
H135 H 0.22727 0.61589 0.85077 0.0
H136 H 0.0612 0.44956 0.87172 0.0
H137 H 0.02179 0.51113 0.891 0.0
H138 H 0.98102 0.65977 0.92159 0.0
H139 H 0.87979 0.63565 0.90701 0.0
H140 H 0.91315 0.57504 0.83566 0.0
H141 H 0.01466 0.59919 0.85031 0.0
H142 H 0.15094 0.70636 0.94333 0.0
H143 H 0.98439 0.53695 0.92748 0.0
O144 O 0.12722 0.71824 0.89537 0.0
H145 H 0.13717 0.6814 0.9884 0.0
H146 H 0.97176 0.51046 0.97241 0.0
C147 C 0.10251 0.59862 0.8824 0.0
C148 C 0.15974 0.62755 0.87037 0.0
C149 C 0.18179 0.59256 0.85905 0.0
C150 C 0.14712 0.52809 0.85978 0.0
C151 C 0.08878 0.4992 0.87101 0.0
C152 C 0.06653 0.53432 0.88216 0.0
C153 C 0.00438 0.62937 0.88733 0.0
C154 C 0.9666 0.64121 0.90283 0.0
C155 C 0.90899 0.62763 0.8945 0.0
C156 C 0.8889 0.60324 0.87033 0.0
C157 C 0.92792 0.59406 0.85435 0.0
C158 C 0.98554 0.60731 0.86279 0.0
C159 C 0.06872 0.62353 0.93207 0.0
C160 C 0.11185 0.66343 0.9495 0.0
C161 C 0.10419 0.64883 0.97524 0.0
C162 C 0.05372 0.59356 0.98392 0.0
C163 C 0.01099 0.55339 0.9663 0.0
C164 C 0.0185 0.56825 0.9406 0.0
P165 P 0.05365 0.48546 0.42526 0.0
H166 H 0.12789 0.54046 0.46965 0.0
H167 H 0.16971 0.64137 0.48877 0.0
H168 H 0.06904 0.68704 0.43579 0.0
H169 H 0.02839 0.5859 0.41624 0.0
H170 H 0.01596 0.35715 0.43453 0.0
H171 H 0.92458 0.27195 0.454 0.0
H172 H 0.85147 0.39194 0.4664 0.0
H173 H 0.94387 0.47742 0.44764 0.0
H174 H 0.13703 0.53131 0.38245 0.0
H175 H 0.94405 0.45755 0.39568 0.0
O176 O 0.11069 0.47061 0.42767 0.0
H177 H 0.12211 0.53923 0.33727 0.0
H178 H 0.92895 0.46532 0.35033 0.0
C179 C 0.0765 0.55651 0.44117 0.0
C180 C 0.11418 0.57186 0.46235 0.0
C181 C 0.1373 0.6293 0.47352 0.0
C182 C 0.12223 0.67207 0.46393 0.0
C183 C 0.08148 0.65505 0.44354 0.0
C184 C 0.05851 0.59745 0.4323 0.0
C185 C 0.98699 0.4237 0.44009 0.0
C186 C 0.98065 0.36531 0.44178 0.0
C187 C 0.92839 0.31665 0.45282 0.0
C188 C 0.88141 0.32557 0.46212 0.0
C189 C 0.88774 0.38414 0.46011 0.0
C190 C 0.94024 0.43288 0.44922 0.0
C191 C 0.04141 0.49217 0.39226 0.0
C192 C 0.0914 0.51652 0.37561 0.0
C193 C 0.08289 0.52111 0.34986 0.0
C194 C 0.02424 0.50191 0.34038 0.0
C195 C 0.97453 0.48007 0.35723 0.0
C196 C 0.98307 0.47519 0.38306 0.0
P197 P 0.57986 0.05376 0.75955 0.0
H198 H 0.61349 0.14765 0.79795 0.0
H199 H 0.55921 0.19499 0.8167 0.0
H200 H 0.39878 0.07548 0.77318 0.0
H201 H 0.45316 0.02769 0.75455 0.0
H202 H 0.59034 0.94987 0.74232 0.0
H203 H 0.57704 0.85793 0.76387 0.0
H204 H 0.52445 0.91297 0.8322 0.0
H205 H 0.53674 0.00427 0.81046 0.0
H206 H 0.64185 0.13177 0.71599 0.0
H207 H 0.47809 0.95803 0.73044 0.0
O208 O 0.65469 0.1026 0.76289 0.0
H209 H 0.6147 0.12537 0.67153 0.0
H210 H 0.44849 0.95307 0.68614 0.0
C211 C 0.53796 0.08533 0.77438 0.0
C212 C 0.56656 0.13128 0.79253 0.0
C213 C 0.53525 0.15775 0.80345 0.0
C214 C 0.47466 0.13838 0.79648 0.0
C215 C 0.44543 0.09104 0.77883 0.0
C216 C 0.47669 0.06413 0.76808 0.0
C217 C 0.56285 0.98291 0.77455 0.0
C218 C 0.57472 0.94151 0.76177 0.0
C219 C 0.56771 0.8894 0.77417 0.0
C220 C 0.54935 0.87825 0.79966 0.0
C221 C 0.53749 0.91987 0.81244 0.0
C222 C 0.5445 0.97201 0.79999 0.0
C223 C 0.56224 0.04512 0.72642 0.0
C224 C 0.60001 0.09216 0.70957 0.0
C225 C 0.58385 0.08898 0.68422 0.0
C226 C 0.5286 0.03949 0.67541 0.0
C227 C 0.49128 0.99186 0.69233 0.0
C228 C 0.50811 -0.00539 0.71763 0.0
P229 P 0.44718 0.38356 0.10102 0.0
H230 H 0.51159 0.36309 0.14193 0.0
H231 H 0.61318 0.42672 0.15983 0.0
H232 H 0.64454 0.57528 0.10948 0.0
H233 H 0.54351 0.51014 0.09093 0.0
H234 H 0.31479 0.30994 0.10605 0.0
H235 H 0.23847 0.33351 0.12264 0.0
H236 H 0.38335 0.51183 0.14618 0.0
H237 H 0.45895 0.48891 0.12925 0.0
H238 H 0.51612 0.37153 0.05982 0.0
H239 H 0.38623 0.43318 0.06915 0.0
O240 O 0.42692 0.30994 0.10473 0.0
H241 H 0.52118 0.39256 0.01443 0.0
H242 H 0.38988 0.45258 0.02377 0.0
C243 C 0.52112 0.43136 0.11464 0.0
C244 C 0.54034 0.40937 0.13479 0.0
C245 C 0.5979 0.44635 0.14538 0.0
C246 C 0.63657 0.50644 0.13631 0.0
C247 C 0.61573 0.52922 0.11685 0.0
C248 C 0.55842 0.49188 0.10607 0.0
C249 C 0.39244 0.39721 0.11674 0.0
C250 C 0.33002 0.35351 0.1153 0.0
C251 C 0.28661 0.36689 0.12484 0.0
C252 C 0.30534 0.42425 0.13586 0.0
C253 C 0.36794 0.46727 0.1378 0.0
C254 C 0.41117 0.45398 0.1282 0.0
C255 C 0.45023 0.39987 0.06778 0.0
C256 C 0.48838 0.38912 0.05206 0.0
C257 C 0.49099 0.40087 0.02617 0.0
C258 C 0.45505 0.42316 0.01556 0.0
C259 C 0.41792 0.43527 0.03147 0.0
C260 C 0.41554 0.42375 0.05741 0.0
C261 C 0.22223 0.51311 0.139 0.0
C262 C 0.17057 0.47538 0.15405 0.0
C263 C 0.26601 0.49657 0.13368 0.0
C264 C 0.25992 0.44169 0.14316 0.0
H265 H 0.22861 0.5554 0.13082 0.0
H266 H 0.30422 0.52632 0.1215 0.0
S267 S 0.13612 0.32853 0.18486 0.0
N268 N 0.1176 0.38159 0.17938 0.0
N269 N 0.20069 0.35102 0.16928 0.0
C270 C 0.20958 0.40411 0.15869 0.0
C271 C 0.1648 0.4209 0.16421 0.0
C272 C 0.73764 0.16917 0.4668 0.0
C273 C 0.70825 0.17416 0.48854 0.0
C274 C 0.79444 0.21768 0.45886 0.0
C275 C 0.82429 0.27299 0.47238 0.0
H276 H 0.71555 0.12852 0.45514 0.0
H277 H 0.81396 0.21265 0.44142 0.0
S278 S 0.77151 0.30644 0.53251 0.0
N279 N 0.71636 0.23693 0.52482 0.0
N280 N 0.82369 0.32774 0.50997 0.0
C281 C 0.79718 0.27749 0.49487 0.0
C282 C 0.73913 0.22815 0.50295 0.0
C283 C 0.58655 0.75709 0.82035 0.0
C284 C 0.53255 0.71318 0.83265 0.0
C285 C 0.59237 0.81143 0.81065 0.0
C286 C 0.54439 0.82396 0.8128 0.0
H287 H 0.62387 0.7484 0.81734 0.0
H288 H 0.63421 0.84318 0.80077 0.0
S289 S 0.3945 0.72564 0.84429 0.0
N290 N 0.43114 0.68733 0.84753 0.0
N291 N 0.44208 0.78956 0.82902 0.0
C292 C 0.49128 0.78205 0.82612 0.0
C293 C 0.48538 0.72664 0.83614 0.0
C294 C 0.80694 0.57854 0.13074 0.0
C295 C 0.82356 0.57223 0.15537 0.0
C296 C 0.74702 0.56308 0.12517 0.0
C297 C 0.70158 0.54053 0.14407 0.0
H298 H 0.83912 0.59024 0.11524 0.0
H299 H 0.73522 0.56321 0.10553 0.0
S300 S 0.72538 0.52935 0.21251 0.0
N301 N 0.79302 0.55217 0.19951 0.0
N302 N 0.67983 0.5238 0.18912 0.0
C303 C 0.71942 0.54127 0.16928 0.0
C304 C 0.78076 0.55721 0.17495 0.0
C305 C 0.2318 0.843 0.46231 0.0
C306 C 0.25017 0.85571 0.48769 0.0
C307 C 0.1859 0.78436 0.45497 0.0
C308 C 0.15635 0.73658 0.47279 0.0
H309 H 0.25667 0.87667 0.44763 0.0
H310 H 0.17739 0.77521 0.43498 0.0
S311 S 0.17583 0.75094 0.54227 0.0
N312 N 0.22713 0.81922 0.53116 0.0
N313 N 0.13978 0.70925 0.51735 0.0
C314 C 0.16895 0.75085 0.49851 0.0
C315 C 0.21607 0.81041 0.50598 0.0
C316 C 0.4121 0.24594 0.7964 0.0
C317 C 0.41968 0.26456 0.82178 0.0
C318 C 0.42481 0.20046 0.78855 0.0
C319 C 0.44513 0.17229 0.80588 0.0
H320 H 0.40194 0.27042 0.78216 0.0
H321 H 0.4237 0.19113 0.76854 0.0
S322 S 0.45748 0.19427 0.87519 0.0
N323 N 0.43792 0.24376 0.86477 0.0
N324 N 0.46136 0.158 0.84996 0.0
C325 C 0.44596 0.18554 0.83163 0.0
C326 C 0.43321 0.23175 0.83961 0.0
C327 C 0.56116 0.83467 0.50774 0.0
C328 C 0.50978 0.83644 0.51694 0.0
C329 C 0.57379 0.78928 0.51585 0.0
C330 C 0.5353 0.74384 0.53329 0.0
H331 H 0.59254 0.86916 0.49451 0.0
H332 H 0.61396 0.78971 0.50843 0.0
S333 S 0.39503 0.72726 0.5632 0.0
N334 N 0.41962 0.78747 0.54436 0.0
N335 N 0.4444 0.70331 0.55976 0.0
C336 C 0.48356 0.74452 0.54245 0.0
C337 C 0.47053 0.79049 0.53423 0.0
C338 C 0.71649 0.52521 0.87168 0.0
C339 C 0.70298 0.54743 0.84966 0.0
C340 C 0.77678 0.54354 0.87809 0.0
C341 C 0.82587 0.58421 0.8626 0.0
H342 H 0.68033 0.49414 0.8844 0.0
H343 H 0.78508 0.52559 0.8953 0.0
S344 S 0.81594 0.65473 0.80264 0.0
N345 N 0.74416 0.61181 0.81208 0.0
N346 N 0.85782 0.64585 0.82424 0.0
C347 C 0.81338 0.60614 0.84034 0.0
C348 C 0.75185 0.58796 0.83388 0.0
C349 C 0.2088 0.78722 0.16166 0.0
C350 C 0.1625 0.75391 0.17965 0.0
C351 C 0.26678 0.83383 0.16902 0.0
C352 C 0.28049 0.84865 0.19462 0.0
H353 H 0.20167 0.77409 0.14196 0.0
H354 H 0.30242 0.85529 0.15479 0.0
S355 S 0.17252 0.78207 0.24866 0.0
N356 N 0.13169 0.74471 0.22378 0.0
N357 N 0.24122 0.83196 0.23766 0.0
C358 C 0.23287 0.82031 0.2125 0.0
C359 C 0.17357 0.77297 0.20498 0.0
C360 C 0.50385 0.26057 0.48772 0.0
C361 C 0.45028 0.20583 0.49421 0.0
C362 C 0.51368 0.31712 0.49627 0.0
C363 C 0.47033 0.32069 0.51178 0.0
H364 H 0.54085 0.25912 0.47799 0.0
H365 H 0.55804 0.35734 0.49269 0.0
S366 S 0.3174 0.19102 0.52974 0.0
N367 N 0.34984 0.15859 0.51382 0.0
N368 N 0.36739 0.26552 0.52958 0.0
C369 C 0.41366 0.26678 0.51601 0.0
C370 C 0.40381 0.20904 0.50727 0.0
C371 C 0.24573 0.48321 0.82238 0.0
C372 C 0.2602 0.45238 0.84077 0.0
C373 C 0.20444 0.50337 0.82783 0.0
C374 C 0.17588 0.49235 0.85167 0.0
H375 H 0.27102 0.49737 0.80472 0.0
H376 H 0.19815 0.53148 0.81402 0.0
S377 S 0.19247 0.40581 0.90478 0.0
N378 N 0.23843 0.40601 0.88251 0.0
N379 N 0.15994 0.4427 0.89267 0.0
C380 C 0.18545 0.45614 0.8692 0.0
C381 C 0.22794 0.4364 0.86375 0.0
C382 C 0.77157 0.2912 0.16417 0.0
C383 C 0.83192 0.30273 0.16286 0.0
C384 C 0.72407 0.23482 0.17329 0.0
C385 C 0.73538 0.18805 0.18113 0.0
H386 H 0.76169 0.32731 0.1598 0.0
H387 H 0.67895 0.22919 0.17553 0.0
S388 S 0.88355 0.19182 0.17653 0.0
N389 N 0.89924 0.2607 0.167 0.0
N390 N 0.80966 0.15394 0.18326 0.0
C391 C 0.79466 0.19742 0.17784 0.0
C392 C 0.84301 0.25497 0.1689 0.0
C393 C 0.97818 0.54653 0.04873 0.0
C394 C 0.02663 0.55528 0.06441 0.0
C395 C -0.01289 0.55825 0.02268 0.0
C396 C 0.04468 0.57864 0.01133 0.0
H397 H 0.93347 0.53223 0.05673 0.0
H398 H 0.94898 0.55272 0.01144 0.0
S399 S 0.18429 0.60097 0.04358 0.0
N400 N 0.13299 0.58093 0.06641 0.0
N401 N 0.14925 0.60158 0.01744 0.0
C402 C 0.09282 0.58525 0.02667 0.0
C403 C 0.08392 0.57387 0.05318 0.0
C404 C 0.54706 0.02071 0.39053 0.0
C405 C 0.48986 0.00412 0.40137 0.0
C406 C 0.55368 0.01738 0.36442 0.0
C407 C 0.5031 -0.00388 0.34834 0.0
H408 H 0.58712 0.03665 0.40232 0.0
H409 H 0.59838 0.03019 0.3568 0.0
S410 S 0.34364 0.9469 0.36708 0.0
N411 N 0.3819 0.9664 0.3939 0.0
N412 N 0.39427 0.95866 0.34476 0.0
C413 C 0.44574 0.97951 0.35882 0.0
C414 C 0.43916 0.984 0.38537 0.0
C415 C 0.53709 0.561 0.72853 0.0
C416 C 0.49898 0.50347 0.73998 0.0
C417 C 0.54748 0.56636 0.70241 0.0
C418 C 0.52122 0.51424 0.68691 0.0
H419 H 0.55897 0.60228 0.73985 0.0
H420 H 0.57726 0.61146 0.69432 0.0
S421 S 0.41849 0.35321 0.70741 0.0
N422 N 0.43451 0.39338 0.73372 0.0
N423 N 0.45544 0.40353 0.68458 0.0
C424 C 0.48307 0.4565 0.69802 0.0
C425 C 0.47148 0.4511 0.72457 0.0
C426 C 0.47506 0.97945 0.60915 0.0
C427 C 0.48438 0.032 0.59593 0.0
C428 C 0.48832 0.98198 0.63493 0.0
C429 C 0.51069 0.03699 0.64854 0.0
H430 H 0.45987 0.93658 0.59929 0.0
H431 H 0.48291 0.941 0.64405 0.0
S432 S 0.53414 0.18506 0.62338 0.0
N433 N 0.51223 0.13914 0.59867 0.0
N434 N 0.53491 0.14348 0.64738 0.0
C435 C 0.51708 0.08905 0.63578 0.0
C436 C 0.50446 0.08665 0.60944 0.0
C437 C 0.46638 0.49905 0.95197 0.0
C438 C 0.46109 0.45436 0.93469 0.0
C439 C 0.46383 0.48853 0.97812 0.0
C440 C 0.45572 0.4329 0.98789 0.0
H441 H 0.47385 0.54298 0.94529 0.0
H442 H 0.46946 0.52465 0.99078 0.0
S443 S 0.432 0.29821 0.95077 0.0
N444 N 0.44258 0.35039 0.92934 0.0
N445 N 0.43713 0.33075 0.97834 0.0
C446 C 0.44828 0.38712 0.97084 0.0
C447 C 0.45109 0.3978 0.9443 0.0
C448 C 0.98156 0.53723 0.27626 0.0
C449 C 0.00155 0.50766 0.25943 0.0
C450 C -0.01219 0.53428 0.30251 0.0
C451 C 0.01502 0.50242 0.31281 0.0
H452 H 0.96113 0.56306 0.26915 0.0
H453 H 0.97243 0.55813 0.3148 0.0
S454 S 0.07278 0.41513 0.27752 0.0
N455 N 0.04821 0.44373 0.25547 0.0
N456 N 0.05975 0.43876 0.3046 0.0
C457 C 0.03431 0.47196 0.29636 0.0
C458 C 0.02762 0.47442 0.26974 0.0
loop_
_geom_bond_atom_site_label_1
_geom_bond_atom_site_label_2
_geom_bond_distance
_geom_bond_site_symmetry_2
_ccdc_geom_bond_type
O0 Zn1 1.953 1_655 S
O0 C16 1.225 1_655 S
Zn1 O0 1.953 1_455 S
Zn1 O2 1.949 . S
Zn1 O8 1.919 1_455 S
Zn1 O13 1.924 . S
O2 Zn1 1.949 . S
O2 Zn3 1.923 1_455 S
O2 Zn4 1.950 . S
O2 Zn5 1.945 . S
Zn3 O2 1.923 1_655 S
Zn3 O6 1.933 . S
Zn3 O9 1.941 . S
Zn3 O10 1.965 . S
Zn4 O2 1.950 . S
Zn4 O11 1.938 1_455 S
Zn4 O12 1.906 . S
Zn4 O22 1.953 . S
Zn5 O2 1.945 . S
Zn5 O7 1.932 . S
Zn5 O14 1.977 . S
Zn5 O15 1.910 . S
O6 Zn3 1.933 . S
O6 C17 1.226 1_655 S
O7 Zn5 1.932 . S
O7 C17 1.307 . S
O8 Zn1 1.919 1_655 S
O8 C19 1.253 . S
O9 Zn3 1.941 . S
O9 C19 1.283 . S
O10 Zn3 1.965 . S
O10 C18 1.303 . S
O11 Zn4 1.938 1_655 S
O11 C18 1.247 . S
O12 Zn4 1.906 . S
O12 C20 1.304 . S
O13 Zn1 1.924 . S
O13 C21 1.311 . S
O14 Zn5 1.977 . S
O14 C20 1.272 . S
O15 Zn5 1.910 . S
O15 C21 1.231 . S
C16 O0 1.225 1_455 S
C16 O22 1.298 . S
C17 O6 1.226 1_455 S
C17 O7 1.307 . S
C18 O10 1.303 . S
C18 O11 1.247 . S
C19 O8 1.253 . S
C19 O9 1.283 . S
C20 O12 1.304 . S
C20 O14 1.272 . S
C21 O13 1.311 . S
C21 O15 1.231 . S
O22 Zn4 1.953 . S
O22 C16 1.298 . S
O23 Zn24 1.953 . S
O23 C39 1.225 . S
Zn24 O23 1.953 . S
Zn24 O25 1.949 . S
Zn24 O31 1.919 . S
Zn24 O36 1.924 1_545 S
O25 Zn24 1.949 . S
O25 Zn26 1.923 . S
O25 Zn27 1.950 . S
O25 Zn28 1.945 1_545 S
Zn26 O25 1.923 . S
Zn26 O29 1.933 . S
Zn26 O32 1.941 . S
Zn26 O33 1.965 . S
Zn27 O25 1.950 . S
Zn27 O34 1.938 . S
Zn27 O35 1.906 1_545 S
Zn27 O45 1.953 . S
Zn28 O25 1.945 1_565 S
Zn28 O30 1.932 . S
Zn28 O37 1.977 . S
Zn28 O38 1.910 . S
O29 Zn26 1.933 . S
O29 C40 1.226 . S
O30 Zn28 1.932 . S
O30 C40 1.307 1_565 S
O31 Zn24 1.919 . S
O31 C42 1.253 . S
O32 Zn26 1.941 . S
O32 C42 1.283 . S
O33 Zn26 1.965 . S
O33 C41 1.303 . S
O34 Zn27 1.938 . S
O34 C41 1.247 . S
O35 Zn27 1.906 1_565 S
O35 C43 1.304 . S
O36 Zn24 1.924 1_565 S
O36 C44 1.311 . S
O37 Zn28 1.977 . S
O37 C43 1.272 . S
O38 Zn28 1.910 . S
O38 C44 1.231 . S
C39 O23 1.225 . S
C39 O45 1.298 . S
C40 O29 1.226 . S
C40 O30 1.307 1_545 S
C41 O33 1.303 . S
C41 O34 1.247 . S
C42 O31 1.253 . S
C42 O32 1.283 . S
C43 O35 1.304 . S
C43 O37 1.272 . S
C44 O36 1.311 . S
C44 O38 1.231 . S
O45 Zn27 1.953 . S
O45 C39 1.298 . S
O46 Zn47 1.953 . S
O46 C62 1.225 . S
Zn47 O46 1.953 . S
Zn47 O48 1.949 . S
Zn47 O54 1.919 . S
Zn47 O59 1.924 . S
O48 Zn47 1.949 . S
O48 Zn49 1.923 . S
O48 Zn50 1.950 . S
O48 Zn51 1.945 . S
Zn49 O48 1.923 . S
Zn49 O52 1.933 . S
Zn49 O55 1.941 . S
Zn49 O56 1.965 . S
Zn50 O48 1.950 . S
Zn50 O57 1.938 . S
Zn50 O58 1.906 . S
Zn50 O68 1.953 . S
Zn51 O48 1.945 . S
Zn51 O53 1.932 . S
Zn51 O60 1.977 . S
Zn51 O61 1.910 . S
O52 Zn49 1.933 . S
O52 C63 1.226 . S
O53 Zn51 1.932 . S
O53 C63 1.307 . S
O54 Zn47 1.919 . S
O54 C65 1.253 . S
O55 Zn49 1.941 . S
O55 C65 1.283 . S
O56 Zn49 1.965 . S
O56 C64 1.303 . S
O57 Zn50 1.938 . S
O57 C64 1.247 . S
O58 Zn50 1.906 . S
O58 C66 1.304 . S
O59 Zn47 1.924 . S
O59 C67 1.311 . S
O60 Zn51 1.977 . S
O60 C66 1.272 . S
O61 Zn51 1.910 . S
O61 C67 1.231 . S
C62 O46 1.225 . S
C62 O68 1.298 . S
C63 O52 1.226 . S
C63 O53 1.307 . S
C64 O56 1.303 . S
C64 O57 1.247 . S
C65 O54 1.253 . S
C65 O55 1.283 . S
C66 O58 1.304 . S
C66 O60 1.272 . S
C67 O59 1.311 . S
C67 O61 1.231 . S
O68 Zn50 1.953 . S
O68 C62 1.298 . S
P69 O80 1.490 . S
P69 C83 1.812 . S
P69 C89 1.803 1_565 S
P69 C95 1.812 1_565 S
H70 C84 0.941 . S
H71 C85 0.939 . S
H72 C87 0.940 . S
H73 C88 0.940 . S
H74 C90 0.939 . S
H75 C91 0.942 . S
H76 C93 0.940 . S
H77 C94 0.939 . S
H78 C96 0.941 . S
H79 C100 0.939 . S
O80 P69 1.490 . S
H81 C97 0.939 . S
H82 C99 0.940 . S
C83 P69 1.812 . S
C83 C84 1.389 . S
C83 C88 1.391 . S
C84 H70 0.941 . S
C84 C83 1.389 . S
C84 C85 1.397 . S
C85 H71 0.939 . S
C85 C84 1.397 . S
C85 C86 1.378 . S
C86 C85 1.378 . S
C86 C87 1.378 . S
C87 H72 0.940 . S
C87 C86 1.378 . S
C87 C88 1.396 . S
C88 H73 0.940 . S
C88 C83 1.391 . S
C88 C87 1.396 . S
C89 P69 1.803 1_545 S
C89 C90 1.378 . S
C89 C94 1.400 . S
C90 H74 0.939 . S
C90 C89 1.378 . S
C90 C91 1.361 . S
C91 H75 0.942 . S
C91 C90 1.361 . S
C91 C92 1.369 . S
C92 C91 1.369 . S
C92 C93 1.404 . S
C93 H76 0.940 . S
C93 C92 1.404 . S
C93 C94 1.389 . S
C94 H77 0.939 . S
C94 C89 1.400 . S
C94 C93 1.389 . S
C95 P69 1.812 1_545 S
C95 C96 1.378 1_545 S
C95 C100 1.411 . S
C96 H78 0.941 . S
C96 C95 1.378 1_565 S
C96 C97 1.396 . S
C97 H81 0.939 . S
C97 C96 1.396 . S
C97 C98 1.397 1_565 S
C98 C97 1.397 1_545 S
C98 C99 1.385 . S
C99 H82 0.940 . S
C99 C98 1.385 . S
C99 C100 1.388 . S
C100 H79 0.939 . S
C100 C95 1.411 . S
C100 C99 1.388 . S
P101 O112 1.490 . S
P101 C115 1.812 . S
P101 C121 1.803 . S
P101 C127 1.819 . S
H102 C116 0.941 . S
H103 C117 0.939 . S
H104 C119 0.940 . S
H105 C120 0.940 . S
H106 C122 0.939 . S
H107 C123 0.942 . S
H108 C125 0.940 . S
H109 C126 0.939 . S
H110 C128 0.941 . S
H111 C132 0.939 . S
O112 P101 1.490 . S
H113 C129 0.939 . S
H114 C131 0.940 . S
C115 P101 1.812 . S
C115 C116 1.389 . S
C115 C120 1.391 . S
C116 H102 0.941 . S
C116 C115 1.389 . S
C116 C117 1.397 . S
C117 H103 0.939 . S
C117 C116 1.397 . S
C117 C118 1.378 . S
C118 C117 1.378 . S
C118 C119 1.378 . S
C119 H104 0.940 . S
C119 C118 1.378 . S
C119 C120 1.396 . S
C120 H105 0.940 . S
C120 C115 1.391 . S
C120 C119 1.396 . S
C121 P101 1.803 . S
C121 C122 1.378 . S
C121 C126 1.400 . S
C122 H106 0.939 . S
C122 C121 1.378 . S
C122 C123 1.361 . S
C123 H107 0.942 . S
C123 C122 1.361 . S
C123 C124 1.369 . S
C124 C123 1.369 . S
C124 C125 1.404 . S
C125 H108 0.940 . S
C125 C124 1.404 . S
C125 C126 1.389 . S
C126 H109 0.939 . S
C126 C121 1.400 . S
C126 C125 1.389 . S
C127 P101 1.819 . S
C127 C128 1.391 . S
C127 C132 1.391 . S
C128 H110 0.941 . S
C128 C127 1.391 . S
C128 C129 1.396 . S
C129 H113 0.939 . S
C129 C128 1.396 . S
C129 C130 1.397 . S
C130 C129 1.397 . S
C130 C131 1.385 . S
C131 H114 0.940 . S
C131 C130 1.385 . S
C131 C132 1.388 . S
C132 H111 0.939 . S
C132 C127 1.391 . S
C132 C131 1.388 . S
P133 O144 1.490 . S
P133 C147 1.812 . S
P133 C153 1.803 1_455 S
P133 C159 1.819 . S
H134 C148 0.941 . S
H135 C149 0.939 . S
H136 C151 0.940 . S
H137 C152 0.940 . S
H138 C154 0.939 . S
H139 C155 0.942 . S
H140 C157 0.940 . S
H141 C158 0.939 . S
H142 C160 0.941 . S
H143 C164 0.939 . S
O144 P133 1.490 . S
H145 C161 0.939 . S
H146 C163 0.940 . S
C147 P133 1.812 . S
C147 C148 1.389 . S
C147 C152 1.391 . S
C148 H134 0.941 . S
C148 C147 1.389 . S
C148 C149 1.397 . S
C149 H135 0.939 . S
C149 C148 1.397 . S
C149 C150 1.378 . S
C150 C149 1.378 . S
C150 C151 1.378 . S
C151 H136 0.940 . S
C151 C150 1.378 . S
C151 C152 1.396 . S
C152 H137 0.940 . S
C152 C147 1.391 . S
C152 C151 1.396 . S
C153 P133 1.803 1_655 S
C153 C154 1.378 . S
C153 C158 1.400 . S
C154 H138 0.939 . S
C154 C153 1.378 . S
C154 C155 1.361 . S
C155 H139 0.942 . S
C155 C154 1.361 . S
C155 C156 1.369 . S
C156 C155 1.369 . S
C156 C157 1.404 . S
C157 H140 0.940 . S
C157 C156 1.404 . S
C157 C158 1.389 . S
C158 H141 0.939 . S
C158 C153 1.400 . S
C158 C157 1.389 . S
C159 P133 1.819 . S
C159 C160 1.391 . S
C159 C164 1.391 1_455 S
C160 H142 0.941 . S
C160 C159 1.391 . S
C160 C161 1.396 . S
C161 H145 0.939 . S
C161 C160 1.396 . S
C161 C162 1.397 . S
C162 C161 1.397 . S
C162 C163 1.385 1_455 S
C163 H146 0.940 . S
C163 C162 1.385 1_655 S
C163 C164 1.388 . S
C164 H143 0.939 . S
C164 C159 1.391 1_655 S
C164 C163 1.388 . S
P165 O176 1.490 . S
P165 C179 1.812 . S
P165 C185 1.803 1_455 S
P165 C191 1.819 . S
H166 C180 0.941 . S
H167 C181 0.939 . S
H168 C183 0.940 . S
H169 C184 0.940 . S
H170 C186 0.939 . S
H171 C187 0.942 . S
H172 C189 0.940 . S
H173 C190 0.939 . S
H174 C192 0.941 . S
H175 C196 0.939 . S
O176 P165 1.490 . S
H177 C193 0.939 . S
H178 C195 0.940 . S
C179 P165 1.812 . S
C179 C180 1.389 . S
C179 C184 1.391 . S
C180 H166 0.941 . S
C180 C179 1.389 . S
C180 C181 1.397 . S
C181 H167 0.939 . S
C181 C180 1.397 . S
C181 C182 1.378 . S
C182 C181 1.378 . S
C182 C183 1.378 . S
C183 H168 0.940 . S
C183 C182 1.378 . S
C183 C184 1.396 . S
C184 H169 0.940 . S
C184 C179 1.391 . S
C184 C183 1.396 . S
C185 P165 1.803 1_655 S
C185 C186 1.378 . S
C185 C190 1.400 . S
C186 H170 0.939 . S
C186 C185 1.378 . S
C186 C187 1.361 . S
C187 H171 0.942 . S
C187 C186 1.361 . S
C187 C188 1.369 . S
C188 C187 1.369 . S
C188 C189 1.404 . S
C189 H172 0.940 . S
C189 C188 1.404 . S
C189 C190 1.389 . S
C190 H173 0.939 . S
C190 C185 1.400 . S
C190 C189 1.389 . S
C191 P165 1.819 . S
C191 C192 1.391 . S
C191 C196 1.391 1_455 S
C192 H174 0.941 . S
C192 C191 1.391 . S
C192 C193 1.396 . S
C193 H177 0.939 . S
C193 C192 1.396 . S
C193 C194 1.397 . S
C194 C193 1.397 . S
C194 C195 1.385 1_455 S
C195 H178 0.940 . S
C195 C194 1.385 1_655 S
C195 C196 1.388 . S
C196 H175 0.939 . S
C196 C191 1.391 1_655 S
C196 C195 1.388 . S
P197 O208 1.490 . S
P197 C211 1.812 . S
P197 C217 1.803 1_545 S
P197 C223 1.819 . S
H198 C212 0.941 . S
H199 C213 0.939 . S
H200 C215 0.940 . S
H201 C216 0.940 . S
H202 C218 0.939 . S
H203 C219 0.942 . S
H204 C221 0.940 . S
H205 C222 0.939 . S
H206 C224 0.941 . S
H207 C228 0.939 . S
O208 P197 1.490 . S
H209 C225 0.939 . S
H210 C227 0.940 . S
C211 P197 1.812 . S
C211 C212 1.389 . S
C211 C216 1.391 . S
C212 H198 0.941 . S
C212 C211 1.389 . S
C212 C213 1.397 . S
C213 H199 0.939 . S
C213 C212 1.397 . S
C213 C214 1.378 . S
C214 C213 1.378 . S
C214 C215 1.378 . S
C215 H200 0.940 . S
C215 C214 1.378 . S
C215 C216 1.396 . S
C216 H201 0.940 . S
C216 C211 1.391 . S
C216 C215 1.396 . S
C217 P197 1.803 1_565 S
C217 C218 1.378 . S
C217 C222 1.400 . S
C218 H202 0.939 . S
C218 C217 1.378 . S
C218 C219 1.361 . S
C219 H203 0.942 . S
C219 C218 1.361 . S
C219 C220 1.369 . S
C220 C219 1.369 . S
C220 C221 1.404 . S
C221 H204 0.940 . S
C221 C220 1.404 . S
C221 C222 1.389 . S
C222 H205 0.939 . S
C222 C217 1.400 . S
C222 C221 1.389 . S
C223 P197 1.819 . S
C223 C224 1.391 . S
C223 C228 1.391 1_545 S
C224 H206 0.941 . S
C224 C223 1.391 . S
C224 C225 1.396 . S
C225 H209 0.939 . S
C225 C224 1.396 . S
C225 C226 1.397 . S
C226 C225 1.397 . S
C226 C227 1.385 1_545 S
C227 H210 0.940 . S
C227 C226 1.385 1_565 S
C227 C228 1.388 . S
C228 H207 0.939 . S
C228 C223 1.391 1_565 S
C228 C227 1.388 . S
P229 O240 1.490 . S
P229 C243 1.812 . S
P229 C249 1.803 . S
P229 C255 1.819 . S
H230 C244 0.941 . S
H231 C245 0.939 . S
H232 C247 0.940 . S
H233 C248 0.940 . S
H234 C250 0.939 . S
H235 C251 0.942 . S
H236 C253 0.940 . S
H237 C254 0.939 . S
H238 C256 0.941 . S
H239 C260 0.939 . S
O240 P229 1.490 . S
H241 C257 0.939 . S
H242 C259 0.940 . S
C243 P229 1.812 . S
C243 C244 1.389 . S
C243 C248 1.391 . S
C244 H230 0.941 . S
C244 C243 1.389 . S
C244 C245 1.397 . S
C245 H231 0.939 . S
C245 C244 1.397 . S
C245 C246 1.378 . S
C246 C245 1.378 . S
C246 C247 1.378 . S
C247 H232 0.940 . S
C247 C246 1.378 . S
C247 C248 1.396 . S
C248 H233 0.940 . S
C248 C243 1.391 . S
C248 C247 1.396 . S
C249 P229 1.803 . S
C249 C250 1.378 . S
C249 C254 1.400 . S
C250 H234 0.939 . S
C250 C249 1.378 . S
C250 C251 1.361 . S
C251 H235 0.942 . S
C251 C250 1.361 . S
C251 C252 1.369 . S
C252 C251 1.369 . S
C252 C253 1.404 . S
C253 H236 0.940 . S
C253 C252 1.404 . S
C253 C254 1.389 . S
C254 H237 0.939 . S
C254 C249 1.400 . S
C254 C253 1.389 . S
C255 P229 1.819 . S
C255 C256 1.391 . S
C255 C260 1.391 . S
C256 H238 0.941 . S
C256 C255 1.391 . S
C256 C257 1.396 . S
C257 H241 0.939 . S
C257 C256 1.396 . S
C257 C258 1.397 . S
C258 C257 1.397 . S
C258 C259 1.385 . S
C259 H242 0.940 . S
C259 C258 1.385 . S
C259 C260 1.388 . S
C260 H239 0.939 . S
C260 C255 1.391 . S
C260 C259 1.388 . S
C261 C262 1.369 . S
C261 C263 1.419 . S
C261 H265 0.930 . S
C262 C261 1.369 . S
C262 C271 1.429 . S
C263 C261 1.419 . S
C263 C264 1.363 . S
C263 H266 0.929 . S
C264 C263 1.363 . S
C264 C270 1.428 . S
H265 C261 0.930 . S
H266 C263 0.929 . S
S267 N268 1.613 . S
S267 N269 1.610 . S
N268 S267 1.613 . S
N268 C271 1.350 . S
N269 S267 1.610 . S
N269 C270 1.351 . S
C270 C264 1.428 . S
C270 N269 1.351 . S
C270 C271 1.434 . S
C271 C262 1.429 . S
C271 N268 1.350 . S
C271 C270 1.434 . S
C272 C273 1.369 . S
C272 C274 1.419 . S
C272 H276 0.930 . S
C273 C272 1.369 . S
C273 C282 1.429 . S
C274 C272 1.419 . S
C274 C275 1.363 . S
C274 H277 0.929 . S
C275 C274 1.363 . S
C275 C281 1.428 . S
H276 C272 0.930 . S
H277 C274 0.929 . S
S278 N279 1.613 . S
S278 N280 1.610 . S
N279 S278 1.613 . S
N279 C282 1.350 . S
N280 S278 1.610 . S
N280 C281 1.351 . S
C281 C275 1.428 . S
C281 N280 1.351 . S
C281 C282 1.434 . S
C282 C273 1.429 . S
C282 N279 1.350 . S
C282 C281 1.434 . S
C283 C284 1.369 . S
C283 C285 1.419 . S
C283 H287 0.930 . S
C284 C283 1.369 . S
C284 C293 1.429 . S
C285 C283 1.419 . S
C285 C286 1.363 . S
C285 H288 0.929 . S
C286 C285 1.363 . S
C286 C292 1.428 . S
H287 C283 0.930 . S
H288 C285 0.929 . S
S289 N290 1.613 . S
S289 N291 1.610 . S
N290 S289 1.613 . S
N290 C293 1.350 . S
N291 S289 1.610 . S
N291 C292 1.351 . S
C292 C286 1.428 . S
C292 N291 1.351 . S
C292 C293 1.434 . S
C293 C284 1.429 . S
C293 N290 1.350 . S
C293 C292 1.434 . S
C294 C295 1.369 . S
C294 C296 1.419 . S
C294 H298 0.930 . S
C295 C294 1.369 . S
C295 C304 1.429 . S
C296 C294 1.419 . S
C296 C297 1.363 . S
C296 H299 0.929 . S
C297 C296 1.363 . S
C297 C303 1.428 . S
H298 C294 0.930 . S
H299 C296 0.929 . S
S300 N301 1.613 . S
S300 N302 1.610 . S
N301 S300 1.613 . S
N301 C304 1.350 . S
N302 S300 1.610 . S
N302 C303 1.351 . S
C303 C297 1.428 . S
C303 N302 1.351 . S
C303 C304 1.434 . S
C304 C295 1.429 . S
C304 N301 1.350 . S
C304 C303 1.434 . S
C305 C306 1.369 . S
C305 C307 1.419 . S
C305 H309 0.930 . S
C306 C305 1.369 . S
C306 C315 1.429 . S
C307 C305 1.419 . S
C307 C308 1.363 . S
C307 H310 0.929 . S
C308 C307 1.363 . S
C308 C314 1.428 . S
H309 C305 0.930 . S
H310 C307 0.929 . S
S311 N312 1.613 . S
S311 N313 1.610 . S
N312 S311 1.613 . S
N312 C315 1.350 . S
N313 S311 1.610 . S
N313 C314 1.351 . S
C314 C308 1.428 . S
C314 N313 1.351 . S
C314 C315 1.434 . S
C315 C306 1.429 . S
C315 N312 1.350 . S
C315 C314 1.434 . S
C316 C317 1.369 . S
C316 C318 1.419 . S
C316 H320 0.930 . S
C317 C316 1.369 . S
C317 C326 1.429 . S
C318 C316 1.419 . S
C318 C319 1.363 . S
C318 H321 0.929 . S
C319 C318 1.363 . S
C319 C325 1.428 . S
H320 C316 0.930 . S
H321 C318 0.929 . S
S322 N323 1.613 . S
S322 N324 1.610 . S
N323 S322 1.613 . S
N323 C326 1.350 . S
N324 S322 1.610 . S
N324 C325 1.351 . S
C325 C319 1.428 . S
C325 N324 1.351 . S
C325 C326 1.434 . S
C326 C317 1.429 . S
C326 N323 1.350 . S
C326 C325 1.434 . S
C327 C328 1.369 . S
C327 C329 1.419 . S
C327 H331 0.930 . S
C328 C327 1.369 . S
C328 C337 1.429 . S
C329 C327 1.419 . S
C329 C330 1.363 . S
C329 H332 0.929 . S
C330 C329 1.363 . S
C330 C336 1.428 . S
H331 C327 0.930 . S
H332 C329 0.929 . S
S333 N334 1.613 . S
S333 N335 1.610 . S
N334 S333 1.613 . S
N334 C337 1.350 . S
N335 S333 1.610 . S
N335 C336 1.351 . S
C336 C330 1.428 . S
C336 N335 1.351 . S
C336 C337 1.434 . S
C337 C328 1.429 . S
C337 N334 1.350 . S
C337 C336 1.434 . S
C338 C339 1.369 . S
C338 C340 1.419 . S
C338 H342 0.930 . S
C339 C338 1.369 . S
C339 C348 1.429 . S
C340 C338 1.419 . S
C340 C341 1.363 . S
C340 H343 0.929 . S
C341 C340 1.363 . S
C341 C347 1.428 . S
H342 C338 0.930 . S
H343 C340 0.929 . S
S344 N345 1.613 . S
S344 N346 1.610 . S
N345 S344 1.613 . S
N345 C348 1.350 . S
N346 S344 1.610 . S
N346 C347 1.351 . S
C347 C341 1.428 . S
C347 N346 1.351 . S
C347 C348 1.434 . S
C348 C339 1.429 . S
C348 N345 1.350 . S
C348 C347 1.434 . S
C349 C350 1.369 . S
C349 C351 1.419 . S
C349 H353 0.930 . S
C350 C349 1.369 . S
C350 C359 1.429 . S
C351 C349 1.419 . S
C351 C352 1.363 . S
C351 H354 0.929 . S
C352 C351 1.363 . S
C352 C358 1.428 . S
H353 C349 0.930 . S
H354 C351 0.929 . S
S355 N356 1.613 . S
S355 N357 1.610 . S
N356 S355 1.613 . S
N356 C359 1.350 . S
N357 S355 1.610 . S
N357 C358 1.351 . S
C358 C352 1.428 . S
C358 N357 1.351 . S
C358 C359 1.434 . S
C359 C350 1.429 . S
C359 N356 1.350 . S
C359 C358 1.434 . S
C360 C361 1.369 . S
C360 C362 1.419 . S
C360 H364 0.930 . S
C361 C360 1.369 . S
C361 C370 1.429 . S
C362 C360 1.419 . S
C362 C363 1.363 . S
C362 H365 0.929 . S
C363 C362 1.363 . S
C363 C369 1.428 . S
H364 C360 0.930 . S
H365 C362 0.929 . S
S366 N367 1.613 . S
S366 N368 1.610 . S
N367 S366 1.613 . S
N367 C370 1.350 . S
N368 S366 1.610 . S
N368 C369 1.351 . S
C369 C363 1.428 . S
C369 N368 1.351 . S
C369 C370 1.434 . S
C370 C361 1.429 . S
C370 N367 1.350 . S
C370 C369 1.434 . S
C371 C372 1.369 . S
C371 C373 1.419 . S
C371 H375 0.930 . S
C372 C371 1.369 . S
C372 C381 1.429 . S
C373 C371 1.419 . S
C373 C374 1.363 . S
C373 H376 0.929 . S
C374 C373 1.363 . S
C374 C380 1.428 . S
H375 C371 0.930 . S
H376 C373 0.929 . S
S377 N378 1.613 . S
S377 N379 1.610 . S
N378 S377 1.613 . S
N378 C381 1.350 . S
N379 S377 1.610 . S
N379 C380 1.351 . S
C380 C374 1.428 . S
C380 N379 1.351 . S
C380 C381 1.434 . S
C381 C372 1.429 . S
C381 N378 1.350 . S
C381 C380 1.434 . S
C382 C383 1.369 . S
C382 C384 1.419 . S
C382 H386 0.930 . S
C383 C382 1.369 . S
C383 C392 1.429 . S
C384 C382 1.419 . S
C384 C385 1.363 . S
C384 H387 0.929 . S
C385 C384 1.363 . S
C385 C391 1.428 . S
H386 C382 0.930 . S
H387 C384 0.929 . S
S388 N389 1.613 . S
S388 N390 1.610 . S
N389 S388 1.613 . S
N389 C392 1.350 . S
N390 S388 1.610 . S
N390 C391 1.351 . S
C391 C385 1.428 . S
C391 N390 1.351 . S
C391 C392 1.434 . S
C392 C383 1.429 . S
C392 N389 1.350 . S
C392 C391 1.434 . S
C393 C394 1.369 . S
C393 C395 1.419 . S
C393 H397 0.930 1_455 S
C394 C393 1.369 . S
C394 C403 1.429 . S
C395 C393 1.419 . S
C395 C396 1.363 . S
C395 H398 0.929 . S
C396 C395 1.363 . S
C396 C402 1.428 . S
H397 C393 0.930 1_655 S
H398 C395 0.929 . S
S399 N400 1.613 . S
S399 N401 1.610 . S
N400 S399 1.613 . S
N400 C403 1.350 . S
N401 S399 1.610 . S
N401 C402 1.351 . S
C402 C396 1.428 . S
C402 N401 1.351 . S
C402 C403 1.434 . S
C403 C394 1.429 . S
C403 N400 1.350 . S
C403 C402 1.434 . S
C404 C405 1.369 . S
C404 C406 1.419 . S
C404 H408 0.930 . S
C405 C404 1.369 . S
C405 C414 1.429 1_545 S
C406 C404 1.419 . S
C406 C407 1.363 . S
C406 H409 0.929 . S
C407 C406 1.363 . S
C407 C413 1.428 1_545 S
H408 C404 0.930 . S
H409 C406 0.929 . S
S410 N411 1.613 . S
S410 N412 1.610 . S
N411 S410 1.613 . S
N411 C414 1.350 . S
N412 S410 1.610 . S
N412 C413 1.351 . S
C413 C407 1.428 1_565 S
C413 N412 1.351 . S
C413 C414 1.434 . S
C414 C405 1.429 1_565 S
C414 N411 1.350 . S
C414 C413 1.434 . S
C415 C416 1.369 . S
C415 C417 1.419 . S
C415 H419 0.930 . S
C416 C415 1.369 . S
C416 C425 1.429 . S
C417 C415 1.419 . S
C417 C418 1.363 . S
C417 H420 0.929 . S
C418 C417 1.363 . S
C418 C424 1.428 . S
H419 C415 0.930 . S
H420 C417 0.929 . S
S421 N422 1.613 . S
S421 N423 1.610 . S
N422 S421 1.613 . S
N422 C425 1.350 . S
N423 S421 1.610 . S
N423 C424 1.351 . S
C424 C418 1.428 . S
C424 N423 1.351 . S
C424 C425 1.434 . S
C425 C416 1.429 . S
C425 N422 1.350 . S
C425 C424 1.434 . S
C426 C427 1.369 1_565 S
C426 C428 1.419 . S
C426 H430 0.930 . S
C427 C426 1.369 1_545 S
C427 C436 1.429 . S
C428 C426 1.419 . S
C428 C429 1.363 1_565 S
C428 H431 0.929 . S
C429 C428 1.363 1_545 S
C429 C435 1.428 . S
H430 C426 0.930 . S
H431 C428 0.929 . S
S432 N433 1.613 . S
S432 N434 1.610 . S
N433 S432 1.613 . S
N433 C436 1.350 . S
N434 S432 1.610 . S
N434 C435 1.351 . S
C435 C429 1.428 . S
C435 N434 1.351 . S
C435 C436 1.434 . S
C436 C427 1.429 . S
C436 N433 1.350 . S
C436 C435 1.434 . S
C437 C438 1.369 . S
C437 C439 1.419 . S
C437 H441 0.930 . S
C438 C437 1.369 . S
C438 C447 1.429 . S
C439 C437 1.419 . S
C439 C440 1.363 . S
C439 H442 0.929 . S
C440 C439 1.363 . S
C440 C446 1.428 . S
H441 C437 0.930 . S
H442 C439 0.929 . S
S443 N444 1.613 . S
S443 N445 1.610 . S
N444 S443 1.613 . S
N444 C447 1.350 . S
N445 S443 1.610 . S
N445 C446 1.351 . S
C446 C440 1.428 . S
C446 N445 1.351 . S
C446 C447 1.434 . S
C447 C438 1.429 . S
C447 N444 1.350 . S
C447 C446 1.434 . S
C448 C449 1.369 1_655 S
C448 C450 1.419 . S
C448 H452 0.930 . S
C449 C448 1.369 1_455 S
C449 C458 1.429 . S
C450 C448 1.419 . S
C450 C451 1.363 1_655 S
C450 H453 0.929 . S
C451 C450 1.363 1_455 S
C451 C457 1.428 . S
H452 C448 0.930 . S
H453 C450 0.929 . S
S454 N455 1.613 . S
S454 N456 1.610 . S
N455 S454 1.613 . S
N455 C458 1.350 . S
N456 S454 1.610 . S
N456 C457 1.351 . S
C457 C451 1.428 . S
C457 N456 1.351 . S
C457 C458 1.434 . S
C458 C449 1.429 . S
C458 N455 1.350 . S
C458 C457 1.434 . S
C262 C20 1.265 . S
C264 C252 1.269 . S
C273 C41 1.368 . S
C275 C188 1.310 . S
C284 C64 1.400 . S
C286 C220 1.332 . S
C295 C19 1.338 . S
C297 C246 1.434 . S
C308 C182 1.372 . S
C306 C44 1.348 . S
C319 C214 1.348 . S
C317 C67 1.333 . S
C328 C43 1.284 . S
C330 C124 1.290 . S
C339 C66 1.258 . S
C341 C156 1.273 . S
C350 C21 1.350 . S
C352 C86 1.366 . S
C363 C118 1.393 . S
C361 C42 1.316 . S
C374 C150 1.433 . S
C372 C65 1.344 . S
C383 C18 1.375 . S
C385 C92 1.308 . S
C396 C162 1.452 1_554 S
C394 C17 1.475 . S
C405 C39 1.472 . S
C407 C98 1.440 . S
C416 C62 1.487 . S
C418 C130 1.465 . S
C429 C226 1.428 . S
C427 C40 1.459 . S
C440 C258 1.448 1_556 S
C438 C63 1.475 . S
C449 C16 1.471 . S
C451 C194 1.437 . S
