# Generated by pormake.
# Topology pyr, (3,6)-cn, num edge types: 1
# Building blocks:
#     Node 0, Type 0, BuildingBlock: BELTOD_clean_linker_0, # of connection points: 3
#     Node 1, Type 0, BuildingBlock: BELTOD_clean_linker_0, # of connection points: 3
#     Node 2, Type 0, BuildingBlock: BELTOD_clean_linker_0, # of connection points: 3
#     Node 3, Type 0, BuildingBlock: BELTOD_clean_linker_0, # of connection points: 3
#     Node 4, Type 0, BuildingBlock: BELTOD_clean_linker_0, # of connection points: 3
#     Node 5, Type 0, BuildingBlock: BELTOD_clean_linker_0, # of connection points: 3
#     Node 6, Type 0, BuildingBlock: BELTOD_clean_linker_0, # of connection points: 3
#     Node 7, Type 0, BuildingBlock: BELTOD_clean_linker_0, # of connection points: 3
#     Node 8, Type 1, BuildingBlock: MIFKUJ_clean_sbu_0, # of connection points: 6
#     Node 9, Type 1, BuildingBlock: MIFKUJ_clean_sbu_0, # of connection points: 6
#     Node 10, Type 1, BuildingBlock: MIFKUJ_clean_sbu_0, # of connection points: 6
#     Node 11, Type 1, BuildingBlock: MIFKUJ_clean_sbu_0, # of connection points: 6
#     Edge 12, Type (0, 1), BuildingBlock: MIFKUJ_clean_linker_0, # of connection points: 2
#     Edge 13, Type (0, 1), BuildingBlock: MIFKUJ_clean_linker_0, # of connection points: 2
#     Edge 14, Type (0, 1), BuildingBlock: MIFKUJ_clean_linker_0, # of connection points: 2
#     Edge 15, Type (0, 1), BuildingBlock: MIFKUJ_clean_linker_0, # of connection points: 2
#     Edge 16, Type (0, 1), BuildingBlock: MIFKUJ_clean_linker_0, # of connection points: 2
#     Edge 17, Type (0, 1), BuildingBlock: MIFKUJ_clean_linker_0, # of connection points: 2
#     Edge 18, Type (0, 1), BuildingBlock: MIFKUJ_clean_linker_0, # of connection points: 2
#     Edge 19, Type (0, 1), BuildingBlock: MIFKUJ_clean_linker_0, # of connection points: 2
#     Edge 20, Type (0, 1), BuildingBlock: MIFKUJ_clean_linker_0, # of connection points: 2
#     Edge 21, Type (0, 1), BuildingBlock: MIFKUJ_clean_linker_0, # of connection points: 2
#     Edge 22, Type (0, 1), BuildingBlock: MIFKUJ_clean_linker_0, # of connection points: 2
#     Edge 23, Type (0, 1), BuildingBlock: MIFKUJ_clean_linker_0, # of connection points: 2
#     Edge 24, Type (0, 1), BuildingBlock: MIFKUJ_clean_linker_0, # of connection points: 2
#     Edge 25, Type (0, 1), BuildingBlock: MIFKUJ_clean_linker_0, # of connection points: 2
#     Edge 26, Type (0, 1), BuildingBlock: MIFKUJ_clean_linker_0, # of connection points: 2
#     Edge 27, Type (0, 1), BuildingBlock: MIFKUJ_clean_linker_0, # of connection points: 2
#     Edge 28, Type (0, 1), BuildingBlock: MIFKUJ_clean_linker_0, # of connection points: 2
#     Edge 29, Type (0, 1), BuildingBlock: MIFKUJ_clean_linker_0, # of connection points: 2
#     Edge 30, Type (0, 1), BuildingBlock: MIFKUJ_clean_linker_0, # of connection points: 2
#     Edge 31, Type (0, 1), BuildingBlock: MIFKUJ_clean_linker_0, # of connection points: 2
#     Edge 32, Type (0, 1), BuildingBlock: MIFKUJ_clean_linker_0, # of connection points: 2
#     Edge 33, Type (0, 1), BuildingBlock: MIFKUJ_clean_linker_0, # of connection points: 2
#     Edge 34, Type (0, 1), BuildingBlock: MIFKUJ_clean_linker_0, # of connection points: 2
#     Edge 35, Type (0, 1), BuildingBlock: MIFKUJ_clean_linker_0, # of connection points: 2
# Relax obj value: 0.029
# Max RMSD: 0.083
# Mean RMSD: 0.052
data_MOF--net-pyr--node1-MIFKUJ_clean_sbu_0--node2-BELTOD_clean_linker_0--edge1-MIFKUJ_clean_linker_0
_symmetry_space_group_name_H-M    P1
_symmetry_Int_Tables_number       1
_symmetry_cell_setting            triclinic
loop_
_symmetry_equiv_pos_as_xyz
'x, y, z'
_cell_length_a     56.046563
_cell_length_b     50.646441
_cell_length_c     54.304081
_cell_angle_alpha  86.44055
_cell_angle_beta   88.633389
_cell_angle_gamma 95.472079
loop_
_atom_site_label
_atom_site_type_symbol
_atom_site_fract_x
_atom_site_fract_y
_atom_site_fract_z
_atom_type_partial_charge
P0 P 0.2291 0.22041 0.24729 0.0
H1 H 0.28026 0.2273 0.23378 0.0
H2 H 0.30591 0.20162 0.20934 0.0
H3 H 0.24485 0.14636 0.19606 0.0
H4 H 0.21934 0.17134 0.2216 0.0
H5 H 0.21956 0.2763 0.2452 0.0
H6 H 0.19441 0.30239 0.21909 0.0
H7 H 0.17303 0.23289 0.17969 0.0
H8 H 0.1981 0.20683 0.20596 0.0
H9 H 0.24175 0.188 0.29006 0.0
H10 H 0.17688 0.20555 0.25392 0.0
O11 O 0.24677 0.24132 0.26306 0.0
H12 H 0.21799 0.1611 0.32249 0.0
H13 H 0.1531 0.17805 0.28565 0.0
C14 C 0.24786 0.20127 0.22946 0.0
C15 C 0.27236 0.20956 0.22582 0.0
C16 C 0.28701 0.19494 0.21186 0.0
C17 C 0.27724 0.17217 0.20084 0.0
C18 C 0.25268 0.16399 0.20429 0.0
C19 C 0.23814 0.17828 0.21877 0.0
C20 C 0.21105 0.23966 0.22734 0.0
C21 C 0.20964 0.26666 0.23084 0.0
C22 C 0.19528 0.28161 0.21586 0.0
C23 C 0.18181 0.26972 0.19727 0.0
C24 C 0.18309 0.24257 0.19396 0.0
C25 C 0.19762 0.2277 0.20883 0.0
C26 C 0.21114 0.1989 0.26966 0.0
C27 C 0.2224 0.18581 0.28896 0.0
C28 C 0.20877 0.17031 0.30742 0.0
C29 C 0.18357 0.16751 0.30681 0.0
C30 C 0.17242 0.18017 0.287 0.0
C31 C 0.18607 0.19577 0.26863 0.0
P32 P 0.36427 0.8849 0.65845 0.0
H33 H 0.40059 0.868 0.69167 0.0
H34 H 0.40817 0.87486 0.73494 0.0
H35 H 0.34306 0.91375 0.74059 0.0
H36 H 0.33578 0.9071 0.69706 0.0
H37 H 0.39274 0.87199 0.61586 0.0
H38 H 0.40639 0.83046 0.60289 0.0
H39 H 0.36892 0.7879 0.66594 0.0
H40 H 0.3554 0.8297 0.67895 0.0
H41 H 0.34205 0.9322 0.64157 0.0
H42 H 0.32039 0.84841 0.65477 0.0
O43 O 0.383 0.90953 0.64509 0.0
H44 H 0.30221 0.93924 0.62682 0.0
H45 H 0.28056 0.85519 0.63954 0.0
C46 C 0.36737 0.88652 0.69126 0.0
C47 C 0.38765 0.87748 0.70235 0.0
C48 C 0.39195 0.8814 0.72715 0.0
C49 C 0.37617 0.89477 0.7413 0.0
C50 C 0.35565 0.90352 0.73017 0.0
C51 C 0.35134 0.89952 0.70532 0.0
C52 C 0.37333 0.85395 0.64854 0.0
C53 C 0.3875 0.85376 0.62695 0.0
C54 C 0.39536 0.83003 0.61959 0.0
C55 C 0.3889 0.80597 0.63352 0.0
C56 C 0.37413 0.80612 0.65481 0.0
C57 C 0.36646 0.82996 0.66229 0.0
C58 C 0.33437 0.8897 0.64874 0.0
C59 C 0.32875 0.91527 0.64116 0.0
C60 C 0.30597 0.91925 0.63263 0.0
C61 C 0.28828 0.89773 0.63165 0.0
C62 C 0.29375 0.87222 0.6401 0.0
C63 C 0.3166 0.86827 0.64865 0.0
P64 P 0.68674 0.32129 0.7975 0.0
H65 H 0.7326 0.30452 0.81199 0.0
H66 H 0.76395 0.32294 0.83805 0.0
H67 H 0.72263 0.38879 0.85127 0.0
H68 H 0.69086 0.36963 0.82549 0.0
H69 H 0.68093 0.26321 0.80076 0.0
H70 H 0.65551 0.23051 0.82679 0.0
H71 H 0.62605 0.29381 0.86372 0.0
H72 H 0.65153 0.32665 0.83717 0.0
H73 H 0.69987 0.37386 0.77278 0.0
H74 H 0.63621 0.31919 0.7846 0.0
O75 O 0.7001 0.30542 0.7758 0.0
H76 H 0.6784 0.4016 0.74406 0.0
H77 H 0.61458 0.34699 0.75648 0.0
C78 C 0.70977 0.33614 0.81622 0.0
C79 C 0.73037 0.32306 0.8203 0.0
C80 C 0.74833 0.33367 0.83519 0.0
C81 C 0.74603 0.35759 0.84648 0.0
C82 C 0.72498 0.37033 0.84287 0.0
C83 C 0.70692 0.35957 0.82795 0.0
C84 C 0.66791 0.29734 0.8169 0.0
C85 C 0.66899 0.27013 0.81438 0.0
C86 C 0.65455 0.25141 0.82943 0.0
C87 C 0.63879 0.25955 0.84737 0.0
C88 C 0.63782 0.28692 0.8499 0.0
C89 C 0.65241 0.30567 0.83486 0.0
C90 C 0.66952 0.34478 0.78133 0.0
C91 C 0.68106 0.3683 0.76987 0.0
C92 C 0.66876 0.38414 0.75342 0.0
C93 C 0.64479 0.37645 0.74789 0.0
C94 C 0.63309 0.35334 0.76013 0.0
C95 C 0.64539 0.33757 0.77651 0.0
P96 P 0.8079 0.68204 0.26227 0.0
H97 H 0.80667 0.73879 0.26748 0.0
H98 H 0.82731 0.76984 0.29429 0.0
H99 H 0.86527 0.70651 0.32654 0.0
H100 H 0.84446 0.67537 0.29942 0.0
H101 H 0.79678 0.63003 0.2427 0.0
H102 H 0.82026 0.60278 0.21774 0.0
H103 H 0.88307 0.6579 0.2253 0.0
H104 H 0.85924 0.68548 0.24935 0.0
H105 H 0.7582 0.69267 0.26946 0.0
H106 H 0.80472 0.63577 0.29799 0.0
O107 O 0.79638 0.69929 0.23901 0.0
H108 H 0.72561 0.67215 0.29681 0.0
H109 H 0.7719 0.61462 0.32528 0.0
C110 C 0.82446 0.70494 0.28109 0.0
C111 C 0.81962 0.7316 0.2801 0.0
C112 C 0.83129 0.7493 0.29559 0.0
C113 C 0.84793 0.74062 0.31251 0.0
C114 C 0.85277 0.71383 0.31347 0.0
C115 C 0.8409 0.69605 0.29803 0.0
C116 C 0.82638 0.65941 0.24846 0.0
C117 C 0.81574 0.63589 0.23946 0.0
C118 C 0.82923 0.6203 0.22518 0.0
C119 C 0.8536 0.62813 0.21942 0.0
C120 C 0.8643 0.65141 0.22908 0.0
C121 C 0.85075 0.66704 0.2432 0.0
C122 C 0.78365 0.66529 0.28126 0.0
C123 C 0.76126 0.67542 0.28133 0.0
C124 C 0.74261 0.66362 0.29698 0.0
C125 C 0.74604 0.64155 0.31309 0.0
C126 C 0.76868 0.63164 0.31318 0.0
C127 C 0.78738 0.64352 0.29745 0.0
P128 P 0.84036 0.87099 0.84766 0.0
H129 H 0.8188 0.87891 0.89549 0.0
H130 H 0.77865 0.88794 0.90877 0.0
H131 H 0.755 0.88237 0.83394 0.0
H132 H 0.79544 0.87359 0.82073 0.0
H133 H 0.87836 0.84199 0.82832 0.0
H134 H 0.88979 0.79723 0.83762 0.0
H135 H 0.82816 0.7805 0.88746 0.0
H136 H 0.81642 0.82495 0.8774 0.0
H137 H 0.8614 0.92258 0.8267 0.0
H138 H 0.83335 0.84793 0.79966 0.0
O139 O 0.85902 0.88787 0.86585 0.0
H140 H 0.87338 0.9394 0.78467 0.0
H141 H 0.84559 0.86454 0.75741 0.0
C142 C 0.81021 0.87609 0.85707 0.0
C143 C 0.80497 0.87961 0.88194 0.0
C144 C 0.78194 0.88454 0.88954 0.0
C145 C 0.76362 0.88599 0.87239 0.0
C146 C 0.7688 0.88176 0.84753 0.0
C147 C 0.7919 0.87668 0.83996 0.0
C148 C 0.84629 0.83668 0.85176 0.0
C149 C 0.86697 0.82845 0.84077 0.0
C150 C 0.87365 0.80293 0.84634 0.0
C151 C 0.85997 0.78524 0.86339 0.0
C152 C 0.83892 0.79341 0.87397 0.0
C153 C 0.83221 0.81893 0.86827 0.0
C154 C 0.84703 0.88381 0.81631 0.0
C155 C 0.85781 0.9098 0.81169 0.0
C156 C 0.86471 0.91937 0.78766 0.0
C157 C 0.86076 0.90316 0.76776 0.0
C158 C 0.84886 0.87752 0.77234 0.0
C159 C 0.84201 0.86794 0.79646 0.0
P160 P 0.7017 0.20295 0.29537 0.0
H161 H 0.69326 0.2591 0.28938 0.0
H162 H 0.66988 0.28716 0.31354 0.0
H163 H 0.64944 0.22041 0.36564 0.0
H164 H 0.67294 0.19244 0.34138 0.0
H165 H 0.75238 0.21332 0.30527 0.0
H166 H 0.77944 0.19101 0.33211 0.0
H167 H 0.72127 0.13234 0.35655 0.0
H168 H 0.69426 0.15463 0.32911 0.0
H169 H 0.65913 0.21426 0.26914 0.0
H170 H 0.69936 0.14668 0.28275 0.0
O171 O 0.71857 0.22218 0.2743 0.0
H172 H 0.63285 0.18886 0.24252 0.0
H173 H 0.67204 0.12031 0.25748 0.0
C174 C 0.68524 0.22379 0.31384 0.0
C175 C 0.68393 0.25052 0.3061 0.0
C176 C 0.67038 0.2665 0.31982 0.0
C177 C 0.65785 0.25601 0.34153 0.0
C178 C 0.65916 0.22916 0.34919 0.0
C179 C 0.67261 0.21315 0.33534 0.0
C180 C 0.72141 0.18533 0.31477 0.0
C181 C 0.74544 0.19552 0.3162 0.0
C182 C 0.76087 0.18288 0.3318 0.0
C183 C 0.75253 0.1599 0.34654 0.0
C184 C 0.72833 0.14982 0.34522 0.0
C185 C 0.71286 0.16256 0.32959 0.0
C186 C 0.68078 0.18219 0.27859 0.0
C187 C 0.66186 0.19363 0.267 0.0
C188 C 0.64669 0.17893 0.25181 0.0
C189 C 0.64998 0.15227 0.24793 0.0
C190 C 0.66896 0.14079 0.25979 0.0
C191 C 0.68443 0.15576 0.27467 0.0
P192 P 0.35455 0.61784 0.16421 0.0
H193 H 0.33108 0.61207 0.11775 0.0
H194 H 0.28913 0.60377 0.10667 0.0
H195 H 0.26727 0.60448 0.18342 0.0
H196 H 0.30936 0.61332 0.19435 0.0
H197 H 0.38961 0.63903 0.12541 0.0
H198 H 0.40367 0.68418 0.10979 0.0
H199 H 0.35667 0.71544 0.16261 0.0
H200 H 0.34269 0.66994 0.17829 0.0
H201 H 0.33826 0.57406 0.19997 0.0
H202 H 0.38545 0.64657 0.19883 0.0
O203 O 0.36914 0.59649 0.14882 0.0
H204 H 0.34937 0.56273 0.24232 0.0
H205 H 0.39705 0.63514 0.24077 0.0
C206 C 0.32337 0.61257 0.15691 0.0
C207 C 0.31726 0.61048 0.13219 0.0
C208 C 0.29328 0.60595 0.12587 0.0
C209 C 0.27495 0.60332 0.14421 0.0
C210 C 0.28108 0.60607 0.16895 0.0
C211 C 0.30512 0.61101 0.17522 0.0
C212 C 0.36523 0.6512 0.15312 0.0
C213 C 0.38235 0.65555 0.1337 0.0
C214 C 0.39027 0.68138 0.12468 0.0
C215 C 0.38125 0.70336 0.13494 0.0
C216 C 0.36412 0.69891 0.15449 0.0
C217 C 0.35607 0.67298 0.1634 0.0
C218 C 0.36043 0.61153 0.19644 0.0
C219 C 0.35066 0.58779 0.20899 0.0
C220 C 0.35726 0.58119 0.23311 0.0
C221 C 0.37409 0.59805 0.24502 0.0
C222 C 0.38368 0.62195 0.2324 0.0
C223 C 0.37703 0.62853 0.20831 0.0
P224 P 0.19224 0.31068 0.72549 0.0
H225 H 0.19637 0.25536 0.71635 0.0
H226 H 0.17561 0.22464 0.68942 0.0
H227 H 0.1313 0.28577 0.66453 0.0
H228 H 0.15264 0.31671 0.69142 0.0
H229 H 0.23896 0.33379 0.74 0.0
H230 H 0.27351 0.35662 0.7169 0.0
H231 H 0.23557 0.34775 0.649 0.0
H232 H 0.20066 0.32625 0.67248 0.0
H233 H 0.14163 0.30603 0.74168 0.0
H234 H 0.20307 0.3641 0.74274 0.0
O235 O 0.2032 0.29258 0.74853 0.0
H236 H 0.11875 0.33334 0.76736 0.0
H237 H 0.18045 0.39106 0.76874 0.0
C238 C 0.17561 0.28808 0.70636 0.0
C239 C 0.18199 0.26209 0.70536 0.0
C240 C 0.17003 0.2445 0.68997 0.0
C241 C 0.15155 0.25262 0.67505 0.0
C242 C 0.14545 0.27889 0.67579 0.0
C243 C 0.15746 0.29651 0.69129 0.0
C244 C 0.21734 0.32802 0.70798 0.0
C245 C 0.23807 0.33685 0.72014 0.0
C246 C 0.25792 0.34973 0.70683 0.0
C247 C 0.25756 0.35379 0.68095 0.0
C248 C 0.23651 0.34523 0.66888 0.0
C249 C 0.21653 0.33267 0.68231 0.0
C250 C 0.17393 0.33327 0.7397 0.0
C251 C 0.15 0.32499 0.74676 0.0
C252 C 0.13695 0.34055 0.76153 0.0
C253 C 0.14786 0.36429 0.77003 0.0
C254 C 0.17164 0.37281 0.76249 0.0
C255 C 0.18453 0.35745 0.74746 0.0
Zn256 Zn 0.03315 0.99801 0.51599 0.0
Zn257 Zn 0.96863 0.99145 0.47797 0.0
C258 C 0.06763 0.0419 0.52588 0.0
O259 O 0.08292 0.02418 0.5229 0.0
C260 C 0.94249 0.94334 0.46618 0.0
O261 O 0.9265 0.95307 0.48023 0.0
O262 O 0.05976 0.9739 0.52013 0.0
O263 O 0.00601 0.98753 0.54029 0.0
O264 O 0.97447 0.98591 0.51571 0.0
C265 C 0.06054 0.95834 0.53934 0.0
O266 O 0.04238 0.95578 0.55533 0.0
O267 O 0.0455 0.03564 0.52242 0.0
C268 C 0.938 0.03457 0.47288 0.0
O269 O 0.95747 0.04916 0.47867 0.0
O270 O 0.93844 0.00956 0.47247 0.0
O271 O 0.99512 0.01429 0.45818 0.0
O272 O 0.01602 0.99545 0.48544 0.0
O273 O 0.96317 0.95596 0.463 0.0
C274 C 0.98342 0.98378 0.5372 0.0
C275 C 0.01528 0.01263 0.46772 0.0
Zn276 Zn 0.51071 0.98864 0.00232 0.0
Zn277 Zn 0.47224 0.0194 0.02582 0.0
C278 C 0.48178 0.95761 0.97042 0.0
O279 O 0.49268 0.93888 0.98206 0.0
C280 C 0.4992 0.05038 0.05877 0.0
O281 O 0.48563 0.06784 0.04908 0.0
O282 O 0.54003 0.97226 0.99058 0.0
O283 O 0.52052 0.02783 0.00158 0.0
O284 O 0.48453 0.03957 0.994 0.0
C285 C 0.54814 0.97968 0.96892 0.0
O286 O 0.53727 0.99743 0.95586 0.0
O287 O 0.48609 0.98147 0.97635 0.0
C288 C 0.4369 0.02855 0.06093 0.0
O289 O 0.44863 0.01083 0.07299 0.0
O290 O 0.44316 0.03557 0.03863 0.0
O291 O 0.46236 0.97994 0.02644 0.0
O292 O 0.49853 0.96905 0.03419 0.0
O293 O 0.49741 0.02698 0.05129 0.0
C294 C 0.5072 0.044 0.99139 0.0
C295 C 0.47593 0.96366 0.03604 0.0
Zn296 Zn 0.51473 0.48435 0.49106 0.0
Zn297 Zn 0.49502 0.52861 0.52299 0.0
C298 C 0.54285 0.51862 0.45617 0.0
O299 O 0.5266 0.50776 0.44188 0.0
C300 C 0.46716 0.49349 0.55845 0.0
O301 O 0.48377 0.5031 0.57302 0.0
O302 O 0.52274 0.45189 0.47397 0.0
O303 O 0.51705 0.47586 0.52752 0.0
O304 O 0.52636 0.51735 0.53616 0.0
C305 C 0.53892 0.43814 0.48239 0.0
O306 O 0.54929 0.44455 0.50292 0.0
O307 O 0.54131 0.51243 0.47926 0.0
C308 C 0.4664 0.5674 0.54058 0.0
O309 O 0.44964 0.55087 0.5319 0.0
O310 O 0.48815 0.56229 0.53887 0.0
O311 O 0.4912 0.53639 0.48637 0.0
O312 O 0.48342 0.49461 0.47788 0.0
O313 O 0.46842 0.5009 0.5356 0.0
C314 C 0.52786 0.49265 0.54086 0.0
C315 C 0.48111 0.51907 0.47303 0.0
Zn316 Zn 0.98473 0.51206 0.98235 0.0
Zn317 Zn 0.0205 0.4737 0.02174 0.0
C318 C 0.95321 0.47444 0.95978 0.0
O319 O 0.96872 0.48198 0.94162 0.0
C320 C 0.04735 0.50064 0.05775 0.0
O321 O 0.03415 0.48258 0.07184 0.0
O322 O 0.97294 0.54552 0.96654 0.0
O323 O 0.99158 0.52056 0.01742 0.0
O324 O 0.98718 0.47968 0.03399 0.0
C325 C 0.95137 0.54997 0.97124 0.0
O326 O 0.93788 0.53299 0.98613 0.0
O327 O 0.95656 0.48387 0.98074 0.0
C328 C 0.05278 0.43755 0.03707 0.0
O329 O 0.06656 0.45533 0.02324 0.0
O330 O 0.03041 0.43994 0.03871 0.0
O331 O 0.0283 0.47166 0.9855 0.0
O332 O 0.01171 0.50122 0.96114 0.0
O333 O 0.04376 0.50233 0.03468 0.0
C334 C 0.98374 0.50401 0.03492 0.0
C335 C 0.02585 0.4832 0.96437 0.0
H336 H 0.19272 0.12067 0.33148 0.0
H337 H 0.16865 0.09549 0.3647 0.0
H338 H 0.11689 0.15332 0.36047 0.0
H339 H 0.14142 0.17928 0.32815 0.0
H340 H 0.12393 0.13938 0.40706 0.0
H341 H 0.10787 0.0929 0.33374 0.0
H342 H 0.11798 0.06974 0.29682 0.0
H343 H 0.14964 0.01085 0.34227 0.0
H344 H 0.13999 0.03389 0.37946 0.0
H345 H 0.01488 0.06211 0.44521 0.0
H346 H 0.04889 0.08992 0.4254 0.0
H347 H 0.09673 0.03296 0.45096 0.0
H348 H 0.0627 0.00524 0.47142 0.0
H349 H 0.0961 0.04464 0.39786 0.0
H350 H 0.11035 0.0911 0.47147 0.0
H351 H 0.10044 0.11549 0.50762 0.0
H352 H 0.06926 0.17347 0.4608 0.0
H353 H 0.07968 0.14987 0.42417 0.0
C354 C 0.17637 0.12823 0.33781 0.0
C355 C 0.16895 0.15195 0.32697 0.0
C356 C 0.1625 0.11366 0.35667 0.0
C357 C 0.14078 0.12231 0.36489 0.0
C358 C 0.13354 0.14619 0.35441 0.0
C359 C 0.14746 0.16085 0.33568 0.0
C360 C 0.12528 0.10633 0.38404 0.0
C361 C 0.11776 0.11871 0.40493 0.0
C362 C 0.11763 0.07915 0.38166 0.0
C363 C 0.12348 0.06529 0.35934 0.0
C364 C 0.11717 0.07514 0.33584 0.0
C365 C 0.12278 0.06201 0.31487 0.0
C366 C 0.13452 0.03889 0.31719 0.0
C367 C 0.1406 0.0288 0.3405 0.0
C368 C 0.13506 0.04187 0.36153 0.0
C369 C 0.03272 0.05583 0.44714 0.0
C370 C 0.03617 0.03145 0.45968 0.0
C371 C 0.05214 0.07179 0.43592 0.0
C372 C 0.07529 0.06347 0.43671 0.0
C373 C 0.07899 0.03974 0.45023 0.0
C374 C 0.05958 0.02399 0.46192 0.0
C375 C 0.09464 0.0778 0.42062 0.0
C376 C 0.10271 0.06516 0.40017 0.0
C377 C 0.10255 0.10476 0.42324 0.0
C378 C 0.0956 0.11861 0.44514 0.0
C379 C 0.10121 0.10894 0.46891 0.0
C380 C 0.09557 0.12265 0.48948 0.0
C381 C 0.08395 0.1458 0.4866 0.0
C382 C 0.07819 0.15547 0.46304 0.0
C383 C 0.08412 0.14206 0.44234 0.0
H384 H 0.07955 0.15631 0.5026 0.0
H385 H 0.13883 0.02875 0.30093 0.0
H386 H 0.39423 0.86232 0.77708 0.0
H387 H 0.40737 0.87381 0.81796 0.0
H388 H 0.38418 0.95215 0.80501 0.0
H389 H 0.3717 0.94109 0.76374 0.0
H390 H 0.4285 0.9548 0.82222 0.0
H391 H 0.35335 0.90573 0.84573 0.0
H392 H 0.32241 0.8676 0.84707 0.0
H393 H 0.37168 0.81725 0.88054 0.0
H394 H 0.40303 0.855 0.87909 0.0
H395 H 0.45537 0.99099 0.94312 0.0
H396 H 0.4324 0.9809 0.90654 0.0
H397 H 0.45086 0.90004 0.91328 0.0
H398 H 0.47326 0.90975 0.95016 0.0
H399 H 0.40576 0.90082 0.90006 0.0
H400 H 0.48165 0.94786 0.87301 0.0
H401 H 0.5134 0.98521 0.87135 0.0
H402 H 0.46349 0.03842 0.84395 0.0
H403 H 0.43134 0.00142 0.84578 0.0
C404 C 0.39185 0.88198 0.78295 0.0
C405 C 0.38195 0.9008 0.76709 0.0
C406 C 0.39917 0.88844 0.80644 0.0
C407 C 0.39658 0.91379 0.81467 0.0
C408 C 0.38627 0.93244 0.79909 0.0
C409 C 0.37895 0.926 0.77558 0.0
C410 C 0.40597 0.92129 0.8389 0.0
C411 C 0.42316 0.94329 0.83931 0.0
C412 C 0.39946 0.9059 0.86112 0.0
C413 C 0.3806 0.88317 0.86212 0.0
C414 C 0.35765 0.88649 0.85321 0.0
C415 C 0.34002 0.86494 0.85402 0.0
C416 C 0.34509 0.84 0.86384 0.0
C417 C 0.36778 0.83657 0.87292 0.0
C418 C 0.38548 0.85805 0.87214 0.0
C419 C 0.45435 0.971 0.93694 0.0
C420 C 0.46634 0.95124 0.94942 0.0
C421 C 0.44129 0.96528 0.91597 0.0
C422 C 0.44024 0.93982 0.90689 0.0
C423 C 0.45144 0.91983 0.91988 0.0
C424 C 0.46434 0.92547 0.94094 0.0
C425 C 0.42842 0.93417 0.88331 0.0
C426 C 0.41085 0.9125 0.883 0.0
C427 C 0.43468 0.94974 0.86112 0.0
C428 C 0.45404 0.97194 0.85979 0.0
C429 C 0.47741 0.96756 0.86679 0.0
C430 C 0.49548 0.98866 0.8658 0.0
C431 C 0.49045 0.01419 0.85762 0.0
C432 C 0.46735 0.01865 0.85033 0.0
C433 C 0.4492 0.99762 0.85133 0.0
H434 H 0.50446 0.0305 0.85687 0.0
H435 H 0.33142 0.82335 0.86445 0.0
H436 H 0.61716 0.35536 0.71195 0.0
H437 H 0.59874 0.37879 0.67792 0.0
H438 H 0.62709 0.45395 0.70371 0.0
H439 H 0.64533 0.43053 0.73835 0.0
H440 H 0.57924 0.4536 0.68877 0.0
H441 H 0.65456 0.4314 0.65657 0.0
H442 H 0.68598 0.40189 0.64839 0.0
H443 H 0.63662 0.35292 0.60738 0.0
H444 H 0.60478 0.38191 0.61562 0.0
H445 H 0.5519 0.52234 0.57483 0.0
H446 H 0.57331 0.506 0.61064 0.0
H447 H 0.55489 0.42528 0.59166 0.0
H448 H 0.5338 0.44134 0.55586 0.0
H449 H 0.60094 0.43277 0.60347 0.0
H450 H 0.52506 0.45208 0.63782 0.0
H451 H 0.49279 0.48051 0.64597 0.0
H452 H 0.54208 0.53373 0.68292 0.0
H453 H 0.57477 0.50582 0.67462 0.0
C454 C 0.61919 0.37689 0.71069 0.0
C455 C 0.63268 0.39108 0.72793 0.0
C456 C 0.60882 0.39025 0.69106 0.0
C457 C 0.61177 0.41809 0.68813 0.0
C458 C 0.62468 0.43244 0.70561 0.0
C459 C 0.6352 0.41904 0.72527 0.0
C460 C 0.60177 0.43191 0.66637 0.0
C461 C 0.58428 0.44946 0.67009 0.0
C462 C 0.60806 0.42611 0.64203 0.0
C463 C 0.62723 0.40873 0.63688 0.0
C464 C 0.65035 0.41423 0.64596 0.0
C465 C 0.66825 0.39761 0.64129 0.0
C466 C 0.66329 0.37551 0.62741 0.0
C467 C 0.64043 0.37003 0.61813 0.0
C468 C 0.62246 0.38657 0.62278 0.0
C469 C 0.55246 0.50111 0.57826 0.0
C470 C 0.54112 0.48316 0.56246 0.0
C471 C 0.56462 0.4918 0.59879 0.0
C472 C 0.56556 0.46439 0.60394 0.0
C473 C 0.55445 0.44651 0.58804 0.0
C474 C 0.54233 0.45575 0.56759 0.0
C475 C 0.57804 0.45408 0.62582 0.0
C476 C 0.59606 0.43718 0.62212 0.0
C477 C 0.5721 0.46037 0.65013 0.0
C478 C 0.55243 0.47703 0.65535 0.0
C479 C 0.52907 0.46996 0.64751 0.0
C480 C 0.51069 0.48596 0.65218 0.0
C481 C 0.5154 0.50895 0.66489 0.0
C482 C 0.53848 0.51594 0.67303 0.0
C483 C 0.55694 0.50003 0.66836 0.0
H484 H 0.50115 0.52132 0.66849 0.0
H485 H 0.67717 0.36267 0.62382 0.0
H486 H 0.85182 0.57395 0.21613 0.0
H487 H 0.87315 0.54979 0.18628 0.0
H488 H 0.90833 0.62391 0.1543 0.0
H489 H 0.88629 0.6482 0.18317 0.0
H490 H 0.89333 0.59398 0.11906 0.0
H491 H 0.9372 0.58072 0.19325 0.0
H492 H 0.94238 0.56694 0.237 0.0
H493 H 0.91585 0.48685 0.22381 0.0
H494 H 0.91021 0.50025 0.18002 0.0
H495 H 0.98739 0.55438 0.0498 0.0
H496 H 0.96571 0.57152 0.08379 0.0
H497 H 0.93082 0.49309 0.10309 0.0
H498 H 0.95331 0.47545 0.06937 0.0
H499 H 0.94305 0.52149 0.14447 0.0
H500 H 0.89899 0.53615 0.06956 0.0
H501 H 0.89909 0.54994 0.02512 0.0
H502 H 0.93043 0.62781 0.04001 0.0
H503 H 0.93005 0.61463 0.08452 0.0
C504 C 0.864 0.58513 0.20265 0.0
C505 C 0.8674 0.61306 0.20219 0.0
C506 C 0.87636 0.57125 0.18574 0.0
C507 C 0.89255 0.585 0.16817 0.0
C508 C 0.89598 0.61284 0.16769 0.0
C509 C 0.88355 0.6267 0.18446 0.0
C510 C 0.9057 0.5706 0.14994 0.0
C511 C 0.90426 0.57824 0.12474 0.0
C512 C 0.91965 0.54964 0.15713 0.0
C513 C 0.92302 0.54156 0.18344 0.0
C514 C 0.93228 0.56022 0.19973 0.0
C515 C 0.93534 0.55247 0.22452 0.0
C516 C 0.92938 0.52605 0.2332 0.0
C517 C 0.92041 0.50732 0.21707 0.0
C518 C 0.91729 0.51497 0.19227 0.0
C519 C 0.97524 0.54068 0.06135 0.0
C520 C 0.97176 0.51363 0.0567 0.0
C521 C 0.96285 0.55052 0.08078 0.0
C522 C 0.94623 0.5337 0.09559 0.0
C523 C 0.94346 0.50642 0.09176 0.0
C524 C 0.95623 0.49641 0.07248 0.0
C525 C 0.93082 0.54519 0.11391 0.0
C526 C 0.93179 0.53698 0.13897 0.0
C527 C 0.91649 0.56569 0.10669 0.0
C528 C 0.9144 0.57445 0.08032 0.0
C529 C 0.90558 0.55632 0.06334 0.0
C530 C 0.9057 0.56402 0.03815 0.0
C531 C 0.91467 0.58976 0.02974 0.0
C532 C 0.92325 0.60796 0.04655 0.0
C533 C 0.92292 0.60046 0.07178 0.0
H534 H 0.91503 0.59559 0.01021 0.0
H535 H 0.93177 0.52009 0.2524 0.0
H536 H 0.27335 0.16291 0.15224 0.0
H537 H 0.29983 0.13905 0.12694 0.0
H538 H 0.34181 0.12257 0.19081 0.0
H539 H 0.31614 0.14789 0.21561 0.0
H540 H 0.37074 0.13392 0.15495 0.0
H541 H 0.29897 0.07478 0.16508 0.0
H542 H 0.25567 0.06084 0.16378 0.0
H543 H 0.25769 0.07787 0.08526 0.0
H544 H 0.30097 0.09225 0.08614 0.0
H545 H 0.42732 0.02626 0.11046 0.0
H546 H 0.399 0.05062 0.13263 0.0
H547 H 0.37637 0.0854 0.06363 0.0
H548 H 0.40499 0.06125 0.04113 0.0
H549 H 0.33795 0.06528 0.10022 0.0
H550 H 0.41328 0.12099 0.09287 0.0
H551 H 0.457 0.12888 0.09744 0.0
H552 H 0.44808 0.11253 0.17581 0.0
H553 H 0.4044 0.1037 0.17164 0.0
C554 C 0.28824 0.1541 0.16076 0.0
C555 C 0.29274 0.15702 0.18579 0.0
C556 C 0.30329 0.14033 0.14638 0.0
C557 C 0.32265 0.12847 0.157 0.0
C558 C 0.32707 0.13149 0.18211 0.0
C559 C 0.31237 0.14583 0.19631 0.0
C560 C 0.33847 0.11322 0.14197 0.0
C561 C 0.36347 0.11873 0.14323 0.0
C562 C 0.32917 0.09353 0.12634 0.0
C563 C 0.30316 0.08486 0.12572 0.0
C564 C 0.29014 0.07574 0.14756 0.0
C565 C 0.26561 0.06773 0.1469 0.0
C566 C 0.25392 0.06854 0.12446 0.0
C567 C 0.26676 0.0773 0.10263 0.0
C568 C 0.2913 0.08536 0.1032 0.0
C569 C 0.4162 0.03889 0.09992 0.0
C570 C 0.41846 0.04191 0.07402 0.0
C571 C 0.40006 0.05282 0.11265 0.0
C572 C 0.38576 0.06989 0.09975 0.0
C573 C 0.38731 0.0723 0.07387 0.0
C574 C 0.4037 0.05858 0.06108 0.0
C575 C 0.36991 0.08598 0.11348 0.0
C576 C 0.34502 0.08061 0.11191 0.0
C577 C 0.3793 0.10525 0.12934 0.0
C578 C 0.40555 0.11142 0.1319 0.0
C579 C 0.42066 0.11884 0.11106 0.0
C580 C 0.44545 0.12344 0.11357 0.0
C581 C 0.45535 0.12104 0.13689 0.0
C582 C 0.44044 0.1142 0.15774 0.0
C583 C 0.41565 0.10939 0.15531 0.0
H584 H 0.47456 0.12456 0.1388 0.0
H585 H 0.23493 0.06233 0.12398 0.0
H586 H 0.24387 0.87575 0.64896 0.0
H587 H 0.20481 0.88317 0.63198 0.0
H588 H 0.2397 0.93657 0.57426 0.0
H589 H 0.27872 0.92919 0.59103 0.0
H590 H 0.20233 0.95747 0.5938 0.0
H591 H 0.21676 0.87342 0.56297 0.0
H592 H 0.22613 0.82676 0.5659 0.0
H593 H 0.16317 0.80496 0.61204 0.0
H594 H 0.15361 0.85159 0.60967 0.0
H595 H 0.10461 0.96909 0.51617 0.0
H596 H 0.14286 0.95557 0.53063 0.0
H597 H 0.10615 0.90884 0.59166 0.0
H598 H 0.06775 0.92227 0.57737 0.0
H599 H 0.14384 0.88395 0.57071 0.0
H600 H 0.12961 0.96805 0.60157 0.0
H601 H 0.11997 0.01461 0.59815 0.0
H602 H 0.1827 0.03625 0.55167 0.0
H603 H 0.19249 0.98969 0.55444 0.0
C604 C 0.24324 0.88887 0.63251 0.0
C605 C 0.26444 0.90192 0.62139 0.0
C606 C 0.22089 0.89311 0.62283 0.0
C607 C 0.21932 0.91028 0.60171 0.0
C608 C 0.24045 0.92332 0.59061 0.0
C609 C 0.26275 0.91914 0.60029 0.0
C610 C 0.19568 0.91511 0.59138 0.0
C611 C 0.18971 0.9414 0.58844 0.0
C612 C 0.17893 0.89411 0.58492 0.0
C613 C 0.18461 0.86605 0.58635 0.0
C614 C 0.20502 0.85872 0.57391 0.0
C615 C 0.21035 0.83227 0.57544 0.0
C616 C 0.19529 0.81292 0.5892 0.0
C617 C 0.17484 0.81998 0.60142 0.0
C618 C 0.16945 0.84641 0.59997 0.0
C619 C 0.10458 0.95555 0.53242 0.0
C620 C 0.08313 0.94694 0.54575 0.0
C621 C 0.12648 0.94793 0.5407 0.0
C622 C 0.12734 0.93152 0.56241 0.0
C623 C 0.10586 0.92159 0.57492 0.0
C624 C 0.08395 0.92935 0.56675 0.0
C625 C 0.15071 0.92626 0.57295 0.0
C626 C 0.15655 0.89996 0.57602 0.0
C627 C 0.16738 0.94723 0.57953 0.0
C628 C 0.16166 0.97531 0.57801 0.0
C629 C 0.14125 0.98269 0.59045 0.0
C630 C 0.13576 0.00909 0.58865 0.0
C631 C 0.15069 0.02837 0.57467 0.0
C632 C 0.17114 0.02128 0.56247 0.0
C633 C 0.17667 0.99489 0.56415 0.0
H634 H 0.14646 0.04881 0.57335 0.0
H635 H 0.19944 0.79245 0.59036 0.0
H636 H 0.74237 0.38138 0.89045 0.0
H637 H 0.77512 0.39897 0.91576 0.0
H638 H 0.82675 0.37697 0.86248 0.0
H639 H 0.7943 0.35976 0.83704 0.0
H640 H 0.83833 0.36208 0.90905 0.0
H641 H 0.81428 0.44092 0.86531 0.0
H642 H 0.78576 0.47293 0.85239 0.0
H643 H 0.7724 0.48842 0.92809 0.0
H644 H 0.80063 0.4562 0.94148 0.0
H645 H 0.946 0.4422 0.92202 0.0
H646 H 0.9083 0.41919 0.90996 0.0
H647 H 0.87207 0.4465 0.97315 0.0
H648 H 0.91004 0.46968 0.98546 0.0
H649 H 0.84916 0.45656 0.92931 0.0
H650 H 0.87833 0.38226 0.97222 0.0
H651 H 0.90774 0.35101 0.98438 0.0
H652 H 0.91208 0.32725 0.91 0.0
H653 H 0.88296 0.35865 0.89729 0.0
C654 C 0.7607 0.38055 0.88401 0.0
C655 C 0.76569 0.36905 0.86174 0.0
C656 C 0.7794 0.39051 0.89855 0.0
C657 C 0.8034 0.38926 0.89102 0.0
C658 C 0.80838 0.37791 0.86878 0.0
C659 C 0.78977 0.36803 0.85427 0.0
C660 C 0.82354 0.39982 0.90604 0.0
C661 C 0.84075 0.38277 0.9134 0.0
C662 C 0.82629 0.42659 0.91244 0.0
C663 C 0.80931 0.44591 0.90441 0.0
C664 C 0.80509 0.45097 0.87921 0.0
C665 C 0.78901 0.46918 0.8718 0.0
C666 C 0.77721 0.48263 0.88941 0.0
C667 C 0.78151 0.47794 0.91447 0.0
C668 C 0.79755 0.45971 0.92198 0.0
C669 C 0.93011 0.44299 0.9336 0.0
C670 C 0.93098 0.45775 0.95468 0.0
C671 C 0.90857 0.42973 0.92673 0.0
C672 C 0.88739 0.43101 0.94072 0.0
C673 C 0.88825 0.4452 0.96215 0.0
C674 C 0.90995 0.45828 0.96923 0.0
C675 C 0.86428 0.41898 0.9317 0.0
C676 C 0.8465 0.43574 0.92544 0.0
C677 C 0.86103 0.39195 0.92624 0.0
C678 C 0.87854 0.37296 0.93377 0.0
C679 C 0.88569 0.37052 0.95841 0.0
C680 C 0.90229 0.35275 0.9654 0.0
C681 C 0.9118 0.33719 0.94796 0.0
C682 C 0.9047 0.33933 0.92349 0.0
C683 C 0.88811 0.35708 0.91638 0.0
H684 H 0.92465 0.32344 0.95342 0.0
H685 H 0.76478 0.49673 0.88364 0.0
H686 H 0.74806 0.62352 0.36167 0.0
H687 H 0.71472 0.60483 0.38934 0.0
H688 H 0.66552 0.61353 0.33016 0.0
H689 H 0.69869 0.63194 0.3024 0.0
H690 H 0.64852 0.63161 0.37218 0.0
H691 H 0.6833 0.55311 0.3483 0.0
H692 H 0.71585 0.52417 0.34345 0.0
H693 H 0.72549 0.52037 0.42176 0.0
H694 H 0.69318 0.5496 0.42703 0.0
H695 H 0.54708 0.54265 0.40987 0.0
H696 H 0.58265 0.56717 0.38974 0.0
H697 H 0.62168 0.55704 0.45664 0.0
H698 H 0.58591 0.53269 0.47706 0.0
H699 H 0.64576 0.54207 0.41532 0.0
H700 H 0.60754 0.61639 0.43955 0.0
H701 H 0.57523 0.64561 0.4443 0.0
H702 H 0.57216 0.65786 0.36555 0.0
H703 H 0.60404 0.62817 0.36027 0.0
C704 C 0.73019 0.62114 0.35447 0.0
C705 C 0.72605 0.62927 0.32981 0.0
C706 C 0.71114 0.61054 0.37034 0.0
C707 C 0.68762 0.60772 0.36181 0.0
C708 C 0.68349 0.61569 0.33719 0.0
C709 C 0.70247 0.62626 0.32136 0.0
C710 C 0.66718 0.59667 0.37843 0.0
C711 C 0.64779 0.61192 0.38143 0.0
C712 C 0.66662 0.57136 0.39117 0.0
C713 C 0.68603 0.55379 0.38802 0.0
C714 C 0.69251 0.54629 0.36446 0.0
C715 C 0.71088 0.5298 0.36164 0.0
C716 C 0.72279 0.5205 0.38227 0.0
C717 C 0.71629 0.52763 0.40578 0.0
C718 C 0.69794 0.54414 0.4087 0.0
C719 C 0.56311 0.54598 0.42042 0.0
C720 C 0.56369 0.53574 0.44503 0.0
C721 C 0.58342 0.56005 0.40892 0.0
C722 C 0.60479 0.56398 0.42172 0.0
C723 C 0.60534 0.55424 0.44646 0.0
C724 C 0.58488 0.54045 0.45811 0.0
C725 C 0.62685 0.57678 0.40863 0.0
C726 C 0.64656 0.56187 0.40629 0.0
C727 C 0.62768 0.60239 0.39646 0.0
C728 C 0.60808 0.61982 0.39952 0.0
C729 C 0.59978 0.62503 0.42322 0.0
C730 C 0.58157 0.64174 0.42601 0.0
C731 C 0.57166 0.65359 0.40524 0.0
C732 C 0.57989 0.64871 0.38162 0.0
C733 C 0.598 0.63189 0.37872 0.0
H734 H 0.55757 0.66654 0.40744 0.0
H735 H 0.737 0.50773 0.38005 0.0
H736 H 0.1358 0.25603 0.18356 0.0
H737 H 0.1107 0.28246 0.15749 0.0
H738 H 0.16826 0.3456 0.14898 0.0
H739 H 0.19326 0.31942 0.17527 0.0
H740 H 0.12744 0.36559 0.15715 0.0
H741 H 0.15458 0.302 0.10311 0.0
H742 H 0.16043 0.2572 0.09013 0.0
H743 H 0.08419 0.23711 0.09185 0.0
H744 H 0.07791 0.28171 0.10516 0.0
H745 H 0.09974 0.43762 0.04844 0.0
H746 H 0.11782 0.40675 0.07703 0.0
H747 H 0.04926 0.3613 0.09029 0.0
H748 H 0.03071 0.39252 0.06188 0.0
H749 H 0.09087 0.33074 0.08188 0.0
H750 H 0.06483 0.39845 0.1305 0.0
H751 H 0.06078 0.44435 0.14132 0.0
H752 H 0.13693 0.45769 0.14905 0.0
H753 H 0.1416 0.41217 0.13734 0.0
C754 C 0.14313 0.27549 0.17599 0.0
C755 C 0.16652 0.28563 0.1814 0.0
C756 C 0.12877 0.29058 0.1611 0.0
C757 C 0.13766 0.31594 0.15105 0.0
C758 C 0.16096 0.32614 0.15659 0.0
C759 C 0.17524 0.31117 0.17162 0.0
C760 C 0.12282 0.33196 0.13472 0.0
C761 C 0.11962 0.35803 0.14058 0.0
C762 C 0.11205 0.32186 0.11344 0.0
C763 C 0.11579 0.29507 0.1054 0.0
C764 C 0.13907 0.28795 0.10091 0.0
C765 C 0.14247 0.26261 0.09346 0.0
C766 C 0.1227 0.24429 0.09024 0.0
C767 C 0.09949 0.2513 0.0944 0.0
C768 C 0.096 0.27661 0.10188 0.0
C769 C 0.08847 0.42095 0.05721 0.0
C770 C 0.06376 0.4175 0.05292 0.0
C771 C 0.09885 0.40342 0.0736 0.0
C772 C 0.08484 0.38196 0.08583 0.0
C773 C 0.06032 0.37783 0.08101 0.0
C774 C 0.04978 0.39567 0.06485 0.0
C775 C 0.096 0.36443 0.1041 0.0
C776 C 0.09848 0.33814 0.0986 0.0
C777 C 0.10635 0.37443 0.12557 0.0
C778 C 0.1036 0.40191 0.13267 0.0
C779 C 0.08079 0.41126 0.13411 0.0
C780 C 0.07837 0.43724 0.14041 0.0
C781 C 0.0986 0.45398 0.14573 0.0
C782 C 0.12129 0.44476 0.14477 0.0
C783 C 0.12383 0.41887 0.13825 0.0
H784 H 0.09668 0.47403 0.15074 0.0
H785 H 0.12536 0.22468 0.08447 0.0
H786 H 0.6518 0.21372 0.87005 0.0
H787 H 0.62624 0.17903 0.89382 0.0
H788 H 0.56568 0.22487 0.88458 0.0
H789 H 0.59126 0.25983 0.86065 0.0
H790 H 0.56665 0.20214 0.93138 0.0
H791 H 0.57133 0.17332 0.84954 0.0
H792 H 0.59118 0.16314 0.81073 0.0
H793 H 0.62827 0.10403 0.85001 0.0
H794 H 0.60893 0.11414 0.88914 0.0
H795 H 0.48586 0.08714 0.97219 0.0
H796 H 0.50516 0.12569 0.94713 0.0
H797 H 0.57301 0.09225 0.95155 0.0
H798 H 0.55404 0.05391 0.97637 0.0
H799 H 0.56376 0.11003 0.90451 0.0
H800 H 0.56146 0.14165 0.98663 0.0
H801 H 0.54152 0.15172 0.02544 0.0
H802 H 0.49936 0.20528 0.98524 0.0
H803 H 0.51881 0.1952 0.94612 0.0
C804 C 0.63302 0.21641 0.87299 0.0
C805 C 0.62349 0.23938 0.86322 0.0
C806 C 0.61844 0.19658 0.88661 0.0
C807 C 0.59395 0.19914 0.89058 0.0
C808 C 0.58451 0.22246 0.88164 0.0
C809 C 0.59915 0.24242 0.86803 0.0
C810 C 0.57831 0.17712 0.90368 0.0
C811 C 0.56566 0.18208 0.92528 0.0
C812 C 0.5772 0.15089 0.89584 0.0
C813 C 0.5888 0.14465 0.87231 0.0
C814 C 0.58385 0.15829 0.84994 0.0
C815 C 0.595 0.15251 0.82788 0.0
C816 C 0.61101 0.13299 0.82791 0.0
C817 C 0.61588 0.11916 0.85001 0.0
C818 C 0.60481 0.12489 0.87214 0.0
C819 C 0.50488 0.08804 0.96781 0.0
C820 C 0.51841 0.0675 0.97634 0.0
C821 C 0.51589 0.11009 0.95358 0.0
C822 C 0.54054 0.11185 0.94759 0.0
C823 C 0.55397 0.09127 0.95593 0.0
C824 C 0.54307 0.06942 0.97023 0.0
C825 C 0.55261 0.13493 0.93251 0.0
C826 C 0.56453 0.13015 0.91046 0.0
C827 C 0.55298 0.16126 0.93992 0.0
C828 C 0.54137 0.16742 0.96343 0.0
C829 C 0.54778 0.15539 0.98604 0.0
C830 C 0.5366 0.16113 0.0081 0.0
C831 C 0.51913 0.17907 0.0078 0.0
C832 C 0.51286 0.19135 0.98544 0.0
C833 C 0.52396 0.18564 0.96332 0.0
H834 H 0.5105 0.18349 0.0249 0.0
H835 H 0.61962 0.12854 0.81081 0.0
H836 H 0.89544 0.74736 0.32391 0.0
H837 H 0.91486 0.78013 0.35027 0.0
H838 H 0.84635 0.80893 0.36556 0.0
H839 H 0.82702 0.77657 0.33908 0.0
H840 H 0.87855 0.84909 0.3546 0.0
H841 H 0.87484 0.76925 0.40823 0.0
H842 H 0.88225 0.72303 0.42016 0.0
H843 H 0.9582 0.74418 0.4122 0.0
H844 H 0.95122 0.79048 0.3999 0.0
H845 H 0.89748 0.91943 0.46077 0.0
H846 H 0.88527 0.88338 0.43459 0.0
H847 H 0.95916 0.87768 0.41357 0.0
H848 H 0.97166 0.91423 0.43958 0.0
H849 H 0.92889 0.82655 0.42539 0.0
H850 H 0.93172 0.90751 0.37409 0.0
H851 H 0.92333 0.95372 0.36366 0.0
H852 H 0.84766 0.92995 0.36848 0.0
H853 H 0.8556 0.88363 0.37933 0.0
C854 C 0.88454 0.76053 0.33311 0.0
C855 C 0.85974 0.7595 0.32934 0.0
C856 C 0.89563 0.77923 0.34817 0.0
C857 C 0.88205 0.79694 0.36001 0.0
C858 C 0.85724 0.79562 0.35651 0.0
C859 C 0.84621 0.77713 0.34134 0.0
C860 C 0.89355 0.81743 0.37554 0.0
C861 C 0.88937 0.84405 0.37019 0.0
C862 C 0.90828 0.81106 0.39548 0.0
C863 C 0.9125 0.78325 0.40287 0.0
C864 C 0.89311 0.76399 0.40882 0.0
C865 C 0.89723 0.73779 0.41569 0.0
C866 C 0.92067 0.73065 0.41686 0.0
C867 C 0.94005 0.74972 0.41124 0.0
C868 C 0.93602 0.77595 0.40433 0.0
C869 C 0.91122 0.91038 0.45082 0.0
C870 C 0.93555 0.9198 0.45215 0.0
C871 C 0.90418 0.88981 0.43584 0.0
C872 C 0.92131 0.87806 0.42206 0.0
C873 C 0.9457 0.88656 0.42409 0.0
C874 C 0.95278 0.90746 0.43887 0.0
C875 C 0.91335 0.85787 0.40467 0.0
C876 C 0.91823 0.83145 0.40963 0.0
C877 C 0.89912 0.86433 0.38443 0.0
C878 C 0.89426 0.89214 0.37775 0.0
C879 C 0.91328 0.91217 0.37315 0.0
C880 C 0.90861 0.93838 0.36712 0.0
C881 C 0.88497 0.94478 0.36547 0.0
C882 C 0.86596 0.92496 0.36979 0.0
C883 C 0.87054 0.89872 0.37586 0.0
H884 H 0.88139 0.96508 0.36079 0.0
H885 H 0.92383 0.71036 0.42219 0.0
H886 H 0.43448 0.79798 0.61911 0.0
H887 H 0.449 0.75718 0.60535 0.0
H888 H 0.37789 0.71671 0.61657 0.0
H889 H 0.36341 0.75743 0.63086 0.0
H890 H 0.40973 0.68515 0.63213 0.0
H891 H 0.40094 0.73976 0.55827 0.0
H892 H 0.40696 0.78033 0.53041 0.0
H893 H 0.48295 0.77483 0.5285 0.0
H894 H 0.47741 0.73441 0.55664 0.0
H895 H 0.42172 0.57874 0.55467 0.0
H896 H 0.41043 0.61892 0.57271 0.0
H897 H 0.48456 0.65111 0.57027 0.0
H898 H 0.49611 0.61075 0.5523 0.0
H899 H 0.45288 0.68674 0.55111 0.0
H900 H 0.46017 0.62969 0.62389 0.0
H901 H 0.45254 0.58833 0.65048 0.0
H902 H 0.37718 0.5976 0.65275 0.0
H903 H 0.38431 0.63883 0.62586 0.0
C904 C 0.42194 0.78039 0.61857 0.0
C905 C 0.39777 0.78094 0.62586 0.0
C906 C 0.43025 0.75709 0.61068 0.0
C907 C 0.41446 0.73396 0.60949 0.0
C908 C 0.39041 0.7343 0.61729 0.0
C909 C 0.38215 0.75756 0.62545 0.0
C910 C 0.42297 0.70954 0.59984 0.0
C911 C 0.41892 0.68547 0.61429 0.0
C912 C 0.43539 0.70998 0.57676 0.0
C913 C 0.43878 0.73422 0.55977 0.0
C914 C 0.41895 0.74732 0.55206 0.0
C915 C 0.42227 0.77027 0.53619 0.0
C916 C 0.44533 0.78019 0.52775 0.0
C917 C 0.46511 0.76714 0.53509 0.0
C918 C 0.46188 0.74421 0.55099 0.0
C919 C 0.43567 0.59431 0.55803 0.0
C920 C 0.45982 0.59157 0.55204 0.0
C921 C 0.42918 0.61721 0.56844 0.0
C922 C 0.44667 0.6379 0.57296 0.0
C923 C 0.47081 0.63532 0.56696 0.0
C924 C 0.47737 0.61224 0.55677 0.0
C925 C 0.43956 0.66247 0.58336 0.0
C926 C 0.44382 0.68652 0.56901 0.0
C927 C 0.42709 0.66195 0.60637 0.0
C928 C 0.42276 0.63723 0.62267 0.0
C929 C 0.44195 0.6228 0.62989 0.0
C930 C 0.43772 0.5994 0.64505 0.0
C931 C 0.41438 0.59031 0.65325 0.0
C932 C 0.39524 0.60465 0.64636 0.0
C933 C 0.39937 0.62805 0.63118 0.0
H934 H 0.41114 0.57218 0.66498 0.0
H935 H 0.44786 0.79796 0.51546 0.0
H936 H 0.8383 0.89831 0.72361 0.0
H937 H 0.85448 0.91353 0.68225 0.0
H938 H 0.92063 0.94403 0.71388 0.0
H939 H 0.90453 0.92916 0.75505 0.0
H940 H 0.90781 0.97867 0.6799 0.0
H941 H 0.91446 0.88413 0.68558 0.0
H942 H 0.89937 0.83676 0.6918 0.0
H943 H 0.85266 0.84521 0.63085 0.0
H944 H 0.86727 0.89275 0.62448 0.0
H945 H 0.99562 0.98392 0.5855 0.0
H946 H 0.96989 0.97193 0.62197 0.0
H947 H 0.90933 0.95537 0.57593 0.0
H948 H 0.93511 0.96738 0.53897 0.0
H949 H 0.91346 0.91582 0.61393 0.0
H950 H 0.91187 0.01016 0.6056 0.0
H951 H 0.92952 0.05665 0.59932 0.0
H952 H 0.96907 0.04782 0.66559 0.0
H953 H 0.9519 0.00115 0.67212 0.0
C954 C 0.85631 0.90821 0.72168 0.0
C955 C 0.87012 0.91261 0.74259 0.0
C956 C 0.86554 0.91689 0.69806 0.0
C957 C 0.88886 0.92977 0.69492 0.0
C958 C 0.90255 0.93431 0.71581 0.0
C959 C 0.8933 0.92583 0.73937 0.0
C960 C 0.89935 0.93838 0.66998 0.0
C961 C 0.90912 0.96488 0.66553 0.0
C962 C 0.90053 0.92059 0.65094 0.0
C963 C 0.89173 0.89205 0.65476 0.0
C964 C 0.90082 0.87593 0.67364 0.0
C965 C 0.89238 0.84905 0.67717 0.0
C966 C 0.875 0.83801 0.66178 0.0
C967 C 0.86608 0.85381 0.64279 0.0
C968 C 0.87444 0.88072 0.63921 0.0
C969 C 0.97683 0.97778 0.58299 0.0
C970 C 0.96744 0.97668 0.55924 0.0
C971 C 0.96212 0.97104 0.60392 0.0
C972 C 0.93766 0.96305 0.60166 0.0
C973 C 0.92816 0.96161 0.57804 0.0
C974 C 0.94289 0.96855 0.55697 0.0
C975 C 0.92238 0.95587 0.62419 0.0
C976 C 0.91173 0.92969 0.62816 0.0
C977 C 0.92059 0.97387 0.6429 0.0
C978 C 0.93067 0.00209 0.63927 0.0
C979 C 0.92443 0.01808 0.61877 0.0
C980 C 0.93433 0.04448 0.61518 0.0
C981 C 0.95042 0.05518 0.63203 0.0
C982 C 0.95658 0.03951 0.65256 0.0
C983 C 0.94674 0.01309 0.65624 0.0
H984 H 0.95809 0.07561 0.6292 0.0
H985 H 0.8685 0.81719 0.66453 0.0
H986 H 0.66202 0.11422 0.21688 0.0
H987 H 0.63684 0.09166 0.18719 0.0
H988 H 0.57775 0.13487 0.20859 0.0
H989 H 0.60206 0.15563 0.2399 0.0
H990 H 0.56045 0.08885 0.19983 0.0
H991 H 0.61651 0.15299 0.15518 0.0
H992 H 0.65631 0.17497 0.14194 0.0
H993 H 0.67562 0.10241 0.11353 0.0
H994 H 0.63601 0.07989 0.12689 0.0
H995 H 0.4964 0.0914 0.0884 0.0
H996 H 0.52255 0.10376 0.12202 0.0
H997 H 0.56462 0.03891 0.10832 0.0
H998 H 0.53816 0.02604 0.07474 0.0
H999 H 0.59134 0.09127 0.11324 0.0
H1000 H 0.52974 0.03043 0.15466 0.0
H1001 H 0.48785 0.01361 0.16556 0.0
H1002 H 0.47692 0.08661 0.19842 0.0
H1003 H 0.5185 0.10424 0.187 0.0
C1004 C 0.64351 0.11851 0.21579 0.0
C1005 C 0.63428 0.13712 0.23075 0.0
C1006 C 0.62919 0.10585 0.19842 0.0
C1007 C 0.60553 0.11205 0.19508 0.0
C1008 C 0.596 0.12986 0.21058 0.0
C1009 C 0.61011 0.14205 0.22831 0.0
C1010 C 0.5908 0.10066 0.17509 0.0
C1011 C 0.56722 0.0896 0.18089 0.0
C1012 C 0.59959 0.10122 0.15033 0.0
C1013 C 0.62342 0.11468 0.14229 0.0
C1014 C 0.62932 0.14167 0.14627 0.0
C1015 C 0.65182 0.15423 0.13872 0.0
C1016 C 0.66851 0.14007 0.12697 0.0
C1017 C 0.66269 0.11333 0.12268 0.0
C1018 C 0.64022 0.10067 0.13023 0.0
C1019 C 0.51124 0.07976 0.09248 0.0
C1020 C 0.51528 0.05776 0.07892 0.0
C1021 C 0.52609 0.08681 0.11175 0.0
C1022 C 0.54541 0.07217 0.11767 0.0
C1023 C 0.54974 0.05039 0.104 0.0
C1024 C 0.53461 0.04303 0.08493 0.0
C1025 C 0.56112 0.07993 0.13806 0.0
C1026 C 0.5848 0.0903 0.13228 0.0
C1027 C 0.5522 0.07945 0.16268 0.0
C1028 C 0.52722 0.06875 0.16976 0.0
C1029 C 0.51833 0.04303 0.16395 0.0
C1030 C 0.49462 0.03336 0.1702 0.0
C1031 C 0.47968 0.04911 0.18252 0.0
C1032 C 0.48845 0.07452 0.1887 0.0
C1033 C 0.51209 0.08436 0.18234 0.0
H1034 H 0.46134 0.04158 0.18738 0.0
H1035 H 0.68593 0.14984 0.12113 0.0
H1036 H 0.38405 0.54864 0.26288 0.0
H1037 H 0.39967 0.53609 0.30307 0.0
H1038 H 0.3997 0.61697 0.32367 0.0
H1039 H 0.38373 0.62968 0.28355 0.0
H1040 H 0.44185 0.59663 0.33393 0.0
H1041 H 0.35804 0.56927 0.34845 0.0
H1042 H 0.31878 0.54597 0.33976 0.0
H1043 H 0.34882 0.47104 0.34597 0.0
H1044 H 0.38836 0.49393 0.35436 0.0
H1045 H 0.46949 0.569 0.45899 0.0
H1046 H 0.4492 0.58294 0.42171 0.0
H1047 H 0.44354 0.50237 0.39936 0.0
H1048 H 0.46333 0.48816 0.43682 0.0
H1049 H 0.40301 0.52386 0.39088 0.0
H1050 H 0.48658 0.54985 0.37294 0.0
H1051 H 0.52674 0.57181 0.38032 0.0
H1052 H 0.49813 0.6475 0.37953 0.0
H1053 H 0.45774 0.62598 0.37218 0.0
C1054 C 0.38694 0.5637 0.2761 0.0
C1055 C 0.38253 0.59018 0.26998 0.0
C1056 C 0.39596 0.55649 0.29906 0.0
C1057 C 0.40067 0.57554 0.31647 0.0
C1058 C 0.39621 0.60195 0.31051 0.0
C1059 C 0.38715 0.60919 0.28754 0.0
C1060 C 0.41102 0.56803 0.34054 0.0
C1061 C 0.43315 0.58103 0.34659 0.0
C1062 C 0.40001 0.54717 0.35672 0.0
C1063 C 0.37621 0.53335 0.35183 0.0
C1064 C 0.35632 0.54784 0.34778 0.0
C1065 C 0.334 0.5347 0.34294 0.0
C1066 C 0.33132 0.50705 0.34226 0.0
C1067 C 0.35093 0.49246 0.34648 0.0
C1068 C 0.37329 0.50551 0.35131 0.0
C1069 C 0.46387 0.55421 0.44617 0.0
C1070 C 0.46814 0.52747 0.45085 0.0
C1071 C 0.45235 0.56224 0.42482 0.0
C1072 C 0.44513 0.54377 0.40753 0.0
C1073 C 0.44895 0.51698 0.4124 0.0
C1074 C 0.46033 0.5089 0.43382 0.0
C1075 C 0.43388 0.55239 0.38423 0.0
C1076 C 0.41163 0.53958 0.37831 0.0
C1077 C 0.44487 0.57324 0.36802 0.0
C1078 C 0.46912 0.58628 0.37227 0.0
C1079 C 0.48883 0.57115 0.3745 0.0
C1080 C 0.51162 0.58351 0.37865 0.0
C1081 C 0.51493 0.61098 0.38054 0.0
C1082 C 0.4955 0.62621 0.37812 0.0
C1083 C 0.47266 0.61396 0.37389 0.0
H1084 H 0.53256 0.62046 0.38379 0.0
H1085 H 0.31403 0.49692 0.33851 0.0
H1086 H 0.10251 0.38023 0.76804 0.0
H1087 H 0.08143 0.40289 0.79958 0.0
H1088 H 0.14343 0.40301 0.84509 0.0
H1089 H 0.16463 0.38081 0.81362 0.0
H1090 H 0.09772 0.38263 0.86914 0.0
H1091 H 0.13473 0.45808 0.81806 0.0
H1092 H 0.14306 0.48473 0.77871 0.0
H1093 H 0.06789 0.4925 0.77145 0.0
H1094 H 0.05907 0.46554 0.81061 0.0
H1095 H 0.06819 0.46089 0.96469 0.0
H1096 H 0.08884 0.44333 0.93014 0.0
H1097 H 0.03382 0.46689 0.88139 0.0
H1098 H 0.01381 0.48587 0.91576 0.0
H1099 H 0.07405 0.47441 0.85741 0.0
H1100 H 0.03551 0.40067 0.90674 0.0
H1101 H 0.02464 0.37261 0.94484 0.0
H1102 H 0.09846 0.35888 0.95375 0.0
H1103 H 0.10982 0.38716 0.91586 0.0
C1104 C 0.11163 0.38526 0.78473 0.0
C1105 C 0.13522 0.37893 0.78836 0.0
C1106 C 0.09963 0.39823 0.80265 0.0
C1107 C 0.11094 0.40464 0.82459 0.0
C1108 C 0.13445 0.39827 0.82825 0.0
C1109 C 0.14656 0.38575 0.81021 0.0
C1110 C 0.09812 0.41733 0.84416 0.0
C1111 C 0.09274 0.4028 0.86673 0.0
C1112 C 0.09091 0.44325 0.84058 0.0
C1113 C 0.09622 0.45954 0.81711 0.0
C1114 C 0.11995 0.46525 0.80795 0.0
C1115 C 0.12477 0.48046 0.78571 0.0
C1116 C 0.10601 0.49023 0.77255 0.0
C1117 C 0.0824 0.48488 0.78164 0.0
C1118 C 0.07748 0.46965 0.80386 0.0
C1119 C 0.06061 0.46254 0.94656 0.0
C1120 C 0.03926 0.47454 0.94298 0.0
C1121 C 0.07233 0.45231 0.92682 0.0
C1122 C 0.06255 0.45303 0.90322 0.0
C1123 C 0.04168 0.4659 0.89942 0.0
C1124 C 0.03022 0.47672 0.91909 0.0
C1125 C 0.07385 0.43986 0.88275 0.0
C1126 C 0.07889 0.45421 0.85993 0.0
C1127 C 0.08032 0.41348 0.8859 0.0
C1128 C 0.07353 0.39622 0.90857 0.0
C1129 C 0.04944 0.39179 0.9169 0.0
C1130 C 0.04319 0.37584 0.93845 0.0
C1131 C 0.06086 0.36402 0.95174 0.0
C1132 C 0.0848 0.36807 0.94345 0.0
C1133 C 0.09115 0.38403 0.92192 0.0
H1134 H 0.05599 0.35169 0.96843 0.0
H1135 H 0.10978 0.50201 0.75534 0.0
H1136 H 0.73751 0.86759 0.91429 0.0
H1137 H 0.69958 0.88186 0.92912 0.0
H1138 H 0.69716 0.93394 0.86348 0.0
H1139 H 0.73546 0.92029 0.84884 0.0
H1140 H 0.68843 0.9593 0.90406 0.0
H1141 H 0.65952 0.87701 0.87175 0.0
H1142 H 0.65756 0.82893 0.86611 0.0
H1143 H 0.64028 0.81199 0.94328 0.0
H1144 H 0.64248 0.86001 0.94946 0.0
H1145 H 0.56998 0.99252 0.92374 0.0
H1146 H 0.60529 0.97486 0.9064 0.0
H1147 H 0.60993 0.92435 0.9727 0.0
H1148 H 0.57435 0.94174 0.99017 0.0
H1149 H 0.61699 0.89794 0.93106 0.0
H1150 H 0.64707 0.98059 0.96321 0.0
H1151 H 0.64849 0.02874 0.96837 0.0
H1152 H 0.66325 0.04492 0.89067 0.0
H1153 H 0.6616 0.99682 0.88499 0.0
C1154 C 0.72889 0.88205 0.90299 0.0
C1155 C 0.73955 0.89286 0.8804 0.0
C1156 C 0.70709 0.89001 0.91139 0.0
C1157 C 0.69543 0.90885 0.89734 0.0
C1158 C 0.70582 0.91935 0.8746 0.0
C1159 C 0.7276 0.91135 0.86616 0.0
C1160 C 0.67304 0.91855 0.90695 0.0
C1161 C 0.67268 0.94591 0.90959 0.0
C1162 C 0.65269 0.90102 0.91474 0.0
C1163 C 0.6514 0.87213 0.91111 0.0
C1164 C 0.65552 0.86304 0.88756 0.0
C1165 C 0.65432 0.8358 0.88426 0.0
C1166 C 0.64886 0.81742 0.90433 0.0
C1167 C 0.64454 0.82625 0.92775 0.0
C1168 C 0.64574 0.85348 0.93116 0.0
C1169 C 0.57846 0.97764 0.93468 0.0
C1170 C 0.56942 0.96866 0.95842 0.0
C1171 C 0.5987 0.96761 0.92474 0.0
C1172 C 0.61041 0.94851 0.93837 0.0
C1173 C 0.60119 0.93912 0.96189 0.0
C1174 C 0.58092 0.94916 0.97188 0.0
C1175 C 0.63245 0.93863 0.92815 0.0
C1176 C 0.63275 0.91128 0.92545 0.0
C1177 C 0.65275 0.95616 0.92024 0.0
C1178 C 0.65398 0.9851 0.92364 0.0
C1179 C 0.65045 0.99441 0.9472 0.0
C1180 C 0.65133 0.02169 0.95022 0.0
C1181 C 0.6559 0.03988 0.92985 0.0
C1182 C 0.65968 0.03081 0.90642 0.0
C1183 C 0.6588 0.00354 0.90329 0.0
H1184 H 0.65656 0.06099 0.93223 0.0
H1185 H 0.64793 0.79634 0.90173 0.0
H1186 H 0.78652 0.18324 0.3757 0.0
H1187 H 0.81603 0.16173 0.40024 0.0
H1188 H 0.78582 0.08503 0.37954 0.0
H1189 H 0.75627 0.10646 0.35474 0.0
H1190 H 0.79732 0.08418 0.42855 0.0
H1191 H 0.83557 0.11418 0.35031 0.0
H1192 H 0.84848 0.14695 0.31596 0.0
H1193 H 0.88979 0.19445 0.36554 0.0
H1194 H 0.87684 0.16214 0.40028 0.0
H1195 H 0.89685 0.01058 0.45471 0.0
H1196 H 0.86349 0.032 0.43684 0.0
H1197 H 0.89726 0.10864 0.45373 0.0
H1198 H 0.93098 0.08739 0.4712 0.0
H1199 H 0.88339 0.10997 0.40762 0.0
H1200 H 0.84634 0.07914 0.48582 0.0
H1201 H 0.8334 0.04635 0.52014 0.0
H1202 H 0.79001 0.0004 0.47105 0.0
H1203 H 0.80295 0.03274 0.43633 0.0
C1204 C 0.78616 0.16179 0.37631 0.0
C1205 C 0.76921 0.14659 0.363 0.0
C1206 C 0.803 0.14953 0.39041 0.0
C1207 C 0.80334 0.12181 0.39143 0.0
C1208 C 0.78588 0.10646 0.37899 0.0
C1209 C 0.76898 0.11873 0.36486 0.0
C1210 C 0.82254 0.10902 0.40466 0.0
C1211 C 0.81614 0.08958 0.42383 0.0
C1212 C 0.8471 0.11649 0.39883 0.0
C1213 C 0.85504 0.13587 0.37794 0.0
C1214 C 0.84726 0.13172 0.35393 0.0
C1215 C 0.85461 0.15019 0.33438 0.0
C1216 C 0.8699 0.17281 0.33858 0.0
C1217 C 0.87792 0.17695 0.36233 0.0
C1218 C 0.87059 0.15855 0.38195 0.0
C1219 C 0.89708 0.03197 0.45491 0.0
C1220 C 0.91665 0.04728 0.46434 0.0
C1221 C 0.8779 0.04419 0.44477 0.0
C1222 C 0.87774 0.07194 0.44409 0.0
C1223 C 0.89699 0.08721 0.45403 0.0
C1224 C 0.91623 0.07501 0.46408 0.0
C1225 C 0.85825 0.08515 0.43169 0.0
C1226 C 0.86459 0.10464 0.41253 0.0
C1227 C 0.83367 0.07769 0.43757 0.0
C1228 C 0.82579 0.05825 0.45843 0.0
C1229 C 0.83419 0.06194 0.4823 0.0
C1230 C 0.82682 0.04345 0.50183 0.0
C1231 C 0.81093 0.02128 0.49777 0.0
C1232 C 0.80233 0.01758 0.47416 0.0
C1233 C 0.80965 0.03599 0.45456 0.0
H1234 H 0.80525 0.00699 0.51291 0.0
H1235 H 0.87557 0.18709 0.32342 0.0
H1236 H 0.25062 0.62612 0.10668 0.0
H1237 H 0.21015 0.61212 0.09329 0.0
H1238 H 0.20204 0.55108 0.15271 0.0
H1239 H 0.24247 0.56499 0.16619 0.0
H1240 H 0.1915 0.5326 0.10624 0.0
H1241 H 0.17162 0.60302 0.15624 0.0
H1242 H 0.17493 0.6488 0.16968 0.0
H1243 H 0.1557 0.67802 0.09766 0.0
H1244 H 0.15261 0.63242 0.08366 0.0
H1245 H 0.06894 0.48885 0.1009 0.0
H1246 H 0.10648 0.50979 0.11571 0.0
H1247 H 0.11163 0.56641 0.05274 0.0
H1248 H 0.07409 0.5452 0.03741 0.0
H1249 H 0.1237 0.58865 0.0994 0.0
H1250 H 0.14225 0.51966 0.0492 0.0
H1251 H 0.14063 0.47488 0.03371 0.0
H1252 H 0.16475 0.4439 0.10314 0.0
H1253 H 0.16572 0.48838 0.11941 0.0
C1254 C 0.2401 0.60986 0.117 0.0
C1255 C 0.24968 0.59661 0.13746 0.0
C1256 C 0.21697 0.60199 0.10941 0.0
C1257 C 0.2031 0.58061 0.12205 0.0
C1258 C 0.21246 0.56767 0.14275 0.0
C1259 C 0.23547 0.57573 0.15052 0.0
C1260 C 0.17943 0.57069 0.11282 0.0
C1261 C 0.17654 0.54468 0.10513 0.0
C1262 C 0.16029 0.5869 0.11045 0.0
C1263 C 0.16214 0.61433 0.11883 0.0
C1264 C 0.16832 0.61923 0.14319 0.0
C1265 C 0.17011 0.64514 0.15093 0.0
C1266 C 0.16559 0.66631 0.13451 0.0
C1267 C 0.15923 0.6616 0.11034 0.0
C1268 C 0.15744 0.63572 0.1025 0.0
C1269 C 0.07781 0.506 0.09033 0.0
C1270 C 0.06856 0.51537 0.06793 0.0
C1271 C 0.09932 0.51785 0.0988 0.0
C1272 C 0.11186 0.53949 0.08524 0.0
C1273 C 0.10217 0.54971 0.06345 0.0
C1274 C 0.0808 0.53755 0.05471 0.0
C1275 C 0.13568 0.55037 0.0933 0.0
C1276 C 0.13864 0.57654 0.10062 0.0
C1277 C 0.15503 0.53439 0.0951 0.0
C1278 C 0.15366 0.50735 0.08569 0.0
C1279 C 0.14674 0.50324 0.06138 0.0
C1280 C 0.14601 0.4779 0.05242 0.0
C1281 C 0.15249 0.45654 0.06747 0.0
C1282 C 0.15959 0.46044 0.09156 0.0
C1283 C 0.16018 0.48571 0.10068 0.0
H1284 H 0.15221 0.43702 0.06039 0.0
H1285 H 0.16698 0.68636 0.14054 0.0
H1286 H 0.30492 0.34855 0.68997 0.0
H1287 H 0.34023 0.37106 0.66778 0.0
H1288 H 0.29487 0.40968 0.61678 0.0
H1289 H 0.25928 0.38819 0.63949 0.0
H1290 H 0.33548 0.38642 0.59456 0.0
H1291 H 0.31721 0.44525 0.65765 0.0
H1292 H 0.30851 0.45616 0.70036 0.0
H1293 H 0.37652 0.43176 0.72254 0.0
H1294 H 0.38546 0.42031 0.68 0.0
H1295 H 0.42293 0.48435 0.53883 0.0
H1296 H 0.38746 0.45884 0.55819 0.0
H1297 H 0.42898 0.4372 0.62099 0.0
H1298 H 0.46418 0.46375 0.60217 0.0
H1299 H 0.38952 0.45118 0.63698 0.0
H1300 H 0.40904 0.39229 0.57566 0.0
H1301 H 0.41858 0.37896 0.53392 0.0
H1302 H 0.35022 0.39998 0.50933 0.0
H1303 H 0.3404 0.41377 0.55086 0.0
C1304 C 0.30233 0.36207 0.67425 0.0
C1305 C 0.27912 0.36669 0.66674 0.0
C1306 C 0.32258 0.37473 0.66145 0.0
C1307 C 0.32011 0.39207 0.64073 0.0
C1308 C 0.2971 0.39625 0.6327 0.0
C1309 C 0.27678 0.38385 0.64568 0.0
C1310 C 0.34161 0.40643 0.62796 0.0
C1311 C 0.3472 0.40084 0.60364 0.0
C1312 C 0.35717 0.42461 0.64016 0.0
C1313 C 0.35189 0.43167 0.6657 0.0
C1314 C 0.33022 0.44199 0.67168 0.0
C1315 C 0.32526 0.44832 0.69585 0.0
C1316 C 0.34193 0.44459 0.71417 0.0
C1317 C 0.36362 0.4346 0.70834 0.0
C1318 C 0.36864 0.42821 0.6842 0.0
C1319 C 0.42454 0.47389 0.55663 0.0
C1320 C 0.44631 0.47602 0.56899 0.0
C1321 C 0.40426 0.45919 0.56766 0.0
C1322 C 0.40551 0.44575 0.59098 0.0
C1323 C 0.42747 0.44741 0.60304 0.0
C1324 C 0.44761 0.46251 0.59224 0.0
C1325 C 0.38374 0.43114 0.6034 0.0
C1326 C 0.37798 0.43672 0.62775 0.0
C1327 C 0.36826 0.41264 0.5913 0.0
C1328 C 0.37408 0.4043 0.56632 0.0
C1329 C 0.39611 0.39426 0.56131 0.0
C1330 C 0.40156 0.38659 0.53769 0.0
C1331 C 0.38504 0.38869 0.51897 0.0
C1332 C 0.36301 0.3984 0.52384 0.0
C1333 C 0.35749 0.40612 0.54742 0.0
H1334 H 0.38929 0.38274 0.5007 0.0
H1335 H 0.33806 0.4495 0.73287 0.0
H1336 H 0.90594 0.77428 0.87237 0.0
H1337 H 0.9197 0.73227 0.88771 0.0
H1338 H 0.84713 0.69515 0.88865 0.0
H1339 H 0.83317 0.73718 0.87291 0.0
H1340 H 0.86869 0.68486 0.93159 0.0
H1341 H 0.88795 0.67973 0.84609 0.0
H1342 H 0.90542 0.69544 0.80508 0.0
H1343 H 0.97585 0.70213 0.83491 0.0
H1344 H 0.95877 0.68681 0.8762 0.0
H1345 H 0.90421 0.55702 0.96549 0.0
H1346 H 0.88721 0.59505 0.94545 0.0
H1347 H 0.95839 0.63479 0.93205 0.0
H1348 H 0.97553 0.596 0.95092 0.0
H1349 H 0.93486 0.64175 0.89325 0.0
H1350 H 0.91426 0.65814 0.97947 0.0
H1351 H 0.89633 0.64713 0.02126 0.0
H1352 H 0.82956 0.61958 0.99011 0.0
H1353 H 0.84677 0.6316 0.94816 0.0
C1354 C 0.89292 0.75708 0.8753 0.0
C1355 C 0.86842 0.75913 0.8713 0.0
C1356 C 0.90084 0.73305 0.88414 0.0
C1357 C 0.88449 0.71048 0.8891 0.0
C1358 C 0.86006 0.71232 0.88492 0.0
C1359 C 0.85211 0.73638 0.87601 0.0
C1360 C 0.89281 0.6855 0.90006 0.0
C1361 C 0.88289 0.67516 0.92299 0.0
C1362 C 0.91168 0.67318 0.88913 0.0
C1363 C 0.92204 0.68232 0.86429 0.0
C1364 C 0.90714 0.68475 0.84395 0.0
C1365 C 0.91698 0.69355 0.82065 0.0
C1366 C 0.94172 0.69983 0.8174 0.0
C1367 C 0.95668 0.69727 0.83746 0.0
C1368 C 0.94693 0.6885 0.86081 0.0
C1369 C 0.91624 0.57391 0.95835 0.0
C1370 C 0.94122 0.57352 0.95976 0.0
C1371 C 0.90647 0.59583 0.9471 0.0
C1372 C 0.92142 0.61819 0.93763 0.0
C1373 C 0.94641 0.61785 0.9392 0.0
C1374 C 0.95622 0.59568 0.95001 0.0
C1375 C 0.91116 0.64143 0.92517 0.0
C1376 C 0.92062 0.65138 0.90184 0.0
C1377 C 0.89194 0.65353 0.93576 0.0
C1378 C 0.88187 0.64539 0.96079 0.0
C1379 C 0.89581 0.64956 0.98158 0.0
C1380 C 0.88575 0.64328 0.00527 0.0
C1381 C 0.86197 0.63226 0.00834 0.0
C1382 C 0.84802 0.62796 0.98772 0.0
C1383 C 0.85783 0.63474 0.964 0.0
H1384 H 0.85429 0.62725 0.02671 0.0
H1385 H 0.94931 0.70664 0.79935 0.0
H1386 H 0.39428 0.74673 0.16102 0.0
H1387 H 0.40933 0.7915 0.14464 0.0
H1388 H 0.40213 0.76661 0.07038 0.0
H1389 H 0.38738 0.72181 0.08667 0.0
H1390 H 0.44316 0.7946 0.07361 0.0
H1391 H 0.36209 0.8055 0.09653 0.0
H1392 H 0.32615 0.8029 0.12399 0.0
H1393 H 0.36399 0.85421 0.17309 0.0
H1394 H 0.40028 0.85682 0.14607 0.0
H1395 H 0.42898 0.94315 0.03749 0.0
H1396 H 0.41209 0.89949 0.05473 0.0
H1397 H 0.48209 0.88227 0.07881 0.0
H1398 H 0.49925 0.92567 0.06106 0.0
H1399 H 0.40831 0.87544 0.09923 0.0
H1400 H 0.48848 0.81708 0.07345 0.0
H1401 H 0.52129 0.81992 0.04199 0.0
H1402 H 0.47934 0.8632 0.99134 0.0
H1403 H 0.44615 0.86023 0.02233 0.0
C1404 C 0.39571 0.7509 0.14121 0.0
C1405 C 0.38967 0.73076 0.12513 0.0
C1406 C 0.40431 0.77648 0.13186 0.0
C1407 C 0.40669 0.78251 0.10625 0.0
C1408 C 0.40056 0.76243 0.09019 0.0
C1409 C 0.39215 0.73683 0.09952 0.0
C1410 C 0.41594 0.80959 0.09614 0.0
C1411 C 0.43553 0.81225 0.07926 0.0
C1412 C 0.40575 0.83266 0.1031 0.0
C1413 C 0.38397 0.83114 0.1194 0.0
C1414 C 0.36281 0.81605 0.11328 0.0
C1415 C 0.34236 0.81461 0.12875 0.0
C1416 C 0.34281 0.82832 0.15031 0.0
C1417 C 0.36368 0.84357 0.15641 0.0
C1418 C 0.38419 0.84505 0.14101 0.0
C1419 C 0.44079 0.93012 0.04651 0.0
C1420 C 0.46551 0.9378 0.04771 0.0
C1421 C 0.43108 0.90519 0.05645 0.0
C1422 C 0.44586 0.88747 0.0678 0.0
C1423 C 0.47041 0.89543 0.06974 0.0
C1424 C 0.48017 0.92028 0.05964 0.0
C1425 C 0.43568 0.86041 0.07699 0.0
C1426 C 0.41596 0.85776 0.09369 0.0
C1427 C 0.44529 0.8373 0.06931 0.0
C1428 C 0.46494 0.83865 0.05032 0.0
C1429 C 0.48622 0.82708 0.05556 0.0
C1430 C 0.50489 0.82872 0.03781 0.0
C1431 C 0.50243 0.8418 0.01471 0.0
C1432 C 0.48125 0.85314 0.00926 0.0
C1433 C 0.46252 0.85149 0.02692 0.0
H1434 H 0.51692 0.8431 0.00103 0.0
H1435 H 0.32696 0.82718 0.16226 0.0
H1436 H 0.13669 0.20008 0.68556 0.0
H1437 H 0.11999 0.16788 0.65744 0.0
H1438 H 0.12089 0.23002 0.59927 0.0
H1439 H 0.13845 0.26227 0.62716 0.0
H1440 H 0.08032 0.16167 0.63199 0.0
H1441 H 0.13497 0.20342 0.54448 0.0
H1442 H 0.17303 0.23045 0.53287 0.0
H1443 H 0.20299 0.20515 0.60144 0.0
H1444 H 0.16525 0.17771 0.61328 0.0
H1445 H 0.04123 0.08366 0.53357 0.0
H1446 H 0.05324 0.12318 0.55578 0.0
H1447 H 0.12347 0.09656 0.56553 0.0
H1448 H 0.1118 0.05737 0.54301 0.0
H1449 H 0.12651 0.14941 0.5551 0.0
H1450 H 0.08104 0.08483 0.61106 0.0
H1451 H 0.0457 0.05417 0.6247 0.0
H1452 H 0.00196 0.11935 0.62333 0.0
H1453 H 0.03703 0.15038 0.60936 0.0
C1454 C 0.13339 0.20692 0.66677 0.0
C1455 C 0.1392 0.23369 0.65852 0.0
C1456 C 0.12361 0.18852 0.65077 0.0
C1457 C 0.11943 0.19645 0.62616 0.0
C1458 C 0.12425 0.22338 0.61811 0.0
C1459 C 0.1341 0.24183 0.63412 0.0
C1460 C 0.11115 0.17616 0.60882 0.0
C1461 C 0.09031 0.15918 0.61506 0.0
C1462 C 0.12433 0.1726 0.58689 0.0
C1463 C 0.14718 0.18882 0.57988 0.0
C1464 C 0.14971 0.2036 0.55704 0.0
C1465 C 0.17122 0.21898 0.55042 0.0
C1466 C 0.19038 0.2196 0.56645 0.0
C1467 C 0.1881 0.20475 0.58909 0.0
C1468 C 0.16665 0.1893 0.59577 0.0
C1469 C 0.05932 0.08639 0.54019 0.0
C1470 C 0.07551 0.06727 0.5367 0.0
C1471 C 0.06612 0.10893 0.55294 0.0
C1472 C 0.08914 0.11262 0.56259 0.0
C1473 C 0.10561 0.09411 0.55825 0.0
C1474 C 0.09889 0.07167 0.54541 0.0
C1475 C 0.09578 0.13493 0.57833 0.0
C1476 C 0.1163 0.15226 0.57179 0.0
C1477 C 0.08263 0.13841 0.60028 0.0
C1478 C 0.06159 0.11987 0.60892 0.0
C1479 C 0.06385 0.0926 0.61351 0.0
C1480 C 0.04388 0.07516 0.62132 0.0
C1481 C 0.02159 0.0848 0.62481 0.0
C1482 C 0.01924 0.11192 0.62058 0.0
C1483 C 0.03915 0.12944 0.61273 0.0
H1484 H 0.00616 0.07127 0.63086 0.0
H1485 H 0.20701 0.23154 0.5613 0.0
H1486 H 0.62721 0.29125 0.32421 0.0
H1487 H 0.60443 0.3203 0.34797 0.0
H1488 H 0.63317 0.28848 0.41534 0.0
H1489 H 0.65582 0.25916 0.39165 0.0
H1490 H 0.58688 0.29383 0.42194 0.0
H1491 H 0.6553 0.34927 0.38805 0.0
H1492 H 0.68361 0.36984 0.35533 0.0
H1493 H 0.62642 0.40642 0.31967 0.0
H1494 H 0.59769 0.38574 0.35201 0.0
H1495 H 0.56751 0.4002 0.49828 0.0
H1496 H 0.58439 0.36701 0.47398 0.0
H1497 H 0.54725 0.39464 0.41017 0.0
H1498 H 0.53012 0.42783 0.43439 0.0
H1499 H 0.59615 0.39112 0.40111 0.0
H1500 H 0.52817 0.33669 0.43749 0.0
H1501 H 0.50113 0.31674 0.47154 0.0
H1502 H 0.55926 0.27909 0.5042 0.0
H1503 H 0.58675 0.29914 0.47052 0.0
C1504 C 0.62875 0.29053 0.34408 0.0
C1505 C 0.64345 0.27306 0.35605 0.0
C1506 C 0.61571 0.30712 0.35764 0.0
C1507 C 0.61735 0.30687 0.38342 0.0
C1508 C 0.63161 0.28903 0.39547 0.0
C1509 C 0.64453 0.27228 0.38192 0.0
C1510 C 0.60451 0.32548 0.39777 0.0
C1511 C 0.58912 0.31513 0.41755 0.0
C1512 C 0.60706 0.35325 0.39178 0.0
C1513 C 0.6243 0.36572 0.3723 0.0
C1514 C 0.64873 0.36152 0.37312 0.0
C1515 C 0.66486 0.37323 0.35466 0.0
C1516 C 0.65681 0.38936 0.3354 0.0
C1517 C 0.63262 0.39387 0.33458 0.0
C1518 C 0.61641 0.38218 0.35298 0.0
C1519 C 0.56272 0.39905 0.47915 0.0
C1520 C 0.5475 0.41666 0.46825 0.0
C1521 C 0.57232 0.38001 0.46532 0.0
C1522 C 0.56699 0.37833 0.44031 0.0
C1523 C 0.55154 0.39562 0.42946 0.0
C1524 C 0.5417 0.41448 0.44335 0.0
C1525 C 0.57858 0.35946 0.42523 0.0
C1526 C 0.59381 0.3698 0.40537 0.0
C1527 C 0.57607 0.33176 0.43133 0.0
C1528 C 0.55957 0.31963 0.45159 0.0
C1529 C 0.53524 0.32435 0.45205 0.0
C1530 C 0.51982 0.31298 0.47126 0.0
C1531 C 0.52848 0.29671 0.49005 0.0
C1532 C 0.55258 0.29173 0.48964 0.0
C1533 C 0.56808 0.30307 0.47048 0.0
H1534 H 0.51652 0.28793 0.50491 0.0
H1535 H 0.66933 0.39842 0.32113 0.0
loop_
_geom_bond_atom_site_label_1
_geom_bond_atom_site_label_2
_geom_bond_distance
_geom_bond_site_symmetry_2
_ccdc_geom_bond_type
P0 O11 1.490 . S
P0 C14 1.812 . S
P0 C20 1.803 . S
P0 C26 1.819 . S
H1 C15 0.941 . S
H2 C16 0.939 . S
H3 C18 0.940 . S
H4 C19 0.940 . S
H5 C21 0.939 . S
H6 C22 0.942 . S
H7 C24 0.940 . S
H8 C25 0.939 . S
H9 C27 0.941 . S
H10 C31 0.939 . S
O11 P0 1.490 . S
H12 C28 0.939 . S
H13 C30 0.940 . S
C14 P0 1.812 . S
C14 C15 1.389 . S
C14 C19 1.391 . S
C15 H1 0.941 . S
C15 C14 1.389 . S
C15 C16 1.397 . S
C16 H2 0.939 . S
C16 C15 1.397 . S
C16 C17 1.378 . S
C17 C16 1.378 . S
C17 C18 1.378 . S
C18 H3 0.940 . S
C18 C17 1.378 . S
C18 C19 1.396 . S
C19 H4 0.940 . S
C19 C14 1.391 . S
C19 C18 1.396 . S
C20 P0 1.803 . S
C20 C21 1.378 . S
C20 C25 1.400 . S
C21 H5 0.939 . S
C21 C20 1.378 . S
C21 C22 1.361 . S
C22 H6 0.942 . S
C22 C21 1.361 . S
C22 C23 1.369 . S
C23 C22 1.369 . S
C23 C24 1.404 . S
C24 H7 0.940 . S
C24 C23 1.404 . S
C24 C25 1.389 . S
C25 H8 0.939 . S
C25 C20 1.400 . S
C25 C24 1.389 . S
C26 P0 1.819 . S
C26 C27 1.391 . S
C26 C31 1.391 . S
C27 H9 0.941 . S
C27 C26 1.391 . S
C27 C28 1.396 . S
C28 H12 0.939 . S
C28 C27 1.396 . S
C28 C29 1.397 . S
C29 C28 1.397 . S
C29 C30 1.385 . S
C30 H13 0.940 . S
C30 C29 1.385 . S
C30 C31 1.388 . S
C31 H10 0.939 . S
C31 C26 1.391 . S
C31 C30 1.388 . S
P32 O43 1.490 . S
P32 C46 1.812 . S
P32 C52 1.803 . S
P32 C58 1.819 . S
H33 C47 0.941 . S
H34 C48 0.939 . S
H35 C50 0.940 . S
H36 C51 0.940 . S
H37 C53 0.939 . S
H38 C54 0.942 . S
H39 C56 0.940 . S
H40 C57 0.939 . S
H41 C59 0.941 . S
H42 C63 0.939 . S
O43 P32 1.490 . S
H44 C60 0.939 . S
H45 C62 0.940 . S
C46 P32 1.812 . S
C46 C47 1.389 . S
C46 C51 1.391 . S
C47 H33 0.941 . S
C47 C46 1.389 . S
C47 C48 1.397 . S
C48 H34 0.939 . S
C48 C47 1.397 . S
C48 C49 1.378 . S
C49 C48 1.378 . S
C49 C50 1.378 . S
C50 H35 0.940 . S
C50 C49 1.378 . S
C50 C51 1.396 . S
C51 H36 0.940 . S
C51 C46 1.391 . S
C51 C50 1.396 . S
C52 P32 1.803 . S
C52 C53 1.378 . S
C52 C57 1.400 . S
C53 H37 0.939 . S
C53 C52 1.378 . S
C53 C54 1.361 . S
C54 H38 0.942 . S
C54 C53 1.361 . S
C54 C55 1.369 . S
C55 C54 1.369 . S
C55 C56 1.404 . S
C56 H39 0.940 . S
C56 C55 1.404 . S
C56 C57 1.389 . S
C57 H40 0.939 . S
C57 C52 1.400 . S
C57 C56 1.389 . S
C58 P32 1.819 . S
C58 C59 1.391 . S
C58 C63 1.391 . S
C59 H41 0.941 . S
C59 C58 1.391 . S
C59 C60 1.396 . S
C60 H44 0.939 . S
C60 C59 1.396 . S
C60 C61 1.397 . S
C61 C60 1.397 . S
C61 C62 1.385 . S
C62 H45 0.940 . S
C62 C61 1.385 . S
C62 C63 1.388 . S
C63 H42 0.939 . S
C63 C58 1.391 . S
C63 C62 1.388 . S
P64 O75 1.490 . S
P64 C78 1.812 . S
P64 C84 1.803 . S
P64 C90 1.819 . S
H65 C79 0.941 . S
H66 C80 0.939 . S
H67 C82 0.940 . S
H68 C83 0.940 . S
H69 C85 0.939 . S
H70 C86 0.942 . S
H71 C88 0.940 . S
H72 C89 0.939 . S
H73 C91 0.941 . S
H74 C95 0.939 . S
O75 P64 1.490 . S
H76 C92 0.939 . S
H77 C94 0.940 . S
C78 P64 1.812 . S
C78 C79 1.389 . S
C78 C83 1.391 . S
C79 H65 0.941 . S
C79 C78 1.389 . S
C79 C80 1.397 . S
C80 H66 0.939 . S
C80 C79 1.397 . S
C80 C81 1.378 . S
C81 C80 1.378 . S
C81 C82 1.378 . S
C82 H67 0.940 . S
C82 C81 1.378 . S
C82 C83 1.396 . S
C83 H68 0.940 . S
C83 C78 1.391 . S
C83 C82 1.396 . S
C84 P64 1.803 . S
C84 C85 1.378 . S
C84 C89 1.400 . S
C85 H69 0.939 . S
C85 C84 1.378 . S
C85 C86 1.361 . S
C86 H70 0.942 . S
C86 C85 1.361 . S
C86 C87 1.369 . S
C87 C86 1.369 . S
C87 C88 1.404 . S
C88 H71 0.940 . S
C88 C87 1.404 . S
C88 C89 1.389 . S
C89 H72 0.939 . S
C89 C84 1.400 . S
C89 C88 1.389 . S
C90 P64 1.819 . S
C90 C91 1.391 . S
C90 C95 1.391 . S
C91 H73 0.941 . S
C91 C90 1.391 . S
C91 C92 1.396 . S
C92 H76 0.939 . S
C92 C91 1.396 . S
C92 C93 1.397 . S
C93 C92 1.397 . S
C93 C94 1.385 . S
C94 H77 0.940 . S
C94 C93 1.385 . S
C94 C95 1.388 . S
C95 H74 0.939 . S
C95 C90 1.391 . S
C95 C94 1.388 . S
P96 O107 1.490 . S
P96 C110 1.812 . S
P96 C116 1.803 . S
P96 C122 1.819 . S
H97 C111 0.941 . S
H98 C112 0.939 . S
H99 C114 0.940 . S
H100 C115 0.940 . S
H101 C117 0.939 . S
H102 C118 0.942 . S
H103 C120 0.940 . S
H104 C121 0.939 . S
H105 C123 0.941 . S
H106 C127 0.939 . S
O107 P96 1.490 . S
H108 C124 0.939 . S
H109 C126 0.940 . S
C110 P96 1.812 . S
C110 C111 1.389 . S
C110 C115 1.391 . S
C111 H97 0.941 . S
C111 C110 1.389 . S
C111 C112 1.397 . S
C112 H98 0.939 . S
C112 C111 1.397 . S
C112 C113 1.378 . S
C113 C112 1.378 . S
C113 C114 1.378 . S
C114 H99 0.940 . S
C114 C113 1.378 . S
C114 C115 1.396 . S
C115 H100 0.940 . S
C115 C110 1.391 . S
C115 C114 1.396 . S
C116 P96 1.803 . S
C116 C117 1.378 . S
C116 C121 1.400 . S
C117 H101 0.939 . S
C117 C116 1.378 . S
C117 C118 1.361 . S
C118 H102 0.942 . S
C118 C117 1.361 . S
C118 C119 1.369 . S
C119 C118 1.369 . S
C119 C120 1.404 . S
C120 H103 0.940 . S
C120 C119 1.404 . S
C120 C121 1.389 . S
C121 H104 0.939 . S
C121 C116 1.400 . S
C121 C120 1.389 . S
C122 P96 1.819 . S
C122 C123 1.391 . S
C122 C127 1.391 . S
C123 H105 0.941 . S
C123 C122 1.391 . S
C123 C124 1.396 . S
C124 H108 0.939 . S
C124 C123 1.396 . S
C124 C125 1.397 . S
C125 C124 1.397 . S
C125 C126 1.385 . S
C126 H109 0.940 . S
C126 C125 1.385 . S
C126 C127 1.388 . S
C127 H106 0.939 . S
C127 C122 1.391 . S
C127 C126 1.388 . S
P128 O139 1.490 . S
P128 C142 1.812 . S
P128 C148 1.803 . S
P128 C154 1.819 . S
H129 C143 0.941 . S
H130 C144 0.939 . S
H131 C146 0.940 . S
H132 C147 0.940 . S
H133 C149 0.939 . S
H134 C150 0.942 . S
H135 C152 0.940 . S
H136 C153 0.939 . S
H137 C155 0.941 . S
H138 C159 0.939 . S
O139 P128 1.490 . S
H140 C156 0.939 . S
H141 C158 0.940 . S
C142 P128 1.812 . S
C142 C143 1.389 . S
C142 C147 1.391 . S
C143 H129 0.941 . S
C143 C142 1.389 . S
C143 C144 1.397 . S
C144 H130 0.939 . S
C144 C143 1.397 . S
C144 C145 1.378 . S
C145 C144 1.378 . S
C145 C146 1.378 . S
C146 H131 0.940 . S
C146 C145 1.378 . S
C146 C147 1.396 . S
C147 H132 0.940 . S
C147 C142 1.391 . S
C147 C146 1.396 . S
C148 P128 1.803 . S
C148 C149 1.378 . S
C148 C153 1.400 . S
C149 H133 0.939 . S
C149 C148 1.378 . S
C149 C150 1.361 . S
C150 H134 0.942 . S
C150 C149 1.361 . S
C150 C151 1.369 . S
C151 C150 1.369 . S
C151 C152 1.404 . S
C152 H135 0.940 . S
C152 C151 1.404 . S
C152 C153 1.389 . S
C153 H136 0.939 . S
C153 C148 1.400 . S
C153 C152 1.389 . S
C154 P128 1.819 . S
C154 C155 1.391 . S
C154 C159 1.391 . S
C155 H137 0.941 . S
C155 C154 1.391 . S
C155 C156 1.396 . S
C156 H140 0.939 . S
C156 C155 1.396 . S
C156 C157 1.397 . S
C157 C156 1.397 . S
C157 C158 1.385 . S
C158 H141 0.940 . S
C158 C157 1.385 . S
C158 C159 1.388 . S
C159 H138 0.939 . S
C159 C154 1.391 . S
C159 C158 1.388 . S
P160 O171 1.490 . S
P160 C174 1.812 . S
P160 C180 1.803 . S
P160 C186 1.819 . S
H161 C175 0.941 . S
H162 C176 0.939 . S
H163 C178 0.940 . S
H164 C179 0.940 . S
H165 C181 0.939 . S
H166 C182 0.942 . S
H167 C184 0.940 . S
H168 C185 0.939 . S
H169 C187 0.941 . S
H170 C191 0.939 . S
O171 P160 1.490 . S
H172 C188 0.939 . S
H173 C190 0.940 . S
C174 P160 1.812 . S
C174 C175 1.389 . S
C174 C179 1.391 . S
C175 H161 0.941 . S
C175 C174 1.389 . S
C175 C176 1.397 . S
C176 H162 0.939 . S
C176 C175 1.397 . S
C176 C177 1.378 . S
C177 C176 1.378 . S
C177 C178 1.378 . S
C178 H163 0.940 . S
C178 C177 1.378 . S
C178 C179 1.396 . S
C179 H164 0.940 . S
C179 C174 1.391 . S
C179 C178 1.396 . S
C180 P160 1.803 . S
C180 C181 1.378 . S
C180 C185 1.400 . S
C181 H165 0.939 . S
C181 C180 1.378 . S
C181 C182 1.361 . S
C182 H166 0.942 . S
C182 C181 1.361 . S
C182 C183 1.369 . S
C183 C182 1.369 . S
C183 C184 1.404 . S
C184 H167 0.940 . S
C184 C183 1.404 . S
C184 C185 1.389 . S
C185 H168 0.939 . S
C185 C180 1.400 . S
C185 C184 1.389 . S
C186 P160 1.819 . S
C186 C187 1.391 . S
C186 C191 1.391 . S
C187 H169 0.941 . S
C187 C186 1.391 . S
C187 C188 1.396 . S
C188 H172 0.939 . S
C188 C187 1.396 . S
C188 C189 1.397 . S
C189 C188 1.397 . S
C189 C190 1.385 . S
C190 H173 0.940 . S
C190 C189 1.385 . S
C190 C191 1.388 . S
C191 H170 0.939 . S
C191 C186 1.391 . S
C191 C190 1.388 . S
P192 O203 1.490 . S
P192 C206 1.812 . S
P192 C212 1.803 . S
P192 C218 1.819 . S
H193 C207 0.941 . S
H194 C208 0.939 . S
H195 C210 0.940 . S
H196 C211 0.940 . S
H197 C213 0.939 . S
H198 C214 0.942 . S
H199 C216 0.940 . S
H200 C217 0.939 . S
H201 C219 0.941 . S
H202 C223 0.939 . S
O203 P192 1.490 . S
H204 C220 0.939 . S
H205 C222 0.940 . S
C206 P192 1.812 . S
C206 C207 1.389 . S
C206 C211 1.391 . S
C207 H193 0.941 . S
C207 C206 1.389 . S
C207 C208 1.397 . S
C208 H194 0.939 . S
C208 C207 1.397 . S
C208 C209 1.378 . S
C209 C208 1.378 . S
C209 C210 1.378 . S
C210 H195 0.940 . S
C210 C209 1.378 . S
C210 C211 1.396 . S
C211 H196 0.940 . S
C211 C206 1.391 . S
C211 C210 1.396 . S
C212 P192 1.803 . S
C212 C213 1.378 . S
C212 C217 1.400 . S
C213 H197 0.939 . S
C213 C212 1.378 . S
C213 C214 1.361 . S
C214 H198 0.942 . S
C214 C213 1.361 . S
C214 C215 1.369 . S
C215 C214 1.369 . S
C215 C216 1.404 . S
C216 H199 0.940 . S
C216 C215 1.404 . S
C216 C217 1.389 . S
C217 H200 0.939 . S
C217 C212 1.400 . S
C217 C216 1.389 . S
C218 P192 1.819 . S
C218 C219 1.391 . S
C218 C223 1.391 . S
C219 H201 0.941 . S
C219 C218 1.391 . S
C219 C220 1.396 . S
C220 H204 0.939 . S
C220 C219 1.396 . S
C220 C221 1.397 . S
C221 C220 1.397 . S
C221 C222 1.385 . S
C222 H205 0.940 . S
C222 C221 1.385 . S
C222 C223 1.388 . S
C223 H202 0.939 . S
C223 C218 1.391 . S
C223 C222 1.388 . S
P224 O235 1.490 . S
P224 C238 1.812 . S
P224 C244 1.803 . S
P224 C250 1.819 . S
H225 C239 0.941 . S
H226 C240 0.939 . S
H227 C242 0.940 . S
H228 C243 0.940 . S
H229 C245 0.939 . S
H230 C246 0.942 . S
H231 C248 0.940 . S
H232 C249 0.939 . S
H233 C251 0.941 . S
H234 C255 0.939 . S
O235 P224 1.490 . S
H236 C252 0.939 . S
H237 C254 0.940 . S
C238 P224 1.812 . S
C238 C239 1.389 . S
C238 C243 1.391 . S
C239 H225 0.941 . S
C239 C238 1.389 . S
C239 C240 1.397 . S
C240 H226 0.939 . S
C240 C239 1.397 . S
C240 C241 1.378 . S
C241 C240 1.378 . S
C241 C242 1.378 . S
C242 H227 0.940 . S
C242 C241 1.378 . S
C242 C243 1.396 . S
C243 H228 0.940 . S
C243 C238 1.391 . S
C243 C242 1.396 . S
C244 P224 1.803 . S
C244 C245 1.378 . S
C244 C249 1.400 . S
C245 H229 0.939 . S
C245 C244 1.378 . S
C245 C246 1.361 . S
C246 H230 0.942 . S
C246 C245 1.361 . S
C246 C247 1.369 . S
C247 C246 1.369 . S
C247 C248 1.404 . S
C248 H231 0.940 . S
C248 C247 1.404 . S
C248 C249 1.389 . S
C249 H232 0.939 . S
C249 C244 1.400 . S
C249 C248 1.389 . S
C250 P224 1.819 . S
C250 C251 1.391 . S
C250 C255 1.391 . S
C251 H233 0.941 . S
C251 C250 1.391 . S
C251 C252 1.396 . S
C252 H236 0.939 . S
C252 C251 1.396 . S
C252 C253 1.397 . S
C253 C252 1.397 . S
C253 C254 1.385 . S
C254 H237 0.940 . S
C254 C253 1.385 . S
C254 C255 1.388 . S
C255 H234 0.939 . S
C255 C250 1.391 . S
C255 C254 1.388 . S
Zn256 O262 1.969 1_545 S
Zn256 O263 1.965 1_545 S
Zn256 O267 2.024 . S
Zn256 O272 1.969 . S
Zn257 O264 1.969 . S
Zn257 O270 1.969 1_565 S
Zn257 O271 1.965 1_665 S
Zn257 O273 2.024 . S
C258 O259 1.229 . S
C258 O267 1.058 . S
O259 C258 1.229 . S
C260 O261 1.229 . S
C260 O273 1.058 . S
O261 C260 1.229 . S
O262 Zn256 1.969 1_565 S
O262 C265 1.267 . S
O263 Zn256 1.965 1_565 S
O263 C274 1.260 1_455 S
O264 Zn257 1.969 . S
O264 C274 1.258 . S
C265 O262 1.267 . S
C265 O266 1.228 . S
O266 C265 1.228 . S
O267 Zn256 2.024 . S
O267 C258 1.058 . S
C268 O269 1.228 . S
C268 O270 1.267 . S
O269 C268 1.228 . S
O270 Zn257 1.969 1_545 S
O270 C268 1.267 . S
O271 Zn257 1.965 1_445 S
O271 C275 1.260 . S
O272 Zn256 1.969 . S
O272 C275 1.258 . S
O273 Zn257 2.024 . S
O273 C260 1.058 . S
C274 O263 1.260 1_655 S
C274 O264 1.258 . S
C275 O271 1.260 . S
C275 O272 1.258 . S
Zn276 O282 1.969 . S
Zn276 O283 1.965 1_565 S
Zn276 O287 2.024 . S
Zn276 O292 1.969 1_556 S
Zn277 O284 1.969 . S
Zn277 O290 1.969 . S
Zn277 O291 1.965 1_545 S
Zn277 O293 2.024 . S
C278 O279 1.229 . S
C278 O287 1.058 . S
O279 C278 1.229 . S
C280 O281 1.229 . S
C280 O293 1.058 . S
O281 C280 1.229 . S
O282 Zn276 1.969 . S
O282 C285 1.267 . S
O283 Zn276 1.965 1_545 S
O283 C294 1.260 . S
O284 Zn277 1.969 . S
O284 C294 1.258 1_554 S
C285 O282 1.267 . S
C285 O286 1.228 . S
O286 C285 1.228 . S
O287 Zn276 2.024 . S
O287 C278 1.058 . S
C288 O289 1.228 . S
C288 O290 1.267 . S
O289 C288 1.228 . S
O290 Zn277 1.969 . S
O290 C288 1.267 . S
O291 Zn277 1.965 1_565 S
O291 C295 1.260 . S
O292 Zn276 1.969 1_554 S
O292 C295 1.258 . S
O293 Zn277 2.024 . S
O293 C280 1.058 . S
C294 O283 1.260 . S
C294 O284 1.258 1_556 S
C295 O291 1.260 . S
C295 O292 1.258 . S
Zn296 O302 1.969 . S
Zn296 O303 1.965 . S
Zn296 O307 2.024 . S
Zn296 O312 1.969 . S
Zn297 O304 1.969 . S
Zn297 O310 1.969 . S
Zn297 O311 1.965 . S
Zn297 O313 2.024 . S
C298 O299 1.229 . S
C298 O307 1.058 . S
O299 C298 1.229 . S
C300 O301 1.229 . S
C300 O313 1.058 . S
O301 C300 1.229 . S
O302 Zn296 1.969 . S
O302 C305 1.267 . S
O303 Zn296 1.965 . S
O303 C314 1.260 . S
O304 Zn297 1.969 . S
O304 C314 1.258 . S
C305 O302 1.267 . S
C305 O306 1.228 . S
O306 C305 1.228 . S
O307 Zn296 2.024 . S
O307 C298 1.058 . S
C308 O309 1.228 . S
C308 O310 1.267 . S
O309 C308 1.228 . S
O310 Zn297 1.969 . S
O310 C308 1.267 . S
O311 Zn297 1.965 . S
O311 C315 1.260 . S
O312 Zn296 1.969 . S
O312 C315 1.258 . S
O313 Zn297 2.024 . S
O313 C300 1.058 . S
C314 O303 1.260 . S
C314 O304 1.258 . S
C315 O311 1.260 . S
C315 O312 1.258 . S
Zn316 O322 1.969 . S
Zn316 O323 1.965 1_556 S
Zn316 O327 2.024 . S
Zn316 O332 1.969 1_655 S
Zn317 O324 1.969 . S
Zn317 O330 1.969 . S
Zn317 O331 1.965 1_554 S
Zn317 O333 2.024 . S
C318 O319 1.229 . S
C318 O327 1.058 . S
O319 C318 1.229 . S
C320 O321 1.229 . S
C320 O333 1.058 . S
O321 C320 1.229 . S
O322 Zn316 1.969 . S
O322 C325 1.267 . S
O323 Zn316 1.965 1_554 S
O323 C334 1.260 . S
O324 Zn317 1.969 . S
O324 C334 1.258 1_455 S
C325 O322 1.267 . S
C325 O326 1.228 . S
O326 C325 1.228 . S
O327 Zn316 2.024 . S
O327 C318 1.058 . S
C328 O329 1.228 . S
C328 O330 1.267 . S
O329 C328 1.228 . S
O330 Zn317 1.969 . S
O330 C328 1.267 . S
O331 Zn317 1.965 1_556 S
O331 C335 1.260 . S
O332 Zn316 1.969 1_455 S
O332 C335 1.258 . S
O333 Zn317 2.024 . S
O333 C320 1.058 . S
C334 O323 1.260 . S
C334 O324 1.258 1_655 S
C335 O331 1.260 . S
C335 O332 1.258 . S
H336 C354 0.951 . S
H337 C356 0.951 . S
H338 C358 0.950 . S
H339 C359 0.950 . S
H340 C361 0.950 . S
H341 C364 0.950 . S
H342 C365 0.950 . S
H343 C367 0.950 . S
H344 C368 0.950 . S
H345 C369 0.951 . S
H346 C371 0.951 . S
H347 C373 0.950 . S
H348 C374 0.950 . S
H349 C376 0.950 . S
H350 C379 0.950 . S
H351 C380 0.950 . S
H352 C382 0.950 . S
H353 C383 0.950 . S
C354 H336 0.951 . S
C354 C355 1.366 . S
C354 C356 1.388 . S
C355 C354 1.366 . S
C355 C359 1.385 . S
C356 H337 0.951 . S
C356 C354 1.388 . S
C356 C357 1.366 . S
C357 C356 1.366 . S
C357 C358 1.414 . S
C357 C360 1.499 . S
C358 H338 0.950 . S
C358 C357 1.414 . S
C358 C359 1.374 . S
C359 H339 0.950 . S
C359 C355 1.385 . S
C359 C358 1.374 . S
C360 C357 1.499 . S
C360 C361 1.373 . S
C360 C362 1.389 . S
C361 H340 0.950 . S
C361 C360 1.373 . S
C361 C377 1.377 . S
C362 C360 1.389 . S
C362 C363 1.524 . S
C362 C376 1.377 . S
C363 C362 1.524 . S
C363 C364 1.397 . S
C363 C368 1.363 . S
C364 H341 0.950 . S
C364 C363 1.397 . S
C364 C365 1.334 . S
C365 H342 0.950 . S
C365 C364 1.334 . S
C365 C366 1.287 . S
C366 C365 1.287 . S
C366 C367 1.524 . S
C366 H385 0.913 . S
C367 H343 0.950 . S
C367 C366 1.524 . S
C367 C368 1.415 . S
C368 H344 0.950 . S
C368 C363 1.363 . S
C368 C367 1.415 . S
C369 H345 0.951 . S
C369 C370 1.366 . S
C369 C371 1.388 . S
C370 C369 1.366 . S
C370 C374 1.385 . S
C371 H346 0.951 . S
C371 C369 1.388 . S
C371 C372 1.366 . S
C372 C371 1.366 . S
C372 C373 1.414 . S
C372 C375 1.499 . S
C373 H347 0.950 . S
C373 C372 1.414 . S
C373 C374 1.374 . S
C374 H348 0.950 . S
C374 C370 1.385 . S
C374 C373 1.374 . S
C375 C372 1.499 . S
C375 C376 1.373 . S
C375 C377 1.389 . S
C376 H349 0.950 . S
C376 C362 1.377 . S
C376 C375 1.373 . S
C377 C361 1.377 . S
C377 C375 1.389 . S
C377 C378 1.524 . S
C378 C377 1.524 . S
C378 C379 1.397 . S
C378 C383 1.363 . S
C379 H350 0.950 . S
C379 C378 1.397 . S
C379 C380 1.334 . S
C380 H351 0.950 . S
C380 C379 1.334 . S
C380 C381 1.287 . S
C381 C380 1.287 . S
C381 C382 1.524 . S
C381 H384 0.999 . S
C382 H352 0.950 . S
C382 C381 1.524 . S
C382 C383 1.415 . S
C383 H353 0.950 . S
C383 C378 1.363 . S
C383 C382 1.415 . S
H384 C381 0.999 . S
H385 C366 0.913 . S
H386 C404 0.951 . S
H387 C406 0.951 . S
H388 C408 0.950 . S
H389 C409 0.950 . S
H390 C411 0.950 . S
H391 C414 0.950 . S
H392 C415 0.950 . S
H393 C417 0.950 . S
H394 C418 0.950 . S
H395 C419 0.951 . S
H396 C421 0.951 . S
H397 C423 0.950 . S
H398 C424 0.950 . S
H399 C426 0.950 . S
H400 C429 0.950 . S
H401 C430 0.950 . S
H402 C432 0.950 . S
H403 C433 0.950 . S
C404 H386 0.951 . S
C404 C405 1.366 . S
C404 C406 1.388 . S
C405 C404 1.366 . S
C405 C409 1.385 . S
C406 H387 0.951 . S
C406 C404 1.388 . S
C406 C407 1.366 . S
C407 C406 1.366 . S
C407 C408 1.414 . S
C407 C410 1.499 . S
C408 H388 0.950 . S
C408 C407 1.414 . S
C408 C409 1.374 . S
C409 H389 0.950 . S
C409 C405 1.385 . S
C409 C408 1.374 . S
C410 C407 1.499 . S
C410 C411 1.373 . S
C410 C412 1.389 . S
C411 H390 0.950 . S
C411 C410 1.373 . S
C411 C427 1.377 . S
C412 C410 1.389 . S
C412 C413 1.524 . S
C412 C426 1.377 . S
C413 C412 1.524 . S
C413 C414 1.397 . S
C413 C418 1.363 . S
C414 H391 0.950 . S
C414 C413 1.397 . S
C414 C415 1.334 . S
C415 H392 0.950 . S
C415 C414 1.334 . S
C415 C416 1.287 . S
C416 C415 1.287 . S
C416 C417 1.524 . S
C416 H435 0.913 . S
C417 H393 0.950 . S
C417 C416 1.524 . S
C417 C418 1.415 . S
C418 H394 0.950 . S
C418 C413 1.363 . S
C418 C417 1.415 . S
C419 H395 0.951 . S
C419 C420 1.366 . S
C419 C421 1.388 . S
C420 C419 1.366 . S
C420 C424 1.385 . S
C421 H396 0.951 . S
C421 C419 1.388 . S
C421 C422 1.366 . S
C422 C421 1.366 . S
C422 C423 1.414 . S
C422 C425 1.499 . S
C423 H397 0.950 . S
C423 C422 1.414 . S
C423 C424 1.374 . S
C424 H398 0.950 . S
C424 C420 1.385 . S
C424 C423 1.374 . S
C425 C422 1.499 . S
C425 C426 1.373 . S
C425 C427 1.389 . S
C426 H399 0.950 . S
C426 C412 1.377 . S
C426 C425 1.373 . S
C427 C411 1.377 . S
C427 C425 1.389 . S
C427 C428 1.524 . S
C428 C427 1.524 . S
C428 C429 1.397 . S
C428 C433 1.363 . S
C429 H400 0.950 . S
C429 C428 1.397 . S
C429 C430 1.334 1_565 S
C430 H401 0.950 . S
C430 C429 1.334 1_545 S
C430 C431 1.287 . S
C431 C430 1.287 . S
C431 C432 1.524 . S
C431 H434 0.999 . S
C432 H402 0.950 . S
C432 C431 1.524 . S
C432 C433 1.415 1_545 S
C433 H403 0.950 . S
C433 C428 1.363 . S
C433 C432 1.415 1_565 S
H434 C431 0.999 . S
H435 C416 0.913 . S
H436 C454 0.951 . S
H437 C456 0.951 . S
H438 C458 0.950 . S
H439 C459 0.950 . S
H440 C461 0.950 . S
H441 C464 0.950 . S
H442 C465 0.950 . S
H443 C467 0.950 . S
H444 C468 0.950 . S
H445 C469 0.951 . S
H446 C471 0.951 . S
H447 C473 0.950 . S
H448 C474 0.950 . S
H449 C476 0.950 . S
H450 C479 0.950 . S
H451 C480 0.950 . S
H452 C482 0.950 . S
H453 C483 0.950 . S
C454 H436 0.951 . S
C454 C455 1.366 . S
C454 C456 1.388 . S
C455 C454 1.366 . S
C455 C459 1.385 . S
C456 H437 0.951 . S
C456 C454 1.388 . S
C456 C457 1.366 . S
C457 C456 1.366 . S
C457 C458 1.414 . S
C457 C460 1.499 . S
C458 H438 0.950 . S
C458 C457 1.414 . S
C458 C459 1.374 . S
C459 H439 0.950 . S
C459 C455 1.385 . S
C459 C458 1.374 . S
C460 C457 1.499 . S
C460 C461 1.373 . S
C460 C462 1.389 . S
C461 H440 0.950 . S
C461 C460 1.373 . S
C461 C477 1.377 . S
C462 C460 1.389 . S
C462 C463 1.524 . S
C462 C476 1.377 . S
C463 C462 1.524 . S
C463 C464 1.397 . S
C463 C468 1.363 . S
C464 H441 0.950 . S
C464 C463 1.397 . S
C464 C465 1.334 . S
C465 H442 0.950 . S
C465 C464 1.334 . S
C465 C466 1.287 . S
C466 C465 1.287 . S
C466 C467 1.524 . S
C466 H485 0.913 . S
C467 H443 0.950 . S
C467 C466 1.524 . S
C467 C468 1.415 . S
C468 H444 0.950 . S
C468 C463 1.363 . S
C468 C467 1.415 . S
C469 H445 0.951 . S
C469 C470 1.366 . S
C469 C471 1.388 . S
C470 C469 1.366 . S
C470 C474 1.385 . S
C471 H446 0.951 . S
C471 C469 1.388 . S
C471 C472 1.366 . S
C472 C471 1.366 . S
C472 C473 1.414 . S
C472 C475 1.499 . S
C473 H447 0.950 . S
C473 C472 1.414 . S
C473 C474 1.374 . S
C474 H448 0.950 . S
C474 C470 1.385 . S
C474 C473 1.374 . S
C475 C472 1.499 . S
C475 C476 1.373 . S
C475 C477 1.389 . S
C476 H449 0.950 . S
C476 C462 1.377 . S
C476 C475 1.373 . S
C477 C461 1.377 . S
C477 C475 1.389 . S
C477 C478 1.524 . S
C478 C477 1.524 . S
C478 C479 1.397 . S
C478 C483 1.363 . S
C479 H450 0.950 . S
C479 C478 1.397 . S
C479 C480 1.334 . S
C480 H451 0.950 . S
C480 C479 1.334 . S
C480 C481 1.287 . S
C481 C480 1.287 . S
C481 C482 1.524 . S
C481 H484 0.999 . S
C482 H452 0.950 . S
C482 C481 1.524 . S
C482 C483 1.415 . S
C483 H453 0.950 . S
C483 C478 1.363 . S
C483 C482 1.415 . S
H484 C481 0.999 . S
H485 C466 0.913 . S
H486 C504 0.951 . S
H487 C506 0.951 . S
H488 C508 0.950 . S
H489 C509 0.950 . S
H490 C511 0.950 . S
H491 C514 0.950 . S
H492 C515 0.950 . S
H493 C517 0.950 . S
H494 C518 0.950 . S
H495 C519 0.951 . S
H496 C521 0.951 . S
H497 C523 0.950 . S
H498 C524 0.950 . S
H499 C526 0.950 . S
H500 C529 0.950 . S
H501 C530 0.950 . S
H502 C532 0.950 . S
H503 C533 0.950 . S
C504 H486 0.951 . S
C504 C505 1.366 . S
C504 C506 1.388 . S
C505 C504 1.366 . S
C505 C509 1.385 . S
C506 H487 0.951 . S
C506 C504 1.388 . S
C506 C507 1.366 . S
C507 C506 1.366 . S
C507 C508 1.414 . S
C507 C510 1.499 . S
C508 H488 0.950 . S
C508 C507 1.414 . S
C508 C509 1.374 . S
C509 H489 0.950 . S
C509 C505 1.385 . S
C509 C508 1.374 . S
C510 C507 1.499 . S
C510 C511 1.373 . S
C510 C512 1.389 . S
C511 H490 0.950 . S
C511 C510 1.373 . S
C511 C527 1.377 . S
C512 C510 1.389 . S
C512 C513 1.524 . S
C512 C526 1.377 . S
C513 C512 1.524 . S
C513 C514 1.397 . S
C513 C518 1.363 . S
C514 H491 0.950 . S
C514 C513 1.397 . S
C514 C515 1.334 . S
C515 H492 0.950 . S
C515 C514 1.334 . S
C515 C516 1.287 . S
C516 C515 1.287 . S
C516 C517 1.524 . S
C516 H535 0.913 . S
C517 H493 0.950 . S
C517 C516 1.524 . S
C517 C518 1.415 . S
C518 H494 0.950 . S
C518 C513 1.363 . S
C518 C517 1.415 . S
C519 H495 0.951 . S
C519 C520 1.366 . S
C519 C521 1.388 . S
C520 C519 1.366 . S
C520 C524 1.385 . S
C521 H496 0.951 . S
C521 C519 1.388 . S
C521 C522 1.366 . S
C522 C521 1.366 . S
C522 C523 1.414 . S
C522 C525 1.499 . S
C523 H497 0.950 . S
C523 C522 1.414 . S
C523 C524 1.374 . S
C524 H498 0.950 . S
C524 C520 1.385 . S
C524 C523 1.374 . S
C525 C522 1.499 . S
C525 C526 1.373 . S
C525 C527 1.389 . S
C526 H499 0.950 . S
C526 C512 1.377 . S
C526 C525 1.373 . S
C527 C511 1.377 . S
C527 C525 1.389 . S
C527 C528 1.524 . S
C528 C527 1.524 . S
C528 C529 1.397 . S
C528 C533 1.363 . S
C529 H500 0.950 . S
C529 C528 1.397 . S
C529 C530 1.334 . S
C530 H501 0.950 . S
C530 C529 1.334 . S
C530 C531 1.287 . S
C531 C530 1.287 . S
C531 C532 1.524 . S
C531 H534 0.999 . S
C532 H502 0.950 . S
C532 C531 1.524 . S
C532 C533 1.415 . S
C533 H503 0.950 . S
C533 C528 1.363 . S
C533 C532 1.415 . S
H534 C531 0.999 . S
H535 C516 0.913 . S
H536 C554 0.951 . S
H537 C556 0.951 . S
H538 C558 0.950 . S
H539 C559 0.950 . S
H540 C561 0.950 . S
H541 C564 0.950 . S
H542 C565 0.950 . S
H543 C567 0.950 . S
H544 C568 0.950 . S
H545 C569 0.951 . S
H546 C571 0.951 . S
H547 C573 0.950 . S
H548 C574 0.950 . S
H549 C576 0.950 . S
H550 C579 0.950 . S
H551 C580 0.950 . S
H552 C582 0.950 . S
H553 C583 0.950 . S
C554 H536 0.951 . S
C554 C555 1.366 . S
C554 C556 1.388 . S
C555 C554 1.366 . S
C555 C559 1.385 . S
C556 H537 0.951 . S
C556 C554 1.388 . S
C556 C557 1.366 . S
C557 C556 1.366 . S
C557 C558 1.414 . S
C557 C560 1.499 . S
C558 H538 0.950 . S
C558 C557 1.414 . S
C558 C559 1.374 . S
C559 H539 0.950 . S
C559 C555 1.385 . S
C559 C558 1.374 . S
C560 C557 1.499 . S
C560 C561 1.373 . S
C560 C562 1.389 . S
C561 H540 0.950 . S
C561 C560 1.373 . S
C561 C577 1.377 . S
C562 C560 1.389 . S
C562 C563 1.524 . S
C562 C576 1.377 . S
C563 C562 1.524 . S
C563 C564 1.397 . S
C563 C568 1.363 . S
C564 H541 0.950 . S
C564 C563 1.397 . S
C564 C565 1.334 . S
C565 H542 0.950 . S
C565 C564 1.334 . S
C565 C566 1.287 . S
C566 C565 1.287 . S
C566 C567 1.524 . S
C566 H585 0.913 . S
C567 H543 0.950 . S
C567 C566 1.524 . S
C567 C568 1.415 . S
C568 H544 0.950 . S
C568 C563 1.363 . S
C568 C567 1.415 . S
C569 H545 0.951 . S
C569 C570 1.366 . S
C569 C571 1.388 . S
C570 C569 1.366 . S
C570 C574 1.385 . S
C571 H546 0.951 . S
C571 C569 1.388 . S
C571 C572 1.366 . S
C572 C571 1.366 . S
C572 C573 1.414 . S
C572 C575 1.499 . S
C573 H547 0.950 . S
C573 C572 1.414 . S
C573 C574 1.374 . S
C574 H548 0.950 . S
C574 C570 1.385 . S
C574 C573 1.374 . S
C575 C572 1.499 . S
C575 C576 1.373 . S
C575 C577 1.389 . S
C576 H549 0.950 . S
C576 C562 1.377 . S
C576 C575 1.373 . S
C577 C561 1.377 . S
C577 C575 1.389 . S
C577 C578 1.524 . S
C578 C577 1.524 . S
C578 C579 1.397 . S
C578 C583 1.363 . S
C579 H550 0.950 . S
C579 C578 1.397 . S
C579 C580 1.334 . S
C580 H551 0.950 . S
C580 C579 1.334 . S
C580 C581 1.287 . S
C581 C580 1.287 . S
C581 C582 1.524 . S
C581 H584 0.999 . S
C582 H552 0.950 . S
C582 C581 1.524 . S
C582 C583 1.415 . S
C583 H553 0.950 . S
C583 C578 1.363 . S
C583 C582 1.415 . S
H584 C581 0.999 . S
H585 C566 0.913 . S
H586 C604 0.951 . S
H587 C606 0.951 . S
H588 C608 0.950 . S
H589 C609 0.950 . S
H590 C611 0.950 . S
H591 C614 0.950 . S
H592 C615 0.950 . S
H593 C617 0.950 . S
H594 C618 0.950 . S
H595 C619 0.951 . S
H596 C621 0.951 . S
H597 C623 0.950 . S
H598 C624 0.950 . S
H599 C626 0.950 . S
H600 C629 0.950 . S
H601 C630 0.950 . S
H602 C632 0.950 . S
H603 C633 0.950 . S
C604 H586 0.951 . S
C604 C605 1.366 . S
C604 C606 1.388 . S
C605 C604 1.366 . S
C605 C609 1.385 . S
C606 H587 0.951 . S
C606 C604 1.388 . S
C606 C607 1.366 . S
C607 C606 1.366 . S
C607 C608 1.414 . S
C607 C610 1.499 . S
C608 H588 0.950 . S
C608 C607 1.414 . S
C608 C609 1.374 . S
C609 H589 0.950 . S
C609 C605 1.385 . S
C609 C608 1.374 . S
C610 C607 1.499 . S
C610 C611 1.373 . S
C610 C612 1.389 . S
C611 H590 0.950 . S
C611 C610 1.373 . S
C611 C627 1.377 . S
C612 C610 1.389 . S
C612 C613 1.524 . S
C612 C626 1.377 . S
C613 C612 1.524 . S
C613 C614 1.397 . S
C613 C618 1.363 . S
C614 H591 0.950 . S
C614 C613 1.397 . S
C614 C615 1.334 . S
C615 H592 0.950 . S
C615 C614 1.334 . S
C615 C616 1.287 . S
C616 C615 1.287 . S
C616 C617 1.524 . S
C616 H635 0.913 . S
C617 H593 0.950 . S
C617 C616 1.524 . S
C617 C618 1.415 . S
C618 H594 0.950 . S
C618 C613 1.363 . S
C618 C617 1.415 . S
C619 H595 0.951 . S
C619 C620 1.366 . S
C619 C621 1.388 . S
C620 C619 1.366 . S
C620 C624 1.385 . S
C621 H596 0.951 . S
C621 C619 1.388 . S
C621 C622 1.366 . S
C622 C621 1.366 . S
C622 C623 1.414 . S
C622 C625 1.499 . S
C623 H597 0.950 . S
C623 C622 1.414 . S
C623 C624 1.374 . S
C624 H598 0.950 . S
C624 C620 1.385 . S
C624 C623 1.374 . S
C625 C622 1.499 . S
C625 C626 1.373 . S
C625 C627 1.389 . S
C626 H599 0.950 . S
C626 C612 1.377 . S
C626 C625 1.373 . S
C627 C611 1.377 . S
C627 C625 1.389 . S
C627 C628 1.524 . S
C628 C627 1.524 . S
C628 C629 1.397 . S
C628 C633 1.363 . S
C629 H600 0.950 . S
C629 C628 1.397 . S
C629 C630 1.334 . S
C630 H601 0.950 . S
C630 C629 1.334 . S
C630 C631 1.287 . S
C631 C630 1.287 . S
C631 C632 1.524 1_565 S
C631 H634 0.999 1_565 S
C632 H602 0.950 . S
C632 C631 1.524 1_545 S
C632 C633 1.415 1_545 S
C633 H603 0.950 . S
C633 C628 1.363 . S
C633 C632 1.415 1_565 S
H634 C631 0.999 1_545 S
H635 C616 0.913 . S
H636 C654 0.951 . S
H637 C656 0.951 . S
H638 C658 0.950 . S
H639 C659 0.950 . S
H640 C661 0.950 . S
H641 C664 0.950 . S
H642 C665 0.950 . S
H643 C667 0.950 . S
H644 C668 0.950 . S
H645 C669 0.951 . S
H646 C671 0.951 . S
H647 C673 0.950 . S
H648 C674 0.950 . S
H649 C676 0.950 . S
H650 C679 0.950 . S
H651 C680 0.950 . S
H652 C682 0.950 . S
H653 C683 0.950 . S
C654 H636 0.951 . S
C654 C655 1.366 . S
C654 C656 1.388 . S
C655 C654 1.366 . S
C655 C659 1.385 . S
C656 H637 0.951 . S
C656 C654 1.388 . S
C656 C657 1.366 . S
C657 C656 1.366 . S
C657 C658 1.414 . S
C657 C660 1.499 . S
C658 H638 0.950 . S
C658 C657 1.414 . S
C658 C659 1.374 . S
C659 H639 0.950 . S
C659 C655 1.385 . S
C659 C658 1.374 . S
C660 C657 1.499 . S
C660 C661 1.373 . S
C660 C662 1.389 . S
C661 H640 0.950 . S
C661 C660 1.373 . S
C661 C677 1.377 . S
C662 C660 1.389 . S
C662 C663 1.524 . S
C662 C676 1.377 . S
C663 C662 1.524 . S
C663 C664 1.397 . S
C663 C668 1.363 . S
C664 H641 0.950 . S
C664 C663 1.397 . S
C664 C665 1.334 . S
C665 H642 0.950 . S
C665 C664 1.334 . S
C665 C666 1.287 . S
C666 C665 1.287 . S
C666 C667 1.524 . S
C666 H685 0.913 . S
C667 H643 0.950 . S
C667 C666 1.524 . S
C667 C668 1.415 . S
C668 H644 0.950 . S
C668 C663 1.363 . S
C668 C667 1.415 . S
C669 H645 0.951 . S
C669 C670 1.366 . S
C669 C671 1.388 . S
C670 C669 1.366 . S
C670 C674 1.385 . S
C671 H646 0.951 . S
C671 C669 1.388 . S
C671 C672 1.366 . S
C672 C671 1.366 . S
C672 C673 1.414 . S
C672 C675 1.499 . S
C673 H647 0.950 . S
C673 C672 1.414 . S
C673 C674 1.374 . S
C674 H648 0.950 . S
C674 C670 1.385 . S
C674 C673 1.374 . S
C675 C672 1.499 . S
C675 C676 1.373 . S
C675 C677 1.389 . S
C676 H649 0.950 . S
C676 C662 1.377 . S
C676 C675 1.373 . S
C677 C661 1.377 . S
C677 C675 1.389 . S
C677 C678 1.524 . S
C678 C677 1.524 . S
C678 C679 1.397 . S
C678 C683 1.363 . S
C679 H650 0.950 . S
C679 C678 1.397 . S
C679 C680 1.334 . S
C680 H651 0.950 . S
C680 C679 1.334 . S
C680 C681 1.287 . S
C681 C680 1.287 . S
C681 C682 1.524 . S
C681 H684 0.999 . S
C682 H652 0.950 . S
C682 C681 1.524 . S
C682 C683 1.415 . S
C683 H653 0.950 . S
C683 C678 1.363 . S
C683 C682 1.415 . S
H684 C681 0.999 . S
H685 C666 0.913 . S
H686 C704 0.951 . S
H687 C706 0.951 . S
H688 C708 0.950 . S
H689 C709 0.950 . S
H690 C711 0.950 . S
H691 C714 0.950 . S
H692 C715 0.950 . S
H693 C717 0.950 . S
H694 C718 0.950 . S
H695 C719 0.951 . S
H696 C721 0.951 . S
H697 C723 0.950 . S
H698 C724 0.950 . S
H699 C726 0.950 . S
H700 C729 0.950 . S
H701 C730 0.950 . S
H702 C732 0.950 . S
H703 C733 0.950 . S
C704 H686 0.951 . S
C704 C705 1.366 . S
C704 C706 1.388 . S
C705 C704 1.366 . S
C705 C709 1.385 . S
C706 H687 0.951 . S
C706 C704 1.388 . S
C706 C707 1.366 . S
C707 C706 1.366 . S
C707 C708 1.414 . S
C707 C710 1.499 . S
C708 H688 0.950 . S
C708 C707 1.414 . S
C708 C709 1.374 . S
C709 H689 0.950 . S
C709 C705 1.385 . S
C709 C708 1.374 . S
C710 C707 1.499 . S
C710 C711 1.373 . S
C710 C712 1.389 . S
C711 H690 0.950 . S
C711 C710 1.373 . S
C711 C727 1.377 . S
C712 C710 1.389 . S
C712 C713 1.524 . S
C712 C726 1.377 . S
C713 C712 1.524 . S
C713 C714 1.397 . S
C713 C718 1.363 . S
C714 H691 0.950 . S
C714 C713 1.397 . S
C714 C715 1.334 . S
C715 H692 0.950 . S
C715 C714 1.334 . S
C715 C716 1.287 . S
C716 C715 1.287 . S
C716 C717 1.524 . S
C716 H735 0.913 . S
C717 H693 0.950 . S
C717 C716 1.524 . S
C717 C718 1.415 . S
C718 H694 0.950 . S
C718 C713 1.363 . S
C718 C717 1.415 . S
C719 H695 0.951 . S
C719 C720 1.366 . S
C719 C721 1.388 . S
C720 C719 1.366 . S
C720 C724 1.385 . S
C721 H696 0.951 . S
C721 C719 1.388 . S
C721 C722 1.366 . S
C722 C721 1.366 . S
C722 C723 1.414 . S
C722 C725 1.499 . S
C723 H697 0.950 . S
C723 C722 1.414 . S
C723 C724 1.374 . S
C724 H698 0.950 . S
C724 C720 1.385 . S
C724 C723 1.374 . S
C725 C722 1.499 . S
C725 C726 1.373 . S
C725 C727 1.389 . S
C726 H699 0.950 . S
C726 C712 1.377 . S
C726 C725 1.373 . S
C727 C711 1.377 . S
C727 C725 1.389 . S
C727 C728 1.524 . S
C728 C727 1.524 . S
C728 C729 1.397 . S
C728 C733 1.363 . S
C729 H700 0.950 . S
C729 C728 1.397 . S
C729 C730 1.334 . S
C730 H701 0.950 . S
C730 C729 1.334 . S
C730 C731 1.287 . S
C731 C730 1.287 . S
C731 C732 1.524 . S
C731 H734 0.999 . S
C732 H702 0.950 . S
C732 C731 1.524 . S
C732 C733 1.415 . S
C733 H703 0.950 . S
C733 C728 1.363 . S
C733 C732 1.415 . S
H734 C731 0.999 . S
H735 C716 0.913 . S
H736 C754 0.951 . S
H737 C756 0.951 . S
H738 C758 0.950 . S
H739 C759 0.950 . S
H740 C761 0.950 . S
H741 C764 0.950 . S
H742 C765 0.950 . S
H743 C767 0.950 . S
H744 C768 0.950 . S
H745 C769 0.951 . S
H746 C771 0.951 . S
H747 C773 0.950 . S
H748 C774 0.950 . S
H749 C776 0.950 . S
H750 C779 0.950 . S
H751 C780 0.950 . S
H752 C782 0.950 . S
H753 C783 0.950 . S
C754 H736 0.951 . S
C754 C755 1.366 . S
C754 C756 1.388 . S
C755 C754 1.366 . S
C755 C759 1.385 . S
C756 H737 0.951 . S
C756 C754 1.388 . S
C756 C757 1.366 . S
C757 C756 1.366 . S
C757 C758 1.414 . S
C757 C760 1.499 . S
C758 H738 0.950 . S
C758 C757 1.414 . S
C758 C759 1.374 . S
C759 H739 0.950 . S
C759 C755 1.385 . S
C759 C758 1.374 . S
C760 C757 1.499 . S
C760 C761 1.373 . S
C760 C762 1.389 . S
C761 H740 0.950 . S
C761 C760 1.373 . S
C761 C777 1.377 . S
C762 C760 1.389 . S
C762 C763 1.524 . S
C762 C776 1.377 . S
C763 C762 1.524 . S
C763 C764 1.397 . S
C763 C768 1.363 . S
C764 H741 0.950 . S
C764 C763 1.397 . S
C764 C765 1.334 . S
C765 H742 0.950 . S
C765 C764 1.334 . S
C765 C766 1.287 . S
C766 C765 1.287 . S
C766 C767 1.524 . S
C766 H785 0.913 . S
C767 H743 0.950 . S
C767 C766 1.524 . S
C767 C768 1.415 . S
C768 H744 0.950 . S
C768 C763 1.363 . S
C768 C767 1.415 . S
C769 H745 0.951 . S
C769 C770 1.366 . S
C769 C771 1.388 . S
C770 C769 1.366 . S
C770 C774 1.385 . S
C771 H746 0.951 . S
C771 C769 1.388 . S
C771 C772 1.366 . S
C772 C771 1.366 . S
C772 C773 1.414 . S
C772 C775 1.499 . S
C773 H747 0.950 . S
C773 C772 1.414 . S
C773 C774 1.374 . S
C774 H748 0.950 . S
C774 C770 1.385 . S
C774 C773 1.374 . S
C775 C772 1.499 . S
C775 C776 1.373 . S
C775 C777 1.389 . S
C776 H749 0.950 . S
C776 C762 1.377 . S
C776 C775 1.373 . S
C777 C761 1.377 . S
C777 C775 1.389 . S
C777 C778 1.524 . S
C778 C777 1.524 . S
C778 C779 1.397 . S
C778 C783 1.363 . S
C779 H750 0.950 . S
C779 C778 1.397 . S
C779 C780 1.334 . S
C780 H751 0.950 . S
C780 C779 1.334 . S
C780 C781 1.287 . S
C781 C780 1.287 . S
C781 C782 1.524 . S
C781 H784 0.999 . S
C782 H752 0.950 . S
C782 C781 1.524 . S
C782 C783 1.415 . S
C783 H753 0.950 . S
C783 C778 1.363 . S
C783 C782 1.415 . S
H784 C781 0.999 . S
H785 C766 0.913 . S
H786 C804 0.951 . S
H787 C806 0.951 . S
H788 C808 0.950 . S
H789 C809 0.950 . S
H790 C811 0.950 . S
H791 C814 0.950 . S
H792 C815 0.950 . S
H793 C817 0.950 . S
H794 C818 0.950 . S
H795 C819 0.951 . S
H796 C821 0.951 . S
H797 C823 0.950 . S
H798 C824 0.950 . S
H799 C826 0.950 . S
H800 C829 0.950 . S
H801 C830 0.950 . S
H802 C832 0.950 . S
H803 C833 0.950 . S
C804 H786 0.951 . S
C804 C805 1.366 . S
C804 C806 1.388 . S
C805 C804 1.366 . S
C805 C809 1.385 . S
C806 H787 0.951 . S
C806 C804 1.388 . S
C806 C807 1.366 . S
C807 C806 1.366 . S
C807 C808 1.414 . S
C807 C810 1.499 . S
C808 H788 0.950 . S
C808 C807 1.414 . S
C808 C809 1.374 . S
C809 H789 0.950 . S
C809 C805 1.385 . S
C809 C808 1.374 . S
C810 C807 1.499 . S
C810 C811 1.373 . S
C810 C812 1.389 . S
C811 H790 0.950 . S
C811 C810 1.373 . S
C811 C827 1.377 . S
C812 C810 1.389 . S
C812 C813 1.524 . S
C812 C826 1.377 . S
C813 C812 1.524 . S
C813 C814 1.397 . S
C813 C818 1.363 . S
C814 H791 0.950 . S
C814 C813 1.397 . S
C814 C815 1.334 . S
C815 H792 0.950 . S
C815 C814 1.334 . S
C815 C816 1.287 . S
C816 C815 1.287 . S
C816 C817 1.524 . S
C816 H835 0.913 . S
C817 H793 0.950 . S
C817 C816 1.524 . S
C817 C818 1.415 . S
C818 H794 0.950 . S
C818 C813 1.363 . S
C818 C817 1.415 . S
C819 H795 0.951 . S
C819 C820 1.366 . S
C819 C821 1.388 . S
C820 C819 1.366 . S
C820 C824 1.385 . S
C821 H796 0.951 . S
C821 C819 1.388 . S
C821 C822 1.366 . S
C822 C821 1.366 . S
C822 C823 1.414 . S
C822 C825 1.499 . S
C823 H797 0.950 . S
C823 C822 1.414 . S
C823 C824 1.374 . S
C824 H798 0.950 . S
C824 C820 1.385 . S
C824 C823 1.374 . S
C825 C822 1.499 . S
C825 C826 1.373 . S
C825 C827 1.389 . S
C826 H799 0.950 . S
C826 C812 1.377 . S
C826 C825 1.373 . S
C827 C811 1.377 . S
C827 C825 1.389 . S
C827 C828 1.524 . S
C828 C827 1.524 . S
C828 C829 1.397 . S
C828 C833 1.363 . S
C829 H800 0.950 . S
C829 C828 1.397 . S
C829 C830 1.334 1_556 S
C830 H801 0.950 . S
C830 C829 1.334 1_554 S
C830 C831 1.286 1_554 S
C831 C830 1.286 1_556 S
C831 C832 1.535 . S
C831 H834 0.988 1_556 S
C832 H802 0.950 . S
C832 C831 1.535 . S
C832 C833 1.415 . S
C833 H803 0.950 . S
C833 C828 1.363 . S
C833 C832 1.415 . S
H834 C831 0.988 1_554 S
H835 C816 0.913 . S
H836 C854 0.951 . S
H837 C856 0.951 . S
H838 C858 0.950 . S
H839 C859 0.950 . S
H840 C861 0.950 . S
H841 C864 0.950 . S
H842 C865 0.950 . S
H843 C867 0.950 . S
H844 C868 0.950 . S
H845 C869 0.951 . S
H846 C871 0.951 . S
H847 C873 0.950 . S
H848 C874 0.950 . S
H849 C876 0.950 . S
H850 C879 0.950 . S
H851 C880 0.950 . S
H852 C882 0.950 . S
H853 C883 0.950 . S
C854 H836 0.951 . S
C854 C855 1.366 . S
C854 C856 1.388 . S
C855 C854 1.366 . S
C855 C859 1.385 . S
C856 H837 0.951 . S
C856 C854 1.388 . S
C856 C857 1.366 . S
C857 C856 1.366 . S
C857 C858 1.414 . S
C857 C860 1.499 . S
C858 H838 0.950 . S
C858 C857 1.414 . S
C858 C859 1.374 . S
C859 H839 0.950 . S
C859 C855 1.385 . S
C859 C858 1.374 . S
C860 C857 1.499 . S
C860 C861 1.373 . S
C860 C862 1.389 . S
C861 H840 0.950 . S
C861 C860 1.373 . S
C861 C877 1.377 . S
C862 C860 1.389 . S
C862 C863 1.524 . S
C862 C876 1.377 . S
C863 C862 1.524 . S
C863 C864 1.397 . S
C863 C868 1.363 . S
C864 H841 0.950 . S
C864 C863 1.397 . S
C864 C865 1.334 . S
C865 H842 0.950 . S
C865 C864 1.334 . S
C865 C866 1.287 . S
C866 C865 1.287 . S
C866 C867 1.524 . S
C866 H885 0.913 . S
C867 H843 0.950 . S
C867 C866 1.524 . S
C867 C868 1.415 . S
C868 H844 0.950 . S
C868 C863 1.363 . S
C868 C867 1.415 . S
C869 H845 0.951 . S
C869 C870 1.366 . S
C869 C871 1.388 . S
C870 C869 1.366 . S
C870 C874 1.385 . S
C871 H846 0.951 . S
C871 C869 1.388 . S
C871 C872 1.366 . S
C872 C871 1.366 . S
C872 C873 1.414 . S
C872 C875 1.499 . S
C873 H847 0.950 . S
C873 C872 1.414 . S
C873 C874 1.374 . S
C874 H848 0.950 . S
C874 C870 1.385 . S
C874 C873 1.374 . S
C875 C872 1.499 . S
C875 C876 1.373 . S
C875 C877 1.389 . S
C876 H849 0.950 . S
C876 C862 1.377 . S
C876 C875 1.373 . S
C877 C861 1.377 . S
C877 C875 1.389 . S
C877 C878 1.524 . S
C878 C877 1.524 . S
C878 C879 1.397 . S
C878 C883 1.363 . S
C879 H850 0.950 . S
C879 C878 1.397 . S
C879 C880 1.334 . S
C880 H851 0.950 . S
C880 C879 1.334 . S
C880 C881 1.287 . S
C881 C880 1.287 . S
C881 C882 1.524 . S
C881 H884 0.999 . S
C882 H852 0.950 . S
C882 C881 1.524 . S
C882 C883 1.415 . S
C883 H853 0.950 . S
C883 C878 1.363 . S
C883 C882 1.415 . S
H884 C881 0.999 . S
H885 C866 0.913 . S
H886 C904 0.951 . S
H887 C906 0.951 . S
H888 C908 0.950 . S
H889 C909 0.950 . S
H890 C911 0.950 . S
H891 C914 0.950 . S
H892 C915 0.950 . S
H893 C917 0.950 . S
H894 C918 0.950 . S
H895 C919 0.951 . S
H896 C921 0.951 . S
H897 C923 0.950 . S
H898 C924 0.950 . S
H899 C926 0.950 . S
H900 C929 0.950 . S
H901 C930 0.950 . S
H902 C932 0.950 . S
H903 C933 0.950 . S
C904 H886 0.951 . S
C904 C905 1.366 . S
C904 C906 1.388 . S
C905 C904 1.366 . S
C905 C909 1.385 . S
C906 H887 0.951 . S
C906 C904 1.388 . S
C906 C907 1.366 . S
C907 C906 1.366 . S
C907 C908 1.414 . S
C907 C910 1.499 . S
C908 H888 0.950 . S
C908 C907 1.414 . S
C908 C909 1.374 . S
C909 H889 0.950 . S
C909 C905 1.385 . S
C909 C908 1.374 . S
C910 C907 1.499 . S
C910 C911 1.373 . S
C910 C912 1.389 . S
C911 H890 0.950 . S
C911 C910 1.373 . S
C911 C927 1.377 . S
C912 C910 1.389 . S
C912 C913 1.524 . S
C912 C926 1.377 . S
C913 C912 1.524 . S
C913 C914 1.397 . S
C913 C918 1.363 . S
C914 H891 0.950 . S
C914 C913 1.397 . S
C914 C915 1.334 . S
C915 H892 0.950 . S
C915 C914 1.334 . S
C915 C916 1.287 . S
C916 C915 1.287 . S
C916 C917 1.524 . S
C916 H935 0.913 . S
C917 H893 0.950 . S
C917 C916 1.524 . S
C917 C918 1.415 . S
C918 H894 0.950 . S
C918 C913 1.363 . S
C918 C917 1.415 . S
C919 H895 0.951 . S
C919 C920 1.366 . S
C919 C921 1.388 . S
C920 C919 1.366 . S
C920 C924 1.385 . S
C921 H896 0.951 . S
C921 C919 1.388 . S
C921 C922 1.366 . S
C922 C921 1.366 . S
C922 C923 1.414 . S
C922 C925 1.499 . S
C923 H897 0.950 . S
C923 C922 1.414 . S
C923 C924 1.374 . S
C924 H898 0.950 . S
C924 C920 1.385 . S
C924 C923 1.374 . S
C925 C922 1.499 . S
C925 C926 1.373 . S
C925 C927 1.389 . S
C926 H899 0.950 . S
C926 C912 1.377 . S
C926 C925 1.373 . S
C927 C911 1.377 . S
C927 C925 1.389 . S
C927 C928 1.524 . S
C928 C927 1.524 . S
C928 C929 1.397 . S
C928 C933 1.363 . S
C929 H900 0.950 . S
C929 C928 1.397 . S
C929 C930 1.334 . S
C930 H901 0.950 . S
C930 C929 1.334 . S
C930 C931 1.287 . S
C931 C930 1.287 . S
C931 C932 1.524 . S
C931 H934 0.999 . S
C932 H902 0.950 . S
C932 C931 1.524 . S
C932 C933 1.415 . S
C933 H903 0.950 . S
C933 C928 1.363 . S
C933 C932 1.415 . S
H934 C931 0.999 . S
H935 C916 0.913 . S
H936 C954 0.951 . S
H937 C956 0.951 . S
H938 C958 0.950 . S
H939 C959 0.950 . S
H940 C961 0.950 . S
H941 C964 0.950 . S
H942 C965 0.950 . S
H943 C967 0.950 . S
H944 C968 0.950 . S
H945 C969 0.951 . S
H946 C971 0.951 . S
H947 C973 0.950 . S
H948 C974 0.950 . S
H949 C976 0.950 . S
H950 C979 0.950 . S
H951 C980 0.950 . S
H952 C982 0.950 . S
H953 C983 0.950 . S
C954 H936 0.951 . S
C954 C955 1.366 . S
C954 C956 1.388 . S
C955 C954 1.366 . S
C955 C959 1.385 . S
C956 H937 0.951 . S
C956 C954 1.388 . S
C956 C957 1.366 . S
C957 C956 1.366 . S
C957 C958 1.414 . S
C957 C960 1.499 . S
C958 H938 0.950 . S
C958 C957 1.414 . S
C958 C959 1.374 . S
C959 H939 0.950 . S
C959 C955 1.385 . S
C959 C958 1.374 . S
C960 C957 1.499 . S
C960 C961 1.373 . S
C960 C962 1.389 . S
C961 H940 0.950 . S
C961 C960 1.373 . S
C961 C977 1.377 . S
C962 C960 1.389 . S
C962 C963 1.524 . S
C962 C976 1.377 . S
C963 C962 1.524 . S
C963 C964 1.397 . S
C963 C968 1.363 . S
C964 H941 0.950 . S
C964 C963 1.397 . S
C964 C965 1.334 . S
C965 H942 0.950 . S
C965 C964 1.334 . S
C965 C966 1.287 . S
C966 C965 1.287 . S
C966 C967 1.524 . S
C966 H985 0.913 . S
C967 H943 0.950 . S
C967 C966 1.524 . S
C967 C968 1.415 . S
C968 H944 0.950 . S
C968 C963 1.363 . S
C968 C967 1.415 . S
C969 H945 0.951 . S
C969 C970 1.366 . S
C969 C971 1.388 . S
C970 C969 1.366 . S
C970 C974 1.385 . S
C971 H946 0.951 . S
C971 C969 1.388 . S
C971 C972 1.366 . S
C972 C971 1.366 . S
C972 C973 1.414 . S
C972 C975 1.499 . S
C973 H947 0.950 . S
C973 C972 1.414 . S
C973 C974 1.374 . S
C974 H948 0.950 . S
C974 C970 1.385 . S
C974 C973 1.374 . S
C975 C972 1.499 . S
C975 C976 1.373 . S
C975 C977 1.389 . S
C976 H949 0.950 . S
C976 C962 1.377 . S
C976 C975 1.373 . S
C977 C961 1.377 . S
C977 C975 1.389 . S
C977 C978 1.524 . S
C978 C977 1.524 . S
C978 C979 1.397 . S
C978 C983 1.363 . S
C979 H950 0.950 . S
C979 C978 1.397 . S
C979 C980 1.334 1_565 S
C980 H951 0.950 . S
C980 C979 1.334 1_545 S
C980 C981 1.287 . S
C981 C980 1.287 . S
C981 C982 1.524 . S
C981 H984 0.999 . S
C982 H952 0.950 . S
C982 C981 1.524 . S
C982 C983 1.415 1_545 S
C983 H953 0.950 . S
C983 C978 1.363 . S
C983 C982 1.415 1_565 S
H984 C981 0.999 . S
H985 C966 0.913 . S
H986 C1004 0.951 . S
H987 C1006 0.951 . S
H988 C1008 0.950 . S
H989 C1009 0.950 . S
H990 C1011 0.950 . S
H991 C1014 0.950 . S
H992 C1015 0.950 . S
H993 C1017 0.950 . S
H994 C1018 0.950 . S
H995 C1019 0.951 . S
H996 C1021 0.951 . S
H997 C1023 0.950 . S
H998 C1024 0.950 . S
H999 C1026 0.950 . S
H1000 C1029 0.950 . S
H1001 C1030 0.950 . S
H1002 C1032 0.950 . S
H1003 C1033 0.950 . S
C1004 H986 0.951 . S
C1004 C1005 1.366 . S
C1004 C1006 1.388 . S
C1005 C1004 1.366 . S
C1005 C1009 1.385 . S
C1006 H987 0.951 . S
C1006 C1004 1.388 . S
C1006 C1007 1.366 . S
C1007 C1006 1.366 . S
C1007 C1008 1.414 . S
C1007 C1010 1.499 . S
C1008 H988 0.950 . S
C1008 C1007 1.414 . S
C1008 C1009 1.374 . S
C1009 H989 0.950 . S
C1009 C1005 1.385 . S
C1009 C1008 1.374 . S
C1010 C1007 1.499 . S
C1010 C1011 1.373 . S
C1010 C1012 1.389 . S
C1011 H990 0.950 . S
C1011 C1010 1.373 . S
C1011 C1027 1.377 . S
C1012 C1010 1.389 . S
C1012 C1013 1.524 . S
C1012 C1026 1.377 . S
C1013 C1012 1.524 . S
C1013 C1014 1.397 . S
C1013 C1018 1.363 . S
C1014 H991 0.950 . S
C1014 C1013 1.397 . S
C1014 C1015 1.334 . S
C1015 H992 0.950 . S
C1015 C1014 1.334 . S
C1015 C1016 1.287 . S
C1016 C1015 1.287 . S
C1016 C1017 1.524 . S
C1016 H1035 0.913 . S
C1017 H993 0.950 . S
C1017 C1016 1.524 . S
C1017 C1018 1.415 . S
C1018 H994 0.950 . S
C1018 C1013 1.363 . S
C1018 C1017 1.415 . S
C1019 H995 0.951 . S
C1019 C1020 1.366 . S
C1019 C1021 1.388 . S
C1020 C1019 1.366 . S
C1020 C1024 1.385 . S
C1021 H996 0.951 . S
C1021 C1019 1.388 . S
C1021 C1022 1.366 . S
C1022 C1021 1.366 . S
C1022 C1023 1.414 . S
C1022 C1025 1.499 . S
C1023 H997 0.950 . S
C1023 C1022 1.414 . S
C1023 C1024 1.374 . S
C1024 H998 0.950 . S
C1024 C1020 1.385 . S
C1024 C1023 1.374 . S
C1025 C1022 1.499 . S
C1025 C1026 1.373 . S
C1025 C1027 1.389 . S
C1026 H999 0.950 . S
C1026 C1012 1.377 . S
C1026 C1025 1.373 . S
C1027 C1011 1.377 . S
C1027 C1025 1.389 . S
C1027 C1028 1.524 . S
C1028 C1027 1.524 . S
C1028 C1029 1.397 . S
C1028 C1033 1.363 . S
C1029 H1000 0.950 . S
C1029 C1028 1.397 . S
C1029 C1030 1.334 1_545 S
C1030 H1001 0.950 . S
C1030 C1029 1.334 1_565 S
C1030 C1031 1.286 . S
C1031 C1030 1.286 . S
C1031 C1032 1.528 1_565 S
C1031 H1034 0.996 . S
C1032 H1002 0.950 . S
C1032 C1031 1.528 1_545 S
C1032 C1033 1.415 . S
C1033 H1003 0.950 . S
C1033 C1028 1.363 . S
C1033 C1032 1.415 . S
H1034 C1031 0.996 . S
H1035 C1016 0.913 . S
H1036 C1054 0.951 . S
H1037 C1056 0.951 . S
H1038 C1058 0.950 . S
H1039 C1059 0.950 . S
H1040 C1061 0.950 . S
H1041 C1064 0.950 . S
H1042 C1065 0.950 . S
H1043 C1067 0.950 . S
H1044 C1068 0.950 . S
H1045 C1069 0.951 . S
H1046 C1071 0.951 . S
H1047 C1073 0.950 . S
H1048 C1074 0.950 . S
H1049 C1076 0.950 . S
H1050 C1079 0.950 . S
H1051 C1080 0.950 . S
H1052 C1082 0.950 . S
H1053 C1083 0.950 . S
C1054 H1036 0.951 . S
C1054 C1055 1.366 . S
C1054 C1056 1.388 . S
C1055 C1054 1.366 . S
C1055 C1059 1.385 . S
C1056 H1037 0.951 . S
C1056 C1054 1.388 . S
C1056 C1057 1.366 . S
C1057 C1056 1.366 . S
C1057 C1058 1.414 . S
C1057 C1060 1.499 . S
C1058 H1038 0.950 . S
C1058 C1057 1.414 . S
C1058 C1059 1.374 . S
C1059 H1039 0.950 . S
C1059 C1055 1.385 . S
C1059 C1058 1.374 . S
C1060 C1057 1.499 . S
C1060 C1061 1.373 . S
C1060 C1062 1.389 . S
C1061 H1040 0.950 . S
C1061 C1060 1.373 . S
C1061 C1077 1.377 . S
C1062 C1060 1.389 . S
C1062 C1063 1.524 . S
C1062 C1076 1.377 . S
C1063 C1062 1.524 . S
C1063 C1064 1.397 . S
C1063 C1068 1.363 . S
C1064 H1041 0.950 . S
C1064 C1063 1.397 . S
C1064 C1065 1.334 . S
C1065 H1042 0.950 . S
C1065 C1064 1.334 . S
C1065 C1066 1.287 . S
C1066 C1065 1.287 . S
C1066 C1067 1.524 . S
C1066 H1085 0.913 . S
C1067 H1043 0.950 . S
C1067 C1066 1.524 . S
C1067 C1068 1.415 . S
C1068 H1044 0.950 . S
C1068 C1063 1.363 . S
C1068 C1067 1.415 . S
C1069 H1045 0.951 . S
C1069 C1070 1.366 . S
C1069 C1071 1.388 . S
C1070 C1069 1.366 . S
C1070 C1074 1.385 . S
C1071 H1046 0.951 . S
C1071 C1069 1.388 . S
C1071 C1072 1.366 . S
C1072 C1071 1.366 . S
C1072 C1073 1.414 . S
C1072 C1075 1.499 . S
C1073 H1047 0.950 . S
C1073 C1072 1.414 . S
C1073 C1074 1.374 . S
C1074 H1048 0.950 . S
C1074 C1070 1.385 . S
C1074 C1073 1.374 . S
C1075 C1072 1.499 . S
C1075 C1076 1.373 . S
C1075 C1077 1.389 . S
C1076 H1049 0.950 . S
C1076 C1062 1.377 . S
C1076 C1075 1.373 . S
C1077 C1061 1.377 . S
C1077 C1075 1.389 . S
C1077 C1078 1.524 . S
C1078 C1077 1.524 . S
C1078 C1079 1.397 . S
C1078 C1083 1.363 . S
C1079 H1050 0.950 . S
C1079 C1078 1.397 . S
C1079 C1080 1.334 . S
C1080 H1051 0.950 . S
C1080 C1079 1.334 . S
C1080 C1081 1.287 . S
C1081 C1080 1.287 . S
C1081 C1082 1.524 . S
C1081 H1084 0.999 . S
C1082 H1052 0.950 . S
C1082 C1081 1.524 . S
C1082 C1083 1.415 . S
C1083 H1053 0.950 . S
C1083 C1078 1.363 . S
C1083 C1082 1.415 . S
H1084 C1081 0.999 . S
H1085 C1066 0.913 . S
H1086 C1104 0.951 . S
H1087 C1106 0.951 . S
H1088 C1108 0.950 . S
H1089 C1109 0.950 . S
H1090 C1111 0.950 . S
H1091 C1114 0.950 . S
H1092 C1115 0.950 . S
H1093 C1117 0.950 . S
H1094 C1118 0.950 . S
H1095 C1119 0.951 . S
H1096 C1121 0.951 . S
H1097 C1123 0.950 . S
H1098 C1124 0.950 . S
H1099 C1126 0.950 . S
H1100 C1129 0.950 . S
H1101 C1130 0.950 . S
H1102 C1132 0.950 . S
H1103 C1133 0.950 . S
C1104 H1086 0.951 . S
C1104 C1105 1.366 . S
C1104 C1106 1.388 . S
C1105 C1104 1.366 . S
C1105 C1109 1.385 . S
C1106 H1087 0.951 . S
C1106 C1104 1.388 . S
C1106 C1107 1.366 . S
C1107 C1106 1.366 . S
C1107 C1108 1.414 . S
C1107 C1110 1.499 . S
C1108 H1088 0.950 . S
C1108 C1107 1.414 . S
C1108 C1109 1.374 . S
C1109 H1089 0.950 . S
C1109 C1105 1.385 . S
C1109 C1108 1.374 . S
C1110 C1107 1.499 . S
C1110 C1111 1.373 . S
C1110 C1112 1.389 . S
C1111 H1090 0.950 . S
C1111 C1110 1.373 . S
C1111 C1127 1.377 . S
C1112 C1110 1.389 . S
C1112 C1113 1.524 . S
C1112 C1126 1.377 . S
C1113 C1112 1.524 . S
C1113 C1114 1.397 . S
C1113 C1118 1.363 . S
C1114 H1091 0.950 . S
C1114 C1113 1.397 . S
C1114 C1115 1.334 . S
C1115 H1092 0.950 . S
C1115 C1114 1.334 . S
C1115 C1116 1.287 . S
C1116 C1115 1.287 . S
C1116 C1117 1.524 . S
C1116 H1135 0.913 . S
C1117 H1093 0.950 . S
C1117 C1116 1.524 . S
C1117 C1118 1.415 . S
C1118 H1094 0.950 . S
C1118 C1113 1.363 . S
C1118 C1117 1.415 . S
C1119 H1095 0.951 . S
C1119 C1120 1.366 . S
C1119 C1121 1.388 . S
C1120 C1119 1.366 . S
C1120 C1124 1.385 . S
C1121 H1096 0.951 . S
C1121 C1119 1.388 . S
C1121 C1122 1.366 . S
C1122 C1121 1.366 . S
C1122 C1123 1.414 . S
C1122 C1125 1.499 . S
C1123 H1097 0.950 . S
C1123 C1122 1.414 . S
C1123 C1124 1.374 . S
C1124 H1098 0.950 . S
C1124 C1120 1.385 . S
C1124 C1123 1.374 . S
C1125 C1122 1.499 . S
C1125 C1126 1.373 . S
C1125 C1127 1.389 . S
C1126 H1099 0.950 . S
C1126 C1112 1.377 . S
C1126 C1125 1.373 . S
C1127 C1111 1.377 . S
C1127 C1125 1.389 . S
C1127 C1128 1.524 . S
C1128 C1127 1.524 . S
C1128 C1129 1.397 . S
C1128 C1133 1.363 . S
C1129 H1100 0.950 . S
C1129 C1128 1.397 . S
C1129 C1130 1.334 . S
C1130 H1101 0.950 . S
C1130 C1129 1.334 . S
C1130 C1131 1.287 . S
C1131 C1130 1.287 . S
C1131 C1132 1.524 . S
C1131 H1134 0.999 . S
C1132 H1102 0.950 . S
C1132 C1131 1.524 . S
C1132 C1133 1.415 . S
C1133 H1103 0.950 . S
C1133 C1128 1.363 . S
C1133 C1132 1.415 . S
H1134 C1131 0.999 . S
H1135 C1116 0.913 . S
H1136 C1154 0.951 . S
H1137 C1156 0.951 . S
H1138 C1158 0.950 . S
H1139 C1159 0.950 . S
H1140 C1161 0.950 . S
H1141 C1164 0.950 . S
H1142 C1165 0.950 . S
H1143 C1167 0.950 . S
H1144 C1168 0.950 . S
H1145 C1169 0.951 . S
H1146 C1171 0.951 . S
H1147 C1173 0.950 . S
H1148 C1174 0.950 . S
H1149 C1176 0.950 . S
H1150 C1179 0.950 . S
H1151 C1180 0.950 . S
H1152 C1182 0.950 . S
H1153 C1183 0.950 . S
C1154 H1136 0.951 . S
C1154 C1155 1.366 . S
C1154 C1156 1.388 . S
C1155 C1154 1.366 . S
C1155 C1159 1.385 . S
C1156 H1137 0.951 . S
C1156 C1154 1.388 . S
C1156 C1157 1.366 . S
C1157 C1156 1.366 . S
C1157 C1158 1.414 . S
C1157 C1160 1.499 . S
C1158 H1138 0.950 . S
C1158 C1157 1.414 . S
C1158 C1159 1.374 . S
C1159 H1139 0.950 . S
C1159 C1155 1.385 . S
C1159 C1158 1.374 . S
C1160 C1157 1.499 . S
C1160 C1161 1.373 . S
C1160 C1162 1.389 . S
C1161 H1140 0.950 . S
C1161 C1160 1.373 . S
C1161 C1177 1.377 . S
C1162 C1160 1.389 . S
C1162 C1163 1.524 . S
C1162 C1176 1.377 . S
C1163 C1162 1.524 . S
C1163 C1164 1.397 . S
C1163 C1168 1.363 . S
C1164 H1141 0.950 . S
C1164 C1163 1.397 . S
C1164 C1165 1.334 . S
C1165 H1142 0.950 . S
C1165 C1164 1.334 . S
C1165 C1166 1.287 . S
C1166 C1165 1.287 . S
C1166 C1167 1.524 . S
C1166 H1185 0.913 . S
C1167 H1143 0.950 . S
C1167 C1166 1.524 . S
C1167 C1168 1.415 . S
C1168 H1144 0.950 . S
C1168 C1163 1.363 . S
C1168 C1167 1.415 . S
C1169 H1145 0.951 . S
C1169 C1170 1.366 . S
C1169 C1171 1.388 . S
C1170 C1169 1.366 . S
C1170 C1174 1.385 . S
C1171 H1146 0.951 . S
C1171 C1169 1.388 . S
C1171 C1172 1.366 . S
C1172 C1171 1.366 . S
C1172 C1173 1.414 . S
C1172 C1175 1.499 . S
C1173 H1147 0.950 . S
C1173 C1172 1.414 . S
C1173 C1174 1.374 . S
C1174 H1148 0.950 . S
C1174 C1170 1.385 . S
C1174 C1173 1.374 . S
C1175 C1172 1.499 . S
C1175 C1176 1.373 . S
C1175 C1177 1.389 . S
C1176 H1149 0.950 . S
C1176 C1162 1.377 . S
C1176 C1175 1.373 . S
C1177 C1161 1.377 . S
C1177 C1175 1.389 . S
C1177 C1178 1.524 . S
C1178 C1177 1.524 . S
C1178 C1179 1.397 . S
C1178 C1183 1.363 . S
C1179 H1150 0.950 . S
C1179 C1178 1.397 . S
C1179 C1180 1.334 . S
C1180 H1151 0.950 . S
C1180 C1179 1.334 . S
C1180 C1181 1.287 . S
C1181 C1180 1.287 . S
C1181 C1182 1.524 . S
C1181 H1184 0.999 . S
C1182 H1152 0.950 . S
C1182 C1181 1.524 . S
C1182 C1183 1.415 . S
C1183 H1153 0.950 . S
C1183 C1178 1.363 . S
C1183 C1182 1.415 . S
H1184 C1181 0.999 . S
H1185 C1166 0.913 . S
H1186 C1204 0.951 . S
H1187 C1206 0.951 . S
H1188 C1208 0.950 . S
H1189 C1209 0.950 . S
H1190 C1211 0.950 . S
H1191 C1214 0.950 . S
H1192 C1215 0.950 . S
H1193 C1217 0.950 . S
H1194 C1218 0.950 . S
H1195 C1219 0.951 . S
H1196 C1221 0.951 . S
H1197 C1223 0.950 . S
H1198 C1224 0.950 . S
H1199 C1226 0.950 . S
H1200 C1229 0.950 . S
H1201 C1230 0.950 . S
H1202 C1232 0.950 . S
H1203 C1233 0.950 . S
C1204 H1186 0.951 . S
C1204 C1205 1.366 . S
C1204 C1206 1.388 . S
C1205 C1204 1.366 . S
C1205 C1209 1.385 . S
C1206 H1187 0.951 . S
C1206 C1204 1.388 . S
C1206 C1207 1.366 . S
C1207 C1206 1.366 . S
C1207 C1208 1.414 . S
C1207 C1210 1.499 . S
C1208 H1188 0.950 . S
C1208 C1207 1.414 . S
C1208 C1209 1.374 . S
C1209 H1189 0.950 . S
C1209 C1205 1.385 . S
C1209 C1208 1.374 . S
C1210 C1207 1.499 . S
C1210 C1211 1.373 . S
C1210 C1212 1.389 . S
C1211 H1190 0.950 . S
C1211 C1210 1.373 . S
C1211 C1227 1.377 . S
C1212 C1210 1.389 . S
C1212 C1213 1.524 . S
C1212 C1226 1.377 . S
C1213 C1212 1.524 . S
C1213 C1214 1.397 . S
C1213 C1218 1.363 . S
C1214 H1191 0.950 . S
C1214 C1213 1.397 . S
C1214 C1215 1.334 . S
C1215 H1192 0.950 . S
C1215 C1214 1.334 . S
C1215 C1216 1.287 . S
C1216 C1215 1.287 . S
C1216 C1217 1.524 . S
C1216 H1235 0.913 . S
C1217 H1193 0.950 . S
C1217 C1216 1.524 . S
C1217 C1218 1.415 . S
C1218 H1194 0.950 . S
C1218 C1213 1.363 . S
C1218 C1217 1.415 . S
C1219 H1195 0.951 . S
C1219 C1220 1.366 . S
C1219 C1221 1.388 . S
C1220 C1219 1.366 . S
C1220 C1224 1.385 . S
C1221 H1196 0.951 . S
C1221 C1219 1.388 . S
C1221 C1222 1.366 . S
C1222 C1221 1.366 . S
C1222 C1223 1.414 . S
C1222 C1225 1.499 . S
C1223 H1197 0.950 . S
C1223 C1222 1.414 . S
C1223 C1224 1.374 . S
C1224 H1198 0.950 . S
C1224 C1220 1.385 . S
C1224 C1223 1.374 . S
C1225 C1222 1.499 . S
C1225 C1226 1.373 . S
C1225 C1227 1.389 . S
C1226 H1199 0.950 . S
C1226 C1212 1.377 . S
C1226 C1225 1.373 . S
C1227 C1211 1.377 . S
C1227 C1225 1.389 . S
C1227 C1228 1.524 . S
C1228 C1227 1.524 . S
C1228 C1229 1.397 . S
C1228 C1233 1.363 . S
C1229 H1200 0.950 . S
C1229 C1228 1.397 . S
C1229 C1230 1.334 . S
C1230 H1201 0.950 . S
C1230 C1229 1.334 . S
C1230 C1231 1.287 . S
C1231 C1230 1.287 . S
C1231 C1232 1.524 . S
C1231 H1234 0.999 . S
C1232 H1202 0.950 . S
C1232 C1231 1.524 . S
C1232 C1233 1.415 . S
C1233 H1203 0.950 . S
C1233 C1228 1.363 . S
C1233 C1232 1.415 . S
H1234 C1231 0.999 . S
H1235 C1216 0.913 . S
H1236 C1254 0.951 . S
H1237 C1256 0.951 . S
H1238 C1258 0.950 . S
H1239 C1259 0.950 . S
H1240 C1261 0.950 . S
H1241 C1264 0.950 . S
H1242 C1265 0.950 . S
H1243 C1267 0.950 . S
H1244 C1268 0.950 . S
H1245 C1269 0.951 . S
H1246 C1271 0.951 . S
H1247 C1273 0.950 . S
H1248 C1274 0.950 . S
H1249 C1276 0.950 . S
H1250 C1279 0.950 . S
H1251 C1280 0.950 . S
H1252 C1282 0.950 . S
H1253 C1283 0.950 . S
C1254 H1236 0.951 . S
C1254 C1255 1.366 . S
C1254 C1256 1.388 . S
C1255 C1254 1.366 . S
C1255 C1259 1.385 . S
C1256 H1237 0.951 . S
C1256 C1254 1.388 . S
C1256 C1257 1.366 . S
C1257 C1256 1.366 . S
C1257 C1258 1.414 . S
C1257 C1260 1.499 . S
C1258 H1238 0.950 . S
C1258 C1257 1.414 . S
C1258 C1259 1.374 . S
C1259 H1239 0.950 . S
C1259 C1255 1.385 . S
C1259 C1258 1.374 . S
C1260 C1257 1.499 . S
C1260 C1261 1.373 . S
C1260 C1262 1.389 . S
C1261 H1240 0.950 . S
C1261 C1260 1.373 . S
C1261 C1277 1.377 . S
C1262 C1260 1.389 . S
C1262 C1263 1.524 . S
C1262 C1276 1.377 . S
C1263 C1262 1.524 . S
C1263 C1264 1.397 . S
C1263 C1268 1.363 . S
C1264 H1241 0.950 . S
C1264 C1263 1.397 . S
C1264 C1265 1.334 . S
C1265 H1242 0.950 . S
C1265 C1264 1.334 . S
C1265 C1266 1.287 . S
C1266 C1265 1.287 . S
C1266 C1267 1.524 . S
C1266 H1285 0.913 . S
C1267 H1243 0.950 . S
C1267 C1266 1.524 . S
C1267 C1268 1.415 . S
C1268 H1244 0.950 . S
C1268 C1263 1.363 . S
C1268 C1267 1.415 . S
C1269 H1245 0.951 . S
C1269 C1270 1.366 . S
C1269 C1271 1.388 . S
C1270 C1269 1.366 . S
C1270 C1274 1.385 . S
C1271 H1246 0.951 . S
C1271 C1269 1.388 . S
C1271 C1272 1.366 . S
C1272 C1271 1.366 . S
C1272 C1273 1.414 . S
C1272 C1275 1.499 . S
C1273 H1247 0.950 . S
C1273 C1272 1.414 . S
C1273 C1274 1.374 . S
C1274 H1248 0.950 . S
C1274 C1270 1.385 . S
C1274 C1273 1.374 . S
C1275 C1272 1.499 . S
C1275 C1276 1.373 . S
C1275 C1277 1.389 . S
C1276 H1249 0.950 . S
C1276 C1262 1.377 . S
C1276 C1275 1.373 . S
C1277 C1261 1.377 . S
C1277 C1275 1.389 . S
C1277 C1278 1.524 . S
C1278 C1277 1.524 . S
C1278 C1279 1.397 . S
C1278 C1283 1.363 . S
C1279 H1250 0.950 . S
C1279 C1278 1.397 . S
C1279 C1280 1.334 . S
C1280 H1251 0.950 . S
C1280 C1279 1.334 . S
C1280 C1281 1.287 . S
C1281 C1280 1.287 . S
C1281 C1282 1.524 . S
C1281 H1284 0.999 . S
C1282 H1252 0.950 . S
C1282 C1281 1.524 . S
C1282 C1283 1.415 . S
C1283 H1253 0.950 . S
C1283 C1278 1.363 . S
C1283 C1282 1.415 . S
H1284 C1281 0.999 . S
H1285 C1266 0.913 . S
H1286 C1304 0.951 . S
H1287 C1306 0.951 . S
H1288 C1308 0.950 . S
H1289 C1309 0.950 . S
H1290 C1311 0.950 . S
H1291 C1314 0.950 . S
H1292 C1315 0.950 . S
H1293 C1317 0.950 . S
H1294 C1318 0.950 . S
H1295 C1319 0.951 . S
H1296 C1321 0.951 . S
H1297 C1323 0.950 . S
H1298 C1324 0.950 . S
H1299 C1326 0.950 . S
H1300 C1329 0.950 . S
H1301 C1330 0.950 . S
H1302 C1332 0.950 . S
H1303 C1333 0.950 . S
C1304 H1286 0.951 . S
C1304 C1305 1.366 . S
C1304 C1306 1.388 . S
C1305 C1304 1.366 . S
C1305 C1309 1.385 . S
C1306 H1287 0.951 . S
C1306 C1304 1.388 . S
C1306 C1307 1.366 . S
C1307 C1306 1.366 . S
C1307 C1308 1.414 . S
C1307 C1310 1.499 . S
C1308 H1288 0.950 . S
C1308 C1307 1.414 . S
C1308 C1309 1.374 . S
C1309 H1289 0.950 . S
C1309 C1305 1.385 . S
C1309 C1308 1.374 . S
C1310 C1307 1.499 . S
C1310 C1311 1.373 . S
C1310 C1312 1.389 . S
C1311 H1290 0.950 . S
C1311 C1310 1.373 . S
C1311 C1327 1.377 . S
C1312 C1310 1.389 . S
C1312 C1313 1.524 . S
C1312 C1326 1.377 . S
C1313 C1312 1.524 . S
C1313 C1314 1.397 . S
C1313 C1318 1.363 . S
C1314 H1291 0.950 . S
C1314 C1313 1.397 . S
C1314 C1315 1.334 . S
C1315 H1292 0.950 . S
C1315 C1314 1.334 . S
C1315 C1316 1.287 . S
C1316 C1315 1.287 . S
C1316 C1317 1.524 . S
C1316 H1335 0.913 . S
C1317 H1293 0.950 . S
C1317 C1316 1.524 . S
C1317 C1318 1.415 . S
C1318 H1294 0.950 . S
C1318 C1313 1.363 . S
C1318 C1317 1.415 . S
C1319 H1295 0.951 . S
C1319 C1320 1.366 . S
C1319 C1321 1.388 . S
C1320 C1319 1.366 . S
C1320 C1324 1.385 . S
C1321 H1296 0.951 . S
C1321 C1319 1.388 . S
C1321 C1322 1.366 . S
C1322 C1321 1.366 . S
C1322 C1323 1.414 . S
C1322 C1325 1.499 . S
C1323 H1297 0.950 . S
C1323 C1322 1.414 . S
C1323 C1324 1.374 . S
C1324 H1298 0.950 . S
C1324 C1320 1.385 . S
C1324 C1323 1.374 . S
C1325 C1322 1.499 . S
C1325 C1326 1.373 . S
C1325 C1327 1.389 . S
C1326 H1299 0.950 . S
C1326 C1312 1.377 . S
C1326 C1325 1.373 . S
C1327 C1311 1.377 . S
C1327 C1325 1.389 . S
C1327 C1328 1.524 . S
C1328 C1327 1.524 . S
C1328 C1329 1.397 . S
C1328 C1333 1.363 . S
C1329 H1300 0.950 . S
C1329 C1328 1.397 . S
C1329 C1330 1.334 . S
C1330 H1301 0.950 . S
C1330 C1329 1.334 . S
C1330 C1331 1.287 . S
C1331 C1330 1.287 . S
C1331 C1332 1.524 . S
C1331 H1334 0.999 . S
C1332 H1302 0.950 . S
C1332 C1331 1.524 . S
C1332 C1333 1.415 . S
C1333 H1303 0.950 . S
C1333 C1328 1.363 . S
C1333 C1332 1.415 . S
H1334 C1331 0.999 . S
H1335 C1316 0.913 . S
H1336 C1354 0.951 . S
H1337 C1356 0.951 . S
H1338 C1358 0.950 . S
H1339 C1359 0.950 . S
H1340 C1361 0.950 . S
H1341 C1364 0.950 . S
H1342 C1365 0.950 . S
H1343 C1367 0.950 . S
H1344 C1368 0.950 . S
H1345 C1369 0.951 . S
H1346 C1371 0.951 . S
H1347 C1373 0.950 . S
H1348 C1374 0.950 . S
H1349 C1376 0.950 . S
H1350 C1379 0.950 . S
H1351 C1380 0.950 . S
H1352 C1382 0.950 . S
H1353 C1383 0.950 . S
C1354 H1336 0.951 . S
C1354 C1355 1.366 . S
C1354 C1356 1.388 . S
C1355 C1354 1.366 . S
C1355 C1359 1.385 . S
C1356 H1337 0.951 . S
C1356 C1354 1.388 . S
C1356 C1357 1.366 . S
C1357 C1356 1.366 . S
C1357 C1358 1.414 . S
C1357 C1360 1.499 . S
C1358 H1338 0.950 . S
C1358 C1357 1.414 . S
C1358 C1359 1.374 . S
C1359 H1339 0.950 . S
C1359 C1355 1.385 . S
C1359 C1358 1.374 . S
C1360 C1357 1.499 . S
C1360 C1361 1.373 . S
C1360 C1362 1.389 . S
C1361 H1340 0.950 . S
C1361 C1360 1.373 . S
C1361 C1377 1.377 . S
C1362 C1360 1.389 . S
C1362 C1363 1.524 . S
C1362 C1376 1.377 . S
C1363 C1362 1.524 . S
C1363 C1364 1.397 . S
C1363 C1368 1.363 . S
C1364 H1341 0.950 . S
C1364 C1363 1.397 . S
C1364 C1365 1.334 . S
C1365 H1342 0.950 . S
C1365 C1364 1.334 . S
C1365 C1366 1.287 . S
C1366 C1365 1.287 . S
C1366 C1367 1.524 . S
C1366 H1385 0.913 . S
C1367 H1343 0.950 . S
C1367 C1366 1.524 . S
C1367 C1368 1.415 . S
C1368 H1344 0.950 . S
C1368 C1363 1.363 . S
C1368 C1367 1.415 . S
C1369 H1345 0.951 . S
C1369 C1370 1.366 . S
C1369 C1371 1.388 . S
C1370 C1369 1.366 . S
C1370 C1374 1.385 . S
C1371 H1346 0.951 . S
C1371 C1369 1.388 . S
C1371 C1372 1.366 . S
C1372 C1371 1.366 . S
C1372 C1373 1.414 . S
C1372 C1375 1.499 . S
C1373 H1347 0.950 . S
C1373 C1372 1.414 . S
C1373 C1374 1.374 . S
C1374 H1348 0.950 . S
C1374 C1370 1.385 . S
C1374 C1373 1.374 . S
C1375 C1372 1.499 . S
C1375 C1376 1.373 . S
C1375 C1377 1.389 . S
C1376 H1349 0.950 . S
C1376 C1362 1.377 . S
C1376 C1375 1.373 . S
C1377 C1361 1.377 . S
C1377 C1375 1.389 . S
C1377 C1378 1.524 . S
C1378 C1377 1.524 . S
C1378 C1379 1.397 . S
C1378 C1383 1.363 . S
C1379 H1350 0.950 . S
C1379 C1378 1.397 . S
C1379 C1380 1.334 . S
C1380 H1351 0.950 . S
C1380 C1379 1.334 . S
C1380 C1381 1.287 . S
C1381 C1380 1.287 . S
C1381 C1382 1.524 . S
C1381 H1384 0.999 . S
C1382 H1352 0.950 . S
C1382 C1381 1.524 . S
C1382 C1383 1.415 . S
C1383 H1353 0.950 . S
C1383 C1378 1.363 . S
C1383 C1382 1.415 . S
H1384 C1381 0.999 . S
H1385 C1366 0.913 . S
H1386 C1404 0.951 . S
H1387 C1406 0.951 . S
H1388 C1408 0.950 . S
H1389 C1409 0.950 . S
H1390 C1411 0.950 . S
H1391 C1414 0.950 . S
H1392 C1415 0.950 . S
H1393 C1417 0.950 . S
H1394 C1418 0.950 . S
H1395 C1419 0.951 . S
H1396 C1421 0.951 . S
H1397 C1423 0.950 . S
H1398 C1424 0.950 . S
H1399 C1426 0.950 . S
H1400 C1429 0.950 . S
H1401 C1430 0.950 . S
H1402 C1432 0.950 . S
H1403 C1433 0.950 . S
C1404 H1386 0.951 . S
C1404 C1405 1.366 . S
C1404 C1406 1.388 . S
C1405 C1404 1.366 . S
C1405 C1409 1.385 . S
C1406 H1387 0.951 . S
C1406 C1404 1.388 . S
C1406 C1407 1.366 . S
C1407 C1406 1.366 . S
C1407 C1408 1.414 . S
C1407 C1410 1.499 . S
C1408 H1388 0.950 . S
C1408 C1407 1.414 . S
C1408 C1409 1.374 . S
C1409 H1389 0.950 . S
C1409 C1405 1.385 . S
C1409 C1408 1.374 . S
C1410 C1407 1.499 . S
C1410 C1411 1.373 . S
C1410 C1412 1.389 . S
C1411 H1390 0.950 . S
C1411 C1410 1.373 . S
C1411 C1427 1.377 . S
C1412 C1410 1.389 . S
C1412 C1413 1.524 . S
C1412 C1426 1.377 . S
C1413 C1412 1.524 . S
C1413 C1414 1.397 . S
C1413 C1418 1.363 . S
C1414 H1391 0.950 . S
C1414 C1413 1.397 . S
C1414 C1415 1.334 . S
C1415 H1392 0.950 . S
C1415 C1414 1.334 . S
C1415 C1416 1.287 . S
C1416 C1415 1.287 . S
C1416 C1417 1.524 . S
C1416 H1435 0.913 . S
C1417 H1393 0.950 . S
C1417 C1416 1.524 . S
C1417 C1418 1.415 . S
C1418 H1394 0.950 . S
C1418 C1413 1.363 . S
C1418 C1417 1.415 . S
C1419 H1395 0.951 . S
C1419 C1420 1.366 . S
C1419 C1421 1.388 . S
C1420 C1419 1.366 . S
C1420 C1424 1.385 . S
C1421 H1396 0.951 . S
C1421 C1419 1.388 . S
C1421 C1422 1.366 . S
C1422 C1421 1.366 . S
C1422 C1423 1.414 . S
C1422 C1425 1.499 . S
C1423 H1397 0.950 . S
C1423 C1422 1.414 . S
C1423 C1424 1.374 . S
C1424 H1398 0.950 . S
C1424 C1420 1.385 . S
C1424 C1423 1.374 . S
C1425 C1422 1.499 . S
C1425 C1426 1.373 . S
C1425 C1427 1.389 . S
C1426 H1399 0.950 . S
C1426 C1412 1.377 . S
C1426 C1425 1.373 . S
C1427 C1411 1.377 . S
C1427 C1425 1.389 . S
C1427 C1428 1.524 . S
C1428 C1427 1.524 . S
C1428 C1429 1.397 . S
C1428 C1433 1.363 . S
C1429 H1400 0.950 . S
C1429 C1428 1.397 . S
C1429 C1430 1.334 . S
C1430 H1401 0.950 . S
C1430 C1429 1.334 . S
C1430 C1431 1.287 . S
C1431 C1430 1.287 . S
C1431 C1432 1.524 . S
C1431 H1434 0.999 . S
C1432 H1402 0.950 . S
C1432 C1431 1.524 . S
C1432 C1433 1.415 . S
C1433 H1403 0.950 . S
C1433 C1428 1.363 . S
C1433 C1432 1.415 . S
H1434 C1431 0.999 . S
H1435 C1416 0.913 . S
H1436 C1454 0.951 . S
H1437 C1456 0.951 . S
H1438 C1458 0.950 . S
H1439 C1459 0.950 . S
H1440 C1461 0.950 . S
H1441 C1464 0.950 . S
H1442 C1465 0.950 . S
H1443 C1467 0.950 . S
H1444 C1468 0.950 . S
H1445 C1469 0.951 . S
H1446 C1471 0.951 . S
H1447 C1473 0.950 . S
H1448 C1474 0.950 . S
H1449 C1476 0.950 . S
H1450 C1479 0.950 . S
H1451 C1480 0.950 . S
H1452 C1482 0.966 . S
H1453 C1483 0.950 . S
C1454 H1436 0.951 . S
C1454 C1455 1.366 . S
C1454 C1456 1.388 . S
C1455 C1454 1.366 . S
C1455 C1459 1.385 . S
C1456 H1437 0.951 . S
C1456 C1454 1.388 . S
C1456 C1457 1.366 . S
C1457 C1456 1.366 . S
C1457 C1458 1.414 . S
C1457 C1460 1.499 . S
C1458 H1438 0.950 . S
C1458 C1457 1.414 . S
C1458 C1459 1.374 . S
C1459 H1439 0.950 . S
C1459 C1455 1.385 . S
C1459 C1458 1.374 . S
C1460 C1457 1.499 . S
C1460 C1461 1.373 . S
C1460 C1462 1.389 . S
C1461 H1440 0.950 . S
C1461 C1460 1.373 . S
C1461 C1477 1.377 . S
C1462 C1460 1.389 . S
C1462 C1463 1.524 . S
C1462 C1476 1.377 . S
C1463 C1462 1.524 . S
C1463 C1464 1.397 . S
C1463 C1468 1.363 . S
C1464 H1441 0.950 . S
C1464 C1463 1.397 . S
C1464 C1465 1.334 . S
C1465 H1442 0.950 . S
C1465 C1464 1.334 . S
C1465 C1466 1.287 . S
C1466 C1465 1.287 . S
C1466 C1467 1.524 . S
C1466 H1485 0.913 . S
C1467 H1443 0.950 . S
C1467 C1466 1.524 . S
C1467 C1468 1.415 . S
C1468 H1444 0.950 . S
C1468 C1463 1.363 . S
C1468 C1467 1.415 . S
C1469 H1445 0.951 . S
C1469 C1470 1.366 . S
C1469 C1471 1.388 . S
C1470 C1469 1.366 . S
C1470 C1474 1.385 . S
C1471 H1446 0.951 . S
C1471 C1469 1.388 . S
C1471 C1472 1.366 . S
C1472 C1471 1.366 . S
C1472 C1473 1.414 . S
C1472 C1475 1.499 . S
C1473 H1447 0.950 . S
C1473 C1472 1.414 . S
C1473 C1474 1.374 . S
C1474 H1448 0.950 . S
C1474 C1470 1.385 . S
C1474 C1473 1.374 . S
C1475 C1472 1.499 . S
C1475 C1476 1.373 . S
C1475 C1477 1.389 . S
C1476 H1449 0.950 . S
C1476 C1462 1.377 . S
C1476 C1475 1.373 . S
C1477 C1461 1.377 . S
C1477 C1475 1.389 . S
C1477 C1478 1.524 . S
C1478 C1477 1.524 . S
C1478 C1479 1.397 . S
C1478 C1483 1.363 . S
C1479 H1450 0.950 . S
C1479 C1478 1.397 . S
C1479 C1480 1.334 . S
C1480 H1451 0.950 . S
C1480 C1479 1.334 . S
C1480 C1481 1.287 1_455 S
C1481 C1480 1.287 1_655 S
C1481 C1482 1.526 . S
C1481 H1484 0.999 . S
C1482 H1452 0.966 . S
C1482 C1481 1.526 . S
C1482 C1483 1.394 1_655 S
C1483 H1453 0.950 . S
C1483 C1478 1.363 . S
C1483 C1482 1.394 1_455 S
H1484 C1481 0.999 . S
H1485 C1466 0.913 . S
H1486 C1504 0.951 . S
H1487 C1506 0.951 . S
H1488 C1508 0.950 . S
H1489 C1509 0.950 . S
H1490 C1511 0.950 . S
H1491 C1514 0.950 . S
H1492 C1515 0.950 . S
H1493 C1517 0.950 . S
H1494 C1518 0.950 . S
H1495 C1519 0.951 . S
H1496 C1521 0.951 . S
H1497 C1523 0.950 . S
H1498 C1524 0.950 . S
H1499 C1526 0.950 . S
H1500 C1529 0.950 . S
H1501 C1530 0.950 . S
H1502 C1532 0.950 . S
H1503 C1533 0.950 . S
C1504 H1486 0.951 . S
C1504 C1505 1.366 . S
C1504 C1506 1.388 . S
C1505 C1504 1.366 . S
C1505 C1509 1.385 . S
C1506 H1487 0.951 . S
C1506 C1504 1.388 . S
C1506 C1507 1.366 . S
C1507 C1506 1.366 . S
C1507 C1508 1.414 . S
C1507 C1510 1.499 . S
C1508 H1488 0.950 . S
C1508 C1507 1.414 . S
C1508 C1509 1.374 . S
C1509 H1489 0.950 . S
C1509 C1505 1.385 . S
C1509 C1508 1.374 . S
C1510 C1507 1.499 . S
C1510 C1511 1.373 . S
C1510 C1512 1.389 . S
C1511 H1490 0.950 . S
C1511 C1510 1.373 . S
C1511 C1527 1.377 . S
C1512 C1510 1.389 . S
C1512 C1513 1.524 . S
C1512 C1526 1.377 . S
C1513 C1512 1.524 . S
C1513 C1514 1.397 . S
C1513 C1518 1.363 . S
C1514 H1491 0.950 . S
C1514 C1513 1.397 . S
C1514 C1515 1.334 . S
C1515 H1492 0.950 . S
C1515 C1514 1.334 . S
C1515 C1516 1.287 . S
C1516 C1515 1.287 . S
C1516 C1517 1.524 . S
C1516 H1535 0.913 . S
C1517 H1493 0.950 . S
C1517 C1516 1.524 . S
C1517 C1518 1.415 . S
C1518 H1494 0.950 . S
C1518 C1513 1.363 . S
C1518 C1517 1.415 . S
C1519 H1495 0.951 . S
C1519 C1520 1.366 . S
C1519 C1521 1.388 . S
C1520 C1519 1.366 . S
C1520 C1524 1.385 . S
C1521 H1496 0.951 . S
C1521 C1519 1.388 . S
C1521 C1522 1.366 . S
C1522 C1521 1.366 . S
C1522 C1523 1.414 . S
C1522 C1525 1.499 . S
C1523 H1497 0.950 . S
C1523 C1522 1.414 . S
C1523 C1524 1.374 . S
C1524 H1498 0.950 . S
C1524 C1520 1.385 . S
C1524 C1523 1.374 . S
C1525 C1522 1.499 . S
C1525 C1526 1.373 . S
C1525 C1527 1.389 . S
C1526 H1499 0.950 . S
C1526 C1512 1.377 . S
C1526 C1525 1.373 . S
C1527 C1511 1.377 . S
C1527 C1525 1.389 . S
C1527 C1528 1.524 . S
C1528 C1527 1.524 . S
C1528 C1529 1.397 . S
C1528 C1533 1.363 . S
C1529 H1500 0.950 . S
C1529 C1528 1.397 . S
C1529 C1530 1.334 . S
C1530 H1501 0.950 . S
C1530 C1529 1.334 . S
C1530 C1531 1.287 . S
C1531 C1530 1.287 . S
C1531 C1532 1.524 . S
C1531 H1534 0.999 . S
C1532 H1502 0.950 . S
C1532 C1531 1.524 . S
C1532 C1533 1.415 . S
C1533 H1503 0.950 . S
C1533 C1528 1.363 . S
C1533 C1532 1.415 . S
H1534 C1531 0.999 . S
H1535 C1516 0.913 . S
C355 C29 1.557 . S
C370 C275 1.530 . S
C405 C49 1.244 . S
C420 C278 1.224 . S
C470 C314 1.755 . S
C455 C93 1.754 . S
C505 C119 1.586 . S
C520 C334 1.569 . S
C570 C288 1.706 . S
C555 C17 1.732 . S
C620 C265 1.599 . S
C605 C61 1.587 . S
C670 C318 1.519 . S
C655 C81 1.608 . S
C720 C298 1.392 . S
C705 C125 1.467 . S
C755 C23 1.315 . S
C770 C328 1.271 . S
C820 C294 1.559 . S
C805 C87 1.558 . S
C855 C113 1.666 . S
C870 C260 1.603 . S
C905 C55 1.313 . S
C920 C308 1.307 . S
C970 C274 1.463 . S
C955 C157 1.420 . S
C1005 C189 1.301 . S
C1020 C280 1.267 . S
C1055 C221 1.702 . S
C1070 C315 1.725 . S
C1105 C253 1.652 . S
C1120 C335 1.638 . S
C1155 C145 1.739 . S
C1170 C285 1.761 . S
C1220 C268 1.517 . S
C1205 C183 1.521 . S
C1270 C320 1.560 . S
C1255 C209 1.623 . S
C1320 C300 1.349 . S
C1305 C247 1.418 . S
C1355 C151 1.271 . S
C1370 C325 1.272 . S
C1420 C295 1.548 . S
C1405 C215 1.533 . S
C1470 C258 1.584 . S
C1455 C241 1.631 . S
C1505 C177 1.345 . S
C1520 C305 1.336 . S
