# Generated by pormake.
# Topology ctn, (3,4)-cn, num edge types: 1
# Building blocks:
#     Node 0, Type 0, BuildingBlock: CUQRIR_clean_linker_1, # of connection points: 3
#     Node 1, Type 0, BuildingBlock: CUQRIR_clean_linker_1, # of connection points: 3
#     Node 2, Type 0, BuildingBlock: CUQRIR_clean_linker_1, # of connection points: 3
#     Node 3, Type 0, BuildingBlock: CUQRIR_clean_linker_1, # of connection points: 3
#     Node 4, Type 0, BuildingBlock: CUQRIR_clean_linker_1, # of connection points: 3
#     Node 5, Type 0, BuildingBlock: CUQRIR_clean_linker_1, # of connection points: 3
#     Node 6, Type 0, BuildingBlock: CUQRIR_clean_linker_1, # of connection points: 3
#     Node 7, Type 0, BuildingBlock: CUQRIR_clean_linker_1, # of connection points: 3
#     Node 8, Type 0, BuildingBlock: CUQRIR_clean_linker_1, # of connection points: 3
#     Node 9, Type 0, BuildingBlock: CUQRIR_clean_linker_1, # of connection points: 3
#     Node 10, Type 0, BuildingBlock: CUQRIR_clean_linker_1, # of connection points: 3
#     Node 11, Type 0, BuildingBlock: CUQRIR_clean_linker_1, # of connection points: 3
#     Node 12, Type 0, BuildingBlock: CUQRIR_clean_linker_1, # of connection points: 3
#     Node 13, Type 0, BuildingBlock: CUQRIR_clean_linker_1, # of connection points: 3
#     Node 14, Type 0, BuildingBlock: CUQRIR_clean_linker_1, # of connection points: 3
#     Node 15, Type 0, BuildingBlock: CUQRIR_clean_linker_1, # of connection points: 3
#     Node 16, Type 1, BuildingBlock: UXUYUI_clean_sbu_0, # of connection points: 4
#     Node 17, Type 1, BuildingBlock: UXUYUI_clean_sbu_0, # of connection points: 4
#     Node 18, Type 1, BuildingBlock: UXUYUI_clean_sbu_0, # of connection points: 4
#     Node 19, Type 1, BuildingBlock: UXUYUI_clean_sbu_0, # of connection points: 4
#     Node 20, Type 1, BuildingBlock: UXUYUI_clean_sbu_0, # of connection points: 4
#     Node 21, Type 1, BuildingBlock: UXUYUI_clean_sbu_0, # of connection points: 4
#     Node 22, Type 1, BuildingBlock: UXUYUI_clean_sbu_0, # of connection points: 4
#     Node 23, Type 1, BuildingBlock: UXUYUI_clean_sbu_0, # of connection points: 4
#     Node 24, Type 1, BuildingBlock: UXUYUI_clean_sbu_0, # of connection points: 4
#     Node 25, Type 1, BuildingBlock: UXUYUI_clean_sbu_0, # of connection points: 4
#     Node 26, Type 1, BuildingBlock: UXUYUI_clean_sbu_0, # of connection points: 4
#     Node 27, Type 1, BuildingBlock: UXUYUI_clean_sbu_0, # of connection points: 4
#     Edge 28, Type (0, 1), BuildingBlock: OJICUG_clean_linker_0, # of connection points: 2
#     Edge 29, Type (0, 1), BuildingBlock: OJICUG_clean_linker_0, # of connection points: 2
#     Edge 30, Type (0, 1), BuildingBlock: OJICUG_clean_linker_0, # of connection points: 2
#     Edge 31, Type (0, 1), BuildingBlock: OJICUG_clean_linker_0, # of connection points: 2
#     Edge 32, Type (0, 1), BuildingBlock: OJICUG_clean_linker_0, # of connection points: 2
#     Edge 33, Type (0, 1), BuildingBlock: OJICUG_clean_linker_0, # of connection points: 2
#     Edge 34, Type (0, 1), BuildingBlock: OJICUG_clean_linker_0, # of connection points: 2
#     Edge 35, Type (0, 1), BuildingBlock: OJICUG_clean_linker_0, # of connection points: 2
#     Edge 36, Type (0, 1), BuildingBlock: OJICUG_clean_linker_0, # of connection points: 2
#     Edge 37, Type (0, 1), BuildingBlock: OJICUG_clean_linker_0, # of connection points: 2
#     Edge 38, Type (0, 1), BuildingBlock: OJICUG_clean_linker_0, # of connection points: 2
#     Edge 39, Type (0, 1), BuildingBlock: OJICUG_clean_linker_0, # of connection points: 2
#     Edge 40, Type (0, 1), BuildingBlock: OJICUG_clean_linker_0, # of connection points: 2
#     Edge 41, Type (0, 1), BuildingBlock: OJICUG_clean_linker_0, # of connection points: 2
#     Edge 42, Type (0, 1), BuildingBlock: OJICUG_clean_linker_0, # of connection points: 2
#     Edge 43, Type (0, 1), BuildingBlock: OJICUG_clean_linker_0, # of connection points: 2
#     Edge 44, Type (0, 1), BuildingBlock: OJICUG_clean_linker_0, # of connection points: 2
#     Edge 45, Type (0, 1), BuildingBlock: OJICUG_clean_linker_0, # of connection points: 2
#     Edge 46, Type (0, 1), BuildingBlock: OJICUG_clean_linker_0, # of connection points: 2
#     Edge 47, Type (0, 1), BuildingBlock: OJICUG_clean_linker_0, # of connection points: 2
#     Edge 48, Type (0, 1), BuildingBlock: OJICUG_clean_linker_0, # of connection points: 2
#     Edge 49, Type (0, 1), BuildingBlock: OJICUG_clean_linker_0, # of connection points: 2
#     Edge 50, Type (0, 1), BuildingBlock: OJICUG_clean_linker_0, # of connection points: 2
#     Edge 51, Type (0, 1), BuildingBlock: OJICUG_clean_linker_0, # of connection points: 2
#     Edge 52, Type (0, 1), BuildingBlock: OJICUG_clean_linker_0, # of connection points: 2
#     Edge 53, Type (0, 1), BuildingBlock: OJICUG_clean_linker_0, # of connection points: 2
#     Edge 54, Type (0, 1), BuildingBlock: OJICUG_clean_linker_0, # of connection points: 2
#     Edge 55, Type (0, 1), BuildingBlock: OJICUG_clean_linker_0, # of connection points: 2
#     Edge 56, Type (0, 1), BuildingBlock: OJICUG_clean_linker_0, # of connection points: 2
#     Edge 57, Type (0, 1), BuildingBlock: OJICUG_clean_linker_0, # of connection points: 2
#     Edge 58, Type (0, 1), BuildingBlock: OJICUG_clean_linker_0, # of connection points: 2
#     Edge 59, Type (0, 1), BuildingBlock: OJICUG_clean_linker_0, # of connection points: 2
#     Edge 60, Type (0, 1), BuildingBlock: OJICUG_clean_linker_0, # of connection points: 2
#     Edge 61, Type (0, 1), BuildingBlock: OJICUG_clean_linker_0, # of connection points: 2
#     Edge 62, Type (0, 1), BuildingBlock: OJICUG_clean_linker_0, # of connection points: 2
#     Edge 63, Type (0, 1), BuildingBlock: OJICUG_clean_linker_0, # of connection points: 2
#     Edge 64, Type (0, 1), BuildingBlock: OJICUG_clean_linker_0, # of connection points: 2
#     Edge 65, Type (0, 1), BuildingBlock: OJICUG_clean_linker_0, # of connection points: 2
#     Edge 66, Type (0, 1), BuildingBlock: OJICUG_clean_linker_0, # of connection points: 2
#     Edge 67, Type (0, 1), BuildingBlock: OJICUG_clean_linker_0, # of connection points: 2
#     Edge 68, Type (0, 1), BuildingBlock: OJICUG_clean_linker_0, # of connection points: 2
#     Edge 69, Type (0, 1), BuildingBlock: OJICUG_clean_linker_0, # of connection points: 2
#     Edge 70, Type (0, 1), BuildingBlock: OJICUG_clean_linker_0, # of connection points: 2
#     Edge 71, Type (0, 1), BuildingBlock: OJICUG_clean_linker_0, # of connection points: 2
#     Edge 72, Type (0, 1), BuildingBlock: OJICUG_clean_linker_0, # of connection points: 2
#     Edge 73, Type (0, 1), BuildingBlock: OJICUG_clean_linker_0, # of connection points: 2
#     Edge 74, Type (0, 1), BuildingBlock: OJICUG_clean_linker_0, # of connection points: 2
#     Edge 75, Type (0, 1), BuildingBlock: OJICUG_clean_linker_0, # of connection points: 2
# Relax obj value: 0.080
# Max RMSD: 0.211
# Mean RMSD: 0.129
data_MOF--net-ctn--node1-UXUYUI_clean_sbu_0--node2-CUQRIR_clean_linker_1--edge1-OJICUG_clean_linker_0
_symmetry_space_group_name_H-M    P1
_symmetry_Int_Tables_number       1
_symmetry_cell_setting            triclinic
loop_
_symmetry_equiv_pos_as_xyz
'x, y, z'
_cell_length_a     49.595671
_cell_length_b     46.170655
_cell_length_c     47.338431
_cell_angle_alpha  96.539459
_cell_angle_beta   88.908252
_cell_angle_gamma 92.664326
loop_
_atom_site_label
_atom_site_type_symbol
_atom_site_fract_x
_atom_site_fract_y
_atom_site_fract_z
_atom_type_partial_charge
C0 C 0.05359 0.02301 0.08322 0.0
N1 N 0.06732 0.03401 0.06152 0.0
N2 N 0.03312 0.0402 0.09249 0.0
C3 C 0.0611 0.9964 0.09643 0.0
C4 C 0.03495 0.06212 0.07581 0.0
N5 N 0.05593 0.05859 0.05721 0.0
C6 C 0.01536 0.08619 0.07671 0.0
H7 H 0.05474 0.99789 0.11913 0.0
H8 H 0.08315 0.99338 0.09477 0.0
H9 H 0.05067 0.9769 0.08491 0.0
H10 H 0.02386 0.10571 0.08999 0.0
H11 H 0.99564 0.0796 0.08604 0.0
H12 H 1.01212 0.09228 0.05506 0.0
C13 C 0.29121 0.73612 0.23227 0.0
N14 N 0.3018 0.7239 0.25396 0.0
N15 N 0.30552 0.76079 0.22741 0.0
C16 C 0.2659 0.72468 0.21688 0.0
C17 C 0.3251 0.7633 0.24732 0.0
N18 N 0.32269 0.74097 0.26373 0.0
C19 C 0.348 0.78595 0.24893 0.0
H20 H 0.27132 0.70815 0.19905 0.0
H21 H 0.25557 0.74248 0.20821 0.0
H22 H 0.25172 0.71396 0.23128 0.0
H23 H 0.34231 0.80498 0.26396 0.0
H24 H 0.35232 0.79352 0.22782 0.0
H25 H 0.36658 0.7772 0.25673 0.0
C26 C 0.98167 0.50729 0.08615 0.0
N27 N 0.99712 0.48384 0.08661 0.0
N28 N 0.9607 0.50087 0.06825 0.0
C29 C 0.98577 0.53574 0.10483 0.0
C30 C 0.96381 0.47265 0.05795 0.0
N31 N 0.98567 0.46213 0.06939 0.0
C32 C 0.94674 0.45607 0.03498 0.0
H33 H 0.99422 0.53215 0.12562 0.0
H34 H 0.96651 0.54696 0.10857 0.0
H35 H 1.00025 0.55015 0.09419 0.0
H36 H 0.95903 0.44086 0.02081 0.0
H37 H 0.93711 0.47109 0.02193 0.0
H38 H 0.93066 0.44304 0.04503 0.0
C39 C 0.6917 0.78837 0.22527 0.0
N40 N 0.71619 0.7989 0.21692 0.0
N41 N 0.68648 0.7983 0.25274 0.0
C42 C 0.67396 0.76642 0.20745 0.0
C43 C 0.70867 0.81498 0.26095 0.0
N44 N 0.7269 0.81512 0.23929 0.0
C45 C 0.71187 0.83216 0.28976 0.0
H46 H 0.66332 0.77775 0.19179 0.0
H47 H 0.6587 0.75557 0.22063 0.0
H48 H 0.68635 0.74962 0.19548 0.0
H49 H 0.72393 0.81968 0.3033 0.0
H50 H 0.69198 0.83597 0.30032 0.0
H51 H 0.72267 0.85348 0.28795 0.0
C52 C 0.0401 0.97903 0.49508 0.0
N53 N 0.06275 0.983 0.51093 0.0
N54 N 0.04248 0.99408 0.47219 0.0
C55 C 0.01557 0.96064 0.50228 0.0
C56 C 0.06743 1.00716 0.47447 0.0
N57 N 0.07995 1.00017 0.49781 0.0
C58 C 0.07944 0.02719 0.45417 0.0
H59 H 0.0218 0.93941 0.50829 0.0
H60 H 1.00118 0.95668 0.48453 0.0
H61 H 1.00493 0.97201 0.52085 0.0
H62 H 0.06938 0.02353 0.43325 0.0
H63 H 0.10137 0.02405 0.45105 0.0
H64 H 0.07684 0.05011 0.46334 0.0
C65 C 0.19961 0.73816 0.82418 0.0
N66 N 0.22164 0.72732 0.83495 0.0
N67 N 0.19492 0.72532 0.7975 0.0
C68 C 0.18419 0.76316 0.83867 0.0
C69 C 0.21501 0.70651 0.79227 0.0
N70 N 0.23155 0.708 0.81493 0.0
C71 C 0.21714 0.68519 0.76588 0.0
H72 H 0.16831 0.75439 0.85261 0.0
H73 H 0.17439 0.77519 0.82297 0.0
H74 H 0.19769 0.77865 0.85209 0.0
H75 H 0.23098 0.69476 0.75038 0.0
H76 H 0.19715 0.68046 0.75583 0.0
H77 H 0.22535 0.66444 0.77089 0.0
C78 C 0.97045 0.54146 0.46344 0.0
N79 N 0.98757 0.56532 0.46467 0.0
N80 N 0.94883 0.54666 0.48084 0.0
C81 C 0.97384 0.51381 0.44383 0.0
C82 C 0.9533 0.5745 0.49263 0.0
N83 N 0.97663 0.58606 0.48246 0.0
C84 C 0.93611 0.58943 0.516 0.0
H85 H 0.95408 0.50218 0.43908 0.0
H86 H 0.98674 0.49926 0.45424 0.0
H87 H 0.98384 0.51855 0.42359 0.0
H88 H 0.92445 0.57333 0.52762 0.0
H89 H 0.9217 0.60312 0.50652 0.0
H90 H 0.94873 0.60377 0.53141 0.0
C91 C 0.79014 0.80729 0.82447 0.0
N92 N 0.81174 0.79019 0.82075 0.0
N93 N 0.79375 0.83088 0.8101 0.0
C94 C 0.76627 0.80204 0.84364 0.0
C95 C 0.81833 0.82777 0.79763 0.0
N96 N 0.82948 0.8032 0.80427 0.0
C97 C 0.83102 0.8485 0.77832 0.0
H98 H 0.7521 0.78559 0.83229 0.0
H99 H 0.75543 0.82235 0.84969 0.0
H100 H 0.7728 0.79337 0.86321 0.0
H101 H 0.84147 0.86686 0.79155 0.0
H102 H 0.81533 0.85765 0.76595 0.0
H103 H 0.84606 0.83785 0.76345 0.0
C104 C 0.29038 0.30713 0.32099 0.0
N105 N 0.31291 0.29132 0.31854 0.0
N106 N 0.29358 0.33085 0.30671 0.0
C107 C 0.26613 0.30084 0.3393 0.0
C108 C 0.31886 0.32918 0.29566 0.0
N109 N 0.33081 0.30541 0.30311 0.0
C110 C 0.33133 0.34996 0.27629 0.0
H111 H 0.25291 0.28373 0.32751 0.0
H112 H 0.25434 0.32058 0.34484 0.0
H113 H 0.27238 0.29262 0.3592 0.0
H114 H 0.34475 0.36622 0.28892 0.0
H115 H 0.31569 0.36169 0.26629 0.0
H116 H 0.34371 0.33815 0.25933 0.0
C117 C 0.48368 1.00747 0.58707 0.0
N118 N 0.4996 0.98427 0.58643 0.0
N119 N 0.46264 1.00133 0.5692 0.0
C120 C 0.48745 0.03531 0.60674 0.0
C121 C 0.46621 0.97351 0.5578 0.0
N122 N 0.48842 0.96298 0.56854 0.0
C123 C 0.44911 0.95729 0.53467 0.0
H124 H 0.46801 0.04604 0.61109 0.0
H125 H 0.5016 0.05047 0.5966 0.0
H126 H 0.49618 0.03102 0.62718 0.0
H127 H 0.43926 0.97259 0.52211 0.0
H128 H 0.4332 0.94387 0.54455 0.0
H129 H 0.46138 0.94244 0.5201 0.0
C130 C 0.19482 0.28008 0.72756 0.0
N131 N 0.21865 0.2915 0.71836 0.0
N132 N 0.19001 0.29024 0.75505 0.0
C133 C 0.17723 0.25739 0.71044 0.0
C134 C 0.21174 0.3081 0.76236 0.0
N135 N 0.22938 0.30861 0.74017 0.0
C136 C 0.21463 0.32671 0.79048 0.0
H137 H 0.16397 0.26845 0.69683 0.0
H138 H 0.16433 0.24465 0.72442 0.0
H139 H 0.1897 0.24225 0.69642 0.0
H140 H 0.22729 0.31553 0.80458 0.0
H141 H 0.1947 0.33025 0.80104 0.0
H142 H 0.22461 0.34822 0.78764 0.0
C143 C 0.79579 0.23432 0.73107 0.0
N144 N 0.80574 0.22202 0.75306 0.0
N145 N 0.80866 0.26035 0.72841 0.0
C146 C 0.77234 0.2217 0.7132 0.0
C147 C 0.82668 0.26365 0.74984 0.0
N148 N 0.82474 0.2404 0.76514 0.0
C149 C 0.84759 0.28834 0.7542 0.0
H150 H 0.78 0.20625 0.69551 0.0
H151 H 0.76175 0.23904 0.70406 0.0
H152 H 0.75768 0.20952 0.72594 0.0
H153 H 0.84002 0.30534 0.7705 0.0
H154 H 0.85164 0.29834 0.73424 0.0
H155 H 0.86673 0.28063 0.7618 0.0
C156 C 0.55324 0.52393 0.58204 0.0
N157 N 0.56659 0.53427 0.55978 0.0
N158 N 0.53282 0.54127 0.59116 0.0
C159 C 0.56108 0.49779 0.59582 0.0
C160 C 0.53432 0.56262 0.57377 0.0
N161 N 0.55503 0.55858 0.55491 0.0
C162 C 0.51461 0.5865 0.57414 0.0
H163 H 0.5548 0.4997 0.61855 0.0
H164 H 0.58318 0.4951 0.59418 0.0
H165 H 0.55089 0.47794 0.58466 0.0
H166 H 0.52291 0.60622 0.58727 0.0
H167 H 0.49484 0.57991 0.58337 0.0
H168 H 0.51148 0.5923 0.55236 0.0
C169 C 0.53701 0.48219 0.99159 0.0
N170 N 0.5603 0.48476 1.00643 0.0
N171 N 0.53958 0.49645 0.96824 0.0
C172 C 0.51198 0.46496 0.99943 0.0
C173 C 0.56529 0.50751 0.96903 0.0
N174 N 0.57816 0.50002 0.99201 0.0
C175 C 0.57773 0.52584 0.94746 0.0
H176 H 0.51746 0.44394 1.00653 0.0
H177 H 0.49782 0.46058 0.98146 0.0
H178 H 0.50142 0.47755 0.01734 0.0
H179 H 0.56213 0.53547 0.9354 0.0
H180 H 0.59013 0.5119 0.93216 0.0
H181 H 0.59113 0.54359 0.95801 0.0
C182 C 0.71168 0.24594 0.31359 0.0
N183 N 0.72985 0.23179 0.32722 0.0
N184 N 0.70344 0.22953 0.28953 0.0
C185 C 0.70079 0.27504 0.32466 0.0
C186 C 0.71702 0.20471 0.28922 0.0
N187 N 0.73294 0.20599 0.31231 0.0
C188 C 0.71599 0.18008 0.2655 0.0
H189 H 0.67955 0.27641 0.31816 0.0
H190 H 0.71313 0.29252 0.31565 0.0
H191 H 0.70184 0.27905 0.34817 0.0
H192 H 0.7098 0.18773 0.24531 0.0
H193 H 0.70103 0.16299 0.27118 0.0
H194 H 0.73593 0.17016 0.26233 0.0
C195 C 0.46819 0.0489 0.95993 0.0
N196 N 0.48672 0.07154 0.96155 0.0
N197 N 0.44746 0.0549 0.97832 0.0
C198 C 0.4709 0.02053 0.94126 0.0
C199 C 0.45387 0.082 0.991 0.0
N200 N 0.47755 0.09232 0.98054 0.0
C201 C 0.43794 0.09764 0.01496 0.0
H202 H 0.45103 1.009 0.93715 0.0
H203 H 0.48372 1.00624 0.95208 0.0
H204 H 0.48079 0.02436 0.9207 0.0
H205 H 0.44807 0.09575 0.03532 0.0
H206 H 0.417 0.08824 0.01602 0.0
H207 H 0.43729 0.12117 0.01238 0.0
Li208 Li 0.28662 0.91656 0.02922 0.0
Li209 Li 0.26764 0.88295 0.06026 0.0
Li210 Li 0.26125 0.87359 1.00947 0.0
Li211 Li 0.23821 0.91305 0.03648 0.0
C212 C 0.31627 0.86826 1.01125 0.0
N213 N 0.35782 0.85403 0.97314 0.0
C214 C 0.33551 0.84886 0.01758 0.0
C215 C 0.3183 0.88055 0.98557 0.0
C216 C 0.35632 0.8419 0.99803 0.0
C217 C 0.33941 0.87305 0.96659 0.0
C218 C 0.28329 0.93845 0.08619 0.0
C219 C 0.2948 0.97649 0.12381 0.0
N220 N 0.3179 0.963 0.12827 0.0
C221 C 0.30713 0.92495 0.09116 0.0
C222 C 0.27704 0.96441 0.10263 0.0
C223 C 0.32436 0.93771 0.11252 0.0
C224 C 0.31115 0.96615 1.00874 0.0
N225 N 0.31611 0.94282 0.02263 0.0
C226 C 0.3633 0.95582 0.02373 0.0
C227 C 0.34151 0.93748 0.03038 0.0
C228 C 0.35889 0.97986 1.00895 0.0
C229 C 0.33235 0.98505 1.00163 0.0
H230 H 0.29072 0.96985 1.00291 0.0
H231 H 0.34495 0.91862 0.04119 0.0
C232 C 0.28818 0.83885 0.08749 0.0
N233 N 0.27396 0.86332 0.09294 0.0
C234 C 0.29457 0.82272 0.10942 0.0
C235 C 0.27092 0.85682 0.14238 0.0
C236 C 0.26543 0.87268 0.11977 0.0
C237 C 0.28569 0.83132 0.1374 0.0
H238 H 0.2946 0.83183 0.06597 0.0
H239 H 0.25427 0.89235 0.12363 0.0
C240 C 0.24019 0.91482 0.97863 0.0
N241 N 0.20353 0.91653 0.93568 0.0
C242 C 0.21713 0.89611 0.97703 0.0
C243 C 0.2446 0.93436 0.95837 0.0
C244 C 0.19885 0.89732 0.95516 0.0
C245 C 0.22583 0.93489 0.93682 0.0
C246 C 0.21376 0.86488 0.05945 0.0
C247 C 0.19807 0.83883 0.05595 0.0
C248 C 0.20919 0.8853 0.08302 0.0
C249 C 0.17802 0.83362 0.07612 0.0
C250 C 0.18896 0.87928 0.10271 0.0
N251 N 0.17392 0.85378 0.09889 0.0
C252 C 0.25233 0.81557 0.98492 0.0
C253 C 0.26448 0.84863 0.95156 0.0
C254 C 0.2501 0.79244 0.96318 0.0
N255 N 0.2591 0.84303 0.97873 0.0
C256 C 0.26252 0.82621 0.92921 0.0
C257 C 0.25498 0.79767 0.93481 0.0
H258 H 0.24843 0.81171 1.00678 0.0
H259 H 0.26997 0.87061 0.94714 0.0
C260 C 0.21128 0.9656 0.03947 0.0
N261 N 0.20679 0.93619 0.03803 0.0
C262 C 0.18964 0.984 0.03939 0.0
C263 C 0.1591 0.94153 0.03625 0.0
C264 C 0.18133 0.92394 0.03607 0.0
C265 C 0.16299 0.9721 0.03793 0.0
H266 H 0.23177 0.97474 0.04044 0.0
H267 H 0.1782 0.90049 0.03427 0.0
O268 O 0.29582 0.8753 0.03032 0.0
O269 O 0.266 0.92647 0.06543 0.0
O270 O 0.25839 0.91428 0.99992 0.0
O271 O 0.23351 0.8701 0.03987 0.0
H272 H 0.33447 0.83933 0.03743 0.0
H273 H 0.30388 0.89586 0.98034 0.0
H274 H 0.37132 0.8269 1.00266 0.0
H275 H 0.34117 0.8824 0.94666 0.0
H276 H 0.29022 0.99659 0.1367 0.0
H277 H 0.31233 0.90485 0.07869 0.0
H278 H 0.25864 0.97511 0.09904 0.0
H279 H 0.34288 0.9275 0.11658 0.0
H280 H 0.38344 0.95081 0.0295 0.0
H281 H 0.32801 1.00356 0.99059 0.0
H282 H 0.30653 0.80375 0.10436 0.0
H283 H 0.26328 0.86426 0.1634 0.0
H284 H 0.21334 0.88079 0.99242 0.0
H285 H 0.26236 0.94896 0.95929 0.0
H286 H 0.18092 0.88299 0.95368 0.0
H287 H 0.229 0.94992 0.921 0.0
H288 H 0.20138 0.8228 0.03782 0.0
H289 H 0.22105 0.90562 0.08608 0.0
H290 H 0.16572 0.81354 0.07368 0.0
H291 H 0.1852 0.89489 0.12103 0.0
H292 H 0.24441 0.77077 0.9685 0.0
H293 H 0.26598 0.83143 0.90767 0.0
H294 H 0.19385 1.0073 0.04024 0.0
H295 H 0.13906 0.93117 0.03558 0.0
Li296 Li 0.13102 0.53475 0.3042 0.0
Li297 Li 0.16454 0.49902 0.28397 0.0
Li298 Li 0.16883 0.54943 0.2757 0.0
Li299 Li 0.13321 0.51862 0.25279 0.0
C300 C 0.18602 0.55314 0.32848 0.0
N301 N 0.2197 0.59463 0.35834 0.0
C302 C 0.21294 0.54728 0.33272 0.0
C303 C 0.17616 0.58002 0.3396 0.0
C304 C 0.22966 0.56857 0.34782 0.0
C305 C 0.19352 0.60073 0.3546 0.0
C306 C 0.11384 0.47623 0.30286 0.0
C307 C 0.0814 0.43901 0.31516 0.0
N308 N 0.09286 0.43992 0.34114 0.0
C309 C 0.12532 0.47678 0.32968 0.0
C310 C 0.0917 0.45722 0.29552 0.0
C311 C 0.11441 0.45826 0.34873 0.0
C312 C 0.0822 0.55346 0.33074 0.0
N313 N 0.10762 0.54577 0.33583 0.0
C314 C 0.09917 0.5523 0.38604 0.0
C315 C 0.11641 0.54532 0.36281 0.0
C316 C 0.07257 0.5598 0.3815 0.0
C317 C 0.06426 0.56062 0.35336 0.0
H318 H 0.07572 0.55355 0.30905 0.0
H319 H 0.13675 0.53917 0.36632 0.0
C320 C 0.21265 0.47123 0.28627 0.0
N321 N 0.18558 0.46628 0.28916 0.0
C322 C 0.23035 0.44916 0.2892 0.0
C323 C 0.192 0.41692 0.29753 0.0
C324 C 0.175 0.43958 0.29413 0.0
C325 C 0.22016 0.42156 0.29521 0.0
H326 H 0.22048 0.49235 0.28133 0.0
H327 H 0.15342 0.43563 0.2953 0.0
C328 C 0.12725 0.57767 0.25214 0.0
N329 N 0.1205 0.61464 0.2111 0.0
C330 C 0.14459 0.57685 0.22846 0.0
C331 C 0.10649 0.59728 0.25495 0.0
C332 C 0.14084 0.59572 0.20794 0.0
C333 C 0.10341 0.6158 0.23397 0.0
C334 C 0.1777 0.49222 0.22694 0.0
C335 C 0.19863 0.49479 0.20708 0.0
C336 C 0.1617 0.46637 0.22581 0.0
C337 C 0.20319 0.47144 0.18633 0.0
C338 C 0.16691 0.44352 0.20474 0.0
N339 N 0.18737 0.4465 0.18559 0.0
C340 C 0.2215 0.57331 0.26686 0.0
C341 C 0.18912 0.60875 0.27988 0.0
C342 C 0.24211 0.59507 0.26703 0.0
N343 N 0.19562 0.58049 0.2732 0.0
C344 C 0.20908 0.63119 0.28029 0.0
C345 C 0.23606 0.62453 0.27382 0.0
H346 H 0.22617 0.5506 0.26214 0.0
H347 H 0.16846 0.61386 0.28529 0.0
C348 C 0.08502 0.5002 0.22374 0.0
N349 N 0.11116 0.5091 0.21953 0.0
C350 C 0.0679 0.49278 0.20062 0.0
C351 C 0.10489 0.50366 0.16908 0.0
C352 C 0.1213 0.5109 0.19283 0.0
C353 C 0.07769 0.49453 0.17273 0.0
H354 H 0.07738 0.49913 0.24516 0.0
H355 H 0.14214 0.51801 0.18991 0.0
O356 O 0.16951 0.53293 0.31304 0.0
O357 O 0.12383 0.49448 0.28396 0.0
O358 O 0.1303 0.55932 0.27249 0.0
O359 O 0.17315 0.51498 0.24736 0.0
H360 H 0.22089 0.52659 0.32434 0.0
H361 H 0.15546 0.58506 0.3362 0.0
H362 H 0.25058 0.56438 0.35115 0.0
H363 H 0.18622 0.62171 0.36312 0.0
H364 H 0.06428 0.42417 0.30975 0.0
H365 H 0.14261 0.49112 0.33566 0.0
H366 H 0.08258 0.45653 0.27485 0.0
H367 H 0.12311 0.45844 0.36954 0.0
H368 H 0.10656 0.55162 0.40732 0.0
H369 H 0.04384 0.56578 0.34877 0.0
H370 H 0.25179 0.45364 0.28635 0.0
H371 H 0.18312 0.3961 0.30219 0.0
H372 H 0.1608 0.56188 0.22588 0.0
H373 H 0.09288 0.59814 0.27315 0.0
H374 H 0.15411 0.59531 0.18951 0.0
H375 H 0.08741 0.63109 0.23587 0.0
H376 H 0.2112 0.51466 0.20772 0.0
H377 H 0.14542 0.4639 0.24096 0.0
H378 H 0.21931 0.47314 0.1708 0.0
H379 H 0.15469 0.42341 0.2036 0.0
H380 H 0.26261 0.58884 0.26214 0.0
H381 H 0.20331 0.65355 0.28517 0.0
H382 H 0.04701 0.48647 0.20466 0.0
H383 H 0.11347 0.50516 0.14807 0.0
Li384 Li 0.75756 0.62494 1.00819 0.0
Li385 Li 0.77723 0.67042 0.03686 0.0
Li386 Li 0.78661 0.66042 0.98404 0.0
Li387 Li 0.8058 0.63134 0.01705 0.0
C388 C 0.73166 0.67004 0.98485 0.0
N389 N 0.69273 0.67591 0.94519 0.0
C390 C 0.71479 0.69361 0.98861 0.0
C391 C 0.72879 0.64946 0.96093 0.0
C392 C 0.6952 0.69619 0.96832 0.0
C393 C 0.70898 0.65282 0.94112 0.0
C394 C 0.78603 0.61082 0.06261 0.0
C395 C 0.81666 0.60164 0.09924 0.0
N396 N 0.80874 0.57287 0.09553 0.0
C397 C 0.77811 0.5812 0.05926 0.0
C398 C 0.80537 0.62118 0.08286 0.0
C399 C 0.78985 0.56236 0.07609 0.0
C400 C 0.72819 0.56996 0.99641 0.0
N401 N 0.72621 0.59858 1.00647 0.0
C402 C 0.6793 0.5905 0.01746 0.0
C403 C 0.70242 0.60902 0.01697 0.0
C404 C 0.68059 0.56069 1.00734 0.0
C405 C 0.70562 0.55056 0.99676 0.0
H406 H 0.74744 0.56209 0.98851 0.0
H407 H 0.70139 0.63184 0.02501 0.0
C408 C 0.76773 0.72766 0.06496 0.0
N409 N 0.76998 0.69899 0.0683 0.0
C410 C 0.76187 0.74784 0.08845 0.0
C411 C 0.76137 0.70867 0.11826 0.0
C412 C 0.76678 0.68928 0.09426 0.0
C413 C 0.75871 0.73836 0.11557 0.0
H414 H 0.77025 0.73478 0.04403 0.0
H415 H 0.76809 0.66635 0.09631 0.0
C416 C 0.80516 0.60709 0.95935 0.0
N417 N 0.8405 0.58779 0.91623 0.0
C418 C 0.83098 0.6203 0.95778 0.0
C419 C 0.79731 0.58402 0.93906 0.0
C420 C 0.84856 0.61024 0.93581 0.0
C421 C 0.81547 0.57459 0.9174 0.0
C422 C 0.83485 0.68838 0.02437 0.0
C423 C 0.85492 0.69479 1.0046 0.0
C424 C 0.83867 0.69756 0.05326 0.0
C425 C 0.87871 0.70985 0.01413 0.0
C426 C 0.86275 0.71258 0.06193 0.0
N427 N 0.88211 0.71834 0.04235 0.0
C428 C 0.80283 0.70811 0.95443 0.0
C429 C 0.79037 0.66587 0.92353 0.0
C430 C 0.80935 0.72356 0.93127 0.0
N431 N 0.79361 0.67978 0.95027 0.0
C432 C 0.79668 0.68052 0.8997 0.0
C433 C 0.80636 0.70985 0.90332 0.0
H434 H 0.80512 0.71877 0.97586 0.0
H435 H 0.78293 0.64336 0.92062 0.0
C436 C 0.83451 0.58003 0.01661 0.0
N437 N 0.83663 0.60929 0.02454 0.0
C438 C 0.85485 0.56201 0.02313 0.0
C439 C 0.87955 0.60454 0.04546 0.0
C440 C 0.8587 0.6217 0.03859 0.0
C441 C 0.8777 0.57421 0.03795 0.0
H442 H 0.81667 0.57057 1.0057 0.0
H443 H 0.85996 0.64475 0.0453 0.0
O444 O 0.75101 0.66732 1.00445 0.0
O445 O 0.77539 0.62943 0.04569 0.0
O446 O 0.78751 0.61666 0.98054 0.0
O447 O 0.81122 0.67407 0.01539 0.0
H448 H 0.71683 0.70974 1.00702 0.0
H449 H 0.7417 0.6311 0.95765 0.0
H450 H 0.68198 0.71432 0.97094 0.0
H451 H 0.70652 0.63707 0.9225 0.0
H452 H 0.83182 0.60931 0.11479 0.0
H453 H 0.76325 0.57278 0.04367 0.0
H454 H 0.812 0.64396 0.08551 0.0
H455 H 0.78401 0.53935 0.0736 0.0
H456 H 0.66051 0.59966 0.02524 0.0
H457 H 0.70788 0.52781 0.98904 0.0
H458 H 0.75986 0.77056 0.0855 0.0
H459 H 0.75848 0.70033 0.13864 0.0
H460 H 0.83738 0.63803 0.9734 0.0
H461 H 0.77735 0.57361 0.94001 0.0
H462 H 0.86861 0.62027 0.93434 0.0
H463 H 0.80965 0.55679 0.9015 0.0
H464 H 0.85216 0.68833 0.98211 0.0
H465 H 0.82341 0.69285 0.06887 0.0
H466 H 0.89444 0.71487 0.99907 0.0
H467 H 0.86604 0.71963 0.08422 0.0
H468 H 0.81608 0.74627 0.93533 0.0
H469 H 0.79411 0.6689 0.87867 0.0
H470 H 0.85267 0.53877 0.01665 0.0
H471 H 0.89658 0.61485 0.05727 0.0
Li472 Li 0.8663 0.03867 0.29693 0.0
Li473 Li 0.90109 1.00914 0.31453 0.0
Li474 Li 0.90088 0.0178 0.26278 0.0
Li475 Li 0.86755 0.98497 0.28249 0.0
C476 C 0.91578 0.07461 0.30223 0.0
N477 N 0.93613 0.13156 0.31237 0.0
C478 C 0.9227 0.08644 0.32978 0.0
C479 C 0.91969 0.09164 0.27977 0.0
C480 C 0.9328 0.1153 0.3345 0.0
C481 C 0.92987 0.12041 0.28534 0.0
C482 C 0.85821 1.00448 0.34946 0.0
C483 C 0.8619 0.97819 0.39033 0.0
N484 N 0.85284 1.00161 0.4073 0.0
C485 C 0.84878 0.02823 0.36728 0.0
C486 C 0.86466 0.97918 0.36102 0.0
C487 C 0.84625 0.02637 0.39647 0.0
C488 C 0.81793 0.06682 0.29381 0.0
N489 N 0.8427 0.07033 0.30582 0.0
C490 C 0.83208 0.11768 0.32818 0.0
C491 C 0.84989 0.09498 0.32309 0.0
C492 C 0.80655 0.11493 0.31549 0.0
C493 C 0.79957 0.08893 0.29822 0.0
H494 H 0.81257 0.04689 0.28042 0.0
H495 H 0.86933 0.09704 0.33308 0.0
C496 C 0.94649 0.98842 0.33887 0.0
N497 N 0.92517 1.00564 0.34497 0.0
C498 C 0.96578 0.98592 0.35946 0.0
C499 C 0.94088 0.01894 0.39235 0.0
C500 C 0.9221 0.02084 0.37109 0.0
C501 C 0.9632 1.0014 0.38663 0.0
H502 H 0.9488 0.97698 0.31779 0.0
H503 H 0.90528 0.03479 0.37538 0.0
C504 C 0.85365 0.03078 0.23613 0.0
N505 N 0.83869 0.05984 0.19137 0.0
C506 C 0.84009 0.01563 0.21295 0.0
C507 C 0.8593 0.06075 0.23666 0.0
C508 C 0.83279 0.03069 0.19049 0.0
C509 C 0.85164 0.07505 0.21382 0.0
C510 C 0.90891 0.95243 0.27124 0.0
C511 C 0.91245 0.94274 0.24241 0.0
C512 C 0.90643 0.93217 0.29103 0.0
C513 C 0.91309 0.91282 0.23379 0.0
C514 C 0.90716 0.90243 0.28156 0.0
N515 N 0.91042 0.89345 0.25338 0.0
C516 C 0.94887 0.0351 0.23617 0.0
C517 C 0.91538 0.01401 0.2041 0.0
C518 C 0.96699 0.03835 0.21372 0.0
N519 N 0.92359 0.02331 0.23098 0.0
C520 C 0.93288 0.01673 0.18101 0.0
C521 C 0.9591 0.02901 0.18569 0.0
H522 H 0.95504 0.04166 0.25783 0.0
H523 H 0.89544 1.00396 0.20062 0.0
C524 C 0.8324 0.93689 0.29298 0.0
N525 N 0.84597 0.9501 0.27241 0.0
C526 C 0.8159 0.91191 0.28576 0.0
C527 C 0.8277 0.91446 0.23631 0.0
C528 C 0.84408 0.93935 0.24452 0.0
C529 C 0.81319 0.9005 0.25706 0.0
H530 H 0.83401 0.94603 0.31495 0.0
H531 H 0.85522 0.95022 0.22861 0.0
O532 O 0.90616 0.04622 0.2972 0.0
O533 O 0.86083 1.00593 0.32084 0.0
O534 O 0.86109 0.01627 0.25822 0.0
O535 O 0.90757 0.98159 0.28002 0.0
H536 H 0.92 0.07362 0.3474 0.0
H537 H 0.9152 0.08274 0.25817 0.0
H538 H 0.93801 0.12477 0.35577 0.0
H539 H 0.93291 0.13382 0.26815 0.0
H540 H 0.86699 0.95882 0.39958 0.0
H541 H 0.84352 0.0479 0.3587 0.0
H542 H 0.87195 0.9606 0.34756 0.0
H543 H 0.83908 0.04462 0.41052 0.0
H544 H 0.8382 0.1371 0.342 0.0
H545 H 0.78033 0.08591 0.2876 0.0
H546 H 0.98287 0.97254 0.35389 0.0
H547 H 0.93788 0.03103 0.41306 0.0
H548 H 0.83532 0.99247 0.21226 0.0
H549 H 0.86917 0.07292 0.25466 0.0
H550 H 0.82242 0.0192 0.17236 0.0
H551 H 0.85592 0.09826 0.21399 0.0
H552 H 0.91439 0.95814 0.22683 0.0
H553 H 0.90384 0.93933 0.31343 0.0
H554 H 0.91564 0.90499 0.21153 0.0
H555 H 0.90511 0.88648 0.29662 0.0
H556 H 0.98715 0.04747 0.21832 0.0
H557 H 0.92595 1.00936 0.15973 0.0
H558 H 0.80471 0.90221 0.30243 0.0
H559 H 0.82634 0.90631 0.21398 0.0
Li560 Li 0.28031 0.17064 0.53399 0.0
Li561 Li 0.25882 0.12692 0.50717 0.0
Li562 Li 0.30759 0.13147 0.51667 0.0
Li563 Li 0.29138 0.16098 0.48199 0.0
C564 C 0.26902 0.13463 0.57155 0.0
N565 N 0.25212 0.1466 0.62745 0.0
C566 C 0.24159 0.1323 0.57867 0.0
C567 C 0.28788 0.14279 0.5929 0.0
C568 C 0.23344 0.13848 0.60705 0.0
C569 C 0.27892 0.14884 0.62102 0.0
C570 C 0.23697 0.17357 0.48137 0.0
C571 C 0.21488 0.15846 0.43683 0.0
N572 N 0.20046 0.183 0.4404 0.0
C573 C 0.22199 0.19865 0.48459 0.0
C574 C 0.23345 0.1533 0.4573 0.0
C575 C 0.2036 0.20301 0.46365 0.0
C576 C 0.29235 0.21525 0.58018 0.0
N577 N 0.27252 0.20026 0.56443 0.0
C578 C 0.23858 0.22296 0.5947 0.0
C579 C 0.24603 0.20417 0.57091 0.0
C580 C 0.25858 0.2381 0.612 0.0
C581 C 0.28581 0.23433 0.60421 0.0
H582 H 0.31326 0.21192 0.57452 0.0
H583 H 0.23067 0.19183 0.5581 0.0
C584 C 0.22889 0.07278 0.50882 0.0
N585 N 0.2264 0.1016 0.50625 0.0
C586 C 0.20597 0.05412 0.51065 0.0
C587 C 0.17815 0.09514 0.5078 0.0
C588 C 0.20159 0.11299 0.506 0.0
C589 C 0.18006 0.06521 0.51023 0.0
H590 H 0.24869 0.06435 0.51018 0.0
H591 H 0.19987 0.13608 0.505 0.0
C592 C 0.34301 0.17656 0.51715 0.0
N593 N 0.39845 0.18141 0.5228 0.0
C594 C 0.35963 0.18011 0.49349 0.0
C595 C 0.35459 0.17561 0.5437 0.0
C596 C 0.38761 0.18252 0.49679 0.0
C597 C 0.38266 0.17803 0.54611 0.0
C598 C 0.30724 0.09793 0.46719 0.0
C599 C 0.32756 0.10668 0.44869 0.0
C600 C 0.30564 0.06912 0.4737 0.0
C601 C 0.34588 0.08641 0.43693 0.0
C602 C 0.3244 0.04953 0.46159 0.0
N603 N 0.34395 0.0585 0.44359 0.0
C604 C 0.33317 0.09249 0.54838 0.0
C605 C 0.36075 0.10777 0.51101 0.0
C606 C 0.35351 0.0753 0.55647 0.0
N607 N 0.33711 0.10847 0.52611 0.0
C608 C 0.3816 0.09081 0.51829 0.0
C609 C 0.37819 0.07427 0.54136 0.0
H610 H 0.31415 0.09299 0.55989 0.0
H611 H 0.36348 0.12025 0.49317 0.0
C612 C 0.3068 0.20893 0.45252 0.0
N613 N 0.29841 0.18034 0.44822 0.0
C614 C 0.31274 0.22471 0.42946 0.0
C615 C 0.30108 0.18147 0.39769 0.0
C616 C 0.29528 0.16651 0.42144 0.0
C617 C 0.30999 0.21107 0.40145 0.0
H618 H 0.30887 0.21954 0.474 0.0
H619 H 0.28835 0.14382 0.41847 0.0
O620 O 0.27735 0.12957 0.54377 0.0
O621 O 0.25524 0.16918 0.50154 0.0
O622 O 0.31556 0.17422 0.51433 0.0
O623 O 0.28923 0.11755 0.47906 0.0
H624 H 0.2267 0.12615 0.56245 0.0
H625 H 0.30918 0.14473 0.58776 0.0
H626 H 0.21226 0.13694 0.61284 0.0
H627 H 0.29328 0.15539 0.63772 0.0
H628 H 0.21193 0.14297 0.41809 0.0
H629 H 0.22458 0.21458 0.50309 0.0
H630 H 0.2449 0.13378 0.45444 0.0
H631 H 0.19184 0.22232 0.46586 0.0
H632 H 0.21735 0.22468 0.60005 0.0
H633 H 0.3019 0.24576 0.6167 0.0
H634 H 0.20855 0.03135 0.51295 0.0
H635 H 0.15871 0.10475 0.50707 0.0
H636 H 0.35109 0.18065 0.47273 0.0
H637 H 0.3421 0.17258 0.56218 0.0
H638 H 0.40071 0.18515 0.47864 0.0
H639 H 0.39189 0.17712 0.56649 0.0
H640 H 0.32957 0.129 0.4439 0.0
H641 H 0.29032 0.062 0.4882 0.0
H642 H 0.36177 0.09295 0.4227 0.0
H643 H 0.32346 0.02721 0.46657 0.0
H644 H 0.34998 0.06315 0.57455 0.0
H645 H 0.40003 0.09033 0.50565 0.0
H646 H 0.31881 0.24759 0.43365 0.0
H647 H 0.29869 0.16988 0.37663 0.0
Li648 Li 0.39744 0.51031 0.81132 0.0
Li649 Li 0.36352 0.53988 0.79262 0.0
Li650 Li 0.36392 0.48523 0.77877 0.0
Li651 Li 0.39785 0.51789 0.75932 0.0
C652 C 0.35337 0.50196 0.84461 0.0
N653 N 0.346 0.49108 0.90053 0.0
C654 C 0.34105 0.52233 0.86424 0.0
C655 C 0.36159 0.47588 0.85337 0.0
C656 C 0.33758 0.51647 0.89243 0.0
C657 C 0.3578 0.47083 0.88174 0.0
C658 C 0.4094 0.57589 0.80126 0.0
C659 C 0.42003 0.62463 0.7894 0.0
N660 N 0.42164 0.63437 0.81755 0.0
C661 C 0.41154 0.58633 0.83005 0.0
C662 C 0.41399 0.59513 0.78073 0.0
C663 C 0.41759 0.61598 0.83787 0.0
C664 C 0.44437 0.49297 0.83492 0.0
N665 N 0.4213 0.50704 0.84199 0.0
C666 C 0.43541 0.51749 0.89027 0.0
C667 C 0.41657 0.51932 0.86903 0.0
C668 C 0.45945 0.50306 0.88357 0.0
C669 C 0.46373 0.49061 0.85545 0.0
H670 H 0.44794 0.48394 0.81316 0.0
H671 H 0.39836 0.53089 0.87412 0.0
C672 C 0.32381 0.57869 0.7809 0.0
N673 N 0.34149 0.57317 0.80101 0.0
C674 C 0.30817 0.60317 0.78508 0.0
C675 C 0.32775 0.61518 0.83149 0.0
C676 C 0.34349 0.59068 0.82615 0.0
C677 C 0.31014 0.62183 0.81056 0.0
H678 H 0.32164 0.56405 0.76159 0.0
H679 H 0.35719 0.58559 0.84216 0.0
C680 C 0.40737 0.453 0.76929 0.0
N681 N 0.41398 0.3943 0.7531 0.0
C682 C 0.40989 0.44254 0.74053 0.0
C683 C 0.40865 0.43366 0.78985 0.0
C684 C 0.41309 0.41278 0.73276 0.0
C685 C 0.41188 0.40406 0.78124 0.0
C686 C 0.35321 0.52597 0.72852 0.0
C687 C 0.33865 0.50786 0.70794 0.0
C688 C 0.36277 0.5536 0.72254 0.0
C689 C 0.33435 0.51752 0.68153 0.0
C690 C 0.35806 0.56247 0.6959 0.0
N691 N 0.3441 0.54437 0.6761 0.0
C692 C 0.32776 0.43804 0.78966 0.0
C693 C 0.34256 0.43716 0.74171 0.0
C694 C 0.31212 0.41233 0.78305 0.0
N695 N 0.34264 0.44988 0.76911 0.0
C696 C 0.32689 0.41159 0.73405 0.0
C697 C 0.31145 0.39883 0.7549 0.0
H698 H 0.32774 0.44872 0.81115 0.0
H699 H 0.35462 0.44693 0.72575 0.0
C700 C 0.44518 0.53764 0.73308 0.0
N701 N 0.42114 0.52291 0.72771 0.0
C702 C 0.46368 0.54115 0.71101 0.0
C703 C 0.4324 0.51405 0.67827 0.0
C704 C 0.41457 0.51097 0.701 0.0
C705 C 0.45741 0.52923 0.68313 0.0
H706 H 0.45013 0.54636 0.75463 0.0
H707 H 0.39563 0.49873 0.69734 0.0
O708 O 0.35712 0.50744 0.81696 0.0
O709 O 0.40351 0.54689 0.79323 0.0
O710 O 0.40385 0.48202 0.77728 0.0
O711 O 0.35797 0.51676 0.75439 0.0
H712 H 0.3341 0.54237 0.85778 0.0
H713 H 0.37088 0.45977 0.83843 0.0
H714 H 0.32816 0.53209 0.90785 0.0
H715 H 0.36424 0.45081 0.8888 0.0
H716 H 0.42353 0.63976 0.77373 0.0
H717 H 0.40819 0.5718 0.84622 0.0
H718 H 0.41319 0.58741 0.75834 0.0
H719 H 0.41903 0.62437 0.86011 0.0
H720 H 0.43116 0.52721 0.9117 0.0
H721 H 0.48215 0.47975 0.84918 0.0
H722 H 0.29432 0.60725 0.7687 0.0
H723 H 0.32958 0.62897 0.85152 0.0
H724 H 0.40905 0.45717 0.72434 0.0
H725 H 0.40732 0.44142 0.81222 0.0
H726 H 0.41482 0.40437 0.71055 0.0
H727 H 0.4128 0.38884 0.79693 0.0
H728 H 0.33061 0.48666 0.71231 0.0
H729 H 0.37359 0.56805 0.73839 0.0
H730 H 0.32321 0.50368 0.66539 0.0
H731 H 0.36547 0.58376 0.691 0.0
H732 H 0.30009 0.40351 0.79967 0.0
H733 H 0.32694 0.40184 0.71213 0.0
H734 H 0.4829 0.55254 0.71586 0.0
H735 H 0.4266 0.5047 0.65712 0.0
Li736 Li 0.78455 0.41094 0.52835 0.0
Li737 Li 0.7641 0.38045 0.56301 0.0
Li738 Li 0.75839 0.36769 0.51096 0.0
Li739 Li 0.73395 0.40863 0.5356 0.0
C740 C 0.81932 0.36928 0.53221 0.0
N741 N 0.87506 0.36903 0.53039 0.0
C742 C 0.8336 0.36514 0.5565 0.0
C743 C 0.83342 0.37307 0.50693 0.0
C744 C 0.86177 0.36512 0.55516 0.0
C745 C 0.86159 0.37296 0.50646 0.0
C746 C 0.76183 0.44058 0.58847 0.0
C747 C 0.73629 0.46478 0.62741 0.0
N748 N 0.75969 0.47601 0.63958 0.0
C749 C 0.78559 0.45272 0.60118 0.0
C750 C 0.73694 0.44697 0.60151 0.0
C751 C 0.7841 0.47041 0.6271 0.0
C752 C 0.81359 0.45017 0.49673 0.0
N753 N 0.81442 0.43642 0.52057 0.0
C754 C 0.85845 0.45761 0.53125 0.0
C755 C 0.83612 0.44002 0.53796 0.0
C756 C 0.8583 0.47182 0.50655 0.0
C757 C 0.83541 0.46806 0.48926 0.0
H758 H 0.79603 0.44708 0.48336 0.0
H759 H 0.83632 0.42883 0.55678 0.0
C760 C 0.76192 0.33448 0.59618 0.0
N761 N 0.76997 0.36311 0.5972 0.0
C762 C 0.76799 0.31837 0.61826 0.0
C763 C 0.7903 0.36154 0.64247 0.0
C764 C 0.78371 0.37689 0.61986 0.0
C765 C 0.78283 0.3317 0.64161 0.0
H766 H 0.75136 0.32392 0.57775 0.0
H767 H 0.79057 0.39941 0.61993 0.0
C768 C 0.7487 0.40072 0.47185 0.0
N769 N 0.73458 0.3843 0.41595 0.0
C770 C 0.72158 0.39913 0.4641 0.0
C771 C 0.76866 0.39416 0.45116 0.0
C772 C 0.71485 0.39077 0.43571 0.0
C773 C 0.7611 0.38582 0.42303 0.0
C774 C 0.70804 0.35988 0.55764 0.0
C775 C 0.68795 0.33998 0.54617 0.0
C776 C 0.70537 0.37287 0.58562 0.0
C777 C 0.66528 0.33378 0.5628 0.0
C778 C 0.68243 0.3661 0.60157 0.0
N779 N 0.663 0.34688 0.58991 0.0
C780 C 0.7787 0.32414 0.46976 0.0
C781 C 0.73111 0.32696 0.47082 0.0
C782 C 0.77737 0.30292 0.44626 0.0
N783 N 0.75582 0.33609 0.48114 0.0
C784 C 0.72879 0.30551 0.44757 0.0
C785 C 0.75218 0.29358 0.43473 0.0
H786 H 0.79807 0.33147 0.4785 0.0
H787 H 0.71326 0.33702 0.48008 0.0
C788 C 0.70805 0.46118 0.53412 0.0
N789 N 0.70294 0.43222 0.53579 0.0
C790 C 0.68682 0.48007 0.53372 0.0
C791 C 0.65537 0.43897 0.53653 0.0
C792 C 0.67719 0.42086 0.53668 0.0
C793 C 0.65994 0.46911 0.53508 0.0
H794 H 0.72872 0.46961 0.53309 0.0
H795 H 0.67346 0.39778 0.53752 0.0
O796 O 0.79172 0.36952 0.5332 0.0
O797 O 0.7629 0.42359 0.56283 0.0
O798 O 0.75562 0.40797 0.49967 0.0
O799 O 0.73031 0.36623 0.54156 0.0
H800 H 0.8231 0.36197 0.57619 0.0
H801 H 0.82277 0.37668 0.48801 0.0
H802 H 0.87307 0.36201 0.57382 0.0
H803 H 0.87274 0.37615 0.48711 0.0
H804 H 0.71716 0.46978 0.63777 0.0
H805 H 0.805 0.44831 0.59132 0.0
H806 H 0.71826 0.43843 0.59173 0.0
H807 H 0.80237 0.47972 0.63727 0.0
H808 H 0.87553 0.46023 0.54536 0.0
H809 H 0.83453 0.47845 0.46993 0.0
H810 H 0.76139 0.29557 0.61685 0.0
H811 H 0.80201 0.37264 0.65986 0.0
H812 H 0.70587 0.40395 0.47986 0.0
H813 H 0.78973 0.39515 0.45683 0.0
H814 H 0.69393 0.3893 0.42943 0.0
H815 H 0.77631 0.38045 0.40683 0.0
H816 H 0.68977 0.32952 0.52463 0.0
H817 H 0.72097 0.38776 0.59504 0.0
H818 H 0.64951 0.31853 0.55414 0.0
H819 H 0.68012 0.37604 0.62324 0.0
H820 H 0.79583 0.29416 0.43698 0.0
H821 H 0.70901 0.29921 0.439 0.0
H822 H 0.69147 0.503 0.53224 0.0
H823 H 0.63512 0.42943 0.53813 0.0
Li824 Li 0.66595 0.99935 0.78458 0.0
Li825 Li 0.63254 0.0355 0.8041 0.0
Li826 Li 0.63508 0.01881 0.75283 0.0
Li827 Li 0.67075 0.04949 0.77576 0.0
C828 C 0.61495 0.97716 0.80328 0.0
N829 N 0.59337 0.94156 0.84191 0.0
C830 C 0.62626 0.97788 0.8302 0.0
C831 C 0.59267 0.95832 0.79602 0.0
C832 C 0.61505 0.95973 0.84942 0.0
C833 C 0.58206 0.94048 0.81583 0.0
C834 C 0.68734 0.05381 0.82878 0.0
C835 C 0.69467 0.10148 0.85478 0.0
N836 N 0.72087 0.09551 0.85855 0.0
C837 C 0.71429 0.04808 0.83304 0.0
C838 C 0.67739 0.08067 0.83981 0.0
C839 C 0.73094 0.06947 0.8481 0.0
C840 C 0.71387 0.97143 0.78747 0.0
N841 N 0.68678 0.96666 0.79038 0.0
C842 C 0.69297 0.91757 0.79972 0.0
C843 C 0.67608 0.94017 0.79585 0.0
C844 C 0.72115 0.922 0.79732 0.0
C845 C 0.73147 0.94939 0.79082 0.0
H846 H 0.72179 0.99239 0.78216 0.0
H847 H 0.65449 0.93634 0.79704 0.0
C848 C 0.58386 0.05559 0.8297 0.0
N849 N 0.60887 0.04707 0.83534 0.0
C850 C 0.56566 0.06326 0.85193 0.0
C851 C 0.59942 0.05362 0.88537 0.0
C852 C 0.61699 0.04623 0.86251 0.0
C853 C 0.57324 0.06205 0.88025 0.0
H854 H 0.57792 0.05598 0.80788 0.0
H855 H 0.63703 0.03948 0.86645 0.0
C856 C 0.67947 0.99175 0.72764 0.0
N857 N 0.68901 0.94556 0.68678 0.0
C858 C 0.70051 0.99394 0.70784 0.0
C859 C 0.6633 0.96603 0.72669 0.0
C860 C 0.705 0.97036 0.68733 0.0
C861 C 0.66845 0.94294 0.70587 0.0
C862 C 0.6297 0.0779 0.75151 0.0
C863 C 0.64731 0.07678 0.72803 0.0
C864 C 0.60906 0.09766 0.7539 0.0
C865 C 0.64394 0.09549 0.70729 0.0
C866 C 0.60636 0.11602 0.7327 0.0
N867 N 0.62371 0.11455 0.71003 0.0
C868 C 0.58716 1.00015 0.72339 0.0
C869 C 0.62362 1.011 0.69277 0.0
C870 C 0.57022 0.99267 0.70012 0.0
N871 N 0.6133 1.00915 0.71939 0.0
C872 C 0.60738 1.00376 0.66888 0.0
C873 C 0.58018 0.99452 0.67232 0.0
H874 H 0.57936 0.99905 0.74475 0.0
H875 H 0.64447 0.01817 0.69002 0.0
C876 C 0.7236 0.07247 0.76639 0.0
N877 N 0.6979 0.0801 0.77306 0.0
C878 C 0.74449 0.09388 0.76628 0.0
C879 C 0.7121 0.13059 0.77998 0.0
C880 C 0.69184 0.10849 0.7798 0.0
C881 C 0.7389 0.12345 0.77316 0.0
H882 H 0.72791 0.04966 0.7616 0.0
H883 H 0.67131 0.11394 0.78543 0.0
O884 O 0.62521 0.99508 0.78422 0.0
O885 O 0.6709 0.0335 0.81337 0.0
O886 O 0.67498 0.01475 0.74781 0.0
O887 O 0.63239 0.05973 0.77209 0.0
H888 H 0.64367 0.99206 0.83611 0.0
H889 H 0.58366 0.95749 0.77528 0.0
H890 H 0.62363 0.96005 0.8703 0.0
H891 H 0.56482 0.92579 0.81049 0.0
H892 H 0.68729 0.12244 0.86325 0.0
H893 H 0.72232 0.02741 0.82471 0.0
H894 H 0.65667 0.08561 0.83639 0.0
H895 H 0.75188 0.06539 0.85145 0.0
H896 H 0.68398 0.89694 0.80478 0.0
H897 H 0.75293 0.9537 0.78789 0.0
H898 H 0.54556 0.06917 0.84691 0.0
H899 H 0.60622 0.0526 0.90682 0.0
H900 H 0.71321 1.01371 0.70833 0.0
H901 H 0.64693 0.96385 0.74181 0.0
H902 H 0.7212 0.97177 0.67185 0.0
H903 H 0.65609 0.92292 0.70488 0.0
H904 H 0.66343 0.06169 0.72578 0.0
H905 H 0.59526 0.09876 0.77195 0.0
H906 H 0.65741 0.09484 0.68901 0.0
H907 H 0.59047 0.13141 0.73427 0.0
H908 H 0.54932 0.98626 0.70399 0.0
H909 H 0.61607 1.00536 0.64793 0.0
H910 H 0.76484 0.08732 0.7611 0.0
H911 H 0.7067 0.15307 0.78495 0.0
Li912 Li 0.0325 0.24775 0.89457 0.0
Li913 Li 1.00884 0.26978 0.94117 0.0
Li914 Li 0.01761 0.21687 0.93091 0.0
Li915 Li 0.98452 0.23745 0.90399 0.0
C916 C 0.06305 0.24134 0.95217 0.0
N917 N 0.09917 0.21962 0.98728 0.0
C918 C 0.0602 0.24683 0.98169 0.0
C919 C 0.08442 0.22502 0.94049 0.0
C920 C 0.07863 0.23561 0.99909 0.0
C921 C 0.10243 0.21417 0.9586 0.0
C922 C 0.98446 0.2896 0.8866 0.0
C923 C 0.94506 0.31832 0.88691 0.0
N924 N 0.94485 0.31409 0.858 0.0
C925 C 0.98401 0.28572 0.8569 0.0
C926 C 0.96495 0.30615 0.90177 0.0
C927 C 0.96375 0.29821 0.84283 0.0
C928 C 0.0616 0.28081 0.85627 0.0
N929 N 0.05959 0.25476 0.86712 0.0
C930 C 0.09807 0.2381 0.83994 0.0
C931 C 0.07705 0.2334 0.85915 0.0
C932 C 0.10088 0.2649 0.82858 0.0
C933 C 0.08214 0.28631 0.8367 0.0
H934 H 0.04745 0.29742 0.86308 0.0
H935 H 0.07478 0.21281 0.86795 0.0
C936 C 1.00198 0.30028 0.99682 0.0
N937 N 1.00866 0.30318 0.96925 0.0
C938 C 1.00184 0.32482 0.01713 0.0
C939 C 0.01581 0.3548 0.9804 0.0
C940 C 0.01572 0.3297 0.96083 0.0
C941 C 1.00864 0.35267 1.00903 0.0
H942 H 0.99662 0.2789 1.00302 0.0
H943 H 0.02099 0.33139 0.93878 0.0
C944 C 1.00467 0.18139 0.8813 0.0
N945 N 0.98904 0.12366 0.86572 0.0
C946 C 0.98097 0.16951 0.89258 0.0
C947 C 0.02036 0.16399 0.86196 0.0
C948 C 0.97341 0.14027 0.88447 0.0
C949 C 1.01215 0.13482 0.8544 0.0
C950 C 0.95974 0.23281 0.95858 0.0
C951 C 0.94892 0.20523 0.9632 0.0
C952 C 0.94546 0.25759 0.96791 0.0
C953 C 0.92361 0.20283 0.97641 0.0
C954 C 0.92022 0.25429 0.98105 0.0
N955 N 0.90989 0.22721 0.98495 0.0
C956 C 0.02115 0.18513 0.97768 0.0
C957 C 0.04366 0.16329 0.93662 0.0
C958 C 0.03024 0.1641 0.99374 0.0
N959 N 0.0281 0.18452 0.94973 0.0
C960 C 0.05288 0.14147 0.95184 0.0
C961 C 0.04647 0.14199 0.9809 0.0
H962 H 1.00905 0.20245 0.98766 0.0
H963 H 0.04949 0.16369 0.91455 0.0
C964 C 0.95259 0.21977 0.85551 0.0
N965 N 0.95074 0.23177 0.88307 0.0
C966 C 0.9302 0.218 0.83774 0.0
C967 C 0.904 0.24048 0.877 0.0
C968 C 0.92693 0.24188 0.89401 0.0
C969 C 0.90547 0.22882 0.84826 0.0
H970 H 0.97182 0.21264 0.84689 0.0
H971 H 0.92584 0.25212 0.91556 0.0
O972 O 0.04462 0.25124 0.93482 0.0
O973 O 1.00351 0.27669 0.90079 0.0
O974 O 1.0126 0.2099 0.88911 0.0
O975 O 0.98473 0.23563 0.9462 0.0
H976 H 0.0437 0.25925 0.99109 0.0
H977 H 0.08687 0.22046 0.91772 0.0
H978 H 0.07653 0.2395 0.02197 0.0
H979 H 0.11893 0.20132 0.94985 0.0
H980 H 0.92972 0.33103 0.89837 0.0
H981 H 0.99889 0.2728 0.84488 0.0
H982 H 0.96502 0.30931 0.92477 0.0
H983 H 0.96299 0.29517 0.81986 0.0
H984 H 0.11195 0.22095 0.83398 0.0
H985 H 0.08377 0.30734 0.82858 0.0
H986 H 0.99638 0.322 0.03893 0.0
H987 H 0.02068 0.37575 0.97293 0.0
H988 H 0.96847 0.18279 0.90725 0.0
H989 H 0.03874 0.17289 0.85298 0.0
H990 H 0.9551 0.1308 0.89304 0.0
H991 H 0.02414 0.12106 0.83953 0.0
H992 H 0.96004 0.18587 0.95691 0.0
H993 H 0.95362 0.27913 0.96472 0.0
H994 H 0.91494 0.18161 0.98 0.0
H995 H 0.90884 0.27326 0.98813 0.0
H996 H 0.02448 0.16503 0.016 0.0
H997 H 0.06539 0.12484 0.94121 0.0
H998 H 0.93266 0.20943 0.81564 0.0
H999 H 0.88542 0.24899 0.88621 0.0
Li1000 Li 0.53083 0.74861 0.3918 0.0
Li1001 Li 0.50891 0.77209 0.43679 0.0
Li1002 Li 0.51794 0.71761 0.42774 0.0
Li1003 Li 0.48362 0.7381 0.40131 0.0
C1004 C 0.56996 0.76186 0.42703 0.0
N1005 N 0.62166 0.78236 0.41491 0.0
C1006 C 0.57671 0.79175 0.43131 0.0
C1007 C 0.58956 0.74239 0.41669 0.0
C1008 C 0.60294 0.80168 0.42505 0.0
C1009 C 0.61556 0.75318 0.41065 0.0
C1010 C 0.48342 0.79011 0.38255 0.0
C1011 C 0.44395 0.81861 0.38215 0.0
N1012 N 0.44425 0.81445 0.35323 0.0
C1013 C 0.48348 0.78627 0.35284 0.0
C1014 C 0.46361 0.80649 0.39737 0.0
C1015 C 0.46344 0.79869 0.3384 0.0
C1016 C 0.56138 0.78477 0.35761 0.0
N1017 N 0.55691 0.75669 0.36321 0.0
C1018 C 0.59208 0.74085 0.33068 0.0
C1019 C 0.5714 0.73476 0.3498 0.0
C1020 C 0.59748 0.76969 0.32488 0.0
C1021 C 0.58159 0.79178 0.33822 0.0
H1022 H 0.54959 0.80179 0.36866 0.0
H1023 H 0.56735 0.71265 0.35445 0.0
C1024 C 0.50719 0.80258 0.49267 0.0
N1025 N 0.50908 0.80587 0.46449 0.0
C1026 C 0.50752 0.82707 0.51309 0.0
C1027 C 0.51245 0.85784 0.47516 0.0
C1028 C 0.51181 0.8328 0.4555 0.0
C1029 C 0.51013 0.85523 0.50444 0.0
H1030 H 0.50528 0.7809 0.49927 0.0
H1031 H 0.51348 0.83483 0.43298 0.0
C1032 C 0.51137 0.68056 0.38258 0.0
N1033 N 0.51207 0.62031 0.37651 0.0
C1034 C 0.4872 0.66369 0.37998 0.0
C1035 C 0.53589 0.66672 0.38222 0.0
C1036 C 0.48799 0.63328 0.37686 0.0
C1037 C 0.53582 0.63626 0.37913 0.0
C1038 C 0.45871 0.73317 0.45201 0.0
C1039 C 0.4453 0.70603 0.44531 0.0
C1040 C 0.44518 0.75586 0.46745 0.0
C1041 C 0.41844 0.70209 0.45402 0.0
C1042 C 0.41834 0.75102 0.47584 0.0
N1043 N 0.40563 0.72447 0.46899 0.0
C1044 C 0.55381 0.68816 0.45943 0.0
C1045 C 0.51256 0.66151 0.44929 0.0
C1046 C 0.56302 0.66589 0.47395 0.0
N1047 N 0.52901 0.68563 0.44734 0.0
C1048 C 0.52098 0.63865 0.46356 0.0
C1049 C 0.5465 0.64071 0.47632 0.0
H1050 H 0.56638 0.7077 0.4582 0.0
H1051 H 0.4928 0.66 0.43994 0.0
C1052 C 0.45081 0.71993 0.35375 0.0
N1053 N 0.44942 0.73279 0.38105 0.0
C1054 C 0.4283 0.7182 0.33615 0.0
C1055 C 0.40301 0.74296 0.37492 0.0
C1056 C 0.42605 0.74425 0.39177 0.0
C1057 C 0.40397 0.73013 0.34651 0.0
H1058 H 0.46979 0.71191 0.34524 0.0
H1059 H 0.42544 0.75554 0.41298 0.0
O1060 O 0.54411 0.75183 0.4321 0.0
O1061 O 0.50232 0.77732 0.39706 0.0
O1062 O 0.51104 0.71041 0.38575 0.0
O1063 O 0.48501 0.73747 0.44378 0.0
H1064 H 0.5618 0.80715 0.43912 0.0
H1065 H 0.58461 0.71922 0.41279 0.0
H1066 H 0.6084 0.82477 0.42816 0.0
H1067 H 0.63084 0.73838 0.40241 0.0
H1068 H 0.42836 0.83116 0.39332 0.0
H1069 H 0.49864 0.7735 0.3411 0.0
H1070 H 0.46316 0.80941 0.42039 0.0
H1071 H 0.46309 0.79572 0.31541 0.0
H1072 H 0.60381 0.72322 0.3206 0.0
H1073 H 0.58531 0.81431 0.33438 0.0
H1074 H 0.50578 0.824 0.5354 0.0
H1075 H 0.51404 0.87906 0.46743 0.0
H1076 H 0.46799 0.67387 0.38072 0.0
H1077 H 0.55476 0.6793 0.38501 0.0
H1078 H 0.46943 0.62 0.37488 0.0
H1079 H 0.55464 0.62531 0.37902 0.0
H1080 H 0.4554 0.68833 0.43321 0.0
H1081 H 0.45521 0.77704 0.47271 0.0
H1082 H 0.40776 0.68125 0.44884 0.0
H1083 H 0.40758 0.7684 0.48772 0.0
H1084 H 0.58281 0.66851 0.48343 0.0
H1085 H 0.50725 0.62 0.46536 0.0
H1086 H 0.43037 0.70876 0.31426 0.0
H1087 H 0.38479 0.75247 0.38395 0.0
Li1088 Li 0.02964 0.81785 0.63651 0.0
Li1089 Li 0.99566 0.78966 0.66906 0.0
Li1090 Li 0.04432 0.78137 0.66547 0.0
Li1091 Li 0.01754 0.76514 0.62629 0.0
C1092 C 0.043 0.83031 0.70084 0.0
N1093 N 0.0765 0.85218 0.74495 0.0
C1094 C 0.03889 0.82136 0.72788 0.0
C1095 C 0.06406 0.85051 0.69627 0.0
C1096 C 0.05609 0.8326 0.74988 0.0
C1097 C 0.08078 0.86131 0.71885 0.0
C1098 C 0.97611 0.79104 0.60572 0.0
C1099 C 0.93405 0.77085 0.5856 0.0
N1100 N 0.94377 0.77476 0.55917 0.0
C1101 C 0.98562 0.79499 0.57839 0.0
C1102 C 0.95009 0.77895 0.6094 0.0
C1103 C 0.969 0.78656 0.55512 0.0
C1104 C 0.04887 0.84831 0.59198 0.0
N1105 N 0.03907 0.85275 0.61906 0.0
C1106 C 0.04541 0.90453 0.61881 0.0
C1107 C 0.03718 0.8802 0.63263 0.0
C1108 C 0.05545 0.90062 0.59062 0.0
C1109 C 0.05705 0.87188 0.57733 0.0
H1110 H 0.05047 0.82629 0.58173 0.0
H1111 H 0.02946 0.88324 0.65424 0.0
C1112 C 0.96828 0.77786 0.71945 0.0
N1113 N 0.96517 0.79058 0.69519 0.0
C1114 C 0.94701 0.77633 0.73919 0.0
C1115 C 0.9193 0.8003 0.70835 0.0
C1116 C 0.94132 0.80199 0.6895 0.0
C1117 C 0.92202 0.78734 0.73358 0.0
H1118 H 0.98726 0.76848 0.7233 0.0
H1119 H 0.9393 0.8122 0.67024 0.0
C1120 C 0.08037 0.78191 0.62361 0.0
N1121 N 0.13544 0.77489 0.62127 0.0
C1122 C 0.09053 0.75418 0.62365 0.0
C1123 C 0.09823 0.80606 0.62221 0.0
C1124 C 0.11843 0.75109 0.62254 0.0
C1125 C 0.126 0.80206 0.62105 0.0
C1126 C 1.00453 0.72432 0.65975 0.0
C1127 C 0.0224 0.70238 0.65113 0.0
C1128 C 0.97703 0.7171 0.66286 0.0
C1129 C 1.01239 0.67357 0.64539 0.0
C1130 C 0.96782 0.68801 0.65699 0.0
N1131 N 0.98554 0.66704 0.64841 0.0
C1132 C 0.0683 0.74796 0.70327 0.0
C1133 C 0.09673 0.78757 0.69143 0.0
C1134 C 0.08801 0.73935 0.72081 0.0
N1135 N 0.07299 0.77157 0.68885 0.0
C1136 C 0.11703 0.77972 0.7087 0.0
C1137 C 0.1128 0.75529 0.72365 0.0
H1138 H 0.04917 0.7358 0.70127 0.0
H1139 H 0.09993 0.80655 0.68024 0.0
C1140 C 0.03334 0.72868 0.57659 0.0
N1141 N 1.01225 0.73495 0.59477 0.0
C1142 C 0.03069 0.70627 0.55414 0.0
C1143 C 0.9843 0.69801 0.56869 0.0
C1144 C 0.98801 0.72009 0.59114 0.0
C1145 C 1.00587 0.69074 0.54998 0.0
H1146 H 0.05232 0.74096 0.57953 0.0
H1147 H 0.97155 0.72513 0.60582 0.0
O1148 O 0.02662 0.81926 0.67892 0.0
O1149 O 0.99223 0.79883 0.62873 0.0
O1150 O 0.05309 0.78537 0.62476 0.0
O1151 O 0.01394 0.7527 0.66519 0.0
H1152 H 0.02276 0.80571 0.73177 0.0
H1153 H 0.06778 0.85738 0.67541 0.0
H1154 H 0.05324 0.82573 0.77087 0.0
H1155 H 0.09726 0.8768 0.71556 0.0
H1156 H 0.91395 0.76127 0.58811 0.0
H1157 H 1.00573 0.80415 0.57514 0.0
H1158 H 0.94253 0.77527 0.63032 0.0
H1159 H 0.97618 0.78933 0.53383 0.0
H1160 H 0.04394 0.92613 0.63016 0.0
H1161 H 0.06396 0.86748 0.5555 0.0
H1162 H 0.94988 0.76613 0.75835 0.0
H1163 H 0.90041 0.80937 0.70346 0.0
H1164 H 0.07703 0.73526 0.62471 0.0
H1165 H 0.09081 0.82774 0.62247 0.0
H1166 H 0.12656 0.72977 0.62271 0.0
H1167 H 0.14005 0.82057 0.62013 0.0
H1168 H 0.04375 0.70756 0.6488 0.0
H1169 H 0.96286 0.73378 0.66933 0.0
H1170 H 0.02597 0.65639 0.63855 0.0
H1171 H 0.94657 0.68213 0.65913 0.0
H1172 H 0.08396 0.72026 0.73182 0.0
H1173 H 0.13566 0.79294 0.71068 0.0
H1174 H 0.04775 0.70127 0.54009 0.0
H1175 H 0.96493 0.68621 0.5664 0.0
Li1176 Li 0.52797 0.32232 0.13645 0.0
Li1177 Li 0.49825 0.29427 0.16921 0.0
Li1178 Li 0.54672 0.28859 0.16773 0.0
Li1179 Li 0.51826 0.26894 0.12722 0.0
C1180 C 0.54334 0.34838 0.19095 0.0
N1181 N 0.57502 0.39584 0.21363 0.0
C1182 C 0.53504 0.36517 0.21574 0.0
C1183 C 0.56769 0.35575 0.17764 0.0
C1184 C 0.55138 0.38906 0.22691 0.0
C1185 C 0.58343 0.37982 0.18944 0.0
C1186 C 0.47722 0.29173 0.10531 0.0
C1187 C 0.44584 0.2569 0.08025 0.0
N1188 N 0.44875 0.27147 0.0569 0.0
C1189 C 0.47976 0.30647 0.08114 0.0
C1190 C 0.45998 0.26687 0.10497 0.0
C1191 C 0.46523 0.29585 0.05685 0.0
C1192 C 0.54676 0.35119 0.09065 0.0
N1193 N 0.53654 0.35651 0.11749 0.0
C1194 C 0.54231 0.40806 0.11542 0.0
C1195 C 0.53405 0.38431 0.12998 0.0
C1196 C 0.55276 0.4033 0.08743 0.0
C1197 C 0.55478 0.37421 0.07516 0.0
H1198 H 0.54852 0.32889 0.08117 0.0
H1199 H 0.52595 0.3881 0.15139 0.0
C1200 C 0.47338 0.3003 0.22391 0.0
N1201 N 0.46793 0.29491 0.19569 0.0
C1202 C 0.45275 0.29847 0.24433 0.0
C1203 C 0.42104 0.28599 0.20636 0.0
C1204 C 0.44232 0.28796 0.18666 0.0
C1205 C 0.42605 0.29117 0.23573 0.0
H1206 H 0.49395 0.30544 0.2306 0.0
H1207 H 0.4384 0.2837 0.16417 0.0
C1208 C 0.57776 0.28169 0.11728 0.0
N1209 N 0.6277 0.26233 0.09889 0.0
C1210 C 0.58205 0.25181 0.11271 0.0
C1211 C 0.59878 0.30172 0.11214 0.0
C1212 C 0.60746 0.24245 0.10353 0.0
C1213 C 0.6239 0.2915 0.10294 0.0
C1214 C 0.50524 0.24309 0.18636 0.0
C1215 C 0.51575 0.24529 0.21375 0.0
C1216 C 0.48111 0.2269 0.18031 0.0
C1217 C 0.50184 0.23133 0.2347 0.0
C1218 C 0.46778 0.21333 0.20186 0.0
N1219 N 0.47833 0.21581 0.22838 0.0
C1220 C 0.58921 0.29859 0.20935 0.0
C1221 C 0.58528 0.25163 0.18346 0.0
C1222 C 0.61096 0.29029 0.22437 0.0
N1223 N 0.57713 0.27946 0.18894 0.0
C1224 C 0.60684 0.24232 0.19811 0.0
C1225 C 0.62005 0.26185 0.21878 0.0
H1226 H 0.58178 0.32007 0.21464 0.0
H1227 H 0.57468 0.23644 0.168 0.0
C1228 C 0.51899 0.24331 0.06951 0.0
N1229 N 0.51523 0.23774 0.09696 0.0
C1230 C 0.51713 0.22056 0.04733 0.0
C1231 C 0.5087 0.18671 0.08219 0.0
C1232 C 0.51046 0.2101 0.10362 0.0
C1233 C 0.5119 0.19178 0.05356 0.0
H1234 H 0.52337 0.26545 0.06485 0.0
H1235 H 0.50811 0.20619 0.12562 0.0
O1236 O 0.52732 0.32525 0.17951 0.0
O1237 O 0.49169 0.30147 0.12911 0.0
O1238 O 0.55299 0.29131 0.12623 0.0
O1239 O 0.51818 0.25724 0.16575 0.0
H1240 H 0.51616 0.35983 0.22621 0.0
H1241 H 0.57439 0.34294 0.15851 0.0
H1242 H 0.54523 0.40226 0.2461 0.0
H1243 H 0.60234 0.38575 0.17937 0.0
H1244 H 0.43264 0.23752 0.0796 0.0
H1245 H 0.49286 0.32585 0.0811 0.0
H1246 H 0.45793 0.25507 0.12341 0.0
H1247 H 0.46709 0.30697 0.03794 0.0
H1248 H 0.54057 0.4299 0.12611 0.0
H1249 H 0.56191 0.36907 0.0535 0.0
H1250 H 0.45777 0.30241 0.26663 0.0
H1251 H 0.4008 0.28091 0.19856 0.0
H1252 H 0.56604 0.23596 0.1165 0.0
H1253 H 0.59575 0.32493 0.11509 0.0
H1254 H 0.6111 0.21939 0.10011 0.0
H1255 H 0.64037 0.30677 0.09896 0.0
H1256 H 0.53423 0.25796 0.21894 0.0
H1257 H 0.47256 0.22514 0.15931 0.0
H1258 H 0.50967 0.23298 0.25602 0.0
H1259 H 0.44899 0.20091 0.19752 0.0
H1260 H 0.6201 0.30576 0.24074 0.0
H1261 H 0.61312 0.22013 0.19329 0.0
H1262 H 0.51988 0.22539 0.02558 0.0
H1263 H 0.50427 0.16495 0.08797 0.0
C1264 C 0.25832 0.75477 0.86165 0.0
C1265 C 0.23392 0.73823 0.86151 0.0
H1266 H 0.28451 0.78647 0.88533 0.0
C1267 C 0.21882 0.73778 0.88679 0.0
H1268 H 0.27006 0.75551 0.8422 0.0
C1269 C 0.22671 0.75564 0.9113 0.0
C1270 C 0.24989 0.77434 0.91089 0.0
H1271 H 0.19981 0.72526 0.88687 0.0
H1272 H 0.21352 0.75639 0.92984 0.0
C1273 C 0.26628 0.77273 0.88617 0.0
C1274 C 0.03201 0.54826 0.44837 0.0
C1275 C 1.01169 0.56827 0.44767 0.0
H1276 H 0.06696 0.52966 0.42793 0.0
C1277 C 0.01307 0.58779 0.42703 0.0
H1278 H 0.03113 0.53296 0.46411 0.0
C1279 C 0.03354 0.58599 0.40616 0.0
C1280 C 0.05304 0.56468 0.40573 0.0
H1281 H 0.9974 0.6032 0.42608 0.0
H1282 H 0.03361 0.60065 0.38986 0.0
C1283 C 0.05249 0.54647 0.42765 0.0
C1284 C 0.83454 0.76784 0.85797 0.0
C1285 C 0.81585 0.76539 0.83588 0.0
H1286 H 0.84655 0.75201 0.89646 0.0
C1287 C 0.79664 0.74196 0.8338 0.0
H1288 H 0.84925 0.786 0.86022 0.0
C1289 C 0.79456 0.72286 0.85478 0.0
C1290 C 0.81173 0.72674 0.87839 0.0
H1291 H 0.78181 0.73993 0.81711 0.0
H1292 H 0.77822 0.7064 0.85347 0.0
C1293 C 0.83254 0.74871 0.87901 0.0
C1294 C 1.0116 0.02272 0.44761 0.0
C1295 C 0.0229 0.99601 0.45058 0.0
H1296 H 0.98403 0.04551 0.42489 0.0
C1297 C 0.01492 0.97116 0.43234 0.0
H1298 H 0.01772 0.0421 0.46148 0.0
C1299 C 0.99551 0.97286 0.41165 0.0
C1300 C 0.98384 0.99956 0.4087 0.0
H1301 H 0.02365 0.95043 0.43432 0.0
H1302 H 0.98938 0.95317 0.39823 0.0
C1303 C 0.99222 0.02451 0.42687 0.0
C1304 C 0.25575 0.26868 0.69001 0.0
C1305 C 0.23154 0.2833 0.69132 0.0
H1306 H 0.28319 0.24252 0.66393 0.0
C1307 C 0.21803 0.28598 0.66608 0.0
H1308 H 0.26626 0.26617 0.70937 0.0
C1309 C 0.22761 0.27264 0.64007 0.0
C1310 C 0.25087 0.25617 0.63882 0.0
H1311 H 0.19937 0.29735 0.66675 0.0
H1312 H 0.21628 0.27444 0.62106 0.0
C1313 C 0.26534 0.25517 0.664 0.0
C1314 C 0.49887 0.51196 0.61553 0.0
C1315 C 0.51412 0.53812 0.6143 0.0
H1316 H 0.46927 0.48841 0.63845 0.0
C1317 C 0.5108 0.56132 0.63572 0.0
H1318 H 0.50109 0.4939 0.59907 0.0
C1319 C 0.49235 0.5585 0.658 0.0
C1320 C 0.47696 0.5323 0.65935 0.0
H1321 H 0.52255 0.58161 0.63517 0.0
H1322 H 0.48994 0.57696 0.67398 0.0
C1323 C 0.48049 0.50902 0.63787 0.0
C1324 C 0.80606 0.26827 0.67805 0.0
C1325 C 0.8045 0.27925 0.70685 0.0
H1326 H 0.80092 0.27626 0.63495 0.0
C1327 C 0.79713 0.30813 0.71428 0.0
H1328 H 0.81199 0.24613 0.67195 0.0
C1329 C 0.79051 0.32546 0.69316 0.0
C1330 C 0.79116 0.31413 0.66425 0.0
H1331 H 0.79567 0.31688 0.73644 0.0
H1332 H 0.78409 0.34737 0.69952 0.0
C1333 C 0.79951 0.28548 0.65698 0.0
C1334 C 0.54405 1.00357 0.60393 0.0
C1335 C 0.52275 0.98248 0.60402 0.0
H1336 H 0.57861 0.02418 0.62541 0.0
C1337 C 0.5221 0.96313 0.62483 0.0
H1338 H 0.54478 0.01879 0.58811 0.0
C1339 C 0.54143 0.96614 0.64635 0.0
C1340 C 0.56185 0.98853 0.64739 0.0
H1341 H 0.50568 0.9469 0.62541 0.0
H1342 H 0.53987 0.9515 0.66269 0.0
C1343 C 0.56339 1.00658 0.62532 0.0
C1344 C 0.846 0.25686 0.81128 0.0
C1345 C 0.8419 0.23526 0.78821 0.0
H1346 H 0.86936 0.2721 0.84792 0.0
C1347 C 0.85703 0.21017 0.7864 0.0
H1348 H 0.83443 0.27631 0.81317 0.0
C1349 C 0.87695 0.20747 0.80647 0.0
C1350 C 0.88215 0.22985 0.82881 0.0
H1351 H 0.85433 0.19332 0.76869 0.0
H1352 H 0.8887 0.18813 0.80409 0.0
C1353 C 0.86591 0.25427 0.83128 0.0
C1354 C 0.48423 0.90957 0.5638 0.0
C1355 C 0.49923 0.93511 0.55904 0.0
H1356 H 0.47586 0.86427 0.55027 0.0
C1357 C 0.52038 0.93342 0.53896 0.0
H1358 H 0.46745 0.91066 0.57879 0.0
C1359 C 0.52505 0.90702 0.52224 0.0
C1360 C 0.50866 0.88181 0.52545 0.0
H1361 H 0.53179 0.95304 0.53463 0.0
H1362 H 0.54064 0.90667 0.50588 0.0
C1363 C 0.48897 0.88312 0.5473 0.0
C1364 C 0.14122 0.28936 0.7659 0.0
C1365 C 0.16749 0.28306 0.77288 0.0
H1366 H 0.09937 0.28864 0.77824 0.0
C1367 C 0.17177 0.27036 0.79784 0.0
H1368 H 0.13768 0.29927 0.74672 0.0
C1369 C 0.15007 0.2641 0.81571 0.0
C1370 C 0.12372 0.27077 0.80906 0.0
H1371 H 0.19198 0.26539 0.80345 0.0
H1372 H 0.15396 0.25458 0.83504 0.0
C1373 C 0.11948 0.28345 0.78396 0.0
C1374 C 0.55127 0.56755 0.50516 0.0
C1375 C 0.56124 0.57635 0.53244 0.0
H1376 H 0.53891 0.58103 0.46568 0.0
C1377 C 0.57007 0.60551 0.53951 0.0
H1378 H 0.54385 0.54523 0.49962 0.0
C1379 C 0.56692 0.6261 0.52048 0.0
C1380 C 0.55469 0.61792 0.49401 0.0
H1381 H 0.5772 0.61274 0.56074 0.0
H1382 H 0.57215 0.64878 0.52748 0.0
C1383 C 0.54798 0.58816 0.48607 0.0
C1384 C 0.85099 0.77654 0.76294 0.0
C1385 C 0.85322 0.79107 0.79056 0.0
H1386 H 0.871 0.76445 0.72301 0.0
C1387 C 0.87884 0.80114 0.80048 0.0
H1388 H 0.83129 0.7694 0.75466 0.0
C1389 C 0.90162 0.79825 0.78251 0.0
C1390 C 0.89897 0.78592 0.75406 0.0
H1391 H 0.88082 0.81319 0.8214 0.0
H1392 H 0.92094 0.80751 0.79021 0.0
C1393 C 0.87359 0.77423 0.74475 0.0
C1394 C 0.04979 0.97216 0.55901 0.0
C1395 C 0.06758 0.96848 0.53559 0.0
H1396 H 0.03143 0.95352 0.5943 0.0
C1397 C 0.08483 0.94514 0.53335 0.0
H1398 H 0.03621 0.99001 0.56099 0.0
C1399 C 0.0824 0.92418 0.5526 0.0
C1400 C 0.06238 0.926 0.57427 0.0
H1401 H 0.09853 0.94177 0.51531 0.0
H1402 H 0.09521 0.9057 0.54948 0.0
C1403 C 0.04706 0.95112 0.57805 0.0
C1404 C 0.14706 0.73037 0.78705 0.0
C1405 C 0.17427 0.73164 0.77853 0.0
H1406 H 0.10626 0.73719 0.77651 0.0
C1407 C 0.18124 0.74012 0.75174 0.0
H1408 H 0.14139 0.72382 0.80767 0.0
C1409 C 0.16128 0.74761 0.73381 0.0
C1410 C 0.13397 0.7467 0.74239 0.0
H1411 H 0.20219 0.7414 0.74496 0.0
H1412 H 0.16721 0.75403 0.7132 0.0
C1413 C 0.12707 0.73782 0.76915 0.0
C1414 C 0.97328 0.63907 0.49178 0.0
C1415 C 0.98857 0.61432 0.49226 0.0
H1416 H 0.96676 0.68285 0.51001 0.0
C1417 C 1.01236 0.61656 0.50806 0.0
H1418 H 0.95487 0.63766 0.47967 0.0
C1419 C 0.0193 0.64243 0.52535 0.0
C1420 C 1.00235 0.66618 0.52714 0.0
H1421 H 0.0242 0.59756 0.50892 0.0
H1422 H 0.03667 0.64305 0.53897 0.0
C1423 C 0.97995 0.66471 0.50926 0.0
C1424 C 0.77067 0.8307 0.26094 0.0
C1425 C 0.75178 0.83245 0.2396 0.0
H1426 H 0.80522 0.85069 0.28301 0.0
C1427 C 0.75536 0.85434 0.22148 0.0
H1428 H 0.76834 0.81371 0.2749 0.0
C1429 C 0.77631 0.87565 0.22613 0.0
C1430 C 0.79401 0.8753 0.24899 0.0
H1431 H 0.74083 0.85609 0.20504 0.0
H1432 H 0.77756 0.89338 0.21295 0.0
C1433 C 0.79157 0.85194 0.26564 0.0
C1434 C 0.77913 0.19079 0.31854 0.0
C1435 C 0.75125 0.18436 0.31843 0.0
H1436 H 0.81863 0.17381 0.31725 0.0
C1437 C 0.7416 0.15566 0.32046 0.0
H1438 H 0.78686 0.21282 0.31664 0.0
C1439 C 0.75958 0.13333 0.32095 0.0
C1440 C 0.78762 0.13926 0.31916 0.0
H1441 H 0.72009 0.15043 0.32054 0.0
H1442 H 0.75147 0.11127 0.32191 0.0
C1443 C 0.79721 0.16843 0.31884 0.0
C1444 C 0.40476 0.02742 0.96645 0.0
C1445 C 0.4256 0.03559 0.98566 0.0
H1446 H 0.36734 1.00305 0.95862 0.0
C1447 C 0.42457 0.02555 0.01251 0.0
H1448 H 0.40529 0.03522 0.94571 0.0
C1449 C 0.40293 1.00745 0.0201 0.0
C1450 C 0.38188 0.99916 1.00093 0.0
H1451 H 0.44052 0.0319 0.02758 0.0
H1452 H 0.40248 1.0003 0.04112 0.0
C1453 C 0.38305 1.00932 0.97399 0.0
C1454 C 0.2819 0.38238 0.31446 0.0
C1455 C 0.27486 0.35332 0.30453 0.0
H1456 H 0.26998 0.42656 0.32009 0.0
C1457 C 0.24964 0.34648 0.29203 0.0
H1458 H 0.30124 0.38792 0.32438 0.0
C1459 C 0.23182 0.36853 0.28905 0.0
C1460 C 0.23883 0.39785 0.2988 0.0
H1461 H 0.24402 0.32413 0.28412 0.0
H1462 H 0.21281 0.36263 0.27858 0.0
C1463 C 0.26405 0.40441 0.31178 0.0
C1464 C 0.12941 1.00103 0.4945 0.0
C1465 C 0.10586 1.01214 0.50756 0.0
H1466 H 0.17125 1.00907 0.48477 0.0
C1467 C 0.10746 0.03926 0.5242 0.0
H1468 H 0.12835 0.98048 0.48093 0.0
C1469 C 0.13186 0.05588 0.52629 0.0
C1470 C 0.15518 0.04575 0.51158 0.0
H1471 H 0.08935 0.04844 0.53391 0.0
H1472 H 0.13217 0.07718 0.53854 0.0
C1473 C 0.15386 0.01758 0.49654 0.0
C1474 C 0.77823 0.19629 0.78681 0.0
C1475 C 0.79523 0.19529 0.76278 0.0
H1476 H 0.74709 0.17411 0.80923 0.0
C1477 C 0.79634 0.16925 0.74449 0.0
H1478 H 0.77685 0.21639 0.80087 0.0
C1479 C 0.77917 0.14524 0.74885 0.0
C1480 C 0.76041 0.14691 0.77159 0.0
H1481 H 0.80904 0.16835 0.72558 0.0
H1482 H 0.77929 0.1262 0.73322 0.0
C1483 C 0.76093 0.17229 0.7912 0.0
C1484 C 0.41434 1.01049 0.56509 0.0
C1485 C 0.44151 0.02005 0.56324 0.0
H1486 H 0.3731 0.01975 0.55921 0.0
C1487 C 0.44784 0.04772 0.55473 0.0
H1488 H 0.40905 0.98926 0.57177 0.0
C1489 C 0.42734 0.06543 0.54789 0.0
C1490 C 0.40004 0.05576 0.54933 0.0
H1491 H 0.4687 0.0554 0.55302 0.0
H1492 H 0.43289 0.08674 0.54157 0.0
C1493 C 0.39382 0.02809 0.55816 0.0
C1494 C 0.6159 0.53354 0.55694 0.0
C1495 C 0.5907 0.5226 0.54665 0.0
H1496 H 0.65748 0.52509 0.56193 0.0
C1497 C 0.58902 0.49582 0.52947 0.0
H1498 H 0.61737 0.55382 0.57088 0.0
C1499 C 0.61186 0.47925 0.52416 0.0
C1500 C 0.63683 0.48895 0.5364 0.0
H1501 H 0.56959 0.48686 0.52181 0.0
H1502 H 0.60964 0.45824 0.51152 0.0
C1503 C 0.63877 0.51688 0.55193 0.0
C1504 C 0.72608 0.23413 0.37899 0.0
C1505 C 0.74042 0.24143 0.35482 0.0
H1506 H 0.71855 0.24513 0.4236 0.0
C1507 C 0.7609 0.26343 0.35768 0.0
H1508 H 0.70981 0.2176 0.37688 0.0
C1509 C 0.76601 0.27914 0.3842 0.0
C1510 C 0.75027 0.27337 0.40811 0.0
H1511 H 0.77164 0.2697 0.33903 0.0
H1512 H 0.78091 0.29713 0.38556 0.0
C1513 C 0.73085 0.25009 0.40547 0.0
C1514 C 0.51415 0.09277 0.92461 0.0
C1515 C 0.51125 0.07306 0.945 0.0
H1516 H 0.53621 0.1049 0.88804 0.0
C1517 C 0.53046 0.05187 0.94597 0.0
H1518 H 0.49936 0.10912 0.92351 0.0
C1519 C 0.55134 0.04919 0.92573 0.0
C1520 C 0.55336 0.06765 0.90402 0.0
H1521 H 0.52845 0.03648 0.96159 0.0
H1522 H 0.56497 0.0316 0.92618 0.0
C1523 C 0.53498 0.09004 0.90419 0.0
C1524 C 0.3361 0.27029 0.35643 0.0
C1525 C 0.31757 0.26701 0.33417 0.0
H1526 H 0.34864 0.25497 0.39497 0.0
C1527 C 0.29924 0.24278 0.33191 0.0
H1528 H 0.3502 0.289 0.35876 0.0
C1529 C 0.29777 0.22366 0.35288 0.0
C1530 C 0.31475 0.22826 0.37663 0.0
H1531 H 0.28461 0.24003 0.31501 0.0
H1532 H 0.28203 0.20653 0.3514 0.0
C1533 C 0.33475 0.2511 0.37743 0.0
C1534 C 0.50602 0.52396 0.94617 0.0
C1535 C 0.51981 0.49828 0.94687 0.0
H1536 H 0.47623 0.54578 0.92539 0.0
C1537 C 0.51381 0.47416 0.92693 0.0
H1538 H 0.51053 0.54271 0.96153 0.0
C1539 C 0.49415 0.47564 0.90645 0.0
C1540 C 0.48015 0.50136 0.90558 0.0
H1541 H 0.52429 0.45416 0.92742 0.0
H1542 H 0.48967 0.45653 0.89154 0.0
C1543 C 0.48634 0.52553 0.9257 0.0
C1544 C 0.7188 0.79173 0.16456 0.0
C1545 C 0.73025 0.78906 0.19097 0.0
H1546 H 0.71907 0.77791 0.11975 0.0
C1547 C 0.75326 0.77273 0.19195 0.0
H1548 H 0.70098 0.80423 0.16349 0.0
C1549 C 0.76349 0.75748 0.16713 0.0
C1550 C 0.751 0.75857 0.14084 0.0
H1551 H 0.76219 0.77025 0.21219 0.0
H1552 H 0.78049 0.74386 0.16864 0.0
C1553 C 0.72918 0.77674 0.13964 0.0
C1554 C 0.9984 1.01166 0.11669 0.0
C1555 C 0.01477 0.03714 0.11593 0.0
H1556 H 0.96796 0.989 0.13948 0.0
C1557 C 1.0129 0.05985 0.13811 0.0
H1558 H 0.99958 0.99398 0.09965 0.0
C1559 C 0.99482 0.05723 0.16073 0.0
C1560 C 0.97823 0.03179 0.16156 0.0
H1561 H 0.02553 0.0796 0.13787 0.0
H1562 H 0.9936 0.07526 0.1774 0.0
C1563 C 0.98022 1.00901 0.13928 0.0
C1564 C 0.29821 0.76592 0.17689 0.0
C1565 C 0.30165 0.77881 0.20494 0.0
H1566 H 0.28931 0.77179 0.13414 0.0
C1567 C 0.30036 0.80921 0.2108 0.0
H1568 H 0.29946 0.74256 0.17177 0.0
C1569 C 0.29545 0.82636 0.18899 0.0
C1570 C 0.29139 0.81339 0.16086 0.0
H1571 H 0.30283 0.81961 0.23233 0.0
H1572 H 0.29498 0.84977 0.19422 0.0
C1573 C 0.2928 0.78286 0.15523 0.0
C1574 C 0.04159 0.50308 0.10416 0.0
C1575 C 0.02008 0.48228 0.10455 0.0
H1576 H 0.07632 0.52359 0.12538 0.0
C1577 C 0.01919 0.4633 0.12568 0.0
H1578 H 0.04256 0.51797 0.08803 0.0
C1579 C 0.03854 0.46638 0.1472 0.0
C1580 C 0.0592 0.48851 0.14792 0.0
H1581 H 1.00264 0.44726 0.12647 0.0
H1582 H 0.03684 0.45198 0.16373 0.0
C1583 C 0.06091 0.5062 0.12556 0.0
C1584 C 0.34527 0.75865 0.30876 0.0
C1585 C 0.34011 0.7362 0.2867 0.0
H1586 H 0.36951 0.77462 0.34454 0.0
C1587 C 0.3544 0.71058 0.28575 0.0
H1588 H 0.33443 0.77858 0.30988 0.0
C1589 C 0.37446 0.70808 0.30574 0.0
C1590 C 0.3806 0.73117 0.32713 0.0
H1591 H 0.3509 0.69309 0.26878 0.0
H1592 H 0.38555 0.68829 0.30407 0.0
C1593 C 0.36527 0.75623 0.3287 0.0
C1594 C 0.01905 0.43083 0.04386 0.0
C1595 C 0.99592 0.43369 0.06123 0.0
H1596 H 0.04157 0.40276 0.01388 0.0
C1597 C 0.97935 0.40884 0.06459 0.0
H1598 H 0.03186 0.44987 0.04073 0.0
C1599 C 0.98444 0.38205 0.04896 0.0
C1600 C 1.0063 0.37956 0.02956 0.0
H1601 H 0.96119 0.4108 0.07762 0.0
H1602 H 0.97007 0.36391 0.05057 0.0
C1603 C 0.02423 0.40399 0.02815 0.0
C1604 C 0.66774 0.77387 0.29263 0.0
C1605 C 0.66394 0.79058 0.27024 0.0
H1606 H 0.64946 0.75397 0.32744 0.0
C1607 C 0.63821 0.80026 0.26554 0.0
H1608 H 0.68757 0.76636 0.29647 0.0
C1609 C 0.61651 0.79362 0.28338 0.0
C1610 C 0.62024 0.77674 0.30579 0.0
H1611 H 0.63511 0.81327 0.24833 0.0
H1612 H 0.5968 0.80144 0.27954 0.0
C1613 C 0.64602 0.76679 0.31015 0.0
C1614 C 0.05516 0.0686 1.00744 0.0
C1615 C 0.06275 0.07731 0.03564 0.0
H1616 H 0.04396 0.08252 0.96768 0.0
C1617 C 0.06956 0.10682 0.04397 0.0
H1618 H 0.04934 0.04598 1.00085 0.0
C1619 C 0.0661 0.12772 0.02538 0.0
C1620 C 0.05588 0.11943 0.99801 0.0
H1621 H 0.07514 0.11391 0.06575 0.0
H1622 H 0.06983 0.15056 0.033 0.0
C1623 C 0.05183 0.08954 0.98866 0.0
C1624 C 0.37975 0.31411 0.29855 0.0
C1625 C 0.3567 0.29584 0.29246 0.0
H1626 H 0.41941 0.32742 0.28532 0.0
C1627 C 0.35791 0.27329 0.27004 0.0
H1628 H 0.37898 0.33201 0.3154 0.0
C1629 C 0.38101 0.27064 0.2525 0.0
C1630 C 0.40335 0.29057 0.25705 0.0
H1631 H 0.34018 0.25932 0.26469 0.0
H1632 H 0.38086 0.2538 0.2346 0.0
C1633 C 0.40281 0.31154 0.28109 0.0
C1634 C 0.58183 0.44632 0.02873 0.0
C1635 C 0.56504 0.47006 0.03102 0.0
H1636 H 0.5919 0.40698 0.04522 0.0
C1637 C 0.54766 0.47439 0.05471 0.0
H1638 H 0.59527 0.4425 1.01051 0.0
C1639 C 0.54478 0.4536 0.07398 0.0
C1640 C 0.55965 0.42815 0.07031 0.0
H1641 H 0.53449 0.49259 0.05679 0.0
H1642 H 0.52938 0.4566 0.09042 0.0
C1643 C 0.57933 0.42566 0.04829 0.0
C1644 C 0.68599 0.26294 0.258 0.0
C1645 C 0.68364 0.23646 0.26988 0.0
H1646 H 0.66776 0.29165 0.23224 0.0
C1647 C 0.66103 0.2176 0.26368 0.0
H1648 H 0.70348 0.27758 0.26231 0.0
C1649 C 0.64065 0.22547 0.24644 0.0
C1650 C 0.64254 0.25245 0.23526 0.0
H1651 H 0.65877 0.19722 0.27295 0.0
H1652 H 0.623 0.21092 0.2427 0.0
C1653 C 0.66559 0.27093 0.24091 0.0
C1654 C 0.51062 0.11534 0.01464 0.0
C1655 C 0.49242 0.11789 0.99291 0.0
H1656 H 0.53141 0.13696 0.05092 0.0
C1657 C 0.48393 0.14555 0.98856 0.0
H1658 H 0.51698 0.09402 0.01849 0.0
C1659 C 0.49183 0.1701 1.00717 0.0
C1660 C 0.50817 0.16722 0.03057 0.0
H1661 H 0.46946 0.1477 0.97217 0.0
H1662 H 0.48345 0.19085 1.00449 0.0
C1663 C 0.51845 0.13979 0.03337 0.0
C1664 C 0.27274 0.32722 0.7609 0.0
C1665 C 0.2535 0.32711 0.73954 0.0
H1666 H 0.3063 0.35008 0.7825 0.0
C1667 C 0.25582 0.34841 0.72064 0.0
H1668 H 0.27139 0.31075 0.77548 0.0
C1669 C 0.27582 0.3709 0.72451 0.0
C1670 C 0.29363 0.37242 0.74748 0.0
H1671 H 0.24102 0.34877 0.70417 0.0
H1672 H 0.27618 0.38809 0.71072 0.0
C1673 C 0.29252 0.34975 0.76496 0.0
C1674 C 0.27422 0.68853 0.79553 0.0
C1675 C 0.25462 0.69066 0.81734 0.0
H1676 H 0.30719 0.66481 0.77628 0.0
C1677 C 0.25586 0.67273 0.83928 0.0
H1678 H 0.27386 0.70253 0.7787 0.0
C1679 C 0.27518 0.65139 0.83817 0.0
C1680 C 0.29327 0.64764 0.81496 0.0
H1681 H 0.24082 0.67399 0.85621 0.0
H1682 H 0.27485 0.63665 0.85442 0.0
C1683 C 0.29321 0.66703 0.79418 0.0
C1684 C 0.89987 0.53573 0.48248 0.0
C1685 C 0.92626 0.52723 0.48596 0.0
H1686 H 0.85766 0.52503 0.48656 0.0
C1687 C 0.93036 0.50017 0.49556 0.0
H1688 H 0.89643 0.55655 0.47503 0.0
C1689 C 0.9083 0.48204 0.50207 0.0
C1690 C 0.88177 0.49067 0.49899 0.0
H1691 H 0.95063 0.4934 0.49848 0.0
H1692 H 0.912 0.46124 0.50945 0.0
C1693 C 0.87781 0.51763 0.48891 0.0
C1694 C 0.74995 0.84675 0.79548 0.0
C1695 C 0.77531 0.85355 0.80765 0.0
H1696 H 0.71322 0.86295 0.78191 0.0
C1697 C 0.78276 0.88267 0.81685 0.0
H1698 H 0.74405 0.82433 0.78808 0.0
C1699 C 0.76508 0.9048 0.81386 0.0
C1700 C 0.73968 0.89826 0.80124 0.0
H1701 H 0.80222 0.88818 0.8265 0.0
H1702 H 0.77129 0.92702 0.82166 0.0
C1703 C 0.73234 0.86888 0.79215 0.0
C1704 C 0.62665 0.50328 0.98049 0.0
C1705 C 0.6054 0.50926 0.99997 0.0
H1706 H 0.66658 0.51506 0.96699 0.0
C1707 C 0.61012 0.52939 0.02401 0.0
H1708 H 0.62333 0.48788 0.96173 0.0
C1709 C 0.63505 0.545 0.02731 0.0
C1710 C 0.6557 0.54088 1.00649 0.0
H1711 H 0.59392 0.53448 0.03916 0.0
H1712 H 0.63772 0.5611 0.04564 0.0
C1713 C 0.65145 0.51894 0.98359 0.0
C1714 C 0.29339 0.67105 0.24592 0.0
C1715 C 0.29166 0.69718 0.26397 0.0
H1716 H 0.27709 0.62771 0.23465 0.0
C1717 C 0.27418 0.69813 0.2876 0.0
H1718 H 0.30638 0.67024 0.22722 0.0
C1719 C 0.25712 0.6739 0.29188 0.0
C1720 C 0.25729 0.64835 0.27249 0.0
H1721 H 0.27224 0.71832 0.3014 0.0
H1722 H 0.24294 0.67564 0.30961 0.0
C1723 C 0.27646 0.64683 0.25014 0.0
C1724 C 0.94681 0.54657 0.05152 0.0
C1725 C 0.93996 0.51963 0.06138 0.0
H1726 H 0.93255 0.58479 0.03597 0.0
C1727 C 0.91264 0.5108 0.06377 0.0
H1728 H 0.96779 0.55359 0.04926 0.0
C1729 C 0.89246 0.52847 0.05614 0.0
C1730 C 0.89921 0.55541 0.04603 0.0
H1731 H 0.90698 0.4902 0.0716 0.0
H1732 H 0.87155 0.52118 0.0585 0.0
C1733 C 0.92664 0.56432 0.04394 0.0
C1734 C 0.11667 0.03413 0.0616 0.0
C1735 C 0.0922 0.02338 0.04932 0.0
H1736 H 0.15803 0.0262 0.06831 0.0
C1737 C 0.09177 0.99763 0.03056 0.0
H1738 H 0.11712 0.05358 0.07675 0.0
C1739 C 0.11515 0.98188 0.02542 0.0
C1740 C 0.13936 0.99129 0.03948 0.0
H1741 H 0.0729 0.9888 0.02133 0.0
H1742 H 0.11391 0.96169 1.01134 0.0
C1743 C 0.14001 0.01824 0.05683 0.0
loop_
_geom_bond_atom_site_label_1
_geom_bond_atom_site_label_2
_geom_bond_distance
_geom_bond_site_symmetry_2
_ccdc_geom_bond_type
C0 N1 1.315 1_565 S
C0 N2 1.348 1_465 S
C0 C3 1.485 . S
N1 C0 1.315 1_545 S
N1 N5 1.374 . S
N2 C0 1.348 1_645 S
N2 C4 1.346 . S
C3 C0 1.485 . S
C3 H7 0.960 . S
C3 H8 0.961 . S
C3 H9 0.960 . S
C4 N2 1.346 . S
C4 N5 1.307 1_655 S
C4 C6 1.486 . S
N5 N1 1.374 . S
N5 C4 1.307 1_455 S
C6 C4 1.486 . S
C6 H10 0.960 . S
C6 H11 0.960 . S
C6 H12 0.959 . S
H7 C3 0.960 . S
H8 C3 0.961 . S
H9 C3 0.960 . S
H10 C6 0.960 . S
H11 C6 0.960 . S
H12 C6 0.959 . S
C13 N14 1.317 . S
C13 N15 1.348 . S
C13 C16 1.485 . S
N14 C13 1.317 . S
N14 N18 1.370 . S
N15 C13 1.348 . S
N15 C17 1.346 . S
C16 C13 1.485 . S
C16 H20 0.960 . S
C16 H21 0.961 . S
C16 H22 0.960 . S
C17 N15 1.346 . S
C17 N18 1.307 . S
C17 C19 1.486 . S
N18 N14 1.370 . S
N18 C17 1.307 . S
C19 C17 1.486 . S
C19 H23 0.960 . S
C19 H24 0.960 . S
C19 H25 0.959 . S
H20 C16 0.960 . S
H21 C16 0.961 . S
H22 C16 0.960 . S
H23 C19 0.960 . S
H24 C19 0.960 . S
H25 C19 0.959 . S
C26 N27 1.317 . S
C26 N28 1.348 . S
C26 C29 1.485 . S
N27 C26 1.317 . S
N27 N31 1.370 . S
N28 C26 1.348 . S
N28 C30 1.346 . S
C29 C26 1.485 . S
C29 H33 0.960 . S
C29 H34 0.961 . S
C29 H35 0.960 . S
C30 N28 1.346 . S
C30 N31 1.307 . S
C30 C32 1.486 . S
N31 N27 1.370 . S
N31 C30 1.307 . S
C32 C30 1.486 . S
C32 H36 0.960 1_554 S
C32 H37 0.960 . S
C32 H38 0.959 . S
H33 C29 0.960 . S
H34 C29 0.961 . S
H35 C29 0.960 . S
H36 C32 0.960 1_556 S
H37 C32 0.960 . S
H38 C32 0.959 . S
C39 N40 1.317 . S
C39 N41 1.348 . S
C39 C42 1.485 . S
N40 C39 1.317 . S
N40 N44 1.370 . S
N41 C39 1.348 . S
N41 C43 1.346 . S
C42 C39 1.485 . S
C42 H46 0.960 . S
C42 H47 0.961 . S
C42 H48 0.960 . S
C43 N41 1.346 . S
C43 N44 1.307 . S
C43 C45 1.486 . S
N44 N40 1.370 . S
N44 C43 1.307 . S
C45 C43 1.486 . S
C45 H49 0.960 . S
C45 H50 0.960 . S
C45 H51 0.959 . S
H46 C42 0.960 . S
H47 C42 0.961 . S
H48 C42 0.960 . S
H49 C45 0.960 . S
H50 C45 0.960 . S
H51 C45 0.959 . S
C52 N53 1.317 . S
C52 N54 1.348 . S
C52 C55 1.485 1_455 S
N53 C52 1.317 . S
N53 N57 1.370 . S
N54 C52 1.348 . S
N54 C56 1.346 1_565 S
C55 C52 1.485 1_655 S
C55 H59 0.960 . S
C55 H60 0.961 . S
C55 H61 0.960 . S
C56 N54 1.346 1_545 S
C56 N57 1.307 1_545 S
C56 C58 1.486 . S
N57 N53 1.370 . S
N57 C56 1.307 1_565 S
C58 C56 1.486 . S
C58 H62 0.960 . S
C58 H63 0.960 . S
C58 H64 0.959 . S
H59 C55 0.960 . S
H60 C55 0.961 . S
H61 C55 0.960 . S
H62 C58 0.960 . S
H63 C58 0.960 . S
H64 C58 0.959 . S
C65 N66 1.317 . S
C65 N67 1.348 . S
C65 C68 1.485 . S
N66 C65 1.317 . S
N66 N70 1.370 . S
N67 C65 1.348 . S
N67 C69 1.346 . S
C68 C65 1.485 . S
C68 H72 0.960 . S
C68 H73 0.961 . S
C68 H74 0.960 . S
C69 N67 1.346 . S
C69 N70 1.307 . S
C69 C71 1.486 . S
N70 N66 1.370 . S
N70 C69 1.307 . S
C71 C69 1.486 . S
C71 H75 0.960 . S
C71 H76 0.960 . S
C71 H77 0.959 . S
H72 C68 0.960 . S
H73 C68 0.961 . S
H74 C68 0.960 . S
H75 C71 0.960 . S
H76 C71 0.960 . S
H77 C71 0.959 . S
C78 N79 1.317 . S
C78 N80 1.348 . S
C78 C81 1.485 . S
N79 C78 1.317 . S
N79 N83 1.370 . S
N80 C78 1.348 . S
N80 C82 1.346 . S
C81 C78 1.485 . S
C81 H85 0.960 . S
C81 H86 0.961 . S
C81 H87 0.960 . S
C82 N80 1.346 . S
C82 N83 1.307 . S
C82 C84 1.486 . S
N83 N79 1.370 . S
N83 C82 1.307 . S
C84 C82 1.486 . S
C84 H88 0.960 . S
C84 H89 0.960 . S
C84 H90 0.959 . S
H85 C81 0.960 . S
H86 C81 0.961 . S
H87 C81 0.960 . S
H88 C84 0.960 . S
H89 C84 0.960 . S
H90 C84 0.959 . S
C91 N92 1.317 . S
C91 N93 1.348 . S
C91 C94 1.485 . S
N92 C91 1.317 . S
N92 N96 1.370 . S
N93 C91 1.348 . S
N93 C95 1.346 . S
C94 C91 1.485 . S
C94 H98 0.960 . S
C94 H99 0.961 . S
C94 H100 0.960 . S
C95 N93 1.346 . S
C95 N96 1.307 . S
C95 C97 1.486 . S
N96 N92 1.370 . S
N96 C95 1.307 . S
C97 C95 1.486 . S
C97 H101 0.960 . S
C97 H102 0.960 . S
C97 H103 0.959 . S
H98 C94 0.960 . S
H99 C94 0.961 . S
H100 C94 0.960 . S
H101 C97 0.960 . S
H102 C97 0.960 . S
H103 C97 0.959 . S
C104 N105 1.317 . S
C104 N106 1.348 . S
C104 C107 1.485 . S
N105 C104 1.317 . S
N105 N109 1.370 . S
N106 C104 1.348 . S
N106 C108 1.346 . S
C107 C104 1.485 . S
C107 H111 0.960 . S
C107 H112 0.961 . S
C107 H113 0.960 . S
C108 N106 1.346 . S
C108 N109 1.307 . S
C108 C110 1.486 . S
N109 N105 1.370 . S
N109 C108 1.307 . S
C110 C108 1.486 . S
C110 H114 0.960 . S
C110 H115 0.960 . S
C110 H116 0.959 . S
H111 C107 0.960 . S
H112 C107 0.961 . S
H113 C107 0.960 . S
H114 C110 0.960 . S
H115 C110 0.960 . S
H116 C110 0.959 . S
C117 N118 1.317 . S
C117 N119 1.348 . S
C117 C120 1.485 1_565 S
N118 C117 1.317 . S
N118 N122 1.370 . S
N119 C117 1.348 . S
N119 C121 1.346 . S
C120 C117 1.485 1_545 S
C120 H124 0.960 . S
C120 H125 0.961 . S
C120 H126 0.960 . S
C121 N119 1.346 . S
C121 N122 1.307 . S
C121 C123 1.486 . S
N122 N118 1.370 . S
N122 C121 1.307 . S
C123 C121 1.486 . S
C123 H127 0.960 . S
C123 H128 0.960 . S
C123 H129 0.959 . S
H124 C120 0.960 . S
H125 C120 0.961 . S
H126 C120 0.960 . S
H127 C123 0.960 . S
H128 C123 0.960 . S
H129 C123 0.959 . S
C130 N131 1.317 . S
C130 N132 1.348 . S
C130 C133 1.485 . S
N131 C130 1.317 . S
N131 N135 1.370 . S
N132 C130 1.348 . S
N132 C134 1.346 . S
C133 C130 1.485 . S
C133 H137 0.960 . S
C133 H138 0.961 . S
C133 H139 0.960 . S
C134 N132 1.346 . S
C134 N135 1.307 . S
C134 C136 1.486 . S
N135 N131 1.370 . S
N135 C134 1.307 . S
C136 C134 1.486 . S
C136 H140 0.960 . S
C136 H141 0.960 . S
C136 H142 0.959 . S
H137 C133 0.960 . S
H138 C133 0.961 . S
H139 C133 0.960 . S
H140 C136 0.960 . S
H141 C136 0.960 . S
H142 C136 0.959 . S
C143 N144 1.317 . S
C143 N145 1.348 . S
C143 C146 1.485 . S
N144 C143 1.317 . S
N144 N148 1.370 . S
N145 C143 1.348 . S
N145 C147 1.346 . S
C146 C143 1.485 . S
C146 H150 0.960 . S
C146 H151 0.961 . S
C146 H152 0.960 . S
C147 N145 1.346 . S
C147 N148 1.307 . S
C147 C149 1.486 . S
N148 N144 1.370 . S
N148 C147 1.307 . S
C149 C147 1.486 . S
C149 H153 0.960 . S
C149 H154 0.960 . S
C149 H155 0.959 . S
H150 C146 0.960 . S
H151 C146 0.961 . S
H152 C146 0.960 . S
H153 C149 0.960 . S
H154 C149 0.960 . S
H155 C149 0.959 . S
C156 N157 1.317 . S
C156 N158 1.348 . S
C156 C159 1.485 . S
N157 C156 1.317 . S
N157 N161 1.370 . S
N158 C156 1.348 . S
N158 C160 1.346 . S
C159 C156 1.485 . S
C159 H163 0.960 . S
C159 H164 0.961 . S
C159 H165 0.960 . S
C160 N158 1.346 . S
C160 N161 1.307 . S
C160 C162 1.486 . S
N161 N157 1.370 . S
N161 C160 1.307 . S
C162 C160 1.486 . S
C162 H166 0.960 . S
C162 H167 0.960 . S
C162 H168 0.959 . S
H163 C159 0.960 . S
H164 C159 0.961 . S
H165 C159 0.960 . S
H166 C162 0.960 . S
H167 C162 0.960 . S
H168 C162 0.959 . S
C169 N170 1.317 . S
C169 N171 1.348 . S
C169 C172 1.485 . S
N170 C169 1.317 . S
N170 N174 1.370 . S
N171 C169 1.348 . S
N171 C173 1.346 . S
C172 C169 1.485 . S
C172 H176 0.960 . S
C172 H177 0.961 . S
C172 H178 0.960 . S
C173 N171 1.346 . S
C173 N174 1.307 . S
C173 C175 1.486 . S
N174 N170 1.370 . S
N174 C173 1.307 . S
C175 C173 1.486 . S
C175 H179 0.960 . S
C175 H180 0.960 . S
C175 H181 0.959 . S
H176 C172 0.960 . S
H177 C172 0.961 . S
H178 C172 0.960 . S
H179 C175 0.960 . S
H180 C175 0.960 . S
H181 C175 0.959 . S
C182 N183 1.317 . S
C182 N184 1.348 . S
C182 C185 1.485 . S
N183 C182 1.317 . S
N183 N187 1.370 . S
N184 C182 1.348 . S
N184 C186 1.346 . S
C185 C182 1.485 . S
C185 H189 0.960 . S
C185 H190 0.961 . S
C185 H191 0.960 . S
C186 N184 1.346 . S
C186 N187 1.307 . S
C186 C188 1.486 . S
N187 N183 1.370 . S
N187 C186 1.307 . S
C188 C186 1.486 . S
C188 H192 0.960 . S
C188 H193 0.960 . S
C188 H194 0.959 . S
H189 C185 0.960 . S
H190 C185 0.961 . S
H191 C185 0.960 . S
H192 C188 0.960 . S
H193 C188 0.960 . S
H194 C188 0.959 . S
C195 N196 1.317 . S
C195 N197 1.348 . S
C195 C198 1.485 1_545 S
N196 C195 1.317 . S
N196 N200 1.370 . S
N197 C195 1.348 . S
N197 C199 1.346 . S
C198 C195 1.485 1_565 S
C198 H202 0.967 . S
C198 H203 0.961 . S
C198 H204 0.960 . S
C199 N197 1.346 . S
C199 N200 1.307 . S
C199 C201 1.486 1_556 S
N200 N196 1.370 . S
N200 C199 1.307 . S
C201 C199 1.486 1_554 S
C201 H205 0.960 . S
C201 H206 0.960 . S
C201 H207 0.959 . S
H202 C198 0.967 . S
H203 C198 0.961 . S
H204 C198 0.960 . S
H205 C201 0.960 . S
H206 C201 0.960 . S
H207 C201 0.959 . S
Li208 N225 1.991 . S
Li208 O268 1.956 . S
Li208 O269 1.970 . S
Li208 O270 1.961 1_554 S
Li209 N233 1.990 . S
Li209 O268 1.970 . S
Li209 O269 1.956 . S
Li209 O271 1.961 . S
Li210 N255 1.990 . S
Li210 O268 1.961 1_556 S
Li210 O270 1.956 . S
Li210 O271 1.970 1_556 S
Li211 N261 1.990 . S
Li211 O269 1.961 . S
Li211 O270 1.970 1_554 S
Li211 O271 1.956 . S
C212 C214 1.348 1_556 S
C212 C215 1.356 . S
C212 O268 1.325 1_556 S
N213 C216 1.314 1_556 S
N213 C217 1.279 . S
C214 C212 1.348 1_554 S
C214 C216 1.353 . S
C214 H272 0.929 . S
C215 C212 1.356 . S
C215 C217 1.358 . S
C215 H273 0.930 . S
C216 N213 1.314 1_554 S
C216 C214 1.353 . S
C216 H274 0.930 . S
C217 N213 1.279 . S
C217 C215 1.358 . S
C217 H275 0.930 . S
C218 C221 1.348 . S
C218 C222 1.356 . S
C218 O269 1.325 . S
C219 N220 1.279 . S
C219 C222 1.358 . S
C219 H276 0.930 . S
N220 C219 1.279 . S
N220 C223 1.314 . S
C221 C218 1.348 . S
C221 C223 1.353 . S
C221 H277 0.929 . S
C222 C218 1.356 . S
C222 C219 1.358 . S
C222 H278 0.930 . S
C223 N220 1.314 . S
C223 C221 1.353 . S
C223 H279 0.930 . S
C224 N225 1.313 1_556 S
C224 C229 1.353 . S
C224 H230 0.930 . S
N225 Li208 1.991 . S
N225 C224 1.313 1_554 S
N225 C227 1.280 . S
C226 C227 1.358 1_556 S
C226 C228 1.356 . S
C226 H280 0.929 1_556 S
C227 N225 1.280 . S
C227 C226 1.358 1_554 S
C227 H231 0.930 . S
C228 C226 1.356 . S
C228 C229 1.348 . S
C229 C224 1.353 . S
C229 C228 1.348 . S
C229 H281 0.929 . S
H230 C224 0.930 . S
H231 C227 0.930 . S
C232 N233 1.314 . S
C232 C234 1.353 . S
C232 H238 0.930 . S
N233 Li209 1.990 . S
N233 C232 1.314 . S
N233 C236 1.279 . S
C234 C232 1.353 . S
C234 C237 1.348 . S
C234 H282 0.929 . S
C235 C236 1.358 . S
C235 C237 1.356 . S
C235 H283 0.930 . S
C236 N233 1.279 . S
C236 C235 1.358 . S
C236 H239 0.930 . S
C237 C234 1.348 . S
C237 C235 1.356 . S
H238 C232 0.930 . S
H239 C236 0.930 . S
C240 C242 1.348 . S
C240 C243 1.356 . S
C240 O270 1.325 . S
N241 C244 1.314 . S
N241 C245 1.279 . S
C242 C240 1.348 . S
C242 C244 1.353 . S
C242 H284 0.929 . S
C243 C240 1.356 . S
C243 C245 1.358 . S
C243 H285 0.930 . S
C244 N241 1.314 . S
C244 C242 1.353 . S
C244 H286 0.930 . S
C245 N241 1.279 . S
C245 C243 1.358 . S
C245 H287 0.930 . S
C246 C247 1.348 1_554 S
C246 C248 1.356 . S
C246 O271 1.325 . S
C247 C246 1.348 1_556 S
C247 C249 1.353 . S
C247 H288 0.929 . S
C248 C246 1.356 . S
C248 C250 1.358 . S
C248 H289 0.930 . S
C249 C247 1.353 . S
C249 N251 1.314 1_556 S
C249 H290 0.930 . S
C250 C248 1.358 . S
C250 N251 1.279 . S
C250 H291 0.930 . S
N251 C249 1.314 1_554 S
N251 C250 1.279 . S
C252 C254 1.353 . S
C252 N255 1.314 . S
C252 H258 0.930 . S
C253 N255 1.279 . S
C253 C256 1.358 . S
C253 H259 0.930 . S
C254 C252 1.353 . S
C254 C257 1.348 . S
C254 H292 0.929 . S
N255 Li210 1.990 . S
N255 C252 1.314 . S
N255 C253 1.279 . S
C256 C253 1.358 . S
C256 C257 1.356 . S
C256 H293 0.930 . S
C257 C254 1.348 . S
C257 C256 1.356 . S
H258 C252 0.930 . S
H259 C253 0.930 . S
C260 N261 1.314 . S
C260 C262 1.353 . S
C260 H266 0.930 . S
N261 Li211 1.990 . S
N261 C260 1.314 . S
N261 C264 1.279 . S
C262 C260 1.353 . S
C262 C265 1.348 . S
C262 H294 0.929 . S
C263 C264 1.358 . S
C263 C265 1.356 . S
C263 H295 0.930 . S
C264 N261 1.279 . S
C264 C263 1.358 . S
C264 H267 0.930 . S
C265 C262 1.348 . S
C265 C263 1.356 . S
H266 C260 0.930 . S
H267 C264 0.930 . S
O268 Li208 1.956 . S
O268 Li209 1.970 . S
O268 Li210 1.961 1_554 S
O268 C212 1.325 1_554 S
O269 Li208 1.970 . S
O269 Li209 1.956 . S
O269 Li211 1.961 . S
O269 C218 1.325 . S
O270 Li208 1.961 1_556 S
O270 Li210 1.956 . S
O270 Li211 1.970 1_556 S
O270 C240 1.325 . S
O271 Li209 1.961 . S
O271 Li210 1.970 1_554 S
O271 Li211 1.956 . S
O271 C246 1.325 . S
H272 C214 0.929 . S
H273 C215 0.930 . S
H274 C216 0.930 . S
H275 C217 0.930 . S
H276 C219 0.930 . S
H277 C221 0.929 . S
H278 C222 0.930 . S
H279 C223 0.930 . S
H280 C226 0.929 1_554 S
H281 C229 0.929 . S
H282 C234 0.929 . S
H283 C235 0.930 . S
H284 C242 0.929 . S
H285 C243 0.930 . S
H286 C244 0.930 . S
H287 C245 0.930 . S
H288 C247 0.929 . S
H289 C248 0.930 . S
H290 C249 0.930 . S
H291 C250 0.930 . S
H292 C254 0.929 . S
H293 C256 0.930 . S
H294 C262 0.929 . S
H295 C263 0.930 . S
Li296 N313 1.990 . S
Li296 O356 1.956 . S
Li296 O357 1.970 . S
Li296 O358 1.961 . S
Li297 N321 1.990 . S
Li297 O356 1.970 . S
Li297 O357 1.956 . S
Li297 O359 1.961 . S
Li298 N343 1.990 . S
Li298 O356 1.961 . S
Li298 O358 1.956 . S
Li298 O359 1.970 . S
Li299 N349 1.990 . S
Li299 O357 1.961 . S
Li299 O358 1.970 . S
Li299 O359 1.956 . S
C300 C302 1.348 . S
C300 C303 1.356 . S
C300 O356 1.325 . S
N301 C304 1.314 . S
N301 C305 1.279 . S
C302 C300 1.348 . S
C302 C304 1.353 . S
C302 H360 0.929 . S
C303 C300 1.356 . S
C303 C305 1.358 . S
C303 H361 0.930 . S
C304 N301 1.314 . S
C304 C302 1.353 . S
C304 H362 0.930 . S
C305 N301 1.279 . S
C305 C303 1.358 . S
C305 H363 0.930 . S
C306 C309 1.348 . S
C306 C310 1.356 . S
C306 O357 1.325 . S
C307 N308 1.279 . S
C307 C310 1.358 . S
C307 H364 0.930 . S
N308 C307 1.279 . S
N308 C311 1.314 . S
C309 C306 1.348 . S
C309 C311 1.353 . S
C309 H365 0.929 . S
C310 C306 1.356 . S
C310 C307 1.358 . S
C310 H366 0.930 . S
C311 N308 1.314 . S
C311 C309 1.353 . S
C311 H367 0.930 . S
C312 N313 1.314 . S
C312 C317 1.353 . S
C312 H318 0.930 . S
N313 Li296 1.990 . S
N313 C312 1.314 . S
N313 C315 1.279 . S
C314 C315 1.358 . S
C314 C316 1.356 . S
C314 H368 0.930 . S
C315 N313 1.279 . S
C315 C314 1.358 . S
C315 H319 0.930 . S
C316 C314 1.356 . S
C316 C317 1.348 . S
C317 C312 1.353 . S
C317 C316 1.348 . S
C317 H369 0.929 . S
H318 C312 0.930 . S
H319 C315 0.930 . S
C320 N321 1.314 . S
C320 C322 1.353 . S
C320 H326 0.930 . S
N321 Li297 1.990 . S
N321 C320 1.314 . S
N321 C324 1.279 . S
C322 C320 1.353 . S
C322 C325 1.348 . S
C322 H370 0.929 . S
C323 C324 1.358 . S
C323 C325 1.356 . S
C323 H371 0.930 . S
C324 N321 1.279 . S
C324 C323 1.358 . S
C324 H327 0.930 . S
C325 C322 1.348 . S
C325 C323 1.356 . S
H326 C320 0.930 . S
H327 C324 0.930 . S
C328 C330 1.348 . S
C328 C331 1.356 . S
C328 O358 1.325 . S
N329 C332 1.314 . S
N329 C333 1.279 . S
C330 C328 1.348 . S
C330 C332 1.353 . S
C330 H372 0.929 . S
C331 C328 1.356 . S
C331 C333 1.358 . S
C331 H373 0.930 . S
C332 N329 1.314 . S
C332 C330 1.353 . S
C332 H374 0.930 . S
C333 N329 1.279 . S
C333 C331 1.358 . S
C333 H375 0.930 . S
C334 C335 1.348 . S
C334 C336 1.356 . S
C334 O359 1.325 . S
C335 C334 1.348 . S
C335 C337 1.353 . S
C335 H376 0.929 . S
C336 C334 1.356 . S
C336 C338 1.358 . S
C336 H377 0.930 . S
C337 C335 1.353 . S
C337 N339 1.314 . S
C337 H378 0.930 . S
C338 C336 1.358 . S
C338 N339 1.279 . S
C338 H379 0.930 . S
N339 C337 1.314 . S
N339 C338 1.279 . S
C340 C342 1.353 . S
C340 N343 1.314 . S
C340 H346 0.930 . S
C341 N343 1.279 . S
C341 C344 1.358 . S
C341 H347 0.930 . S
C342 C340 1.353 . S
C342 C345 1.348 . S
C342 H380 0.929 . S
N343 Li298 1.990 . S
N343 C340 1.314 . S
N343 C341 1.279 . S
C344 C341 1.358 . S
C344 C345 1.356 . S
C344 H381 0.930 . S
C345 C342 1.348 . S
C345 C344 1.356 . S
H346 C340 0.930 . S
H347 C341 0.930 . S
C348 N349 1.314 . S
C348 C350 1.353 . S
C348 H354 0.930 . S
N349 Li299 1.990 . S
N349 C348 1.314 . S
N349 C352 1.279 . S
C350 C348 1.353 . S
C350 C353 1.348 . S
C350 H382 0.929 . S
C351 C352 1.358 . S
C351 C353 1.356 . S
C351 H383 0.930 . S
C352 N349 1.279 . S
C352 C351 1.358 . S
C352 H355 0.930 . S
C353 C350 1.348 . S
C353 C351 1.356 . S
H354 C348 0.930 . S
H355 C352 0.930 . S
O356 Li296 1.956 . S
O356 Li297 1.970 . S
O356 Li298 1.961 . S
O356 C300 1.325 . S
O357 Li296 1.970 . S
O357 Li297 1.956 . S
O357 Li299 1.961 . S
O357 C306 1.325 . S
O358 Li296 1.961 . S
O358 Li298 1.956 . S
O358 Li299 1.970 . S
O358 C328 1.325 . S
O359 Li297 1.961 . S
O359 Li298 1.970 . S
O359 Li299 1.956 . S
O359 C334 1.325 . S
H360 C302 0.929 . S
H361 C303 0.930 . S
H362 C304 0.930 . S
H363 C305 0.930 . S
H364 C307 0.930 . S
H365 C309 0.929 . S
H366 C310 0.930 . S
H367 C311 0.930 . S
H368 C314 0.930 . S
H369 C317 0.929 . S
H370 C322 0.929 . S
H371 C323 0.930 . S
H372 C330 0.929 . S
H373 C331 0.930 . S
H374 C332 0.930 . S
H375 C333 0.930 . S
H376 C335 0.929 . S
H377 C336 0.930 . S
H378 C337 0.930 . S
H379 C338 0.930 . S
H380 C342 0.929 . S
H381 C344 0.930 . S
H382 C350 0.929 . S
H383 C351 0.930 . S
Li384 N401 1.991 . S
Li384 O444 1.956 1_556 S
Li384 O445 1.969 1_556 S
Li384 O446 1.962 . S
Li385 N409 1.990 . S
Li385 O444 1.970 . S
Li385 O445 1.956 . S
Li385 O447 1.961 . S
Li386 N431 1.990 . S
Li386 O444 1.961 1_556 S
Li386 O446 1.956 . S
Li386 O447 1.970 1_556 S
Li387 N437 1.990 . S
Li387 O445 1.961 . S
Li387 O446 1.970 1_554 S
Li387 O447 1.956 . S
C388 C390 1.348 . S
C388 C391 1.356 1_554 S
C388 O444 1.325 . S
N389 C392 1.314 1_556 S
N389 C393 1.279 . S
C390 C388 1.348 . S
C390 C392 1.353 . S
C390 H448 0.929 . S
C391 C388 1.356 1_556 S
C391 C393 1.358 . S
C391 H449 0.930 . S
C392 N389 1.314 1_554 S
C392 C390 1.353 . S
C392 H450 0.930 . S
C393 N389 1.279 . S
C393 C391 1.358 . S
C393 H451 0.930 . S
C394 C397 1.348 . S
C394 C398 1.356 . S
C394 O445 1.325 . S
C395 N396 1.279 . S
C395 C398 1.358 . S
C395 H452 0.930 . S
N396 C395 1.279 . S
N396 C399 1.314 . S
C397 C394 1.348 . S
C397 C399 1.353 . S
C397 H453 0.929 . S
C398 C394 1.356 . S
C398 C395 1.358 . S
C398 H454 0.930 . S
C399 N396 1.314 . S
C399 C397 1.353 . S
C399 H455 0.930 . S
C400 N401 1.314 . S
C400 C405 1.353 . S
C400 H406 0.930 . S
N401 Li384 1.991 . S
N401 C400 1.314 . S
N401 C403 1.279 . S
C402 C403 1.358 . S
C402 C404 1.356 . S
C402 H456 0.930 . S
C403 N401 1.279 . S
C403 C402 1.358 . S
C403 H407 0.930 . S
C404 C402 1.356 . S
C404 C405 1.348 . S
C405 C400 1.353 . S
C405 C404 1.348 . S
C405 H457 0.929 . S
H406 C400 0.930 . S
H407 C403 0.930 . S
C408 N409 1.314 . S
C408 C410 1.353 . S
C408 H414 0.930 . S
N409 Li385 1.990 . S
N409 C408 1.314 . S
N409 C412 1.279 . S
C410 C408 1.353 . S
C410 C413 1.348 . S
C410 H458 0.929 . S
C411 C412 1.358 . S
C411 C413 1.356 . S
C411 H459 0.930 . S
C412 N409 1.279 . S
C412 C411 1.358 . S
C412 H415 0.930 . S
C413 C410 1.348 . S
C413 C411 1.356 . S
H414 C408 0.930 . S
H415 C412 0.930 . S
C416 C418 1.348 . S
C416 C419 1.356 . S
C416 O446 1.325 . S
N417 C420 1.314 . S
N417 C421 1.279 . S
C418 C416 1.348 . S
C418 C420 1.353 . S
C418 H460 0.929 . S
C419 C416 1.356 . S
C419 C421 1.358 . S
C419 H461 0.930 . S
C420 N417 1.314 . S
C420 C418 1.353 . S
C420 H462 0.930 . S
C421 N417 1.279 . S
C421 C419 1.358 . S
C421 H463 0.930 . S
C422 C423 1.348 . S
C422 C424 1.356 . S
C422 O447 1.325 . S
C423 C422 1.348 . S
C423 C425 1.353 . S
C423 H464 0.929 1_554 S
C424 C422 1.356 . S
C424 C426 1.358 . S
C424 H465 0.930 . S
C425 C423 1.353 . S
C425 N427 1.314 . S
C425 H466 0.930 1_554 S
C426 C424 1.358 . S
C426 N427 1.279 . S
C426 H467 0.930 . S
N427 C425 1.314 . S
N427 C426 1.279 . S
C428 C430 1.353 . S
C428 N431 1.314 . S
C428 H434 0.930 . S
C429 N431 1.279 . S
C429 C432 1.358 . S
C429 H435 0.930 . S
C430 C428 1.353 . S
C430 C433 1.348 . S
C430 H468 0.929 . S
N431 Li386 1.990 . S
N431 C428 1.314 . S
N431 C429 1.279 . S
C432 C429 1.358 . S
C432 C433 1.356 . S
C432 H469 0.930 . S
C433 C430 1.348 . S
C433 C432 1.356 . S
H434 C428 0.930 . S
H435 C429 0.930 . S
C436 N437 1.314 . S
C436 C438 1.353 . S
C436 H442 0.930 . S
N437 Li387 1.990 . S
N437 C436 1.314 . S
N437 C440 1.279 . S
C438 C436 1.353 . S
C438 C441 1.348 . S
C438 H470 0.929 . S
C439 C440 1.358 . S
C439 C441 1.356 . S
C439 H471 0.930 . S
C440 N437 1.279 . S
C440 C439 1.358 . S
C440 H443 0.930 . S
C441 C438 1.348 . S
C441 C439 1.356 . S
H442 C436 0.930 . S
H443 C440 0.930 . S
O444 Li384 1.956 1_554 S
O444 Li385 1.970 . S
O444 Li386 1.961 1_554 S
O444 C388 1.325 . S
O445 Li384 1.969 1_554 S
O445 Li385 1.956 . S
O445 Li387 1.961 . S
O445 C394 1.325 . S
O446 Li384 1.962 . S
O446 Li386 1.956 . S
O446 Li387 1.970 1_556 S
O446 C416 1.325 . S
O447 Li385 1.961 . S
O447 Li386 1.970 1_554 S
O447 Li387 1.956 . S
O447 C422 1.325 . S
H448 C390 0.929 . S
H449 C391 0.930 . S
H450 C392 0.930 . S
H451 C393 0.930 . S
H452 C395 0.930 . S
H453 C397 0.929 . S
H454 C398 0.930 . S
H455 C399 0.930 . S
H456 C402 0.930 . S
H457 C405 0.929 . S
H458 C410 0.929 . S
H459 C411 0.930 . S
H460 C418 0.929 . S
H461 C419 0.930 . S
H462 C420 0.930 . S
H463 C421 0.930 . S
H464 C423 0.929 1_556 S
H465 C424 0.930 . S
H466 C425 0.930 1_556 S
H467 C426 0.930 . S
H468 C430 0.929 . S
H469 C432 0.930 . S
H470 C438 0.929 . S
H471 C439 0.930 . S
Li472 N489 1.990 . S
Li472 O532 1.956 . S
Li472 O533 1.970 . S
Li472 O534 1.978 . S
Li473 N497 1.995 . S
Li473 O532 1.970 . S
Li473 O533 1.956 . S
Li473 O535 1.961 1_545 S
Li474 N519 1.990 . S
Li474 O532 1.961 . S
Li474 O534 1.956 . S
Li474 O535 1.970 1_545 S
Li475 N525 1.990 . S
Li475 O533 1.961 1_565 S
Li475 O534 1.949 1_565 S
Li475 O535 1.956 . S
C476 C478 1.348 . S
C476 C479 1.356 . S
C476 O532 1.325 . S
N477 C480 1.314 . S
N477 C481 1.279 . S
C478 C476 1.348 . S
C478 C480 1.353 . S
C478 H536 0.929 . S
C479 C476 1.356 . S
C479 C481 1.358 . S
C479 H537 0.930 . S
C480 N477 1.314 . S
C480 C478 1.353 . S
C480 H538 0.930 . S
C481 N477 1.279 . S
C481 C479 1.358 . S
C481 H539 0.930 . S
C482 C485 1.377 . S
C482 C486 1.324 1_545 S
C482 O533 1.329 . S
C483 N484 1.307 . S
C483 C486 1.358 . S
C483 H540 0.930 . S
N484 C483 1.307 . S
N484 C487 1.282 1_565 S
C485 C482 1.377 . S
C485 C487 1.353 . S
C485 H541 0.929 . S
C486 C482 1.324 1_565 S
C486 C483 1.358 . S
C486 H542 0.930 . S
C487 N484 1.282 1_545 S
C487 C485 1.353 . S
C487 H543 0.930 . S
C488 N489 1.314 . S
C488 C493 1.353 . S
C488 H494 0.930 . S
N489 Li472 1.990 . S
N489 C488 1.314 . S
N489 C491 1.279 . S
C490 C491 1.358 . S
C490 C492 1.356 . S
C490 H544 0.930 . S
C491 N489 1.279 . S
C491 C490 1.358 . S
C491 H495 0.930 . S
C492 C490 1.356 . S
C492 C493 1.348 . S
C493 C488 1.353 . S
C493 C492 1.348 . S
C493 H545 0.929 . S
H494 C488 0.930 . S
H495 C491 0.930 . S
C496 N497 1.307 1_565 S
C496 C498 1.353 . S
C496 H502 0.930 . S
N497 Li473 1.995 . S
N497 C496 1.307 1_545 S
N497 C500 1.284 . S
C498 C496 1.353 . S
C498 C501 1.348 1_565 S
C498 H546 0.929 . S
C499 C500 1.358 . S
C499 C501 1.356 . S
C499 H547 0.930 . S
C500 N497 1.284 . S
C500 C499 1.358 . S
C500 H503 0.930 . S
C501 C498 1.348 1_545 S
C501 C499 1.356 . S
H502 C496 0.930 . S
H503 C500 0.930 . S
C504 C506 1.328 1_545 S
C504 C507 1.378 . S
C504 O534 1.325 . S
N505 C508 1.282 1_545 S
N505 C509 1.307 . S
C506 C504 1.328 1_565 S
C506 C508 1.353 . S
C506 H548 0.929 . S
C507 C504 1.378 . S
C507 C509 1.358 . S
C507 H549 0.930 . S
C508 N505 1.282 1_565 S
C508 C506 1.353 . S
C508 H550 0.930 . S
C509 N505 1.307 . S
C509 C507 1.358 . S
C509 H551 0.930 . S
C510 C511 1.348 . S
C510 C512 1.356 . S
C510 O535 1.325 . S
C511 C510 1.348 . S
C511 C513 1.353 . S
C511 H552 0.929 . S
C512 C510 1.356 . S
C512 C514 1.358 . S
C512 H553 0.930 . S
C513 C511 1.353 . S
C513 N515 1.314 . S
C513 H554 0.930 . S
C514 C512 1.358 . S
C514 N515 1.279 . S
C514 H555 0.930 . S
N515 C513 1.314 . S
N515 C514 1.279 . S
C516 C518 1.353 . S
C516 N519 1.314 . S
C516 H522 0.930 . S
C517 N519 1.279 1_565 S
C517 C520 1.358 . S
C517 H523 0.930 . S
C518 C516 1.353 . S
C518 C521 1.348 . S
C518 H556 0.929 . S
N519 Li474 1.990 . S
N519 C516 1.314 . S
N519 C517 1.279 1_545 S
C520 C517 1.358 . S
C520 C521 1.356 1_565 S
C520 H557 0.930 . S
C521 C518 1.348 . S
C521 C520 1.356 1_545 S
H522 C516 0.930 . S
H523 C517 0.930 . S
C524 N525 1.314 . S
C524 C526 1.353 . S
C524 H530 0.930 . S
N525 Li475 1.990 . S
N525 C524 1.314 . S
N525 C528 1.279 . S
C526 C524 1.353 . S
C526 C529 1.348 . S
C526 H558 0.929 . S
C527 C528 1.358 . S
C527 C529 1.356 . S
C527 H559 0.930 . S
C528 N525 1.279 . S
C528 C527 1.358 . S
C528 H531 0.930 . S
C529 C526 1.348 . S
C529 C527 1.356 . S
H530 C524 0.930 . S
H531 C528 0.930 . S
O532 Li472 1.956 . S
O532 Li473 1.970 . S
O532 Li474 1.961 . S
O532 C476 1.325 . S
O533 Li472 1.970 . S
O533 Li473 1.956 . S
O533 Li475 1.961 1_545 S
O533 C482 1.329 . S
O534 Li472 1.978 . S
O534 Li474 1.956 . S
O534 Li475 1.949 1_545 S
O534 C504 1.325 . S
O535 Li473 1.961 1_565 S
O535 Li474 1.970 1_565 S
O535 Li475 1.956 . S
O535 C510 1.325 . S
H536 C478 0.929 . S
H537 C479 0.930 . S
H538 C480 0.930 . S
H539 C481 0.930 . S
H540 C483 0.930 . S
H541 C485 0.929 . S
H542 C486 0.930 . S
H543 C487 0.930 . S
H544 C490 0.930 . S
H545 C493 0.929 . S
H546 C498 0.929 . S
H547 C499 0.930 . S
H548 C506 0.929 . S
H549 C507 0.930 . S
H550 C508 0.930 . S
H551 C509 0.930 . S
H552 C511 0.929 . S
H553 C512 0.930 . S
H554 C513 0.930 . S
H555 C514 0.930 . S
H556 C518 0.929 . S
H557 C520 0.930 . S
H558 C526 0.929 . S
H559 C527 0.930 . S
Li560 N577 1.990 . S
Li560 O620 1.956 . S
Li560 O621 1.970 . S
Li560 O622 1.961 . S
Li561 N585 1.990 . S
Li561 O620 1.970 . S
Li561 O621 1.956 . S
Li561 O623 1.961 . S
Li562 N607 1.990 . S
Li562 O620 1.961 . S
Li562 O622 1.956 . S
Li562 O623 1.970 . S
Li563 N613 1.990 . S
Li563 O621 1.961 . S
Li563 O622 1.970 . S
Li563 O623 1.956 . S
C564 C566 1.348 . S
C564 C567 1.356 . S
C564 O620 1.325 . S
N565 C568 1.314 . S
N565 C569 1.279 . S
C566 C564 1.348 . S
C566 C568 1.353 . S
C566 H624 0.929 . S
C567 C564 1.356 . S
C567 C569 1.358 . S
C567 H625 0.930 . S
C568 N565 1.314 . S
C568 C566 1.353 . S
C568 H626 0.930 . S
C569 N565 1.279 . S
C569 C567 1.358 . S
C569 H627 0.930 . S
C570 C573 1.348 . S
C570 C574 1.356 . S
C570 O621 1.325 . S
C571 N572 1.279 . S
C571 C574 1.358 . S
C571 H628 0.930 . S
N572 C571 1.279 . S
N572 C575 1.314 . S
C573 C570 1.348 . S
C573 C575 1.353 . S
C573 H629 0.929 . S
C574 C570 1.356 . S
C574 C571 1.358 . S
C574 H630 0.930 . S
C575 N572 1.314 . S
C575 C573 1.353 . S
C575 H631 0.930 . S
C576 N577 1.314 . S
C576 C581 1.353 . S
C576 H582 0.930 . S
N577 Li560 1.990 . S
N577 C576 1.314 . S
N577 C579 1.279 . S
C578 C579 1.358 . S
C578 C580 1.356 . S
C578 H632 0.930 . S
C579 N577 1.279 . S
C579 C578 1.358 . S
C579 H583 0.930 . S
C580 C578 1.356 . S
C580 C581 1.348 . S
C581 C576 1.353 . S
C581 C580 1.348 . S
C581 H633 0.929 . S
H582 C576 0.930 . S
H583 C579 0.930 . S
C584 N585 1.314 . S
C584 C586 1.353 . S
C584 H590 0.930 . S
N585 Li561 1.990 . S
N585 C584 1.314 . S
N585 C588 1.279 . S
C586 C584 1.353 . S
C586 C589 1.348 . S
C586 H634 0.929 . S
C587 C588 1.358 . S
C587 C589 1.356 . S
C587 H635 0.930 . S
C588 N585 1.279 . S
C588 C587 1.358 . S
C588 H591 0.930 . S
C589 C586 1.348 . S
C589 C587 1.356 . S
H590 C584 0.930 . S
H591 C588 0.930 . S
C592 C594 1.348 . S
C592 C595 1.356 . S
C592 O622 1.325 . S
N593 C596 1.314 . S
N593 C597 1.279 . S
C594 C592 1.348 . S
C594 C596 1.353 . S
C594 H636 0.929 . S
C595 C592 1.356 . S
C595 C597 1.358 . S
C595 H637 0.930 . S
C596 N593 1.314 . S
C596 C594 1.353 . S
C596 H638 0.930 . S
C597 N593 1.279 . S
C597 C595 1.358 . S
C597 H639 0.930 . S
C598 C599 1.348 . S
C598 C600 1.356 . S
C598 O623 1.325 . S
C599 C598 1.348 . S
C599 C601 1.353 . S
C599 H640 0.929 . S
C600 C598 1.356 . S
C600 C602 1.358 . S
C600 H641 0.930 . S
C601 C599 1.353 . S
C601 N603 1.314 . S
C601 H642 0.930 . S
C602 C600 1.358 . S
C602 N603 1.279 . S
C602 H643 0.930 . S
N603 C601 1.314 . S
N603 C602 1.279 . S
C604 C606 1.353 . S
C604 N607 1.314 . S
C604 H610 0.930 . S
C605 N607 1.279 . S
C605 C608 1.358 . S
C605 H611 0.930 . S
C606 C604 1.353 . S
C606 C609 1.348 . S
C606 H644 0.929 . S
N607 Li562 1.990 . S
N607 C604 1.314 . S
N607 C605 1.279 . S
C608 C605 1.358 . S
C608 C609 1.356 . S
C608 H645 0.930 . S
C609 C606 1.348 . S
C609 C608 1.356 . S
H610 C604 0.930 . S
H611 C605 0.930 . S
C612 N613 1.314 . S
C612 C614 1.353 . S
C612 H618 0.930 . S
N613 Li563 1.990 . S
N613 C612 1.314 . S
N613 C616 1.279 . S
C614 C612 1.353 . S
C614 C617 1.348 . S
C614 H646 0.929 . S
C615 C616 1.358 . S
C615 C617 1.356 . S
C615 H647 0.930 . S
C616 N613 1.279 . S
C616 C615 1.358 . S
C616 H619 0.930 . S
C617 C614 1.348 . S
C617 C615 1.356 . S
H618 C612 0.930 . S
H619 C616 0.930 . S
O620 Li560 1.956 . S
O620 Li561 1.970 . S
O620 Li562 1.961 . S
O620 C564 1.325 . S
O621 Li560 1.970 . S
O621 Li561 1.956 . S
O621 Li563 1.961 . S
O621 C570 1.325 . S
O622 Li560 1.961 . S
O622 Li562 1.956 . S
O622 Li563 1.970 . S
O622 C592 1.325 . S
O623 Li561 1.961 . S
O623 Li562 1.970 . S
O623 Li563 1.956 . S
O623 C598 1.325 . S
H624 C566 0.929 . S
H625 C567 0.930 . S
H626 C568 0.930 . S
H627 C569 0.930 . S
H628 C571 0.930 . S
H629 C573 0.929 . S
H630 C574 0.930 . S
H631 C575 0.930 . S
H632 C578 0.930 . S
H633 C581 0.929 . S
H634 C586 0.929 . S
H635 C587 0.930 . S
H636 C594 0.929 . S
H637 C595 0.930 . S
H638 C596 0.930 . S
H639 C597 0.930 . S
H640 C599 0.929 . S
H641 C600 0.930 . S
H642 C601 0.930 . S
H643 C602 0.930 . S
H644 C606 0.929 . S
H645 C608 0.930 . S
H646 C614 0.929 . S
H647 C615 0.930 . S
Li648 N665 1.990 . S
Li648 O708 1.956 . S
Li648 O709 1.970 . S
Li648 O710 1.961 . S
Li649 N673 1.990 . S
Li649 O708 1.970 . S
Li649 O709 1.956 . S
Li649 O711 1.961 . S
Li650 N695 1.990 . S
Li650 O708 1.961 . S
Li650 O710 1.956 . S
Li650 O711 1.970 . S
Li651 N701 1.990 . S
Li651 O709 1.961 . S
Li651 O710 1.970 . S
Li651 O711 1.956 . S
C652 C654 1.348 . S
C652 C655 1.356 . S
C652 O708 1.325 . S
N653 C656 1.314 . S
N653 C657 1.279 . S
C654 C652 1.348 . S
C654 C656 1.353 . S
C654 H712 0.929 . S
C655 C652 1.356 . S
C655 C657 1.358 . S
C655 H713 0.930 . S
C656 N653 1.314 . S
C656 C654 1.353 . S
C656 H714 0.930 . S
C657 N653 1.279 . S
C657 C655 1.358 . S
C657 H715 0.930 . S
C658 C661 1.348 . S
C658 C662 1.356 . S
C658 O709 1.325 . S
C659 N660 1.279 . S
C659 C662 1.358 . S
C659 H716 0.930 . S
N660 C659 1.279 . S
N660 C663 1.314 . S
C661 C658 1.348 . S
C661 C663 1.353 . S
C661 H717 0.929 . S
C662 C658 1.356 . S
C662 C659 1.358 . S
C662 H718 0.930 . S
C663 N660 1.314 . S
C663 C661 1.353 . S
C663 H719 0.930 . S
C664 N665 1.314 . S
C664 C669 1.353 . S
C664 H670 0.930 . S
N665 Li648 1.990 . S
N665 C664 1.314 . S
N665 C667 1.279 . S
C666 C667 1.358 . S
C666 C668 1.356 . S
C666 H720 0.930 . S
C667 N665 1.279 . S
C667 C666 1.358 . S
C667 H671 0.930 . S
C668 C666 1.356 . S
C668 C669 1.348 . S
C669 C664 1.353 . S
C669 C668 1.348 . S
C669 H721 0.929 . S
H670 C664 0.930 . S
H671 C667 0.930 . S
C672 N673 1.314 . S
C672 C674 1.353 . S
C672 H678 0.930 . S
N673 Li649 1.990 . S
N673 C672 1.314 . S
N673 C676 1.279 . S
C674 C672 1.353 . S
C674 C677 1.348 . S
C674 H722 0.929 . S
C675 C676 1.358 . S
C675 C677 1.356 . S
C675 H723 0.930 . S
C676 N673 1.279 . S
C676 C675 1.358 . S
C676 H679 0.930 . S
C677 C674 1.348 . S
C677 C675 1.356 . S
H678 C672 0.930 . S
H679 C676 0.930 . S
C680 C682 1.348 . S
C680 C683 1.356 . S
C680 O710 1.325 . S
N681 C684 1.314 . S
N681 C685 1.279 . S
C682 C680 1.348 . S
C682 C684 1.353 . S
C682 H724 0.929 . S
C683 C680 1.356 . S
C683 C685 1.358 . S
C683 H725 0.930 . S
C684 N681 1.314 . S
C684 C682 1.353 . S
C684 H726 0.930 . S
C685 N681 1.279 . S
C685 C683 1.358 . S
C685 H727 0.930 . S
C686 C687 1.348 . S
C686 C688 1.356 . S
C686 O711 1.325 . S
C687 C686 1.348 . S
C687 C689 1.353 . S
C687 H728 0.929 . S
C688 C686 1.356 . S
C688 C690 1.358 . S
C688 H729 0.930 . S
C689 C687 1.353 . S
C689 N691 1.314 . S
C689 H730 0.930 . S
C690 C688 1.358 . S
C690 N691 1.279 . S
C690 H731 0.930 . S
N691 C689 1.314 . S
N691 C690 1.279 . S
C692 C694 1.353 . S
C692 N695 1.314 . S
C692 H698 0.930 . S
C693 N695 1.279 . S
C693 C696 1.358 . S
C693 H699 0.930 . S
C694 C692 1.353 . S
C694 C697 1.348 . S
C694 H732 0.929 . S
N695 Li650 1.990 . S
N695 C692 1.314 . S
N695 C693 1.279 . S
C696 C693 1.358 . S
C696 C697 1.356 . S
C696 H733 0.930 . S
C697 C694 1.348 . S
C697 C696 1.356 . S
H698 C692 0.930 . S
H699 C693 0.930 . S
C700 N701 1.314 . S
C700 C702 1.353 . S
C700 H706 0.930 . S
N701 Li651 1.990 . S
N701 C700 1.314 . S
N701 C704 1.279 . S
C702 C700 1.353 . S
C702 C705 1.348 . S
C702 H734 0.929 . S
C703 C704 1.358 . S
C703 C705 1.356 . S
C703 H735 0.930 . S
C704 N701 1.279 . S
C704 C703 1.358 . S
C704 H707 0.930 . S
C705 C702 1.348 . S
C705 C703 1.356 . S
H706 C700 0.930 . S
H707 C704 0.930 . S
O708 Li648 1.956 . S
O708 Li649 1.970 . S
O708 Li650 1.961 . S
O708 C652 1.325 . S
O709 Li648 1.970 . S
O709 Li649 1.956 . S
O709 Li651 1.961 . S
O709 C658 1.325 . S
O710 Li648 1.961 . S
O710 Li650 1.956 . S
O710 Li651 1.970 . S
O710 C680 1.325 . S
O711 Li649 1.961 . S
O711 Li650 1.970 . S
O711 Li651 1.956 . S
O711 C686 1.325 . S
H712 C654 0.929 . S
H713 C655 0.930 . S
H714 C656 0.930 . S
H715 C657 0.930 . S
H716 C659 0.930 . S
H717 C661 0.929 . S
H718 C662 0.930 . S
H719 C663 0.930 . S
H720 C666 0.930 . S
H721 C669 0.929 . S
H722 C674 0.929 . S
H723 C675 0.930 . S
H724 C682 0.929 . S
H725 C683 0.930 . S
H726 C684 0.930 . S
H727 C685 0.930 . S
H728 C687 0.929 . S
H729 C688 0.930 . S
H730 C689 0.930 . S
H731 C690 0.930 . S
H732 C694 0.929 . S
H733 C696 0.930 . S
H734 C702 0.929 . S
H735 C703 0.930 . S
Li736 N753 1.990 . S
Li736 O796 1.956 . S
Li736 O797 1.970 . S
Li736 O798 1.961 . S
Li737 N761 1.990 . S
Li737 O796 1.970 . S
Li737 O797 1.956 . S
Li737 O799 1.961 . S
Li738 N783 1.990 . S
Li738 O796 1.961 . S
Li738 O798 1.956 . S
Li738 O799 1.970 . S
Li739 N789 1.990 . S
Li739 O797 1.961 . S
Li739 O798 1.970 . S
Li739 O799 1.956 . S
C740 C742 1.348 . S
C740 C743 1.356 . S
C740 O796 1.325 . S
N741 C744 1.314 . S
N741 C745 1.279 . S
C742 C740 1.348 . S
C742 C744 1.353 . S
C742 H800 0.929 . S
C743 C740 1.356 . S
C743 C745 1.358 . S
C743 H801 0.930 . S
C744 N741 1.314 . S
C744 C742 1.353 . S
C744 H802 0.930 . S
C745 N741 1.279 . S
C745 C743 1.358 . S
C745 H803 0.930 . S
C746 C749 1.348 . S
C746 C750 1.356 . S
C746 O797 1.325 . S
C747 N748 1.279 . S
C747 C750 1.358 . S
C747 H804 0.930 . S
N748 C747 1.279 . S
N748 C751 1.314 . S
C749 C746 1.348 . S
C749 C751 1.353 . S
C749 H805 0.929 . S
C750 C746 1.356 . S
C750 C747 1.358 . S
C750 H806 0.930 . S
C751 N748 1.314 . S
C751 C749 1.353 . S
C751 H807 0.930 . S
C752 N753 1.314 . S
C752 C757 1.353 . S
C752 H758 0.930 . S
N753 Li736 1.990 . S
N753 C752 1.314 . S
N753 C755 1.279 . S
C754 C755 1.358 . S
C754 C756 1.356 . S
C754 H808 0.930 . S
C755 N753 1.279 . S
C755 C754 1.358 . S
C755 H759 0.930 . S
C756 C754 1.356 . S
C756 C757 1.348 . S
C757 C752 1.353 . S
C757 C756 1.348 . S
C757 H809 0.929 . S
H758 C752 0.930 . S
H759 C755 0.930 . S
C760 N761 1.314 . S
C760 C762 1.353 . S
C760 H766 0.930 . S
N761 Li737 1.990 . S
N761 C760 1.314 . S
N761 C764 1.279 . S
C762 C760 1.353 . S
C762 C765 1.348 . S
C762 H810 0.929 . S
C763 C764 1.358 . S
C763 C765 1.356 . S
C763 H811 0.930 . S
C764 N761 1.279 . S
C764 C763 1.358 . S
C764 H767 0.930 . S
C765 C762 1.348 . S
C765 C763 1.356 . S
H766 C760 0.930 . S
H767 C764 0.930 . S
C768 C770 1.348 . S
C768 C771 1.356 . S
C768 O798 1.325 . S
N769 C772 1.314 . S
N769 C773 1.279 . S
C770 C768 1.348 . S
C770 C772 1.353 . S
C770 H812 0.929 . S
C771 C768 1.356 . S
C771 C773 1.358 . S
C771 H813 0.930 . S
C772 N769 1.314 . S
C772 C770 1.353 . S
C772 H814 0.930 . S
C773 N769 1.279 . S
C773 C771 1.358 . S
C773 H815 0.930 . S
C774 C775 1.348 . S
C774 C776 1.356 . S
C774 O799 1.325 . S
C775 C774 1.348 . S
C775 C777 1.353 . S
C775 H816 0.929 . S
C776 C774 1.356 . S
C776 C778 1.358 . S
C776 H817 0.930 . S
C777 C775 1.353 . S
C777 N779 1.314 . S
C777 H818 0.930 . S
C778 C776 1.358 . S
C778 N779 1.279 . S
C778 H819 0.930 . S
N779 C777 1.314 . S
N779 C778 1.279 . S
C780 C782 1.353 . S
C780 N783 1.314 . S
C780 H786 0.930 . S
C781 N783 1.279 . S
C781 C784 1.358 . S
C781 H787 0.930 . S
C782 C780 1.353 . S
C782 C785 1.348 . S
C782 H820 0.929 . S
N783 Li738 1.990 . S
N783 C780 1.314 . S
N783 C781 1.279 . S
C784 C781 1.358 . S
C784 C785 1.356 . S
C784 H821 0.930 . S
C785 C782 1.348 . S
C785 C784 1.356 . S
H786 C780 0.930 . S
H787 C781 0.930 . S
C788 N789 1.314 . S
C788 C790 1.353 . S
C788 H794 0.930 . S
N789 Li739 1.990 . S
N789 C788 1.314 . S
N789 C792 1.279 . S
C790 C788 1.353 . S
C790 C793 1.348 . S
C790 H822 0.929 . S
C791 C792 1.358 . S
C791 C793 1.356 . S
C791 H823 0.930 . S
C792 N789 1.279 . S
C792 C791 1.358 . S
C792 H795 0.930 . S
C793 C790 1.348 . S
C793 C791 1.356 . S
H794 C788 0.930 . S
H795 C792 0.930 . S
O796 Li736 1.956 . S
O796 Li737 1.970 . S
O796 Li738 1.961 . S
O796 C740 1.325 . S
O797 Li736 1.970 . S
O797 Li737 1.956 . S
O797 Li739 1.961 . S
O797 C746 1.325 . S
O798 Li736 1.961 . S
O798 Li738 1.956 . S
O798 Li739 1.970 . S
O798 C768 1.325 . S
O799 Li737 1.961 . S
O799 Li738 1.970 . S
O799 Li739 1.956 . S
O799 C774 1.325 . S
H800 C742 0.929 . S
H801 C743 0.930 . S
H802 C744 0.930 . S
H803 C745 0.930 . S
H804 C747 0.930 . S
H805 C749 0.929 . S
H806 C750 0.930 . S
H807 C751 0.930 . S
H808 C754 0.930 . S
H809 C757 0.929 . S
H810 C762 0.929 . S
H811 C763 0.930 . S
H812 C770 0.929 . S
H813 C771 0.930 . S
H814 C772 0.930 . S
H815 C773 0.930 . S
H816 C775 0.929 . S
H817 C776 0.930 . S
H818 C777 0.930 . S
H819 C778 0.930 . S
H820 C782 0.929 . S
H821 C784 0.930 . S
H822 C790 0.929 . S
H823 C791 0.930 . S
Li824 N841 1.990 . S
Li824 O884 1.956 . S
Li824 O885 1.970 1_565 S
Li824 O886 1.961 1_565 S
Li825 N849 1.990 . S
Li825 O884 1.970 1_545 S
Li825 O885 1.956 . S
Li825 O887 1.961 . S
Li826 N871 1.990 1_545 S
Li826 O884 1.961 1_545 S
Li826 O886 1.956 . S
Li826 O887 1.970 . S
Li827 N877 1.990 . S
Li827 O885 1.961 . S
Li827 O886 1.970 . S
Li827 O887 1.956 . S
C828 C830 1.348 . S
C828 C831 1.356 . S
C828 O884 1.325 . S
N829 C832 1.314 . S
N829 C833 1.279 . S
C830 C828 1.348 . S
C830 C832 1.353 . S
C830 H888 0.929 . S
C831 C828 1.356 . S
C831 C833 1.358 . S
C831 H889 0.930 . S
C832 N829 1.314 . S
C832 C830 1.353 . S
C832 H890 0.930 . S
C833 N829 1.279 . S
C833 C831 1.358 . S
C833 H891 0.930 . S
C834 C837 1.348 . S
C834 C838 1.356 . S
C834 O885 1.325 . S
C835 N836 1.279 . S
C835 C838 1.358 . S
C835 H892 0.930 . S
N836 C835 1.279 . S
N836 C839 1.314 . S
C837 C834 1.348 . S
C837 C839 1.353 . S
C837 H893 0.929 1_545 S
C838 C834 1.356 . S
C838 C835 1.358 . S
C838 H894 0.930 . S
C839 N836 1.314 . S
C839 C837 1.353 . S
C839 H895 0.930 . S
C840 N841 1.314 . S
C840 C845 1.353 . S
C840 H846 0.930 . S
N841 Li824 1.990 . S
N841 C840 1.314 . S
N841 C843 1.279 . S
C842 C843 1.358 . S
C842 C844 1.356 . S
C842 H896 0.930 . S
C843 N841 1.279 . S
C843 C842 1.358 . S
C843 H847 0.930 . S
C844 C842 1.356 . S
C844 C845 1.348 . S
C845 C840 1.353 . S
C845 C844 1.348 . S
C845 H897 0.929 . S
H846 C840 0.930 . S
H847 C843 0.930 . S
C848 N849 1.314 . S
C848 C850 1.353 . S
C848 H854 0.930 . S
N849 Li825 1.990 . S
N849 C848 1.314 . S
N849 C852 1.279 . S
C850 C848 1.353 . S
C850 C853 1.348 . S
C850 H898 0.929 . S
C851 C852 1.358 . S
C851 C853 1.356 . S
C851 H899 0.930 . S
C852 N849 1.279 . S
C852 C851 1.358 . S
C852 H855 0.930 . S
C853 C850 1.348 . S
C853 C851 1.356 . S
H854 C848 0.930 . S
H855 C852 0.930 . S
C856 C858 1.348 . S
C856 C859 1.356 1_545 S
C856 O886 1.325 . S
N857 C860 1.314 1_565 S
N857 C861 1.279 . S
C858 C856 1.348 . S
C858 C860 1.353 . S
C858 H900 0.929 . S
C859 C856 1.356 1_565 S
C859 C861 1.358 . S
C859 H901 0.930 . S
C860 N857 1.314 1_545 S
C860 C858 1.353 . S
C860 H902 0.930 . S
C861 N857 1.279 . S
C861 C859 1.358 . S
C861 H903 0.930 . S
C862 C863 1.348 . S
C862 C864 1.356 . S
C862 O887 1.325 . S
C863 C862 1.348 . S
C863 C865 1.353 . S
C863 H904 0.929 . S
C864 C862 1.356 . S
C864 C866 1.358 . S
C864 H905 0.930 . S
C865 C863 1.353 . S
C865 N867 1.314 . S
C865 H906 0.930 . S
C866 C864 1.358 . S
C866 N867 1.279 . S
C866 H907 0.930 . S
N867 C865 1.314 . S
N867 C866 1.279 . S
C868 C870 1.353 . S
C868 N871 1.314 . S
C868 H874 0.930 . S
C869 N871 1.279 . S
C869 C872 1.358 . S
C869 H875 0.926 1_565 S
C870 C868 1.353 . S
C870 C873 1.348 . S
C870 H908 0.929 . S
N871 Li826 1.990 1_565 S
N871 C868 1.314 . S
N871 C869 1.279 . S
C872 C869 1.358 . S
C872 C873 1.356 . S
C872 H909 0.930 . S
C873 C870 1.348 . S
C873 C872 1.356 . S
H874 C868 0.930 . S
H875 C869 0.926 1_545 S
C876 N877 1.314 . S
C876 C878 1.353 . S
C876 H882 0.930 . S
N877 Li827 1.990 . S
N877 C876 1.314 . S
N877 C880 1.279 . S
C878 C876 1.353 . S
C878 C881 1.348 . S
C878 H910 0.929 . S
C879 C880 1.358 . S
C879 C881 1.356 . S
C879 H911 0.930 . S
C880 N877 1.279 . S
C880 C879 1.358 . S
C880 H883 0.930 . S
C881 C878 1.348 . S
C881 C879 1.356 . S
H882 C876 0.930 . S
H883 C880 0.930 . S
O884 Li824 1.956 . S
O884 Li825 1.970 1_565 S
O884 Li826 1.961 1_565 S
O884 C828 1.325 . S
O885 Li824 1.970 1_545 S
O885 Li825 1.956 . S
O885 Li827 1.961 . S
O885 C834 1.325 . S
O886 Li824 1.961 1_545 S
O886 Li826 1.956 . S
O886 Li827 1.970 . S
O886 C856 1.325 . S
O887 Li825 1.961 . S
O887 Li826 1.970 . S
O887 Li827 1.956 . S
O887 C862 1.325 . S
H888 C830 0.929 . S
H889 C831 0.930 . S
H890 C832 0.930 . S
H891 C833 0.930 . S
H892 C835 0.930 . S
H893 C837 0.929 1_565 S
H894 C838 0.930 . S
H895 C839 0.930 . S
H896 C842 0.930 . S
H897 C845 0.929 . S
H898 C850 0.929 . S
H899 C851 0.930 . S
H900 C858 0.929 . S
H901 C859 0.930 . S
H902 C860 0.930 . S
H903 C861 0.930 . S
H904 C863 0.929 . S
H905 C864 0.930 . S
H906 C865 0.930 . S
H907 C866 0.930 . S
H908 C870 0.929 . S
H909 C872 0.930 . S
H910 C878 0.929 . S
H911 C879 0.930 . S
Li912 N929 1.990 . S
Li912 O972 1.956 . S
Li912 O973 1.970 . S
Li912 O974 1.961 . S
Li913 N937 1.991 . S
Li913 O972 1.967 1_655 S
Li913 O973 1.956 1_655 S
Li913 O975 1.963 . S
Li914 N959 1.990 . S
Li914 O972 1.961 . S
Li914 O974 1.956 . S
Li914 O975 1.970 1_455 S
Li915 N965 1.990 . S
Li915 O973 1.961 1_655 S
Li915 O974 1.970 1_655 S
Li915 O975 1.956 . S
C916 C918 1.348 . S
C916 C919 1.356 . S
C916 O972 1.325 . S
N917 C920 1.314 . S
N917 C921 1.279 . S
C918 C916 1.348 . S
C918 C920 1.353 . S
C918 H976 0.929 . S
C919 C916 1.356 . S
C919 C921 1.358 . S
C919 H977 0.930 . S
C920 N917 1.314 . S
C920 C918 1.353 . S
C920 H978 0.930 . S
C921 N917 1.279 . S
C921 C919 1.358 . S
C921 H979 0.930 . S
C922 C925 1.348 . S
C922 C926 1.356 1_455 S
C922 O973 1.325 . S
C923 N924 1.279 . S
C923 C926 1.358 . S
C923 H980 0.930 . S
N924 C923 1.279 . S
N924 C927 1.314 1_655 S
C925 C922 1.348 . S
C925 C927 1.353 . S
C925 H981 0.929 . S
C926 C922 1.356 1_655 S
C926 C923 1.358 . S
C926 H982 0.930 . S
C927 N924 1.314 1_455 S
C927 C925 1.353 . S
C927 H983 0.930 . S
C928 N929 1.314 . S
C928 C933 1.353 . S
C928 H934 0.930 . S
N929 Li912 1.990 . S
N929 C928 1.314 . S
N929 C931 1.279 . S
C930 C931 1.358 . S
C930 C932 1.356 . S
C930 H984 0.930 . S
C931 N929 1.279 . S
C931 C930 1.358 . S
C931 H935 0.930 . S
C932 C930 1.356 . S
C932 C933 1.348 . S
C933 C928 1.353 . S
C933 C932 1.348 . S
C933 H985 0.929 . S
H934 C928 0.930 . S
H935 C931 0.930 . S
C936 N937 1.314 . S
C936 C938 1.353 . S
C936 H942 0.930 . S
N937 Li913 1.991 . S
N937 C936 1.314 . S
N937 C940 1.279 . S
C938 C936 1.353 . S
C938 C941 1.348 . S
C938 H986 0.929 1_556 S
C939 C940 1.358 . S
C939 C941 1.356 . S
C939 H987 0.930 1_655 S
C940 N937 1.279 . S
C940 C939 1.358 . S
C940 H943 0.931 1_655 S
C941 C938 1.348 . S
C941 C939 1.356 . S
H942 C936 0.930 . S
H943 C940 0.931 1_455 S
C944 C946 1.348 1_455 S
C944 C947 1.356 . S
C944 O974 1.325 . S
N945 C948 1.314 1_455 S
N945 C949 1.279 . S
C946 C944 1.348 1_655 S
C946 C948 1.353 . S
C946 H988 0.929 . S
C947 C944 1.356 . S
C947 C949 1.358 . S
C947 H989 0.930 . S
C948 N945 1.314 1_655 S
C948 C946 1.353 . S
C948 H990 0.930 . S
C949 N945 1.279 . S
C949 C947 1.358 . S
C949 H991 0.930 . S
C950 C951 1.348 . S
C950 C952 1.356 . S
C950 O975 1.325 . S
C951 C950 1.348 . S
C951 C953 1.353 . S
C951 H992 0.929 . S
C952 C950 1.356 . S
C952 C954 1.358 . S
C952 H993 0.930 . S
C953 C951 1.353 . S
C953 N955 1.314 . S
C953 H994 0.930 . S
C954 C952 1.358 . S
C954 N955 1.279 . S
C954 H995 0.930 . S
N955 C953 1.314 . S
N955 C954 1.279 . S
C956 C958 1.353 . S
C956 N959 1.314 . S
C956 H962 0.930 . S
C957 N959 1.279 . S
C957 C960 1.358 . S
C957 H963 0.926 1_455 S
C958 C956 1.353 . S
C958 C961 1.348 . S
C958 H996 0.929 1_556 S
N959 Li914 1.990 . S
N959 C956 1.314 . S
N959 C957 1.279 . S
C960 C957 1.358 . S
C960 C961 1.356 . S
C960 H997 0.931 . S
C961 C958 1.348 . S
C961 C960 1.356 . S
H962 C956 0.930 . S
H963 C957 0.926 1_655 S
C964 N965 1.314 . S
C964 C966 1.353 . S
C964 H970 0.930 . S
N965 Li915 1.990 . S
N965 C964 1.314 . S
N965 C968 1.279 . S
C966 C964 1.353 . S
C966 C969 1.348 . S
C966 H998 0.929 . S
C967 C968 1.358 . S
C967 C969 1.356 . S
C967 H999 0.930 . S
C968 N965 1.279 . S
C968 C967 1.358 . S
C968 H971 0.930 . S
C969 C966 1.348 . S
C969 C967 1.356 . S
H970 C964 0.930 . S
H971 C968 0.930 . S
O972 Li912 1.956 . S
O972 Li913 1.967 1_455 S
O972 Li914 1.961 . S
O972 C916 1.325 . S
O973 Li912 1.970 . S
O973 Li913 1.956 1_455 S
O973 Li915 1.961 1_455 S
O973 C922 1.325 . S
O974 Li912 1.961 . S
O974 Li914 1.956 . S
O974 Li915 1.970 1_455 S
O974 C944 1.325 . S
O975 Li913 1.963 . S
O975 Li914 1.970 1_655 S
O975 Li915 1.956 . S
O975 C950 1.325 . S
H976 C918 0.929 . S
H977 C919 0.930 . S
H978 C920 0.930 . S
H979 C921 0.930 . S
H980 C923 0.930 . S
H981 C925 0.929 . S
H982 C926 0.930 . S
H983 C927 0.930 . S
H984 C930 0.930 . S
H985 C933 0.929 . S
H986 C938 0.929 1_554 S
H987 C939 0.930 1_455 S
H988 C946 0.929 . S
H989 C947 0.930 . S
H990 C948 0.930 . S
H991 C949 0.930 . S
H992 C951 0.929 . S
H993 C952 0.930 . S
H994 C953 0.930 . S
H995 C954 0.930 . S
H996 C958 0.929 1_554 S
H997 C960 0.931 . S
H998 C966 0.929 . S
H999 C967 0.930 . S
Li1000 N1017 1.990 . S
Li1000 O1060 1.956 . S
Li1000 O1061 1.970 . S
Li1000 O1062 1.961 . S
Li1001 N1025 1.990 . S
Li1001 O1060 1.970 . S
Li1001 O1061 1.956 . S
Li1001 O1063 1.961 . S
Li1002 N1047 1.990 . S
Li1002 O1060 1.961 . S
Li1002 O1062 1.956 . S
Li1002 O1063 1.970 . S
Li1003 N1053 1.990 . S
Li1003 O1061 1.961 . S
Li1003 O1062 1.970 . S
Li1003 O1063 1.956 . S
C1004 C1006 1.348 . S
C1004 C1007 1.356 . S
C1004 O1060 1.325 . S
N1005 C1008 1.314 . S
N1005 C1009 1.279 . S
C1006 C1004 1.348 . S
C1006 C1008 1.353 . S
C1006 H1064 0.929 . S
C1007 C1004 1.356 . S
C1007 C1009 1.358 . S
C1007 H1065 0.930 . S
C1008 N1005 1.314 . S
C1008 C1006 1.353 . S
C1008 H1066 0.930 . S
C1009 N1005 1.279 . S
C1009 C1007 1.358 . S
C1009 H1067 0.930 . S
C1010 C1013 1.348 . S
C1010 C1014 1.356 . S
C1010 O1061 1.325 . S
C1011 N1012 1.279 . S
C1011 C1014 1.358 . S
C1011 H1068 0.930 . S
N1012 C1011 1.279 . S
N1012 C1015 1.314 . S
C1013 C1010 1.348 . S
C1013 C1015 1.353 . S
C1013 H1069 0.929 . S
C1014 C1010 1.356 . S
C1014 C1011 1.358 . S
C1014 H1070 0.930 . S
C1015 N1012 1.314 . S
C1015 C1013 1.353 . S
C1015 H1071 0.930 . S
C1016 N1017 1.314 . S
C1016 C1021 1.353 . S
C1016 H1022 0.930 . S
N1017 Li1000 1.990 . S
N1017 C1016 1.314 . S
N1017 C1019 1.279 . S
C1018 C1019 1.358 . S
C1018 C1020 1.356 . S
C1018 H1072 0.930 . S
C1019 N1017 1.279 . S
C1019 C1018 1.358 . S
C1019 H1023 0.930 . S
C1020 C1018 1.356 . S
C1020 C1021 1.348 . S
C1021 C1016 1.353 . S
C1021 C1020 1.348 . S
C1021 H1073 0.929 . S
H1022 C1016 0.930 . S
H1023 C1019 0.930 . S
C1024 N1025 1.314 . S
C1024 C1026 1.353 . S
C1024 H1030 0.930 . S
N1025 Li1001 1.990 . S
N1025 C1024 1.314 . S
N1025 C1028 1.279 . S
C1026 C1024 1.353 . S
C1026 C1029 1.348 . S
C1026 H1074 0.929 . S
C1027 C1028 1.358 . S
C1027 C1029 1.356 . S
C1027 H1075 0.930 . S
C1028 N1025 1.279 . S
C1028 C1027 1.358 . S
C1028 H1031 0.930 . S
C1029 C1026 1.348 . S
C1029 C1027 1.356 . S
H1030 C1024 0.930 . S
H1031 C1028 0.930 . S
C1032 C1034 1.348 . S
C1032 C1035 1.356 . S
C1032 O1062 1.325 . S
N1033 C1036 1.314 . S
N1033 C1037 1.279 . S
C1034 C1032 1.348 . S
C1034 C1036 1.353 . S
C1034 H1076 0.929 . S
C1035 C1032 1.356 . S
C1035 C1037 1.358 . S
C1035 H1077 0.930 . S
C1036 N1033 1.314 . S
C1036 C1034 1.353 . S
C1036 H1078 0.930 . S
C1037 N1033 1.279 . S
C1037 C1035 1.358 . S
C1037 H1079 0.930 . S
C1038 C1039 1.348 . S
C1038 C1040 1.356 . S
C1038 O1063 1.325 . S
C1039 C1038 1.348 . S
C1039 C1041 1.353 . S
C1039 H1080 0.929 . S
C1040 C1038 1.356 . S
C1040 C1042 1.358 . S
C1040 H1081 0.930 . S
C1041 C1039 1.353 . S
C1041 N1043 1.314 . S
C1041 H1082 0.930 . S
C1042 C1040 1.358 . S
C1042 N1043 1.279 . S
C1042 H1083 0.930 . S
N1043 C1041 1.314 . S
N1043 C1042 1.279 . S
C1044 C1046 1.353 . S
C1044 N1047 1.314 . S
C1044 H1050 0.930 . S
C1045 N1047 1.279 . S
C1045 C1048 1.358 . S
C1045 H1051 0.930 . S
C1046 C1044 1.353 . S
C1046 C1049 1.348 . S
C1046 H1084 0.929 . S
N1047 Li1002 1.990 . S
N1047 C1044 1.314 . S
N1047 C1045 1.279 . S
C1048 C1045 1.358 . S
C1048 C1049 1.356 . S
C1048 H1085 0.930 . S
C1049 C1046 1.348 . S
C1049 C1048 1.356 . S
H1050 C1044 0.930 . S
H1051 C1045 0.930 . S
C1052 N1053 1.314 . S
C1052 C1054 1.353 . S
C1052 H1058 0.930 . S
N1053 Li1003 1.990 . S
N1053 C1052 1.314 . S
N1053 C1056 1.279 . S
C1054 C1052 1.353 . S
C1054 C1057 1.348 . S
C1054 H1086 0.929 . S
C1055 C1056 1.358 . S
C1055 C1057 1.356 . S
C1055 H1087 0.930 . S
C1056 N1053 1.279 . S
C1056 C1055 1.358 . S
C1056 H1059 0.930 . S
C1057 C1054 1.348 . S
C1057 C1055 1.356 . S
H1058 C1052 0.930 . S
H1059 C1056 0.930 . S
O1060 Li1000 1.956 . S
O1060 Li1001 1.970 . S
O1060 Li1002 1.961 . S
O1060 C1004 1.325 . S
O1061 Li1000 1.970 . S
O1061 Li1001 1.956 . S
O1061 Li1003 1.961 . S
O1061 C1010 1.325 . S
O1062 Li1000 1.961 . S
O1062 Li1002 1.956 . S
O1062 Li1003 1.970 . S
O1062 C1032 1.325 . S
O1063 Li1001 1.961 . S
O1063 Li1002 1.970 . S
O1063 Li1003 1.956 . S
O1063 C1038 1.325 . S
H1064 C1006 0.929 . S
H1065 C1007 0.930 . S
H1066 C1008 0.930 . S
H1067 C1009 0.930 . S
H1068 C1011 0.930 . S
H1069 C1013 0.929 . S
H1070 C1014 0.930 . S
H1071 C1015 0.930 . S
H1072 C1018 0.930 . S
H1073 C1021 0.929 . S
H1074 C1026 0.929 . S
H1075 C1027 0.930 . S
H1076 C1034 0.929 . S
H1077 C1035 0.930 . S
H1078 C1036 0.930 . S
H1079 C1037 0.930 . S
H1080 C1039 0.929 . S
H1081 C1040 0.930 . S
H1082 C1041 0.930 . S
H1083 C1042 0.930 . S
H1084 C1046 0.929 . S
H1085 C1048 0.930 . S
H1086 C1054 0.929 . S
H1087 C1055 0.930 . S
Li1088 N1105 1.990 . S
Li1088 O1148 1.956 . S
Li1088 O1149 1.970 1_455 S
Li1088 O1150 1.961 . S
Li1089 N1113 1.990 . S
Li1089 O1148 1.970 1_655 S
Li1089 O1149 1.956 . S
Li1089 O1151 1.961 1_655 S
Li1090 N1135 1.990 . S
Li1090 O1148 1.961 . S
Li1090 O1150 1.956 . S
Li1090 O1151 1.970 . S
Li1091 N1141 1.990 . S
Li1091 O1149 1.961 1_455 S
Li1091 O1150 1.970 . S
Li1091 O1151 1.956 . S
C1092 C1094 1.348 . S
C1092 C1095 1.356 . S
C1092 O1148 1.325 . S
N1093 C1096 1.314 . S
N1093 C1097 1.279 . S
C1094 C1092 1.348 . S
C1094 C1096 1.353 . S
C1094 H1152 0.929 1_455 S
C1095 C1092 1.356 . S
C1095 C1097 1.358 . S
C1095 H1153 0.930 . S
C1096 N1093 1.314 . S
C1096 C1094 1.353 . S
C1096 H1154 0.930 . S
C1097 N1093 1.279 . S
C1097 C1095 1.358 . S
C1097 H1155 0.930 . S
C1098 C1101 1.348 . S
C1098 C1102 1.356 . S
C1098 O1149 1.325 . S
C1099 N1100 1.279 . S
C1099 C1102 1.358 . S
C1099 H1156 0.930 . S
N1100 C1099 1.279 . S
N1100 C1103 1.314 . S
C1101 C1098 1.348 . S
C1101 C1103 1.353 . S
C1101 H1157 0.929 . S
C1102 C1098 1.356 . S
C1102 C1099 1.358 . S
C1102 H1158 0.930 . S
C1103 N1100 1.314 . S
C1103 C1101 1.353 . S
C1103 H1159 0.930 . S
C1104 N1105 1.314 . S
C1104 C1109 1.353 . S
C1104 H1110 0.930 . S
N1105 Li1088 1.990 . S
N1105 C1104 1.314 . S
N1105 C1107 1.279 . S
C1106 C1107 1.358 . S
C1106 C1108 1.356 . S
C1106 H1160 0.930 . S
C1107 N1105 1.279 . S
C1107 C1106 1.358 . S
C1107 H1111 0.930 . S
C1108 C1106 1.356 . S
C1108 C1109 1.348 . S
C1109 C1104 1.353 . S
C1109 C1108 1.348 . S
C1109 H1161 0.929 . S
H1110 C1104 0.930 . S
H1111 C1107 0.930 . S
C1112 N1113 1.314 . S
C1112 C1114 1.353 . S
C1112 H1118 0.930 . S
N1113 Li1089 1.990 . S
N1113 C1112 1.314 . S
N1113 C1116 1.279 . S
C1114 C1112 1.353 . S
C1114 C1117 1.348 . S
C1114 H1162 0.929 . S
C1115 C1116 1.358 . S
C1115 C1117 1.356 . S
C1115 H1163 0.930 . S
C1116 N1113 1.279 . S
C1116 C1115 1.358 . S
C1116 H1119 0.930 . S
C1117 C1114 1.348 . S
C1117 C1115 1.356 . S
H1118 C1112 0.930 . S
H1119 C1116 0.930 . S
C1120 C1122 1.348 . S
C1120 C1123 1.356 . S
C1120 O1150 1.325 . S
N1121 C1124 1.314 . S
N1121 C1125 1.279 . S
C1122 C1120 1.348 . S
C1122 C1124 1.353 . S
C1122 H1164 0.929 . S
C1123 C1120 1.356 . S
C1123 C1125 1.358 . S
C1123 H1165 0.930 . S
C1124 N1121 1.314 . S
C1124 C1122 1.353 . S
C1124 H1166 0.930 . S
C1125 N1121 1.279 . S
C1125 C1123 1.358 . S
C1125 H1167 0.930 . S
C1126 C1127 1.348 . S
C1126 C1128 1.356 1_455 S
C1126 O1151 1.325 . S
C1127 C1126 1.348 . S
C1127 C1129 1.353 . S
C1127 H1168 0.929 . S
C1128 C1126 1.356 1_655 S
C1128 C1130 1.358 . S
C1128 H1169 0.930 . S
C1129 C1127 1.353 . S
C1129 N1131 1.336 . S
C1129 H1170 0.930 . S
C1130 C1128 1.358 . S
C1130 N1131 1.261 1_655 S
C1130 H1171 0.930 . S
N1131 C1129 1.336 . S
N1131 C1130 1.261 1_455 S
C1132 C1134 1.353 . S
C1132 N1135 1.314 . S
C1132 H1138 0.930 . S
C1133 N1135 1.279 . S
C1133 C1136 1.358 . S
C1133 H1139 0.930 . S
C1134 C1132 1.353 . S
C1134 C1137 1.348 . S
C1134 H1172 0.929 . S
N1135 Li1090 1.990 . S
N1135 C1132 1.314 . S
N1135 C1133 1.279 . S
C1136 C1133 1.358 . S
C1136 C1137 1.356 . S
C1136 H1173 0.930 . S
C1137 C1134 1.348 . S
C1137 C1136 1.356 . S
H1138 C1132 0.930 . S
H1139 C1133 0.930 . S
C1140 N1141 1.314 1_655 S
C1140 C1142 1.353 . S
C1140 H1146 0.930 . S
N1141 Li1091 1.990 . S
N1141 C1140 1.314 1_455 S
N1141 C1144 1.279 . S
C1142 C1140 1.353 . S
C1142 C1145 1.348 . S
C1142 H1174 0.929 . S
C1143 C1144 1.361 . S
C1143 C1145 1.352 1_455 S
C1143 H1175 0.928 . S
C1144 N1141 1.279 . S
C1144 C1143 1.361 . S
C1144 H1147 0.930 . S
C1145 C1142 1.348 . S
C1145 C1143 1.352 1_655 S
H1146 C1140 0.930 . S
H1147 C1144 0.930 . S
O1148 Li1088 1.956 . S
O1148 Li1089 1.970 1_455 S
O1148 Li1090 1.961 . S
O1148 C1092 1.325 . S
O1149 Li1088 1.970 1_655 S
O1149 Li1089 1.956 . S
O1149 Li1091 1.961 1_655 S
O1149 C1098 1.325 . S
O1150 Li1088 1.961 . S
O1150 Li1090 1.956 . S
O1150 Li1091 1.970 . S
O1150 C1120 1.325 . S
O1151 Li1089 1.961 1_455 S
O1151 Li1090 1.970 . S
O1151 Li1091 1.956 . S
O1151 C1126 1.325 . S
H1152 C1094 0.929 1_655 S
H1153 C1095 0.930 . S
H1154 C1096 0.930 . S
H1155 C1097 0.930 . S
H1156 C1099 0.930 . S
H1157 C1101 0.929 . S
H1158 C1102 0.930 . S
H1159 C1103 0.930 . S
H1160 C1106 0.930 . S
H1161 C1109 0.929 . S
H1162 C1114 0.929 . S
H1163 C1115 0.930 . S
H1164 C1122 0.929 . S
H1165 C1123 0.930 . S
H1166 C1124 0.930 . S
H1167 C1125 0.930 . S
H1168 C1127 0.929 . S
H1169 C1128 0.930 . S
H1170 C1129 0.930 . S
H1171 C1130 0.930 . S
H1172 C1134 0.929 . S
H1173 C1136 0.930 . S
H1174 C1142 0.929 . S
H1175 C1143 0.928 . S
Li1176 N1193 1.990 . S
Li1176 O1236 1.956 . S
Li1176 O1237 1.970 . S
Li1176 O1238 1.961 . S
Li1177 N1201 1.990 . S
Li1177 O1236 1.970 . S
Li1177 O1237 1.956 . S
Li1177 O1239 1.961 . S
Li1178 N1223 1.990 . S
Li1178 O1236 1.961 . S
Li1178 O1238 1.956 . S
Li1178 O1239 1.970 . S
Li1179 N1229 1.990 . S
Li1179 O1237 1.961 . S
Li1179 O1238 1.970 . S
Li1179 O1239 1.956 . S
C1180 C1182 1.348 . S
C1180 C1183 1.356 . S
C1180 O1236 1.325 . S
N1181 C1184 1.314 . S
N1181 C1185 1.279 . S
C1182 C1180 1.348 . S
C1182 C1184 1.353 . S
C1182 H1240 0.929 . S
C1183 C1180 1.356 . S
C1183 C1185 1.358 . S
C1183 H1241 0.930 . S
C1184 N1181 1.314 . S
C1184 C1182 1.353 . S
C1184 H1242 0.930 . S
C1185 N1181 1.279 . S
C1185 C1183 1.358 . S
C1185 H1243 0.930 . S
C1186 C1189 1.348 . S
C1186 C1190 1.356 . S
C1186 O1237 1.325 . S
C1187 N1188 1.279 . S
C1187 C1190 1.358 . S
C1187 H1244 0.930 . S
N1188 C1187 1.279 . S
N1188 C1191 1.314 . S
C1189 C1186 1.348 . S
C1189 C1191 1.353 . S
C1189 H1245 0.929 . S
C1190 C1186 1.356 . S
C1190 C1187 1.358 . S
C1190 H1246 0.930 . S
C1191 N1188 1.314 . S
C1191 C1189 1.353 . S
C1191 H1247 0.930 . S
C1192 N1193 1.314 . S
C1192 C1197 1.353 . S
C1192 H1198 0.930 . S
N1193 Li1176 1.990 . S
N1193 C1192 1.314 . S
N1193 C1195 1.279 . S
C1194 C1195 1.358 . S
C1194 C1196 1.356 . S
C1194 H1248 0.930 . S
C1195 N1193 1.279 . S
C1195 C1194 1.358 . S
C1195 H1199 0.930 . S
C1196 C1194 1.356 . S
C1196 C1197 1.348 . S
C1197 C1192 1.353 . S
C1197 C1196 1.348 . S
C1197 H1249 0.929 . S
H1198 C1192 0.930 . S
H1199 C1195 0.930 . S
C1200 N1201 1.314 . S
C1200 C1202 1.353 . S
C1200 H1206 0.930 . S
N1201 Li1177 1.990 . S
N1201 C1200 1.314 . S
N1201 C1204 1.279 . S
C1202 C1200 1.353 . S
C1202 C1205 1.348 . S
C1202 H1250 0.929 . S
C1203 C1204 1.358 . S
C1203 C1205 1.356 . S
C1203 H1251 0.930 . S
C1204 N1201 1.279 . S
C1204 C1203 1.358 . S
C1204 H1207 0.930 . S
C1205 C1202 1.348 . S
C1205 C1203 1.356 . S
H1206 C1200 0.930 . S
H1207 C1204 0.930 . S
C1208 C1210 1.348 . S
C1208 C1211 1.356 . S
C1208 O1238 1.325 . S
N1209 C1212 1.314 . S
N1209 C1213 1.279 . S
C1210 C1208 1.348 . S
C1210 C1212 1.353 . S
C1210 H1252 0.929 . S
C1211 C1208 1.356 . S
C1211 C1213 1.358 . S
C1211 H1253 0.930 . S
C1212 N1209 1.314 . S
C1212 C1210 1.353 . S
C1212 H1254 0.930 . S
C1213 N1209 1.279 . S
C1213 C1211 1.358 . S
C1213 H1255 0.930 . S
C1214 C1215 1.348 . S
C1214 C1216 1.356 . S
C1214 O1239 1.325 . S
C1215 C1214 1.348 . S
C1215 C1217 1.353 . S
C1215 H1256 0.929 . S
C1216 C1214 1.356 . S
C1216 C1218 1.358 . S
C1216 H1257 0.930 . S
C1217 C1215 1.353 . S
C1217 N1219 1.314 . S
C1217 H1258 0.930 . S
C1218 C1216 1.358 . S
C1218 N1219 1.279 . S
C1218 H1259 0.930 . S
N1219 C1217 1.314 . S
N1219 C1218 1.279 . S
C1220 C1222 1.353 . S
C1220 N1223 1.314 . S
C1220 H1226 0.930 . S
C1221 N1223 1.279 . S
C1221 C1224 1.358 . S
C1221 H1227 0.930 . S
C1222 C1220 1.353 . S
C1222 C1225 1.348 . S
C1222 H1260 0.929 . S
N1223 Li1178 1.990 . S
N1223 C1220 1.314 . S
N1223 C1221 1.279 . S
C1224 C1221 1.358 . S
C1224 C1225 1.356 . S
C1224 H1261 0.930 . S
C1225 C1222 1.348 . S
C1225 C1224 1.356 . S
H1226 C1220 0.930 . S
H1227 C1221 0.930 . S
C1228 N1229 1.314 . S
C1228 C1230 1.353 . S
C1228 H1234 0.930 . S
N1229 Li1179 1.990 . S
N1229 C1228 1.314 . S
N1229 C1232 1.279 . S
C1230 C1228 1.353 . S
C1230 C1233 1.348 . S
C1230 H1262 0.929 . S
C1231 C1232 1.358 . S
C1231 C1233 1.356 . S
C1231 H1263 0.930 . S
C1232 N1229 1.279 . S
C1232 C1231 1.358 . S
C1232 H1235 0.930 . S
C1233 C1230 1.348 . S
C1233 C1231 1.356 . S
H1234 C1228 0.930 . S
H1235 C1232 0.930 . S
O1236 Li1176 1.956 . S
O1236 Li1177 1.970 . S
O1236 Li1178 1.961 . S
O1236 C1180 1.325 . S
O1237 Li1176 1.970 . S
O1237 Li1177 1.956 . S
O1237 Li1179 1.961 . S
O1237 C1186 1.325 . S
O1238 Li1176 1.961 . S
O1238 Li1178 1.956 . S
O1238 Li1179 1.970 . S
O1238 C1208 1.325 . S
O1239 Li1177 1.961 . S
O1239 Li1178 1.970 . S
O1239 Li1179 1.956 . S
O1239 C1214 1.325 . S
H1240 C1182 0.929 . S
H1241 C1183 0.930 . S
H1242 C1184 0.930 . S
H1243 C1185 0.930 . S
H1244 C1187 0.930 . S
H1245 C1189 0.929 . S
H1246 C1190 0.930 . S
H1247 C1191 0.930 . S
H1248 C1194 0.930 . S
H1249 C1197 0.929 . S
H1250 C1202 0.929 . S
H1251 C1203 0.930 . S
H1252 C1210 0.929 . S
H1253 C1211 0.930 . S
H1254 C1212 0.930 . S
H1255 C1213 0.930 . S
H1256 C1215 0.929 . S
H1257 C1216 0.930 . S
H1258 C1217 0.930 . S
H1259 C1218 0.930 . S
H1260 C1222 0.929 . S
H1261 C1224 0.930 . S
H1262 C1230 0.929 . S
H1263 C1231 0.930 . S
C1264 C1265 1.387 . S
C1264 H1268 0.950 . S
C1264 C1273 1.390 . S
C1265 C1264 1.387 . S
C1265 C1267 1.387 . S
H1266 C1273 0.950 . S
C1267 C1265 1.387 . S
C1267 C1269 1.390 . S
C1267 H1271 0.950 . S
H1268 C1264 0.950 . S
C1269 C1267 1.390 . S
C1269 C1270 1.387 . S
C1269 H1272 0.950 . S
C1270 C1269 1.387 . S
C1270 C1273 1.387 . S
H1271 C1267 0.950 . S
H1272 C1269 0.950 . S
C1273 C1264 1.390 . S
C1273 H1266 0.950 . S
C1273 C1270 1.387 . S
C1274 C1275 1.387 1_455 S
C1274 H1278 0.950 1_455 S
C1274 C1283 1.390 . S
C1275 C1274 1.387 1_655 S
C1275 C1277 1.387 1_655 S
H1276 C1283 0.950 . S
C1277 C1275 1.387 1_455 S
C1277 C1279 1.390 . S
C1277 H1281 0.950 . S
H1278 C1274 0.950 1_655 S
C1279 C1277 1.390 . S
C1279 C1280 1.387 . S
C1279 H1282 0.950 . S
C1280 C1279 1.387 . S
C1280 C1283 1.387 . S
H1281 C1277 0.950 . S
H1282 C1279 0.950 . S
C1283 C1274 1.390 . S
C1283 H1276 0.950 . S
C1283 C1280 1.387 . S
C1284 C1285 1.387 . S
C1284 H1288 0.950 . S
C1284 C1293 1.390 . S
C1285 C1284 1.387 . S
C1285 C1287 1.387 . S
H1286 C1293 0.950 . S
C1287 C1285 1.387 . S
C1287 C1289 1.390 . S
C1287 H1291 0.950 . S
H1288 C1284 0.950 . S
C1289 C1287 1.390 . S
C1289 C1290 1.387 . S
C1289 H1292 0.950 . S
C1290 C1289 1.387 . S
C1290 C1293 1.387 . S
H1291 C1287 0.950 . S
H1292 C1289 0.950 . S
C1293 C1284 1.390 . S
C1293 H1286 0.950 . S
C1293 C1290 1.387 . S
C1294 C1295 1.387 1_645 S
C1294 H1298 0.959 . S
C1294 C1303 1.390 . S
C1295 C1294 1.387 1_465 S
C1295 C1297 1.387 1_455 S
H1296 C1303 0.950 . S
C1297 C1295 1.387 1_655 S
C1297 C1299 1.390 . S
C1297 H1301 0.950 . S
H1298 C1294 0.959 . S
C1299 C1297 1.390 . S
C1299 C1300 1.387 1_565 S
C1299 H1302 0.950 . S
C1300 C1299 1.387 1_545 S
C1300 C1303 1.387 . S
H1301 C1297 0.950 . S
H1302 C1299 0.950 . S
C1303 C1294 1.390 . S
C1303 H1296 0.950 . S
C1303 C1300 1.387 . S
C1304 C1305 1.387 . S
C1304 H1308 0.950 . S
C1304 C1313 1.390 . S
C1305 C1304 1.387 . S
C1305 C1307 1.387 . S
H1306 C1313 0.950 . S
C1307 C1305 1.387 . S
C1307 C1309 1.390 . S
C1307 H1311 0.950 . S
H1308 C1304 0.950 . S
C1309 C1307 1.390 . S
C1309 C1310 1.387 . S
C1309 H1312 0.950 . S
C1310 C1309 1.387 . S
C1310 C1313 1.387 . S
H1311 C1307 0.950 . S
H1312 C1309 0.950 . S
C1313 C1304 1.390 . S
C1313 H1306 0.950 . S
C1313 C1310 1.387 . S
C1314 C1315 1.387 . S
C1314 H1318 0.950 . S
C1314 C1323 1.390 . S
C1315 C1314 1.387 . S
C1315 C1317 1.387 . S
H1316 C1323 0.950 . S
C1317 C1315 1.387 . S
C1317 C1319 1.390 . S
C1317 H1321 0.950 . S
H1318 C1314 0.950 . S
C1319 C1317 1.390 . S
C1319 C1320 1.387 . S
C1319 H1322 0.950 . S
C1320 C1319 1.387 . S
C1320 C1323 1.387 . S
H1321 C1317 0.950 . S
H1322 C1319 0.950 . S
C1323 C1314 1.390 . S
C1323 H1316 0.950 . S
C1323 C1320 1.387 . S
C1324 C1325 1.387 . S
C1324 H1328 0.950 . S
C1324 C1333 1.390 . S
C1325 C1324 1.387 . S
C1325 C1327 1.387 . S
H1326 C1333 0.950 . S
C1327 C1325 1.387 . S
C1327 C1329 1.390 . S
C1327 H1331 0.950 . S
H1328 C1324 0.950 . S
C1329 C1327 1.390 . S
C1329 C1330 1.387 . S
C1329 H1332 0.950 . S
C1330 C1329 1.387 . S
C1330 C1333 1.387 . S
H1331 C1327 0.950 . S
H1332 C1329 0.950 . S
C1333 C1324 1.390 . S
C1333 H1326 0.950 . S
C1333 C1330 1.387 . S
C1334 C1335 1.386 . S
C1334 H1338 0.951 1_565 S
C1334 C1343 1.390 1_565 S
C1335 C1334 1.386 . S
C1335 C1337 1.387 . S
H1336 C1343 0.950 . S
C1337 C1335 1.387 . S
C1337 C1339 1.390 . S
C1337 H1341 0.950 . S
H1338 C1334 0.951 1_545 S
C1339 C1337 1.390 . S
C1339 C1340 1.387 . S
C1339 H1342 0.950 . S
C1340 C1339 1.387 . S
C1340 C1343 1.387 1_565 S
H1341 C1337 0.950 . S
H1342 C1339 0.950 . S
C1343 C1334 1.390 1_545 S
C1343 H1336 0.950 . S
C1343 C1340 1.387 1_545 S
C1344 C1345 1.387 . S
C1344 H1348 0.950 . S
C1344 C1353 1.390 . S
C1345 C1344 1.387 . S
C1345 C1347 1.387 . S
H1346 C1353 0.950 . S
C1347 C1345 1.387 . S
C1347 C1349 1.390 . S
C1347 H1351 0.950 . S
H1348 C1344 0.950 . S
C1349 C1347 1.390 . S
C1349 C1350 1.387 . S
C1349 H1352 0.950 . S
C1350 C1349 1.387 . S
C1350 C1353 1.387 . S
H1351 C1347 0.950 . S
H1352 C1349 0.950 . S
C1353 C1344 1.390 . S
C1353 H1346 0.950 . S
C1353 C1350 1.387 . S
C1354 C1355 1.387 . S
C1354 H1358 0.950 . S
C1354 C1363 1.390 . S
C1355 C1354 1.387 . S
C1355 C1357 1.387 . S
H1356 C1363 0.950 . S
C1357 C1355 1.387 . S
C1357 C1359 1.390 . S
C1357 H1361 0.950 . S
H1358 C1354 0.950 . S
C1359 C1357 1.390 . S
C1359 C1360 1.387 . S
C1359 H1362 0.950 . S
C1360 C1359 1.387 . S
C1360 C1363 1.387 . S
H1361 C1357 0.950 . S
H1362 C1359 0.950 . S
C1363 C1354 1.390 . S
C1363 H1356 0.950 . S
C1363 C1360 1.387 . S
C1364 C1365 1.387 . S
C1364 H1368 0.950 . S
C1364 C1373 1.390 . S
C1365 C1364 1.387 . S
C1365 C1367 1.387 . S
H1366 C1373 0.950 . S
C1367 C1365 1.387 . S
C1367 C1369 1.390 . S
C1367 H1371 0.950 . S
H1368 C1364 0.950 . S
C1369 C1367 1.390 . S
C1369 C1370 1.387 . S
C1369 H1372 0.950 . S
C1370 C1369 1.387 . S
C1370 C1373 1.387 . S
H1371 C1367 0.950 . S
H1372 C1369 0.950 . S
C1373 C1364 1.390 . S
C1373 H1366 0.950 . S
C1373 C1370 1.387 . S
C1374 C1375 1.387 . S
C1374 H1378 0.950 . S
C1374 C1383 1.390 . S
C1375 C1374 1.387 . S
C1375 C1377 1.387 . S
H1376 C1383 0.950 . S
C1377 C1375 1.387 . S
C1377 C1379 1.390 . S
C1377 H1381 0.950 . S
H1378 C1374 0.950 . S
C1379 C1377 1.390 . S
C1379 C1380 1.387 . S
C1379 H1382 0.950 . S
C1380 C1379 1.387 . S
C1380 C1383 1.387 . S
H1381 C1377 0.950 . S
H1382 C1379 0.950 . S
C1383 C1374 1.390 . S
C1383 H1376 0.950 . S
C1383 C1380 1.387 . S
C1384 C1385 1.387 . S
C1384 H1388 0.950 . S
C1384 C1393 1.390 . S
C1385 C1384 1.387 . S
C1385 C1387 1.387 . S
H1386 C1393 0.950 . S
C1387 C1385 1.387 . S
C1387 C1389 1.390 . S
C1387 H1391 0.950 . S
H1388 C1384 0.950 . S
C1389 C1387 1.390 . S
C1389 C1390 1.387 . S
C1389 H1392 0.950 . S
C1390 C1389 1.387 . S
C1390 C1393 1.387 . S
H1391 C1387 0.950 . S
H1392 C1389 0.950 . S
C1393 C1384 1.390 . S
C1393 H1386 0.950 . S
C1393 C1390 1.387 . S
C1394 C1395 1.387 . S
C1394 H1398 0.950 . S
C1394 C1403 1.390 . S
C1395 C1394 1.387 . S
C1395 C1397 1.387 . S
H1396 C1403 0.950 . S
C1397 C1395 1.387 . S
C1397 C1399 1.390 . S
C1397 H1401 0.950 . S
H1398 C1394 0.950 . S
C1399 C1397 1.390 . S
C1399 C1400 1.387 . S
C1399 H1402 0.950 . S
C1400 C1399 1.387 . S
C1400 C1403 1.387 . S
H1401 C1397 0.950 . S
H1402 C1399 0.950 . S
C1403 C1394 1.390 . S
C1403 H1396 0.950 . S
C1403 C1400 1.387 . S
C1404 C1405 1.387 . S
C1404 H1408 0.950 . S
C1404 C1413 1.390 . S
C1405 C1404 1.387 . S
C1405 C1407 1.387 . S
H1406 C1413 0.950 . S
C1407 C1405 1.387 . S
C1407 C1409 1.390 . S
C1407 H1411 0.950 . S
H1408 C1404 0.950 . S
C1409 C1407 1.390 . S
C1409 C1410 1.387 . S
C1409 H1412 0.950 . S
C1410 C1409 1.387 . S
C1410 C1413 1.387 . S
H1411 C1407 0.950 . S
H1412 C1409 0.950 . S
C1413 C1404 1.390 . S
C1413 H1406 0.950 . S
C1413 C1410 1.387 . S
C1414 C1415 1.387 . S
C1414 H1418 0.950 . S
C1414 C1423 1.390 . S
C1415 C1414 1.387 . S
C1415 C1417 1.387 . S
H1416 C1423 0.950 . S
C1417 C1415 1.387 . S
C1417 C1419 1.390 . S
C1417 H1421 0.950 . S
H1418 C1414 0.950 . S
C1419 C1417 1.390 . S
C1419 C1420 1.387 . S
C1419 H1422 0.950 1_655 S
C1420 C1419 1.387 . S
C1420 C1423 1.387 . S
H1421 C1417 0.950 . S
H1422 C1419 0.950 1_455 S
C1423 C1414 1.390 . S
C1423 H1416 0.950 . S
C1423 C1420 1.387 . S
C1424 C1425 1.387 . S
C1424 H1428 0.950 . S
C1424 C1433 1.390 . S
C1425 C1424 1.387 . S
C1425 C1427 1.387 . S
H1426 C1433 0.950 . S
C1427 C1425 1.387 . S
C1427 C1429 1.390 . S
C1427 H1431 0.950 . S
H1428 C1424 0.950 . S
C1429 C1427 1.390 . S
C1429 C1430 1.387 . S
C1429 H1432 0.950 . S
C1430 C1429 1.387 . S
C1430 C1433 1.387 . S
H1431 C1427 0.950 . S
H1432 C1429 0.950 . S
C1433 C1424 1.390 . S
C1433 H1426 0.950 . S
C1433 C1430 1.387 . S
C1434 C1435 1.387 . S
C1434 H1438 0.950 . S
C1434 C1443 1.390 . S
C1435 C1434 1.387 . S
C1435 C1437 1.387 . S
H1436 C1443 0.950 . S
C1437 C1435 1.387 . S
C1437 C1439 1.390 . S
C1437 H1441 0.950 . S
H1438 C1434 0.950 . S
C1439 C1437 1.390 . S
C1439 C1440 1.387 . S
C1439 H1442 0.950 . S
C1440 C1439 1.387 . S
C1440 C1443 1.387 . S
H1441 C1437 0.950 . S
H1442 C1439 0.950 . S
C1443 C1434 1.390 . S
C1443 H1436 0.950 . S
C1443 C1440 1.387 . S
C1444 C1445 1.387 1_565 S
C1444 H1448 0.950 . S
C1444 C1453 1.390 . S
C1445 C1444 1.387 1_545 S
C1445 C1447 1.387 1_556 S
H1446 C1453 0.950 . S
C1447 C1445 1.387 1_554 S
C1447 C1449 1.390 1_545 S
C1447 H1451 0.950 . S
H1448 C1444 0.950 . S
C1449 C1447 1.390 1_565 S
C1449 C1450 1.387 1_554 S
C1449 H1452 0.950 . S
C1450 C1449 1.387 1_556 S
C1450 C1453 1.387 . S
H1451 C1447 0.950 . S
H1452 C1449 0.950 . S
C1453 C1444 1.390 . S
C1453 H1446 0.950 . S
C1453 C1450 1.387 . S
C1454 C1455 1.387 . S
C1454 H1458 0.950 . S
C1454 C1463 1.390 . S
C1455 C1454 1.387 . S
C1455 C1457 1.387 . S
H1456 C1463 0.950 . S
C1457 C1455 1.387 . S
C1457 C1459 1.390 . S
C1457 H1461 0.950 . S
H1458 C1454 0.950 . S
C1459 C1457 1.390 . S
C1459 C1460 1.387 . S
C1459 H1462 0.950 . S
C1460 C1459 1.387 . S
C1460 C1463 1.387 . S
H1461 C1457 0.950 . S
H1462 C1459 0.950 . S
C1463 C1454 1.390 . S
C1463 H1456 0.950 . S
C1463 C1460 1.387 . S
C1464 C1465 1.387 . S
C1464 H1468 0.950 . S
C1464 C1473 1.390 . S
C1465 C1464 1.387 . S
C1465 C1467 1.387 . S
H1466 C1473 0.950 . S
C1467 C1465 1.387 . S
C1467 C1469 1.390 . S
C1467 H1471 0.950 . S
H1468 C1464 0.950 . S
C1469 C1467 1.390 . S
C1469 C1470 1.387 . S
C1469 H1472 0.950 . S
C1470 C1469 1.387 . S
C1470 C1473 1.387 . S
H1471 C1467 0.950 . S
H1472 C1469 0.950 . S
C1473 C1464 1.390 . S
C1473 H1466 0.950 . S
C1473 C1470 1.387 . S
C1474 C1475 1.387 . S
C1474 H1478 0.950 . S
C1474 C1483 1.390 . S
C1475 C1474 1.387 . S
C1475 C1477 1.387 . S
H1476 C1483 0.950 . S
C1477 C1475 1.387 . S
C1477 C1479 1.390 . S
C1477 H1481 0.950 . S
H1478 C1474 0.950 . S
C1479 C1477 1.390 . S
C1479 C1480 1.387 . S
C1479 H1482 0.950 . S
C1480 C1479 1.387 . S
C1480 C1483 1.387 . S
H1481 C1477 0.950 . S
H1482 C1479 0.950 . S
C1483 C1474 1.390 . S
C1483 H1476 0.950 . S
C1483 C1480 1.387 . S
C1484 C1485 1.387 1_565 S
C1484 H1488 0.950 . S
C1484 C1493 1.390 1_565 S
C1485 C1484 1.387 1_545 S
C1485 C1487 1.387 . S
H1486 C1493 0.950 . S
C1487 C1485 1.387 . S
C1487 C1489 1.390 . S
C1487 H1491 0.950 . S
H1488 C1484 0.950 . S
C1489 C1487 1.390 . S
C1489 C1490 1.387 . S
C1489 H1492 0.950 . S
C1490 C1489 1.387 . S
C1490 C1493 1.387 . S
H1491 C1487 0.950 . S
H1492 C1489 0.950 . S
C1493 C1484 1.390 1_545 S
C1493 H1486 0.950 . S
C1493 C1490 1.387 . S
C1494 C1495 1.387 . S
C1494 H1498 0.950 . S
C1494 C1503 1.390 . S
C1495 C1494 1.387 . S
C1495 C1497 1.387 . S
H1496 C1503 0.950 . S
C1497 C1495 1.387 . S
C1497 C1499 1.390 . S
C1497 H1501 0.950 . S
H1498 C1494 0.950 . S
C1499 C1497 1.390 . S
C1499 C1500 1.387 . S
C1499 H1502 0.950 . S
C1500 C1499 1.387 . S
C1500 C1503 1.387 . S
H1501 C1497 0.950 . S
H1502 C1499 0.950 . S
C1503 C1494 1.390 . S
C1503 H1496 0.950 . S
C1503 C1500 1.387 . S
C1504 C1505 1.387 . S
C1504 H1508 0.950 . S
C1504 C1513 1.390 . S
C1505 C1504 1.387 . S
C1505 C1507 1.387 . S
H1506 C1513 0.950 . S
C1507 C1505 1.387 . S
C1507 C1509 1.390 . S
C1507 H1511 0.950 . S
H1508 C1504 0.950 . S
C1509 C1507 1.390 . S
C1509 C1510 1.387 . S
C1509 H1512 0.950 . S
C1510 C1509 1.387 . S
C1510 C1513 1.387 . S
H1511 C1507 0.950 . S
H1512 C1509 0.950 . S
C1513 C1504 1.390 . S
C1513 H1506 0.950 . S
C1513 C1510 1.387 . S
C1514 C1515 1.387 . S
C1514 H1518 0.950 . S
C1514 C1523 1.390 . S
C1515 C1514 1.387 . S
C1515 C1517 1.387 . S
H1516 C1523 0.950 . S
C1517 C1515 1.387 . S
C1517 C1519 1.390 . S
C1517 H1521 0.940 1_545 S
H1518 C1514 0.950 . S
C1519 C1517 1.390 . S
C1519 C1520 1.387 . S
C1519 H1522 0.950 1_545 S
C1520 C1519 1.387 . S
C1520 C1523 1.387 . S
H1521 C1517 0.940 1_565 S
H1522 C1519 0.950 1_565 S
C1523 C1514 1.390 . S
C1523 H1516 0.950 . S
C1523 C1520 1.387 . S
C1524 C1525 1.387 . S
C1524 H1528 0.950 . S
C1524 C1533 1.390 . S
C1525 C1524 1.387 . S
C1525 C1527 1.387 . S
H1526 C1533 0.950 . S
C1527 C1525 1.387 . S
C1527 C1529 1.390 . S
C1527 H1531 0.950 . S
H1528 C1524 0.950 . S
C1529 C1527 1.390 . S
C1529 C1530 1.387 . S
C1529 H1532 0.950 . S
C1530 C1529 1.387 . S
C1530 C1533 1.387 . S
H1531 C1527 0.950 . S
H1532 C1529 0.950 . S
C1533 C1524 1.390 . S
C1533 H1526 0.950 . S
C1533 C1530 1.387 . S
C1534 C1535 1.387 . S
C1534 H1538 0.950 . S
C1534 C1543 1.390 . S
C1535 C1534 1.387 . S
C1535 C1537 1.387 . S
H1536 C1543 0.950 . S
C1537 C1535 1.387 . S
C1537 C1539 1.390 . S
C1537 H1541 0.950 . S
H1538 C1534 0.950 . S
C1539 C1537 1.390 . S
C1539 C1540 1.387 . S
C1539 H1542 0.950 . S
C1540 C1539 1.387 . S
C1540 C1543 1.387 . S
H1541 C1537 0.950 . S
H1542 C1539 0.950 . S
C1543 C1534 1.390 . S
C1543 H1536 0.950 . S
C1543 C1540 1.387 . S
C1544 C1545 1.387 . S
C1544 H1548 0.950 . S
C1544 C1553 1.390 . S
C1545 C1544 1.387 . S
C1545 C1547 1.387 . S
H1546 C1553 0.950 . S
C1547 C1545 1.387 . S
C1547 C1549 1.390 . S
C1547 H1551 0.950 . S
H1548 C1544 0.950 . S
C1549 C1547 1.390 . S
C1549 C1550 1.387 . S
C1549 H1552 0.950 . S
C1550 C1549 1.387 . S
C1550 C1553 1.387 . S
H1551 C1547 0.950 . S
H1552 C1549 0.950 . S
C1553 C1544 1.390 . S
C1553 H1546 0.950 . S
C1553 C1550 1.387 . S
C1554 C1555 1.387 1_565 S
C1554 H1558 0.950 . S
C1554 C1563 1.390 . S
C1555 C1554 1.387 1_545 S
C1555 C1557 1.387 . S
H1556 C1563 0.950 . S
C1557 C1555 1.387 . S
C1557 C1559 1.390 . S
C1557 H1561 0.950 . S
H1558 C1554 0.950 . S
C1559 C1557 1.390 . S
C1559 C1560 1.387 . S
C1559 H1562 0.950 . S
C1560 C1559 1.387 . S
C1560 C1563 1.387 1_545 S
H1561 C1557 0.950 . S
H1562 C1559 0.950 . S
C1563 C1554 1.390 . S
C1563 H1556 0.950 . S
C1563 C1560 1.387 1_565 S
C1564 C1565 1.387 . S
C1564 H1568 0.950 . S
C1564 C1573 1.390 . S
C1565 C1564 1.387 . S
C1565 C1567 1.387 . S
H1566 C1573 0.950 . S
C1567 C1565 1.387 . S
C1567 C1569 1.390 . S
C1567 H1571 0.950 . S
H1568 C1564 0.950 . S
C1569 C1567 1.390 . S
C1569 C1570 1.387 . S
C1569 H1572 0.950 . S
C1570 C1569 1.387 . S
C1570 C1573 1.387 . S
H1571 C1567 0.950 . S
H1572 C1569 0.950 . S
C1573 C1564 1.390 . S
C1573 H1566 0.950 . S
C1573 C1570 1.387 . S
C1574 C1575 1.387 . S
C1574 H1578 0.950 . S
C1574 C1583 1.390 . S
C1575 C1574 1.387 . S
C1575 C1577 1.387 . S
H1576 C1583 0.950 . S
C1577 C1575 1.387 . S
C1577 C1579 1.390 . S
C1577 H1581 0.950 . S
H1578 C1574 0.950 . S
C1579 C1577 1.390 . S
C1579 C1580 1.387 . S
C1579 H1582 0.950 . S
C1580 C1579 1.387 . S
C1580 C1583 1.387 . S
H1581 C1577 0.950 . S
H1582 C1579 0.950 . S
C1583 C1574 1.390 . S
C1583 H1576 0.950 . S
C1583 C1580 1.387 . S
C1584 C1585 1.387 . S
C1584 H1588 0.950 . S
C1584 C1593 1.390 . S
C1585 C1584 1.387 . S
C1585 C1587 1.387 . S
H1586 C1593 0.950 . S
C1587 C1585 1.387 . S
C1587 C1589 1.390 . S
C1587 H1591 0.950 . S
H1588 C1584 0.950 . S
C1589 C1587 1.390 . S
C1589 C1590 1.387 . S
C1589 H1592 0.950 . S
C1590 C1589 1.387 . S
C1590 C1593 1.387 . S
H1591 C1587 0.950 . S
H1592 C1589 0.950 . S
C1593 C1584 1.390 . S
C1593 H1586 0.950 . S
C1593 C1590 1.387 . S
C1594 C1595 1.387 1_455 S
C1594 H1598 0.950 . S
C1594 C1603 1.390 . S
C1595 C1594 1.387 1_655 S
C1595 C1597 1.387 . S
H1596 C1603 0.950 1_556 S
C1597 C1595 1.387 . S
C1597 C1599 1.390 . S
C1597 H1601 0.950 . S
H1598 C1594 0.950 . S
C1599 C1597 1.390 . S
C1599 C1600 1.387 . S
C1599 H1602 0.950 . S
C1600 C1599 1.387 . S
C1600 C1603 1.387 1_655 S
H1601 C1597 0.950 . S
H1602 C1599 0.950 . S
C1603 C1594 1.390 . S
C1603 H1596 0.950 1_554 S
C1603 C1600 1.387 1_455 S
C1604 C1605 1.387 . S
C1604 H1608 0.950 . S
C1604 C1613 1.390 . S
C1605 C1604 1.387 . S
C1605 C1607 1.387 . S
H1606 C1613 0.950 . S
C1607 C1605 1.387 . S
C1607 C1609 1.390 . S
C1607 H1611 0.950 . S
H1608 C1604 0.950 . S
C1609 C1607 1.390 . S
C1609 C1610 1.387 . S
C1609 H1612 0.950 . S
C1610 C1609 1.387 . S
C1610 C1613 1.387 . S
H1611 C1607 0.950 . S
H1612 C1609 0.950 . S
C1613 C1604 1.390 . S
C1613 H1606 0.950 . S
C1613 C1610 1.387 . S
C1614 C1615 1.387 1_655 S
C1614 H1618 0.950 . S
C1614 C1623 1.390 . S
C1615 C1614 1.387 1_455 S
C1615 C1617 1.374 1_554 S
H1616 C1623 0.950 . S
C1617 C1615 1.374 1_556 S
C1617 C1619 1.403 . S
C1617 H1621 0.951 . S
H1618 C1614 0.950 . S
C1619 C1617 1.403 . S
C1619 C1620 1.387 . S
C1619 H1622 0.950 . S
C1620 C1619 1.387 . S
C1620 C1623 1.387 1_456 S
H1621 C1617 0.951 . S
H1622 C1619 0.950 . S
C1623 C1614 1.390 . S
C1623 H1616 0.950 . S
C1623 C1620 1.387 1_654 S
C1624 C1625 1.387 . S
C1624 H1628 0.950 . S
C1624 C1633 1.390 . S
C1625 C1624 1.387 . S
C1625 C1627 1.387 . S
H1626 C1633 0.950 . S
C1627 C1625 1.387 . S
C1627 C1629 1.390 . S
C1627 H1631 0.950 . S
H1628 C1624 0.950 . S
C1629 C1627 1.390 . S
C1629 C1630 1.387 . S
C1629 H1632 0.950 . S
C1630 C1629 1.387 . S
C1630 C1633 1.387 . S
H1631 C1627 0.950 . S
H1632 C1629 0.950 . S
C1633 C1624 1.390 . S
C1633 H1626 0.950 . S
C1633 C1630 1.387 . S
C1634 C1635 1.387 . S
C1634 H1638 0.950 . S
C1634 C1643 1.390 . S
C1635 C1634 1.387 . S
C1635 C1637 1.387 . S
H1636 C1643 0.950 . S
C1637 C1635 1.387 . S
C1637 C1639 1.390 . S
C1637 H1641 0.950 . S
H1638 C1634 0.950 . S
C1639 C1637 1.390 . S
C1639 C1640 1.387 . S
C1639 H1642 0.950 . S
C1640 C1639 1.387 . S
C1640 C1643 1.387 . S
H1641 C1637 0.950 . S
H1642 C1639 0.950 . S
C1643 C1634 1.390 . S
C1643 H1636 0.950 . S
C1643 C1640 1.387 . S
C1644 C1645 1.387 . S
C1644 H1648 0.950 . S
C1644 C1653 1.390 . S
C1645 C1644 1.387 . S
C1645 C1647 1.387 . S
H1646 C1653 0.950 . S
C1647 C1645 1.387 . S
C1647 C1649 1.390 . S
C1647 H1651 0.950 . S
H1648 C1644 0.950 . S
C1649 C1647 1.390 . S
C1649 C1650 1.387 . S
C1649 H1652 0.950 . S
C1650 C1649 1.387 . S
C1650 C1653 1.387 . S
H1651 C1647 0.950 . S
H1652 C1649 0.950 . S
C1653 C1644 1.390 . S
C1653 H1646 0.950 . S
C1653 C1650 1.387 . S
C1654 C1655 1.401 . S
C1654 H1658 0.950 . S
C1654 C1663 1.390 . S
C1655 C1654 1.401 . S
C1655 C1657 1.387 . S
H1656 C1663 0.950 . S
C1657 C1655 1.387 . S
C1657 C1659 1.390 . S
C1657 H1661 0.950 1_554 S
H1658 C1654 0.950 . S
C1659 C1657 1.390 . S
C1659 C1660 1.387 . S
C1659 H1662 0.950 . S
C1660 C1659 1.387 . S
C1660 C1663 1.387 . S
H1661 C1657 0.950 1_556 S
H1662 C1659 0.950 . S
C1663 C1654 1.390 . S
C1663 H1656 0.950 . S
C1663 C1660 1.387 . S
C1664 C1665 1.387 . S
C1664 H1668 0.950 . S
C1664 C1673 1.390 . S
C1665 C1664 1.387 . S
C1665 C1667 1.387 . S
H1666 C1673 0.950 . S
C1667 C1665 1.387 . S
C1667 C1669 1.390 . S
C1667 H1671 0.950 . S
H1668 C1664 0.950 . S
C1669 C1667 1.390 . S
C1669 C1670 1.387 . S
C1669 H1672 0.950 . S
C1670 C1669 1.387 . S
C1670 C1673 1.387 . S
H1671 C1667 0.950 . S
H1672 C1669 0.950 . S
C1673 C1664 1.390 . S
C1673 H1666 0.950 . S
C1673 C1670 1.387 . S
C1674 C1675 1.387 . S
C1674 H1678 0.950 . S
C1674 C1683 1.390 . S
C1675 C1674 1.387 . S
C1675 C1677 1.387 . S
H1676 C1683 0.950 . S
C1677 C1675 1.387 . S
C1677 C1679 1.390 . S
C1677 H1681 0.950 . S
H1678 C1674 0.950 . S
C1679 C1677 1.390 . S
C1679 C1680 1.387 . S
C1679 H1682 0.950 . S
C1680 C1679 1.387 . S
C1680 C1683 1.387 . S
H1681 C1677 0.950 . S
H1682 C1679 0.950 . S
C1683 C1674 1.390 . S
C1683 H1676 0.950 . S
C1683 C1680 1.387 . S
C1684 C1685 1.387 . S
C1684 H1688 0.950 . S
C1684 C1693 1.390 . S
C1685 C1684 1.387 . S
C1685 C1687 1.387 . S
H1686 C1693 0.950 . S
C1687 C1685 1.387 . S
C1687 C1689 1.390 . S
C1687 H1691 0.950 . S
H1688 C1684 0.950 . S
C1689 C1687 1.390 . S
C1689 C1690 1.387 . S
C1689 H1692 0.950 . S
C1690 C1689 1.387 . S
C1690 C1693 1.387 . S
H1691 C1687 0.950 . S
H1692 C1689 0.950 . S
C1693 C1684 1.390 . S
C1693 H1686 0.950 . S
C1693 C1690 1.387 . S
C1694 C1695 1.387 . S
C1694 H1698 0.950 . S
C1694 C1703 1.390 . S
C1695 C1694 1.387 . S
C1695 C1697 1.387 . S
H1696 C1703 0.950 . S
C1697 C1695 1.387 . S
C1697 C1699 1.390 . S
C1697 H1701 0.950 . S
H1698 C1694 0.950 . S
C1699 C1697 1.390 . S
C1699 C1700 1.387 . S
C1699 H1702 0.950 . S
C1700 C1699 1.387 . S
C1700 C1703 1.387 . S
H1701 C1697 0.950 . S
H1702 C1699 0.950 . S
C1703 C1694 1.390 . S
C1703 H1696 0.950 . S
C1703 C1700 1.387 . S
C1704 C1705 1.387 . S
C1704 H1708 0.950 . S
C1704 C1713 1.390 . S
C1705 C1704 1.387 . S
C1705 C1707 1.387 1_556 S
H1706 C1713 0.950 . S
C1707 C1705 1.387 1_554 S
C1707 C1709 1.390 . S
C1707 H1711 0.950 . S
H1708 C1704 0.950 . S
C1709 C1707 1.390 . S
C1709 C1710 1.387 1_554 S
C1709 H1712 0.950 . S
C1710 C1709 1.387 1_556 S
C1710 C1713 1.387 . S
H1711 C1707 0.950 . S
H1712 C1709 0.950 . S
C1713 C1704 1.390 . S
C1713 H1706 0.950 . S
C1713 C1710 1.387 . S
C1714 C1715 1.387 . S
C1714 H1718 0.950 . S
C1714 C1723 1.390 . S
C1715 C1714 1.387 . S
C1715 C1717 1.387 . S
H1716 C1723 0.950 . S
C1717 C1715 1.387 . S
C1717 C1719 1.390 . S
C1717 H1721 0.950 . S
H1718 C1714 0.950 . S
C1719 C1717 1.390 . S
C1719 C1720 1.387 . S
C1719 H1722 0.950 . S
C1720 C1719 1.387 . S
C1720 C1723 1.387 . S
H1721 C1717 0.950 . S
H1722 C1719 0.950 . S
C1723 C1714 1.390 . S
C1723 H1716 0.950 . S
C1723 C1720 1.387 . S
C1724 C1725 1.387 . S
C1724 H1728 0.950 . S
C1724 C1733 1.390 . S
C1725 C1724 1.387 . S
C1725 C1727 1.387 . S
H1726 C1733 0.950 1_556 S
C1727 C1725 1.387 . S
C1727 C1729 1.390 . S
C1727 H1731 0.950 . S
H1728 C1724 0.950 . S
C1729 C1727 1.390 . S
C1729 C1730 1.387 . S
C1729 H1732 0.950 . S
C1730 C1729 1.387 . S
C1730 C1733 1.387 . S
H1731 C1727 0.950 . S
H1732 C1729 0.950 . S
C1733 C1724 1.390 . S
C1733 H1726 0.950 1_554 S
C1733 C1730 1.387 . S
C1734 C1735 1.387 . S
C1734 H1738 0.950 . S
C1734 C1743 1.390 . S
C1735 C1734 1.387 . S
C1735 C1737 1.387 . S
H1736 C1743 0.950 . S
C1737 C1735 1.387 . S
C1737 C1739 1.390 . S
C1737 H1741 0.950 1_554 S
H1738 C1734 0.950 . S
C1739 C1737 1.390 . S
C1739 C1740 1.387 . S
C1739 H1742 0.950 1_554 S
C1740 C1739 1.387 . S
C1740 C1743 1.387 . S
H1741 C1737 0.950 1_556 S
H1742 C1739 0.950 1_556 S
C1743 C1734 1.390 . S
C1743 H1736 0.950 . S
C1743 C1740 1.387 . S
C1270 C257 1.308 . S
C1265 N66 1.290 . S
C1280 C316 1.576 . S
C1275 N79 1.570 . S
C1285 N92 1.770 . S
C1290 C433 1.794 . S
C1300 C501 1.398 . S
C1295 N54 1.407 . S
C1310 C580 1.554 . S
C1305 N131 1.567 . S
C1320 C705 1.235 . S
C1315 N158 1.230 . S
C1325 N145 1.540 . S
C1330 C765 1.543 . S
C1340 C873 1.774 . S
C1335 N118 1.759 . S
C1345 N148 1.964 . S
C1350 C969 1.946 . S
C1360 C1029 1.618 . S
C1355 N122 1.613 . S
C1365 N132 1.304 . S
C1370 C932 1.300 . S
C1380 C1049 1.516 . S
C1375 N161 1.476 . S
C1385 N96 1.839 . S
C1390 C1117 1.883 . S
C1395 N53 1.729 . S
C1400 C1108 1.746 . S
C1405 N67 1.129 . S
C1410 C1137 1.131 . S
C1415 N83 1.351 . S
C1420 C1145 1.362 . S
C1425 N44 1.450 . S
C1430 C529 1.477 . S
C1435 N187 1.538 . S
C1440 C492 1.539 . S
C1450 C228 1.225 . S
C1445 N197 1.233 . S
C1460 C325 1.314 . S
C1455 N106 1.317 . S
C1465 N57 1.824 1_545 S
C1470 C589 1.846 . S
C1480 C881 1.465 . S
C1475 N144 1.444 . S
C1490 C609 1.407 . S
C1485 N119 1.419 1_545 S
C1500 C793 1.806 . S
C1495 N157 1.758 . S
C1510 C785 1.308 . S
C1505 N183 1.288 . S
C1515 N196 1.570 . S
C1520 C853 1.577 . S
C1525 N105 1.770 . S
C1530 C617 1.794 . S
C1540 C668 1.398 . S
C1535 N171 1.406 . S
C1545 N40 1.566 . S
C1550 C413 1.555 . S
C1560 C521 1.235 . S
C1555 N2 1.230 . S
C1570 C237 1.543 . S
C1565 N15 1.540 . S
C1580 C353 1.774 . S
C1575 N27 1.759 1_455 S
C1585 N18 1.964 . S
C1590 C1057 1.945 . S
C1595 N31 1.613 . S
C1600 C941 1.620 1_554 S
C1605 N41 1.304 . S
C1610 C1020 1.299 . S
C1615 N5 1.476 . S
C1620 C961 1.516 . S
C1630 C1205 1.883 . S
C1625 N109 1.838 . S
C1640 C1196 1.746 . S
C1635 N170 1.728 1_554 S
C1650 C1225 1.131 . S
C1645 N184 1.128 . S
C1655 N200 1.339 1_554 S
C1660 C1233 1.363 . S
C1665 N135 1.450 . S
C1670 C697 1.477 . S
C1680 C677 1.539 . S
C1675 N70 1.538 . S
C1690 C756 1.226 . S
C1685 N80 1.234 . S
C1700 C844 1.315 . S
C1695 N93 1.318 . S
C1705 N174 1.824 . S
C1710 C404 1.846 . S
C1720 C345 1.464 . S
C1715 N14 1.442 . S
C1725 N28 1.419 . S
C1730 C441 1.407 . S
C1740 C265 1.806 . S
C1735 N1 1.756 1_565 S
