# Generated by pormake.
# Topology anh, (6,3)-cn, num edge types: 1
# Building blocks:
#     Node 0, Type 0, BuildingBlock: HISSIN_clean_sbu_0, # of connection points: 6
#     Node 1, Type 0, BuildingBlock: HISSIN_clean_sbu_0, # of connection points: 6
#     Node 2, Type 0, BuildingBlock: HISSIN_clean_sbu_0, # of connection points: 6
#     Node 3, Type 1, BuildingBlock: MIDCAF_clean_linker_0, # of connection points: 3
#     Node 4, Type 1, BuildingBlock: MIDCAF_clean_linker_0, # of connection points: 3
#     Node 5, Type 1, BuildingBlock: MIDCAF_clean_linker_0, # of connection points: 3
#     Node 6, Type 1, BuildingBlock: MIDCAF_clean_linker_0, # of connection points: 3
#     Node 7, Type 1, BuildingBlock: MIDCAF_clean_linker_0, # of connection points: 3
#     Node 8, Type 1, BuildingBlock: MIDCAF_clean_linker_0, # of connection points: 3
#     Edge 9, Type (0, 1), BuildingBlock: TEMPAE_clean_linker_10, # of connection points: 2
#     Edge 10, Type (0, 1), BuildingBlock: TEMPAE_clean_linker_10, # of connection points: 2
#     Edge 11, Type (0, 1), BuildingBlock: TEMPAE_clean_linker_10, # of connection points: 2
#     Edge 12, Type (0, 1), BuildingBlock: TEMPAE_clean_linker_10, # of connection points: 2
#     Edge 13, Type (0, 1), BuildingBlock: TEMPAE_clean_linker_10, # of connection points: 2
#     Edge 14, Type (0, 1), BuildingBlock: TEMPAE_clean_linker_10, # of connection points: 2
#     Edge 15, Type (0, 1), BuildingBlock: TEMPAE_clean_linker_10, # of connection points: 2
#     Edge 16, Type (0, 1), BuildingBlock: TEMPAE_clean_linker_10, # of connection points: 2
#     Edge 17, Type (0, 1), BuildingBlock: TEMPAE_clean_linker_10, # of connection points: 2
#     Edge 18, Type (0, 1), BuildingBlock: TEMPAE_clean_linker_10, # of connection points: 2
#     Edge 19, Type (0, 1), BuildingBlock: TEMPAE_clean_linker_10, # of connection points: 2
#     Edge 20, Type (0, 1), BuildingBlock: TEMPAE_clean_linker_10, # of connection points: 2
#     Edge 21, Type (0, 1), BuildingBlock: TEMPAE_clean_linker_10, # of connection points: 2
#     Edge 22, Type (0, 1), BuildingBlock: TEMPAE_clean_linker_10, # of connection points: 2
#     Edge 23, Type (0, 1), BuildingBlock: TEMPAE_clean_linker_10, # of connection points: 2
#     Edge 24, Type (0, 1), BuildingBlock: TEMPAE_clean_linker_10, # of connection points: 2
#     Edge 25, Type (0, 1), BuildingBlock: TEMPAE_clean_linker_10, # of connection points: 2
#     Edge 26, Type (0, 1), BuildingBlock: TEMPAE_clean_linker_10, # of connection points: 2
# Relax obj value: 0.237
# Max RMSD: 0.188
# Mean RMSD: 0.155
data_MOF--net-anh--node1-HISSIN_clean_sbu_0--node2-MIDCAF_clean_linker_0--edge1-TEMPAE_clean_linker_10
_symmetry_space_group_name_H-M    P1
_symmetry_Int_Tables_number       1
_symmetry_cell_setting            triclinic
loop_
_symmetry_equiv_pos_as_xyz
'x, y, z'
_cell_length_a     36.536985
_cell_length_b     36.65263
_cell_length_c     68.132732
_cell_angle_alpha  92.663725
_cell_angle_beta   90.658584
_cell_angle_gamma 120.10893
loop_
_atom_site_label
_atom_site_type_symbol
_atom_site_fract_x
_atom_site_fract_y
_atom_site_fract_z
_atom_type_partial_charge
Eu0 Eu 1.07115 0.51676 0.16163 0.0
Eu1 Eu 0.12079 0.61796 0.16633 0.0
C2 C 1.0895 0.56453 0.20445 0.0
C3 C 0.97424 0.41594 0.16075 0.0
C4 C 0.95845 0.4413 0.16846 0.0
C5 C 0.90235 0.35856 0.15414 0.0
C6 C 0.9151 0.42592 0.16855 0.0
C7 C 0.94606 0.3744 0.15364 0.0
C8 C 0.88673 0.38457 0.16129 0.0
C9 C 1.01981 0.4358 0.15799 0.0
O10 O 0.17211 0.6015 0.15948 0.0
O11 O 0.13922 0.53231 0.1676 0.0
C12 C 0.17377 0.56729 0.1632 0.0
O13 O 0.10481 0.53751 0.13342 0.0
O14 O 0.16734 0.67842 0.18073 0.0
O15 O 0.13175 0.67714 0.15491 0.0
O16 O 0.10354 0.5989 0.13415 0.0
C17 C 0.10721 0.56932 0.12444 0.0
O18 O 1.02469 0.53799 0.15251 0.0
O19 O 1.0522 0.59908 0.17163 0.0
O20 O 0.12053 0.59805 0.19714 0.0
O21 O 1.03229 0.45955 0.14304 0.0
O22 O 1.04395 0.45465 0.17376 0.0
O23 O 1.06123 0.53322 0.19281 0.0
C24 C 0.20384 0.72774 0.15759 0.0
C25 C 0.22293 0.77163 0.16027 0.0
C26 C 0.26504 0.7355 0.14051 0.0
C27 C 0.26343 0.79742 0.15348 0.0
C28 C 0.22438 0.70987 0.14706 0.0
C29 C 0.28557 0.7795 0.14424 0.0
C30 C 0.16415 0.7002 0.16691 0.0
C31 C 1.02005 0.56806 0.16132 0.0
H32 H 0.97976 0.47349 0.17401 0.0
H33 H 0.88076 0.32641 0.14857 0.0
H34 H 0.90371 0.44626 0.1744 0.0
H35 H 0.95779 0.35468 0.14739 0.0
H36 H 0.20722 0.78585 0.16819 0.0
H37 H 0.28122 0.72064 0.1336 0.0
H38 H 0.27815 0.83132 0.1562 0.0
H39 H 0.20973 0.67594 0.14466 0.0
Eu40 Eu 0.61295 1.03541 0.49934 0.0
Eu41 Eu 0.56231 0.08804 0.49984 0.0
C42 C 0.5899 0.06487 0.54058 0.0
C43 C 0.64972 0.95668 0.48656 0.0
C44 C 0.61059 0.91884 0.48535 0.0
C45 C 0.68285 0.92031 0.4712 0.0
C46 C 0.60812 0.88146 0.47793 0.0
C47 C 0.68535 0.95753 0.47872 0.0
C48 C 0.64469 0.88166 0.47161 0.0
C49 C 0.65469 0.99519 0.49662 0.0
O50 O 0.63141 0.14028 0.50288 0.0
O51 O 0.66455 0.10298 0.49461 0.0
C52 C 0.66569 0.13916 0.49812 0.0
O53 O 0.58304 1.02552 0.46925 0.0
O54 O 0.54598 0.13286 0.51333 0.0
O55 O 0.52114 0.10503 0.48404 0.0
O56 O 0.58766 0.08957 0.46978 0.0
C57 C 0.58448 1.05653 0.45996 0.0
O58 O 0.5441 0.98291 0.50016 0.0
O59 O 0.5088 1.01943 0.49541 0.0
O60 O 0.56205 0.07134 0.53135 0.0
O61 O 0.6607 1.02532 0.48534 0.0
O62 O 0.6291 0.99057 0.51076 0.0
O63 O 0.61682 1.05746 0.53111 0.0
C64 C 0.5499 0.17832 0.4897 0.0
C65 C 0.54017 0.2086 0.49705 0.0
C66 C 0.61364 0.23369 0.47602 0.0
C67 C 0.56795 0.25148 0.4945 0.0
C68 C 0.58571 0.19099 0.47836 0.0
C69 C 0.60637 0.26467 0.485 0.0
C70 C 0.52883 0.13569 0.49699 0.0
C71 C 0.50867 0.98356 0.49706 0.0
H72 H 0.58247 0.91776 0.49098 0.0
H73 H 0.71138 0.92127 0.46625 0.0
H74 H 0.5784 0.85205 0.47854 0.0
H75 H 0.7156 0.98667 0.47923 0.0
H76 H 0.51269 0.19941 0.50584 0.0
H77 H 0.64268 0.24221 0.46863 0.0
H78 H 0.5606 0.2744 0.50108 0.0
H79 H 0.59403 0.16814 0.47265 0.0
Eu80 Eu 0.5651 0.55579 0.82834 0.0
Eu81 Eu 0.66604 0.60638 0.8365 0.0
C82 C 0.60497 0.57831 0.87217 0.0
C83 C 0.46274 0.53983 0.80934 0.0
C84 C 0.42298 0.53131 0.81542 0.0
C85 C 0.4666 0.59481 0.78929 0.0
C86 C 0.40572 0.5553 0.80904 0.0
C87 C 0.48399 0.57098 0.79583 0.0
C88 C 0.4279 0.58825 0.79636 0.0
C89 C 0.4848 0.52148 0.81947 0.0
O90 O 0.64838 0.5372 0.83845 0.0
O91 O 0.58042 0.50277 0.82513 0.0
C92 C 0.61448 0.50224 0.83134 0.0
O93 O 0.59578 0.5831 0.79996 0.0
O94 O 0.72274 0.62198 0.8541 0.0
O95 O 0.7284 0.65172 0.82663 0.0
O96 O 0.65307 0.57663 0.80599 0.0
C97 C 0.62788 0.5802 0.79354 0.0
O98 O 0.58121 0.62425 0.83383 0.0
O99 O 0.6519 0.65778 0.82793 0.0
O100 O 0.63789 0.61065 0.86513 0.0
O101 O 0.51045 0.51439 0.80893 0.0
O102 O 0.50156 0.53964 0.83675 0.0
O103 O 0.57653 0.54767 0.86023 0.0
C104 C 0.77477 0.62712 0.83299 0.0
C105 C 0.81884 0.65095 0.83543 0.0
C106 C 0.77992 0.56869 0.81792 0.0
C107 C 0.84343 0.6334 0.82937 0.0
C108 C 0.75557 0.58644 0.82371 0.0
C109 C 0.82409 0.59161 0.82105 0.0
C110 C 0.74793 0.64339 0.84032 0.0
C111 C 0.61663 0.65884 0.83015 0.0
H112 H 0.40646 0.50789 0.82606 0.0
H113 H 0.48434 0.61956 0.77942 0.0
H114 H 0.37632 0.5498 0.81521 0.0
H115 H 0.51508 0.57842 0.7911 0.0
H116 H 0.83409 0.68264 0.84231 0.0
H117 H 0.76387 0.53634 0.81182 0.0
H118 H 0.87749 0.65217 0.83163 0.0
H119 H 0.72153 0.56788 0.82145 0.0
C120 C 0.55653 0.95596 0.19112 0.0
C121 C 0.56681 0.96824 0.1717 0.0
C122 C 0.59146 1.01154 0.1686 0.0
C123 C 0.60047 1.04167 0.18401 0.0
H124 H 0.54457 0.12926 0.19348 0.0
H125 H 0.56241 0.19421 0.17775 0.0
H126 H 0.65086 0.2662 0.22639 0.0
H127 H 0.63024 0.20182 0.24247 0.0
H128 H 0.61703 0.14321 0.28109 0.0
H129 H 0.61836 0.1337 0.31622 0.0
H130 H 0.56535 0.99957 0.30422 0.0
H131 H 0.56431 1.00892 0.26889 0.0
H132 H 0.55512 0.97554 0.22105 0.0
H133 H 0.53728 0.92302 0.19422 0.0
H134 H 0.60092 1.02219 0.15398 0.0
H135 H 0.61682 0.07477 0.18089 0.0
N136 N 0.5855 0.09401 0.21213 0.0
N137 N 0.58779 0.11704 0.24499 0.0
N138 N 0.58801 1.05394 0.2374 0.0
C139 C 0.58543 0.12241 0.22556 0.0
C140 C 0.58863 0.08262 0.25102 0.0
C141 C 0.58715 1.05996 0.21791 0.0
C142 C 0.58713 0.16074 0.21884 0.0
C143 C 0.56666 0.15929 0.20102 0.0
C144 C 0.57708 0.19656 0.192 0.0
C145 C 0.60961 0.23569 0.20022 0.0
C146 C 0.62581 0.23707 0.21933 0.0
C147 C 0.61435 0.19992 0.22861 0.0
C148 C 0.59046 0.07678 0.27223 0.0
C149 C 0.60575 0.11167 0.2859 0.0
C150 C 0.6068 0.10634 0.30598 0.0
C151 C 0.59202 0.06595 0.31283 0.0
C152 C 0.5768 1.031 0.29923 0.0
C153 C 0.5764 1.03642 0.27907 0.0
C154 C 0.58598 1.02905 0.2029 0.0
C155 C 0.56629 0.98612 0.20659 0.0
C156 C 0.81758 0.53362 0.55411 0.0
C157 C 0.8284 0.54334 0.53451 0.0
C158 C 0.84245 0.58464 0.52908 0.0
C159 C 0.8375 0.61275 0.54171 0.0
H160 H 0.72582 0.60814 0.52251 0.0
H161 H 0.68394 0.61942 0.49806 0.0
H162 H 0.6618 0.69528 0.5416 0.0
H163 H 0.70175 0.68211 0.56615 0.0
H164 H 0.71753 0.66604 0.61241 0.0
H165 H 0.69323 0.65741 0.64594 0.0
H166 H 0.7445 0.57586 0.65548 0.0
H167 H 0.76895 0.58435 0.62185 0.0
H168 H 0.79862 0.55129 0.58081 0.0
H169 H 0.80683 0.50207 0.55877 0.0
H170 H 0.85169 0.59314 0.51417 0.0
H171 H 0.84315 0.64236 0.53622 0.0
N172 N 0.77228 0.62804 0.55485 0.0
N173 N 0.73571 0.63868 0.58028 0.0
N174 N 0.78491 0.61705 0.58725 0.0
C175 C 0.74323 0.63819 0.56087 0.0
C176 C 0.75651 0.62832 0.59359 0.0
C177 C 0.79363 0.61796 0.56786 0.0
C178 C 0.71745 0.64474 0.54619 0.0
C179 C 0.71175 0.62705 0.52685 0.0
C180 C 0.68765 0.6334 0.51283 0.0
C181 C 0.66928 0.65813 0.51778 0.0
C182 C 0.67443 0.67509 0.53729 0.0
C183 C 0.69788 0.6681 0.55137 0.0
C184 C 0.74511 0.62579 0.61444 0.0
C185 C 0.7239 0.64645 0.62167 0.0
C186 C 0.71009 0.64167 0.64088 0.0
C187 C 0.71679 0.61579 0.65322 0.0
C188 C 0.73857 0.59565 0.64616 0.0
C189 C 0.75287 0.60083 0.62699 0.0
C190 C 0.81871 0.59983 0.55988 0.0
C191 C 0.81278 0.56187 0.5668 0.0
C192 C 0.99675 0.48726 0.86409 0.0
C193 C 1.00307 0.48298 0.84393 0.0
C194 C 1.04398 0.4943 0.83805 0.0
C195 C 1.07847 0.51517 0.85144 0.0
H196 H 0.17869 0.63467 0.84715 0.0
H197 H 0.24117 0.67585 0.82903 0.0
H198 H 0.31672 0.72175 0.8834 0.0
H199 H 0.25362 0.67853 0.9017 0.0
H200 H 0.20718 0.6183 0.94133 0.0
H201 H 0.20442 0.61452 0.97695 0.0
H202 H 1.06786 0.55467 0.97232 0.0
H203 H 1.07075 0.55625 0.93674 0.0
H204 H 1.02561 0.5136 0.89261 0.0
H205 H 0.96581 0.47918 0.86926 0.0
H206 H 1.04983 0.49045 0.82275 0.0
H207 H 0.11006 0.52677 0.84615 0.0
N208 N 0.14243 0.58713 0.87497 0.0
N209 N 0.17437 0.61855 0.90585 0.0
N210 N 0.10758 0.55652 0.90343 0.0
C211 C 0.17511 0.61878 0.88591 0.0
C212 C 0.14051 0.58752 0.91467 0.0
C213 C 0.1088 0.55585 0.88353 0.0
C214 C 0.21148 0.65183 0.87582 0.0
C215 C 0.20843 0.65403 0.85537 0.0
C216 C 0.24439 0.67849 0.84493 0.0
C217 C 0.28435 0.70147 0.85468 0.0
C218 C 0.28654 0.70356 0.8754 0.0
C219 C 0.25039 0.67874 0.88589 0.0
C220 C 0.13918 0.58732 0.93629 0.0
C221 C 0.17664 0.60439 0.94799 0.0
C222 C 0.17501 0.60239 0.96843 0.0
C223 C 0.13587 0.58404 0.97762 0.0
C224 C 0.09851 0.56798 0.96581 0.0
C225 C 0.10013 0.56916 0.9454 0.0
C226 C 1.07248 0.52412 0.87103 0.0
C227 C 1.03118 0.50746 0.87755 0.0
C228 C 0.23153 0.67417 0.45355 0.0
C229 C 0.23168 0.70013 0.46948 0.0
C230 C 0.19363 0.68531 0.47968 0.0
C231 C 0.15634 0.64707 0.4734 0.0
H232 H 1.00853 0.51575 0.48072 0.0
H233 H 0.94426 0.45371 0.49159 0.0
H234 H 0.95098 0.3778 0.44291 0.0
H235 H 1.01318 0.43927 0.43191 0.0
H236 H 1.03744 0.48468 0.3899 0.0
H237 H 1.03608 0.48447 0.35392 0.0
H238 H 0.11813 0.61982 0.35746 0.0
H239 H 0.12016 0.62016 0.39331 0.0
H240 H 0.1961 0.61866 0.4345 0.0
H241 H 0.26003 0.68315 0.44559 0.0
H242 H 0.19209 0.70409 0.49204 0.0
H243 H 0.12732 0.6378 0.48096 0.0
N244 N 1.08459 0.55443 0.45668 0.0
N245 N 1.0502 0.52074 0.42611 0.0
N246 N 0.11355 0.58526 0.42692 0.0
C247 C 1.05126 0.52092 0.44611 0.0
C248 C 1.08075 0.55285 0.41642 0.0
C249 C 0.11635 0.5867 0.44689 0.0
C250 C 1.01623 0.48293 0.45532 0.0
C251 C 0.9965 0.48563 0.47254 0.0
C252 C 0.9594 0.44982 0.47874 0.0
C253 C 0.94112 0.41017 0.46797 0.0
C254 C 0.96248 0.40752 0.45136 0.0
C255 C 0.99886 0.44304 0.44512 0.0
C256 C 1.07895 0.55243 0.39455 0.0
C257 C 1.05512 0.51442 0.38302 0.0
C258 C 1.05449 0.51423 0.36242 0.0
C259 C 1.07694 0.55214 0.35288 0.0
C260 C 0.10028 0.59016 0.36439 0.0
C261 C 0.10159 0.59027 0.38494 0.0
C262 C 0.15612 0.62269 0.45674 0.0
C263 C 0.19464 0.63658 0.44728 0.0
C264 C 0.58292 0.19507 0.78975 0.0
C265 C 0.60844 0.21978 0.80618 0.0
C266 C 0.62977 0.20326 0.81691 0.0
C267 C 0.62752 0.1646 0.81059 0.0
H268 H 0.59193 1.00926 0.81942 0.0
H269 H 0.59109 0.94546 0.8303 0.0
H270 H 0.64527 0.93527 0.77587 0.0
H271 H 0.6462 0.99765 0.76521 0.0
H272 H 0.64384 1.04178 0.72681 0.0
H273 H 0.641 1.04096 0.69076 0.0
H274 H 0.56168 0.09693 0.69338 0.0
H275 H 0.5655 0.09914 0.72938 0.0
H276 H 0.56128 0.13997 0.77046 0.0
H277 H 0.565 0.20563 0.78133 0.0
H278 H 0.64969 0.2211 0.8297 0.0
H279 H 0.64612 0.15416 0.81854 0.0
N280 N 0.61166 0.07546 0.79312 0.0
N281 N 0.61271 1.04349 0.76236 0.0
N282 N 0.60415 0.10242 0.76347 0.0
C283 C 0.61452 1.04405 0.78237 0.0
C284 C 0.60738 0.07218 0.75282 0.0
C285 C 0.60658 0.10511 0.78347 0.0
C286 C 0.61869 1.00899 0.79126 0.0
C287 C 0.60423 0.99375 0.80993 0.0
C288 C 0.60363 0.9569 0.81614 0.0
C289 C 0.61724 0.93409 0.80383 0.0
C290 C 0.6333 0.95068 0.78564 0.0
C291 C 0.63405 0.98709 0.77954 0.0
C292 C 0.60496 0.07059 0.73097 0.0
C293 C 0.62578 1.05389 0.71971 0.0
C294 C 0.62432 1.05355 0.69911 0.0
C295 C 0.60111 0.06885 0.68938 0.0
C296 C 0.57972 0.08489 0.70057 0.0
C297 C 0.58206 0.08625 0.72116 0.0
C298 C 0.60362 0.14129 0.79345 0.0
C299 C 0.58054 0.15686 0.78357 0.0
C300 C 0.74395 0.60696 0.13019 0.0
C301 C 0.74213 0.57062 0.13743 0.0
C302 C 0.70136 0.5354 0.13977 0.0
C303 C 0.66418 0.53596 0.13419 0.0
H304 H 0.52741 0.54746 0.15039 0.0
H305 H 0.46234 0.54556 0.16141 0.0
H306 H 0.45546 0.60107 0.10803 0.0
H307 H 0.51878 0.60255 0.09716 0.0
H308 H 0.56619 0.60503 0.06037 0.0
H309 H 0.567 0.60555 0.02476 0.0
H310 H 0.63354 0.53564 0.02377 0.0
H311 H 0.63498 0.53773 0.05961 0.0
H312 H 0.7101 0.63516 0.11804 0.0
H313 H 0.77415 0.63523 0.12851 0.0
H314 H 0.69804 0.50654 0.14506 0.0
H315 H 0.6337 0.50756 0.13514 0.0
N316 N 0.59651 0.57069 0.12484 0.0
N317 N 0.56769 0.57251 0.09404 0.0
N318 N 0.63018 0.56979 0.0955 0.0
C319 C 0.56532 0.57223 0.11395 0.0
C320 C 0.59944 0.57099 0.08469 0.0
C321 C 0.62935 0.56972 0.11547 0.0
C322 C 0.52858 0.57459 0.12269 0.0
C323 C 0.51218 0.5596 0.14113 0.0
C324 C 0.47469 0.55849 0.14743 0.0
C325 C 0.45255 0.57228 0.13546 0.0
C326 C 0.47027 0.58883 0.1175 0.0
C327 C 0.50721 0.5899 0.11128 0.0
C328 C 0.60051 0.57133 0.06287 0.0
C329 C 0.58111 0.58987 0.05255 0.0
C330 C 0.58127 0.5898 0.032 0.0
C331 C 0.59997 0.57027 0.02106 0.0
C332 C 0.6194 0.55167 0.03149 0.0
C333 C 0.62005 0.55261 0.05212 0.0
C334 C 0.66654 0.57177 0.12617 0.0
C335 C 0.70697 0.60731 0.12449 0.0
C336 C 0.21797 0.5312 0.16327 0.0
C337 C 0.21518 0.56774 0.16107 0.0
C338 C 0.25621 0.53094 0.16032 0.0
C339 C 0.29316 0.56809 0.15501 0.0
C340 C 0.29072 0.60526 0.15311 0.0
C341 C 0.25211 0.60463 0.15612 0.0
C342 C 0.25679 0.49046 0.1625 0.0
C343 C 0.32883 0.64575 0.14751 0.0
C344 C 0.40347 0.57807 0.16042 0.0
C345 C 0.41095 0.56915 0.14104 0.0
C346 C 0.36547 0.57753 0.16523 0.0
C347 C 0.33355 0.56758 0.15041 0.0
C348 C 0.34057 0.55767 0.13095 0.0
C349 C 0.37871 0.55849 0.12656 0.0
C350 C 0.35979 0.58837 0.18617 0.0
C351 C 0.30781 0.54653 0.11458 0.0
H352 H 0.19 0.5024 0.16705 0.0
H353 H 0.25087 0.63322 0.15435 0.0
H354 H 0.26343 0.47971 0.14818 0.0
H355 H 0.28253 0.49592 0.17313 0.0
H356 H 0.22629 0.4648 0.16759 0.0
H357 H 0.32257 0.67245 0.14747 0.0
H358 H 0.35598 0.65449 0.1579 0.0
H359 H 0.33844 0.6411 0.13264 0.0
H360 H 0.42784 0.5866 0.1718 0.0
H361 H 0.38319 0.55058 0.1116 0.0
H362 H 0.33006 0.56241 0.19166 0.0
H363 H 0.35693 0.61714 0.1868 0.0
H364 H 0.38662 0.59405 0.19615 0.0
H365 H 0.27723 0.519 0.11831 0.0
H366 H 0.3175 0.53887 0.10029 0.0
H367 H 0.30226 0.57333 0.11281 0.0
C368 C 0.74547 0.18113 0.49426 0.0
C369 C 0.70648 0.17999 0.49557 0.0
C370 C 0.7835 0.21895 0.49081 0.0
C371 C 0.78304 0.25696 0.48817 0.0
C372 C 0.74371 0.25586 0.48953 0.0
C373 C 0.70643 0.21792 0.49343 0.0
C374 C 0.82421 0.218 0.48959 0.0
C375 C 0.7396 0.29383 0.4859 0.0
C376 C 0.88841 0.36377 0.49313 0.0
C377 C 0.89984 0.37181 0.47344 0.0
C378 C 0.85061 0.32712 0.4981 0.0
C379 C 0.82317 0.29699 0.48317 0.0
C380 C 0.83384 0.30551 0.46331 0.0
C381 C 0.87151 0.34242 0.45873 0.0
C382 C 0.83976 0.3207 0.51941 0.0
C383 C 0.80504 0.27571 0.44676 0.0
H384 H 0.74634 0.1523 0.49587 0.0
H385 H 0.67682 0.21785 0.49424 0.0
H386 H 0.83667 0.22583 0.47465 0.0
H387 H 0.84846 0.24228 0.50017 0.0
H388 H 0.81994 0.18666 0.49274 0.0
H389 H 0.71812 0.2964 0.49656 0.0
H390 H 0.77028 0.32373 0.48678 0.0
H391 H 0.72524 0.28955 0.47093 0.0
H392 H 0.90935 0.38575 0.50478 0.0
H393 H 0.87847 0.34838 0.44342 0.0
H394 H 0.83719 0.29066 0.52366 0.0
H395 H 0.80846 0.31808 0.52155 0.0
H396 H 0.86373 0.347 0.52936 0.0
H397 H 0.79989 0.24351 0.44846 0.0
H398 H 0.81799 0.28602 0.43208 0.0
H399 H 0.77367 0.27356 0.44735 0.0
C400 C 0.65225 0.73604 0.8217 0.0
C401 C 0.61643 0.69972 0.82794 0.0
C402 C 0.65195 0.77401 0.81892 0.0
C403 C 0.61497 0.77654 0.82242 0.0
C404 C 0.57895 0.74018 0.82912 0.0
C405 C 0.58011 0.7026 0.83171 0.0
C406 C 0.6914 0.81158 0.81206 0.0
C407 C 0.53886 0.7403 0.834 0.0
C408 C 0.62457 0.88682 0.82838 0.0
C409 C 0.61433 0.89289 0.80926 0.0
C410 C 0.6245 0.8493 0.83293 0.0
C411 C 0.61367 0.81638 0.81816 0.0
C412 C 0.60173 0.82169 0.79908 0.0
C413 C 0.60244 0.85951 0.79488 0.0
C414 C 0.63626 0.84489 0.8536 0.0
C415 C 0.58832 0.78729 0.78294 0.0
H416 H 0.68067 0.73474 0.81874 0.0
H417 H 0.55217 0.6753 0.83672 0.0
H418 H 0.68483 0.81971 0.79745 0.0
H419 H 0.70105 0.83948 0.8224 0.0
H420 H 0.71826 0.80558 0.81089 0.0
H421 H 0.51068 0.70981 0.82884 0.0
H422 H 0.53759 0.7435 0.85022 0.0
H423 H 0.53674 0.76645 0.82763 0.0
H424 H 0.63375 0.9119 0.83972 0.0
H425 H 0.59336 0.86282 0.78017 0.0
H426 H 0.66376 0.8398 0.85348 0.0
H427 H 0.60947 0.81675 0.85972 0.0
H428 H 0.64432 0.87313 0.86346 0.0
H429 H 0.61575 0.78363 0.77904 0.0
H430 H 0.57598 0.79418 0.76949 0.0
H431 H 0.56347 0.75661 0.78811 0.0
C432 C 0.94555 0.53624 0.14633 0.0
C433 C 0.97853 0.5674 0.15881 0.0
C434 C 0.90688 0.53571 0.14325 0.0
C435 C 0.9001 0.56679 0.153 0.0
C436 C 0.93295 0.59789 0.16589 0.0
C437 C 0.97154 0.59794 0.16856 0.0
C438 C 0.87347 0.50221 0.1292 0.0
C439 C 0.92751 0.63158 0.17674 0.0
C440 C 0.8183 0.59125 0.13019 0.0
C441 C 0.78249 0.56927 0.1416 0.0
C442 C 0.85632 0.59083 0.13379 0.0
C443 C 0.8594 0.56757 0.14917 0.0
C444 C 0.82335 0.5448 0.16062 0.0
C445 C 0.78569 0.546 0.15678 0.0
C446 C 0.89331 0.61525 0.12095 0.0
C447 C 0.82464 0.51934 0.17712 0.0
H448 H 0.95008 0.5123 0.13867 0.0
H449 H 0.99637 0.62214 0.1783 0.0
H450 H 0.84279 0.48554 0.13648 0.0
H451 H 0.86865 0.51722 0.11641 0.0
H452 H 0.88215 0.47865 0.1237 0.0
H453 H 0.95519 0.65272 0.18671 0.0
H454 H 0.92297 0.65104 0.16605 0.0
H455 H 0.89874 0.61673 0.18553 0.0
H456 H 0.81659 0.60851 0.11807 0.0
H457 H 0.7589 0.52906 0.16593 0.0
H458 H 0.90207 0.59347 0.11334 0.0
H459 H 0.9213 0.63872 0.13015 0.0
H460 H 0.88629 0.63213 0.10971 0.0
H461 H 0.83533 0.49731 0.17172 0.0
H462 H 0.79331 0.50078 0.18371 0.0
H463 H 0.84791 0.54087 0.18879 0.0
C464 C 0.46617 0.90316 0.49425 0.0
C465 C 0.46718 0.94212 0.49466 0.0
C466 C 0.42779 0.86415 0.49114 0.0
C467 C 0.38878 0.86336 0.48842 0.0
C468 C 0.38948 0.90251 0.48918 0.0
C469 C 0.42834 0.94109 0.49221 0.0
C470 C 0.42918 0.82365 0.49038 0.0
C471 C 0.34907 0.90373 0.48646 0.0
C472 C 0.29709 0.76713 0.45976 0.0
C473 C 0.27112 0.74266 0.47467 0.0
C474 C 0.33489 0.806 0.46403 0.0
C475 C 0.34777 0.82189 0.4838 0.0
C476 C 0.32147 0.79789 0.49896 0.0
C477 C 0.28371 0.75888 0.49426 0.0
C478 C 0.36128 0.83005 0.44725 0.0
C479 C 0.3335 0.81325 0.52024 0.0
H480 H 0.49561 0.90303 0.49605 0.0
H481 H 0.42821 0.97061 0.4925 0.0
H482 H 0.40764 0.80215 0.50122 0.0
H483 H 0.41788 0.80717 0.47562 0.0
H484 H 0.46157 0.82923 0.49348 0.0
H485 H 0.35436 0.93631 0.48839 0.0
H486 H 0.33488 0.89051 0.47151 0.0
H487 H 0.32568 0.88378 0.49713 0.0
H488 H 0.28772 0.75604 0.44452 0.0
H489 H 0.26451 0.74064 0.50602 0.0
H490 H 0.3935 0.83438 0.44887 0.0
H491 H 0.36488 0.86198 0.44758 0.0
H492 H 0.34714 0.81367 0.43268 0.0
H493 H 0.36434 0.81593 0.52418 0.0
H494 H 0.30945 0.79179 0.53033 0.0
H495 H 0.3375 0.84523 0.52261 0.0
C496 C 0.57748 0.42224 0.82571 0.0
C497 C 0.61509 0.46118 0.82953 0.0
C498 C 0.57758 0.38368 0.82314 0.0
C499 C 0.61629 0.38335 0.82404 0.0
C500 C 0.6544 0.42253 0.82802 0.0
C501 C 0.65331 0.4606 0.83086 0.0
C502 C 0.53601 0.34315 0.81915 0.0
C503 C 0.69662 0.42447 0.82883 0.0
C504 C 0.61227 0.27693 0.83074 0.0
C505 C 0.61318 0.26283 0.81127 0.0
C506 C 0.61376 0.31597 0.83516 0.0
C507 C 0.61686 0.34241 0.81985 0.0
C508 C 0.61911 0.32888 0.80026 0.0
C509 C 0.6171 0.28965 0.79626 0.0
C510 C 0.61096 0.32849 0.85624 0.0
C511 C 0.62315 0.35571 0.78336 0.0
H512 H 0.54764 0.4218 0.82467 0.0
H513 H 0.68273 0.49017 0.83367 0.0
H514 H 0.53553 0.32914 0.80429 0.0
H515 H 0.53239 0.31983 0.8299 0.0
H516 H 0.50844 0.34809 0.81998 0.0
H517 H 0.72333 0.457 0.83246 0.0
H518 H 0.69666 0.40338 0.83999 0.0
H519 H 0.70212 0.41299 0.81443 0.0
H520 H 0.60907 0.2568 0.84254 0.0
H521 H 0.61869 0.27994 0.78118 0.0
H522 H 0.58197 0.33076 0.85786 0.0
H523 H 0.63842 0.36013 0.8605 0.0
H524 H 0.6101 0.30552 0.86658 0.0
H525 H 0.59479 0.35925 0.78217 0.0
H526 H 0.62651 0.34193 0.7691 0.0
H527 H 0.65104 0.38785 0.78607 0.0
C528 C 0.6128 0.80573 0.45921 0.0
C529 C 0.64514 0.8416 0.46965 0.0
C530 C 0.60949 0.76605 0.4606 0.0
C531 C 0.63825 0.76234 0.47331 0.0
C532 C 0.67236 0.79906 0.48295 0.0
C533 C 0.67556 0.83818 0.48078 0.0
C534 C 0.57397 0.72833 0.44923 0.0
C535 C 0.70381 0.79693 0.49682 0.0
C536 C 0.61632 0.67837 0.50738 0.0
C537 C 0.64906 0.67059 0.50246 0.0
C538 C 0.60723 0.70386 0.49599 0.0
C539 C 0.63068 0.7207 0.47907 0.0
C540 C 0.6571 0.70563 0.47194 0.0
C541 C 0.66686 0.6814 0.48396 0.0
C542 C 0.57719 0.71766 0.50365 0.0
C543 C 0.67949 0.71984 0.45295 0.0
H544 H 0.58943 0.80847 0.45044 0.0
H545 H 0.70029 0.86577 0.48906 0.0
H546 H 0.57981 0.70143 0.44754 0.0
H547 H 0.54404 0.71786 0.45695 0.0
H548 H 0.56935 0.73711 0.4344 0.0
H549 H 0.72789 0.82853 0.50336 0.0
H550 H 0.68703 0.77651 0.50898 0.0
H551 H 0.72065 0.78296 0.48893 0.0
H552 H 0.6006 0.66794 0.5211 0.0
H553 H 0.69138 0.67465 0.4796 0.0
H554 H 0.55547 0.71564 0.49162 0.0
H555 H 0.59553 0.75112 0.50945 0.0
H556 H 0.55801 0.69814 0.51564 0.0
H557 H 0.65934 0.72399 0.44199 0.0
H558 H 0.68814 0.69679 0.44668 0.0
H559 H 0.70905 0.75068 0.45574 0.0
C560 C 0.8393 0.541 0.80155 0.0
C561 C 0.84908 0.57034 0.8176 0.0
C562 C 0.85988 0.51742 0.79958 0.0
C563 C 0.8908 0.52341 0.81403 0.0
C564 C 0.90169 0.55398 0.82989 0.0
C565 C 0.88059 0.57682 0.83149 0.0
C566 C 0.84713 0.48519 0.78248 0.0
C567 C 0.93493 0.56192 0.84559 0.0
C568 C 0.92704 0.45345 0.83328 0.0
C569 C 0.97008 0.47769 0.82925 0.0
C570 C 0.89767 0.46339 0.82544 0.0
C571 C 0.91205 0.49798 0.81335 0.0
C572 C 0.9531 0.51605 0.80597 0.0
C573 C 0.98192 0.50581 0.8141 0.0
C574 C 0.85318 0.44156 0.83264 0.0
C575 C 0.96886 0.5514 0.79214 0.0
H576 H 0.81515 0.53601 0.79064 0.0
H577 H 0.88773 0.59869 0.84415 0.0
H578 H 0.87389 0.48116 0.77772 0.0
H579 H 0.82158 0.45422 0.787 0.0
H580 H 0.83466 0.49405 0.76972 0.0
H581 H 0.94015 0.58748 0.85666 0.0
H582 H 0.92524 0.53269 0.85338 0.0
H583 H 0.96555 0.57089 0.8388 0.0
H584 H 0.91723 0.43021 0.84428 0.0
H585 H 1.01483 0.52417 0.81039 0.0
H586 H 0.83016 0.43745 0.82077 0.0
H587 H 0.85098 0.4613 0.84491 0.0
H588 H 0.84422 0.41016 0.8381 0.0
H589 H 0.94351 0.54622 0.78133 0.0
H590 H 0.99649 0.55455 0.78409 0.0
H591 H 0.97891 0.58163 0.80074 0.0
C592 C 0.34974 0.79869 0.12425 0.0
C593 C 0.33144 0.80585 0.14093 0.0
C594 C 0.39383 0.8214 0.12219 0.0
C595 C 0.41995 0.85153 0.13729 0.0
C596 C 0.4014 0.85917 0.15401 0.0
C597 C 0.35756 0.83621 0.15559 0.0
C598 C 0.41201 0.81189 0.10421 0.0
C599 C 0.42778 0.89109 0.17058 0.0
C600 C 0.5292 0.89413 0.15663 0.0
C601 C 0.54293 0.93712 0.15499 0.0
C602 C 0.49088 0.86307 0.14739 0.0
C603 C 0.46673 0.87583 0.13631 0.0
C604 C 0.48577 0.91792 0.13071 0.0
C605 C 0.52381 0.94843 0.14028 0.0
C606 C 0.47287 0.81775 0.1524 0.0
C607 C 0.46227 0.93216 0.11768 0.0
H608 H 0.32966 0.77514 0.11285 0.0
H609 H 0.34383 0.84111 0.16876 0.0
H610 H 0.44213 0.8397 0.10023 0.0
H611 H 0.41848 0.78611 0.10722 0.0
H612 H 0.38918 0.80092 0.09139 0.0
H613 H 0.40812 0.89314 0.18242 0.0
H614 H 0.45007 0.88246 0.1772 0.0
H615 H 0.44674 0.92292 0.16487 0.0
H616 H 0.54524 0.88494 0.16709 0.0
H617 H 0.53469 0.98139 0.1382 0.0
H618 H 0.45405 0.79588 0.13972 0.0
H619 H 0.45152 0.81124 0.16486 0.0
H620 H 0.49828 0.81122 0.15685 0.0
H621 H 0.4427 0.90732 0.10608 0.0
H622 H 0.48449 0.96163 0.11062 0.0
H623 H 0.44083 0.93862 0.12672 0.0
C624 C 0.64802 0.33261 0.50519 0.0
C625 C 0.64152 0.30944 0.48724 0.0
C626 C 0.68414 0.37228 0.509 0.0
C627 C 0.71552 0.38893 0.49477 0.0
C628 C 0.7092 0.36625 0.47651 0.0
C629 C 0.67174 0.32721 0.47276 0.0
C630 C 0.68939 0.39568 0.52865 0.0
C631 C 0.7428 0.38224 0.46138 0.0
C632 C 0.78206 0.50603 0.50502 0.0
C633 C 0.81137 0.5082 0.5192 0.0
C634 C 0.75314 0.46761 0.49514 0.0
C635 C 0.75412 0.43067 0.49931 0.0
C636 C 0.78739 0.43388 0.5116 0.0
C637 C 0.81561 0.47276 0.5215 0.0
C638 C 0.71798 0.46582 0.48248 0.0
C639 C 0.7919 0.39604 0.51532 0.0
H640 H 0.62573 0.3191 0.51673 0.0
H641 H 0.66699 0.30986 0.45876 0.0
H642 H 0.71663 0.39806 0.53719 0.0
H643 H 0.69622 0.42831 0.52648 0.0
H644 H 0.66077 0.37972 0.53752 0.0
H645 H 0.73356 0.36023 0.44811 0.0
H646 H 0.74932 0.41353 0.45682 0.0
H647 H 0.7728 0.3866 0.46793 0.0
H648 H 0.77837 0.53328 0.50325 0.0
H649 H 0.83888 0.47473 0.53217 0.0
H650 H 0.68886 0.45344 0.49104 0.0
H651 H 0.71062 0.44426 0.46922 0.0
H652 H 0.72607 0.49754 0.47776 0.0
H653 H 0.76077 0.36706 0.51663 0.0
H654 H 0.81157 0.40122 0.52886 0.0
H655 H 0.80794 0.3906 0.50275 0.0
C656 C 0.44242 0.66269 0.79447 0.0
C657 C 0.41336 0.61895 0.79321 0.0
C658 C 0.4286 0.69167 0.79853 0.0
C659 C 0.38553 0.67623 0.80227 0.0
C660 C 0.35559 0.63315 0.79752 0.0
C661 C 0.36995 0.60507 0.7927 0.0
C662 C 0.46033 0.73828 0.80096 0.0
C663 C 0.30883 0.61555 0.80022 0.0
C664 C 0.35152 0.7014 0.8499 0.0
C665 C 0.32265 0.71307 0.84319 0.0
C666 C 0.37693 0.69459 0.8368 0.0
C667 C 0.3736 0.70001 0.81651 0.0
C668 C 0.35025 0.71891 0.81029 0.0
C669 C 0.32483 0.7252 0.82376 0.0
C670 C 0.40275 0.67597 0.84437 0.0
C671 C 0.34832 0.72849 0.78915 0.0
H672 H 0.4761 0.67422 0.79417 0.0
H673 H 0.34723 0.57158 0.79052 0.0
H674 H 0.44833 0.75633 0.79315 0.0
H675 H 0.4647 0.74909 0.81673 0.0
H676 H 0.49151 0.74584 0.79519 0.0
H677 H 0.28956 0.58232 0.79419 0.0
H678 H 0.30287 0.6166 0.81612 0.0
H679 H 0.29791 0.63493 0.79286 0.0
H680 H 0.35072 0.69248 0.86489 0.0
H681 H 0.30386 0.73596 0.81861 0.0
H682 H 0.43568 0.6939 0.83947 0.0
H683 H 0.38886 0.64277 0.83841 0.0
H684 H 0.40387 0.67621 0.86068 0.0
H685 H 0.37441 0.72933 0.78064 0.0
H686 H 0.3497 0.75937 0.78844 0.0
H687 H 0.31764 0.70409 0.78207 0.0
C688 C 0.82291 0.39047 0.15377 0.0
C689 C 0.84091 0.36848 0.16205 0.0
C690 C 0.77982 0.37697 0.15565 0.0
C691 C 0.75484 0.34155 0.16668 0.0
C692 C 0.77311 0.3192 0.17499 0.0
C693 C 0.81582 0.33268 0.17231 0.0
C694 C 0.76191 0.40132 0.14611 0.0
C695 C 0.74784 0.28137 0.18704 0.0
C696 C 0.66031 0.3126 0.19602 0.0
C697 C 0.63428 0.27157 0.18749 0.0
C698 C 0.69862 0.34031 0.18759 0.0
C699 C 0.70964 0.32689 0.16999 0.0
C700 C 0.67862 0.29063 0.159 0.0
C701 C 0.64126 0.26284 0.16799 0.0
C702 C 0.72991 0.38058 0.19903 0.0
C703 C 0.68786 0.27756 0.1392 0.0
H704 H 0.84261 0.41824 0.14581 0.0
H705 H 0.83008 0.31612 0.17887 0.0
H706 H 0.72708 0.38235 0.14351 0.0
H707 H 0.76941 0.42961 0.15577 0.0
H708 H 0.77675 0.41259 0.13185 0.0
H709 H 0.7676 0.26929 0.19337 0.0
H710 H 0.73314 0.28975 0.19929 0.0
H711 H 0.72197 0.25539 0.17772 0.0
H712 H 0.65364 0.32104 0.21045 0.0
H713 H 0.62087 0.23219 0.16058 0.0
H714 H 0.74633 0.4066 0.18902 0.0
H715 H 0.75425 0.37578 0.20646 0.0
H716 H 0.71432 0.39017 0.2104 0.0
H717 H 0.70767 0.30561 0.13072 0.0
H718 H 0.65817 0.256 0.1305 0.0
H719 H 0.70556 0.26065 0.14134 0.0
C720 C 0.13361 0.55247 0.09369 0.0
C721 C 0.11305 0.57158 0.10308 0.0
C722 C 0.13967 0.55489 0.07338 0.0
C723 C 0.12378 0.57596 0.06223 0.0
C724 C 0.10278 0.5951 0.07168 0.0
C725 C 0.09815 0.59313 0.09205 0.0
C726 C 0.16315 0.53503 0.06387 0.0
C727 C 1.08457 0.61703 0.06021 0.0
C728 C 0.16492 0.61399 0.01194 0.0
C729 C 0.1338 0.5814 -0.00063 0.0
C730 C 0.16276 0.61204 0.03245 0.0
C731 C 0.12811 0.5772 0.0406 0.0
C732 C 0.09672 0.54414 0.02807 0.0
C733 C 0.10026 0.54635 0.00764 0.0
C734 C 0.19725 0.64754 0.04539 0.0
C735 C 1.05894 0.50677 0.03623 0.0
H736 H 0.14555 0.53619 0.10227 0.0
H737 H 1.08203 0.60773 0.0993 0.0
H738 H 0.14197 0.50951 0.05288 0.0
H739 H 0.19032 0.55893 0.05591 0.0
H740 H 0.17517 0.52151 0.07476 0.0
H741 H 1.06887 0.63002 0.06978 0.0
H742 H 0.10997 0.64328 0.05244 0.0
H743 H 1.06106 0.59451 0.04886 0.0
H744 H 0.19066 0.6415 0.0058 0.0
H745 H 1.07658 0.52046 -0.00185 0.0
H746 H 0.21029 0.63466 0.0561 0.0
H747 H 0.18395 0.66434 0.05397 0.0
H748 H 0.22359 0.6708 0.03677 0.0
H749 H 1.06961 0.49014 0.04593 0.0
H750 H 1.03716 0.4838 0.02447 0.0
H751 H 1.04099 0.51782 0.04533 0.0
C752 C 0.59282 1.02658 0.42776 0.0
C753 C 0.58438 1.05517 0.43828 0.0
C754 C 0.59422 1.02601 0.40719 0.0
C755 C 0.58636 1.05426 0.39696 0.0
C756 C 0.5771 0.08268 0.40749 0.0
C757 C 0.57655 0.08301 0.42806 0.0
C758 C 0.60482 0.99572 0.39644 0.0
C759 C 0.56799 0.1129 0.39704 0.0
C760 C 0.62781 0.08585 0.34615 0.0
C761 C 0.59143 1.06048 0.33418 0.0
C762 C 0.62695 0.08311 0.3666 0.0
C763 C 0.58858 1.05483 0.37524 0.0
C764 C 0.55193 1.02853 0.36316 0.0
C765 C 0.5539 1.03146 0.34271 0.0
C766 C 0.66685 0.11111 0.37899 0.0
C767 C 0.51033 0.99843 0.37189 0.0
H768 H 0.59914 1.00514 0.43561 0.0
H769 H 0.56977 0.10501 0.43612 0.0
H770 H 0.579 0.97499 0.38555 0.0
H771 H 0.634 1.01365 0.38817 0.0
H772 H 0.60975 0.97555 0.40658 0.0
H773 H 0.55986 0.1319 0.40736 0.0
H774 H 0.59602 0.1348 0.3889 0.0
H775 H 0.54133 0.09515 0.38609 0.0
H776 H 0.6569 0.10803 0.33948 0.0
H777 H 0.52569 1.01213 0.33342 0.0
H778 H 0.67385 0.09181 0.38877 0.0
H779 H 0.66233 0.13377 0.38855 0.0
H780 H 0.69467 0.12928 0.3699 0.0
H781 H 0.51439 0.97704 0.38152 0.0
H782 H 0.48526 0.97897 0.36042 0.0
H783 H 0.49944 1.01654 0.38118 0.0
C784 C 0.60943 0.58305 0.75828 0.0
C785 C 0.63759 0.58319 0.77248 0.0
C786 C 0.61943 0.58702 0.73835 0.0
C787 C 0.65864 0.59171 0.73262 0.0
C788 C 0.687 0.59162 0.74689 0.0
C789 C 0.67604 0.58714 0.76661 0.0
C790 C 0.58824 0.5865 0.72346 0.0
C791 C 0.72929 0.5969 0.7414 0.0
C792 C 0.67759 0.56868 0.68005 0.0
C793 C 0.70059 0.60948 0.67333 0.0
C794 C 0.6623 0.56227 0.69912 0.0
C795 C 0.67077 0.59757 0.71179 0.0
C796 C 0.69348 0.6388 0.70496 0.0
C797 C 0.70793 0.64424 0.68575 0.0
C798 C 0.63777 0.51781 0.70582 0.0
C799 C 0.70362 0.67726 0.71814 0.0
H800 H 0.57962 0.57987 0.76273 0.0
H801 H 0.6981 0.58743 0.77748 0.0
H802 H 0.60268 0.617 0.7163 0.0
H803 H 0.58025 0.56132 0.71173 0.0
H804 H 0.55852 0.58113 0.7302 0.0
H805 H 0.74763 0.59596 0.7543 0.0
H806 H 0.72456 0.57155 0.73036 0.0
H807 H 0.74844 0.6275 0.73459 0.0
H808 H 0.67136 0.54174 0.67034 0.0
H809 H 0.7259 0.67581 0.68058 0.0
H810 H 0.60718 0.5118 0.71173 0.0
H811 H 0.65586 0.51383 0.7179 0.0
H812 H 0.6313 0.49367 0.69374 0.0
H813 H 0.67419 0.67413 0.7242 0.0
H814 H 0.71981 0.70692 0.71029 0.0
H815 H 0.72438 0.67988 0.73079 0.0
C816 C 0.58208 0.09302 0.57359 0.0
C817 C 0.59095 0.06553 0.56238 0.0
C818 C 0.58418 0.09458 0.5943 0.0
C819 C 0.5939 0.06692 0.60402 0.0
C820 C 0.60201 1.03849 0.59271 0.0
C821 C 0.60116 1.03866 0.57207 0.0
C822 C 0.5766 0.12626 0.60576 0.0
C823 C 0.6112 1.00756 0.6024 0.0
C824 C 0.63619 0.0921 0.65736 0.0
C825 C 0.59928 0.0683 0.66758 0.0
C826 C 0.63478 0.09261 0.63672 0.0
C827 C 0.59569 0.06771 0.62601 0.0
C828 C 0.55841 1.04315 0.63634 0.0
C829 C 0.56057 1.04425 0.65701 0.0
C830 C 0.67507 0.12009 0.6264 0.0
C831 C 0.51632 1.01526 0.62553 0.0
H832 H 0.57452 0.11408 0.56617 0.0
H833 H 0.60768 1.01708 0.56345 0.0
H834 H 0.54897 0.10967 0.61511 0.0
H835 H 0.60445 0.14691 0.61571 0.0
H836 H 0.57072 0.14643 0.59603 0.0
H837 H 0.6151 0.98636 0.59151 0.0
H838 H 0.64053 1.02486 0.61185 0.0
H839 H 0.58506 0.98789 0.61205 0.0
H840 H 0.66607 0.11093 0.66558 0.0
H841 H 0.53207 1.02571 0.66495 0.0
H842 H 0.6708 0.142 0.61721 0.0
H843 H 0.68262 0.10022 0.61641 0.0
H844 H 0.70248 0.13896 0.63688 0.0
H845 H 0.50751 1.03466 0.61677 0.0
H846 H 0.49053 0.99729 0.63568 0.0
H847 H 0.51875 0.99249 0.61508 0.0
C848 C 0.57994 0.53676 0.90233 0.0
C849 C 0.60126 0.57592 0.89383 0.0
C850 C 0.57886 0.53424 0.9229 0.0
C851 C 0.5986 0.57181 0.9353 0.0
C852 C 0.61917 0.61144 0.92674 0.0
C853 C 0.62074 0.61299 0.90617 0.0
C854 C 0.55747 0.49134 0.93138 0.0
C855 C 0.63965 0.6523 0.93934 0.0
C856 C 0.56487 0.5675 0.98834 0.0
C857 C 0.59912 0.56942 -0.00103 0.0
C858 C 0.56432 0.56832 0.96771 0.0
C859 C 0.59822 0.56984 0.95721 0.0
C860 C 0.63233 0.57062 0.9677 0.0
C861 C 0.63265 0.57097 0.98838 0.0
C862 C 0.52766 0.56818 0.95717 0.0
C863 C 0.66879 0.5715 0.95709 0.0
H864 H 0.56519 0.50798 0.89289 0.0
H865 H 0.63706 0.64337 0.8997 0.0
H866 H 0.5807 0.48796 0.94062 0.0
H867 H 0.53191 0.48812 0.94104 0.0
H868 H 0.54366 0.46516 0.91979 0.0
H869 H 0.65262 0.68047 0.93042 0.0
H870 H 0.61625 0.65308 0.94933 0.0
H871 H 0.6658 0.65445 0.94869 0.0
H872 H 0.53817 0.56521 -0.0039 0.0
H873 H 0.6597 0.57318 -0.00378 0.0
H874 H 0.51154 0.5403 0.94657 0.0
H875 H 0.5395 0.59673 0.9486 0.0
H876 H 0.50401 0.56753 0.96746 0.0
H877 H 0.65672 0.54501 0.9457 0.0
H878 H 0.69145 0.56916 0.96723 0.0
H879 H 0.68615 0.60127 0.94945 0.0
C880 C 0.1216 0.58866 0.23869 0.0
C881 C 1.08642 0.56203 0.22617 0.0
C882 C 0.11956 0.5862 0.25923 0.0
C883 C 1.08116 0.55694 0.26759 0.0
C884 C 1.0454 0.53024 0.25504 0.0
C885 C 1.04856 0.53282 0.23451 0.0
C886 C 0.15867 0.61477 0.272 0.0
C887 C 1.00366 0.49913 0.26332 0.0
C888 C 1.08559 0.52494 0.31973 0.0
C889 C 1.07648 0.5522 0.331 0.0
C890 C 1.08713 0.52605 0.29911 0.0
C891 C 1.0785 0.55452 0.28945 0.0
C892 C 1.06832 0.58144 0.30076 0.0
C893 C 1.06788 0.58026 0.32138 0.0
C894 C 0.0989 0.49738 0.2877 0.0
C895 C 1.05809 0.61165 0.29109 0.0
H896 H 0.15109 0.61112 0.23241 0.0
H897 H 1.02115 0.51222 0.22499 0.0
H898 H 0.15242 0.6354 0.28215 0.0
H899 H 0.16696 0.59553 0.28119 0.0
H900 H 0.18635 0.63507 0.26322 0.0
H901 H 0.97863 0.48112 0.25164 0.0
H902 H 1.00761 0.47642 0.27203 0.0
H903 H 0.9928 0.51606 0.27344 0.0
H904 H 1.09263 0.50347 0.32711 0.0
H905 H 1.06044 0.60113 0.33002 0.0
H906 H 0.12809 0.51661 0.27964 0.0
H907 H 1.07345 0.47702 0.27659 0.0
H908 H 0.10439 0.47684 0.29736 0.0
H909 H 1.08596 0.63498 0.28331 0.0
H910 H 1.04888 0.62903 0.30186 0.0
H911 H 1.03182 0.59417 0.27992 0.0
loop_
_geom_bond_atom_site_label_1
_geom_bond_atom_site_label_2
_geom_bond_distance
_geom_bond_site_symmetry_2
_ccdc_geom_bond_type
Eu0 C9 2.828 . S
Eu0 O11 2.392 1_655 S
Eu0 O13 2.418 . S
Eu0 O18 2.373 . S
Eu0 O21 2.488 . S
Eu0 O22 2.471 . S
Eu0 O23 2.349 . S
Eu1 O10 2.373 . S
Eu1 O14 2.488 . S
Eu1 O15 2.471 . S
Eu1 O16 2.349 . S
Eu1 O19 2.392 1_455 S
Eu1 O20 2.418 . S
Eu1 C30 2.828 . S
C2 O20 1.244 . S
C2 O23 1.265 1_455 S
C3 C4 1.379 . S
C3 C7 1.373 . S
C3 C9 1.505 . S
C4 C3 1.379 . S
C4 C6 1.369 . S
C4 H32 0.930 . S
C5 C7 1.383 . S
C5 C8 1.382 . S
C5 H33 0.930 . S
C6 C4 1.369 . S
C6 C8 1.392 . S
C6 H34 0.930 . S
C7 C3 1.373 . S
C7 C5 1.383 . S
C7 H35 0.931 . S
C8 C5 1.382 . S
C8 C6 1.392 . S
C9 Eu0 2.828 . S
C9 C3 1.505 . S
C9 O21 1.249 . S
C9 O22 1.244 . S
O10 Eu1 2.373 . S
O10 C12 1.258 . S
O11 Eu0 2.392 1_455 S
O11 C12 1.242 . S
C12 O10 1.258 . S
C12 O11 1.242 . S
O13 Eu0 2.418 . S
O13 C17 1.242 1_655 S
O14 Eu1 2.488 . S
O14 C30 1.249 . S
O15 Eu1 2.471 . S
O15 C30 1.244 . S
O16 Eu1 2.349 . S
O16 C17 1.267 . S
C17 O13 1.242 1_455 S
C17 O16 1.267 . S
O18 Eu0 2.373 . S
O18 C31 1.258 . S
O19 Eu1 2.392 1_655 S
O19 C31 1.242 . S
O20 Eu1 2.418 . S
O20 C2 1.244 . S
O21 Eu0 2.488 . S
O21 C9 1.249 . S
O22 Eu0 2.471 . S
O22 C9 1.244 . S
O23 Eu0 2.349 . S
O23 C2 1.265 1_655 S
C24 C25 1.379 . S
C24 C28 1.373 . S
C24 C30 1.505 . S
C25 C24 1.379 . S
C25 C27 1.369 . S
C25 H36 0.930 . S
C26 C28 1.383 . S
C26 C29 1.382 . S
C26 H37 0.930 . S
C27 C25 1.369 . S
C27 C29 1.392 . S
C27 H38 0.930 . S
C28 C24 1.373 . S
C28 C26 1.383 . S
C28 H39 0.931 . S
C29 C26 1.382 . S
C29 C27 1.392 . S
C30 Eu1 2.828 . S
C30 O14 1.249 . S
C30 O15 1.244 . S
C30 C24 1.505 . S
C31 O18 1.258 . S
C31 O19 1.242 . S
H32 C4 0.930 . S
H33 C5 0.930 . S
H34 C6 0.930 . S
H35 C7 0.931 . S
H36 C25 0.930 . S
H37 C26 0.930 . S
H38 C27 0.930 . S
H39 C28 0.931 . S
Eu40 C49 2.828 . S
Eu40 O51 2.392 1_565 S
Eu40 O53 2.418 . S
Eu40 O58 2.373 . S
Eu40 O61 2.488 . S
Eu40 O62 2.471 . S
Eu40 O63 2.351 . S
Eu41 O50 2.373 . S
Eu41 O54 2.488 . S
Eu41 O55 2.471 . S
Eu41 O56 2.349 . S
Eu41 O59 2.392 1_545 S
Eu41 O60 2.418 . S
Eu41 C70 2.828 . S
C42 O60 1.244 . S
C42 O63 1.263 1_545 S
C43 C44 1.379 . S
C43 C47 1.373 . S
C43 C49 1.505 . S
C44 C43 1.379 . S
C44 C46 1.369 . S
C44 H72 0.930 . S
C45 C47 1.383 . S
C45 C48 1.382 . S
C45 H73 0.930 . S
C46 C44 1.369 . S
C46 C48 1.392 . S
C46 H74 0.930 . S
C47 C43 1.373 . S
C47 C45 1.383 . S
C47 H75 0.931 . S
C48 C45 1.382 . S
C48 C46 1.392 . S
C49 Eu40 2.828 . S
C49 C43 1.505 . S
C49 O61 1.249 . S
C49 O62 1.244 . S
O50 Eu41 2.373 . S
O50 C52 1.258 . S
O51 Eu40 2.392 1_545 S
O51 C52 1.242 . S
C52 O50 1.258 . S
C52 O51 1.242 . S
O53 Eu40 2.418 . S
O53 C57 1.244 1_565 S
O54 Eu41 2.488 . S
O54 C70 1.249 . S
O55 Eu41 2.471 . S
O55 C70 1.244 . S
O56 Eu41 2.349 . S
O56 C57 1.265 . S
C57 O53 1.244 1_545 S
C57 O56 1.265 . S
O58 Eu40 2.373 . S
O58 C71 1.258 . S
O59 Eu41 2.392 1_565 S
O59 C71 1.242 . S
O60 Eu41 2.418 . S
O60 C42 1.244 . S
O61 Eu40 2.488 . S
O61 C49 1.249 . S
O62 Eu40 2.471 . S
O62 C49 1.244 . S
O63 Eu40 2.351 . S
O63 C42 1.263 1_565 S
C64 C65 1.379 . S
C64 C68 1.373 . S
C64 C70 1.505 . S
C65 C64 1.379 . S
C65 C67 1.369 . S
C65 H76 0.930 . S
C66 C68 1.383 . S
C66 C69 1.382 . S
C66 H77 0.930 . S
C67 C65 1.369 . S
C67 C69 1.392 . S
C67 H78 0.930 . S
C68 C64 1.373 . S
C68 C66 1.383 . S
C68 H79 0.931 . S
C69 C66 1.382 . S
C69 C67 1.392 . S
C70 Eu41 2.828 . S
C70 O54 1.249 . S
C70 O55 1.244 . S
C70 C64 1.505 . S
C71 O58 1.258 . S
C71 O59 1.242 . S
H72 C44 0.930 . S
H73 C45 0.930 . S
H74 C46 0.930 . S
H75 C47 0.931 . S
H76 C65 0.930 . S
H77 C66 0.930 . S
H78 C67 0.930 . S
H79 C68 0.931 . S
Eu80 C89 2.828 . S
Eu80 O91 2.392 . S
Eu80 O93 2.418 . S
Eu80 O98 2.373 . S
Eu80 O101 2.488 . S
Eu80 O102 2.471 . S
Eu80 O103 2.349 . S
Eu81 O90 2.373 . S
Eu81 O94 2.488 . S
Eu81 O95 2.471 . S
Eu81 O96 2.349 . S
Eu81 O99 2.392 . S
Eu81 O100 2.418 . S
Eu81 C110 2.828 . S
C82 O100 1.244 . S
C82 O103 1.265 . S
C83 C84 1.379 . S
C83 C87 1.373 . S
C83 C89 1.505 . S
C84 C83 1.379 . S
C84 C86 1.369 . S
C84 H112 0.930 . S
C85 C87 1.383 . S
C85 C88 1.382 . S
C85 H113 0.930 . S
C86 C84 1.369 . S
C86 C88 1.392 . S
C86 H114 0.930 . S
C87 C83 1.373 . S
C87 C85 1.383 . S
C87 H115 0.931 . S
C88 C85 1.382 . S
C88 C86 1.392 . S
C89 Eu80 2.828 . S
C89 C83 1.505 . S
C89 O101 1.249 . S
C89 O102 1.244 . S
O90 Eu81 2.373 . S
O90 C92 1.258 . S
O91 Eu80 2.392 . S
O91 C92 1.242 . S
C92 O90 1.258 . S
C92 O91 1.242 . S
O93 Eu80 2.418 . S
O93 C97 1.244 . S
O94 Eu81 2.488 . S
O94 C110 1.249 . S
O95 Eu81 2.471 . S
O95 C110 1.244 . S
O96 Eu81 2.349 . S
O96 C97 1.265 . S
C97 O93 1.244 . S
C97 O96 1.265 . S
O98 Eu80 2.373 . S
O98 C111 1.258 . S
O99 Eu81 2.392 . S
O99 C111 1.242 . S
O100 Eu81 2.418 . S
O100 C82 1.244 . S
O101 Eu80 2.488 . S
O101 C89 1.249 . S
O102 Eu80 2.471 . S
O102 C89 1.244 . S
O103 Eu80 2.349 . S
O103 C82 1.265 . S
C104 C105 1.379 . S
C104 C108 1.373 . S
C104 C110 1.505 . S
C105 C104 1.379 . S
C105 C107 1.369 . S
C105 H116 0.930 . S
C106 C108 1.383 . S
C106 C109 1.382 . S
C106 H117 0.930 . S
C107 C105 1.369 . S
C107 C109 1.392 . S
C107 H118 0.930 . S
C108 C104 1.373 . S
C108 C106 1.383 . S
C108 H119 0.931 . S
C109 C106 1.382 . S
C109 C107 1.392 . S
C110 Eu81 2.828 . S
C110 O94 1.249 . S
C110 O95 1.244 . S
C110 C104 1.505 . S
C111 O98 1.258 . S
C111 O99 1.242 . S
H112 C84 0.930 . S
H113 C85 0.930 . S
H114 C86 0.930 . S
H115 C87 0.931 . S
H116 C105 0.930 . S
H117 C106 0.930 . S
H118 C107 0.930 . S
H119 C108 0.931 . S
C120 C121 1.384 . S
C120 H133 0.947 . S
C120 C155 1.382 . S
C121 C120 1.384 . S
C121 C122 1.378 . S
C122 C121 1.378 . S
C122 C123 1.378 . S
C122 H134 0.952 . S
C123 C122 1.378 . S
C123 H135 0.950 . S
C123 C154 1.383 . S
H124 C143 0.947 . S
H125 C144 0.946 . S
H126 C146 0.953 . S
H127 C147 0.945 . S
H128 C149 0.952 . S
H129 C150 0.949 . S
H130 C152 0.950 . S
H131 C153 0.948 . S
H132 C155 0.951 . S
H133 C120 0.947 . S
H134 C122 0.952 . S
H135 C123 0.950 . S
N136 C139 1.382 . S
N136 C141 1.363 1_545 S
N137 C139 1.371 . S
N137 C140 1.372 . S
N138 C140 1.361 1_565 S
N138 C141 1.377 . S
C139 N136 1.382 . S
C139 N137 1.371 . S
C139 C142 1.480 . S
C140 N137 1.372 . S
C140 N138 1.361 1_545 S
C140 C148 1.457 . S
C141 N136 1.363 1_565 S
C141 N138 1.377 . S
C141 C154 1.479 . S
C142 C139 1.480 . S
C142 C143 1.383 . S
C142 C147 1.385 . S
C143 H124 0.947 . S
C143 C142 1.383 . S
C143 C144 1.388 . S
C144 H125 0.946 . S
C144 C143 1.388 . S
C144 C145 1.384 . S
C145 C144 1.384 . S
C145 C146 1.377 . S
C146 H126 0.953 . S
C146 C145 1.377 . S
C146 C147 1.369 . S
C147 H127 0.945 . S
C147 C142 1.385 . S
C147 C146 1.369 . S
C148 C140 1.457 . S
C148 C149 1.372 . S
C148 C153 1.364 1_545 S
C149 H128 0.952 . S
C149 C148 1.372 . S
C149 C150 1.389 . S
C150 H129 0.949 . S
C150 C149 1.389 . S
C150 C151 1.387 . S
C151 C150 1.387 . S
C151 C152 1.372 1_545 S
C152 H130 0.950 . S
C152 C151 1.372 1_565 S
C152 C153 1.379 . S
C153 H131 0.948 . S
C153 C148 1.364 1_565 S
C153 C152 1.379 . S
C154 C123 1.383 . S
C154 C141 1.479 . S
C154 C155 1.398 . S
C155 C120 1.382 . S
C155 H132 0.951 . S
C155 C154 1.398 . S
C156 C157 1.384 . S
C156 H169 0.947 . S
C156 C191 1.382 . S
C157 C156 1.384 . S
C157 C158 1.378 . S
C158 C157 1.378 . S
C158 C159 1.378 . S
C158 H170 0.952 . S
C159 C158 1.378 . S
C159 H171 0.950 . S
C159 C190 1.383 . S
H160 C179 0.947 . S
H161 C180 0.946 . S
H162 C182 0.953 . S
H163 C183 0.945 . S
H164 C185 0.952 . S
H165 C186 0.949 . S
H166 C188 0.950 . S
H167 C189 0.948 . S
H168 C191 0.951 . S
H169 C156 0.947 . S
H170 C158 0.952 . S
H171 C159 0.950 . S
N172 C175 1.382 . S
N172 C177 1.363 . S
N173 C175 1.371 . S
N173 C176 1.372 . S
N174 C176 1.361 . S
N174 C177 1.377 . S
C175 N172 1.382 . S
C175 N173 1.371 . S
C175 C178 1.480 . S
C176 N173 1.372 . S
C176 N174 1.361 . S
C176 C184 1.457 . S
C177 N172 1.363 . S
C177 N174 1.377 . S
C177 C190 1.479 . S
C178 C175 1.480 . S
C178 C179 1.383 . S
C178 C183 1.385 . S
C179 H160 0.947 . S
C179 C178 1.383 . S
C179 C180 1.388 . S
C180 H161 0.946 . S
C180 C179 1.388 . S
C180 C181 1.384 . S
C181 C180 1.384 . S
C181 C182 1.377 . S
C182 H162 0.953 . S
C182 C181 1.377 . S
C182 C183 1.369 . S
C183 H163 0.945 . S
C183 C178 1.385 . S
C183 C182 1.369 . S
C184 C176 1.457 . S
C184 C185 1.372 . S
C184 C189 1.364 . S
C185 H164 0.952 . S
C185 C184 1.372 . S
C185 C186 1.389 . S
C186 H165 0.949 . S
C186 C185 1.389 . S
C186 C187 1.387 . S
C187 C186 1.387 . S
C187 C188 1.372 . S
C188 H166 0.950 . S
C188 C187 1.372 . S
C188 C189 1.379 . S
C189 H167 0.948 . S
C189 C184 1.364 . S
C189 C188 1.379 . S
C190 C159 1.383 . S
C190 C177 1.479 . S
C190 C191 1.398 . S
C191 C156 1.382 . S
C191 H168 0.951 . S
C191 C190 1.398 . S
C192 C193 1.384 . S
C192 H205 0.947 . S
C192 C227 1.382 . S
C193 C192 1.384 . S
C193 C194 1.378 . S
C194 C193 1.378 . S
C194 C195 1.378 . S
C194 H206 0.952 . S
C195 C194 1.378 . S
C195 H207 0.950 . S
C195 C226 1.383 . S
H196 C215 0.947 . S
H197 C216 0.946 . S
H198 C218 0.953 . S
H199 C219 0.945 . S
H200 C221 0.952 . S
H201 C222 0.949 . S
H202 C224 0.950 1_655 S
H203 C225 0.943 1_655 S
H204 C227 0.951 . S
H205 C192 0.947 . S
H206 C194 0.952 . S
H207 C195 0.950 . S
N208 C211 1.382 . S
N208 C213 1.363 . S
N209 C211 1.371 . S
N209 C212 1.372 . S
N210 C212 1.361 . S
N210 C213 1.377 . S
C211 N208 1.382 . S
C211 N209 1.371 . S
C211 C214 1.480 . S
C212 N209 1.372 . S
C212 N210 1.361 . S
C212 C220 1.457 . S
C213 N208 1.363 . S
C213 N210 1.377 . S
C213 C226 1.479 1_455 S
C214 C211 1.480 . S
C214 C215 1.383 . S
C214 C219 1.385 . S
C215 H196 0.947 . S
C215 C214 1.383 . S
C215 C216 1.388 . S
C216 H197 0.946 . S
C216 C215 1.388 . S
C216 C217 1.384 . S
C217 C216 1.384 . S
C217 C218 1.377 . S
C218 H198 0.953 . S
C218 C217 1.377 . S
C218 C219 1.369 . S
C219 H199 0.945 . S
C219 C214 1.385 . S
C219 C218 1.369 . S
C220 C212 1.457 . S
C220 C221 1.372 . S
C220 C225 1.369 . S
C221 H200 0.952 . S
C221 C220 1.372 . S
C221 C222 1.389 . S
C222 H201 0.949 . S
C222 C221 1.389 . S
C222 C223 1.387 . S
C223 C222 1.387 . S
C223 C224 1.372 . S
C224 H202 0.950 1_455 S
C224 C223 1.372 . S
C224 C225 1.379 . S
C225 H203 0.943 1_455 S
C225 C220 1.369 . S
C225 C224 1.379 . S
C226 C195 1.383 . S
C226 C213 1.479 1_655 S
C226 C227 1.398 . S
C227 C192 1.382 . S
C227 H204 0.951 . S
C227 C226 1.398 . S
C228 C229 1.384 . S
C228 H241 0.947 . S
C228 C263 1.382 . S
C229 C228 1.384 . S
C229 C230 1.378 . S
C230 C229 1.378 . S
C230 C231 1.378 . S
C230 H242 0.952 . S
C231 C230 1.378 . S
C231 H243 0.950 . S
C231 C262 1.383 . S
H232 C251 0.947 . S
H233 C252 0.946 . S
H234 C254 0.953 . S
H235 C255 0.945 . S
H236 C257 0.952 . S
H237 C258 0.949 . S
H238 C260 0.950 . S
H239 C261 0.948 . S
H240 C263 0.951 . S
H241 C228 0.947 . S
H242 C230 0.952 . S
H243 C231 0.950 . S
N244 C247 1.382 1_455 S
N244 C249 1.363 . S
N245 C247 1.371 . S
N245 C248 1.372 1_655 S
N246 C248 1.361 . S
N246 C249 1.377 . S
C247 N244 1.382 1_655 S
C247 N245 1.371 . S
C247 C250 1.480 . S
C248 N245 1.372 1_455 S
C248 N246 1.361 . S
C248 C256 1.457 . S
C249 N244 1.363 . S
C249 N246 1.377 . S
C249 C262 1.479 . S
C250 C247 1.480 . S
C250 C251 1.383 . S
C250 C255 1.385 . S
C251 H232 0.947 . S
C251 C250 1.383 . S
C251 C252 1.388 . S
C252 H233 0.946 . S
C252 C251 1.388 . S
C252 C253 1.384 . S
C253 C252 1.384 . S
C253 C254 1.377 . S
C254 H234 0.953 . S
C254 C253 1.377 . S
C254 C255 1.369 . S
C255 H235 0.945 . S
C255 C250 1.385 . S
C255 C254 1.369 . S
C256 C248 1.457 . S
C256 C257 1.372 1_455 S
C256 C261 1.364 . S
C257 H236 0.952 . S
C257 C256 1.372 1_655 S
C257 C258 1.389 . S
C258 H237 0.949 . S
C258 C257 1.389 . S
C258 C259 1.387 1_655 S
C259 C258 1.387 1_455 S
C259 C260 1.372 . S
C260 H238 0.950 . S
C260 C259 1.372 . S
C260 C261 1.379 . S
C261 H239 0.948 . S
C261 C256 1.364 . S
C261 C260 1.379 . S
C262 C231 1.383 . S
C262 C249 1.479 . S
C262 C263 1.398 . S
C263 C228 1.382 . S
C263 H240 0.951 . S
C263 C262 1.398 . S
C264 C265 1.384 . S
C264 H277 0.947 . S
C264 C299 1.382 . S
C265 C264 1.384 . S
C265 C266 1.378 . S
C266 C265 1.378 . S
C266 C267 1.378 . S
C266 H278 0.952 . S
C267 C266 1.378 . S
C267 H279 0.950 . S
C267 C298 1.383 . S
H268 C287 0.947 . S
H269 C288 0.946 . S
H270 C290 0.953 . S
H271 C291 0.945 . S
H272 C293 0.952 . S
H273 C294 0.949 . S
H274 C296 0.950 . S
H275 C297 0.948 . S
H276 C299 0.951 . S
H277 C264 0.947 . S
H278 C266 0.952 . S
H279 C267 0.950 . S
N280 C283 1.382 1_545 S
N280 C285 1.363 . S
N281 C283 1.371 . S
N281 C284 1.372 1_565 S
N282 C284 1.361 . S
N282 C285 1.377 . S
C283 N280 1.382 1_565 S
C283 N281 1.371 . S
C283 C286 1.480 . S
C284 N281 1.372 1_545 S
C284 N282 1.361 . S
C284 C292 1.457 . S
C285 N280 1.363 . S
C285 N282 1.377 . S
C285 C298 1.479 . S
C286 C283 1.480 . S
C286 C287 1.383 . S
C286 C291 1.385 . S
C287 H268 0.947 . S
C287 C286 1.383 . S
C287 C288 1.388 . S
C288 H269 0.946 . S
C288 C287 1.388 . S
C288 C289 1.384 . S
C289 C288 1.384 . S
C289 C290 1.377 . S
C290 H270 0.953 . S
C290 C289 1.377 . S
C290 C291 1.369 . S
C291 H271 0.945 . S
C291 C286 1.385 . S
C291 C290 1.369 . S
C292 C284 1.457 . S
C292 C293 1.372 1_545 S
C292 C297 1.364 . S
C293 H272 0.952 . S
C293 C292 1.372 1_565 S
C293 C294 1.389 . S
C294 H273 0.949 . S
C294 C293 1.389 . S
C294 C295 1.387 1_565 S
C295 C294 1.387 1_545 S
C295 C296 1.372 . S
C296 H274 0.950 . S
C296 C295 1.372 . S
C296 C297 1.379 . S
C297 H275 0.948 . S
C297 C292 1.364 . S
C297 C296 1.379 . S
C298 C267 1.383 . S
C298 C285 1.479 . S
C298 C299 1.398 . S
C299 C264 1.382 . S
C299 H276 0.951 . S
C299 C298 1.398 . S
C300 C301 1.384 . S
C300 H313 0.947 . S
C300 C335 1.382 . S
C301 C300 1.384 . S
C301 C302 1.378 . S
C302 C301 1.378 . S
C302 C303 1.378 . S
C302 H314 0.952 . S
C303 C302 1.378 . S
C303 H315 0.950 . S
C303 C334 1.383 . S
H304 C323 0.947 . S
H305 C324 0.946 . S
H306 C326 0.953 . S
H307 C327 0.945 . S
H308 C329 0.952 . S
H309 C330 0.949 . S
H310 C332 0.950 . S
H311 C333 0.948 . S
H312 C335 0.951 . S
H313 C300 0.947 . S
H314 C302 0.952 . S
H315 C303 0.950 . S
N316 C319 1.382 . S
N316 C321 1.363 . S
N317 C319 1.371 . S
N317 C320 1.372 . S
N318 C320 1.361 . S
N318 C321 1.377 . S
C319 N316 1.382 . S
C319 N317 1.371 . S
C319 C322 1.480 . S
C320 N317 1.372 . S
C320 N318 1.361 . S
C320 C328 1.457 . S
C321 N316 1.363 . S
C321 N318 1.377 . S
C321 C334 1.479 . S
C322 C319 1.480 . S
C322 C323 1.383 . S
C322 C327 1.385 . S
C323 H304 0.947 . S
C323 C322 1.383 . S
C323 C324 1.388 . S
C324 H305 0.946 . S
C324 C323 1.388 . S
C324 C325 1.384 . S
C325 C324 1.384 . S
C325 C326 1.377 . S
C326 H306 0.953 . S
C326 C325 1.377 . S
C326 C327 1.369 . S
C327 H307 0.945 . S
C327 C322 1.385 . S
C327 C326 1.369 . S
C328 C320 1.457 . S
C328 C329 1.372 . S
C328 C333 1.364 . S
C329 H308 0.952 . S
C329 C328 1.372 . S
C329 C330 1.389 . S
C330 H309 0.949 . S
C330 C329 1.389 . S
C330 C331 1.387 . S
C331 C330 1.387 . S
C331 C332 1.372 . S
C332 H310 0.950 . S
C332 C331 1.372 . S
C332 C333 1.379 . S
C333 H311 0.948 . S
C333 C328 1.364 . S
C333 C332 1.379 . S
C334 C303 1.383 . S
C334 C321 1.479 . S
C334 C335 1.398 . S
C335 C300 1.382 . S
C335 H312 0.951 . S
C335 C334 1.398 . S
C336 C337 1.391 . S
C336 C338 1.394 . S
C336 H352 0.931 . S
C337 C336 1.391 . S
C337 C341 1.376 . S
C338 C336 1.394 . S
C338 C339 1.369 . S
C338 C342 1.531 . S
C339 C338 1.369 . S
C339 C340 1.410 . S
C339 C347 1.503 . S
C340 C339 1.410 . S
C340 C341 1.392 . S
C340 C343 1.511 . S
C341 C337 1.376 . S
C341 C340 1.392 . S
C341 H353 0.929 . S
C342 C338 1.531 . S
C342 H354 0.960 . S
C342 H355 0.962 . S
C342 H356 0.960 . S
C343 C340 1.511 . S
C343 H357 0.961 . S
C343 H358 0.961 . S
C343 H359 0.961 . S
C344 C345 1.370 . S
C344 C346 1.363 . S
C344 H360 0.931 . S
C345 C344 1.370 . S
C345 C349 1.408 . S
C346 C344 1.363 . S
C346 C347 1.370 . S
C346 C350 1.524 . S
C347 C339 1.503 . S
C347 C346 1.370 . S
C347 C348 1.403 . S
C348 C347 1.403 . S
C348 C349 1.404 . S
C348 C351 1.539 . S
C349 C345 1.408 . S
C349 C348 1.404 . S
C349 H361 0.930 . S
C350 C346 1.524 . S
C350 H362 0.956 . S
C350 H363 0.961 . S
C350 H364 0.961 . S
C351 C348 1.539 . S
C351 H365 0.958 . S
C351 H366 0.961 . S
C351 H367 0.960 . S
H352 C336 0.931 . S
H353 C341 0.929 . S
H354 C342 0.960 . S
H355 C342 0.962 . S
H356 C342 0.960 . S
H357 C343 0.961 . S
H358 C343 0.961 . S
H359 C343 0.961 . S
H360 C344 0.931 . S
H361 C349 0.930 . S
H362 C350 0.956 . S
H363 C350 0.961 . S
H364 C350 0.961 . S
H365 C351 0.958 . S
H366 C351 0.961 . S
H367 C351 0.960 . S
C368 C369 1.391 . S
C368 C370 1.394 . S
C368 H384 0.931 . S
C369 C368 1.391 . S
C369 C373 1.376 . S
C370 C368 1.394 . S
C370 C371 1.369 . S
C370 C374 1.531 . S
C371 C370 1.369 . S
C371 C372 1.410 . S
C371 C379 1.503 . S
C372 C371 1.410 . S
C372 C373 1.392 . S
C372 C375 1.511 . S
C373 C369 1.376 . S
C373 C372 1.392 . S
C373 H385 0.929 . S
C374 C370 1.531 . S
C374 H386 0.960 . S
C374 H387 0.962 . S
C374 H388 0.960 . S
C375 C372 1.511 . S
C375 H389 0.961 . S
C375 H390 0.961 . S
C375 H391 0.961 . S
C376 C377 1.370 . S
C376 C378 1.363 . S
C376 H392 0.931 . S
C377 C376 1.370 . S
C377 C381 1.408 . S
C378 C376 1.363 . S
C378 C379 1.370 . S
C378 C382 1.524 . S
C379 C371 1.503 . S
C379 C378 1.370 . S
C379 C380 1.403 . S
C380 C379 1.403 . S
C380 C381 1.404 . S
C380 C383 1.539 . S
C381 C377 1.408 . S
C381 C380 1.404 . S
C381 H393 0.930 . S
C382 C378 1.524 . S
C382 H394 0.956 . S
C382 H395 0.961 . S
C382 H396 0.961 . S
C383 C380 1.539 . S
C383 H397 0.958 . S
C383 H398 0.961 . S
C383 H399 0.960 . S
H384 C368 0.931 . S
H385 C373 0.929 . S
H386 C374 0.960 . S
H387 C374 0.962 . S
H388 C374 0.960 . S
H389 C375 0.961 . S
H390 C375 0.961 . S
H391 C375 0.961 . S
H392 C376 0.931 . S
H393 C381 0.930 . S
H394 C382 0.956 . S
H395 C382 0.961 . S
H396 C382 0.961 . S
H397 C383 0.958 . S
H398 C383 0.961 . S
H399 C383 0.960 . S
C400 C401 1.391 . S
C400 C402 1.394 . S
C400 H416 0.931 . S
C401 C400 1.391 . S
C401 C405 1.376 . S
C402 C400 1.394 . S
C402 C403 1.369 . S
C402 C406 1.531 . S
C403 C402 1.369 . S
C403 C404 1.410 . S
C403 C411 1.503 . S
C404 C403 1.410 . S
C404 C405 1.392 . S
C404 C407 1.511 . S
C405 C401 1.376 . S
C405 C404 1.392 . S
C405 H417 0.929 . S
C406 C402 1.531 . S
C406 H418 0.960 . S
C406 H419 0.962 . S
C406 H420 0.960 . S
C407 C404 1.511 . S
C407 H421 0.961 . S
C407 H422 0.961 . S
C407 H423 0.961 . S
C408 C409 1.370 . S
C408 C410 1.363 . S
C408 H424 0.931 . S
C409 C408 1.370 . S
C409 C413 1.408 . S
C410 C408 1.363 . S
C410 C411 1.370 . S
C410 C414 1.524 . S
C411 C403 1.503 . S
C411 C410 1.370 . S
C411 C412 1.403 . S
C412 C411 1.403 . S
C412 C413 1.404 . S
C412 C415 1.539 . S
C413 C409 1.408 . S
C413 C412 1.404 . S
C413 H425 0.930 . S
C414 C410 1.524 . S
C414 H426 0.956 . S
C414 H427 0.961 . S
C414 H428 0.961 . S
C415 C412 1.539 . S
C415 H429 0.958 . S
C415 H430 0.961 . S
C415 H431 0.960 . S
H416 C400 0.931 . S
H417 C405 0.929 . S
H418 C406 0.960 . S
H419 C406 0.962 . S
H420 C406 0.960 . S
H421 C407 0.961 . S
H422 C407 0.961 . S
H423 C407 0.961 . S
H424 C408 0.931 . S
H425 C413 0.930 . S
H426 C414 0.956 . S
H427 C414 0.961 . S
H428 C414 0.961 . S
H429 C415 0.958 . S
H430 C415 0.961 . S
H431 C415 0.960 . S
C432 C433 1.391 . S
C432 C434 1.394 . S
C432 H448 0.931 . S
C433 C432 1.391 . S
C433 C437 1.376 . S
C434 C432 1.394 . S
C434 C435 1.369 . S
C434 C438 1.531 . S
C435 C434 1.369 . S
C435 C436 1.410 . S
C435 C443 1.503 . S
C436 C435 1.410 . S
C436 C437 1.392 . S
C436 C439 1.511 . S
C437 C433 1.376 . S
C437 C436 1.392 . S
C437 H449 0.929 . S
C438 C434 1.531 . S
C438 H450 0.960 . S
C438 H451 0.962 . S
C438 H452 0.960 . S
C439 C436 1.511 . S
C439 H453 0.961 . S
C439 H454 0.961 . S
C439 H455 0.961 . S
C440 C441 1.370 . S
C440 C442 1.363 . S
C440 H456 0.931 . S
C441 C440 1.370 . S
C441 C445 1.408 . S
C442 C440 1.363 . S
C442 C443 1.370 . S
C442 C446 1.524 . S
C443 C435 1.503 . S
C443 C442 1.370 . S
C443 C444 1.403 . S
C444 C443 1.403 . S
C444 C445 1.404 . S
C444 C447 1.539 . S
C445 C441 1.408 . S
C445 C444 1.404 . S
C445 H457 0.930 . S
C446 C442 1.524 . S
C446 H458 0.956 . S
C446 H459 0.961 . S
C446 H460 0.961 . S
C447 C444 1.539 . S
C447 H461 0.958 . S
C447 H462 0.961 . S
C447 H463 0.960 . S
H448 C432 0.931 . S
H449 C437 0.929 . S
H450 C438 0.960 . S
H451 C438 0.962 . S
H452 C438 0.960 . S
H453 C439 0.961 . S
H454 C439 0.961 . S
H455 C439 0.961 . S
H456 C440 0.931 . S
H457 C445 0.930 . S
H458 C446 0.956 . S
H459 C446 0.961 . S
H460 C446 0.961 . S
H461 C447 0.958 . S
H462 C447 0.961 . S
H463 C447 0.960 . S
C464 C465 1.391 . S
C464 C466 1.394 . S
C464 H480 0.931 . S
C465 C464 1.391 . S
C465 C469 1.376 . S
C466 C464 1.394 . S
C466 C467 1.369 . S
C466 C470 1.531 . S
C467 C466 1.369 . S
C467 C468 1.410 . S
C467 C475 1.503 . S
C468 C467 1.410 . S
C468 C469 1.392 . S
C468 C471 1.511 . S
C469 C465 1.376 . S
C469 C468 1.392 . S
C469 H481 0.929 . S
C470 C466 1.531 . S
C470 H482 0.960 . S
C470 H483 0.962 . S
C470 H484 0.960 . S
C471 C468 1.511 . S
C471 H485 0.961 . S
C471 H486 0.961 . S
C471 H487 0.961 . S
C472 C473 1.370 . S
C472 C474 1.363 . S
C472 H488 0.931 . S
C473 C472 1.370 . S
C473 C477 1.408 . S
C474 C472 1.363 . S
C474 C475 1.370 . S
C474 C478 1.524 . S
C475 C467 1.503 . S
C475 C474 1.370 . S
C475 C476 1.403 . S
C476 C475 1.403 . S
C476 C477 1.404 . S
C476 C479 1.539 . S
C477 C473 1.408 . S
C477 C476 1.404 . S
C477 H489 0.930 . S
C478 C474 1.524 . S
C478 H490 0.956 . S
C478 H491 0.961 . S
C478 H492 0.961 . S
C479 C476 1.539 . S
C479 H493 0.958 . S
C479 H494 0.961 . S
C479 H495 0.960 . S
H480 C464 0.931 . S
H481 C469 0.929 . S
H482 C470 0.960 . S
H483 C470 0.962 . S
H484 C470 0.960 . S
H485 C471 0.961 . S
H486 C471 0.961 . S
H487 C471 0.961 . S
H488 C472 0.931 . S
H489 C477 0.930 . S
H490 C478 0.956 . S
H491 C478 0.961 . S
H492 C478 0.961 . S
H493 C479 0.958 . S
H494 C479 0.961 . S
H495 C479 0.960 . S
C496 C497 1.391 . S
C496 C498 1.394 . S
C496 H512 0.931 . S
C497 C496 1.391 . S
C497 C501 1.376 . S
C498 C496 1.394 . S
C498 C499 1.369 . S
C498 C502 1.531 . S
C499 C498 1.369 . S
C499 C500 1.410 . S
C499 C507 1.503 . S
C500 C499 1.410 . S
C500 C501 1.392 . S
C500 C503 1.511 . S
C501 C497 1.376 . S
C501 C500 1.392 . S
C501 H513 0.929 . S
C502 C498 1.531 . S
C502 H514 0.960 . S
C502 H515 0.962 . S
C502 H516 0.960 . S
C503 C500 1.511 . S
C503 H517 0.961 . S
C503 H518 0.961 . S
C503 H519 0.961 . S
C504 C505 1.370 . S
C504 C506 1.363 . S
C504 H520 0.931 . S
C505 C504 1.370 . S
C505 C509 1.408 . S
C506 C504 1.363 . S
C506 C507 1.370 . S
C506 C510 1.524 . S
C507 C499 1.503 . S
C507 C506 1.370 . S
C507 C508 1.403 . S
C508 C507 1.403 . S
C508 C509 1.404 . S
C508 C511 1.539 . S
C509 C505 1.408 . S
C509 C508 1.404 . S
C509 H521 0.930 . S
C510 C506 1.524 . S
C510 H522 0.956 . S
C510 H523 0.961 . S
C510 H524 0.961 . S
C511 C508 1.539 . S
C511 H525 0.958 . S
C511 H526 0.961 . S
C511 H527 0.960 . S
H512 C496 0.931 . S
H513 C501 0.929 . S
H514 C502 0.960 . S
H515 C502 0.962 . S
H516 C502 0.960 . S
H517 C503 0.961 . S
H518 C503 0.961 . S
H519 C503 0.961 . S
H520 C504 0.931 . S
H521 C509 0.930 . S
H522 C510 0.956 . S
H523 C510 0.961 . S
H524 C510 0.961 . S
H525 C511 0.958 . S
H526 C511 0.961 . S
H527 C511 0.960 . S
C528 C529 1.391 . S
C528 C530 1.394 . S
C528 H544 0.931 . S
C529 C528 1.391 . S
C529 C533 1.376 . S
C530 C528 1.394 . S
C530 C531 1.369 . S
C530 C534 1.531 . S
C531 C530 1.369 . S
C531 C532 1.410 . S
C531 C539 1.503 . S
C532 C531 1.410 . S
C532 C533 1.392 . S
C532 C535 1.511 . S
C533 C529 1.376 . S
C533 C532 1.392 . S
C533 H545 0.929 . S
C534 C530 1.531 . S
C534 H546 0.960 . S
C534 H547 0.962 . S
C534 H548 0.960 . S
C535 C532 1.511 . S
C535 H549 0.961 . S
C535 H550 0.961 . S
C535 H551 0.961 . S
C536 C537 1.370 . S
C536 C538 1.363 . S
C536 H552 0.931 . S
C537 C536 1.370 . S
C537 C541 1.408 . S
C538 C536 1.363 . S
C538 C539 1.370 . S
C538 C542 1.524 . S
C539 C531 1.503 . S
C539 C538 1.370 . S
C539 C540 1.403 . S
C540 C539 1.403 . S
C540 C541 1.404 . S
C540 C543 1.539 . S
C541 C537 1.408 . S
C541 C540 1.404 . S
C541 H553 0.930 . S
C542 C538 1.524 . S
C542 H554 0.956 . S
C542 H555 0.961 . S
C542 H556 0.961 . S
C543 C540 1.539 . S
C543 H557 0.958 . S
C543 H558 0.961 . S
C543 H559 0.960 . S
H544 C528 0.931 . S
H545 C533 0.929 . S
H546 C534 0.960 . S
H547 C534 0.962 . S
H548 C534 0.960 . S
H549 C535 0.961 . S
H550 C535 0.961 . S
H551 C535 0.961 . S
H552 C536 0.931 . S
H553 C541 0.930 . S
H554 C542 0.956 . S
H555 C542 0.961 . S
H556 C542 0.961 . S
H557 C543 0.958 . S
H558 C543 0.961 . S
H559 C543 0.960 . S
C560 C561 1.391 . S
C560 C562 1.394 . S
C560 H576 0.931 . S
C561 C560 1.391 . S
C561 C565 1.376 . S
C562 C560 1.394 . S
C562 C563 1.369 . S
C562 C566 1.531 . S
C563 C562 1.369 . S
C563 C564 1.410 . S
C563 C571 1.503 . S
C564 C563 1.410 . S
C564 C565 1.392 . S
C564 C567 1.511 . S
C565 C561 1.376 . S
C565 C564 1.392 . S
C565 H577 0.929 . S
C566 C562 1.531 . S
C566 H578 0.960 . S
C566 H579 0.962 . S
C566 H580 0.960 . S
C567 C564 1.511 . S
C567 H581 0.961 . S
C567 H582 0.961 . S
C567 H583 0.961 . S
C568 C569 1.370 . S
C568 C570 1.363 . S
C568 H584 0.931 . S
C569 C568 1.370 . S
C569 C573 1.408 . S
C570 C568 1.363 . S
C570 C571 1.370 . S
C570 C574 1.524 . S
C571 C563 1.503 . S
C571 C570 1.370 . S
C571 C572 1.403 . S
C572 C571 1.403 . S
C572 C573 1.404 . S
C572 C575 1.539 . S
C573 C569 1.408 . S
C573 C572 1.404 . S
C573 H585 0.930 . S
C574 C570 1.524 . S
C574 H586 0.956 . S
C574 H587 0.961 . S
C574 H588 0.961 . S
C575 C572 1.539 . S
C575 H589 0.958 . S
C575 H590 0.961 . S
C575 H591 0.960 . S
H576 C560 0.931 . S
H577 C565 0.929 . S
H578 C566 0.960 . S
H579 C566 0.962 . S
H580 C566 0.960 . S
H581 C567 0.961 . S
H582 C567 0.961 . S
H583 C567 0.961 . S
H584 C568 0.931 . S
H585 C573 0.930 . S
H586 C574 0.956 . S
H587 C574 0.961 . S
H588 C574 0.961 . S
H589 C575 0.958 . S
H590 C575 0.961 . S
H591 C575 0.960 . S
C592 C593 1.391 . S
C592 C594 1.394 . S
C592 H608 0.931 . S
C593 C592 1.391 . S
C593 C597 1.376 . S
C594 C592 1.394 . S
C594 C595 1.369 . S
C594 C598 1.531 . S
C595 C594 1.369 . S
C595 C596 1.410 . S
C595 C603 1.503 . S
C596 C595 1.410 . S
C596 C597 1.392 . S
C596 C599 1.511 . S
C597 C593 1.376 . S
C597 C596 1.392 . S
C597 H609 0.929 . S
C598 C594 1.531 . S
C598 H610 0.960 . S
C598 H611 0.962 . S
C598 H612 0.960 . S
C599 C596 1.511 . S
C599 H613 0.961 . S
C599 H614 0.961 . S
C599 H615 0.961 . S
C600 C601 1.370 . S
C600 C602 1.363 . S
C600 H616 0.931 . S
C601 C600 1.370 . S
C601 C605 1.408 . S
C602 C600 1.363 . S
C602 C603 1.370 . S
C602 C606 1.524 . S
C603 C595 1.503 . S
C603 C602 1.370 . S
C603 C604 1.403 . S
C604 C603 1.403 . S
C604 C605 1.404 . S
C604 C607 1.539 . S
C605 C601 1.408 . S
C605 C604 1.404 . S
C605 H617 0.930 . S
C606 C602 1.524 . S
C606 H618 0.956 . S
C606 H619 0.961 . S
C606 H620 0.961 . S
C607 C604 1.539 . S
C607 H621 0.958 . S
C607 H622 0.961 . S
C607 H623 0.960 . S
H608 C592 0.931 . S
H609 C597 0.929 . S
H610 C598 0.960 . S
H611 C598 0.962 . S
H612 C598 0.960 . S
H613 C599 0.961 . S
H614 C599 0.961 . S
H615 C599 0.961 . S
H616 C600 0.931 . S
H617 C605 0.930 . S
H618 C606 0.956 . S
H619 C606 0.961 . S
H620 C606 0.961 . S
H621 C607 0.958 . S
H622 C607 0.961 . S
H623 C607 0.960 . S
C624 C625 1.391 . S
C624 C626 1.394 . S
C624 H640 0.931 . S
C625 C624 1.391 . S
C625 C629 1.376 . S
C626 C624 1.394 . S
C626 C627 1.369 . S
C626 C630 1.531 . S
C627 C626 1.369 . S
C627 C628 1.410 . S
C627 C635 1.503 . S
C628 C627 1.410 . S
C628 C629 1.392 . S
C628 C631 1.511 . S
C629 C625 1.376 . S
C629 C628 1.392 . S
C629 H641 0.929 . S
C630 C626 1.531 . S
C630 H642 0.960 . S
C630 H643 0.962 . S
C630 H644 0.960 . S
C631 C628 1.511 . S
C631 H645 0.961 . S
C631 H646 0.961 . S
C631 H647 0.961 . S
C632 C633 1.370 . S
C632 C634 1.363 . S
C632 H648 0.931 . S
C633 C632 1.370 . S
C633 C637 1.408 . S
C634 C632 1.363 . S
C634 C635 1.370 . S
C634 C638 1.524 . S
C635 C627 1.503 . S
C635 C634 1.370 . S
C635 C636 1.403 . S
C636 C635 1.403 . S
C636 C637 1.404 . S
C636 C639 1.539 . S
C637 C633 1.408 . S
C637 C636 1.404 . S
C637 H649 0.930 . S
C638 C634 1.524 . S
C638 H650 0.956 . S
C638 H651 0.961 . S
C638 H652 0.961 . S
C639 C636 1.539 . S
C639 H653 0.958 . S
C639 H654 0.961 . S
C639 H655 0.960 . S
H640 C624 0.931 . S
H641 C629 0.929 . S
H642 C630 0.960 . S
H643 C630 0.962 . S
H644 C630 0.960 . S
H645 C631 0.961 . S
H646 C631 0.961 . S
H647 C631 0.961 . S
H648 C632 0.931 . S
H649 C637 0.930 . S
H650 C638 0.956 . S
H651 C638 0.961 . S
H652 C638 0.961 . S
H653 C639 0.958 . S
H654 C639 0.961 . S
H655 C639 0.960 . S
C656 C657 1.391 . S
C656 C658 1.394 . S
C656 H672 0.931 . S
C657 C656 1.391 . S
C657 C661 1.376 . S
C658 C656 1.394 . S
C658 C659 1.369 . S
C658 C662 1.531 . S
C659 C658 1.369 . S
C659 C660 1.410 . S
C659 C667 1.503 . S
C660 C659 1.410 . S
C660 C661 1.392 . S
C660 C663 1.511 . S
C661 C657 1.376 . S
C661 C660 1.392 . S
C661 H673 0.929 . S
C662 C658 1.531 . S
C662 H674 0.960 . S
C662 H675 0.962 . S
C662 H676 0.960 . S
C663 C660 1.511 . S
C663 H677 0.961 . S
C663 H678 0.961 . S
C663 H679 0.961 . S
C664 C665 1.370 . S
C664 C666 1.363 . S
C664 H680 0.931 . S
C665 C664 1.370 . S
C665 C669 1.408 . S
C666 C664 1.363 . S
C666 C667 1.370 . S
C666 C670 1.524 . S
C667 C659 1.503 . S
C667 C666 1.370 . S
C667 C668 1.403 . S
C668 C667 1.403 . S
C668 C669 1.404 . S
C668 C671 1.539 . S
C669 C665 1.408 . S
C669 C668 1.404 . S
C669 H681 0.930 . S
C670 C666 1.524 . S
C670 H682 0.956 . S
C670 H683 0.961 . S
C670 H684 0.961 . S
C671 C668 1.539 . S
C671 H685 0.958 . S
C671 H686 0.961 . S
C671 H687 0.960 . S
H672 C656 0.931 . S
H673 C661 0.929 . S
H674 C662 0.960 . S
H675 C662 0.962 . S
H676 C662 0.960 . S
H677 C663 0.961 . S
H678 C663 0.961 . S
H679 C663 0.961 . S
H680 C664 0.931 . S
H681 C669 0.930 . S
H682 C670 0.956 . S
H683 C670 0.961 . S
H684 C670 0.961 . S
H685 C671 0.958 . S
H686 C671 0.961 . S
H687 C671 0.960 . S
C688 C689 1.391 . S
C688 C690 1.394 . S
C688 H704 0.931 . S
C689 C688 1.391 . S
C689 C693 1.376 . S
C690 C688 1.394 . S
C690 C691 1.369 . S
C690 C694 1.531 . S
C691 C690 1.369 . S
C691 C692 1.410 . S
C691 C699 1.503 . S
C692 C691 1.410 . S
C692 C693 1.392 . S
C692 C695 1.511 . S
C693 C689 1.376 . S
C693 C692 1.392 . S
C693 H705 0.929 . S
C694 C690 1.531 . S
C694 H706 0.960 . S
C694 H707 0.962 . S
C694 H708 0.960 . S
C695 C692 1.511 . S
C695 H709 0.961 . S
C695 H710 0.961 . S
C695 H711 0.961 . S
C696 C697 1.370 . S
C696 C698 1.363 . S
C696 H712 0.931 . S
C697 C696 1.370 . S
C697 C701 1.408 . S
C698 C696 1.363 . S
C698 C699 1.370 . S
C698 C702 1.524 . S
C699 C691 1.503 . S
C699 C698 1.370 . S
C699 C700 1.403 . S
C700 C699 1.403 . S
C700 C701 1.404 . S
C700 C703 1.539 . S
C701 C697 1.408 . S
C701 C700 1.404 . S
C701 H713 0.930 . S
C702 C698 1.524 . S
C702 H714 0.956 . S
C702 H715 0.961 . S
C702 H716 0.961 . S
C703 C700 1.539 . S
C703 H717 0.958 . S
C703 H718 0.961 . S
C703 H719 0.960 . S
H704 C688 0.931 . S
H705 C693 0.929 . S
H706 C694 0.960 . S
H707 C694 0.962 . S
H708 C694 0.960 . S
H709 C695 0.961 . S
H710 C695 0.961 . S
H711 C695 0.961 . S
H712 C696 0.931 . S
H713 C701 0.930 . S
H714 C702 0.956 . S
H715 C702 0.961 . S
H716 C702 0.961 . S
H717 C703 0.958 . S
H718 C703 0.961 . S
H719 C703 0.960 . S
C720 C721 1.391 . S
C720 C722 1.394 . S
C720 H736 0.931 . S
C721 C720 1.391 . S
C721 C725 1.376 1_455 S
C722 C720 1.394 . S
C722 C723 1.369 . S
C722 C726 1.531 . S
C723 C722 1.369 . S
C723 C724 1.410 1_455 S
C723 C731 1.503 . S
C724 C723 1.410 1_655 S
C724 C725 1.392 . S
C724 C727 1.511 . S
C725 C721 1.376 1_655 S
C725 C724 1.392 . S
C725 H737 0.929 . S
C726 C722 1.531 . S
C726 H738 0.960 . S
C726 H739 0.962 . S
C726 H740 0.960 . S
C727 C724 1.511 . S
C727 H741 0.961 . S
C727 H742 0.961 . S
C727 H743 0.961 . S
C728 C729 1.370 . S
C728 C730 1.363 . S
C728 H744 0.931 . S
C729 C728 1.370 . S
C729 C733 1.408 . S
C730 C728 1.363 . S
C730 C731 1.370 . S
C730 C734 1.524 . S
C731 C723 1.503 . S
C731 C730 1.370 . S
C731 C732 1.403 1_455 S
C732 C731 1.403 1_655 S
C732 C733 1.404 1_655 S
C732 C735 1.539 . S
C733 C729 1.408 . S
C733 C732 1.404 1_455 S
C733 H745 0.930 1_455 S
C734 C730 1.524 . S
C734 H746 0.956 . S
C734 H747 0.961 . S
C734 H748 0.961 . S
C735 C732 1.539 . S
C735 H749 0.958 . S
C735 H750 0.961 . S
C735 H751 0.960 . S
H736 C720 0.931 . S
H737 C725 0.929 . S
H738 C726 0.960 . S
H739 C726 0.962 . S
H740 C726 0.960 . S
H741 C727 0.961 . S
H742 C727 0.961 . S
H743 C727 0.961 . S
H744 C728 0.931 . S
H745 C733 0.930 1_655 S
H746 C734 0.956 . S
H747 C734 0.961 . S
H748 C734 0.961 . S
H749 C735 0.958 . S
H750 C735 0.961 . S
H751 C735 0.960 . S
C752 C753 1.391 1_565 S
C752 C754 1.394 . S
C752 H768 0.931 . S
C753 C752 1.391 1_545 S
C753 C757 1.376 . S
C754 C752 1.394 . S
C754 C755 1.369 1_565 S
C754 C758 1.531 . S
C755 C754 1.369 1_545 S
C755 C756 1.410 . S
C755 C763 1.503 . S
C756 C755 1.410 . S
C756 C757 1.392 . S
C756 C759 1.511 . S
C757 C753 1.376 . S
C757 C756 1.392 . S
C757 H769 0.929 . S
C758 C754 1.531 . S
C758 H770 0.960 . S
C758 H771 0.962 . S
C758 H772 0.960 . S
C759 C756 1.511 . S
C759 H773 0.961 . S
C759 H774 0.961 . S
C759 H775 0.961 . S
C760 C761 1.370 . S
C760 C762 1.363 . S
C760 H776 0.931 . S
C761 C760 1.370 . S
C761 C765 1.408 1_545 S
C762 C760 1.363 . S
C762 C763 1.370 . S
C762 C766 1.524 . S
C763 C755 1.503 . S
C763 C762 1.370 . S
C763 C764 1.403 1_545 S
C764 C763 1.403 1_565 S
C764 C765 1.404 . S
C764 C767 1.539 . S
C765 C761 1.408 1_565 S
C765 C764 1.404 . S
C765 H777 0.930 . S
C766 C762 1.524 . S
C766 H778 0.956 . S
C766 H779 0.961 . S
C766 H780 0.961 . S
C767 C764 1.539 . S
C767 H781 0.958 . S
C767 H782 0.961 . S
C767 H783 0.960 . S
H768 C752 0.931 . S
H769 C757 0.929 . S
H770 C758 0.960 . S
H771 C758 0.962 . S
H772 C758 0.960 . S
H773 C759 0.961 . S
H774 C759 0.961 . S
H775 C759 0.961 . S
H776 C760 0.931 . S
H777 C765 0.930 . S
H778 C766 0.956 . S
H779 C766 0.961 . S
H780 C766 0.961 . S
H781 C767 0.958 . S
H782 C767 0.961 . S
H783 C767 0.960 . S
C784 C785 1.391 . S
C784 C786 1.394 . S
C784 H800 0.931 . S
C785 C784 1.391 . S
C785 C789 1.376 . S
C786 C784 1.394 . S
C786 C787 1.369 . S
C786 C790 1.531 . S
C787 C786 1.369 . S
C787 C788 1.410 . S
C787 C795 1.503 . S
C788 C787 1.410 . S
C788 C789 1.392 . S
C788 C791 1.511 . S
C789 C785 1.376 . S
C789 C788 1.392 . S
C789 H801 0.929 . S
C790 C786 1.531 . S
C790 H802 0.960 . S
C790 H803 0.962 . S
C790 H804 0.960 . S
C791 C788 1.511 . S
C791 H805 0.961 . S
C791 H806 0.961 . S
C791 H807 0.961 . S
C792 C793 1.370 . S
C792 C794 1.363 . S
C792 H808 0.931 . S
C793 C792 1.370 . S
C793 C797 1.408 . S
C794 C792 1.363 . S
C794 C795 1.370 . S
C794 C798 1.524 . S
C795 C787 1.503 . S
C795 C794 1.370 . S
C795 C796 1.403 . S
C796 C795 1.403 . S
C796 C797 1.404 . S
C796 C799 1.539 . S
C797 C793 1.408 . S
C797 C796 1.404 . S
C797 H809 0.930 . S
C798 C794 1.524 . S
C798 H810 0.956 . S
C798 H811 0.961 . S
C798 H812 0.961 . S
C799 C796 1.539 . S
C799 H813 0.958 . S
C799 H814 0.961 . S
C799 H815 0.960 . S
H800 C784 0.931 . S
H801 C789 0.929 . S
H802 C790 0.960 . S
H803 C790 0.962 . S
H804 C790 0.960 . S
H805 C791 0.961 . S
H806 C791 0.961 . S
H807 C791 0.961 . S
H808 C792 0.931 . S
H809 C797 0.930 . S
H810 C798 0.956 . S
H811 C798 0.961 . S
H812 C798 0.961 . S
H813 C799 0.958 . S
H814 C799 0.961 . S
H815 C799 0.960 . S
C816 C817 1.391 . S
C816 C818 1.394 . S
C816 H832 0.931 . S
C817 C816 1.391 . S
C817 C821 1.376 1_545 S
C818 C816 1.394 . S
C818 C819 1.369 . S
C818 C822 1.531 . S
C819 C818 1.369 . S
C819 C820 1.410 1_545 S
C819 C827 1.503 . S
C820 C819 1.410 1_565 S
C820 C821 1.392 . S
C820 C823 1.511 . S
C821 C817 1.376 1_565 S
C821 C820 1.392 . S
C821 H833 0.929 . S
C822 C818 1.531 . S
C822 H834 0.960 . S
C822 H835 0.962 . S
C822 H836 0.960 . S
C823 C820 1.511 . S
C823 H837 0.961 . S
C823 H838 0.961 . S
C823 H839 0.961 . S
C824 C825 1.370 . S
C824 C826 1.363 . S
C824 H840 0.931 . S
C825 C824 1.370 . S
C825 C829 1.408 . S
C826 C824 1.363 . S
C826 C827 1.370 . S
C826 C830 1.524 . S
C827 C819 1.503 . S
C827 C826 1.370 . S
C827 C828 1.403 . S
C828 C827 1.403 . S
C828 C829 1.404 . S
C828 C831 1.539 . S
C829 C825 1.408 . S
C829 C828 1.404 . S
C829 H841 0.930 . S
C830 C826 1.524 . S
C830 H842 0.956 . S
C830 H843 0.961 1_545 S
C830 H844 0.961 . S
C831 C828 1.539 . S
C831 H845 0.958 . S
C831 H846 0.961 1_545 S
C831 H847 0.960 1_545 S
H832 C816 0.931 . S
H833 C821 0.929 . S
H834 C822 0.960 . S
H835 C822 0.962 . S
H836 C822 0.960 . S
H837 C823 0.961 . S
H838 C823 0.961 . S
H839 C823 0.961 . S
H840 C824 0.931 . S
H841 C829 0.930 . S
H842 C830 0.956 . S
H843 C830 0.961 1_565 S
H844 C830 0.961 . S
H845 C831 0.958 . S
H846 C831 0.961 1_565 S
H847 C831 0.960 1_565 S
C848 C849 1.391 . S
C848 C850 1.394 . S
C848 H864 0.931 . S
C849 C848 1.391 . S
C849 C853 1.376 . S
C850 C848 1.394 . S
C850 C851 1.369 . S
C850 C854 1.531 . S
C851 C850 1.369 . S
C851 C852 1.410 . S
C851 C859 1.503 . S
C852 C851 1.410 . S
C852 C853 1.392 . S
C852 C855 1.511 . S
C853 C849 1.376 . S
C853 C852 1.392 . S
C853 H865 0.929 . S
C854 C850 1.531 . S
C854 H866 0.960 . S
C854 H867 0.962 . S
C854 H868 0.960 . S
C855 C852 1.511 . S
C855 H869 0.961 . S
C855 H870 0.961 . S
C855 H871 0.961 . S
C856 C857 1.398 . S
C856 C858 1.363 . S
C856 H872 0.931 . S
C857 C856 1.398 . S
C857 C861 1.426 . S
C858 C856 1.363 . S
C858 C859 1.370 . S
C858 C862 1.524 . S
C859 C851 1.503 . S
C859 C858 1.370 . S
C859 C860 1.403 . S
C860 C859 1.403 . S
C860 C861 1.404 . S
C860 C863 1.539 . S
C861 C857 1.426 . S
C861 C860 1.404 . S
C861 H873 0.912 1_556 S
C862 C858 1.524 . S
C862 H874 0.956 . S
C862 H875 0.961 . S
C862 H876 0.961 . S
C863 C860 1.539 . S
C863 H877 0.958 . S
C863 H878 0.961 . S
C863 H879 0.960 . S
H864 C848 0.931 . S
H865 C853 0.929 . S
H866 C854 0.960 . S
H867 C854 0.962 . S
H868 C854 0.960 . S
H869 C855 0.961 . S
H870 C855 0.961 . S
H871 C855 0.961 . S
H872 C856 0.931 . S
H873 C861 0.912 1_554 S
H874 C862 0.956 . S
H875 C862 0.961 . S
H876 C862 0.961 . S
H877 C863 0.958 . S
H878 C863 0.961 . S
H879 C863 0.960 . S
C880 C881 1.391 . S
C880 C882 1.394 . S
C880 H896 0.931 . S
C881 C880 1.391 . S
C881 C885 1.376 1_455 S
C882 C880 1.394 . S
C882 C883 1.369 . S
C882 C886 1.531 . S
C883 C882 1.369 . S
C883 C884 1.410 1_455 S
C883 C891 1.503 . S
C884 C883 1.410 1_655 S
C884 C885 1.392 . S
C884 C887 1.511 . S
C885 C881 1.376 1_655 S
C885 C884 1.392 . S
C885 H897 0.929 . S
C886 C882 1.531 . S
C886 H898 0.960 . S
C886 H899 0.962 . S
C886 H900 0.960 . S
C887 C884 1.511 . S
C887 H901 0.961 . S
C887 H902 0.961 . S
C887 H903 0.961 . S
C888 C889 1.370 . S
C888 C890 1.363 . S
C888 H904 0.931 . S
C889 C888 1.370 . S
C889 C893 1.408 . S
C890 C888 1.363 . S
C890 C891 1.370 . S
C890 C894 1.524 . S
C891 C883 1.503 . S
C891 C890 1.370 . S
C891 C892 1.403 . S
C892 C891 1.403 . S
C892 C893 1.404 . S
C892 C895 1.537 1_455 S
C893 C889 1.408 . S
C893 C892 1.404 . S
C893 H905 0.930 . S
C894 C890 1.524 . S
C894 H906 0.956 . S
C894 H907 0.961 1_455 S
C894 H908 0.961 . S
C895 C892 1.537 1_655 S
C895 H909 0.955 1_655 S
C895 H910 0.965 . S
C895 H911 0.961 . S
H896 C880 0.931 . S
H897 C885 0.929 . S
H898 C886 0.960 . S
H899 C886 0.962 . S
H900 C886 0.960 . S
H901 C887 0.961 . S
H902 C887 0.961 . S
H903 C887 0.961 . S
H904 C888 0.931 . S
H905 C893 0.930 . S
H906 C894 0.956 . S
H907 C894 0.961 1_655 S
H908 C894 0.961 . S
H909 C895 0.955 1_455 S
H910 C895 0.965 . S
H911 C895 0.961 . S
C337 C12 2.934 . S
C345 C325 2.865 . S
C369 C52 2.934 . S
C377 C253 2.869 . S
C401 C111 2.987 . S
C409 C289 2.911 . S
C433 C31 3.131 . S
C441 C301 3.083 . S
C473 C229 3.090 . S
C465 C71 3.132 . S
C505 C265 3.026 . S
C497 C92 3.074 . S
C529 C48 0.495 . S
C537 C181 0.479 . S
C561 C109 0.560 . S
C569 C193 0.487 . S
C593 C29 0.494 . S
C601 C121 0.453 . S
C633 C157 0.320 . S
C625 C69 0.363 . S
C665 C217 0.399 . S
C657 C88 0.376 . S
C689 C8 0.344 . S
C697 C145 0.334 . S
C729 C223 1.063 1_554 S
C721 C17 1.039 . S
C753 C57 1.066 . S
C761 C151 1.067 . S
C785 C97 1.093 . S
C793 C187 1.087 . S
C825 C295 1.785 . S
C817 C42 1.697 . S
C857 C331 1.734 1_556 S
C849 C82 1.705 . S
C881 C2 1.715 . S
C889 C259 1.786 . S
