# Generated by pormake.
# Topology zzz, (3,6)-cn, num edge types: 1
# Building blocks:
#     Node 0, Type 0, BuildingBlock: KAKCAD_clean_linker_0, # of connection points: 3
#     Node 1, Type 0, BuildingBlock: KAKCAD_clean_linker_0, # of connection points: 3
#     Node 2, Type 0, BuildingBlock: KAKCAD_clean_linker_0, # of connection points: 3
#     Node 3, Type 0, BuildingBlock: KAKCAD_clean_linker_0, # of connection points: 3
#     Node 4, Type 0, BuildingBlock: KAKCAD_clean_linker_0, # of connection points: 3
#     Node 5, Type 0, BuildingBlock: KAKCAD_clean_linker_0, # of connection points: 3
#     Node 6, Type 0, BuildingBlock: KAKCAD_clean_linker_0, # of connection points: 3
#     Node 7, Type 0, BuildingBlock: KAKCAD_clean_linker_0, # of connection points: 3
#     Node 8, Type 1, BuildingBlock: INOVEN_clean_sbu_0, # of connection points: 6
#     Node 9, Type 1, BuildingBlock: INOVEN_clean_sbu_0, # of connection points: 6
#     Node 10, Type 1, BuildingBlock: INOVEN_clean_sbu_0, # of connection points: 6
#     Node 11, Type 1, BuildingBlock: INOVEN_clean_sbu_0, # of connection points: 6
#     Edge 12, Type (0, 1), BuildingBlock: UVAHIK_clean_linker_0, # of connection points: 2
#     Edge 13, Type (0, 1), BuildingBlock: UVAHIK_clean_linker_0, # of connection points: 2
#     Edge 14, Type (0, 1), BuildingBlock: UVAHIK_clean_linker_0, # of connection points: 2
#     Edge 15, Type (0, 1), BuildingBlock: UVAHIK_clean_linker_0, # of connection points: 2
#     Edge 16, Type (0, 1), BuildingBlock: UVAHIK_clean_linker_0, # of connection points: 2
#     Edge 17, Type (0, 1), BuildingBlock: UVAHIK_clean_linker_0, # of connection points: 2
#     Edge 18, Type (0, 1), BuildingBlock: UVAHIK_clean_linker_0, # of connection points: 2
#     Edge 19, Type (0, 1), BuildingBlock: UVAHIK_clean_linker_0, # of connection points: 2
#     Edge 20, Type (0, 1), BuildingBlock: UVAHIK_clean_linker_0, # of connection points: 2
#     Edge 21, Type (0, 1), BuildingBlock: UVAHIK_clean_linker_0, # of connection points: 2
#     Edge 22, Type (0, 1), BuildingBlock: UVAHIK_clean_linker_0, # of connection points: 2
#     Edge 23, Type (0, 1), BuildingBlock: UVAHIK_clean_linker_0, # of connection points: 2
#     Edge 24, Type (0, 1), BuildingBlock: UVAHIK_clean_linker_0, # of connection points: 2
#     Edge 25, Type (0, 1), BuildingBlock: UVAHIK_clean_linker_0, # of connection points: 2
#     Edge 26, Type (0, 1), BuildingBlock: UVAHIK_clean_linker_0, # of connection points: 2
#     Edge 27, Type (0, 1), BuildingBlock: UVAHIK_clean_linker_0, # of connection points: 2
#     Edge 28, Type (0, 1), BuildingBlock: UVAHIK_clean_linker_0, # of connection points: 2
#     Edge 29, Type (0, 1), BuildingBlock: UVAHIK_clean_linker_0, # of connection points: 2
#     Edge 30, Type (0, 1), BuildingBlock: UVAHIK_clean_linker_0, # of connection points: 2
#     Edge 31, Type (0, 1), BuildingBlock: UVAHIK_clean_linker_0, # of connection points: 2
#     Edge 32, Type (0, 1), BuildingBlock: UVAHIK_clean_linker_0, # of connection points: 2
#     Edge 33, Type (0, 1), BuildingBlock: UVAHIK_clean_linker_0, # of connection points: 2
#     Edge 34, Type (0, 1), BuildingBlock: UVAHIK_clean_linker_0, # of connection points: 2
#     Edge 35, Type (0, 1), BuildingBlock: UVAHIK_clean_linker_0, # of connection points: 2
# Relax obj value: 0.396
# Max RMSD: 0.272
# Mean RMSD: 0.249
data_MOF--net-zzz--node1-INOVEN_clean_sbu_0--node2-KAKCAD_clean_linker_0--edge1-UVAHIK_clean_linker_0
_symmetry_space_group_name_H-M    P1
_symmetry_Int_Tables_number       1
_symmetry_cell_setting            triclinic
loop_
_symmetry_equiv_pos_as_xyz
'x, y, z'
_cell_length_a     74.718053
_cell_length_b     74.81771
_cell_length_c     22.701936
_cell_angle_alpha  89.920282
_cell_angle_beta   89.914583
_cell_angle_gamma 90.500985
loop_
_atom_site_label
_atom_site_type_symbol
_atom_site_fract_x
_atom_site_fract_y
_atom_site_fract_z
_atom_type_partial_charge
C0 C 0.74522 0.47699 0.00744 0.0
C1 C 0.75836 0.46438 0.02167 0.0
C2 C 0.73658 0.48657 0.05164 0.0
C3 C 0.74052 0.48344 0.11138 0.0
C4 C 0.75219 0.46943 0.12563 0.0
C5 C 0.76114 0.46012 0.08132 0.0
C6 C 0.73412 0.49604 0.15754 0.0
C7 C 0.71768 0.5047 0.1516 0.0
C8 C 0.7129 0.51873 0.18922 0.0
C9 C 0.72443 0.52375 0.23555 0.0
C10 C 0.74071 0.51464 0.2437 0.0
C11 C 0.7454 0.50099 0.20426 0.0
C12 C 0.75387 0.51968 0.29001 0.0
C13 C 0.7611 0.53706 0.29273 0.0
C14 C 0.76148 0.50625 0.32505 0.0
C15 C 0.77664 0.50978 0.35918 0.0
C16 C 0.78467 0.52686 0.35918 0.0
C17 C 0.69636 0.52855 0.17497 0.0
C18 C 0.69566 0.53818 0.12198 0.0
C19 C 0.68041 0.52508 0.20579 0.0
C20 C 0.66391 0.5302 0.18188 0.0
C21 C 0.66308 0.53875 0.12651 0.0
C22 C 0.67926 0.54323 0.09804 0.0
C23 C 0.77639 0.54061 0.32686 0.0
H24 H 0.74237 0.48028 0.96195 0.0
H25 H 0.72774 0.49722 0.03845 0.0
H26 H 0.75514 0.46624 0.1711 0.0
H27 H 0.77113 0.45049 0.09419 0.0
H28 H 0.70865 0.50092 0.11633 0.0
H29 H 0.75846 0.49493 0.2083 0.0
H30 H 0.7209 0.53472 0.26429 0.0
H31 H 0.7556 0.54762 0.26575 0.0
H32 H 0.75621 0.49272 0.32362 0.0
H33 H 0.78265 0.49879 0.38284 0.0
H34 H 0.70779 0.54069 0.09694 0.0
H35 H 0.68062 0.51741 0.24628 0.0
H36 H 0.78204 0.55398 0.32647 0.0
H37 H 0.67931 0.54953 0.0551 0.0
H38 H 0.65177 0.52678 0.2056 0.0
C39 C 0.06684 0.77114 0.05819 0.0
C40 C 0.07834 0.78412 0.08265 0.0
C41 C 0.05528 0.76118 0.09409 0.0
C42 C 0.0552 0.76371 0.1555 0.0
C43 C 0.06805 0.77528 0.18034 0.0
C44 C 0.07938 0.78547 0.14437 0.0
C45 C 0.04055 0.75594 0.19231 0.0
C46 C 0.03312 0.73916 0.17925 0.0
C47 C 0.01773 0.73289 0.2085 0.0
C48 C 0.00979 0.74344 0.25271 0.0
C49 C 0.01768 0.75997 0.26839 0.0
C50 C 0.03284 0.76609 0.23752 0.0
C51 C 0.01036 0.77165 0.31536 0.0
C52 C 0.99325 0.7791 0.31033 0.0
C53 C 0.02183 0.77789 0.35998 0.0
C54 C 0.01678 0.792 0.3965 0.0
C55 C 1.00013 0.80035 0.38923 0.0
C56 C 0.01018 0.71549 0.18935 0.0
C57 C 0.99566 0.715 0.15021 0.0
C58 C 0.02014 0.69992 0.19833 0.0
C59 C 0.01646 0.68447 0.16576 0.0
C60 C 1.00289 0.68433 0.12281 0.0
C61 C 0.99201 0.69953 0.11726 0.0
C62 C 0.9882 0.79336 0.34681 0.0
H63 H 0.06599 0.76939 0.01093 0.0
H64 H 0.04563 0.75241 0.07312 0.0
H65 H 0.06875 0.77717 0.22757 0.0
H66 H 0.08802 0.7953 0.16507 0.0
H67 H 0.03905 0.73102 0.14505 0.0
H68 H 0.03814 0.77929 0.24733 0.0
H69 H 0.99786 0.73872 0.27525 0.0
H70 H 0.98424 0.77467 0.27589 0.0
H71 H 0.03515 0.77245 0.3645 0.0
H72 H 0.02642 0.79705 0.42806 0.0
H73 H 0.98805 0.72698 0.14167 0.0
H74 H 0.03154 0.70007 0.22776 0.0
H75 H 0.97518 0.7993 0.34048 0.0
H76 H 0.98153 0.69997 0.08442 0.0
H77 H 0.02487 0.67291 0.17209 0.0
C78 C 0.74038 0.99315 0.02097 0.0
C79 C 0.73054 0.00846 0.00681 0.0
C80 C 0.74777 0.9912 0.07706 0.0
C81 C 0.74517 0.0044 0.12014 0.0
C82 C 0.73558 0.01983 0.1057 0.0
C83 C 0.72842 0.02189 0.04939 0.0
C84 C 0.75247 1.00208 0.18008 0.0
C85 C 0.77038 0.99748 0.18758 0.0
C86 C 0.77772 0.99554 0.244 0.0
C87 C 0.76674 0.99784 0.29403 0.0
C88 C 0.74852 1.00223 0.28673 0.0
C89 C 0.74164 0.00453 0.22972 0.0
C90 C 0.73599 0.00419 0.33693 0.0
C91 C 0.72892 0.98899 0.36516 0.0
C92 C 0.72817 0.02086 0.34771 0.0
C93 C 0.71294 0.02218 0.38333 0.0
C94 C 0.70494 0.00681 0.40821 0.0
C95 C 0.79717 0.99212 0.2473 0.0
C96 C 0.80394 0.97665 0.22071 0.0
C97 C 0.80896 0.00627 0.26018 0.0
C98 C 0.82685 0.00564 0.24153 0.0
C99 C 0.83321 0.99086 0.20956 0.0
C100 C 0.82177 0.97599 0.20218 0.0
C101 C 0.71354 0.99027 0.40049 0.0
H102 H 0.74211 0.98259 0.98891 0.0
H103 H 0.75512 0.97917 0.0873 0.0
H104 H 0.73356 0.03025 0.13805 0.0
H105 H 0.72065 0.03371 0.03984 0.0
H106 H 0.77887 0.99597 0.14911 0.0
H107 H 0.72764 0.00784 0.22397 0.0
H108 H 0.77227 0.99632 0.33781 0.0
H109 H 0.73451 0.97594 0.35651 0.0
H110 H 0.73328 0.03274 0.32588 0.0
H111 H 0.707 0.03521 0.38931 0.0
H112 H 0.795 0.96571 0.20938 0.0
H113 H 0.80398 0.01846 0.27974 0.0
H114 H 0.70776 0.97811 0.41847 0.0
H115 H 0.82608 0.96442 0.17749 0.0
H116 H 0.83537 0.0172 0.24893 0.0
C117 C 0.49011 0.7489 0.39595 0.0
C118 C 0.50442 0.73932 0.42055 0.0
C119 C 0.49338 0.76462 0.36337 0.0
C120 C 0.51098 0.771 0.35552 0.0
C121 C 0.52499 0.76225 0.38476 0.0
C122 C 0.52176 0.74657 0.41658 0.0
C123 C 0.51554 0.78378 0.30739 0.0
C124 C 0.50852 0.80121 0.30351 0.0
C125 C 0.51392 0.81258 0.25683 0.0
C126 C 0.52571 0.8062 0.21364 0.0
C127 C 0.53193 0.78863 0.21525 0.0
C128 C 0.52697 0.77768 0.26275 0.0
C129 C 0.54173 0.78089 0.16439 0.0
C130 C 0.53643 0.78487 0.10644 0.0
C131 C 0.55466 0.76762 0.17326 0.0
C132 C 0.56041 0.75708 0.12637 0.0
C133 C 0.55356 0.75978 0.06938 0.0
C134 C 0.50673 0.8308 0.24813 0.0
C135 C 0.48896 0.833 0.22971 0.0
C136 C 0.51873 0.84527 0.24278 0.0
C137 C 0.51357 0.86105 0.2147 0.0
C138 C 0.49628 0.86268 0.19095 0.0
C139 C 0.48378 0.8488 0.20136 0.0
C140 C 0.54243 0.77454 0.05937 0.0
H141 H 0.4766 0.74357 0.39834 0.0
H142 H 0.48238 0.77095 0.34069 0.0
H143 H 0.53868 0.76687 0.37941 0.0
H144 H 0.53301 0.73959 0.43567 0.0
H145 H 0.49925 0.80595 0.33663 0.0
H146 H 0.53129 0.76388 0.26379 0.0
H147 H 0.52953 0.81483 0.17724 0.0
H148 H 0.52654 0.79503 0.09767 0.0
H149 H 0.55945 0.76458 0.21712 0.0
H150 H 0.56903 0.7459 0.13601 0.0
H151 H 0.47953 0.82195 0.23258 0.0
H152 H 0.53258 0.8438 0.25594 0.0
H153 H 0.5373 0.77731 0.01575 0.0
H154 H 0.47026 0.84972 0.18457 0.0
H155 H 0.52362 0.87133 0.20732 0.0
C156 C 0.23177 0.44298 0.21421 0.0
C157 C 0.22082 0.43065 0.18399 0.0
C158 C 0.24519 0.45244 0.1844 0.0
C159 C 0.24784 0.44979 0.12384 0.0
C160 C 0.23844 0.43593 0.09546 0.0
C161 C 0.22508 0.42639 0.12535 0.0
C162 C 0.25731 0.4637 0.08891 0.0
C163 C 0.27354 0.47115 0.10794 0.0
C164 C 0.28068 0.48649 0.08061 0.0
C165 C 0.27135 0.49456 0.03368 0.0
C166 C 0.25528 0.48678 0.01292 0.0
C167 C 0.24852 0.47139 0.04086 0.0
C168 C 0.24428 0.49481 0.96528 0.0
C169 C 0.23821 0.51248 0.96928 0.0
C170 C 0.23693 0.48362 0.92175 0.0
C171 C 0.22274 0.48933 0.88679 0.0
C172 C 0.21558 0.50656 0.89361 0.0
C173 C 0.29749 0.49407 0.10463 0.0
C174 C 0.29699 0.50871 0.14311 0.0
C175 C 0.31347 0.48456 0.09851 0.0
C176 C 0.32848 0.48905 0.13232 0.0
C177 C 0.32774 0.50297 0.17397 0.0
C178 C 0.31196 0.51312 0.17752 0.0
C179 C 0.22404 0.51832 0.93367 0.0
H180 H 0.22887 0.4467 0.25928 0.0
H181 H 0.25218 0.46308 0.20741 0.0
H182 H 0.24047 0.43342 0.04894 0.0
H183 H 0.21715 0.41667 0.10124 0.0
H184 H 0.28035 0.46535 0.14545 0.0
H185 H 0.23561 0.46606 0.02753 0.0
H186 H 0.27659 0.50664 0.01337 0.0
H187 H 0.24357 0.52138 0.00259 0.0
H188 H 0.24138 0.46993 0.91754 0.0
H189 H 0.21667 0.4797 0.85724 0.0
H190 H 0.28467 0.51599 0.14938 0.0
H191 H 0.31407 0.47309 0.06948 0.0
H192 H 0.21926 0.53182 0.93933 0.0
H193 H 0.31075 0.5238 0.20936 0.0
H194 H 0.34048 0.48119 0.12724 0.0
C195 C 0.03053 0.26799 0.31158 0.0
C196 C 0.03957 0.25168 0.31685 0.0
C197 C 0.0303 0.27709 0.25789 0.0
C198 C 0.03928 0.27016 0.20853 0.0
C199 C 0.04955 0.25468 0.21523 0.0
C200 C 0.04964 0.24549 0.26871 0.0
C201 C 0.03655 0.27814 0.1494 0.0
C202 C 0.03541 0.29665 0.1426 0.0
C203 C 0.03082 0.30427 0.08832 0.0
C204 C 0.02751 0.29313 0.03929 0.0
C205 C 0.02928 0.27442 0.04522 0.0
C206 C 0.03371 0.26716 0.10027 0.0
C207 C 0.02615 0.26167 0.99624 0.0
C208 C 0.00863 0.25693 0.97994 0.0
C209 C 0.04039 0.25111 0.97649 0.0
C210 C 0.03715 0.23553 0.94397 0.0
C211 C 0.01954 0.23002 0.93096 0.0
C212 C 0.02918 0.32395 0.08704 0.0
C213 C 0.01268 0.33162 0.10171 0.0
C214 C 0.04481 0.33438 0.09174 0.0
C215 C 0.04421 0.35152 0.1162 0.0
C216 C 0.02794 0.35854 0.13669 0.0
C217 C 0.01205 0.34882 0.1261 0.0
C218 C 0.00535 0.24126 0.94762 0.0
H219 H 0.02287 0.27326 0.34807 0.0
H220 H 0.02221 0.28898 0.25429 0.0
H221 H 0.05692 0.24922 0.17839 0.0
H222 H 0.05665 0.2329 0.27086 0.0
H223 H 0.03782 0.30529 0.18017 0.0
H224 H 0.03422 0.25275 0.10514 0.0
H225 H 0.02379 0.2989 0.99731 0.0
H226 H 0.99741 0.26466 0.99569 0.0
H227 H 0.05399 0.25427 0.98964 0.0
H228 H 0.04841 0.2272 0.93259 0.0
H229 H 1.00051 0.32367 0.09996 0.0
H230 H 0.05773 0.32861 0.08187 0.0
H231 H 0.99163 0.23756 0.93774 0.0
H232 H 0.99931 0.35377 0.1416 0.0
H233 H 0.05665 0.35877 0.1229 0.0
C234 C 0.24898 0.95885 0.24369 0.0
C235 C 0.26707 0.96277 0.25432 0.0
C236 C 0.23836 0.97104 0.21284 0.0
C237 C 0.2457 0.98738 0.19294 0.0
C238 C 0.26359 0.99154 0.20658 0.0
C239 C 0.27417 0.97933 0.23651 0.0
C240 C 0.2352 0.99977 0.15562 0.0
C241 C 0.21713 1.0031 0.1672 0.0
C242 C 0.20729 0.01498 0.13185 0.0
C243 C 0.2159 0.02379 0.08437 0.0
C244 C 0.23405 0.02037 0.07234 0.0
C245 C 0.24343 0.00835 0.10778 0.0
C246 C 0.24402 0.02852 0.02266 0.0
C247 C 0.24456 0.01953 0.96852 0.0
C248 C 0.25706 0.04164 0.03467 0.0
C249 C 0.27121 0.0447 0.99533 0.0
C250 C 0.2727 0.03454 0.94344 0.0
C251 C 0.18814 0.0179 0.14658 0.0
C252 C 0.17701 1.00309 0.15834 0.0
C253 C 0.18149 0.03513 0.15667 0.0
C254 C 0.16447 0.03741 0.18176 0.0
C255 C 0.15374 0.02248 0.19687 0.0
C256 C 0.16009 0.00533 0.18319 0.0
C257 C 0.25875 0.02253 0.92919 0.0
H258 H 0.24326 0.94614 0.25737 0.0
H259 H 0.22464 0.96741 0.20285 0.0
H260 H 0.26952 0.0042 0.19345 0.0
H261 H 0.28803 0.98277 0.24537 0.0
H262 H 0.21076 0.99674 0.2048 0.0
H263 H 0.25728 0.00551 0.09722 0.0
H264 H 0.20853 0.03298 0.05678 0.0
H265 H 0.23489 0.00906 0.95893 0.0
H266 H 0.25716 0.04839 0.07687 0.0
H267 H 0.28174 0.05395 0.00805 0.0
H268 H 0.18175 0.98964 0.15072 0.0
H269 H 0.18982 0.04678 0.14822 0.0
H270 H 0.25934 0.01468 0.88921 0.0
H271 H 0.15243 0.99347 0.19465 0.0
H272 H 0.15993 0.05083 0.19087 0.0
C273 C 0.48429 0.3057 0.0139 0.0
C274 C 0.48684 0.30628 0.95249 0.0
C275 C 0.4887 0.29045 0.04623 0.0
C276 C 0.49574 0.27532 0.01821 0.0
C277 C 0.49723 0.27534 0.95656 0.0
C278 C 0.49285 0.29069 0.92399 0.0
C279 C 0.50464 0.2614 0.0543 0.0
C280 C 0.49927 0.24327 0.054 0.0
C281 C 0.50798 0.2308 0.0908 0.0
C282 C 0.52223 0.23672 0.12653 0.0
C283 C 0.5274 0.25475 0.1284 0.0
C284 C 0.51856 0.26691 0.09171 0.0
C285 C 0.54043 0.26132 0.17332 0.0
C286 C 0.54067 0.25383 0.23026 0.0
C287 C 0.55121 0.27644 0.16207 0.0
C288 C 0.56002 0.2852 0.20804 0.0
C289 C 0.55863 0.27878 0.26623 0.0
C290 C 0.50151 0.21201 0.09867 0.0
C291 C 0.48332 0.20822 0.10894 0.0
C292 C 0.51395 0.19827 0.10746 0.0
C293 C 0.50874 0.18203 0.13281 0.0
C294 C 0.49076 0.17869 0.14847 0.0
C295 C 0.47798 0.1917 0.13298 0.0
C296 C 0.54992 0.26229 0.27586 0.0
H297 H 0.47992 0.31741 0.03772 0.0
H298 H 0.48756 0.29084 0.09381 0.0
H299 H 0.5028 0.26393 0.93396 0.0
H300 H 0.49473 0.29052 0.8767 0.0
H301 H 0.48818 0.23901 0.02653 0.0
H302 H 0.52205 0.28098 0.09347 0.0
H303 H 0.52884 0.22732 0.15533 0.0
H304 H 0.53265 0.24217 0.24114 0.0
H305 H 0.55195 0.28221 0.11836 0.0
H306 H 0.56663 0.29779 0.19829 0.0
H307 H 0.47334 0.21844 0.10237 0.0
H308 H 0.52805 0.20058 0.09882 0.0
H309 H 0.54908 0.25657 0.31962 0.0
H310 H 0.4639 0.18955 0.14178 0.0
H311 H 0.51922 0.17271 0.1436 0.0
Gd312 Gd 0.00633 1.0034 0.76158 0.0
Gd313 Gd 0.98165 0.01608 0.65647 0.0
C314 C 0.99211 0.97481 0.66191 0.0
C315 C 0.01767 0.99013 0.85896 0.0
C316 C 0.03067 0.97615 0.87245 0.0
C317 C 0.0388 0.97554 0.92791 0.0
C318 C 0.03546 0.96368 0.82927 0.0
C319 C 0.05595 0.94953 0.89788 0.0
C320 C 0.04793 0.95044 0.84193 0.0
C321 C 0.05136 0.96235 0.94058 0.0
C322 C 0.0263 0.00911 0.6625 0.0
C323 C 0.99944 0.04543 0.74635 0.0
C324 C 0.96834 0.03354 0.56957 0.0
C325 C 0.97308 0.0516 0.54951 0.0
C326 C 0.96039 0.06248 0.52199 0.0
C327 C 0.98987 0.05879 0.56449 0.0
C328 C 0.98095 0.08779 0.52823 0.0
C329 C 0.99374 0.07671 0.55417 0.0
C330 C 0.96437 0.0805 0.51083 0.0
C331 C 0.96484 1.00333 0.75362 0.0
O332 O 0.99796 0.97745 0.71659 0.0
O333 O 0.9868 0.98807 0.62758 0.0
O334 O 0.02449 0.0047 0.83548 0.0
O335 O 1.00283 0.98469 0.83332 0.0
O336 O 0.03292 1.00351 0.71189 0.0
O337 O 0.00982 0.01114 0.66996 0.0
O338 O 0.99281 0.0419 0.69357 0.0
O339 O 1.00382 0.03261 0.78373 0.0
O340 O 0.96078 0.03294 0.62162 0.0
O341 O 0.98082 0.02147 0.56283 0.0
O342 O 0.95893 1.00096 0.70033 0.0
O343 O 0.9787 0.01304 0.75268 0.0
H344 H 0.03541 0.98525 0.96142 0.0
H345 H 0.02943 0.96408 0.7859 0.0
H346 H 0.05093 0.94065 0.80832 0.0
H347 H 0.05745 0.96216 0.98383 0.0
H348 H 0.9473 0.05719 0.51072 0.0
H349 H 0.99985 0.05071 0.58603 0.0
H350 H 0.00671 0.08198 0.56711 0.0
H351 H 0.95435 0.08887 0.49052 0.0
Gd352 Gd 0.49381 0.03147 0.71662 0.0
Gd353 Gd 0.48035 0.00823 0.60971 0.0
C354 C 0.52269 0.01375 0.62556 0.0
C355 C 0.51253 0.04322 0.80309 0.0
C356 C 0.53143 0.03921 0.81471 0.0
C357 C 0.54367 0.05325 0.8234 0.0
C358 C 0.53787 0.02186 0.80509 0.0
C359 C 0.56849 0.03303 0.80576 0.0
C360 C 0.55619 0.0188 0.80069 0.0
C361 C 0.56205 0.05019 0.81916 0.0
C362 C 0.48323 0.04975 0.62022 0.0
C363 C 0.45196 0.02425 0.70635 0.0
C364 C 0.46633 0.99737 0.51283 0.0
C365 C 0.45149 0.98487 0.50086 0.0
C366 C 0.45278 0.9726 0.45454 0.0
C367 C 0.43634 0.98448 0.5375 0.0
C368 C 0.42354 0.9601 0.48005 0.0
C369 C 0.42246 0.97232 0.52695 0.0
C370 C 0.43895 0.96028 0.44425 0.0
C371 C 0.48355 0.98731 0.70782 0.0
O372 O 0.51936 0.02034 0.67846 0.0
O373 O 0.50973 0.00967 0.58813 0.0
O374 O 0.50995 0.05256 0.7551 0.0
O375 O 0.50113 0.0299 0.80885 0.0
O376 O 0.48087 0.05524 0.67397 0.0
O377 O 0.49183 0.03528 0.62001 0.0
O378 O 0.45489 0.01872 0.65158 0.0
O379 O 0.46515 0.0281 0.74327 0.0
O380 O 0.48068 0.99012 0.53546 0.0
O381 O 0.46197 0.01255 0.53788 0.0
O382 O 0.47815 0.98143 0.65723 0.0
O383 O 0.4868 0.0037 0.70213 0.0
H384 H 0.53899 0.06676 0.83028 0.0
H385 H 0.52875 0.01079 0.79713 0.0
H386 H 0.56062 0.00546 0.78983 0.0
H387 H 0.5712 0.06136 0.82484 0.0
H388 H 0.46452 0.9725 0.42645 0.0
H389 H 0.43515 0.99364 0.57419 0.0
H390 H 0.4107 0.97284 0.55479 0.0
H391 H 0.44033 0.95092 0.40823 0.0
Gd392 Gd 0.47911 0.52844 0.73576 0.0
Gd393 Gd 0.49941 0.51618 0.61895 0.0
C394 C 0.49096 0.55712 0.63342 0.0
C395 C 0.47621 0.54363 0.8368 0.0
C396 C 0.48708 0.5587 0.8582 0.0
C397 C 0.48088 0.57017 0.90229 0.0
C398 C 0.50311 0.56277 0.82893 0.0
C399 C 0.5064 0.59009 0.88507 0.0
C400 C 0.51281 0.57813 0.84263 0.0
C401 C 0.49051 0.58581 0.91576 0.0
C402 C 0.45567 0.52261 0.64597 0.0
C403 C 0.48553 0.48658 0.71965 0.0
C404 C 0.50919 0.49915 0.52554 0.0
C405 C 0.51473 0.48064 0.51502 0.0
C406 C 0.52684 0.47674 0.46983 0.0
C407 C 0.50882 0.46692 0.55252 0.0
C408 C 0.52746 0.44552 0.50097 0.0
C409 C 0.51532 0.44965 0.54629 0.0
C410 C 0.53304 0.45928 0.46244 0.0
C411 C 0.52016 0.52831 0.70768 0.0
O412 O 0.48923 0.55376 0.69063 0.0
O413 O 0.49238 0.54417 0.59405 0.0
O414 O 0.46587 0.54756 0.79219 0.0
O415 O 0.48489 0.52865 0.82925 0.0
O416 O 0.45055 0.52624 0.69948 0.0
O417 O 0.47241 0.52173 0.64627 0.0
O418 O 0.49465 0.4904 0.67068 0.0
O419 O 0.47764 0.49894 0.75213 0.0
O420 O 0.52024 0.50868 0.55754 0.0
O421 O 0.4924 0.50137 0.54034 0.0
O422 O 0.52394 0.53084 0.65234 0.0
O423 O 0.50618 0.51887 0.71263 0.0
H424 H 0.46834 0.56739 0.92466 0.0
H425 H 0.50778 0.55439 0.79366 0.0
H426 H 0.52511 0.58083 0.81881 0.0
H427 H 0.48514 0.59487 0.94832 0.0
H428 H 0.53155 0.48718 0.44041 0.0
H429 H 0.49927 0.46955 0.58704 0.0
H430 H 0.5109 0.43961 0.5776 0.0
H431 H 0.54207 0.4566 0.42624 0.0
Gd432 Gd 0.99499 0.51145 0.68217 0.0
Gd433 Gd 0.00816 0.53083 0.56435 0.0
C434 C 0.9659 0.52566 0.58195 0.0
C435 C 0.97777 0.50184 0.77586 0.0
C436 C 0.95942 0.49537 0.78656 0.0
C437 C 0.9563 0.48157 0.82717 0.0
C438 C 0.94513 0.50194 0.75324 0.0
C439 C 0.9248 0.48052 0.79941 0.0
C440 C 0.92806 0.49449 0.75909 0.0
C441 C 0.93912 0.47428 0.83387 0.0
C442 C 0.00621 0.49012 0.59372 0.0
C443 C 0.0361 0.51983 0.669 0.0
C444 C 0.02289 0.53172 0.46168 0.0
C445 C 0.03572 0.5188 0.43803 0.0
C446 C 0.04326 0.52064 0.38181 0.0
C447 C 0.04071 0.50438 0.47358 0.0
C448 C 0.06111 0.49386 0.39829 0.0
C449 C 0.05298 0.49191 0.45375 0.0
C450 C 0.05596 0.50828 0.36207 0.0
C451 C 1.00295 0.55503 0.65171 0.0
O452 O 0.96925 0.51673 0.63151 0.0
O453 O 0.97867 0.53292 0.54881 0.0
O454 O 0.98788 0.49097 0.74574 0.0
O455 O 0.97953 0.51855 0.75924 0.0
O456 O 0.00863 0.4864 0.64903 0.0
O457 O 0.99743 0.50431 0.58881 0.0
O458 O 0.03307 0.52104 0.61153 0.0
O459 O 0.02294 0.51872 0.70786 0.0
O460 O 0.02883 0.54117 0.5062 0.0
O461 O 0.00676 0.52529 0.47078 0.0
O462 O 0.0071 0.55962 0.59791 0.0
O463 O 1.00128 0.53832 0.65316 0.0
H464 H 0.96719 0.47632 0.85325 0.0
H465 H 0.94721 0.51268 0.72202 0.0
H466 H 0.9175 0.49952 0.73114 0.0
H467 H 0.93707 0.46382 0.86622 0.0
H468 H 0.03961 0.53176 0.3538 0.0
H469 H 0.03522 0.50286 0.51725 0.0
H470 H 0.05625 0.48084 0.48243 0.0
H471 H 0.06209 0.51031 0.31932 0.0
C472 C 0.12236 0.01248 0.22279 0.0
C473 C 0.13681 0.0244 0.23144 0.0
C474 C 0.10781 0.01221 0.26163 0.0
C475 C 0.08427 0.0368 0.37936 0.0
H476 H 0.07508 0.9896 0.44425 0.0
C477 C 0.02961 0.02005 0.55783 0.0
C478 C 0.03665 0.01128 0.60728 0.0
C479 C 0.04004 0.02239 0.50683 0.0
C480 C 0.07739 1.00283 0.4262 0.0
H481 H 0.14657 0.04615 0.28622 0.0
H482 H 0.12095 0.04592 0.35299 0.0
H483 H 0.09606 0.99317 0.36244 0.0
H484 H 0.05995 0.99778 0.64184 0.0
H485 H 0.07786 1.00134 0.55266 0.0
H486 H 0.06568 0.04641 0.44415 0.0
C487 C 0.12099 0.03673 0.31615 0.0
C488 C 0.08931 0.00488 0.37915 0.0
C489 C 0.13567 0.03689 0.27764 0.0
C490 C 0.05415 0.00462 0.60446 0.0
C491 C 0.06439 0.0066 0.55335 0.0
C492 C 0.07205 0.0347 0.42594 0.0
C493 C 0.10719 0.024 0.30968 0.0
C494 C 0.09314 0.0219 0.35581 0.0
C495 C 0.05751 0.01558 0.50409 0.0
C496 C 0.06879 0.01772 0.45055 0.0
H497 H 0.12253 1.00296 0.18694 0.0
H498 H 0.09723 1.00243 0.25495 0.0
H499 H 0.08691 0.05007 0.36214 0.0
H500 H 0.01617 0.02522 0.55876 0.0
H501 H 0.0344 0.0293 0.46932 0.0
C502 C 0.47149 0.16338 0.22604 0.0
C503 C 0.48589 0.16273 0.18592 0.0
C504 C 0.46849 0.14959 0.26676 0.0
C505 C 0.48535 0.10396 0.31384 0.0
H506 H 0.46359 0.11812 0.46108 0.0
C507 C 0.48115 0.05441 0.51075 0.0
C508 C 0.48106 0.06143 0.56802 0.0
C509 C 0.47958 0.06572 0.4617 0.0
C510 C 0.47007 0.11388 0.4209 0.0
H511 H 0.50742 0.14571 0.15516 0.0
H512 H 0.50345 0.12298 0.22899 0.0
H513 H 0.46544 0.13922 0.38161 0.0
H514 H 0.47973 0.08582 0.61893 0.0
H515 H 0.47845 0.10555 0.53464 0.0
H516 H 0.49158 0.07921 0.35537 0.0
C517 C 0.494 0.13384 0.22847 0.0
C518 C 0.4707 0.12601 0.37398 0.0
C519 C 0.49659 0.14731 0.18633 0.0
C520 C 0.47958 0.07997 0.5753 0.0
C521 C 0.47864 0.09132 0.52645 0.0
C522 C 0.48529 0.09203 0.36153 0.0
C523 C 0.48013 0.13489 0.27046 0.0
C524 C 0.47846 0.12137 0.31952 0.0
C525 C 0.47852 0.08445 0.46857 0.0
C526 C 0.47779 0.09682 0.41624 0.0
H527 H 0.46284 0.17488 0.22815 0.0
H528 H 0.45718 0.15081 0.29618 0.0
H529 H 0.49103 0.09943 0.27272 0.0
H530 H 0.48239 0.04017 0.5038 0.0
H531 H 0.47918 0.05965 0.41852 0.0
C532 C 0.35202 0.49116 0.24 0.0
C533 C 0.34273 0.50586 0.21666 0.0
C534 C 0.36531 0.49358 0.28266 0.0
C535 C 0.37968 0.52474 0.39892 0.0
H536 H 0.4231 0.49669 0.39806 0.0
C537 C 0.42505 0.51904 0.60357 0.0
C538 C 0.44365 0.52003 0.59488 0.0
C539 C 0.41341 0.51765 0.55556 0.0
C540 C 0.41112 0.50472 0.39876 0.0
H541 H 0.34064 0.53475 0.21946 0.0
H542 H 0.36369 0.53892 0.29454 0.0
H543 H 0.40205 0.49419 0.31613 0.0
H544 H 0.46459 0.52081 0.52904 0.0
H545 H 0.44431 0.518 0.44493 0.0
H546 H 0.3887 0.53524 0.48153 0.0
C547 C 0.36054 0.52549 0.27989 0.0
C548 C 0.39897 0.50318 0.35204 0.0
C549 C 0.3473 0.52309 0.23684 0.0
C550 C 0.45038 0.51954 0.53714 0.0
C551 C 0.43873 0.51804 0.48898 0.0
C552 C 0.39176 0.52618 0.4458 0.0
C553 C 0.36962 0.51074 0.30365 0.0
C554 C 0.38304 0.51308 0.35171 0.0
C555 C 0.42008 0.51722 0.4976 0.0
C556 C 0.40756 0.51609 0.44658 0.0
H557 H 0.34866 0.47765 0.22679 0.0
H558 H 0.3718 0.48189 0.30063 0.0
H559 H 0.36749 0.53244 0.4004 0.0
H560 H 0.41946 0.51947 0.6476 0.0
H561 H 0.39915 0.51681 0.56389 0.0
C562 C 0.04042 0.37554 0.22263 0.0
C563 C 0.02788 0.37438 0.17656 0.0
C564 C 0.03937 0.38912 0.26469 0.0
C565 C 0.02144 0.43369 0.29633 0.0
H566 H 0.0224 0.41783 0.45896 0.0
C567 C 1.00167 0.48008 0.48959 0.0
C568 C 0.01008 0.47783 0.54435 0.0
C569 C 0.00502 0.46829 0.4431 0.0
C570 C 0.02245 0.42263 0.41396 0.0
H571 H 0.00473 0.38701 0.13769 0.0
H572 H 1.00306 0.41101 0.21106 0.0
H573 H 0.02629 0.39624 0.3801 0.0
H574 H 0.02898 0.46182 0.59301 0.0
H575 H 0.03526 0.44149 0.51166 0.0
H576 H 0.01793 0.46015 0.33006 0.0
C577 C 0.01368 0.4013 0.21441 0.0
C578 C 0.02459 0.41018 0.36865 0.0
C579 C 0.01458 0.38753 0.1726 0.0
C580 C 0.02215 0.46373 0.55145 0.0
C581 C 0.02566 0.45204 0.50478 0.0
C582 C 0.01955 0.44623 0.34175 0.0
C583 C 0.02586 0.40202 0.26161 0.0
C584 C 0.02399 0.41552 0.30933 0.0
C585 C 0.01698 0.454 0.45006 0.0
C586 C 0.01987 0.44086 0.40131 0.0
H587 H 0.05067 0.36551 0.22767 0.0
H588 H 0.04903 0.38939 0.30025 0.0
H589 H 0.02111 0.43823 0.25102 0.0
H590 H 0.99222 0.49079 0.48293 0.0
H591 H 0.99784 0.47016 0.40221 0.0
C592 C 0.86124 0.97657 0.16949 0.0
C593 C 0.85057 0.99182 0.17689 0.0
C594 C 0.87601 0.9769 0.13132 0.0
C595 C 0.90622 0.00739 0.04602 0.0
H596 H 0.91028 0.96687 0.9407 0.0
C597 C 0.96019 0.00523 0.86288 0.0
C598 C 0.95426 0.99939 0.80737 0.0
C599 C 0.94937 1.00295 0.91284 0.0
C600 C 0.90933 0.97831 0.96967 0.0
H601 H 0.84751 0.01953 0.15062 0.0
H602 H 0.87317 0.02012 0.08485 0.0
H603 H 0.88834 0.96607 0.02022 0.0
H604 H 0.93266 0.98607 0.76093 0.0
H605 H 0.91373 0.9822 0.8477 0.0
H606 H 0.92671 0.01992 0.994 0.0
C607 C 0.8703 0.00794 0.10905 0.0
C608 C 0.89688 0.97777 0.01583 0.0
C609 C 0.85556 0.00761 0.1471 0.0
C610 C 0.93759 0.9907 0.80314 0.0
C611 C 0.92678 0.9884 0.85302 0.0
C612 C 0.91868 0.00793 0.9999 0.0
C613 C 0.8805 0.99248 0.0996 0.0
C614 C 0.89495 0.99241 0.05408 0.0
C615 C 0.93239 0.99474 0.90842 0.0
C616 C 0.92021 0.99351 0.96051 0.0
H617 H 0.85795 0.96424 0.19225 0.0
H618 H 0.88374 0.96483 0.12596 0.0
H619 H 0.90526 0.01884 0.07497 0.0
H620 H 0.97303 0.01191 0.86751 0.0
H621 H 0.95424 0.00776 0.95488 0.0
C622 C 0.49917 0.89489 0.15754 0.0
C623 C 0.49227 0.87751 0.14887 0.0
C624 C 0.4976 0.90798 0.11355 0.0
C625 C 0.49275 0.91131 0.9524 0.0
H626 H 0.48179 0.96115 0.98023 0.0
C627 C 0.47795 0.95862 0.76023 0.0
C628 C 0.4846 0.97622 0.76186 0.0
C629 C 0.47895 0.94756 0.80965 0.0
C630 C 0.4851 0.94732 0.97181 0.0
H631 H 0.4778 0.86058 0.08734 0.0
H632 H 0.47477 0.88338 0.01172 0.0
H633 H 0.4827 0.94019 0.06325 0.0
H634 H 0.49746 0.99605 0.8169 0.0
H635 H 0.49945 0.97663 0.90386 0.0
H636 H 0.49534 0.91826 0.86149 0.0
C637 C 0.48159 0.88685 0.05223 0.0
C638 C 0.48557 0.93531 0.01939 0.0
C639 C 0.4831 0.87383 0.09612 0.0
C640 C 0.49216 0.98261 0.81447 0.0
C641 C 0.49323 0.97147 0.86427 0.0
C642 C 0.49236 0.92327 0.90513 0.0
C643 C 0.4892 0.90396 0.0597 0.0
C644 C 0.48914 0.91708 0.01007 0.0
C645 C 0.48677 0.95371 0.86225 0.0
C646 C 0.48825 0.94139 0.9139 0.0
H647 H 0.50619 0.89826 0.19778 0.0
H648 H 0.50361 0.92102 0.12078 0.0
H649 H 0.49602 0.89748 0.94372 0.0
H650 H 0.47191 0.95331 0.7205 0.0
H651 H 0.47346 0.93415 0.80661 0.0
C652 C 0.63207 0.52814 0.09852 0.0
C653 C 0.64566 0.54128 0.09521 0.0
C654 C 0.61692 0.5291 0.06241 0.0
C655 C 0.60398 0.54559 0.91783 0.0
H656 H 0.55533 0.5353 0.96771 0.0
C657 C 0.54641 0.54496 0.74906 0.0
C658 C 0.53284 0.53207 0.7562 0.0
C659 C 0.55889 0.54808 0.79388 0.0
C660 C 0.56885 0.53798 0.95276 0.0
H661 H 0.65311 0.56647 0.05389 0.0
H662 H 0.62694 0.56781 0.98994 0.0
H663 H 0.57923 0.53703 0.04091 0.0
H664 H 0.5214 0.51254 0.81615 0.0
H665 H 0.54357 0.51731 0.89334 0.0
H666 H 0.59405 0.54572 0.82975 0.0
C667 C 0.62816 0.55669 0.02024 0.0
C668 C 0.58252 0.53908 0.9949 0.0
C669 C 0.64319 0.55587 0.05684 0.0
C670 C 0.53175 0.52257 0.80948 0.0
C671 C 0.54442 0.52545 0.85397 0.0
C672 C 0.59041 0.54422 0.87567 0.0
C673 C 0.61506 0.54311 0.02166 0.0
C674 C 0.60025 0.54285 0.97784 0.0
C675 C 0.55833 0.53811 0.84661 0.0
C676 C 0.57262 0.54033 0.89234 0.0
H677 H 0.63352 0.51657 0.12674 0.0
H678 H 0.6071 0.51837 0.06425 0.0
H679 H 0.61755 0.54822 0.90316 0.0
H680 H 0.54738 0.55267 0.70872 0.0
H681 H 0.56903 0.55828 0.78691 0.0
C682 C 0.01722 0.66193 0.05576 0.0
C683 C 1.00155 0.66933 0.07962 0.0
C684 C 0.01631 0.64892 0.01176 0.0
C685 C 0.98693 0.61533 0.94085 0.0
H686 H 0.01966 0.62162 0.80953 0.0
C687 C 0.99872 0.56141 0.75961 0.0
C688 C 1.00053 0.56758 0.70142 0.0
C689 C 0.99755 0.57353 0.80653 0.0
C690 C 0.01033 0.6197 0.84562 0.0
H691 H 0.97256 0.66835 0.07656 0.0
H692 H 0.97098 0.64555 0.99925 0.0
H693 H 0.01999 0.64303 0.89013 0.0
H694 H 1.00232 0.59125 0.64659 0.0
H695 H 1.00028 0.61236 0.72806 0.0
H696 H 0.97726 0.59194 0.89578 0.0
C697 C 0.98398 0.64986 0.01504 0.0
C698 C 0.01066 0.63189 0.8922 0.0
C699 C 0.98489 0.66302 0.05903 0.0
C700 C 1.00094 0.58608 0.69098 0.0
C701 C 0.99986 0.59818 0.73773 0.0
C702 C 0.9867 0.603 0.89428 0.0
C703 C 0.99971 0.64288 0.99021 0.0
C704 C 0.99901 0.62986 0.94051 0.0
C705 C 0.99834 0.59208 0.79619 0.0
C706 C 0.99839 0.60507 0.84601 0.0
H707 H 0.0303 0.66661 0.06969 0.0
H708 H 0.02869 0.64368 0.99418 0.0
H709 H 0.97784 0.61333 0.97753 0.0
H710 H 0.99875 0.54725 0.76907 0.0
H711 H 0.99661 0.56838 0.85104 0.0
C712 C 0.04961 0.22814 0.38815 0.0
C713 C 0.03623 0.23973 0.368 0.0
C714 C 0.04515 0.21362 0.42412 0.0
C715 C 0.00901 0.19125 0.50914 0.0
H716 H 0.02322 0.1494 0.42039 0.0
C717 C 0.99195 0.11699 0.56721 0.0
C718 C 0.98517 0.1069 0.51994 0.0
C719 C 0.99808 0.13444 0.55822 0.0
C720 C 0.01921 0.16097 0.44565 0.0
H721 H 0.00803 0.24628 0.37539 0.0
H722 H 1.00043 0.22124 0.43874 0.0
H723 H 0.03622 0.17845 0.3961 0.0
H724 H 0.97884 0.10713 0.42694 0.0
H725 H 0.98988 0.1377 0.41079 0.0
H726 H 0.99169 0.17357 0.55787 0.0
C727 C 0.01433 0.22331 0.42659 0.0
C728 C 0.02683 0.17754 0.43242 0.0
C729 C 0.01873 0.23772 0.39021 0.0
C730 C 0.98395 0.11472 0.46399 0.0
C731 C 0.99035 0.13208 0.45477 0.0
C732 C 1.00158 0.17455 0.52305 0.0
C733 C 0.02729 0.2106 0.44102 0.0
C734 C 0.02153 0.19289 0.46314 0.0
C735 C 0.99778 0.14191 0.50159 0.0
C736 C 0.00631 0.1594 0.49028 0.0
H737 H 0.0633 0.22959 0.373 0.0
H738 H 0.05544 0.2041 0.43551 0.0
H739 H 0.00468 0.20294 0.53324 0.0
H740 H 0.99293 0.11118 0.61076 0.0
H741 H 1.00378 0.14179 0.59487 0.0
C742 C 0.29494 0.94507 0.25356 0.0
C743 C 0.27904 0.94971 0.28228 0.0
C744 C 0.30821 0.93581 0.28347 0.0
C745 C 0.32534 0.93455 0.43175 0.0
H746 H 0.3631 0.90849 0.35316 0.0
C747 C 0.39728 0.94104 0.51172 0.0
C748 C 0.40804 0.94821 0.46636 0.0
C749 C 0.38103 0.93255 0.49869 0.0
C750 C 0.35259 0.91551 0.37622 0.0
H751 H 0.26371 0.94713 0.36281 0.0
H752 H 0.28711 0.93086 0.41594 0.0
H753 H 0.33293 0.90826 0.31188 0.0
H754 H 0.41069 0.95085 0.37149 0.0
H755 H 0.38263 0.93591 0.34895 0.0
H756 H 0.34519 0.94276 0.49388 0.0
C757 C 0.28933 0.93446 0.37027 0.0
C758 C 0.33533 0.9154 0.35262 0.0
C759 C 0.27594 0.94367 0.33997 0.0
C760 C 0.40289 0.94538 0.40758 0.0
C761 C 0.38675 0.93675 0.39459 0.0
C762 C 0.34254 0.93454 0.45557 0.0
C763 C 0.30591 0.93109 0.34301 0.0
C764 C 0.32184 0.92591 0.37797 0.0
C765 C 0.37533 0.93087 0.44004 0.0
C766 C 0.35657 0.92595 0.42595 0.0
H767 H 0.29753 0.94952 0.20887 0.0
H768 H 0.32083 0.9337 0.26113 0.0
H769 H 0.31532 0.94284 0.45243 0.0
H770 H 0.40108 0.94259 0.55746 0.0
H771 H 0.37255 0.928 0.53454 0.0
C772 C 0.55111 0.29134 0.3652 0.0
C773 C 0.56282 0.29087 0.31658 0.0
C774 C 0.55118 0.30591 0.40326 0.0
C775 C 0.5719 0.34933 0.44222 0.0
H776 H 0.52299 0.36571 0.42823 0.0
C777 C 0.55114 0.42333 0.47187 0.0
C778 C 0.53384 0.42686 0.4933 0.0
C779 C 0.55662 0.40576 0.46185 0.0
C780 C 0.53663 0.36129 0.43414 0.0
H781 H 0.58577 0.30405 0.27611 0.0
H782 H 0.58529 0.32995 0.34137 0.0
H783 H 0.53043 0.33594 0.39653 0.0
H784 H 0.50897 0.41437 0.52252 0.0
H785 H 0.5189 0.38406 0.50907 0.0
H786 H 0.57804 0.37497 0.47955 0.0
C787 C 0.57606 0.31899 0.34968 0.0
C788 C 0.54091 0.34415 0.41577 0.0
C789 C 0.57615 0.30424 0.31181 0.0
C790 C 0.52247 0.41233 0.50669 0.0
C791 C 0.52808 0.39484 0.49797 0.0
C792 C 0.56755 0.36654 0.46156 0.0
C793 C 0.56279 0.32042 0.39322 0.0
C794 C 0.55857 0.33801 0.41917 0.0
C795 C 0.54502 0.39131 0.47388 0.0
C796 C 0.54985 0.37276 0.45723 0.0
H797 H 0.54061 0.28143 0.37093 0.0
H798 H 0.54104 0.30657 0.43733 0.0
H799 H 0.58564 0.3449 0.44494 0.0
H800 H 0.56044 0.43412 0.46227 0.0
H801 H 0.56973 0.40358 0.44293 0.0
C802 C 0.20115 0.42265 0.2703 0.0
C803 C 0.20317 0.42549 0.20941 0.0
C804 C 0.18419 0.4232 0.29629 0.0
C805 C 0.13528 0.42766 0.2657 0.0
H806 H 0.13826 0.46331 0.38907 0.0
C807 C 0.0776 0.4759 0.32177 0.0
C808 C 0.0756 0.48146 0.38053 0.0
C809 C 0.09179 0.46483 0.30555 0.0
C810 C 0.13705 0.45306 0.35564 0.0
H811 H 0.1887 0.42923 0.12743 0.0
H812 H 0.15937 0.43009 0.17249 0.0
H813 H 0.16528 0.4492 0.3544 0.0
H814 H 0.08697 0.47948 0.46837 0.0
H815 H 0.11102 0.45974 0.44066 0.0
H816 H 0.10697 0.43209 0.26586 0.0
C817 C 0.17079 0.42738 0.20033 0.0
C818 C 0.15262 0.44489 0.33582 0.0
C819 C 0.18771 0.42685 0.17439 0.0
C820 C 0.08786 0.47531 0.42282 0.0
C821 C 0.10186 0.46414 0.40679 0.0
C822 C 0.11962 0.43581 0.28578 0.0
C823 C 0.16896 0.42659 0.26184 0.0
C824 C 0.152 0.43241 0.28969 0.0
C825 C 0.10423 0.45904 0.34782 0.0
C826 C 0.1204 0.44891 0.33011 0.0
H827 H 0.21277 0.42121 0.29833 0.0
H828 H 0.18313 0.42215 0.34376 0.0
H829 H 0.13437 0.418 0.2303 0.0
H830 H 0.06827 0.48018 0.28823 0.0
H831 H 0.09332 0.4613 0.25959 0.0
C832 C 0.10312 0.80631 0.06058 0.0
C833 C 0.08681 0.79808 0.04472 0.0
C834 C 0.10869 0.82219 0.0332 0.0
C835 C 0.09706 0.85439 0.9131 0.0
H836 H 0.10305 0.8898 0.03618 0.0
C837 C 0.0803 0.92797 0.87073 0.0
C838 C 0.06813 0.93458 0.91258 0.0
C839 C 0.09007 0.9125 0.88228 0.0
C840 C 0.1016 0.88009 1.00111 0.0
H841 H 0.06442 0.79944 0.98388 0.0
H842 H 0.07415 0.82662 0.93636 0.0
H843 H 0.10725 0.85835 0.05895 0.0
H844 H 0.05727 0.93048 1.00029 0.0
H845 H 0.07419 0.90369 0.02035 0.0
H846 H 0.0898 0.87601 0.85664 0.0
C847 C 0.08277 0.82088 0.96956 0.0
C848 C 0.10423 0.86205 0.01394 0.0
C849 C 0.07715 0.80515 0.99706 0.0
C850 C 0.06668 0.92594 0.96736 0.0
C851 C 0.07646 0.91055 0.97893 0.0
C852 C 0.09435 0.87244 0.90033 0.0
C853 C 0.09813 0.83004 0.98915 0.0
C854 C 0.10099 0.84893 0.9709 0.0
C855 C 0.08792 0.90338 0.93601 0.0
C856 C 0.09561 0.88535 0.9451 0.0
H857 H 0.11111 0.801 0.0962 0.0
H858 H 0.12074 0.82881 0.04863 0.0
H859 H 0.09479 0.84461 0.87874 0.0
H860 H 0.08197 0.93453 0.82848 0.0
H861 H 0.09893 0.9074 0.84857 0.0
C862 C 0.721 0.02565 0.91771 0.0
C863 C 0.72081 0.00971 0.95037 0.0
C864 C 0.70892 0.02806 0.87151 0.0
C865 C 0.67108 0.00548 0.79036 0.0
H866 H 0.64788 0.05076 0.81961 0.0
C867 C 0.59606 0.01433 0.81489 0.0
C868 C 0.58785 0.03007 0.79519 0.0
C869 C 0.6144 0.0119 0.80733 0.0
C870 C 0.65435 0.03823 0.80944 0.0
H871 H 0.70895 0.98329 0.95777 0.0
H872 H 0.68749 0.98763 0.87926 0.0
H873 H 0.67818 0.04635 0.85333 0.0
H874 H 0.59231 0.05502 0.74817 0.0
H875 H 0.62458 0.05104 0.73737 0.0
H876 H 0.64631 0.99697 0.75133 0.0
C877 C 0.69715 0.99819 0.88762 0.0
C878 C 0.67184 0.03567 0.82866 0.0
C879 C 0.70941 0.99569 0.93308 0.0
C880 C 0.5983 0.04298 0.76546 0.0
C881 C 0.61671 0.04062 0.75848 0.0
C882 C 0.65345 0.00798 0.77185 0.0
C883 C 0.69618 0.01472 0.85808 0.0
C884 C 0.68009 0.01893 0.82227 0.0
C885 C 0.62496 0.02522 0.78041 0.0
C886 C 0.64467 0.02409 0.78396 0.0
H887 H 0.72991 0.03655 0.92973 0.0
H888 H 0.70887 0.04078 0.84871 0.0
H889 H 0.6772 0.9926 0.78316 0.0
H890 H 0.58847 0.00417 0.83831 0.0
H891 H 0.62047 1.00004 0.82566 0.0
C892 C 0.54005 0.74048 0.99129 0.0
C893 C 0.55519 0.74546 0.0244 0.0
C894 C 0.53969 0.72444 0.96029 0.0
C895 C 0.55763 0.68007 0.97808 0.0
H896 H 0.52801 0.67039 0.84154 0.0
C897 C 0.51786 0.61462 0.95085 0.0
C898 C 0.51579 0.60742 0.89419 0.0
C899 C 0.52643 0.63112 0.95863 0.0
C900 C 0.53659 0.67279 0.87918 0.0
H901 H 0.58257 0.73838 0.04513 0.0
H902 H 0.58181 0.7101 0.99134 0.0
H903 H 0.53782 0.70088 0.86173 0.0
H904 H 0.52098 0.61196 0.80115 0.0
H905 H 0.53627 0.64045 0.81496 0.0
H906 H 0.55608 0.65202 0.99622 0.0
C907 C 0.57014 0.71859 0.99034 0.0
C908 C 0.54211 0.69029 0.8909 0.0
C909 C 0.57055 0.73476 0.02118 0.0
C910 C 0.52259 0.617 0.84556 0.0
C911 C 0.5312 0.63343 0.85334 0.0
C912 C 0.55214 0.66256 0.96627 0.0
C913 C 0.55441 0.71292 0.96179 0.0
C914 C 0.55214 0.6942 0.94164 0.0
C915 C 0.5331 0.64075 0.90989 0.0
C916 C 0.54105 0.65882 0.91784 0.0
H917 H 0.52784 0.74815 0.99317 0.0
H918 H 0.52728 0.72042 0.93932 0.0
H919 H 0.56522 0.68263 0.01783 0.0
H920 H 0.51287 0.60751 0.98917 0.0
H921 H 0.52743 0.63653 0.00274 0.0
C922 C 0.77892 0.44101 0.97945 0.0
C923 C 0.77104 0.458 0.97582 0.0
C924 C 0.79352 0.43671 0.94357 0.0
C925 C 0.82149 0.45374 0.81824 0.0
H926 H 0.86115 0.43934 0.91703 0.0
C927 C 0.89139 0.48368 0.80054 0.0
C928 C 0.90651 0.47273 0.80583 0.0
C929 C 0.87422 0.47657 0.80747 0.0
C930 C 0.85019 0.44296 0.8883 0.0
H931 H 0.77177 0.48331 0.92869 0.0
H932 H 0.79672 0.47581 0.86667 0.0
H933 H 0.8306 0.43533 0.9524 0.0
H934 H 0.91523 0.44549 0.82118 0.0
H935 H 0.88508 0.43327 0.83604 0.0
H936 H 0.84127 0.46274 0.75633 0.0
C937 C 0.79162 0.46566 0.89647 0.0
C938 C 0.83265 0.4406 0.90842 0.0
C939 C 0.77718 0.46998 0.93234 0.0
C940 C 0.90394 0.4544 0.81785 0.0
C941 C 0.8867 0.44734 0.82576 0.0
C942 C 0.83902 0.45626 0.79843 0.0
C943 C 0.80042 0.44927 0.90319 0.0
C944 C 0.81816 0.44683 0.87489 0.0
C945 C 0.87171 0.45839 0.82073 0.0
C946 C 0.85351 0.45167 0.83454 0.0
H947 H 0.77431 0.43133 0.0117 0.0
H948 H 0.79988 0.42387 0.94923 0.0
H949 H 0.81059 0.4583 0.79084 0.0
H950 H 0.89277 0.4979 0.79266 0.0
H951 H 0.86289 0.48548 0.80473 0.0
C952 C 0.02737 0.20472 0.86194 0.0
C953 C 0.01605 0.21187 0.90545 0.0
C954 C 0.02513 0.18705 0.84252 0.0
C955 C 0.00604 0.14347 0.89045 0.0
H956 H 0.0128 0.13009 0.72708 0.0
C957 C 0.01014 0.06927 0.81703 0.0
C958 C 1.00161 0.06452 0.76403 0.0
C959 C 0.01194 0.08727 0.83349 0.0
C960 C 0.01076 0.13358 0.77288 0.0
H961 H 0.99331 0.20589 0.96185 0.0
H962 H 0.98923 0.17531 0.92729 0.0
H963 H 0.01507 0.16147 0.75558 0.0
H964 H 0.98808 0.0752 0.68725 0.0
H965 H 0.99097 0.10637 0.71641 0.0
H966 H 1.00148 0.11564 0.90769 0.0
C967 C 0.99998 0.18331 0.90859 0.0
C968 C 0.01224 0.15159 0.78932 0.0
C969 C 1.00216 0.20098 0.92783 0.0
C970 C 0.99492 0.07827 0.72804 0.0
C971 C 0.99667 0.09623 0.74459 0.0
C972 C 0.00463 0.12546 0.87407 0.0
C973 C 0.01158 0.176 0.86627 0.0
C974 C 0.00987 0.15681 0.84835 0.0
C975 C 0.00522 0.10102 0.79747 0.0
C976 C 0.00695 0.12024 0.81504 0.0
H977 H 0.03812 0.21273 0.84334 0.0
H978 H 0.03439 0.1819 0.81012 0.0
H979 H 0.00434 0.14691 0.93643 0.0
H980 H 0.0155 0.05909 0.84583 0.0
H981 H 0.01878 0.09042 0.87423 0.0
C982 C 0.29927 0.05081 0.89878 0.0
C983 C 0.28973 0.0348 0.90883 0.0
C984 C 0.31616 0.05063 0.8718 0.0
C985 C 0.34712 0.02158 0.78537 0.0
H986 H 0.38365 0.05334 0.84787 0.0
C987 C 0.41877 0.02424 0.6873 0.0
C988 C 0.43314 0.02631 0.72675 0.0
C989 C 0.40106 0.02611 0.70657 0.0
C990 C 0.37367 0.04426 0.83013 0.0
H991 H 0.29063 0.00601 0.89813 0.0
H992 H 0.31992 0.00566 0.85175 0.0
H993 H 0.35321 0.05492 0.88566 0.0
H994 H 0.44002 0.03189 0.81775 0.0
H995 H 0.40925 0.03476 0.85148 0.0
H996 H 0.36772 0.01042 0.73156 0.0
C997 C 0.31426 0.01845 0.86337 0.0
C998 C 0.35608 0.04536 0.85123 0.0
C999 C 0.29737 0.01866 0.89001 0.0
C1000 C 0.42933 0.0303 0.78596 0.0
C1001 C 0.41162 0.03207 0.80529 0.0
C1002 C 0.36471 0.02042 0.76446 0.0
C1003 C 0.32403 0.0344 0.8545 0.0
C1004 C 0.34257 0.03394 0.82952 0.0
C1005 C 0.39721 0.03 0.7659 0.0
C1006 C 0.37829 0.03165 0.78684 0.0
H1007 H 0.29373 0.0635 0.91228 0.0
H1008 H 0.32311 0.06322 0.86482 0.0
H1009 H 0.33708 0.0127 0.76691 0.0
H1010 H 0.42115 0.02125 0.64131 0.0
H1011 H 0.39039 0.02467 0.67467 0.0
C1012 C 0.47123 0.33571 0.93556 0.0
C1013 C 0.48469 0.32355 0.91982 0.0
C1014 C 0.47052 0.35273 0.9098 0.0
C1015 C 0.49953 0.38586 0.83209 0.0
H1016 H 0.45467 0.40992 0.80278 0.0
C1017 C 0.49675 0.45495 0.71697 0.0
C1018 C 0.48477 0.4676 0.73978 0.0
C1019 C 0.49627 0.43716 0.73629 0.0
C1020 C 0.46732 0.40346 0.81119 0.0
H1021 H 0.5077 0.31983 0.86285 0.0
H1022 H 0.50612 0.34917 0.81671 0.0
H1023 H 0.4544 0.37919 0.83896 0.0
H1024 H 0.46287 0.47131 0.8012 0.0
H1025 H 0.46211 0.44032 0.8352 0.0
H1026 H 0.51244 0.41012 0.80432 0.0
C1027 C 0.49628 0.34569 0.84997 0.0
C1028 C 0.46718 0.3858 0.832 0.0
C1029 C 0.49702 0.32869 0.87585 0.0
C1030 C 0.47229 0.46196 0.78252 0.0
C1031 C 0.47176 0.44413 0.80173 0.0
C1032 C 0.49967 0.40348 0.81107 0.0
C1033 C 0.48323 0.3581 0.86734 0.0
C1034 C 0.48329 0.37674 0.84302 0.0
C1035 C 0.4838 0.43149 0.77905 0.0
C1036 C 0.48357 0.41257 0.80054 0.0
H1037 H 0.46135 0.3322 0.96865 0.0
H1038 H 0.46033 0.36187 0.92474 0.0
H1039 H 0.51222 0.37955 0.84108 0.0
H1040 H 0.50676 0.4588 0.68475 0.0
H1041 H 0.50565 0.42781 0.7174 0.0
C1042 C 0.18559 0.52205 0.89169 0.0
C1043 C 0.19843 0.51134 0.86332 0.0
C1044 C 0.16859 0.5245 0.86705 0.0
C1045 C 0.13549 0.50102 0.78177 0.0
H1046 H 0.11335 0.54682 0.75128 0.0
C1047 C 0.05919 0.5112 0.74392 0.0
C1048 C 0.05489 0.51939 0.69004 0.0
C1049 C 0.07697 0.51065 0.76337 0.0
C1050 C 0.11941 0.53396 0.75965 0.0
H1051 H 0.20349 0.49591 0.78403 0.0
H1052 H 0.17359 0.49948 0.74306 0.0
H1053 H 0.14432 0.54576 0.78766 0.0
H1054 H 0.06583 0.53369 0.61486 0.0
H1055 H 0.09683 0.53327 0.65012 0.0
H1056 H 0.11042 0.48923 0.75574 0.0
C1057 C 0.17682 0.50594 0.78444 0.0
C1058 C 0.13705 0.53336 0.78053 0.0
C1059 C 0.19393 0.50382 0.8083 0.0
C1060 C 0.06872 0.52722 0.65645 0.0
C1061 C 0.08643 0.52707 0.67666 0.0
C1062 C 0.11773 0.50164 0.76235 0.0
C1063 C 0.1639 0.51604 0.81405 0.0
C1064 C 0.14528 0.51687 0.79144 0.0
C1065 C 0.09073 0.51867 0.73011 0.0
C1066 C 0.10955 0.5181 0.75088 0.0
H1067 H 0.18829 0.5279 0.93437 0.0
H1068 H 0.15882 0.53231 0.89085 0.0
H1069 H 0.1415 0.48815 0.79025 0.0
H1070 H 0.04886 0.50498 0.77069 0.0
H1071 H 0.07995 0.50412 0.80479 0.0
C1072 C 1.00164 0.81947 0.48086 0.0
C1073 C 0.99613 0.81719 0.42202 0.0
C1074 C 0.99989 0.83601 0.50913 0.0
C1075 C 0.99616 0.88425 0.47454 0.0
H1076 H 0.98429 0.88884 0.64011 0.0
C1077 C 0.98472 0.95321 0.58067 0.0
C1078 C 0.9916 0.95633 0.63745 0.0
C1079 C 0.98462 0.93604 0.55638 0.0
C1080 C 0.98782 0.88779 0.59397 0.0
H1081 H 0.98392 0.83059 0.34765 0.0
H1082 H 0.98045 0.8592 0.39726 0.0
H1083 H 0.98461 0.85927 0.59452 0.0
H1084 H 1.00365 0.94356 0.71334 0.0
H1085 H 1.00361 0.91357 0.67064 0.0
H1086 H 0.9995 0.91267 0.47384 0.0
C1087 C 0.98643 0.84827 0.42132 0.0
C1088 C 0.98797 0.87081 0.56776 0.0
C1089 C 0.98817 0.83173 0.39308 0.0
C1090 C 0.9982 0.9417 0.66957 0.0
C1091 C 0.9981 0.92446 0.64516 0.0
C1092 C 0.99601 0.90118 0.50067 0.0
C1093 C 0.99259 0.85075 0.47935 0.0
C1094 C 0.9921 0.86881 0.50759 0.0
C1095 C 0.99143 0.92142 0.58798 0.0
C1096 C 0.99178 0.90322 0.56071 0.0
H1097 H 0.00765 0.80854 0.50483 0.0
H1098 H 0.00485 0.83739 0.5537 0.0
H1099 H 0.9998 0.88326 0.42848 0.0
H1100 H 0.9794 0.96406 0.55456 0.0
H1101 H 0.97907 0.93422 0.51273 0.0
C1102 C 0.67371 0.01908 0.4133 0.0
C1103 C 0.6869 0.00782 0.43685 0.0
C1104 C 0.65643 0.01937 0.43697 0.0
C1105 C 0.62912 0.00706 0.56814 0.0
H1106 H 0.59007 0.01019 0.45639 0.0
C1107 C 0.55557 0.01992 0.63946 0.0
C1108 C 0.5417 0.01166 0.60722 0.0
C1109 C 0.57344 0.01855 0.62137 0.0
C1110 C 0.60074 0.0091 0.48836 0.0
H1111 H 0.69212 0.98828 0.50523 0.0
H1112 H 0.66179 0.98857 0.54603 0.0
H1113 H 0.6207 0.00944 0.42083 0.0
H1114 H 0.53592 0.9952 0.53101 0.0
H1115 H 0.56703 0.99261 0.49978 0.0
H1116 H 0.60902 0.00642 0.63571 0.0
C1117 C 0.66495 0.99732 0.50936 0.0
C1118 C 0.61841 0.00894 0.46791 0.0
C1119 C 0.68231 0.99703 0.48558 0.0
C1120 C 0.54621 1.00182 0.55674 0.0
C1121 C 0.56409 1.00041 0.53868 0.0
C1122 C 0.61138 0.00722 0.58869 0.0
C1123 C 0.6517 0.00833 0.4848 0.0
C1124 C 0.63287 0.00804 0.50741 0.0
C1125 C 0.57797 0.00891 0.57036 0.0
C1126 C 0.59693 0.00828 0.54902 0.0
H1127 H 0.67654 0.02739 0.37527 0.0
H1128 H 0.64672 0.02824 0.41739 0.0
H1129 H 0.63989 0.00647 0.59993 0.0
H1130 H 0.5526 0.02787 0.67797 0.0
H1131 H 0.58364 0.02551 0.64651 0.0
C1132 C 0.48961 0.71706 0.48946 0.0
C1133 C 0.50188 0.7209 0.44415 0.0
C1134 C 0.48806 0.69964 0.51232 0.0
C1135 C 0.51236 0.65576 0.51424 0.0
H1136 H 0.46715 0.63726 0.57323 0.0
C1137 C 0.49896 0.58048 0.55781 0.0
C1138 C 0.49184 0.57605 0.61338 0.0
C1139 C 0.50001 0.59834 0.53932 0.0
C1140 C 0.47988 0.6423 0.55717 0.0
H1141 H 0.52144 0.70941 0.38524 0.0
H1142 H 0.51822 0.67914 0.42252 0.0
H1143 H 0.46898 0.66791 0.5362 0.0
H1144 H 0.48002 0.58698 0.69276 0.0
H1145 H 0.48143 0.61813 0.65959 0.0
H1146 H 0.523 0.62985 0.53324 0.0
C1147 C 0.51034 0.68952 0.44286 0.0
C1148 C 0.481 0.65994 0.53618 0.0
C1149 C 0.51211 0.70691 0.42097 0.0
C1150 C 0.4856 0.58991 0.64972 0.0
C1151 C 0.48633 0.60775 0.63069 0.0
C1152 C 0.51114 0.63807 0.53411 0.0
C1153 C 0.4985 0.68559 0.48956 0.0
C1154 C 0.49725 0.66693 0.51397 0.0
C1155 C 0.49365 0.61216 0.57544 0.0
C1156 C 0.49489 0.63112 0.55558 0.0
H1157 H 0.48157 0.72762 0.50814 0.0
H1158 H 0.47891 0.69731 0.54858 0.0
H1159 H 0.52527 0.66064 0.49935 0.0
H1160 H 0.50393 0.57017 0.52878 0.0
H1161 H 0.50564 0.60134 0.4964 0.0
C1162 C 0.80632 0.52102 0.44218 0.0
C1163 C 0.80234 0.52971 0.38879 0.0
C1164 C 0.82357 0.52185 0.4661 0.0
C1165 C 0.86688 0.54657 0.46045 0.0
H1166 H 0.88631 0.50171 0.51574 0.0
C1167 C 0.94232 0.53813 0.5143 0.0
C1168 C 0.94697 0.52703 0.5619 0.0
C1169 C 0.92454 0.53916 0.49501 0.0
C1170 C 0.88107 0.51443 0.50139 0.0
H1171 H 0.8135 0.54657 0.31984 0.0
H1172 H 0.84347 0.5482 0.36199 0.0
H1173 H 0.85557 0.50278 0.4809 0.0
H1174 H 0.93635 0.50807 0.62558 0.0
H1175 H 0.90547 0.51034 0.59368 0.0
H1176 H 0.89239 0.55825 0.48112 0.0
C1177 C 0.83319 0.54079 0.38548 0.0
C1178 C 0.86339 0.51504 0.4813 0.0
C1179 C 0.81594 0.5399 0.36138 0.0
C1180 C 0.93333 0.51701 0.58958 0.0
C1181 C 0.91556 0.51812 0.57057 0.0
C1182 C 0.88457 0.54599 0.48089 0.0
C1183 C 0.83733 0.53147 0.4375 0.0
C1184 C 0.85605 0.53109 0.46044 0.0
C1185 C 0.91089 0.52914 0.5228 0.0
C1186 C 0.89195 0.5299 0.50155 0.0
H1187 H 0.79614 0.51333 0.46517 0.0
H1188 H 0.82618 0.51481 0.50686 0.0
H1189 H 0.86162 0.5592 0.44526 0.0
H1190 H 0.95244 0.546 0.49163 0.0
H1191 H 0.92157 0.5476 0.45755 0.0
loop_
_geom_bond_atom_site_label_1
_geom_bond_atom_site_label_2
_geom_bond_distance
_geom_bond_site_symmetry_2
_ccdc_geom_bond_type
C0 C1 1.386 . S
C0 C2 1.397 . S
C0 H24 0.931 . S
C1 C0 1.386 . S
C1 C5 1.397 . S
C2 C0 1.397 . S
C2 C3 1.384 . S
C2 H25 0.930 . S
C3 C2 1.384 . S
C3 C4 1.377 . S
C3 C6 1.481 . S
C4 C3 1.377 . S
C4 C5 1.389 . S
C4 H26 0.929 . S
C5 C1 1.397 . S
C5 C4 1.389 . S
C5 H27 0.931 . S
C6 C3 1.481 . S
C6 C7 1.387 . S
C6 C11 1.390 . S
C7 C6 1.387 . S
C7 C8 1.401 . S
C7 H28 0.930 . S
C8 C7 1.401 . S
C8 C9 1.376 . S
C8 C17 1.511 . S
C9 C8 1.376 . S
C9 C10 1.392 . S
C9 H30 0.931 . S
C10 C9 1.392 . S
C10 C11 1.361 . S
C10 C12 1.500 . S
C11 C6 1.390 . S
C11 C10 1.361 . S
C11 H29 0.931 . S
C12 C10 1.500 . S
C12 C13 1.371 . S
C12 C14 1.365 . S
C13 C12 1.371 . S
C13 C23 1.386 . S
C13 H31 0.931 . S
C14 C12 1.365 . S
C14 C15 1.409 . S
C14 H32 0.929 . S
C15 C14 1.409 . S
C15 C16 1.380 . S
C15 H33 0.930 . S
C16 C15 1.380 . S
C16 C23 1.357 . S
C17 C8 1.511 . S
C17 C18 1.341 . S
C17 C19 1.371 . S
C18 C17 1.341 . S
C18 C22 1.394 . S
C18 H34 0.930 . S
C19 C17 1.371 . S
C19 C20 1.392 . S
C19 H35 0.931 . S
C20 C19 1.392 . S
C20 C21 1.331 . S
C20 H38 0.932 . S
C21 C20 1.331 . S
C21 C22 1.336 . S
C22 C18 1.394 . S
C22 C21 1.336 . S
C22 H37 0.929 . S
C23 C13 1.386 . S
C23 C16 1.357 . S
C23 H36 0.928 . S
H24 C0 0.931 . S
H25 C2 0.930 . S
H26 C4 0.929 . S
H27 C5 0.931 . S
H28 C7 0.930 . S
H29 C11 0.931 . S
H30 C9 0.931 . S
H31 C13 0.931 . S
H32 C14 0.929 . S
H33 C15 0.930 . S
H34 C18 0.930 . S
H35 C19 0.931 . S
H36 C23 0.928 . S
H37 C22 0.929 . S
H38 C20 0.932 . S
C39 C40 1.394 . S
C39 C41 1.397 . S
C39 H63 0.931 . S
C40 C39 1.394 . S
C40 C44 1.389 1_655 S
C41 C39 1.397 . S
C41 C42 1.389 . S
C41 H64 0.930 . S
C42 C41 1.389 . S
C42 C43 1.373 1_655 S
C42 C45 1.481 . S
C43 C42 1.373 1_455 S
C43 C44 1.389 . S
C43 H65 0.929 . S
C44 C40 1.389 1_455 S
C44 C43 1.389 . S
C44 H66 0.931 . S
C45 C42 1.481 . S
C45 C46 1.388 . S
C45 C50 1.390 . S
C46 C45 1.388 . S
C46 C47 1.403 . S
C46 H67 0.930 . S
C47 C46 1.403 . S
C47 C48 1.376 . S
C47 C56 1.512 . S
C48 C47 1.376 . S
C48 C49 1.392 . S
C48 H69 0.934 . S
C49 C48 1.392 . S
C49 C50 1.361 . S
C49 C51 1.499 1_655 S
C50 C45 1.390 . S
C50 C49 1.361 . S
C50 H68 0.931 . S
C51 C49 1.499 1_455 S
C51 C52 1.364 1_455 S
C51 C53 1.373 . S
C52 C51 1.364 1_655 S
C52 C62 1.386 . S
C52 H70 0.931 . S
C53 C51 1.373 . S
C53 C54 1.409 . S
C53 H71 0.929 . S
C54 C53 1.409 . S
C54 C55 1.378 . S
C54 H72 0.930 . S
C55 C54 1.378 . S
C55 C62 1.360 1_455 S
C56 C47 1.512 . S
C56 C57 1.341 . S
C56 C58 1.371 1_655 S
C57 C56 1.341 . S
C57 C61 1.394 . S
C57 H73 0.930 . S
C58 C56 1.371 1_455 S
C58 C59 1.392 . S
C58 H74 0.931 . S
C59 C58 1.392 . S
C59 C60 1.322 1_455 S
C59 H77 0.932 . S
C60 C59 1.322 1_655 S
C60 C61 1.345 . S
C61 C57 1.394 . S
C61 C60 1.345 . S
C61 H76 0.929 . S
C62 C52 1.386 . S
C62 C55 1.360 1_655 S
C62 H75 0.928 . S
H63 C39 0.931 . S
H64 C41 0.930 . S
H65 C43 0.929 . S
H66 C44 0.931 . S
H67 C46 0.930 . S
H68 C50 0.931 . S
H69 C48 0.934 . S
H70 C52 0.931 . S
H71 C53 0.929 . S
H72 C54 0.930 . S
H73 C57 0.930 . S
H74 C58 0.931 . S
H75 C62 0.928 . S
H76 C61 0.929 . S
H77 C59 0.932 . S
C78 C79 1.386 . S
C78 C80 1.397 . S
C78 H102 0.931 . S
C79 C78 1.386 . S
C79 C83 1.434 . S
C80 C78 1.397 . S
C80 C81 1.384 . S
C80 H103 0.930 . S
C81 C80 1.384 . S
C81 C82 1.377 . S
C81 C84 1.481 . S
C82 C81 1.377 . S
C82 C83 1.391 . S
C82 H104 0.929 1_565 S
C83 C79 1.434 . S
C83 C82 1.391 . S
C83 H105 0.895 1_565 S
C84 C81 1.481 . S
C84 C85 1.387 . S
C84 C89 1.390 . S
C85 C84 1.387 . S
C85 C86 1.401 . S
C85 H106 0.930 . S
C86 C85 1.401 . S
C86 C87 1.376 . S
C86 C95 1.511 . S
C87 C86 1.376 . S
C87 C88 1.392 . S
C87 H108 0.931 . S
C88 C87 1.392 . S
C88 C89 1.361 . S
C88 C90 1.500 . S
C89 C84 1.390 . S
C89 C88 1.361 . S
C89 H107 0.931 . S
C90 C88 1.500 . S
C90 C91 1.371 . S
C90 C92 1.365 . S
C91 C90 1.371 . S
C91 C101 1.386 . S
C91 H109 0.931 . S
C92 C90 1.365 . S
C92 C93 1.409 . S
C92 H110 0.929 1_565 S
C93 C92 1.409 . S
C93 C94 1.380 . S
C93 H111 0.930 1_565 S
C94 C93 1.380 . S
C94 C101 1.357 . S
C95 C86 1.511 . S
C95 C96 1.341 . S
C95 C97 1.371 . S
C96 C95 1.341 . S
C96 C100 1.394 . S
C96 H112 0.930 . S
C97 C95 1.371 . S
C97 C98 1.392 . S
C97 H113 0.931 . S
C98 C97 1.392 . S
C98 C99 1.331 . S
C98 H116 0.932 . S
C99 C98 1.331 . S
C99 C100 1.336 . S
C100 C96 1.394 . S
C100 C99 1.336 . S
C100 H115 0.929 . S
C101 C91 1.386 . S
C101 C94 1.357 . S
C101 H114 0.928 . S
H102 C78 0.931 . S
H103 C80 0.930 . S
H104 C82 0.929 1_545 S
H105 C83 0.895 1_545 S
H106 C85 0.930 . S
H107 C89 0.931 . S
H108 C87 0.931 . S
H109 C91 0.931 . S
H110 C92 0.929 1_545 S
H111 C93 0.930 1_545 S
H112 C96 0.930 . S
H113 C97 0.931 . S
H114 C101 0.928 . S
H115 C100 0.929 . S
H116 C98 0.932 . S
C117 C118 1.386 . S
C117 C119 1.397 . S
C117 H141 0.931 . S
C118 C117 1.386 . S
C118 C122 1.397 . S
C119 C117 1.397 . S
C119 C120 1.384 . S
C119 H142 0.930 . S
C120 C119 1.384 . S
C120 C121 1.377 . S
C120 C123 1.481 . S
C121 C120 1.377 . S
C121 C122 1.389 . S
C121 H143 0.929 . S
C122 C118 1.397 . S
C122 C121 1.389 . S
C122 H144 0.931 . S
C123 C120 1.481 . S
C123 C124 1.387 . S
C123 C128 1.390 . S
C124 C123 1.387 . S
C124 C125 1.401 . S
C124 H145 0.930 . S
C125 C124 1.401 . S
C125 C126 1.376 . S
C125 C134 1.511 . S
C126 C125 1.376 . S
C126 C127 1.392 . S
C126 H147 0.931 . S
C127 C126 1.392 . S
C127 C128 1.361 . S
C127 C129 1.500 . S
C128 C123 1.390 . S
C128 C127 1.361 . S
C128 H146 0.931 . S
C129 C127 1.500 . S
C129 C130 1.371 . S
C129 C131 1.365 . S
C130 C129 1.371 . S
C130 C140 1.386 . S
C130 H148 0.931 . S
C131 C129 1.365 . S
C131 C132 1.409 . S
C131 H149 0.929 . S
C132 C131 1.409 . S
C132 C133 1.380 . S
C132 H150 0.930 . S
C133 C132 1.380 . S
C133 C140 1.357 . S
C134 C125 1.511 . S
C134 C135 1.341 . S
C134 C136 1.371 . S
C135 C134 1.341 . S
C135 C139 1.394 . S
C135 H151 0.930 . S
C136 C134 1.371 . S
C136 C137 1.392 . S
C136 H152 0.931 . S
C137 C136 1.392 . S
C137 C138 1.331 . S
C137 H155 0.932 . S
C138 C137 1.331 . S
C138 C139 1.336 . S
C139 C135 1.394 . S
C139 C138 1.336 . S
C139 H154 0.929 . S
C140 C130 1.386 . S
C140 C133 1.357 . S
C140 H153 0.928 . S
H141 C117 0.931 . S
H142 C119 0.930 . S
H143 C121 0.929 . S
H144 C122 0.931 . S
H145 C124 0.930 . S
H146 C128 0.931 . S
H147 C126 0.931 . S
H148 C130 0.931 . S
H149 C131 0.929 . S
H150 C132 0.930 . S
H151 C135 0.930 . S
H152 C136 0.931 . S
H153 C140 0.928 . S
H154 C139 0.929 . S
H155 C137 0.932 . S
C156 C157 1.386 . S
C156 C158 1.397 . S
C156 H180 0.931 . S
C157 C156 1.386 . S
C157 C161 1.397 . S
C158 C156 1.397 . S
C158 C159 1.384 . S
C158 H181 0.930 . S
C159 C158 1.384 . S
C159 C160 1.377 . S
C159 C162 1.481 . S
C160 C159 1.377 . S
C160 C161 1.389 . S
C160 H182 0.929 . S
C161 C157 1.397 . S
C161 C160 1.389 . S
C161 H183 0.931 . S
C162 C159 1.481 . S
C162 C163 1.387 . S
C162 C167 1.390 . S
C163 C162 1.387 . S
C163 C164 1.401 . S
C163 H184 0.930 . S
C164 C163 1.401 . S
C164 C165 1.376 1_554 S
C164 C173 1.511 . S
C165 C164 1.376 1_556 S
C165 C166 1.392 . S
C165 H186 0.931 . S
C166 C165 1.392 . S
C166 C167 1.361 1_556 S
C166 C168 1.500 . S
C167 C162 1.390 . S
C167 C166 1.361 1_554 S
C167 H185 0.931 . S
C168 C166 1.500 . S
C168 C169 1.371 . S
C168 C170 1.365 . S
C169 C168 1.371 . S
C169 C179 1.386 . S
C169 H187 0.931 . S
C170 C168 1.365 . S
C170 C171 1.409 . S
C170 H188 0.929 . S
C171 C170 1.409 . S
C171 C172 1.380 . S
C171 H189 0.930 . S
C172 C171 1.380 . S
C172 C179 1.357 . S
C173 C164 1.511 . S
C173 C174 1.341 . S
C173 C175 1.371 . S
C174 C173 1.341 . S
C174 C178 1.394 . S
C174 H190 0.930 . S
C175 C173 1.371 . S
C175 C176 1.392 . S
C175 H191 0.931 1_554 S
C176 C175 1.392 . S
C176 C177 1.331 . S
C176 H194 0.932 . S
C177 C176 1.331 . S
C177 C178 1.336 . S
C178 C174 1.394 . S
C178 C177 1.336 . S
C178 H193 0.929 . S
C179 C169 1.386 . S
C179 C172 1.357 . S
C179 H192 0.928 . S
H180 C156 0.931 . S
H181 C158 0.930 . S
H182 C160 0.929 . S
H183 C161 0.931 . S
H184 C163 0.930 . S
H185 C167 0.931 . S
H186 C165 0.931 . S
H187 C169 0.931 . S
H188 C170 0.929 . S
H189 C171 0.930 . S
H190 C174 0.930 . S
H191 C175 0.931 1_556 S
H192 C179 0.928 . S
H193 C178 0.929 . S
H194 C176 0.932 . S
C195 C196 1.386 . S
C195 C197 1.397 . S
C195 H219 0.931 . S
C196 C195 1.386 . S
C196 C200 1.398 1_655 S
C197 C195 1.397 . S
C197 C198 1.389 1_655 S
C197 H220 0.930 . S
C198 C197 1.389 1_455 S
C198 C199 1.372 . S
C198 C201 1.480 1_455 S
C199 C198 1.372 . S
C199 C200 1.389 . S
C199 H221 0.929 . S
C200 C196 1.398 1_455 S
C200 C199 1.389 . S
C200 H222 0.931 . S
C201 C198 1.480 1_655 S
C201 C202 1.386 . S
C201 C206 1.390 . S
C202 C201 1.386 . S
C202 C203 1.401 . S
C202 H223 0.936 . S
C203 C202 1.401 . S
C203 C204 1.376 1_554 S
C203 C212 1.512 . S
C204 C203 1.376 1_556 S
C204 C205 1.391 1_655 S
C204 H225 0.933 . S
C205 C204 1.391 1_455 S
C205 C206 1.361 1_456 S
C205 C207 1.499 . S
C206 C201 1.390 . S
C206 C205 1.361 1_654 S
C206 H224 0.931 1_655 S
C207 C205 1.499 . S
C207 C208 1.357 1_455 S
C207 C209 1.381 . S
C208 C207 1.357 1_655 S
C208 C218 1.386 . S
C208 H226 0.931 . S
C209 C207 1.381 . S
C209 C210 1.409 . S
C209 H227 0.929 . S
C210 C209 1.409 . S
C210 C211 1.384 . S
C210 H228 0.930 . S
C211 C210 1.384 . S
C211 C218 1.353 1_455 S
C212 C203 1.512 . S
C212 C213 1.341 . S
C212 C214 1.371 1_655 S
C213 C212 1.341 . S
C213 C217 1.394 . S
C213 H229 0.930 . S
C214 C212 1.371 1_455 S
C214 C215 1.392 . S
C214 H230 0.931 1_554 S
C215 C214 1.392 . S
C215 C216 1.326 1_455 S
C215 H233 0.932 . S
C216 C215 1.326 1_655 S
C216 C217 1.340 . S
C217 C213 1.394 . S
C217 C216 1.340 . S
C217 H232 0.929 . S
C218 C208 1.386 . S
C218 C211 1.353 1_655 S
C218 H231 0.928 . S
H219 C195 0.931 . S
H220 C197 0.930 . S
H221 C199 0.929 . S
H222 C200 0.931 . S
H223 C202 0.936 . S
H224 C206 0.931 1_455 S
H225 C204 0.933 . S
H226 C208 0.931 . S
H227 C209 0.929 . S
H228 C210 0.930 . S
H229 C213 0.930 . S
H230 C214 0.931 1_556 S
H231 C218 0.928 . S
H232 C217 0.929 . S
H233 C215 0.932 . S
C234 C235 1.386 . S
C234 C236 1.397 . S
C234 H258 0.931 . S
C235 C234 1.386 . S
C235 C239 1.397 . S
C236 C234 1.397 . S
C236 C237 1.384 . S
C236 H259 0.930 . S
C237 C236 1.384 . S
C237 C238 1.377 . S
C237 C240 1.481 . S
C238 C237 1.377 . S
C238 C239 1.389 . S
C238 H260 0.929 . S
C239 C235 1.397 . S
C239 C238 1.389 . S
C239 H261 0.931 . S
C240 C237 1.481 . S
C240 C241 1.387 . S
C240 C245 1.390 . S
C241 C240 1.387 . S
C241 C242 1.401 . S
C241 H262 0.930 . S
C242 C241 1.401 . S
C242 C243 1.376 1_554 S
C242 C251 1.511 . S
C243 C242 1.376 1_556 S
C243 C244 1.392 . S
C243 H264 0.931 . S
C244 C243 1.392 . S
C244 C245 1.361 1_556 S
C244 C246 1.500 . S
C245 C240 1.390 . S
C245 C244 1.361 1_554 S
C245 H263 0.931 . S
C246 C244 1.500 . S
C246 C247 1.371 . S
C246 C248 1.365 . S
C247 C246 1.371 . S
C247 C257 1.386 . S
C247 H265 0.931 . S
C248 C246 1.365 . S
C248 C249 1.409 . S
C248 H266 0.929 . S
C249 C248 1.409 . S
C249 C250 1.380 . S
C249 H267 0.930 . S
C250 C249 1.380 . S
C250 C257 1.357 . S
C251 C242 1.511 . S
C251 C252 1.341 . S
C251 C253 1.371 . S
C252 C251 1.341 . S
C252 C256 1.394 . S
C252 H268 0.930 . S
C253 C251 1.371 . S
C253 C254 1.392 . S
C253 H269 0.931 1_554 S
C254 C253 1.392 . S
C254 C255 1.331 . S
C254 H272 0.932 . S
C255 C254 1.331 . S
C255 C256 1.336 . S
C256 C252 1.394 . S
C256 C255 1.336 . S
C256 H271 0.929 . S
C257 C247 1.386 . S
C257 C250 1.357 . S
C257 H270 0.928 . S
H258 C234 0.931 . S
H259 C236 0.930 . S
H260 C238 0.929 . S
H261 C239 0.931 . S
H262 C241 0.930 . S
H263 C245 0.931 . S
H264 C243 0.931 . S
H265 C247 0.931 . S
H266 C248 0.929 . S
H267 C249 0.930 . S
H268 C252 0.930 . S
H269 C253 0.931 1_556 S
H270 C257 0.928 . S
H271 C256 0.929 . S
H272 C254 0.932 . S
C273 C274 1.386 . S
C273 C275 1.397 . S
C273 H297 0.931 . S
C274 C273 1.386 . S
C274 C278 1.397 . S
C275 C273 1.397 . S
C275 C276 1.384 . S
C275 H298 0.930 . S
C276 C275 1.384 . S
C276 C277 1.377 . S
C276 C279 1.481 . S
C277 C276 1.377 . S
C277 C278 1.389 . S
C277 H299 0.929 . S
C278 C274 1.397 . S
C278 C277 1.389 . S
C278 H300 0.931 . S
C279 C276 1.481 . S
C279 C280 1.387 . S
C279 C284 1.390 1_556 S
C280 C279 1.387 . S
C280 C281 1.401 1_556 S
C280 H301 0.930 . S
C281 C280 1.401 1_554 S
C281 C282 1.376 . S
C281 C290 1.511 . S
C282 C281 1.376 . S
C282 C283 1.392 . S
C282 H303 0.931 . S
C283 C282 1.392 . S
C283 C284 1.361 . S
C283 C285 1.500 . S
C284 C279 1.390 1_554 S
C284 C283 1.361 . S
C284 H302 0.931 . S
C285 C283 1.500 . S
C285 C286 1.371 . S
C285 C287 1.365 . S
C286 C285 1.371 . S
C286 C296 1.386 . S
C286 H304 0.931 . S
C287 C285 1.365 . S
C287 C288 1.409 . S
C287 H305 0.929 . S
C288 C287 1.409 . S
C288 C289 1.380 . S
C288 H306 0.930 . S
C289 C288 1.380 . S
C289 C296 1.357 . S
C290 C281 1.511 . S
C290 C291 1.341 . S
C290 C292 1.371 . S
C291 C290 1.341 . S
C291 C295 1.394 . S
C291 H307 0.930 1_554 S
C292 C290 1.371 . S
C292 C293 1.392 . S
C292 H308 0.931 . S
C293 C292 1.392 . S
C293 C294 1.331 . S
C293 H311 0.932 . S
C294 C293 1.331 . S
C294 C295 1.336 . S
C295 C291 1.394 . S
C295 C294 1.336 . S
C295 H310 0.929 . S
C296 C286 1.386 . S
C296 C289 1.357 . S
C296 H309 0.928 . S
H297 C273 0.931 . S
H298 C275 0.930 . S
H299 C277 0.929 . S
H300 C278 0.931 . S
H301 C280 0.930 . S
H302 C284 0.931 . S
H303 C282 0.931 . S
H304 C286 0.931 . S
H305 C287 0.929 . S
H306 C288 0.930 . S
H307 C291 0.930 1_556 S
H308 C292 0.931 . S
H309 C296 0.928 . S
H310 C295 0.929 . S
H311 C293 0.932 . S
Gd312 C315 2.818 . S
Gd312 O332 2.377 . S
Gd312 O334 2.448 . S
Gd312 O335 2.506 . S
Gd312 O336 2.435 . S
Gd312 O337 2.717 1_565 S
Gd312 O339 2.395 1_565 S
Gd312 O343 2.327 1_465 S
Gd313 C324 2.818 . S
Gd313 O333 2.395 1_545 S
Gd313 O337 2.327 1_655 S
Gd313 O338 2.377 . S
Gd313 O340 2.448 . S
Gd313 O341 2.506 . S
Gd313 O342 2.435 . S
Gd313 O343 2.717 . S
C314 O332 1.240 1_655 S
C314 O333 1.240 . S
C315 Gd312 2.818 . S
C315 C316 1.510 . S
C315 O334 1.249 . S
C315 O335 1.252 . S
C316 C315 1.510 . S
C316 C317 1.404 . S
C316 C318 1.352 . S
C317 C316 1.404 . S
C317 C321 1.389 . S
C317 H344 0.930 . S
C318 C316 1.352 . S
C318 C320 1.374 . S
C318 H345 0.931 1_455 S
C319 C320 1.359 . S
C319 C321 1.364 . S
C320 C318 1.374 . S
C320 C319 1.359 . S
C320 H346 0.931 1_455 S
C321 C317 1.389 . S
C321 C319 1.364 . S
C321 H347 0.931 . S
C322 O336 1.256 1_545 S
C322 O337 1.257 . S
C323 O338 1.240 1_455 S
C323 O339 1.240 . S
C324 Gd313 2.818 . S
C324 C325 1.510 . S
C324 O340 1.249 . S
C324 O341 1.252 . S
C325 C324 1.510 . S
C325 C326 1.404 . S
C325 C327 1.352 . S
C326 C325 1.404 . S
C326 C330 1.389 . S
C326 H348 0.930 . S
C327 C325 1.352 . S
C327 C329 1.374 . S
C327 H349 0.931 1_655 S
C328 C329 1.359 . S
C328 C330 1.364 . S
C329 C327 1.374 . S
C329 C328 1.359 . S
C329 H350 0.931 1_655 S
C330 C326 1.389 . S
C330 C328 1.364 . S
C330 H351 0.931 . S
C331 O342 1.256 . S
C331 O343 1.257 . S
O332 Gd312 2.377 . S
O332 C314 1.240 1_455 S
O333 Gd313 2.395 1_565 S
O333 C314 1.240 . S
O334 Gd312 2.448 . S
O334 C315 1.249 . S
O335 Gd312 2.506 . S
O335 C315 1.252 . S
O336 Gd312 2.435 . S
O336 C322 1.256 1_565 S
O337 Gd312 2.717 1_545 S
O337 Gd313 2.327 1_455 S
O337 C322 1.257 . S
O338 Gd313 2.377 . S
O338 C323 1.240 1_655 S
O339 Gd312 2.395 1_545 S
O339 C323 1.240 . S
O340 Gd313 2.448 . S
O340 C324 1.249 . S
O341 Gd313 2.506 . S
O341 C324 1.252 . S
O342 Gd313 2.435 . S
O342 C331 1.256 . S
O343 Gd312 2.327 1_645 S
O343 Gd313 2.717 . S
O343 C331 1.257 . S
H344 C317 0.930 . S
H345 C318 0.931 1_655 S
H346 C320 0.931 1_655 S
H347 C321 0.931 . S
H348 C326 0.930 . S
H349 C327 0.931 1_455 S
H350 C329 0.931 1_455 S
H351 C330 0.931 . S
Gd352 C355 2.818 . S
Gd352 O372 2.377 . S
Gd352 O374 2.448 . S
Gd352 O375 2.506 . S
Gd352 O376 2.435 . S
Gd352 O377 2.717 . S
Gd352 O379 2.395 . S
Gd352 O383 2.327 1_545 S
Gd353 C364 2.818 . S
Gd353 O373 2.395 . S
Gd353 O377 2.327 1_565 S
Gd353 O378 2.377 1_565 S
Gd353 O380 2.448 . S
Gd353 O381 2.506 1_565 S
Gd353 O382 2.435 . S
Gd353 O383 2.717 . S
C354 O372 1.240 1_565 S
C354 O373 1.240 . S
C355 Gd352 2.818 . S
C355 C356 1.510 . S
C355 O374 1.249 . S
C355 O375 1.252 . S
C356 C355 1.510 . S
C356 C357 1.404 . S
C356 C358 1.352 . S
C357 C356 1.404 . S
C357 C361 1.389 . S
C357 H384 0.930 . S
C358 C356 1.352 . S
C358 C360 1.374 . S
C358 H385 0.931 1_545 S
C359 C360 1.359 . S
C359 C361 1.364 . S
C360 C358 1.374 . S
C360 C359 1.359 . S
C360 H386 0.931 1_545 S
C361 C357 1.389 . S
C361 C359 1.364 . S
C361 H387 0.931 . S
C362 O376 1.256 . S
C362 O377 1.257 . S
C363 O378 1.240 . S
C363 O379 1.240 . S
C364 Gd353 2.818 . S
C364 C365 1.510 . S
C364 O380 1.249 . S
C364 O381 1.252 1_565 S
C365 C364 1.510 . S
C365 C366 1.404 . S
C365 C367 1.352 1_565 S
C366 C365 1.404 . S
C366 C370 1.389 . S
C366 H388 0.930 . S
C367 C365 1.352 1_545 S
C367 C369 1.374 . S
C367 H389 0.931 . S
C368 C369 1.359 1_565 S
C368 C370 1.364 . S
C369 C367 1.374 . S
C369 C368 1.359 1_545 S
C369 H390 0.931 . S
C370 C366 1.389 . S
C370 C368 1.364 . S
C370 H391 0.931 . S
C371 O382 1.256 . S
C371 O383 1.257 . S
O372 Gd352 2.377 . S
O372 C354 1.240 1_545 S
O373 Gd353 2.395 . S
O373 C354 1.240 . S
O374 Gd352 2.448 . S
O374 C355 1.249 . S
O375 Gd352 2.506 . S
O375 C355 1.252 . S
O376 Gd352 2.435 . S
O376 C362 1.256 . S
O377 Gd352 2.717 . S
O377 Gd353 2.327 1_545 S
O377 C362 1.257 . S
O378 Gd353 2.377 1_545 S
O378 C363 1.240 . S
O379 Gd352 2.395 . S
O379 C363 1.240 . S
O380 Gd353 2.448 . S
O380 C364 1.249 . S
O381 Gd353 2.506 1_545 S
O381 C364 1.252 1_545 S
O382 Gd353 2.435 . S
O382 C371 1.256 . S
O383 Gd352 2.327 1_565 S
O383 Gd353 2.717 . S
O383 C371 1.257 . S
H384 C357 0.930 . S
H385 C358 0.931 1_565 S
H386 C360 0.931 1_565 S
H387 C361 0.931 . S
H388 C366 0.930 . S
H389 C367 0.931 . S
H390 C369 0.931 . S
H391 C370 0.931 . S
Gd392 C395 2.818 . S
Gd392 O412 2.377 . S
Gd392 O414 2.448 . S
Gd392 O415 2.506 . S
Gd392 O416 2.435 . S
Gd392 O417 2.717 . S
Gd392 O419 2.395 . S
Gd392 O423 2.327 . S
Gd393 C404 2.818 . S
Gd393 O413 2.395 . S
Gd393 O417 2.327 . S
Gd393 O418 2.377 . S
Gd393 O420 2.448 . S
Gd393 O421 2.506 . S
Gd393 O422 2.435 . S
Gd393 O423 2.717 . S
C394 O412 1.240 . S
C394 O413 1.240 . S
C395 Gd392 2.818 . S
C395 C396 1.510 . S
C395 O414 1.249 . S
C395 O415 1.252 . S
C396 C395 1.510 . S
C396 C397 1.404 . S
C396 C398 1.352 . S
C397 C396 1.404 . S
C397 C401 1.389 . S
C397 H424 0.930 . S
C398 C396 1.352 . S
C398 C400 1.374 . S
C398 H425 0.931 . S
C399 C400 1.359 . S
C399 C401 1.364 . S
C400 C398 1.374 . S
C400 C399 1.359 . S
C400 H426 0.931 . S
C401 C397 1.389 . S
C401 C399 1.364 . S
C401 H427 0.931 . S
C402 O416 1.256 . S
C402 O417 1.257 . S
C403 O418 1.240 . S
C403 O419 1.240 . S
C404 Gd393 2.818 . S
C404 C405 1.510 . S
C404 O420 1.249 . S
C404 O421 1.252 . S
C405 C404 1.510 . S
C405 C406 1.404 . S
C405 C407 1.352 . S
C406 C405 1.404 . S
C406 C410 1.389 . S
C406 H428 0.930 . S
C407 C405 1.352 . S
C407 C409 1.374 . S
C407 H429 0.931 . S
C408 C409 1.359 . S
C408 C410 1.364 . S
C409 C407 1.374 . S
C409 C408 1.359 . S
C409 H430 0.931 . S
C410 C406 1.389 . S
C410 C408 1.364 . S
C410 H431 0.931 . S
C411 O422 1.256 . S
C411 O423 1.257 . S
O412 Gd392 2.377 . S
O412 C394 1.240 . S
O413 Gd393 2.395 . S
O413 C394 1.240 . S
O414 Gd392 2.448 . S
O414 C395 1.249 . S
O415 Gd392 2.506 . S
O415 C395 1.252 . S
O416 Gd392 2.435 . S
O416 C402 1.256 . S
O417 Gd392 2.717 . S
O417 Gd393 2.327 . S
O417 C402 1.257 . S
O418 Gd393 2.377 . S
O418 C403 1.240 . S
O419 Gd392 2.395 . S
O419 C403 1.240 . S
O420 Gd393 2.448 . S
O420 C404 1.249 . S
O421 Gd393 2.506 . S
O421 C404 1.252 . S
O422 Gd393 2.435 . S
O422 C411 1.256 . S
O423 Gd392 2.327 . S
O423 Gd393 2.717 . S
O423 C411 1.257 . S
H424 C397 0.930 . S
H425 C398 0.931 . S
H426 C400 0.931 . S
H427 C401 0.931 . S
H428 C406 0.930 . S
H429 C407 0.931 . S
H430 C409 0.931 . S
H431 C410 0.931 . S
Gd432 C435 2.818 . S
Gd432 O452 2.377 . S
Gd432 O454 2.448 . S
Gd432 O455 2.506 . S
Gd432 O456 2.435 . S
Gd432 O457 2.717 1_655 S
Gd432 O459 2.395 1_655 S
Gd432 O463 2.327 . S
Gd433 C444 2.818 . S
Gd433 O453 2.395 1_455 S
Gd433 O457 2.327 . S
Gd433 O458 2.377 . S
Gd433 O460 2.448 . S
Gd433 O461 2.506 . S
Gd433 O462 2.435 . S
Gd433 O463 2.717 1_455 S
C434 O452 1.240 . S
C434 O453 1.240 . S
C435 Gd432 2.818 . S
C435 C436 1.510 . S
C435 O454 1.249 . S
C435 O455 1.252 . S
C436 C435 1.510 . S
C436 C437 1.404 . S
C436 C438 1.352 . S
C437 C436 1.404 . S
C437 C441 1.389 . S
C437 H464 0.930 . S
C438 C436 1.352 . S
C438 C440 1.374 . S
C438 H465 0.931 . S
C439 C440 1.359 . S
C439 C441 1.364 . S
C440 C438 1.374 . S
C440 C439 1.359 . S
C440 H466 0.931 . S
C441 C437 1.389 . S
C441 C439 1.364 . S
C441 H467 0.931 . S
C442 O456 1.256 . S
C442 O457 1.257 1_655 S
C443 O458 1.240 . S
C443 O459 1.240 . S
C444 Gd433 2.818 . S
C444 C445 1.510 . S
C444 O460 1.249 . S
C444 O461 1.252 . S
C445 C444 1.510 . S
C445 C446 1.404 . S
C445 C447 1.352 . S
C446 C445 1.404 . S
C446 C450 1.389 . S
C446 H468 0.930 . S
C447 C445 1.352 . S
C447 C449 1.374 . S
C447 H469 0.931 . S
C448 C449 1.359 . S
C448 C450 1.364 . S
C449 C447 1.374 . S
C449 C448 1.359 . S
C449 H470 0.931 . S
C450 C446 1.389 . S
C450 C448 1.364 . S
C450 H471 0.931 . S
C451 O462 1.256 . S
C451 O463 1.257 1_455 S
O452 Gd432 2.377 . S
O452 C434 1.240 . S
O453 Gd433 2.395 1_655 S
O453 C434 1.240 . S
O454 Gd432 2.448 . S
O454 C435 1.249 . S
O455 Gd432 2.506 . S
O455 C435 1.252 . S
O456 Gd432 2.435 . S
O456 C442 1.256 . S
O457 Gd432 2.717 1_455 S
O457 Gd433 2.327 . S
O457 C442 1.257 1_455 S
O458 Gd433 2.377 . S
O458 C443 1.240 . S
O459 Gd432 2.395 1_455 S
O459 C443 1.240 . S
O460 Gd433 2.448 . S
O460 C444 1.249 . S
O461 Gd433 2.506 . S
O461 C444 1.252 . S
O462 Gd433 2.435 . S
O462 C451 1.256 . S
O463 Gd432 2.327 . S
O463 Gd433 2.717 1_655 S
O463 C451 1.257 1_655 S
H464 C437 0.930 . S
H465 C438 0.931 . S
H466 C440 0.931 . S
H467 C441 0.931 . S
H468 C446 0.930 . S
H469 C447 0.931 . S
H470 C449 0.931 . S
H471 C450 0.931 . S
C472 C473 1.349 . S
C472 C474 1.327 . S
C472 H497 0.977 . S
C473 C472 1.349 . S
C473 C489 1.349 . S
C474 C472 1.327 . S
C474 C493 1.429 . S
C474 H498 0.950 1_545 S
C475 C492 1.574 . S
C475 C494 1.368 . S
C475 H499 0.949 . S
H476 C480 0.949 1_565 S
C477 C478 1.349 . S
C477 C479 1.327 . S
C477 H500 0.950 . S
C478 C477 1.349 . S
C478 C490 1.349 1_545 S
C479 C477 1.327 . S
C479 C495 1.429 . S
C479 H501 0.950 . S
C480 H476 0.949 1_545 S
C480 C488 1.574 . S
C480 C496 1.368 . S
H481 C489 0.950 . S
H482 C487 0.950 . S
H483 C488 0.949 1_565 S
H484 C490 0.950 . S
H485 C491 0.952 . S
H486 C492 0.949 . S
C487 H482 0.950 . S
C487 C489 1.327 . S
C487 C493 1.429 . S
C488 C480 1.574 . S
C488 H483 0.949 1_545 S
C488 C494 1.368 . S
C489 C473 1.349 . S
C489 H481 0.950 . S
C489 C487 1.327 . S
C490 C478 1.349 1_565 S
C490 H484 0.950 . S
C490 C491 1.327 . S
C491 H485 0.952 . S
C491 C490 1.327 . S
C491 C495 1.426 1_565 S
C492 C475 1.574 . S
C492 H486 0.949 . S
C492 C496 1.368 . S
C493 C474 1.429 . S
C493 C487 1.429 . S
C493 C494 1.523 . S
C494 C475 1.368 . S
C494 C488 1.368 . S
C494 C493 1.523 . S
C495 C479 1.429 . S
C495 C491 1.426 1_545 S
C495 C496 1.523 . S
C496 C480 1.368 . S
C496 C492 1.368 . S
C496 C495 1.523 . S
H497 C472 0.977 . S
H498 C474 0.950 1_565 S
H499 C475 0.949 . S
H500 C477 0.950 . S
H501 C479 0.950 . S
C502 C503 1.349 . S
C502 C504 1.327 . S
C502 H527 0.950 . S
C503 C502 1.349 . S
C503 C519 1.349 . S
C504 C502 1.327 . S
C504 C523 1.429 . S
C504 H528 0.950 . S
C505 C522 1.574 . S
C505 C524 1.368 . S
C505 H529 0.949 . S
H506 C510 0.949 . S
C507 C508 1.349 . S
C507 C509 1.327 . S
C507 H530 0.950 . S
C508 C507 1.349 . S
C508 C520 1.349 . S
C509 C507 1.327 . S
C509 C525 1.429 . S
C509 H531 0.950 . S
C510 H506 0.949 . S
C510 C518 1.574 . S
C510 C526 1.368 . S
H511 C519 0.950 . S
H512 C517 0.950 . S
H513 C518 0.949 . S
H514 C520 0.950 . S
H515 C521 0.950 . S
H516 C522 0.949 . S
C517 H512 0.950 . S
C517 C519 1.327 . S
C517 C523 1.429 . S
C518 C510 1.574 . S
C518 H513 0.949 . S
C518 C524 1.368 . S
C519 C503 1.349 . S
C519 H511 0.950 . S
C519 C517 1.327 . S
C520 C508 1.349 . S
C520 H514 0.950 . S
C520 C521 1.327 . S
C521 H515 0.950 . S
C521 C520 1.327 . S
C521 C525 1.429 . S
C522 C505 1.574 . S
C522 H516 0.949 . S
C522 C526 1.368 . S
C523 C504 1.429 . S
C523 C517 1.429 . S
C523 C524 1.523 . S
C524 C505 1.368 . S
C524 C518 1.368 . S
C524 C523 1.523 . S
C525 C509 1.429 . S
C525 C521 1.429 . S
C525 C526 1.523 . S
C526 C510 1.368 . S
C526 C522 1.368 . S
C526 C525 1.523 . S
H527 C502 0.950 . S
H528 C504 0.950 . S
H529 C505 0.949 . S
H530 C507 0.950 . S
H531 C509 0.950 . S
C532 C533 1.349 . S
C532 C534 1.327 . S
C532 H557 0.950 . S
C533 C532 1.349 . S
C533 C549 1.349 . S
C534 C532 1.327 . S
C534 C553 1.429 . S
C534 H558 0.950 . S
C535 C552 1.574 . S
C535 C554 1.368 . S
C535 H559 0.949 . S
H536 C540 0.949 . S
C537 C538 1.349 . S
C537 C539 1.327 . S
C537 H560 0.950 . S
C538 C537 1.349 . S
C538 C550 1.349 . S
C539 C537 1.327 . S
C539 C555 1.429 . S
C539 H561 0.950 . S
C540 H536 0.949 . S
C540 C548 1.574 . S
C540 C556 1.368 . S
H541 C549 0.950 . S
H542 C547 0.950 . S
H543 C548 0.949 . S
H544 C550 0.950 . S
H545 C551 0.950 . S
H546 C552 0.949 . S
C547 H542 0.950 . S
C547 C549 1.327 . S
C547 C553 1.429 . S
C548 C540 1.574 . S
C548 H543 0.949 . S
C548 C554 1.368 . S
C549 C533 1.349 . S
C549 H541 0.950 . S
C549 C547 1.327 . S
C550 C538 1.349 . S
C550 H544 0.950 . S
C550 C551 1.327 . S
C551 H545 0.950 . S
C551 C550 1.327 . S
C551 C555 1.429 . S
C552 C535 1.574 . S
C552 H546 0.949 . S
C552 C556 1.368 . S
C553 C534 1.429 . S
C553 C547 1.429 . S
C553 C554 1.523 . S
C554 C535 1.368 . S
C554 C548 1.368 . S
C554 C553 1.523 . S
C555 C539 1.429 . S
C555 C551 1.429 . S
C555 C556 1.523 . S
C556 C540 1.368 . S
C556 C552 1.368 . S
C556 C555 1.523 . S
H557 C532 0.950 . S
H558 C534 0.950 . S
H559 C535 0.949 . S
H560 C537 0.950 . S
H561 C539 0.950 . S
C562 C563 1.350 . S
C562 C564 1.327 . S
C562 H587 0.950 . S
C563 C562 1.350 . S
C563 C579 1.347 1_455 S
C564 C562 1.327 . S
C564 C583 1.433 . S
C564 H588 0.950 . S
C565 C582 1.574 . S
C565 C584 1.361 1_655 S
C565 H589 0.949 . S
H566 C570 0.949 . S
C567 C568 1.334 1_655 S
C567 C569 1.327 . S
C567 H590 0.950 . S
C568 C567 1.334 1_455 S
C568 C580 1.364 . S
C569 C567 1.327 . S
C569 C585 1.418 1_655 S
C569 H591 0.950 . S
C570 H566 0.949 . S
C570 C578 1.574 . S
C570 C586 1.379 . S
H571 C579 0.950 . S
H572 C577 0.950 . S
H573 C578 0.949 . S
H574 C580 0.950 . S
H575 C581 0.950 . S
H576 C582 0.949 . S
C577 H572 0.950 . S
C577 C579 1.327 . S
C577 C583 1.424 1_655 S
C578 C570 1.574 . S
C578 H573 0.949 . S
C578 C584 1.375 . S
C579 C563 1.347 1_655 S
C579 H571 0.950 . S
C579 C577 1.327 . S
C580 C568 1.364 . S
C580 H574 0.950 . S
C580 C581 1.327 . S
C581 H575 0.950 . S
C581 C580 1.327 . S
C581 C585 1.440 . S
C582 C565 1.574 . S
C582 H576 0.949 . S
C582 C586 1.358 1_655 S
C583 C564 1.433 . S
C583 C577 1.424 1_455 S
C583 C584 1.523 . S
C584 C565 1.361 1_455 S
C584 C578 1.375 . S
C584 C583 1.523 . S
C585 C569 1.418 1_455 S
C585 C581 1.440 . S
C585 C586 1.523 . S
C586 C570 1.379 . S
C586 C582 1.358 1_455 S
C586 C585 1.523 . S
H587 C562 0.950 . S
H588 C564 0.950 . S
H589 C565 0.949 . S
H590 C567 0.950 . S
H591 C569 0.950 . S
C592 C593 1.349 . S
C592 C594 1.327 . S
C592 H617 0.950 . S
C593 C592 1.349 . S
C593 C609 1.349 1_565 S
C594 C592 1.327 . S
C594 C613 1.429 . S
C594 H618 0.950 . S
C595 C612 1.574 1_554 S
C595 C614 1.368 1_545 S
C595 H619 0.949 . S
H596 C600 0.949 . S
C597 C598 1.349 . S
C597 C599 1.327 . S
C597 H620 0.950 . S
C598 C597 1.349 . S
C598 C610 1.349 1_545 S
C599 C597 1.327 . S
C599 C615 1.429 1_545 S
C599 H621 0.950 . S
C600 H596 0.949 . S
C600 C608 1.574 . S
C600 C616 1.368 . S
H601 C609 0.950 . S
H602 C607 0.950 . S
H603 C608 0.949 . S
H604 C610 0.950 . S
H605 C611 0.950 . S
H606 C612 0.949 . S
C607 H602 0.950 . S
C607 C609 1.327 . S
C607 C613 1.429 1_545 S
C608 C600 1.574 . S
C608 H603 0.949 . S
C608 C614 1.368 1_556 S
C609 C593 1.349 1_545 S
C609 H601 0.950 . S
C609 C607 1.327 . S
C610 C598 1.349 1_565 S
C610 H604 0.950 . S
C610 C611 1.327 . S
C611 H605 0.950 . S
C611 C610 1.327 . S
C611 C615 1.429 . S
C612 C595 1.574 1_556 S
C612 H606 0.949 . S
C612 C616 1.368 1_545 S
C613 C594 1.429 . S
C613 C607 1.429 1_565 S
C613 C614 1.523 . S
C614 C595 1.368 1_565 S
C614 C608 1.368 1_554 S
C614 C613 1.523 . S
C615 C599 1.429 1_565 S
C615 C611 1.429 . S
C615 C616 1.523 . S
C616 C600 1.368 . S
C616 C612 1.368 1_565 S
C616 C615 1.523 . S
H617 C592 0.950 . S
H618 C594 0.950 . S
H619 C595 0.949 . S
H620 C597 0.950 . S
H621 C599 0.950 . S
C622 C623 1.349 . S
C622 C624 1.327 . S
C622 H647 0.950 . S
C623 C622 1.349 . S
C623 C639 1.349 . S
C624 C622 1.327 . S
C624 C643 1.429 . S
C624 H648 0.950 . S
C625 C642 1.574 . S
C625 C644 1.368 1_556 S
C625 H649 0.949 . S
H626 C630 0.949 . S
C627 C628 1.349 . S
C627 C629 1.327 . S
C627 H650 0.950 . S
C628 C627 1.349 . S
C628 C640 1.349 . S
C629 C627 1.327 . S
C629 C645 1.429 . S
C629 H651 0.950 . S
C630 H626 0.949 . S
C630 C638 1.574 1_556 S
C630 C646 1.368 . S
H631 C639 0.950 . S
H632 C637 0.950 . S
H633 C638 0.949 . S
H634 C640 0.950 . S
H635 C641 0.950 . S
H636 C642 0.949 . S
C637 H632 0.950 . S
C637 C639 1.327 . S
C637 C643 1.429 . S
C638 C630 1.574 1_554 S
C638 H633 0.949 . S
C638 C644 1.368 . S
C639 C623 1.349 . S
C639 H631 0.950 . S
C639 C637 1.327 . S
C640 C628 1.349 . S
C640 H634 0.950 . S
C640 C641 1.327 . S
C641 H635 0.950 . S
C641 C640 1.327 . S
C641 C645 1.429 . S
C642 C625 1.574 . S
C642 H636 0.949 . S
C642 C646 1.368 . S
C643 C624 1.429 . S
C643 C637 1.429 . S
C643 C644 1.523 . S
C644 C625 1.368 1_554 S
C644 C638 1.368 . S
C644 C643 1.523 . S
C645 C629 1.429 . S
C645 C641 1.429 . S
C645 C646 1.523 . S
C646 C630 1.368 . S
C646 C642 1.368 . S
C646 C645 1.523 . S
H647 C622 0.950 . S
H648 C624 0.950 . S
H649 C625 0.949 . S
H650 C627 0.950 . S
H651 C629 0.950 . S
C652 C653 1.349 . S
C652 C654 1.327 . S
C652 H677 0.950 . S
C653 C652 1.349 . S
C653 C669 1.349 . S
C654 C652 1.327 . S
C654 C673 1.429 . S
C654 H678 0.950 . S
C655 C672 1.574 . S
C655 C674 1.368 1_556 S
C655 H679 0.949 . S
H656 C660 0.949 . S
C657 C658 1.349 . S
C657 C659 1.327 . S
C657 H680 0.950 . S
C658 C657 1.349 . S
C658 C670 1.349 . S
C659 C657 1.327 . S
C659 C675 1.429 . S
C659 H681 0.950 . S
C660 H656 0.949 . S
C660 C668 1.574 1_556 S
C660 C676 1.368 . S
H661 C669 0.950 . S
H662 C667 0.950 . S
H663 C668 0.949 . S
H664 C670 0.950 . S
H665 C671 0.950 . S
H666 C672 0.949 . S
C667 H662 0.950 . S
C667 C669 1.327 . S
C667 C673 1.429 . S
C668 C660 1.574 1_554 S
C668 H663 0.949 . S
C668 C674 1.368 . S
C669 C653 1.349 . S
C669 H661 0.950 . S
C669 C667 1.327 . S
C670 C658 1.349 . S
C670 H664 0.950 . S
C670 C671 1.327 . S
C671 H665 0.950 . S
C671 C670 1.327 . S
C671 C675 1.429 . S
C672 C655 1.574 . S
C672 H666 0.949 . S
C672 C676 1.368 . S
C673 C654 1.429 . S
C673 C667 1.429 . S
C673 C674 1.523 . S
C674 C655 1.368 1_554 S
C674 C668 1.368 . S
C674 C673 1.523 . S
C675 C659 1.429 . S
C675 C671 1.429 . S
C675 C676 1.523 . S
C676 C660 1.368 . S
C676 C672 1.368 . S
C676 C675 1.523 . S
H677 C652 0.950 . S
H678 C654 0.950 . S
H679 C655 0.949 . S
H680 C657 0.950 . S
H681 C659 0.950 . S
C682 C683 1.347 1_455 S
C682 C684 1.327 . S
C682 H707 0.950 . S
C683 C682 1.347 1_655 S
C683 C699 1.351 . S
C684 C682 1.327 . S
C684 C703 1.423 1_455 S
C684 H708 0.950 . S
C685 C702 1.574 1_554 S
C685 C704 1.377 . S
C685 H709 0.949 . S
H686 C690 0.949 . S
C687 C688 1.367 . S
C687 C689 1.327 . S
C687 H710 0.950 . S
C688 C687 1.367 . S
C688 C700 1.331 1_655 S
C689 C687 1.327 . S
C689 C705 1.442 . S
C689 H711 0.950 . S
C690 H686 0.949 . S
C690 C698 1.574 . S
C690 C706 1.356 1_455 S
H691 C699 0.950 . S
H692 C697 0.950 . S
H693 C698 0.949 . S
H694 C700 0.950 . S
H695 C701 0.950 . S
H696 C702 0.949 . S
C697 H692 0.950 . S
C697 C699 1.327 . S
C697 C703 1.434 . S
C698 C690 1.574 . S
C698 H693 0.949 . S
C698 C704 1.360 1_456 S
C699 C683 1.351 . S
C699 H691 0.950 . S
C699 C697 1.327 . S
C700 C688 1.331 1_455 S
C700 H694 0.950 . S
C700 C701 1.327 . S
C701 H695 0.950 . S
C701 C700 1.327 . S
C701 C705 1.415 1_455 S
C702 C685 1.574 1_556 S
C702 H696 0.949 . S
C702 C706 1.381 . S
C703 C684 1.423 1_655 S
C703 C697 1.434 . S
C703 C704 1.523 . S
C704 C685 1.377 . S
C704 C698 1.360 1_654 S
C704 C703 1.523 . S
C705 C689 1.442 . S
C705 C701 1.415 1_655 S
C705 C706 1.523 . S
C706 C690 1.356 1_655 S
C706 C702 1.381 . S
C706 C705 1.523 . S
H707 C682 0.950 . S
H708 C684 0.950 . S
H709 C685 0.949 . S
H710 C687 0.950 . S
H711 C689 0.950 . S
C712 C713 1.349 . S
C712 C714 1.327 . S
C712 H737 0.950 . S
C713 C712 1.349 . S
C713 C729 1.349 1_455 S
C714 C712 1.327 . S
C714 C733 1.429 1_455 S
C714 H738 0.950 . S
C715 C732 1.574 . S
C715 C734 1.368 . S
C715 H739 0.949 . S
H716 C720 0.949 1_455 S
C717 C718 1.349 . S
C717 C719 1.327 . S
C717 H740 0.950 . S
C718 C717 1.349 . S
C718 C730 1.349 . S
C719 C717 1.327 . S
C719 C735 1.429 . S
C719 H741 0.950 . S
C720 H716 0.949 1_655 S
C720 C728 1.564 1_655 S
C720 C736 1.368 . S
H721 C729 0.950 . S
H722 C727 0.950 . S
H723 C728 0.990 . S
H724 C730 0.950 . S
H725 C731 0.950 . S
H726 C732 0.949 . S
C727 H722 0.950 . S
C727 C729 1.327 . S
C727 C733 1.429 . S
C728 C720 1.564 1_455 S
C728 H723 0.990 . S
C728 C734 1.336 1_455 S
C729 C713 1.349 1_655 S
C729 H721 0.950 . S
C729 C727 1.327 . S
C730 C718 1.349 . S
C730 H724 0.950 . S
C730 C731 1.327 . S
C731 H725 0.950 . S
C731 C730 1.327 . S
C731 C735 1.429 . S
C732 C715 1.574 . S
C732 H726 0.949 . S
C732 C736 1.368 . S
C733 C714 1.429 1_655 S
C733 C727 1.429 . S
C733 C734 1.523 . S
C734 C715 1.368 . S
C734 C728 1.336 1_655 S
C734 C733 1.523 . S
C735 C719 1.429 . S
C735 C731 1.429 . S
C735 C736 1.523 . S
C736 C720 1.368 . S
C736 C732 1.368 . S
C736 C735 1.523 . S
H737 C712 0.950 . S
H738 C714 0.950 . S
H739 C715 0.949 . S
H740 C717 0.950 . S
H741 C719 0.950 . S
C742 C743 1.349 . S
C742 C744 1.327 . S
C742 H767 0.950 . S
C743 C742 1.349 . S
C743 C759 1.349 . S
C744 C742 1.327 . S
C744 C763 1.429 . S
C744 H768 0.923 1_545 S
C745 C762 1.574 . S
C745 C764 1.368 . S
C745 H769 0.949 . S
H746 C750 0.949 . S
C747 C748 1.320 1_545 S
C747 C749 1.339 . S
C747 H770 0.969 . S
C748 C747 1.320 1_565 S
C748 C760 1.349 . S
C749 C747 1.339 . S
C749 C765 1.429 1_545 S
C749 H771 0.950 . S
C750 H746 0.949 . S
C750 C758 1.574 . S
C750 C766 1.368 1_565 S
H751 C759 0.950 . S
H752 C757 0.950 . S
H753 C758 0.949 . S
H754 C760 0.950 . S
H755 C761 0.950 . S
H756 C762 0.949 . S
C757 H752 0.950 . S
C757 C759 1.327 . S
C757 C763 1.429 . S
C758 C750 1.574 . S
C758 H753 0.949 . S
C758 C764 1.368 1_565 S
C759 C743 1.349 . S
C759 H751 0.950 . S
C759 C757 1.327 . S
C760 C748 1.349 . S
C760 H754 0.950 . S
C760 C761 1.327 . S
C761 H755 0.950 . S
C761 C760 1.327 . S
C761 C765 1.429 . S
C762 C745 1.574 . S
C762 H756 0.949 . S
C762 C766 1.368 . S
C763 C744 1.429 . S
C763 C757 1.429 . S
C763 C764 1.523 . S
C764 C745 1.368 . S
C764 C758 1.368 1_545 S
C764 C763 1.523 . S
C765 C749 1.429 1_565 S
C765 C761 1.429 . S
C765 C766 1.523 1_565 S
C766 C750 1.368 1_545 S
C766 C762 1.368 . S
C766 C765 1.523 1_545 S
H767 C742 0.950 . S
H768 C744 0.923 1_565 S
H769 C745 0.949 . S
H770 C747 0.969 . S
H771 C749 0.950 . S
C772 C773 1.349 . S
C772 C774 1.327 . S
C772 H797 0.950 . S
C773 C772 1.349 . S
C773 C789 1.349 . S
C774 C772 1.327 . S
C774 C793 1.429 . S
C774 H798 0.950 . S
C775 C792 1.574 . S
C775 C794 1.368 . S
C775 H799 0.949 . S
H776 C780 0.949 . S
C777 C778 1.349 . S
C777 C779 1.327 . S
C777 H800 0.950 . S
C778 C777 1.349 . S
C778 C790 1.349 . S
C779 C777 1.327 . S
C779 C795 1.429 . S
C779 H801 0.950 . S
C780 H776 0.949 . S
C780 C788 1.574 . S
C780 C796 1.368 . S
H781 C789 0.950 . S
H782 C787 0.950 . S
H783 C788 0.949 . S
H784 C790 0.950 . S
H785 C791 0.950 . S
H786 C792 0.949 . S
C787 H782 0.950 . S
C787 C789 1.327 . S
C787 C793 1.429 . S
C788 C780 1.574 . S
C788 H783 0.949 . S
C788 C794 1.368 . S
C789 C773 1.349 . S
C789 H781 0.950 . S
C789 C787 1.327 . S
C790 C778 1.349 . S
C790 H784 0.950 . S
C790 C791 1.327 . S
C791 H785 0.950 . S
C791 C790 1.327 . S
C791 C795 1.429 . S
C792 C775 1.574 . S
C792 H786 0.949 . S
C792 C796 1.368 . S
C793 C774 1.429 . S
C793 C787 1.429 . S
C793 C794 1.523 . S
C794 C775 1.368 . S
C794 C788 1.368 . S
C794 C793 1.523 . S
C795 C779 1.429 . S
C795 C791 1.429 . S
C795 C796 1.523 . S
C796 C780 1.368 . S
C796 C792 1.368 . S
C796 C795 1.523 . S
H797 C772 0.950 . S
H798 C774 0.950 . S
H799 C775 0.949 . S
H800 C777 0.950 . S
H801 C779 0.950 . S
C802 C803 1.349 . S
C802 C804 1.327 . S
C802 H827 0.950 . S
C803 C802 1.349 . S
C803 C819 1.349 . S
C804 C802 1.327 . S
C804 C823 1.429 . S
C804 H828 0.950 . S
C805 C822 1.574 . S
C805 C824 1.368 . S
C805 H829 0.949 . S
H806 C810 0.949 . S
C807 C808 1.349 . S
C807 C809 1.327 . S
C807 H830 0.950 . S
C808 C807 1.349 . S
C808 C820 1.349 . S
C809 C807 1.327 . S
C809 C825 1.429 . S
C809 H831 0.950 . S
C810 H806 0.949 . S
C810 C818 1.574 . S
C810 C826 1.368 . S
H811 C819 0.950 . S
H812 C817 0.950 . S
H813 C818 0.949 . S
H814 C820 0.950 . S
H815 C821 0.950 . S
H816 C822 0.949 . S
C817 H812 0.950 . S
C817 C819 1.327 . S
C817 C823 1.429 . S
C818 C810 1.574 . S
C818 H813 0.949 . S
C818 C824 1.368 . S
C819 C803 1.349 . S
C819 H811 0.950 . S
C819 C817 1.327 . S
C820 C808 1.349 . S
C820 H814 0.950 . S
C820 C821 1.327 . S
C821 H815 0.950 . S
C821 C820 1.327 . S
C821 C825 1.429 . S
C822 C805 1.574 . S
C822 H816 0.949 . S
C822 C826 1.368 . S
C823 C804 1.429 . S
C823 C817 1.429 . S
C823 C824 1.523 . S
C824 C805 1.368 . S
C824 C818 1.368 . S
C824 C823 1.523 . S
C825 C809 1.429 . S
C825 C821 1.429 . S
C825 C826 1.523 . S
C826 C810 1.368 . S
C826 C822 1.368 . S
C826 C825 1.523 . S
H827 C802 0.950 . S
H828 C804 0.950 . S
H829 C805 0.949 . S
H830 C807 0.950 . S
H831 C809 0.950 . S
C832 C833 1.349 1_455 S
C832 C834 1.327 . S
C832 H857 0.950 . S
C833 C832 1.349 1_655 S
C833 C849 1.349 . S
C834 C832 1.327 . S
C834 C853 1.429 . S
C834 H858 0.950 . S
C835 C852 1.574 1_655 S
C835 C854 1.373 1_655 S
C835 H859 0.949 . S
H836 C840 0.949 . S
C837 C838 1.349 . S
C837 C839 1.327 . S
C837 H860 0.950 . S
C838 C837 1.349 . S
C838 C850 1.349 . S
C839 C837 1.327 . S
C839 C855 1.429 . S
C839 H861 0.934 1_455 S
C840 H836 0.949 . S
C840 C848 1.574 1_556 S
C840 C856 1.368 . S
H841 C849 0.950 . S
H842 C847 0.950 1_556 S
H843 C848 0.949 . S
H844 C850 0.950 . S
H845 C851 0.950 . S
H846 C852 0.949 1_655 S
C847 H842 0.950 1_554 S
C847 C849 1.327 . S
C847 C853 1.429 1_655 S
C848 C840 1.574 1_554 S
C848 H843 0.949 . S
C848 C854 1.366 1_554 S
C849 C833 1.349 . S
C849 H841 0.950 . S
C849 C847 1.327 . S
C850 C838 1.349 . S
C850 H844 0.950 . S
C850 C851 1.327 . S
C851 H845 0.950 . S
C851 C850 1.327 . S
C851 C855 1.429 . S
C852 C835 1.574 1_455 S
C852 H846 0.949 1_455 S
C852 C856 1.368 . S
C853 C834 1.429 . S
C853 C847 1.429 1_455 S
C853 C854 1.520 1_554 S
C854 C835 1.373 1_455 S
C854 C848 1.366 1_556 S
C854 C853 1.520 1_556 S
C855 C839 1.429 . S
C855 C851 1.429 . S
C855 C856 1.523 . S
C856 C840 1.368 . S
C856 C852 1.368 . S
C856 C855 1.523 . S
H857 C832 0.950 . S
H858 C834 0.950 . S
H859 C835 0.949 . S
H860 C837 0.950 . S
H861 C839 0.934 1_655 S
C862 C863 1.349 1_545 S
C862 C864 1.327 . S
C862 H887 0.950 . S
C863 C862 1.349 1_565 S
C863 C879 1.349 . S
C864 C862 1.327 . S
C864 C883 1.429 1_545 S
C864 H888 0.950 . S
C865 C882 1.574 . S
C865 C884 1.368 1_565 S
C865 H889 0.949 1_556 S
H866 C870 0.949 . S
C867 C868 1.349 . S
C867 C869 1.327 . S
C867 H890 0.950 . S
C868 C867 1.349 . S
C868 C880 1.349 . S
C869 C867 1.327 . S
C869 C885 1.429 . S
C869 H891 0.950 1_545 S
C870 H866 0.949 . S
C870 C878 1.574 . S
C870 C886 1.368 . S
H871 C879 0.950 . S
H872 C877 0.950 . S
H873 C878 0.949 . S
H874 C880 0.950 . S
H875 C881 0.950 . S
H876 C882 0.949 . S
C877 H872 0.950 . S
C877 C879 1.327 . S
C877 C883 1.429 . S
C878 C870 1.574 . S
C878 H873 0.949 . S
C878 C884 1.368 . S
C879 C863 1.349 . S
C879 H871 0.950 . S
C879 C877 1.327 . S
C880 C868 1.349 . S
C880 H874 0.950 . S
C880 C881 1.327 . S
C881 H875 0.950 . S
C881 C880 1.327 . S
C881 C885 1.429 . S
C882 C865 1.574 . S
C882 H876 0.949 . S
C882 C886 1.368 1_565 S
C883 C864 1.429 1_565 S
C883 C877 1.429 . S
C883 C884 1.523 1_564 S
C884 C865 1.368 1_545 S
C884 C878 1.368 . S
C884 C883 1.523 1_546 S
C885 C869 1.429 . S
C885 C881 1.429 . S
C885 C886 1.523 . S
C886 C870 1.368 . S
C886 C882 1.368 1_545 S
C886 C885 1.523 . S
H887 C862 0.950 . S
H888 C864 0.950 . S
H889 C865 0.949 1_554 S
H890 C867 0.950 . S
H891 C869 0.950 1_565 S
C892 C893 1.349 . S
C892 C894 1.327 . S
C892 H917 0.950 . S
C893 C892 1.349 . S
C893 C909 1.349 . S
C894 C892 1.327 . S
C894 C913 1.429 . S
C894 H918 0.950 1_554 S
C895 C912 1.574 1_554 S
C895 C914 1.371 . S
C895 H919 0.949 . S
H896 C900 0.949 . S
C897 C898 1.349 . S
C897 C899 1.327 . S
C897 H920 0.950 . S
C898 C897 1.349 . S
C898 C910 1.349 . S
C899 C897 1.327 . S
C899 C915 1.429 . S
C899 H921 0.950 . S
C900 H896 0.949 . S
C900 C908 1.574 . S
C900 C916 1.368 . S
H901 C909 0.950 . S
H902 C907 0.950 . S
H903 C908 0.949 . S
H904 C910 0.950 . S
H905 C911 0.950 . S
H906 C912 0.949 . S
C907 H902 0.950 . S
C907 C909 1.327 . S
C907 C913 1.429 . S
C908 C900 1.574 . S
C908 H903 0.949 . S
C908 C914 1.362 1_556 S
C909 C893 1.349 . S
C909 H901 0.950 . S
C909 C907 1.327 . S
C910 C898 1.349 . S
C910 H904 0.950 . S
C910 C911 1.327 . S
C911 H905 0.950 . S
C911 C910 1.327 . S
C911 C915 1.429 . S
C912 C895 1.574 1_556 S
C912 H906 0.949 . S
C912 C916 1.368 . S
C913 C894 1.429 . S
C913 C907 1.429 . S
C913 C914 1.528 . S
C914 C895 1.371 . S
C914 C908 1.362 1_554 S
C914 C913 1.528 . S
C915 C899 1.429 . S
C915 C911 1.429 . S
C915 C916 1.523 . S
C916 C900 1.368 . S
C916 C912 1.368 . S
C916 C915 1.523 . S
H917 C892 0.950 . S
H918 C894 0.950 1_556 S
H919 C895 0.949 . S
H920 C897 0.950 . S
H921 C899 0.950 . S
C922 C923 1.349 . S
C922 C924 1.327 . S
C922 H947 0.950 . S
C923 C922 1.349 . S
C923 C939 1.349 . S
C924 C922 1.327 . S
C924 C943 1.429 . S
C924 H948 0.950 . S
C925 C942 1.574 . S
C925 C944 1.368 . S
C925 H949 0.949 . S
H926 C930 0.949 . S
C927 C928 1.349 . S
C927 C929 1.327 . S
C927 H950 0.950 . S
C928 C927 1.349 . S
C928 C940 1.349 . S
C929 C927 1.327 . S
C929 C945 1.429 . S
C929 H951 0.950 . S
C930 H926 0.949 . S
C930 C938 1.574 . S
C930 C946 1.368 . S
H931 C939 0.950 . S
H932 C937 0.950 . S
H933 C938 0.952 . S
H934 C940 0.950 . S
H935 C941 0.950 . S
H936 C942 0.949 . S
C937 H932 0.950 . S
C937 C939 1.327 . S
C937 C943 1.429 . S
C938 C930 1.574 . S
C938 H933 0.952 . S
C938 C944 1.368 . S
C939 C923 1.349 . S
C939 H931 0.950 . S
C939 C937 1.327 . S
C940 C928 1.349 . S
C940 H934 0.950 . S
C940 C941 1.327 . S
C941 H935 0.950 . S
C941 C940 1.327 . S
C941 C945 1.429 . S
C942 C925 1.574 . S
C942 H936 0.949 . S
C942 C946 1.368 . S
C943 C924 1.429 . S
C943 C937 1.429 . S
C943 C944 1.523 1_554 S
C944 C925 1.368 . S
C944 C938 1.368 . S
C944 C943 1.523 1_556 S
C945 C929 1.429 . S
C945 C941 1.429 . S
C945 C946 1.523 . S
C946 C930 1.368 . S
C946 C942 1.368 . S
C946 C945 1.523 . S
H947 C922 0.950 . S
H948 C924 0.950 . S
H949 C925 0.949 . S
H950 C927 0.950 . S
H951 C929 0.950 . S
C952 C953 1.349 . S
C952 C954 1.327 . S
C952 H977 0.950 . S
C953 C952 1.349 . S
C953 C969 1.349 1_455 S
C954 C952 1.327 . S
C954 C973 1.429 . S
C954 H978 0.950 . S
C955 C972 1.574 . S
C955 C974 1.368 1_655 S
C955 H979 0.949 . S
H956 C960 0.949 . S
C957 C958 1.349 1_655 S
C957 C959 1.327 . S
C957 H980 0.950 . S
C958 C957 1.349 1_455 S
C958 C970 1.349 . S
C959 C957 1.327 . S
C959 C975 1.429 1_655 S
C959 H981 0.950 . S
C960 H956 0.949 . S
C960 C968 1.574 . S
C960 C976 1.368 . S
H961 C969 0.950 . S
H962 C967 0.950 . S
H963 C968 0.949 . S
H964 C970 0.950 . S
H965 C971 0.950 . S
H966 C972 0.949 . S
C967 H962 0.950 . S
C967 C969 1.327 . S
C967 C973 1.429 1_655 S
C968 C960 1.574 . S
C968 H963 0.949 . S
C968 C974 1.368 . S
C969 C953 1.349 1_655 S
C969 H961 0.950 . S
C969 C967 1.327 . S
C970 C958 1.349 . S
C970 H964 0.950 . S
C970 C971 1.327 . S
C971 H965 0.950 . S
C971 C970 1.327 . S
C971 C975 1.429 . S
C972 C955 1.574 . S
C972 H966 0.949 . S
C972 C976 1.368 1_655 S
C973 C954 1.429 . S
C973 C967 1.429 1_455 S
C973 C974 1.523 . S
C974 C955 1.368 1_455 S
C974 C968 1.368 . S
C974 C973 1.523 . S
C975 C959 1.429 1_455 S
C975 C971 1.429 . S
C975 C976 1.523 . S
C976 C960 1.368 . S
C976 C972 1.368 1_455 S
C976 C975 1.523 . S
H977 C952 0.950 . S
H978 C954 0.950 . S
H979 C955 0.949 . S
H980 C957 0.950 . S
H981 C959 0.950 . S
C982 C983 1.349 . S
C982 C984 1.327 . S
C982 H1007 0.950 . S
C983 C982 1.349 . S
C983 C999 1.349 . S
C984 C982 1.327 . S
C984 C1003 1.429 . S
C984 H1008 0.950 . S
C985 C1002 1.574 . S
C985 C1004 1.368 . S
C985 H1009 0.949 1_545 S
H986 C990 0.949 . S
C987 C988 1.349 . S
C987 C989 1.327 . S
C987 H1010 0.950 1_545 S
C988 C987 1.349 . S
C988 C1000 1.349 . S
C989 C987 1.327 . S
C989 C1005 1.429 . S
C989 H1011 0.950 1_545 S
C990 H986 0.949 . S
C990 C998 1.574 . S
C990 C1006 1.368 . S
H991 C999 0.950 1_565 S
H992 C997 0.950 1_565 S
H993 C998 0.949 . S
H994 C1000 0.950 . S
H995 C1001 0.950 . S
H996 C1002 0.949 1_565 S
C997 H992 0.950 1_545 S
C997 C999 1.327 . S
C997 C1003 1.429 . S
C998 C990 1.574 . S
C998 H993 0.949 . S
C998 C1004 1.368 . S
C999 C983 1.349 . S
C999 H991 0.950 1_545 S
C999 C997 1.327 . S
C1000 C988 1.349 . S
C1000 H994 0.950 . S
C1000 C1001 1.327 . S
C1001 H995 0.950 . S
C1001 C1000 1.327 . S
C1001 C1005 1.429 . S
C1002 C985 1.574 . S
C1002 H996 0.949 1_545 S
C1002 C1006 1.368 . S
C1003 C984 1.429 . S
C1003 C997 1.429 . S
C1003 C1004 1.523 . S
C1004 C985 1.368 . S
C1004 C998 1.368 . S
C1004 C1003 1.523 . S
C1005 C989 1.429 . S
C1005 C1001 1.429 . S
C1005 C1006 1.523 . S
C1006 C990 1.368 . S
C1006 C1002 1.368 . S
C1006 C1005 1.523 . S
H1007 C982 0.950 . S
H1008 C984 0.950 . S
H1009 C985 0.949 1_565 S
H1010 C987 0.950 1_565 S
H1011 C989 0.950 1_565 S
C1012 C1013 1.349 . S
C1012 C1014 1.327 . S
C1012 H1037 0.950 . S
C1013 C1012 1.349 . S
C1013 C1029 1.349 . S
C1014 C1012 1.327 . S
C1014 C1033 1.429 . S
C1014 H1038 0.950 . S
C1015 C1032 1.574 . S
C1015 C1034 1.368 . S
C1015 H1039 0.949 . S
H1016 C1020 0.949 . S
C1017 C1018 1.349 . S
C1017 C1019 1.327 . S
C1017 H1040 0.950 . S
C1018 C1017 1.349 . S
C1018 C1030 1.349 . S
C1019 C1017 1.327 . S
C1019 C1035 1.429 . S
C1019 H1041 0.950 . S
C1020 H1016 0.949 . S
C1020 C1028 1.574 . S
C1020 C1036 1.368 . S
H1021 C1029 0.950 . S
H1022 C1027 0.950 . S
H1023 C1028 0.949 . S
H1024 C1030 0.950 . S
H1025 C1031 0.950 . S
H1026 C1032 0.949 . S
C1027 H1022 0.950 . S
C1027 C1029 1.327 . S
C1027 C1033 1.429 . S
C1028 C1020 1.574 . S
C1028 H1023 0.949 . S
C1028 C1034 1.368 . S
C1029 C1013 1.349 . S
C1029 H1021 0.950 . S
C1029 C1027 1.327 . S
C1030 C1018 1.349 . S
C1030 H1024 0.950 . S
C1030 C1031 1.327 . S
C1031 H1025 0.950 . S
C1031 C1030 1.327 . S
C1031 C1035 1.429 . S
C1032 C1015 1.574 . S
C1032 H1026 0.949 . S
C1032 C1036 1.368 . S
C1033 C1014 1.429 . S
C1033 C1027 1.429 . S
C1033 C1034 1.523 . S
C1034 C1015 1.368 . S
C1034 C1028 1.368 . S
C1034 C1033 1.523 . S
C1035 C1019 1.429 . S
C1035 C1031 1.429 . S
C1035 C1036 1.523 . S
C1036 C1020 1.368 . S
C1036 C1032 1.368 . S
C1036 C1035 1.523 . S
H1037 C1012 0.950 . S
H1038 C1014 0.950 . S
H1039 C1015 0.949 . S
H1040 C1017 0.950 . S
H1041 C1019 0.950 . S
C1042 C1043 1.349 . S
C1042 C1044 1.327 . S
C1042 H1067 0.950 . S
C1043 C1042 1.349 . S
C1043 C1059 1.349 . S
C1044 C1042 1.327 . S
C1044 C1063 1.429 . S
C1044 H1068 0.950 . S
C1045 C1062 1.574 . S
C1045 C1064 1.368 . S
C1045 H1069 0.949 . S
H1046 C1050 0.949 . S
C1047 C1048 1.349 . S
C1047 C1049 1.327 . S
C1047 H1070 0.950 . S
C1048 C1047 1.349 . S
C1048 C1060 1.349 . S
C1049 C1047 1.327 . S
C1049 C1065 1.429 . S
C1049 H1071 0.950 . S
C1050 H1046 0.949 . S
C1050 C1058 1.574 . S
C1050 C1066 1.368 . S
H1051 C1059 0.950 . S
H1052 C1057 0.950 . S
H1053 C1058 0.949 . S
H1054 C1060 0.950 . S
H1055 C1061 0.950 . S
H1056 C1062 0.949 . S
C1057 H1052 0.950 . S
C1057 C1059 1.327 . S
C1057 C1063 1.429 . S
C1058 C1050 1.574 . S
C1058 H1053 0.949 . S
C1058 C1064 1.368 . S
C1059 C1043 1.349 . S
C1059 H1051 0.950 . S
C1059 C1057 1.327 . S
C1060 C1048 1.349 . S
C1060 H1054 0.950 . S
C1060 C1061 1.327 . S
C1061 H1055 0.950 . S
C1061 C1060 1.327 . S
C1061 C1065 1.429 . S
C1062 C1045 1.574 . S
C1062 H1056 0.949 . S
C1062 C1066 1.368 . S
C1063 C1044 1.429 . S
C1063 C1057 1.429 . S
C1063 C1064 1.523 . S
C1064 C1045 1.368 . S
C1064 C1058 1.368 . S
C1064 C1063 1.523 . S
C1065 C1049 1.429 . S
C1065 C1061 1.429 . S
C1065 C1066 1.523 . S
C1066 C1050 1.368 . S
C1066 C1062 1.368 . S
C1066 C1065 1.523 . S
H1067 C1042 0.950 . S
H1068 C1044 0.950 . S
H1069 C1045 0.949 . S
H1070 C1047 0.950 . S
H1071 C1049 0.950 . S
C1072 C1073 1.349 1_455 S
C1072 C1074 1.327 . S
C1072 H1097 0.950 . S
C1073 C1072 1.349 1_655 S
C1073 C1089 1.349 . S
C1074 C1072 1.327 . S
C1074 C1093 1.429 1_455 S
C1074 H1098 0.950 . S
C1075 C1092 1.574 . S
C1075 C1094 1.368 . S
C1075 H1099 0.949 . S
H1076 C1080 0.949 . S
C1077 C1078 1.349 . S
C1077 C1079 1.327 . S
C1077 H1100 0.950 . S
C1078 C1077 1.349 . S
C1078 C1090 1.349 1_655 S
C1079 C1077 1.327 . S
C1079 C1095 1.429 . S
C1079 H1101 0.950 . S
C1080 H1076 0.949 . S
C1080 C1088 1.574 . S
C1080 C1096 1.368 1_455 S
H1081 C1089 0.950 . S
H1082 C1087 0.950 . S
H1083 C1088 0.949 . S
H1084 C1090 0.950 . S
H1085 C1091 0.950 . S
H1086 C1092 0.949 . S
C1087 H1082 0.950 . S
C1087 C1089 1.327 . S
C1087 C1093 1.429 . S
C1088 C1080 1.574 . S
C1088 H1083 0.949 . S
C1088 C1094 1.368 1_455 S
C1089 C1073 1.349 . S
C1089 H1081 0.950 . S
C1089 C1087 1.327 . S
C1090 C1078 1.349 1_455 S
C1090 H1084 0.950 . S
C1090 C1091 1.327 . S
C1091 H1085 0.950 . S
C1091 C1090 1.327 . S
C1091 C1095 1.429 1_455 S
C1092 C1075 1.574 . S
C1092 H1086 0.949 . S
C1092 C1096 1.368 . S
C1093 C1074 1.429 1_655 S
C1093 C1087 1.429 . S
C1093 C1094 1.523 . S
C1094 C1075 1.368 . S
C1094 C1088 1.368 1_655 S
C1094 C1093 1.523 . S
C1095 C1079 1.429 . S
C1095 C1091 1.429 1_655 S
C1095 C1096 1.523 . S
C1096 C1080 1.368 1_655 S
C1096 C1092 1.368 . S
C1096 C1095 1.523 . S
H1097 C1072 0.950 . S
H1098 C1074 0.950 . S
H1099 C1075 0.949 . S
H1100 C1077 0.950 . S
H1101 C1079 0.950 . S
C1102 C1103 1.349 . S
C1102 C1104 1.325 1_565 S
C1102 H1127 0.949 1_565 S
C1103 C1102 1.349 . S
C1103 C1119 1.349 . S
C1104 C1102 1.325 1_545 S
C1104 C1123 1.402 1_545 S
C1104 H1128 0.981 . S
C1105 C1122 1.574 . S
C1105 C1124 1.368 . S
C1105 H1129 0.949 . S
H1106 C1110 0.949 . S
C1107 C1108 1.349 . S
C1107 C1109 1.327 . S
C1107 H1130 0.950 . S
C1108 C1107 1.349 . S
C1108 C1120 1.349 1_565 S
C1109 C1107 1.327 . S
C1109 C1125 1.429 . S
C1109 H1131 0.950 . S
C1110 H1106 0.949 . S
C1110 C1118 1.574 . S
C1110 C1126 1.368 1_545 S
H1111 C1119 0.950 . S
H1112 C1117 0.950 . S
H1113 C1118 0.949 . S
H1114 C1120 0.950 . S
H1115 C1121 0.950 . S
H1116 C1122 0.949 . S
C1117 H1112 0.950 . S
C1117 C1119 1.327 . S
C1117 C1123 1.429 . S
C1118 C1110 1.574 . S
C1118 H1113 0.949 . S
C1118 C1124 1.368 1_545 S
C1119 C1103 1.349 . S
C1119 H1111 0.950 . S
C1119 C1117 1.327 . S
C1120 C1108 1.349 1_545 S
C1120 H1114 0.950 . S
C1120 C1121 1.327 . S
C1121 H1115 0.950 . S
C1121 C1120 1.327 . S
C1121 C1125 1.429 1_545 S
C1122 C1105 1.574 . S
C1122 H1116 0.949 . S
C1122 C1126 1.368 . S
C1123 C1104 1.402 1_565 S
C1123 C1117 1.429 . S
C1123 C1124 1.523 . S
C1124 C1105 1.368 . S
C1124 C1118 1.368 1_565 S
C1124 C1123 1.523 . S
C1125 C1109 1.429 . S
C1125 C1121 1.429 1_565 S
C1125 C1126 1.523 . S
C1126 C1110 1.368 1_565 S
C1126 C1122 1.368 . S
C1126 C1125 1.523 . S
H1127 C1102 0.949 1_545 S
H1128 C1104 0.981 . S
H1129 C1105 0.949 . S
H1130 C1107 0.950 . S
H1131 C1109 0.950 . S
C1132 C1133 1.349 . S
C1132 C1134 1.327 . S
C1132 H1157 0.950 . S
C1133 C1132 1.349 . S
C1133 C1149 1.349 . S
C1134 C1132 1.327 . S
C1134 C1153 1.429 . S
C1134 H1158 0.950 . S
C1135 C1152 1.574 . S
C1135 C1154 1.368 . S
C1135 H1159 0.949 . S
H1136 C1140 0.949 . S
C1137 C1138 1.349 . S
C1137 C1139 1.327 . S
C1137 H1160 0.950 . S
C1138 C1137 1.349 . S
C1138 C1150 1.349 . S
C1139 C1137 1.327 . S
C1139 C1155 1.429 . S
C1139 H1161 0.950 . S
C1140 H1136 0.949 . S
C1140 C1148 1.574 . S
C1140 C1156 1.368 . S
H1141 C1149 0.950 . S
H1142 C1147 0.950 . S
H1143 C1148 0.949 . S
H1144 C1150 0.950 . S
H1145 C1151 0.950 . S
H1146 C1152 0.949 . S
C1147 H1142 0.950 . S
C1147 C1149 1.327 . S
C1147 C1153 1.429 . S
C1148 C1140 1.574 . S
C1148 H1143 0.949 . S
C1148 C1154 1.368 . S
C1149 C1133 1.349 . S
C1149 H1141 0.950 . S
C1149 C1147 1.327 . S
C1150 C1138 1.349 . S
C1150 H1144 0.950 . S
C1150 C1151 1.327 . S
C1151 H1145 0.950 . S
C1151 C1150 1.327 . S
C1151 C1155 1.429 . S
C1152 C1135 1.574 . S
C1152 H1146 0.949 . S
C1152 C1156 1.368 . S
C1153 C1134 1.429 . S
C1153 C1147 1.429 . S
C1153 C1154 1.523 . S
C1154 C1135 1.368 . S
C1154 C1148 1.368 . S
C1154 C1153 1.523 . S
C1155 C1139 1.429 . S
C1155 C1151 1.429 . S
C1155 C1156 1.523 . S
C1156 C1140 1.368 . S
C1156 C1152 1.368 . S
C1156 C1155 1.523 . S
H1157 C1132 0.950 . S
H1158 C1134 0.950 . S
H1159 C1135 0.949 . S
H1160 C1137 0.950 . S
H1161 C1139 0.950 . S
C1162 C1163 1.349 . S
C1162 C1164 1.327 . S
C1162 H1187 0.950 . S
C1163 C1162 1.349 . S
C1163 C1179 1.349 . S
C1164 C1162 1.327 . S
C1164 C1183 1.429 . S
C1164 H1188 0.950 . S
C1165 C1182 1.574 . S
C1165 C1184 1.368 . S
C1165 H1189 0.949 . S
H1166 C1170 0.949 . S
C1167 C1168 1.349 . S
C1167 C1169 1.327 . S
C1167 H1190 0.950 . S
C1168 C1167 1.349 . S
C1168 C1180 1.349 . S
C1169 C1167 1.327 . S
C1169 C1185 1.429 . S
C1169 H1191 0.950 . S
C1170 H1166 0.949 . S
C1170 C1178 1.574 . S
C1170 C1186 1.368 . S
H1171 C1179 0.950 . S
H1172 C1177 0.950 . S
H1173 C1178 0.949 . S
H1174 C1180 0.950 . S
H1175 C1181 0.950 . S
H1176 C1182 0.949 . S
C1177 H1172 0.950 . S
C1177 C1179 1.327 . S
C1177 C1183 1.429 . S
C1178 C1170 1.574 . S
C1178 H1173 0.949 . S
C1178 C1184 1.368 . S
C1179 C1163 1.349 . S
C1179 H1171 0.950 . S
C1179 C1177 1.327 . S
C1180 C1168 1.349 . S
C1180 H1174 0.950 . S
C1180 C1181 1.327 . S
C1181 H1175 0.950 . S
C1181 C1180 1.327 . S
C1181 C1185 1.429 . S
C1182 C1165 1.574 . S
C1182 H1176 0.949 . S
C1182 C1186 1.368 . S
C1183 C1164 1.429 . S
C1183 C1177 1.429 . S
C1183 C1184 1.523 . S
C1184 C1165 1.368 . S
C1184 C1178 1.368 . S
C1184 C1183 1.523 . S
C1185 C1169 1.429 . S
C1185 C1181 1.429 . S
C1185 C1186 1.523 . S
C1186 C1170 1.368 . S
C1186 C1182 1.368 . S
C1186 C1185 1.523 . S
H1187 C1162 0.950 . S
H1188 C1164 0.950 . S
H1189 C1165 0.949 . S
H1190 C1167 0.950 . S
H1191 C1169 0.950 . S
C473 C255 1.923 . S
C478 C322 2.033 . S
C508 C362 2.032 . S
C503 C294 1.902 . S
C538 C402 2.038 . S
C533 C177 1.924 . S
C568 C442 2.023 1_455 S
C563 C216 1.917 1_455 S
C598 C331 2.038 . S
C593 C99 1.932 . S
C623 C138 1.902 . S
C628 C371 2.032 . S
C653 C21 1.927 . S
C658 C411 2.039 . S
C683 C60 1.916 . S
C688 C451 2.024 1_655 S
C718 C328 0.301 . S
C713 C196 0.270 1_455 S
C748 C368 0.324 . S
C743 C235 0.311 . S
C778 C408 0.295 . S
C773 C289 0.265 . S
C803 C157 0.310 . S
C808 C448 0.323 . S
C833 C40 0.262 . S
C838 C319 0.286 . S
C868 C359 0.324 . S
C863 C79 0.295 . S
C898 C399 0.295 . S
C893 C133 0.258 . S
C923 C1 0.293 . S
C928 C439 0.330 . S
C953 C211 2.528 . S
C958 C323 2.846 . S
C983 C250 2.518 . S
C988 C363 2.836 . S
C1018 C403 2.836 . S
C1013 C274 2.524 . S
C1048 C443 2.850 . S
C1043 C172 2.526 . S
C1073 C55 2.528 1_655 S
C1078 C314 2.846 . S
C1108 C354 2.835 . S
C1103 C94 2.517 . S
C1138 C394 2.835 . S
C1133 C118 2.524 . S
C1163 C16 2.532 . S
C1168 C434 2.858 . S
