# Generated by pormake.
# Topology zzz, (3,6)-cn, num edge types: 1
# Building blocks:
#     Node 0, Type 0, BuildingBlock: BETDIP_clean_linker_0, # of connection points: 3
#     Node 1, Type 0, BuildingBlock: BETDIP_clean_linker_0, # of connection points: 3
#     Node 2, Type 0, BuildingBlock: BETDIP_clean_linker_0, # of connection points: 3
#     Node 3, Type 0, BuildingBlock: BETDIP_clean_linker_0, # of connection points: 3
#     Node 4, Type 0, BuildingBlock: BETDIP_clean_linker_0, # of connection points: 3
#     Node 5, Type 0, BuildingBlock: BETDIP_clean_linker_0, # of connection points: 3
#     Node 6, Type 0, BuildingBlock: BETDIP_clean_linker_0, # of connection points: 3
#     Node 7, Type 0, BuildingBlock: BETDIP_clean_linker_0, # of connection points: 3
#     Node 8, Type 1, BuildingBlock: BETFEN_clean_sbu_0, # of connection points: 6
#     Node 9, Type 1, BuildingBlock: BETFEN_clean_sbu_0, # of connection points: 6
#     Node 10, Type 1, BuildingBlock: BETFEN_clean_sbu_0, # of connection points: 6
#     Node 11, Type 1, BuildingBlock: BETFEN_clean_sbu_0, # of connection points: 6
#     Edge 12, Type (0, 1), BuildingBlock: XUDNAN_clean_linker_2, # of connection points: 2
#     Edge 13, Type (0, 1), BuildingBlock: XUDNAN_clean_linker_2, # of connection points: 2
#     Edge 14, Type (0, 1), BuildingBlock: XUDNAN_clean_linker_2, # of connection points: 2
#     Edge 15, Type (0, 1), BuildingBlock: XUDNAN_clean_linker_2, # of connection points: 2
#     Edge 16, Type (0, 1), BuildingBlock: XUDNAN_clean_linker_2, # of connection points: 2
#     Edge 17, Type (0, 1), BuildingBlock: XUDNAN_clean_linker_2, # of connection points: 2
#     Edge 18, Type (0, 1), BuildingBlock: XUDNAN_clean_linker_2, # of connection points: 2
#     Edge 19, Type (0, 1), BuildingBlock: XUDNAN_clean_linker_2, # of connection points: 2
#     Edge 20, Type (0, 1), BuildingBlock: XUDNAN_clean_linker_2, # of connection points: 2
#     Edge 21, Type (0, 1), BuildingBlock: XUDNAN_clean_linker_2, # of connection points: 2
#     Edge 22, Type (0, 1), BuildingBlock: XUDNAN_clean_linker_2, # of connection points: 2
#     Edge 23, Type (0, 1), BuildingBlock: XUDNAN_clean_linker_2, # of connection points: 2
#     Edge 24, Type (0, 1), BuildingBlock: XUDNAN_clean_linker_2, # of connection points: 2
#     Edge 25, Type (0, 1), BuildingBlock: XUDNAN_clean_linker_2, # of connection points: 2
#     Edge 26, Type (0, 1), BuildingBlock: XUDNAN_clean_linker_2, # of connection points: 2
#     Edge 27, Type (0, 1), BuildingBlock: XUDNAN_clean_linker_2, # of connection points: 2
#     Edge 28, Type (0, 1), BuildingBlock: XUDNAN_clean_linker_2, # of connection points: 2
#     Edge 29, Type (0, 1), BuildingBlock: XUDNAN_clean_linker_2, # of connection points: 2
#     Edge 30, Type (0, 1), BuildingBlock: XUDNAN_clean_linker_2, # of connection points: 2
#     Edge 31, Type (0, 1), BuildingBlock: XUDNAN_clean_linker_2, # of connection points: 2
#     Edge 32, Type (0, 1), BuildingBlock: XUDNAN_clean_linker_2, # of connection points: 2
#     Edge 33, Type (0, 1), BuildingBlock: XUDNAN_clean_linker_2, # of connection points: 2
#     Edge 34, Type (0, 1), BuildingBlock: XUDNAN_clean_linker_2, # of connection points: 2
#     Edge 35, Type (0, 1), BuildingBlock: XUDNAN_clean_linker_2, # of connection points: 2
# Relax obj value: 0.278
# Max RMSD: 0.191
# Mean RMSD: 0.161
data_MOF--net-zzz--node1-BETFEN_clean_sbu_0--node2-BETDIP_clean_linker_0--edge1-XUDNAN_clean_linker_2
_symmetry_space_group_name_H-M    P1
_symmetry_Int_Tables_number       1
_symmetry_cell_setting            triclinic
loop_
_symmetry_equiv_pos_as_xyz
'x, y, z'
_cell_length_a     51.92734
_cell_length_b     52.045615
_cell_length_c     13.318563
_cell_angle_alpha  89.299554
_cell_angle_beta   89.865673
_cell_angle_gamma 90.025855
loop_
_atom_site_label
_atom_site_type_symbol
_atom_site_fract_x
_atom_site_fract_y
_atom_site_fract_z
_atom_type_partial_charge
H0 H 0.75305 0.54326 0.60299 0.0
H1 H 0.73726 0.51026 0.31232 0.0
H2 H 0.81364 0.5084 0.42877 0.0
H3 H 0.71515 0.55613 0.32236 0.0
C4 C 0.70269 0.54514 0.37269 0.0
C5 C 0.75947 0.53315 0.53694 0.0
C6 C 0.78598 0.52584 0.52739 0.0
C7 C 0.74151 0.52756 0.45819 0.0
C8 C 0.7504 0.51488 0.37264 0.0
C9 C 0.77608 0.50822 0.36352 0.0
C10 C 0.79353 0.51348 0.43974 0.0
N11 N 0.71477 0.53466 0.46119 0.0
H12 H 0.03155 0.75062 0.60287 0.0
H13 H 1.00893 0.74713 0.29441 0.0
H14 H 0.98947 0.813 0.46419 0.0
H15 H 0.99025 0.70653 0.35507 0.0
C16 C 1.00936 0.70024 0.37779 0.0
C17 C 1.02054 0.75852 0.54089 0.0
C18 C 1.01066 0.78427 0.54574 0.0
C19 C 1.01613 0.74345 0.45291 0.0
C20 C 1.00703 0.75626 0.36676 0.0
C21 C 1.00033 0.78212 0.37019 0.0
C22 C 0.99624 0.79325 0.46385 0.0
N23 N 1.02347 0.71684 0.44405 0.0
H24 H 0.79604 1.00666 0.61567 0.0
H25 H 0.80819 1.02306 0.30024 0.0
H26 H 0.73172 1.01664 0.41411 0.0
H27 H 0.83873 0.98721 0.33278 0.0
C28 C 0.84848 0.99993 0.38448 0.0
C29 C 0.78849 1.00945 0.54065 0.0
C30 C 0.76115 1.01027 0.52494 0.0
C31 C 0.80584 1.01207 0.45684 0.0
C32 C 0.79555 1.01802 0.36235 0.0
C33 C 0.76919 1.01967 0.34831 0.0
C34 C 0.75225 1.01436 0.42715 0.0
N35 N 0.83345 1.01053 0.46518 0.0
H36 H 0.53383 0.792 0.61401 0.0
H37 H 0.52092 0.81211 0.30371 0.0
H38 H 0.53984 0.73502 0.38144 0.0
H39 H 0.56342 0.84255 0.38428 0.0
C40 C 0.5453 0.85007 0.4126 0.0
C41 C 0.53387 0.78662 0.53577 0.0
C42 C 0.53582 0.76012 0.50867 0.0
C43 C 0.53142 0.80599 0.45862 0.0
C44 C 0.52731 0.79825 0.35974 0.0
C45 C 0.52882 0.77255 0.33467 0.0
C46 C 0.53726 0.75467 0.40576 0.0
N47 N 0.53095 0.83304 0.47745 0.0
H48 H 0.29468 0.50692 0.90903 0.0
H49 H 0.31092 0.5227 0.22119 0.0
H50 H 0.23318 0.52016 0.12159 0.0
H51 H 0.34514 0.54981 0.09862 0.0
C52 C 0.35088 0.52973 0.09872 0.0
C53 C 0.28802 0.51072 0.98446 0.0
C54 C 0.261 0.51382 1.00366 0.0
C55 C 0.30638 0.51398 0.06404 0.0
C56 C 0.29746 0.51969 0.16034 0.0
C57 C 0.2714 0.52205 0.17911 0.0
C58 C 0.25347 0.5184 0.10292 0.0
N59 N 0.33374 0.51204 0.05021 0.0
H60 H 0.05069 0.29263 0.91022 0.0
H61 H 1.02398 0.31132 0.20799 0.0
H62 H 1.01572 0.23496 0.1017 0.0
H63 H 1.0072 0.35151 0.03306 0.0
C64 C 0.02619 0.35321 0.06638 0.0
C65 C 0.04133 0.28707 0.97988 0.0
C66 C 0.03415 0.26079 0.99716 0.0
C67 C 0.03645 0.30602 0.05537 0.0
C68 C 0.02554 0.29811 0.14665 0.0
C69 C 1.01758 0.27293 0.16139 0.0
C70 C 1.02167 0.25468 0.0872 0.0
N71 N 0.04372 0.33255 0.04454 0.0
H72 H 0.25331 0.04332 0.90656 0.0
H73 H 0.23625 1.01829 0.21061 0.0
H74 H 0.31436 1.02137 0.10878 0.0
H75 H 0.19399 1.00098 0.06487 0.0
C76 C 0.19482 1.02086 0.08864 0.0
C77 C 0.25974 0.03688 0.97993 0.0
C78 C 0.28653 0.03301 0.99806 0.0
C79 C 0.2413 0.03191 0.05782 0.0
C80 C 0.24988 1.02265 0.15102 0.0
C81 C 0.27602 1.01946 0.16886 0.0
C82 C 0.2941 0.02493 0.09381 0.0
N83 N 0.21442 0.03702 0.0452 0.0
H84 H 0.49345 0.25462 0.94514 0.0
H85 H 0.54144 0.23454 0.20025 0.0
H86 H 0.54067 0.31163 0.08767 0.0
H87 H 0.54542 0.19678 0.08292 0.0
C88 C 0.52503 0.19426 0.09929 0.0
C89 C 0.50714 0.25994 1.00242 0.0
C90 C 0.51583 0.28586 0.00858 0.0
C91 C 0.51664 0.24095 0.07143 0.0
C92 C 0.53448 0.24829 0.14493 0.0
C93 C 0.54305 0.27349 0.14915 0.0
C94 C 0.53372 0.29199 0.08219 0.0
N95 N 0.50804 0.21478 0.07057 0.0
Pr96 Pr 0.04753 1.02002 0.84057 0.0
Pr97 Pr 1.00428 0.02508 0.67798 0.0
C98 C 0.06987 1.00152 1.00372 0.0
C99 C 0.07116 0.97372 0.02164 0.0
C100 C 0.09498 0.96162 0.03761 0.0
C101 C 0.0967 0.93486 0.03667 0.0
C102 C 0.07483 0.9201 0.01538 0.0
C103 C 0.05117 0.93218 0.9979 0.0
C104 C 0.04927 0.9587 1.00211 0.0
C105 C 0.07316 0.02846 0.65854 0.0
C106 C 0.02545 0.96593 0.72427 0.0
C107 C 0.98155 0.03765 0.50462 0.0
C108 C 0.98409 0.06216 0.44981 0.0
C109 C 0.96229 0.07783 0.43949 0.0
C110 C 0.96511 0.10415 0.42261 0.0
C111 C 0.98979 0.11508 0.4142 0.0
C112 C 1.01144 0.09893 0.41355 0.0
C113 C 1.00865 0.07269 0.43201 0.0
C114 C 0.97977 1.02052 0.86763 0.0
C115 C 0.0288 0.07919 0.78762 0.0
O116 O 0.04687 1.01186 0.00774 0.0
O117 O 0.08348 1.00946 0.92686 0.0
O118 O 0.04872 0.02712 0.66829 0.0
O119 O 0.08435 0.02734 0.74529 0.0
O120 O 1.0085 0.97975 0.67293 0.0
O121 O 0.04177 0.97688 0.78696 0.0
O122 O 1.00198 1.02289 0.50839 0.0
O123 O 0.96999 0.03972 0.59144 0.0
O124 O 1.00375 1.02042 0.84957 0.0
O125 O 0.96741 1.02268 0.78344 0.0
O126 O 0.0413 0.06472 0.85415 0.0
O127 O 1.01577 0.06867 0.71242 0.0
H128 H 0.11229 0.97281 0.04889 0.0
H129 H 0.11495 0.92566 0.05309 0.0
H130 H 0.03388 0.92104 0.98457 0.0
H131 H 0.03074 0.96741 0.98676 0.0
H132 H 0.94322 0.07014 0.45387 0.0
H133 H 0.94803 0.11608 0.42351 0.0
H134 H 0.03064 0.10672 0.40397 0.0
H135 H 0.02589 0.06112 0.43982 0.0
Pr136 Pr 0.52492 0.04492 0.84763 0.0
Pr137 Pr 0.52202 1.0018 0.67319 0.0
C138 C 0.53634 0.06663 0.02161 0.0
C139 C 0.56236 0.06861 0.06403 0.0
C140 C 0.57566 0.09203 0.05581 0.0
C141 C 0.60218 0.09287 0.0701 0.0
C142 C 0.61582 0.07035 0.09384 0.0
C143 C 0.60228 0.04723 0.10855 0.0
C144 C 0.57581 0.04633 0.0934 0.0
C145 C 0.52059 0.06904 0.65807 0.0
C146 C 0.58059 1.02187 0.74021 0.0
C147 C 0.50994 0.9818 0.49613 0.0
C148 C 0.48372 0.97825 0.45617 0.0
C149 C 0.4698 0.95592 0.48138 0.0
C150 C 0.44327 0.95502 0.46765 0.0
C151 C 0.43017 0.9763 0.42723 0.0
C152 C 0.44431 0.99788 0.39464 0.0
C153 C 0.47086 0.99886 0.40899 0.0
C154 C 0.52337 0.97689 0.86263 0.0
C155 C 0.46655 0.02502 0.78055 0.0
O156 O 0.52648 0.04348 0.01717 0.0
O157 O 0.53281 0.08014 0.93932 0.0
O158 O 0.52168 0.04527 0.67802 0.0
O159 O 0.5213 0.08173 0.74129 0.0
O160 O 0.56717 1.00784 0.67606 0.0
O161 O 0.56913 0.03594 0.81042 0.0
O162 O 0.51762 1.00565 0.50495 0.0
O163 O 0.51585 0.96746 0.5742 0.0
O164 O 0.52376 1.00096 0.84545 0.0
O165 O 0.52323 0.96488 0.77759 0.0
O166 O 0.47992 0.03892 0.84513 0.0
O167 O 0.47796 1.01089 0.71045 0.0
H168 H 0.56575 0.10945 0.03292 0.0
H169 H 0.61209 0.11097 0.05833 0.0
H170 H 0.61219 0.02967 0.12968 0.0
H171 H 0.56621 0.02789 0.09986 0.0
H172 H 0.47914 0.93966 0.51745 0.0
H173 H 0.43291 0.93812 0.49345 0.0
H174 H 0.4348 1.01429 0.3604 0.0
H175 H 0.48102 1.0163 0.38798 0.0
Pr176 Pr 0.50073 0.5255 0.84534 0.0
Pr177 Pr 0.54381 0.51927 0.67075 0.0
C178 C 0.47755 0.53948 0.01433 0.0
C179 C 0.47651 0.56571 0.05343 0.0
C180 C 0.45271 0.57835 0.05797 0.0
C181 C 0.45165 0.60468 0.07503 0.0
C182 C 0.47441 0.61881 0.08789 0.0
C183 C 0.49823 0.60605 0.08566 0.0
C184 C 0.4993 0.57977 0.06807 0.0
C185 C 0.47649 0.52167 0.65533 0.0
C186 C 0.52744 0.57864 0.73537 0.0
C187 C 0.5651 0.50722 0.49455 0.0
C188 C 0.5685 0.48197 0.44823 0.0
C189 C 0.59345 0.47236 0.43455 0.0
C190 C 0.5972 0.44676 0.40915 0.0
C191 C 0.57602 0.43035 0.39543 0.0
C192 C 0.55098 0.44039 0.40403 0.0
C193 C 0.54724 0.46588 0.43113 0.0
C194 C 0.56891 0.52187 0.85912 0.0
C195 C 0.51842 0.46605 0.78717 0.0
O196 O 0.50008 0.52814 0.01475 0.0
O197 O 0.46493 0.53645 0.93053 0.0
O198 O 0.50028 0.52134 0.67497 0.0
O199 O 0.46389 0.52382 0.7389 0.0
O200 O 0.5384 0.56432 0.66558 0.0
O201 O 0.51461 0.56844 0.81249 0.0
O202 O 0.54147 0.51577 0.50209 0.0
O203 O 0.57874 0.51085 0.57556 0.0
O204 O 0.5448 0.52295 0.84327 0.0
O205 O 0.58074 0.52008 0.77344 0.0
O206 O 0.50599 0.48049 0.853 0.0
O207 O 0.53193 0.47624 0.71148 0.0
H208 H 0.43495 0.56798 0.04486 0.0
H209 H 0.43304 0.61406 0.07556 0.0
H210 H 0.5161 0.61638 0.09682 0.0
H211 H 0.51803 0.57072 0.06247 0.0
H212 H 0.61011 0.48432 0.44864 0.0
H213 H 0.61674 0.43964 0.40442 0.0
H214 H 0.5342 0.4285 0.39151 0.0
H215 H 0.52772 0.47265 0.44192 0.0
Pr216 Pr 1.02204 0.5037 0.81609 0.0
Pr217 Pr 0.02878 0.54449 0.65962 0.0
C218 C 1.01031 0.48169 0.99301 0.0
C219 C 0.98502 0.4784 0.04122 0.0
C220 C 0.97224 0.45478 0.03324 0.0
C221 C 0.94621 0.45285 0.05644 0.0
C222 C 0.93258 0.47435 0.0907 0.0
C223 C 0.94593 0.49745 0.10674 0.0
C224 C 0.9719 0.49952 0.08154 0.0
C225 C 0.0249 0.4754 0.63938 0.0
C226 C 0.96826 0.52977 0.71303 0.0
C227 C 0.04194 0.56821 0.48855 0.0
C228 C 0.06824 0.56776 0.44787 0.0
C229 C 0.08326 0.59017 0.45299 0.0
C230 C 0.11004 0.5885 0.45474 0.0
C231 C 0.12205 0.56439 0.45127 0.0
C232 C 0.10717 0.54233 0.43551 0.0
C233 C 0.08047 0.54398 0.43355 0.0
C234 C 0.02747 0.5712 0.84296 0.0
C235 C 0.08234 0.51767 0.75804 0.0
O236 O 1.01912 0.50516 0.98537 0.0
O237 O 1.01369 0.46856 0.91119 0.0
O238 O 0.0261 0.50003 0.63927 0.0
O239 O 1.02385 0.46598 0.7295 0.0
O240 O 0.98361 0.54399 0.65617 0.0
O241 O 0.97786 0.51316 0.77936 0.0
O242 O 0.02934 0.54642 0.48936 0.0
O243 O 0.04005 0.58033 0.57339 0.0
O244 O 0.02552 0.54705 0.83343 0.0
O245 O 0.02866 0.58219 0.75553 0.0
O246 O 0.06731 0.50514 0.82172 0.0
O247 O 0.07254 0.53283 0.6875 0.0
H248 H 0.98199 0.43815 1.00307 0.0
H249 H 0.93658 0.43479 0.04259 0.0
H250 H 0.93623 0.51416 0.13632 0.0
H251 H 0.9813 0.51797 0.08958 0.0
H252 H 0.07433 0.60867 0.46555 0.0
H253 H 0.12123 0.60582 0.46539 0.0
H254 H 0.11612 0.52362 0.42888 0.0
H255 H 0.06954 0.52629 0.42951 0.0
H256 H 0.14976 0.99772 0.14826 0.0
H257 H 0.19988 0.06159 0.21858 0.0
H258 H 0.17215 0.07193 0.36439 0.0
H259 H 0.08837 0.03219 0.22672 0.0
H260 H 0.07481 1.00151 0.26344 0.0
H261 H 0.09879 1.0036 0.1654 0.0
H262 H 0.12396 0.96847 0.26766 0.0
H263 H 0.10135 0.96997 0.37001 0.0
H264 H 0.13499 0.9764 0.39187 0.0
H265 H 0.14037 0.07356 0.50907 0.0
H266 H 0.10724 0.06694 0.63985 0.0
H267 H 0.07591 1.00293 0.47486 0.0
C268 C 0.1547 1.0141 0.19377 0.0
C269 C 0.177 0.02897 0.17133 0.0
C270 C 0.18282 0.05014 0.233 0.0
C271 C 0.16718 0.05607 0.31638 0.0
C272 C 0.14544 0.04095 0.33662 0.0
C273 C 0.13901 1.02057 0.27639 0.0
C274 C 0.11443 1.00758 0.31433 0.0
C275 C 0.09269 1.01143 0.23817 0.0
C276 C 0.11897 0.97891 0.33738 0.0
C277 C 0.10884 1.02273 0.40872 0.0
C278 C 0.12676 0.04223 0.41884 0.0
C279 C 0.12606 0.05863 0.50058 0.0
C280 C 0.10697 0.05484 0.57424 0.0
C281 C 0.08842 0.03497 0.56654 0.0
C282 C 0.0892 1.01885 0.48147 0.0
H283 H 0.55812 0.16532 0.21037 0.0
H284 H 0.47663 0.17616 0.15562 0.0
H285 H 0.46677 0.14173 0.28104 0.0
H286 H 0.55717 0.0955 0.25777 0.0
H287 H 0.58116 0.09774 0.35452 0.0
H288 H 0.58092 0.12086 0.2527 0.0
H289 H 0.57849 0.1575 0.38339 0.0
H290 H 0.57808 0.13421 0.48434 0.0
H291 H 0.55255 0.15754 0.47362 0.0
H292 H 0.46627 0.10618 0.41847 0.0
H293 H 0.47474 0.07702 0.56364 0.0
H294 H 0.55644 0.09178 0.5348 0.0
C295 C 0.53817 0.16024 0.22388 0.0
C296 C 0.51811 0.1733 0.17241 0.0
C297 C 0.49229 0.16639 0.19364 0.0
C298 C 0.48657 0.14676 0.26458 0.0
C299 C 0.50686 0.13435 0.31447 0.0
C300 C 0.53217 0.14107 0.29542 0.0
C301 C 0.55046 0.12644 0.36425 0.0
C302 C 0.56852 0.10912 0.30359 0.0
C303 C 0.56579 0.14503 0.43033 0.0
C304 C 0.53161 0.11049 0.42601 0.0
C305 C 0.50656 0.11491 0.39506 0.0
C306 C 0.48585 0.10252 0.44231 0.0
C307 C 0.49082 0.08578 0.52417 0.0
C308 C 0.51626 0.08159 0.55864 0.0
C309 C 0.53686 0.09404 0.50823 0.0
H310 H 0.37963 0.56187 0.2132 0.0
H311 H 0.37023 0.48107 0.1481 0.0
H312 H 0.40431 0.47047 0.27284 0.0
H313 H 0.45 0.56055 0.25844 0.0
H314 H 0.44759 0.58385 0.35668 0.0
H315 H 0.42465 0.58434 0.2554 0.0
H316 H 0.38763 0.58119 0.38631 0.0
H317 H 0.41075 0.5801 0.48669 0.0
H318 H 0.38728 0.55477 0.47518 0.0
H319 H 0.43956 0.46907 0.41195 0.0
H320 H 0.46864 0.47659 0.55656 0.0
H321 H 0.45302 0.55812 0.5358 0.0
C322 C 0.38495 0.54191 0.22416 0.0
C323 C 0.3723 0.52231 0.16961 0.0
C324 C 0.37967 0.49647 0.18771 0.0
C325 C 0.3991 0.49031 0.25863 0.0
C326 C 0.41107 0.51016 0.31144 0.0
C327 C 0.40411 0.53548 0.29496 0.0
C328 C 0.41866 0.55325 0.36501 0.0
C329 C 0.43626 0.57161 0.3052 0.0
C330 C 0.39996 0.56819 0.4323 0.0
C331 C 0.43453 0.53407 0.42552 0.0
C332 C 0.43037 0.50932 0.39225 0.0
C333 C 0.44297 0.48843 0.43746 0.0
C334 C 0.45969 0.49288 0.51916 0.0
C335 C 0.46364 0.51797 0.55611 0.0
C336 C 0.4509 0.53877 0.50787 0.0
H337 H 0.05143 0.39946 0.11285 0.0
H338 H 0.99686 0.34365 0.2303 0.0
H339 H 0.99182 0.3689 0.38313 0.0
H340 H 0.08099 0.42038 0.34718 0.0
H341 H 0.08067 0.45416 0.31543 0.0
H342 H 0.08252 0.43064 0.21747 0.0
H343 H 0.04209 0.45026 0.13357 0.0
H344 H 0.04019 0.4739 0.23124 0.0
H345 H 1.01295 0.45353 0.20623 0.0
H346 H 0.99145 0.39918 0.52128 0.0
H347 H 0.99504 0.43391 0.64198 0.0
H348 H 0.04688 0.47524 0.44072 0.0
C349 C 0.03917 0.3922 0.17263 0.0
C350 C 0.02624 0.36814 0.16267 0.0
C351 C 1.00871 0.36057 0.23904 0.0
C352 C 1.00524 0.37521 0.32566 0.0
C353 C 1.01836 0.39843 0.33401 0.0
C354 C 0.03471 0.40729 0.2595 0.0
C355 C 0.04439 0.43428 0.28607 0.0
C356 C 0.0739 0.43489 0.29192 0.0
C357 C 0.03433 0.45419 0.20967 0.0
C358 C 0.03198 0.43838 0.38936 0.0
C359 C 1.0168 0.41734 0.41342 0.0
C360 C 1.00319 0.41578 0.50314 0.0
C361 C 1.00539 0.43582 0.57153 0.0
C362 C 1.02112 0.45762 0.55205 0.0
C363 C 0.03438 0.45913 0.45805 0.0
H364 H 0.85731 0.03343 0.22841 0.0
H365 H 0.89665 0.98531 0.44563 0.0
H366 H 0.93694 0.98919 0.34618 0.0
H367 H 0.88128 1.00926 0.01843 0.0
H368 H 0.88591 0.03863 0.9474 0.0
H369 H 0.86225 0.03732 0.04594 0.0
H370 H 0.88367 0.07591 0.13395 0.0
H371 H 0.90712 0.07778 0.03396 0.0
H372 H 0.91756 0.07478 0.16248 0.0
H373 H 0.97161 0.99309 0.20543 0.0
H374 H 0.99599 0.99746 0.04532 0.0
H375 H 0.9333 0.04181 0.91812 0.0
C376 C 0.87479 0.0249 0.25778 0.0
C377 C 0.87396 1.00981 0.3472 0.0
C378 C 0.89697 0.9978 0.38 0.0
C379 C 0.91995 0.99972 0.32302 0.0
C380 C 0.91986 1.01389 0.23297 0.0
C381 C 0.89793 0.02683 0.20197 0.0
C382 C 0.90215 0.03923 0.09906 0.0
C383 C 0.88169 0.03056 0.02329 0.0
C384 C 0.90265 0.06867 0.10787 0.0
C385 C 0.92877 0.02915 0.07236 0.0
C386 C 0.9392 1.01542 0.1519 0.0
C387 C 0.96358 1.00408 0.14353 0.0
C388 C 0.9774 1.00666 0.05208 0.0
C389 C 0.96667 1.0199 0.96856 0.0
C390 C 0.94208 0.03145 0.98015 0.0
H391 H 0.54696 0.8532 0.20993 0.0
H392 H 0.51934 0.89463 0.46826 0.0
H393 H 0.50971 0.93242 0.35767 0.0
H394 H 0.5782 0.90349 0.08973 0.0
H395 H 0.56956 0.89435 0.96412 0.0
H396 H 0.57168 0.8703 0.06188 0.0
H397 H 0.52464 0.85603 0.02773 0.0
H398 H 0.52262 0.87967 0.92813 0.0
H399 H 0.49927 0.87966 0.02845 0.0
H400 H 0.50782 0.96821 0.21262 0.0
H401 H 0.5096 0.99414 0.05394 0.0
H402 H 0.53696 0.92726 0.89576 0.0
C403 C 0.53815 0.86997 0.243 0.0
C404 C 0.53367 0.8708 0.34772 0.0
C405 C 0.52251 0.89329 0.38811 0.0
C406 C 0.51716 0.91495 0.32568 0.0
C407 C 0.52264 0.91372 0.22263 0.0
C408 C 0.53234 0.89139 0.18186 0.0
C409 C 0.53724 0.89457 0.0702 0.0
C410 C 0.56586 0.89043 0.04507 0.0
C411 C 0.51991 0.87641 0.01008 0.0
C412 C 0.52952 0.92236 0.05377 0.0
C413 C 0.52116 0.93339 0.14195 0.0
C414 C 0.51414 0.95944 0.14352 0.0
C415 C 0.51542 0.97418 0.0531 0.0
C416 C 0.52352 0.96287 0.96192 0.0
C417 C 0.53059 0.93661 0.96365 0.0
H418 H 0.69766 0.53118 0.17968 0.0
H419 H 0.65324 0.53767 0.45316 0.0
H420 H 0.61296 0.52997 0.35604 0.0
H421 H 0.65725 0.56378 0.0215 0.0
H422 H 0.66221 0.54352 0.91436 0.0
H423 H 0.68689 0.5461 0.00804 0.0
H424 H 0.68665 0.49663 0.03507 0.0
H425 H 0.66226 0.49387 0.93974 0.0
H426 H 0.65673 0.4805 0.06338 0.0
H427 H 0.57623 0.52641 0.2146 0.0
H428 H 0.55026 0.52488 0.0574 0.0
H429 H 0.62066 0.52004 0.88399 0.0
C430 C 0.67951 0.53027 0.21988 0.0
C431 C 0.67871 0.53489 0.32424 0.0
C432 C 0.65449 0.53381 0.37361 0.0
C433 C 0.63146 0.5296 0.31851 0.0
C434 C 0.63295 0.52603 0.21423 0.0
C435 C 0.65667 0.52577 0.16659 0.0
C436 C 0.65379 0.52252 0.05432 0.0
C437 C 0.66574 0.54534 0.99621 0.0
C438 C 0.66556 0.49686 0.02118 0.0
C439 C 0.62477 0.52219 0.04411 0.0
C440 C 0.61275 0.52393 0.13653 0.0
C441 C 0.58574 0.52485 0.14254 0.0
C442 C 0.57103 0.52405 0.05261 0.0
C443 C 0.58324 0.52243 0.95742 0.0
C444 C 0.61049 0.52129 0.95481 0.0
H445 H 1.00639 0.69677 0.1756 0.0
H446 H 0.03505 0.65546 0.43598 0.0
H447 H 0.04312 0.61722 0.32932 0.0
H448 H 0.97376 0.64601 0.06494 0.0
H449 H 0.98164 0.65486 0.93729 0.0
H450 H 0.98016 0.67913 0.03227 0.0
H451 H 0.02695 0.69321 0.99078 0.0
H452 H 0.02834 0.66932 0.89416 0.0
H453 H 0.0523 0.66955 0.99186 0.0
H454 H 0.04351 0.58124 0.19012 0.0
H455 H 0.041 0.55485 0.03561 0.0
H456 H 1.01451 0.62158 0.86833 0.0
C457 C 1.0152 0.67996 0.20973 0.0
C458 C 1.02054 0.67937 0.31403 0.0
C459 C 0.03143 0.65671 0.35603 0.0
C460 C 0.03585 0.63479 0.2959 0.0
C461 C 0.02971 0.63586 0.19337 0.0
C462 C 1.02016 0.65825 0.15066 0.0
C463 C 1.0146 0.6548 0.03975 0.0
C464 C 0.98584 0.65895 0.0173 0.0
C465 C 0.03156 0.67279 0.97534 0.0
C466 C 1.02212 0.6269 0.02587 0.0
C467 C 0.03057 0.61601 0.11514 0.0
C468 C 0.03722 0.5899 0.12005 0.0
C469 C 0.03557 0.57493 0.03192 0.0
C470 C 0.02764 0.58604 0.93923 0.0
C471 C 1.02086 0.61242 0.93739 0.0
H472 H 0.97128 0.25223 0.19194 0.0
H473 H 0.04271 0.27083 0.33913 0.0
H474 H 0.03631 0.23484 0.45798 0.0
H475 H 0.93692 0.21472 0.41276 0.0
H476 H 0.92595 0.19165 0.32241 0.0
H477 H 0.92847 0.22516 0.28754 0.0
H478 H 0.95722 0.21231 0.13699 0.0
H479 H 0.95609 0.17914 0.17327 0.0
H480 H 0.98677 0.19504 0.16043 0.0
H481 H 0.03245 0.18991 0.50814 0.0
H482 H 0.02711 0.14297 0.5092 0.0
H483 H 0.96028 0.15077 0.31648 0.0
C484 C 0.98427 0.24981 0.25487 0.0
C485 C 1.00729 0.26392 0.25778 0.0
C486 C 0.02474 0.26024 0.33757 0.0
C487 C 1.02134 0.23962 0.40453 0.0
C488 C 1.00043 0.22325 0.3897 0.0
C489 C 0.98174 0.22848 0.31805 0.0
C490 C 0.96536 0.20512 0.29729 0.0
C491 C 0.93751 0.20942 0.33215 0.0
C492 C 0.96647 0.19749 0.18551 0.0
C493 C 0.97881 0.18554 0.36271 0.0
C494 C 0.99862 0.19639 0.4169 0.0
C495 C 1.01635 0.18136 0.46937 0.0
C496 C 1.01341 0.15467 0.46799 0.0
C497 C 0.99299 0.14326 0.41405 0.0
C498 C 0.97549 0.159 0.36134 0.0
H499 H 0.30077 0.04293 0.31881 0.0
H500 H 0.27462 0.9692 0.21445 0.0
H501 H 0.3081 0.9476 0.31434 0.0
H502 H 0.3582 0.03697 0.28294 0.0
H503 H 0.373 0.05094 0.39182 0.0
H504 H 0.34107 0.06025 0.35699 0.0
H505 H 0.32321 0.04695 0.53113 0.0
H506 H 0.35537 0.03833 0.57009 0.0
H507 H 0.32961 1.01525 0.58081 0.0
H508 H 0.35181 0.93698 0.35729 0.0
H509 H 0.39887 0.9364 0.37497 0.0
H510 H 0.39753 1.01629 0.46445 0.0
C511 C 0.30094 1.02215 0.32469 0.0
C512 C 0.28527 1.00749 0.26141 0.0
C513 C 0.28625 0.98046 0.26513 0.0
C514 C 0.30532 0.9681 0.32126 0.0
C515 C 0.32258 0.98319 0.37471 0.0
C516 C 0.31989 1.00964 0.38108 0.0
C517 C 0.34354 1.0218 0.427 0.0
C518 C 0.35458 0.04373 0.3606 0.0
C519 C 0.33759 0.03114 0.53359 0.0
C520 C 0.36119 0.99876 0.43045 0.0
C521 C 0.3485 0.97655 0.40338 0.0
C522 C 0.36171 0.95385 0.38414 0.0
C523 C 0.38849 0.95373 0.39371 0.0
C524 C 0.40179 0.97622 0.422 0.0
C525 C 0.38783 0.99879 0.44278 0.0
H526 H 0.52962 0.2894 0.33078 0.0
H527 H 0.59419 0.28049 0.12972 0.0
H528 H 0.61542 0.31784 0.20449 0.0
H529 H 0.5215 0.34745 0.28854 0.0
H530 H 0.51269 0.35956 0.41012 0.0
H531 H 0.50757 0.32638 0.38257 0.0
H532 H 0.53518 0.31152 0.53341 0.0
H533 H 0.53903 0.34492 0.56487 0.0
H534 H 0.567 0.32474 0.55027 0.0
H535 H 0.62031 0.36283 0.24557 0.0
H536 H 0.61399 0.4086 0.28081 0.0
H537 H 0.54663 0.38956 0.46108 0.0
C538 C 0.54927 0.29404 0.30977 0.0
C539 C 0.56066 0.28221 0.22656 0.0
C540 C 0.58571 0.28914 0.19559 0.0
C541 C 0.59769 0.31057 0.23687 0.0
C542 C 0.58439 0.32424 0.30985 0.0
C543 C 0.56109 0.31575 0.34908 0.0
C544 C 0.54812 0.33644 0.40989 0.0
C545 C 0.5209 0.34282 0.37025 0.0
C546 C 0.54733 0.32888 0.52137 0.0
C547 C 0.56657 0.35842 0.39153 0.0
C548 C 0.58751 0.35092 0.33493 0.0
C549 C 0.60483 0.36871 0.29469 0.0
C550 C 0.60102 0.39473 0.31492 0.0
C551 C 0.58009 0.40274 0.37526 0.0
C552 C 0.56289 0.38418 0.41489 0.0
H553 H 0.25425 0.56908 0.20844 0.0
H554 H 0.26563 0.4957 0.35565 0.0
H555 H 0.23478 0.50781 0.48816 0.0
H556 H 0.22963 0.60928 0.43736 0.0
H557 H 0.20574 0.62345 0.35572 0.0
H558 H 0.23722 0.61566 0.30723 0.0
H559 H 0.2157 0.58872 0.16812 0.0
H560 H 0.18439 0.59549 0.21672 0.0
H561 H 0.19478 0.56259 0.20526 0.0
H562 H 0.19401 0.51976 0.56218 0.0
H563 H 0.14762 0.52943 0.56799 0.0
H564 H 0.15898 0.59329 0.36162 0.0
C565 C 0.25141 0.55654 0.27309 0.0
C566 C 0.26225 0.53189 0.27464 0.0
C567 C 0.25772 0.51496 0.35591 0.0
C568 C 0.24023 0.52177 0.4311 0.0
C569 C 0.22747 0.54534 0.42213 0.0
C570 C 0.23311 0.56267 0.34513 0.0
C571 C 0.2121 0.58248 0.33184 0.0
C572 C 0.22175 0.60932 0.3598 0.0
C573 C 0.2011 0.58232 0.22414 0.0
C574 C 0.19279 0.57244 0.40729 0.0
C575 C 0.2024 0.5517 0.46166 0.0
C576 C 0.18657 0.53643 0.52247 0.0
C577 C 0.16023 0.54182 0.52434 0.0
C578 C 0.15002 0.562 0.46464 0.0
C579 C 0.16661 0.57817 0.40952 0.0
H580 H 0.03288 0.82156 0.39862 0.0
H581 H 0.99446 0.77942 0.16275 0.0
H582 H 1.01866 0.80544 0.03565 0.0
H583 H 0.02966 0.88139 0.28754 0.0
H584 H 0.06013 0.89127 0.33895 0.0
H585 H 0.04113 0.86758 0.40385 0.0
H586 H 0.08013 0.83647 0.40064 0.0
H587 H 0.09905 0.85986 0.33227 0.0
H588 H 0.09465 0.82811 0.28238 0.0
H589 H 0.04295 0.84024 0.93933 0.0
H590 H 0.0604 0.88248 0.8851 0.0
H591 H 0.08533 0.89705 0.18873 0.0
C592 C 0.02893 0.81776 0.32062 0.0
C593 C 1.01109 0.79895 0.29061 0.0
C594 C 1.00763 0.79421 0.18712 0.0
C595 C 1.02156 0.80856 0.115 0.0
C596 C 0.03919 0.82683 0.14869 0.0
C597 C 0.04268 0.83135 0.24944 0.0
C598 C 0.06081 0.85316 0.26917 0.0
C599 C 0.04711 0.8746 0.32817 0.0
C600 C 0.08511 0.84382 0.32432 0.0
C601 C 0.06666 0.86111 0.16268 0.0
C602 C 0.05429 0.84561 0.09372 0.0
C603 C 0.05328 0.85208 0.992 0.0
C604 C 0.06345 0.87587 0.96158 0.0
C605 C 0.07467 0.89237 0.03293 0.0
C606 C 0.07786 0.88412 0.13262 0.0
H607 H 0.74439 1.00143 0.1847 0.0
H608 H 0.7689 0.07049 0.33392 0.0
H609 H 0.73565 0.09529 0.24558 0.0
H610 H 0.71986 0.04089 0.9362 0.0
H611 H 0.69468 1.01736 0.92235 0.0
H612 H 0.72626 1.00754 0.96395 0.0
H613 H 0.70533 0.98593 0.1199 0.0
H614 H 0.67401 0.99634 0.08144 0.0
H615 H 0.68595 1.00499 0.20353 0.0
H616 H 0.69213 0.10665 0.20586 0.0
H617 H 0.64542 0.1075 0.1792 0.0
H618 H 0.64985 0.03374 0.03139 0.0
C619 C 0.74393 1.02214 0.1914 0.0
C620 C 0.75908 0.03438 0.26371 0.0
C621 C 0.75768 0.0612 0.27615 0.0
C622 C 0.7388 0.07538 0.22659 0.0
C623 C 0.72242 0.06251 0.1618 0.0
C624 C 0.72563 0.03674 0.1393 0.0
C625 C 0.70323 0.02689 0.07825 0.0
C626 C 0.7115 1.02294 0.96867 0.0
C627 C 0.69144 1.00211 0.12372 0.0
C628 C 0.68521 0.04958 0.08612 0.0
C629 C 0.69697 0.07021 0.13164 0.0
C630 C 0.68303 0.09139 0.16437 0.0
C631 C 0.65645 0.09165 0.14944 0.0
C632 C 0.6441 0.07086 0.1021 0.0
C633 C 0.65883 0.04995 0.0676 0.0
H634 H 0.54067 0.75047 0.15553 0.0
H635 H 0.47825 0.76898 0.35754 0.0
H636 H 0.45218 0.73431 0.28774 0.0
H637 H 0.49155 0.72667 0.94081 0.0
H638 H 0.5144 0.70269 0.90264 0.0
H639 H 0.52548 0.73395 0.9414 0.0
H640 H 0.55503 0.713 0.07398 0.0
H641 H 0.54471 0.68168 0.03723 0.0
H642 H 0.54149 0.6912 0.16645 0.0
H643 H 0.4411 0.69053 0.24725 0.0
H644 H 0.44057 0.64459 0.20678 0.0
H645 H 0.50669 0.65575 0.01099 0.0
C646 C 0.52073 0.74849 0.17818 0.0
C647 C 0.51113 0.76246 0.25973 0.0
C648 C 0.48544 0.75887 0.2925 0.0
C649 C 0.47056 0.73908 0.25389 0.0
C650 C 0.48121 0.72411 0.17878 0.0
C651 C 0.50513 0.72942 0.13689 0.0
C652 C 0.51302 0.70861 0.06467 0.0
C653 C 0.51101 0.71859 0.95592 0.0
C654 C 0.54014 0.698 0.08718 0.0
C655 C 0.49217 0.68902 0.08636 0.0
C656 C 0.47354 0.69869 0.14973 0.0
C657 C 0.45463 0.68308 0.19301 0.0
C658 C 0.45455 0.65698 0.16997 0.0
C659 C 0.47334 0.64675 0.10468 0.0
C660 C 0.492 0.66313 0.06075 0.0
H661 H 0.79843 0.53242 0.2084 0.0
H662 H 0.7788 0.45758 0.32939 0.0
H663 H 0.81392 0.43817 0.23232 0.0
H664 H 0.82906 0.50783 0.95268 0.0
H665 H 0.85332 0.53253 0.9617 0.0
H666 H 0.82083 0.53875 1.0028 0.0
H667 H 0.83841 0.55223 0.17507 0.0
H668 H 0.87079 0.54511 0.13843 0.0
H669 H 0.85719 0.52972 0.24838 0.0
H670 H 0.85806 0.43087 0.18838 0.0
H671 H 0.90471 0.43339 0.16283 0.0
H672 H 0.89674 0.51226 0.05658 0.0
C673 C 0.80036 0.5117 0.20682 0.0
C674 C 0.78598 0.49619 0.27342 0.0
C675 C 0.78939 0.46937 0.27586 0.0
C676 C 0.80942 0.45831 0.22158 0.0
C677 C 0.82533 0.47445 0.16472 0.0
C678 C 0.82049 0.50052 0.15347 0.0
C679 C 0.84312 0.51437 0.10544 0.0
C680 C 0.83619 0.52392 0.9993 0.0
C681 C 0.85293 0.53662 0.17083 0.0
C682 C 0.86229 0.49258 0.10195 0.0
C683 C 0.85151 0.4697 0.1349 0.0
C684 C 0.86647 0.44817 0.15657 0.0
C685 C 0.89303 0.44984 0.14222 0.0
C686 C 0.90442 0.47283 0.10567 0.0
C687 C 0.88868 0.49432 0.08407 0.0
H688 H 0.05932 0.21595 0.04211 0.0
H689 H 1.01624 0.25307 0.80343 0.0
H690 H 1.01171 0.21093 0.71904 0.0
H691 H 0.09198 0.16606 0.89123 0.0
H692 H 0.08852 0.14224 0.98977 0.0
H693 H 0.09148 0.17573 0.02075 0.0
H694 H 0.04882 0.17283 0.12176 0.0
H695 H 0.04549 0.13949 0.08973 0.0
H696 H 1.02003 0.16185 0.06031 0.0
H697 H 1.00635 0.16262 0.67596 0.0
H698 H 1.00625 0.11528 0.66238 0.0
H699 H 0.05204 0.10957 0.93377 0.0
C700 C 0.04988 0.21547 0.96972 0.0
C701 C 0.03872 0.23827 0.92842 0.0
C702 C 0.02568 0.23634 0.83543 0.0
C703 C 1.02265 0.21226 0.78788 0.0
C704 C 0.03266 0.19004 0.83413 0.0
C705 C 0.04639 0.19162 0.92245 0.0
C706 C 0.05377 0.16496 0.96132 0.0
C707 C 0.08319 0.16208 0.96603 0.0
C708 C 0.04129 0.15947 0.06436 0.0
C709 C 0.04229 0.14788 0.881 0.0
C710 C 0.02999 0.16268 0.80864 0.0
C711 C 1.01669 0.15104 0.73033 0.0
C712 C 1.01657 0.12394 0.72391 0.0
C713 C 0.02939 0.10821 0.79611 0.0
C714 C 0.04231 0.12069 0.87605 0.0
H715 H 0.32718 0.06673 0.98875 0.0
H716 H 0.29558 0.99978 0.84448 0.0
H717 H 0.33764 0.99211 0.76171 0.0
H718 H 0.37254 0.08495 0.769 0.0
H719 H 0.39647 0.09647 0.85527 0.0
H720 H 0.36271 0.0993 0.88539 0.0
H721 H 0.37082 0.07497 0.05309 0.0
H722 H 0.40435 0.07136 0.02274 0.0
H723 H 0.38504 0.04337 0.05103 0.0
H724 H 0.3855 0.98858 0.71263 0.0
H725 H 0.43291 0.99035 0.69778 0.0
H726 H 0.43391 0.05921 0.87806 0.0
C727 C 0.32872 0.05131 0.9352 0.0
C728 C 0.30761 0.03438 0.92054 0.0
C729 C 0.31094 1.01362 0.85387 0.0
C730 C 0.33499 1.00893 0.80756 0.0
C731 C 0.35568 0.02535 0.82719 0.0
C732 C 0.35256 0.04652 0.8877 0.0
C733 C 0.37816 0.06032 0.90199 0.0
C734 C 0.37743 0.08684 0.84988 0.0
C735 C 0.38498 0.06261 0.01386 0.0
C736 C 0.39658 0.04248 0.84758 0.0
C737 C 0.38314 1.02287 0.80207 0.0
C738 C 0.39604 1.00401 0.74763 0.0
C739 C 0.42314 1.00517 0.73971 0.0
C740 C 0.43752 0.02479 0.78723 0.0
C741 C 0.42376 0.04377 0.84139 0.0
H742 H 0.48851 0.32916 0.05366 0.0
H743 H 0.53193 0.29346 0.81572 0.0
H744 H 0.53621 0.33563 0.73063 0.0
H745 H 0.45465 0.37929 0.89397 0.0
H746 H 0.45744 0.4029 0.99127 0.0
H747 H 0.45445 0.36931 0.02406 0.0
H748 H 0.49637 0.37241 0.12806 0.0
H749 H 0.50001 0.40574 0.09349 0.0
H750 H 0.52558 0.38332 0.06787 0.0
H751 H 0.5391 0.38302 0.67742 0.0
H752 H 0.53987 0.43023 0.66197 0.0
H753 H 0.49488 0.43585 0.93606 0.0
C754 C 0.49734 0.32995 0.97993 0.0
C755 C 0.5088 0.30756 0.93907 0.0
C756 C 0.5218 0.30984 0.84592 0.0
C757 C 0.52453 0.33392 0.79729 0.0
C758 C 0.51375 0.35571 0.84114 0.0
C759 C 0.50006 0.35385 0.92995 0.0
C760 C 0.49245 0.3804 0.96665 0.0
C761 C 0.46299 0.38314 0.96913 0.0
C762 C 0.50431 0.38577 0.07012 0.0
C763 C 0.50425 0.39761 0.88549 0.0
C764 C 0.51639 0.38295 0.81353 0.0
C765 C 0.52935 0.39453 0.7329 0.0
C766 C 0.52974 0.42155 0.72498 0.0
C767 C 0.51736 0.43717 0.79737 0.0
C768 C 0.50442 0.42475 0.87874 0.0
H769 H 0.2209 0.54783 0.98709 0.0
H770 H 0.25066 0.47885 0.85002 0.0
H771 H 0.20924 0.47397 0.7579 0.0
H772 H 0.17627 0.55192 0.05948 0.0
H773 H 0.16057 0.52161 0.03895 0.0
H774 H 0.1431 0.5513 0.02207 0.0
H775 H 0.18802 0.58132 0.9088 0.0
H776 H 0.15475 0.5813 0.87064 0.0
H777 H 0.17946 0.57154 0.78376 0.0
H778 H 0.16036 0.47421 0.69846 0.0
H779 H 0.11318 0.48045 0.67594 0.0
H780 H 0.1161 0.54779 0.8624 0.0
C781 C 0.21912 0.5319 0.93597 0.0
C782 C 0.23944 0.5137 0.92652 0.0
C783 C 0.23583 0.49328 0.85835 0.0
C784 C 0.2121 0.49025 0.80644 0.0
C785 C 0.19196 0.50771 0.82339 0.0
C786 C 0.19554 0.52826 0.88639 0.0
C787 C 0.17063 0.54307 0.90146 0.0
C788 C 0.16212 0.54188 0.01207 0.0
C789 C 0.17338 0.57097 0.86389 0.0
C790 C 0.15222 0.52808 0.83658 0.0
C791 C 0.16467 0.50764 0.79175 0.0
C792 C 0.1508 0.49033 0.73298 0.0
C793 C 0.12393 0.49398 0.7206 0.0
C794 C 0.11097 0.51474 0.76667 0.0
C795 C 0.12549 0.53198 0.82491 0.0
H796 H 0.98261 0.8172 0.66648 0.0
H797 H 0.05999 0.80171 0.56258 0.0
H798 H 0.07267 0.8461 0.60406 0.0
H799 H 0.97478 0.87635 0.57373 0.0
H800 H 0.9587 0.89116 0.6783 0.0
H801 H 0.95671 0.85696 0.66228 0.0
H802 H 0.97525 0.84867 0.84053 0.0
H803 H 0.97589 0.88298 0.85852 0.0
H804 H 1.00472 0.86434 0.87616 0.0
H805 H 0.07515 0.89468 0.63277 0.0
H806 H 0.06854 0.94107 0.66271 0.0
H807 H 0.98921 0.92618 0.74588 0.0
C808 C 1.00265 0.82263 0.65847 0.0
C809 C 1.02043 0.80531 0.61342 0.0
C810 C 0.04619 0.81387 0.6003 0.0
C811 C 0.05346 0.8394 0.62207 0.0
C812 C 0.03503 0.85634 0.66016 0.0
C813 C 1.01034 0.84802 0.68169 0.0
C814 C 0.99391 0.8704 0.71856 0.0
C815 C 0.96959 0.87392 0.65431 0.0
C816 C 0.98701 0.86635 0.83001 0.0
C817 C 1.0124 0.89302 0.70572 0.0
C818 C 0.03628 0.88432 0.6747 0.0
C819 C 0.05659 0.90149 0.6581 0.0
C820 C 0.05262 0.92793 0.67497 0.0
C821 C 0.02834 0.93753 0.70566 0.0
C822 C 1.00793 0.91964 0.72104 0.0
H823 H 0.72102 0.97643 0.55105 0.0
H824 H 0.75191 0.04744 0.66531 0.0
H825 H 0.70967 0.05699 0.74373 0.0
H826 H 0.66326 0.99871 0.47662 0.0
H827 H 0.64389 0.97138 0.51333 0.0
H828 H 0.67754 0.96719 0.48586 0.0
H829 H 0.68522 0.94667 0.66139 0.0
H830 H 0.65135 0.95003 0.68878 0.0
H831 H 0.67497 0.96354 0.77187 0.0
H832 H 0.66134 0.06098 0.79336 0.0
H833 H 0.61392 0.05878 0.8098 0.0
H834 H 0.61386 0.98614 0.65388 0.0
C835 C 0.71934 0.99326 0.59757 0.0
C836 C 0.7404 1.01069 0.60472 0.0
C837 C 0.73672 0.03321 0.66192 0.0
C838 C 0.7125 0.03899 0.70543 0.0
C839 C 0.69186 1.02199 0.69239 0.0
C840 C 0.69527 0.99929 0.64132 0.0
C841 C 0.66972 0.98511 0.63094 0.0
C842 C 0.66323 0.98034 0.5201 0.0
C843 C 0.67035 0.95983 0.69181 0.0
C844 C 0.65101 1.00404 0.67799 0.0
C845 C 0.66423 0.02485 0.71592 0.0
C846 C 0.65101 0.04467 0.76382 0.0
C847 C 0.62389 0.04324 0.77284 0.0
C848 C 0.60972 1.02241 0.73258 0.0
C849 C 0.62379 1.00252 0.68477 0.0
H850 H 0.5088 0.71596 0.47374 0.0
H851 H 0.55642 0.75062 0.70244 0.0
H852 H 0.55702 0.70855 0.79469 0.0
H853 H 0.47417 0.66869 0.61665 0.0
H854 H 0.47728 0.64488 0.52016 0.0
H855 H 0.4767 0.6785 0.48667 0.0
H856 H 0.52014 0.67355 0.39342 0.0
H857 H 0.5211 0.63997 0.42694 0.0
H858 H 0.54754 0.66066 0.45984 0.0
H859 H 0.55186 0.65958 0.85857 0.0
H860 H 0.54722 0.61209 0.8738 0.0
H861 H 0.51173 0.61024 0.58041 0.0
C862 C 0.51965 0.71507 0.54303 0.0
C863 C 0.53312 0.73695 0.57877 0.0
C864 C 0.54594 0.73447 0.67242 0.0
C865 C 0.5465 0.71045 0.72493 0.0
C866 C 0.53445 0.68893 0.68247 0.0
C867 C 0.52162 0.69128 0.59236 0.0
C868 C 0.51302 0.66541 0.55323 0.0
C869 C 0.48354 0.66431 0.54367 0.0
C870 C 0.52624 0.65955 0.45243 0.0
C871 C 0.52254 0.64765 0.63598 0.0
C872 C 0.53425 0.66145 0.71173 0.0
C873 C 0.54317 0.64885 0.79836 0.0
C874 C 0.54044 0.62181 0.80652 0.0
C875 C 0.52961 0.60734 0.72742 0.0
C876 C 0.52057 0.62063 0.6413 0.0
H877 H 0.81971 0.49213 0.61789 0.0
H878 H 0.80364 0.57333 0.58401 0.0
H879 H 0.84787 0.58323 0.64167 0.0
H880 H 0.86614 0.49677 0.84079 0.0
H881 H 0.88524 0.47118 0.79018 0.0
H882 H 0.85095 0.47188 0.76886 0.0
H883 H 0.86058 0.4693 0.57706 0.0
H884 H 0.89472 0.47028 0.59943 0.0
H885 H 0.87998 0.49397 0.51818 0.0
H886 H 0.89668 0.58376 0.67021 0.0
H887 H 0.94326 0.57544 0.69037 0.0
H888 H 0.92821 0.49369 0.7123 0.0
C889 C 0.825 0.51205 0.62818 0.0
C890 C 0.80765 0.53199 0.59872 0.0
C891 C 0.81596 0.55774 0.60894 0.0
C892 C 0.84133 0.56349 0.64029 0.0
C893 C 0.85835 0.54331 0.66257 0.0
C894 C 0.85026 0.51806 0.65954 0.0
C895 C 0.87283 0.49982 0.67868 0.0
C896 C 0.86851 0.48396 0.77534 0.0
C897 C 0.87728 0.48231 0.58796 0.0
C898 C 0.89505 0.51863 0.69104 0.0
C899 C 0.88627 0.54364 0.68094 0.0
C900 C 0.90349 0.56427 0.68065 0.0
C901 C 0.93005 0.55932 0.69171 0.0
C902 C 0.93961 0.53396 0.70468 0.0
C903 C 0.92163 0.51336 0.70507 0.0
loop_
_geom_bond_atom_site_label_1
_geom_bond_atom_site_label_2
_geom_bond_distance
_geom_bond_site_symmetry_2
_ccdc_geom_bond_type
H0 C5 0.930 . S
H1 C8 0.930 . S
H2 C10 0.930 . S
H3 C4 1.016 . S
C4 H3 1.016 . S
C4 N11 1.286 . S
C5 H0 0.930 . S
C5 C6 1.397 . S
C5 C7 1.361 . S
C6 C5 1.397 . S
C6 C10 1.390 . S
C7 C5 1.361 . S
C7 C8 1.393 . S
C7 N11 1.413 . S
C8 H1 0.930 . S
C8 C7 1.393 . S
C8 C9 1.399 . S
C9 C8 1.399 . S
C9 C10 1.381 . S
C10 H2 0.930 . S
C10 C6 1.390 . S
C10 C9 1.381 . S
N11 C4 1.286 . S
N11 C7 1.413 . S
H12 C17 0.930 . S
H13 C20 0.930 . S
H14 C22 0.930 . S
H15 C16 1.029 . S
C16 H15 1.029 . S
C16 N23 1.268 1_655 S
C17 H12 0.930 . S
C17 C18 1.397 . S
C17 C19 1.361 . S
C18 C17 1.397 . S
C18 C22 1.390 1_455 S
C19 C17 1.361 . S
C19 C20 1.393 . S
C19 N23 1.413 . S
C20 H13 0.930 . S
C20 C19 1.393 . S
C20 C21 1.402 . S
C21 C20 1.402 . S
C21 C22 1.379 1_455 S
C22 H14 0.930 . S
C22 C18 1.390 1_655 S
C22 C21 1.379 1_655 S
N23 C16 1.268 1_455 S
N23 C19 1.413 . S
H24 C29 0.930 . S
H25 C32 0.930 . S
H26 C34 0.930 . S
H27 C28 1.030 . S
C28 H27 1.030 . S
C28 N35 1.268 1_565 S
C29 H24 0.930 . S
C29 C30 1.397 . S
C29 C31 1.361 . S
C30 C29 1.397 . S
C30 C34 1.390 1_545 S
C31 C29 1.361 . S
C31 C32 1.393 . S
C31 N35 1.413 . S
C32 H25 0.930 . S
C32 C31 1.393 . S
C32 C33 1.402 . S
C33 C32 1.402 . S
C33 C34 1.379 1_545 S
C34 H26 0.930 . S
C34 C30 1.390 1_565 S
C34 C33 1.379 1_565 S
N35 C28 1.268 1_545 S
N35 C31 1.413 . S
H36 C41 0.930 . S
H37 C44 0.930 . S
H38 C46 0.930 . S
H39 C40 1.016 . S
C40 H39 1.016 . S
C40 N47 1.286 . S
C41 H36 0.930 . S
C41 C42 1.397 . S
C41 C43 1.361 . S
C42 C41 1.397 . S
C42 C46 1.390 . S
C43 C41 1.361 . S
C43 C44 1.393 . S
C43 N47 1.413 . S
C44 H37 0.930 . S
C44 C43 1.393 . S
C44 C45 1.399 . S
C45 C44 1.399 . S
C45 C46 1.381 . S
C46 H38 0.930 . S
C46 C42 1.390 . S
C46 C45 1.381 . S
N47 C40 1.286 . S
N47 C43 1.413 . S
H48 C53 0.930 . S
H49 C56 0.930 . S
H50 C58 0.931 . S
H51 C52 1.016 . S
C52 H51 1.016 . S
C52 N59 1.286 . S
C53 H48 0.930 . S
C53 C54 1.397 . S
C53 C55 1.361 1_556 S
C54 C53 1.397 . S
C54 C58 1.390 1_556 S
C55 C53 1.361 1_554 S
C55 C56 1.393 . S
C55 N59 1.413 . S
C56 H49 0.930 . S
C56 C55 1.393 . S
C56 C57 1.399 . S
C57 C56 1.399 . S
C57 C58 1.381 . S
C58 H50 0.931 . S
C58 C54 1.390 1_554 S
C58 C57 1.381 . S
N59 C52 1.286 . S
N59 C55 1.413 . S
H60 C65 0.930 . S
H61 C68 0.930 . S
H62 C70 0.930 . S
H63 C64 1.026 . S
C64 H63 1.026 . S
C64 N71 1.273 1_655 S
C65 H60 0.930 . S
C65 C66 1.397 . S
C65 C67 1.361 1_556 S
C66 C65 1.397 . S
C66 C70 1.390 1_456 S
C67 C65 1.361 1_554 S
C67 C68 1.393 . S
C67 N71 1.413 . S
C68 H61 0.930 . S
C68 C67 1.393 . S
C68 C69 1.404 . S
C69 C68 1.404 . S
C69 C70 1.378 1_455 S
C70 H62 0.930 . S
C70 C66 1.390 1_654 S
C70 C69 1.378 1_655 S
N71 C64 1.273 1_455 S
N71 C67 1.413 . S
H72 C77 0.930 . S
H73 C80 0.930 . S
H74 C82 0.930 . S
H75 C76 1.026 . S
C76 H75 1.026 . S
C76 N83 1.273 1_565 S
C77 H72 0.930 . S
C77 C78 1.397 . S
C77 C79 1.361 1_556 S
C78 C77 1.397 . S
C78 C82 1.390 1_546 S
C79 C77 1.361 1_554 S
C79 C80 1.393 . S
C79 N83 1.413 . S
C80 H73 0.930 . S
C80 C79 1.393 . S
C80 C81 1.404 . S
C81 C80 1.404 . S
C81 C82 1.378 1_545 S
C82 H74 0.930 . S
C82 C78 1.390 1_564 S
C82 C81 1.378 1_565 S
N83 C76 1.273 1_545 S
N83 C79 1.413 . S
H84 C89 0.930 . S
H85 C92 0.930 . S
H86 C94 0.929 1_556 S
H87 C88 1.016 . S
C88 H87 1.016 . S
C88 N95 1.286 . S
C89 H84 0.930 . S
C89 C90 1.397 . S
C89 C91 1.361 1_556 S
C90 C89 1.397 . S
C90 C94 1.390 1_556 S
C91 C89 1.361 1_554 S
C91 C92 1.393 . S
C91 N95 1.413 . S
C92 H85 0.930 . S
C92 C91 1.393 . S
C92 C93 1.399 . S
C93 C92 1.399 . S
C93 C94 1.381 . S
C94 H86 0.929 1_554 S
C94 C90 1.390 1_554 S
C94 C93 1.381 . S
N95 C88 1.286 . S
N95 C91 1.413 . S
Pr96 C98 2.880 . S
Pr96 O116 2.562 . S
Pr96 O117 2.490 . S
Pr96 O118 2.695 1_565 S
Pr96 O119 2.512 . S
Pr96 O121 2.437 . S
Pr96 O124 2.436 1_455 S
Pr96 O126 2.438 1_565 S
Pr97 C107 2.880 . S
Pr97 O118 2.436 1_655 S
Pr97 O120 2.438 1_545 S
Pr97 O122 2.562 . S
Pr97 O123 2.490 . S
Pr97 O124 2.695 1_545 S
Pr97 O125 2.512 . S
Pr97 O127 2.437 . S
C98 Pr96 2.880 . S
C98 C99 1.491 1_556 S
C98 O116 1.254 . S
C98 O117 1.225 . S
C99 C98 1.491 1_554 S
C99 C100 1.392 . S
C99 C104 1.356 . S
C100 C99 1.392 . S
C100 C101 1.368 . S
C100 H128 0.929 . S
C101 C100 1.368 . S
C101 C102 1.386 . S
C101 H129 0.929 . S
C102 C101 1.386 . S
C102 C103 1.373 . S
C103 C102 1.373 . S
C103 C104 1.409 . S
C103 H130 0.931 1_455 S
C104 C99 1.356 . S
C104 C103 1.409 . S
C104 H131 0.930 1_455 S
C105 O118 1.270 1_565 S
C105 O119 1.248 . S
C106 O120 1.267 . S
C106 O121 1.278 1_655 S
C107 Pr97 2.880 . S
C107 C108 1.491 . S
C107 O122 1.254 . S
C107 O123 1.225 . S
C108 C107 1.491 . S
C108 C109 1.392 . S
C108 C113 1.356 . S
C109 C108 1.392 . S
C109 C110 1.368 . S
C109 H132 0.929 . S
C110 C109 1.368 . S
C110 C111 1.386 . S
C110 H133 0.929 . S
C111 C110 1.386 . S
C111 C112 1.373 . S
C112 C111 1.373 . S
C112 C113 1.409 . S
C112 H134 0.931 1_655 S
C113 C108 1.356 . S
C113 C112 1.409 . S
C113 H135 0.930 1_655 S
C114 O124 1.270 1_545 S
C114 O125 1.248 . S
C115 O126 1.267 . S
C115 O127 1.278 1_455 S
O116 Pr96 2.562 . S
O116 C98 1.254 . S
O117 Pr96 2.490 . S
O117 C98 1.225 . S
O118 Pr96 2.695 1_545 S
O118 Pr97 2.436 1_455 S
O118 C105 1.270 1_545 S
O119 Pr96 2.512 . S
O119 C105 1.248 . S
O120 Pr97 2.438 1_565 S
O120 C106 1.267 . S
O121 Pr96 2.437 . S
O121 C106 1.278 1_455 S
O122 Pr97 2.562 . S
O122 C107 1.254 . S
O123 Pr97 2.490 . S
O123 C107 1.225 . S
O124 Pr96 2.436 1_655 S
O124 Pr97 2.695 1_565 S
O124 C114 1.270 1_565 S
O125 Pr97 2.512 . S
O125 C114 1.248 . S
O126 Pr96 2.438 1_545 S
O126 C115 1.267 . S
O127 Pr97 2.437 . S
O127 C115 1.278 1_655 S
H128 C100 0.929 . S
H129 C101 0.929 . S
H130 C103 0.931 1_655 S
H131 C104 0.930 1_655 S
H132 C109 0.929 . S
H133 C110 0.929 . S
H134 C112 0.931 1_455 S
H135 C113 0.930 1_455 S
Pr136 C138 2.880 . S
Pr136 O156 2.562 . S
Pr136 O157 2.490 . S
Pr136 O158 2.695 . S
Pr136 O159 2.512 . S
Pr136 O161 2.437 . S
Pr136 O164 2.436 1_545 S
Pr136 O166 2.438 . S
Pr137 C147 2.880 . S
Pr137 O158 2.436 1_565 S
Pr137 O160 2.438 . S
Pr137 O162 2.562 . S
Pr137 O163 2.490 . S
Pr137 O164 2.695 . S
Pr137 O165 2.512 . S
Pr137 O167 2.437 . S
C138 Pr136 2.880 . S
C138 C139 1.491 1_556 S
C138 O156 1.254 . S
C138 O157 1.225 . S
C139 C138 1.491 1_554 S
C139 C140 1.392 . S
C139 C144 1.356 . S
C140 C139 1.392 . S
C140 C141 1.368 . S
C140 H168 0.929 . S
C141 C140 1.368 . S
C141 C142 1.386 . S
C141 H169 0.929 . S
C142 C141 1.386 . S
C142 C143 1.373 . S
C143 C142 1.373 . S
C143 C144 1.409 . S
C143 H170 0.931 1_545 S
C144 C139 1.356 . S
C144 C143 1.409 . S
C144 H171 0.930 1_545 S
C145 O158 1.270 . S
C145 O159 1.248 . S
C146 O160 1.267 . S
C146 O161 1.278 1_565 S
C147 Pr137 2.880 . S
C147 C148 1.491 . S
C147 O162 1.254 . S
C147 O163 1.225 . S
C148 C147 1.491 . S
C148 C149 1.392 . S
C148 C153 1.356 . S
C149 C148 1.392 . S
C149 C150 1.368 . S
C149 H172 0.929 . S
C150 C149 1.368 . S
C150 C151 1.386 . S
C150 H173 0.929 . S
C151 C150 1.386 . S
C151 C152 1.373 . S
C152 C151 1.373 . S
C152 C153 1.409 . S
C152 H174 0.931 1_565 S
C153 C148 1.356 . S
C153 C152 1.409 . S
C153 H175 0.930 1_565 S
C154 O164 1.270 . S
C154 O165 1.248 . S
C155 O166 1.267 . S
C155 O167 1.278 1_545 S
O156 Pr136 2.562 . S
O156 C138 1.254 . S
O157 Pr136 2.490 . S
O157 C138 1.225 . S
O158 Pr136 2.695 . S
O158 Pr137 2.436 1_545 S
O158 C145 1.270 . S
O159 Pr136 2.512 . S
O159 C145 1.248 . S
O160 Pr137 2.438 . S
O160 C146 1.267 . S
O161 Pr136 2.437 . S
O161 C146 1.278 1_545 S
O162 Pr137 2.562 . S
O162 C147 1.254 . S
O163 Pr137 2.490 . S
O163 C147 1.225 . S
O164 Pr136 2.436 1_565 S
O164 Pr137 2.695 . S
O164 C154 1.270 . S
O165 Pr137 2.512 . S
O165 C154 1.248 . S
O166 Pr136 2.438 . S
O166 C155 1.267 . S
O167 Pr137 2.437 . S
O167 C155 1.278 1_565 S
H168 C140 0.929 . S
H169 C141 0.929 . S
H170 C143 0.931 1_565 S
H171 C144 0.930 1_565 S
H172 C149 0.929 . S
H173 C150 0.929 . S
H174 C152 0.931 1_545 S
H175 C153 0.930 1_545 S
Pr176 C178 2.880 . S
Pr176 O196 2.562 . S
Pr176 O197 2.490 . S
Pr176 O198 2.695 . S
Pr176 O199 2.512 . S
Pr176 O201 2.437 . S
Pr176 O204 2.436 . S
Pr176 O206 2.438 . S
Pr177 C187 2.880 . S
Pr177 O198 2.436 . S
Pr177 O200 2.438 . S
Pr177 O202 2.562 . S
Pr177 O203 2.490 . S
Pr177 O204 2.695 . S
Pr177 O205 2.512 . S
Pr177 O207 2.437 . S
C178 Pr176 2.880 . S
C178 C179 1.491 1_556 S
C178 O196 1.254 . S
C178 O197 1.225 . S
C179 C178 1.491 1_554 S
C179 C180 1.392 . S
C179 C184 1.356 . S
C180 C179 1.392 . S
C180 C181 1.368 . S
C180 H208 0.929 . S
C181 C180 1.368 . S
C181 C182 1.386 . S
C181 H209 0.929 . S
C182 C181 1.386 . S
C182 C183 1.373 . S
C183 C182 1.373 . S
C183 C184 1.409 . S
C183 H210 0.931 . S
C184 C179 1.356 . S
C184 C183 1.409 . S
C184 H211 0.930 . S
C185 O198 1.270 . S
C185 O199 1.248 . S
C186 O200 1.267 . S
C186 O201 1.278 . S
C187 Pr177 2.880 . S
C187 C188 1.491 . S
C187 O202 1.254 . S
C187 O203 1.225 . S
C188 C187 1.491 . S
C188 C189 1.392 . S
C188 C193 1.356 . S
C189 C188 1.392 . S
C189 C190 1.368 . S
C189 H212 0.929 . S
C190 C189 1.368 . S
C190 C191 1.386 . S
C190 H213 0.929 . S
C191 C190 1.386 . S
C191 C192 1.373 . S
C192 C191 1.373 . S
C192 C193 1.409 . S
C192 H214 0.931 . S
C193 C188 1.356 . S
C193 C192 1.409 . S
C193 H215 0.930 . S
C194 O204 1.270 . S
C194 O205 1.248 . S
C195 O206 1.267 . S
C195 O207 1.278 . S
O196 Pr176 2.562 . S
O196 C178 1.254 . S
O197 Pr176 2.490 . S
O197 C178 1.225 . S
O198 Pr176 2.695 . S
O198 Pr177 2.436 . S
O198 C185 1.270 . S
O199 Pr176 2.512 . S
O199 C185 1.248 . S
O200 Pr177 2.438 . S
O200 C186 1.267 . S
O201 Pr176 2.437 . S
O201 C186 1.278 . S
O202 Pr177 2.562 . S
O202 C187 1.254 . S
O203 Pr177 2.490 . S
O203 C187 1.225 . S
O204 Pr176 2.436 . S
O204 Pr177 2.695 . S
O204 C194 1.270 . S
O205 Pr177 2.512 . S
O205 C194 1.248 . S
O206 Pr176 2.438 . S
O206 C195 1.267 . S
O207 Pr177 2.437 . S
O207 C195 1.278 . S
H208 C180 0.929 . S
H209 C181 0.929 . S
H210 C183 0.931 . S
H211 C184 0.930 . S
H212 C189 0.929 . S
H213 C190 0.929 . S
H214 C192 0.931 . S
H215 C193 0.930 . S
Pr216 C218 2.880 . S
Pr216 O236 2.562 . S
Pr216 O237 2.490 . S
Pr216 O238 2.695 1_655 S
Pr216 O239 2.512 . S
Pr216 O241 2.437 . S
Pr216 O244 2.436 . S
Pr216 O246 2.438 1_655 S
Pr217 C227 2.880 . S
Pr217 O238 2.436 . S
Pr217 O240 2.438 1_455 S
Pr217 O242 2.562 . S
Pr217 O243 2.490 . S
Pr217 O244 2.695 1_455 S
Pr217 O245 2.512 . S
Pr217 O247 2.437 . S
C218 Pr216 2.880 . S
C218 C219 1.491 1_556 S
C218 O236 1.254 . S
C218 O237 1.225 . S
C219 C218 1.491 1_554 S
C219 C220 1.392 . S
C219 C224 1.356 . S
C220 C219 1.392 . S
C220 C221 1.368 . S
C220 H248 0.929 . S
C221 C220 1.368 . S
C221 C222 1.386 . S
C221 H249 0.929 . S
C222 C221 1.386 . S
C222 C223 1.373 . S
C223 C222 1.373 . S
C223 C224 1.409 . S
C223 H250 0.931 . S
C224 C219 1.356 . S
C224 C223 1.409 . S
C224 H251 0.930 . S
C225 O238 1.259 1_655 S
C225 O239 1.267 . S
C226 O240 1.267 . S
C226 O241 1.278 . S
C227 Pr217 2.880 . S
C227 C228 1.491 . S
C227 O242 1.254 . S
C227 O243 1.225 . S
C228 C227 1.491 . S
C228 C229 1.392 . S
C228 C233 1.356 . S
C229 C228 1.392 . S
C229 C230 1.368 . S
C229 H252 0.929 . S
C230 C229 1.368 . S
C230 C231 1.386 . S
C230 H253 0.929 . S
C231 C230 1.386 . S
C231 C232 1.373 . S
C232 C231 1.373 . S
C232 C233 1.409 . S
C232 H254 0.931 . S
C233 C228 1.356 . S
C233 C232 1.409 . S
C233 H255 0.930 . S
C234 O244 1.270 1_455 S
C234 O245 1.248 . S
C235 O246 1.267 . S
C235 O247 1.278 . S
O236 Pr216 2.562 . S
O236 C218 1.254 . S
O237 Pr216 2.490 . S
O237 C218 1.225 . S
O238 Pr216 2.695 1_455 S
O238 Pr217 2.436 . S
O238 C225 1.259 1_455 S
O239 Pr216 2.512 . S
O239 C225 1.267 . S
O240 Pr217 2.438 1_655 S
O240 C226 1.267 . S
O241 Pr216 2.437 . S
O241 C226 1.278 . S
O242 Pr217 2.562 . S
O242 C227 1.254 . S
O243 Pr217 2.490 . S
O243 C227 1.225 . S
O244 Pr216 2.436 . S
O244 Pr217 2.695 1_655 S
O244 C234 1.270 1_655 S
O245 Pr217 2.512 . S
O245 C234 1.248 . S
O246 Pr216 2.438 1_455 S
O246 C235 1.267 . S
O247 Pr217 2.437 . S
O247 C235 1.278 . S
H248 C220 0.929 . S
H249 C221 0.929 . S
H250 C223 0.931 . S
H251 C224 0.930 . S
H252 C229 0.929 . S
H253 C230 0.929 . S
H254 C232 0.931 . S
H255 C233 0.930 . S
H256 C268 0.930 . S
H257 C270 0.930 . S
H258 C271 0.930 . S
H259 C275 0.959 1_545 S
H260 C275 0.959 . S
H261 C275 0.961 . S
H262 C276 0.960 . S
H263 C276 0.961 . S
H264 C276 0.959 . S
H265 C279 0.929 . S
H266 C280 0.931 . S
H267 C282 0.930 . S
C268 H256 0.930 . S
C268 C269 1.385 1_565 S
C268 C273 1.399 . S
C269 C268 1.385 1_545 S
C269 C270 1.394 . S
C270 H257 0.930 . S
C270 C269 1.394 . S
C270 C271 1.388 . S
C271 H258 0.930 . S
C271 C270 1.388 . S
C271 C272 1.390 . S
C272 C271 1.390 . S
C272 C273 1.394 1_545 S
C272 C278 1.465 . S
C273 C268 1.399 . S
C273 C272 1.394 1_565 S
C273 C274 1.516 . S
C274 C273 1.516 . S
C274 C275 1.502 . S
C274 C276 1.561 . S
C274 C277 1.526 . S
C275 H259 0.959 1_565 S
C275 H260 0.959 . S
C275 H261 0.961 . S
C275 C274 1.502 . S
C276 H262 0.960 . S
C276 H263 0.961 . S
C276 H264 0.959 . S
C276 C274 1.561 . S
C277 C274 1.526 . S
C277 C278 1.396 1_565 S
C277 C282 1.390 . S
C278 C272 1.465 . S
C278 C277 1.396 1_545 S
C278 C279 1.399 . S
C279 H265 0.929 . S
C279 C278 1.399 . S
C279 C280 1.385 . S
C280 H266 0.931 . S
C280 C279 1.385 . S
C280 C281 1.389 . S
C281 C280 1.389 . S
C281 C282 1.387 1_545 S
C282 H267 0.930 . S
C282 C277 1.390 . S
C282 C281 1.387 1_565 S
H283 C295 0.930 . S
H284 C297 0.930 . S
H285 C298 0.930 . S
H286 C302 0.959 . S
H287 C302 0.959 . S
H288 C302 0.961 . S
H289 C303 0.960 . S
H290 C303 0.961 . S
H291 C303 0.959 . S
H292 C306 0.929 . S
H293 C307 0.931 . S
H294 C309 0.930 . S
C295 H283 0.930 . S
C295 C296 1.399 . S
C295 C300 1.399 . S
C296 C295 1.399 . S
C296 C297 1.376 . S
C297 H284 0.930 . S
C297 C296 1.376 . S
C297 C298 1.388 . S
C298 H285 0.930 . S
C298 C297 1.388 . S
C298 C299 1.390 . S
C299 C298 1.390 . S
C299 C300 1.394 . S
C299 C305 1.465 . S
C300 C295 1.399 . S
C300 C299 1.394 . S
C300 C301 1.516 . S
C301 C300 1.516 . S
C301 C302 1.502 . S
C301 C303 1.561 . S
C301 C304 1.526 . S
C302 H286 0.959 . S
C302 H287 0.959 . S
C302 H288 0.961 . S
C302 C301 1.502 . S
C303 H289 0.960 . S
C303 H290 0.961 . S
C303 H291 0.959 . S
C303 C301 1.561 . S
C304 C301 1.526 . S
C304 C305 1.396 . S
C304 C309 1.390 . S
C305 C299 1.465 . S
C305 C304 1.396 . S
C305 C306 1.399 . S
C306 H292 0.929 . S
C306 C305 1.399 . S
C306 C307 1.385 . S
C307 H293 0.931 . S
C307 C306 1.385 . S
C307 C308 1.389 . S
C308 C307 1.389 . S
C308 C309 1.387 . S
C309 H294 0.930 . S
C309 C304 1.390 . S
C309 C308 1.387 . S
H310 C322 0.930 . S
H311 C324 0.930 . S
H312 C325 0.930 . S
H313 C329 0.959 . S
H314 C329 0.959 . S
H315 C329 0.961 . S
H316 C330 0.960 . S
H317 C330 0.961 . S
H318 C330 0.959 . S
H319 C333 0.929 . S
H320 C334 0.931 . S
H321 C336 0.930 . S
C322 H310 0.930 . S
C322 C323 1.399 . S
C322 C327 1.399 . S
C323 C322 1.399 . S
C323 C324 1.376 . S
C324 H311 0.930 . S
C324 C323 1.376 . S
C324 C325 1.388 . S
C325 H312 0.930 . S
C325 C324 1.388 . S
C325 C326 1.390 . S
C326 C325 1.390 . S
C326 C327 1.394 . S
C326 C332 1.465 . S
C327 C322 1.399 . S
C327 C326 1.394 . S
C327 C328 1.516 . S
C328 C327 1.516 . S
C328 C329 1.502 . S
C328 C330 1.561 . S
C328 C331 1.526 . S
C329 H313 0.959 . S
C329 H314 0.959 . S
C329 H315 0.961 . S
C329 C328 1.502 . S
C330 H316 0.960 . S
C330 H317 0.961 . S
C330 H318 0.959 . S
C330 C328 1.561 . S
C331 C328 1.526 . S
C331 C332 1.396 . S
C331 C336 1.390 . S
C332 C326 1.465 . S
C332 C331 1.396 . S
C332 C333 1.399 . S
C333 H319 0.929 . S
C333 C332 1.399 . S
C333 C334 1.385 . S
C334 H320 0.931 . S
C334 C333 1.385 . S
C334 C335 1.389 . S
C335 C334 1.389 . S
C335 C336 1.387 . S
C336 H321 0.930 . S
C336 C331 1.390 . S
C336 C335 1.387 . S
H337 C349 0.930 . S
H338 C351 0.930 . S
H339 C352 0.930 . S
H340 C356 0.959 . S
H341 C356 0.959 . S
H342 C356 0.961 . S
H343 C357 0.961 . S
H344 C357 0.961 1_455 S
H345 C357 0.959 . S
H346 C360 0.929 . S
H347 C361 0.931 . S
H348 C363 0.930 . S
C349 H337 0.930 . S
C349 C350 1.399 1_455 S
C349 C354 1.399 . S
C350 C349 1.399 1_655 S
C350 C351 1.376 . S
C351 H338 0.930 . S
C351 C350 1.376 . S
C351 C352 1.388 . S
C352 H339 0.930 . S
C352 C351 1.388 . S
C352 C353 1.390 . S
C353 C352 1.390 . S
C353 C354 1.394 1_655 S
C353 C359 1.465 . S
C354 C349 1.399 . S
C354 C353 1.394 1_455 S
C354 C355 1.516 . S
C355 C354 1.516 . S
C355 C356 1.502 . S
C355 C357 1.561 1_455 S
C355 C358 1.526 . S
C356 H340 0.959 . S
C356 H341 0.959 . S
C356 H342 0.961 . S
C356 C355 1.502 . S
C357 H343 0.961 . S
C357 H344 0.961 1_655 S
C357 H345 0.959 . S
C357 C355 1.561 1_655 S
C358 C355 1.526 . S
C358 C359 1.396 1_455 S
C358 C363 1.390 . S
C359 C353 1.465 . S
C359 C358 1.396 1_655 S
C359 C360 1.399 . S
C360 H346 0.929 . S
C360 C359 1.399 . S
C360 C361 1.385 . S
C361 H347 0.931 . S
C361 C360 1.385 . S
C361 C362 1.389 . S
C362 C361 1.389 . S
C362 C363 1.387 1_655 S
C363 H348 0.930 . S
C363 C358 1.390 . S
C363 C362 1.387 1_455 S
H364 C376 0.930 . S
H365 C378 0.930 . S
H366 C379 0.930 . S
H367 C383 0.959 1_556 S
H368 C383 0.959 1_556 S
H369 C383 0.961 . S
H370 C384 0.960 . S
H371 C384 0.961 . S
H372 C384 0.959 . S
H373 C387 0.929 . S
H374 C388 0.931 1_556 S
H375 C390 0.930 . S
C376 H364 0.930 . S
C376 C377 1.399 1_545 S
C376 C381 1.399 . S
C377 C376 1.399 1_565 S
C377 C378 1.376 . S
C378 H365 0.930 . S
C378 C377 1.376 . S
C378 C379 1.388 . S
C379 H366 0.930 . S
C379 C378 1.388 . S
C379 C380 1.390 . S
C380 C379 1.390 . S
C380 C381 1.394 1_565 S
C380 C386 1.465 . S
C381 C376 1.399 . S
C381 C380 1.394 1_545 S
C381 C382 1.516 . S
C382 C381 1.516 . S
C382 C383 1.502 . S
C382 C384 1.561 . S
C382 C385 1.526 . S
C383 H367 0.959 1_554 S
C383 H368 0.959 1_554 S
C383 H369 0.961 . S
C383 C382 1.502 . S
C384 H370 0.960 . S
C384 H371 0.961 . S
C384 H372 0.959 . S
C384 C382 1.561 . S
C385 C382 1.526 . S
C385 C386 1.396 1_545 S
C385 C390 1.390 1_554 S
C386 C380 1.465 . S
C386 C385 1.396 1_565 S
C386 C387 1.399 . S
C387 H373 0.929 . S
C387 C386 1.399 . S
C387 C388 1.385 . S
C388 H374 0.931 1_554 S
C388 C387 1.385 . S
C388 C389 1.389 1_554 S
C389 C388 1.389 1_556 S
C389 C390 1.387 1_565 S
C390 H375 0.930 . S
C390 C385 1.390 1_556 S
C390 C389 1.387 1_545 S
H391 C403 0.930 . S
H392 C405 0.930 . S
H393 C406 0.930 . S
H394 C410 0.959 . S
H395 C410 0.959 1_556 S
H396 C410 0.961 . S
H397 C411 0.960 1_554 S
H398 C411 0.961 . S
H399 C411 0.959 1_554 S
H400 C414 0.929 . S
H401 C415 0.931 . S
H402 C417 0.930 . S
C403 H391 0.930 . S
C403 C404 1.399 . S
C403 C408 1.399 . S
C404 C403 1.399 . S
C404 C405 1.376 . S
C405 H392 0.930 . S
C405 C404 1.376 . S
C405 C406 1.388 . S
C406 H393 0.930 . S
C406 C405 1.388 . S
C406 C407 1.390 . S
C407 C406 1.390 . S
C407 C408 1.394 . S
C407 C413 1.465 . S
C408 C403 1.399 . S
C408 C407 1.394 . S
C408 C409 1.516 . S
C409 C408 1.516 . S
C409 C410 1.502 . S
C409 C411 1.561 1_554 S
C409 C412 1.526 . S
C410 H394 0.959 . S
C410 H395 0.959 1_554 S
C410 H396 0.961 . S
C410 C409 1.502 . S
C411 H397 0.960 1_556 S
C411 H398 0.961 . S
C411 H399 0.959 1_556 S
C411 C409 1.561 1_556 S
C412 C409 1.526 . S
C412 C413 1.396 . S
C412 C417 1.390 1_554 S
C413 C407 1.465 . S
C413 C412 1.396 . S
C413 C414 1.399 . S
C414 H400 0.929 . S
C414 C413 1.399 . S
C414 C415 1.385 . S
C415 H401 0.931 . S
C415 C414 1.385 . S
C415 C416 1.389 1_554 S
C416 C415 1.389 1_556 S
C416 C417 1.387 . S
C417 H402 0.930 . S
C417 C412 1.390 1_556 S
C417 C416 1.387 . S
H418 C430 0.930 . S
H419 C432 0.930 . S
H420 C433 0.930 . S
H421 C437 0.961 . S
H422 C437 0.953 1_556 S
H423 C437 0.963 . S
H424 C438 0.960 . S
H425 C438 0.961 1_556 S
H426 C438 0.959 . S
H427 C441 0.929 . S
H428 C442 0.931 . S
H429 C444 0.930 . S
C430 H418 0.930 . S
C430 C431 1.399 . S
C430 C435 1.399 . S
C431 C430 1.399 . S
C431 C432 1.376 . S
C432 H419 0.930 . S
C432 C431 1.376 . S
C432 C433 1.388 . S
C433 H420 0.930 . S
C433 C432 1.388 . S
C433 C434 1.390 . S
C434 C433 1.390 . S
C434 C435 1.394 . S
C434 C440 1.465 . S
C435 C430 1.399 . S
C435 C434 1.394 . S
C435 C436 1.516 . S
C436 C435 1.516 . S
C436 C437 1.505 . S
C436 C438 1.561 . S
C436 C439 1.526 . S
C437 H421 0.961 . S
C437 H422 0.953 1_554 S
C437 H423 0.963 . S
C437 C436 1.505 . S
C438 H424 0.960 . S
C438 H425 0.961 1_554 S
C438 H426 0.959 . S
C438 C436 1.561 . S
C439 C436 1.526 . S
C439 C440 1.396 . S
C439 C444 1.390 1_554 S
C440 C434 1.465 . S
C440 C439 1.396 . S
C440 C441 1.399 . S
C441 H427 0.929 . S
C441 C440 1.399 . S
C441 C442 1.385 . S
C442 H428 0.931 . S
C442 C441 1.385 . S
C442 C443 1.389 1_554 S
C443 C442 1.389 1_556 S
C443 C444 1.387 . S
C444 H429 0.930 . S
C444 C439 1.390 1_556 S
C444 C443 1.387 . S
H445 C457 0.930 . S
H446 C459 0.930 . S
H447 C460 0.930 . S
H448 C464 0.959 . S
H449 C464 0.959 1_556 S
H450 C464 0.961 . S
H451 C465 0.960 1_554 S
H452 C465 0.961 . S
H453 C465 0.959 1_554 S
H454 C468 0.929 . S
H455 C469 0.931 . S
H456 C471 0.930 . S
C457 H445 0.930 . S
C457 C458 1.399 1_655 S
C457 C462 1.399 . S
C458 C457 1.399 1_455 S
C458 C459 1.376 . S
C459 H446 0.930 . S
C459 C458 1.376 . S
C459 C460 1.388 . S
C460 H447 0.930 . S
C460 C459 1.388 . S
C460 C461 1.390 . S
C461 C460 1.390 . S
C461 C462 1.394 1_455 S
C461 C467 1.465 . S
C462 C457 1.399 . S
C462 C461 1.394 1_655 S
C462 C463 1.516 . S
C463 C462 1.516 . S
C463 C464 1.502 . S
C463 C465 1.561 1_654 S
C463 C466 1.526 . S
C464 H448 0.959 . S
C464 H449 0.959 1_554 S
C464 H450 0.961 . S
C464 C463 1.502 . S
C465 H451 0.960 1_556 S
C465 H452 0.961 . S
C465 H453 0.959 1_556 S
C465 C463 1.561 1_456 S
C466 C463 1.526 . S
C466 C467 1.396 1_655 S
C466 C471 1.390 1_554 S
C467 C461 1.465 . S
C467 C466 1.396 1_455 S
C467 C468 1.399 . S
C468 H454 0.929 . S
C468 C467 1.399 . S
C468 C469 1.385 . S
C469 H455 0.931 . S
C469 C468 1.385 . S
C469 C470 1.390 1_454 S
C470 C469 1.390 1_656 S
C470 C471 1.386 . S
C471 H456 0.930 . S
C471 C466 1.390 1_556 S
C471 C470 1.386 . S
H472 C484 0.930 . S
H473 C486 0.930 . S
H474 C487 0.930 . S
H475 C491 0.959 . S
H476 C491 0.959 . S
H477 C491 0.961 . S
H478 C492 0.960 . S
H479 C492 0.961 . S
H480 C492 0.959 . S
H481 C495 0.929 1_455 S
H482 C496 0.931 . S
H483 C498 0.930 . S
C484 H472 0.930 . S
C484 C485 1.399 1_655 S
C484 C489 1.399 . S
C485 C484 1.399 1_455 S
C485 C486 1.376 . S
C486 H473 0.930 . S
C486 C485 1.376 . S
C486 C487 1.388 . S
C487 H474 0.930 . S
C487 C486 1.388 . S
C487 C488 1.390 1_455 S
C488 C487 1.390 1_655 S
C488 C489 1.394 . S
C488 C494 1.465 . S
C489 C484 1.399 . S
C489 C488 1.394 . S
C489 C490 1.516 . S
C490 C489 1.516 . S
C490 C491 1.502 . S
C490 C492 1.561 . S
C490 C493 1.526 . S
C491 H475 0.959 . S
C491 H476 0.959 . S
C491 H477 0.961 . S
C491 C490 1.502 . S
C492 H478 0.960 . S
C492 H479 0.961 . S
C492 H480 0.959 . S
C492 C490 1.561 . S
C493 C490 1.526 . S
C493 C494 1.396 . S
C493 C498 1.390 . S
C494 C488 1.465 . S
C494 C493 1.396 . S
C494 C495 1.399 . S
C495 H481 0.929 1_655 S
C495 C494 1.399 . S
C495 C496 1.385 . S
C496 H482 0.931 . S
C496 C495 1.385 . S
C496 C497 1.389 . S
C497 C496 1.389 . S
C497 C498 1.387 . S
C498 H483 0.930 . S
C498 C493 1.390 . S
C498 C497 1.387 . S
H499 C511 0.930 . S
H500 C513 0.930 . S
H501 C514 0.930 . S
H502 C518 0.959 . S
H503 C518 0.959 . S
H504 C518 0.961 . S
H505 C519 0.960 . S
H506 C519 0.961 . S
H507 C519 0.959 1_565 S
H508 C522 0.929 . S
H509 C523 0.931 . S
H510 C525 0.930 . S
C511 H499 0.930 . S
C511 C512 1.382 1_545 S
C511 C516 1.399 1_545 S
C512 C511 1.382 1_565 S
C512 C513 1.411 . S
C513 H500 0.930 . S
C513 C512 1.411 . S
C513 C514 1.388 . S
C514 H501 0.930 . S
C514 C513 1.388 . S
C514 C515 1.390 . S
C515 C514 1.390 . S
C515 C516 1.394 . S
C515 C521 1.465 . S
C516 C511 1.399 1_565 S
C516 C515 1.394 . S
C516 C517 1.516 1_565 S
C517 C516 1.516 1_545 S
C517 C518 1.502 . S
C517 C519 1.561 . S
C517 C520 1.526 1_545 S
C518 H502 0.959 . S
C518 H503 0.959 . S
C518 H504 0.961 . S
C518 C517 1.502 . S
C519 H505 0.960 . S
C519 H506 0.961 . S
C519 H507 0.959 1_545 S
C519 C517 1.561 . S
C520 C517 1.526 1_565 S
C520 C521 1.396 . S
C520 C525 1.390 . S
C521 C515 1.465 . S
C521 C520 1.396 . S
C521 C522 1.399 . S
C522 H508 0.929 . S
C522 C521 1.399 . S
C522 C523 1.385 . S
C523 H509 0.931 . S
C523 C522 1.385 . S
C523 C524 1.389 . S
C524 C523 1.389 . S
C524 C525 1.387 . S
C525 H510 0.930 . S
C525 C520 1.390 . S
C525 C524 1.387 . S
H526 C538 0.930 . S
H527 C540 0.930 1_556 S
H528 C541 0.930 . S
H529 C545 0.959 . S
H530 C545 0.959 . S
H531 C545 0.961 . S
H532 C546 0.960 . S
H533 C546 0.961 . S
H534 C546 0.959 . S
H535 C549 0.929 . S
H536 C550 0.931 . S
H537 C552 0.930 . S
C538 H526 0.930 . S
C538 C539 1.399 . S
C538 C543 1.399 . S
C539 C538 1.399 . S
C539 C540 1.376 . S
C540 H527 0.930 1_554 S
C540 C539 1.376 . S
C540 C541 1.388 . S
C541 H528 0.930 . S
C541 C540 1.388 . S
C541 C542 1.390 . S
C542 C541 1.390 . S
C542 C543 1.394 . S
C542 C548 1.465 . S
C543 C538 1.399 . S
C543 C542 1.394 . S
C543 C544 1.516 . S
C544 C543 1.516 . S
C544 C545 1.502 . S
C544 C546 1.561 . S
C544 C547 1.526 . S
C545 H529 0.959 . S
C545 H530 0.959 . S
C545 H531 0.961 . S
C545 C544 1.502 . S
C546 H532 0.960 . S
C546 H533 0.961 . S
C546 H534 0.959 . S
C546 C544 1.561 . S
C547 C544 1.526 . S
C547 C548 1.396 . S
C547 C552 1.390 . S
C548 C542 1.465 . S
C548 C547 1.396 . S
C548 C549 1.399 . S
C549 H535 0.929 . S
C549 C548 1.399 . S
C549 C550 1.385 . S
C550 H536 0.931 . S
C550 C549 1.385 . S
C550 C551 1.389 . S
C551 C550 1.389 . S
C551 C552 1.387 . S
C552 H537 0.930 . S
C552 C547 1.390 . S
C552 C551 1.387 . S
H553 C565 0.930 . S
H554 C567 0.930 . S
H555 C568 0.930 . S
H556 C572 0.959 . S
H557 C572 0.959 . S
H558 C572 0.961 . S
H559 C573 0.960 . S
H560 C573 0.961 . S
H561 C573 0.959 . S
H562 C576 0.929 . S
H563 C577 0.931 . S
H564 C579 0.930 . S
C565 H553 0.930 . S
C565 C566 1.399 . S
C565 C570 1.399 . S
C566 C565 1.399 . S
C566 C567 1.376 . S
C567 H554 0.930 . S
C567 C566 1.376 . S
C567 C568 1.388 . S
C568 H555 0.930 . S
C568 C567 1.388 . S
C568 C569 1.390 . S
C569 C568 1.390 . S
C569 C570 1.394 . S
C569 C575 1.465 . S
C570 C565 1.399 . S
C570 C569 1.394 . S
C570 C571 1.516 . S
C571 C570 1.516 . S
C571 C572 1.502 . S
C571 C573 1.561 . S
C571 C574 1.526 . S
C572 H556 0.959 . S
C572 H557 0.959 . S
C572 H558 0.961 . S
C572 C571 1.502 . S
C573 H559 0.960 . S
C573 H560 0.961 . S
C573 H561 0.959 . S
C573 C571 1.561 . S
C574 C571 1.526 . S
C574 C575 1.396 . S
C574 C579 1.390 . S
C575 C569 1.465 . S
C575 C574 1.396 . S
C575 C576 1.399 . S
C576 H562 0.929 . S
C576 C575 1.399 . S
C576 C577 1.385 . S
C577 H563 0.931 . S
C577 C576 1.385 . S
C577 C578 1.389 . S
C578 C577 1.389 . S
C578 C579 1.387 . S
C579 H564 0.930 . S
C579 C574 1.390 . S
C579 C578 1.387 . S
H580 C592 0.930 . S
H581 C594 0.930 . S
H582 C595 0.930 . S
H583 C599 0.959 1_655 S
H584 C599 0.959 . S
H585 C599 0.961 . S
H586 C600 0.960 . S
H587 C600 0.961 . S
H588 C600 0.959 . S
H589 C603 0.929 . S
H590 C604 0.931 1_556 S
H591 C606 0.930 . S
C592 H580 0.930 . S
C592 C593 1.399 1_455 S
C592 C597 1.399 . S
C593 C592 1.399 1_655 S
C593 C594 1.376 . S
C594 H581 0.930 . S
C594 C593 1.376 . S
C594 C595 1.388 1_655 S
C595 H582 0.930 . S
C595 C594 1.388 1_455 S
C595 C596 1.390 . S
C596 C595 1.390 . S
C596 C597 1.394 . S
C596 C602 1.465 . S
C597 C592 1.399 . S
C597 C596 1.394 . S
C597 C598 1.516 . S
C598 C597 1.516 . S
C598 C599 1.502 . S
C598 C600 1.561 . S
C598 C601 1.526 . S
C599 H583 0.959 1_455 S
C599 H584 0.959 . S
C599 H585 0.961 . S
C599 C598 1.502 . S
C600 H586 0.960 . S
C600 H587 0.961 . S
C600 H588 0.959 . S
C600 C598 1.561 . S
C601 C598 1.526 . S
C601 C602 1.396 . S
C601 C606 1.390 . S
C602 C596 1.465 . S
C602 C601 1.396 . S
C602 C603 1.399 . S
C603 H589 0.929 . S
C603 C602 1.399 . S
C603 C604 1.385 . S
C604 H590 0.931 1_554 S
C604 C603 1.385 . S
C604 C605 1.389 . S
C605 C604 1.389 . S
C605 C606 1.387 . S
C606 H591 0.930 . S
C606 C601 1.390 . S
C606 C605 1.387 . S
H607 C619 0.930 . S
H608 C621 0.930 . S
H609 C622 0.930 . S
H610 C626 0.959 . S
H611 C626 0.959 1_565 S
H612 C626 0.961 1_565 S
H613 C627 0.960 . S
H614 C627 0.961 . S
H615 C627 0.959 . S
H616 C630 0.929 . S
H617 C631 0.931 . S
H618 C633 0.930 . S
C619 H607 0.930 . S
C619 C620 1.399 . S
C619 C624 1.399 1_565 S
C620 C619 1.399 . S
C620 C621 1.376 1_565 S
C621 H608 0.930 . S
C621 C620 1.376 1_545 S
C621 C622 1.388 . S
C622 H609 0.930 . S
C622 C621 1.388 . S
C622 C623 1.390 . S
C623 C622 1.390 . S
C623 C624 1.394 . S
C623 C629 1.465 . S
C624 C619 1.399 1_545 S
C624 C623 1.394 . S
C624 C625 1.516 1_545 S
C625 C624 1.516 1_565 S
C625 C626 1.502 1_565 S
C625 C627 1.561 . S
C625 C628 1.526 1_565 S
C626 H610 0.959 . S
C626 H611 0.959 1_545 S
C626 H612 0.961 1_545 S
C626 C625 1.502 1_545 S
C627 H613 0.960 . S
C627 H614 0.961 . S
C627 H615 0.959 . S
C627 C625 1.561 . S
C628 C625 1.526 1_545 S
C628 C629 1.396 . S
C628 C633 1.390 . S
C629 C623 1.465 . S
C629 C628 1.396 . S
C629 C630 1.399 . S
C630 H616 0.929 . S
C630 C629 1.399 . S
C630 C631 1.385 . S
C631 H617 0.931 . S
C631 C630 1.385 . S
C631 C632 1.389 . S
C632 C631 1.389 . S
C632 C633 1.387 . S
C633 H618 0.930 . S
C633 C628 1.390 . S
C633 C632 1.387 . S
H634 C646 0.930 . S
H635 C648 0.930 . S
H636 C649 0.930 . S
H637 C653 0.959 . S
H638 C653 0.959 . S
H639 C653 0.961 . S
H640 C654 0.960 . S
H641 C654 0.961 . S
H642 C654 0.959 . S
H643 C657 0.929 . S
H644 C658 0.931 . S
H645 C660 0.930 . S
C646 H634 0.930 . S
C646 C647 1.399 . S
C646 C651 1.399 . S
C647 C646 1.399 . S
C647 C648 1.376 . S
C648 H635 0.930 . S
C648 C647 1.376 . S
C648 C649 1.388 . S
C649 H636 0.930 . S
C649 C648 1.388 . S
C649 C650 1.390 . S
C650 C649 1.390 . S
C650 C651 1.394 . S
C650 C656 1.465 . S
C651 C646 1.399 . S
C651 C650 1.394 . S
C651 C652 1.516 . S
C652 C651 1.516 . S
C652 C653 1.502 . S
C652 C654 1.561 . S
C652 C655 1.526 . S
C653 H637 0.959 . S
C653 H638 0.959 . S
C653 H639 0.961 . S
C653 C652 1.502 . S
C654 H640 0.960 . S
C654 H641 0.961 . S
C654 H642 0.959 . S
C654 C652 1.561 . S
C655 C652 1.526 . S
C655 C656 1.396 . S
C655 C660 1.390 . S
C656 C650 1.465 . S
C656 C655 1.396 . S
C656 C657 1.399 . S
C657 H643 0.929 . S
C657 C656 1.399 . S
C657 C658 1.385 . S
C658 H644 0.931 . S
C658 C657 1.385 . S
C658 C659 1.389 . S
C659 C658 1.389 . S
C659 C660 1.387 . S
C660 H645 0.930 . S
C660 C655 1.390 . S
C660 C659 1.387 . S
H661 C673 0.930 . S
H662 C675 0.930 . S
H663 C676 0.930 . S
H664 C680 0.959 . S
H665 C680 0.959 . S
H666 C680 0.961 . S
H667 C681 0.960 . S
H668 C681 0.961 . S
H669 C681 0.959 . S
H670 C684 0.929 . S
H671 C685 0.931 . S
H672 C687 0.930 . S
C673 H661 0.930 . S
C673 C674 1.399 . S
C673 C678 1.399 . S
C674 C673 1.399 . S
C674 C675 1.376 . S
C675 H662 0.930 . S
C675 C674 1.376 . S
C675 C676 1.388 . S
C676 H663 0.930 . S
C676 C675 1.388 . S
C676 C677 1.390 . S
C677 C676 1.390 . S
C677 C678 1.394 . S
C677 C683 1.465 . S
C678 C673 1.399 . S
C678 C677 1.394 . S
C678 C679 1.516 . S
C679 C678 1.516 . S
C679 C680 1.502 . S
C679 C681 1.561 . S
C679 C682 1.526 . S
C680 H664 0.959 . S
C680 H665 0.959 . S
C680 H666 0.961 . S
C680 C679 1.502 . S
C681 H667 0.960 . S
C681 H668 0.961 . S
C681 H669 0.959 . S
C681 C679 1.561 . S
C682 C679 1.526 . S
C682 C683 1.396 . S
C682 C687 1.390 . S
C683 C677 1.465 . S
C683 C682 1.396 . S
C683 C684 1.399 . S
C684 H670 0.929 . S
C684 C683 1.399 . S
C684 C685 1.385 . S
C685 H671 0.931 . S
C685 C684 1.385 . S
C685 C686 1.389 . S
C686 C685 1.389 . S
C686 C687 1.387 . S
C687 H672 0.930 . S
C687 C682 1.390 . S
C687 C686 1.387 . S
H688 C700 0.930 . S
H689 C702 0.930 . S
H690 C703 0.930 . S
H691 C707 0.959 1_556 S
H692 C707 0.959 . S
H693 C707 0.961 . S
H694 C708 0.960 . S
H695 C708 0.956 1_455 S
H696 C708 0.959 . S
H697 C711 0.929 . S
H698 C712 0.941 . S
H699 C714 0.930 . S
C700 H688 0.930 . S
C700 C701 1.399 . S
C700 C705 1.399 . S
C701 C700 1.399 . S
C701 C702 1.377 1_455 S
C702 H689 0.930 . S
C702 C701 1.377 1_655 S
C702 C703 1.388 . S
C703 H690 0.930 . S
C703 C702 1.388 . S
C703 C704 1.390 . S
C704 C703 1.390 . S
C704 C705 1.394 1_655 S
C704 C710 1.464 1_655 S
C705 C700 1.399 . S
C705 C704 1.394 1_455 S
C705 C706 1.516 . S
C706 C705 1.516 . S
C706 C707 1.502 1_556 S
C706 C708 1.561 1_456 S
C706 C709 1.526 . S
C707 H691 0.959 1_554 S
C707 H692 0.959 . S
C707 H693 0.961 . S
C707 C706 1.502 1_554 S
C708 H694 0.960 . S
C708 H695 0.956 1_655 S
C708 H696 0.959 . S
C708 C706 1.561 1_654 S
C709 C706 1.526 . S
C709 C710 1.401 . S
C709 C714 1.390 . S
C710 C704 1.464 1_455 S
C710 C709 1.401 . S
C710 C711 1.396 1_455 S
C711 H697 0.929 . S
C711 C710 1.396 1_655 S
C711 C712 1.394 . S
C712 H698 0.941 . S
C712 C711 1.394 . S
C712 C713 1.373 1_655 S
C713 C712 1.373 1_455 S
C713 C714 1.387 . S
C714 H699 0.930 . S
C714 C709 1.390 . S
C714 C713 1.387 . S
H715 C727 0.930 . S
H716 C729 0.930 . S
H717 C730 0.930 . S
H718 C734 0.959 . S
H719 C734 0.959 . S
H720 C734 0.961 . S
H721 C735 0.960 1_554 S
H722 C735 0.961 1_554 S
H723 C735 0.959 1_554 S
H724 C738 0.929 . S
H725 C739 0.931 . S
H726 C741 0.930 . S
C727 H715 0.930 . S
C727 C728 1.381 1_545 S
C727 C732 1.399 . S
C728 C727 1.381 1_565 S
C728 C729 1.397 . S
C729 H716 0.930 . S
C729 C728 1.397 . S
C729 C730 1.388 . S
C730 H717 0.930 . S
C730 C729 1.388 . S
C730 C731 1.390 . S
C731 C730 1.390 . S
C731 C732 1.394 1_565 S
C731 C737 1.465 . S
C732 C727 1.399 . S
C732 C731 1.394 1_545 S
C732 C733 1.516 . S
C733 C732 1.516 . S
C733 C734 1.502 . S
C733 C735 1.561 . S
C733 C736 1.526 . S
C734 H718 0.959 . S
C734 H719 0.959 . S
C734 H720 0.961 . S
C734 C733 1.502 . S
C735 H721 0.960 1_556 S
C735 H722 0.961 1_556 S
C735 H723 0.959 1_556 S
C735 C733 1.561 . S
C736 C733 1.526 . S
C736 C737 1.396 1_545 S
C736 C741 1.390 . S
C737 C731 1.465 . S
C737 C736 1.396 1_565 S
C737 C738 1.399 . S
C738 H724 0.929 . S
C738 C737 1.399 . S
C738 C739 1.385 . S
C739 H725 0.931 . S
C739 C738 1.385 . S
C739 C740 1.389 1_565 S
C740 C739 1.389 1_545 S
C740 C741 1.387 . S
C741 H726 0.930 . S
C741 C736 1.390 . S
C741 C740 1.387 . S
H742 C754 0.930 . S
H743 C756 0.930 . S
H744 C757 0.930 . S
H745 C761 0.959 . S
H746 C761 0.959 1_554 S
H747 C761 0.961 1_554 S
H748 C762 0.960 . S
H749 C762 0.961 . S
H750 C762 0.959 . S
H751 C765 0.929 . S
H752 C766 0.931 . S
H753 C768 0.930 . S
C754 H742 0.930 . S
C754 C755 1.399 . S
C754 C759 1.399 . S
C755 C754 1.399 . S
C755 C756 1.376 . S
C756 H743 0.930 . S
C756 C755 1.376 . S
C756 C757 1.388 . S
C757 H744 0.930 . S
C757 C756 1.388 . S
C757 C758 1.390 . S
C758 C757 1.390 . S
C758 C759 1.394 . S
C758 C764 1.465 . S
C759 C754 1.399 . S
C759 C758 1.394 . S
C759 C760 1.516 . S
C760 C759 1.516 . S
C760 C761 1.502 . S
C760 C762 1.561 1_556 S
C760 C763 1.526 . S
C761 H745 0.959 . S
C761 H746 0.959 1_556 S
C761 H747 0.961 1_556 S
C761 C760 1.502 . S
C762 H748 0.960 . S
C762 H749 0.961 . S
C762 H750 0.959 . S
C762 C760 1.561 1_554 S
C763 C760 1.526 . S
C763 C764 1.396 . S
C763 C768 1.390 . S
C764 C758 1.465 . S
C764 C763 1.396 . S
C764 C765 1.399 . S
C765 H751 0.929 . S
C765 C764 1.399 . S
C765 C766 1.385 . S
C766 H752 0.931 . S
C766 C765 1.385 . S
C766 C767 1.389 . S
C767 C766 1.389 . S
C767 C768 1.387 . S
C768 H753 0.930 . S
C768 C763 1.390 . S
C768 C767 1.387 . S
H769 C781 0.930 . S
H770 C783 0.930 . S
H771 C784 0.930 . S
H772 C788 0.959 . S
H773 C788 0.959 . S
H774 C788 0.961 . S
H775 C789 0.960 . S
H776 C789 0.961 . S
H777 C789 0.959 . S
H778 C792 0.929 . S
H779 C793 0.931 . S
H780 C795 0.930 . S
C781 H769 0.930 . S
C781 C782 1.399 . S
C781 C786 1.399 . S
C782 C781 1.399 . S
C782 C783 1.376 . S
C783 H770 0.930 . S
C783 C782 1.376 . S
C783 C784 1.388 . S
C784 H771 0.930 . S
C784 C783 1.388 . S
C784 C785 1.390 . S
C785 C784 1.390 . S
C785 C786 1.394 . S
C785 C791 1.465 . S
C786 C781 1.399 . S
C786 C785 1.394 . S
C786 C787 1.516 . S
C787 C786 1.516 . S
C787 C788 1.502 1_556 S
C787 C789 1.561 . S
C787 C790 1.526 . S
C788 H772 0.959 . S
C788 H773 0.959 . S
C788 H774 0.961 . S
C788 C787 1.502 1_554 S
C789 H775 0.960 . S
C789 H776 0.961 . S
C789 H777 0.959 . S
C789 C787 1.561 . S
C790 C787 1.526 . S
C790 C791 1.396 . S
C790 C795 1.390 . S
C791 C785 1.465 . S
C791 C790 1.396 . S
C791 C792 1.399 . S
C792 H778 0.929 . S
C792 C791 1.399 . S
C792 C793 1.385 . S
C793 H779 0.931 . S
C793 C792 1.385 . S
C793 C794 1.389 . S
C794 C793 1.389 . S
C794 C795 1.387 . S
C795 H780 0.930 . S
C795 C790 1.390 . S
C795 C794 1.387 . S
H796 C808 0.930 . S
H797 C810 0.930 . S
H798 C811 0.930 . S
H799 C815 0.959 . S
H800 C815 0.959 . S
H801 C815 0.961 . S
H802 C816 0.960 . S
H803 C816 0.965 . S
H804 C816 0.959 . S
H805 C819 0.929 . S
H806 C820 0.936 . S
H807 C822 0.930 . S
C808 H796 0.930 . S
C808 C809 1.399 . S
C808 C813 1.399 . S
C809 C808 1.399 . S
C809 C810 1.376 1_655 S
C810 H797 0.930 . S
C810 C809 1.376 1_455 S
C810 C811 1.388 . S
C811 H798 0.930 . S
C811 C810 1.388 . S
C811 C812 1.390 . S
C812 C811 1.390 . S
C812 C813 1.394 1_455 S
C812 C818 1.464 1_455 S
C813 C808 1.399 . S
C813 C812 1.394 1_655 S
C813 C814 1.516 . S
C814 C813 1.516 . S
C814 C815 1.502 . S
C814 C816 1.561 1_655 S
C814 C817 1.526 . S
C815 H799 0.959 . S
C815 H800 0.959 . S
C815 H801 0.961 . S
C815 C814 1.502 . S
C816 H802 0.960 . S
C816 H803 0.965 . S
C816 H804 0.959 . S
C816 C814 1.561 1_455 S
C817 C814 1.526 . S
C817 C818 1.404 . S
C817 C822 1.390 . S
C818 C812 1.464 1_655 S
C818 C817 1.404 . S
C818 C819 1.394 1_655 S
C819 H805 0.929 . S
C819 C818 1.394 1_455 S
C819 C820 1.390 . S
C820 H806 0.936 . S
C820 C819 1.390 . S
C820 C821 1.380 1_455 S
C821 C820 1.380 1_655 S
C821 C822 1.387 . S
C822 H807 0.930 . S
C822 C817 1.390 . S
C822 C821 1.387 . S
H823 C835 0.930 . S
H824 C837 0.930 . S
H825 C838 0.930 . S
H826 C842 0.959 . S
H827 C842 0.959 . S
H828 C842 0.961 . S
H829 C843 0.960 . S
H830 C843 0.961 . S
H831 C843 0.959 . S
H832 C846 0.929 . S
H833 C847 0.931 . S
H834 C849 0.930 . S
C835 H823 0.930 . S
C835 C836 1.401 . S
C835 C840 1.399 . S
C836 C835 1.401 . S
C836 C837 1.374 1_565 S
C837 H824 0.930 . S
C837 C836 1.374 1_545 S
C837 C838 1.388 . S
C838 H825 0.930 . S
C838 C837 1.388 . S
C838 C839 1.390 . S
C839 C838 1.390 . S
C839 C840 1.394 1_545 S
C839 C845 1.465 . S
C840 C835 1.399 . S
C840 C839 1.394 1_565 S
C840 C841 1.516 . S
C841 C840 1.516 . S
C841 C842 1.502 . S
C841 C843 1.561 . S
C841 C844 1.526 . S
C842 H826 0.959 . S
C842 H827 0.959 . S
C842 H828 0.961 . S
C842 C841 1.502 . S
C843 H829 0.960 . S
C843 H830 0.961 . S
C843 H831 0.959 . S
C843 C841 1.561 . S
C844 C841 1.526 . S
C844 C845 1.396 1_565 S
C844 C849 1.390 . S
C845 C839 1.465 . S
C845 C844 1.396 1_545 S
C845 C846 1.399 . S
C846 H832 0.929 . S
C846 C845 1.399 . S
C846 C847 1.385 . S
C847 H833 0.931 . S
C847 C846 1.385 . S
C847 C848 1.389 1_545 S
C848 C847 1.389 1_565 S
C848 C849 1.387 . S
C849 H834 0.930 . S
C849 C844 1.390 . S
C849 C848 1.387 . S
H850 C862 0.930 . S
H851 C864 0.930 . S
H852 C865 0.930 . S
H853 C869 0.959 . S
H854 C869 0.959 . S
H855 C869 0.961 . S
H856 C870 0.960 . S
H857 C870 0.961 . S
H858 C870 0.959 . S
H859 C873 0.929 . S
H860 C874 0.931 . S
H861 C876 0.930 . S
C862 H850 0.930 . S
C862 C863 1.399 . S
C862 C867 1.399 . S
C863 C862 1.399 . S
C863 C864 1.376 . S
C864 H851 0.930 . S
C864 C863 1.376 . S
C864 C865 1.388 . S
C865 H852 0.930 . S
C865 C864 1.388 . S
C865 C866 1.390 . S
C866 C865 1.390 . S
C866 C867 1.394 . S
C866 C872 1.465 . S
C867 C862 1.399 . S
C867 C866 1.394 . S
C867 C868 1.516 . S
C868 C867 1.516 . S
C868 C869 1.502 . S
C868 C870 1.561 . S
C868 C871 1.526 . S
C869 H853 0.959 . S
C869 H854 0.959 . S
C869 H855 0.961 . S
C869 C868 1.502 . S
C870 H856 0.960 . S
C870 H857 0.961 . S
C870 H858 0.959 . S
C870 C868 1.561 . S
C871 C868 1.526 . S
C871 C872 1.396 . S
C871 C876 1.390 . S
C872 C866 1.465 . S
C872 C871 1.396 . S
C872 C873 1.399 . S
C873 H859 0.929 . S
C873 C872 1.399 . S
C873 C874 1.385 . S
C874 H860 0.931 . S
C874 C873 1.385 . S
C874 C875 1.389 . S
C875 C874 1.389 . S
C875 C876 1.387 . S
C876 H861 0.930 . S
C876 C871 1.390 . S
C876 C875 1.387 . S
H877 C889 0.930 . S
H878 C891 0.930 . S
H879 C892 0.930 . S
H880 C896 0.959 . S
H881 C896 0.959 . S
H882 C896 0.961 . S
H883 C897 0.960 . S
H884 C897 0.961 . S
H885 C897 0.959 . S
H886 C900 0.929 . S
H887 C901 0.931 . S
H888 C903 0.930 . S
C889 H877 0.930 . S
C889 C890 1.399 . S
C889 C894 1.399 . S
C890 C889 1.399 . S
C890 C891 1.376 . S
C891 H878 0.930 . S
C891 C890 1.376 . S
C891 C892 1.388 . S
C892 H879 0.930 . S
C892 C891 1.388 . S
C892 C893 1.390 . S
C893 C892 1.390 . S
C893 C894 1.394 . S
C893 C899 1.465 . S
C894 C889 1.399 . S
C894 C893 1.394 . S
C894 C895 1.516 . S
C895 C894 1.516 . S
C895 C896 1.502 . S
C895 C897 1.561 . S
C895 C898 1.526 . S
C896 H880 0.959 . S
C896 H881 0.959 . S
C896 H882 0.961 . S
C896 C895 1.502 . S
C897 H883 0.960 . S
C897 H884 0.961 . S
C897 H885 0.959 . S
C897 C895 1.561 . S
C898 C895 1.526 . S
C898 C899 1.396 . S
C898 C903 1.390 . S
C899 C893 1.465 . S
C899 C898 1.396 . S
C899 C900 1.399 . S
C900 H886 0.929 . S
C900 C899 1.399 . S
C900 C901 1.385 . S
C901 H887 0.931 . S
C901 C900 1.385 . S
C901 C902 1.389 . S
C902 C901 1.389 . S
C902 C903 1.387 . S
C903 H888 0.930 . S
C903 C898 1.390 . S
C903 C902 1.387 . S
C269 C76 1.757 1_545 S
C281 C105 1.953 1_545 S
C308 C145 1.976 . S
C296 C88 1.787 . S
C335 C185 1.981 . S
C323 C52 1.795 . S
C362 C225 1.951 . S
C350 C64 1.783 . S
C389 C114 1.970 1_565 S
C377 C28 1.849 . S
C404 C40 1.842 . S
C416 C154 1.967 . S
C431 C4 1.861 . S
C443 C194 1.977 . S
C458 C16 1.839 1_455 S
C470 C234 1.964 1_655 S
C497 C111 0.415 . S
C485 C69 0.593 . S
C524 C151 0.601 . S
C512 C81 0.465 1_565 S
C551 C191 0.575 . S
C539 C93 0.429 . S
C566 C57 0.585 . S
C578 C231 0.419 . S
C593 C21 0.590 1_655 S
C605 C102 0.500 . S
C632 C142 0.570 . S
C620 C33 0.421 1_565 S
C659 C182 0.530 . S
C647 C45 0.470 . S
C674 C9 0.411 . S
C686 C222 0.589 . S
C701 C66 2.087 . S
C713 C115 2.277 . S
C728 C78 2.022 1_565 S
C740 C155 2.249 . S
C767 C195 2.246 . S
C755 C90 2.050 . S
C794 C235 2.292 . S
C782 C54 2.075 . S
C809 C18 2.024 1_655 S
C821 C106 2.290 . S
C848 C146 2.252 . S
C836 C30 2.068 1_565 S
C875 C186 2.264 . S
C863 C42 2.061 . S
C890 C6 2.023 . S
C902 C226 2.304 . S
