# Generated by pormake.
# Topology apo, (3,6)-cn, num edge types: 1
# Building blocks:
#     Node 0, Type 0, BuildingBlock: BELTOD_clean_linker_0, # of connection points: 3
#     Node 1, Type 0, BuildingBlock: BELTOD_clean_linker_0, # of connection points: 3
#     Node 2, Type 0, BuildingBlock: BELTOD_clean_linker_0, # of connection points: 3
#     Node 3, Type 0, BuildingBlock: BELTOD_clean_linker_0, # of connection points: 3
#     Node 4, Type 0, BuildingBlock: BELTOD_clean_linker_0, # of connection points: 3
#     Node 5, Type 0, BuildingBlock: BELTOD_clean_linker_0, # of connection points: 3
#     Node 6, Type 0, BuildingBlock: BELTOD_clean_linker_0, # of connection points: 3
#     Node 7, Type 0, BuildingBlock: BELTOD_clean_linker_0, # of connection points: 3
#     Node 8, Type 1, BuildingBlock: KUMJIN_clean_sbu_1, # of connection points: 6
#     Node 9, Type 1, BuildingBlock: KUMJIN_clean_sbu_1, # of connection points: 6
#     Node 10, Type 1, BuildingBlock: KUMJIN_clean_sbu_1, # of connection points: 6
#     Node 11, Type 1, BuildingBlock: KUMJIN_clean_sbu_1, # of connection points: 6
#     Edge 12, Type (0, 1), BuildingBlock: AJUNOK_clean_linker_0, # of connection points: 2
#     Edge 13, Type (0, 1), BuildingBlock: AJUNOK_clean_linker_0, # of connection points: 2
#     Edge 14, Type (0, 1), BuildingBlock: AJUNOK_clean_linker_0, # of connection points: 2
#     Edge 15, Type (0, 1), BuildingBlock: AJUNOK_clean_linker_0, # of connection points: 2
#     Edge 16, Type (0, 1), BuildingBlock: AJUNOK_clean_linker_0, # of connection points: 2
#     Edge 17, Type (0, 1), BuildingBlock: AJUNOK_clean_linker_0, # of connection points: 2
#     Edge 18, Type (0, 1), BuildingBlock: AJUNOK_clean_linker_0, # of connection points: 2
#     Edge 19, Type (0, 1), BuildingBlock: AJUNOK_clean_linker_0, # of connection points: 2
#     Edge 20, Type (0, 1), BuildingBlock: AJUNOK_clean_linker_0, # of connection points: 2
#     Edge 21, Type (0, 1), BuildingBlock: AJUNOK_clean_linker_0, # of connection points: 2
#     Edge 22, Type (0, 1), BuildingBlock: AJUNOK_clean_linker_0, # of connection points: 2
#     Edge 23, Type (0, 1), BuildingBlock: AJUNOK_clean_linker_0, # of connection points: 2
#     Edge 24, Type (0, 1), BuildingBlock: AJUNOK_clean_linker_0, # of connection points: 2
#     Edge 25, Type (0, 1), BuildingBlock: AJUNOK_clean_linker_0, # of connection points: 2
#     Edge 26, Type (0, 1), BuildingBlock: AJUNOK_clean_linker_0, # of connection points: 2
#     Edge 27, Type (0, 1), BuildingBlock: AJUNOK_clean_linker_0, # of connection points: 2
#     Edge 28, Type (0, 1), BuildingBlock: AJUNOK_clean_linker_0, # of connection points: 2
#     Edge 29, Type (0, 1), BuildingBlock: AJUNOK_clean_linker_0, # of connection points: 2
#     Edge 30, Type (0, 1), BuildingBlock: AJUNOK_clean_linker_0, # of connection points: 2
#     Edge 31, Type (0, 1), BuildingBlock: AJUNOK_clean_linker_0, # of connection points: 2
#     Edge 32, Type (0, 1), BuildingBlock: AJUNOK_clean_linker_0, # of connection points: 2
#     Edge 33, Type (0, 1), BuildingBlock: AJUNOK_clean_linker_0, # of connection points: 2
#     Edge 34, Type (0, 1), BuildingBlock: AJUNOK_clean_linker_0, # of connection points: 2
#     Edge 35, Type (0, 1), BuildingBlock: AJUNOK_clean_linker_0, # of connection points: 2
# Relax obj value: 0.007
# Max RMSD: 0.127
# Mean RMSD: 0.093
data_MOF--net-apo--node1-KUMJIN_clean_sbu_1--node2-BELTOD_clean_linker_0--edge1-AJUNOK_clean_linker_0
_symmetry_space_group_name_H-M    P1
_symmetry_Int_Tables_number       1
_symmetry_cell_setting            triclinic
loop_
_symmetry_equiv_pos_as_xyz
'x, y, z'
_cell_length_a     21.185728
_cell_length_b     36.973461
_cell_length_c     47.754086
_cell_angle_alpha  89.729071
_cell_angle_beta   90.064302
_cell_angle_gamma 90.675988
loop_
_atom_site_label
_atom_site_type_symbol
_atom_site_fract_x
_atom_site_fract_y
_atom_site_fract_z
_atom_type_partial_charge
P0 P 0.35554 0.35184 0.39987 0.0
H1 H 0.40099 0.31303 0.4493 0.0
H2 H 0.39403 0.32524 0.49945 0.0
H3 H 0.27417 0.41639 0.48214 0.0
H4 H 0.28277 0.40455 0.43182 0.0
H5 H 0.34489 0.3243 0.34359 0.0
H6 H 0.26488 0.28817 0.31931 0.0
H7 H 0.14858 0.28841 0.39356 0.0
H8 H 0.22992 0.32412 0.41803 0.0
H9 H 0.46392 0.4008 0.39697 0.0
H10 H 0.27277 0.39821 0.36583 0.0
O11 O 0.42182 0.32849 0.39583 0.0
H12 H 0.4837 0.45752 0.37164 0.0
H13 H 0.29219 0.45513 0.34058 0.0
C14 C 0.34313 0.35822 0.43685 0.0
C15 C 0.37278 0.33548 0.45629 0.0
C16 C 0.36837 0.3423 0.485 0.0
C17 C 0.33351 0.37177 0.4948 0.0
C18 C 0.3019 0.39369 0.47522 0.0
C19 C 0.30653 0.38689 0.44649 0.0
C20 C 0.29361 0.32659 0.38263 0.0
C21 C 0.30217 0.31659 0.35466 0.0
C22 C 0.25621 0.29614 0.34076 0.0
C23 C 0.20055 0.28524 0.35456 0.0
C24 C 0.19144 0.29589 0.38253 0.0
C25 C 0.23773 0.31645 0.39648 0.0
C26 C 0.36736 0.39498 0.38284 0.0
C27 C 0.42611 0.41258 0.38482 0.0
C28 C 0.43721 0.44511 0.37052 0.0
C29 C 0.38942 0.46075 0.35418 0.0
C30 C 0.32998 0.4435 0.35285 0.0
C31 C 0.31888 0.411 0.36726 0.0
P32 P 0.28805 0.10178 0.90538 0.0
H33 H 0.32296 0.0564 0.85851 0.0
H34 H 0.26412 0.01231 0.83029 0.0
H35 H 0.09329 0.03862 0.8746 0.0
H36 H 0.15239 0.08275 0.9028 0.0
H37 H 0.3907 0.15341 0.91368 0.0
H38 H 0.42906 0.20506 0.88615 0.0
H39 H 0.27023 0.19295 0.83005 0.0
H40 H 0.2326 0.14078 0.85747 0.0
H41 H 0.24142 0.0513 0.94687 0.0
H42 H 0.25026 0.1672 0.93676 0.0
O43 O 0.3551 0.08045 0.91271 0.0
H44 H 0.19982 0.05839 0.99403 0.0
H45 H 0.20724 0.17458 0.98411 0.0
C46 C 0.24237 0.07214 0.88318 0.0
C47 C 0.27281 0.05276 0.86209 0.0
C48 C 0.23917 0.0277 0.84595 0.0
C49 C 0.17445 0.02162 0.85065 0.0
C50 C 0.14346 0.0422 0.87102 0.0
C51 C 0.17715 0.06746 0.88707 0.0
C52 C 0.30937 0.14303 0.88739 0.0
C53 C 0.36367 0.16218 0.89567 0.0
C54 C 0.3853 0.19185 0.88004 0.0
C55 C 0.35254 0.20309 0.85598 0.0
C56 C 0.29661 0.1847 0.8484 0.0
C57 C 0.275 0.15497 0.86409 0.0
C58 C 0.24896 0.10864 0.93836 0.0
C59 C 0.23324 0.07832 0.95466 0.0
C60 C 0.2091 0.08243 0.98158 0.0
C61 C 0.2004 0.11707 0.99288 0.0
C62 C 0.21414 0.14757 0.9761 0.0
C63 C 0.23844 0.14337 0.949 0.0
P64 P 0.88217 0.14841 0.6215 0.0
H65 H 0.93919 0.19386 0.57838 0.0
H66 H 0.93133 0.1948 0.52741 0.0
H67 H 0.79862 0.10536 0.53056 0.0
H68 H 0.80661 0.10459 0.582 0.0
H69 H 0.88355 0.18333 0.67561 0.0
H70 H 0.80722 0.22012 0.70067 0.0
H71 H 0.67818 0.21122 0.63093 0.0
H72 H 0.75533 0.1744 0.60572 0.0
H73 H 0.96063 0.08592 0.61197 0.0
H74 H 0.79891 0.11161 0.66267 0.0
O75 O 0.95367 0.16508 0.62912 0.0
H76 H 0.96942 0.02769 0.63612 0.0
H77 H 0.80726 0.05334 0.68667 0.0
C78 C 0.87436 0.14875 0.58392 0.0
C79 C 0.90886 0.17417 0.56816 0.0
C80 C 0.90479 0.17448 0.53899 0.0
C81 C 0.86568 0.14952 0.52496 0.0
C82 C 0.82982 0.12456 0.54084 0.0
C83 C 0.83427 0.12413 0.57015 0.0
C84 C 0.82553 0.17669 0.63865 0.0
C85 C 0.83901 0.18947 0.66561 0.0
C86 C 0.79511 0.21013 0.68003 0.0
C87 C 0.73657 0.21818 0.66784 0.0
C88 C 0.72305 0.2054 0.64076 0.0
C89 C 0.76707 0.18448 0.62634 0.0
C90 C 0.87944 0.10316 0.63555 0.0
C91 C 0.92618 0.07868 0.62784 0.0
C92 C 0.931 0.04538 0.64159 0.0
C93 C 0.88888 0.03599 0.66324 0.0
C94 C 0.84051 0.06001 0.67016 0.0
C95 C 0.83567 0.09331 0.65636 0.0
P96 P 0.79799 0.40293 0.10599 0.0
H97 H 0.82316 0.47441 0.1297 0.0
H98 H 0.75992 0.51521 0.158 0.0
H99 H 0.60514 0.43831 0.15663 0.0
H100 H 0.66863 0.39743 0.12776 0.0
H101 H 0.87677 0.34246 0.09074 0.0
H102 H 0.91138 0.28837 0.11604 0.0
H103 H 0.80439 0.32141 0.18825 0.0
H104 H 0.76963 0.37512 0.16293 0.0
H105 H 0.77513 0.44438 0.05521 0.0
H106 H 0.73153 0.33722 0.08619 0.0
O107 O 0.86494 0.42444 0.09737 0.0
H108 H 0.73157 0.42807 0.00939 0.0
H109 H 0.68986 0.32042 0.04018 0.0
C110 C 0.7505 0.43291 0.12659 0.0
C111 C 0.7756 0.46625 0.13532 0.0
C112 C 0.73948 0.48959 0.15148 0.0
C113 C 0.67791 0.47977 0.15954 0.0
C114 C 0.65276 0.44629 0.15087 0.0
C115 C 0.68875 0.42309 0.13433 0.0
C116 C 0.82019 0.36265 0.1248 0.0
C117 C 0.8604 0.33788 0.11196 0.0
C118 C 0.8803 0.30709 0.12642 0.0
C119 C 0.86012 0.30053 0.15401 0.0
C120 C 0.81966 0.3254 0.16681 0.0
C121 C 0.79991 0.35624 0.15234 0.0
C122 C 0.75808 0.39176 0.07382 0.0
C123 C 0.75608 0.41737 0.05215 0.0
C124 C 0.73161 0.40796 0.02595 0.0
C125 C 0.70888 0.37268 0.02102 0.0
C126 C 0.7075 0.34772 0.04333 0.0
C127 C 0.7317 0.35724 0.06958 0.0
P128 P 0.79192 0.60451 0.603 0.0
H129 H 0.83213 0.64503 0.55412 0.0
H130 H 0.79516 0.64458 0.50584 0.0
H131 H 0.62708 0.58607 0.53157 0.0
H132 H 0.66656 0.58427 0.57932 0.0
H133 H 0.9111 0.63208 0.62508 0.0
H134 H 0.93776 0.68085 0.657 0.0
H135 H 0.74211 0.71199 0.65984 0.0
H136 H 0.71559 0.66339 0.62662 0.0
H137 H 0.82649 0.53396 0.62579 0.0
H138 H 0.66584 0.60447 0.62903 0.0
O139 O 0.85962 0.58541 0.59352 0.0
H140 H 0.77144 0.49025 0.65551 0.0
H141 H 0.60916 0.55987 0.65777 0.0
C142 C 0.7524 0.61475 0.57049 0.0
C143 C 0.78634 0.6331 0.54953 0.0
C144 C 0.76477 0.63307 0.52184 0.0
C145 C 0.70793 0.61528 0.51468 0.0
C146 C 0.67135 0.59969 0.53627 0.0
C147 C 0.69373 0.59901 0.56384 0.0
C148 C 0.81122 0.64389 0.62352 0.0
C149 C 0.87375 0.6495 0.63218 0.0
C150 C 0.88893 0.6772 0.65076 0.0
C151 C 0.84172 0.69955 0.66156 0.0
C152 C 0.7793 0.6949 0.65206 0.0
C153 C 0.76413 0.66714 0.63316 0.0
C154 C 0.75002 0.57238 0.62483 0.0
C155 C 0.77916 0.54003 0.63268 0.0
C156 C 0.74756 0.51492 0.64965 0.0
C157 C 0.68603 0.5216 0.65908 0.0
C158 C 0.65703 0.55421 0.65136 0.0
C159 C 0.68915 0.5796 0.63468 0.0
P160 P 0.84402 0.86171 0.11897 0.0
H161 H 0.80158 0.88822 0.17367 0.0
H162 H 0.81768 0.94655 0.19694 0.0
H163 H 0.89449 0.99133 0.12051 0.0
H164 H 0.87855 0.93315 0.09728 0.0
H165 H 0.8637 0.79455 0.15006 0.0
H166 H 0.79323 0.75381 0.17556 0.0
H167 H 0.6336 0.81749 0.14966 0.0
H168 H 0.70531 0.85939 0.12493 0.0
H169 H 0.92864 0.84017 0.07374 0.0
H170 H 0.74429 0.88749 0.08097 0.0
O171 O 0.9172 0.84851 0.12653 0.0
H172 H 0.92551 0.84866 0.02308 0.0
H173 H 0.74098 0.89604 0.02994 0.0
C174 C 0.83785 0.90641 0.13355 0.0
C175 C 0.81965 0.91091 0.16157 0.0
C176 C 0.82887 0.94423 0.17489 0.0
C177 C 0.85752 0.97326 0.1605 0.0
C178 C 0.87235 0.96929 0.13203 0.0
C179 C 0.8629 0.93608 0.11872 0.0
C180 C 0.78985 0.83006 0.13545 0.0
C181 C 0.8136 0.79988 0.14971 0.0
C182 C 0.77313 0.77643 0.16429 0.0
C183 C 0.70779 0.78247 0.16484 0.0
C184 C 0.68383 0.81245 0.15011 0.0
C185 C 0.72463 0.83614 0.13563 0.0
C186 C 0.83663 0.8632 0.08125 0.0
C187 C 0.88706 0.85203 0.06446 0.0
C188 C 0.88552 0.85712 0.03545 0.0
C189 C 0.83345 0.87351 0.02257 0.0
C190 C 0.78174 0.88331 0.03929 0.0
C191 C 0.78348 0.87836 0.06843 0.0
P192 P 0.30804 0.90395 0.40796 0.0
H193 H 0.36968 0.89751 0.46197 0.0
H194 H 0.32985 0.88815 0.50941 0.0
H195 H 0.141 0.87395 0.4771 0.0
H196 H 0.18114 0.884 0.42911 0.0
H197 H 0.40437 0.89296 0.36599 0.0
H198 H 0.43233 0.84148 0.33692 0.0
H199 H 0.28485 0.77741 0.37591 0.0
H200 H 0.25689 0.82934 0.40526 0.0
H201 H 0.23229 0.96544 0.42453 0.0
H202 H 0.2685 0.9059 0.34884 0.0
O203 O 0.37351 0.92879 0.41254 0.0
H204 H 0.17144 0.00948 0.39759 0.0
H205 H 0.20962 0.95028 0.32184 0.0
C206 C 0.27814 0.89225 0.44214 0.0
C207 C 0.31974 0.89224 0.46492 0.0
C208 C 0.29705 0.88683 0.492 0.0
C209 C 0.23246 0.88074 0.49674 0.0
C210 C 0.19099 0.87873 0.47382 0.0
C211 C 0.21382 0.88453 0.44656 0.0
C212 C 0.32929 0.86476 0.38807 0.0
C213 C 0.3783 0.86779 0.36851 0.0
C214 C 0.39381 0.83851 0.35169 0.0
C215 C 0.36027 0.80568 0.35401 0.0
C216 C 0.31136 0.8025 0.37379 0.0
C217 C 0.2955 0.83205 0.39055 0.0
C218 C 0.25426 0.93212 0.38882 0.0
C219 C 0.2264 0.96155 0.40221 0.0
C220 C 0.19246 0.98696 0.38675 0.0
C221 C 0.18673 0.98364 0.35754 0.0
C222 C 0.21315 0.95351 0.34432 0.0
C223 C 0.24685 0.92806 0.35981 0.0
P224 P 0.37393 0.64784 0.89439 0.0
H225 H 0.44532 0.62836 0.84489 0.0
H226 H 0.45639 0.5719 0.81912 0.0
H227 H 0.32471 0.51947 0.87566 0.0
H228 H 0.31568 0.57594 0.90204 0.0
H229 H 0.35667 0.72538 0.88708 0.0
H230 H 0.27459 0.76097 0.86429 0.0
H231 H 0.16682 0.6632 0.84876 0.0
H232 H 0.24994 0.62761 0.87099 0.0
H233 H 0.46289 0.62712 0.9378 0.0
H234 H 0.26477 0.65176 0.93235 0.0
O235 O 0.4408 0.67147 0.88987 0.0
H236 H 0.45447 0.62289 0.98893 0.0
H237 H 0.25633 0.64823 0.98327 0.0
C238 C 0.38107 0.60597 0.87578 0.0
C239 C 0.41934 0.60462 0.85193 0.0
C240 C 0.42513 0.57245 0.83705 0.0
C241 C 0.39205 0.54113 0.84557 0.0
C242 C 0.35202 0.54291 0.86902 0.0
C243 C 0.34668 0.57513 0.88405 0.0
C244 C 0.31028 0.67381 0.87993 0.0
C245 C 0.31544 0.71158 0.87874 0.0
C246 C 0.26828 0.73192 0.86591 0.0
C247 C 0.21489 0.71479 0.85426 0.0
C248 C 0.20827 0.67702 0.85686 0.0
C249 C 0.25565 0.65669 0.86963 0.0
C250 C 0.36473 0.64031 0.93139 0.0
C251 C 0.41747 0.63124 0.9476 0.0
C252 C 0.41267 0.62886 0.97675 0.0
C253 C 0.35476 0.6351 0.99007 0.0
C254 C 0.30135 0.64263 0.97359 0.0
C255 C 0.30625 0.64503 0.94445 0.0
Eu256 Eu 0.08669 0.13184 0.23474 0.0
C257 C 0.79322 0.10183 0.27281 0.0
N258 N 0.81962 0.13544 0.27345 0.0
C259 C 0.72012 0.16159 0.2614 0.0
C260 C 0.72939 0.09673 0.26515 0.0
C261 C 0.78397 0.16525 0.26841 0.0
C262 C 0.69297 0.12716 0.25926 0.0
C263 C 0.80278 0.03738 0.28108 0.0
C264 C 0.82956 0.07254 0.28077 0.0
C265 C 0.74028 0.03199 0.27205 0.0
C266 C 0.70358 0.06162 0.26423 0.0
Eu267 Eu 0.92779 0.13926 0.28508 0.0
N268 N 0.88985 0.07865 0.28962 0.0
C269 C 0.8388 0.00887 0.29148 0.0
C270 C 0.9219 0.05162 0.3027 0.0
C271 C 0.89802 0.01621 0.30302 0.0
H272 H 0.80484 0.19202 0.26951 0.0
H273 H 0.92463 0.99479 0.31285 0.0
H274 H 0.16802 0.06114 0.26012 0.0
H275 H 0.1587 0.2735 0.22277 0.0
H276 H 0.96426 0.05727 0.31412 0.0
H277 H 0.82 0.98149 0.29208 0.0
H278 H 0.08557 0.22126 0.22123 0.0
H279 H 0.69201 0.18533 0.25744 0.0
H280 H 0.71926 0.00513 0.27189 0.0
H281 H 0.65487 0.05716 0.25808 0.0
H282 H 0.27172 0.04943 0.28178 0.0
H283 H 0.64363 0.1244 0.25356 0.0
H284 H 0.26611 0.26612 0.24214 0.0
N285 N 0.18508 0.11759 0.25524 0.0
C286 C 0.22749 0.1453 0.25751 0.0
C287 C 0.25978 0.07655 0.27519 0.0
C288 C 0.28783 0.13966 0.26915 0.0
C289 C 0.20075 0.08337 0.26332 0.0
C290 C 0.30344 0.10484 0.27824 0.0
N291 N 0.15124 0.18432 0.23791 0.0
C292 C 0.1327 0.21744 0.22868 0.0
C293 C 0.25341 0.20883 0.25034 0.0
C294 C 0.21049 0.1795 0.24822 0.0
C295 C 0.23452 0.24292 0.24089 0.0
C296 C 0.17399 0.24718 0.22989 0.0
H297 H 0.34925 0.09944 0.28736 0.0
H298 H 0.37718 0.16499 0.2802 0.0
H299 H 0.34705 0.22551 0.26371 0.0
O300 O 0.08789 0.13572 0.18799 0.0
O301 O 0.097 0.16457 0.27472 0.0
O302 O 0.99696 0.18579 0.27958 0.0
O303 O 0.14854 0.0983 0.21076 0.0
O304 O 0.01131 0.16947 0.21751 0.0
O305 O 0.92403 0.17755 0.24745 0.0
O306 O 0.90982 0.13472 0.33064 0.0
O307 O 0.91108 0.11235 0.2428 0.0
O308 O 0.00914 0.08937 0.23833 0.0
O309 O 0.88257 0.18306 0.30732 0.0
O310 O 0.01845 0.1142 0.30264 0.0
O311 O 0.05616 0.08661 0.26349 0.0
C312 C 0.0559 0.18496 0.2875 0.0
C313 C 0.15918 0.09618 0.16077 0.0
C314 C 0.17563 0.09603 0.11024 0.0
C315 C 0.2131 0.06518 0.11303 0.0
C316 C 0.19743 0.06537 0.16295 0.0
C317 C 0.22394 0.05001 0.13925 0.0
C318 C 0.14842 0.11166 0.13415 0.0
C319 C 0.95614 0.18378 0.22395 0.0
C320 C 0.13127 0.11096 0.18663 0.0
C321 C 0.33064 0.16882 0.27131 0.0
C322 C 0.31351 0.20329 0.26189 0.0
C323 C 0.95127 0.09242 0.22895 0.0
C324 C 0.85616 0.18272 0.35665 0.0
C325 C 0.8368 0.18293 0.40715 0.0
C326 C 0.80126 0.21454 0.40384 0.0
C327 C 0.82056 0.2144 0.35403 0.0
C328 C 0.86432 0.16702 0.38337 0.0
C329 C 0.79336 0.23012 0.37748 0.0
C330 C 0.05687 0.09121 0.29064 0.0
C331 C 0.88288 0.16621 0.33123 0.0
H332 H 0.2344 0.05296 0.0948 0.0
H333 H 0.20658 0.05275 0.18305 0.0
H334 H 0.25303 0.02625 0.14122 0.0
H335 H 0.11944 0.13547 0.13203 0.0
H336 H 0.78021 0.22752 0.42179 0.0
H337 H 0.81324 0.22698 0.33377 0.0
H338 H 0.89133 0.14247 0.38565 0.0
H339 H 0.76604 0.25452 0.37521 0.0
Eu340 Eu 0.44099 0.36077 0.72743 0.0
C341 C 0.7121 0.39864 0.75687 0.0
N342 N 0.68289 0.36608 0.76097 0.0
C343 C 0.76953 0.33616 0.73897 0.0
C344 C 0.7699 0.40131 0.74232 0.0
C345 C 0.71282 0.33492 0.75391 0.0
C346 C 0.79758 0.36956 0.73263 0.0
C347 C 0.71755 0.46293 0.76695 0.0
C348 C 0.68641 0.42913 0.76895 0.0
C349 C 0.77335 0.46603 0.75124 0.0
C350 C 0.79939 0.43529 0.73889 0.0
Eu351 Eu 0.58395 0.36755 0.78429 0.0
N352 N 0.63153 0.42551 0.78339 0.0
C353 C 0.69241 0.49235 0.78138 0.0
C354 C 0.60846 0.45349 0.7987 0.0
C355 C 0.63825 0.48743 0.79774 0.0
H356 H 0.69382 0.30896 0.76018 0.0
H357 H 0.61916 0.50981 0.80941 0.0
H358 H 0.3253 0.3977 0.76481 0.0
H359 H 0.45202 0.22712 0.67867 0.0
H360 H 0.5665 0.44958 0.81124 0.0
H361 H 0.71509 0.51874 0.78046 0.0
H362 H 0.48572 0.28995 0.68726 0.0
H363 H 0.7921 0.31133 0.73278 0.0
H364 H 0.79756 0.49187 0.74911 0.0
H365 H 0.84343 0.43791 0.7275 0.0
H366 H 0.22347 0.37939 0.78601 0.0
H367 H 0.84194 0.37043 0.72136 0.0
H368 H 0.35463 0.20294 0.70069 0.0
N369 N 0.34348 0.34559 0.74826 0.0
C370 C 0.32105 0.31156 0.74369 0.0
C371 C 0.25071 0.35997 0.77438 0.0
C372 C 0.26308 0.29997 0.75532 0.0
C373 C 0.30856 0.37019 0.76253 0.0
C374 C 0.22813 0.3246 0.771 0.0
N375 N 0.41183 0.30051 0.71617 0.0
C376 C 0.44487 0.2794 0.69811 0.0
C377 C 0.33429 0.25281 0.72229 0.0
C378 C 0.35647 0.2883 0.7274 0.0
C379 C 0.36996 0.2304 0.70506 0.0
C380 C 0.42512 0.2439 0.69269 0.0
H381 H 0.18328 0.31675 0.78022 0.0
H382 H 0.19737 0.25495 0.75964 0.0
H383 H 0.25968 0.21364 0.73075 0.0
O384 O 0.40029 0.35758 0.68509 0.0
O385 O 0.42846 0.33583 0.77078 0.0
O386 O 0.52664 0.31544 0.78378 0.0
O387 O 0.3959 0.40805 0.70883 0.0
O388 O 0.53534 0.33636 0.71531 0.0
O389 O 0.58159 0.31725 0.75675 0.0
O390 O 0.57159 0.37589 0.82912 0.0
O391 O 0.56362 0.41348 0.75393 0.0
O392 O 0.53693 0.38235 0.71467 0.0
O393 O 0.65507 0.34932 0.81425 0.0
O394 O 0.4872 0.38737 0.79647 0.0
O395 O 0.44126 0.4098 0.75623 0.0
C396 C 0.4648 0.31236 0.78347 0.0
C397 C 0.34874 0.40869 0.66229 0.0
C398 C 0.32272 0.41336 0.61246 0.0
C399 C 0.28573 0.44372 0.61835 0.0
C400 C 0.31176 0.43916 0.66753 0.0
C401 C 0.28029 0.45642 0.64568 0.0
C402 C 0.35396 0.39574 0.63467 0.0
C403 C 0.57242 0.31443 0.72948 0.0
C404 C 0.38235 0.39111 0.68568 0.0
C405 C 0.24164 0.26441 0.75075 0.0
C406 C 0.27716 0.24089 0.7343 0.0
C407 C 0.56249 0.41064 0.72665 0.0
C408 C 0.61918 0.33459 0.8598 0.0
C409 C 0.63268 0.32387 0.90988 0.0
C410 C 0.61023 0.28824 0.90625 0.0
C411 C 0.59738 0.29893 0.85643 0.0
C412 C 0.6361 0.34701 0.88648 0.0
C413 C 0.59268 0.27593 0.87966 0.0
C414 C 0.45266 0.41144 0.7834 0.0
C415 C 0.62346 0.35973 0.83605 0.0
H416 H 0.26069 0.4576 0.60176 0.0
H417 H 0.30693 0.44958 0.68858 0.0
H418 H 0.25165 0.47981 0.64993 0.0
H419 H 0.38354 0.3727 0.63039 0.0
H420 H 0.60706 0.26979 0.92389 0.0
H421 H 0.58362 0.28905 0.83596 0.0
H422 H 0.6515 0.37488 0.88901 0.0
H423 H 0.57553 0.24846 0.87705 0.0
Eu424 Eu 0.07178 0.85577 0.7305 0.0
C425 C 0.79769 0.82415 0.76985 0.0
N426 N 0.82732 0.85679 0.76737 0.0
C427 C 0.73791 0.88112 0.74343 0.0
C428 C 0.73734 0.8184 0.75813 0.0
C429 C 0.79807 0.88543 0.75509 0.0
C430 C 0.70759 0.84739 0.74475 0.0
C431 C 0.79957 0.76185 0.78591 0.0
C432 C 0.82867 0.79625 0.78362 0.0
C433 C 0.73982 0.75584 0.77388 0.0
C434 C 0.70872 0.78405 0.76011 0.0
Eu435 Eu 0.92836 0.86198 0.78743 0.0
N436 N 0.88674 0.80283 0.79498 0.0
C437 C 0.83103 0.73458 0.80052 0.0
C438 C 0.9156 0.77692 0.81075 0.0
C439 C 0.88887 0.7423 0.81329 0.0
H440 H 0.82107 0.91164 0.75432 0.0
H441 H 0.91257 0.72171 0.82541 0.0
H442 H 0.17255 0.79583 0.75964 0.0
H443 H 0.12499 0.99071 0.69061 0.0
H444 H 0.95848 0.78277 0.82201 0.0
H445 H 0.81035 0.70776 0.80266 0.0
H446 H 0.06196 0.93449 0.69713 0.0
H447 H 0.71496 0.9038 0.73346 0.0
H448 H 0.71694 0.72954 0.77536 0.0
H449 H 0.66245 0.77905 0.75114 0.0
H450 H 0.27581 0.79599 0.78313 0.0
H451 H 0.66109 0.84409 0.73558 0.0
H452 H 0.22927 0.99709 0.71364 0.0
N453 N 0.1726 0.85249 0.75214 0.0
C454 C 0.20881 0.88311 0.75115 0.0
C455 C 0.25706 0.8209 0.77473 0.0
C456 C 0.2699 0.88411 0.76295 0.0
C457 C 0.19744 0.8211 0.76216 0.0
C458 C 0.29307 0.85272 0.77557 0.0
N459 N 0.12858 0.91046 0.72448 0.0
C460 C 0.1069 0.93746 0.70758 0.0
C461 C 0.22459 0.94405 0.73307 0.0
C462 C 0.18672 0.91272 0.73636 0.0
C463 C 0.20157 0.97258 0.71672 0.0
C464 C 0.14268 0.96911 0.70371 0.0
H465 H 0.33975 0.85235 0.78486 0.0
H466 H 0.35373 0.9171 0.76983 0.0
H467 H 0.31393 0.96963 0.74369 0.0
O468 O 0.06328 0.85873 0.68464 0.0
O469 O 0.06724 0.90519 0.75876 0.0
O470 O 0.02823 0.87867 0.79809 0.0
O471 O 0.131 0.82319 0.70356 0.0
O472 O 0.98119 0.8832 0.71736 0.0
O473 O 0.94057 0.90965 0.75735 0.0
O474 O 0.88985 0.85896 0.83009 0.0
O475 O 0.90993 0.83829 0.74424 0.0
O476 O 1.00267 0.80923 0.73646 0.0
O477 O 0.89176 0.91064 0.80746 0.0
O478 O 0.01682 0.83239 0.80177 0.0
O479 O 0.06146 0.80891 0.76149 0.0
C480 C 0.05753 0.90566 0.78586 0.0
C481 C 0.16215 0.85295 0.66211 0.0
C482 C 0.20098 0.87054 0.61584 0.0
C483 C 0.2584 0.8816 0.6281 0.0
C484 C 0.22026 0.86399 0.67373 0.0
C485 C 0.26784 0.87832 0.65682 0.0
C486 C 0.15268 0.85616 0.63301 0.0
C487 C 0.95093 0.90943 0.73004 0.0
C488 C 0.11192 0.83826 0.68046 0.0
C489 C 0.30688 0.91579 0.76073 0.0
C490 C 0.28432 0.94568 0.74577 0.0
C491 C 0.94136 0.81138 0.73363 0.0
C492 C 0.84811 0.91122 0.85476 0.0
C493 C 0.82482 0.91401 0.90483 0.0
C494 C 0.79153 0.94606 0.90029 0.0
C495 C 0.81505 0.94354 0.85077 0.0
C496 C 0.85307 0.8965 0.882 0.0
C497 C 0.78681 0.96073 0.87341 0.0
C498 C 0.05318 0.80894 0.78887 0.0
C499 C 0.87722 0.89331 0.83045 0.0
H500 H 0.29651 0.89238 0.61532 0.0
H501 H 0.22932 0.86133 0.6959 0.0
H502 H 0.31237 0.8867 0.66601 0.0
H503 H 0.10802 0.84781 0.62386 0.0
H504 H 0.76974 0.95993 0.91766 0.0
H505 H 0.8106 0.9554 0.83009 0.0
H506 H 0.87911 0.87182 0.88549 0.0
H507 H 0.76127 0.98557 0.87012 0.0
Eu508 Eu 0.42029 0.63658 0.23033 0.0
C509 C 0.6936 0.67474 0.26174 0.0
N510 N 0.66748 0.64106 0.26075 0.0
C511 C 0.75374 0.62021 0.23304 0.0
C512 C 0.74979 0.68293 0.24716 0.0
C513 C 0.69741 0.61354 0.24751 0.0
C514 C 0.77967 0.65516 0.23257 0.0
C515 C 0.68858 0.73648 0.27824 0.0
C516 C 0.66312 0.7011 0.27701 0.0
C517 C 0.74349 0.74515 0.26302 0.0
C518 C 0.7741 0.71842 0.24756 0.0
Eu519 Eu 0.56992 0.63238 0.28362 0.0
N520 N 0.60965 0.69191 0.29127 0.0
C521 C 0.65873 0.76188 0.29516 0.0
C522 C 0.58375 0.71571 0.3096 0.0
C523 C 0.60682 0.75123 0.31133 0.0
H524 H 0.67737 0.58654 0.24786 0.0
H525 H 0.585 0.77024 0.32539 0.0
H526 H 0.32527 0.6932 0.26695 0.0
H527 H 0.36973 0.5003 0.19329 0.0
H528 H 0.54602 0.70735 0.32334 0.0
H529 H 0.67665 0.78938 0.29662 0.0
H530 H 0.42933 0.55807 0.19659 0.0
H531 H 0.77693 0.59847 0.22216 0.0
H532 H 0.76327 0.7723 0.26344 0.0
H533 H 0.81681 0.72539 0.23619 0.0
H534 H 0.22875 0.68935 0.29516 0.0
H535 H 0.82301 0.66034 0.22114 0.0
H536 H 0.27161 0.4914 0.22068 0.0
N537 N 0.32601 0.6371 0.25715 0.0
C538 C 0.29135 0.60581 0.2569 0.0
C539 C 0.24648 0.66543 0.28498 0.0
C540 C 0.23409 0.60279 0.27185 0.0
C541 C 0.30252 0.66726 0.2696 0.0
C542 C 0.21262 0.6329 0.28651 0.0
N543 N 0.3667 0.58074 0.22626 0.0
C544 C 0.38695 0.55416 0.20884 0.0
C545 C 0.27601 0.5447 0.23929 0.0
C546 C 0.31163 0.57709 0.24063 0.0
C547 C 0.29766 0.5167 0.22226 0.0
C548 C 0.35313 0.52158 0.20681 0.0
H549 H 0.16883 0.63169 0.2982 0.0
H550 H 0.1553 0.56744 0.28257 0.0
H551 H 0.19222 0.51655 0.25421 0.0
O552 O 0.42075 0.63798 0.1839 0.0
O553 O 0.43169 0.58791 0.25932 0.0
O554 O 0.47102 0.61743 0.29673 0.0
O555 O 0.34459 0.66272 0.2078 0.0
O556 O 0.50665 0.60702 0.21445 0.0
O557 O 0.55596 0.58413 0.25444 0.0
O558 O 0.61576 0.63367 0.32486 0.0
O559 O 0.58144 0.65243 0.23895 0.0
O560 O 0.49088 0.68347 0.23054 0.0
O561 O 0.60578 0.58246 0.30227 0.0
O562 O 0.48311 0.66256 0.29865 0.0
O563 O 0.43598 0.68532 0.25863 0.0
C564 C 0.44291 0.58904 0.28626 0.0
C565 C 0.3358 0.6679 0.15755 0.0
C566 C 0.31923 0.66554 0.10711 0.0
C567 C 0.26941 0.68995 0.10967 0.0
C568 C 0.28589 0.69252 0.15963 0.0
C569 C 0.25312 0.7035 0.13581 0.0
C570 C 0.35294 0.65473 0.13105 0.0
C571 C 0.5428 0.58321 0.22734 0.0
C572 C 0.36789 0.65571 0.18329 0.0
C573 C 0.19917 0.57026 0.27107 0.0
C574 C 0.22006 0.54131 0.25484 0.0
C575 C 0.55229 0.68031 0.22834 0.0
C576 C 0.65665 0.57988 0.34798 0.0
C577 C 0.68389 0.57457 0.39762 0.0
C578 C 0.71562 0.54227 0.39166 0.0
C579 C 0.68799 0.54742 0.34271 0.0
C580 C 0.65455 0.5934 0.37551 0.0
C581 C 0.71749 0.52885 0.36444 0.0
C582 C 0.44891 0.68704 0.2856 0.0
C583 C 0.62522 0.59896 0.32479 0.0
H584 H 0.24328 0.69861 0.09136 0.0
H585 H 0.2719 0.70327 0.17973 0.0
H586 H 0.21477 0.72242 0.13763 0.0
H587 H 0.3912 0.6357 0.12906 0.0
H588 H 0.7394 0.52741 0.4081 0.0
H589 H 0.69002 0.53649 0.32172 0.0
H590 H 0.62874 0.61789 0.37978 0.0
H591 H 0.74195 0.50393 0.36019 0.0
C592 C 0.11033 0.00145 0.32002 0.0
C593 C 0.15419 0.01172 0.34074 0.0
C594 C 0.0796 0.02742 0.30369 0.0
C595 C 0.09012 0.06456 0.3081 0.0
H596 H 0.09943 0.97314 0.31647 0.0
H597 H 0.04652 0.01838 0.2878 0.0
S598 S 0.20867 0.10543 0.35565 0.0
N599 N 0.21295 0.06154 0.36187 0.0
N600 N 0.15288 0.11027 0.33178 0.0
C601 C 0.13511 0.07524 0.32799 0.0
C602 C 0.16758 0.04882 0.34422 0.0
C603 C 0.39976 0.50638 0.80077 0.0
C604 C 0.40107 0.50671 0.83025 0.0
C605 C 0.41378 0.47501 0.78575 0.0
C606 C 0.42999 0.44279 0.79964 0.0
H607 H 0.38883 0.53079 0.78918 0.0
H608 H 0.41407 0.47646 0.76308 0.0
S609 S 0.43727 0.42892 0.87671 0.0
N610 N 0.41822 0.47181 0.87279 0.0
N611 N 0.44291 0.41263 0.84472 0.0
C612 C 0.42917 0.4424 0.82915 0.0
C613 C 0.41508 0.47438 0.84441 0.0
C614 C 0.65371 0.45735 0.66858 0.0
C615 C 0.65231 0.49404 0.67639 0.0
C616 C 0.6235 0.43058 0.6847 0.0
C617 C 0.59114 0.43949 0.70931 0.0
H618 H 0.67821 0.44924 0.64977 0.0
H619 H 0.62652 0.40264 0.67814 0.0
S620 S 0.57024 0.53142 0.73829 0.0
N621 N 0.61461 0.53777 0.71024 0.0
N622 N 0.5561 0.48745 0.73999 0.0
C623 C 0.5882 0.476 0.71713 0.0
C624 C 0.61911 0.50329 0.70078 0.0
C625 C 0.83899 0.02686 0.19167 0.0
C626 C 0.88048 0.00544 0.17609 0.0
C627 C 0.86165 0.05606 0.20775 0.0
C628 C 0.92681 0.06412 0.20952 0.0
H629 H 0.78881 0.0209 0.19151 0.0
H630 H 0.82789 0.07175 0.21934 0.0
S631 S 0.05446 0.01574 0.17233 0.0
N632 N 0.98907 0.9944 0.16292 0.0
N633 N 0.03195 0.04834 0.19343 0.0
C634 C 0.96839 0.04299 0.19361 0.0
C635 C 0.94521 0.01384 0.17692 0.0
C636 C 0.90154 0.00428 0.70932 0.0
C637 C 0.8985 0.00251 0.67991 0.0
C638 C 0.9165 0.97377 0.72546 0.0
C639 C 0.92903 0.94032 0.71279 0.0
H640 H 0.89451 0.02977 0.7199 0.0
H641 H 0.92031 0.9768 0.74795 0.0
S642 S 0.91959 0.92055 0.63665 0.0
N643 N 0.90382 0.96406 0.63892 0.0
N644 N 0.93187 0.90665 0.66907 0.0
C645 C 0.92342 0.93788 0.68343 0.0
C646 C 0.90828 0.96897 0.66705 0.0
C647 C 0.63116 0.54061 0.16731 0.0
C648 C 0.64032 0.50493 0.17669 0.0
C649 C 0.59818 0.56551 0.18359 0.0
C650 C 0.57439 0.55583 0.21009 0.0
H651 H 0.64976 0.54932 0.14723 0.0
H652 H 0.59272 0.59282 0.17569 0.0
S653 S 0.58516 0.46579 0.2441 0.0
N654 N 0.62205 0.46099 0.21389 0.0
N655 N 0.56107 0.50811 0.24481 0.0
C656 C 0.58297 0.52026 0.21969 0.0
C657 C 0.61557 0.49469 0.20288 0.0
C658 C 0.38788 0.49507 0.30889 0.0
C659 C 0.40228 0.49415 0.33763 0.0
C660 C 0.40152 0.52573 0.29251 0.0
C661 C 0.42914 0.55699 0.30427 0.0
H662 H 0.36707 0.47159 0.29882 0.0
H663 H 0.39083 0.52461 0.2704 0.0
S664 S 0.47521 0.56846 0.37888 0.0
N665 N 0.44532 0.52707 0.37734 0.0
N666 N 0.47035 0.58491 0.34677 0.0
C667 C 0.4435 0.55645 0.33311 0.0
C668 C 0.43019 0.52503 0.34972 0.0
C669 C 0.14482 0.99246 0.80527 0.0
C670 C 0.14024 0.99322 0.83461 0.0
C671 C 0.11618 0.96473 0.78974 0.0
C672 C 0.08334 0.93602 0.80289 0.0
H673 H 0.17072 0.01354 0.79421 0.0
H674 H 0.12016 0.96589 0.76722 0.0
S675 S 0.05466 0.92671 0.87941 0.0
N676 N 0.09767 0.96404 0.87631 0.0
N677 N 0.04475 0.91149 0.84724 0.0
C678 C 0.07689 0.93706 0.83227 0.0
C679 C 0.10525 0.96569 0.84807 0.0
C680 C 0.13462 0.09767 0.03396 0.0
C681 C 0.18242 0.12035 0.02288 0.0
C682 C 0.12759 0.09297 0.06294 0.0
C683 C 0.16754 0.11112 0.08183 0.0
H684 H 0.10528 0.08154 0.02011 0.0
H685 H 0.09404 0.07288 0.07056 0.0
S686 S 0.29492 0.17657 0.06404 0.0
N687 N 0.26658 0.16358 0.03341 0.0
N688 N 0.25228 0.15497 0.0879 0.0
C689 C 0.21161 0.13622 0.07123 0.0
C690 C 0.21921 0.14089 0.04171 0.0
C691 C 0.34397 0.41691 0.53349 0.0
C692 C 0.33267 0.38097 0.52514 0.0
C693 C 0.34226 0.42678 0.56176 0.0
C694 C 0.32916 0.40117 0.58293 0.0
H695 H 0.35442 0.43765 0.51802 0.0
H696 H 0.35105 0.45485 0.56709 0.0
S697 S 0.29575 0.30348 0.57228 0.0
N698 N 0.30785 0.31958 0.54039 0.0
N699 N 0.30477 0.33821 0.59361 0.0
C700 C 0.31889 0.36498 0.57499 0.0
C701 C 0.32056 0.35489 0.5461 0.0
C702 C 0.63224 0.34232 0.98827 0.0
C703 C 0.68938 0.36135 0.99243 0.0
C704 C 0.61416 0.33037 0.96155 0.0
C705 C 0.65262 0.33692 0.938 0.0
H706 H 0.6011 0.3368 1.00579 0.0
H707 H 0.56945 0.31616 0.95928 0.0
S708 S 0.80907 0.3832 0.93804 0.0
N709 N 0.78566 0.38472 0.97097 0.0
N710 N 0.75191 0.36217 0.92087 0.0
C711 C 0.71013 0.35564 0.94194 0.0
C712 C 0.72844 0.36787 0.9691 0.0
C713 C 0.79924 0.15492 0.48184 0.0
C714 C 0.85937 0.15159 0.49398 0.0
C715 C 0.79234 0.163 0.45329 0.0
C716 C 0.84524 0.16777 0.43576 0.0
H717 H 0.75731 0.15322 0.49476 0.0
H718 H 0.74522 0.16693 0.44506 0.0
S719 S 0.01269 0.15726 0.4566 0.0
N720 N 0.97258 0.14997 0.48578 0.0
N721 N 0.95953 0.16551 0.43213 0.0
C722 C 0.90545 0.16213 0.44724 0.0
C723 C 0.91252 0.15406 0.47636 0.0
C724 C 0.78233 0.87185 0.975 0.0
C725 C 0.83412 0.88166 0.99198 0.0
C726 C 0.78082 0.88096 0.94639 0.0
C727 C 0.83108 0.90008 0.93379 0.0
H728 H 0.74244 0.85734 0.98397 0.0
H729 H 0.73947 0.87375 0.93417 0.0
S730 S 0.97633 0.93329 0.96887 0.0
N731 N 0.93626 0.91239 0.99394 0.0
N732 N 0.93327 0.92903 0.94019 0.0
C733 C 0.88332 0.90967 0.95032 0.0
C734 C 0.88492 0.90054 0.97941 0.0
C735 C 0.67411 0.57254 0.47693 0.0
C736 C 0.69228 0.60784 0.48475 0.0
C737 C 0.66858 0.56271 0.44877 0.0
C738 C 0.68146 0.5876 0.42709 0.0
H739 H 0.66705 0.55166 0.49264 0.0
H740 H 0.65595 0.53495 0.44395 0.0
S741 S 0.72365 0.68457 0.43611 0.0
N742 N 0.71661 0.66884 0.4684 0.0
N743 N 0.7087 0.64993 0.41533 0.0
C744 C 0.69635 0.62352 0.43449 0.0
C745 C 0.70143 0.63367 0.46331 0.0
C746 C 0.39447 0.65932 0.03576 0.0
C747 C 0.3511 0.63728 0.02106 0.0
C748 C 0.38639 0.66649 0.06435 0.0
C749 C 0.33482 0.65178 0.07908 0.0
H750 H 0.43292 0.67273 0.02478 0.0
H751 H 0.41861 0.68517 0.0746 0.0
S752 S 0.21334 0.5885 0.05158 0.0
N753 N 0.25894 0.59764 0.02434 0.0
N754 N 0.24338 0.61174 0.07799 0.0
C755 C 0.29342 0.62807 0.06517 0.0
C756 C 0.30166 0.62064 0.03615 0.0
C757 C 0.2185 0.90944 0.54307 0.0
C758 C 0.20961 0.87905 0.52593 0.0
C759 C 0.21047 0.90703 0.57208 0.0
C760 C 0.19377 0.87406 0.58505 0.0
H761 H 0.23493 0.93483 0.5341 0.0
H762 H 0.22076 0.93072 0.58464 0.0
S763 S 0.1593 0.78742 0.54899 0.0
N764 N 0.17816 0.81582 0.52342 0.0
N765 N 0.16368 0.81102 0.57826 0.0
C766 C 0.18042 0.84405 0.56793 0.0
C767 C 0.18834 0.8466 0.53825 0.0
C768 C 0.13605 0.27074 0.31193 0.0
C769 C 0.15382 0.26197 0.33957 0.0
C770 C 0.09961 0.24676 0.29578 0.0
C771 C 0.08085 0.21294 0.30646 0.0
H772 H 0.15186 0.29594 0.30246 0.0
H773 H 0.08788 0.25425 0.27451 0.0
S774 S 0.10545 0.17921 0.3787 0.0
N775 N 0.14306 0.2186 0.37785 0.0
N776 N 0.07461 0.17372 0.34719 0.0
C777 C 0.0941 0.20486 0.33454 0.0
C778 C 0.13066 0.22935 0.35118 0.0
C779 C 0.38536 0.22628 0.80878 0.0
C780 C 0.37903 0.23221 0.83776 0.0
C781 C 0.41356 0.25236 0.79127 0.0
C782 C 0.43538 0.2854 0.80208 0.0
H783 H 0.36992 0.20089 0.79967 0.0
H784 H 0.41931 0.24639 0.76927 0.0
S785 S 0.42845 0.31513 0.87589 0.0
N786 N 0.3962 0.27421 0.87622 0.0
N787 N 0.44837 0.3233 0.84301 0.0
C788 C 0.42894 0.29198 0.83079 0.0
C789 C 0.40087 0.26536 0.84872 0.0
C790 C 0.66559 0.27175 0.67056 0.0
C791 C 0.69068 0.24068 0.68325 0.0
C792 C 0.62623 0.29501 0.68549 0.0
C793 C 0.61031 0.28798 0.71364 0.0
H794 H 0.67809 0.27875 0.6492 0.0
H795 H 0.60962 0.3192 0.67509 0.0
S796 S 0.65784 0.20788 0.75537 0.0
N797 N 0.69296 0.20256 0.72483 0.0
N798 N 0.61844 0.24602 0.75281 0.0
C799 C 0.63302 0.2562 0.72619 0.0
C800 C 0.67337 0.23265 0.71103 0.0
C801 C 0.94764 0.26061 0.17054 0.0
C802 C 0.88295 0.26855 0.16981 0.0
C803 C 0.97052 0.232 0.18691 0.0
C804 C 0.92994 0.2108 0.20386 0.0
H805 H 0.9811 0.27713 0.15887 0.0
H806 H 0.02056 0.22711 0.18644 0.0
S807 S 0.75492 0.2143 0.20267 0.0
N808 N 0.7775 0.24875 0.18287 0.0
N809 N 0.8205 0.19504 0.21358 0.0
C810 C 0.86465 0.21669 0.20133 0.0
C811 C 0.84125 0.24563 0.18448 0.0
C812 C 0.84124 0.76367 0.67908 0.0
C813 C 0.85876 0.72731 0.68276 0.0
C814 C 0.86527 0.7909 0.69674 0.0
C815 C 0.90792 0.78251 0.71831 0.0
H816 H 0.81137 0.77133 0.66166 0.0
H817 H 0.85318 0.8188 0.69254 0.0
S818 S 0.95769 0.69104 0.74035 0.0
N819 N 0.91295 0.684 0.71252 0.0
N820 N 0.95918 0.73526 0.74501 0.0
C821 C 0.92196 0.74615 0.72345 0.0
C822 C 0.89706 0.7185 0.70584 0.0
C823 C 0.67396 0.71948 0.17833 0.0
C824 C 0.66549 0.7571 0.18062 0.0
C825 C 0.63674 0.69489 0.19369 0.0
C826 C 0.58902 0.70689 0.21168 0.0
H827 H 0.70973 0.70888 0.16452 0.0
H828 H 0.64531 0.66622 0.1914 0.0
S829 S 0.55115 0.80217 0.22742 0.0
N830 N 0.60829 0.80501 0.20398 0.0
N831 N 0.53742 0.75853 0.23229 0.0
C832 C 0.58002 0.74425 0.21436 0.0
C833 C 0.61843 0.76941 0.19896 0.0
C834 C 0.39291 0.74138 0.34802 0.0
C835 C 0.37746 0.77486 0.33597 0.0
C836 C 0.41505 0.71298 0.33149 0.0
C837 C 0.42228 0.71697 0.30231 0.0
H838 H 0.38964 0.73748 0.37047 0.0
H839 H 0.42732 0.68783 0.34177 0.0
S840 S 0.38219 0.79843 0.26044 0.0
N841 N 0.3664 0.80976 0.29307 0.0
N842 N 0.40816 0.75655 0.26195 0.0
C843 C 0.40461 0.74996 0.28993 0.0
C844 C 0.38229 0.77887 0.30677 0.0
C845 C 0.14531 0.76887 0.84945 0.0
C846 C 0.16819 0.73638 0.83832 0.0
C847 C 0.10605 0.79146 0.83369 0.0
C848 C 0.08865 0.78259 0.80609 0.0
H849 H 0.15876 0.77719 0.87037 0.0
H850 H 0.09115 0.8167 0.84287 0.0
S851 S 0.13351 0.69974 0.76768 0.0
N852 N 0.16911 0.69598 0.7983 0.0
N853 N 0.09429 0.738 0.76892 0.0
C854 C 0.10919 0.7495 0.79512 0.0
C855 C 0.14925 0.72653 0.81115 0.0
loop_
_geom_bond_atom_site_label_1
_geom_bond_atom_site_label_2
_geom_bond_distance
_geom_bond_site_symmetry_2
_ccdc_geom_bond_type
P0 O11 1.490 . S
P0 C14 1.812 . S
P0 C20 1.803 . S
P0 C26 1.819 . S
H1 C15 0.941 . S
H2 C16 0.939 . S
H3 C18 0.940 . S
H4 C19 0.940 . S
H5 C21 0.939 . S
H6 C22 0.942 . S
H7 C24 0.940 . S
H8 C25 0.939 . S
H9 C27 0.941 . S
H10 C31 0.939 . S
O11 P0 1.490 . S
H12 C28 0.939 . S
H13 C30 0.940 . S
C14 P0 1.812 . S
C14 C15 1.389 . S
C14 C19 1.391 . S
C15 H1 0.941 . S
C15 C14 1.389 . S
C15 C16 1.397 . S
C16 H2 0.939 . S
C16 C15 1.397 . S
C16 C17 1.378 . S
C17 C16 1.378 . S
C17 C18 1.378 . S
C18 H3 0.940 . S
C18 C17 1.378 . S
C18 C19 1.396 . S
C19 H4 0.940 . S
C19 C14 1.391 . S
C19 C18 1.396 . S
C20 P0 1.803 . S
C20 C21 1.378 . S
C20 C25 1.400 . S
C21 H5 0.939 . S
C21 C20 1.378 . S
C21 C22 1.361 . S
C22 H6 0.942 . S
C22 C21 1.361 . S
C22 C23 1.369 . S
C23 C22 1.369 . S
C23 C24 1.404 . S
C24 H7 0.940 . S
C24 C23 1.404 . S
C24 C25 1.389 . S
C25 H8 0.939 . S
C25 C20 1.400 . S
C25 C24 1.389 . S
C26 P0 1.819 . S
C26 C27 1.391 . S
C26 C31 1.391 . S
C27 H9 0.941 . S
C27 C26 1.391 . S
C27 C28 1.396 . S
C28 H12 0.939 . S
C28 C27 1.396 . S
C28 C29 1.397 . S
C29 C28 1.397 . S
C29 C30 1.385 . S
C30 H13 0.940 . S
C30 C29 1.385 . S
C30 C31 1.388 . S
C31 H10 0.939 . S
C31 C26 1.391 . S
C31 C30 1.388 . S
P32 O43 1.490 . S
P32 C46 1.812 . S
P32 C52 1.803 . S
P32 C58 1.819 . S
H33 C47 0.941 . S
H34 C48 0.939 1_565 S
H35 C50 0.940 . S
H36 C51 0.940 . S
H37 C53 0.939 . S
H38 C54 0.942 . S
H39 C56 0.940 . S
H40 C57 0.939 . S
H41 C59 0.941 . S
H42 C63 0.939 . S
O43 P32 1.490 . S
H44 C60 0.939 . S
H45 C62 0.940 . S
C46 P32 1.812 . S
C46 C47 1.389 . S
C46 C51 1.391 . S
C47 H33 0.941 . S
C47 C46 1.389 . S
C47 C48 1.397 . S
C48 H34 0.939 1_545 S
C48 C47 1.397 . S
C48 C49 1.378 . S
C49 C48 1.378 . S
C49 C50 1.378 . S
C50 H35 0.940 . S
C50 C49 1.378 . S
C50 C51 1.396 . S
C51 H36 0.940 . S
C51 C46 1.391 . S
C51 C50 1.396 . S
C52 P32 1.803 . S
C52 C53 1.378 . S
C52 C57 1.400 . S
C53 H37 0.939 . S
C53 C52 1.378 . S
C53 C54 1.361 . S
C54 H38 0.942 . S
C54 C53 1.361 . S
C54 C55 1.369 . S
C55 C54 1.369 . S
C55 C56 1.404 . S
C56 H39 0.940 . S
C56 C55 1.404 . S
C56 C57 1.389 . S
C57 H40 0.939 . S
C57 C52 1.400 . S
C57 C56 1.389 . S
C58 P32 1.819 . S
C58 C59 1.391 . S
C58 C63 1.391 . S
C59 H41 0.941 . S
C59 C58 1.391 . S
C59 C60 1.396 . S
C60 H44 0.939 . S
C60 C59 1.396 . S
C60 C61 1.397 . S
C61 C60 1.397 . S
C61 C62 1.385 . S
C62 H45 0.940 . S
C62 C61 1.385 . S
C62 C63 1.388 . S
C63 H42 0.939 . S
C63 C58 1.391 . S
C63 C62 1.388 . S
P64 O75 1.490 . S
P64 C78 1.812 . S
P64 C84 1.803 . S
P64 C90 1.819 . S
H65 C79 0.941 . S
H66 C80 0.939 . S
H67 C82 0.940 . S
H68 C83 0.940 . S
H69 C85 0.939 . S
H70 C86 0.942 . S
H71 C88 0.940 . S
H72 C89 0.939 . S
H73 C91 0.941 . S
H74 C95 0.939 . S
O75 P64 1.490 . S
H76 C92 0.939 . S
H77 C94 0.940 . S
C78 P64 1.812 . S
C78 C79 1.389 . S
C78 C83 1.391 . S
C79 H65 0.941 . S
C79 C78 1.389 . S
C79 C80 1.397 . S
C80 H66 0.939 . S
C80 C79 1.397 . S
C80 C81 1.378 . S
C81 C80 1.378 . S
C81 C82 1.378 . S
C82 H67 0.940 . S
C82 C81 1.378 . S
C82 C83 1.396 . S
C83 H68 0.940 . S
C83 C78 1.391 . S
C83 C82 1.396 . S
C84 P64 1.803 . S
C84 C85 1.378 . S
C84 C89 1.400 . S
C85 H69 0.939 . S
C85 C84 1.378 . S
C85 C86 1.361 . S
C86 H70 0.942 . S
C86 C85 1.361 . S
C86 C87 1.369 . S
C87 C86 1.369 . S
C87 C88 1.404 . S
C88 H71 0.940 . S
C88 C87 1.404 . S
C88 C89 1.389 . S
C89 H72 0.939 . S
C89 C84 1.400 . S
C89 C88 1.389 . S
C90 P64 1.819 . S
C90 C91 1.391 . S
C90 C95 1.391 . S
C91 H73 0.941 . S
C91 C90 1.391 . S
C91 C92 1.396 . S
C92 H76 0.939 . S
C92 C91 1.396 . S
C92 C93 1.397 . S
C93 C92 1.397 . S
C93 C94 1.385 . S
C94 H77 0.940 . S
C94 C93 1.385 . S
C94 C95 1.388 . S
C95 H74 0.939 . S
C95 C90 1.391 . S
C95 C94 1.388 . S
P96 O107 1.490 . S
P96 C110 1.812 . S
P96 C116 1.803 . S
P96 C122 1.819 . S
H97 C111 0.941 . S
H98 C112 0.939 . S
H99 C114 0.940 . S
H100 C115 0.940 . S
H101 C117 0.939 . S
H102 C118 0.942 . S
H103 C120 0.940 . S
H104 C121 0.939 . S
H105 C123 0.941 . S
H106 C127 0.939 . S
O107 P96 1.490 . S
H108 C124 0.939 . S
H109 C126 0.940 . S
C110 P96 1.812 . S
C110 C111 1.389 . S
C110 C115 1.391 . S
C111 H97 0.941 . S
C111 C110 1.389 . S
C111 C112 1.397 . S
C112 H98 0.939 . S
C112 C111 1.397 . S
C112 C113 1.378 . S
C113 C112 1.378 . S
C113 C114 1.378 . S
C114 H99 0.940 . S
C114 C113 1.378 . S
C114 C115 1.396 . S
C115 H100 0.940 . S
C115 C110 1.391 . S
C115 C114 1.396 . S
C116 P96 1.803 . S
C116 C117 1.378 . S
C116 C121 1.400 . S
C117 H101 0.939 . S
C117 C116 1.378 . S
C117 C118 1.361 . S
C118 H102 0.942 . S
C118 C117 1.361 . S
C118 C119 1.369 . S
C119 C118 1.369 . S
C119 C120 1.404 . S
C120 H103 0.940 . S
C120 C119 1.404 . S
C120 C121 1.389 . S
C121 H104 0.939 . S
C121 C116 1.400 . S
C121 C120 1.389 . S
C122 P96 1.819 . S
C122 C123 1.391 . S
C122 C127 1.391 . S
C123 H105 0.941 . S
C123 C122 1.391 . S
C123 C124 1.396 . S
C124 H108 0.939 . S
C124 C123 1.396 . S
C124 C125 1.397 . S
C125 C124 1.397 . S
C125 C126 1.385 . S
C126 H109 0.940 . S
C126 C125 1.385 . S
C126 C127 1.388 . S
C127 H106 0.939 . S
C127 C122 1.391 . S
C127 C126 1.388 . S
P128 O139 1.490 . S
P128 C142 1.812 . S
P128 C148 1.803 . S
P128 C154 1.819 . S
H129 C143 0.941 . S
H130 C144 0.939 . S
H131 C146 0.940 . S
H132 C147 0.940 . S
H133 C149 0.939 . S
H134 C150 0.942 . S
H135 C152 0.940 . S
H136 C153 0.939 . S
H137 C155 0.941 . S
H138 C159 0.939 . S
O139 P128 1.490 . S
H140 C156 0.939 . S
H141 C158 0.940 . S
C142 P128 1.812 . S
C142 C143 1.389 . S
C142 C147 1.391 . S
C143 H129 0.941 . S
C143 C142 1.389 . S
C143 C144 1.397 . S
C144 H130 0.939 . S
C144 C143 1.397 . S
C144 C145 1.378 . S
C145 C144 1.378 . S
C145 C146 1.378 . S
C146 H131 0.940 . S
C146 C145 1.378 . S
C146 C147 1.396 . S
C147 H132 0.940 . S
C147 C142 1.391 . S
C147 C146 1.396 . S
C148 P128 1.803 . S
C148 C149 1.378 . S
C148 C153 1.400 . S
C149 H133 0.939 . S
C149 C148 1.378 . S
C149 C150 1.361 . S
C150 H134 0.942 . S
C150 C149 1.361 . S
C150 C151 1.369 . S
C151 C150 1.369 . S
C151 C152 1.404 . S
C152 H135 0.940 . S
C152 C151 1.404 . S
C152 C153 1.389 . S
C153 H136 0.939 . S
C153 C148 1.400 . S
C153 C152 1.389 . S
C154 P128 1.819 . S
C154 C155 1.391 . S
C154 C159 1.391 . S
C155 H137 0.941 . S
C155 C154 1.391 . S
C155 C156 1.396 . S
C156 H140 0.939 . S
C156 C155 1.396 . S
C156 C157 1.397 . S
C157 C156 1.397 . S
C157 C158 1.385 . S
C158 H141 0.940 . S
C158 C157 1.385 . S
C158 C159 1.388 . S
C159 H138 0.939 . S
C159 C154 1.391 . S
C159 C158 1.388 . S
P160 O171 1.490 . S
P160 C174 1.812 . S
P160 C180 1.803 . S
P160 C186 1.819 . S
H161 C175 0.941 . S
H162 C176 0.939 . S
H163 C178 0.940 . S
H164 C179 0.940 . S
H165 C181 0.939 . S
H166 C182 0.942 . S
H167 C184 0.940 . S
H168 C185 0.939 . S
H169 C187 0.941 . S
H170 C191 0.939 . S
O171 P160 1.490 . S
H172 C188 0.939 . S
H173 C190 0.940 . S
C174 P160 1.812 . S
C174 C175 1.389 . S
C174 C179 1.391 . S
C175 H161 0.941 . S
C175 C174 1.389 . S
C175 C176 1.397 . S
C176 H162 0.939 . S
C176 C175 1.397 . S
C176 C177 1.378 . S
C177 C176 1.378 . S
C177 C178 1.378 . S
C178 H163 0.940 . S
C178 C177 1.378 . S
C178 C179 1.396 . S
C179 H164 0.940 . S
C179 C174 1.391 . S
C179 C178 1.396 . S
C180 P160 1.803 . S
C180 C181 1.378 . S
C180 C185 1.400 . S
C181 H165 0.939 . S
C181 C180 1.378 . S
C181 C182 1.361 . S
C182 H166 0.942 . S
C182 C181 1.361 . S
C182 C183 1.369 . S
C183 C182 1.369 . S
C183 C184 1.404 . S
C184 H167 0.940 . S
C184 C183 1.404 . S
C184 C185 1.389 . S
C185 H168 0.939 . S
C185 C180 1.400 . S
C185 C184 1.389 . S
C186 P160 1.819 . S
C186 C187 1.391 . S
C186 C191 1.391 . S
C187 H169 0.941 . S
C187 C186 1.391 . S
C187 C188 1.396 . S
C188 H172 0.939 . S
C188 C187 1.396 . S
C188 C189 1.397 . S
C189 C188 1.397 . S
C189 C190 1.385 . S
C190 H173 0.940 . S
C190 C189 1.385 . S
C190 C191 1.388 . S
C191 H170 0.939 . S
C191 C186 1.391 . S
C191 C190 1.388 . S
P192 O203 1.490 . S
P192 C206 1.812 . S
P192 C212 1.803 . S
P192 C218 1.819 . S
H193 C207 0.941 . S
H194 C208 0.939 . S
H195 C210 0.940 . S
H196 C211 0.940 . S
H197 C213 0.939 . S
H198 C214 0.942 . S
H199 C216 0.940 . S
H200 C217 0.939 . S
H201 C219 0.941 . S
H202 C223 0.939 . S
O203 P192 1.490 . S
H204 C220 0.939 1_545 S
H205 C222 0.940 . S
C206 P192 1.812 . S
C206 C207 1.389 . S
C206 C211 1.391 . S
C207 H193 0.941 . S
C207 C206 1.389 . S
C207 C208 1.397 . S
C208 H194 0.939 . S
C208 C207 1.397 . S
C208 C209 1.378 . S
C209 C208 1.378 . S
C209 C210 1.378 . S
C210 H195 0.940 . S
C210 C209 1.378 . S
C210 C211 1.396 . S
C211 H196 0.940 . S
C211 C206 1.391 . S
C211 C210 1.396 . S
C212 P192 1.803 . S
C212 C213 1.378 . S
C212 C217 1.400 . S
C213 H197 0.939 . S
C213 C212 1.378 . S
C213 C214 1.361 . S
C214 H198 0.942 . S
C214 C213 1.361 . S
C214 C215 1.369 . S
C215 C214 1.369 . S
C215 C216 1.404 . S
C216 H199 0.940 . S
C216 C215 1.404 . S
C216 C217 1.389 . S
C217 H200 0.939 . S
C217 C212 1.400 . S
C217 C216 1.389 . S
C218 P192 1.819 . S
C218 C219 1.391 . S
C218 C223 1.391 . S
C219 H201 0.941 . S
C219 C218 1.391 . S
C219 C220 1.396 . S
C220 H204 0.939 1_565 S
C220 C219 1.396 . S
C220 C221 1.397 . S
C221 C220 1.397 . S
C221 C222 1.385 . S
C222 H205 0.940 . S
C222 C221 1.385 . S
C222 C223 1.388 . S
C223 H202 0.939 . S
C223 C218 1.391 . S
C223 C222 1.388 . S
P224 O235 1.490 . S
P224 C238 1.812 . S
P224 C244 1.803 . S
P224 C250 1.819 . S
H225 C239 0.941 . S
H226 C240 0.939 . S
H227 C242 0.940 . S
H228 C243 0.940 . S
H229 C245 0.939 . S
H230 C246 0.942 . S
H231 C248 0.940 . S
H232 C249 0.939 . S
H233 C251 0.941 . S
H234 C255 0.939 . S
O235 P224 1.490 . S
H236 C252 0.939 . S
H237 C254 0.940 . S
C238 P224 1.812 . S
C238 C239 1.389 . S
C238 C243 1.391 . S
C239 H225 0.941 . S
C239 C238 1.389 . S
C239 C240 1.397 . S
C240 H226 0.939 . S
C240 C239 1.397 . S
C240 C241 1.378 . S
C241 C240 1.378 . S
C241 C242 1.378 . S
C242 H227 0.940 . S
C242 C241 1.378 . S
C242 C243 1.396 . S
C243 H228 0.940 . S
C243 C238 1.391 . S
C243 C242 1.396 . S
C244 P224 1.803 . S
C244 C245 1.378 . S
C244 C249 1.400 . S
C245 H229 0.939 . S
C245 C244 1.378 . S
C245 C246 1.361 . S
C246 H230 0.942 . S
C246 C245 1.361 . S
C246 C247 1.369 . S
C247 C246 1.369 . S
C247 C248 1.404 . S
C248 H231 0.940 . S
C248 C247 1.404 . S
C248 C249 1.389 . S
C249 H232 0.939 . S
C249 C244 1.400 . S
C249 C248 1.389 . S
C250 P224 1.819 . S
C250 C251 1.391 . S
C250 C255 1.391 . S
C251 H233 0.941 . S
C251 C250 1.391 . S
C251 C252 1.396 . S
C252 H236 0.939 . S
C252 C251 1.396 . S
C252 C253 1.397 . S
C253 C252 1.397 . S
C253 C254 1.385 . S
C254 H237 0.940 . S
C254 C253 1.385 . S
C254 C255 1.388 . S
C255 H234 0.939 . S
C255 C250 1.391 . S
C255 C254 1.388 . S
Eu256 N285 2.600 . S
Eu256 N291 2.562 . S
Eu256 O300 2.462 . S
Eu256 O301 2.373 . S
Eu256 O303 2.432 . S
Eu256 O304 2.291 . S
Eu256 O308 2.335 . S
Eu256 O311 2.372 . S
Eu256 C320 2.787 . S
C257 N258 1.365 . S
C257 C260 1.405 . S
C257 C264 1.448 . S
N258 C257 1.365 . S
N258 C261 1.319 . S
N258 Eu267 2.600 . S
C259 C261 1.397 . S
C259 C262 1.367 . S
C259 H279 0.931 . S
C260 C257 1.405 . S
C260 C262 1.403 . S
C260 C266 1.439 . S
C261 N258 1.319 . S
C261 C259 1.397 . S
C261 H272 0.930 . S
C262 C259 1.367 . S
C262 C260 1.403 . S
C262 H283 0.929 . S
C263 C264 1.430 . S
C263 C265 1.387 . S
C263 C269 1.404 . S
C264 C257 1.448 . S
C264 C263 1.430 . S
C264 N268 1.351 . S
C265 C263 1.387 . S
C265 C266 1.374 . S
C265 H280 0.931 . S
C266 C260 1.439 . S
C266 C265 1.374 . S
C266 H281 0.931 . S
Eu267 N258 2.600 . S
Eu267 N268 2.562 . S
Eu267 O302 2.335 1_655 S
Eu267 O305 2.372 . S
Eu267 O306 2.462 . S
Eu267 O307 2.373 . S
Eu267 O309 2.432 . S
Eu267 O310 2.291 1_655 S
Eu267 C331 2.787 . S
N268 C264 1.351 . S
N268 Eu267 2.562 . S
N268 C270 1.325 . S
C269 C263 1.404 . S
C269 C271 1.366 . S
C269 H277 0.930 1_545 S
C270 N268 1.325 . S
C270 C271 1.416 . S
C270 H276 0.929 . S
C271 C269 1.366 . S
C271 C270 1.416 . S
C271 H273 0.930 1_545 S
H272 C261 0.930 . S
H273 C271 0.930 1_565 S
H274 C289 0.930 . S
H275 C296 0.930 . S
H276 C270 0.929 . S
H277 C269 0.930 1_565 S
H278 C292 0.929 . S
H279 C259 0.931 . S
H280 C265 0.931 . S
H281 C266 0.931 . S
H282 C287 0.931 . S
H283 C262 0.929 . S
H284 C295 0.930 . S
N285 Eu256 2.600 . S
N285 C286 1.365 . S
N285 C289 1.319 . S
C286 N285 1.365 . S
C286 C288 1.405 . S
C286 C294 1.448 . S
C287 H282 0.931 . S
C287 C289 1.397 . S
C287 C290 1.367 . S
C288 C286 1.405 . S
C288 C290 1.403 . S
C288 C321 1.439 . S
C289 H274 0.930 . S
C289 N285 1.319 . S
C289 C287 1.397 . S
C290 C287 1.367 . S
C290 C288 1.403 . S
C290 H297 0.929 . S
N291 Eu256 2.562 . S
N291 C292 1.325 . S
N291 C294 1.351 . S
C292 H278 0.929 . S
C292 N291 1.325 . S
C292 C296 1.416 . S
C293 C294 1.430 . S
C293 C295 1.404 . S
C293 C322 1.387 . S
C294 C286 1.448 . S
C294 N291 1.351 . S
C294 C293 1.430 . S
C295 H284 0.930 . S
C295 C293 1.404 . S
C295 C296 1.366 . S
C296 H275 0.930 . S
C296 C292 1.416 . S
C296 C295 1.366 . S
H297 C290 0.929 . S
H298 C321 0.931 . S
H299 C322 0.931 . S
O300 Eu256 2.462 . S
O300 C320 1.252 . S
O301 Eu256 2.373 . S
O301 C312 1.249 . S
O302 Eu267 2.335 1_455 S
O302 C312 1.264 . S
O303 Eu256 2.432 . S
O303 C320 1.268 . S
O304 Eu256 2.291 . S
O304 C319 1.255 1_455 S
O305 Eu267 2.372 . S
O305 C319 1.257 . S
O306 Eu267 2.462 . S
O306 C331 1.252 . S
O307 Eu267 2.373 . S
O307 C323 1.249 . S
O308 Eu256 2.335 . S
O308 C323 1.264 1_455 S
O309 Eu267 2.432 . S
O309 C331 1.268 . S
O310 Eu267 2.291 1_455 S
O310 C330 1.255 . S
O311 Eu256 2.372 . S
O311 C330 1.257 . S
C312 O301 1.249 . S
C312 O302 1.264 . S
C313 C316 1.382 . S
C313 C318 1.390 . S
C313 C320 1.506 . S
C314 C315 1.398 . S
C314 C318 1.392 . S
C315 C314 1.398 . S
C315 C317 1.372 . S
C315 H332 0.931 . S
C316 C313 1.382 . S
C316 C317 1.390 . S
C316 H333 0.931 . S
C317 C315 1.372 . S
C317 C316 1.390 . S
C317 H334 0.929 . S
C318 C313 1.390 . S
C318 C314 1.392 . S
C318 H335 0.930 . S
C319 O304 1.255 1_655 S
C319 O305 1.257 . S
C320 Eu256 2.787 . S
C320 O300 1.252 . S
C320 O303 1.268 . S
C320 C313 1.506 . S
C321 C288 1.439 . S
C321 H298 0.931 . S
C321 C322 1.374 . S
C322 C293 1.387 . S
C322 H299 0.931 . S
C322 C321 1.374 . S
C323 O307 1.249 . S
C323 O308 1.264 1_655 S
C324 C327 1.382 . S
C324 C328 1.390 . S
C324 C331 1.506 . S
C325 C326 1.398 . S
C325 C328 1.392 . S
C326 C325 1.398 . S
C326 C329 1.372 . S
C326 H336 0.931 . S
C327 C324 1.382 . S
C327 C329 1.390 . S
C327 H337 0.931 . S
C328 C324 1.390 . S
C328 C325 1.392 . S
C328 H338 0.930 . S
C329 C326 1.372 . S
C329 C327 1.390 . S
C329 H339 0.929 . S
C330 O310 1.255 . S
C330 O311 1.257 . S
C331 Eu267 2.787 . S
C331 O306 1.252 . S
C331 O309 1.268 . S
C331 C324 1.506 . S
H332 C315 0.931 . S
H333 C316 0.931 . S
H334 C317 0.929 . S
H335 C318 0.930 . S
H336 C326 0.931 . S
H337 C327 0.931 . S
H338 C328 0.930 . S
H339 C329 0.929 . S
Eu340 N369 2.600 . S
Eu340 N375 2.562 . S
Eu340 O384 2.462 . S
Eu340 O385 2.373 . S
Eu340 O387 2.432 . S
Eu340 O388 2.291 . S
Eu340 O392 2.335 . S
Eu340 O395 2.372 . S
Eu340 C404 2.787 . S
C341 N342 1.365 . S
C341 C344 1.405 . S
C341 C348 1.448 . S
N342 C341 1.365 . S
N342 C345 1.319 . S
N342 Eu351 2.600 . S
C343 C345 1.397 . S
C343 C346 1.367 . S
C343 H363 0.931 . S
C344 C341 1.405 . S
C344 C346 1.403 . S
C344 C350 1.439 . S
C345 N342 1.319 . S
C345 C343 1.397 . S
C345 H356 0.930 . S
C346 C343 1.367 . S
C346 C344 1.403 . S
C346 H367 0.929 . S
C347 C348 1.430 . S
C347 C349 1.387 . S
C347 C353 1.404 . S
C348 C341 1.448 . S
C348 C347 1.430 . S
C348 N352 1.351 . S
C349 C347 1.387 . S
C349 C350 1.374 . S
C349 H364 0.931 . S
C350 C344 1.439 . S
C350 C349 1.374 . S
C350 H365 0.931 . S
Eu351 N342 2.600 . S
Eu351 N352 2.562 . S
Eu351 O386 2.335 . S
Eu351 O389 2.372 . S
Eu351 O390 2.462 . S
Eu351 O391 2.373 . S
Eu351 O393 2.432 . S
Eu351 O394 2.291 . S
Eu351 C415 2.787 . S
N352 C348 1.351 . S
N352 Eu351 2.562 . S
N352 C354 1.325 . S
C353 C347 1.404 . S
C353 C355 1.366 . S
C353 H361 0.930 . S
C354 N352 1.325 . S
C354 C355 1.416 . S
C354 H360 0.929 . S
C355 C353 1.366 . S
C355 C354 1.416 . S
C355 H357 0.930 . S
H356 C345 0.930 . S
H357 C355 0.930 . S
H358 C373 0.930 . S
H359 C380 0.930 . S
H360 C354 0.929 . S
H361 C353 0.930 . S
H362 C376 0.929 . S
H363 C343 0.931 . S
H364 C349 0.931 . S
H365 C350 0.931 . S
H366 C371 0.931 . S
H367 C346 0.929 . S
H368 C379 0.930 . S
N369 Eu340 2.600 . S
N369 C370 1.365 . S
N369 C373 1.319 . S
C370 N369 1.365 . S
C370 C372 1.405 . S
C370 C378 1.448 . S
C371 H366 0.931 . S
C371 C373 1.397 . S
C371 C374 1.367 . S
C372 C370 1.405 . S
C372 C374 1.403 . S
C372 C405 1.439 . S
C373 H358 0.930 . S
C373 N369 1.319 . S
C373 C371 1.397 . S
C374 C371 1.367 . S
C374 C372 1.403 . S
C374 H381 0.929 . S
N375 Eu340 2.562 . S
N375 C376 1.325 . S
N375 C378 1.351 . S
C376 H362 0.929 . S
C376 N375 1.325 . S
C376 C380 1.416 . S
C377 C378 1.430 . S
C377 C379 1.404 . S
C377 C406 1.387 . S
C378 C370 1.448 . S
C378 N375 1.351 . S
C378 C377 1.430 . S
C379 H368 0.930 . S
C379 C377 1.404 . S
C379 C380 1.366 . S
C380 H359 0.930 . S
C380 C376 1.416 . S
C380 C379 1.366 . S
H381 C374 0.929 . S
H382 C405 0.931 . S
H383 C406 0.931 . S
O384 Eu340 2.462 . S
O384 C404 1.252 . S
O385 Eu340 2.373 . S
O385 C396 1.249 . S
O386 Eu351 2.335 . S
O386 C396 1.264 . S
O387 Eu340 2.432 . S
O387 C404 1.268 . S
O388 Eu340 2.291 . S
O388 C403 1.255 . S
O389 Eu351 2.372 . S
O389 C403 1.257 . S
O390 Eu351 2.462 . S
O390 C415 1.252 . S
O391 Eu351 2.373 . S
O391 C407 1.249 . S
O392 Eu340 2.335 . S
O392 C407 1.264 . S
O393 Eu351 2.432 . S
O393 C415 1.268 . S
O394 Eu351 2.291 . S
O394 C414 1.255 . S
O395 Eu340 2.372 . S
O395 C414 1.257 . S
C396 O385 1.249 . S
C396 O386 1.264 . S
C397 C400 1.382 . S
C397 C402 1.390 . S
C397 C404 1.506 . S
C398 C399 1.398 . S
C398 C402 1.392 . S
C399 C398 1.398 . S
C399 C401 1.372 . S
C399 H416 0.931 . S
C400 C397 1.382 . S
C400 C401 1.390 . S
C400 H417 0.931 . S
C401 C399 1.372 . S
C401 C400 1.390 . S
C401 H418 0.929 . S
C402 C397 1.390 . S
C402 C398 1.392 . S
C402 H419 0.930 . S
C403 O388 1.255 . S
C403 O389 1.257 . S
C404 Eu340 2.787 . S
C404 O384 1.252 . S
C404 O387 1.268 . S
C404 C397 1.506 . S
C405 C372 1.439 . S
C405 H382 0.931 . S
C405 C406 1.374 . S
C406 C377 1.387 . S
C406 H383 0.931 . S
C406 C405 1.374 . S
C407 O391 1.249 . S
C407 O392 1.264 . S
C408 C411 1.382 . S
C408 C412 1.390 . S
C408 C415 1.506 . S
C409 C410 1.398 . S
C409 C412 1.392 . S
C410 C409 1.398 . S
C410 C413 1.372 . S
C410 H420 0.931 . S
C411 C408 1.382 . S
C411 C413 1.390 . S
C411 H421 0.931 . S
C412 C408 1.390 . S
C412 C409 1.392 . S
C412 H422 0.930 . S
C413 C410 1.372 . S
C413 C411 1.390 . S
C413 H423 0.929 . S
C414 O394 1.255 . S
C414 O395 1.257 . S
C415 Eu351 2.787 . S
C415 O390 1.252 . S
C415 O393 1.268 . S
C415 C408 1.506 . S
H416 C399 0.931 . S
H417 C400 0.931 . S
H418 C401 0.929 . S
H419 C402 0.930 . S
H420 C410 0.931 . S
H421 C411 0.931 . S
H422 C412 0.930 . S
H423 C413 0.929 . S
Eu424 N453 2.600 . S
Eu424 N459 2.562 . S
Eu424 O468 2.462 . S
Eu424 O469 2.373 . S
Eu424 O471 2.432 . S
Eu424 O472 2.291 . S
Eu424 O476 2.342 . S
Eu424 O479 2.372 . S
Eu424 C488 2.787 . S
C425 N426 1.365 . S
C425 C428 1.405 . S
C425 C432 1.448 . S
N426 C425 1.365 . S
N426 C429 1.319 . S
N426 Eu435 2.600 . S
C427 C429 1.397 . S
C427 C430 1.367 . S
C427 H447 0.931 . S
C428 C425 1.405 . S
C428 C430 1.403 . S
C428 C434 1.439 . S
C429 N426 1.319 . S
C429 C427 1.397 . S
C429 H440 0.930 . S
C430 C427 1.367 . S
C430 C428 1.403 . S
C430 H451 0.929 . S
C431 C432 1.430 . S
C431 C433 1.387 . S
C431 C437 1.404 . S
C432 C425 1.448 . S
C432 C431 1.430 . S
C432 N436 1.351 . S
C433 C431 1.387 . S
C433 C434 1.374 . S
C433 H448 0.931 . S
C434 C428 1.439 . S
C434 C433 1.374 . S
C434 H449 0.931 . S
Eu435 N426 2.600 . S
Eu435 N436 2.562 . S
Eu435 O470 2.335 1_655 S
Eu435 O473 2.372 . S
Eu435 O474 2.462 . S
Eu435 O475 2.373 . S
Eu435 O477 2.432 . S
Eu435 O478 2.291 1_655 S
Eu435 C499 2.787 . S
N436 C432 1.351 . S
N436 Eu435 2.562 . S
N436 C438 1.325 . S
C437 C431 1.404 . S
C437 C439 1.366 . S
C437 H445 0.930 . S
C438 N436 1.325 . S
C438 C439 1.416 . S
C438 H444 0.929 . S
C439 C437 1.366 . S
C439 C438 1.416 . S
C439 H441 0.930 . S
H440 C429 0.930 . S
H441 C439 0.930 . S
H442 C457 0.930 . S
H443 C464 0.930 1_545 S
H444 C438 0.929 . S
H445 C437 0.930 . S
H446 C460 0.929 . S
H447 C427 0.931 . S
H448 C433 0.931 . S
H449 C434 0.931 . S
H450 C455 0.931 . S
H451 C430 0.929 . S
H452 C463 0.930 1_545 S
N453 Eu424 2.600 . S
N453 C454 1.365 . S
N453 C457 1.319 . S
C454 N453 1.365 . S
C454 C456 1.405 . S
C454 C462 1.448 . S
C455 H450 0.931 . S
C455 C457 1.397 . S
C455 C458 1.367 . S
C456 C454 1.405 . S
C456 C458 1.403 . S
C456 C489 1.439 . S
C457 H442 0.930 . S
C457 N453 1.319 . S
C457 C455 1.397 . S
C458 C455 1.367 . S
C458 C456 1.403 . S
C458 H465 0.929 . S
N459 Eu424 2.562 . S
N459 C460 1.325 . S
N459 C462 1.351 . S
C460 H446 0.929 . S
C460 N459 1.325 . S
C460 C464 1.416 . S
C461 C462 1.430 . S
C461 C463 1.404 . S
C461 C490 1.387 . S
C462 C454 1.448 . S
C462 N459 1.351 . S
C462 C461 1.430 . S
C463 H452 0.930 1_565 S
C463 C461 1.404 . S
C463 C464 1.366 . S
C464 H443 0.930 1_565 S
C464 C460 1.416 . S
C464 C463 1.366 . S
H465 C458 0.929 . S
H466 C489 0.931 . S
H467 C490 0.931 . S
O468 Eu424 2.462 . S
O468 C488 1.252 . S
O469 Eu424 2.373 . S
O469 C480 1.249 . S
O470 Eu435 2.335 1_455 S
O470 C480 1.264 . S
O471 Eu424 2.432 . S
O471 C488 1.268 . S
O472 Eu424 2.291 . S
O472 C487 1.255 1_455 S
O473 Eu435 2.372 . S
O473 C487 1.257 . S
O474 Eu435 2.462 . S
O474 C499 1.252 . S
O475 Eu435 2.373 . S
O475 C491 1.249 . S
O476 Eu424 2.342 . S
O476 C491 1.255 1_455 S
O477 Eu435 2.432 . S
O477 C499 1.268 . S
O478 Eu435 2.291 1_455 S
O478 C498 1.255 . S
O479 Eu424 2.372 . S
O479 C498 1.257 . S
C480 O469 1.249 . S
C480 O470 1.264 . S
C481 C484 1.382 . S
C481 C486 1.390 . S
C481 C488 1.506 . S
C482 C483 1.398 . S
C482 C486 1.392 . S
C483 C482 1.398 . S
C483 C485 1.372 . S
C483 H500 0.931 . S
C484 C481 1.382 . S
C484 C485 1.390 . S
C484 H501 0.931 . S
C485 C483 1.372 . S
C485 C484 1.390 . S
C485 H502 0.929 . S
C486 C481 1.390 . S
C486 C482 1.392 . S
C486 H503 0.930 . S
C487 O472 1.255 1_655 S
C487 O473 1.257 . S
C488 Eu424 2.787 . S
C488 O468 1.252 . S
C488 O471 1.268 . S
C488 C481 1.506 . S
C489 C456 1.439 . S
C489 H466 0.931 . S
C489 C490 1.374 . S
C490 C461 1.387 . S
C490 H467 0.931 . S
C490 C489 1.374 . S
C491 O475 1.249 . S
C491 O476 1.255 1_655 S
C492 C495 1.382 . S
C492 C496 1.390 . S
C492 C499 1.506 . S
C493 C494 1.398 . S
C493 C496 1.392 . S
C494 C493 1.398 . S
C494 C497 1.372 . S
C494 H504 0.931 . S
C495 C492 1.382 . S
C495 C497 1.390 . S
C495 H505 0.931 . S
C496 C492 1.390 . S
C496 C493 1.392 . S
C496 H506 0.930 . S
C497 C494 1.372 . S
C497 C495 1.390 . S
C497 H507 0.929 . S
C498 O478 1.255 . S
C498 O479 1.257 . S
C499 Eu435 2.787 . S
C499 O474 1.252 . S
C499 O477 1.268 . S
C499 C492 1.506 . S
H500 C483 0.931 . S
H501 C484 0.931 . S
H502 C485 0.929 . S
H503 C486 0.930 . S
H504 C494 0.931 . S
H505 C495 0.931 . S
H506 C496 0.930 . S
H507 C497 0.929 . S
Eu508 N537 2.600 . S
Eu508 N543 2.562 . S
Eu508 O552 2.462 . S
Eu508 O553 2.373 . S
Eu508 O555 2.432 . S
Eu508 O556 2.291 . S
Eu508 O560 2.335 . S
Eu508 O563 2.372 . S
Eu508 C572 2.787 . S
C509 N510 1.365 . S
C509 C512 1.405 . S
C509 C516 1.448 . S
N510 C509 1.365 . S
N510 C513 1.319 . S
N510 Eu519 2.600 . S
C511 C513 1.397 . S
C511 C514 1.367 . S
C511 H531 0.931 . S
C512 C509 1.405 . S
C512 C514 1.403 . S
C512 C518 1.439 . S
C513 N510 1.319 . S
C513 C511 1.397 . S
C513 H524 0.930 . S
C514 C511 1.367 . S
C514 C512 1.403 . S
C514 H535 0.929 . S
C515 C516 1.430 . S
C515 C517 1.387 . S
C515 C521 1.404 . S
C516 C509 1.448 . S
C516 C515 1.430 . S
C516 N520 1.351 . S
C517 C515 1.387 . S
C517 C518 1.374 . S
C517 H532 0.931 . S
C518 C512 1.439 . S
C518 C517 1.374 . S
C518 H533 0.931 . S
Eu519 N510 2.600 . S
Eu519 N520 2.562 . S
Eu519 O554 2.335 . S
Eu519 O557 2.372 . S
Eu519 O558 2.462 . S
Eu519 O559 2.373 . S
Eu519 O561 2.432 . S
Eu519 O562 2.291 . S
Eu519 C583 2.787 . S
N520 C516 1.351 . S
N520 Eu519 2.562 . S
N520 C522 1.325 . S
C521 C515 1.404 . S
C521 C523 1.366 . S
C521 H529 0.930 . S
C522 N520 1.325 . S
C522 C523 1.416 . S
C522 H528 0.929 . S
C523 C521 1.366 . S
C523 C522 1.416 . S
C523 H525 0.930 . S
H524 C513 0.930 . S
H525 C523 0.930 . S
H526 C541 0.930 . S
H527 C548 0.930 . S
H528 C522 0.929 . S
H529 C521 0.930 . S
H530 C544 0.929 . S
H531 C511 0.931 . S
H532 C517 0.931 . S
H533 C518 0.931 . S
H534 C539 0.931 . S
H535 C514 0.929 . S
H536 C547 0.930 . S
N537 Eu508 2.600 . S
N537 C538 1.365 . S
N537 C541 1.319 . S
C538 N537 1.365 . S
C538 C540 1.405 . S
C538 C546 1.448 . S
C539 H534 0.931 . S
C539 C541 1.397 . S
C539 C542 1.367 . S
C540 C538 1.405 . S
C540 C542 1.403 . S
C540 C573 1.439 . S
C541 H526 0.930 . S
C541 N537 1.319 . S
C541 C539 1.397 . S
C542 C539 1.367 . S
C542 C540 1.403 . S
C542 H549 0.929 . S
N543 Eu508 2.562 . S
N543 C544 1.325 . S
N543 C546 1.351 . S
C544 H530 0.929 . S
C544 N543 1.325 . S
C544 C548 1.416 . S
C545 C546 1.430 . S
C545 C547 1.404 . S
C545 C574 1.387 . S
C546 C538 1.448 . S
C546 N543 1.351 . S
C546 C545 1.430 . S
C547 H536 0.930 . S
C547 C545 1.404 . S
C547 C548 1.366 . S
C548 H527 0.930 . S
C548 C544 1.416 . S
C548 C547 1.366 . S
H549 C542 0.929 . S
H550 C573 0.931 . S
H551 C574 0.931 . S
O552 Eu508 2.462 . S
O552 C572 1.252 . S
O553 Eu508 2.373 . S
O553 C564 1.249 . S
O554 Eu519 2.335 . S
O554 C564 1.264 . S
O555 Eu508 2.432 . S
O555 C572 1.268 . S
O556 Eu508 2.291 . S
O556 C571 1.255 . S
O557 Eu519 2.372 . S
O557 C571 1.257 . S
O558 Eu519 2.462 . S
O558 C583 1.252 . S
O559 Eu519 2.373 . S
O559 C575 1.249 . S
O560 Eu508 2.335 . S
O560 C575 1.264 . S
O561 Eu519 2.432 . S
O561 C583 1.268 . S
O562 Eu519 2.291 . S
O562 C582 1.255 . S
O563 Eu508 2.372 . S
O563 C582 1.257 . S
C564 O553 1.249 . S
C564 O554 1.264 . S
C565 C568 1.382 . S
C565 C570 1.390 . S
C565 C572 1.506 . S
C566 C567 1.398 . S
C566 C570 1.392 . S
C567 C566 1.398 . S
C567 C569 1.372 . S
C567 H584 0.931 . S
C568 C565 1.382 . S
C568 C569 1.390 . S
C568 H585 0.931 . S
C569 C567 1.372 . S
C569 C568 1.390 . S
C569 H586 0.929 . S
C570 C565 1.390 . S
C570 C566 1.392 . S
C570 H587 0.930 . S
C571 O556 1.255 . S
C571 O557 1.257 . S
C572 Eu508 2.787 . S
C572 O552 1.252 . S
C572 O555 1.268 . S
C572 C565 1.506 . S
C573 C540 1.439 . S
C573 H550 0.931 . S
C573 C574 1.374 . S
C574 C545 1.387 . S
C574 H551 0.931 . S
C574 C573 1.374 . S
C575 O559 1.249 . S
C575 O560 1.264 . S
C576 C579 1.382 . S
C576 C580 1.390 . S
C576 C583 1.506 . S
C577 C578 1.398 . S
C577 C580 1.392 . S
C578 C577 1.398 . S
C578 C581 1.372 . S
C578 H588 0.931 . S
C579 C576 1.382 . S
C579 C581 1.390 . S
C579 H589 0.931 . S
C580 C576 1.390 . S
C580 C577 1.392 . S
C580 H590 0.930 . S
C581 C578 1.372 . S
C581 C579 1.390 . S
C581 H591 0.929 . S
C582 O562 1.255 . S
C582 O563 1.257 . S
C583 Eu519 2.787 . S
C583 O558 1.252 . S
C583 O561 1.268 . S
C583 C576 1.506 . S
H584 C567 0.931 . S
H585 C568 0.931 . S
H586 C569 0.929 . S
H587 C570 0.930 . S
H588 C578 0.931 . S
H589 C579 0.931 . S
H590 C580 0.930 . S
H591 C581 0.929 . S
C592 C593 1.369 . S
C592 C594 1.419 . S
C592 H596 0.930 1_545 S
C593 C592 1.369 . S
C593 C602 1.428 . S
C594 C592 1.419 . S
C594 C595 1.363 . S
C594 H597 0.929 . S
C595 C594 1.363 . S
C595 C601 1.428 . S
H596 C592 0.930 1_565 S
H597 C594 0.929 . S
S598 N599 1.613 . S
S598 N600 1.610 . S
N599 S598 1.613 . S
N599 C602 1.350 . S
N600 S598 1.610 . S
N600 C601 1.351 . S
C601 C595 1.428 . S
C601 N600 1.351 . S
C601 C602 1.434 . S
C602 C593 1.428 . S
C602 N599 1.350 . S
C602 C601 1.434 . S
C603 C604 1.369 . S
C603 C605 1.419 . S
C603 H607 0.930 . S
C604 C603 1.369 . S
C604 C613 1.429 . S
C605 C603 1.419 . S
C605 C606 1.363 . S
C605 H608 0.929 . S
C606 C605 1.363 . S
C606 C612 1.428 . S
H607 C603 0.930 . S
H608 C605 0.929 . S
S609 N610 1.613 . S
S609 N611 1.610 . S
N610 S609 1.613 . S
N610 C613 1.350 . S
N611 S609 1.610 . S
N611 C612 1.351 . S
C612 C606 1.428 . S
C612 N611 1.351 . S
C612 C613 1.434 . S
C613 C604 1.429 . S
C613 N610 1.350 . S
C613 C612 1.434 . S
C614 C615 1.369 . S
C614 C616 1.419 . S
C614 H618 0.930 . S
C615 C614 1.369 . S
C615 C624 1.429 . S
C616 C614 1.419 . S
C616 C617 1.363 . S
C616 H619 0.929 . S
C617 C616 1.363 . S
C617 C623 1.428 . S
H618 C614 0.930 . S
H619 C616 0.929 . S
S620 N621 1.613 . S
S620 N622 1.610 . S
N621 S620 1.613 . S
N621 C624 1.350 . S
N622 S620 1.610 . S
N622 C623 1.351 . S
C623 C617 1.428 . S
C623 N622 1.351 . S
C623 C624 1.434 . S
C624 C615 1.429 . S
C624 N621 1.350 . S
C624 C623 1.434 . S
C625 C626 1.369 . S
C625 C627 1.419 . S
C625 H629 0.930 . S
C626 C625 1.369 . S
C626 C635 1.429 1_545 S
C627 C625 1.419 . S
C627 C628 1.363 . S
C627 H630 0.929 . S
C628 C627 1.363 . S
C628 C634 1.428 . S
H629 C625 0.930 . S
H630 C627 0.929 . S
S631 N632 1.613 1_455 S
S631 N633 1.610 1_565 S
N632 S631 1.613 1_655 S
N632 C635 1.350 . S
N633 S631 1.610 1_545 S
N633 C634 1.351 1_455 S
C634 C628 1.428 . S
C634 N633 1.351 1_655 S
C634 C635 1.434 1_545 S
C635 C626 1.429 1_565 S
C635 N632 1.350 . S
C635 C634 1.434 1_565 S
C636 C637 1.370 1_565 S
C636 C638 1.419 . S
C636 H640 0.930 1_565 S
C637 C636 1.370 1_545 S
C637 C646 1.430 1_545 S
C638 C636 1.419 . S
C638 C639 1.363 . S
C638 H641 0.929 . S
C639 C638 1.363 . S
C639 C645 1.428 . S
H640 C636 0.930 1_545 S
H641 C638 0.929 . S
S642 N643 1.613 1_455 S
S642 N644 1.611 . S
N643 S642 1.613 1_655 S
N643 C646 1.350 . S
N644 S642 1.611 . S
N644 C645 1.349 1_455 S
C645 C639 1.428 . S
C645 N644 1.349 1_655 S
C645 C646 1.434 . S
C646 C637 1.430 1_565 S
C646 N643 1.350 . S
C646 C645 1.434 . S
C647 C648 1.369 . S
C647 C649 1.419 . S
C647 H651 0.930 . S
C648 C647 1.369 . S
C648 C657 1.429 . S
C649 C647 1.419 . S
C649 C650 1.363 . S
C649 H652 0.929 . S
C650 C649 1.363 . S
C650 C656 1.428 . S
H651 C647 0.930 . S
H652 C649 0.929 . S
S653 N654 1.613 . S
S653 N655 1.610 . S
N654 S653 1.613 . S
N654 C657 1.350 . S
N655 S653 1.610 . S
N655 C656 1.351 . S
C656 C650 1.428 . S
C656 N655 1.351 . S
C656 C657 1.434 . S
C657 C648 1.429 . S
C657 N654 1.350 . S
C657 C656 1.434 . S
C658 C659 1.369 . S
C658 C660 1.419 . S
C658 H662 0.930 . S
C659 C658 1.369 . S
C659 C668 1.429 . S
C660 C658 1.419 . S
C660 C661 1.363 . S
C660 H663 0.929 . S
C661 C660 1.363 . S
C661 C667 1.428 . S
H662 C658 0.930 . S
H663 C660 0.929 . S
S664 N665 1.613 . S
S664 N666 1.610 . S
N665 S664 1.613 . S
N665 C668 1.350 . S
N666 S664 1.610 . S
N666 C667 1.351 . S
C667 C661 1.428 . S
C667 N666 1.351 . S
C667 C668 1.434 . S
C668 C659 1.429 . S
C668 N665 1.350 . S
C668 C667 1.434 . S
C669 C670 1.369 . S
C669 C671 1.419 . S
C669 H673 0.930 1_565 S
C670 C669 1.369 . S
C670 C679 1.429 . S
C671 C669 1.419 . S
C671 C672 1.363 . S
C671 H674 0.929 . S
C672 C671 1.363 . S
C672 C678 1.428 . S
H673 C669 0.930 1_545 S
H674 C671 0.929 . S
S675 N676 1.613 . S
S675 N677 1.610 . S
N676 S675 1.613 . S
N676 C679 1.350 . S
N677 S675 1.610 . S
N677 C678 1.351 . S
C678 C672 1.428 . S
C678 N677 1.351 . S
C678 C679 1.434 . S
C679 C670 1.429 . S
C679 N676 1.350 . S
C679 C678 1.434 . S
C680 C681 1.369 . S
C680 C682 1.419 . S
C680 H684 0.930 . S
C681 C680 1.369 . S
C681 C690 1.429 . S
C682 C680 1.419 . S
C682 C683 1.363 . S
C682 H685 0.929 . S
C683 C682 1.363 . S
C683 C689 1.428 . S
H684 C680 0.930 . S
H685 C682 0.929 . S
S686 N687 1.613 . S
S686 N688 1.610 . S
N687 S686 1.613 . S
N687 C690 1.350 . S
N688 S686 1.610 . S
N688 C689 1.351 . S
C689 C683 1.428 . S
C689 N688 1.351 . S
C689 C690 1.434 . S
C690 C681 1.429 . S
C690 N687 1.350 . S
C690 C689 1.434 . S
C691 C692 1.369 . S
C691 C693 1.419 . S
C691 H695 0.930 . S
C692 C691 1.369 . S
C692 C701 1.429 . S
C693 C691 1.419 . S
C693 C694 1.363 . S
C693 H696 0.929 . S
C694 C693 1.363 . S
C694 C700 1.428 . S
H695 C691 0.930 . S
H696 C693 0.929 . S
S697 N698 1.613 . S
S697 N699 1.610 . S
N698 S697 1.613 . S
N698 C701 1.350 . S
N699 S697 1.610 . S
N699 C700 1.351 . S
C700 C694 1.428 . S
C700 N699 1.351 . S
C700 C701 1.434 . S
C701 C692 1.429 . S
C701 N698 1.350 . S
C701 C700 1.434 . S
C702 C703 1.369 . S
C702 C704 1.419 . S
C702 H706 0.930 1_556 S
C703 C702 1.369 . S
C703 C712 1.429 . S
C704 C702 1.419 . S
C704 C705 1.363 . S
C704 H707 0.929 . S
C705 C704 1.363 . S
C705 C711 1.428 . S
H706 C702 0.930 1_554 S
H707 C704 0.929 . S
S708 N709 1.613 . S
S708 N710 1.610 . S
N709 S708 1.613 . S
N709 C712 1.350 . S
N710 S708 1.610 . S
N710 C711 1.351 . S
C711 C705 1.428 . S
C711 N710 1.351 . S
C711 C712 1.434 . S
C712 C703 1.429 . S
C712 N709 1.350 . S
C712 C711 1.434 . S
C713 C714 1.369 . S
C713 C715 1.419 . S
C713 H717 0.930 . S
C714 C713 1.369 . S
C714 C723 1.429 . S
C715 C713 1.419 . S
C715 C716 1.363 . S
C715 H718 0.929 . S
C716 C715 1.363 . S
C716 C722 1.428 . S
H717 C713 0.930 . S
H718 C715 0.929 . S
S719 N720 1.613 1_455 S
S719 N721 1.610 1_455 S
N720 S719 1.613 1_655 S
N720 C723 1.350 . S
N721 S719 1.610 1_655 S
N721 C722 1.351 . S
C722 C716 1.428 . S
C722 N721 1.351 . S
C722 C723 1.434 . S
C723 C714 1.429 . S
C723 N720 1.350 . S
C723 C722 1.434 . S
C724 C725 1.369 . S
C724 C726 1.419 . S
C724 H728 0.930 . S
C725 C724 1.369 . S
C725 C734 1.429 . S
C726 C724 1.419 . S
C726 C727 1.363 . S
C726 H729 0.929 . S
C727 C726 1.363 . S
C727 C733 1.428 . S
H728 C724 0.930 . S
H729 C726 0.929 . S
S730 N731 1.613 . S
S730 N732 1.610 . S
N731 S730 1.613 . S
N731 C734 1.350 . S
N732 S730 1.610 . S
N732 C733 1.351 . S
C733 C727 1.428 . S
C733 N732 1.351 . S
C733 C734 1.434 . S
C734 C725 1.429 . S
C734 N731 1.350 . S
C734 C733 1.434 . S
C735 C736 1.369 . S
C735 C737 1.419 . S
C735 H739 0.930 . S
C736 C735 1.369 . S
C736 C745 1.429 . S
C737 C735 1.419 . S
C737 C738 1.363 . S
C737 H740 0.929 . S
C738 C737 1.363 . S
C738 C744 1.428 . S
H739 C735 0.930 . S
H740 C737 0.929 . S
S741 N742 1.613 . S
S741 N743 1.610 . S
N742 S741 1.613 . S
N742 C745 1.350 . S
N743 S741 1.610 . S
N743 C744 1.351 . S
C744 C738 1.428 . S
C744 N743 1.351 . S
C744 C745 1.434 . S
C745 C736 1.429 . S
C745 N742 1.350 . S
C745 C744 1.434 . S
C746 C747 1.369 . S
C746 C748 1.419 . S
C746 H750 0.930 . S
C747 C746 1.369 . S
C747 C756 1.429 . S
C748 C746 1.419 . S
C748 C749 1.363 . S
C748 H751 0.929 . S
C749 C748 1.363 . S
C749 C755 1.428 . S
H750 C746 0.930 . S
H751 C748 0.929 . S
S752 N753 1.613 . S
S752 N754 1.610 . S
N753 S752 1.613 . S
N753 C756 1.350 . S
N754 S752 1.610 . S
N754 C755 1.351 . S
C755 C749 1.428 . S
C755 N754 1.351 . S
C755 C756 1.434 . S
C756 C747 1.429 . S
C756 N753 1.350 . S
C756 C755 1.434 . S
C757 C758 1.369 . S
C757 C759 1.419 . S
C757 H761 0.930 . S
C758 C757 1.369 . S
C758 C767 1.429 . S
C759 C757 1.419 . S
C759 C760 1.363 . S
C759 H762 0.929 . S
C760 C759 1.363 . S
C760 C766 1.428 . S
H761 C757 0.930 . S
H762 C759 0.929 . S
S763 N764 1.613 . S
S763 N765 1.610 . S
N764 S763 1.613 . S
N764 C767 1.350 . S
N765 S763 1.610 . S
N765 C766 1.351 . S
C766 C760 1.428 . S
C766 N765 1.351 . S
C766 C767 1.434 . S
C767 C758 1.429 . S
C767 N764 1.350 . S
C767 C766 1.434 . S
C768 C769 1.369 . S
C768 C770 1.419 . S
C768 H772 0.930 . S
C769 C768 1.369 . S
C769 C778 1.429 . S
C770 C768 1.419 . S
C770 C771 1.363 . S
C770 H773 0.929 . S
C771 C770 1.363 . S
C771 C777 1.428 . S
H772 C768 0.930 . S
H773 C770 0.929 . S
S774 N775 1.613 . S
S774 N776 1.610 . S
N775 S774 1.613 . S
N775 C778 1.350 . S
N776 S774 1.610 . S
N776 C777 1.351 . S
C777 C771 1.428 . S
C777 N776 1.351 . S
C777 C778 1.434 . S
C778 C769 1.429 . S
C778 N775 1.350 . S
C778 C777 1.434 . S
C779 C780 1.369 . S
C779 C781 1.419 . S
C779 H783 0.930 . S
C780 C779 1.369 . S
C780 C789 1.429 . S
C781 C779 1.419 . S
C781 C782 1.363 . S
C781 H784 0.929 . S
C782 C781 1.363 . S
C782 C788 1.428 . S
H783 C779 0.930 . S
H784 C781 0.929 . S
S785 N786 1.613 . S
S785 N787 1.610 . S
N786 S785 1.613 . S
N786 C789 1.350 . S
N787 S785 1.610 . S
N787 C788 1.351 . S
C788 C782 1.428 . S
C788 N787 1.351 . S
C788 C789 1.434 . S
C789 C780 1.429 . S
C789 N786 1.350 . S
C789 C788 1.434 . S
C790 C791 1.369 . S
C790 C792 1.419 . S
C790 H794 0.930 . S
C791 C790 1.369 . S
C791 C800 1.429 . S
C792 C790 1.419 . S
C792 C793 1.363 . S
C792 H795 0.929 . S
C793 C792 1.363 . S
C793 C799 1.428 . S
H794 C790 0.930 . S
H795 C792 0.929 . S
S796 N797 1.613 . S
S796 N798 1.610 . S
N797 S796 1.613 . S
N797 C800 1.350 . S
N798 S796 1.610 . S
N798 C799 1.351 . S
C799 C793 1.428 . S
C799 N798 1.351 . S
C799 C800 1.434 . S
C800 C791 1.429 . S
C800 N797 1.350 . S
C800 C799 1.434 . S
C801 C802 1.369 . S
C801 C803 1.419 . S
C801 H805 0.930 . S
C802 C801 1.369 . S
C802 C811 1.429 . S
C803 C801 1.419 . S
C803 C804 1.363 . S
C803 H806 0.929 1_655 S
C804 C803 1.363 . S
C804 C810 1.428 . S
H805 C801 0.930 . S
H806 C803 0.929 1_455 S
S807 N808 1.613 . S
S807 N809 1.610 . S
N808 S807 1.613 . S
N808 C811 1.350 . S
N809 S807 1.610 . S
N809 C810 1.351 . S
C810 C804 1.428 . S
C810 N809 1.351 . S
C810 C811 1.434 . S
C811 C802 1.429 . S
C811 N808 1.350 . S
C811 C810 1.434 . S
C812 C813 1.369 . S
C812 C814 1.419 . S
C812 H816 0.930 . S
C813 C812 1.369 . S
C813 C822 1.429 . S
C814 C812 1.419 . S
C814 C815 1.363 . S
C814 H817 0.929 . S
C815 C814 1.363 . S
C815 C821 1.428 . S
H816 C812 0.930 . S
H817 C814 0.929 . S
S818 N819 1.613 1_455 S
S818 N820 1.610 . S
N819 S818 1.613 1_655 S
N819 C822 1.350 . S
N820 S818 1.610 . S
N820 C821 1.351 1_455 S
C821 C815 1.428 . S
C821 N820 1.351 1_655 S
C821 C822 1.434 . S
C822 C813 1.429 . S
C822 N819 1.350 . S
C822 C821 1.434 . S
C823 C824 1.369 . S
C823 C825 1.419 . S
C823 H827 0.930 . S
C824 C823 1.369 . S
C824 C833 1.429 . S
C825 C823 1.419 . S
C825 C826 1.363 . S
C825 H828 0.929 . S
C826 C825 1.363 . S
C826 C832 1.428 . S
H827 C823 0.930 . S
H828 C825 0.929 . S
S829 N830 1.613 . S
S829 N831 1.610 . S
N830 S829 1.613 . S
N830 C833 1.350 . S
N831 S829 1.610 . S
N831 C832 1.351 . S
C832 C826 1.428 . S
C832 N831 1.351 . S
C832 C833 1.434 . S
C833 C824 1.429 . S
C833 N830 1.350 . S
C833 C832 1.434 . S
C834 C835 1.369 . S
C834 C836 1.419 . S
C834 H838 0.930 . S
C835 C834 1.369 . S
C835 C844 1.429 . S
C836 C834 1.419 . S
C836 C837 1.363 . S
C836 H839 0.929 . S
C837 C836 1.363 . S
C837 C843 1.428 . S
H838 C834 0.930 . S
H839 C836 0.929 . S
S840 N841 1.613 . S
S840 N842 1.610 . S
N841 S840 1.613 . S
N841 C844 1.350 . S
N842 S840 1.610 . S
N842 C843 1.351 . S
C843 C837 1.428 . S
C843 N842 1.351 . S
C843 C844 1.434 . S
C844 C835 1.429 . S
C844 N841 1.350 . S
C844 C843 1.434 . S
C845 C846 1.369 . S
C845 C847 1.419 . S
C845 H849 0.930 . S
C846 C845 1.369 . S
C846 C855 1.429 . S
C847 C845 1.419 . S
C847 C848 1.363 . S
C847 H850 0.929 . S
C848 C847 1.363 . S
C848 C854 1.428 . S
H849 C845 0.930 . S
H850 C847 0.929 . S
S851 N852 1.613 . S
S851 N853 1.610 . S
N852 S851 1.613 . S
N852 C855 1.350 . S
N853 S851 1.610 . S
N853 C854 1.351 . S
C854 C848 1.428 . S
C854 N853 1.351 . S
C854 C855 1.434 . S
C855 C846 1.429 . S
C855 N852 1.350 . S
C855 C854 1.434 . S
C593 C221 1.477 1_545 S
C595 C330 1.481 . S
C606 C414 1.487 . S
C604 C241 1.451 . S
C617 C407 1.487 . S
C615 C157 1.475 . S
C626 C177 1.435 1_545 S
C628 C323 1.492 . S
C639 C487 1.482 . S
C637 C93 1.442 . S
C650 C571 1.485 . S
C648 C113 1.493 . S
C659 C29 1.435 . S
C661 C564 1.485 . S
C670 C49 1.491 1_565 S
C672 C480 1.489 . S
C683 C314 1.323 . S
C681 C61 1.515 1_554 S
C694 C398 1.330 . S
C692 C17 1.462 . S
C705 C409 1.391 . S
C703 C125 1.522 1_556 S
C716 C325 1.397 . S
C714 C81 1.478 . S
C727 C493 1.321 . S
C725 C189 1.451 1_556 S
C736 C145 1.510 . S
C738 C577 1.330 . S
C749 C566 1.391 . S
C747 C253 1.473 1_554 S
C758 C209 1.520 . S
C760 C482 1.389 . S
C771 C312 1.549 . S
C769 C23 1.489 . S
C782 C396 1.562 . S
C780 C55 1.553 . S
C791 C87 1.490 . S
C793 C403 1.533 . S
C804 C319 1.546 . S
C802 C119 1.540 . S
C815 C491 1.550 . S
C813 C151 1.545 . S
C824 C183 1.492 . S
C826 C575 1.563 . S
C835 C215 1.539 . S
C837 C582 1.534 . S
C846 C247 1.484 . S
C848 C498 1.547 . S
