# Generated by pormake.
# Topology nom, (4,4)-cn, num edge types: 1
# Building blocks:
#     Node 0, Type 0, BuildingBlock: NAHDIM_clean_linker_0, # of connection points: 4
#     Node 1, Type 0, BuildingBlock: NAHDIM_clean_linker_0, # of connection points: 4
#     Node 2, Type 0, BuildingBlock: NAHDIM_clean_linker_0, # of connection points: 4
#     Node 3, Type 0, BuildingBlock: NAHDIM_clean_linker_0, # of connection points: 4
#     Node 4, Type 0, BuildingBlock: NAHDIM_clean_linker_0, # of connection points: 4
#     Node 5, Type 0, BuildingBlock: NAHDIM_clean_linker_0, # of connection points: 4
#     Node 6, Type 1, BuildingBlock: NAHDIM_clean_sbu_0, # of connection points: 4
#     Node 7, Type 1, BuildingBlock: NAHDIM_clean_sbu_0, # of connection points: 4
#     Node 8, Type 1, BuildingBlock: NAHDIM_clean_sbu_0, # of connection points: 4
#     Node 9, Type 1, BuildingBlock: NAHDIM_clean_sbu_0, # of connection points: 4
#     Node 10, Type 1, BuildingBlock: NAHDIM_clean_sbu_0, # of connection points: 4
#     Node 11, Type 1, BuildingBlock: NAHDIM_clean_sbu_0, # of connection points: 4
#     Edge 12, Type (0, 1), BuildingBlock: OJICUG_clean_linker_0, # of connection points: 2
#     Edge 13, Type (0, 1), BuildingBlock: OJICUG_clean_linker_0, # of connection points: 2
#     Edge 14, Type (0, 1), BuildingBlock: OJICUG_clean_linker_0, # of connection points: 2
#     Edge 15, Type (0, 1), BuildingBlock: OJICUG_clean_linker_0, # of connection points: 2
#     Edge 16, Type (0, 1), BuildingBlock: OJICUG_clean_linker_0, # of connection points: 2
#     Edge 17, Type (0, 1), BuildingBlock: OJICUG_clean_linker_0, # of connection points: 2
#     Edge 18, Type (0, 1), BuildingBlock: OJICUG_clean_linker_0, # of connection points: 2
#     Edge 19, Type (0, 1), BuildingBlock: OJICUG_clean_linker_0, # of connection points: 2
#     Edge 20, Type (0, 1), BuildingBlock: OJICUG_clean_linker_0, # of connection points: 2
#     Edge 21, Type (0, 1), BuildingBlock: OJICUG_clean_linker_0, # of connection points: 2
#     Edge 22, Type (0, 1), BuildingBlock: OJICUG_clean_linker_0, # of connection points: 2
#     Edge 23, Type (0, 1), BuildingBlock: OJICUG_clean_linker_0, # of connection points: 2
#     Edge 24, Type (0, 1), BuildingBlock: OJICUG_clean_linker_0, # of connection points: 2
#     Edge 25, Type (0, 1), BuildingBlock: OJICUG_clean_linker_0, # of connection points: 2
#     Edge 26, Type (0, 1), BuildingBlock: OJICUG_clean_linker_0, # of connection points: 2
#     Edge 27, Type (0, 1), BuildingBlock: OJICUG_clean_linker_0, # of connection points: 2
#     Edge 28, Type (0, 1), BuildingBlock: OJICUG_clean_linker_0, # of connection points: 2
#     Edge 29, Type (0, 1), BuildingBlock: OJICUG_clean_linker_0, # of connection points: 2
#     Edge 30, Type (0, 1), BuildingBlock: OJICUG_clean_linker_0, # of connection points: 2
#     Edge 31, Type (0, 1), BuildingBlock: OJICUG_clean_linker_0, # of connection points: 2
#     Edge 32, Type (0, 1), BuildingBlock: OJICUG_clean_linker_0, # of connection points: 2
#     Edge 33, Type (0, 1), BuildingBlock: OJICUG_clean_linker_0, # of connection points: 2
#     Edge 34, Type (0, 1), BuildingBlock: OJICUG_clean_linker_0, # of connection points: 2
#     Edge 35, Type (0, 1), BuildingBlock: OJICUG_clean_linker_0, # of connection points: 2
# Relax obj value: 0.065
# Max RMSD: 0.131
# Mean RMSD: 0.124
data_MOF--net-nom--node1-NAHDIM_clean_sbu_0--node2-NAHDIM_clean_linker_0--edge1-OJICUG_clean_linker_0
_symmetry_space_group_name_H-M    P1
_symmetry_Int_Tables_number       1
_symmetry_cell_setting            triclinic
loop_
_symmetry_equiv_pos_as_xyz
'x, y, z'
_cell_length_a     45.799616
_cell_length_b     47.366312
_cell_length_c     56.283959
_cell_angle_alpha  90.092495
_cell_angle_beta   90.785783
_cell_angle_gamma 121.08691
loop_
_atom_site_label
_atom_site_type_symbol
_atom_site_fract_x
_atom_site_fract_y
_atom_site_fract_z
_atom_type_partial_charge
C0 C 0.18111 0.65614 0.19692 0.0
C1 C 0.19401 0.64337 0.21695 0.0
C2 C 0.15057 0.61774 0.24714 0.0
C3 C 0.14679 0.58649 0.24898 0.0
C4 C 0.11677 0.55978 0.25795 0.0
C5 C 0.0901 0.56455 0.26509 0.0
C6 C 0.09435 0.59632 0.26385 0.0
C7 C 0.12488 0.62266 0.25525 0.0
C8 C 0.11341 0.52645 0.25966 0.0
C9 C 0.06638 0.60234 0.27106 0.0
C10 C 0.9541 0.4107 0.14366 0.0
C11 C 0.93975 0.4292 0.15665 0.0
C12 C 0.94381 0.43299 0.19956 0.0
C13 C 0.94783 0.46401 0.20357 0.0
C14 C 0.96486 0.48243 0.22407 0.0
C15 C 0.97868 0.46972 0.24059 0.0
C16 C 0.97367 0.43789 0.23685 0.0
C17 C 0.95558 0.41963 0.21655 0.0
C18 C 0.96884 0.51582 0.2277 0.0
C19 C 0.9886 0.42368 0.2537 0.0
C20 C 0.85441 0.40473 0.37113 0.0
C21 C 0.86536 0.43737 0.36495 0.0
C22 C 0.89995 0.46014 0.3611 0.0
C23 C 0.92393 0.44989 0.3633 0.0
C24 C 0.91314 0.41744 0.37067 0.0
C25 C 0.87843 0.39534 0.37478 0.0
C26 C 0.91078 0.4949 0.3541 0.0
C27 C 0.93809 0.40582 0.37339 0.0
C28 C 0.17609 0.62229 0.4271 0.0
C29 C 0.15317 0.58818 0.43776 0.0
C30 C 0.09454 0.5641 0.42337 0.0
C31 C 0.07366 0.57605 0.41611 0.0
C32 C 0.04796 0.55927 0.39875 0.0
C33 C 0.04279 0.52953 0.38884 0.0
C34 C 0.06259 0.51636 0.39714 0.0
C35 C 0.08824 0.53377 0.41438 0.0
C36 C 0.02697 0.57371 0.3905 0.0
C37 C 0.05699 0.48416 0.38748 0.0
C38 C 0.05705 0.53615 0.27269 0.0
C39 C 0.03395 0.516 0.25497 0.0
C40 C 0.00098 0.49083 0.2605 0.0
C41 C 0.99034 0.48611 0.28438 0.0
C42 C 0.95669 0.46268 0.29047 0.0
C43 C 0.94659 0.4582 0.31406 0.0
C44 C 0.96984 0.47682 0.33247 0.0
C45 C 0.95984 0.47254 0.35651 0.0
C46 C 0.98397 0.49028 0.37445 0.0
C47 C 0.01791 0.51293 0.36899 0.0
C48 C 0.028 0.51883 0.345 0.0
C49 C 0.06154 0.54268 0.33883 0.0
C50 C 0.07112 0.54848 0.31516 0.0
C51 C 0.04771 0.53024 0.29679 0.0
C52 C 0.01402 0.50552 0.30262 0.0
C53 C 0.00395 0.50038 0.32671 0.0
C54 C 0.7729 0.34441 0.34969 0.0
C55 C 0.79463 0.37958 0.35948 0.0
O56 O 0.17893 0.64376 0.23803 0.0
O57 O 0.1202 0.58212 0.43925 0.0
O58 O 0.8209 0.38166 0.37339 0.0
O59 O 0.92955 0.41597 0.17909 0.0
H60 H 0.18703 0.61782 0.21208 0.0
H61 H 0.18732 0.68167 0.20089 0.0
H62 H 0.153 0.64001 0.1949 0.0
H63 H 0.19287 0.65593 0.17983 0.0
H64 H 0.16736 0.58302 0.24363 0.0
H65 H 0.12841 0.64707 0.25407 0.0
H66 H 0.09387 0.50926 0.24659 0.0
H67 H 0.13781 0.52763 0.25605 0.0
H68 H 0.10471 0.51606 0.27763 0.0
H69 H 0.07266 0.62784 0.26712 0.0
H70 H 0.04216 0.58469 0.26167 0.0
H71 H 0.06202 0.59819 0.29042 0.0
H72 H 0.96089 0.45547 0.15797 0.0
H73 H 0.96242 0.42091 0.12559 0.0
H74 H 0.97654 0.41352 0.15367 0.0
H75 H 0.93468 0.38399 0.14209 0.0
H76 H 0.93792 0.47388 0.19053 0.0
H77 H 0.95203 0.39549 0.21326 0.0
H78 H 0.99544 0.53532 0.22377 0.0
H79 H 0.95138 0.51937 0.21589 0.0
H80 H 0.96386 0.51911 0.24646 0.0
H81 H 0.98571 0.40037 0.24679 0.0
H82 H 0.01612 0.44169 0.25698 0.0
H83 H 0.97561 0.41854 0.27102 0.0
H84 H 0.80494 0.39591 0.34374 0.0
H85 H 0.84687 0.445 0.36301 0.0
H86 H 0.86968 0.3702 0.37993 0.0
H87 H 0.91891 0.49884 0.3353 0.0
H88 H 0.88985 0.50007 0.35596 0.0
H89 H 0.93293 0.51288 0.3652 0.0
H90 H 0.92547 0.37956 0.3787 0.0
H91 H 0.95135 0.4089 0.35636 0.0
H92 H 0.95778 0.42116 0.38702 0.0
H93 H 0.1542 0.57006 0.42574 0.0
H94 H 0.20271 0.62772 0.42589 0.0
H95 H 0.16679 0.62302 0.40891 0.0
H96 H 0.17591 0.6417 0.43811 0.0
H97 H 0.07831 0.59917 0.42354 0.0
H98 H 0.10322 0.52359 0.42088 0.0
H99 H 0.03065 0.57892 0.37119 0.0
H100 H -0.00051 0.55558 0.39313 0.0
H101 H 0.03389 0.59688 0.40016 0.0
H102 H 0.07285 0.47609 0.39695 0.0
H103 H 0.02972 0.4646 0.38896 0.0
H104 H 0.06336 0.48685 0.36834 0.0
H105 H 0.04167 0.5202 0.23655 0.0
H106 H 0.93774 0.4477 0.27704 0.0
H107 H 0.92034 0.43979 0.31768 0.0
H108 H 0.97626 0.48635 0.39287 0.0
H109 H 0.08069 0.55741 0.35222 0.0
H110 H 0.0972 0.56727 0.31142 0.0
H111 H 0.75172 0.3421 0.33832 0.0
H112 H 0.78885 0.33825 0.3387 0.0
H113 H 0.76204 0.32639 0.36439 0.0
C114 C 0.36387 0.84258 0.59933 0.0
C115 C 0.37064 0.82575 0.57868 0.0
C116 C 0.39972 0.87125 0.55099 0.0
C117 C 0.43352 0.87872 0.55351 0.0
C118 C 0.4608 0.90963 0.54684 0.0
C119 C 0.45405 0.93355 0.53772 0.0
C120 C 0.4199 0.92579 0.53479 0.0
C121 C 0.39317 0.89442 0.54103 0.0
C122 C 0.49683 0.9168 0.54963 0.0
C123 C 0.41155 0.95076 0.52553 0.0
C124 C 0.57783 0.14478 0.65899 0.0
C125 C 0.55792 0.12301 0.63858 0.0
C126 C 0.55945 0.08573 0.60934 0.0
C127 C 0.53169 0.08219 0.59575 0.0
C128 C 0.51978 0.06169 0.57555 0.0
C129 C 0.53609 0.04458 0.56862 0.0
C130 C 0.56421 0.04829 0.58204 0.0
C131 C 0.57552 0.06886 0.60228 0.0
C132 C 0.48956 0.05812 0.5617 0.0
C133 C 0.58219 0.03045 0.57501 0.0
C134 C 0.62079 0.17349 0.44435 0.0
C135 C 0.58672 0.16055 0.4507 0.0
C136 C 0.56441 0.12641 0.45248 0.0
C137 C 0.57677 0.10491 0.44845 0.0
C138 C 0.61072 0.11788 0.441 0.0
C139 C 0.63217 0.1521 0.43867 0.0
C140 C 0.52789 0.11345 0.45929 0.0
C141 C 0.62467 0.09571 0.43629 0.0
C142 C 0.41025 0.86742 0.38244 0.0
C143 C 0.44177 0.88723 0.36713 0.0
C144 C 0.46696 0.94364 0.38138 0.0
C145 C 0.45358 0.96258 0.38922 0.0
C146 C 0.47007 0.98634 0.4073 0.0
C147 C 0.50101 0.99156 0.41729 0.0
C148 C 0.51576 0.97391 0.40832 0.0
C149 C 0.49853 0.95007 0.39043 0.0
C150 C 0.4539 0.00505 0.41628 0.0
C151 C 0.5493 0.97971 0.41807 0.0
C152 C 0.48259 0.96721 0.53232 0.0
C153 C 0.49826 0.98919 0.55137 0.0
C154 C 0.523 0.02219 0.54762 0.0
C155 C 0.53252 0.0338 0.52422 0.0
C156 C 0.55693 0.06698 0.5198 0.0
C157 C 0.56475 0.07853 0.49668 0.0
C158 C 0.54844 0.05736 0.47707 0.0
C159 C 0.55481 0.06923 0.45351 0.0
C160 C 0.5391 0.0473 0.43442 0.0
C161 C 0.51671 0.01369 0.43823 0.0
C162 C 0.50909 0.00154 0.46167 0.0
C163 C 0.4858 0.96802 0.46613 0.0
C164 C 0.47754 0.95657 0.48926 0.0
C165 C 0.49222 0.97818 0.5088 0.0
C166 C 0.5168 0.01176 0.50474 0.0
C167 C 0.52496 0.02352 0.48114 0.0
C168 C 0.68106 0.25395 0.46689 0.0
C169 C 0.64402 0.22912 0.45984 0.0
O170 O 0.3728 0.84188 0.55766 0.0
O171 O 0.4489 0.91936 0.36512 0.0
O172 O 0.64338 0.20643 0.44394 0.0
O173 O 0.57129 0.10501 0.62925 0.0
H174 H 0.39492 0.82651 0.58245 0.0
H175 H 0.38528 0.86848 0.60133 0.0
H176 H 0.33991 0.84263 0.59607 0.0
H177 H 0.36176 0.8296 0.61623 0.0
H178 H 0.43874 0.86039 0.56031 0.0
H179 H 0.36693 0.88816 0.53889 0.0
H180 H 0.51016 0.9354 0.56401 0.0
H181 H 0.49766 0.89439 0.55413 0.0
H182 H 0.51105 0.92735 0.53298 0.0
H183 H 0.38412 0.94232 0.52738 0.0
H184 H 0.42698 0.97463 0.53514 0.0
H185 H 0.41794 0.95521 0.50643 0.0
H186 H 0.52987 0.10774 0.64141 0.0
H187 H 0.56026 0.13467 0.67456 0.0
H188 H 0.59526 0.13611 0.66552 0.0
H189 H 0.596 0.19238 0.64594 0.0
H190 H 0.51905 0.09521 0.60081 0.0
H191 H 0.59695 0.07178 0.61276 0.0
H192 H 0.49714 0.06661 0.54321 0.0
H193 H 0.46899 0.03176 0.56077 0.0
H194 H 0.47918 0.0725 0.56974 0.0
H195 H 0.60447 0.03687 0.5868 0.0
H196 H 0.56407 0.00342 0.57569 0.0
H197 H 0.59099 0.03658 0.55642 0.0
H198 H 0.63085 0.21651 0.47649 0.0
H199 H 0.57757 0.17709 0.45436 0.0
H200 H 0.65842 0.16242 0.43343 0.0
H201 H 0.52447 0.10582 0.47817 0.0
H202 H 0.52065 0.13239 0.45718 0.0
H203 H 0.51022 0.09149 0.44831 0.0
H204 H 0.65221 0.10985 0.43202 0.0
H205 H 0.62101 0.08023 0.45207 0.0
H206 H 0.61044 0.07886 0.42116 0.0
H207 H 0.46337 0.88673 0.37596 0.0
H208 H 0.404 0.8415 0.38395 0.0
H209 H 0.4153 0.87835 0.4006 0.0
H210 H 0.38794 0.86762 0.37463 0.0
H211 H 0.42948 0.95779 0.38176 0.0
H212 H 0.50974 0.93651 0.38354 0.0
H213 H 0.44779 -0.00042 0.43537 0.0
H214 H 0.47215 0.03197 0.41484 0.0
H215 H 0.43014 0.99862 0.40629 0.0
H216 H 0.55875 0.966 0.40788 0.0
H217 H 0.56882 0.00643 0.41775 0.0
H218 H 0.5462 0.97176 0.43688 0.0
H219 H 0.49029 0.98076 0.56935 0.0
H220 H 0.56997 0.08447 0.53419 0.0
H221 H 0.58357 0.10437 0.49438 0.0
H222 H 0.54412 0.05653 0.41639 0.0
H223 H 0.47332 0.9503 0.4518 0.0
H224 H 0.45923 0.9306 0.49163 0.0
H225 H 0.69609 0.26719 0.45104 0.0
H226 H 0.68227 0.27222 0.47989 0.0
H227 H 0.69282 0.24089 0.47528 0.0
C228 C 0.548 0.38886 0.75203 0.0
C229 C 0.56984 0.38872 0.7317 0.0
C230 C 0.55424 0.415 0.70101 0.0
C231 C 0.58276 0.44713 0.70166 0.0
C232 C 0.5803 0.47379 0.69341 0.0
C233 C 0.54855 0.46817 0.68474 0.0
C234 C 0.52007 0.43557 0.68338 0.0
C235 C 0.52358 0.40933 0.69109 0.0
C236 C 0.61146 0.50803 0.69446 0.0
C237 C 0.48554 0.42847 0.67472 0.0
C238 C 0.55856 0.60025 0.82145 0.0
C239 C 0.52979 0.58648 0.80275 0.0
C240 C 0.53842 0.58844 0.76005 0.0
C241 C 0.50874 0.5586 0.75375 0.0
C242 C 0.50642 0.54277 0.73211 0.0
C243 C 0.53439 0.55705 0.71657 0.0
C244 C 0.5637 0.58788 0.72243 0.0
C245 C 0.56507 0.60342 0.74401 0.0
C246 C 0.47444 0.51039 0.72612 0.0
C247 C 0.5941 0.60378 0.70636 0.0
C248 C 0.46384 0.6265 0.59393 0.0
C249 C 0.44246 0.59305 0.59934 0.0
C250 C 0.45557 0.57214 0.60125 0.0
C251 C 0.4908 0.58507 0.59783 0.0
C252 C 0.51206 0.61841 0.59129 0.0
C253 C 0.49812 0.63863 0.58913 0.0
C254 C 0.43192 0.5364 0.60743 0.0
C255 C 0.54963 0.63288 0.58726 0.0
C256 C 0.50267 0.44695 0.4764 0.0
C257 C 0.53139 0.44805 0.49152 0.0
C258 C 0.54304 0.48893 0.52304 0.0
C259 C 0.5122 0.47007 0.53514 0.0
C260 C 0.50538 0.4825 0.55563 0.0
C261 C 0.53012 0.51407 0.56446 0.0
C262 C 0.56131 0.5329 0.55251 0.0
C263 C 0.56721 0.52012 0.53187 0.0
C264 C 0.47166 0.46197 0.56779 0.0
C265 C 0.58834 0.56661 0.5615 0.0
C266 C 0.54415 0.49643 0.67934 0.0
C267 C 0.54182 0.51379 0.69858 0.0
C268 C 0.53427 0.53856 0.69523 0.0
C269 C 0.5274 0.54541 0.6721 0.0
C270 C 0.51705 0.56828 0.66824 0.0
C271 C 0.50986 0.57444 0.64539 0.0
C272 C 0.51327 0.55833 0.62553 0.0
C273 C 0.50556 0.56406 0.60227 0.0
C274 C 0.51097 0.54902 0.58284 0.0
C275 C 0.52335 0.52775 0.586 0.0
C276 C 0.5295 0.52034 0.6092 0.0
C277 C 0.54049 0.49791 0.61311 0.0
C278 C 0.54531 0.48998 0.63607 0.0
C279 C 0.54019 0.50485 0.65593 0.0
C280 C 0.53082 0.52877 0.65236 0.0
C281 C 0.52457 0.53585 0.62901 0.0
C282 C 0.44182 0.68065 0.61989 0.0
C283 C 0.428 0.64658 0.60857 0.0
O284 O 0.55532 0.38898 0.70998 0.0
O285 O 0.55054 0.47842 0.50277 0.0
O286 O 0.4523 0.64774 0.59354 0.0
O287 O 0.54242 0.60303 0.7816 0.0
H288 H 0.59581 0.41091 0.73356 0.0
H289 H 0.5469 0.41173 0.75153 0.0
H290 H 0.5216 0.36726 0.75047 0.0
H291 H 0.55925 0.38811 0.76947 0.0
H292 H 0.60697 0.4515 0.70846 0.0
H293 H 0.5019 0.38432 0.69044 0.0
H294 H 0.60905 0.52204 0.70936 0.0
H295 H 0.63525 0.50756 0.69732 0.0
H296 H 0.61362 0.52145 0.67779 0.0
H297 H 0.46525 0.40237 0.67748 0.0
H298 H 0.47839 0.44465 0.68407 0.0
H299 H 0.48654 0.43374 0.65545 0.0
H300 H 0.52133 0.55991 0.80063 0.0
H301 H 0.54884 0.58767 0.8387 0.0
H302 H 0.57902 0.59593 0.81561 0.0
H303 H 0.56984 0.6272 0.82405 0.0
H304 H 0.48751 0.54753 0.7658 0.0
H305 H 0.58764 0.62668 0.74894 0.0
H306 H 0.47992 0.49018 0.72733 0.0
H307 H 0.45334 0.50489 0.73836 0.0
H308 H 0.4659 0.51065 0.7076 0.0
H309 H 0.61548 0.62712 0.71398 0.0
H310 H 0.6033 0.58655 0.70308 0.0
H311 H 0.58652 0.60916 0.68892 0.0
H312 H 0.4233 0.62949 0.62359 0.0
H313 H 0.41557 0.5833 0.60217 0.0
H314 H 0.51424 0.66439 0.58459 0.0
H315 H 0.43794 0.53195 0.62571 0.0
H316 H 0.40469 0.52926 0.6066 0.0
H317 H 0.43569 0.52022 0.59515 0.0
H318 H 0.56301 0.65968 0.58344 0.0
H319 H 0.56172 0.62902 0.60317 0.0
H320 H 0.55312 0.62001 0.57206 0.0
H321 H 0.52004 0.42821 0.50501 0.0
H322 H 0.48785 0.4228 0.46702 0.0
H323 H 0.48488 0.45009 0.4877 0.0
H324 H 0.51321 0.46694 0.46304 0.0
H325 H 0.49315 0.44581 0.52868 0.0
H326 H 0.5909 0.53449 0.52246 0.0
H327 H 0.47608 0.45542 0.58586 0.0
H328 H 0.45898 0.47645 0.56986 0.0
H329 H 0.45418 0.43887 0.55782 0.0
H330 H 0.6122 0.57706 0.55121 0.0
H331 H 0.57856 0.58368 0.56028 0.0
H332 H 0.59438 0.56531 0.5805 0.0
H333 H 0.54567 0.50774 0.7165 0.0
H334 H 0.51398 0.58134 0.68287 0.0
H335 H 0.50174 0.59212 0.6435 0.0
H336 H 0.50549 0.55394 0.56502 0.0
H337 H 0.54493 0.48581 0.59848 0.0
H338 H 0.55327 0.47219 0.63811 0.0
H339 H 0.42269 0.68036 0.63197 0.0
H340 H 0.46531 0.68763 0.63045 0.0
H341 H 0.44824 0.69962 0.60607 0.0
C342 C 0.19561 0.46935 0.92449 0.0
C343 C 0.19678 0.49726 0.91012 0.0
C344 C 0.15374 0.48774 0.8801 0.0
C345 C 0.15338 0.51701 0.88285 0.0
C346 C 0.12516 0.51887 0.87504 0.0
C347 C 0.09666 0.49074 0.86458 0.0
C348 C 0.09751 0.46149 0.86123 0.0
C349 C 0.12647 0.46073 0.86857 0.0
C350 C 0.12553 0.55066 0.87838 0.0
C351 C 0.06755 0.43063 0.85057 0.0
C352 C 0.89026 0.40921 0.98617 0.0
C353 C 0.91223 0.41315 0.96572 0.0
C354 C 0.94773 0.45277 0.9358 0.0
C355 C 0.94941 0.42921 0.92156 0.0
C356 C 0.96942 0.43855 0.9012 0.0
C357 C 0.98845 0.4722 0.89493 0.0
C358 C 0.98655 0.49598 0.90896 0.0
C359 C 0.96601 0.48589 0.92919 0.0
C360 C 0.97071 0.41242 0.88663 0.0
C361 C 0.00652 0.53201 0.90267 0.0
C362 C 0.85826 0.44819 0.7696 0.0
C363 C 0.8656 0.42363 0.77527 0.0
C364 C 0.89943 0.43129 0.77786 0.0
C365 C 0.92638 0.46428 0.77501 0.0
C366 C 0.91905 0.48875 0.76825 0.0
C367 C 0.88496 0.48023 0.76534 0.0
C368 C 0.9063 0.40426 0.78416 0.0
C369 C 0.94717 0.52405 0.76482 0.0
C370 C 0.14842 0.47525 0.69678 0.0
C371 C 0.13165 0.49573 0.69311 0.0
C372 C 0.07549 0.47717 0.70888 0.0
C373 C 0.04898 0.44815 0.71836 0.0
C374 C 0.02847 0.44912 0.73623 0.0
C375 C 0.0342 0.47996 0.74424 0.0
C376 C 0.05946 0.50933 0.73346 0.0
C377 C 0.08003 0.50765 0.71593 0.0
C378 C 0.0014 0.41725 0.74706 0.0
C379 C 0.06532 0.54247 0.74097 0.0
C380 C 0.06489 0.49085 0.85906 0.0
C381 C 0.0438 0.4869 0.87805 0.0
C382 C 0.01137 0.48219 0.87426 0.0
C383 C -0.00026 0.48221 0.85088 0.0
C384 C 0.9672 0.47741 0.84644 0.0
C385 C 0.95515 0.47541 0.8233 0.0
C386 C 0.97499 0.47764 0.80371 0.0
C387 C 0.96207 0.47332 0.78015 0.0
C388 C 0.98234 0.47539 0.76112 0.0
C389 C 0.0153 0.48141 0.76494 0.0
C390 C 0.02875 0.48594 0.78836 0.0
C391 C 0.0618 0.49191 0.79285 0.0
C392 C 0.07415 0.49467 0.81599 0.0
C393 C 0.05369 0.49088 0.83552 0.0
C394 C 0.02082 0.48612 0.83142 0.0
C395 C 0.00835 0.48367 0.80781 0.0
C396 C 0.77999 0.43549 0.79181 0.0
C397 C 0.79939 0.41951 0.78256 0.0
O398 O 0.17979 0.48463 0.8886 0.0
O399 O 0.09653 0.47502 0.69324 0.0
O400 O 0.82581 0.44188 0.76847 0.0
O401 O 0.92902 0.44442 0.95595 0.0
H402 H 0.1836 0.50705 0.92087 0.0
H403 H 0.16867 0.45009 0.92783 0.0
H404 H 0.20784 0.45787 0.9147 0.0
H405 H 0.20893 0.47884 0.94192 0.0
H406 H 0.17507 0.53833 0.89112 0.0
H407 H 0.12732 0.43843 0.86629 0.0
H408 H 0.10778 0.5476 0.89274 0.0
H409 H 0.15134 0.57155 0.88325 0.0
H410 H 0.11658 0.55688 0.86186 0.0
H411 H 0.06993 0.40866 0.8532 0.0
H412 H 0.0433 0.42569 0.85848 0.0
H413 H 0.06594 0.43397 0.8312 0.0
H414 H 0.92935 0.40313 0.96856 0.0
H415 H 0.90229 0.40401 0.00182 0.0
H416 H 0.8981 0.43486 0.99237 0.0
H417 H 0.84088 0.3752 0.97347 0.0
H418 H 0.93532 0.40342 0.92625 0.0
H419 H 0.96451 0.50392 0.94015 0.0
H420 H 0.96488 0.4142 0.86767 0.0
H421 H 0.99682 0.41647 0.88768 0.0
H422 H 0.95246 0.3871 0.89286 0.0
H423 H 0.00192 0.54745 0.91515 0.0
H424 H 0.03419 0.54085 0.90287 0.0
H425 H -0.00051 0.53537 0.88438 0.0
H426 H 0.80971 0.41358 0.7986 0.0
H427 H 0.84494 0.3985 0.77776 0.0
H428 H 0.87895 0.49887 0.76062 0.0
H429 H 0.91595 0.40779 0.80278 0.0
H430 H 0.88302 0.37938 0.78248 0.0
H431 H 0.92624 0.40535 0.77254 0.0
H432 H 0.93717 0.54033 0.76018 0.0
H433 H 0.96295 0.53359 0.78134 0.0
H434 H 0.96411 0.52526 0.75042 0.0
H435 H 0.14053 0.51357 0.7083 0.0
H436 H 0.17665 0.49136 0.69652 0.0
H437 H 0.14115 0.46291 0.71429 0.0
H438 H 0.14009 0.45598 0.68272 0.0
H439 H 0.04536 0.42476 0.71242 0.0
H440 H 0.09979 0.53008 0.70786 0.0
H441 H 0.00577 0.41789 0.76657 0.0
H442 H 0.97597 0.41431 0.74406 0.0
H443 H 0.00103 0.39542 0.73943 0.0
H444 H 0.08322 0.56254 0.7291 0.0
H445 H 0.04072 0.54182 0.74106 0.0
H446 H 0.07603 0.5483 0.75935 0.0
H447 H 0.05199 0.48562 0.896 0.0
H448 H 0.95057 0.47486 0.86082 0.0
H449 H 0.92981 0.47149 0.82097 0.0
H450 H 0.97196 0.47128 0.74314 0.0
H451 H 0.07842 0.49423 0.77854 0.0
H452 H 0.0997 0.49913 0.81839 0.0
H453 H 0.75861 0.41796 0.80316 0.0
H454 H 0.79743 0.45766 0.80269 0.0
H455 H 0.76962 0.4432 0.77687 0.0
C456 C 0.44096 0.83519 0.87885 0.0
C457 C 0.43518 0.81934 0.90342 0.0
C458 C 0.46379 0.86941 0.92847 0.0
C459 C 0.43795 0.87707 0.92727 0.0
C460 C 0.44385 0.90752 0.93569 0.0
C461 C 0.47632 0.93091 0.94521 0.0
C462 C 0.50211 0.92293 0.94697 0.0
C463 C 0.49523 0.89202 0.93891 0.0
C464 C 0.4156 0.91498 0.93394 0.0
C465 C 0.53726 0.94729 0.95673 0.0
C466 C 0.58415 0.12608 0.82075 0.0
C467 C 0.57718 0.10382 0.84127 0.0
C468 C 0.53822 0.07913 0.87429 0.0
C469 C 0.55994 0.07203 0.88747 0.0
C470 C 0.54908 0.05401 0.90852 0.0
C471 C 0.51555 0.04221 0.91641 0.0
C472 C 0.49373 0.04967 0.90345 0.0
C473 C 0.50554 0.06839 0.88264 0.0
C474 C 0.5732 0.04674 0.92195 0.0
C475 C 0.45775 0.03716 0.91129 0.0
C476 C 0.55211 0.16758 0.04618 0.0
C477 C 0.57558 0.15902 0.03855 0.0
C478 C 0.56548 0.12588 0.03476 0.0
C479 C 0.53091 0.10099 0.03792 0.0
C480 C 0.50749 0.1096 0.04631 0.0
C481 C 0.51863 0.14285 0.05075 0.0
C482 C 0.59167 0.11761 0.02709 0.0
C483 C 0.47054 0.08381 0.05012 0.0
C484 C 0.46997 0.86635 0.09623 0.0
C485 C 0.45658 0.88415 0.11123 0.0
C486 C 0.48725 0.94169 0.1002 0.0
C487 C 0.51978 0.9625 0.0913 0.0
C488 C 0.52543 0.98646 0.07438 0.0
C489 C 0.49788 0.98986 0.06663 0.0
C490 C 0.46547 0.97047 0.07694 0.0
C491 C 0.46049 0.94652 0.09367 0.0
C492 C 0.56043 0.00712 0.064 0.0
C493 C 0.43587 0.97424 0.06959 0.0
C494 C 0.48425 0.96465 0.95139 0.0
C495 C 0.49193 0.98666 0.93274 0.0
C496 C 0.50281 0.01973 0.93701 0.0
C497 C 0.50533 0.03122 0.96058 0.0
C498 C 0.51577 0.06423 0.96553 0.0
C499 C 0.51933 0.07552 0.98886 0.0
C500 C 0.5136 0.05446 0.00814 0.0
C501 C 0.51904 0.0661 0.03195 0.0
C502 C 0.51349 0.04451 0.05061 0.0
C503 C 0.50219 0.01135 0.04621 0.0
C504 C 0.49615 0.99915 0.0226 0.0
C505 C 0.48437 0.96579 0.0176 0.0
C506 C 0.4796 0.95423 0.9943 0.0
C507 C 0.48696 0.97568 0.97511 0.0
C508 C 0.49784 0.00918 0.97971 0.0
C509 C 0.50234 0.0209 0.0035 0.0
C510 C 0.56657 0.24634 0.02964 0.0
C511 C 0.58205 0.22491 0.03416 0.0
O512 O 0.45989 0.84096 0.91951 0.0
O513 O 0.48218 0.91677 0.11469 0.0
O514 O 0.56094 0.19946 0.04912 0.0
O515 O 0.5478 0.09586 0.85346 0.0
H516 H 0.40949 0.81258 0.90976 0.0
H517 H 0.42166 0.8175 0.86584 0.0
H518 H 0.46685 0.84283 0.87247 0.0
H519 H 0.43848 0.85728 0.87961 0.0
H520 H 0.41323 0.85966 0.91961 0.0
H521 H 0.51488 0.88576 0.93995 0.0
H522 H 0.4217 0.93362 0.91994 0.0
H523 H 0.39057 0.89269 0.92943 0.0
H524 H 0.41342 0.92554 0.95099 0.0
H525 H 0.55554 0.93883 0.95406 0.0
H526 H 0.54743 0.97162 0.94814 0.0
H527 H 0.5358 0.95086 0.97607 0.0
H528 H 0.57943 0.08187 0.83755 0.0
H529 H 0.58214 0.11098 0.80466 0.0
H530 H 0.55971 0.12558 0.81669 0.0
H531 H 0.62962 0.16931 0.83084 0.0
H532 H 0.58538 0.08021 0.88139 0.0
H533 H 0.48897 0.07404 0.87246 0.0
H534 H 0.5734 0.05202 0.9412 0.0
H535 H 0.56435 0.02018 0.91992 0.0
H536 H 0.59969 0.06136 0.91537 0.0
H537 H 0.44407 0.04545 0.89945 0.0
H538 H 0.44335 0.00978 0.91153 0.0
H539 H 0.45808 0.04587 0.92967 0.0
H540 H 0.58326 0.21475 0.01655 0.0
H541 H 0.6018 0.1782 0.03567 0.0
H542 H 0.50089 0.14981 0.05695 0.0
H543 H 0.58809 0.11127 0.00787 0.0
H544 H 0.61812 0.13862 0.03003 0.0
H545 H 0.58855 0.09591 0.0369 0.0
H546 H 0.45494 0.09488 0.05438 0.0
H547 H 0.45957 0.06801 0.03399 0.0
H548 H 0.46869 0.06768 0.06502 0.0
H549 H 0.43466 0.88245 0.10112 0.0
H550 H 0.44999 0.83992 0.09391 0.0
H551 H 0.47696 0.87768 0.07837 0.0
H552 H 0.49298 0.86821 0.10466 0.0
H553 H 0.54038 0.9589 0.09684 0.0
H554 H 0.43563 0.93131 0.10142 0.0
H555 H 0.55929 0.00138 0.04475 0.0
H556 H 0.56908 0.03369 0.06573 0.0
H557 H 0.57955 0.00271 0.0728 0.0
H558 H 0.41312 0.9593 0.08068 0.0
H559 H 0.44334 0.00054 0.07089 0.0
H560 H 0.42884 0.96638 0.05075 0.0
H561 H 0.49086 0.97825 0.91462 0.0
H562 H 0.52126 0.08168 0.9514 0.0
H563 H 0.52721 0.10113 0.99157 0.0
H564 H 0.51819 0.05365 0.0688 0.0
H565 H 0.47887 0.94821 0.03163 0.0
H566 H 0.47057 0.92835 0.99151 0.0
H567 H 0.56414 0.25703 0.04657 0.0
H568 H 0.58273 0.2667 0.01735 0.0
H569 H 0.5408 0.23118 0.02136 0.0
C570 C 0.61157 0.42018 0.04897 0.0
C571 C 0.62627 0.4328 0.07405 0.0
C572 C 0.61271 0.47536 0.08371 0.0
C573 C 0.57732 0.45375 0.08594 0.0
C574 C 0.55619 0.46545 0.09298 0.0
C575 C 0.57062 0.49942 0.09791 0.0
C576 C 0.60609 0.5213 0.09553 0.0
C577 C 0.62666 0.50894 0.08838 0.0
C578 C 0.51836 0.4415 0.09518 0.0
C579 C 0.62221 0.55766 0.1007 0.0
C580 C 0.4426 0.5613 0.97295 0.0
C581 C 0.45585 0.5498 0.99256 0.0
C582 C 0.4698 0.55713 0.03438 0.0
C583 C 0.49666 0.58214 0.04774 0.0
C584 C 0.51034 0.57463 0.06753 0.0
C585 C 0.49601 0.54134 0.07436 0.0
C586 C 0.46759 0.51613 0.0616 0.0
C587 C 0.45484 0.52431 0.04168 0.0
C588 C 0.54059 0.6021 0.08078 0.0
C589 C 0.45111 0.48046 0.06871 0.0
C590 C 0.41545 0.57376 0.20586 0.0
C591 C 0.44982 0.59552 0.2007 0.0
C592 C 0.472 0.5838 0.19733 0.0
C593 C 0.45912 0.54945 0.19832 0.0
C594 C 0.42478 0.52767 0.20468 0.0
C595 C 0.40351 0.5403 0.20881 0.0
C596 C 0.50887 0.60807 0.19185 0.0
C597 C 0.41015 0.49096 0.20613 0.0
C598 C 0.56273 0.40979 0.24927 0.0
C599 C 0.55202 0.42186 0.27091 0.0
C600 C 0.54875 0.46787 0.25342 0.0
C601 C 0.56655 0.5021 0.25081 0.0
C602 C 0.55538 0.5172 0.23462 0.0
C603 C 0.52543 0.49745 0.22089 0.0
C604 C 0.50646 0.46292 0.22413 0.0
C605 C 0.51833 0.44845 0.2403 0.0
C606 C 0.57604 0.5541 0.23167 0.0
C607 C 0.47402 0.44119 0.21005 0.0
C608 C 0.54849 0.51191 0.10566 0.0
C609 C 0.53409 0.52213 0.08819 0.0
C610 C 0.51159 0.53258 0.09409 0.0
C611 C 0.50345 0.5333 0.11814 0.0
C612 C 0.4806 0.54327 0.12468 0.0
C613 C 0.47298 0.5441 0.14841 0.0
C614 C 0.48783 0.5349 0.16654 0.0
C615 C 0.48073 0.53622 0.19079 0.0
C616 C 0.49413 0.5248 0.20819 0.0
C617 C 0.5149 0.51242 0.20204 0.0
C618 C 0.5239 0.51272 0.17807 0.0
C619 C 0.54611 0.50195 0.17145 0.0
C620 C 0.55447 0.50195 0.14779 0.0
C621 C 0.54066 0.5124 0.1298 0.0
C622 C 0.51819 0.5233 0.13606 0.0
C623 C 0.51009 0.52378 0.16025 0.0
C624 C 0.3534 0.59156 0.18452 0.0
C625 C 0.39093 0.60483 0.1907 0.0
O626 O 0.63422 0.46506 0.07706 0.0
O627 O 0.56211 0.45481 0.26845 0.0
O628 O 0.3931 0.58431 0.20722 0.0
O629 O 0.4591 0.56508 0.01429 0.0
H630 H 0.60679 0.4166 0.08711 0.0
H631 H 0.58701 0.41923 0.04647 0.0
H632 H 0.62929 0.43661 0.03519 0.0
H633 H 0.60676 0.39487 0.04623 0.0
H634 H 0.56579 0.42773 0.08217 0.0
H635 H 0.65389 0.52549 0.08656 0.0
H636 H 0.5041 0.44898 0.08324 0.0
H637 H 0.51102 0.4158 0.09063 0.0
H638 H 0.51042 0.44206 0.11364 0.0
H639 H 0.65022 0.57146 0.09808 0.0
H640 H 0.6106 0.56815 0.08892 0.0
H641 H 0.61709 0.56137 0.11932 0.0
H642 H 0.44374 0.52251 0.9936 0.0
H643 H 0.48382 0.58458 0.94979 0.0
H644 H 0.41742 0.53903 0.96755 0.0
H645 H 0.43085 0.57453 0.98155 0.0
H646 H 0.50772 0.60745 0.04207 0.0
H647 H 0.43318 0.50505 0.03184 0.0
H648 H 0.53372 0.60284 0.09952 0.0
H649 H 0.56197 0.5974 0.08101 0.0
H650 H 0.54949 0.62657 0.07273 0.0
H651 H 0.42675 0.46443 0.05888 0.0
H652 H 0.46877 0.47156 0.06499 0.0
H653 H 0.4461 0.47791 0.08807 0.0
H654 H 0.40326 0.60439 0.17384 0.0
H655 H 0.45918 0.62161 0.19907 0.0
H656 H 0.37696 0.52387 0.21313 0.0
H657 H 0.51275 0.60772 0.17246 0.0
H658 H 0.51648 0.63363 0.19711 0.0
H659 H 0.52592 0.60129 0.20113 0.0
H660 H 0.38226 0.47719 0.20925 0.0
H661 H 0.41504 0.48166 0.18943 0.0
H662 H 0.4229 0.48568 0.22089 0.0
H663 H 0.52385 0.40676 0.27272 0.0
H664 H 0.5554 0.38365 0.25159 0.0
H665 H 0.54992 0.41128 0.23286 0.0
H666 H 0.59075 0.42507 0.24688 0.0
H667 H 0.5898 0.51694 0.26114 0.0
H668 H 0.50386 0.42198 0.24229 0.0
H669 H 0.58489 0.56002 0.21308 0.0
H670 H 0.55981 0.56473 0.23509 0.0
H671 H 0.59859 0.56605 0.24387 0.0
H672 H 0.46053 0.41525 0.2162 0.0
H673 H 0.45655 0.45083 0.21143 0.0
H674 H 0.48013 0.4415 0.191 0.0
H675 H 0.53997 0.52135 0.06967 0.0
H676 H 0.46842 0.55064 0.11152 0.0
H677 H 0.45514 0.55193 0.15232 0.0
H678 H 0.48791 0.5251 0.22669 0.0
H679 H 0.55744 0.49355 0.18451 0.0
H680 H 0.57177 0.4935 0.14377 0.0
H681 H 0.33912 0.59055 0.20063 0.0
H682 H 0.35102 0.6075 0.17112 0.0
H683 H 0.34166 0.56627 0.17693 0.0
C684 C 0.59988 0.3157 0.42452 0.0
O685 O 0.59178 0.33062 0.44051 0.0
O686 O 0.67303 0.39954 0.39333 0.0
Zn687 Zn 0.62231 0.37576 0.39809 0.0
O688 O 0.60789 0.39306 0.42543 0.0
C689 C 0.61574 0.40423 0.35512 0.0
O690 O 0.64686 0.4272 0.36144 0.0
O691 O 0.61003 0.32899 0.40435 0.0
C692 C 0.61086 0.42124 0.42562 0.0
O693 O 0.62644 0.44155 0.40806 0.0
C694 C 0.69094 0.39223 0.40646 0.0
O695 O 0.67726 0.37469 0.42559 0.0
O696 O 0.59965 0.37885 0.36803 0.0
C697 C 0.26357 0.68786 0.57058 0.0
O698 O 0.24065 0.67791 0.55333 0.0
O699 O 0.27407 0.60504 0.57784 0.0
Zn700 Zn 0.23845 0.61774 0.57759 0.0
O701 O 0.21201 0.60759 0.54668 0.0
C702 C 0.1862 0.56482 0.6048 0.0
O703 O 0.18197 0.54787 0.58523 0.0
O704 O 0.26539 0.66667 0.58328 0.0
C705 C 0.21351 0.59055 0.52981 0.0
O706 O 0.23239 0.57726 0.53249 0.0
C707 C 0.30155 0.62291 0.56672 0.0
O708 O 0.30334 0.64545 0.55223 0.0
O709 O 0.20802 0.59553 0.60526 0.0
C710 C 0.58461 0.27423 0.7371 0.0
O711 O 0.56786 0.24952 0.72208 0.0
O712 O 0.67684 0.27507 0.74956 0.0
Zn713 Zn 0.62605 0.24494 0.7473 0.0
O714 O 0.60953 0.21995 0.71632 0.0
C715 C 0.62316 0.19536 0.777 0.0
O716 O 0.64235 0.19475 0.76015 0.0
O717 O 0.60825 0.2756 0.75005 0.0
C718 C 0.627 0.21471 0.70162 0.0
O719 O 0.65926 0.2254 0.70622 0.0
C720 C 0.69041 0.30168 0.73784 0.0
O721 O 0.67191 0.30557 0.72161 0.0
O722 O 0.6116 0.21452 0.77519 0.0
C723 C 0.43931 0.69924 0.8936 0.0
O724 O 0.46772 0.6992 0.89708 0.0
O725 O 0.35862 0.59348 0.8853 0.0
Zn726 Zn 0.40847 0.62844 0.88638 0.0
O727 O 0.43044 0.62115 0.91514 0.0
C728 C 0.42392 0.59972 0.84652 0.0
O729 O 0.39412 0.57367 0.85119 0.0
O730 O 0.41199 0.67235 0.88858 0.0
C731 C 0.42776 0.59313 0.91628 0.0
O732 O 0.40984 0.57072 0.89998 0.0
C733 C 0.34014 0.5965 0.90053 0.0
O734 O 0.35451 0.62153 0.91552 0.0
O735 O 0.43383 0.6263 0.85811 0.0
C736 C 0.73991 0.4123 0.08415 0.0
O737 O 0.74184 0.39563 0.1021 0.0
O738 O 0.73697 0.34015 0.05584 0.0
Zn739 Zn 0.77655 0.38622 0.06184 0.0
O740 O 0.80531 0.38948 0.09029 0.0
C741 C 0.81836 0.38102 0.02874 0.0
O742 O 0.81354 0.35805 0.04392 0.0
O743 O 0.75576 0.41442 0.06526 0.0
C744 C 0.83198 0.4174 0.09429 0.0
O745 O 0.83789 0.4423 0.08071 0.0
C746 C 0.71593 0.3209 0.0711 0.0
O747 O 0.72118 0.3294 0.09367 0.0
O748 O 0.8053 0.39853 0.03268 0.0
C749 C 0.43435 0.73762 0.22022 0.0
O750 O 0.44559 0.76034 0.20376 0.0
O751 O 0.356 0.75015 0.23828 0.0
Zn752 Zn 0.40738 0.77573 0.24009 0.0
O753 O 0.42616 0.80666 0.21225 0.0
C754 C 0.41229 0.82076 0.27539 0.0
O755 O 0.39271 0.82398 0.25971 0.0
O756 O 0.42041 0.7411 0.23846 0.0
C757 C 0.40732 0.81367 0.19991 0.0
O758 O 0.37544 0.80152 0.20593 0.0
C759 C 0.34155 0.72652 0.22331 0.0
O760 O 0.36048 0.72059 0.20926 0.0
O761 O 0.42266 0.80112 0.27085 0.0
C762 C 0.24777 0.69419 0.23271 0.0
C763 C 0.23236 0.66465 0.2194 0.0
H764 H 0.29441 0.73676 0.24462 0.0
C765 C 0.25313 0.65608 0.20704 0.0
H766 H 0.23236 0.70182 0.24197 0.0
C767 C 0.28858 0.67625 0.20828 0.0
C768 C 0.30401 0.70549 0.22191 0.0
H769 H 0.24189 0.63378 0.1963 0.0
H770 H 0.30386 0.66882 0.19862 0.0
C771 C 0.28326 0.71425 0.23414 0.0
C772 C 0.60806 0.25512 0.46338 0.0
C773 C 0.62748 0.24682 0.44908 0.0
H774 H 0.58331 0.28279 0.46662 0.0
C775 C 0.63434 0.25837 0.42565 0.0
H776 H 0.60262 0.24671 0.48155 0.0
C777 C 0.62322 0.27896 0.41703 0.0
C778 C 0.60537 0.28873 0.43179 0.0
H779 H 0.64956 0.25261 0.41434 0.0
H780 H 0.63027 0.28862 0.39925 0.0
C781 C 0.59701 0.27576 0.4548 0.0
C782 C 0.36377 0.6123 0.60472 0.0
C783 C 0.39508 0.63597 0.59507 0.0
H784 H 0.30947 0.58886 0.60295 0.0
C785 C 0.39508 0.65197 0.57407 0.0
H786 H 0.36304 0.59957 0.62088 0.0
C787 C 0.3644 0.646 0.56382 0.0
C788 C 0.33313 0.62388 0.57436 0.0
H789 H 0.41891 0.67029 0.56625 0.0
H790 H 0.36533 0.65997 0.54833 0.0
C791 C 0.33309 0.60614 0.59439 0.0
C792 C 0.76208 0.38996 0.74646 0.0
C793 C 0.77559 0.38838 0.76864 0.0
H794 H 0.72481 0.36356 0.71903 0.0
C795 C 0.76403 0.35743 0.77889 0.0
H796 H 0.77063 0.41354 0.73818 0.0
C797 C 0.73804 0.32878 0.76789 0.0
C798 C 0.72277 0.33057 0.74653 0.0
H799 H 0.77406 0.35551 0.79596 0.0
H800 H 0.72862 0.3055 0.77685 0.0
C801 C 0.73591 0.36133 0.73551 0.0
C802 C 0.46787 0.78932 0.9024 0.0
C803 C 0.43656 0.78819 0.90158 0.0
H804 H 0.49331 0.76206 0.90079 0.0
C805 C 0.40642 0.75779 0.8975 0.0
H806 H 0.49161 0.81255 0.90495 0.0
C807 C 0.4074 0.72899 0.89485 0.0
C808 C 0.43861 0.72997 0.89611 0.0
H809 H 0.38205 0.75633 0.89628 0.0
H810 H 0.38362 0.70594 0.89185 0.0
C811 C 0.46885 0.76045 0.8999 0.0
C812 C 0.68653 0.44788 0.06383 0.0
C813 C 0.65795 0.43097 0.07843 0.0
H814 H 0.73504 0.45516 0.05414 0.0
C815 C 0.65866 0.41119 0.09674 0.0
H816 H 0.68703 0.46389 0.04994 0.0
C817 C 0.68643 0.40686 0.09953 0.0
C818 C 0.7139 0.42188 0.08387 0.0
H819 H 0.63724 0.39821 0.10848 0.0
H820 H 0.68549 0.39036 0.11321 0.0
C821 C 0.71407 0.44306 0.06634 0.0
C822 C 0.31243 0.7806 0.56323 0.0
C823 C 0.34228 0.79003 0.57667 0.0
H824 H 0.2642 0.74081 0.55058 0.0
C825 C 0.34493 0.76587 0.58926 0.0
H826 H 0.30925 0.79881 0.55385 0.0
C827 C 0.31895 0.73282 0.58773 0.0
C828 C 0.28968 0.72318 0.57357 0.0
H829 H 0.36731 0.77257 0.60016 0.0
H830 H 0.32217 0.71476 0.5973 0.0
C831 C 0.28655 0.74744 0.56148 0.0
C832 C 0.59983 0.3599 0.74655 0.0
C833 C 0.57291 0.35848 0.7333 0.0
H834 H 0.62455 0.33444 0.75825 0.0
C835 C 0.54836 0.32834 0.72267 0.0
H836 H 0.61864 0.38259 0.75536 0.0
C837 C 0.55173 0.3007 0.72424 0.0
C838 C 0.57929 0.30246 0.73689 0.0
H839 H 0.52677 0.32626 0.71292 0.0
H840 H 0.53291 0.27805 0.7154 0.0
C841 C 0.60301 0.33223 0.74833 0.0
C842 C 0.25327 0.52012 0.88922 0.0
C843 C 0.23334 0.52414 0.90612 0.0
H844 H 0.30267 0.53993 0.87406 0.0
C845 C 0.24862 0.55239 0.92073 0.0
H846 H 0.2422 0.49831 0.87798 0.0
C847 C 0.28316 0.57609 0.9186 0.0
C848 C 0.30325 0.57195 0.90191 0.0
H849 H 0.23394 0.55588 0.93409 0.0
H850 H 0.29419 0.59743 0.93031 0.0
C851 C 0.28787 0.54387 0.88707 0.0
C852 C 0.64579 0.25971 0.02985 0.0
C853 C 0.61754 0.24562 0.04483 0.0
H854 H 0.69918 0.29405 0.02649 0.0
C855 C 0.62254 0.25413 0.06911 0.0
H856 H 0.64258 0.2538 0.01103 0.0
C857 C 0.65503 0.27714 0.07804 0.0
C858 C 0.683 0.29244 0.06278 0.0
H859 H 0.60111 0.24394 0.08098 0.0
H860 H 0.65785 0.28415 0.09664 0.0
C861 C 0.67817 0.28279 0.03872 0.0
C862 C 0.40058 0.64615 0.22312 0.0
C863 C 0.40756 0.63976 0.20017 0.0
H864 H 0.4043 0.68234 0.24775 0.0
C865 C 0.42733 0.66636 0.18512 0.0
H866 H 0.38527 0.62604 0.23503 0.0
C867 C 0.43837 0.69861 0.19237 0.0
C868 C 0.42952 0.70487 0.21475 0.0
H869 H 0.43302 0.66208 0.16732 0.0
H870 H 0.45221 0.71838 0.1799 0.0
C871 C 0.41154 0.67841 0.23038 0.0
C872 C 0.75937 0.40632 0.36317 0.0
C873 C 0.77285 0.38858 0.37381 0.0
H874 H 0.72348 0.42224 0.36544 0.0
C875 C 0.76241 0.37598 0.39674 0.0
H876 H 0.76687 0.41614 0.34547 0.0
C877 C 0.73759 0.37949 0.40823 0.0
C878 C 0.72246 0.39537 0.39692 0.0
H879 H 0.7722 0.36198 0.40526 0.0
H880 H 0.72886 0.36801 0.42537 0.0
C881 C 0.73454 0.40982 0.37464 0.0
C882 C 0.18541 0.57103 0.4652 0.0
C883 C 0.16638 0.58644 0.46216 0.0
H884 H 0.2149 0.55988 0.48896 0.0
C885 C 0.162 0.60223 0.48176 0.0
H886 H 0.18951 0.55901 0.45032 0.0
C887 C 0.1766 0.60285 0.50386 0.0
C888 C 0.19608 0.58784 0.50682 0.0
H889 H 0.14781 0.61465 0.47984 0.0
H890 H 0.17314 0.61565 0.5185 0.0
C891 C 0.19998 0.57159 0.48731 0.0
C892 C 0.61694 0.17171 0.62929 0.0
C893 C 0.56981 0.15322 0.62712 0.0
H894 H 0.66219 0.19948 0.66128 0.0
C895 C 0.54658 0.16767 0.64551 0.0
H896 H 0.63056 0.16536 0.61691 0.0
C897 C 0.56774 0.18752 0.67299 0.0
C898 C 0.6111 0.19808 0.67906 0.0
H899 H 0.51976 0.15866 0.64263 0.0
H900 H 0.55423 0.19309 0.686 0.0
C901 C 0.63582 0.19149 0.6574 0.0
C902 C 0.50497 0.62137 0.81469 0.0
C903 C 0.50052 0.59003 0.81096 0.0
H904 H 0.48406 0.64907 0.82882 0.0
C905 C 0.46911 0.56194 0.81645 0.0
H906 H 0.52882 0.64341 0.81035 0.0
C907 C 0.44328 0.56511 0.82663 0.0
C908 C 0.44855 0.59647 0.83181 0.0
H909 H 0.46492 0.53748 0.81361 0.0
H910 H 0.41989 0.54296 0.83154 0.0
C911 C 0.47933 0.62457 0.82518 0.0
C912 C 0.86886 0.35544 0.97324 0.0
C913 C 0.88072 0.39195 0.95449 0.0
H914 H 0.84491 0.33646 0.01386 0.0
C915 C 0.85925 0.41628 0.95645 0.0
H916 H 0.87941 0.33989 0.97045 0.0
C917 C 0.83972 0.41355 0.98461 0.0
C918 C 0.83592 0.38404 0.00652 0.0
H919 H 0.864 0.43539 0.94388 0.0
H920 H 0.82999 0.42958 0.98829 0.0
C921 C 0.84908 0.35477 0.00073 0.0
C922 C 0.46716 0.86684 0.15154 0.0
C923 C 0.44432 0.86762 0.13499 0.0
H924 H 0.47337 0.84902 0.18505 0.0
C925 C 0.40958 0.85185 0.14048 0.0
H926 H 0.49411 0.87903 0.14782 0.0
C927 C 0.39776 0.83506 0.16185 0.0
C928 C 0.42039 0.83339 0.17809 0.0
H929 H 0.39143 0.85213 0.12809 0.0
H930 H 0.37073 0.82274 0.16536 0.0
C931 C 0.45528 0.84971 0.17283 0.0
C932 C 0.55009 0.38972 0.30735 0.0
C933 C 0.56833 0.41774 0.29316 0.0
H934 H 0.55065 0.36344 0.33811 0.0
C935 C 0.60251 0.44077 0.29915 0.0
H936 H 0.52393 0.37126 0.30286 0.0
C937 C 0.61784 0.43631 0.31925 0.0
C938 C 0.59947 0.40851 0.33365 0.0
H939 H 0.61742 0.46222 0.28822 0.0
H940 H 0.64415 0.45466 0.32343 0.0
C941 C 0.56546 0.38519 0.32745 0.0
C942 C 0.44843 0.85096 0.33741 0.0
C943 C 0.43568 0.87154 0.34276 0.0
H944 H 0.45133 0.819 0.3119 0.0
C945 C 0.41546 0.87556 0.32569 0.0
H946 H 0.46366 0.84706 0.35038 0.0
C947 C 0.40832 0.85947 0.30367 0.0
C948 C 0.42099 0.83879 0.29835 0.0
H949 H 0.40486 0.89086 0.32951 0.0
H950 H 0.39249 0.86293 0.29096 0.0
C951 C 0.44128 0.83485 0.31541 0.0
C952 C 0.55267 0.41175 0.47608 0.0
C953 C 0.55441 0.44223 0.47584 0.0
H954 H 0.56955 0.38141 0.46073 0.0
C955 C 0.57637 0.46647 0.45983 0.0
H956 H 0.53583 0.39255 0.48812 0.0
C957 C 0.59558 0.46008 0.44401 0.0
C958 C 0.59326 0.42931 0.44389 0.0
H959 H 0.57807 0.49013 0.4592 0.0
H960 H 0.61166 0.479 0.43154 0.0
C961 C 0.57202 0.40541 0.46037 0.0
C962 C 0.16536 0.54836 0.66999 0.0
C963 C 0.1426 0.51413 0.66992 0.0
H964 H 0.19658 0.59132 0.64948 0.0
C965 C 0.13215 0.49705 0.64807 0.0
H966 H 0.17382 0.56212 0.68658 0.0
C967 C 0.14535 0.51371 0.62678 0.0
C968 C 0.16913 0.54779 0.62692 0.0
H969 H 0.11458 0.47064 0.64756 0.0
H970 H 0.13761 0.49971 0.61029 0.0
C971 C 0.17836 0.56505 0.64872 0.0
C972 C 0.59293 0.16253 0.85132 0.0
C973 C 0.60643 0.13155 0.85076 0.0
H974 H 0.58607 0.1981 0.82134 0.0
C975 C 0.63705 0.13265 0.82891 0.0
H976 H 0.57787 0.16362 0.86554 0.0
C977 C 0.63932 0.15354 0.80176 0.0
C978 C 0.61849 0.17698 0.79889 0.0
H979 H 0.64692 0.11628 0.8301 0.0
H980 H 0.65356 0.15219 0.78708 0.0
C981 C 0.59668 0.18245 0.82335 0.0
C982 C 0.46959 0.53849 0.95295 0.0
C983 C 0.48595 0.56608 0.9795 0.0
H984 H 0.43289 0.53147 0.91726 0.0
C985 C 0.49475 0.60919 0.97934 0.0
H986 H 0.46754 0.5147 0.95266 0.0
C987 C 0.47088 0.61679 0.95719 0.0
C988 C 0.44638 0.5863 0.93444 0.0
H989 H 0.5074 0.62606 0.9941 0.0
H990 H 0.47131 0.63983 0.95755 0.0
C991 C 0.44664 0.54843 0.93176 0.0
C992 C 0.91472 0.45412 0.12962 0.0
C993 C 0.91014 0.42694 0.14269 0.0
H994 H 0.89353 0.47257 0.10437 0.0
C995 C 0.87871 0.39706 0.14093 0.0
H996 H 0.93874 0.47738 0.13053 0.0
C997 C 0.85278 0.39418 0.12582 0.0
C998 C 0.8578 0.42113 0.11216 0.0
H999 H 0.87462 0.37568 0.15073 0.0
H1000 H 0.82918 0.3706 0.12436 0.0
C1001 C 0.88881 0.4513 0.1146 0.0
loop_
_geom_bond_atom_site_label_1
_geom_bond_atom_site_label_2
_geom_bond_distance
_geom_bond_site_symmetry_2
_ccdc_geom_bond_type
C0 C1 1.560 . S
C0 H61 0.959 . S
C0 H62 0.959 . S
C0 H63 0.960 . S
C1 C0 1.560 . S
C1 O56 1.426 . S
C1 H60 0.980 . S
C2 C3 1.407 . S
C2 C7 1.418 . S
C2 O56 1.334 . S
C3 C2 1.407 . S
C3 C4 1.360 . S
C3 H64 0.929 . S
C4 C3 1.360 . S
C4 C5 1.401 . S
C4 C8 1.527 . S
C5 C4 1.401 . S
C5 C6 1.405 . S
C5 C38 1.587 . S
C6 C5 1.405 . S
C6 C7 1.332 . S
C6 C9 1.496 . S
C7 C2 1.418 . S
C7 C6 1.332 . S
C7 H65 0.929 . S
C8 C4 1.527 . S
C8 H66 0.959 . S
C8 H67 0.961 . S
C8 H68 0.961 . S
C9 C6 1.496 . S
C9 H69 0.960 . S
C9 H70 0.960 . S
C9 H71 0.961 . S
C10 C11 1.517 . S
C10 H73 0.961 . S
C10 H74 0.960 . S
C10 H75 0.959 . S
C11 C10 1.517 . S
C11 O59 1.468 . S
C11 H72 0.980 . S
C12 C13 1.349 . S
C12 C17 1.367 . S
C12 O59 1.408 . S
C13 C12 1.349 . S
C13 C14 1.407 . S
C13 H76 0.930 . S
C14 C13 1.407 . S
C14 C15 1.449 . S
C14 C18 1.535 . S
C15 C14 1.449 . S
C15 C16 1.384 . S
C15 C40 1.553 1_655 S
C16 C15 1.384 . S
C16 C17 1.364 . S
C16 C19 1.450 . S
C17 C12 1.367 . S
C17 C16 1.364 . S
C17 H77 0.931 . S
C18 C14 1.535 . S
C18 H78 0.959 1_655 S
C18 H79 0.961 1_655 S
C18 H80 0.959 . S
C19 C16 1.450 . S
C19 H81 0.960 . S
C19 H82 0.960 1_655 S
C19 H83 0.960 . S
C20 C21 1.309 . S
C20 C25 1.304 . S
C20 O58 1.435 . S
C21 C20 1.309 . S
C21 C22 1.476 . S
C21 H85 0.930 . S
C22 C21 1.476 . S
C22 C23 1.400 . S
C22 C26 1.567 . S
C23 C22 1.400 . S
C23 C24 1.373 . S
C23 C45 1.432 . S
C24 C23 1.373 . S
C24 C25 1.339 . S
C24 C27 1.530 . S
C25 C20 1.304 . S
C25 C24 1.339 . S
C25 H86 0.930 . S
C26 C22 1.567 . S
C26 H87 0.961 . S
C26 H88 0.960 . S
C26 H89 0.958 . S
C27 C24 1.530 . S
C27 H90 0.961 . S
C27 H91 0.960 . S
C27 H92 0.960 . S
C28 C29 1.530 . S
C28 H94 0.961 . S
C28 H95 0.961 . S
C28 H96 0.959 . S
C29 C28 1.530 . S
C29 O57 1.412 . S
C29 H93 0.980 . S
C30 C31 1.288 . S
C30 C35 1.377 . S
C30 O57 1.393 . S
C31 C30 1.288 . S
C31 C32 1.369 . S
C31 H97 0.932 . S
C32 C31 1.369 . S
C32 C33 1.398 . S
C32 C36 1.527 . S
C33 C32 1.398 . S
C33 C34 1.380 . S
C33 C47 1.497 . S
C34 C33 1.380 . S
C34 C35 1.383 . S
C34 C37 1.603 . S
C35 C30 1.377 . S
C35 C34 1.383 . S
C35 H98 0.929 . S
C36 C32 1.527 . S
C36 H99 0.961 . S
C36 H100 0.959 1_455 S
C36 H101 0.959 . S
C37 C34 1.603 . S
C37 H102 0.960 . S
C37 H103 0.962 . S
C37 H104 0.961 . S
C38 C5 1.587 . S
C38 C39 1.360 . S
C38 C51 1.412 . S
C39 C38 1.360 . S
C39 C40 1.365 . S
C39 H105 0.929 . S
C40 C15 1.553 1_455 S
C40 C39 1.365 . S
C40 C41 1.405 . S
C41 C40 1.405 . S
C41 C42 1.393 1_455 S
C41 C52 1.452 . S
C42 C41 1.393 1_655 S
C42 C43 1.322 . S
C42 H106 0.930 . S
C43 C42 1.322 . S
C43 C44 1.459 . S
C43 H107 0.929 . S
C44 C43 1.459 . S
C44 C45 1.445 . S
C44 C53 1.395 1_655 S
C45 C23 1.432 . S
C45 C44 1.445 . S
C45 C46 1.370 . S
C46 C45 1.370 . S
C46 C47 1.438 1_655 S
C46 H108 0.930 . S
C47 C33 1.497 . S
C47 C46 1.438 1_455 S
C47 C48 1.360 . S
C48 C47 1.360 . S
C48 C49 1.401 . S
C48 C53 1.446 . S
C49 C48 1.401 . S
C49 C50 1.347 . S
C49 H109 0.929 . S
C50 C49 1.347 . S
C50 C51 1.455 . S
C50 H110 0.930 . S
C51 C38 1.412 . S
C51 C50 1.455 . S
C51 C52 1.331 . S
C52 C41 1.452 . S
C52 C51 1.331 . S
C52 C53 1.497 . S
C53 C44 1.395 1_455 S
C53 C48 1.446 . S
C53 C52 1.497 . S
C54 C55 1.582 . S
C54 H111 0.962 . S
C54 H112 0.959 . S
C54 H113 0.958 . S
C55 C54 1.582 . S
C55 O58 1.458 . S
C55 H84 0.980 . S
O56 C1 1.426 . S
O56 C2 1.334 . S
O57 C29 1.412 . S
O57 C30 1.393 . S
O58 C20 1.435 . S
O58 C55 1.458 . S
O59 C11 1.468 . S
O59 C12 1.408 . S
H60 C1 0.980 . S
H61 C0 0.959 . S
H62 C0 0.959 . S
H63 C0 0.960 . S
H64 C3 0.929 . S
H65 C7 0.929 . S
H66 C8 0.959 . S
H67 C8 0.961 . S
H68 C8 0.961 . S
H69 C9 0.960 . S
H70 C9 0.960 . S
H71 C9 0.961 . S
H72 C11 0.980 . S
H73 C10 0.961 . S
H74 C10 0.960 . S
H75 C10 0.959 . S
H76 C13 0.930 . S
H77 C17 0.931 . S
H78 C18 0.959 1_455 S
H79 C18 0.961 1_455 S
H80 C18 0.959 . S
H81 C19 0.960 . S
H82 C19 0.960 1_455 S
H83 C19 0.960 . S
H84 C55 0.980 . S
H85 C21 0.930 . S
H86 C25 0.930 . S
H87 C26 0.961 . S
H88 C26 0.960 . S
H89 C26 0.958 . S
H90 C27 0.961 . S
H91 C27 0.960 . S
H92 C27 0.960 . S
H93 C29 0.980 . S
H94 C28 0.961 . S
H95 C28 0.961 . S
H96 C28 0.959 . S
H97 C31 0.932 . S
H98 C35 0.929 . S
H99 C36 0.961 . S
H100 C36 0.959 1_655 S
H101 C36 0.959 . S
H102 C37 0.960 . S
H103 C37 0.962 . S
H104 C37 0.961 . S
H105 C39 0.929 . S
H106 C42 0.930 . S
H107 C43 0.929 . S
H108 C46 0.930 . S
H109 C49 0.929 . S
H110 C50 0.930 . S
H111 C54 0.962 . S
H112 C54 0.959 . S
H113 C54 0.958 . S
C114 C115 1.560 . S
C114 H175 0.959 . S
C114 H176 0.959 . S
C114 H177 0.960 . S
C115 C114 1.560 . S
C115 O170 1.426 . S
C115 H174 0.980 . S
C116 C117 1.407 . S
C116 C121 1.418 . S
C116 O170 1.334 . S
C117 C116 1.407 . S
C117 C118 1.360 . S
C117 H178 0.929 . S
C118 C117 1.360 . S
C118 C119 1.401 . S
C118 C122 1.527 . S
C119 C118 1.401 . S
C119 C120 1.405 . S
C119 C152 1.587 . S
C120 C119 1.405 . S
C120 C121 1.332 . S
C120 C123 1.496 . S
C121 C116 1.418 . S
C121 C120 1.332 . S
C121 H179 0.929 . S
C122 C118 1.527 . S
C122 H180 0.959 . S
C122 H181 0.961 . S
C122 H182 0.961 . S
C123 C120 1.496 . S
C123 H183 0.960 . S
C123 H184 0.960 . S
C123 H185 0.961 . S
C124 C125 1.517 . S
C124 H187 0.961 . S
C124 H188 0.960 . S
C124 H189 0.959 . S
C125 C124 1.517 . S
C125 O173 1.468 . S
C125 H186 0.980 . S
C126 C127 1.349 . S
C126 C131 1.367 . S
C126 O173 1.408 . S
C127 C126 1.349 . S
C127 C128 1.407 . S
C127 H190 0.930 . S
C128 C127 1.407 . S
C128 C129 1.449 . S
C128 C132 1.535 . S
C129 C128 1.449 . S
C129 C130 1.384 . S
C129 C154 1.553 . S
C130 C129 1.384 . S
C130 C131 1.364 . S
C130 C133 1.450 . S
C131 C126 1.367 . S
C131 C130 1.364 . S
C131 H191 0.931 . S
C132 C128 1.535 . S
C132 H192 0.959 . S
C132 H193 0.961 . S
C132 H194 0.959 . S
C133 C130 1.450 . S
C133 H195 0.960 . S
C133 H196 0.960 . S
C133 H197 0.960 . S
C134 C135 1.309 . S
C134 C139 1.304 . S
C134 O172 1.435 . S
C135 C134 1.309 . S
C135 C136 1.476 . S
C135 H199 0.930 . S
C136 C135 1.476 . S
C136 C137 1.400 . S
C136 C140 1.567 . S
C137 C136 1.400 . S
C137 C138 1.373 . S
C137 C159 1.432 . S
C138 C137 1.373 . S
C138 C139 1.339 . S
C138 C141 1.530 . S
C139 C134 1.304 . S
C139 C138 1.339 . S
C139 H200 0.930 . S
C140 C136 1.567 . S
C140 H201 0.961 . S
C140 H202 0.960 . S
C140 H203 0.958 . S
C141 C138 1.530 . S
C141 H204 0.961 . S
C141 H205 0.960 . S
C141 H206 0.960 . S
C142 C143 1.530 . S
C142 H208 0.961 . S
C142 H209 0.961 . S
C142 H210 0.959 . S
C143 C142 1.530 . S
C143 O171 1.412 . S
C143 H207 0.980 . S
C144 C145 1.288 . S
C144 C149 1.377 . S
C144 O171 1.393 . S
C145 C144 1.288 . S
C145 C146 1.369 . S
C145 H211 0.932 . S
C146 C145 1.369 . S
C146 C147 1.398 . S
C146 C150 1.527 1_565 S
C147 C146 1.398 . S
C147 C148 1.380 . S
C147 C161 1.497 1_565 S
C148 C147 1.380 . S
C148 C149 1.383 . S
C148 C151 1.603 . S
C149 C144 1.377 . S
C149 C148 1.383 . S
C149 H212 0.929 . S
C150 C146 1.527 1_545 S
C150 H213 0.956 1_545 S
C150 H214 0.959 . S
C150 H215 0.959 1_545 S
C151 C148 1.603 . S
C151 H216 0.960 . S
C151 H217 0.962 . S
C151 H218 0.961 . S
C152 C119 1.587 . S
C152 C153 1.360 . S
C152 C165 1.412 . S
C153 C152 1.360 . S
C153 C154 1.365 1_565 S
C153 H219 0.929 . S
C154 C129 1.553 . S
C154 C153 1.365 1_545 S
C154 C155 1.404 . S
C155 C154 1.404 . S
C155 C156 1.395 . S
C155 C166 1.451 . S
C156 C155 1.395 . S
C156 C157 1.322 . S
C156 H220 0.930 . S
C157 C156 1.322 . S
C157 C158 1.459 . S
C157 H221 0.929 . S
C158 C157 1.459 . S
C158 C159 1.445 . S
C158 C167 1.395 . S
C159 C137 1.432 . S
C159 C158 1.445 . S
C159 C160 1.370 . S
C160 C159 1.370 . S
C160 C161 1.438 . S
C160 H222 0.930 . S
C161 C147 1.497 1_545 S
C161 C160 1.438 . S
C161 C162 1.360 1_545 S
C162 C161 1.360 1_565 S
C162 C163 1.401 . S
C162 C167 1.446 1_565 S
C163 C162 1.401 . S
C163 C164 1.347 . S
C163 H223 0.929 . S
C164 C163 1.347 . S
C164 C165 1.455 . S
C164 H224 0.930 . S
C165 C152 1.412 . S
C165 C164 1.455 . S
C165 C166 1.331 1_565 S
C166 C155 1.451 . S
C166 C165 1.331 1_545 S
C166 C167 1.497 . S
C167 C158 1.395 . S
C167 C162 1.446 1_545 S
C167 C166 1.497 . S
C168 C169 1.582 . S
C168 H225 0.962 . S
C168 H226 0.959 . S
C168 H227 0.958 . S
C169 C168 1.582 . S
C169 O172 1.458 . S
C169 H198 0.980 . S
O170 C115 1.426 . S
O170 C116 1.334 . S
O171 C143 1.412 . S
O171 C144 1.393 . S
O172 C134 1.435 . S
O172 C169 1.458 . S
O173 C125 1.468 . S
O173 C126 1.408 . S
H174 C115 0.980 . S
H175 C114 0.959 . S
H176 C114 0.959 . S
H177 C114 0.960 . S
H178 C117 0.929 . S
H179 C121 0.929 . S
H180 C122 0.959 . S
H181 C122 0.961 . S
H182 C122 0.961 . S
H183 C123 0.960 . S
H184 C123 0.960 . S
H185 C123 0.961 . S
H186 C125 0.980 . S
H187 C124 0.961 . S
H188 C124 0.960 . S
H189 C124 0.959 . S
H190 C127 0.930 . S
H191 C131 0.931 . S
H192 C132 0.959 . S
H193 C132 0.961 . S
H194 C132 0.959 . S
H195 C133 0.960 . S
H196 C133 0.960 . S
H197 C133 0.960 . S
H198 C169 0.980 . S
H199 C135 0.930 . S
H200 C139 0.930 . S
H201 C140 0.961 . S
H202 C140 0.960 . S
H203 C140 0.958 . S
H204 C141 0.961 . S
H205 C141 0.960 . S
H206 C141 0.960 . S
H207 C143 0.980 . S
H208 C142 0.961 . S
H209 C142 0.961 . S
H210 C142 0.959 . S
H211 C145 0.932 . S
H212 C149 0.929 . S
H213 C150 0.956 1_565 S
H214 C150 0.959 . S
H215 C150 0.959 1_565 S
H216 C151 0.960 . S
H217 C151 0.962 . S
H218 C151 0.961 . S
H219 C153 0.929 . S
H220 C156 0.930 . S
H221 C157 0.929 . S
H222 C160 0.930 . S
H223 C163 0.929 . S
H224 C164 0.930 . S
H225 C168 0.962 . S
H226 C168 0.959 . S
H227 C168 0.958 . S
C228 C229 1.560 . S
C228 H289 0.959 . S
C228 H290 0.959 . S
C228 H291 0.960 . S
C229 C228 1.560 . S
C229 O284 1.426 . S
C229 H288 0.980 . S
C230 C231 1.407 . S
C230 C235 1.418 . S
C230 O284 1.334 . S
C231 C230 1.407 . S
C231 C232 1.360 . S
C231 H292 0.929 . S
C232 C231 1.360 . S
C232 C233 1.401 . S
C232 C236 1.527 . S
C233 C232 1.401 . S
C233 C234 1.405 . S
C233 C266 1.587 . S
C234 C233 1.405 . S
C234 C235 1.332 . S
C234 C237 1.496 . S
C235 C230 1.418 . S
C235 C234 1.332 . S
C235 H293 0.929 . S
C236 C232 1.527 . S
C236 H294 0.959 . S
C236 H295 0.961 . S
C236 H296 0.961 . S
C237 C234 1.496 . S
C237 H297 0.960 . S
C237 H298 0.960 . S
C237 H299 0.961 . S
C238 C239 1.517 . S
C238 H301 0.961 . S
C238 H302 0.960 . S
C238 H303 0.959 . S
C239 C238 1.517 . S
C239 O287 1.468 . S
C239 H300 0.980 . S
C240 C241 1.349 . S
C240 C245 1.367 . S
C240 O287 1.408 . S
C241 C240 1.349 . S
C241 C242 1.407 . S
C241 H304 0.930 . S
C242 C241 1.407 . S
C242 C243 1.449 . S
C242 C246 1.535 . S
C243 C242 1.449 . S
C243 C244 1.384 . S
C243 C268 1.553 . S
C244 C243 1.384 . S
C244 C245 1.364 . S
C244 C247 1.450 . S
C245 C240 1.367 . S
C245 C244 1.364 . S
C245 H305 0.931 . S
C246 C242 1.535 . S
C246 H306 0.959 . S
C246 H307 0.961 . S
C246 H308 0.959 . S
C247 C244 1.450 . S
C247 H309 0.960 . S
C247 H310 0.960 . S
C247 H311 0.960 . S
C248 C249 1.309 . S
C248 C253 1.304 . S
C248 O286 1.435 . S
C249 C248 1.309 . S
C249 C250 1.476 . S
C249 H313 0.930 . S
C250 C249 1.476 . S
C250 C251 1.400 . S
C250 C254 1.567 . S
C251 C250 1.400 . S
C251 C252 1.373 . S
C251 C273 1.432 . S
C252 C251 1.373 . S
C252 C253 1.339 . S
C252 C255 1.530 . S
C253 C248 1.304 . S
C253 C252 1.339 . S
C253 H314 0.930 . S
C254 C250 1.567 . S
C254 H315 0.961 . S
C254 H316 0.960 . S
C254 H317 0.958 . S
C255 C252 1.530 . S
C255 H318 0.961 . S
C255 H319 0.960 . S
C255 H320 0.960 . S
C256 C257 1.530 . S
C256 H322 0.961 . S
C256 H323 0.961 . S
C256 H324 0.959 . S
C257 C256 1.530 . S
C257 O285 1.412 . S
C257 H321 0.980 . S
C258 C259 1.288 . S
C258 C263 1.377 . S
C258 O285 1.393 . S
C259 C258 1.288 . S
C259 C260 1.369 . S
C259 H325 0.932 . S
C260 C259 1.369 . S
C260 C261 1.398 . S
C260 C264 1.527 . S
C261 C260 1.398 . S
C261 C262 1.380 . S
C261 C275 1.497 . S
C262 C261 1.380 . S
C262 C263 1.383 . S
C262 C265 1.603 . S
C263 C258 1.377 . S
C263 C262 1.383 . S
C263 H326 0.929 . S
C264 C260 1.527 . S
C264 H327 0.961 . S
C264 H328 0.959 . S
C264 H329 0.959 . S
C265 C262 1.603 . S
C265 H330 0.960 . S
C265 H331 0.962 . S
C265 H332 0.961 . S
C266 C233 1.587 . S
C266 C267 1.360 . S
C266 C279 1.412 . S
C267 C266 1.360 . S
C267 C268 1.365 . S
C267 H333 0.929 . S
C268 C243 1.553 . S
C268 C267 1.365 . S
C268 C269 1.404 . S
C269 C268 1.404 . S
C269 C270 1.395 . S
C269 C280 1.451 . S
C270 C269 1.395 . S
C270 C271 1.322 . S
C270 H334 0.930 . S
C271 C270 1.322 . S
C271 C272 1.459 . S
C271 H335 0.929 . S
C272 C271 1.459 . S
C272 C273 1.445 . S
C272 C281 1.395 . S
C273 C251 1.432 . S
C273 C272 1.445 . S
C273 C274 1.370 . S
C274 C273 1.370 . S
C274 C275 1.438 . S
C274 H336 0.930 . S
C275 C261 1.497 . S
C275 C274 1.438 . S
C275 C276 1.360 . S
C276 C275 1.360 . S
C276 C277 1.401 . S
C276 C281 1.446 . S
C277 C276 1.401 . S
C277 C278 1.347 . S
C277 H337 0.929 . S
C278 C277 1.347 . S
C278 C279 1.455 . S
C278 H338 0.930 . S
C279 C266 1.412 . S
C279 C278 1.455 . S
C279 C280 1.331 . S
C280 C269 1.451 . S
C280 C279 1.331 . S
C280 C281 1.497 . S
C281 C272 1.395 . S
C281 C276 1.446 . S
C281 C280 1.497 . S
C282 C283 1.582 . S
C282 H339 0.962 . S
C282 H340 0.959 . S
C282 H341 0.958 . S
C283 C282 1.582 . S
C283 O286 1.458 . S
C283 H312 0.980 . S
O284 C229 1.426 . S
O284 C230 1.334 . S
O285 C257 1.412 . S
O285 C258 1.393 . S
O286 C248 1.435 . S
O286 C283 1.458 . S
O287 C239 1.468 . S
O287 C240 1.408 . S
H288 C229 0.980 . S
H289 C228 0.959 . S
H290 C228 0.959 . S
H291 C228 0.960 . S
H292 C231 0.929 . S
H293 C235 0.929 . S
H294 C236 0.959 . S
H295 C236 0.961 . S
H296 C236 0.961 . S
H297 C237 0.960 . S
H298 C237 0.960 . S
H299 C237 0.961 . S
H300 C239 0.980 . S
H301 C238 0.961 . S
H302 C238 0.960 . S
H303 C238 0.959 . S
H304 C241 0.930 . S
H305 C245 0.931 . S
H306 C246 0.959 . S
H307 C246 0.961 . S
H308 C246 0.959 . S
H309 C247 0.960 . S
H310 C247 0.960 . S
H311 C247 0.960 . S
H312 C283 0.980 . S
H313 C249 0.930 . S
H314 C253 0.930 . S
H315 C254 0.961 . S
H316 C254 0.960 . S
H317 C254 0.958 . S
H318 C255 0.961 . S
H319 C255 0.960 . S
H320 C255 0.960 . S
H321 C257 0.980 . S
H322 C256 0.961 . S
H323 C256 0.961 . S
H324 C256 0.959 . S
H325 C259 0.932 . S
H326 C263 0.929 . S
H327 C264 0.961 . S
H328 C264 0.959 . S
H329 C264 0.959 . S
H330 C265 0.960 . S
H331 C265 0.962 . S
H332 C265 0.961 . S
H333 C267 0.929 . S
H334 C270 0.930 . S
H335 C271 0.929 . S
H336 C274 0.930 . S
H337 C277 0.929 . S
H338 C278 0.930 . S
H339 C282 0.962 . S
H340 C282 0.959 . S
H341 C282 0.958 . S
C342 C343 1.560 . S
C342 H403 0.959 . S
C342 H404 0.959 . S
C342 H405 0.960 . S
C343 C342 1.560 . S
C343 O398 1.426 . S
C343 H402 0.980 . S
C344 C345 1.407 . S
C344 C349 1.418 . S
C344 O398 1.334 . S
C345 C344 1.407 . S
C345 C346 1.360 . S
C345 H406 0.929 . S
C346 C345 1.360 . S
C346 C347 1.401 . S
C346 C350 1.527 . S
C347 C346 1.401 . S
C347 C348 1.405 . S
C347 C380 1.587 . S
C348 C347 1.405 . S
C348 C349 1.332 . S
C348 C351 1.496 . S
C349 C344 1.418 . S
C349 C348 1.332 . S
C349 H407 0.929 . S
C350 C346 1.527 . S
C350 H408 0.959 . S
C350 H409 0.961 . S
C350 H410 0.961 . S
C351 C348 1.496 . S
C351 H411 0.960 . S
C351 H412 0.960 . S
C351 H413 0.961 . S
C352 C353 1.517 . S
C352 H415 0.961 . S
C352 H416 0.960 . S
C352 H417 0.959 . S
C353 C352 1.517 . S
C353 O401 1.468 . S
C353 H414 0.980 . S
C354 C355 1.349 . S
C354 C359 1.367 . S
C354 O401 1.408 . S
C355 C354 1.349 . S
C355 C356 1.407 . S
C355 H418 0.930 . S
C356 C355 1.407 . S
C356 C357 1.449 . S
C356 C360 1.535 . S
C357 C356 1.449 . S
C357 C358 1.384 . S
C357 C382 1.553 1_655 S
C358 C357 1.384 . S
C358 C359 1.364 . S
C358 C361 1.450 . S
C359 C354 1.367 . S
C359 C358 1.364 . S
C359 H419 0.931 . S
C360 C356 1.535 . S
C360 H420 0.959 1_655 S
C360 H421 0.961 1_655 S
C360 H422 0.959 . S
C361 C358 1.450 . S
C361 H423 0.960 . S
C361 H424 0.960 1_655 S
C361 H425 0.960 . S
C362 C363 1.309 . S
C362 C367 1.304 . S
C362 O400 1.435 . S
C363 C362 1.309 . S
C363 C364 1.476 . S
C363 H427 0.930 . S
C364 C363 1.476 . S
C364 C365 1.400 . S
C364 C368 1.567 . S
C365 C364 1.400 . S
C365 C366 1.373 . S
C365 C387 1.432 . S
C366 C365 1.373 . S
C366 C367 1.339 . S
C366 C369 1.530 . S
C367 C362 1.304 . S
C367 C366 1.339 . S
C367 H428 0.930 . S
C368 C364 1.567 . S
C368 H429 0.961 . S
C368 H430 0.960 . S
C368 H431 0.958 . S
C369 C366 1.530 . S
C369 H432 0.961 . S
C369 H433 0.960 . S
C369 H434 0.960 . S
C370 C371 1.530 . S
C370 H436 0.961 . S
C370 H437 0.961 . S
C370 H438 0.959 . S
C371 C370 1.530 . S
C371 O399 1.412 . S
C371 H435 0.980 . S
C372 C373 1.288 . S
C372 C377 1.377 . S
C372 O399 1.393 . S
C373 C372 1.288 . S
C373 C374 1.369 . S
C373 H439 0.932 . S
C374 C373 1.369 . S
C374 C375 1.398 . S
C374 C378 1.527 . S
C375 C374 1.398 . S
C375 C376 1.380 . S
C375 C389 1.497 . S
C376 C375 1.380 . S
C376 C377 1.383 . S
C376 C379 1.603 . S
C377 C372 1.377 . S
C377 C376 1.383 . S
C377 H440 0.929 . S
C378 C374 1.527 . S
C378 H441 0.961 . S
C378 H442 0.959 1_455 S
C378 H443 0.959 . S
C379 C376 1.603 . S
C379 H444 0.960 . S
C379 H445 0.962 . S
C379 H446 0.961 . S
C380 C347 1.587 . S
C380 C381 1.360 . S
C380 C393 1.412 . S
C381 C380 1.360 . S
C381 C382 1.365 . S
C381 H447 0.929 . S
C382 C357 1.553 1_455 S
C382 C381 1.365 . S
C382 C383 1.420 . S
C383 C382 1.420 . S
C383 C384 1.360 1_455 S
C383 C394 1.477 . S
C384 C383 1.360 1_655 S
C384 C385 1.322 . S
C384 H448 0.930 . S
C385 C384 1.322 . S
C385 C386 1.459 . S
C385 H449 0.929 . S
C386 C385 1.459 . S
C386 C387 1.445 . S
C386 C395 1.395 1_655 S
C387 C365 1.432 . S
C387 C386 1.445 . S
C387 C388 1.370 . S
C388 C387 1.370 . S
C388 C389 1.438 1_655 S
C388 H450 0.930 . S
C389 C375 1.497 . S
C389 C388 1.438 1_455 S
C389 C390 1.360 . S
C390 C389 1.360 . S
C390 C391 1.401 . S
C390 C395 1.446 . S
C391 C390 1.401 . S
C391 C392 1.347 . S
C391 H451 0.929 . S
C392 C391 1.347 . S
C392 C393 1.455 . S
C392 H452 0.930 . S
C393 C380 1.412 . S
C393 C392 1.455 . S
C393 C394 1.331 . S
C394 C383 1.477 . S
C394 C393 1.331 . S
C394 C395 1.497 . S
C395 C386 1.395 1_455 S
C395 C390 1.446 . S
C395 C394 1.497 . S
C396 C397 1.582 . S
C396 H453 0.962 . S
C396 H454 0.959 . S
C396 H455 0.958 . S
C397 C396 1.582 . S
C397 O400 1.458 . S
C397 H426 0.980 . S
O398 C343 1.426 . S
O398 C344 1.334 . S
O399 C371 1.412 . S
O399 C372 1.393 . S
O400 C362 1.435 . S
O400 C397 1.458 . S
O401 C353 1.468 . S
O401 C354 1.408 . S
H402 C343 0.980 . S
H403 C342 0.959 . S
H404 C342 0.959 . S
H405 C342 0.960 . S
H406 C345 0.929 . S
H407 C349 0.929 . S
H408 C350 0.959 . S
H409 C350 0.961 . S
H410 C350 0.961 . S
H411 C351 0.960 . S
H412 C351 0.960 . S
H413 C351 0.961 . S
H414 C353 0.980 . S
H415 C352 0.961 . S
H416 C352 0.960 . S
H417 C352 0.959 . S
H418 C355 0.930 . S
H419 C359 0.931 . S
H420 C360 0.959 1_455 S
H421 C360 0.961 1_455 S
H422 C360 0.959 . S
H423 C361 0.960 . S
H424 C361 0.960 1_455 S
H425 C361 0.960 . S
H426 C397 0.980 . S
H427 C363 0.930 . S
H428 C367 0.930 . S
H429 C368 0.961 . S
H430 C368 0.960 . S
H431 C368 0.958 . S
H432 C369 0.961 . S
H433 C369 0.960 . S
H434 C369 0.960 . S
H435 C371 0.980 . S
H436 C370 0.961 . S
H437 C370 0.961 . S
H438 C370 0.959 . S
H439 C373 0.932 . S
H440 C377 0.929 . S
H441 C378 0.961 . S
H442 C378 0.959 1_655 S
H443 C378 0.959 . S
H444 C379 0.960 . S
H445 C379 0.962 . S
H446 C379 0.961 . S
H447 C381 0.929 . S
H448 C384 0.930 . S
H449 C385 0.929 . S
H450 C388 0.930 . S
H451 C391 0.929 . S
H452 C392 0.930 . S
H453 C396 0.962 . S
H454 C396 0.959 . S
H455 C396 0.958 . S
C456 C457 1.560 . S
C456 H517 0.959 . S
C456 H518 0.959 . S
C456 H519 0.960 . S
C457 C456 1.560 . S
C457 O512 1.426 . S
C457 H516 0.980 . S
C458 C459 1.407 . S
C458 C463 1.418 . S
C458 O512 1.334 . S
C459 C458 1.407 . S
C459 C460 1.360 . S
C459 H520 0.929 . S
C460 C459 1.360 . S
C460 C461 1.401 . S
C460 C464 1.527 . S
C461 C460 1.401 . S
C461 C462 1.405 . S
C461 C494 1.587 . S
C462 C461 1.405 . S
C462 C463 1.332 . S
C462 C465 1.496 . S
C463 C458 1.418 . S
C463 C462 1.332 . S
C463 H521 0.929 . S
C464 C460 1.527 . S
C464 H522 0.959 . S
C464 H523 0.961 . S
C464 H524 0.961 . S
C465 C462 1.496 . S
C465 H525 0.960 . S
C465 H526 0.960 . S
C465 H527 0.961 . S
C466 C467 1.517 . S
C466 H529 0.961 . S
C466 H530 0.960 . S
C466 H531 0.959 . S
C467 C466 1.517 . S
C467 O515 1.468 . S
C467 H528 0.980 . S
C468 C469 1.349 . S
C468 C473 1.367 . S
C468 O515 1.408 . S
C469 C468 1.349 . S
C469 C470 1.407 . S
C469 H532 0.930 . S
C470 C469 1.407 . S
C470 C471 1.449 . S
C470 C474 1.535 . S
C471 C470 1.449 . S
C471 C472 1.384 . S
C471 C496 1.553 . S
C472 C471 1.384 . S
C472 C473 1.364 . S
C472 C475 1.450 . S
C473 C468 1.367 . S
C473 C472 1.364 . S
C473 H533 0.931 . S
C474 C470 1.535 . S
C474 H534 0.959 . S
C474 H535 0.961 . S
C474 H536 0.959 . S
C475 C472 1.450 . S
C475 H537 0.960 . S
C475 H538 0.960 . S
C475 H539 0.960 . S
C476 C477 1.309 . S
C476 C481 1.304 . S
C476 O514 1.435 . S
C477 C476 1.309 . S
C477 C478 1.476 . S
C477 H541 0.930 . S
C478 C477 1.476 . S
C478 C479 1.400 . S
C478 C482 1.567 . S
C479 C478 1.400 . S
C479 C480 1.373 . S
C479 C501 1.432 . S
C480 C479 1.373 . S
C480 C481 1.339 . S
C480 C483 1.530 . S
C481 C476 1.304 . S
C481 C480 1.339 . S
C481 H542 0.930 . S
C482 C478 1.567 . S
C482 H543 0.961 . S
C482 H544 0.960 . S
C482 H545 0.958 . S
C483 C480 1.530 . S
C483 H546 0.961 . S
C483 H547 0.960 . S
C483 H548 0.960 . S
C484 C485 1.530 . S
C484 H550 0.961 . S
C484 H551 0.961 . S
C484 H552 0.959 . S
C485 C484 1.530 . S
C485 O513 1.412 . S
C485 H549 0.980 . S
C486 C487 1.288 . S
C486 C491 1.377 . S
C486 O513 1.393 . S
C487 C486 1.288 . S
C487 C488 1.369 . S
C487 H553 0.932 . S
C488 C487 1.369 . S
C488 C489 1.398 . S
C488 C492 1.527 1_565 S
C489 C488 1.398 . S
C489 C490 1.380 . S
C489 C503 1.497 1_565 S
C490 C489 1.380 . S
C490 C491 1.383 . S
C490 C493 1.603 . S
C491 C486 1.377 . S
C491 C490 1.383 . S
C491 H554 0.929 . S
C492 C488 1.527 1_545 S
C492 H555 0.961 . S
C492 H556 0.959 . S
C492 H557 0.959 1_545 S
C493 C490 1.603 . S
C493 H558 0.960 . S
C493 H559 0.962 . S
C493 H560 0.961 . S
C494 C461 1.587 . S
C494 C495 1.360 . S
C494 C507 1.412 . S
C495 C494 1.360 . S
C495 C496 1.365 1_565 S
C495 H561 0.929 . S
C496 C471 1.553 . S
C496 C495 1.365 1_545 S
C496 C497 1.404 . S
C497 C496 1.404 . S
C497 C498 1.395 . S
C497 C508 1.433 1_545 S
C498 C497 1.395 . S
C498 C499 1.322 . S
C498 H562 0.930 . S
C499 C498 1.322 . S
C499 C500 1.483 . S
C499 H563 0.929 . S
C500 C499 1.483 . S
C500 C501 1.418 1_556 S
C500 C509 1.399 . S
C501 C479 1.432 . S
C501 C500 1.418 1_554 S
C501 C502 1.370 . S
C502 C501 1.370 . S
C502 C503 1.438 . S
C502 H564 0.930 . S
C503 C489 1.497 1_545 S
C503 C502 1.438 . S
C503 C504 1.360 1_545 S
C504 C503 1.360 1_565 S
C504 C505 1.401 . S
C504 C509 1.446 1_564 S
C505 C504 1.401 . S
C505 C506 1.347 1_554 S
C505 H565 0.929 . S
C506 C505 1.347 1_556 S
C506 C507 1.455 . S
C506 H566 0.930 . S
C507 C494 1.412 . S
C507 C506 1.455 . S
C507 C508 1.356 . S
C508 C497 1.433 1_565 S
C508 C507 1.356 . S
C508 C509 1.488 1_565 S
C509 C500 1.399 . S
C509 C504 1.446 1_546 S
C509 C508 1.488 1_545 S
C510 C511 1.582 . S
C510 H567 0.962 . S
C510 H568 0.959 . S
C510 H569 0.958 . S
C511 C510 1.582 . S
C511 O514 1.458 . S
C511 H540 0.980 . S
O512 C457 1.426 . S
O512 C458 1.334 . S
O513 C485 1.412 . S
O513 C486 1.393 . S
O514 C476 1.435 . S
O514 C511 1.458 . S
O515 C467 1.468 . S
O515 C468 1.408 . S
H516 C457 0.980 . S
H517 C456 0.959 . S
H518 C456 0.959 . S
H519 C456 0.960 . S
H520 C459 0.929 . S
H521 C463 0.929 . S
H522 C464 0.959 . S
H523 C464 0.961 . S
H524 C464 0.961 . S
H525 C465 0.960 . S
H526 C465 0.960 . S
H527 C465 0.961 . S
H528 C467 0.980 . S
H529 C466 0.961 . S
H530 C466 0.960 . S
H531 C466 0.959 . S
H532 C469 0.930 . S
H533 C473 0.931 . S
H534 C474 0.959 . S
H535 C474 0.961 . S
H536 C474 0.959 . S
H537 C475 0.960 . S
H538 C475 0.960 . S
H539 C475 0.960 . S
H540 C511 0.980 . S
H541 C477 0.930 . S
H542 C481 0.930 . S
H543 C482 0.961 . S
H544 C482 0.960 . S
H545 C482 0.958 . S
H546 C483 0.961 . S
H547 C483 0.960 . S
H548 C483 0.960 . S
H549 C485 0.980 . S
H550 C484 0.961 . S
H551 C484 0.961 . S
H552 C484 0.959 . S
H553 C487 0.932 . S
H554 C491 0.929 . S
H555 C492 0.961 . S
H556 C492 0.959 . S
H557 C492 0.959 1_565 S
H558 C493 0.960 . S
H559 C493 0.962 . S
H560 C493 0.961 . S
H561 C495 0.929 . S
H562 C498 0.930 . S
H563 C499 0.929 . S
H564 C502 0.930 . S
H565 C505 0.929 . S
H566 C506 0.930 . S
H567 C510 0.962 . S
H568 C510 0.959 . S
H569 C510 0.958 . S
C570 C571 1.560 . S
C570 H631 0.959 . S
C570 H632 0.959 . S
C570 H633 0.960 . S
C571 C570 1.560 . S
C571 O626 1.426 . S
C571 H630 0.980 . S
C572 C573 1.407 . S
C572 C577 1.418 . S
C572 O626 1.334 . S
C573 C572 1.407 . S
C573 C574 1.360 . S
C573 H634 0.929 . S
C574 C573 1.360 . S
C574 C575 1.401 . S
C574 C578 1.527 . S
C575 C574 1.401 . S
C575 C576 1.405 . S
C575 C608 1.587 . S
C576 C575 1.405 . S
C576 C577 1.332 . S
C576 C579 1.496 . S
C577 C572 1.418 . S
C577 C576 1.332 . S
C577 H635 0.929 . S
C578 C574 1.527 . S
C578 H636 0.959 . S
C578 H637 0.961 . S
C578 H638 0.961 . S
C579 C576 1.496 . S
C579 H639 0.960 . S
C579 H640 0.960 . S
C579 H641 0.961 . S
C580 C581 1.502 1_556 S
C580 H643 0.961 . S
C580 H644 0.960 . S
C580 H645 0.959 . S
C581 C580 1.502 1_554 S
C581 O629 1.476 . S
C581 H642 0.973 1_554 S
C582 C583 1.349 . S
C582 C587 1.367 . S
C582 O629 1.408 . S
C583 C582 1.349 . S
C583 C584 1.407 . S
C583 H646 0.930 . S
C584 C583 1.407 . S
C584 C585 1.449 . S
C584 C588 1.535 . S
C585 C584 1.449 . S
C585 C586 1.384 . S
C585 C610 1.553 . S
C586 C585 1.384 . S
C586 C587 1.364 . S
C586 C589 1.450 . S
C587 C582 1.367 . S
C587 C586 1.364 . S
C587 H647 0.931 . S
C588 C584 1.535 . S
C588 H648 0.959 . S
C588 H649 0.961 . S
C588 H650 0.959 . S
C589 C586 1.450 . S
C589 H651 0.960 . S
C589 H652 0.960 . S
C589 H653 0.960 . S
C590 C591 1.309 . S
C590 C595 1.304 . S
C590 O628 1.435 . S
C591 C590 1.309 . S
C591 C592 1.476 . S
C591 H655 0.930 . S
C592 C591 1.476 . S
C592 C593 1.400 . S
C592 C596 1.567 . S
C593 C592 1.400 . S
C593 C594 1.373 . S
C593 C615 1.432 . S
C594 C593 1.373 . S
C594 C595 1.339 . S
C594 C597 1.530 . S
C595 C590 1.304 . S
C595 C594 1.339 . S
C595 H656 0.930 . S
C596 C592 1.567 . S
C596 H657 0.961 . S
C596 H658 0.960 . S
C596 H659 0.958 . S
C597 C594 1.530 . S
C597 H660 0.961 . S
C597 H661 0.960 . S
C597 H662 0.960 . S
C598 C599 1.530 . S
C598 H664 0.961 . S
C598 H665 0.961 . S
C598 H666 0.959 . S
C599 C598 1.530 . S
C599 O627 1.412 . S
C599 H663 0.980 . S
C600 C601 1.288 . S
C600 C605 1.377 . S
C600 O627 1.393 . S
C601 C600 1.288 . S
C601 C602 1.369 . S
C601 H667 0.932 . S
C602 C601 1.369 . S
C602 C603 1.398 . S
C602 C606 1.527 . S
C603 C602 1.398 . S
C603 C604 1.380 . S
C603 C617 1.497 . S
C604 C603 1.380 . S
C604 C605 1.383 . S
C604 C607 1.603 . S
C605 C600 1.377 . S
C605 C604 1.383 . S
C605 H668 0.929 . S
C606 C602 1.527 . S
C606 H669 0.961 . S
C606 H670 0.959 . S
C606 H671 0.959 . S
C607 C604 1.603 . S
C607 H672 0.960 . S
C607 H673 0.962 . S
C607 H674 0.961 . S
C608 C575 1.587 . S
C608 C609 1.360 . S
C608 C621 1.412 . S
C609 C608 1.360 . S
C609 C610 1.365 . S
C609 H675 0.929 . S
C610 C585 1.553 . S
C610 C609 1.365 . S
C610 C611 1.404 . S
C611 C610 1.404 . S
C611 C612 1.395 . S
C611 C622 1.451 . S
C612 C611 1.395 . S
C612 C613 1.322 . S
C612 H676 0.930 . S
C613 C612 1.322 . S
C613 C614 1.459 . S
C613 H677 0.929 . S
C614 C613 1.459 . S
C614 C615 1.445 . S
C614 C623 1.395 . S
C615 C593 1.432 . S
C615 C614 1.445 . S
C615 C616 1.370 . S
C616 C615 1.370 . S
C616 C617 1.438 . S
C616 H678 0.930 . S
C617 C603 1.497 . S
C617 C616 1.438 . S
C617 C618 1.360 . S
C618 C617 1.360 . S
C618 C619 1.401 . S
C618 C623 1.446 . S
C619 C618 1.401 . S
C619 C620 1.347 . S
C619 H679 0.929 . S
C620 C619 1.347 . S
C620 C621 1.455 . S
C620 H680 0.930 . S
C621 C608 1.412 . S
C621 C620 1.455 . S
C621 C622 1.331 . S
C622 C611 1.451 . S
C622 C621 1.331 . S
C622 C623 1.497 . S
C623 C614 1.395 . S
C623 C618 1.446 . S
C623 C622 1.497 . S
C624 C625 1.582 . S
C624 H681 0.962 . S
C624 H682 0.959 . S
C624 H683 0.958 . S
C625 C624 1.582 . S
C625 O628 1.458 . S
C625 H654 0.980 . S
O626 C571 1.426 . S
O626 C572 1.334 . S
O627 C599 1.412 . S
O627 C600 1.393 . S
O628 C590 1.435 . S
O628 C625 1.458 . S
O629 C581 1.476 . S
O629 C582 1.408 . S
H630 C571 0.980 . S
H631 C570 0.959 . S
H632 C570 0.959 . S
H633 C570 0.960 . S
H634 C573 0.929 . S
H635 C577 0.929 . S
H636 C578 0.959 . S
H637 C578 0.961 . S
H638 C578 0.961 . S
H639 C579 0.960 . S
H640 C579 0.960 . S
H641 C579 0.961 . S
H642 C581 0.973 1_556 S
H643 C580 0.961 . S
H644 C580 0.960 . S
H645 C580 0.959 . S
H646 C583 0.930 . S
H647 C587 0.931 . S
H648 C588 0.959 . S
H649 C588 0.961 . S
H650 C588 0.959 . S
H651 C589 0.960 . S
H652 C589 0.960 . S
H653 C589 0.960 . S
H654 C625 0.980 . S
H655 C591 0.930 . S
H656 C595 0.930 . S
H657 C596 0.961 . S
H658 C596 0.960 . S
H659 C596 0.958 . S
H660 C597 0.961 . S
H661 C597 0.960 . S
H662 C597 0.960 . S
H663 C599 0.980 . S
H664 C598 0.961 . S
H665 C598 0.961 . S
H666 C598 0.959 . S
H667 C601 0.932 . S
H668 C605 0.929 . S
H669 C606 0.961 . S
H670 C606 0.959 . S
H671 C606 0.959 . S
H672 C607 0.960 . S
H673 C607 0.962 . S
H674 C607 0.961 . S
H675 C609 0.929 . S
H676 C612 0.930 . S
H677 C613 0.929 . S
H678 C616 0.930 . S
H679 C619 0.929 . S
H680 C620 0.930 . S
H681 C624 0.962 . S
H682 C624 0.959 . S
H683 C624 0.958 . S
C684 O685 1.160 . S
C684 O691 1.185 . S
O685 C684 1.160 . S
O686 Zn687 1.899 . S
O686 C694 1.284 . S
Zn687 O686 1.899 . S
Zn687 O688 2.032 . S
Zn687 O691 2.086 . S
Zn687 O696 1.977 . S
O688 Zn687 2.032 . S
O688 C692 1.278 . S
C689 O690 1.203 . S
C689 O696 1.267 . S
O690 C689 1.203 . S
O691 C684 1.185 . S
O691 Zn687 2.086 . S
C692 O688 1.278 . S
C692 O693 1.211 . S
O693 C692 1.211 . S
C694 O686 1.284 . S
C694 O695 1.273 . S
O695 C694 1.273 . S
O696 Zn687 1.977 . S
O696 C689 1.267 . S
C697 O698 1.160 . S
C697 O704 1.185 . S
O698 C697 1.160 . S
O699 Zn700 1.899 . S
O699 C707 1.284 . S
Zn700 O699 1.899 . S
Zn700 O701 2.032 . S
Zn700 O704 2.086 . S
Zn700 O709 1.977 . S
O701 Zn700 2.032 . S
O701 C705 1.278 . S
C702 O703 1.203 . S
C702 O709 1.267 . S
O703 C702 1.203 . S
O704 C697 1.185 . S
O704 Zn700 2.086 . S
C705 O701 1.278 . S
C705 O706 1.211 . S
O706 C705 1.211 . S
C707 O699 1.284 . S
C707 O708 1.273 . S
O708 C707 1.273 . S
O709 Zn700 1.977 . S
O709 C702 1.267 . S
C710 O711 1.160 . S
C710 O717 1.185 . S
O711 C710 1.160 . S
O712 Zn713 1.899 . S
O712 C720 1.284 . S
Zn713 O712 1.899 . S
Zn713 O714 2.032 . S
Zn713 O717 2.086 . S
Zn713 O722 1.977 . S
O714 Zn713 2.032 . S
O714 C718 1.278 . S
C715 O716 1.203 . S
C715 O722 1.267 . S
O716 C715 1.203 . S
O717 C710 1.185 . S
O717 Zn713 2.086 . S
C718 O714 1.278 . S
C718 O719 1.211 . S
O719 C718 1.211 . S
C720 O712 1.284 . S
C720 O721 1.273 . S
O721 C720 1.273 . S
O722 Zn713 1.977 . S
O722 C715 1.267 . S
C723 O724 1.160 . S
C723 O730 1.185 . S
O724 C723 1.160 . S
O725 Zn726 1.899 . S
O725 C733 1.284 . S
Zn726 O725 1.899 . S
Zn726 O727 2.032 . S
Zn726 O730 2.086 . S
Zn726 O735 1.977 . S
O727 Zn726 2.032 . S
O727 C731 1.278 . S
C728 O729 1.203 . S
C728 O735 1.267 . S
O729 C728 1.203 . S
O730 C723 1.185 . S
O730 Zn726 2.086 . S
C731 O727 1.278 . S
C731 O732 1.211 . S
O732 C731 1.211 . S
C733 O725 1.284 . S
C733 O734 1.273 . S
O734 C733 1.273 . S
O735 Zn726 1.977 . S
O735 C728 1.267 . S
C736 O737 1.160 . S
C736 O743 1.185 . S
O737 C736 1.160 . S
O738 Zn739 1.899 . S
O738 C746 1.284 . S
Zn739 O738 1.899 . S
Zn739 O740 2.032 . S
Zn739 O743 2.086 . S
Zn739 O748 1.977 . S
O740 Zn739 2.032 . S
O740 C744 1.278 . S
C741 O742 1.203 . S
C741 O748 1.267 . S
O742 C741 1.203 . S
O743 C736 1.185 . S
O743 Zn739 2.086 . S
C744 O740 1.278 . S
C744 O745 1.211 . S
O745 C744 1.211 . S
C746 O738 1.284 . S
C746 O747 1.273 . S
O747 C746 1.273 . S
O748 Zn739 1.977 . S
O748 C741 1.267 . S
C749 O750 1.160 . S
C749 O756 1.185 . S
O750 C749 1.160 . S
O751 Zn752 1.899 . S
O751 C759 1.284 . S
Zn752 O751 1.899 . S
Zn752 O753 2.032 . S
Zn752 O756 2.086 . S
Zn752 O761 1.977 . S
O753 Zn752 2.032 . S
O753 C757 1.278 . S
C754 O755 1.203 . S
C754 O761 1.267 . S
O755 C754 1.203 . S
O756 C749 1.185 . S
O756 Zn752 2.086 . S
C757 O753 1.278 . S
C757 O758 1.211 . S
O758 C757 1.211 . S
C759 O751 1.284 . S
C759 O760 1.273 . S
O760 C759 1.273 . S
O761 Zn752 1.977 . S
O761 C754 1.267 . S
C762 C763 1.387 . S
C762 H766 0.950 . S
C762 C771 1.390 . S
C763 C762 1.387 . S
C763 C765 1.387 . S
H764 C771 0.950 . S
C765 C763 1.387 . S
C765 C767 1.390 . S
C765 H769 0.950 . S
H766 C762 0.950 . S
C767 C765 1.390 . S
C767 C768 1.387 . S
C767 H770 0.950 . S
C768 C767 1.387 . S
C768 C771 1.387 . S
H769 C765 0.950 . S
H770 C767 0.950 . S
C771 C762 1.390 . S
C771 H764 0.950 . S
C771 C768 1.387 . S
C772 C773 1.387 . S
C772 H776 0.950 . S
C772 C781 1.390 . S
C773 C772 1.387 . S
C773 C775 1.387 . S
H774 C781 0.950 . S
C775 C773 1.387 . S
C775 C777 1.390 . S
C775 H779 0.950 . S
H776 C772 0.950 . S
C777 C775 1.390 . S
C777 C778 1.387 . S
C777 H780 0.950 . S
C778 C777 1.387 . S
C778 C781 1.387 . S
H779 C775 0.950 . S
H780 C777 0.950 . S
C781 C772 1.390 . S
C781 H774 0.950 . S
C781 C778 1.387 . S
C782 C783 1.387 . S
C782 H786 0.950 . S
C782 C791 1.390 . S
C783 C782 1.387 . S
C783 C785 1.387 . S
H784 C791 0.950 . S
C785 C783 1.387 . S
C785 C787 1.390 . S
C785 H789 0.950 . S
H786 C782 0.950 . S
C787 C785 1.390 . S
C787 C788 1.387 . S
C787 H790 0.950 . S
C788 C787 1.387 . S
C788 C791 1.387 . S
H789 C785 0.950 . S
H790 C787 0.950 . S
C791 C782 1.390 . S
C791 H784 0.950 . S
C791 C788 1.387 . S
C792 C793 1.387 . S
C792 H796 0.950 . S
C792 C801 1.390 . S
C793 C792 1.387 . S
C793 C795 1.387 . S
H794 C801 0.950 . S
C795 C793 1.387 . S
C795 C797 1.390 . S
C795 H799 0.950 . S
H796 C792 0.950 . S
C797 C795 1.390 . S
C797 C798 1.387 . S
C797 H800 0.950 . S
C798 C797 1.387 . S
C798 C801 1.387 . S
H799 C795 0.950 . S
H800 C797 0.950 . S
C801 C792 1.390 . S
C801 H794 0.950 . S
C801 C798 1.387 . S
C802 C803 1.387 . S
C802 H806 0.950 . S
C802 C811 1.390 . S
C803 C802 1.387 . S
C803 C805 1.387 . S
H804 C811 0.950 . S
C805 C803 1.387 . S
C805 C807 1.390 . S
C805 H809 0.950 . S
H806 C802 0.950 . S
C807 C805 1.390 . S
C807 C808 1.387 . S
C807 H810 0.950 . S
C808 C807 1.387 . S
C808 C811 1.387 . S
H809 C805 0.950 . S
H810 C807 0.950 . S
C811 C802 1.390 . S
C811 H804 0.950 . S
C811 C808 1.387 . S
C812 C813 1.387 . S
C812 H816 0.950 . S
C812 C821 1.390 . S
C813 C812 1.387 . S
C813 C815 1.387 . S
H814 C821 0.950 . S
C815 C813 1.387 . S
C815 C817 1.390 . S
C815 H819 0.950 . S
H816 C812 0.950 . S
C817 C815 1.390 . S
C817 C818 1.387 . S
C817 H820 0.950 . S
C818 C817 1.387 . S
C818 C821 1.387 . S
H819 C815 0.950 . S
H820 C817 0.950 . S
C821 C812 1.390 . S
C821 H814 0.950 . S
C821 C818 1.387 . S
C822 C823 1.387 . S
C822 H826 0.950 . S
C822 C831 1.390 . S
C823 C822 1.387 . S
C823 C825 1.387 . S
H824 C831 0.950 . S
C825 C823 1.387 . S
C825 C827 1.390 . S
C825 H829 0.950 . S
H826 C822 0.950 . S
C827 C825 1.390 . S
C827 C828 1.387 . S
C827 H830 0.950 . S
C828 C827 1.387 . S
C828 C831 1.387 . S
H829 C825 0.950 . S
H830 C827 0.950 . S
C831 C822 1.390 . S
C831 H824 0.950 . S
C831 C828 1.387 . S
C832 C833 1.387 . S
C832 H836 0.950 . S
C832 C841 1.390 . S
C833 C832 1.387 . S
C833 C835 1.387 . S
H834 C841 0.950 . S
C835 C833 1.387 . S
C835 C837 1.390 . S
C835 H839 0.950 . S
H836 C832 0.950 . S
C837 C835 1.390 . S
C837 C838 1.387 . S
C837 H840 0.950 . S
C838 C837 1.387 . S
C838 C841 1.387 . S
H839 C835 0.950 . S
H840 C837 0.950 . S
C841 C832 1.390 . S
C841 H834 0.950 . S
C841 C838 1.387 . S
C842 C843 1.387 . S
C842 H846 0.950 . S
C842 C851 1.390 . S
C843 C842 1.387 . S
C843 C845 1.387 . S
H844 C851 0.950 . S
C845 C843 1.387 . S
C845 C847 1.390 . S
C845 H849 0.950 . S
H846 C842 0.950 . S
C847 C845 1.390 . S
C847 C848 1.387 . S
C847 H850 0.950 . S
C848 C847 1.387 . S
C848 C851 1.387 . S
H849 C845 0.950 . S
H850 C847 0.950 . S
C851 C842 1.390 . S
C851 H844 0.950 . S
C851 C848 1.387 . S
C852 C853 1.387 . S
C852 H856 0.950 . S
C852 C861 1.390 . S
C853 C852 1.387 . S
C853 C855 1.387 . S
H854 C861 0.950 . S
C855 C853 1.387 . S
C855 C857 1.390 . S
C855 H859 0.950 . S
H856 C852 0.950 . S
C857 C855 1.390 . S
C857 C858 1.387 . S
C857 H860 0.950 . S
C858 C857 1.387 . S
C858 C861 1.387 . S
H859 C855 0.950 . S
H860 C857 0.950 . S
C861 C852 1.390 . S
C861 H854 0.950 . S
C861 C858 1.387 . S
C862 C863 1.387 . S
C862 H866 0.950 . S
C862 C871 1.390 . S
C863 C862 1.387 . S
C863 C865 1.387 . S
H864 C871 0.950 . S
C865 C863 1.387 . S
C865 C867 1.390 . S
C865 H869 0.950 . S
H866 C862 0.950 . S
C867 C865 1.390 . S
C867 C868 1.387 . S
C867 H870 0.950 . S
C868 C867 1.387 . S
C868 C871 1.387 . S
H869 C865 0.950 . S
H870 C867 0.950 . S
C871 C862 1.390 . S
C871 H864 0.950 . S
C871 C868 1.387 . S
C872 C873 1.387 . S
C872 H876 0.950 . S
C872 C881 1.390 . S
C873 C872 1.387 . S
C873 C875 1.387 . S
H874 C881 0.950 . S
C875 C873 1.387 . S
C875 C877 1.390 . S
C875 H879 0.950 . S
H876 C872 0.950 . S
C877 C875 1.390 . S
C877 C878 1.387 . S
C877 H880 0.950 . S
C878 C877 1.387 . S
C878 C881 1.387 . S
H879 C875 0.950 . S
H880 C877 0.950 . S
C881 C872 1.390 . S
C881 H874 0.950 . S
C881 C878 1.387 . S
C882 C883 1.387 . S
C882 H886 0.950 . S
C882 C891 1.390 . S
C883 C882 1.387 . S
C883 C885 1.387 . S
H884 C891 0.950 . S
C885 C883 1.387 . S
C885 C887 1.390 . S
C885 H889 0.950 . S
H886 C882 0.950 . S
C887 C885 1.390 . S
C887 C888 1.387 . S
C887 H890 0.950 . S
C888 C887 1.387 . S
C888 C891 1.387 . S
H889 C885 0.950 . S
H890 C887 0.950 . S
C891 C882 1.390 . S
C891 H884 0.950 . S
C891 C888 1.387 . S
C892 C893 1.387 . S
C892 H896 0.950 . S
C892 C901 1.390 . S
C893 C892 1.387 . S
C893 C895 1.387 . S
H894 C901 0.950 . S
C895 C893 1.387 . S
C895 C897 1.390 . S
C895 H899 0.950 . S
H896 C892 0.950 . S
C897 C895 1.390 . S
C897 C898 1.387 . S
C897 H900 0.950 . S
C898 C897 1.387 . S
C898 C901 1.387 . S
H899 C895 0.950 . S
H900 C897 0.950 . S
C901 C892 1.390 . S
C901 H894 0.950 . S
C901 C898 1.387 . S
C902 C903 1.387 . S
C902 H906 0.950 . S
C902 C911 1.390 . S
C903 C902 1.387 . S
C903 C905 1.387 . S
H904 C911 0.950 . S
C905 C903 1.387 . S
C905 C907 1.390 . S
C905 H909 0.950 . S
H906 C902 0.950 . S
C907 C905 1.390 . S
C907 C908 1.387 . S
C907 H910 0.950 . S
C908 C907 1.387 . S
C908 C911 1.387 . S
H909 C905 0.950 . S
H910 C907 0.950 . S
C911 C902 1.390 . S
C911 H904 0.950 . S
C911 C908 1.387 . S
C912 C913 1.387 . S
C912 H916 0.950 . S
C912 C921 1.390 . S
C913 C912 1.387 . S
C913 C915 1.387 . S
H914 C921 0.950 1_554 S
C915 C913 1.387 . S
C915 C917 1.390 . S
C915 H919 0.950 . S
H916 C912 0.950 . S
C917 C915 1.390 . S
C917 C918 1.387 1_556 S
C917 H920 0.950 1_556 S
C918 C917 1.387 1_554 S
C918 C921 1.387 1_554 S
H919 C915 0.950 . S
H920 C917 0.950 1_554 S
C921 C912 1.390 . S
C921 H914 0.950 1_556 S
C921 C918 1.387 1_556 S
C922 C923 1.387 . S
C922 H926 0.950 . S
C922 C931 1.390 . S
C923 C922 1.387 . S
C923 C925 1.387 . S
H924 C931 0.950 . S
C925 C923 1.387 . S
C925 C927 1.390 . S
C925 H929 0.950 . S
H926 C922 0.950 . S
C927 C925 1.390 . S
C927 C928 1.387 . S
C927 H930 0.950 . S
C928 C927 1.387 . S
C928 C931 1.387 . S
H929 C925 0.950 . S
H930 C927 0.950 . S
C931 C922 1.390 . S
C931 H924 0.950 . S
C931 C928 1.387 . S
C932 C933 1.387 . S
C932 H936 0.950 . S
C932 C941 1.390 . S
C933 C932 1.387 . S
C933 C935 1.387 . S
H934 C941 0.950 . S
C935 C933 1.387 . S
C935 C937 1.390 . S
C935 H939 0.950 . S
H936 C932 0.950 . S
C937 C935 1.390 . S
C937 C938 1.387 . S
C937 H940 0.950 . S
C938 C937 1.387 . S
C938 C941 1.387 . S
H939 C935 0.950 . S
H940 C937 0.950 . S
C941 C932 1.390 . S
C941 H934 0.950 . S
C941 C938 1.387 . S
C942 C943 1.387 . S
C942 H946 0.950 . S
C942 C951 1.390 . S
C943 C942 1.387 . S
C943 C945 1.387 . S
H944 C951 0.950 . S
C945 C943 1.387 . S
C945 C947 1.390 . S
C945 H949 0.950 . S
H946 C942 0.950 . S
C947 C945 1.390 . S
C947 C948 1.387 . S
C947 H950 0.950 . S
C948 C947 1.387 . S
C948 C951 1.387 . S
H949 C945 0.950 . S
H950 C947 0.950 . S
C951 C942 1.390 . S
C951 H944 0.950 . S
C951 C948 1.387 . S
C952 C953 1.387 . S
C952 H956 0.950 . S
C952 C961 1.390 . S
C953 C952 1.387 . S
C953 C955 1.387 . S
H954 C961 0.950 . S
C955 C953 1.387 . S
C955 C957 1.390 . S
C955 H959 0.950 . S
H956 C952 0.950 . S
C957 C955 1.390 . S
C957 C958 1.387 . S
C957 H960 0.950 . S
C958 C957 1.387 . S
C958 C961 1.387 . S
H959 C955 0.950 . S
H960 C957 0.950 . S
C961 C952 1.390 . S
C961 H954 0.950 . S
C961 C958 1.387 . S
C962 C963 1.387 . S
C962 H966 0.950 . S
C962 C971 1.390 . S
C963 C962 1.387 . S
C963 C965 1.387 . S
H964 C971 0.950 . S
C965 C963 1.387 . S
C965 C967 1.390 . S
C965 H969 0.950 . S
H966 C962 0.950 . S
C967 C965 1.390 . S
C967 C968 1.387 . S
C967 H970 0.950 . S
C968 C967 1.387 . S
C968 C971 1.387 . S
H969 C965 0.950 . S
H970 C967 0.950 . S
C971 C962 1.390 . S
C971 H964 0.950 . S
C971 C968 1.387 . S
C972 C973 1.387 . S
C972 H976 0.950 . S
C972 C981 1.390 . S
C973 C972 1.387 . S
C973 C975 1.387 . S
H974 C981 0.950 . S
C975 C973 1.387 . S
C975 C977 1.390 . S
C975 H979 0.950 . S
H976 C972 0.950 . S
C977 C975 1.390 . S
C977 C978 1.387 . S
C977 H980 0.950 . S
C978 C977 1.387 . S
C978 C981 1.387 . S
H979 C975 0.950 . S
H980 C977 0.950 . S
C981 C972 1.390 . S
C981 H974 0.950 . S
C981 C978 1.387 . S
C982 C983 1.387 . S
C982 H986 0.950 . S
C982 C991 1.390 . S
C983 C982 1.387 . S
C983 C985 1.387 . S
H984 C991 0.950 . S
C985 C983 1.387 . S
C985 C987 1.390 . S
C985 H989 0.950 1_556 S
H986 C982 0.950 . S
C987 C985 1.390 . S
C987 C988 1.387 . S
C987 H990 0.950 . S
C988 C987 1.387 . S
C988 C991 1.387 . S
H989 C985 0.950 1_554 S
H990 C987 0.950 . S
C991 C982 1.390 . S
C991 H984 0.950 . S
C991 C988 1.387 . S
C992 C993 1.387 . S
C992 H996 0.950 . S
C992 C1001 1.390 . S
C993 C992 1.387 . S
C993 C995 1.387 . S
H994 C1001 0.950 . S
C995 C993 1.387 . S
C995 C997 1.390 . S
C995 H999 0.950 . S
H996 C992 0.950 . S
C997 C995 1.390 . S
C997 C998 1.387 . S
C997 H1000 0.950 . S
C998 C997 1.387 . S
C998 C1001 1.387 . S
H999 C995 0.950 . S
H1000 C997 0.950 . S
C1001 C992 1.390 . S
C1001 H994 0.950 . S
C1001 C998 1.387 . S
C768 C759 1.858 . S
C763 C1 1.335 . S
C773 C169 1.697 . S
C778 C684 1.694 . S
C783 C283 1.830 . S
C788 C707 2.002 . S
C793 C397 1.262 . S
C798 C720 1.504 . S
C808 C723 1.595 . S
C803 C457 1.238 . S
C813 C571 1.133 . S
C818 C736 1.432 . S
C823 C115 1.223 . S
C828 C697 1.533 . S
C833 C229 1.243 . S
C838 C710 1.619 . S
C843 C343 1.074 . S
C848 C733 1.403 . S
C858 C746 1.894 . S
C853 C511 1.726 . S
C868 C749 1.665 . S
C863 C625 1.660 . S
C878 C694 1.972 . S
C873 C55 1.805 . S
C883 C29 1.157 . S
C888 C705 1.417 . S
C893 C125 0.893 . S
C898 C718 1.468 . S
C908 C728 1.423 . S
C903 C239 0.905 . S
C913 C353 0.847 . S
C918 C741 1.386 . S
C928 C757 1.402 . S
C923 C485 1.083 . S
C938 C689 1.402 . S
C933 C599 1.134 . S
C948 C754 1.396 . S
C943 C143 1.147 . S
C953 C257 1.137 . S
C958 C692 1.456 . S
C968 C702 1.356 . S
C963 C371 1.180 . S
C973 C467 0.928 . S
C978 C715 1.424 . S
C983 C581 0.863 1_556 S
C988 C731 1.414 . S
C993 C11 0.912 . S
C998 C744 1.483 . S
