# Generated by pormake.
# Topology tsx, (6,3)-cn, num edge types: 1
# Building blocks:
#     Node 0, Type 0, BuildingBlock: JUFBIX_clean_sbu_0, # of connection points: 6
#     Node 1, Type 0, BuildingBlock: JUFBIX_clean_sbu_0, # of connection points: 6
#     Node 2, Type 1, BuildingBlock: BETDIP_clean_linker_0, # of connection points: 3
#     Node 3, Type 1, BuildingBlock: BETDIP_clean_linker_0, # of connection points: 3
#     Node 4, Type 1, BuildingBlock: BETDIP_clean_linker_0, # of connection points: 3
#     Node 5, Type 1, BuildingBlock: BETDIP_clean_linker_0, # of connection points: 3
#     Edge 6, Type (0, 1), BuildingBlock: MIFKUJ_clean_linker_0, # of connection points: 2
#     Edge 7, Type (0, 1), BuildingBlock: MIFKUJ_clean_linker_0, # of connection points: 2
#     Edge 8, Type (0, 1), BuildingBlock: MIFKUJ_clean_linker_0, # of connection points: 2
#     Edge 9, Type (0, 1), BuildingBlock: MIFKUJ_clean_linker_0, # of connection points: 2
#     Edge 10, Type (0, 1), BuildingBlock: MIFKUJ_clean_linker_0, # of connection points: 2
#     Edge 11, Type (0, 1), BuildingBlock: MIFKUJ_clean_linker_0, # of connection points: 2
#     Edge 12, Type (0, 1), BuildingBlock: MIFKUJ_clean_linker_0, # of connection points: 2
#     Edge 13, Type (0, 1), BuildingBlock: MIFKUJ_clean_linker_0, # of connection points: 2
#     Edge 14, Type (0, 1), BuildingBlock: MIFKUJ_clean_linker_0, # of connection points: 2
#     Edge 15, Type (0, 1), BuildingBlock: MIFKUJ_clean_linker_0, # of connection points: 2
#     Edge 16, Type (0, 1), BuildingBlock: MIFKUJ_clean_linker_0, # of connection points: 2
#     Edge 17, Type (0, 1), BuildingBlock: MIFKUJ_clean_linker_0, # of connection points: 2
# Relax obj value: 0.106
# Max RMSD: 0.130
# Mean RMSD: 0.117
data_MOF--net-tsx--node1-JUFBIX_clean_sbu_0--node2-BETDIP_clean_linker_0--edge1-MIFKUJ_clean_linker_0
_symmetry_space_group_name_H-M    P1
_symmetry_Int_Tables_number       1
_symmetry_cell_setting            triclinic
loop_
_symmetry_equiv_pos_as_xyz
'x, y, z'
_cell_length_a     26.19012
_cell_length_b     30.71713
_cell_length_c     42.642411
_cell_angle_alpha  91.767735
_cell_angle_beta   99.62401
_cell_angle_gamma 97.352068
loop_
_atom_site_label
_atom_site_type_symbol
_atom_site_fract_x
_atom_site_fract_y
_atom_site_fract_z
_atom_type_partial_charge
Co0 Co 0.05163 0.99115 -0.00255 0.0
C1 C 1.00021 0.02279 0.94084 0.0
Co2 Co 0.99193 0.0347 0.00307 0.0
C3 C 0.11903 0.92087 0.00119 0.0
C4 C 0.13459 0.96892 0.96745 0.0
N5 N 0.10393 0.95855 0.98935 0.0
N6 N 0.15714 0.9073 0.98695 0.0
C7 C 0.16687 0.93745 0.96576 0.0
H8 H 0.10164 0.90322 0.01922 0.0
H9 H 0.13326 0.9975 0.9533 0.0
C10 C 0.04396 0.00444 0.05982 0.0
N11 N 0.93948 0.06697 0.01107 0.0
C12 C 0.92538 0.10523 -0.00013 0.0
C13 C 0.90512 0.05411 0.03037 0.0
N14 N 0.8832 0.11624 0.01125 0.0
C15 C 0.87062 0.0841 0.03048 0.0
C16 C 0.95492 0.94418 0.9949 0.0
O17 O 0.06832 0.98384 0.04201 0.0
O18 O 0.01014 0.02786 0.04735 0.0
O19 O 0.94349 0.98268 -0.00101 0.0
O20 O 1.00188 0.93925 0.99316 0.0
O21 O 0.97459 0.04163 0.95878 0.0
H22 H 0.905 0.02453 0.04351 0.0
H23 H 0.94499 0.12413 0.98327 0.0
O24 O 0.0341 0.99921 0.95302 0.0
O25 O 0.10065 0.04354 0.00175 0.0
O26 O 0.04089 0.0861 0.0069 0.0
C27 C 0.08805 0.08183 0.00529 0.0
H28 H 0.19559 0.93678 0.95025 0.0
H29 H 0.83898 0.08259 0.04398 0.0
Co30 Co 0.55569 0.4751 0.50269 0.0
C31 C 0.50778 0.50272 0.44362 0.0
Co32 Co 0.49098 0.5147 0.50421 0.0
C33 C 0.62594 0.4069 0.50672 0.0
C34 C 0.65172 0.46392 0.48295 0.0
N35 N 0.61299 0.44666 0.49798 0.0
N36 N 0.67163 0.39933 0.49807 0.0
C37 C 0.68767 0.43521 0.48311 0.0
H38 H 0.60247 0.38407 0.51914 0.0
H39 H 0.65335 0.49523 0.47199 0.0
C40 C 0.53879 0.4876 0.56333 0.0
N41 N 0.43357 0.54262 0.50895 0.0
C42 C 0.41812 0.58053 0.49792 0.0
C43 C 0.39704 0.52674 0.52604 0.0
N44 N 0.37314 0.58847 0.50735 0.0
C45 C 0.36006 0.55463 0.52508 0.0
C46 C 0.46187 0.4227 0.49631 0.0
O47 O 0.56889 0.47011 0.54766 0.0
O48 O 0.50336 0.50779 0.54867 0.0
O49 O 0.44683 0.46027 0.49797 0.0
O50 O 0.51038 0.42028 0.49795 0.0
O51 O 0.47941 0.52146 0.45981 0.0
H52 H 0.39745 0.49674 0.53866 0.0
H53 H 0.43915 0.60156 0.48308 0.0
O54 O 0.54188 0.48063 0.45772 0.0
O55 O 0.59997 0.53054 0.50772 0.0
O56 O 0.53557 0.56892 0.51021 0.0
C57 C 0.58395 0.56763 0.51047 0.0
H58 H 0.72227 0.43982 0.47215 0.0
H59 H 0.32658 0.55066 0.53707 0.0
H60 H 0.04117 0.9628 0.48555 0.0
H61 H 0.99412 0.02264 0.39734 0.0
H62 H 0.10052 0.92633 0.40185 0.0
H63 H 0.02318 0.08527 0.44279 0.0
C64 C 0.9908 0.0701 0.45346 0.0
C65 C 0.04257 0.96588 0.46045 0.0
C66 C 0.0738 0.94093 0.44543 0.0
C67 C 0.01542 0.99664 0.44334 0.0
C68 C 0.017 1.00021 0.41068 0.0
C69 C 0.0467 0.97428 0.39516 0.0
C70 C 0.07585 0.94549 0.41306 0.0
N71 N 0.98728 0.02453 0.45905 0.0
H72 H 0.9709 0.97938 0.52117 0.0
H73 H 0.02141 0.08185 0.59513 0.0
H74 H 0.91395 0.97012 0.61022 0.0
H75 H 1.00318 0.12052 0.54109 0.0
C76 C 0.03395 0.1035 0.53428 0.0
C77 C 0.96924 0.993 0.54466 0.0
C78 C 0.93879 0.96956 0.56442 0.0
C79 C 0.99805 0.03402 0.55534 0.0
C80 C 0.99765 0.05103 0.5863 0.0
C81 C 0.96736 0.02797 0.60611 0.0
C82 C 0.93741 0.98783 0.59481 0.0
N83 N 0.02933 0.05705 0.53545 0.0
H84 H 0.57266 0.50623 0.99466 0.0
H85 H 0.52382 0.56231 0.90494 0.0
H86 H 0.62157 0.45962 0.90995 0.0
H87 H 0.53507 0.62436 0.94059 0.0
C88 C 0.51142 0.60986 0.95724 0.0
C89 C 0.57261 0.5077 0.96931 0.0
C90 C 0.60123 0.48027 0.95426 0.0
C91 C 0.54551 0.5382 0.95175 0.0
C92 C 0.54546 0.53953 0.91873 0.0
C93 C 0.57293 0.51141 0.90335 0.0
C94 C 0.60083 0.48209 0.92146 0.0
N95 N 0.51805 0.56692 0.96742 0.0
H96 H 0.48004 0.49282 0.01597 0.0
H97 H 0.54101 0.5728 0.10205 0.0
H98 H 0.43179 0.45656 0.10437 0.0
H99 H 0.51936 0.62548 0.05578 0.0
C100 C 0.54757 0.61127 0.04397 0.0
C101 C 0.48198 0.49892 0.04134 0.0
C102 C 0.45108 0.47085 0.0582 0.0
C103 C 0.51343 0.53629 0.05694 0.0
C104 C 0.51562 0.54459 0.08979 0.0
C105 C 0.4871 0.51532 0.10707 0.0
C106 C 0.45454 0.47887 0.09109 0.0
N107 N 0.5434 0.56496 0.03948 0.0
H108 H 0.07852 0.16709 0.02059 0.0
H109 H 0.14315 0.23188 0.02077 0.0
H110 H 0.25084 0.15028 0.99124 0.0
H111 H 0.1869 0.08509 0.99193 0.0
H112 H 0.30065 0.20788 0.03577 0.0
H113 H 0.18446 0.21599 0.93843 0.0
H114 H 0.09931 0.21513 0.90336 0.0
H115 H 0.07119 0.32938 0.95501 0.0
H116 H 0.15587 0.33057 0.9907 0.0
H117 H 0.47139 0.40357 0.02051 0.0
H118 H 0.41178 0.33608 0.00096 0.0
H119 H 0.28864 0.38683 0.04052 0.0
H120 H 0.34777 0.4538 0.05998 0.0
H121 H 0.2527 0.34133 0.98169 0.0
H122 H 0.36299 0.32363 0.08356 0.0
H123 H 0.44843 0.32411 0.11831 0.0
H124 H 0.48811 0.22665 0.05552 0.0
H125 H 0.40309 0.22608 0.02015 0.0
C126 C 0.11597 0.16292 0.01417 0.0
C127 C 0.12757 0.12099 0.00621 0.0
C128 C 0.15277 0.20003 0.01404 0.0
C129 C 0.20151 0.19607 0.00538 0.0
C130 C 0.21343 0.15416 -0.00216 0.0
C131 C 0.17683 0.11695 -0.00173 0.0
C132 C 0.2404 0.23565 0.00511 0.0
C133 C 0.29046 0.23667 0.02333 0.0
C134 C 0.22716 0.27341 0.98903 0.0
C135 C 0.17644 0.2732 0.96737 0.0
C136 C 0.16 0.24079 0.94243 0.0
C137 C 0.11182 0.24026 0.92242 0.0
C138 C 0.07982 0.27214 0.92698 0.0
C139 C 0.09602 0.30471 0.9515 0.0
C140 C 0.14415 0.30537 0.9716 0.0
C141 C 0.43124 0.40051 0.02434 0.0
C142 C 0.4141 0.4334 0.042 0.0
C143 C 0.39738 0.36206 0.01329 0.0
C144 C 0.34601 0.3564 0.0196 0.0
C145 C 0.32808 0.39057 0.0354 0.0
C146 C 0.3619 0.42862 0.04666 0.0
C147 C 0.31212 0.31362 0.01286 0.0
C148 C 0.26305 0.31206 0.99343 0.0
C149 C 0.32632 0.27526 0.02759 0.0
C150 C 0.37703 0.27518 0.04906 0.0
C151 C 0.3901 0.30253 0.07707 0.0
C152 C 0.43841 0.30279 0.09688 0.0
C153 C 0.47374 0.27552 0.08908 0.0
C154 C 0.46075 0.24782 0.0615 0.0
C155 C 0.41251 0.2475 0.04157 0.0
H156 H 0.51113 0.27577 0.10444 0.0
H157 H 0.04251 0.27166 0.91148 0.0
H158 H 0.1716 0.84947 0.94198 0.0
H159 H 0.22681 0.79072 0.94902 0.0
H160 H 0.25895 0.82103 0.05042 0.0
H161 H 0.20236 0.87961 0.04326 0.0
H162 H 0.34935 0.82011 0.0219 0.0
H163 H 0.19299 0.7263 0.02733 0.0
H164 H 0.10054 0.69474 0.01123 0.0
H165 H 0.13246 0.64782 0.92156 0.0
H166 H 0.22498 0.67969 0.9369 0.0
H167 H 0.44034 0.58633 0.99704 0.0
H168 H 0.37868 0.63181 0.01463 0.0
H169 H 0.43759 0.73831 0.96117 0.0
H170 H 0.49977 0.69362 0.94441 0.0
H171 H 0.30018 0.66491 0.9808 0.0
H172 H 0.42781 0.834 0.99039 0.0
H173 H 0.51985 0.86643 0.00722 0.0
H174 H 0.54464 0.76294 0.07112 0.0
H175 H 0.45272 0.72956 0.05445 0.0
C176 C 0.18955 0.84283 0.96581 0.0
C177 C 0.18277 0.86878 0.9921 0.0
C178 C 0.22096 0.80929 0.96985 0.0
C179 C 0.24692 0.80139 0.00025 0.0
C180 C 0.23906 0.82646 0.02677 0.0
C181 C 0.20661 0.85961 0.02275 0.0
C182 C 0.28565 0.76967 0.00341 0.0
C183 C 0.3386 0.78599 0.01336 0.0
C184 C 0.27156 0.72505 0.9926 0.0
C185 C 0.21595 0.70561 0.98323 0.0
C186 C 0.18025 0.70954 0.00408 0.0
C187 C 0.12782 0.69154 0.9951 0.0
C188 C 0.11062 0.66934 0.96538 0.0
C189 C 0.14585 0.66502 0.94459 0.0
C190 C 0.19832 0.68299 0.95344 0.0
C191 C 0.44048 0.61965 0.98942 0.0
C192 C 0.47493 0.63658 0.96941 0.0
C193 C 0.40521 0.64559 -0.00055 0.0
C194 C 0.40391 0.68884 0.98968 0.0
C195 C 0.43856 0.70556 0.96978 0.0
C196 C 0.47379 0.67983 0.95992 0.0
C197 C 0.3642 0.71576 -0.00181 0.0
C198 C 0.31101 0.69866 0.99017 0.0
C199 C 0.37806 0.75967 0.01093 0.0
C200 C 0.4334 0.77928 0.02113 0.0
C201 C 0.45284 0.81822 0.00811 0.0
C202 C 0.50502 0.83664 0.0175 0.0
C203 C 0.53805 0.81667 0.04015 0.0
C204 C 0.51898 0.77824 0.05348 0.0
C205 C 0.46691 0.75941 0.04394 0.0
H206 H 0.57837 0.83106 0.04736 0.0
H207 H 0.07001 0.65543 0.95848 0.0
H208 H 0.96477 0.85593 0.99293 0.0
H209 H 0.89625 0.79428 0.9958 0.0
H210 H 0.78391 0.88517 -0.00277 0.0
H211 H 0.85145 0.94641 0.99458 0.0
H212 H 0.78341 0.82985 0.04531 0.0
H213 H 0.78184 0.81967 0.9318 0.0
H214 H 0.8214 0.81164 0.88372 0.0
H215 H 0.86335 0.68635 0.91242 0.0
H216 H 0.82467 0.69393 0.96092 0.0
H217 H 0.54517 0.69654 0.03239 0.0
H218 H 0.61465 0.74893 0.01762 0.0
H219 H 0.70945 0.64459 0.01293 0.0
H220 H 0.63902 0.59195 0.02678 0.0
H221 H 0.72433 0.70227 0.96776 0.0
H222 H 0.72445 0.71056 0.07999 0.0
H223 H 0.6857 0.71763 0.12846 0.0
H224 H 0.65001 0.84608 0.10365 0.0
H225 H 0.68767 0.83946 0.0547 0.0
C226 C 0.92531 0.86263 0.99348 0.0
C227 C 0.91368 0.90609 0.99373 0.0
C228 C 0.88622 0.82741 0.99505 0.0
C229 C 0.835 0.8352 0.99676 0.0
C230 C 0.82319 0.87843 0.99608 0.0
C231 C 0.86197 0.91343 0.99452 0.0
C232 C 0.79393 0.79907 0.0012 0.0
C233 C 0.77014 0.8022 0.02816 0.0
C234 C 0.7779 0.76226 0.97939 0.0
C235 C 0.80089 0.7576 0.95017 0.0
C236 C 0.79991 0.79058 0.928 0.0
C237 C 0.82208 0.78608 0.90064 0.0
C238 C 0.84501 0.74857 0.89507 0.0
C239 C 0.84566 0.71542 0.91679 0.0
C240 C 0.82358 0.71979 0.94421 0.0
C241 C 0.58078 0.68496 0.02799 0.0
C242 C 0.58744 0.64076 0.03143 0.0
C243 C 0.62034 0.71472 0.01948 0.0
C244 C 0.66786 0.70088 0.01505 0.0
C245 C 0.6733 0.65604 0.01651 0.0
C246 C 0.6332 0.62608 0.02455 0.0
C247 C 0.71292 0.73381 0.01143 0.0
C248 C 0.73772 0.7299 0.9849 0.0
C249 C 0.73034 0.76992 0.03377 0.0
C250 C 0.7085 0.77434 0.06352 0.0
C251 C 0.70806 0.74021 0.08477 0.0
C252 C 0.68627 0.74413 0.11233 0.0
C253 C 0.66529 0.78224 0.11909 0.0
C254 C 0.66627 0.81658 0.09838 0.0
C255 C 0.68783 0.81276 0.07072 0.0
H256 H 0.64838 0.7852 0.14042 0.0
H257 H 0.86216 0.74514 0.87387 0.0
H258 H 0.92501 0.19849 -0.00046 0.0
H259 H 0.87916 0.2635 0.99281 0.0
H260 H 0.73475 0.18405 0.002 0.0
H261 H 0.78001 0.11936 0.00824 0.0
H262 H 0.72058 0.24022 0.95416 0.0
H263 H 0.80426 0.2475 0.0645 0.0
H264 H 0.87938 0.24963 0.1082 0.0
H265 H 0.95284 0.36765 0.07407 0.0
H266 H 0.87843 0.36587 0.02988 0.0
H267 H 0.56535 0.40363 0.97863 0.0
H268 H 0.61616 0.34315 0.9934 0.0
H269 H 0.75728 0.42536 0.98148 0.0
H270 H 0.70652 0.48553 0.96664 0.0
H271 H 0.77493 0.36921 0.03094 0.0
H272 H 0.69395 0.36354 0.92148 0.0
H273 H 0.62033 0.36344 0.87719 0.0
H274 H 0.54481 0.24346 0.90746 0.0
H275 H 0.61742 0.24355 0.95257 0.0
C276 C 0.8834 0.19492 -0.0003 0.0
C277 C 0.85621 0.15393 0.00473 0.0
C278 C 0.85732 0.23207 0.99612 0.0
C279 C 0.80361 0.22873 -0.00266 0.0
C280 C 0.77619 0.1875 0.00115 0.0
C281 C 0.8022 0.1506 0.00494 0.0
C282 C 0.77574 0.26807 0.9953 0.0
C283 C 0.73212 0.26818 0.97118 0.0
C284 C 0.79148 0.30503 0.01704 0.0
C285 C 0.83605 0.3063 0.0437 0.0
C286 C 0.83662 0.27372 0.06617 0.0
C287 C 0.87903 0.27489 0.09105 0.0
C288 C 0.92093 0.30868 0.09386 0.0
C289 C 0.92041 0.34145 0.07184 0.0
C290 C 0.87811 0.3404 0.04688 0.0
C291 C 0.60745 0.40913 0.98039 0.0
C292 C 0.63229 0.44906 0.97175 0.0
C293 C 0.63638 0.37458 0.98854 0.0
C294 C 0.69041 0.37961 0.98808 0.0
C295 C 0.71573 0.42076 0.98201 0.0
C296 C 0.6868 0.4551 0.97363 0.0
C297 C 0.71939 0.34097 0.99013 0.0
C298 C 0.76331 0.34113 0.01404 0.0
C299 C 0.70425 0.30437 0.96801 0.0
C300 C 0.66085 0.30383 0.94064 0.0
C301 C 0.66144 0.33734 0.91888 0.0
C302 C 0.61989 0.33727 0.8936 0.0
C303 C 0.57789 0.30346 0.8895 0.0
C304 C 0.57735 0.26966 0.91069 0.0
C305 C 0.61866 0.26974 0.93616 0.0
H306 H 0.54579 0.3034 0.86987 0.0
H307 H 0.95373 0.30954 0.11314 0.0
H308 H 0.68975 0.57564 0.51296 0.0
H309 H 0.75161 0.64319 0.51822 0.0
H310 H 0.62486 0.72001 0.51856 0.0
H311 H 0.56275 0.65255 0.51385 0.0
H312 H 0.76471 0.71319 0.48274 0.0
H313 H 0.66484 0.8079 0.56899 0.0
H314 H 0.6106 0.79313 0.61057 0.0
H315 H 0.67521 0.67307 0.62966 0.0
H316 H 0.72976 0.6872 0.58828 0.0
H317 H 0.87552 0.94303 0.50714 0.0
H318 H 0.81811 0.87278 0.49393 0.0
H319 H 0.8773 0.82734 0.58595 0.0
H320 H 0.93479 0.89672 0.59904 0.0
H321 H 0.77181 0.81838 0.57452 0.0
H322 H 0.91008 0.78402 0.52161 0.0
H323 H 0.97276 0.79642 0.48457 0.0
H324 H 0.84581 0.79012 0.40578 0.0
H325 H 0.78231 0.77826 0.44246 0.0
C326 C 0.67496 0.60689 0.51417 0.0
C327 C 0.62131 0.60867 0.51331 0.0
C328 C 0.71039 0.6455 0.51695 0.0
C329 C 0.69298 0.68666 0.519 0.0
C330 C 0.6393 0.68859 0.51743 0.0
C331 C 0.60383 0.64998 0.51475 0.0
C332 C 0.73124 0.72743 0.52418 0.0
C333 C 0.76612 0.73631 0.50271 0.0
C334 C 0.7338 0.75726 0.55053 0.0
C335 C 0.70091 0.7484 0.57534 0.0
C336 C 0.6674 0.77836 0.58208 0.0
C337 C 0.63655 0.77007 0.60558 0.0
C338 C 0.63923 0.73208 0.62265 0.0
C339 C 0.67282 0.70233 0.61628 0.0
C340 C 0.70362 0.7104 0.59276 0.0
C341 C 0.87692 0.91766 0.52423 0.0
C342 C 0.90901 0.92556 0.5543 0.0
C343 C 0.84406 0.87766 0.51672 0.0
C344 C 0.84313 0.84505 0.53912 0.0
C345 C 0.87693 0.85225 0.5685 0.0
C346 C 0.90968 0.89194 0.57595 0.0
C347 C 0.80506 0.80435 0.53301 0.0
C348 C 0.77009 0.79553 0.55433 0.0
C349 C 0.80343 0.77421 0.50701 0.0
C350 C 0.84144 0.78072 0.48482 0.0
C351 C 0.89552 0.78562 0.49641 0.0
C352 C 0.9312 0.7925 0.47548 0.0
C353 C 0.91329 0.79423 0.44285 0.0
C354 C 0.85963 0.78886 0.43108 0.0
C355 C 0.82377 0.78201 0.45192 0.0
H356 H 0.94098 0.79962 0.42669 0.0
H357 H 0.61543 0.72581 0.64089 0.0
H358 H 0.77547 0.39756 0.50867 0.0
H359 H 0.82043 0.33326 0.50511 0.0
H360 H 0.67287 0.24889 0.49193 0.0
H361 H 0.62727 0.31385 0.49533 0.0
H362 H 0.76269 0.21405 0.53111 0.0
H363 H 0.71224 0.27066 0.42872 0.0
H364 H 0.70267 0.32882 0.39042 0.0
H365 H 0.86935 0.36357 0.40525 0.0
H366 H 0.87987 0.30608 0.44407 0.0
H367 H 0.89307 0.04519 0.46844 0.0
H368 H 0.82948 0.09385 0.47839 0.0
H369 H 0.9419 0.20686 0.47 0.0
H370 H 1.00344 0.15835 0.45774 0.0
H371 H 0.85486 0.21923 0.43836 0.0
H372 H 0.90408 0.16625 0.54513 0.0
H373 H 0.91285 0.10577 0.58156 0.0
H374 H 0.74816 0.06184 0.55685 0.0
H375 H 0.73841 0.12207 0.52026 0.0
C376 C 0.75259 0.36531 0.50543 0.0
C377 C 0.6978 0.36078 0.50172 0.0
C378 C 0.77834 0.32857 0.50355 0.0
C379 C 0.74994 0.28638 0.4978 0.0
C380 C 0.69548 0.28122 0.49638 0.0
C381 C 0.66951 0.31826 0.49834 0.0
C382 C 0.7773 0.2491 0.48987 0.0
C383 C 0.78233 0.21473 0.51063 0.0
C384 C 0.8029 0.25002 0.46316 0.0
C385 C 0.7968 0.28426 0.43948 0.0
C386 C 0.74683 0.29091 0.42399 0.0
C387 C 0.74124 0.32373 0.40217 0.0
C388 C 0.78537 0.34993 0.39545 0.0
C389 C 0.8352 0.34327 0.41049 0.0
C390 C 0.841 0.31054 0.43238 0.0
C391 C 0.90407 0.08044 0.46891 0.0
C392 C 0.95313 0.09817 0.46239 0.0
C393 C 0.86785 0.1083 0.47481 0.0
C394 C 0.88083 0.15429 0.47532 0.0
C395 C 0.93054 0.17164 0.46958 0.0
C396 C 0.9659 0.14392 0.46279 0.0
C397 C 0.84274 0.18495 0.48043 0.0
C398 C 0.83525 0.21816 0.45887 0.0
C399 C 0.81504 0.18277 0.50636 0.0
C400 C 0.8206 0.14837 0.52979 0.0
C401 C 0.86975 0.14372 0.54754 0.0
C402 C 0.87491 0.10943 0.56815 0.0
C403 C 0.83115 0.07975 0.57128 0.0
C404 C 0.78202 0.08477 0.55429 0.0
C405 C 0.77662 0.11904 0.5337 0.0
H406 H 0.83518 0.05279 0.58679 0.0
H407 H 0.78096 0.37533 0.37855 0.0
H408 H 0.47778 0.33629 0.50456 0.0
H409 H 0.41069 0.27361 0.50828 0.0
H410 H 0.29065 0.35769 0.48829 0.0
H411 H 0.35648 0.41973 0.48459 0.0
H412 H 0.28648 0.31329 0.54329 0.0
H413 H 0.30599 0.28209 0.43338 0.0
H414 H 0.35661 0.26485 0.39184 0.0
H415 H 0.39463 0.14837 0.43851 0.0
H416 H 0.34476 0.16526 0.48057 0.0
H417 H 0.04346 0.18889 0.52078 0.0
H418 H 0.12118 0.23541 0.5107 0.0
H419 H 0.20759 0.12453 0.51951 0.0
H420 H 0.1286 0.07718 0.52787 0.0
H421 H 0.23929 0.17508 0.47549 0.0
H422 H 0.21697 0.20065 0.58265 0.0
H423 H 0.16973 0.21612 0.62628 0.0
H424 H 0.14344 0.34113 0.58897 0.0
H425 H 0.18988 0.32616 0.54486 0.0
C426 C 0.43699 0.34111 0.50044 0.0
C427 C 0.42253 0.38308 0.49456 0.0
C428 C 0.39876 0.30533 0.50258 0.0
C429 C 0.34572 0.31113 0.49876 0.0
C430 C 0.33134 0.35255 0.49157 0.0
C431 C 0.36917 0.38802 0.48942 0.0
C432 C 0.30478 0.27551 0.50429 0.0
C433 C 0.27595 0.28318 0.52833 0.0
C434 C 0.29259 0.23542 0.48571 0.0
C435 C 0.32216 0.2252 0.4603 0.0
C436 C 0.32551 0.253 0.43492 0.0
C437 C 0.35399 0.24325 0.41125 0.0
C438 C 0.37896 0.20561 0.41259 0.0
C439 C 0.37535 0.17756 0.43753 0.0
C440 C 0.34695 0.18718 0.46128 0.0
C441 C 0.07883 0.17432 0.52007 0.0
C442 C 0.08018 0.12964 0.5253 0.0
C443 C 0.12336 0.20096 0.51454 0.0
C444 C 0.17077 0.18381 0.51528 0.0
C445 C 0.17163 0.1386 0.51909 0.0
C446 C 0.12653 0.11162 0.52394 0.0
C447 C 0.21949 0.21382 0.51363 0.0
C448 C 0.25007 0.20497 0.49065 0.0
C449 C 0.23405 0.25271 0.53357 0.0
C450 C 0.20667 0.26214 0.56034 0.0
C451 C 0.20089 0.23135 0.58366 0.0
C452 C 0.17427 0.24003 0.60848 0.0
C453 C 0.15354 0.27955 0.61037 0.0
C454 C 0.15952 0.31053 0.58748 0.0
C455 C 0.18606 0.30199 0.56259 0.0
H456 H 0.1329 0.2862 0.62959 0.0
H457 H 0.401 0.19813 0.39425 0.0
H458 H 0.26896 0.58788 0.50271 0.0
H459 H 0.22048 0.65041 0.49577 0.0
H460 H 0.36259 0.73515 0.48934 0.0
H461 H 0.41197 0.67232 0.49726 0.0
H462 H 0.30549 0.77207 0.52844 0.0
H463 H 0.27316 0.70523 0.42336 0.0
H464 H 0.24802 0.64503 0.38188 0.0
H465 H 0.094 0.62303 0.40544 0.0
H466 H 0.11844 0.68271 0.4474 0.0
H467 H 0.17919 0.94795 0.45872 0.0
H468 H 0.23157 0.88934 0.47487 0.0
H469 H 0.09143 0.8039 0.48446 0.0
H470 H 0.03894 0.86292 0.46827 0.0
H471 H 0.14865 0.76818 0.44457 0.0
H472 H 0.18228 0.83782 0.54937 0.0
H473 H 0.20885 0.89954 0.58955 0.0
H474 H 0.36213 0.91841 0.56472 0.0
H475 H 0.33626 0.85718 0.52405 0.0
C476 C 0.29007 0.61979 0.49995 0.0
C477 C 0.34442 0.62515 0.50072 0.0
C478 C 0.26217 0.6555 0.4957 0.0
C479 C 0.28779 0.69744 0.49182 0.0
C480 C 0.34203 0.70302 0.49227 0.0
C481 C 0.37011 0.66709 0.49648 0.0
C482 C 0.25758 0.73526 0.48785 0.0
C483 C 0.27165 0.77156 0.50982 0.0
C484 C 0.21272 0.73412 0.46399 0.0
C485 C 0.19781 0.69819 0.43875 0.0
C486 C 0.23406 0.68732 0.41989 0.0
C487 C 0.21991 0.65333 0.39625 0.0
C488 C 0.16949 0.63015 0.39109 0.0
C489 C 0.13307 0.64098 0.4095 0.0
C490 C 0.14703 0.67492 0.43319 0.0
C491 C 0.15994 0.91711 0.46538 0.0
C492 C 0.10532 0.90984 0.46265 0.0
C493 C 0.18979 0.88365 0.47453 0.0
C494 C 0.16545 0.84225 0.48092 0.0
C495 C 0.11099 0.83566 0.47972 0.0
C496 C 0.08112 0.86936 0.4708 0.0
C497 C 0.19619 0.80483 0.48535 0.0
C498 C 0.18234 0.76864 0.4633 0.0
C499 C 0.24144 0.80634 0.50895 0.0
C500 C 0.25716 0.84313 0.53345 0.0
C501 C 0.22152 0.85536 0.55228 0.0
C502 C 0.23648 0.89021 0.57519 0.0
C503 C 0.28711 0.91295 0.57964 0.0
C504 C 0.32291 0.9008 0.56123 0.0
C505 C 0.30814 0.86598 0.53827 0.0
H506 H 0.29861 0.93993 0.59739 0.0
H507 H 0.1586 0.60385 0.37277 0.0
H508 H 0.02702 0.06381 0.10398 0.0
H509 H 0.03504 0.05682 0.16141 0.0
H510 H 0.08778 0.93045 0.15211 0.0
H511 H 0.08084 0.93762 0.09427 0.0
H512 H 0.99936 0.93529 0.18682 0.0
H513 H 0.17399 0.00536 0.18495 0.0
H514 H 0.23958 0.06217 0.1699 0.0
H515 H 0.17567 0.16205 0.21769 0.0
H516 H 0.10916 0.10589 0.23263 0.0
H517 H 0.04929 0.90694 0.35202 0.0
H518 H 0.05511 0.91126 0.29588 0.0
H519 H 0.048 0.05077 0.3024 0.0
H520 H 0.04617 0.04731 0.35937 0.0
H521 H 0.11733 0.03662 0.26843 0.0
H522 H 0.94092 0.97301 0.26755 0.0
H523 H 0.86934 0.92064 0.28104 0.0
H524 H 0.92795 0.81428 0.23693 0.0
H525 H 1.00034 0.86596 0.22355 0.0
C526 C 0.04089 0.03471 0.11416 0.0
C527 C 0.05328 1.00119 0.0947 0.0
C528 C 0.04555 0.03086 0.14696 0.0
C529 C 0.06205 0.9932 0.16089 0.0
C530 C 0.07508 0.9598 0.14167 0.0
C531 C 0.07135 0.96401 0.10877 0.0
C532 C 0.06301 0.98827 0.19534 0.0
C533 C 0.02581 0.95675 0.20481 0.0
C534 C 0.09613 0.01761 0.21848 0.0
C535 C 0.1363 0.05142 0.20968 0.0
C536 C 0.17362 0.03947 0.19202 0.0
C537 C 0.21103 0.07155 0.18356 0.0
C538 C 0.21172 0.1157 0.19277 0.0
C539 C 0.17507 0.12784 0.21055 0.0
C540 C 0.13754 0.09589 0.21905 0.0
C541 C 0.04971 0.93874 0.34173 0.0
C542 C 0.04752 0.97684 0.36042 0.0
C543 C 0.05224 0.94102 0.3094 0.0
C544 C 0.05119 0.98121 0.2947 0.0
C545 C 0.04873 0.01932 0.31317 0.0
C546 C 0.04704 0.0172 0.34571 0.0
C547 C 0.05344 0.98354 0.26018 0.0
C548 C 0.09109 0.01474 0.25062 0.0
C549 C 0.01989 0.9545 0.23685 0.0
C550 C 0.97638 0.92331 0.24485 0.0
C551 C 0.93879 0.93841 0.26095 0.0
C552 C 0.89803 0.90885 0.26854 0.0
C553 C 0.89418 0.86414 0.25993 0.0
C554 C 0.93103 0.84891 0.24363 0.0
C555 C 0.97191 0.87832 0.23602 0.0
H556 H 0.86259 0.84131 0.26582 0.0
H557 H 0.24072 0.14049 0.1862 0.0
H558 H 0.91788 0.05293 0.90329 0.0
H559 H 0.90851 0.06535 0.84607 0.0
H560 H 0.05894 0.02338 0.84417 0.0
H561 H 0.06813 0.00999 0.90084 0.0
H562 H 0.03943 0.1048 0.8118 0.0
H563 H 0.96372 0.95275 0.81911 0.0
H564 H 0.90258 0.89529 0.83758 0.0
H565 H 0.77243 0.95585 0.79238 0.0
H566 H 0.83294 0.01409 0.77406 0.0
H567 H 0.05339 0.04563 0.65219 0.0
H568 H 0.05537 0.05697 0.70938 0.0
H569 H 0.88802 0.05662 0.69238 0.0
H570 H 0.88594 0.04238 0.6355 0.0
H571 H 0.90914 0.00518 0.73548 0.0
H572 H 0.98172 0.15177 0.72138 0.0
H573 H 0.04084 0.21101 0.70318 0.0
H574 H 0.17277 0.16636 0.76077 0.0
H575 H 0.11456 0.10643 0.77897 0.0
C576 C 0.94886 0.04634 0.89062 0.0
C577 C 0.99351 0.03014 0.90644 0.0
C578 C 0.94354 0.05357 0.85806 0.0
C579 C 0.98319 0.04542 0.8411 0.0
C580 C 0.02813 0.03007 0.85697 0.0
C581 C 0.03304 0.02208 0.88927 0.0
C582 C 0.97716 0.05076 0.80642 0.0
C583 C 0.01111 0.08309 0.79494 0.0
C584 C 0.93915 0.02319 0.78475 0.0
C585 C 0.90283 0.98805 0.79558 0.0
C586 C 0.92209 0.95405 0.81338 0.0
C587 C 0.88755 0.92129 0.82377 0.0
C588 C 0.83366 0.922 0.81625 0.0
C589 C 0.81419 0.9554 0.79825 0.0
C590 C 0.84858 0.98827 0.78785 0.0
C591 C 0.01731 0.0491 0.6607 0.0
C592 C 0.96954 0.04343 0.63952 0.0
C593 C 0.0184 0.05577 0.69339 0.0
C594 C 0.97185 0.05815 0.70535 0.0
C595 C 0.92445 0.05484 0.68386 0.0
C596 C 0.92326 0.04707 0.65131 0.0
C597 C 0.97187 0.05926 0.74026 0.0
C598 C 0.93689 0.02782 0.75199 0.0
C599 C 0.00853 0.08817 0.7621 0.0
C600 C 0.04373 0.12438 0.75138 0.0
C601 C 0.02337 0.15438 0.73001 0.0
C602 C 0.05673 0.18812 0.71971 0.0
C603 C 0.11053 0.1924 0.73077 0.0
C604 C 0.13108 0.163 0.75222 0.0
C605 C 0.09791 0.12918 0.76257 0.0
H606 H 0.13629 0.21852 0.72275 0.0
H607 H 0.80699 0.89661 0.82431 0.0
H608 H 0.46659 0.50224 0.59978 0.0
H609 H 0.47636 0.50484 0.65758 0.0
H610 H 0.63314 0.4723 0.66429 0.0
H611 H 0.62305 0.46845 0.60587 0.0
H612 H 0.58281 0.43029 0.70741 0.0
H613 H 0.61107 0.57756 0.67534 0.0
H614 H 0.59062 0.64121 0.64421 0.0
H615 H 0.45196 0.64551 0.68484 0.0
H616 H 0.47061 0.58089 0.71551 0.0
H617 H 0.65383 0.50351 0.87118 0.0
H618 H 0.65069 0.49811 0.81361 0.0
H619 H 0.48786 0.51574 0.79859 0.0
H620 H 0.49003 0.5197 0.8562 0.0
H621 H 0.54737 0.56682 0.76031 0.0
H622 H 0.51653 0.41676 0.78935 0.0
H623 H 0.53605 0.35217 0.81976 0.0
H624 H 0.68147 0.35487 0.78549 0.0
H625 H 0.66312 0.41994 0.75519 0.0
C626 C 0.50315 0.4954 0.61347 0.0
C627 C 0.54435 0.48567 0.5983 0.0
C628 C 0.50869 0.49702 0.64655 0.0
C629 C 0.5559 0.48982 0.66528 0.0
C630 C 0.59649 0.4783 0.65025 0.0
C631 C 0.59073 0.47615 0.61694 0.0
C632 C 0.56281 0.49562 0.70048 0.0
C633 C 0.57595 0.46041 0.71901 0.0
C634 C 0.553 0.53472 0.7156 0.0
C635 C 0.54207 0.57409 0.69757 0.0
C636 C 0.57601 0.59184 0.67749 0.0
C637 C 0.56475 0.62814 0.65993 0.0
C638 C 0.52012 0.64749 0.66259 0.0
C639 C 0.48655 0.6305 0.68281 0.0
C640 C 0.4974 0.59398 0.70026 0.0
C641 C 0.61717 0.50591 0.85568 0.0
C642 C 0.57203 0.51167 0.86837 0.0
C643 C 0.61557 0.50299 0.82279 0.0
C644 C 0.56894 0.50609 0.80192 0.0
C645 C 0.52424 0.51327 0.81438 0.0
C646 C 0.52565 0.51579 0.84731 0.0
C647 C 0.56666 0.50137 0.76705 0.0
C648 C 0.55454 0.53685 0.74865 0.0
C649 C 0.57761 0.46266 0.75212 0.0
C650 C 0.5887 0.42351 0.77027 0.0
C651 C 0.55289 0.40383 0.78852 0.0
C652 C 0.56369 0.36707 0.80568 0.0
C653 C 0.61002 0.34947 0.8046 0.0
C654 C 0.64562 0.36857 0.78632 0.0
C655 C 0.63502 0.40537 0.76912 0.0
H656 H 0.6183 0.32099 0.81789 0.0
H657 H 0.51155 0.67564 0.64899 0.0
H658 H 0.45678 0.5616 0.40773 0.0
H659 H 0.45389 0.57224 0.35084 0.0
H660 H 0.54443 0.46537 0.34435 0.0
H661 H 0.54895 0.45559 0.40123 0.0
H662 H 0.58124 0.53034 0.31369 0.0
H663 H 0.40891 0.45561 0.31682 0.0
H664 H 0.3231 0.44471 0.33411 0.0
H665 H 0.28853 0.56791 0.29678 0.0
H666 H 0.37447 0.57978 0.2796 0.0
H667 H 0.51598 0.45734 0.15094 0.0
H668 H 0.52095 0.46517 0.20875 0.0
H669 H 0.47309 0.59406 0.19959 0.0
H670 H 0.46922 0.5867 0.14148 0.0
H671 H 0.4153 0.52955 0.23782 0.0
H672 H 0.58716 0.59799 0.22935 0.0
H673 H 0.67178 0.60369 0.21066 0.0
H674 H 0.70579 0.48606 0.25705 0.0
H675 H 0.62094 0.47924 0.2756 0.0
C676 C 0.47576 0.54021 0.39409 0.0
C677 C 0.50299 0.50769 0.40893 0.0
C678 C 0.474 0.54627 0.36157 0.0
C679 C 0.49861 0.51938 0.34321 0.0
C680 C 0.52535 0.48666 0.35801 0.0
C681 C 0.52769 0.48096 0.39052 0.0
C682 C 0.49735 0.52538 0.30866 0.0
C683 C 0.54486 0.52988 0.29714 0.0
C684 C 0.45005 0.52597 0.28707 0.0
C685 C 0.39834 0.51882 0.29727 0.0
C686 C 0.38316 0.48053 0.31252 0.0
C687 C 0.33448 0.47415 0.32226 0.0
C688 C 0.30045 0.50566 0.31664 0.0
C689 C 0.31498 0.54357 0.30117 0.0
C690 C 0.36364 0.55013 0.29141 0.0
C691 C 0.50687 0.48743 0.16134 0.0
C692 C 0.49225 0.52146 0.14199 0.0
C693 C 0.50977 0.49188 0.19425 0.0
C694 C 0.49741 0.53017 0.20829 0.0
C695 C 0.48277 0.56431 0.18906 0.0
C696 C 0.48083 0.5602 0.15607 0.0
C697 C 0.49895 0.53352 0.24308 0.0
C698 C 0.45159 0.53071 0.25458 0.0
C699 C 0.54625 0.53384 0.26461 0.0
C700 C 0.59746 0.53792 0.25365 0.0
C701 C 0.61246 0.57311 0.23533 0.0
C702 C 0.66052 0.57659 0.22481 0.0
C703 C 0.69409 0.54521 0.23261 0.0
C704 C 0.67972 0.51033 0.25101 0.0
C705 C 0.63167 0.50667 0.26156 0.0
H706 H 0.73129 0.54796 0.22445 0.0
H707 H 0.26278 0.50067 0.3242 0.0
loop_
_geom_bond_atom_site_label_1
_geom_bond_atom_site_label_2
_geom_bond_distance
_geom_bond_site_symmetry_2
_ccdc_geom_bond_type
Co0 N5 2.057 . S
Co0 O17 2.021 . S
Co0 O20 2.062 1_455 S
Co0 O24 2.117 1_554 S
Co0 O25 2.020 1_565 S
C1 O21 1.259 1_455 S
C1 O24 1.258 1_545 S
Co2 N11 2.066 . S
Co2 O18 2.146 1_655 S
Co2 O19 2.024 1_544 S
Co2 O21 1.989 1_554 S
Co2 O26 2.059 1_655 S
C3 N5 1.316 . S
C3 N6 1.347 . S
C3 H8 0.931 . S
C4 N5 1.375 1_556 S
C4 C7 1.350 . S
C4 H9 0.930 . S
N5 Co0 2.057 . S
N5 C3 1.316 . S
N5 C4 1.375 1_554 S
N6 C3 1.347 . S
N6 C7 1.373 1_554 S
C7 C4 1.350 . S
C7 N6 1.373 1_556 S
C7 H28 0.931 . S
H8 C3 0.931 . S
H9 C4 0.930 . S
C10 O17 1.259 1_545 S
C10 O18 1.258 . S
N11 Co2 2.066 . S
N11 C12 1.316 1_554 S
N11 C13 1.375 . S
C12 N11 1.316 1_556 S
C12 N14 1.347 1_556 S
C12 H23 0.931 . S
C13 N11 1.375 . S
C13 C15 1.350 . S
C13 H22 0.930 . S
N14 C12 1.347 1_554 S
N14 C15 1.373 . S
C15 C13 1.350 . S
C15 N14 1.373 . S
C15 H29 0.931 . S
C16 O19 1.255 1_554 S
C16 O20 1.255 . S
O17 Co0 2.021 . S
O17 C10 1.259 1_565 S
O18 Co2 2.146 1_455 S
O18 C10 1.258 . S
O19 Co2 2.024 1_566 S
O19 C16 1.255 1_556 S
O20 Co0 2.062 1_655 S
O20 C16 1.255 . S
O21 C1 1.259 1_655 S
O21 Co2 1.989 1_556 S
H22 C13 0.930 . S
H23 C12 0.931 . S
O24 Co0 2.117 1_556 S
O24 C1 1.258 1_565 S
O25 Co0 2.020 1_545 S
O25 C27 1.256 . S
O26 Co2 2.059 1_455 S
O26 C27 1.255 . S
C27 O25 1.256 . S
C27 O26 1.255 . S
H28 C7 0.931 . S
H29 C15 0.931 . S
Co30 N35 2.057 . S
Co30 O47 2.021 . S
Co30 O50 2.062 . S
Co30 O54 2.117 . S
Co30 O55 2.020 . S
C31 O51 1.259 . S
C31 O54 1.258 . S
Co32 N41 2.057 . S
Co32 O48 2.117 . S
Co32 O49 2.020 . S
Co32 O51 2.021 . S
Co32 O56 2.062 . S
C33 N35 1.316 . S
C33 N36 1.347 . S
C33 H38 0.931 . S
C34 N35 1.375 . S
C34 C37 1.350 . S
C34 H39 0.930 . S
N35 Co30 2.057 . S
N35 C33 1.316 . S
N35 C34 1.375 . S
N36 C33 1.347 . S
N36 C37 1.373 . S
C37 C34 1.350 . S
C37 N36 1.373 . S
C37 H58 0.931 . S
H38 C33 0.931 . S
H39 C34 0.930 . S
C40 O47 1.259 . S
C40 O48 1.258 . S
N41 Co32 2.057 . S
N41 C42 1.316 . S
N41 C43 1.375 . S
C42 N41 1.316 . S
C42 N44 1.347 . S
C42 H53 0.931 . S
C43 N41 1.375 . S
C43 C45 1.350 . S
C43 H52 0.930 . S
N44 C42 1.347 . S
N44 C45 1.373 . S
C45 C43 1.350 . S
C45 N44 1.373 . S
C45 H59 0.931 . S
C46 O49 1.256 . S
C46 O50 1.255 . S
O47 Co30 2.021 . S
O47 C40 1.259 . S
O48 Co32 2.117 . S
O48 C40 1.258 . S
O49 Co32 2.020 . S
O49 C46 1.256 . S
O50 Co30 2.062 . S
O50 C46 1.255 . S
O51 C31 1.259 . S
O51 Co32 2.021 . S
H52 C43 0.930 . S
H53 C42 0.931 . S
O54 Co30 2.117 . S
O54 C31 1.258 . S
O55 Co30 2.020 . S
O55 C57 1.256 . S
O56 Co32 2.062 . S
O56 C57 1.255 . S
C57 O55 1.256 . S
C57 O56 1.255 . S
H58 C37 0.931 . S
H59 C45 0.931 . S
H60 C65 0.930 . S
H61 C68 0.930 1_655 S
H62 C70 0.930 . S
H63 C64 1.016 . S
C64 H63 1.016 . S
C64 N71 1.286 . S
C65 H60 0.930 . S
C65 C66 1.397 . S
C65 C67 1.361 1_565 S
C66 C65 1.397 . S
C66 C70 1.390 . S
C67 C65 1.361 1_545 S
C67 C68 1.393 . S
C67 N71 1.413 1_455 S
C68 H61 0.930 1_455 S
C68 C67 1.393 . S
C68 C69 1.399 1_545 S
C69 C68 1.399 1_565 S
C69 C70 1.381 . S
C70 H62 0.930 . S
C70 C66 1.390 . S
C70 C69 1.381 . S
N71 C64 1.286 . S
N71 C67 1.413 1_655 S
H72 C77 0.930 . S
H73 C80 0.930 . S
H74 C82 0.930 . S
H75 C76 1.016 . S
C76 H75 1.016 . S
C76 N83 1.286 . S
C77 H72 0.930 . S
C77 C78 1.397 . S
C77 C79 1.361 1_665 S
C78 C77 1.397 . S
C78 C82 1.390 . S
C79 C77 1.361 1_445 S
C79 C80 1.393 . S
C79 N83 1.413 . S
C80 H73 0.930 . S
C80 C79 1.393 . S
C80 C81 1.399 1_455 S
C81 C80 1.399 1_655 S
C81 C82 1.381 1_545 S
C82 H74 0.930 . S
C82 C78 1.390 . S
C82 C81 1.381 1_565 S
N83 C76 1.286 . S
N83 C79 1.413 . S
H84 C89 0.930 . S
H85 C92 0.930 . S
H86 C94 0.930 . S
H87 C88 1.016 . S
C88 H87 1.016 . S
C88 N95 1.286 . S
C89 H84 0.930 . S
C89 C90 1.397 . S
C89 C91 1.361 . S
C90 C89 1.397 . S
C90 C94 1.390 . S
C91 C89 1.361 . S
C91 C92 1.393 . S
C91 N95 1.413 . S
C92 H85 0.930 . S
C92 C91 1.393 . S
C92 C93 1.399 . S
C93 C92 1.399 . S
C93 C94 1.381 . S
C94 H86 0.930 . S
C94 C90 1.390 . S
C94 C93 1.381 . S
N95 C88 1.286 . S
N95 C91 1.413 . S
H96 C101 0.930 . S
H97 C104 0.930 . S
H98 C106 0.930 . S
H99 C100 1.016 . S
C100 H99 1.016 . S
C100 N107 1.286 . S
C101 H96 0.930 . S
C101 C102 1.397 . S
C101 C103 1.361 . S
C102 C101 1.397 . S
C102 C106 1.390 . S
C103 C101 1.361 . S
C103 C104 1.393 . S
C103 N107 1.413 . S
C104 H97 0.930 . S
C104 C103 1.393 . S
C104 C105 1.399 . S
C105 C104 1.399 . S
C105 C106 1.381 . S
C106 H98 0.930 . S
C106 C102 1.390 . S
C106 C105 1.381 . S
N107 C100 1.286 . S
N107 C103 1.413 . S
H108 C126 0.951 . S
H109 C128 0.951 . S
H110 C130 0.950 1_556 S
H111 C131 0.941 1_556 S
H112 C133 0.950 . S
H113 C136 0.950 . S
H114 C137 0.950 . S
H115 C139 0.950 . S
H116 C140 0.950 . S
H117 C141 0.951 . S
H118 C143 0.951 . S
H119 C145 0.950 . S
H120 C146 0.950 . S
H121 C148 0.950 . S
H122 C151 0.950 . S
H123 C152 0.950 . S
H124 C154 0.950 . S
H125 C155 0.950 . S
C126 H108 0.951 . S
C126 C127 1.366 . S
C126 C128 1.388 . S
C127 C126 1.366 . S
C127 C131 1.394 . S
C128 H109 0.951 . S
C128 C126 1.388 . S
C128 C129 1.366 . S
C129 C128 1.366 . S
C129 C130 1.414 . S
C129 C132 1.499 . S
C130 H110 0.950 1_554 S
C130 C129 1.414 . S
C130 C131 1.373 . S
C131 H111 0.941 1_554 S
C131 C127 1.394 . S
C131 C130 1.373 . S
C132 C129 1.499 . S
C132 C133 1.373 . S
C132 C134 1.389 . S
C133 H112 0.950 . S
C133 C132 1.373 . S
C133 C149 1.377 . S
C134 C132 1.389 . S
C134 C135 1.524 1_554 S
C134 C148 1.377 . S
C135 C134 1.524 1_556 S
C135 C136 1.397 . S
C135 C140 1.363 1_556 S
C136 H113 0.950 . S
C136 C135 1.397 . S
C136 C137 1.334 . S
C137 H114 0.950 . S
C137 C136 1.334 . S
C137 C138 1.287 . S
C138 C137 1.287 . S
C138 C139 1.524 . S
C138 H157 0.913 . S
C139 H115 0.950 . S
C139 C138 1.524 . S
C139 C140 1.415 1_556 S
C140 H116 0.950 . S
C140 C135 1.363 1_554 S
C140 C139 1.415 1_554 S
C141 H117 0.951 . S
C141 C142 1.366 . S
C141 C143 1.388 . S
C142 C141 1.366 . S
C142 C146 1.385 . S
C143 H118 0.951 . S
C143 C141 1.388 . S
C143 C144 1.366 . S
C144 C143 1.366 . S
C144 C145 1.414 . S
C144 C147 1.499 . S
C145 H119 0.950 . S
C145 C144 1.414 . S
C145 C146 1.374 . S
C146 H120 0.950 . S
C146 C142 1.385 . S
C146 C145 1.374 . S
C147 C144 1.499 . S
C147 C148 1.373 . S
C147 C149 1.389 . S
C148 H121 0.950 . S
C148 C134 1.377 . S
C148 C147 1.373 . S
C149 C133 1.377 . S
C149 C147 1.389 . S
C149 C150 1.524 . S
C150 C149 1.524 . S
C150 C151 1.397 . S
C150 C155 1.363 . S
C151 H122 0.950 . S
C151 C150 1.397 . S
C151 C152 1.334 . S
C152 H123 0.950 . S
C152 C151 1.334 . S
C152 C153 1.287 . S
C153 C152 1.287 . S
C153 C154 1.524 . S
C153 H156 0.999 . S
C154 H124 0.950 . S
C154 C153 1.524 . S
C154 C155 1.415 . S
C155 H125 0.950 . S
C155 C150 1.363 . S
C155 C154 1.415 . S
H156 C153 0.999 . S
H157 C138 0.913 . S
H158 C176 0.951 . S
H159 C178 0.951 . S
H160 C180 0.950 . S
H161 C181 0.950 . S
H162 C183 0.952 1_554 S
H163 C186 0.950 . S
H164 C187 0.950 . S
H165 C189 0.950 . S
H166 C190 0.950 . S
H167 C191 0.951 . S
H168 C193 0.951 . S
H169 C195 0.950 . S
H170 C196 0.950 . S
H171 C198 0.950 . S
H172 C201 0.950 . S
H173 C202 0.950 . S
H174 C204 0.950 1_554 S
H175 C205 0.950 . S
C176 H158 0.951 . S
C176 C177 1.366 1_556 S
C176 C178 1.388 . S
C177 C176 1.366 1_554 S
C177 C181 1.385 . S
C178 H159 0.951 . S
C178 C176 1.388 . S
C178 C179 1.366 1_556 S
C179 C178 1.366 1_554 S
C179 C180 1.414 . S
C179 C182 1.499 . S
C180 H160 0.950 . S
C180 C179 1.414 . S
C180 C181 1.374 . S
C181 H161 0.950 . S
C181 C177 1.385 . S
C181 C180 1.374 . S
C182 C179 1.499 . S
C182 C183 1.363 1_554 S
C182 C184 1.389 . S
C183 H162 0.952 1_556 S
C183 C182 1.363 1_556 S
C183 C199 1.386 . S
C184 C182 1.389 . S
C184 C185 1.524 . S
C184 C198 1.377 1_554 S
C185 C184 1.524 . S
C185 C186 1.397 . S
C185 C190 1.363 1_554 S
C186 H163 0.950 . S
C186 C185 1.397 . S
C186 C187 1.334 . S
C187 H164 0.950 . S
C187 C186 1.334 . S
C187 C188 1.287 . S
C188 C187 1.287 . S
C188 C189 1.524 1_554 S
C188 H207 0.913 . S
C189 H165 0.950 . S
C189 C188 1.524 1_556 S
C189 C190 1.415 . S
C190 H166 0.950 . S
C190 C185 1.363 1_556 S
C190 C189 1.415 . S
C191 H167 0.951 . S
C191 C192 1.366 1_554 S
C191 C193 1.388 . S
C192 C191 1.366 1_556 S
C192 C196 1.385 . S
C193 H168 0.951 . S
C193 C191 1.388 . S
C193 C194 1.366 1_554 S
C194 C193 1.366 1_556 S
C194 C195 1.414 . S
C194 C197 1.499 . S
C195 H169 0.950 . S
C195 C194 1.414 . S
C195 C196 1.374 . S
C196 H170 0.950 . S
C196 C192 1.385 . S
C196 C195 1.374 . S
C197 C194 1.499 . S
C197 C198 1.373 . S
C197 C199 1.389 . S
C198 H171 0.950 . S
C198 C184 1.377 1_556 S
C198 C197 1.373 . S
C199 C183 1.386 . S
C199 C197 1.389 . S
C199 C200 1.524 . S
C200 C199 1.524 . S
C200 C201 1.397 . S
C200 C205 1.363 1_556 S
C201 H172 0.950 . S
C201 C200 1.397 . S
C201 C202 1.334 . S
C202 H173 0.950 . S
C202 C201 1.334 . S
C202 C203 1.287 . S
C203 C202 1.287 . S
C203 C204 1.524 . S
C203 H206 0.999 . S
C204 H174 0.950 1_556 S
C204 C203 1.524 . S
C204 C205 1.415 1_556 S
C205 H175 0.950 . S
C205 C200 1.363 1_554 S
C205 C204 1.415 1_554 S
H206 C203 0.999 . S
H207 C188 0.913 . S
H208 C226 0.951 . S
H209 C228 0.951 . S
H210 C230 0.950 1_556 S
H211 C231 0.950 . S
H212 C233 0.950 . S
H213 C236 0.950 . S
H214 C237 0.950 . S
H215 C239 0.950 . S
H216 C240 0.950 . S
H217 C241 0.951 . S
H218 C243 0.951 . S
H219 C245 0.950 . S
H220 C246 0.950 . S
H221 C248 0.950 1_556 S
H222 C251 0.950 . S
H223 C252 0.950 . S
H224 C254 0.950 . S
H225 C255 0.950 . S
C226 H208 0.951 . S
C226 C227 1.366 . S
C226 C228 1.388 . S
C227 C226 1.366 . S
C227 C231 1.385 1_554 S
C228 H209 0.951 . S
C228 C226 1.388 . S
C228 C229 1.366 . S
C229 C228 1.366 . S
C229 C230 1.414 . S
C229 C232 1.499 . S
C230 H210 0.950 1_554 S
C230 C229 1.414 . S
C230 C231 1.374 1_554 S
C231 H211 0.950 . S
C231 C227 1.385 1_556 S
C231 C230 1.374 1_556 S
C232 C229 1.499 . S
C232 C233 1.373 . S
C232 C234 1.389 1_554 S
C233 H212 0.950 . S
C233 C232 1.373 . S
C233 C249 1.377 . S
C234 C232 1.389 1_556 S
C234 C235 1.524 . S
C234 C248 1.377 1_556 S
C235 C234 1.524 . S
C235 C236 1.397 . S
C235 C240 1.363 . S
C236 H213 0.950 . S
C236 C235 1.397 . S
C236 C237 1.334 . S
C237 H214 0.950 . S
C237 C236 1.334 . S
C237 C238 1.287 . S
C238 C237 1.287 . S
C238 C239 1.524 . S
C238 H257 0.913 . S
C239 H215 0.950 . S
C239 C238 1.524 . S
C239 C240 1.415 . S
C240 H216 0.950 . S
C240 C235 1.363 . S
C240 C239 1.415 . S
C241 H217 0.951 . S
C241 C242 1.366 . S
C241 C243 1.388 . S
C242 C241 1.366 . S
C242 C246 1.385 . S
C243 H218 0.951 . S
C243 C241 1.388 . S
C243 C244 1.366 . S
C244 C243 1.366 . S
C244 C245 1.414 . S
C244 C247 1.499 . S
C245 H219 0.950 . S
C245 C244 1.414 . S
C245 C246 1.374 . S
C246 H220 0.950 . S
C246 C242 1.385 . S
C246 C245 1.374 . S
C247 C244 1.499 . S
C247 C248 1.373 . S
C247 C249 1.389 . S
C248 H221 0.950 1_554 S
C248 C234 1.377 1_554 S
C248 C247 1.373 . S
C249 C233 1.377 . S
C249 C247 1.389 . S
C249 C250 1.524 . S
C250 C249 1.524 . S
C250 C251 1.397 . S
C250 C255 1.363 . S
C251 H222 0.950 . S
C251 C250 1.397 . S
C251 C252 1.334 . S
C252 H223 0.950 . S
C252 C251 1.334 . S
C252 C253 1.287 . S
C253 C252 1.287 . S
C253 C254 1.524 . S
C253 H256 0.999 . S
C254 H224 0.950 . S
C254 C253 1.524 . S
C254 C255 1.415 . S
C255 H225 0.950 . S
C255 C250 1.363 . S
C255 C254 1.415 . S
H256 C253 0.999 . S
H257 C238 0.913 . S
H258 C276 0.951 . S
H259 C278 0.951 . S
H260 C280 0.949 1_554 S
H261 C281 0.950 . S
H262 C283 0.950 . S
H263 C286 0.950 . S
H264 C287 0.950 . S
H265 C289 0.950 . S
H266 C290 0.927 1_556 S
H267 C291 0.951 . S
H268 C293 0.951 . S
H269 C295 0.950 . S
H270 C296 0.950 . S
H271 C298 0.942 1_554 S
H272 C301 0.950 . S
H273 C302 0.950 . S
H274 C304 0.950 . S
H275 C305 0.950 . S
C276 H258 0.951 . S
C276 C277 1.366 . S
C276 C278 1.388 . S
C277 C276 1.366 . S
C277 C281 1.385 1_556 S
C278 H259 0.951 . S
C278 C276 1.388 . S
C278 C279 1.366 . S
C279 C278 1.366 . S
C279 C280 1.414 . S
C279 C282 1.499 . S
C280 H260 0.949 1_556 S
C280 C279 1.414 . S
C280 C281 1.374 1_556 S
C281 H261 0.950 . S
C281 C277 1.385 1_554 S
C281 C280 1.374 1_554 S
C282 C279 1.499 . S
C282 C283 1.373 . S
C282 C284 1.389 . S
C283 H262 0.950 . S
C283 C282 1.373 . S
C283 C299 1.377 . S
C284 C282 1.389 . S
C284 C285 1.524 1_556 S
C284 C298 1.377 . S
C285 C284 1.524 1_554 S
C285 C286 1.397 . S
C285 C290 1.363 . S
C286 H263 0.950 . S
C286 C285 1.397 . S
C286 C287 1.334 . S
C287 H264 0.950 . S
C287 C286 1.334 . S
C287 C288 1.287 . S
C288 C287 1.287 . S
C288 C289 1.524 . S
C288 H307 0.913 . S
C289 H265 0.950 . S
C289 C288 1.524 . S
C289 C290 1.415 . S
C290 H266 0.927 1_554 S
C290 C285 1.363 . S
C290 C289 1.415 . S
C291 H267 0.951 . S
C291 C292 1.366 . S
C291 C293 1.388 . S
C292 C291 1.366 . S
C292 C296 1.385 . S
C293 H268 0.951 . S
C293 C291 1.388 . S
C293 C294 1.366 . S
C294 C293 1.366 . S
C294 C295 1.414 . S
C294 C297 1.499 . S
C295 H269 0.950 . S
C295 C294 1.414 . S
C295 C296 1.374 . S
C296 H270 0.950 . S
C296 C292 1.385 . S
C296 C295 1.374 . S
C297 C294 1.499 . S
C297 C298 1.373 . S
C297 C299 1.389 . S
C298 H271 0.942 1_556 S
C298 C284 1.377 . S
C298 C297 1.373 . S
C299 C283 1.377 . S
C299 C297 1.389 . S
C299 C300 1.524 . S
C300 C299 1.524 . S
C300 C301 1.397 . S
C300 C305 1.363 . S
C301 H272 0.950 . S
C301 C300 1.397 . S
C301 C302 1.334 . S
C302 H273 0.950 . S
C302 C301 1.334 . S
C302 C303 1.287 . S
C303 C302 1.287 . S
C303 C304 1.524 . S
C303 H306 0.999 . S
C304 H274 0.950 . S
C304 C303 1.524 . S
C304 C305 1.415 . S
C305 H275 0.950 . S
C305 C300 1.363 . S
C305 C304 1.415 . S
H306 C303 0.999 . S
H307 C288 0.913 . S
H308 C326 0.951 . S
H309 C328 0.951 . S
H310 C330 0.950 . S
H311 C331 0.950 . S
H312 C333 0.950 . S
H313 C336 0.950 . S
H314 C337 0.950 . S
H315 C339 0.950 . S
H316 C340 0.950 . S
H317 C341 0.951 . S
H318 C343 0.951 . S
H319 C345 0.950 . S
H320 C346 0.950 . S
H321 C348 0.950 . S
H322 C351 0.950 . S
H323 C352 0.950 . S
H324 C354 0.950 . S
H325 C355 0.950 . S
C326 H308 0.951 . S
C326 C327 1.366 . S
C326 C328 1.388 . S
C327 C326 1.366 . S
C327 C331 1.385 . S
C328 H309 0.951 . S
C328 C326 1.388 . S
C328 C329 1.366 . S
C329 C328 1.366 . S
C329 C330 1.414 . S
C329 C332 1.499 . S
C330 H310 0.950 . S
C330 C329 1.414 . S
C330 C331 1.374 . S
C331 H311 0.950 . S
C331 C327 1.385 . S
C331 C330 1.374 . S
C332 C329 1.499 . S
C332 C333 1.373 . S
C332 C334 1.389 . S
C333 H312 0.950 . S
C333 C332 1.373 . S
C333 C349 1.377 . S
C334 C332 1.389 . S
C334 C335 1.524 . S
C334 C348 1.377 . S
C335 C334 1.524 . S
C335 C336 1.397 . S
C335 C340 1.363 . S
C336 H313 0.950 . S
C336 C335 1.397 . S
C336 C337 1.334 . S
C337 H314 0.950 . S
C337 C336 1.334 . S
C337 C338 1.287 . S
C338 C337 1.287 . S
C338 C339 1.524 . S
C338 H357 0.913 . S
C339 H315 0.950 . S
C339 C338 1.524 . S
C339 C340 1.415 . S
C340 H316 0.950 . S
C340 C335 1.363 . S
C340 C339 1.415 . S
C341 H317 0.951 . S
C341 C342 1.366 . S
C341 C343 1.388 . S
C342 C341 1.366 . S
C342 C346 1.385 . S
C343 H318 0.951 . S
C343 C341 1.388 . S
C343 C344 1.366 . S
C344 C343 1.366 . S
C344 C345 1.414 . S
C344 C347 1.499 . S
C345 H319 0.950 . S
C345 C344 1.414 . S
C345 C346 1.374 . S
C346 H320 0.950 . S
C346 C342 1.385 . S
C346 C345 1.374 . S
C347 C344 1.499 . S
C347 C348 1.373 . S
C347 C349 1.389 . S
C348 H321 0.950 . S
C348 C334 1.377 . S
C348 C347 1.373 . S
C349 C333 1.377 . S
C349 C347 1.389 . S
C349 C350 1.524 . S
C350 C349 1.524 . S
C350 C351 1.397 . S
C350 C355 1.363 . S
C351 H322 0.950 . S
C351 C350 1.397 . S
C351 C352 1.334 . S
C352 H323 0.950 . S
C352 C351 1.334 . S
C352 C353 1.287 . S
C353 C352 1.287 . S
C353 C354 1.524 . S
C353 H356 0.999 . S
C354 H324 0.950 . S
C354 C353 1.524 . S
C354 C355 1.415 . S
C355 H325 0.950 . S
C355 C350 1.363 . S
C355 C354 1.415 . S
H356 C353 0.999 . S
H357 C338 0.913 . S
H358 C376 0.951 . S
H359 C378 0.951 . S
H360 C380 0.950 . S
H361 C381 0.950 . S
H362 C383 0.950 . S
H363 C386 0.950 . S
H364 C387 0.950 . S
H365 C389 0.950 . S
H366 C390 0.950 . S
H367 C391 0.951 . S
H368 C393 0.951 . S
H369 C395 0.950 . S
H370 C396 0.950 . S
H371 C398 0.950 . S
H372 C401 0.950 . S
H373 C402 0.950 . S
H374 C404 0.950 . S
H375 C405 0.950 . S
C376 H358 0.951 . S
C376 C377 1.366 . S
C376 C378 1.388 . S
C377 C376 1.366 . S
C377 C381 1.385 . S
C378 H359 0.951 . S
C378 C376 1.388 . S
C378 C379 1.366 . S
C379 C378 1.366 . S
C379 C380 1.414 . S
C379 C382 1.499 . S
C380 H360 0.950 . S
C380 C379 1.414 . S
C380 C381 1.374 . S
C381 H361 0.950 . S
C381 C377 1.385 . S
C381 C380 1.374 . S
C382 C379 1.499 . S
C382 C383 1.373 . S
C382 C384 1.389 . S
C383 H362 0.950 . S
C383 C382 1.373 . S
C383 C399 1.377 . S
C384 C382 1.389 . S
C384 C385 1.524 . S
C384 C398 1.377 . S
C385 C384 1.524 . S
C385 C386 1.397 . S
C385 C390 1.363 . S
C386 H363 0.950 . S
C386 C385 1.397 . S
C386 C387 1.334 . S
C387 H364 0.950 . S
C387 C386 1.334 . S
C387 C388 1.287 . S
C388 C387 1.287 . S
C388 C389 1.524 . S
C388 H407 0.913 . S
C389 H365 0.950 . S
C389 C388 1.524 . S
C389 C390 1.415 . S
C390 H366 0.950 . S
C390 C385 1.363 . S
C390 C389 1.415 . S
C391 H367 0.951 . S
C391 C392 1.366 . S
C391 C393 1.388 . S
C392 C391 1.366 . S
C392 C396 1.385 . S
C393 H368 0.951 . S
C393 C391 1.388 . S
C393 C394 1.366 . S
C394 C393 1.366 . S
C394 C395 1.414 . S
C394 C397 1.499 . S
C395 H369 0.950 . S
C395 C394 1.414 . S
C395 C396 1.374 . S
C396 H370 0.950 . S
C396 C392 1.385 . S
C396 C395 1.374 . S
C397 C394 1.499 . S
C397 C398 1.373 . S
C397 C399 1.389 . S
C398 H371 0.950 . S
C398 C384 1.377 . S
C398 C397 1.373 . S
C399 C383 1.377 . S
C399 C397 1.389 . S
C399 C400 1.524 . S
C400 C399 1.524 . S
C400 C401 1.397 . S
C400 C405 1.363 . S
C401 H372 0.950 . S
C401 C400 1.397 . S
C401 C402 1.334 . S
C402 H373 0.950 . S
C402 C401 1.334 . S
C402 C403 1.287 . S
C403 C402 1.287 . S
C403 C404 1.524 . S
C403 H406 0.999 . S
C404 H374 0.950 . S
C404 C403 1.524 . S
C404 C405 1.415 . S
C405 H375 0.950 . S
C405 C400 1.363 . S
C405 C404 1.415 . S
H406 C403 0.999 . S
H407 C388 0.913 . S
H408 C426 0.951 . S
H409 C428 0.951 . S
H410 C430 0.950 . S
H411 C431 0.950 . S
H412 C433 0.950 . S
H413 C436 0.950 . S
H414 C437 0.950 . S
H415 C439 0.950 . S
H416 C440 0.950 . S
H417 C441 0.951 . S
H418 C443 0.951 . S
H419 C445 0.950 . S
H420 C446 0.950 . S
H421 C448 0.950 . S
H422 C451 0.950 . S
H423 C452 0.950 . S
H424 C454 0.950 . S
H425 C455 0.950 . S
C426 H408 0.951 . S
C426 C427 1.366 . S
C426 C428 1.388 . S
C427 C426 1.366 . S
C427 C431 1.385 . S
C428 H409 0.951 . S
C428 C426 1.388 . S
C428 C429 1.366 . S
C429 C428 1.366 . S
C429 C430 1.414 . S
C429 C432 1.499 . S
C430 H410 0.950 . S
C430 C429 1.414 . S
C430 C431 1.374 . S
C431 H411 0.950 . S
C431 C427 1.385 . S
C431 C430 1.374 . S
C432 C429 1.499 . S
C432 C433 1.373 . S
C432 C434 1.389 . S
C433 H412 0.950 . S
C433 C432 1.373 . S
C433 C449 1.377 . S
C434 C432 1.389 . S
C434 C435 1.524 . S
C434 C448 1.377 . S
C435 C434 1.524 . S
C435 C436 1.397 . S
C435 C440 1.363 . S
C436 H413 0.950 . S
C436 C435 1.397 . S
C436 C437 1.334 . S
C437 H414 0.950 . S
C437 C436 1.334 . S
C437 C438 1.287 . S
C438 C437 1.287 . S
C438 C439 1.524 . S
C438 H457 0.913 . S
C439 H415 0.950 . S
C439 C438 1.524 . S
C439 C440 1.415 . S
C440 H416 0.950 . S
C440 C435 1.363 . S
C440 C439 1.415 . S
C441 H417 0.951 . S
C441 C442 1.366 . S
C441 C443 1.388 . S
C442 C441 1.366 . S
C442 C446 1.385 . S
C443 H418 0.951 . S
C443 C441 1.388 . S
C443 C444 1.366 . S
C444 C443 1.366 . S
C444 C445 1.414 . S
C444 C447 1.499 . S
C445 H419 0.950 . S
C445 C444 1.414 . S
C445 C446 1.374 . S
C446 H420 0.950 . S
C446 C442 1.385 . S
C446 C445 1.374 . S
C447 C444 1.499 . S
C447 C448 1.373 . S
C447 C449 1.389 . S
C448 H421 0.950 . S
C448 C434 1.377 . S
C448 C447 1.373 . S
C449 C433 1.377 . S
C449 C447 1.389 . S
C449 C450 1.524 . S
C450 C449 1.524 . S
C450 C451 1.397 . S
C450 C455 1.363 . S
C451 H422 0.950 . S
C451 C450 1.397 . S
C451 C452 1.334 . S
C452 H423 0.950 . S
C452 C451 1.334 . S
C452 C453 1.287 . S
C453 C452 1.287 . S
C453 C454 1.524 . S
C453 H456 0.999 . S
C454 H424 0.950 . S
C454 C453 1.524 . S
C454 C455 1.415 . S
C455 H425 0.950 . S
C455 C450 1.363 . S
C455 C454 1.415 . S
H456 C453 0.999 . S
H457 C438 0.913 . S
H458 C476 0.951 . S
H459 C478 0.951 . S
H460 C480 0.950 . S
H461 C481 0.950 . S
H462 C483 0.950 . S
H463 C486 0.950 . S
H464 C487 0.950 . S
H465 C489 0.950 . S
H466 C490 0.950 . S
H467 C491 0.951 . S
H468 C493 0.951 . S
H469 C495 0.950 . S
H470 C496 0.950 . S
H471 C498 0.950 . S
H472 C501 0.950 . S
H473 C502 0.950 . S
H474 C504 0.950 . S
H475 C505 0.950 . S
C476 H458 0.951 . S
C476 C477 1.366 . S
C476 C478 1.388 . S
C477 C476 1.366 . S
C477 C481 1.385 . S
C478 H459 0.951 . S
C478 C476 1.388 . S
C478 C479 1.366 . S
C479 C478 1.366 . S
C479 C480 1.414 . S
C479 C482 1.499 . S
C480 H460 0.950 . S
C480 C479 1.414 . S
C480 C481 1.374 . S
C481 H461 0.950 . S
C481 C477 1.385 . S
C481 C480 1.374 . S
C482 C479 1.499 . S
C482 C483 1.373 . S
C482 C484 1.389 . S
C483 H462 0.950 . S
C483 C482 1.373 . S
C483 C499 1.377 . S
C484 C482 1.389 . S
C484 C485 1.524 . S
C484 C498 1.377 . S
C485 C484 1.524 . S
C485 C486 1.397 . S
C485 C490 1.363 . S
C486 H463 0.950 . S
C486 C485 1.397 . S
C486 C487 1.334 . S
C487 H464 0.950 . S
C487 C486 1.334 . S
C487 C488 1.287 . S
C488 C487 1.287 . S
C488 C489 1.524 . S
C488 H507 0.913 . S
C489 H465 0.950 . S
C489 C488 1.524 . S
C489 C490 1.415 . S
C490 H466 0.950 . S
C490 C485 1.363 . S
C490 C489 1.415 . S
C491 H467 0.951 . S
C491 C492 1.366 . S
C491 C493 1.388 . S
C492 C491 1.366 . S
C492 C496 1.385 . S
C493 H468 0.951 . S
C493 C491 1.388 . S
C493 C494 1.366 . S
C494 C493 1.366 . S
C494 C495 1.414 . S
C494 C497 1.499 . S
C495 H469 0.950 . S
C495 C494 1.414 . S
C495 C496 1.374 . S
C496 H470 0.950 . S
C496 C492 1.385 . S
C496 C495 1.374 . S
C497 C494 1.499 . S
C497 C498 1.373 . S
C497 C499 1.389 . S
C498 H471 0.950 . S
C498 C484 1.377 . S
C498 C497 1.373 . S
C499 C483 1.377 . S
C499 C497 1.389 . S
C499 C500 1.524 . S
C500 C499 1.524 . S
C500 C501 1.397 . S
C500 C505 1.363 . S
C501 H472 0.950 . S
C501 C500 1.397 . S
C501 C502 1.334 . S
C502 H473 0.950 . S
C502 C501 1.334 . S
C502 C503 1.287 . S
C503 C502 1.287 . S
C503 C504 1.524 . S
C503 H506 0.999 . S
C504 H474 0.950 . S
C504 C503 1.524 . S
C504 C505 1.415 . S
C505 H475 0.950 . S
C505 C500 1.363 . S
C505 C504 1.415 . S
H506 C503 0.999 . S
H507 C488 0.913 . S
H508 C526 0.951 . S
H509 C528 0.951 . S
H510 C530 0.950 . S
H511 C531 0.950 . S
H512 C533 0.942 1_655 S
H513 C536 0.950 . S
H514 C537 0.950 . S
H515 C539 0.950 . S
H516 C540 0.950 . S
H517 C541 0.951 . S
H518 C543 0.951 . S
H519 C545 0.950 . S
H520 C546 0.950 . S
H521 C548 0.950 . S
H522 C551 0.950 . S
H523 C552 0.950 . S
H524 C554 0.950 . S
H525 C555 0.950 . S
C526 H508 0.951 . S
C526 C527 1.366 . S
C526 C528 1.388 . S
C527 C526 1.366 . S
C527 C531 1.385 1_545 S
C528 H509 0.951 . S
C528 C526 1.388 . S
C528 C529 1.366 . S
C529 C528 1.366 . S
C529 C530 1.414 1_545 S
C529 C532 1.499 . S
C530 H510 0.950 . S
C530 C529 1.414 1_565 S
C530 C531 1.374 . S
C531 H511 0.950 . S
C531 C527 1.385 1_565 S
C531 C530 1.374 . S
C532 C529 1.499 . S
C532 C533 1.386 1_545 S
C532 C534 1.389 . S
C533 H512 0.942 1_455 S
C533 C532 1.386 1_565 S
C533 C549 1.372 1_455 S
C534 C532 1.389 . S
C534 C535 1.524 . S
C534 C548 1.377 . S
C535 C534 1.524 . S
C535 C536 1.397 . S
C535 C540 1.363 . S
C536 H513 0.950 . S
C536 C535 1.397 . S
C536 C537 1.334 . S
C537 H514 0.950 . S
C537 C536 1.334 . S
C537 C538 1.287 . S
C538 C537 1.287 . S
C538 C539 1.524 . S
C538 H557 0.913 . S
C539 H515 0.950 . S
C539 C538 1.524 . S
C539 C540 1.415 . S
C540 H516 0.950 . S
C540 C535 1.363 . S
C540 C539 1.415 . S
C541 H517 0.951 . S
C541 C542 1.366 1_565 S
C541 C543 1.388 . S
C542 C541 1.366 1_545 S
C542 C546 1.385 . S
C543 H518 0.951 . S
C543 C541 1.388 . S
C543 C544 1.366 1_565 S
C544 C543 1.366 1_545 S
C544 C545 1.414 . S
C544 C547 1.499 . S
C545 H519 0.950 . S
C545 C544 1.414 . S
C545 C546 1.374 . S
C546 H520 0.950 . S
C546 C542 1.385 . S
C546 C545 1.374 . S
C547 C544 1.499 . S
C547 C548 1.373 . S
C547 C549 1.389 1_445 S
C548 H521 0.950 . S
C548 C534 1.377 . S
C548 C547 1.373 . S
C549 C533 1.372 1_655 S
C549 C547 1.389 1_665 S
C549 C550 1.524 . S
C550 C549 1.524 . S
C550 C551 1.397 . S
C550 C555 1.363 . S
C551 H522 0.950 . S
C551 C550 1.397 . S
C551 C552 1.334 . S
C552 H523 0.950 . S
C552 C551 1.334 . S
C552 C553 1.287 . S
C553 C552 1.287 . S
C553 C554 1.524 . S
C553 H556 0.999 . S
C554 H524 0.950 . S
C554 C553 1.524 . S
C554 C555 1.415 . S
C555 H525 0.950 . S
C555 C550 1.363 . S
C555 C554 1.415 . S
H556 C553 0.999 . S
H557 C538 0.913 . S
H558 C576 0.951 . S
H559 C578 0.950 . S
H560 C580 0.950 . S
H561 C581 0.950 . S
H562 C583 0.950 . S
H563 C586 0.950 . S
H564 C587 0.950 . S
H565 C589 0.950 . S
H566 C590 0.950 . S
H567 C591 0.951 . S
H568 C593 0.951 . S
H569 C595 0.950 . S
H570 C596 0.950 . S
H571 C598 0.950 . S
H572 C601 0.950 . S
H573 C602 0.950 . S
H574 C604 0.950 . S
H575 C605 0.950 . S
C576 H558 0.951 . S
C576 C577 1.366 1_655 S
C576 C578 1.388 . S
C577 C576 1.366 1_455 S
C577 C581 1.385 . S
C578 H559 0.950 . S
C578 C576 1.388 . S
C578 C579 1.366 1_655 S
C579 C578 1.366 1_455 S
C579 C580 1.414 . S
C579 C582 1.499 . S
C580 H560 0.950 . S
C580 C579 1.414 . S
C580 C581 1.374 . S
C581 H561 0.950 . S
C581 C577 1.385 . S
C581 C580 1.374 . S
C582 C579 1.499 . S
C582 C583 1.373 . S
C582 C584 1.389 1_445 S
C583 H562 0.950 . S
C583 C582 1.373 . S
C583 C599 1.377 . S
C584 C582 1.389 1_665 S
C584 C585 1.524 . S
C584 C598 1.377 . S
C585 C584 1.524 . S
C585 C586 1.397 . S
C585 C590 1.363 . S
C586 H563 0.950 . S
C586 C585 1.397 . S
C586 C587 1.334 . S
C587 H564 0.950 . S
C587 C586 1.334 . S
C587 C588 1.287 . S
C588 C587 1.287 . S
C588 C589 1.524 . S
C588 H607 0.913 . S
C589 H565 0.950 . S
C589 C588 1.524 . S
C589 C590 1.415 . S
C590 H566 0.950 . S
C590 C585 1.363 . S
C590 C589 1.415 . S
C591 H567 0.951 . S
C591 C592 1.366 1_455 S
C591 C593 1.388 . S
C592 C591 1.366 1_655 S
C592 C596 1.385 . S
C593 H568 0.951 . S
C593 C591 1.388 . S
C593 C594 1.366 1_455 S
C594 C593 1.366 1_655 S
C594 C595 1.414 . S
C594 C597 1.499 . S
C595 H569 0.950 . S
C595 C594 1.414 . S
C595 C596 1.374 . S
C596 H570 0.950 . S
C596 C592 1.385 . S
C596 C595 1.374 . S
C597 C594 1.499 . S
C597 C598 1.373 1_545 S
C597 C599 1.389 1_655 S
C598 H571 0.950 . S
C598 C584 1.377 . S
C598 C597 1.373 1_565 S
C599 C583 1.377 . S
C599 C597 1.389 1_455 S
C599 C600 1.524 . S
C600 C599 1.524 . S
C600 C601 1.397 . S
C600 C605 1.363 . S
C601 H572 0.950 . S
C601 C600 1.397 . S
C601 C602 1.334 . S
C602 H573 0.950 . S
C602 C601 1.334 . S
C602 C603 1.287 . S
C603 C602 1.287 . S
C603 C604 1.524 . S
C603 H606 0.999 . S
C604 H574 0.950 . S
C604 C603 1.524 . S
C604 C605 1.415 . S
C605 H575 0.950 . S
C605 C600 1.363 . S
C605 C604 1.415 . S
H606 C603 0.999 . S
H607 C588 0.913 . S
H608 C626 0.951 . S
H609 C628 0.951 . S
H610 C630 0.950 . S
H611 C631 0.950 . S
H612 C633 0.950 . S
H613 C636 0.950 . S
H614 C637 0.950 . S
H615 C639 0.950 . S
H616 C640 0.950 . S
H617 C641 0.951 . S
H618 C643 0.951 . S
H619 C645 0.950 . S
H620 C646 0.950 . S
H621 C648 0.950 . S
H622 C651 0.950 . S
H623 C652 0.950 . S
H624 C654 0.950 . S
H625 C655 0.950 . S
C626 H608 0.951 . S
C626 C627 1.366 . S
C626 C628 1.388 . S
C627 C626 1.366 . S
C627 C631 1.385 . S
C628 H609 0.951 . S
C628 C626 1.388 . S
C628 C629 1.366 . S
C629 C628 1.366 . S
C629 C630 1.414 . S
C629 C632 1.499 . S
C630 H610 0.950 . S
C630 C629 1.414 . S
C630 C631 1.374 . S
C631 H611 0.950 . S
C631 C627 1.385 . S
C631 C630 1.374 . S
C632 C629 1.499 . S
C632 C633 1.373 . S
C632 C634 1.389 . S
C633 H612 0.950 . S
C633 C632 1.373 . S
C633 C649 1.377 . S
C634 C632 1.389 . S
C634 C635 1.524 . S
C634 C648 1.377 . S
C635 C634 1.524 . S
C635 C636 1.397 . S
C635 C640 1.363 . S
C636 H613 0.950 . S
C636 C635 1.397 . S
C636 C637 1.334 . S
C637 H614 0.950 . S
C637 C636 1.334 . S
C637 C638 1.287 . S
C638 C637 1.287 . S
C638 C639 1.524 . S
C638 H657 0.913 . S
C639 H615 0.950 . S
C639 C638 1.524 . S
C639 C640 1.415 . S
C640 H616 0.950 . S
C640 C635 1.363 . S
C640 C639 1.415 . S
C641 H617 0.951 . S
C641 C642 1.366 . S
C641 C643 1.388 . S
C642 C641 1.366 . S
C642 C646 1.385 . S
C643 H618 0.951 . S
C643 C641 1.388 . S
C643 C644 1.366 . S
C644 C643 1.366 . S
C644 C645 1.414 . S
C644 C647 1.499 . S
C645 H619 0.950 . S
C645 C644 1.414 . S
C645 C646 1.374 . S
C646 H620 0.950 . S
C646 C642 1.385 . S
C646 C645 1.374 . S
C647 C644 1.499 . S
C647 C648 1.373 . S
C647 C649 1.389 . S
C648 H621 0.950 . S
C648 C634 1.377 . S
C648 C647 1.373 . S
C649 C633 1.377 . S
C649 C647 1.389 . S
C649 C650 1.524 . S
C650 C649 1.524 . S
C650 C651 1.397 . S
C650 C655 1.363 . S
C651 H622 0.950 . S
C651 C650 1.397 . S
C651 C652 1.334 . S
C652 H623 0.950 . S
C652 C651 1.334 . S
C652 C653 1.287 . S
C653 C652 1.287 . S
C653 C654 1.524 . S
C653 H656 0.999 . S
C654 H624 0.950 . S
C654 C653 1.524 . S
C654 C655 1.415 . S
C655 H625 0.950 . S
C655 C650 1.363 . S
C655 C654 1.415 . S
H656 C653 0.999 . S
H657 C638 0.913 . S
H658 C676 0.951 . S
H659 C678 0.951 . S
H660 C680 0.950 . S
H661 C681 0.950 . S
H662 C683 0.950 . S
H663 C686 0.950 . S
H664 C687 0.950 . S
H665 C689 0.950 . S
H666 C690 0.950 . S
H667 C691 0.951 . S
H668 C693 0.951 . S
H669 C695 0.950 . S
H670 C696 0.950 . S
H671 C698 0.950 . S
H672 C701 0.950 . S
H673 C702 0.950 . S
H674 C704 0.950 . S
H675 C705 0.950 . S
C676 H658 0.951 . S
C676 C677 1.366 . S
C676 C678 1.388 . S
C677 C676 1.366 . S
C677 C681 1.385 . S
C678 H659 0.951 . S
C678 C676 1.388 . S
C678 C679 1.366 . S
C679 C678 1.366 . S
C679 C680 1.414 . S
C679 C682 1.499 . S
C680 H660 0.950 . S
C680 C679 1.414 . S
C680 C681 1.374 . S
C681 H661 0.950 . S
C681 C677 1.385 . S
C681 C680 1.374 . S
C682 C679 1.499 . S
C682 C683 1.373 . S
C682 C684 1.389 . S
C683 H662 0.950 . S
C683 C682 1.373 . S
C683 C699 1.377 . S
C684 C682 1.389 . S
C684 C685 1.524 . S
C684 C698 1.377 . S
C685 C684 1.524 . S
C685 C686 1.397 . S
C685 C690 1.363 . S
C686 H663 0.950 . S
C686 C685 1.397 . S
C686 C687 1.334 . S
C687 H664 0.950 . S
C687 C686 1.334 . S
C687 C688 1.287 . S
C688 C687 1.287 . S
C688 C689 1.524 . S
C688 H707 0.913 . S
C689 H665 0.950 . S
C689 C688 1.524 . S
C689 C690 1.415 . S
C690 H666 0.950 . S
C690 C685 1.363 . S
C690 C689 1.415 . S
C691 H667 0.951 . S
C691 C692 1.366 . S
C691 C693 1.388 . S
C692 C691 1.366 . S
C692 C696 1.385 . S
C693 H668 0.951 . S
C693 C691 1.388 . S
C693 C694 1.366 . S
C694 C693 1.366 . S
C694 C695 1.414 . S
C694 C697 1.499 . S
C695 H669 0.950 . S
C695 C694 1.414 . S
C695 C696 1.374 . S
C696 H670 0.950 . S
C696 C692 1.385 . S
C696 C695 1.374 . S
C697 C694 1.499 . S
C697 C698 1.373 . S
C697 C699 1.389 . S
C698 H671 0.950 . S
C698 C684 1.377 . S
C698 C697 1.373 . S
C699 C683 1.377 . S
C699 C697 1.389 . S
C699 C700 1.524 . S
C700 C699 1.524 . S
C700 C701 1.397 . S
C700 C705 1.363 . S
C701 H672 0.950 . S
C701 C700 1.397 . S
C701 C702 1.334 . S
C702 H673 0.950 . S
C702 C701 1.334 . S
C702 C703 1.287 . S
C703 C702 1.287 . S
C703 C704 1.524 . S
C703 H706 0.999 . S
C704 H674 0.950 . S
C704 C703 1.524 . S
C704 C705 1.415 . S
C705 H675 0.950 . S
C705 C700 1.363 . S
C705 C704 1.415 . S
H706 C703 0.999 . S
H707 C688 0.913 . S
C142 C102 1.439 . S
C127 C27 1.466 . S
C177 N6 1.295 . S
C192 C88 1.310 . S
C227 C16 1.372 . S
C242 C100 1.331 . S
C277 N14 1.424 1_556 S
C292 C90 1.425 . S
C327 C57 1.466 . S
C342 C78 1.438 . S
C377 N36 1.296 . S
C392 C64 1.310 . S
C442 C76 1.331 . S
C427 C46 1.372 . S
C492 C66 1.424 . S
C477 N44 1.423 . S
C527 C10 1.475 . S
C542 C69 1.473 1_545 S
C577 C1 1.543 . S
C592 C81 1.539 . S
C642 C93 1.473 . S
C627 C40 1.475 . S
C677 C31 1.543 . S
C692 C105 1.539 . S
