# Generated by pormake.
# Topology ssb, (4,4)-cn, num edge types: 1
# Building blocks:
#     Node 0, Type 0, BuildingBlock: MIFKUJ_clean_linker_1, # of connection points: 4
#     Node 1, Type 0, BuildingBlock: MIFKUJ_clean_linker_1, # of connection points: 4
#     Node 2, Type 0, BuildingBlock: MIFKUJ_clean_linker_1, # of connection points: 4
#     Node 3, Type 0, BuildingBlock: MIFKUJ_clean_linker_1, # of connection points: 4
#     Node 4, Type 0, BuildingBlock: MIFKUJ_clean_linker_1, # of connection points: 4
#     Node 5, Type 0, BuildingBlock: MIFKUJ_clean_linker_1, # of connection points: 4
#     Node 6, Type 0, BuildingBlock: MIFKUJ_clean_linker_1, # of connection points: 4
#     Node 7, Type 0, BuildingBlock: MIFKUJ_clean_linker_1, # of connection points: 4
#     Node 8, Type 1, BuildingBlock: NAWXER_clean_sbu_0, # of connection points: 4
#     Node 9, Type 1, BuildingBlock: NAWXER_clean_sbu_0, # of connection points: 4
#     Node 10, Type 1, BuildingBlock: NAWXER_clean_sbu_0, # of connection points: 4
#     Node 11, Type 1, BuildingBlock: NAWXER_clean_sbu_0, # of connection points: 4
#     Node 12, Type 1, BuildingBlock: NAWXER_clean_sbu_0, # of connection points: 4
#     Node 13, Type 1, BuildingBlock: NAWXER_clean_sbu_0, # of connection points: 4
#     Node 14, Type 1, BuildingBlock: NAWXER_clean_sbu_0, # of connection points: 4
#     Node 15, Type 1, BuildingBlock: NAWXER_clean_sbu_0, # of connection points: 4
#     Edge 16, Type (0, 1), BuildingBlock: XIVTED_clean_linker_0, # of connection points: 2
#     Edge 17, Type (0, 1), BuildingBlock: XIVTED_clean_linker_0, # of connection points: 2
#     Edge 18, Type (0, 1), BuildingBlock: XIVTED_clean_linker_0, # of connection points: 2
#     Edge 19, Type (0, 1), BuildingBlock: XIVTED_clean_linker_0, # of connection points: 2
#     Edge 20, Type (0, 1), BuildingBlock: XIVTED_clean_linker_0, # of connection points: 2
#     Edge 21, Type (0, 1), BuildingBlock: XIVTED_clean_linker_0, # of connection points: 2
#     Edge 22, Type (0, 1), BuildingBlock: XIVTED_clean_linker_0, # of connection points: 2
#     Edge 23, Type (0, 1), BuildingBlock: XIVTED_clean_linker_0, # of connection points: 2
#     Edge 24, Type (0, 1), BuildingBlock: XIVTED_clean_linker_0, # of connection points: 2
#     Edge 25, Type (0, 1), BuildingBlock: XIVTED_clean_linker_0, # of connection points: 2
#     Edge 26, Type (0, 1), BuildingBlock: XIVTED_clean_linker_0, # of connection points: 2
#     Edge 27, Type (0, 1), BuildingBlock: XIVTED_clean_linker_0, # of connection points: 2
#     Edge 28, Type (0, 1), BuildingBlock: XIVTED_clean_linker_0, # of connection points: 2
#     Edge 29, Type (0, 1), BuildingBlock: XIVTED_clean_linker_0, # of connection points: 2
#     Edge 30, Type (0, 1), BuildingBlock: XIVTED_clean_linker_0, # of connection points: 2
#     Edge 31, Type (0, 1), BuildingBlock: XIVTED_clean_linker_0, # of connection points: 2
#     Edge 32, Type (0, 1), BuildingBlock: XIVTED_clean_linker_0, # of connection points: 2
#     Edge 33, Type (0, 1), BuildingBlock: XIVTED_clean_linker_0, # of connection points: 2
#     Edge 34, Type (0, 1), BuildingBlock: XIVTED_clean_linker_0, # of connection points: 2
#     Edge 35, Type (0, 1), BuildingBlock: XIVTED_clean_linker_0, # of connection points: 2
#     Edge 36, Type (0, 1), BuildingBlock: XIVTED_clean_linker_0, # of connection points: 2
#     Edge 37, Type (0, 1), BuildingBlock: XIVTED_clean_linker_0, # of connection points: 2
#     Edge 38, Type (0, 1), BuildingBlock: XIVTED_clean_linker_0, # of connection points: 2
#     Edge 39, Type (0, 1), BuildingBlock: XIVTED_clean_linker_0, # of connection points: 2
#     Edge 40, Type (0, 1), BuildingBlock: XIVTED_clean_linker_0, # of connection points: 2
#     Edge 41, Type (0, 1), BuildingBlock: XIVTED_clean_linker_0, # of connection points: 2
#     Edge 42, Type (0, 1), BuildingBlock: XIVTED_clean_linker_0, # of connection points: 2
#     Edge 43, Type (0, 1), BuildingBlock: XIVTED_clean_linker_0, # of connection points: 2
#     Edge 44, Type (0, 1), BuildingBlock: XIVTED_clean_linker_0, # of connection points: 2
#     Edge 45, Type (0, 1), BuildingBlock: XIVTED_clean_linker_0, # of connection points: 2
#     Edge 46, Type (0, 1), BuildingBlock: XIVTED_clean_linker_0, # of connection points: 2
#     Edge 47, Type (0, 1), BuildingBlock: XIVTED_clean_linker_0, # of connection points: 2
# Relax obj value: 0.000
# Max RMSD: 0.000
# Mean RMSD: 0.000
data_MOF--net-ssb--node1-NAWXER_clean_sbu_0--node2-MIFKUJ_clean_linker_1--edge1-XIVTED_clean_linker_0
_symmetry_space_group_name_H-M    P1
_symmetry_Int_Tables_number       1
_symmetry_cell_setting            triclinic
loop_
_symmetry_equiv_pos_as_xyz
'x, y, z'
_cell_length_a     54.410946
_cell_length_b     54.419267
_cell_length_c     47.573263
_cell_angle_alpha  89.895895
_cell_angle_beta   90.027583
_cell_angle_gamma 89.988967
loop_
_atom_site_label
_atom_site_type_symbol
_atom_site_fract_x
_atom_site_fract_y
_atom_site_fract_z
_atom_type_partial_charge
H0 H 0.27343 0.19568 0.17027 0.0
H1 H 0.31026 0.19155 0.14151 0.0
H2 H 0.33656 0.26132 0.17293 0.0
H3 H 0.30062 0.26431 0.20318 0.0
H4 H 0.26861 0.19685 0.22534 0.0
H5 H 0.25311 0.25703 0.14987 0.0
H6 H 0.26221 0.29407 0.12236 0.0
H7 H 0.26067 0.3373 0.1984 0.0
H8 H 0.25178 0.30034 0.22571 0.0
H9 H 0.20656 0.2688 0.28051 0.0
H10 H 0.17134 0.26778 0.31245 0.0
H11 H 0.14815 0.19884 0.2761 0.0
H12 H 0.18339 0.19998 0.24432 0.0
H13 H 0.21366 0.26962 0.22473 0.0
H14 H 0.23826 0.21912 0.29963 0.0
H15 H 0.23432 0.18757 0.33596 0.0
H16 H 0.22507 0.13225 0.27184 0.0
H17 H 0.22898 0.16409 0.23536 0.0
C18 C 0.28398 0.23051 0.18859 0.0
C19 C 0.28723 0.21002 0.17107 0.0
C20 C 0.30824 0.20781 0.15437 0.0
C21 C 0.32648 0.22614 0.15465 0.0
C22 C 0.32318 0.24662 0.17235 0.0
C23 C 0.30235 0.2486 0.18938 0.0
C24 C 0.26174 0.23235 0.20662 0.0
C25 C 0.25636 0.21257 0.22466 0.0
C26 C 0.2465 0.25354 0.20711 0.0
C27 C 0.25182 0.27583 0.18993 0.0
C28 C 0.25493 0.27445 0.16063 0.0
C29 C 0.26022 0.29563 0.14494 0.0
C30 C 0.26217 0.31866 0.15818 0.0
C31 C 0.25902 0.31993 0.18749 0.0
C32 C 0.25391 0.29879 0.20314 0.0
C33 C 0.19777 0.23437 0.26019 0.0
C34 C 0.19371 0.25364 0.27919 0.0
C35 C 0.17355 0.25301 0.29744 0.0
C36 C 0.157 0.23311 0.29699 0.0
C37 C 0.16077 0.21419 0.27738 0.0
C38 C 0.18086 0.21488 0.25911 0.0
C39 C 0.2203 0.23382 0.24252 0.0
C40 C 0.22578 0.25379 0.22486 0.0
C41 C 0.23631 0.21338 0.24311 0.0
C42 C 0.23384 0.19394 0.26482 0.0
C43 C 0.23528 0.20022 0.29337 0.0
C44 C 0.23311 0.18218 0.3141 0.0
C45 C 0.2294 0.15747 0.30671 0.0
C46 C 0.22771 0.1512 0.2781 0.0
C47 C 0.23014 0.16928 0.25729 0.0
H48 H 0.65337 0.28068 0.2648 0.0
H49 H 0.62379 0.27988 0.22574 0.0
H50 H 0.68364 0.2706 0.16707 0.0
H51 H 0.71296 0.27144 0.20605 0.0
H52 H 0.69215 0.24439 0.28025 0.0
H53 H 0.68162 0.32774 0.24725 0.0
H54 H 0.68008 0.35747 0.20883 0.0
H55 H 0.75731 0.34492 0.19268 0.0
H56 H 0.75815 0.31392 0.22956 0.0
H57 H 0.78925 0.28526 0.28786 0.0
H58 H 0.8249 0.28719 0.31882 0.0
H59 H 0.77798 0.27488 0.39066 0.0
H60 H 0.74202 0.27355 0.35953 0.0
H61 H 0.75189 0.31313 0.28313 0.0
H62 H 0.76394 0.22906 0.30978 0.0
H63 H 0.76638 0.19231 0.33887 0.0
H64 H 0.6898 0.201 0.36121 0.0
H65 H 0.68815 0.23885 0.33392 0.0
C66 C 0.68529 0.27618 0.23824 0.0
C67 C 0.66001 0.27826 0.24352 0.0
C68 C 0.64321 0.27803 0.22122 0.0
C69 C 0.65145 0.27527 0.19338 0.0
C70 C 0.67675 0.27259 0.18831 0.0
C71 C 0.69351 0.2731 0.21052 0.0
C72 C 0.70336 0.27846 0.26138 0.0
C73 C 0.705 0.2596 0.28141 0.0
C74 C 0.72034 0.29808 0.26216 0.0
C75 C 0.71986 0.31817 0.24094 0.0
C76 C 0.69814 0.33123 0.23522 0.0
C77 C 0.69738 0.34849 0.21343 0.0
C78 C 0.71849 0.35343 0.19729 0.0
C79 C 0.74049 0.34115 0.20405 0.0
C80 C 0.74112 0.32363 0.22549 0.0
C81 C 0.76288 0.27913 0.32128 0.0
C82 C 0.78652 0.28318 0.3103 0.0
C83 C 0.80691 0.28436 0.32802 0.0
C84 C 0.80422 0.28132 0.35716 0.0
C85 C 0.7806 0.27715 0.36824 0.0
C86 C 0.76007 0.27629 0.35047 0.0
C87 C 0.74142 0.27858 0.30189 0.0
C88 C 0.73893 0.29798 0.28255 0.0
C89 C 0.72405 0.25909 0.30146 0.0
C90 C 0.72599 0.23712 0.32003 0.0
C91 C 0.74785 0.22345 0.32154 0.0
C92 C 0.74907 0.20207 0.33785 0.0
C93 C 0.72825 0.19342 0.35244 0.0
C94 C 0.70637 0.20717 0.3508 0.0
C95 C 0.70531 0.22878 0.3349 0.0
H96 H 0.74783 0.80165 0.16708 0.0
H97 H 0.71032 0.8012 0.13872 0.0
H98 H 0.68967 0.73195 0.17662 0.0
H99 H 0.7273 0.7324 0.20451 0.0
H100 H 0.751 0.80259 0.22398 0.0
H101 H 0.781 0.74773 0.15006 0.0
H102 H 0.77975 0.71142 0.11954 0.0
H103 H 0.77509 0.66465 0.19277 0.0
H104 H 0.7764 0.70091 0.22311 0.0
H105 H 0.81378 0.73548 0.2838 0.0
H106 H 0.84573 0.73746 0.31974 0.0
H107 H 0.86809 0.80864 0.28847 0.0
H108 H 0.83599 0.80652 0.25247 0.0
H109 H 0.81288 0.73569 0.2278 0.0
H110 H 0.78401 0.78616 0.30163 0.0
H111 H 0.78581 0.81971 0.33562 0.0
H112 H 0.78382 0.87243 0.26771 0.0
H113 H 0.78284 0.83871 0.23358 0.0
C114 C 0.74056 0.7669 0.18763 0.0
C115 C 0.73529 0.78628 0.16906 0.0
C116 C 0.71374 0.78608 0.15302 0.0
C117 C 0.69691 0.76655 0.15537 0.0
C118 C 0.70237 0.74708 0.17387 0.0
C119 C 0.72393 0.74728 0.18985 0.0
C120 C 0.76249 0.76807 0.20617 0.0
C121 C 0.76483 0.78823 0.22438 0.0
C122 C 0.77995 0.74881 0.20752 0.0
C123 C 0.77866 0.72702 0.18885 0.0
C124 C 0.77961 0.72965 0.1595 0.0
C125 C 0.77908 0.70891 0.14211 0.0
C126 C 0.77733 0.68521 0.15378 0.0
C127 C 0.77626 0.68268 0.18317 0.0
C128 C 0.77711 0.70336 0.20052 0.0
C129 C 0.82236 0.7709 0.26555 0.0
C130 C 0.82578 0.75136 0.28441 0.0
C131 C 0.84407 0.75254 0.30497 0.0
C132 C 0.85943 0.77326 0.30704 0.0
C133 C 0.85634 0.79259 0.28771 0.0
C134 C 0.83808 0.79135 0.26705 0.0
C135 C 0.80155 0.77036 0.24533 0.0
C136 C 0.79928 0.75027 0.22703 0.0
C137 C 0.78382 0.78941 0.24432 0.0
C138 C 0.78382 0.80988 0.26498 0.0
C139 C 0.78432 0.80491 0.29398 0.0
C140 C 0.78533 0.82409 0.3134 0.0
C141 C 0.78521 0.84864 0.30427 0.0
C142 C 0.78394 0.85365 0.2753 0.0
C143 C 0.78333 0.83442 0.25582 0.0
H144 H 0.23257 0.69515 0.33776 0.0
H145 H 0.1973 0.69469 0.36926 0.0
H146 H 0.18156 0.77018 0.347 0.0
H147 H 0.21576 0.76983 0.314 0.0
H148 H 0.22953 0.69957 0.2828 0.0
H149 H 0.27001 0.75168 0.3566 0.0
H150 H 0.27215 0.7891 0.38543 0.0
H151 H 0.26679 0.83342 0.31026 0.0
H152 H 0.26444 0.79626 0.2818 0.0
H153 H 0.29794 0.76293 0.22236 0.0
H154 H 0.33119 0.76021 0.18812 0.0
H155 H 0.34235 0.68398 0.2103 0.0
H156 H 0.30892 0.6868 0.24455 0.0
H157 H 0.2979 0.75945 0.27616 0.0
H158 H 0.25622 0.72061 0.20374 0.0
H159 H 0.24722 0.69196 0.16575 0.0
H160 H 0.24466 0.63217 0.22557 0.0
H161 H 0.25371 0.66106 0.26367 0.0
C162 C 0.22706 0.73259 0.32365 0.0
C163 C 0.22161 0.71167 0.33983 0.0
C164 C 0.20148 0.71151 0.35806 0.0
C165 C 0.18638 0.73236 0.3607 0.0
C166 C 0.19244 0.7536 0.34519 0.0
C167 C 0.21236 0.75362 0.32664 0.0
C168 C 0.24647 0.73128 0.30174 0.0
C169 C 0.24484 0.71232 0.2818 0.0
C170 C 0.26541 0.74901 0.29906 0.0
C171 C 0.26689 0.7712 0.31708 0.0
C172 C 0.26924 0.76948 0.34642 0.0
C173 C 0.27066 0.79084 0.36281 0.0
C174 C 0.26953 0.81418 0.35009 0.0
C175 C 0.26741 0.81573 0.32071 0.0
C176 C 0.2662 0.7945 0.30441 0.0
C177 C 0.3009 0.7251 0.23611 0.0
C178 C 0.30753 0.74562 0.21989 0.0
C179 C 0.3266 0.74404 0.20034 0.0
C180 C 0.33958 0.72191 0.19662 0.0
C181 C 0.33259 0.70122 0.21245 0.0
C182 C 0.31349 0.70283 0.23208 0.0
C183 C 0.28138 0.72726 0.25786 0.0
C184 C 0.28291 0.74637 0.27757 0.0
C185 C 0.26149 0.71058 0.2594 0.0
C186 C 0.25619 0.6929 0.23648 0.0
C187 C 0.25399 0.7013 0.20868 0.0
C188 C 0.24874 0.68491 0.18699 0.0
C189 C 0.24537 0.65977 0.19264 0.0
C190 C 0.24695 0.65146 0.22059 0.0
C191 C 0.25229 0.6679 0.24234 0.0
H192 H 0.17486 0.76632 0.76882 0.0
H193 H 0.13983 0.76838 0.73649 0.0
H194 H 0.18983 0.7723 0.66612 0.0
H195 H 0.22471 0.76986 0.69846 0.0
H196 H 0.21555 0.73515 0.77511 0.0
H197 H 0.19917 0.81991 0.74673 0.0
H198 H 0.19282 0.8497 0.70885 0.0
H199 H 0.26755 0.83799 0.68102 0.0
H200 H 0.2732 0.80726 0.71772 0.0
H201 H 0.31208 0.77749 0.77921 0.0
H202 H 0.34731 0.78057 0.81102 0.0
H203 H 0.29853 0.77501 0.88235 0.0
H204 H 0.26327 0.77205 0.85038 0.0
H205 H 0.27187 0.80687 0.77349 0.0
H206 H 0.29049 0.72438 0.79868 0.0
H207 H 0.29834 0.68975 0.83006 0.0
H208 H 0.22312 0.69325 0.85909 0.0
H209 H 0.21594 0.72885 0.82907 0.0
C210 C 0.20238 0.76826 0.73609 0.0
C211 C 0.17825 0.7672 0.7464 0.0
C212 C 0.15827 0.76847 0.72792 0.0
C213 C 0.1621 0.77088 0.6988 0.0
C214 C 0.1863 0.77097 0.68847 0.0
C215 C 0.20624 0.76942 0.70692 0.0
C216 C 0.22343 0.77011 0.75586 0.0
C217 C 0.2277 0.75095 0.77511 0.0
C218 C 0.23962 0.7905 0.75521 0.0
C219 C 0.23651 0.81095 0.73473 0.0
C220 C 0.21415 0.82375 0.7324 0.0
C221 C 0.21061 0.84095 0.71085 0.0
C222 C 0.22952 0.84598 0.69151 0.0
C223 C 0.25232 0.83409 0.69497 0.0
C224 C 0.25573 0.81674 0.71625 0.0
C225 C 0.28511 0.77431 0.81244 0.0
C226 C 0.30897 0.77706 0.8017 0.0
C227 C 0.32906 0.77871 0.81987 0.0
C228 C 0.32564 0.77798 0.84915 0.0
C229 C 0.30167 0.77582 0.85989 0.0
C230 C 0.28157 0.77393 0.84168 0.0
C231 C 0.26398 0.77198 0.79295 0.0
C232 C 0.25964 0.79111 0.77375 0.0
C233 C 0.24807 0.75135 0.79338 0.0
C234 C 0.25274 0.72968 0.81188 0.0
C235 C 0.2758 0.71798 0.81218 0.0
C236 C 0.28018 0.69787 0.8299 0.0
C237 C 0.26146 0.68867 0.84742 0.0
C238 C 0.23821 0.70008 0.84649 0.0
C239 C 0.23395 0.72035 0.82903 0.0
H240 H 0.32519 0.27678 0.74194 0.0
H241 H 0.35972 0.28173 0.77441 0.0
H242 H 0.30994 0.27594 0.84477 0.0
H243 H 0.27554 0.27039 0.8123 0.0
H244 H 0.29482 0.23992 0.73352 0.0
H245 H 0.28338 0.32533 0.76242 0.0
H246 H 0.27772 0.35868 0.79606 0.0
H247 H 0.21391 0.32163 0.82992 0.0
H248 H 0.21939 0.28866 0.79562 0.0
H249 H 0.18969 0.25302 0.72586 0.0
H250 H 0.15601 0.25344 0.69174 0.0
H251 H 0.20782 0.26821 0.62506 0.0
H252 H 0.24153 0.26769 0.65936 0.0
H253 H 0.21988 0.2917 0.73753 0.0
H254 H 0.22691 0.20929 0.71007 0.0
H255 H 0.22957 0.17363 0.67936 0.0
H256 H 0.29865 0.20039 0.64654 0.0
H257 H 0.29594 0.2361 0.67772 0.0
C258 C 0.29766 0.27348 0.77458 0.0
C259 C 0.32169 0.27653 0.76435 0.0
C260 C 0.3414 0.27938 0.78292 0.0
C261 C 0.33751 0.27936 0.81213 0.0
C262 C 0.31345 0.27646 0.82237 0.0
C263 C 0.29377 0.2733 0.8038 0.0
C264 C 0.27687 0.27003 0.75463 0.0
C265 C 0.27862 0.25153 0.73409 0.0
C266 C 0.25516 0.28434 0.75613 0.0
C267 C 0.25198 0.30442 0.77677 0.0
C268 C 0.26825 0.32438 0.77718 0.0
C269 C 0.26499 0.34339 0.7965 0.0
C270 C 0.24542 0.34279 0.81587 0.0
C271 C 0.22898 0.32286 0.81513 0.0
C272 C 0.23218 0.30392 0.79567 0.0
C273 C 0.21809 0.26016 0.6951 0.0
C274 C 0.19381 0.25611 0.70386 0.0
C275 C 0.17462 0.25631 0.68436 0.0
C276 C 0.17932 0.26095 0.65578 0.0
C277 C 0.20368 0.26481 0.647 0.0
C278 C 0.22293 0.26428 0.66649 0.0
C279 C 0.23808 0.26201 0.71615 0.0
C280 C 0.23613 0.28016 0.73689 0.0
C281 C 0.25933 0.24707 0.7151 0.0
C282 C 0.261 0.22563 0.69588 0.0
C283 C 0.24249 0.20768 0.69603 0.0
C284 C 0.24406 0.18725 0.67842 0.0
C285 C 0.26423 0.18421 0.66026 0.0
C286 C 0.28296 0.20205 0.66041 0.0
C287 C 0.28138 0.22253 0.67811 0.0
H288 H 0.74494 0.19959 0.83118 0.0
H289 H 0.70775 0.20023 0.86002 0.0
H290 H 0.68644 0.26903 0.82149 0.0
H291 H 0.7238 0.2684 0.79311 0.0
H292 H 0.7477 0.19833 0.77394 0.0
H293 H 0.77811 0.25376 0.84769 0.0
H294 H 0.77672 0.29037 0.87775 0.0
H295 H 0.77084 0.33633 0.80395 0.0
H296 H 0.77237 0.29976 0.77407 0.0
H297 H 0.81203 0.26515 0.71499 0.0
H298 H 0.8447 0.26285 0.67993 0.0
H299 H 0.86503 0.19098 0.71088 0.0
H300 H 0.83239 0.19347 0.74619 0.0
H301 H 0.8098 0.265 0.77035 0.0
H302 H 0.78115 0.21464 0.69655 0.0
H303 H 0.78323 0.18113 0.66253 0.0
H304 H 0.78092 0.12834 0.73035 0.0
H305 H 0.77956 0.16203 0.76451 0.0
C306 C 0.73732 0.2341 0.81026 0.0
C307 C 0.73231 0.21489 0.82913 0.0
C308 C 0.71095 0.21521 0.84546 0.0
C309 C 0.69403 0.23467 0.84309 0.0
C310 C 0.69922 0.25396 0.82425 0.0
C311 C 0.72061 0.25365 0.80798 0.0
C312 C 0.75919 0.23289 0.79166 0.0
C313 C 0.76156 0.21265 0.77357 0.0
C314 C 0.77667 0.25211 0.79028 0.0
C315 C 0.77523 0.27406 0.80867 0.0
C316 C 0.77643 0.27172 0.83804 0.0
C317 C 0.7758 0.29263 0.85515 0.0
C318 C 0.77367 0.31618 0.84317 0.0
C319 C 0.7723 0.31841 0.81377 0.0
C320 C 0.77328 0.29756 0.79669 0.0
C321 C 0.81962 0.22943 0.73311 0.0
C322 C 0.82373 0.24904 0.71452 0.0
C323 C 0.84241 0.24768 0.69445 0.0
C324 C 0.8574 0.22667 0.69256 0.0
C325 C 0.85357 0.20724 0.71155 0.0
C326 C 0.83499 0.20869 0.73179 0.0
C327 C 0.79852 0.23026 0.75293 0.0
C328 C 0.79616 0.25048 0.77103 0.0
C329 C 0.78067 0.21133 0.7538 0.0
C330 C 0.78069 0.19088 0.73315 0.0
C331 C 0.7814 0.19587 0.70417 0.0
C332 C 0.7826 0.17673 0.68474 0.0
C333 C 0.7825 0.15216 0.69384 0.0
C334 C 0.78101 0.14713 0.72278 0.0
C335 C 0.78019 0.16633 0.74228 0.0
H336 H 0.7542 0.69985 0.66493 0.0
H337 H 0.79162 0.70008 0.63639 0.0
H338 H 0.81327 0.76875 0.67466 0.0
H339 H 0.7758 0.76849 0.7028 0.0
H340 H 0.75078 0.69862 0.7219 0.0
H341 H 0.72152 0.75467 0.64807 0.0
H342 H 0.7238 0.79123 0.61785 0.0
H343 H 0.7306 0.83706 0.69146 0.0
H344 H 0.72818 0.80056 0.7215 0.0
H345 H 0.68945 0.7664 0.78197 0.0
H346 H 0.65799 0.76432 0.81846 0.0
H347 H 0.63399 0.69408 0.78627 0.0
H348 H 0.66563 0.69628 0.74979 0.0
H349 H 0.6902 0.76672 0.72562 0.0
H350 H 0.71884 0.71601 0.79926 0.0
H351 H 0.71614 0.68278 0.83368 0.0
H352 H 0.71548 0.6296 0.76641 0.0
H353 H 0.71744 0.66307 0.73185 0.0
C354 C 0.762 0.73434 0.68568 0.0
C355 C 0.76696 0.71503 0.66698 0.0
C356 C 0.78843 0.71511 0.65083 0.0
C357 C 0.80547 0.73445 0.65318 0.0
C358 C 0.80037 0.75379 0.6719 0.0
C359 C 0.77891 0.7537 0.68801 0.0
C360 C 0.74 0.73345 0.7041 0.0
C361 C 0.73723 0.71324 0.72224 0.0
C362 C 0.72291 0.75303 0.70547 0.0
C363 C 0.72477 0.77493 0.687 0.0
C364 C 0.72357 0.7726 0.65765 0.0
C365 C 0.72472 0.79347 0.64045 0.0
C366 C 0.72739 0.81696 0.65234 0.0
C367 C 0.72874 0.81918 0.68173 0.0
C368 C 0.72724 0.79838 0.69889 0.0
C369 C 0.68 0.73145 0.76326 0.0
C370 C 0.67716 0.75074 0.78249 0.0
C371 C 0.65916 0.74949 0.80336 0.0
C372 C 0.64354 0.72895 0.80538 0.0
C373 C 0.64597 0.70995 0.78558 0.0
C374 C 0.66394 0.71126 0.76462 0.0
C375 C 0.7008 0.73173 0.74305 0.0
C376 C 0.70348 0.75186 0.72484 0.0
C377 C 0.71819 0.7124 0.74211 0.0
C378 C 0.71785 0.69206 0.76294 0.0
C379 C 0.7178 0.69723 0.79186 0.0
C380 C 0.71623 0.67825 0.81151 0.0
C381 C 0.71531 0.65366 0.80267 0.0
C382 C 0.71614 0.64842 0.77376 0.0
C383 C 0.71733 0.66748 0.75404 0.0
C384 C 0.97553 0.23068 0.53113 0.0
C385 C 0.0263 0.23362 0.44583 0.0
O386 O 0.9816 0.25236 0.52315 0.0
Zn387 Zn 0.00155 0.2703 0.49023 0.0
O388 O 0.9823 0.21215 0.51672 0.0
Zn389 Zn 1.00023 0.23073 0.48821 0.0
O390 O 0.02935 0.24572 0.51287 0.0
O391 O 0.02774 0.28625 0.51144 0.0
O392 O 0.0179 0.21441 0.4577 0.0
O393 O 0.02118 0.25475 0.45606 0.0
O394 O 0.97585 0.28932 0.47169 0.0
O395 O 0.97061 0.24925 0.46781 0.0
C396 C 0.03796 0.26665 0.52026 0.0
C397 C 0.96314 0.2712 0.46307 0.0
C398 C 0.77654 0.02868 0.53854 0.0
C399 C 0.77588 0.9754 0.45609 0.0
O400 O 0.79496 0.02084 0.52478 0.0
Zn401 Zn 0.77671 0.00215 0.49721 0.0
O402 O 0.75477 0.02289 0.53061 0.0
Zn403 Zn 0.73764 0.00216 0.4976 0.0
O404 O 0.71979 0.97712 0.51819 0.0
O405 O 0.76006 0.97375 0.52224 0.0
O406 O 0.75421 0.98124 0.46435 0.0
O407 O 0.79449 0.98336 0.46941 0.0
O408 O 0.75975 0.03065 0.4726 0.0
O409 O 0.71955 0.02738 0.47757 0.0
C410 C 0.7384 0.96611 0.52835 0.0
C411 C 0.73801 0.03839 0.46707 0.0
C412 C 0.96383 0.73666 0.5441 0.0
C413 C 0.03694 0.73386 0.48409 0.0
O414 O 0.972 0.75789 0.53704 0.0
Zn415 Zn 0.00134 0.77357 0.51312 0.0
O416 O 0.97516 0.71746 0.53603 0.0
Zn417 Zn 1.00097 0.73405 0.51503 0.0
O418 O 0.02169 0.75142 0.54727 0.0
O419 O 0.02063 0.79157 0.5409 0.0
O420 O 0.02631 0.71547 0.49532 0.0
O421 O 0.02918 0.75562 0.48923 0.0
O422 O 0.98327 0.79064 0.4836 0.0
O423 O 0.98083 0.75018 0.48097 0.0
C424 C 0.02804 0.77306 0.55489 0.0
C425 C 0.9754 0.77148 0.47118 0.0
C426 C 0.26276 0.03534 0.53504 0.0
C427 C 0.26634 0.96663 0.46841 0.0
O428 O 0.28208 0.02432 0.52675 0.0
Zn429 Zn 0.26585 1.00078 0.50193 0.0
O430 O 0.24173 0.02814 0.52615 0.0
Zn431 Zn 0.22631 1.00108 0.49904 0.0
O432 O 0.20719 0.9809 0.52509 0.0
O433 O 0.24733 0.97694 0.53039 0.0
O434 O 0.24451 0.97415 0.4738 0.0
O435 O 0.28464 0.97698 0.48015 0.0
O436 O 0.25078 0.02426 0.47018 0.0
O437 O 0.2103 0.02125 0.47057 0.0
C438 C 0.22542 0.97085 0.53731 0.0
C439 C 0.22978 0.03057 0.46026 0.0
C440 C 0.47404 0.72476 0.05248 0.0
C441 C 0.52922 0.72809 0.97104 0.0
O442 O 0.48063 0.74655 0.04559 0.0
Zn443 Zn 0.50266 0.76459 0.01494 0.0
O444 O 0.48212 0.70654 0.03855 0.0
Zn445 Zn 0.50223 0.72516 0.01201 0.0
O446 O 0.53101 0.74011 0.0374 0.0
O447 O 0.52789 0.78053 0.03738 0.0
O448 O 0.52097 0.70867 0.98267 0.0
O449 O 0.52365 0.74916 0.98125 0.0
O450 O 0.47827 0.78389 0.99456 0.0
O451 O 0.47522 0.74391 0.9874 0.0
C452 C 0.53901 0.76115 0.04531 0.0
C453 C 0.46787 0.76586 0.98239 0.0
C454 C 0.23551 0.53262 0.04158 0.0
C455 C 0.23748 0.474 0.96346 0.0
O456 O 0.25704 0.5267 0.03303 0.0
Zn457 Zn 0.27463 0.50363 0.00302 0.0
O458 O 0.21662 0.52254 0.03072 0.0
Zn459 Zn 0.23458 0.50275 0.00334 0.0
O460 O 0.2518 0.47676 0.03017 0.0
O461 O 0.29215 0.47946 0.02643 0.0
O462 O 0.2181 0.48187 0.97543 0.0
O463 O 0.25851 0.4811 0.97228 0.0
O464 O 0.29134 0.52825 0.97962 0.0
O465 O 0.25083 0.53112 0.9784 0.0
C466 C 0.27326 0.46938 0.03728 0.0
C467 C 0.27201 0.53917 0.97104 0.0
C468 C 0.53898 0.23962 0.95813 0.0
C469 C 0.47082 0.23326 0.0248 0.0
O470 O 0.53097 0.26055 0.96652 0.0
Zn471 Zn 0.50273 0.27477 0.99363 0.0
O472 O 0.52849 0.22005 0.96653 0.0
Zn473 Zn 0.50414 0.23558 0.99027 0.0
O474 O 0.48078 0.25317 0.9604 0.0
O475 O 0.48114 0.29306 0.96844 0.0
O476 O 0.48105 0.21563 0.01177 0.0
O477 O 0.47743 0.25542 0.01975 0.0
O478 O 0.52202 0.29183 0.02183 0.0
O479 O 0.52694 0.25152 0.02237 0.0
C480 C 0.47335 0.27487 0.95428 0.0
C481 C 0.53216 0.2728 0.03228 0.0
C482 C 0.76388 0.53683 0.0292 0.0
C483 C 0.76266 0.46646 0.96496 0.0
O484 O 0.78227 0.52613 0.01821 0.0
Zn485 Zn 0.76407 0.50164 0.99673 0.0
O486 O 0.74215 0.52941 0.02327 0.0
Zn487 Zn 0.72486 0.50204 0.99793 0.0
O488 O 0.70726 0.48293 0.02576 0.0
O489 O 0.7476 0.47889 0.02834 0.0
O490 O 0.74113 0.47402 0.97182 0.0
O491 O 0.78153 0.47723 0.97485 0.0
O492 O 0.74671 0.52317 0.96465 0.0
O493 O 0.70656 0.5216 0.97113 0.0
C494 C 0.72606 0.4733 0.03722 0.0
C495 C 0.72492 0.52937 0.9572 0.0
H496 H 0.13954 0.19294 0.32592 0.0
H497 H 0.04023 0.27117 0.41156 0.0
H498 H 0.12682 0.27057 0.31416 0.0
H499 H 0.05053 0.19326 0.42407 0.0
H500 H 0.07038 0.2703 0.37392 0.0
H501 H 0.1058 0.19179 0.35994 0.0
C502 C 0.12952 0.20971 0.33028 0.0
C503 C 0.13612 0.23193 0.31717 0.0
C504 C 0.06602 0.25332 0.38472 0.0
C505 C 0.09759 0.23074 0.35632 0.0
C506 C 0.04874 0.25378 0.40629 0.0
C507 C 0.04292 0.23226 0.42119 0.0
C508 C 0.07784 0.2312 0.37792 0.0
C509 C 0.05446 0.21029 0.41316 0.0
C510 C 0.11033 0.20904 0.34982 0.0
C511 C 0.12268 0.25311 0.324 0.0
N512 N 0.07154 0.21035 0.39219 0.0
N513 N 0.10415 0.25198 0.3431 0.0
H514 H 0.75467 0.15147 0.34063 0.0
H515 H 0.69873 0.07007 0.46445 0.0
H516 H 0.70373 0.18125 0.40139 0.0
H517 H 0.77035 0.05669 0.42867 0.0
H518 H 0.69554 0.10767 0.43597 0.0
H519 H 0.75625 0.11345 0.36773 0.0
C520 C 0.74395 0.15022 0.35974 0.0
C521 C 0.72918 0.16992 0.36872 0.0
C522 C 0.71189 0.09641 0.43437 0.0
C523 C 0.73038 0.12585 0.39938 0.0
C524 C 0.71366 0.07492 0.45045 0.0
C525 C 0.73488 0.06031 0.44899 0.0
C526 C 0.73125 0.103 0.41635 0.0
C527 C 0.75374 0.06751 0.43059 0.0
C528 C 0.74474 0.12835 0.37507 0.0
C529 C 0.71514 0.1666 0.39329 0.0
N530 N 0.75144 0.08827 0.41492 0.0
N531 N 0.71603 0.145 0.4077 0.0
H532 H 0.87205 0.81301 0.33975 0.0
H533 H 0.96324 0.73415 0.43596 0.0
H534 H 0.8899 0.73672 0.32576 0.0
H535 H 0.95253 0.81206 0.44779 0.0
H536 H 0.93677 0.73561 0.39497 0.0
H537 H 0.90187 0.81397 0.37839 0.0
C538 C 0.8824 0.79653 0.3446 0.0
C539 C 0.87833 0.77468 0.32957 0.0
C540 C 0.9402 0.75247 0.40638 0.0
C541 C 0.91224 0.77562 0.37393 0.0
C542 C 0.95533 0.75165 0.42992 0.0
C543 C 0.96004 0.77302 0.44552 0.0
C544 C 0.92941 0.77479 0.39822 0.0
C545 C 0.94937 0.79515 0.43641 0.0
C546 C 0.89932 0.79708 0.36675 0.0
C547 C 0.89207 0.75385 0.33703 0.0
N548 N 0.93439 0.79545 0.41342 0.0
N549 N 0.90828 0.75483 0.35868 0.0
H550 H 0.23976 0.8542 0.34478 0.0
H551 H 0.30537 0.93441 0.46427 0.0
H552 H 0.30014 0.82618 0.39412 0.0
H553 H 0.23393 0.95037 0.42927 0.0
H554 H 0.30735 0.89723 0.43491 0.0
H555 H 0.24082 0.89211 0.37195 0.0
C556 C 0.25334 0.85609 0.36129 0.0
C557 C 0.26991 0.83701 0.36717 0.0
C558 C 0.29133 0.90899 0.43365 0.0
C559 C 0.27121 0.88048 0.39854 0.0
C560 C 0.29027 0.93026 0.45021 0.0
C561 C 0.26941 0.94543 0.44929 0.0
C562 C 0.27153 0.90316 0.41585 0.0
C563 C 0.2503 0.93912 0.43085 0.0
C564 C 0.25388 0.87771 0.3769 0.0
C565 C 0.2869 0.84037 0.38908 0.0
N566 N 0.25183 0.91854 0.41492 0.0
N567 N 0.28719 0.86175 0.40395 0.0
H568 H 0.15698 0.80308 0.65477 0.0
H569 H 0.03422 0.74101 0.59811 0.0
H570 H 0.11909 0.74473 0.69835 0.0
H571 H 0.06057 0.81052 0.56647 0.0
H572 H 0.06532 0.74231 0.63493 0.0
H573 H 0.12246 0.80612 0.62182 0.0
C574 C 0.1414 0.79089 0.65738 0.0
C575 C 0.14097 0.77349 0.67923 0.0
C576 C 0.06421 0.75744 0.62016 0.0
C577 C 0.10141 0.77697 0.64172 0.0
C578 C 0.04645 0.7567 0.59909 0.0
C579 C 0.04489 0.77564 0.57911 0.0
C580 C 0.08089 0.77707 0.62111 0.0
C581 C 0.06111 0.79557 0.5815 0.0
C582 C 0.12164 0.79278 0.63872 0.0
C583 C 0.12016 0.75846 0.68191 0.0
N584 N 0.07869 0.79563 0.60192 0.0
N585 N 0.10133 0.76041 0.66325 0.0
H586 H 0.3045 0.15592 0.64612 0.0
H587 H 0.22434 0.06229 0.55461 0.0
H588 H 0.22664 0.16311 0.63068 0.0
H589 H 0.30349 0.05773 0.55882 0.0
H590 H 0.22547 0.0983 0.58444 0.0
H591 H 0.3052 0.11961 0.61561 0.0
C592 C 0.2876 0.15 0.63621 0.0
C593 C 0.26543 0.16255 0.64119 0.0
C594 C 0.24266 0.08952 0.57892 0.0
C595 C 0.26609 0.12087 0.60656 0.0
C596 C 0.24204 0.06881 0.56185 0.0
C597 C 0.26388 0.05688 0.55408 0.0
C598 C 0.26528 0.09858 0.58854 0.0
C599 C 0.28621 0.06634 0.56427 0.0
C600 C 0.28801 0.12919 0.61892 0.0
C601 C 0.24407 0.15383 0.62798 0.0
N602 N 0.28635 0.08667 0.58101 0.0
N603 N 0.24496 0.13358 0.61142 0.0
H604 H 0.86936 0.18743 0.65881 0.0
H605 H 0.96755 0.26536 0.57097 0.0
H606 H 0.88962 0.2625 0.67643 0.0
H607 H 0.94932 0.19035 0.55021 0.0
H608 H 0.94084 0.26295 0.61161 0.0
H609 H 0.90012 0.18649 0.62109 0.0
C610 C 0.88044 0.20362 0.65493 0.0
C611 C 0.8768 0.22516 0.67067 0.0
C612 C 0.94265 0.24692 0.59833 0.0
C613 C 0.91182 0.22423 0.62752 0.0
C614 C 0.95794 0.24828 0.57499 0.0
C615 C 0.96054 0.22807 0.55693 0.0
C616 C 0.92956 0.22523 0.60381 0.0
C617 C 0.94781 0.20637 0.56354 0.0
C618 C 0.89789 0.2031 0.63333 0.0
C619 C 0.89148 0.24565 0.66456 0.0
N620 N 0.93267 0.20557 0.58638 0.0
N621 N 0.90824 0.24468 0.64348 0.0
H622 H 0.76046 0.85458 0.65552 0.0
H623 H 0.69767 0.93688 0.53609 0.0
H624 H 0.69757 0.82982 0.60819 0.0
H625 H 0.77278 0.9462 0.5633 0.0
H626 H 0.69445 0.90047 0.56648 0.0
H627 H 0.76243 0.89134 0.6259 0.0
C628 C 0.74702 0.85696 0.63893 0.0
C629 C 0.72885 0.83915 0.63425 0.0
C630 C 0.7116 0.91054 0.56573 0.0
C631 C 0.73092 0.88117 0.60036 0.0
C632 C 0.71342 0.93135 0.54853 0.0
C633 C 0.73555 0.94455 0.54709 0.0
C634 C 0.73193 0.90315 0.58191 0.0
C635 C 0.7554 0.93652 0.5636 0.0
C636 C 0.74821 0.87785 0.62196 0.0
C637 C 0.712 0.84302 0.61231 0.0
N638 N 0.75309 0.91643 0.58037 0.0
N639 N 0.71335 0.8637 0.59624 0.0
H640 H 0.82807 0.77349 0.62751 0.0
H641 H 0.94006 0.69539 0.5643 0.0
H642 H 0.83567 0.69534 0.64063 0.0
H643 H 0.93502 0.77455 0.56172 0.0
H644 H 0.90127 0.69421 0.59069 0.0
H645 H 0.86662 0.7735 0.60153 0.0
C646 C 0.83789 0.75632 0.62506 0.0
C647 C 0.8286 0.73441 0.63646 0.0
C648 C 0.90875 0.7118 0.58435 0.0
C649 C 0.87284 0.73421 0.60629 0.0
C650 C 0.93088 0.71249 0.56932 0.0
C651 C 0.94085 0.73509 0.56076 0.0
C652 C 0.8965 0.73387 0.59071 0.0
C653 C 0.92812 0.75667 0.56784 0.0
C654 C 0.8599 0.75631 0.61008 0.0
C655 C 0.84197 0.71264 0.632 0.0
N656 N 0.90667 0.7555 0.58228 0.0
N657 N 0.86343 0.71309 0.61731 0.0
H658 H 0.24667 0.84127 0.63773 0.0
H659 H 0.18814 0.96483 0.57618 0.0
H660 H 0.20285 0.88926 0.68976 0.0
H661 H 0.25566 0.93238 0.54658 0.0
H662 H 0.18616 0.93307 0.61331 0.0
H663 H 0.24271 0.87041 0.59913 0.0
C664 C 0.2363 0.85799 0.64115 0.0
C665 C 0.22557 0.86301 0.66736 0.0
C666 C 0.20127 0.93295 0.5985 0.0
C667 C 0.22044 0.89626 0.62274 0.0
C668 C 0.20233 0.95091 0.57732 0.0
C669 C 0.22219 0.95128 0.55851 0.0
C670 C 0.21988 0.91508 0.60023 0.0
C671 C 0.24018 0.93292 0.56086 0.0
C672 C 0.23391 0.87453 0.61898 0.0
C673 C 0.2115 0.8846 0.67 0.0
N674 N 0.23855 0.91558 0.58125 0.0
N675 N 0.20945 0.90054 0.64799 0.0
H676 H 0.14146 0.2285 0.65015 0.0
H677 H 0.0682 0.30568 0.53404 0.0
H678 H 0.17033 0.29577 0.61526 0.0
H679 H 0.05588 0.22872 0.55124 0.0
H680 H 0.10318 0.30489 0.56691 0.0
H681 H 0.10706 0.23077 0.61725 0.0
C682 C 0.1405 0.24378 0.63556 0.0
C683 C 0.15875 0.26194 0.63537 0.0
C684 C 0.09277 0.28823 0.56333 0.0
C685 C 0.1194 0.26474 0.59766 0.0
C686 C 0.0728 0.28869 0.54469 0.0
C687 C 0.05914 0.26724 0.53981 0.0
C688 C 0.09875 0.26626 0.57739 0.0
C689 C 0.06593 0.2457 0.55416 0.0
C690 C 0.12094 0.24503 0.6167 0.0
C691 C 0.15672 0.28126 0.61586 0.0
N692 N 0.08512 0.24581 0.57232 0.0
N693 N 0.1373 0.28225 0.59784 0.0
H694 H 0.75366 0.11108 0.69157 0.0
H695 H 0.8168 0.05637 0.55318 0.0
H696 H 0.81343 0.14736 0.6488 0.0
H697 H 0.74338 0.03775 0.58011 0.0
H698 H 0.82001 0.08506 0.59281 0.0
H699 H 0.75397 0.07906 0.65547 0.0
C700 C 0.76701 0.11215 0.67472 0.0
C701 C 0.78344 0.13194 0.67303 0.0
C702 C 0.80327 0.07456 0.59004 0.0
C703 C 0.7839 0.09545 0.63173 0.0
C704 C 0.80147 0.05814 0.56755 0.0
C705 C 0.77973 0.0448 0.56325 0.0
C706 C 0.78333 0.07732 0.60854 0.0
C707 C 0.7604 0.04784 0.58248 0.0
C708 C 0.76708 0.09398 0.65406 0.0
C709 C 0.80025 0.13254 0.65064 0.0
N710 N 0.76266 0.06375 0.60427 0.0
N711 N 0.80006 0.11456 0.63084 0.0
H712 H 0.81619 0.24932 0.39938 0.0
H713 H 0.94472 0.31298 0.43759 0.0
H714 H 0.84239 0.31424 0.35672 0.0
H715 H 0.92688 0.23741 0.45632 0.0
H716 H 0.90481 0.31719 0.41365 0.0
H717 H 0.85411 0.24844 0.42702 0.0
C718 C 0.8298 0.26356 0.39609 0.0
C719 C 0.82622 0.28179 0.37563 0.0
C720 C 0.90972 0.29974 0.42308 0.0
C721 C 0.86971 0.28083 0.40704 0.0
C722 C 0.93242 0.29735 0.43675 0.0
C723 C 0.93922 0.27477 0.44877 0.0
C724 C 0.89364 0.27953 0.42191 0.0
C725 C 0.92256 0.2551 0.44711 0.0
C726 C 0.85152 0.26296 0.41171 0.0
C727 C 0.84459 0.29968 0.37206 0.0
N728 N 0.90059 0.25796 0.43403 0.0
N729 N 0.86558 0.29875 0.38758 0.0
H730 H 0.816 0.85374 0.34938 0.0
H731 H 0.74219 0.96563 0.41519 0.0
H732 H 0.75592 0.88944 0.30646 0.0
H733 H 0.81591 0.94742 0.4415 0.0
H734 H 0.74588 0.93632 0.37664 0.0
H735 H 0.81536 0.88631 0.38492 0.0
C736 C 0.80272 0.86848 0.34744 0.0
C737 C 0.78592 0.86889 0.32504 0.0
C738 C 0.76133 0.93886 0.3907 0.0
C739 C 0.78501 0.90604 0.36558 0.0
C740 C 0.75922 0.95552 0.41278 0.0
C741 C 0.77876 0.9589 0.43165 0.0
C742 C 0.78299 0.92511 0.38768 0.0
C743 C 0.80043 0.94541 0.4274 0.0
C744 C 0.80246 0.8871 0.3676 0.0
C745 C 0.76927 0.88852 0.32332 0.0
N746 N 0.80188 0.92889 0.40602 0.0
N747 N 0.76906 0.90618 0.34348 0.0
H748 H 0.14185 0.75444 0.35061 0.0
H749 H 0.07138 0.69667 0.48221 0.0
H750 H 0.17888 0.70798 0.41102 0.0
H751 H 0.05037 0.7647 0.44212 0.0
H752 H 0.10783 0.69492 0.4515 0.0
H753 H 0.10506 0.75308 0.37965 0.0
C754 C 0.14242 0.74413 0.37008 0.0
C755 C 0.16378 0.73157 0.37843 0.0
C756 C 0.09511 0.71013 0.44946 0.0
C757 C 0.12118 0.72933 0.41142 0.0
C758 C 0.0743 0.71105 0.4668 0.0
C759 C 0.05797 0.73093 0.46478 0.0
C760 C 0.09917 0.72896 0.42972 0.0
C761 C 0.06262 0.74916 0.44456 0.0
C762 C 0.12127 0.7432 0.38653 0.0
C763 C 0.16288 0.71781 0.40352 0.0
N764 N 0.08271 0.74769 0.42781 0.0
N765 N 0.14193 0.71705 0.41912 0.0
H766 H 0.1962 0.11966 0.31256 0.0
H767 H 0.26662 0.06089 0.44346 0.0
H768 H 0.26028 0.15172 0.3513 0.0
H769 H 0.19109 0.04261 0.42511 0.0
H770 H 0.26586 0.09132 0.40606 0.0
H771 H 0.19521 0.08843 0.35003 0.0
C772 C 0.21007 0.12006 0.32889 0.0
C773 C 0.22832 0.13831 0.32891 0.0
C774 C 0.2494 0.08073 0.41018 0.0
C775 C 0.22735 0.10278 0.37153 0.0
C776 C 0.24982 0.06322 0.43151 0.0
C777 C 0.22886 0.04912 0.43747 0.0
C778 C 0.22794 0.08413 0.39431 0.0
C779 C 0.20763 0.05314 0.42128 0.0
C780 C 0.20939 0.10238 0.35031 0.0
C781 C 0.24574 0.13815 0.35064 0.0
N782 N 0.20773 0.07023 0.40027 0.0
N783 N 0.24489 0.12062 0.37094 0.0
H784 H 0.63097 0.68865 0.83733 0.0
H785 H 0.5431 0.76645 0.93805 0.0
H786 H 0.61412 0.76554 0.82596 0.0
H787 H 0.55107 0.68779 0.94594 0.0
H788 H 0.56942 0.76577 0.89698 0.0
H789 H 0.6019 0.68719 0.87666 0.0
C790 C 0.621 0.70516 0.8429 0.0
C791 C 0.62511 0.72731 0.82838 0.0
C792 C 0.56544 0.74859 0.90754 0.0
C793 C 0.5921 0.7258 0.87355 0.0
C794 C 0.5504 0.74895 0.93116 0.0
C795 C 0.54491 0.72713 0.94563 0.0
C796 C 0.57534 0.72626 0.89818 0.0
C797 C 0.55484 0.70505 0.93544 0.0
C798 C 0.60451 0.70432 0.86544 0.0
C799 C 0.6119 0.74817 0.83679 0.0
N800 N 0.56971 0.70518 0.91237 0.0
N801 N 0.59611 0.74691 0.85882 0.0
H802 H 0.29062 0.64768 0.83857 0.0
H803 H 0.23872 0.576 0.97087 0.0
H804 H 0.24284 0.68075 0.90034 0.0
H805 H 0.30737 0.55447 0.93283 0.0
H806 H 0.23834 0.61291 0.94202 0.0
H807 H 0.296 0.61224 0.86987 0.0
C808 C 0.28143 0.6477 0.85874 0.0
C809 C 0.26597 0.6673 0.86655 0.0
C810 C 0.2536 0.60025 0.94001 0.0
C811 C 0.27178 0.62647 0.90218 0.0
C812 C 0.25378 0.57906 0.95638 0.0
C813 C 0.27306 0.56205 0.95415 0.0
C814 C 0.27262 0.60447 0.92072 0.0
C815 C 0.29219 0.56716 0.93521 0.0
C816 C 0.28449 0.62738 0.87654 0.0
C817 C 0.25438 0.66594 0.8929 0.0
N818 N 0.29136 0.58784 0.91891 0.0
N819 N 0.25734 0.64586 0.90955 0.0
H820 H 0.34141 0.30766 0.85973 0.0
H821 H 0.46531 0.24405 0.91037 0.0
H822 H 0.38151 0.25528 0.80955 0.0
H823 H 0.44015 0.31244 0.94597 0.0
H824 H 0.43344 0.24703 0.87452 0.0
H825 H 0.3759 0.30885 0.89302 0.0
C826 C 0.35749 0.29646 0.8557 0.0
C827 C 0.35859 0.28131 0.83186 0.0
C828 C 0.43496 0.26152 0.88999 0.0
C829 C 0.39796 0.28253 0.8698 0.0
C830 C 0.45313 0.25981 0.91054 0.0
C831 C 0.45534 0.278 0.93124 0.0
C832 C 0.4185 0.28138 0.89032 0.0
C833 C 0.43912 0.29806 0.93032 0.0
C834 C 0.3772 0.29728 0.87458 0.0
C835 C 0.37995 0.26737 0.82751 0.0
N836 N 0.42116 0.29908 0.91037 0.0
N837 N 0.39866 0.26815 0.8464 0.0
H838 H 0.80373 0.32815 0.88739 0.0
H839 H 0.72787 0.44779 0.92974 0.0
H840 H 0.74168 0.35481 0.83984 0.0
H841 H 0.80266 0.43626 0.957 0.0
H842 H 0.73102 0.41155 0.89984 0.0
H843 H 0.80199 0.36532 0.91653 0.0
C844 C 0.78969 0.34179 0.88318 0.0
C845 C 0.77282 0.33843 0.86118 0.0
C846 C 0.74679 0.41698 0.91225 0.0
C847 C 0.7707 0.38084 0.89437 0.0
C848 C 0.745 0.43765 0.92941 0.0
C849 C 0.76504 0.44508 0.94593 0.0
C850 C 0.76867 0.40332 0.91185 0.0
C851 C 0.7868 0.43124 0.94452 0.0
C852 C 0.78883 0.36304 0.89965 0.0
C853 C 0.75515 0.35677 0.85644 0.0
N854 N 0.78798 0.41089 0.92794 0.0
N855 N 0.75446 0.37708 0.87299 0.0
H856 H 0.64981 0.24334 0.14925 0.0
H857 H 0.54088 0.31192 0.06771 0.0
H858 H 0.61316 0.30695 0.1833 0.0
H859 H 0.56408 0.23764 0.05023 0.0
H860 H 0.57003 0.31316 0.10721 0.0
H861 H 0.62125 0.24367 0.10963 0.0
C862 C 0.63576 0.25743 0.14832 0.0
C863 C 0.63381 0.27512 0.16959 0.0
C864 C 0.56866 0.29663 0.09466 0.0
C865 C 0.60103 0.27566 0.12426 0.0
C866 C 0.55214 0.29595 0.07208 0.0
C867 C 0.54998 0.27463 0.0557 0.0
C868 C 0.5833 0.27596 0.10056 0.0
C869 C 0.56498 0.25443 0.06235 0.0
C870 C 0.61939 0.25755 0.12577 0.0
C871 C 0.61511 0.29283 0.16746 0.0
N872 N 0.581 0.25563 0.08416 0.0
N873 N 0.59948 0.29274 0.1451 0.0
H874 H 0.80661 0.67404 0.10856 0.0
H875 H 0.73042 0.55455 0.06652 0.0
H876 H 0.7459 0.64616 0.15736 0.0
H877 H 0.80405 0.56716 0.03607 0.0
H878 H 0.73437 0.59019 0.09713 0.0
H879 H 0.80452 0.63727 0.07878 0.0
C880 C 0.7928 0.66022 0.11293 0.0
C881 C 0.77639 0.66314 0.13546 0.0
C882 C 0.74973 0.58514 0.08387 0.0
C883 C 0.77389 0.62117 0.10154 0.0
C884 C 0.74747 0.56481 0.06629 0.0
C885 C 0.76694 0.55786 0.04865 0.0
C886 C 0.77149 0.59898 0.08361 0.0
C887 C 0.78863 0.57183 0.0494 0.0
C888 C 0.79174 0.63919 0.09608 0.0
C889 C 0.75903 0.64456 0.14037 0.0
N890 N 0.79027 0.59188 0.06644 0.0
N891 N 0.75813 0.62448 0.12346 0.0
H892 H 0.37548 0.75636 0.18902 0.0
H893 H 0.44592 0.68418 0.06624 0.0
H894 H 0.35243 0.68495 0.15978 0.0
H895 H 0.46168 0.75855 0.09197 0.0
H896 H 0.41414 0.68186 0.10295 0.0
H897 H 0.40949 0.75538 0.1559 0.0
C898 C 0.37748 0.7405 0.17549 0.0
C899 C 0.36083 0.72086 0.17698 0.0
C900 C 0.42471 0.69859 0.10059 0.0
C901 C 0.40018 0.71944 0.139 0.0
C902 C 0.4429 0.69988 0.07976 0.0
C903 C 0.45637 0.72164 0.07589 0.0
C904 C 0.42016 0.71915 0.1177 0.0
C905 C 0.45163 0.74146 0.09395 0.0
C906 C 0.39705 0.73987 0.15666 0.0
C907 C 0.36484 0.70049 0.1594 0.0
N908 N 0.43394 0.73975 0.11391 0.0
N909 N 0.38404 0.70036 0.14101 0.0
H910 H 0.29434 0.32617 0.11415 0.0
H911 H 0.24148 0.45938 0.0794 0.0
H912 H 0.23961 0.36323 0.16414 0.0
H913 H 0.30854 0.43292 0.04181 0.0
H914 H 0.24079 0.42363 0.11011 0.0
H915 H 0.29986 0.36399 0.08651 0.0
C916 C 0.28351 0.34223 0.11932 0.0
C917 C 0.26646 0.34148 0.14152 0.0
C918 C 0.25584 0.42562 0.09538 0.0
C919 C 0.27273 0.38474 0.11007 0.0
C920 C 0.25623 0.44607 0.07779 0.0
C921 C 0.27506 0.44909 0.05796 0.0
C922 C 0.27419 0.40763 0.09296 0.0
C923 C 0.29375 0.43132 0.05693 0.0
C924 C 0.28681 0.36384 0.10369 0.0
C925 C 0.25313 0.36294 0.14747 0.0
N926 N 0.29269 0.41111 0.07396 0.0
N927 N 0.25644 0.38354 0.13177 0.0
H928 H 0.3304 0.20611 0.10154 0.0
H929 H 0.46203 0.26015 0.07152 0.0
H930 H 0.37372 0.24122 0.16619 0.0
H931 H 0.43556 0.197 0.026 0.0
H932 H 0.42804 0.25575 0.10459 0.0
H933 H 0.36694 0.20434 0.07173 0.0
C934 C 0.34756 0.21321 0.10969 0.0
C935 C 0.34876 0.22403 0.13651 0.0
C936 C 0.42976 0.24269 0.08755 0.0
C937 C 0.39051 0.22252 0.10204 0.0
C938 C 0.44909 0.24524 0.06862 0.0
C939 C 0.45151 0.22894 0.046 0.0
C940 C 0.41233 0.22405 0.08351 0.0
C941 C 0.43433 0.20987 0.04327 0.0
C942 C 0.36839 0.21223 0.09255 0.0
C943 C 0.37157 0.23328 0.1455 0.0
N944 N 0.41517 0.20815 0.06162 0.0
N945 N 0.39142 0.23255 0.12821 0.0
H946 H 0.69197 0.39653 0.19216 0.0
H947 H 0.75928 0.43862 0.05266 0.0
H948 H 0.74277 0.3501 0.14694 0.0
H949 H 0.68747 0.46669 0.0739 0.0
H950 H 0.75601 0.40902 0.09096 0.0
H951 H 0.69193 0.42512 0.15231 0.0
C952 C 0.70297 0.39219 0.17388 0.0
C953 C 0.71762 0.37089 0.17316 0.0
C954 C 0.74091 0.42157 0.0872 0.0
C955 C 0.71797 0.40382 0.12787 0.0
C956 C 0.7428 0.43857 0.06545 0.0
C957 C 0.72361 0.45516 0.06015 0.0
C958 C 0.71986 0.42137 0.10419 0.0
C959 C 0.70262 0.45414 0.07727 0.0
C960 C 0.70297 0.40859 0.15121 0.0
C961 C 0.73171 0.36653 0.14893 0.0
N962 N 0.70137 0.43763 0.09878 0.0
N963 N 0.73169 0.38293 0.12743 0.0
H964 H 0.66651 0.80567 0.14338 0.0
H965 H 0.56704 0.72284 0.06374 0.0
H966 H 0.67391 0.72757 0.12998 0.0
H967 H 0.56282 0.80205 0.06622 0.0
H968 H 0.60509 0.72451 0.09042 0.0
H969 H 0.62789 0.80501 0.11699 0.0
C970 C 0.66015 0.78841 0.13474 0.0
C971 C 0.67357 0.76662 0.13898 0.0
C972 C 0.5959 0.74157 0.08519 0.0
C973 C 0.62911 0.76573 0.10911 0.0
C974 C 0.57405 0.74065 0.06997 0.0
C975 C 0.56165 0.76237 0.06262 0.0
C976 C 0.60557 0.76437 0.09332 0.0
C977 C 0.57175 0.78484 0.07138 0.0
C978 C 0.638 0.78804 0.11982 0.0
C979 C 0.6641 0.74476 0.12767 0.0
N980 N 0.59315 0.78527 0.08627 0.0
N981 N 0.64251 0.74489 0.11333 0.0
H982 H 0.26892 0.65875 0.14217 0.0
H983 H 0.19866 0.54125 0.08056 0.0
H984 H 0.21304 0.62082 0.18979 0.0
H985 H 0.26818 0.56898 0.05052 0.0
H986 H 0.1987 0.57352 0.11703 0.0
H987 H 0.26358 0.6294 0.10419 0.0
C988 C 0.25532 0.64436 0.14452 0.0
C989 C 0.24143 0.64224 0.16921 0.0
C990 C 0.21384 0.57245 0.10231 0.0
C991 C 0.23543 0.60819 0.1258 0.0
C992 C 0.21376 0.55418 0.08151 0.0
C993 C 0.23356 0.55232 0.06275 0.0
C994 C 0.23363 0.58905 0.10379 0.0
C995 C 0.2527 0.56949 0.0648 0.0
C996 C 0.25239 0.62747 0.12289 0.0
C997 C 0.22433 0.62293 0.17121 0.0
N998 N 0.25223 0.58706 0.08487 0.0
N999 N 0.2218 0.60658 0.14976 0.0
H1000 H 0.33212 0.8051 0.8973 0.0
H1001 H 0.45431 0.73475 0.94082 0.0
H1002 H 0.36799 0.75156 0.84463 0.0
H1003 H 0.43582 0.805 0.97707 0.0
H1004 H 0.42045 0.73921 0.90784 0.0
H1005 H 0.36766 0.80407 0.92924 0.0
C1006 C 0.34748 0.79318 0.89247 0.0
C1007 C 0.34715 0.77839 0.8683 0.0
C1008 C 0.42381 0.75375 0.92287 0.0
C1009 C 0.38759 0.77705 0.90463 0.0
C1010 C 0.44309 0.75117 0.94184 0.0
C1011 C 0.44783 0.76951 0.96181 0.0
C1012 C 0.40879 0.77466 0.92403 0.0
C1013 C 0.4328 0.79048 0.96194 0.0
C1014 C 0.36776 0.79273 0.91056 0.0
C1015 C 0.36758 0.76342 0.86287 0.0
N1016 N 0.41372 0.7924 0.94347 0.0
N1017 N 0.38684 0.76299 0.88099 0.0
H1018 H 0.20275 0.36407 0.8358 0.0
H1019 H 0.27589 0.45977 0.93119 0.0
H1020 H 0.28169 0.36655 0.84481 0.0
H1021 H 0.19798 0.44774 0.94189 0.0
H1022 H 0.27669 0.42872 0.89499 0.0
H1023 H 0.19922 0.3968 0.87101 0.0
C1024 C 0.21932 0.37139 0.84519 0.0
C1025 C 0.2426 0.3626 0.83712 0.0
C1026 C 0.25935 0.43276 0.90516 0.0
C1027 C 0.23862 0.40021 0.87699 0.0
C1028 C 0.25882 0.45062 0.92591 0.0
C1029 C 0.23683 0.45626 0.93991 0.0
C1030 C 0.23773 0.42024 0.89805 0.0
C1031 C 0.21534 0.44389 0.93171 0.0
C1032 C 0.21726 0.39013 0.86518 0.0
C1033 C 0.2634 0.37301 0.84981 0.0
N1034 N 0.21633 0.42631 0.91131 0.0
N1035 N 0.26089 0.39123 0.86898 0.0
H1036 H 0.66397 0.19559 0.85609 0.0
H1037 H 0.56598 0.27824 0.93841 0.0
H1038 H 0.6712 0.27386 0.86833 0.0
H1039 H 0.56237 0.199 0.93619 0.0
H1040 H 0.60324 0.27682 0.91021 0.0
H1041 H 0.62591 0.19631 0.88341 0.0
C1042 C 0.65768 0.21291 0.86466 0.0
C1043 C 0.67091 0.23471 0.85986 0.0
C1044 C 0.59433 0.25971 0.91582 0.0
C1045 C 0.62707 0.23567 0.89082 0.0
C1046 C 0.57295 0.26049 0.93191 0.0
C1047 C 0.56098 0.23868 0.93979 0.0
C1048 C 0.60395 0.23696 0.90739 0.0
C1049 C 0.57098 0.21627 0.93065 0.0
C1050 C 0.63585 0.21331 0.88011 0.0
C1051 C 0.66153 0.25665 0.87108 0.0
N1052 N 0.59191 0.21599 0.91495 0.0
N1053 N 0.64023 0.25655 0.88599 0.0
H1054 H 0.68503 0.65006 0.84841 0.0
H1055 H 0.75749 0.53754 0.91487 0.0
H1056 H 0.74309 0.61189 0.80487 0.0
H1057 H 0.68517 0.55825 0.94357 0.0
H1058 H 0.75335 0.56609 0.8756 0.0
H1059 H 0.68542 0.61804 0.88473 0.0
C1060 C 0.69779 0.63487 0.84648 0.0
C1061 C 0.71414 0.63362 0.82372 0.0
C1062 C 0.73829 0.56428 0.89034 0.0
C1063 C 0.71476 0.59712 0.86511 0.0
C1064 C 0.74068 0.54806 0.91285 0.0
C1065 C 0.72168 0.54562 0.93259 0.0
C1066 C 0.71691 0.57851 0.88773 0.0
C1067 C 0.70024 0.55958 0.92879 0.0
C1068 C 0.6979 0.61657 0.86709 0.0
C1069 C 0.73011 0.61346 0.82201 0.0
N1070 N 0.69852 0.57567 0.90694 0.0
N1071 N 0.7302 0.59613 0.8426 0.0
loop_
_geom_bond_atom_site_label_1
_geom_bond_atom_site_label_2
_geom_bond_distance
_geom_bond_site_symmetry_2
_ccdc_geom_bond_type
H0 C19 0.949 . S
H1 C20 0.950 . S
H2 C22 0.950 . S
H3 C23 0.950 . S
H4 C25 0.950 . S
H5 C28 0.950 . S
H6 C29 0.950 . S
H7 C31 0.951 . S
H8 C32 0.949 . S
H9 C34 0.949 . S
H10 C35 0.950 . S
H11 C37 0.950 . S
H12 C38 0.950 . S
H13 C40 0.950 . S
H14 C43 0.950 . S
H15 C44 0.950 . S
H16 C46 0.951 . S
H17 C47 0.949 . S
C18 C19 1.376 . S
C18 C23 1.386 . S
C18 C24 1.483 . S
C19 H0 0.949 . S
C19 C18 1.376 . S
C19 C20 1.397 . S
C20 H1 0.950 . S
C20 C19 1.397 . S
C20 C21 1.391 . S
C21 C20 1.391 . S
C21 C22 1.405 . S
C22 H2 0.950 . S
C22 C21 1.405 . S
C22 C23 1.367 . S
C23 H3 0.950 . S
C23 C18 1.386 . S
C23 C22 1.367 . S
C24 C18 1.483 . S
C24 C25 1.382 . S
C24 C26 1.403 . S
C25 H4 0.950 . S
C25 C24 1.382 . S
C25 C41 1.411 . S
C26 C24 1.403 . S
C26 C27 1.489 . S
C26 C40 1.411 . S
C27 C26 1.489 . S
C27 C28 1.383 . S
C27 C32 1.382 . S
C28 H5 0.950 . S
C28 C27 1.383 . S
C28 C29 1.395 . S
C29 H6 0.950 . S
C29 C28 1.395 . S
C29 C30 1.288 . S
C30 C29 1.288 . S
C30 C31 1.392 . S
C31 H7 0.951 . S
C31 C30 1.392 . S
C31 C32 1.392 . S
C32 H8 0.949 . S
C32 C27 1.382 . S
C32 C31 1.392 . S
C33 C34 1.376 . S
C33 C38 1.386 . S
C33 C39 1.483 . S
C34 H9 0.949 . S
C34 C33 1.376 . S
C34 C35 1.397 . S
C35 H10 0.950 . S
C35 C34 1.397 . S
C35 C36 1.391 . S
C36 C35 1.391 . S
C36 C37 1.405 . S
C37 H11 0.950 . S
C37 C36 1.405 . S
C37 C38 1.367 . S
C38 H12 0.950 . S
C38 C33 1.386 . S
C38 C37 1.367 . S
C39 C33 1.483 . S
C39 C40 1.382 . S
C39 C41 1.403 . S
C40 H13 0.950 . S
C40 C26 1.411 . S
C40 C39 1.382 . S
C41 C25 1.411 . S
C41 C39 1.403 . S
C41 C42 1.489 . S
C42 C41 1.489 . S
C42 C43 1.383 . S
C42 C47 1.382 . S
C43 H14 0.950 . S
C43 C42 1.383 . S
C43 C44 1.395 . S
C44 H15 0.950 . S
C44 C43 1.395 . S
C44 C45 1.288 . S
C45 C44 1.288 . S
C45 C46 1.392 . S
C46 H16 0.951 . S
C46 C45 1.392 . S
C46 C47 1.392 . S
C47 H17 0.949 . S
C47 C42 1.382 . S
C47 C46 1.392 . S
H48 C67 0.949 . S
H49 C68 0.950 . S
H50 C70 0.950 . S
H51 C71 0.950 . S
H52 C73 0.950 . S
H53 C76 0.950 . S
H54 C77 0.950 . S
H55 C79 0.951 . S
H56 C80 0.949 . S
H57 C82 0.949 . S
H58 C83 0.950 . S
H59 C85 0.950 . S
H60 C86 0.950 . S
H61 C88 0.950 . S
H62 C91 0.950 . S
H63 C92 0.950 . S
H64 C94 0.951 . S
H65 C95 0.949 . S
C66 C67 1.376 . S
C66 C71 1.386 . S
C66 C72 1.483 . S
C67 H48 0.949 . S
C67 C66 1.376 . S
C67 C68 1.397 . S
C68 H49 0.950 . S
C68 C67 1.397 . S
C68 C69 1.391 . S
C69 C68 1.391 . S
C69 C70 1.405 . S
C70 H50 0.950 . S
C70 C69 1.405 . S
C70 C71 1.367 . S
C71 H51 0.950 . S
C71 C66 1.386 . S
C71 C70 1.367 . S
C72 C66 1.483 . S
C72 C73 1.382 . S
C72 C74 1.403 . S
C73 H52 0.950 . S
C73 C72 1.382 . S
C73 C89 1.411 . S
C74 C72 1.403 . S
C74 C75 1.489 . S
C74 C88 1.411 . S
C75 C74 1.489 . S
C75 C76 1.383 . S
C75 C80 1.382 . S
C76 H53 0.950 . S
C76 C75 1.383 . S
C76 C77 1.395 . S
C77 H54 0.950 . S
C77 C76 1.395 . S
C77 C78 1.288 . S
C78 C77 1.288 . S
C78 C79 1.392 . S
C79 H55 0.951 . S
C79 C78 1.392 . S
C79 C80 1.392 . S
C80 H56 0.949 . S
C80 C75 1.382 . S
C80 C79 1.392 . S
C81 C82 1.376 . S
C81 C86 1.386 . S
C81 C87 1.483 . S
C82 H57 0.949 . S
C82 C81 1.376 . S
C82 C83 1.397 . S
C83 H58 0.950 . S
C83 C82 1.397 . S
C83 C84 1.391 . S
C84 C83 1.391 . S
C84 C85 1.405 . S
C85 H59 0.950 . S
C85 C84 1.405 . S
C85 C86 1.367 . S
C86 H60 0.950 . S
C86 C81 1.386 . S
C86 C85 1.367 . S
C87 C81 1.483 . S
C87 C88 1.382 . S
C87 C89 1.403 . S
C88 H61 0.950 . S
C88 C74 1.411 . S
C88 C87 1.382 . S
C89 C73 1.411 . S
C89 C87 1.403 . S
C89 C90 1.489 . S
C90 C89 1.489 . S
C90 C91 1.383 . S
C90 C95 1.382 . S
C91 H62 0.950 . S
C91 C90 1.383 . S
C91 C92 1.395 . S
C92 H63 0.950 . S
C92 C91 1.395 . S
C92 C93 1.288 . S
C93 C92 1.288 . S
C93 C94 1.392 . S
C94 H64 0.951 . S
C94 C93 1.392 . S
C94 C95 1.392 . S
C95 H65 0.949 . S
C95 C90 1.382 . S
C95 C94 1.392 . S
H96 C115 0.949 . S
H97 C116 0.950 . S
H98 C118 0.950 . S
H99 C119 0.950 . S
H100 C121 0.950 . S
H101 C124 0.950 . S
H102 C125 0.950 . S
H103 C127 0.951 . S
H104 C128 0.949 . S
H105 C130 0.949 . S
H106 C131 0.950 . S
H107 C133 0.950 . S
H108 C134 0.950 . S
H109 C136 0.950 . S
H110 C139 0.950 . S
H111 C140 0.950 . S
H112 C142 0.951 . S
H113 C143 0.949 . S
C114 C115 1.376 . S
C114 C119 1.386 . S
C114 C120 1.483 . S
C115 H96 0.949 . S
C115 C114 1.376 . S
C115 C116 1.397 . S
C116 H97 0.950 . S
C116 C115 1.397 . S
C116 C117 1.391 . S
C117 C116 1.391 . S
C117 C118 1.405 . S
C118 H98 0.950 . S
C118 C117 1.405 . S
C118 C119 1.367 . S
C119 H99 0.950 . S
C119 C114 1.386 . S
C119 C118 1.367 . S
C120 C114 1.483 . S
C120 C121 1.382 . S
C120 C122 1.403 . S
C121 H100 0.950 . S
C121 C120 1.382 . S
C121 C137 1.411 . S
C122 C120 1.403 . S
C122 C123 1.489 . S
C122 C136 1.411 . S
C123 C122 1.489 . S
C123 C124 1.383 . S
C123 C128 1.382 . S
C124 H101 0.950 . S
C124 C123 1.383 . S
C124 C125 1.395 . S
C125 H102 0.950 . S
C125 C124 1.395 . S
C125 C126 1.288 . S
C126 C125 1.288 . S
C126 C127 1.392 . S
C127 H103 0.951 . S
C127 C126 1.392 . S
C127 C128 1.392 . S
C128 H104 0.949 . S
C128 C123 1.382 . S
C128 C127 1.392 . S
C129 C130 1.376 . S
C129 C134 1.386 . S
C129 C135 1.483 . S
C130 H105 0.949 . S
C130 C129 1.376 . S
C130 C131 1.397 . S
C131 H106 0.950 . S
C131 C130 1.397 . S
C131 C132 1.391 . S
C132 C131 1.391 . S
C132 C133 1.405 . S
C133 H107 0.950 . S
C133 C132 1.405 . S
C133 C134 1.367 . S
C134 H108 0.950 . S
C134 C129 1.386 . S
C134 C133 1.367 . S
C135 C129 1.483 . S
C135 C136 1.382 . S
C135 C137 1.403 . S
C136 H109 0.950 . S
C136 C122 1.411 . S
C136 C135 1.382 . S
C137 C121 1.411 . S
C137 C135 1.403 . S
C137 C138 1.489 . S
C138 C137 1.489 . S
C138 C139 1.383 . S
C138 C143 1.382 . S
C139 H110 0.950 . S
C139 C138 1.383 . S
C139 C140 1.395 . S
C140 H111 0.950 . S
C140 C139 1.395 . S
C140 C141 1.288 . S
C141 C140 1.288 . S
C141 C142 1.392 . S
C142 H112 0.951 . S
C142 C141 1.392 . S
C142 C143 1.392 . S
C143 H113 0.949 . S
C143 C138 1.382 . S
C143 C142 1.392 . S
H144 C163 0.949 . S
H145 C164 0.950 . S
H146 C166 0.950 . S
H147 C167 0.950 . S
H148 C169 0.950 . S
H149 C172 0.950 . S
H150 C173 0.950 . S
H151 C175 0.951 . S
H152 C176 0.949 . S
H153 C178 0.949 . S
H154 C179 0.950 . S
H155 C181 0.950 . S
H156 C182 0.950 . S
H157 C184 0.950 . S
H158 C187 0.950 . S
H159 C188 0.950 . S
H160 C190 0.951 . S
H161 C191 0.949 . S
C162 C163 1.376 . S
C162 C167 1.386 . S
C162 C168 1.483 . S
C163 H144 0.949 . S
C163 C162 1.376 . S
C163 C164 1.397 . S
C164 H145 0.950 . S
C164 C163 1.397 . S
C164 C165 1.391 . S
C165 C164 1.391 . S
C165 C166 1.405 . S
C166 H146 0.950 . S
C166 C165 1.405 . S
C166 C167 1.367 . S
C167 H147 0.950 . S
C167 C162 1.386 . S
C167 C166 1.367 . S
C168 C162 1.483 . S
C168 C169 1.382 . S
C168 C170 1.403 . S
C169 H148 0.950 . S
C169 C168 1.382 . S
C169 C185 1.411 . S
C170 C168 1.403 . S
C170 C171 1.489 . S
C170 C184 1.411 . S
C171 C170 1.489 . S
C171 C172 1.383 . S
C171 C176 1.382 . S
C172 H149 0.950 . S
C172 C171 1.383 . S
C172 C173 1.395 . S
C173 H150 0.950 . S
C173 C172 1.395 . S
C173 C174 1.288 . S
C174 C173 1.288 . S
C174 C175 1.392 . S
C175 H151 0.951 . S
C175 C174 1.392 . S
C175 C176 1.392 . S
C176 H152 0.949 . S
C176 C171 1.382 . S
C176 C175 1.392 . S
C177 C178 1.376 . S
C177 C182 1.386 . S
C177 C183 1.483 . S
C178 H153 0.949 . S
C178 C177 1.376 . S
C178 C179 1.397 . S
C179 H154 0.950 . S
C179 C178 1.397 . S
C179 C180 1.391 . S
C180 C179 1.391 . S
C180 C181 1.405 . S
C181 H155 0.950 . S
C181 C180 1.405 . S
C181 C182 1.367 . S
C182 H156 0.950 . S
C182 C177 1.386 . S
C182 C181 1.367 . S
C183 C177 1.483 . S
C183 C184 1.382 . S
C183 C185 1.403 . S
C184 H157 0.950 . S
C184 C170 1.411 . S
C184 C183 1.382 . S
C185 C169 1.411 . S
C185 C183 1.403 . S
C185 C186 1.489 . S
C186 C185 1.489 . S
C186 C187 1.383 . S
C186 C191 1.382 . S
C187 H158 0.950 . S
C187 C186 1.383 . S
C187 C188 1.395 . S
C188 H159 0.950 . S
C188 C187 1.395 . S
C188 C189 1.288 . S
C189 C188 1.288 . S
C189 C190 1.392 . S
C190 H160 0.951 . S
C190 C189 1.392 . S
C190 C191 1.392 . S
C191 H161 0.949 . S
C191 C186 1.382 . S
C191 C190 1.392 . S
H192 C211 0.949 . S
H193 C212 0.950 . S
H194 C214 0.950 . S
H195 C215 0.950 . S
H196 C217 0.950 . S
H197 C220 0.950 . S
H198 C221 0.950 . S
H199 C223 0.951 . S
H200 C224 0.949 . S
H201 C226 0.949 . S
H202 C227 0.950 . S
H203 C229 0.950 . S
H204 C230 0.950 . S
H205 C232 0.950 . S
H206 C235 0.950 . S
H207 C236 0.950 . S
H208 C238 0.951 . S
H209 C239 0.949 . S
C210 C211 1.376 . S
C210 C215 1.386 . S
C210 C216 1.483 . S
C211 H192 0.949 . S
C211 C210 1.376 . S
C211 C212 1.397 . S
C212 H193 0.950 . S
C212 C211 1.397 . S
C212 C213 1.391 . S
C213 C212 1.391 . S
C213 C214 1.405 . S
C214 H194 0.950 . S
C214 C213 1.405 . S
C214 C215 1.367 . S
C215 H195 0.950 . S
C215 C210 1.386 . S
C215 C214 1.367 . S
C216 C210 1.483 . S
C216 C217 1.382 . S
C216 C218 1.403 . S
C217 H196 0.950 . S
C217 C216 1.382 . S
C217 C233 1.411 . S
C218 C216 1.403 . S
C218 C219 1.489 . S
C218 C232 1.411 . S
C219 C218 1.489 . S
C219 C220 1.383 . S
C219 C224 1.382 . S
C220 H197 0.950 . S
C220 C219 1.383 . S
C220 C221 1.395 . S
C221 H198 0.950 . S
C221 C220 1.395 . S
C221 C222 1.288 . S
C222 C221 1.288 . S
C222 C223 1.392 . S
C223 H199 0.951 . S
C223 C222 1.392 . S
C223 C224 1.392 . S
C224 H200 0.949 . S
C224 C219 1.382 . S
C224 C223 1.392 . S
C225 C226 1.376 . S
C225 C230 1.386 . S
C225 C231 1.483 . S
C226 H201 0.949 . S
C226 C225 1.376 . S
C226 C227 1.397 . S
C227 H202 0.950 . S
C227 C226 1.397 . S
C227 C228 1.391 . S
C228 C227 1.391 . S
C228 C229 1.405 . S
C229 H203 0.950 . S
C229 C228 1.405 . S
C229 C230 1.367 . S
C230 H204 0.950 . S
C230 C225 1.386 . S
C230 C229 1.367 . S
C231 C225 1.483 . S
C231 C232 1.382 . S
C231 C233 1.403 . S
C232 H205 0.950 . S
C232 C218 1.411 . S
C232 C231 1.382 . S
C233 C217 1.411 . S
C233 C231 1.403 . S
C233 C234 1.489 . S
C234 C233 1.489 . S
C234 C235 1.383 . S
C234 C239 1.382 . S
C235 H206 0.950 . S
C235 C234 1.383 . S
C235 C236 1.395 . S
C236 H207 0.950 . S
C236 C235 1.395 . S
C236 C237 1.288 . S
C237 C236 1.288 . S
C237 C238 1.392 . S
C238 H208 0.951 . S
C238 C237 1.392 . S
C238 C239 1.392 . S
C239 H209 0.949 . S
C239 C234 1.382 . S
C239 C238 1.392 . S
H240 C259 0.949 . S
H241 C260 0.950 . S
H242 C262 0.950 . S
H243 C263 0.950 . S
H244 C265 0.950 . S
H245 C268 0.950 . S
H246 C269 0.950 . S
H247 C271 0.951 . S
H248 C272 0.949 . S
H249 C274 0.949 . S
H250 C275 0.950 . S
H251 C277 0.950 . S
H252 C278 0.950 . S
H253 C280 0.950 . S
H254 C283 0.950 . S
H255 C284 0.950 . S
H256 C286 0.951 . S
H257 C287 0.949 . S
C258 C259 1.376 . S
C258 C263 1.386 . S
C258 C264 1.483 . S
C259 H240 0.949 . S
C259 C258 1.376 . S
C259 C260 1.397 . S
C260 H241 0.950 . S
C260 C259 1.397 . S
C260 C261 1.391 . S
C261 C260 1.391 . S
C261 C262 1.405 . S
C262 H242 0.950 . S
C262 C261 1.405 . S
C262 C263 1.367 . S
C263 H243 0.950 . S
C263 C258 1.386 . S
C263 C262 1.367 . S
C264 C258 1.483 . S
C264 C265 1.382 . S
C264 C266 1.403 . S
C265 H244 0.950 . S
C265 C264 1.382 . S
C265 C281 1.411 . S
C266 C264 1.403 . S
C266 C267 1.489 . S
C266 C280 1.411 . S
C267 C266 1.489 . S
C267 C268 1.383 . S
C267 C272 1.382 . S
C268 H245 0.950 . S
C268 C267 1.383 . S
C268 C269 1.395 . S
C269 H246 0.950 . S
C269 C268 1.395 . S
C269 C270 1.288 . S
C270 C269 1.288 . S
C270 C271 1.392 . S
C271 H247 0.951 . S
C271 C270 1.392 . S
C271 C272 1.392 . S
C272 H248 0.949 . S
C272 C267 1.382 . S
C272 C271 1.392 . S
C273 C274 1.376 . S
C273 C278 1.386 . S
C273 C279 1.483 . S
C274 H249 0.949 . S
C274 C273 1.376 . S
C274 C275 1.397 . S
C275 H250 0.950 . S
C275 C274 1.397 . S
C275 C276 1.391 . S
C276 C275 1.391 . S
C276 C277 1.405 . S
C277 H251 0.950 . S
C277 C276 1.405 . S
C277 C278 1.367 . S
C278 H252 0.950 . S
C278 C273 1.386 . S
C278 C277 1.367 . S
C279 C273 1.483 . S
C279 C280 1.382 . S
C279 C281 1.403 . S
C280 H253 0.950 . S
C280 C266 1.411 . S
C280 C279 1.382 . S
C281 C265 1.411 . S
C281 C279 1.403 . S
C281 C282 1.489 . S
C282 C281 1.489 . S
C282 C283 1.383 . S
C282 C287 1.382 . S
C283 H254 0.950 . S
C283 C282 1.383 . S
C283 C284 1.395 . S
C284 H255 0.950 . S
C284 C283 1.395 . S
C284 C285 1.288 . S
C285 C284 1.288 . S
C285 C286 1.392 . S
C286 H256 0.951 . S
C286 C285 1.392 . S
C286 C287 1.392 . S
C287 H257 0.949 . S
C287 C282 1.382 . S
C287 C286 1.392 . S
H288 C307 0.949 . S
H289 C308 0.950 . S
H290 C310 0.950 . S
H291 C311 0.950 . S
H292 C313 0.950 . S
H293 C316 0.950 . S
H294 C317 0.950 . S
H295 C319 0.951 . S
H296 C320 0.949 . S
H297 C322 0.949 . S
H298 C323 0.950 . S
H299 C325 0.950 . S
H300 C326 0.950 . S
H301 C328 0.950 . S
H302 C331 0.950 . S
H303 C332 0.950 . S
H304 C334 0.951 . S
H305 C335 0.949 . S
C306 C307 1.376 . S
C306 C311 1.386 . S
C306 C312 1.483 . S
C307 H288 0.949 . S
C307 C306 1.376 . S
C307 C308 1.397 . S
C308 H289 0.950 . S
C308 C307 1.397 . S
C308 C309 1.391 . S
C309 C308 1.391 . S
C309 C310 1.405 . S
C310 H290 0.950 . S
C310 C309 1.405 . S
C310 C311 1.367 . S
C311 H291 0.950 . S
C311 C306 1.386 . S
C311 C310 1.367 . S
C312 C306 1.483 . S
C312 C313 1.382 . S
C312 C314 1.403 . S
C313 H292 0.950 . S
C313 C312 1.382 . S
C313 C329 1.411 . S
C314 C312 1.403 . S
C314 C315 1.489 . S
C314 C328 1.411 . S
C315 C314 1.489 . S
C315 C316 1.383 . S
C315 C320 1.382 . S
C316 H293 0.950 . S
C316 C315 1.383 . S
C316 C317 1.395 . S
C317 H294 0.950 . S
C317 C316 1.395 . S
C317 C318 1.288 . S
C318 C317 1.288 . S
C318 C319 1.392 . S
C319 H295 0.951 . S
C319 C318 1.392 . S
C319 C320 1.392 . S
C320 H296 0.949 . S
C320 C315 1.382 . S
C320 C319 1.392 . S
C321 C322 1.376 . S
C321 C326 1.386 . S
C321 C327 1.483 . S
C322 H297 0.949 . S
C322 C321 1.376 . S
C322 C323 1.397 . S
C323 H298 0.950 . S
C323 C322 1.397 . S
C323 C324 1.391 . S
C324 C323 1.391 . S
C324 C325 1.405 . S
C325 H299 0.950 . S
C325 C324 1.405 . S
C325 C326 1.367 . S
C326 H300 0.950 . S
C326 C321 1.386 . S
C326 C325 1.367 . S
C327 C321 1.483 . S
C327 C328 1.382 . S
C327 C329 1.403 . S
C328 H301 0.950 . S
C328 C314 1.411 . S
C328 C327 1.382 . S
C329 C313 1.411 . S
C329 C327 1.403 . S
C329 C330 1.489 . S
C330 C329 1.489 . S
C330 C331 1.383 . S
C330 C335 1.382 . S
C331 H302 0.950 . S
C331 C330 1.383 . S
C331 C332 1.395 . S
C332 H303 0.950 . S
C332 C331 1.395 . S
C332 C333 1.288 . S
C333 C332 1.288 . S
C333 C334 1.392 . S
C334 H304 0.951 . S
C334 C333 1.392 . S
C334 C335 1.392 . S
C335 H305 0.949 . S
C335 C330 1.382 . S
C335 C334 1.392 . S
H336 C355 0.949 . S
H337 C356 0.950 . S
H338 C358 0.950 . S
H339 C359 0.950 . S
H340 C361 0.950 . S
H341 C364 0.950 . S
H342 C365 0.950 . S
H343 C367 0.951 . S
H344 C368 0.949 . S
H345 C370 0.949 . S
H346 C371 0.950 . S
H347 C373 0.950 . S
H348 C374 0.950 . S
H349 C376 0.950 . S
H350 C379 0.950 . S
H351 C380 0.950 . S
H352 C382 0.951 . S
H353 C383 0.949 . S
C354 C355 1.376 . S
C354 C359 1.386 . S
C354 C360 1.483 . S
C355 H336 0.949 . S
C355 C354 1.376 . S
C355 C356 1.397 . S
C356 H337 0.950 . S
C356 C355 1.397 . S
C356 C357 1.391 . S
C357 C356 1.391 . S
C357 C358 1.405 . S
C358 H338 0.950 . S
C358 C357 1.405 . S
C358 C359 1.367 . S
C359 H339 0.950 . S
C359 C354 1.386 . S
C359 C358 1.367 . S
C360 C354 1.483 . S
C360 C361 1.382 . S
C360 C362 1.403 . S
C361 H340 0.950 . S
C361 C360 1.382 . S
C361 C377 1.411 . S
C362 C360 1.403 . S
C362 C363 1.489 . S
C362 C376 1.411 . S
C363 C362 1.489 . S
C363 C364 1.383 . S
C363 C368 1.382 . S
C364 H341 0.950 . S
C364 C363 1.383 . S
C364 C365 1.395 . S
C365 H342 0.950 . S
C365 C364 1.395 . S
C365 C366 1.288 . S
C366 C365 1.288 . S
C366 C367 1.392 . S
C367 H343 0.951 . S
C367 C366 1.392 . S
C367 C368 1.392 . S
C368 H344 0.949 . S
C368 C363 1.382 . S
C368 C367 1.392 . S
C369 C370 1.376 . S
C369 C374 1.386 . S
C369 C375 1.483 . S
C370 H345 0.949 . S
C370 C369 1.376 . S
C370 C371 1.397 . S
C371 H346 0.950 . S
C371 C370 1.397 . S
C371 C372 1.391 . S
C372 C371 1.391 . S
C372 C373 1.405 . S
C373 H347 0.950 . S
C373 C372 1.405 . S
C373 C374 1.367 . S
C374 H348 0.950 . S
C374 C369 1.386 . S
C374 C373 1.367 . S
C375 C369 1.483 . S
C375 C376 1.382 . S
C375 C377 1.403 . S
C376 H349 0.950 . S
C376 C362 1.411 . S
C376 C375 1.382 . S
C377 C361 1.411 . S
C377 C375 1.403 . S
C377 C378 1.489 . S
C378 C377 1.489 . S
C378 C379 1.383 . S
C378 C383 1.382 . S
C379 H350 0.950 . S
C379 C378 1.383 . S
C379 C380 1.395 . S
C380 H351 0.950 . S
C380 C379 1.395 . S
C380 C381 1.288 . S
C381 C380 1.288 . S
C381 C382 1.392 . S
C382 H352 0.951 . S
C382 C381 1.392 . S
C382 C383 1.392 . S
C383 H353 0.949 . S
C383 C378 1.382 . S
C383 C382 1.392 . S
C384 O386 1.247 . S
C384 O388 1.258 . S
C385 O392 1.247 . S
C385 O393 1.258 . S
O386 C384 1.247 . S
O386 Zn387 2.025 . S
Zn387 O386 2.025 . S
Zn387 O391 2.038 1_655 S
Zn387 O393 2.038 1_655 S
Zn387 O394 2.025 . S
O388 C384 1.258 . S
O388 Zn389 2.025 1_655 S
Zn389 O388 2.025 1_455 S
Zn389 O390 2.038 . S
Zn389 O392 2.038 . S
Zn389 O395 2.025 1_455 S
O390 Zn389 2.038 . S
O390 C396 1.247 . S
O391 Zn387 2.038 1_455 S
O391 C396 1.258 . S
O392 C385 1.247 . S
O392 Zn389 2.038 . S
O393 C385 1.258 . S
O393 Zn387 2.038 1_455 S
O394 Zn387 2.025 . S
O394 C397 1.247 . S
O395 Zn389 2.025 1_655 S
O395 C397 1.258 . S
C396 O390 1.247 . S
C396 O391 1.258 . S
C397 O394 1.247 . S
C397 O395 1.258 . S
C398 O400 1.247 . S
C398 O402 1.258 . S
C399 O406 1.247 . S
C399 O407 1.258 . S
O400 C398 1.247 . S
O400 Zn401 2.039 . S
Zn401 O400 2.039 . S
Zn401 O405 2.024 1_545 S
Zn401 O407 2.024 1_545 S
Zn401 O408 2.039 . S
O402 C398 1.258 . S
O402 Zn403 2.039 1_545 S
Zn403 O402 2.039 1_565 S
Zn403 O404 2.024 . S
Zn403 O406 2.024 . S
Zn403 O409 2.039 1_565 S
O404 Zn403 2.024 . S
O404 C410 1.247 . S
O405 Zn401 2.024 1_565 S
O405 C410 1.258 . S
O406 C399 1.247 . S
O406 Zn403 2.024 . S
O407 C399 1.258 . S
O407 Zn401 2.024 1_565 S
O408 Zn401 2.039 . S
O408 C411 1.247 . S
O409 Zn403 2.039 1_545 S
O409 C411 1.258 . S
C410 O404 1.247 . S
C410 O405 1.258 . S
C411 O408 1.247 . S
C411 O409 1.258 . S
C412 O414 1.247 . S
C412 O416 1.258 . S
C413 O420 1.247 . S
C413 O421 1.258 . S
O414 C412 1.247 . S
O414 Zn415 2.032 1_655 S
Zn415 O414 2.032 1_455 S
Zn415 O419 2.031 . S
Zn415 O421 2.031 . S
Zn415 O422 2.032 1_455 S
O416 C412 1.258 . S
O416 Zn417 2.024 1_655 S
Zn417 O416 2.024 1_455 S
Zn417 O418 2.039 . S
Zn417 O420 2.039 . S
Zn417 O423 2.024 1_455 S
O418 Zn417 2.039 . S
O418 C424 1.247 . S
O419 Zn415 2.031 . S
O419 C424 1.258 . S
O420 C413 1.247 . S
O420 Zn417 2.039 . S
O421 C413 1.258 . S
O421 Zn415 2.031 . S
O422 Zn415 2.032 1_655 S
O422 C425 1.247 . S
O423 Zn417 2.024 1_655 S
O423 C425 1.258 . S
C424 O418 1.247 . S
C424 O419 1.258 . S
C425 O422 1.247 . S
C425 O423 1.258 . S
C426 O428 1.247 . S
C426 O430 1.258 . S
C427 O434 1.247 . S
C427 O435 1.258 . S
O428 C426 1.247 . S
O428 Zn429 2.039 . S
Zn429 O428 2.039 . S
Zn429 O433 2.024 1_545 S
Zn429 O435 2.024 1_545 S
Zn429 O436 2.039 . S
O430 C426 1.258 . S
O430 Zn431 2.032 . S
Zn431 O430 2.032 . S
Zn431 O432 2.031 1_545 S
Zn431 O434 2.031 1_545 S
Zn431 O437 2.032 . S
O432 Zn431 2.031 1_565 S
O432 C438 1.247 . S
O433 Zn429 2.024 1_565 S
O433 C438 1.258 . S
O434 C427 1.247 . S
O434 Zn431 2.031 1_565 S
O435 C427 1.258 . S
O435 Zn429 2.024 1_565 S
O436 Zn429 2.039 . S
O436 C439 1.247 . S
O437 Zn431 2.032 . S
O437 C439 1.258 . S
C438 O432 1.247 . S
C438 O433 1.258 . S
C439 O436 1.247 . S
C439 O437 1.258 . S
C440 O442 1.247 . S
C440 O444 1.258 . S
C441 O448 1.247 . S
C441 O449 1.258 . S
O442 C440 1.247 . S
O442 Zn443 2.028 . S
Zn443 O442 2.028 . S
Zn443 O447 2.035 . S
Zn443 O449 2.035 1_554 S
Zn443 O450 2.028 1_554 S
O444 C440 1.258 . S
O444 Zn445 2.035 . S
Zn445 O444 2.035 . S
Zn445 O446 2.028 . S
Zn445 O448 2.028 1_554 S
Zn445 O451 2.035 1_554 S
O446 Zn445 2.028 . S
O446 C452 1.247 . S
O447 Zn443 2.035 . S
O447 C452 1.258 . S
O448 C441 1.247 . S
O448 Zn445 2.028 1_556 S
O449 C441 1.258 . S
O449 Zn443 2.035 1_556 S
O450 Zn443 2.028 1_556 S
O450 C453 1.247 . S
O451 Zn445 2.035 1_556 S
O451 C453 1.258 . S
C452 O446 1.247 . S
C452 O447 1.258 . S
C453 O450 1.247 . S
C453 O451 1.258 . S
C454 O456 1.247 . S
C454 O458 1.258 . S
C455 O462 1.247 . S
C455 O463 1.258 . S
O456 C454 1.247 . S
O456 Zn457 2.028 . S
Zn457 O456 2.028 . S
Zn457 O461 2.035 . S
Zn457 O463 2.035 1_554 S
Zn457 O464 2.028 1_554 S
O458 C454 1.258 . S
O458 Zn459 2.035 . S
Zn459 O458 2.035 . S
Zn459 O460 2.028 . S
Zn459 O462 2.028 1_554 S
Zn459 O465 2.035 1_554 S
O460 Zn459 2.028 . S
O460 C466 1.247 . S
O461 Zn457 2.035 . S
O461 C466 1.258 . S
O462 C455 1.247 . S
O462 Zn459 2.028 1_556 S
O463 C455 1.258 . S
O463 Zn457 2.035 1_556 S
O464 Zn457 2.028 1_556 S
O464 C467 1.247 . S
O465 Zn459 2.035 1_556 S
O465 C467 1.258 . S
C466 O460 1.247 . S
C466 O461 1.258 . S
C467 O464 1.247 . S
C467 O465 1.258 . S
C468 O470 1.247 . S
C468 O472 1.258 . S
C469 O476 1.247 . S
C469 O477 1.258 . S
O470 C468 1.247 . S
O470 Zn471 2.028 1_556 S
Zn471 O470 2.028 1_554 S
Zn471 O475 2.035 1_554 S
Zn471 O477 2.035 . S
Zn471 O478 2.028 . S
O472 C468 1.258 . S
O472 Zn473 2.035 1_556 S
Zn473 O472 2.035 1_554 S
Zn473 O474 2.028 1_554 S
Zn473 O476 2.028 . S
Zn473 O479 2.035 . S
O474 Zn473 2.028 1_556 S
O474 C480 1.247 . S
O475 Zn471 2.035 1_556 S
O475 C480 1.258 . S
O476 C469 1.247 . S
O476 Zn473 2.028 . S
O477 C469 1.258 . S
O477 Zn471 2.035 . S
O478 Zn471 2.028 . S
O478 C481 1.247 . S
O479 Zn473 2.035 . S
O479 C481 1.258 . S
C480 O474 1.247 . S
C480 O475 1.258 . S
C481 O478 1.247 . S
C481 O479 1.258 . S
C482 O484 1.247 . S
C482 O486 1.258 . S
C483 O490 1.247 . S
C483 O491 1.258 . S
O484 C482 1.247 . S
O484 Zn485 2.028 . S
Zn485 O484 2.028 . S
Zn485 O489 2.035 . S
Zn485 O491 2.035 1_554 S
Zn485 O492 2.028 1_554 S
O486 C482 1.258 . S
O486 Zn487 2.035 . S
Zn487 O486 2.035 . S
Zn487 O488 2.028 . S
Zn487 O490 2.028 1_554 S
Zn487 O493 2.035 1_554 S
O488 Zn487 2.028 . S
O488 C494 1.247 . S
O489 Zn485 2.035 . S
O489 C494 1.258 . S
O490 C483 1.247 . S
O490 Zn487 2.028 1_556 S
O491 C483 1.258 . S
O491 Zn485 2.035 1_556 S
O492 Zn485 2.028 1_556 S
O492 C495 1.247 . S
O493 Zn487 2.035 1_556 S
O493 C495 1.258 . S
C494 O488 1.247 . S
C494 O489 1.258 . S
C495 O492 1.247 . S
C495 O493 1.258 . S
H496 C502 0.930 . S
H497 C506 0.930 . S
H498 C511 0.929 . S
H499 C509 0.929 . S
H500 C504 0.929 . S
H501 C510 0.929 . S
C502 H496 0.930 . S
C502 C503 1.367 . S
C502 C510 1.378 . S
C503 C502 1.367 . S
C503 C511 1.433 . S
C504 H500 0.929 . S
C504 C506 1.378 . S
C504 C508 1.350 . S
C505 C508 1.463 . S
C505 C510 1.350 . S
C505 N513 1.427 . S
C506 H497 0.930 . S
C506 C504 1.378 . S
C506 C507 1.367 . S
C507 C506 1.367 . S
C507 C509 1.433 . S
C508 C504 1.350 . S
C508 C505 1.463 . S
C508 N512 1.427 . S
C509 H499 0.929 . S
C509 C507 1.433 . S
C509 N512 1.384 . S
C510 H501 0.929 . S
C510 C502 1.378 . S
C510 C505 1.350 . S
C511 H498 0.929 . S
C511 C503 1.433 . S
C511 N513 1.384 . S
N512 C508 1.427 . S
N512 C509 1.384 . S
N513 C505 1.427 . S
N513 C511 1.384 . S
H514 C520 0.930 . S
H515 C524 0.930 . S
H516 C529 0.929 . S
H517 C527 0.929 . S
H518 C522 0.929 . S
H519 C528 0.929 . S
C520 H514 0.930 . S
C520 C521 1.367 . S
C520 C528 1.378 . S
C521 C520 1.367 . S
C521 C529 1.433 . S
C522 H518 0.929 . S
C522 C524 1.378 . S
C522 C526 1.350 . S
C523 C526 1.463 . S
C523 C528 1.350 . S
C523 N531 1.427 . S
C524 H515 0.930 . S
C524 C522 1.378 . S
C524 C525 1.367 . S
C525 C524 1.367 . S
C525 C527 1.433 . S
C526 C522 1.350 . S
C526 C523 1.463 . S
C526 N530 1.427 . S
C527 H517 0.929 . S
C527 C525 1.433 . S
C527 N530 1.384 . S
C528 H519 0.929 . S
C528 C520 1.378 . S
C528 C523 1.350 . S
C529 H516 0.929 . S
C529 C521 1.433 . S
C529 N531 1.384 . S
N530 C526 1.427 . S
N530 C527 1.384 . S
N531 C523 1.427 . S
N531 C529 1.384 . S
H532 C538 0.930 . S
H533 C542 0.930 . S
H534 C547 0.929 . S
H535 C545 0.929 . S
H536 C540 0.929 . S
H537 C546 0.929 . S
C538 H532 0.930 . S
C538 C539 1.367 . S
C538 C546 1.378 . S
C539 C538 1.367 . S
C539 C547 1.433 . S
C540 H536 0.929 . S
C540 C542 1.378 . S
C540 C544 1.350 . S
C541 C544 1.463 . S
C541 C546 1.350 . S
C541 N549 1.427 . S
C542 H533 0.930 . S
C542 C540 1.378 . S
C542 C543 1.367 . S
C543 C542 1.367 . S
C543 C545 1.433 . S
C544 C540 1.350 . S
C544 C541 1.463 . S
C544 N548 1.427 . S
C545 H535 0.929 . S
C545 C543 1.433 . S
C545 N548 1.384 . S
C546 H537 0.929 . S
C546 C538 1.378 . S
C546 C541 1.350 . S
C547 H534 0.929 . S
C547 C539 1.433 . S
C547 N549 1.384 . S
N548 C544 1.427 . S
N548 C545 1.384 . S
N549 C541 1.427 . S
N549 C547 1.384 . S
H550 C556 0.930 . S
H551 C560 0.930 . S
H552 C565 0.929 . S
H553 C563 0.929 . S
H554 C558 0.929 . S
H555 C564 0.929 . S
C556 H550 0.930 . S
C556 C557 1.367 . S
C556 C564 1.378 . S
C557 C556 1.367 . S
C557 C565 1.433 . S
C558 H554 0.929 . S
C558 C560 1.378 . S
C558 C562 1.350 . S
C559 C562 1.463 . S
C559 C564 1.350 . S
C559 N567 1.427 . S
C560 H551 0.930 . S
C560 C558 1.378 . S
C560 C561 1.367 . S
C561 C560 1.367 . S
C561 C563 1.433 . S
C562 C558 1.350 . S
C562 C559 1.463 . S
C562 N566 1.427 . S
C563 H553 0.929 . S
C563 C561 1.433 . S
C563 N566 1.384 . S
C564 H555 0.929 . S
C564 C556 1.378 . S
C564 C559 1.350 . S
C565 H552 0.929 . S
C565 C557 1.433 . S
C565 N567 1.384 . S
N566 C562 1.427 . S
N566 C563 1.384 . S
N567 C559 1.427 . S
N567 C565 1.384 . S
H568 C574 0.930 . S
H569 C578 0.930 . S
H570 C583 0.929 . S
H571 C581 0.929 . S
H572 C576 0.929 . S
H573 C582 0.929 . S
C574 H568 0.930 . S
C574 C575 1.367 . S
C574 C582 1.378 . S
C575 C574 1.367 . S
C575 C583 1.433 . S
C576 H572 0.929 . S
C576 C578 1.378 . S
C576 C580 1.350 . S
C577 C580 1.463 . S
C577 C582 1.350 . S
C577 N585 1.427 . S
C578 H569 0.930 . S
C578 C576 1.378 . S
C578 C579 1.367 . S
C579 C578 1.367 . S
C579 C581 1.433 . S
C580 C576 1.350 . S
C580 C577 1.463 . S
C580 N584 1.427 . S
C581 H571 0.929 . S
C581 C579 1.433 . S
C581 N584 1.384 . S
C582 H573 0.929 . S
C582 C574 1.378 . S
C582 C577 1.350 . S
C583 H570 0.929 . S
C583 C575 1.433 . S
C583 N585 1.384 . S
N584 C580 1.427 . S
N584 C581 1.384 . S
N585 C577 1.427 . S
N585 C583 1.384 . S
H586 C592 0.930 . S
H587 C596 0.930 . S
H588 C601 0.929 . S
H589 C599 0.929 . S
H590 C594 0.929 . S
H591 C600 0.929 . S
C592 H586 0.930 . S
C592 C593 1.367 . S
C592 C600 1.378 . S
C593 C592 1.367 . S
C593 C601 1.433 . S
C594 H590 0.929 . S
C594 C596 1.378 . S
C594 C598 1.350 . S
C595 C598 1.463 . S
C595 C600 1.350 . S
C595 N603 1.427 . S
C596 H587 0.930 . S
C596 C594 1.378 . S
C596 C597 1.367 . S
C597 C596 1.367 . S
C597 C599 1.433 . S
C598 C594 1.350 . S
C598 C595 1.463 . S
C598 N602 1.427 . S
C599 H589 0.929 . S
C599 C597 1.433 . S
C599 N602 1.384 . S
C600 H591 0.929 . S
C600 C592 1.378 . S
C600 C595 1.350 . S
C601 H588 0.929 . S
C601 C593 1.433 . S
C601 N603 1.384 . S
N602 C598 1.427 . S
N602 C599 1.384 . S
N603 C595 1.427 . S
N603 C601 1.384 . S
H604 C610 0.930 . S
H605 C614 0.930 . S
H606 C619 0.929 . S
H607 C617 0.929 . S
H608 C612 0.929 . S
H609 C618 0.929 . S
C610 H604 0.930 . S
C610 C611 1.367 . S
C610 C618 1.378 . S
C611 C610 1.367 . S
C611 C619 1.433 . S
C612 H608 0.929 . S
C612 C614 1.378 . S
C612 C616 1.350 . S
C613 C616 1.463 . S
C613 C618 1.350 . S
C613 N621 1.427 . S
C614 H605 0.930 . S
C614 C612 1.378 . S
C614 C615 1.367 . S
C615 C614 1.367 . S
C615 C617 1.433 . S
C616 C612 1.350 . S
C616 C613 1.463 . S
C616 N620 1.427 . S
C617 H607 0.929 . S
C617 C615 1.433 . S
C617 N620 1.384 . S
C618 H609 0.929 . S
C618 C610 1.378 . S
C618 C613 1.350 . S
C619 H606 0.929 . S
C619 C611 1.433 . S
C619 N621 1.384 . S
N620 C616 1.427 . S
N620 C617 1.384 . S
N621 C613 1.427 . S
N621 C619 1.384 . S
H622 C628 0.930 . S
H623 C632 0.930 . S
H624 C637 0.929 . S
H625 C635 0.929 . S
H626 C630 0.929 . S
H627 C636 0.929 . S
C628 H622 0.930 . S
C628 C629 1.367 . S
C628 C636 1.378 . S
C629 C628 1.367 . S
C629 C637 1.433 . S
C630 H626 0.929 . S
C630 C632 1.378 . S
C630 C634 1.350 . S
C631 C634 1.463 . S
C631 C636 1.350 . S
C631 N639 1.427 . S
C632 H623 0.930 . S
C632 C630 1.378 . S
C632 C633 1.367 . S
C633 C632 1.367 . S
C633 C635 1.433 . S
C634 C630 1.350 . S
C634 C631 1.463 . S
C634 N638 1.427 . S
C635 H625 0.929 . S
C635 C633 1.433 . S
C635 N638 1.384 . S
C636 H627 0.929 . S
C636 C628 1.378 . S
C636 C631 1.350 . S
C637 H624 0.929 . S
C637 C629 1.433 . S
C637 N639 1.384 . S
N638 C634 1.427 . S
N638 C635 1.384 . S
N639 C631 1.427 . S
N639 C637 1.384 . S
H640 C646 0.930 . S
H641 C650 0.930 . S
H642 C655 0.929 . S
H643 C653 0.929 . S
H644 C648 0.929 . S
H645 C654 0.929 . S
C646 H640 0.930 . S
C646 C647 1.367 . S
C646 C654 1.378 . S
C647 C646 1.367 . S
C647 C655 1.433 . S
C648 H644 0.929 . S
C648 C650 1.378 . S
C648 C652 1.350 . S
C649 C652 1.463 . S
C649 C654 1.350 . S
C649 N657 1.427 . S
C650 H641 0.930 . S
C650 C648 1.378 . S
C650 C651 1.367 . S
C651 C650 1.367 . S
C651 C653 1.433 . S
C652 C648 1.350 . S
C652 C649 1.463 . S
C652 N656 1.427 . S
C653 H643 0.929 . S
C653 C651 1.433 . S
C653 N656 1.384 . S
C654 H645 0.929 . S
C654 C646 1.378 . S
C654 C649 1.350 . S
C655 H642 0.929 . S
C655 C647 1.433 . S
C655 N657 1.384 . S
N656 C652 1.427 . S
N656 C653 1.384 . S
N657 C649 1.427 . S
N657 C655 1.384 . S
H658 C664 0.930 . S
H659 C668 0.930 . S
H660 C673 0.929 . S
H661 C671 0.929 . S
H662 C666 0.929 . S
H663 C672 0.929 . S
C664 H658 0.930 . S
C664 C665 1.367 . S
C664 C672 1.378 . S
C665 C664 1.367 . S
C665 C673 1.433 . S
C666 H662 0.929 . S
C666 C668 1.378 . S
C666 C670 1.350 . S
C667 C670 1.463 . S
C667 C672 1.350 . S
C667 N675 1.427 . S
C668 H659 0.930 . S
C668 C666 1.378 . S
C668 C669 1.367 . S
C669 C668 1.367 . S
C669 C671 1.433 . S
C670 C666 1.350 . S
C670 C667 1.463 . S
C670 N674 1.427 . S
C671 H661 0.929 . S
C671 C669 1.433 . S
C671 N674 1.384 . S
C672 H663 0.929 . S
C672 C664 1.378 . S
C672 C667 1.350 . S
C673 H660 0.929 . S
C673 C665 1.433 . S
C673 N675 1.384 . S
N674 C670 1.427 . S
N674 C671 1.384 . S
N675 C667 1.427 . S
N675 C673 1.384 . S
H676 C682 0.930 . S
H677 C686 0.930 . S
H678 C691 0.929 . S
H679 C689 0.929 . S
H680 C684 0.929 . S
H681 C690 0.929 . S
C682 H676 0.930 . S
C682 C683 1.367 . S
C682 C690 1.378 . S
C683 C682 1.367 . S
C683 C691 1.433 . S
C684 H680 0.929 . S
C684 C686 1.378 . S
C684 C688 1.350 . S
C685 C688 1.463 . S
C685 C690 1.350 . S
C685 N693 1.427 . S
C686 H677 0.930 . S
C686 C684 1.378 . S
C686 C687 1.367 . S
C687 C686 1.367 . S
C687 C689 1.433 . S
C688 C684 1.350 . S
C688 C685 1.463 . S
C688 N692 1.427 . S
C689 H679 0.929 . S
C689 C687 1.433 . S
C689 N692 1.384 . S
C690 H681 0.929 . S
C690 C682 1.378 . S
C690 C685 1.350 . S
C691 H678 0.929 . S
C691 C683 1.433 . S
C691 N693 1.384 . S
N692 C688 1.427 . S
N692 C689 1.384 . S
N693 C685 1.427 . S
N693 C691 1.384 . S
H694 C700 0.930 . S
H695 C704 0.930 . S
H696 C709 0.929 . S
H697 C707 0.929 . S
H698 C702 0.929 . S
H699 C708 0.929 . S
C700 H694 0.930 . S
C700 C701 1.367 . S
C700 C708 1.378 . S
C701 C700 1.367 . S
C701 C709 1.433 . S
C702 H698 0.929 . S
C702 C704 1.378 . S
C702 C706 1.350 . S
C703 C706 1.463 . S
C703 C708 1.350 . S
C703 N711 1.427 . S
C704 H695 0.930 . S
C704 C702 1.378 . S
C704 C705 1.367 . S
C705 C704 1.367 . S
C705 C707 1.433 . S
C706 C702 1.350 . S
C706 C703 1.463 . S
C706 N710 1.427 . S
C707 H697 0.929 . S
C707 C705 1.433 . S
C707 N710 1.384 . S
C708 H699 0.929 . S
C708 C700 1.378 . S
C708 C703 1.350 . S
C709 H696 0.929 . S
C709 C701 1.433 . S
C709 N711 1.384 . S
N710 C706 1.427 . S
N710 C707 1.384 . S
N711 C703 1.427 . S
N711 C709 1.384 . S
H712 C718 0.930 . S
H713 C722 0.930 . S
H714 C727 0.929 . S
H715 C725 0.929 . S
H716 C720 0.929 . S
H717 C726 0.929 . S
C718 H712 0.930 . S
C718 C719 1.367 . S
C718 C726 1.378 . S
C719 C718 1.367 . S
C719 C727 1.433 . S
C720 H716 0.929 . S
C720 C722 1.378 . S
C720 C724 1.350 . S
C721 C724 1.463 . S
C721 C726 1.350 . S
C721 N729 1.427 . S
C722 H713 0.930 . S
C722 C720 1.378 . S
C722 C723 1.367 . S
C723 C722 1.367 . S
C723 C725 1.433 . S
C724 C720 1.350 . S
C724 C721 1.463 . S
C724 N728 1.427 . S
C725 H715 0.929 . S
C725 C723 1.433 . S
C725 N728 1.384 . S
C726 H717 0.929 . S
C726 C718 1.378 . S
C726 C721 1.350 . S
C727 H714 0.929 . S
C727 C719 1.433 . S
C727 N729 1.384 . S
N728 C724 1.427 . S
N728 C725 1.384 . S
N729 C721 1.427 . S
N729 C727 1.384 . S
H730 C736 0.930 . S
H731 C740 0.930 . S
H732 C745 0.929 . S
H733 C743 0.929 . S
H734 C738 0.929 . S
H735 C744 0.929 . S
C736 H730 0.930 . S
C736 C737 1.367 . S
C736 C744 1.378 . S
C737 C736 1.367 . S
C737 C745 1.433 . S
C738 H734 0.929 . S
C738 C740 1.378 . S
C738 C742 1.350 . S
C739 C742 1.463 . S
C739 C744 1.350 . S
C739 N747 1.427 . S
C740 H731 0.930 . S
C740 C738 1.378 . S
C740 C741 1.367 . S
C741 C740 1.367 . S
C741 C743 1.433 . S
C742 C738 1.350 . S
C742 C739 1.463 . S
C742 N746 1.427 . S
C743 H733 0.929 . S
C743 C741 1.433 . S
C743 N746 1.384 . S
C744 H735 0.929 . S
C744 C736 1.378 . S
C744 C739 1.350 . S
C745 H732 0.929 . S
C745 C737 1.433 . S
C745 N747 1.384 . S
N746 C742 1.427 . S
N746 C743 1.384 . S
N747 C739 1.427 . S
N747 C745 1.384 . S
H748 C754 0.930 . S
H749 C758 0.930 . S
H750 C763 0.929 . S
H751 C761 0.929 . S
H752 C756 0.929 . S
H753 C762 0.929 . S
C754 H748 0.930 . S
C754 C755 1.367 . S
C754 C762 1.378 . S
C755 C754 1.367 . S
C755 C763 1.433 . S
C756 H752 0.929 . S
C756 C758 1.378 . S
C756 C760 1.350 . S
C757 C760 1.463 . S
C757 C762 1.350 . S
C757 N765 1.427 . S
C758 H749 0.930 . S
C758 C756 1.378 . S
C758 C759 1.367 . S
C759 C758 1.367 . S
C759 C761 1.433 . S
C760 C756 1.350 . S
C760 C757 1.463 . S
C760 N764 1.427 . S
C761 H751 0.929 . S
C761 C759 1.433 . S
C761 N764 1.384 . S
C762 H753 0.929 . S
C762 C754 1.378 . S
C762 C757 1.350 . S
C763 H750 0.929 . S
C763 C755 1.433 . S
C763 N765 1.384 . S
N764 C760 1.427 . S
N764 C761 1.384 . S
N765 C757 1.427 . S
N765 C763 1.384 . S
H766 C772 0.930 . S
H767 C776 0.930 . S
H768 C781 0.929 . S
H769 C779 0.929 . S
H770 C774 0.929 . S
H771 C780 0.929 . S
C772 H766 0.930 . S
C772 C773 1.367 . S
C772 C780 1.378 . S
C773 C772 1.367 . S
C773 C781 1.433 . S
C774 H770 0.929 . S
C774 C776 1.378 . S
C774 C778 1.350 . S
C775 C778 1.463 . S
C775 C780 1.350 . S
C775 N783 1.427 . S
C776 H767 0.930 . S
C776 C774 1.378 . S
C776 C777 1.367 . S
C777 C776 1.367 . S
C777 C779 1.433 . S
C778 C774 1.350 . S
C778 C775 1.463 . S
C778 N782 1.427 . S
C779 H769 0.929 . S
C779 C777 1.433 . S
C779 N782 1.384 . S
C780 H771 0.929 . S
C780 C772 1.378 . S
C780 C775 1.350 . S
C781 H768 0.929 . S
C781 C773 1.433 . S
C781 N783 1.384 . S
N782 C778 1.427 . S
N782 C779 1.384 . S
N783 C775 1.427 . S
N783 C781 1.384 . S
H784 C790 0.930 . S
H785 C794 0.930 . S
H786 C799 0.929 . S
H787 C797 0.929 . S
H788 C792 0.929 . S
H789 C798 0.929 . S
C790 H784 0.930 . S
C790 C791 1.367 . S
C790 C798 1.378 . S
C791 C790 1.367 . S
C791 C799 1.433 . S
C792 H788 0.929 . S
C792 C794 1.378 . S
C792 C796 1.350 . S
C793 C796 1.463 . S
C793 C798 1.350 . S
C793 N801 1.427 . S
C794 H785 0.930 . S
C794 C792 1.378 . S
C794 C795 1.367 . S
C795 C794 1.367 . S
C795 C797 1.433 . S
C796 C792 1.350 . S
C796 C793 1.463 . S
C796 N800 1.427 . S
C797 H787 0.929 . S
C797 C795 1.433 . S
C797 N800 1.384 . S
C798 H789 0.929 . S
C798 C790 1.378 . S
C798 C793 1.350 . S
C799 H786 0.929 . S
C799 C791 1.433 . S
C799 N801 1.384 . S
N800 C796 1.427 . S
N800 C797 1.384 . S
N801 C793 1.427 . S
N801 C799 1.384 . S
H802 C808 0.930 . S
H803 C812 0.930 . S
H804 C817 0.929 . S
H805 C815 0.929 . S
H806 C810 0.929 . S
H807 C816 0.929 . S
C808 H802 0.930 . S
C808 C809 1.367 . S
C808 C816 1.378 . S
C809 C808 1.367 . S
C809 C817 1.433 . S
C810 H806 0.929 . S
C810 C812 1.378 . S
C810 C814 1.350 . S
C811 C814 1.463 . S
C811 C816 1.350 . S
C811 N819 1.427 . S
C812 H803 0.930 . S
C812 C810 1.378 . S
C812 C813 1.367 . S
C813 C812 1.367 . S
C813 C815 1.433 . S
C814 C810 1.350 . S
C814 C811 1.463 . S
C814 N818 1.427 . S
C815 H805 0.929 . S
C815 C813 1.433 . S
C815 N818 1.384 . S
C816 H807 0.929 . S
C816 C808 1.378 . S
C816 C811 1.350 . S
C817 H804 0.929 . S
C817 C809 1.433 . S
C817 N819 1.384 . S
N818 C814 1.427 . S
N818 C815 1.384 . S
N819 C811 1.427 . S
N819 C817 1.384 . S
H820 C826 0.930 . S
H821 C830 0.930 . S
H822 C835 0.929 . S
H823 C833 0.929 . S
H824 C828 0.929 . S
H825 C834 0.929 . S
C826 H820 0.930 . S
C826 C827 1.367 . S
C826 C834 1.378 . S
C827 C826 1.367 . S
C827 C835 1.433 . S
C828 H824 0.929 . S
C828 C830 1.378 . S
C828 C832 1.350 . S
C829 C832 1.463 . S
C829 C834 1.350 . S
C829 N837 1.427 . S
C830 H821 0.930 . S
C830 C828 1.378 . S
C830 C831 1.367 . S
C831 C830 1.367 . S
C831 C833 1.433 . S
C832 C828 1.350 . S
C832 C829 1.463 . S
C832 N836 1.427 . S
C833 H823 0.929 . S
C833 C831 1.433 . S
C833 N836 1.384 . S
C834 H825 0.929 . S
C834 C826 1.378 . S
C834 C829 1.350 . S
C835 H822 0.929 . S
C835 C827 1.433 . S
C835 N837 1.384 . S
N836 C832 1.427 . S
N836 C833 1.384 . S
N837 C829 1.427 . S
N837 C835 1.384 . S
H838 C844 0.930 . S
H839 C848 0.930 . S
H840 C853 0.929 . S
H841 C851 0.929 . S
H842 C846 0.929 . S
H843 C852 0.929 . S
C844 H838 0.930 . S
C844 C845 1.367 . S
C844 C852 1.378 . S
C845 C844 1.367 . S
C845 C853 1.433 . S
C846 H842 0.929 . S
C846 C848 1.378 . S
C846 C850 1.350 . S
C847 C850 1.463 . S
C847 C852 1.350 . S
C847 N855 1.427 . S
C848 H839 0.930 . S
C848 C846 1.378 . S
C848 C849 1.367 . S
C849 C848 1.367 . S
C849 C851 1.433 . S
C850 C846 1.350 . S
C850 C847 1.463 . S
C850 N854 1.427 . S
C851 H841 0.929 . S
C851 C849 1.433 . S
C851 N854 1.384 . S
C852 H843 0.929 . S
C852 C844 1.378 . S
C852 C847 1.350 . S
C853 H840 0.929 . S
C853 C845 1.433 . S
C853 N855 1.384 . S
N854 C850 1.427 . S
N854 C851 1.384 . S
N855 C847 1.427 . S
N855 C853 1.384 . S
H856 C862 0.930 . S
H857 C866 0.930 . S
H858 C871 0.929 . S
H859 C869 0.929 . S
H860 C864 0.929 . S
H861 C870 0.929 . S
C862 H856 0.930 . S
C862 C863 1.367 . S
C862 C870 1.378 . S
C863 C862 1.367 . S
C863 C871 1.433 . S
C864 H860 0.929 . S
C864 C866 1.378 . S
C864 C868 1.350 . S
C865 C868 1.463 . S
C865 C870 1.350 . S
C865 N873 1.427 . S
C866 H857 0.930 . S
C866 C864 1.378 . S
C866 C867 1.367 . S
C867 C866 1.367 . S
C867 C869 1.433 . S
C868 C864 1.350 . S
C868 C865 1.463 . S
C868 N872 1.427 . S
C869 H859 0.929 . S
C869 C867 1.433 . S
C869 N872 1.384 . S
C870 H861 0.929 . S
C870 C862 1.378 . S
C870 C865 1.350 . S
C871 H858 0.929 . S
C871 C863 1.433 . S
C871 N873 1.384 . S
N872 C868 1.427 . S
N872 C869 1.384 . S
N873 C865 1.427 . S
N873 C871 1.384 . S
H874 C880 0.930 . S
H875 C884 0.930 . S
H876 C889 0.929 . S
H877 C887 0.929 . S
H878 C882 0.929 . S
H879 C888 0.929 . S
C880 H874 0.930 . S
C880 C881 1.367 . S
C880 C888 1.378 . S
C881 C880 1.367 . S
C881 C889 1.433 . S
C882 H878 0.929 . S
C882 C884 1.378 . S
C882 C886 1.350 . S
C883 C886 1.463 . S
C883 C888 1.350 . S
C883 N891 1.427 . S
C884 H875 0.930 . S
C884 C882 1.378 . S
C884 C885 1.367 . S
C885 C884 1.367 . S
C885 C887 1.433 . S
C886 C882 1.350 . S
C886 C883 1.463 . S
C886 N890 1.427 . S
C887 H877 0.929 . S
C887 C885 1.433 . S
C887 N890 1.384 . S
C888 H879 0.929 . S
C888 C880 1.378 . S
C888 C883 1.350 . S
C889 H876 0.929 . S
C889 C881 1.433 . S
C889 N891 1.384 . S
N890 C886 1.427 . S
N890 C887 1.384 . S
N891 C883 1.427 . S
N891 C889 1.384 . S
H892 C898 0.930 . S
H893 C902 0.930 . S
H894 C907 0.929 . S
H895 C905 0.929 . S
H896 C900 0.929 . S
H897 C906 0.929 . S
C898 H892 0.930 . S
C898 C899 1.367 . S
C898 C906 1.378 . S
C899 C898 1.367 . S
C899 C907 1.433 . S
C900 H896 0.929 . S
C900 C902 1.378 . S
C900 C904 1.350 . S
C901 C904 1.463 . S
C901 C906 1.350 . S
C901 N909 1.427 . S
C902 H893 0.930 . S
C902 C900 1.378 . S
C902 C903 1.367 . S
C903 C902 1.367 . S
C903 C905 1.433 . S
C904 C900 1.350 . S
C904 C901 1.463 . S
C904 N908 1.427 . S
C905 H895 0.929 . S
C905 C903 1.433 . S
C905 N908 1.384 . S
C906 H897 0.929 . S
C906 C898 1.378 . S
C906 C901 1.350 . S
C907 H894 0.929 . S
C907 C899 1.433 . S
C907 N909 1.384 . S
N908 C904 1.427 . S
N908 C905 1.384 . S
N909 C901 1.427 . S
N909 C907 1.384 . S
H910 C916 0.930 . S
H911 C920 0.930 . S
H912 C925 0.929 . S
H913 C923 0.929 . S
H914 C918 0.929 . S
H915 C924 0.929 . S
C916 H910 0.930 . S
C916 C917 1.367 . S
C916 C924 1.378 . S
C917 C916 1.367 . S
C917 C925 1.433 . S
C918 H914 0.929 . S
C918 C920 1.378 . S
C918 C922 1.350 . S
C919 C922 1.463 . S
C919 C924 1.350 . S
C919 N927 1.427 . S
C920 H911 0.930 . S
C920 C918 1.378 . S
C920 C921 1.367 . S
C921 C920 1.367 . S
C921 C923 1.433 . S
C922 C918 1.350 . S
C922 C919 1.463 . S
C922 N926 1.427 . S
C923 H913 0.929 . S
C923 C921 1.433 . S
C923 N926 1.384 . S
C924 H915 0.929 . S
C924 C916 1.378 . S
C924 C919 1.350 . S
C925 H912 0.929 . S
C925 C917 1.433 . S
C925 N927 1.384 . S
N926 C922 1.427 . S
N926 C923 1.384 . S
N927 C919 1.427 . S
N927 C925 1.384 . S
H928 C934 0.930 . S
H929 C938 0.930 . S
H930 C943 0.929 . S
H931 C941 0.929 . S
H932 C936 0.929 . S
H933 C942 0.929 . S
C934 H928 0.930 . S
C934 C935 1.367 . S
C934 C942 1.378 . S
C935 C934 1.367 . S
C935 C943 1.433 . S
C936 H932 0.929 . S
C936 C938 1.378 . S
C936 C940 1.350 . S
C937 C940 1.463 . S
C937 C942 1.350 . S
C937 N945 1.427 . S
C938 H929 0.930 . S
C938 C936 1.378 . S
C938 C939 1.367 . S
C939 C938 1.367 . S
C939 C941 1.433 . S
C940 C936 1.350 . S
C940 C937 1.463 . S
C940 N944 1.427 . S
C941 H931 0.929 . S
C941 C939 1.433 . S
C941 N944 1.384 . S
C942 H933 0.929 . S
C942 C934 1.378 . S
C942 C937 1.350 . S
C943 H930 0.929 . S
C943 C935 1.433 . S
C943 N945 1.384 . S
N944 C940 1.427 . S
N944 C941 1.384 . S
N945 C937 1.427 . S
N945 C943 1.384 . S
H946 C952 0.930 . S
H947 C956 0.930 . S
H948 C961 0.929 . S
H949 C959 0.929 . S
H950 C954 0.929 . S
H951 C960 0.929 . S
C952 H946 0.930 . S
C952 C953 1.367 . S
C952 C960 1.378 . S
C953 C952 1.367 . S
C953 C961 1.433 . S
C954 H950 0.929 . S
C954 C956 1.378 . S
C954 C958 1.350 . S
C955 C958 1.463 . S
C955 C960 1.350 . S
C955 N963 1.427 . S
C956 H947 0.930 . S
C956 C954 1.378 . S
C956 C957 1.367 . S
C957 C956 1.367 . S
C957 C959 1.433 . S
C958 C954 1.350 . S
C958 C955 1.463 . S
C958 N962 1.427 . S
C959 H949 0.929 . S
C959 C957 1.433 . S
C959 N962 1.384 . S
C960 H951 0.929 . S
C960 C952 1.378 . S
C960 C955 1.350 . S
C961 H948 0.929 . S
C961 C953 1.433 . S
C961 N963 1.384 . S
N962 C958 1.427 . S
N962 C959 1.384 . S
N963 C955 1.427 . S
N963 C961 1.384 . S
H964 C970 0.930 . S
H965 C974 0.930 . S
H966 C979 0.929 . S
H967 C977 0.929 . S
H968 C972 0.929 . S
H969 C978 0.929 . S
C970 H964 0.930 . S
C970 C971 1.367 . S
C970 C978 1.378 . S
C971 C970 1.367 . S
C971 C979 1.433 . S
C972 H968 0.929 . S
C972 C974 1.378 . S
C972 C976 1.350 . S
C973 C976 1.463 . S
C973 C978 1.350 . S
C973 N981 1.427 . S
C974 H965 0.930 . S
C974 C972 1.378 . S
C974 C975 1.367 . S
C975 C974 1.367 . S
C975 C977 1.433 . S
C976 C972 1.350 . S
C976 C973 1.463 . S
C976 N980 1.427 . S
C977 H967 0.929 . S
C977 C975 1.433 . S
C977 N980 1.384 . S
C978 H969 0.929 . S
C978 C970 1.378 . S
C978 C973 1.350 . S
C979 H966 0.929 . S
C979 C971 1.433 . S
C979 N981 1.384 . S
N980 C976 1.427 . S
N980 C977 1.384 . S
N981 C973 1.427 . S
N981 C979 1.384 . S
H982 C988 0.930 . S
H983 C992 0.930 . S
H984 C997 0.929 . S
H985 C995 0.929 . S
H986 C990 0.929 . S
H987 C996 0.929 . S
C988 H982 0.930 . S
C988 C989 1.367 . S
C988 C996 1.378 . S
C989 C988 1.367 . S
C989 C997 1.433 . S
C990 H986 0.929 . S
C990 C992 1.378 . S
C990 C994 1.350 . S
C991 C994 1.463 . S
C991 C996 1.350 . S
C991 N999 1.427 . S
C992 H983 0.930 . S
C992 C990 1.378 . S
C992 C993 1.367 . S
C993 C992 1.367 . S
C993 C995 1.433 . S
C994 C990 1.350 . S
C994 C991 1.463 . S
C994 N998 1.427 . S
C995 H985 0.929 . S
C995 C993 1.433 . S
C995 N998 1.384 . S
C996 H987 0.929 . S
C996 C988 1.378 . S
C996 C991 1.350 . S
C997 H984 0.929 . S
C997 C989 1.433 . S
C997 N999 1.384 . S
N998 C994 1.427 . S
N998 C995 1.384 . S
N999 C991 1.427 . S
N999 C997 1.384 . S
H1000 C1006 0.930 . S
H1001 C1010 0.930 . S
H1002 C1015 0.929 . S
H1003 C1013 0.929 . S
H1004 C1008 0.929 . S
H1005 C1014 0.929 . S
C1006 H1000 0.930 . S
C1006 C1007 1.367 . S
C1006 C1014 1.378 . S
C1007 C1006 1.367 . S
C1007 C1015 1.433 . S
C1008 H1004 0.929 . S
C1008 C1010 1.378 . S
C1008 C1012 1.350 . S
C1009 C1012 1.463 . S
C1009 C1014 1.350 . S
C1009 N1017 1.427 . S
C1010 H1001 0.930 . S
C1010 C1008 1.378 . S
C1010 C1011 1.367 . S
C1011 C1010 1.367 . S
C1011 C1013 1.433 . S
C1012 C1008 1.350 . S
C1012 C1009 1.463 . S
C1012 N1016 1.427 . S
C1013 H1003 0.929 . S
C1013 C1011 1.433 . S
C1013 N1016 1.384 . S
C1014 H1005 0.929 . S
C1014 C1006 1.378 . S
C1014 C1009 1.350 . S
C1015 H1002 0.929 . S
C1015 C1007 1.433 . S
C1015 N1017 1.384 . S
N1016 C1012 1.427 . S
N1016 C1013 1.384 . S
N1017 C1009 1.427 . S
N1017 C1015 1.384 . S
H1018 C1024 0.930 . S
H1019 C1028 0.930 . S
H1020 C1033 0.929 . S
H1021 C1031 0.929 . S
H1022 C1026 0.929 . S
H1023 C1032 0.929 . S
C1024 H1018 0.930 . S
C1024 C1025 1.367 . S
C1024 C1032 1.378 . S
C1025 C1024 1.367 . S
C1025 C1033 1.433 . S
C1026 H1022 0.929 . S
C1026 C1028 1.378 . S
C1026 C1030 1.350 . S
C1027 C1030 1.463 . S
C1027 C1032 1.350 . S
C1027 N1035 1.427 . S
C1028 H1019 0.930 . S
C1028 C1026 1.378 . S
C1028 C1029 1.367 . S
C1029 C1028 1.367 . S
C1029 C1031 1.433 . S
C1030 C1026 1.350 . S
C1030 C1027 1.463 . S
C1030 N1034 1.427 . S
C1031 H1021 0.929 . S
C1031 C1029 1.433 . S
C1031 N1034 1.384 . S
C1032 H1023 0.929 . S
C1032 C1024 1.378 . S
C1032 C1027 1.350 . S
C1033 H1020 0.929 . S
C1033 C1025 1.433 . S
C1033 N1035 1.384 . S
N1034 C1030 1.427 . S
N1034 C1031 1.384 . S
N1035 C1027 1.427 . S
N1035 C1033 1.384 . S
H1036 C1042 0.930 . S
H1037 C1046 0.930 . S
H1038 C1051 0.929 . S
H1039 C1049 0.929 . S
H1040 C1044 0.929 . S
H1041 C1050 0.929 . S
C1042 H1036 0.930 . S
C1042 C1043 1.367 . S
C1042 C1050 1.378 . S
C1043 C1042 1.367 . S
C1043 C1051 1.433 . S
C1044 H1040 0.929 . S
C1044 C1046 1.378 . S
C1044 C1048 1.350 . S
C1045 C1048 1.463 . S
C1045 C1050 1.350 . S
C1045 N1053 1.427 . S
C1046 H1037 0.930 . S
C1046 C1044 1.378 . S
C1046 C1047 1.367 . S
C1047 C1046 1.367 . S
C1047 C1049 1.433 . S
C1048 C1044 1.350 . S
C1048 C1045 1.463 . S
C1048 N1052 1.427 . S
C1049 H1039 0.929 . S
C1049 C1047 1.433 . S
C1049 N1052 1.384 . S
C1050 H1041 0.929 . S
C1050 C1042 1.378 . S
C1050 C1045 1.350 . S
C1051 H1038 0.929 . S
C1051 C1043 1.433 . S
C1051 N1053 1.384 . S
N1052 C1048 1.427 . S
N1052 C1049 1.384 . S
N1053 C1045 1.427 . S
N1053 C1051 1.384 . S
H1054 C1060 0.930 . S
H1055 C1064 0.930 . S
H1056 C1069 0.929 . S
H1057 C1067 0.929 . S
H1058 C1062 0.929 . S
H1059 C1068 0.929 . S
C1060 H1054 0.930 . S
C1060 C1061 1.367 . S
C1060 C1068 1.378 . S
C1061 C1060 1.367 . S
C1061 C1069 1.433 . S
C1062 H1058 0.929 . S
C1062 C1064 1.378 . S
C1062 C1066 1.350 . S
C1063 C1066 1.463 . S
C1063 C1068 1.350 . S
C1063 N1071 1.427 . S
C1064 H1055 0.930 . S
C1064 C1062 1.378 . S
C1064 C1065 1.367 . S
C1065 C1064 1.367 . S
C1065 C1067 1.433 . S
C1066 C1062 1.350 . S
C1066 C1063 1.463 . S
C1066 N1070 1.427 . S
C1067 H1057 0.929 . S
C1067 C1065 1.433 . S
C1067 N1070 1.384 . S
C1068 H1059 0.929 . S
C1068 C1060 1.378 . S
C1068 C1063 1.350 . S
C1069 H1056 0.929 . S
C1069 C1061 1.433 . S
C1069 N1071 1.384 . S
N1070 C1066 1.427 . S
N1070 C1067 1.384 . S
N1071 C1063 1.427 . S
N1071 C1069 1.384 . S
C507 C385 1.501 . S
C503 C36 1.501 . S
C525 C411 1.502 . S
C521 C93 1.499 . S
C543 C425 1.502 . S
C539 C132 1.501 . S
C561 C427 1.502 . S
C557 C174 1.495 . S
C575 C213 1.502 . S
C579 C424 1.500 . S
C597 C426 1.501 . S
C593 C285 1.497 . S
C615 C384 1.502 . S
C611 C324 1.501 . S
C633 C410 1.502 . S
C629 C366 1.495 . S
C651 C412 1.501 . S
C647 C357 1.501 . S
C669 C438 1.499 . S
C665 C222 1.495 . S
C687 C396 1.502 . S
C683 C276 1.501 . S
C705 C398 1.501 . S
C701 C333 1.496 . S
C723 C397 1.502 . S
C719 C84 1.501 . S
C741 C399 1.500 . S
C737 C141 1.499 . S
C759 C413 1.502 . S
C755 C165 1.502 . S
C777 C439 1.502 . S
C773 C45 1.495 . S
C795 C441 1.502 . S
C791 C372 1.504 . S
C809 C237 1.499 . S
C813 C467 1.504 . S
C827 C261 1.502 . S
C831 C480 1.503 . S
C845 C318 1.499 . S
C849 C483 1.502 . S
C863 C69 1.503 . S
C867 C481 1.498 . S
C881 C126 1.500 . S
C885 C482 1.497 . S
C899 C180 1.503 . S
C903 C440 1.500 . S
C921 C466 1.500 . S
C917 C30 1.496 . S
C939 C469 1.500 . S
C935 C21 1.498 . S
C953 C78 1.499 . S
C957 C494 1.499 . S
C971 C117 1.501 . S
C975 C452 1.497 . S
C989 C189 1.499 . S
C993 C454 1.497 . S
C1011 C453 1.500 . S
C1007 C228 1.506 . S
C1029 C455 1.501 . S
C1025 C270 1.498 . S
C1043 C309 1.501 . S
C1047 C468 1.502 . S
C1065 C495 1.500 . S
C1061 C381 1.502 . S
