# Generated by pormake.
# Topology nom, (4,4)-cn, num edge types: 1
# Building blocks:
#     Node 0, Type 0, BuildingBlock: NAWXER_clean_linker_0, # of connection points: 4
#     Node 1, Type 0, BuildingBlock: NAWXER_clean_linker_0, # of connection points: 4
#     Node 2, Type 0, BuildingBlock: NAWXER_clean_linker_0, # of connection points: 4
#     Node 3, Type 0, BuildingBlock: NAWXER_clean_linker_0, # of connection points: 4
#     Node 4, Type 0, BuildingBlock: NAWXER_clean_linker_0, # of connection points: 4
#     Node 5, Type 0, BuildingBlock: NAWXER_clean_linker_0, # of connection points: 4
#     Node 6, Type 1, BuildingBlock: QUQFOY_clean_sbu_1, # of connection points: 4
#     Node 7, Type 1, BuildingBlock: QUQFOY_clean_sbu_1, # of connection points: 4
#     Node 8, Type 1, BuildingBlock: QUQFOY_clean_sbu_1, # of connection points: 4
#     Node 9, Type 1, BuildingBlock: QUQFOY_clean_sbu_1, # of connection points: 4
#     Node 10, Type 1, BuildingBlock: QUQFOY_clean_sbu_1, # of connection points: 4
#     Node 11, Type 1, BuildingBlock: QUQFOY_clean_sbu_1, # of connection points: 4
#     Edge 12, Type (0, 1), BuildingBlock: TEMPAE_clean_linker_10, # of connection points: 2
#     Edge 13, Type (0, 1), BuildingBlock: TEMPAE_clean_linker_10, # of connection points: 2
#     Edge 14, Type (0, 1), BuildingBlock: TEMPAE_clean_linker_10, # of connection points: 2
#     Edge 15, Type (0, 1), BuildingBlock: TEMPAE_clean_linker_10, # of connection points: 2
#     Edge 16, Type (0, 1), BuildingBlock: TEMPAE_clean_linker_10, # of connection points: 2
#     Edge 17, Type (0, 1), BuildingBlock: TEMPAE_clean_linker_10, # of connection points: 2
#     Edge 18, Type (0, 1), BuildingBlock: TEMPAE_clean_linker_10, # of connection points: 2
#     Edge 19, Type (0, 1), BuildingBlock: TEMPAE_clean_linker_10, # of connection points: 2
#     Edge 20, Type (0, 1), BuildingBlock: TEMPAE_clean_linker_10, # of connection points: 2
#     Edge 21, Type (0, 1), BuildingBlock: TEMPAE_clean_linker_10, # of connection points: 2
#     Edge 22, Type (0, 1), BuildingBlock: TEMPAE_clean_linker_10, # of connection points: 2
#     Edge 23, Type (0, 1), BuildingBlock: TEMPAE_clean_linker_10, # of connection points: 2
#     Edge 24, Type (0, 1), BuildingBlock: TEMPAE_clean_linker_10, # of connection points: 2
#     Edge 25, Type (0, 1), BuildingBlock: TEMPAE_clean_linker_10, # of connection points: 2
#     Edge 26, Type (0, 1), BuildingBlock: TEMPAE_clean_linker_10, # of connection points: 2
#     Edge 27, Type (0, 1), BuildingBlock: TEMPAE_clean_linker_10, # of connection points: 2
#     Edge 28, Type (0, 1), BuildingBlock: TEMPAE_clean_linker_10, # of connection points: 2
#     Edge 29, Type (0, 1), BuildingBlock: TEMPAE_clean_linker_10, # of connection points: 2
#     Edge 30, Type (0, 1), BuildingBlock: TEMPAE_clean_linker_10, # of connection points: 2
#     Edge 31, Type (0, 1), BuildingBlock: TEMPAE_clean_linker_10, # of connection points: 2
#     Edge 32, Type (0, 1), BuildingBlock: TEMPAE_clean_linker_10, # of connection points: 2
#     Edge 33, Type (0, 1), BuildingBlock: TEMPAE_clean_linker_10, # of connection points: 2
#     Edge 34, Type (0, 1), BuildingBlock: TEMPAE_clean_linker_10, # of connection points: 2
#     Edge 35, Type (0, 1), BuildingBlock: TEMPAE_clean_linker_10, # of connection points: 2
# Relax obj value: 0.026
# Max RMSD: 0.132
# Mean RMSD: 0.124
data_MOF--net-nom--node1-QUQFOY_clean_sbu_1--node2-NAWXER_clean_linker_0--edge1-TEMPAE_clean_linker_10
_symmetry_space_group_name_H-M    P1
_symmetry_Int_Tables_number       1
_symmetry_cell_setting            triclinic
loop_
_symmetry_equiv_pos_as_xyz
'x, y, z'
_cell_length_a     55.173985
_cell_length_b     55.169505
_cell_length_c     55.451118
_cell_angle_alpha  89.962408
_cell_angle_beta   90.055111
_cell_angle_gamma 119.9884
loop_
_atom_site_label
_atom_site_type_symbol
_atom_site_fract_x
_atom_site_fract_y
_atom_site_fract_z
_atom_type_partial_charge
C0 C 0.91178 0.46493 0.32824 0.0
C1 C 0.90222 0.45152 0.35068 0.0
C2 C 0.93903 0.47393 0.32053 0.0
C3 C 0.95706 0.46832 0.33429 0.0
C4 C 0.92066 0.44673 0.36483 0.0
C5 C 0.94766 0.45488 0.35665 0.0
C6 C 0.98635 0.47837 0.32648 0.0
C7 C 0.93044 0.42406 0.26752 0.0
C8 C 0.93254 0.43889 0.24625 0.0
C9 C 0.9509 0.43615 0.28546 0.0
C10 C 0.97355 0.46347 0.28263 0.0
C11 C 0.95593 0.46571 0.24303 0.0
C12 C 0.97629 0.47781 0.26099 0.0
C13 C 0.99409 0.47765 0.30225 0.0
C14 C 0.12081 0.53356 0.30894 0.0
C15 C 0.12789 0.55296 0.29004 0.0
C16 C 0.0929 0.51685 0.31602 0.0
C17 C 0.07168 0.51973 0.30467 0.0
C18 C 0.10641 0.55467 0.27791 0.0
C19 C 0.07861 0.53817 0.28512 0.0
C20 C 0.04231 0.50435 0.31317 0.0
C21 C 0.09449 0.55962 0.37436 0.0
C22 C 0.09458 0.54409 0.39447 0.0
C23 C 0.07487 0.54674 0.3559 0.0
C24 C 0.05518 0.51804 0.35708 0.0
C25 C 0.07441 0.51546 0.39575 0.0
C26 C 0.0548 0.50264 0.37732 0.0
C27 C 0.03462 0.50392 0.33754 0.0
H28 H 0.89835 0.46872 0.31651 0.0
H29 H 0.94597 0.48558 0.30383 0.0
H30 H 0.91456 0.4372 0.38248 0.0
H31 H 0.96133 0.45091 0.36795 0.0
H32 H 0.91291 0.40318 0.27032 0.0
H33 H 0.94874 0.4244 0.30176 0.0
H34 H 0.95805 0.47777 0.22695 0.0
H35 H 0.99366 0.49883 0.25835 0.0
H36 H 0.13689 0.5315 0.31837 0.0
H37 H 0.08798 0.5021 0.33065 0.0
H38 H 0.1112 0.56959 0.26344 0.0
H39 H 0.06259 0.54061 0.27596 0.0
H40 H 0.10941 0.58179 0.37301 0.0
H41 H 0.07509 0.55917 0.34068 0.0
H42 H 0.07408 0.50279 0.41082 0.0
H43 H 0.03966 0.48051 0.37863 0.0
N44 N 0.00698 0.49101 0.34322 0.0
N45 N 0.02173 0.49114 0.29651 0.0
C46 C 0.41164 0.9085 0.50583 0.0
C47 C 0.41823 0.90026 0.52779 0.0
C48 C 0.42688 0.93618 0.49791 0.0
C49 C 0.45015 0.95616 0.51099 0.0
C50 C 0.44074 0.92069 0.54146 0.0
C51 C 0.45658 0.94821 0.53308 0.0
C52 C 0.46705 0.98558 0.50244 0.0
C53 C 0.47072 0.93213 0.44328 0.0
C54 C 0.45699 0.93255 0.42204 0.0
C55 C 0.47672 0.95197 0.46138 0.0
C56 C 0.46875 0.97235 0.45869 0.0
C57 C 0.44974 0.95348 0.41917 0.0
C58 C 0.45573 0.97327 0.43727 0.0
C59 C 0.47419 0.99298 0.47795 0.0
C60 C 0.54852 0.1186 0.48114 0.0
C61 C 0.53708 0.12605 0.46178 0.0
C62 C 0.53525 0.09105 0.48965 0.0
C63 C 0.50997 0.07058 0.47928 0.0
C64 C 0.51228 0.10531 0.45095 0.0
C65 C 0.49892 0.07786 0.45959 0.0
C66 C 0.49521 0.04134 0.48819 0.0
C67 C 0.49862 0.0962 0.5496 0.0
C68 C 0.51438 0.09538 0.56922 0.0
C69 C 0.48988 0.07604 0.53135 0.0
C70 C 0.49705 0.05495 0.53227 0.0
C71 C 0.52082 0.07374 0.57034 0.0
C72 C 0.51209 0.05366 0.55213 0.0
C73 C 0.48908 0.03405 0.51277 0.0
H74 H 0.3948 0.89362 0.49449 0.0
H75 H 0.42032 0.94183 0.48147 0.0
H76 H 0.44609 0.91562 0.55879 0.0
H77 H 0.47397 0.96331 0.54388 0.0
H78 H 0.47701 0.91659 0.44583 0.0
H79 H 0.48746 0.95132 0.47751 0.0
H80 H 0.43892 0.95422 0.40313 0.0
H81 H 0.44958 0.98894 0.43476 0.0
H82 H 0.56784 0.13405 0.48958 0.0
H83 H 0.54477 0.08577 0.5043 0.0
H84 H 0.50285 0.11045 0.43613 0.0
H85 H 0.47962 0.06237 0.45113 0.0
H86 H 0.49294 0.11233 0.54841 0.0
H87 H 0.47767 0.07703 0.51646 0.0
H88 H 0.53323 0.07269 0.58501 0.0
H89 H 0.51772 0.03748 0.55325 0.0
N90 N 0.47525 0.0065 0.51891 0.0
N91 N 0.48751 0.02049 0.47177 0.0
C92 C 0.59004 0.50377 0.60443 0.0
C93 C 0.57512 0.49111 0.5832 0.0
C94 C 0.57823 0.51259 0.62223 0.0
C95 C 0.55106 0.50832 0.61931 0.0
C96 C 0.54835 0.48776 0.58 0.0
C97 C 0.53648 0.49635 0.59785 0.0
C98 C 0.53758 0.51635 0.63831 0.0
C99 C 0.55038 0.44861 0.66914 0.0
C100 C 0.56481 0.45439 0.69126 0.0
C101 C 0.54117 0.46625 0.66017 0.0
C102 C 0.54743 0.49105 0.67233 0.0
C103 C 0.57018 0.47877 0.70386 0.0
C104 C 0.56171 0.49691 0.69443 0.0
C105 C 0.53744 0.50984 0.66305 0.0
C106 C 0.4599 0.54421 0.70756 0.0
C107 C 0.47636 0.56103 0.72677 0.0
C108 C 0.47158 0.53504 0.68993 0.0
C109 C 0.50002 0.54292 0.69102 0.0
C110 C 0.50464 0.56822 0.7281 0.0
C111 C 0.5163 0.55912 0.71045 0.0
C112 C 0.51302 0.53428 0.67214 0.0
C113 C 0.48389 0.58954 0.63917 0.0
C114 C 0.46466 0.57646 0.62029 0.0
C115 C 0.50025 0.5784 0.64748 0.0
C116 C 0.49701 0.55351 0.63753 0.0
C117 C 0.46267 0.55253 0.60945 0.0
C118 C 0.47869 0.54119 0.61799 0.0
C119 C 0.51202 0.53963 0.64733 0.0
H120 H 0.61089 0.50699 0.60718 0.0
H121 H 0.59022 0.52253 0.63834 0.0
H122 H 0.53628 0.47788 0.5639 0.0
H123 H 0.51558 0.49303 0.59511 0.0
H124 H 0.54608 0.43039 0.65859 0.0
H125 H 0.52896 0.46025 0.64373 0.0
H126 H 0.58053 0.48371 0.72122 0.0
H127 H 0.56622 0.51552 0.70453 0.0
H128 H 0.43794 0.53791 0.70629 0.0
H129 H 0.45846 0.52194 0.67539 0.0
H130 H 0.51792 0.58132 0.74257 0.0
H131 H 0.53823 0.56524 0.71169 0.0
H132 H 0.48608 0.60824 0.64761 0.0
H133 H 0.51501 0.58895 0.66196 0.0
H134 H 0.4479 0.54191 0.59498 0.0
H135 H 0.47601 0.52216 0.60983 0.0
N136 N 0.52443 0.5305 0.63145 0.0
N137 N 0.52563 0.5196 0.67901 0.0
C138 C 0.90867 0.41481 0.81222 0.0
C139 C 0.9004 0.4208 0.78999 0.0
C140 C 0.93593 0.43137 0.8208 0.0
C141 C 0.95534 0.45529 0.80806 0.0
C142 C 0.9204 0.44394 0.77666 0.0
C143 C 0.94743 0.46104 0.78566 0.0
C144 C 0.9842 0.47373 0.81732 0.0
C145 C 0.92667 0.47257 0.87531 0.0
C146 C 0.92791 0.45948 0.89669 0.0
C147 C 0.9471 0.47997 0.85749 0.0
C148 C 0.96892 0.47412 0.86062 0.0
C149 C 0.95014 0.45419 0.89991 0.0
C150 C 0.97053 0.46161 0.88212 0.0
C151 C 0.99048 0.48139 0.84185 0.0
C152 C 0.11493 0.56338 0.84091 0.0
C153 C 0.12342 0.55229 0.85982 0.0
C154 C 0.08732 0.54901 0.8325 0.0
C155 C 0.06799 0.52294 0.84243 0.0
C156 C 0.10359 0.527 0.87058 0.0
C157 C 0.07614 0.51251 0.86199 0.0
C158 C 0.03928 0.50614 0.83271 0.0
C159 C 0.10018 0.5183 0.77382 0.0
C160 C 0.09573 0.52856 0.75196 0.0
C161 C 0.07956 0.50762 0.79171 0.0
C162 C 0.05461 0.50832 0.78875 0.0
C163 C 0.06977 0.52716 0.74843 0.0
C164 C 0.04966 0.51748 0.76665 0.0
C165 C 0.03309 0.49912 0.80802 0.0
H166 H 0.89408 0.39746 0.82329 0.0
H167 H 0.94168 0.42538 0.8375 0.0
H168 H 0.91534 0.44888 0.75914 0.0
H169 H 0.96215 0.47893 0.77512 0.0
H170 H 0.91009 0.47736 0.87247 0.0
H171 H 0.94584 0.49024 0.84127 0.0
H172 H 0.95154 0.44386 0.91603 0.0
H173 H 0.98729 0.45707 0.88494 0.0
H174 H 0.12971 0.58303 0.83251 0.0
H175 H 0.08125 0.55789 0.81787 0.0
H176 H 0.10955 0.51784 0.88506 0.0
H177 H 0.06149 0.49263 0.87013 0.0
H178 H 0.11974 0.5189 0.77744 0.0
H179 H 0.08343 0.49925 0.80799 0.0
H180 H 0.0648 0.53359 0.73157 0.0
H181 H 0.03028 0.5175 0.76353 0.0
N182 N 0.00578 0.48325 0.80141 0.0
N183 N 0.01772 0.49687 0.84858 0.0
C184 C 0.47004 0.91072 0.98446 0.0
C185 C 0.45735 0.90189 0.96165 0.0
C186 C 0.47857 0.93765 0.99287 0.0
C187 C 0.47325 0.95605 0.97937 0.0
C188 C 0.45301 0.92079 0.94776 0.0
C189 C 0.4607 0.94743 0.95658 0.0
C190 C 0.48248 0.98492 0.98793 0.0
C191 C 0.42744 0.92685 0.04613 0.0
C192 C 0.44175 0.92975 0.06789 0.0
C193 C 0.43953 0.94723 0.0281 0.0
C194 C 0.46635 0.97055 0.03138 0.0
C195 C 0.46814 0.95363 0.0714 0.0
C196 C 0.48024 0.97386 0.05338 0.0
C197 C 0.48033 0.99168 0.01217 0.0
C198 C 0.5297 0.11777 0.00851 0.0
C199 C 0.54883 0.12527 0.0277 0.0
C200 C 0.51443 0.08992 0.00078 0.0
C201 C 0.5186 0.06931 0.01174 0.0
C202 C 0.55153 0.10423 0.03957 0.0
C203 C 0.53652 0.07655 0.03171 0.0
C204 C 0.50536 0.04035 0.00236 0.0
C205 C 0.55998 0.09856 0.94396 0.0
C206 C 0.54639 0.09517 0.92166 0.0
C207 C 0.54774 0.07831 0.96204 0.0
C208 C 0.52102 0.05485 0.95873 0.0
C209 C 0.52041 0.0707 0.91793 0.0
C210 C 0.50783 0.05094 0.93628 0.0
C211 C 0.50687 0.03365 0.97797 0.0
H212 H 0.47351 0.89692 0.99599 0.0
H213 H 0.48955 0.94403 0.00992 0.0
H214 H 0.44411 0.91531 0.92984 0.0
H215 H 0.45698 0.96141 0.94548 0.0
H216 H 0.40689 0.90888 0.04307 0.0
H217 H 0.42809 0.94461 0.01151 0.0
H218 H 0.47983 0.95633 0.08785 0.0
H219 H 0.50087 0.99175 0.05637 0.0
H220 H 0.52693 0.1335 0.99924 0.0
H221 H 0.50008 0.08466 0.98577 0.0
H222 H 0.56627 0.10935 0.05425 0.0
H223 H 0.53986 0.06096 0.0406 0.0
H224 H 0.57993 0.11703 0.94772 0.0
H225 H 0.55912 0.08124 0.97871 0.0
H226 H 0.50967 0.06663 0.90079 0.0
H227 H 0.48756 0.03265 0.93298 0.0
N228 N 0.49527 0.00621 0.97179 0.0
N229 N 0.49222 0.01908 0.01842 0.0
C230 C 0.50633 0.60898 0.17094 0.0
C231 C 0.48548 0.59861 0.18882 0.0
C232 C 0.51769 0.59288 0.16273 0.0
C233 C 0.50816 0.56589 0.17195 0.0
C234 C 0.47655 0.57192 0.19856 0.0
C235 C 0.48789 0.55575 0.19025 0.0
C236 C 0.51982 0.54855 0.16299 0.0
C237 C 0.47251 0.55851 0.10183 0.0
C238 C 0.48903 0.57286 0.08176 0.0
C239 C 0.48324 0.54908 0.12008 0.0
C240 C 0.51088 0.55429 0.11885 0.0
C241 C 0.51647 0.5775 0.0803 0.0
C242 C 0.52725 0.56823 0.09865 0.0
C243 C 0.52258 0.54457 0.13817 0.0
C244 C 0.56783 0.46469 0.13994 0.0
C245 C 0.58953 0.47777 0.12299 0.0
C246 C 0.55306 0.47775 0.14764 0.0
C247 C 0.56014 0.50441 0.13891 0.0
C248 C 0.59566 0.50384 0.11344 0.0
C249 C 0.58105 0.51698 0.12129 0.0
C250 C 0.54613 0.51951 0.14802 0.0
C251 C 0.59171 0.50827 0.21023 0.0
C252 C 0.57391 0.49188 0.22899 0.0
C253 C 0.58187 0.51882 0.19214 0.0
C254 C 0.55389 0.51269 0.19221 0.0
C255 C 0.54616 0.48647 0.22937 0.0
C256 C 0.53629 0.49687 0.21119 0.0
C257 C 0.54286 0.52301 0.17286 0.0
H258 H 0.51413 0.62973 0.1635 0.0
H259 H 0.53401 0.60158 0.14919 0.0
H260 H 0.46049 0.56335 0.21232 0.0
H261 H 0.48047 0.53511 0.19782 0.0
H262 H 0.45111 0.55413 0.10321 0.0
H263 H 0.46984 0.53754 0.13507 0.0
H264 H 0.52972 0.58861 0.0651 0.0
H265 H 0.54854 0.57227 0.0972 0.0
H266 H 0.56235 0.44439 0.1473 0.0
H267 H 0.53638 0.46719 0.16067 0.0
H268 H 0.61239 0.51453 0.10047 0.0
H269 H 0.58668 0.53741 0.11412 0.0
H270 H 0.61333 0.51321 0.20972 0.0
H271 H 0.59611 0.53172 0.17809 0.0
H272 H 0.53191 0.47377 0.2435 0.0
H273 H 0.51472 0.4921 0.21172 0.0
N274 N 0.52975 0.53732 0.17937 0.0
N275 N 0.53593 0.53051 0.13166 0.0
O276 O 0.61596 0.39093 0.43694 0.0
Cd277 Cd 0.61986 0.37226 0.40612 0.0
Cd278 Cd 0.6714 0.41658 0.4061 0.0
O279 O 0.65997 0.42448 0.43925 0.0
O280 O 0.58848 0.33291 0.40787 0.0
O281 O 0.63302 0.34437 0.40927 0.0
C282 C 0.60693 0.32523 0.41017 0.0
C283 C 0.7126 0.4152 0.40217 0.0
C284 C 0.63538 0.41183 0.44792 0.0
C285 C 0.63432 0.41235 0.36495 0.0
O286 O 0.65728 0.42765 0.37592 0.0
O287 O 0.61681 0.3884 0.37332 0.0
O288 O 0.71299 0.4385 0.40566 0.0
O289 O 0.68867 0.39239 0.40126 0.0
O290 O 0.23623 0.59188 0.59984 0.0
Cd291 Cd 0.26273 0.6054 0.57064 0.0
Cd292 Cd 0.25981 0.65145 0.57623 0.0
O293 O 0.2434 0.6337 0.60952 0.0
O294 O 0.28102 0.58215 0.57009 0.0
O295 O 0.3042 0.62795 0.57614 0.0
C296 C 0.30437 0.60467 0.57465 0.0
C297 C 0.29554 0.69789 0.57365 0.0
C298 C 0.23295 0.60784 0.61428 0.0
C299 C 0.23252 0.61651 0.53209 0.0
O300 O 0.23442 0.63578 0.54595 0.0
O301 O 0.24465 0.60284 0.53764 0.0
O302 O 0.27035 0.69157 0.57913 0.0
O303 O 0.30072 0.67777 0.57019 0.0
O304 O 0.63731 0.23089 0.76755 0.0
Cd305 Cd 0.65316 0.25786 0.73869 0.0
Cd306 Cd 0.61117 0.26634 0.74771 0.0
O307 O 0.61137 0.2483 0.78047 0.0
O308 O 0.69328 0.26892 0.73453 0.0
O309 O 0.67913 0.29823 0.74642 0.0
C310 C 0.69939 0.29359 0.74169 0.0
C311 C 0.61117 0.30848 0.74549 0.0
C312 C 0.62165 0.2324 0.78354 0.0
C313 C 0.60759 0.23519 0.70253 0.0
O314 O 0.59386 0.24032 0.71813 0.0
O315 O 0.63327 0.24325 0.70613 0.0
O316 O 0.58933 0.28584 0.75259 0.0
O317 O 0.63351 0.30747 0.74051 0.0
O318 O 0.42545 0.65382 0.9327 0.0
Cd319 Cd 0.41439 0.66838 0.90276 0.0
Cd320 Cd 0.36763 0.61873 0.90514 0.0
O321 O 0.38472 0.6152 0.93719 0.0
O322 O 0.43823 0.70992 0.90229 0.0
O323 O 0.39243 0.68781 0.90868 0.0
C324 C 0.4159 0.71102 0.90698 0.0
C325 C 0.32174 0.61005 0.90322 0.0
C326 C 0.40954 0.63166 0.94446 0.0
C327 C 0.40387 0.62942 0.86163 0.0
O328 O 0.38299 0.61159 0.87374 0.0
O329 O 0.41865 0.6543 0.8694 0.0
O330 O 0.32715 0.58995 0.90532 0.0
O331 O 0.34257 0.63539 0.90308 0.0
O332 O 0.77971 0.37064 0.04096 0.0
Cd333 Cd 0.75632 0.35359 0.07173 0.0
Cd334 Cd 0.76336 0.40483 0.07658 0.0
O335 O 0.78303 0.41205 0.04356 0.0
O336 O 0.73714 0.31234 0.06717 0.0
O337 O 0.71443 0.33579 0.07023 0.0
C338 C 0.7137 0.31223 0.06714 0.0
C339 C 0.7281 0.41585 0.08215 0.0
C340 C 0.7882 0.39498 0.03247 0.0
C341 C 0.78877 0.3857 0.1149 0.0
O342 O 0.78575 0.40555 0.10666 0.0
O343 O 0.7777 0.36229 0.10403 0.0
O344 O 0.75413 0.43502 0.08163 0.0
O345 O 0.72201 0.3902 0.0791 0.0
O346 O 0.41022 0.78948 0.21245 0.0
Cd347 Cd 0.40947 0.76785 0.24305 0.0
Cd348 Cd 0.35775 0.76 0.24695 0.0
O349 O 0.36656 0.78036 0.21415 0.0
O350 O 0.4402 0.75924 0.23904 0.0
O351 O 0.39549 0.7266 0.2408 0.0
C352 C 0.42134 0.7331 0.23832 0.0
C353 C 0.31606 0.71779 0.25189 0.0
C354 C 0.39013 0.79162 0.20356 0.0
C355 C 0.39855 0.79313 0.28628 0.0
O356 O 0.3743 0.78421 0.27741 0.0
O357 O 0.41595 0.78801 0.27576 0.0
O358 O 0.3165 0.74137 0.25113 0.0
O359 O 0.33949 0.71811 0.24937 0.0
C360 C 0.177 0.58731 0.30228 0.0
C361 C 0.15758 0.57279 0.28393 0.0
C362 C 0.20412 0.60892 0.2968 0.0
C363 C 0.21198 0.61611 0.27239 0.0
C364 C 0.19298 0.60045 0.25378 0.0
C365 C 0.16597 0.57901 0.25978 0.0
C366 C 0.22375 0.62515 0.31717 0.0
C367 C 0.20064 0.60731 0.22754 0.0
C368 C 0.26462 0.69214 0.25948 0.0
C369 C 0.28946 0.69142 0.25623 0.0
C370 C 0.23932 0.66774 0.26458 0.0
C371 C 0.23876 0.64187 0.26643 0.0
C372 C 0.26365 0.64086 0.26286 0.0
C373 C 0.28876 0.6657 0.25782 0.0
C374 C 0.21323 0.66972 0.26825 0.0
C375 C 0.26378 0.61362 0.26462 0.0
H376 H 0.17056 0.58277 0.32098 0.0
H377 H 0.15113 0.56755 0.24554 0.0
H378 H 0.24458 0.6272 0.31425 0.0
H379 H 0.22679 0.6466 0.31769 0.0
H380 H 0.21561 0.6151 0.33497 0.0
H381 H 0.18478 0.59124 0.21533 0.0
H382 H 0.20245 0.6278 0.22323 0.0
H383 H 0.22126 0.60919 0.2238 0.0
H384 H 0.26493 0.71191 0.25828 0.0
H385 H 0.30788 0.66498 0.25533 0.0
H386 H 0.20476 0.66235 0.28662 0.0
H387 H 0.19684 0.65596 0.2552 0.0
H388 H 0.21719 0.69141 0.26599 0.0
H389 H 0.25737 0.60475 0.283 0.0
H390 H 0.2847 0.61624 0.26069 0.0
H391 H 0.24836 0.59813 0.25181 0.0
C392 C 0.55925 0.17744 0.46981 0.0
C393 C 0.55046 0.15546 0.45322 0.0
C394 C 0.57009 0.20516 0.46198 0.0
C395 C 0.57235 0.21105 0.43695 0.0
C396 C 0.56436 0.18905 0.42012 0.0
C397 C 0.55341 0.1615 0.42846 0.0
C398 C 0.57818 0.228 0.4805 0.0
C399 C 0.5667 0.19452 0.3933 0.0
C400 C 0.56979 0.27586 0.41815 0.0
C401 C 0.59823 0.29558 0.41512 0.0
C402 C 0.56111 0.24819 0.42484 0.0
C403 C 0.58135 0.23993 0.42846 0.0
C404 C 0.61005 0.25948 0.42475 0.0
C405 C 0.61817 0.28714 0.41819 0.0
C406 C 0.53031 0.22799 0.42866 0.0
C407 C 0.63219 0.25135 0.42824 0.0
H408 H 0.55676 0.17284 0.48895 0.0
H409 H 0.54697 0.14459 0.41558 0.0
H410 H 0.59994 0.24511 0.47736 0.0
H411 H 0.56434 0.23715 0.47873 0.0
H412 H 0.57656 0.22019 0.49924 0.0
H413 H 0.56148 0.17547 0.38265 0.0
H414 H 0.55231 0.20214 0.38786 0.0
H415 H 0.58823 0.21114 0.38862 0.0
H416 H 0.55421 0.28217 0.41583 0.0
H417 H 0.64019 0.30224 0.41585 0.0
H418 H 0.52654 0.22083 0.44769 0.0
H419 H 0.52337 0.20919 0.41719 0.0
H420 H 0.51718 0.23749 0.42442 0.0
H421 H 0.63253 0.24564 0.44737 0.0
H422 H 0.6534 0.26852 0.42329 0.0
H423 H 0.62722 0.23267 0.41718 0.0
C424 C 0.44065 0.58895 0.58834 0.0
C425 C 0.44529 0.58641 0.61284 0.0
C426 C 0.41991 0.59503 0.58103 0.0
C427 C 0.40316 0.59823 0.59864 0.0
C428 C 0.40856 0.59685 0.62344 0.0
C429 C 0.42969 0.59111 0.63024 0.0
C430 C 0.4151 0.59679 0.55443 0.0
C431 C 0.391 0.59986 0.64279 0.0
C432 C 0.35607 0.62791 0.5823 0.0
C433 C 0.33016 0.60338 0.57926 0.0
C434 C 0.38023 0.62664 0.58809 0.0
C435 C 0.3783 0.60026 0.5912 0.0
C436 C 0.35228 0.57547 0.58781 0.0
C437 C 0.3286 0.57734 0.58175 0.0
C438 C 0.40772 0.6535 0.59123 0.0
C439 C 0.34927 0.5469 0.59113 0.0
H440 H 0.45291 0.5856 0.57487 0.0
H441 H 0.43306 0.5889 0.64919 0.0
H442 H 0.39479 0.57854 0.54904 0.0
H443 H 0.41395 0.61591 0.55048 0.0
H444 H 0.43187 0.59702 0.5432 0.0
H445 H 0.39933 0.60053 0.66118 0.0
H446 H 0.38992 0.61919 0.63989 0.0
H447 H 0.3693 0.58192 0.64183 0.0
H448 H 0.35744 0.64811 0.58034 0.0
H449 H 0.30866 0.55828 0.57951 0.0
H450 H 0.42391 0.65338 0.57947 0.0
H451 H 0.41506 0.65526 0.61012 0.0
H452 H 0.40603 0.67226 0.58689 0.0
H453 H 0.36373 0.54442 0.57883 0.0
H454 H 0.32761 0.52968 0.58759 0.0
H455 H 0.35509 0.54474 0.60984 0.0
C456 C 0.85572 0.37439 0.78652 0.0
C457 C 0.87113 0.40305 0.78089 0.0
C458 C 0.82776 0.3578 0.77926 0.0
C459 C 0.81506 0.36974 0.7651 0.0
C460 C 0.83064 0.39831 0.75854 0.0
C461 C 0.85824 0.41473 0.76689 0.0
C462 C 0.81167 0.32752 0.78709 0.0
C463 C 0.81809 0.4116 0.74283 0.0
C464 C 0.75012 0.31648 0.73146 0.0
C465 C 0.72876 0.31521 0.74598 0.0
C466 C 0.77835 0.33528 0.73673 0.0
C467 C 0.7853 0.35231 0.75758 0.0
C468 C 0.76372 0.35137 0.77208 0.0
C469 C 0.73565 0.33316 0.76583 0.0
C470 C 0.80072 0.33644 0.7203 0.0
C471 C 0.77023 0.36849 0.79487 0.0
H472 H 0.86543 0.36473 0.79666 0.0
H473 H 0.86949 0.43685 0.76268 0.0
H474 H 0.79245 0.3234 0.79689 0.0
H475 H 0.80499 0.31364 0.77107 0.0
H476 H 0.82421 0.32176 0.79898 0.0
H477 H 0.83367 0.43343 0.73773 0.0
H478 H 0.80935 0.39914 0.72612 0.0
H479 H 0.80058 0.41179 0.75244 0.0
H480 H 0.74473 0.30267 0.71602 0.0
H481 H 0.7191 0.33192 0.77721 0.0
H482 H 0.8125 0.32785 0.72976 0.0
H483 H 0.81591 0.35846 0.71548 0.0
H484 H 0.79182 0.3243 0.70345 0.0
H485 H 0.78135 0.36202 0.80777 0.0
H486 H 0.75107 0.36598 0.80375 0.0
H487 H 0.78433 0.39098 0.79089 0.0
C488 C 0.42622 0.85899 0.93677 0.0
C489 C 0.44929 0.87339 0.95229 0.0
C490 C 0.41888 0.83245 0.92758 0.0
C491 C 0.43424 0.81943 0.93478 0.0
C492 C 0.45717 0.83351 0.95072 0.0
C493 C 0.46476 0.86046 0.95882 0.0
C494 C 0.39482 0.81843 0.91002 0.0
C495 C 0.47374 0.82011 0.95928 0.0
C496 C 0.40221 0.74054 0.93076 0.0
C497 C 0.41776 0.73813 0.91192 0.0
C498 C 0.40682 0.76688 0.93806 0.0
C499 C 0.4267 0.79118 0.92559 0.0
C500 C 0.4411 0.78856 0.90554 0.0
C501 C 0.43689 0.76209 0.89926 0.0
C502 C 0.39172 0.76884 0.96002 0.0
C503 C 0.46167 0.81382 0.89121 0.0
H504 H 0.41369 0.86831 0.93183 0.0
H505 H 0.48309 0.87142 0.97016 0.0
H506 H 0.40197 0.81308 0.89318 0.0
H507 H 0.37803 0.79857 0.91777 0.0
H508 H 0.3858 0.83189 0.90535 0.0
H509 H 0.4897 0.83302 0.973 0.0
H510 H 0.45948 0.79923 0.96718 0.0
H511 H 0.48453 0.81688 0.9438 0.0
H512 H 0.38763 0.72198 0.9407 0.0
H513 H 0.44877 0.76014 0.88458 0.0
H514 H 0.38139 0.78119 0.95592 0.0
H515 H 0.40709 0.77992 0.97466 0.0
H516 H 0.37569 0.74792 0.96677 0.0
H517 H 0.45236 0.82697 0.88645 0.0
H518 H 0.46827 0.80786 0.87436 0.0
H519 H 0.48057 0.82685 0.90226 0.0
C520 C 0.61393 0.46472 0.09186 0.0
C521 C 0.60665 0.465 0.11604 0.0
C522 C 0.63196 0.45476 0.08534 0.0
C523 C 0.64312 0.44505 0.10346 0.0
C524 C 0.63518 0.4445 0.12782 0.0
C525 C 0.61697 0.45442 0.13381 0.0
C526 C 0.63975 0.45544 0.05915 0.0
C527 C 0.64679 0.4345 0.1477 0.0
C528 C 0.67769 0.4026 0.08644 0.0
C529 C 0.70611 0.42319 0.08675 0.0
C530 C 0.65685 0.40942 0.09155 0.0
C531 C 0.66468 0.43742 0.09722 0.0
C532 C 0.69331 0.45829 0.09734 0.0
C533 C 0.71364 0.45094 0.09204 0.0
C534 C 0.62651 0.38665 0.0911 0.0
C535 C 0.70252 0.48838 0.10339 0.0
H536 H 0.60572 0.47258 0.07804 0.0
H537 H 0.61165 0.45489 0.15255 0.0
H538 H 0.66234 0.47062 0.05669 0.0
H539 H 0.63618 0.43463 0.05348 0.0
H540 H 0.6276 0.46154 0.04709 0.0
H541 H 0.63714 0.4337 0.16547 0.0
H542 H 0.64332 0.41336 0.14343 0.0
H543 H 0.66972 0.44877 0.14916 0.0
H544 H 0.6717 0.38112 0.08233 0.0
H545 H 0.73554 0.46699 0.09235 0.0
H546 H 0.6146 0.39233 0.07839 0.0
H547 H 0.61713 0.38446 0.10922 0.0
H548 H 0.62385 0.36609 0.08564 0.0
H549 H 0.69274 0.49658 0.09074 0.0
H550 H 0.72561 0.50212 0.10249 0.0
H551 H 0.69545 0.48968 0.12182 0.0
C552 C 0.41416 0.85842 0.55014 0.0
C553 C 0.40162 0.8706 0.53633 0.0
C554 C 0.39871 0.83056 0.55812 0.0
C555 C 0.37029 0.81402 0.55136 0.0
C556 C 0.35753 0.82596 0.53728 0.0
C557 C 0.37311 0.85416 0.53043 0.0
C558 C 0.4128 0.81882 0.5738 0.0
C559 C 0.3274 0.80887 0.52923 0.0
C560 C 0.33558 0.73471 0.55034 0.0
C561 C 0.31718 0.72734 0.56988 0.0
C562 C 0.35351 0.76293 0.54436 0.0
C563 C 0.3537 0.78417 0.55887 0.0
C564 C 0.33635 0.77671 0.57954 0.0
C565 C 0.31783 0.74835 0.58449 0.0
C566 C 0.37096 0.76996 0.52174 0.0
C567 C 0.33672 0.79869 0.59599 0.0
H568 H 0.4362 0.87049 0.55456 0.0
H569 H 0.36273 0.86326 0.52045 0.0
H570 H 0.40053 0.80987 0.59055 0.0
H571 H 0.41358 0.80159 0.56423 0.0
H572 H 0.43447 0.83493 0.5788 0.0
H573 H 0.3211 0.82081 0.5171 0.0
H574 H 0.32408 0.78981 0.51961 0.0
H575 H 0.31337 0.80189 0.54514 0.0
H576 H 0.33481 0.71839 0.5389 0.0
H577 H 0.30366 0.74256 0.5997 0.0
H578 H 0.39324 0.78491 0.52581 0.0
H579 H 0.36384 0.78029 0.5086 0.0
H580 H 0.36947 0.7511 0.5131 0.0
H581 H 0.35856 0.81447 0.60077 0.0
H582 H 0.32477 0.78949 0.61287 0.0
H583 H 0.3274 0.80984 0.58659 0.0
C584 C 0.59816 0.44474 0.71514 0.0
C585 C 0.57369 0.4348 0.70121 0.0
C586 C 0.60655 0.42638 0.7245 0.0
C587 C 0.59069 0.39748 0.71911 0.0
C588 C 0.56616 0.3873 0.70495 0.0
C589 C 0.55768 0.40592 0.69665 0.0
C590 C 0.63236 0.43788 0.74015 0.0
C591 C 0.54889 0.35669 0.69838 0.0
C592 C 0.62309 0.35087 0.72106 0.0
C593 C 0.60957 0.33401 0.74109 0.0
C594 C 0.61791 0.37235 0.71411 0.0
C595 C 0.59955 0.37764 0.72806 0.0
C596 C 0.58747 0.36194 0.74931 0.0
C597 C 0.59218 0.3399 0.7553 0.0
C598 C 0.63054 0.38801 0.69095 0.0
C599 C 0.56861 0.3676 0.76516 0.0
H600 H 0.61104 0.46695 0.71859 0.0
H601 H 0.5383 0.39763 0.68662 0.0
H602 H 0.62723 0.42644 0.75756 0.0
H603 H 0.64854 0.43471 0.73122 0.0
H604 H 0.6414 0.46056 0.7439 0.0
H605 H 0.53129 0.35242 0.68608 0.0
H606 H 0.56229 0.3496 0.6895 0.0
H607 H 0.54017 0.34393 0.71492 0.0
H608 H 0.63632 0.34611 0.70992 0.0
H609 H 0.58186 0.32694 0.77089 0.0
H610 H 0.641 0.41092 0.69397 0.0
H611 H 0.61367 0.3826 0.67751 0.0
H612 H 0.64599 0.38289 0.68318 0.0
H613 H 0.57818 0.39037 0.76867 0.0
H614 H 0.56429 0.35644 0.7827 0.0
H615 H 0.54839 0.36066 0.75585 0.0
C616 C 0.16032 0.56867 0.89191 0.0
C617 C 0.15317 0.56589 0.86738 0.0
C618 C 0.18807 0.57852 0.89923 0.0
C619 C 0.20906 0.58545 0.88159 0.0
C620 C 0.20214 0.58376 0.85681 0.0
C621 C 0.17428 0.5741 0.85001 0.0
C622 C 0.19468 0.58039 0.92582 0.0
C623 C 0.22388 0.59073 0.83744 0.0
C624 C 0.28647 0.62569 0.89771 0.0
C625 C 0.29261 0.60396 0.89966 0.0
C626 C 0.25918 0.62 0.89247 0.0
C627 C 0.23766 0.59197 0.8889 0.0
C628 C 0.24363 0.56995 0.8914 0.0
C629 C 0.27097 0.57621 0.89685 0.0
C630 C 0.2535 0.64399 0.89023 0.0
C631 C 0.2213 0.53977 0.88764 0.0
H632 H 0.14407 0.56262 0.90538 0.0
H633 H 0.1688 0.57171 0.83103 0.0
H634 H 0.20028 0.56429 0.93066 0.0
H635 H 0.21298 0.60111 0.9302 0.0
H636 H 0.17671 0.57713 0.93717 0.0
H637 H 0.21557 0.59038 0.8191 0.0
H638 H 0.24231 0.61172 0.84066 0.0
H639 H 0.23127 0.57537 0.83799 0.0
H640 H 0.30307 0.6472 0.89992 0.0
H641 H 0.2755 0.55927 0.8983 0.0
H642 H 0.23573 0.64034 0.90198 0.0
H643 H 0.24744 0.64533 0.87141 0.0
H644 H 0.27202 0.66437 0.89514 0.0
H645 H 0.2034 0.53417 0.89992 0.0
H646 H 0.22921 0.52507 0.89086 0.0
H647 H 0.21321 0.5368 0.86891 0.0
C648 C 0.57372 0.16314 0.05842 0.0
C649 C 0.56779 0.15506 0.03417 0.0
C650 C 0.59504 0.19009 0.06474 0.0
C651 C 0.61086 0.20936 0.04636 0.0
C652 C 0.60377 0.20191 0.02186 0.0
C653 C 0.58229 0.17483 0.01606 0.0
C654 C 0.60176 0.1973 0.09107 0.0
C655 C 0.62013 0.22185 0.00172 0.0
C656 C 0.66153 0.28572 0.06162 0.0
C657 C 0.68703 0.2859 0.06291 0.0
C658 C 0.63641 0.26091 0.05652 0.0
C659 C 0.63688 0.23579 0.05259 0.0
C660 C 0.6625 0.23582 0.05421 0.0
C661 C 0.68721 0.26083 0.05936 0.0
C662 C 0.60945 0.26162 0.05501 0.0
C663 C 0.66392 0.20946 0.05018 0.0
H664 H 0.56228 0.14802 0.07248 0.0
H665 H 0.57797 0.16865 0.99729 0.0
H666 H 0.62194 0.19845 0.09544 0.0
H667 H 0.60419 0.21811 0.09503 0.0
H668 H 0.58534 0.18151 0.10307 0.0
H669 H 0.60992 0.2142 0.98389 0.0
H670 H 0.62262 0.24279 0.0051 0.0
H671 H 0.6414 0.22445 0.00094 0.0
H672 H 0.66123 0.30502 0.06434 0.0
H673 H 0.70678 0.26074 0.06035 0.0
H674 H 0.59374 0.24602 0.06755 0.0
H675 H 0.60065 0.25583 0.03654 0.0
H676 H 0.61245 0.28259 0.05942 0.0
H677 H 0.64992 0.193 0.06307 0.0
H678 H 0.68545 0.21297 0.05241 0.0
H679 H 0.65652 0.20135 0.03173 0.0
C680 C 0.46639 0.63051 0.1806 0.0
C681 C 0.47333 0.61581 0.19727 0.0
C682 C 0.45631 0.64805 0.18827 0.0
C683 C 0.45307 0.65099 0.21323 0.0
C684 C 0.45931 0.63564 0.23014 0.0
C685 C 0.46936 0.6182 0.22195 0.0
C686 C 0.44977 0.66397 0.16965 0.0
C687 C 0.45618 0.63829 0.2569 0.0
C688 C 0.45756 0.71932 0.2316 0.0
C689 C 0.42925 0.71151 0.23376 0.0
C690 C 0.46557 0.69964 0.22557 0.0
C691 C 0.44476 0.67143 0.22157 0.0
C692 C 0.41616 0.66322 0.22439 0.0
C693 C 0.40873 0.68338 0.23047 0.0
C694 C 0.4963 0.70923 0.22282 0.0
C695 C 0.39341 0.63331 0.22031 0.0
H696 H 0.46896 0.62836 0.16148 0.0
H697 H 0.47489 0.60707 0.23493 0.0
H698 H 0.42807 0.65985 0.17206 0.0
H699 H 0.46401 0.68679 0.17208 0.0
H700 H 0.45208 0.65829 0.15092 0.0
H701 H 0.46006 0.62351 0.26758 0.0
H702 H 0.47117 0.65993 0.26284 0.0
H703 H 0.43484 0.63435 0.26103 0.0
H704 H 0.47358 0.74098 0.23421 0.0
H705 H 0.38681 0.67718 0.23214 0.0
H706 H 0.50077 0.70634 0.20386 0.0
H707 H 0.502 0.69636 0.23431 0.0
H708 H 0.5099 0.73159 0.22775 0.0
H709 H 0.39354 0.62751 0.20117 0.0
H710 H 0.3723 0.62996 0.22467 0.0
H711 H 0.39731 0.61892 0.23149 0.0
C712 C 0.85847 0.41995 0.37442 0.0
C713 C 0.87353 0.44343 0.35948 0.0
C714 C 0.83178 0.41272 0.38317 0.0
C715 C 0.81936 0.42868 0.37611 0.0
C716 C 0.83409 0.45199 0.36068 0.0
C717 C 0.86113 0.45941 0.35303 0.0
C718 C 0.81704 0.38824 0.40021 0.0
C719 C 0.82136 0.46925 0.3523 0.0
C720 C 0.74082 0.39937 0.37907 0.0
C721 C 0.73892 0.41524 0.3979 0.0
C722 C 0.76684 0.40276 0.37223 0.0
C723 C 0.79123 0.42169 0.38516 0.0
C724 C 0.78897 0.43619 0.40531 0.0
C725 C 0.76289 0.43324 0.41111 0.0
C726 C 0.76847 0.38761 0.35017 0.0
C727 C 0.81427 0.45576 0.4201 0.0
H728 H 0.86742 0.40707 0.37929 0.0
H729 H 0.8726 0.47807 0.34217 0.0
H730 H 0.81203 0.39527 0.41729 0.0
H731 H 0.79693 0.37214 0.39225 0.0
H732 H 0.82986 0.3784 0.40448 0.0
H733 H 0.83462 0.48528 0.33876 0.0
H734 H 0.80045 0.4555 0.34423 0.0
H735 H 0.81838 0.48005 0.3679 0.0
H736 H 0.72224 0.38566 0.36874 0.0
H737 H 0.76129 0.44536 0.42578 0.0
H738 H 0.78056 0.37696 0.3541 0.0
H739 H 0.77965 0.40302 0.33559 0.0
H740 H 0.74743 0.37185 0.34343 0.0
H741 H 0.82681 0.44571 0.42462 0.0
H742 H 0.80838 0.46215 0.43711 0.0
H743 H 0.82787 0.47487 0.4095 0.0
C744 C 0.14378 0.57656 0.40843 0.0
C745 C 0.11571 0.5575 0.41398 0.0
C746 C 0.16411 0.58835 0.42667 0.0
C747 C 0.15621 0.58076 0.45101 0.0
C748 C 0.12785 0.56196 0.45675 0.0
C749 C 0.10795 0.55066 0.4382 0.0
C750 C 0.19412 0.60844 0.41986 0.0
C751 C 0.11858 0.55332 0.48249 0.0
C752 C 0.20942 0.58506 0.49674 0.0
C753 C 0.21483 0.60884 0.51012 0.0
C754 C 0.19095 0.57614 0.47707 0.0
C755 C 0.17766 0.59145 0.47047 0.0
C756 C 0.18375 0.61602 0.48333 0.0
C757 C 0.20218 0.62438 0.50306 0.0
C758 C 0.18491 0.54975 0.46387 0.0
C759 C 0.1702 0.63305 0.47665 0.0
H760 H 0.15002 0.58174 0.38975 0.0
H761 H 0.08624 0.53637 0.44268 0.0
H762 H 0.20219 0.62817 0.43024 0.0
H763 H 0.20737 0.59922 0.42452 0.0
H764 H 0.19654 0.61351 0.4003 0.0
H765 H 0.09563 0.53904 0.48398 0.0
H766 H 0.12936 0.5426 0.49007 0.0
H767 H 0.1245 0.57207 0.49377 0.0
H768 H 0.21908 0.57291 0.502 0.0
H769 H 0.20633 0.64286 0.51319 0.0
H770 H 0.18867 0.55395 0.44427 0.0
H771 H 0.16256 0.53366 0.46618 0.0
H772 H 0.19799 0.54102 0.47049 0.0
H773 H 0.17336 0.63848 0.4572 0.0
H774 H 0.17867 0.65268 0.48731 0.0
H775 H 0.14731 0.6205 0.47977 0.0
C776 C 0.53626 0.14563 0.5821 0.0
C777 C 0.5248 0.1173 0.58824 0.0
C778 C 0.54837 0.16666 0.59973 0.0
C779 C 0.54921 0.15916 0.62401 0.0
C780 C 0.53677 0.13057 0.63044 0.0
C781 C 0.52463 0.11001 0.6125 0.0
C782 C 0.5612 0.19692 0.59223 0.0
C783 C 0.5372 0.1217 0.65614 0.0
C784 C 0.60737 0.20896 0.66568 0.0
C785 C 0.59327 0.21809 0.68095 0.0
C786 C 0.59345 0.1905 0.64659 0.0
C787 C 0.56476 0.18107 0.64251 0.0
C788 C 0.55069 0.19114 0.65715 0.0
C789 C 0.56508 0.20945 0.67628 0.0
C790 C 0.60919 0.18018 0.63142 0.0
C791 C 0.5202 0.18182 0.65313 0.0
H792 H 0.53668 0.15146 0.56337 0.0
H793 H 0.51531 0.08814 0.61745 0.0
H794 H 0.55359 0.20796 0.60401 0.0
H795 H 0.58427 0.20753 0.59434 0.0
H796 H 0.55635 0.19913 0.57318 0.0
H797 H 0.52541 0.09859 0.65834 0.0
H798 H 0.55915 0.1296 0.66195 0.0
H799 H 0.52809 0.13092 0.66839 0.0
H800 H 0.62915 0.21554 0.66908 0.0
H801 H 0.55405 0.21653 0.68788 0.0
H802 H 0.60712 0.18369 0.61202 0.0
H803 H 0.60006 0.15731 0.63405 0.0
H804 H 0.63179 0.19071 0.63607 0.0
H805 H 0.51643 0.18459 0.63393 0.0
H806 H 0.51305 0.19357 0.66456 0.0
H807 H 0.50721 0.15921 0.65736 0.0
C808 C 0.44659 0.58157 0.73885 0.0
C809 C 0.46417 0.57108 0.74542 0.0
C810 C 0.43545 0.59166 0.75634 0.0
C811 C 0.44204 0.5912 0.78095 0.0
C812 C 0.45963 0.58046 0.78769 0.0
C813 C 0.47045 0.57052 0.76985 0.0
C814 C 0.4168 0.60298 0.74849 0.0
C815 C 0.46704 0.57949 0.81377 0.0
C816 C 0.4367 0.63913 0.82703 0.0
C817 C 0.41206 0.62056 0.83931 0.0
C818 C 0.44617 0.63011 0.80738 0.0
C819 C 0.43064 0.60186 0.79982 0.0
C820 C 0.40516 0.58332 0.81146 0.0
C821 C 0.39618 0.59288 0.83106 0.0
C822 C 0.4734 0.65053 0.79535 0.0
C823 C 0.38795 0.55307 0.80384 0.0
H824 H 0.44194 0.58235 0.71996 0.0
H825 H 0.48368 0.56206 0.77506 0.0
H826 H 0.39617 0.59128 0.75755 0.0
H827 H 0.42621 0.62522 0.75397 0.0
H828 H 0.41341 0.60153 0.72866 0.0
H829 H 0.48101 0.57053 0.81597 0.0
H830 H 0.47761 0.60089 0.82152 0.0
H831 H 0.44772 0.56669 0.8244 0.0
H832 H 0.44907 0.66057 0.8332 0.0
H833 H 0.37704 0.57839 0.84032 0.0
H834 H 0.47051 0.65043 0.77554 0.0
H835 H 0.4892 0.64407 0.7987 0.0
H836 H 0.48183 0.67223 0.8021 0.0
H837 H 0.38384 0.55164 0.78416 0.0
H838 H 0.36761 0.54195 0.81348 0.0
H839 H 0.39978 0.54208 0.80754 0.0
C840 C 0.91361 0.45524 0.94003 0.0
C841 C 0.90609 0.4512 0.91558 0.0
C842 C 0.89324 0.4464 0.95815 0.0
C843 C 0.86461 0.43334 0.95168 0.0
C844 C 0.85686 0.42972 0.92704 0.0
C845 C 0.8777 0.43865 0.90927 0.0
C846 C 0.90234 0.45065 0.98424 0.0
C847 C 0.82654 0.41593 0.91948 0.0
C848 C 0.81376 0.38617 0.99948 0.0
C849 C 0.80563 0.40397 0.01036 0.0
C850 C 0.83229 0.3952 0.97989 0.0
C851 C 0.84287 0.42266 0.97084 0.0
C852 C 0.83395 0.44038 0.9811 0.0
C853 C 0.81548 0.43084 0.00078 0.0
C854 C 0.84134 0.37569 0.96944 0.0
C855 C 0.84462 0.46972 0.97179 0.0
H856 H 0.93552 0.46536 0.94502 0.0
H857 H 0.87171 0.43518 0.89042 0.0
H858 H 0.89431 0.46294 0.99367 0.0
H859 H 0.89338 0.43009 0.99346 0.0
H860 H 0.92547 0.46168 0.98622 0.0
H861 H 0.82409 0.41601 0.8996 0.0
H862 H 0.81525 0.39393 0.92588 0.0
H863 H 0.81634 0.42678 0.9279 0.0
H864 H 0.80623 0.36534 0.00668 0.0
H865 H 0.80922 0.44471 0.00897 0.0
H866 H 0.86408 0.38443 0.97255 0.0
H867 H 0.83788 0.37375 0.94966 0.0
H868 H 0.82993 0.35447 0.97758 0.0
H869 H 0.86745 0.48254 0.97519 0.0
H870 H 0.83407 0.48008 0.98051 0.0
H871 H 0.84146 0.46938 0.95201 0.0
C872 C 0.41796 0.87936 0.08042 0.0
C873 C 0.42981 0.90767 0.08671 0.0
C874 C 0.409 0.85852 0.09824 0.0
C875 C 0.412 0.86625 0.12287 0.0
C876 C 0.42299 0.89468 0.12928 0.0
C877 C 0.43173 0.91503 0.11112 0.0
C878 C 0.39733 0.82841 0.09073 0.0
C879 C 0.42639 0.90375 0.15534 0.0
C880 C 0.37352 0.81304 0.17239 0.0
C881 C 0.39477 0.80866 0.18153 0.0
C882 C 0.37852 0.83105 0.15277 0.0
C883 C 0.40538 0.845 0.14206 0.0
C884 C 0.42661 0.83992 0.15064 0.0
C885 C 0.42105 0.82181 0.17024 0.0
C886 C 0.35533 0.83585 0.144 0.0
C887 C 0.45553 0.85436 0.13965 0.0
H888 H 0.41665 0.87357 0.06159 0.0
H889 H 0.44046 0.93684 0.11604 0.0
H890 H 0.41192 0.8211 0.09633 0.0
H891 H 0.37707 0.81485 0.09986 0.0
H892 H 0.39414 0.82559 0.07092 0.0
H893 H 0.43384 0.92645 0.15726 0.0
H894 H 0.4062 0.89179 0.16503 0.0
H895 H 0.44165 0.89919 0.16433 0.0
H896 H 0.35313 0.80291 0.18092 0.0
H897 H 0.43758 0.81849 0.17706 0.0
H898 H 0.35255 0.83249 0.12424 0.0
H899 H 0.36099 0.85785 0.14753 0.0
H900 H 0.33507 0.82181 0.15302 0.0
H901 H 0.45417 0.85079 0.11989 0.0
H902 H 0.4692 0.84695 0.14752 0.0
H903 H 0.46558 0.87728 0.14258 0.0
C904 C 0.57773 0.48168 0.27238 0.0
C905 C 0.58418 0.48041 0.24813 0.0
C906 C 0.5868 0.47048 0.29065 0.0
C907 C 0.60264 0.45759 0.28453 0.0
C908 C 0.60938 0.45638 0.26009 0.0
C909 C 0.60011 0.46788 0.24217 0.0
C910 C 0.57937 0.47237 0.31653 0.0
C911 C 0.6261 0.4427 0.25287 0.0
C912 C 0.64516 0.45062 0.33515 0.0
C913 C 0.62729 0.42313 0.34309 0.0
C914 C 0.63774 0.46188 0.31569 0.0
C915 C 0.61188 0.44523 0.3038 0.0
C916 C 0.59417 0.41719 0.31118 0.0
C917 C 0.60206 0.40649 0.33076 0.0
C918 C 0.65718 0.49188 0.30834 0.0
C919 C 0.5665 0.39873 0.29884 0.0
H920 H 0.56575 0.49168 0.27709 0.0
H921 H 0.60489 0.46658 0.22342 0.0
H922 H 0.56688 0.45107 0.32426 0.0
H923 H 0.59871 0.48367 0.32749 0.0
H924 H 0.56719 0.48334 0.31827 0.0
H925 H 0.62992 0.44385 0.23312 0.0
H926 H 0.64657 0.4529 0.26232 0.0
H927 H 0.61485 0.42038 0.25838 0.0
H928 H 0.66472 0.46366 0.34451 0.0
H929 H 0.58816 0.3852 0.33666 0.0
H930 H 0.64687 0.50444 0.31152 0.0
H931 H 0.66188 0.49307 0.28878 0.0
H932 H 0.67722 0.50152 0.31851 0.0
H933 H 0.55238 0.40738 0.30165 0.0
H934 H 0.55597 0.37691 0.30576 0.0
H935 H 0.56961 0.39832 0.27912 0.0
C936 C 0.43876 0.88282 0.40919 0.0
C937 C 0.44989 0.91109 0.40302 0.0
C938 C 0.43084 0.86221 0.39131 0.0
C939 C 0.43407 0.87008 0.36671 0.0
C940 C 0.44575 0.89862 0.36039 0.0
C941 C 0.45356 0.91878 0.37861 0.0
C942 C 0.41846 0.83197 0.39873 0.0
C943 C 0.44957 0.90785 0.33434 0.0
C944 C 0.43409 0.82207 0.31767 0.0
C945 C 0.40699 0.81091 0.30819 0.0
C946 C 0.44297 0.84074 0.33722 0.0
C947 C 0.42432 0.84846 0.34747 0.0
C948 C 0.39668 0.8366 0.3385 0.0
C949 C 0.38834 0.81796 0.319 0.0
C950 C 0.47255 0.85284 0.34642 0.0
C951 C 0.37617 0.84431 0.34898 0.0
H952 H 0.43559 0.87671 0.42801 0.0
H953 H 0.46256 0.94064 0.37374 0.0
H954 H 0.39651 0.81975 0.39232 0.0
H955 H 0.43021 0.82277 0.39022 0.0
H956 H 0.4187 0.82949 0.4186 0.0
H957 H 0.45965 0.93093 0.33247 0.0
H958 H 0.46258 0.90074 0.32481 0.0
H959 H 0.42895 0.89808 0.32514 0.0
H960 H 0.44862 0.81669 0.30951 0.0
H961 H 0.36733 0.8094 0.31188 0.0
H962 H 0.47248 0.84964 0.36618 0.0
H963 H 0.48432 0.87574 0.34314 0.0
H964 H 0.48384 0.84332 0.33755 0.0
H965 H 0.37433 0.84073 0.36875 0.0
H966 H 0.35502 0.83212 0.34081 0.0
H967 H 0.38391 0.86691 0.34599 0.0
C968 C 0.59934 0.46488 0.57101 0.0
C969 C 0.58707 0.48091 0.56452 0.0
C970 C 0.60899 0.45352 0.55334 0.0
C971 C 0.6064 0.45847 0.52868 0.0
C972 C 0.59473 0.47528 0.52208 0.0
C973 C 0.58516 0.48625 0.54009 0.0
C974 C 0.62121 0.4356 0.56103 0.0
C975 C 0.59184 0.48123 0.49596 0.0
C976 C 0.64896 0.44797 0.48034 0.0
C977 C 0.6289 0.42247 0.47009 0.0
C978 C 0.64221 0.45956 0.49996 0.0
C979 C 0.61481 0.44524 0.5096 0.0
C980 C 0.59482 0.41897 0.49998 0.0
C981 C 0.60208 0.40794 0.48031 0.0
C982 C 0.66407 0.48762 0.50977 0.0
C983 C 0.56543 0.40297 0.5099 0.0
H984 H 0.6006 0.46051 0.58989 0.0
H985 H 0.57602 0.49894 0.53505 0.0
H986 H 0.60773 0.41389 0.55444 0.0
H987 H 0.64219 0.44355 0.55289 0.0
H988 H 0.62313 0.43502 0.58094 0.0
H989 H 0.58337 0.49564 0.49392 0.0
H990 H 0.61247 0.49063 0.48685 0.0
H991 H 0.57766 0.46138 0.48649 0.0
H992 H 0.66975 0.45935 0.47261 0.0
H993 H 0.58649 0.38814 0.47263 0.0
H994 H 0.66601 0.48643 0.52959 0.0
H995 H 0.65759 0.50337 0.50627 0.0
H996 H 0.68494 0.49507 0.50146 0.0
H997 H 0.56597 0.40034 0.5297 0.0
H998 H 0.553 0.38197 0.50152 0.0
H999 H 0.55451 0.41496 0.50663 0.0
C1000 C 0.13706 0.53126 0.72979 0.0
C1001 C 0.11791 0.54079 0.73295 0.0
C1002 C 0.1578 0.54263 0.71187 0.0
C1003 C 0.15876 0.56321 0.69603 0.0
C1004 C 0.13961 0.57293 0.69902 0.0
C1005 C 0.11993 0.56213 0.71773 0.0
C1006 C 0.17848 0.53239 0.70973 0.0
C1007 C 0.13945 0.59434 0.68211 0.0
C1008 C 0.22227 0.61023 0.65769 0.0
C1009 C 0.21512 0.59582 0.63571 0.0
C1010 C 0.20474 0.59917 0.67789 0.0
C1011 C 0.17895 0.5738 0.67564 0.0
C1012 C 0.17173 0.55922 0.6534 0.0
C1013 C 0.19019 0.57015 0.63384 0.0
C1014 C 0.21366 0.61473 0.70156 0.0
C1015 C 0.14401 0.53265 0.64998 0.0
H1016 H 0.13569 0.51458 0.74104 0.0
H1017 H 0.10607 0.5705 0.72031 0.0
H1018 H 0.17482 0.52054 0.69269 0.0
H1019 H 0.20016 0.55041 0.70909 0.0
H1020 H 0.17684 0.51859 0.72499 0.0
H1021 H 0.12259 0.59907 0.68644 0.0
H1022 H 0.15983 0.6141 0.68293 0.0
H1023 H 0.13655 0.58661 0.66326 0.0
H1024 H 0.24169 0.63 0.65912 0.0
H1025 H 0.18459 0.55918 0.61673 0.0
H1026 H 0.21205 0.60033 0.71625 0.0
H1027 H 0.19953 0.62289 0.70625 0.0
H1028 H 0.23546 0.63259 0.70093 0.0
H1029 H 0.14179 0.5166 0.66321 0.0
H1030 H 0.14163 0.52387 0.63154 0.0
H1031 H 0.12664 0.5369 0.65328 0.0
C1032 C 0.54189 0.12168 0.88661 0.0
C1033 C 0.55907 0.11693 0.90237 0.0
C1034 C 0.55328 0.14119 0.86779 0.0
C1035 C 0.58267 0.15725 0.86512 0.0
C1036 C 0.60024 0.15339 0.88137 0.0
C1037 C 0.58826 0.13297 0.8995 0.0
C1038 C 0.53378 0.14426 0.85052 0.0
C1039 C 0.63171 0.17067 0.87947 0.0
C1040 C 0.61054 0.18737 0.80309 0.0
C1041 C 0.61379 0.21417 0.80499 0.0
C1042 C 0.60069 0.16872 0.82262 0.0
C1043 C 0.59486 0.17745 0.84481 0.0
C1044 C 0.59929 0.20495 0.84712 0.0
C1045 C 0.60822 0.22283 0.82701 0.0
C1046 C 0.59543 0.13932 0.81919 0.0
C1047 C 0.59421 0.21532 0.87071 0.0
H1048 H 0.5194 0.11015 0.88892 0.0
H1049 H 0.60188 0.12937 0.91119 0.0
H1050 H 0.53749 0.16594 0.85115 0.0
H1051 H 0.53802 0.14034 0.83179 0.0
H1052 H 0.5114 0.12959 0.85467 0.0
H1053 H 0.64241 0.16676 0.8947 0.0
H1054 H 0.63878 0.1658 0.86236 0.0
H1055 H 0.63843 0.19329 0.8791 0.0
H1056 H 0.6146 0.18056 0.78599 0.0
H1057 H 0.61094 0.24364 0.82852 0.0
H1058 H 0.57289 0.12409 0.822 0.0
H1059 H 0.60728 0.13462 0.83275 0.0
H1060 H 0.60147 0.13599 0.80091 0.0
H1061 H 0.57159 0.20359 0.87514 0.0
H1062 H 0.60114 0.238 0.87014 0.0
H1063 H 0.60545 0.21155 0.88555 0.0
C1064 C 0.46225 0.59596 0.0678 0.0
C1065 C 0.47749 0.58258 0.06224 0.0
C1066 C 0.45095 0.60493 0.04949 0.0
C1067 C 0.45485 0.60024 0.02507 0.0
C1068 C 0.47029 0.58683 0.01935 0.0
C1069 C 0.48148 0.57822 0.03801 0.0
C1070 C 0.43483 0.61939 0.05628 0.0
C1071 C 0.47475 0.58129 0.99352 0.0
C1072 C 0.40453 0.5982 0.97727 0.0
C1073 C 0.42041 0.62436 0.9661 0.0
C1074 C 0.4153 0.59029 0.99677 0.0
C1075 C 0.44254 0.60904 0.00541 0.0
C1076 C 0.45839 0.63575 0.99467 0.0
C1077 C 0.44718 0.64306 0.9751 0.0
C1078 C 0.39779 0.56158 0.00773 0.0
C1079 C 0.48744 0.65638 0.00352 0.0
H1080 H 0.45941 0.59966 0.08651 0.0
H1081 H 0.49296 0.56759 0.03364 0.0
H1082 H 0.44454 0.6404 0.04779 0.0
H1083 H 0.41308 0.60726 0.04936 0.0
H1084 H 0.43406 0.62184 0.0761 0.0
H1085 H 0.48745 0.57084 0.99213 0.0
H1086 H 0.45424 0.56786 0.98467 0.0
H1087 H 0.48544 0.60126 0.98333 0.0
H1088 H 0.38384 0.58359 0.97046 0.0
H1089 H 0.45957 0.66337 0.96668 0.0
H1090 H 0.39544 0.56338 0.02741 0.0
H1091 H 0.40846 0.54922 0.0053 0.0
H1092 H 0.37663 0.54987 0.9995 0.0
H1093 H 0.48703 0.65999 0.02315 0.0
H1094 H 0.49645 0.67683 0.99405 0.0
H1095 H 0.50153 0.64769 0.00073 0.0
C1096 C 0.91654 0.43 0.20323 0.0
C1097 C 0.90993 0.4271 0.22786 0.0
C1098 C 0.89554 0.42113 0.18563 0.0
C1099 C 0.86721 0.40903 0.19282 0.0
C1100 C 0.8603 0.40518 0.21764 0.0
C1101 C 0.88176 0.41428 0.23488 0.0
C1102 C 0.90375 0.42548 0.15933 0.0
C1103 C 0.83035 0.39236 0.226 0.0
C1104 C 0.81954 0.41668 0.14796 0.0
C1105 C 0.80676 0.3906 0.13633 0.0
C1106 C 0.83862 0.42262 0.16684 0.0
C1107 C 0.84512 0.40199 0.17434 0.0
C1108 C 0.83159 0.37529 0.16329 0.0
C1109 C 0.81257 0.3699 0.1444 0.0
C1110 C 0.85254 0.45133 0.17824 0.0
C1111 C 0.8379 0.35273 0.1709 0.0
H1112 H 0.93824 0.43952 0.19771 0.0
H1113 H 0.87654 0.41225 0.25389 0.0
H1114 H 0.89213 0.40544 0.14936 0.0
H1115 H 0.89806 0.44034 0.15118 0.0
H1116 H 0.92653 0.43387 0.15672 0.0
H1117 H 0.82829 0.38884 0.2458 0.0
H1118 H 0.82206 0.40637 0.22117 0.0
H1119 H 0.81707 0.37209 0.21677 0.0
H1120 H 0.81513 0.43278 0.14195 0.0
H1121 H 0.80277 0.34966 0.13559 0.0
H1122 H 0.87537 0.46222 0.17464 0.0
H1123 H 0.84973 0.44951 0.19809 0.0
H1124 H 0.84408 0.46449 0.17124 0.0
H1125 H 0.86 0.35938 0.16664 0.0
H1126 H 0.82419 0.33249 0.1617 0.0
H1127 H 0.83528 0.34942 0.19068 0.0
loop_
_geom_bond_atom_site_label_1
_geom_bond_atom_site_label_2
_geom_bond_distance
_geom_bond_site_symmetry_2
_ccdc_geom_bond_type
C0 C1 1.384 . S
C0 C2 1.384 . S
C0 H28 0.931 . S
C1 C0 1.384 . S
C1 C4 1.382 . S
C2 C0 1.384 . S
C2 C3 1.381 . S
C2 H29 0.930 . S
C3 C2 1.381 . S
C3 C5 1.381 . S
C3 C6 1.487 . S
C4 C1 1.382 . S
C4 C5 1.387 . S
C4 H30 0.930 . S
C5 C3 1.381 . S
C5 C4 1.387 . S
C5 H31 0.931 . S
C6 C3 1.487 . S
C6 C13 1.399 . S
C6 N44 1.343 1_655 S
C7 C8 1.384 . S
C7 C9 1.384 . S
C7 H32 0.931 . S
C8 C7 1.384 . S
C8 C11 1.382 . S
C9 C7 1.384 . S
C9 C10 1.381 . S
C9 H33 0.930 . S
C10 C9 1.381 . S
C10 C12 1.381 . S
C10 C13 1.487 . S
C11 C8 1.382 . S
C11 C12 1.387 . S
C11 H34 0.930 . S
C12 C10 1.381 . S
C12 C11 1.387 . S
C12 H35 0.931 . S
C13 C6 1.399 . S
C13 C10 1.487 . S
C13 N45 1.343 1_655 S
C14 C15 1.384 . S
C14 C16 1.384 . S
C14 H36 0.931 . S
C15 C14 1.384 . S
C15 C18 1.382 . S
C16 C14 1.384 . S
C16 C17 1.381 . S
C16 H37 0.930 . S
C17 C16 1.381 . S
C17 C19 1.381 . S
C17 C20 1.487 . S
C18 C15 1.382 . S
C18 C19 1.387 . S
C18 H38 0.930 . S
C19 C17 1.381 . S
C19 C18 1.387 . S
C19 H39 0.931 . S
C20 C17 1.487 . S
C20 C27 1.399 . S
C20 N45 1.343 . S
C21 C22 1.384 . S
C21 C23 1.384 . S
C21 H40 0.931 . S
C22 C21 1.384 . S
C22 C25 1.382 . S
C23 C21 1.384 . S
C23 C24 1.381 . S
C23 H41 0.930 . S
C24 C23 1.381 . S
C24 C26 1.381 . S
C24 C27 1.487 . S
C25 C22 1.382 . S
C25 C26 1.387 . S
C25 H42 0.930 . S
C26 C24 1.381 . S
C26 C25 1.387 . S
C26 H43 0.931 . S
C27 C20 1.399 . S
C27 C24 1.487 . S
C27 N44 1.343 . S
H28 C0 0.931 . S
H29 C2 0.930 . S
H30 C4 0.930 . S
H31 C5 0.931 . S
H32 C7 0.931 . S
H33 C9 0.930 . S
H34 C11 0.930 . S
H35 C12 0.931 . S
H36 C14 0.931 . S
H37 C16 0.930 . S
H38 C18 0.930 . S
H39 C19 0.931 . S
H40 C21 0.931 . S
H41 C23 0.930 . S
H42 C25 0.930 . S
H43 C26 0.931 . S
N44 C6 1.343 1_455 S
N44 C27 1.343 . S
N45 C13 1.343 1_455 S
N45 C20 1.343 . S
C46 C47 1.384 . S
C46 C48 1.384 . S
C46 H74 0.931 . S
C47 C46 1.384 . S
C47 C50 1.382 . S
C48 C46 1.384 . S
C48 C49 1.381 . S
C48 H75 0.930 . S
C49 C48 1.381 . S
C49 C51 1.381 . S
C49 C52 1.487 . S
C50 C47 1.382 . S
C50 C51 1.387 . S
C50 H76 0.930 . S
C51 C49 1.381 . S
C51 C50 1.387 . S
C51 H77 0.931 . S
C52 C49 1.487 . S
C52 C59 1.399 . S
C52 N90 1.343 1_565 S
C53 C54 1.384 . S
C53 C55 1.384 . S
C53 H78 0.931 . S
C54 C53 1.384 . S
C54 C57 1.382 . S
C55 C53 1.384 . S
C55 C56 1.381 . S
C55 H79 0.930 . S
C56 C55 1.381 . S
C56 C58 1.381 . S
C56 C59 1.487 . S
C57 C54 1.382 . S
C57 C58 1.387 . S
C57 H80 0.930 . S
C58 C56 1.381 . S
C58 C57 1.387 . S
C58 H81 0.931 . S
C59 C52 1.399 . S
C59 C56 1.487 . S
C59 N91 1.343 1_565 S
C60 C61 1.384 . S
C60 C62 1.384 . S
C60 H82 0.931 . S
C61 C60 1.384 . S
C61 C64 1.382 . S
C62 C60 1.384 . S
C62 C63 1.381 . S
C62 H83 0.930 . S
C63 C62 1.381 . S
C63 C65 1.381 . S
C63 C66 1.487 . S
C64 C61 1.382 . S
C64 C65 1.387 . S
C64 H84 0.930 . S
C65 C63 1.381 . S
C65 C64 1.387 . S
C65 H85 0.931 . S
C66 C63 1.487 . S
C66 C73 1.399 . S
C66 N91 1.343 . S
C67 C68 1.384 . S
C67 C69 1.384 . S
C67 H86 0.931 . S
C68 C67 1.384 . S
C68 C71 1.382 . S
C69 C67 1.384 . S
C69 C70 1.381 . S
C69 H87 0.930 . S
C70 C69 1.381 . S
C70 C72 1.381 . S
C70 C73 1.487 . S
C71 C68 1.382 . S
C71 C72 1.387 . S
C71 H88 0.930 . S
C72 C70 1.381 . S
C72 C71 1.387 . S
C72 H89 0.931 . S
C73 C66 1.399 . S
C73 C70 1.487 . S
C73 N90 1.343 . S
H74 C46 0.931 . S
H75 C48 0.930 . S
H76 C50 0.930 . S
H77 C51 0.931 . S
H78 C53 0.931 . S
H79 C55 0.930 . S
H80 C57 0.930 . S
H81 C58 0.931 . S
H82 C60 0.931 . S
H83 C62 0.930 . S
H84 C64 0.930 . S
H85 C65 0.931 . S
H86 C67 0.931 . S
H87 C69 0.930 . S
H88 C71 0.930 . S
H89 C72 0.931 . S
N90 C52 1.343 1_545 S
N90 C73 1.343 . S
N91 C59 1.343 1_545 S
N91 C66 1.343 . S
C92 C93 1.384 . S
C92 C94 1.384 . S
C92 H120 0.931 . S
C93 C92 1.384 . S
C93 C96 1.382 . S
C94 C92 1.384 . S
C94 C95 1.381 . S
C94 H121 0.930 . S
C95 C94 1.381 . S
C95 C97 1.381 . S
C95 C98 1.487 . S
C96 C93 1.382 . S
C96 C97 1.387 . S
C96 H122 0.930 . S
C97 C95 1.381 . S
C97 C96 1.387 . S
C97 H123 0.931 . S
C98 C95 1.487 . S
C98 C105 1.399 . S
C98 N136 1.343 . S
C99 C100 1.384 . S
C99 C101 1.384 . S
C99 H124 0.931 . S
C100 C99 1.384 . S
C100 C103 1.382 . S
C101 C99 1.384 . S
C101 C102 1.381 . S
C101 H125 0.930 . S
C102 C101 1.381 . S
C102 C104 1.381 . S
C102 C105 1.487 . S
C103 C100 1.382 . S
C103 C104 1.387 . S
C103 H126 0.930 . S
C104 C102 1.381 . S
C104 C103 1.387 . S
C104 H127 0.931 . S
C105 C98 1.399 . S
C105 C102 1.487 . S
C105 N137 1.343 . S
C106 C107 1.384 . S
C106 C108 1.384 . S
C106 H128 0.931 . S
C107 C106 1.384 . S
C107 C110 1.382 . S
C108 C106 1.384 . S
C108 C109 1.381 . S
C108 H129 0.930 . S
C109 C108 1.381 . S
C109 C111 1.381 . S
C109 C112 1.487 . S
C110 C107 1.382 . S
C110 C111 1.387 . S
C110 H130 0.930 . S
C111 C109 1.381 . S
C111 C110 1.387 . S
C111 H131 0.931 . S
C112 C109 1.487 . S
C112 C119 1.399 . S
C112 N137 1.343 . S
C113 C114 1.384 . S
C113 C115 1.384 . S
C113 H132 0.931 . S
C114 C113 1.384 . S
C114 C117 1.382 . S
C115 C113 1.384 . S
C115 C116 1.381 . S
C115 H133 0.930 . S
C116 C115 1.381 . S
C116 C118 1.381 . S
C116 C119 1.487 . S
C117 C114 1.382 . S
C117 C118 1.387 . S
C117 H134 0.930 . S
C118 C116 1.381 . S
C118 C117 1.387 . S
C118 H135 0.931 . S
C119 C112 1.399 . S
C119 C116 1.487 . S
C119 N136 1.343 . S
H120 C92 0.931 . S
H121 C94 0.930 . S
H122 C96 0.930 . S
H123 C97 0.931 . S
H124 C99 0.931 . S
H125 C101 0.930 . S
H126 C103 0.930 . S
H127 C104 0.931 . S
H128 C106 0.931 . S
H129 C108 0.930 . S
H130 C110 0.930 . S
H131 C111 0.931 . S
H132 C113 0.931 . S
H133 C115 0.930 . S
H134 C117 0.930 . S
H135 C118 0.931 . S
N136 C98 1.343 . S
N136 C119 1.343 . S
N137 C105 1.343 . S
N137 C112 1.343 . S
C138 C139 1.384 . S
C138 C140 1.384 . S
C138 H166 0.931 . S
C139 C138 1.384 . S
C139 C142 1.382 . S
C140 C138 1.384 . S
C140 C141 1.381 . S
C140 H167 0.930 . S
C141 C140 1.381 . S
C141 C143 1.381 . S
C141 C144 1.487 . S
C142 C139 1.382 . S
C142 C143 1.387 . S
C142 H168 0.930 . S
C143 C141 1.381 . S
C143 C142 1.387 . S
C143 H169 0.931 . S
C144 C141 1.487 . S
C144 C151 1.399 . S
C144 N182 1.343 1_655 S
C145 C146 1.384 . S
C145 C147 1.384 . S
C145 H170 0.931 . S
C146 C145 1.384 . S
C146 C149 1.382 . S
C147 C145 1.384 . S
C147 C148 1.381 . S
C147 H171 0.930 . S
C148 C147 1.381 . S
C148 C150 1.381 . S
C148 C151 1.487 . S
C149 C146 1.382 . S
C149 C150 1.387 . S
C149 H172 0.930 . S
C150 C148 1.381 . S
C150 C149 1.387 . S
C150 H173 0.931 . S
C151 C144 1.399 . S
C151 C148 1.487 . S
C151 N183 1.343 1_655 S
C152 C153 1.384 . S
C152 C154 1.384 . S
C152 H174 0.931 . S
C153 C152 1.384 . S
C153 C156 1.382 . S
C154 C152 1.384 . S
C154 C155 1.381 . S
C154 H175 0.930 . S
C155 C154 1.381 . S
C155 C157 1.381 . S
C155 C158 1.487 . S
C156 C153 1.382 . S
C156 C157 1.387 . S
C156 H176 0.930 . S
C157 C155 1.381 . S
C157 C156 1.387 . S
C157 H177 0.931 . S
C158 C155 1.487 . S
C158 C165 1.399 . S
C158 N183 1.343 . S
C159 C160 1.384 . S
C159 C161 1.384 . S
C159 H178 0.931 . S
C160 C159 1.384 . S
C160 C163 1.382 . S
C161 C159 1.384 . S
C161 C162 1.381 . S
C161 H179 0.930 . S
C162 C161 1.381 . S
C162 C164 1.381 . S
C162 C165 1.487 . S
C163 C160 1.382 . S
C163 C164 1.387 . S
C163 H180 0.930 . S
C164 C162 1.381 . S
C164 C163 1.387 . S
C164 H181 0.931 . S
C165 C158 1.399 . S
C165 C162 1.487 . S
C165 N182 1.343 . S
H166 C138 0.931 . S
H167 C140 0.930 . S
H168 C142 0.930 . S
H169 C143 0.931 . S
H170 C145 0.931 . S
H171 C147 0.930 . S
H172 C149 0.930 . S
H173 C150 0.931 . S
H174 C152 0.931 . S
H175 C154 0.930 . S
H176 C156 0.930 . S
H177 C157 0.931 . S
H178 C159 0.931 . S
H179 C161 0.930 . S
H180 C163 0.930 . S
H181 C164 0.931 . S
N182 C144 1.343 1_455 S
N182 C165 1.343 . S
N183 C151 1.343 1_455 S
N183 C158 1.343 . S
C184 C185 1.384 . S
C184 C186 1.384 . S
C184 H212 0.931 . S
C185 C184 1.384 . S
C185 C188 1.382 . S
C186 C184 1.384 . S
C186 C187 1.381 . S
C186 H213 0.960 . S
C187 C186 1.381 . S
C187 C189 1.381 . S
C187 C190 1.487 . S
C188 C185 1.382 . S
C188 C189 1.387 . S
C188 H214 0.930 . S
C189 C187 1.381 . S
C189 C188 1.387 . S
C189 H215 0.931 . S
C190 C187 1.487 . S
C190 C197 1.399 1_556 S
C190 N228 1.343 1_565 S
C191 C192 1.384 . S
C191 C193 1.384 . S
C191 H216 0.931 . S
C192 C191 1.384 . S
C192 C195 1.382 . S
C193 C191 1.384 . S
C193 C194 1.381 . S
C193 H217 0.930 . S
C194 C193 1.381 . S
C194 C196 1.381 . S
C194 C197 1.487 . S
C195 C192 1.382 . S
C195 C196 1.387 . S
C195 H218 0.930 . S
C196 C194 1.381 . S
C196 C195 1.387 . S
C196 H219 0.931 . S
C197 C190 1.399 1_554 S
C197 C194 1.487 . S
C197 N229 1.343 1_565 S
C198 C199 1.384 . S
C198 C200 1.384 1_554 S
C198 H220 0.931 1_554 S
C199 C198 1.384 . S
C199 C202 1.382 . S
C200 C198 1.384 1_556 S
C200 C201 1.381 1_556 S
C200 H221 0.930 . S
C201 C200 1.381 1_554 S
C201 C203 1.381 . S
C201 C204 1.487 1_554 S
C202 C199 1.382 . S
C202 C203 1.387 . S
C202 H222 0.930 . S
C203 C201 1.381 . S
C203 C202 1.387 . S
C203 H223 0.931 . S
C204 C201 1.487 1_556 S
C204 C211 1.399 . S
C204 N229 1.343 1_556 S
C205 C206 1.384 . S
C205 C207 1.384 . S
C205 H224 0.931 . S
C206 C205 1.384 . S
C206 C209 1.382 . S
C207 C205 1.384 . S
C207 C208 1.381 . S
C207 H225 0.930 . S
C208 C207 1.381 . S
C208 C210 1.381 . S
C208 C211 1.487 . S
C209 C206 1.382 . S
C209 C210 1.387 . S
C209 H226 0.930 . S
C210 C208 1.381 . S
C210 C209 1.387 . S
C210 H227 0.931 . S
C211 C204 1.399 . S
C211 C208 1.487 . S
C211 N228 1.343 . S
H212 C184 0.931 . S
H213 C186 0.960 . S
H214 C188 0.930 . S
H215 C189 0.931 . S
H216 C191 0.931 . S
H217 C193 0.930 . S
H218 C195 0.930 . S
H219 C196 0.931 . S
H220 C198 0.931 1_556 S
H221 C200 0.930 . S
H222 C202 0.930 . S
H223 C203 0.931 . S
H224 C205 0.931 . S
H225 C207 0.930 . S
H226 C209 0.930 . S
H227 C210 0.931 . S
N228 C190 1.343 1_545 S
N228 C211 1.343 . S
N229 C197 1.343 1_545 S
N229 C204 1.343 1_554 S
C230 C231 1.384 . S
C230 C232 1.384 . S
C230 H258 0.931 . S
C231 C230 1.384 . S
C231 C234 1.382 . S
C232 C230 1.384 . S
C232 C233 1.381 . S
C232 H259 0.930 . S
C233 C232 1.381 . S
C233 C235 1.381 . S
C233 C236 1.487 . S
C234 C231 1.382 . S
C234 C235 1.387 . S
C234 H260 0.930 . S
C235 C233 1.381 . S
C235 C234 1.387 . S
C235 H261 0.931 . S
C236 C233 1.487 . S
C236 C243 1.399 . S
C236 N274 1.343 . S
C237 C238 1.384 . S
C237 C239 1.384 . S
C237 H262 0.931 . S
C238 C237 1.384 . S
C238 C241 1.382 . S
C239 C237 1.384 . S
C239 C240 1.381 . S
C239 H263 0.930 . S
C240 C239 1.381 . S
C240 C242 1.381 . S
C240 C243 1.487 . S
C241 C238 1.382 . S
C241 C242 1.387 . S
C241 H264 0.930 . S
C242 C240 1.381 . S
C242 C241 1.387 . S
C242 H265 0.931 . S
C243 C236 1.399 . S
C243 C240 1.487 . S
C243 N275 1.343 . S
C244 C245 1.384 . S
C244 C246 1.384 . S
C244 H266 0.931 . S
C245 C244 1.384 . S
C245 C248 1.382 . S
C246 C244 1.384 . S
C246 C247 1.381 . S
C246 H267 0.930 . S
C247 C246 1.381 . S
C247 C249 1.381 . S
C247 C250 1.487 . S
C248 C245 1.382 . S
C248 C249 1.387 . S
C248 H268 0.930 . S
C249 C247 1.381 . S
C249 C248 1.387 . S
C249 H269 0.931 . S
C250 C247 1.487 . S
C250 C257 1.399 . S
C250 N275 1.343 . S
C251 C252 1.384 . S
C251 C253 1.384 . S
C251 H270 0.931 . S
C252 C251 1.384 . S
C252 C255 1.382 . S
C253 C251 1.384 . S
C253 C254 1.381 . S
C253 H271 0.930 . S
C254 C253 1.381 . S
C254 C256 1.381 . S
C254 C257 1.487 . S
C255 C252 1.382 . S
C255 C256 1.387 . S
C255 H272 0.930 . S
C256 C254 1.381 . S
C256 C255 1.387 . S
C256 H273 0.931 . S
C257 C250 1.399 . S
C257 C254 1.487 . S
C257 N274 1.343 . S
H258 C230 0.931 . S
H259 C232 0.930 . S
H260 C234 0.930 . S
H261 C235 0.931 . S
H262 C237 0.931 . S
H263 C239 0.930 . S
H264 C241 0.930 . S
H265 C242 0.931 . S
H266 C244 0.931 . S
H267 C246 0.930 . S
H268 C248 0.930 . S
H269 C249 0.931 . S
H270 C251 0.931 . S
H271 C253 0.930 . S
H272 C255 0.930 . S
H273 C256 0.931 . S
N274 C236 1.343 . S
N274 C257 1.343 . S
N275 C243 1.343 . S
N275 C250 1.343 . S
O276 Cd277 2.223 . S
O276 C284 1.315 . S
Cd277 O276 2.223 . S
Cd277 O280 2.297 . S
Cd277 O281 2.439 . S
Cd277 O287 2.240 . S
Cd278 O279 2.240 . S
Cd278 O286 2.223 . S
Cd278 O288 2.297 . S
Cd278 O289 2.439 . S
O279 Cd278 2.240 . S
O279 C284 1.279 . S
O280 Cd277 2.297 . S
O280 C282 1.247 . S
O281 Cd277 2.439 . S
O281 C282 1.208 . S
C282 O280 1.247 . S
C282 O281 1.208 . S
C283 O288 1.247 . S
C283 O289 1.208 . S
C284 O276 1.315 . S
C284 O279 1.279 . S
C285 O286 1.315 . S
C285 O287 1.279 . S
O286 Cd278 2.223 . S
O286 C285 1.315 . S
O287 Cd277 2.240 . S
O287 C285 1.279 . S
O288 Cd278 2.297 . S
O288 C283 1.247 . S
O289 Cd278 2.439 . S
O289 C283 1.208 . S
O290 Cd291 2.223 . S
O290 C298 1.315 . S
Cd291 O290 2.223 . S
Cd291 O294 2.297 . S
Cd291 O295 2.439 . S
Cd291 O301 2.240 . S
Cd292 O293 2.240 . S
Cd292 O300 2.223 . S
Cd292 O302 2.297 . S
Cd292 O303 2.439 . S
O293 Cd292 2.240 . S
O293 C298 1.279 . S
O294 Cd291 2.297 . S
O294 C296 1.247 . S
O295 Cd291 2.439 . S
O295 C296 1.208 . S
C296 O294 1.247 . S
C296 O295 1.208 . S
C297 O302 1.247 . S
C297 O303 1.208 . S
C298 O290 1.315 . S
C298 O293 1.279 . S
C299 O300 1.315 . S
C299 O301 1.279 . S
O300 Cd292 2.223 . S
O300 C299 1.315 . S
O301 Cd291 2.240 . S
O301 C299 1.279 . S
O302 Cd292 2.297 . S
O302 C297 1.247 . S
O303 Cd292 2.439 . S
O303 C297 1.208 . S
O304 Cd305 2.223 . S
O304 C312 1.315 . S
Cd305 O304 2.223 . S
Cd305 O308 2.297 . S
Cd305 O309 2.439 . S
Cd305 O315 2.240 . S
Cd306 O307 2.240 . S
Cd306 O314 2.223 . S
Cd306 O316 2.297 . S
Cd306 O317 2.439 . S
O307 Cd306 2.240 . S
O307 C312 1.279 . S
O308 Cd305 2.297 . S
O308 C310 1.247 . S
O309 Cd305 2.439 . S
O309 C310 1.208 . S
C310 O308 1.247 . S
C310 O309 1.208 . S
C311 O316 1.247 . S
C311 O317 1.208 . S
C312 O304 1.315 . S
C312 O307 1.279 . S
C313 O314 1.315 . S
C313 O315 1.279 . S
O314 Cd306 2.223 . S
O314 C313 1.315 . S
O315 Cd305 2.240 . S
O315 C313 1.279 . S
O316 Cd306 2.297 . S
O316 C311 1.247 . S
O317 Cd306 2.439 . S
O317 C311 1.208 . S
O318 Cd319 2.223 . S
O318 C326 1.315 . S
Cd319 O318 2.223 . S
Cd319 O322 2.297 . S
Cd319 O323 2.439 . S
Cd319 O329 2.240 . S
Cd320 O321 2.240 . S
Cd320 O328 2.223 . S
Cd320 O330 2.297 . S
Cd320 O331 2.439 . S
O321 Cd320 2.240 . S
O321 C326 1.279 . S
O322 Cd319 2.297 . S
O322 C324 1.247 . S
O323 Cd319 2.439 . S
O323 C324 1.208 . S
C324 O322 1.247 . S
C324 O323 1.208 . S
C325 O330 1.247 . S
C325 O331 1.208 . S
C326 O318 1.315 . S
C326 O321 1.279 . S
C327 O328 1.315 . S
C327 O329 1.279 . S
O328 Cd320 2.223 . S
O328 C327 1.315 . S
O329 Cd319 2.240 . S
O329 C327 1.279 . S
O330 Cd320 2.297 . S
O330 C325 1.247 . S
O331 Cd320 2.439 . S
O331 C325 1.208 . S
O332 Cd333 2.223 . S
O332 C340 1.315 . S
Cd333 O332 2.223 . S
Cd333 O336 2.297 . S
Cd333 O337 2.439 . S
Cd333 O343 2.240 . S
Cd334 O335 2.240 . S
Cd334 O342 2.223 . S
Cd334 O344 2.297 . S
Cd334 O345 2.439 . S
O335 Cd334 2.240 . S
O335 C340 1.279 . S
O336 Cd333 2.297 . S
O336 C338 1.247 . S
O337 Cd333 2.439 . S
O337 C338 1.208 . S
C338 O336 1.247 . S
C338 O337 1.208 . S
C339 O344 1.247 . S
C339 O345 1.208 . S
C340 O332 1.315 . S
C340 O335 1.279 . S
C341 O342 1.315 . S
C341 O343 1.279 . S
O342 Cd334 2.223 . S
O342 C341 1.315 . S
O343 Cd333 2.240 . S
O343 C341 1.279 . S
O344 Cd334 2.297 . S
O344 C339 1.247 . S
O345 Cd334 2.439 . S
O345 C339 1.208 . S
O346 Cd347 2.223 . S
O346 C354 1.315 . S
Cd347 O346 2.223 . S
Cd347 O350 2.297 . S
Cd347 O351 2.439 . S
Cd347 O357 2.240 . S
Cd348 O349 2.240 . S
Cd348 O356 2.223 . S
Cd348 O358 2.297 . S
Cd348 O359 2.439 . S
O349 Cd348 2.240 . S
O349 C354 1.279 . S
O350 Cd347 2.297 . S
O350 C352 1.247 . S
O351 Cd347 2.439 . S
O351 C352 1.208 . S
C352 O350 1.247 . S
C352 O351 1.208 . S
C353 O358 1.247 . S
C353 O359 1.208 . S
C354 O346 1.315 . S
C354 O349 1.279 . S
C355 O356 1.315 . S
C355 O357 1.279 . S
O356 Cd348 2.223 . S
O356 C355 1.315 . S
O357 Cd347 2.240 . S
O357 C355 1.279 . S
O358 Cd348 2.297 . S
O358 C353 1.247 . S
O359 Cd348 2.439 . S
O359 C353 1.208 . S
C360 C361 1.391 . S
C360 C362 1.394 . S
C360 H376 0.931 . S
C361 C360 1.391 . S
C361 C365 1.376 . S
C362 C360 1.394 . S
C362 C363 1.369 . S
C362 C366 1.531 . S
C363 C362 1.369 . S
C363 C364 1.410 . S
C363 C371 1.503 . S
C364 C363 1.410 . S
C364 C365 1.392 . S
C364 C367 1.511 . S
C365 C361 1.376 . S
C365 C364 1.392 . S
C365 H377 0.929 . S
C366 C362 1.531 . S
C366 H378 0.960 . S
C366 H379 0.962 . S
C366 H380 0.960 . S
C367 C364 1.511 . S
C367 H381 0.961 . S
C367 H382 0.961 . S
C367 H383 0.961 . S
C368 C369 1.370 . S
C368 C370 1.363 . S
C368 H384 0.931 . S
C369 C368 1.370 . S
C369 C373 1.408 . S
C370 C368 1.363 . S
C370 C371 1.370 . S
C370 C374 1.524 . S
C371 C363 1.503 . S
C371 C370 1.370 . S
C371 C372 1.403 . S
C372 C371 1.403 . S
C372 C373 1.404 . S
C372 C375 1.539 . S
C373 C369 1.408 . S
C373 C372 1.404 . S
C373 H385 0.930 . S
C374 C370 1.524 . S
C374 H386 0.956 . S
C374 H387 0.961 . S
C374 H388 0.961 . S
C375 C372 1.539 . S
C375 H389 0.958 . S
C375 H390 0.961 . S
C375 H391 0.960 . S
H376 C360 0.931 . S
H377 C365 0.929 . S
H378 C366 0.960 . S
H379 C366 0.962 . S
H380 C366 0.960 . S
H381 C367 0.961 . S
H382 C367 0.961 . S
H383 C367 0.961 . S
H384 C368 0.931 . S
H385 C373 0.930 . S
H386 C374 0.956 . S
H387 C374 0.961 . S
H388 C374 0.961 . S
H389 C375 0.958 . S
H390 C375 0.961 . S
H391 C375 0.960 . S
C392 C393 1.391 . S
C392 C394 1.394 . S
C392 H408 0.931 . S
C393 C392 1.391 . S
C393 C397 1.376 . S
C394 C392 1.394 . S
C394 C395 1.369 . S
C394 C398 1.531 . S
C395 C394 1.369 . S
C395 C396 1.410 . S
C395 C403 1.503 . S
C396 C395 1.410 . S
C396 C397 1.392 . S
C396 C399 1.511 . S
C397 C393 1.376 . S
C397 C396 1.392 . S
C397 H409 0.929 . S
C398 C394 1.531 . S
C398 H410 0.960 . S
C398 H411 0.962 . S
C398 H412 0.960 . S
C399 C396 1.511 . S
C399 H413 0.961 . S
C399 H414 0.961 . S
C399 H415 0.961 . S
C400 C401 1.370 . S
C400 C402 1.363 . S
C400 H416 0.931 . S
C401 C400 1.370 . S
C401 C405 1.408 . S
C402 C400 1.363 . S
C402 C403 1.370 . S
C402 C406 1.524 . S
C403 C395 1.503 . S
C403 C402 1.370 . S
C403 C404 1.403 . S
C404 C403 1.403 . S
C404 C405 1.404 . S
C404 C407 1.539 . S
C405 C401 1.408 . S
C405 C404 1.404 . S
C405 H417 0.930 . S
C406 C402 1.524 . S
C406 H418 0.956 . S
C406 H419 0.961 . S
C406 H420 0.961 . S
C407 C404 1.539 . S
C407 H421 0.958 . S
C407 H422 0.961 . S
C407 H423 0.960 . S
H408 C392 0.931 . S
H409 C397 0.929 . S
H410 C398 0.960 . S
H411 C398 0.962 . S
H412 C398 0.960 . S
H413 C399 0.961 . S
H414 C399 0.961 . S
H415 C399 0.961 . S
H416 C400 0.931 . S
H417 C405 0.930 . S
H418 C406 0.956 . S
H419 C406 0.961 . S
H420 C406 0.961 . S
H421 C407 0.958 . S
H422 C407 0.961 . S
H423 C407 0.960 . S
C424 C425 1.391 . S
C424 C426 1.394 . S
C424 H440 0.931 . S
C425 C424 1.391 . S
C425 C429 1.376 . S
C426 C424 1.394 . S
C426 C427 1.369 . S
C426 C430 1.531 . S
C427 C426 1.369 . S
C427 C428 1.410 . S
C427 C435 1.503 . S
C428 C427 1.410 . S
C428 C429 1.392 . S
C428 C431 1.511 . S
C429 C425 1.376 . S
C429 C428 1.392 . S
C429 H441 0.929 . S
C430 C426 1.531 . S
C430 H442 0.960 . S
C430 H443 0.962 . S
C430 H444 0.960 . S
C431 C428 1.511 . S
C431 H445 0.961 . S
C431 H446 0.961 . S
C431 H447 0.961 . S
C432 C433 1.370 . S
C432 C434 1.363 . S
C432 H448 0.931 . S
C433 C432 1.370 . S
C433 C437 1.408 . S
C434 C432 1.363 . S
C434 C435 1.370 . S
C434 C438 1.524 . S
C435 C427 1.503 . S
C435 C434 1.370 . S
C435 C436 1.403 . S
C436 C435 1.403 . S
C436 C437 1.404 . S
C436 C439 1.539 . S
C437 C433 1.408 . S
C437 C436 1.404 . S
C437 H449 0.930 . S
C438 C434 1.524 . S
C438 H450 0.956 . S
C438 H451 0.961 . S
C438 H452 0.961 . S
C439 C436 1.539 . S
C439 H453 0.958 . S
C439 H454 0.961 . S
C439 H455 0.960 . S
H440 C424 0.931 . S
H441 C429 0.929 . S
H442 C430 0.960 . S
H443 C430 0.962 . S
H444 C430 0.960 . S
H445 C431 0.961 . S
H446 C431 0.961 . S
H447 C431 0.961 . S
H448 C432 0.931 . S
H449 C437 0.930 . S
H450 C438 0.956 . S
H451 C438 0.961 . S
H452 C438 0.961 . S
H453 C439 0.958 . S
H454 C439 0.961 . S
H455 C439 0.960 . S
C456 C457 1.391 . S
C456 C458 1.394 . S
C456 H472 0.931 . S
C457 C456 1.391 . S
C457 C461 1.376 . S
C458 C456 1.394 . S
C458 C459 1.369 . S
C458 C462 1.531 . S
C459 C458 1.369 . S
C459 C460 1.410 . S
C459 C467 1.503 . S
C460 C459 1.410 . S
C460 C461 1.392 . S
C460 C463 1.511 . S
C461 C457 1.376 . S
C461 C460 1.392 . S
C461 H473 0.929 . S
C462 C458 1.531 . S
C462 H474 0.960 . S
C462 H475 0.962 . S
C462 H476 0.960 . S
C463 C460 1.511 . S
C463 H477 0.961 . S
C463 H478 0.961 . S
C463 H479 0.961 . S
C464 C465 1.370 . S
C464 C466 1.363 . S
C464 H480 0.931 . S
C465 C464 1.370 . S
C465 C469 1.408 . S
C466 C464 1.363 . S
C466 C467 1.370 . S
C466 C470 1.524 . S
C467 C459 1.503 . S
C467 C466 1.370 . S
C467 C468 1.403 . S
C468 C467 1.403 . S
C468 C469 1.404 . S
C468 C471 1.539 . S
C469 C465 1.408 . S
C469 C468 1.404 . S
C469 H481 0.930 . S
C470 C466 1.524 . S
C470 H482 0.956 . S
C470 H483 0.961 . S
C470 H484 0.961 . S
C471 C468 1.539 . S
C471 H485 0.958 . S
C471 H486 0.961 . S
C471 H487 0.960 . S
H472 C456 0.931 . S
H473 C461 0.929 . S
H474 C462 0.960 . S
H475 C462 0.962 . S
H476 C462 0.960 . S
H477 C463 0.961 . S
H478 C463 0.961 . S
H479 C463 0.961 . S
H480 C464 0.931 . S
H481 C469 0.930 . S
H482 C470 0.956 . S
H483 C470 0.961 . S
H484 C470 0.961 . S
H485 C471 0.958 . S
H486 C471 0.961 . S
H487 C471 0.960 . S
C488 C489 1.391 . S
C488 C490 1.394 . S
C488 H504 0.931 . S
C489 C488 1.391 . S
C489 C493 1.376 . S
C490 C488 1.394 . S
C490 C491 1.369 . S
C490 C494 1.531 . S
C491 C490 1.369 . S
C491 C492 1.410 . S
C491 C499 1.503 . S
C492 C491 1.410 . S
C492 C493 1.392 . S
C492 C495 1.511 . S
C493 C489 1.376 . S
C493 C492 1.392 . S
C493 H505 0.929 . S
C494 C490 1.531 . S
C494 H506 0.960 . S
C494 H507 0.962 . S
C494 H508 0.960 . S
C495 C492 1.511 . S
C495 H509 0.961 . S
C495 H510 0.961 . S
C495 H511 0.961 . S
C496 C497 1.370 . S
C496 C498 1.363 . S
C496 H512 0.931 . S
C497 C496 1.370 . S
C497 C501 1.408 . S
C498 C496 1.363 . S
C498 C499 1.370 . S
C498 C502 1.524 . S
C499 C491 1.503 . S
C499 C498 1.370 . S
C499 C500 1.403 . S
C500 C499 1.403 . S
C500 C501 1.404 . S
C500 C503 1.539 . S
C501 C497 1.408 . S
C501 C500 1.404 . S
C501 H513 0.930 . S
C502 C498 1.524 . S
C502 H514 0.956 . S
C502 H515 0.961 . S
C502 H516 0.961 . S
C503 C500 1.539 . S
C503 H517 0.958 . S
C503 H518 0.961 . S
C503 H519 0.960 . S
H504 C488 0.931 . S
H505 C493 0.929 . S
H506 C494 0.960 . S
H507 C494 0.962 . S
H508 C494 0.960 . S
H509 C495 0.961 . S
H510 C495 0.961 . S
H511 C495 0.961 . S
H512 C496 0.931 . S
H513 C501 0.930 . S
H514 C502 0.956 . S
H515 C502 0.961 . S
H516 C502 0.961 . S
H517 C503 0.958 . S
H518 C503 0.961 . S
H519 C503 0.960 . S
C520 C521 1.391 . S
C520 C522 1.394 . S
C520 H536 0.931 . S
C521 C520 1.391 . S
C521 C525 1.376 . S
C522 C520 1.394 . S
C522 C523 1.369 . S
C522 C526 1.531 . S
C523 C522 1.369 . S
C523 C524 1.410 . S
C523 C531 1.503 . S
C524 C523 1.410 . S
C524 C525 1.392 . S
C524 C527 1.511 . S
C525 C521 1.376 . S
C525 C524 1.392 . S
C525 H537 0.929 . S
C526 C522 1.531 . S
C526 H538 0.960 . S
C526 H539 0.962 . S
C526 H540 0.960 . S
C527 C524 1.511 . S
C527 H541 0.961 . S
C527 H542 0.961 . S
C527 H543 0.961 . S
C528 C529 1.370 . S
C528 C530 1.363 . S
C528 H544 0.931 . S
C529 C528 1.370 . S
C529 C533 1.408 . S
C530 C528 1.363 . S
C530 C531 1.370 . S
C530 C534 1.524 . S
C531 C523 1.503 . S
C531 C530 1.370 . S
C531 C532 1.403 . S
C532 C531 1.403 . S
C532 C533 1.404 . S
C532 C535 1.539 . S
C533 C529 1.408 . S
C533 C532 1.404 . S
C533 H545 0.930 . S
C534 C530 1.524 . S
C534 H546 0.956 . S
C534 H547 0.961 . S
C534 H548 0.961 . S
C535 C532 1.539 . S
C535 H549 0.958 . S
C535 H550 0.961 . S
C535 H551 0.960 . S
H536 C520 0.931 . S
H537 C525 0.929 . S
H538 C526 0.960 . S
H539 C526 0.962 . S
H540 C526 0.960 . S
H541 C527 0.961 . S
H542 C527 0.961 . S
H543 C527 0.961 . S
H544 C528 0.931 . S
H545 C533 0.930 . S
H546 C534 0.956 . S
H547 C534 0.961 . S
H548 C534 0.961 . S
H549 C535 0.958 . S
H550 C535 0.961 . S
H551 C535 0.960 . S
C552 C553 1.391 . S
C552 C554 1.394 . S
C552 H568 0.931 . S
C553 C552 1.391 . S
C553 C557 1.376 . S
C554 C552 1.394 . S
C554 C555 1.369 . S
C554 C558 1.531 . S
C555 C554 1.369 . S
C555 C556 1.410 . S
C555 C563 1.503 . S
C556 C555 1.410 . S
C556 C557 1.392 . S
C556 C559 1.511 . S
C557 C553 1.376 . S
C557 C556 1.392 . S
C557 H569 0.929 . S
C558 C554 1.531 . S
C558 H570 0.960 . S
C558 H571 0.962 . S
C558 H572 0.960 . S
C559 C556 1.511 . S
C559 H573 0.961 . S
C559 H574 0.961 . S
C559 H575 0.961 . S
C560 C561 1.370 . S
C560 C562 1.363 . S
C560 H576 0.931 . S
C561 C560 1.370 . S
C561 C565 1.408 . S
C562 C560 1.363 . S
C562 C563 1.370 . S
C562 C566 1.524 . S
C563 C555 1.503 . S
C563 C562 1.370 . S
C563 C564 1.403 . S
C564 C563 1.403 . S
C564 C565 1.404 . S
C564 C567 1.539 . S
C565 C561 1.408 . S
C565 C564 1.404 . S
C565 H577 0.930 . S
C566 C562 1.524 . S
C566 H578 0.956 . S
C566 H579 0.961 . S
C566 H580 0.961 . S
C567 C564 1.539 . S
C567 H581 0.958 . S
C567 H582 0.961 . S
C567 H583 0.960 . S
H568 C552 0.931 . S
H569 C557 0.929 . S
H570 C558 0.960 . S
H571 C558 0.962 . S
H572 C558 0.960 . S
H573 C559 0.961 . S
H574 C559 0.961 . S
H575 C559 0.961 . S
H576 C560 0.931 . S
H577 C565 0.930 . S
H578 C566 0.956 . S
H579 C566 0.961 . S
H580 C566 0.961 . S
H581 C567 0.958 . S
H582 C567 0.961 . S
H583 C567 0.960 . S
C584 C585 1.391 . S
C584 C586 1.394 . S
C584 H600 0.931 . S
C585 C584 1.391 . S
C585 C589 1.376 . S
C586 C584 1.394 . S
C586 C587 1.369 . S
C586 C590 1.531 . S
C587 C586 1.369 . S
C587 C588 1.410 . S
C587 C595 1.503 . S
C588 C587 1.410 . S
C588 C589 1.392 . S
C588 C591 1.511 . S
C589 C585 1.376 . S
C589 C588 1.392 . S
C589 H601 0.929 . S
C590 C586 1.531 . S
C590 H602 0.960 . S
C590 H603 0.962 . S
C590 H604 0.960 . S
C591 C588 1.511 . S
C591 H605 0.961 . S
C591 H606 0.961 . S
C591 H607 0.961 . S
C592 C593 1.370 . S
C592 C594 1.363 . S
C592 H608 0.931 . S
C593 C592 1.370 . S
C593 C597 1.408 . S
C594 C592 1.363 . S
C594 C595 1.370 . S
C594 C598 1.524 . S
C595 C587 1.503 . S
C595 C594 1.370 . S
C595 C596 1.403 . S
C596 C595 1.403 . S
C596 C597 1.404 . S
C596 C599 1.539 . S
C597 C593 1.408 . S
C597 C596 1.404 . S
C597 H609 0.930 . S
C598 C594 1.524 . S
C598 H610 0.956 . S
C598 H611 0.961 . S
C598 H612 0.961 . S
C599 C596 1.539 . S
C599 H613 0.958 . S
C599 H614 0.961 . S
C599 H615 0.960 . S
H600 C584 0.931 . S
H601 C589 0.929 . S
H602 C590 0.960 . S
H603 C590 0.962 . S
H604 C590 0.960 . S
H605 C591 0.961 . S
H606 C591 0.961 . S
H607 C591 0.961 . S
H608 C592 0.931 . S
H609 C597 0.930 . S
H610 C598 0.956 . S
H611 C598 0.961 . S
H612 C598 0.961 . S
H613 C599 0.958 . S
H614 C599 0.961 . S
H615 C599 0.960 . S
C616 C617 1.391 . S
C616 C618 1.394 . S
C616 H632 0.931 . S
C617 C616 1.391 . S
C617 C621 1.376 . S
C618 C616 1.394 . S
C618 C619 1.369 . S
C618 C622 1.531 . S
C619 C618 1.369 . S
C619 C620 1.410 . S
C619 C627 1.503 . S
C620 C619 1.410 . S
C620 C621 1.392 . S
C620 C623 1.511 . S
C621 C617 1.376 . S
C621 C620 1.392 . S
C621 H633 0.929 . S
C622 C618 1.531 . S
C622 H634 0.960 . S
C622 H635 0.962 . S
C622 H636 0.960 . S
C623 C620 1.511 . S
C623 H637 0.961 . S
C623 H638 0.961 . S
C623 H639 0.961 . S
C624 C625 1.370 . S
C624 C626 1.363 . S
C624 H640 0.931 . S
C625 C624 1.370 . S
C625 C629 1.408 . S
C626 C624 1.363 . S
C626 C627 1.370 . S
C626 C630 1.524 . S
C627 C619 1.503 . S
C627 C626 1.370 . S
C627 C628 1.403 . S
C628 C627 1.403 . S
C628 C629 1.404 . S
C628 C631 1.539 . S
C629 C625 1.408 . S
C629 C628 1.404 . S
C629 H641 0.930 . S
C630 C626 1.524 . S
C630 H642 0.956 . S
C630 H643 0.961 . S
C630 H644 0.961 . S
C631 C628 1.539 . S
C631 H645 0.958 . S
C631 H646 0.961 . S
C631 H647 0.960 . S
H632 C616 0.931 . S
H633 C621 0.929 . S
H634 C622 0.960 . S
H635 C622 0.962 . S
H636 C622 0.960 . S
H637 C623 0.961 . S
H638 C623 0.961 . S
H639 C623 0.961 . S
H640 C624 0.931 . S
H641 C629 0.930 . S
H642 C630 0.956 . S
H643 C630 0.961 . S
H644 C630 0.961 . S
H645 C631 0.958 . S
H646 C631 0.961 . S
H647 C631 0.960 . S
C648 C649 1.391 . S
C648 C650 1.394 . S
C648 H664 0.931 . S
C649 C648 1.391 . S
C649 C653 1.376 . S
C650 C648 1.394 . S
C650 C651 1.369 . S
C650 C654 1.531 . S
C651 C650 1.369 . S
C651 C652 1.410 . S
C651 C659 1.503 . S
C652 C651 1.410 . S
C652 C653 1.392 . S
C652 C655 1.506 1_554 S
C653 C649 1.376 . S
C653 C652 1.392 . S
C653 H665 0.929 . S
C654 C650 1.531 . S
C654 H666 0.960 . S
C654 H667 0.962 . S
C654 H668 0.960 . S
C655 C652 1.506 1_556 S
C655 H669 0.963 . S
C655 H670 0.957 1_556 S
C655 H671 0.968 . S
C656 C657 1.370 . S
C656 C658 1.363 . S
C656 H672 0.931 . S
C657 C656 1.370 . S
C657 C661 1.408 . S
C658 C656 1.363 . S
C658 C659 1.370 . S
C658 C662 1.524 . S
C659 C651 1.503 . S
C659 C658 1.370 . S
C659 C660 1.403 . S
C660 C659 1.403 . S
C660 C661 1.404 . S
C660 C663 1.539 . S
C661 C657 1.408 . S
C661 C660 1.404 . S
C661 H673 0.930 . S
C662 C658 1.524 . S
C662 H674 0.956 . S
C662 H675 0.961 . S
C662 H676 0.961 . S
C663 C660 1.539 . S
C663 H677 0.958 . S
C663 H678 0.961 1_554 S
C663 H679 0.960 1_554 S
H664 C648 0.931 . S
H665 C653 0.929 . S
H666 C654 0.960 . S
H667 C654 0.962 . S
H668 C654 0.960 . S
H669 C655 0.963 . S
H670 C655 0.957 1_554 S
H671 C655 0.968 . S
H672 C656 0.931 . S
H673 C661 0.930 . S
H674 C662 0.956 . S
H675 C662 0.961 . S
H676 C662 0.961 . S
H677 C663 0.958 . S
H678 C663 0.961 1_556 S
H679 C663 0.960 1_556 S
C680 C681 1.391 . S
C680 C682 1.394 . S
C680 H696 0.931 . S
C681 C680 1.391 . S
C681 C685 1.376 . S
C682 C680 1.394 . S
C682 C683 1.369 . S
C682 C686 1.531 . S
C683 C682 1.369 . S
C683 C684 1.410 . S
C683 C691 1.503 . S
C684 C683 1.410 . S
C684 C685 1.392 . S
C684 C687 1.511 . S
C685 C681 1.376 . S
C685 C684 1.392 . S
C685 H697 0.929 . S
C686 C682 1.531 . S
C686 H698 0.960 . S
C686 H699 0.962 . S
C686 H700 0.960 . S
C687 C684 1.511 . S
C687 H701 0.961 . S
C687 H702 0.961 . S
C687 H703 0.961 . S
C688 C689 1.370 . S
C688 C690 1.363 . S
C688 H704 0.931 . S
C689 C688 1.370 . S
C689 C693 1.408 . S
C690 C688 1.363 . S
C690 C691 1.370 . S
C690 C694 1.524 . S
C691 C683 1.503 . S
C691 C690 1.370 . S
C691 C692 1.403 . S
C692 C691 1.403 . S
C692 C693 1.404 . S
C692 C695 1.539 . S
C693 C689 1.408 . S
C693 C692 1.404 . S
C693 H705 0.930 . S
C694 C690 1.524 . S
C694 H706 0.956 . S
C694 H707 0.961 . S
C694 H708 0.961 . S
C695 C692 1.539 . S
C695 H709 0.958 . S
C695 H710 0.961 . S
C695 H711 0.960 . S
H696 C680 0.931 . S
H697 C685 0.929 . S
H698 C686 0.960 . S
H699 C686 0.962 . S
H700 C686 0.960 . S
H701 C687 0.961 . S
H702 C687 0.961 . S
H703 C687 0.961 . S
H704 C688 0.931 . S
H705 C693 0.930 . S
H706 C694 0.956 . S
H707 C694 0.961 . S
H708 C694 0.961 . S
H709 C695 0.958 . S
H710 C695 0.961 . S
H711 C695 0.960 . S
C712 C713 1.391 . S
C712 C714 1.394 . S
C712 H728 0.931 . S
C713 C712 1.391 . S
C713 C717 1.376 . S
C714 C712 1.394 . S
C714 C715 1.369 . S
C714 C718 1.531 . S
C715 C714 1.369 . S
C715 C716 1.410 . S
C715 C723 1.503 . S
C716 C715 1.410 . S
C716 C717 1.392 . S
C716 C719 1.511 . S
C717 C713 1.376 . S
C717 C716 1.392 . S
C717 H729 0.929 . S
C718 C714 1.531 . S
C718 H730 0.960 . S
C718 H731 0.962 . S
C718 H732 0.960 . S
C719 C716 1.511 . S
C719 H733 0.961 . S
C719 H734 0.961 . S
C719 H735 0.961 . S
C720 C721 1.370 . S
C720 C722 1.363 . S
C720 H736 0.931 . S
C721 C720 1.370 . S
C721 C725 1.408 . S
C722 C720 1.363 . S
C722 C723 1.370 . S
C722 C726 1.524 . S
C723 C715 1.503 . S
C723 C722 1.370 . S
C723 C724 1.403 . S
C724 C723 1.403 . S
C724 C725 1.404 . S
C724 C727 1.539 . S
C725 C721 1.408 . S
C725 C724 1.404 . S
C725 H737 0.930 . S
C726 C722 1.524 . S
C726 H738 0.956 . S
C726 H739 0.961 . S
C726 H740 0.961 . S
C727 C724 1.539 . S
C727 H741 0.958 . S
C727 H742 0.961 . S
C727 H743 0.960 . S
H728 C712 0.931 . S
H729 C717 0.929 . S
H730 C718 0.960 . S
H731 C718 0.962 . S
H732 C718 0.960 . S
H733 C719 0.961 . S
H734 C719 0.961 . S
H735 C719 0.961 . S
H736 C720 0.931 . S
H737 C725 0.930 . S
H738 C726 0.956 . S
H739 C726 0.961 . S
H740 C726 0.961 . S
H741 C727 0.958 . S
H742 C727 0.961 . S
H743 C727 0.960 . S
C744 C745 1.391 . S
C744 C746 1.394 . S
C744 H760 0.931 . S
C745 C744 1.391 . S
C745 C749 1.376 . S
C746 C744 1.394 . S
C746 C747 1.369 . S
C746 C750 1.531 . S
C747 C746 1.369 . S
C747 C748 1.410 . S
C747 C755 1.503 . S
C748 C747 1.410 . S
C748 C749 1.392 . S
C748 C751 1.511 . S
C749 C745 1.376 . S
C749 C748 1.392 . S
C749 H761 0.929 . S
C750 C746 1.531 . S
C750 H762 0.960 . S
C750 H763 0.962 . S
C750 H764 0.960 . S
C751 C748 1.511 . S
C751 H765 0.961 . S
C751 H766 0.961 . S
C751 H767 0.961 . S
C752 C753 1.370 . S
C752 C754 1.363 . S
C752 H768 0.931 . S
C753 C752 1.370 . S
C753 C757 1.408 . S
C754 C752 1.363 . S
C754 C755 1.370 . S
C754 C758 1.524 . S
C755 C747 1.503 . S
C755 C754 1.370 . S
C755 C756 1.403 . S
C756 C755 1.403 . S
C756 C757 1.404 . S
C756 C759 1.539 . S
C757 C753 1.408 . S
C757 C756 1.404 . S
C757 H769 0.930 . S
C758 C754 1.524 . S
C758 H770 0.956 . S
C758 H771 0.961 . S
C758 H772 0.961 . S
C759 C756 1.539 . S
C759 H773 0.958 . S
C759 H774 0.961 . S
C759 H775 0.960 . S
H760 C744 0.931 . S
H761 C749 0.929 . S
H762 C750 0.960 . S
H763 C750 0.962 . S
H764 C750 0.960 . S
H765 C751 0.961 . S
H766 C751 0.961 . S
H767 C751 0.961 . S
H768 C752 0.931 . S
H769 C757 0.930 . S
H770 C758 0.956 . S
H771 C758 0.961 . S
H772 C758 0.961 . S
H773 C759 0.958 . S
H774 C759 0.961 . S
H775 C759 0.960 . S
C776 C777 1.391 . S
C776 C778 1.394 . S
C776 H792 0.931 . S
C777 C776 1.391 . S
C777 C781 1.376 . S
C778 C776 1.394 . S
C778 C779 1.369 . S
C778 C782 1.531 . S
C779 C778 1.369 . S
C779 C780 1.410 . S
C779 C787 1.503 . S
C780 C779 1.410 . S
C780 C781 1.392 . S
C780 C783 1.511 . S
C781 C777 1.376 . S
C781 C780 1.392 . S
C781 H793 0.929 . S
C782 C778 1.531 . S
C782 H794 0.960 . S
C782 H795 0.962 . S
C782 H796 0.960 . S
C783 C780 1.511 . S
C783 H797 0.961 . S
C783 H798 0.961 . S
C783 H799 0.961 . S
C784 C785 1.370 . S
C784 C786 1.363 . S
C784 H800 0.931 . S
C785 C784 1.370 . S
C785 C789 1.408 . S
C786 C784 1.363 . S
C786 C787 1.370 . S
C786 C790 1.524 . S
C787 C779 1.503 . S
C787 C786 1.370 . S
C787 C788 1.403 . S
C788 C787 1.403 . S
C788 C789 1.404 . S
C788 C791 1.539 . S
C789 C785 1.408 . S
C789 C788 1.404 . S
C789 H801 0.930 . S
C790 C786 1.524 . S
C790 H802 0.956 . S
C790 H803 0.961 . S
C790 H804 0.961 . S
C791 C788 1.539 . S
C791 H805 0.958 . S
C791 H806 0.961 . S
C791 H807 0.960 . S
H792 C776 0.931 . S
H793 C781 0.929 . S
H794 C782 0.960 . S
H795 C782 0.962 . S
H796 C782 0.960 . S
H797 C783 0.961 . S
H798 C783 0.961 . S
H799 C783 0.961 . S
H800 C784 0.931 . S
H801 C789 0.930 . S
H802 C790 0.956 . S
H803 C790 0.961 . S
H804 C790 0.961 . S
H805 C791 0.958 . S
H806 C791 0.961 . S
H807 C791 0.960 . S
C808 C809 1.391 . S
C808 C810 1.394 . S
C808 H824 0.931 . S
C809 C808 1.391 . S
C809 C813 1.376 . S
C810 C808 1.394 . S
C810 C811 1.369 . S
C810 C814 1.531 . S
C811 C810 1.369 . S
C811 C812 1.410 . S
C811 C819 1.503 . S
C812 C811 1.410 . S
C812 C813 1.392 . S
C812 C815 1.511 . S
C813 C809 1.376 . S
C813 C812 1.392 . S
C813 H825 0.929 . S
C814 C810 1.531 . S
C814 H826 0.960 . S
C814 H827 0.962 . S
C814 H828 0.960 . S
C815 C812 1.511 . S
C815 H829 0.961 . S
C815 H830 0.961 . S
C815 H831 0.961 . S
C816 C817 1.370 . S
C816 C818 1.363 . S
C816 H832 0.931 . S
C817 C816 1.370 . S
C817 C821 1.408 . S
C818 C816 1.363 . S
C818 C819 1.370 . S
C818 C822 1.524 . S
C819 C811 1.503 . S
C819 C818 1.370 . S
C819 C820 1.403 . S
C820 C819 1.403 . S
C820 C821 1.404 . S
C820 C823 1.539 . S
C821 C817 1.408 . S
C821 C820 1.404 . S
C821 H833 0.930 . S
C822 C818 1.524 . S
C822 H834 0.956 . S
C822 H835 0.961 . S
C822 H836 0.961 . S
C823 C820 1.539 . S
C823 H837 0.958 . S
C823 H838 0.961 . S
C823 H839 0.960 . S
H824 C808 0.931 . S
H825 C813 0.929 . S
H826 C814 0.960 . S
H827 C814 0.962 . S
H828 C814 0.960 . S
H829 C815 0.961 . S
H830 C815 0.961 . S
H831 C815 0.961 . S
H832 C816 0.931 . S
H833 C821 0.930 . S
H834 C822 0.956 . S
H835 C822 0.961 . S
H836 C822 0.961 . S
H837 C823 0.958 . S
H838 C823 0.961 . S
H839 C823 0.960 . S
C840 C841 1.391 . S
C840 C842 1.394 . S
C840 H856 0.931 . S
C841 C840 1.391 . S
C841 C845 1.376 . S
C842 C840 1.394 . S
C842 C843 1.369 . S
C842 C846 1.531 . S
C843 C842 1.369 . S
C843 C844 1.410 . S
C843 C851 1.503 . S
C844 C843 1.410 . S
C844 C845 1.392 . S
C844 C847 1.511 . S
C845 C841 1.376 . S
C845 C844 1.392 . S
C845 H857 0.929 . S
C846 C842 1.531 . S
C846 H858 0.960 . S
C846 H859 0.962 . S
C846 H860 0.960 . S
C847 C844 1.511 . S
C847 H861 0.961 . S
C847 H862 0.961 . S
C847 H863 0.961 . S
C848 C849 1.370 . S
C848 C850 1.363 . S
C848 H864 0.931 . S
C849 C848 1.370 . S
C849 C853 1.408 1_554 S
C850 C848 1.363 . S
C850 C851 1.370 1_554 S
C850 C854 1.524 . S
C851 C843 1.503 . S
C851 C850 1.370 1_556 S
C851 C852 1.403 . S
C852 C851 1.403 . S
C852 C853 1.404 . S
C852 C855 1.539 . S
C853 C849 1.408 1_556 S
C853 C852 1.404 . S
C853 H865 0.930 . S
C854 C850 1.524 . S
C854 H866 0.956 . S
C854 H867 0.961 . S
C854 H868 0.961 . S
C855 C852 1.539 . S
C855 H869 0.958 . S
C855 H870 0.961 . S
C855 H871 0.960 . S
H856 C840 0.931 . S
H857 C845 0.929 . S
H858 C846 0.960 . S
H859 C846 0.962 . S
H860 C846 0.960 . S
H861 C847 0.961 . S
H862 C847 0.961 . S
H863 C847 0.961 . S
H864 C848 0.931 . S
H865 C853 0.930 . S
H866 C854 0.956 . S
H867 C854 0.961 . S
H868 C854 0.961 . S
H869 C855 0.958 . S
H870 C855 0.961 . S
H871 C855 0.960 . S
C872 C873 1.391 . S
C872 C874 1.394 . S
C872 H888 0.931 . S
C873 C872 1.391 . S
C873 C877 1.376 . S
C874 C872 1.394 . S
C874 C875 1.369 . S
C874 C878 1.531 . S
C875 C874 1.369 . S
C875 C876 1.410 . S
C875 C883 1.503 . S
C876 C875 1.410 . S
C876 C877 1.392 . S
C876 C879 1.511 . S
C877 C873 1.376 . S
C877 C876 1.392 . S
C877 H889 0.929 . S
C878 C874 1.531 . S
C878 H890 0.960 . S
C878 H891 0.962 . S
C878 H892 0.960 . S
C879 C876 1.511 . S
C879 H893 0.961 . S
C879 H894 0.961 . S
C879 H895 0.961 . S
C880 C881 1.370 . S
C880 C882 1.363 . S
C880 H896 0.931 . S
C881 C880 1.370 . S
C881 C885 1.408 . S
C882 C880 1.363 . S
C882 C883 1.370 . S
C882 C886 1.524 . S
C883 C875 1.503 . S
C883 C882 1.370 . S
C883 C884 1.403 . S
C884 C883 1.403 . S
C884 C885 1.404 . S
C884 C887 1.539 . S
C885 C881 1.408 . S
C885 C884 1.404 . S
C885 H897 0.930 . S
C886 C882 1.524 . S
C886 H898 0.956 . S
C886 H899 0.961 . S
C886 H900 0.961 . S
C887 C884 1.539 . S
C887 H901 0.958 . S
C887 H902 0.961 . S
C887 H903 0.960 . S
H888 C872 0.931 . S
H889 C877 0.929 . S
H890 C878 0.960 . S
H891 C878 0.962 . S
H892 C878 0.960 . S
H893 C879 0.961 . S
H894 C879 0.961 . S
H895 C879 0.961 . S
H896 C880 0.931 . S
H897 C885 0.930 . S
H898 C886 0.956 . S
H899 C886 0.961 . S
H900 C886 0.961 . S
H901 C887 0.958 . S
H902 C887 0.961 . S
H903 C887 0.960 . S
C904 C905 1.391 . S
C904 C906 1.394 . S
C904 H920 0.931 . S
C905 C904 1.391 . S
C905 C909 1.376 . S
C906 C904 1.394 . S
C906 C907 1.369 . S
C906 C910 1.531 . S
C907 C906 1.369 . S
C907 C908 1.410 . S
C907 C915 1.503 . S
C908 C907 1.410 . S
C908 C909 1.392 . S
C908 C911 1.511 . S
C909 C905 1.376 . S
C909 C908 1.392 . S
C909 H921 0.929 . S
C910 C906 1.531 . S
C910 H922 0.960 . S
C910 H923 0.962 . S
C910 H924 0.960 . S
C911 C908 1.511 . S
C911 H925 0.961 . S
C911 H926 0.961 . S
C911 H927 0.961 . S
C912 C913 1.370 . S
C912 C914 1.363 . S
C912 H928 0.931 . S
C913 C912 1.370 . S
C913 C917 1.408 . S
C914 C912 1.363 . S
C914 C915 1.370 . S
C914 C918 1.524 . S
C915 C907 1.503 . S
C915 C914 1.370 . S
C915 C916 1.403 . S
C916 C915 1.403 . S
C916 C917 1.404 . S
C916 C919 1.539 . S
C917 C913 1.408 . S
C917 C916 1.404 . S
C917 H929 0.930 . S
C918 C914 1.524 . S
C918 H930 0.956 . S
C918 H931 0.961 . S
C918 H932 0.961 . S
C919 C916 1.539 . S
C919 H933 0.958 . S
C919 H934 0.961 . S
C919 H935 0.960 . S
H920 C904 0.931 . S
H921 C909 0.929 . S
H922 C910 0.960 . S
H923 C910 0.962 . S
H924 C910 0.960 . S
H925 C911 0.961 . S
H926 C911 0.961 . S
H927 C911 0.961 . S
H928 C912 0.931 . S
H929 C917 0.930 . S
H930 C918 0.956 . S
H931 C918 0.961 . S
H932 C918 0.961 . S
H933 C919 0.958 . S
H934 C919 0.961 . S
H935 C919 0.960 . S
C936 C937 1.391 . S
C936 C938 1.394 . S
C936 H952 0.931 . S
C937 C936 1.391 . S
C937 C941 1.376 . S
C938 C936 1.394 . S
C938 C939 1.369 . S
C938 C942 1.531 . S
C939 C938 1.369 . S
C939 C940 1.410 . S
C939 C947 1.503 . S
C940 C939 1.410 . S
C940 C941 1.392 . S
C940 C943 1.511 . S
C941 C937 1.376 . S
C941 C940 1.392 . S
C941 H953 0.929 . S
C942 C938 1.531 . S
C942 H954 0.960 . S
C942 H955 0.962 . S
C942 H956 0.960 . S
C943 C940 1.511 . S
C943 H957 0.961 . S
C943 H958 0.961 . S
C943 H959 0.961 . S
C944 C945 1.370 . S
C944 C946 1.363 . S
C944 H960 0.931 . S
C945 C944 1.370 . S
C945 C949 1.408 . S
C946 C944 1.363 . S
C946 C947 1.370 . S
C946 C950 1.524 . S
C947 C939 1.503 . S
C947 C946 1.370 . S
C947 C948 1.403 . S
C948 C947 1.403 . S
C948 C949 1.404 . S
C948 C951 1.539 . S
C949 C945 1.408 . S
C949 C948 1.404 . S
C949 H961 0.930 . S
C950 C946 1.524 . S
C950 H962 0.956 . S
C950 H963 0.961 . S
C950 H964 0.961 . S
C951 C948 1.539 . S
C951 H965 0.958 . S
C951 H966 0.961 . S
C951 H967 0.960 . S
H952 C936 0.931 . S
H953 C941 0.929 . S
H954 C942 0.960 . S
H955 C942 0.962 . S
H956 C942 0.960 . S
H957 C943 0.961 . S
H958 C943 0.961 . S
H959 C943 0.961 . S
H960 C944 0.931 . S
H961 C949 0.930 . S
H962 C950 0.956 . S
H963 C950 0.961 . S
H964 C950 0.961 . S
H965 C951 0.958 . S
H966 C951 0.961 . S
H967 C951 0.960 . S
C968 C969 1.391 . S
C968 C970 1.394 . S
C968 H984 0.931 . S
C969 C968 1.391 . S
C969 C973 1.376 . S
C970 C968 1.394 . S
C970 C971 1.369 . S
C970 C974 1.531 . S
C971 C970 1.369 . S
C971 C972 1.410 . S
C971 C979 1.503 . S
C972 C971 1.410 . S
C972 C973 1.392 . S
C972 C975 1.511 . S
C973 C969 1.376 . S
C973 C972 1.392 . S
C973 H985 0.929 . S
C974 C970 1.531 . S
C974 H986 0.960 . S
C974 H987 0.962 . S
C974 H988 0.960 . S
C975 C972 1.511 . S
C975 H989 0.961 . S
C975 H990 0.961 . S
C975 H991 0.961 . S
C976 C977 1.370 . S
C976 C978 1.363 . S
C976 H992 0.931 . S
C977 C976 1.370 . S
C977 C981 1.408 . S
C978 C976 1.363 . S
C978 C979 1.370 . S
C978 C982 1.524 . S
C979 C971 1.503 . S
C979 C978 1.370 . S
C979 C980 1.403 . S
C980 C979 1.403 . S
C980 C981 1.404 . S
C980 C983 1.539 . S
C981 C977 1.408 . S
C981 C980 1.404 . S
C981 H993 0.930 . S
C982 C978 1.524 . S
C982 H994 0.956 . S
C982 H995 0.961 . S
C982 H996 0.961 . S
C983 C980 1.539 . S
C983 H997 0.958 . S
C983 H998 0.961 . S
C983 H999 0.960 . S
H984 C968 0.931 . S
H985 C973 0.929 . S
H986 C974 0.960 . S
H987 C974 0.962 . S
H988 C974 0.960 . S
H989 C975 0.961 . S
H990 C975 0.961 . S
H991 C975 0.961 . S
H992 C976 0.931 . S
H993 C981 0.930 . S
H994 C982 0.956 . S
H995 C982 0.961 . S
H996 C982 0.961 . S
H997 C983 0.958 . S
H998 C983 0.961 . S
H999 C983 0.960 . S
C1000 C1001 1.391 . S
C1000 C1002 1.394 . S
C1000 H1016 0.931 . S
C1001 C1000 1.391 . S
C1001 C1005 1.376 . S
C1002 C1000 1.394 . S
C1002 C1003 1.369 . S
C1002 C1006 1.531 . S
C1003 C1002 1.369 . S
C1003 C1004 1.410 . S
C1003 C1011 1.503 . S
C1004 C1003 1.410 . S
C1004 C1005 1.392 . S
C1004 C1007 1.511 . S
C1005 C1001 1.376 . S
C1005 C1004 1.392 . S
C1005 H1017 0.929 . S
C1006 C1002 1.531 . S
C1006 H1018 0.960 . S
C1006 H1019 0.962 . S
C1006 H1020 0.960 . S
C1007 C1004 1.511 . S
C1007 H1021 0.961 . S
C1007 H1022 0.961 . S
C1007 H1023 0.961 . S
C1008 C1009 1.370 . S
C1008 C1010 1.363 . S
C1008 H1024 0.931 . S
C1009 C1008 1.370 . S
C1009 C1013 1.408 . S
C1010 C1008 1.363 . S
C1010 C1011 1.370 . S
C1010 C1014 1.524 . S
C1011 C1003 1.503 . S
C1011 C1010 1.370 . S
C1011 C1012 1.403 . S
C1012 C1011 1.403 . S
C1012 C1013 1.404 . S
C1012 C1015 1.539 . S
C1013 C1009 1.408 . S
C1013 C1012 1.404 . S
C1013 H1025 0.930 . S
C1014 C1010 1.524 . S
C1014 H1026 0.956 . S
C1014 H1027 0.961 . S
C1014 H1028 0.961 . S
C1015 C1012 1.539 . S
C1015 H1029 0.958 . S
C1015 H1030 0.961 . S
C1015 H1031 0.960 . S
H1016 C1000 0.931 . S
H1017 C1005 0.929 . S
H1018 C1006 0.960 . S
H1019 C1006 0.962 . S
H1020 C1006 0.960 . S
H1021 C1007 0.961 . S
H1022 C1007 0.961 . S
H1023 C1007 0.961 . S
H1024 C1008 0.931 . S
H1025 C1013 0.930 . S
H1026 C1014 0.956 . S
H1027 C1014 0.961 . S
H1028 C1014 0.961 . S
H1029 C1015 0.958 . S
H1030 C1015 0.961 . S
H1031 C1015 0.960 . S
C1032 C1033 1.391 . S
C1032 C1034 1.394 . S
C1032 H1048 0.931 . S
C1033 C1032 1.391 . S
C1033 C1037 1.376 . S
C1034 C1032 1.394 . S
C1034 C1035 1.369 . S
C1034 C1038 1.531 . S
C1035 C1034 1.369 . S
C1035 C1036 1.410 . S
C1035 C1043 1.503 . S
C1036 C1035 1.410 . S
C1036 C1037 1.392 . S
C1036 C1039 1.511 . S
C1037 C1033 1.376 . S
C1037 C1036 1.392 . S
C1037 H1049 0.929 . S
C1038 C1034 1.531 . S
C1038 H1050 0.960 . S
C1038 H1051 0.962 . S
C1038 H1052 0.960 . S
C1039 C1036 1.511 . S
C1039 H1053 0.961 . S
C1039 H1054 0.961 . S
C1039 H1055 0.961 . S
C1040 C1041 1.370 . S
C1040 C1042 1.363 . S
C1040 H1056 0.931 . S
C1041 C1040 1.370 . S
C1041 C1045 1.408 . S
C1042 C1040 1.363 . S
C1042 C1043 1.370 . S
C1042 C1046 1.524 . S
C1043 C1035 1.503 . S
C1043 C1042 1.370 . S
C1043 C1044 1.403 . S
C1044 C1043 1.403 . S
C1044 C1045 1.404 . S
C1044 C1047 1.539 . S
C1045 C1041 1.408 . S
C1045 C1044 1.404 . S
C1045 H1057 0.930 . S
C1046 C1042 1.524 . S
C1046 H1058 0.956 . S
C1046 H1059 0.961 . S
C1046 H1060 0.961 . S
C1047 C1044 1.539 . S
C1047 H1061 0.958 . S
C1047 H1062 0.961 . S
C1047 H1063 0.960 . S
H1048 C1032 0.931 . S
H1049 C1037 0.929 . S
H1050 C1038 0.960 . S
H1051 C1038 0.962 . S
H1052 C1038 0.960 . S
H1053 C1039 0.961 . S
H1054 C1039 0.961 . S
H1055 C1039 0.961 . S
H1056 C1040 0.931 . S
H1057 C1045 0.930 . S
H1058 C1046 0.956 . S
H1059 C1046 0.961 . S
H1060 C1046 0.961 . S
H1061 C1047 0.958 . S
H1062 C1047 0.961 . S
H1063 C1047 0.960 . S
C1064 C1065 1.391 . S
C1064 C1066 1.394 . S
C1064 H1080 0.931 . S
C1065 C1064 1.391 . S
C1065 C1069 1.376 . S
C1066 C1064 1.394 . S
C1066 C1067 1.369 . S
C1066 C1070 1.531 . S
C1067 C1066 1.369 . S
C1067 C1068 1.410 . S
C1067 C1075 1.503 1_554 S
C1068 C1067 1.410 . S
C1068 C1069 1.392 . S
C1068 C1071 1.511 1_554 S
C1069 C1065 1.376 . S
C1069 C1068 1.392 . S
C1069 H1081 0.929 . S
C1070 C1066 1.531 . S
C1070 H1082 0.960 . S
C1070 H1083 0.962 . S
C1070 H1084 0.960 . S
C1071 C1068 1.511 1_556 S
C1071 H1085 0.961 . S
C1071 H1086 0.961 . S
C1071 H1087 0.961 . S
C1072 C1073 1.370 . S
C1072 C1074 1.363 . S
C1072 H1088 0.931 . S
C1073 C1072 1.370 . S
C1073 C1077 1.408 . S
C1074 C1072 1.363 . S
C1074 C1075 1.370 . S
C1074 C1078 1.524 . S
C1075 C1067 1.503 1_556 S
C1075 C1074 1.370 . S
C1075 C1076 1.403 . S
C1076 C1075 1.403 . S
C1076 C1077 1.404 . S
C1076 C1079 1.539 . S
C1077 C1073 1.408 . S
C1077 C1076 1.404 . S
C1077 H1089 0.930 . S
C1078 C1074 1.524 . S
C1078 H1090 0.956 1_556 S
C1078 H1091 0.961 . S
C1078 H1092 0.961 . S
C1079 C1076 1.539 . S
C1079 H1093 0.958 1_556 S
C1079 H1094 0.961 . S
C1079 H1095 0.960 1_556 S
H1080 C1064 0.931 . S
H1081 C1069 0.929 . S
H1082 C1070 0.960 . S
H1083 C1070 0.962 . S
H1084 C1070 0.960 . S
H1085 C1071 0.961 . S
H1086 C1071 0.961 . S
H1087 C1071 0.961 . S
H1088 C1072 0.931 . S
H1089 C1077 0.930 . S
H1090 C1078 0.956 1_554 S
H1091 C1078 0.961 . S
H1092 C1078 0.961 . S
H1093 C1079 0.958 1_554 S
H1094 C1079 0.961 . S
H1095 C1079 0.960 1_554 S
C1096 C1097 1.391 . S
C1096 C1098 1.394 . S
C1096 H1112 0.931 . S
C1097 C1096 1.391 . S
C1097 C1101 1.376 . S
C1098 C1096 1.394 . S
C1098 C1099 1.369 . S
C1098 C1102 1.531 . S
C1099 C1098 1.369 . S
C1099 C1100 1.410 . S
C1099 C1107 1.503 . S
C1100 C1099 1.410 . S
C1100 C1101 1.392 . S
C1100 C1103 1.511 . S
C1101 C1097 1.376 . S
C1101 C1100 1.392 . S
C1101 H1113 0.929 . S
C1102 C1098 1.531 . S
C1102 H1114 0.960 . S
C1102 H1115 0.962 . S
C1102 H1116 0.960 . S
C1103 C1100 1.511 . S
C1103 H1117 0.961 . S
C1103 H1118 0.961 . S
C1103 H1119 0.961 . S
C1104 C1105 1.370 . S
C1104 C1106 1.363 . S
C1104 H1120 0.931 . S
C1105 C1104 1.370 . S
C1105 C1109 1.408 . S
C1106 C1104 1.363 . S
C1106 C1107 1.370 . S
C1106 C1110 1.524 . S
C1107 C1099 1.503 . S
C1107 C1106 1.370 . S
C1107 C1108 1.403 . S
C1108 C1107 1.403 . S
C1108 C1109 1.404 . S
C1108 C1111 1.539 . S
C1109 C1105 1.408 . S
C1109 C1108 1.404 . S
C1109 H1121 0.930 . S
C1110 C1106 1.524 . S
C1110 H1122 0.956 . S
C1110 H1123 0.961 . S
C1110 H1124 0.961 . S
C1111 C1108 1.539 . S
C1111 H1125 0.958 . S
C1111 H1126 0.961 . S
C1111 H1127 0.960 . S
H1112 C1096 0.931 . S
H1113 C1101 0.929 . S
H1114 C1102 0.960 . S
H1115 C1102 0.962 . S
H1116 C1102 0.960 . S
H1117 C1103 0.961 . S
H1118 C1103 0.961 . S
H1119 C1103 0.961 . S
H1120 C1104 0.931 . S
H1121 C1109 0.930 . S
H1122 C1110 0.956 . S
H1123 C1110 0.961 . S
H1124 C1110 0.961 . S
H1125 C1111 0.958 . S
H1126 C1111 0.961 . S
H1127 C1111 0.960 . S
C369 C353 1.592 . S
C361 C15 1.587 . S
C393 C61 1.452 . S
C401 C282 1.444 . S
C425 C114 1.554 . S
C433 C296 1.580 . S
C457 C139 1.447 . S
C465 C310 1.438 . S
C497 C324 1.576 . S
C489 C185 1.587 . S
C521 C245 1.469 . S
C529 C339 1.425 . S
C553 C47 1.470 . S
C561 C297 1.424 . S
C585 C100 1.596 . S
C593 C311 1.577 . S
C617 C153 1.468 . S
C625 C325 1.423 . S
C657 C338 1.588 . S
C649 C199 1.549 . S
C689 C352 1.444 . S
C681 C231 1.445 . S
C721 C283 1.576 . S
C713 C1 1.595 . S
C745 C22 1.479 . S
C753 C299 1.456 . S
C777 C68 1.686 . S
C785 C313 1.663 . S
C817 C327 1.454 . S
C809 C107 1.475 . S
C841 C146 1.679 . S
C849 C340 1.675 . S
C881 C354 1.463 . S
C873 C192 1.480 . S
C913 C285 1.681 . S
C905 C252 1.673 . S
C945 C355 1.663 . S
C937 C54 1.704 . S
C969 C93 1.480 . S
C977 C284 1.468 . S
C1009 C298 1.674 . S
C1001 C160 1.690 . S
C1033 C206 1.469 . S
C1041 C312 1.456 . S
C1065 C238 1.705 . S
C1073 C326 1.662 . S
C1097 C8 1.476 . S
C1105 C341 1.469 . S
