# Generated by pormake.
# Topology ptr, (4,4)-cn, num edge types: 1
# Building blocks:
#     Node 0, Type 0, BuildingBlock: QUQFOY_clean_sbu_3, # of connection points: 4
#     Node 1, Type 0, BuildingBlock: QUQFOY_clean_sbu_3, # of connection points: 4
#     Node 2, Type 0, BuildingBlock: QUQFOY_clean_sbu_3, # of connection points: 4
#     Node 3, Type 0, BuildingBlock: QUQFOY_clean_sbu_3, # of connection points: 4
#     Node 4, Type 0, BuildingBlock: QUQFOY_clean_sbu_3, # of connection points: 4
#     Node 5, Type 0, BuildingBlock: QUQFOY_clean_sbu_3, # of connection points: 4
#     Node 6, Type 0, BuildingBlock: QUQFOY_clean_sbu_3, # of connection points: 4
#     Node 7, Type 0, BuildingBlock: QUQFOY_clean_sbu_3, # of connection points: 4
#     Node 8, Type 0, BuildingBlock: QUQFOY_clean_sbu_3, # of connection points: 4
#     Node 9, Type 0, BuildingBlock: QUQFOY_clean_sbu_3, # of connection points: 4
#     Node 10, Type 0, BuildingBlock: QUQFOY_clean_sbu_3, # of connection points: 4
#     Node 11, Type 0, BuildingBlock: QUQFOY_clean_sbu_3, # of connection points: 4
#     Node 12, Type 0, BuildingBlock: QUQFOY_clean_sbu_3, # of connection points: 4
#     Node 13, Type 0, BuildingBlock: QUQFOY_clean_sbu_3, # of connection points: 4
#     Node 14, Type 0, BuildingBlock: QUQFOY_clean_sbu_3, # of connection points: 4
#     Node 15, Type 0, BuildingBlock: QUQFOY_clean_sbu_3, # of connection points: 4
#     Node 16, Type 0, BuildingBlock: QUQFOY_clean_sbu_3, # of connection points: 4
#     Node 17, Type 0, BuildingBlock: QUQFOY_clean_sbu_3, # of connection points: 4
#     Node 18, Type 1, BuildingBlock: NAHDIM_clean_linker_0, # of connection points: 4
#     Node 19, Type 1, BuildingBlock: NAHDIM_clean_linker_0, # of connection points: 4
#     Node 20, Type 1, BuildingBlock: NAHDIM_clean_linker_0, # of connection points: 4
#     Node 21, Type 1, BuildingBlock: NAHDIM_clean_linker_0, # of connection points: 4
#     Node 22, Type 1, BuildingBlock: NAHDIM_clean_linker_0, # of connection points: 4
#     Node 23, Type 1, BuildingBlock: NAHDIM_clean_linker_0, # of connection points: 4
#     Node 24, Type 1, BuildingBlock: NAHDIM_clean_linker_0, # of connection points: 4
#     Node 25, Type 1, BuildingBlock: NAHDIM_clean_linker_0, # of connection points: 4
#     Node 26, Type 1, BuildingBlock: NAHDIM_clean_linker_0, # of connection points: 4
#     Node 27, Type 1, BuildingBlock: NAHDIM_clean_linker_0, # of connection points: 4
#     Node 28, Type 1, BuildingBlock: NAHDIM_clean_linker_0, # of connection points: 4
#     Node 29, Type 1, BuildingBlock: NAHDIM_clean_linker_0, # of connection points: 4
#     Node 30, Type 1, BuildingBlock: NAHDIM_clean_linker_0, # of connection points: 4
#     Node 31, Type 1, BuildingBlock: NAHDIM_clean_linker_0, # of connection points: 4
#     Node 32, Type 1, BuildingBlock: NAHDIM_clean_linker_0, # of connection points: 4
#     Node 33, Type 1, BuildingBlock: NAHDIM_clean_linker_0, # of connection points: 4
#     Node 34, Type 1, BuildingBlock: NAHDIM_clean_linker_0, # of connection points: 4
#     Node 35, Type 1, BuildingBlock: NAHDIM_clean_linker_0, # of connection points: 4
#     Edge 36, Type (0, 1), BuildingBlock: ZUJKAS_clean_linker_0, # of connection points: 2
#     Edge 37, Type (0, 1), BuildingBlock: ZUJKAS_clean_linker_0, # of connection points: 2
#     Edge 38, Type (0, 1), BuildingBlock: ZUJKAS_clean_linker_0, # of connection points: 2
#     Edge 39, Type (0, 1), BuildingBlock: ZUJKAS_clean_linker_0, # of connection points: 2
#     Edge 40, Type (0, 1), BuildingBlock: ZUJKAS_clean_linker_0, # of connection points: 2
#     Edge 41, Type (0, 1), BuildingBlock: ZUJKAS_clean_linker_0, # of connection points: 2
#     Edge 42, Type (0, 1), BuildingBlock: ZUJKAS_clean_linker_0, # of connection points: 2
#     Edge 43, Type (0, 1), BuildingBlock: ZUJKAS_clean_linker_0, # of connection points: 2
#     Edge 44, Type (0, 1), BuildingBlock: ZUJKAS_clean_linker_0, # of connection points: 2
#     Edge 45, Type (0, 1), BuildingBlock: ZUJKAS_clean_linker_0, # of connection points: 2
#     Edge 46, Type (0, 1), BuildingBlock: ZUJKAS_clean_linker_0, # of connection points: 2
#     Edge 47, Type (0, 1), BuildingBlock: ZUJKAS_clean_linker_0, # of connection points: 2
#     Edge 48, Type (0, 1), BuildingBlock: ZUJKAS_clean_linker_0, # of connection points: 2
#     Edge 49, Type (0, 1), BuildingBlock: ZUJKAS_clean_linker_0, # of connection points: 2
#     Edge 50, Type (0, 1), BuildingBlock: ZUJKAS_clean_linker_0, # of connection points: 2
#     Edge 51, Type (0, 1), BuildingBlock: ZUJKAS_clean_linker_0, # of connection points: 2
#     Edge 52, Type (0, 1), BuildingBlock: ZUJKAS_clean_linker_0, # of connection points: 2
#     Edge 53, Type (0, 1), BuildingBlock: ZUJKAS_clean_linker_0, # of connection points: 2
#     Edge 54, Type (0, 1), BuildingBlock: ZUJKAS_clean_linker_0, # of connection points: 2
#     Edge 55, Type (0, 1), BuildingBlock: ZUJKAS_clean_linker_0, # of connection points: 2
#     Edge 56, Type (0, 1), BuildingBlock: ZUJKAS_clean_linker_0, # of connection points: 2
#     Edge 57, Type (0, 1), BuildingBlock: ZUJKAS_clean_linker_0, # of connection points: 2
#     Edge 58, Type (0, 1), BuildingBlock: ZUJKAS_clean_linker_0, # of connection points: 2
#     Edge 59, Type (0, 1), BuildingBlock: ZUJKAS_clean_linker_0, # of connection points: 2
#     Edge 60, Type (0, 1), BuildingBlock: ZUJKAS_clean_linker_0, # of connection points: 2
#     Edge 61, Type (0, 1), BuildingBlock: ZUJKAS_clean_linker_0, # of connection points: 2
#     Edge 62, Type (0, 1), BuildingBlock: ZUJKAS_clean_linker_0, # of connection points: 2
#     Edge 63, Type (0, 1), BuildingBlock: ZUJKAS_clean_linker_0, # of connection points: 2
#     Edge 64, Type (0, 1), BuildingBlock: ZUJKAS_clean_linker_0, # of connection points: 2
#     Edge 65, Type (0, 1), BuildingBlock: ZUJKAS_clean_linker_0, # of connection points: 2
#     Edge 66, Type (0, 1), BuildingBlock: ZUJKAS_clean_linker_0, # of connection points: 2
#     Edge 67, Type (0, 1), BuildingBlock: ZUJKAS_clean_linker_0, # of connection points: 2
#     Edge 68, Type (0, 1), BuildingBlock: ZUJKAS_clean_linker_0, # of connection points: 2
#     Edge 69, Type (0, 1), BuildingBlock: ZUJKAS_clean_linker_0, # of connection points: 2
#     Edge 70, Type (0, 1), BuildingBlock: ZUJKAS_clean_linker_0, # of connection points: 2
#     Edge 71, Type (0, 1), BuildingBlock: ZUJKAS_clean_linker_0, # of connection points: 2
#     Edge 72, Type (0, 1), BuildingBlock: ZUJKAS_clean_linker_0, # of connection points: 2
#     Edge 73, Type (0, 1), BuildingBlock: ZUJKAS_clean_linker_0, # of connection points: 2
#     Edge 74, Type (0, 1), BuildingBlock: ZUJKAS_clean_linker_0, # of connection points: 2
#     Edge 75, Type (0, 1), BuildingBlock: ZUJKAS_clean_linker_0, # of connection points: 2
#     Edge 76, Type (0, 1), BuildingBlock: ZUJKAS_clean_linker_0, # of connection points: 2
#     Edge 77, Type (0, 1), BuildingBlock: ZUJKAS_clean_linker_0, # of connection points: 2
#     Edge 78, Type (0, 1), BuildingBlock: ZUJKAS_clean_linker_0, # of connection points: 2
#     Edge 79, Type (0, 1), BuildingBlock: ZUJKAS_clean_linker_0, # of connection points: 2
#     Edge 80, Type (0, 1), BuildingBlock: ZUJKAS_clean_linker_0, # of connection points: 2
#     Edge 81, Type (0, 1), BuildingBlock: ZUJKAS_clean_linker_0, # of connection points: 2
#     Edge 82, Type (0, 1), BuildingBlock: ZUJKAS_clean_linker_0, # of connection points: 2
#     Edge 83, Type (0, 1), BuildingBlock: ZUJKAS_clean_linker_0, # of connection points: 2
#     Edge 84, Type (0, 1), BuildingBlock: ZUJKAS_clean_linker_0, # of connection points: 2
#     Edge 85, Type (0, 1), BuildingBlock: ZUJKAS_clean_linker_0, # of connection points: 2
#     Edge 86, Type (0, 1), BuildingBlock: ZUJKAS_clean_linker_0, # of connection points: 2
#     Edge 87, Type (0, 1), BuildingBlock: ZUJKAS_clean_linker_0, # of connection points: 2
#     Edge 88, Type (0, 1), BuildingBlock: ZUJKAS_clean_linker_0, # of connection points: 2
#     Edge 89, Type (0, 1), BuildingBlock: ZUJKAS_clean_linker_0, # of connection points: 2
#     Edge 90, Type (0, 1), BuildingBlock: ZUJKAS_clean_linker_0, # of connection points: 2
#     Edge 91, Type (0, 1), BuildingBlock: ZUJKAS_clean_linker_0, # of connection points: 2
#     Edge 92, Type (0, 1), BuildingBlock: ZUJKAS_clean_linker_0, # of connection points: 2
#     Edge 93, Type (0, 1), BuildingBlock: ZUJKAS_clean_linker_0, # of connection points: 2
#     Edge 94, Type (0, 1), BuildingBlock: ZUJKAS_clean_linker_0, # of connection points: 2
#     Edge 95, Type (0, 1), BuildingBlock: ZUJKAS_clean_linker_0, # of connection points: 2
#     Edge 96, Type (0, 1), BuildingBlock: ZUJKAS_clean_linker_0, # of connection points: 2
#     Edge 97, Type (0, 1), BuildingBlock: ZUJKAS_clean_linker_0, # of connection points: 2
#     Edge 98, Type (0, 1), BuildingBlock: ZUJKAS_clean_linker_0, # of connection points: 2
#     Edge 99, Type (0, 1), BuildingBlock: ZUJKAS_clean_linker_0, # of connection points: 2
#     Edge 100, Type (0, 1), BuildingBlock: ZUJKAS_clean_linker_0, # of connection points: 2
#     Edge 101, Type (0, 1), BuildingBlock: ZUJKAS_clean_linker_0, # of connection points: 2
#     Edge 102, Type (0, 1), BuildingBlock: ZUJKAS_clean_linker_0, # of connection points: 2
#     Edge 103, Type (0, 1), BuildingBlock: ZUJKAS_clean_linker_0, # of connection points: 2
#     Edge 104, Type (0, 1), BuildingBlock: ZUJKAS_clean_linker_0, # of connection points: 2
#     Edge 105, Type (0, 1), BuildingBlock: ZUJKAS_clean_linker_0, # of connection points: 2
#     Edge 106, Type (0, 1), BuildingBlock: ZUJKAS_clean_linker_0, # of connection points: 2
#     Edge 107, Type (0, 1), BuildingBlock: ZUJKAS_clean_linker_0, # of connection points: 2
# Relax obj value: 0.029
# Max RMSD: 0.171
# Mean RMSD: 0.059
data_MOF--net-ptr--node1-QUQFOY_clean_sbu_3--node2-NAHDIM_clean_linker_0--edge1-ZUJKAS_clean_linker_0
_symmetry_space_group_name_H-M    P1
_symmetry_Int_Tables_number       1
_symmetry_cell_setting            triclinic
loop_
_symmetry_equiv_pos_as_xyz
'x, y, z'
_cell_length_a     115.13528
_cell_length_b     115.24151
_cell_length_c     98.341017
_cell_angle_alpha  91.047836
_cell_angle_beta   89.860429
_cell_angle_gamma 120.65891
loop_
_atom_site_label
_atom_site_type_symbol
_atom_site_fract_x
_atom_site_fract_y
_atom_site_fract_z
_atom_type_partial_charge
C0 C 0.97839 0.31626 0.99225 0.0
O1 O 0.97126 0.32122 0.99612 0.0
Cd2 Cd 0.98041 0.34236 0.00832 0.0
O3 O 0.99089 0.32216 0.99533 0.0
Cd4 Cd 0.00811 0.34219 0.00833 0.0
C5 C 0.00573 0.36252 0.98588 0.0
O6 O 0.99405 0.34292 0.02675 0.0
O7 O 0.01361 0.36073 0.02402 0.0
O8 O 0.01397 0.32674 0.01821 0.0
C9 C 0.00288 0.35466 0.0309 0.0
O10 O 0.99473 0.35922 0.992 0.0
C11 C 0.02666 0.33426 0.01709 0.0
O12 O 0.01262 0.35705 0.98885 0.0
O13 O 0.03091 0.3455 0.01132 0.0
C14 C 0.65455 0.68009 0.03153 0.0
O15 O 0.64194 0.67481 0.02959 0.0
Cd16 Cd 0.62873 0.6543 0.01666 0.0
O17 O 0.66093 0.67492 0.02599 0.0
Cd18 Cd 0.65701 0.6561 0.01033 0.0
C19 C 0.63715 0.63379 0.03407 0.0
O20 O 0.64022 0.65667 0.9957 0.0
O21 O 0.64291 0.63958 0.99278 0.0
O22 O 0.67764 0.67266 -0.00067 0.0
C23 C 0.63722 0.64596 0.98903 0.0
O24 O 0.6285 0.63705 0.03084 0.0
C25 C 0.68329 0.66565 -0.00073 0.0
O26 O 0.6488 0.63953 0.02863 0.0
O27 O 0.67677 0.65408 0.00458 0.0
C28 C 0.31674 0.97309 0.01529 0.0
O29 O 0.32142 0.96556 0.01206 0.0
Cd30 Cd 0.34373 0.97449 0.00294 0.0
O31 O 0.32347 0.98565 0.01287 0.0
Cd32 Cd 0.34486 0.00237 0.00221 0.0
C33 C 0.36294 0.99918 0.02706 0.0
O34 O 0.34758 0.98892 0.98423 0.0
O35 O 0.36524 0.00798 0.99005 0.0
O36 O 0.33424 0.01005 0.98651 0.0
C37 C 0.35986 0.99774 0.9821 0.0
O38 O 0.35929 0.98787 0.0212 0.0
C39 C 0.33876 0.02167 0.99186 0.0
O40 O 0.3586 0.00671 0.02288 0.0
O41 O 0.34618 0.02453 0.0024 0.0
C42 C 0.97135 0.66069 0.00423 0.0
O43 O 0.96336 0.64873 0.00803 0.0
Cd44 Cd 0.9723 0.63549 0.01694 0.0
O45 O 0.98397 0.66623 0.00646 0.0
Cd46 Cd 0.00073 0.66241 0.01792 0.0
C47 C 0.99619 0.64075 0.99245 0.0
O48 O 0.98717 0.64685 0.03582 0.0
O49 O 0.00631 0.64841 0.03123 0.0
O50 O 0.00678 0.68272 0.03075 0.0
C51 C 0.99587 0.64356 0.03862 0.0
O52 O 0.98498 0.63312 0.99826 0.0
C53 C 0.01924 0.68903 0.02785 0.0
O54 O 0.00415 0.65271 0.99695 0.0
O55 O 0.02336 0.68296 0.02005 0.0
C56 C 0.32622 0.35184 0.0198 0.0
O57 O 0.33166 0.36451 0.01861 0.0
Cd58 Cd 0.35258 0.37751 0.00686 0.0
O59 O 0.33152 0.34561 0.01416 0.0
Cd60 Cd 0.35073 0.34988 -0.00077 0.0
C61 C 0.37268 0.36844 0.02428 0.0
O62 O 0.35014 0.36677 0.98507 0.0
O63 O 0.36786 0.36504 0.9831 0.0
O64 O 0.33327 0.329 0.98881 0.0
C65 C 0.36112 0.37023 0.97899 0.0
O66 O 0.36984 0.37742 0.02126 0.0
C67 C 0.3405 0.32374 0.98688 0.0
O68 O 0.36661 0.35687 0.01839 0.0
O69 O 0.35276 0.33063 0.99074 0.0
C70 C 0.68862 0.02781 0.0045 0.0
O71 O 0.68378 0.03535 0.007 0.0
Cd72 Cd 0.66103 0.02592 0.01519 0.0
O73 O 0.6817 0.01524 0.00682 0.0
Cd74 Cd 0.65993 0.99781 0.01606 0.0
C75 C 0.64343 0.00191 0.98996 0.0
O76 O 0.65712 0.01124 0.03384 0.0
O77 O 0.63974 0.99163 0.02905 0.0
O78 O 0.6734 0.99192 0.02972 0.0
C79 C 0.64504 0.00223 0.03649 0.0
O80 O 0.64666 0.01304 0.996 0.0
C81 C 0.66775 0.97963 0.02601 0.0
O82 O 0.64746 0.99425 0.99453 0.0
O83 O 0.65818 0.97549 0.01734 0.0
C84 C 0.64038 0.65504 0.32131 0.0
O85 O 0.63341 0.66069 0.32249 0.0
Cd86 Cd 0.64055 0.68113 0.33545 0.0
O87 O 0.65176 0.66 0.32736 0.0
Cd88 Cd 0.66659 0.67931 0.34274 0.0
C89 C 0.67029 0.70202 0.31909 0.0
O90 O 0.64876 0.67866 0.35687 0.0
O91 O 0.66873 0.69588 0.36001 0.0
O92 O 0.67111 0.66364 0.3546 0.0
C93 C 0.65646 0.68941 0.36357 0.0
O94 O 0.65835 0.69907 0.32218 0.0
C95 C 0.68388 0.67103 0.35445 0.0
O96 O 0.67559 0.69575 0.32435 0.0
O97 O 0.68873 0.68232 0.34864 0.0
C98 C 0.31928 0.01184 0.36954 0.0
O99 O 0.30656 0.00663 0.36877 0.0
Cd100 Cd 0.29156 0.98599 0.35669 0.0
O101 O 0.325 0.00617 0.36361 0.0
Cd102 Cd 0.31803 0.98552 0.34947 0.0
C103 C 0.29787 0.96435 0.37399 0.0
O104 O 0.30149 0.98691 0.33499 0.0
O105 O 0.30229 0.96866 0.33304 0.0
O106 O 0.33866 0.9978 0.33612 0.0
C107 C 0.29754 0.97574 0.32883 0.0
O108 O 0.28933 0.96774 0.37075 0.0
C109 C 0.34245 0.98932 0.33779 0.0
O110 O 0.30947 0.96994 0.3685 0.0
O111 O 0.33504 0.97928 0.34516 0.0
C112 C 0.99459 0.30739 0.35703 0.0
O113 O -0.00041 0.2998 0.35621 0.0
Cd114 Cd 0.02076 0.30627 0.3455 0.0
O115 O 0.00065 0.31901 0.35171 0.0
Cd116 Cd 0.02147 0.33292 0.33842 0.0
C117 C 0.04205 0.33473 0.364 0.0
O118 O 0.02059 0.31508 0.32357 0.0
O119 O 0.03887 0.33455 0.32306 0.0
O120 O 0.00912 0.34074 0.32479 0.0
C121 C 0.03197 0.32267 0.31817 0.0
O122 O 0.0385 0.32259 0.36083 0.0
C123 C 0.01756 0.3532 0.32677 0.0
O124 O 0.0368 0.34065 0.35799 0.0
O125 O 0.02765 0.35618 0.33434 0.0
C126 C 0.64187 0.97327 0.32883 0.0
O127 O 0.63585 0.96064 0.33071 0.0
Cd128 Cd 0.64491 0.95004 0.34416 0.0
O129 O 0.65332 0.98114 0.33441 0.0
Cd130 Cd 0.66974 0.9797 0.34985 0.0
C131 C 0.6744 0.96022 0.32673 0.0
O132 O 0.6528 0.96326 0.36475 0.0
O133 O 0.67283 0.96661 0.36771 0.0
O134 O 0.67296 0.00034 0.36067 0.0
C135 C 0.66069 0.96105 0.37168 0.0
O136 O 0.6628 0.95071 0.33024 0.0
C137 C 0.68575 0.00687 0.3601 0.0
O138 O 0.6792 0.97209 0.33174 0.0
O139 O 0.69125 0.00078 0.35468 0.0
C140 C 0.99316 0.69039 0.35997 0.0
O141 O 0.99822 0.70306 0.3594 0.0
Cd142 Cd 0.01945 0.71753 0.34883 0.0
O143 O -0.00081 0.68483 0.35445 0.0
Cd144 Cd 0.01995 0.69185 0.34085 0.0
C145 C 0.04041 0.71049 0.36689 0.0
O146 O 0.01854 0.70821 0.32647 0.0
O147 O 0.03745 0.70858 0.32594 0.0
O148 O 0.00622 0.67109 0.32756 0.0
C149 C 0.02995 0.71256 0.32098 0.0
O150 O 0.03706 0.71912 0.36402 0.0
C151 C 0.01484 0.66734 0.32765 0.0
O152 O 0.03506 0.69918 0.36055 0.0
O153 O 0.02578 0.67488 0.33411 0.0
C154 C 0.34409 0.36028 0.3279 0.0
O155 O 0.33838 0.36719 0.32919 0.0
Cd156 Cd 0.31729 0.3592 0.34068 0.0
O157 O 0.33894 0.3487 0.33325 0.0
Cd158 Cd 0.3194 0.33342 0.34764 0.0
C159 C 0.29709 0.32953 0.32286 0.0
O160 O 0.31938 0.35087 0.36209 0.0
O161 O 0.30238 0.33072 0.36438 0.0
O162 O 0.33515 0.32969 0.36058 0.0
C163 C 0.30862 0.34297 0.36834 0.0
O164 O 0.3001 0.34153 0.32596 0.0
C165 C 0.32864 0.31693 0.35933 0.0
O166 O 0.30305 0.32417 0.32868 0.0
O167 O 0.3177 0.31167 0.3525 0.0
C168 C 0.30738 0.98828 0.6557 0.0
O169 O 0.29997 0.99348 0.65643 0.0
Cd170 Cd 0.306 0.01443 0.66772 0.0
O171 O 0.31902 0.99415 0.66135 0.0
Cd172 Cd 0.33324 0.01523 0.67498 0.0
C173 C 0.33436 0.03588 0.65001 0.0
O174 O 0.31546 0.01447 0.68938 0.0
O175 O 0.3349 0.03278 0.69058 0.0
O176 O 0.3416 0.00422 0.68991 0.0
C177 C 0.32297 0.02591 0.69501 0.0
O178 O 0.32221 0.03216 0.65305 0.0
C179 C 0.35397 0.01205 0.68716 0.0
O180 O 0.34051 0.03075 0.65585 0.0
O181 O 0.35663 0.02106 0.67845 0.0
C182 C 0.97889 0.33524 0.69213 0.0
O183 O 0.96637 0.32787 0.68948 0.0
Cd184 Cd 0.95682 0.30866 0.67447 0.0
O185 O 0.98744 0.33275 0.68659 0.0
Cd186 Cd 0.98731 0.31589 0.67026 0.0
C187 C 0.96779 0.29027 0.69147 0.0
O188 O 0.97079 0.31569 0.65481 0.0
O189 O 0.97569 0.30028 0.65078 0.0
O190 O 0.00849 0.33433 0.66155 0.0
C191 C 0.96942 0.30612 0.64717 0.0
O192 O 0.95794 0.29141 0.68737 0.0
C193 C 0.01471 0.32786 0.66141 0.0
O194 O 0.97978 0.2984 0.68753 0.0
O195 O 0.00828 0.31586 0.66569 0.0
C196 C 0.6569 0.64114 0.68904 0.0
O197 O 0.66236 0.63414 0.68669 0.0
Cd198 Cd 0.68323 0.64245 0.6747 0.0
O199 O 0.66195 0.65295 0.68426 0.0
Cd200 Cd 0.68085 0.6686 0.66943 0.0
C201 C 0.70371 0.67177 0.69312 0.0
O202 O 0.68101 0.65182 0.65409 0.0
O203 O 0.69798 0.6721 0.65256 0.0
O204 O 0.66573 0.6732 0.65637 0.0
C205 C 0.69185 0.66 0.64812 0.0
O206 O 0.70056 0.65981 0.68961 0.0
C207 C 0.67192 0.68578 0.65898 0.0
O208 O 0.6977 0.67733 0.68784 0.0
O209 O 0.68229 0.69046 0.66664 0.0
C210 C 0.31161 0.32049 0.66557 0.0
O211 O 0.30378 0.30781 0.66615 0.0
Cd212 Cd 0.31056 0.29354 0.67664 0.0
O213 O 0.32328 0.32612 0.6711 0.0
Cd214 Cd 0.33771 0.32042 0.68482 0.0
C215 C 0.33945 0.30201 0.65851 0.0
O216 O 0.31991 0.30317 0.69858 0.0
O217 O 0.3392 0.30429 0.69964 0.0
O218 O 0.34242 0.33967 0.69918 0.0
C219 C 0.32721 0.29915 0.70396 0.0
O220 O 0.32723 0.29342 0.66131 0.0
C221 C 0.35516 0.3459 0.698 0.0
O222 O 0.34576 0.31322 0.66506 0.0
O223 O 0.36002 0.3402 0.69068 0.0
C224 C 0.66996 0.03111 0.68417 0.0
O225 O 0.67758 0.04368 0.68236 0.0
Cd226 Cd 0.69763 0.05345 0.66895 0.0
O227 O 0.67264 0.02267 0.67859 0.0
Cd228 Cd 0.69004 0.02289 0.66327 0.0
C229 C 0.71522 0.04162 0.68618 0.0
O230 O 0.69126 0.04012 0.6485 0.0
O231 O 0.70604 0.03437 0.64446 0.0
O232 O 0.67141 0.00231 0.65308 0.0
C233 C 0.7008 0.04129 0.64113 0.0
O234 O 0.71435 0.05167 0.68245 0.0
C235 C 0.67732 0.99555 0.65332 0.0
O236 O 0.70706 0.02979 0.68151 0.0
O237 O 0.68916 0.00144 0.6584 0.0
C238 C 0.00713 0.69499 0.65969 0.0
O239 O 0.0021 0.70256 0.65999 0.0
Cd240 Cd 0.98084 0.69619 0.67047 0.0
O241 O 0.00099 0.68349 0.66525 0.0
Cd242 Cd 0.97987 0.66957 0.67819 0.0
C243 C 0.95967 0.66763 0.6521 0.0
O244 O 0.98096 0.68766 0.69258 0.0
O245 O 0.96243 0.66842 0.69342 0.0
O246 O 0.99236 0.66249 0.69249 0.0
C247 C 0.96959 0.68035 0.69812 0.0
O248 O 0.96318 0.67977 0.65516 0.0
C249 C 0.98437 0.64993 0.69061 0.0
O250 O 0.96484 0.66172 0.65832 0.0
O251 O 0.97432 0.64645 0.68278 0.0
C252 C 0.1875 0.25994 0.06587 0.0
C253 C 0.19351 0.27243 0.07525 0.0
C254 C 0.18599 0.27235 0.09823 0.0
C255 C 0.19001 0.28596 0.10017 0.0
C256 C 0.18322 0.28982 0.10941 0.0
C257 C 0.17198 0.27979 0.11658 0.0
C258 C 0.16814 0.26604 0.11483 0.0
C259 C 0.17545 0.26255 0.1059 0.0
C260 C 0.18785 0.30459 0.11118 0.0
C261 C 0.15599 0.25495 0.12193 0.0
C262 C 0.0928 0.29831 0.08102 0.0
C263 C 0.09888 0.29182 0.08895 0.0
C264 C 0.12014 0.29744 0.10014 0.0
C265 C 0.11527 0.28463 0.10571 0.0
C266 C 0.12363 0.28196 0.11383 0.0
C267 C 0.13704 0.2924 0.11667 0.0
C268 C 0.14188 0.30536 0.11128 0.0
C269 C 0.13338 0.30767 0.103 0.0
C270 C 0.11818 0.26796 0.11924 0.0
C271 C 0.15608 0.31674 0.11419 0.0
C272 C 0.11211 0.28909 0.20353 0.0
C273 C 0.10928 0.27703 0.19682 0.0
C274 C 0.11952 0.27598 0.19017 0.0
C275 C 0.13281 0.28726 0.19004 0.0
C276 C 0.13573 0.29935 0.19691 0.0
C277 C 0.12534 0.30006 0.20363 0.0
C278 C 0.11607 0.26284 0.18313 0.0
C279 C 0.14978 0.31156 0.19693 0.0
C280 C 0.20877 0.25832 0.20259 0.0
C281 C 0.20726 0.26996 0.20816 0.0
C282 C 0.1861 0.26956 0.2043 0.0
C283 C 0.1727 0.26007 0.20103 0.0
C284 C 0.16454 0.26379 0.19399 0.0
C285 C 0.16988 0.27743 0.19046 0.0
C286 C 0.18324 0.28722 0.19437 0.0
C287 C 0.19125 0.28317 0.20123 0.0
C288 C 0.15029 0.25309 0.19014 0.0
C289 C 0.18908 0.30191 0.19119 0.0
C290 C 0.16354 0.28355 0.12488 0.0
C291 C 0.15489 0.2866 0.11792 0.0
C292 C 0.14613 0.28961 0.12488 0.0
C293 C 0.14583 0.28945 0.13925 0.0
C294 C 0.13703 0.29227 0.14659 0.0
C295 C 0.13635 0.29146 0.16069 0.0
C296 C 0.14455 0.28793 0.16801 0.0
C297 C 0.14349 0.28649 0.18229 0.0
C298 C 0.15206 0.28337 0.18931 0.0
C299 C 0.16155 0.28136 0.18243 0.0
C300 C 0.1625 0.2824 0.16809 0.0
C301 C 0.17169 0.28011 0.16077 0.0
C302 C 0.17226 0.28075 0.14664 0.0
C303 C 0.16354 0.28353 0.13927 0.0
C304 C 0.15449 0.28628 0.14646 0.0
C305 C 0.15392 0.28564 0.16087 0.0
C306 C 0.08232 0.28217 0.19649 0.0
C307 C 0.08867 0.28176 0.21002 0.0
O308 O 0.19183 0.2684 0.08866 0.0
O309 O 0.19371 0.26526 0.21053 0.0
O310 O 0.1025 0.29069 0.20992 0.0
O311 O 0.11247 0.30033 0.09194 0.0
H312 H 0.18771 0.27755 0.07314 0.0
H313 H 0.17652 0.25349 0.06783 0.0
H314 H 0.19236 0.25389 0.06766 0.0
H315 H 0.18884 0.26295 0.05504 0.0
H316 H 0.19837 0.29354 0.09436 0.0
H317 H 0.17251 0.25207 0.10432 0.0
H318 H 0.18082 0.30677 0.1056 0.0
H319 H 0.19818 0.31116 0.10716 0.0
H320 H 0.18772 0.30722 0.12208 0.0
H321 H 0.15317 0.24478 0.11787 0.0
H322 H 0.14717 0.25633 0.12085 0.0
H323 H 0.15824 0.25534 0.13295 0.0
H324 H 0.09649 0.28172 0.08493 0.0
H325 H 0.08972 0.29262 0.071 0.0
H326 H 0.10145 0.30775 0.07664 0.0
H327 H 0.07883 0.29863 0.09449 0.0
H328 H 0.10501 0.2766 0.10368 0.0
H329 H 0.13704 0.31753 0.0987 0.0
H330 H 0.11772 0.26829 0.13051 0.0
H331 H 0.12504 0.26416 0.11652 0.0
H332 H 0.10791 0.2607 0.11524 0.0
H333 H 0.15788 0.32653 0.11036 0.0
H334 H 0.16337 0.31442 0.10928 0.0
H335 H 0.15812 0.31777 0.12531 0.0
H336 H 0.08656 0.27135 0.2117 0.0
H337 H 0.09914 0.2684 0.19663 0.0
H338 H 0.12745 0.30931 0.20886 0.0
H339 H 0.11689 0.26424 0.17196 0.0
H340 H 0.10568 0.25459 0.18546 0.0
H341 H 0.12334 0.25972 0.1862 0.0
H342 H 0.15032 0.32035 0.2024 0.0
H343 H 0.15318 0.31444 0.18631 0.0
H344 H 0.1569 0.3091 0.20186 0.0
H345 H 0.21126 0.2778 0.20021 0.0
H346 H 0.21957 0.26183 0.2006 0.0
H347 H 0.20307 0.25444 0.19286 0.0
H348 H 0.20476 0.24991 0.20989 0.0
H349 H 0.16877 0.24963 0.20368 0.0
H350 H 0.20146 0.29064 0.20427 0.0
H351 H 0.1487 0.25324 0.17902 0.0
H352 H 0.14306 0.25529 0.1954 0.0
H353 H 0.14795 0.24282 0.19289 0.0
H354 H 0.19918 0.30843 0.19595 0.0
H355 H 0.18218 0.30538 0.19481 0.0
H356 H 0.19004 0.30322 0.18001 0.0
H357 H 0.15483 0.28645 0.10688 0.0
H358 H 0.13043 0.29496 0.14149 0.0
H359 H 0.12926 0.29357 0.16577 0.0
H360 H 0.15113 0.2822 0.20026 0.0
H361 H 0.17849 0.27769 0.16588 0.0
H362 H 0.17951 0.27889 0.14155 0.0
H363 H 0.07122 0.27512 0.19663 0.0
H364 H 0.08652 0.27907 0.18794 0.0
H365 H 0.08439 0.29253 0.1946 0.0
C366 C 0.74459 0.91877 0.07244 0.0
C367 C 0.73185 0.91219 0.08112 0.0
C368 C 0.73199 0.90584 0.1044 0.0
C369 C 0.71851 0.8957 0.10612 0.0
C370 C 0.71507 0.88549 0.11558 0.0
C371 C 0.72539 0.88526 0.12318 0.0
C372 C 0.73901 0.89572 0.12163 0.0
C373 C 0.74206 0.90609 0.11248 0.0
C374 C 0.70042 0.87472 0.11711 0.0
C375 C 0.75041 0.8957 0.12915 0.0
C376 C 0.70968 0.78524 0.09339 0.0
C377 C 0.7164 0.79925 0.09904 0.0
C378 C 0.71022 0.81516 0.10842 0.0
C379 C 0.72317 0.82446 0.11353 0.0
C380 C 0.72548 0.83594 0.12101 0.0
C381 C 0.71461 0.83808 0.12356 0.0
C382 C 0.70159 0.82878 0.11839 0.0
C383 C 0.69959 0.81746 0.11082 0.0
C384 C 0.73954 0.84577 0.12621 0.0
C385 C 0.68978 0.83076 0.12095 0.0
C386 C 0.71746 0.81822 0.2098 0.0
C387 C 0.72977 0.82811 0.20422 0.0
C388 C 0.73083 0.8394 0.19784 0.0
C389 C 0.71936 0.84083 0.19694 0.0
C390 C 0.70705 0.83108 0.2028 0.0
C391 C 0.70629 0.81992 0.20919 0.0
C392 C 0.74415 0.84967 0.19176 0.0
C393 C 0.69463 0.83229 0.202 0.0
C394 C 0.74872 0.94785 0.20885 0.0
C395 C 0.73738 0.93397 0.21321 0.0
C396 C 0.73799 0.91322 0.20989 0.0
C397 C 0.74725 0.90915 0.20691 0.0
C398 C 0.74314 0.89671 0.20038 0.0
C399 C 0.72932 0.888 0.19709 0.0
C400 C 0.71977 0.89172 0.20083 0.0
C401 C 0.7242 0.90434 0.20716 0.0
C402 C 0.7536 0.89301 0.19673 0.0
C403 C 0.70491 0.88246 0.1979 0.0
C404 C 0.72213 0.87337 0.13156 0.0
C405 C 0.71944 0.86154 0.12464 0.0
C406 C 0.71688 0.85006 0.13165 0.0
C407 C 0.71706 0.8503 0.14602 0.0
C408 C 0.71459 0.83892 0.15337 0.0
C409 C 0.71539 0.83943 0.16749 0.0
C410 C 0.71862 0.85131 0.17481 0.0
C411 C 0.72008 0.8521 0.18913 0.0
C412 C 0.72317 0.86402 0.19613 0.0
C413 C 0.72504 0.87533 0.18917 0.0
C414 C 0.72376 0.87477 0.17482 0.0
C415 C 0.72571 0.88598 0.16745 0.0
C416 C 0.72485 0.88546 0.1533 0.0
C417 C 0.72228 0.8738 0.14596 0.0
C418 C 0.71991 0.86225 0.15319 0.0
C419 C 0.72064 0.86274 0.16763 0.0
C420 C 0.72617 0.7967 0.20279 0.0
C421 C 0.72512 0.80264 0.21651 0.0
O422 O 0.73554 0.91525 0.0947 0.0
O423 O 0.74271 0.92575 0.21538 0.0
O424 O 0.71581 0.80687 0.21568 0.0
O425 O 0.70755 0.80389 0.10122 0.0
H426 H 0.72682 0.90108 0.07919 0.0
H427 H 0.75129 0.91488 0.07534 0.0
H428 H 0.75023 0.9299 0.07398 0.0
H429 H 0.74192 0.91634 0.06149 0.0
H430 H 0.71073 0.89573 0.09997 0.0
H431 H 0.75244 0.91406 0.11106 0.0
H432 H 0.69854 0.8654 0.11164 0.0
H433 H 0.69354 0.87785 0.11282 0.0
H434 H 0.69793 0.87226 0.12799 0.0
H435 H 0.76046 0.90327 0.12515 0.0
H436 H 0.74938 0.88558 0.12843 0.0
H437 H 0.75009 0.89809 0.14007 0.0
H438 H 0.72581 0.80665 0.09373 0.0
H439 H 0.71421 0.7862 0.08301 0.0
H440 H 0.69953 0.78287 0.08935 0.0
H441 H 0.71185 0.77423 0.10893 0.0
H442 H 0.73152 0.82284 0.1117 0.0
H443 H 0.68966 0.81025 0.10683 0.0
H444 H 0.73961 0.84585 0.1375 0.0
H445 H 0.74267 0.85614 0.12297 0.0
H446 H 0.74709 0.84319 0.12253 0.0
H447 H 0.68016 0.82224 0.11683 0.0
H448 H 0.69169 0.84021 0.11613 0.0
H449 H 0.68868 0.83186 0.13204 0.0
H450 H 0.7352 0.81134 0.21941 0.0
H451 H 0.73858 0.82707 0.20463 0.0
H452 H 0.69685 0.81229 0.21356 0.0
H453 H 0.74313 0.8494 0.18052 0.0
H454 H 0.75241 0.84776 0.19435 0.0
H455 H 0.74702 0.85997 0.1954 0.0
H456 H 0.68584 0.82392 0.20718 0.0
H457 H 0.69192 0.83232 0.19118 0.0
H458 H 0.69678 0.84202 0.20673 0.0
H459 H 0.72996 0.92994 0.20463 0.0
H460 H 0.74469 0.95466 0.20709 0.0
H461 H 0.75321 0.94683 0.19923 0.0
H462 H 0.75681 0.9525 0.21674 0.0
H463 H 0.75782 0.91599 0.20929 0.0
H464 H 0.71691 0.90723 0.20997 0.0
H465 H 0.75305 0.8906 0.18568 0.0
H466 H 0.75149 0.88384 0.20229 0.0
H467 H 0.76402 0.90122 0.19931 0.0
H468 H 0.69864 0.8862 0.20266 0.0
H469 H 0.70155 0.8722 0.20166 0.0
H470 H 0.70314 0.88157 0.18674 0.0
H471 H 0.71954 0.86132 0.1136 0.0
H472 H 0.71216 0.82953 0.14828 0.0
H473 H 0.71353 0.83039 0.17258 0.0
H474 H 0.72447 0.86462 0.20709 0.0
H475 H 0.72799 0.89533 0.17252 0.0
H476 H 0.72643 0.89437 0.14817 0.0
H477 H 0.71616 0.78815 0.19952 0.0
H478 H 0.7334 0.79305 0.20358 0.0
H479 H 0.72986 0.80446 0.19483 0.0
C480 C 0.1821 0.91342 0.08077 0.0
C481 C 0.19339 0.91824 0.09149 0.0
C482 C 0.18167 0.90027 0.10823 0.0
C483 C 0.17273 0.90431 0.11303 0.0
C484 C 0.16195 0.89593 0.12152 0.0
C485 C 0.16017 0.88336 0.12537 0.0
C486 C 0.16952 0.87957 0.12107 0.0
C487 C 0.18018 0.88812 0.11259 0.0
C488 C 0.15224 0.90034 0.1261 0.0
C489 C 0.168 0.86631 0.12514 0.0
C490 C 0.08259 0.8305 0.06844 0.0
C491 C 0.08833 0.82488 0.07869 0.0
C492 C 0.09343 0.83231 0.10228 0.0
C493 C 0.10329 0.82895 0.10497 0.0
C494 C 0.11299 0.83579 0.11524 0.0
C495 C 0.11297 0.84638 0.12275 0.0
C496 C 0.10267 0.84941 0.12038 0.0
C497 C 0.09282 0.84208 0.11034 0.0
C498 C 0.12358 0.83202 0.11768 0.0
C499 C 0.10244 0.86082 0.12792 0.0
C500 C 0.08522 0.82789 0.20958 0.0
C501 C 0.09362 0.82302 0.2053 0.0
C502 C 0.10601 0.83159 0.19901 0.0
C503 C 0.10992 0.84521 0.19679 0.0
C504 C 0.10162 0.8502 0.20147 0.0
C505 C 0.08946 0.84149 0.208 0.0
C506 C 0.11487 0.82609 0.19465 0.0
C507 C 0.1055 0.86469 0.19944 0.0
C508 C 0.20273 0.9329 0.20971 0.0
C509 C 0.19642 0.92517 0.22278 0.0
C510 C 0.18012 0.90235 0.21386 0.0
C511 C 0.178 0.8894 0.21169 0.0
C512 C 0.16674 0.87955 0.20431 0.0
C513 C 0.15731 0.88275 0.19908 0.0
C514 C 0.15916 0.89573 0.20156 0.0
C515 C 0.17057 0.90542 0.20887 0.0
C516 C 0.16506 0.86581 0.20184 0.0
C517 C 0.1492 0.89942 0.19625 0.0
C518 C 0.14798 0.87374 0.13299 0.0
C519 C 0.13653 0.86479 0.12543 0.0
C520 C 0.12462 0.85533 0.13174 0.0
C521 C 0.12405 0.85476 0.1461 0.0
C522 C 0.11228 0.84535 0.15284 0.0
C523 C 0.11172 0.84518 0.16698 0.0
C524 C 0.12301 0.85422 0.17494 0.0
C525 C 0.12252 0.85422 0.18933 0.0
C526 C 0.13391 0.86343 0.1969 0.0
C527 C 0.14583 0.87277 0.19049 0.0
C528 C 0.14655 0.87287 0.17613 0.0
C529 C 0.15843 0.88209 0.16937 0.0
C530 C 0.15895 0.88235 0.15525 0.0
C531 C 0.14762 0.87341 0.14734 0.0
C532 C 0.13559 0.86391 0.15392 0.0
C533 C 0.13507 0.86361 0.16834 0.0
C534 C 0.05027 0.8045 0.20951 0.0
C535 C 0.06419 0.80636 0.2123 0.0
O536 O 0.19168 0.90756 0.09925 0.0
O537 O 0.19153 0.9115 0.22067 0.0
O538 O 0.07307 0.81986 0.21543 0.0
O539 O 0.08467 0.82659 0.09169 0.0
H540 H 0.19334 0.92608 0.09824 0.0
H541 H 0.17212 0.90948 0.08565 0.0
H542 H 0.18172 0.90527 0.07422 0.0
H543 H 0.18384 0.92194 0.07426 0.0
H544 H 0.17395 0.91385 0.11005 0.0
H545 H 0.18723 0.88517 0.10898 0.0
H546 H 0.14203 0.89324 0.12187 0.0
H547 H 0.15538 0.91069 0.12279 0.0
H548 H 0.15146 0.90002 0.13735 0.0
H549 H 0.17653 0.86516 0.12156 0.0
H550 H 0.15846 0.85786 0.1208 0.0
H551 H 0.16737 0.86545 0.13638 0.0
H552 H 0.09954 0.83084 0.07763 0.0
H553 H 0.08549 0.82934 0.05793 0.0
H554 H 0.08671 0.84141 0.0706 0.0
H555 H 0.0714 0.82519 0.06907 0.0
H556 H 0.1035 0.82112 0.0989 0.0
H557 H 0.08505 0.84446 0.10822 0.0
H558 H 0.12539 0.83189 0.12875 0.0
H559 H 0.13322 0.83968 0.11305 0.0
H560 H 0.12065 0.822 0.11311 0.0
H561 H 0.09445 0.86261 0.12402 0.0
H562 H 0.11236 0.87027 0.12706 0.0
H563 H 0.1006 0.85846 0.13888 0.0
H564 H 0.06731 0.80327 0.20281 0.0
H565 H 0.09058 0.81259 0.20699 0.0
H566 H 0.08299 0.84517 0.21157 0.0
H567 H 0.11516 0.82568 0.18337 0.0
H568 H 0.11117 0.81578 0.1985 0.0
H569 H 0.12538 0.83287 0.19835 0.0
H570 H 0.09736 0.86665 0.20255 0.0
H571 H 0.10792 0.86737 0.1886 0.0
H572 H 0.11469 0.87143 0.20555 0.0
H573 H 0.18805 0.92674 0.22599 0.0
H574 H 0.19506 0.9294 0.20145 0.0
H575 H 0.20682 0.94387 0.21147 0.0
H576 H 0.21105 0.93133 0.20627 0.0
H577 H 0.18537 0.88709 0.21562 0.0
H578 H 0.17196 0.91535 0.21051 0.0
H579 H 0.16485 0.8638 0.19073 0.0
H580 H 0.15527 0.85793 0.20603 0.0
H581 H 0.17332 0.86492 0.20656 0.0
H582 H 0.15149 0.90955 0.19994 0.0
H583 H 0.13882 0.89182 0.19941 0.0
H584 H 0.14935 0.89936 0.18496 0.0
H585 H 0.13689 0.86521 0.1144 0.0
H586 H 0.10333 0.8381 0.14723 0.0
H587 H 0.10231 0.83784 0.17159 0.0
H588 H 0.13341 0.86351 0.20791 0.0
H589 H 0.16747 0.88924 0.17493 0.0
H590 H 0.16834 0.8897 0.15059 0.0
H591 H 0.04648 0.80724 0.21871 0.0
H592 H 0.04294 0.79387 0.20649 0.0
H593 H 0.05094 0.81108 0.20107 0.0
C594 C 0.28608 0.10885 0.94361 0.0
C595 C 0.28643 0.09942 0.9326 0.0
C596 C 0.29022 0.11349 0.91266 0.0
C597 C 0.27678 0.11011 0.91053 0.0
C598 C 0.27367 0.11758 0.90167 0.0
C599 C 0.28423 0.1288 0.895 0.0
C600 C 0.29776 0.13209 0.89696 0.0
C601 C 0.30053 0.12421 0.90559 0.0
C602 C 0.2591 0.11359 0.89959 0.0
C603 C 0.30932 0.14413 0.89025 0.0
C604 C 0.25093 0.18681 0.93939 0.0
C605 C 0.26406 0.18979 0.93247 0.0
C606 C 0.26519 0.18004 0.91086 0.0
C607 C 0.27862 0.18316 0.91025 0.0
C608 C 0.28224 0.17542 0.90205 0.0
C609 C 0.2721 0.16408 0.89467 0.0
C610 C 0.25846 0.16083 0.8955 0.0
C611 C 0.25527 0.16913 0.90328 0.0
C612 C 0.29689 0.17935 0.90131 0.0
C613 C 0.24719 0.14851 0.88836 0.0
C614 C 0.26151 0.17722 0.80755 0.0
C615 C 0.27501 0.1827 0.81165 0.0
C616 C 0.27921 0.17468 0.81814 0.0
C617 C 0.26962 0.16103 0.82085 0.0
C618 C 0.25611 0.15542 0.8163 0.0
C619 C 0.25231 0.16357 0.8095 0.0
C620 C 0.29383 0.18084 0.82228 0.0
C621 C 0.24561 0.14088 0.81886 0.0
C622 C 0.27381 0.07362 0.8117 0.0
C623 C 0.27514 0.0811 0.79852 0.0
C624 C 0.28227 0.10409 0.80698 0.0
C625 C 0.29336 0.11714 0.80865 0.0
C626 C 0.29222 0.1272 0.81572 0.0
C627 C 0.27962 0.12411 0.82117 0.0
C628 C 0.26826 0.11101 0.8193 0.0
C629 C 0.26969 0.10111 0.81227 0.0
C630 C 0.30453 0.14107 0.81755 0.0
C631 C 0.25462 0.10743 0.82486 0.0
C632 C 0.28118 0.13756 0.88668 0.0
C633 C 0.27858 0.1467 0.89357 0.0
C634 C 0.27563 0.15532 0.88654 0.0
C635 C 0.27548 0.15503 0.87215 0.0
C636 C 0.27293 0.16381 0.86472 0.0
C637 C 0.27221 0.16305 0.85059 0.0
C638 C 0.27435 0.15369 0.8433 0.0
C639 C 0.27351 0.15274 0.82892 0.0
C640 C 0.27557 0.14323 0.82203 0.0
C641 C 0.27833 0.13449 0.8291 0.0
C642 C 0.27928 0.13532 0.84346 0.0
C643 C 0.28206 0.12668 0.85089 0.0
C644 C 0.28268 0.12738 0.86504 0.0
C645 C 0.28064 0.13681 0.8723 0.0
C646 C 0.27785 0.14563 0.86502 0.0
C647 C 0.27725 0.14494 0.85058 0.0
C648 C 0.24912 0.1998 0.80614 0.0
C649 C 0.26145 0.19819 0.80466 0.0
O650 O 0.29374 0.10682 0.92149 0.0
O651 O 0.28425 0.09479 0.80032 0.0
O652 O 0.25702 0.18477 0.80163 0.0
O653 O 0.26158 0.18749 0.91862 0.0
H654 H 0.27596 0.09185 0.92938 0.0
H655 H 0.28104 0.11414 0.93965 0.0
H656 H 0.2965 0.11651 0.9469 0.0
H657 H 0.28032 0.10301 0.95258 0.0
H658 H 0.26864 0.1017 0.91572 0.0
H659 H 0.31086 0.12669 0.90723 0.0
H660 H 0.25727 0.12121 0.90463 0.0
H661 H 0.25201 0.10356 0.90387 0.0
H662 H 0.25684 0.11336 0.88858 0.0
H663 H 0.3193 0.14599 0.89374 0.0
H664 H 0.30873 0.15331 0.89242 0.0
H665 H 0.3086 0.14246 0.87906 0.0
H666 H 0.26701 0.18272 0.93666 0.0
H667 H 0.25222 0.18782 0.95062 0.0
H668 H 0.24283 0.17631 0.93688 0.0
H669 H 0.24769 0.19384 0.93583 0.0
H670 H 0.28627 0.19176 0.91605 0.0
H671 H 0.24492 0.16687 0.90387 0.0
H672 H 0.29983 0.1791 0.89059 0.0
H673 H 0.29841 0.17199 0.90702 0.0
H674 H 0.3037 0.18958 0.90575 0.0
H675 H 0.23713 0.14585 0.89241 0.0
H676 H 0.24853 0.13969 0.88943 0.0
H677 H 0.24728 0.1505 0.87736 0.0
H678 H 0.2669 0.20121 0.81463 0.0
H679 H 0.28227 0.19319 0.80971 0.0
H680 H 0.24197 0.15942 0.80607 0.0
H681 H 0.29475 0.18215 0.83351 0.0
H682 H 0.30033 0.19085 0.81766 0.0
H683 H 0.29762 0.17404 0.81926 0.0
H684 H 0.2353 0.13845 0.81585 0.0
H685 H 0.24557 0.13861 0.82979 0.0
H686 H 0.24815 0.13419 0.81295 0.0
H687 H 0.2651 0.07947 0.7955 0.0
H688 H 0.26663 0.06263 0.8102 0.0
H689 H 0.26991 0.07732 0.82001 0.0
H690 H 0.28377 0.07521 0.81491 0.0
H691 H 0.303 0.11937 0.80451 0.0
H692 H 0.26096 0.09111 0.81105 0.0
H693 H 0.30653 0.14365 0.82856 0.0
H694 H 0.30264 0.14867 0.81289 0.0
H695 H 0.31367 0.14181 0.81286 0.0
H696 H 0.2466 0.09704 0.82185 0.0
H697 H 0.25171 0.11466 0.82119 0.0
H698 H 0.25516 0.10824 0.83613 0.0
H699 H 0.2787 0.14699 0.90461 0.0
H700 H 0.27132 0.1713 0.86976 0.0
H701 H 0.26995 0.16991 0.84547 0.0
H702 H 0.27473 0.14243 0.81102 0.0
H703 H 0.28372 0.11922 0.84586 0.0
H704 H 0.28473 0.1204 0.87022 0.0
H705 H 0.24326 0.197 0.79646 0.0
H706 H 0.25226 0.21038 0.809 0.0
H707 H 0.24246 0.19313 0.81426 0.0
C708 C 0.8051 0.0596 0.91424 0.0
C709 C 0.80558 0.0718 0.9213 0.0
C710 C 0.81442 0.09048 0.90514 0.0
C711 C 0.81115 0.09903 0.89846 0.0
C712 C 0.82097 0.1103 0.89149 0.0
C713 C 0.83434 0.11284 0.89092 0.0
C714 C 0.83772 0.10412 0.8975 0.0
C715 C 0.82773 0.09305 0.90463 0.0
C716 C 0.81705 0.11952 0.88482 0.0
C717 C 0.85186 0.10648 0.89697 0.0
C718 C 0.9195 0.20855 0.9306 0.0
C719 C 0.91228 0.19531 0.92327 0.0
C720 C 0.89092 0.18096 0.9112 0.0
C721 C 0.89455 0.17183 0.90594 0.0
C722 C 0.88569 0.16102 0.89741 0.0
C723 C 0.87302 0.1594 0.89391 0.0
C724 C 0.86937 0.1686 0.89913 0.0
C725 C 0.87836 0.17924 0.90777 0.0
C726 C 0.88983 0.15126 0.89218 0.0
C727 C 0.85596 0.16719 0.89556 0.0
C728 C 0.90127 0.18291 0.80833 0.0
C729 C 0.90362 0.17338 0.81453 0.0
C730 C 0.89304 0.16191 0.82058 0.0
C731 C 0.87989 0.16001 0.82066 0.0
C732 C 0.87747 0.16953 0.81438 0.0
C733 C 0.8882 0.18083 0.80824 0.0
C734 C 0.89597 0.15189 0.82709 0.0
C735 C 0.8636 0.16786 0.81435 0.0
C736 C 0.80383 0.05324 0.80244 0.0
C737 C 0.80515 0.06678 0.79919 0.0
C738 C 0.82614 0.08818 0.80323 0.0
C739 C 0.83967 0.09265 0.80606 0.0
C740 C 0.84775 0.10471 0.81342 0.0
C741 C 0.84222 0.11268 0.81765 0.0
C742 C 0.82873 0.10859 0.81409 0.0
C743 C 0.82078 0.0963 0.80701 0.0
C744 C 0.86211 0.10876 0.81691 0.0
C745 C 0.82266 0.1171 0.81795 0.0
C746 C 0.84483 0.12472 0.88359 0.0
C747 C 0.85355 0.13626 0.89125 0.0
C748 C 0.86353 0.1479 0.88502 0.0
C749 C 0.86467 0.14823 0.8707 0.0
C750 C 0.8743 0.15994 0.86408 0.0
C751 C 0.87557 0.16005 0.85 0.0
C752 C 0.8673 0.14844 0.84201 0.0
C753 C 0.86883 0.14832 0.82774 0.0
C754 C 0.86029 0.13669 0.82007 0.0
C755 C 0.8504 0.12496 0.8263 0.0
C756 C 0.8489 0.1248 0.8406 0.0
C757 C 0.83933 0.11308 0.84727 0.0
C758 C 0.83794 0.11303 0.86133 0.0
C759 C 0.84614 0.12467 0.86929 0.0
C760 C 0.85601 0.13652 0.86281 0.0
C761 C 0.85734 0.13661 0.84845 0.0
C762 C 0.93196 0.20552 0.81513 0.0
C763 C 0.92486 0.19859 0.8017 0.0
O764 O 0.80437 0.07985 0.91177 0.0
O765 O 0.81863 0.07607 0.79675 0.0
O766 O 0.91121 0.19426 0.80243 0.0
O767 O 0.89917 0.19149 0.91959 0.0
H768 H 0.81531 0.07769 0.92696 0.0
H769 H 0.81361 0.06296 0.90704 0.0
H770 H 0.7955 0.05356 0.90844 0.0
H771 H 0.80594 0.05309 0.92189 0.0
H772 H 0.80085 0.09693 0.89888 0.0
H773 H 0.8304 0.08643 0.9096 0.0
H774 H 0.82407 0.13014 0.8881 0.0
H775 H 0.80656 0.11684 0.88728 0.0
H776 H 0.81788 0.11891 0.87361 0.0
H777 H 0.85257 0.09809 0.90149 0.0
H778 H 0.85884 0.11596 0.90262 0.0
H779 H 0.85535 0.1077 0.88627 0.0
H780 H 0.91308 0.18705 0.9281 0.0
H781 H 0.92155 0.2061 0.94102 0.0
H782 H 0.91158 0.21089 0.93416 0.0
H783 H 0.93496 0.22091 0.91726 0.0
H784 H 0.90424 0.17302 0.90851 0.0
H785 H 0.87566 0.18634 0.91186 0.0
H786 H 0.89073 0.15185 0.88094 0.0
H787 H 0.88197 0.14077 0.89464 0.0
H788 H 0.89963 0.15339 0.89655 0.0
H789 H 0.85499 0.17568 0.89973 0.0
H790 H 0.84766 0.15761 0.89966 0.0
H791 H 0.85467 0.1667 0.88434 0.0
H792 H 0.92623 0.18985 0.79962 0.0
H793 H 0.91365 0.17479 0.8148 0.0
H794 H 0.88647 0.18821 0.80345 0.0
H795 H 0.89479 0.15218 0.83828 0.0
H796 H 0.90635 0.15404 0.82494 0.0
H797 H 0.88863 0.1415 0.82339 0.0
H798 H 0.86344 0.17635 0.80936 0.0
H799 H 0.86001 0.16715 0.82497 0.0
H800 H 0.85638 0.1583 0.80895 0.0
H801 H 0.80153 0.06989 0.80828 0.0
H802 H 0.79317 0.04562 0.80472 0.0
H803 H 0.81012 0.05442 0.81151 0.0
H804 H 0.80729 0.04951 0.79374 0.0
H805 H 0.84375 0.0864 0.80287 0.0
H806 H 0.81042 0.09308 0.80436 0.0
H807 H 0.86395 0.11083 0.82801 0.0
H808 H 0.86917 0.11819 0.81159 0.0
H809 H 0.86449 0.10086 0.8139 0.0
H810 H 0.81283 0.11356 0.81276 0.0
H811 H 0.82969 0.12781 0.81537 0.0
H812 H 0.82103 0.11669 0.8291 0.0
H813 H 0.85265 0.13614 0.90224 0.0
H814 H 0.88099 0.16914 0.86971 0.0
H815 H 0.88318 0.16934 0.84547 0.0
H816 H 0.86159 0.13666 0.80914 0.0
H817 H 0.8328 0.10378 0.84171 0.0
H818 H 0.83041 0.10371 0.86589 0.0
H819 H 0.93061 0.21423 0.81751 0.0
H820 H 0.94292 0.20916 0.81448 0.0
H821 H 0.92772 0.19833 0.82361 0.0
C822 C 0.82181 0.72589 0.94194 0.0
C823 C 0.81087 0.72098 0.93084 0.0
C824 C 0.82149 0.7147 0.91261 0.0
C825 C 0.8313 0.72792 0.90909 0.0
C826 C 0.84167 0.73029 0.89999 0.0
C827 C 0.84219 0.71923 0.89423 0.0
C828 C 0.83207 0.70592 0.89735 0.0
C829 C 0.82181 0.70384 0.90647 0.0
C830 C 0.85227 0.74462 0.89679 0.0
C831 C 0.83228 0.69391 0.89128 0.0
C832 C 0.94052 0.74823 0.91891 0.0
C833 C 0.92808 0.73575 0.92455 0.0
C834 C 0.90983 0.72728 0.90744 0.0
C835 C 0.90121 0.71595 0.89946 0.0
C836 C 0.89026 0.71517 0.89242 0.0
C837 C 0.88814 0.72623 0.89306 0.0
C838 C 0.8969 0.73781 0.90101 0.0
C839 C 0.9076 0.73818 0.90822 0.0
C840 C 0.88097 0.70252 0.88429 0.0
C841 C 0.89501 0.74984 0.90181 0.0
C842 C 0.91602 0.74367 0.80865 0.0
C843 C 0.90668 0.73012 0.81143 0.0
C844 C 0.89413 0.72643 0.81719 0.0
C845 C 0.89098 0.73654 0.82043 0.0
C846 C 0.9001 0.75009 0.81696 0.0
C847 C 0.91245 0.75344 0.81092 0.0
C848 C 0.88441 0.71179 0.82022 0.0
C849 C 0.89701 0.7611 0.8201 0.0
C850 C 0.79837 0.73116 0.81135 0.0
C851 C 0.80514 0.73032 0.79822 0.0
C852 C 0.82119 0.72378 0.80655 0.0
C853 C 0.82338 0.71297 0.80761 0.0
C854 C 0.83458 0.71434 0.81471 0.0
C855 C 0.84388 0.72692 0.82084 0.0
C856 C 0.8419 0.738 0.81962 0.0
C857 C 0.83055 0.73633 0.81252 0.0
C858 C 0.8364 0.70232 0.8158 0.0
C859 C 0.85173 0.75159 0.82592 0.0
C860 C 0.85389 0.72168 0.88577 0.0
C861 C 0.86509 0.72268 0.89244 0.0
C862 C 0.87679 0.72569 0.88535 0.0
C863 C 0.87747 0.72789 0.87121 0.0
C864 C 0.8893 0.73153 0.86388 0.0
C865 C 0.88978 0.73339 0.84992 0.0
C866 C 0.87842 0.7316 0.84271 0.0
C867 C 0.87873 0.73313 0.82845 0.0
C868 C 0.86733 0.73151 0.82164 0.0
C869 C 0.85557 0.72841 0.82871 0.0
C870 C 0.85503 0.72673 0.84296 0.0
C871 C 0.84334 0.72354 0.85039 0.0
C872 C 0.84295 0.72195 0.86442 0.0
C873 C 0.85418 0.72334 0.87154 0.0
C874 C 0.86604 0.72649 0.86424 0.0
C875 C 0.8665 0.72827 0.84996 0.0
C876 C 0.95059 0.75337 0.81106 0.0
C877 C 0.9363 0.74204 0.80737 0.0
O878 O 0.81172 0.71193 0.92198 0.0
O879 O 0.80993 0.72155 0.79976 0.0
O880 O 0.92858 0.74767 0.80395 0.0
O881 O 0.92019 0.72726 0.91401 0.0
H882 H 0.81215 0.72977 0.92507 0.0
H883 H 0.83203 0.73146 0.93745 0.0
H884 H 0.82091 0.71722 0.9476 0.0
H885 H 0.82085 0.73285 0.94921 0.0
H886 H 0.83112 0.73648 0.91352 0.0
H887 H 0.81414 0.69367 0.90912 0.0
H888 H 0.8623 0.74667 0.90032 0.0
H889 H 0.85017 0.75212 0.90168 0.0
H890 H 0.85284 0.74603 0.88562 0.0
H891 H 0.82326 0.68419 0.89412 0.0
H892 H 0.84147 0.69399 0.89482 0.0
H893 H 0.83276 0.69456 0.88002 0.0
H894 H 0.92217 0.73912 0.9307 0.0
H895 H 0.94703 0.75483 0.92739 0.0
H896 H 0.93743 0.75416 0.9127 0.0
H897 H 0.94651 0.74529 0.91236 0.0
H898 H 0.90302 0.7076 0.89891 0.0
H899 H 0.91423 0.74708 0.91425 0.0
H900 H 0.88235 0.70473 0.87328 0.0
H901 H 0.87027 0.69901 0.88675 0.0
H902 H 0.88296 0.69423 0.88626 0.0
H903 H 0.90346 0.75859 0.90728 0.0
H904 H 0.88547 0.74702 0.90722 0.0
H905 H 0.89414 0.75297 0.89142 0.0
H906 H 0.9322 0.73582 0.81663 0.0
H907 H 0.90923 0.72245 0.80919 0.0
H908 H 0.91965 0.76382 0.8085 0.0
H909 H 0.8842 0.71031 0.83136 0.0
H910 H 0.88734 0.70499 0.81512 0.0
H911 H 0.87403 0.70885 0.81692 0.0
H912 H 0.90535 0.7712 0.81712 0.0
H913 H 0.89515 0.76136 0.83115 0.0
H914 H 0.88768 0.75894 0.81461 0.0
H915 H 0.81364 0.74053 0.79571 0.0
H916 H 0.79439 0.73806 0.81005 0.0
H917 H 0.80575 0.73514 0.8199 0.0
H918 H 0.78992 0.72102 0.81407 0.0
H919 H 0.81615 0.70335 0.80294 0.0
H920 H 0.82909 0.74484 0.81178 0.0
H921 H 0.83686 0.70014 0.82667 0.0
H922 H 0.84612 0.70465 0.81111 0.0
H923 H 0.8281 0.69314 0.81071 0.0
H924 H 0.84918 0.75941 0.82345 0.0
H925 H 0.86211 0.75497 0.82232 0.0
H926 H 0.85176 0.75073 0.83714 0.0
H927 H 0.86471 0.72118 0.90333 0.0
H928 H 0.89834 0.73298 0.86885 0.0
H929 H 0.89919 0.73619 0.84486 0.0
H930 H 0.86764 0.73272 0.8107 0.0
H931 H 0.83436 0.72227 0.84545 0.0
H932 H 0.8337 0.71952 0.86962 0.0
H933 H 0.95697 0.74911 0.81394 0.0
H934 H 0.95022 0.75936 0.81987 0.0
H935 H 0.95531 0.76024 0.80238 0.0
C936 C 0.85092 0.59929 0.40011 0.0
C937 C 0.85802 0.61109 0.41031 0.0
C938 C 0.84956 0.60885 0.4332 0.0
C939 C 0.85297 0.62213 0.43635 0.0
C940 C 0.84541 0.62478 0.44577 0.0
C941 C 0.83405 0.61388 0.45196 0.0
C942 C 0.83086 0.60047 0.44907 0.0
C943 C 0.83888 0.59816 0.43992 0.0
C944 C 0.84932 0.63921 0.44882 0.0
C945 C 0.81867 0.58854 0.45519 0.0
C946 C 0.76702 0.61643 0.40665 0.0
C947 C 0.76186 0.62133 0.41855 0.0
C948 C 0.78003 0.6278 0.43545 0.0
C949 C 0.7766 0.6146 0.43881 0.0
C950 C 0.78497 0.61233 0.44733 0.0
C951 C 0.797 0.62344 0.45263 0.0
C952 C 0.80032 0.63672 0.44957 0.0
C953 C 0.79173 0.63871 0.44107 0.0
C954 C 0.78109 0.59803 0.45051 0.0
C955 C 0.81306 0.64879 0.45508 0.0
C956 C 0.77277 0.61979 0.53956 0.0
C957 C 0.77045 0.6071 0.53513 0.0
C958 C 0.78054 0.60589 0.52835 0.0
C959 C 0.79324 0.61756 0.52606 0.0
C960 C 0.79573 0.63029 0.53084 0.0
C961 C 0.78544 0.63122 0.5375 0.0
C962 C 0.77755 0.59215 0.52341 0.0
C963 C 0.80918 0.64292 0.52863 0.0
C964 C 0.87163 0.58925 0.53507 0.0
C965 C 0.86886 0.60045 0.53928 0.0
C966 C 0.84722 0.59938 0.53706 0.0
C967 C 0.83372 0.58998 0.53411 0.0
C968 C 0.82526 0.59395 0.52814 0.0
C969 C 0.8304 0.60775 0.52544 0.0
C970 C 0.84383 0.61744 0.52926 0.0
C971 C 0.85214 0.61314 0.53496 0.0
C972 C 0.81095 0.58335 0.52441 0.0
C973 C 0.84948 0.63227 0.52698 0.0
C974 C 0.82485 0.61644 0.46042 0.0
C975 C 0.81589 0.61919 0.45363 0.0
C976 C 0.80646 0.6211 0.46072 0.0
C977 C 0.80585 0.62025 0.47505 0.0
C978 C 0.79634 0.62192 0.48248 0.0
C979 C 0.79565 0.62079 0.49656 0.0
C980 C 0.80445 0.61796 0.50376 0.0
C981 C 0.80363 0.61652 0.51805 0.0
C982 C 0.8124 0.61353 0.52487 0.0
C983 C 0.82201 0.61186 0.51777 0.0
C984 C 0.82306 0.61337 0.50349 0.0
C985 C 0.83262 0.61178 0.49602 0.0
C986 C 0.83341 0.61305 0.48196 0.0
C987 C 0.8245 0.61568 0.47477 0.0
C988 C 0.8149 0.61751 0.48209 0.0
C989 C 0.81419 0.61637 0.49647 0.0
C990 C 0.74129 0.60807 0.53522 0.0
C991 C 0.74985 0.61185 0.54827 0.0
O992 O 0.85612 0.60611 0.42336 0.0
O993 O 0.85519 0.59479 0.54179 0.0
O994 O 0.76314 0.62156 0.54567 0.0
O995 O 0.77254 0.63048 0.42675 0.0
H996 H 0.85313 0.61725 0.4091 0.0
H997 H 0.83989 0.59364 0.40211 0.0
H998 H 0.85474 0.59222 0.40101 0.0
H999 H 0.85252 0.60308 0.38956 0.0
H1000 H 0.86146 0.63039 0.43129 0.0
H1001 H 0.83642 0.58795 0.43744 0.0
H1002 H 0.84194 0.64133 0.4439 0.0
H1003 H 0.85956 0.64649 0.445 0.0
H1004 H 0.84906 0.64089 0.45995 0.0
H1005 H 0.81675 0.57879 0.45073 0.0
H1006 H 0.80954 0.58932 0.45364 0.0
H1007 H 0.82022 0.58847 0.46631 0.0
H1008 H 0.75467 0.61255 0.42467 0.0
H1009 H 0.77444 0.62509 0.40056 0.0
H1010 H 0.77201 0.61102 0.41043 0.0
H1011 H 0.75847 0.60933 0.39995 0.0
H1012 H 0.76752 0.606 0.43473 0.0
H1013 H 0.79427 0.64885 0.43852 0.0
H1014 H 0.78874 0.59587 0.44625 0.0
H1015 H 0.77103 0.5905 0.44625 0.0
H1016 H 0.78095 0.59681 0.46169 0.0
H1017 H 0.81409 0.65848 0.45197 0.0
H1018 H 0.82198 0.64837 0.45141 0.0
H1019 H 0.81315 0.64853 0.46636 0.0
H1020 H 0.74941 0.60267 0.55229 0.0
H1021 H 0.76078 0.59809 0.53673 0.0
H1022 H 0.78718 0.64096 0.541 0.0
H1023 H 0.77902 0.59223 0.51224 0.0
H1024 H 0.76709 0.58407 0.52576 0.0
H1025 H 0.78472 0.5897 0.52823 0.0
H1026 H 0.80981 0.65193 0.53369 0.0
H1027 H 0.81084 0.64478 0.51756 0.0
H1028 H 0.81745 0.64159 0.53258 0.0
H1029 H 0.8719 0.60736 0.53049 0.0
H1030 H 0.88255 0.59355 0.53301 0.0
H1031 H 0.86586 0.58409 0.52564 0.0
H1032 H 0.8685 0.58164 0.54317 0.0
H1033 H 0.82996 0.57942 0.53601 0.0
H1034 H 0.86247 0.62051 0.53772 0.0
H1035 H 0.80903 0.58398 0.51346 0.0
H1036 H 0.80384 0.58523 0.53035 0.0
H1037 H 0.80874 0.57298 0.52646 0.0
H1038 H 0.85947 0.63863 0.532 0.0
H1039 H 0.84238 0.63537 0.53089 0.0
H1040 H 0.85064 0.63421 0.5159 0.0
H1041 H 0.81613 0.61963 0.44261 0.0
H1042 H 0.78928 0.62404 0.47748 0.0
H1043 H 0.78807 0.6221 0.50172 0.0
H1044 H 0.81157 0.61224 0.53579 0.0
H1045 H 0.83961 0.60952 0.50095 0.0
H1046 H 0.84101 0.61179 0.47676 0.0
H1047 H 0.74179 0.61713 0.53082 0.0
H1048 H 0.73059 0.60052 0.53743 0.0
H1049 H 0.74495 0.60358 0.52748 0.0
C1050 C 0.40049 0.24833 0.40391 0.0
C1051 C 0.38846 0.24409 0.41335 0.0
C1052 C 0.39125 0.23833 0.43618 0.0
C1053 C 0.37836 0.22745 0.43894 0.0
C1054 C 0.37665 0.21758 0.44821 0.0
C1055 C 0.38811 0.21855 0.45465 0.0
C1056 C 0.4011 0.22979 0.45215 0.0
C1057 C 0.40245 0.2397 0.44312 0.0
C1058 C 0.36261 0.20594 0.45081 0.0
C1059 C 0.41361 0.23109 0.4586 0.0
C1060 C 0.37737 0.12029 0.42502 0.0
C1061 C 0.38389 0.13451 0.43008 0.0
C1062 C 0.37728 0.14981 0.44032 0.0
C1063 C 0.39041 0.15989 0.44423 0.0
C1064 C 0.39263 0.1714 0.45159 0.0
C1065 C 0.38149 0.1728 0.45523 0.0
C1066 C 0.36828 0.16269 0.45127 0.0
C1067 C 0.36637 0.15135 0.44381 0.0
C1068 C 0.40685 0.18207 0.45557 0.0
C1069 C 0.35618 0.16383 0.45501 0.0
C1070 C 0.38593 0.15453 0.54205 0.0
C1071 C 0.39837 0.16589 0.53864 0.0
C1072 C 0.39887 0.1768 0.53197 0.0
C1073 C 0.38671 0.17643 0.52877 0.0
C1074 C 0.3742 0.16522 0.53255 0.0
C1075 C 0.37399 0.15439 0.53909 0.0
C1076 C 0.41238 0.18863 0.52807 0.0
C1077 C 0.36105 0.16455 0.52941 0.0
C1078 C 0.40144 0.27678 0.53559 0.0
C1079 C 0.39203 0.26439 0.54391 0.0
C1080 C 0.39614 0.24567 0.54161 0.0
C1081 C 0.40705 0.24403 0.53848 0.0
C1082 C 0.40507 0.23224 0.53188 0.0
C1083 C 0.39179 0.22177 0.5286 0.0
C1084 C 0.38065 0.22307 0.53245 0.0
C1085 C 0.38294 0.23502 0.53895 0.0
C1086 C 0.41716 0.23109 0.52812 0.0
C1087 C 0.36636 0.21193 0.52947 0.0
C1088 C 0.38663 0.20728 0.46304 0.0
C1089 C 0.38487 0.19575 0.45617 0.0
C1090 C 0.38362 0.18478 0.46324 0.0
C1091 C 0.38433 0.1853 0.4776 0.0
C1092 C 0.38332 0.17451 0.485 0.0
C1093 C 0.38424 0.17519 0.49912 0.0
C1094 C 0.38603 0.18661 0.50641 0.0
C1095 C 0.38706 0.18742 0.52076 0.0
C1096 C 0.3888 0.1989 0.5277 0.0
C1097 C 0.38961 0.20972 0.52066 0.0
C1098 C 0.38863 0.20912 0.50628 0.0
C1099 C 0.38941 0.21982 0.49886 0.0
C1100 C 0.3886 0.21919 0.48471 0.0
C1101 C 0.38712 0.2079 0.47743 0.0
C1102 C 0.3861 0.19691 0.48472 0.0
C1103 C 0.38688 0.19753 0.49915 0.0
C1104 C 0.40076 0.13743 0.53961 0.0
C1105 C 0.39523 0.14139 0.55193 0.0
O1106 O 0.39311 0.24747 0.42666 0.0
O1107 O 0.39867 0.2576 0.54724 0.0
O1108 O 0.38488 0.14345 0.54797 0.0
O1109 O 0.37467 0.13847 0.43327 0.0
H1110 H 0.38181 0.23294 0.41206 0.0
H1111 H 0.40587 0.24298 0.40666 0.0
H1112 H 0.40771 0.25937 0.40482 0.0
H1113 H 0.397 0.24568 0.39317 0.0
H1114 H 0.36968 0.22664 0.43375 0.0
H1115 H 0.41234 0.24825 0.44097 0.0
H1116 H 0.36129 0.19677 0.44548 0.0
H1117 H 0.3547 0.20792 0.44707 0.0
H1118 H 0.36112 0.20381 0.46185 0.0
H1119 H 0.42302 0.23972 0.45457 0.0
H1120 H 0.41389 0.22169 0.45682 0.0
H1121 H 0.4134 0.23258 0.46976 0.0
H1122 H 0.39248 0.142 0.42385 0.0
H1123 H 0.38087 0.12101 0.4142 0.0
H1124 H 0.36668 0.11713 0.42209 0.0
H1125 H 0.382 0.11061 0.44011 0.0
H1126 H 0.39896 0.15885 0.44155 0.0
H1127 H 0.3563 0.14354 0.44074 0.0
H1128 H 0.40783 0.18285 0.46682 0.0
H1129 H 0.40909 0.19204 0.45186 0.0
H1130 H 0.41449 0.17982 0.45141 0.0
H1131 H 0.34653 0.15485 0.45164 0.0
H1132 H 0.35705 0.17291 0.45028 0.0
H1133 H 0.35591 0.16512 0.46621 0.0
H1134 H 0.40356 0.1508 0.5567 0.0
H1135 H 0.40775 0.16628 0.54092 0.0
H1136 H 0.36444 0.14563 0.5418 0.0
H1137 H 0.41274 0.18992 0.51689 0.0
H1138 H 0.42093 0.18737 0.53118 0.0
H1139 H 0.41371 0.19801 0.53291 0.0
H1140 H 0.35225 0.15561 0.53393 0.0
H1141 H 0.35956 0.16408 0.51823 0.0
H1142 H 0.36139 0.17382 0.53332 0.0
H1143 H 0.38313 0.25805 0.53722 0.0
H1144 H 0.39648 0.28265 0.53328 0.0
H1145 H 0.40383 0.27351 0.52581 0.0
H1146 H 0.41108 0.28342 0.54111 0.0
H1147 H 0.41718 0.25221 0.54083 0.0
H1148 H 0.37442 0.236 0.54197 0.0
H1149 H 0.41729 0.2296 0.51695 0.0
H1150 H 0.41641 0.22213 0.53301 0.0
H1151 H 0.42683 0.24017 0.53129 0.0
H1152 H 0.35878 0.21413 0.53388 0.0
H1153 H 0.36467 0.20229 0.5336 0.0
H1154 H 0.36473 0.21051 0.51829 0.0
H1155 H 0.38447 0.19531 0.44513 0.0
H1156 H 0.38191 0.16544 0.47997 0.0
H1157 H 0.38352 0.16661 0.50424 0.0
H1158 H 0.38965 0.19948 0.53871 0.0
H1159 H 0.39067 0.22883 0.5039 0.0
H1160 H 0.38922 0.2277 0.47954 0.0
H1161 H 0.3926 0.12831 0.53432 0.0
H1162 H 0.40874 0.13535 0.54291 0.0
H1163 H 0.40529 0.14572 0.53221 0.0
C1164 C 0.85416 0.24674 0.40586 0.0
C1165 C 0.86374 0.25038 0.41808 0.0
C1166 C 0.85035 0.2308 0.43273 0.0
C1167 C 0.84061 0.23411 0.43662 0.0
C1168 C 0.82936 0.22517 0.4443 0.0
C1169 C 0.8279 0.21275 0.44824 0.0
C1170 C 0.83786 0.20956 0.44466 0.0
C1171 C 0.84897 0.21867 0.43696 0.0
C1172 C 0.81896 0.2289 0.44809 0.0
C1173 C 0.83668 0.19647 0.44883 0.0
C1174 C 0.75155 0.15196 0.39263 0.0
C1175 C 0.75616 0.14607 0.40377 0.0
C1176 C 0.7619 0.15661 0.42626 0.0
C1177 C 0.77236 0.15437 0.42984 0.0
C1178 C 0.78217 0.16276 0.43949 0.0
C1179 C 0.78157 0.17369 0.44553 0.0
C1180 C 0.77074 0.17567 0.44223 0.0
C1181 C 0.76088 0.1669 0.4328 0.0
C1182 C 0.79337 0.16012 0.44298 0.0
C1183 C 0.76984 0.18731 0.44831 0.0
C1184 C 0.75244 0.15428 0.52984 0.0
C1185 C 0.76243 0.151 0.52715 0.0
C1186 C 0.77499 0.16064 0.52192 0.0
C1187 C 0.77756 0.17378 0.5193 0.0
C1188 C 0.7678 0.17731 0.52276 0.0
C1189 C 0.75539 0.16751 0.52812 0.0
C1190 C 0.78537 0.1567 0.5188 0.0
C1191 C 0.77032 0.19129 0.52032 0.0
C1192 C 0.8711 0.26115 0.53064 0.0
C1193 C 0.86544 0.25412 0.54419 0.0
C1194 C 0.84804 0.23133 0.5362 0.0
C1195 C 0.84546 0.21823 0.53392 0.0
C1196 C 0.83391 0.2086 0.52676 0.0
C1197 C 0.82462 0.21217 0.5219 0.0
C1198 C 0.82687 0.22526 0.52463 0.0
C1199 C 0.83859 0.23474 0.5317 0.0
C1200 C 0.83179 0.19471 0.5241 0.0
C1201 C 0.81704 0.22931 0.51978 0.0
C1202 C 0.81572 0.20289 0.45574 0.0
C1203 C 0.80459 0.19334 0.44813 0.0
C1204 C 0.79281 0.1836 0.45444 0.0
C1205 C 0.79201 0.18342 0.4688 0.0
C1206 C 0.78033 0.1738 0.47551 0.0
C1207 C 0.77959 0.17385 0.48964 0.0
C1208 C 0.7906 0.18338 0.49762 0.0
C1209 C 0.78996 0.18348 0.512 0.0
C1210 C 0.80114 0.19298 0.51962 0.0
C1211 C 0.81302 0.20248 0.51326 0.0
C1212 C 0.81381 0.20262 0.4989 0.0
C1213 C 0.8256 0.21208 0.49218 0.0
C1214 C 0.82624 0.21221 0.47805 0.0
C1215 C 0.81516 0.20283 0.4701 0.0
C1216 C 0.80323 0.1931 0.47664 0.0
C1217 C 0.80255 0.19303 0.49107 0.0
C1218 C 0.71878 0.12711 0.52554 0.0
C1219 C 0.73305 0.13134 0.53037 0.0
O1220 O 0.86113 0.23884 0.42483 0.0
O1221 O 0.85981 0.24029 0.5426 0.0
O1222 O 0.73984 0.14494 0.53391 0.0
O1223 O 0.75281 0.14913 0.41635 0.0
H1224 H 0.86248 0.25727 0.4252 0.0
H1225 H 0.84351 0.24186 0.40922 0.0
H1226 H 0.85514 0.23967 0.39877 0.0
H1227 H 0.8565 0.25599 0.4003 0.0
H1228 H 0.84162 0.24357 0.43363 0.0
H1229 H 0.85659 0.21624 0.43401 0.0
H1230 H 0.80899 0.2213 0.4437 0.0
H1231 H 0.82165 0.23903 0.44443 0.0
H1232 H 0.81786 0.22878 0.45931 0.0
H1233 H 0.84552 0.19569 0.44563 0.0
H1234 H 0.82742 0.18786 0.44423 0.0
H1235 H 0.83569 0.19552 0.46005 0.0
H1236 H 0.76733 0.15095 0.4028 0.0
H1237 H 0.75414 0.14964 0.38244 0.0
H1238 H 0.75673 0.1631 0.39398 0.0
H1239 H 0.74047 0.14779 0.3931 0.0
H1240 H 0.77289 0.14613 0.42501 0.0
H1241 H 0.75265 0.16842 0.43003 0.0
H1242 H 0.7949 0.16065 0.45418 0.0
H1243 H 0.80293 0.16802 0.43842 0.0
H1244 H 0.79126 0.15012 0.43909 0.0
H1245 H 0.76129 0.18796 0.444 0.0
H1246 H 0.77937 0.19695 0.44649 0.0
H1247 H 0.76852 0.18614 0.45947 0.0
H1248 H 0.73799 0.12943 0.52155 0.0
H1249 H 0.7604 0.14091 0.52902 0.0
H1250 H 0.7477 0.16999 0.53049 0.0
H1251 H 0.7867 0.1566 0.50762 0.0
H1252 H 0.7824 0.14658 0.5227 0.0
H1253 H 0.79528 0.16426 0.52333 0.0
H1254 H 0.76177 0.19249 0.52374 0.0
H1255 H 0.77196 0.1935 0.50931 0.0
H1256 H 0.77962 0.19887 0.5258 0.0
H1257 H 0.85764 0.25636 0.54789 0.0
H1258 H 0.87586 0.27225 0.53201 0.0
H1259 H 0.86291 0.25774 0.52294 0.0
H1260 H 0.87876 0.25883 0.52667 0.0
H1261 H 0.85275 0.21565 0.53751 0.0
H1262 H 0.8403 0.24478 0.53352 0.0
H1263 H 0.83132 0.1927 0.51296 0.0
H1264 H 0.82199 0.18699 0.52843 0.0
H1265 H 0.83996 0.19351 0.52856 0.0
H1266 H 0.81957 0.23942 0.52375 0.0
H1267 H 0.80664 0.22178 0.52298 0.0
H1268 H 0.81706 0.22947 0.50849 0.0
H1269 H 0.80513 0.19345 0.43711 0.0
H1270 H 0.77159 0.16617 0.4699 0.0
H1271 H 0.77027 0.16628 0.49421 0.0
H1272 H 0.80059 0.19297 0.53064 0.0
H1273 H 0.83446 0.21953 0.49775 0.0
H1274 H 0.83555 0.21977 0.47344 0.0
H1275 H 0.71308 0.11618 0.5228 0.0
H1276 H 0.71934 0.13287 0.51638 0.0
H1277 H 0.7132 0.12916 0.53355 0.0
C1278 C 0.01898 0.47303 0.27207 0.0
C1279 C 0.00917 0.46042 0.26374 0.0
C1280 C 0.00907 0.46827 0.24109 0.0
C1281 C 0.99544 0.46424 0.23929 0.0
C1282 C 0.99167 0.47128 0.23058 0.0
C1283 C 0.00176 0.48254 0.22356 0.0
C1284 C 0.01546 0.48619 0.22485 0.0
C1285 C 0.01892 0.47886 0.23351 0.0
C1286 C 0.97694 0.46691 0.22913 0.0
C1287 C 0.02645 0.49809 0.21744 0.0
C1288 C 0.0077 0.57506 0.25903 0.0
C1289 C 0.00975 0.5654 0.25066 0.0
C1290 C 0.99723 0.54291 0.24027 0.0
C1291 C 0.0081 0.54448 0.23233 0.0
C1292 C 0.00699 0.53376 0.22435 0.0
C1293 C 0.99476 0.52121 0.22425 0.0
C1294 C 0.98372 0.51961 0.23204 0.0
C1295 C 0.9851 0.53053 0.23994 0.0
C1296 C 0.01897 0.53582 0.21611 0.0
C1297 C 0.97053 0.50635 0.23207 0.0
C1298 C 0.96874 0.52755 0.1431 0.0
C1299 C 0.98268 0.53253 0.14397 0.0
C1300 C 0.98754 0.52432 0.14856 0.0
C1301 C 0.97826 0.51093 0.15239 0.0
C1302 C 0.96424 0.50563 0.15059 0.0
C1303 C 0.95967 0.51402 0.1458 0.0
C1304 C 0.00257 0.5301 0.14986 0.0
C1305 C 0.95408 0.49132 0.15431 0.0
C1306 C 0.00732 0.43716 0.14913 0.0
C1307 C 0.99693 0.4361 0.13875 0.0
C1308 C 0.99766 0.45762 0.13856 0.0
C1309 C 0.00769 0.4712 0.1398 0.0
C1310 C 0.00491 0.48065 0.1458 0.0
C1311 C 0.9917 0.47635 0.15044 0.0
C1312 C 0.98129 0.4628 0.1483 0.0
C1313 C 0.98437 0.45356 0.14233 0.0
C1314 C 0.01619 0.49509 0.14771 0.0
C1315 C 0.96703 0.45802 0.15277 0.0
C1316 C 0.99806 0.49107 0.21574 0.0
C1317 C 0.99724 0.50122 0.22289 0.0
C1318 C 0.9938 0.50969 0.21631 0.0
C1319 C 0.9907 0.50782 0.20227 0.0
C1320 C 0.98665 0.51581 0.19547 0.0
C1321 C 0.98391 0.51409 0.18158 0.0
C1322 C 0.98543 0.50453 0.17389 0.0
C1323 C 0.98307 0.50298 0.15967 0.0
C1324 C 0.98509 0.49369 0.15227 0.0
C1325 C 0.98916 0.48565 0.15878 0.0
C1326 C 0.99111 0.48671 0.17305 0.0
C1327 C 0.99476 0.47843 0.17996 0.0
C1328 C 0.99681 0.47967 0.19397 0.0
C1329 C 0.99557 0.48941 0.20157 0.0
C1330 C 0.99183 0.49781 0.19483 0.0
C1331 C 0.98942 0.49632 0.18058 0.0
C1332 C 0.95831 0.54972 0.15287 0.0
C1333 C 0.96895 0.54879 0.14436 0.0
O1334 O 0.01297 0.4622 0.2502 0.0
O1335 O 0.00113 0.44876 0.1336 0.0
O1336 O 0.96374 0.53556 0.13986 0.0
O1337 O 0.9981 0.55302 0.24838 0.0
H1338 H -0.00109 0.459 0.26491 0.0
H1339 H 0.01859 0.48188 0.26841 0.0
H1340 H 0.0295 0.47514 0.27105 0.0
H1341 H 0.01616 0.47166 0.28299 0.0
H1342 H 0.98777 0.45566 0.24474 0.0
H1343 H 0.0294 0.48171 0.23484 0.0
H1344 H 0.97522 0.47484 0.23356 0.0
H1345 H 0.97025 0.45727 0.23433 0.0
H1346 H 0.97407 0.46569 0.2182 0.0
H1347 H 0.0366 0.49951 0.2194 0.0
H1348 H 0.02654 0.50742 0.22065 0.0
H1349 H 0.02441 0.49668 0.20632 0.0
H1350 H 0.01852 0.56444 0.25382 0.0
H1351 H 0.01371 0.57671 0.26862 0.0
H1352 H 0.99759 0.56899 0.26409 0.0
H1353 H 0.01204 0.59069 0.24556 0.0
H1354 H 0.01753 0.55402 0.23233 0.0
H1355 H 0.97674 0.52941 0.24603 0.0
H1356 H 0.01618 0.53401 0.20515 0.0
H1357 H 0.0219 0.52841 0.21912 0.0
H1358 H 0.02785 0.54614 0.21745 0.0
H1359 H 0.96269 0.5069 0.23819 0.0
H1360 H 0.97217 0.49843 0.23629 0.0
H1361 H 0.96672 0.50322 0.22148 0.0
H1362 H 0.97782 0.55204 0.15121 0.0
H1363 H 0.98974 0.54286 0.14126 0.0
H1364 H 0.94894 0.51022 0.14478 0.0
H1365 H 0.00545 0.5315 0.16079 0.0
H1366 H 0.00843 0.54 0.14483 0.0
H1367 H 0.00539 0.52299 0.14533 0.0
H1368 H 0.94355 0.48861 0.15194 0.0
H1369 H 0.95487 0.48997 0.16536 0.0
H1370 H 0.9563 0.48422 0.14874 0.0
H1371 H 0.98715 0.43204 0.14412 0.0
H1372 H 0.00421 0.42705 0.15318 0.0
H1373 H 0.00806 0.44386 0.15777 0.0
H1374 H 0.01745 0.44143 0.14445 0.0
H1375 H 0.01784 0.47428 0.13654 0.0
H1376 H 0.97641 0.44319 0.14066 0.0
H1377 H 0.01831 0.49746 0.15874 0.0
H1378 H 0.01309 0.50202 0.1436 0.0
H1379 H 0.02563 0.49704 0.14263 0.0
H1380 H 0.9599 0.4474 0.14955 0.0
H1381 H 0.96353 0.46457 0.14849 0.0
H1382 H 0.96677 0.45881 0.16402 0.0
H1383 H -0.00042 0.50271 0.23369 0.0
H1384 H 0.98549 0.52344 0.20084 0.0
H1385 H 0.98076 0.5205 0.17694 0.0
H1386 H 0.98347 0.49271 0.14134 0.0
H1387 H 0.99604 0.47086 0.17464 0.0
H1388 H -0.00042 0.47301 0.19876 0.0
H1389 H 0.96225 0.56027 0.15652 0.0
H1390 H 0.95575 0.54318 0.16186 0.0
H1391 H 0.94893 0.54634 0.14683 0.0
C1392 C 0.48472 0.41841 0.27928 0.0
C1393 C 0.47668 0.42204 0.26964 0.0
C1394 C 0.48484 0.42768 0.24666 0.0
C1395 C 0.48191 0.43778 0.24375 0.0
C1396 C 0.48975 0.44789 0.23446 0.0
C1397 C 0.50086 0.44799 0.22814 0.0
C1398 C 0.50352 0.43749 0.23074 0.0
C1399 C 0.49526 0.4273 0.2398 0.0
C1400 C 0.4864 0.4587 0.23174 0.0
C1401 C 0.5154 0.43734 0.2244 0.0
C1402 C 0.58577 0.54606 0.26252 0.0
C1403 C 0.57862 0.53252 0.25575 0.0
C1404 C 0.55719 0.51754 0.244 0.0
C1405 C 0.56079 0.50817 0.23942 0.0
C1406 C 0.55177 0.49681 0.23155 0.0
C1407 C 0.53897 0.49487 0.22808 0.0
C1408 C 0.53536 0.50433 0.23259 0.0
C1409 C 0.54453 0.51553 0.24053 0.0
C1410 C 0.55588 0.48686 0.22696 0.0
C1411 C 0.52182 0.50259 0.22902 0.0
C1412 C 0.56247 0.51472 0.14121 0.0
C1413 C 0.56517 0.50537 0.14726 0.0
C1414 C 0.55493 0.49402 0.15382 0.0
C1415 C 0.54177 0.49207 0.15453 0.0
C1416 C 0.53895 0.5013 0.14821 0.0
C1417 C 0.54934 0.51245 0.14155 0.0
C1418 C 0.55823 0.48422 0.16021 0.0
C1419 C 0.52504 0.49953 0.14876 0.0
C1420 C 0.45849 0.38713 0.1454 0.0
C1421 C 0.46172 0.40051 0.13917 0.0
C1422 C 0.48427 0.42041 0.14177 0.0
C1423 C 0.49738 0.42344 0.14478 0.0
C1424 C 0.50668 0.43573 0.15116 0.0
C1425 C 0.50278 0.44529 0.15431 0.0
C1426 C 0.48979 0.44262 0.15051 0.0
C1427 C 0.48064 0.43018 0.14427 0.0
C1428 C 0.52052 0.43832 0.1549 0.0
C1429 C 0.48549 0.45279 0.15332 0.0
C1430 C 0.51039 0.45968 0.21987 0.0
C1431 C 0.51977 0.47145 0.22686 0.0
C1432 C 0.52927 0.48283 0.21991 0.0
C1433 C 0.52955 0.48253 0.20554 0.0
C1434 C 0.53899 0.49381 0.19824 0.0
C1435 C 0.53944 0.49329 0.18412 0.0
C1436 C 0.53046 0.48148 0.17674 0.0
C1437 C 0.53114 0.48072 0.16241 0.0
C1438 C 0.52191 0.4689 0.15538 0.0
C1439 C 0.51202 0.45769 0.1623 0.0
C1440 C 0.5113 0.4582 0.17666 0.0
C1441 C 0.50158 0.44707 0.18397 0.0
C1442 C 0.50112 0.44758 0.1981 0.0
C1443 C 0.51046 0.45919 0.20549 0.0
C1444 C 0.52018 0.47062 0.19831 0.0
C1445 C 0.52061 0.47012 0.18389 0.0
C1446 C 0.5917 0.53792 0.14946 0.0
C1447 C 0.58601 0.53152 0.13542 0.0
O1448 O 0.47804 0.41853 0.25642 0.0
O1449 O 0.47543 0.408 0.13646 0.0
O1450 O 0.57212 0.52606 0.13506 0.0
O1451 O 0.56556 0.52858 0.25175 0.0
H1452 H 0.48119 0.43318 0.27075 0.0
H1453 H 0.49561 0.42433 0.27673 0.0
H1454 H 0.48137 0.40752 0.27837 0.0
H1455 H 0.48349 0.42085 0.28998 0.0
H1456 H 0.4736 0.43783 0.2489 0.0
H1457 H 0.49734 0.41937 0.24208 0.0
H1458 H 0.49397 0.46823 0.23693 0.0
H1459 H 0.47622 0.45594 0.23551 0.0
H1460 H 0.48686 0.46064 0.22067 0.0
H1461 H 0.51672 0.42911 0.22836 0.0
H1462 H 0.52482 0.44714 0.22639 0.0
H1463 H 0.51395 0.43597 0.21322 0.0
H1464 H 0.57934 0.52448 0.26116 0.0
H1465 H 0.58769 0.54405 0.2732 0.0
H1466 H 0.57784 0.54856 0.26556 0.0
H1467 H 0.60141 0.55783 0.2491 0.0
H1468 H 0.57059 0.50961 0.24199 0.0
H1469 H 0.54186 0.52282 0.24409 0.0
H1470 H 0.5561 0.48649 0.21568 0.0
H1471 H 0.54833 0.47659 0.23039 0.0
H1472 H 0.56598 0.48952 0.23096 0.0
H1473 H 0.52083 0.51122 0.2327 0.0
H1474 H 0.51368 0.49321 0.2336 0.0
H1475 H 0.52028 0.50151 0.21783 0.0
H1476 H 0.58842 0.52349 0.13318 0.0
H1477 H 0.57522 0.50684 0.147 0.0
H1478 H 0.54731 0.51965 0.13679 0.0
H1479 H 0.55784 0.48498 0.17145 0.0
H1480 H 0.56843 0.48622 0.15736 0.0
H1481 H 0.55063 0.47371 0.15709 0.0
H1482 H 0.5246 0.50785 0.14371 0.0
H1483 H 0.5219 0.49909 0.15951 0.0
H1484 H 0.51766 0.48983 0.1437 0.0
H1485 H 0.45882 0.40574 0.14691 0.0
H1486 H 0.44753 0.38092 0.14761 0.0
H1487 H 0.46419 0.38911 0.15509 0.0
H1488 H 0.46139 0.38136 0.13841 0.0
H1489 H 0.50015 0.41592 0.14256 0.0
H1490 H 0.47068 0.42811 0.14137 0.0
H1491 H 0.52208 0.43993 0.16607 0.0
H1492 H 0.52836 0.44766 0.14999 0.0
H1493 H 0.52198 0.42985 0.15175 0.0
H1494 H 0.47551 0.44971 0.14869 0.0
H1495 H 0.49313 0.46278 0.14934 0.0
H1496 H 0.48488 0.45403 0.16448 0.0
H1497 H 0.51973 0.47174 0.23789 0.0
H1498 H 0.54621 0.50314 0.20336 0.0
H1499 H 0.54697 0.50228 0.17906 0.0
H1500 H 0.52252 0.46836 0.1444 0.0
H1501 H 0.49423 0.43779 0.17886 0.0
H1502 H 0.49342 0.43872 0.20319 0.0
H1503 H 0.58925 0.54588 0.15191 0.0
H1504 H 0.60284 0.54247 0.14969 0.0
H1505 H 0.58735 0.53019 0.15745 0.0
C1506 C 0.45803 0.98423 0.27762 0.0
C1507 C 0.4545 0.99282 0.26879 0.0
C1508 C 0.46067 0.99066 0.24575 0.0
C1509 C 0.46954 0.00413 0.24238 0.0
C1510 C 0.47985 0.00745 0.23291 0.0
C1511 C 0.48126 0.99705 0.22673 0.0
C1512 C 0.47185 0.98341 0.22958 0.0
C1513 C 0.46153 0.98037 0.23898 0.0
C1514 C 0.48948 0.02209 0.22981 0.0
C1515 C 0.47302 0.97209 0.22308 0.0
C1516 C 0.56135 0.02926 0.27515 0.0
C1517 C 0.55934 0.01744 0.26609 0.0
C1518 C 0.55134 0.01791 0.2436 0.0
C1519 C 0.54206 0.00435 0.24048 0.0
C1520 C 0.53111 0.00079 0.2317 0.0
C1521 C 0.52934 0.01105 0.22615 0.0
C1522 C 0.53891 0.02478 0.22911 0.0
C1523 C 0.54997 0.02803 0.23762 0.0
C1524 C 0.52128 0.98608 0.22857 0.0
C1525 C 0.53724 0.03601 0.22365 0.0
C1526 C 0.55703 0.02905 0.14365 0.0
C1527 C 0.54859 0.015 0.14451 0.0
C1528 C 0.53528 0.00938 0.14914 0.0
C1529 C 0.53044 0.01802 0.15309 0.0
C1530 C 0.53862 0.0321 0.15124 0.0
C1531 C 0.55179 0.03741 0.14636 0.0
C1532 C 0.52664 0.99429 0.15049 0.0
C1533 C 0.53368 0.04158 0.15507 0.0
C1534 C 0.42524 0.99094 0.1486 0.0
C1535 C 0.43754 0.0012 0.14063 0.0
C1536 C 0.45727 0.99841 0.14184 0.0
C1537 C 0.46011 0.98802 0.14275 0.0
C1538 C 0.47225 0.99034 0.14855 0.0
C1539 C 0.48181 0.00343 0.15341 0.0
C1540 C 0.47934 0.01417 0.15179 0.0
C1541 C 0.46712 0.01157 0.14591 0.0
C1542 C 0.47468 0.97873 0.1499 0.0
C1543 C 0.4895 0.02833 0.15653 0.0
C1544 C 0.49326 0.00056 0.2183 0.0
C1545 C 0.50511 0.00348 0.22509 0.0
C1546 C 0.51705 0.00741 0.21803 0.0
C1547 C 0.5172 0.00833 0.20372 0.0
C1548 C 0.52901 0.01215 0.19628 0.0
C1549 C 0.5292 0.01357 0.18227 0.0
C1550 C 0.51752 0.01096 0.17508 0.0
C1551 C 0.5177 0.01264 0.16085 0.0
C1552 C 0.50591 0.00992 0.15401 0.0
C1553 C 0.49389 0.00571 0.16109 0.0
C1554 C 0.49355 0.00412 0.17535 0.0
C1555 C 0.48168 0.00011 0.1828 0.0
C1556 C 0.48153 0.99887 0.19686 0.0
C1557 C 0.49322 0.00154 0.204 0.0
C1558 C 0.50526 0.00547 0.19669 0.0
C1559 C 0.50542 0.00676 0.18235 0.0
C1560 C 0.59103 0.0419 0.15207 0.0
C1561 C 0.5788 0.03035 0.14468 0.0
O1562 O 0.45139 0.98739 0.25569 0.0
O1563 O 0.44506 0.99536 0.13678 0.0
O1564 O 0.5703 0.03486 0.14054 0.0
O1565 O 0.56148 0.02139 0.25266 0.0
H1566 H 0.46349 0.0032 0.26878 0.0
H1567 H 0.46703 0.98429 0.27345 0.0
H1568 H 0.4495 0.97362 0.2778 0.0
H1569 H 0.4604 0.98838 0.28819 0.0
H1570 H 0.4685 0.01205 0.24726 0.0
H1571 H 0.45447 0.96999 0.24154 0.0
H1572 H 0.49967 0.02515 0.23384 0.0
H1573 H 0.48622 0.02885 0.23438 0.0
H1574 H 0.49036 0.0235 0.21863 0.0
H1575 H 0.46469 0.962 0.2261 0.0
H1576 H 0.48279 0.97309 0.22607 0.0
H1577 H 0.47295 0.97276 0.21184 0.0
H1578 H 0.54874 0.00904 0.26751 0.0
H1579 H 0.55962 0.02627 0.28598 0.0
H1580 H 0.55403 0.03235 0.27219 0.0
H1581 H 0.57174 0.03805 0.27407 0.0
H1582 H 0.54337 0.99659 0.24501 0.0
H1583 H 0.55728 0.03848 0.2401 0.0
H1584 H 0.51927 0.98442 0.21745 0.0
H1585 H 0.51154 0.983 0.23366 0.0
H1586 H 0.52506 0.97949 0.23211 0.0
H1587 H 0.54473 0.04602 0.2281 0.0
H1588 H 0.52693 0.03407 0.22582 0.0
H1589 H 0.53849 0.03642 0.21245 0.0
H1590 H 0.5737 0.02213 0.15218 0.0
H1591 H 0.55246 0.00846 0.14181 0.0
H1592 H 0.55832 0.04821 0.14534 0.0
H1593 H 0.52565 0.99171 0.16142 0.0
H1594 H 0.53103 0.98888 0.1451 0.0
H1595 H 0.51633 0.99066 0.1464 0.0
H1596 H 0.54124 0.05226 0.15288 0.0
H1597 H 0.53128 0.04077 0.16608 0.0
H1598 H 0.52425 0.03868 0.14936 0.0
H1599 H 0.44339 0.01009 0.14751 0.0
H1600 H 0.41903 0.99537 0.1518 0.0
H1601 H 0.4286 0.98806 0.15786 0.0
H1602 H 0.4189 0.98169 0.14231 0.0
H1603 H 0.45257 0.97796 0.13927 0.0
H1604 H 0.46536 0.01984 0.14449 0.0
H1605 H 0.47501 0.97667 0.16083 0.0
H1606 H 0.48462 0.98142 0.14548 0.0
H1607 H 0.46669 0.96937 0.14477 0.0
H1608 H 0.48617 0.03562 0.15435 0.0
H1609 H 0.49931 0.03171 0.15145 0.0
H1610 H 0.49122 0.02847 0.16765 0.0
H1611 H 0.5051 0.00292 0.2361 0.0
H1612 H 0.53828 0.01424 0.20124 0.0
H1613 H 0.53867 0.01676 0.17716 0.0
H1614 H 0.50615 0.01132 0.14311 0.0
H1615 H 0.47237 0.99796 0.17787 0.0
H1616 H 0.47214 0.99584 0.20208 0.0
H1617 H 0.59802 0.03852 0.15546 0.0
H1618 H 0.58763 0.04516 0.16119 0.0
H1619 H 0.59656 0.0507 0.14534 0.0
C1620 C 0.53236 0.97611 0.73781 0.0
C1621 C 0.54231 0.9866 0.74808 0.0
C1622 C 0.53436 0.98475 0.77112 0.0
C1623 C 0.54002 0.99833 0.77509 0.0
C1624 C 0.53365 0.00221 0.78481 0.0
C1625 C 0.5213 0.99229 0.79052 0.0
C1626 C 0.51589 0.97851 0.78692 0.0
C1627 C 0.52267 0.9749 0.77741 0.0
C1628 C 0.53989 0.01694 0.78867 0.0
C1629 C 0.50266 0.96767 0.79264 0.0
C1630 C 0.48046 0.03536 0.74736 0.0
C1631 C 0.46961 0.02245 0.75401 0.0
C1632 C 0.47682 0.01941 0.77603 0.0
C1633 C 0.47197 0.00556 0.77655 0.0
C1634 C 0.47849 0.00063 0.78461 0.0
C1635 C 0.49025 0.00982 0.79207 0.0
C1636 C 0.49508 0.02384 0.79162 0.0
C1637 C 0.48809 0.02843 0.78379 0.0
C1638 C 0.47289 0.98561 0.78504 0.0
C1639 C 0.50774 0.034 0.79915 0.0
C1640 C 0.4692 0.0125 0.87544 0.0
C1641 C 0.46435 0.99882 0.87243 0.0
C1642 C 0.47304 0.99461 0.86735 0.0
C1643 C 0.48683 0.00429 0.86537 0.0
C1644 C 0.49192 0.01787 0.86948 0.0
C1645 C 0.48301 0.02179 0.87457 0.0
C1646 C 0.46739 0.97997 0.86345 0.0
C1647 C 0.50662 0.02839 0.86775 0.0
C1648 C 0.5521 0.96295 0.86752 0.0
C1649 C 0.5537 0.97459 0.87663 0.0
C1650 C 0.53399 0.97721 0.87593 0.0
C1651 C 0.5202 0.96873 0.87337 0.0
C1652 C 0.51256 0.97367 0.86738 0.0
C1653 C 0.51886 0.9875 0.8642 0.0
C1654 C 0.53263 0.9963 0.86757 0.0
C1655 C 0.54008 0.99104 0.87339 0.0
C1656 C 0.49785 0.96404 0.86411 0.0
C1657 C 0.53953 0.01118 0.86478 0.0
C1658 C 0.51342 0.99645 0.79917 0.0
C1659 C 0.50592 0.00116 0.79259 0.0
C1660 C 0.4978 0.00481 0.79987 0.0
C1661 C 0.49704 0.00367 0.81418 0.0
C1662 C 0.48868 0.00687 0.82179 0.0
C1663 C 0.48816 0.00592 0.83587 0.0
C1664 C 0.49588 0.0016 0.8429 0.0
C1665 C 0.4954 0.00063 0.85723 0.0
C1666 C 0.50306 0.99615 0.86391 0.0
C1667 C 0.51125 0.99257 0.8566 0.0
C1668 C 0.51193 0.99358 0.84226 0.0
C1669 C 0.52009 0.9901 0.83458 0.0
C1670 C 0.5207 0.99115 0.82048 0.0
C1671 C 0.51305 0.99555 0.8135 0.0
C1672 C 0.50479 0.99913 0.82102 0.0
C1673 C 0.50422 0.99812 0.83541 0.0
C1674 C 0.44714 0.0234 0.86696 0.0
C1675 C 0.44781 0.01216 0.87429 0.0
O1676 O 0.53975 0.98103 0.76088 0.0
O1677 O 0.54108 0.97177 0.88101 0.0
O1678 O 0.46087 0.01712 0.87906 0.0
O1679 O 0.47077 0.02425 0.76802 0.0
H1680 H 0.54052 0.99525 0.74787 0.0
H1681 H 0.52188 0.97326 0.74058 0.0
H1682 H 0.53308 0.96686 0.73773 0.0
H1683 H 0.5344 0.98034 0.72743 0.0
H1684 H 0.54929 0.00587 0.77039 0.0
H1685 H 0.51849 0.96443 0.77431 0.0
H1686 H 0.53377 0.0209 0.78423 0.0
H1687 H 0.55041 0.02307 0.78495 0.0
H1688 H 0.5399 0.01822 0.7999 0.0
H1689 H 0.49947 0.95753 0.78823 0.0
H1690 H 0.49462 0.97006 0.79063 0.0
H1691 H 0.5036 0.96733 0.80383 0.0
H1692 H 0.4713 0.0141 0.75078 0.0
H1693 H 0.47991 0.0341 0.7361 0.0
H1694 H 0.49063 0.03768 0.75078 0.0
H1695 H 0.47917 0.04401 0.75021 0.0
H1696 H 0.46306 0.99864 0.77067 0.0
H1697 H 0.49167 0.03912 0.78332 0.0
H1698 H 0.47224 0.98238 0.79573 0.0
H1699 H 0.47979 0.9831 0.77956 0.0
H1700 H 0.46272 0.97977 0.78024 0.0
H1701 H 0.51106 0.04454 0.79635 0.0
H1702 H 0.51607 0.03204 0.797 0.0
H1703 H 0.50589 0.03303 0.81026 0.0
H1704 H 0.44491 0.00389 0.86661 0.0
H1705 H 0.45377 0.99145 0.87381 0.0
H1706 H 0.48669 0.03226 0.87726 0.0
H1707 H 0.46772 0.97896 0.85223 0.0
H1708 H 0.45679 0.9735 0.86681 0.0
H1709 H 0.47368 0.97624 0.86798 0.0
H1710 H 0.50925 0.0382 0.87266 0.0
H1711 H 0.50893 0.03 0.85675 0.0
H1712 H 0.51309 0.02482 0.87216 0.0
H1713 H 0.55858 0.98381 0.87036 0.0
H1714 H 0.56212 0.96498 0.86396 0.0
H1715 H 0.54584 0.96187 0.85847 0.0
H1716 H 0.54706 0.9533 0.87307 0.0
H1717 H 0.51555 0.95812 0.87565 0.0
H1718 H 0.55062 0.99775 0.87599 0.0
H1719 H 0.49602 0.96414 0.85304 0.0
H1720 H 0.49155 0.96737 0.86955 0.0
H1721 H 0.4945 0.95353 0.86703 0.0
H1722 H 0.54986 0.01688 0.86925 0.0
H1723 H 0.53347 0.01542 0.86895 0.0
H1724 H 0.54027 0.0127 0.85363 0.0
H1725 H 0.50635 0.00193 0.7816 0.0
H1726 H 0.48245 0.01018 0.81695 0.0
H1727 H 0.48158 0.00862 0.84115 0.0
H1728 H 0.50258 0.99537 0.8749 0.0
H1729 H 0.52614 0.98656 0.83937 0.0
H1730 H 0.52721 0.98842 0.81511 0.0
H1731 H 0.43673 0.01969 0.86311 0.0
H1732 H 0.4541 0.02675 0.85816 0.0
H1733 H 0.45016 0.03223 0.8739 0.0
C1734 C 0.01701 0.55128 0.74853 0.0
C1735 C 0.00533 0.5512 0.7561 0.0
C1736 C 0.00579 0.54388 0.77882 0.0
C1737 C 0.99257 0.53325 0.7808 0.0
C1738 C 0.98999 0.52262 0.7894 0.0
C1739 C 0.0009 0.52263 0.796 0.0
C1740 C 0.01422 0.53362 0.79434 0.0
C1741 C 0.01645 0.54426 0.78593 0.0
C1742 C 0.97565 0.51123 0.79115 0.0
C1743 C 0.02616 0.53391 0.80103 0.0
C1744 C 0.00635 0.43607 0.75758 0.0
C1745 C 0.00933 0.44867 0.76495 0.0
C1746 C 0.99766 0.45848 0.77693 0.0
C1747 C 0.00946 0.46927 0.78277 0.0
C1748 C 0.00889 0.47895 0.79111 0.0
C1749 C 0.99627 0.47784 0.79368 0.0
C1750 C 0.98437 0.467 0.78787 0.0
C1751 C 0.98522 0.45742 0.77956 0.0
C1752 C 0.0218 0.49042 0.79715 0.0
C1753 C 0.97078 0.46555 0.79046 0.0
C1754 C 0.99141 0.45046 0.8768 0.0
C1755 C 0.00431 0.46098 0.87331 0.0
C1756 C 0.00614 0.47315 0.86837 0.0
C1757 C 0.99484 0.47481 0.86697 0.0
C1758 C 0.98198 0.46454 0.87127 0.0
C1759 C 0.98047 0.45251 0.87625 0.0
C1760 C 0.02006 0.48407 0.86425 0.0
C1761 C 0.96977 0.46606 0.87009 0.0
C1762 C 0.02097 0.5764 0.86984 0.0
C1763 C 0.01199 0.56816 0.88162 0.0
C1764 C 0.01216 0.54717 0.8816 0.0
C1765 C 0.02186 0.54375 0.87832 0.0
C1766 C 0.01812 0.53125 0.87215 0.0
C1767 C 0.0043 0.52188 0.86951 0.0
C1768 C 0.99437 0.5249 0.87377 0.0
C1769 C 0.99842 0.53757 0.87975 0.0
C1770 C 0.02896 0.52826 0.86794 0.0
C1771 C 0.97955 0.51494 0.87152 0.0
C1772 C 0.99853 0.5106 0.8036 0.0
C1773 C 0.99722 0.49963 0.79599 0.0
C1774 C 0.99571 0.48821 0.80232 0.0
C1775 C 0.99515 0.48747 0.81665 0.0
C1776 C 0.99334 0.47598 0.8233 0.0
C1777 C 0.99339 0.47557 0.83742 0.0
C1778 C 0.99548 0.48674 0.84543 0.0
C1779 C 0.99623 0.48667 0.85979 0.0
C1780 C 0.99875 0.49809 0.86743 0.0
C1781 C 0.00042 0.50961 0.86108 0.0
C1782 C -0.00068 0.50971 0.84676 0.0
C1783 C 0.00065 0.52102 0.84007 0.0
C1784 C 0.0 0.5212 0.82595 0.0
C1785 C 0.99836 0.51022 0.81796 0.0
C1786 C 0.99671 0.49861 0.8245 0.0
C1787 C 0.99705 0.49831 0.83891 0.0
C1788 C 0.98489 0.41902 0.8677 0.0
C1789 C 0.99532 0.43146 0.87579 0.0
O1790 O 0.00847 0.5537 0.76984 0.0
O1791 O 0.01636 0.55979 0.88648 0.0
O1792 O 0.98915 0.43829 0.88087 0.0
O1793 O 0.99786 0.44895 0.76875 0.0
H1794 H 0.99617 0.54105 0.75448 0.0
H1795 H 0.0186 0.54321 0.75243 0.0
H1796 H 0.0265 0.56114 0.75001 0.0
H1797 H 0.01467 0.54937 0.73747 0.0
H1798 H 0.98431 0.53322 0.7755 0.0
H1799 H 0.0266 0.55263 0.78438 0.0
H1800 H 0.97431 0.50202 0.78587 0.0
H1801 H 0.96819 0.51362 0.78692 0.0
H1802 H 0.97348 0.5089 0.8021 0.0
H1803 H 0.03593 0.54259 0.79773 0.0
H1804 H 0.0261 0.52443 0.79862 0.0
H1805 H 0.02546 0.53462 0.81223 0.0
H1806 H 0.0171 0.45819 0.76013 0.0
H1807 H 0.0106 0.43947 0.74714 0.0
H1808 H 0.99548 0.43096 0.75413 0.0
H1809 H 0.01357 0.42704 0.77079 0.0
H1810 H 0.01917 0.47023 0.78087 0.0
H1811 H 0.97617 0.44906 0.77505 0.0
H1812 H 0.02116 0.4903 0.80842 0.0
H1813 H 0.02321 0.5002 0.7938 0.0
H1814 H 0.03082 0.48986 0.79415 0.0
H1815 H 0.96243 0.45643 0.78535 0.0
H1816 H 0.97077 0.4746 0.78678 0.0
H1817 H 0.96885 0.46496 0.80157 0.0
H1818 H 0.00357 0.43779 0.86865 0.0
H1819 H 0.01295 0.45972 0.87442 0.0
H1820 H 0.9706 0.44443 0.87928 0.0
H1821 H 0.0203 0.48532 0.85307 0.0
H1822 H 0.02797 0.48174 0.86709 0.0
H1823 H 0.02251 0.49384 0.86911 0.0
H1824 H 0.96059 0.4574 0.87444 0.0
H1825 H 0.96779 0.46691 0.85921 0.0
H1826 H 0.97174 0.47549 0.8754 0.0
H1827 H 0.0015 0.56213 0.87756 0.0
H1828 H 0.01775 0.58337 0.86606 0.0
H1829 H 0.02008 0.56952 0.86133 0.0
H1830 H 0.03173 0.58236 0.87309 0.0
H1831 H 0.03242 0.55116 0.88007 0.0
H1832 H 0.99087 0.53998 0.88291 0.0
H1833 H 0.02865 0.52676 0.85673 0.0
H1834 H 0.02705 0.51876 0.87263 0.0
H1835 H 0.03922 0.5365 0.87097 0.0
H1836 H 0.97306 0.51818 0.87672 0.0
H1837 H 0.97697 0.50488 0.87527 0.0
H1838 H 0.97724 0.51383 0.86046 0.0
H1839 H 0.99782 0.50017 0.78498 0.0
H1840 H 0.9919 0.46718 0.81766 0.0
H1841 H 0.99198 0.46646 0.84195 0.0
H1842 H -0.00035 0.4981 0.87841 0.0
H1843 H 0.00223 0.5299 0.84565 0.0
H1844 H 0.00107 0.53016 0.82136 0.0
H1845 H 0.98958 0.41339 0.86345 0.0
H1846 H 0.98094 0.42218 0.85911 0.0
H1847 H 0.97629 0.41221 0.87426 0.0
C1848 C 0.51759 0.57645 0.7461 0.0
C1849 C 0.52878 0.57988 0.7567 0.0
C1850 C 0.51685 0.56108 0.77251 0.0
C1851 C 0.50802 0.56509 0.77776 0.0
C1852 C 0.4975 0.55673 0.7865 0.0
C1853 C 0.49594 0.54425 0.79032 0.0
C1854 C 0.50522 0.5405 0.78566 0.0
C1855 C 0.51554 0.54897 0.77678 0.0
C1856 C 0.4878 0.56105 0.79135 0.0
C1857 C 0.50402 0.5274 0.7898 0.0
C1858 C 0.41517 0.48749 0.73634 0.0
C1859 C 0.42173 0.48262 0.74649 0.0
C1860 C 0.42824 0.49158 0.76948 0.0
C1861 C 0.43835 0.48852 0.77202 0.0
C1862 C 0.44854 0.49602 0.78169 0.0
C1863 C 0.44878 0.50699 0.78869 0.0
C1864 C 0.43836 0.50987 0.78633 0.0
C1865 C 0.42803 0.50186 0.77697 0.0
C1866 C 0.45928 0.49245 0.7841 0.0
C1867 C 0.43841 0.5217 0.79326 0.0
C1868 C 0.42106 0.49231 0.87536 0.0
C1869 C 0.4292 0.48707 0.8713 0.0
C1870 C 0.44172 0.49534 0.86509 0.0
C1871 C 0.44597 0.50901 0.86261 0.0
C1872 C 0.43792 0.51436 0.86707 0.0
C1873 C 0.42566 0.50597 0.87361 0.0
C1874 C 0.45032 0.48943 0.86106 0.0
C1875 C 0.44213 0.5289 0.86476 0.0
C1876 C 0.53883 0.59672 0.87274 0.0
C1877 C 0.5328 0.58974 0.88623 0.0
C1878 C 0.51632 0.56657 0.87836 0.0
C1879 C 0.51418 0.55355 0.8768 0.0
C1880 C 0.50289 0.54343 0.86967 0.0
C1881 C 0.49346 0.54643 0.86405 0.0
C1882 C 0.49532 0.55948 0.86593 0.0
C1883 C 0.50675 0.56944 0.87303 0.0
C1884 C 0.50119 0.52961 0.86789 0.0
C1885 C 0.48534 0.56296 0.86022 0.0
C1886 C 0.48395 0.53463 0.79821 0.0
C1887 C 0.47246 0.52536 0.79086 0.0
C1888 C 0.46057 0.5162 0.79742 0.0
C1889 C 0.46006 0.51625 0.81179 0.0
C1890 C 0.44828 0.50719 0.81875 0.0
C1891 C 0.44774 0.50767 0.83288 0.0
C1892 C 0.45907 0.517 0.84062 0.0
C1893 C 0.45859 0.51763 0.85499 0.0
C1894 C 0.47002 0.52712 0.86233 0.0
C1895 C 0.48195 0.53613 0.85571 0.0
C1896 C 0.48265 0.53559 0.84137 0.0
C1897 C 0.49453 0.54446 0.8344 0.0
C1898 C 0.49502 0.54411 0.82027 0.0
C1899 C 0.48365 0.53487 0.81257 0.0
C1900 C 0.47163 0.52568 0.81938 0.0
C1901 C 0.47114 0.52603 0.83381 0.0
C1902 C 0.38573 0.46975 0.87578 0.0
C1903 C 0.3996 0.47121 0.87766 0.0
O1904 O 0.52652 0.56834 0.76317 0.0
O1905 O 0.52778 0.57598 0.88492 0.0
O1906 O 0.4088 0.48455 0.8811 0.0
O1907 O 0.41883 0.485 0.75958 0.0
H1908 H 0.52865 0.58713 0.76425 0.0
H1909 H 0.50797 0.57385 0.75116 0.0
H1910 H 0.51569 0.56763 0.73965 0.0
H1911 H 0.5204 0.58524 0.73955 0.0
H1912 H 0.50904 0.57458 0.77492 0.0
H1913 H 0.52249 0.54602 0.77287 0.0
H1914 H 0.47747 0.55371 0.78757 0.0
H1915 H 0.49062 0.57125 0.78782 0.0
H1916 H 0.48747 0.56106 0.80264 0.0
H1917 H 0.51265 0.52643 0.78619 0.0
H1918 H 0.49453 0.51881 0.78554 0.0
H1919 H 0.50347 0.52662 0.80105 0.0
H1920 H 0.43283 0.48865 0.7447 0.0
H1921 H 0.41745 0.48581 0.72575 0.0
H1922 H 0.41921 0.49846 0.73796 0.0
H1923 H 0.40404 0.48207 0.73768 0.0
H1924 H 0.43829 0.48033 0.76637 0.0
H1925 H 0.42009 0.50404 0.77494 0.0
H1926 H 0.46877 0.49998 0.77913 0.0
H1927 H 0.45631 0.48229 0.77987 0.0
H1928 H 0.4614 0.49274 0.79515 0.0
H1929 H 0.43064 0.5236 0.78895 0.0
H1930 H 0.44847 0.53098 0.7923 0.0
H1931 H 0.43638 0.5197 0.80426 0.0
H1932 H 0.4023 0.46839 0.86775 0.0
H1933 H 0.42583 0.47657 0.87308 0.0
H1934 H 0.41938 0.50993 0.87701 0.0
H1935 H 0.45023 0.48834 0.84982 0.0
H1936 H 0.44662 0.47936 0.86552 0.0
H1937 H 0.46095 0.49629 0.86435 0.0
H1938 H 0.43406 0.53109 0.86751 0.0
H1939 H 0.44483 0.53146 0.85393 0.0
H1940 H 0.45122 0.53557 0.87103 0.0
H1941 H 0.52455 0.59157 0.8893 0.0
H1942 H 0.54305 0.60777 0.87388 0.0
H1943 H 0.53096 0.59285 0.86465 0.0
H1944 H 0.54698 0.59485 0.86942 0.0
H1945 H 0.52156 0.55139 0.88101 0.0
H1946 H 0.50813 0.57941 0.87424 0.0
H1947 H 0.50098 0.52717 0.85688 0.0
H1948 H 0.49138 0.52191 0.87222 0.0
H1949 H 0.50943 0.52888 0.87288 0.0
H1950 H 0.4877 0.57325 0.86337 0.0
H1951 H 0.47499 0.55555 0.86361 0.0
H1952 H 0.48539 0.56238 0.84894 0.0
H1953 H 0.47273 0.52538 0.77983 0.0
H1954 H 0.4393 0.49972 0.81334 0.0
H1955 H 0.4383 0.50062 0.83764 0.0
H1956 H 0.46954 0.52769 0.87333 0.0
H1957 H 0.50358 0.55184 0.83979 0.0
H1958 H 0.5044 0.55122 0.81544 0.0
H1959 H 0.38236 0.47226 0.88542 0.0
H1960 H 0.37813 0.45928 0.87252 0.0
H1961 H 0.38626 0.4767 0.8678 0.0
C1962 C 0.63743 0.78572 0.60685 0.0
C1963 C 0.62945 0.77197 0.59948 0.0
C1964 C 0.62748 0.77976 0.57727 0.0
C1965 C 0.61391 0.77631 0.57698 0.0
C1966 C 0.60966 0.78322 0.56865 0.0
C1967 C 0.61923 0.79393 0.56062 0.0
C1968 C 0.6329 0.79727 0.56076 0.0
C1969 C 0.63678 0.78991 0.56889 0.0
C1970 C 0.59496 0.77917 0.56852 0.0
C1971 C 0.64349 0.80882 0.55261 0.0
C1972 C 0.60089 0.85079 0.61312 0.0
C1973 C 0.6115 0.85843 0.60225 0.0
C1974 C 0.60641 0.84793 0.57988 0.0
C1975 C 0.61912 0.85088 0.57523 0.0
C1976 C 0.62036 0.84222 0.5659 0.0
C1977 C 0.60862 0.83027 0.56132 0.0
C1978 C 0.59574 0.82753 0.56568 0.0
C1979 C 0.59481 0.83657 0.57475 0.0
C1980 C 0.63423 0.84564 0.56123 0.0
C1981 C 0.58303 0.81481 0.5612 0.0
C1982 C 0.5905 0.83916 0.47428 0.0
C1983 C 0.60397 0.84477 0.4785 0.0
C1984 C 0.60825 0.83685 0.48505 0.0
C1985 C 0.59873 0.82318 0.48782 0.0
C1986 C 0.58521 0.81747 0.48325 0.0
C1987 C 0.58135 0.8255 0.4763 0.0
C1988 C 0.62291 0.84312 0.4891 0.0
C1989 C 0.57476 0.80293 0.48586 0.0
C1990 C 0.60499 0.73694 0.47858 0.0
C1991 C 0.60605 0.74398 0.46516 0.0
C1992 C 0.61249 0.76693 0.47319 0.0
C1993 C 0.62336 0.78011 0.47478 0.0
C1994 C 0.62195 0.79001 0.48183 0.0
C1995 C 0.60928 0.78662 0.48736 0.0
C1996 C 0.59812 0.77339 0.48551 0.0
C1997 C 0.59983 0.76366 0.47846 0.0
C1998 C 0.63405 0.80403 0.48359 0.0
C1999 C 0.58443 0.7695 0.49116 0.0
C2000 C 0.61509 0.80208 0.55266 0.0
C2001 C 0.61347 0.81179 0.55971 0.0
C2002 C 0.60995 0.82014 0.55296 0.0
C2003 C 0.60802 0.81884 0.53869 0.0
C2004 C 0.60454 0.8271 0.53154 0.0
C2005 C 0.60261 0.8257 0.5175 0.0
C2006 C 0.60441 0.81621 0.51002 0.0
C2007 C 0.60277 0.8149 0.4957 0.0
C2008 C 0.60457 0.8053 0.48863 0.0
C2009 C 0.60781 0.79678 0.49547 0.0
C2010 C 0.60948 0.79793 0.50977 0.0
C2011 C 0.6127 0.78948 0.51697 0.0
C2012 C 0.61438 0.79071 0.53102 0.0
C2013 C 0.61307 0.80053 0.53841 0.0
C2014 C 0.60963 0.80903 0.5314 0.0
C2015 C 0.60786 0.80773 0.51705 0.0
C2016 C 0.57738 0.86109 0.47191 0.0
C2017 C 0.58999 0.85986 0.47141 0.0
O2018 O 0.63191 0.77356 0.58562 0.0
O2019 O 0.61478 0.75778 0.46664 0.0
O2020 O 0.58602 0.8466 0.46813 0.0
O2021 O 0.60521 0.85571 0.58963 0.0
H2022 H 0.6185 0.76773 0.60143 0.0
H2023 H 0.63558 0.78464 0.61797 0.0
H2024 H 0.64843 0.79027 0.60501 0.0
H2025 H 0.63422 0.79269 0.6031 0.0
H2026 H 0.60662 0.76815 0.58317 0.0
H2027 H 0.64721 0.79241 0.56915 0.0
H2028 H 0.59381 0.7872 0.57363 0.0
H2029 H 0.58853 0.76955 0.57385 0.0
H2030 H 0.59124 0.77808 0.55789 0.0
H2031 H 0.65386 0.81109 0.55506 0.0
H2032 H 0.64294 0.81805 0.55454 0.0
H2033 H 0.64158 0.80626 0.5416 0.0
H2034 H 0.61871 0.85468 0.60256 0.0
H2035 H 0.60573 0.85288 0.62333 0.0
H2036 H 0.59309 0.85375 0.61321 0.0
H2037 H 0.59583 0.83976 0.61097 0.0
H2038 H 0.62806 0.85987 0.57906 0.0
H2039 H 0.58504 0.83448 0.57838 0.0
H2040 H 0.63429 0.84434 0.55002 0.0
H2041 H 0.63694 0.83865 0.56593 0.0
H2042 H 0.64207 0.85615 0.56411 0.0
H2043 H 0.57387 0.81381 0.56612 0.0
H2044 H 0.58379 0.80585 0.56367 0.0
H2045 H 0.5818 0.81477 0.55001 0.0
H2046 H 0.59468 0.86261 0.48176 0.0
H2047 H 0.61116 0.85527 0.47654 0.0
H2048 H 0.57102 0.82126 0.4728 0.0
H2049 H 0.62397 0.84496 0.50026 0.0
H2050 H 0.62938 0.85291 0.48405 0.0
H2051 H 0.62667 0.8362 0.4865 0.0
H2052 H 0.56439 0.80053 0.48316 0.0
H2053 H 0.57496 0.8006 0.49674 0.0
H2054 H 0.57714 0.79624 0.47971 0.0
H2055 H 0.59588 0.74191 0.46202 0.0
H2056 H 0.59816 0.72585 0.47732 0.0
H2057 H 0.60079 0.74054 0.48668 0.0
H2058 H 0.61509 0.73903 0.48196 0.0
H2059 H 0.63307 0.78257 0.47062 0.0
H2060 H 0.59125 0.75356 0.47725 0.0
H2061 H 0.63623 0.80654 0.49459 0.0
H2062 H 0.63179 0.81149 0.47921 0.0
H2063 H 0.6432 0.80508 0.47862 0.0
H2064 H 0.57661 0.75898 0.48832 0.0
H2065 H 0.5812 0.77645 0.48739 0.0
H2066 H 0.58508 0.77051 0.50242 0.0
H2067 H 0.61507 0.81294 0.57064 0.0
H2068 H 0.60322 0.83471 0.53673 0.0
H2069 H 0.59978 0.83223 0.51259 0.0
H2070 H 0.60329 0.80433 0.47766 0.0
H2071 H 0.61396 0.78182 0.51182 0.0
H2072 H 0.6168 0.7839 0.53602 0.0
H2073 H 0.57232 0.85865 0.46178 0.0
H2074 H 0.58004 0.87147 0.47507 0.0
H2075 H 0.57015 0.85396 0.47942 0.0
C2076 C 0.14702 0.74038 0.61668 0.0
C2077 C 0.14165 0.74792 0.60863 0.0
C2078 C 0.15041 0.75703 0.58649 0.0
C2079 C 0.14764 0.7675 0.58576 0.0
C2080 C 0.15536 0.77862 0.57746 0.0
C2081 C 0.16629 0.77939 0.57003 0.0
C2082 C 0.16901 0.76871 0.57072 0.0
C2083 C 0.16077 0.75749 0.57869 0.0
C2084 C 0.15197 0.78964 0.57683 0.0
C2085 C 0.18083 0.76928 0.5634 0.0
C2086 C 0.25358 0.879 0.60158 0.0
C2087 C 0.24555 0.86475 0.59662 0.0
C2088 C 0.22308 0.84925 0.58709 0.0
C2089 C 0.22624 0.83967 0.58213 0.0
C2090 C 0.21677 0.82836 0.57451 0.0
C2091 C 0.20391 0.82662 0.57174 0.0
C2092 C 0.20063 0.83612 0.57689 0.0
C2093 C 0.21027 0.84731 0.58454 0.0
C2094 C 0.22053 0.81832 0.56928 0.0
C2095 C 0.187 0.83454 0.57414 0.0
C2096 C 0.22837 0.84992 0.48577 0.0
C2097 C 0.23048 0.83983 0.49093 0.0
C2098 C 0.21997 0.82844 0.49716 0.0
C2099 C 0.20709 0.82711 0.49833 0.0
C2100 C 0.20487 0.83713 0.49298 0.0
C2101 C 0.21555 0.8484 0.48675 0.0
C2102 C 0.22269 0.81793 0.50275 0.0
C2103 C 0.19128 0.83603 0.49409 0.0
C2104 C 0.12842 0.72019 0.48121 0.0
C2105 C 0.13098 0.73433 0.47854 0.0
C2106 C 0.15247 0.75525 0.48239 0.0
C2107 C 0.16595 0.75952 0.48517 0.0
C2108 C 0.17428 0.7717 0.49223 0.0
C2109 C 0.16903 0.77998 0.49624 0.0
C2110 C 0.1556 0.7761 0.49269 0.0
C2111 C 0.14741 0.76371 0.48587 0.0
C2112 C 0.18861 0.77557 0.49563 0.0
C2113 C 0.14985 0.78494 0.49633 0.0
C2114 C 0.17539 0.79171 0.56229 0.0
C2115 C 0.18467 0.80322 0.56972 0.0
C2116 C 0.19402 0.815 0.56321 0.0
C2117 C 0.19423 0.81541 0.54885 0.0
C2118 C 0.20358 0.82708 0.54199 0.0
C2119 C 0.2041 0.82722 0.52786 0.0
C2120 C 0.19528 0.81569 0.52004 0.0
C2121 C 0.19618 0.81554 0.5057 0.0
C2122 C 0.18721 0.80395 0.49821 0.0
C2123 C 0.17742 0.79233 0.50469 0.0
C2124 C 0.17644 0.79226 0.51905 0.0
C2125 C 0.1668 0.78072 0.52593 0.0
C2126 C 0.16619 0.78063 0.54007 0.0
C2127 C 0.1754 0.79195 0.5479 0.0
C2128 C 0.18497 0.8038 0.54117 0.0
C2129 C 0.18547 0.80396 0.52674 0.0
C2130 C 0.25972 0.8709 0.49143 0.0
C2131 C 0.25173 0.86503 0.47813 0.0
O2132 O 0.14339 0.74651 0.59487 0.0
O2133 O 0.14466 0.74293 0.47639 0.0
O2134 O 0.23833 0.86131 0.47994 0.0
O2135 O 0.23208 0.8605 0.59423 0.0
H2136 H 0.14773 0.75875 0.6119 0.0
H2137 H 0.15791 0.74464 0.61452 0.0
H2138 H 0.1415 0.72948 0.61381 0.0
H2139 H 0.14588 0.74149 0.62778 0.0
H2140 H 0.13943 0.76694 0.59169 0.0
H2141 H 0.16275 0.74927 0.57934 0.0
H2142 H 0.15965 0.79861 0.58269 0.0
H2143 H 0.14189 0.78645 0.58118 0.0
H2144 H 0.15218 0.79271 0.56615 0.0
H2145 H 0.183 0.7615 0.56701 0.0
H2146 H 0.19005 0.77936 0.5648 0.0
H2147 H 0.17856 0.76753 0.55235 0.0
H2148 H 0.24697 0.85736 0.60248 0.0
H2149 H 0.25692 0.87838 0.61216 0.0
H2150 H 0.24613 0.88198 0.60513 0.0
H2151 H 0.26729 0.88882 0.58582 0.0
H2152 H 0.23608 0.84098 0.58412 0.0
H2153 H 0.20791 0.85473 0.58843 0.0
H2154 H 0.22057 0.81827 0.55799 0.0
H2155 H 0.21289 0.80801 0.5725 0.0
H2156 H 0.23063 0.82068 0.57297 0.0
H2157 H 0.18608 0.84292 0.57871 0.0
H2158 H 0.17895 0.82486 0.57833 0.0
H2159 H 0.18526 0.83415 0.563 0.0
H2160 H 0.25239 0.85609 0.47487 0.0
H2161 H 0.2403 0.84077 0.4903 0.0
H2162 H 0.21399 0.8562 0.48274 0.0
H2163 H 0.22174 0.81775 0.51399 0.0
H2164 H 0.23293 0.8199 0.50014 0.0
H2165 H 0.21508 0.80777 0.49872 0.0
H2166 H 0.19117 0.84467 0.48939 0.0
H2167 H 0.18848 0.83558 0.50496 0.0
H2168 H 0.18346 0.82654 0.48903 0.0
H2169 H 0.12772 0.73751 0.48787 0.0
H2170 H 0.11751 0.71309 0.48302 0.0
H2171 H 0.13416 0.72045 0.49038 0.0
H2172 H 0.13172 0.71638 0.47243 0.0
H2173 H 0.16981 0.75301 0.48221 0.0
H2174 H 0.13709 0.76066 0.48325 0.0
H2175 H 0.19058 0.77785 0.50669 0.0
H2176 H 0.1957 0.78484 0.49012 0.0
H2177 H 0.19078 0.7675 0.49278 0.0
H2178 H 0.13986 0.78132 0.49143 0.0
H2179 H 0.1569 0.79547 0.49322 0.0
H2180 H 0.14865 0.78508 0.50752 0.0
H2181 H 0.18477 0.80293 0.58074 0.0
H2182 H 0.2107 0.83622 0.54746 0.0
H2183 H 0.2116 0.83646 0.52316 0.0
H2184 H 0.18811 0.80384 0.48723 0.0
H2185 H 0.15964 0.77159 0.52047 0.0
H2186 H 0.15853 0.77149 0.5448 0.0
H2187 H 0.25903 0.87971 0.49507 0.0
H2188 H 0.27052 0.87414 0.48987 0.0
H2189 H 0.25572 0.86321 0.49948 0.0
C2190 C 0.15655 0.38986 0.61245 0.0
C2191 C 0.14644 0.3861 0.60068 0.0
C2192 C 0.15769 0.38034 0.58264 0.0
C2193 C 0.16815 0.39361 0.58018 0.0
C2194 C 0.17885 0.39609 0.5715 0.0
C2195 C 0.17909 0.38513 0.56511 0.0
C2196 C 0.16838 0.3718 0.56721 0.0
C2197 C 0.15779 0.36961 0.57592 0.0
C2198 C 0.19007 0.41043 0.56936 0.0
C2199 C 0.16828 0.35988 0.56048 0.0
C2200 C 0.27707 0.40773 0.58354 0.0
C2201 C 0.26563 0.3968 0.59199 0.0
C2202 C 0.24513 0.38851 0.57777 0.0
C2203 C 0.23535 0.37733 0.57037 0.0
C2204 C 0.22471 0.37759 0.56379 0.0
C2205 C 0.224 0.38949 0.56444 0.0
C2206 C 0.23376 0.40082 0.57206 0.0
C2207 C 0.2442 0.4002 0.57875 0.0
C2208 C 0.21433 0.3652 0.55599 0.0
C2209 C 0.23327 0.41365 0.57295 0.0
C2210 C 0.25242 0.40435 0.48007 0.0
C2211 C 0.24186 0.39115 0.48244 0.0
C2212 C 0.22974 0.38883 0.48831 0.0
C2213 C 0.22822 0.39993 0.4919 0.0
C2214 C 0.23856 0.41317 0.4888 0.0
C2215 C 0.2505 0.41519 0.48277 0.0
C2216 C 0.21873 0.37454 0.49104 0.0
C2217 C 0.23719 0.42521 0.49232 0.0
C2218 C 0.13836 0.40003 0.48084 0.0
C2219 C 0.14436 0.39735 0.46805 0.0
C2220 C 0.15965 0.39029 0.47741 0.0
C2221 C 0.16117 0.37917 0.47936 0.0
C2222 C 0.17231 0.38043 0.48647 0.0
C2223 C 0.18219 0.3932 0.49177 0.0
C2224 C 0.18089 0.40459 0.48964 0.0
C2225 C 0.16962 0.40304 0.48248 0.0
C2226 C 0.17345 0.36809 0.48848 0.0
C2227 C 0.19132 0.41836 0.4951 0.0
C2228 C 0.19094 0.38756 0.5569 0.0
C2229 C 0.20172 0.38781 0.5637 0.0
C2230 C 0.21329 0.39016 0.55675 0.0
C2231 C 0.21429 0.39252 0.54262 0.0
C2232 C 0.22597 0.39532 0.5354 0.0
C2233 C 0.22671 0.39719 0.52143 0.0
C2234 C 0.21579 0.39629 0.51412 0.0
C2235 C 0.2163 0.39776 0.49984 0.0
C2236 C 0.2053 0.39687 0.49289 0.0
C2237 C 0.1937 0.39453 0.49983 0.0
C2238 C 0.19299 0.39303 0.51412 0.0
C2239 C 0.18147 0.39064 0.52142 0.0
C2240 C 0.18081 0.38897 0.53545 0.0
C2241 C 0.19159 0.38951 0.54269 0.0
C2242 C 0.20333 0.392 0.53554 0.0
C2243 C 0.20405 0.39383 0.52125 0.0
C2244 C 0.28498 0.4099 0.48461 0.0
C2245 C 0.27102 0.39997 0.47865 0.0
O2246 O 0.14747 0.37738 0.5915 0.0
O2247 O 0.14837 0.38814 0.47073 0.0
O2248 O 0.26459 0.40696 0.47531 0.0
O2249 O 0.25529 0.38752 0.58357 0.0
H2250 H 0.1485 0.39541 0.59539 0.0
H2251 H 0.16707 0.39534 0.60869 0.0
H2252 H 0.15487 0.38066 0.61767 0.0
H2253 H 0.15543 0.39656 0.61995 0.0
H2254 H 0.16818 0.40209 0.58509 0.0
H2255 H 0.14965 0.35942 0.57776 0.0
H2256 H 0.19971 0.41179 0.57334 0.0
H2257 H 0.1881 0.41791 0.57452 0.0
H2258 H 0.19138 0.41255 0.55832 0.0
H2259 H 0.15901 0.35018 0.56282 0.0
H2260 H 0.17721 0.35943 0.56393 0.0
H2261 H 0.16902 0.36112 0.54928 0.0
H2262 H 0.26172 0.4016 0.59911 0.0
H2263 H 0.28545 0.41499 0.59032 0.0
H2264 H 0.27341 0.41343 0.57774 0.0
H2265 H 0.28101 0.40317 0.57618 0.0
H2266 H 0.23612 0.36835 0.56973 0.0
H2267 H 0.25163 0.40893 0.5845 0.0
H2268 H 0.21545 0.36725 0.54494 0.0
H2269 H 0.20398 0.3627 0.55888 0.0
H2270 H 0.21539 0.3563 0.55782 0.0
H2271 H 0.24197 0.42181 0.57874 0.0
H2272 H 0.22379 0.41161 0.578 0.0
H2273 H 0.23318 0.41724 0.56257 0.0
H2274 H 0.26546 0.3926 0.48679 0.0
H2275 H 0.2431 0.38268 0.4798 0.0
H2276 H 0.25863 0.42531 0.48064 0.0
H2277 H 0.21779 0.37293 0.50218 0.0
H2278 H 0.2208 0.36698 0.48623 0.0
H2279 H 0.20888 0.37277 0.4872 0.0
H2280 H 0.24611 0.43486 0.48916 0.0
H2281 H 0.23588 0.42569 0.50347 0.0
H2282 H 0.22804 0.42411 0.48729 0.0
H2283 H 0.15316 0.40698 0.46462 0.0
H2284 H 0.13491 0.40722 0.4786 0.0
H2285 H 0.14604 0.40452 0.4891 0.0
H2286 H 0.12965 0.39049 0.48454 0.0
H2287 H 0.15348 0.3694 0.47536 0.0
H2288 H 0.16867 0.41179 0.48101 0.0
H2289 H 0.17371 0.36637 0.49952 0.0
H2290 H 0.18304 0.36974 0.48405 0.0
H2291 H 0.16491 0.35888 0.48369 0.0
H2292 H 0.18912 0.42631 0.49219 0.0
H2293 H 0.20146 0.42107 0.49124 0.0
H2294 H 0.19172 0.41814 0.50636 0.0
H2295 H 0.20104 0.38604 0.57456 0.0
H2296 H 0.23467 0.39605 0.54046 0.0
H2297 H 0.23595 0.39927 0.51644 0.0
H2298 H 0.20571 0.39789 0.48192 0.0
H2299 H 0.17282 0.39002 0.51637 0.0
H2300 H 0.17169 0.38714 0.54054 0.0
H2301 H 0.29037 0.40454 0.48726 0.0
H2302 H 0.28388 0.41473 0.49402 0.0
H2303 H 0.29115 0.41795 0.47728 0.0
H2304 H 0.98056 0.34474 0.04718 0.0
H2305 H 0.9762 0.35695 0.06532 0.0
H2306 H 0.01484 0.39249 0.05798 0.0
H2307 H 0.01927 0.38048 0.03995 0.0
H2308 H 0.99277 0.37026 0.0892 0.0
H2309 H 0.9874 0.40568 0.05606 0.0
H2310 H 0.98587 0.39014 0.0497 0.0
H2311 H 0.00226 0.40478 0.05271 0.0
C2312 C 0.98811 0.35516 0.04945 0.0
C2313 C 0.00023 0.36168 0.04211 0.0
C2314 C 0.98559 0.3621 0.05977 0.0
C2315 C 0.9951 0.37566 0.06277 0.0
C2316 C 0.00727 0.3821 0.0556 0.0
H2317 H 0.01453 0.44038 0.11795 0.0
H2318 H 0.01232 0.42466 0.09966 0.0
C2319 C 0.00981 0.37519 0.04537 0.0
C2320 C 0.99268 0.38313 0.07368 0.0
H2321 H 0.99155 0.41178 0.07971 0.0
C2322 C 0.99226 0.37921 0.08717 0.0
C2323 C 0.99199 0.39476 0.07091 0.0
C2324 C 0.99177 0.39904 0.05655 0.0
C2325 C 0.99197 0.3871 0.09806 0.0
C2326 C 0.99188 0.39905 0.09529 0.0
C2327 C 0.9917 0.40264 0.08177 0.0
C2328 C 0.9929 0.40847 0.10626 0.0
C2329 C 0.99245 0.38296 0.11242 0.0
C2330 C 0.98264 0.40458 0.11592 0.0
C2331 C 0.9839 0.41353 0.12637 0.0
C2332 C 0.99536 0.42656 0.12722 0.0
C2333 C 0.00555 0.43044 0.11746 0.0
C2334 C 0.0043 0.42149 0.10704 0.0
H2335 H 0.99509 0.37494 0.11276 0.0
H2336 H -6e-05 0.39175 0.11864 0.0
H2337 H 0.9824 0.37902 0.11715 0.0
H2338 H 0.97368 0.39463 0.11536 0.0
H2339 H 0.97593 0.41028 0.13381 0.0
H2340 H 0.61417 0.62144 0.04911 0.0
H2341 H 0.60821 0.60473 0.06666 0.0
H2342 H 0.6458 0.60574 0.06055 0.0
H2343 H 0.65196 0.62263 0.04283 0.0
H2344 H 0.62077 0.57873 0.06145 0.0
H2345 H 0.6264 0.61234 0.10522 0.0
H2346 H 0.61674 0.61288 0.09118 0.0
H2347 H 0.63436 0.61869 0.08902 0.0
C2348 C 0.62123 0.61817 0.05145 0.0
C2349 C 0.63358 0.62344 0.04456 0.0
C2350 C 0.61781 0.60865 0.06155 0.0
C2351 C 0.62665 0.60417 0.06501 0.0
C2352 C 0.6389 0.60918 0.05806 0.0
H2353 H 0.60905 0.53855 0.12111 0.0
H2354 H 0.62031 0.55635 0.10434 0.0
C2355 C 0.64239 0.61882 0.04796 0.0
C2356 C 0.62278 0.59402 0.07572 0.0
H2357 H 0.61435 0.58873 0.10924 0.0
C2358 C 0.61954 0.5809 0.07196 0.0
C2359 C 0.62118 0.59696 0.08937 0.0
C2360 C 0.62496 0.61101 0.09402 0.0
C2361 C 0.61405 0.57043 0.08138 0.0
C2362 C 0.61206 0.57328 0.09497 0.0
C2363 C 0.6158 0.58654 0.09881 0.0
C2364 C 0.60547 0.56256 0.10522 0.0
C2365 C 0.60983 0.55631 0.07652 0.0
C2366 C 0.59366 0.56046 0.11165 0.0
C2367 C 0.58732 0.55044 0.12133 0.0
C2368 C 0.59257 0.54216 0.12464 0.0
C2369 C 0.60458 0.54451 0.11844 0.0
C2370 C 0.61099 0.55463 0.10884 0.0
H2371 H 0.60896 0.55529 0.06526 0.0
H2372 H 0.61753 0.55384 0.07976 0.0
H2373 H 0.6 0.54881 0.08096 0.0
H2374 H 0.58931 0.56657 0.10914 0.0
H2375 H 0.57832 0.54916 0.12622 0.0
H2376 H 0.37415 0.9855 0.03772 0.0
H2377 H 0.38979 0.99209 0.05676 0.0
H2378 H 0.38936 0.0291 0.06199 0.0
H2379 H 0.37344 0.02251 0.04278 0.0
H2380 H 0.41603 0.01629 0.05976 0.0
H2381 H 0.37958 0.01107 0.10009 0.0
H2382 H 0.37392 0.00354 0.08336 0.0
H2383 H 0.3818 0.02146 0.08573 0.0
C2384 C 0.37731 0.99505 0.04287 0.0
C2385 C 0.37246 0.00345 0.03873 0.0
C2386 C 0.38631 0.99882 0.05374 0.0
C2387 C 0.39068 0.01104 0.0608 0.0
C2388 C 0.386 0.01956 0.05672 0.0
H2389 H 0.43511 0.02351 0.13765 0.0
H2390 H 0.42598 0.02934 0.11809 0.0
C2391 C 0.37693 0.01579 0.04575 0.0
C2392 C 0.39995 0.01442 0.07252 0.0
H2393 H 0.40007 0.01335 0.10716 0.0
C2394 C 0.41268 0.01594 0.07014 0.0
C2395 C 0.39558 0.01407 0.08603 0.0
C2396 C 0.38197 0.0124 0.08907 0.0
C2397 C 0.42081 0.01629 0.08092 0.0
C2398 C 0.41596 0.01484 0.09436 0.0
C2399 C 0.4037 0.01436 0.09681 0.0
C2400 C 0.42257 0.01213 0.10575 0.0
C2401 C 0.4343 0.01772 0.07777 0.0
C2402 C 0.42354 0.00048 0.10531 0.0
C2403 C 0.42869 0.99712 0.11641 0.0
C2404 C 0.43305 0.00542 0.12817 0.0
C2405 C 0.43207 0.0171 0.1286 0.0
C2406 C 0.42685 0.02042 0.11748 0.0
H2407 H 0.43846 0.02314 0.06812 0.0
H2408 H 0.44172 0.02321 0.08609 0.0
H2409 H 0.43302 0.00754 0.07656 0.0
H2410 H 0.41991 0.99373 0.09651 0.0
H2411 H 0.42899 0.98788 0.11593 0.0
H2412 H 0.35112 0.97751 0.96274 0.0
H2413 H 0.36456 0.97518 0.94463 0.0
H2414 H 0.39985 0.01171 0.95903 0.0
H2415 H 0.38663 0.01408 0.97707 0.0
H2416 H 0.3788 0.99416 0.92429 0.0
H2417 H 0.41337 0.98505 0.95517 0.0
H2418 H 0.39771 0.98284 0.96172 0.0
H2419 H 0.41254 -0.0006 0.96119 0.0
C2420 C 0.36177 0.98497 0.9621 0.0
C2421 C 0.36783 0.99597 0.97133 0.0
C2422 C 0.36942 0.98361 0.95178 0.0
C2423 C 0.38323 0.99313 0.95067 0.0
C2424 C 0.38927 0.00407 0.95991 0.0
H2425 H 0.45034 0.02455 0.8991 0.0
H2426 H 0.43368 0.01746 0.91729 0.0
C2427 C 0.38166 0.00547 0.97015 0.0
C2428 C 0.39129 0.99235 0.93935 0.0
H2429 H 0.42092 0.99345 0.93265 0.0
C2430 C 0.38786 0.99371 0.92603 0.0
C2431 C 0.40306 0.99172 0.94171 0.0
C2432 C 0.40683 0.98953 0.95571 0.0
C2433 C 0.39642 0.99542 0.91511 0.0
C2434 C 0.40858 0.99553 0.91759 0.0
C2435 C 0.41162 0.99344 0.9308 0.0
C2436 C 0.41885 0.99909 0.9069 0.0
C2437 C 0.39279 0.99789 0.90115 0.0
C2438 C 0.41609 0.99097 0.89516 0.0
C2439 C 0.42559 0.99503 0.88475 0.0
C2440 C 0.43804 0.00718 0.886 0.0
C2441 C 0.44088 0.01509 0.89793 0.0
C2442 C 0.43138 0.01105 0.90831 0.0
H2443 H 0.3843 -0.00013 0.90145 0.0
H2444 H 0.40162 0.0066 0.89641 0.0
H2445 H 0.38971 0.98886 0.89454 0.0
H2446 H 0.40653 0.98162 0.89398 0.0
H2447 H 0.42314 0.98879 0.87562 0.0
H2448 H 0.02446 0.36803 0.96575 0.0
H2449 H 0.02964 0.38334 0.94662 0.0
H2450 H 0.00168 0.39462 0.96229 0.0
H2451 H 0.9966 0.37965 0.98127 0.0
H2452 H 0.01089 0.38103 0.92753 0.0
H2453 H 0.03381 0.43101 0.95298 0.0
H2454 H 0.03262 0.41652 0.96113 0.0
H2455 H 0.01849 0.41918 0.96126 0.0
C2456 C 0.01964 0.37398 0.96522 0.0
C2457 C 0.01008 0.37257 0.97499 0.0
C2458 C 0.0226 0.3827 0.9543 0.0
C2459 C 0.01622 0.39029 0.95317 0.0
C2460 C 0.00698 0.38914 0.96312 0.0
H2461 H 0.98469 0.42301 0.90129 0.0
H2462 H 0.99292 0.4145 0.9192 0.0
C2463 C 0.00397 0.38043 0.97391 0.0
C2464 C 0.01787 0.39832 0.94096 0.0
H2465 H 0.02161 0.42847 0.93179 0.0
C2466 C 0.01364 0.39153 0.92833 0.0
C2467 C 0.0215 0.41203 0.94203 0.0
C2468 C 0.027 0.42013 0.95507 0.0
C2469 C 0.01183 0.39775 0.91705 0.0
C2470 C 0.01437 0.41107 0.91848 0.0
C2471 C 0.01954 0.41819 0.9308 0.0
C2472 C 0.0102 0.41713 0.90786 0.0
C2473 C 0.00629 0.38976 0.90395 0.0
C2474 C 0.0173 0.42153 0.89564 0.0
C2475 C 0.01268 0.42652 0.88543 0.0
C2476 C 0.00094 0.42724 0.88733 0.0
C2477 C 0.99392 0.42286 0.89964 0.0
C2478 C 0.99858 0.41797 0.90986 0.0
H2479 H 0.00409 0.37922 0.90475 0.0
H2480 H 0.99686 0.38952 0.90099 0.0
H2481 H 0.01371 0.39473 0.89569 0.0
H2482 H 0.02627 0.42092 0.89395 0.0
H2483 H 0.01814 0.42961 0.87594 0.0
H2484 H 0.62122 0.65584 0.9811 0.0
H2485 H 0.6034 0.64639 0.9637 0.0
H2486 H 0.61211 0.61482 0.95483 0.0
H2487 H 0.62974 0.62402 0.97238 0.0
H2488 H 0.60458 0.64212 0.93621 0.0
H2489 H 0.57173 0.59361 0.96175 0.0
H2490 H 0.58573 0.60784 0.97031 0.0
H2491 H 0.58862 0.59708 0.95909 0.0
C2492 C 0.61933 0.64687 0.97545 0.0
C2493 C 0.62681 0.6406 0.97818 0.0
C2494 C 0.60916 0.64149 0.96552 0.0
C2495 C 0.60627 0.62976 0.95817 0.0
C2496 C 0.61395 0.62369 0.96063 0.0
H2497 H 0.55208 0.58307 0.8921 0.0
H2498 H 0.56991 0.59315 0.9095 0.0
C2499 C 0.62408 0.62901 0.9706 0.0
C2500 C 0.5953 0.62393 0.94783 0.0
H2501 H 0.56582 0.59526 0.939 0.0
C2502 C 0.59606 0.63191 0.93685 0.0
C2503 C 0.58417 0.61062 0.94874 0.0
C2504 C 0.58241 0.60182 0.96067 0.0
C2505 C 0.58613 0.6268 0.92658 0.0
C2506 C 0.57515 0.61344 0.92741 0.0
C2507 C 0.57432 0.60549 0.9384 0.0
C2508 C 0.5644 0.60747 0.9169 0.0
C2509 C 0.58758 0.63561 0.91478 0.0
C2510 C 0.55539 0.61216 0.9154 0.0
C2511 C 0.54511 0.60634 0.90559 0.0
C2512 C 0.54362 0.59564 0.89719 0.0
C2513 C 0.5528 0.59109 0.89863 0.0
C2514 C 0.563 0.59686 0.9085 0.0
H2515 H 0.59785 0.64469 0.91434 0.0
H2516 H 0.58543 0.62985 0.90501 0.0
H2517 H 0.58017 0.639 0.91583 0.0
H2518 H 0.55627 0.62029 0.92187 0.0
H2519 H 0.53833 0.61019 0.90453 0.0
H2520 H 0.0194 0.65334 0.97719 0.0
H2521 H 0.02532 0.6437 0.95774 0.0
H2522 H 0.98735 0.60644 0.96129 0.0
H2523 H 0.98131 0.61584 0.98054 0.0
H2524 H 0.01392 0.60595 0.96015 0.0
H2525 H 0.00453 0.63238 0.91846 0.0
H2526 H 0.01345 0.64163 0.93365 0.0
H2527 H 0.99584 0.62925 0.93449 0.0
C2528 C 0.01229 0.64312 0.97378 0.0
C2529 C -0.00011 0.63536 0.98045 0.0
C2530 C 0.01569 0.63766 0.96268 0.0
C2531 C 0.00674 0.62439 0.95814 0.0
C2532 C 0.99437 0.6167 0.9647 0.0
H2533 H 0.99191 0.57288 0.88964 0.0
H2534 H 0.99246 0.58769 0.90808 0.0
C2535 C 0.99096 0.62212 0.9757 0.0
C2536 C 0.01017 0.61822 0.94673 0.0
H2537 H 0.00927 0.61546 0.91211 0.0
C2538 C 0.01315 0.60814 0.94963 0.0
C2539 C 0.00897 0.62108 0.93309 0.0
C2540 C 0.0055 0.63165 0.9296 0.0
C2541 C 0.01454 0.60049 0.93918 0.0
C2542 C 0.01305 0.60314 0.9255 0.0
C2543 C 0.01046 0.61351 0.92261 0.0
C2544 C 0.01307 0.59456 0.91411 0.0
C2545 C 0.01692 0.58922 0.94291 0.0
C2546 C 0.02453 0.59362 0.91133 0.0
C2547 C 0.02418 0.58505 0.90089 0.0
C2548 C 0.01241 0.57737 0.89299 0.0
C2549 C 0.00107 0.57858 0.89563 0.0
C2550 C 0.0014 0.58708 0.9061 0.0
H2551 H 0.01501 0.58674 0.95385 0.0
H2552 H 0.01035 0.57997 0.93675 0.0
H2553 H 0.02759 0.59234 0.94081 0.0
H2554 H 0.03371 0.5995 0.91723 0.0
H2555 H 0.0331 0.5844 0.89896 0.0
H2556 H 0.38716 0.38544 0.97033 0.0
H2557 H 0.39607 0.40377 0.95402 0.0
H2558 H 0.3559 0.39671 0.94746 0.0
H2559 H 0.34707 0.37885 0.96422 0.0
H2560 H 0.3921 0.4048 0.92812 0.0
H2561 H 0.37552 0.43621 0.95519 0.0
H2562 H 0.3747 0.4217 0.96281 0.0
H2563 H 0.36145 0.4197 0.95153 0.0
C2564 C 0.38024 0.38784 0.96543 0.0
C2565 C 0.36644 0.38083 0.96864 0.0
C2566 C 0.38534 0.39832 0.95611 0.0
C2567 C 0.37672 0.40187 0.94975 0.0
C2568 C 0.36284 0.3945 0.95259 0.0
H2569 H 0.38977 0.44424 0.87496 0.0
H2570 H 0.38575 0.42802 0.89265 0.0
C2571 C 0.35778 0.38421 0.96208 0.0
C2572 C 0.38215 0.41309 0.93995 0.0
H2573 H 0.38151 0.4414 0.93177 0.0
C2574 C 0.38991 0.4129 0.92901 0.0
C2575 C 0.37963 0.42387 0.94127 0.0
C2576 C 0.3725 0.42547 0.95342 0.0
C2577 C 0.39476 0.42287 0.91907 0.0
C2578 C 0.39133 0.43305 0.91982 0.0
C2579 C 0.38401 0.43352 0.93105 0.0
C2580 C 0.39474 0.44302 0.9089 0.0
C2581 C 0.40364 0.42245 0.90799 0.0
C2582 C 0.4008 0.45685 0.91213 0.0
C2583 C 0.40276 0.46609 0.90207 0.0
C2584 C 0.39892 0.46171 0.88851 0.0
C2585 C 0.39308 0.44791 0.88527 0.0
C2586 C 0.39089 0.43865 0.89536 0.0
H2587 H 0.40925 0.41757 0.91154 0.0
H2588 H 0.39723 0.41636 0.89923 0.0
H2589 H 0.41103 0.43271 0.90444 0.0
H2590 H 0.40376 0.46046 0.92251 0.0
H2591 H 0.40705 0.4766 0.90499 0.0
H2592 H 0.63165 0.97783 0.97544 0.0
H2593 H 0.61609 0.97131 0.95596 0.0
H2594 H 0.61987 0.01052 0.95738 0.0
H2595 H 0.63518 0.01705 0.97675 0.0
H2596 H 0.59316 0.9891 0.95645 0.0
H2597 H 0.62446 0.98406 0.91621 0.0
H2598 H 0.6221 0.97472 0.93144 0.0
H2599 H 0.63153 0.99282 0.93218 0.0
C2600 C 0.62925 0.98509 0.97152 0.0
C2601 C 0.63464 0.99795 0.9777 0.0
C2602 C 0.6204 0.98137 0.96037 0.0
C2603 C 0.6169 0.99047 0.9552 0.0
C2604 C 0.62242 0.00334 0.96123 0.0
H2605 H 0.5802 0.9942 0.88076 0.0
H2606 H 0.59498 0.99706 0.89999 0.0
C2607 C 0.6312 0.00705 0.97232 0.0
C2608 C 0.60709 0.98662 0.94384 0.0
H2609 H 0.60266 0.97919 0.9098 0.0
C2610 C 0.59517 0.98683 0.94626 0.0
C2611 C 0.60984 0.98381 0.93056 0.0
C2612 C 0.62271 0.98392 0.92733 0.0
C2613 C 0.58602 0.98451 0.93571 0.0
C2614 C 0.58874 0.98168 0.92242 0.0
C2615 C 0.60057 0.98129 0.92003 0.0
C2616 C 0.57975 0.97973 0.91077 0.0
C2617 C 0.57375 0.9856 0.93879 0.0
C2618 C 0.56633 0.96899 0.91042 0.0
C2619 C 0.55785 0.96741 0.8995 0.0
C2620 C 0.56266 0.97654 0.88874 0.0
C2621 C 0.57617 0.98715 0.88901 0.0
C2622 C 0.58463 0.98873 0.89994 0.0
H2623 H 0.57474 0.99083 0.9487 0.0
H2624 H 0.572 0.99114 0.93068 0.0
H2625 H 0.56473 0.97533 0.93925 0.0
H2626 H 0.56244 0.96178 0.91855 0.0
H2627 H 0.54755 0.959 0.89941 0.0
H2628 H 0.6537 0.02378 0.05405 0.0
H2629 H 0.64085 0.0267 0.07229 0.0
H2630 H 0.60626 0.9878 0.06213 0.0
H2631 H 0.61897 0.98484 0.04379 0.0
H2632 H 0.60014 0.0083 0.06574 0.0
H2633 H 0.63053 0.00702 0.10874 0.0
H2634 H 0.6404 0.01906 0.09604 0.0
H2635 H 0.63143 0.00135 0.09174 0.0
C2636 C 0.64337 0.01583 0.05572 0.0
C2637 C 0.63736 0.00406 0.04753 0.0
C2638 C 0.63608 0.01748 0.06618 0.0
C2639 C 0.62269 0.00737 0.06865 0.0
C2640 C 0.61661 0.99568 0.0604 0.0
H2641 H 0.58017 0.00734 0.14219 0.0
H2642 H 0.58928 0.00036 0.12327 0.0
C2643 C 0.6239 0.99401 0.04996 0.0
C2644 C 0.61495 0.00913 0.07969 0.0
H2645 H 0.61513 0.01447 0.11394 0.0
C2646 C 0.60334 0.00956 0.0763 0.0
C2647 C 0.61903 0.01051 0.09346 0.0
C2648 C 0.63095 0.00934 0.09777 0.0
C2649 C 0.59595 0.0118 0.08629 0.0
C2650 C 0.60044 0.01389 0.09997 0.0
C2651 C 0.61178 0.01299 0.10341 0.0
C2652 C 0.59384 0.01746 0.11084 0.0
C2653 C 0.58338 0.01187 0.08212 0.0
C2654 C 0.59337 0.02937 0.11009 0.0
C2655 C 0.58812 0.03332 0.12083 0.0
C2656 C 0.5833 0.02546 0.13254 0.0
C2657 C 0.58368 0.01349 0.13322 0.0
C2658 C 0.5889 0.00952 0.12245 0.0
H2659 H 0.57914 0.0062 0.07239 0.0
H2660 H 0.5755 0.0074 0.09006 0.0
H2661 H 0.58594 0.02243 0.08062 0.0
H2662 H 0.59745 0.03582 0.10138 0.0
H2663 H 0.58813 0.0427 0.12015 0.0
H2664 H 0.97475 0.63174 0.05632 0.0
H2665 H 0.97117 0.61563 0.07407 0.0
H2666 H 0.00841 0.61756 0.06315 0.0
H2667 H 0.01204 0.63359 0.04535 0.0
H2668 H 0.98615 0.59102 0.06609 0.0
H2669 H 0.9924 0.62436 0.11039 0.0
H2670 H 0.98039 0.62291 0.09783 0.0
H2671 H 0.99793 0.63071 0.09351 0.0
C2672 C 0.9822 0.62878 0.05773 0.0
C2673 C 0.9937 0.63398 0.04948 0.0
C2674 C 0.98017 0.61962 0.0679 0.0
C2675 C 0.98961 0.61555 0.07 0.0
C2676 C 0.00104 0.62064 0.06171 0.0
H2677 H 0.99234 0.57303 0.14097 0.0
H2678 H 0.99814 0.58891 0.12238 0.0
C2679 C 0.0031 0.62981 0.05157 0.0
C2680 C 0.98748 0.60581 0.08069 0.0
H2681 H 0.98424 0.60131 0.11497 0.0
C2682 C 0.98578 0.59326 0.07679 0.0
C2683 C 0.98723 0.60889 0.09462 0.0
C2684 C 0.9897 0.62249 0.0994 0.0
C2685 C 0.9835 0.58354 0.08647 0.0
C2686 C 0.98272 0.58641 0.10038 0.0
C2687 C 0.98474 0.5991 0.10429 0.0
C2688 C 0.97962 0.57637 0.11106 0.0
C2689 C 0.98211 0.57035 0.08175 0.0
C2690 C 0.9673 0.56407 0.11083 0.0
C2691 C 0.96402 0.55497 0.12137 0.0
C2692 C 0.97297 0.55806 0.13237 0.0
C2693 C 0.98532 0.57035 0.13254 0.0
C2694 C 0.98862 0.57942 0.12197 0.0
H2695 H 0.98671 0.57122 0.0716 0.0
H2696 H 0.9869 0.56682 0.08909 0.0
H2697 H 0.97123 0.56257 0.08091 0.0
H2698 H 0.96007 0.56166 0.10267 0.0
H2699 H 0.95435 0.54565 0.1211 0.0
H2700 H 0.38881 0.3926 0.03735 0.0
H2701 H 0.40501 0.39756 0.05567 0.0
H2702 H 0.3961 0.35641 0.05399 0.0
H2703 H 0.37972 0.35126 0.03563 0.0
H2704 H 0.39542 0.36596 0.08032 0.0
H2705 H 0.44258 0.40165 0.05382 0.0
H2706 H 0.42956 0.40581 0.0526 0.0
H2707 H 0.42703 0.39042 0.04485 0.0
C2708 C 0.39033 0.38459 0.04077 0.0
C2709 C 0.38295 0.37152 0.03499 0.0
C2710 C 0.39968 0.38749 0.0512 0.0
C2711 C 0.40189 0.37741 0.05605 0.0
C2712 C 0.3946 0.36435 0.05031 0.0
H2713 H 0.46534 0.39176 0.11414 0.0
H2714 H 0.45096 0.38582 0.09381 0.0
C2715 C 0.38526 0.36144 0.03982 0.0
C2716 C 0.41129 0.38039 0.0676 0.0
H2717 H 0.44394 0.40113 0.07802 0.0
C2718 C 0.40606 0.37356 0.0798 0.0
C2719 C 0.42518 0.39021 0.06683 0.0
C2720 C 0.43148 0.39737 0.05379 0.0
C2721 C 0.41427 0.37659 0.09139 0.0
C2722 C 0.42802 0.38687 0.09081 0.0
C2723 C 0.43336 0.39339 0.07848 0.0
C2724 C 0.43701 0.39099 0.10291 0.0
C2725 C 0.40815 0.36869 0.10413 0.0
C2726 C 0.4341 0.39616 0.11462 0.0
C2727 C 0.44227 0.39953 0.12622 0.0
C2728 C 0.45361 0.39797 0.12624 0.0
C2729 C 0.45671 0.39314 0.11436 0.0
C2730 C 0.44851 0.38973 0.10278 0.0
H2731 H 0.39878 0.35892 0.10186 0.0
H2732 H 0.41539 0.36667 0.1095 0.0
H2733 H 0.40547 0.37464 0.1111 0.0
H2734 H 0.42544 0.39747 0.11484 0.0
H2735 H 0.43964 0.40319 0.13523 0.0
H2736 H 0.63018 0.67931 0.371 0.0
H2737 H 0.62148 0.68863 0.38804 0.0
H2738 H 0.66209 0.72057 0.3974 0.0
H2739 H 0.67085 0.71149 0.3802 0.0
H2740 H 0.62641 0.69288 0.41554 0.0
H2741 H 0.64311 0.7414 0.39005 0.0
H2742 H 0.64298 0.72731 0.38158 0.0
H2743 H 0.65655 0.73814 0.39303 0.0
C2744 C 0.63726 0.68833 0.37667 0.0
C2745 C 0.6512 0.69473 0.37419 0.0
C2746 C 0.63227 0.69364 0.3864 0.0
C2747 C 0.64111 0.70543 0.3938 0.0
C2748 C 0.65506 0.71165 0.39157 0.0
H2749 H 0.63241 0.75135 0.4595 0.0
H2750 H 0.64057 0.74172 0.44217 0.0
C2751 C 0.66005 0.7064 0.3818 0.0
C2752 C 0.63577 0.71112 0.40399 0.0
H2753 H 0.635 0.73956 0.41266 0.0
C2754 C 0.62821 0.70306 0.41487 0.0
C2755 C 0.63811 0.72439 0.40306 0.0
C2756 C 0.64551 0.73328 0.39124 0.0
C2757 C 0.62318 0.70801 0.42501 0.0
C2758 C 0.62568 0.72133 0.42416 0.0
C2759 C 0.63317 0.72937 0.41327 0.0
C2760 C 0.62067 0.72713 0.43453 0.0
C2761 C 0.61545 0.6991 0.43671 0.0
C2762 C 0.60679 0.72215 0.43586 0.0
C2763 C 0.60211 0.72771 0.44564 0.0
C2764 C 0.61124 0.73843 0.45417 0.0
C2765 C 0.62515 0.7433 0.45287 0.0
C2766 C 0.62982 0.73779 0.44304 0.0
H2767 H 0.61666 0.69015 0.43727 0.0
H2768 H 0.61885 0.70484 0.44651 0.0
H2769 H 0.60455 0.69549 0.43539 0.0
H2770 H 0.59958 0.71398 0.42931 0.0
H2771 H 0.59133 0.72362 0.44658 0.0
H2772 H 0.31443 0.95701 0.38637 0.0
H2773 H 0.30825 0.93976 0.40363 0.0
H2774 H 0.26704 0.93073 0.40214 0.0
H2775 H 0.27306 0.9479 0.38498 0.0
H2776 H 0.29546 0.9386 0.4299 0.0
H2777 H 0.26505 0.89357 0.39655 0.0
H2778 H 0.2773 0.90984 0.38999 0.0
H2779 H 0.26098 0.90665 0.39521 0.0
C2780 C 0.30404 0.95131 0.38967 0.0
C2781 C 0.29423 0.95382 0.38427 0.0
C2782 C 0.30054 0.94149 0.39953 0.0
C2783 C 0.28717 0.93391 0.40401 0.0
C2784 C 0.27738 0.93637 0.39866 0.0
H2785 H 0.24987 0.88771 0.47508 0.0
H2786 H 0.25969 0.90458 0.45725 0.0
C2787 C 0.28086 0.94624 0.3889 0.0
C2788 C 0.28342 0.92366 0.41459 0.0
H2789 H 0.26306 0.89005 0.42043 0.0
C2790 C 0.28848 0.92797 0.42783 0.0
C2791 C 0.27445 0.9098 0.41179 0.0
C2792 C 0.26919 0.90462 0.39759 0.0
C2793 C 0.28437 0.91879 0.4385 0.0
C2794 C 0.27487 0.90502 0.43582 0.0
C2795 C 0.27024 0.90065 0.42247 0.0
C2796 C 0.26929 0.89503 0.4468 0.0
C2797 C 0.29016 0.92391 0.45255 0.0
C2798 C 0.27128 0.88399 0.44668 0.0
C2799 C 0.26563 0.87432 0.45681 0.0
C2800 C 0.25774 0.87543 0.4671 0.0
C2801 C 0.25582 0.88655 0.46721 0.0
C2802 C 0.2615 0.89623 0.45711 0.0
H2803 H 0.29976 0.93377 0.45222 0.0
H2804 H 0.28284 0.92531 0.45867 0.0
H2805 H 0.29204 0.91656 0.45781 0.0
H2806 H 0.27723 0.88288 0.43877 0.0
H2807 H 0.26739 0.86594 0.45656 0.0
H2808 H 0.05436 0.32481 0.37987 0.0
H2809 H 0.07177 0.3369 0.39724 0.0
H2810 H 0.07115 0.37328 0.38946 0.0
H2811 H 0.05354 0.36123 0.37218 0.0
H2812 H 0.09733 0.35937 0.39418 0.0
H2813 H 0.06689 0.37007 0.43076 0.0
H2814 H 0.05932 0.35795 0.41691 0.0
H2815 H 0.06729 0.3757 0.41376 0.0
C2816 C 0.05786 0.33537 0.38188 0.0
C2817 C 0.0525 0.34203 0.37466 0.0
C2818 C 0.06783 0.34226 0.39181 0.0
C2819 C 0.07263 0.35593 0.39475 0.0
C2820 C 0.06739 0.36266 0.38753 0.0
H2821 H 0.14139 0.4108 0.44677 0.0
H2822 H 0.1242 0.40158 0.42859 0.0
C2823 C 0.05737 0.35576 0.37761 0.0
C2824 C 0.08334 0.36313 0.40519 0.0
H2825 H 0.09004 0.37936 0.43612 0.0
C2826 C 0.09575 0.36378 0.40332 0.0
C2827 C 0.08122 0.36885 0.41712 0.0
C2828 C 0.06793 0.36804 0.41987 0.0
C2829 C 0.10608 0.36993 0.41312 0.0
C2830 C 0.10391 0.37554 0.42504 0.0
C2831 C 0.09162 0.37508 0.42688 0.0
C2832 C 0.11409 0.38122 0.43606 0.0
C2833 C 0.1192 0.37024 0.41086 0.0
C2834 C 0.11391 0.37279 0.44624 0.0
C2835 C 0.12366 0.37799 0.45657 0.0
C2836 C 0.13385 0.39169 0.45679 0.0
C2837 C 0.13381 0.40016 0.44669 0.0
C2838 C 0.12401 0.39495 0.43637 0.0
H2839 H 0.11955 0.36599 0.40074 0.0
H2840 H 0.12778 0.38079 0.41174 0.0
H2841 H 0.12057 0.36436 0.41886 0.0
H2842 H 0.10625 0.36217 0.44615 0.0
H2843 H 0.12328 0.37129 0.46436 0.0
H2844 H 0.02064 0.29709 0.30733 0.0
H2845 H 0.02981 0.28915 0.28931 0.0
H2846 H 0.06411 0.3294 0.2858 0.0
H2847 H 0.05518 0.33735 0.30392 0.0
H2848 H 0.0359 0.2971 0.26267 0.0
H2849 H 0.08198 0.30712 0.29057 0.0
H2850 H 0.06799 0.30713 0.29887 0.0
H2851 H 0.0802 0.32168 0.28975 0.0
C2852 C 0.03016 0.30423 0.30274 0.0
C2853 C 0.03725 0.31782 0.30712 0.0
C2854 C 0.03537 0.29968 0.29245 0.0
C2855 C 0.04776 0.30863 0.28641 0.0
C2856 C 0.0547 0.32225 0.29057 0.0
H2857 H 0.09556 0.30713 0.21971 0.0
H2858 H 0.08506 0.31298 0.23823 0.0
C2859 C 0.04954 0.32679 0.30087 0.0
C2860 C 0.05336 0.30385 0.27557 0.0
H2861 H 0.0814 0.30258 0.26671 0.0
C2862 C 0.04579 0.29817 0.26359 0.0
C2863 C 0.06625 0.30521 0.27684 0.0
C2864 C 0.07452 0.31049 0.28975 0.0
C2865 C 0.05095 0.29421 0.25267 0.0
C2866 C 0.06397 0.29593 0.25383 0.0
C2867 C 0.07145 0.30139 0.26586 0.0
C2868 C 0.07011 0.29229 0.24257 0.0
C2869 C 0.04265 0.28855 0.23982 0.0
C2870 C 0.06517 0.27873 0.23897 0.0
C2871 C 0.07124 0.27536 0.22852 0.0
C2872 C 0.08241 0.2855 0.22158 0.0
C2873 C 0.08717 0.2991 0.22509 0.0
C2874 C 0.08116 0.30245 0.23559 0.0
H2875 H 0.03372 0.28984 0.23975 0.0
H2876 H 0.0489 0.29351 0.23077 0.0
H2877 H 0.03903 0.27761 0.2389 0.0
H2878 H 0.05668 0.27076 0.24431 0.0
H2879 H 0.06721 0.26482 0.22586 0.0
H2880 H 0.69362 0.70795 0.30573 0.0
H2881 H 0.70552 0.72534 0.28863 0.0
H2882 H 0.67603 0.73762 0.29283 0.0
H2883 H 0.66407 0.72035 0.30977 0.0
H2884 H 0.69314 0.72802 0.26317 0.0
H2885 H 0.71404 0.77303 0.29762 0.0
H2886 H 0.70887 0.75634 0.30357 0.0
H2887 H 0.69644 0.76091 0.29997 0.0
C2888 C 0.68973 0.71442 0.30307 0.0
C2889 C 0.6779 0.71276 0.30912 0.0
C2890 C 0.69652 0.72431 0.2933 0.0
C2891 C 0.6917 0.73281 0.2896 0.0
C2892 C 0.67998 0.73125 0.29568 0.0
H2893 H 0.69981 0.78075 0.22086 0.0
H2894 H 0.69288 0.76356 0.23829 0.0
C2895 C 0.67313 0.72132 0.30532 0.0
C2896 C 0.69854 0.74306 0.27904 0.0
H2897 H 0.71418 0.77695 0.27389 0.0
C2898 C 0.6979 0.73874 0.2655 0.0
C2899 C 0.70483 0.75701 0.28217 0.0
C2900 C 0.70622 0.76216 0.29663 0.0
C2901 C 0.70291 0.74801 0.25489 0.0
C2902 C 0.70855 0.76191 0.25795 0.0
C2903 C 0.70972 0.76627 0.27156 0.0
C2904 C 0.71285 0.77208 0.24716 0.0
C2905 C 0.70202 0.74284 0.2405 0.0
C2906 C 0.7263 0.78267 0.24654 0.0
C2907 C 0.73025 0.79254 0.23666 0.0
C2908 C 0.72076 0.79209 0.22737 0.0
C2909 C 0.7073 0.78141 0.22798 0.0
C2910 C 0.70337 0.77154 0.23784 0.0
H2911 H 0.70098 0.73271 0.24023 0.0
H2912 H 0.693 0.74197 0.23541 0.0
H2913 H 0.71107 0.74988 0.2346 0.0
H2914 H 0.73375 0.78327 0.25368 0.0
H2915 H 0.74073 0.80055 0.2363 0.0
H2916 H 0.28237 0.98651 0.32081 0.0
H2917 H 0.26499 0.97793 0.30297 0.0
H2918 H 0.27262 0.94566 0.29385 0.0
H2919 H 0.28971 0.95394 0.31189 0.0
H2920 H 0.26664 0.97454 0.27583 0.0
H2921 H 0.23225 0.92505 0.29888 0.0
H2922 H 0.24624 0.93862 0.30813 0.0
H2923 H 0.24901 0.92806 0.29647 0.0
C2924 C 0.2803 0.97756 0.31503 0.0
C2925 C 0.28731 0.97083 0.31782 0.0
C2926 C 0.27038 0.97268 0.30484 0.0
C2927 C 0.26732 0.961 0.29727 0.0
C2928 C 0.27454 0.95446 0.29982 0.0
H2929 H 0.2157 0.91838 0.22817 0.0
H2930 H 0.23294 0.92745 0.2462 0.0
C2931 C 0.28437 0.95926 0.31008 0.0
C2932 C 0.25672 0.95579 0.28654 0.0
H2933 H 0.22742 0.92776 0.276 0.0
C2934 C 0.25802 0.96434 0.27592 0.0
C2935 C 0.24545 0.94249 0.2867 0.0
C2936 C 0.24305 0.93307 0.29823 0.0
C2937 C 0.24848 0.95986 0.26529 0.0
C2938 C 0.23738 0.94651 0.26536 0.0
C2939 C 0.23602 0.93797 0.27599 0.0
C2940 C 0.22704 0.94119 0.25445 0.0
C2941 C 0.25045 0.9693 0.25393 0.0
C2942 C 0.21802 0.94591 0.25323 0.0
C2943 C 0.20808 0.94065 0.24306 0.0
C2944 C 0.20693 0.9305 0.23403 0.0
C2945 C 0.21615 0.92596 0.23518 0.0
C2946 C 0.22602 0.93116 0.2454 0.0
H2947 H 0.26071 0.97843 0.25415 0.0
H2948 H 0.2488 0.96407 0.2439 0.0
H2949 H 0.24294 0.97257 0.25491 0.0
H2950 H 0.21864 0.9536 0.26019 0.0
H2951 H 0.20127 0.94449 0.24224 0.0
H2952 H 0.69965 0.97761 0.31674 0.0
H2953 H 0.71147 0.97306 0.29857 0.0
H2954 H 0.67812 0.93215 0.29473 0.0
H2955 H 0.66637 0.93647 0.31298 0.0
H2956 H 0.70273 0.93366 0.29387 0.0
H2957 H 0.70127 0.9699 0.25843 0.0
H2958 H 0.70927 0.97715 0.27452 0.0
H2959 H 0.69155 0.96476 0.27385 0.0
C2960 C 0.69486 0.96763 0.31207 0.0
C2961 C 0.68201 0.95744 0.31626 0.0
C2962 C 0.7016 0.96507 0.30164 0.0
C2963 C 0.69556 0.95234 0.29514 0.0
C2964 C 0.68294 0.94207 0.29957 0.0
H2965 H 0.71266 0.93185 0.21569 0.0
H2966 H 0.70266 0.93573 0.23601 0.0
C2967 C 0.67622 0.94458 0.31 0.0
C2968 C 0.70219 0.94969 0.28353 0.0
H2969 H 0.713 0.95908 0.25106 0.0
C2970 C 0.70502 0.93923 0.28451 0.0
C2971 C 0.70496 0.95684 0.27127 0.0
C2972 C 0.70151 0.96771 0.26935 0.0
C2973 C 0.71056 0.93573 0.27356 0.0
C2974 C 0.71355 0.94306 0.26139 0.0
C2975 C 0.71075 0.95352 0.26042 0.0
C2976 C 0.71932 0.93987 0.24937 0.0
C2977 C 0.71279 0.92399 0.27498 0.0
C2978 C 0.73196 0.94086 0.25016 0.0
C2979 C 0.73763 0.93853 0.23859 0.0
C2980 C 0.73077 0.93526 0.22601 0.0
C2981 C 0.71809 0.93422 0.22528 0.0
C2982 C 0.71241 0.93648 0.23685 0.0
H2983 H 0.70676 0.91733 0.28341 0.0
H2984 H 0.7101 0.91786 0.26541 0.0
H2985 H 0.72361 0.92788 0.27724 0.0
H2986 H 0.73761 0.94376 0.25963 0.0
H2987 H 0.7475 0.93958 0.23938 0.0
H2988 H 0.0144 0.71793 0.30447 0.0
H2989 H 0.02181 0.73389 0.28588 0.0
H2990 H 0.06322 0.74558 0.29409 0.0
H2991 H 0.05577 0.72914 0.31229 0.0
H2992 H 0.03682 0.75999 0.28618 0.0
H2993 H 0.06211 0.73958 0.25402 0.0
H2994 H 0.05182 0.73061 0.26833 0.0
H2995 H 0.06906 0.74397 0.27089 0.0
C2996 C 0.02507 0.72383 0.30224 0.0
C2997 C 0.0345 0.72225 0.30978 0.0
C2998 C 0.02931 0.73296 0.29162 0.0
C2999 C 0.04307 0.74081 0.28841 0.0
C3000 C 0.05253 0.73938 0.29608 0.0
H3001 H 0.07097 0.81295 0.23967 0.0
H3002 H 0.06731 0.79762 0.25816 0.0
C3003 C 0.04827 0.73005 0.30655 0.0
C3004 C 0.04744 0.75082 0.27739 0.0
H3005 H 0.06543 0.76095 0.24794 0.0
C3006 C 0.04304 0.76016 0.27779 0.0
C3007 C 0.05544 0.75096 0.26636 0.0
C3008 C 0.05976 0.74066 0.26477 0.0
C3009 C 0.0463 0.76955 0.26747 0.0
C3010 C 0.0547 0.77002 0.25669 0.0
C3011 C 0.05915 0.76072 0.2563 0.0
C3012 C 0.05836 0.7796 0.24535 0.0
C3013 C 0.04027 0.77851 0.26802 0.0
C3014 C 0.0553 0.7747 0.23188 0.0
C3015 C 0.05778 0.7835 0.22122 0.0
C3016 C 0.06333 0.79738 0.2238 0.0
C3017 C 0.06676 0.80233 0.23727 0.0
C3018 C 0.06451 0.79355 0.2479 0.0
H3019 H 0.03113 0.77421 0.27449 0.0
H3020 H 0.04777 0.78848 0.27249 0.0
H3021 H 0.03746 0.78007 0.25771 0.0
H3022 H 0.05059 0.76399 0.22963 0.0
H3023 H 0.05496 0.77941 0.21096 0.0
H3024 H 0.28295 0.33824 0.30824 0.0
H3025 H 0.2664 0.32621 0.2902 0.0
H3026 H 0.27095 0.29162 0.29514 0.0
H3027 H 0.28777 0.3037 0.31317 0.0
H3028 H 0.27211 0.29867 0.26841 0.0
H3029 H 0.22741 0.29573 0.29297 0.0
H3030 H 0.24162 0.31262 0.29285 0.0
H3031 H 0.24257 0.29992 0.30233 0.0
C3032 C 0.28039 0.32803 0.3056 0.0
C3033 C 0.28669 0.32193 0.3122 0.0
C3034 C 0.27083 0.32113 0.29533 0.0
C3035 C 0.26725 0.30793 0.29149 0.0
C3036 C 0.27349 0.30177 0.29803 0.0
H3037 H 0.20134 0.25924 0.23381 0.0
H3038 H 0.21557 0.2676 0.25435 0.0
C3039 C 0.2831 0.30869 0.30833 0.0
C3040 C 0.25754 0.30093 0.28014 0.0
H3041 H 0.22596 0.29191 0.2688 0.0
C3042 C 0.26197 0.29705 0.26855 0.0
C3043 C 0.24424 0.29865 0.2804 0.0
C3044 C 0.23862 0.30182 0.29286 0.0
C3045 C 0.25365 0.29145 0.25701 0.0
C3046 C 0.24065 0.28994 0.25698 0.0
C3047 C 0.23601 0.29328 0.26877 0.0
C3048 C 0.23184 0.28511 0.24472 0.0
C3049 C 0.25885 0.28721 0.24496 0.0
C3050 C 0.23613 0.29235 0.23261 0.0
C3051 C 0.22804 0.28761 0.22092 0.0
C3052 C 0.2154 0.27565 0.22116 0.0
C3053 C 0.21098 0.26856 0.23339 0.0
C3054 C 0.2191 0.2733 0.24509 0.0
H3055 H 0.26708 0.28539 0.24796 0.0
H3056 H 0.25064 0.2779 0.23998 0.0
H3057 H 0.263 0.29537 0.2374 0.0
H3058 H 0.24581 0.30163 0.23218 0.0
H3059 H 0.23173 0.29322 0.21163 0.0
H3060 H 0.31879 0.36901 0.37717 0.0
H3061 H 0.31024 0.37722 0.39552 0.0
H3062 H 0.27821 0.33654 0.4028 0.0
H3063 H 0.28662 0.32818 0.3844 0.0
H3064 H 0.27694 0.36704 0.39833 0.0
H3065 H 0.30469 0.35865 0.43978 0.0
H3066 H 0.31172 0.36306 0.42292 0.0
H3067 H 0.29732 0.34672 0.42575 0.0
C3068 C 0.30991 0.36179 0.38265 0.0
C3069 C 0.30339 0.34794 0.37935 0.0
C3070 C 0.30504 0.36651 0.39309 0.0
C3071 C 0.29363 0.35746 0.40044 0.0
C3072 C 0.28703 0.34364 0.39718 0.0
H3073 H 0.26433 0.37352 0.47603 0.0
H3074 H 0.26818 0.36234 0.45659 0.0
C3075 C 0.29186 0.33891 0.38669 0.0
C3076 C 0.28879 0.3625 0.4117 0.0
H3077 H 0.29214 0.36882 0.4459 0.0
C3078 C 0.28017 0.36739 0.40876 0.0
C3079 C 0.29298 0.36279 0.42523 0.0
C3080 C 0.3022 0.35755 0.42875 0.0
C3081 C 0.2757 0.37273 0.41909 0.0
C3082 C 0.28025 0.37346 0.43262 0.0
C3083 C 0.28867 0.36829 0.43554 0.0
C3084 C 0.27678 0.3799 0.44386 0.0
C3085 C 0.26603 0.3774 0.41542 0.0
C3086 C 0.28027 0.39346 0.44315 0.0
C3087 C 0.27795 0.39981 0.45418 0.0
C3088 C 0.27226 0.39277 0.46621 0.0
C3089 C 0.26865 0.37916 0.46686 0.0
C3090 C 0.27087 0.37278 0.45578 0.0
H3091 H 0.26031 0.37232 0.40594 0.0
H3092 H 0.25874 0.37543 0.42372 0.0
H3093 H 0.27184 0.38841 0.41363 0.0
H3094 H 0.28517 0.39927 0.43421 0.0
H3095 H 0.28096 0.41035 0.45347 0.0
H3096 H 0.63785 0.953 0.38616 0.0
H3097 H 0.62823 0.93575 0.40348 0.0
H3098 H 0.66157 0.9289 0.39887 0.0
H3099 H 0.67158 0.94668 0.38192 0.0
H3100 H 0.61924 0.91004 0.40052 0.0
H3101 H 0.66013 0.93076 0.43939 0.0
H3102 H 0.66004 0.94059 0.42536 0.0
H3103 H 0.66553 0.92861 0.42289 0.0
C3104 C 0.64323 0.94795 0.38897 0.0
C3105 C 0.65547 0.95119 0.38273 0.0
C3106 C 0.63771 0.93807 0.39885 0.0
C3107 C 0.64422 0.93108 0.40259 0.0
C3108 C 0.65652 0.93436 0.39642 0.0
H3109 H 0.59513 0.8548 0.4449 0.0
H3110 H 0.60961 0.87129 0.42816 0.0
C3111 C 0.66219 0.94447 0.38668 0.0
C3112 C 0.6376 0.91991 0.41239 0.0
H3113 H 0.6418 0.90859 0.44279 0.0
C3114 C 0.62418 0.90974 0.40978 0.0
C3115 C 0.64403 0.91954 0.42449 0.0
C3116 C 0.65818 0.93052 0.42829 0.0
C3117 C 0.61688 0.89942 0.41903 0.0
C3118 C 0.62336 0.8989 0.43103 0.0
C3119 C 0.63688 0.90891 0.43353 0.0
C3120 C 0.61598 0.88865 0.44157 0.0
C3121 C 0.60212 0.88959 0.4161 0.0
C3122 C 0.61538 0.89283 0.45491 0.0
C3123 C 0.60745 0.88339 0.46462 0.0
C3124 C 0.59988 0.86958 0.46118 0.0
C3125 C 0.60085 0.86535 0.44792 0.0
C3126 C 0.60901 0.87479 0.43828 0.0
H3127 H 0.59791 0.89362 0.40862 0.0
H3128 H 0.60095 0.88011 0.41173 0.0
H3129 H 0.59604 0.88717 0.42552 0.0
H3130 H 0.62068 0.90345 0.45772 0.0
H3131 H 0.60684 0.88692 0.47474 0.0
H3132 H 0.0508 0.695 0.37516 0.0
H3133 H 0.06704 0.69999 0.39354 0.0
H3134 H 0.06901 0.73783 0.40182 0.0
H3135 H 0.05293 0.73305 0.38334 0.0
H3136 H 0.09429 0.74003 0.40161 0.0
H3137 H 0.0582 0.69808 0.43407 0.0
H3138 H 0.05992 0.69293 0.4172 0.0
H3139 H 0.05284 0.70357 0.41955 0.0
C3140 C 0.05467 0.70439 0.38088 0.0
C3141 C 0.05047 0.71358 0.37783 0.0
C3142 C 0.06392 0.7072 0.39142 0.0
C3143 C 0.06905 0.71918 0.39917 0.0
C3144 C 0.06511 0.7285 0.39599 0.0
H3145 H 0.10748 0.73486 0.47836 0.0
H3146 H 0.09309 0.73222 0.45884 0.0
C3147 C 0.0559 0.72572 0.38543 0.0
C3148 C 0.07846 0.72199 0.41069 0.0
H3149 H 0.08104 0.71017 0.44142 0.0
C3150 C 0.09141 0.73352 0.41033 0.0
C3151 C 0.07459 0.71357 0.42212 0.0
C3152 C 0.06059 0.70141 0.42337 0.0
C3153 C 0.10067 0.73679 0.42106 0.0
C3154 C 0.09691 0.72817 0.43233 0.0
C3155 C 0.08391 0.71672 0.43273 0.0
C3156 C 0.10621 0.73085 0.44391 0.0
C3157 C 0.11429 0.74953 0.42035 0.0
C3158 C 0.11837 0.73102 0.44197 0.0
C3159 C 0.12663 0.7326 0.45309 0.0
C3160 C 0.12284 0.73402 0.46635 0.0
C3161 C 0.11072 0.73396 0.46824 0.0
C3162 C 0.10248 0.73241 0.45712 0.0
H3163 H 0.11429 0.75669 0.41294 0.0
H3164 H 0.11742 0.75467 0.43047 0.0
H3165 H 0.12193 0.74694 0.41705 0.0
H3166 H 0.12128 0.72952 0.43191 0.0
H3167 H 0.13581 0.73237 0.45139 0.0
H3168 H 0.2969 0.01534 0.70345 0.0
H3169 H 0.2884 0.02481 0.72056 0.0
H3170 H 0.32889 0.058 0.72784 0.0
H3171 H 0.33741 0.0488 0.71052 0.0
H3172 H 0.29414 0.02991 0.74751 0.0
H3173 H 0.30878 0.07763 0.72139 0.0
H3174 H 0.30896 0.06367 0.713 0.0
H3175 H 0.32273 0.07509 0.72398 0.0
C3176 C 0.30398 0.02468 0.70867 0.0
C3177 C 0.31781 0.03139 0.70557 0.0
C3178 C 0.29911 0.03007 0.71844 0.0
C3179 C 0.30797 0.04225 0.72528 0.0
C3180 C 0.32182 0.04879 0.72242 0.0
H3181 H 0.30125 0.08792 0.79233 0.0
H3182 H 0.30879 0.07822 0.77444 0.0
C3183 C 0.32669 0.04347 0.71258 0.0
C3184 C 0.30278 0.04794 0.73564 0.0
H3185 H 0.30188 0.07627 0.74449 0.0
C3186 C 0.29574 0.04001 0.7468 0.0
C3187 C 0.30484 0.0611 0.73466 0.0
C3188 C 0.31162 0.06982 0.72254 0.0
C3189 C 0.29098 0.04502 0.75716 0.0
C3190 C 0.29329 0.05825 0.75629 0.0
C3191 C 0.30022 0.06615 0.74511 0.0
C3192 C 0.28866 0.06412 0.76696 0.0
C3193 C 0.28376 0.03626 0.76912 0.0
C3194 C 0.27487 0.05941 0.76856 0.0
C3195 C 0.27054 0.06503 0.77865 0.0
C3196 C 0.27996 0.07551 0.78723 0.0
C3197 C 0.29379 0.08008 0.78567 0.0
C3198 C 0.2981 0.07452 0.77552 0.0
H3199 H 0.28472 0.02715 0.76936 0.0
H3200 H 0.2878 0.04206 0.77881 0.0
H3201 H 0.27287 0.03293 0.76848 0.0
H3202 H 0.26746 0.05141 0.76199 0.0
H3203 H 0.25983 0.06116 0.77979 0.0
H3204 H 0.9863 0.28801 0.70701 0.0
H3205 H 0.98162 0.27194 0.72519 0.0
H3206 H 0.93892 0.25328 0.71719 0.0
H3207 H 0.94344 0.26917 0.69907 0.0
H3208 H 0.96562 0.26893 0.74851 0.0
H3209 H 0.94515 0.22109 0.71874 0.0
H3210 H 0.95516 0.23745 0.71119 0.0
H3211 H 0.93752 0.2308 0.71444 0.0
C3212 C 0.97592 0.28035 0.70898 0.0
C3213 C 0.96524 0.27988 0.70158 0.0
C3214 C 0.97328 0.27121 0.71939 0.0
C3215 C 0.95994 0.26135 0.72242 0.0
C3216 C 0.9493 0.26067 0.71486 0.0
H3217 H 0.92078 0.21927 0.79463 0.0
H3218 H 0.93079 0.23485 0.77576 0.0
C3219 C 0.95191 0.26983 0.70454 0.0
C3220 C 0.95694 0.25232 0.73406 0.0
H3221 H 0.94022 0.21911 0.74255 0.0
C3222 C 0.96024 0.25804 0.74722 0.0
C3223 C 0.95005 0.23813 0.73233 0.0
C3224 C 0.94687 0.23148 0.71841 0.0
C3225 C 0.95626 0.24991 0.75874 0.0
C3226 C 0.94865 0.23572 0.75702 0.0
C3227 C 0.94592 0.23001 0.74385 0.0
C3228 C 0.94299 0.2266 0.76872 0.0
C3229 C 0.96016 0.2566 0.77265 0.0
C3230 C 0.94635 0.21666 0.77087 0.0
C3231 C 0.94053 0.20766 0.78154 0.0
C3232 C 0.9311 0.20833 0.79013 0.0
C3233 C 0.92789 0.21842 0.78806 0.0
C3234 C 0.9337 0.2274 0.77738 0.0
H3235 H 0.96911 0.26694 0.77218 0.0
H3236 H 0.95165 0.25743 0.77684 0.0
H3237 H 0.9624 0.25061 0.77976 0.0
H3238 H 0.95348 0.21587 0.76428 0.0
H3239 H 0.94333 0.20012 0.78303 0.0
H3240 H 0.71738 0.66232 0.70741 0.0
H3241 H 0.73489 0.67424 0.72466 0.0
H3242 H 0.73218 0.70988 0.71958 0.0
H3243 H 0.7144 0.69793 0.70239 0.0
H3244 H 0.75981 0.69739 0.72226 0.0
H3245 H 0.72837 0.70457 0.76069 0.0
H3246 H 0.72111 0.69313 0.74628 0.0
H3247 H 0.72854 0.71097 0.74412 0.0
C3248 C 0.72044 0.67268 0.70995 0.0
C3249 C 0.71442 0.67914 0.70354 0.0
C3250 C 0.73048 0.67949 0.71982 0.0
C3251 C 0.73472 0.69288 0.72352 0.0
C3252 C 0.72887 0.69945 0.71706 0.0
H3253 H 0.80074 0.74533 0.77983 0.0
H3254 H 0.78397 0.73728 0.76128 0.0
C3255 C 0.71876 0.69263 0.70719 0.0
C3256 C 0.7454 0.69989 0.73404 0.0
H3257 H 0.75147 0.71386 0.76607 0.0
C3258 C 0.75801 0.70106 0.7318 0.0
C3259 C 0.743 0.70464 0.7465 0.0
C3260 C 0.7295 0.70319 0.74965 0.0
C3261 C 0.76821 0.70669 0.74177 0.0
C3262 C 0.76573 0.71123 0.75425 0.0
C3263 C 0.75328 0.71038 0.75642 0.0
C3264 C 0.77572 0.71616 0.76545 0.0
C3265 C 0.78154 0.70757 0.73907 0.0
C3266 C 0.77644 0.7069 0.77392 0.0
C3267 C 0.78594 0.71144 0.78448 0.0
C3268 C 0.79502 0.72533 0.78661 0.0
C3269 C 0.79407 0.73458 0.77822 0.0
C3270 C 0.78449 0.73002 0.7677 0.0
H3271 H 0.78238 0.70483 0.72837 0.0
H3272 H 0.78999 0.71796 0.74135 0.0
H3273 H 0.78267 0.70064 0.7459 0.0
H3274 H 0.76964 0.69616 0.77236 0.0
H3275 H 0.7862 0.70409 0.79098 0.0
H3276 H 0.6825 0.63418 0.63899 0.0
H3277 H 0.69272 0.62647 0.62194 0.0
H3278 H 0.72437 0.66761 0.61575 0.0
H3279 H 0.71437 0.67539 0.63298 0.0
H3280 H 0.69798 0.6326 0.59479 0.0
H3281 H 0.74551 0.64888 0.62349 0.0
H3282 H 0.7309 0.6481 0.63123 0.0
H3283 H 0.74193 0.66213 0.62083 0.0
C3284 C 0.69164 0.64159 0.634 0.0
C3285 C 0.6977 0.65539 0.6374 0.0
C3286 C 0.69746 0.63717 0.62426 0.0
C3287 C 0.70943 0.64645 0.61776 0.0
C3288 C 0.71531 0.66026 0.62088 0.0
H3289 H 0.75183 0.63668 0.54941 0.0
H3290 H 0.74195 0.64512 0.56621 0.0
C3291 C 0.70953 0.66469 0.63067 0.0
C3292 C 0.71568 0.64164 0.60766 0.0
H3293 H 0.74443 0.64092 0.6008 0.0
C3294 C 0.70812 0.6344 0.59612 0.0
C3295 C 0.72889 0.64393 0.60947 0.0
C3296 C 0.73726 0.65107 0.62198 0.0
C3297 C 0.7135 0.62953 0.58626 0.0
C3298 C 0.72673 0.63199 0.58801 0.0
C3299 C 0.7343 0.63917 0.59952 0.0
C3300 C 0.73278 0.62696 0.57802 0.0
C3301 C 0.70508 0.62179 0.57399 0.0
C3302 C 0.73086 0.614 0.57921 0.0
C3303 C 0.73648 0.60917 0.56968 0.0
C3304 C 0.74422 0.61729 0.55888 0.0
C3305 C 0.74608 0.63029 0.55774 0.0
C3306 C 0.74044 0.6351 0.56727 0.0
H3307 H 0.69499 0.62087 0.57403 0.0
H3308 H 0.71044 0.62691 0.56457 0.0
H3309 H 0.70369 0.61152 0.5737 0.0
H3310 H 0.72494 0.60761 0.58746 0.0
H3311 H 0.73475 0.59907 0.57071 0.0
H3312 H 0.36077 0.04769 0.64191 0.0
H3313 H 0.37245 0.06585 0.62559 0.0
H3314 H 0.33563 0.06606 0.61849 0.0
H3315 H 0.32391 0.04808 0.63482 0.0
H3316 H 0.36661 0.0667 0.59775 0.0
H3317 H 0.36312 0.10558 0.62864 0.0
H3318 H 0.36017 0.08993 0.63566 0.0
H3319 H 0.34721 0.09032 0.62587 0.0
C3320 C 0.35515 0.05159 0.63688 0.0
C3321 C 0.34142 0.04649 0.63977 0.0
C3322 C 0.36184 0.06196 0.62755 0.0
C3323 C 0.35495 0.06744 0.62103 0.0
C3324 C 0.3412 0.06216 0.62364 0.0
H3325 H 0.37275 0.11599 0.54994 0.0
H3326 H 0.36403 0.09805 0.56673 0.0
C3327 C 0.3345 0.05183 0.63294 0.0
C3328 C 0.36206 0.07864 0.61142 0.0
H3329 H 0.36997 0.11098 0.60562 0.0
C3330 C 0.36744 0.07642 0.5995 0.0
C3331 C 0.36327 0.09136 0.61383 0.0
C3332 C 0.35826 0.09453 0.62675 0.0
C3333 C 0.3736 0.08646 0.58969 0.0
C3334 C 0.37428 0.09895 0.59185 0.0
C3335 C 0.36931 0.10133 0.60396 0.0
C3336 C 0.37986 0.10961 0.58154 0.0
C3337 C 0.37935 0.08365 0.5771 0.0
C3338 C 0.39153 0.12207 0.5844 0.0
C3339 C 0.39655 0.13231 0.57483 0.0
C3340 C 0.38984 0.13031 0.5623 0.0
C3341 C 0.37812 0.1178 0.5595 0.0
C3342 C 0.37318 0.10754 0.56903 0.0
H3343 H 0.3808 0.07491 0.5784 0.0
H3344 H 0.37228 0.08132 0.56844 0.0
H3345 H 0.38918 0.09262 0.57445 0.0
H3346 H 0.39677 0.12386 0.59404 0.0
H3347 H 0.40562 0.14182 0.57724 0.0
H3348 H 0.95323 0.31557 0.63893 0.0
H3349 H 0.93629 0.30651 0.62074 0.0
H3350 H 0.94676 0.27633 0.6111 0.0
H3351 H 0.96362 0.2852 0.62947 0.0
H3352 H 0.93894 0.30358 0.59306 0.0
H3353 H 0.90597 0.2539 0.61671 0.0
H3354 H 0.91939 0.26804 0.62596 0.0
H3355 H 0.92318 0.25816 0.61443 0.0
C3356 C 0.95195 0.307 0.63294 0.0
C3357 C 0.95968 0.30102 0.6357 0.0
C3358 C 0.94227 0.30186 0.62254 0.0
C3359 C 0.94012 0.29062 0.61473 0.0
C3360 C 0.94807 0.28483 0.6172 0.0
H3361 H 0.88412 0.24626 0.54833 0.0
H3362 H 0.90259 0.25531 0.56505 0.0
C3363 C 0.95774 0.28996 0.62765 0.0
C3364 C 0.92951 0.28499 0.60403 0.0
H3365 H 0.89985 0.2568 0.59463 0.0
C3366 C 0.93039 0.29335 0.59339 0.0
C3367 C 0.91835 0.27166 0.60454 0.0
C3368 C 0.91655 0.26243 0.61608 0.0
C3369 C 0.92043 0.2887 0.58318 0.0
C3370 C 0.90928 0.27541 0.58373 0.0
C3371 C 0.90846 0.26699 0.59427 0.0
C3372 C 0.89822 0.27009 0.57357 0.0
C3373 C 0.92195 0.29798 0.57181 0.0
C3374 C 0.88964 0.27538 0.57292 0.0
C3375 C 0.879 0.27014 0.56351 0.0
C3376 C 0.8767 0.25944 0.55466 0.0
C3377 C 0.88546 0.2543 0.55522 0.0
C3378 C 0.89603 0.25949 0.5647 0.0
H3379 H 0.93241 0.30675 0.57125 0.0
H3380 H 0.91924 0.29247 0.56187 0.0
H3381 H 0.91501 0.30187 0.57356 0.0
H3382 H 0.89112 0.2835 0.57977 0.0
H3383 H 0.87256 0.27444 0.56313 0.0
H3384 H 0.32798 0.2805 0.64077 0.0
H3385 H 0.33875 0.27537 0.62211 0.0
H3386 H 0.37681 0.31104 0.63212 0.0
H3387 H 0.36609 0.31639 0.65089 0.0
H3388 H 0.35502 0.29571 0.59969 0.0
H3389 H 0.38267 0.27676 0.62986 0.0
H3390 H 0.36767 0.27621 0.63626 0.0
H3391 H 0.38319 0.29204 0.63535 0.0
C3392 C 0.33865 0.28727 0.63909 0.0
C3393 C 0.34617 0.29888 0.64735 0.0
C3394 C 0.34478 0.2843 0.6284 0.0
C3395 C 0.35855 0.29278 0.62583 0.0
C3396 C 0.36616 0.30434 0.63405 0.0
H3397 H 0.40755 0.28104 0.56521 0.0
H3398 H 0.40005 0.28867 0.58499 0.0
C3399 C 0.36002 0.30738 0.64473 0.0
C3400 C 0.36473 0.28964 0.61422 0.0
H3401 H 0.38408 0.27593 0.60602 0.0
C3402 C 0.36144 0.29146 0.60104 0.0
C3403 C 0.37318 0.28423 0.61609 0.0
C3404 C 0.37692 0.28211 0.63013 0.0
C3405 C 0.3663 0.28787 0.58958 0.0
C3406 C 0.37429 0.28189 0.5914 0.0
C3407 C 0.37786 0.2804 0.60463 0.0
C3408 C 0.37882 0.2769 0.57969 0.0
C3409 C 0.36293 0.29071 0.57566 0.0
C3410 C 0.36936 0.26744 0.57036 0.0
C3411 C 0.37364 0.26328 0.55895 0.0
C3412 C 0.38745 0.26833 0.55673 0.0
C3413 C 0.39686 0.27722 0.56648 0.0
C3414 C 0.39259 0.28153 0.57782 0.0
H3415 H 0.36068 0.29901 0.57608 0.0
H3416 H 0.37134 0.29347 0.56844 0.0
H3417 H 0.3538 0.28155 0.57163 0.0
H3418 H 0.35865 0.26334 0.57185 0.0
H3419 H 0.36614 0.2562 0.55177 0.0
H3420 H 0.71885 0.04388 0.62148 0.0
H3421 H 0.72722 0.05989 0.60272 0.0
H3422 H 0.70318 0.07656 0.61682 0.0
H3423 H 0.69468 0.06059 0.63543 0.0
H3424 H 0.70843 0.06283 0.58266 0.0
H3425 H 0.74378 0.10936 0.6121 0.0
H3426 H 0.73898 0.09266 0.61771 0.0
H3427 H 0.72742 0.09868 0.6194 0.0
C3428 C 0.7154 0.051 0.6206 0.0
C3429 C 0.7061 0.05098 0.62991 0.0
C3430 C 0.72019 0.06011 0.60991 0.0
C3431 C 0.7159 0.06945 0.60853 0.0
C3432 C 0.7067 0.06951 0.61784 0.0
H3433 H 0.72428 0.13175 0.55631 0.0
H3434 H 0.72136 0.11677 0.57502 0.0
C3435 C 0.70181 0.06034 0.62842 0.0
C3436 C 0.72049 0.0788 0.59703 0.0
H3437 H 0.7387 0.11222 0.58948 0.0
C3438 C 0.71519 0.07362 0.58405 0.0
C3439 C 0.7292 0.09283 0.59901 0.0
C3440 C 0.73528 0.09878 0.61278 0.0
C3441 C 0.71795 0.08219 0.57303 0.0
C3442 C 0.72656 0.09629 0.57501 0.0
C3443 C 0.73213 0.10142 0.58797 0.0
C3444 C 0.72929 0.10593 0.56396 0.0
C3445 C 0.71108 0.0761 0.55955 0.0
C3446 C 0.73506 0.10505 0.55168 0.0
C3447 C 0.73656 0.11347 0.54093 0.0
C3448 C 0.73254 0.12308 0.54238 0.0
C3449 C 0.72738 0.12438 0.55492 0.0
C3450 C 0.72574 0.11586 0.5656 0.0
H3451 H 0.70226 0.06576 0.56068 0.0
H3452 H 0.7076 0.08244 0.5547 0.0
H3453 H 0.71834 0.07542 0.55263 0.0
H3454 H 0.73819 0.09771 0.55032 0.0
H3455 H 0.74067 0.11234 0.53142 0.0
H3456 H 0.95068 0.64216 0.64175 0.0
H3457 H 0.93445 0.63058 0.62319 0.0
H3458 H 0.92967 0.66509 0.61894 0.0
H3459 H 0.94578 0.67672 0.63753 0.0
H3460 H 0.90501 0.6399 0.6187 0.0
H3461 H 0.94255 0.64043 0.58269 0.0
H3462 H 0.94196 0.63329 0.59895 0.0
H3463 H 0.9474 0.65089 0.59792 0.0
C3464 C 0.94618 0.64729 0.63689 0.0
C3465 C 0.94961 0.66041 0.64108 0.0
C3466 C 0.93694 0.64068 0.62625 0.0
C3467 C 0.93101 0.64706 0.6196 0.0
C3468 C 0.93419 0.66002 0.62393 0.0
H3469 H 0.8914 0.62569 0.54083 0.0
H3470 H 0.90581 0.63719 0.56068 0.0
C3471 C 0.94343 0.66666 0.63453 0.0
C3472 C 0.92157 0.64031 0.60804 0.0
H3473 H 0.91966 0.62829 0.57565 0.0
C3474 C 0.90818 0.63735 0.60927 0.0
C3475 C 0.92582 0.63718 0.59572 0.0
C3476 C 0.94024 0.6407 0.59362 0.0
C3477 C 0.89887 0.63119 0.59852 0.0
C3478 C 0.90305 0.62778 0.58631 0.0
C3479 C 0.91647 0.63085 0.58506 0.0
C3480 C 0.89374 0.62115 0.5746 0.0
C3481 C 0.88474 0.62865 0.60024 0.0
C3482 C 0.88216 0.60834 0.57586 0.0
C3483 C 0.87387 0.60181 0.56456 0.0
C3484 C 0.87707 0.60795 0.55179 0.0
C3485 C 0.88863 0.6208 0.55058 0.0
C3486 C 0.89688 0.62734 0.56189 0.0
H3487 H 0.88421 0.63499 0.60859 0.0
H3488 H 0.88099 0.63068 0.59071 0.0
H3489 H 0.87788 0.61792 0.60281 0.0
H3490 H 0.87972 0.60324 0.58549 0.0
H3491 H 0.86512 0.59183 0.56571 0.0
H3492 H 0.98293 0.70542 0.71008 0.0
H3493 H 0.97526 0.71396 0.72888 0.0
H3494 H 0.93799 0.67571 0.73046 0.0
H3495 H 0.94553 0.6671 0.71154 0.0
H3496 H 0.93459 0.69835 0.73149 0.0
H3497 H 0.97283 0.70313 0.76891 0.0
H3498 H 0.97993 0.71143 0.75318 0.0
H3499 H 0.96921 0.69338 0.75328 0.0
C3500 C 0.9731 0.69881 0.71442 0.0
C3501 C 0.96486 0.68556 0.70936 0.0
C3502 C 0.96877 0.70369 0.72521 0.0
C3503 C 0.95615 0.69539 0.73118 0.0
C3504 C 0.9478 0.68224 0.72602 0.0
H3505 H 0.93452 0.71745 0.80848 0.0
H3506 H 0.93758 0.70474 0.78999 0.0
C3507 C 0.95213 0.67734 0.71523 0.0
C3508 C 0.95167 0.70056 0.7427 0.0
H3509 H 0.96049 0.71392 0.77485 0.0
C3510 C 0.94017 0.70166 0.74102 0.0
C3511 C 0.95884 0.70465 0.75519 0.0
C3512 C 0.97081 0.70298 0.75784 0.0
C3513 C 0.93594 0.70723 0.75135 0.0
C3514 C 0.94353 0.71196 0.76357 0.0
C3515 C 0.95475 0.7104 0.76542 0.0
C3516 C 0.94034 0.71896 0.77444 0.0
C3517 C 0.92337 0.70795 0.74911 0.0
C3518 C 0.94084 0.73113 0.77181 0.0
C3519 C 0.93904 0.73837 0.78233 0.0
C3520 C 0.93673 0.73355 0.79568 0.0
C3521 C 0.93609 0.72128 0.79826 0.0
C3522 C 0.93787 0.71405 0.78773 0.0
H3523 H 0.91668 0.70051 0.74123 0.0
H3524 H 0.91759 0.70611 0.75867 0.0
H3525 H 0.92629 0.71817 0.74557 0.0
H3526 H 0.94307 0.73528 0.7617 0.0
H3527 H 0.93984 0.74792 0.78013 0.0
H3528 H 0.33702 0.28292 0.71112 0.0
H3529 H 0.327 0.26416 0.72697 0.0
H3530 H 0.29521 0.27253 0.73568 0.0
H3531 H 0.3048 0.29082 0.71941 0.0
H3532 H 0.32264 0.2628 0.7531 0.0
H3533 H 0.27318 0.23322 0.72725 0.0
H3534 H 0.28728 0.24759 0.71952 0.0
H3535 H 0.27662 0.24989 0.73139 0.0
C3536 C 0.32786 0.2807 0.71639 0.0
C3537 C 0.3216 0.28822 0.71394 0.0
C3538 C 0.32214 0.26998 0.72543 0.0
C3539 C 0.31015 0.26669 0.73227 0.0
C3540 C 0.30418 0.27453 0.73017 0.0
H3541 H 0.28019 0.22493 0.80707 0.0
H3542 H 0.29298 0.24073 0.78914 0.0
C3543 C 0.30973 0.28507 0.72096 0.0
C3544 C 0.30403 0.25531 0.74186 0.0
H3545 H 0.27406 0.22775 0.75056 0.0
C3546 C 0.31205 0.25503 0.75244 0.0
C3547 C 0.29031 0.24494 0.74084 0.0
C3548 C 0.28141 0.24383 0.72904 0.0
C3549 C 0.30658 0.24503 0.76236 0.0
C3550 C 0.2926 0.23534 0.76195 0.0
C3551 C 0.28473 0.23528 0.75103 0.0
C3552 C 0.28574 0.22555 0.773 0.0
C3553 C 0.31589 0.24495 0.77308 0.0
C3554 C 0.27711 0.21177 0.76991 0.0
C3555 C 0.26953 0.20278 0.78012 0.0
C3556 C 0.27061 0.20736 0.79368 0.0
C3557 C 0.27941 0.22109 0.79677 0.0
C3558 C 0.2868 0.23011 0.78653 0.0
H3559 H 0.32635 0.24937 0.7692 0.0
H3560 H 0.31624 0.25122 0.78195 0.0
H3561 H 0.31241 0.23458 0.77655 0.0
H3562 H 0.276 0.20802 0.75953 0.0
H3563 H 0.26263 0.19231 0.77734 0.0
H3564 H 0.7156 0.02285 0.70262 0.0
H3565 H 0.73118 0.02707 0.72153 0.0
H3566 H 0.75356 0.06936 0.71203 0.0
H3567 H 0.73782 0.06531 0.69347 0.0
H3568 H 0.75796 0.03708 0.7235 0.0
H3569 H 0.74489 0.07101 0.75139 0.0
H3570 H 0.73536 0.06096 0.73681 0.0
H3571 H 0.75088 0.07672 0.73457 0.0
C3572 C 0.72389 0.03303 0.70452 0.0
C3573 C 0.72537 0.04377 0.69667 0.0
C3574 C 0.73277 0.03543 0.71533 0.0
C3575 C 0.74333 0.04859 0.71842 0.0
C3576 C 0.74524 0.0592 0.71012 0.0
H3577 H 0.81177 0.06932 0.77186 0.0
H3578 H 0.79691 0.06506 0.75231 0.0
C3579 C 0.73628 0.05684 0.69945 0.0
C3580 C 0.75224 0.05129 0.7304 0.0
H3581 H 0.76405 0.07047 0.75953 0.0
C3582 C 0.75926 0.04434 0.73141 0.0
C3583 C 0.75372 0.06058 0.74086 0.0
C3584 C 0.7457 0.06764 0.74095 0.0
C3585 C 0.76792 0.04659 0.74247 0.0
C3586 C 0.7699 0.05636 0.75258 0.0
C3587 C 0.76269 0.06313 0.75168 0.0
C3588 C 0.77913 0.05949 0.76438 0.0
C3589 C 0.77459 0.03825 0.74333 0.0
C3590 C 0.77423 0.05832 0.77768 0.0
C3591 C 0.78278 0.06109 0.78886 0.0
C3592 C 0.79643 0.06516 0.78697 0.0
C3593 C 0.80136 0.06642 0.77365 0.0
C3594 C 0.79282 0.06379 0.76246 0.0
H3595 H 0.76901 0.02872 0.73726 0.0
H3596 H 0.78496 0.04408 0.7392 0.0
H3597 H 0.77529 0.03572 0.75402 0.0
H3598 H 0.76371 0.05504 0.77942 0.0
H3599 H 0.77868 0.05982 0.79901 0.0
H3600 H 0.05352 0.35058 0.02327 0.0
H3601 H 0.0677 0.34462 0.03656 0.0
H3602 H 0.03468 0.30351 0.03846 0.0
H3603 H 0.02048 0.30936 0.02534 0.0
H3604 H 0.05949 0.33295 0.06373 0.0
H3605 H 0.06824 0.30042 0.02796 0.0
H3606 H 0.06387 0.31256 0.0223 0.0
H3607 H 0.05106 0.29663 0.02878 0.0
C3608 C 0.0494 0.34021 0.02627 0.0
C3609 C 0.03589 0.33044 0.02328 0.0
C3610 C 0.05749 0.33684 0.03389 0.0
C3611 C 0.05226 0.32361 0.03838 0.0
C3612 C 0.03896 0.31374 0.03492 0.0
H3613 H 0.06982 0.26936 0.0905 0.0
H3614 H 0.05998 0.28173 0.07204 0.0
C3615 C 0.03085 0.31712 0.02747 0.0
C3616 C 0.0601 0.32026 0.04777 0.0
H3617 H 0.07247 0.29917 0.05146 0.0
C3618 C 0.06259 0.32576 0.06102 0.0
C3619 C 0.06392 0.31075 0.0442 0.0
C3620 C 0.06175 0.3048 0.03 0.0
C3621 C 0.0682 0.3215 0.07103 0.0
C3622 C 0.07184 0.3118 0.06751 0.0
C3623 C 0.06971 0.30662 0.05414 0.0
C3624 C 0.07695 0.30614 0.07761 0.0
C3625 C 0.06931 0.32681 0.0854 0.0
C3626 C 0.09068 0.31719 0.08899 0.0
C3627 C 0.09701 0.31036 0.10132 0.0
C3628 C 0.09042 0.29191 0.09919 0.0
C3629 C 0.07407 0.28017 0.0906 0.0
C3630 C 0.06849 0.28799 0.07867 0.0
H3631 H 0.0621 0.33037 0.08721 0.0
H3632 H 0.06735 0.319 0.09297 0.0
H3633 H 0.07963 0.33555 0.08712 0.0
H3634 H 0.09535 0.32801 0.08827 0.0
H3635 H 0.10591 0.31687 0.10737 0.0
H3636 H 0.64407 0.69309 0.04605 0.0
H3637 H 0.65618 0.71292 0.06105 0.0
H3638 H 0.69359 0.71427 0.05248 0.0
H3639 H 0.68162 0.69451 0.03738 0.0
H3640 H 0.67238 0.71567 0.0845 0.0
H3641 H 0.70174 0.75292 0.04469 0.0
H3642 H 0.68703 0.73669 0.04075 0.0
H3643 H 0.70289 0.73794 0.04449 0.0
C3644 C 0.65488 0.69763 0.04728 0.0
C3645 C 0.66188 0.69223 0.04046 0.0
C3646 C 0.66177 0.70894 0.05588 0.0
C3647 C 0.67577 0.71512 0.05773 0.0
C3648 C 0.6828 0.70976 0.051 0.0
H3649 H 0.74008 0.79489 0.10103 0.0
H3650 H 0.72652 0.7692 0.08658 0.0
C3651 C 0.67593 0.69843 0.04242 0.0
C3652 C 0.68298 0.72703 0.06692 0.0
H3653 H 0.70666 0.76059 0.06753 0.0
C3654 C 0.67985 0.72552 0.08081 0.0
C3655 C 0.6928 0.73979 0.06206 0.0
C3656 C 0.69628 0.74203 0.04717 0.0
C3657 C 0.68637 0.73645 0.09003 0.0
C3658 C 0.696 0.74927 0.08512 0.0
C3659 C 0.69926 0.75074 0.07126 0.0
C3660 C 0.70267 0.76142 0.09397 0.0
C3661 C 0.68315 0.73395 0.10495 0.0
C3662 C 0.69258 0.76544 0.10501 0.0
C3663 C 0.70024 0.78091 0.11488 0.0
C3664 C 0.71813 0.79311 0.11046 0.0
C3665 C 0.72943 0.78784 0.10249 0.0
C3666 C 0.7208 0.77213 0.09305 0.0
H3667 H 0.68014 0.72343 0.10752 0.0
H3668 H 0.69186 0.74096 0.1115 0.0
H3669 H 0.67447 0.73528 0.10735 0.0
H3670 H 0.68177 0.75876 0.10539 0.0
H3671 H 0.69415 0.78397 0.12055 0.0
H3672 H 0.2995 0.94679 0.02215 0.0
H3673 H 0.27848 0.93776 0.03492 0.0
H3674 H 0.28337 0.9774 0.03748 0.0
H3675 H 0.30443 0.98658 0.02479 0.0
H3676 H 0.27758 0.96363 0.06267 0.0
H3677 H 0.2418 0.93191 0.02155 0.0
H3678 H 0.25572 0.92927 0.02422 0.0
H3679 H 0.25885 0.94523 0.01819 0.0
C3680 C 0.29606 0.95358 0.02532 0.0
C3681 C 0.30364 0.96741 0.02241 0.0
C3682 C 0.28402 0.94839 0.03258 0.0
C3683 C 0.27933 0.9569 0.037 0.0
C3684 C 0.28682 0.97067 0.03409 0.0
H3685 H 0.21109 0.94492 0.08627 0.0
H3686 H 0.23214 0.95469 0.07334 0.0
C3687 C 0.29883 0.97588 0.02681 0.0
C3688 C 0.26683 0.95152 0.04508 0.0
H3689 H 0.23287 0.92931 0.04376 0.0
C3690 C 0.26778 0.95618 0.05855 0.0
C3691 C 0.2541 0.94179 0.03963 0.0
C3692 C 0.25247 0.93681 0.02507 0.0
C3693 C 0.25634 0.95112 0.06685 0.0
C3694 C 0.2436 0.94136 0.06141 0.0
C3695 C 0.24266 0.93678 0.0479 0.0
C3696 C 0.23111 0.93561 0.06958 0.0
C3697 C 0.25805 0.95601 0.08145 0.0
C3698 C 0.2234 0.92164 0.07147 0.0
C3699 C 0.21137 0.91605 0.07874 0.0
C3700 C 0.20686 0.92436 0.08437 0.0
C3701 C 0.21452 0.93834 0.08234 0.0
C3702 C 0.22654 0.94392 0.075 0.0
H3703 H 0.2687 0.96064 0.08498 0.0
H3704 H 0.25513 0.96379 0.08238 0.0
H3705 H 0.25152 0.94762 0.08829 0.0
H3706 H 0.22668 0.91503 0.06724 0.0
H3707 H 0.2055 0.90521 0.07984 0.0
H3708 H 0.33355 0.02327 0.96537 0.0
H3709 H 0.32657 0.03797 0.95531 0.0
H3710 H 0.32832 0.05563 0.99491 0.0
H3711 H 0.33614 0.04142 0.00488 0.0
H3712 H 0.3048 0.03811 0.95897 0.0
H3713 H 0.34667 0.08903 0.97356 0.0
H3714 H 0.34774 0.0741 0.97571 0.0
H3715 H 0.3392 0.07873 0.98812 0.0
C3716 C 0.33265 0.03045 0.97189 0.0
C3717 C 0.3354 0.03125 0.98588 0.0
C3718 C 0.32864 0.03883 0.96614 0.0
C3719 C 0.32703 0.04804 0.97429 0.0
C3720 C 0.32985 0.04891 0.98831 0.0
H3721 H 0.2744 0.07731 0.9486 0.0
H3722 H 0.28429 0.06517 0.95897 0.0
C3723 C 0.33422 0.04073 0.99403 0.0
C3724 C 0.3215 0.05595 0.96815 0.0
H3725 H 0.32653 0.08768 0.96521 0.0
C3726 C 0.30964 0.04897 0.96026 0.0
C3727 C 0.32786 0.07015 0.96965 0.0
C3728 C 0.34115 0.07845 0.97709 0.0
C3729 C 0.30395 0.05572 0.9539 0.0
C3730 C 0.30992 0.06982 0.95597 0.0
C3731 C 0.32184 0.07685 0.96376 0.0
C3732 C 0.30402 0.07747 0.95005 0.0
C3733 C 0.29183 0.04767 0.94471 0.0
C3734 C 0.31197 0.08883 0.94211 0.0
C3735 C 0.30641 0.09598 0.93645 0.0
C3736 C 0.29271 0.09176 0.93842 0.0
C3737 C 0.28488 0.08057 0.94662 0.0
C3738 C 0.2905 0.07358 0.95248 0.0
H3739 H 0.29136 0.03836 0.94071 0.0
H3740 H 0.28248 0.04454 0.95059 0.0
H3741 H 0.29196 0.05368 0.93595 0.0
H3742 H 0.32247 0.09212 0.94022 0.0
H3743 H 0.31285 0.10477 0.9305 0.0
H3744 H 0.98955 0.30103 0.98504 0.0
H3745 H 0.97953 0.2806 0.97066 0.0
H3746 H 0.94343 0.28268 0.96599 0.0
H3747 H 0.95329 0.30308 0.9804 0.0
H3748 H 0.95241 0.25528 0.97519 0.0
H3749 H 0.95728 0.28081 0.92622 0.0
H3750 H 0.96761 0.28962 0.94095 0.0
H3751 H 0.95029 0.28531 0.94035 0.0
C3752 C 0.97947 0.29715 0.98097 0.0
C3753 C 0.97222 0.30371 0.98385 0.0
C3754 C 0.97378 0.28548 0.97278 0.0
C3755 C 0.96083 0.28027 0.9672 0.0
C3756 C 0.9535 0.28668 0.97012 0.0
H3757 H 0.90937 0.21379 0.90251 0.0
H3758 H 0.92168 0.23729 0.92044 0.0
C3759 C 0.95913 0.29829 0.9784 0.0
C3760 C 0.95491 0.26803 0.95841 0.0
H3761 H 0.94589 0.25706 0.9256 0.0
C3762 C 0.951 0.25561 0.96433 0.0
C3763 C 0.95302 0.26859 0.94431 0.0
C3764 C 0.95733 0.28179 0.93749 0.0
C3765 C 0.945 0.24361 0.95652 0.0
C3766 C 0.94327 0.24416 0.94235 0.0
C3767 C 0.94719 0.25662 0.93646 0.0
C3768 C 0.93736 0.23206 0.93336 0.0
C3769 C 0.94009 0.23048 0.96373 0.0
C3770 C 0.94382 0.22068 0.934 0.0
C3771 C 0.93715 0.2061 0.92284 0.0
C3772 C 0.92176 0.20248 0.91314 0.0
C3773 C 0.91757 0.2157 0.9093 0.0
C3774 C 0.92485 0.22995 0.92092 0.0
H3775 H 0.93811 0.23139 0.97465 0.0
H3776 H 0.93067 0.22224 0.95902 0.0
H3777 H 0.94797 0.22768 0.96324 0.0
H3778 H 0.95194 0.22273 0.94095 0.0
H3779 H 0.94015 0.19865 0.92388 0.0
H3780 H 0.69965 0.69043 0.98855 0.0
H3781 H 0.72134 0.69862 0.97734 0.0
H3782 H 0.71905 0.66071 0.98453 0.0
H3783 H 0.69721 0.65235 0.99572 0.0
H3784 H 0.74543 0.701 0.98799 0.0
H3785 H 0.72551 0.6661 0.94306 0.0
H3786 H 0.71474 0.66899 0.95425 0.0
H3787 H 0.72101 0.65831 0.95941 0.0
C3788 C 0.70374 0.68381 0.98777 0.0
C3789 C 0.69667 0.67071 0.99297 0.0
C3790 C 0.71615 0.68852 0.98136 0.0
C3791 C 0.7217 0.68021 0.97995 0.0
C3792 C 0.71481 0.6672 0.98532 0.0
H3793 H 0.7961 0.69517 0.94067 0.0
H3794 H 0.77459 0.68496 0.95285 0.0
C3795 C 0.70239 0.66247 0.99178 0.0
C3796 C 0.73475 0.6853 0.9729 0.0
H3797 H 0.74912 0.68081 0.94438 0.0
C3798 C 0.74626 0.69658 0.97847 0.0
C3799 C 0.73577 0.67947 0.9605 0.0
C3800 C 0.72361 0.66761 0.95385 0.0
C3801 C 0.7588 0.70222 0.97197 0.0
C3802 C 0.75977 0.69656 0.95944 0.0
C3803 C 0.74831 0.68513 0.95398 0.0
C3804 C 0.77254 0.70257 0.95171 0.0
C3805 C 0.77093 0.71411 0.97864 0.0
C3806 C 0.77835 0.71573 0.94685 0.0
C3807 C 0.79056 0.72154 0.93985 0.0
C3808 C 0.7971 0.71422 0.93743 0.0
C3809 C 0.79117 0.70096 0.94219 0.0
C3810 C 0.77893 0.69515 0.94918 0.0
H3811 H 0.76934 0.71491 0.98969 0.0
H3812 H 0.78011 0.71336 0.97732 0.0
H3813 H 0.77277 0.72353 0.97384 0.0
H3814 H 0.77347 0.72155 0.94853 0.0
H3815 H 0.79499 0.73182 0.93646 0.0
H3816 H 0.94499 0.65407 0.00079 0.0
H3817 H 0.93668 0.66663 0.9883 0.0
H3818 H 0.9776 0.69671 0.97839 0.0
H3819 H 0.98599 0.6845 0.99112 0.0
H3820 H 0.96336 0.70814 0.98629 0.0
H3821 H 0.93427 0.66799 0.94747 0.0
H3822 H 0.9293 0.66277 0.96464 0.0
H3823 H 0.94595 0.66723 0.95909 0.0
C3824 C 0.95221 0.66336 0.99595 0.0
C3825 C 0.96615 0.66825 0.99691 0.0
C3826 C 0.94744 0.67048 0.98875 0.0
C3827 C 0.95651 0.68248 0.98221 0.0
C3828 C 0.97041 0.68745 0.98332 0.0
H3829 H 0.94076 0.72189 0.91717 0.0
H3830 H 0.94753 0.70929 0.93167 0.0
C3831 C 0.97519 0.68044 0.99061 0.0
C3832 C 0.95164 0.69 0.97424 0.0
H3833 H 0.93223 0.68739 0.94685 0.0
C3834 C 0.95653 0.70361 0.97767 0.0
C3835 C 0.94288 0.6841 0.96289 0.0
C3836 C 0.93788 0.66976 0.95819 0.0
C3837 C 0.95298 0.71152 0.97004 0.0
C3838 C 0.94399 0.70554 0.95888 0.0
C3839 C 0.93904 0.69192 0.95548 0.0
C3840 C 0.93999 0.71337 0.95024 0.0
C3841 C 0.95925 0.7263 0.97374 0.0
C3842 C 0.93344 0.71978 0.95585 0.0
C3843 C 0.92972 0.72713 0.9476 0.0
C3844 C 0.93231 0.72803 0.93357 0.0
C3845 C 0.93873 0.72145 0.92796 0.0
C3846 C 0.94254 0.7142 0.93622 0.0
H3847 H 0.96854 0.73002 0.98002 0.0
H3848 H 0.96185 0.73251 0.9645 0.0
H3849 H 0.95194 0.7278 0.97975 0.0
H3850 H 0.93109 0.71901 0.96658 0.0
H3851 H 0.92471 0.73201 0.95218 0.0
H3852 H 0.35383 0.31322 0.97296 0.0
H3853 H 0.34372 0.29141 0.96071 0.0
H3854 H 0.30427 0.28194 0.97448 0.0
H3855 H 0.31419 0.30386 0.98604 0.0
H3856 H 0.33023 0.26634 0.96779 0.0
H3857 H 0.29657 0.27472 0.93505 0.0
H3858 H 0.30963 0.28808 0.94536 0.0
H3859 H 0.29331 0.27666 0.95249 0.0
C3860 C 0.343 0.30646 0.97331 0.0
C3861 C 0.33476 0.31029 0.98028 0.0
C3862 C 0.33723 0.29403 0.96631 0.0
C3863 C 0.32317 0.28518 0.96631 0.0
C3864 C 0.31506 0.28879 0.97383 0.0
H3865 H 0.27723 0.19975 0.95658 0.0
H3866 H 0.29317 0.2231 0.96323 0.0
C3867 C 0.32076 0.30128 0.98056 0.0
C3868 C 0.31686 0.27204 0.95877 0.0
H3869 H 0.28996 0.25139 0.93833 0.0
C3870 C 0.32156 0.26315 0.96116 0.0
C3871 C 0.30583 0.26796 0.94972 0.0
C3872 C 0.30117 0.27745 0.94539 0.0
C3873 C 0.315 0.25004 0.95546 0.0
C3874 C 0.30309 0.2455 0.94762 0.0
C3875 C 0.29892 0.25468 0.94455 0.0
C3876 C 0.29429 0.23115 0.94321 0.0
C3877 C 0.321 0.24127 0.95791 0.0
C3878 C 0.2892 0.22781 0.92983 0.0
C3879 C 0.27965 0.21449 0.92614 0.0
C3880 C 0.27519 0.20416 0.93571 0.0
C3881 C 0.28058 0.20747 0.94897 0.0
C3882 C 0.28985 0.22082 0.95273 0.0
H3883 H 0.33216 0.24748 0.95894 0.0
H3884 H 0.31705 0.23586 0.96758 0.0
H3885 H 0.31849 0.23375 0.94953 0.0
H3886 H 0.29237 0.23559 0.9223 0.0
H3887 H 0.27565 0.21236 0.91586 0.0
H3888 H 0.70444 0.01655 0.00409 0.0
H3889 H 0.72595 0.02473 0.99254 0.0
H3890 H 0.72463 0.05948 0.97912 0.0
H3891 H 0.7033 0.05157 0.99107 0.0
H3892 H 0.72985 0.0276 0.9662 0.0
H3893 H 0.76323 0.07703 0.99152 0.0
H3894 H 0.74708 0.06479 0.99839 0.0
H3895 H 0.74806 0.07575 0.98505 0.0
C3896 C 0.70883 0.02604 -0.00115 0.0
C3897 C 0.70217 0.03341 0.99846 0.0
C3898 C 0.72113 0.03071 0.99226 0.0
C3899 C 0.727 0.04279 0.98508 0.0
C3900 C 0.72049 0.05031 0.98488 0.0
H3901 H 0.77881 0.06234 0.91583 0.0
H3902 H 0.76027 0.05512 0.93191 0.0
C3903 C 0.70825 0.04573 0.99164 0.0
C3904 C 0.73923 0.04683 0.97682 0.0
H3905 H 0.77081 0.0731 0.97008 0.0
C3906 C 0.73886 0.03751 0.96717 0.0
C3907 C 0.75106 0.05969 0.97819 0.0
C3908 C 0.75246 0.06983 0.98895 0.0
C3909 C 0.7498 0.04081 0.95859 0.0
C3910 C 0.7613 0.05392 0.95942 0.0
C3911 C 0.7619 0.06311 0.96935 0.0
C3912 C 0.77262 0.05838 0.94976 0.0
C3913 C 0.74895 0.03018 0.94876 0.0
C3914 C 0.78577 0.0629 0.95449 0.0
C3915 C 0.79642 0.06718 0.94531 0.0
C3916 C 0.79411 0.06715 0.93128 0.0
C3917 C 0.7809 0.06256 0.92659 0.0
C3918 C 0.77029 0.05834 0.93576 0.0
H3919 H 0.74163 0.01985 0.95222 0.0
H3920 H 0.74546 0.03148 0.9387 0.0
H3921 H 0.75895 0.03106 0.94745 0.0
H3922 H 0.78776 0.06302 0.96527 0.0
H3923 H 0.80647 0.07055 0.94917 0.0
H3924 H 0.68699 0.98624 0.04543 0.0
H3925 H 0.69492 0.97206 0.05481 0.0
H3926 H 0.66676 0.93877 0.02917 0.0
H3927 H 0.65874 0.95301 0.01955 0.0
H3928 H 0.67984 0.94713 0.06845 0.0
H3929 H 0.70391 0.94251 0.02108 0.0
H3930 H 0.6992 0.95515 0.02331 0.0
H3931 H 0.68649 0.93791 0.01977 0.0
C3932 C 0.68245 0.9759 0.04173 0.0
C3933 C 0.67227 0.97076 0.03168 0.0
C3934 C 0.68699 0.96781 0.04715 0.0
C3935 C 0.68151 0.95442 0.04261 0.0
C3936 C 0.67123 0.94915 0.03268 0.0
H3937 H 0.71005 0.89972 0.06392 0.0
H3938 H 0.69618 0.90853 0.05519 0.0
C3939 C 0.66664 0.95726 0.02724 0.0
C3940 C 0.68677 0.94618 0.04833 0.0
H3941 H 0.7058 0.93201 0.04053 0.0
C3942 C 0.68541 0.94371 0.06234 0.0
C3943 C 0.69403 0.94175 0.04031 0.0
C3944 C 0.69612 0.94451 0.0253 0.0
C3945 C 0.69132 0.93709 0.0686 0.0
C3946 C 0.69895 0.93305 0.06066 0.0
C3947 C 0.69994 0.93514 0.04658 0.0
C3948 C 0.70656 0.92725 0.06683 0.0
C3949 C 0.68936 0.93451 0.08365 0.0
C3950 C 0.71699 0.93487 0.07625 0.0
C3951 C 0.72489 0.92985 0.08126 0.0
C3952 C 0.72247 0.9171 0.07695 0.0
C3953 C 0.71196 0.90947 0.06759 0.0
C3954 C 0.70408 0.9145 0.06257 0.0
H3955 H 0.68027 0.93457 0.08737 0.0
H3956 H 0.68837 0.92468 0.08611 0.0
H3957 H 0.69827 0.9426 0.08924 0.0
H3958 H 0.7193 0.94489 0.0794 0.0
H3959 H 0.73312 0.93608 0.08822 0.0
H3960 H 0.01233 0.70377 0.04422 0.0
H3961 H 0.02691 0.72645 0.05351 0.0
H3962 H 0.06127 0.72819 0.03385 0.0
H3963 H 0.04662 0.70537 0.02428 0.0
H3964 H 0.04973 0.73609 0.07056 0.0
H3965 H 0.06218 0.76252 0.02113 0.0
H3966 H 0.04848 0.74536 0.02283 0.0
H3967 H 0.06561 0.74902 0.02252 0.0
C3968 C 0.02298 0.70895 0.04182 0.0
C3969 C 0.02831 0.70279 0.03345 0.0
C3970 C 0.0313 0.72191 0.04719 0.0
C3971 C 0.04513 0.72904 0.04428 0.0
C3972 C 0.05057 0.72291 0.03605 0.0
H3973 H 0.10156 0.81384 0.06561 0.0
H3974 H 0.09257 0.79031 0.05833 0.0
C3975 C 0.04221 0.70988 0.03064 0.0
C3976 C 0.05364 0.7429 0.04991 0.0
H3977 H 0.07106 0.77597 0.04092 0.0
C3978 C 0.05451 0.74482 0.06409 0.0
C3979 C 0.05989 0.75425 0.04143 0.0
C3980 C 0.05896 0.75278 0.02613 0.0
C3981 C 0.06123 0.7578 0.07004 0.0
C3982 C 0.06702 0.76915 0.06156 0.0
C3983 C 0.06659 0.76724 0.04739 0.0
C3984 C 0.07285 0.78309 0.0671 0.0
C3985 C 0.06199 0.75924 0.08534 0.0
C3986 C 0.06475 0.78682 0.07446 0.0
C3987 C 0.06987 0.80022 0.07866 0.0
C3988 C 0.08319 0.81014 0.07555 0.0
C3989 C 0.09133 0.80636 0.0683 0.0
C3990 C 0.0862 0.79295 0.06412 0.0
H3991 H 0.06091 0.7501 0.09017 0.0
H3992 H 0.07169 0.76815 0.08875 0.0
H3993 H 0.05362 0.76059 0.08901 0.0
H3994 H 0.05431 0.77944 0.07656 0.0
H3995 H 0.06332 0.80291 0.084 0.0
H3996 H 0.31242 0.32488 0.02541 0.0
H3997 H 0.29066 0.31208 0.03686 0.0
H3998 H 0.28918 0.34845 0.04266 0.0
H3999 H 0.31095 0.36141 0.03128 0.0
H4000 H 0.28273 0.32267 0.06666 0.0
H4001 H 0.25397 0.3144 0.01838 0.0
H4002 H 0.27018 0.31547 0.0184 0.0
H4003 H 0.26925 0.33031 0.02175 0.0
C4004 C 0.30754 0.33021 0.0292 0.0
C4005 C 0.31342 0.34418 0.02737 0.0
C4006 C 0.29514 0.32287 0.03577 0.0
C4007 C 0.28841 0.32937 0.04057 0.0
C4008 C 0.29431 0.34332 0.03903 0.0
H4009 H 0.20535 0.2975 0.06409 0.0
H4010 H 0.22881 0.31186 0.0571 0.0
C4011 C 0.30673 0.35068 0.0325 0.0
C4012 C 0.27485 0.32146 0.04655 0.0
H4013 H 0.24141 0.3053 0.0382 0.0
C4014 C 0.27366 0.31885 0.0605 0.0
C4015 C 0.26313 0.31662 0.03843 0.0
C4016 C 0.26405 0.31927 0.02338 0.0
C4017 C 0.26092 0.3115 0.0666 0.0
C4018 C 0.24914 0.30647 0.05844 0.0
C4019 C 0.25042 0.30916 0.04446 0.0
C4020 C 0.23534 0.29836 0.06404 0.0
C4021 C 0.2602 0.30945 0.08176 0.0
C4022 C 0.23124 0.28606 0.07042 0.0
C4023 C 0.21786 0.27791 0.07457 0.0
C4024 C 0.2083 0.28182 0.0722 0.0
C4025 C 0.2125 0.29425 0.06606 0.0
C4026 C 0.22588 0.30244 0.06204 0.0
H4027 H 0.26967 0.31709 0.08697 0.0
H4028 H 0.25162 0.30997 0.08625 0.0
H4029 H 0.25872 0.29934 0.08379 0.0
H4030 H 0.23826 0.28255 0.0718 0.0
H4031 H 0.21486 0.26836 0.07924 0.0
H4032 H 0.67602 0.64707 0.36661 0.0
H4033 H 0.69025 0.64012 0.37802 0.0
H4034 H 0.72563 0.67825 0.36879 0.0
H4035 H 0.71145 0.68524 0.35714 0.0
H4036 H 0.72868 0.65606 0.36349 0.0
H4037 H 0.70835 0.65357 0.41521 0.0
H4038 H 0.69554 0.64382 0.4027 0.0
H4039 H 0.70539 0.66188 0.40141 0.0
C4040 C 0.68683 0.654 0.367 0.0
C4041 C 0.6926 0.66674 0.36103 0.0
C4042 C 0.69493 0.65004 0.37361 0.0
C4043 C 0.70896 0.65878 0.37449 0.0
C4044 C 0.7148 0.67141 0.36832 0.0
H4045 H 0.77241 0.64711 0.40889 0.0
H4046 H 0.76023 0.65709 0.39856 0.0
C4047 C 0.70669 0.67538 0.36167 0.0
C4048 C 0.7175 0.65456 0.38161 0.0
H4049 H 0.72192 0.64356 0.4121 0.0
C4050 C 0.72732 0.65346 0.37415 0.0
C4051 C 0.7157 0.65119 0.39553 0.0
C4052 C 0.70577 0.65279 0.40423 0.0
C4053 C 0.73505 0.64861 0.38012 0.0
C4054 C 0.73304 0.64497 0.39396 0.0
C4055 C 0.72341 0.64632 0.40148 0.0
C4056 C 0.74047 0.63927 0.4007 0.0
C4057 C 0.74496 0.64696 0.37144 0.0
C4058 C 0.73337 0.62611 0.40566 0.0
C4059 C 0.74028 0.62046 0.41168 0.0
C4060 C 0.75441 0.62794 0.41303 0.0
C4061 C 0.7615 0.64119 0.40817 0.0
C4062 C 0.75458 0.64684 0.40215 0.0
H4063 H 0.7431 0.64728 0.36041 0.0
H4064 H 0.75535 0.65529 0.37385 0.0
H4065 H 0.74445 0.63727 0.37354 0.0
H4066 H 0.72248 0.6201 0.40462 0.0
H4067 H 0.73458 0.61016 0.41513 0.0
H4068 H 0.31024 0.02554 0.38504 0.0
H4069 H 0.32368 0.04623 0.39853 0.0
H4070 H 0.36018 0.04747 0.38592 0.0
H4071 H 0.34684 0.02676 0.37233 0.0
H4072 H 0.34273 0.05038 0.42012 0.0
H4073 H 0.36645 0.08553 0.37718 0.0
H4074 H 0.35147 0.06909 0.375 0.0
H4075 H 0.36769 0.07058 0.37682 0.0
C4076 C 0.32113 0.03022 0.38506 0.0
C4077 C 0.32746 0.0245 0.37755 0.0
C4078 C 0.32878 0.04203 0.3928 0.0
C4079 C 0.3429 0.04842 0.3931 0.0
C4080 C 0.34929 0.04277 0.38566 0.0
H4081 H 0.40873 0.13193 0.42935 0.0
H4082 H 0.39505 0.10556 0.4162 0.0
C4083 C 0.34164 0.03091 0.37795 0.0
C4084 C 0.35088 0.06086 0.40143 0.0
H4085 H 0.37318 0.09467 0.39935 0.0
C4086 C 0.34939 0.06008 0.4156 0.0
C4087 C 0.35966 0.07343 0.39549 0.0
C4088 C 0.3614 0.07482 0.38028 0.0
C4089 C 0.35646 0.07158 0.42403 0.0
C4090 C 0.36493 0.08423 0.41805 0.0
C4091 C 0.36664 0.08496 0.4039 0.0
C4092 C 0.37187 0.09691 0.42611 0.0
C4093 C 0.35504 0.06988 0.43923 0.0
C4094 C 0.3624 0.1007 0.43827 0.0
C4095 C 0.37024 0.1166 0.44741 0.0
C4096 C 0.3873 0.12928 0.44117 0.0
C4097 C 0.39844 0.12454 0.4319 0.0
C4098 C 0.38966 0.10836 0.42329 0.0
H4099 H 0.35303 0.05975 0.4421 0.0
H4100 H 0.36422 0.07762 0.44475 0.0
H4101 H 0.34628 0.07069 0.44263 0.0
H4102 H 0.3518 0.09358 0.4398 0.0
H4103 H 0.36437 0.11943 0.45377 0.0
H4104 H 0.98194 0.32161 0.36269 0.0
H4105 H 0.96063 0.31377 0.37468 0.0
H4106 H 0.95656 0.27472 0.37933 0.0
H4107 H 0.97793 0.28252 0.36764 0.0
H4108 H 0.93547 0.29329 0.36785 0.0
H4109 H 0.95042 0.28334 0.41778 0.0
H4110 H 0.96258 0.29292 0.40486 0.0
H4111 H 0.95344 0.27476 0.40407 0.0
C4112 C 0.97655 0.31138 0.36633 0.0
C4113 C 0.98168 0.30272 0.36426 0.0
C4114 C 0.96438 0.30692 0.37319 0.0
C4115 C 0.95714 0.29375 0.37813 0.0
C4116 C 0.96216 0.28504 0.37593 0.0
H4117 H 0.87832 0.23925 0.40796 0.0
H4118 H 0.90129 0.25093 0.39895 0.0
C4119 C 0.97434 0.2895 0.36915 0.0
C4120 C 0.94404 0.28887 0.38504 0.0
H4121 H 0.92663 0.2734 0.41374 0.0
C4122 C 0.93359 0.28912 0.37796 0.0
C4123 C 0.94163 0.28349 0.39827 0.0
C4124 C 0.95266 0.28373 0.40674 0.0
C4125 C 0.92064 0.28361 0.38353 0.0
C4126 C 0.91813 0.27778 0.3965 0.0
C4127 C 0.92863 0.27784 0.40375 0.0
C4128 C 0.90446 0.27093 0.4024 0.0
C4129 C 0.90957 0.28363 0.37536 0.0
C4130 C 0.89875 0.27837 0.40738 0.0
C4131 C 0.88568 0.27173 0.41268 0.0
C4132 C 0.87818 0.25756 0.41313 0.0
C4133 C 0.88396 0.25017 0.40803 0.0
C4134 C 0.89704 0.25681 0.40285 0.0
H4135 H 0.9128 0.28722 0.36485 0.0
H4136 H 0.90055 0.27331 0.37483 0.0
H4137 H 0.90654 0.29033 0.38048 0.0
H4138 H 0.90437 0.28929 0.4071 0.0
H4139 H 0.88137 0.27765 0.41631 0.0
H4140 H 0.99672 0.34985 0.31059 0.0
H4141 H 0.9945 0.36741 0.29934 0.0
H4142 H 0.03258 0.39788 0.31677 0.0
H4143 H 0.03478 0.38044 0.32822 0.0
H4144 H 0.01263 0.40432 0.31912 0.0
H4145 H 0.01558 0.38858 0.26612 0.0
H4146 H 0.00266 0.3755 0.27619 0.0
H4147 H 0.02012 0.38236 0.28066 0.0
C4148 C 0.00462 0.36029 0.31203 0.0
C4149 C 0.01595 0.36376 0.32025 0.0
C4150 C 0.00337 0.3703 0.30553 0.0
C4151 C 0.01349 0.38391 0.30704 0.0
C4152 C 0.0247 0.38741 0.31541 0.0
H4153 H 0.02829 0.45304 0.2603 0.0
H4154 H 0.02889 0.43412 0.2706 0.0
C4155 C 0.02593 0.37744 0.32194 0.0
C4156 C 0.01234 0.39459 0.30012 0.0
H4157 H 0.01049 0.406 0.26886 0.0
C4158 C 0.01216 0.40469 0.30814 0.0
C4159 C 0.01189 0.39512 0.28578 0.0
C4160 C 0.0127 0.38489 0.27665 0.0
C4161 C 0.01145 0.41529 0.3022 0.0
C4162 C 0.01067 0.41564 0.28788 0.0
C4163 C 0.01096 0.40561 0.27985 0.0
C4164 C 0.00988 0.42656 0.28106 0.0
C4165 C 0.01185 0.42618 0.31131 0.0
C4166 C -0.00112 0.42839 0.28334 0.0
C4167 C 0.99853 0.43916 0.2775 0.0
C4168 C 0.00909 0.44818 0.26912 0.0
C4169 C 0.01996 0.44615 0.26661 0.0
C4170 C 0.02032 0.43538 0.27248 0.0
H4171 H 0.01577 0.42621 0.32163 0.0
H4172 H 0.01826 0.43629 0.30687 0.0
H4173 H 0.00147 0.4244 0.3124 0.0
H4174 H 0.99064 0.42156 0.28977 0.0
H4175 H 0.99008 0.44054 0.27967 0.0
H4176 H 0.6516 0.63917 0.3179 0.0
H4177 H 0.64309 0.61869 0.30378 0.0
H4178 H 0.60914 0.62221 0.29143 0.0
H4179 H 0.61755 0.64271 0.30545 0.0
H4180 H 0.61708 0.59443 0.30562 0.0
H4181 H 0.62541 0.61823 0.25518 0.0
H4182 H 0.63364 0.62776 0.27051 0.0
H4183 H 0.61632 0.62258 0.26711 0.0
C4184 C 0.64235 0.63564 0.31215 0.0
C4185 C 0.63528 0.64262 0.31278 0.0
C4186 C 0.63751 0.62392 0.3041 0.0
C4187 C 0.6256 0.61907 0.29644 0.0
C4188 C 0.61848 0.62595 0.29709 0.0
H4189 H 0.57601 0.55009 0.23363 0.0
H4190 H 0.58815 0.57433 0.25053 0.0
C4191 C 0.62327 0.63762 0.30517 0.0
C4192 C 0.62039 0.60657 0.28807 0.0
H4193 H 0.61281 0.59436 0.25545 0.0
C4194 C 0.61623 0.59438 0.29464 0.0
C4195 C 0.61923 0.60659 0.27377 0.0
C4196 C 0.62398 0.61949 0.26617 0.0
C4197 C 0.61057 0.5821 0.28731 0.0
C4198 C 0.6094 0.58211 0.27298 0.0
C4199 C 0.61367 0.59434 0.26642 0.0
C4200 C 0.60363 0.56965 0.26453 0.0
C4201 C 0.60537 0.56925 0.29511 0.0
C4202 C 0.61006 0.55832 0.26626 0.0
C4203 C 0.6035 0.54328 0.25577 0.0
C4204 C 0.58824 0.53925 0.24559 0.0
C4205 C 0.58412 0.55229 0.24066 0.0
C4206 C 0.59129 0.56701 0.25166 0.0
H4207 H 0.60333 0.57061 0.30589 0.0
H4208 H 0.59592 0.56097 0.29049 0.0
H4209 H 0.61309 0.56621 0.29508 0.0
H4210 H 0.61806 0.56066 0.27346 0.0
H4211 H 0.60646 0.53589 0.25747 0.0
H4212 H 0.35951 0.00908 0.32053 0.0
H4213 H 0.37883 0.01062 0.3084 0.0
H4214 H 0.37195 0.97421 0.32735 0.0
H4215 H 0.35273 0.97266 0.33962 0.0
H4216 H 0.39913 0.99507 0.32756 0.0
H4217 H 0.37605 0.98605 0.27601 0.0
H4218 H 0.37639 -0.00038 0.28565 0.0
H4219 H 0.3663 0.98261 0.29138 0.0
C4220 C 0.36214 0.00143 0.32216 0.0
C4221 C 0.35456 0.99071 0.33099 0.0
C4222 C 0.37312 0.00228 0.31515 0.0
C4223 C 0.37666 0.9924 0.31682 0.0
C4224 C 0.36932 0.98189 0.32587 0.0
H4225 H 0.42755 0.97318 0.26815 0.0
H4226 H 0.40878 0.97356 0.27958 0.0
C4227 C 0.35834 0.98102 0.33287 0.0
C4228 C 0.38805 0.99301 0.30919 0.0
H4229 H 0.39881 0.99142 0.27719 0.0
C4230 C 0.39909 0.9943 0.31655 0.0
C4231 C 0.38785 0.99183 0.29484 0.0
C4232 C 0.37598 0.98983 0.28647 0.0
C4233 C 0.41 0.99452 0.30992 0.0
C4234 C 0.40993 0.99362 0.29556 0.0
C4235 C 0.39886 0.99223 0.28819 0.0
C4236 C 0.42114 0.99374 0.28803 0.0
C4237 C 0.42136 0.99541 0.31838 0.0
C4238 C 0.43422 0.00506 0.28879 0.0
C4239 C 0.44491 0.00485 0.2823 0.0
C4240 C 0.44269 0.99339 0.27478 0.0
C4241 C 0.42951 0.98219 0.27377 0.0
C4242 C 0.41881 0.98239 0.28029 0.0
H4243 H 0.41837 0.99277 0.32914 0.0
H4244 H 0.42472 0.9886 0.31418 0.0
H4245 H 0.43008 0.00589 0.31824 0.0
H4246 H 0.43617 0.01399 0.29455 0.0
H4247 H 0.45498 0.01359 0.28332 0.0
H4248 H 0.6497 -0.00015 0.32538 0.0
H4249 H 0.63765 0.00875 0.31282 0.0
H4250 H 0.60707 0.96831 0.3009 0.0
H4251 H 0.61897 0.95929 0.31335 0.0
H4252 H 0.6165 0.98861 0.27945 0.0
H4253 H 0.60085 0.00331 0.32729 0.0
H4254 H 0.61858 0.00935 0.32539 0.0
H4255 H 0.6069 0.99161 0.32701 0.0
C4256 C 0.64047 0.99285 0.31999 0.0
C4257 C 0.63523 0.97885 0.32048 0.0
C4258 C 0.6336 0.99796 0.31286 0.0
C4259 C 0.62143 0.98916 0.30607 0.0
C4260 C 0.61645 0.97524 0.30611 0.0
H4261 H 0.55398 0.99628 0.28229 0.0
H4262 H 0.56975 0.98982 0.29098 0.0
C4263 C 0.62325 0.97012 0.31328 0.0
C4264 C 0.61344 0.9943 0.29951 0.0
H4265 H 0.59351 0.00758 0.30669 0.0
C4266 C 0.61156 0.99287 0.28535 0.0
C4267 C 0.60691 -0.0003 0.30732 0.0
C4268 C 0.60828 0.00103 0.32261 0.0
C4269 C 0.60319 0.99664 0.27878 0.0
C4270 C 0.59661 0.00197 0.28661 0.0
C4271 C 0.59862 0.00352 0.30074 0.0
C4272 C 0.58707 0.00543 0.28048 0.0
C4273 C 0.60108 0.99451 0.2636 0.0
C4274 C 0.59162 0.01633 0.27168 0.0
C4275 C 0.58262 0.02002 0.26668 0.0
C4276 C 0.56892 0.01281 0.27036 0.0
C4277 C 0.56442 0.00186 0.27911 0.0
C4278 C 0.57341 0.9982 0.28412 0.0
H4279 H 0.60503 0.98818 0.2594 0.0
H4280 H 0.59019 0.98964 0.26099 0.0
H4281 H 0.60642 0.00443 0.25858 0.0
H4282 H 0.60218 0.02218 0.26897 0.0
H4283 H 0.5864 0.02868 0.26018 0.0
H4284 H 0.99138 0.64778 0.3157 0.0
H4285 H 0.9881 0.62869 0.30145 0.0
H4286 H 0.02995 0.64086 0.30737 0.0
H4287 H 0.03317 0.65964 0.32196 0.0
H4288 H -0.00027 0.62985 0.27793 0.0
H4289 H 0.01253 0.60122 0.31318 0.0
H4290 H 0.00949 0.61437 0.31904 0.0
H4291 H 0.02584 0.61851 0.31271 0.0
C4292 C -0.00018 0.64624 0.31415 0.0
C4293 C 0.01253 0.65519 0.31997 0.0
C4294 C 0.99793 0.63533 0.306 0.0
C4295 C 0.00871 0.63319 0.30351 0.0
C4296 C 0.02137 0.64204 0.30946 0.0
H4297 H 0.03747 0.58959 0.24723 0.0
H4298 H 0.03334 0.60627 0.26663 0.0
C4299 C 0.02323 0.65285 0.31773 0.0
C4300 C 0.00712 0.6225 0.29373 0.0
H4301 H 0.01413 0.59726 0.28921 0.0
C4302 C 0.00262 0.62254 0.28047 0.0
C4303 C 0.01085 0.61294 0.29705 0.0
C4304 C 0.0148 0.61166 0.31132 0.0
C4305 C 0.00246 0.61378 0.27027 0.0
C4306 C 0.00681 0.6047 0.27348 0.0
C4307 C 0.01086 0.60432 0.2868 0.0
C4308 C 0.00831 0.5963 0.26302 0.0
C4309 C 0.99832 0.61486 0.25601 0.0
C4310 C 0.99404 0.58464 0.25258 0.0
C4311 C 0.9958 0.57429 0.23975 0.0
C4312 C 0.01218 0.57465 0.24039 0.0
C4313 C 0.0278 0.58898 0.24799 0.0
C4314 C 0.02496 0.59881 0.26051 0.0
H4315 H 0.9986 0.62453 0.25453 0.0
H4316 H 0.00497 0.61401 0.24835 0.0
H4317 H 0.98783 0.60652 0.25407 0.0
H4318 H 0.9843 0.5837 0.25413 0.0
H4319 H 0.98713 0.5665 0.23421 0.0
H4320 H 0.3596 0.38576 0.31812 0.0
H4321 H 0.38136 0.39524 0.30665 0.0
H4322 H 0.37963 0.3571 0.30925 0.0
H4323 H 0.35787 0.34748 0.32082 0.0
H4324 H 0.40513 0.39488 0.31882 0.0
H4325 H 0.38861 0.36933 0.26805 0.0
H4326 H 0.37739 0.37163 0.27917 0.0
H4327 H 0.38176 0.35915 0.2829 0.0
C4328 C 0.36377 0.37933 0.31617 0.0
C4329 C 0.35699 0.36585 0.32042 0.0
C4330 C 0.3762 0.38477 0.30961 0.0
C4331 C 0.382 0.37682 0.30702 0.0
C4332 C 0.37521 0.36333 0.31104 0.0
H4333 H 0.45808 0.39472 0.27001 0.0
H4334 H 0.43498 0.38356 0.27883 0.0
C4335 C 0.36281 0.35789 0.3177 0.0
C4336 C 0.39553 0.38292 0.30082 0.0
H4337 H 0.41207 0.38337 0.27179 0.0
C4338 C 0.40668 0.39241 0.30853 0.0
C4339 C 0.39745 0.3795 0.28747 0.0
C4340 C 0.3857 0.3694 0.27881 0.0
C4341 C 0.41979 0.39857 0.30328 0.0
C4342 C 0.42173 0.39547 0.28976 0.0
C4343 C 0.41056 0.38582 0.2821 0.0
C4344 C 0.4353 0.40215 0.28348 0.0
C4345 C 0.43145 0.40811 0.3124 0.0
C4346 C 0.44296 0.41627 0.28271 0.0
C4347 C 0.45618 0.42264 0.27789 0.0
C4348 C 0.46193 0.41501 0.27354 0.0
C4349 C 0.45397 0.40084 0.27352 0.0
C4350 C 0.44077 0.39447 0.2785 0.0
H4351 H 0.42876 0.40624 0.32332 0.0
H4352 H 0.44045 0.40716 0.31054 0.0
H4353 H 0.43419 0.41864 0.31034 0.0
H4354 H 0.43879 0.42238 0.28608 0.0
H4355 H 0.462 0.43356 0.27783 0.0
H4356 H 0.31812 0.28962 0.35684 0.0
H4357 H 0.32681 0.27626 0.3671 0.0
H4358 H 0.35919 0.31231 0.38606 0.0
H4359 H 0.3506 0.32569 0.37592 0.0
H4360 H 0.35329 0.28011 0.36358 0.0
H4361 H 0.34279 0.28561 0.41771 0.0
H4362 H 0.33472 0.28892 0.40381 0.0
H4363 H 0.35173 0.3012 0.40877 0.0
C4364 C 0.32704 0.29468 0.36325 0.0
C4365 C 0.33365 0.30871 0.36559 0.0
C4366 C 0.33199 0.28704 0.3691 0.0
C4367 C 0.34352 0.29328 0.37749 0.0
C4368 C 0.35013 0.30727 0.37982 0.0
H4369 H 0.39511 0.27042 0.41821 0.0
H4370 H 0.38358 0.28184 0.40972 0.0
C4371 C 0.34525 0.31491 0.37395 0.0
C4372 C 0.34904 0.28532 0.38335 0.0
H4373 H 0.35689 0.27644 0.41341 0.0
C4374 C 0.35396 0.27918 0.37447 0.0
C4375 C 0.34997 0.28422 0.39756 0.0
C4376 C 0.34443 0.29023 0.40755 0.0
C4377 C 0.36013 0.27226 0.37942 0.0
C4378 C 0.36114 0.27123 0.39364 0.0
C4379 C 0.3561 0.27725 0.40252 0.0
C4380 C 0.3676 0.2641 0.39945 0.0
C4381 C 0.36591 0.26651 0.36939 0.0
C4382 C 0.36226 0.25029 0.39675 0.0
C4383 C 0.36881 0.24377 0.40158 0.0
C4384 C 0.38072 0.2509 0.40937 0.0
C4385 C 0.38586 0.26466 0.41237 0.0
C4386 C 0.37931 0.27118 0.4075 0.0
H4387 H 0.3673 0.27102 0.35919 0.0
H4388 H 0.37579 0.26819 0.37303 0.0
H4389 H 0.35887 0.25547 0.36825 0.0
H4390 H 0.35311 0.24459 0.39074 0.0
H4391 H 0.36468 0.23319 0.39904 0.0
H4392 H 0.67634 0.0218 0.3725 0.0
H4393 H 0.68939 0.04506 0.38108 0.0
H4394 H 0.72626 0.04694 0.36873 0.0
H4395 H 0.71325 0.02365 0.35997 0.0
H4396 H 0.7103 0.05645 0.40107 0.0
H4397 H 0.72803 0.07979 0.35055 0.0
H4398 H 0.71429 0.06266 0.35241 0.0
H4399 H 0.73144 0.06663 0.35444 0.0
C4400 C 0.68722 0.02715 0.37158 0.0
C4401 C 0.69376 0.0209 0.36548 0.0
C4402 C 0.69467 0.04043 0.37653 0.0
C4403 C 0.70877 0.04776 0.3754 0.0
C4404 C 0.71536 0.04152 0.3695 0.0
H4405 H 0.76771 0.13197 0.39381 0.0
H4406 H 0.75674 0.10784 0.3882 0.0
C4407 C 0.70792 0.0282 0.36455 0.0
C4408 C 0.7165 0.06197 0.38037 0.0
H4409 H 0.73632 0.09433 0.36978 0.0
C4410 C 0.71602 0.06475 0.39425 0.0
C4411 C 0.72394 0.07275 0.37144 0.0
C4412 C 0.72442 0.07039 0.35636 0.0
C4413 C 0.72286 0.07805 0.39947 0.0
C4414 C 0.73015 0.08884 0.39051 0.0
C4415 C 0.73075 0.08603 0.37665 0.0
C4416 C 0.73699 0.10317 0.39514 0.0
C4417 C 0.72236 0.08039 0.41455 0.0
C4418 C 0.72955 0.10855 0.40098 0.0
C4419 C 0.73582 0.12231 0.40428 0.0
C4420 C 0.74964 0.13096 0.40172 0.0
C4421 C 0.75709 0.12552 0.39604 0.0
C4422 C 0.75083 0.11176 0.39279 0.0
H4423 H 0.71986 0.07124 0.42039 0.0
H4424 H 0.73214 0.08891 0.41836 0.0
H4425 H 0.7144 0.0829 0.41658 0.0
H4426 H 0.71879 0.10219 0.40257 0.0
H4427 H 0.72981 0.12629 0.40845 0.0
H4428 H 0.97607 0.69842 0.36972 0.0
H4429 H 0.95384 0.68443 0.37982 0.0
H4430 H 0.95809 0.64949 0.37566 0.0
H4431 H 0.98037 0.66337 0.36541 0.0
H4432 H 0.93168 0.65854 0.36505 0.0
H4433 H 0.94619 0.65184 0.41708 0.0
H4434 H 0.95717 0.66634 0.40702 0.0
H4435 H 0.95494 0.65016 0.40263 0.0
C4436 C 0.97236 0.68779 0.37103 0.0
C4437 C 0.98 0.68201 0.36672 0.0
C4438 C 0.95966 0.67983 0.37681 0.0
C4439 C 0.95443 0.666 0.37855 0.0
C4440 C 0.96206 0.6602 0.3745 0.0
H4441 H 0.87754 0.60398 0.41147 0.0
H4442 H 0.90107 0.61711 0.40399 0.0
C4443 C 0.97475 0.66814 0.36861 0.0
C4444 C 0.94062 0.65754 0.38383 0.0
H4445 H 0.92292 0.64122 0.41205 0.0
C4446 C 0.92972 0.65473 0.37532 0.0
C4447 C 0.9382 0.65249 0.39716 0.0
C4448 C 0.94969 0.65534 0.4066 0.0
C4449 C 0.91637 0.64698 0.37979 0.0
C4450 C 0.9139 0.64229 0.3933 0.0
C4451 C 0.92483 0.64492 0.40175 0.0
C4452 C 0.90001 0.63472 0.3988 0.0
C4453 C 0.90505 0.6437 0.36989 0.0
C4454 C 0.89177 0.64044 0.39881 0.0
C4455 C 0.87833 0.63291 0.40288 0.0
C4456 C 0.87292 0.6196 0.40725 0.0
C4457 C 0.88141 0.61416 0.40799 0.0
C4458 C 0.89484 0.62166 0.40376 0.0
H4459 H 0.90842 0.64444 0.35918 0.0
H4460 H 0.89633 0.63339 0.37144 0.0
H4461 H 0.9016 0.65103 0.37144 0.0
H4462 H 0.89567 0.65065 0.39542 0.0
H4463 H 0.87208 0.63743 0.40237 0.0
H4464 H 0.35167 0.99709 0.70938 0.0
H4465 H 0.36996 0.99751 0.72244 0.0
H4466 H 0.39899 0.02534 0.69404 0.0
H4467 H 0.38083 0.02528 0.68119 0.0
H4468 H 0.38885 0.99103 0.71646 0.0
H4469 H 0.41381 0.04542 0.72968 0.0
H4470 H 0.39716 0.03621 0.72215 0.0
H4471 H 0.41192 0.04244 0.71165 0.0
C4472 C 0.36195 0.00325 0.70589 0.0
C4473 C 0.36483 0.01127 0.69433 0.0
C4474 C 0.37239 0.00349 0.71337 0.0
C4475 C 0.38588 0.01171 0.70941 0.0
C4476 C 0.3887 0.01923 0.69752 0.0
H4477 H 0.45617 0.00811 0.73122 0.0
H4478 H 0.43501 0.00456 0.72166 0.0
C4479 C 0.3783 0.01911 0.69012 0.0
C4480 C 0.39702 0.0125 0.7177 0.0
H4481 H 0.42681 0.03489 0.73334 0.0
C4482 C 0.3971 0.0006 0.72027 0.0
C4483 C 0.4076 0.02494 0.72298 0.0
C4484 C 0.40756 0.03795 0.72161 0.0
C4485 C 0.40776 0.00087 0.72748 0.0
C4486 C 0.41881 0.01344 0.73191 0.0
C4487 C 0.41845 0.02527 0.72981 0.0
C4488 C 0.43111 0.01469 0.73826 0.0
C4489 C 0.40699 0.98768 0.73036 0.0
C4490 C 0.43619 0.02187 0.7506 0.0
C4491 C 0.44844 0.02413 0.75595 0.0
C4492 C 0.45574 0.01906 0.74914 0.0
C4493 C 0.45058 0.01181 0.73684 0.0
C4494 C 0.43844 0.00971 0.73142 0.0
H4495 H 0.39634 0.97924 0.73068 0.0
H4496 H 0.41209 0.98534 0.72208 0.0
H4497 H 0.41199 0.98816 0.74016 0.0
H4498 H 0.43081 0.02597 0.75598 0.0
H4499 H 0.45229 0.03004 0.76528 0.0
H4500 H 0.00487 0.35543 0.69771 0.0
H4501 H 0.01223 0.3747 0.71345 0.0
H4502 H 0.97081 0.36046 0.72405 0.0
H4503 H 0.96333 0.34123 0.7084 0.0
H4504 H 0.00315 0.39433 0.71234 0.0
H4505 H 0.99118 0.36718 0.76118 0.0
H4506 H 0.99339 0.36018 0.74547 0.0
H4507 H 0.97794 0.36004 0.74856 0.0
C4508 C 0.99733 0.35635 0.70345 0.0
C4509 C 0.98351 0.34679 0.70179 0.0
C4510 C 0.00156 0.36736 0.71242 0.0
C4511 C 0.99206 0.36887 0.71999 0.0
C4512 C 0.97829 0.35934 0.71842 0.0
H4513 H 0.99077 0.42687 0.78572 0.0
H4514 H 0.98504 0.40441 0.76766 0.0
C4515 C 0.97404 0.3484 0.70941 0.0
C4516 C 0.99642 0.38073 0.7291 0.0
H4517 H 0.99675 0.39002 0.76228 0.0
C4518 C 0.00191 0.39346 0.72328 0.0
C4519 C 0.9946 0.37945 0.74332 0.0
C4520 C 0.98905 0.366 0.75007 0.0
C4521 C 0.00532 0.40498 0.7313 0.0
C4522 C 0.00351 0.40371 0.74554 0.0
C4523 C 0.99811 0.39097 0.75136 0.0
C4524 C 0.00694 0.41535 0.75465 0.0
C4525 C 0.01012 0.41819 0.72429 0.0
C4526 C 0.02361 0.43017 0.75398 0.0
C4527 C 0.02827 0.4444 0.76522 0.0
C4528 C 0.01402 0.44355 0.77502 0.0
C4529 C 0.99836 0.42734 0.77888 0.0
C4530 C 0.99469 0.41368 0.76718 0.0
H4531 H 0.00728 0.41662 0.71333 0.0
H4532 H 0.00581 0.42391 0.7291 0.0
H4533 H 0.02129 0.42436 0.72495 0.0
H4534 H 0.03098 0.43048 0.74694 0.0
H4535 H 0.03779 0.45373 0.76414 0.0
H4536 H 0.64641 0.65487 0.7021 0.0
H4537 H 0.62594 0.6455 0.71583 0.0
H4538 H 0.61871 0.60537 0.70804 0.0
H4539 H 0.6394 0.6147 0.69475 0.0
H4540 H 0.60064 0.62907 0.70844 0.0
H4541 H 0.61352 0.60414 0.7483 0.0
H4542 H 0.62593 0.61587 0.73666 0.0
H4543 H 0.61488 0.59848 0.7316 0.0
C4544 C 0.64051 0.64406 0.7034 0.0
C4545 C 0.64455 0.63553 0.69738 0.0
C4546 C 0.62883 0.63872 0.71127 0.0
C4547 C 0.62092 0.62475 0.71321 0.0
C4548 C 0.62486 0.61621 0.70708 0.0
H4549 H 0.5369 0.57596 0.73096 0.0
H4550 H 0.55951 0.58773 0.72143 0.0
C4551 C 0.63664 0.62155 0.69937 0.0
C4552 C 0.60811 0.61904 0.7209 0.0
H4553 H 0.59004 0.59723 0.74616 0.0
C4554 C 0.59841 0.62223 0.71679 0.0
C4555 C 0.60523 0.61024 0.73193 0.0
C4556 C 0.61551 0.6071 0.73747 0.0
C4557 C 0.58575 0.61647 0.72303 0.0
C4558 C 0.58262 0.6071 0.73349 0.0
C4559 C 0.59245 0.60428 0.73799 0.0
C4560 C 0.56901 0.59984 0.73952 0.0
C4561 C 0.57574 0.62035 0.71835 0.0
C4562 C 0.56696 0.60257 0.75297 0.0
C4563 C 0.55395 0.59606 0.7584 0.0
C4564 C 0.54278 0.5867 0.7505 0.0
C4565 C 0.54507 0.58348 0.73723 0.0
C4566 C 0.55804 0.59014 0.73175 0.0
H4567 H 0.58068 0.6298 0.71246 0.0
H4568 H 0.568 0.61215 0.71174 0.0
H4569 H 0.57049 0.62173 0.72718 0.0
H4570 H 0.57538 0.60989 0.75917 0.0
H4571 H 0.55258 0.59842 0.76878 0.0
H4572 H 0.67945 0.71163 0.66669 0.0
H4573 H 0.67165 0.72594 0.65705 0.0
H4574 H 0.64688 0.69427 0.62807 0.0
H4575 H 0.65417 0.67975 0.63802 0.0
H4576 H 0.6744 0.73598 0.63279 0.0
H4577 H 0.61978 0.70304 0.64227 0.0
H4578 H 0.63225 0.69991 0.64956 0.0
H4579 H 0.62633 0.69449 0.63236 0.0
C4580 C 0.67225 0.70769 0.65834 0.0
C4581 C 0.66733 0.69453 0.65319 0.0
C4582 C 0.66781 0.71588 0.65283 0.0
C4583 C 0.65845 0.7111 0.64201 0.0
C4584 C 0.65376 0.69805 0.63669 0.0
H4585 H 0.64679 0.76399 0.58871 0.0
H4586 H 0.65346 0.74905 0.59877 0.0
C4587 C 0.65802 0.68979 0.64233 0.0
C4588 C 0.65396 0.71992 0.636 0.0
H4589 H 0.62596 0.72106 0.6269 0.0
C4590 C 0.6638 0.73276 0.6316 0.0
C4591 C 0.64014 0.71582 0.63462 0.0
C4592 C 0.62903 0.70262 0.64009 0.0
C4593 C 0.66023 0.74152 0.62571 0.0
C4594 C 0.6464 0.73714 0.62368 0.0
C4595 C 0.63656 0.72437 0.62826 0.0
C4596 C 0.64189 0.74574 0.61718 0.0
C4597 C 0.67135 0.7555 0.62205 0.0
C4598 C 0.63263 0.74835 0.62384 0.0
C4599 C 0.62843 0.75652 0.61788 0.0
C4600 C 0.63341 0.76232 0.60516 0.0
C4601 C 0.64263 0.75962 0.59846 0.0
C4602 C 0.64662 0.75122 0.6043 0.0
H4603 H 0.68068 0.75867 0.6281 0.0
H4604 H 0.6739 0.75554 0.61116 0.0
H4605 H 0.66822 0.76307 0.62375 0.0
H4606 H 0.6288 0.74422 0.63376 0.0
H4607 H 0.62142 0.75853 0.62332 0.0
H4608 H 0.28376 0.97391 0.64136 0.0
H4609 H 0.27587 0.95305 0.62815 0.0
H4610 H 0.31196 0.95271 0.63896 0.0
H4611 H 0.31998 0.97362 0.65231 0.0
H4612 H 0.28986 0.94901 0.6058 0.0
H4613 H 0.28041 0.91447 0.64869 0.0
H4614 H 0.28201 0.9308 0.65114 0.0
H4615 H 0.29676 0.92958 0.64828 0.0
C4616 C 0.29002 0.9694 0.64102 0.0
C4617 C 0.30251 0.97544 0.64795 0.0
C4618 C 0.28549 0.95748 0.63344 0.0
C4619 C 0.29327 0.9513 0.63269 0.0
C4620 C 0.30572 0.95725 0.63958 0.0
H4621 H 0.27321 0.86781 0.59546 0.0
H4622 H 0.28673 0.89421 0.60854 0.0
C4623 C 0.31031 0.96922 0.64715 0.0
C4624 C 0.28841 0.9388 0.6244 0.0
H4625 H 0.27668 0.90508 0.62652 0.0
C4626 C 0.28696 0.93939 0.61032 0.0
C4627 C 0.28483 0.92634 0.63032 0.0
C4628 C 0.28597 0.92514 0.64545 0.0
C4629 C 0.28196 0.9278 0.60196 0.0
C4630 C 0.27794 0.91525 0.60794 0.0
C4631 C 0.2797 0.91472 0.62198 0.0
C4632 C 0.27161 0.90248 0.59999 0.0
C4633 C 0.28145 0.92931 0.5868 0.0
C4634 C 0.25764 0.89847 0.58868 0.0
C4635 C 0.24903 0.88255 0.5796 0.0
C4636 C 0.25372 0.87007 0.5851 0.0
C4637 C 0.27018 0.87508 0.59337 0.0
C4638 C 0.2781 0.89126 0.60198 0.0
H4639 H 0.28955 0.93944 0.58358 0.0
H4640 H 0.28254 0.92156 0.58101 0.0
H4641 H 0.27165 0.92836 0.58405 0.0
H4642 H 0.25411 0.90547 0.58762 0.0
H4643 H 0.23995 0.87957 0.57377 0.0
H4644 H 0.03115 0.35364 0.65289 0.0
H4645 H 0.05351 0.3632 0.64272 0.0
H4646 H 0.05189 0.32524 0.64716 0.0
H4647 H 0.02959 0.31565 0.65758 0.0
H4648 H 0.07669 0.3474 0.65474 0.0
H4649 H 0.06053 0.35486 0.60414 0.0
H4650 H 0.0567 0.36276 0.61792 0.0
H4651 H 0.04864 0.34467 0.61699 0.0
C4652 C 0.03556 0.34733 0.65174 0.0
C4653 C 0.02856 0.33386 0.65596 0.0
C4654 C 0.0483 0.35278 0.64584 0.0
C4655 C 0.05423 0.34484 0.64391 0.0
C4656 C 0.04745 0.33151 0.64846 0.0
H4657 H 0.13023 0.35978 0.60869 0.0
H4658 H 0.10783 0.34946 0.61906 0.0
C4659 C 0.03471 0.32605 0.65442 0.0
C4660 C 0.06752 0.35046 0.63717 0.0
H4661 H 0.08413 0.36459 0.60772 0.0
C4662 C 0.07831 0.35108 0.64443 0.0
C4663 C 0.06959 0.35524 0.62371 0.0
C4664 C 0.05823 0.35425 0.61517 0.0
C4665 C 0.09122 0.35667 0.6387 0.0
C4666 C 0.0933 0.36156 0.62529 0.0
C4667 C 0.08249 0.36086 0.61801 0.0
C4668 C 0.10668 0.36762 0.61868 0.0
C4669 C 0.10258 0.35761 0.64718 0.0
C4670 C 0.11328 0.38113 0.61471 0.0
C4671 C 0.12599 0.38699 0.60866 0.0
C4672 C 0.13225 0.37939 0.6063 0.0
C4673 C 0.12556 0.36582 0.61021 0.0
C4674 C 0.11284 0.35996 0.61625 0.0
H4675 H 0.10014 0.35649 0.65819 0.0
H4676 H 0.10445 0.34941 0.64399 0.0
H4677 H 0.11205 0.3674 0.6457 0.0
H4678 H 0.10869 0.38721 0.61649 0.0
H4679 H 0.131 0.39752 0.60596 0.0
H4680 H 0.2884 0.3118 0.65079 0.0
H4681 H 0.28131 0.32555 0.63874 0.0
H4682 H 0.31744 0.36169 0.65236 0.0
H4683 H 0.32475 0.34804 0.66424 0.0
H4684 H 0.27629 0.34508 0.64868 0.0
H4685 H 0.31809 0.3667 0.61139 0.0
H4686 H 0.31456 0.35253 0.62178 0.0
H4687 H 0.32356 0.36939 0.62884 0.0
C4688 C 0.29487 0.32267 0.6512 0.0
C4689 C 0.30719 0.32881 0.65842 0.0
C4690 C 0.29079 0.33051 0.64432 0.0
C4691 C 0.29894 0.34463 0.64449 0.0
C4692 C 0.31114 0.3508 0.65185 0.0
H4693 H 0.27181 0.39945 0.61932 0.0
H4694 H 0.28019 0.3873 0.63248 0.0
C4695 C 0.31526 0.34297 0.65869 0.0
C4696 C 0.29457 0.35284 0.63708 0.0
H4697 H 0.30342 0.37547 0.61155 0.0
C4698 C 0.28221 0.35173 0.64056 0.0
C4699 C 0.30226 0.3614 0.6264 0.0
C4700 C 0.3153 0.36252 0.62177 0.0
C4701 C 0.27735 0.35899 0.63368 0.0
C4702 C 0.28518 0.36775 0.62319 0.0
C4703 C 0.29752 0.36884 0.61969 0.0
C4704 C 0.28046 0.37541 0.61531 0.0
C4705 C 0.26372 0.35693 0.63744 0.0
C4706 C 0.27823 0.37304 0.60126 0.0
C4707 C 0.27352 0.37999 0.59374 0.0
C4708 C 0.27091 0.38943 0.60016 0.0
C4709 C 0.2735 0.39206 0.61418 0.0
C4710 C 0.27824 0.3851 0.6217 0.0
H4711 H 0.25768 0.34762 0.64336 0.0
H4712 H 0.26515 0.36564 0.64377 0.0
H4713 H 0.25788 0.35631 0.6282 0.0
H4714 H 0.27999 0.36568 0.59612 0.0
H4715 H 0.27181 0.37792 0.58292 0.0
H4716 H 0.65197 0.98054 0.64237 0.0
H4717 H 0.64119 0.95755 0.63295 0.0
H4718 H 0.67706 0.95606 0.64184 0.0
H4719 H 0.68787 0.979 0.65146 0.0
H4720 H 0.64955 0.94741 0.61127 0.0
H4721 H 0.64707 0.92194 0.65949 0.0
H4722 H 0.65045 0.93904 0.65908 0.0
H4723 H 0.66363 0.93549 0.65533 0.0
C4724 C 0.65755 0.97531 0.64239 0.0
C4725 C 0.67075 0.98157 0.64775 0.0
C4726 C 0.65138 0.96218 0.63697 0.0
C4727 C 0.65826 0.95504 0.63685 0.0
C4728 C 0.67148 0.9613 0.64206 0.0
H4729 H 0.63747 0.87425 0.61163 0.0
H4730 H 0.64905 0.89799 0.61885 0.0
C4731 C 0.67766 0.97443 0.64751 0.0
C4732 C 0.65162 0.94109 0.63114 0.0
H4733 H 0.64105 0.90854 0.63933 0.0
C4734 C 0.64765 0.93888 0.61739 0.0
C4735 C 0.64915 0.93001 0.63916 0.0
C4736 C 0.65267 0.93166 0.65412 0.0
C4737 C 0.64149 0.92591 0.61138 0.0
C4738 C 0.63904 0.91483 0.61942 0.0
C4739 C 0.64299 0.91705 0.63317 0.0
C4740 C 0.63236 0.90081 0.61386 0.0
C4741 C 0.63795 0.92424 0.59644 0.0
C4742 C 0.61916 0.89452 0.60856 0.0
C4743 C 0.61257 0.88097 0.60431 0.0
C4744 C 0.61903 0.87344 0.6054 0.0
C4745 C 0.63229 0.87982 0.61056 0.0
C4746 C 0.63889 0.89337 0.61473 0.0
H4747 H 0.64377 0.93392 0.59102 0.0
H4748 H 0.63988 0.91665 0.59151 0.0
H4749 H 0.62706 0.92073 0.59524 0.0
H4750 H 0.6138 0.89996 0.6081 0.0
H4751 H 0.60229 0.87625 0.60054 0.0
H4752 H 0.02314 0.71895 0.64701 0.0
H4753 H 0.04518 0.72687 0.63666 0.0
H4754 H 0.04304 0.68957 0.64674 0.0
H4755 H 0.02105 0.6816 0.65728 0.0
H4756 H 0.06725 0.71218 0.65424 0.0
H4757 H 0.05455 0.71541 0.60061 0.0
H4758 H 0.04974 0.72423 0.61246 0.0
H4759 H 0.04182 0.70619 0.61321 0.0
C4760 C 0.02729 0.71237 0.64695 0.0
C4761 C 0.0203 0.69963 0.65298 0.0
C4762 C 0.03986 0.71689 0.64094 0.0
C4763 C 0.04565 0.70873 0.64074 0.0
C4764 C 0.0387 0.69599 0.6467 0.0
H4765 H 0.11923 0.72484 0.59857 0.0
H4766 H 0.09568 0.71503 0.60585 0.0
C4767 C 0.02613 0.69146 0.65273 0.0
C4768 C 0.0593 0.7138 0.63503 0.0
H4769 H 0.07801 0.72612 0.60623 0.0
C4770 C 0.06958 0.71513 0.64372 0.0
C4771 C 0.06228 0.71751 0.62126 0.0
C4772 C 0.0515 0.71565 0.61129 0.0
C4773 C 0.08285 0.72044 0.63911 0.0
C4774 C 0.08595 0.72469 0.62551 0.0
C4775 C 0.07561 0.72299 0.61669 0.0
C4776 C 0.09994 0.73106 0.62038 0.0
C4777 C 0.09344 0.7214 0.64883 0.0
C4778 C 0.11001 0.74346 0.62591 0.0
C4779 C 0.12339 0.74909 0.62174 0.0
C4780 C 0.12692 0.7425 0.61185 0.0
C4781 C 0.11675 0.73023 0.60607 0.0
C4782 C 0.10334 0.72461 0.61023 0.0
H4783 H 0.08885 0.71473 0.65768 0.0
H4784 H 0.10031 0.71867 0.64363 0.0
H4785 H 0.09959 0.73194 0.65274 0.0
H4786 H 0.10756 0.74867 0.63363 0.0
H4787 H 0.13105 0.75847 0.62646 0.0
H4788 H 0.96985 0.62247 0.68734 0.0
H4789 H 0.97331 0.60588 0.69899 0.0
H4790 H 0.00708 0.63796 0.72111 0.0
H4791 H 0.00386 0.65463 0.70932 0.0
H4792 H 0.0125 0.61894 0.71057 0.0
H4793 H 0.96389 0.5942 0.73824 0.0
H4794 H 0.96204 0.59464 0.72017 0.0
H4795 H 0.97029 0.61015 0.72995 0.0
C4796 C 0.978 0.62599 0.6947 0.0
C4797 C 0.98654 0.63985 0.69745 0.0
C4798 C 0.97991 0.61649 0.70141 0.0
C4799 C 0.99029 0.62068 0.7111 0.0
C4800 C -0.00105 0.63452 0.71373 0.0
H4801 H 0.01906 0.57863 0.76139 0.0
H4802 H 0.01546 0.59572 0.75093 0.0
C4803 C 0.99709 0.64402 0.70698 0.0
C4804 C 0.99234 0.61066 0.7183 0.0
H4805 H 0.97686 0.58347 0.739 0.0
C4806 C 0.00475 0.61123 0.71686 0.0
C4807 C 0.9822 0.60064 0.7265 0.0
C4808 C 0.9689 0.59991 0.72893 0.0
C4809 C 0.00719 0.60183 0.72315 0.0
C4810 C 0.99701 0.59175 0.73126 0.0
C4811 C 0.98463 0.59122 0.73276 0.0
C4812 C -0.0011 0.58145 0.73803 0.0
C4813 C 0.02051 0.60257 0.72078 0.0
C4814 C 0.99054 0.56777 0.73452 0.0
C4815 C 0.99247 0.55801 0.74057 0.0
C4816 C 0.0027 0.56174 0.75039 0.0
C4817 C 0.01098 0.57546 0.75399 0.0
C4818 C 0.00903 0.58522 0.74794 0.0
H4819 H 0.02583 0.60874 0.71181 0.0
H4820 H 0.02712 0.6073 0.72983 0.0
H4821 H 0.01903 0.59233 0.71924 0.0
H4822 H 0.98268 0.56467 0.72689 0.0
H4823 H 0.98608 0.54753 0.73746 0.0
H4824 H 0.34716 0.35913 0.71535 0.0
H4825 H 0.3608 0.38188 0.725 0.0
H4826 H 0.39611 0.3859 0.70523 0.0
H4827 H 0.38247 0.36307 0.6954 0.0
H4828 H 0.38467 0.39359 0.74178 0.0
H4829 H 0.39313 0.41818 0.69161 0.0
H4830 H 0.38031 0.40079 0.69412 0.0
H4831 H 0.39772 0.40548 0.69286 0.0
C4832 C 0.35785 0.36481 0.71309 0.0
C4833 C 0.36372 0.35933 0.70452 0.0
C4834 C 0.36563 0.3778 0.71865 0.0
C4835 C 0.37941 0.38561 0.7157 0.0
C4836 C 0.38543 0.38007 0.70747 0.0
H4837 H 0.43441 0.47127 0.73297 0.0
H4838 H 0.42535 0.4475 0.72669 0.0
C4839 C 0.37764 0.36702 0.70192 0.0
C4840 C 0.38726 0.39971 0.72091 0.0
H4841 H 0.40282 0.43241 0.71079 0.0
C4842 C 0.38873 0.4021 0.73502 0.0
C4843 C 0.39251 0.41076 0.71205 0.0
C4844 C 0.39079 0.40876 0.69682 0.0
C4845 C 0.39528 0.41528 0.74053 0.0
C4846 C 0.40024 0.42632 0.73167 0.0
C4847 C 0.39903 0.42393 0.71755 0.0
C4848 C 0.40622 0.44043 0.73675 0.0
C4849 C 0.39686 0.41727 0.75576 0.0
C4850 C 0.3985 0.44433 0.74455 0.0
C4851 C 0.40367 0.45789 0.74818 0.0
C4852 C 0.41667 0.46778 0.74407 0.0
C4853 C 0.42444 0.46382 0.73644 0.0
C4854 C 0.41927 0.45027 0.73282 0.0
H4855 H 0.39622 0.40838 0.76074 0.0
H4856 H 0.40666 0.42637 0.75857 0.0
H4857 H 0.38862 0.41863 0.75983 0.0
H4858 H 0.38827 0.43696 0.7474 0.0
H4859 H 0.39737 0.46071 0.75384 0.0
H4860 H 0.65168 0.00508 0.69122 0.0
H4861 H 0.63067 0.99713 0.7039 0.0
H4862 H 0.63931 0.03805 0.70853 0.0
H4863 H 0.66029 0.04613 0.69596 0.0
H4864 H 0.62685 0.00727 0.73214 0.0
H4865 H 0.60113 0.01469 0.68815 0.0
H4866 H 0.61562 0.01269 0.68616 0.0
H4867 H 0.61778 0.02838 0.69246 0.0
C4868 C 0.64916 0.01241 0.69501 0.0
C4869 C 0.65763 0.02624 0.69248 0.0
C4870 C 0.63719 0.00784 0.70228 0.0
C4871 C 0.63346 0.01702 0.70703 0.0
C4872 C 0.64202 0.03083 0.70485 0.0
H4873 H 0.56155 0.01176 0.73976 0.0
H4874 H 0.58416 0.01905 0.7312 0.0
C4875 C 0.654 0.03541 0.69766 0.0
C4876 C 0.62034 0.01219 0.71376 0.0
H4877 H 0.58942 0.00873 0.70891 0.0
C4878 C 0.6186 0.00751 0.72709 0.0
C4879 C 0.6097 0.01258 0.70709 0.0
C4880 C 0.61103 0.01726 0.69264 0.0
C4881 C 0.60652 0.00349 0.73411 0.0
C4882 C 0.59586 0.00393 0.72745 0.0
C4883 C 0.59761 0.00847 0.71403 0.0
C4884 C 0.58278 -0.00019 0.7341 0.0
C4885 C 0.60544 0.99921 0.74869 0.0
C4886 C 0.57456 0.98663 0.73876 0.0
C4887 C 0.56168 0.98248 0.74381 0.0
C4888 C 0.55673 0.9914 0.74405 0.0
C4889 C 0.5651 0.00467 0.73968 0.0
C4890 C 0.578 0.00884 0.73477 0.0
H4891 H 0.61554 0.00305 0.7534 0.0
H4892 H 0.59981 0.00285 0.75489 0.0
H4893 H 0.59991 0.98803 0.74901 0.0
H4894 H 0.57791 0.9794 0.73807 0.0
H4895 H 0.55542 0.97219 0.74711 0.0
loop_
_geom_bond_atom_site_label_1
_geom_bond_atom_site_label_2
_geom_bond_distance
_geom_bond_site_symmetry_2
_ccdc_geom_bond_type
C0 O1 1.337 . S
C0 O3 1.157 1_655 S
O1 C0 1.337 . S
O1 Cd2 2.212 1_556 S
Cd2 O1 2.212 1_554 S
Cd2 O6 2.273 . S
Cd2 O10 2.326 1_554 S
O3 C0 1.157 1_455 S
O3 Cd4 2.204 1_556 S
Cd4 O3 2.204 1_554 S
Cd4 O6 2.411 1_455 S
Cd4 O7 2.333 . S
Cd4 O8 2.352 . S
Cd4 O12 2.277 1_554 S
Cd4 O13 2.356 . S
C5 O10 1.154 1_455 S
C5 O12 1.226 . S
O6 Cd2 2.273 . S
O6 Cd4 2.411 1_655 S
O6 C9 1.320 1_655 S
O7 Cd4 2.333 . S
O7 C9 1.214 . S
O8 Cd4 2.352 . S
O8 C11 1.258 . S
C9 O6 1.320 1_455 S
C9 O7 1.214 . S
O10 Cd2 2.326 1_556 S
O10 C5 1.154 1_655 S
C11 O8 1.258 . S
C11 O13 1.282 . S
O12 Cd4 2.277 1_556 S
O12 C5 1.226 . S
O13 Cd4 2.356 . S
O13 C11 1.282 . S
C14 O15 1.306 . S
C14 O17 1.160 . S
O15 C14 1.306 . S
O15 Cd16 2.228 . S
Cd16 O15 2.228 . S
Cd16 O20 2.273 . S
Cd16 O24 2.277 . S
O17 C14 1.160 . S
O17 Cd18 2.203 . S
Cd18 O17 2.203 . S
Cd18 O20 2.411 . S
Cd18 O21 2.333 1_554 S
Cd18 O22 2.352 1_554 S
Cd18 O26 2.277 . S
Cd18 O27 2.356 . S
C19 O24 1.209 . S
C19 O26 1.226 . S
O20 Cd16 2.273 . S
O20 Cd18 2.411 . S
O20 C23 1.320 1_554 S
O21 Cd18 2.333 1_556 S
O21 C23 1.214 . S
O22 Cd18 2.352 1_556 S
O22 C25 1.262 . S
C23 O20 1.320 1_556 S
C23 O21 1.214 . S
O24 Cd16 2.277 . S
O24 C19 1.209 . S
C25 O22 1.262 . S
C25 O27 1.258 1_556 S
O26 Cd18 2.277 . S
O26 C19 1.226 . S
O27 Cd18 2.356 . S
O27 C25 1.258 1_554 S
C28 O29 1.306 . S
C28 O31 1.161 1_565 S
O29 C28 1.306 . S
O29 Cd30 2.228 . S
Cd30 O29 2.228 . S
Cd30 O34 2.273 1_554 S
Cd30 O38 2.332 . S
O31 C28 1.161 1_545 S
O31 Cd32 2.203 . S
Cd32 O31 2.203 . S
Cd32 O34 2.411 1_544 S
Cd32 O35 2.333 1_554 S
Cd32 O36 2.352 1_554 S
Cd32 O40 2.277 . S
Cd32 O41 2.356 . S
C33 O38 1.148 1_545 S
C33 O40 1.226 . S
O34 Cd30 2.273 1_556 S
O34 Cd32 2.411 1_566 S
O34 C37 1.320 1_565 S
O35 Cd32 2.333 1_556 S
O35 C37 1.214 . S
O36 Cd32 2.352 1_556 S
O36 C39 1.258 . S
C37 O34 1.320 1_545 S
C37 O35 1.214 . S
O38 Cd30 2.332 . S
O38 C33 1.148 1_565 S
C39 O36 1.258 . S
C39 O41 1.282 1_556 S
O40 Cd32 2.277 . S
O40 C33 1.226 . S
O41 Cd32 2.356 . S
O41 C39 1.282 1_554 S
C42 O43 1.306 1_556 S
C42 O45 1.164 . S
O43 C42 1.306 1_554 S
O43 Cd44 2.228 . S
Cd44 O43 2.228 . S
Cd44 O48 2.273 . S
Cd44 O52 2.277 1_554 S
O45 C42 1.164 . S
O45 Cd46 2.173 1_656 S
Cd46 O45 2.173 1_454 S
Cd46 O48 2.411 1_455 S
Cd46 O49 2.333 . S
Cd46 O50 2.352 . S
Cd46 O54 2.277 1_554 S
Cd46 O55 2.356 . S
C47 O52 1.209 1_455 S
C47 O54 1.226 . S
O48 Cd44 2.273 . S
O48 Cd46 2.411 1_655 S
O48 C51 1.320 . S
O49 Cd46 2.333 . S
O49 C51 1.214 1_455 S
O50 Cd46 2.352 . S
O50 C53 1.258 . S
C51 O48 1.320 . S
C51 O49 1.214 1_655 S
O52 Cd44 2.277 1_556 S
O52 C47 1.209 1_655 S
C53 O50 1.258 . S
C53 O55 1.282 . S
O54 Cd46 2.277 1_556 S
O54 C47 1.226 . S
O55 Cd46 2.356 . S
O55 C53 1.282 . S
C56 O57 1.306 . S
C56 O59 1.160 . S
O57 C56 1.306 . S
O57 Cd58 2.228 . S
Cd58 O57 2.228 . S
Cd58 O62 2.273 1_554 S
Cd58 O66 2.277 . S
O59 C56 1.160 . S
O59 Cd60 2.203 . S
Cd60 O59 2.203 . S
Cd60 O62 2.411 1_554 S
Cd60 O63 2.333 1_554 S
Cd60 O64 2.352 1_554 S
Cd60 O68 2.277 . S
Cd60 O69 2.356 1_554 S
C61 O66 1.209 . S
C61 O68 1.226 . S
O62 Cd58 2.273 1_556 S
O62 Cd60 2.411 1_556 S
O62 C65 1.320 . S
O63 Cd60 2.333 1_556 S
O63 C65 1.214 . S
O64 Cd60 2.352 1_556 S
O64 C67 1.258 . S
C65 O62 1.320 . S
C65 O63 1.214 . S
O66 Cd58 2.277 . S
O66 C61 1.209 . S
C67 O64 1.258 . S
C67 O69 1.282 . S
O68 Cd60 2.277 . S
O68 C61 1.226 . S
O69 Cd60 2.356 1_556 S
O69 C67 1.282 . S
C70 O71 1.281 1_556 S
C70 O73 1.158 . S
O71 C70 1.281 1_554 S
O71 Cd72 2.228 . S
Cd72 O71 2.228 . S
Cd72 O76 2.273 . S
Cd72 O80 2.277 1_554 S
O73 C70 1.158 . S
O73 Cd74 2.184 1_546 S
Cd74 O73 2.184 1_564 S
Cd74 O76 2.411 1_565 S
Cd74 O77 2.333 . S
Cd74 O78 2.352 . S
Cd74 O82 2.277 1_554 S
Cd74 O83 2.356 . S
C75 O80 1.209 1_565 S
C75 O82 1.226 . S
O76 Cd72 2.273 . S
O76 Cd74 2.411 1_545 S
O76 C79 1.320 . S
O77 Cd74 2.333 . S
O77 C79 1.214 1_565 S
O78 Cd74 2.352 . S
O78 C81 1.258 . S
C79 O76 1.320 . S
C79 O77 1.214 1_545 S
O80 Cd72 2.277 1_556 S
O80 C75 1.209 1_545 S
C81 O78 1.258 . S
C81 O83 1.282 . S
O82 Cd74 2.277 1_556 S
O82 C75 1.226 . S
O83 Cd74 2.356 . S
O83 C81 1.282 . S
C84 O85 1.306 . S
C84 O87 1.160 . S
O85 C84 1.306 . S
O85 Cd86 2.228 . S
Cd86 O85 2.228 . S
Cd86 O90 2.273 . S
Cd86 O94 2.277 . S
O87 C84 1.160 . S
O87 Cd88 2.203 . S
Cd88 O87 2.203 . S
Cd88 O90 2.411 . S
Cd88 O91 2.333 . S
Cd88 O92 2.352 . S
Cd88 O96 2.277 . S
Cd88 O97 2.356 . S
C89 O94 1.209 . S
C89 O96 1.226 . S
O90 Cd86 2.273 . S
O90 Cd88 2.411 . S
O90 C93 1.320 . S
O91 Cd88 2.333 . S
O91 C93 1.214 . S
O92 Cd88 2.352 . S
O92 C95 1.258 . S
C93 O90 1.320 . S
C93 O91 1.214 . S
O94 Cd86 2.277 . S
O94 C89 1.209 . S
C95 O92 1.258 . S
C95 O97 1.282 . S
O96 Cd88 2.277 . S
O96 C89 1.226 . S
O97 Cd88 2.356 . S
O97 C95 1.282 . S
C98 O99 1.306 . S
C98 O101 1.118 1_545 S
O99 C98 1.306 . S
O99 Cd100 2.228 1_545 S
Cd100 O99 2.228 1_565 S
Cd100 O104 2.273 . S
Cd100 O108 2.277 . S
O101 C98 1.118 1_565 S
O101 Cd102 2.235 . S
Cd102 O101 2.235 . S
Cd102 O104 2.411 . S
Cd102 O105 2.333 . S
Cd102 O106 2.352 . S
Cd102 O110 2.277 . S
Cd102 O111 2.356 . S
C103 O108 1.209 . S
C103 O110 1.226 . S
O104 Cd100 2.273 . S
O104 Cd102 2.411 . S
O104 C107 1.320 . S
O105 Cd102 2.333 . S
O105 C107 1.214 . S
O106 Cd102 2.352 . S
O106 C109 1.258 . S
C107 O104 1.320 . S
C107 O105 1.214 . S
O108 Cd100 2.277 . S
O108 C103 1.209 . S
C109 O106 1.258 . S
C109 O111 1.282 . S
O110 Cd102 2.277 . S
O110 C103 1.226 . S
O111 Cd102 2.356 . S
O111 C109 1.282 . S
C112 O113 1.306 . S
C112 O115 1.160 . S
O113 C112 1.306 . S
O113 Cd114 2.228 . S
Cd114 O113 2.228 . S
Cd114 O118 2.273 . S
Cd114 O122 2.277 . S
O115 C112 1.160 . S
O115 Cd116 2.203 . S
Cd116 O115 2.203 . S
Cd116 O118 2.411 . S
Cd116 O119 2.333 . S
Cd116 O120 2.352 . S
Cd116 O124 2.277 . S
Cd116 O125 2.356 . S
C117 O122 1.209 . S
C117 O124 1.226 . S
O118 Cd114 2.273 . S
O118 Cd116 2.411 . S
O118 C121 1.320 . S
O119 Cd116 2.333 . S
O119 C121 1.214 . S
O120 Cd116 2.352 . S
O120 C123 1.258 . S
C121 O118 1.320 . S
C121 O119 1.214 . S
O122 Cd114 2.277 . S
O122 C117 1.209 . S
C123 O120 1.258 . S
C123 O125 1.282 . S
O124 Cd116 2.277 . S
O124 C117 1.226 . S
O125 Cd116 2.356 . S
O125 C123 1.282 . S
C126 O127 1.306 . S
C126 O129 1.160 . S
O127 C126 1.306 . S
O127 Cd128 2.228 . S
Cd128 O127 2.228 . S
Cd128 O132 2.273 . S
Cd128 O136 2.277 . S
O129 C126 1.160 . S
O129 Cd130 2.203 . S
Cd130 O129 2.203 . S
Cd130 O132 2.411 . S
Cd130 O133 2.333 . S
Cd130 O134 2.352 1_565 S
Cd130 O138 2.277 . S
Cd130 O139 2.356 1_565 S
C131 O136 1.209 . S
C131 O138 1.226 . S
O132 Cd128 2.273 . S
O132 Cd130 2.411 . S
O132 C135 1.320 . S
O133 Cd130 2.333 . S
O133 C135 1.214 . S
O134 Cd130 2.352 1_545 S
O134 C137 1.258 . S
C135 O132 1.320 . S
C135 O133 1.214 . S
O136 Cd128 2.277 . S
O136 C131 1.209 . S
C137 O134 1.258 . S
C137 O139 1.282 . S
O138 Cd130 2.277 . S
O138 C131 1.226 . S
O139 Cd130 2.356 1_545 S
O139 C137 1.282 . S
C140 O141 1.306 1_655 S
C140 O143 1.160 1_655 S
O141 C140 1.306 1_455 S
O141 Cd142 2.228 . S
Cd142 O141 2.228 . S
Cd142 O146 2.273 . S
Cd142 O150 2.277 . S
O143 C140 1.160 1_455 S
O143 Cd144 2.203 . S
Cd144 O143 2.203 . S
Cd144 O146 2.411 . S
Cd144 O147 2.333 . S
Cd144 O148 2.352 . S
Cd144 O152 2.277 . S
Cd144 O153 2.356 . S
C145 O150 1.209 . S
C145 O152 1.226 . S
O146 Cd142 2.273 . S
O146 Cd144 2.411 . S
O146 C149 1.320 . S
O147 Cd144 2.333 . S
O147 C149 1.214 . S
O148 Cd144 2.352 . S
O148 C151 1.258 . S
C149 O146 1.320 . S
C149 O147 1.214 . S
O150 Cd142 2.277 . S
O150 C145 1.209 . S
C151 O148 1.258 . S
C151 O153 1.282 . S
O152 Cd144 2.277 . S
O152 C145 1.226 . S
O153 Cd144 2.356 . S
O153 C151 1.282 . S
C154 O155 1.306 . S
C154 O157 1.160 . S
O155 C154 1.306 . S
O155 Cd156 2.228 . S
Cd156 O155 2.228 . S
Cd156 O160 2.273 . S
Cd156 O164 2.277 . S
O157 C154 1.160 . S
O157 Cd158 2.203 . S
Cd158 O157 2.203 . S
Cd158 O160 2.411 . S
Cd158 O161 2.333 . S
Cd158 O162 2.352 . S
Cd158 O166 2.277 . S
Cd158 O167 2.356 . S
C159 O164 1.209 . S
C159 O166 1.226 . S
O160 Cd156 2.273 . S
O160 Cd158 2.411 . S
O160 C163 1.320 . S
O161 Cd158 2.333 . S
O161 C163 1.214 . S
O162 Cd158 2.352 . S
O162 C165 1.258 . S
C163 O160 1.320 . S
C163 O161 1.214 . S
O164 Cd156 2.277 . S
O164 C159 1.209 . S
C165 O162 1.258 . S
C165 O167 1.282 . S
O166 Cd158 2.277 . S
O166 C159 1.226 . S
O167 Cd158 2.356 . S
O167 C165 1.282 . S
C168 O169 1.273 1_565 S
C168 O171 1.160 1_565 S
O169 C168 1.273 1_545 S
O169 Cd170 2.276 . S
Cd170 O169 2.276 . S
Cd170 O174 2.273 . S
Cd170 O178 2.277 . S
O171 C168 1.160 1_545 S
O171 Cd172 2.203 . S
Cd172 O171 2.203 . S
Cd172 O174 2.411 . S
Cd172 O175 2.333 . S
Cd172 O176 2.352 . S
Cd172 O180 2.277 . S
Cd172 O181 2.356 . S
C173 O178 1.209 . S
C173 O180 1.226 . S
O174 Cd170 2.273 . S
O174 Cd172 2.411 . S
O174 C177 1.320 . S
O175 Cd172 2.333 . S
O175 C177 1.214 . S
O176 Cd172 2.352 . S
O176 C179 1.258 . S
C177 O174 1.320 . S
C177 O175 1.214 . S
O178 Cd170 2.277 . S
O178 C173 1.209 . S
C179 O176 1.258 . S
C179 O181 1.282 . S
O180 Cd172 2.277 . S
O180 C173 1.226 . S
O181 Cd172 2.356 . S
O181 C179 1.282 . S
C182 O183 1.306 . S
C182 O185 1.160 . S
O183 C182 1.306 . S
O183 Cd184 2.228 . S
Cd184 O183 2.228 . S
Cd184 O188 2.273 . S
Cd184 O192 2.277 . S
O185 C182 1.160 . S
O185 Cd186 2.203 . S
Cd186 O185 2.203 . S
Cd186 O188 2.411 . S
Cd186 O189 2.333 . S
Cd186 O190 2.352 1_655 S
Cd186 O194 2.277 . S
Cd186 O195 2.356 1_655 S
C187 O192 1.209 . S
C187 O194 1.226 . S
O188 Cd184 2.273 . S
O188 Cd186 2.411 . S
O188 C191 1.320 . S
O189 Cd186 2.333 . S
O189 C191 1.214 . S
O190 Cd186 2.352 1_455 S
O190 C193 1.258 . S
C191 O188 1.320 . S
C191 O189 1.214 . S
O192 Cd184 2.277 . S
O192 C187 1.209 . S
C193 O190 1.258 . S
C193 O195 1.282 . S
O194 Cd186 2.277 . S
O194 C187 1.226 . S
O195 Cd186 2.356 1_455 S
O195 C193 1.282 . S
C196 O197 1.306 . S
C196 O199 1.160 . S
O197 C196 1.306 . S
O197 Cd198 2.228 . S
Cd198 O197 2.228 . S
Cd198 O202 2.273 . S
Cd198 O206 2.277 . S
O199 C196 1.160 . S
O199 Cd200 2.203 . S
Cd200 O199 2.203 . S
Cd200 O202 2.411 . S
Cd200 O203 2.333 . S
Cd200 O204 2.352 . S
Cd200 O208 2.277 . S
Cd200 O209 2.356 . S
C201 O206 1.209 . S
C201 O208 1.226 . S
O202 Cd198 2.273 . S
O202 Cd200 2.411 . S
O202 C205 1.320 . S
O203 Cd200 2.333 . S
O203 C205 1.214 . S
O204 Cd200 2.352 . S
O204 C207 1.258 . S
C205 O202 1.320 . S
C205 O203 1.214 . S
O206 Cd198 2.277 . S
O206 C201 1.209 . S
C207 O204 1.258 . S
C207 O209 1.282 . S
O208 Cd200 2.277 . S
O208 C201 1.226 . S
O209 Cd200 2.356 . S
O209 C207 1.282 . S
C210 O211 1.306 . S
C210 O213 1.160 . S
O211 C210 1.306 . S
O211 Cd212 2.228 . S
Cd212 O211 2.228 . S
Cd212 O216 2.273 . S
Cd212 O220 2.277 . S
O213 C210 1.160 . S
O213 Cd214 2.203 . S
Cd214 O213 2.203 . S
Cd214 O216 2.411 . S
Cd214 O217 2.333 . S
Cd214 O218 2.352 . S
Cd214 O222 2.277 . S
Cd214 O223 2.356 . S
C215 O220 1.209 . S
C215 O222 1.226 . S
O216 Cd212 2.273 . S
O216 Cd214 2.411 . S
O216 C219 1.320 . S
O217 Cd214 2.333 . S
O217 C219 1.214 . S
O218 Cd214 2.352 . S
O218 C221 1.258 . S
C219 O216 1.320 . S
C219 O217 1.214 . S
O220 Cd212 2.277 . S
O220 C215 1.209 . S
C221 O218 1.258 . S
C221 O223 1.282 . S
O222 Cd214 2.277 . S
O222 C215 1.226 . S
O223 Cd214 2.356 . S
O223 C221 1.282 . S
C224 O225 1.306 . S
C224 O227 1.160 . S
O225 C224 1.306 . S
O225 Cd226 2.228 . S
Cd226 O225 2.228 . S
Cd226 O230 2.273 . S
Cd226 O234 2.277 . S
O227 C224 1.160 . S
O227 Cd228 2.203 . S
Cd228 O227 2.203 . S
Cd228 O230 2.411 . S
Cd228 O231 2.333 . S
Cd228 O232 2.352 . S
Cd228 O236 2.277 . S
Cd228 O237 2.356 1_545 S
C229 O234 1.209 . S
C229 O236 1.226 . S
O230 Cd226 2.273 . S
O230 Cd228 2.411 . S
O230 C233 1.320 . S
O231 Cd228 2.333 . S
O231 C233 1.214 . S
O232 Cd228 2.352 . S
O232 C235 1.258 1_545 S
C233 O230 1.320 . S
C233 O231 1.214 . S
O234 Cd226 2.277 . S
O234 C229 1.209 . S
C235 O232 1.258 1_565 S
C235 O237 1.282 . S
O236 Cd228 2.277 . S
O236 C229 1.226 . S
O237 Cd228 2.356 1_565 S
O237 C235 1.282 . S
C238 O239 1.306 . S
C238 O241 1.160 1_455 S
O239 C238 1.306 . S
O239 Cd240 2.228 1_455 S
Cd240 O239 2.228 1_655 S
Cd240 O244 2.273 . S
Cd240 O248 2.277 . S
O241 C238 1.160 1_655 S
O241 Cd242 2.203 . S
Cd242 O241 2.203 . S
Cd242 O244 2.411 . S
Cd242 O245 2.333 . S
Cd242 O246 2.352 . S
Cd242 O250 2.277 . S
Cd242 O251 2.356 . S
C243 O248 1.209 . S
C243 O250 1.226 . S
O244 Cd240 2.273 . S
O244 Cd242 2.411 . S
O244 C247 1.320 . S
O245 Cd242 2.333 . S
O245 C247 1.214 . S
O246 Cd242 2.352 . S
O246 C249 1.258 . S
C247 O244 1.320 . S
C247 O245 1.214 . S
O248 Cd240 2.277 . S
O248 C243 1.209 . S
C249 O246 1.258 . S
C249 O251 1.282 . S
O250 Cd242 2.277 . S
O250 C243 1.226 . S
O251 Cd242 2.356 . S
O251 C249 1.282 . S
C252 C253 1.560 . S
C252 H313 0.959 . S
C252 H314 0.959 . S
C252 H315 0.960 . S
C253 C252 1.560 . S
C253 O308 1.426 . S
C253 H312 0.980 . S
C254 C255 1.407 . S
C254 C259 1.418 . S
C254 O308 1.334 . S
C255 C254 1.407 . S
C255 C256 1.360 . S
C255 H316 0.929 . S
C256 C255 1.360 . S
C256 C257 1.401 . S
C256 C260 1.527 . S
C257 C256 1.401 . S
C257 C258 1.405 . S
C257 C290 1.587 . S
C258 C257 1.405 . S
C258 C259 1.332 . S
C258 C261 1.496 . S
C259 C254 1.418 . S
C259 C258 1.332 . S
C259 H317 0.929 . S
C260 C256 1.527 . S
C260 H318 0.959 . S
C260 H319 0.961 . S
C260 H320 0.961 . S
C261 C258 1.496 . S
C261 H321 0.960 . S
C261 H322 0.960 . S
C261 H323 0.961 . S
C262 C263 1.517 . S
C262 H325 0.961 . S
C262 H326 0.960 . S
C262 H327 0.959 . S
C263 C262 1.517 . S
C263 O311 1.468 . S
C263 H324 0.980 . S
C264 C265 1.349 . S
C264 C269 1.367 . S
C264 O311 1.408 . S
C265 C264 1.349 . S
C265 C266 1.407 . S
C265 H328 0.930 . S
C266 C265 1.407 . S
C266 C267 1.449 . S
C266 C270 1.535 . S
C267 C266 1.449 . S
C267 C268 1.384 . S
C267 C292 1.553 . S
C268 C267 1.384 . S
C268 C269 1.364 . S
C268 C271 1.450 . S
C269 C264 1.367 . S
C269 C268 1.364 . S
C269 H329 0.931 . S
C270 C266 1.535 . S
C270 H330 0.959 . S
C270 H331 0.961 . S
C270 H332 0.959 . S
C271 C268 1.450 . S
C271 H333 0.960 . S
C271 H334 0.960 . S
C271 H335 0.960 . S
C272 C273 1.309 . S
C272 C277 1.304 . S
C272 O310 1.435 . S
C273 C272 1.309 . S
C273 C274 1.476 . S
C273 H337 0.930 . S
C274 C273 1.476 . S
C274 C275 1.400 . S
C274 C278 1.567 . S
C275 C274 1.400 . S
C275 C276 1.373 . S
C275 C297 1.432 . S
C276 C275 1.373 . S
C276 C277 1.339 . S
C276 C279 1.530 . S
C277 C272 1.304 . S
C277 C276 1.339 . S
C277 H338 0.930 . S
C278 C274 1.567 . S
C278 H339 0.961 . S
C278 H340 0.960 . S
C278 H341 0.958 . S
C279 C276 1.530 . S
C279 H342 0.961 . S
C279 H343 0.960 . S
C279 H344 0.960 . S
C280 C281 1.530 . S
C280 H346 0.961 . S
C280 H347 0.961 . S
C280 H348 0.959 . S
C281 C280 1.530 . S
C281 O309 1.412 . S
C281 H345 0.980 . S
C282 C283 1.288 . S
C282 C287 1.377 . S
C282 O309 1.393 . S
C283 C282 1.288 . S
C283 C284 1.369 . S
C283 H349 0.932 . S
C284 C283 1.369 . S
C284 C285 1.398 . S
C284 C288 1.527 . S
C285 C284 1.398 . S
C285 C286 1.380 . S
C285 C299 1.497 . S
C286 C285 1.380 . S
C286 C287 1.383 . S
C286 C289 1.603 . S
C287 C282 1.377 . S
C287 C286 1.383 . S
C287 H350 0.929 . S
C288 C284 1.527 . S
C288 H351 0.961 . S
C288 H352 0.959 . S
C288 H353 0.959 . S
C289 C286 1.603 . S
C289 H354 0.960 . S
C289 H355 0.962 . S
C289 H356 0.961 . S
C290 C257 1.587 . S
C290 C291 1.360 . S
C290 C303 1.412 . S
C291 C290 1.360 . S
C291 C292 1.365 . S
C291 H357 0.929 . S
C292 C267 1.553 . S
C292 C291 1.365 . S
C292 C293 1.404 . S
C293 C292 1.404 . S
C293 C294 1.395 . S
C293 C304 1.451 . S
C294 C293 1.395 . S
C294 C295 1.322 . S
C294 H358 0.930 . S
C295 C294 1.322 . S
C295 C296 1.459 . S
C295 H359 0.929 . S
C296 C295 1.459 . S
C296 C297 1.445 . S
C296 C305 1.395 . S
C297 C275 1.432 . S
C297 C296 1.445 . S
C297 C298 1.370 . S
C298 C297 1.370 . S
C298 C299 1.438 . S
C298 H360 0.930 . S
C299 C285 1.497 . S
C299 C298 1.438 . S
C299 C300 1.360 . S
C300 C299 1.360 . S
C300 C301 1.401 . S
C300 C305 1.446 . S
C301 C300 1.401 . S
C301 C302 1.347 . S
C301 H361 0.929 . S
C302 C301 1.347 . S
C302 C303 1.455 . S
C302 H362 0.930 . S
C303 C290 1.412 . S
C303 C302 1.455 . S
C303 C304 1.331 . S
C304 C293 1.451 . S
C304 C303 1.331 . S
C304 C305 1.497 . S
C305 C296 1.395 . S
C305 C300 1.446 . S
C305 C304 1.497 . S
C306 C307 1.582 . S
C306 H363 0.962 . S
C306 H364 0.959 . S
C306 H365 0.958 . S
C307 C306 1.582 . S
C307 O310 1.458 . S
C307 H336 0.980 . S
O308 C253 1.426 . S
O308 C254 1.334 . S
O309 C281 1.412 . S
O309 C282 1.393 . S
O310 C272 1.435 . S
O310 C307 1.458 . S
O311 C263 1.468 . S
O311 C264 1.408 . S
H312 C253 0.980 . S
H313 C252 0.959 . S
H314 C252 0.959 . S
H315 C252 0.960 . S
H316 C255 0.929 . S
H317 C259 0.929 . S
H318 C260 0.959 . S
H319 C260 0.961 . S
H320 C260 0.961 . S
H321 C261 0.960 . S
H322 C261 0.960 . S
H323 C261 0.961 . S
H324 C263 0.980 . S
H325 C262 0.961 . S
H326 C262 0.960 . S
H327 C262 0.959 . S
H328 C265 0.930 . S
H329 C269 0.931 . S
H330 C270 0.959 . S
H331 C270 0.961 . S
H332 C270 0.959 . S
H333 C271 0.960 . S
H334 C271 0.960 . S
H335 C271 0.960 . S
H336 C307 0.980 . S
H337 C273 0.930 . S
H338 C277 0.930 . S
H339 C278 0.961 . S
H340 C278 0.960 . S
H341 C278 0.958 . S
H342 C279 0.961 . S
H343 C279 0.960 . S
H344 C279 0.960 . S
H345 C281 0.980 . S
H346 C280 0.961 . S
H347 C280 0.961 . S
H348 C280 0.959 . S
H349 C283 0.932 . S
H350 C287 0.929 . S
H351 C288 0.961 . S
H352 C288 0.959 . S
H353 C288 0.959 . S
H354 C289 0.960 . S
H355 C289 0.962 . S
H356 C289 0.961 . S
H357 C291 0.929 . S
H358 C294 0.930 . S
H359 C295 0.929 . S
H360 C298 0.930 . S
H361 C301 0.929 . S
H362 C302 0.930 . S
H363 C306 0.962 . S
H364 C306 0.959 . S
H365 C306 0.958 . S
C366 C367 1.560 . S
C366 H427 0.959 . S
C366 H428 0.959 . S
C366 H429 0.960 . S
C367 C366 1.560 . S
C367 O422 1.426 . S
C367 H426 0.980 . S
C368 C369 1.407 . S
C368 C373 1.418 . S
C368 O422 1.334 . S
C369 C368 1.407 . S
C369 C370 1.360 . S
C369 H430 0.929 . S
C370 C369 1.360 . S
C370 C371 1.401 . S
C370 C374 1.527 . S
C371 C370 1.401 . S
C371 C372 1.405 . S
C371 C404 1.587 . S
C372 C371 1.405 . S
C372 C373 1.332 . S
C372 C375 1.496 . S
C373 C368 1.418 . S
C373 C372 1.332 . S
C373 H431 0.929 . S
C374 C370 1.527 . S
C374 H432 0.959 . S
C374 H433 0.961 . S
C374 H434 0.961 . S
C375 C372 1.496 . S
C375 H435 0.960 . S
C375 H436 0.960 . S
C375 H437 0.961 . S
C376 C377 1.517 . S
C376 H439 0.961 . S
C376 H440 0.960 . S
C376 H441 0.959 . S
C377 C376 1.517 . S
C377 O425 1.468 . S
C377 H438 0.980 . S
C378 C379 1.349 . S
C378 C383 1.367 . S
C378 O425 1.408 . S
C379 C378 1.349 . S
C379 C380 1.407 . S
C379 H442 0.930 . S
C380 C379 1.407 . S
C380 C381 1.449 . S
C380 C384 1.535 . S
C381 C380 1.449 . S
C381 C382 1.384 . S
C381 C406 1.553 . S
C382 C381 1.384 . S
C382 C383 1.364 . S
C382 C385 1.450 . S
C383 C378 1.367 . S
C383 C382 1.364 . S
C383 H443 0.931 . S
C384 C380 1.535 . S
C384 H444 0.959 . S
C384 H445 0.961 . S
C384 H446 0.959 . S
C385 C382 1.450 . S
C385 H447 0.960 . S
C385 H448 0.960 . S
C385 H449 0.960 . S
C386 C387 1.309 . S
C386 C391 1.304 . S
C386 O424 1.435 . S
C387 C386 1.309 . S
C387 C388 1.476 . S
C387 H451 0.930 . S
C388 C387 1.476 . S
C388 C389 1.400 . S
C388 C392 1.567 . S
C389 C388 1.400 . S
C389 C390 1.373 . S
C389 C411 1.432 . S
C390 C389 1.373 . S
C390 C391 1.339 . S
C390 C393 1.530 . S
C391 C386 1.304 . S
C391 C390 1.339 . S
C391 H452 0.930 . S
C392 C388 1.567 . S
C392 H453 0.961 . S
C392 H454 0.960 . S
C392 H455 0.958 . S
C393 C390 1.530 . S
C393 H456 0.961 . S
C393 H457 0.960 . S
C393 H458 0.960 . S
C394 C395 1.530 . S
C394 H460 0.961 . S
C394 H461 0.961 . S
C394 H462 0.959 . S
C395 C394 1.530 . S
C395 O423 1.412 . S
C395 H459 0.980 . S
C396 C397 1.288 . S
C396 C401 1.377 . S
C396 O423 1.393 . S
C397 C396 1.288 . S
C397 C398 1.369 . S
C397 H463 0.932 . S
C398 C397 1.369 . S
C398 C399 1.398 . S
C398 C402 1.527 . S
C399 C398 1.398 . S
C399 C400 1.380 . S
C399 C413 1.497 . S
C400 C399 1.380 . S
C400 C401 1.383 . S
C400 C403 1.603 . S
C401 C396 1.377 . S
C401 C400 1.383 . S
C401 H464 0.929 . S
C402 C398 1.527 . S
C402 H465 0.961 . S
C402 H466 0.959 . S
C402 H467 0.959 . S
C403 C400 1.603 . S
C403 H468 0.960 . S
C403 H469 0.962 . S
C403 H470 0.961 . S
C404 C371 1.587 . S
C404 C405 1.360 . S
C404 C417 1.412 . S
C405 C404 1.360 . S
C405 C406 1.365 . S
C405 H471 0.929 . S
C406 C381 1.553 . S
C406 C405 1.365 . S
C406 C407 1.404 . S
C407 C406 1.404 . S
C407 C408 1.395 . S
C407 C418 1.451 . S
C408 C407 1.395 . S
C408 C409 1.322 . S
C408 H472 0.930 . S
C409 C408 1.322 . S
C409 C410 1.459 . S
C409 H473 0.929 . S
C410 C409 1.459 . S
C410 C411 1.445 . S
C410 C419 1.395 . S
C411 C389 1.432 . S
C411 C410 1.445 . S
C411 C412 1.370 . S
C412 C411 1.370 . S
C412 C413 1.438 . S
C412 H474 0.930 . S
C413 C399 1.497 . S
C413 C412 1.438 . S
C413 C414 1.360 . S
C414 C413 1.360 . S
C414 C415 1.401 . S
C414 C419 1.446 . S
C415 C414 1.401 . S
C415 C416 1.347 . S
C415 H475 0.929 . S
C416 C415 1.347 . S
C416 C417 1.455 . S
C416 H476 0.930 . S
C417 C404 1.412 . S
C417 C416 1.455 . S
C417 C418 1.331 . S
C418 C407 1.451 . S
C418 C417 1.331 . S
C418 C419 1.497 . S
C419 C410 1.395 . S
C419 C414 1.446 . S
C419 C418 1.497 . S
C420 C421 1.582 . S
C420 H477 0.962 . S
C420 H478 0.959 . S
C420 H479 0.958 . S
C421 C420 1.582 . S
C421 O424 1.458 . S
C421 H450 0.980 . S
O422 C367 1.426 . S
O422 C368 1.334 . S
O423 C395 1.412 . S
O423 C396 1.393 . S
O424 C386 1.435 . S
O424 C421 1.458 . S
O425 C377 1.468 . S
O425 C378 1.408 . S
H426 C367 0.980 . S
H427 C366 0.959 . S
H428 C366 0.959 . S
H429 C366 0.960 . S
H430 C369 0.929 . S
H431 C373 0.929 . S
H432 C374 0.959 . S
H433 C374 0.961 . S
H434 C374 0.961 . S
H435 C375 0.960 . S
H436 C375 0.960 . S
H437 C375 0.961 . S
H438 C377 0.980 . S
H439 C376 0.961 . S
H440 C376 0.960 . S
H441 C376 0.959 . S
H442 C379 0.930 . S
H443 C383 0.931 . S
H444 C384 0.959 . S
H445 C384 0.961 . S
H446 C384 0.959 . S
H447 C385 0.960 . S
H448 C385 0.960 . S
H449 C385 0.960 . S
H450 C421 0.980 . S
H451 C387 0.930 . S
H452 C391 0.930 . S
H453 C392 0.961 . S
H454 C392 0.960 . S
H455 C392 0.958 . S
H456 C393 0.961 . S
H457 C393 0.960 . S
H458 C393 0.960 . S
H459 C395 0.980 . S
H460 C394 0.961 . S
H461 C394 0.961 . S
H462 C394 0.959 . S
H463 C397 0.932 . S
H464 C401 0.929 . S
H465 C402 0.961 . S
H466 C402 0.959 . S
H467 C402 0.959 . S
H468 C403 0.960 . S
H469 C403 0.962 . S
H470 C403 0.961 . S
H471 C405 0.929 . S
H472 C408 0.930 . S
H473 C409 0.929 . S
H474 C412 0.930 . S
H475 C415 0.929 . S
H476 C416 0.930 . S
H477 C420 0.962 . S
H478 C420 0.959 . S
H479 C420 0.958 . S
C480 C481 1.560 . S
C480 H541 0.959 . S
C480 H542 0.959 . S
C480 H543 0.960 . S
C481 C480 1.560 . S
C481 O536 1.426 . S
C481 H540 0.980 . S
C482 C483 1.407 . S
C482 C487 1.418 . S
C482 O536 1.334 . S
C483 C482 1.407 . S
C483 C484 1.360 . S
C483 H544 0.929 . S
C484 C483 1.360 . S
C484 C485 1.401 . S
C484 C488 1.527 . S
C485 C484 1.401 . S
C485 C486 1.405 . S
C485 C518 1.587 . S
C486 C485 1.405 . S
C486 C487 1.332 . S
C486 C489 1.496 . S
C487 C482 1.418 . S
C487 C486 1.332 . S
C487 H545 0.929 . S
C488 C484 1.527 . S
C488 H546 0.959 . S
C488 H547 0.961 . S
C488 H548 0.961 . S
C489 C486 1.496 . S
C489 H549 0.960 . S
C489 H550 0.960 . S
C489 H551 0.961 . S
C490 C491 1.517 . S
C490 H553 0.961 . S
C490 H554 0.960 . S
C490 H555 0.959 . S
C491 C490 1.517 . S
C491 O539 1.468 . S
C491 H552 0.980 . S
C492 C493 1.349 . S
C492 C497 1.367 . S
C492 O539 1.408 . S
C493 C492 1.349 . S
C493 C494 1.407 . S
C493 H556 0.930 . S
C494 C493 1.407 . S
C494 C495 1.449 . S
C494 C498 1.535 . S
C495 C494 1.449 . S
C495 C496 1.384 . S
C495 C520 1.553 . S
C496 C495 1.384 . S
C496 C497 1.364 . S
C496 C499 1.450 . S
C497 C492 1.367 . S
C497 C496 1.364 . S
C497 H557 0.931 . S
C498 C494 1.535 . S
C498 H558 0.959 . S
C498 H559 0.961 . S
C498 H560 0.959 . S
C499 C496 1.450 . S
C499 H561 0.960 . S
C499 H562 0.960 . S
C499 H563 0.960 . S
C500 C501 1.309 . S
C500 C505 1.304 . S
C500 O538 1.435 . S
C501 C500 1.309 . S
C501 C502 1.476 . S
C501 H565 0.930 . S
C502 C501 1.476 . S
C502 C503 1.400 . S
C502 C506 1.567 . S
C503 C502 1.400 . S
C503 C504 1.373 . S
C503 C525 1.432 . S
C504 C503 1.373 . S
C504 C505 1.339 . S
C504 C507 1.530 . S
C505 C500 1.304 . S
C505 C504 1.339 . S
C505 H566 0.930 . S
C506 C502 1.567 . S
C506 H567 0.961 . S
C506 H568 0.960 . S
C506 H569 0.958 . S
C507 C504 1.530 . S
C507 H570 0.961 . S
C507 H571 0.960 . S
C507 H572 0.960 . S
C508 C509 1.530 . S
C508 H574 0.961 . S
C508 H575 0.961 . S
C508 H576 0.959 . S
C509 C508 1.530 . S
C509 O537 1.412 . S
C509 H573 0.980 . S
C510 C511 1.288 . S
C510 C515 1.377 . S
C510 O537 1.393 . S
C511 C510 1.288 . S
C511 C512 1.369 . S
C511 H577 0.932 . S
C512 C511 1.369 . S
C512 C513 1.398 . S
C512 C516 1.527 . S
C513 C512 1.398 . S
C513 C514 1.380 . S
C513 C527 1.497 . S
C514 C513 1.380 . S
C514 C515 1.383 . S
C514 C517 1.603 . S
C515 C510 1.377 . S
C515 C514 1.383 . S
C515 H578 0.929 . S
C516 C512 1.527 . S
C516 H579 0.961 . S
C516 H580 0.959 . S
C516 H581 0.959 . S
C517 C514 1.603 . S
C517 H582 0.960 . S
C517 H583 0.962 . S
C517 H584 0.961 . S
C518 C485 1.587 . S
C518 C519 1.360 . S
C518 C531 1.412 . S
C519 C518 1.360 . S
C519 C520 1.365 . S
C519 H585 0.929 . S
C520 C495 1.553 . S
C520 C519 1.365 . S
C520 C521 1.404 . S
C521 C520 1.404 . S
C521 C522 1.395 . S
C521 C532 1.451 . S
C522 C521 1.395 . S
C522 C523 1.322 . S
C522 H586 0.930 . S
C523 C522 1.322 . S
C523 C524 1.459 . S
C523 H587 0.929 . S
C524 C523 1.459 . S
C524 C525 1.445 . S
C524 C533 1.395 . S
C525 C503 1.432 . S
C525 C524 1.445 . S
C525 C526 1.370 . S
C526 C525 1.370 . S
C526 C527 1.438 . S
C526 H588 0.930 . S
C527 C513 1.497 . S
C527 C526 1.438 . S
C527 C528 1.360 . S
C528 C527 1.360 . S
C528 C529 1.401 . S
C528 C533 1.446 . S
C529 C528 1.401 . S
C529 C530 1.347 . S
C529 H589 0.929 . S
C530 C529 1.347 . S
C530 C531 1.455 . S
C530 H590 0.930 . S
C531 C518 1.412 . S
C531 C530 1.455 . S
C531 C532 1.331 . S
C532 C521 1.451 . S
C532 C531 1.331 . S
C532 C533 1.497 . S
C533 C524 1.395 . S
C533 C528 1.446 . S
C533 C532 1.497 . S
C534 C535 1.582 . S
C534 H591 0.962 . S
C534 H592 0.959 . S
C534 H593 0.958 . S
C535 C534 1.582 . S
C535 O538 1.458 . S
C535 H564 0.980 . S
O536 C481 1.426 . S
O536 C482 1.334 . S
O537 C509 1.412 . S
O537 C510 1.393 . S
O538 C500 1.435 . S
O538 C535 1.458 . S
O539 C491 1.468 . S
O539 C492 1.408 . S
H540 C481 0.980 . S
H541 C480 0.959 . S
H542 C480 0.959 . S
H543 C480 0.960 . S
H544 C483 0.929 . S
H545 C487 0.929 . S
H546 C488 0.959 . S
H547 C488 0.961 . S
H548 C488 0.961 . S
H549 C489 0.960 . S
H550 C489 0.960 . S
H551 C489 0.961 . S
H552 C491 0.980 . S
H553 C490 0.961 . S
H554 C490 0.960 . S
H555 C490 0.959 . S
H556 C493 0.930 . S
H557 C497 0.931 . S
H558 C498 0.959 . S
H559 C498 0.961 . S
H560 C498 0.959 . S
H561 C499 0.960 . S
H562 C499 0.960 . S
H563 C499 0.960 . S
H564 C535 0.980 . S
H565 C501 0.930 . S
H566 C505 0.930 . S
H567 C506 0.961 . S
H568 C506 0.960 . S
H569 C506 0.958 . S
H570 C507 0.961 . S
H571 C507 0.960 . S
H572 C507 0.960 . S
H573 C509 0.980 . S
H574 C508 0.961 . S
H575 C508 0.961 . S
H576 C508 0.959 . S
H577 C511 0.932 . S
H578 C515 0.929 . S
H579 C516 0.961 . S
H580 C516 0.959 . S
H581 C516 0.959 . S
H582 C517 0.960 . S
H583 C517 0.962 . S
H584 C517 0.961 . S
H585 C519 0.929 . S
H586 C522 0.930 . S
H587 C523 0.929 . S
H588 C526 0.930 . S
H589 C529 0.929 . S
H590 C530 0.930 . S
H591 C534 0.962 . S
H592 C534 0.959 . S
H593 C534 0.958 . S
C594 C595 1.560 . S
C594 H655 0.959 . S
C594 H656 0.959 . S
C594 H657 0.960 . S
C595 C594 1.560 . S
C595 O650 1.426 . S
C595 H654 0.980 . S
C596 C597 1.407 . S
C596 C601 1.418 . S
C596 O650 1.334 . S
C597 C596 1.407 . S
C597 C598 1.360 . S
C597 H658 0.929 . S
C598 C597 1.360 . S
C598 C599 1.401 . S
C598 C602 1.527 . S
C599 C598 1.401 . S
C599 C600 1.405 . S
C599 C632 1.587 . S
C600 C599 1.405 . S
C600 C601 1.332 . S
C600 C603 1.496 . S
C601 C596 1.418 . S
C601 C600 1.332 . S
C601 H659 0.929 . S
C602 C598 1.527 . S
C602 H660 0.959 . S
C602 H661 0.961 . S
C602 H662 0.961 . S
C603 C600 1.496 . S
C603 H663 0.960 . S
C603 H664 0.960 . S
C603 H665 0.961 . S
C604 C605 1.517 . S
C604 H667 0.961 . S
C604 H668 0.960 . S
C604 H669 0.959 . S
C605 C604 1.517 . S
C605 O653 1.468 . S
C605 H666 0.980 . S
C606 C607 1.349 . S
C606 C611 1.367 . S
C606 O653 1.408 . S
C607 C606 1.349 . S
C607 C608 1.407 . S
C607 H670 0.930 . S
C608 C607 1.407 . S
C608 C609 1.449 . S
C608 C612 1.535 . S
C609 C608 1.449 . S
C609 C610 1.384 . S
C609 C634 1.553 . S
C610 C609 1.384 . S
C610 C611 1.364 . S
C610 C613 1.450 . S
C611 C606 1.367 . S
C611 C610 1.364 . S
C611 H671 0.931 . S
C612 C608 1.535 . S
C612 H672 0.959 . S
C612 H673 0.961 . S
C612 H674 0.959 . S
C613 C610 1.450 . S
C613 H675 0.960 . S
C613 H676 0.960 . S
C613 H677 0.960 . S
C614 C615 1.309 . S
C614 C619 1.304 . S
C614 O652 1.435 . S
C615 C614 1.309 . S
C615 C616 1.476 . S
C615 H679 0.930 . S
C616 C615 1.476 . S
C616 C617 1.400 . S
C616 C620 1.567 . S
C617 C616 1.400 . S
C617 C618 1.373 . S
C617 C639 1.432 . S
C618 C617 1.373 . S
C618 C619 1.339 . S
C618 C621 1.530 . S
C619 C614 1.304 . S
C619 C618 1.339 . S
C619 H680 0.930 . S
C620 C616 1.567 . S
C620 H681 0.961 . S
C620 H682 0.960 . S
C620 H683 0.958 . S
C621 C618 1.530 . S
C621 H684 0.961 . S
C621 H685 0.960 . S
C621 H686 0.960 . S
C622 C623 1.530 . S
C622 H688 0.961 . S
C622 H689 0.961 . S
C622 H690 0.959 . S
C623 C622 1.530 . S
C623 O651 1.412 . S
C623 H687 0.980 . S
C624 C625 1.288 . S
C624 C629 1.377 . S
C624 O651 1.393 . S
C625 C624 1.288 . S
C625 C626 1.369 . S
C625 H691 0.932 . S
C626 C625 1.369 . S
C626 C627 1.398 . S
C626 C630 1.527 . S
C627 C626 1.398 . S
C627 C628 1.380 . S
C627 C641 1.497 . S
C628 C627 1.380 . S
C628 C629 1.383 . S
C628 C631 1.603 . S
C629 C624 1.377 . S
C629 C628 1.383 . S
C629 H692 0.929 . S
C630 C626 1.527 . S
C630 H693 0.961 . S
C630 H694 0.959 . S
C630 H695 0.959 . S
C631 C628 1.603 . S
C631 H696 0.960 . S
C631 H697 0.962 . S
C631 H698 0.961 . S
C632 C599 1.587 . S
C632 C633 1.360 . S
C632 C645 1.412 . S
C633 C632 1.360 . S
C633 C634 1.365 . S
C633 H699 0.929 . S
C634 C609 1.553 . S
C634 C633 1.365 . S
C634 C635 1.404 . S
C635 C634 1.404 . S
C635 C636 1.395 . S
C635 C646 1.451 . S
C636 C635 1.395 . S
C636 C637 1.322 . S
C636 H700 0.930 . S
C637 C636 1.322 . S
C637 C638 1.459 . S
C637 H701 0.929 . S
C638 C637 1.459 . S
C638 C639 1.445 . S
C638 C647 1.395 . S
C639 C617 1.432 . S
C639 C638 1.445 . S
C639 C640 1.370 . S
C640 C639 1.370 . S
C640 C641 1.438 . S
C640 H702 0.930 . S
C641 C627 1.497 . S
C641 C640 1.438 . S
C641 C642 1.360 . S
C642 C641 1.360 . S
C642 C643 1.401 . S
C642 C647 1.446 . S
C643 C642 1.401 . S
C643 C644 1.347 . S
C643 H703 0.929 . S
C644 C643 1.347 . S
C644 C645 1.455 . S
C644 H704 0.930 . S
C645 C632 1.412 . S
C645 C644 1.455 . S
C645 C646 1.331 . S
C646 C635 1.451 . S
C646 C645 1.331 . S
C646 C647 1.497 . S
C647 C638 1.395 . S
C647 C642 1.446 . S
C647 C646 1.497 . S
C648 C649 1.582 . S
C648 H705 0.962 . S
C648 H706 0.959 . S
C648 H707 0.958 . S
C649 C648 1.582 . S
C649 O652 1.458 . S
C649 H678 0.980 . S
O650 C595 1.426 . S
O650 C596 1.334 . S
O651 C623 1.412 . S
O651 C624 1.393 . S
O652 C614 1.435 . S
O652 C649 1.458 . S
O653 C605 1.468 . S
O653 C606 1.408 . S
H654 C595 0.980 . S
H655 C594 0.959 . S
H656 C594 0.959 . S
H657 C594 0.960 . S
H658 C597 0.929 . S
H659 C601 0.929 . S
H660 C602 0.959 . S
H661 C602 0.961 . S
H662 C602 0.961 . S
H663 C603 0.960 . S
H664 C603 0.960 . S
H665 C603 0.961 . S
H666 C605 0.980 . S
H667 C604 0.961 . S
H668 C604 0.960 . S
H669 C604 0.959 . S
H670 C607 0.930 . S
H671 C611 0.931 . S
H672 C612 0.959 . S
H673 C612 0.961 . S
H674 C612 0.959 . S
H675 C613 0.960 . S
H676 C613 0.960 . S
H677 C613 0.960 . S
H678 C649 0.980 . S
H679 C615 0.930 . S
H680 C619 0.930 . S
H681 C620 0.961 . S
H682 C620 0.960 . S
H683 C620 0.958 . S
H684 C621 0.961 . S
H685 C621 0.960 . S
H686 C621 0.960 . S
H687 C623 0.980 . S
H688 C622 0.961 . S
H689 C622 0.961 . S
H690 C622 0.959 . S
H691 C625 0.932 . S
H692 C629 0.929 . S
H693 C630 0.961 . S
H694 C630 0.959 . S
H695 C630 0.959 . S
H696 C631 0.960 . S
H697 C631 0.962 . S
H698 C631 0.961 . S
H699 C633 0.929 . S
H700 C636 0.930 . S
H701 C637 0.929 . S
H702 C640 0.930 . S
H703 C643 0.929 . S
H704 C644 0.930 . S
H705 C648 0.962 . S
H706 C648 0.959 . S
H707 C648 0.958 . S
C708 C709 1.560 . S
C708 H769 0.959 . S
C708 H770 0.959 . S
C708 H771 0.960 . S
C709 C708 1.560 . S
C709 O764 1.426 . S
C709 H768 0.980 . S
C710 C711 1.407 . S
C710 C715 1.418 . S
C710 O764 1.334 . S
C711 C710 1.407 . S
C711 C712 1.360 . S
C711 H772 0.929 . S
C712 C711 1.360 . S
C712 C713 1.401 . S
C712 C716 1.527 . S
C713 C712 1.401 . S
C713 C714 1.405 . S
C713 C746 1.587 . S
C714 C713 1.405 . S
C714 C715 1.332 . S
C714 C717 1.496 . S
C715 C710 1.418 . S
C715 C714 1.332 . S
C715 H773 0.929 . S
C716 C712 1.527 . S
C716 H774 0.959 . S
C716 H775 0.961 . S
C716 H776 0.961 . S
C717 C714 1.496 . S
C717 H777 0.960 . S
C717 H778 0.960 . S
C717 H779 0.961 . S
C718 C719 1.517 . S
C718 H781 0.961 . S
C718 H782 0.960 . S
C718 H783 0.959 . S
C719 C718 1.517 . S
C719 O767 1.468 . S
C719 H780 0.980 . S
C720 C721 1.349 . S
C720 C725 1.367 . S
C720 O767 1.408 . S
C721 C720 1.349 . S
C721 C722 1.407 . S
C721 H784 0.930 . S
C722 C721 1.407 . S
C722 C723 1.449 . S
C722 C726 1.535 . S
C723 C722 1.449 . S
C723 C724 1.384 . S
C723 C748 1.553 . S
C724 C723 1.384 . S
C724 C725 1.364 . S
C724 C727 1.450 . S
C725 C720 1.367 . S
C725 C724 1.364 . S
C725 H785 0.931 . S
C726 C722 1.535 . S
C726 H786 0.959 . S
C726 H787 0.961 . S
C726 H788 0.959 . S
C727 C724 1.450 . S
C727 H789 0.960 . S
C727 H790 0.960 . S
C727 H791 0.960 . S
C728 C729 1.309 . S
C728 C733 1.304 . S
C728 O766 1.435 . S
C729 C728 1.309 . S
C729 C730 1.476 . S
C729 H793 0.930 . S
C730 C729 1.476 . S
C730 C731 1.400 . S
C730 C734 1.567 . S
C731 C730 1.400 . S
C731 C732 1.373 . S
C731 C753 1.432 . S
C732 C731 1.373 . S
C732 C733 1.339 . S
C732 C735 1.530 . S
C733 C728 1.304 . S
C733 C732 1.339 . S
C733 H794 0.930 . S
C734 C730 1.567 . S
C734 H795 0.961 . S
C734 H796 0.960 . S
C734 H797 0.958 . S
C735 C732 1.530 . S
C735 H798 0.961 . S
C735 H799 0.960 . S
C735 H800 0.960 . S
C736 C737 1.530 . S
C736 H802 0.961 . S
C736 H803 0.961 . S
C736 H804 0.959 . S
C737 C736 1.530 . S
C737 O765 1.412 . S
C737 H801 0.980 . S
C738 C739 1.288 . S
C738 C743 1.377 . S
C738 O765 1.393 . S
C739 C738 1.288 . S
C739 C740 1.369 . S
C739 H805 0.932 . S
C740 C739 1.369 . S
C740 C741 1.398 . S
C740 C744 1.527 . S
C741 C740 1.398 . S
C741 C742 1.380 . S
C741 C755 1.497 . S
C742 C741 1.380 . S
C742 C743 1.383 . S
C742 C745 1.603 . S
C743 C738 1.377 . S
C743 C742 1.383 . S
C743 H806 0.929 . S
C744 C740 1.527 . S
C744 H807 0.961 . S
C744 H808 0.959 . S
C744 H809 0.959 . S
C745 C742 1.603 . S
C745 H810 0.960 . S
C745 H811 0.962 . S
C745 H812 0.961 . S
C746 C713 1.587 . S
C746 C747 1.360 . S
C746 C759 1.412 . S
C747 C746 1.360 . S
C747 C748 1.365 . S
C747 H813 0.929 . S
C748 C723 1.553 . S
C748 C747 1.365 . S
C748 C749 1.404 . S
C749 C748 1.404 . S
C749 C750 1.395 . S
C749 C760 1.451 . S
C750 C749 1.395 . S
C750 C751 1.322 . S
C750 H814 0.930 . S
C751 C750 1.322 . S
C751 C752 1.459 . S
C751 H815 0.929 . S
C752 C751 1.459 . S
C752 C753 1.445 . S
C752 C761 1.395 . S
C753 C731 1.432 . S
C753 C752 1.445 . S
C753 C754 1.370 . S
C754 C753 1.370 . S
C754 C755 1.438 . S
C754 H816 0.930 . S
C755 C741 1.497 . S
C755 C754 1.438 . S
C755 C756 1.360 . S
C756 C755 1.360 . S
C756 C757 1.401 . S
C756 C761 1.446 . S
C757 C756 1.401 . S
C757 C758 1.347 . S
C757 H817 0.929 . S
C758 C757 1.347 . S
C758 C759 1.455 . S
C758 H818 0.930 . S
C759 C746 1.412 . S
C759 C758 1.455 . S
C759 C760 1.331 . S
C760 C749 1.451 . S
C760 C759 1.331 . S
C760 C761 1.497 . S
C761 C752 1.395 . S
C761 C756 1.446 . S
C761 C760 1.497 . S
C762 C763 1.582 . S
C762 H819 0.962 . S
C762 H820 0.959 . S
C762 H821 0.958 . S
C763 C762 1.582 . S
C763 O766 1.458 . S
C763 H792 0.980 . S
O764 C709 1.426 . S
O764 C710 1.334 . S
O765 C737 1.412 . S
O765 C738 1.393 . S
O766 C728 1.435 . S
O766 C763 1.458 . S
O767 C719 1.468 . S
O767 C720 1.408 . S
H768 C709 0.980 . S
H769 C708 0.959 . S
H770 C708 0.959 . S
H771 C708 0.960 . S
H772 C711 0.929 . S
H773 C715 0.929 . S
H774 C716 0.959 . S
H775 C716 0.961 . S
H776 C716 0.961 . S
H777 C717 0.960 . S
H778 C717 0.960 . S
H779 C717 0.961 . S
H780 C719 0.980 . S
H781 C718 0.961 . S
H782 C718 0.960 . S
H783 C718 0.959 . S
H784 C721 0.930 . S
H785 C725 0.931 . S
H786 C726 0.959 . S
H787 C726 0.961 . S
H788 C726 0.959 . S
H789 C727 0.960 . S
H790 C727 0.960 . S
H791 C727 0.960 . S
H792 C763 0.980 . S
H793 C729 0.930 . S
H794 C733 0.930 . S
H795 C734 0.961 . S
H796 C734 0.960 . S
H797 C734 0.958 . S
H798 C735 0.961 . S
H799 C735 0.960 . S
H800 C735 0.960 . S
H801 C737 0.980 . S
H802 C736 0.961 . S
H803 C736 0.961 . S
H804 C736 0.959 . S
H805 C739 0.932 . S
H806 C743 0.929 . S
H807 C744 0.961 . S
H808 C744 0.959 . S
H809 C744 0.959 . S
H810 C745 0.960 . S
H811 C745 0.962 . S
H812 C745 0.961 . S
H813 C747 0.929 . S
H814 C750 0.930 . S
H815 C751 0.929 . S
H816 C754 0.930 . S
H817 C757 0.929 . S
H818 C758 0.930 . S
H819 C762 0.962 . S
H820 C762 0.959 . S
H821 C762 0.958 . S
C822 C823 1.560 . S
C822 H883 0.959 . S
C822 H884 0.959 . S
C822 H885 0.960 . S
C823 C822 1.560 . S
C823 O878 1.426 . S
C823 H882 0.980 . S
C824 C825 1.407 . S
C824 C829 1.418 . S
C824 O878 1.334 . S
C825 C824 1.407 . S
C825 C826 1.360 . S
C825 H886 0.929 . S
C826 C825 1.360 . S
C826 C827 1.401 . S
C826 C830 1.527 . S
C827 C826 1.401 . S
C827 C828 1.405 . S
C827 C860 1.587 . S
C828 C827 1.405 . S
C828 C829 1.332 . S
C828 C831 1.496 . S
C829 C824 1.418 . S
C829 C828 1.332 . S
C829 H887 0.929 . S
C830 C826 1.527 . S
C830 H888 0.959 . S
C830 H889 0.961 . S
C830 H890 0.961 . S
C831 C828 1.496 . S
C831 H891 0.960 . S
C831 H892 0.960 . S
C831 H893 0.961 . S
C832 C833 1.517 . S
C832 H895 0.961 . S
C832 H896 0.960 . S
C832 H897 0.959 . S
C833 C832 1.517 . S
C833 O881 1.468 . S
C833 H894 0.980 . S
C834 C835 1.349 . S
C834 C839 1.367 . S
C834 O881 1.408 . S
C835 C834 1.349 . S
C835 C836 1.407 . S
C835 H898 0.930 . S
C836 C835 1.407 . S
C836 C837 1.449 . S
C836 C840 1.535 . S
C837 C836 1.449 . S
C837 C838 1.384 . S
C837 C862 1.553 . S
C838 C837 1.384 . S
C838 C839 1.364 . S
C838 C841 1.450 . S
C839 C834 1.367 . S
C839 C838 1.364 . S
C839 H899 0.931 . S
C840 C836 1.535 . S
C840 H900 0.959 . S
C840 H901 0.961 . S
C840 H902 0.959 . S
C841 C838 1.450 . S
C841 H903 0.960 . S
C841 H904 0.960 . S
C841 H905 0.960 . S
C842 C843 1.309 . S
C842 C847 1.304 . S
C842 O880 1.435 . S
C843 C842 1.309 . S
C843 C844 1.476 . S
C843 H907 0.930 . S
C844 C843 1.476 . S
C844 C845 1.400 . S
C844 C848 1.567 . S
C845 C844 1.400 . S
C845 C846 1.373 . S
C845 C867 1.432 . S
C846 C845 1.373 . S
C846 C847 1.339 . S
C846 C849 1.530 . S
C847 C842 1.304 . S
C847 C846 1.339 . S
C847 H908 0.930 . S
C848 C844 1.567 . S
C848 H909 0.961 . S
C848 H910 0.960 . S
C848 H911 0.958 . S
C849 C846 1.530 . S
C849 H912 0.961 . S
C849 H913 0.960 . S
C849 H914 0.960 . S
C850 C851 1.530 . S
C850 H916 0.961 . S
C850 H917 0.961 . S
C850 H918 0.959 . S
C851 C850 1.530 . S
C851 O879 1.412 . S
C851 H915 0.980 . S
C852 C853 1.288 . S
C852 C857 1.377 . S
C852 O879 1.393 . S
C853 C852 1.288 . S
C853 C854 1.369 . S
C853 H919 0.932 . S
C854 C853 1.369 . S
C854 C855 1.398 . S
C854 C858 1.527 . S
C855 C854 1.398 . S
C855 C856 1.380 . S
C855 C869 1.497 . S
C856 C855 1.380 . S
C856 C857 1.383 . S
C856 C859 1.603 . S
C857 C852 1.377 . S
C857 C856 1.383 . S
C857 H920 0.929 . S
C858 C854 1.527 . S
C858 H921 0.961 . S
C858 H922 0.959 . S
C858 H923 0.959 . S
C859 C856 1.603 . S
C859 H924 0.960 . S
C859 H925 0.962 . S
C859 H926 0.961 . S
C860 C827 1.587 . S
C860 C861 1.360 . S
C860 C873 1.412 . S
C861 C860 1.360 . S
C861 C862 1.365 . S
C861 H927 0.929 . S
C862 C837 1.553 . S
C862 C861 1.365 . S
C862 C863 1.404 . S
C863 C862 1.404 . S
C863 C864 1.395 . S
C863 C874 1.451 . S
C864 C863 1.395 . S
C864 C865 1.322 . S
C864 H928 0.930 . S
C865 C864 1.322 . S
C865 C866 1.459 . S
C865 H929 0.929 . S
C866 C865 1.459 . S
C866 C867 1.445 . S
C866 C875 1.395 . S
C867 C845 1.432 . S
C867 C866 1.445 . S
C867 C868 1.370 . S
C868 C867 1.370 . S
C868 C869 1.438 . S
C868 H930 0.930 . S
C869 C855 1.497 . S
C869 C868 1.438 . S
C869 C870 1.360 . S
C870 C869 1.360 . S
C870 C871 1.401 . S
C870 C875 1.446 . S
C871 C870 1.401 . S
C871 C872 1.347 . S
C871 H931 0.929 . S
C872 C871 1.347 . S
C872 C873 1.455 . S
C872 H932 0.930 . S
C873 C860 1.412 . S
C873 C872 1.455 . S
C873 C874 1.331 . S
C874 C863 1.451 . S
C874 C873 1.331 . S
C874 C875 1.497 . S
C875 C866 1.395 . S
C875 C870 1.446 . S
C875 C874 1.497 . S
C876 C877 1.582 . S
C876 H933 0.962 . S
C876 H934 0.959 . S
C876 H935 0.958 . S
C877 C876 1.582 . S
C877 O880 1.458 . S
C877 H906 0.980 . S
O878 C823 1.426 . S
O878 C824 1.334 . S
O879 C851 1.412 . S
O879 C852 1.393 . S
O880 C842 1.435 . S
O880 C877 1.458 . S
O881 C833 1.468 . S
O881 C834 1.408 . S
H882 C823 0.980 . S
H883 C822 0.959 . S
H884 C822 0.959 . S
H885 C822 0.960 . S
H886 C825 0.929 . S
H887 C829 0.929 . S
H888 C830 0.959 . S
H889 C830 0.961 . S
H890 C830 0.961 . S
H891 C831 0.960 . S
H892 C831 0.960 . S
H893 C831 0.961 . S
H894 C833 0.980 . S
H895 C832 0.961 . S
H896 C832 0.960 . S
H897 C832 0.959 . S
H898 C835 0.930 . S
H899 C839 0.931 . S
H900 C840 0.959 . S
H901 C840 0.961 . S
H902 C840 0.959 . S
H903 C841 0.960 . S
H904 C841 0.960 . S
H905 C841 0.960 . S
H906 C877 0.980 . S
H907 C843 0.930 . S
H908 C847 0.930 . S
H909 C848 0.961 . S
H910 C848 0.960 . S
H911 C848 0.958 . S
H912 C849 0.961 . S
H913 C849 0.960 . S
H914 C849 0.960 . S
H915 C851 0.980 . S
H916 C850 0.961 . S
H917 C850 0.961 . S
H918 C850 0.959 . S
H919 C853 0.932 . S
H920 C857 0.929 . S
H921 C858 0.961 . S
H922 C858 0.959 . S
H923 C858 0.959 . S
H924 C859 0.960 . S
H925 C859 0.962 . S
H926 C859 0.961 . S
H927 C861 0.929 . S
H928 C864 0.930 . S
H929 C865 0.929 . S
H930 C868 0.930 . S
H931 C871 0.929 . S
H932 C872 0.930 . S
H933 C876 0.962 . S
H934 C876 0.959 . S
H935 C876 0.958 . S
C936 C937 1.560 . S
C936 H997 0.959 . S
C936 H998 0.959 . S
C936 H999 0.960 . S
C937 C936 1.560 . S
C937 O992 1.426 . S
C937 H996 0.980 . S
C938 C939 1.407 . S
C938 C943 1.418 . S
C938 O992 1.334 . S
C939 C938 1.407 . S
C939 C940 1.360 . S
C939 H1000 0.929 . S
C940 C939 1.360 . S
C940 C941 1.401 . S
C940 C944 1.527 . S
C941 C940 1.401 . S
C941 C942 1.405 . S
C941 C974 1.587 . S
C942 C941 1.405 . S
C942 C943 1.332 . S
C942 C945 1.496 . S
C943 C938 1.418 . S
C943 C942 1.332 . S
C943 H1001 0.929 . S
C944 C940 1.527 . S
C944 H1002 0.959 . S
C944 H1003 0.961 . S
C944 H1004 0.961 . S
C945 C942 1.496 . S
C945 H1005 0.960 . S
C945 H1006 0.960 . S
C945 H1007 0.961 . S
C946 C947 1.517 . S
C946 H1009 0.961 . S
C946 H1010 0.960 . S
C946 H1011 0.959 . S
C947 C946 1.517 . S
C947 O995 1.468 . S
C947 H1008 0.980 . S
C948 C949 1.349 . S
C948 C953 1.367 . S
C948 O995 1.408 . S
C949 C948 1.349 . S
C949 C950 1.407 . S
C949 H1012 0.930 . S
C950 C949 1.407 . S
C950 C951 1.449 . S
C950 C954 1.535 . S
C951 C950 1.449 . S
C951 C952 1.384 . S
C951 C976 1.553 . S
C952 C951 1.384 . S
C952 C953 1.364 . S
C952 C955 1.450 . S
C953 C948 1.367 . S
C953 C952 1.364 . S
C953 H1013 0.931 . S
C954 C950 1.535 . S
C954 H1014 0.959 . S
C954 H1015 0.961 . S
C954 H1016 0.959 . S
C955 C952 1.450 . S
C955 H1017 0.960 . S
C955 H1018 0.960 . S
C955 H1019 0.960 . S
C956 C957 1.309 . S
C956 C961 1.304 . S
C956 O994 1.435 . S
C957 C956 1.309 . S
C957 C958 1.476 . S
C957 H1021 0.930 . S
C958 C957 1.476 . S
C958 C959 1.400 . S
C958 C962 1.567 . S
C959 C958 1.400 . S
C959 C960 1.373 . S
C959 C981 1.432 . S
C960 C959 1.373 . S
C960 C961 1.339 . S
C960 C963 1.530 . S
C961 C956 1.304 . S
C961 C960 1.339 . S
C961 H1022 0.930 . S
C962 C958 1.567 . S
C962 H1023 0.961 . S
C962 H1024 0.960 . S
C962 H1025 0.958 . S
C963 C960 1.530 . S
C963 H1026 0.961 . S
C963 H1027 0.960 . S
C963 H1028 0.960 . S
C964 C965 1.530 . S
C964 H1030 0.961 . S
C964 H1031 0.961 . S
C964 H1032 0.959 . S
C965 C964 1.530 . S
C965 O993 1.412 . S
C965 H1029 0.980 . S
C966 C967 1.288 . S
C966 C971 1.377 . S
C966 O993 1.393 . S
C967 C966 1.288 . S
C967 C968 1.369 . S
C967 H1033 0.932 . S
C968 C967 1.369 . S
C968 C969 1.398 . S
C968 C972 1.527 . S
C969 C968 1.398 . S
C969 C970 1.380 . S
C969 C983 1.497 . S
C970 C969 1.380 . S
C970 C971 1.383 . S
C970 C973 1.603 . S
C971 C966 1.377 . S
C971 C970 1.383 . S
C971 H1034 0.929 . S
C972 C968 1.527 . S
C972 H1035 0.961 . S
C972 H1036 0.959 . S
C972 H1037 0.959 . S
C973 C970 1.603 . S
C973 H1038 0.960 . S
C973 H1039 0.962 . S
C973 H1040 0.961 . S
C974 C941 1.587 . S
C974 C975 1.360 . S
C974 C987 1.412 . S
C975 C974 1.360 . S
C975 C976 1.365 . S
C975 H1041 0.929 . S
C976 C951 1.553 . S
C976 C975 1.365 . S
C976 C977 1.404 . S
C977 C976 1.404 . S
C977 C978 1.395 . S
C977 C988 1.451 . S
C978 C977 1.395 . S
C978 C979 1.322 . S
C978 H1042 0.930 . S
C979 C978 1.322 . S
C979 C980 1.459 . S
C979 H1043 0.929 . S
C980 C979 1.459 . S
C980 C981 1.445 . S
C980 C989 1.395 . S
C981 C959 1.432 . S
C981 C980 1.445 . S
C981 C982 1.370 . S
C982 C981 1.370 . S
C982 C983 1.438 . S
C982 H1044 0.930 . S
C983 C969 1.497 . S
C983 C982 1.438 . S
C983 C984 1.360 . S
C984 C983 1.360 . S
C984 C985 1.401 . S
C984 C989 1.446 . S
C985 C984 1.401 . S
C985 C986 1.347 . S
C985 H1045 0.929 . S
C986 C985 1.347 . S
C986 C987 1.455 . S
C986 H1046 0.930 . S
C987 C974 1.412 . S
C987 C986 1.455 . S
C987 C988 1.331 . S
C988 C977 1.451 . S
C988 C987 1.331 . S
C988 C989 1.497 . S
C989 C980 1.395 . S
C989 C984 1.446 . S
C989 C988 1.497 . S
C990 C991 1.582 . S
C990 H1047 0.962 . S
C990 H1048 0.959 . S
C990 H1049 0.958 . S
C991 C990 1.582 . S
C991 O994 1.458 . S
C991 H1020 0.980 . S
O992 C937 1.426 . S
O992 C938 1.334 . S
O993 C965 1.412 . S
O993 C966 1.393 . S
O994 C956 1.435 . S
O994 C991 1.458 . S
O995 C947 1.468 . S
O995 C948 1.408 . S
H996 C937 0.980 . S
H997 C936 0.959 . S
H998 C936 0.959 . S
H999 C936 0.960 . S
H1000 C939 0.929 . S
H1001 C943 0.929 . S
H1002 C944 0.959 . S
H1003 C944 0.961 . S
H1004 C944 0.961 . S
H1005 C945 0.960 . S
H1006 C945 0.960 . S
H1007 C945 0.961 . S
H1008 C947 0.980 . S
H1009 C946 0.961 . S
H1010 C946 0.960 . S
H1011 C946 0.959 . S
H1012 C949 0.930 . S
H1013 C953 0.931 . S
H1014 C954 0.959 . S
H1015 C954 0.961 . S
H1016 C954 0.959 . S
H1017 C955 0.960 . S
H1018 C955 0.960 . S
H1019 C955 0.960 . S
H1020 C991 0.980 . S
H1021 C957 0.930 . S
H1022 C961 0.930 . S
H1023 C962 0.961 . S
H1024 C962 0.960 . S
H1025 C962 0.958 . S
H1026 C963 0.961 . S
H1027 C963 0.960 . S
H1028 C963 0.960 . S
H1029 C965 0.980 . S
H1030 C964 0.961 . S
H1031 C964 0.961 . S
H1032 C964 0.959 . S
H1033 C967 0.932 . S
H1034 C971 0.929 . S
H1035 C972 0.961 . S
H1036 C972 0.959 . S
H1037 C972 0.959 . S
H1038 C973 0.960 . S
H1039 C973 0.962 . S
H1040 C973 0.961 . S
H1041 C975 0.929 . S
H1042 C978 0.930 . S
H1043 C979 0.929 . S
H1044 C982 0.930 . S
H1045 C985 0.929 . S
H1046 C986 0.930 . S
H1047 C990 0.962 . S
H1048 C990 0.959 . S
H1049 C990 0.958 . S
C1050 C1051 1.560 . S
C1050 H1111 0.959 . S
C1050 H1112 0.959 . S
C1050 H1113 0.960 . S
C1051 C1050 1.560 . S
C1051 O1106 1.426 . S
C1051 H1110 0.980 . S
C1052 C1053 1.407 . S
C1052 C1057 1.418 . S
C1052 O1106 1.334 . S
C1053 C1052 1.407 . S
C1053 C1054 1.360 . S
C1053 H1114 0.929 . S
C1054 C1053 1.360 . S
C1054 C1055 1.401 . S
C1054 C1058 1.527 . S
C1055 C1054 1.401 . S
C1055 C1056 1.405 . S
C1055 C1088 1.587 . S
C1056 C1055 1.405 . S
C1056 C1057 1.332 . S
C1056 C1059 1.496 . S
C1057 C1052 1.418 . S
C1057 C1056 1.332 . S
C1057 H1115 0.929 . S
C1058 C1054 1.527 . S
C1058 H1116 0.959 . S
C1058 H1117 0.961 . S
C1058 H1118 0.961 . S
C1059 C1056 1.496 . S
C1059 H1119 0.960 . S
C1059 H1120 0.960 . S
C1059 H1121 0.961 . S
C1060 C1061 1.517 . S
C1060 H1123 0.961 . S
C1060 H1124 0.960 . S
C1060 H1125 0.959 . S
C1061 C1060 1.517 . S
C1061 O1109 1.468 . S
C1061 H1122 0.980 . S
C1062 C1063 1.349 . S
C1062 C1067 1.367 . S
C1062 O1109 1.408 . S
C1063 C1062 1.349 . S
C1063 C1064 1.407 . S
C1063 H1126 0.930 . S
C1064 C1063 1.407 . S
C1064 C1065 1.449 . S
C1064 C1068 1.535 . S
C1065 C1064 1.449 . S
C1065 C1066 1.384 . S
C1065 C1090 1.553 . S
C1066 C1065 1.384 . S
C1066 C1067 1.364 . S
C1066 C1069 1.450 . S
C1067 C1062 1.367 . S
C1067 C1066 1.364 . S
C1067 H1127 0.931 . S
C1068 C1064 1.535 . S
C1068 H1128 0.959 . S
C1068 H1129 0.961 . S
C1068 H1130 0.959 . S
C1069 C1066 1.450 . S
C1069 H1131 0.960 . S
C1069 H1132 0.960 . S
C1069 H1133 0.960 . S
C1070 C1071 1.309 . S
C1070 C1075 1.304 . S
C1070 O1108 1.435 . S
C1071 C1070 1.309 . S
C1071 C1072 1.476 . S
C1071 H1135 0.930 . S
C1072 C1071 1.476 . S
C1072 C1073 1.400 . S
C1072 C1076 1.567 . S
C1073 C1072 1.400 . S
C1073 C1074 1.373 . S
C1073 C1095 1.432 . S
C1074 C1073 1.373 . S
C1074 C1075 1.339 . S
C1074 C1077 1.530 . S
C1075 C1070 1.304 . S
C1075 C1074 1.339 . S
C1075 H1136 0.930 . S
C1076 C1072 1.567 . S
C1076 H1137 0.961 . S
C1076 H1138 0.960 . S
C1076 H1139 0.958 . S
C1077 C1074 1.530 . S
C1077 H1140 0.961 . S
C1077 H1141 0.960 . S
C1077 H1142 0.960 . S
C1078 C1079 1.530 . S
C1078 H1144 0.961 . S
C1078 H1145 0.961 . S
C1078 H1146 0.959 . S
C1079 C1078 1.530 . S
C1079 O1107 1.412 . S
C1079 H1143 0.980 . S
C1080 C1081 1.288 . S
C1080 C1085 1.377 . S
C1080 O1107 1.393 . S
C1081 C1080 1.288 . S
C1081 C1082 1.369 . S
C1081 H1147 0.932 . S
C1082 C1081 1.369 . S
C1082 C1083 1.398 . S
C1082 C1086 1.527 . S
C1083 C1082 1.398 . S
C1083 C1084 1.380 . S
C1083 C1097 1.497 . S
C1084 C1083 1.380 . S
C1084 C1085 1.383 . S
C1084 C1087 1.603 . S
C1085 C1080 1.377 . S
C1085 C1084 1.383 . S
C1085 H1148 0.929 . S
C1086 C1082 1.527 . S
C1086 H1149 0.961 . S
C1086 H1150 0.959 . S
C1086 H1151 0.959 . S
C1087 C1084 1.603 . S
C1087 H1152 0.960 . S
C1087 H1153 0.962 . S
C1087 H1154 0.961 . S
C1088 C1055 1.587 . S
C1088 C1089 1.360 . S
C1088 C1101 1.412 . S
C1089 C1088 1.360 . S
C1089 C1090 1.365 . S
C1089 H1155 0.929 . S
C1090 C1065 1.553 . S
C1090 C1089 1.365 . S
C1090 C1091 1.404 . S
C1091 C1090 1.404 . S
C1091 C1092 1.395 . S
C1091 C1102 1.451 . S
C1092 C1091 1.395 . S
C1092 C1093 1.322 . S
C1092 H1156 0.930 . S
C1093 C1092 1.322 . S
C1093 C1094 1.459 . S
C1093 H1157 0.929 . S
C1094 C1093 1.459 . S
C1094 C1095 1.445 . S
C1094 C1103 1.395 . S
C1095 C1073 1.432 . S
C1095 C1094 1.445 . S
C1095 C1096 1.370 . S
C1096 C1095 1.370 . S
C1096 C1097 1.438 . S
C1096 H1158 0.930 . S
C1097 C1083 1.497 . S
C1097 C1096 1.438 . S
C1097 C1098 1.360 . S
C1098 C1097 1.360 . S
C1098 C1099 1.401 . S
C1098 C1103 1.446 . S
C1099 C1098 1.401 . S
C1099 C1100 1.347 . S
C1099 H1159 0.929 . S
C1100 C1099 1.347 . S
C1100 C1101 1.455 . S
C1100 H1160 0.930 . S
C1101 C1088 1.412 . S
C1101 C1100 1.455 . S
C1101 C1102 1.331 . S
C1102 C1091 1.451 . S
C1102 C1101 1.331 . S
C1102 C1103 1.497 . S
C1103 C1094 1.395 . S
C1103 C1098 1.446 . S
C1103 C1102 1.497 . S
C1104 C1105 1.582 . S
C1104 H1161 0.962 . S
C1104 H1162 0.959 . S
C1104 H1163 0.958 . S
C1105 C1104 1.582 . S
C1105 O1108 1.458 . S
C1105 H1134 0.980 . S
O1106 C1051 1.426 . S
O1106 C1052 1.334 . S
O1107 C1079 1.412 . S
O1107 C1080 1.393 . S
O1108 C1070 1.435 . S
O1108 C1105 1.458 . S
O1109 C1061 1.468 . S
O1109 C1062 1.408 . S
H1110 C1051 0.980 . S
H1111 C1050 0.959 . S
H1112 C1050 0.959 . S
H1113 C1050 0.960 . S
H1114 C1053 0.929 . S
H1115 C1057 0.929 . S
H1116 C1058 0.959 . S
H1117 C1058 0.961 . S
H1118 C1058 0.961 . S
H1119 C1059 0.960 . S
H1120 C1059 0.960 . S
H1121 C1059 0.961 . S
H1122 C1061 0.980 . S
H1123 C1060 0.961 . S
H1124 C1060 0.960 . S
H1125 C1060 0.959 . S
H1126 C1063 0.930 . S
H1127 C1067 0.931 . S
H1128 C1068 0.959 . S
H1129 C1068 0.961 . S
H1130 C1068 0.959 . S
H1131 C1069 0.960 . S
H1132 C1069 0.960 . S
H1133 C1069 0.960 . S
H1134 C1105 0.980 . S
H1135 C1071 0.930 . S
H1136 C1075 0.930 . S
H1137 C1076 0.961 . S
H1138 C1076 0.960 . S
H1139 C1076 0.958 . S
H1140 C1077 0.961 . S
H1141 C1077 0.960 . S
H1142 C1077 0.960 . S
H1143 C1079 0.980 . S
H1144 C1078 0.961 . S
H1145 C1078 0.961 . S
H1146 C1078 0.959 . S
H1147 C1081 0.932 . S
H1148 C1085 0.929 . S
H1149 C1086 0.961 . S
H1150 C1086 0.959 . S
H1151 C1086 0.959 . S
H1152 C1087 0.960 . S
H1153 C1087 0.962 . S
H1154 C1087 0.961 . S
H1155 C1089 0.929 . S
H1156 C1092 0.930 . S
H1157 C1093 0.929 . S
H1158 C1096 0.930 . S
H1159 C1099 0.929 . S
H1160 C1100 0.930 . S
H1161 C1104 0.962 . S
H1162 C1104 0.959 . S
H1163 C1104 0.958 . S
C1164 C1165 1.560 . S
C1164 H1225 0.959 . S
C1164 H1226 0.959 . S
C1164 H1227 0.960 . S
C1165 C1164 1.560 . S
C1165 O1220 1.426 . S
C1165 H1224 0.980 . S
C1166 C1167 1.407 . S
C1166 C1171 1.418 . S
C1166 O1220 1.334 . S
C1167 C1166 1.407 . S
C1167 C1168 1.360 . S
C1167 H1228 0.929 . S
C1168 C1167 1.360 . S
C1168 C1169 1.401 . S
C1168 C1172 1.527 . S
C1169 C1168 1.401 . S
C1169 C1170 1.405 . S
C1169 C1202 1.587 . S
C1170 C1169 1.405 . S
C1170 C1171 1.332 . S
C1170 C1173 1.496 . S
C1171 C1166 1.418 . S
C1171 C1170 1.332 . S
C1171 H1229 0.929 . S
C1172 C1168 1.527 . S
C1172 H1230 0.959 . S
C1172 H1231 0.961 . S
C1172 H1232 0.961 . S
C1173 C1170 1.496 . S
C1173 H1233 0.960 . S
C1173 H1234 0.960 . S
C1173 H1235 0.961 . S
C1174 C1175 1.517 . S
C1174 H1237 0.961 . S
C1174 H1238 0.960 . S
C1174 H1239 0.959 . S
C1175 C1174 1.517 . S
C1175 O1223 1.468 . S
C1175 H1236 0.980 . S
C1176 C1177 1.349 . S
C1176 C1181 1.367 . S
C1176 O1223 1.408 . S
C1177 C1176 1.349 . S
C1177 C1178 1.407 . S
C1177 H1240 0.930 . S
C1178 C1177 1.407 . S
C1178 C1179 1.449 . S
C1178 C1182 1.535 . S
C1179 C1178 1.449 . S
C1179 C1180 1.384 . S
C1179 C1204 1.553 . S
C1180 C1179 1.384 . S
C1180 C1181 1.364 . S
C1180 C1183 1.450 . S
C1181 C1176 1.367 . S
C1181 C1180 1.364 . S
C1181 H1241 0.931 . S
C1182 C1178 1.535 . S
C1182 H1242 0.959 . S
C1182 H1243 0.961 . S
C1182 H1244 0.959 . S
C1183 C1180 1.450 . S
C1183 H1245 0.960 . S
C1183 H1246 0.960 . S
C1183 H1247 0.960 . S
C1184 C1185 1.309 . S
C1184 C1189 1.304 . S
C1184 O1222 1.435 . S
C1185 C1184 1.309 . S
C1185 C1186 1.476 . S
C1185 H1249 0.930 . S
C1186 C1185 1.476 . S
C1186 C1187 1.400 . S
C1186 C1190 1.567 . S
C1187 C1186 1.400 . S
C1187 C1188 1.373 . S
C1187 C1209 1.432 . S
C1188 C1187 1.373 . S
C1188 C1189 1.339 . S
C1188 C1191 1.530 . S
C1189 C1184 1.304 . S
C1189 C1188 1.339 . S
C1189 H1250 0.930 . S
C1190 C1186 1.567 . S
C1190 H1251 0.961 . S
C1190 H1252 0.960 . S
C1190 H1253 0.958 . S
C1191 C1188 1.530 . S
C1191 H1254 0.961 . S
C1191 H1255 0.960 . S
C1191 H1256 0.960 . S
C1192 C1193 1.530 . S
C1192 H1258 0.961 . S
C1192 H1259 0.961 . S
C1192 H1260 0.959 . S
C1193 C1192 1.530 . S
C1193 O1221 1.412 . S
C1193 H1257 0.980 . S
C1194 C1195 1.288 . S
C1194 C1199 1.377 . S
C1194 O1221 1.393 . S
C1195 C1194 1.288 . S
C1195 C1196 1.369 . S
C1195 H1261 0.932 . S
C1196 C1195 1.369 . S
C1196 C1197 1.398 . S
C1196 C1200 1.527 . S
C1197 C1196 1.398 . S
C1197 C1198 1.380 . S
C1197 C1211 1.497 . S
C1198 C1197 1.380 . S
C1198 C1199 1.383 . S
C1198 C1201 1.603 . S
C1199 C1194 1.377 . S
C1199 C1198 1.383 . S
C1199 H1262 0.929 . S
C1200 C1196 1.527 . S
C1200 H1263 0.961 . S
C1200 H1264 0.959 . S
C1200 H1265 0.959 . S
C1201 C1198 1.603 . S
C1201 H1266 0.960 . S
C1201 H1267 0.962 . S
C1201 H1268 0.961 . S
C1202 C1169 1.587 . S
C1202 C1203 1.360 . S
C1202 C1215 1.412 . S
C1203 C1202 1.360 . S
C1203 C1204 1.365 . S
C1203 H1269 0.929 . S
C1204 C1179 1.553 . S
C1204 C1203 1.365 . S
C1204 C1205 1.404 . S
C1205 C1204 1.404 . S
C1205 C1206 1.395 . S
C1205 C1216 1.451 . S
C1206 C1205 1.395 . S
C1206 C1207 1.322 . S
C1206 H1270 0.930 . S
C1207 C1206 1.322 . S
C1207 C1208 1.459 . S
C1207 H1271 0.929 . S
C1208 C1207 1.459 . S
C1208 C1209 1.445 . S
C1208 C1217 1.395 . S
C1209 C1187 1.432 . S
C1209 C1208 1.445 . S
C1209 C1210 1.370 . S
C1210 C1209 1.370 . S
C1210 C1211 1.438 . S
C1210 H1272 0.930 . S
C1211 C1197 1.497 . S
C1211 C1210 1.438 . S
C1211 C1212 1.360 . S
C1212 C1211 1.360 . S
C1212 C1213 1.401 . S
C1212 C1217 1.446 . S
C1213 C1212 1.401 . S
C1213 C1214 1.347 . S
C1213 H1273 0.929 . S
C1214 C1213 1.347 . S
C1214 C1215 1.455 . S
C1214 H1274 0.930 . S
C1215 C1202 1.412 . S
C1215 C1214 1.455 . S
C1215 C1216 1.331 . S
C1216 C1205 1.451 . S
C1216 C1215 1.331 . S
C1216 C1217 1.497 . S
C1217 C1208 1.395 . S
C1217 C1212 1.446 . S
C1217 C1216 1.497 . S
C1218 C1219 1.582 . S
C1218 H1275 0.962 . S
C1218 H1276 0.959 . S
C1218 H1277 0.958 . S
C1219 C1218 1.582 . S
C1219 O1222 1.458 . S
C1219 H1248 0.980 . S
O1220 C1165 1.426 . S
O1220 C1166 1.334 . S
O1221 C1193 1.412 . S
O1221 C1194 1.393 . S
O1222 C1184 1.435 . S
O1222 C1219 1.458 . S
O1223 C1175 1.468 . S
O1223 C1176 1.408 . S
H1224 C1165 0.980 . S
H1225 C1164 0.959 . S
H1226 C1164 0.959 . S
H1227 C1164 0.960 . S
H1228 C1167 0.929 . S
H1229 C1171 0.929 . S
H1230 C1172 0.959 . S
H1231 C1172 0.961 . S
H1232 C1172 0.961 . S
H1233 C1173 0.960 . S
H1234 C1173 0.960 . S
H1235 C1173 0.961 . S
H1236 C1175 0.980 . S
H1237 C1174 0.961 . S
H1238 C1174 0.960 . S
H1239 C1174 0.959 . S
H1240 C1177 0.930 . S
H1241 C1181 0.931 . S
H1242 C1182 0.959 . S
H1243 C1182 0.961 . S
H1244 C1182 0.959 . S
H1245 C1183 0.960 . S
H1246 C1183 0.960 . S
H1247 C1183 0.960 . S
H1248 C1219 0.980 . S
H1249 C1185 0.930 . S
H1250 C1189 0.930 . S
H1251 C1190 0.961 . S
H1252 C1190 0.960 . S
H1253 C1190 0.958 . S
H1254 C1191 0.961 . S
H1255 C1191 0.960 . S
H1256 C1191 0.960 . S
H1257 C1193 0.980 . S
H1258 C1192 0.961 . S
H1259 C1192 0.961 . S
H1260 C1192 0.959 . S
H1261 C1195 0.932 . S
H1262 C1199 0.929 . S
H1263 C1200 0.961 . S
H1264 C1200 0.959 . S
H1265 C1200 0.959 . S
H1266 C1201 0.960 . S
H1267 C1201 0.962 . S
H1268 C1201 0.961 . S
H1269 C1203 0.929 . S
H1270 C1206 0.930 . S
H1271 C1207 0.929 . S
H1272 C1210 0.930 . S
H1273 C1213 0.929 . S
H1274 C1214 0.930 . S
H1275 C1218 0.962 . S
H1276 C1218 0.959 . S
H1277 C1218 0.958 . S
C1278 C1279 1.560 . S
C1278 H1339 0.959 . S
C1278 H1340 0.959 . S
C1278 H1341 0.960 . S
C1279 C1278 1.560 . S
C1279 O1334 1.426 . S
C1279 H1338 0.980 . S
C1280 C1281 1.407 1_455 S
C1280 C1285 1.418 . S
C1280 O1334 1.334 . S
C1281 C1280 1.407 1_655 S
C1281 C1282 1.360 . S
C1281 H1342 0.929 . S
C1282 C1281 1.360 . S
C1282 C1283 1.401 1_655 S
C1282 C1286 1.527 . S
C1283 C1282 1.401 1_455 S
C1283 C1284 1.405 . S
C1283 C1316 1.587 1_455 S
C1284 C1283 1.405 . S
C1284 C1285 1.332 . S
C1284 C1287 1.496 . S
C1285 C1280 1.418 . S
C1285 C1284 1.332 . S
C1285 H1343 0.929 . S
C1286 C1282 1.527 . S
C1286 H1344 0.959 . S
C1286 H1345 0.961 . S
C1286 H1346 0.961 . S
C1287 C1284 1.496 . S
C1287 H1347 0.960 . S
C1287 H1348 0.960 . S
C1287 H1349 0.961 . S
C1288 C1289 1.517 . S
C1288 H1351 0.987 . S
C1288 H1352 0.960 . S
C1288 H1353 0.959 . S
C1289 C1288 1.517 . S
C1289 O1337 1.468 . S
C1289 H1350 0.980 1_655 S
C1290 C1291 1.349 . S
C1290 C1295 1.367 . S
C1290 O1337 1.408 . S
C1291 C1290 1.349 . S
C1291 C1292 1.365 1_655 S
C1291 H1354 0.930 1_655 S
C1292 C1291 1.365 1_455 S
C1292 C1293 1.413 1_455 S
C1292 C1296 1.608 . S
C1293 C1292 1.413 1_655 S
C1293 C1294 1.384 . S
C1293 C1318 1.553 . S
C1294 C1293 1.384 . S
C1294 C1295 1.364 . S
C1294 C1297 1.450 . S
C1295 C1290 1.367 . S
C1295 C1294 1.364 . S
C1295 H1355 0.931 . S
C1296 C1292 1.608 . S
C1296 H1356 0.959 . S
C1296 H1357 0.961 . S
C1296 H1358 0.959 . S
C1297 C1294 1.450 . S
C1297 H1359 0.960 . S
C1297 H1360 0.960 . S
C1297 H1361 0.960 . S
C1298 C1299 1.309 . S
C1298 C1303 1.304 . S
C1298 O1336 1.435 . S
C1299 C1298 1.309 . S
C1299 C1300 1.469 . S
C1299 H1363 0.930 1_655 S
C1300 C1299 1.469 . S
C1300 C1301 1.396 . S
C1300 C1304 1.577 1_655 S
C1301 C1300 1.396 . S
C1301 C1302 1.373 . S
C1301 C1323 1.432 . S
C1302 C1301 1.373 . S
C1302 C1303 1.339 . S
C1302 C1305 1.530 . S
C1303 C1298 1.304 . S
C1303 C1302 1.339 . S
C1303 H1364 0.930 . S
C1304 C1300 1.577 1_455 S
C1304 H1365 0.961 . S
C1304 H1366 0.960 . S
C1304 H1367 0.958 . S
C1305 C1302 1.530 . S
C1305 H1368 0.961 . S
C1305 H1369 0.960 . S
C1305 H1370 0.960 . S
C1306 C1307 1.539 1_455 S
C1306 H1372 0.961 . S
C1306 H1373 0.961 . S
C1306 H1374 0.959 . S
C1307 C1306 1.539 1_655 S
C1307 O1335 1.413 1_655 S
C1307 H1371 0.978 . S
C1308 C1309 1.288 . S
C1308 C1313 1.377 1_455 S
C1308 O1335 1.393 . S
C1309 C1308 1.288 . S
C1309 C1310 1.369 . S
C1309 H1375 0.932 . S
C1310 C1309 1.369 . S
C1310 C1311 1.398 1_455 S
C1310 C1314 1.527 . S
C1311 C1310 1.398 1_655 S
C1311 C1312 1.380 . S
C1311 C1325 1.497 . S
C1312 C1311 1.380 . S
C1312 C1313 1.383 . S
C1312 C1315 1.603 . S
C1313 C1308 1.377 1_655 S
C1313 C1312 1.383 . S
C1313 H1376 0.929 . S
C1314 C1310 1.527 . S
C1314 H1377 0.961 . S
C1314 H1378 0.959 . S
C1314 H1379 0.959 . S
C1315 C1312 1.603 . S
C1315 H1380 0.960 . S
C1315 H1381 0.962 . S
C1315 H1382 0.961 . S
C1316 C1283 1.587 1_655 S
C1316 C1317 1.360 . S
C1316 C1329 1.412 . S
C1317 C1316 1.360 . S
C1317 C1318 1.365 . S
C1317 H1383 0.929 . S
C1318 C1293 1.553 . S
C1318 C1317 1.365 . S
C1318 C1319 1.404 . S
C1319 C1318 1.404 . S
C1319 C1320 1.395 . S
C1319 C1330 1.451 . S
C1320 C1319 1.395 . S
C1320 C1321 1.322 . S
C1320 H1384 0.930 . S
C1321 C1320 1.322 . S
C1321 C1322 1.459 . S
C1321 H1385 0.929 . S
C1322 C1321 1.459 . S
C1322 C1323 1.445 . S
C1322 C1331 1.395 . S
C1323 C1301 1.432 . S
C1323 C1322 1.445 . S
C1323 C1324 1.370 . S
C1324 C1323 1.370 . S
C1324 C1325 1.438 . S
C1324 H1386 0.930 . S
C1325 C1311 1.497 . S
C1325 C1324 1.438 . S
C1325 C1326 1.360 . S
C1326 C1325 1.360 . S
C1326 C1327 1.401 . S
C1326 C1331 1.446 . S
C1327 C1326 1.401 . S
C1327 C1328 1.347 . S
C1327 H1387 0.929 . S
C1328 C1327 1.347 . S
C1328 C1329 1.455 . S
C1328 H1388 0.987 . S
C1329 C1316 1.412 . S
C1329 C1328 1.455 . S
C1329 C1330 1.331 . S
C1330 C1319 1.451 . S
C1330 C1329 1.331 . S
C1330 C1331 1.497 . S
C1331 C1322 1.395 . S
C1331 C1326 1.446 . S
C1331 C1330 1.497 . S
C1332 C1333 1.582 . S
C1332 H1389 0.962 . S
C1332 H1390 0.959 . S
C1332 H1391 0.958 . S
C1333 C1332 1.582 . S
C1333 O1336 1.458 . S
C1333 H1362 0.980 . S
O1334 C1279 1.426 . S
O1334 C1280 1.334 . S
O1335 C1307 1.413 1_455 S
O1335 C1308 1.393 . S
O1336 C1298 1.435 . S
O1336 C1333 1.458 . S
O1337 C1289 1.468 . S
O1337 C1290 1.408 . S
H1338 C1279 0.980 . S
H1339 C1278 0.959 . S
H1340 C1278 0.959 . S
H1341 C1278 0.960 . S
H1342 C1281 0.929 . S
H1343 C1285 0.929 . S
H1344 C1286 0.959 . S
H1345 C1286 0.961 . S
H1346 C1286 0.961 . S
H1347 C1287 0.960 . S
H1348 C1287 0.960 . S
H1349 C1287 0.961 . S
H1350 C1289 0.980 1_455 S
H1351 C1288 0.987 . S
H1352 C1288 0.960 . S
H1353 C1288 0.959 . S
H1354 C1291 0.930 1_455 S
H1355 C1295 0.931 . S
H1356 C1296 0.959 . S
H1357 C1296 0.961 . S
H1358 C1296 0.959 . S
H1359 C1297 0.960 . S
H1360 C1297 0.960 . S
H1361 C1297 0.960 . S
H1362 C1333 0.980 . S
H1363 C1299 0.930 1_455 S
H1364 C1303 0.930 . S
H1365 C1304 0.961 . S
H1366 C1304 0.960 . S
H1367 C1304 0.958 . S
H1368 C1305 0.961 . S
H1369 C1305 0.960 . S
H1370 C1305 0.960 . S
H1371 C1307 0.978 . S
H1372 C1306 0.961 . S
H1373 C1306 0.961 . S
H1374 C1306 0.959 . S
H1375 C1309 0.932 . S
H1376 C1313 0.929 . S
H1377 C1314 0.961 . S
H1378 C1314 0.959 . S
H1379 C1314 0.959 . S
H1380 C1315 0.960 . S
H1381 C1315 0.962 . S
H1382 C1315 0.961 . S
H1383 C1317 0.929 . S
H1384 C1320 0.930 . S
H1385 C1321 0.929 . S
H1386 C1324 0.930 . S
H1387 C1327 0.929 . S
H1388 C1328 0.987 . S
H1389 C1332 0.962 . S
H1390 C1332 0.959 . S
H1391 C1332 0.958 . S
C1392 C1393 1.560 . S
C1392 H1453 0.959 . S
C1392 H1454 0.959 . S
C1392 H1455 0.960 . S
C1393 C1392 1.560 . S
C1393 O1448 1.426 . S
C1393 H1452 0.980 . S
C1394 C1395 1.407 . S
C1394 C1399 1.418 . S
C1394 O1448 1.334 . S
C1395 C1394 1.407 . S
C1395 C1396 1.360 . S
C1395 H1456 0.929 . S
C1396 C1395 1.360 . S
C1396 C1397 1.401 . S
C1396 C1400 1.527 . S
C1397 C1396 1.401 . S
C1397 C1398 1.405 . S
C1397 C1430 1.587 . S
C1398 C1397 1.405 . S
C1398 C1399 1.332 . S
C1398 C1401 1.496 . S
C1399 C1394 1.418 . S
C1399 C1398 1.332 . S
C1399 H1457 0.929 . S
C1400 C1396 1.527 . S
C1400 H1458 0.959 . S
C1400 H1459 0.961 . S
C1400 H1460 0.961 . S
C1401 C1398 1.496 . S
C1401 H1461 0.960 . S
C1401 H1462 0.960 . S
C1401 H1463 0.961 . S
C1402 C1403 1.517 . S
C1402 H1465 0.961 . S
C1402 H1466 0.960 . S
C1402 H1467 0.959 . S
C1403 C1402 1.517 . S
C1403 O1451 1.468 . S
C1403 H1464 0.980 . S
C1404 C1405 1.349 . S
C1404 C1409 1.367 . S
C1404 O1451 1.408 . S
C1405 C1404 1.349 . S
C1405 C1406 1.407 . S
C1405 H1468 0.930 . S
C1406 C1405 1.407 . S
C1406 C1407 1.449 . S
C1406 C1410 1.535 . S
C1407 C1406 1.449 . S
C1407 C1408 1.384 . S
C1407 C1432 1.553 . S
C1408 C1407 1.384 . S
C1408 C1409 1.364 . S
C1408 C1411 1.450 . S
C1409 C1404 1.367 . S
C1409 C1408 1.364 . S
C1409 H1469 0.931 . S
C1410 C1406 1.535 . S
C1410 H1470 0.959 . S
C1410 H1471 0.961 . S
C1410 H1472 0.959 . S
C1411 C1408 1.450 . S
C1411 H1473 0.960 . S
C1411 H1474 0.960 . S
C1411 H1475 0.960 . S
C1412 C1413 1.309 . S
C1412 C1417 1.304 . S
C1412 O1450 1.435 . S
C1413 C1412 1.309 . S
C1413 C1414 1.476 . S
C1413 H1477 0.930 . S
C1414 C1413 1.476 . S
C1414 C1415 1.400 . S
C1414 C1418 1.567 . S
C1415 C1414 1.400 . S
C1415 C1416 1.373 . S
C1415 C1437 1.432 . S
C1416 C1415 1.373 . S
C1416 C1417 1.339 . S
C1416 C1419 1.530 . S
C1417 C1412 1.304 . S
C1417 C1416 1.339 . S
C1417 H1478 0.930 . S
C1418 C1414 1.567 . S
C1418 H1479 0.961 . S
C1418 H1480 0.960 . S
C1418 H1481 0.958 . S
C1419 C1416 1.530 . S
C1419 H1482 0.961 . S
C1419 H1483 0.960 . S
C1419 H1484 0.960 . S
C1420 C1421 1.530 . S
C1420 H1486 0.961 . S
C1420 H1487 0.961 . S
C1420 H1488 0.959 . S
C1421 C1420 1.530 . S
C1421 O1449 1.412 . S
C1421 H1485 0.980 . S
C1422 C1423 1.288 . S
C1422 C1427 1.377 . S
C1422 O1449 1.393 . S
C1423 C1422 1.288 . S
C1423 C1424 1.369 . S
C1423 H1489 0.932 . S
C1424 C1423 1.369 . S
C1424 C1425 1.398 . S
C1424 C1428 1.527 . S
C1425 C1424 1.398 . S
C1425 C1426 1.380 . S
C1425 C1439 1.497 . S
C1426 C1425 1.380 . S
C1426 C1427 1.383 . S
C1426 C1429 1.603 . S
C1427 C1422 1.377 . S
C1427 C1426 1.383 . S
C1427 H1490 0.929 . S
C1428 C1424 1.527 . S
C1428 H1491 0.961 . S
C1428 H1492 0.959 . S
C1428 H1493 0.959 . S
C1429 C1426 1.603 . S
C1429 H1494 0.960 . S
C1429 H1495 0.962 . S
C1429 H1496 0.961 . S
C1430 C1397 1.587 . S
C1430 C1431 1.360 . S
C1430 C1443 1.412 . S
C1431 C1430 1.360 . S
C1431 C1432 1.365 . S
C1431 H1497 0.929 . S
C1432 C1407 1.553 . S
C1432 C1431 1.365 . S
C1432 C1433 1.404 . S
C1433 C1432 1.404 . S
C1433 C1434 1.395 . S
C1433 C1444 1.451 . S
C1434 C1433 1.395 . S
C1434 C1435 1.322 . S
C1434 H1498 0.930 . S
C1435 C1434 1.322 . S
C1435 C1436 1.459 . S
C1435 H1499 0.929 . S
C1436 C1435 1.459 . S
C1436 C1437 1.445 . S
C1436 C1445 1.395 . S
C1437 C1415 1.432 . S
C1437 C1436 1.445 . S
C1437 C1438 1.370 . S
C1438 C1437 1.370 . S
C1438 C1439 1.438 . S
C1438 H1500 0.930 . S
C1439 C1425 1.497 . S
C1439 C1438 1.438 . S
C1439 C1440 1.360 . S
C1440 C1439 1.360 . S
C1440 C1441 1.401 . S
C1440 C1445 1.446 . S
C1441 C1440 1.401 . S
C1441 C1442 1.347 . S
C1441 H1501 0.929 . S
C1442 C1441 1.347 . S
C1442 C1443 1.455 . S
C1442 H1502 0.930 . S
C1443 C1430 1.412 . S
C1443 C1442 1.455 . S
C1443 C1444 1.331 . S
C1444 C1433 1.451 . S
C1444 C1443 1.331 . S
C1444 C1445 1.497 . S
C1445 C1436 1.395 . S
C1445 C1440 1.446 . S
C1445 C1444 1.497 . S
C1446 C1447 1.582 . S
C1446 H1503 0.962 . S
C1446 H1504 0.959 . S
C1446 H1505 0.958 . S
C1447 C1446 1.582 . S
C1447 O1450 1.458 . S
C1447 H1476 0.980 . S
O1448 C1393 1.426 . S
O1448 C1394 1.334 . S
O1449 C1421 1.412 . S
O1449 C1422 1.393 . S
O1450 C1412 1.435 . S
O1450 C1447 1.458 . S
O1451 C1403 1.468 . S
O1451 C1404 1.408 . S
H1452 C1393 0.980 . S
H1453 C1392 0.959 . S
H1454 C1392 0.959 . S
H1455 C1392 0.960 . S
H1456 C1395 0.929 . S
H1457 C1399 0.929 . S
H1458 C1400 0.959 . S
H1459 C1400 0.961 . S
H1460 C1400 0.961 . S
H1461 C1401 0.960 . S
H1462 C1401 0.960 . S
H1463 C1401 0.961 . S
H1464 C1403 0.980 . S
H1465 C1402 0.961 . S
H1466 C1402 0.960 . S
H1467 C1402 0.959 . S
H1468 C1405 0.930 . S
H1469 C1409 0.931 . S
H1470 C1410 0.959 . S
H1471 C1410 0.961 . S
H1472 C1410 0.959 . S
H1473 C1411 0.960 . S
H1474 C1411 0.960 . S
H1475 C1411 0.960 . S
H1476 C1447 0.980 . S
H1477 C1413 0.930 . S
H1478 C1417 0.930 . S
H1479 C1418 0.961 . S
H1480 C1418 0.960 . S
H1481 C1418 0.958 . S
H1482 C1419 0.961 . S
H1483 C1419 0.960 . S
H1484 C1419 0.960 . S
H1485 C1421 0.980 . S
H1486 C1420 0.961 . S
H1487 C1420 0.961 . S
H1488 C1420 0.959 . S
H1489 C1423 0.932 . S
H1490 C1427 0.929 . S
H1491 C1428 0.961 . S
H1492 C1428 0.959 . S
H1493 C1428 0.959 . S
H1494 C1429 0.960 . S
H1495 C1429 0.962 . S
H1496 C1429 0.961 . S
H1497 C1431 0.929 . S
H1498 C1434 0.930 . S
H1499 C1435 0.929 . S
H1500 C1438 0.930 . S
H1501 C1441 0.929 . S
H1502 C1442 0.930 . S
H1503 C1446 0.962 . S
H1504 C1446 0.959 . S
H1505 C1446 0.958 . S
C1506 C1507 1.560 . S
C1506 H1567 0.959 . S
C1506 H1568 0.959 . S
C1506 H1569 0.960 . S
C1507 C1506 1.560 . S
C1507 O1562 1.426 . S
C1507 H1566 0.980 . S
C1508 C1509 1.407 1_565 S
C1508 C1513 1.418 . S
C1508 O1562 1.334 . S
C1509 C1508 1.407 1_545 S
C1509 C1510 1.360 . S
C1509 H1570 0.929 . S
C1510 C1509 1.360 . S
C1510 C1511 1.315 1_545 S
C1510 C1514 1.527 . S
C1511 C1510 1.315 1_565 S
C1511 C1512 1.487 . S
C1511 C1544 1.602 1_565 S
C1512 C1511 1.487 . S
C1512 C1513 1.332 . S
C1512 C1515 1.496 . S
C1513 C1508 1.418 . S
C1513 C1512 1.332 . S
C1513 H1571 0.929 . S
C1514 C1510 1.527 . S
C1514 H1572 0.959 . S
C1514 H1573 0.961 . S
C1514 H1574 0.961 . S
C1515 C1512 1.496 . S
C1515 H1575 0.960 . S
C1515 H1576 0.960 . S
C1515 H1577 0.961 . S
C1516 C1517 1.517 . S
C1516 H1579 0.961 1_545 S
C1516 H1580 0.960 . S
C1516 H1581 0.959 . S
C1517 C1516 1.517 . S
C1517 O1565 1.468 . S
C1517 H1578 0.980 1_545 S
C1518 C1519 1.377 . S
C1518 C1523 1.367 . S
C1518 O1565 1.408 . S
C1519 C1518 1.377 . S
C1519 C1520 1.424 1_545 S
C1519 H1582 0.885 1_545 S
C1520 C1519 1.424 1_565 S
C1520 C1521 1.449 1_565 S
C1520 C1524 1.535 . S
C1521 C1520 1.449 1_545 S
C1521 C1522 1.384 . S
C1521 C1546 1.553 . S
C1522 C1521 1.384 . S
C1522 C1523 1.364 . S
C1522 C1525 1.450 . S
C1523 C1518 1.367 . S
C1523 C1522 1.364 . S
C1523 H1583 0.931 . S
C1524 C1520 1.535 . S
C1524 H1584 0.959 . S
C1524 H1585 0.961 . S
C1524 H1586 0.959 . S
C1525 C1522 1.450 . S
C1525 H1587 0.960 . S
C1525 H1588 0.960 . S
C1525 H1589 0.960 . S
C1526 C1527 1.309 . S
C1526 C1531 1.304 . S
C1526 O1564 1.435 . S
C1527 C1526 1.309 . S
C1527 C1528 1.497 1_545 S
C1527 H1591 0.930 1_545 S
C1528 C1527 1.497 1_565 S
C1528 C1529 1.335 1_565 S
C1528 C1532 1.612 . S
C1529 C1528 1.335 1_545 S
C1529 C1530 1.373 . S
C1529 C1551 1.432 . S
C1530 C1529 1.373 . S
C1530 C1531 1.339 . S
C1530 C1533 1.530 . S
C1531 C1526 1.304 . S
C1531 C1530 1.339 . S
C1531 H1592 0.930 . S
C1532 C1528 1.612 . S
C1532 H1593 0.961 . S
C1532 H1594 0.960 . S
C1532 H1595 0.958 . S
C1533 C1530 1.530 . S
C1533 H1596 0.961 . S
C1533 H1597 0.960 . S
C1533 H1598 0.960 . S
C1534 C1535 1.530 1_565 S
C1534 H1600 0.961 . S
C1534 H1601 0.961 . S
C1534 H1602 0.959 . S
C1535 C1534 1.530 1_545 S
C1535 O1563 1.412 1_545 S
C1535 H1599 0.980 . S
C1536 C1537 1.288 . S
C1536 C1541 1.377 1_565 S
C1536 O1563 1.393 . S
C1537 C1536 1.288 . S
C1537 C1538 1.369 . S
C1537 H1603 0.932 . S
C1538 C1537 1.369 . S
C1538 C1539 1.398 1_565 S
C1538 C1542 1.527 . S
C1539 C1538 1.398 1_545 S
C1539 C1540 1.380 . S
C1539 C1553 1.497 . S
C1540 C1539 1.380 . S
C1540 C1541 1.383 . S
C1540 C1543 1.603 . S
C1541 C1536 1.377 1_545 S
C1541 C1540 1.383 . S
C1541 H1604 0.929 . S
C1542 C1538 1.527 . S
C1542 H1605 0.961 . S
C1542 H1606 0.959 . S
C1542 H1607 0.959 . S
C1543 C1540 1.603 . S
C1543 H1608 0.960 . S
C1543 H1609 0.962 . S
C1543 H1610 0.961 . S
C1544 C1511 1.602 1_545 S
C1544 C1545 1.360 . S
C1544 C1557 1.412 . S
C1545 C1544 1.360 . S
C1545 C1546 1.365 . S
C1545 H1611 0.929 . S
C1546 C1521 1.553 . S
C1546 C1545 1.365 . S
C1546 C1547 1.404 . S
C1547 C1546 1.404 . S
C1547 C1548 1.395 . S
C1547 C1558 1.451 . S
C1548 C1547 1.395 . S
C1548 C1549 1.322 . S
C1548 H1612 0.930 . S
C1549 C1548 1.322 . S
C1549 C1550 1.459 . S
C1549 H1613 0.929 . S
C1550 C1549 1.459 . S
C1550 C1551 1.445 . S
C1550 C1559 1.395 . S
C1551 C1529 1.432 . S
C1551 C1550 1.445 . S
C1551 C1552 1.370 . S
C1552 C1551 1.370 . S
C1552 C1553 1.438 . S
C1552 H1614 0.930 . S
C1553 C1539 1.497 . S
C1553 C1552 1.438 . S
C1553 C1554 1.360 . S
C1554 C1553 1.360 . S
C1554 C1555 1.401 . S
C1554 C1559 1.446 . S
C1555 C1554 1.401 . S
C1555 C1556 1.347 . S
C1555 H1615 0.929 . S
C1556 C1555 1.347 . S
C1556 C1557 1.455 . S
C1556 H1616 0.930 . S
C1557 C1544 1.412 . S
C1557 C1556 1.455 . S
C1557 C1558 1.331 . S
C1558 C1547 1.451 . S
C1558 C1557 1.331 . S
C1558 C1559 1.497 . S
C1559 C1550 1.395 . S
C1559 C1554 1.446 . S
C1559 C1558 1.497 . S
C1560 C1561 1.582 . S
C1560 H1617 0.962 . S
C1560 H1618 0.959 . S
C1560 H1619 0.958 . S
C1561 C1560 1.582 . S
C1561 O1564 1.458 . S
C1561 H1590 0.980 . S
O1562 C1507 1.426 . S
O1562 C1508 1.334 . S
O1563 C1535 1.412 1_565 S
O1563 C1536 1.393 . S
O1564 C1526 1.435 . S
O1564 C1561 1.458 . S
O1565 C1517 1.468 . S
O1565 C1518 1.408 . S
H1566 C1507 0.980 . S
H1567 C1506 0.959 . S
H1568 C1506 0.959 . S
H1569 C1506 0.960 . S
H1570 C1509 0.929 . S
H1571 C1513 0.929 . S
H1572 C1514 0.959 . S
H1573 C1514 0.961 . S
H1574 C1514 0.961 . S
H1575 C1515 0.960 . S
H1576 C1515 0.960 . S
H1577 C1515 0.961 . S
H1578 C1517 0.980 1_565 S
H1579 C1516 0.961 1_565 S
H1580 C1516 0.960 . S
H1581 C1516 0.959 . S
H1582 C1519 0.885 1_565 S
H1583 C1523 0.931 . S
H1584 C1524 0.959 . S
H1585 C1524 0.961 . S
H1586 C1524 0.959 . S
H1587 C1525 0.960 . S
H1588 C1525 0.960 . S
H1589 C1525 0.960 . S
H1590 C1561 0.980 . S
H1591 C1527 0.930 1_565 S
H1592 C1531 0.930 . S
H1593 C1532 0.961 . S
H1594 C1532 0.960 . S
H1595 C1532 0.958 . S
H1596 C1533 0.961 . S
H1597 C1533 0.960 . S
H1598 C1533 0.960 . S
H1599 C1535 0.980 . S
H1600 C1534 0.961 . S
H1601 C1534 0.961 . S
H1602 C1534 0.959 . S
H1603 C1537 0.932 . S
H1604 C1541 0.929 . S
H1605 C1542 0.961 . S
H1606 C1542 0.959 . S
H1607 C1542 0.959 . S
H1608 C1543 0.960 . S
H1609 C1543 0.962 . S
H1610 C1543 0.961 . S
H1611 C1545 0.929 . S
H1612 C1548 0.930 . S
H1613 C1549 0.929 . S
H1614 C1552 0.930 . S
H1615 C1555 0.929 . S
H1616 C1556 0.930 . S
H1617 C1560 0.962 . S
H1618 C1560 0.959 . S
H1619 C1560 0.958 . S
C1620 C1621 1.560 . S
C1620 H1681 0.959 . S
C1620 H1682 0.959 . S
C1620 H1683 0.960 . S
C1621 C1620 1.560 . S
C1621 O1676 1.426 . S
C1621 H1680 0.980 1_565 S
C1622 C1623 1.407 1_565 S
C1622 C1627 1.418 . S
C1622 O1676 1.334 . S
C1623 C1622 1.407 1_545 S
C1623 C1624 1.360 . S
C1623 H1684 0.929 . S
C1624 C1623 1.360 . S
C1624 C1625 1.401 . S
C1624 C1628 1.527 . S
C1625 C1624 1.401 . S
C1625 C1626 1.405 1_545 S
C1625 C1658 1.587 . S
C1626 C1625 1.405 1_565 S
C1626 C1627 1.332 . S
C1626 C1629 1.496 . S
C1627 C1622 1.418 . S
C1627 C1626 1.332 . S
C1627 H1685 0.929 . S
C1628 C1624 1.527 . S
C1628 H1686 0.959 . S
C1628 H1687 0.961 . S
C1628 H1688 0.961 . S
C1629 C1626 1.496 . S
C1629 H1689 0.960 . S
C1629 H1690 0.960 . S
C1629 H1691 0.961 . S
C1630 C1631 1.517 . S
C1630 H1693 0.961 . S
C1630 H1694 0.960 . S
C1630 H1695 0.959 . S
C1631 C1630 1.517 . S
C1631 O1679 1.468 . S
C1631 H1692 0.980 . S
C1632 C1633 1.349 . S
C1632 C1637 1.367 . S
C1632 O1679 1.408 . S
C1633 C1632 1.349 . S
C1633 C1634 1.407 . S
C1633 H1696 0.934 1_545 S
C1634 C1633 1.407 . S
C1634 C1635 1.449 . S
C1634 C1638 1.535 1_545 S
C1635 C1634 1.449 . S
C1635 C1636 1.384 . S
C1635 C1660 1.553 . S
C1636 C1635 1.384 . S
C1636 C1637 1.364 . S
C1636 C1639 1.450 . S
C1637 C1632 1.367 . S
C1637 C1636 1.364 . S
C1637 H1697 0.931 . S
C1638 C1634 1.535 1_565 S
C1638 H1698 0.959 . S
C1638 H1699 0.961 . S
C1638 H1700 0.959 . S
C1639 C1636 1.450 . S
C1639 H1701 0.960 . S
C1639 H1702 0.960 . S
C1639 H1703 0.960 . S
C1640 C1641 1.309 1_545 S
C1640 C1645 1.304 . S
C1640 O1678 1.435 . S
C1641 C1640 1.309 1_565 S
C1641 C1642 1.476 . S
C1641 H1705 0.930 . S
C1642 C1641 1.476 . S
C1642 C1643 1.400 1_565 S
C1642 C1646 1.567 . S
C1643 C1642 1.400 1_545 S
C1643 C1644 1.373 . S
C1643 C1665 1.432 . S
C1644 C1643 1.373 . S
C1644 C1645 1.339 . S
C1644 C1647 1.530 . S
C1645 C1640 1.304 . S
C1645 C1644 1.339 . S
C1645 H1706 0.930 . S
C1646 C1642 1.567 . S
C1646 H1707 0.961 . S
C1646 H1708 0.960 . S
C1646 H1709 0.958 . S
C1647 C1644 1.530 . S
C1647 H1710 0.961 . S
C1647 H1711 0.960 . S
C1647 H1712 0.960 . S
C1648 C1649 1.530 . S
C1648 H1714 0.961 . S
C1648 H1715 0.961 . S
C1648 H1716 0.959 . S
C1649 C1648 1.530 . S
C1649 O1677 1.412 . S
C1649 H1713 1.005 . S
C1650 C1651 1.288 . S
C1650 C1655 1.377 1_565 S
C1650 O1677 1.393 . S
C1651 C1650 1.288 . S
C1651 C1652 1.369 . S
C1651 H1717 0.932 . S
C1652 C1651 1.369 . S
C1652 C1653 1.398 . S
C1652 C1656 1.527 . S
C1653 C1652 1.398 . S
C1653 C1654 1.380 1_565 S
C1653 C1667 1.497 1_565 S
C1654 C1653 1.380 1_545 S
C1654 C1655 1.383 . S
C1654 C1657 1.603 . S
C1655 C1650 1.377 1_545 S
C1655 C1654 1.383 . S
C1655 H1718 0.929 . S
C1656 C1652 1.527 . S
C1656 H1719 0.961 . S
C1656 H1720 0.959 . S
C1656 H1721 0.959 . S
C1657 C1654 1.603 . S
C1657 H1722 0.960 . S
C1657 H1723 0.962 . S
C1657 H1724 0.961 . S
C1658 C1625 1.587 . S
C1658 C1659 1.360 . S
C1658 C1671 1.412 . S
C1659 C1658 1.360 . S
C1659 C1660 1.365 . S
C1659 H1725 0.929 . S
C1660 C1635 1.553 . S
C1660 C1659 1.365 . S
C1660 C1661 1.404 . S
C1661 C1660 1.404 . S
C1661 C1662 1.395 . S
C1661 C1672 1.451 . S
C1662 C1661 1.395 . S
C1662 C1663 1.322 . S
C1662 H1726 0.930 . S
C1663 C1662 1.322 . S
C1663 C1664 1.459 . S
C1663 H1727 0.929 . S
C1664 C1663 1.459 . S
C1664 C1665 1.445 . S
C1664 C1673 1.395 . S
C1665 C1643 1.432 . S
C1665 C1664 1.445 . S
C1665 C1666 1.370 . S
C1666 C1665 1.370 . S
C1666 C1667 1.438 . S
C1666 H1728 0.930 . S
C1667 C1653 1.497 1_545 S
C1667 C1666 1.438 . S
C1667 C1668 1.360 . S
C1668 C1667 1.360 . S
C1668 C1669 1.401 . S
C1668 C1673 1.446 . S
C1669 C1668 1.401 . S
C1669 C1670 1.347 . S
C1669 H1729 0.956 . S
C1670 C1669 1.347 . S
C1670 C1671 1.455 . S
C1670 H1730 0.930 . S
C1671 C1658 1.412 . S
C1671 C1670 1.455 . S
C1671 C1672 1.331 . S
C1672 C1661 1.451 . S
C1672 C1671 1.331 . S
C1672 C1673 1.497 . S
C1673 C1664 1.395 . S
C1673 C1668 1.446 . S
C1673 C1672 1.497 . S
C1674 C1675 1.582 . S
C1674 H1731 0.962 . S
C1674 H1732 0.959 . S
C1674 H1733 0.958 . S
C1675 C1674 1.582 . S
C1675 O1678 1.458 . S
C1675 H1704 0.980 1_545 S
O1676 C1621 1.426 . S
O1676 C1622 1.334 . S
O1677 C1649 1.412 . S
O1677 C1650 1.393 . S
O1678 C1640 1.435 . S
O1678 C1675 1.458 . S
O1679 C1631 1.468 . S
O1679 C1632 1.408 . S
H1680 C1621 0.980 1_545 S
H1681 C1620 0.959 . S
H1682 C1620 0.959 . S
H1683 C1620 0.960 . S
H1684 C1623 0.929 . S
H1685 C1627 0.929 . S
H1686 C1628 0.959 . S
H1687 C1628 0.961 . S
H1688 C1628 0.961 . S
H1689 C1629 0.960 . S
H1690 C1629 0.960 . S
H1691 C1629 0.961 . S
H1692 C1631 0.980 . S
H1693 C1630 0.961 . S
H1694 C1630 0.960 . S
H1695 C1630 0.959 . S
H1696 C1633 0.934 1_565 S
H1697 C1637 0.931 . S
H1698 C1638 0.959 . S
H1699 C1638 0.961 . S
H1700 C1638 0.959 . S
H1701 C1639 0.960 . S
H1702 C1639 0.960 . S
H1703 C1639 0.960 . S
H1704 C1675 0.980 1_565 S
H1705 C1641 0.930 . S
H1706 C1645 0.930 . S
H1707 C1646 0.961 . S
H1708 C1646 0.960 . S
H1709 C1646 0.958 . S
H1710 C1647 0.961 . S
H1711 C1647 0.960 . S
H1712 C1647 0.960 . S
H1713 C1649 1.005 . S
H1714 C1648 0.961 . S
H1715 C1648 0.961 . S
H1716 C1648 0.959 . S
H1717 C1651 0.932 . S
H1718 C1655 0.929 . S
H1719 C1656 0.961 . S
H1720 C1656 0.959 . S
H1721 C1656 0.959 . S
H1722 C1657 0.960 . S
H1723 C1657 0.962 . S
H1724 C1657 0.961 . S
H1725 C1659 0.929 . S
H1726 C1662 0.930 . S
H1727 C1663 0.929 . S
H1728 C1666 0.930 . S
H1729 C1669 0.956 . S
H1730 C1670 0.930 . S
H1731 C1674 0.962 . S
H1732 C1674 0.959 . S
H1733 C1674 0.958 . S
C1734 C1735 1.560 . S
C1734 H1795 0.959 . S
C1734 H1796 0.959 . S
C1734 H1797 0.960 . S
C1735 C1734 1.560 . S
C1735 O1790 1.426 . S
C1735 H1794 0.980 1_455 S
C1736 C1737 1.407 1_455 S
C1736 C1741 1.418 . S
C1736 O1790 1.334 . S
C1737 C1736 1.407 1_655 S
C1737 C1738 1.360 . S
C1737 H1798 0.929 . S
C1738 C1737 1.360 . S
C1738 C1739 1.401 . S
C1738 C1742 1.527 . S
C1739 C1738 1.401 . S
C1739 C1740 1.405 1_655 S
C1739 C1772 1.587 . S
C1740 C1739 1.405 1_455 S
C1740 C1741 1.332 . S
C1740 C1743 1.496 . S
C1741 C1736 1.418 . S
C1741 C1740 1.332 . S
C1741 H1799 0.929 . S
C1742 C1738 1.527 . S
C1742 H1800 0.959 . S
C1742 H1801 0.961 . S
C1742 H1802 0.961 . S
C1743 C1740 1.496 . S
C1743 H1803 0.960 . S
C1743 H1804 0.960 . S
C1743 H1805 0.961 . S
C1744 C1745 1.517 . S
C1744 H1807 0.961 . S
C1744 H1808 0.960 . S
C1744 H1809 0.959 . S
C1745 C1744 1.517 . S
C1745 O1793 1.468 . S
C1745 H1806 0.980 . S
C1746 C1747 1.349 . S
C1746 C1751 1.367 . S
C1746 O1793 1.408 . S
C1747 C1746 1.349 . S
C1747 C1748 1.407 . S
C1747 H1810 0.885 1_655 S
C1748 C1747 1.407 . S
C1748 C1749 1.449 . S
C1748 C1752 1.535 1_655 S
C1749 C1748 1.449 . S
C1749 C1750 1.384 . S
C1749 C1774 1.553 . S
C1750 C1749 1.384 . S
C1750 C1751 1.364 . S
C1750 C1753 1.450 . S
C1751 C1746 1.367 . S
C1751 C1750 1.364 . S
C1751 H1811 0.931 . S
C1752 C1748 1.535 1_455 S
C1752 H1812 0.959 . S
C1752 H1813 0.961 . S
C1752 H1814 0.959 . S
C1753 C1750 1.450 . S
C1753 H1815 0.960 . S
C1753 H1816 0.960 . S
C1753 H1817 0.960 . S
C1754 C1755 1.309 1_655 S
C1754 C1759 1.304 . S
C1754 O1792 1.435 . S
C1755 C1754 1.309 1_455 S
C1755 C1756 1.476 . S
C1755 H1819 0.930 . S
C1756 C1755 1.476 . S
C1756 C1757 1.400 1_455 S
C1756 C1760 1.567 . S
C1757 C1756 1.400 1_655 S
C1757 C1758 1.373 . S
C1757 C1779 1.432 . S
C1758 C1757 1.373 . S
C1758 C1759 1.339 . S
C1758 C1761 1.530 . S
C1759 C1754 1.304 . S
C1759 C1758 1.339 . S
C1759 H1820 0.930 . S
C1760 C1756 1.567 . S
C1760 H1821 0.961 . S
C1760 H1822 0.960 . S
C1760 H1823 0.958 . S
C1761 C1758 1.530 . S
C1761 H1824 0.961 . S
C1761 H1825 0.960 . S
C1761 H1826 0.960 . S
C1762 C1763 1.530 . S
C1762 H1828 0.961 . S
C1762 H1829 0.961 . S
C1762 H1830 0.959 . S
C1763 C1762 1.530 . S
C1763 O1791 1.412 . S
C1763 H1827 0.963 1_455 S
C1764 C1765 1.288 . S
C1764 C1769 1.377 1_455 S
C1764 O1791 1.393 . S
C1765 C1764 1.288 . S
C1765 C1766 1.369 . S
C1765 H1831 0.932 . S
C1766 C1765 1.369 . S
C1766 C1767 1.398 . S
C1766 C1770 1.527 . S
C1767 C1766 1.398 . S
C1767 C1768 1.380 1_455 S
C1767 C1781 1.497 1_455 S
C1768 C1767 1.380 1_655 S
C1768 C1769 1.383 . S
C1768 C1771 1.603 . S
C1769 C1764 1.377 1_655 S
C1769 C1768 1.383 . S
C1769 H1832 0.929 . S
C1770 C1766 1.527 . S
C1770 H1833 0.961 . S
C1770 H1834 0.959 . S
C1770 H1835 0.959 . S
C1771 C1768 1.603 . S
C1771 H1836 0.960 . S
C1771 H1837 0.962 . S
C1771 H1838 0.961 . S
C1772 C1739 1.587 . S
C1772 C1773 1.360 . S
C1772 C1785 1.412 . S
C1773 C1772 1.360 . S
C1773 C1774 1.365 . S
C1773 H1839 0.929 . S
C1774 C1749 1.553 . S
C1774 C1773 1.365 . S
C1774 C1775 1.404 . S
C1775 C1774 1.404 . S
C1775 C1776 1.395 . S
C1775 C1786 1.451 . S
C1776 C1775 1.395 . S
C1776 C1777 1.322 . S
C1776 H1840 0.930 . S
C1777 C1776 1.322 . S
C1777 C1778 1.459 . S
C1777 H1841 0.929 . S
C1778 C1777 1.459 . S
C1778 C1779 1.445 . S
C1778 C1787 1.395 . S
C1779 C1757 1.432 . S
C1779 C1778 1.445 . S
C1779 C1780 1.370 . S
C1780 C1779 1.370 . S
C1780 C1781 1.438 . S
C1780 H1842 0.930 . S
C1781 C1767 1.497 1_655 S
C1781 C1780 1.438 . S
C1781 C1782 1.360 . S
C1782 C1781 1.360 . S
C1782 C1783 1.401 . S
C1782 C1787 1.446 . S
C1783 C1782 1.401 . S
C1783 C1784 1.347 . S
C1783 H1843 0.929 . S
C1784 C1783 1.347 . S
C1784 C1785 1.455 . S
C1784 H1844 0.930 . S
C1785 C1772 1.412 . S
C1785 C1784 1.455 . S
C1785 C1786 1.331 . S
C1786 C1775 1.451 . S
C1786 C1785 1.331 . S
C1786 C1787 1.497 . S
C1787 C1778 1.395 . S
C1787 C1782 1.446 . S
C1787 C1786 1.497 . S
C1788 C1789 1.582 1_655 S
C1788 H1845 0.968 1_655 S
C1788 H1846 0.959 . S
C1788 H1847 0.958 . S
C1789 C1788 1.582 1_455 S
C1789 O1792 1.392 1_455 S
C1789 H1818 1.008 . S
O1790 C1735 1.426 . S
O1790 C1736 1.334 . S
O1791 C1763 1.412 . S
O1791 C1764 1.393 . S
O1792 C1754 1.435 . S
O1792 C1789 1.392 1_655 S
O1793 C1745 1.468 . S
O1793 C1746 1.408 . S
H1794 C1735 0.980 1_655 S
H1795 C1734 0.959 . S
H1796 C1734 0.959 . S
H1797 C1734 0.960 . S
H1798 C1737 0.929 . S
H1799 C1741 0.929 . S
H1800 C1742 0.959 . S
H1801 C1742 0.961 . S
H1802 C1742 0.961 . S
H1803 C1743 0.960 . S
H1804 C1743 0.960 . S
H1805 C1743 0.961 . S
H1806 C1745 0.980 . S
H1807 C1744 0.961 . S
H1808 C1744 0.960 . S
H1809 C1744 0.959 . S
H1810 C1747 0.885 1_455 S
H1811 C1751 0.931 . S
H1812 C1752 0.959 . S
H1813 C1752 0.961 . S
H1814 C1752 0.959 . S
H1815 C1753 0.960 . S
H1816 C1753 0.960 . S
H1817 C1753 0.960 . S
H1818 C1789 1.008 . S
H1819 C1755 0.930 . S
H1820 C1759 0.930 . S
H1821 C1760 0.961 . S
H1822 C1760 0.960 . S
H1823 C1760 0.958 . S
H1824 C1761 0.961 . S
H1825 C1761 0.960 . S
H1826 C1761 0.960 . S
H1827 C1763 0.963 1_655 S
H1828 C1762 0.961 . S
H1829 C1762 0.961 . S
H1830 C1762 0.959 . S
H1831 C1765 0.932 . S
H1832 C1769 0.929 . S
H1833 C1770 0.961 . S
H1834 C1770 0.959 . S
H1835 C1770 0.959 . S
H1836 C1771 0.960 . S
H1837 C1771 0.962 . S
H1838 C1771 0.961 . S
H1839 C1773 0.929 . S
H1840 C1776 0.930 . S
H1841 C1777 0.929 . S
H1842 C1780 0.930 . S
H1843 C1783 0.929 . S
H1844 C1784 0.930 . S
H1845 C1788 0.968 1_455 S
H1846 C1788 0.959 . S
H1847 C1788 0.958 . S
C1848 C1849 1.560 . S
C1848 H1909 0.959 . S
C1848 H1910 0.959 . S
C1848 H1911 0.960 . S
C1849 C1848 1.560 . S
C1849 O1904 1.426 . S
C1849 H1908 0.980 . S
C1850 C1851 1.407 . S
C1850 C1855 1.418 . S
C1850 O1904 1.334 . S
C1851 C1850 1.407 . S
C1851 C1852 1.360 . S
C1851 H1912 0.929 . S
C1852 C1851 1.360 . S
C1852 C1853 1.401 . S
C1852 C1856 1.527 . S
C1853 C1852 1.401 . S
C1853 C1854 1.405 . S
C1853 C1886 1.587 . S
C1854 C1853 1.405 . S
C1854 C1855 1.332 . S
C1854 C1857 1.496 . S
C1855 C1850 1.418 . S
C1855 C1854 1.332 . S
C1855 H1913 0.929 . S
C1856 C1852 1.527 . S
C1856 H1914 0.959 . S
C1856 H1915 0.961 . S
C1856 H1916 0.961 . S
C1857 C1854 1.496 . S
C1857 H1917 0.960 . S
C1857 H1918 0.960 . S
C1857 H1919 0.961 . S
C1858 C1859 1.517 . S
C1858 H1921 0.961 . S
C1858 H1922 0.960 . S
C1858 H1923 0.959 . S
C1859 C1858 1.517 . S
C1859 O1907 1.468 . S
C1859 H1920 0.980 . S
C1860 C1861 1.349 . S
C1860 C1865 1.367 . S
C1860 O1907 1.408 . S
C1861 C1860 1.349 . S
C1861 C1862 1.407 . S
C1861 H1924 0.930 . S
C1862 C1861 1.407 . S
C1862 C1863 1.449 . S
C1862 C1866 1.535 . S
C1863 C1862 1.449 . S
C1863 C1864 1.384 . S
C1863 C1888 1.553 . S
C1864 C1863 1.384 . S
C1864 C1865 1.364 . S
C1864 C1867 1.450 . S
C1865 C1860 1.367 . S
C1865 C1864 1.364 . S
C1865 H1925 0.931 . S
C1866 C1862 1.535 . S
C1866 H1926 0.959 . S
C1866 H1927 0.961 . S
C1866 H1928 0.959 . S
C1867 C1864 1.450 . S
C1867 H1929 0.960 . S
C1867 H1930 0.960 . S
C1867 H1931 0.960 . S
C1868 C1869 1.309 . S
C1868 C1873 1.304 . S
C1868 O1906 1.435 . S
C1869 C1868 1.309 . S
C1869 C1870 1.476 . S
C1869 H1933 0.930 . S
C1870 C1869 1.476 . S
C1870 C1871 1.400 . S
C1870 C1874 1.567 . S
C1871 C1870 1.400 . S
C1871 C1872 1.373 . S
C1871 C1893 1.432 . S
C1872 C1871 1.373 . S
C1872 C1873 1.339 . S
C1872 C1875 1.530 . S
C1873 C1868 1.304 . S
C1873 C1872 1.339 . S
C1873 H1934 0.930 . S
C1874 C1870 1.567 . S
C1874 H1935 0.961 . S
C1874 H1936 0.960 . S
C1874 H1937 0.958 . S
C1875 C1872 1.530 . S
C1875 H1938 0.961 . S
C1875 H1939 0.960 . S
C1875 H1940 0.960 . S
C1876 C1877 1.530 . S
C1876 H1942 0.961 . S
C1876 H1943 0.961 . S
C1876 H1944 0.959 . S
C1877 C1876 1.530 . S
C1877 O1905 1.412 . S
C1877 H1941 0.980 . S
C1878 C1879 1.288 . S
C1878 C1883 1.377 . S
C1878 O1905 1.393 . S
C1879 C1878 1.288 . S
C1879 C1880 1.369 . S
C1879 H1945 0.932 . S
C1880 C1879 1.369 . S
C1880 C1881 1.398 . S
C1880 C1884 1.527 . S
C1881 C1880 1.398 . S
C1881 C1882 1.380 . S
C1881 C1895 1.497 . S
C1882 C1881 1.380 . S
C1882 C1883 1.383 . S
C1882 C1885 1.603 . S
C1883 C1878 1.377 . S
C1883 C1882 1.383 . S
C1883 H1946 0.929 . S
C1884 C1880 1.527 . S
C1884 H1947 0.961 . S
C1884 H1948 0.959 . S
C1884 H1949 0.959 . S
C1885 C1882 1.603 . S
C1885 H1950 0.960 . S
C1885 H1951 0.962 . S
C1885 H1952 0.961 . S
C1886 C1853 1.587 . S
C1886 C1887 1.360 . S
C1886 C1899 1.412 . S
C1887 C1886 1.360 . S
C1887 C1888 1.365 . S
C1887 H1953 0.929 . S
C1888 C1863 1.553 . S
C1888 C1887 1.365 . S
C1888 C1889 1.404 . S
C1889 C1888 1.404 . S
C1889 C1890 1.395 . S
C1889 C1900 1.451 . S
C1890 C1889 1.395 . S
C1890 C1891 1.322 . S
C1890 H1954 0.930 . S
C1891 C1890 1.322 . S
C1891 C1892 1.459 . S
C1891 H1955 0.929 . S
C1892 C1891 1.459 . S
C1892 C1893 1.445 . S
C1892 C1901 1.395 . S
C1893 C1871 1.432 . S
C1893 C1892 1.445 . S
C1893 C1894 1.370 . S
C1894 C1893 1.370 . S
C1894 C1895 1.438 . S
C1894 H1956 0.930 . S
C1895 C1881 1.497 . S
C1895 C1894 1.438 . S
C1895 C1896 1.360 . S
C1896 C1895 1.360 . S
C1896 C1897 1.401 . S
C1896 C1901 1.446 . S
C1897 C1896 1.401 . S
C1897 C1898 1.347 . S
C1897 H1957 0.929 . S
C1898 C1897 1.347 . S
C1898 C1899 1.455 . S
C1898 H1958 0.930 . S
C1899 C1886 1.412 . S
C1899 C1898 1.455 . S
C1899 C1900 1.331 . S
C1900 C1889 1.451 . S
C1900 C1899 1.331 . S
C1900 C1901 1.497 . S
C1901 C1892 1.395 . S
C1901 C1896 1.446 . S
C1901 C1900 1.497 . S
C1902 C1903 1.582 . S
C1902 H1959 0.962 . S
C1902 H1960 0.959 . S
C1902 H1961 0.958 . S
C1903 C1902 1.582 . S
C1903 O1906 1.458 . S
C1903 H1932 0.980 . S
O1904 C1849 1.426 . S
O1904 C1850 1.334 . S
O1905 C1877 1.412 . S
O1905 C1878 1.393 . S
O1906 C1868 1.435 . S
O1906 C1903 1.458 . S
O1907 C1859 1.468 . S
O1907 C1860 1.408 . S
H1908 C1849 0.980 . S
H1909 C1848 0.959 . S
H1910 C1848 0.959 . S
H1911 C1848 0.960 . S
H1912 C1851 0.929 . S
H1913 C1855 0.929 . S
H1914 C1856 0.959 . S
H1915 C1856 0.961 . S
H1916 C1856 0.961 . S
H1917 C1857 0.960 . S
H1918 C1857 0.960 . S
H1919 C1857 0.961 . S
H1920 C1859 0.980 . S
H1921 C1858 0.961 . S
H1922 C1858 0.960 . S
H1923 C1858 0.959 . S
H1924 C1861 0.930 . S
H1925 C1865 0.931 . S
H1926 C1866 0.959 . S
H1927 C1866 0.961 . S
H1928 C1866 0.959 . S
H1929 C1867 0.960 . S
H1930 C1867 0.960 . S
H1931 C1867 0.960 . S
H1932 C1903 0.980 . S
H1933 C1869 0.930 . S
H1934 C1873 0.930 . S
H1935 C1874 0.961 . S
H1936 C1874 0.960 . S
H1937 C1874 0.958 . S
H1938 C1875 0.961 . S
H1939 C1875 0.960 . S
H1940 C1875 0.960 . S
H1941 C1877 0.980 . S
H1942 C1876 0.961 . S
H1943 C1876 0.961 . S
H1944 C1876 0.959 . S
H1945 C1879 0.932 . S
H1946 C1883 0.929 . S
H1947 C1884 0.961 . S
H1948 C1884 0.959 . S
H1949 C1884 0.959 . S
H1950 C1885 0.960 . S
H1951 C1885 0.962 . S
H1952 C1885 0.961 . S
H1953 C1887 0.929 . S
H1954 C1890 0.930 . S
H1955 C1891 0.929 . S
H1956 C1894 0.930 . S
H1957 C1897 0.929 . S
H1958 C1898 0.930 . S
H1959 C1902 0.962 . S
H1960 C1902 0.959 . S
H1961 C1902 0.958 . S
C1962 C1963 1.560 . S
C1962 H2023 0.959 . S
C1962 H2024 0.959 . S
C1962 H2025 0.960 . S
C1963 C1962 1.560 . S
C1963 O2018 1.426 . S
C1963 H2022 0.980 . S
C1964 C1965 1.407 . S
C1964 C1969 1.418 . S
C1964 O2018 1.334 . S
C1965 C1964 1.407 . S
C1965 C1966 1.360 . S
C1965 H2026 0.929 . S
C1966 C1965 1.360 . S
C1966 C1967 1.401 . S
C1966 C1970 1.527 . S
C1967 C1966 1.401 . S
C1967 C1968 1.405 . S
C1967 C2000 1.587 . S
C1968 C1967 1.405 . S
C1968 C1969 1.332 . S
C1968 C1971 1.496 . S
C1969 C1964 1.418 . S
C1969 C1968 1.332 . S
C1969 H2027 0.929 . S
C1970 C1966 1.527 . S
C1970 H2028 0.959 . S
C1970 H2029 0.961 . S
C1970 H2030 0.961 . S
C1971 C1968 1.496 . S
C1971 H2031 0.960 . S
C1971 H2032 0.960 . S
C1971 H2033 0.961 . S
C1972 C1973 1.517 . S
C1972 H2035 0.961 . S
C1972 H2036 0.960 . S
C1972 H2037 0.959 . S
C1973 C1972 1.517 . S
C1973 O2021 1.468 . S
C1973 H2034 0.980 . S
C1974 C1975 1.349 . S
C1974 C1979 1.367 . S
C1974 O2021 1.408 . S
C1975 C1974 1.349 . S
C1975 C1976 1.407 . S
C1975 H2038 0.930 . S
C1976 C1975 1.407 . S
C1976 C1977 1.449 . S
C1976 C1980 1.535 . S
C1977 C1976 1.449 . S
C1977 C1978 1.384 . S
C1977 C2002 1.553 . S
C1978 C1977 1.384 . S
C1978 C1979 1.364 . S
C1978 C1981 1.450 . S
C1979 C1974 1.367 . S
C1979 C1978 1.364 . S
C1979 H2039 0.931 . S
C1980 C1976 1.535 . S
C1980 H2040 0.959 . S
C1980 H2041 0.961 . S
C1980 H2042 0.959 . S
C1981 C1978 1.450 . S
C1981 H2043 0.960 . S
C1981 H2044 0.960 . S
C1981 H2045 0.960 . S
C1982 C1983 1.309 . S
C1982 C1987 1.304 . S
C1982 O2020 1.435 . S
C1983 C1982 1.309 . S
C1983 C1984 1.476 . S
C1983 H2047 0.930 . S
C1984 C1983 1.476 . S
C1984 C1985 1.400 . S
C1984 C1988 1.567 . S
C1985 C1984 1.400 . S
C1985 C1986 1.373 . S
C1985 C2007 1.432 . S
C1986 C1985 1.373 . S
C1986 C1987 1.339 . S
C1986 C1989 1.530 . S
C1987 C1982 1.304 . S
C1987 C1986 1.339 . S
C1987 H2048 0.930 . S
C1988 C1984 1.567 . S
C1988 H2049 0.961 . S
C1988 H2050 0.960 . S
C1988 H2051 0.958 . S
C1989 C1986 1.530 . S
C1989 H2052 0.961 . S
C1989 H2053 0.960 . S
C1989 H2054 0.960 . S
C1990 C1991 1.530 . S
C1990 H2056 0.961 . S
C1990 H2057 0.961 . S
C1990 H2058 0.959 . S
C1991 C1990 1.530 . S
C1991 O2019 1.412 . S
C1991 H2055 0.980 . S
C1992 C1993 1.288 . S
C1992 C1997 1.377 . S
C1992 O2019 1.393 . S
C1993 C1992 1.288 . S
C1993 C1994 1.369 . S
C1993 H2059 0.932 . S
C1994 C1993 1.369 . S
C1994 C1995 1.398 . S
C1994 C1998 1.527 . S
C1995 C1994 1.398 . S
C1995 C1996 1.380 . S
C1995 C2009 1.497 . S
C1996 C1995 1.380 . S
C1996 C1997 1.383 . S
C1996 C1999 1.603 . S
C1997 C1992 1.377 . S
C1997 C1996 1.383 . S
C1997 H2060 0.929 . S
C1998 C1994 1.527 . S
C1998 H2061 0.961 . S
C1998 H2062 0.959 . S
C1998 H2063 0.959 . S
C1999 C1996 1.603 . S
C1999 H2064 0.960 . S
C1999 H2065 0.962 . S
C1999 H2066 0.961 . S
C2000 C1967 1.587 . S
C2000 C2001 1.360 . S
C2000 C2013 1.412 . S
C2001 C2000 1.360 . S
C2001 C2002 1.365 . S
C2001 H2067 0.929 . S
C2002 C1977 1.553 . S
C2002 C2001 1.365 . S
C2002 C2003 1.404 . S
C2003 C2002 1.404 . S
C2003 C2004 1.395 . S
C2003 C2014 1.451 . S
C2004 C2003 1.395 . S
C2004 C2005 1.322 . S
C2004 H2068 0.930 . S
C2005 C2004 1.322 . S
C2005 C2006 1.459 . S
C2005 H2069 0.929 . S
C2006 C2005 1.459 . S
C2006 C2007 1.445 . S
C2006 C2015 1.395 . S
C2007 C1985 1.432 . S
C2007 C2006 1.445 . S
C2007 C2008 1.370 . S
C2008 C2007 1.370 . S
C2008 C2009 1.438 . S
C2008 H2070 0.930 . S
C2009 C1995 1.497 . S
C2009 C2008 1.438 . S
C2009 C2010 1.360 . S
C2010 C2009 1.360 . S
C2010 C2011 1.401 . S
C2010 C2015 1.446 . S
C2011 C2010 1.401 . S
C2011 C2012 1.347 . S
C2011 H2071 0.929 . S
C2012 C2011 1.347 . S
C2012 C2013 1.455 . S
C2012 H2072 0.930 . S
C2013 C2000 1.412 . S
C2013 C2012 1.455 . S
C2013 C2014 1.331 . S
C2014 C2003 1.451 . S
C2014 C2013 1.331 . S
C2014 C2015 1.497 . S
C2015 C2006 1.395 . S
C2015 C2010 1.446 . S
C2015 C2014 1.497 . S
C2016 C2017 1.582 . S
C2016 H2073 0.962 . S
C2016 H2074 0.959 . S
C2016 H2075 0.958 . S
C2017 C2016 1.582 . S
C2017 O2020 1.458 . S
C2017 H2046 0.980 . S
O2018 C1963 1.426 . S
O2018 C1964 1.334 . S
O2019 C1991 1.412 . S
O2019 C1992 1.393 . S
O2020 C1982 1.435 . S
O2020 C2017 1.458 . S
O2021 C1973 1.468 . S
O2021 C1974 1.408 . S
H2022 C1963 0.980 . S
H2023 C1962 0.959 . S
H2024 C1962 0.959 . S
H2025 C1962 0.960 . S
H2026 C1965 0.929 . S
H2027 C1969 0.929 . S
H2028 C1970 0.959 . S
H2029 C1970 0.961 . S
H2030 C1970 0.961 . S
H2031 C1971 0.960 . S
H2032 C1971 0.960 . S
H2033 C1971 0.961 . S
H2034 C1973 0.980 . S
H2035 C1972 0.961 . S
H2036 C1972 0.960 . S
H2037 C1972 0.959 . S
H2038 C1975 0.930 . S
H2039 C1979 0.931 . S
H2040 C1980 0.959 . S
H2041 C1980 0.961 . S
H2042 C1980 0.959 . S
H2043 C1981 0.960 . S
H2044 C1981 0.960 . S
H2045 C1981 0.960 . S
H2046 C2017 0.980 . S
H2047 C1983 0.930 . S
H2048 C1987 0.930 . S
H2049 C1988 0.961 . S
H2050 C1988 0.960 . S
H2051 C1988 0.958 . S
H2052 C1989 0.961 . S
H2053 C1989 0.960 . S
H2054 C1989 0.960 . S
H2055 C1991 0.980 . S
H2056 C1990 0.961 . S
H2057 C1990 0.961 . S
H2058 C1990 0.959 . S
H2059 C1993 0.932 . S
H2060 C1997 0.929 . S
H2061 C1998 0.961 . S
H2062 C1998 0.959 . S
H2063 C1998 0.959 . S
H2064 C1999 0.960 . S
H2065 C1999 0.962 . S
H2066 C1999 0.961 . S
H2067 C2001 0.929 . S
H2068 C2004 0.930 . S
H2069 C2005 0.929 . S
H2070 C2008 0.930 . S
H2071 C2011 0.929 . S
H2072 C2012 0.930 . S
H2073 C2016 0.962 . S
H2074 C2016 0.959 . S
H2075 C2016 0.958 . S
C2076 C2077 1.560 . S
C2076 H2137 0.959 . S
C2076 H2138 0.959 . S
C2076 H2139 0.960 . S
C2077 C2076 1.560 . S
C2077 O2132 1.426 . S
C2077 H2136 0.980 . S
C2078 C2079 1.407 . S
C2078 C2083 1.418 . S
C2078 O2132 1.334 . S
C2079 C2078 1.407 . S
C2079 C2080 1.360 . S
C2079 H2140 0.929 . S
C2080 C2079 1.360 . S
C2080 C2081 1.401 . S
C2080 C2084 1.527 . S
C2081 C2080 1.401 . S
C2081 C2082 1.405 . S
C2081 C2114 1.587 . S
C2082 C2081 1.405 . S
C2082 C2083 1.332 . S
C2082 C2085 1.496 . S
C2083 C2078 1.418 . S
C2083 C2082 1.332 . S
C2083 H2141 0.929 . S
C2084 C2080 1.527 . S
C2084 H2142 0.959 . S
C2084 H2143 0.961 . S
C2084 H2144 0.961 . S
C2085 C2082 1.496 . S
C2085 H2145 0.960 . S
C2085 H2146 0.960 . S
C2085 H2147 0.961 . S
C2086 C2087 1.517 . S
C2086 H2149 0.961 . S
C2086 H2150 0.960 . S
C2086 H2151 0.959 . S
C2087 C2086 1.517 . S
C2087 O2135 1.468 . S
C2087 H2148 0.980 . S
C2088 C2089 1.349 . S
C2088 C2093 1.367 . S
C2088 O2135 1.408 . S
C2089 C2088 1.349 . S
C2089 C2090 1.407 . S
C2089 H2152 0.930 . S
C2090 C2089 1.407 . S
C2090 C2091 1.449 . S
C2090 C2094 1.535 . S
C2091 C2090 1.449 . S
C2091 C2092 1.384 . S
C2091 C2116 1.553 . S
C2092 C2091 1.384 . S
C2092 C2093 1.364 . S
C2092 C2095 1.450 . S
C2093 C2088 1.367 . S
C2093 C2092 1.364 . S
C2093 H2153 0.931 . S
C2094 C2090 1.535 . S
C2094 H2154 0.959 . S
C2094 H2155 0.961 . S
C2094 H2156 0.959 . S
C2095 C2092 1.450 . S
C2095 H2157 0.960 . S
C2095 H2158 0.960 . S
C2095 H2159 0.960 . S
C2096 C2097 1.309 . S
C2096 C2101 1.304 . S
C2096 O2134 1.435 . S
C2097 C2096 1.309 . S
C2097 C2098 1.476 . S
C2097 H2161 0.930 . S
C2098 C2097 1.476 . S
C2098 C2099 1.400 . S
C2098 C2102 1.567 . S
C2099 C2098 1.400 . S
C2099 C2100 1.373 . S
C2099 C2121 1.432 . S
C2100 C2099 1.373 . S
C2100 C2101 1.339 . S
C2100 C2103 1.530 . S
C2101 C2096 1.304 . S
C2101 C2100 1.339 . S
C2101 H2162 0.930 . S
C2102 C2098 1.567 . S
C2102 H2163 0.961 . S
C2102 H2164 0.960 . S
C2102 H2165 0.958 . S
C2103 C2100 1.530 . S
C2103 H2166 0.961 . S
C2103 H2167 0.960 . S
C2103 H2168 0.960 . S
C2104 C2105 1.530 . S
C2104 H2170 0.961 . S
C2104 H2171 0.961 . S
C2104 H2172 0.959 . S
C2105 C2104 1.530 . S
C2105 O2133 1.412 . S
C2105 H2169 0.980 . S
C2106 C2107 1.288 . S
C2106 C2111 1.377 . S
C2106 O2133 1.393 . S
C2107 C2106 1.288 . S
C2107 C2108 1.369 . S
C2107 H2173 0.932 . S
C2108 C2107 1.369 . S
C2108 C2109 1.398 . S
C2108 C2112 1.527 . S
C2109 C2108 1.398 . S
C2109 C2110 1.380 . S
C2109 C2123 1.497 . S
C2110 C2109 1.380 . S
C2110 C2111 1.383 . S
C2110 C2113 1.603 . S
C2111 C2106 1.377 . S
C2111 C2110 1.383 . S
C2111 H2174 0.929 . S
C2112 C2108 1.527 . S
C2112 H2175 0.961 . S
C2112 H2176 0.959 . S
C2112 H2177 0.959 . S
C2113 C2110 1.603 . S
C2113 H2178 0.960 . S
C2113 H2179 0.962 . S
C2113 H2180 0.961 . S
C2114 C2081 1.587 . S
C2114 C2115 1.360 . S
C2114 C2127 1.412 . S
C2115 C2114 1.360 . S
C2115 C2116 1.365 . S
C2115 H2181 0.929 . S
C2116 C2091 1.553 . S
C2116 C2115 1.365 . S
C2116 C2117 1.404 . S
C2117 C2116 1.404 . S
C2117 C2118 1.395 . S
C2117 C2128 1.451 . S
C2118 C2117 1.395 . S
C2118 C2119 1.322 . S
C2118 H2182 0.930 . S
C2119 C2118 1.322 . S
C2119 C2120 1.459 . S
C2119 H2183 0.929 . S
C2120 C2119 1.459 . S
C2120 C2121 1.445 . S
C2120 C2129 1.395 . S
C2121 C2099 1.432 . S
C2121 C2120 1.445 . S
C2121 C2122 1.370 . S
C2122 C2121 1.370 . S
C2122 C2123 1.438 . S
C2122 H2184 0.930 . S
C2123 C2109 1.497 . S
C2123 C2122 1.438 . S
C2123 C2124 1.360 . S
C2124 C2123 1.360 . S
C2124 C2125 1.401 . S
C2124 C2129 1.446 . S
C2125 C2124 1.401 . S
C2125 C2126 1.347 . S
C2125 H2185 0.929 . S
C2126 C2125 1.347 . S
C2126 C2127 1.455 . S
C2126 H2186 0.930 . S
C2127 C2114 1.412 . S
C2127 C2126 1.455 . S
C2127 C2128 1.331 . S
C2128 C2117 1.451 . S
C2128 C2127 1.331 . S
C2128 C2129 1.497 . S
C2129 C2120 1.395 . S
C2129 C2124 1.446 . S
C2129 C2128 1.497 . S
C2130 C2131 1.582 . S
C2130 H2187 0.962 . S
C2130 H2188 0.959 . S
C2130 H2189 0.958 . S
C2131 C2130 1.582 . S
C2131 O2134 1.458 . S
C2131 H2160 0.980 . S
O2132 C2077 1.426 . S
O2132 C2078 1.334 . S
O2133 C2105 1.412 . S
O2133 C2106 1.393 . S
O2134 C2096 1.435 . S
O2134 C2131 1.458 . S
O2135 C2087 1.468 . S
O2135 C2088 1.408 . S
H2136 C2077 0.980 . S
H2137 C2076 0.959 . S
H2138 C2076 0.959 . S
H2139 C2076 0.960 . S
H2140 C2079 0.929 . S
H2141 C2083 0.929 . S
H2142 C2084 0.959 . S
H2143 C2084 0.961 . S
H2144 C2084 0.961 . S
H2145 C2085 0.960 . S
H2146 C2085 0.960 . S
H2147 C2085 0.961 . S
H2148 C2087 0.980 . S
H2149 C2086 0.961 . S
H2150 C2086 0.960 . S
H2151 C2086 0.959 . S
H2152 C2089 0.930 . S
H2153 C2093 0.931 . S
H2154 C2094 0.959 . S
H2155 C2094 0.961 . S
H2156 C2094 0.959 . S
H2157 C2095 0.960 . S
H2158 C2095 0.960 . S
H2159 C2095 0.960 . S
H2160 C2131 0.980 . S
H2161 C2097 0.930 . S
H2162 C2101 0.930 . S
H2163 C2102 0.961 . S
H2164 C2102 0.960 . S
H2165 C2102 0.958 . S
H2166 C2103 0.961 . S
H2167 C2103 0.960 . S
H2168 C2103 0.960 . S
H2169 C2105 0.980 . S
H2170 C2104 0.961 . S
H2171 C2104 0.961 . S
H2172 C2104 0.959 . S
H2173 C2107 0.932 . S
H2174 C2111 0.929 . S
H2175 C2112 0.961 . S
H2176 C2112 0.959 . S
H2177 C2112 0.959 . S
H2178 C2113 0.960 . S
H2179 C2113 0.962 . S
H2180 C2113 0.961 . S
H2181 C2115 0.929 . S
H2182 C2118 0.930 . S
H2183 C2119 0.929 . S
H2184 C2122 0.930 . S
H2185 C2125 0.929 . S
H2186 C2126 0.930 . S
H2187 C2130 0.962 . S
H2188 C2130 0.959 . S
H2189 C2130 0.958 . S
C2190 C2191 1.560 . S
C2190 H2251 0.959 . S
C2190 H2252 0.959 . S
C2190 H2253 0.960 . S
C2191 C2190 1.560 . S
C2191 O2246 1.426 . S
C2191 H2250 0.980 . S
C2192 C2193 1.407 . S
C2192 C2197 1.418 . S
C2192 O2246 1.334 . S
C2193 C2192 1.407 . S
C2193 C2194 1.360 . S
C2193 H2254 0.929 . S
C2194 C2193 1.360 . S
C2194 C2195 1.401 . S
C2194 C2198 1.527 . S
C2195 C2194 1.401 . S
C2195 C2196 1.405 . S
C2195 C2228 1.587 . S
C2196 C2195 1.405 . S
C2196 C2197 1.332 . S
C2196 C2199 1.496 . S
C2197 C2192 1.418 . S
C2197 C2196 1.332 . S
C2197 H2255 0.929 . S
C2198 C2194 1.527 . S
C2198 H2256 0.959 . S
C2198 H2257 0.961 . S
C2198 H2258 0.961 . S
C2199 C2196 1.496 . S
C2199 H2259 0.960 . S
C2199 H2260 0.960 . S
C2199 H2261 0.961 . S
C2200 C2201 1.517 . S
C2200 H2263 0.961 . S
C2200 H2264 0.960 . S
C2200 H2265 0.959 . S
C2201 C2200 1.517 . S
C2201 O2249 1.468 . S
C2201 H2262 0.980 . S
C2202 C2203 1.349 . S
C2202 C2207 1.367 . S
C2202 O2249 1.408 . S
C2203 C2202 1.349 . S
C2203 C2204 1.407 . S
C2203 H2266 0.930 . S
C2204 C2203 1.407 . S
C2204 C2205 1.449 . S
C2204 C2208 1.535 . S
C2205 C2204 1.449 . S
C2205 C2206 1.384 . S
C2205 C2230 1.553 . S
C2206 C2205 1.384 . S
C2206 C2207 1.364 . S
C2206 C2209 1.450 . S
C2207 C2202 1.367 . S
C2207 C2206 1.364 . S
C2207 H2267 0.931 . S
C2208 C2204 1.535 . S
C2208 H2268 0.959 . S
C2208 H2269 0.961 . S
C2208 H2270 0.959 . S
C2209 C2206 1.450 . S
C2209 H2271 0.960 . S
C2209 H2272 0.960 . S
C2209 H2273 0.960 . S
C2210 C2211 1.309 . S
C2210 C2215 1.304 . S
C2210 O2248 1.435 . S
C2211 C2210 1.309 . S
C2211 C2212 1.476 . S
C2211 H2275 0.930 . S
C2212 C2211 1.476 . S
C2212 C2213 1.400 . S
C2212 C2216 1.567 . S
C2213 C2212 1.400 . S
C2213 C2214 1.373 . S
C2213 C2235 1.432 . S
C2214 C2213 1.373 . S
C2214 C2215 1.339 . S
C2214 C2217 1.530 . S
C2215 C2210 1.304 . S
C2215 C2214 1.339 . S
C2215 H2276 0.930 . S
C2216 C2212 1.567 . S
C2216 H2277 0.961 . S
C2216 H2278 0.960 . S
C2216 H2279 0.958 . S
C2217 C2214 1.530 . S
C2217 H2280 0.961 . S
C2217 H2281 0.960 . S
C2217 H2282 0.960 . S
C2218 C2219 1.530 . S
C2218 H2284 0.961 . S
C2218 H2285 0.961 . S
C2218 H2286 0.959 . S
C2219 C2218 1.530 . S
C2219 O2247 1.412 . S
C2219 H2283 0.980 . S
C2220 C2221 1.288 . S
C2220 C2225 1.377 . S
C2220 O2247 1.393 . S
C2221 C2220 1.288 . S
C2221 C2222 1.369 . S
C2221 H2287 0.932 . S
C2222 C2221 1.369 . S
C2222 C2223 1.398 . S
C2222 C2226 1.527 . S
C2223 C2222 1.398 . S
C2223 C2224 1.380 . S
C2223 C2237 1.497 . S
C2224 C2223 1.380 . S
C2224 C2225 1.383 . S
C2224 C2227 1.603 . S
C2225 C2220 1.377 . S
C2225 C2224 1.383 . S
C2225 H2288 0.929 . S
C2226 C2222 1.527 . S
C2226 H2289 0.961 . S
C2226 H2290 0.959 . S
C2226 H2291 0.959 . S
C2227 C2224 1.603 . S
C2227 H2292 0.960 . S
C2227 H2293 0.962 . S
C2227 H2294 0.961 . S
C2228 C2195 1.587 . S
C2228 C2229 1.360 . S
C2228 C2241 1.412 . S
C2229 C2228 1.360 . S
C2229 C2230 1.365 . S
C2229 H2295 0.929 . S
C2230 C2205 1.553 . S
C2230 C2229 1.365 . S
C2230 C2231 1.404 . S
C2231 C2230 1.404 . S
C2231 C2232 1.395 . S
C2231 C2242 1.451 . S
C2232 C2231 1.395 . S
C2232 C2233 1.322 . S
C2232 H2296 0.930 . S
C2233 C2232 1.322 . S
C2233 C2234 1.459 . S
C2233 H2297 0.929 . S
C2234 C2233 1.459 . S
C2234 C2235 1.445 . S
C2234 C2243 1.395 . S
C2235 C2213 1.432 . S
C2235 C2234 1.445 . S
C2235 C2236 1.370 . S
C2236 C2235 1.370 . S
C2236 C2237 1.438 . S
C2236 H2298 0.930 . S
C2237 C2223 1.497 . S
C2237 C2236 1.438 . S
C2237 C2238 1.360 . S
C2238 C2237 1.360 . S
C2238 C2239 1.401 . S
C2238 C2243 1.446 . S
C2239 C2238 1.401 . S
C2239 C2240 1.347 . S
C2239 H2299 0.929 . S
C2240 C2239 1.347 . S
C2240 C2241 1.455 . S
C2240 H2300 0.930 . S
C2241 C2228 1.412 . S
C2241 C2240 1.455 . S
C2241 C2242 1.331 . S
C2242 C2231 1.451 . S
C2242 C2241 1.331 . S
C2242 C2243 1.497 . S
C2243 C2234 1.395 . S
C2243 C2238 1.446 . S
C2243 C2242 1.497 . S
C2244 C2245 1.582 . S
C2244 H2301 0.962 . S
C2244 H2302 0.959 . S
C2244 H2303 0.958 . S
C2245 C2244 1.582 . S
C2245 O2248 1.458 . S
C2245 H2274 0.980 . S
O2246 C2191 1.426 . S
O2246 C2192 1.334 . S
O2247 C2219 1.412 . S
O2247 C2220 1.393 . S
O2248 C2210 1.435 . S
O2248 C2245 1.458 . S
O2249 C2201 1.468 . S
O2249 C2202 1.408 . S
H2250 C2191 0.980 . S
H2251 C2190 0.959 . S
H2252 C2190 0.959 . S
H2253 C2190 0.960 . S
H2254 C2193 0.929 . S
H2255 C2197 0.929 . S
H2256 C2198 0.959 . S
H2257 C2198 0.961 . S
H2258 C2198 0.961 . S
H2259 C2199 0.960 . S
H2260 C2199 0.960 . S
H2261 C2199 0.961 . S
H2262 C2201 0.980 . S
H2263 C2200 0.961 . S
H2264 C2200 0.960 . S
H2265 C2200 0.959 . S
H2266 C2203 0.930 . S
H2267 C2207 0.931 . S
H2268 C2208 0.959 . S
H2269 C2208 0.961 . S
H2270 C2208 0.959 . S
H2271 C2209 0.960 . S
H2272 C2209 0.960 . S
H2273 C2209 0.960 . S
H2274 C2245 0.980 . S
H2275 C2211 0.930 . S
H2276 C2215 0.930 . S
H2277 C2216 0.961 . S
H2278 C2216 0.960 . S
H2279 C2216 0.958 . S
H2280 C2217 0.961 . S
H2281 C2217 0.960 . S
H2282 C2217 0.960 . S
H2283 C2219 0.980 . S
H2284 C2218 0.961 . S
H2285 C2218 0.961 . S
H2286 C2218 0.959 . S
H2287 C2221 0.932 . S
H2288 C2225 0.929 . S
H2289 C2226 0.961 . S
H2290 C2226 0.959 . S
H2291 C2226 0.959 . S
H2292 C2227 0.960 . S
H2293 C2227 0.962 . S
H2294 C2227 0.961 . S
H2295 C2229 0.929 . S
H2296 C2232 0.930 . S
H2297 C2233 0.929 . S
H2298 C2236 0.930 . S
H2299 C2239 0.929 . S
H2300 C2240 0.930 . S
H2301 C2244 0.962 . S
H2302 C2244 0.959 . S
H2303 C2244 0.958 . S
H2304 C2312 0.929 . S
H2305 C2314 0.930 . S
H2306 C2316 0.930 . S
H2307 C2319 0.929 . S
H2308 C2322 0.930 . S
H2309 C2324 0.960 . S
H2310 C2324 0.960 1_655 S
H2311 C2324 0.960 . S
C2312 H2304 0.929 . S
C2312 C2313 1.367 1_655 S
C2312 C2314 1.384 . S
C2313 C2312 1.367 1_455 S
C2313 C2319 1.395 . S
C2314 H2305 0.930 . S
C2314 C2312 1.384 . S
C2314 C2315 1.372 . S
C2315 C2314 1.372 . S
C2315 C2316 1.400 1_655 S
C2315 C2320 1.490 . S
C2316 H2306 0.930 . S
C2316 C2315 1.400 1_455 S
C2316 C2319 1.386 . S
H2317 C2333 0.930 . S
H2318 C2334 0.931 . S
C2319 H2307 0.929 . S
C2319 C2313 1.395 . S
C2319 C2316 1.386 . S
C2320 C2315 1.490 . S
C2320 C2322 1.395 . S
C2320 C2323 1.403 1_655 S
H2321 C2327 0.927 . S
C2322 H2308 0.930 . S
C2322 C2320 1.395 . S
C2322 C2325 1.403 . S
C2323 C2320 1.403 1_455 S
C2323 C2324 1.524 . S
C2323 C2327 1.406 . S
C2324 H2309 0.960 . S
C2324 H2310 0.960 1_455 S
C2324 H2311 0.960 . S
C2324 C2323 1.524 . S
C2325 C2322 1.403 . S
C2325 C2326 1.392 . S
C2325 C2329 1.495 . S
C2326 C2325 1.392 . S
C2326 C2327 1.382 1_655 S
C2326 C2328 1.478 . S
C2327 H2321 0.927 . S
C2327 C2323 1.406 . S
C2327 C2326 1.382 1_455 S
C2328 C2326 1.478 . S
C2328 C2330 1.381 . S
C2328 C2334 1.383 1_655 S
C2329 C2325 1.495 . S
C2329 H2335 0.959 . S
C2329 H2336 0.961 . S
C2329 H2337 0.960 . S
C2330 C2328 1.381 . S
C2330 C2331 1.394 . S
C2330 H2338 0.930 . S
C2331 C2330 1.394 . S
C2331 C2332 1.383 . S
C2331 H2339 0.929 . S
C2332 C2331 1.383 . S
C2332 C2333 1.377 1_655 S
C2333 H2317 0.930 . S
C2333 C2332 1.377 1_455 S
C2333 C2334 1.379 . S
C2334 H2318 0.931 . S
C2334 C2328 1.383 1_455 S
C2334 C2333 1.379 . S
H2335 C2329 0.959 . S
H2336 C2329 0.961 . S
H2337 C2329 0.960 . S
H2338 C2330 0.930 . S
H2339 C2331 0.929 . S
H2340 C2348 0.929 . S
H2341 C2350 0.930 . S
H2342 C2352 0.930 . S
H2343 C2355 0.929 . S
H2344 C2358 0.930 . S
H2345 C2360 0.960 . S
H2346 C2360 0.960 . S
H2347 C2360 0.960 . S
C2348 H2340 0.929 . S
C2348 C2349 1.377 . S
C2348 C2350 1.384 . S
C2349 C2348 1.377 . S
C2349 C2355 1.390 . S
C2350 H2341 0.930 . S
C2350 C2348 1.384 . S
C2350 C2351 1.372 . S
C2351 C2350 1.372 . S
C2351 C2352 1.400 . S
C2351 C2356 1.490 . S
C2352 H2342 0.930 . S
C2352 C2351 1.400 . S
C2352 C2355 1.386 . S
H2353 C2369 0.930 . S
H2354 C2370 0.931 . S
C2355 H2343 0.929 . S
C2355 C2349 1.390 . S
C2355 C2352 1.386 . S
C2356 C2351 1.490 . S
C2356 C2358 1.395 . S
C2356 C2359 1.403 . S
H2357 C2363 0.930 . S
C2358 H2344 0.930 . S
C2358 C2356 1.395 . S
C2358 C2361 1.403 . S
C2359 C2356 1.403 . S
C2359 C2360 1.524 . S
C2359 C2363 1.400 . S
C2360 H2345 0.960 . S
C2360 H2346 0.960 . S
C2360 H2347 0.960 . S
C2360 C2359 1.524 . S
C2361 C2358 1.403 . S
C2361 C2362 1.392 . S
C2361 C2365 1.495 . S
C2362 C2361 1.392 . S
C2362 C2363 1.385 . S
C2362 C2364 1.478 . S
C2363 H2357 0.930 . S
C2363 C2359 1.400 . S
C2363 C2362 1.385 . S
C2364 C2362 1.478 . S
C2364 C2366 1.381 . S
C2364 C2370 1.383 . S
C2365 C2361 1.495 . S
C2365 H2371 0.959 . S
C2365 H2372 0.961 . S
C2365 H2373 0.960 . S
C2366 C2364 1.381 . S
C2366 C2367 1.394 . S
C2366 H2374 0.930 . S
C2367 C2366 1.394 . S
C2367 C2368 1.383 . S
C2367 H2375 0.929 . S
C2368 C2367 1.383 . S
C2368 C2369 1.377 . S
C2369 H2353 0.930 . S
C2369 C2368 1.377 . S
C2369 C2370 1.379 . S
C2370 H2354 0.931 . S
C2370 C2364 1.383 . S
C2370 C2369 1.379 . S
H2371 C2365 0.959 . S
H2372 C2365 0.961 . S
H2373 C2365 0.960 . S
H2374 C2366 0.930 . S
H2375 C2367 0.929 . S
H2376 C2384 0.929 . S
H2377 C2386 0.930 . S
H2378 C2388 0.930 . S
H2379 C2391 0.929 . S
H2380 C2394 0.930 1_565 S
H2381 C2396 0.960 . S
H2382 C2396 0.960 . S
H2383 C2396 0.960 . S
C2384 H2376 0.929 . S
C2384 C2385 1.377 1_565 S
C2384 C2386 1.384 . S
C2385 C2384 1.377 1_545 S
C2385 C2391 1.390 . S
C2386 H2377 0.930 . S
C2386 C2384 1.384 . S
C2386 C2387 1.372 1_565 S
C2387 C2386 1.372 1_545 S
C2387 C2388 1.400 . S
C2387 C2392 1.490 . S
C2388 H2378 0.930 . S
C2388 C2387 1.400 . S
C2388 C2391 1.386 . S
H2389 C2405 0.930 . S
H2390 C2406 0.931 . S
C2391 H2379 0.929 . S
C2391 C2385 1.390 . S
C2391 C2388 1.386 . S
C2392 C2387 1.490 . S
C2392 C2394 1.395 . S
C2392 C2395 1.403 . S
H2393 C2399 0.930 . S
C2394 H2380 0.930 1_545 S
C2394 C2392 1.395 . S
C2394 C2397 1.403 . S
C2395 C2392 1.403 . S
C2395 C2396 1.524 . S
C2395 C2399 1.400 . S
C2396 H2381 0.960 . S
C2396 H2382 0.960 . S
C2396 H2383 0.960 . S
C2396 C2395 1.524 . S
C2397 C2394 1.403 . S
C2397 C2398 1.392 . S
C2397 C2401 1.496 1_545 S
C2398 C2397 1.392 . S
C2398 C2399 1.385 . S
C2398 C2400 1.478 . S
C2399 H2393 0.930 . S
C2399 C2395 1.400 . S
C2399 C2398 1.385 . S
C2400 C2398 1.478 . S
C2400 C2402 1.381 1_545 S
C2400 C2406 1.383 . S
C2401 C2397 1.496 1_565 S
C2401 H2407 0.959 . S
C2401 H2408 0.961 . S
C2401 H2409 0.960 . S
C2402 C2400 1.381 1_565 S
C2402 C2403 1.394 . S
C2402 H2410 0.930 . S
C2403 C2402 1.394 . S
C2403 C2404 1.383 1_565 S
C2403 H2411 0.929 . S
C2404 C2403 1.383 1_545 S
C2404 C2405 1.377 . S
C2405 H2389 0.930 . S
C2405 C2404 1.377 . S
C2405 C2406 1.379 . S
C2406 H2390 0.931 . S
C2406 C2400 1.383 . S
C2406 C2405 1.379 . S
H2407 C2401 0.959 . S
H2408 C2401 0.961 . S
H2409 C2401 0.960 . S
H2410 C2402 0.930 . S
H2411 C2403 0.929 . S
H2412 C2420 0.929 . S
H2413 C2422 0.930 . S
H2414 C2424 0.930 . S
H2415 C2427 0.929 . S
H2416 C2430 0.930 . S
H2417 C2432 0.995 . S
H2418 C2432 1.017 . S
H2419 C2432 0.878 1_545 S
C2420 H2412 0.929 . S
C2420 C2421 1.432 . S
C2420 C2422 1.384 . S
C2421 C2420 1.432 . S
C2421 C2427 1.367 1_565 S
C2422 H2413 0.930 . S
C2422 C2420 1.384 . S
C2422 C2423 1.372 . S
C2423 C2422 1.372 . S
C2423 C2424 1.400 1_565 S
C2423 C2428 1.490 . S
C2424 H2414 0.930 . S
C2424 C2423 1.400 1_545 S
C2424 C2427 1.386 . S
H2425 C2441 0.930 . S
H2426 C2442 0.931 . S
C2427 H2415 0.929 . S
C2427 C2421 1.367 1_545 S
C2427 C2424 1.386 . S
C2428 C2423 1.490 . S
C2428 C2430 1.395 . S
C2428 C2431 1.403 . S
H2429 C2435 0.930 . S
C2430 H2416 0.930 . S
C2430 C2428 1.395 . S
C2430 C2433 1.403 . S
C2431 C2428 1.403 . S
C2431 C2432 1.513 . S
C2431 C2435 1.400 . S
C2432 H2417 0.995 . S
C2432 H2418 1.017 . S
C2432 H2419 0.878 1_565 S
C2432 C2431 1.513 . S
C2433 C2430 1.403 . S
C2433 C2434 1.392 . S
C2433 C2437 1.495 . S
C2434 C2433 1.392 . S
C2434 C2435 1.385 . S
C2434 C2436 1.478 . S
C2435 H2429 0.930 . S
C2435 C2431 1.400 . S
C2435 C2434 1.385 . S
C2436 C2434 1.478 . S
C2436 C2438 1.381 . S
C2436 C2442 1.383 1_565 S
C2437 C2433 1.495 . S
C2437 H2443 0.959 . S
C2437 H2444 0.961 1_565 S
C2437 H2445 0.960 . S
C2438 C2436 1.381 . S
C2438 C2439 1.394 . S
C2438 H2446 0.930 . S
C2439 C2438 1.394 . S
C2439 C2440 1.383 . S
C2439 H2447 0.929 . S
C2440 C2439 1.383 . S
C2440 C2441 1.377 1_565 S
C2441 H2425 0.930 . S
C2441 C2440 1.377 1_545 S
C2441 C2442 1.379 . S
C2442 H2426 0.931 . S
C2442 C2436 1.383 1_545 S
C2442 C2441 1.379 . S
H2443 C2437 0.959 . S
H2444 C2437 0.961 1_545 S
H2445 C2437 0.960 . S
H2446 C2438 0.930 . S
H2447 C2439 0.929 . S
H2448 C2456 0.929 . S
H2449 C2458 0.930 . S
H2450 C2460 0.930 1_655 S
H2451 C2463 0.929 1_655 S
H2452 C2466 0.930 . S
H2453 C2468 0.960 . S
H2454 C2468 0.960 . S
H2455 C2468 0.960 . S
C2456 H2448 0.929 . S
C2456 C2457 1.377 . S
C2456 C2458 1.384 . S
C2457 C2456 1.377 . S
C2457 C2463 1.390 . S
C2458 H2449 0.930 . S
C2458 C2456 1.384 . S
C2458 C2459 1.372 . S
C2459 C2458 1.372 . S
C2459 C2460 1.400 . S
C2459 C2464 1.490 . S
C2460 H2450 0.930 1_455 S
C2460 C2459 1.400 . S
C2460 C2463 1.386 . S
H2461 C2477 0.930 . S
H2462 C2478 0.931 . S
C2463 H2451 0.929 1_455 S
C2463 C2457 1.390 . S
C2463 C2460 1.386 . S
C2464 C2459 1.490 . S
C2464 C2466 1.395 . S
C2464 C2467 1.403 . S
H2465 C2471 0.930 . S
C2466 H2452 0.930 . S
C2466 C2464 1.395 . S
C2466 C2469 1.403 . S
C2467 C2464 1.403 . S
C2467 C2468 1.524 . S
C2467 C2471 1.400 . S
C2468 H2453 0.960 . S
C2468 H2454 0.960 . S
C2468 H2455 0.960 . S
C2468 C2467 1.524 . S
C2469 C2466 1.403 . S
C2469 C2470 1.392 . S
C2469 C2473 1.503 . S
C2470 C2469 1.392 . S
C2470 C2471 1.385 . S
C2470 C2472 1.478 . S
C2471 H2465 0.930 . S
C2471 C2467 1.400 . S
C2471 C2470 1.385 . S
C2472 C2470 1.478 . S
C2472 C2474 1.381 . S
C2472 C2478 1.383 1_455 S
C2473 C2469 1.503 . S
C2473 H2479 1.027 1_455 S
C2473 H2480 0.896 1_455 S
C2473 H2481 0.996 . S
C2474 C2472 1.381 . S
C2474 C2475 1.394 . S
C2474 H2482 0.930 . S
C2475 C2474 1.394 . S
C2475 C2476 1.383 . S
C2475 H2483 0.929 . S
C2476 C2475 1.383 . S
C2476 C2477 1.377 1_455 S
C2477 H2461 0.930 . S
C2477 C2476 1.377 1_655 S
C2477 C2478 1.379 . S
C2478 H2462 0.931 . S
C2478 C2472 1.383 1_655 S
C2478 C2477 1.379 . S
H2479 C2473 1.027 1_655 S
H2480 C2473 0.896 1_655 S
H2481 C2473 0.996 . S
H2482 C2474 0.930 . S
H2483 C2475 0.929 . S
H2484 C2492 0.929 . S
H2485 C2494 0.930 . S
H2486 C2496 0.930 . S
H2487 C2499 0.929 . S
H2488 C2502 0.930 . S
H2489 C2504 0.960 . S
H2490 C2504 0.960 . S
H2491 C2504 0.960 . S
C2492 H2484 0.929 . S
C2492 C2493 1.377 . S
C2492 C2494 1.384 . S
C2493 C2492 1.377 . S
C2493 C2499 1.390 . S
C2494 H2485 0.930 . S
C2494 C2492 1.384 . S
C2494 C2495 1.372 . S
C2495 C2494 1.372 . S
C2495 C2496 1.400 . S
C2495 C2500 1.490 . S
C2496 H2486 0.930 . S
C2496 C2495 1.400 . S
C2496 C2499 1.386 . S
H2497 C2513 0.930 . S
H2498 C2514 0.931 . S
C2499 H2487 0.929 . S
C2499 C2493 1.390 . S
C2499 C2496 1.386 . S
C2500 C2495 1.490 . S
C2500 C2502 1.395 . S
C2500 C2503 1.403 . S
H2501 C2507 0.930 . S
C2502 H2488 0.930 . S
C2502 C2500 1.395 . S
C2502 C2505 1.403 . S
C2503 C2500 1.403 . S
C2503 C2504 1.524 . S
C2503 C2507 1.400 . S
C2504 H2489 0.960 . S
C2504 H2490 0.960 . S
C2504 H2491 0.960 . S
C2504 C2503 1.524 . S
C2505 C2502 1.403 . S
C2505 C2506 1.392 . S
C2505 C2509 1.495 . S
C2506 C2505 1.392 . S
C2506 C2507 1.385 . S
C2506 C2508 1.478 . S
C2507 H2501 0.930 . S
C2507 C2503 1.400 . S
C2507 C2506 1.385 . S
C2508 C2506 1.478 . S
C2508 C2510 1.381 . S
C2508 C2514 1.383 . S
C2509 C2505 1.495 . S
C2509 H2515 0.959 . S
C2509 H2516 0.961 . S
C2509 H2517 0.960 . S
C2510 C2508 1.381 . S
C2510 C2511 1.394 . S
C2510 H2518 0.930 . S
C2511 C2510 1.394 . S
C2511 C2512 1.383 . S
C2511 H2519 0.929 . S
C2512 C2511 1.383 . S
C2512 C2513 1.377 . S
C2513 H2497 0.930 . S
C2513 C2512 1.377 . S
C2513 C2514 1.379 . S
C2514 H2498 0.931 . S
C2514 C2508 1.383 . S
C2514 C2513 1.379 . S
H2515 C2509 0.959 . S
H2516 C2509 0.961 . S
H2517 C2509 0.960 . S
H2518 C2510 0.930 . S
H2519 C2511 0.929 . S
H2520 C2528 0.929 . S
H2521 C2530 0.930 . S
H2522 C2532 0.930 . S
H2523 C2535 0.929 . S
H2524 C2538 0.930 . S
H2525 C2540 0.960 . S
H2526 C2540 0.960 . S
H2527 C2540 0.960 . S
C2528 H2520 0.929 . S
C2528 C2529 1.377 . S
C2528 C2530 1.384 . S
C2529 C2528 1.377 . S
C2529 C2535 1.390 1_455 S
C2530 H2521 0.930 . S
C2530 C2528 1.384 . S
C2530 C2531 1.372 . S
C2531 C2530 1.372 . S
C2531 C2532 1.400 1_455 S
C2531 C2536 1.490 . S
C2532 H2522 0.930 . S
C2532 C2531 1.400 1_655 S
C2532 C2535 1.386 . S
H2533 C2549 0.930 . S
H2534 C2550 0.931 . S
C2535 H2523 0.929 . S
C2535 C2529 1.390 1_655 S
C2535 C2532 1.386 . S
C2536 C2531 1.490 . S
C2536 C2538 1.395 . S
C2536 C2539 1.403 1_455 S
H2537 C2543 0.930 . S
C2538 H2524 0.930 . S
C2538 C2536 1.395 . S
C2538 C2541 1.403 . S
C2539 C2536 1.403 1_655 S
C2539 C2540 1.524 . S
C2539 C2543 1.400 . S
C2540 H2525 0.960 . S
C2540 H2526 0.960 . S
C2540 H2527 0.960 . S
C2540 C2539 1.524 . S
C2541 C2538 1.403 . S
C2541 C2542 1.392 . S
C2541 C2545 1.495 . S
C2542 C2541 1.392 . S
C2542 C2543 1.385 1_455 S
C2542 C2544 1.478 . S
C2543 H2537 0.930 . S
C2543 C2539 1.400 . S
C2543 C2542 1.385 1_655 S
C2544 C2542 1.478 . S
C2544 C2546 1.381 . S
C2544 C2550 1.383 1_455 S
C2545 C2541 1.495 . S
C2545 H2551 0.959 . S
C2545 H2552 0.961 . S
C2545 H2553 0.960 . S
C2546 C2544 1.381 . S
C2546 C2547 1.394 . S
C2546 H2554 0.930 . S
C2547 C2546 1.394 . S
C2547 C2548 1.383 . S
C2547 H2555 0.929 . S
C2548 C2547 1.383 . S
C2548 C2549 1.377 1_455 S
C2549 H2533 0.930 . S
C2549 C2548 1.377 1_655 S
C2549 C2550 1.379 . S
C2550 H2534 0.931 . S
C2550 C2544 1.383 1_655 S
C2550 C2549 1.379 . S
H2551 C2545 0.959 . S
H2552 C2545 0.961 . S
H2553 C2545 0.960 . S
H2554 C2546 0.930 . S
H2555 C2547 0.929 . S
H2556 C2564 0.929 . S
H2557 C2566 0.930 . S
H2558 C2568 0.930 . S
H2559 C2571 0.929 . S
H2560 C2574 0.930 . S
H2561 C2576 0.960 . S
H2562 C2576 0.960 . S
H2563 C2576 0.960 . S
C2564 H2556 0.929 . S
C2564 C2565 1.377 . S
C2564 C2566 1.384 . S
C2565 C2564 1.377 . S
C2565 C2571 1.390 . S
C2566 H2557 0.930 . S
C2566 C2564 1.384 . S
C2566 C2567 1.372 . S
C2567 C2566 1.372 . S
C2567 C2568 1.400 . S
C2567 C2572 1.490 . S
C2568 H2558 0.930 . S
C2568 C2567 1.400 . S
C2568 C2571 1.386 . S
H2569 C2585 0.930 . S
H2570 C2586 0.931 . S
C2571 H2559 0.929 . S
C2571 C2565 1.390 . S
C2571 C2568 1.386 . S
C2572 C2567 1.490 . S
C2572 C2574 1.395 . S
C2572 C2575 1.403 . S
H2573 C2579 0.930 . S
C2574 H2560 0.930 . S
C2574 C2572 1.395 . S
C2574 C2577 1.403 . S
C2575 C2572 1.403 . S
C2575 C2576 1.524 . S
C2575 C2579 1.400 . S
C2576 H2561 0.960 . S
C2576 H2562 0.960 . S
C2576 H2563 0.960 . S
C2576 C2575 1.524 . S
C2577 C2574 1.403 . S
C2577 C2578 1.392 . S
C2577 C2581 1.495 . S
C2578 C2577 1.392 . S
C2578 C2579 1.385 . S
C2578 C2580 1.478 . S
C2579 H2573 0.930 . S
C2579 C2575 1.400 . S
C2579 C2578 1.385 . S
C2580 C2578 1.478 . S
C2580 C2582 1.381 . S
C2580 C2586 1.383 . S
C2581 C2577 1.495 . S
C2581 H2587 0.959 . S
C2581 H2588 0.961 . S
C2581 H2589 0.960 . S
C2582 C2580 1.381 . S
C2582 C2583 1.394 . S
C2582 H2590 0.930 . S
C2583 C2582 1.394 . S
C2583 C2584 1.383 . S
C2583 H2591 0.929 . S
C2584 C2583 1.383 . S
C2584 C2585 1.377 . S
C2585 H2569 0.930 . S
C2585 C2584 1.377 . S
C2585 C2586 1.379 . S
C2586 H2570 0.931 . S
C2586 C2580 1.383 . S
C2586 C2585 1.379 . S
H2587 C2581 0.959 . S
H2588 C2581 0.961 . S
H2589 C2581 0.960 . S
H2590 C2582 0.930 . S
H2591 C2583 0.929 . S
H2592 C2600 0.929 . S
H2593 C2602 0.930 . S
H2594 C2604 0.930 . S
H2595 C2607 0.929 . S
H2596 C2610 0.930 . S
H2597 C2612 0.960 . S
H2598 C2612 0.960 . S
H2599 C2612 0.960 1_545 S
C2600 H2592 0.929 . S
C2600 C2601 1.377 . S
C2600 C2602 1.384 . S
C2601 C2600 1.377 . S
C2601 C2607 1.390 1_565 S
C2602 H2593 0.930 . S
C2602 C2600 1.384 . S
C2602 C2603 1.372 . S
C2603 C2602 1.372 . S
C2603 C2604 1.400 1_565 S
C2603 C2608 1.490 . S
C2604 H2594 0.930 . S
C2604 C2603 1.400 1_545 S
C2604 C2607 1.386 . S
H2605 C2621 0.930 . S
H2606 C2622 0.931 . S
C2607 H2595 0.929 . S
C2607 C2601 1.390 1_545 S
C2607 C2604 1.386 . S
C2608 C2603 1.490 . S
C2608 C2610 1.395 . S
C2608 C2611 1.403 . S
H2609 C2615 0.930 . S
C2610 H2596 0.930 . S
C2610 C2608 1.395 . S
C2610 C2613 1.403 . S
C2611 C2608 1.403 . S
C2611 C2612 1.524 . S
C2611 C2615 1.400 . S
C2612 H2597 0.960 . S
C2612 H2598 0.960 . S
C2612 H2599 0.960 1_565 S
C2612 C2611 1.524 . S
C2613 C2610 1.403 . S
C2613 C2614 1.392 . S
C2613 C2617 1.495 . S
C2614 C2613 1.392 . S
C2614 C2615 1.385 . S
C2614 C2616 1.478 . S
C2615 H2609 0.930 . S
C2615 C2611 1.400 . S
C2615 C2614 1.385 . S
C2616 C2614 1.478 . S
C2616 C2618 1.381 . S
C2616 C2622 1.383 1_565 S
C2617 C2613 1.495 . S
C2617 H2623 0.959 . S
C2617 H2624 0.961 1_565 S
C2617 H2625 0.960 . S
C2618 C2616 1.381 . S
C2618 C2619 1.394 . S
C2618 H2626 0.930 . S
C2619 C2618 1.394 . S
C2619 C2620 1.383 . S
C2619 H2627 0.929 . S
C2620 C2619 1.383 . S
C2620 C2621 1.377 1_565 S
C2621 H2605 0.930 . S
C2621 C2620 1.377 1_545 S
C2621 C2622 1.379 . S
C2622 H2606 0.931 . S
C2622 C2616 1.383 1_545 S
C2622 C2621 1.379 . S
H2623 C2617 0.959 . S
H2624 C2617 0.961 1_545 S
H2625 C2617 0.960 . S
H2626 C2618 0.930 . S
H2627 C2619 0.929 . S
H2628 C2636 0.929 . S
H2629 C2638 0.930 . S
H2630 C2640 0.930 . S
H2631 C2643 0.929 . S
H2632 C2646 0.930 . S
H2633 C2648 0.960 . S
H2634 C2648 0.960 1_545 S
H2635 C2648 0.960 . S
C2636 H2628 0.929 . S
C2636 C2637 1.377 . S
C2636 C2638 1.384 . S
C2637 C2636 1.377 . S
C2637 C2643 1.390 1_545 S
C2638 H2629 0.930 . S
C2638 C2636 1.384 . S
C2638 C2639 1.372 . S
C2639 C2638 1.372 . S
C2639 C2640 1.400 1_545 S
C2639 C2644 1.490 . S
C2640 H2630 0.930 . S
C2640 C2639 1.400 1_565 S
C2640 C2643 1.386 . S
H2641 C2657 0.930 . S
H2642 C2658 0.931 . S
C2643 H2631 0.929 . S
C2643 C2637 1.390 1_565 S
C2643 C2640 1.386 . S
C2644 C2639 1.490 . S
C2644 C2646 1.395 . S
C2644 C2647 1.403 . S
H2645 C2651 0.907 1_565 S
C2646 H2632 0.930 . S
C2646 C2644 1.395 . S
C2646 C2649 1.403 . S
C2647 C2644 1.403 . S
C2647 C2648 1.524 1_545 S
C2647 C2651 1.374 . S
C2648 H2633 0.960 . S
C2648 H2634 0.960 1_565 S
C2648 H2635 0.960 . S
C2648 C2647 1.524 1_565 S
C2649 C2646 1.403 . S
C2649 C2650 1.392 . S
C2649 C2653 1.495 . S
C2650 C2649 1.392 . S
C2650 C2651 1.440 . S
C2650 C2652 1.478 . S
C2651 H2645 0.907 1_545 S
C2651 C2647 1.374 . S
C2651 C2650 1.440 . S
C2652 C2650 1.478 . S
C2652 C2654 1.381 . S
C2652 C2658 1.383 1_545 S
C2653 C2649 1.495 . S
C2653 H2659 0.959 . S
C2653 H2660 0.961 . S
C2653 H2661 0.960 . S
C2654 C2652 1.381 . S
C2654 C2655 1.394 . S
C2654 H2662 0.930 . S
C2655 C2654 1.394 . S
C2655 C2656 1.383 . S
C2655 H2663 0.929 . S
C2656 C2655 1.383 . S
C2656 C2657 1.377 1_545 S
C2657 H2641 0.930 . S
C2657 C2656 1.377 1_565 S
C2657 C2658 1.379 . S
C2658 H2642 0.931 . S
C2658 C2652 1.383 1_565 S
C2658 C2657 1.379 . S
H2659 C2653 0.959 . S
H2660 C2653 0.961 . S
H2661 C2653 0.960 . S
H2662 C2654 0.930 . S
H2663 C2655 0.929 . S
H2664 C2672 0.929 . S
H2665 C2674 0.930 . S
H2666 C2676 0.930 . S
H2667 C2679 0.929 . S
H2668 C2682 0.930 . S
H2669 C2684 0.960 . S
H2670 C2684 0.960 . S
H2671 C2684 0.960 . S
C2672 H2664 0.929 . S
C2672 C2673 1.377 . S
C2672 C2674 1.384 . S
C2673 C2672 1.377 . S
C2673 C2679 1.390 1_655 S
C2674 H2665 0.930 . S
C2674 C2672 1.384 . S
C2674 C2675 1.372 . S
C2675 C2674 1.372 . S
C2675 C2676 1.400 1_655 S
C2675 C2680 1.490 . S
C2676 H2666 0.930 . S
C2676 C2675 1.400 1_455 S
C2676 C2679 1.386 . S
H2677 C2693 0.930 . S
H2678 C2694 0.931 . S
C2679 H2667 0.929 . S
C2679 C2673 1.390 1_455 S
C2679 C2676 1.386 . S
C2680 C2675 1.490 . S
C2680 C2682 1.395 . S
C2680 C2683 1.403 1_655 S
H2681 C2687 0.930 . S
C2682 H2668 0.930 . S
C2682 C2680 1.395 . S
C2682 C2685 1.403 . S
C2683 C2680 1.403 1_455 S
C2683 C2684 1.524 . S
C2683 C2687 1.400 . S
C2684 H2669 0.960 . S
C2684 H2670 0.960 . S
C2684 H2671 0.960 . S
C2684 C2683 1.524 . S
C2685 C2682 1.403 . S
C2685 C2686 1.392 . S
C2685 C2689 1.495 . S
C2686 C2685 1.392 . S
C2686 C2687 1.385 1_655 S
C2686 C2688 1.478 . S
C2687 H2681 0.930 . S
C2687 C2683 1.400 . S
C2687 C2686 1.385 1_455 S
C2688 C2686 1.478 . S
C2688 C2690 1.381 . S
C2688 C2694 1.383 1_655 S
C2689 C2685 1.495 . S
C2689 H2695 0.959 . S
C2689 H2696 0.961 . S
C2689 H2697 0.960 . S
C2690 C2688 1.381 . S
C2690 C2691 1.394 . S
C2690 H2698 0.930 . S
C2691 C2690 1.394 . S
C2691 C2692 1.383 . S
C2691 H2699 0.929 . S
C2692 C2691 1.383 . S
C2692 C2693 1.377 1_655 S
C2693 H2677 0.930 . S
C2693 C2692 1.377 1_455 S
C2693 C2694 1.379 . S
C2694 H2678 0.931 . S
C2694 C2688 1.383 1_455 S
C2694 C2693 1.379 . S
H2695 C2689 0.959 . S
H2696 C2689 0.961 . S
H2697 C2689 0.960 . S
H2698 C2690 0.930 . S
H2699 C2691 0.929 . S
H2700 C2708 0.929 . S
H2701 C2710 0.930 . S
H2702 C2712 0.930 . S
H2703 C2715 0.929 . S
H2704 C2718 0.930 . S
H2705 C2720 0.960 . S
H2706 C2720 0.960 . S
H2707 C2720 0.960 . S
C2708 H2700 0.929 . S
C2708 C2709 1.377 . S
C2708 C2710 1.384 . S
C2709 C2708 1.377 . S
C2709 C2715 1.390 . S
C2710 H2701 0.930 . S
C2710 C2708 1.384 . S
C2710 C2711 1.372 . S
C2711 C2710 1.372 . S
C2711 C2712 1.400 . S
C2711 C2716 1.490 . S
C2712 H2702 0.930 . S
C2712 C2711 1.400 . S
C2712 C2715 1.386 . S
H2713 C2729 0.930 . S
H2714 C2730 0.931 . S
C2715 H2703 0.929 . S
C2715 C2709 1.390 . S
C2715 C2712 1.386 . S
C2716 C2711 1.490 . S
C2716 C2718 1.395 . S
C2716 C2719 1.403 . S
H2717 C2723 0.930 . S
C2718 H2704 0.930 . S
C2718 C2716 1.395 . S
C2718 C2721 1.403 . S
C2719 C2716 1.403 . S
C2719 C2720 1.524 . S
C2719 C2723 1.400 . S
C2720 H2705 0.960 . S
C2720 H2706 0.960 . S
C2720 H2707 0.960 . S
C2720 C2719 1.524 . S
C2721 C2718 1.403 . S
C2721 C2722 1.392 . S
C2721 C2725 1.495 . S
C2722 C2721 1.392 . S
C2722 C2723 1.385 . S
C2722 C2724 1.478 . S
C2723 H2717 0.930 . S
C2723 C2719 1.400 . S
C2723 C2722 1.385 . S
C2724 C2722 1.478 . S
C2724 C2726 1.381 . S
C2724 C2730 1.383 . S
C2725 C2721 1.495 . S
C2725 H2731 0.959 . S
C2725 H2732 0.961 . S
C2725 H2733 0.960 . S
C2726 C2724 1.381 . S
C2726 C2727 1.394 . S
C2726 H2734 0.930 . S
C2727 C2726 1.394 . S
C2727 C2728 1.383 . S
C2727 H2735 0.929 . S
C2728 C2727 1.383 . S
C2728 C2729 1.377 . S
C2729 H2713 0.930 . S
C2729 C2728 1.377 . S
C2729 C2730 1.379 . S
C2730 H2714 0.931 . S
C2730 C2724 1.383 . S
C2730 C2729 1.379 . S
H2731 C2725 0.959 . S
H2732 C2725 0.961 . S
H2733 C2725 0.960 . S
H2734 C2726 0.930 . S
H2735 C2727 0.929 . S
H2736 C2744 0.929 . S
H2737 C2746 0.930 . S
H2738 C2748 0.930 . S
H2739 C2751 0.929 . S
H2740 C2754 0.930 . S
H2741 C2756 0.960 . S
H2742 C2756 0.960 . S
H2743 C2756 0.960 . S
C2744 H2736 0.929 . S
C2744 C2745 1.377 . S
C2744 C2746 1.384 . S
C2745 C2744 1.377 . S
C2745 C2751 1.390 . S
C2746 H2737 0.930 . S
C2746 C2744 1.384 . S
C2746 C2747 1.372 . S
C2747 C2746 1.372 . S
C2747 C2748 1.400 . S
C2747 C2752 1.490 . S
C2748 H2738 0.930 . S
C2748 C2747 1.400 . S
C2748 C2751 1.386 . S
H2749 C2765 0.930 . S
H2750 C2766 0.931 . S
C2751 H2739 0.929 . S
C2751 C2745 1.390 . S
C2751 C2748 1.386 . S
C2752 C2747 1.490 . S
C2752 C2754 1.395 . S
C2752 C2755 1.403 . S
H2753 C2759 0.930 . S
C2754 H2740 0.930 . S
C2754 C2752 1.395 . S
C2754 C2757 1.403 . S
C2755 C2752 1.403 . S
C2755 C2756 1.524 . S
C2755 C2759 1.400 . S
C2756 H2741 0.960 . S
C2756 H2742 0.960 . S
C2756 H2743 0.960 . S
C2756 C2755 1.524 . S
C2757 C2754 1.403 . S
C2757 C2758 1.392 . S
C2757 C2761 1.495 . S
C2758 C2757 1.392 . S
C2758 C2759 1.385 . S
C2758 C2760 1.478 . S
C2759 H2753 0.930 . S
C2759 C2755 1.400 . S
C2759 C2758 1.385 . S
C2760 C2758 1.478 . S
C2760 C2762 1.381 . S
C2760 C2766 1.383 . S
C2761 C2757 1.495 . S
C2761 H2767 0.959 . S
C2761 H2768 0.961 . S
C2761 H2769 0.960 . S
C2762 C2760 1.381 . S
C2762 C2763 1.394 . S
C2762 H2770 0.930 . S
C2763 C2762 1.394 . S
C2763 C2764 1.383 . S
C2763 H2771 0.929 . S
C2764 C2763 1.383 . S
C2764 C2765 1.377 . S
C2765 H2749 0.930 . S
C2765 C2764 1.377 . S
C2765 C2766 1.379 . S
C2766 H2750 0.931 . S
C2766 C2760 1.383 . S
C2766 C2765 1.379 . S
H2767 C2761 0.959 . S
H2768 C2761 0.961 . S
H2769 C2761 0.960 . S
H2770 C2762 0.930 . S
H2771 C2763 0.929 . S
H2772 C2780 0.929 . S
H2773 C2782 0.930 . S
H2774 C2784 0.930 . S
H2775 C2787 0.929 . S
H2776 C2790 0.930 . S
H2777 C2792 0.960 . S
H2778 C2792 0.960 . S
H2779 C2792 0.960 . S
C2780 H2772 0.929 . S
C2780 C2781 1.377 . S
C2780 C2782 1.384 . S
C2781 C2780 1.377 . S
C2781 C2787 1.390 . S
C2782 H2773 0.930 . S
C2782 C2780 1.384 . S
C2782 C2783 1.372 . S
C2783 C2782 1.372 . S
C2783 C2784 1.400 . S
C2783 C2788 1.490 . S
C2784 H2774 0.930 . S
C2784 C2783 1.400 . S
C2784 C2787 1.386 . S
H2785 C2801 0.930 . S
H2786 C2802 0.931 . S
C2787 H2775 0.929 . S
C2787 C2781 1.390 . S
C2787 C2784 1.386 . S
C2788 C2783 1.490 . S
C2788 C2790 1.395 . S
C2788 C2791 1.403 . S
H2789 C2795 0.930 . S
C2790 H2776 0.930 . S
C2790 C2788 1.395 . S
C2790 C2793 1.403 . S
C2791 C2788 1.403 . S
C2791 C2792 1.524 . S
C2791 C2795 1.400 . S
C2792 H2777 0.960 . S
C2792 H2778 0.960 . S
C2792 H2779 0.960 . S
C2792 C2791 1.524 . S
C2793 C2790 1.403 . S
C2793 C2794 1.392 . S
C2793 C2797 1.495 . S
C2794 C2793 1.392 . S
C2794 C2795 1.385 . S
C2794 C2796 1.478 . S
C2795 H2789 0.930 . S
C2795 C2791 1.400 . S
C2795 C2794 1.385 . S
C2796 C2794 1.478 . S
C2796 C2798 1.381 . S
C2796 C2802 1.383 . S
C2797 C2793 1.495 . S
C2797 H2803 0.959 . S
C2797 H2804 0.961 . S
C2797 H2805 0.960 . S
C2798 C2796 1.381 . S
C2798 C2799 1.394 . S
C2798 H2806 0.930 . S
C2799 C2798 1.394 . S
C2799 C2800 1.383 . S
C2799 H2807 0.929 . S
C2800 C2799 1.383 . S
C2800 C2801 1.377 . S
C2801 H2785 0.930 . S
C2801 C2800 1.377 . S
C2801 C2802 1.379 . S
C2802 H2786 0.931 . S
C2802 C2796 1.383 . S
C2802 C2801 1.379 . S
H2803 C2797 0.959 . S
H2804 C2797 0.961 . S
H2805 C2797 0.960 . S
H2806 C2798 0.930 . S
H2807 C2799 0.929 . S
H2808 C2816 0.929 . S
H2809 C2818 0.930 . S
H2810 C2820 0.930 . S
H2811 C2823 0.929 . S
H2812 C2826 0.930 . S
H2813 C2828 0.960 . S
H2814 C2828 0.960 . S
H2815 C2828 0.960 . S
C2816 H2808 0.929 . S
C2816 C2817 1.377 . S
C2816 C2818 1.384 . S
C2817 C2816 1.377 . S
C2817 C2823 1.390 . S
C2818 H2809 0.930 . S
C2818 C2816 1.384 . S
C2818 C2819 1.372 . S
C2819 C2818 1.372 . S
C2819 C2820 1.400 . S
C2819 C2824 1.490 . S
C2820 H2810 0.930 . S
C2820 C2819 1.400 . S
C2820 C2823 1.386 . S
H2821 C2837 0.930 . S
H2822 C2838 0.931 . S
C2823 H2811 0.929 . S
C2823 C2817 1.390 . S
C2823 C2820 1.386 . S
C2824 C2819 1.490 . S
C2824 C2826 1.395 . S
C2824 C2827 1.403 . S
H2825 C2831 0.930 . S
C2826 H2812 0.930 . S
C2826 C2824 1.395 . S
C2826 C2829 1.403 . S
C2827 C2824 1.403 . S
C2827 C2828 1.524 . S
C2827 C2831 1.400 . S
C2828 H2813 0.960 . S
C2828 H2814 0.960 . S
C2828 H2815 0.960 . S
C2828 C2827 1.524 . S
C2829 C2826 1.403 . S
C2829 C2830 1.392 . S
C2829 C2833 1.495 . S
C2830 C2829 1.392 . S
C2830 C2831 1.385 . S
C2830 C2832 1.478 . S
C2831 H2825 0.930 . S
C2831 C2827 1.400 . S
C2831 C2830 1.385 . S
C2832 C2830 1.478 . S
C2832 C2834 1.381 . S
C2832 C2838 1.383 . S
C2833 C2829 1.495 . S
C2833 H2839 0.959 . S
C2833 H2840 0.961 . S
C2833 H2841 0.960 . S
C2834 C2832 1.381 . S
C2834 C2835 1.394 . S
C2834 H2842 0.930 . S
C2835 C2834 1.394 . S
C2835 C2836 1.383 . S
C2835 H2843 0.929 . S
C2836 C2835 1.383 . S
C2836 C2837 1.377 . S
C2837 H2821 0.930 . S
C2837 C2836 1.377 . S
C2837 C2838 1.379 . S
C2838 H2822 0.931 . S
C2838 C2832 1.383 . S
C2838 C2837 1.379 . S
H2839 C2833 0.959 . S
H2840 C2833 0.961 . S
H2841 C2833 0.960 . S
H2842 C2834 0.930 . S
H2843 C2835 0.929 . S
H2844 C2852 0.929 . S
H2845 C2854 0.930 . S
H2846 C2856 0.930 . S
H2847 C2859 0.929 . S
H2848 C2862 0.930 . S
H2849 C2864 0.960 . S
H2850 C2864 0.960 . S
H2851 C2864 0.960 . S
C2852 H2844 0.929 . S
C2852 C2853 1.377 . S
C2852 C2854 1.384 . S
C2853 C2852 1.377 . S
C2853 C2859 1.390 . S
C2854 H2845 0.930 . S
C2854 C2852 1.384 . S
C2854 C2855 1.372 . S
C2855 C2854 1.372 . S
C2855 C2856 1.400 . S
C2855 C2860 1.490 . S
C2856 H2846 0.930 . S
C2856 C2855 1.400 . S
C2856 C2859 1.386 . S
H2857 C2873 0.930 . S
H2858 C2874 0.931 . S
C2859 H2847 0.929 . S
C2859 C2853 1.390 . S
C2859 C2856 1.386 . S
C2860 C2855 1.490 . S
C2860 C2862 1.395 . S
C2860 C2863 1.403 . S
H2861 C2867 0.930 . S
C2862 H2848 0.930 . S
C2862 C2860 1.395 . S
C2862 C2865 1.403 . S
C2863 C2860 1.403 . S
C2863 C2864 1.524 . S
C2863 C2867 1.400 . S
C2864 H2849 0.960 . S
C2864 H2850 0.960 . S
C2864 H2851 0.960 . S
C2864 C2863 1.524 . S
C2865 C2862 1.403 . S
C2865 C2866 1.392 . S
C2865 C2869 1.495 . S
C2866 C2865 1.392 . S
C2866 C2867 1.385 . S
C2866 C2868 1.478 . S
C2867 H2861 0.930 . S
C2867 C2863 1.400 . S
C2867 C2866 1.385 . S
C2868 C2866 1.478 . S
C2868 C2870 1.381 . S
C2868 C2874 1.383 . S
C2869 C2865 1.495 . S
C2869 H2875 0.959 . S
C2869 H2876 0.961 . S
C2869 H2877 0.960 . S
C2870 C2868 1.381 . S
C2870 C2871 1.394 . S
C2870 H2878 0.930 . S
C2871 C2870 1.394 . S
C2871 C2872 1.383 . S
C2871 H2879 0.929 . S
C2872 C2871 1.383 . S
C2872 C2873 1.377 . S
C2873 H2857 0.930 . S
C2873 C2872 1.377 . S
C2873 C2874 1.379 . S
C2874 H2858 0.931 . S
C2874 C2868 1.383 . S
C2874 C2873 1.379 . S
H2875 C2869 0.959 . S
H2876 C2869 0.961 . S
H2877 C2869 0.960 . S
H2878 C2870 0.930 . S
H2879 C2871 0.929 . S
H2880 C2888 0.929 . S
H2881 C2890 0.930 . S
H2882 C2892 0.930 . S
H2883 C2895 0.929 . S
H2884 C2898 0.930 . S
H2885 C2900 0.960 . S
H2886 C2900 0.960 . S
H2887 C2900 0.960 . S
C2888 H2880 0.929 . S
C2888 C2889 1.377 . S
C2888 C2890 1.384 . S
C2889 C2888 1.377 . S
C2889 C2895 1.390 . S
C2890 H2881 0.930 . S
C2890 C2888 1.384 . S
C2890 C2891 1.372 . S
C2891 C2890 1.372 . S
C2891 C2892 1.400 . S
C2891 C2896 1.490 . S
C2892 H2882 0.930 . S
C2892 C2891 1.400 . S
C2892 C2895 1.386 . S
H2893 C2909 0.930 . S
H2894 C2910 0.931 . S
C2895 H2883 0.929 . S
C2895 C2889 1.390 . S
C2895 C2892 1.386 . S
C2896 C2891 1.490 . S
C2896 C2898 1.395 . S
C2896 C2899 1.403 . S
H2897 C2903 0.930 . S
C2898 H2884 0.930 . S
C2898 C2896 1.395 . S
C2898 C2901 1.403 . S
C2899 C2896 1.403 . S
C2899 C2900 1.524 . S
C2899 C2903 1.400 . S
C2900 H2885 0.960 . S
C2900 H2886 0.960 . S
C2900 H2887 0.960 . S
C2900 C2899 1.524 . S
C2901 C2898 1.403 . S
C2901 C2902 1.392 . S
C2901 C2905 1.495 . S
C2902 C2901 1.392 . S
C2902 C2903 1.385 . S
C2902 C2904 1.478 . S
C2903 H2897 0.930 . S
C2903 C2899 1.400 . S
C2903 C2902 1.385 . S
C2904 C2902 1.478 . S
C2904 C2906 1.381 . S
C2904 C2910 1.383 . S
C2905 C2901 1.495 . S
C2905 H2911 0.959 . S
C2905 H2912 0.961 . S
C2905 H2913 0.960 . S
C2906 C2904 1.381 . S
C2906 C2907 1.394 . S
C2906 H2914 0.930 . S
C2907 C2906 1.394 . S
C2907 C2908 1.383 . S
C2907 H2915 0.929 . S
C2908 C2907 1.383 . S
C2908 C2909 1.377 . S
C2909 H2893 0.930 . S
C2909 C2908 1.377 . S
C2909 C2910 1.379 . S
C2910 H2894 0.931 . S
C2910 C2904 1.383 . S
C2910 C2909 1.379 . S
H2911 C2905 0.959 . S
H2912 C2905 0.961 . S
H2913 C2905 0.960 . S
H2914 C2906 0.930 . S
H2915 C2907 0.929 . S
H2916 C2924 0.929 . S
H2917 C2926 0.930 . S
H2918 C2928 0.930 . S
H2919 C2931 0.929 . S
H2920 C2934 0.930 . S
H2921 C2936 0.960 . S
H2922 C2936 0.960 . S
H2923 C2936 0.960 . S
C2924 H2916 0.929 . S
C2924 C2925 1.377 . S
C2924 C2926 1.384 . S
C2925 C2924 1.377 . S
C2925 C2931 1.390 . S
C2926 H2917 0.930 . S
C2926 C2924 1.384 . S
C2926 C2927 1.372 . S
C2927 C2926 1.372 . S
C2927 C2928 1.400 . S
C2927 C2932 1.490 . S
C2928 H2918 0.930 . S
C2928 C2927 1.400 . S
C2928 C2931 1.386 . S
H2929 C2945 0.930 . S
H2930 C2946 0.931 . S
C2931 H2919 0.929 . S
C2931 C2925 1.390 . S
C2931 C2928 1.386 . S
C2932 C2927 1.490 . S
C2932 C2934 1.395 . S
C2932 C2935 1.403 . S
H2933 C2939 0.930 . S
C2934 H2920 0.930 . S
C2934 C2932 1.395 . S
C2934 C2937 1.403 . S
C2935 C2932 1.403 . S
C2935 C2936 1.524 . S
C2935 C2939 1.400 . S
C2936 H2921 0.960 . S
C2936 H2922 0.960 . S
C2936 H2923 0.960 . S
C2936 C2935 1.524 . S
C2937 C2934 1.403 . S
C2937 C2938 1.392 . S
C2937 C2941 1.495 . S
C2938 C2937 1.392 . S
C2938 C2939 1.385 . S
C2938 C2940 1.478 . S
C2939 H2933 0.930 . S
C2939 C2935 1.400 . S
C2939 C2938 1.385 . S
C2940 C2938 1.478 . S
C2940 C2942 1.381 . S
C2940 C2946 1.383 . S
C2941 C2937 1.495 . S
C2941 H2947 0.959 . S
C2941 H2948 0.961 . S
C2941 H2949 0.960 . S
C2942 C2940 1.381 . S
C2942 C2943 1.394 . S
C2942 H2950 0.930 . S
C2943 C2942 1.394 . S
C2943 C2944 1.383 . S
C2943 H2951 0.929 . S
C2944 C2943 1.383 . S
C2944 C2945 1.377 . S
C2945 H2929 0.930 . S
C2945 C2944 1.377 . S
C2945 C2946 1.379 . S
C2946 H2930 0.931 . S
C2946 C2940 1.383 . S
C2946 C2945 1.379 . S
H2947 C2941 0.959 . S
H2948 C2941 0.961 . S
H2949 C2941 0.960 . S
H2950 C2942 0.930 . S
H2951 C2943 0.929 . S
H2952 C2960 0.929 . S
H2953 C2962 0.930 . S
H2954 C2964 0.930 . S
H2955 C2967 0.929 . S
H2956 C2970 0.930 . S
H2957 C2972 0.960 . S
H2958 C2972 0.960 . S
H2959 C2972 0.960 . S
C2960 H2952 0.929 . S
C2960 C2961 1.377 . S
C2960 C2962 1.384 . S
C2961 C2960 1.377 . S
C2961 C2967 1.390 . S
C2962 H2953 0.930 . S
C2962 C2960 1.384 . S
C2962 C2963 1.372 . S
C2963 C2962 1.372 . S
C2963 C2964 1.400 . S
C2963 C2968 1.490 . S
C2964 H2954 0.930 . S
C2964 C2963 1.400 . S
C2964 C2967 1.386 . S
H2965 C2981 0.930 . S
H2966 C2982 0.931 . S
C2967 H2955 0.929 . S
C2967 C2961 1.390 . S
C2967 C2964 1.386 . S
C2968 C2963 1.490 . S
C2968 C2970 1.395 . S
C2968 C2971 1.403 . S
H2969 C2975 0.930 . S
C2970 H2956 0.930 . S
C2970 C2968 1.395 . S
C2970 C2973 1.403 . S
C2971 C2968 1.403 . S
C2971 C2972 1.524 . S
C2971 C2975 1.400 . S
C2972 H2957 0.960 . S
C2972 H2958 0.960 . S
C2972 H2959 0.960 . S
C2972 C2971 1.524 . S
C2973 C2970 1.403 . S
C2973 C2974 1.392 . S
C2973 C2977 1.495 . S
C2974 C2973 1.392 . S
C2974 C2975 1.385 . S
C2974 C2976 1.478 . S
C2975 H2969 0.930 . S
C2975 C2971 1.400 . S
C2975 C2974 1.385 . S
C2976 C2974 1.478 . S
C2976 C2978 1.381 . S
C2976 C2982 1.383 . S
C2977 C2973 1.495 . S
C2977 H2983 0.959 . S
C2977 H2984 0.961 . S
C2977 H2985 0.960 . S
C2978 C2976 1.381 . S
C2978 C2979 1.394 . S
C2978 H2986 0.930 . S
C2979 C2978 1.394 . S
C2979 C2980 1.383 . S
C2979 H2987 0.929 . S
C2980 C2979 1.383 . S
C2980 C2981 1.377 . S
C2981 H2965 0.930 . S
C2981 C2980 1.377 . S
C2981 C2982 1.379 . S
C2982 H2966 0.931 . S
C2982 C2976 1.383 . S
C2982 C2981 1.379 . S
H2983 C2977 0.959 . S
H2984 C2977 0.961 . S
H2985 C2977 0.960 . S
H2986 C2978 0.930 . S
H2987 C2979 0.929 . S
H2988 C2996 0.929 . S
H2989 C2998 0.930 . S
H2990 C3000 0.930 . S
H2991 C3003 0.929 . S
H2992 C3006 0.930 . S
H2993 C3008 0.960 . S
H2994 C3008 0.960 . S
H2995 C3008 0.960 . S
C2996 H2988 0.929 . S
C2996 C2997 1.377 . S
C2996 C2998 1.384 . S
C2997 C2996 1.377 . S
C2997 C3003 1.390 . S
C2998 H2989 0.930 . S
C2998 C2996 1.384 . S
C2998 C2999 1.372 . S
C2999 C2998 1.372 . S
C2999 C3000 1.400 . S
C2999 C3004 1.490 . S
C3000 H2990 0.930 . S
C3000 C2999 1.400 . S
C3000 C3003 1.386 . S
H3001 C3017 0.930 . S
H3002 C3018 0.931 . S
C3003 H2991 0.929 . S
C3003 C2997 1.390 . S
C3003 C3000 1.386 . S
C3004 C2999 1.490 . S
C3004 C3006 1.395 . S
C3004 C3007 1.403 . S
H3005 C3011 0.930 . S
C3006 H2992 0.930 . S
C3006 C3004 1.395 . S
C3006 C3009 1.403 . S
C3007 C3004 1.403 . S
C3007 C3008 1.524 . S
C3007 C3011 1.400 . S
C3008 H2993 0.960 . S
C3008 H2994 0.960 . S
C3008 H2995 0.960 . S
C3008 C3007 1.524 . S
C3009 C3006 1.403 . S
C3009 C3010 1.392 . S
C3009 C3013 1.495 . S
C3010 C3009 1.392 . S
C3010 C3011 1.385 . S
C3010 C3012 1.478 . S
C3011 H3005 0.930 . S
C3011 C3007 1.400 . S
C3011 C3010 1.385 . S
C3012 C3010 1.478 . S
C3012 C3014 1.381 . S
C3012 C3018 1.383 . S
C3013 C3009 1.495 . S
C3013 H3019 0.959 . S
C3013 H3020 0.961 . S
C3013 H3021 0.960 . S
C3014 C3012 1.381 . S
C3014 C3015 1.394 . S
C3014 H3022 0.930 . S
C3015 C3014 1.394 . S
C3015 C3016 1.383 . S
C3015 H3023 0.929 . S
C3016 C3015 1.383 . S
C3016 C3017 1.377 . S
C3017 H3001 0.930 . S
C3017 C3016 1.377 . S
C3017 C3018 1.379 . S
C3018 H3002 0.931 . S
C3018 C3012 1.383 . S
C3018 C3017 1.379 . S
H3019 C3013 0.959 . S
H3020 C3013 0.961 . S
H3021 C3013 0.960 . S
H3022 C3014 0.930 . S
H3023 C3015 0.929 . S
H3024 C3032 0.929 . S
H3025 C3034 0.930 . S
H3026 C3036 0.930 . S
H3027 C3039 0.929 . S
H3028 C3042 0.930 . S
H3029 C3044 0.960 . S
H3030 C3044 0.960 . S
H3031 C3044 0.960 . S
C3032 H3024 0.929 . S
C3032 C3033 1.377 . S
C3032 C3034 1.384 . S
C3033 C3032 1.377 . S
C3033 C3039 1.390 . S
C3034 H3025 0.930 . S
C3034 C3032 1.384 . S
C3034 C3035 1.372 . S
C3035 C3034 1.372 . S
C3035 C3036 1.400 . S
C3035 C3040 1.490 . S
C3036 H3026 0.930 . S
C3036 C3035 1.400 . S
C3036 C3039 1.386 . S
H3037 C3053 0.930 . S
H3038 C3054 0.931 . S
C3039 H3027 0.929 . S
C3039 C3033 1.390 . S
C3039 C3036 1.386 . S
C3040 C3035 1.490 . S
C3040 C3042 1.395 . S
C3040 C3043 1.403 . S
H3041 C3047 0.930 . S
C3042 H3028 0.930 . S
C3042 C3040 1.395 . S
C3042 C3045 1.403 . S
C3043 C3040 1.403 . S
C3043 C3044 1.524 . S
C3043 C3047 1.400 . S
C3044 H3029 0.960 . S
C3044 H3030 0.960 . S
C3044 H3031 0.960 . S
C3044 C3043 1.524 . S
C3045 C3042 1.403 . S
C3045 C3046 1.392 . S
C3045 C3049 1.495 . S
C3046 C3045 1.392 . S
C3046 C3047 1.385 . S
C3046 C3048 1.478 . S
C3047 H3041 0.930 . S
C3047 C3043 1.400 . S
C3047 C3046 1.385 . S
C3048 C3046 1.478 . S
C3048 C3050 1.381 . S
C3048 C3054 1.383 . S
C3049 C3045 1.495 . S
C3049 H3055 0.959 . S
C3049 H3056 0.961 . S
C3049 H3057 0.960 . S
C3050 C3048 1.381 . S
C3050 C3051 1.394 . S
C3050 H3058 0.930 . S
C3051 C3050 1.394 . S
C3051 C3052 1.383 . S
C3051 H3059 0.929 . S
C3052 C3051 1.383 . S
C3052 C3053 1.377 . S
C3053 H3037 0.930 . S
C3053 C3052 1.377 . S
C3053 C3054 1.379 . S
C3054 H3038 0.931 . S
C3054 C3048 1.383 . S
C3054 C3053 1.379 . S
H3055 C3049 0.959 . S
H3056 C3049 0.961 . S
H3057 C3049 0.960 . S
H3058 C3050 0.930 . S
H3059 C3051 0.929 . S
H3060 C3068 0.929 . S
H3061 C3070 0.930 . S
H3062 C3072 0.930 . S
H3063 C3075 0.929 . S
H3064 C3078 0.930 . S
H3065 C3080 0.960 . S
H3066 C3080 0.960 . S
H3067 C3080 0.960 . S
C3068 H3060 0.929 . S
C3068 C3069 1.377 . S
C3068 C3070 1.384 . S
C3069 C3068 1.377 . S
C3069 C3075 1.390 . S
C3070 H3061 0.930 . S
C3070 C3068 1.384 . S
C3070 C3071 1.372 . S
C3071 C3070 1.372 . S
C3071 C3072 1.400 . S
C3071 C3076 1.490 . S
C3072 H3062 0.930 . S
C3072 C3071 1.400 . S
C3072 C3075 1.386 . S
H3073 C3089 0.930 . S
H3074 C3090 0.931 . S
C3075 H3063 0.929 . S
C3075 C3069 1.390 . S
C3075 C3072 1.386 . S
C3076 C3071 1.490 . S
C3076 C3078 1.395 . S
C3076 C3079 1.403 . S
H3077 C3083 0.930 . S
C3078 H3064 0.930 . S
C3078 C3076 1.395 . S
C3078 C3081 1.403 . S
C3079 C3076 1.403 . S
C3079 C3080 1.524 . S
C3079 C3083 1.400 . S
C3080 H3065 0.960 . S
C3080 H3066 0.960 . S
C3080 H3067 0.960 . S
C3080 C3079 1.524 . S
C3081 C3078 1.403 . S
C3081 C3082 1.392 . S
C3081 C3085 1.495 . S
C3082 C3081 1.392 . S
C3082 C3083 1.385 . S
C3082 C3084 1.478 . S
C3083 H3077 0.930 . S
C3083 C3079 1.400 . S
C3083 C3082 1.385 . S
C3084 C3082 1.478 . S
C3084 C3086 1.381 . S
C3084 C3090 1.383 . S
C3085 C3081 1.495 . S
C3085 H3091 0.959 . S
C3085 H3092 0.961 . S
C3085 H3093 0.960 . S
C3086 C3084 1.381 . S
C3086 C3087 1.394 . S
C3086 H3094 0.930 . S
C3087 C3086 1.394 . S
C3087 C3088 1.383 . S
C3087 H3095 0.929 . S
C3088 C3087 1.383 . S
C3088 C3089 1.377 . S
C3089 H3073 0.930 . S
C3089 C3088 1.377 . S
C3089 C3090 1.379 . S
C3090 H3074 0.931 . S
C3090 C3084 1.383 . S
C3090 C3089 1.379 . S
H3091 C3085 0.959 . S
H3092 C3085 0.961 . S
H3093 C3085 0.960 . S
H3094 C3086 0.930 . S
H3095 C3087 0.929 . S
H3096 C3104 0.929 . S
H3097 C3106 0.930 . S
H3098 C3108 0.930 . S
H3099 C3111 0.929 . S
H3100 C3114 0.930 . S
H3101 C3116 0.960 . S
H3102 C3116 0.960 . S
H3103 C3116 0.960 . S
C3104 H3096 0.929 . S
C3104 C3105 1.377 . S
C3104 C3106 1.384 . S
C3105 C3104 1.377 . S
C3105 C3111 1.390 . S
C3106 H3097 0.930 . S
C3106 C3104 1.384 . S
C3106 C3107 1.372 . S
C3107 C3106 1.372 . S
C3107 C3108 1.400 . S
C3107 C3112 1.490 . S
C3108 H3098 0.930 . S
C3108 C3107 1.400 . S
C3108 C3111 1.386 . S
H3109 C3125 0.930 . S
H3110 C3126 0.931 . S
C3111 H3099 0.929 . S
C3111 C3105 1.390 . S
C3111 C3108 1.386 . S
C3112 C3107 1.490 . S
C3112 C3114 1.395 . S
C3112 C3115 1.403 . S
H3113 C3119 0.930 . S
C3114 H3100 0.930 . S
C3114 C3112 1.395 . S
C3114 C3117 1.403 . S
C3115 C3112 1.403 . S
C3115 C3116 1.524 . S
C3115 C3119 1.400 . S
C3116 H3101 0.960 . S
C3116 H3102 0.960 . S
C3116 H3103 0.960 . S
C3116 C3115 1.524 . S
C3117 C3114 1.403 . S
C3117 C3118 1.392 . S
C3117 C3121 1.495 . S
C3118 C3117 1.392 . S
C3118 C3119 1.385 . S
C3118 C3120 1.478 . S
C3119 H3113 0.930 . S
C3119 C3115 1.400 . S
C3119 C3118 1.385 . S
C3120 C3118 1.478 . S
C3120 C3122 1.381 . S
C3120 C3126 1.383 . S
C3121 C3117 1.495 . S
C3121 H3127 0.959 . S
C3121 H3128 0.961 . S
C3121 H3129 0.960 . S
C3122 C3120 1.381 . S
C3122 C3123 1.394 . S
C3122 H3130 0.930 . S
C3123 C3122 1.394 . S
C3123 C3124 1.383 . S
C3123 H3131 0.929 . S
C3124 C3123 1.383 . S
C3124 C3125 1.377 . S
C3125 H3109 0.930 . S
C3125 C3124 1.377 . S
C3125 C3126 1.379 . S
C3126 H3110 0.931 . S
C3126 C3120 1.383 . S
C3126 C3125 1.379 . S
H3127 C3121 0.959 . S
H3128 C3121 0.961 . S
H3129 C3121 0.960 . S
H3130 C3122 0.930 . S
H3131 C3123 0.929 . S
H3132 C3140 0.929 . S
H3133 C3142 0.930 . S
H3134 C3144 0.930 . S
H3135 C3147 0.929 . S
H3136 C3150 0.930 . S
H3137 C3152 0.960 . S
H3138 C3152 0.960 . S
H3139 C3152 0.960 . S
C3140 H3132 0.929 . S
C3140 C3141 1.377 . S
C3140 C3142 1.384 . S
C3141 C3140 1.377 . S
C3141 C3147 1.390 . S
C3142 H3133 0.930 . S
C3142 C3140 1.384 . S
C3142 C3143 1.372 . S
C3143 C3142 1.372 . S
C3143 C3144 1.400 . S
C3143 C3148 1.490 . S
C3144 H3134 0.930 . S
C3144 C3143 1.400 . S
C3144 C3147 1.386 . S
H3145 C3161 0.930 . S
H3146 C3162 0.931 . S
C3147 H3135 0.929 . S
C3147 C3141 1.390 . S
C3147 C3144 1.386 . S
C3148 C3143 1.490 . S
C3148 C3150 1.395 . S
C3148 C3151 1.403 . S
H3149 C3155 0.930 . S
C3150 H3136 0.930 . S
C3150 C3148 1.395 . S
C3150 C3153 1.403 . S
C3151 C3148 1.403 . S
C3151 C3152 1.524 . S
C3151 C3155 1.400 . S
C3152 H3137 0.960 . S
C3152 H3138 0.960 . S
C3152 H3139 0.960 . S
C3152 C3151 1.524 . S
C3153 C3150 1.403 . S
C3153 C3154 1.392 . S
C3153 C3157 1.495 . S
C3154 C3153 1.392 . S
C3154 C3155 1.385 . S
C3154 C3156 1.478 . S
C3155 H3149 0.930 . S
C3155 C3151 1.400 . S
C3155 C3154 1.385 . S
C3156 C3154 1.478 . S
C3156 C3158 1.381 . S
C3156 C3162 1.383 . S
C3157 C3153 1.495 . S
C3157 H3163 0.959 . S
C3157 H3164 0.961 . S
C3157 H3165 0.960 . S
C3158 C3156 1.381 . S
C3158 C3159 1.394 . S
C3158 H3166 0.930 . S
C3159 C3158 1.394 . S
C3159 C3160 1.383 . S
C3159 H3167 0.929 . S
C3160 C3159 1.383 . S
C3160 C3161 1.377 . S
C3161 H3145 0.930 . S
C3161 C3160 1.377 . S
C3161 C3162 1.379 . S
C3162 H3146 0.931 . S
C3162 C3156 1.383 . S
C3162 C3161 1.379 . S
H3163 C3157 0.959 . S
H3164 C3157 0.961 . S
H3165 C3157 0.960 . S
H3166 C3158 0.930 . S
H3167 C3159 0.929 . S
H3168 C3176 0.929 . S
H3169 C3178 0.930 . S
H3170 C3180 0.930 . S
H3171 C3183 0.929 . S
H3172 C3186 0.930 . S
H3173 C3188 0.960 . S
H3174 C3188 0.960 . S
H3175 C3188 0.960 . S
C3176 H3168 0.929 . S
C3176 C3177 1.377 . S
C3176 C3178 1.384 . S
C3177 C3176 1.377 . S
C3177 C3183 1.390 . S
C3178 H3169 0.930 . S
C3178 C3176 1.384 . S
C3178 C3179 1.372 . S
C3179 C3178 1.372 . S
C3179 C3180 1.400 . S
C3179 C3184 1.490 . S
C3180 H3170 0.930 . S
C3180 C3179 1.400 . S
C3180 C3183 1.386 . S
H3181 C3197 0.930 . S
H3182 C3198 0.931 . S
C3183 H3171 0.929 . S
C3183 C3177 1.390 . S
C3183 C3180 1.386 . S
C3184 C3179 1.490 . S
C3184 C3186 1.395 . S
C3184 C3187 1.403 . S
H3185 C3191 0.930 . S
C3186 H3172 0.930 . S
C3186 C3184 1.395 . S
C3186 C3189 1.403 . S
C3187 C3184 1.403 . S
C3187 C3188 1.524 . S
C3187 C3191 1.400 . S
C3188 H3173 0.960 . S
C3188 H3174 0.960 . S
C3188 H3175 0.960 . S
C3188 C3187 1.524 . S
C3189 C3186 1.403 . S
C3189 C3190 1.392 . S
C3189 C3193 1.495 . S
C3190 C3189 1.392 . S
C3190 C3191 1.385 . S
C3190 C3192 1.478 . S
C3191 H3185 0.930 . S
C3191 C3187 1.400 . S
C3191 C3190 1.385 . S
C3192 C3190 1.478 . S
C3192 C3194 1.381 . S
C3192 C3198 1.383 . S
C3193 C3189 1.495 . S
C3193 H3199 0.959 . S
C3193 H3200 0.961 . S
C3193 H3201 0.960 . S
C3194 C3192 1.381 . S
C3194 C3195 1.394 . S
C3194 H3202 0.930 . S
C3195 C3194 1.394 . S
C3195 C3196 1.383 . S
C3195 H3203 0.929 . S
C3196 C3195 1.383 . S
C3196 C3197 1.377 . S
C3197 H3181 0.930 . S
C3197 C3196 1.377 . S
C3197 C3198 1.379 . S
C3198 H3182 0.931 . S
C3198 C3192 1.383 . S
C3198 C3197 1.379 . S
H3199 C3193 0.959 . S
H3200 C3193 0.961 . S
H3201 C3193 0.960 . S
H3202 C3194 0.930 . S
H3203 C3195 0.929 . S
H3204 C3212 0.929 . S
H3205 C3214 0.930 . S
H3206 C3216 0.930 . S
H3207 C3219 0.929 . S
H3208 C3222 0.930 . S
H3209 C3224 0.960 . S
H3210 C3224 0.960 . S
H3211 C3224 0.960 . S
C3212 H3204 0.929 . S
C3212 C3213 1.377 . S
C3212 C3214 1.384 . S
C3213 C3212 1.377 . S
C3213 C3219 1.390 . S
C3214 H3205 0.930 . S
C3214 C3212 1.384 . S
C3214 C3215 1.372 . S
C3215 C3214 1.372 . S
C3215 C3216 1.400 . S
C3215 C3220 1.490 . S
C3216 H3206 0.930 . S
C3216 C3215 1.400 . S
C3216 C3219 1.386 . S
H3217 C3233 0.930 . S
H3218 C3234 0.931 . S
C3219 H3207 0.929 . S
C3219 C3213 1.390 . S
C3219 C3216 1.386 . S
C3220 C3215 1.490 . S
C3220 C3222 1.395 . S
C3220 C3223 1.403 . S
H3221 C3227 0.930 . S
C3222 H3208 0.930 . S
C3222 C3220 1.395 . S
C3222 C3225 1.403 . S
C3223 C3220 1.403 . S
C3223 C3224 1.524 . S
C3223 C3227 1.400 . S
C3224 H3209 0.960 . S
C3224 H3210 0.960 . S
C3224 H3211 0.960 . S
C3224 C3223 1.524 . S
C3225 C3222 1.403 . S
C3225 C3226 1.392 . S
C3225 C3229 1.495 . S
C3226 C3225 1.392 . S
C3226 C3227 1.385 . S
C3226 C3228 1.478 . S
C3227 H3221 0.930 . S
C3227 C3223 1.400 . S
C3227 C3226 1.385 . S
C3228 C3226 1.478 . S
C3228 C3230 1.381 . S
C3228 C3234 1.383 . S
C3229 C3225 1.495 . S
C3229 H3235 0.959 . S
C3229 H3236 0.961 . S
C3229 H3237 0.960 . S
C3230 C3228 1.381 . S
C3230 C3231 1.394 . S
C3230 H3238 0.930 . S
C3231 C3230 1.394 . S
C3231 C3232 1.383 . S
C3231 H3239 0.929 . S
C3232 C3231 1.383 . S
C3232 C3233 1.377 . S
C3233 H3217 0.930 . S
C3233 C3232 1.377 . S
C3233 C3234 1.379 . S
C3234 H3218 0.931 . S
C3234 C3228 1.383 . S
C3234 C3233 1.379 . S
H3235 C3229 0.959 . S
H3236 C3229 0.961 . S
H3237 C3229 0.960 . S
H3238 C3230 0.930 . S
H3239 C3231 0.929 . S
H3240 C3248 0.929 . S
H3241 C3250 0.930 . S
H3242 C3252 0.930 . S
H3243 C3255 0.929 . S
H3244 C3258 0.930 . S
H3245 C3260 0.960 . S
H3246 C3260 0.960 . S
H3247 C3260 0.960 . S
C3248 H3240 0.929 . S
C3248 C3249 1.377 . S
C3248 C3250 1.384 . S
C3249 C3248 1.377 . S
C3249 C3255 1.390 . S
C3250 H3241 0.930 . S
C3250 C3248 1.384 . S
C3250 C3251 1.372 . S
C3251 C3250 1.372 . S
C3251 C3252 1.400 . S
C3251 C3256 1.490 . S
C3252 H3242 0.930 . S
C3252 C3251 1.400 . S
C3252 C3255 1.386 . S
H3253 C3269 0.930 . S
H3254 C3270 0.931 . S
C3255 H3243 0.929 . S
C3255 C3249 1.390 . S
C3255 C3252 1.386 . S
C3256 C3251 1.490 . S
C3256 C3258 1.395 . S
C3256 C3259 1.403 . S
H3257 C3263 0.930 . S
C3258 H3244 0.930 . S
C3258 C3256 1.395 . S
C3258 C3261 1.403 . S
C3259 C3256 1.403 . S
C3259 C3260 1.524 . S
C3259 C3263 1.400 . S
C3260 H3245 0.960 . S
C3260 H3246 0.960 . S
C3260 H3247 0.960 . S
C3260 C3259 1.524 . S
C3261 C3258 1.403 . S
C3261 C3262 1.392 . S
C3261 C3265 1.495 . S
C3262 C3261 1.392 . S
C3262 C3263 1.385 . S
C3262 C3264 1.478 . S
C3263 H3257 0.930 . S
C3263 C3259 1.400 . S
C3263 C3262 1.385 . S
C3264 C3262 1.478 . S
C3264 C3266 1.381 . S
C3264 C3270 1.383 . S
C3265 C3261 1.495 . S
C3265 H3271 0.959 . S
C3265 H3272 0.961 . S
C3265 H3273 0.960 . S
C3266 C3264 1.381 . S
C3266 C3267 1.394 . S
C3266 H3274 0.930 . S
C3267 C3266 1.394 . S
C3267 C3268 1.383 . S
C3267 H3275 0.929 . S
C3268 C3267 1.383 . S
C3268 C3269 1.377 . S
C3269 H3253 0.930 . S
C3269 C3268 1.377 . S
C3269 C3270 1.379 . S
C3270 H3254 0.931 . S
C3270 C3264 1.383 . S
C3270 C3269 1.379 . S
H3271 C3265 0.959 . S
H3272 C3265 0.961 . S
H3273 C3265 0.960 . S
H3274 C3266 0.930 . S
H3275 C3267 0.929 . S
H3276 C3284 0.929 . S
H3277 C3286 0.930 . S
H3278 C3288 0.930 . S
H3279 C3291 0.929 . S
H3280 C3294 0.930 . S
H3281 C3296 0.960 . S
H3282 C3296 0.960 . S
H3283 C3296 0.960 . S
C3284 H3276 0.929 . S
C3284 C3285 1.377 . S
C3284 C3286 1.384 . S
C3285 C3284 1.377 . S
C3285 C3291 1.390 . S
C3286 H3277 0.930 . S
C3286 C3284 1.384 . S
C3286 C3287 1.372 . S
C3287 C3286 1.372 . S
C3287 C3288 1.400 . S
C3287 C3292 1.490 . S
C3288 H3278 0.930 . S
C3288 C3287 1.400 . S
C3288 C3291 1.386 . S
H3289 C3305 0.930 . S
H3290 C3306 0.931 . S
C3291 H3279 0.929 . S
C3291 C3285 1.390 . S
C3291 C3288 1.386 . S
C3292 C3287 1.490 . S
C3292 C3294 1.395 . S
C3292 C3295 1.403 . S
H3293 C3299 0.930 . S
C3294 H3280 0.930 . S
C3294 C3292 1.395 . S
C3294 C3297 1.403 . S
C3295 C3292 1.403 . S
C3295 C3296 1.524 . S
C3295 C3299 1.400 . S
C3296 H3281 0.960 . S
C3296 H3282 0.960 . S
C3296 H3283 0.960 . S
C3296 C3295 1.524 . S
C3297 C3294 1.403 . S
C3297 C3298 1.392 . S
C3297 C3301 1.495 . S
C3298 C3297 1.392 . S
C3298 C3299 1.385 . S
C3298 C3300 1.478 . S
C3299 H3293 0.930 . S
C3299 C3295 1.400 . S
C3299 C3298 1.385 . S
C3300 C3298 1.478 . S
C3300 C3302 1.381 . S
C3300 C3306 1.383 . S
C3301 C3297 1.495 . S
C3301 H3307 0.959 . S
C3301 H3308 0.961 . S
C3301 H3309 0.960 . S
C3302 C3300 1.381 . S
C3302 C3303 1.394 . S
C3302 H3310 0.930 . S
C3303 C3302 1.394 . S
C3303 C3304 1.383 . S
C3303 H3311 0.929 . S
C3304 C3303 1.383 . S
C3304 C3305 1.377 . S
C3305 H3289 0.930 . S
C3305 C3304 1.377 . S
C3305 C3306 1.379 . S
C3306 H3290 0.931 . S
C3306 C3300 1.383 . S
C3306 C3305 1.379 . S
H3307 C3301 0.959 . S
H3308 C3301 0.961 . S
H3309 C3301 0.960 . S
H3310 C3302 0.930 . S
H3311 C3303 0.929 . S
H3312 C3320 0.929 . S
H3313 C3322 0.930 . S
H3314 C3324 0.930 . S
H3315 C3327 0.929 . S
H3316 C3330 0.930 . S
H3317 C3332 0.960 . S
H3318 C3332 0.960 . S
H3319 C3332 0.960 . S
C3320 H3312 0.929 . S
C3320 C3321 1.377 . S
C3320 C3322 1.384 . S
C3321 C3320 1.377 . S
C3321 C3327 1.390 . S
C3322 H3313 0.930 . S
C3322 C3320 1.384 . S
C3322 C3323 1.372 . S
C3323 C3322 1.372 . S
C3323 C3324 1.400 . S
C3323 C3328 1.490 . S
C3324 H3314 0.930 . S
C3324 C3323 1.400 . S
C3324 C3327 1.386 . S
H3325 C3341 0.930 . S
H3326 C3342 0.931 . S
C3327 H3315 0.929 . S
C3327 C3321 1.390 . S
C3327 C3324 1.386 . S
C3328 C3323 1.490 . S
C3328 C3330 1.395 . S
C3328 C3331 1.403 . S
H3329 C3335 0.930 . S
C3330 H3316 0.930 . S
C3330 C3328 1.395 . S
C3330 C3333 1.403 . S
C3331 C3328 1.403 . S
C3331 C3332 1.524 . S
C3331 C3335 1.400 . S
C3332 H3317 0.960 . S
C3332 H3318 0.960 . S
C3332 H3319 0.960 . S
C3332 C3331 1.524 . S
C3333 C3330 1.403 . S
C3333 C3334 1.392 . S
C3333 C3337 1.495 . S
C3334 C3333 1.392 . S
C3334 C3335 1.385 . S
C3334 C3336 1.478 . S
C3335 H3329 0.930 . S
C3335 C3331 1.400 . S
C3335 C3334 1.385 . S
C3336 C3334 1.478 . S
C3336 C3338 1.381 . S
C3336 C3342 1.383 . S
C3337 C3333 1.495 . S
C3337 H3343 0.959 . S
C3337 H3344 0.961 . S
C3337 H3345 0.960 . S
C3338 C3336 1.381 . S
C3338 C3339 1.394 . S
C3338 H3346 0.930 . S
C3339 C3338 1.394 . S
C3339 C3340 1.383 . S
C3339 H3347 0.929 . S
C3340 C3339 1.383 . S
C3340 C3341 1.377 . S
C3341 H3325 0.930 . S
C3341 C3340 1.377 . S
C3341 C3342 1.379 . S
C3342 H3326 0.931 . S
C3342 C3336 1.383 . S
C3342 C3341 1.379 . S
H3343 C3337 0.959 . S
H3344 C3337 0.961 . S
H3345 C3337 0.960 . S
H3346 C3338 0.930 . S
H3347 C3339 0.929 . S
H3348 C3356 0.929 . S
H3349 C3358 0.930 . S
H3350 C3360 0.930 . S
H3351 C3363 0.929 . S
H3352 C3366 0.930 . S
H3353 C3368 0.960 . S
H3354 C3368 0.960 . S
H3355 C3368 0.960 . S
C3356 H3348 0.929 . S
C3356 C3357 1.377 . S
C3356 C3358 1.384 . S
C3357 C3356 1.377 . S
C3357 C3363 1.390 . S
C3358 H3349 0.930 . S
C3358 C3356 1.384 . S
C3358 C3359 1.372 . S
C3359 C3358 1.372 . S
C3359 C3360 1.400 . S
C3359 C3364 1.490 . S
C3360 H3350 0.930 . S
C3360 C3359 1.400 . S
C3360 C3363 1.386 . S
H3361 C3377 0.930 . S
H3362 C3378 0.931 . S
C3363 H3351 0.929 . S
C3363 C3357 1.390 . S
C3363 C3360 1.386 . S
C3364 C3359 1.490 . S
C3364 C3366 1.395 . S
C3364 C3367 1.403 . S
H3365 C3371 0.930 . S
C3366 H3352 0.930 . S
C3366 C3364 1.395 . S
C3366 C3369 1.403 . S
C3367 C3364 1.403 . S
C3367 C3368 1.524 . S
C3367 C3371 1.400 . S
C3368 H3353 0.960 . S
C3368 H3354 0.960 . S
C3368 H3355 0.960 . S
C3368 C3367 1.524 . S
C3369 C3366 1.403 . S
C3369 C3370 1.392 . S
C3369 C3373 1.495 . S
C3370 C3369 1.392 . S
C3370 C3371 1.385 . S
C3370 C3372 1.478 . S
C3371 H3365 0.930 . S
C3371 C3367 1.400 . S
C3371 C3370 1.385 . S
C3372 C3370 1.478 . S
C3372 C3374 1.381 . S
C3372 C3378 1.383 . S
C3373 C3369 1.495 . S
C3373 H3379 0.959 . S
C3373 H3380 0.961 . S
C3373 H3381 0.960 . S
C3374 C3372 1.381 . S
C3374 C3375 1.394 . S
C3374 H3382 0.930 . S
C3375 C3374 1.394 . S
C3375 C3376 1.383 . S
C3375 H3383 0.929 . S
C3376 C3375 1.383 . S
C3376 C3377 1.377 . S
C3377 H3361 0.930 . S
C3377 C3376 1.377 . S
C3377 C3378 1.379 . S
C3378 H3362 0.931 . S
C3378 C3372 1.383 . S
C3378 C3377 1.379 . S
H3379 C3373 0.959 . S
H3380 C3373 0.961 . S
H3381 C3373 0.960 . S
H3382 C3374 0.930 . S
H3383 C3375 0.929 . S
H3384 C3392 0.929 . S
H3385 C3394 0.930 . S
H3386 C3396 0.930 . S
H3387 C3399 0.929 . S
H3388 C3402 0.930 . S
H3389 C3404 0.960 . S
H3390 C3404 0.960 . S
H3391 C3404 0.960 . S
C3392 H3384 0.929 . S
C3392 C3393 1.377 . S
C3392 C3394 1.384 . S
C3393 C3392 1.377 . S
C3393 C3399 1.390 . S
C3394 H3385 0.930 . S
C3394 C3392 1.384 . S
C3394 C3395 1.372 . S
C3395 C3394 1.372 . S
C3395 C3396 1.400 . S
C3395 C3400 1.490 . S
C3396 H3386 0.930 . S
C3396 C3395 1.400 . S
C3396 C3399 1.386 . S
H3397 C3413 0.930 . S
H3398 C3414 0.931 . S
C3399 H3387 0.929 . S
C3399 C3393 1.390 . S
C3399 C3396 1.386 . S
C3400 C3395 1.490 . S
C3400 C3402 1.395 . S
C3400 C3403 1.403 . S
H3401 C3407 0.930 . S
C3402 H3388 0.930 . S
C3402 C3400 1.395 . S
C3402 C3405 1.403 . S
C3403 C3400 1.403 . S
C3403 C3404 1.524 . S
C3403 C3407 1.400 . S
C3404 H3389 0.960 . S
C3404 H3390 0.960 . S
C3404 H3391 0.960 . S
C3404 C3403 1.524 . S
C3405 C3402 1.403 . S
C3405 C3406 1.392 . S
C3405 C3409 1.495 . S
C3406 C3405 1.392 . S
C3406 C3407 1.385 . S
C3406 C3408 1.478 . S
C3407 H3401 0.930 . S
C3407 C3403 1.400 . S
C3407 C3406 1.385 . S
C3408 C3406 1.478 . S
C3408 C3410 1.381 . S
C3408 C3414 1.383 . S
C3409 C3405 1.495 . S
C3409 H3415 0.959 . S
C3409 H3416 0.961 . S
C3409 H3417 0.960 . S
C3410 C3408 1.381 . S
C3410 C3411 1.394 . S
C3410 H3418 0.930 . S
C3411 C3410 1.394 . S
C3411 C3412 1.383 . S
C3411 H3419 0.929 . S
C3412 C3411 1.383 . S
C3412 C3413 1.377 . S
C3413 H3397 0.930 . S
C3413 C3412 1.377 . S
C3413 C3414 1.379 . S
C3414 H3398 0.931 . S
C3414 C3408 1.383 . S
C3414 C3413 1.379 . S
H3415 C3409 0.959 . S
H3416 C3409 0.961 . S
H3417 C3409 0.960 . S
H3418 C3410 0.930 . S
H3419 C3411 0.929 . S
H3420 C3428 0.929 . S
H3421 C3430 0.930 . S
H3422 C3432 0.930 . S
H3423 C3435 0.929 . S
H3424 C3438 0.930 . S
H3425 C3440 0.960 . S
H3426 C3440 0.960 . S
H3427 C3440 0.960 . S
C3428 H3420 0.929 . S
C3428 C3429 1.377 . S
C3428 C3430 1.384 . S
C3429 C3428 1.377 . S
C3429 C3435 1.390 . S
C3430 H3421 0.930 . S
C3430 C3428 1.384 . S
C3430 C3431 1.372 . S
C3431 C3430 1.372 . S
C3431 C3432 1.400 . S
C3431 C3436 1.490 . S
C3432 H3422 0.930 . S
C3432 C3431 1.400 . S
C3432 C3435 1.386 . S
H3433 C3449 0.930 . S
H3434 C3450 0.931 . S
C3435 H3423 0.929 . S
C3435 C3429 1.390 . S
C3435 C3432 1.386 . S
C3436 C3431 1.490 . S
C3436 C3438 1.395 . S
C3436 C3439 1.403 . S
H3437 C3443 0.930 . S
C3438 H3424 0.930 . S
C3438 C3436 1.395 . S
C3438 C3441 1.403 . S
C3439 C3436 1.403 . S
C3439 C3440 1.524 . S
C3439 C3443 1.400 . S
C3440 H3425 0.960 . S
C3440 H3426 0.960 . S
C3440 H3427 0.960 . S
C3440 C3439 1.524 . S
C3441 C3438 1.403 . S
C3441 C3442 1.392 . S
C3441 C3445 1.495 . S
C3442 C3441 1.392 . S
C3442 C3443 1.385 . S
C3442 C3444 1.478 . S
C3443 H3437 0.930 . S
C3443 C3439 1.400 . S
C3443 C3442 1.385 . S
C3444 C3442 1.478 . S
C3444 C3446 1.381 . S
C3444 C3450 1.383 . S
C3445 C3441 1.495 . S
C3445 H3451 0.959 . S
C3445 H3452 0.961 . S
C3445 H3453 0.960 . S
C3446 C3444 1.381 . S
C3446 C3447 1.394 . S
C3446 H3454 0.930 . S
C3447 C3446 1.394 . S
C3447 C3448 1.383 . S
C3447 H3455 0.929 . S
C3448 C3447 1.383 . S
C3448 C3449 1.377 . S
C3449 H3433 0.930 . S
C3449 C3448 1.377 . S
C3449 C3450 1.379 . S
C3450 H3434 0.931 . S
C3450 C3444 1.383 . S
C3450 C3449 1.379 . S
H3451 C3445 0.959 . S
H3452 C3445 0.961 . S
H3453 C3445 0.960 . S
H3454 C3446 0.930 . S
H3455 C3447 0.929 . S
H3456 C3464 0.929 . S
H3457 C3466 0.930 . S
H3458 C3468 0.930 . S
H3459 C3471 0.929 . S
H3460 C3474 0.930 . S
H3461 C3476 0.960 . S
H3462 C3476 0.960 . S
H3463 C3476 0.960 . S
C3464 H3456 0.929 . S
C3464 C3465 1.377 . S
C3464 C3466 1.384 . S
C3465 C3464 1.377 . S
C3465 C3471 1.390 . S
C3466 H3457 0.930 . S
C3466 C3464 1.384 . S
C3466 C3467 1.372 . S
C3467 C3466 1.372 . S
C3467 C3468 1.400 . S
C3467 C3472 1.490 . S
C3468 H3458 0.930 . S
C3468 C3467 1.400 . S
C3468 C3471 1.386 . S
H3469 C3485 0.930 . S
H3470 C3486 0.931 . S
C3471 H3459 0.929 . S
C3471 C3465 1.390 . S
C3471 C3468 1.386 . S
C3472 C3467 1.490 . S
C3472 C3474 1.395 . S
C3472 C3475 1.403 . S
H3473 C3479 0.930 . S
C3474 H3460 0.930 . S
C3474 C3472 1.395 . S
C3474 C3477 1.403 . S
C3475 C3472 1.403 . S
C3475 C3476 1.524 . S
C3475 C3479 1.400 . S
C3476 H3461 0.960 . S
C3476 H3462 0.960 . S
C3476 H3463 0.960 . S
C3476 C3475 1.524 . S
C3477 C3474 1.403 . S
C3477 C3478 1.392 . S
C3477 C3481 1.495 . S
C3478 C3477 1.392 . S
C3478 C3479 1.385 . S
C3478 C3480 1.478 . S
C3479 H3473 0.930 . S
C3479 C3475 1.400 . S
C3479 C3478 1.385 . S
C3480 C3478 1.478 . S
C3480 C3482 1.381 . S
C3480 C3486 1.383 . S
C3481 C3477 1.495 . S
C3481 H3487 0.959 . S
C3481 H3488 0.961 . S
C3481 H3489 0.960 . S
C3482 C3480 1.381 . S
C3482 C3483 1.394 . S
C3482 H3490 0.930 . S
C3483 C3482 1.394 . S
C3483 C3484 1.383 . S
C3483 H3491 0.929 . S
C3484 C3483 1.383 . S
C3484 C3485 1.377 . S
C3485 H3469 0.930 . S
C3485 C3484 1.377 . S
C3485 C3486 1.379 . S
C3486 H3470 0.931 . S
C3486 C3480 1.383 . S
C3486 C3485 1.379 . S
H3487 C3481 0.959 . S
H3488 C3481 0.961 . S
H3489 C3481 0.960 . S
H3490 C3482 0.930 . S
H3491 C3483 0.929 . S
H3492 C3500 0.929 . S
H3493 C3502 0.930 . S
H3494 C3504 0.930 . S
H3495 C3507 0.929 . S
H3496 C3510 0.930 . S
H3497 C3512 0.960 . S
H3498 C3512 0.960 . S
H3499 C3512 0.960 . S
C3500 H3492 0.929 . S
C3500 C3501 1.377 . S
C3500 C3502 1.384 . S
C3501 C3500 1.377 . S
C3501 C3507 1.390 . S
C3502 H3493 0.930 . S
C3502 C3500 1.384 . S
C3502 C3503 1.372 . S
C3503 C3502 1.372 . S
C3503 C3504 1.400 . S
C3503 C3508 1.490 . S
C3504 H3494 0.930 . S
C3504 C3503 1.400 . S
C3504 C3507 1.386 . S
H3505 C3521 0.930 . S
H3506 C3522 0.931 . S
C3507 H3495 0.929 . S
C3507 C3501 1.390 . S
C3507 C3504 1.386 . S
C3508 C3503 1.490 . S
C3508 C3510 1.395 . S
C3508 C3511 1.403 . S
H3509 C3515 0.930 . S
C3510 H3496 0.930 . S
C3510 C3508 1.395 . S
C3510 C3513 1.403 . S
C3511 C3508 1.403 . S
C3511 C3512 1.524 . S
C3511 C3515 1.400 . S
C3512 H3497 0.960 . S
C3512 H3498 0.960 . S
C3512 H3499 0.960 . S
C3512 C3511 1.524 . S
C3513 C3510 1.403 . S
C3513 C3514 1.392 . S
C3513 C3517 1.495 . S
C3514 C3513 1.392 . S
C3514 C3515 1.385 . S
C3514 C3516 1.478 . S
C3515 H3509 0.930 . S
C3515 C3511 1.400 . S
C3515 C3514 1.385 . S
C3516 C3514 1.478 . S
C3516 C3518 1.381 . S
C3516 C3522 1.383 . S
C3517 C3513 1.495 . S
C3517 H3523 0.959 . S
C3517 H3524 0.961 . S
C3517 H3525 0.960 . S
C3518 C3516 1.381 . S
C3518 C3519 1.394 . S
C3518 H3526 0.930 . S
C3519 C3518 1.394 . S
C3519 C3520 1.383 . S
C3519 H3527 0.929 . S
C3520 C3519 1.383 . S
C3520 C3521 1.377 . S
C3521 H3505 0.930 . S
C3521 C3520 1.377 . S
C3521 C3522 1.379 . S
C3522 H3506 0.931 . S
C3522 C3516 1.383 . S
C3522 C3521 1.379 . S
H3523 C3517 0.959 . S
H3524 C3517 0.961 . S
H3525 C3517 0.960 . S
H3526 C3518 0.930 . S
H3527 C3519 0.929 . S
H3528 C3536 0.929 . S
H3529 C3538 0.930 . S
H3530 C3540 0.930 . S
H3531 C3543 0.929 . S
H3532 C3546 0.930 . S
H3533 C3548 0.960 . S
H3534 C3548 0.960 . S
H3535 C3548 0.960 . S
C3536 H3528 0.929 . S
C3536 C3537 1.377 . S
C3536 C3538 1.384 . S
C3537 C3536 1.377 . S
C3537 C3543 1.390 . S
C3538 H3529 0.930 . S
C3538 C3536 1.384 . S
C3538 C3539 1.372 . S
C3539 C3538 1.372 . S
C3539 C3540 1.400 . S
C3539 C3544 1.490 . S
C3540 H3530 0.930 . S
C3540 C3539 1.400 . S
C3540 C3543 1.386 . S
H3541 C3557 0.930 . S
H3542 C3558 0.931 . S
C3543 H3531 0.929 . S
C3543 C3537 1.390 . S
C3543 C3540 1.386 . S
C3544 C3539 1.490 . S
C3544 C3546 1.395 . S
C3544 C3547 1.403 . S
H3545 C3551 0.930 . S
C3546 H3532 0.930 . S
C3546 C3544 1.395 . S
C3546 C3549 1.403 . S
C3547 C3544 1.403 . S
C3547 C3548 1.524 . S
C3547 C3551 1.400 . S
C3548 H3533 0.960 . S
C3548 H3534 0.960 . S
C3548 H3535 0.960 . S
C3548 C3547 1.524 . S
C3549 C3546 1.403 . S
C3549 C3550 1.392 . S
C3549 C3553 1.495 . S
C3550 C3549 1.392 . S
C3550 C3551 1.385 . S
C3550 C3552 1.478 . S
C3551 H3545 0.930 . S
C3551 C3547 1.400 . S
C3551 C3550 1.385 . S
C3552 C3550 1.478 . S
C3552 C3554 1.381 . S
C3552 C3558 1.383 . S
C3553 C3549 1.495 . S
C3553 H3559 0.959 . S
C3553 H3560 0.961 . S
C3553 H3561 0.960 . S
C3554 C3552 1.381 . S
C3554 C3555 1.394 . S
C3554 H3562 0.930 . S
C3555 C3554 1.394 . S
C3555 C3556 1.383 . S
C3555 H3563 0.929 . S
C3556 C3555 1.383 . S
C3556 C3557 1.377 . S
C3557 H3541 0.930 . S
C3557 C3556 1.377 . S
C3557 C3558 1.379 . S
C3558 H3542 0.931 . S
C3558 C3552 1.383 . S
C3558 C3557 1.379 . S
H3559 C3553 0.959 . S
H3560 C3553 0.961 . S
H3561 C3553 0.960 . S
H3562 C3554 0.930 . S
H3563 C3555 0.929 . S
H3564 C3572 0.929 . S
H3565 C3574 0.930 . S
H3566 C3576 0.930 . S
H3567 C3579 0.929 . S
H3568 C3582 0.930 . S
H3569 C3584 0.960 . S
H3570 C3584 0.960 . S
H3571 C3584 0.960 . S
C3572 H3564 0.929 . S
C3572 C3573 1.377 . S
C3572 C3574 1.384 . S
C3573 C3572 1.377 . S
C3573 C3579 1.390 . S
C3574 H3565 0.930 . S
C3574 C3572 1.384 . S
C3574 C3575 1.372 . S
C3575 C3574 1.372 . S
C3575 C3576 1.400 . S
C3575 C3580 1.490 . S
C3576 H3566 0.930 . S
C3576 C3575 1.400 . S
C3576 C3579 1.386 . S
H3577 C3593 0.930 . S
H3578 C3594 0.931 . S
C3579 H3567 0.929 . S
C3579 C3573 1.390 . S
C3579 C3576 1.386 . S
C3580 C3575 1.490 . S
C3580 C3582 1.395 . S
C3580 C3583 1.403 . S
H3581 C3587 0.930 . S
C3582 H3568 0.930 . S
C3582 C3580 1.395 . S
C3582 C3585 1.403 . S
C3583 C3580 1.403 . S
C3583 C3584 1.524 . S
C3583 C3587 1.400 . S
C3584 H3569 0.960 . S
C3584 H3570 0.960 . S
C3584 H3571 0.960 . S
C3584 C3583 1.524 . S
C3585 C3582 1.403 . S
C3585 C3586 1.392 . S
C3585 C3589 1.495 . S
C3586 C3585 1.392 . S
C3586 C3587 1.385 . S
C3586 C3588 1.478 . S
C3587 H3581 0.930 . S
C3587 C3583 1.400 . S
C3587 C3586 1.385 . S
C3588 C3586 1.478 . S
C3588 C3590 1.381 . S
C3588 C3594 1.383 . S
C3589 C3585 1.495 . S
C3589 H3595 0.959 . S
C3589 H3596 0.961 . S
C3589 H3597 0.960 . S
C3590 C3588 1.381 . S
C3590 C3591 1.394 . S
C3590 H3598 0.930 . S
C3591 C3590 1.394 . S
C3591 C3592 1.383 . S
C3591 H3599 0.929 . S
C3592 C3591 1.383 . S
C3592 C3593 1.377 . S
C3593 H3577 0.930 . S
C3593 C3592 1.377 . S
C3593 C3594 1.379 . S
C3594 H3578 0.931 . S
C3594 C3588 1.383 . S
C3594 C3593 1.379 . S
H3595 C3589 0.959 . S
H3596 C3589 0.961 . S
H3597 C3589 0.960 . S
H3598 C3590 0.930 . S
H3599 C3591 0.929 . S
H3600 C3608 0.929 . S
H3601 C3610 0.930 . S
H3602 C3612 0.930 . S
H3603 C3615 0.929 . S
H3604 C3618 0.930 . S
H3605 C3620 0.960 . S
H3606 C3620 0.960 . S
H3607 C3620 0.960 . S
C3608 H3600 0.929 . S
C3608 C3609 1.377 . S
C3608 C3610 1.384 . S
C3609 C3608 1.377 . S
C3609 C3615 1.390 . S
C3610 H3601 0.930 . S
C3610 C3608 1.384 . S
C3610 C3611 1.372 . S
C3611 C3610 1.372 . S
C3611 C3612 1.400 . S
C3611 C3616 1.490 . S
C3612 H3602 0.930 . S
C3612 C3611 1.400 . S
C3612 C3615 1.386 . S
H3613 C3629 0.930 . S
H3614 C3630 0.931 . S
C3615 H3603 0.929 . S
C3615 C3609 1.390 . S
C3615 C3612 1.386 . S
C3616 C3611 1.490 . S
C3616 C3618 1.395 . S
C3616 C3619 1.403 . S
H3617 C3623 0.930 . S
C3618 H3604 0.930 . S
C3618 C3616 1.395 . S
C3618 C3621 1.403 . S
C3619 C3616 1.403 . S
C3619 C3620 1.524 . S
C3619 C3623 1.400 . S
C3620 H3605 0.960 . S
C3620 H3606 0.960 . S
C3620 H3607 0.960 . S
C3620 C3619 1.524 . S
C3621 C3618 1.403 . S
C3621 C3622 1.392 . S
C3621 C3625 1.495 . S
C3622 C3621 1.392 . S
C3622 C3623 1.385 . S
C3622 C3624 1.478 . S
C3623 H3617 0.930 . S
C3623 C3619 1.400 . S
C3623 C3622 1.385 . S
C3624 C3622 1.478 . S
C3624 C3626 1.381 . S
C3624 C3630 1.383 . S
C3625 C3621 1.495 . S
C3625 H3631 0.959 . S
C3625 H3632 0.961 . S
C3625 H3633 0.960 . S
C3626 C3624 1.381 . S
C3626 C3627 1.394 . S
C3626 H3634 0.930 . S
C3627 C3626 1.394 . S
C3627 C3628 1.383 . S
C3627 H3635 0.929 . S
C3628 C3627 1.383 . S
C3628 C3629 1.377 . S
C3629 H3613 0.930 . S
C3629 C3628 1.377 . S
C3629 C3630 1.379 . S
C3630 H3614 0.931 . S
C3630 C3624 1.383 . S
C3630 C3629 1.379 . S
H3631 C3625 0.959 . S
H3632 C3625 0.961 . S
H3633 C3625 0.960 . S
H3634 C3626 0.930 . S
H3635 C3627 0.929 . S
H3636 C3644 0.929 . S
H3637 C3646 0.930 . S
H3638 C3648 0.930 . S
H3639 C3651 0.929 . S
H3640 C3654 0.930 . S
H3641 C3656 0.960 . S
H3642 C3656 0.960 . S
H3643 C3656 0.960 . S
C3644 H3636 0.929 . S
C3644 C3645 1.377 . S
C3644 C3646 1.384 . S
C3645 C3644 1.377 . S
C3645 C3651 1.390 . S
C3646 H3637 0.930 . S
C3646 C3644 1.384 . S
C3646 C3647 1.372 . S
C3647 C3646 1.372 . S
C3647 C3648 1.400 . S
C3647 C3652 1.490 . S
C3648 H3638 0.930 . S
C3648 C3647 1.400 . S
C3648 C3651 1.386 . S
H3649 C3665 0.930 . S
H3650 C3666 0.931 . S
C3651 H3639 0.929 . S
C3651 C3645 1.390 . S
C3651 C3648 1.386 . S
C3652 C3647 1.490 . S
C3652 C3654 1.395 . S
C3652 C3655 1.403 . S
H3653 C3659 0.930 . S
C3654 H3640 0.930 . S
C3654 C3652 1.395 . S
C3654 C3657 1.403 . S
C3655 C3652 1.403 . S
C3655 C3656 1.524 . S
C3655 C3659 1.400 . S
C3656 H3641 0.960 . S
C3656 H3642 0.960 . S
C3656 H3643 0.960 . S
C3656 C3655 1.524 . S
C3657 C3654 1.403 . S
C3657 C3658 1.392 . S
C3657 C3661 1.495 . S
C3658 C3657 1.392 . S
C3658 C3659 1.385 . S
C3658 C3660 1.478 . S
C3659 H3653 0.930 . S
C3659 C3655 1.400 . S
C3659 C3658 1.385 . S
C3660 C3658 1.478 . S
C3660 C3662 1.381 . S
C3660 C3666 1.383 . S
C3661 C3657 1.495 . S
C3661 H3667 0.959 . S
C3661 H3668 0.961 . S
C3661 H3669 0.960 . S
C3662 C3660 1.381 . S
C3662 C3663 1.394 . S
C3662 H3670 0.930 . S
C3663 C3662 1.394 . S
C3663 C3664 1.383 . S
C3663 H3671 0.929 . S
C3664 C3663 1.383 . S
C3664 C3665 1.377 . S
C3665 H3649 0.930 . S
C3665 C3664 1.377 . S
C3665 C3666 1.379 . S
C3666 H3650 0.931 . S
C3666 C3660 1.383 . S
C3666 C3665 1.379 . S
H3667 C3661 0.959 . S
H3668 C3661 0.961 . S
H3669 C3661 0.960 . S
H3670 C3662 0.930 . S
H3671 C3663 0.929 . S
H3672 C3680 0.929 . S
H3673 C3682 0.930 . S
H3674 C3684 0.930 . S
H3675 C3687 0.929 . S
H3676 C3690 0.930 . S
H3677 C3692 0.960 . S
H3678 C3692 0.960 . S
H3679 C3692 0.960 . S
C3680 H3672 0.929 . S
C3680 C3681 1.377 . S
C3680 C3682 1.384 . S
C3681 C3680 1.377 . S
C3681 C3687 1.390 . S
C3682 H3673 0.930 . S
C3682 C3680 1.384 . S
C3682 C3683 1.372 . S
C3683 C3682 1.372 . S
C3683 C3684 1.400 . S
C3683 C3688 1.490 . S
C3684 H3674 0.930 . S
C3684 C3683 1.400 . S
C3684 C3687 1.386 . S
H3685 C3701 0.930 . S
H3686 C3702 0.931 . S
C3687 H3675 0.929 . S
C3687 C3681 1.390 . S
C3687 C3684 1.386 . S
C3688 C3683 1.490 . S
C3688 C3690 1.395 . S
C3688 C3691 1.403 . S
H3689 C3695 0.930 . S
C3690 H3676 0.930 . S
C3690 C3688 1.395 . S
C3690 C3693 1.403 . S
C3691 C3688 1.403 . S
C3691 C3692 1.524 . S
C3691 C3695 1.400 . S
C3692 H3677 0.960 . S
C3692 H3678 0.960 . S
C3692 H3679 0.960 . S
C3692 C3691 1.524 . S
C3693 C3690 1.403 . S
C3693 C3694 1.392 . S
C3693 C3697 1.495 . S
C3694 C3693 1.392 . S
C3694 C3695 1.385 . S
C3694 C3696 1.478 . S
C3695 H3689 0.930 . S
C3695 C3691 1.400 . S
C3695 C3694 1.385 . S
C3696 C3694 1.478 . S
C3696 C3698 1.381 . S
C3696 C3702 1.383 . S
C3697 C3693 1.495 . S
C3697 H3703 0.959 . S
C3697 H3704 0.961 . S
C3697 H3705 0.960 . S
C3698 C3696 1.381 . S
C3698 C3699 1.394 . S
C3698 H3706 0.930 . S
C3699 C3698 1.394 . S
C3699 C3700 1.383 . S
C3699 H3707 0.929 . S
C3700 C3699 1.383 . S
C3700 C3701 1.377 . S
C3701 H3685 0.930 . S
C3701 C3700 1.377 . S
C3701 C3702 1.379 . S
C3702 H3686 0.931 . S
C3702 C3696 1.383 . S
C3702 C3701 1.379 . S
H3703 C3697 0.959 . S
H3704 C3697 0.961 . S
H3705 C3697 0.960 . S
H3706 C3698 0.930 . S
H3707 C3699 0.929 . S
H3708 C3716 0.929 . S
H3709 C3718 0.930 . S
H3710 C3720 0.930 . S
H3711 C3723 0.929 1_554 S
H3712 C3726 0.930 . S
H3713 C3728 0.960 . S
H3714 C3728 0.960 . S
H3715 C3728 0.960 . S
C3716 H3708 0.929 . S
C3716 C3717 1.377 . S
C3716 C3718 1.384 . S
C3717 C3716 1.377 . S
C3717 C3723 1.390 . S
C3718 H3709 0.930 . S
C3718 C3716 1.384 . S
C3718 C3719 1.372 . S
C3719 C3718 1.372 . S
C3719 C3720 1.400 . S
C3719 C3724 1.490 . S
C3720 H3710 0.930 . S
C3720 C3719 1.400 . S
C3720 C3723 1.386 . S
H3721 C3737 0.930 . S
H3722 C3738 0.931 . S
C3723 H3711 0.929 1_556 S
C3723 C3717 1.390 . S
C3723 C3720 1.386 . S
C3724 C3719 1.490 . S
C3724 C3726 1.395 . S
C3724 C3727 1.403 . S
H3725 C3731 0.930 . S
C3726 H3712 0.930 . S
C3726 C3724 1.395 . S
C3726 C3729 1.403 . S
C3727 C3724 1.403 . S
C3727 C3728 1.524 . S
C3727 C3731 1.400 . S
C3728 H3713 0.960 . S
C3728 H3714 0.960 . S
C3728 H3715 0.960 . S
C3728 C3727 1.524 . S
C3729 C3726 1.403 . S
C3729 C3730 1.392 . S
C3729 C3733 1.495 . S
C3730 C3729 1.392 . S
C3730 C3731 1.385 . S
C3730 C3732 1.478 . S
C3731 H3725 0.930 . S
C3731 C3727 1.400 . S
C3731 C3730 1.385 . S
C3732 C3730 1.478 . S
C3732 C3734 1.381 . S
C3732 C3738 1.383 . S
C3733 C3729 1.495 . S
C3733 H3739 0.959 . S
C3733 H3740 0.961 . S
C3733 H3741 0.960 . S
C3734 C3732 1.381 . S
C3734 C3735 1.394 . S
C3734 H3742 0.930 . S
C3735 C3734 1.394 . S
C3735 C3736 1.383 . S
C3735 H3743 0.929 . S
C3736 C3735 1.383 . S
C3736 C3737 1.377 . S
C3737 H3721 0.930 . S
C3737 C3736 1.377 . S
C3737 C3738 1.379 . S
C3738 H3722 0.931 . S
C3738 C3732 1.383 . S
C3738 C3737 1.379 . S
H3739 C3733 0.959 . S
H3740 C3733 0.961 . S
H3741 C3733 0.960 . S
H3742 C3734 0.930 . S
H3743 C3735 0.929 . S
H3744 C3752 0.929 . S
H3745 C3754 0.930 . S
H3746 C3756 0.930 . S
H3747 C3759 0.929 . S
H3748 C3762 0.930 . S
H3749 C3764 0.960 . S
H3750 C3764 0.960 . S
H3751 C3764 0.960 . S
C3752 H3744 0.929 . S
C3752 C3753 1.377 . S
C3752 C3754 1.384 . S
C3753 C3752 1.377 . S
C3753 C3759 1.390 . S
C3754 H3745 0.930 . S
C3754 C3752 1.384 . S
C3754 C3755 1.372 . S
C3755 C3754 1.372 . S
C3755 C3756 1.400 . S
C3755 C3760 1.490 . S
C3756 H3746 0.930 . S
C3756 C3755 1.400 . S
C3756 C3759 1.386 . S
H3757 C3773 0.930 . S
H3758 C3774 0.931 . S
C3759 H3747 0.929 . S
C3759 C3753 1.390 . S
C3759 C3756 1.386 . S
C3760 C3755 1.490 . S
C3760 C3762 1.395 . S
C3760 C3763 1.403 . S
H3761 C3767 0.930 . S
C3762 H3748 0.930 . S
C3762 C3760 1.395 . S
C3762 C3765 1.403 . S
C3763 C3760 1.403 . S
C3763 C3764 1.524 . S
C3763 C3767 1.400 . S
C3764 H3749 0.960 . S
C3764 H3750 0.960 . S
C3764 H3751 0.960 . S
C3764 C3763 1.524 . S
C3765 C3762 1.403 . S
C3765 C3766 1.392 . S
C3765 C3769 1.495 . S
C3766 C3765 1.392 . S
C3766 C3767 1.385 . S
C3766 C3768 1.478 . S
C3767 H3761 0.930 . S
C3767 C3763 1.400 . S
C3767 C3766 1.385 . S
C3768 C3766 1.478 . S
C3768 C3770 1.381 . S
C3768 C3774 1.383 . S
C3769 C3765 1.495 . S
C3769 H3775 0.959 . S
C3769 H3776 0.961 . S
C3769 H3777 0.960 . S
C3770 C3768 1.381 . S
C3770 C3771 1.394 . S
C3770 H3778 0.930 . S
C3771 C3770 1.394 . S
C3771 C3772 1.383 . S
C3771 H3779 0.929 . S
C3772 C3771 1.383 . S
C3772 C3773 1.377 . S
C3773 H3757 0.930 . S
C3773 C3772 1.377 . S
C3773 C3774 1.379 . S
C3774 H3758 0.931 . S
C3774 C3768 1.383 . S
C3774 C3773 1.379 . S
H3775 C3769 0.959 . S
H3776 C3769 0.961 . S
H3777 C3769 0.960 . S
H3778 C3770 0.930 . S
H3779 C3771 0.929 . S
H3780 C3788 0.929 . S
H3781 C3790 0.930 . S
H3782 C3792 0.930 . S
H3783 C3795 0.929 . S
H3784 C3798 0.930 . S
H3785 C3800 0.960 . S
H3786 C3800 0.960 . S
H3787 C3800 0.960 . S
C3788 H3780 0.929 . S
C3788 C3789 1.377 . S
C3788 C3790 1.384 . S
C3789 C3788 1.377 . S
C3789 C3795 1.390 . S
C3790 H3781 0.930 . S
C3790 C3788 1.384 . S
C3790 C3791 1.372 . S
C3791 C3790 1.372 . S
C3791 C3792 1.400 . S
C3791 C3796 1.490 . S
C3792 H3782 0.930 . S
C3792 C3791 1.400 . S
C3792 C3795 1.386 . S
H3793 C3809 0.930 . S
H3794 C3810 0.931 . S
C3795 H3783 0.929 . S
C3795 C3789 1.390 . S
C3795 C3792 1.386 . S
C3796 C3791 1.490 . S
C3796 C3798 1.395 . S
C3796 C3799 1.403 . S
H3797 C3803 0.930 . S
C3798 H3784 0.930 . S
C3798 C3796 1.395 . S
C3798 C3801 1.403 . S
C3799 C3796 1.403 . S
C3799 C3800 1.524 . S
C3799 C3803 1.400 . S
C3800 H3785 0.960 . S
C3800 H3786 0.960 . S
C3800 H3787 0.960 . S
C3800 C3799 1.524 . S
C3801 C3798 1.403 . S
C3801 C3802 1.392 . S
C3801 C3805 1.495 . S
C3802 C3801 1.392 . S
C3802 C3803 1.385 . S
C3802 C3804 1.478 . S
C3803 H3797 0.930 . S
C3803 C3799 1.400 . S
C3803 C3802 1.385 . S
C3804 C3802 1.478 . S
C3804 C3806 1.381 . S
C3804 C3810 1.383 . S
C3805 C3801 1.495 . S
C3805 H3811 0.959 . S
C3805 H3812 0.961 . S
C3805 H3813 0.960 . S
C3806 C3804 1.381 . S
C3806 C3807 1.394 . S
C3806 H3814 0.930 . S
C3807 C3806 1.394 . S
C3807 C3808 1.383 . S
C3807 H3815 0.929 . S
C3808 C3807 1.383 . S
C3808 C3809 1.377 . S
C3809 H3793 0.930 . S
C3809 C3808 1.377 . S
C3809 C3810 1.379 . S
C3810 H3794 0.931 . S
C3810 C3804 1.383 . S
C3810 C3809 1.379 . S
H3811 C3805 0.959 . S
H3812 C3805 0.961 . S
H3813 C3805 0.960 . S
H3814 C3806 0.930 . S
H3815 C3807 0.929 . S
H3816 C3824 0.929 1_554 S
H3817 C3826 0.930 . S
H3818 C3828 0.930 . S
H3819 C3831 0.929 . S
H3820 C3834 0.930 . S
H3821 C3836 0.960 . S
H3822 C3836 0.960 . S
H3823 C3836 0.960 . S
C3824 H3816 0.929 1_556 S
C3824 C3825 1.377 . S
C3824 C3826 1.384 . S
C3825 C3824 1.377 . S
C3825 C3831 1.390 . S
C3826 H3817 0.930 . S
C3826 C3824 1.384 . S
C3826 C3827 1.372 . S
C3827 C3826 1.372 . S
C3827 C3828 1.400 . S
C3827 C3832 1.490 . S
C3828 H3818 0.930 . S
C3828 C3827 1.400 . S
C3828 C3831 1.386 . S
H3829 C3845 0.930 . S
H3830 C3846 0.931 . S
C3831 H3819 0.929 . S
C3831 C3825 1.390 . S
C3831 C3828 1.386 . S
C3832 C3827 1.490 . S
C3832 C3834 1.395 . S
C3832 C3835 1.403 . S
H3833 C3839 0.930 . S
C3834 H3820 0.930 . S
C3834 C3832 1.395 . S
C3834 C3837 1.403 . S
C3835 C3832 1.403 . S
C3835 C3836 1.524 . S
C3835 C3839 1.400 . S
C3836 H3821 0.960 . S
C3836 H3822 0.960 . S
C3836 H3823 0.960 . S
C3836 C3835 1.524 . S
C3837 C3834 1.403 . S
C3837 C3838 1.392 . S
C3837 C3841 1.495 . S
C3838 C3837 1.392 . S
C3838 C3839 1.385 . S
C3838 C3840 1.478 . S
C3839 H3833 0.930 . S
C3839 C3835 1.400 . S
C3839 C3838 1.385 . S
C3840 C3838 1.478 . S
C3840 C3842 1.381 . S
C3840 C3846 1.383 . S
C3841 C3837 1.495 . S
C3841 H3847 0.959 . S
C3841 H3848 0.961 . S
C3841 H3849 0.960 . S
C3842 C3840 1.381 . S
C3842 C3843 1.394 . S
C3842 H3850 0.930 . S
C3843 C3842 1.394 . S
C3843 C3844 1.383 . S
C3843 H3851 0.929 . S
C3844 C3843 1.383 . S
C3844 C3845 1.377 . S
C3845 H3829 0.930 . S
C3845 C3844 1.377 . S
C3845 C3846 1.379 . S
C3846 H3830 0.931 . S
C3846 C3840 1.383 . S
C3846 C3845 1.379 . S
H3847 C3841 0.959 . S
H3848 C3841 0.961 . S
H3849 C3841 0.960 . S
H3850 C3842 0.930 . S
H3851 C3843 0.929 . S
H3852 C3860 0.929 . S
H3853 C3862 0.930 . S
H3854 C3864 0.930 . S
H3855 C3867 0.929 . S
H3856 C3870 0.930 . S
H3857 C3872 0.960 . S
H3858 C3872 0.960 . S
H3859 C3872 0.960 . S
C3860 H3852 0.929 . S
C3860 C3861 1.377 . S
C3860 C3862 1.384 . S
C3861 C3860 1.377 . S
C3861 C3867 1.390 . S
C3862 H3853 0.930 . S
C3862 C3860 1.384 . S
C3862 C3863 1.372 . S
C3863 C3862 1.372 . S
C3863 C3864 1.400 . S
C3863 C3868 1.490 . S
C3864 H3854 0.930 . S
C3864 C3863 1.400 . S
C3864 C3867 1.386 . S
H3865 C3881 0.930 . S
H3866 C3882 0.931 . S
C3867 H3855 0.929 . S
C3867 C3861 1.390 . S
C3867 C3864 1.386 . S
C3868 C3863 1.490 . S
C3868 C3870 1.395 . S
C3868 C3871 1.403 . S
H3869 C3875 0.930 . S
C3870 H3856 0.930 . S
C3870 C3868 1.395 . S
C3870 C3873 1.403 . S
C3871 C3868 1.403 . S
C3871 C3872 1.524 . S
C3871 C3875 1.400 . S
C3872 H3857 0.960 . S
C3872 H3858 0.960 . S
C3872 H3859 0.960 . S
C3872 C3871 1.524 . S
C3873 C3870 1.403 . S
C3873 C3874 1.392 . S
C3873 C3877 1.495 . S
C3874 C3873 1.392 . S
C3874 C3875 1.385 . S
C3874 C3876 1.478 . S
C3875 H3869 0.930 . S
C3875 C3871 1.400 . S
C3875 C3874 1.385 . S
C3876 C3874 1.478 . S
C3876 C3878 1.381 . S
C3876 C3882 1.383 . S
C3877 C3873 1.495 . S
C3877 H3883 0.959 . S
C3877 H3884 0.961 . S
C3877 H3885 0.960 . S
C3878 C3876 1.381 . S
C3878 C3879 1.394 . S
C3878 H3886 0.930 . S
C3879 C3878 1.394 . S
C3879 C3880 1.383 . S
C3879 H3887 0.929 . S
C3880 C3879 1.383 . S
C3880 C3881 1.377 . S
C3881 H3865 0.930 . S
C3881 C3880 1.377 . S
C3881 C3882 1.379 . S
C3882 H3866 0.931 . S
C3882 C3876 1.383 . S
C3882 C3881 1.379 . S
H3883 C3877 0.959 . S
H3884 C3877 0.961 . S
H3885 C3877 0.960 . S
H3886 C3878 0.930 . S
H3887 C3879 0.929 . S
H3888 C3896 0.929 1_554 S
H3889 C3898 0.930 . S
H3890 C3900 0.930 . S
H3891 C3903 0.929 . S
H3892 C3906 0.930 . S
H3893 C3908 0.960 . S
H3894 C3908 0.960 . S
H3895 C3908 0.960 . S
C3896 H3888 0.929 1_556 S
C3896 C3897 1.377 . S
C3896 C3898 1.384 . S
C3897 C3896 1.377 . S
C3897 C3903 1.390 . S
C3898 H3889 0.930 . S
C3898 C3896 1.384 . S
C3898 C3899 1.372 . S
C3899 C3898 1.372 . S
C3899 C3900 1.400 . S
C3899 C3904 1.490 . S
C3900 H3890 0.930 . S
C3900 C3899 1.400 . S
C3900 C3903 1.386 . S
H3901 C3917 0.930 . S
H3902 C3918 0.931 . S
C3903 H3891 0.929 . S
C3903 C3897 1.390 . S
C3903 C3900 1.386 . S
C3904 C3899 1.490 . S
C3904 C3906 1.395 . S
C3904 C3907 1.403 . S
H3905 C3911 0.930 . S
C3906 H3892 0.930 . S
C3906 C3904 1.395 . S
C3906 C3909 1.403 . S
C3907 C3904 1.403 . S
C3907 C3908 1.524 . S
C3907 C3911 1.400 . S
C3908 H3893 0.960 . S
C3908 H3894 0.960 . S
C3908 H3895 0.960 . S
C3908 C3907 1.524 . S
C3909 C3906 1.403 . S
C3909 C3910 1.392 . S
C3909 C3913 1.495 . S
C3910 C3909 1.392 . S
C3910 C3911 1.385 . S
C3910 C3912 1.478 . S
C3911 H3905 0.930 . S
C3911 C3907 1.400 . S
C3911 C3910 1.385 . S
C3912 C3910 1.478 . S
C3912 C3914 1.381 . S
C3912 C3918 1.383 . S
C3913 C3909 1.495 . S
C3913 H3919 0.959 . S
C3913 H3920 0.961 . S
C3913 H3921 0.960 . S
C3914 C3912 1.381 . S
C3914 C3915 1.394 . S
C3914 H3922 0.930 . S
C3915 C3914 1.394 . S
C3915 C3916 1.383 . S
C3915 H3923 0.929 . S
C3916 C3915 1.383 . S
C3916 C3917 1.377 . S
C3917 H3901 0.930 . S
C3917 C3916 1.377 . S
C3917 C3918 1.379 . S
C3918 H3902 0.931 . S
C3918 C3912 1.383 . S
C3918 C3917 1.379 . S
H3919 C3913 0.959 . S
H3920 C3913 0.961 . S
H3921 C3913 0.960 . S
H3922 C3914 0.930 . S
H3923 C3915 0.929 . S
H3924 C3932 0.929 . S
H3925 C3934 0.930 . S
H3926 C3936 0.930 . S
H3927 C3939 0.929 . S
H3928 C3942 0.930 . S
H3929 C3944 0.960 . S
H3930 C3944 0.960 . S
H3931 C3944 0.960 . S
C3932 H3924 0.929 . S
C3932 C3933 1.377 . S
C3932 C3934 1.384 . S
C3933 C3932 1.377 . S
C3933 C3939 1.390 . S
C3934 H3925 0.930 . S
C3934 C3932 1.384 . S
C3934 C3935 1.372 . S
C3935 C3934 1.372 . S
C3935 C3936 1.400 . S
C3935 C3940 1.490 . S
C3936 H3926 0.930 . S
C3936 C3935 1.400 . S
C3936 C3939 1.386 . S
H3937 C3953 0.930 . S
H3938 C3954 0.931 . S
C3939 H3927 0.929 . S
C3939 C3933 1.390 . S
C3939 C3936 1.386 . S
C3940 C3935 1.490 . S
C3940 C3942 1.395 . S
C3940 C3943 1.403 . S
H3941 C3947 0.930 . S
C3942 H3928 0.930 . S
C3942 C3940 1.395 . S
C3942 C3945 1.403 . S
C3943 C3940 1.403 . S
C3943 C3944 1.524 . S
C3943 C3947 1.400 . S
C3944 H3929 0.960 . S
C3944 H3930 0.960 . S
C3944 H3931 0.960 . S
C3944 C3943 1.524 . S
C3945 C3942 1.403 . S
C3945 C3946 1.392 . S
C3945 C3949 1.495 . S
C3946 C3945 1.392 . S
C3946 C3947 1.385 . S
C3946 C3948 1.478 . S
C3947 H3941 0.930 . S
C3947 C3943 1.400 . S
C3947 C3946 1.385 . S
C3948 C3946 1.478 . S
C3948 C3950 1.381 . S
C3948 C3954 1.383 . S
C3949 C3945 1.495 . S
C3949 H3955 0.959 . S
C3949 H3956 0.961 . S
C3949 H3957 0.960 . S
C3950 C3948 1.381 . S
C3950 C3951 1.394 . S
C3950 H3958 0.930 . S
C3951 C3950 1.394 . S
C3951 C3952 1.383 . S
C3951 H3959 0.929 . S
C3952 C3951 1.383 . S
C3952 C3953 1.377 . S
C3953 H3937 0.930 . S
C3953 C3952 1.377 . S
C3953 C3954 1.379 . S
C3954 H3938 0.931 . S
C3954 C3948 1.383 . S
C3954 C3953 1.379 . S
H3955 C3949 0.959 . S
H3956 C3949 0.961 . S
H3957 C3949 0.960 . S
H3958 C3950 0.930 . S
H3959 C3951 0.929 . S
H3960 C3968 0.929 . S
H3961 C3970 0.930 . S
H3962 C3972 0.930 . S
H3963 C3975 0.929 . S
H3964 C3978 0.930 . S
H3965 C3980 0.960 . S
H3966 C3980 0.960 . S
H3967 C3980 0.960 . S
C3968 H3960 0.929 . S
C3968 C3969 1.377 . S
C3968 C3970 1.384 . S
C3969 C3968 1.377 . S
C3969 C3975 1.390 . S
C3970 H3961 0.930 . S
C3970 C3968 1.384 . S
C3970 C3971 1.372 . S
C3971 C3970 1.372 . S
C3971 C3972 1.400 . S
C3971 C3976 1.490 . S
C3972 H3962 0.930 . S
C3972 C3971 1.400 . S
C3972 C3975 1.386 . S
H3973 C3989 0.930 . S
H3974 C3990 0.931 . S
C3975 H3963 0.929 . S
C3975 C3969 1.390 . S
C3975 C3972 1.386 . S
C3976 C3971 1.490 . S
C3976 C3978 1.395 . S
C3976 C3979 1.403 . S
H3977 C3983 0.930 . S
C3978 H3964 0.930 . S
C3978 C3976 1.395 . S
C3978 C3981 1.403 . S
C3979 C3976 1.403 . S
C3979 C3980 1.524 . S
C3979 C3983 1.400 . S
C3980 H3965 0.960 . S
C3980 H3966 0.960 . S
C3980 H3967 0.960 . S
C3980 C3979 1.524 . S
C3981 C3978 1.403 . S
C3981 C3982 1.392 . S
C3981 C3985 1.495 . S
C3982 C3981 1.392 . S
C3982 C3983 1.385 . S
C3982 C3984 1.478 . S
C3983 H3977 0.930 . S
C3983 C3979 1.400 . S
C3983 C3982 1.385 . S
C3984 C3982 1.478 . S
C3984 C3986 1.381 . S
C3984 C3990 1.383 . S
C3985 C3981 1.495 . S
C3985 H3991 0.959 . S
C3985 H3992 0.961 . S
C3985 H3993 0.960 . S
C3986 C3984 1.381 . S
C3986 C3987 1.394 . S
C3986 H3994 0.930 . S
C3987 C3986 1.394 . S
C3987 C3988 1.383 . S
C3987 H3995 0.929 . S
C3988 C3987 1.383 . S
C3988 C3989 1.377 . S
C3989 H3973 0.930 . S
C3989 C3988 1.377 . S
C3989 C3990 1.379 . S
C3990 H3974 0.931 . S
C3990 C3984 1.383 . S
C3990 C3989 1.379 . S
H3991 C3985 0.959 . S
H3992 C3985 0.961 . S
H3993 C3985 0.960 . S
H3994 C3986 0.930 . S
H3995 C3987 0.929 . S
H3996 C4004 0.929 . S
H3997 C4006 0.930 . S
H3998 C4008 0.930 . S
H3999 C4011 0.929 . S
H4000 C4014 0.930 . S
H4001 C4016 0.960 . S
H4002 C4016 0.960 . S
H4003 C4016 0.960 . S
C4004 H3996 0.929 . S
C4004 C4005 1.377 . S
C4004 C4006 1.384 . S
C4005 C4004 1.377 . S
C4005 C4011 1.390 . S
C4006 H3997 0.930 . S
C4006 C4004 1.384 . S
C4006 C4007 1.372 . S
C4007 C4006 1.372 . S
C4007 C4008 1.400 . S
C4007 C4012 1.490 . S
C4008 H3998 0.930 . S
C4008 C4007 1.400 . S
C4008 C4011 1.386 . S
H4009 C4025 0.930 . S
H4010 C4026 0.931 . S
C4011 H3999 0.929 . S
C4011 C4005 1.390 . S
C4011 C4008 1.386 . S
C4012 C4007 1.490 . S
C4012 C4014 1.395 . S
C4012 C4015 1.403 . S
H4013 C4019 0.930 . S
C4014 H4000 0.930 . S
C4014 C4012 1.395 . S
C4014 C4017 1.403 . S
C4015 C4012 1.403 . S
C4015 C4016 1.524 . S
C4015 C4019 1.400 . S
C4016 H4001 0.960 . S
C4016 H4002 0.960 . S
C4016 H4003 0.960 . S
C4016 C4015 1.524 . S
C4017 C4014 1.403 . S
C4017 C4018 1.392 . S
C4017 C4021 1.495 . S
C4018 C4017 1.392 . S
C4018 C4019 1.385 . S
C4018 C4020 1.478 . S
C4019 H4013 0.930 . S
C4019 C4015 1.400 . S
C4019 C4018 1.385 . S
C4020 C4018 1.478 . S
C4020 C4022 1.381 . S
C4020 C4026 1.383 . S
C4021 C4017 1.495 . S
C4021 H4027 0.959 . S
C4021 H4028 0.961 . S
C4021 H4029 0.960 . S
C4022 C4020 1.381 . S
C4022 C4023 1.394 . S
C4022 H4030 0.930 . S
C4023 C4022 1.394 . S
C4023 C4024 1.383 . S
C4023 H4031 0.929 . S
C4024 C4023 1.383 . S
C4024 C4025 1.377 . S
C4025 H4009 0.930 . S
C4025 C4024 1.377 . S
C4025 C4026 1.379 . S
C4026 H4010 0.931 . S
C4026 C4020 1.383 . S
C4026 C4025 1.379 . S
H4027 C4021 0.959 . S
H4028 C4021 0.961 . S
H4029 C4021 0.960 . S
H4030 C4022 0.930 . S
H4031 C4023 0.929 . S
H4032 C4040 0.929 . S
H4033 C4042 0.930 . S
H4034 C4044 0.930 . S
H4035 C4047 0.929 . S
H4036 C4050 0.930 . S
H4037 C4052 0.960 . S
H4038 C4052 0.960 . S
H4039 C4052 0.960 . S
C4040 H4032 0.929 . S
C4040 C4041 1.377 . S
C4040 C4042 1.384 . S
C4041 C4040 1.377 . S
C4041 C4047 1.390 . S
C4042 H4033 0.930 . S
C4042 C4040 1.384 . S
C4042 C4043 1.372 . S
C4043 C4042 1.372 . S
C4043 C4044 1.400 . S
C4043 C4048 1.490 . S
C4044 H4034 0.930 . S
C4044 C4043 1.400 . S
C4044 C4047 1.386 . S
H4045 C4061 0.930 . S
H4046 C4062 0.931 . S
C4047 H4035 0.929 . S
C4047 C4041 1.390 . S
C4047 C4044 1.386 . S
C4048 C4043 1.490 . S
C4048 C4050 1.395 . S
C4048 C4051 1.403 . S
H4049 C4055 0.930 . S
C4050 H4036 0.930 . S
C4050 C4048 1.395 . S
C4050 C4053 1.403 . S
C4051 C4048 1.403 . S
C4051 C4052 1.524 . S
C4051 C4055 1.400 . S
C4052 H4037 0.960 . S
C4052 H4038 0.960 . S
C4052 H4039 0.960 . S
C4052 C4051 1.524 . S
C4053 C4050 1.403 . S
C4053 C4054 1.392 . S
C4053 C4057 1.495 . S
C4054 C4053 1.392 . S
C4054 C4055 1.385 . S
C4054 C4056 1.478 . S
C4055 H4049 0.930 . S
C4055 C4051 1.400 . S
C4055 C4054 1.385 . S
C4056 C4054 1.478 . S
C4056 C4058 1.381 . S
C4056 C4062 1.383 . S
C4057 C4053 1.495 . S
C4057 H4063 0.959 . S
C4057 H4064 0.961 . S
C4057 H4065 0.960 . S
C4058 C4056 1.381 . S
C4058 C4059 1.394 . S
C4058 H4066 0.930 . S
C4059 C4058 1.394 . S
C4059 C4060 1.383 . S
C4059 H4067 0.929 . S
C4060 C4059 1.383 . S
C4060 C4061 1.377 . S
C4061 H4045 0.930 . S
C4061 C4060 1.377 . S
C4061 C4062 1.379 . S
C4062 H4046 0.931 . S
C4062 C4056 1.383 . S
C4062 C4061 1.379 . S
H4063 C4057 0.959 . S
H4064 C4057 0.961 . S
H4065 C4057 0.960 . S
H4066 C4058 0.930 . S
H4067 C4059 0.929 . S
H4068 C4076 0.929 . S
H4069 C4078 0.930 . S
H4070 C4080 0.930 . S
H4071 C4083 0.929 . S
H4072 C4086 0.930 . S
H4073 C4088 0.960 . S
H4074 C4088 0.960 . S
H4075 C4088 0.960 . S
C4076 H4068 0.929 . S
C4076 C4077 1.377 . S
C4076 C4078 1.384 . S
C4077 C4076 1.377 . S
C4077 C4083 1.390 . S
C4078 H4069 0.930 . S
C4078 C4076 1.384 . S
C4078 C4079 1.372 . S
C4079 C4078 1.372 . S
C4079 C4080 1.400 . S
C4079 C4084 1.490 . S
C4080 H4070 0.930 . S
C4080 C4079 1.400 . S
C4080 C4083 1.386 . S
H4081 C4097 0.930 . S
H4082 C4098 0.931 . S
C4083 H4071 0.929 . S
C4083 C4077 1.390 . S
C4083 C4080 1.386 . S
C4084 C4079 1.490 . S
C4084 C4086 1.395 . S
C4084 C4087 1.403 . S
H4085 C4091 0.930 . S
C4086 H4072 0.930 . S
C4086 C4084 1.395 . S
C4086 C4089 1.403 . S
C4087 C4084 1.403 . S
C4087 C4088 1.524 . S
C4087 C4091 1.400 . S
C4088 H4073 0.960 . S
C4088 H4074 0.960 . S
C4088 H4075 0.960 . S
C4088 C4087 1.524 . S
C4089 C4086 1.403 . S
C4089 C4090 1.392 . S
C4089 C4093 1.495 . S
C4090 C4089 1.392 . S
C4090 C4091 1.385 . S
C4090 C4092 1.478 . S
C4091 H4085 0.930 . S
C4091 C4087 1.400 . S
C4091 C4090 1.385 . S
C4092 C4090 1.478 . S
C4092 C4094 1.381 . S
C4092 C4098 1.383 . S
C4093 C4089 1.495 . S
C4093 H4099 0.959 . S
C4093 H4100 0.961 . S
C4093 H4101 0.960 . S
C4094 C4092 1.381 . S
C4094 C4095 1.394 . S
C4094 H4102 0.930 . S
C4095 C4094 1.394 . S
C4095 C4096 1.383 . S
C4095 H4103 0.929 . S
C4096 C4095 1.383 . S
C4096 C4097 1.377 . S
C4097 H4081 0.930 . S
C4097 C4096 1.377 . S
C4097 C4098 1.379 . S
C4098 H4082 0.931 . S
C4098 C4092 1.383 . S
C4098 C4097 1.379 . S
H4099 C4093 0.959 . S
H4100 C4093 0.961 . S
H4101 C4093 0.960 . S
H4102 C4094 0.930 . S
H4103 C4095 0.929 . S
H4104 C4112 0.929 . S
H4105 C4114 0.930 . S
H4106 C4116 0.930 . S
H4107 C4119 0.929 . S
H4108 C4122 0.930 . S
H4109 C4124 0.960 . S
H4110 C4124 0.960 . S
H4111 C4124 0.960 . S
C4112 H4104 0.929 . S
C4112 C4113 1.377 . S
C4112 C4114 1.384 . S
C4113 C4112 1.377 . S
C4113 C4119 1.390 . S
C4114 H4105 0.930 . S
C4114 C4112 1.384 . S
C4114 C4115 1.372 . S
C4115 C4114 1.372 . S
C4115 C4116 1.400 . S
C4115 C4120 1.490 . S
C4116 H4106 0.930 . S
C4116 C4115 1.400 . S
C4116 C4119 1.386 . S
H4117 C4133 0.930 . S
H4118 C4134 0.931 . S
C4119 H4107 0.929 . S
C4119 C4113 1.390 . S
C4119 C4116 1.386 . S
C4120 C4115 1.490 . S
C4120 C4122 1.395 . S
C4120 C4123 1.403 . S
H4121 C4127 0.930 . S
C4122 H4108 0.930 . S
C4122 C4120 1.395 . S
C4122 C4125 1.403 . S
C4123 C4120 1.403 . S
C4123 C4124 1.524 . S
C4123 C4127 1.400 . S
C4124 H4109 0.960 . S
C4124 H4110 0.960 . S
C4124 H4111 0.960 . S
C4124 C4123 1.524 . S
C4125 C4122 1.403 . S
C4125 C4126 1.392 . S
C4125 C4129 1.495 . S
C4126 C4125 1.392 . S
C4126 C4127 1.385 . S
C4126 C4128 1.478 . S
C4127 H4121 0.930 . S
C4127 C4123 1.400 . S
C4127 C4126 1.385 . S
C4128 C4126 1.478 . S
C4128 C4130 1.381 . S
C4128 C4134 1.383 . S
C4129 C4125 1.495 . S
C4129 H4135 0.959 . S
C4129 H4136 0.961 . S
C4129 H4137 0.960 . S
C4130 C4128 1.381 . S
C4130 C4131 1.394 . S
C4130 H4138 0.930 . S
C4131 C4130 1.394 . S
C4131 C4132 1.383 . S
C4131 H4139 0.929 . S
C4132 C4131 1.383 . S
C4132 C4133 1.377 . S
C4133 H4117 0.930 . S
C4133 C4132 1.377 . S
C4133 C4134 1.379 . S
C4134 H4118 0.931 . S
C4134 C4128 1.383 . S
C4134 C4133 1.379 . S
H4135 C4129 0.959 . S
H4136 C4129 0.961 . S
H4137 C4129 0.960 . S
H4138 C4130 0.930 . S
H4139 C4131 0.929 . S
H4140 C4148 0.884 1_655 S
H4141 C4150 0.930 1_655 S
H4142 C4152 0.930 . S
H4143 C4155 0.929 . S
H4144 C4158 0.930 . S
H4145 C4160 0.960 . S
H4146 C4160 0.960 . S
H4147 C4160 0.960 . S
C4148 H4140 0.884 1_455 S
C4148 C4149 1.377 . S
C4148 C4150 1.384 . S
C4149 C4148 1.377 . S
C4149 C4155 1.390 . S
C4150 H4141 0.930 1_455 S
C4150 C4148 1.384 . S
C4150 C4151 1.372 . S
C4151 C4150 1.372 . S
C4151 C4152 1.400 . S
C4151 C4156 1.490 . S
C4152 H4142 0.930 . S
C4152 C4151 1.400 . S
C4152 C4155 1.386 . S
H4153 C4169 0.930 . S
H4154 C4170 0.931 . S
C4155 H4143 0.929 . S
C4155 C4149 1.390 . S
C4155 C4152 1.386 . S
C4156 C4151 1.490 . S
C4156 C4158 1.395 . S
C4156 C4159 1.403 . S
H4157 C4163 0.930 . S
C4158 H4144 0.930 . S
C4158 C4156 1.395 . S
C4158 C4161 1.403 . S
C4159 C4156 1.403 . S
C4159 C4160 1.524 . S
C4159 C4163 1.400 . S
C4160 H4145 0.960 . S
C4160 H4146 0.960 . S
C4160 H4147 0.960 . S
C4160 C4159 1.524 . S
C4161 C4158 1.403 . S
C4161 C4162 1.392 . S
C4161 C4165 1.495 . S
C4162 C4161 1.392 . S
C4162 C4163 1.385 . S
C4162 C4164 1.478 . S
C4163 H4157 0.930 . S
C4163 C4159 1.400 . S
C4163 C4162 1.385 . S
C4164 C4162 1.478 . S
C4164 C4166 1.381 1_455 S
C4164 C4170 1.383 . S
C4165 C4161 1.495 . S
C4165 H4171 0.959 . S
C4165 H4172 0.961 . S
C4165 H4173 0.960 1_455 S
C4166 C4164 1.381 1_655 S
C4166 C4167 1.394 . S
C4166 H4174 0.930 . S
C4167 C4166 1.394 . S
C4167 C4168 1.383 1_655 S
C4167 H4175 0.929 . S
C4168 C4167 1.383 1_455 S
C4168 C4169 1.377 . S
C4169 H4153 0.930 . S
C4169 C4168 1.377 . S
C4169 C4170 1.379 . S
C4170 H4154 0.931 . S
C4170 C4164 1.383 . S
C4170 C4169 1.379 . S
H4171 C4165 0.959 . S
H4172 C4165 0.961 . S
H4173 C4165 0.960 1_655 S
H4174 C4166 0.930 . S
H4175 C4167 0.929 . S
H4176 C4184 0.929 . S
H4177 C4186 0.930 . S
H4178 C4188 0.930 . S
H4179 C4191 0.929 . S
H4180 C4194 0.930 . S
H4181 C4196 0.960 . S
H4182 C4196 0.960 . S
H4183 C4196 0.960 . S
C4184 H4176 0.929 . S
C4184 C4185 1.377 . S
C4184 C4186 1.384 . S
C4185 C4184 1.377 . S
C4185 C4191 1.390 . S
C4186 H4177 0.930 . S
C4186 C4184 1.384 . S
C4186 C4187 1.372 . S
C4187 C4186 1.372 . S
C4187 C4188 1.400 . S
C4187 C4192 1.490 . S
C4188 H4178 0.930 . S
C4188 C4187 1.400 . S
C4188 C4191 1.386 . S
H4189 C4205 0.930 . S
H4190 C4206 0.931 . S
C4191 H4179 0.929 . S
C4191 C4185 1.390 . S
C4191 C4188 1.386 . S
C4192 C4187 1.490 . S
C4192 C4194 1.395 . S
C4192 C4195 1.403 . S
H4193 C4199 0.930 . S
C4194 H4180 0.930 . S
C4194 C4192 1.395 . S
C4194 C4197 1.403 . S
C4195 C4192 1.403 . S
C4195 C4196 1.524 . S
C4195 C4199 1.400 . S
C4196 H4181 0.960 . S
C4196 H4182 0.960 . S
C4196 H4183 0.960 . S
C4196 C4195 1.524 . S
C4197 C4194 1.403 . S
C4197 C4198 1.392 . S
C4197 C4201 1.495 . S
C4198 C4197 1.392 . S
C4198 C4199 1.385 . S
C4198 C4200 1.478 . S
C4199 H4193 0.930 . S
C4199 C4195 1.400 . S
C4199 C4198 1.385 . S
C4200 C4198 1.478 . S
C4200 C4202 1.381 . S
C4200 C4206 1.383 . S
C4201 C4197 1.495 . S
C4201 H4207 0.959 . S
C4201 H4208 0.961 . S
C4201 H4209 0.960 . S
C4202 C4200 1.381 . S
C4202 C4203 1.394 . S
C4202 H4210 0.930 . S
C4203 C4202 1.394 . S
C4203 C4204 1.383 . S
C4203 H4211 0.929 . S
C4204 C4203 1.383 . S
C4204 C4205 1.377 . S
C4205 H4189 0.930 . S
C4205 C4204 1.377 . S
C4205 C4206 1.379 . S
C4206 H4190 0.931 . S
C4206 C4200 1.383 . S
C4206 C4205 1.379 . S
H4207 C4201 0.959 . S
H4208 C4201 0.961 . S
H4209 C4201 0.960 . S
H4210 C4202 0.930 . S
H4211 C4203 0.929 . S
H4212 C4220 0.929 . S
H4213 C4222 0.930 . S
H4214 C4224 0.930 . S
H4215 C4227 0.929 . S
H4216 C4230 0.964 . S
H4217 C4232 0.960 . S
H4218 C4232 0.960 . S
H4219 C4232 0.960 . S
C4220 H4212 0.929 . S
C4220 C4221 1.377 1_545 S
C4220 C4222 1.384 . S
C4221 C4220 1.377 1_565 S
C4221 C4227 1.390 . S
C4222 H4213 0.930 . S
C4222 C4220 1.384 . S
C4222 C4223 1.372 1_545 S
C4223 C4222 1.372 1_565 S
C4223 C4224 1.400 . S
C4223 C4228 1.490 . S
C4224 H4214 0.930 . S
C4224 C4223 1.400 . S
C4224 C4227 1.386 . S
H4225 C4241 0.930 . S
H4226 C4242 0.931 . S
C4227 H4215 0.929 . S
C4227 C4221 1.390 . S
C4227 C4224 1.386 . S
C4228 C4223 1.490 . S
C4228 C4230 1.390 1_565 S
C4228 C4231 1.403 . S
H4229 C4235 0.930 . S
C4230 H4216 0.964 . S
C4230 C4228 1.390 1_545 S
C4230 C4233 1.380 . S
C4231 C4228 1.403 . S
C4231 C4232 1.524 . S
C4231 C4235 1.400 . S
C4232 H4217 0.960 . S
C4232 H4218 0.960 . S
C4232 H4219 0.960 . S
C4232 C4231 1.524 . S
C4233 C4230 1.380 . S
C4233 C4234 1.392 1_545 S
C4233 C4237 1.495 . S
C4234 C4233 1.392 1_565 S
C4234 C4235 1.385 . S
C4234 C4236 1.478 . S
C4235 H4229 0.930 . S
C4235 C4231 1.400 . S
C4235 C4234 1.385 . S
C4236 C4234 1.478 . S
C4236 C4238 1.381 1_565 S
C4236 C4242 1.383 . S
C4237 C4233 1.495 . S
C4237 H4243 0.959 . S
C4237 H4244 0.961 . S
C4237 H4245 0.960 . S
C4238 C4236 1.381 1_545 S
C4238 C4239 1.394 . S
C4238 H4246 0.930 . S
C4239 C4238 1.394 . S
C4239 C4240 1.383 1_545 S
C4239 H4247 0.929 . S
C4240 C4239 1.383 1_565 S
C4240 C4241 1.377 . S
C4241 H4225 0.930 . S
C4241 C4240 1.377 . S
C4241 C4242 1.379 . S
C4242 H4226 0.931 . S
C4242 C4236 1.383 . S
C4242 C4241 1.379 . S
H4243 C4237 0.959 . S
H4244 C4237 0.961 . S
H4245 C4237 0.960 . S
H4246 C4238 0.930 . S
H4247 C4239 0.929 . S
H4248 C4256 0.929 . S
H4249 C4258 0.930 . S
H4250 C4260 0.930 . S
H4251 C4263 0.929 . S
H4252 C4266 0.930 . S
H4253 C4268 0.960 . S
H4254 C4268 0.960 . S
H4255 C4268 0.960 . S
C4256 H4248 0.929 . S
C4256 C4257 1.377 1_545 S
C4256 C4258 1.384 . S
C4257 C4256 1.377 1_565 S
C4257 C4263 1.390 . S
C4258 H4249 0.930 . S
C4258 C4256 1.384 . S
C4258 C4259 1.372 1_545 S
C4259 C4258 1.372 1_565 S
C4259 C4260 1.400 . S
C4259 C4264 1.490 . S
C4260 H4250 0.930 . S
C4260 C4259 1.400 . S
C4260 C4263 1.386 . S
H4261 C4277 0.930 . S
H4262 C4278 0.931 . S
C4263 H4251 0.929 . S
C4263 C4257 1.390 . S
C4263 C4260 1.386 . S
C4264 C4259 1.490 . S
C4264 C4266 1.395 . S
C4264 C4267 1.403 . S
H4265 C4271 0.930 . S
C4266 H4252 0.930 . S
C4266 C4264 1.395 . S
C4266 C4269 1.403 . S
C4267 C4264 1.403 . S
C4267 C4268 1.524 . S
C4267 C4271 1.400 . S
C4268 H4253 0.960 . S
C4268 H4254 0.960 . S
C4268 H4255 0.960 . S
C4268 C4267 1.524 . S
C4269 C4266 1.403 . S
C4269 C4270 1.392 . S
C4269 C4273 1.495 . S
C4270 C4269 1.392 . S
C4270 C4271 1.385 . S
C4270 C4272 1.478 . S
C4271 H4265 0.930 . S
C4271 C4267 1.400 . S
C4271 C4270 1.385 . S
C4272 C4270 1.478 . S
C4272 C4274 1.381 1_565 S
C4272 C4278 1.383 . S
C4273 C4269 1.495 . S
C4273 H4279 0.929 . S
C4273 H4280 0.961 . S
C4273 H4281 0.960 1_565 S
C4274 C4272 1.381 1_545 S
C4274 C4275 1.394 . S
C4274 H4282 0.930 . S
C4275 C4274 1.394 . S
C4275 C4276 1.383 1_545 S
C4275 H4283 0.929 . S
C4276 C4275 1.383 1_565 S
C4276 C4277 1.377 . S
C4277 H4261 0.930 . S
C4277 C4276 1.377 . S
C4277 C4278 1.379 . S
C4278 H4262 0.931 . S
C4278 C4272 1.383 . S
C4278 C4277 1.379 . S
H4279 C4273 0.929 . S
H4280 C4273 0.961 . S
H4281 C4273 0.960 1_545 S
H4282 C4274 0.930 . S
H4283 C4275 0.929 . S
H4284 C4292 0.908 1_655 S
H4285 C4294 0.930 . S
H4286 C4296 0.930 . S
H4287 C4299 0.929 . S
H4288 C4302 0.930 . S
H4289 C4304 0.960 . S
H4290 C4304 0.960 . S
H4291 C4304 0.960 . S
C4292 H4284 0.908 1_455 S
C4292 C4293 1.391 . S
C4292 C4294 1.392 1_455 S
C4293 C4292 1.391 . S
C4293 C4299 1.390 . S
C4294 H4285 0.930 . S
C4294 C4292 1.392 1_655 S
C4294 C4295 1.372 1_655 S
C4295 C4294 1.372 1_455 S
C4295 C4296 1.400 . S
C4295 C4300 1.490 . S
C4296 H4286 0.930 . S
C4296 C4295 1.400 . S
C4296 C4299 1.386 . S
H4297 C4313 0.930 . S
H4298 C4314 0.931 . S
C4299 H4287 0.929 . S
C4299 C4293 1.390 . S
C4299 C4296 1.386 . S
C4300 C4295 1.490 . S
C4300 C4302 1.395 1_455 S
C4300 C4303 1.403 . S
H4301 C4307 0.930 . S
C4302 H4288 0.930 . S
C4302 C4300 1.395 1_655 S
C4302 C4305 1.403 . S
C4303 C4300 1.403 . S
C4303 C4304 1.524 . S
C4303 C4307 1.400 . S
C4304 H4289 0.960 . S
C4304 H4290 0.960 . S
C4304 H4291 0.960 . S
C4304 C4303 1.524 . S
C4305 C4302 1.403 . S
C4305 C4306 1.392 1_655 S
C4305 C4309 1.495 . S
C4306 C4305 1.392 1_455 S
C4306 C4307 1.385 . S
C4306 C4308 1.478 . S
C4307 H4301 0.930 . S
C4307 C4303 1.400 . S
C4307 C4306 1.385 . S
C4308 C4306 1.478 . S
C4308 C4310 1.381 1_455 S
C4308 C4314 1.383 . S
C4309 C4305 1.495 . S
C4309 H4315 0.959 . S
C4309 H4316 0.961 . S
C4309 H4317 0.960 . S
C4310 C4308 1.381 1_655 S
C4310 C4311 1.394 . S
C4310 H4318 0.930 . S
C4311 C4310 1.394 . S
C4311 C4312 1.381 . S
C4311 H4319 0.929 . S
C4312 C4311 1.381 . S
C4312 C4313 1.378 1_655 S
C4313 H4297 0.930 . S
C4313 C4312 1.378 1_455 S
C4313 C4314 1.379 . S
C4314 H4298 0.931 . S
C4314 C4308 1.383 . S
C4314 C4313 1.379 . S
H4315 C4309 0.959 . S
H4316 C4309 0.961 . S
H4317 C4309 0.960 . S
H4318 C4310 0.930 . S
H4319 C4311 0.929 . S
H4320 C4328 0.929 . S
H4321 C4330 0.930 . S
H4322 C4332 0.930 . S
H4323 C4335 0.929 . S
H4324 C4338 0.930 . S
H4325 C4340 0.960 . S
H4326 C4340 0.960 . S
H4327 C4340 0.960 . S
C4328 H4320 0.929 . S
C4328 C4329 1.377 . S
C4328 C4330 1.384 . S
C4329 C4328 1.377 . S
C4329 C4335 1.390 . S
C4330 H4321 0.930 . S
C4330 C4328 1.384 . S
C4330 C4331 1.372 . S
C4331 C4330 1.372 . S
C4331 C4332 1.400 . S
C4331 C4336 1.490 . S
C4332 H4322 0.930 . S
C4332 C4331 1.400 . S
C4332 C4335 1.386 . S
H4333 C4349 0.930 . S
H4334 C4350 0.931 . S
C4335 H4323 0.929 . S
C4335 C4329 1.390 . S
C4335 C4332 1.386 . S
C4336 C4331 1.490 . S
C4336 C4338 1.395 . S
C4336 C4339 1.403 . S
H4337 C4343 0.930 . S
C4338 H4324 0.930 . S
C4338 C4336 1.395 . S
C4338 C4341 1.403 . S
C4339 C4336 1.403 . S
C4339 C4340 1.524 . S
C4339 C4343 1.400 . S
C4340 H4325 0.960 . S
C4340 H4326 0.960 . S
C4340 H4327 0.960 . S
C4340 C4339 1.524 . S
C4341 C4338 1.403 . S
C4341 C4342 1.392 . S
C4341 C4345 1.495 . S
C4342 C4341 1.392 . S
C4342 C4343 1.385 . S
C4342 C4344 1.478 . S
C4343 H4337 0.930 . S
C4343 C4339 1.400 . S
C4343 C4342 1.385 . S
C4344 C4342 1.478 . S
C4344 C4346 1.381 . S
C4344 C4350 1.383 . S
C4345 C4341 1.495 . S
C4345 H4351 0.959 . S
C4345 H4352 0.961 . S
C4345 H4353 0.960 . S
C4346 C4344 1.381 . S
C4346 C4347 1.394 . S
C4346 H4354 0.930 . S
C4347 C4346 1.394 . S
C4347 C4348 1.383 . S
C4347 H4355 0.929 . S
C4348 C4347 1.383 . S
C4348 C4349 1.377 . S
C4349 H4333 0.930 . S
C4349 C4348 1.377 . S
C4349 C4350 1.379 . S
C4350 H4334 0.931 . S
C4350 C4344 1.383 . S
C4350 C4349 1.379 . S
H4351 C4345 0.959 . S
H4352 C4345 0.961 . S
H4353 C4345 0.960 . S
H4354 C4346 0.930 . S
H4355 C4347 0.929 . S
H4356 C4364 0.929 . S
H4357 C4366 0.930 . S
H4358 C4368 0.930 . S
H4359 C4371 0.929 . S
H4360 C4374 0.930 . S
H4361 C4376 0.960 . S
H4362 C4376 0.960 . S
H4363 C4376 0.960 . S
C4364 H4356 0.929 . S
C4364 C4365 1.377 . S
C4364 C4366 1.384 . S
C4365 C4364 1.377 . S
C4365 C4371 1.390 . S
C4366 H4357 0.930 . S
C4366 C4364 1.384 . S
C4366 C4367 1.372 . S
C4367 C4366 1.372 . S
C4367 C4368 1.400 . S
C4367 C4372 1.490 . S
C4368 H4358 0.930 . S
C4368 C4367 1.400 . S
C4368 C4371 1.386 . S
H4369 C4385 0.930 . S
H4370 C4386 0.931 . S
C4371 H4359 0.929 . S
C4371 C4365 1.390 . S
C4371 C4368 1.386 . S
C4372 C4367 1.490 . S
C4372 C4374 1.395 . S
C4372 C4375 1.403 . S
H4373 C4379 0.930 . S
C4374 H4360 0.930 . S
C4374 C4372 1.395 . S
C4374 C4377 1.403 . S
C4375 C4372 1.403 . S
C4375 C4376 1.524 . S
C4375 C4379 1.400 . S
C4376 H4361 0.960 . S
C4376 H4362 0.960 . S
C4376 H4363 0.960 . S
C4376 C4375 1.524 . S
C4377 C4374 1.403 . S
C4377 C4378 1.392 . S
C4377 C4381 1.495 . S
C4378 C4377 1.392 . S
C4378 C4379 1.385 . S
C4378 C4380 1.478 . S
C4379 H4373 0.930 . S
C4379 C4375 1.400 . S
C4379 C4378 1.385 . S
C4380 C4378 1.478 . S
C4380 C4382 1.381 . S
C4380 C4386 1.383 . S
C4381 C4377 1.495 . S
C4381 H4387 0.959 . S
C4381 H4388 0.961 . S
C4381 H4389 0.960 . S
C4382 C4380 1.381 . S
C4382 C4383 1.394 . S
C4382 H4390 0.930 . S
C4383 C4382 1.394 . S
C4383 C4384 1.383 . S
C4383 H4391 0.929 . S
C4384 C4383 1.383 . S
C4384 C4385 1.377 . S
C4385 H4369 0.930 . S
C4385 C4384 1.377 . S
C4385 C4386 1.379 . S
C4386 H4370 0.931 . S
C4386 C4380 1.383 . S
C4386 C4385 1.379 . S
H4387 C4381 0.959 . S
H4388 C4381 0.961 . S
H4389 C4381 0.960 . S
H4390 C4382 0.930 . S
H4391 C4383 0.929 . S
H4392 C4400 0.929 . S
H4393 C4402 0.930 . S
H4394 C4404 0.930 . S
H4395 C4407 0.929 . S
H4396 C4410 0.930 . S
H4397 C4412 0.960 . S
H4398 C4412 0.960 . S
H4399 C4412 0.960 . S
C4400 H4392 0.929 . S
C4400 C4401 1.377 . S
C4400 C4402 1.384 . S
C4401 C4400 1.377 . S
C4401 C4407 1.390 . S
C4402 H4393 0.930 . S
C4402 C4400 1.384 . S
C4402 C4403 1.372 . S
C4403 C4402 1.372 . S
C4403 C4404 1.400 . S
C4403 C4408 1.490 . S
C4404 H4394 0.930 . S
C4404 C4403 1.400 . S
C4404 C4407 1.386 . S
H4405 C4421 0.930 . S
H4406 C4422 0.931 . S
C4407 H4395 0.929 . S
C4407 C4401 1.390 . S
C4407 C4404 1.386 . S
C4408 C4403 1.490 . S
C4408 C4410 1.395 . S
C4408 C4411 1.403 . S
H4409 C4415 0.930 . S
C4410 H4396 0.930 . S
C4410 C4408 1.395 . S
C4410 C4413 1.403 . S
C4411 C4408 1.403 . S
C4411 C4412 1.524 . S
C4411 C4415 1.400 . S
C4412 H4397 0.960 . S
C4412 H4398 0.960 . S
C4412 H4399 0.960 . S
C4412 C4411 1.524 . S
C4413 C4410 1.403 . S
C4413 C4414 1.392 . S
C4413 C4417 1.495 . S
C4414 C4413 1.392 . S
C4414 C4415 1.385 . S
C4414 C4416 1.478 . S
C4415 H4409 0.930 . S
C4415 C4411 1.400 . S
C4415 C4414 1.385 . S
C4416 C4414 1.478 . S
C4416 C4418 1.381 . S
C4416 C4422 1.383 . S
C4417 C4413 1.495 . S
C4417 H4423 0.959 . S
C4417 H4424 0.961 . S
C4417 H4425 0.960 . S
C4418 C4416 1.381 . S
C4418 C4419 1.394 . S
C4418 H4426 0.930 . S
C4419 C4418 1.394 . S
C4419 C4420 1.383 . S
C4419 H4427 0.929 . S
C4420 C4419 1.383 . S
C4420 C4421 1.377 . S
C4421 H4405 0.930 . S
C4421 C4420 1.377 . S
C4421 C4422 1.379 . S
C4422 H4406 0.931 . S
C4422 C4416 1.383 . S
C4422 C4421 1.379 . S
H4423 C4417 0.959 . S
H4424 C4417 0.961 . S
H4425 C4417 0.960 . S
H4426 C4418 0.930 . S
H4427 C4419 0.929 . S
H4428 C4436 0.929 . S
H4429 C4438 0.930 . S
H4430 C4440 0.930 . S
H4431 C4443 0.929 . S
H4432 C4446 0.930 . S
H4433 C4448 0.960 . S
H4434 C4448 0.960 . S
H4435 C4448 0.960 . S
C4436 H4428 0.929 . S
C4436 C4437 1.377 . S
C4436 C4438 1.384 . S
C4437 C4436 1.377 . S
C4437 C4443 1.390 . S
C4438 H4429 0.930 . S
C4438 C4436 1.384 . S
C4438 C4439 1.372 . S
C4439 C4438 1.372 . S
C4439 C4440 1.400 . S
C4439 C4444 1.490 . S
C4440 H4430 0.930 . S
C4440 C4439 1.400 . S
C4440 C4443 1.386 . S
H4441 C4457 0.930 . S
H4442 C4458 0.931 . S
C4443 H4431 0.929 . S
C4443 C4437 1.390 . S
C4443 C4440 1.386 . S
C4444 C4439 1.490 . S
C4444 C4446 1.395 . S
C4444 C4447 1.403 . S
H4445 C4451 0.930 . S
C4446 H4432 0.930 . S
C4446 C4444 1.395 . S
C4446 C4449 1.403 . S
C4447 C4444 1.403 . S
C4447 C4448 1.524 . S
C4447 C4451 1.400 . S
C4448 H4433 0.960 . S
C4448 H4434 0.960 . S
C4448 H4435 0.960 . S
C4448 C4447 1.524 . S
C4449 C4446 1.403 . S
C4449 C4450 1.392 . S
C4449 C4453 1.495 . S
C4450 C4449 1.392 . S
C4450 C4451 1.385 . S
C4450 C4452 1.478 . S
C4451 H4445 0.930 . S
C4451 C4447 1.400 . S
C4451 C4450 1.385 . S
C4452 C4450 1.478 . S
C4452 C4454 1.381 . S
C4452 C4458 1.383 . S
C4453 C4449 1.495 . S
C4453 H4459 0.959 . S
C4453 H4460 0.961 . S
C4453 H4461 0.960 . S
C4454 C4452 1.381 . S
C4454 C4455 1.394 . S
C4454 H4462 0.930 . S
C4455 C4454 1.394 . S
C4455 C4456 1.383 . S
C4455 H4463 0.929 . S
C4456 C4455 1.383 . S
C4456 C4457 1.377 . S
C4457 H4441 0.930 . S
C4457 C4456 1.377 . S
C4457 C4458 1.379 . S
C4458 H4442 0.931 . S
C4458 C4452 1.383 . S
C4458 C4457 1.379 . S
H4459 C4453 0.959 . S
H4460 C4453 0.961 . S
H4461 C4453 0.960 . S
H4462 C4454 0.930 . S
H4463 C4455 0.929 . S
H4464 C4472 0.929 . S
H4465 C4474 0.930 . S
H4466 C4476 0.930 . S
H4467 C4479 0.929 . S
H4468 C4482 0.930 . S
H4469 C4484 0.960 . S
H4470 C4484 0.960 . S
H4471 C4484 0.960 . S
C4472 H4464 0.929 . S
C4472 C4473 1.377 . S
C4472 C4474 1.384 . S
C4473 C4472 1.377 . S
C4473 C4479 1.390 . S
C4474 H4465 0.930 . S
C4474 C4472 1.384 . S
C4474 C4475 1.372 . S
C4475 C4474 1.372 . S
C4475 C4476 1.400 . S
C4475 C4480 1.490 . S
C4476 H4466 0.930 . S
C4476 C4475 1.400 . S
C4476 C4479 1.386 . S
H4477 C4493 0.930 . S
H4478 C4494 0.931 . S
C4479 H4467 0.929 . S
C4479 C4473 1.390 . S
C4479 C4476 1.386 . S
C4480 C4475 1.490 . S
C4480 C4482 1.395 1_545 S
C4480 C4483 1.403 . S
H4481 C4487 0.930 . S
C4482 H4468 0.930 . S
C4482 C4480 1.395 1_565 S
C4482 C4485 1.403 . S
C4483 C4480 1.403 . S
C4483 C4484 1.524 . S
C4483 C4487 1.400 . S
C4484 H4469 0.960 . S
C4484 H4470 0.960 . S
C4484 H4471 0.960 . S
C4484 C4483 1.524 . S
C4485 C4482 1.403 . S
C4485 C4486 1.392 1_565 S
C4485 C4489 1.495 . S
C4486 C4485 1.392 1_545 S
C4486 C4487 1.385 . S
C4486 C4488 1.478 . S
C4487 H4481 0.930 . S
C4487 C4483 1.400 . S
C4487 C4486 1.385 . S
C4488 C4486 1.478 . S
C4488 C4490 1.381 . S
C4488 C4494 1.383 . S
C4489 C4485 1.495 . S
C4489 H4495 0.959 . S
C4489 H4496 0.961 . S
C4489 H4497 0.960 . S
C4490 C4488 1.381 . S
C4490 C4491 1.394 . S
C4490 H4498 0.930 1_545 S
C4491 C4490 1.394 . S
C4491 C4492 1.383 . S
C4491 H4499 0.915 1_545 S
C4492 C4491 1.383 . S
C4492 C4493 1.377 . S
C4493 H4477 0.930 . S
C4493 C4492 1.377 . S
C4493 C4494 1.379 . S
C4494 H4478 0.931 . S
C4494 C4488 1.383 . S
C4494 C4493 1.379 . S
H4495 C4489 0.959 . S
H4496 C4489 0.961 . S
H4497 C4489 0.960 . S
H4498 C4490 0.930 1_565 S
H4499 C4491 0.915 1_565 S
H4500 C4508 0.929 . S
H4501 C4510 0.930 . S
H4502 C4512 0.930 . S
H4503 C4515 0.929 . S
H4504 C4518 0.930 . S
H4505 C4520 0.960 . S
H4506 C4520 0.949 1_455 S
H4507 C4520 0.960 . S
C4508 H4500 0.929 . S
C4508 C4509 1.377 1_455 S
C4508 C4510 1.384 . S
C4509 C4508 1.377 1_655 S
C4509 C4515 1.390 . S
C4510 H4501 0.930 . S
C4510 C4508 1.384 . S
C4510 C4511 1.372 1_455 S
C4511 C4510 1.372 1_655 S
C4511 C4512 1.400 . S
C4511 C4516 1.490 . S
C4512 H4502 0.930 . S
C4512 C4511 1.400 . S
C4512 C4515 1.386 . S
H4513 C4529 0.930 . S
H4514 C4530 0.931 . S
C4515 H4503 0.929 . S
C4515 C4509 1.390 . S
C4515 C4512 1.386 . S
C4516 C4511 1.490 . S
C4516 C4518 1.395 . S
C4516 C4519 1.403 . S
H4517 C4523 0.930 . S
C4518 H4504 0.930 . S
C4518 C4516 1.395 . S
C4518 C4521 1.403 . S
C4519 C4516 1.403 . S
C4519 C4520 1.524 . S
C4519 C4523 1.400 . S
C4520 H4505 0.960 . S
C4520 H4506 0.949 1_655 S
C4520 H4507 0.960 . S
C4520 C4519 1.524 . S
C4521 C4518 1.403 . S
C4521 C4522 1.392 . S
C4521 C4525 1.495 . S
C4522 C4521 1.392 . S
C4522 C4523 1.385 . S
C4522 C4524 1.478 . S
C4523 H4517 0.930 . S
C4523 C4519 1.400 . S
C4523 C4522 1.385 . S
C4524 C4522 1.478 . S
C4524 C4526 1.381 1_655 S
C4524 C4530 1.383 . S
C4525 C4521 1.495 . S
C4525 H4531 0.981 . S
C4525 H4532 0.961 . S
C4525 H4533 0.960 1_655 S
C4526 C4524 1.381 1_455 S
C4526 C4527 1.394 . S
C4526 H4534 0.930 . S
C4527 C4526 1.394 . S
C4527 C4528 1.383 1_455 S
C4527 H4535 0.929 . S
C4528 C4527 1.383 1_655 S
C4528 C4529 1.377 . S
C4529 H4513 0.930 . S
C4529 C4528 1.377 . S
C4529 C4530 1.379 . S
C4530 H4514 0.931 . S
C4530 C4524 1.383 . S
C4530 C4529 1.379 . S
H4531 C4525 0.981 . S
H4532 C4525 0.961 . S
H4533 C4525 0.960 1_455 S
H4534 C4526 0.930 . S
H4535 C4527 0.929 . S
H4536 C4544 0.929 . S
H4537 C4546 0.930 . S
H4538 C4548 0.930 . S
H4539 C4551 0.929 . S
H4540 C4554 0.930 . S
H4541 C4556 0.960 . S
H4542 C4556 0.960 . S
H4543 C4556 0.960 . S
C4544 H4536 0.929 . S
C4544 C4545 1.377 . S
C4544 C4546 1.384 . S
C4545 C4544 1.377 . S
C4545 C4551 1.390 . S
C4546 H4537 0.930 . S
C4546 C4544 1.384 . S
C4546 C4547 1.372 . S
C4547 C4546 1.372 . S
C4547 C4548 1.400 . S
C4547 C4552 1.490 . S
C4548 H4538 0.930 . S
C4548 C4547 1.400 . S
C4548 C4551 1.386 . S
H4549 C4565 0.930 . S
H4550 C4566 0.931 . S
C4551 H4539 0.929 . S
C4551 C4545 1.390 . S
C4551 C4548 1.386 . S
C4552 C4547 1.490 . S
C4552 C4554 1.395 . S
C4552 C4555 1.403 . S
H4553 C4559 0.930 . S
C4554 H4540 0.930 . S
C4554 C4552 1.395 . S
C4554 C4557 1.403 . S
C4555 C4552 1.403 . S
C4555 C4556 1.524 . S
C4555 C4559 1.400 . S
C4556 H4541 0.960 . S
C4556 H4542 0.960 . S
C4556 H4543 0.960 . S
C4556 C4555 1.524 . S
C4557 C4554 1.403 . S
C4557 C4558 1.392 . S
C4557 C4561 1.495 . S
C4558 C4557 1.392 . S
C4558 C4559 1.385 . S
C4558 C4560 1.478 . S
C4559 H4553 0.930 . S
C4559 C4555 1.400 . S
C4559 C4558 1.385 . S
C4560 C4558 1.478 . S
C4560 C4562 1.381 . S
C4560 C4566 1.383 . S
C4561 C4557 1.495 . S
C4561 H4567 0.959 . S
C4561 H4568 0.961 . S
C4561 H4569 0.960 . S
C4562 C4560 1.381 . S
C4562 C4563 1.394 . S
C4562 H4570 0.930 . S
C4563 C4562 1.394 . S
C4563 C4564 1.383 . S
C4563 H4571 0.929 . S
C4564 C4563 1.383 . S
C4564 C4565 1.377 . S
C4565 H4549 0.930 . S
C4565 C4564 1.377 . S
C4565 C4566 1.379 . S
C4566 H4550 0.931 . S
C4566 C4560 1.383 . S
C4566 C4565 1.379 . S
H4567 C4561 0.959 . S
H4568 C4561 0.961 . S
H4569 C4561 0.960 . S
H4570 C4562 0.930 . S
H4571 C4563 0.929 . S
H4572 C4580 0.929 . S
H4573 C4582 0.930 . S
H4574 C4584 0.930 . S
H4575 C4587 0.929 . S
H4576 C4590 0.930 . S
H4577 C4592 0.960 . S
H4578 C4592 0.960 . S
H4579 C4592 0.960 . S
C4580 H4572 0.929 . S
C4580 C4581 1.377 . S
C4580 C4582 1.384 . S
C4581 C4580 1.377 . S
C4581 C4587 1.390 . S
C4582 H4573 0.930 . S
C4582 C4580 1.384 . S
C4582 C4583 1.372 . S
C4583 C4582 1.372 . S
C4583 C4584 1.400 . S
C4583 C4588 1.490 . S
C4584 H4574 0.930 . S
C4584 C4583 1.400 . S
C4584 C4587 1.386 . S
H4585 C4601 0.930 . S
H4586 C4602 0.931 . S
C4587 H4575 0.929 . S
C4587 C4581 1.390 . S
C4587 C4584 1.386 . S
C4588 C4583 1.490 . S
C4588 C4590 1.395 . S
C4588 C4591 1.403 . S
H4589 C4595 0.930 . S
C4590 H4576 0.930 . S
C4590 C4588 1.395 . S
C4590 C4593 1.403 . S
C4591 C4588 1.403 . S
C4591 C4592 1.524 . S
C4591 C4595 1.400 . S
C4592 H4577 0.960 . S
C4592 H4578 0.960 . S
C4592 H4579 0.960 . S
C4592 C4591 1.524 . S
C4593 C4590 1.403 . S
C4593 C4594 1.392 . S
C4593 C4597 1.495 . S
C4594 C4593 1.392 . S
C4594 C4595 1.385 . S
C4594 C4596 1.478 . S
C4595 H4589 0.930 . S
C4595 C4591 1.400 . S
C4595 C4594 1.385 . S
C4596 C4594 1.478 . S
C4596 C4598 1.381 . S
C4596 C4602 1.383 . S
C4597 C4593 1.495 . S
C4597 H4603 0.959 . S
C4597 H4604 0.961 . S
C4597 H4605 0.960 . S
C4598 C4596 1.381 . S
C4598 C4599 1.394 . S
C4598 H4606 0.930 . S
C4599 C4598 1.394 . S
C4599 C4600 1.383 . S
C4599 H4607 0.929 . S
C4600 C4599 1.383 . S
C4600 C4601 1.377 . S
C4601 H4585 0.930 . S
C4601 C4600 1.377 . S
C4601 C4602 1.379 . S
C4602 H4586 0.931 . S
C4602 C4596 1.383 . S
C4602 C4601 1.379 . S
H4603 C4597 0.959 . S
H4604 C4597 0.961 . S
H4605 C4597 0.960 . S
H4606 C4598 0.930 . S
H4607 C4599 0.929 . S
H4608 C4616 0.929 . S
H4609 C4618 0.930 . S
H4610 C4620 0.930 . S
H4611 C4623 0.929 . S
H4612 C4626 0.930 . S
H4613 C4628 0.960 . S
H4614 C4628 0.960 . S
H4615 C4628 0.960 . S
C4616 H4608 0.929 . S
C4616 C4617 1.377 . S
C4616 C4618 1.384 . S
C4617 C4616 1.377 . S
C4617 C4623 1.390 . S
C4618 H4609 0.930 . S
C4618 C4616 1.384 . S
C4618 C4619 1.372 . S
C4619 C4618 1.372 . S
C4619 C4620 1.400 . S
C4619 C4624 1.490 . S
C4620 H4610 0.930 . S
C4620 C4619 1.400 . S
C4620 C4623 1.386 . S
H4621 C4637 0.930 . S
H4622 C4638 0.931 . S
C4623 H4611 0.929 . S
C4623 C4617 1.390 . S
C4623 C4620 1.386 . S
C4624 C4619 1.490 . S
C4624 C4626 1.395 . S
C4624 C4627 1.403 . S
H4625 C4631 0.930 . S
C4626 H4612 0.930 . S
C4626 C4624 1.395 . S
C4626 C4629 1.403 . S
C4627 C4624 1.403 . S
C4627 C4628 1.524 . S
C4627 C4631 1.400 . S
C4628 H4613 0.960 . S
C4628 H4614 0.960 . S
C4628 H4615 0.960 . S
C4628 C4627 1.524 . S
C4629 C4626 1.403 . S
C4629 C4630 1.392 . S
C4629 C4633 1.495 . S
C4630 C4629 1.392 . S
C4630 C4631 1.385 . S
C4630 C4632 1.478 . S
C4631 H4625 0.930 . S
C4631 C4627 1.400 . S
C4631 C4630 1.385 . S
C4632 C4630 1.478 . S
C4632 C4634 1.381 . S
C4632 C4638 1.383 . S
C4633 C4629 1.495 . S
C4633 H4639 0.959 . S
C4633 H4640 0.961 . S
C4633 H4641 0.960 . S
C4634 C4632 1.381 . S
C4634 C4635 1.394 . S
C4634 H4642 0.930 . S
C4635 C4634 1.394 . S
C4635 C4636 1.383 . S
C4635 H4643 0.929 . S
C4636 C4635 1.383 . S
C4636 C4637 1.377 . S
C4637 H4621 0.930 . S
C4637 C4636 1.377 . S
C4637 C4638 1.379 . S
C4638 H4622 0.931 . S
C4638 C4632 1.383 . S
C4638 C4637 1.379 . S
H4639 C4633 0.959 . S
H4640 C4633 0.961 . S
H4641 C4633 0.960 . S
H4642 C4634 0.930 . S
H4643 C4635 0.929 . S
H4644 C4652 0.929 . S
H4645 C4654 0.930 . S
H4646 C4656 0.930 . S
H4647 C4659 0.929 . S
H4648 C4662 0.930 . S
H4649 C4664 0.960 . S
H4650 C4664 0.960 . S
H4651 C4664 0.960 . S
C4652 H4644 0.929 . S
C4652 C4653 1.377 . S
C4652 C4654 1.384 . S
C4653 C4652 1.377 . S
C4653 C4659 1.390 . S
C4654 H4645 0.930 . S
C4654 C4652 1.384 . S
C4654 C4655 1.372 . S
C4655 C4654 1.372 . S
C4655 C4656 1.400 . S
C4655 C4660 1.490 . S
C4656 H4646 0.930 . S
C4656 C4655 1.400 . S
C4656 C4659 1.386 . S
H4657 C4673 0.930 . S
H4658 C4674 0.931 . S
C4659 H4647 0.929 . S
C4659 C4653 1.390 . S
C4659 C4656 1.386 . S
C4660 C4655 1.490 . S
C4660 C4662 1.395 . S
C4660 C4663 1.403 . S
H4661 C4667 0.930 . S
C4662 H4648 0.930 . S
C4662 C4660 1.395 . S
C4662 C4665 1.403 . S
C4663 C4660 1.403 . S
C4663 C4664 1.524 . S
C4663 C4667 1.400 . S
C4664 H4649 0.960 . S
C4664 H4650 0.960 . S
C4664 H4651 0.960 . S
C4664 C4663 1.524 . S
C4665 C4662 1.403 . S
C4665 C4666 1.392 . S
C4665 C4669 1.495 . S
C4666 C4665 1.392 . S
C4666 C4667 1.385 . S
C4666 C4668 1.478 . S
C4667 H4661 0.930 . S
C4667 C4663 1.400 . S
C4667 C4666 1.385 . S
C4668 C4666 1.478 . S
C4668 C4670 1.381 . S
C4668 C4674 1.383 . S
C4669 C4665 1.495 . S
C4669 H4675 0.959 . S
C4669 H4676 0.961 . S
C4669 H4677 0.960 . S
C4670 C4668 1.381 . S
C4670 C4671 1.394 . S
C4670 H4678 0.930 . S
C4671 C4670 1.394 . S
C4671 C4672 1.383 . S
C4671 H4679 0.929 . S
C4672 C4671 1.383 . S
C4672 C4673 1.377 . S
C4673 H4657 0.930 . S
C4673 C4672 1.377 . S
C4673 C4674 1.379 . S
C4674 H4658 0.931 . S
C4674 C4668 1.383 . S
C4674 C4673 1.379 . S
H4675 C4669 0.959 . S
H4676 C4669 0.961 . S
H4677 C4669 0.960 . S
H4678 C4670 0.930 . S
H4679 C4671 0.929 . S
H4680 C4688 0.929 . S
H4681 C4690 0.930 . S
H4682 C4692 0.930 . S
H4683 C4695 0.929 . S
H4684 C4698 0.930 . S
H4685 C4700 0.960 . S
H4686 C4700 0.960 . S
H4687 C4700 0.960 . S
C4688 H4680 0.929 . S
C4688 C4689 1.377 . S
C4688 C4690 1.384 . S
C4689 C4688 1.377 . S
C4689 C4695 1.390 . S
C4690 H4681 0.930 . S
C4690 C4688 1.384 . S
C4690 C4691 1.372 . S
C4691 C4690 1.372 . S
C4691 C4692 1.400 . S
C4691 C4696 1.490 . S
C4692 H4682 0.930 . S
C4692 C4691 1.400 . S
C4692 C4695 1.386 . S
H4693 C4709 0.930 . S
H4694 C4710 0.931 . S
C4695 H4683 0.929 . S
C4695 C4689 1.390 . S
C4695 C4692 1.386 . S
C4696 C4691 1.490 . S
C4696 C4698 1.395 . S
C4696 C4699 1.403 . S
H4697 C4703 0.930 . S
C4698 H4684 0.930 . S
C4698 C4696 1.395 . S
C4698 C4701 1.403 . S
C4699 C4696 1.403 . S
C4699 C4700 1.524 . S
C4699 C4703 1.400 . S
C4700 H4685 0.960 . S
C4700 H4686 0.960 . S
C4700 H4687 0.960 . S
C4700 C4699 1.524 . S
C4701 C4698 1.403 . S
C4701 C4702 1.392 . S
C4701 C4705 1.495 . S
C4702 C4701 1.392 . S
C4702 C4703 1.385 . S
C4702 C4704 1.478 . S
C4703 H4697 0.930 . S
C4703 C4699 1.400 . S
C4703 C4702 1.385 . S
C4704 C4702 1.478 . S
C4704 C4706 1.381 . S
C4704 C4710 1.383 . S
C4705 C4701 1.495 . S
C4705 H4711 0.959 . S
C4705 H4712 0.961 . S
C4705 H4713 0.960 . S
C4706 C4704 1.381 . S
C4706 C4707 1.394 . S
C4706 H4714 0.930 . S
C4707 C4706 1.394 . S
C4707 C4708 1.383 . S
C4707 H4715 0.929 . S
C4708 C4707 1.383 . S
C4708 C4709 1.377 . S
C4709 H4693 0.930 . S
C4709 C4708 1.377 . S
C4709 C4710 1.379 . S
C4710 H4694 0.931 . S
C4710 C4704 1.383 . S
C4710 C4709 1.379 . S
H4711 C4705 0.959 . S
H4712 C4705 0.961 . S
H4713 C4705 0.960 . S
H4714 C4706 0.930 . S
H4715 C4707 0.929 . S
H4716 C4724 0.929 . S
H4717 C4726 0.930 . S
H4718 C4728 0.930 . S
H4719 C4731 0.929 . S
H4720 C4734 0.930 . S
H4721 C4736 0.960 . S
H4722 C4736 0.960 . S
H4723 C4736 0.960 . S
C4724 H4716 0.929 . S
C4724 C4725 1.377 . S
C4724 C4726 1.384 . S
C4725 C4724 1.377 . S
C4725 C4731 1.390 . S
C4726 H4717 0.930 . S
C4726 C4724 1.384 . S
C4726 C4727 1.372 . S
C4727 C4726 1.372 . S
C4727 C4728 1.400 . S
C4727 C4732 1.490 . S
C4728 H4718 0.930 . S
C4728 C4727 1.400 . S
C4728 C4731 1.386 . S
H4729 C4745 0.930 . S
H4730 C4746 0.931 . S
C4731 H4719 0.929 . S
C4731 C4725 1.390 . S
C4731 C4728 1.386 . S
C4732 C4727 1.490 . S
C4732 C4734 1.395 . S
C4732 C4735 1.403 . S
H4733 C4739 0.930 . S
C4734 H4720 0.930 . S
C4734 C4732 1.395 . S
C4734 C4737 1.403 . S
C4735 C4732 1.403 . S
C4735 C4736 1.524 . S
C4735 C4739 1.400 . S
C4736 H4721 0.960 . S
C4736 H4722 0.960 . S
C4736 H4723 0.960 . S
C4736 C4735 1.524 . S
C4737 C4734 1.403 . S
C4737 C4738 1.392 . S
C4737 C4741 1.495 . S
C4738 C4737 1.392 . S
C4738 C4739 1.385 . S
C4738 C4740 1.478 . S
C4739 H4733 0.930 . S
C4739 C4735 1.400 . S
C4739 C4738 1.385 . S
C4740 C4738 1.478 . S
C4740 C4742 1.381 . S
C4740 C4746 1.383 . S
C4741 C4737 1.495 . S
C4741 H4747 0.959 . S
C4741 H4748 0.961 . S
C4741 H4749 0.960 . S
C4742 C4740 1.381 . S
C4742 C4743 1.394 . S
C4742 H4750 0.930 . S
C4743 C4742 1.394 . S
C4743 C4744 1.383 . S
C4743 H4751 0.929 . S
C4744 C4743 1.383 . S
C4744 C4745 1.377 . S
C4745 H4729 0.930 . S
C4745 C4744 1.377 . S
C4745 C4746 1.379 . S
C4746 H4730 0.931 . S
C4746 C4740 1.383 . S
C4746 C4745 1.379 . S
H4747 C4741 0.959 . S
H4748 C4741 0.961 . S
H4749 C4741 0.960 . S
H4750 C4742 0.930 . S
H4751 C4743 0.929 . S
H4752 C4760 0.929 . S
H4753 C4762 0.930 . S
H4754 C4764 0.930 . S
H4755 C4767 0.929 . S
H4756 C4770 0.930 . S
H4757 C4772 0.960 . S
H4758 C4772 0.960 . S
H4759 C4772 0.960 . S
C4760 H4752 0.929 . S
C4760 C4761 1.377 . S
C4760 C4762 1.384 . S
C4761 C4760 1.377 . S
C4761 C4767 1.390 . S
C4762 H4753 0.930 . S
C4762 C4760 1.384 . S
C4762 C4763 1.372 . S
C4763 C4762 1.372 . S
C4763 C4764 1.400 . S
C4763 C4768 1.490 . S
C4764 H4754 0.930 . S
C4764 C4763 1.400 . S
C4764 C4767 1.386 . S
H4765 C4781 0.930 . S
H4766 C4782 0.931 . S
C4767 H4755 0.929 . S
C4767 C4761 1.390 . S
C4767 C4764 1.386 . S
C4768 C4763 1.490 . S
C4768 C4770 1.395 . S
C4768 C4771 1.403 . S
H4769 C4775 0.930 . S
C4770 H4756 0.930 . S
C4770 C4768 1.395 . S
C4770 C4773 1.403 . S
C4771 C4768 1.403 . S
C4771 C4772 1.524 . S
C4771 C4775 1.400 . S
C4772 H4757 0.960 . S
C4772 H4758 0.960 . S
C4772 H4759 0.960 . S
C4772 C4771 1.524 . S
C4773 C4770 1.403 . S
C4773 C4774 1.392 . S
C4773 C4777 1.495 . S
C4774 C4773 1.392 . S
C4774 C4775 1.385 . S
C4774 C4776 1.478 . S
C4775 H4769 0.930 . S
C4775 C4771 1.400 . S
C4775 C4774 1.385 . S
C4776 C4774 1.478 . S
C4776 C4778 1.381 . S
C4776 C4782 1.383 . S
C4777 C4773 1.495 . S
C4777 H4783 0.959 . S
C4777 H4784 0.961 . S
C4777 H4785 0.960 . S
C4778 C4776 1.381 . S
C4778 C4779 1.394 . S
C4778 H4786 0.930 . S
C4779 C4778 1.394 . S
C4779 C4780 1.383 . S
C4779 H4787 0.929 . S
C4780 C4779 1.383 . S
C4780 C4781 1.377 . S
C4781 H4765 0.930 . S
C4781 C4780 1.377 . S
C4781 C4782 1.379 . S
C4782 H4766 0.931 . S
C4782 C4776 1.383 . S
C4782 C4781 1.379 . S
H4783 C4777 0.959 . S
H4784 C4777 0.961 . S
H4785 C4777 0.960 . S
H4786 C4778 0.930 . S
H4787 C4779 0.929 . S
H4788 C4796 0.917 1_455 S
H4789 C4798 0.930 1_455 S
H4790 C4800 0.930 . S
H4791 C4803 0.929 . S
H4792 C4806 0.930 . S
H4793 C4808 0.960 . S
H4794 C4808 0.960 . S
H4795 C4808 0.960 . S
C4796 H4788 0.917 1_655 S
C4796 C4797 1.377 . S
C4796 C4798 1.384 . S
C4797 C4796 1.377 . S
C4797 C4803 1.390 . S
C4798 H4789 0.930 1_655 S
C4798 C4796 1.384 . S
C4798 C4799 1.372 . S
C4799 C4798 1.372 . S
C4799 C4800 1.400 . S
C4799 C4804 1.490 . S
C4800 H4790 0.930 . S
C4800 C4799 1.400 . S
C4800 C4803 1.386 . S
H4801 C4817 0.930 . S
H4802 C4818 0.931 . S
C4803 H4791 0.929 . S
C4803 C4797 1.390 . S
C4803 C4800 1.386 . S
C4804 C4799 1.490 . S
C4804 C4806 1.395 1_655 S
C4804 C4807 1.403 . S
H4805 C4811 0.930 . S
C4806 H4792 0.930 . S
C4806 C4804 1.395 1_455 S
C4806 C4809 1.403 . S
C4807 C4804 1.403 . S
C4807 C4808 1.524 . S
C4807 C4811 1.400 . S
C4808 H4793 0.960 . S
C4808 H4794 0.960 . S
C4808 H4795 0.960 . S
C4808 C4807 1.524 . S
C4809 C4806 1.403 . S
C4809 C4810 1.392 1_455 S
C4809 C4813 1.495 . S
C4810 C4809 1.392 1_655 S
C4810 C4811 1.385 . S
C4810 C4812 1.478 . S
C4811 H4805 0.930 . S
C4811 C4807 1.400 . S
C4811 C4810 1.385 . S
C4812 C4810 1.478 . S
C4812 C4814 1.381 1_655 S
C4812 C4818 1.383 . S
C4813 C4809 1.495 . S
C4813 H4819 0.959 . S
C4813 H4820 0.961 . S
C4813 H4821 0.960 . S
C4814 C4812 1.381 1_455 S
C4814 C4815 1.394 . S
C4814 H4822 0.930 . S
C4815 C4814 1.394 . S
C4815 C4816 1.383 1_455 S
C4815 H4823 0.929 . S
C4816 C4815 1.383 1_655 S
C4816 C4817 1.377 . S
C4817 H4801 0.930 . S
C4817 C4816 1.377 . S
C4817 C4818 1.379 . S
C4818 H4802 0.931 . S
C4818 C4812 1.383 . S
C4818 C4817 1.379 . S
H4819 C4813 0.959 . S
H4820 C4813 0.961 . S
H4821 C4813 0.960 . S
H4822 C4814 0.930 . S
H4823 C4815 0.929 . S
H4824 C4832 0.929 . S
H4825 C4834 0.930 . S
H4826 C4836 0.930 . S
H4827 C4839 0.929 . S
H4828 C4842 0.930 . S
H4829 C4844 0.960 . S
H4830 C4844 0.960 . S
H4831 C4844 0.960 . S
C4832 H4824 0.929 . S
C4832 C4833 1.377 . S
C4832 C4834 1.384 . S
C4833 C4832 1.377 . S
C4833 C4839 1.390 . S
C4834 H4825 0.930 . S
C4834 C4832 1.384 . S
C4834 C4835 1.372 . S
C4835 C4834 1.372 . S
C4835 C4836 1.400 . S
C4835 C4840 1.490 . S
C4836 H4826 0.930 . S
C4836 C4835 1.400 . S
C4836 C4839 1.386 . S
H4837 C4853 0.930 . S
H4838 C4854 0.931 . S
C4839 H4827 0.929 . S
C4839 C4833 1.390 . S
C4839 C4836 1.386 . S
C4840 C4835 1.490 . S
C4840 C4842 1.395 . S
C4840 C4843 1.403 . S
H4841 C4847 0.930 . S
C4842 H4828 0.930 . S
C4842 C4840 1.395 . S
C4842 C4845 1.403 . S
C4843 C4840 1.403 . S
C4843 C4844 1.524 . S
C4843 C4847 1.400 . S
C4844 H4829 0.960 . S
C4844 H4830 0.960 . S
C4844 H4831 0.960 . S
C4844 C4843 1.524 . S
C4845 C4842 1.403 . S
C4845 C4846 1.392 . S
C4845 C4849 1.495 . S
C4846 C4845 1.392 . S
C4846 C4847 1.385 . S
C4846 C4848 1.478 . S
C4847 H4841 0.930 . S
C4847 C4843 1.400 . S
C4847 C4846 1.385 . S
C4848 C4846 1.478 . S
C4848 C4850 1.381 . S
C4848 C4854 1.383 . S
C4849 C4845 1.495 . S
C4849 H4855 0.959 . S
C4849 H4856 0.961 . S
C4849 H4857 0.960 . S
C4850 C4848 1.381 . S
C4850 C4851 1.394 . S
C4850 H4858 0.930 . S
C4851 C4850 1.394 . S
C4851 C4852 1.383 . S
C4851 H4859 0.929 . S
C4852 C4851 1.383 . S
C4852 C4853 1.377 . S
C4853 H4837 0.930 . S
C4853 C4852 1.377 . S
C4853 C4854 1.379 . S
C4854 H4838 0.931 . S
C4854 C4848 1.383 . S
C4854 C4853 1.379 . S
H4855 C4849 0.959 . S
H4856 C4849 0.961 . S
H4857 C4849 0.960 . S
H4858 C4850 0.930 . S
H4859 C4851 0.929 . S
H4860 C4868 0.929 1_565 S
H4861 C4870 0.934 1_565 S
H4862 C4872 0.930 . S
H4863 C4875 0.929 . S
H4864 C4878 0.930 . S
H4865 C4880 0.960 . S
H4866 C4880 0.960 . S
H4867 C4880 0.960 . S
C4868 H4860 0.929 1_545 S
C4868 C4869 1.377 . S
C4868 C4870 1.386 . S
C4869 C4868 1.377 . S
C4869 C4875 1.390 . S
C4870 H4861 0.934 1_545 S
C4870 C4868 1.386 . S
C4870 C4871 1.366 . S
C4871 C4870 1.366 . S
C4871 C4872 1.400 . S
C4871 C4876 1.490 . S
C4872 H4862 0.930 . S
C4872 C4871 1.400 . S
C4872 C4875 1.386 . S
H4873 C4889 0.930 . S
H4874 C4890 0.931 . S
C4875 H4863 0.929 . S
C4875 C4869 1.390 . S
C4875 C4872 1.386 . S
C4876 C4871 1.490 . S
C4876 C4878 1.395 1_545 S
C4876 C4879 1.403 . S
H4877 C4883 0.930 . S
C4878 H4864 0.930 . S
C4878 C4876 1.395 1_565 S
C4878 C4881 1.403 . S
C4879 C4876 1.403 . S
C4879 C4880 1.524 . S
C4879 C4883 1.400 . S
C4880 H4865 0.960 . S
C4880 H4866 0.960 . S
C4880 H4867 0.960 . S
C4880 C4879 1.524 . S
C4881 C4878 1.403 . S
C4881 C4882 1.392 1_565 S
C4881 C4885 1.495 . S
C4882 C4881 1.392 1_545 S
C4882 C4883 1.385 . S
C4882 C4884 1.478 . S
C4883 H4877 0.930 . S
C4883 C4879 1.400 . S
C4883 C4882 1.385 . S
C4884 C4882 1.478 . S
C4884 C4886 1.381 1_545 S
C4884 C4890 1.383 . S
C4885 C4881 1.495 . S
C4885 H4891 0.959 . S
C4885 H4892 0.961 . S
C4885 H4893 0.960 . S
C4886 C4884 1.381 1_565 S
C4886 C4887 1.394 . S
C4886 H4894 0.930 . S
C4887 C4886 1.394 . S
C4887 C4888 1.367 1_565 S
C4887 H4895 0.929 . S
C4888 C4887 1.367 1_545 S
C4888 C4889 1.386 . S
C4889 H4873 0.930 . S
C4889 C4888 1.386 . S
C4889 C4890 1.379 . S
C4890 H4874 0.931 . S
C4890 C4884 1.383 . S
C4890 C4889 1.379 . S
H4891 C4885 0.959 . S
H4892 C4885 0.961 . S
H4893 C4885 0.960 . S
H4894 C4886 0.930 . S
H4895 C4887 0.929 . S
C2313 C9 1.286 . S
C2332 C1307 1.009 . S
C2349 C19 1.689 . S
C2368 C1447 1.163 . S
C2404 C1535 1.161 . S
C2385 C33 1.390 . S
C2421 C37 1.388 1_565 S
C2440 C1675 1.015 1_565 S
C2457 C5 1.351 . S
C2476 C1789 1.002 . S
C2493 C23 1.747 . S
C2512 C1877 1.270 . S
C2529 C47 1.297 . S
C2548 C1763 1.057 . S
C2584 C1903 1.410 . S
C2565 C65 1.665 . S
C2620 C1649 1.171 . S
C2601 C75 1.348 . S
C2637 C79 1.324 . S
C2656 C1561 1.036 . S
C2692 C1333 1.052 . S
C2673 C51 1.378 . S
C2709 C61 1.635 . S
C2728 C1421 1.442 . S
C2745 C93 1.856 . S
C2764 C1991 1.346 . S
C2781 C103 1.775 . S
C2800 C2131 1.122 . S
C2836 C2219 1.366 . S
C2817 C117 1.762 . S
C2853 C121 1.805 . S
C2872 C307 1.142 . S
C2889 C89 1.821 . S
C2908 C421 1.136 . S
C2925 C107 1.822 . S
C2944 C509 1.372 . S
C2961 C131 1.542 . S
C2980 C395 1.408 . S
C2997 C149 1.729 . S
C3016 C535 1.438 . S
C3052 C281 1.447 . S
C3033 C159 1.670 . S
C3088 C2245 1.603 . S
C3069 C163 1.860 . S
C3124 C2017 1.471 . S
C3105 C135 1.747 . S
C3160 C2105 1.593 . S
C3141 C145 1.723 . S
C3177 C177 1.670 . S
C3196 C623 1.199 . S
C3213 C187 1.753 . S
C3232 C763 1.088 . S
C3249 C201 1.812 . S
C3268 C851 1.413 . S
C3285 C205 1.990 . S
C3304 C991 1.379 . S
C3340 C1105 1.210 . S
C3321 C173 1.784 . S
C3376 C1193 1.351 . S
C3357 C191 1.856 . S
C3412 C1079 1.558 . S
C3393 C215 1.746 . S
C3448 C1219 1.466 . S
C3429 C233 1.761 . S
C3465 C243 1.610 . S
C3484 C965 1.442 . S
C3520 C877 1.450 . S
C3501 C247 1.654 . S
C3537 C219 1.797 . S
C3556 C649 1.560 . S
C3592 C737 1.512 . S
C3573 C229 1.706 . S
C3628 C263 1.043 . S
C3609 C11 1.808 . S
C3645 C14 1.579 . S
C3664 C377 0.862 . S
C3700 C481 1.365 . S
C3681 C28 1.801 . S
C3736 C595 1.296 . S
C3717 C39 1.704 . S
C3772 C719 0.972 . S
C3753 C0 1.767 . S
C3808 C823 1.089 . S
C3789 C25 1.579 . S
C3825 C42 1.987 . S
C3844 C833 1.434 . S
C3861 C67 1.705 . S
C3880 C605 1.281 . S
C3897 C70 1.790 . S
C3916 C709 1.501 . S
C3933 C81 1.700 . S
C3952 C367 1.515 . S
C3988 C491 1.465 . S
C3969 C53 1.912 . S
C4005 C56 1.744 . S
C4024 C253 1.534 . S
C4060 C947 0.901 . S
C4041 C95 1.705 . S
C4077 C98 1.804 . S
C4096 C1061 1.063 . S
C4113 C112 1.854 1_655 S
C4132 C1165 1.394 . S
C4168 C1279 0.930 . S
C4149 C123 1.210 . S
C4185 C84 1.675 . S
C4204 C1403 0.933 . S
C4221 C109 1.249 . S
C4240 C1507 0.997 . S
C4257 C126 1.483 . S
C4276 C1517 1.007 1_565 S
C4293 C151 1.313 . S
C4312 C1289 0.901 . S
C4348 C1393 1.424 . S
C4329 C154 1.689 . S
C4365 C165 1.601 . S
C4384 C1051 1.343 . S
C4401 C137 1.921 . S
C4420 C1175 1.483 . S
C4456 C937 1.658 . S
C4437 C140 1.947 . S
C4492 C1631 0.949 . S
C4473 C179 1.403 . S
C4509 C182 1.289 . S
C4528 C1745 0.797 . S
C4545 C196 1.717 . S
C4564 C1849 1.303 . S
C4600 C1963 1.162 . S
C4581 C207 1.604 . S
C4636 C2087 1.069 . S
C4617 C168 1.803 . S
C4653 C193 1.772 . S
C4672 C2191 1.259 . S
C4689 C210 1.901 . S
C4708 C2201 1.406 . S
C4725 C235 1.921 . S
C4744 C1973 1.434 . S
C4780 C2077 1.524 . S
C4761 C238 1.801 . S
C4816 C1735 0.926 1_655 S
C4797 C249 1.128 . S
C4852 C1859 1.381 . S
C4833 C221 1.801 . S
C4869 C224 1.350 . S
C4888 C1621 1.128 1_545 S
