# Generated by pormake.
# Topology llk, (3,12)-cn, num edge types: 1
# Building blocks:
#     Node 0, Type 0, BuildingBlock: QEWDON_clean_linker_0, # of connection points: 3
#     Node 1, Type 0, BuildingBlock: QEWDON_clean_linker_0, # of connection points: 3
#     Node 2, Type 0, BuildingBlock: QEWDON_clean_linker_0, # of connection points: 3
#     Node 3, Type 0, BuildingBlock: QEWDON_clean_linker_0, # of connection points: 3
#     Node 4, Type 0, BuildingBlock: QEWDON_clean_linker_0, # of connection points: 3
#     Node 5, Type 0, BuildingBlock: QEWDON_clean_linker_0, # of connection points: 3
#     Node 6, Type 0, BuildingBlock: QEWDON_clean_linker_0, # of connection points: 3
#     Node 7, Type 0, BuildingBlock: QEWDON_clean_linker_0, # of connection points: 3
#     Node 8, Type 0, BuildingBlock: QEWDON_clean_linker_0, # of connection points: 3
#     Node 9, Type 0, BuildingBlock: QEWDON_clean_linker_0, # of connection points: 3
#     Node 10, Type 0, BuildingBlock: QEWDON_clean_linker_0, # of connection points: 3
#     Node 11, Type 0, BuildingBlock: QEWDON_clean_linker_0, # of connection points: 3
#     Node 12, Type 0, BuildingBlock: QEWDON_clean_linker_0, # of connection points: 3
#     Node 13, Type 0, BuildingBlock: QEWDON_clean_linker_0, # of connection points: 3
#     Node 14, Type 0, BuildingBlock: QEWDON_clean_linker_0, # of connection points: 3
#     Node 15, Type 0, BuildingBlock: QEWDON_clean_linker_0, # of connection points: 3
#     Node 16, Type 0, BuildingBlock: QEWDON_clean_linker_0, # of connection points: 3
#     Node 17, Type 0, BuildingBlock: QEWDON_clean_linker_0, # of connection points: 3
#     Node 18, Type 0, BuildingBlock: QEWDON_clean_linker_0, # of connection points: 3
#     Node 19, Type 0, BuildingBlock: QEWDON_clean_linker_0, # of connection points: 3
#     Node 20, Type 0, BuildingBlock: QEWDON_clean_linker_0, # of connection points: 3
#     Node 21, Type 0, BuildingBlock: QEWDON_clean_linker_0, # of connection points: 3
#     Node 22, Type 0, BuildingBlock: QEWDON_clean_linker_0, # of connection points: 3
#     Node 23, Type 0, BuildingBlock: QEWDON_clean_linker_0, # of connection points: 3
#     Node 24, Type 1, BuildingBlock: EZIPEK_clean_sbu_0, # of connection points: 12
#     Node 25, Type 1, BuildingBlock: EZIPEK_clean_sbu_0, # of connection points: 12
#     Node 26, Type 1, BuildingBlock: EZIPEK_clean_sbu_0, # of connection points: 12
#     Node 27, Type 1, BuildingBlock: EZIPEK_clean_sbu_0, # of connection points: 12
#     Node 28, Type 1, BuildingBlock: EZIPEK_clean_sbu_0, # of connection points: 12
#     Node 29, Type 1, BuildingBlock: EZIPEK_clean_sbu_0, # of connection points: 12
#     Edge 30, Type (0, 1), BuildingBlock: CIFDUS_clean_linker_0, # of connection points: 2
#     Edge 31, Type (0, 1), BuildingBlock: CIFDUS_clean_linker_0, # of connection points: 2
#     Edge 32, Type (0, 1), BuildingBlock: CIFDUS_clean_linker_0, # of connection points: 2
#     Edge 33, Type (0, 1), BuildingBlock: CIFDUS_clean_linker_0, # of connection points: 2
#     Edge 34, Type (0, 1), BuildingBlock: CIFDUS_clean_linker_0, # of connection points: 2
#     Edge 35, Type (0, 1), BuildingBlock: CIFDUS_clean_linker_0, # of connection points: 2
#     Edge 36, Type (0, 1), BuildingBlock: CIFDUS_clean_linker_0, # of connection points: 2
#     Edge 37, Type (0, 1), BuildingBlock: CIFDUS_clean_linker_0, # of connection points: 2
#     Edge 38, Type (0, 1), BuildingBlock: CIFDUS_clean_linker_0, # of connection points: 2
#     Edge 39, Type (0, 1), BuildingBlock: CIFDUS_clean_linker_0, # of connection points: 2
#     Edge 40, Type (0, 1), BuildingBlock: CIFDUS_clean_linker_0, # of connection points: 2
#     Edge 41, Type (0, 1), BuildingBlock: CIFDUS_clean_linker_0, # of connection points: 2
#     Edge 42, Type (0, 1), BuildingBlock: CIFDUS_clean_linker_0, # of connection points: 2
#     Edge 43, Type (0, 1), BuildingBlock: CIFDUS_clean_linker_0, # of connection points: 2
#     Edge 44, Type (0, 1), BuildingBlock: CIFDUS_clean_linker_0, # of connection points: 2
#     Edge 45, Type (0, 1), BuildingBlock: CIFDUS_clean_linker_0, # of connection points: 2
#     Edge 46, Type (0, 1), BuildingBlock: CIFDUS_clean_linker_0, # of connection points: 2
#     Edge 47, Type (0, 1), BuildingBlock: CIFDUS_clean_linker_0, # of connection points: 2
#     Edge 48, Type (0, 1), BuildingBlock: CIFDUS_clean_linker_0, # of connection points: 2
#     Edge 49, Type (0, 1), BuildingBlock: CIFDUS_clean_linker_0, # of connection points: 2
#     Edge 50, Type (0, 1), BuildingBlock: CIFDUS_clean_linker_0, # of connection points: 2
#     Edge 51, Type (0, 1), BuildingBlock: CIFDUS_clean_linker_0, # of connection points: 2
#     Edge 52, Type (0, 1), BuildingBlock: CIFDUS_clean_linker_0, # of connection points: 2
#     Edge 53, Type (0, 1), BuildingBlock: CIFDUS_clean_linker_0, # of connection points: 2
#     Edge 54, Type (0, 1), BuildingBlock: CIFDUS_clean_linker_0, # of connection points: 2
#     Edge 55, Type (0, 1), BuildingBlock: CIFDUS_clean_linker_0, # of connection points: 2
#     Edge 56, Type (0, 1), BuildingBlock: CIFDUS_clean_linker_0, # of connection points: 2
#     Edge 57, Type (0, 1), BuildingBlock: CIFDUS_clean_linker_0, # of connection points: 2
#     Edge 58, Type (0, 1), BuildingBlock: CIFDUS_clean_linker_0, # of connection points: 2
#     Edge 59, Type (0, 1), BuildingBlock: CIFDUS_clean_linker_0, # of connection points: 2
#     Edge 60, Type (0, 1), BuildingBlock: CIFDUS_clean_linker_0, # of connection points: 2
#     Edge 61, Type (0, 1), BuildingBlock: CIFDUS_clean_linker_0, # of connection points: 2
#     Edge 62, Type (0, 1), BuildingBlock: CIFDUS_clean_linker_0, # of connection points: 2
#     Edge 63, Type (0, 1), BuildingBlock: CIFDUS_clean_linker_0, # of connection points: 2
#     Edge 64, Type (0, 1), BuildingBlock: CIFDUS_clean_linker_0, # of connection points: 2
#     Edge 65, Type (0, 1), BuildingBlock: CIFDUS_clean_linker_0, # of connection points: 2
#     Edge 66, Type (0, 1), BuildingBlock: CIFDUS_clean_linker_0, # of connection points: 2
#     Edge 67, Type (0, 1), BuildingBlock: CIFDUS_clean_linker_0, # of connection points: 2
#     Edge 68, Type (0, 1), BuildingBlock: CIFDUS_clean_linker_0, # of connection points: 2
#     Edge 69, Type (0, 1), BuildingBlock: CIFDUS_clean_linker_0, # of connection points: 2
#     Edge 70, Type (0, 1), BuildingBlock: CIFDUS_clean_linker_0, # of connection points: 2
#     Edge 71, Type (0, 1), BuildingBlock: CIFDUS_clean_linker_0, # of connection points: 2
#     Edge 72, Type (0, 1), BuildingBlock: CIFDUS_clean_linker_0, # of connection points: 2
#     Edge 73, Type (0, 1), BuildingBlock: CIFDUS_clean_linker_0, # of connection points: 2
#     Edge 74, Type (0, 1), BuildingBlock: CIFDUS_clean_linker_0, # of connection points: 2
#     Edge 75, Type (0, 1), BuildingBlock: CIFDUS_clean_linker_0, # of connection points: 2
#     Edge 76, Type (0, 1), BuildingBlock: CIFDUS_clean_linker_0, # of connection points: 2
#     Edge 77, Type (0, 1), BuildingBlock: CIFDUS_clean_linker_0, # of connection points: 2
#     Edge 78, Type (0, 1), BuildingBlock: CIFDUS_clean_linker_0, # of connection points: 2
#     Edge 79, Type (0, 1), BuildingBlock: CIFDUS_clean_linker_0, # of connection points: 2
#     Edge 80, Type (0, 1), BuildingBlock: CIFDUS_clean_linker_0, # of connection points: 2
#     Edge 81, Type (0, 1), BuildingBlock: CIFDUS_clean_linker_0, # of connection points: 2
#     Edge 82, Type (0, 1), BuildingBlock: CIFDUS_clean_linker_0, # of connection points: 2
#     Edge 83, Type (0, 1), BuildingBlock: CIFDUS_clean_linker_0, # of connection points: 2
#     Edge 84, Type (0, 1), BuildingBlock: CIFDUS_clean_linker_0, # of connection points: 2
#     Edge 85, Type (0, 1), BuildingBlock: CIFDUS_clean_linker_0, # of connection points: 2
#     Edge 86, Type (0, 1), BuildingBlock: CIFDUS_clean_linker_0, # of connection points: 2
#     Edge 87, Type (0, 1), BuildingBlock: CIFDUS_clean_linker_0, # of connection points: 2
#     Edge 88, Type (0, 1), BuildingBlock: CIFDUS_clean_linker_0, # of connection points: 2
#     Edge 89, Type (0, 1), BuildingBlock: CIFDUS_clean_linker_0, # of connection points: 2
#     Edge 90, Type (0, 1), BuildingBlock: CIFDUS_clean_linker_0, # of connection points: 2
#     Edge 91, Type (0, 1), BuildingBlock: CIFDUS_clean_linker_0, # of connection points: 2
#     Edge 92, Type (0, 1), BuildingBlock: CIFDUS_clean_linker_0, # of connection points: 2
#     Edge 93, Type (0, 1), BuildingBlock: CIFDUS_clean_linker_0, # of connection points: 2
#     Edge 94, Type (0, 1), BuildingBlock: CIFDUS_clean_linker_0, # of connection points: 2
#     Edge 95, Type (0, 1), BuildingBlock: CIFDUS_clean_linker_0, # of connection points: 2
#     Edge 96, Type (0, 1), BuildingBlock: CIFDUS_clean_linker_0, # of connection points: 2
#     Edge 97, Type (0, 1), BuildingBlock: CIFDUS_clean_linker_0, # of connection points: 2
#     Edge 98, Type (0, 1), BuildingBlock: CIFDUS_clean_linker_0, # of connection points: 2
#     Edge 99, Type (0, 1), BuildingBlock: CIFDUS_clean_linker_0, # of connection points: 2
#     Edge 100, Type (0, 1), BuildingBlock: CIFDUS_clean_linker_0, # of connection points: 2
#     Edge 101, Type (0, 1), BuildingBlock: CIFDUS_clean_linker_0, # of connection points: 2
# Relax obj value: 0.090
# Max RMSD: 0.249
# Mean RMSD: 0.190
data_MOF--net-llk--node1-EZIPEK_clean_sbu_0--node2-QEWDON_clean_linker_0--edge1-CIFDUS_clean_linker_0
_symmetry_space_group_name_H-M    P1
_symmetry_Int_Tables_number       1
_symmetry_cell_setting            triclinic
loop_
_symmetry_equiv_pos_as_xyz
'x, y, z'
_cell_length_a     43.851427
_cell_length_b     43.467693
_cell_length_c     43.042392
_cell_angle_alpha  89.919827
_cell_angle_beta   89.87953
_cell_angle_gamma 90.131897
loop_
_atom_site_label
_atom_site_type_symbol
_atom_site_fract_x
_atom_site_fract_y
_atom_site_fract_z
_atom_type_partial_charge
H0 H 1.00745 0.30742 0.28332 0.0
C1 C 0.01146 0.2849 0.29319 0.0
C2 C 0.02108 0.28268 0.32439 0.0
C3 C 1.00638 0.25812 0.27521 0.0
H4 H 0.03014 0.2515 0.36224 0.0
C5 C 0.02432 0.25347 0.33785 0.0
C6 C 0.01921 0.22661 0.3208 0.0
C7 C 0.01169 0.22906 0.28925 0.0
C8 C 0.99336 0.25988 0.24285 0.0
H9 H 1.00883 0.20802 0.27617 0.0
C10 C 0.99796 0.28564 0.22292 0.0
C11 C 0.9845 0.28659 0.19298 0.0
C12 C 0.9749 0.23553 0.23199 0.0
H13 H 0.96905 0.21613 0.2466 0.0
C14 C 0.96292 0.2358 0.20214 0.0
H15 H 0.01147 0.30501 0.23064 0.0
C16 C 0.96785 0.26085 0.18273 0.0
H17 H 0.95818 0.26014 0.15961 0.0
H18 H 0.9493 0.21659 0.19413 0.0
H19 H 0.73431 0.03023 0.31456 0.0
C20 C 0.72558 0.02558 0.29152 0.0
C21 C 0.69403 0.02201 0.28755 0.0
C22 C 0.7455 0.02485 0.26572 0.0
H23 H 0.65806 0.01352 0.25502 0.0
C24 C 0.68237 0.01724 0.25782 0.0
C25 C 0.70119 0.01787 0.23157 0.0
C26 C 0.7329 0.02072 0.23563 0.0
C27 C 0.77892 0.03074 0.27006 0.0
H28 H 0.74748 0.02044 0.21531 0.0
C29 C 0.79442 0.02143 0.2974 0.0
C30 C 0.82566 0.02822 0.30158 0.0
C31 C 0.7954 0.04701 0.24719 0.0
H32 H 0.78437 0.05554 0.22644 0.0
C33 C 0.82628 0.05345 0.25111 0.0
H34 H 0.78246 0.00858 0.31524 0.0
C35 C 0.8413 0.04422 0.27801 0.0
H36 H 0.86514 0.05025 0.28065 0.0
H37 H 0.83855 0.06612 0.23337 0.0
H38 H 1.0016 0.74277 0.31529 0.0
C39 C 1.00646 0.73054 0.29402 0.0
C40 C 0.01305 0.69887 0.2956 0.0
C41 C 1.0058 0.74617 0.26521 0.0
H42 H 0.02196 0.65807 0.26868 0.0
C43 C 0.01791 0.68262 0.26782 0.0
C44 C 0.01714 0.69736 0.23886 0.0
C45 C 0.01212 0.72923 0.2379 0.0
C46 C 0.99746 0.77969 0.26317 0.0
H47 H 0.01245 0.74058 0.21556 0.0
C48 C 1.00248 0.80037 0.28812 0.0
C49 C 0.99411 0.83171 0.28575 0.0
C50 C 0.98361 0.79122 0.23598 0.0
H51 H 0.9776 0.77636 0.21683 0.0
C52 C 0.97674 0.82229 0.23298 0.0
H53 H 0.01251 0.79219 0.30948 0.0
C54 C 0.98219 0.84242 0.2574 0.0
H55 H 0.97673 0.86647 0.25404 0.0
H56 H 0.96673 0.83078 0.21166 0.0
H57 H 0.29721 0.98785 0.31097 0.0
C58 C 0.30849 0.99155 0.28891 0.0
C59 C 0.34038 0.98901 0.2877 0.0
C60 C 0.29129 0.99731 0.26181 0.0
H61 H 0.37971 0.9895 0.25759 0.0
C62 C 0.35509 0.99122 0.25885 0.0
C63 C 0.33856 0.99541 0.23138 0.0
C64 C 0.3069 0.99973 0.23307 0.0
C65 C 0.25712 0.99872 0.26337 0.0
H66 H 0.29459 1.00404 0.21176 0.0
C67 C 0.24184 0.0075 0.291 0.0
C68 C 0.20985 1.00579 0.29327 0.0
C69 C 0.23935 0.98956 0.2377 0.0
H70 H 0.24969 0.98158 0.21638 0.0
C71 C 0.20761 0.9895 0.23937 0.0
H72 H 0.25463 0.01481 0.31115 0.0
C73 C 0.19293 0.99737 0.26692 0.0
H74 H 0.16825 0.99644 0.26777 0.0
H75 H 0.19432 0.98251 0.21941 0.0
H76 H 0.01831 0.70375 0.73417 0.0
C77 C 0.02008 0.72565 0.72232 0.0
C78 C 0.03117 0.72602 0.69173 0.0
C79 C 0.00996 0.75295 0.73682 0.0
H80 H 0.03875 0.75392 0.65118 0.0
C81 C 0.03157 0.7537 0.67532 0.0
C82 C 0.02051 0.78074 0.68859 0.0
C83 C 0.01081 0.78069 0.71966 0.0
C84 C 0.99621 0.75166 0.76865 0.0
H85 H 1.00288 0.802 0.72979 0.0
C86 C 1.00525 0.72884 0.79005 0.0
C87 C 0.98999 0.72502 0.81855 0.0
C88 C 0.97248 0.77178 0.77724 0.0
H89 H 0.96407 0.78913 0.7614 0.0
C90 C 0.95827 0.76905 0.80616 0.0
H91 H 0.02405 0.71368 0.78458 0.0
C92 C 0.96672 0.74569 0.82662 0.0
H93 H 0.95438 0.74322 0.84831 0.0
H94 H 0.93995 0.78453 0.81236 0.0
H95 H 0.28369 0.01772 0.71321 0.0
C96 C 0.29507 0.01177 0.73469 0.0
C97 C 0.32547 1.0017 0.73366 0.0
C98 C 0.27997 0.01608 0.76333 0.0
H99 H 0.36368 0.98673 0.76122 0.0
C100 C 0.34057 0.99547 0.76175 0.0
C101 C 0.32683 1.00141 0.79058 0.0
C102 C 0.29619 0.01078 0.79117 0.0
C103 C 0.24803 0.02803 0.76413 0.0
H104 H 0.28528 0.01476 0.81337 0.0
C105 C 0.2267 0.01975 0.74102 0.0
C106 C 0.19681 0.03158 0.74152 0.0
C107 C 0.23879 0.04845 0.78771 0.0
H108 H 0.2546 0.05624 0.80531 0.0
C109 C 0.20909 0.05981 0.78854 0.0
H110 H 0.23309 1.00379 0.72285 0.0
C111 C 0.18821 0.05147 0.76568 0.0
H112 H 0.16549 0.06119 0.76649 0.0
H113 H 0.20234 0.07553 0.80677 0.0
H114 H 0.98974 0.28041 0.71358 0.0
C115 C 0.99317 0.29254 0.73522 0.0
C116 C 0.99507 0.32465 0.73438 0.0
C117 C 0.99629 0.27629 0.76335 0.0
H118 H 0.99755 0.36597 0.76137 0.0
C119 C 0.99776 0.34107 0.76225 0.0
C120 C 1.00021 0.32573 0.79093 0.0
C121 C 1.00023 0.29327 0.79107 0.0
C122 C 0.99533 0.24177 0.76355 0.0
H123 H 1.0039 0.28133 0.8128 0.0
C124 C 1.00423 0.2246 0.73713 0.0
C125 C 1.00116 0.19235 0.73635 0.0
C126 C 0.9844 0.22566 0.78973 0.0
H127 H 0.9765 0.23765 0.81022 0.0
C128 C 0.9827 0.19361 0.78964 0.0
H129 H 0.01297 0.23621 0.71675 0.0
C130 C 0.99088 0.17705 0.76321 0.0
H131 H 0.98899 0.15221 0.76379 0.0
H132 H 0.97442 0.18155 0.81001 0.0
H133 H 0.71898 0.00747 0.73853 0.0
C134 C 0.74007 1.00441 0.72592 0.0
C135 C 0.73811 1.00158 0.69369 0.0
C136 C 0.76844 1.00492 0.7413 0.0
H137 H 0.76309 0.99844 0.65095 0.0
C138 C 0.76485 1.00074 0.67596 0.0
C139 C 0.79369 1.00329 0.68989 0.0
C140 C 0.79537 1.00416 0.7227 0.0
C141 C 0.76927 0.00799 0.77629 0.0
H142 H 0.81765 1.00499 0.73332 0.0
C143 C 0.74346 1.00046 0.79494 0.0
C144 C 0.74281 1.00636 0.82719 0.0
C145 C 0.79515 0.02002 0.79142 0.0
H146 H 0.81524 0.02704 0.77869 0.0
C147 C 0.79535 0.02413 0.82357 0.0
H148 H 0.72335 0.99063 0.7845 0.0
C149 C 0.7695 0.01753 0.8413 0.0
H150 H 0.77047 0.02137 0.86612 0.0
H151 H 0.81555 0.03318 0.83477 0.0
H152 H 0.29704 0.30984 0.01598 0.0
C153 C 0.30773 0.28888 0.00802 0.0
C154 C 0.33967 0.28748 0.00792 0.0
C155 C 0.28994 0.26329 0.99902 0.0
H156 H 0.37886 0.25923 0.99903 0.0
C157 C 0.35414 0.26022 0.9992 0.0
C158 C 0.33752 0.23415 0.99071 0.0
C159 C 0.30539 0.23571 0.99044 0.0
C160 C 0.25557 0.26529 0.99955 0.0
H161 H 0.29282 0.21563 0.98294 0.0
C162 C 0.23993 0.29386 0.99655 0.0
C163 C 0.20774 0.29554 0.99889 0.0
C164 C 0.23799 0.23853 0.00426 0.0
H165 H 0.24853 0.21635 0.00784 0.0
C166 C 0.20627 0.23987 0.0052 0.0
H167 H 0.25258 0.31491 0.99283 0.0
C168 C 0.19128 0.26794 1.00248 0.0
H169 H 0.1666 0.26792 1.00324 0.0
H170 H 0.19318 0.21897 0.0085 0.0
H171 H 0.29555 0.70597 0.0138 0.0
C172 C 0.30686 0.72812 0.01304 0.0
C173 C 0.33808 0.72974 0.02042 0.0
C174 C 0.29072 0.75467 1.00365 0.0
H175 H 0.37772 0.75885 0.02211 0.0
C176 C 0.3534 0.75786 0.01763 0.0
C177 C 0.33854 0.78438 0.00735 0.0
C178 C 0.30697 0.78302 1.00158 0.0
C179 C 0.25784 0.75239 0.99361 0.0
H180 H 0.29555 0.8039 0.99445 0.0
C181 C 0.23733 0.73001 0.00598 0.0
C182 C 0.20667 0.72848 0.99569 0.0
C183 C 0.24692 0.77237 0.97033 0.0
H184 H 0.26177 0.78884 0.95901 0.0
C185 C 0.21673 0.77104 0.96046 0.0
H186 H 0.24477 0.71422 0.02387 0.0
C187 C 0.19676 0.74945 0.97306 0.0
H188 H 0.17354 0.74869 0.96451 0.0
H189 H 0.20884 0.78664 0.94259 0.0
H190 H 0.71905 0.28911 0.0321 0.0
C191 C 0.74098 0.29891 0.02607 0.0
C192 C 0.74377 0.33105 0.02435 0.0
C193 C 0.76644 0.27968 0.02149 0.0
H194 H 0.77494 0.36889 0.01822 0.0
C195 C 0.77261 0.34409 0.01883 0.0
C196 C 0.79849 0.32558 0.01454 0.0
C197 C 0.79503 0.29344 0.01519 0.0
C198 C 0.7635 0.24546 0.02472 0.0
H199 H 0.81477 0.27924 0.01062 0.0
C200 C 0.73584 0.23004 0.01789 0.0
C201 C 0.73279 0.19813 0.02291 0.0
C202 C 0.78819 0.228 0.03596 0.0
H203 H 0.80948 0.23876 0.04257 0.0
C204 C 0.78564 0.19627 0.03968 0.0
H205 H 0.71646 0.24278 0.00925 0.0
C206 C 0.75824 0.1814 0.03325 0.0
H207 H 0.75692 0.15673 0.03658 0.0
H208 H 0.8049 0.18317 0.04811 0.0
H209 H 0.71667 0.73758 0.01428 0.0
C210 C 0.73879 0.72687 0.017 0.0
C211 C 0.74018 0.69511 0.02294 0.0
C212 C 0.76543 0.74438 0.01256 0.0
H213 H 0.76995 0.65588 0.02793 0.0
C214 C 0.7689 0.68052 0.02426 0.0
C215 C 0.79615 0.69745 0.02016 0.0
C216 C 0.79398 0.72943 0.01494 0.0
C217 C 0.76342 0.77762 1.00311 0.0
H218 H 0.81478 0.74272 0.01268 0.0
C219 C 0.7393 0.79703 0.01318 0.0
C220 C 0.73772 0.82802 1.00324 0.0
C221 C 0.78538 0.7899 0.98258 0.0
H222 H 0.8035 0.77577 0.97326 0.0
C223 C 0.78393 0.82045 0.97292 0.0
H224 H 0.72213 0.78842 0.0291 0.0
C225 C 0.76042 0.83937 0.98315 0.0
H226 H 0.75966 0.86289 0.97483 0.0
H227 H 0.80097 0.82943 0.95708 0.0
H228 H 0.51353 0.80789 0.78757 0.0
C229 C 0.50874 0.78645 0.79946 0.0
C230 C 0.4987 0.78729 0.83048 0.0
C231 C 0.51348 0.75811 0.78425 0.0
H232 H 0.48815 0.76033 0.87097 0.0
C233 C 0.49393 0.75965 0.84647 0.0
C234 C 0.49852 0.7312 0.83215 0.0
C235 C 0.5079 0.73052 0.8009 0.0
C236 C 0.52581 0.75722 0.75175 0.0
H237 H 0.51089 0.70842 0.78974 0.0
C238 C 0.51862 0.78028 0.72966 0.0
C239 C 0.53081 0.77922 0.6993 0.0
C240 C 0.5457 0.7334 0.74279 0.0
H241 H 0.55275 0.71587 0.75913 0.0
C242 C 0.55749 0.73214 0.71273 0.0
H243 H 0.50318 0.79873 0.73574 0.0
C244 C 0.5501 0.75478 0.69111 0.0
H245 H 0.56007 0.75352 0.6681 0.0
H246 H 0.57276 0.71369 0.70625 0.0
H247 H 0.24364 0.51972 0.81441 0.0
C248 C 0.23254 0.51685 0.79218 0.0
C249 C 0.20106 0.51212 0.79219 0.0
C250 C 0.24904 0.52017 0.76422 0.0
H251 H 0.16088 0.50784 0.76414 0.0
C252 C 0.18539 0.51127 0.76398 0.0
C253 C 0.20056 0.51607 0.73568 0.0
C254 C 0.23259 0.5194 0.73575 0.0
C255 C 0.28264 0.52717 0.76568 0.0
H256 H 0.24422 0.52244 0.71378 0.0
C257 C 0.30024 0.51869 0.79198 0.0
C258 C 0.33055 0.5288 0.79555 0.0
C259 C 0.297 0.54453 0.74214 0.0
H260 H 0.28462 0.55236 0.72194 0.0
C261 C 0.32753 0.55328 0.74486 0.0
H262 H 0.29057 0.50432 0.81003 0.0
C263 C 0.34412 0.5458 0.77142 0.0
H264 H 0.36734 0.55409 0.77343 0.0
H265 H 0.33813 0.56681 0.72666 0.0
H266 H 0.52099 0.22959 0.8094 0.0
C267 C 0.52293 0.22071 0.78604 0.0
C268 C 0.53104 0.18973 0.78195 0.0
C269 C 0.51617 0.23976 0.7604 0.0
H270 H 0.53689 0.1535 0.7484 0.0
C271 C 0.53206 0.17772 0.75183 0.0
C272 C 0.52516 0.19601 0.726 0.0
C273 C 0.51822 0.22718 0.73021 0.0
C274 C 0.50463 0.27176 0.76546 0.0
H275 H 0.51326 0.24108 0.70996 0.0
C276 C 0.51322 0.28886 0.79196 0.0
C277 C 0.50057 0.31796 0.79781 0.0
C278 C 0.48345 0.28487 0.7447 0.0
H279 H 0.47525 0.27234 0.72469 0.0
C280 C 0.4716 0.31415 0.75 0.0
H281 H 0.52989 0.27989 0.80809 0.0
C282 C 0.48001 0.33061 0.77639 0.0
H283 H 0.46988 0.35296 0.78043 0.0
H284 H 0.45532 0.32386 0.73389 0.0
H285 H 0.79994 0.48004 0.81644 0.0
C286 C 0.8097 0.48613 0.79414 0.0
C287 C 0.84091 0.4922 0.79275 0.0
C288 C 0.79126 0.48826 0.76756 0.0
H289 H 0.87906 0.5027 0.76315 0.0
C290 C 0.85471 0.49839 0.76405 0.0
C291 C 0.83736 0.49845 0.73654 0.0
C292 C 0.80547 0.4944 0.73862 0.0
C293 C 0.75749 0.48377 0.77062 0.0
H294 H 0.792 0.49564 0.71763 0.0
C295 C 0.74242 0.49064 0.79889 0.0
C296 C 0.7112 0.4848 0.80274 0.0
C297 C 0.74007 0.47174 0.74598 0.0
H298 H 0.75058 0.46537 0.72416 0.0
C299 C 0.70872 0.46696 0.74944 0.0
H300 H 0.75463 0.50089 0.81811 0.0
C301 C 0.69431 0.47339 0.77764 0.0
H302 H 0.67011 0.46888 0.78008 0.0
H303 H 0.69561 0.4577 0.73031 0.0
H304 H 0.49307 0.20759 0.24487 0.0
C305 C 0.4986 0.22901 0.23344 0.0
C306 C 0.503 0.22872 0.20103 0.0
C307 C 0.50129 0.25648 0.25076 0.0
H308 H 0.51097 0.25679 0.16043 0.0
C309 C 0.50859 0.25668 0.1855 0.0
C310 C 0.51097 0.28453 0.20183 0.0
C311 C 0.50852 0.28394 0.23441 0.0
C312 C 0.49565 0.25691 0.28545 0.0
H313 H 0.51171 0.30533 0.24669 0.0
C314 C 0.4975 0.22994 0.30419 0.0
C315 C 0.49118 0.2309 0.33646 0.0
C316 C 0.48731 0.28466 0.3002 0.0
H317 H 0.4836 0.30566 0.28735 0.0
C318 C 0.48291 0.28604 0.33216 0.0
H319 H 0.50334 0.20809 0.29394 0.0
C320 C 0.48511 0.25961 0.35017 0.0
H321 H 0.48161 0.26176 0.37498 0.0
H322 H 0.47723 0.30774 0.34303 0.0
H323 H 0.78962 0.51592 0.21562 0.0
C324 C 0.80198 0.5105 0.23662 0.0
C325 C 0.8337 0.50762 0.2348 0.0
C326 C 0.78638 0.50595 0.26498 0.0
H327 H 0.87502 0.50151 0.26076 0.0
C328 C 0.85032 0.5022 0.26193 0.0
C329 C 0.83571 0.49792 0.29056 0.0
C330 C 0.80369 0.49962 0.292 0.0
C331 C 0.75224 0.50765 0.26597 0.0
H332 H 0.7925 0.49524 0.314 0.0
C333 C 0.73458 0.50065 0.23939 0.0
C334 C 0.70271 0.50442 0.23933 0.0
C335 C 0.73697 0.51731 0.29305 0.0
H336 H 0.74941 0.52366 0.31376 0.0
C337 C 0.70525 0.5197 0.29361 0.0
H338 H 0.74557 0.49285 0.21834 0.0
C339 C 0.68822 0.51345 0.26702 0.0
H340 H 0.66366 0.51583 0.26814 0.0
H341 H 0.69382 0.527 0.31466 0.0
H342 H 0.52368 0.774 0.21068 0.0
C343 C 0.5196 0.78769 0.23124 0.0
C344 C 0.5153 0.81963 0.22808 0.0
C345 C 0.51897 0.77355 0.26083 0.0
H346 H 0.51066 0.86229 0.25296 0.0
C347 C 0.51159 0.83747 0.255 0.0
C348 C 0.50965 0.82406 0.28455 0.0
C349 C 0.51307 0.79203 0.28722 0.0
C350 C 0.52548 0.73987 0.26458 0.0
H351 H 0.51086 0.7815 0.30992 0.0
C352 C 0.51746 0.71814 0.2415 0.0
C353 C 0.52458 0.68664 0.24513 0.0
C354 C 0.54073 0.7293 0.29132 0.0
H355 H 0.54829 0.74511 0.30913 0.0
C356 C 0.54725 0.69818 0.29524 0.0
H357 H 0.50539 0.72551 0.22088 0.0
C358 C 0.53931 0.677 0.2724 0.0
H359 H 0.54555 0.65312 0.27573 0.0
H360 H 0.55906 0.69051 0.31591 0.0
H361 H 0.21836 0.487 0.24158 0.0
C362 C 0.23888 0.49198 0.22848 0.0
C363 C 0.23662 0.49607 0.19633 0.0
C364 C 0.26718 0.49428 0.24368 0.0
H365 H 0.26144 0.50306 0.15382 0.0
C366 C 0.26313 0.50138 0.17889 0.0
C367 C 0.29175 0.50409 0.19309 0.0
C368 C 0.29366 0.50048 0.22564 0.0
C369 C 0.26872 0.48943 0.27814 0.0
H370 H 0.3156 0.50314 0.23681 0.0
C371 C 0.24396 0.49741 0.29785 0.0
C372 C 0.24471 0.49091 0.32995 0.0
C373 C 0.29441 0.47534 0.29147 0.0
H374 H 0.31351 0.46815 0.27728 0.0
C375 C 0.29548 0.46936 0.32329 0.0
H376 H 0.22422 0.50906 0.28848 0.0
C377 C 0.27087 0.47691 0.34236 0.0
H378 H 0.27214 0.47127 0.36685 0.0
H379 H 0.31532 0.4583 0.33317 0.0
H380 H 0.80041 0.80862 0.52628 0.0
C381 C 0.80958 0.78596 0.52187 0.0
C382 C 0.84045 0.78355 0.51401 0.0
C383 C 0.79094 0.75986 0.52526 0.0
H384 H 0.87778 0.75231 0.50666 0.0
C385 C 0.85364 0.75417 0.51161 0.0
C386 C 0.83607 0.7273 0.51618 0.0
C387 C 0.80453 0.73047 0.52219 0.0
C388 C 0.75772 0.76386 0.53291 0.0
H389 H 0.79068 0.70994 0.52415 0.0
C390 C 0.74195 0.7911 0.52449 0.0
C391 C 0.71146 0.7958 0.53338 0.0
C392 C 0.74171 0.7412 0.54981 0.0
H393 H 0.75281 0.7204 0.55764 0.0
C394 C 0.7111 0.7454 0.55773 0.0
H395 H 0.75297 0.80877 0.51072 0.0
C396 C 0.69605 0.77249 0.54965 0.0
H397 H 0.67251 0.77552 0.55669 0.0
H398 H 0.69913 0.72778 0.57074 0.0
H399 H 0.79957 0.20105 0.51286 0.0
C400 C 0.80961 0.22351 0.51631 0.0
C401 C 0.84058 0.22522 0.52403 0.0
C402 C 0.79184 0.25024 0.5127 0.0
H403 H 0.87865 0.25538 0.53172 0.0
C404 C 0.85435 0.25412 0.52728 0.0
C405 C 0.83766 0.28145 0.52441 0.0
C406 C 0.80628 0.27941 0.51699 0.0
C407 C 0.75881 0.24714 0.50325 0.0
H408 H 0.79326 0.30045 0.51526 0.0
C409 C 0.74129 0.22025 0.51015 0.0
C410 C 0.7112 0.21653 0.49884 0.0
C411 C 0.74499 0.27039 0.48542 0.0
H412 H 0.75743 0.29088 0.47872 0.0
C413 C 0.71512 0.26716 0.47483 0.0
H414 H 0.75068 0.20222 0.52456 0.0
C415 C 0.69846 0.24054 0.48124 0.0
H416 H 0.6757 0.2385 0.47173 0.0
H417 H 0.70501 0.28521 0.46093 0.0
H418 H 0.21693 0.77312 0.52243 0.0
C419 C 0.23823 0.78554 0.52006 0.0
C420 C 0.2374 0.81754 0.51531 0.0
C421 C 0.2663 0.77003 0.52384 0.0
H422 H 0.26446 0.85852 0.5095 0.0
C423 C 0.26491 0.83395 0.51386 0.0
C424 C 0.29298 0.8197 0.5193 0.0
C425 C 0.29369 0.78756 0.52306 0.0
C426 C 0.26682 0.73623 0.53129 0.0
H427 H 0.31555 0.77657 0.52641 0.0
C428 C 0.24412 0.71569 0.52014 0.0
C429 C 0.2446 0.68414 0.52823 0.0
C430 C 0.28972 0.72436 0.55085 0.0
H431 H 0.30683 0.73915 0.56106 0.0
C432 C 0.2905 0.69321 0.55844 0.0
H433 H 0.2263 0.72398 0.50492 0.0
C434 C 0.26822 0.67326 0.54728 0.0
H435 H 0.26905 0.64933 0.55431 0.0
H436 H 0.30823 0.68457 0.57356 0.0
H437 H 0.21762 0.23242 0.51072 0.0
C438 C 0.23961 0.2214 0.51289 0.0
C439 C 0.24092 0.19024 0.52165 0.0
C440 C 0.26638 0.23818 0.50622 0.0
H441 H 0.27081 0.15165 0.52936 0.0
C442 C 0.26957 0.17583 0.5234 0.0
C443 C 0.2967 0.1919 0.51689 0.0
C444 C 0.2949 0.22324 0.50901 0.0
C445 C 0.2645 0.2706 0.49444 0.0
H446 H 0.31577 0.23573 0.50423 0.0
C447 C 0.24121 0.29096 0.5043 0.0
C448 C 0.23958 0.32117 0.49238 0.0
C449 C 0.28571 0.28111 0.47216 0.0
H450 H 0.3032 0.26609 0.46303 0.0
C451 C 0.28428 0.31103 0.46061 0.0
H452 H 0.22471 0.28371 0.52159 0.0
C453 C 0.26149 0.33095 0.47064 0.0
H454 H 0.26063 0.35392 0.46089 0.0
H455 H 0.30074 0.31872 0.44349 0.0
C456 C 0.02894 0.9315 0.58466 0.0
C457 C 0.02749 0.93802 0.43373 0.0
C458 C 0.01102 0.07777 0.5917 0.0
C459 C 0.01469 0.08681 0.44157 0.0
C460 C 0.94192 0.07467 0.51488 0.0
C461 C 0.95733 0.92527 0.51063 0.0
C462 C 0.08948 0.08928 0.5164 0.0
C463 C 0.10302 0.94129 0.51446 0.0
C464 C 0.09655 0.01168 0.4379 0.0
C465 C 0.94974 1.00417 0.43477 0.0
C466 C 0.09426 0.01362 0.58906 0.0
C467 C 0.94649 0.99867 0.58617 0.0
Eu468 Eu 0.02832 0.95062 0.50961 0.0
O469 O 0.99825 0.9797 0.48292 0.0
O470 O 0.05136 0.98268 0.53918 0.0
Eu471 Eu 0.96404 1.00192 0.5108 0.0
Eu472 Eu 0.07979 0.01392 0.51332 0.0
O473 O 0.99716 0.97684 0.53786 0.0
O474 O 0.05216 0.98552 0.48388 0.0
Eu475 Eu 0.02083 1.00524 0.57097 0.0
Eu476 Eu 0.02275 0.01168 0.45388 0.0
O477 O 0.99209 0.03077 0.5401 0.0
O478 O 0.99297 0.03412 0.48626 0.0
O479 O 0.04734 0.04 0.4865 0.0
O480 O 0.04642 0.03663 0.54221 0.0
Eu481 Eu 0.01709 0.06609 0.51581 0.0
O482 O 0.02951 0.92331 0.55473 0.0
O483 O 0.03114 0.9272 0.46253 0.0
O484 O 0.01361 0.08953 0.56311 0.0
O485 O 0.01273 0.09376 0.47169 0.0
O486 O 0.93483 0.04505 0.51078 0.0
O487 O 0.94402 0.95303 0.51082 0.0
O488 O 0.10118 0.06103 0.51539 0.0
O489 O 0.10915 0.97132 0.51615 0.0
O490 O 0.06762 0.01158 0.42852 0.0
O491 O 0.9788 0.00892 0.42685 0.0
O492 O 0.06518 0.01008 0.59781 0.0
O493 O 0.97538 0.99858 0.59614 0.0
O494 O 0.0598 0.09632 0.51621 0.0
O495 O 0.96988 0.08641 0.518 0.0
O496 O 0.07539 0.92892 0.51076 0.0
O497 O 0.98718 0.92005 0.50938 0.0
O498 O 0.02335 0.96746 0.42592 0.0
O499 O 0.01958 0.05867 0.43 0.0
O500 O 0.02647 0.96001 0.59545 0.0
O501 O 0.01254 0.04807 0.59911 0.0
O502 O 0.93778 1.00038 0.55645 0.0
O503 O 0.93936 1.00092 0.46389 0.0
O504 O 0.10411 0.01555 0.55973 0.0
O505 O 0.10616 0.01343 0.46735 0.0
C506 C 0.50807 0.93915 0.0877 0.0
C507 C 0.51361 0.08847 0.08131 0.0
C508 C 0.521 0.93411 0.93696 0.0
C509 C 0.52354 0.08248 0.93204 0.0
C510 C 0.5991 0.01053 0.94334 0.0
C511 C 0.58255 0.01444 0.09193 0.0
C512 C 0.45152 0.00898 0.92658 0.0
C513 C 0.43529 0.0135 0.07681 0.0
C514 C 0.44321 0.08563 1.00083 0.0
C515 C 0.59099 0.08336 0.01826 0.0
C516 C 0.44106 0.93667 0.00655 0.0
C517 C 0.58904 0.93379 0.01684 0.0
Eu518 Eu 0.51036 0.01314 0.06791 0.0
O519 O 0.54059 0.03791 0.03798 0.0
O520 O 0.48636 0.98462 0.03509 0.0
Eu521 Eu 0.57387 0.009 0.01602 0.0
Eu522 Eu 0.45889 0.01108 1.00355 0.0
O523 O 0.54003 0.98337 0.04149 0.0
O524 O 0.48674 0.03966 0.03317 0.0
Eu525 Eu 0.51542 0.95191 0.01192 0.0
Eu526 Eu 0.51739 0.06877 0.00712 0.0
O527 O 0.54615 0.98115 0.98602 0.0
O528 O 0.54739 0.03659 0.98422 0.0
O529 O 0.49308 0.03681 0.97821 0.0
O530 O 0.49247 0.98282 0.98056 0.0
Eu531 Eu 0.52355 0.00851 0.95123 0.0
O532 O 0.50692 0.96888 0.09542 0.0
O533 O 0.50952 0.05992 0.09228 0.0
O534 O 0.52553 0.96271 0.9268 0.0
O535 O 0.5263 0.05305 0.92365 0.0
O536 O 0.60455 0.01167 0.97379 0.0
O537 O 0.59501 0.01009 0.064 0.0
O538 O 0.43866 0.00941 0.9548 0.0
O539 O 0.42853 0.01336 0.04657 0.0
O540 O 0.47231 0.09497 1.00262 0.0
O541 O 0.56316 0.09372 0.01107 0.0
O542 O 0.46985 0.92689 0.00903 0.0
O543 O 0.55987 0.925 0.01456 0.0
O544 O 0.48147 0.00861 0.92076 0.0
O545 O 0.57156 0.0082 0.93021 0.0
O546 O 0.46321 0.01328 0.089 0.0
O547 O 0.5527 0.01628 0.09797 0.0
O548 O 0.51678 0.09615 0.0515 0.0
O549 O 0.52 0.09285 0.9609 0.0
O550 O 0.51171 0.92801 0.05898 0.0
O551 O 0.5161 0.92554 0.96639 0.0
O552 O 0.59866 0.963 0.01805 0.0
O553 O 0.59896 0.05396 0.02167 0.0
O554 O 0.43232 0.96604 0.00451 0.0
O555 O 0.43375 0.05644 1.00081 0.0
C556 C 0.01872 0.4291 0.07962 0.0
C557 C 0.01394 0.44816 0.92956 0.0
C558 C 0.01845 0.57614 0.09868 0.0
C559 C 0.01277 0.59667 0.94961 0.0
C560 C 0.94282 0.58699 0.02846 0.0
C561 C 0.93951 0.44073 0.00493 0.0
C562 C 0.09294 0.58507 0.01588 0.0
C563 C 0.08788 0.43514 0.00656 0.0
C564 C 0.0852 0.52164 0.93403 0.0
C565 C 0.9398 0.52247 0.94286 0.0
C566 C 0.09495 0.50846 0.0828 0.0
C567 C 0.94785 0.49998 0.09198 0.0
Eu568 Eu 0.01424 0.45394 0.0065 0.0
O569 O 0.98725 0.48928 0.98477 0.0
O570 O 0.04442 0.48075 0.0353 0.0
Eu571 Eu 0.95892 0.51348 0.01712 0.0
Eu572 Eu 0.07412 0.51078 0.00924 0.0
O573 O 0.99009 0.48213 0.03924 0.0
O574 O 0.04093 0.48758 0.98103 0.0
Eu575 Eu 0.02041 0.50462 0.0714 0.0
Eu576 Eu 0.01336 0.52024 0.95621 0.0
O577 O 0.99197 0.53635 0.04617 0.0
O578 O 0.98856 0.54416 0.99195 0.0
O579 O 0.04257 0.54287 0.98882 0.0
O580 O 0.04587 0.53543 0.04207 0.0
Eu581 Eu 0.01779 0.57095 0.02178 0.0
O582 O 0.0127 0.42333 0.04971 0.0
O583 O 0.01374 0.43454 0.95744 0.0
O584 O 0.01971 0.59003 0.07097 0.0
O585 O 0.01524 0.60217 0.97998 0.0
O586 O 0.93383 0.55782 0.02581 0.0
O587 O 0.93184 0.46994 0.01006 0.0
O588 O 0.10062 0.55575 0.01061 0.0
O589 O 0.09858 0.46408 0.00682 0.0
O590 O 0.05583 0.5257 0.92773 0.0
O591 O 0.96824 0.52344 0.9323 0.0
O592 O 0.06694 0.50522 0.09459 0.0
O593 O 0.97732 0.49763 0.09909 0.0
O594 O 0.06445 0.59515 0.02114 0.0
O595 O 0.97189 0.5969 0.02706 0.0
O596 O 0.05846 0.42709 0.00602 0.0
O597 O 0.96796 0.42975 1.00343 0.0
O598 O 0.0138 0.47852 0.92443 0.0
O599 O 0.01173 0.56882 0.93649 0.0
O600 O 0.02418 0.45673 0.09181 0.0
O601 O 0.01809 0.54578 0.10345 0.0
O602 O 0.93634 0.5065 0.06407 0.0
O603 O 0.93121 0.51905 0.9725 0.0
O604 O 0.10215 0.5105 0.05281 0.0
O605 O 0.09674 0.51436 0.96176 0.0
C606 C 0.51322 0.42869 0.08462 0.0
C607 C 0.51874 0.57903 0.09407 0.0
C608 C 0.52381 0.43979 0.93411 0.0
C609 C 0.52274 0.58711 0.94366 0.0
C610 C 0.59744 0.5128 0.94348 0.0
C611 C 0.58864 0.50729 0.09467 0.0
C612 C 0.45135 0.51158 0.93423 0.0
C613 C 0.44168 0.50485 0.0859 0.0
C614 C 0.44762 0.58455 0.0145 0.0
C615 C 0.59719 0.58002 0.01698 0.0
C616 C 0.44404 0.43645 0.00682 0.0
C617 C 0.59201 0.43165 0.01661 0.0
Eu618 Eu 0.51629 0.50482 0.07321 0.0
O619 O 0.54591 0.53319 0.0451 0.0
O620 O 0.49087 0.48042 0.03825 0.0
Eu621 Eu 0.57779 0.50647 0.01813 0.0
Eu622 Eu 0.46201 0.51012 0.01109 0.0
O623 O 0.54473 0.47834 0.04215 0.0
O624 O 0.49189 0.53502 0.04212 0.0
Eu625 Eu 0.51873 0.45006 0.01058 0.0
Eu626 Eu 0.52162 0.56715 0.0182 0.0
O627 O 0.5484 0.48181 0.98686 0.0
O628 O 0.54937 0.53664 0.99112 0.0
O629 O 0.49498 0.53868 0.98754 0.0
O630 O 0.49377 0.48355 0.98404 0.0
Eu631 Eu 0.5234 0.51235 0.95707 0.0
O632 O 0.51498 0.45714 0.09655 0.0
O633 O 0.51514 0.54934 0.10182 0.0
O634 O 0.52581 0.46972 0.92791 0.0
O635 O 0.52478 0.55847 0.93297 0.0
O636 O 0.60594 0.5076 0.97293 0.0
O637 O 0.60041 0.50703 0.06596 0.0
O638 O 0.43934 0.51116 0.96291 0.0
O639 O 0.43394 0.50876 0.05605 0.0
O640 O 0.47651 0.5934 0.01931 0.0
O641 O 0.56865 0.59125 0.01768 0.0
O642 O 0.47278 0.42625 0.00755 0.0
O643 O 0.56307 0.42286 0.01235 0.0
O644 O 0.48105 0.51249 0.92784 0.0
O645 O 0.56886 0.51568 0.93369 0.0
O646 O 0.47009 0.50236 0.09662 0.0
O647 O 0.55912 0.50612 0.10192 0.0
O648 O 0.52212 0.58972 0.06522 0.0
O649 O 0.52073 0.5953 0.97351 0.0
O650 O 0.51388 0.42178 0.05441 0.0
O651 O 0.52057 0.42758 0.96252 0.0
O652 O 0.6017 0.4606 0.01955 0.0
O653 O 0.60473 0.55038 0.01779 0.0
O654 O 0.4353 0.46579 0.00758 0.0
O655 O 0.438 0.5558 0.01006 0.0
C656 C 0.02324 0.43259 0.58809 0.0
C657 C 0.01413 0.42818 0.43711 0.0
C658 C 0.02186 0.57976 0.58392 0.0
C659 C 0.02363 0.57647 0.4331 0.0
C660 C 0.94894 0.58235 0.50827 0.0
C661 C 0.94304 0.43203 0.51366 0.0
C662 C 0.09658 0.57741 0.50863 0.0
C663 C 0.09193 0.42721 0.50994 0.0
C664 C 0.09234 0.50062 0.43279 0.0
C665 C 0.94344 0.50595 0.43883 0.0
C666 C 0.09732 0.50573 0.58297 0.0
C667 C 0.95017 0.5018 0.58995 0.0
Eu668 Eu 0.01816 0.44575 0.51231 0.0
O669 O 0.99118 0.47761 0.48553 0.0
O670 O 0.04763 0.47664 0.53755 0.0
Eu671 Eu 0.96179 0.50665 0.51345 0.0
Eu672 Eu 0.07832 0.50263 0.50853 0.0
O673 O 0.99325 0.47879 0.53966 0.0
O674 O 0.0457 0.47519 0.48297 0.0
Eu675 Eu 0.02275 0.50589 0.56855 0.0
Eu676 Eu 0.01837 0.5026 0.45209 0.0
O677 O 0.99466 0.53383 0.5387 0.0
O678 O 0.99306 0.53154 0.4836 0.0
O679 O 0.04735 0.53001 0.48138 0.0
O680 O 0.04951 0.53178 0.53604 0.0
Eu681 Eu 0.02215 0.56262 0.50882 0.0
O682 O 0.01861 0.42163 0.55946 0.0
O683 O 0.01626 0.41914 0.46674 0.0
O684 O 0.02336 0.58899 0.55435 0.0
O685 O 0.02352 0.58717 0.46216 0.0
O686 O 0.93797 0.55383 0.51272 0.0
O687 O 0.93469 0.46162 0.51213 0.0
O688 O 0.10519 0.54785 0.5081 0.0
O689 O 0.10199 0.45625 0.50866 0.0
O690 O 0.06296 0.49944 0.42426 0.0
O691 O 0.97208 0.50375 0.42829 0.0
O692 O 0.06861 0.50875 0.59296 0.0
O693 O 0.97976 0.50175 0.59689 0.0
O694 O 0.06774 0.58725 0.50878 0.0
O695 O 0.9784 0.58982 0.50601 0.0
O696 O 0.06262 0.41862 0.51135 0.0
O697 O 0.97178 0.42173 0.51488 0.0
O698 O 0.0139 0.45717 0.42704 0.0
O699 O 0.02184 0.54697 0.42475 0.0
O700 O 0.02653 0.46204 0.59573 0.0
O701 O 0.02054 0.55086 0.59394 0.0
O702 O 0.93849 0.50477 0.56134 0.0
O703 O 0.93498 0.5079 0.46856 0.0
O704 O 0.10572 0.50201 0.55337 0.0
O705 O 0.10226 0.50224 0.46203 0.0
C706 C 0.52156 0.92739 0.5887 0.0
C707 C 0.51452 0.92792 0.43787 0.0
C708 C 0.51179 0.0761 0.58867 0.0
C709 C 0.50863 0.07718 0.43806 0.0
C710 C 0.43585 0.07209 0.51424 0.0
C711 C 0.44405 0.92362 0.51671 0.0
C712 C 0.58451 0.08184 0.51097 0.0
C713 C 0.59121 0.93052 0.50819 0.0
C714 C 0.58529 1.00431 0.43456 0.0
C715 C 0.43737 0.99723 0.44299 0.0
C716 C 0.59364 0.00979 0.58303 0.0
C717 C 0.44689 1.00007 0.59427 0.0
Eu718 Eu 0.51712 0.94405 0.51323 0.0
O719 O 0.4876 0.97394 0.48749 0.0
O720 O 0.54545 0.97578 0.53904 0.0
Eu721 Eu 0.45715 0.99894 0.51748 0.0
Eu722 Eu 0.57272 1.0054 0.50976 0.0
O723 O 0.49069 0.97325 0.54301 0.0
O724 O 0.54147 0.97658 0.48442 0.0
Eu725 Eu 0.51914 1.00189 0.57175 0.0
Eu726 Eu 0.51194 1.00256 0.45471 0.0
O727 O 0.48831 0.02778 0.54277 0.0
O728 O 0.48471 0.0279 0.4877 0.0
O729 O 0.53905 0.03152 0.48435 0.0
O730 O 0.54191 0.03107 0.5388 0.0
Eu731 Eu 0.51119 0.06069 0.51349 0.0
O732 O 0.51943 0.91806 0.55917 0.0
O733 O 0.51714 0.91842 0.46727 0.0
O734 O 0.51044 0.08627 0.55944 0.0
O735 O 0.50823 0.08636 0.46766 0.0
O736 O 0.42908 0.04224 0.51629 0.0
O737 O 0.43382 0.9524 0.5195 0.0
O738 O 0.59586 0.05322 0.50874 0.0
O739 O 0.60018 0.9601 0.50878 0.0
O740 O 0.55589 1.00393 0.42638 0.0
O741 O 0.46575 0.99935 0.43194 0.0
O742 O 0.56567 0.00659 0.59506 0.0
O743 O 0.47659 0.99974 0.60068 0.0
O744 O 0.55484 0.08861 0.5129 0.0
O745 O 0.46411 0.0839 0.51364 0.0
O746 O 0.56248 0.92069 0.50987 0.0
O747 O 0.4733 0.91564 0.51342 0.0
O748 O 0.512 0.95716 0.42861 0.0
O749 O 0.51015 0.04803 0.42834 0.0
O750 O 0.52254 0.9567 0.59792 0.0
O751 O 0.51514 0.04689 0.59761 0.0
O752 O 0.43478 0.99984 0.5657 0.0
O753 O 0.42924 0.99701 0.47294 0.0
O754 O 0.6007 0.00944 0.55299 0.0
O755 O 0.59602 1.0049 0.4634 0.0
H756 H 0.18552 0.19412 0.49194 0.0
H757 H 0.23197 0.14533 0.56544 0.0
H758 H 0.18855 0.11087 0.57114 0.0
H759 H 0.13908 0.09205 0.55277 0.0
H760 H 0.09051 0.14237 0.48227 0.0
H761 H 0.1327 0.17949 0.4786 0.0
C762 C 0.18598 0.17647 0.50973 0.0
C763 C 0.21253 0.17203 0.52769 0.0
C764 C 0.16051 0.15701 0.51346 0.0
C765 C 0.21244 0.14877 0.5505 0.0
C766 C 0.18746 0.12914 0.55401 0.0
C767 C 0.1376 0.11144 0.53693 0.0
C768 C 0.11201 0.11447 0.51761 0.0
C769 C 0.16172 0.13261 0.53515 0.0
C770 C 0.11003 0.13975 0.49742 0.0
C771 C 0.13422 0.16078 0.49519 0.0
H772 H 0.83879 0.17156 0.49066 0.0
H773 H 0.88357 0.21505 0.56847 0.0
H774 H 0.91767 0.17126 0.5735 0.0
H775 H 0.93711 0.1225 0.55369 0.0
H776 H 0.8914 0.07709 0.47793 0.0
H777 H 0.85451 0.11938 0.47484 0.0
C778 C 0.85557 0.17123 0.50911 0.0
C779 C 0.859 0.19693 0.52871 0.0
C780 C 0.87485 0.14565 0.51229 0.0
C781 C 0.88101 0.19604 0.55243 0.0
C782 C 0.90039 0.17091 0.55552 0.0
C783 C 0.91882 0.12177 0.53674 0.0
C784 C 0.91699 0.09713 0.51583 0.0
C785 C 0.89791 0.14595 0.53518 0.0
C786 C 0.89307 0.09596 0.49427 0.0
C787 C 0.87218 0.12019 0.49238 0.0
H788 H 0.89839 0.79497 0.5336 0.0
H789 H 0.82343 0.83672 0.48447 0.0
H790 H 0.85181 0.88496 0.48044 0.0
H791 H 0.8984 0.91561 0.491 0.0
H792 H 0.97413 0.87143 0.53661 0.0
H793 H 0.94514 0.82418 0.54174 0.0
C794 C 0.8884 0.8144 0.52154 0.0
C795 C 0.85875 0.81214 0.50955 0.0
C796 C 0.90496 0.84192 0.51886 0.0
C797 C 0.84607 0.83789 0.49441 0.0
C798 C 0.86231 0.86552 0.49198 0.0
C799 C 0.90838 0.89566 0.50217 0.0
C800 C 0.93831 0.89724 0.51366 0.0
C801 C 0.89177 0.86792 0.5043 0.0
C802 C 0.95111 0.87101 0.52771 0.0
C803 C 0.93458 0.84382 0.53058 0.0
H804 H 0.22493 0.87149 0.54371 0.0
H805 H 0.18387 0.80243 0.48521 0.0
H806 H 0.13761 0.83387 0.48096 0.0
H807 H 0.11022 0.88286 0.49152 0.0
H808 H 0.1545 0.95251 0.54705 0.0
H809 H 0.19844 0.91925 0.55407 0.0
C810 C 0.20605 0.86335 0.52966 0.0
C811 C 0.20814 0.83488 0.5143 0.0
C812 C 0.18019 0.88186 0.52654 0.0
C813 C 0.18291 0.82427 0.49725 0.0
C814 C 0.15656 0.84235 0.49464 0.0
C815 C 0.12948 0.89062 0.50522 0.0
C816 C 0.12918 0.92024 0.51851 0.0
C817 C 0.15513 0.87146 0.5088 0.0
C818 C 0.1543 0.93005 0.53616 0.0
C819 C 0.17941 0.91098 0.54036 0.0
H820 H 0.54022 0.21105 0.15385 0.0
H821 H 0.46332 0.17986 0.20816 0.0
H822 H 0.4613 0.13228 0.17794 0.0
H823 H 0.47988 0.10048 0.13377 0.0
H824 H 0.55469 0.13437 0.07809 0.0
H825 H 0.55885 0.1798 0.11089 0.0
C826 C 0.52279 0.19402 0.15896 0.0
C827 C 0.50187 0.19927 0.18318 0.0
C828 C 0.52136 0.16705 0.14112 0.0
C829 C 0.47994 0.17645 0.18986 0.0
C830 C 0.47865 0.14924 0.17244 0.0
C831 C 0.49723 0.11771 0.12915 0.0
C832 C 0.51684 0.11419 0.1035 0.0
C833 C 0.49908 0.14437 0.14778 0.0
C834 C 0.53913 0.13675 0.09754 0.0
C835 C 0.54156 0.16274 0.11628 0.0
H836 H 0.87823 0.46966 0.21529 0.0
H837 H 0.82489 0.54781 0.18619 0.0
H838 H 0.85361 0.55028 0.13736 0.0
H839 H 0.89654 0.5323 0.10479 0.0
H840 H 0.95202 0.4569 0.13691 0.0
H841 H 0.9199 0.45133 0.18296 0.0
C842 C 0.87302 0.48743 0.1984 0.0
C843 C 0.84978 0.50877 0.20451 0.0
C844 C 0.89004 0.48918 0.17099 0.0
C845 C 0.84267 0.53107 0.18199 0.0
C846 C 0.85916 0.53258 0.15417 0.0
C847 C 0.90121 0.51445 0.12174 0.0
C848 C 0.92646 0.49505 0.11772 0.0
C849 C 0.8832 0.51201 0.14864 0.0
C850 C 0.93271 0.47217 0.13982 0.0
C851 C 0.91442 0.46899 0.16607 0.0
H852 H 0.47892 0.86674 0.21044 0.0
H853 H 0.55011 0.80758 0.17569 0.0
H854 H 0.55191 0.83738 0.12734 0.0
H855 H 0.53636 0.88361 0.09694 0.0
H856 H 0.47079 0.94592 0.13697 0.0
H857 H 0.46413 0.91201 0.18139 0.0
C858 C 0.49516 0.86042 0.19253 0.0
C859 C 0.51473 0.83521 0.19712 0.0
C860 C 0.4972 0.8785 0.16568 0.0
C861 C 0.53468 0.82679 0.17293 0.0
C862 C 0.53594 0.84404 0.14535 0.0
C863 C 0.52044 0.88947 0.1153 0.0
C864 C 0.50381 0.91711 0.11353 0.0
C865 C 0.51777 0.87041 0.14174 0.0
C866 C 0.48361 0.92472 0.13766 0.0
C867 C 0.47986 0.90537 0.16314 0.0
H868 H 0.21721 0.53533 0.15218 0.0
H869 H 0.18845 0.45638 0.20564 0.0
H870 H 0.14009 0.45504 0.17728 0.0
H871 H 0.10764 0.47427 0.13427 0.0
H872 H 0.13958 0.55056 0.07876 0.0
H873 H 0.18518 0.55487 0.11073 0.0
C874 C 0.20048 0.51765 0.15749 0.0
C875 C 0.20656 0.49576 0.18064 0.0
C876 C 0.17333 0.51652 0.14064 0.0
C877 C 0.18427 0.47356 0.18792 0.0
C878 C 0.1567 0.47268 0.17161 0.0
C879 C 0.1245 0.49199 0.12959 0.0
C880 C 0.12055 0.512 0.10431 0.0
C881 C 0.15118 0.49377 0.14756 0.0
C882 C 0.14246 0.53478 0.09806 0.0
C883 C 0.16847 0.53727 0.11628 0.0
H884 H 0.53777 0.83614 0.8309 0.0
H885 H 0.45273 0.80364 0.86966 0.0
H886 H 0.45248 0.84611 0.90661 0.0
H887 H 0.47839 0.89015 0.9305 0.0
H888 H 0.56148 0.92508 0.89001 0.0
H889 H 0.56061 0.88402 0.85097 0.0
C890 C 0.5188 0.83884 0.84685 0.0
C891 C 0.49556 0.81654 0.84786 0.0
C892 C 0.51875 0.86339 0.86804 0.0
C893 C 0.47117 0.82026 0.86882 0.0
C894 C 0.47102 0.84446 0.89 0.0
C895 C 0.49627 0.88863 0.9131 0.0
C896 C 0.52027 0.90993 0.91328 0.0
C897 C 0.49512 0.86561 0.89038 0.0
C898 C 0.54296 0.90852 0.89029 0.0
C899 C 0.54241 0.88518 0.86801 0.0
H900 H 0.15088 0.54459 0.80662 0.0
H901 H 0.21367 0.47821 0.8443 0.0
H902 H 0.18463 0.47686 0.89308 0.0
H903 H 0.13969 0.49303 0.92388 0.0
H904 H 0.077 0.55878 0.88442 0.0
H905 H 0.10772 0.5619 0.83745 0.0
C906 C 0.15804 0.52962 0.82543 0.0
C907 C 0.18399 0.51118 0.82184 0.0
C908 C 0.14132 0.52893 0.85308 0.0
C909 C 0.1936 0.49252 0.84663 0.0
C910 C 0.17703 0.49174 0.87443 0.0
C911 C 0.13308 0.5083 0.90513 0.0
C912 C 0.10606 0.52545 0.90747 0.0
C913 C 0.15067 0.50969 0.87782 0.0
C914 C 0.09755 0.54505 0.88299 0.0
C915 C 0.11508 0.54689 0.85611 0.0
H916 H 0.4998 0.18911 0.83675 0.0
H917 H 0.57268 0.14309 0.78785 0.0
H918 H 0.57632 0.1052 0.82954 0.0
H919 H 0.5576 0.08415 0.87931 0.0
H920 H 0.48784 0.13301 0.92975 0.0
H921 H 0.48461 0.17118 0.88826 0.0
C922 C 0.51704 0.17132 0.83544 0.0
C923 C 0.53574 0.16892 0.80898 0.0
C924 C 0.51947 0.14999 0.85973 0.0
C925 C 0.55753 0.1452 0.80763 0.0
C926 C 0.55974 0.12356 0.83152 0.0
C927 C 0.54178 0.10322 0.88111 0.0
C928 C 0.52284 0.10577 0.90727 0.0
C929 C 0.54053 0.12548 0.85748 0.0
C930 C 0.50269 0.13072 0.90975 0.0
C931 C 0.50079 0.15249 0.88604 0.0
H932 H 0.86962 0.54102 0.81806 0.0
H933 H 0.84978 0.44506 0.83314 0.0
H934 H 0.87537 0.44691 0.8837 0.0
H935 H 0.9054 0.47556 0.92245 0.0
H936 H 0.92563 0.57133 0.90714 0.0
H937 H 0.89725 0.57031 0.85817 0.0
C938 C 0.87124 0.52054 0.8324 0.0
C939 C 0.85849 0.49282 0.82193 0.0
C940 C 0.88539 0.522 0.86159 0.0
C941 C 0.85993 0.46649 0.84079 0.0
C942 C 0.8743 0.46762 0.86969 0.0
C943 C 0.9025 0.49638 0.90888 0.0
C944 C 0.91655 0.52371 0.91858 0.0
C945 C 0.88709 0.49526 0.88034 0.0
C946 C 0.91411 0.55032 0.90029 0.0
C947 C 0.89833 0.5496 0.87216 0.0
H948 H 0.72488 0.64245 0.99281 0.0
H949 H 0.69007 0.70824 0.05861 0.0
H950 H 0.64156 0.68022 0.06129 0.0
H951 H 0.60911 0.6357 0.04556 0.0
H952 H 0.64512 0.57079 0.9793 0.0
H953 H 0.69251 0.59976 0.97592 0.0
C954 C 0.70679 0.65047 0.00797 0.0
C955 C 0.71124 0.67718 0.02571 0.0
C956 C 0.67886 0.63449 0.00909 0.0
C957 C 0.68725 0.68766 0.04474 0.0
C958 C 0.65946 0.67167 0.04624 0.0
C959 C 0.62719 0.6283 0.03008 0.0
C960 C 0.6236 0.60105 0.01283 0.0
C961 C 0.65491 0.64499 0.02848 0.0
C962 C 0.64738 0.59155 0.99305 0.0
C963 C 0.67459 0.60805 0.99112 0.0
H964 H 0.33851 0.67527 0.98952 0.0
H965 H 0.37966 0.7226 0.06684 0.0
H966 H 0.41786 0.68206 0.07166 0.0
H967 H 0.44198 0.63503 0.05124 0.0
H968 H 0.39951 0.58673 0.97529 0.0
H969 H 0.35955 0.6257 0.97249 0.0
C970 C 0.3553 0.67625 0.00795 0.0
C971 C 0.35639 0.70196 0.02764 0.0
C972 C 0.37738 0.65299 0.01042 0.0
C973 C 0.37855 0.7031 0.05123 0.0
C974 C 0.4005 0.68004 0.05389 0.0
C975 C 0.42397 0.63318 0.03409 0.0
C976 C 0.42382 0.6084 0.01325 0.0
C977 C 0.40066 0.65532 0.03305 0.0
C978 C 0.40009 0.60577 0.99151 0.0
C979 C 0.37721 0.62798 0.98992 0.0
H980 H 0.33242 0.34667 0.98836 0.0
H981 H 0.38981 0.28881 0.04501 0.0
H982 H 0.42737 0.32997 0.04911 0.0
H983 H 0.44594 0.38016 0.03238 0.0
H984 H 0.38767 0.44049 0.97992 0.0
H985 H 0.34831 0.40036 0.97795 0.0
C986 C 0.35278 0.34338 1.00223 0.0
C987 C 0.3587 0.31455 0.01576 0.0
C988 C 0.37428 0.36725 0.00466 0.0
C989 C 0.38514 0.31059 0.03374 0.0
C990 C 0.40663 0.33405 0.03608 0.0
C991 C 0.42451 0.38469 0.02092 0.0
C992 C 0.41977 0.41301 0.00619 0.0
C993 C 0.40184 0.36206 0.02082 0.0
C994 C 0.39182 0.41869 0.99136 0.0
C995 C 0.36935 0.39582 0.99028 0.0
H996 H 0.68633 0.32311 1.00108 0.0
H997 H 0.74033 0.3844 0.05765 0.0
H998 H 0.69776 0.42015 0.06098 0.0
H999 H 0.64634 0.43529 0.04587 0.0
H1000 H 0.59118 0.37407 0.99053 0.0
H1001 H 0.63287 0.33664 0.98931 0.0
C1002 C 0.68863 0.34406 0.01452 0.0
C1003 C 0.71672 0.35126 0.02865 0.0
C1004 C 0.66389 0.36453 0.01655 0.0
C1005 C 0.71928 0.3786 0.04589 0.0
C1006 C 0.69488 0.39901 0.04798 0.0
C1007 C 0.64336 0.41373 0.03356 0.0
C1008 C 0.61585 0.40764 0.01797 0.0
C1009 C 0.66731 0.39245 0.03296 0.0
C1010 C 0.61215 0.37933 1.00269 0.0
C1011 C 0.63603 0.35799 1.00188 0.0
H1012 H 0.99834 0.67316 0.69193 0.0
H1013 H 0.07893 0.71507 0.65251 0.0
H1014 H 0.08309 0.67321 0.61495 0.0
H1015 H 0.06082 0.6273 0.59029 0.0
H1016 H 0.98213 0.58393 0.63168 0.0
H1017 H 0.98014 0.62383 0.67171 0.0
C1018 C 0.01737 0.67265 0.67581 0.0
C1019 C 0.03806 0.69732 0.67471 0.0
C1020 C 0.01954 0.64865 0.65427 0.0
C1021 C 0.06246 0.69647 0.65345 0.0
C1022 C 0.06478 0.67267 0.6319 0.0
C1023 C 0.04332 0.62676 0.60815 0.0
C1024 C 0.02127 0.60343 0.60797 0.0
C1025 C 0.04284 0.64922 0.63145 0.0
C1026 C 0.99908 0.60212 0.63145 0.0
C1027 C 0.99801 0.62478 0.6543 0.0
H1028 H 0.384 0.01871 0.724 0.0
H1029 H 0.30568 0.98255 0.67565 0.0
H1030 H 0.33552 0.9802 0.62739 0.0
H1031 H 0.38517 0.98689 0.59942 0.0
H1032 H 0.46333 0.018 0.65199 0.0
H1033 H 0.43234 0.02315 0.69793 0.0
C1034 C 0.37341 0.00965 0.70318 0.0
C1035 C 0.34274 1.00031 0.70377 0.0
C1036 C 0.39079 0.00743 0.67604 0.0
C1037 C 0.32928 0.98994 0.67598 0.0
C1038 C 0.34639 0.98842 0.64839 0.0
C1039 C 0.39531 0.99484 0.62092 0.0
C1040 C 0.42661 1.00236 0.62185 0.0
C1041 C 0.37736 0.99691 0.64817 0.0
C1042 C 0.43938 0.01229 0.65013 0.0
C1043 C 0.42167 0.01522 0.67669 0.0
H1044 H 0.0361 0.36744 0.71708 0.0
H1045 H 0.95761 0.31767 0.68378 0.0
H1046 H 0.96123 0.34438 0.63366 0.0
H1047 H 0.9856 0.38407 0.60028 0.0
H1048 H 0.06325 0.43418 0.6353 0.0
H1049 H 0.06137 0.40493 0.68363 0.0
C1050 C 0.01964 0.36264 0.69892 0.0
C1051 C 0.99642 0.34099 0.70417 0.0
C1052 C 0.02194 0.37792 0.67038 0.0
C1053 C 0.97566 0.33437 0.68023 0.0
C1054 C 0.97774 0.3496 0.65161 0.0
C1055 C 1.00243 0.38798 0.6183 0.0
C1056 C 0.0246 0.41103 0.61436 0.0
C1057 C 1.00073 0.37157 0.64646 0.0
C1058 C 0.04601 0.41645 0.63796 0.0
C1059 C 0.04486 0.39989 0.66562 0.0
H1060 H 0.72044 0.03559 0.64443 0.0
H1061 H 0.68799 0.96708 0.70907 0.0
H1062 H 0.63859 0.96563 0.68253 0.0
H1063 H 0.60583 0.98164 0.63845 0.0
H1064 H 0.64004 0.04919 0.57355 0.0
H1065 H 0.68735 0.05343 0.60274 0.0
C1066 C 0.70258 0.02025 0.6526 0.0
C1067 C 0.7079 1.00119 0.67831 0.0
C1068 C 0.67449 0.01947 0.63723 0.0
C1069 C 0.68436 0.98194 0.68919 0.0
C1070 C 0.65617 0.98107 0.67403 0.0
C1071 C 0.62349 0.99763 0.63118 0.0
C1072 C 0.61966 0.01493 0.6039 0.0
C1073 C 0.65107 0.9995 0.64776 0.0
C1074 C 0.6427 0.03543 0.59439 0.0
C1075 C 0.66977 0.03785 0.61099 0.0
H1076 H 0.98689 0.33542 0.32782 0.0
H1077 H 0.06687 0.29193 0.36613 0.0
H1078 H 0.07097 0.33219 0.40518 0.0
H1079 H 0.05048 0.37853 0.43033 0.0
H1080 H 0.97351 0.42483 0.38974 0.0
H1081 H 0.96959 0.38494 0.34973 0.0
C1082 C 1.00559 0.33509 0.34426 0.0
C1083 C 0.02616 0.31027 0.34432 0.0
C1084 C 1.00812 0.35866 0.36656 0.0
C1085 C 0.05024 0.31032 0.36595 0.0
C1086 C 0.05267 0.33337 0.38833 0.0
C1087 C 0.03285 0.37972 0.41272 0.0
C1088 C 0.012 0.40413 0.41312 0.0
C1089 C 0.03137 0.35728 0.3893 0.0
C1090 C 0.98965 0.40602 0.38987 0.0
C1091 C 0.98746 0.38327 0.36701 0.0
H1092 H 0.69773 0.99391 0.34392 0.0
H1093 H 0.64158 0.05511 0.28975 0.0
H1094 H 0.60218 0.05391 0.32978 0.0
H1095 H 0.5829 0.03421 0.37952 0.0
H1096 H 0.63981 0.97507 0.43506 0.0
H1097 H 0.6796 0.97656 0.39522 0.0
C1098 C 0.67707 0.00732 0.34119 0.0
C1099 C 0.67237 0.02422 0.31385 0.0
C1100 C 0.65448 0.00658 0.36433 0.0
C1101 C 0.64546 0.04148 0.31046 0.0
C1102 C 0.62291 0.04082 0.33329 0.0
C1103 C 0.60393 0.0215 0.38268 0.0
C1104 C 0.60842 1.00435 0.40984 0.0
C1105 C 0.62695 0.02305 0.36007 0.0
C1106 C 0.63595 0.98842 0.41415 0.0
C1107 C 0.6587 0.9893 0.39147 0.0
H1108 H 0.05131 0.65246 0.31221 0.0
H1109 H 0.97674 0.70709 0.34744 0.0
H1110 H 0.97562 0.67601 0.39478 0.0
H1111 H 0.99299 0.63024 0.42428 0.0
H1112 H 0.06264 0.57225 0.3849 0.0
H1113 H 0.068 0.60719 0.34072 0.0
C1114 C 0.03449 0.65749 0.32999 0.0
C1115 C 0.01392 0.68198 0.32586 0.0
C1116 C 0.03291 0.63862 0.35636 0.0
C1117 C 0.99311 0.68864 0.34988 0.0
C1118 C 0.99221 0.67064 0.3769 0.0
C1119 C 1.00944 0.62554 0.40609 0.0
C1120 C 0.02739 0.59883 0.40766 0.0
C1121 C 0.0116 0.64517 0.38012 0.0
C1122 C 0.04848 0.59264 0.38394 0.0
C1123 C 0.05159 0.6126 0.35876 0.0
H1124 H 0.33209 0.01401 0.34546 0.0
H1125 H 0.38959 0.95114 0.29447 0.0
H1126 H 0.42373 0.94718 0.33874 0.0
H1127 H 0.43949 0.96452 0.39022 0.0
H1128 H 0.38132 0.02477 0.44302 0.0
H1129 H 0.34469 0.02619 0.40004 0.0
C1130 C 0.35174 0.99898 0.34422 0.0
C1131 C 0.35863 0.98357 0.3163 0.0
C1132 C 0.37118 0.99637 0.37004 0.0
C1133 C 0.38423 0.96411 0.31523 0.0
C1134 C 0.4037 0.96162 0.34062 0.0
C1135 C 0.41863 0.97773 0.39238 0.0
C1136 C 0.41321 0.99491 0.4194 0.0
C1137 C 0.3978 0.97823 0.3678 0.0
C1138 C 0.38592 0.01146 0.42233 0.0
C1139 C 0.36511 0.01237 0.39771 0.0
H1140 H 0.99025 0.21281 0.3742 0.0
H1141 H 0.04774 0.17255 0.30399 0.0
H1142 H 0.04999 0.1244 0.33399 0.0
H1143 H 0.03799 0.09503 0.38245 0.0
H1144 H 0.98116 0.13775 0.45217 0.0
H1145 H 0.97643 0.1835 0.42022 0.0
C1146 C 1.00338 0.19353 0.36547 0.0
C1147 C 0.01921 0.1964 0.3372 0.0
C1148 C 1.00479 0.16633 0.38289 0.0
C1149 C 0.03543 0.17093 0.32577 0.0
C1150 C 0.0368 0.14347 0.34299 0.0
C1151 C 0.02435 0.11426 0.39041 0.0
C1152 C 0.01031 0.11303 0.41991 0.0
C1153 C 0.02191 0.14104 0.3719 0.0
C1154 C 0.99269 0.13817 0.42987 0.0
C1155 C 0.98985 0.16441 0.41157 0.0
H1156 H 0.88174 1.00257 0.30607 0.0
H1157 H 0.80709 0.0351 0.36227 0.0
H1158 H 0.83781 0.02806 0.40933 0.0
H1159 H 0.88813 0.01736 0.43393 0.0
H1160 H 0.96253 0.98688 0.37579 0.0
H1161 H 0.92983 0.98846 0.33043 0.0
C1162 C 0.8721 0.00798 0.32864 0.0
C1163 C 0.84229 0.0197 0.33056 0.0
C1164 C 0.89004 1.00449 0.35538 0.0
C1165 C 0.82995 0.02596 0.36009 0.0
C1166 C 0.84762 0.02217 0.387 0.0
C1167 C 0.89699 0.01068 0.4114 0.0
C1168 C 0.92793 1.00233 0.40838 0.0
C1169 C 0.87802 0.01214 0.38489 0.0
C1170 C 0.93901 0.99379 0.37891 0.0
C1171 C 0.92029 0.99464 0.35282 0.0
H1172 H 0.03757 0.8335 0.33223 0.0
H1173 H 0.95523 0.87844 0.301 0.0
H1174 H 0.95966 0.91586 0.34241 0.0
H1175 H 0.98631 0.9361 0.38779 0.0
H1176 H 0.06503 0.88885 0.42345 0.0
H1177 H 0.06224 0.8517 0.38054 0.0
C1178 C 0.02034 0.85117 0.33463 0.0
C1179 C 0.99651 0.85331 0.31272 0.0
C1180 C 0.02231 0.87226 0.35942 0.0
C1181 C 0.97452 0.87664 0.31653 0.0
C1182 C 0.97678 0.898 0.34051 0.0
C1183 C 1.00295 0.91777 0.38598 0.0
C1184 C 0.02608 0.91537 0.4083 0.0
C1185 C 1.00064 0.89617 0.36193 0.0
C1186 C 0.04709 0.89111 0.40633 0.0
C1187 C 0.04548 0.86995 0.38183 0.0
H1188 H 0.166 0.96989 0.31813 0.0
H1189 H 0.21858 0.05172 0.33655 0.0
H1190 H 0.19023 0.05963 0.38515 0.0
H1191 H 0.14752 0.04477 0.42073 0.0
H1192 H 0.09454 0.96381 0.39937 0.0
H1193 H 0.12594 0.95403 0.35374 0.0
C1194 C 0.17116 0.9896 0.33265 0.0
C1195 C 0.19397 0.01046 0.32348 0.0
C1196 C 0.15466 0.9941 0.36014 0.0
C1197 C 0.20101 0.03537 0.34305 0.0
C1198 C 0.18475 0.03993 0.37078 0.0
C1199 C 0.14334 0.0248 0.40626 0.0
C1200 C 0.11883 1.00503 0.41321 0.0
C1201 C 0.16118 0.01965 0.3794 0.0
C1202 C 0.11328 0.97936 0.39426 0.0
C1203 C 0.13114 0.97378 0.36816 0.0
H1204 H 0.04116 0.83935 0.6975 0.0
H1205 H 0.99076 0.78203 0.63389 0.0
H1206 H 0.98981 0.8234 0.59568 0.0
H1207 H 1.0056 0.8746 0.57929 0.0
H1208 H 0.05356 0.93381 0.64284 0.0
H1209 H 0.05358 0.89295 0.68212 0.0
C1210 C 0.02961 0.83626 0.67546 0.0
C1211 C 0.01647 0.80772 0.66821 0.0
C1212 C 0.02919 0.8602 0.65348 0.0
C1213 C 1.00145 0.80379 0.63965 0.0
C1214 C 1.00095 0.82733 0.6178 0.0
C1215 C 0.0161 0.8785 0.60166 0.0
C1216 C 0.02981 0.90686 0.60807 0.0
C1217 C 0.0153 0.85534 0.62421 0.0
C1218 C 0.04295 0.91194 0.6374 0.0
C1219 C 0.0429 0.88867 0.65985 0.0
H1220 H 0.20675 0.03228 0.6791 0.0
H1221 H 0.13711 0.01476 0.74783 0.0
H1222 H 0.09946 0.00692 0.70681 0.0
H1223 H 0.08589 0.00706 0.65164 0.0
H1224 H 0.15545 0.02536 0.58273 0.0
H1225 H 0.19346 0.03062 0.62359 0.0
C1226 C 0.18343 0.0263 0.68505 0.0
C1227 C 0.17472 0.02419 0.71646 0.0
C1228 C 0.1618 0.02216 0.66133 0.0
C1229 C 0.14431 0.01682 0.72383 0.0
C1230 C 0.12279 0.0123 0.70039 0.0
C1231 C 0.10934 0.01216 0.64543 0.0
C1232 C 0.11757 0.01594 0.614 0.0
C1233 C 0.13117 0.01533 0.66907 0.0
C1234 C 0.14825 0.02235 0.60663 0.0
C1235 C 0.17011 0.02539 0.63002 0.0
H1236 H 0.9685 0.14429 0.71357 0.0
H1237 H 0.04673 0.20124 0.69291 0.0
H1238 H 0.0551 0.17286 0.64463 0.0
H1239 H 0.04128 0.13004 0.60905 0.0
H1240 H 0.96546 0.07121 0.63289 0.0
H1241 H 0.95518 0.10195 0.67914 0.0
C1242 C 0.98769 0.15031 0.69882 0.0
C1243 C 1.00701 0.17482 0.70713 0.0
C1244 C 0.99273 0.13355 0.67148 0.0
C1245 C 0.03125 0.18269 0.68709 0.0
C1246 C 0.03616 0.16636 0.65948 0.0
C1247 C 0.02234 0.12434 0.62427 0.0
C1248 C 1.00402 0.09861 0.61767 0.0
C1249 C 0.01712 0.14162 0.65147 0.0
C1250 C 0.97981 0.09099 0.63766 0.0
C1251 C 0.97397 0.10848 0.6641 0.0
H1252 H 0.85167 0.97845 0.6965 0.0
H1253 H 0.79812 0.03733 0.63698 0.0
H1254 H 0.8398 0.04032 0.59997 0.0
H1255 H 0.89085 0.02533 0.58308 0.0
H1256 H 0.94693 0.96983 0.64306 0.0
H1257 H 0.9053 0.96679 0.68119 0.0
C1258 C 0.84925 0.9922 0.67563 0.0
C1259 C 0.82121 0.00689 0.66935 0.0
C1260 C 0.87382 0.99439 0.6543 0.0
C1261 C 0.81884 0.02482 0.64213 0.0
C1262 C 0.84282 0.02678 0.6209 0.0
C1263 C 0.89397 0.01247 0.60446 0.0
C1264 C 0.92182 0.99746 0.60997 0.0
C1265 C 0.87021 0.01131 0.62645 0.0
C1266 C 0.92568 0.98152 0.63816 0.0
C1267 C 0.90184 0.97974 0.65996 0.0
H1268 H 0.33565 0.03373 0.18045 0.0
H1269 H 0.37755 0.95047 0.21441 0.0
H1270 H 0.40888 0.94731 0.16782 0.0
H1271 H 0.42744 0.9702 0.11965 0.0
H1272 H 0.38755 0.05354 0.08469 0.0
H1273 H 0.35168 0.05441 0.1288 0.0
C1274 C 0.35133 0.01473 0.17734 0.0
C1275 C 0.35472 0.9927 0.20113 0.0
C1276 C 0.36956 0.01309 0.15034 0.0
C1277 C 0.37504 0.96809 0.19677 0.0
C1278 C 0.39287 0.96616 0.17008 0.0
C1279 C 0.41072 0.98838 0.1217 0.0
C1280 C 0.4102 0.01189 0.09948 0.0
C1281 C 0.39084 0.98888 0.14714 0.0
C1282 C 0.38815 0.03513 0.10166 0.0
C1283 C 0.36788 0.03572 0.12697 0.0
H1284 H 0.03354 0.32527 0.18188 0.0
H1285 H 0.93914 0.31071 0.1574 0.0
H1286 H 0.94216 0.35146 0.11889 0.0
H1287 H 0.97146 0.39105 0.09111 0.0
H1288 H 0.064 0.41002 0.11826 0.0
H1289 H 0.06197 0.36804 0.15652 0.0
C1290 C 0.01355 0.33126 0.16842 0.0
C1291 C 0.98639 0.3142 0.17218 0.0
C1292 C 0.01518 0.35542 0.14644 0.0
C1293 C 0.96069 0.3226 0.15447 0.0
C1294 C 0.96228 0.34609 0.13244 0.0
C1295 C 0.99121 0.38572 0.10527 0.0
C1296 C 0.018 0.40301 0.10161 0.0
C1297 C 0.98947 0.36238 0.12788 0.0
C1298 C 0.04324 0.39663 0.12057 0.0
C1299 C 0.04202 0.37274 0.14248 0.0
H1300 H 0.65195 0.05027 0.21405 0.0
H1301 H 0.71701 0.98449 0.17927 0.0
H1302 H 0.68691 0.97894 0.13142 0.0
H1303 H 0.63922 0.98961 0.10182 0.0
H1304 H 0.57276 0.05174 0.14095 0.0
H1305 H 0.60589 0.06124 0.1852 0.0
C1306 C 0.65959 0.03458 0.19606 0.0
C1307 C 0.68637 0.01737 0.20047 0.0
C1308 C 0.64157 0.03048 0.16965 0.0
C1309 C 0.69645 0.99797 0.17648 0.0
C1310 C 0.67907 0.99458 0.1493 0.0
C1311 C 0.63213 1.00525 0.12006 0.0
C1312 C 0.60339 0.01965 0.11834 0.0
C1313 C 0.65113 0.01014 0.146 0.0
C1314 C 0.59447 0.03992 0.14203 0.0
C1315 C 0.61349 0.04556 0.16723 0.0
H1316 H 0.99355 0.64065 0.22705 0.0
H1317 H 0.04727 0.71273 0.1846 0.0
H1318 H 0.05141 0.68235 0.13699 0.0
H1319 H 0.04058 0.63447 0.10768 0.0
H1320 H 0.98996 0.56158 0.15264 0.0
H1321 H 0.98454 0.59285 0.19918 0.0
C1322 C 1.00668 0.64964 0.20768 0.0
C1323 C 0.02019 0.67898 0.20968 0.0
C1324 C 0.00966 0.63177 0.18075 0.0
C1325 C 0.03629 0.69041 0.18376 0.0
C1326 C 0.03887 0.67294 0.15654 0.0
C1327 C 0.02835 0.62552 0.12768 0.0
C1328 C 0.01579 0.59569 0.12669 0.0
C1329 C 0.02569 0.64351 0.15478 0.0
C1330 C 1.00016 0.58431 0.15286 0.0
C1331 C 0.99691 0.60223 0.17949 0.0
H1332 H 0.38521 0.0209 0.79743 0.0
H1333 H 0.3107 0.98068 0.84915 0.0
H1334 H 0.34214 0.98041 0.89617 0.0
H1335 H 0.39154 0.99086 0.92234 0.0
H1336 H 0.46591 0.02899 0.86859 0.0
H1337 H 0.43389 0.03017 0.8226 0.0
C1338 C 0.37586 0.01152 0.81879 0.0
C1339 C 0.34564 1.00049 0.8195 0.0
C1340 C 0.39413 0.011 0.84548 0.0
C1341 C 0.3338 0.98944 0.84782 0.0
C1342 C 0.35184 0.98915 0.87472 0.0
C1343 C 0.40067 0.99949 0.90058 0.0
C1344 C 0.4312 0.0097 0.89902 0.0
C1345 C 0.38212 0.99984 0.87382 0.0
C1346 C 0.44267 0.02067 0.87053 0.0
C1347 C 0.42433 0.02147 0.84414 0.0
H1348 H 0.02887 0.38105 0.80059 0.0
H1349 H 0.97626 0.31132 0.84834 0.0
H1350 H 0.97747 0.34195 0.89575 0.0
H1351 H 0.99112 0.38996 0.92314 0.0
H1352 H 0.03947 0.46133 0.87346 0.0
H1353 H 0.04137 0.42904 0.82719 0.0
C1354 C 0.01724 0.37257 0.82113 0.0
C1355 C 1.00237 0.34377 0.8205 0.0
C1356 C 0.01698 0.39083 0.84805 0.0
C1357 C 0.98832 0.33308 0.84796 0.0
C1358 C 0.98871 0.35077 0.87512 0.0
C1359 C 1.00218 0.39835 0.90221 0.0
C1360 C 0.01507 0.42806 0.90177 0.0
C1361 C 1.00268 0.37985 0.87536 0.0
C1362 C 0.0291 0.4387 0.87438 0.0
C1363 C 0.03032 0.42019 0.84791 0.0
H1364 H 0.72266 0.04188 0.87535 0.0
H1365 H 0.69731 0.9624 0.82104 0.0
H1366 H 0.64962 0.95812 0.85012 0.0
H1367 H 0.61522 0.97627 0.89236 0.0
H1368 H 0.64391 0.05253 0.94928 0.0
H1369 H 0.69019 0.05837 0.91821 0.0
C1370 C 0.70713 0.02318 0.87008 0.0
C1371 C 0.71398 1.00254 0.8458 0.0
C1372 C 0.68008 0.02028 0.88748 0.0
C1373 C 0.69276 0.97905 0.83912 0.0
C1374 C 0.66543 0.97642 0.85594 0.0
C1375 C 0.63158 0.99425 0.89769 0.0
C1376 C 0.62613 0.01407 0.92295 0.0
C1377 C 0.65879 0.99691 0.88022 0.0
C1378 C 0.64766 0.03699 0.92998 0.0
C1379 C 0.67413 0.04033 0.91223 0.0
H1380 H 0.99558 0.72429 0.88156 0.0
H1381 H 0.99965 0.66553 0.80094 0.0
H1382 H 1.0082 0.62083 0.83413 0.0
H1383 H 0.01238 0.59807 0.88613 0.0
H1384 H 1.00739 0.65699 0.9668 0.0
H1385 H 1.00115 0.70173 0.93349 0.0
C1386 C 0.99829 0.70169 0.87128 0.0
C1387 C 0.99697 0.69829 0.83885 0.0
C1388 C 1.00289 0.67601 0.8905 0.0
C1389 C 1.00095 0.66889 0.82584 0.0
C1390 C 1.00562 0.64325 0.84481 0.0
C1391 C 0.00999 0.62067 0.89649 0.0
C1392 C 0.01024 0.62394 0.92901 0.0
C1393 C 1.00633 0.64648 0.87719 0.0
C1394 C 1.00731 0.65357 0.94188 0.0
C1395 C 1.00368 0.67929 0.92284 0.0
H1396 H 0.15797 0.31156 0.03319 0.0
H1397 H 0.21945 0.34792 0.96385 0.0
H1398 H 0.18958 0.39548 0.96162 0.0
H1399 H 0.14347 0.42575 0.97727 0.0
H1400 H 0.08097 0.38594 0.04373 0.0
H1401 H 0.11335 0.34083 0.04871 0.0
C1402 C 0.1648 0.32962 0.01722 0.0
C1403 C 0.19087 0.32565 0.99841 0.0
C1404 C 0.14707 0.35647 0.01541 0.0
C1405 C 0.19967 0.35009 0.97876 0.0
C1406 C 0.18241 0.37732 0.97731 0.0
C1407 C 0.13719 0.40726 0.99297 0.0
C1408 C 0.10969 0.40918 0.00997 0.0
C1409 C 0.15575 0.38066 0.99524 0.0
C1410 C 0.10177 0.38494 0.03012 0.0
C1411 C 0.12033 0.3591 0.03305 0.0
H1412 H 0.21256 0.66582 0.99607 0.0
H1413 H 0.15017 0.73852 0.01985 0.0
H1414 H 0.10976 0.70085 0.0296 0.0
H1415 H 0.09075 0.64748 0.02711 0.0
H1416 H 0.1532 0.57476 1.00234 0.0
H1417 H 0.19446 0.61191 0.99736 0.0
C1418 C 0.19033 0.6733 0.00411 0.0
C1419 C 0.18445 0.70497 0.00726 0.0
C1420 C 0.16686 0.65145 0.00902 0.0
C1421 C 0.1553 0.71429 0.01722 0.0
C1422 C 0.1321 0.69275 0.02264 0.0
C1423 C 0.11338 0.63964 0.02081 0.0
C1424 C 0.11842 0.60814 0.01487 0.0
C1425 C 0.13734 0.66128 0.01785 0.0
C1426 C 0.14821 0.59871 0.00695 0.0
C1427 C 0.17204 0.62002 0.00408 0.0
H1428 H 0.33179 0.17685 0.01657 0.0
H1429 H 0.3838 0.22832 0.94909 0.0
H1430 H 0.42148 0.18715 0.94631 0.0
H1431 H 0.44238 0.13856 0.96679 0.0
H1432 H 0.38936 0.0855 0.0321 0.0
H1433 H 0.34968 0.12501 0.03221 0.0
C1434 C 0.35087 0.17857 1.00058 0.0
C1435 C 0.35505 0.20572 0.98321 0.0
C1436 C 0.37275 0.15479 0.99928 0.0
C1437 C 0.38013 0.20772 0.96281 0.0
C1438 C 0.40185 0.18429 0.96139 0.0
C1439 C 0.42209 0.13569 0.98095 0.0
C1440 C 0.41902 0.10942 0.99976 0.0
C1441 C 0.39894 0.15815 0.98026 0.0
C1442 C 0.39232 0.10564 0.01754 0.0
C1443 C 0.36958 0.12821 0.01758 0.0
H1444 H 0.81328 0.37672 0.98108 0.0
H1445 H 0.85289 0.30736 0.04024 0.0
H1446 H 0.90159 0.33489 0.03956 0.0
H1447 H 0.93148 0.38185 0.02655 0.0
H1448 H 0.88908 0.4529 0.97168 0.0
H1449 H 0.84314 0.42181 0.96647 0.0
C1450 C 0.83251 0.36758 0.99389 0.0
C1451 C 0.82918 0.34016 0.01096 0.0
C1452 C 0.86006 0.38404 0.99433 0.0
C1453 C 0.85473 0.32831 0.0267 0.0
C1454 C 0.88257 0.3442 0.02657 0.0
C1455 C 0.91232 0.39016 0.01307 0.0
C1456 C 0.91363 0.41959 0.99949 0.0
C1457 C 0.88533 0.37251 0.01107 0.0
C1458 C 0.88855 0.43034 0.98237 0.0
C1459 C 0.86223 0.41261 0.97943 0.0
H1460 H 0.67599 0.81816 1.0004 0.0
H1461 H 0.7432 0.88568 0.02694 0.0
H1462 H 0.70321 0.92385 0.03491 0.0
H1463 H 0.64971 0.9394 0.03045 0.0
H1464 H 0.582 0.8724 1.00337 0.0
H1465 H 0.62138 0.83293 0.99976 0.0
C1466 C 0.68175 0.84105 0.00854 0.0
C1467 C 0.7126 0.84908 0.01289 0.0
C1468 C 0.65854 0.86319 0.01262 0.0
C1469 C 0.71969 0.87896 0.02317 0.0
C1470 C 0.69682 0.90085 0.02766 0.0
C1471 C 0.64342 0.91616 0.02389 0.0
C1472 C 0.61278 0.90917 0.01693 0.0
C1473 C 0.66624 0.89348 0.02173 0.0
C1474 C 0.60529 0.87868 0.00884 0.0
C1475 C 0.62787 0.85599 0.0067 0.0
H1476 H 0.81697 0.651 0.05806 0.0
H1477 H 0.84467 0.70832 0.9811 0.0
H1478 H 0.89386 0.68216 0.97897 0.0
H1479 H 0.92832 0.64019 0.99671 0.0
H1480 H 0.89925 0.58201 0.07233 0.0
H1481 H 0.85199 0.61116 0.07733 0.0
C1482 C 0.8337 0.65779 0.04076 0.0
C1483 C 0.82677 0.68174 0.01979 0.0
C1484 C 0.86208 0.64244 0.03948 0.0
C1485 C 0.8492 0.69031 0.99786 0.0
C1486 C 0.87745 0.6752 0.99649 0.0
C1487 C 0.91194 0.63447 0.01474 0.0
C1488 C 0.91752 0.6091 0.03435 0.0
C1489 C 0.88414 0.651 0.017 0.0
C1490 C 0.89566 0.60153 0.0571 0.0
C1491 C 0.86847 0.61809 0.05984 0.0
H1492 H 0.33024 0.84447 0.02626 0.0
H1493 H 0.38979 0.78634 0.97235 0.0
H1494 H 0.42634 0.82823 0.96681 0.0
H1495 H 0.44356 0.88004 0.98056 0.0
H1496 H 0.384 0.93992 0.03222 0.0
H1497 H 0.34546 0.89903 0.0353 0.0
C1498 C 0.35096 0.84124 0.01287 0.0
C1499 C 0.35751 0.81209 1.00027 0.0
C1500 C 0.37214 0.86566 0.0097 0.0
C1501 C 0.38445 0.80833 0.98283 0.0
C1502 C 0.40543 0.83228 0.97964 0.0
C1503 C 0.42208 0.88417 0.99238 0.0
C1504 C 0.41681 0.9128 0.00646 0.0
C1505 C 0.39992 0.86077 0.99364 0.0
C1506 C 0.38863 0.91802 0.02121 0.0
C1507 C 0.36661 0.89461 0.02304 0.0
H1508 H 0.70755 0.15539 0.06079 0.0
H1509 H 0.69074 0.20524 0.97587 0.0
H1510 H 0.64326 0.17634 0.96828 0.0
H1511 H 0.60837 0.13374 0.98409 0.0
H1512 H 0.62838 0.0825 0.06744 0.0
H1513 H 0.67272 0.11492 0.07728 0.0
C1514 C 0.69366 0.15984 0.04046 0.0
C1515 C 0.70298 0.18213 0.01872 0.0
C1516 C 0.66689 0.14279 0.03597 0.0
C1517 C 0.68414 0.18822 0.99302 0.0
C1518 C 0.65704 0.17158 0.98859 0.0
C1519 C 0.62227 0.13013 0.00457 0.0
C1520 C 0.6153 0.10581 0.025 0.0
C1521 C 0.64839 0.14843 0.00968 0.0
C1522 C 0.63353 0.101 0.05133 0.0
C1523 C 0.65887 0.11949 0.05696 0.0
H1524 H 0.5376 0.6825 0.83419 0.0
H1525 H 0.45385 0.71659 0.87396 0.0
H1526 H 0.45463 0.67576 0.91291 0.0
H1527 H 0.48077 0.6321 0.93775 0.0
H1528 H 0.56249 0.59581 0.89617 0.0
H1529 H 0.561 0.63569 0.85593 0.0
C1530 C 0.51914 0.68054 0.85088 0.0
C1531 C 0.49593 0.70282 0.85137 0.0
C1532 C 0.51969 0.65694 0.87327 0.0
C1533 C 0.47226 0.70002 0.87337 0.0
C1534 C 0.47271 0.67674 0.89572 0.0
C1535 C 0.49827 0.63315 0.91991 0.0
C1536 C 0.52202 0.61161 0.92007 0.0
C1537 C 0.49671 0.65555 0.89639 0.0
C1538 C 0.54418 0.61247 0.8965 0.0
C1539 C 0.54326 0.63516 0.87349 0.0
H1540 H 0.38939 0.51033 0.80189 0.0
H1541 H 0.31004 0.53491 0.85554 0.0
H1542 H 0.33948 0.53038 0.90364 0.0
H1543 H 0.38919 0.52254 0.93036 0.0
H1544 H 0.46779 0.49793 0.87496 0.0
H1545 H 0.43738 0.49961 0.82821 0.0
C1546 C 0.3785 0.51466 0.82411 0.0
C1547 C 0.34762 0.52315 0.825 0.0
C1548 C 0.39558 0.51227 0.85159 0.0
C1549 C 0.33376 0.52813 0.85411 0.0
C1550 C 0.35065 0.52576 0.88166 0.0
C1551 C 0.39957 0.51732 0.90811 0.0
C1552 C 0.431 0.51066 0.90649 0.0
C1553 C 0.38179 0.51828 0.88071 0.0
C1554 C 0.44389 0.50377 0.87725 0.0
C1555 C 0.42647 0.50458 0.85026 0.0
H1556 H 0.51915 0.37695 0.80243 0.0
H1557 H 0.49827 0.29692 0.85769 0.0
H1558 H 0.50525 0.32687 0.90544 0.0
H1559 H 0.51378 0.37718 0.9312 0.0
H1560 H 0.53533 0.4564 0.87421 0.0
H1561 H 0.53162 0.42544 0.8278 0.0
C1562 C 0.51631 0.36608 0.82497 0.0
C1563 C 0.50796 0.33498 0.82664 0.0
C1564 C 0.52028 0.38336 0.85211 0.0
C1565 C 0.50479 0.32092 0.85591 0.0
C1566 C 0.50861 0.33806 0.88317 0.0
C1567 C 0.51796 0.38758 0.90868 0.0
C1568 C 0.52435 0.41929 0.9065 0.0
C1569 C 0.51585 0.36952 0.88156 0.0
C1570 C 0.52991 0.43223 0.87694 0.0
C1571 C 0.52786 0.41452 0.85015 0.0
H1572 H 0.66455 0.52319 0.81526 0.0
H1573 H 0.72492 0.45791 0.85824 0.0
H1574 H 0.69726 0.46293 0.90765 0.0
H1575 H 0.65244 0.4827 0.93715 0.0
H1576 H 0.59371 0.54915 0.89302 0.0
H1577 H 0.62436 0.54742 0.84609 0.0
C1578 C 0.67173 0.51031 0.83558 0.0
C1579 C 0.69631 0.48996 0.8332 0.0
C1580 C 0.65599 0.51358 0.86381 0.0
C1581 C 0.70584 0.47365 0.85967 0.0
C1582 C 0.69003 0.47649 0.88786 0.0
C1583 C 0.64689 0.49729 0.91751 0.0
C1584 C 0.62054 0.51566 0.91847 0.0
C1585 C 0.66462 0.49599 0.89009 0.0
C1586 C 0.6136 0.53444 0.89277 0.0
C1587 C 0.63107 0.53344 0.86579 0.0
H1588 H 0.48193 0.30223 0.14912 0.0
H1589 H 0.5477 0.33438 0.216 0.0
H1590 H 0.55282 0.38296 0.18744 0.0
H1591 H 0.53978 0.4159 0.14162 0.0
H1592 H 0.47557 0.38112 0.07466 0.0
H1593 H 0.46874 0.33434 0.10479 0.0
C1594 C 0.49768 0.31966 0.15736 0.0
C1595 C 0.51456 0.31435 0.1846 0.0
C1596 C 0.50073 0.34734 0.1407 0.0
C1597 C 0.53425 0.33774 0.19521 0.0
C1598 C 0.53727 0.36557 0.17879 0.0
C1599 C 0.5241 0.39818 0.13393 0.0
C1600 C 0.50821 0.40201 0.10573 0.0
C1601 C 0.52072 0.37065 0.15133 0.0
C1602 C 0.48819 0.37868 0.096 0.0
C1603 C 0.48428 0.35184 0.11327 0.0
H1604 H 0.65528 0.53936 0.21945 0.0
H1605 H 0.71017 0.46139 0.19281 0.0
H1606 H 0.68178 0.457 0.14419 0.0
H1607 H 0.63972 0.4744 0.10974 0.0
H1608 H 0.5829 0.54969 0.13946 0.0
H1609 H 0.61344 0.55587 0.18635 0.0
C1610 C 0.66082 0.52104 0.20334 0.0
C1611 C 0.68484 0.5007 0.21005 0.0
C1612 C 0.64404 0.51825 0.17577 0.0
C1613 C 0.69205 0.47765 0.18827 0.0
C1614 C 0.67571 0.47501 0.16045 0.0
C1615 C 0.6344 0.4923 0.12641 0.0
C1616 C 0.60931 0.51169 0.12124 0.0
C1617 C 0.65157 0.49515 0.15394 0.0
C1618 C 0.60218 0.53454 0.14309 0.0
C1619 C 0.61956 0.53804 0.1699 0.0
H1620 H 0.53375 0.69371 0.18303 0.0
H1621 H 0.5021 0.62795 0.25099 0.0
H1622 H 0.49741 0.58872 0.21061 0.0
H1623 H 0.50416 0.57247 0.156 0.0
H1624 H 0.53564 0.63923 0.08859 0.0
H1625 H 0.53822 0.67835 0.12857 0.0
C1626 C 0.52528 0.67098 0.18894 0.0
C1627 C 0.5184 0.66384 0.22004 0.0
C1628 C 0.5228 0.64846 0.16566 0.0
C1629 C 0.50791 0.63403 0.22729 0.0
C1630 C 0.50519 0.61155 0.20419 0.0
C1631 C 0.51155 0.59556 0.15004 0.0
C1632 C 0.51969 0.6026 0.11915 0.0
C1633 C 0.513 0.61835 0.17331 0.0
C1634 C 0.52907 0.63285 0.112 0.0
C1635 C 0.53062 0.65544 0.13492 0.0
H1636 H 0.34875 0.47799 0.19576 0.0
H1637 H 0.29599 0.54491 0.14501 0.0
H1638 H 0.33689 0.55041 0.10702 0.0
H1639 H 0.38692 0.53458 0.08647 0.0
H1640 H 0.44119 0.4701 0.13856 0.0
H1641 H 0.40078 0.46541 0.17749 0.0
C1642 C 0.34643 0.49417 0.17672 0.0
C1643 C 0.31899 0.51056 0.17308 0.0
C1644 C 0.37028 0.49745 0.15484 0.0
C1645 C 0.31651 0.53143 0.14812 0.0
C1646 C 0.33994 0.53466 0.12631 0.0
C1647 C 0.38982 0.51947 0.10631 0.0
C1648 C 0.4169 0.5025 0.1094 0.0
C1649 C 0.3667 0.51735 0.12904 0.0
C1650 C 0.42056 0.48343 0.13558 0.0
C1651 C 0.39743 0.48072 0.1579 0.0
H1652 H 0.88862 0.46935 0.718 0.0
H1653 H 0.82103 0.53367 0.68578 0.0
H1654 H 0.84839 0.53898 0.63622 0.0
H1655 H 0.89367 0.52709 0.60292 0.0
H1656 H 0.96088 0.46328 0.63751 0.0
H1657 H 0.93165 0.4561 0.68496 0.0
C1658 C 0.87992 0.48472 0.70025 0.0
C1659 C 0.85303 0.50137 0.70582 0.0
C1660 C 0.8958 0.48776 0.67206 0.0
C1661 C 0.84169 0.52055 0.68215 0.0
C1662 C 0.8574 0.52367 0.65382 0.0
C1663 C 0.9016 0.51138 0.62073 0.0
C1664 C 0.9296 0.496 0.61676 0.0
C1665 C 0.88473 0.50759 0.64857 0.0
C1666 C 0.93966 0.47577 0.64012 0.0
C1667 C 0.92294 0.47158 0.66732 0.0
H1668 H 0.53406 0.84141 0.70719 0.0
H1669 H 0.51377 0.77188 0.63889 0.0
H1670 H 0.50876 0.81139 0.5988 0.0
H1671 H 0.51236 0.86541 0.58258 0.0
H1672 H 0.53324 0.93513 0.65078 0.0
H1673 H 0.53571 0.89594 0.69124 0.0
C1674 C 0.52807 0.83501 0.68363 0.0
C1675 C 0.52439 0.80374 0.67603 0.0
C1676 C 0.52563 0.85787 0.66053 0.0
C1677 C 0.51698 0.79577 0.64529 0.0
C1678 C 0.51414 0.81835 0.62234 0.0
C1679 C 0.51749 0.87213 0.60626 0.0
C1680 C 0.52278 0.90332 0.61337 0.0
C1681 C 0.5189 0.84944 0.62957 0.0
C1682 C 0.52909 0.9114 0.64439 0.0
C1683 C 0.53051 0.88896 0.66767 0.0
H1684 H 0.20696 0.48925 0.67778 0.0
H1685 H 0.15147 0.55302 0.72968 0.0
H1686 H 0.11518 0.55578 0.68715 0.0
H1687 H 0.09707 0.53775 0.63678 0.0
H1688 H 0.15239 0.4758 0.58273 0.0
H1689 H 0.19076 0.47481 0.62414 0.0
C1690 C 0.18718 0.50408 0.67948 0.0
C1691 C 0.18167 0.5204 0.7072 0.0
C1692 C 0.16614 0.50568 0.65464 0.0
C1693 C 0.15595 0.53967 0.70893 0.0
C1694 C 0.13514 0.54132 0.68459 0.0
C1695 C 0.11756 0.52407 0.63401 0.0
C1696 C 0.12166 0.50658 0.60691 0.0
C1697 C 0.13959 0.52391 0.65766 0.0
C1698 C 0.14864 0.48946 0.60342 0.0
C1699 C 0.17057 0.48882 0.62714 0.0
H1700 H 0.49061 0.147 0.7131 0.0
H1701 H 0.55265 0.21152 0.67059 0.0
H1702 H 0.55187 0.18143 0.62219 0.0
H1703 H 0.53717 0.13345 0.59417 0.0
H1704 H 0.47701 0.06878 0.63939 0.0
H1705 H 0.47337 0.10207 0.68464 0.0
C1706 C 0.50384 0.15454 0.69314 0.0
C1707 C 0.52205 0.18099 0.69536 0.0
C1708 C 0.50377 0.1369 0.66606 0.0
C1709 C 0.53857 0.19106 0.66928 0.0
C1710 C 0.53824 0.17378 0.64177 0.0
C1711 C 0.52302 0.12702 0.61384 0.0
C1712 C 0.50775 0.09852 0.61388 0.0
C1713 C 0.5215 0.14618 0.64017 0.0
C1714 C 0.48945 0.09028 0.63932 0.0
C1715 C 0.48725 0.10936 0.66509 0.0
H1716 H 0.83213 0.52494 0.3478 0.0
H1717 H 0.88248 0.4573 0.29549 0.0
H1718 H 0.92023 0.4538 0.33682 0.0
H1719 H 0.94121 0.47291 0.38584 0.0
H1720 H 0.89028 0.53849 0.43997 0.0
H1721 H 0.85051 0.53988 0.40006 0.0
C1722 C 0.851 0.50896 0.34582 0.0
C1723 C 0.85478 0.49181 0.3184 0.0
C1724 C 0.87278 0.50707 0.36976 0.0
C1725 C 0.87938 0.47119 0.31614 0.0
C1726 C 0.90101 0.46919 0.33972 0.0
C1727 C 0.92136 0.48744 0.38887 0.0
C1728 C 0.91884 0.5059 0.41546 0.0
C1729 C 0.89841 0.48765 0.36621 0.0
C1730 C 0.89274 0.52417 0.41953 0.0
C1731 C 0.87001 0.52497 0.39674 0.0
H1732 H 0.53493 0.81911 0.34275 0.0
H1733 H 0.47247 0.87433 0.28898 0.0
H1734 H 0.46887 0.91123 0.33124 0.0
H1735 H 0.48509 0.92935 0.38253 0.0
H1736 H 0.54419 0.87271 0.43831 0.0
H1737 H 0.547 0.8347 0.39652 0.0
C1738 C 0.52007 0.83888 0.34045 0.0
C1739 C 0.50458 0.84413 0.31227 0.0
C1740 C 0.51756 0.85992 0.3652 0.0
C1741 C 0.48544 0.87004 0.30992 0.0
C1742 C 0.48317 0.89115 0.33419 0.0
C1743 C 0.49853 0.90865 0.38556 0.0
C1744 C 0.51474 0.90406 0.41331 0.0
C1745 C 0.49956 0.88665 0.3617 0.0
C1746 C 0.53158 0.87684 0.41713 0.0
C1747 C 0.53323 0.85511 0.3932 0.0
H1748 H 0.18361 0.48089 0.3197 0.0
H1749 H 0.24664 0.51726 0.38728 0.0
H1750 H 0.20502 0.52445 0.42416 0.0
H1751 H 0.15159 0.51797 0.43845 0.0
H1752 H 0.08751 0.4818 0.37179 0.0
H1753 H 0.12854 0.47744 0.33326 0.0
C1754 C 0.18813 0.4908 0.34233 0.0
C1755 C 0.21838 0.49818 0.35077 0.0
C1756 C 0.16393 0.49476 0.36368 0.0
C1757 C 0.22377 0.51087 0.38031 0.0
C1758 C 0.19994 0.51507 0.40142 0.0
C1759 C 0.14642 0.50911 0.41551 0.0
C1760 C 0.11643 0.49986 0.40828 0.0
C1761 C 0.17007 0.50658 0.39359 0.0
C1762 C 0.11032 0.48903 0.37813 0.0
C1763 C 0.13383 0.48645 0.35609 0.0
H1764 H 0.52559 0.17749 0.33264 0.0
H1765 H 0.45196 0.21919 0.38448 0.0
H1766 H 0.45137 0.17608 0.42017 0.0
H1767 H 0.47255 0.12727 0.43832 0.0
H1768 H 0.5421 0.08199 0.38453 0.0
H1769 H 0.54297 0.12522 0.34771 0.0
C1770 C 0.5091 0.17703 0.35142 0.0
C1771 C 0.48957 0.20241 0.35617 0.0
C1772 C 0.50807 0.15138 0.37163 0.0
C1773 C 0.46827 0.20091 0.38075 0.0
C1774 C 0.46761 0.17599 0.40114 0.0
C1775 C 0.48777 0.12684 0.41842 0.0
C1776 C 0.50742 0.10173 0.41425 0.0
C1777 C 0.48767 0.15136 0.39713 0.0
C1778 C 0.52671 0.10113 0.38814 0.0
C1779 C 0.52729 0.1259 0.36719 0.0
H1780 H 0.65871 0.80337 0.5021 0.0
H1781 H 0.72892 0.85408 0.54957 0.0
H1782 H 0.69953 0.90181 0.54374 0.0
H1783 H 0.65097 0.92809 0.52915 0.0
H1784 H 0.5823 0.87578 0.48041 0.0
H1785 H 0.61395 0.83024 0.4823 0.0
C1786 C 0.66768 0.82497 0.51085 0.0
C1787 C 0.69567 0.82524 0.52649 0.0
C1788 C 0.6508 0.85216 0.50727 0.0
C1789 C 0.70732 0.85339 0.53743 0.0
C1790 C 0.69046 0.88063 0.5342 0.0
C1791 C 0.64329 0.90689 0.51844 0.0
C1792 C 0.61397 0.90536 0.50519 0.0
C1793 C 0.66177 0.88023 0.5197 0.0
C1794 C 0.60446 0.87761 0.49132 0.0
C1795 C 0.62255 0.8514 0.49236 0.0
H1796 H 0.6509 0.21155 0.51357 0.0
H1797 H 0.73033 0.15608 0.49575 0.0
H1798 H 0.69902 0.10929 0.49878 0.0
H1799 H 0.64779 0.08412 0.50352 0.0
H1800 H 0.56929 0.14182 0.52056 0.0
H1801 H 0.60132 0.18706 0.52034 0.0
C1802 C 0.66148 0.18926 0.51029 0.0
C1803 C 0.69301 0.1876 0.50415 0.0
C1804 C 0.64329 0.16253 0.51159 0.0
C1805 C 0.70621 0.15826 0.50071 0.0
C1806 C 0.6882 0.13142 0.50217 0.0
C1807 C 0.63769 0.10655 0.50725 0.0
C1808 C 0.60578 0.10904 0.51163 0.0
C1809 C 0.65651 0.13323 0.50712 0.0
C1810 C 0.59348 0.13861 0.51668 0.0
C1811 C 0.61187 0.16483 0.51668 0.0
H1812 H 0.88205 0.70711 0.47815 0.0
H1813 H 0.82417 0.67713 0.55356 0.0
H1814 H 0.85166 0.62832 0.55607 0.0
H1815 H 0.89532 0.5954 0.53955 0.0
H1816 H 0.95466 0.6282 0.46661 0.0
H1817 H 0.92384 0.67433 0.46076 0.0
C1818 C 0.87543 0.69006 0.49531 0.0
C1819 C 0.85109 0.69623 0.51579 0.0
C1820 C 0.89188 0.66233 0.49723 0.0
C1821 C 0.84256 0.67319 0.53723 0.0
C1822 C 0.85849 0.64523 0.53888 0.0
C1823 C 0.90116 0.61249 0.52214 0.0
C1824 C 0.9274 0.60836 0.50364 0.0
C1825 C 0.88359 0.63968 0.51935 0.0
C1826 C 0.93479 0.63089 0.48134 0.0
C1827 C 0.91715 0.65734 0.47795 0.0
H1828 H 0.35165 0.81271 0.49634 0.0
H1829 H 0.29613 0.87131 0.55422 0.0
H1830 H 0.33789 0.90774 0.55913 0.0
H1831 H 0.38896 0.92481 0.54498 0.0
H1832 H 0.44643 0.86675 0.48883 0.0
H1833 H 0.40552 0.82826 0.48567 0.0
C1834 C 0.34889 0.83327 0.51029 0.0
C1835 C 0.32043 0.83955 0.52421 0.0
C1836 C 0.37334 0.85436 0.51328 0.0
C1837 C 0.3174 0.86625 0.54247 0.0
C1838 C 0.34135 0.88711 0.54546 0.0
C1839 C 0.39264 0.9037 0.5321 0.0
C1840 C 0.4206 0.89887 0.51688 0.0
C1841 C 0.36917 0.88174 0.53051 0.0
C1842 C 0.42512 0.87108 0.50079 0.0
C1843 C 0.40166 0.84911 0.49887 0.0
H1844 H 0.17799 0.3113 0.49261 0.0
H1845 H 0.24629 0.37996 0.51254 0.0
H1846 H 0.20661 0.41834 0.52119 0.0
H1847 H 0.153 0.43335 0.51958 0.0
H1848 H 0.08405 0.36547 0.49856 0.0
H1849 H 0.12337 0.32592 0.4941 0.0
C1850 C 0.18406 0.33453 0.4994 0.0
C1851 C 0.21504 0.34283 0.5018 0.0
C1852 C 0.16104 0.35673 0.50382 0.0
C1853 C 0.22263 0.3731 0.51031 0.0
C1854 C 0.19995 0.39506 0.51521 0.0
C1855 C 0.14643 0.40992 0.51408 0.0
C1856 C 0.1155 0.4026 0.50914 0.0
C1857 C 0.16914 0.38732 0.51136 0.0
C1858 C 0.1076 0.37191 0.50248 0.0
C1859 C 0.13012 0.34922 0.49985 0.0
H1860 H 0.30825 0.13515 0.49371 0.0
H1861 H 0.35255 0.21113 0.53955 0.0
H1862 H 0.40043 0.18203 0.54115 0.0
H1863 H 0.42913 0.13317 0.53181 0.0
H1864 H 0.38187 0.05734 0.48841 0.0
H1865 H 0.33605 0.08798 0.48394 0.0
C1866 C 0.32824 0.14535 0.5044 0.0
C1867 C 0.32652 0.17517 0.51689 0.0
C1868 C 0.35537 0.12834 0.50577 0.0
C1869 C 0.3531 0.18824 0.52969 0.0
C1870 C 0.38049 0.17151 0.53076 0.0
C1871 C 0.40885 0.12353 0.52121 0.0
C1872 C 0.40907 0.0928 0.51066 0.0
C1873 C 0.38186 0.1413 0.51918 0.0
C1874 C 0.38246 0.08071 0.49704 0.0
C1875 C 0.3561 0.09825 0.4944 0.0
H1876 H 0.83727 0.33485 0.48902 0.0
H1877 H 0.87611 0.29513 0.57185 0.0
H1878 H 0.91193 0.33777 0.57586 0.0
H1879 H 0.93558 0.38422 0.55359 0.0
H1880 H 0.89509 0.4271 0.47351 0.0
H1881 H 0.85684 0.38581 0.47068 0.0
C1882 C 0.85307 0.33593 0.50833 0.0
C1883 C 0.85427 0.31128 0.52971 0.0
C1884 C 0.87378 0.36096 0.51074 0.0
C1885 C 0.87498 0.31331 0.55464 0.0
C1886 C 0.89561 0.33772 0.55698 0.0
C1887 C 0.91821 0.3846 0.53567 0.0
C1888 C 0.91839 0.40843 0.51355 0.0
C1889 C 0.89585 0.36122 0.5347 0.0
C1890 C 0.89546 0.40893 0.49076 0.0
C1891 C 0.87361 0.38527 0.48913 0.0
H1892 H 0.1829 0.69269 0.52977 0.0
H1893 H 0.25145 0.62609 0.50498 0.0
H1894 H 0.21197 0.58742 0.49586 0.0
H1895 H 0.15808 0.57141 0.49814 0.0
H1896 H 0.08957 0.63825 0.52311 0.0
H1897 H 0.12871 0.67761 0.52867 0.0
C1898 C 0.18914 0.6699 0.52178 0.0
C1899 C 0.22015 0.66231 0.51829 0.0
C1900 C 0.16627 0.64757 0.5169 0.0
C1901 C 0.2278 0.63249 0.50822 0.0
C1902 C 0.20521 0.61032 0.50302 0.0
C1903 C 0.15165 0.59459 0.50468 0.0
C1904 C 0.12076 0.60157 0.5103 0.0
C1905 C 0.17439 0.61737 0.50792 0.0
C1906 C 0.11303 0.63196 0.51851 0.0
C1907 C 0.13547 0.65463 0.52179 0.0
loop_
_geom_bond_atom_site_label_1
_geom_bond_atom_site_label_2
_geom_bond_distance
_geom_bond_site_symmetry_2
_ccdc_geom_bond_type
H0 C1 0.949 . S
C1 H0 0.949 . S
C1 C2 1.395 . S
C1 C3 1.391 . S
C2 C1 1.395 . S
C2 C5 1.390 . S
C3 C1 1.391 . S
C3 C7 1.387 . S
C3 C8 1.491 1_455 S
H4 C5 0.950 . S
C5 C2 1.390 . S
C5 H4 0.950 . S
C5 C6 1.378 . S
C6 C5 1.378 . S
C6 C7 1.409 . S
C7 C3 1.387 . S
C7 C6 1.409 . S
C7 H9 0.951 . S
C8 C3 1.491 1_655 S
C8 C10 1.382 1_655 S
C8 C12 1.404 . S
H9 C7 0.951 . S
C10 C8 1.382 1_455 S
C10 C11 1.396 . S
C10 H15 0.949 . S
C11 C10 1.396 . S
C11 C16 1.382 1_455 S
C12 C8 1.404 . S
C12 H13 0.950 . S
C12 C14 1.375 . S
H13 C12 0.950 . S
C14 C12 1.375 . S
C14 C16 1.382 . S
C14 H18 0.950 . S
H15 C10 0.949 . S
C16 C11 1.382 1_655 S
C16 C14 1.382 . S
C16 H17 0.952 . S
H17 C16 0.952 . S
H18 C14 0.950 . S
H19 C20 0.949 . S
C20 H19 0.949 . S
C20 C21 1.395 . S
C20 C22 1.391 . S
C21 C20 1.395 . S
C21 C24 1.390 1_545 S
C22 C20 1.391 . S
C22 C26 1.387 . S
C22 C27 1.491 . S
H23 C24 0.950 . S
C24 C21 1.390 1_565 S
C24 H23 0.950 . S
C24 C25 1.377 1_565 S
C25 C24 1.377 1_545 S
C25 C26 1.413 . S
C26 C22 1.387 . S
C26 C25 1.413 . S
C26 H28 0.951 . S
C27 C22 1.491 . S
C27 C29 1.382 . S
C27 C31 1.404 . S
H28 C26 0.951 . S
C29 C27 1.382 . S
C29 C30 1.390 . S
C29 H34 0.949 1_545 S
C30 C29 1.390 . S
C30 C35 1.399 . S
C31 C27 1.404 . S
C31 H32 0.950 . S
C31 C33 1.375 . S
H32 C31 0.950 . S
C33 C31 1.375 . S
C33 C35 1.382 . S
C33 H37 0.950 . S
H34 C29 0.949 1_565 S
C35 C30 1.399 . S
C35 C33 1.382 . S
C35 H36 0.952 . S
H36 C35 0.952 . S
H37 C33 0.950 . S
H38 C39 0.949 . S
C39 H38 0.949 . S
C39 C40 1.395 . S
C39 C41 1.391 . S
C40 C39 1.395 . S
C40 C43 1.390 . S
C41 C39 1.391 . S
C41 C45 1.387 . S
C41 C46 1.491 1_455 S
H42 C43 0.950 . S
C43 C40 1.390 . S
C43 H42 0.950 . S
C43 C44 1.378 . S
C44 C43 1.378 . S
C44 C45 1.409 . S
C45 C41 1.387 . S
C45 C44 1.409 . S
C45 H47 0.951 . S
C46 C41 1.491 1_655 S
C46 C48 1.382 1_655 S
C46 C50 1.404 . S
H47 C45 0.951 . S
C48 C46 1.382 1_455 S
C48 C49 1.390 . S
C48 H53 0.949 . S
C49 C48 1.390 . S
C49 C54 1.399 1_455 S
C50 C46 1.404 . S
C50 H51 0.950 . S
C50 C52 1.375 . S
H51 C50 0.950 . S
C52 C50 1.375 . S
C52 C54 1.382 . S
C52 H56 0.950 . S
H53 C48 0.949 . S
C54 C49 1.399 1_655 S
C54 C52 1.382 . S
C54 H55 0.952 . S
H55 C54 0.952 . S
H56 C52 0.950 . S
H57 C58 0.949 . S
C58 H57 0.949 . S
C58 C59 1.394 . S
C58 C60 1.391 . S
C59 C58 1.394 . S
C59 C62 1.390 1_565 S
C60 C58 1.391 . S
C60 C64 1.387 . S
C60 C65 1.491 . S
H61 C62 0.950 . S
C62 C59 1.390 1_545 S
C62 H61 0.950 . S
C62 C63 1.377 1_545 S
C63 C62 1.377 1_565 S
C63 C64 1.411 . S
C64 C60 1.387 . S
C64 C63 1.411 . S
C64 H66 0.951 . S
C65 C60 1.491 . S
C65 C67 1.382 . S
C65 C69 1.404 . S
H66 C64 0.951 . S
C67 C65 1.382 . S
C67 C68 1.390 . S
C67 H72 0.949 1_565 S
C68 C67 1.390 . S
C68 C73 1.399 . S
C69 C65 1.404 . S
C69 H70 0.950 . S
C69 C71 1.375 . S
H70 C69 0.950 . S
C71 C69 1.375 . S
C71 C73 1.382 . S
C71 H75 0.950 . S
H72 C67 0.949 1_545 S
C73 C68 1.399 . S
C73 C71 1.382 . S
C73 H74 0.952 . S
H74 C73 0.952 . S
H75 C71 0.950 . S
H76 C77 0.949 . S
C77 H76 0.949 . S
C77 C78 1.395 . S
C77 C79 1.391 . S
C78 C77 1.395 . S
C78 C81 1.390 . S
C79 C77 1.391 . S
C79 C83 1.387 . S
C79 C84 1.491 1_455 S
H80 C81 0.950 . S
C81 C78 1.390 . S
C81 H80 0.950 . S
C81 C82 1.378 . S
C82 C81 1.378 . S
C82 C83 1.409 . S
C83 C79 1.387 . S
C83 C82 1.409 . S
C83 H85 0.951 . S
C84 C79 1.491 1_655 S
C84 C86 1.382 1_655 S
C84 C88 1.404 . S
H85 C83 0.951 . S
C86 C84 1.382 1_455 S
C86 C87 1.390 . S
C86 H91 0.949 . S
C87 C86 1.390 . S
C87 C92 1.399 1_455 S
C88 C84 1.404 . S
C88 H89 0.950 . S
C88 C90 1.375 . S
H89 C88 0.950 . S
C90 C88 1.375 . S
C90 C92 1.382 . S
C90 H94 0.950 . S
H91 C86 0.949 . S
C92 C87 1.399 1_655 S
C92 C90 1.382 . S
C92 H93 0.952 . S
H93 C92 0.952 . S
H94 C90 0.950 . S
H95 C96 0.949 . S
C96 H95 0.949 . S
C96 C97 1.400 . S
C96 C98 1.391 . S
C97 C96 1.400 . S
C97 C100 1.388 1_545 S
C98 C96 1.391 . S
C98 C102 1.387 . S
C98 C103 1.491 . S
H99 C100 0.950 . S
C100 C97 1.388 1_565 S
C100 H99 0.950 . S
C100 C101 1.378 1_565 S
C101 C100 1.378 1_545 S
C101 C102 1.409 . S
C102 C98 1.387 . S
C102 C101 1.409 . S
C102 H104 0.951 . S
C103 C98 1.491 . S
C103 C105 1.382 . S
C103 C107 1.404 . S
H104 C102 0.951 . S
C105 C103 1.382 . S
C105 C106 1.390 . S
C105 H110 0.949 1_545 S
C106 C105 1.390 . S
C106 C111 1.399 . S
C107 C103 1.404 . S
C107 H108 0.950 . S
C107 C109 1.375 . S
H108 C107 0.950 . S
C109 C107 1.375 . S
C109 C111 1.382 . S
C109 H113 0.950 . S
H110 C105 0.949 1_565 S
C111 C106 1.399 . S
C111 C109 1.382 . S
C111 H112 0.952 . S
H112 C111 0.952 . S
H113 C109 0.950 . S
H114 C115 0.949 . S
C115 H114 0.949 . S
C115 C116 1.395 . S
C115 C117 1.391 . S
C116 C115 1.395 . S
C116 C119 1.390 . S
C117 C115 1.391 . S
C117 C121 1.387 . S
C117 C122 1.491 1_455 S
H118 C119 0.950 . S
C119 C116 1.390 . S
C119 H118 0.950 . S
C119 C120 1.378 . S
C120 C119 1.378 . S
C120 C121 1.409 . S
C121 C117 1.387 . S
C121 C120 1.409 . S
C121 H123 0.951 . S
C122 C117 1.491 1_655 S
C122 C124 1.382 1_655 S
C122 C126 1.404 . S
H123 C121 0.951 . S
C124 C122 1.382 1_455 S
C124 C125 1.390 . S
C124 H129 0.949 . S
C125 C124 1.390 . S
C125 C130 1.399 1_455 S
C126 C122 1.404 . S
C126 H127 0.950 . S
C126 C128 1.375 . S
H127 C126 0.950 . S
C128 C126 1.375 . S
C128 C130 1.382 . S
C128 H132 0.950 . S
H129 C124 0.949 . S
C130 C125 1.399 1_655 S
C130 C128 1.382 . S
C130 H131 0.952 . S
H131 C130 0.952 . S
H132 C128 0.950 . S
H133 C134 0.949 . S
C134 H133 0.949 . S
C134 C135 1.399 . S
C134 C136 1.391 . S
C135 C134 1.399 . S
C135 C138 1.389 1_545 S
C136 C134 1.391 . S
C136 C140 1.387 . S
C136 C141 1.491 . S
H137 C138 0.950 . S
C138 C135 1.389 1_565 S
C138 H137 0.950 . S
C138 C139 1.378 1_565 S
C139 C138 1.378 1_545 S
C139 C140 1.409 . S
C140 C136 1.387 . S
C140 C139 1.409 . S
C140 H142 0.951 . S
C141 C136 1.491 . S
C141 C143 1.382 . S
C141 C145 1.404 . S
H142 C140 0.951 . S
C143 C141 1.382 . S
C143 C144 1.390 . S
C143 H148 0.949 1_545 S
C144 C143 1.390 . S
C144 C149 1.399 . S
C145 C141 1.404 . S
C145 H146 0.950 . S
C145 C147 1.375 . S
H146 C145 0.950 . S
C147 C145 1.375 . S
C147 C149 1.382 . S
C147 H151 0.950 . S
H148 C143 0.949 1_565 S
C149 C144 1.399 . S
C149 C147 1.382 . S
C149 H150 0.952 . S
H150 C149 0.952 . S
H151 C147 0.950 . S
H152 C153 0.949 . S
C153 H152 0.949 . S
C153 C154 1.395 . S
C153 C155 1.391 . S
C154 C153 1.395 . S
C154 C157 1.390 . S
C155 C153 1.391 . S
C155 C159 1.387 . S
C155 C160 1.491 . S
H156 C157 0.950 . S
C157 C154 1.390 . S
C157 H156 0.950 . S
C157 C158 1.378 . S
C158 C157 1.378 . S
C158 C159 1.409 . S
C159 C155 1.387 . S
C159 C158 1.409 . S
C159 H161 0.951 . S
C160 C155 1.491 . S
C160 C162 1.382 . S
C160 C164 1.404 . S
H161 C159 0.951 . S
C162 C160 1.382 . S
C162 C163 1.390 . S
C162 H167 0.949 1_554 S
C163 C162 1.390 . S
C163 C168 1.399 . S
C164 C160 1.404 . S
C164 H165 0.950 . S
C164 C166 1.375 . S
H165 C164 0.950 . S
C166 C164 1.375 . S
C166 C168 1.382 . S
C166 H170 0.950 . S
H167 C162 0.949 1_556 S
C168 C163 1.399 . S
C168 C166 1.382 . S
C168 H169 0.952 . S
H169 C168 0.952 . S
H170 C166 0.950 . S
H171 C172 0.949 . S
C172 H171 0.949 . S
C172 C173 1.395 . S
C172 C174 1.391 1_554 S
C173 C172 1.395 . S
C173 C176 1.390 . S
C174 C172 1.391 1_556 S
C174 C178 1.387 1_556 S
C174 C179 1.491 . S
H175 C176 0.950 . S
C176 C173 1.390 . S
C176 H175 0.950 . S
C176 C177 1.378 . S
C177 C176 1.378 . S
C177 C178 1.409 . S
C178 C174 1.387 1_554 S
C178 C177 1.409 . S
C178 H180 0.951 . S
C179 C174 1.491 . S
C179 C181 1.382 1_556 S
C179 C183 1.404 . S
H180 C178 0.951 . S
C181 C179 1.382 1_554 S
C181 C182 1.390 1_554 S
C181 H186 0.949 . S
C182 C181 1.390 1_556 S
C182 C187 1.399 . S
C183 C179 1.404 . S
C183 H184 0.950 . S
C183 C185 1.375 . S
H184 C183 0.950 . S
C185 C183 1.375 . S
C185 C187 1.382 . S
C185 H189 0.950 . S
H186 C181 0.949 . S
C187 C182 1.399 . S
C187 C185 1.382 . S
C187 H188 0.952 . S
H188 C187 0.952 . S
H189 C185 0.950 . S
H190 C191 0.949 . S
C191 H190 0.949 . S
C191 C192 1.395 . S
C191 C193 1.391 . S
C192 C191 1.395 . S
C192 C195 1.390 . S
C193 C191 1.391 . S
C193 C197 1.387 . S
C193 C198 1.491 . S
H194 C195 0.950 . S
C195 C192 1.390 . S
C195 H194 0.950 . S
C195 C196 1.378 . S
C196 C195 1.378 . S
C196 C197 1.409 . S
C197 C193 1.387 . S
C197 C196 1.409 . S
C197 H199 0.951 . S
C198 C193 1.491 . S
C198 C200 1.382 . S
C198 C202 1.404 . S
H199 C197 0.951 . S
C200 C198 1.382 . S
C200 C201 1.390 . S
C200 H205 0.949 1_554 S
C201 C200 1.390 . S
C201 C206 1.399 . S
C202 C198 1.404 . S
C202 H203 0.950 . S
C202 C204 1.375 . S
H203 C202 0.950 . S
C204 C202 1.375 . S
C204 C206 1.382 . S
C204 H208 0.950 . S
H205 C200 0.949 1_556 S
C206 C201 1.399 . S
C206 C204 1.382 . S
C206 H207 0.952 . S
H207 C206 0.952 . S
H208 C204 0.950 . S
H209 C210 0.949 . S
C210 H209 0.949 . S
C210 C211 1.395 . S
C210 C212 1.391 1_554 S
C211 C210 1.395 . S
C211 C214 1.390 . S
C212 C210 1.391 1_556 S
C212 C216 1.387 1_556 S
C212 C217 1.491 . S
H213 C214 0.950 . S
C214 C211 1.390 . S
C214 H213 0.950 . S
C214 C215 1.378 . S
C215 C214 1.378 . S
C215 C216 1.409 . S
C216 C212 1.387 1_554 S
C216 C215 1.409 . S
C216 H218 0.951 . S
C217 C212 1.491 . S
C217 C219 1.382 1_556 S
C217 C221 1.404 . S
H218 C216 0.951 . S
C219 C217 1.382 1_554 S
C219 C220 1.390 . S
C219 H224 0.949 . S
C220 C219 1.390 . S
C220 C225 1.399 1_554 S
C221 C217 1.404 . S
C221 H222 0.950 . S
C221 C223 1.375 . S
H222 C221 0.950 . S
C223 C221 1.375 . S
C223 C225 1.382 . S
C223 H227 0.950 . S
H224 C219 0.949 . S
C225 C220 1.399 1_556 S
C225 C223 1.382 . S
C225 H226 0.952 . S
H226 C225 0.952 . S
H227 C223 0.950 . S
H228 C229 0.949 . S
C229 H228 0.949 . S
C229 C230 1.395 . S
C229 C231 1.391 . S
C230 C229 1.395 . S
C230 C233 1.390 . S
C231 C229 1.391 . S
C231 C235 1.387 . S
C231 C236 1.491 . S
H232 C233 0.950 . S
C233 C230 1.390 . S
C233 H232 0.950 . S
C233 C234 1.378 . S
C234 C233 1.378 . S
C234 C235 1.409 . S
C235 C231 1.387 . S
C235 C234 1.409 . S
C235 H237 0.951 . S
C236 C231 1.491 . S
C236 C238 1.382 . S
C236 C240 1.404 . S
H237 C235 0.951 . S
C238 C236 1.382 . S
C238 C239 1.390 . S
C238 H243 0.949 . S
C239 C238 1.390 . S
C239 C244 1.399 . S
C240 C236 1.404 . S
C240 H241 0.950 . S
C240 C242 1.375 . S
H241 C240 0.950 . S
C242 C240 1.375 . S
C242 C244 1.382 . S
C242 H246 0.950 . S
H243 C238 0.949 . S
C244 C239 1.399 . S
C244 C242 1.382 . S
C244 H245 0.952 . S
H245 C244 0.952 . S
H246 C242 0.950 . S
H247 C248 0.949 . S
C248 H247 0.949 . S
C248 C249 1.395 . S
C248 C250 1.391 . S
C249 C248 1.395 . S
C249 C252 1.390 . S
C250 C248 1.391 . S
C250 C254 1.387 . S
C250 C255 1.491 . S
H251 C252 0.950 . S
C252 C249 1.390 . S
C252 H251 0.950 . S
C252 C253 1.378 . S
C253 C252 1.378 . S
C253 C254 1.409 . S
C254 C250 1.387 . S
C254 C253 1.409 . S
C254 H256 0.951 . S
C255 C250 1.491 . S
C255 C257 1.382 . S
C255 C259 1.404 . S
H256 C254 0.951 . S
C257 C255 1.382 . S
C257 C258 1.390 . S
C257 H262 0.949 . S
C258 C257 1.390 . S
C258 C263 1.399 . S
C259 C255 1.404 . S
C259 H260 0.950 . S
C259 C261 1.375 . S
H260 C259 0.950 . S
C261 C259 1.375 . S
C261 C263 1.382 . S
C261 H265 0.950 . S
H262 C257 0.949 . S
C263 C258 1.399 . S
C263 C261 1.382 . S
C263 H264 0.952 . S
H264 C263 0.952 . S
H265 C261 0.950 . S
H266 C267 0.949 . S
C267 H266 0.949 . S
C267 C268 1.395 . S
C267 C269 1.391 . S
C268 C267 1.395 . S
C268 C271 1.390 . S
C269 C267 1.391 . S
C269 C273 1.387 . S
C269 C274 1.491 . S
H270 C271 0.950 . S
C271 C268 1.390 . S
C271 H270 0.950 . S
C271 C272 1.378 . S
C272 C271 1.378 . S
C272 C273 1.409 . S
C273 C269 1.387 . S
C273 C272 1.409 . S
C273 H275 0.951 . S
C274 C269 1.491 . S
C274 C276 1.382 . S
C274 C278 1.404 . S
H275 C273 0.951 . S
C276 C274 1.382 . S
C276 C277 1.390 . S
C276 H281 0.949 . S
C277 C276 1.390 . S
C277 C282 1.399 . S
C278 C274 1.404 . S
C278 H279 0.950 . S
C278 C280 1.375 . S
H279 C278 0.950 . S
C280 C278 1.375 . S
C280 C282 1.382 . S
C280 H284 0.950 . S
H281 C276 0.949 . S
C282 C277 1.399 . S
C282 C280 1.382 . S
C282 H283 0.952 . S
H283 C282 0.952 . S
H284 C280 0.950 . S
H285 C286 0.949 . S
C286 H285 0.949 . S
C286 C287 1.395 . S
C286 C288 1.391 . S
C287 C286 1.395 . S
C287 C290 1.390 . S
C288 C286 1.391 . S
C288 C292 1.387 . S
C288 C293 1.491 . S
H289 C290 0.950 . S
C290 C287 1.390 . S
C290 H289 0.950 . S
C290 C291 1.378 . S
C291 C290 1.378 . S
C291 C292 1.409 . S
C292 C288 1.387 . S
C292 C291 1.409 . S
C292 H294 0.951 . S
C293 C288 1.491 . S
C293 C295 1.382 . S
C293 C297 1.404 . S
H294 C292 0.951 . S
C295 C293 1.382 . S
C295 C296 1.390 . S
C295 H300 0.949 . S
C296 C295 1.390 . S
C296 C301 1.399 . S
C297 C293 1.404 . S
C297 H298 0.950 . S
C297 C299 1.375 . S
H298 C297 0.950 . S
C299 C297 1.375 . S
C299 C301 1.382 . S
C299 H303 0.950 . S
H300 C295 0.949 . S
C301 C296 1.399 . S
C301 C299 1.382 . S
C301 H302 0.952 . S
H302 C301 0.952 . S
H303 C299 0.950 . S
H304 C305 0.949 . S
C305 H304 0.949 . S
C305 C306 1.395 . S
C305 C307 1.391 . S
C306 C305 1.395 . S
C306 C309 1.390 . S
C307 C305 1.391 . S
C307 C311 1.387 . S
C307 C312 1.491 . S
H308 C309 0.950 . S
C309 C306 1.390 . S
C309 H308 0.950 . S
C309 C310 1.378 . S
C310 C309 1.378 . S
C310 C311 1.409 . S
C311 C307 1.387 . S
C311 C310 1.409 . S
C311 H313 0.951 . S
C312 C307 1.491 . S
C312 C314 1.382 . S
C312 C316 1.404 . S
H313 C311 0.951 . S
C314 C312 1.382 . S
C314 C315 1.390 . S
C314 H319 0.949 . S
C315 C314 1.390 . S
C315 C320 1.399 . S
C316 C312 1.404 . S
C316 H317 0.950 . S
C316 C318 1.375 . S
H317 C316 0.950 . S
C318 C316 1.375 . S
C318 C320 1.382 . S
C318 H322 0.950 . S
H319 C314 0.949 . S
C320 C315 1.399 . S
C320 C318 1.382 . S
C320 H321 0.952 . S
H321 C320 0.952 . S
H322 C318 0.950 . S
H323 C324 0.949 . S
C324 H323 0.949 . S
C324 C325 1.395 . S
C324 C326 1.391 . S
C325 C324 1.395 . S
C325 C328 1.390 . S
C326 C324 1.391 . S
C326 C330 1.387 . S
C326 C331 1.491 . S
H327 C328 0.950 . S
C328 C325 1.390 . S
C328 H327 0.950 . S
C328 C329 1.378 . S
C329 C328 1.378 . S
C329 C330 1.409 . S
C330 C326 1.387 . S
C330 C329 1.409 . S
C330 H332 0.951 . S
C331 C326 1.491 . S
C331 C333 1.382 . S
C331 C335 1.404 . S
H332 C330 0.951 . S
C333 C331 1.382 . S
C333 C334 1.390 . S
C333 H338 0.949 . S
C334 C333 1.390 . S
C334 C339 1.399 . S
C335 C331 1.404 . S
C335 H336 0.950 . S
C335 C337 1.375 . S
H336 C335 0.950 . S
C337 C335 1.375 . S
C337 C339 1.382 . S
C337 H341 0.950 . S
H338 C333 0.949 . S
C339 C334 1.399 . S
C339 C337 1.382 . S
C339 H340 0.952 . S
H340 C339 0.952 . S
H341 C337 0.950 . S
H342 C343 0.949 . S
C343 H342 0.949 . S
C343 C344 1.395 . S
C343 C345 1.391 . S
C344 C343 1.395 . S
C344 C347 1.390 . S
C345 C343 1.391 . S
C345 C349 1.387 . S
C345 C350 1.491 . S
H346 C347 0.950 . S
C347 C344 1.390 . S
C347 H346 0.950 . S
C347 C348 1.378 . S
C348 C347 1.378 . S
C348 C349 1.409 . S
C349 C345 1.387 . S
C349 C348 1.409 . S
C349 H351 0.951 . S
C350 C345 1.491 . S
C350 C352 1.382 . S
C350 C354 1.404 . S
H351 C349 0.951 . S
C352 C350 1.382 . S
C352 C353 1.390 . S
C352 H357 0.949 . S
C353 C352 1.390 . S
C353 C358 1.399 . S
C354 C350 1.404 . S
C354 H355 0.950 . S
C354 C356 1.375 . S
H355 C354 0.950 . S
C356 C354 1.375 . S
C356 C358 1.382 . S
C356 H360 0.950 . S
H357 C352 0.949 . S
C358 C353 1.399 . S
C358 C356 1.382 . S
C358 H359 0.952 . S
H359 C358 0.952 . S
H360 C356 0.950 . S
H361 C362 0.949 . S
C362 H361 0.949 . S
C362 C363 1.395 . S
C362 C364 1.391 . S
C363 C362 1.395 . S
C363 C366 1.390 . S
C364 C362 1.391 . S
C364 C368 1.387 . S
C364 C369 1.491 . S
H365 C366 0.950 . S
C366 C363 1.390 . S
C366 H365 0.950 . S
C366 C367 1.378 . S
C367 C366 1.378 . S
C367 C368 1.409 . S
C368 C364 1.387 . S
C368 C367 1.409 . S
C368 H370 0.951 . S
C369 C364 1.491 . S
C369 C371 1.382 . S
C369 C373 1.404 . S
H370 C368 0.951 . S
C371 C369 1.382 . S
C371 C372 1.390 . S
C371 H376 0.949 . S
C372 C371 1.390 . S
C372 C377 1.399 . S
C373 C369 1.404 . S
C373 H374 0.950 . S
C373 C375 1.375 . S
H374 C373 0.950 . S
C375 C373 1.375 . S
C375 C377 1.382 . S
C375 H379 0.950 . S
H376 C371 0.949 . S
C377 C372 1.399 . S
C377 C375 1.382 . S
C377 H378 0.952 . S
H378 C377 0.952 . S
H379 C375 0.950 . S
H380 C381 0.949 . S
C381 H380 0.949 . S
C381 C382 1.395 . S
C381 C383 1.391 . S
C382 C381 1.395 . S
C382 C385 1.390 . S
C383 C381 1.391 . S
C383 C387 1.387 . S
C383 C388 1.491 . S
H384 C385 0.950 . S
C385 C382 1.390 . S
C385 H384 0.950 . S
C385 C386 1.378 . S
C386 C385 1.378 . S
C386 C387 1.409 . S
C387 C383 1.387 . S
C387 C386 1.409 . S
C387 H389 0.951 . S
C388 C383 1.491 . S
C388 C390 1.382 . S
C388 C392 1.404 . S
H389 C387 0.951 . S
C390 C388 1.382 . S
C390 C391 1.390 . S
C390 H395 0.949 . S
C391 C390 1.390 . S
C391 C396 1.399 . S
C392 C388 1.404 . S
C392 H393 0.950 . S
C392 C394 1.375 . S
H393 C392 0.950 . S
C394 C392 1.375 . S
C394 C396 1.382 . S
C394 H398 0.950 . S
H395 C390 0.949 . S
C396 C391 1.399 . S
C396 C394 1.382 . S
C396 H397 0.952 . S
H397 C396 0.952 . S
H398 C394 0.950 . S
H399 C400 0.949 . S
C400 H399 0.949 . S
C400 C401 1.395 . S
C400 C402 1.391 . S
C401 C400 1.395 . S
C401 C404 1.390 . S
C402 C400 1.391 . S
C402 C406 1.387 . S
C402 C407 1.491 . S
H403 C404 0.950 . S
C404 C401 1.390 . S
C404 H403 0.950 . S
C404 C405 1.378 . S
C405 C404 1.378 . S
C405 C406 1.409 . S
C406 C402 1.387 . S
C406 C405 1.409 . S
C406 H408 0.951 . S
C407 C402 1.491 . S
C407 C409 1.382 . S
C407 C411 1.404 . S
H408 C406 0.951 . S
C409 C407 1.382 . S
C409 C410 1.390 . S
C409 H414 0.949 . S
C410 C409 1.390 . S
C410 C415 1.399 . S
C411 C407 1.404 . S
C411 H412 0.950 . S
C411 C413 1.375 . S
H412 C411 0.950 . S
C413 C411 1.375 . S
C413 C415 1.382 . S
C413 H417 0.950 . S
H414 C409 0.949 . S
C415 C410 1.399 . S
C415 C413 1.382 . S
C415 H416 0.952 . S
H416 C415 0.952 . S
H417 C413 0.950 . S
H418 C419 0.949 . S
C419 H418 0.949 . S
C419 C420 1.395 . S
C419 C421 1.391 . S
C420 C419 1.395 . S
C420 C423 1.390 . S
C421 C419 1.391 . S
C421 C425 1.387 . S
C421 C426 1.491 . S
H422 C423 0.950 . S
C423 C420 1.390 . S
C423 H422 0.950 . S
C423 C424 1.378 . S
C424 C423 1.378 . S
C424 C425 1.409 . S
C425 C421 1.387 . S
C425 C424 1.409 . S
C425 H427 0.951 . S
C426 C421 1.491 . S
C426 C428 1.382 . S
C426 C430 1.404 . S
H427 C425 0.951 . S
C428 C426 1.382 . S
C428 C429 1.390 . S
C428 H433 0.949 . S
C429 C428 1.390 . S
C429 C434 1.399 . S
C430 C426 1.404 . S
C430 H431 0.950 . S
C430 C432 1.375 . S
H431 C430 0.950 . S
C432 C430 1.375 . S
C432 C434 1.382 . S
C432 H436 0.950 . S
H433 C428 0.949 . S
C434 C429 1.399 . S
C434 C432 1.382 . S
C434 H435 0.952 . S
H435 C434 0.952 . S
H436 C432 0.950 . S
H437 C438 0.949 . S
C438 H437 0.949 . S
C438 C439 1.395 . S
C438 C440 1.391 . S
C439 C438 1.395 . S
C439 C442 1.390 . S
C440 C438 1.391 . S
C440 C444 1.387 . S
C440 C445 1.491 . S
H441 C442 0.950 . S
C442 C439 1.390 . S
C442 H441 0.950 . S
C442 C443 1.378 . S
C443 C442 1.378 . S
C443 C444 1.409 . S
C444 C440 1.387 . S
C444 C443 1.409 . S
C444 H446 0.951 . S
C445 C440 1.491 . S
C445 C447 1.382 . S
C445 C449 1.404 . S
H446 C444 0.951 . S
C447 C445 1.382 . S
C447 C448 1.390 . S
C447 H452 0.949 . S
C448 C447 1.390 . S
C448 C453 1.399 . S
C449 C445 1.404 . S
C449 H450 0.950 . S
C449 C451 1.375 . S
H450 C449 0.950 . S
C451 C449 1.375 . S
C451 C453 1.382 . S
C451 H455 0.950 . S
H452 C447 0.949 . S
C453 C448 1.399 . S
C453 C451 1.382 . S
C453 H454 0.952 . S
H454 C453 0.952 . S
H455 C451 0.950 . S
C456 O482 1.283 . S
C456 O500 1.283 . S
C457 O483 1.283 . S
C457 O498 1.283 . S
C458 O484 1.283 . S
C458 O501 1.283 . S
C459 O485 1.283 . S
C459 O499 1.283 . S
C460 O486 1.283 . S
C460 O495 1.283 . S
C461 O487 1.283 . S
C461 O497 1.283 . S
C462 O488 1.283 . S
C462 O494 1.283 . S
C463 O489 1.283 . S
C463 O496 1.283 . S
C464 O490 1.283 . S
C464 O505 1.283 . S
C465 O491 1.283 . S
C465 O503 1.283 . S
C466 O492 1.283 . S
C466 O504 1.283 . S
C467 O493 1.283 . S
C467 O502 1.283 . S
Eu468 O469 2.370 1_455 S
Eu468 O470 2.370 . S
Eu468 O473 2.370 1_455 S
Eu468 O474 2.370 . S
Eu468 O482 2.363 . S
Eu468 O483 2.363 . S
Eu468 O496 2.363 . S
Eu468 O497 2.363 1_455 S
O469 Eu468 2.370 1_655 S
O469 Eu471 2.364 1_565 S
O469 Eu476 2.365 1_665 S
O470 Eu468 2.370 . S
O470 Eu472 2.364 1_565 S
O470 Eu475 2.363 1_565 S
Eu471 O469 2.364 1_545 S
Eu471 O473 2.364 1_545 S
Eu471 O477 2.376 . S
Eu471 O478 2.376 . S
Eu471 O486 2.374 . S
Eu471 O487 2.352 1_545 S
Eu471 O502 2.363 . S
Eu471 O503 2.363 . S
Eu472 O470 2.364 1_545 S
Eu472 O474 2.364 1_545 S
Eu472 O479 2.376 . S
Eu472 O480 2.376 . S
Eu472 O488 2.373 . S
Eu472 O489 2.352 1_545 S
Eu472 O504 2.363 . S
Eu472 O505 2.363 . S
O473 Eu468 2.370 1_655 S
O473 Eu471 2.364 1_565 S
O473 Eu475 2.363 1_665 S
O474 Eu468 2.370 . S
O474 Eu472 2.364 1_565 S
O474 Eu476 2.365 1_565 S
Eu475 O470 2.363 1_545 S
Eu475 O473 2.363 1_445 S
Eu475 O477 2.377 1_455 S
Eu475 O480 2.377 . S
Eu475 O492 2.363 . S
Eu475 O493 2.363 1_455 S
Eu475 O500 2.351 1_545 S
Eu475 O501 2.375 . S
Eu476 O469 2.365 1_445 S
Eu476 O474 2.365 1_545 S
Eu476 O478 2.376 1_455 S
Eu476 O479 2.376 . S
Eu476 O490 2.363 . S
Eu476 O491 2.363 1_455 S
Eu476 O498 2.354 1_545 S
Eu476 O499 2.372 . S
O477 Eu471 2.376 . S
O477 Eu475 2.377 1_655 S
O477 Eu481 2.370 1_655 S
O478 Eu471 2.376 . S
O478 Eu476 2.376 1_655 S
O478 Eu481 2.370 1_655 S
O479 Eu472 2.376 . S
O479 Eu476 2.376 . S
O479 Eu481 2.370 . S
O480 Eu472 2.376 . S
O480 Eu475 2.377 . S
O480 Eu481 2.370 . S
Eu481 O477 2.370 1_455 S
Eu481 O478 2.370 1_455 S
Eu481 O479 2.370 . S
Eu481 O480 2.370 . S
Eu481 O484 2.363 . S
Eu481 O485 2.363 . S
Eu481 O494 2.363 . S
Eu481 O495 2.363 1_455 S
O482 C456 1.283 . S
O482 Eu468 2.363 . S
O483 C457 1.283 . S
O483 Eu468 2.363 . S
O484 C458 1.283 . S
O484 Eu481 2.363 . S
O485 C459 1.283 . S
O485 Eu481 2.363 . S
O486 C460 1.283 . S
O486 Eu471 2.374 . S
O487 C461 1.283 . S
O487 Eu471 2.352 1_565 S
O488 C462 1.283 . S
O488 Eu472 2.373 . S
O489 C463 1.283 . S
O489 Eu472 2.352 1_565 S
O490 C464 1.283 . S
O490 Eu476 2.363 . S
O491 C465 1.283 . S
O491 Eu476 2.363 1_655 S
O492 C466 1.283 . S
O492 Eu475 2.363 . S
O493 C467 1.283 . S
O493 Eu475 2.363 1_655 S
O494 C462 1.283 . S
O494 Eu481 2.363 . S
O495 C460 1.283 . S
O495 Eu481 2.363 1_655 S
O496 C463 1.283 . S
O496 Eu468 2.363 . S
O497 C461 1.283 . S
O497 Eu468 2.363 1_655 S
O498 C457 1.283 . S
O498 Eu476 2.354 1_565 S
O499 C459 1.283 . S
O499 Eu476 2.372 . S
O500 C456 1.283 . S
O500 Eu475 2.351 1_565 S
O501 C458 1.283 . S
O501 Eu475 2.375 . S
O502 C467 1.283 . S
O502 Eu471 2.363 . S
O503 C465 1.283 . S
O503 Eu471 2.363 . S
O504 C466 1.283 . S
O504 Eu472 2.363 . S
O505 C464 1.283 . S
O505 Eu472 2.363 . S
C506 O532 1.283 . S
C506 O550 1.283 . S
C507 O533 1.283 . S
C507 O548 1.283 . S
C508 O534 1.283 . S
C508 O551 1.283 . S
C509 O535 1.283 . S
C509 O549 1.283 . S
C510 O536 1.283 . S
C510 O545 1.283 . S
C511 O537 1.283 . S
C511 O547 1.283 . S
C512 O538 1.283 . S
C512 O544 1.283 . S
C513 O539 1.283 . S
C513 O546 1.283 . S
C514 O540 1.283 . S
C514 O555 1.283 . S
C515 O541 1.283 . S
C515 O553 1.283 . S
C516 O542 1.283 . S
C516 O554 1.283 . S
C517 O543 1.283 . S
C517 O552 1.283 . S
Eu518 O519 2.378 . S
Eu518 O520 2.363 1_545 S
Eu518 O523 2.363 1_545 S
Eu518 O524 2.378 . S
Eu518 O532 2.350 1_545 S
Eu518 O533 2.376 . S
Eu518 O546 2.363 . S
Eu518 O547 2.363 . S
O519 Eu518 2.378 . S
O519 Eu521 2.376 . S
O519 Eu526 2.370 . S
O520 Eu518 2.363 1_565 S
O520 Eu522 2.364 1_565 S
O520 Eu525 2.370 . S
Eu521 O519 2.376 . S
Eu521 O523 2.364 1_545 S
Eu521 O527 2.364 1_544 S
Eu521 O528 2.376 1_554 S
Eu521 O536 2.363 1_554 S
Eu521 O537 2.363 . S
Eu521 O552 2.353 1_545 S
Eu521 O553 2.372 . S
Eu522 O520 2.364 1_545 S
Eu522 O524 2.376 . S
Eu522 O529 2.376 1_554 S
Eu522 O530 2.364 1_544 S
Eu522 O538 2.363 1_554 S
Eu522 O539 2.363 . S
Eu522 O554 2.353 1_545 S
Eu522 O555 2.373 . S
O523 Eu518 2.363 1_565 S
O523 Eu521 2.364 1_565 S
O523 Eu525 2.370 . S
O524 Eu518 2.378 . S
O524 Eu522 2.376 . S
O524 Eu526 2.370 . S
Eu525 O520 2.370 . S
Eu525 O523 2.370 . S
Eu525 O527 2.370 1_554 S
Eu525 O530 2.370 1_554 S
Eu525 O542 2.363 . S
Eu525 O543 2.363 . S
Eu525 O550 2.363 . S
Eu525 O551 2.363 1_554 S
Eu526 O519 2.370 . S
Eu526 O524 2.370 . S
Eu526 O528 2.370 1_554 S
Eu526 O529 2.370 1_554 S
Eu526 O540 2.363 . S
Eu526 O541 2.363 . S
Eu526 O548 2.363 . S
Eu526 O549 2.363 1_554 S
O527 Eu521 2.364 1_566 S
O527 Eu525 2.370 1_556 S
O527 Eu531 2.366 1_565 S
O528 Eu521 2.376 1_556 S
O528 Eu526 2.370 1_556 S
O528 Eu531 2.374 . S
O529 Eu522 2.376 1_556 S
O529 Eu526 2.370 1_556 S
O529 Eu531 2.374 . S
O530 Eu522 2.364 1_566 S
O530 Eu525 2.370 1_556 S
O530 Eu531 2.366 1_565 S
Eu531 O527 2.366 1_545 S
Eu531 O528 2.374 . S
Eu531 O529 2.374 . S
Eu531 O530 2.366 1_545 S
Eu531 O534 2.356 1_545 S
Eu531 O535 2.370 . S
Eu531 O544 2.363 . S
Eu531 O545 2.363 . S
O532 C506 1.283 . S
O532 Eu518 2.350 1_565 S
O533 C507 1.283 . S
O533 Eu518 2.376 . S
O534 C508 1.283 . S
O534 Eu531 2.356 1_565 S
O535 C509 1.283 . S
O535 Eu531 2.370 . S
O536 C510 1.283 . S
O536 Eu521 2.363 1_556 S
O537 C511 1.283 . S
O537 Eu521 2.363 . S
O538 C512 1.283 . S
O538 Eu522 2.363 1_556 S
O539 C513 1.283 . S
O539 Eu522 2.363 . S
O540 C514 1.283 . S
O540 Eu526 2.363 . S
O541 C515 1.283 . S
O541 Eu526 2.363 . S
O542 C516 1.283 . S
O542 Eu525 2.363 . S
O543 C517 1.283 . S
O543 Eu525 2.363 . S
O544 C512 1.283 . S
O544 Eu531 2.363 . S
O545 C510 1.283 . S
O545 Eu531 2.363 . S
O546 C513 1.283 . S
O546 Eu518 2.363 . S
O547 C511 1.283 . S
O547 Eu518 2.363 . S
O548 C507 1.283 . S
O548 Eu526 2.363 . S
O549 C509 1.283 . S
O549 Eu526 2.363 1_556 S
O550 C506 1.283 . S
O550 Eu525 2.363 . S
O551 C508 1.283 . S
O551 Eu525 2.363 1_556 S
O552 C517 1.283 . S
O552 Eu521 2.353 1_565 S
O553 C515 1.283 . S
O553 Eu521 2.372 . S
O554 C516 1.283 . S
O554 Eu522 2.353 1_565 S
O555 C514 1.283 . S
O555 Eu522 2.373 . S
C556 O582 1.283 . S
C556 O600 1.283 . S
C557 O583 1.283 . S
C557 O598 1.283 . S
C558 O584 1.283 . S
C558 O601 1.283 . S
C559 O585 1.283 . S
C559 O599 1.283 . S
C560 O586 1.283 . S
C560 O595 1.283 . S
C561 O587 1.283 . S
C561 O597 1.283 . S
C562 O588 1.283 . S
C562 O594 1.283 . S
C563 O589 1.283 . S
C563 O596 1.283 . S
C564 O590 1.283 . S
C564 O605 1.283 . S
C565 O591 1.283 . S
C565 O603 1.283 . S
C566 O592 1.283 . S
C566 O604 1.283 . S
C567 O593 1.283 . S
C567 O602 1.283 . S
Eu568 O569 2.370 1_454 S
Eu568 O570 2.370 . S
Eu568 O573 2.370 1_455 S
Eu568 O574 2.370 1_554 S
Eu568 O582 2.363 . S
Eu568 O583 2.363 1_554 S
Eu568 O596 2.363 . S
Eu568 O597 2.363 1_455 S
O569 Eu568 2.370 1_656 S
O569 Eu571 2.370 1_556 S
O569 Eu576 2.370 1_655 S
O570 Eu568 2.370 . S
O570 Eu572 2.370 . S
O570 Eu575 2.370 . S
Eu571 O569 2.370 1_554 S
Eu571 O573 2.370 . S
Eu571 O577 2.370 . S
Eu571 O578 2.370 1_554 S
Eu571 O586 2.363 . S
Eu571 O587 2.363 . S
Eu571 O602 2.363 . S
Eu571 O603 2.363 1_554 S
Eu572 O570 2.370 . S
Eu572 O574 2.370 1_554 S
Eu572 O579 2.370 1_554 S
Eu572 O580 2.370 . S
Eu572 O588 2.363 . S
Eu572 O589 2.363 . S
Eu572 O604 2.363 . S
Eu572 O605 2.363 1_554 S
O573 Eu568 2.370 1_655 S
O573 Eu571 2.370 . S
O573 Eu575 2.370 1_655 S
O574 Eu568 2.370 1_556 S
O574 Eu572 2.370 1_556 S
O574 Eu576 2.370 . S
Eu575 O570 2.370 . S
Eu575 O573 2.370 1_455 S
Eu575 O577 2.370 1_455 S
Eu575 O580 2.370 . S
Eu575 O592 2.363 . S
Eu575 O593 2.363 1_455 S
Eu575 O600 2.363 . S
Eu575 O601 2.363 . S
Eu576 O569 2.370 1_455 S
Eu576 O574 2.370 . S
Eu576 O578 2.370 1_455 S
Eu576 O579 2.370 . S
Eu576 O590 2.363 . S
Eu576 O591 2.363 1_455 S
Eu576 O598 2.363 . S
Eu576 O599 2.363 . S
O577 Eu571 2.370 . S
O577 Eu575 2.370 1_655 S
O577 Eu581 2.370 1_655 S
O578 Eu571 2.370 1_556 S
O578 Eu576 2.370 1_655 S
O578 Eu581 2.370 1_656 S
O579 Eu572 2.370 1_556 S
O579 Eu576 2.370 . S
O579 Eu581 2.370 1_556 S
O580 Eu572 2.370 . S
O580 Eu575 2.370 . S
O580 Eu581 2.370 . S
Eu581 O577 2.370 1_455 S
Eu581 O578 2.370 1_454 S
Eu581 O579 2.370 1_554 S
Eu581 O580 2.370 . S
Eu581 O584 2.363 . S
Eu581 O585 2.363 1_554 S
Eu581 O594 2.363 . S
Eu581 O595 2.363 1_455 S
O582 C556 1.283 . S
O582 Eu568 2.363 . S
O583 C557 1.283 . S
O583 Eu568 2.363 1_556 S
O584 C558 1.283 . S
O584 Eu581 2.363 . S
O585 C559 1.283 . S
O585 Eu581 2.363 1_556 S
O586 C560 1.283 . S
O586 Eu571 2.363 . S
O587 C561 1.283 . S
O587 Eu571 2.363 . S
O588 C562 1.283 . S
O588 Eu572 2.363 . S
O589 C563 1.283 . S
O589 Eu572 2.363 . S
O590 C564 1.283 . S
O590 Eu576 2.363 . S
O591 C565 1.283 . S
O591 Eu576 2.363 1_655 S
O592 C566 1.283 . S
O592 Eu575 2.363 . S
O593 C567 1.283 . S
O593 Eu575 2.363 1_655 S
O594 C562 1.283 . S
O594 Eu581 2.363 . S
O595 C560 1.283 . S
O595 Eu581 2.363 1_655 S
O596 C563 1.283 . S
O596 Eu568 2.363 . S
O597 C561 1.283 . S
O597 Eu568 2.363 1_655 S
O598 C557 1.283 . S
O598 Eu576 2.363 . S
O599 C559 1.283 . S
O599 Eu576 2.363 . S
O600 C556 1.283 . S
O600 Eu575 2.363 . S
O601 C558 1.283 . S
O601 Eu575 2.363 . S
O602 C567 1.283 . S
O602 Eu571 2.363 . S
O603 C565 1.283 . S
O603 Eu571 2.363 1_556 S
O604 C566 1.283 . S
O604 Eu572 2.363 . S
O605 C564 1.283 . S
O605 Eu572 2.363 1_556 S
C606 O632 1.283 . S
C606 O650 1.283 . S
C607 O633 1.283 . S
C607 O648 1.283 . S
C608 O634 1.283 . S
C608 O651 1.283 . S
C609 O635 1.283 . S
C609 O649 1.283 . S
C610 O636 1.283 . S
C610 O645 1.283 . S
C611 O637 1.283 . S
C611 O647 1.283 . S
C612 O638 1.283 . S
C612 O644 1.283 . S
C613 O639 1.283 . S
C613 O646 1.283 . S
C614 O640 1.283 . S
C614 O655 1.283 . S
C615 O641 1.283 . S
C615 O653 1.283 . S
C616 O642 1.283 . S
C616 O654 1.283 . S
C617 O643 1.283 . S
C617 O652 1.283 . S
Eu618 O619 2.370 . S
Eu618 O620 2.370 . S
Eu618 O623 2.370 . S
Eu618 O624 2.370 . S
Eu618 O632 2.363 . S
Eu618 O633 2.363 . S
Eu618 O646 2.363 . S
Eu618 O647 2.363 . S
O619 Eu618 2.370 . S
O619 Eu621 2.370 . S
O619 Eu626 2.370 . S
O620 Eu618 2.370 . S
O620 Eu622 2.370 . S
O620 Eu625 2.370 . S
Eu621 O619 2.370 . S
Eu621 O623 2.370 . S
Eu621 O627 2.370 1_554 S
Eu621 O628 2.370 1_554 S
Eu621 O636 2.363 1_554 S
Eu621 O637 2.363 . S
Eu621 O652 2.363 . S
Eu621 O653 2.363 . S
Eu622 O620 2.370 . S
Eu622 O624 2.370 . S
Eu622 O629 2.370 1_554 S
Eu622 O630 2.370 1_554 S
Eu622 O638 2.363 1_554 S
Eu622 O639 2.363 . S
Eu622 O654 2.363 . S
Eu622 O655 2.363 . S
O623 Eu618 2.370 . S
O623 Eu621 2.370 . S
O623 Eu625 2.370 . S
O624 Eu618 2.370 . S
O624 Eu622 2.370 . S
O624 Eu626 2.370 . S
Eu625 O620 2.370 . S
Eu625 O623 2.370 . S
Eu625 O627 2.370 1_554 S
Eu625 O630 2.370 1_554 S
Eu625 O642 2.363 . S
Eu625 O643 2.363 . S
Eu625 O650 2.363 . S
Eu625 O651 2.363 1_554 S
Eu626 O619 2.370 . S
Eu626 O624 2.370 . S
Eu626 O628 2.370 1_554 S
Eu626 O629 2.370 1_554 S
Eu626 O640 2.363 . S
Eu626 O641 2.363 . S
Eu626 O648 2.363 . S
Eu626 O649 2.363 1_554 S
O627 Eu621 2.370 1_556 S
O627 Eu625 2.370 1_556 S
O627 Eu631 2.370 . S
O628 Eu621 2.370 1_556 S
O628 Eu626 2.370 1_556 S
O628 Eu631 2.370 . S
O629 Eu622 2.370 1_556 S
O629 Eu626 2.370 1_556 S
O629 Eu631 2.370 . S
O630 Eu622 2.370 1_556 S
O630 Eu625 2.370 1_556 S
O630 Eu631 2.370 . S
Eu631 O627 2.370 . S
Eu631 O628 2.370 . S
Eu631 O629 2.370 . S
Eu631 O630 2.370 . S
Eu631 O634 2.363 . S
Eu631 O635 2.363 . S
Eu631 O644 2.363 . S
Eu631 O645 2.363 . S
O632 C606 1.283 . S
O632 Eu618 2.363 . S
O633 C607 1.283 . S
O633 Eu618 2.363 . S
O634 C608 1.283 . S
O634 Eu631 2.363 . S
O635 C609 1.283 . S
O635 Eu631 2.363 . S
O636 C610 1.283 . S
O636 Eu621 2.363 1_556 S
O637 C611 1.283 . S
O637 Eu621 2.363 . S
O638 C612 1.283 . S
O638 Eu622 2.363 1_556 S
O639 C613 1.283 . S
O639 Eu622 2.363 . S
O640 C614 1.283 . S
O640 Eu626 2.363 . S
O641 C615 1.283 . S
O641 Eu626 2.363 . S
O642 C616 1.283 . S
O642 Eu625 2.363 . S
O643 C617 1.283 . S
O643 Eu625 2.363 . S
O644 C612 1.283 . S
O644 Eu631 2.363 . S
O645 C610 1.283 . S
O645 Eu631 2.363 . S
O646 C613 1.283 . S
O646 Eu618 2.363 . S
O647 C611 1.283 . S
O647 Eu618 2.363 . S
O648 C607 1.283 . S
O648 Eu626 2.363 . S
O649 C609 1.283 . S
O649 Eu626 2.363 1_556 S
O650 C606 1.283 . S
O650 Eu625 2.363 . S
O651 C608 1.283 . S
O651 Eu625 2.363 1_556 S
O652 C617 1.283 . S
O652 Eu621 2.363 . S
O653 C615 1.283 . S
O653 Eu621 2.363 . S
O654 C616 1.283 . S
O654 Eu622 2.363 . S
O655 C614 1.283 . S
O655 Eu622 2.363 . S
C656 O682 1.283 . S
C656 O700 1.283 . S
C657 O683 1.283 . S
C657 O698 1.283 . S
C658 O684 1.283 . S
C658 O701 1.283 . S
C659 O685 1.283 . S
C659 O699 1.283 . S
C660 O686 1.283 . S
C660 O695 1.283 . S
C661 O687 1.283 . S
C661 O697 1.283 . S
C662 O688 1.283 . S
C662 O694 1.283 . S
C663 O689 1.283 . S
C663 O696 1.283 . S
C664 O690 1.283 . S
C664 O705 1.283 . S
C665 O691 1.283 . S
C665 O703 1.283 . S
C666 O692 1.283 . S
C666 O704 1.283 . S
C667 O693 1.283 . S
C667 O702 1.283 . S
Eu668 O669 2.370 1_455 S
Eu668 O670 2.370 . S
Eu668 O673 2.370 1_455 S
Eu668 O674 2.370 . S
Eu668 O682 2.363 . S
Eu668 O683 2.363 . S
Eu668 O696 2.363 . S
Eu668 O697 2.363 1_455 S
O669 Eu668 2.370 1_655 S
O669 Eu671 2.370 . S
O669 Eu676 2.370 1_655 S
O670 Eu668 2.370 . S
O670 Eu672 2.370 . S
O670 Eu675 2.370 . S
Eu671 O669 2.370 . S
Eu671 O673 2.370 . S
Eu671 O677 2.370 . S
Eu671 O678 2.370 . S
Eu671 O686 2.363 . S
Eu671 O687 2.363 . S
Eu671 O702 2.363 . S
Eu671 O703 2.363 . S
Eu672 O670 2.370 . S
Eu672 O674 2.370 . S
Eu672 O679 2.370 . S
Eu672 O680 2.370 . S
Eu672 O688 2.363 . S
Eu672 O689 2.363 . S
Eu672 O704 2.363 . S
Eu672 O705 2.363 . S
O673 Eu668 2.370 1_655 S
O673 Eu671 2.370 . S
O673 Eu675 2.370 1_655 S
O674 Eu668 2.370 . S
O674 Eu672 2.370 . S
O674 Eu676 2.370 . S
Eu675 O670 2.370 . S
Eu675 O673 2.370 1_455 S
Eu675 O677 2.370 1_455 S
Eu675 O680 2.370 . S
Eu675 O692 2.363 . S
Eu675 O693 2.363 1_455 S
Eu675 O700 2.363 . S
Eu675 O701 2.363 . S
Eu676 O669 2.370 1_455 S
Eu676 O674 2.370 . S
Eu676 O678 2.370 1_455 S
Eu676 O679 2.370 . S
Eu676 O690 2.363 . S
Eu676 O691 2.363 1_455 S
Eu676 O698 2.363 . S
Eu676 O699 2.363 . S
O677 Eu671 2.370 . S
O677 Eu675 2.370 1_655 S
O677 Eu681 2.370 1_655 S
O678 Eu671 2.370 . S
O678 Eu676 2.370 1_655 S
O678 Eu681 2.370 1_655 S
O679 Eu672 2.370 . S
O679 Eu676 2.370 . S
O679 Eu681 2.370 . S
O680 Eu672 2.370 . S
O680 Eu675 2.370 . S
O680 Eu681 2.370 . S
Eu681 O677 2.370 1_455 S
Eu681 O678 2.370 1_455 S
Eu681 O679 2.370 . S
Eu681 O680 2.370 . S
Eu681 O684 2.363 . S
Eu681 O685 2.363 . S
Eu681 O694 2.363 . S
Eu681 O695 2.363 1_455 S
O682 C656 1.283 . S
O682 Eu668 2.363 . S
O683 C657 1.283 . S
O683 Eu668 2.363 . S
O684 C658 1.283 . S
O684 Eu681 2.363 . S
O685 C659 1.283 . S
O685 Eu681 2.363 . S
O686 C660 1.283 . S
O686 Eu671 2.363 . S
O687 C661 1.283 . S
O687 Eu671 2.363 . S
O688 C662 1.283 . S
O688 Eu672 2.363 . S
O689 C663 1.283 . S
O689 Eu672 2.363 . S
O690 C664 1.283 . S
O690 Eu676 2.363 . S
O691 C665 1.283 . S
O691 Eu676 2.363 1_655 S
O692 C666 1.283 . S
O692 Eu675 2.363 . S
O693 C667 1.283 . S
O693 Eu675 2.363 1_655 S
O694 C662 1.283 . S
O694 Eu681 2.363 . S
O695 C660 1.283 . S
O695 Eu681 2.363 1_655 S
O696 C663 1.283 . S
O696 Eu668 2.363 . S
O697 C661 1.283 . S
O697 Eu668 2.363 1_655 S
O698 C657 1.283 . S
O698 Eu676 2.363 . S
O699 C659 1.283 . S
O699 Eu676 2.363 . S
O700 C656 1.283 . S
O700 Eu675 2.363 . S
O701 C658 1.283 . S
O701 Eu675 2.363 . S
O702 C667 1.283 . S
O702 Eu671 2.363 . S
O703 C665 1.283 . S
O703 Eu671 2.363 . S
O704 C666 1.283 . S
O704 Eu672 2.363 . S
O705 C664 1.283 . S
O705 Eu672 2.363 . S
C706 O732 1.283 . S
C706 O750 1.283 . S
C707 O733 1.283 . S
C707 O748 1.283 . S
C708 O734 1.283 . S
C708 O751 1.283 . S
C709 O735 1.283 . S
C709 O749 1.283 . S
C710 O736 1.283 . S
C710 O745 1.283 . S
C711 O737 1.283 . S
C711 O747 1.283 . S
C712 O738 1.283 . S
C712 O744 1.283 . S
C713 O739 1.283 . S
C713 O746 1.283 . S
C714 O740 1.283 . S
C714 O755 1.283 . S
C715 O741 1.283 . S
C715 O753 1.283 . S
C716 O742 1.283 . S
C716 O754 1.283 . S
C717 O743 1.283 . S
C717 O752 1.283 . S
Eu718 O719 2.370 . S
Eu718 O720 2.370 . S
Eu718 O723 2.370 . S
Eu718 O724 2.370 . S
Eu718 O732 2.363 . S
Eu718 O733 2.363 . S
Eu718 O746 2.363 . S
Eu718 O747 2.363 . S
O719 Eu718 2.370 . S
O719 Eu721 2.364 1_565 S
O719 Eu726 2.365 1_565 S
O720 Eu718 2.370 . S
O720 Eu722 2.364 1_565 S
O720 Eu725 2.363 1_565 S
Eu721 O719 2.364 1_545 S
Eu721 O723 2.364 1_545 S
Eu721 O727 2.376 . S
Eu721 O728 2.376 . S
Eu721 O736 2.373 . S
Eu721 O737 2.353 1_545 S
Eu721 O752 2.363 . S
Eu721 O753 2.363 . S
Eu722 O720 2.364 1_545 S
Eu722 O724 2.364 1_545 S
Eu722 O729 2.376 . S
Eu722 O730 2.376 . S
Eu722 O738 2.373 . S
Eu722 O739 2.353 1_545 S
Eu722 O754 2.363 . S
Eu722 O755 2.363 . S
O723 Eu718 2.370 . S
O723 Eu721 2.364 1_565 S
O723 Eu725 2.363 1_565 S
O724 Eu718 2.370 . S
O724 Eu722 2.364 1_565 S
O724 Eu726 2.365 1_565 S
Eu725 O720 2.363 1_545 S
Eu725 O723 2.363 1_545 S
Eu725 O727 2.377 . S
Eu725 O730 2.377 . S
Eu725 O742 2.363 . S
Eu725 O743 2.363 . S
Eu725 O750 2.351 1_545 S
Eu725 O751 2.375 . S
Eu726 O719 2.365 1_545 S
Eu726 O724 2.365 1_545 S
Eu726 O728 2.375 . S
Eu726 O729 2.375 . S
Eu726 O740 2.363 . S
Eu726 O741 2.363 . S
Eu726 O748 2.354 1_545 S
Eu726 O749 2.371 . S
O727 Eu721 2.376 . S
O727 Eu725 2.377 . S
O727 Eu731 2.370 . S
O728 Eu721 2.376 . S
O728 Eu726 2.375 . S
O728 Eu731 2.370 . S
O729 Eu722 2.376 . S
O729 Eu726 2.375 . S
O729 Eu731 2.370 . S
O730 Eu722 2.376 . S
O730 Eu725 2.377 . S
O730 Eu731 2.370 . S
Eu731 O727 2.370 . S
Eu731 O728 2.370 . S
Eu731 O729 2.370 . S
Eu731 O730 2.370 . S
Eu731 O734 2.363 . S
Eu731 O735 2.363 . S
Eu731 O744 2.363 . S
Eu731 O745 2.363 . S
O732 C706 1.283 . S
O732 Eu718 2.363 . S
O733 C707 1.283 . S
O733 Eu718 2.363 . S
O734 C708 1.283 . S
O734 Eu731 2.363 . S
O735 C709 1.283 . S
O735 Eu731 2.363 . S
O736 C710 1.283 . S
O736 Eu721 2.373 . S
O737 C711 1.283 . S
O737 Eu721 2.353 1_565 S
O738 C712 1.283 . S
O738 Eu722 2.373 . S
O739 C713 1.283 . S
O739 Eu722 2.353 1_565 S
O740 C714 1.283 . S
O740 Eu726 2.363 . S
O741 C715 1.283 . S
O741 Eu726 2.363 . S
O742 C716 1.283 . S
O742 Eu725 2.363 . S
O743 C717 1.283 . S
O743 Eu725 2.363 . S
O744 C712 1.283 . S
O744 Eu731 2.363 . S
O745 C710 1.283 . S
O745 Eu731 2.363 . S
O746 C713 1.283 . S
O746 Eu718 2.363 . S
O747 C711 1.283 . S
O747 Eu718 2.363 . S
O748 C707 1.283 . S
O748 Eu726 2.354 1_565 S
O749 C709 1.283 . S
O749 Eu726 2.371 . S
O750 C706 1.283 . S
O750 Eu725 2.351 1_565 S
O751 C708 1.283 . S
O751 Eu725 2.375 . S
O752 C717 1.283 . S
O752 Eu721 2.363 . S
O753 C715 1.283 . S
O753 Eu721 2.363 . S
O754 C716 1.283 . S
O754 Eu722 2.363 . S
O755 C714 1.283 . S
O755 Eu722 2.363 . S
H756 C762 0.930 . S
H757 C765 0.930 . S
H758 C766 0.930 . S
H759 C767 0.930 . S
H760 C770 0.930 . S
H761 C771 0.930 . S
C762 H756 0.930 . S
C762 C763 1.355 . S
C762 C764 1.415 . S
C763 C762 1.355 . S
C763 C765 1.419 . S
C764 C762 1.415 . S
C764 C769 1.425 . S
C764 C771 1.409 . S
C765 H757 0.930 . S
C765 C763 1.419 . S
C765 C766 1.362 . S
C766 H758 0.930 . S
C766 C765 1.362 . S
C766 C769 1.409 . S
C767 H759 0.930 . S
C767 C768 1.355 . S
C767 C769 1.415 . S
C768 C767 1.355 . S
C768 C770 1.419 . S
C769 C764 1.425 . S
C769 C766 1.409 . S
C769 C767 1.415 . S
C770 H760 0.930 . S
C770 C768 1.419 . S
C770 C771 1.362 . S
C771 H761 0.930 . S
C771 C764 1.409 . S
C771 C770 1.362 . S
H772 C778 0.930 . S
H773 C781 0.930 . S
H774 C782 0.930 . S
H775 C783 0.930 . S
H776 C786 0.930 . S
H777 C787 0.930 . S
C778 H772 0.930 . S
C778 C779 1.355 . S
C778 C780 1.415 . S
C779 C778 1.355 . S
C779 C781 1.419 . S
C780 C778 1.415 . S
C780 C785 1.425 . S
C780 C787 1.409 . S
C781 H773 0.930 . S
C781 C779 1.419 . S
C781 C782 1.362 . S
C782 H774 0.930 . S
C782 C781 1.362 . S
C782 C785 1.409 . S
C783 H775 0.930 . S
C783 C784 1.355 . S
C783 C785 1.415 . S
C784 C783 1.355 . S
C784 C786 1.419 . S
C785 C780 1.425 . S
C785 C782 1.409 . S
C785 C783 1.415 . S
C786 H776 0.930 . S
C786 C784 1.419 . S
C786 C787 1.362 . S
C787 H777 0.930 . S
C787 C780 1.409 . S
C787 C786 1.362 . S
H788 C794 0.930 . S
H789 C797 0.930 . S
H790 C798 0.930 . S
H791 C799 0.930 . S
H792 C802 0.930 . S
H793 C803 0.930 . S
C794 H788 0.930 . S
C794 C795 1.355 . S
C794 C796 1.415 . S
C795 C794 1.355 . S
C795 C797 1.419 . S
C796 C794 1.415 . S
C796 C801 1.425 . S
C796 C803 1.409 . S
C797 H789 0.930 . S
C797 C795 1.419 . S
C797 C798 1.362 . S
C798 H790 0.930 . S
C798 C797 1.362 . S
C798 C801 1.409 . S
C799 H791 0.930 . S
C799 C800 1.355 . S
C799 C801 1.415 . S
C800 C799 1.355 . S
C800 C802 1.419 . S
C801 C796 1.425 . S
C801 C798 1.409 . S
C801 C799 1.415 . S
C802 H792 0.930 . S
C802 C800 1.419 . S
C802 C803 1.362 . S
C803 H793 0.930 . S
C803 C796 1.409 . S
C803 C802 1.362 . S
H804 C810 0.930 . S
H805 C813 0.930 . S
H806 C814 0.930 . S
H807 C815 0.930 . S
H808 C818 0.930 . S
H809 C819 0.930 . S
C810 H804 0.930 . S
C810 C811 1.355 . S
C810 C812 1.415 . S
C811 C810 1.355 . S
C811 C813 1.419 . S
C812 C810 1.415 . S
C812 C817 1.425 . S
C812 C819 1.409 . S
C813 H805 0.930 . S
C813 C811 1.419 . S
C813 C814 1.362 . S
C814 H806 0.930 . S
C814 C813 1.362 . S
C814 C817 1.409 . S
C815 H807 0.930 . S
C815 C816 1.355 . S
C815 C817 1.415 . S
C816 C815 1.355 . S
C816 C818 1.419 . S
C817 C812 1.425 . S
C817 C814 1.409 . S
C817 C815 1.415 . S
C818 H808 0.930 . S
C818 C816 1.419 . S
C818 C819 1.362 . S
C819 H809 0.930 . S
C819 C812 1.409 . S
C819 C818 1.362 . S
H820 C826 0.930 . S
H821 C829 0.930 . S
H822 C830 0.930 . S
H823 C831 0.930 . S
H824 C834 0.930 . S
H825 C835 0.930 . S
C826 H820 0.930 . S
C826 C827 1.355 . S
C826 C828 1.415 . S
C827 C826 1.355 . S
C827 C829 1.419 . S
C828 C826 1.415 . S
C828 C833 1.425 . S
C828 C835 1.409 . S
C829 H821 0.930 . S
C829 C827 1.419 . S
C829 C830 1.362 . S
C830 H822 0.930 . S
C830 C829 1.362 . S
C830 C833 1.409 . S
C831 H823 0.930 . S
C831 C832 1.355 . S
C831 C833 1.415 . S
C832 C831 1.355 . S
C832 C834 1.419 . S
C833 C828 1.425 . S
C833 C830 1.409 . S
C833 C831 1.415 . S
C834 H824 0.930 . S
C834 C832 1.419 . S
C834 C835 1.362 . S
C835 H825 0.930 . S
C835 C828 1.409 . S
C835 C834 1.362 . S
H836 C842 0.930 . S
H837 C845 0.930 . S
H838 C846 0.930 . S
H839 C847 0.930 . S
H840 C850 0.930 . S
H841 C851 0.930 . S
C842 H836 0.930 . S
C842 C843 1.355 . S
C842 C844 1.415 . S
C843 C842 1.355 . S
C843 C845 1.419 . S
C844 C842 1.415 . S
C844 C849 1.425 . S
C844 C851 1.409 . S
C845 H837 0.930 . S
C845 C843 1.419 . S
C845 C846 1.362 . S
C846 H838 0.930 . S
C846 C845 1.362 . S
C846 C849 1.409 . S
C847 H839 0.930 . S
C847 C848 1.355 . S
C847 C849 1.415 . S
C848 C847 1.355 . S
C848 C850 1.419 . S
C849 C844 1.425 . S
C849 C846 1.409 . S
C849 C847 1.415 . S
C850 H840 0.930 . S
C850 C848 1.419 . S
C850 C851 1.362 . S
C851 H841 0.930 . S
C851 C844 1.409 . S
C851 C850 1.362 . S
H852 C858 0.930 . S
H853 C861 0.930 . S
H854 C862 0.930 . S
H855 C863 0.930 . S
H856 C866 0.930 . S
H857 C867 0.930 . S
C858 H852 0.930 . S
C858 C859 1.355 . S
C858 C860 1.415 . S
C859 C858 1.355 . S
C859 C861 1.419 . S
C860 C858 1.415 . S
C860 C865 1.425 . S
C860 C867 1.409 . S
C861 H853 0.930 . S
C861 C859 1.419 . S
C861 C862 1.362 . S
C862 H854 0.930 . S
C862 C861 1.362 . S
C862 C865 1.409 . S
C863 H855 0.930 . S
C863 C864 1.355 . S
C863 C865 1.415 . S
C864 C863 1.355 . S
C864 C866 1.419 . S
C865 C860 1.425 . S
C865 C862 1.409 . S
C865 C863 1.415 . S
C866 H856 0.930 . S
C866 C864 1.419 . S
C866 C867 1.362 . S
C867 H857 0.930 . S
C867 C860 1.409 . S
C867 C866 1.362 . S
H868 C874 0.930 . S
H869 C877 0.930 . S
H870 C878 0.930 . S
H871 C879 0.930 . S
H872 C882 0.930 . S
H873 C883 0.930 . S
C874 H868 0.930 . S
C874 C875 1.355 . S
C874 C876 1.415 . S
C875 C874 1.355 . S
C875 C877 1.419 . S
C876 C874 1.415 . S
C876 C881 1.425 . S
C876 C883 1.409 . S
C877 H869 0.930 . S
C877 C875 1.419 . S
C877 C878 1.362 . S
C878 H870 0.930 . S
C878 C877 1.362 . S
C878 C881 1.409 . S
C879 H871 0.930 . S
C879 C880 1.355 . S
C879 C881 1.415 . S
C880 C879 1.355 . S
C880 C882 1.419 . S
C881 C876 1.425 . S
C881 C878 1.409 . S
C881 C879 1.415 . S
C882 H872 0.930 . S
C882 C880 1.419 . S
C882 C883 1.362 . S
C883 H873 0.930 . S
C883 C876 1.409 . S
C883 C882 1.362 . S
H884 C890 0.930 . S
H885 C893 0.930 . S
H886 C894 0.930 . S
H887 C895 0.930 . S
H888 C898 0.930 . S
H889 C899 0.930 . S
C890 H884 0.930 . S
C890 C891 1.355 . S
C890 C892 1.415 . S
C891 C890 1.355 . S
C891 C893 1.419 . S
C892 C890 1.415 . S
C892 C897 1.425 . S
C892 C899 1.409 . S
C893 H885 0.930 . S
C893 C891 1.419 . S
C893 C894 1.362 . S
C894 H886 0.930 . S
C894 C893 1.362 . S
C894 C897 1.409 . S
C895 H887 0.930 . S
C895 C896 1.355 . S
C895 C897 1.415 . S
C896 C895 1.355 . S
C896 C898 1.419 . S
C897 C892 1.425 . S
C897 C894 1.409 . S
C897 C895 1.415 . S
C898 H888 0.930 . S
C898 C896 1.419 . S
C898 C899 1.362 . S
C899 H889 0.930 . S
C899 C892 1.409 . S
C899 C898 1.362 . S
H900 C906 0.930 . S
H901 C909 0.930 . S
H902 C910 0.930 . S
H903 C911 0.930 . S
H904 C914 0.930 . S
H905 C915 0.930 . S
C906 H900 0.930 . S
C906 C907 1.355 . S
C906 C908 1.415 . S
C907 C906 1.355 . S
C907 C909 1.419 . S
C908 C906 1.415 . S
C908 C913 1.425 . S
C908 C915 1.409 . S
C909 H901 0.930 . S
C909 C907 1.419 . S
C909 C910 1.362 . S
C910 H902 0.930 . S
C910 C909 1.362 . S
C910 C913 1.409 . S
C911 H903 0.930 . S
C911 C912 1.355 . S
C911 C913 1.415 . S
C912 C911 1.355 . S
C912 C914 1.419 . S
C913 C908 1.425 . S
C913 C910 1.409 . S
C913 C911 1.415 . S
C914 H904 0.930 . S
C914 C912 1.419 . S
C914 C915 1.362 . S
C915 H905 0.930 . S
C915 C908 1.409 . S
C915 C914 1.362 . S
H916 C922 0.930 . S
H917 C925 0.930 . S
H918 C926 0.930 . S
H919 C927 0.930 . S
H920 C930 0.930 . S
H921 C931 0.930 . S
C922 H916 0.930 . S
C922 C923 1.355 . S
C922 C924 1.415 . S
C923 C922 1.355 . S
C923 C925 1.419 . S
C924 C922 1.415 . S
C924 C929 1.425 . S
C924 C931 1.409 . S
C925 H917 0.930 . S
C925 C923 1.419 . S
C925 C926 1.362 . S
C926 H918 0.930 . S
C926 C925 1.362 . S
C926 C929 1.409 . S
C927 H919 0.930 . S
C927 C928 1.355 . S
C927 C929 1.415 . S
C928 C927 1.355 . S
C928 C930 1.419 . S
C929 C924 1.425 . S
C929 C926 1.409 . S
C929 C927 1.415 . S
C930 H920 0.930 . S
C930 C928 1.419 . S
C930 C931 1.362 . S
C931 H921 0.930 . S
C931 C924 1.409 . S
C931 C930 1.362 . S
H932 C938 0.930 . S
H933 C941 0.930 . S
H934 C942 0.930 . S
H935 C943 0.930 . S
H936 C946 0.930 . S
H937 C947 0.930 . S
C938 H932 0.930 . S
C938 C939 1.355 . S
C938 C940 1.415 . S
C939 C938 1.355 . S
C939 C941 1.419 . S
C940 C938 1.415 . S
C940 C945 1.425 . S
C940 C947 1.409 . S
C941 H933 0.930 . S
C941 C939 1.419 . S
C941 C942 1.362 . S
C942 H934 0.930 . S
C942 C941 1.362 . S
C942 C945 1.409 . S
C943 H935 0.930 . S
C943 C944 1.355 . S
C943 C945 1.415 . S
C944 C943 1.355 . S
C944 C946 1.419 . S
C945 C940 1.425 . S
C945 C942 1.409 . S
C945 C943 1.415 . S
C946 H936 0.930 . S
C946 C944 1.419 . S
C946 C947 1.362 . S
C947 H937 0.930 . S
C947 C940 1.409 . S
C947 C946 1.362 . S
H948 C954 0.930 . S
H949 C957 0.930 . S
H950 C958 0.930 . S
H951 C959 0.930 . S
H952 C962 0.930 . S
H953 C963 0.930 . S
C954 H948 0.930 . S
C954 C955 1.355 . S
C954 C956 1.415 . S
C955 C954 1.355 . S
C955 C957 1.419 . S
C956 C954 1.415 . S
C956 C961 1.425 . S
C956 C963 1.409 . S
C957 H949 0.930 . S
C957 C955 1.419 . S
C957 C958 1.362 . S
C958 H950 0.930 . S
C958 C957 1.362 . S
C958 C961 1.409 . S
C959 H951 0.930 . S
C959 C960 1.355 . S
C959 C961 1.415 . S
C960 C959 1.355 . S
C960 C962 1.419 . S
C961 C956 1.425 . S
C961 C958 1.409 . S
C961 C959 1.415 . S
C962 H952 0.930 . S
C962 C960 1.419 . S
C962 C963 1.362 . S
C963 H953 0.930 . S
C963 C956 1.409 . S
C963 C962 1.362 . S
H964 C970 0.923 1_556 S
H965 C973 0.930 . S
H966 C974 0.930 . S
H967 C975 0.930 . S
H968 C978 0.930 . S
H969 C979 0.930 . S
C970 H964 0.923 1_554 S
C970 C971 1.360 . S
C970 C972 1.415 . S
C971 C970 1.360 . S
C971 C973 1.419 . S
C972 C970 1.415 . S
C972 C977 1.425 . S
C972 C979 1.409 1_554 S
C973 H965 0.930 . S
C973 C971 1.419 . S
C973 C974 1.362 . S
C974 H966 0.930 . S
C974 C973 1.362 . S
C974 C977 1.409 . S
C975 H967 0.930 . S
C975 C976 1.355 . S
C975 C977 1.415 . S
C976 C975 1.355 . S
C976 C978 1.419 1_554 S
C977 C972 1.425 . S
C977 C974 1.409 . S
C977 C975 1.415 . S
C978 H968 0.930 . S
C978 C976 1.419 1_556 S
C978 C979 1.362 . S
C979 H969 0.930 . S
C979 C972 1.409 1_556 S
C979 C978 1.362 . S
H980 C986 0.930 . S
H981 C989 0.930 . S
H982 C990 0.930 . S
H983 C991 0.930 . S
H984 C994 0.930 . S
H985 C995 0.930 . S
C986 H980 0.930 . S
C986 C987 1.355 1_556 S
C986 C988 1.415 . S
C987 C986 1.355 1_554 S
C987 C989 1.419 . S
C988 C986 1.415 . S
C988 C993 1.425 1_556 S
C988 C995 1.409 . S
C989 H981 0.930 . S
C989 C987 1.419 . S
C989 C990 1.362 . S
C990 H982 0.930 . S
C990 C989 1.362 . S
C990 C993 1.409 . S
C991 H983 0.930 . S
C991 C992 1.355 . S
C991 C993 1.415 . S
C992 C991 1.355 . S
C992 C994 1.419 1_554 S
C993 C988 1.425 1_554 S
C993 C990 1.409 . S
C993 C991 1.415 . S
C994 H984 0.930 . S
C994 C992 1.419 1_556 S
C994 C995 1.362 . S
C995 H985 0.930 . S
C995 C988 1.409 . S
C995 C994 1.362 . S
H996 C1002 0.930 . S
H997 C1005 0.930 . S
H998 C1006 0.930 . S
H999 C1007 0.930 . S
H1000 C1010 0.930 . S
H1001 C1011 0.930 . S
C1002 H996 0.930 . S
C1002 C1003 1.355 1_556 S
C1002 C1004 1.415 . S
C1003 C1002 1.355 1_554 S
C1003 C1005 1.419 . S
C1004 C1002 1.415 . S
C1004 C1009 1.425 1_556 S
C1004 C1011 1.409 . S
C1005 H997 0.930 . S
C1005 C1003 1.419 . S
C1005 C1006 1.362 . S
C1006 H998 0.930 . S
C1006 C1005 1.362 . S
C1006 C1009 1.409 . S
C1007 H999 0.930 . S
C1007 C1008 1.355 . S
C1007 C1009 1.415 . S
C1008 C1007 1.355 . S
C1008 C1010 1.419 1_554 S
C1009 C1004 1.425 1_554 S
C1009 C1006 1.409 . S
C1009 C1007 1.415 . S
C1010 H1000 0.930 . S
C1010 C1008 1.419 1_556 S
C1010 C1011 1.362 . S
C1011 H1001 0.930 . S
C1011 C1004 1.409 . S
C1011 C1010 1.362 . S
H1012 C1018 0.930 . S
H1013 C1021 0.930 . S
H1014 C1022 0.930 . S
H1015 C1023 0.930 . S
H1016 C1026 0.930 . S
H1017 C1027 0.930 . S
C1018 H1012 0.930 . S
C1018 C1019 1.355 1_655 S
C1018 C1020 1.415 . S
C1019 C1018 1.355 1_455 S
C1019 C1021 1.419 . S
C1020 C1018 1.415 . S
C1020 C1025 1.425 1_655 S
C1020 C1027 1.409 . S
C1021 H1013 0.930 . S
C1021 C1019 1.419 . S
C1021 C1022 1.362 . S
C1022 H1014 0.930 . S
C1022 C1021 1.362 . S
C1022 C1025 1.409 . S
C1023 H1015 0.930 . S
C1023 C1024 1.355 . S
C1023 C1025 1.415 . S
C1024 C1023 1.355 . S
C1024 C1026 1.419 1_455 S
C1025 C1020 1.425 1_455 S
C1025 C1022 1.409 . S
C1025 C1023 1.415 . S
C1026 H1016 0.930 . S
C1026 C1024 1.419 1_655 S
C1026 C1027 1.362 . S
C1027 H1017 0.930 . S
C1027 C1020 1.409 . S
C1027 C1026 1.362 . S
H1028 C1034 0.930 . S
H1029 C1037 0.930 . S
H1030 C1038 0.930 . S
H1031 C1039 0.930 . S
H1032 C1042 0.930 . S
H1033 C1043 0.930 . S
C1034 H1028 0.930 . S
C1034 C1035 1.361 . S
C1034 C1036 1.415 . S
C1035 C1034 1.361 . S
C1035 C1037 1.412 1_545 S
C1036 C1034 1.415 . S
C1036 C1041 1.425 1_545 S
C1036 C1043 1.409 . S
C1037 H1029 0.930 . S
C1037 C1035 1.412 1_565 S
C1037 C1038 1.362 . S
C1038 H1030 0.930 . S
C1038 C1037 1.362 . S
C1038 C1041 1.409 . S
C1039 H1031 0.930 . S
C1039 C1040 1.349 1_565 S
C1039 C1041 1.415 . S
C1040 C1039 1.349 1_545 S
C1040 C1042 1.426 . S
C1041 C1036 1.425 1_565 S
C1041 C1038 1.409 . S
C1041 C1039 1.415 . S
C1042 H1032 0.930 . S
C1042 C1040 1.426 . S
C1042 C1043 1.362 . S
C1043 H1033 0.930 . S
C1043 C1036 1.409 . S
C1043 C1042 1.362 . S
H1044 C1050 0.930 . S
H1045 C1053 0.934 . S
H1046 C1054 0.930 1_655 S
H1047 C1055 0.930 . S
H1048 C1058 0.930 . S
H1049 C1059 0.930 . S
C1050 H1044 0.930 . S
C1050 C1051 1.355 . S
C1050 C1052 1.415 . S
C1051 C1050 1.355 . S
C1051 C1053 1.419 . S
C1052 C1050 1.415 . S
C1052 C1057 1.425 . S
C1052 C1059 1.409 . S
C1053 H1045 0.934 . S
C1053 C1051 1.419 . S
C1053 C1054 1.362 . S
C1054 H1046 0.930 1_455 S
C1054 C1053 1.362 . S
C1054 C1057 1.409 . S
C1055 H1047 0.930 . S
C1055 C1056 1.355 . S
C1055 C1057 1.415 . S
C1056 C1055 1.355 . S
C1056 C1058 1.419 . S
C1057 C1052 1.425 . S
C1057 C1054 1.409 . S
C1057 C1055 1.415 . S
C1058 H1048 0.930 . S
C1058 C1056 1.419 . S
C1058 C1059 1.362 . S
C1059 H1049 0.930 . S
C1059 C1052 1.409 . S
C1059 C1058 1.362 . S
H1060 C1066 0.930 . S
H1061 C1069 0.930 . S
H1062 C1070 0.930 . S
H1063 C1071 0.929 . S
H1064 C1074 0.930 . S
H1065 C1075 0.930 . S
C1066 H1060 0.930 . S
C1066 C1067 1.355 . S
C1066 C1068 1.415 . S
C1067 C1066 1.355 . S
C1067 C1069 1.419 . S
C1068 C1066 1.415 . S
C1068 C1073 1.425 . S
C1068 C1075 1.409 1_545 S
C1069 H1061 0.930 . S
C1069 C1067 1.419 . S
C1069 C1070 1.362 . S
C1070 H1062 0.930 . S
C1070 C1069 1.362 . S
C1070 C1073 1.411 . S
C1071 H1063 0.929 . S
C1071 C1072 1.355 . S
C1071 C1073 1.414 1_565 S
C1072 C1071 1.355 . S
C1072 C1074 1.420 . S
C1073 C1068 1.425 . S
C1073 C1070 1.411 . S
C1073 C1071 1.414 1_545 S
C1074 H1064 0.930 . S
C1074 C1072 1.420 . S
C1074 C1075 1.362 . S
C1075 H1065 0.930 . S
C1075 C1068 1.409 1_565 S
C1075 C1074 1.362 . S
H1076 C1082 0.930 . S
H1077 C1085 0.930 . S
H1078 C1086 0.930 . S
H1079 C1087 0.930 . S
H1080 C1090 0.930 . S
H1081 C1091 0.930 . S
C1082 H1076 0.930 . S
C1082 C1083 1.355 1_655 S
C1082 C1084 1.415 . S
C1083 C1082 1.355 1_455 S
C1083 C1085 1.419 . S
C1084 C1082 1.415 . S
C1084 C1089 1.425 1_655 S
C1084 C1091 1.409 . S
C1085 H1077 0.930 . S
C1085 C1083 1.419 . S
C1085 C1086 1.362 . S
C1086 H1078 0.930 . S
C1086 C1085 1.362 . S
C1086 C1089 1.409 . S
C1087 H1079 0.930 . S
C1087 C1088 1.355 . S
C1087 C1089 1.415 . S
C1088 C1087 1.355 . S
C1088 C1090 1.419 1_455 S
C1089 C1084 1.425 1_455 S
C1089 C1086 1.409 . S
C1089 C1087 1.415 . S
C1090 H1080 0.930 . S
C1090 C1088 1.419 1_655 S
C1090 C1091 1.362 . S
C1091 H1081 0.930 . S
C1091 C1084 1.409 . S
C1091 C1090 1.362 . S
H1092 C1098 0.930 . S
H1093 C1101 0.930 . S
H1094 C1102 0.930 . S
H1095 C1103 0.930 . S
H1096 C1106 0.930 . S
H1097 C1107 0.930 . S
C1098 H1092 0.930 . S
C1098 C1099 1.355 . S
C1098 C1100 1.415 . S
C1099 C1098 1.355 . S
C1099 C1101 1.418 1_565 S
C1100 C1098 1.415 . S
C1100 C1105 1.425 1_565 S
C1100 C1107 1.409 . S
C1101 H1093 0.930 . S
C1101 C1099 1.418 1_545 S
C1101 C1102 1.362 . S
C1102 H1094 0.930 . S
C1102 C1101 1.362 . S
C1102 C1105 1.409 . S
C1103 H1095 0.930 . S
C1103 C1104 1.358 . S
C1103 C1105 1.415 . S
C1104 C1103 1.358 . S
C1104 C1106 1.415 1_545 S
C1105 C1100 1.425 1_545 S
C1105 C1102 1.409 . S
C1105 C1103 1.415 . S
C1106 H1096 0.930 . S
C1106 C1104 1.415 1_565 S
C1106 C1107 1.362 . S
C1107 H1097 0.930 . S
C1107 C1100 1.409 . S
C1107 C1106 1.362 . S
H1108 C1114 0.930 . S
H1109 C1117 0.930 . S
H1110 C1118 0.930 . S
H1111 C1119 0.930 . S
H1112 C1122 0.930 . S
H1113 C1123 0.930 . S
C1114 H1108 0.930 . S
C1114 C1115 1.355 . S
C1114 C1116 1.415 . S
C1115 C1114 1.355 . S
C1115 C1117 1.419 1_455 S
C1116 C1114 1.415 . S
C1116 C1121 1.425 1_455 S
C1116 C1123 1.409 . S
C1117 H1109 0.930 . S
C1117 C1115 1.419 1_655 S
C1117 C1118 1.362 . S
C1118 H1110 0.930 . S
C1118 C1117 1.362 . S
C1118 C1121 1.409 . S
C1119 H1111 0.930 . S
C1119 C1120 1.355 1_655 S
C1119 C1121 1.415 . S
C1120 C1119 1.355 1_455 S
C1120 C1122 1.419 . S
C1121 C1116 1.425 1_655 S
C1121 C1118 1.409 . S
C1121 C1119 1.415 . S
C1122 H1112 0.930 . S
C1122 C1120 1.419 . S
C1122 C1123 1.362 . S
C1123 H1113 0.930 . S
C1123 C1116 1.409 . S
C1123 C1122 1.362 . S
H1124 C1130 0.930 . S
H1125 C1133 0.930 . S
H1126 C1134 0.930 . S
H1127 C1135 0.930 . S
H1128 C1138 0.930 . S
H1129 C1139 0.930 . S
C1130 H1124 0.930 . S
C1130 C1131 1.355 1_545 S
C1130 C1132 1.415 . S
C1131 C1130 1.355 1_565 S
C1131 C1133 1.419 . S
C1132 C1130 1.415 . S
C1132 C1137 1.425 1_545 S
C1132 C1139 1.409 . S
C1133 H1125 0.930 . S
C1133 C1131 1.419 . S
C1133 C1134 1.362 . S
C1134 H1126 0.930 . S
C1134 C1133 1.362 . S
C1134 C1137 1.409 . S
C1135 H1127 0.930 . S
C1135 C1136 1.355 1_565 S
C1135 C1137 1.415 . S
C1136 C1135 1.355 1_545 S
C1136 C1138 1.419 . S
C1137 C1132 1.425 1_565 S
C1137 C1134 1.409 . S
C1137 C1135 1.415 . S
C1138 H1128 0.930 . S
C1138 C1136 1.419 . S
C1138 C1139 1.362 . S
C1139 H1129 0.930 . S
C1139 C1132 1.409 . S
C1139 C1138 1.362 . S
H1140 C1146 0.930 . S
H1141 C1149 0.930 . S
H1142 C1150 0.930 . S
H1143 C1151 0.930 . S
H1144 C1154 0.930 . S
H1145 C1155 0.930 . S
C1146 H1140 0.930 . S
C1146 C1147 1.355 1_655 S
C1146 C1148 1.414 . S
C1147 C1146 1.355 1_455 S
C1147 C1149 1.419 . S
C1148 C1146 1.414 . S
C1148 C1153 1.428 1_655 S
C1148 C1155 1.407 . S
C1149 H1141 0.930 . S
C1149 C1147 1.419 . S
C1149 C1150 1.362 . S
C1150 H1142 0.930 . S
C1150 C1149 1.362 . S
C1150 C1153 1.409 . S
C1151 H1143 0.930 . S
C1151 C1152 1.355 . S
C1151 C1153 1.415 . S
C1152 C1151 1.355 . S
C1152 C1154 1.419 1_455 S
C1153 C1148 1.428 1_455 S
C1153 C1150 1.409 . S
C1153 C1151 1.415 . S
C1154 H1144 0.930 . S
C1154 C1152 1.419 1_655 S
C1154 C1155 1.362 . S
C1155 H1145 0.930 . S
C1155 C1148 1.407 . S
C1155 C1154 1.362 . S
H1156 C1162 0.930 . S
H1157 C1165 0.930 . S
H1158 C1166 0.930 . S
H1159 C1167 0.930 . S
H1160 C1170 0.930 . S
H1161 C1171 0.930 . S
C1162 H1156 0.930 . S
C1162 C1163 1.355 1_545 S
C1162 C1164 1.415 . S
C1163 C1162 1.355 1_565 S
C1163 C1165 1.419 . S
C1164 C1162 1.415 . S
C1164 C1169 1.425 1_545 S
C1164 C1171 1.409 . S
C1165 H1157 0.930 . S
C1165 C1163 1.419 . S
C1165 C1166 1.362 . S
C1166 H1158 0.930 . S
C1166 C1165 1.362 . S
C1166 C1169 1.409 . S
C1167 H1159 0.930 . S
C1167 C1168 1.355 1_565 S
C1167 C1169 1.415 . S
C1168 C1167 1.355 1_545 S
C1168 C1170 1.419 . S
C1169 C1164 1.425 1_565 S
C1169 C1166 1.409 . S
C1169 C1167 1.415 . S
C1170 H1160 0.930 . S
C1170 C1168 1.419 . S
C1170 C1171 1.362 . S
C1171 H1161 0.930 . S
C1171 C1164 1.409 . S
C1171 C1170 1.362 . S
H1172 C1178 0.930 . S
H1173 C1181 0.930 . S
H1174 C1182 0.930 . S
H1175 C1183 0.930 . S
H1176 C1186 0.930 . S
H1177 C1187 0.930 . S
C1178 H1172 0.930 . S
C1178 C1179 1.355 . S
C1178 C1180 1.415 . S
C1179 C1178 1.355 . S
C1179 C1181 1.419 1_455 S
C1180 C1178 1.415 . S
C1180 C1185 1.425 . S
C1180 C1187 1.409 . S
C1181 H1173 0.930 . S
C1181 C1179 1.419 1_655 S
C1181 C1182 1.362 . S
C1182 H1174 0.930 . S
C1182 C1181 1.362 . S
C1182 C1185 1.409 1_655 S
C1183 H1175 0.930 . S
C1183 C1184 1.355 1_655 S
C1183 C1185 1.415 1_655 S
C1184 C1183 1.355 1_455 S
C1184 C1186 1.419 . S
C1185 C1180 1.425 . S
C1185 C1182 1.409 1_455 S
C1185 C1183 1.415 1_455 S
C1186 H1176 0.930 . S
C1186 C1184 1.419 . S
C1186 C1187 1.362 . S
C1187 H1177 0.930 . S
C1187 C1180 1.409 . S
C1187 C1186 1.362 . S
H1188 C1194 0.930 . S
H1189 C1197 0.930 . S
H1190 C1198 0.930 . S
H1191 C1199 0.930 . S
H1192 C1202 0.930 . S
H1193 C1203 0.930 . S
C1194 H1188 0.930 . S
C1194 C1195 1.355 1_565 S
C1194 C1196 1.415 . S
C1195 C1194 1.355 1_545 S
C1195 C1197 1.419 . S
C1196 C1194 1.415 . S
C1196 C1201 1.425 1_565 S
C1196 C1203 1.409 . S
C1197 H1189 0.930 . S
C1197 C1195 1.419 . S
C1197 C1198 1.362 . S
C1198 H1190 0.930 . S
C1198 C1197 1.362 . S
C1198 C1201 1.409 . S
C1199 H1191 0.930 . S
C1199 C1200 1.355 1_545 S
C1199 C1201 1.415 . S
C1200 C1199 1.355 1_565 S
C1200 C1202 1.419 . S
C1201 C1196 1.425 1_545 S
C1201 C1198 1.409 . S
C1201 C1199 1.415 . S
C1202 H1192 0.930 . S
C1202 C1200 1.419 . S
C1202 C1203 1.362 . S
C1203 H1193 0.930 . S
C1203 C1196 1.409 . S
C1203 C1202 1.362 . S
H1204 C1210 0.930 . S
H1205 C1213 0.921 1_655 S
H1206 C1214 0.929 1_655 S
H1207 C1215 0.930 . S
H1208 C1218 0.930 . S
H1209 C1219 0.930 . S
C1210 H1204 0.930 . S
C1210 C1211 1.355 . S
C1210 C1212 1.415 . S
C1211 C1210 1.355 . S
C1211 C1213 1.430 . S
C1212 C1210 1.415 . S
C1212 C1217 1.425 . S
C1212 C1219 1.409 . S
C1213 H1205 0.921 1_455 S
C1213 C1211 1.430 . S
C1213 C1214 1.362 . S
C1214 H1206 0.929 1_455 S
C1214 C1213 1.362 . S
C1214 C1217 1.410 . S
C1215 H1207 0.930 . S
C1215 C1216 1.355 . S
C1215 C1217 1.415 . S
C1216 C1215 1.355 . S
C1216 C1218 1.419 . S
C1217 C1212 1.425 . S
C1217 C1214 1.410 . S
C1217 C1215 1.415 . S
C1218 H1208 0.930 . S
C1218 C1216 1.419 . S
C1218 C1219 1.362 . S
C1219 H1209 0.930 . S
C1219 C1212 1.409 . S
C1219 C1218 1.362 . S
H1220 C1226 0.930 . S
H1221 C1229 0.930 . S
H1222 C1230 0.930 . S
H1223 C1231 0.930 . S
H1224 C1234 0.930 . S
H1225 C1235 0.930 . S
C1226 H1220 0.930 . S
C1226 C1227 1.345 1_545 S
C1226 C1228 1.415 . S
C1227 C1226 1.345 1_565 S
C1227 C1229 1.431 . S
C1228 C1226 1.415 . S
C1228 C1233 1.425 1_545 S
C1228 C1235 1.409 . S
C1229 H1221 0.930 . S
C1229 C1227 1.431 . S
C1229 C1230 1.362 . S
C1230 H1222 0.930 . S
C1230 C1229 1.362 . S
C1230 C1233 1.409 . S
C1231 H1223 0.930 . S
C1231 C1232 1.355 1_565 S
C1231 C1233 1.415 . S
C1232 C1231 1.355 1_545 S
C1232 C1234 1.419 . S
C1233 C1228 1.425 1_565 S
C1233 C1230 1.409 . S
C1233 C1231 1.415 . S
C1234 H1224 0.930 . S
C1234 C1232 1.419 . S
C1234 C1235 1.362 . S
C1235 H1225 0.930 . S
C1235 C1228 1.409 . S
C1235 C1234 1.362 . S
H1236 C1242 0.930 . S
H1237 C1245 0.930 . S
H1238 C1246 0.930 . S
H1239 C1247 0.930 . S
H1240 C1250 0.930 . S
H1241 C1251 0.930 . S
C1242 H1236 0.930 . S
C1242 C1243 1.355 1_655 S
C1242 C1244 1.411 1_655 S
C1243 C1242 1.355 1_455 S
C1243 C1245 1.419 . S
C1244 C1242 1.411 1_455 S
C1244 C1249 1.445 . S
C1244 C1251 1.394 1_455 S
C1245 H1237 0.930 . S
C1245 C1243 1.419 . S
C1245 C1246 1.362 . S
C1246 H1238 0.930 . S
C1246 C1245 1.362 . S
C1246 C1249 1.409 . S
C1247 H1239 0.930 . S
C1247 C1248 1.355 . S
C1247 C1249 1.415 . S
C1248 C1247 1.355 . S
C1248 C1250 1.419 1_455 S
C1249 C1244 1.445 . S
C1249 C1246 1.409 . S
C1249 C1247 1.415 . S
C1250 H1240 0.930 . S
C1250 C1248 1.419 1_655 S
C1250 C1251 1.362 . S
C1251 H1241 0.930 . S
C1251 C1244 1.394 1_655 S
C1251 C1250 1.362 . S
H1252 C1258 0.930 . S
H1253 C1261 0.930 . S
H1254 C1262 0.930 . S
H1255 C1263 0.930 . S
H1256 C1266 0.930 . S
H1257 C1267 0.930 . S
C1258 H1252 0.930 . S
C1258 C1259 1.355 . S
C1258 C1260 1.415 . S
C1259 C1258 1.355 . S
C1259 C1261 1.419 1_545 S
C1260 C1258 1.415 . S
C1260 C1265 1.425 1_545 S
C1260 C1267 1.409 . S
C1261 H1253 0.930 . S
C1261 C1259 1.419 1_565 S
C1261 C1262 1.362 . S
C1262 H1254 0.930 . S
C1262 C1261 1.362 . S
C1262 C1265 1.409 . S
C1263 H1255 0.930 . S
C1263 C1264 1.355 . S
C1263 C1265 1.415 . S
C1264 C1263 1.355 . S
C1264 C1266 1.418 1_565 S
C1265 C1260 1.425 1_565 S
C1265 C1262 1.409 . S
C1265 C1263 1.415 . S
C1266 H1256 0.930 . S
C1266 C1264 1.418 1_545 S
C1266 C1267 1.362 . S
C1267 H1257 0.930 . S
C1267 C1260 1.409 . S
C1267 C1266 1.362 . S
H1268 C1274 0.930 . S
H1269 C1277 0.930 . S
H1270 C1278 0.930 . S
H1271 C1279 0.930 . S
H1272 C1282 0.930 . S
H1273 C1283 0.930 . S
C1274 H1268 0.930 . S
C1274 C1275 1.355 1_545 S
C1274 C1276 1.415 . S
C1275 C1274 1.355 1_565 S
C1275 C1277 1.419 . S
C1276 C1274 1.415 . S
C1276 C1281 1.425 1_545 S
C1276 C1283 1.409 . S
C1277 H1269 0.930 . S
C1277 C1275 1.419 . S
C1277 C1278 1.362 . S
C1278 H1270 0.930 . S
C1278 C1277 1.362 . S
C1278 C1281 1.409 . S
C1279 H1271 0.930 . S
C1279 C1280 1.355 1_565 S
C1279 C1281 1.415 . S
C1280 C1279 1.355 1_545 S
C1280 C1282 1.419 . S
C1281 C1276 1.425 1_565 S
C1281 C1278 1.409 . S
C1281 C1279 1.415 . S
C1282 H1272 0.930 . S
C1282 C1280 1.419 . S
C1282 C1283 1.362 . S
C1283 H1273 0.930 . S
C1283 C1276 1.409 . S
C1283 C1282 1.362 . S
H1284 C1290 0.930 . S
H1285 C1293 0.930 . S
H1286 C1294 0.930 . S
H1287 C1295 0.930 . S
H1288 C1298 0.930 . S
H1289 C1299 0.930 . S
C1290 H1284 0.930 . S
C1290 C1291 1.355 . S
C1290 C1292 1.415 . S
C1291 C1290 1.355 . S
C1291 C1293 1.419 1_455 S
C1292 C1290 1.415 . S
C1292 C1297 1.425 1_455 S
C1292 C1299 1.409 . S
C1293 H1285 0.930 . S
C1293 C1291 1.419 1_655 S
C1293 C1294 1.362 . S
C1294 H1286 0.930 . S
C1294 C1293 1.362 . S
C1294 C1297 1.409 . S
C1295 H1287 0.930 . S
C1295 C1296 1.355 1_655 S
C1295 C1297 1.415 . S
C1296 C1295 1.355 1_455 S
C1296 C1298 1.419 . S
C1297 C1292 1.425 1_655 S
C1297 C1294 1.409 . S
C1297 C1295 1.415 . S
C1298 H1288 0.930 . S
C1298 C1296 1.419 . S
C1298 C1299 1.362 . S
C1299 H1289 0.930 . S
C1299 C1292 1.409 . S
C1299 C1298 1.362 . S
H1300 C1306 0.930 . S
H1301 C1309 0.930 . S
H1302 C1310 0.930 . S
H1303 C1311 0.930 . S
H1304 C1314 0.930 . S
H1305 C1315 0.930 . S
C1306 H1300 0.930 . S
C1306 C1307 1.357 . S
C1306 C1308 1.415 . S
C1307 C1306 1.357 . S
C1307 C1309 1.417 1_565 S
C1308 C1306 1.415 . S
C1308 C1313 1.425 1_565 S
C1308 C1315 1.409 . S
C1309 H1301 0.930 . S
C1309 C1307 1.417 1_545 S
C1309 C1310 1.362 . S
C1310 H1302 0.930 . S
C1310 C1309 1.362 . S
C1310 C1313 1.409 . S
C1311 H1303 0.930 . S
C1311 C1312 1.355 . S
C1311 C1313 1.415 . S
C1312 C1311 1.355 . S
C1312 C1314 1.419 1_545 S
C1313 C1308 1.425 1_545 S
C1313 C1310 1.409 . S
C1313 C1311 1.415 . S
C1314 H1304 0.930 . S
C1314 C1312 1.419 1_565 S
C1314 C1315 1.362 . S
C1315 H1305 0.930 . S
C1315 C1308 1.409 . S
C1315 C1314 1.362 . S
H1316 C1322 0.935 . S
H1317 C1325 0.930 . S
H1318 C1326 0.930 . S
H1319 C1327 0.930 . S
H1320 C1330 0.930 . S
H1321 C1331 0.930 . S
C1322 H1316 0.935 . S
C1322 C1323 1.355 . S
C1322 C1324 1.415 . S
C1323 C1322 1.355 . S
C1323 C1325 1.419 . S
C1324 C1322 1.415 . S
C1324 C1329 1.425 . S
C1324 C1331 1.409 1_455 S
C1325 H1317 0.930 . S
C1325 C1323 1.419 . S
C1325 C1326 1.362 . S
C1326 H1318 0.930 . S
C1326 C1325 1.362 . S
C1326 C1329 1.409 . S
C1327 H1319 0.930 . S
C1327 C1328 1.355 . S
C1327 C1329 1.415 . S
C1328 C1327 1.355 . S
C1328 C1330 1.419 1_455 S
C1329 C1324 1.425 . S
C1329 C1326 1.409 . S
C1329 C1327 1.415 . S
C1330 H1320 0.930 . S
C1330 C1328 1.419 1_655 S
C1330 C1331 1.362 . S
C1331 H1321 0.930 . S
C1331 C1324 1.409 1_655 S
C1331 C1330 1.362 . S
H1332 C1338 0.930 . S
H1333 C1341 0.930 . S
H1334 C1342 0.930 . S
H1335 C1343 0.930 . S
H1336 C1346 0.930 . S
H1337 C1347 0.930 . S
C1338 H1332 0.930 . S
C1338 C1339 1.355 1_545 S
C1338 C1340 1.415 . S
C1339 C1338 1.355 1_565 S
C1339 C1341 1.419 . S
C1340 C1338 1.415 . S
C1340 C1345 1.425 1_545 S
C1340 C1347 1.409 . S
C1341 H1333 0.930 . S
C1341 C1339 1.419 . S
C1341 C1342 1.362 . S
C1342 H1334 0.930 . S
C1342 C1341 1.362 . S
C1342 C1345 1.409 . S
C1343 H1335 0.930 . S
C1343 C1344 1.355 1_565 S
C1343 C1345 1.415 . S
C1344 C1343 1.355 1_545 S
C1344 C1346 1.419 . S
C1345 C1340 1.425 1_565 S
C1345 C1342 1.409 . S
C1345 C1343 1.415 . S
C1346 H1336 0.930 . S
C1346 C1344 1.419 . S
C1346 C1347 1.362 . S
C1347 H1337 0.930 . S
C1347 C1340 1.409 . S
C1347 C1346 1.362 . S
H1348 C1354 0.930 . S
H1349 C1357 0.929 1_655 S
H1350 C1358 0.928 1_655 S
H1351 C1359 0.925 1_655 S
H1352 C1362 0.930 . S
H1353 C1363 0.930 . S
C1354 H1348 0.930 . S
C1354 C1355 1.355 . S
C1354 C1356 1.415 . S
C1355 C1354 1.355 . S
C1355 C1357 1.419 . S
C1356 C1354 1.415 . S
C1356 C1361 1.425 . S
C1356 C1363 1.409 . S
C1357 H1349 0.929 1_455 S
C1357 C1355 1.419 . S
C1357 C1358 1.363 . S
C1358 H1350 0.928 1_455 S
C1358 C1357 1.363 . S
C1358 C1361 1.410 . S
C1359 H1351 0.925 1_455 S
C1359 C1360 1.358 . S
C1359 C1361 1.417 . S
C1360 C1359 1.358 . S
C1360 C1362 1.419 . S
C1361 C1356 1.425 . S
C1361 C1358 1.410 . S
C1361 C1359 1.417 . S
C1362 H1352 0.930 . S
C1362 C1360 1.419 . S
C1362 C1363 1.362 . S
C1363 H1353 0.930 . S
C1363 C1356 1.409 . S
C1363 C1362 1.362 . S
H1364 C1370 0.930 . S
H1365 C1373 0.930 . S
H1366 C1374 0.930 . S
H1367 C1375 0.930 . S
H1368 C1378 0.930 . S
H1369 C1379 0.930 . S
C1370 H1364 0.930 . S
C1370 C1371 1.355 1_545 S
C1370 C1372 1.415 . S
C1371 C1370 1.355 1_565 S
C1371 C1373 1.419 . S
C1372 C1370 1.415 . S
C1372 C1377 1.425 1_545 S
C1372 C1379 1.409 . S
C1373 H1365 0.930 . S
C1373 C1371 1.419 . S
C1373 C1374 1.362 . S
C1374 H1366 0.930 . S
C1374 C1373 1.362 . S
C1374 C1377 1.409 . S
C1375 H1367 0.930 . S
C1375 C1376 1.355 1_565 S
C1375 C1377 1.415 . S
C1376 C1375 1.355 1_545 S
C1376 C1378 1.419 . S
C1377 C1372 1.425 1_565 S
C1377 C1374 1.409 . S
C1377 C1375 1.415 . S
C1378 H1368 0.930 . S
C1378 C1376 1.419 . S
C1378 C1379 1.362 . S
C1379 H1369 0.930 . S
C1379 C1372 1.409 . S
C1379 C1378 1.362 . S
H1380 C1386 0.930 1_655 S
H1381 C1389 0.930 . S
H1382 C1390 0.930 . S
H1383 C1391 0.930 . S
H1384 C1394 0.930 . S
H1385 C1395 0.930 . S
C1386 H1380 0.930 1_455 S
C1386 C1387 1.355 . S
C1386 C1388 1.415 . S
C1387 C1386 1.355 . S
C1387 C1389 1.419 . S
C1388 C1386 1.415 . S
C1388 C1393 1.425 . S
C1388 C1395 1.409 1_455 S
C1389 H1381 0.930 . S
C1389 C1387 1.419 . S
C1389 C1390 1.362 . S
C1390 H1382 0.930 . S
C1390 C1389 1.362 . S
C1390 C1393 1.409 . S
C1391 H1383 0.930 . S
C1391 C1392 1.355 . S
C1391 C1393 1.415 . S
C1392 C1391 1.355 . S
C1392 C1394 1.419 1_455 S
C1393 C1388 1.425 . S
C1393 C1390 1.409 . S
C1393 C1391 1.415 . S
C1394 H1384 0.930 . S
C1394 C1392 1.419 1_655 S
C1394 C1395 1.362 . S
C1395 H1385 0.930 . S
C1395 C1388 1.409 1_655 S
C1395 C1394 1.362 . S
H1396 C1402 0.930 . S
H1397 C1405 0.930 . S
H1398 C1406 0.930 . S
H1399 C1407 0.930 . S
H1400 C1410 0.930 . S
H1401 C1411 0.930 . S
C1402 H1396 0.930 . S
C1402 C1403 1.355 . S
C1402 C1404 1.415 . S
C1403 C1402 1.355 . S
C1403 C1405 1.419 1_554 S
C1404 C1402 1.415 . S
C1404 C1409 1.425 1_554 S
C1404 C1411 1.409 . S
C1405 H1397 0.930 . S
C1405 C1403 1.419 1_556 S
C1405 C1406 1.362 . S
C1406 H1398 0.930 . S
C1406 C1405 1.362 . S
C1406 C1409 1.409 . S
C1407 H1399 0.930 . S
C1407 C1408 1.355 1_556 S
C1407 C1409 1.415 . S
C1408 C1407 1.355 1_554 S
C1408 C1410 1.419 . S
C1409 C1404 1.425 1_556 S
C1409 C1406 1.409 . S
C1409 C1407 1.415 . S
C1410 H1400 0.930 . S
C1410 C1408 1.419 . S
C1410 C1411 1.362 . S
C1411 H1401 0.930 . S
C1411 C1404 1.409 . S
C1411 C1410 1.362 . S
H1412 C1418 0.930 . S
H1413 C1421 0.930 . S
H1414 C1422 0.930 . S
H1415 C1423 0.930 . S
H1416 C1426 0.930 . S
H1417 C1427 0.930 . S
C1418 H1412 0.930 . S
C1418 C1419 1.355 1_556 S
C1418 C1420 1.415 . S
C1419 C1418 1.355 1_554 S
C1419 C1421 1.419 . S
C1420 C1418 1.415 . S
C1420 C1425 1.425 1_556 S
C1420 C1427 1.409 . S
C1421 H1413 0.930 . S
C1421 C1419 1.419 . S
C1421 C1422 1.362 . S
C1422 H1414 0.930 . S
C1422 C1421 1.362 . S
C1422 C1425 1.409 . S
C1423 H1415 0.930 . S
C1423 C1424 1.355 . S
C1423 C1425 1.415 . S
C1424 C1423 1.355 . S
C1424 C1426 1.419 1_554 S
C1425 C1420 1.425 1_554 S
C1425 C1422 1.409 . S
C1425 C1423 1.415 . S
C1426 H1416 0.930 . S
C1426 C1424 1.419 1_556 S
C1426 C1427 1.362 . S
C1427 H1417 0.930 . S
C1427 C1420 1.409 . S
C1427 C1426 1.362 . S
H1428 C1434 0.930 . S
H1429 C1437 0.930 . S
H1430 C1438 0.930 . S
H1431 C1439 0.929 . S
H1432 C1442 0.930 . S
H1433 C1443 0.930 . S
C1434 H1428 0.930 . S
C1434 C1435 1.355 . S
C1434 C1436 1.415 . S
C1435 C1434 1.355 . S
C1435 C1437 1.419 1_554 S
C1436 C1434 1.415 . S
C1436 C1441 1.425 . S
C1436 C1443 1.409 . S
C1437 H1429 0.930 . S
C1437 C1435 1.419 1_556 S
C1437 C1438 1.362 . S
C1438 H1430 0.930 . S
C1438 C1437 1.362 . S
C1438 C1441 1.409 1_556 S
C1439 H1431 0.929 . S
C1439 C1440 1.355 1_556 S
C1439 C1441 1.415 1_556 S
C1440 C1439 1.355 1_554 S
C1440 C1442 1.419 . S
C1441 C1436 1.425 . S
C1441 C1438 1.409 1_554 S
C1441 C1439 1.415 1_554 S
C1442 H1432 0.930 . S
C1442 C1440 1.419 . S
C1442 C1443 1.362 . S
C1443 H1433 0.930 . S
C1443 C1436 1.409 . S
C1443 C1442 1.362 . S
H1444 C1450 0.938 . S
H1445 C1453 0.930 . S
H1446 C1454 0.930 . S
H1447 C1455 0.930 . S
H1448 C1458 0.930 . S
H1449 C1459 0.930 . S
C1450 H1444 0.938 . S
C1450 C1451 1.349 1_556 S
C1450 C1452 1.413 1_556 S
C1451 C1450 1.349 1_554 S
C1451 C1453 1.419 . S
C1452 C1450 1.413 1_554 S
C1452 C1457 1.434 . S
C1452 C1459 1.403 1_554 S
C1453 H1445 0.930 . S
C1453 C1451 1.419 . S
C1453 C1454 1.362 . S
C1454 H1446 0.930 . S
C1454 C1453 1.362 . S
C1454 C1457 1.409 . S
C1455 H1447 0.930 . S
C1455 C1456 1.355 . S
C1455 C1457 1.415 . S
C1456 C1455 1.355 . S
C1456 C1458 1.419 1_554 S
C1457 C1452 1.434 . S
C1457 C1454 1.409 . S
C1457 C1455 1.415 . S
C1458 H1448 0.930 . S
C1458 C1456 1.419 1_556 S
C1458 C1459 1.362 . S
C1459 H1449 0.930 . S
C1459 C1452 1.403 1_556 S
C1459 C1458 1.362 . S
H1460 C1466 0.930 1_556 S
H1461 C1469 0.930 . S
H1462 C1470 0.930 . S
H1463 C1471 0.930 . S
H1464 C1474 0.930 . S
H1465 C1475 0.930 1_556 S
C1466 H1460 0.930 1_554 S
C1466 C1467 1.355 . S
C1466 C1468 1.415 . S
C1467 C1466 1.355 . S
C1467 C1469 1.419 . S
C1468 C1466 1.415 . S
C1468 C1473 1.425 . S
C1468 C1475 1.409 . S
C1469 H1461 0.930 . S
C1469 C1467 1.419 . S
C1469 C1470 1.362 . S
C1470 H1462 0.930 . S
C1470 C1469 1.362 . S
C1470 C1473 1.409 . S
C1471 H1463 0.930 . S
C1471 C1472 1.355 . S
C1471 C1473 1.415 . S
C1472 C1471 1.355 . S
C1472 C1474 1.419 . S
C1473 C1468 1.425 . S
C1473 C1470 1.409 . S
C1473 C1471 1.415 . S
C1474 H1464 0.930 . S
C1474 C1472 1.419 . S
C1474 C1475 1.362 . S
C1475 H1465 0.930 1_554 S
C1475 C1468 1.409 . S
C1475 C1474 1.362 . S
H1476 C1482 0.930 . S
H1477 C1485 0.930 1_556 S
H1478 C1486 0.934 . S
H1479 C1487 0.936 . S
H1480 C1490 0.930 . S
H1481 C1491 0.930 . S
C1482 H1476 0.930 . S
C1482 C1483 1.355 . S
C1482 C1484 1.415 . S
C1483 C1482 1.355 . S
C1483 C1485 1.419 . S
C1484 C1482 1.415 . S
C1484 C1489 1.425 . S
C1484 C1491 1.409 . S
C1485 H1477 0.930 1_554 S
C1485 C1483 1.419 . S
C1485 C1486 1.361 1_554 S
C1486 H1478 0.934 . S
C1486 C1485 1.361 1_556 S
C1486 C1489 1.407 1_556 S
C1487 H1479 0.936 . S
C1487 C1488 1.352 1_556 S
C1487 C1489 1.413 1_556 S
C1488 C1487 1.352 1_554 S
C1488 C1490 1.419 . S
C1489 C1484 1.425 . S
C1489 C1486 1.407 1_554 S
C1489 C1487 1.413 1_554 S
C1490 H1480 0.930 . S
C1490 C1488 1.419 . S
C1490 C1491 1.362 . S
C1491 H1481 0.930 . S
C1491 C1484 1.409 . S
C1491 C1490 1.362 . S
H1492 C1498 0.930 . S
H1493 C1501 0.930 . S
H1494 C1502 0.930 . S
H1495 C1503 0.930 . S
H1496 C1506 0.930 . S
H1497 C1507 0.930 . S
C1498 H1492 0.930 . S
C1498 C1499 1.355 . S
C1498 C1500 1.415 . S
C1499 C1498 1.355 . S
C1499 C1501 1.419 1_554 S
C1500 C1498 1.415 . S
C1500 C1505 1.409 1_554 S
C1500 C1507 1.409 . S
C1501 H1493 0.930 . S
C1501 C1499 1.419 1_556 S
C1501 C1502 1.362 . S
C1502 H1494 0.930 . S
C1502 C1501 1.362 . S
C1502 C1505 1.423 . S
C1503 H1495 0.930 . S
C1503 C1504 1.355 1_556 S
C1503 C1505 1.417 . S
C1504 C1503 1.355 1_554 S
C1504 C1506 1.419 . S
C1505 C1500 1.409 1_556 S
C1505 C1502 1.423 . S
C1505 C1503 1.417 . S
C1506 H1496 0.930 . S
C1506 C1504 1.419 . S
C1506 C1507 1.362 . S
C1507 H1497 0.930 . S
C1507 C1500 1.409 . S
C1507 C1506 1.362 . S
H1508 C1514 0.930 . S
H1509 C1517 0.930 . S
H1510 C1518 0.930 . S
H1511 C1519 0.930 1_556 S
H1512 C1522 0.930 . S
H1513 C1523 0.930 . S
C1514 H1508 0.930 . S
C1514 C1515 1.355 . S
C1514 C1516 1.415 . S
C1515 C1514 1.355 . S
C1515 C1517 1.419 1_554 S
C1516 C1514 1.415 . S
C1516 C1521 1.425 . S
C1516 C1523 1.409 . S
C1517 H1509 0.930 . S
C1517 C1515 1.419 1_556 S
C1517 C1518 1.362 . S
C1518 H1510 0.930 . S
C1518 C1517 1.362 . S
C1518 C1521 1.409 1_556 S
C1519 H1511 0.930 1_554 S
C1519 C1520 1.355 . S
C1519 C1521 1.415 . S
C1520 C1519 1.355 . S
C1520 C1522 1.419 . S
C1521 C1516 1.425 . S
C1521 C1518 1.409 1_554 S
C1521 C1519 1.415 . S
C1522 H1512 0.930 . S
C1522 C1520 1.419 . S
C1522 C1523 1.362 . S
C1523 H1513 0.930 . S
C1523 C1516 1.409 . S
C1523 C1522 1.362 . S
H1524 C1530 0.930 . S
H1525 C1533 0.930 . S
H1526 C1534 0.930 . S
H1527 C1535 0.930 . S
H1528 C1538 0.930 . S
H1529 C1539 0.930 . S
C1530 H1524 0.930 . S
C1530 C1531 1.355 . S
C1530 C1532 1.415 . S
C1531 C1530 1.355 . S
C1531 C1533 1.419 . S
C1532 C1530 1.415 . S
C1532 C1537 1.425 . S
C1532 C1539 1.409 . S
C1533 H1525 0.930 . S
C1533 C1531 1.419 . S
C1533 C1534 1.362 . S
C1534 H1526 0.930 . S
C1534 C1533 1.362 . S
C1534 C1537 1.409 . S
C1535 H1527 0.930 . S
C1535 C1536 1.355 . S
C1535 C1537 1.415 . S
C1536 C1535 1.355 . S
C1536 C1538 1.419 . S
C1537 C1532 1.425 . S
C1537 C1534 1.409 . S
C1537 C1535 1.415 . S
C1538 H1528 0.930 . S
C1538 C1536 1.419 . S
C1538 C1539 1.362 . S
C1539 H1529 0.930 . S
C1539 C1532 1.409 . S
C1539 C1538 1.362 . S
H1540 C1546 0.930 . S
H1541 C1549 0.930 . S
H1542 C1550 0.930 . S
H1543 C1551 0.930 . S
H1544 C1554 0.930 . S
H1545 C1555 0.930 . S
C1546 H1540 0.930 . S
C1546 C1547 1.355 . S
C1546 C1548 1.415 . S
C1547 C1546 1.355 . S
C1547 C1549 1.419 . S
C1548 C1546 1.415 . S
C1548 C1553 1.425 . S
C1548 C1555 1.409 . S
C1549 H1541 0.930 . S
C1549 C1547 1.419 . S
C1549 C1550 1.362 . S
C1550 H1542 0.930 . S
C1550 C1549 1.362 . S
C1550 C1553 1.409 . S
C1551 H1543 0.930 . S
C1551 C1552 1.355 . S
C1551 C1553 1.415 . S
C1552 C1551 1.355 . S
C1552 C1554 1.419 . S
C1553 C1548 1.425 . S
C1553 C1550 1.409 . S
C1553 C1551 1.415 . S
C1554 H1544 0.930 . S
C1554 C1552 1.419 . S
C1554 C1555 1.362 . S
C1555 H1545 0.930 . S
C1555 C1548 1.409 . S
C1555 C1554 1.362 . S
H1556 C1562 0.930 . S
H1557 C1565 0.930 . S
H1558 C1566 0.930 . S
H1559 C1567 0.930 . S
H1560 C1570 0.930 . S
H1561 C1571 0.930 . S
C1562 H1556 0.930 . S
C1562 C1563 1.355 . S
C1562 C1564 1.415 . S
C1563 C1562 1.355 . S
C1563 C1565 1.419 . S
C1564 C1562 1.415 . S
C1564 C1569 1.425 . S
C1564 C1571 1.409 . S
C1565 H1557 0.930 . S
C1565 C1563 1.419 . S
C1565 C1566 1.362 . S
C1566 H1558 0.930 . S
C1566 C1565 1.362 . S
C1566 C1569 1.409 . S
C1567 H1559 0.930 . S
C1567 C1568 1.355 . S
C1567 C1569 1.415 . S
C1568 C1567 1.355 . S
C1568 C1570 1.419 . S
C1569 C1564 1.425 . S
C1569 C1566 1.409 . S
C1569 C1567 1.415 . S
C1570 H1560 0.930 . S
C1570 C1568 1.419 . S
C1570 C1571 1.362 . S
C1571 H1561 0.930 . S
C1571 C1564 1.409 . S
C1571 C1570 1.362 . S
H1572 C1578 0.930 . S
H1573 C1581 0.930 . S
H1574 C1582 0.930 . S
H1575 C1583 0.930 . S
H1576 C1586 0.930 . S
H1577 C1587 0.930 . S
C1578 H1572 0.930 . S
C1578 C1579 1.355 . S
C1578 C1580 1.415 . S
C1579 C1578 1.355 . S
C1579 C1581 1.419 . S
C1580 C1578 1.415 . S
C1580 C1585 1.425 . S
C1580 C1587 1.409 . S
C1581 H1573 0.930 . S
C1581 C1579 1.419 . S
C1581 C1582 1.362 . S
C1582 H1574 0.930 . S
C1582 C1581 1.362 . S
C1582 C1585 1.409 . S
C1583 H1575 0.930 . S
C1583 C1584 1.355 . S
C1583 C1585 1.415 . S
C1584 C1583 1.355 . S
C1584 C1586 1.419 . S
C1585 C1580 1.425 . S
C1585 C1582 1.409 . S
C1585 C1583 1.415 . S
C1586 H1576 0.930 . S
C1586 C1584 1.419 . S
C1586 C1587 1.362 . S
C1587 H1577 0.930 . S
C1587 C1580 1.409 . S
C1587 C1586 1.362 . S
H1588 C1594 0.930 . S
H1589 C1597 0.930 . S
H1590 C1598 0.930 . S
H1591 C1599 0.930 . S
H1592 C1602 0.930 . S
H1593 C1603 0.930 . S
C1594 H1588 0.930 . S
C1594 C1595 1.355 . S
C1594 C1596 1.415 . S
C1595 C1594 1.355 . S
C1595 C1597 1.419 . S
C1596 C1594 1.415 . S
C1596 C1601 1.425 . S
C1596 C1603 1.409 . S
C1597 H1589 0.930 . S
C1597 C1595 1.419 . S
C1597 C1598 1.362 . S
C1598 H1590 0.930 . S
C1598 C1597 1.362 . S
C1598 C1601 1.409 . S
C1599 H1591 0.930 . S
C1599 C1600 1.355 . S
C1599 C1601 1.415 . S
C1600 C1599 1.355 . S
C1600 C1602 1.419 . S
C1601 C1596 1.425 . S
C1601 C1598 1.409 . S
C1601 C1599 1.415 . S
C1602 H1592 0.930 . S
C1602 C1600 1.419 . S
C1602 C1603 1.362 . S
C1603 H1593 0.930 . S
C1603 C1596 1.409 . S
C1603 C1602 1.362 . S
H1604 C1610 0.930 . S
H1605 C1613 0.930 . S
H1606 C1614 0.930 . S
H1607 C1615 0.930 . S
H1608 C1618 0.930 . S
H1609 C1619 0.930 . S
C1610 H1604 0.930 . S
C1610 C1611 1.355 . S
C1610 C1612 1.415 . S
C1611 C1610 1.355 . S
C1611 C1613 1.419 . S
C1612 C1610 1.415 . S
C1612 C1617 1.425 . S
C1612 C1619 1.409 . S
C1613 H1605 0.930 . S
C1613 C1611 1.419 . S
C1613 C1614 1.362 . S
C1614 H1606 0.930 . S
C1614 C1613 1.362 . S
C1614 C1617 1.409 . S
C1615 H1607 0.930 . S
C1615 C1616 1.355 . S
C1615 C1617 1.415 . S
C1616 C1615 1.355 . S
C1616 C1618 1.419 . S
C1617 C1612 1.425 . S
C1617 C1614 1.409 . S
C1617 C1615 1.415 . S
C1618 H1608 0.930 . S
C1618 C1616 1.419 . S
C1618 C1619 1.362 . S
C1619 H1609 0.930 . S
C1619 C1612 1.409 . S
C1619 C1618 1.362 . S
H1620 C1626 0.930 . S
H1621 C1629 0.930 . S
H1622 C1630 0.930 . S
H1623 C1631 0.930 . S
H1624 C1634 0.930 . S
H1625 C1635 0.930 . S
C1626 H1620 0.930 . S
C1626 C1627 1.355 . S
C1626 C1628 1.415 . S
C1627 C1626 1.355 . S
C1627 C1629 1.419 . S
C1628 C1626 1.415 . S
C1628 C1633 1.425 . S
C1628 C1635 1.409 . S
C1629 H1621 0.930 . S
C1629 C1627 1.419 . S
C1629 C1630 1.362 . S
C1630 H1622 0.930 . S
C1630 C1629 1.362 . S
C1630 C1633 1.409 . S
C1631 H1623 0.930 . S
C1631 C1632 1.355 . S
C1631 C1633 1.415 . S
C1632 C1631 1.355 . S
C1632 C1634 1.419 . S
C1633 C1628 1.425 . S
C1633 C1630 1.409 . S
C1633 C1631 1.415 . S
C1634 H1624 0.930 . S
C1634 C1632 1.419 . S
C1634 C1635 1.362 . S
C1635 H1625 0.930 . S
C1635 C1628 1.409 . S
C1635 C1634 1.362 . S
H1636 C1642 0.930 . S
H1637 C1645 0.930 . S
H1638 C1646 0.930 . S
H1639 C1647 0.930 . S
H1640 C1650 0.930 . S
H1641 C1651 0.930 . S
C1642 H1636 0.930 . S
C1642 C1643 1.355 . S
C1642 C1644 1.415 . S
C1643 C1642 1.355 . S
C1643 C1645 1.419 . S
C1644 C1642 1.415 . S
C1644 C1649 1.425 . S
C1644 C1651 1.409 . S
C1645 H1637 0.930 . S
C1645 C1643 1.419 . S
C1645 C1646 1.362 . S
C1646 H1638 0.930 . S
C1646 C1645 1.362 . S
C1646 C1649 1.409 . S
C1647 H1639 0.930 . S
C1647 C1648 1.355 . S
C1647 C1649 1.415 . S
C1648 C1647 1.355 . S
C1648 C1650 1.419 . S
C1649 C1644 1.425 . S
C1649 C1646 1.409 . S
C1649 C1647 1.415 . S
C1650 H1640 0.930 . S
C1650 C1648 1.419 . S
C1650 C1651 1.362 . S
C1651 H1641 0.930 . S
C1651 C1644 1.409 . S
C1651 C1650 1.362 . S
H1652 C1658 0.930 . S
H1653 C1661 0.930 . S
H1654 C1662 0.930 . S
H1655 C1663 0.930 . S
H1656 C1666 0.930 . S
H1657 C1667 0.930 . S
C1658 H1652 0.930 . S
C1658 C1659 1.355 . S
C1658 C1660 1.415 . S
C1659 C1658 1.355 . S
C1659 C1661 1.419 . S
C1660 C1658 1.415 . S
C1660 C1665 1.425 . S
C1660 C1667 1.409 . S
C1661 H1653 0.930 . S
C1661 C1659 1.419 . S
C1661 C1662 1.362 . S
C1662 H1654 0.930 . S
C1662 C1661 1.362 . S
C1662 C1665 1.409 . S
C1663 H1655 0.930 . S
C1663 C1664 1.355 . S
C1663 C1665 1.415 . S
C1664 C1663 1.355 . S
C1664 C1666 1.419 . S
C1665 C1660 1.425 . S
C1665 C1662 1.409 . S
C1665 C1663 1.415 . S
C1666 H1656 0.930 . S
C1666 C1664 1.419 . S
C1666 C1667 1.362 . S
C1667 H1657 0.930 . S
C1667 C1660 1.409 . S
C1667 C1666 1.362 . S
H1668 C1674 0.930 . S
H1669 C1677 0.930 . S
H1670 C1678 0.930 . S
H1671 C1679 0.930 . S
H1672 C1682 0.930 . S
H1673 C1683 0.930 . S
C1674 H1668 0.930 . S
C1674 C1675 1.355 . S
C1674 C1676 1.415 . S
C1675 C1674 1.355 . S
C1675 C1677 1.419 . S
C1676 C1674 1.415 . S
C1676 C1681 1.425 . S
C1676 C1683 1.409 . S
C1677 H1669 0.930 . S
C1677 C1675 1.419 . S
C1677 C1678 1.362 . S
C1678 H1670 0.930 . S
C1678 C1677 1.362 . S
C1678 C1681 1.409 . S
C1679 H1671 0.930 . S
C1679 C1680 1.355 . S
C1679 C1681 1.415 . S
C1680 C1679 1.355 . S
C1680 C1682 1.419 . S
C1681 C1676 1.425 . S
C1681 C1678 1.409 . S
C1681 C1679 1.415 . S
C1682 H1672 0.930 . S
C1682 C1680 1.419 . S
C1682 C1683 1.362 . S
C1683 H1673 0.930 . S
C1683 C1676 1.409 . S
C1683 C1682 1.362 . S
H1684 C1690 0.930 . S
H1685 C1693 0.930 . S
H1686 C1694 0.930 . S
H1687 C1695 0.930 . S
H1688 C1698 0.930 . S
H1689 C1699 0.930 . S
C1690 H1684 0.930 . S
C1690 C1691 1.355 . S
C1690 C1692 1.415 . S
C1691 C1690 1.355 . S
C1691 C1693 1.419 . S
C1692 C1690 1.415 . S
C1692 C1697 1.425 . S
C1692 C1699 1.409 . S
C1693 H1685 0.930 . S
C1693 C1691 1.419 . S
C1693 C1694 1.362 . S
C1694 H1686 0.930 . S
C1694 C1693 1.362 . S
C1694 C1697 1.409 . S
C1695 H1687 0.930 . S
C1695 C1696 1.355 . S
C1695 C1697 1.415 . S
C1696 C1695 1.355 . S
C1696 C1698 1.419 . S
C1697 C1692 1.425 . S
C1697 C1694 1.409 . S
C1697 C1695 1.415 . S
C1698 H1688 0.930 . S
C1698 C1696 1.419 . S
C1698 C1699 1.362 . S
C1699 H1689 0.930 . S
C1699 C1692 1.409 . S
C1699 C1698 1.362 . S
H1700 C1706 0.930 . S
H1701 C1709 0.930 . S
H1702 C1710 0.930 . S
H1703 C1711 0.930 . S
H1704 C1714 0.930 . S
H1705 C1715 0.930 . S
C1706 H1700 0.930 . S
C1706 C1707 1.355 . S
C1706 C1708 1.415 . S
C1707 C1706 1.355 . S
C1707 C1709 1.419 . S
C1708 C1706 1.415 . S
C1708 C1713 1.425 . S
C1708 C1715 1.409 . S
C1709 H1701 0.930 . S
C1709 C1707 1.419 . S
C1709 C1710 1.362 . S
C1710 H1702 0.930 . S
C1710 C1709 1.362 . S
C1710 C1713 1.409 . S
C1711 H1703 0.930 . S
C1711 C1712 1.355 . S
C1711 C1713 1.415 . S
C1712 C1711 1.355 . S
C1712 C1714 1.419 . S
C1713 C1708 1.425 . S
C1713 C1710 1.409 . S
C1713 C1711 1.415 . S
C1714 H1704 0.930 . S
C1714 C1712 1.419 . S
C1714 C1715 1.362 . S
C1715 H1705 0.930 . S
C1715 C1708 1.409 . S
C1715 C1714 1.362 . S
H1716 C1722 0.930 . S
H1717 C1725 0.930 . S
H1718 C1726 0.930 . S
H1719 C1727 0.930 . S
H1720 C1730 0.930 . S
H1721 C1731 0.930 . S
C1722 H1716 0.930 . S
C1722 C1723 1.355 . S
C1722 C1724 1.415 . S
C1723 C1722 1.355 . S
C1723 C1725 1.419 . S
C1724 C1722 1.415 . S
C1724 C1729 1.425 . S
C1724 C1731 1.409 . S
C1725 H1717 0.930 . S
C1725 C1723 1.419 . S
C1725 C1726 1.362 . S
C1726 H1718 0.930 . S
C1726 C1725 1.362 . S
C1726 C1729 1.409 . S
C1727 H1719 0.930 . S
C1727 C1728 1.355 . S
C1727 C1729 1.415 . S
C1728 C1727 1.355 . S
C1728 C1730 1.419 . S
C1729 C1724 1.425 . S
C1729 C1726 1.409 . S
C1729 C1727 1.415 . S
C1730 H1720 0.930 . S
C1730 C1728 1.419 . S
C1730 C1731 1.362 . S
C1731 H1721 0.930 . S
C1731 C1724 1.409 . S
C1731 C1730 1.362 . S
H1732 C1738 0.930 . S
H1733 C1741 0.930 . S
H1734 C1742 0.930 . S
H1735 C1743 0.930 . S
H1736 C1746 0.930 . S
H1737 C1747 0.930 . S
C1738 H1732 0.930 . S
C1738 C1739 1.355 . S
C1738 C1740 1.415 . S
C1739 C1738 1.355 . S
C1739 C1741 1.419 . S
C1740 C1738 1.415 . S
C1740 C1745 1.425 . S
C1740 C1747 1.409 . S
C1741 H1733 0.930 . S
C1741 C1739 1.419 . S
C1741 C1742 1.362 . S
C1742 H1734 0.930 . S
C1742 C1741 1.362 . S
C1742 C1745 1.409 . S
C1743 H1735 0.930 . S
C1743 C1744 1.355 . S
C1743 C1745 1.415 . S
C1744 C1743 1.355 . S
C1744 C1746 1.419 . S
C1745 C1740 1.425 . S
C1745 C1742 1.409 . S
C1745 C1743 1.415 . S
C1746 H1736 0.930 . S
C1746 C1744 1.419 . S
C1746 C1747 1.362 . S
C1747 H1737 0.930 . S
C1747 C1740 1.409 . S
C1747 C1746 1.362 . S
H1748 C1754 0.930 . S
H1749 C1757 0.930 . S
H1750 C1758 0.930 . S
H1751 C1759 0.930 . S
H1752 C1762 0.930 . S
H1753 C1763 0.930 . S
C1754 H1748 0.930 . S
C1754 C1755 1.355 . S
C1754 C1756 1.415 . S
C1755 C1754 1.355 . S
C1755 C1757 1.419 . S
C1756 C1754 1.415 . S
C1756 C1761 1.425 . S
C1756 C1763 1.409 . S
C1757 H1749 0.930 . S
C1757 C1755 1.419 . S
C1757 C1758 1.362 . S
C1758 H1750 0.930 . S
C1758 C1757 1.362 . S
C1758 C1761 1.409 . S
C1759 H1751 0.930 . S
C1759 C1760 1.355 . S
C1759 C1761 1.415 . S
C1760 C1759 1.355 . S
C1760 C1762 1.419 . S
C1761 C1756 1.425 . S
C1761 C1758 1.409 . S
C1761 C1759 1.415 . S
C1762 H1752 0.930 . S
C1762 C1760 1.419 . S
C1762 C1763 1.362 . S
C1763 H1753 0.930 . S
C1763 C1756 1.409 . S
C1763 C1762 1.362 . S
H1764 C1770 0.930 . S
H1765 C1773 0.930 . S
H1766 C1774 0.930 . S
H1767 C1775 0.930 . S
H1768 C1778 0.930 . S
H1769 C1779 0.930 . S
C1770 H1764 0.930 . S
C1770 C1771 1.355 . S
C1770 C1772 1.415 . S
C1771 C1770 1.355 . S
C1771 C1773 1.419 . S
C1772 C1770 1.415 . S
C1772 C1777 1.425 . S
C1772 C1779 1.409 . S
C1773 H1765 0.930 . S
C1773 C1771 1.419 . S
C1773 C1774 1.362 . S
C1774 H1766 0.930 . S
C1774 C1773 1.362 . S
C1774 C1777 1.409 . S
C1775 H1767 0.930 . S
C1775 C1776 1.355 . S
C1775 C1777 1.415 . S
C1776 C1775 1.355 . S
C1776 C1778 1.419 . S
C1777 C1772 1.425 . S
C1777 C1774 1.409 . S
C1777 C1775 1.415 . S
C1778 H1768 0.930 . S
C1778 C1776 1.419 . S
C1778 C1779 1.362 . S
C1779 H1769 0.930 . S
C1779 C1772 1.409 . S
C1779 C1778 1.362 . S
H1780 C1786 0.930 . S
H1781 C1789 0.930 . S
H1782 C1790 0.930 . S
H1783 C1791 0.930 . S
H1784 C1794 0.930 . S
H1785 C1795 0.930 . S
C1786 H1780 0.930 . S
C1786 C1787 1.355 . S
C1786 C1788 1.415 . S
C1787 C1786 1.355 . S
C1787 C1789 1.419 . S
C1788 C1786 1.415 . S
C1788 C1793 1.425 . S
C1788 C1795 1.409 . S
C1789 H1781 0.930 . S
C1789 C1787 1.419 . S
C1789 C1790 1.362 . S
C1790 H1782 0.930 . S
C1790 C1789 1.362 . S
C1790 C1793 1.409 . S
C1791 H1783 0.930 . S
C1791 C1792 1.355 . S
C1791 C1793 1.415 . S
C1792 C1791 1.355 . S
C1792 C1794 1.419 . S
C1793 C1788 1.425 . S
C1793 C1790 1.409 . S
C1793 C1791 1.415 . S
C1794 H1784 0.930 . S
C1794 C1792 1.419 . S
C1794 C1795 1.362 . S
C1795 H1785 0.930 . S
C1795 C1788 1.409 . S
C1795 C1794 1.362 . S
H1796 C1802 0.930 . S
H1797 C1805 0.930 . S
H1798 C1806 0.930 . S
H1799 C1807 0.930 . S
H1800 C1810 0.930 . S
H1801 C1811 0.930 . S
C1802 H1796 0.930 . S
C1802 C1803 1.355 . S
C1802 C1804 1.415 . S
C1803 C1802 1.355 . S
C1803 C1805 1.419 . S
C1804 C1802 1.415 . S
C1804 C1809 1.425 . S
C1804 C1811 1.409 . S
C1805 H1797 0.930 . S
C1805 C1803 1.419 . S
C1805 C1806 1.362 . S
C1806 H1798 0.930 . S
C1806 C1805 1.362 . S
C1806 C1809 1.409 . S
C1807 H1799 0.930 . S
C1807 C1808 1.355 . S
C1807 C1809 1.415 . S
C1808 C1807 1.355 . S
C1808 C1810 1.419 . S
C1809 C1804 1.425 . S
C1809 C1806 1.409 . S
C1809 C1807 1.415 . S
C1810 H1800 0.930 . S
C1810 C1808 1.419 . S
C1810 C1811 1.362 . S
C1811 H1801 0.930 . S
C1811 C1804 1.409 . S
C1811 C1810 1.362 . S
H1812 C1818 0.930 . S
H1813 C1821 0.930 . S
H1814 C1822 0.930 . S
H1815 C1823 0.930 . S
H1816 C1826 0.930 . S
H1817 C1827 0.930 . S
C1818 H1812 0.930 . S
C1818 C1819 1.355 . S
C1818 C1820 1.415 . S
C1819 C1818 1.355 . S
C1819 C1821 1.419 . S
C1820 C1818 1.415 . S
C1820 C1825 1.425 . S
C1820 C1827 1.409 . S
C1821 H1813 0.930 . S
C1821 C1819 1.419 . S
C1821 C1822 1.362 . S
C1822 H1814 0.930 . S
C1822 C1821 1.362 . S
C1822 C1825 1.409 . S
C1823 H1815 0.930 . S
C1823 C1824 1.355 . S
C1823 C1825 1.415 . S
C1824 C1823 1.355 . S
C1824 C1826 1.419 . S
C1825 C1820 1.425 . S
C1825 C1822 1.409 . S
C1825 C1823 1.415 . S
C1826 H1816 0.930 . S
C1826 C1824 1.419 . S
C1826 C1827 1.362 . S
C1827 H1817 0.930 . S
C1827 C1820 1.409 . S
C1827 C1826 1.362 . S
H1828 C1834 0.930 . S
H1829 C1837 0.930 . S
H1830 C1838 0.930 . S
H1831 C1839 0.930 . S
H1832 C1842 0.930 . S
H1833 C1843 0.930 . S
C1834 H1828 0.930 . S
C1834 C1835 1.355 . S
C1834 C1836 1.415 . S
C1835 C1834 1.355 . S
C1835 C1837 1.419 . S
C1836 C1834 1.415 . S
C1836 C1841 1.425 . S
C1836 C1843 1.409 . S
C1837 H1829 0.930 . S
C1837 C1835 1.419 . S
C1837 C1838 1.362 . S
C1838 H1830 0.930 . S
C1838 C1837 1.362 . S
C1838 C1841 1.409 . S
C1839 H1831 0.930 . S
C1839 C1840 1.355 . S
C1839 C1841 1.415 . S
C1840 C1839 1.355 . S
C1840 C1842 1.419 . S
C1841 C1836 1.425 . S
C1841 C1838 1.409 . S
C1841 C1839 1.415 . S
C1842 H1832 0.930 . S
C1842 C1840 1.419 . S
C1842 C1843 1.362 . S
C1843 H1833 0.930 . S
C1843 C1836 1.409 . S
C1843 C1842 1.362 . S
H1844 C1850 0.930 . S
H1845 C1853 0.930 . S
H1846 C1854 0.930 . S
H1847 C1855 0.930 . S
H1848 C1858 0.930 . S
H1849 C1859 0.930 . S
C1850 H1844 0.930 . S
C1850 C1851 1.355 . S
C1850 C1852 1.415 . S
C1851 C1850 1.355 . S
C1851 C1853 1.419 . S
C1852 C1850 1.415 . S
C1852 C1857 1.425 . S
C1852 C1859 1.409 . S
C1853 H1845 0.930 . S
C1853 C1851 1.419 . S
C1853 C1854 1.362 . S
C1854 H1846 0.930 . S
C1854 C1853 1.362 . S
C1854 C1857 1.409 . S
C1855 H1847 0.930 . S
C1855 C1856 1.355 . S
C1855 C1857 1.415 . S
C1856 C1855 1.355 . S
C1856 C1858 1.419 . S
C1857 C1852 1.425 . S
C1857 C1854 1.409 . S
C1857 C1855 1.415 . S
C1858 H1848 0.930 . S
C1858 C1856 1.419 . S
C1858 C1859 1.362 . S
C1859 H1849 0.930 . S
C1859 C1852 1.409 . S
C1859 C1858 1.362 . S
H1860 C1866 0.930 . S
H1861 C1869 0.930 . S
H1862 C1870 0.930 . S
H1863 C1871 0.930 . S
H1864 C1874 0.930 . S
H1865 C1875 0.930 . S
C1866 H1860 0.930 . S
C1866 C1867 1.355 . S
C1866 C1868 1.415 . S
C1867 C1866 1.355 . S
C1867 C1869 1.419 . S
C1868 C1866 1.415 . S
C1868 C1873 1.425 . S
C1868 C1875 1.409 . S
C1869 H1861 0.930 . S
C1869 C1867 1.419 . S
C1869 C1870 1.362 . S
C1870 H1862 0.930 . S
C1870 C1869 1.362 . S
C1870 C1873 1.409 . S
C1871 H1863 0.930 . S
C1871 C1872 1.355 . S
C1871 C1873 1.415 . S
C1872 C1871 1.355 . S
C1872 C1874 1.419 . S
C1873 C1868 1.425 . S
C1873 C1870 1.409 . S
C1873 C1871 1.415 . S
C1874 H1864 0.930 . S
C1874 C1872 1.419 . S
C1874 C1875 1.362 . S
C1875 H1865 0.930 . S
C1875 C1868 1.409 . S
C1875 C1874 1.362 . S
H1876 C1882 0.930 . S
H1877 C1885 0.930 . S
H1878 C1886 0.930 . S
H1879 C1887 0.930 . S
H1880 C1890 0.930 . S
H1881 C1891 0.930 . S
C1882 H1876 0.930 . S
C1882 C1883 1.355 . S
C1882 C1884 1.415 . S
C1883 C1882 1.355 . S
C1883 C1885 1.419 . S
C1884 C1882 1.415 . S
C1884 C1889 1.425 . S
C1884 C1891 1.409 . S
C1885 H1877 0.930 . S
C1885 C1883 1.419 . S
C1885 C1886 1.362 . S
C1886 H1878 0.930 . S
C1886 C1885 1.362 . S
C1886 C1889 1.409 . S
C1887 H1879 0.930 . S
C1887 C1888 1.355 . S
C1887 C1889 1.415 . S
C1888 C1887 1.355 . S
C1888 C1890 1.419 . S
C1889 C1884 1.425 . S
C1889 C1886 1.409 . S
C1889 C1887 1.415 . S
C1890 H1880 0.930 . S
C1890 C1888 1.419 . S
C1890 C1891 1.362 . S
C1891 H1881 0.930 . S
C1891 C1884 1.409 . S
C1891 C1890 1.362 . S
H1892 C1898 0.930 . S
H1893 C1901 0.930 . S
H1894 C1902 0.930 . S
H1895 C1903 0.930 . S
H1896 C1906 0.930 . S
H1897 C1907 0.930 . S
C1898 H1892 0.930 . S
C1898 C1899 1.355 . S
C1898 C1900 1.415 . S
C1899 C1898 1.355 . S
C1899 C1901 1.419 . S
C1900 C1898 1.415 . S
C1900 C1905 1.425 . S
C1900 C1907 1.409 . S
C1901 H1893 0.930 . S
C1901 C1899 1.419 . S
C1901 C1902 1.362 . S
C1902 H1894 0.930 . S
C1902 C1901 1.362 . S
C1902 C1905 1.409 . S
C1903 H1895 0.930 . S
C1903 C1904 1.355 . S
C1903 C1905 1.415 . S
C1904 C1903 1.355 . S
C1904 C1906 1.419 . S
C1905 C1900 1.425 . S
C1905 C1902 1.409 . S
C1905 C1903 1.415 . S
C1906 H1896 0.930 . S
C1906 C1904 1.419 . S
C1906 C1907 1.362 . S
C1907 H1897 0.930 . S
C1907 C1900 1.409 . S
C1907 C1906 1.362 . S
C768 C462 1.689 . S
C763 C439 1.684 . S
C779 C401 1.802 . S
C784 C460 1.809 . S
C800 C461 1.802 . S
C795 C382 1.810 . S
C811 C420 1.689 . S
C816 C463 1.679 . S
C832 C507 1.645 . S
C827 C306 1.657 . S
C848 C567 1.731 . S
C843 C325 1.743 . S
C859 C344 1.632 . S
C864 C506 1.623 . S
C880 C566 1.853 . S
C875 C363 1.864 . S
C891 C230 1.761 . S
C896 C508 1.766 . S
C912 C564 1.709 . S
C907 C249 1.713 . S
C923 C268 1.772 . S
C928 C509 1.768 . S
C939 C287 1.588 . S
C944 C565 1.590 . S
C960 C615 1.679 . S
C955 C211 1.689 . S
C971 C173 1.803 . S
C976 C614 1.809 . S
C987 C154 1.802 . S
C992 C616 1.809 . S
C1008 C617 1.690 . S
C1003 C192 1.683 . S
C1019 C78 1.659 . S
C1024 C658 1.653 . S
C1035 C97 1.743 . S
C1040 C717 1.729 . S
C1051 C116 1.631 . S
C1056 C656 1.622 . S
C1067 C135 1.865 . S
C1072 C716 1.852 1_565 S
C1088 C657 1.759 . S
C1083 C2 1.764 . S
C1104 C714 1.714 . S
C1099 C21 1.704 1_565 S
C1115 C40 1.771 . S
C1120 C659 1.767 . S
C1136 C715 1.595 . S
C1131 C59 1.586 . S
C1152 C459 1.629 . S
C1147 C6 1.616 . S
C1163 C30 1.409 1_565 S
C1168 C465 1.416 . S
C1179 C49 1.262 . S
C1184 C457 1.330 . S
C1195 C68 1.278 1_545 S
C1200 C464 1.271 1_565 S
C1211 C82 1.571 . S
C1216 C456 1.612 . S
C1232 C466 1.344 . S
C1227 C106 1.311 1_565 S
C1243 C125 1.313 . S
C1248 C458 1.302 . S
C1264 C467 1.844 1_565 S
C1259 C139 1.810 . S
C1280 C513 1.572 . S
C1275 C63 1.541 . S
C1291 C11 1.277 . S
C1296 C556 1.343 . S
C1312 C511 1.547 . S
C1307 C25 1.540 1_565 S
C1328 C558 1.652 . S
C1323 C44 1.651 . S
C1339 C101 1.665 1_565 S
C1344 C512 1.677 . S
C1360 C557 1.496 . S
C1355 C120 1.493 . S
C1376 C510 1.337 . S
C1371 C144 1.343 1_565 S
C1392 C559 1.228 . S
C1387 C87 1.234 . S
C1408 C563 1.423 . S
C1403 C163 1.422 . S
C1419 C182 1.389 1_554 S
C1424 C562 1.435 . S
C1440 C514 1.749 . S
C1435 C158 1.705 . S
C1456 C561 1.704 . S
C1451 C196 1.702 . S
C1467 C220 1.311 . S
C1472 C517 1.353 . S
C1483 C215 1.701 . S
C1488 C560 1.703 . S
C1504 C516 1.750 . S
C1499 C177 1.718 . S
C1520 C515 1.327 . S
C1515 C201 1.330 . S
C1536 C609 1.634 . S
C1531 C234 1.607 . S
C1552 C612 1.414 . S
C1547 C258 1.406 . S
C1563 C277 1.259 . S
C1568 C608 1.323 . S
C1584 C610 1.251 . S
C1579 C296 1.237 . S
C1600 C606 1.606 . S
C1595 C310 1.593 . S
C1611 C334 1.331 . S
C1616 C611 1.324 . S
C1627 C353 1.244 . S
C1632 C607 1.312 . S
C1648 C613 1.844 . S
C1643 C367 1.811 . S
C1664 C667 1.572 . S
C1659 C291 1.560 . S
C1675 C239 1.272 . S
C1680 C706 1.342 . S
C1696 C666 1.545 . S
C1691 C253 1.500 . S
C1712 C708 1.652 . S
C1707 C272 1.649 . S
C1728 C665 1.680 . S
C1723 C329 1.636 . S
C1739 C348 1.446 . S
C1744 C707 1.492 . S
C1760 C664 1.348 . S
C1755 C372 1.279 . S
C1776 C709 1.235 . S
C1771 C315 1.178 . S
C1792 C713 1.415 . S
C1787 C391 1.412 . S
C1803 C410 1.357 . S
C1808 C712 1.418 . S
C1824 C660 1.745 . S
C1819 C386 1.728 . S
C1835 C424 1.661 . S
C1840 C711 1.708 . S
C1856 C663 1.353 . S
C1851 C448 1.303 . S
C1872 C710 1.705 . S
C1867 C443 1.694 . S
C1888 C661 1.750 . S
C1883 C405 1.705 . S
C1899 C429 1.310 . S
C1904 C662 1.354 . S
