# Generated by pormake.
# Topology anh, (6,3)-cn, num edge types: 1
# Building blocks:
#     Node 0, Type 0, BuildingBlock: BETFEN_clean_sbu_0, # of connection points: 6
#     Node 1, Type 0, BuildingBlock: BETFEN_clean_sbu_0, # of connection points: 6
#     Node 2, Type 0, BuildingBlock: BETFEN_clean_sbu_0, # of connection points: 6
#     Node 3, Type 1, BuildingBlock: VETTIZ_charged_linker_0, # of connection points: 3
#     Node 4, Type 1, BuildingBlock: VETTIZ_charged_linker_0, # of connection points: 3
#     Node 5, Type 1, BuildingBlock: VETTIZ_charged_linker_0, # of connection points: 3
#     Node 6, Type 1, BuildingBlock: VETTIZ_charged_linker_0, # of connection points: 3
#     Node 7, Type 1, BuildingBlock: VETTIZ_charged_linker_0, # of connection points: 3
#     Node 8, Type 1, BuildingBlock: VETTIZ_charged_linker_0, # of connection points: 3
#     Edge 9, Type (0, 1), BuildingBlock: CIFDUS_clean_linker_0, # of connection points: 2
#     Edge 10, Type (0, 1), BuildingBlock: CIFDUS_clean_linker_0, # of connection points: 2
#     Edge 11, Type (0, 1), BuildingBlock: CIFDUS_clean_linker_0, # of connection points: 2
#     Edge 12, Type (0, 1), BuildingBlock: CIFDUS_clean_linker_0, # of connection points: 2
#     Edge 13, Type (0, 1), BuildingBlock: CIFDUS_clean_linker_0, # of connection points: 2
#     Edge 14, Type (0, 1), BuildingBlock: CIFDUS_clean_linker_0, # of connection points: 2
#     Edge 15, Type (0, 1), BuildingBlock: CIFDUS_clean_linker_0, # of connection points: 2
#     Edge 16, Type (0, 1), BuildingBlock: CIFDUS_clean_linker_0, # of connection points: 2
#     Edge 17, Type (0, 1), BuildingBlock: CIFDUS_clean_linker_0, # of connection points: 2
#     Edge 18, Type (0, 1), BuildingBlock: CIFDUS_clean_linker_0, # of connection points: 2
#     Edge 19, Type (0, 1), BuildingBlock: CIFDUS_clean_linker_0, # of connection points: 2
#     Edge 20, Type (0, 1), BuildingBlock: CIFDUS_clean_linker_0, # of connection points: 2
#     Edge 21, Type (0, 1), BuildingBlock: CIFDUS_clean_linker_0, # of connection points: 2
#     Edge 22, Type (0, 1), BuildingBlock: CIFDUS_clean_linker_0, # of connection points: 2
#     Edge 23, Type (0, 1), BuildingBlock: CIFDUS_clean_linker_0, # of connection points: 2
#     Edge 24, Type (0, 1), BuildingBlock: CIFDUS_clean_linker_0, # of connection points: 2
#     Edge 25, Type (0, 1), BuildingBlock: CIFDUS_clean_linker_0, # of connection points: 2
#     Edge 26, Type (0, 1), BuildingBlock: CIFDUS_clean_linker_0, # of connection points: 2
# Relax obj value: 0.199
# Max RMSD: 0.216
# Mean RMSD: 0.162
data_MOF--net-anh--node1-BETFEN_clean_sbu_0--node2-VETTIZ_charged_linker_0--edge1-CIFDUS_clean_linker_0
_symmetry_space_group_name_H-M    P1
_symmetry_Int_Tables_number       1
_symmetry_cell_setting            triclinic
loop_
_symmetry_equiv_pos_as_xyz
'x, y, z'
_cell_length_a     31.293236
_cell_length_b     32.256599
_cell_length_c     60.62556
_cell_angle_alpha  90.773984
_cell_angle_beta   91.780507
_cell_angle_gamma 102.28055
loop_
_atom_site_label
_atom_site_type_symbol
_atom_site_fract_x
_atom_site_fract_y
_atom_site_fract_z
_atom_type_partial_charge
Pr0 Pr 0.05374 0.55064 0.15213 0.0
Pr1 Pr 0.07456 0.64436 0.14401 0.0
C2 C 1.02165 0.47191 0.16679 0.0
C3 C 0.97932 0.44523 0.17313 0.0
C4 C 0.9498 0.4219 0.15721 0.0
C5 C 0.91032 0.39623 0.16351 0.0
C6 C 0.89955 0.39333 0.18586 0.0
C7 C 0.9292 0.41649 0.20175 0.0
C8 C 0.96864 0.44199 0.19547 0.0
C9 C 0.06244 0.57109 0.10788 0.0
C10 C 0.97184 0.60227 0.14521 0.0
C11 C 0.10883 0.72434 0.1318 0.0
C12 C 0.15117 0.7536 0.13662 0.0
C13 C 0.15464 0.79762 0.13611 0.0
C14 C 0.19402 0.82534 0.14261 0.0
C15 C 0.23054 0.80937 0.14975 0.0
C16 C 0.22713 0.76517 0.14953 0.0
C17 C 0.18781 0.73764 0.14321 0.0
C18 C 0.06692 0.62392 0.1884 0.0
C19 C 0.15667 0.59184 0.14703 0.0
O20 O 1.03878 0.50417 0.17985 0.0
O21 O 1.02692 0.48037 0.14589 0.0
O22 O 1.04157 0.5885 0.1214 0.0
O23 O 0.07934 0.54166 0.11687 0.0
O24 O 1.00021 0.63238 0.13581 0.0
O25 O 0.985 0.57065 0.15521 0.0
O26 O 0.10987 0.69086 0.11956 0.0
O27 O 0.08347 0.71558 0.14858 0.0
O28 O 0.087 0.60628 0.17464 0.0
O29 O 0.05135 0.65425 0.1796 0.0
O30 O 0.12999 0.5591 0.15547 0.0
O31 O 0.14197 0.6248 0.13983 0.0
H32 H 0.95715 0.42338 0.13986 0.0
H33 H 0.88807 0.37894 0.15087 0.0
H34 H 0.92229 0.41435 0.21914 0.0
H35 H 0.99091 0.459 0.20819 0.0
H36 H 0.12658 0.81053 0.13125 0.0
H37 H 0.19533 0.85917 0.14281 0.0
H38 H 0.25472 0.75174 0.15459 0.0
H39 H 0.1858 0.70382 0.14396 0.0
Pr40 Pr 0.59444 0.09183 0.51089 0.0
Pr41 Pr 0.49702 0.06373 0.51537 0.0
C42 C 0.67722 0.1272 0.50051 0.0
C43 C 0.70341 0.16767 0.49261 0.0
C44 C 0.73202 0.19513 0.50733 0.0
C45 C 0.7579 0.23286 0.49995 0.0
C46 C 0.756 0.24382 0.47763 0.0
C47 C 0.72737 0.21626 0.46291 0.0
C48 C 0.70138 0.17864 0.4703 0.0
C49 C 0.5678 0.07313 0.55371 0.0
C50 C 0.53633 0.16704 0.51667 0.0
C51 C 0.41524 1.02778 0.52686 0.0
C52 C 0.38106 0.99071 0.51982 0.0
C53 C 0.37175 0.98069 0.49733 0.0
C54 C 0.33879 0.94592 0.49084 0.0
C55 C 0.3148 0.92022 0.50669 0.0
C56 C 0.32481 0.92968 0.5292 0.0
C57 C 0.35758 0.96481 0.5357 0.0
C58 C 0.52105 0.07936 0.47194 0.0
C59 C 0.55711 0.98765 0.51085 0.0
O60 O 0.64876 0.10416 0.48656 0.0
O61 O 0.66313 0.12714 0.52059 0.0
O62 O 0.55025 0.09436 0.54026 0.0
O63 O 0.60159 1.06184 0.54556 0.0
O64 O 0.50626 0.13654 0.52501 0.0
O65 O 0.57028 0.15708 0.50696 0.0
O66 O 0.45014 1.0198 0.5369 0.0
O67 O 0.42404 1.05884 0.51293 0.0
O68 O 0.54084 1.06035 0.48565 0.0
O69 O 0.48621 0.08837 0.4801 0.0
O70 O 0.59129 1.01845 0.50701 0.0
O71 O 0.51869 0.99664 0.51515 0.0
H72 H 0.73455 0.18736 0.52459 0.0
H73 H 0.77924 0.25354 0.51178 0.0
H74 H 0.72562 0.22329 0.44553 0.0
H75 H 0.68006 0.15802 0.45843 0.0
H76 H 0.38984 0.99978 0.48473 0.0
H77 H 0.33223 0.93895 0.47338 0.0
H78 H 0.30672 0.91044 0.54174 0.0
H79 H 0.36447 0.9719 0.55313 0.0
Pr80 Pr 0.57544 0.58049 0.81504 0.0
Pr81 Pr 0.60386 0.66889 0.8326 0.0
C82 C 0.56743 0.50344 0.79625 0.0
C83 C 0.57693 0.46513 0.80615 0.0
C84 C 0.5773 0.46144 0.82922 0.0
C85 C 0.58353 0.42418 0.8389 0.0
C86 C 0.59041 0.39046 0.82566 0.0
C87 C 0.59243 0.39506 0.80264 0.0
C88 C 0.58554 0.43222 0.79292 0.0
C89 C 0.57571 0.58562 0.86095 0.0
C90 C 0.68308 0.62388 0.82288 0.0
C91 C 0.60238 0.74031 0.85503 0.0
C92 C 0.56437 0.76048 0.85581 0.0
C93 C 0.54159 0.76596 0.83611 0.0
C94 C 0.50127 0.77746 0.83662 0.0
C95 C 0.48231 0.78338 0.85681 0.0
C96 C 0.50547 0.77894 0.87659 0.0
C97 C 0.54615 0.76736 0.87608 0.0
C98 C 0.60244 0.66205 0.78659 0.0
C99 C 0.49706 0.6282 0.82254 0.0
O100 O 0.60138 0.5341 0.79345 0.0
O101 O 0.5345 0.51655 0.80455 0.0
O102 O 0.60546 0.60587 0.84929 0.0
O103 O 0.54603 0.56028 0.84907 0.0
O104 O 0.67269 0.65338 0.83561 0.0
O105 O 0.65254 0.59649 0.81149 0.0
O106 O 0.59673 0.70351 0.86454 0.0
O107 O 0.62116 0.74059 0.836 0.0
O108 O 0.57319 0.64288 0.79879 0.0
O109 O 0.63299 0.68799 0.79789 0.0
O110 O 0.50807 0.60008 0.80909 0.0
O111 O 0.52729 0.65325 0.83506 0.0
H112 H 0.57154 0.48696 0.83974 0.0
H113 H 0.5818 0.42121 0.85665 0.0
H114 H 0.59714 0.3691 0.79211 0.0
H115 H 0.58585 0.43485 0.77512 0.0
H116 H 0.55418 0.76011 0.82019 0.0
H117 H 0.48499 0.78187 0.82106 0.0
H118 H 0.4918 0.78364 0.89239 0.0
H119 H 0.5627 0.76242 0.89148 0.0
C120 C 0.66572 0.18361 0.20836 0.0
C121 C 0.69826 0.21228 0.22071 0.0
C122 C 0.69711 0.21224 0.24393 0.0
C123 C 0.6313 0.1569 0.24223 0.0
C124 C 0.63253 0.15638 0.21945 0.0
C125 C 0.5947 0.12453 0.20904 0.0
H126 H 0.40776 0.97692 0.22268 0.0
C127 C 0.59224 0.12569 0.24869 0.0
C128 C 0.57046 0.10657 0.22932 0.0
H129 H 0.46879 1.01633 0.16121 0.0
H130 H 0.52667 0.06584 0.18119 0.0
H131 H 0.49716 0.97198 0.24951 0.0
H132 H 0.41914 0.06617 0.24382 0.0
H133 H 0.43984 0.07043 0.27116 0.0
H134 H 0.40449 1.02144 0.26138 0.0
H135 H 0.4444 0.96657 0.2613 0.0
H136 H 0.49372 0.99271 0.27619 0.0
C137 C 0.61332 0.09062 0.19645 0.0
C138 C 0.56718 0.14869 0.19437 0.0
C139 C 0.55712 0.10824 0.32996 0.0
C140 C 0.52107 0.08448 0.34069 0.0
C141 C 0.48763 1.05737 0.32814 0.0
C142 C 0.48975 1.05413 0.30519 0.0
C143 C 0.52552 0.07861 0.29456 0.0
C144 C 0.55841 0.10514 0.30689 0.0
C145 C 0.59266 0.13026 0.29257 0.0
C146 C 0.57497 0.11415 0.26968 0.0
C147 C 0.53589 0.08374 0.27102 0.0
C148 C 0.63678 0.1178 0.29834 0.0
C149 C 0.59297 0.17806 0.29612 0.0
C150 C 0.43384 0.99574 0.21346 0.0
C151 C 0.43385 0.99232 0.19033 0.0
C152 C 0.46788 1.01843 0.17903 0.0
C153 C 0.50157 1.04698 0.19067 0.0
C154 C 0.50117 1.04958 0.21386 0.0
C155 C 0.46755 1.02412 0.22477 0.0
C156 C 0.47183 1.03081 0.24934 0.0
C157 C 0.51385 0.06425 0.25154 0.0
C158 C 0.53101 0.07537 0.23076 0.0
C159 C 0.47676 0.98841 0.25982 0.0
C160 C 0.43177 1.04781 0.25701 0.0
H161 H 0.66504 0.18649 0.2724 0.0
H162 H 0.66563 0.18293 0.1905 0.0
H163 H 0.56464 0.17918 0.2025 0.0
H164 H 0.5331 0.13118 0.19149 0.0
H165 H 0.58238 0.15618 0.17819 0.0
H166 H 0.64188 0.08313 0.20574 0.0
H167 H 0.62447 0.10197 0.17995 0.0
H168 H 0.58967 1.06002 0.19442 0.0
H169 H 0.58295 0.12974 0.33924 0.0
H170 H 0.45969 1.03867 0.33617 0.0
H171 H 0.46317 1.03298 0.29663 0.0
H172 H 0.63172 0.0832 0.30145 0.0
H173 H 0.65261 0.135 0.31345 0.0
H174 H 0.65995 0.1235 0.28479 0.0
H175 H 0.55993 0.18292 0.30021 0.0
H176 H 0.60125 0.1968 0.28113 0.0
H177 H 0.61597 0.19212 0.30988 0.0
H178 H 0.72221 0.23334 0.25385 0.0
C179 C 0.66396 0.18478 0.25472 0.0
C180 C 0.54912 0.69894 0.51802 0.0
C181 C 0.55589 0.73994 0.52858 0.0
C182 C 0.56758 0.74322 0.55115 0.0
C183 C 0.56344 0.66732 0.55309 0.0
C184 C 0.55394 0.66284 0.53068 0.0
C185 C 0.55115 0.61645 0.52327 0.0
H186 H 0.54866 0.41053 0.55915 0.0
C187 C 0.56376 0.62515 0.56241 0.0
C188 C 0.55696 0.59417 0.54522 0.0
H189 H 0.54607 0.44643 0.49097 0.0
H190 H 0.54836 0.5204 0.50253 0.0
H191 H 0.62309 0.48477 0.57415 0.0
H192 H 0.48331 0.46548 0.5761 0.0
H193 H 0.50337 0.49209 0.60092 0.0
H194 H 0.51476 0.44058 0.59499 0.0
H195 H 0.59155 0.45024 0.59342 0.0
H196 H 0.61244 0.50579 0.5997 0.0
C197 C 0.58905 0.61518 0.50787 0.0
C198 C 0.50622 0.59843 0.51201 0.0
C199 C 0.57596 0.61734 0.64592 0.0
C200 C 0.57312 0.58358 0.66056 0.0
C201 C 0.56759 0.54195 0.65186 0.0
C202 C 0.56467 0.53416 0.62899 0.0
C203 C 0.56712 0.56831 0.61451 0.0
C204 C 0.57271 0.60895 0.62315 0.0
C205 C 0.57341 0.64127 0.60556 0.0
C206 C 0.56709 0.61338 0.58478 0.0
C207 C 0.56381 0.57086 0.59009 0.0
C208 C 0.61924 0.67169 0.60688 0.0
C209 C 0.53413 0.66283 0.60916 0.0
C210 C 0.54797 0.43378 0.54648 0.0
C211 C 0.54657 0.42174 0.52412 0.0
C212 C 0.54714 0.45428 0.50842 0.0
C213 C 0.54862 0.49728 0.5151 0.0
C214 C 0.55059 0.50851 0.53777 0.0
C215 C 0.55041 0.47635 0.5528 0.0
C216 C 0.55462 0.49228 0.57615 0.0
C217 C 0.55808 0.53931 0.57312 0.0
C218 C 0.55508 0.54999 0.5506 0.0
C219 C 0.59736 0.48268 0.5866 0.0
C220 C 0.51213 0.4715 0.58784 0.0
H221 H 0.57951 0.71348 0.58044 0.0
H222 H 0.54077 0.69529 0.50054 0.0
H223 H 0.47958 0.60192 0.52314 0.0
H224 H 0.50217 0.5643 0.50782 0.0
H225 H 0.50211 0.61551 0.49655 0.0
H226 H 0.62076 0.63155 0.51584 0.0
H227 H 0.5845 0.63137 0.49217 0.0
H228 H 0.5918 0.58241 0.50389 0.0
H229 H 0.57946 0.64965 0.65202 0.0
H230 H 0.56568 0.51537 0.66279 0.0
H231 H 0.56048 0.50173 0.62352 0.0
H232 H 0.64473 0.65575 0.61387 0.0
H233 H 0.61922 0.69999 0.61752 0.0
H234 H 0.63122 0.68214 0.59044 0.0
H235 H 0.50613 0.64035 0.61625 0.0
H236 H 0.5203 0.67305 0.5937 0.0
H237 H 0.54333 0.69049 0.62075 0.0
H238 H 0.57296 0.7737 0.55973 0.0
C239 C 0.57126 0.70774 0.56328 0.0
C240 C 0.20407 0.60033 0.83493 0.0
C241 C 0.24373 0.59514 0.84516 0.0
C242 C 0.24474 0.58603 0.86776 0.0
C243 C 0.16937 0.59184 0.87045 0.0
C244 C 0.16711 0.59866 0.848 0.0
C245 C 0.1221 0.60486 0.84073 0.0
H246 H 0.92544 0.64204 0.87297 0.0
C247 C 0.12791 0.59651 0.88002 0.0
C248 C 0.09972 0.60456 0.8628 0.0
H249 H 0.96175 0.62471 0.80599 0.0
H250 H 1.03286 0.61324 0.81935 0.0
H251 H 0.96058 0.56236 0.89165 0.0
H252 H 1.01199 0.69668 0.89061 0.0
H253 H 1.03407 0.68002 0.91505 0.0
H254 H 0.97543 0.67339 0.91139 0.0
H255 H 0.93907 0.60081 0.90704 0.0
H256 H 0.98271 0.57828 0.91819 0.0
C257 C 0.10012 0.56666 0.82576 0.0
C258 C 0.1269 0.648 0.82931 0.0
C259 C 0.11313 0.5897 0.96342 0.0
C260 C 0.08243 0.60076 0.97774 0.0
C261 C 0.04755 0.61701 0.96841 0.0
C262 C 0.04217 0.62018 0.94556 0.0
C263 C 0.07245 0.60802 0.9316 0.0
C264 C 0.10796 0.59445 0.94059 0.0
C265 C 0.13955 0.58793 0.92331 0.0
C266 C 0.1157 0.59763 0.90236 0.0
C267 C 0.07613 0.60847 0.90737 0.0
C268 C 0.14356 0.54092 0.92364 0.0
C269 C 0.18337 0.6205 0.92803 0.0
C270 C 0.94876 0.63593 0.86114 0.0
C271 C 0.93844 0.63467 0.83851 0.0
C272 C 0.96925 0.62589 0.82358 0.0
C273 C 1.0103 0.6192 0.83136 0.0
C274 C 1.02008 0.6206 0.85427 0.0
C275 C 0.98896 0.62837 0.8686 0.0
C276 C 1.00272 0.62661 0.89234 0.0
C277 C 0.04713 0.61587 0.8902 0.0
C278 C 0.05806 0.61309 0.86793 0.0
C279 C 0.96963 0.59039 0.90307 0.0
C280 C 1.00603 0.67125 0.90307 0.0
H281 H 0.2112 0.5774 0.89749 0.0
H282 H 0.20242 0.60694 0.8175 0.0
H283 H 0.14793 0.67355 0.83968 0.0
H284 H 0.09529 0.65737 0.82661 0.0
H285 H 0.14222 0.64719 0.81307 0.0
H286 H 0.10732 0.53666 0.83223 0.0
H287 H 0.11229 0.57051 0.80873 0.0
H288 H 0.06413 0.56168 0.82508 0.0
H289 H 0.14065 0.57742 0.96962 0.0
H290 H 1.02432 0.62785 0.9787 0.0
H291 H 1.01456 0.63214 0.9397 0.0
H292 H 0.11085 0.51963 0.92526 0.0
H293 H 0.16479 0.53513 0.93779 0.0
H294 H 0.15649 0.53049 0.90824 0.0
H295 H 0.17924 0.64704 0.93912 0.0
H296 H 0.19689 0.63631 0.91289 0.0
H297 H 0.20833 0.60531 0.93608 0.0
H298 H 0.27467 0.58125 0.87583 0.0
C299 C 0.2079 0.58411 0.88036 0.0
C300 C 0.96937 0.46982 0.45129 0.0
C301 C 0.94006 0.43815 0.43896 0.0
C302 C 0.93873 0.44024 0.41576 0.0
C303 C 0.99403 0.50537 0.41746 0.0
C304 C 0.99583 0.50319 0.44022 0.0
C305 C 1.02768 0.54049 0.45068 0.0
H306 H 0.17048 0.72793 0.43723 0.0
C307 C 1.0244 0.54453 0.41105 0.0
C308 C 0.04423 0.56544 0.43044 0.0
H309 H 0.13378 0.66611 0.49872 0.0
H310 H 0.08675 0.6073 0.47861 0.0
H311 H 0.17946 0.64357 0.41008 0.0
H312 H 0.07798 0.7135 0.4165 0.0
H313 H 0.07256 0.69397 0.38922 0.0
H314 H 0.12247 0.73005 0.39847 0.0
H315 H 0.18189 0.69498 0.3986 0.0
H316 H 0.15668 0.64708 0.38349 0.0
C317 C 0.06441 0.52363 0.46296 0.0
C318 C 1.002 0.56512 0.46563 0.0
C319 C 1.03747 0.58262 0.32994 0.0
C320 C 0.06006 0.61881 0.31935 0.0
C321 C 0.08685 0.65182 0.33194 0.0
C322 C 0.09115 0.64898 0.35486 0.0
C323 C 0.06794 0.61294 0.36537 0.0
C324 C 1.0415 0.5806 0.35298 0.0
C325 C 1.01759 0.54591 0.36721 0.0
C326 C 1.03454 0.56261 0.39011 0.0
C327 C 0.06419 0.60164 0.38884 0.0
C328 C 1.0323 0.50441 0.36116 0.0
C329 C 0.96774 0.54355 0.36387 0.0
C330 C 0.15205 0.70199 0.44647 0.0
C331 C 0.15543 0.70198 0.46962 0.0
C332 C 0.13174 0.66689 0.48087 0.0
C333 C 0.10432 0.63292 0.46917 0.0
C334 C 0.10064 0.63406 0.44598 0.0
C335 C 0.12463 0.66818 0.43511 0.0
C336 C 0.11693 0.66475 0.41057 0.0
C337 C 0.08434 0.6228 0.40833 0.0
C338 C 0.07471 0.60481 0.42906 0.0
C339 C 0.16091 0.66275 0.39995 0.0
C340 C 0.09673 0.70252 0.40312 0.0
H341 H 0.96286 0.47324 0.38729 0.0
H342 H 0.97094 0.46916 0.46916 0.0
H343 H 0.96969 0.5663 0.45775 0.0
H344 H 1.01862 0.59858 0.4685 0.0
H345 H 0.99592 0.54961 0.48182 0.0
H346 H 0.0732 0.49712 0.45341 0.0
H347 H 0.05385 0.51149 0.47941 0.0
H348 H 0.09516 0.54774 0.46504 0.0
H349 H 1.01621 0.5571 0.32057 0.0
H350 H 0.10456 0.67987 0.32396 0.0
H351 H 0.11212 0.67518 0.36348 0.0
H352 H 0.06803 0.51093 0.35824 0.0
H353 H 1.01494 0.48943 0.34586 0.0
H354 H 1.0274 0.48103 0.37447 0.0
H355 H 0.96097 0.57505 0.35963 0.0
H356 H 0.94943 0.5347 0.37899 0.0
H357 H 0.95345 0.52092 0.35028 0.0
H358 H 0.91697 0.41586 0.40589 0.0
C359 C 0.96557 0.47352 0.40497 0.0
C360 C 0.35623 0.94383 0.80752 0.0
C361 C 0.34021 0.90228 0.79904 0.0
C362 C 0.34344 0.89593 0.77596 0.0
C363 C 0.39391 0.96377 0.77371 0.0
C364 C 0.38613 0.97225 0.79543 0.0
C365 C 0.4203 1.00808 0.80542 0.0
H366 H 0.60291 0.15839 0.79368 0.0
C367 C 0.43369 0.99424 0.76738 0.0
C368 C 0.4499 1.01941 0.78615 0.0
H369 H 0.52681 0.13069 0.85218 0.0
H370 H 0.47972 0.07151 0.83306 0.0
H371 H 0.60506 1.06069 0.78189 0.0
H372 H 0.5267 0.14773 0.76064 0.0
H373 H 0.53629 0.11993 0.73687 0.0
H374 H 0.582 0.15129 0.75251 0.0
H375 H 0.62343 0.10036 0.76187 0.0
H376 H 0.5923 1.04818 0.75389 0.0
C377 C 0.4441 0.99086 0.82509 0.0
C378 C 0.39757 1.04449 0.81171 0.0
C379 C 0.48749 0.99666 0.68867 0.0
C380 C 0.52524 1.0202 0.67914 0.0
C381 C 0.55637 1.04839 0.69235 0.0
C382 C 0.54983 1.054 0.71474 0.0
C383 C 0.51181 1.03096 0.72413 0.0
C384 C 0.48169 1.0022 0.71134 0.0
C385 C 0.44504 0.9784 0.7249 0.0
C386 C 0.45685 0.9999 0.74745 0.0
C387 C 0.496 1.0305 0.74675 0.0
C388 C 0.44765 0.93088 0.72504 0.0
C389 C 0.40114 0.98628 0.71541 0.0
C390 C 0.57737 0.13874 0.80286 0.0
C391 C 0.56848 0.14991 0.82449 0.0
C392 C 0.53402 0.12348 0.83538 0.0
C393 C 0.50659 0.08908 0.82421 0.0
C394 C 0.51424 0.08034 0.80208 0.0
C395 C 0.55 0.10418 0.79205 0.0
C396 C 0.5529 0.091 0.7684 0.0
C397 C 0.5125 1.05561 0.76575 0.0
C398 C 0.4898 1.0498 0.7854 0.0
C399 C 0.59567 0.07443 0.76619 0.0
C400 C 0.54963 0.12932 0.75369 0.0
H401 H 0.3734 0.91898 0.74624 0.0
H402 H 0.35192 0.95249 0.82442 0.0
H403 H 0.37417 1.04938 0.79829 0.0
H404 H 0.42071 0.07531 0.81415 0.0
H405 H 0.37887 1.03703 0.82696 0.0
H406 H 0.44272 0.95624 0.82312 0.0
H407 H 0.42909 0.9959 0.841 0.0
H408 H 0.47953 1.00505 0.82635 0.0
H409 H 0.46346 0.97437 0.67877 0.0
H410 H 0.5855 0.06681 0.68516 0.0
H411 H 0.57454 0.07644 0.7238 0.0
H412 H 0.48072 0.92632 0.72083 0.0
H413 H 0.4238 0.91185 0.7129 0.0
H414 H 0.44207 0.91695 0.74156 0.0
H415 H 0.40322 1.0208 0.71313 0.0
H416 H 0.37373 0.97528 0.72641 0.0
H417 H 0.39274 0.96997 0.6991 0.0
H418 H 0.32953 0.8659 0.76785 0.0
C419 C 0.36987 0.9267 0.76326 0.0
C420 C 0.67613 0.56048 0.13102 0.0
C421 C 0.71627 0.56399 0.12042 0.0
C422 C 0.71665 0.56498 0.09726 0.0
C423 C 0.63868 0.56117 0.09527 0.0
C424 C 0.63758 0.55941 0.11804 0.0
C425 C 0.59172 0.55758 0.12595 0.0
H426 H 0.37967 0.56465 0.09808 0.0
C427 C 0.59433 0.56127 0.0864 0.0
C428 C 0.56619 0.55929 0.1042 0.0
H429 H 0.43246 0.55309 0.16377 0.0
H430 H 0.50378 0.55215 0.14876 0.0
H431 H 0.45873 0.6326 0.0816 0.0
H432 H 0.42371 0.49669 0.07578 0.0
H433 H 0.4458 0.51417 0.05048 0.0
H434 H 0.3972 0.53034 0.05939 0.0
H435 H 0.41537 0.60516 0.06334 0.0
H436 H 0.47112 0.61964 0.05468 0.0
C437 C 0.59253 0.59694 0.14087 0.0
C438 C 0.57628 0.51504 0.13763 0.0
C439 C 0.57002 0.56896 0.00334 0.0
C440 C 0.5328 0.5699 0.98992 0.0
C441 C 0.4929 0.57043 -0.0 0.0
C442 C 0.48991 0.56924 0.02298 0.0
C443 C 0.5272 0.56749 0.03617 0.0
C444 C 0.56642 0.56769 0.02631 0.0
C445 C 0.60258 0.56586 0.04293 0.0
C446 C 0.5784 0.56393 0.06439 0.0
C447 C 0.53442 0.56488 0.0603 0.0
C448 C 0.63797 0.60743 0.04131 0.0
C449 C 0.61893 0.5245 0.03836 0.0
C450 C 0.40658 0.56218 0.10933 0.0
C451 C 0.40066 0.55962 0.13212 0.0
C452 C 0.43632 0.55527 0.1461 0.0
C453 C 0.47764 0.55495 0.13737 0.0
C454 C 0.48312 0.55863 0.11441 0.0
C455 C 0.44745 0.5616 0.10093 0.0
C456 C 0.45778 0.56429 0.077 0.0
C457 C 0.50576 0.56296 0.07807 0.0
C458 C 0.52109 0.55986 0.09998 0.0
C459 C 0.45017 0.60742 0.0685 0.0
C460 C 0.42962 0.52462 0.06485 0.0
H461 H 0.6813 0.56464 0.06716 0.0
H462 H 0.67506 0.55974 0.14885 0.0
H463 H 0.58526 0.4886 0.12812 0.0
H464 H 0.54043 0.50637 0.13896 0.0
H465 H 0.59179 0.51602 0.15442 0.0
H466 H 0.6113 0.62602 0.13316 0.0
H467 H 0.60837 0.59365 0.15722 0.0
H468 H 0.55961 0.60283 0.14348 0.0
H469 H 0.60109 0.56816 -0.00386 0.0
H470 H 0.46388 0.57181 0.99006 0.0
H471 H 0.45854 0.56953 0.02954 0.0
H472 H 0.62343 0.63417 0.03554 0.0
H473 H 0.66338 0.60359 0.02952 0.0
H474 H 0.65395 0.61869 0.05746 0.0
H475 H 0.59138 0.49832 0.03268 0.0
H476 H 0.63291 0.51222 0.05324 0.0
H477 H 0.64354 0.5291 0.02531 0.0
H478 H 0.74708 0.5673 0.08881 0.0
C479 C 0.67831 0.56348 0.08469 0.0
H480 H 0.20571 0.53648 0.16367 0.0
H481 H 0.21459 0.64852 0.12426 0.0
H482 H 0.29106 0.6505 0.11837 0.0
H483 H 0.3548 0.61902 0.12227 0.0
H484 H 0.3488 0.50654 0.16052 0.0
H485 H 0.2726 0.50664 0.16933 0.0
C486 C 0.22446 0.56136 0.15387 0.0
C487 C 0.20396 0.59226 0.14446 0.0
C488 C 0.26918 0.5624 0.15035 0.0
C489 C 0.22906 0.62439 0.13189 0.0
C490 C 0.27305 0.6256 0.12841 0.0
C491 C 0.33691 0.59467 0.13269 0.0
C492 C 0.35723 0.56264 0.14058 0.0
C493 C 0.29327 0.5946 0.13731 0.0
C494 C 0.33391 0.53167 0.15433 0.0
C495 C 0.29022 0.53153 0.15918 0.0
H496 H 0.84136 0.27783 0.48942 0.0
H497 H 0.73405 0.299 0.44765 0.0
H498 H 0.78125 0.36143 0.43253 0.0
H499 H 0.85338 0.4088 0.43032 0.0
H500 H 0.96058 0.38888 0.47236 0.0
H501 H 0.91266 0.32784 0.48872 0.0
C502 C 0.82807 0.29644 0.47726 0.0
C503 C 0.78425 0.28339 0.46955 0.0
C504 C 0.85533 0.33258 0.46873 0.0
C505 C 0.76783 0.30773 0.45358 0.0
C506 C 0.79472 0.34362 0.44501 0.0
C507 C 0.86624 0.39103 0.44305 0.0
C508 C 0.9105 0.40302 0.44999 0.0
C509 C 0.83862 0.35601 0.45227 0.0
C510 C 0.92656 0.38031 0.46681 0.0
C511 C 0.89924 0.34531 0.47607 0.0
H512 H 0.40957 0.75352 0.83072 0.0
H513 H 0.46078 0.84571 0.88236 0.0
H514 H 0.40393 0.88454 0.87343 0.0
H515 H 0.35593 0.90201 0.84496 0.0
H516 H 0.31043 0.81446 0.79034 0.0
H517 H 0.34617 0.76284 0.80753 0.0
C518 C 0.40748 0.78145 0.84043 0.0
C519 C 0.44028 0.79763 0.85663 0.0
C520 C 0.37617 0.80487 0.83446 0.0
C521 C 0.43637 0.83294 0.8696 0.0
C522 C 0.404 0.85536 0.86436 0.0
C523 C 0.35331 0.87204 0.83635 0.0
C524 C 0.33564 0.86522 0.81447 0.0
C525 C 0.37617 0.84337 0.84571 0.0
C526 C 0.32804 0.82326 0.80588 0.0
C527 C 0.34842 0.79328 0.81579 0.0
H528 H 0.90029 0.54136 0.15674 0.0
H529 H 0.9368 0.66651 0.12944 0.0
H530 H 0.86032 0.66779 0.12249 0.0
H531 H 0.78358 0.631 0.12035 0.0
H532 H 0.7449 0.50559 0.1463 0.0
H533 H 0.82119 0.50707 0.15807 0.0
C534 C 0.89146 0.56908 0.14953 0.0
C535 C 0.92458 0.60351 0.14334 0.0
C536 C 0.84688 0.56964 0.14537 0.0
C537 C 0.91234 0.63926 0.13412 0.0
C538 C 0.86845 0.64015 0.13016 0.0
C539 C 0.7918 0.60448 0.12913 0.0
C540 C 0.75889 0.56835 0.13258 0.0
C541 C 0.83557 0.60522 0.13521 0.0
C542 C 0.76973 0.53395 0.14375 0.0
C543 C 0.8134 0.53465 0.15021 0.0
H544 H 0.29964 0.83892 0.52131 0.0
H545 H 0.24996 0.92077 0.47598 0.0
H546 H 0.19389 0.86091 0.46195 0.0
H547 H 0.16158 0.78512 0.46112 0.0
H548 H 0.21263 0.70163 0.50488 0.0
H549 H 0.26463 0.7625 0.52152 0.0
C550 C 0.27615 0.84362 0.50856 0.0
C551 C 0.27912 0.88408 0.49953 0.0
C552 C 0.24424 0.80886 0.50036 0.0
C553 C 0.2487 0.88978 0.48293 0.0
C554 C 0.21655 0.85564 0.47497 0.0
C555 C 0.18415 0.78017 0.47428 0.0
C556 C 0.18364 0.73885 0.48154 0.0
C557 C 0.21453 0.81498 0.48329 0.0
C558 C 0.21226 0.73313 0.49902 0.0
C559 C 0.24222 0.76788 0.50841 0.0
H560 H 0.65003 0.34093 0.82175 0.0
H561 H 0.52717 0.34637 0.85069 0.0
H562 H 0.51418 0.27077 0.8583 0.0
H563 H 0.52959 0.20235 0.8485 0.0
H564 H 0.65287 0.19554 0.8201 0.0
H565 H 0.67433 0.27285 0.82095 0.0
C566 C 0.62111 0.3256 0.83029 0.0
C567 C 0.58914 0.34857 0.83526 0.0
C568 C 0.61363 0.28203 0.8344 0.0
C569 C 0.55206 0.329 0.84663 0.0
C570 C 0.5445 0.28578 0.85086 0.0
C571 C 0.56203 0.21733 0.8434 0.0
C572 C 0.5887 0.1931 0.8333 0.0
C573 C 0.57392 0.26166 0.84368 0.0
C574 C 0.63084 0.21354 0.82708 0.0
C575 C 0.64316 0.25777 0.82752 0.0
H576 H 0.49489 0.9112 0.5069 0.0
H577 H 0.63374 0.961 0.51615 0.0
H578 H 0.64614 0.88931 0.51945 0.0
H579 H 0.61777 0.81222 0.52279 0.0
H580 H 0.47995 0.76055 0.51273 0.0
H581 H 0.46726 0.8321 0.5062 0.0
C582 C 0.52791 0.9064 0.50947 0.0
C583 C 0.56326 0.94228 0.51141 0.0
C584 C 0.53518 0.86427 0.51103 0.0
C585 C 0.60574 0.9347 0.51455 0.0
C586 C 0.61297 0.8934 0.51647 0.0
C587 C 0.58511 0.81639 0.51839 0.0
C588 C 0.55001 0.78046 0.51781 0.0
C589 C 0.57802 0.85791 0.51501 0.0
C590 C 0.5078 0.78704 0.51269 0.0
C591 C 0.50046 0.82828 0.50932 0.0
H592 H 0.75535 0.68448 0.83445 0.0
H593 H 0.71579 0.55698 0.80768 0.0
H594 H 0.79229 0.55068 0.80736 0.0
H595 H 0.87042 0.57943 0.81781 0.0
H596 H 0.90889 0.70656 0.84487 0.0
H597 H 0.83329 0.71534 0.84153 0.0
C598 C 0.76342 0.65536 0.82844 0.0
C599 C 0.72973 0.62109 0.82138 0.0
C600 C 0.80752 0.65201 0.8282 0.0
C601 C 0.74097 0.58384 0.81332 0.0
C602 C 0.78479 0.58018 0.81313 0.0
C603 C 0.86226 0.60939 0.82233 0.0
C604 C 0.89509 0.64246 0.8314 0.0
C605 C 0.81836 0.61382 0.82086 0.0
C606 C 0.88412 0.68087 0.83766 0.0
C607 C 0.84086 0.68574 0.83595 0.0
H608 H 0.27183 0.88668 0.13432 0.0
H609 H 0.28024 0.7972 0.1858 0.0
H610 H 0.34547 0.8443 0.20161 0.0
H611 H 0.39846 0.91174 0.2019 0.0
H612 H 0.38909 1.00366 0.15195 0.0
H613 H 0.32637 0.95459 0.13434 0.0
C614 C 0.28787 0.87758 0.14904 0.0
C615 C 0.2711 0.83827 0.15876 0.0
C616 C 0.32529 0.9052 0.15832 0.0
C617 C 0.29269 0.82683 0.1777 0.0
C618 C 0.32991 0.8539 0.18688 0.0
C619 C 0.38261 0.92119 0.1872 0.0
C620 C 0.3982 0.96151 0.1784 0.0
C621 C 0.34623 0.89326 0.17746 0.0
C622 C 0.37793 0.97275 0.15902 0.0
C623 C 0.34185 0.94482 0.14904 0.0
H624 H 0.58007 0.23914 0.49514 0.0
H625 H 0.48345 0.19935 0.54414 0.0
H626 H 0.47687 0.27259 0.54993 0.0
H627 H 0.49928 0.34882 0.54213 0.0
H628 H 0.59391 0.3901 0.49254 0.0
H629 H 0.5997 0.31629 0.48577 0.0
C630 C 0.55749 0.24641 0.50706 0.0
C631 C 0.53247 0.21295 0.51924 0.0
C632 C 0.55323 0.28931 0.51018 0.0
C633 C 0.50321 0.22369 0.53444 0.0
C634 C 0.49939 0.26591 0.53782 0.0
C635 C 0.52116 0.34186 0.52975 0.0
C636 C 0.54627 0.37576 0.51797 0.0
C637 C 0.52432 0.29909 0.52592 0.0
C638 C 0.57381 0.36525 0.50179 0.0
C639 C 0.57741 0.3228 0.49804 0.0
H640 H 0.42161 0.5779 0.80359 0.0
H641 H 0.46762 0.6856 0.84772 0.0
H642 H 0.39305 0.68791 0.85611 0.0
H643 H 0.31513 0.65593 0.85399 0.0
H644 H 0.26653 0.54733 0.81136 0.0
H645 H 0.34107 0.54949 0.79883 0.0
C646 C 0.41524 0.60224 0.81475 0.0
C647 C 0.4506 0.63127 0.8251 0.0
C648 C 0.3716 0.60342 0.81973 0.0
C649 C 0.44148 0.66264 0.83952 0.0
C650 C 0.39864 0.66411 0.84438 0.0
C651 C 0.32081 0.63337 0.84155 0.0
C652 C 0.28561 0.60163 0.83353 0.0
C653 C 0.36357 0.63423 0.83497 0.0
C654 C 0.29318 0.57235 0.81755 0.0
C655 C 0.33585 0.57335 0.81061 0.0
H656 H 0.86199 0.313 0.17119 0.0
H657 H 0.84359 0.41204 0.2162 0.0
H658 H 0.77847 0.36546 0.23003 0.0
H659 H 0.72884 0.29574 0.23065 0.0
H660 H 0.74701 0.19601 0.18612 0.0
H661 H 0.80936 0.24408 0.17034 0.0
C662 C 0.84335 0.32458 0.18379 0.0
C663 C 0.85795 0.36583 0.19281 0.0
C664 C 0.80589 0.29753 0.19174 0.0
C665 C 0.83357 0.3802 0.20926 0.0
C666 C 0.7962 0.35366 0.21711 0.0
C667 C 0.74649 0.2845 0.2175 0.0
C668 C 0.73362 0.24224 0.20974 0.0
C669 C 0.78251 0.31207 0.20874 0.0
C670 C 0.75616 0.22843 0.19234 0.0
C671 C 0.79198 0.25583 0.18341 0.0
H672 H 0.1283 0.581 0.07939 0.0
H673 H 0.98964 0.57359 0.08327 0.0
H674 H 0.9832 0.57962 0.04315 0.0
H675 H 1.01668 0.58521 0.00734 0.0
H676 H 0.15744 0.60466 0.00384 0.0
H677 H 0.16313 0.59422 0.04336 0.0
C678 C 0.09681 0.5808 0.07132 0.0
C679 C 0.0594 0.5765 0.08397 0.0
C680 C 0.09368 0.58593 0.04839 0.0
C681 C 1.01877 0.57689 0.07367 0.0
C682 C 1.0151 0.58021 0.0508 0.0
C683 C 0.04891 0.58837 0.01505 0.0
C684 C 0.08646 0.5956 0.00217 0.0
C685 C 0.05237 0.58473 0.03801 0.0
C686 C 0.12759 0.59803 0.01289 0.0
C687 C 0.13106 0.59257 0.03567 0.0
H688 H 0.46905 0.09983 0.43939 0.0
H689 H 0.59272 0.06393 0.45128 0.0
H690 H 0.60538 0.06522 0.41158 0.0
H691 H 0.5792 0.07337 0.37322 0.0
H692 H 0.45333 0.10494 0.36185 0.0
H693 H 0.44348 0.1086 0.40161 0.0
C694 C 0.4989 0.0925 0.43331 0.0
C695 C 0.52991 0.08177 0.44818 0.0
C696 C 0.50539 0.09238 0.41054 0.0
C697 C 0.56836 0.07223 0.44009 0.0
C698 C 0.57556 0.07293 0.41742 0.0
C699 C 0.5499 0.08141 0.37956 0.0
C700 C 0.51697 0.08883 0.36478 0.0
C701 C 0.54406 0.08252 0.40246 0.0
C702 C 0.4789 0.09885 0.37303 0.0
C703 C 0.4733 0.10099 0.3957 0.0
H704 H 0.54918 0.59882 0.76313 0.0
H705 H 0.65745 0.70533 0.75667 0.0
H706 H 0.65852 0.68998 0.71702 0.0
H707 H 0.62832 0.64626 0.68426 0.0
H708 H 0.52045 0.53941 0.69111 0.0
H709 H 0.52005 0.55447 0.73068 0.0
C710 C 0.57288 0.61878 0.75301 0.0
C711 C 0.60294 0.65337 0.76268 0.0
C712 C 0.57359 0.60947 0.73038 0.0
C713 C 0.63385 0.67864 0.7495 0.0
C714 C 0.63451 0.66984 0.72688 0.0
C715 C 0.60463 0.6264 0.69442 0.0
C716 C 0.57442 0.59179 0.68475 0.0
C717 C 0.60446 0.63537 0.71714 0.0
C718 C 0.54436 0.56593 0.69817 0.0
C719 C 0.5439 0.57471 0.72077 0.0
H720 H 0.60179 1.0283 0.58466 0.0
H721 H 0.49596 0.09231 0.57204 0.0
H722 H 0.46957 0.07617 0.60913 0.0
H723 H 0.48021 1.04888 0.64623 0.0
H724 H 0.58825 0.98852 0.65943 0.0
H725 H 0.60978 0.9973 0.62098 0.0
C726 C 0.57284 1.03849 0.59003 0.0
C727 C 0.55114 1.06184 0.5758 0.0
C728 C 0.55812 1.02945 0.61143 0.0
C729 C 0.51348 0.07463 0.58283 0.0
C730 C 0.49829 0.06532 0.604 0.0
C731 C 0.50772 1.03674 0.64041 0.0
C732 C 0.53241 1.01766 0.65532 0.0
C733 C 0.52074 1.04333 0.61855 0.0
C734 C 0.56864 1.00284 0.64799 0.0
C735 C 0.58111 1.0082 0.62612 0.0
H736 H 0.51356 0.5429 0.88666 0.0
H737 H 0.63668 0.63371 0.88957 0.0
H738 H 0.63437 0.63704 0.92996 0.0
H739 H 0.5967 0.61408 0.96437 0.0
H740 H 0.47374 0.52274 0.96067 0.0
H741 H 0.47642 0.52003 0.92057 0.0
C742 C 0.53998 0.56338 0.89612 0.0
C743 C 0.57531 0.5879 0.88524 0.0
C744 C 0.5383 0.56517 0.91916 0.0
C745 C 0.6092 0.61443 0.89766 0.0
C746 C 0.60784 0.61635 0.92071 0.0
C747 C 0.57067 0.5934 0.95477 0.0
C748 C 0.53496 0.5688 0.9655 0.0
C749 C 0.57252 0.59181 0.93164 0.0
C750 C 0.50123 0.54251 0.95282 0.0
C751 C 0.50286 0.54071 0.92989 0.0
H752 H 1.03889 0.66937 0.22045 0.0
H753 H 0.09355 0.55914 0.20958 0.0
H754 H 0.09314 0.54574 0.24925 0.0
H755 H 0.07988 0.56737 0.28729 0.0
H756 H 1.03012 0.68048 0.29792 0.0
H757 H 1.02577 0.69087 0.25807 0.0
C758 C 0.05056 0.64233 0.22677 0.0
C759 C 0.06611 0.6152 0.21219 0.0
C760 C 0.05113 0.63546 0.24954 0.0
C761 C 0.08133 0.58039 0.22055 0.0
C762 C 0.08114 0.57276 0.2432 0.0
C763 C 0.06773 0.59397 0.28074 0.0
C764 C 0.05519 0.62311 0.29529 0.0
C765 C 0.06643 0.60029 0.25787 0.0
C766 C 1.03997 0.65781 0.28686 0.0
C767 C 1.03752 0.66373 0.26416 0.0
loop_
_geom_bond_atom_site_label_1
_geom_bond_atom_site_label_2
_geom_bond_distance
_geom_bond_site_symmetry_2
_ccdc_geom_bond_type
Pr0 C2 2.880 . S
Pr0 O20 2.562 . S
Pr0 O21 2.490 . S
Pr0 O22 2.695 1_655 S
Pr0 O23 2.512 . S
Pr0 O25 2.437 . S
Pr0 O28 2.436 . S
Pr0 O30 2.438 1_655 S
Pr1 C11 2.880 . S
Pr1 O22 2.436 . S
Pr1 O24 2.438 1_455 S
Pr1 O26 2.562 . S
Pr1 O27 2.490 . S
Pr1 O28 2.695 1_455 S
Pr1 O29 2.512 . S
Pr1 O31 2.437 . S
C2 Pr0 2.880 . S
C2 C3 1.491 . S
C2 O20 1.254 . S
C2 O21 1.225 . S
C3 C2 1.491 . S
C3 C4 1.392 . S
C3 C8 1.356 . S
C4 C3 1.392 . S
C4 C5 1.368 . S
C4 H32 0.929 . S
C5 C4 1.368 . S
C5 C6 1.386 . S
C5 H33 0.929 . S
C6 C5 1.386 . S
C6 C7 1.373 . S
C7 C6 1.373 . S
C7 C8 1.409 . S
C7 H34 0.931 . S
C8 C3 1.356 . S
C8 C7 1.409 . S
C8 H35 0.930 . S
C9 O22 1.270 . S
C9 O23 1.248 1_455 S
C10 O24 1.267 . S
C10 O25 1.278 . S
C11 Pr1 2.880 . S
C11 C12 1.491 . S
C11 O26 1.254 . S
C11 O27 1.225 . S
C12 C11 1.491 . S
C12 C13 1.392 . S
C12 C17 1.356 . S
C13 C12 1.392 . S
C13 C14 1.368 . S
C13 H36 0.929 . S
C14 C13 1.368 . S
C14 C15 1.386 . S
C14 H37 0.929 . S
C15 C14 1.386 . S
C15 C16 1.373 . S
C16 C15 1.373 . S
C16 C17 1.409 . S
C16 H38 0.931 . S
C17 C12 1.356 . S
C17 C16 1.409 . S
C17 H39 0.930 . S
C18 O28 1.270 1_455 S
C18 O29 1.248 . S
C19 O30 1.267 . S
C19 O31 1.278 . S
O20 Pr0 2.562 . S
O20 C2 1.254 . S
O21 Pr0 2.490 . S
O21 C2 1.225 . S
O22 Pr0 2.695 1_455 S
O22 Pr1 2.436 . S
O22 C9 1.270 . S
O23 Pr0 2.512 . S
O23 C9 1.248 1_655 S
O24 Pr1 2.438 1_655 S
O24 C10 1.267 . S
O25 Pr0 2.437 . S
O25 C10 1.278 . S
O26 Pr1 2.562 . S
O26 C11 1.254 . S
O27 Pr1 2.490 . S
O27 C11 1.225 . S
O28 Pr0 2.436 . S
O28 Pr1 2.695 1_655 S
O28 C18 1.270 1_655 S
O29 Pr1 2.512 . S
O29 C18 1.248 . S
O30 Pr0 2.438 1_455 S
O30 C19 1.267 . S
O31 Pr1 2.437 . S
O31 C19 1.278 . S
H32 C4 0.929 . S
H33 C5 0.929 . S
H34 C7 0.931 . S
H35 C8 0.930 . S
H36 C13 0.929 . S
H37 C14 0.929 . S
H38 C16 0.931 . S
H39 C17 0.930 . S
Pr40 C42 2.880 . S
Pr40 O60 2.562 . S
Pr40 O61 2.490 . S
Pr40 O62 2.695 . S
Pr40 O63 2.512 . S
Pr40 O65 2.437 . S
Pr40 O68 2.436 . S
Pr40 O70 2.438 1_545 S
Pr41 C51 2.880 . S
Pr41 O62 2.436 1_565 S
Pr41 O64 2.438 1_565 S
Pr41 O66 2.562 . S
Pr41 O67 2.490 . S
Pr41 O68 2.695 1_565 S
Pr41 O69 2.512 . S
Pr41 O71 2.437 . S
C42 Pr40 2.880 . S
C42 C43 1.491 . S
C42 O60 1.254 . S
C42 O61 1.225 . S
C43 C42 1.491 . S
C43 C44 1.392 . S
C43 C48 1.356 . S
C44 C43 1.392 . S
C44 C45 1.368 . S
C44 H72 0.929 . S
C45 C44 1.368 . S
C45 C46 1.386 . S
C45 H73 0.929 . S
C46 C45 1.386 . S
C46 C47 1.373 . S
C47 C46 1.373 . S
C47 C48 1.409 . S
C47 H74 0.931 . S
C48 C43 1.356 . S
C48 C47 1.409 . S
C48 H75 0.930 . S
C49 O62 1.270 . S
C49 O63 1.248 . S
C50 O64 1.267 . S
C50 O65 1.278 . S
C51 Pr41 2.880 . S
C51 C52 1.491 . S
C51 O66 1.254 . S
C51 O67 1.225 . S
C52 C51 1.491 . S
C52 C53 1.392 . S
C52 C57 1.356 . S
C53 C52 1.392 . S
C53 C54 1.368 . S
C53 H76 0.929 . S
C54 C53 1.368 . S
C54 C55 1.386 . S
C54 H77 0.929 . S
C55 C54 1.386 . S
C55 C56 1.373 . S
C56 C55 1.373 . S
C56 C57 1.409 . S
C56 H78 0.931 . S
C57 C52 1.356 . S
C57 C56 1.409 . S
C57 H79 0.930 . S
C58 O68 1.270 . S
C58 O69 1.248 1_545 S
C59 O70 1.267 . S
C59 O71 1.278 . S
O60 Pr40 2.562 . S
O60 C42 1.254 . S
O61 Pr40 2.490 . S
O61 C42 1.225 . S
O62 Pr40 2.695 . S
O62 Pr41 2.436 1_545 S
O62 C49 1.270 . S
O63 Pr40 2.512 . S
O63 C49 1.248 . S
O64 Pr41 2.438 1_545 S
O64 C50 1.267 . S
O65 Pr40 2.437 . S
O65 C50 1.278 . S
O66 Pr41 2.562 . S
O66 C51 1.254 . S
O67 Pr41 2.490 . S
O67 C51 1.225 . S
O68 Pr40 2.436 . S
O68 Pr41 2.695 1_545 S
O68 C58 1.270 . S
O69 Pr41 2.512 . S
O69 C58 1.248 1_565 S
O70 Pr40 2.438 1_565 S
O70 C59 1.267 . S
O71 Pr41 2.437 . S
O71 C59 1.278 . S
H72 C44 0.929 . S
H73 C45 0.929 . S
H74 C47 0.931 . S
H75 C48 0.930 . S
H76 C53 0.929 . S
H77 C54 0.929 . S
H78 C56 0.931 . S
H79 C57 0.930 . S
Pr80 C82 2.880 . S
Pr80 O100 2.562 . S
Pr80 O101 2.490 . S
Pr80 O102 2.695 . S
Pr80 O103 2.512 . S
Pr80 O105 2.437 . S
Pr80 O108 2.436 . S
Pr80 O110 2.438 . S
Pr81 C91 2.880 . S
Pr81 O102 2.436 . S
Pr81 O104 2.438 . S
Pr81 O106 2.562 . S
Pr81 O107 2.490 . S
Pr81 O108 2.695 . S
Pr81 O109 2.512 . S
Pr81 O111 2.437 . S
C82 Pr80 2.880 . S
C82 C83 1.491 . S
C82 O100 1.254 . S
C82 O101 1.225 . S
C83 C82 1.491 . S
C83 C84 1.392 . S
C83 C88 1.356 . S
C84 C83 1.392 . S
C84 C85 1.368 . S
C84 H112 0.929 . S
C85 C84 1.368 . S
C85 C86 1.386 . S
C85 H113 0.929 . S
C86 C85 1.386 . S
C86 C87 1.373 . S
C87 C86 1.373 . S
C87 C88 1.409 . S
C87 H114 0.931 . S
C88 C83 1.356 . S
C88 C87 1.409 . S
C88 H115 0.930 . S
C89 O102 1.270 . S
C89 O103 1.248 . S
C90 O104 1.267 . S
C90 O105 1.278 . S
C91 Pr81 2.880 . S
C91 C92 1.491 . S
C91 O106 1.254 . S
C91 O107 1.225 . S
C92 C91 1.491 . S
C92 C93 1.392 . S
C92 C97 1.356 . S
C93 C92 1.392 . S
C93 C94 1.368 . S
C93 H116 0.929 . S
C94 C93 1.368 . S
C94 C95 1.386 . S
C94 H117 0.929 . S
C95 C94 1.386 . S
C95 C96 1.373 . S
C96 C95 1.373 . S
C96 C97 1.409 . S
C96 H118 0.931 . S
C97 C92 1.356 . S
C97 C96 1.409 . S
C97 H119 0.930 . S
C98 O108 1.270 . S
C98 O109 1.248 . S
C99 O110 1.267 . S
C99 O111 1.278 . S
O100 Pr80 2.562 . S
O100 C82 1.254 . S
O101 Pr80 2.490 . S
O101 C82 1.225 . S
O102 Pr80 2.695 . S
O102 Pr81 2.436 . S
O102 C89 1.270 . S
O103 Pr80 2.512 . S
O103 C89 1.248 . S
O104 Pr81 2.438 . S
O104 C90 1.267 . S
O105 Pr80 2.437 . S
O105 C90 1.278 . S
O106 Pr81 2.562 . S
O106 C91 1.254 . S
O107 Pr81 2.490 . S
O107 C91 1.225 . S
O108 Pr80 2.436 . S
O108 Pr81 2.695 . S
O108 C98 1.270 . S
O109 Pr81 2.512 . S
O109 C98 1.248 . S
O110 Pr80 2.438 . S
O110 C99 1.267 . S
O111 Pr81 2.437 . S
O111 C99 1.278 . S
H112 C84 0.929 . S
H113 C85 0.929 . S
H114 C87 0.931 . S
H115 C88 0.930 . S
H116 C93 0.929 . S
H117 C94 0.929 . S
H118 C96 0.931 . S
H119 C97 0.930 . S
C120 C121 1.391 . S
C120 C124 1.391 . S
C120 H162 0.948 . S
C121 C120 1.391 . S
C121 C122 1.391 . S
C122 C121 1.391 . S
C122 H178 0.947 . S
C122 C179 1.392 . S
C123 C124 1.391 . S
C123 C127 1.397 . S
C123 C179 1.419 . S
C124 C120 1.391 . S
C124 C123 1.391 . S
C124 C125 1.399 . S
C125 C124 1.399 . S
C125 C128 1.396 . S
C125 C137 1.453 . S
C125 C138 1.684 . S
H126 C150 0.948 . S
C127 C123 1.397 . S
C127 C128 1.394 . S
C127 C146 1.723 . S
C128 C125 1.396 . S
C128 C127 1.394 . S
C128 C158 1.728 . S
H129 C152 0.947 . S
H130 C153 0.948 . S
H131 C159 0.982 . S
H132 C160 0.979 . S
H133 C160 0.980 . S
H134 C160 0.983 . S
H135 C159 0.979 . S
H136 C159 0.977 . S
C137 C125 1.453 . S
C137 H166 0.982 . S
C137 H167 0.979 . S
C137 H168 0.977 . S
C138 C125 1.684 . S
C138 H163 0.979 . S
C138 H164 0.980 . S
C138 H165 0.983 . S
C139 C140 1.391 . S
C139 C144 1.391 . S
C139 H169 0.948 . S
C140 C139 1.391 . S
C140 C141 1.391 1_545 S
C141 C140 1.391 1_565 S
C141 C142 1.392 . S
C141 H170 0.947 . S
C142 C141 1.392 . S
C142 C143 1.419 1_565 S
C142 H171 0.948 . S
C143 C142 1.419 1_545 S
C143 C144 1.391 . S
C143 C147 1.397 . S
C144 C139 1.391 . S
C144 C143 1.391 . S
C144 C145 1.399 . S
C145 C144 1.399 . S
C145 C146 1.396 . S
C145 C148 1.453 . S
C145 C149 1.684 . S
C146 C127 1.723 . S
C146 C145 1.396 . S
C146 C147 1.394 . S
C147 C143 1.397 . S
C147 C146 1.394 . S
C147 C157 1.723 1_545 S
C148 C145 1.453 . S
C148 H172 0.982 . S
C148 H173 0.979 . S
C148 H174 0.977 . S
C149 C145 1.684 . S
C149 H175 0.979 . S
C149 H176 0.980 . S
C149 H177 0.983 . S
C150 H126 0.948 . S
C150 C151 1.391 . S
C150 C155 1.391 . S
C151 C150 1.391 . S
C151 C152 1.391 . S
C152 H129 0.947 . S
C152 C151 1.391 . S
C152 C153 1.392 . S
C153 H130 0.948 . S
C153 C152 1.392 . S
C153 C154 1.419 . S
C154 C153 1.419 . S
C154 C155 1.391 . S
C154 C158 1.393 1_565 S
C155 C150 1.391 . S
C155 C154 1.391 . S
C155 C156 1.399 . S
C156 C155 1.399 . S
C156 C157 1.396 . S
C156 C159 1.453 . S
C156 C160 1.684 . S
C157 C147 1.723 1_565 S
C157 C156 1.396 . S
C157 C158 1.392 1_565 S
C158 C128 1.728 . S
C158 C154 1.393 1_545 S
C158 C157 1.392 1_545 S
C159 H131 0.982 . S
C159 H135 0.979 . S
C159 H136 0.977 . S
C159 C156 1.453 . S
C160 H132 0.979 . S
C160 H133 0.980 . S
C160 H134 0.983 . S
C160 C156 1.684 . S
H161 C179 0.948 . S
H162 C120 0.948 . S
H163 C138 0.979 . S
H164 C138 0.980 . S
H165 C138 0.983 . S
H166 C137 0.982 . S
H167 C137 0.979 . S
H168 C137 0.977 . S
H169 C139 0.948 . S
H170 C141 0.947 . S
H171 C142 0.948 . S
H172 C148 0.982 . S
H173 C148 0.979 . S
H174 C148 0.977 . S
H175 C149 0.979 . S
H176 C149 0.980 . S
H177 C149 0.983 . S
H178 C122 0.947 . S
C179 C122 1.392 . S
C179 C123 1.419 . S
C179 H161 0.948 . S
C180 C181 1.391 . S
C180 C184 1.391 . S
C180 H222 0.948 . S
C181 C180 1.391 . S
C181 C182 1.391 . S
C182 C181 1.391 . S
C182 H238 0.947 . S
C182 C239 1.392 . S
C183 C184 1.391 . S
C183 C187 1.397 . S
C183 C239 1.419 . S
C184 C180 1.391 . S
C184 C183 1.391 . S
C184 C185 1.399 . S
C185 C184 1.399 . S
C185 C188 1.396 . S
C185 C197 1.453 . S
C185 C198 1.684 . S
H186 C210 0.948 . S
C187 C183 1.397 . S
C187 C188 1.394 . S
C187 C206 1.723 . S
C188 C185 1.396 . S
C188 C187 1.394 . S
C188 C218 1.723 . S
H189 C212 0.947 . S
H190 C213 0.948 . S
H191 C219 0.982 . S
H192 C220 0.979 . S
H193 C220 0.980 . S
H194 C220 0.983 . S
H195 C219 0.979 . S
H196 C219 0.977 . S
C197 C185 1.453 . S
C197 H226 0.982 . S
C197 H227 0.979 . S
C197 H228 0.977 . S
C198 C185 1.684 . S
C198 H223 0.979 . S
C198 H224 0.980 . S
C198 H225 0.983 . S
C199 C200 1.391 . S
C199 C204 1.391 . S
C199 H229 0.948 . S
C200 C199 1.391 . S
C200 C201 1.391 . S
C201 C200 1.391 . S
C201 C202 1.392 . S
C201 H230 0.947 . S
C202 C201 1.392 . S
C202 C203 1.419 . S
C202 H231 0.948 . S
C203 C202 1.419 . S
C203 C204 1.391 . S
C203 C207 1.397 . S
C204 C199 1.391 . S
C204 C203 1.391 . S
C204 C205 1.399 . S
C205 C204 1.399 . S
C205 C206 1.396 . S
C205 C208 1.453 . S
C205 C209 1.684 . S
C206 C187 1.723 . S
C206 C205 1.396 . S
C206 C207 1.394 . S
C207 C203 1.397 . S
C207 C206 1.394 . S
C207 C217 1.723 . S
C208 C205 1.453 . S
C208 H232 0.982 . S
C208 H233 0.979 . S
C208 H234 0.977 . S
C209 C205 1.684 . S
C209 H235 0.979 . S
C209 H236 0.980 . S
C209 H237 0.983 . S
C210 H186 0.948 . S
C210 C211 1.391 . S
C210 C215 1.391 . S
C211 C210 1.391 . S
C211 C212 1.391 . S
C212 H189 0.947 . S
C212 C211 1.391 . S
C212 C213 1.392 . S
C213 H190 0.948 . S
C213 C212 1.392 . S
C213 C214 1.419 . S
C214 C213 1.419 . S
C214 C215 1.391 . S
C214 C218 1.397 . S
C215 C210 1.391 . S
C215 C214 1.391 . S
C215 C216 1.399 . S
C216 C215 1.399 . S
C216 C217 1.396 . S
C216 C219 1.453 . S
C216 C220 1.684 . S
C217 C207 1.723 . S
C217 C216 1.396 . S
C217 C218 1.394 . S
C218 C188 1.723 . S
C218 C214 1.397 . S
C218 C217 1.394 . S
C219 H191 0.982 . S
C219 H195 0.979 . S
C219 H196 0.977 . S
C219 C216 1.453 . S
C220 H192 0.979 . S
C220 H193 0.980 . S
C220 H194 0.983 . S
C220 C216 1.684 . S
H221 C239 0.948 . S
H222 C180 0.948 . S
H223 C198 0.979 . S
H224 C198 0.980 . S
H225 C198 0.983 . S
H226 C197 0.982 . S
H227 C197 0.979 . S
H228 C197 0.977 . S
H229 C199 0.948 . S
H230 C201 0.947 . S
H231 C202 0.948 . S
H232 C208 0.982 . S
H233 C208 0.979 . S
H234 C208 0.977 . S
H235 C209 0.979 . S
H236 C209 0.980 . S
H237 C209 0.983 . S
H238 C182 0.947 . S
C239 C182 1.392 . S
C239 C183 1.419 . S
C239 H221 0.948 . S
C240 C241 1.391 . S
C240 C244 1.391 . S
C240 H282 0.948 . S
C241 C240 1.391 . S
C241 C242 1.391 . S
C242 C241 1.391 . S
C242 H298 0.947 . S
C242 C299 1.392 . S
C243 C244 1.391 . S
C243 C247 1.397 . S
C243 C299 1.419 . S
C244 C240 1.391 . S
C244 C243 1.391 . S
C244 C245 1.399 . S
C245 C244 1.399 . S
C245 C248 1.396 . S
C245 C257 1.453 . S
C245 C258 1.684 . S
H246 C270 0.948 . S
C247 C243 1.397 . S
C247 C248 1.394 . S
C247 C266 1.723 . S
C248 C245 1.396 . S
C248 C247 1.394 . S
C248 C278 1.723 1_455 S
H249 C272 0.947 . S
H250 C273 0.948 . S
H251 C279 0.982 . S
H252 C280 0.979 . S
H253 C280 0.980 . S
H254 C280 0.983 . S
H255 C279 0.979 . S
H256 C279 0.977 . S
C257 C245 1.453 . S
C257 H286 0.982 . S
C257 H287 0.979 . S
C257 H288 0.977 1_455 S
C258 C245 1.684 . S
C258 H283 0.979 . S
C258 H284 0.980 . S
C258 H285 0.983 . S
C259 C260 1.391 . S
C259 C264 1.391 . S
C259 H289 0.948 . S
C260 C259 1.391 . S
C260 C261 1.391 1_455 S
C261 C260 1.391 1_655 S
C261 C262 1.392 . S
C261 H290 0.947 . S
C262 C261 1.392 . S
C262 C263 1.419 1_655 S
C262 H291 0.948 . S
C263 C262 1.419 1_455 S
C263 C264 1.391 . S
C263 C267 1.397 . S
C264 C259 1.391 . S
C264 C263 1.391 . S
C264 C265 1.399 . S
C265 C264 1.399 . S
C265 C266 1.396 . S
C265 C268 1.453 . S
C265 C269 1.684 . S
C266 C247 1.723 . S
C266 C265 1.396 . S
C266 C267 1.394 . S
C267 C263 1.397 . S
C267 C266 1.394 . S
C267 C277 1.723 1_455 S
C268 C265 1.453 . S
C268 H292 0.982 . S
C268 H293 0.979 . S
C268 H294 0.977 . S
C269 C265 1.684 . S
C269 H295 0.979 . S
C269 H296 0.980 . S
C269 H297 0.983 . S
C270 H246 0.948 . S
C270 C271 1.391 . S
C270 C275 1.391 . S
C271 C270 1.391 . S
C271 C272 1.391 . S
C272 H249 0.947 . S
C272 C271 1.391 . S
C272 C273 1.392 . S
C273 H250 0.948 . S
C273 C272 1.392 . S
C273 C274 1.419 . S
C274 C273 1.419 . S
C274 C275 1.391 . S
C274 C278 1.397 . S
C275 C270 1.391 . S
C275 C274 1.391 . S
C275 C276 1.399 . S
C276 C275 1.399 . S
C276 C277 1.396 . S
C276 C279 1.453 . S
C276 C280 1.684 . S
C277 C267 1.723 1_655 S
C277 C276 1.396 . S
C277 C278 1.394 . S
C278 C248 1.723 1_655 S
C278 C274 1.397 . S
C278 C277 1.394 . S
C279 H251 0.982 . S
C279 H255 0.979 . S
C279 H256 0.977 . S
C279 C276 1.453 . S
C280 H252 0.979 . S
C280 H253 0.980 . S
C280 H254 0.983 . S
C280 C276 1.684 . S
H281 C299 0.948 . S
H282 C240 0.948 . S
H283 C258 0.979 . S
H284 C258 0.980 . S
H285 C258 0.983 . S
H286 C257 0.982 . S
H287 C257 0.979 . S
H288 C257 0.977 1_655 S
H289 C259 0.948 . S
H290 C261 0.947 . S
H291 C262 0.948 . S
H292 C268 0.982 . S
H293 C268 0.979 . S
H294 C268 0.977 . S
H295 C269 0.979 . S
H296 C269 0.980 . S
H297 C269 0.983 . S
H298 C242 0.947 . S
C299 C242 1.392 . S
C299 C243 1.419 . S
C299 H281 0.948 . S
C300 C301 1.391 . S
C300 C304 1.391 . S
C300 H342 0.948 . S
C301 C300 1.391 . S
C301 C302 1.391 . S
C302 C301 1.391 . S
C302 H358 0.947 . S
C302 C359 1.392 . S
C303 C304 1.391 . S
C303 C307 1.397 . S
C303 C359 1.419 . S
C304 C300 1.391 . S
C304 C303 1.391 . S
C304 C305 1.399 . S
C305 C304 1.399 . S
C305 C308 1.396 . S
C305 C317 1.453 1_655 S
C305 C318 1.684 . S
H306 C330 0.948 . S
C307 C303 1.397 . S
C307 C308 1.394 . S
C307 C326 1.723 . S
C308 C305 1.396 . S
C308 C307 1.394 . S
C308 C338 1.723 1_655 S
H309 C332 0.947 . S
H310 C333 0.948 . S
H311 C339 0.982 . S
H312 C340 0.979 . S
H313 C340 0.980 . S
H314 C340 0.983 . S
H315 C339 0.979 . S
H316 C339 0.977 . S
C317 C305 1.453 1_455 S
C317 H346 0.982 . S
C317 H347 0.979 1_455 S
C317 H348 0.977 . S
C318 C305 1.684 . S
C318 H343 0.979 . S
C318 H344 0.980 . S
C318 H345 0.983 . S
C319 C320 1.391 . S
C319 C324 1.391 . S
C319 H349 0.948 . S
C320 C319 1.391 . S
C320 C321 1.391 1_655 S
C321 C320 1.391 1_455 S
C321 C322 1.392 . S
C321 H350 0.947 . S
C322 C321 1.392 . S
C322 C323 1.419 . S
C322 H351 0.948 . S
C323 C322 1.419 . S
C323 C324 1.391 1_455 S
C323 C327 1.397 . S
C324 C319 1.391 . S
C324 C323 1.391 1_655 S
C324 C325 1.399 . S
C325 C324 1.399 . S
C325 C326 1.396 . S
C325 C328 1.453 . S
C325 C329 1.684 . S
C326 C307 1.723 . S
C326 C325 1.396 . S
C326 C327 1.394 1_655 S
C327 C323 1.397 . S
C327 C326 1.394 1_455 S
C327 C337 1.723 . S
C328 C325 1.453 . S
C328 H352 0.982 . S
C328 H353 0.979 . S
C328 H354 0.977 . S
C329 C325 1.684 . S
C329 H355 0.979 . S
C329 H356 0.980 . S
C329 H357 0.983 . S
C330 H306 0.948 . S
C330 C331 1.391 . S
C330 C335 1.391 . S
C331 C330 1.391 . S
C331 C332 1.391 . S
C332 H309 0.947 . S
C332 C331 1.391 . S
C332 C333 1.392 . S
C333 H310 0.948 . S
C333 C332 1.392 . S
C333 C334 1.419 . S
C334 C333 1.419 . S
C334 C335 1.391 . S
C334 C338 1.397 . S
C335 C330 1.391 . S
C335 C334 1.391 . S
C335 C336 1.399 . S
C336 C335 1.399 . S
C336 C337 1.396 . S
C336 C339 1.453 . S
C336 C340 1.684 . S
C337 C327 1.723 . S
C337 C336 1.396 . S
C337 C338 1.394 . S
C338 C308 1.723 1_455 S
C338 C334 1.397 . S
C338 C337 1.394 . S
C339 H311 0.982 . S
C339 H315 0.979 . S
C339 H316 0.977 . S
C339 C336 1.453 . S
C340 H312 0.979 . S
C340 H313 0.980 . S
C340 H314 0.983 . S
C340 C336 1.684 . S
H341 C359 0.948 . S
H342 C300 0.948 . S
H343 C318 0.979 . S
H344 C318 0.980 . S
H345 C318 0.983 . S
H346 C317 0.982 . S
H347 C317 0.979 1_655 S
H348 C317 0.977 . S
H349 C319 0.948 . S
H350 C321 0.947 . S
H351 C322 0.948 . S
H352 C328 0.982 . S
H353 C328 0.979 . S
H354 C328 0.977 . S
H355 C329 0.979 . S
H356 C329 0.980 . S
H357 C329 0.983 . S
H358 C302 0.947 . S
C359 C302 1.392 . S
C359 C303 1.419 . S
C359 H341 0.948 . S
C360 C361 1.391 . S
C360 C364 1.391 . S
C360 H402 0.948 . S
C361 C360 1.391 . S
C361 C362 1.391 . S
C362 C361 1.391 . S
C362 H418 0.947 . S
C362 C419 1.392 . S
C363 C364 1.391 . S
C363 C367 1.397 . S
C363 C419 1.419 . S
C364 C360 1.391 . S
C364 C363 1.391 . S
C364 C365 1.399 . S
C365 C364 1.399 . S
C365 C368 1.396 . S
C365 C377 1.453 . S
C365 C378 1.684 . S
H366 C390 0.948 . S
C367 C363 1.397 . S
C367 C368 1.394 . S
C367 C386 1.723 . S
C368 C365 1.396 . S
C368 C367 1.394 . S
C368 C398 1.723 1_565 S
H369 C392 0.947 . S
H370 C393 0.948 . S
H371 C399 0.982 . S
H372 C400 0.979 . S
H373 C400 0.980 . S
H374 C400 0.983 . S
H375 C399 0.979 . S
H376 C399 0.977 . S
C377 C365 1.453 . S
C377 H406 0.982 . S
C377 H407 0.979 . S
C377 H408 0.977 1_565 S
C378 C365 1.684 . S
C378 H403 0.979 . S
C378 H404 0.980 1_565 S
C378 H405 0.983 . S
C379 C380 1.391 1_565 S
C379 C384 1.391 . S
C379 H409 0.948 . S
C380 C379 1.391 1_545 S
C380 C381 1.391 . S
C381 C380 1.391 . S
C381 C382 1.392 . S
C381 H410 0.947 . S
C382 C381 1.392 . S
C382 C383 1.419 . S
C382 H411 0.948 . S
C383 C382 1.419 . S
C383 C384 1.391 1_545 S
C383 C387 1.397 . S
C384 C379 1.391 . S
C384 C383 1.391 1_565 S
C384 C385 1.399 . S
C385 C384 1.399 . S
C385 C386 1.396 . S
C385 C388 1.453 . S
C385 C389 1.684 . S
C386 C367 1.723 . S
C386 C385 1.396 . S
C386 C387 1.394 1_565 S
C387 C383 1.397 . S
C387 C386 1.394 1_545 S
C387 C397 1.723 . S
C388 C385 1.453 . S
C388 H412 0.982 . S
C388 H413 0.979 . S
C388 H414 0.977 . S
C389 C385 1.684 . S
C389 H415 0.979 . S
C389 H416 0.980 . S
C389 H417 0.983 . S
C390 H366 0.948 . S
C390 C391 1.391 . S
C390 C395 1.391 . S
C391 C390 1.391 . S
C391 C392 1.391 . S
C392 H369 0.947 . S
C392 C391 1.391 . S
C392 C393 1.392 . S
C393 H370 0.948 . S
C393 C392 1.392 . S
C393 C394 1.419 . S
C394 C393 1.419 . S
C394 C395 1.391 . S
C394 C398 1.397 . S
C395 C390 1.391 . S
C395 C394 1.391 . S
C395 C396 1.399 . S
C396 C395 1.399 . S
C396 C397 1.396 . S
C396 C399 1.453 . S
C396 C400 1.684 . S
C397 C387 1.723 . S
C397 C396 1.396 . S
C397 C398 1.394 . S
C398 C368 1.723 1_545 S
C398 C394 1.397 . S
C398 C397 1.394 . S
C399 H371 0.982 . S
C399 H375 0.979 . S
C399 H376 0.977 . S
C399 C396 1.453 . S
C400 H372 0.979 . S
C400 H373 0.980 . S
C400 H374 0.983 . S
C400 C396 1.684 . S
H401 C419 0.948 . S
H402 C360 0.948 . S
H403 C378 0.979 . S
H404 C378 0.980 1_545 S
H405 C378 0.983 . S
H406 C377 0.982 . S
H407 C377 0.979 . S
H408 C377 0.977 1_545 S
H409 C379 0.948 . S
H410 C381 0.947 . S
H411 C382 0.948 . S
H412 C388 0.982 . S
H413 C388 0.979 . S
H414 C388 0.977 . S
H415 C389 0.979 . S
H416 C389 0.980 . S
H417 C389 0.983 . S
H418 C362 0.947 . S
C419 C362 1.392 . S
C419 C363 1.419 . S
C419 H401 0.948 . S
C420 C421 1.391 . S
C420 C424 1.391 . S
C420 H462 0.948 . S
C421 C420 1.391 . S
C421 C422 1.391 . S
C422 C421 1.391 . S
C422 H478 0.947 . S
C422 C479 1.392 . S
C423 C424 1.391 . S
C423 C427 1.397 . S
C423 C479 1.419 . S
C424 C420 1.391 . S
C424 C423 1.391 . S
C424 C425 1.399 . S
C425 C424 1.399 . S
C425 C428 1.396 . S
C425 C437 1.453 . S
C425 C438 1.684 . S
H426 C450 0.948 . S
C427 C423 1.397 . S
C427 C428 1.394 . S
C427 C446 1.723 . S
C428 C425 1.396 . S
C428 C427 1.394 . S
C428 C458 1.723 . S
H429 C452 0.947 . S
H430 C453 0.948 . S
H431 C459 0.982 . S
H432 C460 0.979 . S
H433 C460 0.980 . S
H434 C460 0.983 . S
H435 C459 0.979 . S
H436 C459 0.977 . S
C437 C425 1.453 . S
C437 H466 0.982 . S
C437 H467 0.979 . S
C437 H468 0.977 . S
C438 C425 1.684 . S
C438 H463 0.979 . S
C438 H464 0.980 . S
C438 H465 0.983 . S
C439 C440 1.391 . S
C439 C444 1.391 . S
C439 H469 0.948 . S
C440 C439 1.391 . S
C440 C441 1.391 . S
C441 C440 1.391 . S
C441 C442 1.392 . S
C441 H470 0.947 . S
C442 C441 1.392 . S
C442 C443 1.419 . S
C442 H471 0.948 . S
C443 C442 1.419 . S
C443 C444 1.391 . S
C443 C447 1.397 . S
C444 C439 1.391 . S
C444 C443 1.391 . S
C444 C445 1.399 . S
C445 C444 1.399 . S
C445 C446 1.396 . S
C445 C448 1.453 . S
C445 C449 1.684 . S
C446 C427 1.723 . S
C446 C445 1.396 . S
C446 C447 1.394 . S
C447 C443 1.397 . S
C447 C446 1.394 . S
C447 C457 1.723 . S
C448 C445 1.453 . S
C448 H472 0.982 . S
C448 H473 0.979 . S
C448 H474 0.977 . S
C449 C445 1.684 . S
C449 H475 0.979 . S
C449 H476 0.980 . S
C449 H477 0.983 . S
C450 H426 0.948 . S
C450 C451 1.391 . S
C450 C455 1.391 . S
C451 C450 1.391 . S
C451 C452 1.391 . S
C452 H429 0.947 . S
C452 C451 1.391 . S
C452 C453 1.392 . S
C453 H430 0.948 . S
C453 C452 1.392 . S
C453 C454 1.419 . S
C454 C453 1.419 . S
C454 C455 1.391 . S
C454 C458 1.397 . S
C455 C450 1.391 . S
C455 C454 1.391 . S
C455 C456 1.399 . S
C456 C455 1.399 . S
C456 C457 1.396 . S
C456 C459 1.453 . S
C456 C460 1.684 . S
C457 C447 1.723 . S
C457 C456 1.396 . S
C457 C458 1.394 . S
C458 C428 1.723 . S
C458 C454 1.397 . S
C458 C457 1.394 . S
C459 H431 0.982 . S
C459 H435 0.979 . S
C459 H436 0.977 . S
C459 C456 1.453 . S
C460 H432 0.979 . S
C460 H433 0.980 . S
C460 H434 0.983 . S
C460 C456 1.684 . S
H461 C479 0.948 . S
H462 C420 0.948 . S
H463 C438 0.979 . S
H464 C438 0.980 . S
H465 C438 0.983 . S
H466 C437 0.982 . S
H467 C437 0.979 . S
H468 C437 0.977 . S
H469 C439 0.948 . S
H470 C441 0.947 . S
H471 C442 0.948 . S
H472 C448 0.982 . S
H473 C448 0.979 . S
H474 C448 0.977 . S
H475 C449 0.979 . S
H476 C449 0.980 . S
H477 C449 0.983 . S
H478 C422 0.947 . S
C479 C422 1.392 . S
C479 C423 1.419 . S
C479 H461 0.948 . S
H480 C486 0.930 . S
H481 C489 0.930 . S
H482 C490 0.930 . S
H483 C491 0.930 . S
H484 C494 0.930 . S
H485 C495 0.930 . S
C486 H480 0.930 . S
C486 C487 1.355 . S
C486 C488 1.415 . S
C487 C486 1.355 . S
C487 C489 1.419 . S
C488 C486 1.415 . S
C488 C493 1.425 . S
C488 C495 1.409 . S
C489 H481 0.930 . S
C489 C487 1.419 . S
C489 C490 1.362 . S
C490 H482 0.930 . S
C490 C489 1.362 . S
C490 C493 1.409 . S
C491 H483 0.930 . S
C491 C492 1.355 . S
C491 C493 1.415 . S
C492 C491 1.355 . S
C492 C494 1.419 . S
C493 C488 1.425 . S
C493 C490 1.409 . S
C493 C491 1.415 . S
C494 H484 0.930 . S
C494 C492 1.419 . S
C494 C495 1.362 . S
C495 H485 0.930 . S
C495 C488 1.409 . S
C495 C494 1.362 . S
H496 C502 0.930 . S
H497 C505 0.930 . S
H498 C506 0.930 . S
H499 C507 0.930 . S
H500 C510 0.930 . S
H501 C511 0.930 . S
C502 H496 0.930 . S
C502 C503 1.355 . S
C502 C504 1.415 . S
C503 C502 1.355 . S
C503 C505 1.419 . S
C504 C502 1.415 . S
C504 C509 1.425 . S
C504 C511 1.409 . S
C505 H497 0.930 . S
C505 C503 1.419 . S
C505 C506 1.362 . S
C506 H498 0.930 . S
C506 C505 1.362 . S
C506 C509 1.409 . S
C507 H499 0.930 . S
C507 C508 1.355 . S
C507 C509 1.415 . S
C508 C507 1.355 . S
C508 C510 1.419 . S
C509 C504 1.425 . S
C509 C506 1.409 . S
C509 C507 1.415 . S
C510 H500 0.930 . S
C510 C508 1.419 . S
C510 C511 1.362 . S
C511 H501 0.930 . S
C511 C504 1.409 . S
C511 C510 1.362 . S
H512 C518 0.930 . S
H513 C521 0.930 . S
H514 C522 0.930 . S
H515 C523 0.930 . S
H516 C526 0.930 . S
H517 C527 0.930 . S
C518 H512 0.930 . S
C518 C519 1.355 . S
C518 C520 1.415 . S
C519 C518 1.355 . S
C519 C521 1.419 . S
C520 C518 1.415 . S
C520 C525 1.425 . S
C520 C527 1.409 . S
C521 H513 0.930 . S
C521 C519 1.419 . S
C521 C522 1.362 . S
C522 H514 0.930 . S
C522 C521 1.362 . S
C522 C525 1.409 . S
C523 H515 0.930 . S
C523 C524 1.355 . S
C523 C525 1.415 . S
C524 C523 1.355 . S
C524 C526 1.419 . S
C525 C520 1.425 . S
C525 C522 1.409 . S
C525 C523 1.415 . S
C526 H516 0.930 . S
C526 C524 1.419 . S
C526 C527 1.362 . S
C527 H517 0.930 . S
C527 C520 1.409 . S
C527 C526 1.362 . S
H528 C534 0.930 . S
H529 C537 0.930 . S
H530 C538 0.930 . S
H531 C539 0.930 . S
H532 C542 0.930 . S
H533 C543 0.930 . S
C534 H528 0.930 . S
C534 C535 1.355 . S
C534 C536 1.415 . S
C535 C534 1.355 . S
C535 C537 1.419 . S
C536 C534 1.415 . S
C536 C541 1.425 . S
C536 C543 1.409 . S
C537 H529 0.930 . S
C537 C535 1.419 . S
C537 C538 1.362 . S
C538 H530 0.930 . S
C538 C537 1.362 . S
C538 C541 1.409 . S
C539 H531 0.930 . S
C539 C540 1.355 . S
C539 C541 1.415 . S
C540 C539 1.355 . S
C540 C542 1.419 . S
C541 C536 1.425 . S
C541 C538 1.409 . S
C541 C539 1.415 . S
C542 H532 0.930 . S
C542 C540 1.419 . S
C542 C543 1.362 . S
C543 H533 0.930 . S
C543 C536 1.409 . S
C543 C542 1.362 . S
H544 C550 0.930 . S
H545 C553 0.930 . S
H546 C554 0.930 . S
H547 C555 0.930 . S
H548 C558 0.930 . S
H549 C559 0.930 . S
C550 H544 0.930 . S
C550 C551 1.355 . S
C550 C552 1.415 . S
C551 C550 1.355 . S
C551 C553 1.419 . S
C552 C550 1.415 . S
C552 C557 1.425 . S
C552 C559 1.409 . S
C553 H545 0.930 . S
C553 C551 1.419 . S
C553 C554 1.362 . S
C554 H546 0.930 . S
C554 C553 1.362 . S
C554 C557 1.409 . S
C555 H547 0.930 . S
C555 C556 1.355 . S
C555 C557 1.415 . S
C556 C555 1.355 . S
C556 C558 1.419 . S
C557 C552 1.425 . S
C557 C554 1.409 . S
C557 C555 1.415 . S
C558 H548 0.930 . S
C558 C556 1.419 . S
C558 C559 1.362 . S
C559 H549 0.930 . S
C559 C552 1.409 . S
C559 C558 1.362 . S
H560 C566 0.930 . S
H561 C569 0.930 . S
H562 C570 0.930 . S
H563 C571 0.930 . S
H564 C574 0.930 . S
H565 C575 0.930 . S
C566 H560 0.930 . S
C566 C567 1.355 . S
C566 C568 1.415 . S
C567 C566 1.355 . S
C567 C569 1.419 . S
C568 C566 1.415 . S
C568 C573 1.425 . S
C568 C575 1.409 . S
C569 H561 0.930 . S
C569 C567 1.419 . S
C569 C570 1.362 . S
C570 H562 0.930 . S
C570 C569 1.362 . S
C570 C573 1.409 . S
C571 H563 0.930 . S
C571 C572 1.355 . S
C571 C573 1.415 . S
C572 C571 1.355 . S
C572 C574 1.419 . S
C573 C568 1.425 . S
C573 C570 1.409 . S
C573 C571 1.415 . S
C574 H564 0.930 . S
C574 C572 1.419 . S
C574 C575 1.362 . S
C575 H565 0.930 . S
C575 C568 1.409 . S
C575 C574 1.362 . S
H576 C582 0.930 . S
H577 C585 0.930 . S
H578 C586 0.930 . S
H579 C587 0.930 . S
H580 C590 0.930 . S
H581 C591 0.930 . S
C582 H576 0.930 . S
C582 C583 1.355 . S
C582 C584 1.415 . S
C583 C582 1.355 . S
C583 C585 1.419 . S
C584 C582 1.415 . S
C584 C589 1.425 . S
C584 C591 1.409 . S
C585 H577 0.930 . S
C585 C583 1.419 . S
C585 C586 1.362 . S
C586 H578 0.930 . S
C586 C585 1.362 . S
C586 C589 1.409 . S
C587 H579 0.930 . S
C587 C588 1.355 . S
C587 C589 1.415 . S
C588 C587 1.355 . S
C588 C590 1.419 . S
C589 C584 1.425 . S
C589 C586 1.409 . S
C589 C587 1.415 . S
C590 H580 0.930 . S
C590 C588 1.419 . S
C590 C591 1.362 . S
C591 H581 0.930 . S
C591 C584 1.409 . S
C591 C590 1.362 . S
H592 C598 0.930 . S
H593 C601 0.930 . S
H594 C602 0.930 . S
H595 C603 0.930 . S
H596 C606 0.930 . S
H597 C607 0.930 . S
C598 H592 0.930 . S
C598 C599 1.355 . S
C598 C600 1.415 . S
C599 C598 1.355 . S
C599 C601 1.419 . S
C600 C598 1.415 . S
C600 C605 1.425 . S
C600 C607 1.409 . S
C601 H593 0.930 . S
C601 C599 1.419 . S
C601 C602 1.362 . S
C602 H594 0.930 . S
C602 C601 1.362 . S
C602 C605 1.409 . S
C603 H595 0.930 . S
C603 C604 1.355 . S
C603 C605 1.415 . S
C604 C603 1.355 . S
C604 C606 1.419 . S
C605 C600 1.425 . S
C605 C602 1.409 . S
C605 C603 1.415 . S
C606 H596 0.930 . S
C606 C604 1.419 . S
C606 C607 1.362 . S
C607 H597 0.930 . S
C607 C600 1.409 . S
C607 C606 1.362 . S
H608 C614 0.930 . S
H609 C617 0.930 . S
H610 C618 0.930 . S
H611 C619 0.930 . S
H612 C622 0.930 . S
H613 C623 0.930 . S
C614 H608 0.930 . S
C614 C615 1.355 . S
C614 C616 1.415 . S
C615 C614 1.355 . S
C615 C617 1.419 . S
C616 C614 1.415 . S
C616 C621 1.425 . S
C616 C623 1.409 . S
C617 H609 0.930 . S
C617 C615 1.419 . S
C617 C618 1.362 . S
C618 H610 0.930 . S
C618 C617 1.362 . S
C618 C621 1.409 . S
C619 H611 0.930 . S
C619 C620 1.355 . S
C619 C621 1.415 . S
C620 C619 1.355 . S
C620 C622 1.419 . S
C621 C616 1.425 . S
C621 C618 1.409 . S
C621 C619 1.415 . S
C622 H612 0.930 . S
C622 C620 1.419 . S
C622 C623 1.362 . S
C623 H613 0.930 . S
C623 C616 1.409 . S
C623 C622 1.362 . S
H624 C630 0.930 . S
H625 C633 0.930 . S
H626 C634 0.930 . S
H627 C635 0.930 . S
H628 C638 0.930 . S
H629 C639 0.930 . S
C630 H624 0.930 . S
C630 C631 1.355 . S
C630 C632 1.415 . S
C631 C630 1.355 . S
C631 C633 1.419 . S
C632 C630 1.415 . S
C632 C637 1.425 . S
C632 C639 1.409 . S
C633 H625 0.930 . S
C633 C631 1.419 . S
C633 C634 1.362 . S
C634 H626 0.930 . S
C634 C633 1.362 . S
C634 C637 1.409 . S
C635 H627 0.930 . S
C635 C636 1.355 . S
C635 C637 1.415 . S
C636 C635 1.355 . S
C636 C638 1.419 . S
C637 C632 1.425 . S
C637 C634 1.409 . S
C637 C635 1.415 . S
C638 H628 0.930 . S
C638 C636 1.419 . S
C638 C639 1.362 . S
C639 H629 0.930 . S
C639 C632 1.409 . S
C639 C638 1.362 . S
H640 C646 0.930 . S
H641 C649 0.930 . S
H642 C650 0.930 . S
H643 C651 0.930 . S
H644 C654 0.930 . S
H645 C655 0.930 . S
C646 H640 0.930 . S
C646 C647 1.355 . S
C646 C648 1.415 . S
C647 C646 1.355 . S
C647 C649 1.419 . S
C648 C646 1.415 . S
C648 C653 1.425 . S
C648 C655 1.409 . S
C649 H641 0.930 . S
C649 C647 1.419 . S
C649 C650 1.362 . S
C650 H642 0.930 . S
C650 C649 1.362 . S
C650 C653 1.409 . S
C651 H643 0.930 . S
C651 C652 1.355 . S
C651 C653 1.415 . S
C652 C651 1.355 . S
C652 C654 1.419 . S
C653 C648 1.425 . S
C653 C650 1.409 . S
C653 C651 1.415 . S
C654 H644 0.930 . S
C654 C652 1.419 . S
C654 C655 1.362 . S
C655 H645 0.930 . S
C655 C648 1.409 . S
C655 C654 1.362 . S
H656 C662 0.930 . S
H657 C665 0.930 . S
H658 C666 0.930 . S
H659 C667 0.930 . S
H660 C670 0.930 . S
H661 C671 0.930 . S
C662 H656 0.930 . S
C662 C663 1.355 . S
C662 C664 1.415 . S
C663 C662 1.355 . S
C663 C665 1.419 . S
C664 C662 1.415 . S
C664 C669 1.425 . S
C664 C671 1.409 . S
C665 H657 0.930 . S
C665 C663 1.419 . S
C665 C666 1.362 . S
C666 H658 0.930 . S
C666 C665 1.362 . S
C666 C669 1.409 . S
C667 H659 0.930 . S
C667 C668 1.355 . S
C667 C669 1.415 . S
C668 C667 1.355 . S
C668 C670 1.419 . S
C669 C664 1.425 . S
C669 C666 1.409 . S
C669 C667 1.415 . S
C670 H660 0.930 . S
C670 C668 1.419 . S
C670 C671 1.362 . S
C671 H661 0.930 . S
C671 C664 1.409 . S
C671 C670 1.362 . S
H672 C678 0.930 . S
H673 C681 0.930 . S
H674 C682 0.930 . S
H675 C683 0.930 . S
H676 C686 0.930 . S
H677 C687 0.930 . S
C678 H672 0.930 . S
C678 C679 1.355 . S
C678 C680 1.415 . S
C679 C678 1.355 . S
C679 C681 1.419 1_455 S
C680 C678 1.415 . S
C680 C685 1.425 1_455 S
C680 C687 1.409 . S
C681 H673 0.930 . S
C681 C679 1.419 1_655 S
C681 C682 1.362 . S
C682 H674 0.930 . S
C682 C681 1.362 . S
C682 C685 1.409 . S
C683 H675 0.930 . S
C683 C684 1.355 1_655 S
C683 C685 1.415 . S
C684 C683 1.355 1_455 S
C684 C686 1.419 . S
C685 C680 1.425 1_655 S
C685 C682 1.409 . S
C685 C683 1.415 . S
C686 H676 0.930 . S
C686 C684 1.419 . S
C686 C687 1.362 . S
C687 H677 0.930 . S
C687 C680 1.409 . S
C687 C686 1.362 . S
H688 C694 0.930 1_565 S
H689 C697 0.930 . S
H690 C698 0.930 . S
H691 C699 0.930 . S
H692 C702 0.930 1_565 S
H693 C703 0.930 1_565 S
C694 H688 0.930 1_545 S
C694 C695 1.355 . S
C694 C696 1.415 . S
C695 C694 1.355 . S
C695 C697 1.419 . S
C696 C694 1.415 . S
C696 C701 1.425 . S
C696 C703 1.409 . S
C697 H689 0.930 . S
C697 C695 1.419 . S
C697 C698 1.362 . S
C698 H690 0.930 . S
C698 C697 1.362 . S
C698 C701 1.409 . S
C699 H691 0.930 . S
C699 C700 1.355 . S
C699 C701 1.415 . S
C700 C699 1.355 . S
C700 C702 1.419 . S
C701 C696 1.425 . S
C701 C698 1.409 . S
C701 C699 1.415 . S
C702 H692 0.930 1_545 S
C702 C700 1.419 . S
C702 C703 1.362 . S
C703 H693 0.930 1_545 S
C703 C696 1.409 . S
C703 C702 1.362 . S
H704 C710 0.930 . S
H705 C713 0.930 . S
H706 C714 0.930 . S
H707 C715 0.930 . S
H708 C718 0.930 . S
H709 C719 0.930 . S
C710 H704 0.930 . S
C710 C711 1.355 . S
C710 C712 1.415 . S
C711 C710 1.355 . S
C711 C713 1.419 . S
C712 C710 1.415 . S
C712 C717 1.425 . S
C712 C719 1.409 . S
C713 H705 0.930 . S
C713 C711 1.419 . S
C713 C714 1.362 . S
C714 H706 0.930 . S
C714 C713 1.362 . S
C714 C717 1.409 . S
C715 H707 0.930 . S
C715 C716 1.355 . S
C715 C717 1.415 . S
C716 C715 1.355 . S
C716 C718 1.419 . S
C717 C712 1.425 . S
C717 C714 1.409 . S
C717 C715 1.415 . S
C718 H708 0.930 . S
C718 C716 1.419 . S
C718 C719 1.362 . S
C719 H709 0.930 . S
C719 C712 1.409 . S
C719 C718 1.362 . S
H720 C726 0.930 . S
H721 C729 0.930 . S
H722 C730 0.930 . S
H723 C731 0.930 . S
H724 C734 0.930 . S
H725 C735 0.930 . S
C726 H720 0.930 . S
C726 C727 1.355 1_565 S
C726 C728 1.415 . S
C727 C726 1.355 1_545 S
C727 C729 1.419 . S
C728 C726 1.415 . S
C728 C733 1.425 1_565 S
C728 C735 1.409 . S
C729 H721 0.930 . S
C729 C727 1.419 . S
C729 C730 1.362 . S
C730 H722 0.930 . S
C730 C729 1.362 . S
C730 C733 1.409 . S
C731 H723 0.930 . S
C731 C732 1.355 . S
C731 C733 1.415 . S
C732 C731 1.355 . S
C732 C734 1.419 1_545 S
C733 C728 1.425 1_545 S
C733 C730 1.409 . S
C733 C731 1.415 . S
C734 H724 0.930 . S
C734 C732 1.419 1_565 S
C734 C735 1.362 . S
C735 H725 0.930 . S
C735 C728 1.409 . S
C735 C734 1.362 . S
H736 C742 0.930 . S
H737 C745 0.930 . S
H738 C746 0.930 . S
H739 C747 0.930 . S
H740 C750 0.930 . S
H741 C751 0.930 . S
C742 H736 0.930 . S
C742 C743 1.355 . S
C742 C744 1.415 . S
C743 C742 1.355 . S
C743 C745 1.419 . S
C744 C742 1.415 . S
C744 C749 1.425 . S
C744 C751 1.409 . S
C745 H737 0.930 . S
C745 C743 1.419 . S
C745 C746 1.362 . S
C746 H738 0.930 . S
C746 C745 1.362 . S
C746 C749 1.409 . S
C747 H739 0.930 . S
C747 C748 1.355 . S
C747 C749 1.415 . S
C748 C747 1.355 . S
C748 C750 1.419 . S
C749 C744 1.425 . S
C749 C746 1.409 . S
C749 C747 1.415 . S
C750 H740 0.930 . S
C750 C748 1.419 . S
C750 C751 1.362 . S
C751 H741 0.930 . S
C751 C744 1.409 . S
C751 C750 1.362 . S
H752 C758 0.930 . S
H753 C761 0.930 . S
H754 C762 0.930 . S
H755 C763 0.930 . S
H756 C766 0.930 . S
H757 C767 0.930 . S
C758 H752 0.930 . S
C758 C759 1.355 . S
C758 C760 1.415 . S
C759 C758 1.355 . S
C759 C761 1.419 1_455 S
C760 C758 1.415 . S
C760 C765 1.425 1_455 S
C760 C767 1.409 . S
C761 H753 0.930 . S
C761 C759 1.419 1_655 S
C761 C762 1.362 . S
C762 H754 0.930 . S
C762 C761 1.362 . S
C762 C765 1.409 . S
C763 H755 0.930 . S
C763 C764 1.355 . S
C763 C765 1.415 . S
C764 C763 1.355 . S
C764 C766 1.419 1_655 S
C765 C760 1.425 1_655 S
C765 C762 1.409 . S
C765 C763 1.415 . S
C766 H756 0.930 . S
C766 C764 1.419 1_455 S
C766 C767 1.362 . S
C767 H757 0.930 . S
C767 C760 1.409 . S
C767 C766 1.362 . S
C487 C19 1.963 . S
C492 C451 1.939 . S
C503 C46 1.274 . S
C508 C301 1.260 . S
C519 C95 0.401 . S
C524 C361 0.480 . S
C535 C10 2.062 . S
C540 C421 1.920 . S
C556 C331 1.342 . S
C551 C55 1.302 . S
C572 C391 0.635 . S
C567 C86 0.601 . S
C583 C59 3.129 . S
C588 C181 2.951 . S
C599 C90 2.111 . S
C604 C271 2.098 . S
C615 C15 1.337 . S
C620 C151 1.331 . S
C636 C211 3.044 . S
C631 C50 3.045 . S
C652 C241 1.790 . S
C647 C99 1.956 . S
C663 C6 1.264 . S
C668 C121 1.221 . S
C684 C260 1.362 1_554 S
C679 C9 1.310 . S
C695 C58 1.480 . S
C700 C140 1.446 . S
C711 C98 1.676 . S
C716 C200 1.728 . S
C732 C380 1.086 . S
C727 C49 1.080 . S
C748 C440 1.321 1_556 S
C743 C89 1.349 . S
C759 C18 1.468 . S
C764 C320 1.431 . S
