# Generated by pormake.
# Topology apo, (3,6)-cn, num edge types: 1
# Building blocks:
#     Node 0, Type 0, BuildingBlock: ESEHIV_clean_linker_0, # of connection points: 3
#     Node 1, Type 0, BuildingBlock: ESEHIV_clean_linker_0, # of connection points: 3
#     Node 2, Type 0, BuildingBlock: ESEHIV_clean_linker_0, # of connection points: 3
#     Node 3, Type 0, BuildingBlock: ESEHIV_clean_linker_0, # of connection points: 3
#     Node 4, Type 0, BuildingBlock: ESEHIV_clean_linker_0, # of connection points: 3
#     Node 5, Type 0, BuildingBlock: ESEHIV_clean_linker_0, # of connection points: 3
#     Node 6, Type 0, BuildingBlock: ESEHIV_clean_linker_0, # of connection points: 3
#     Node 7, Type 0, BuildingBlock: ESEHIV_clean_linker_0, # of connection points: 3
#     Node 8, Type 1, BuildingBlock: KUMBUR_clean_sbu_1, # of connection points: 6
#     Node 9, Type 1, BuildingBlock: KUMBUR_clean_sbu_1, # of connection points: 6
#     Node 10, Type 1, BuildingBlock: KUMBUR_clean_sbu_1, # of connection points: 6
#     Node 11, Type 1, BuildingBlock: KUMBUR_clean_sbu_1, # of connection points: 6
#     Edge 12, Type (0, 1), BuildingBlock: CIFDUS_clean_linker_0, # of connection points: 2
#     Edge 13, Type (0, 1), BuildingBlock: CIFDUS_clean_linker_0, # of connection points: 2
#     Edge 14, Type (0, 1), BuildingBlock: CIFDUS_clean_linker_0, # of connection points: 2
#     Edge 15, Type (0, 1), BuildingBlock: CIFDUS_clean_linker_0, # of connection points: 2
#     Edge 16, Type (0, 1), BuildingBlock: CIFDUS_clean_linker_0, # of connection points: 2
#     Edge 17, Type (0, 1), BuildingBlock: CIFDUS_clean_linker_0, # of connection points: 2
#     Edge 18, Type (0, 1), BuildingBlock: CIFDUS_clean_linker_0, # of connection points: 2
#     Edge 19, Type (0, 1), BuildingBlock: CIFDUS_clean_linker_0, # of connection points: 2
#     Edge 20, Type (0, 1), BuildingBlock: CIFDUS_clean_linker_0, # of connection points: 2
#     Edge 21, Type (0, 1), BuildingBlock: CIFDUS_clean_linker_0, # of connection points: 2
#     Edge 22, Type (0, 1), BuildingBlock: CIFDUS_clean_linker_0, # of connection points: 2
#     Edge 23, Type (0, 1), BuildingBlock: CIFDUS_clean_linker_0, # of connection points: 2
#     Edge 24, Type (0, 1), BuildingBlock: CIFDUS_clean_linker_0, # of connection points: 2
#     Edge 25, Type (0, 1), BuildingBlock: CIFDUS_clean_linker_0, # of connection points: 2
#     Edge 26, Type (0, 1), BuildingBlock: CIFDUS_clean_linker_0, # of connection points: 2
#     Edge 27, Type (0, 1), BuildingBlock: CIFDUS_clean_linker_0, # of connection points: 2
#     Edge 28, Type (0, 1), BuildingBlock: CIFDUS_clean_linker_0, # of connection points: 2
#     Edge 29, Type (0, 1), BuildingBlock: CIFDUS_clean_linker_0, # of connection points: 2
#     Edge 30, Type (0, 1), BuildingBlock: CIFDUS_clean_linker_0, # of connection points: 2
#     Edge 31, Type (0, 1), BuildingBlock: CIFDUS_clean_linker_0, # of connection points: 2
#     Edge 32, Type (0, 1), BuildingBlock: CIFDUS_clean_linker_0, # of connection points: 2
#     Edge 33, Type (0, 1), BuildingBlock: CIFDUS_clean_linker_0, # of connection points: 2
#     Edge 34, Type (0, 1), BuildingBlock: CIFDUS_clean_linker_0, # of connection points: 2
#     Edge 35, Type (0, 1), BuildingBlock: CIFDUS_clean_linker_0, # of connection points: 2
# Relax obj value: 0.007
# Max RMSD: 0.125
# Mean RMSD: 0.094
data_MOF--net-apo--node1-KUMBUR_clean_sbu_1--node2-ESEHIV_clean_linker_0--edge1-CIFDUS_clean_linker_0
_symmetry_space_group_name_H-M    P1
_symmetry_Int_Tables_number       1
_symmetry_cell_setting            triclinic
loop_
_symmetry_equiv_pos_as_xyz
'x, y, z'
_cell_length_a     19.871434
_cell_length_b     34.368073
_cell_length_c     44.956534
_cell_angle_alpha  90.336696
_cell_angle_beta   89.658034
_cell_angle_gamma 90.087875
loop_
_atom_site_label
_atom_site_type_symbol
_atom_site_fract_x
_atom_site_fract_y
_atom_site_fract_z
_atom_type_partial_charge
H0 H 0.34513 0.4246 0.43888 0.0
H1 H 0.27349 0.39378 0.35173 0.0
H2 H 0.22123 0.32279 0.42668 0.0
C3 C 0.3174 0.40496 0.4245 0.0
C4 C 0.28292 0.37295 0.43666 0.0
C5 C 0.31358 0.41273 0.39392 0.0
C6 C 0.27592 0.38804 0.3754 0.0
C7 C 0.24322 0.35534 0.38706 0.0
C8 C 0.24696 0.34796 0.41764 0.0
H9 H 0.18799 0.06832 0.93498 0.0
H10 H 0.21848 0.12995 0.85301 0.0
H11 H 0.30171 0.17541 0.93415 0.0
C12 C 0.20871 0.093 0.9231 0.0
C13 C 0.24511 0.12183 0.93861 0.0
C14 C 0.19935 0.09575 0.89221 0.0
C15 C 0.22581 0.12776 0.87683 0.0
C16 C 0.26361 0.15624 0.89177 0.0
C17 C 0.27349 0.15301 0.92257 0.0
H18 H 0.8314 0.06558 0.59496 0.0
H19 H 0.75449 0.11728 0.67545 0.0
H20 H 0.74072 0.17832 0.59202 0.0
C21 C 0.80664 0.08938 0.60649 0.0
C22 C 0.78456 0.12132 0.5899 0.0
C23 C 0.79687 0.08767 0.63745 0.0
C24 C 0.76549 0.11935 0.65192 0.0
C25 C 0.7455 0.15276 0.63605 0.0
C26 C 0.7561 0.15339 0.6049 0.0
H27 H 0.63285 0.42738 0.11361 0.0
H28 H 0.743 0.3716 0.18317 0.0
H29 H 0.73261 0.31866 0.09621 0.0
C30 C 0.66316 0.40329 0.12129 0.0
C31 C 0.67886 0.37268 0.10161 0.0
C32 C 0.687 0.40338 0.15063 0.0
C33 C 0.72703 0.37233 0.16018 0.0
C34 C 0.74428 0.3416 0.14072 0.0
C35 C 0.72012 0.3422 0.11138 0.0
H36 H 0.67584 0.5688 0.59793 0.0
H37 H 0.75174 0.68594 0.5912 0.0
H38 H 0.76692 0.6234 0.67377 0.0
C39 C 0.70013 0.5939 0.60793 0.0
C40 C 0.71998 0.59214 0.63778 0.0
C41 C 0.71151 0.62739 0.59077 0.0
C42 C 0.74358 0.65972 0.60401 0.0
C43 C 0.76418 0.65831 0.63401 0.0
C44 C 0.75287 0.62424 0.65051 0.0
H45 H 0.81879 0.93816 0.09566 0.0
H46 H 0.75964 0.88359 0.17743 0.0
H47 H 0.74311 0.82047 0.09512 0.0
C48 C 0.799 0.91308 0.1073 0.0
C49 C 0.7831 0.87887 0.09134 0.0
C50 C 0.78938 0.91524 0.13831 0.0
C51 C 0.76494 0.8825 0.15343 0.0
C52 C 0.74899 0.84806 0.13808 0.0
C53 C 0.75795 0.84654 0.10707 0.0
H54 H 0.13294 0.92905 0.42806 0.0
H55 H 0.27335 0.83384 0.43471 0.0
H56 H 0.20272 0.87047 0.34924 0.0
C57 C 0.16262 0.90622 0.41768 0.0
C58 C 0.16237 0.90225 0.38658 0.0
C59 C 0.20182 0.88138 0.43542 0.0
C60 C 0.24071 0.85208 0.42153 0.0
C61 C 0.24152 0.84846 0.39037 0.0
C62 C 0.20105 0.87294 0.3733 0.0
H63 H 0.38518 0.58937 0.93401 0.0
H64 H 0.25519 0.61669 0.86055 0.0
H65 H 0.2707 0.69488 0.93531 0.0
C66 C 0.3489 0.60815 0.9234 0.0
C67 C 0.32873 0.64234 0.93819 0.0
C68 C 0.32275 0.59827 0.89525 0.0
C69 C 0.27723 0.62416 0.8818 0.0
C70 C 0.25876 0.65946 0.8957 0.0
C71 C 0.28388 0.66782 0.92425 0.0
Tb72 Tb 0.0984 0.1374 0.23622 0.0
C73 C 0.77939 0.14216 0.26418 0.0
N74 N 0.82847 0.16938 0.26735 0.0
C75 C 0.75469 0.2184 0.24844 0.0
C76 C 0.71572 0.15197 0.25289 0.0
C77 C 0.8166 0.20735 0.26038 0.0
C78 C 0.70407 0.19057 0.24456 0.0
C79 C 0.74226 0.07565 0.27174 0.0
C80 C 0.79259 0.10448 0.27319 0.0
C81 C 0.67881 0.08512 0.26024 0.0
C82 C 0.66566 0.12316 0.25071 0.0
Tb83 Tb 0.92702 0.14764 0.28686 0.0
N84 N 0.85502 0.09626 0.2836 0.0
C85 C 0.75742 0.03824 0.2819 0.0
C86 C 0.86959 0.06021 0.29435 0.0
C87 C 0.82128 0.03056 0.29336 0.0
H88 H 0.85445 0.22929 0.26445 0.0
H89 H 0.83319 1.00187 0.3016 0.0
H90 H 0.20318 0.0879 0.2783 0.0
H91 H 0.10938 0.28492 0.19387 0.0
H92 H 0.9182 0.05428 0.30382 0.0
H93 H 0.72018 0.0152 0.28115 0.0
H94 H 0.07144 0.21702 0.1944 0.0
H95 H 0.74576 0.24845 0.24259 0.0
H96 H 0.63953 0.06331 0.25873 0.0
H97 H 0.61638 0.1301 0.24205 0.0
H98 H 0.30484 0.10145 0.30823 0.0
H99 H 0.65591 0.1993 0.23564 0.0
H100 H 0.20034 0.30649 0.2275 0.0
N101 N 0.19353 0.1463 0.26358 0.0
C102 C 0.2197 0.18285 0.26372 0.0
C103 C 0.28129 0.1246 0.29585 0.0
C104 C 0.27695 0.192 0.28071 0.0
C105 C 0.2239 0.11699 0.27889 0.0
C106 C 0.30773 0.1623 0.2969 0.0
N107 N 0.13176 0.20113 0.23151 0.0
C108 C 0.10738 0.22637 0.21081 0.0
C109 C 0.2126 0.24961 0.24716 0.0
C110 C 0.187 0.21132 0.24759 0.0
C111 C 0.18219 0.27678 0.22854 0.0
C112 C 0.13053 0.2648 0.2097 0.0
H113 H 0.35181 0.16817 0.31028 0.0
H114 H 0.34451 0.23821 0.29445 0.0
H115 H 0.28868 0.28858 0.26476 0.0
O116 O 0.12566 0.1407 0.19039 0.0
O117 O 0.1004 0.15587 0.28312 0.0
O118 O 0.00533 0.19245 0.28747 0.0
O119 O 0.17331 0.0995 0.21992 0.0
O120 O 0.00898 0.16537 0.21667 0.0
O121 O 0.96402 0.19366 0.25833 0.0
O122 O 0.93467 0.13692 0.33292 0.0
O123 O 0.91693 0.1106 0.24635 0.0
O124 O 0.02371 0.09254 0.22886 0.0
O125 O 0.86823 0.18099 0.31653 0.0
O126 O 0.00524 0.10801 0.30212 0.0
O127 O 0.07409 0.08574 0.26293 0.0
C128 C 0.06758 0.18505 0.29503 0.0
C129 C 0.21297 0.09845 0.16859 0.0
C130 C 0.2421 0.09303 0.11556 0.0
C131 C 0.29729 0.06961 0.12318 0.0
C132 C 0.26852 0.07495 0.17535 0.0
C133 C 0.31024 0.0607 0.1528 0.0
C134 C 0.19969 0.10734 0.13852 0.0
C135 C 0.96709 0.19006 0.2294 0.0
C136 C 0.16985 0.1132 0.19318 0.0
C137 C 0.30094 0.23046 0.2813 0.0
C138 C 0.26887 0.25919 0.26454 0.0
C139 C 0.95764 0.09071 0.22842 0.0
C140 C 0.83529 0.14912 0.36087 0.0
C141 C 0.79553 0.13881 0.41199 0.0
C142 C 0.73423 0.12483 0.40058 0.0
C143 C 0.77331 0.13541 0.35026 0.0
C144 C 0.84608 0.15104 0.39185 0.0
C145 C 0.72335 0.12321 0.36999 0.0
C146 C 0.04756 0.08302 0.28993 0.0
C147 C 0.88823 0.16215 0.33987 0.0
H148 H 0.33008 0.0576 0.10613 0.0
H149 H 0.27999 0.06764 0.19817 0.0
H150 H 0.35279 0.04253 0.1583 0.0
H151 H 0.15699 0.12545 0.13303 0.0
H152 H 0.69399 0.11577 0.41537 0.0
H153 H 0.76299 0.13454 0.32677 0.0
H154 H 0.89374 0.16174 0.4002 0.0
H155 H 0.6757 0.11276 0.36153 0.0
Tb156 Tb 0.43676 0.36115 0.73757 0.0
C157 C 0.73411 0.40531 0.78459 0.0
N158 N 0.6992 0.37206 0.7899 0.0
C159 C 0.8016 0.33521 0.78794 0.0
C160 C 0.80443 0.40476 0.7803 0.0
C161 C 0.73193 0.33733 0.79228 0.0
C162 C 0.838 0.36904 0.78172 0.0
C163 C 0.73355 0.47544 0.77884 0.0
C164 C 0.69919 0.44013 0.78379 0.0
C165 C 0.80355 0.47506 0.77429 0.0
C166 C 0.83889 0.4398 0.77496 0.0
Tb167 Tb 0.58589 0.37915 0.79617 0.0
N168 N 0.63115 0.43918 0.78719 0.0
C169 C 0.69636 0.50998 0.77837 0.0
C170 C 0.59514 0.47296 0.78808 0.0
C171 C 0.62692 0.50874 0.78325 0.0
H172 H 0.70454 0.31152 0.79855 0.0
H173 H 0.59783 0.53534 0.7834 0.0
H174 H 0.31797 0.42832 0.74838 0.0
H175 H 0.42984 0.20401 0.73887 0.0
H176 H 0.54202 0.47244 0.79224 0.0
H177 H 0.7208 0.53772 0.77451 0.0
H178 H 0.48243 0.26818 0.73193 0.0
H179 H 0.82727 0.30759 0.78977 0.0
H180 H 0.8308 0.50187 0.77024 0.0
H181 H 0.8929 0.43996 0.77152 0.0
H182 H 0.19804 0.42947 0.7626 0.0
H183 H 0.89201 0.36736 0.77853 0.0
H184 H 0.30975 0.19935 0.7533 0.0
N185 N 0.3255 0.36651 0.74984 0.0
C186 C 0.29227 0.33234 0.75388 0.0
C187 C 0.22407 0.40195 0.76038 0.0
C188 C 0.22343 0.33165 0.76157 0.0
C189 C 0.29236 0.40118 0.75267 0.0
C190 C 0.18947 0.36706 0.76493 0.0
N191 N 0.39454 0.29988 0.74383 0.0
C192 C 0.43069 0.26674 0.73883 0.0
C193 C 0.29521 0.26176 0.75432 0.0
C194 C 0.32769 0.29787 0.75044 0.0
C195 C 0.33279 0.22769 0.75046 0.0
C196 C 0.40067 0.23021 0.74245 0.0
H197 H 0.13654 0.36778 0.77083 0.0
H198 H 0.13797 0.29461 0.77164 0.0
H199 H 0.2008 0.23343 0.76522 0.0
O200 O 0.46258 0.34619 0.69358 0.0
O201 O 0.42731 0.33393 0.78174 0.0
O202 O 0.53462 0.32293 0.79967 0.0
O203 O 0.37242 0.37851 0.70303 0.0
O204 O 0.53611 0.3356 0.72775 0.0
O205 O 0.59484 0.32397 0.77144 0.0
O206 O 0.56595 0.40813 0.83642 0.0
O207 O 0.60003 0.4036 0.75094 0.0
O208 O 0.49198 0.41555 0.73633 0.0
O209 O 0.63724 0.36113 0.83462 0.0
O210 O 0.48157 0.39772 0.80539 0.0
O211 O 0.43501 0.41691 0.76147 0.0
C212 C 0.46951 0.3158 0.79942 0.0
C213 C 0.37229 0.33806 0.66043 0.0
C214 C 0.33926 0.3276 0.60882 0.0
C215 C 0.30438 0.29382 0.61746 0.0
C216 C 0.33739 0.30425 0.66856 0.0
C217 C 0.30361 0.28227 0.64716 0.0
C218 C 0.37333 0.34957 0.63054 0.0
C219 C 0.58243 0.31698 0.74301 0.0
C220 C 0.4085 0.36161 0.68254 0.0
C221 C 0.19083 0.29574 0.76566 0.0
C222 C 0.2266 0.26089 0.76199 0.0
C223 C 0.55692 0.41917 0.73228 0.0
C224 C 0.57112 0.36741 0.87799 0.0
C225 C 0.57113 0.35291 0.93106 0.0
C226 C 0.50749 0.33535 0.92799 0.0
C227 C 0.50698 0.35059 0.87562 0.0
C228 C 0.60316 0.36848 0.90573 0.0
C229 C 0.47577 0.33422 0.90041 0.0
C230 C 0.4435 0.42154 0.7903 0.0
C231 C 0.60372 0.38482 0.8518 0.0
H232 H 0.27838 0.27605 0.60118 0.0
H233 H 0.33625 0.29469 0.69129 0.0
H234 H 0.2769 0.25614 0.6536 0.0
H235 H 0.39997 0.37587 0.62429 0.0
H236 H 0.48218 0.32252 0.94696 0.0
H237 H 0.48069 0.35054 0.85469 0.0
H238 H 0.65198 0.38234 0.90769 0.0
H239 H 0.42656 0.32096 0.89829 0.0
Tb240 Tb 0.08628 0.87259 0.73601 0.0
C241 C 0.79069 0.8342 0.77019 0.0
N242 N 0.82408 0.86808 0.77551 0.0
C243 C 0.72902 0.90445 0.75845 0.0
C244 C 0.72528 0.83413 0.75828 0.0
C245 C 0.794 0.90305 0.77018 0.0
C246 C 0.6946 0.86986 0.75235 0.0
C247 C 0.79042 0.76361 0.77095 0.0
C248 C 0.82296 0.79939 0.77632 0.0
C249 C 0.72535 0.76335 0.75889 0.0
C250 C 0.69288 0.79852 0.75257 0.0
Tb251 Tb 0.93088 0.86197 0.79333 0.0
N252 N 0.88677 0.80081 0.78719 0.0
C253 C 0.82423 0.72922 0.77792 0.0
C254 C 0.91847 0.76739 0.79545 0.0
C255 C 0.88817 0.73116 0.79056 0.0
H256 H 0.81953 0.92998 0.77538 0.0
H257 H 0.91402 0.70475 0.79674 0.0
H258 H 0.21508 0.83025 0.76884 0.0
H259 H 0.05849 0.01875 0.69314 0.0
H260 H 0.9666 0.76821 0.80615 0.0
H261 H 0.80101 0.70109 0.77411 0.0
H262 H 0.03553 0.94851 0.69534 0.0
H263 H 0.70545 0.93222 0.75419 0.0
H264 H 0.69965 0.73612 0.75445 0.0
H265 H 0.64266 0.79785 0.74332 0.0
H266 H 0.32109 0.85053 0.79301 0.0
H267 H 0.64433 0.87107 0.7432 0.0
H268 H 0.15117 0.04705 0.7228 0.0
N269 N 0.18699 0.88783 0.75735 0.0
C270 C 0.20441 0.92607 0.75734 0.0
C271 C 0.28858 0.87208 0.78314 0.0
C272 C 0.26419 0.93902 0.77088 0.0
C273 C 0.22853 0.86066 0.76952 0.0
C274 C 0.30628 0.91146 0.78403 0.0
N275 N 0.10574 0.93796 0.73001 0.0
C276 C 0.07247 0.9608 0.71015 0.0
C277 C 0.17928 0.99178 0.74194 0.0
C278 C 0.16173 0.95208 0.74361 0.0
C279 C 0.13945 0.01636 0.72473 0.0
C280 C 0.08691 1.00055 0.70808 0.0
H281 H 0.3527 0.92022 0.79469 0.0
H282 H 0.32533 0.98951 0.7813 0.0
H283 H 0.25142 0.03569 0.75557 0.0
O284 O 0.0829 0.87317 0.68919 0.0
O285 O 0.0982 0.89025 0.78296 0.0
O286 O 0.99503 0.91368 0.79756 0.0
O287 O 0.16699 0.84828 0.71171 0.0
O288 O 0.9867 0.89793 0.72569 0.0
O289 O 0.94142 0.91768 0.77066 0.0
O290 O 0.94218 0.84807 0.83857 0.0
O291 O 0.92146 0.83863 0.7475 0.0
O292 O 0.02753 0.81904 0.73338 0.0
O293 O 0.86065 0.88415 0.82437 0.0
O294 O 0.0245 0.83071 0.80449 0.0
O295 O 0.08672 0.81823 0.76125 0.0
C296 C 0.06107 0.9145 0.79859 0.0
C297 C 0.18788 0.87736 0.66493 0.0
C298 C 0.2238 0.888 0.61345 0.0
C299 C 0.27228 0.91468 0.62375 0.0
C300 C 0.23658 0.90407 0.67465 0.0
C301 C 0.27851 0.92257 0.65412 0.0
C302 C 0.18177 0.86936 0.63434 0.0
C303 C 0.94939 0.92189 0.74181 0.0
C304 C 0.14231 0.85794 0.68614 0.0
C305 C 0.27993 0.97887 0.77076 0.0
C306 C 0.23761 0.0052 0.75627 0.0
C307 C 0.96193 0.81551 0.73243 0.0
C308 C 0.84223 0.84532 0.86697 0.0
C309 C 0.80737 0.82907 0.91759 0.0
C310 C 0.76025 0.80261 0.90602 0.0
C311 C 0.79396 0.81927 0.85589 0.0
C312 C 0.84819 0.85054 0.89793 0.0
C313 C 0.75332 0.79802 0.87533 0.0
C314 C 0.07166 0.81162 0.78949 0.0
C315 C 0.88783 0.86643 0.84671 0.0
H316 H 0.30598 0.92915 0.60834 0.0
H317 H 0.2424 0.91057 0.69804 0.0
H318 H 0.31611 0.94307 0.66178 0.0
H319 H 0.14354 0.84908 0.62683 0.0
H320 H 0.72828 0.78583 0.92076 0.0
H321 H 0.7876 0.81528 0.8323 0.0
H322 H 0.88528 0.87067 0.90671 0.0
H323 H 0.71642 0.77786 0.86657 0.0
Tb324 Tb 0.41825 0.65149 0.2427 0.0
C325 C 0.69775 0.70217 0.27135 0.0
N326 N 0.68172 0.66388 0.26941 0.0
C327 C 0.77774 0.65231 0.2381 0.0
C328 C 0.75335 0.71746 0.25569 0.0
C329 C 0.72175 0.63858 0.25389 0.0
C330 C 0.79324 0.692 0.23875 0.0
C331 C 0.67264 0.76603 0.29144 0.0
C332 C 0.65734 0.72606 0.28874 0.0
C333 C 0.72665 0.78176 0.27512 0.0
C334 C 0.76693 0.75752 0.25729 0.0
Tb335 Tb 0.58854 0.64435 0.29491 0.0
N336 N 0.60489 0.70984 0.3039 0.0
C337 C 0.63446 0.78875 0.31111 0.0
C338 C 0.57326 0.73109 0.3257 0.0
C339 C 0.5857 0.77097 0.32886 0.0
H340 H 0.70981 0.60792 0.25335 0.0
H341 H 0.5587 0.78777 0.3455 0.0
H342 H 0.38936 0.74605 0.2445 0.0
H343 H 0.24328 0.53152 0.24062 0.0
H344 H 0.53979 0.71762 0.34151 0.0
H345 H 0.64447 0.81957 0.31381 0.0
H346 H 0.3518 0.56496 0.23083 0.0
H347 H 0.80876 0.63233 0.22537 0.0
H348 H 0.7385 0.81249 0.2766 0.0
H349 H 0.80885 0.76996 0.24508 0.0
H350 H 0.29848 0.79001 0.26185 0.0
H351 H 0.8363 0.70262 0.2263 0.0
H352 H 0.14893 0.56781 0.26399 0.0
N353 N 0.33483 0.69449 0.25462 0.0
C354 C 0.27543 0.67904 0.2635 0.0
C355 C 0.29137 0.7588 0.26253 0.0
C356 C 0.22167 0.70276 0.27301 0.0
C357 C 0.34274 0.73387 0.25279 0.0
C358 C 0.23087 0.74316 0.27315 0.0
N359 N 0.31944 0.6187 0.24951 0.0
C360 C 0.31071 0.58079 0.24102 0.0
C361 C 0.2044 0.62203 0.26646 0.0
C362 C 0.26717 0.63951 0.26058 0.0
C363 C 0.19639 0.58242 0.25985 0.0
C364 C 0.24947 0.56187 0.24656 0.0
H365 H 0.19097 0.7625 0.28045 0.0
H366 H 0.11811 0.70302 0.28853 0.0
H367 H 0.10279 0.63216 0.28255 0.0
O368 O 0.4652 0.64323 0.20108 0.0
O369 O 0.41229 0.60578 0.27628 0.0
O370 O 0.50492 0.60625 0.3091 0.0
O371 O 0.36305 0.66359 0.20394 0.0
O372 O 0.47771 0.59827 0.23792 0.0
O373 O 0.58225 0.59659 0.26267 0.0
O374 O 0.64263 0.65215 0.33478 0.0
O375 O 0.58712 0.66234 0.24763 0.0
O376 O 0.49135 0.69791 0.24603 0.0
O377 O 0.65096 0.59921 0.31 0.0
O378 O 0.49497 0.66313 0.3167 0.0
O379 O 0.45148 0.6926 0.27645 0.0
C380 C 0.4453 0.5935 0.29993 0.0
C381 C 0.4254 0.68088 0.16096 0.0
C382 C 0.41614 0.69344 0.10764 0.0
C383 C 0.45537 0.72717 0.11136 0.0
C384 C 0.46254 0.71528 0.16436 0.0
C385 C 0.47792 0.73812 0.13961 0.0
C386 C 0.40145 0.67036 0.13264 0.0
C387 C 0.53691 0.58256 0.24394 0.0
C388 C 0.41284 0.65479 0.18627 0.0
C389 C 0.16 0.68539 0.28088 0.0
C390 C 0.15129 0.64504 0.2775 0.0
C391 C 0.5541 0.69291 0.23821 0.0
C392 C 0.65768 0.59475 0.36283 0.0
C393 C 0.66276 0.59157 0.41735 0.0
C394 C 0.64175 0.55255 0.41582 0.0
C395 C 0.63763 0.55549 0.36213 0.0
C396 C 0.67127 0.61251 0.39065 0.0
C397 C 0.62988 0.53467 0.38844 0.0
C398 C 0.44745 0.68409 0.30466 0.0
C399 C 0.66571 0.61692 0.33474 0.0
H400 H 0.46732 0.74546 0.0925 0.0
H401 H 0.47965 0.72435 0.18605 0.0
H402 H 0.50729 0.76445 0.14236 0.0
H403 H 0.37225 0.64389 0.12998 0.0
H404 H 0.63586 0.53551 0.43587 0.0
H405 H 0.62807 0.54069 0.34125 0.0
H406 H 0.68767 0.64259 0.39154 0.0
H407 H 0.6151 0.50438 0.38764 0.0
H408 H 0.16569 0.98071 0.39221 0.0
H409 H 0.0865 0.88856 0.33701 0.0
H410 H 0.047 0.93632 0.301 0.0
H411 H 0.03812 1.00465 0.28442 0.0
H412 H 0.11352 0.09632 0.34087 0.0
H413 H 0.15189 0.04853 0.37711 0.0
C414 C 0.13846 0.97113 0.37264 0.0
C415 C 0.12899 0.93121 0.3673 0.0
C416 C 0.11637 0.99866 0.35199 0.0
C417 C 0.09468 0.9192 0.34153 0.0
C418 C 0.07233 0.94644 0.32088 0.0
C419 C 0.06362 0.01383 0.30455 0.0
C420 C 0.07423 0.05353 0.31001 0.0
C421 C 0.0839 0.98622 0.32562 0.0
C422 C 0.1057 0.06564 0.33633 0.0
C423 C 0.12723 0.03843 0.35705 0.0
H424 H 0.33867 0.58483 0.83529 0.0
H425 H 0.35328 0.52749 0.92032 0.0
H426 H 0.39176 0.46829 0.8956 0.0
H427 H 0.42278 0.43261 0.84983 0.0
H428 H 0.39914 0.48844 0.7648 0.0
H429 H 0.36035 0.54773 0.78957 0.0
C430 C 0.34883 0.55931 0.84856 0.0
C431 C 0.34344 0.56127 0.87986 0.0
C432 C 0.36898 0.52474 0.83415 0.0
C433 C 0.35845 0.52764 0.89634 0.0
C434 C 0.37988 0.49344 0.88218 0.0
C435 C 0.40866 0.45767 0.83672 0.0
C436 C 0.41405 0.45606 0.80549 0.0
C437 C 0.38573 0.4917 0.85111 0.0
C438 C 0.39507 0.48872 0.78884 0.0
C439 C 0.37327 0.52279 0.80301 0.0
H440 H 0.59904 0.5564 0.64152 0.0
H441 H 0.80127 0.551 0.67536 0.0
H442 H 0.7705 0.49476 0.70597 0.0
H443 H 0.6851 0.44753 0.72323 0.0
H444 H 0.48105 0.45733 0.69169 0.0
H445 H 0.51433 0.51016 0.65906 0.0
C446 C 0.63658 0.54264 0.65536 0.0
C447 C 0.70239 0.55762 0.65603 0.0
C448 C 0.6183 0.51089 0.67314 0.0
C449 C 0.75019 0.54001 0.67453 0.0
C450 C 0.73268 0.5078 0.69193 0.0
C451 C 0.64771 0.46159 0.70964 0.0
C452 C 0.58024 0.44902 0.71075 0.0
C453 C 0.66667 0.49311 0.69153 0.0
C454 C 0.53315 0.46665 0.69184 0.0
C455 C 0.55204 0.49701 0.67312 0.0
H456 H 0.90163 0.95982 0.13293 0.0
H457 H 0.71557 0.95087 0.18227 0.0
H458 H 0.74826 0.00639 0.21334 0.0
H459 H 0.83332 0.05504 0.22817 0.0
H460 H 0.02002 0.06203 0.17914 0.0
H461 H 0.98288 0.01054 0.14594 0.0
C462 C 0.86772 0.97042 0.15013 0.0
C463 C 0.8065 0.95112 0.15534 0.0
C464 C 0.88709 1.002 0.16811 0.0
C465 C 0.76347 0.96495 0.17804 0.0
C466 C 0.78201 0.99675 0.19577 0.0
C467 C 0.8656 0.04548 0.21028 0.0
C468 C 0.92985 0.06201 0.20687 0.0
C469 C 0.84432 0.01512 0.19134 0.0
C470 C 0.97073 0.04942 0.18294 0.0
C471 C 0.94956 0.01993 0.16376 0.0
H472 H 0.84751 0.08352 0.69414 0.0
H473 H 0.79306 0.01128 0.61901 0.0
H474 H 0.83575 0.95419 0.64433 0.0
H475 H 0.8916 0.92444 0.68732 0.0
H476 H 0.93683 0.99512 0.76412 0.0
H477 H 0.89321 0.05275 0.739 0.0
C478 C 0.8438 0.05529 0.6834 0.0
C479 C 0.8182 0.05228 0.65428 0.0
C480 C 0.86674 0.02207 0.69847 0.0
C481 C 0.81448 0.01511 0.64092 0.0
C482 C 0.83832 0.98217 0.65552 0.0
C483 C 0.89137 0.95247 0.69855 0.0
C484 C 0.91768 0.95572 0.72737 0.0
C485 C 0.86528 0.98534 0.68414 0.0
C486 C 0.91651 0.99199 0.74193 0.0
C487 C 0.89193 0.02495 0.72751 0.0
H488 H 0.56475 0.43724 0.15828 0.0
H489 H 0.76912 0.44162 0.18989 0.0
H490 H 0.74006 0.49575 0.22313 0.0
H491 H 0.65746 0.5437 0.24154 0.0
H492 H 0.45393 0.53959 0.20823 0.0
H493 H 0.48202 0.48366 0.17751 0.0
C494 C 0.60307 0.4502 0.1723 0.0
C495 C 0.66907 0.4356 0.17142 0.0
C496 C 0.58619 0.48142 0.19114 0.0
C497 C 0.71779 0.45218 0.19024 0.0
C498 C 0.70128 0.48324 0.20916 0.0
C499 C 0.61904 0.53049 0.22775 0.0
C500 C 0.55367 0.5463 0.22729 0.0
C501 C 0.63569 0.49834 0.20962 0.0
C502 C 0.50474 0.52845 0.20919 0.0
C503 C 0.52073 0.49635 0.19144 0.0
H504 H 0.25729 0.46998 0.36188 0.0
H505 H 0.44683 0.43126 0.39694 0.0
H506 H 0.50505 0.48459 0.37144 0.0
H507 H 0.5021 0.5405 0.33716 0.0
H508 H 0.31067 0.58063 0.30485 0.0
H509 H 0.25315 0.52852 0.33106 0.0
C510 C 0.31132 0.47351 0.36406 0.0
C511 C 0.34801 0.44684 0.38098 0.0
C512 C 0.3441 0.50427 0.34963 0.0
C513 C 0.41777 0.45171 0.38404 0.0
C514 C 0.45099 0.48207 0.36943 0.0
C515 C 0.44783 0.538 0.33609 0.0
C516 C 0.41103 0.56364 0.31815 0.0
C517 C 0.41475 0.5083 0.35188 0.0
C518 C 0.34056 0.56027 0.31731 0.0
C519 C 0.30744 0.53074 0.33265 0.0
H520 H 0.24018 0.02181 0.88138 0.0
H521 H 0.07833 0.1019 0.86502 0.0
H522 H 0.01987 0.05246 0.83521 0.0
H523 H 0.01623 0.98682 0.81293 0.0
H524 H 0.18095 0.90775 0.82718 0.0
H525 H 0.2374 0.95631 0.85829 0.0
C526 C 0.1918 0.02811 0.87146 0.0
C527 C 0.16288 0.06506 0.87558 0.0
C528 C 0.15946 0.99986 0.85378 0.0
C529 C 0.10095 0.07343 0.86224 0.0
C530 C 0.06775 0.04525 0.84519 0.0
C531 C 0.06424 0.98018 0.82306 0.0
C532 C 0.09443 0.94377 0.8178 0.0
C533 C 0.09664 0.00841 0.8407 0.0
C534 C 0.15701 0.9357 0.83072 0.0
C535 C 0.18915 0.96339 0.84862 0.0
H536 H 0.14976 0.1068 0.9812 0.0
H537 H 0.36117 0.13163 0.96977 0.0
H538 H 0.37777 0.12733 0.02344 0.0
H539 H 0.33332 0.11464 0.07345 0.0
H540 H 0.12224 0.08976 0.0856 0.0
H541 H 0.10413 0.09664 0.032 0.0
C542 C 0.19947 0.1111 0.9905 0.0
C543 C 0.25425 0.11932 0.97144 0.0
C544 C 0.20861 0.10884 0.02153 0.0
C545 C 0.31814 0.12546 0.98389 0.0
C546 C 0.3277 0.12292 1.01459 0.0
C547 C 0.28328 0.11075 0.06439 0.0
C548 C 0.22931 0.10139 0.08354 0.0
C549 C 0.27344 0.11442 0.03359 0.0
C550 C 0.16459 0.09721 0.07145 0.0
C551 C 0.15434 0.10081 0.04075 0.0
H552 H 0.3887 0.37678 0.4751 0.0
H553 H 0.17544 0.35338 0.4713 0.0
H554 H 0.17405 0.33797 0.52414 0.0
H555 H 0.2334 0.32972 0.57117 0.0
H556 H 0.44643 0.35301 0.57565 0.0
H557 H 0.44765 0.37076 0.52301 0.0
C558 C 0.34186 0.36872 0.48594 0.0
C559 C 0.28245 0.36581 0.4692 0.0
C560 C 0.34131 0.35995 0.51645 0.0
C561 C 0.22216 0.3551 0.48354 0.0
C562 C 0.22119 0.34648 0.51379 0.0
C563 C 0.28016 0.33849 0.56058 0.0
C564 C 0.33977 0.33979 0.57721 0.0
C565 C 0.28054 0.34839 0.53037 0.0
C566 C 0.39975 0.35199 0.56335 0.0
C567 C 0.40055 0.36195 0.53323 0.0
H568 H 0.74247 0.35482 0.04927 0.0
H569 H 0.54981 0.38862 0.08586 0.0
H570 H 0.5003 0.38635 0.03637 0.0
H571 H 0.51095 0.37383 0.98294 0.0
H572 H 0.70243 0.33897 0.94589 0.0
H573 H 0.7533 0.34271 0.99529 0.0
C574 C 0.68959 0.36148 0.04639 0.0
C575 C 0.64992 0.3719 0.07122 0.0
C576 C 0.66127 0.35995 0.01782 0.0
C577 C 0.58167 0.38099 0.06708 0.0
C578 C 0.55319 0.37948 0.03882 0.0
C579 C 0.56371 0.36673 0.9857 0.0
C580 C 0.60272 0.35585 0.96083 0.0
C581 C 0.59241 0.36883 1.01408 0.0
C582 C 0.67139 0.34761 0.96467 0.0
C583 C 0.7004 0.34957 0.99292 0.0
H584 H 0.82815 0.17637 0.54974 0.0
H585 H 0.74354 0.06092 0.55552 0.0
H586 H 0.74337 0.05538 0.50152 0.0
H587 H 0.76403 0.08347 0.45255 0.0
H588 H 0.84785 0.1988 0.44537 0.0
H589 H 0.85271 0.20398 0.49976 0.0
C590 C 0.80965 0.15009 0.53911 0.0
C591 C 0.78611 0.11905 0.55674 0.0
C592 C 0.80987 0.14695 0.50775 0.0
C593 C 0.76274 0.08505 0.54258 0.0
C594 C 0.76236 0.08188 0.51165 0.0
C595 C 0.78337 0.10979 0.46286 0.0
C596 C 0.80502 0.14081 0.44487 0.0
C597 C 0.78546 0.11265 0.49402 0.0
C598 C 0.8312 0.17438 0.45865 0.0
C599 C 0.83348 0.17747 0.48977 0.0
H600 H 0.82351 0.81697 0.05716 0.0
H601 H 0.75986 0.93671 0.05065 0.0
H602 H 0.76827 0.93298 0.99659 0.0
H603 H 0.78673 0.89443 0.95065 0.0
H604 H 0.84014 0.77338 0.95739 0.0
H605 H 0.8418 0.77869 1.01171 0.0
C606 C 0.81082 0.84223 0.04401 0.0
C607 C 0.79091 0.87704 0.05824 0.0
C608 C 0.81371 0.83958 1.01282 0.0
C609 C 0.77632 0.90964 0.04057 0.0
C610 C 0.78055 0.90748 1.00953 0.0
C611 C 0.79948 0.86945 0.96413 0.0
C612 C 0.8136 0.83362 0.95023 0.0
C613 C 0.79844 0.87248 0.99537 0.0
C614 C 0.82917 0.80122 0.96775 0.0
C615 C 0.83 0.80425 0.99875 0.0
H616 H 0.78195 0.64804 0.54046 0.0
H617 H 0.58816 0.60675 0.57047 0.0
H618 H 0.55371 0.59562 0.51917 0.0
H619 H 0.58249 0.59082 0.46624 0.0
H620 H 0.77566 0.63118 0.43516 0.0
H621 H 0.80602 0.65018 0.48607 0.0
C622 C 0.73174 0.63743 0.53566 0.0
C623 C 0.68806 0.62769 0.55932 0.0
C624 C 0.7123 0.63062 0.50588 0.0
C625 C 0.62313 0.61387 0.55272 0.0
C626 C 0.60334 0.60748 0.52337 0.0
C627 C 0.63094 0.60423 0.47058 0.0
C628 C 0.67703 0.60919 0.44703 0.0
C629 C 0.64817 0.6146 0.49985 0.0
C630 C 0.73923 0.62712 0.4529 0.0
C631 C 0.75675 0.63772 0.48205 0.0
H632 H 0.25842 0.65184 0.98961 0.0
H633 H 0.45958 0.65373 0.95344 0.0
H634 H 0.50475 0.67036 1.00256 0.0
H635 H 0.48664 0.68464 0.05594 0.0
H636 H 0.28617 0.67836 0.09271 0.0
H637 H 0.24095 0.66298 0.04345 0.0
C638 C 0.31209 0.65597 0.99261 0.0
C639 C 0.35572 0.65189 0.96806 0.0
C640 C 0.3377 0.66462 0.02103 0.0
C641 C 0.42523 0.65678 0.97212 0.0
C642 C 0.45096 0.6663 1.00014 0.0
C643 C 0.43309 0.67989 0.05307 0.0
C644 C 0.38968 0.68278 0.07783 0.0
C645 C 0.40767 0.67035 0.02477 0.0
C646 C 0.3205 0.67612 0.07397 0.0
C647 C 0.29465 0.66747 0.04581 0.0
H648 H 0.19704 0.82795 0.4803 0.0
H649 H 0.21762 0.95096 0.46377 0.0
H650 H 0.22497 0.96376 0.51704 0.0
H651 H 0.2259 0.94034 0.56835 0.0
H652 H 0.20639 0.81751 0.58561 0.0
H653 H 0.19772 0.80438 0.5322 0.0
C654 C 0.2034 0.8575 0.48841 0.0
C655 C 0.20632 0.88845 0.46805 0.0
C656 C 0.20756 0.86474 0.51923 0.0
C657 C 0.21411 0.92664 0.47893 0.0
C658 C 0.2187 0.934 0.50941 0.0
C659 C 0.22028 0.91065 0.56044 0.0
C660 C 0.2171 0.87998 0.58099 0.0
C661 C 0.2155 0.90332 0.52975 0.0
C662 C 0.20843 0.84174 0.57032 0.0
C663 C 0.20386 0.83417 0.53976 0.0
H664 H 0.25355 0.27699 0.38382 0.0
H665 H 0.14809 0.37435 0.34617 0.0
H666 H 0.08255 0.33004 0.31474 0.0
H667 H 0.05464 0.26335 0.29845 0.0
H668 H 0.16353 0.16648 0.33494 0.0
H669 H 0.22824 0.21074 0.36653 0.0
C670 C 0.21595 0.2884 0.36881 0.0
C671 C 0.2051 0.3287 0.3674 0.0
C672 C 0.179 0.26285 0.35078 0.0
C673 C 0.15727 0.34334 0.34751 0.0
C674 C 0.11967 0.31806 0.32968 0.0
C675 C 0.09201 0.25206 0.31362 0.0
C676 C 0.10398 0.21187 0.31479 0.0
C677 C 0.12981 0.27774 0.33128 0.0
C678 C 0.15344 0.19741 0.33391 0.0
C679 C 0.19044 0.22266 0.35189 0.0
H680 H 0.39536 0.1766 0.88585 0.0
H681 H 0.19527 0.20964 0.85969 0.0
H682 H 0.24115 0.26335 0.83029 0.0
H683 H 0.3378 0.30014 0.8117 0.0
H684 H 0.53913 0.26371 0.83358 0.0
H685 H 0.49328 0.21286 0.86569 0.0
C686 C 0.36205 0.1958 0.87381 0.0
C687 C 0.29212 0.18947 0.87497 0.0
C688 C 0.38899 0.22592 0.85625 0.0
C689 C 0.24925 0.21409 0.85905 0.0
C690 C 0.27546 0.24472 0.84227 0.0
C691 C 0.37191 0.2806 0.82284 0.0
C692 C 0.44194 0.28527 0.81945 0.0
C693 C 0.34524 0.25067 0.84049 0.0
C694 C 0.48502 0.26062 0.83539 0.0
C695 C 0.45882 0.23146 0.85377 0.0
H696 H 0.76337 0.17879 0.69366 0.0
H697 H 0.64765 0.202 0.61455 0.0
H698 H 0.59181 0.25569 0.63983 0.0
H699 H 0.57265 0.29514 0.6846 0.0
H700 H 0.67532 0.26572 0.76572 0.0
H701 H 0.73819 0.21527 0.73951 0.0
C702 C 0.72529 0.19502 0.68188 0.0
C703 C 0.71095 0.18599 0.65184 0.0
C704 C 0.69077 0.22508 0.69697 0.0
C705 C 0.66195 0.20842 0.63723 0.0
C706 C 0.62905 0.23907 0.65184 0.0
C707 C 0.60889 0.2779 0.69669 0.0
C708 C 0.62049 0.28552 0.72714 0.0
C709 C 0.64287 0.24759 0.68172 0.0
C710 C 0.66693 0.26201 0.7422 0.0
C711 C 0.70246 0.23262 0.72722 0.0
H712 H 0.85003 0.34496 0.17872 0.0
H713 H 0.73226 0.26366 0.12708 0.0
H714 H 0.79693 0.20959 0.14715 0.0
H715 H 0.88157 0.18484 0.18265 0.0
H716 H 0.98724 0.26654 0.23855 0.0
H717 H 0.93248 0.32087 0.21385 0.0
C718 C 0.8379 0.31544 0.17197 0.0
C719 C 0.78595 0.3086 0.1515 0.0
C720 C 0.87334 0.28442 0.18444 0.0
C721 C 0.77246 0.27005 0.14251 0.0
C722 C 0.80908 0.23898 0.15417 0.0
C723 C 0.89322 0.21464 0.18886 0.0
C724 C 0.93901 0.22198 0.21184 0.0
C725 C 0.85905 0.24575 0.17549 0.0
C726 C 0.95265 0.26047 0.22055 0.0
C727 C 0.92116 0.29147 0.20658 0.0
H728 H 0.88143 0.66111 0.66444 0.0
H729 H 0.71375 0.73206 0.63813 0.0
H730 H 0.75805 0.78678 0.66741 0.0
H731 H 0.84436 0.81409 0.70128 0.0
H732 H 0.01521 0.74366 0.72473 0.0
H733 H 0.96975 0.68908 0.69614 0.0
C734 C 0.85499 0.6887 0.66495 0.0
C735 C 0.7946 0.69265 0.6491 0.0
C736 C 0.88116 0.72003 0.68152 0.0
C737 C 0.76078 0.72853 0.64987 0.0
C738 C 0.78583 0.75968 0.66678 0.0
C739 C 0.87149 0.78676 0.70003 0.0
C740 C 0.9331 0.78288 0.71502 0.0
C741 C 0.84586 0.75572 0.68284 0.0
C742 C 0.96801 0.74743 0.71316 0.0
C743 C 0.94199 0.71619 0.69687 0.0
H744 H 0.65411 0.84928 0.18151 0.0
H745 H 0.7812 0.77076 0.13151 0.0
H746 H 0.7345 0.7154 0.15893 0.0
H747 H 0.65514 0.6893 0.19678 0.0
H748 H 0.52916 0.7693 0.24602 0.0
H749 H 0.57867 0.82406 0.21965 0.0
C750 C 0.67225 0.82012 0.1768 0.0
C751 C 0.72113 0.8142 0.15455 0.0
C752 C 0.64539 0.78864 0.19259 0.0
C753 C 0.74305 0.77607 0.14835 0.0
C754 C 0.71666 0.74445 0.16412 0.0
C755 C 0.63923 0.7188 0.20178 0.0
C756 C 0.58878 0.72535 0.22324 0.0
C757 C 0.6675 0.75036 0.18623 0.0
C758 C 0.56775 0.76358 0.22943 0.0
C759 C 0.59603 0.79492 0.21441 0.0
H760 H 0.25992 0.77017 0.39792 0.0
H761 H 0.32969 0.86878 0.34734 0.0
H762 H 0.39827 0.82634 0.31603 0.0
H763 H 0.435 0.76145 0.30161 0.0
H764 H 0.37107 0.66192 0.3522 0.0
H765 H 0.30342 0.70425 0.38501 0.0
C766 C 0.29099 0.78221 0.38031 0.0
C767 C 0.2892 0.82237 0.37463 0.0
C768 C 0.3305 0.75752 0.36223 0.0
C769 C 0.3296 0.83783 0.35178 0.0
C770 C 0.36874 0.81365 0.33386 0.0
C771 C 0.40577 0.74907 0.31972 0.0
C772 C 0.40654 0.70885 0.32435 0.0
C773 C 0.36861 0.77348 0.33855 0.0
C774 C 0.37035 0.69299 0.34827 0.0
C775 C 0.33195 0.71714 0.36696 0.0
H776 H 0.26157 0.67834 0.83682 0.0
H777 H 0.15839 0.70568 0.91907 0.0
H778 H 0.0919 0.75498 0.89369 0.0
H779 H 0.06414 0.79113 0.84825 0.0
H780 H 0.16477 0.76152 0.76574 0.0
H781 H 0.23015 0.71208 0.79112 0.0
C782 C 0.22381 0.69457 0.84919 0.0
C783 C 0.21539 0.68817 0.87993 0.0
C784 C 0.18523 0.72267 0.8344 0.0
C785 C 0.16691 0.71022 0.89553 0.0
C786 C 0.12851 0.73834 0.88098 0.0
C787 C 0.10018 0.77383 0.83573 0.0
C788 C 0.10969 0.78055 0.80508 0.0
C789 C 0.13754 0.74502 0.85045 0.0
C790 C 0.15655 0.7575 0.78936 0.0
C791 C 0.19404 0.72904 0.80385 0.0
loop_
_geom_bond_atom_site_label_1
_geom_bond_atom_site_label_2
_geom_bond_distance
_geom_bond_site_symmetry_2
_ccdc_geom_bond_type
H0 C3 0.931 . S
H1 C6 0.928 . S
H2 C8 0.930 . S
C3 H0 0.931 . S
C3 C4 1.413 . S
C3 C5 1.360 . S
C4 C3 1.413 . S
C4 C8 1.429 . S
C5 C3 1.360 . S
C5 C6 1.372 . S
C6 H1 0.928 . S
C6 C5 1.372 . S
C6 C7 1.404 . S
C7 C6 1.404 . S
C7 C8 1.391 . S
C8 H2 0.930 . S
C8 C4 1.429 . S
C8 C7 1.391 . S
H9 C12 0.931 . S
H10 C15 0.928 . S
H11 C17 0.930 . S
C12 H9 0.931 . S
C12 C13 1.413 . S
C12 C14 1.360 . S
C13 C12 1.413 . S
C13 C17 1.429 . S
C14 C12 1.360 . S
C14 C15 1.372 . S
C15 H10 0.928 . S
C15 C14 1.372 . S
C15 C16 1.404 . S
C16 C15 1.404 . S
C16 C17 1.391 . S
C17 H11 0.930 . S
C17 C13 1.429 . S
C17 C16 1.391 . S
H18 C21 0.931 . S
H19 C24 0.928 . S
H20 C26 0.930 . S
C21 H18 0.931 . S
C21 C22 1.413 . S
C21 C23 1.360 . S
C22 C21 1.413 . S
C22 C26 1.429 . S
C23 C21 1.360 . S
C23 C24 1.372 . S
C24 H19 0.928 . S
C24 C23 1.372 . S
C24 C25 1.404 . S
C25 C24 1.404 . S
C25 C26 1.391 . S
C26 H20 0.930 . S
C26 C22 1.429 . S
C26 C25 1.391 . S
H27 C30 0.931 . S
H28 C33 0.928 . S
H29 C35 0.930 . S
C30 H27 0.931 . S
C30 C31 1.413 . S
C30 C32 1.360 . S
C31 C30 1.413 . S
C31 C35 1.429 . S
C32 C30 1.360 . S
C32 C33 1.372 . S
C33 H28 0.928 . S
C33 C32 1.372 . S
C33 C34 1.404 . S
C34 C33 1.404 . S
C34 C35 1.391 . S
C35 H29 0.930 . S
C35 C31 1.429 . S
C35 C34 1.391 . S
H36 C39 0.931 . S
H37 C42 0.928 . S
H38 C44 0.930 . S
C39 H36 0.931 . S
C39 C40 1.413 . S
C39 C41 1.360 . S
C40 C39 1.413 . S
C40 C44 1.429 . S
C41 C39 1.360 . S
C41 C42 1.372 . S
C42 H37 0.928 . S
C42 C41 1.372 . S
C42 C43 1.404 . S
C43 C42 1.404 . S
C43 C44 1.391 . S
C44 H38 0.930 . S
C44 C40 1.429 . S
C44 C43 1.391 . S
H45 C48 0.931 . S
H46 C51 0.928 . S
H47 C53 0.930 . S
C48 H45 0.931 . S
C48 C49 1.413 . S
C48 C50 1.360 . S
C49 C48 1.413 . S
C49 C53 1.429 . S
C50 C48 1.360 . S
C50 C51 1.372 . S
C51 H46 0.928 . S
C51 C50 1.372 . S
C51 C52 1.404 . S
C52 C51 1.404 . S
C52 C53 1.391 . S
C53 H47 0.930 . S
C53 C49 1.429 . S
C53 C52 1.391 . S
H54 C57 0.931 . S
H55 C60 0.928 . S
H56 C62 0.930 . S
C57 H54 0.931 . S
C57 C58 1.413 . S
C57 C59 1.360 . S
C58 C57 1.413 . S
C58 C62 1.429 . S
C59 C57 1.360 . S
C59 C60 1.372 . S
C60 H55 0.928 . S
C60 C59 1.372 . S
C60 C61 1.404 . S
C61 C60 1.404 . S
C61 C62 1.391 . S
C62 H56 0.930 . S
C62 C58 1.429 . S
C62 C61 1.391 . S
H63 C66 0.931 . S
H64 C69 0.928 . S
H65 C71 0.930 . S
C66 H63 0.931 . S
C66 C67 1.413 . S
C66 C68 1.360 . S
C67 C66 1.413 . S
C67 C71 1.429 . S
C68 C66 1.360 . S
C68 C69 1.372 . S
C69 H64 0.928 . S
C69 C68 1.372 . S
C69 C70 1.404 . S
C70 C69 1.404 . S
C70 C71 1.391 . S
C71 H65 0.930 . S
C71 C67 1.429 . S
C71 C70 1.391 . S
Tb72 N101 2.617 . S
Tb72 N107 2.572 . S
Tb72 O116 2.465 . S
Tb72 O117 2.387 . S
Tb72 O119 2.428 . S
Tb72 O120 2.308 1_455 S
Tb72 O124 2.351 . S
Tb72 O127 2.393 . S
Tb72 C136 2.802 . S
C73 N74 1.379 . S
C73 C76 1.416 . S
C73 C80 1.424 . S
N74 C73 1.379 . S
N74 C77 1.334 . S
N74 Tb83 2.617 . S
C75 C77 1.390 . S
C75 C78 1.339 . S
C75 H95 0.930 . S
C76 C73 1.416 . S
C76 C78 1.416 . S
C76 C82 1.448 . S
C77 N74 1.334 . S
C77 C75 1.390 . S
C77 H88 0.930 . S
C78 C75 1.339 . S
C78 C76 1.416 . S
C78 H99 0.930 . S
C79 C80 1.413 . S
C79 C81 1.427 . S
C79 C85 1.416 . S
C80 C73 1.424 . S
C80 C79 1.413 . S
C80 N84 1.361 . S
C81 C79 1.427 . S
C81 C82 1.328 . S
C81 H96 0.929 . S
C82 C76 1.448 . S
C82 C81 1.328 . S
C82 H97 0.930 . S
Tb83 N74 2.617 . S
Tb83 N84 2.572 . S
Tb83 O118 2.349 1_655 S
Tb83 O121 2.393 . S
Tb83 O122 2.465 . S
Tb83 O123 2.387 . S
Tb83 O125 2.428 . S
Tb83 O126 2.308 1_655 S
Tb83 C147 2.802 . S
N84 C80 1.361 . S
N84 Tb83 2.572 . S
N84 C86 1.340 . S
C85 C79 1.416 . S
C85 C87 1.332 . S
C85 H93 0.931 1_545 S
C86 N84 1.340 . S
C86 C87 1.407 . S
C86 H92 0.930 . S
C87 C85 1.332 . S
C87 C86 1.407 . S
C87 H89 0.929 1_545 S
H88 C77 0.930 . S
H89 C87 0.929 1_565 S
H90 C105 0.930 . S
H91 C112 0.929 . S
H92 C86 0.930 . S
H93 C85 0.931 1_565 S
H94 C108 0.930 . S
H95 C75 0.930 . S
H96 C81 0.929 . S
H97 C82 0.930 . S
H98 C103 0.930 . S
H99 C78 0.930 . S
H100 C111 0.931 . S
N101 Tb72 2.617 . S
N101 C102 1.379 . S
N101 C105 1.334 . S
C102 N101 1.379 . S
C102 C104 1.416 . S
C102 C110 1.424 . S
C103 H98 0.930 . S
C103 C105 1.390 . S
C103 C106 1.339 . S
C104 C102 1.416 . S
C104 C106 1.416 . S
C104 C137 1.448 . S
C105 H90 0.930 . S
C105 N101 1.334 . S
C105 C103 1.390 . S
C106 C103 1.339 . S
C106 C104 1.416 . S
C106 H113 0.930 . S
N107 Tb72 2.572 . S
N107 C108 1.340 . S
N107 C110 1.361 . S
C108 H94 0.930 . S
C108 N107 1.340 . S
C108 C112 1.407 . S
C109 C110 1.413 . S
C109 C111 1.416 . S
C109 C138 1.427 . S
C110 C102 1.424 . S
C110 N107 1.361 . S
C110 C109 1.413 . S
C111 H100 0.931 . S
C111 C109 1.416 . S
C111 C112 1.332 . S
C112 H91 0.929 . S
C112 C108 1.407 . S
C112 C111 1.332 . S
H113 C106 0.930 . S
H114 C137 0.930 . S
H115 C138 0.929 . S
O116 Tb72 2.465 . S
O116 C136 1.264 . S
O117 Tb72 2.387 . S
O117 C128 1.264 . S
O118 Tb83 2.349 1_455 S
O118 C128 1.243 . S
O119 Tb72 2.428 . S
O119 C136 1.256 . S
O120 Tb72 2.308 1_655 S
O120 C135 1.266 . S
O121 Tb83 2.393 . S
O121 C135 1.248 . S
O122 Tb83 2.465 . S
O122 C147 1.264 . S
O123 Tb83 2.387 . S
O123 C139 1.264 . S
O124 Tb72 2.351 . S
O124 C139 1.241 1_455 S
O125 Tb83 2.428 . S
O125 C147 1.256 . S
O126 Tb83 2.308 1_455 S
O126 C146 1.266 . S
O127 Tb72 2.393 . S
O127 C146 1.248 . S
C128 O117 1.264 . S
C128 O118 1.243 . S
C129 C132 1.399 . S
C129 C134 1.383 . S
C129 C136 1.496 . S
C130 C131 1.399 . S
C130 C134 1.389 . S
C131 C130 1.399 . S
C131 C133 1.380 . S
C131 H148 0.929 . S
C132 C129 1.399 . S
C132 C133 1.392 . S
C132 H149 0.929 . S
C133 C131 1.380 . S
C133 C132 1.392 . S
C133 H150 0.929 . S
C134 C129 1.383 . S
C134 C130 1.389 . S
C134 H151 0.931 . S
C135 O120 1.266 . S
C135 O121 1.248 . S
C136 Tb72 2.802 . S
C136 O116 1.264 . S
C136 O119 1.256 . S
C136 C129 1.496 . S
C137 C104 1.448 . S
C137 H114 0.930 . S
C137 C138 1.328 . S
C138 C109 1.427 . S
C138 H115 0.929 . S
C138 C137 1.328 . S
C139 O123 1.264 . S
C139 O124 1.241 1_655 S
C140 C143 1.399 . S
C140 C144 1.383 . S
C140 C147 1.496 . S
C141 C142 1.399 . S
C141 C144 1.389 . S
C142 C141 1.399 . S
C142 C145 1.380 . S
C142 H152 0.929 . S
C143 C140 1.399 . S
C143 C145 1.392 . S
C143 H153 0.929 . S
C144 C140 1.383 . S
C144 C141 1.389 . S
C144 H154 0.931 . S
C145 C142 1.380 . S
C145 C143 1.392 . S
C145 H155 0.929 . S
C146 O126 1.266 . S
C146 O127 1.248 . S
C147 Tb83 2.802 . S
C147 O122 1.264 . S
C147 O125 1.256 . S
C147 C140 1.496 . S
H148 C131 0.929 . S
H149 C132 0.929 . S
H150 C133 0.929 . S
H151 C134 0.931 . S
H152 C142 0.929 . S
H153 C143 0.929 . S
H154 C144 0.931 . S
H155 C145 0.929 . S
Tb156 N185 2.617 . S
Tb156 N191 2.572 . S
Tb156 O200 2.465 . S
Tb156 O201 2.387 . S
Tb156 O203 2.428 . S
Tb156 O204 2.308 . S
Tb156 O208 2.349 . S
Tb156 O211 2.393 . S
Tb156 C220 2.802 . S
C157 N158 1.379 . S
C157 C160 1.416 . S
C157 C164 1.424 . S
N158 C157 1.379 . S
N158 C161 1.334 . S
N158 Tb167 2.617 . S
C159 C161 1.390 . S
C159 C162 1.339 . S
C159 H179 0.930 . S
C160 C157 1.416 . S
C160 C162 1.416 . S
C160 C166 1.448 . S
C161 N158 1.334 . S
C161 C159 1.390 . S
C161 H172 0.930 . S
C162 C159 1.339 . S
C162 C160 1.416 . S
C162 H183 0.930 . S
C163 C164 1.413 . S
C163 C165 1.427 . S
C163 C169 1.416 . S
C164 C157 1.424 . S
C164 C163 1.413 . S
C164 N168 1.361 . S
C165 C163 1.427 . S
C165 C166 1.328 . S
C165 H180 0.929 . S
C166 C160 1.448 . S
C166 C165 1.328 . S
C166 H181 0.930 . S
Tb167 N158 2.617 . S
Tb167 N168 2.572 . S
Tb167 O202 2.349 . S
Tb167 O205 2.393 . S
Tb167 O206 2.465 . S
Tb167 O207 2.387 . S
Tb167 O209 2.428 . S
Tb167 O210 2.308 . S
Tb167 C231 2.802 . S
N168 C164 1.361 . S
N168 Tb167 2.572 . S
N168 C170 1.340 . S
C169 C163 1.416 . S
C169 C171 1.332 . S
C169 H177 0.931 . S
C170 N168 1.340 . S
C170 C171 1.407 . S
C170 H176 0.930 . S
C171 C169 1.332 . S
C171 C170 1.407 . S
C171 H173 0.929 . S
H172 C161 0.930 . S
H173 C171 0.929 . S
H174 C189 0.930 . S
H175 C196 0.929 . S
H176 C170 0.930 . S
H177 C169 0.931 . S
H178 C192 0.930 . S
H179 C159 0.930 . S
H180 C165 0.929 . S
H181 C166 0.930 . S
H182 C187 0.930 . S
H183 C162 0.930 . S
H184 C195 0.931 . S
N185 Tb156 2.617 . S
N185 C186 1.379 . S
N185 C189 1.334 . S
C186 N185 1.379 . S
C186 C188 1.416 . S
C186 C194 1.424 . S
C187 H182 0.930 . S
C187 C189 1.390 . S
C187 C190 1.339 . S
C188 C186 1.416 . S
C188 C190 1.416 . S
C188 C221 1.448 . S
C189 H174 0.930 . S
C189 N185 1.334 . S
C189 C187 1.390 . S
C190 C187 1.339 . S
C190 C188 1.416 . S
C190 H197 0.930 . S
N191 Tb156 2.572 . S
N191 C192 1.340 . S
N191 C194 1.361 . S
C192 H178 0.930 . S
C192 N191 1.340 . S
C192 C196 1.407 . S
C193 C194 1.413 . S
C193 C195 1.416 . S
C193 C222 1.427 . S
C194 C186 1.424 . S
C194 N191 1.361 . S
C194 C193 1.413 . S
C195 H184 0.931 . S
C195 C193 1.416 . S
C195 C196 1.332 . S
C196 H175 0.929 . S
C196 C192 1.407 . S
C196 C195 1.332 . S
H197 C190 0.930 . S
H198 C221 0.930 . S
H199 C222 0.929 . S
O200 Tb156 2.465 . S
O200 C220 1.264 . S
O201 Tb156 2.387 . S
O201 C212 1.264 . S
O202 Tb167 2.349 . S
O202 C212 1.243 . S
O203 Tb156 2.428 . S
O203 C220 1.256 . S
O204 Tb156 2.308 . S
O204 C219 1.266 . S
O205 Tb167 2.393 . S
O205 C219 1.248 . S
O206 Tb167 2.465 . S
O206 C231 1.264 . S
O207 Tb167 2.387 . S
O207 C223 1.264 . S
O208 Tb156 2.349 . S
O208 C223 1.243 . S
O209 Tb167 2.428 . S
O209 C231 1.256 . S
O210 Tb167 2.308 . S
O210 C230 1.266 . S
O211 Tb156 2.393 . S
O211 C230 1.248 . S
C212 O201 1.264 . S
C212 O202 1.243 . S
C213 C216 1.399 . S
C213 C218 1.383 . S
C213 C220 1.496 . S
C214 C215 1.399 . S
C214 C218 1.389 . S
C215 C214 1.399 . S
C215 C217 1.380 . S
C215 H232 0.929 . S
C216 C213 1.399 . S
C216 C217 1.392 . S
C216 H233 0.929 . S
C217 C215 1.380 . S
C217 C216 1.392 . S
C217 H234 0.929 . S
C218 C213 1.383 . S
C218 C214 1.389 . S
C218 H235 0.931 . S
C219 O204 1.266 . S
C219 O205 1.248 . S
C220 Tb156 2.802 . S
C220 O200 1.264 . S
C220 O203 1.256 . S
C220 C213 1.496 . S
C221 C188 1.448 . S
C221 H198 0.930 . S
C221 C222 1.328 . S
C222 C193 1.427 . S
C222 H199 0.929 . S
C222 C221 1.328 . S
C223 O207 1.264 . S
C223 O208 1.243 . S
C224 C227 1.399 . S
C224 C228 1.383 . S
C224 C231 1.496 . S
C225 C226 1.399 . S
C225 C228 1.389 . S
C226 C225 1.399 . S
C226 C229 1.380 . S
C226 H236 0.929 . S
C227 C224 1.399 . S
C227 C229 1.392 . S
C227 H237 0.929 . S
C228 C224 1.383 . S
C228 C225 1.389 . S
C228 H238 0.931 . S
C229 C226 1.380 . S
C229 C227 1.392 . S
C229 H239 0.929 . S
C230 O210 1.266 . S
C230 O211 1.248 . S
C231 Tb167 2.802 . S
C231 O206 1.264 . S
C231 O209 1.256 . S
C231 C224 1.496 . S
H232 C215 0.929 . S
H233 C216 0.929 . S
H234 C217 0.929 . S
H235 C218 0.931 . S
H236 C226 0.929 . S
H237 C227 0.929 . S
H238 C228 0.931 . S
H239 C229 0.929 . S
Tb240 N269 2.617 . S
Tb240 N275 2.572 . S
Tb240 O284 2.465 . S
Tb240 O285 2.387 . S
Tb240 O287 2.428 . S
Tb240 O288 2.308 . S
Tb240 O292 2.349 . S
Tb240 O295 2.393 . S
Tb240 C304 2.802 . S
C241 N242 1.379 . S
C241 C244 1.416 . S
C241 C248 1.424 . S
N242 C241 1.379 . S
N242 C245 1.334 . S
N242 Tb251 2.617 . S
C243 C245 1.390 . S
C243 C246 1.339 . S
C243 H263 0.930 . S
C244 C241 1.416 . S
C244 C246 1.416 . S
C244 C250 1.448 . S
C245 N242 1.334 . S
C245 C243 1.390 . S
C245 H256 0.930 . S
C246 C243 1.339 . S
C246 C244 1.416 . S
C246 H267 0.930 . S
C247 C248 1.413 . S
C247 C249 1.427 . S
C247 C253 1.416 . S
C248 C241 1.424 . S
C248 C247 1.413 . S
C248 N252 1.361 . S
C249 C247 1.427 . S
C249 C250 1.328 . S
C249 H264 0.929 . S
C250 C244 1.448 . S
C250 C249 1.328 . S
C250 H265 0.930 . S
Tb251 N242 2.617 . S
Tb251 N252 2.572 . S
Tb251 O286 2.349 1_655 S
Tb251 O289 2.393 . S
Tb251 O290 2.465 . S
Tb251 O291 2.387 . S
Tb251 O293 2.428 . S
Tb251 O294 2.308 1_655 S
Tb251 C315 2.802 . S
N252 C248 1.361 . S
N252 Tb251 2.572 . S
N252 C254 1.340 . S
C253 C247 1.416 . S
C253 C255 1.332 . S
C253 H261 0.931 . S
C254 N252 1.340 . S
C254 C255 1.407 . S
C254 H260 0.930 . S
C255 C253 1.332 . S
C255 C254 1.407 . S
C255 H257 0.929 . S
H256 C245 0.930 . S
H257 C255 0.929 . S
H258 C273 0.930 . S
H259 C280 0.929 1_545 S
H260 C254 0.930 . S
H261 C253 0.931 . S
H262 C276 0.930 . S
H263 C243 0.930 . S
H264 C249 0.929 . S
H265 C250 0.930 . S
H266 C271 0.930 . S
H267 C246 0.930 . S
H268 C279 0.931 1_545 S
N269 Tb240 2.617 . S
N269 C270 1.379 . S
N269 C273 1.334 . S
C270 N269 1.379 . S
C270 C272 1.416 . S
C270 C278 1.424 . S
C271 H266 0.930 . S
C271 C273 1.390 . S
C271 C274 1.339 . S
C272 C270 1.416 . S
C272 C274 1.416 . S
C272 C305 1.448 . S
C273 H258 0.930 . S
C273 N269 1.334 . S
C273 C271 1.390 . S
C274 C271 1.339 . S
C274 C272 1.416 . S
C274 H281 0.930 . S
N275 Tb240 2.572 . S
N275 C276 1.340 . S
N275 C278 1.361 . S
C276 H262 0.930 . S
C276 N275 1.340 . S
C276 C280 1.407 . S
C277 C278 1.413 . S
C277 C279 1.416 . S
C277 C306 1.427 . S
C278 C270 1.424 . S
C278 N275 1.361 . S
C278 C277 1.413 . S
C279 H268 0.931 1_565 S
C279 C277 1.416 . S
C279 C280 1.332 . S
C280 H259 0.929 1_565 S
C280 C276 1.407 . S
C280 C279 1.332 . S
H281 C274 0.930 . S
H282 C305 0.930 . S
H283 C306 0.929 . S
O284 Tb240 2.465 . S
O284 C304 1.264 . S
O285 Tb240 2.387 . S
O285 C296 1.264 . S
O286 Tb251 2.349 1_455 S
O286 C296 1.243 . S
O287 Tb240 2.428 . S
O287 C304 1.256 . S
O288 Tb240 2.308 . S
O288 C303 1.266 1_455 S
O289 Tb251 2.393 . S
O289 C303 1.248 . S
O290 Tb251 2.465 . S
O290 C315 1.264 . S
O291 Tb251 2.387 . S
O291 C307 1.264 . S
O292 Tb240 2.349 . S
O292 C307 1.243 1_455 S
O293 Tb251 2.428 . S
O293 C315 1.256 . S
O294 Tb251 2.308 1_455 S
O294 C314 1.266 . S
O295 Tb240 2.393 . S
O295 C314 1.248 . S
C296 O285 1.264 . S
C296 O286 1.243 . S
C297 C300 1.399 . S
C297 C302 1.383 . S
C297 C304 1.496 . S
C298 C299 1.399 . S
C298 C302 1.389 . S
C299 C298 1.399 . S
C299 C301 1.380 . S
C299 H316 0.929 . S
C300 C297 1.399 . S
C300 C301 1.392 . S
C300 H317 0.929 . S
C301 C299 1.380 . S
C301 C300 1.392 . S
C301 H318 0.929 . S
C302 C297 1.383 . S
C302 C298 1.389 . S
C302 H319 0.931 . S
C303 O288 1.266 1_655 S
C303 O289 1.248 . S
C304 Tb240 2.802 . S
C304 O284 1.264 . S
C304 O287 1.256 . S
C304 C297 1.496 . S
C305 C272 1.448 . S
C305 H282 0.930 . S
C305 C306 1.328 . S
C306 C277 1.427 . S
C306 H283 0.929 . S
C306 C305 1.328 . S
C307 O291 1.264 . S
C307 O292 1.243 1_655 S
C308 C311 1.399 . S
C308 C312 1.383 . S
C308 C315 1.496 . S
C309 C310 1.399 . S
C309 C312 1.389 . S
C310 C309 1.399 . S
C310 C313 1.380 . S
C310 H320 0.929 . S
C311 C308 1.399 . S
C311 C313 1.392 . S
C311 H321 0.929 . S
C312 C308 1.383 . S
C312 C309 1.389 . S
C312 H322 0.931 . S
C313 C310 1.380 . S
C313 C311 1.392 . S
C313 H323 0.929 . S
C314 O294 1.266 . S
C314 O295 1.248 . S
C315 Tb251 2.802 . S
C315 O290 1.264 . S
C315 O293 1.256 . S
C315 C308 1.496 . S
H316 C299 0.929 . S
H317 C300 0.929 . S
H318 C301 0.929 . S
H319 C302 0.931 . S
H320 C310 0.929 . S
H321 C311 0.929 . S
H322 C312 0.931 . S
H323 C313 0.929 . S
Tb324 N353 2.617 . S
Tb324 N359 2.572 . S
Tb324 O368 2.465 . S
Tb324 O369 2.387 . S
Tb324 O371 2.428 . S
Tb324 O372 2.308 . S
Tb324 O376 2.349 . S
Tb324 O379 2.393 . S
Tb324 C388 2.802 . S
C325 N326 1.379 . S
C325 C328 1.416 . S
C325 C332 1.424 . S
N326 C325 1.379 . S
N326 C329 1.334 . S
N326 Tb335 2.617 . S
C327 C329 1.390 . S
C327 C330 1.339 . S
C327 H347 0.930 . S
C328 C325 1.416 . S
C328 C330 1.416 . S
C328 C334 1.448 . S
C329 N326 1.334 . S
C329 C327 1.390 . S
C329 H340 0.930 . S
C330 C327 1.339 . S
C330 C328 1.416 . S
C330 H351 0.930 . S
C331 C332 1.413 . S
C331 C333 1.427 . S
C331 C337 1.416 . S
C332 C325 1.424 . S
C332 C331 1.413 . S
C332 N336 1.361 . S
C333 C331 1.427 . S
C333 C334 1.328 . S
C333 H348 0.929 . S
C334 C328 1.448 . S
C334 C333 1.328 . S
C334 H349 0.930 . S
Tb335 N326 2.617 . S
Tb335 N336 2.572 . S
Tb335 O370 2.349 . S
Tb335 O373 2.393 . S
Tb335 O374 2.465 . S
Tb335 O375 2.387 . S
Tb335 O377 2.428 . S
Tb335 O378 2.308 . S
Tb335 C399 2.802 . S
N336 C332 1.361 . S
N336 Tb335 2.572 . S
N336 C338 1.340 . S
C337 C331 1.416 . S
C337 C339 1.332 . S
C337 H345 0.931 . S
C338 N336 1.340 . S
C338 C339 1.407 . S
C338 H344 0.930 . S
C339 C337 1.332 . S
C339 C338 1.407 . S
C339 H341 0.929 . S
H340 C329 0.930 . S
H341 C339 0.929 . S
H342 C357 0.930 . S
H343 C364 0.929 . S
H344 C338 0.930 . S
H345 C337 0.931 . S
H346 C360 0.930 . S
H347 C327 0.930 . S
H348 C333 0.929 . S
H349 C334 0.930 . S
H350 C355 0.930 . S
H351 C330 0.930 . S
H352 C363 0.931 . S
N353 Tb324 2.617 . S
N353 C354 1.379 . S
N353 C357 1.334 . S
C354 N353 1.379 . S
C354 C356 1.416 . S
C354 C362 1.424 . S
C355 H350 0.930 . S
C355 C357 1.390 . S
C355 C358 1.339 . S
C356 C354 1.416 . S
C356 C358 1.416 . S
C356 C389 1.448 . S
C357 H342 0.930 . S
C357 N353 1.334 . S
C357 C355 1.390 . S
C358 C355 1.339 . S
C358 C356 1.416 . S
C358 H365 0.930 . S
N359 Tb324 2.572 . S
N359 C360 1.340 . S
N359 C362 1.361 . S
C360 H346 0.930 . S
C360 N359 1.340 . S
C360 C364 1.407 . S
C361 C362 1.413 . S
C361 C363 1.416 . S
C361 C390 1.427 . S
C362 C354 1.424 . S
C362 N359 1.361 . S
C362 C361 1.413 . S
C363 H352 0.931 . S
C363 C361 1.416 . S
C363 C364 1.332 . S
C364 H343 0.929 . S
C364 C360 1.407 . S
C364 C363 1.332 . S
H365 C358 0.930 . S
H366 C389 0.930 . S
H367 C390 0.929 . S
O368 Tb324 2.465 . S
O368 C388 1.264 . S
O369 Tb324 2.387 . S
O369 C380 1.264 . S
O370 Tb335 2.349 . S
O370 C380 1.243 . S
O371 Tb324 2.428 . S
O371 C388 1.256 . S
O372 Tb324 2.308 . S
O372 C387 1.266 . S
O373 Tb335 2.393 . S
O373 C387 1.248 . S
O374 Tb335 2.465 . S
O374 C399 1.264 . S
O375 Tb335 2.387 . S
O375 C391 1.264 . S
O376 Tb324 2.349 . S
O376 C391 1.243 . S
O377 Tb335 2.428 . S
O377 C399 1.256 . S
O378 Tb335 2.308 . S
O378 C398 1.266 . S
O379 Tb324 2.393 . S
O379 C398 1.248 . S
C380 O369 1.264 . S
C380 O370 1.243 . S
C381 C384 1.399 . S
C381 C386 1.383 . S
C381 C388 1.496 . S
C382 C383 1.399 . S
C382 C386 1.389 . S
C383 C382 1.399 . S
C383 C385 1.380 . S
C383 H400 0.929 . S
C384 C381 1.399 . S
C384 C385 1.392 . S
C384 H401 0.929 . S
C385 C383 1.380 . S
C385 C384 1.392 . S
C385 H402 0.929 . S
C386 C381 1.383 . S
C386 C382 1.389 . S
C386 H403 0.931 . S
C387 O372 1.266 . S
C387 O373 1.248 . S
C388 Tb324 2.802 . S
C388 O368 1.264 . S
C388 O371 1.256 . S
C388 C381 1.496 . S
C389 C356 1.448 . S
C389 H366 0.930 . S
C389 C390 1.328 . S
C390 C361 1.427 . S
C390 H367 0.929 . S
C390 C389 1.328 . S
C391 O375 1.264 . S
C391 O376 1.243 . S
C392 C395 1.399 . S
C392 C396 1.383 . S
C392 C399 1.496 . S
C393 C394 1.399 . S
C393 C396 1.389 . S
C394 C393 1.399 . S
C394 C397 1.380 . S
C394 H404 0.929 . S
C395 C392 1.399 . S
C395 C397 1.392 . S
C395 H405 0.929 . S
C396 C392 1.383 . S
C396 C393 1.389 . S
C396 H406 0.931 . S
C397 C394 1.380 . S
C397 C395 1.392 . S
C397 H407 0.929 . S
C398 O378 1.266 . S
C398 O379 1.248 . S
C399 Tb335 2.802 . S
C399 O374 1.264 . S
C399 O377 1.256 . S
C399 C392 1.496 . S
H400 C383 0.929 . S
H401 C384 0.929 . S
H402 C385 0.929 . S
H403 C386 0.931 . S
H404 C394 0.929 . S
H405 C395 0.929 . S
H406 C396 0.931 . S
H407 C397 0.929 . S
H408 C414 0.930 . S
H409 C417 0.930 . S
H410 C418 0.930 . S
H411 C419 0.930 . S
H412 C422 0.930 . S
H413 C423 0.930 . S
C414 H408 0.930 . S
C414 C415 1.355 . S
C414 C416 1.415 1_565 S
C415 C414 1.355 . S
C415 C417 1.419 . S
C416 C414 1.415 1_545 S
C416 C421 1.425 1_545 S
C416 C423 1.409 . S
C417 H409 0.930 . S
C417 C415 1.419 . S
C417 C418 1.362 . S
C418 H410 0.930 . S
C418 C417 1.362 . S
C418 C421 1.409 . S
C419 H411 0.930 . S
C419 C420 1.355 . S
C419 C421 1.415 1_545 S
C420 C419 1.355 . S
C420 C422 1.419 . S
C421 C416 1.425 1_565 S
C421 C418 1.409 . S
C421 C419 1.415 1_565 S
C422 H412 0.930 . S
C422 C420 1.419 . S
C422 C423 1.362 . S
C423 H413 0.930 . S
C423 C416 1.409 . S
C423 C422 1.362 . S
H424 C430 0.930 . S
H425 C433 0.930 . S
H426 C434 0.930 . S
H427 C435 0.930 . S
H428 C438 0.930 . S
H429 C439 0.930 . S
C430 H424 0.930 . S
C430 C431 1.355 . S
C430 C432 1.415 . S
C431 C430 1.355 . S
C431 C433 1.419 . S
C432 C430 1.415 . S
C432 C437 1.425 . S
C432 C439 1.409 . S
C433 H425 0.930 . S
C433 C431 1.419 . S
C433 C434 1.362 . S
C434 H426 0.930 . S
C434 C433 1.362 . S
C434 C437 1.409 . S
C435 H427 0.930 . S
C435 C436 1.355 . S
C435 C437 1.415 . S
C436 C435 1.355 . S
C436 C438 1.419 . S
C437 C432 1.425 . S
C437 C434 1.409 . S
C437 C435 1.415 . S
C438 H428 0.930 . S
C438 C436 1.419 . S
C438 C439 1.362 . S
C439 H429 0.930 . S
C439 C432 1.409 . S
C439 C438 1.362 . S
H440 C446 0.930 . S
H441 C449 0.930 . S
H442 C450 0.930 . S
H443 C451 0.930 . S
H444 C454 0.930 . S
H445 C455 0.930 . S
C446 H440 0.930 . S
C446 C447 1.355 . S
C446 C448 1.415 . S
C447 C446 1.355 . S
C447 C449 1.419 . S
C448 C446 1.415 . S
C448 C453 1.425 . S
C448 C455 1.409 . S
C449 H441 0.930 . S
C449 C447 1.419 . S
C449 C450 1.362 . S
C450 H442 0.930 . S
C450 C449 1.362 . S
C450 C453 1.409 . S
C451 H443 0.930 . S
C451 C452 1.355 . S
C451 C453 1.415 . S
C452 C451 1.355 . S
C452 C454 1.419 . S
C453 C448 1.425 . S
C453 C450 1.409 . S
C453 C451 1.415 . S
C454 H444 0.930 . S
C454 C452 1.419 . S
C454 C455 1.362 . S
C455 H445 0.930 . S
C455 C448 1.409 . S
C455 C454 1.362 . S
H456 C462 0.930 . S
H457 C465 0.930 . S
H458 C466 0.930 . S
H459 C467 0.930 . S
H460 C470 0.930 . S
H461 C471 0.930 . S
C462 H456 0.930 . S
C462 C463 1.355 . S
C462 C464 1.415 . S
C463 C462 1.355 . S
C463 C465 1.419 . S
C464 C462 1.415 . S
C464 C469 1.425 1_565 S
C464 C471 1.409 1_565 S
C465 H457 0.930 . S
C465 C463 1.419 . S
C465 C466 1.362 . S
C466 H458 0.930 . S
C466 C465 1.362 . S
C466 C469 1.409 1_565 S
C467 H459 0.930 . S
C467 C468 1.355 . S
C467 C469 1.415 . S
C468 C467 1.355 . S
C468 C470 1.419 . S
C469 C464 1.425 1_545 S
C469 C466 1.409 1_545 S
C469 C467 1.415 . S
C470 H460 0.930 . S
C470 C468 1.419 . S
C470 C471 1.362 . S
C471 H461 0.930 . S
C471 C464 1.409 1_545 S
C471 C470 1.362 . S
H472 C478 0.930 . S
H473 C481 0.930 . S
H474 C482 0.930 . S
H475 C483 0.930 . S
H476 C486 0.930 1_455 S
H477 C487 0.930 . S
C478 H472 0.930 . S
C478 C479 1.355 . S
C478 C480 1.415 . S
C479 C478 1.355 . S
C479 C481 1.419 . S
C480 C478 1.415 . S
C480 C485 1.425 1_545 S
C480 C487 1.409 . S
C481 H473 0.930 . S
C481 C479 1.419 . S
C481 C482 1.362 1_545 S
C482 H474 0.930 . S
C482 C481 1.362 1_565 S
C482 C485 1.409 . S
C483 H475 0.930 . S
C483 C484 1.355 . S
C483 C485 1.415 . S
C484 C483 1.355 . S
C484 C486 1.419 . S
C485 C480 1.425 1_565 S
C485 C482 1.409 . S
C485 C483 1.415 . S
C486 H476 0.930 1_655 S
C486 C484 1.419 . S
C486 C487 1.362 1_565 S
C487 H477 0.930 . S
C487 C480 1.409 . S
C487 C486 1.362 1_545 S
H488 C494 0.930 . S
H489 C497 0.930 . S
H490 C498 0.930 . S
H491 C499 0.930 . S
H492 C502 0.930 . S
H493 C503 0.930 . S
C494 H488 0.930 . S
C494 C495 1.355 . S
C494 C496 1.415 . S
C495 C494 1.355 . S
C495 C497 1.419 . S
C496 C494 1.415 . S
C496 C501 1.425 . S
C496 C503 1.409 . S
C497 H489 0.930 . S
C497 C495 1.419 . S
C497 C498 1.362 . S
C498 H490 0.930 . S
C498 C497 1.362 . S
C498 C501 1.409 . S
C499 H491 0.930 . S
C499 C500 1.355 . S
C499 C501 1.415 . S
C500 C499 1.355 . S
C500 C502 1.419 . S
C501 C496 1.425 . S
C501 C498 1.409 . S
C501 C499 1.415 . S
C502 H492 0.930 . S
C502 C500 1.419 . S
C502 C503 1.362 . S
C503 H493 0.930 . S
C503 C496 1.409 . S
C503 C502 1.362 . S
H504 C510 0.930 . S
H505 C513 0.930 . S
H506 C514 0.930 . S
H507 C515 0.930 . S
H508 C518 0.930 . S
H509 C519 0.930 . S
C510 H504 0.930 . S
C510 C511 1.355 . S
C510 C512 1.415 . S
C511 C510 1.355 . S
C511 C513 1.419 . S
C512 C510 1.415 . S
C512 C517 1.425 . S
C512 C519 1.409 . S
C513 H505 0.930 . S
C513 C511 1.419 . S
C513 C514 1.362 . S
C514 H506 0.930 . S
C514 C513 1.362 . S
C514 C517 1.409 . S
C515 H507 0.930 . S
C515 C516 1.355 . S
C515 C517 1.415 . S
C516 C515 1.355 . S
C516 C518 1.419 . S
C517 C512 1.425 . S
C517 C514 1.409 . S
C517 C515 1.415 . S
C518 H508 0.930 . S
C518 C516 1.419 . S
C518 C519 1.362 . S
C519 H509 0.930 . S
C519 C512 1.409 . S
C519 C518 1.362 . S
H520 C526 0.930 . S
H521 C529 0.930 . S
H522 C530 0.930 . S
H523 C531 0.930 . S
H524 C534 0.930 . S
H525 C535 0.930 . S
C526 H520 0.930 . S
C526 C527 1.355 . S
C526 C528 1.415 1_545 S
C527 C526 1.355 . S
C527 C529 1.419 . S
C528 C526 1.415 1_565 S
C528 C533 1.423 1_565 S
C528 C535 1.409 . S
C529 H521 0.930 . S
C529 C527 1.419 . S
C529 C530 1.362 . S
C530 H522 0.930 . S
C530 C529 1.362 . S
C530 C533 1.426 . S
C531 H523 0.930 . S
C531 C532 1.355 . S
C531 C533 1.401 1_565 S
C532 C531 1.355 . S
C532 C534 1.419 . S
C533 C528 1.423 1_545 S
C533 C530 1.426 . S
C533 C531 1.401 1_545 S
C534 H524 0.930 . S
C534 C532 1.419 . S
C534 C535 1.362 . S
C535 H525 0.930 . S
C535 C528 1.409 . S
C535 C534 1.362 . S
H536 C542 0.930 . S
H537 C545 0.930 . S
H538 C546 0.930 1_554 S
H539 C547 0.930 . S
H540 C550 0.930 . S
H541 C551 0.930 . S
C542 H536 0.930 . S
C542 C543 1.355 . S
C542 C544 1.439 . S
C543 C542 1.355 . S
C543 C545 1.419 . S
C544 C542 1.439 . S
C544 C549 1.415 1_556 S
C544 C551 1.395 1_556 S
C545 H537 0.930 . S
C545 C543 1.419 . S
C545 C546 1.362 . S
C546 H538 0.930 1_556 S
C546 C545 1.362 . S
C546 C549 1.409 1_556 S
C547 H539 0.930 . S
C547 C548 1.355 . S
C547 C549 1.415 . S
C548 C547 1.355 . S
C548 C550 1.419 . S
C549 C544 1.415 1_554 S
C549 C546 1.409 1_554 S
C549 C547 1.415 . S
C550 H540 0.930 . S
C550 C548 1.419 . S
C550 C551 1.362 . S
C551 H541 0.930 . S
C551 C544 1.395 1_554 S
C551 C550 1.362 . S
H552 C558 0.930 . S
H553 C561 0.930 . S
H554 C562 0.930 . S
H555 C563 0.930 . S
H556 C566 0.930 . S
H557 C567 0.930 . S
C558 H552 0.930 . S
C558 C559 1.355 . S
C558 C560 1.415 . S
C559 C558 1.355 . S
C559 C561 1.419 . S
C560 C558 1.415 . S
C560 C565 1.425 . S
C560 C567 1.409 . S
C561 H553 0.930 . S
C561 C559 1.419 . S
C561 C562 1.362 . S
C562 H554 0.930 . S
C562 C561 1.362 . S
C562 C565 1.409 . S
C563 H555 0.930 . S
C563 C564 1.355 . S
C563 C565 1.415 . S
C564 C563 1.355 . S
C564 C566 1.419 . S
C565 C560 1.425 . S
C565 C562 1.409 . S
C565 C563 1.415 . S
C566 H556 0.930 . S
C566 C564 1.419 . S
C566 C567 1.362 . S
C567 H557 0.930 . S
C567 C560 1.409 . S
C567 C566 1.362 . S
H568 C574 0.930 . S
H569 C577 0.930 . S
H570 C578 0.930 . S
H571 C579 0.930 . S
H572 C582 0.930 . S
H573 C583 0.930 . S
C574 H568 0.930 . S
C574 C575 1.355 . S
C574 C576 1.415 1_554 S
C575 C574 1.355 . S
C575 C577 1.419 . S
C576 C574 1.415 1_556 S
C576 C581 1.425 . S
C576 C583 1.409 . S
C577 H569 0.930 . S
C577 C575 1.419 . S
C577 C578 1.362 . S
C578 H570 0.930 . S
C578 C577 1.362 . S
C578 C581 1.409 1_554 S
C579 H571 0.930 . S
C579 C580 1.355 . S
C579 C581 1.415 . S
C580 C579 1.355 . S
C580 C582 1.419 . S
C581 C576 1.425 . S
C581 C578 1.409 1_556 S
C581 C579 1.415 . S
C582 H572 0.930 . S
C582 C580 1.419 . S
C582 C583 1.362 . S
C583 H573 0.930 . S
C583 C576 1.409 . S
C583 C582 1.362 . S
H584 C590 0.930 . S
H585 C593 0.930 . S
H586 C594 0.930 . S
H587 C595 0.930 . S
H588 C598 0.930 . S
H589 C599 0.930 . S
C590 H584 0.930 . S
C590 C591 1.355 . S
C590 C592 1.415 . S
C591 C590 1.355 . S
C591 C593 1.419 . S
C592 C590 1.415 . S
C592 C597 1.425 . S
C592 C599 1.409 . S
C593 H585 0.930 . S
C593 C591 1.419 . S
C593 C594 1.362 . S
C594 H586 0.930 . S
C594 C593 1.362 . S
C594 C597 1.409 . S
C595 H587 0.930 . S
C595 C596 1.355 . S
C595 C597 1.415 . S
C596 C595 1.355 . S
C596 C598 1.419 . S
C597 C592 1.425 . S
C597 C594 1.409 . S
C597 C595 1.415 . S
C598 H588 0.930 . S
C598 C596 1.419 . S
C598 C599 1.362 . S
C599 H589 0.930 . S
C599 C592 1.409 . S
C599 C598 1.362 . S
H600 C606 0.930 . S
H601 C609 0.930 . S
H602 C610 0.930 1_556 S
H603 C611 0.930 . S
H604 C614 0.930 . S
H605 C615 0.930 . S
C606 H600 0.930 . S
C606 C607 1.355 . S
C606 C608 1.449 . S
C607 C606 1.355 . S
C607 C609 1.419 . S
C608 C606 1.449 . S
C608 C613 1.410 1_554 S
C608 C615 1.390 1_554 S
C609 H601 0.930 . S
C609 C607 1.419 . S
C609 C610 1.362 . S
C610 H602 0.930 1_554 S
C610 C609 1.362 . S
C610 C613 1.409 1_554 S
C611 H603 0.930 . S
C611 C612 1.355 . S
C611 C613 1.415 . S
C612 C611 1.355 . S
C612 C614 1.419 . S
C613 C608 1.410 1_556 S
C613 C610 1.409 1_556 S
C613 C611 1.415 . S
C614 H604 0.930 . S
C614 C612 1.419 . S
C614 C615 1.362 . S
C615 H605 0.930 . S
C615 C608 1.390 1_556 S
C615 C614 1.362 . S
H616 C622 0.930 . S
H617 C625 0.930 . S
H618 C626 0.930 . S
H619 C627 0.930 . S
H620 C630 0.930 . S
H621 C631 0.930 . S
C622 H616 0.930 . S
C622 C623 1.355 . S
C622 C624 1.415 . S
C623 C622 1.355 . S
C623 C625 1.419 . S
C624 C622 1.415 . S
C624 C629 1.425 . S
C624 C631 1.409 . S
C625 H617 0.930 . S
C625 C623 1.419 . S
C625 C626 1.362 . S
C626 H618 0.930 . S
C626 C625 1.362 . S
C626 C629 1.409 . S
C627 H619 0.930 . S
C627 C628 1.355 . S
C627 C629 1.415 . S
C628 C627 1.355 . S
C628 C630 1.419 . S
C629 C624 1.425 . S
C629 C626 1.409 . S
C629 C627 1.415 . S
C630 H620 0.930 . S
C630 C628 1.419 . S
C630 C631 1.362 . S
C631 H621 0.930 . S
C631 C624 1.409 . S
C631 C630 1.362 . S
H632 C638 0.930 . S
H633 C641 0.930 . S
H634 C642 0.930 . S
H635 C643 0.930 . S
H636 C646 0.930 . S
H637 C647 0.930 . S
C638 H632 0.930 . S
C638 C639 1.355 . S
C638 C640 1.415 1_556 S
C639 C638 1.355 . S
C639 C641 1.419 . S
C640 C638 1.415 1_554 S
C640 C645 1.425 . S
C640 C647 1.409 . S
C641 H633 0.930 . S
C641 C639 1.419 . S
C641 C642 1.362 . S
C642 H634 0.930 . S
C642 C641 1.362 . S
C642 C645 1.409 1_556 S
C643 H635 0.930 . S
C643 C644 1.355 . S
C643 C645 1.415 . S
C644 C643 1.355 . S
C644 C646 1.419 . S
C645 C640 1.425 . S
C645 C642 1.409 1_554 S
C645 C643 1.415 . S
C646 H636 0.930 . S
C646 C644 1.419 . S
C646 C647 1.362 . S
C647 H637 0.930 . S
C647 C640 1.409 . S
C647 C646 1.362 . S
H648 C654 0.930 . S
H649 C657 0.930 . S
H650 C658 0.930 . S
H651 C659 0.930 . S
H652 C662 0.930 . S
H653 C663 0.930 . S
C654 H648 0.930 . S
C654 C655 1.355 . S
C654 C656 1.415 . S
C655 C654 1.355 . S
C655 C657 1.419 . S
C656 C654 1.415 . S
C656 C661 1.425 . S
C656 C663 1.409 . S
C657 H649 0.930 . S
C657 C655 1.419 . S
C657 C658 1.362 . S
C658 H650 0.930 . S
C658 C657 1.362 . S
C658 C661 1.409 . S
C659 H651 0.930 . S
C659 C660 1.355 . S
C659 C661 1.415 . S
C660 C659 1.355 . S
C660 C662 1.419 . S
C661 C656 1.425 . S
C661 C658 1.409 . S
C661 C659 1.415 . S
C662 H652 0.930 . S
C662 C660 1.419 . S
C662 C663 1.362 . S
C663 H653 0.930 . S
C663 C656 1.409 . S
C663 C662 1.362 . S
H664 C670 0.930 . S
H665 C673 0.930 . S
H666 C674 0.930 . S
H667 C675 0.930 . S
H668 C678 0.930 . S
H669 C679 0.930 . S
C670 H664 0.930 . S
C670 C671 1.355 . S
C670 C672 1.415 . S
C671 C670 1.355 . S
C671 C673 1.419 . S
C672 C670 1.415 . S
C672 C677 1.425 . S
C672 C679 1.409 . S
C673 H665 0.930 . S
C673 C671 1.419 . S
C673 C674 1.362 . S
C674 H666 0.930 . S
C674 C673 1.362 . S
C674 C677 1.409 . S
C675 H667 0.930 . S
C675 C676 1.355 . S
C675 C677 1.415 . S
C676 C675 1.355 . S
C676 C678 1.419 . S
C677 C672 1.425 . S
C677 C674 1.409 . S
C677 C675 1.415 . S
C678 H668 0.930 . S
C678 C676 1.419 . S
C678 C679 1.362 . S
C679 H669 0.930 . S
C679 C672 1.409 . S
C679 C678 1.362 . S
H680 C686 0.930 . S
H681 C689 0.930 . S
H682 C690 0.930 . S
H683 C691 0.930 . S
H684 C694 0.930 . S
H685 C695 0.930 . S
C686 H680 0.930 . S
C686 C687 1.355 . S
C686 C688 1.415 . S
C687 C686 1.355 . S
C687 C689 1.419 . S
C688 C686 1.415 . S
C688 C693 1.425 . S
C688 C695 1.409 . S
C689 H681 0.930 . S
C689 C687 1.419 . S
C689 C690 1.362 . S
C690 H682 0.930 . S
C690 C689 1.362 . S
C690 C693 1.409 . S
C691 H683 0.930 . S
C691 C692 1.355 . S
C691 C693 1.415 . S
C692 C691 1.355 . S
C692 C694 1.419 . S
C693 C688 1.425 . S
C693 C690 1.409 . S
C693 C691 1.415 . S
C694 H684 0.930 . S
C694 C692 1.419 . S
C694 C695 1.362 . S
C695 H685 0.930 . S
C695 C688 1.409 . S
C695 C694 1.362 . S
H696 C702 0.930 . S
H697 C705 0.930 . S
H698 C706 0.930 . S
H699 C707 0.930 . S
H700 C710 0.930 . S
H701 C711 0.930 . S
C702 H696 0.930 . S
C702 C703 1.355 . S
C702 C704 1.415 . S
C703 C702 1.355 . S
C703 C705 1.419 . S
C704 C702 1.415 . S
C704 C709 1.425 . S
C704 C711 1.409 . S
C705 H697 0.930 . S
C705 C703 1.419 . S
C705 C706 1.362 . S
C706 H698 0.930 . S
C706 C705 1.362 . S
C706 C709 1.409 . S
C707 H699 0.930 . S
C707 C708 1.355 . S
C707 C709 1.415 . S
C708 C707 1.355 . S
C708 C710 1.419 . S
C709 C704 1.425 . S
C709 C706 1.409 . S
C709 C707 1.415 . S
C710 H700 0.930 . S
C710 C708 1.419 . S
C710 C711 1.362 . S
C711 H701 0.930 . S
C711 C704 1.409 . S
C711 C710 1.362 . S
H712 C718 0.930 . S
H713 C721 0.930 . S
H714 C722 0.930 . S
H715 C723 0.930 . S
H716 C726 0.930 . S
H717 C727 0.930 . S
C718 H712 0.930 . S
C718 C719 1.355 . S
C718 C720 1.415 . S
C719 C718 1.355 . S
C719 C721 1.419 . S
C720 C718 1.415 . S
C720 C725 1.425 . S
C720 C727 1.409 . S
C721 H713 0.930 . S
C721 C719 1.419 . S
C721 C722 1.362 . S
C722 H714 0.930 . S
C722 C721 1.362 . S
C722 C725 1.409 . S
C723 H715 0.930 . S
C723 C724 1.355 . S
C723 C725 1.415 . S
C724 C723 1.355 . S
C724 C726 1.419 . S
C725 C720 1.425 . S
C725 C722 1.409 . S
C725 C723 1.415 . S
C726 H716 0.930 . S
C726 C724 1.419 . S
C726 C727 1.362 . S
C727 H717 0.930 . S
C727 C720 1.409 . S
C727 C726 1.362 . S
H728 C734 0.930 . S
H729 C737 0.930 . S
H730 C738 0.930 . S
H731 C739 0.930 . S
H732 C742 0.930 1_455 S
H733 C743 0.930 . S
C734 H728 0.930 . S
C734 C735 1.355 . S
C734 C736 1.415 . S
C735 C734 1.355 . S
C735 C737 1.419 . S
C736 C734 1.415 . S
C736 C741 1.425 . S
C736 C743 1.409 . S
C737 H729 0.930 . S
C737 C735 1.419 . S
C737 C738 1.362 . S
C738 H730 0.930 . S
C738 C737 1.362 . S
C738 C741 1.409 . S
C739 H731 0.930 . S
C739 C740 1.355 . S
C739 C741 1.415 . S
C740 C739 1.355 . S
C740 C742 1.419 . S
C741 C736 1.425 . S
C741 C738 1.409 . S
C741 C739 1.415 . S
C742 H732 0.930 1_655 S
C742 C740 1.419 . S
C742 C743 1.362 . S
C743 H733 0.930 . S
C743 C736 1.409 . S
C743 C742 1.362 . S
H744 C750 0.930 . S
H745 C753 0.930 . S
H746 C754 0.930 . S
H747 C755 0.930 . S
H748 C758 0.930 . S
H749 C759 0.930 . S
C750 H744 0.930 . S
C750 C751 1.355 . S
C750 C752 1.415 . S
C751 C750 1.355 . S
C751 C753 1.419 . S
C752 C750 1.415 . S
C752 C757 1.425 . S
C752 C759 1.409 . S
C753 H745 0.930 . S
C753 C751 1.419 . S
C753 C754 1.362 . S
C754 H746 0.930 . S
C754 C753 1.362 . S
C754 C757 1.409 . S
C755 H747 0.930 . S
C755 C756 1.355 . S
C755 C757 1.415 . S
C756 C755 1.355 . S
C756 C758 1.419 . S
C757 C752 1.425 . S
C757 C754 1.409 . S
C757 C755 1.415 . S
C758 H748 0.930 . S
C758 C756 1.419 . S
C758 C759 1.362 . S
C759 H749 0.930 . S
C759 C752 1.409 . S
C759 C758 1.362 . S
H760 C766 0.930 . S
H761 C769 0.930 . S
H762 C770 0.930 . S
H763 C771 0.930 . S
H764 C774 0.930 . S
H765 C775 0.930 . S
C766 H760 0.930 . S
C766 C767 1.355 . S
C766 C768 1.415 . S
C767 C766 1.355 . S
C767 C769 1.419 . S
C768 C766 1.415 . S
C768 C773 1.425 . S
C768 C775 1.409 . S
C769 H761 0.930 . S
C769 C767 1.419 . S
C769 C770 1.362 . S
C770 H762 0.930 . S
C770 C769 1.362 . S
C770 C773 1.409 . S
C771 H763 0.930 . S
C771 C772 1.355 . S
C771 C773 1.415 . S
C772 C771 1.355 . S
C772 C774 1.419 . S
C773 C768 1.425 . S
C773 C770 1.409 . S
C773 C771 1.415 . S
C774 H764 0.930 . S
C774 C772 1.419 . S
C774 C775 1.362 . S
C775 H765 0.930 . S
C775 C768 1.409 . S
C775 C774 1.362 . S
H776 C782 0.930 . S
H777 C785 0.930 . S
H778 C786 0.930 . S
H779 C787 0.930 . S
H780 C790 0.930 . S
H781 C791 0.930 . S
C782 H776 0.930 . S
C782 C783 1.355 . S
C782 C784 1.415 . S
C783 C782 1.355 . S
C783 C785 1.419 . S
C784 C782 1.415 . S
C784 C789 1.425 . S
C784 C791 1.409 . S
C785 H777 0.930 . S
C785 C783 1.419 . S
C785 C786 1.362 . S
C786 H778 0.930 . S
C786 C785 1.362 . S
C786 C789 1.409 . S
C787 H779 0.930 . S
C787 C788 1.355 . S
C787 C789 1.415 . S
C788 C787 1.355 . S
C788 C790 1.419 . S
C789 C784 1.425 . S
C789 C786 1.409 . S
C789 C787 1.415 . S
C790 H780 0.930 . S
C790 C788 1.419 . S
C790 C791 1.362 . S
C791 H781 0.930 . S
C791 C784 1.409 . S
C791 C790 1.362 . S
C415 C58 1.465 . S
C420 C146 1.449 . S
C436 C230 1.450 . S
C431 C68 1.475 . S
C452 C223 1.459 . S
C447 C40 1.461 . S
C463 C50 1.456 . S
C468 C139 1.453 . S
C484 C303 1.433 . S
C479 C23 1.475 . S
C500 C387 1.458 . S
C495 C32 1.471 . S
C511 C5 1.460 . S
C516 C380 1.461 . S
C527 C14 1.455 . S
C532 C296 1.452 . S
C548 C130 1.299 . S
C543 C13 1.493 . S
C564 C214 1.387 . S
C559 C4 1.501 . S
C580 C225 1.362 . S
C575 C31 1.510 . S
C596 C141 1.401 . S
C591 C22 1.521 . S
C612 C309 1.360 . S
C607 C49 1.497 . S
C623 C41 1.492 . S
C628 C393 1.297 . S
C644 C382 1.362 . S
C639 C67 1.508 . S
C655 C59 1.519 . S
C660 C298 1.355 . S
C676 C128 1.512 . S
C671 C7 1.517 . S
C692 C212 1.525 . S
C687 C16 1.515 . S
C703 C25 1.521 . S
C708 C219 1.489 . S
C724 C135 1.474 . S
C719 C34 1.519 . S
C740 C307 1.516 . S
C735 C43 1.508 . S
C751 C52 1.503 . S
C756 C391 1.517 . S
C767 C61 1.516 . S
C772 C398 1.508 . S
C783 C70 1.525 . S
C788 C314 1.480 . S
