# Generated by pormake.
# Topology tsx, (6,3)-cn, num edge types: 1
# Building blocks:
#     Node 0, Type 0, BuildingBlock: FUNLAD_clean_sbu_0, # of connection points: 6
#     Node 1, Type 0, BuildingBlock: FUNLAD_clean_sbu_0, # of connection points: 6
#     Node 2, Type 1, BuildingBlock: BETDIP_clean_linker_0, # of connection points: 3
#     Node 3, Type 1, BuildingBlock: BETDIP_clean_linker_0, # of connection points: 3
#     Node 4, Type 1, BuildingBlock: BETDIP_clean_linker_0, # of connection points: 3
#     Node 5, Type 1, BuildingBlock: BETDIP_clean_linker_0, # of connection points: 3
#     Edge 6, Type (0, 1), BuildingBlock: FUNLAD_clean_linker_0, # of connection points: 2
#     Edge 7, Type (0, 1), BuildingBlock: FUNLAD_clean_linker_0, # of connection points: 2
#     Edge 8, Type (0, 1), BuildingBlock: FUNLAD_clean_linker_0, # of connection points: 2
#     Edge 9, Type (0, 1), BuildingBlock: FUNLAD_clean_linker_0, # of connection points: 2
#     Edge 10, Type (0, 1), BuildingBlock: FUNLAD_clean_linker_0, # of connection points: 2
#     Edge 11, Type (0, 1), BuildingBlock: FUNLAD_clean_linker_0, # of connection points: 2
#     Edge 12, Type (0, 1), BuildingBlock: FUNLAD_clean_linker_0, # of connection points: 2
#     Edge 13, Type (0, 1), BuildingBlock: FUNLAD_clean_linker_0, # of connection points: 2
#     Edge 14, Type (0, 1), BuildingBlock: FUNLAD_clean_linker_0, # of connection points: 2
#     Edge 15, Type (0, 1), BuildingBlock: FUNLAD_clean_linker_0, # of connection points: 2
#     Edge 16, Type (0, 1), BuildingBlock: FUNLAD_clean_linker_0, # of connection points: 2
#     Edge 17, Type (0, 1), BuildingBlock: FUNLAD_clean_linker_0, # of connection points: 2
# Relax obj value: 0.111
# Max RMSD: 0.115
# Mean RMSD: 0.111
data_MOF--net-tsx--node1-FUNLAD_clean_sbu_0--node2-BETDIP_clean_linker_0--edge1-FUNLAD_clean_linker_0
_symmetry_space_group_name_H-M    P1
_symmetry_Int_Tables_number       1
_symmetry_cell_setting            triclinic
loop_
_symmetry_equiv_pos_as_xyz
'x, y, z'
_cell_length_a     22.63882
_cell_length_b     25.131593
_cell_length_c     45.201564
_cell_angle_alpha  90.815848
_cell_angle_beta   101.99848
_cell_angle_gamma 90.032391
loop_
_atom_site_label
_atom_site_type_symbol
_atom_site_fract_x
_atom_site_fract_y
_atom_site_fract_z
_atom_type_partial_charge
C0 C 0.9385 0.95067 -0.0064 0.0
N1 N 0.04448 0.04224 0.06287 0.0
C2 C 0.99524 0.04369 0.07573 0.0
C3 C 0.00211 0.04889 0.10699 0.0
C4 C 0.06024 0.05258 0.12531 0.0
C5 C 0.11036 0.05091 0.11147 0.0
C6 C 0.10139 0.04579 0.08002 0.0
Zn7 Zn 0.03078 0.03493 0.01695 0.0
C8 C 0.1127 0.95788 -0.00332 0.0
N9 N -0.00262 0.0209 0.92086 0.0
C10 C 0.94105 0.01473 0.90339 0.0
C11 C 0.04691 0.02344 0.90829 0.0
C12 C 0.04098 0.02003 0.87704 0.0
C13 C 0.98351 0.01349 0.85835 0.0
C14 C 0.93304 0.01086 0.87191 0.0
Zn15 Zn 0.01059 0.02758 0.96681 0.0
O16 O 0.96664 0.97408 0.0175 0.0
C17 C 0.92909 0.10503 0.98698 0.0
O18 O 0.94876 0.96426 0.96813 0.0
H19 H 0.09129 0.02845 0.92255 0.0
H20 H 0.9504 0.04062 0.0617 0.0
H21 H 0.9023 0.01281 0.91387 0.0
O22 O 0.96126 0.09288 0.0125 0.0
O23 O 0.93947 0.08289 0.96314 0.0
H24 H 0.13988 0.0447 0.0693 0.0
O25 O 0.0722 0.09123 0.96614 0.0
O26 O 0.09491 0.09555 0.0157 0.0
O27 O 0.08228 0.97239 0.97121 0.0
O28 O 0.10012 0.97714 0.02077 0.0
C29 C 0.10268 0.11199 0.99033 0.0
H30 H 0.96227 0.04912 0.11674 0.0
H31 H 0.15594 0.05405 0.12476 0.0
H32 H 0.08108 0.02326 0.86764 0.0
H33 H 0.88796 0.00531 0.8584 0.0
C34 C 0.40123 0.41817 0.497 0.0
N35 N 0.52412 0.48648 0.56905 0.0
C36 C 0.47595 0.4963 0.58193 0.0
C37 C 0.48341 0.4996 0.61327 0.0
C38 C 0.54099 0.49266 0.63156 0.0
C39 C 0.58991 0.48221 0.6177 0.0
C40 C 0.58042 0.47938 0.5862 0.0
Zn41 Zn 0.5104 0.48347 0.52319 0.0
C42 C 0.57384 0.39315 0.50029 0.0
N43 N 0.47839 0.47794 0.42722 0.0
C44 C 0.42217 0.48404 0.40977 0.0
C45 C 0.52776 0.47268 0.41468 0.0
C46 C 0.52196 0.4749 0.38346 0.0
C47 C 0.46475 0.48222 0.36493 0.0
C48 C 0.41423 0.48601 0.37831 0.0
Zn49 Zn 0.49166 0.48007 0.4731 0.0
O50 O 0.43434 0.43497 0.52153 0.0
C51 C 0.42916 0.57104 0.49495 0.0
O52 O 0.41471 0.43018 0.47196 0.0
H53 H 0.57198 0.46754 0.42895 0.0
H54 H 0.43156 0.50161 0.56786 0.0
H55 H 0.38362 0.48833 0.42028 0.0
O56 O 0.45451 0.5528 0.52055 0.0
O57 O 0.43709 0.54761 0.47104 0.0
H58 H 0.61807 0.47178 0.57543 0.0
O59 O 0.56866 0.53051 0.47505 0.0
O60 O 0.58613 0.53214 0.52458 0.0
O61 O 0.54676 0.41269 0.47542 0.0
O62 O 0.56664 0.41444 0.525 0.0
C63 C 0.60057 0.54629 0.50018 0.0
H64 H 0.44434 0.5069 0.62308 0.0
H65 H 0.63511 0.47704 0.63103 0.0
H66 H 0.56187 0.47098 0.3739 0.0
H67 H 0.36941 0.49188 0.36469 0.0
H68 H 0.05874 0.98241 0.48102 0.0
H69 H 0.00741 0.05998 0.39529 0.0
H70 H 0.14374 0.93893 0.40755 0.0
H71 H 0.0088 0.1317 0.43011 0.0
C72 C 0.98022 0.11333 0.44371 0.0
C73 C 0.06322 0.98703 0.45782 0.0
C74 C 0.1054 0.95628 0.44643 0.0
C75 C 0.02945 0.02592 0.43983 0.0
C76 C 0.03542 0.03168 0.40968 0.0
C77 C 0.07606 2e-05 0.39773 0.0
C78 C 0.11134 0.96289 0.4164 0.0
N79 N 0.99027 0.05944 0.4524 0.0
H80 H 0.95937 0.95602 0.49591 0.0
H81 H 0.01304 0.042 0.58024 0.0
H82 H 0.93199 0.88699 0.5785 0.0
H83 H 0.98625 0.11403 0.54535 0.0
C84 C 0.01368 0.09961 0.52986 0.0
C85 C 0.963 0.95847 0.52019 0.0
C86 C 0.94344 0.91588 0.53545 0.0
C87 C 0.98734 0.00431 0.53616 0.0
C88 C 0.99231 0.00742 0.56768 0.0
C89 C 0.97304 0.96496 0.58325 0.0
C90 C 0.94863 0.91941 0.56688 0.0
N91 N 0.00972 0.04546 0.52034 0.0
H92 H 0.58748 0.52938 -0.00548 0.0
H93 H 0.53176 0.61226 0.91074 0.0
H94 H 0.61203 0.45746 0.91111 0.0
H95 H 0.56415 0.68472 0.94644 0.0
C96 C 0.53444 0.67188 0.96104 0.0
C97 C 0.58283 0.53089 0.97022 0.0
C98 C 0.60145 0.48762 0.95451 0.0
C99 C 0.55821 0.57617 0.95457 0.0
C100 C 0.55262 0.57814 0.92305 0.0
C101 C 0.57159 0.53534 0.90715 0.0
C102 C 0.59584 0.49024 0.92308 0.0
N103 N 0.53625 0.61819 0.97052 0.0
H104 H 0.49386 0.50387 0.01027 0.0
H105 H 0.53182 0.59067 0.09493 0.0
H106 H 0.44064 0.43979 0.08842 0.0
H107 H 0.51276 0.66157 0.05975 0.0
C108 C 0.54477 0.64733 0.04656 0.0
C109 C 0.49164 0.50721 0.03393 0.0
C110 C 0.46584 0.46598 0.04767 0.0
C111 C 0.51458 0.55276 0.05077 0.0
C112 C 0.51185 0.55668 0.08153 0.0
C113 C 0.4856 0.51596 0.09541 0.0
C114 C 0.46254 0.47092 0.07821 0.0
N115 N 0.54267 0.5932 0.03689 0.0
C116 C 0.19207 0.16697 0.01459 0.0
C117 C 0.14737 0.15426 0.98895 0.0
C118 C 0.23459 0.20668 0.01339 0.0
C119 C 0.23307 0.23484 0.98656 0.0
C120 C 0.18794 0.22269 0.96105 0.0
C121 C 0.14592 0.18225 0.96208 0.0
C122 C 0.2753 0.27968 0.98571 0.0
C123 C 0.33283 0.27874 0.00137 0.0
C124 C 0.37306 0.32621 0.00791 0.0
C125 C 0.42457 0.32225 0.03122 0.0
C126 C 0.45764 0.3675 0.04262 0.0
C127 C 0.44036 0.41769 0.03071 0.0
H128 H 0.32088 0.38082 0.97557 0.0
C129 C 0.39254 0.42138 0.00552 0.0
C130 C 0.35897 0.37598 -0.00583 0.0
H131 H 0.37862 0.45978 -0.00406 0.0
H132 H 0.19429 0.14619 0.03562 0.0
H133 H 0.26761 0.21623 0.03378 0.0
H134 H 0.18532 0.24441 0.94028 0.0
H135 H 0.11176 0.17349 0.94198 0.0
H136 H 0.25715 0.31442 0.97309 0.0
H137 H 0.34955 0.24209 0.01259 0.0
H138 H 0.43716 0.28451 0.04201 0.0
H139 H 0.4948 0.36372 0.06191 0.0
C140 C 0.1827 0.90614 0.97131 0.0
C141 C 0.16353 0.92045 -0.00204 0.0
C142 C 0.23198 0.87246 0.97229 0.0
C143 C 0.26331 0.85225 -1e-05 0.0
C144 C 0.24323 0.86526 0.02654 0.0
C145 C 0.19412 0.8995 0.02561 0.0
C146 C 0.31562 0.81614 0.00134 0.0
C147 C 0.35388 0.82089 0.98234 0.0
C148 C 0.40339 0.78301 0.98062 0.0
C149 C 0.44991 0.79947 0.96654 0.0
C150 C 0.4936 0.76351 0.96119 0.0
C151 C 0.49139 0.71023 0.96962 0.0
H152 H 0.36654 0.71522 0.00026 0.0
C153 C 0.446 0.69381 0.98449 0.0
C154 C 0.40235 0.72986 0.98998 0.0
H155 H 0.44291 0.65278 0.99104 0.0
H156 H 0.15995 0.92129 0.9496 0.0
H157 H 0.2449 0.8618 0.95123 0.0
H158 H 0.26614 0.84959 0.04808 0.0
H159 H 0.1802 0.90955 0.04652 0.0
H160 H 0.32335 0.78619 0.01878 0.0
H161 H 0.34883 0.85442 0.96709 0.0
H162 H 0.45169 0.84007 0.959 0.0
H163 H 0.52828 0.77706 0.94974 0.0
C164 C 0.87682 0.89986 0.0235 0.0
C165 C 0.89302 0.9093 -0.00435 0.0
C166 C 0.83253 0.86233 0.02562 0.0
C167 C 0.80326 0.8333 -0.0001 0.0
C168 C 0.82055 0.84154 0.97223 0.0
C169 C 0.86466 0.87955 0.97003 0.0
C170 C 0.7558 0.79338 0.00175 0.0
C171 C 0.71803 0.79949 0.02098 0.0
C172 C 0.67207 0.75956 0.02496 0.0
C173 C 0.62318 0.77651 0.03734 0.0
C174 C 0.58149 0.73985 0.04382 0.0
C175 C 0.588 0.68541 0.03822 0.0
H176 H 0.71611 0.69012 0.0102 0.0
C177 C 0.63657 0.66816 0.02565 0.0
C178 C 0.67822 0.70492 0.01899 0.0
H179 H 0.64303 0.62626 0.0214 0.0
H180 H 0.89804 0.92176 0.04374 0.0
H181 H 0.82186 0.85574 0.04754 0.0
H182 H 0.7992 0.81918 0.95219 0.0
H183 H 0.8764 0.88567 0.94829 0.0
H184 H 0.75062 0.75956 0.98621 0.0
H185 H 0.71987 0.83618 0.03417 0.0
H186 H 0.61755 0.81828 0.04233 0.0
H187 H 0.54434 0.75406 0.05349 0.0
C188 C 0.86879 0.16972 0.01134 0.0
C189 C 0.88035 0.1448 0.98507 0.0
C190 C 0.82348 0.20812 0.00939 0.0
C191 C 0.78898 0.22254 0.98103 0.0
C192 C 0.79974 0.19665 0.95493 0.0
C193 C 0.84496 0.15839 0.95687 0.0
C194 C 0.74169 0.26434 0.97734 0.0
C195 C 0.73857 0.30301 -0.00203 0.0
C196 C 0.69661 0.34872 0.99091 0.0
C197 C 0.71449 0.399 0.00367 0.0
C198 C 0.68097 0.44436 -0.00656 0.0
C199 C 0.62904 0.43988 0.97037 0.0
H200 H 0.62455 0.30555 0.96073 0.0
C201 C 0.60818 0.38916 0.95964 0.0
C202 C 0.64131 0.34392 0.96999 0.0
H203 H 0.56751 0.38476 0.94225 0.0
H204 H 0.89485 0.15969 0.03346 0.0
H205 H 0.81559 0.22592 0.03013 0.0
H206 H 0.77363 0.20664 0.9328 0.0
H207 H 0.85238 0.13974 0.9362 0.0
H208 H 0.7114 0.26589 0.95532 0.0
H209 H 0.77195 0.30493 0.019 0.0
H210 H 0.75639 0.40366 0.02019 0.0
H211 H 0.69778 0.48313 0.00209 0.0
C212 C 0.66567 0.60389 0.47489 0.0
C213 C 0.65332 0.58155 0.50132 0.0
C214 C 0.71401 0.6394 0.47656 0.0
C215 C 0.75086 0.6531 0.50475 0.0
C216 C 0.73961 0.62917 0.5309 0.0
C217 C 0.69132 0.59409 0.52927 0.0
C218 C 0.80059 0.69279 0.5084 0.0
C219 C 0.80384 0.7318 0.4886 0.0
C220 C 0.84671 0.77718 0.49648 0.0
C221 C 0.82953 0.82758 0.48466 0.0
C222 C 0.86348 0.8728 0.49583 0.0
C223 C 0.91511 0.86812 0.51897 0.0
H224 H 0.91813 0.73378 0.52606 0.0
C225 C 0.93524 0.81735 0.52886 0.0
C226 C 0.90178 0.7722 0.51749 0.0
H227 H 0.97569 0.81282 0.54628 0.0
H228 H 0.6375 0.59457 0.45298 0.0
H229 H 0.72219 0.65583 0.45578 0.0
H230 H 0.76747 0.63861 0.55289 0.0
H231 H 0.68349 0.57722 0.55005 0.0
H232 H 0.83207 0.69323 0.5301 0.0
H233 H 0.76944 0.73462 0.46802 0.0
H234 H 0.78783 0.83246 0.46814 0.0
H235 H 0.84724 0.91163 0.48781 0.0
C236 C 0.62321 0.32672 0.47198 0.0
C237 C 0.61664 0.34876 0.49986 0.0
C238 C 0.66826 0.28962 0.47062 0.0
C239 C 0.70808 0.27365 0.49712 0.0
C240 C 0.69932 0.29291 0.5252 0.0
C241 C 0.65417 0.33052 0.52658 0.0
C242 C 0.75988 0.2384 0.49539 0.0
C243 C 0.79126 0.24451 0.4734 0.0
C244 C 0.84255 0.21067 0.46911 0.0
C245 C 0.8832 0.23148 0.45266 0.0
C246 C 0.92864 0.1998 0.44524 0.0
C247 C 0.93403 0.14637 0.45378 0.0
H248 H 0.81774 0.13978 0.49076 0.0
C249 C 0.89436 0.12547 0.47083 0.0
C250 C 0.84897 0.15744 0.47854 0.0
H251 H 0.89749 0.08426 0.47767 0.0
H252 H 0.59458 0.3392 0.45096 0.0
H253 H 0.67252 0.27408 0.44869 0.0
H254 H 0.729 0.28059 0.54595 0.0
H255 H 0.64998 0.34651 0.54843 0.0
H256 H 0.77411 0.20961 0.51312 0.0
H257 H 0.77964 0.27728 0.45782 0.0
H258 H 0.8792 0.27227 0.44506 0.0
H259 H 0.95889 0.21688 0.43221 0.0
C260 C 0.31492 0.3586 0.4725 0.0
C261 C 0.34692 0.38621 0.49813 0.0
C262 C 0.26413 0.3279 0.47434 0.0
C263 C 0.24439 0.32472 0.50183 0.0
C264 C 0.27556 0.35347 0.52709 0.0
C265 C 0.32644 0.38347 0.52536 0.0
C266 C 0.19191 0.29195 0.50545 0.0
C267 C 0.17466 0.24698 0.48944 0.0
C268 C 0.12928 0.21015 0.49743 0.0
C269 C 0.13565 0.15526 0.49301 0.0
C270 C 0.09775 0.11912 0.50324 0.0
C271 C 0.05203 0.13735 0.51758 0.0
H272 H 0.07426 0.2705 0.51354 0.0
C273 C 0.04384 0.19222 0.52085 0.0
C274 C 0.08185 0.22839 0.51071 0.0
H275 H 0.00825 0.20713 0.53143 0.0
H276 H 0.32936 0.36035 0.45114 0.0
H277 H 0.24025 0.30725 0.45421 0.0
H278 H 0.26113 0.352 0.54847 0.0
H279 H 0.34961 0.40471 0.54547 0.0
H280 H 0.17104 0.30231 0.52432 0.0
H281 H 0.19928 0.23355 0.47252 0.0
H282 H 0.17152 0.14017 0.48268 0.0
H283 H 0.10528 0.07697 0.50055 0.0
C284 C 0.37487 0.64294 0.518 0.0
C285 C 0.39237 0.61998 0.49259 0.0
C286 C 0.34116 0.69007 0.51527 0.0
C287 C 0.325 0.71509 0.4871 0.0
C288 C 0.34264 0.69203 0.46188 0.0
C289 C 0.37543 0.64489 0.46449 0.0
C290 C 0.29234 0.76639 0.48294 0.0
C291 C 0.25326 0.78359 0.49972 0.0
C292 C 0.21771 0.83278 0.49145 0.0
C293 C 0.15632 0.83428 0.49287 0.0
C294 C 0.11982 0.87643 0.4799 0.0
C295 C 0.14457 0.91748 0.46548 0.0
H296 H 0.29095 0.87764 0.4793 0.0
C297 C 0.20695 0.91829 0.46659 0.0
C298 C 0.24326 0.87658 0.47962 0.0
H299 H 0.22726 0.95025 0.45625 0.0
H300 H 0.38743 0.62467 0.53997 0.0
H301 H 0.32922 0.7074 0.53528 0.0
H302 H 0.331 0.71062 0.43995 0.0
H303 H 0.38833 0.62847 0.44447 0.0
H304 H 0.29747 0.7893 0.46339 0.0
H305 H 0.2425 0.75877 0.51737 0.0
H306 H 0.13583 0.80133 0.50228 0.0
H307 H 0.07182 0.87525 0.47949 0.0
C308 C 0.11258 0.0272 0.17772 0.0
C309 C 0.0681 0.05699 0.15867 0.0
C310 C 0.11712 0.02857 0.20903 0.0
C311 C 0.07696 0.05961 0.22192 0.0
C312 C 0.03432 0.09111 0.20298 0.0
C313 C 0.02969 0.08965 0.17169 0.0
C314 C 0.07759 0.05968 0.25485 0.0
C315 C 0.09639 0.01776 0.27257 0.0
C316 C 0.09178 0.01497 0.30483 0.0
C317 C 0.09108 0.96468 0.31785 0.0
C318 C 0.08584 0.95987 0.34792 0.0
C319 C 0.08164 0.00538 0.36577 0.0
H320 H 0.09093 0.1002 0.31401 0.0
C321 C 0.08323 0.05583 0.35294 0.0
C322 C 0.08852 0.06066 0.32282 0.0
H323 H 0.08132 0.09163 0.36634 0.0
H324 H 0.1429 0.0017 0.16838 0.0
H325 H 0.15201 0.00515 0.22295 0.0
H326 H 0.00342 0.11596 0.21234 0.0
H327 H 0.99574 0.1139 0.15766 0.0
H328 H 0.057 0.09344 0.26397 0.0
H329 H 0.11166 0.98212 0.26259 0.0
H330 H 0.09377 0.92883 0.3046 0.0
H331 H 0.08423 0.92042 0.35707 0.0
C332 C 0.01971 0.98224 0.81225 0.0
C333 C 0.97677 0.00979 0.82496 0.0
C334 C 0.01536 0.98066 0.78101 0.0
C335 C 0.9672 0.00591 0.76154 0.0
C336 C 0.92412 0.03321 0.77424 0.0
C337 C 0.92871 0.03507 0.80557 0.0
C338 C 0.96161 0.00637 0.72814 0.0
C339 C 0.98947 0.97107 0.71297 0.0
C340 C 0.98477 0.97131 0.67966 0.0
C341 C 0.00021 0.92484 0.66548 0.0
C342 C 0.99694 0.92299 0.63432 0.0
C343 C 0.97831 0.96775 0.61654 0.0
H344 H 0.9569 0.05378 0.67203 0.0
C345 C 0.96398 0.0147 0.63074 0.0
C346 C 0.96734 0.0166 0.66198 0.0
H347 H 0.94936 0.04984 0.61764 0.0
H348 H 0.05704 0.9619 0.82648 0.0
H349 H 0.0507 0.96049 0.7725 0.0
H350 H 0.88689 0.05349 0.75987 0.0
H351 H 0.89535 0.05734 0.8146 0.0
H352 H 0.93167 0.03582 0.71571 0.0
H353 H 0.01505 0.93877 0.7251 0.0
H354 H 0.01463 0.8896 0.67854 0.0
H355 H 0.00942 0.8865 0.62417 0.0
C356 C 0.5203 0.53581 0.67859 0.0
C357 C 0.54957 0.49605 0.66491 0.0
C358 C 0.52616 0.5378 0.70992 0.0
C359 C 0.56179 0.50014 0.72827 0.0
C360 C 0.59123 0.46057 0.71459 0.0
C361 C 0.5855 0.45869 0.68323 0.0
C362 C 0.56641 0.49906 0.76145 0.0
C363 C 0.55775 0.54214 0.77807 0.0
C364 C 0.56037 0.53978 0.81104 0.0
C365 C 0.57762 0.58534 0.82906 0.0
C366 C 0.58089 0.58415 0.86025 0.0
C367 C 0.56625 0.53744 0.87394 0.0
H368 H 0.52843 0.45821 0.81127 0.0
C369 C 0.5473 0.49231 0.85573 0.0
C370 C 0.54427 0.49344 0.82462 0.0
H371 H 0.53424 0.45615 0.8655 0.0
H372 H 0.49257 0.56533 0.66503 0.0
H373 H 0.50135 0.56802 0.71947 0.0
H374 H 0.61844 0.43077 0.72819 0.0
H375 H 0.60797 0.42718 0.67329 0.0
H376 H 0.5792 0.46157 0.77264 0.0
H377 H 0.5511 0.5809 0.76761 0.0
H378 H 0.58959 0.62169 0.81907 0.0
H379 H 0.59598 0.61949 0.87371 0.0
C380 C 0.49845 0.51921 0.32019 0.0
C381 C 0.45851 0.48672 0.33185 0.0
C382 C 0.49498 0.52167 0.28908 0.0
C383 C 0.45139 0.4916 0.26898 0.0
C384 C 0.41112 0.45948 0.28064 0.0
C385 C 0.41424 0.45742 0.3118 0.0
C386 C 0.45004 0.48982 0.23609 0.0
C387 C 0.46923 0.53032 0.22129 0.0
C388 C 0.47296 0.52603 0.18905 0.0
C389 C 0.46489 0.57162 0.17113 0.0
C390 C 0.46905 0.56856 0.14073 0.0
C391 C 0.48241 0.51991 0.12785 0.0
H392 H 0.49609 0.44212 0.18984 0.0
C393 C 0.49208 0.47463 0.14612 0.0
C394 C 0.48729 0.47759 0.17634 0.0
H395 H 0.5041 0.43688 0.13717 0.0
H396 H 0.53281 0.54243 0.33518 0.0
H397 H 0.52784 0.54575 0.28102 0.0
H398 H 0.37756 0.43553 0.26561 0.0
H399 H 0.38325 0.43172 0.32027 0.0
H400 H 0.43206 0.45403 0.22364 0.0
H401 H 0.48131 0.56821 0.23284 0.0
H402 H 0.4545 0.60951 0.18056 0.0
H403 H 0.46089 0.6041 0.12724 0.0
loop_
_geom_bond_atom_site_label_1
_geom_bond_atom_site_label_2
_geom_bond_distance
_geom_bond_site_symmetry_2
_ccdc_geom_bond_type
C0 O16 1.251 1_556 S
C0 O18 1.254 . S
N1 C2 1.336 1_455 S
N1 C6 1.307 . S
N1 Zn7 2.020 . S
C2 N1 1.336 1_655 S
C2 C3 1.379 1_545 S
C2 H20 0.948 1_545 S
C3 C2 1.379 1_565 S
C3 C4 1.385 1_665 S
C3 H30 0.955 . S
C4 C3 1.385 1_445 S
C4 C5 1.357 . S
C5 C4 1.357 . S
C5 C6 1.370 . S
C5 H31 0.950 . S
C6 N1 1.307 . S
C6 C5 1.370 . S
C6 H24 0.948 . S
Zn7 N1 2.020 . S
Zn7 O16 2.039 1_445 S
Zn7 O22 2.034 1_455 S
Zn7 O26 2.025 . S
Zn7 O28 2.024 1_545 S
C8 O27 1.246 1_554 S
C8 O28 1.249 . S
N9 C10 1.307 1_455 S
N9 C11 1.333 . S
N9 Zn15 2.020 . S
C10 N9 1.307 1_655 S
C10 C14 1.370 . S
C10 H21 0.948 1_545 S
C11 N9 1.333 . S
C11 C12 1.379 . S
C11 H19 0.952 . S
C12 C11 1.379 . S
C12 C13 1.390 1_455 S
C12 H32 0.949 . S
C13 C12 1.390 1_655 S
C13 C14 1.357 . S
C14 C10 1.370 . S
C14 C13 1.357 . S
C14 H33 0.950 1_545 S
Zn15 N9 2.020 . S
Zn15 O18 2.025 1_445 S
Zn15 O23 2.024 1_455 S
Zn15 O25 2.039 . S
Zn15 O27 2.034 1_545 S
O16 C0 1.251 1_554 S
O16 Zn7 2.039 1_665 S
C17 O22 1.246 1_556 S
C17 O23 1.249 . S
O18 C0 1.254 . S
O18 Zn15 2.025 1_665 S
H19 C11 0.952 . S
H20 C2 0.948 1_565 S
H21 C10 0.948 1_565 S
O22 Zn7 2.034 1_655 S
O22 C17 1.246 1_554 S
O23 Zn15 2.024 1_655 S
O23 C17 1.249 . S
H24 C6 0.948 . S
O25 Zn15 2.039 . S
O25 C29 1.251 1_556 S
O26 Zn7 2.025 . S
O26 C29 1.254 . S
O27 C8 1.246 1_556 S
O27 Zn15 2.034 1_565 S
O28 Zn7 2.024 1_565 S
O28 C8 1.249 . S
C29 O25 1.251 1_554 S
C29 O26 1.254 . S
H30 C3 0.955 . S
H31 C5 0.950 . S
H32 C12 0.949 . S
H33 C14 0.950 1_565 S
C34 O50 1.251 . S
C34 O52 1.254 . S
N35 C36 1.333 . S
N35 C40 1.307 . S
N35 Zn41 2.020 . S
C36 N35 1.333 . S
C36 C37 1.379 . S
C36 H54 0.952 . S
C37 C36 1.379 . S
C37 C38 1.390 . S
C37 H64 0.949 . S
C38 C37 1.390 . S
C38 C39 1.357 . S
C39 C38 1.357 . S
C39 C40 1.370 . S
C39 H65 0.950 . S
C40 N35 1.307 . S
C40 C39 1.370 . S
C40 H58 0.948 . S
Zn41 N35 2.020 . S
Zn41 O50 2.039 . S
Zn41 O56 2.034 . S
Zn41 O60 2.025 . S
Zn41 O62 2.024 . S
C42 O61 1.246 . S
C42 O62 1.249 . S
N43 C44 1.307 . S
N43 C45 1.333 . S
N43 Zn49 2.020 . S
C44 N43 1.307 . S
C44 C48 1.370 . S
C44 H55 0.948 . S
C45 N43 1.333 . S
C45 C46 1.379 . S
C45 H53 0.952 . S
C46 C45 1.379 . S
C46 C47 1.390 . S
C46 H66 0.949 . S
C47 C46 1.390 . S
C47 C48 1.357 . S
C48 C44 1.370 . S
C48 C47 1.357 . S
C48 H67 0.950 . S
Zn49 N43 2.020 . S
Zn49 O52 2.025 . S
Zn49 O57 2.024 . S
Zn49 O59 2.039 . S
Zn49 O61 2.034 . S
O50 C34 1.251 . S
O50 Zn41 2.039 . S
C51 O56 1.246 . S
C51 O57 1.249 . S
O52 C34 1.254 . S
O52 Zn49 2.025 . S
H53 C45 0.952 . S
H54 C36 0.952 . S
H55 C44 0.948 . S
O56 Zn41 2.034 . S
O56 C51 1.246 . S
O57 Zn49 2.024 . S
O57 C51 1.249 . S
H58 C40 0.948 . S
O59 Zn49 2.039 . S
O59 C63 1.251 . S
O60 Zn41 2.025 . S
O60 C63 1.254 . S
O61 C42 1.246 . S
O61 Zn49 2.034 . S
O62 Zn41 2.024 . S
O62 C42 1.249 . S
C63 O59 1.251 . S
C63 O60 1.254 . S
H64 C37 0.949 . S
H65 C39 0.950 . S
H66 C46 0.949 . S
H67 C48 0.950 . S
H68 C73 0.930 . S
H69 C76 0.930 1_655 S
H70 C78 0.930 . S
H71 C72 1.016 . S
C72 H71 1.016 . S
C72 N79 1.286 . S
C73 H68 0.930 . S
C73 C74 1.397 . S
C73 C75 1.361 1_565 S
C74 C73 1.397 . S
C74 C78 1.390 . S
C75 C73 1.361 1_545 S
C75 C76 1.393 . S
C75 N79 1.413 1_455 S
C76 H69 0.930 1_455 S
C76 C75 1.393 . S
C76 C77 1.399 . S
C77 C76 1.399 . S
C77 C78 1.381 1_545 S
C78 H70 0.930 . S
C78 C74 1.390 . S
C78 C77 1.381 1_565 S
N79 C72 1.286 . S
N79 C75 1.413 1_655 S
H80 C85 0.930 . S
H81 C88 0.930 . S
H82 C90 0.930 . S
H83 C84 1.016 . S
C84 H83 1.016 . S
C84 N91 1.286 . S
C85 H80 0.930 . S
C85 C86 1.397 . S
C85 C87 1.361 1_665 S
C86 C85 1.397 . S
C86 C90 1.390 . S
C87 C85 1.361 1_445 S
C87 C88 1.393 . S
C87 N91 1.413 . S
C88 H81 0.930 . S
C88 C87 1.393 . S
C88 C89 1.399 1_455 S
C89 C88 1.399 1_655 S
C89 C90 1.381 1_545 S
C90 H82 0.930 . S
C90 C86 1.390 . S
C90 C89 1.381 1_565 S
N91 C84 1.286 . S
N91 C87 1.413 . S
H92 C97 0.930 1_554 S
H93 C100 0.930 . S
H94 C102 0.930 . S
H95 C96 1.016 . S
C96 H95 1.016 . S
C96 N103 1.286 . S
C97 H92 0.930 1_556 S
C97 C98 1.397 . S
C97 C99 1.361 . S
C98 C97 1.397 . S
C98 C102 1.390 . S
C99 C97 1.361 . S
C99 C100 1.393 . S
C99 N103 1.413 . S
C100 H93 0.930 . S
C100 C99 1.393 . S
C100 C101 1.399 . S
C101 C100 1.399 . S
C101 C102 1.381 . S
C102 H94 0.930 . S
C102 C98 1.390 . S
C102 C101 1.381 . S
N103 C96 1.286 . S
N103 C99 1.413 . S
H104 C109 0.961 . S
H105 C112 0.930 . S
H106 C114 0.930 . S
H107 C108 1.016 . S
C108 H107 1.016 . S
C108 N115 1.286 . S
C109 H104 0.961 . S
C109 C110 1.397 . S
C109 C111 1.361 . S
C110 C109 1.397 . S
C110 C114 1.390 . S
C111 C109 1.361 . S
C111 C112 1.393 . S
C111 N115 1.413 . S
C112 H105 0.930 . S
C112 C111 1.393 . S
C112 C113 1.399 . S
C113 C112 1.399 . S
C113 C114 1.381 . S
C114 H106 0.930 . S
C114 C110 1.390 . S
C114 C113 1.381 . S
N115 C108 1.286 . S
N115 C111 1.413 . S
C116 C117 1.386 . S
C116 C118 1.383 . S
C116 H132 0.951 . S
C117 C116 1.386 . S
C117 C121 1.383 1_554 S
C118 C116 1.383 . S
C118 C119 1.402 . S
C118 H133 0.951 . S
C119 C118 1.402 . S
C119 C120 1.375 1_554 S
C119 C122 1.481 . S
C120 C119 1.375 1_556 S
C120 C121 1.367 . S
C120 H134 0.951 . S
C121 C117 1.383 1_556 S
C121 C120 1.367 . S
C121 H135 0.950 . S
C122 C119 1.481 . S
C122 C123 1.297 . S
C122 H136 0.950 1_554 S
C123 C122 1.297 . S
C123 C124 1.479 . S
C123 H137 0.950 . S
C124 C123 1.479 . S
C124 C125 1.375 . S
C124 C130 1.404 1_554 S
C125 C124 1.375 . S
C125 C126 1.369 . S
C125 H138 0.950 . S
C126 C125 1.369 . S
C126 C127 1.392 . S
C126 H139 0.951 . S
C127 C126 1.392 . S
C127 C129 1.384 1_554 S
H128 C130 0.949 . S
C129 C127 1.384 1_556 S
C129 C130 1.385 . S
C129 H131 0.950 . S
C130 C124 1.404 1_556 S
C130 H128 0.949 . S
C130 C129 1.385 . S
H131 C129 0.950 . S
H132 C116 0.951 . S
H133 C118 0.951 . S
H134 C120 0.951 . S
H135 C121 0.950 . S
H136 C122 0.950 1_556 S
H137 C123 0.950 . S
H138 C125 0.950 . S
H139 C126 0.951 . S
C140 C141 1.386 1_556 S
C140 C142 1.383 . S
C140 H156 0.951 . S
C141 C140 1.386 1_554 S
C141 C145 1.383 . S
C142 C140 1.383 . S
C142 C143 1.402 1_556 S
C142 H157 0.951 . S
C143 C142 1.402 1_554 S
C143 C144 1.375 . S
C143 C146 1.481 . S
C144 C143 1.375 . S
C144 C145 1.367 . S
C144 H158 0.951 . S
C145 C141 1.383 . S
C145 C144 1.367 . S
C145 H159 0.950 . S
C146 C143 1.481 . S
C146 C147 1.297 1_554 S
C146 H160 0.950 . S
C147 C146 1.297 1_556 S
C147 C148 1.479 . S
C147 H161 0.950 . S
C148 C147 1.479 . S
C148 C149 1.375 . S
C148 C154 1.404 1_556 S
C149 C148 1.375 . S
C149 C150 1.369 . S
C149 H162 0.950 . S
C150 C149 1.369 . S
C150 C151 1.392 . S
C150 H163 0.951 . S
C151 C150 1.392 . S
C151 C153 1.384 1_556 S
H152 C154 0.949 . S
C153 C151 1.384 1_554 S
C153 C154 1.385 . S
C153 H155 0.950 . S
C154 C148 1.404 1_554 S
C154 H152 0.949 . S
C154 C153 1.385 . S
H155 C153 0.950 . S
H156 C140 0.951 . S
H157 C142 0.951 . S
H158 C144 0.951 . S
H159 C145 0.950 . S
H160 C146 0.950 . S
H161 C147 0.950 . S
H162 C149 0.950 . S
H163 C150 0.951 . S
C164 C165 1.386 1_554 S
C164 C166 1.383 . S
C164 H180 0.951 . S
C165 C164 1.386 1_556 S
C165 C169 1.383 . S
C166 C164 1.383 . S
C166 C167 1.402 1_554 S
C166 H181 0.951 . S
C167 C166 1.402 1_556 S
C167 C168 1.375 . S
C167 C170 1.481 . S
C168 C167 1.375 . S
C168 C169 1.367 . S
C168 H182 0.951 . S
C169 C165 1.383 . S
C169 C168 1.367 . S
C169 H183 0.950 . S
C170 C167 1.481 . S
C170 C171 1.281 1_556 S
C170 H184 0.950 . S
C171 C170 1.281 1_554 S
C171 C172 1.485 . S
C171 H185 0.963 . S
C172 C171 1.485 . S
C172 C173 1.375 . S
C172 C178 1.404 1_554 S
C173 C172 1.375 . S
C173 C174 1.369 . S
C173 H186 0.950 . S
C174 C173 1.369 . S
C174 C175 1.392 . S
C174 H187 0.951 . S
C175 C174 1.392 . S
C175 C177 1.384 1_554 S
H176 C178 0.949 . S
C177 C175 1.384 1_556 S
C177 C178 1.385 . S
C177 H179 0.950 . S
C178 C172 1.404 1_556 S
C178 H176 0.949 . S
C178 C177 1.385 . S
H179 C177 0.950 . S
H180 C164 0.951 . S
H181 C166 0.951 . S
H182 C168 0.951 . S
H183 C169 0.950 . S
H184 C170 0.950 . S
H185 C171 0.963 . S
H186 C173 0.950 . S
H187 C174 0.951 . S
C188 C189 1.386 1_554 S
C188 C190 1.383 . S
C188 H204 0.951 . S
C189 C188 1.386 1_556 S
C189 C193 1.383 . S
C190 C188 1.383 . S
C190 C191 1.402 1_554 S
C190 H205 0.951 . S
C191 C190 1.402 1_556 S
C191 C192 1.375 . S
C191 C194 1.481 . S
C192 C191 1.375 . S
C192 C193 1.367 . S
C192 H206 0.951 . S
C193 C189 1.383 . S
C193 C192 1.367 . S
C193 H207 0.950 . S
C194 C191 1.481 . S
C194 C195 1.297 . S
C194 H208 0.950 . S
C195 C194 1.297 . S
C195 C196 1.479 . S
C195 H209 0.950 1_556 S
C196 C195 1.479 . S
C196 C197 1.375 1_556 S
C196 C202 1.404 . S
C197 C196 1.375 1_554 S
C197 C198 1.369 . S
C197 H210 0.950 . S
C198 C197 1.369 . S
C198 C199 1.392 1_554 S
C198 H211 0.951 . S
C199 C198 1.392 1_556 S
C199 C201 1.384 . S
H200 C202 0.949 . S
C201 C199 1.384 . S
C201 C202 1.385 . S
C201 H203 0.950 . S
C202 C196 1.404 . S
C202 H200 0.949 . S
C202 C201 1.385 . S
H203 C201 0.950 . S
H204 C188 0.951 . S
H205 C190 0.951 . S
H206 C192 0.951 . S
H207 C193 0.950 . S
H208 C194 0.950 . S
H209 C195 0.950 1_554 S
H210 C197 0.950 . S
H211 C198 0.951 . S
C212 C213 1.386 . S
C212 C214 1.383 . S
C212 H228 0.951 . S
C213 C212 1.386 . S
C213 C217 1.383 . S
C214 C212 1.383 . S
C214 C215 1.402 . S
C214 H229 0.951 . S
C215 C214 1.402 . S
C215 C216 1.375 . S
C215 C218 1.481 . S
C216 C215 1.375 . S
C216 C217 1.367 . S
C216 H230 0.951 . S
C217 C213 1.383 . S
C217 C216 1.367 . S
C217 H231 0.950 . S
C218 C215 1.481 . S
C218 C219 1.297 . S
C218 H232 0.950 . S
C219 C218 1.297 . S
C219 C220 1.479 . S
C219 H233 0.950 . S
C220 C219 1.479 . S
C220 C221 1.375 . S
C220 C226 1.404 . S
C221 C220 1.375 . S
C221 C222 1.369 . S
C221 H234 0.950 . S
C222 C221 1.369 . S
C222 C223 1.392 . S
C222 H235 0.951 . S
C223 C222 1.392 . S
C223 C225 1.384 . S
H224 C226 0.949 . S
C225 C223 1.384 . S
C225 C226 1.385 . S
C225 H227 0.950 . S
C226 C220 1.404 . S
C226 H224 0.949 . S
C226 C225 1.385 . S
H227 C225 0.950 . S
H228 C212 0.951 . S
H229 C214 0.951 . S
H230 C216 0.951 . S
H231 C217 0.950 . S
H232 C218 0.950 . S
H233 C219 0.950 . S
H234 C221 0.950 . S
H235 C222 0.951 . S
C236 C237 1.386 . S
C236 C238 1.383 . S
C236 H252 0.951 . S
C237 C236 1.386 . S
C237 C241 1.383 . S
C238 C236 1.383 . S
C238 C239 1.402 . S
C238 H253 0.951 . S
C239 C238 1.402 . S
C239 C240 1.375 . S
C239 C242 1.481 . S
C240 C239 1.375 . S
C240 C241 1.367 . S
C240 H254 0.951 . S
C241 C237 1.383 . S
C241 C240 1.367 . S
C241 H255 0.950 . S
C242 C239 1.481 . S
C242 C243 1.297 . S
C242 H256 0.950 . S
C243 C242 1.297 . S
C243 C244 1.479 . S
C243 H257 0.950 . S
C244 C243 1.479 . S
C244 C245 1.375 . S
C244 C250 1.404 . S
C245 C244 1.375 . S
C245 C246 1.369 . S
C245 H258 0.950 . S
C246 C245 1.369 . S
C246 C247 1.392 . S
C246 H259 0.951 . S
C247 C246 1.392 . S
C247 C249 1.384 . S
H248 C250 0.949 . S
C249 C247 1.384 . S
C249 C250 1.385 . S
C249 H251 0.950 . S
C250 C244 1.404 . S
C250 H248 0.949 . S
C250 C249 1.385 . S
H251 C249 0.950 . S
H252 C236 0.951 . S
H253 C238 0.951 . S
H254 C240 0.951 . S
H255 C241 0.950 . S
H256 C242 0.950 . S
H257 C243 0.950 . S
H258 C245 0.950 . S
H259 C246 0.951 . S
C260 C261 1.386 . S
C260 C262 1.383 . S
C260 H276 0.951 . S
C261 C260 1.386 . S
C261 C265 1.383 . S
C262 C260 1.383 . S
C262 C263 1.402 . S
C262 H277 0.951 . S
C263 C262 1.402 . S
C263 C264 1.375 . S
C263 C266 1.481 . S
C264 C263 1.375 . S
C264 C265 1.367 . S
C264 H278 0.951 . S
C265 C261 1.383 . S
C265 C264 1.367 . S
C265 H279 0.950 . S
C266 C263 1.481 . S
C266 C267 1.297 . S
C266 H280 0.950 . S
C267 C266 1.297 . S
C267 C268 1.479 . S
C267 H281 0.950 . S
C268 C267 1.479 . S
C268 C269 1.375 . S
C268 C274 1.404 . S
C269 C268 1.375 . S
C269 C270 1.369 . S
C269 H282 0.950 . S
C270 C269 1.369 . S
C270 C271 1.392 . S
C270 H283 0.951 . S
C271 C270 1.392 . S
C271 C273 1.384 . S
H272 C274 0.949 . S
C273 C271 1.384 . S
C273 C274 1.385 . S
C273 H275 0.950 . S
C274 C268 1.404 . S
C274 H272 0.949 . S
C274 C273 1.385 . S
H275 C273 0.950 . S
H276 C260 0.951 . S
H277 C262 0.951 . S
H278 C264 0.951 . S
H279 C265 0.950 . S
H280 C266 0.950 . S
H281 C267 0.950 . S
H282 C269 0.950 . S
H283 C270 0.951 . S
C284 C285 1.386 . S
C284 C286 1.383 . S
C284 H300 0.951 . S
C285 C284 1.386 . S
C285 C289 1.383 . S
C286 C284 1.383 . S
C286 C287 1.402 . S
C286 H301 0.951 . S
C287 C286 1.402 . S
C287 C288 1.375 . S
C287 C290 1.481 . S
C288 C287 1.375 . S
C288 C289 1.367 . S
C288 H302 0.951 . S
C289 C285 1.383 . S
C289 C288 1.367 . S
C289 H303 0.950 . S
C290 C287 1.481 . S
C290 C291 1.297 . S
C290 H304 0.950 . S
C291 C290 1.297 . S
C291 C292 1.479 . S
C291 H305 0.950 . S
C292 C291 1.479 . S
C292 C293 1.375 . S
C292 C298 1.404 . S
C293 C292 1.375 . S
C293 C294 1.369 . S
C293 H306 0.950 . S
C294 C293 1.369 . S
C294 C295 1.392 . S
C294 H307 0.951 . S
C295 C294 1.392 . S
C295 C297 1.384 . S
H296 C298 0.949 . S
C297 C295 1.384 . S
C297 C298 1.385 . S
C297 H299 0.950 . S
C298 C292 1.404 . S
C298 H296 0.949 . S
C298 C297 1.385 . S
H299 C297 0.950 . S
H300 C284 0.951 . S
H301 C286 0.951 . S
H302 C288 0.951 . S
H303 C289 0.950 . S
H304 C290 0.950 . S
H305 C291 0.950 . S
H306 C293 0.950 . S
H307 C294 0.951 . S
C308 C309 1.386 1_565 S
C308 C310 1.383 . S
C308 H324 0.951 . S
C309 C308 1.386 1_545 S
C309 C313 1.383 . S
C310 C308 1.383 . S
C310 C311 1.402 1_565 S
C310 H325 0.951 . S
C311 C310 1.402 1_545 S
C311 C312 1.375 . S
C311 C314 1.481 . S
C312 C311 1.375 . S
C312 C313 1.367 . S
C312 H326 0.951 . S
C313 C309 1.383 . S
C313 C312 1.367 . S
C313 H327 0.950 . S
C314 C311 1.481 . S
C314 C315 1.297 . S
C314 H328 0.950 . S
C315 C314 1.297 . S
C315 C316 1.479 . S
C315 H329 0.950 1_545 S
C316 C315 1.479 . S
C316 C317 1.375 1_545 S
C316 C322 1.404 . S
C317 C316 1.375 1_565 S
C317 C318 1.369 . S
C317 H330 0.950 . S
C318 C317 1.369 . S
C318 C319 1.392 1_565 S
C318 H331 0.951 . S
C319 C318 1.392 1_545 S
C319 C321 1.384 . S
H320 C322 0.949 . S
C321 C319 1.384 . S
C321 C322 1.385 . S
C321 H323 0.950 . S
C322 C316 1.404 . S
C322 H320 0.949 . S
C322 C321 1.385 . S
H323 C321 0.950 . S
H324 C308 0.951 . S
H325 C310 0.951 . S
H326 C312 0.951 . S
H327 C313 0.950 . S
H328 C314 0.950 . S
H329 C315 0.950 1_565 S
H330 C317 0.950 . S
H331 C318 0.951 . S
C332 C333 1.386 1_565 S
C332 C334 1.383 . S
C332 H348 0.951 . S
C333 C332 1.386 1_545 S
C333 C337 1.383 . S
C334 C332 1.383 . S
C334 C335 1.402 1_565 S
C334 H349 0.951 . S
C335 C334 1.402 1_545 S
C335 C336 1.375 . S
C335 C338 1.481 . S
C336 C335 1.375 . S
C336 C337 1.367 . S
C336 H350 0.951 . S
C337 C333 1.383 . S
C337 C336 1.367 . S
C337 H351 0.950 . S
C338 C335 1.481 . S
C338 C339 1.297 . S
C338 H352 0.950 . S
C339 C338 1.297 . S
C339 C340 1.479 . S
C339 H353 0.950 1_545 S
C340 C339 1.479 . S
C340 C341 1.375 1_545 S
C340 C346 1.404 . S
C341 C340 1.375 1_565 S
C341 C342 1.369 . S
C341 H354 0.950 . S
C342 C341 1.369 . S
C342 C343 1.392 1_565 S
C342 H355 0.951 . S
C343 C342 1.392 1_545 S
C343 C345 1.384 . S
H344 C346 0.949 . S
C345 C343 1.384 . S
C345 C346 1.385 . S
C345 H347 0.950 . S
C346 C340 1.404 . S
C346 H344 0.949 . S
C346 C345 1.385 . S
H347 C345 0.950 . S
H348 C332 0.951 . S
H349 C334 0.951 . S
H350 C336 0.951 . S
H351 C337 0.950 . S
H352 C338 0.950 . S
H353 C339 0.950 1_565 S
H354 C341 0.950 . S
H355 C342 0.951 . S
C356 C357 1.386 . S
C356 C358 1.383 . S
C356 H372 0.951 . S
C357 C356 1.386 . S
C357 C361 1.383 . S
C358 C356 1.383 . S
C358 C359 1.402 . S
C358 H373 0.951 . S
C359 C358 1.402 . S
C359 C360 1.375 . S
C359 C362 1.481 . S
C360 C359 1.375 . S
C360 C361 1.367 . S
C360 H374 0.951 . S
C361 C357 1.383 . S
C361 C360 1.367 . S
C361 H375 0.950 . S
C362 C359 1.481 . S
C362 C363 1.297 . S
C362 H376 0.950 . S
C363 C362 1.297 . S
C363 C364 1.479 . S
C363 H377 0.950 . S
C364 C363 1.479 . S
C364 C365 1.375 . S
C364 C370 1.404 . S
C365 C364 1.375 . S
C365 C366 1.369 . S
C365 H378 0.950 . S
C366 C365 1.369 . S
C366 C367 1.392 . S
C366 H379 0.951 . S
C367 C366 1.392 . S
C367 C369 1.384 . S
H368 C370 0.949 . S
C369 C367 1.384 . S
C369 C370 1.385 . S
C369 H371 0.950 . S
C370 C364 1.404 . S
C370 H368 0.949 . S
C370 C369 1.385 . S
H371 C369 0.950 . S
H372 C356 0.951 . S
H373 C358 0.951 . S
H374 C360 0.951 . S
H375 C361 0.950 . S
H376 C362 0.950 . S
H377 C363 0.950 . S
H378 C365 0.950 . S
H379 C366 0.951 . S
C380 C381 1.386 . S
C380 C382 1.383 . S
C380 H396 0.951 . S
C381 C380 1.386 . S
C381 C385 1.383 . S
C382 C380 1.383 . S
C382 C383 1.402 . S
C382 H397 0.951 . S
C383 C382 1.402 . S
C383 C384 1.375 . S
C383 C386 1.481 . S
C384 C383 1.375 . S
C384 C385 1.367 . S
C384 H398 0.951 . S
C385 C381 1.383 . S
C385 C384 1.367 . S
C385 H399 0.950 . S
C386 C383 1.481 . S
C386 C387 1.297 . S
C386 H400 0.950 . S
C387 C386 1.297 . S
C387 C388 1.479 . S
C387 H401 0.950 . S
C388 C387 1.479 . S
C388 C389 1.375 . S
C388 C394 1.404 . S
C389 C388 1.375 . S
C389 C390 1.369 . S
C389 H402 0.950 . S
C390 C389 1.369 . S
C390 C391 1.392 . S
C390 H403 0.951 . S
C391 C390 1.392 . S
C391 C393 1.384 . S
H392 C394 0.949 . S
C393 C391 1.384 . S
C393 C394 1.385 . S
C393 H395 0.950 . S
C394 C388 1.404 . S
C394 H392 0.949 . S
C394 C393 1.385 . S
H395 C393 0.950 . S
H396 C380 0.951 . S
H397 C382 0.951 . S
H398 C384 0.951 . S
H399 C385 0.950 . S
H400 C386 0.950 . S
H401 C387 0.950 . S
H402 C389 0.950 . S
H403 C390 0.951 . S
C127 C110 1.424 . S
C117 C29 1.478 . S
C141 C8 1.370 . S
C151 C96 1.315 . S
C165 C0 1.383 . S
C175 C108 1.355 . S
C189 C17 1.472 . S
C199 C98 1.435 . S
C213 C63 1.472 . S
C223 C86 1.403 . S
C237 C42 1.379 . S
C247 C72 1.367 . S
C271 C84 1.280 . S
C261 C34 1.369 . S
C295 C74 1.474 . S
C285 C51 1.479 . S
C309 C4 1.511 . S
C319 C77 1.502 . S
C333 C13 1.512 . S
C343 C89 1.486 . S
C367 C101 1.507 . S
C357 C38 1.520 . S
C381 C47 1.505 . S
C391 C113 1.501 . S
