# Generated by pormake.
# Topology pth, (4,4)-cn, num edge types: 1
# Building blocks:
#     Node 0, Type 0, BuildingBlock: QUQFOY_clean_sbu_3, # of connection points: 4
#     Node 1, Type 0, BuildingBlock: QUQFOY_clean_sbu_3, # of connection points: 4
#     Node 2, Type 0, BuildingBlock: QUQFOY_clean_sbu_3, # of connection points: 4
#     Node 3, Type 1, BuildingBlock: MUDLON_clean_linker_0, # of connection points: 4
#     Node 4, Type 1, BuildingBlock: MUDLON_clean_linker_0, # of connection points: 4
#     Node 5, Type 1, BuildingBlock: MUDLON_clean_linker_0, # of connection points: 4
#     Edge 6, Type (0, 1), BuildingBlock: KIFKEQ_clean_linker_1, # of connection points: 2
#     Edge 7, Type (0, 1), BuildingBlock: KIFKEQ_clean_linker_1, # of connection points: 2
#     Edge 8, Type (0, 1), BuildingBlock: KIFKEQ_clean_linker_1, # of connection points: 2
#     Edge 9, Type (0, 1), BuildingBlock: KIFKEQ_clean_linker_1, # of connection points: 2
#     Edge 10, Type (0, 1), BuildingBlock: KIFKEQ_clean_linker_1, # of connection points: 2
#     Edge 11, Type (0, 1), BuildingBlock: KIFKEQ_clean_linker_1, # of connection points: 2
#     Edge 12, Type (0, 1), BuildingBlock: KIFKEQ_clean_linker_1, # of connection points: 2
#     Edge 13, Type (0, 1), BuildingBlock: KIFKEQ_clean_linker_1, # of connection points: 2
#     Edge 14, Type (0, 1), BuildingBlock: KIFKEQ_clean_linker_1, # of connection points: 2
#     Edge 15, Type (0, 1), BuildingBlock: KIFKEQ_clean_linker_1, # of connection points: 2
#     Edge 16, Type (0, 1), BuildingBlock: KIFKEQ_clean_linker_1, # of connection points: 2
#     Edge 17, Type (0, 1), BuildingBlock: KIFKEQ_clean_linker_1, # of connection points: 2
# Relax obj value: 0.038
# Max RMSD: 0.098
# Mean RMSD: 0.090
data_MOF--net-pth--node1-QUQFOY_clean_sbu_3--node2-MUDLON_clean_linker_0--edge1-KIFKEQ_clean_linker_1
_symmetry_space_group_name_H-M    P1
_symmetry_Int_Tables_number       1
_symmetry_cell_setting            triclinic
loop_
_symmetry_equiv_pos_as_xyz
'x, y, z'
_cell_length_a     34.528243
_cell_length_b     34.265632
_cell_length_c     71.831934
_cell_angle_alpha  90.097258
_cell_angle_beta   90.648518
_cell_angle_gamma 120.83025
loop_
_atom_site_label
_atom_site_type_symbol
_atom_site_fract_x
_atom_site_fract_y
_atom_site_fract_z
_atom_type_partial_charge
C0 C 0.95232 0.08491 0.0581 0.0
O1 O 0.9318 0.08391 0.04316 0.0
Cd2 Cd 0.93235 0.04557 0.01543 0.0
O3 O 0.97256 0.06256 0.05932 0.0
Cd4 Cd 0.9854 0.00947 0.03997 0.0
C5 C 0.04764 0.09575 0.01041 0.0
O6 O 0.91238 0.97006 0.02382 0.0
O7 O 0.96328 0.95734 0.01333 0.0
O8 O 0.96642 0.95965 0.06668 0.0
C9 C 0.92278 0.94826 0.01266 0.0
O10 O 0.01015 0.09137 0.00531 0.0
C11 C 0.00227 0.95792 0.06673 0.0
O12 O 0.04942 0.07093 0.02319 0.0
O13 O 0.03137 0.98139 0.05455 0.0
C14 C 0.11297 0.0558 0.3951 0.0
O15 O 0.13602 0.08691 0.38352 0.0
Cd16 Cd 0.10169 0.09623 0.35606 0.0
O17 O 0.0701 0.03248 0.39355 0.0
Cd18 Cd 0.0078 0.02931 0.37447 0.0
C19 C 0.03896 0.98318 0.34118 0.0
O20 O 0.04223 0.10863 0.36439 0.0
O21 O 0.98421 0.05851 0.34863 0.0
O22 O 0.97934 0.03698 0.40397 0.0
C23 C 0.01322 0.10005 0.35158 0.0
O24 O 0.07174 0.02388 0.33956 0.0
C25 C 0.93851 0.00632 0.40108 0.0
O26 O 0.00945 0.973 0.35371 0.0
O27 O 0.92941 0.98438 0.38578 0.0
C28 C 0.95185 0.07429 0.68028 0.0
O29 O 0.95968 0.10201 0.69353 0.0
Cd30 Cd -0.00681 0.09796 0.72222 0.0
O31 O 0.96704 0.04733 0.68095 0.0
Cd32 Cd 0.01776 0.03299 0.7012 0.0
C33 C 0.93074 0.98179 0.7304 0.0
O34 O 0.0653 0.10748 0.71598 0.0
O35 O 0.06368 0.05051 0.72954 0.0
O36 O 0.06621 0.04643 0.67486 0.0
C37 C 0.08063 0.09317 0.72869 0.0
O38 O 0.94034 0.02217 0.7342 0.0
C39 C 0.06565 0.00917 0.67577 0.0
O40 O 0.95281 0.97442 0.71819 0.0
O41 O 0.04142 0.98165 0.68836 0.0
H42 H -0.00128 0.66464 0.22657 0.0
N43 N 0.07354 0.7013 0.20468 0.0
H44 H 0.9843 0.7048 0.25154 0.0
H45 H 0.13136 0.78162 0.21938 0.0
H46 H 0.11738 0.82178 0.24414 0.0
H47 H 0.12971 0.74921 0.17764 0.0
H48 H 0.11471 0.78589 0.15158 0.0
H49 H 0.99055 0.68512 0.19368 0.0
H50 H 0.97512 0.72133 0.16768 0.0
H51 H 0.00504 0.62105 0.1894 0.0
H52 H 0.12592 0.67927 0.22342 0.0
H53 H 0.00036 0.54769 0.19 0.0
H54 H 0.11986 0.60535 0.2252 0.0
H55 H -0.00453 0.37657 0.23234 0.0
H56 H 0.98823 0.33405 0.26052 0.0
H57 H 0.10957 0.33369 0.24657 0.0
H58 H 0.11747 0.37807 0.2188 0.0
H59 H 0.10417 0.40747 0.17502 0.0
H60 H 0.07645 0.35319 0.14897 0.0
H61 H 0.94688 0.27684 0.17534 0.0
H62 H 0.97475 0.33175 0.20122 0.0
H63 H 0.9866 0.41169 0.20549 0.0
H64 H 0.9864 0.48296 0.20676 0.0
H65 H 0.13237 0.5579 0.20648 0.0
N66 N 0.06119 0.40299 0.20601 0.0
H67 H 0.1318 0.48648 0.20645 0.0
C68 C 0.0662 0.72045 0.22117 0.0
C69 C 0.02497 0.69858 0.23063 0.0
C70 C 0.0168 0.72146 0.24485 0.0
C71 C 0.04953 0.76654 0.24954 0.0
C72 C 0.09135 0.78728 0.2406 0.0
C73 C 0.09954 0.76439 0.2266 0.0
C74 C 0.06145 0.71464 0.18758 0.0
C75 C 0.09568 0.74209 0.17519 0.0
C76 C 0.08701 0.763 0.16034 0.0
C77 C 0.04384 0.75693 0.15772 0.0
C78 C 0.0089 0.72724 0.16954 0.0
C79 C 0.01758 0.70624 0.18432 0.0
C80 C 0.06657 0.65615 0.2061 0.0
C81 C 0.03035 0.61809 0.1972 0.0
C82 C 0.02745 0.57578 0.1977 0.0
C83 C 0.06014 0.57046 0.2074 0.0
C84 C 0.09483 0.60821 0.21708 0.0
C85 C 0.09815 0.65048 0.21627 0.0
C86 C 0.05744 0.38094 0.22352 0.0
C87 C 0.02101 0.3682 0.2355 0.0
C88 C 0.01665 0.34337 0.25157 0.0
C89 C 0.04825 0.33025 0.25587 0.0
C90 C 0.08502 0.34382 0.24396 0.0
C91 C 0.08953 0.36896 0.22802 0.0
C92 C 0.04179 0.37346 0.19005 0.0
C93 C 0.06957 0.37946 0.17497 0.0
C94 C 0.05365 0.34851 0.16013 0.0
C95 C 0.00959 0.31063 0.1602 0.0
C96 C 0.98114 0.30547 0.17504 0.0
C97 C -0.00304 0.33689 0.18978 0.0
C98 C 0.0594 0.44401 0.20623 0.0
C99 C 0.01845 0.44353 0.20599 0.0
C100 C 0.01846 0.48442 0.2065 0.0
C101 C 0.0594 0.5265 0.20693 0.0
C102 C 0.10015 0.52643 0.20672 0.0
C103 C 0.10002 0.48567 0.20652 0.0
H104 H 0.72315 0.11953 0.54792 0.0
N105 N 0.65454 0.0451 0.53261 0.0
H106 H 0.77179 0.1241 0.57409 0.0
H107 H 0.64275 0.97422 0.55428 0.0
H108 H 0.69249 0.97837 0.57986 0.0
H109 H 0.64579 0.96349 0.52268 0.0
H110 H 0.68687 0.95163 0.49806 0.0
H111 H 0.70099 0.10235 0.50559 0.0
H112 H 0.74042 0.09024 0.48021 0.0
H113 H 0.61319 0.05932 0.56099 0.0
H114 H 0.58487 0.98592 0.50875 0.0
H115 H 0.53332 0.0316 0.56437 0.0
H116 H 0.50559 0.95971 0.51192 0.0
H117 H 0.3292 0.02094 0.55126 0.0
H118 H 0.29009 0.02967 0.57739 0.0
H119 H 0.24312 0.89123 0.5937 0.0
H120 H 0.282 0.88251 0.56706 0.0
H121 H 0.24765 0.88848 0.52329 0.0
H122 H 0.21355 0.90728 0.49749 0.0
H123 H 0.33446 0.03966 0.49375 0.0
H124 H 0.36723 0.02138 0.51996 0.0
H125 H 0.39953 0.02394 0.55181 0.0
H126 H 0.47814 0.04494 0.55055 0.0
H127 H 0.43792 0.91141 0.52894 0.0
N128 N 0.32596 0.94254 0.54041 0.0
H129 H 0.35879 0.89104 0.52976 0.0
C130 C 0.67985 0.04666 0.54902 0.0
C131 C 0.71596 0.08873 0.55504 0.0
C132 C 0.74358 0.09126 0.56991 0.0
C133 C 0.73596 0.05152 0.5788 0.0
C134 C 0.69924 0.00938 0.57304 0.0
C135 C 0.671 0.00698 0.55842 0.0
C136 C 0.671 0.03423 0.51616 0.0
C137 C 0.66622 0.99126 0.51344 0.0
C138 C 0.68938 0.98437 0.49917 0.0
C139 C 0.71759 0.02019 0.48729 0.0
C140 C 0.71986 0.06219 0.48935 0.0
C141 C 0.697 0.06911 0.5037 0.0
C142 C 0.60606 0.02381 0.535 0.0
C143 C 0.58998 0.03652 0.55041 0.0
C144 C 0.54414 0.02116 0.55222 0.0
C145 C 0.51288 0.99336 0.53843 0.0
C146 C 0.52856 0.98032 0.52302 0.0
C147 C 0.57448 0.9955 0.52124 0.0
C148 C 0.30857 0.95086 0.55719 0.0
C149 C 0.3113 0.99267 0.56061 0.0
C150 C 0.28889 -0.00234 0.57565 0.0
C151 C 0.26325 0.96107 0.58763 0.0
C152 C 0.26205 0.91989 0.5846 0.0
C153 C 0.28453 0.91494 0.56952 0.0
C154 C 0.31001 0.95307 0.52356 0.0
C155 C 0.26696 0.92127 0.51668 0.0
C156 C 0.24762 0.9321 0.50189 0.0
C157 C 0.27115 0.97513 0.49353 0.0
C158 C 0.31501 0.00649 0.50003 0.0
C159 C 0.33414 0.99577 0.51495 0.0
C160 C 0.37294 0.95561 0.54089 0.0
C161 C 0.4073 -0.00108 0.54693 0.0
C162 C 0.45252 0.01088 0.54629 0.0
C163 C 0.46452 0.97984 0.53969 0.0
C164 C 0.43002 0.93637 0.5339 0.0
C165 C 0.38479 0.92453 0.53447 0.0
H166 H 0.61688 0.74716 0.88891 0.0
N167 N 0.62095 0.69233 0.86396 0.0
H168 H 0.66561 0.7817 0.91639 0.0
H169 H 0.68567 0.67532 0.87638 0.0
H170 H 0.73512 0.71016 0.90372 0.0
H171 H 0.66755 0.6627 0.84362 0.0
H172 H 0.71204 0.69899 0.81595 0.0
H173 H 0.62567 0.76132 0.84545 0.0
H174 H 0.67089 0.79872 0.81812 0.0
H175 H 0.53884 0.67857 0.86772 0.0
H176 H 0.61197 0.60844 0.86268 0.0
H177 H 0.46853 0.60623 0.87103 0.0
H178 H 0.54142 0.53532 0.86473 0.0
H179 H 0.28495 0.41012 0.90515 0.0
H180 H 0.25514 0.36435 0.93305 0.0
H181 H 0.32168 0.29067 0.91861 0.0
H182 H 0.34985 0.33586 0.89029 0.0
H183 H 0.36829 0.36466 0.85522 0.0
H184 H 0.33132 0.31143 0.82899 0.0
H185 H 0.20799 0.31041 0.83969 0.0
H186 H 0.24534 0.36412 0.86555 0.0
H187 H 0.34337 0.47212 0.86014 0.0
H188 H 0.41493 0.54204 0.85493 0.0
H189 H 0.48452 0.48642 0.8852 0.0
N190 N 0.32924 0.39855 0.87793 0.0
H191 H 0.413 0.41558 0.8892 0.0
C192 C 0.64798 0.70916 0.88063 0.0
C193 C 0.64229 0.7386 0.89225 0.0
C194 C 0.66998 0.75807 0.90792 0.0
C195 C 0.7042 0.74867 0.91215 0.0
C196 C 0.70925 0.71828 0.90068 0.0
C197 C 0.68106 0.69835 0.88509 0.0
C198 C 0.64315 0.70936 0.84652 0.0
C199 C 0.6674 0.69178 0.83792 0.0
C200 C 0.69315 0.71284 0.82216 0.0
C201 C 0.6952 0.75189 0.81479 0.0
C202 C 0.66959 0.76832 0.82316 0.0
C203 C 0.64387 0.74719 0.83883 0.0
C204 C 0.58024 0.64876 0.86464 0.0
C205 C 0.53938 0.64728 0.86695 0.0
C206 C 0.49922 0.60579 0.8687 0.0
C207 C 0.49894 0.56457 0.86793 0.0
C208 C 0.54023 0.56623 0.86554 0.0
C209 C 0.58062 0.60802 0.86407 0.0
C210 C 0.31952 0.37648 0.89573 0.0
C211 C 0.29389 0.38479 0.90829 0.0
C212 C 0.27708 0.35862 0.92429 0.0
C213 C 0.28582 0.32353 0.92814 0.0
C214 C 0.31372 0.31691 0.91598 0.0
C215 C 0.33027 0.34301 0.89987 0.0
C216 C 0.30943 0.36852 0.86215 0.0
C217 C 0.33347 0.35328 0.85175 0.0
C218 C 0.31239 0.32297 0.83682 0.0
C219 C 0.26683 0.30682 0.83241 0.0
C220 C 0.24302 0.32207 0.84291 0.0
C221 C 0.26425 0.3528 0.85757 0.0
C222 C 0.37257 0.43899 0.87531 0.0
C223 C 0.37418 0.47511 0.86557 0.0
C224 C 0.41517 0.51518 0.86275 0.0
C225 C 0.45571 0.52043 0.86991 0.0
C226 C 0.45416 0.48366 0.87936 0.0
C227 C 0.41305 0.44313 0.88188 0.0
H228 H 0.98531 0.08973 0.09348 0.0
H229 H 0.92509 0.14705 0.05818 0.0
H230 H -0.00589 0.14233 0.11844 0.0
H231 H 0.93393 0.1994 0.08313 0.0
H232 H 0.01917 0.32355 0.12265 0.0
H233 H 0.00086 0.2663 0.09842 0.0
H234 H 0.94843 0.16119 0.14 0.0
H235 H 0.9671 0.2186 0.16428 0.0
C236 C 0.97359 0.11322 0.09109 0.0
C237 C 0.9547 0.11429 0.07379 0.0
C238 C 0.97843 0.14317 0.10542 0.0
C239 C 0.96487 0.17509 0.10269 0.0
C240 C 0.9451 0.17548 0.08556 0.0
C241 C 0.93985 0.14529 0.07131 0.0
C242 C 0.00346 0.28817 0.12657 0.0
C243 C -0.00541 0.27552 0.14534 0.0
C244 C -0.00729 0.25538 0.11271 0.0
C245 C 0.97332 0.20929 0.11734 0.0
C246 C 0.96366 0.1965 0.13606 0.0
C247 C 0.97394 0.22927 0.14991 0.0
H248 H 0.95086 0.03552 0.43699 0.0
H249 H 0.8469 0.96297 0.39523 0.0
H250 H 0.89544 0.03466 0.45779 0.0
H251 H 0.79122 0.96326 0.41596 0.0
H252 H 0.69829 0.94604 0.46535 0.0
H253 H 0.74983 0.937 0.44516 0.0
H254 H 0.85523 0.07439 0.45847 0.0
H255 H 0.80493 0.0826 0.47917 0.0
C256 C 0.91602 0.01908 0.4323 0.0
C257 C 0.90332 -0.0003 0.41441 0.0
C258 C 0.88427 0.0189 0.44418 0.0
C259 C 0.83903 -0.00022 0.4384 0.0
C260 C 0.82577 0.97823 0.42085 0.0
C261 C 0.85765 0.97809 0.40897 0.0
C262 C 0.73257 0.97418 0.46403 0.0
C263 C 0.74737 0.01508 0.4739 0.0
C264 C 0.76197 0.96911 0.45234 0.0
C265 C 0.80683 0.00478 0.45034 0.0
C266 C 0.8212 0.04586 0.45994 0.0
C267 C 0.79201 0.05087 0.4716 0.0
H268 H 0.86423 0.98286 0.74993 0.0
H269 H 0.91287 0.89419 0.73367 0.0
H270 H 0.80474 0.92168 0.76776 0.0
H271 H 0.8529 0.8326 0.75173 0.0
H272 H 0.78088 0.76874 0.80921 0.0
H273 H 0.83511 0.81926 0.78638 0.0
H274 H 0.73477 0.84502 0.76292 0.0
H275 H 0.68009 0.79374 0.78545 0.0
C276 C 0.8621 0.9502 0.75008 0.0
C277 C 0.89344 0.94347 0.74044 0.0
C278 C 0.82774 0.91502 0.76019 0.0
C279 C 0.82407 0.87232 0.76108 0.0
C280 C 0.85505 0.86526 0.75131 0.0
C281 C 0.88922 0.90042 0.74094 0.0
C282 C 0.76991 0.78414 0.79888 0.0
C283 C 0.7262 0.77754 0.79933 0.0
C284 C 0.80108 0.81318 0.78581 0.0
C285 C 0.7893 0.83644 0.77302 0.0
C286 C 0.74498 0.82808 0.77283 0.0
C287 C 0.71374 0.79882 0.78578 0.0
H288 H 0.07741 0.9512 0.07196 0.0
H289 H 0.94154 0.89802 0.09134 0.0
H290 H 0.08711 0.90192 0.09365 0.0
H291 H 0.95062 0.84791 0.1125 0.0
H292 H -0.00166 0.80168 0.16248 0.0
H293 H 0.98903 0.85029 0.14053 0.0
H294 H 0.06326 0.82355 0.09946 0.0
H295 H 0.07321 0.77533 0.12168 0.0
C296 C 0.0496 0.92892 0.08081 0.0
C297 C 0.00881 0.92871 0.08 0.0
C298 C 0.055 0.90039 0.09313 0.0
C299 C 0.01966 0.87089 0.10486 0.0
C300 C 0.97884 0.87068 0.10393 0.0
C301 C 0.97355 0.89932 0.09172 0.0
C302 C 0.01213 0.80564 0.14867 0.0
C303 C 0.03624 0.78438 0.14377 0.0
C304 C 0.00684 0.83358 0.13607 0.0
C305 C 0.0253 0.84084 0.11817 0.0
C306 C 0.04917 0.81928 0.11321 0.0
C307 C 0.0547 0.79148 0.12589 0.0
H308 H 0.07684 0.98184 0.41789 0.0
H309 H 0.20164 0.10593 0.40603 0.0
H310 H 0.11582 0.9629 0.44151 0.0
H311 H 0.24045 0.08684 0.42969 0.0
H312 H 0.27753 0.05751 0.48832 0.0
H313 H 0.23994 0.07775 0.46463 0.0
H314 H 0.17611 0.9417 0.44185 0.0
H315 H 0.21466 0.92157 0.46518 0.0
C316 C 0.1125 0.0052 0.42038 0.0
C317 C 0.13613 0.0454 0.41006 0.0
C318 C 0.13486 0.99416 0.43381 0.0
C319 C 0.18118 0.0233 0.43736 0.0
C320 C 0.20466 0.06388 0.42731 0.0
C321 C 0.18244 0.0747 0.41372 0.0
C322 C 0.25616 0.03205 0.47808 0.0
C323 C 0.24926 0.98786 0.47869 0.0
C324 C 0.23445 0.04366 0.46456 0.0
C325 C 0.20497 0.01125 0.45146 0.0
C326 C 0.19817 0.96718 0.45196 0.0
C327 C 0.22022 0.95567 0.46535 0.0
H328 H 0.12881 0.18606 0.72868 0.0
H329 H 0.10448 0.07 0.76134 0.0
H330 H 0.17799 0.23688 0.7535 0.0
H331 H 0.15337 0.12085 0.78613 0.0
H332 H 0.1867 0.22716 0.83374 0.0
H333 H 0.14535 0.1748 0.80805 0.0
H334 H 0.25284 0.25984 0.77066 0.0
H335 H 0.29443 0.31235 0.7965 0.0
C336 C 0.13422 0.17144 0.74109 0.0
C337 C 0.11258 0.12405 0.74312 0.0
C338 C 0.16256 0.20052 0.75522 0.0
C339 C 0.16932 0.18273 0.77173 0.0
C340 C 0.14843 0.1354 0.77359 0.0
C341 C 0.12058 0.10635 0.75938 0.0
C342 C 0.20157 0.23447 0.82005 0.0
C343 C 0.24361 0.27377 0.81704 0.0
C344 C 0.17809 0.20441 0.8054 0.0
C345 C 0.19593 0.21333 0.78739 0.0
C346 C 0.23829 0.25234 0.78441 0.0
C347 C 0.26214 0.28213 0.79916 0.0
H348 H 0.93803 0.14117 0.66754 0.0
H349 H 0.89985 0.00162 0.65749 0.0
H350 H 0.88751 0.13613 0.64254 0.0
H351 H 0.8471 0.99535 0.63326 0.0
H352 H 0.7826 0.00737 0.57995 0.0
H353 H 0.83725 0.01427 0.60348 0.0
H354 H 0.81241 0.10687 0.63501 0.0
H355 H 0.76 0.10179 0.61077 0.0
C356 C 0.9186 0.10931 0.66001 0.0
C357 C 0.92292 0.07182 0.66445 0.0
C358 C 0.88921 0.10619 0.64577 0.0
C359 C 0.86259 0.06515 0.63587 0.0
C360 C 0.86741 0.02778 0.64026 0.0
C361 C 0.89756 0.03125 0.65424 0.0
C362 C 0.78894 0.02906 0.59198 0.0
C363 C 0.76724 0.05404 0.59362 0.0
C364 C 0.8201 0.03293 0.60555 0.0
C365 C 0.82957 0.0612 0.62128 0.0
C366 C 0.80702 0.08559 0.62296 0.0
C367 C 0.77661 0.08243 0.60918 0.0
H368 H 0.93231 0.88949 0.99015 0.0
H369 H 0.8393 0.93379 0.00391 0.0
H370 H 0.87873 0.8368 0.96699 0.0
H371 H 0.78644 0.88247 0.98033 0.0
H372 H 0.68358 0.76026 0.94754 0.0
H373 H 0.73576 0.80489 0.97272 0.0
H374 H 0.84834 0.83701 0.93716 0.0
H375 H 0.796 0.79129 0.91224 0.0
C376 C 0.90046 0.88807 0.98817 0.0
C377 C 0.89003 0.91581 -0.00118 0.0
C378 C 0.86982 0.85803 0.97483 0.0
C379 C 0.82821 0.85534 0.97174 0.0
C380 C 0.81777 0.88297 0.98253 0.0
C381 C 0.84823 0.91268 -0.00403 0.0
C382 C 0.71951 0.77664 0.94521 0.0
C383 C 0.73576 0.77243 0.92794 0.0
C384 C 0.74944 0.80241 0.95958 0.0
C385 C 0.79634 0.82497 0.95695 0.0
C386 C 0.8125 0.81967 0.9398 0.0
C387 C 0.78253 0.79352 0.92549 0.0
H388 H 0.09991 0.99424 0.31502 0.0
H389 H 0.97262 0.89249 0.33811 0.0
H390 H 0.0969 0.93869 0.29337 0.0
H391 H 0.96932 0.83635 0.31584 0.0
H392 H 0.01596 0.74423 0.28496 0.0
H393 H 0.00873 0.79395 0.3076 0.0
H394 H 0.05282 0.89859 0.26595 0.0
H395 H 0.06082 0.84966 0.24373 0.0
C396 C 0.07102 0.96 0.31544 0.0
C397 C 0.03629 0.94802 0.32826 0.0
C398 C 0.06921 0.92812 0.30289 0.0
C399 C 0.03253 0.88326 0.30266 0.0
C400 C -0.00196 0.8707 0.31569 0.0
C401 C -0.00014 0.90286 0.32837 0.0
C402 C 0.02353 0.7777 0.28069 0.0
C403 C 0.03983 0.79357 0.26277 0.0
C404 C 0.01928 0.80606 0.29358 0.0
C405 C 0.03106 0.85052 0.28866 0.0
C406 C 0.04467 0.86502 0.27035 0.0
C407 C 0.04919 0.83701 0.25761 0.0
H408 H 0.12385 0.06506 0.64955 0.0
H409 H 0.07093 0.93201 0.67362 0.0
H410 H 0.1722 0.05149 0.62956 0.0
H411 H 0.11992 0.91855 0.65358 0.0
H412 H 0.17716 0.89809 0.59786 0.0
H413 H 0.12953 0.90778 0.61996 0.0
H414 H 0.23897 0.04355 0.6327 0.0
H415 H 0.28679 0.03378 0.61076 0.0
C416 C 0.12248 0.03284 0.65057 0.0
C417 C 0.09352 -0.0004 0.66319 0.0
C418 C 0.15051 0.02523 0.6392 0.0
C419 C 0.15021 0.98413 0.64011 0.0
C420 C 0.12077 0.95051 0.65252 0.0
C421 C 0.0928 0.95824 0.66401 0.0
C422 C 0.1914 0.92968 0.60565 0.0
C423 C 0.23576 0.96529 0.60243 0.0
C424 C 0.16403 0.93524 0.61828 0.0
C425 C 0.18032 0.97659 0.62792 0.0
C426 C 0.22515 0.01159 0.6252 0.0
C427 C 0.25255 0.00599 0.61264 0.0
H428 H 0.12617 0.09577 0.00461 0.0
H429 H 0.06274 0.17507 -0.00423 0.0
H430 H 0.19237 0.1524 0.98733 0.0
H431 H 0.1287 0.23155 0.97904 0.0
H432 H 0.26651 0.34282 0.96278 0.0
H433 H 0.2147 0.28868 0.9854 0.0
H434 H 0.20015 0.1775 0.95171 0.0
H435 H 0.25039 0.2312 0.92865 0.0
C436 C 0.12669 0.12555 -0.00077 0.0
C437 C 0.08926 0.13093 0.00141 0.0
C438 C 0.16439 0.15778 0.98936 0.0
C439 C 0.16563 0.19638 0.98198 0.0
C440 C 0.12885 0.20239 0.98477 0.0
C441 C 0.09096 0.16986 -0.00578 0.0
C442 C 0.25259 0.30688 0.96021 0.0
C443 C 0.26208 0.29148 0.94367 0.0
C444 C 0.22319 0.27595 0.97324 0.0
C445 C 0.20324 0.229 0.97019 0.0
C446 C 0.21538 0.21357 0.95445 0.0
C447 C 0.24432 0.24447 0.94126 0.0
H448 H 0.06893 0.19225 0.35514 0.0
H449 H 0.96417 0.08876 0.31996 0.0
H450 H 0.07539 0.25076 0.33386 0.0
H451 H 0.97169 0.14668 0.29842 0.0
H452 H 0.96891 0.25945 0.26889 0.0
H453 H 0.95866 0.20733 0.29383 0.0
H454 H 0.1028 0.27913 0.30362 0.0
H455 H 0.11278 0.33314 0.2795 0.0
C456 C 0.0473 0.18202 0.34287 0.0
C457 C 0.01613 0.1359 0.33921 0.0
C458 C 0.05116 0.21551 0.33061 0.0
C459 C 0.02412 0.20354 0.31437 0.0
C460 C 0.99252 0.15736 0.31093 0.0
C461 C 0.98843 0.12401 0.32323 0.0
C462 C -0.00162 0.26489 0.27664 0.0
C463 C 0.04174 0.30047 0.27206 0.0
C464 C 0.99254 0.23449 0.29079 0.0
C465 C 0.02993 0.23857 0.30062 0.0
C466 C 0.07316 0.27504 0.29646 0.0
C467 C 0.07896 0.3057 0.28242 0.0
loop_
_geom_bond_atom_site_label_1
_geom_bond_atom_site_label_2
_geom_bond_distance
_geom_bond_site_symmetry_2
_ccdc_geom_bond_type
C0 O1 1.306 1_455 S
C0 O3 1.160 . S
O1 C0 1.306 1_655 S
O1 Cd2 2.228 . S
Cd2 O1 2.228 . S
Cd2 O6 2.273 . S
Cd2 O10 2.277 1_655 S
O3 C0 1.160 . S
O3 Cd4 2.203 . S
Cd4 O3 2.203 . S
Cd4 O6 2.411 1_455 S
Cd4 O7 2.333 1_445 S
Cd4 O8 2.352 1_445 S
Cd4 O12 2.277 . S
Cd4 O13 2.356 1_545 S
C5 O10 1.209 . S
C5 O12 1.226 . S
O6 Cd2 2.273 . S
O6 Cd4 2.411 1_655 S
O6 C9 1.320 1_545 S
O7 Cd4 2.333 1_665 S
O7 C9 1.214 . S
O8 Cd4 2.352 1_665 S
O8 C11 1.258 1_655 S
C9 O6 1.320 1_565 S
C9 O7 1.214 . S
O10 Cd2 2.277 1_455 S
O10 C5 1.209 . S
C11 O8 1.258 1_455 S
C11 O13 1.282 . S
O12 Cd4 2.277 . S
O12 C5 1.226 . S
O13 Cd4 2.356 1_565 S
O13 C11 1.282 . S
C14 O15 1.306 . S
C14 O17 1.160 . S
O15 C14 1.306 . S
O15 Cd16 2.228 . S
Cd16 O15 2.228 . S
Cd16 O20 2.273 . S
Cd16 O24 2.277 1_545 S
O17 C14 1.160 . S
O17 Cd18 2.203 1_455 S
Cd18 O17 2.203 1_655 S
Cd18 O20 2.411 1_655 S
Cd18 O21 2.333 . S
Cd18 O22 2.352 . S
Cd18 O26 2.277 1_545 S
Cd18 O27 2.356 1_545 S
C19 O24 1.209 . S
C19 O26 1.226 1_455 S
O20 Cd16 2.273 . S
O20 Cd18 2.411 1_455 S
O20 C23 1.320 . S
O21 Cd18 2.333 . S
O21 C23 1.214 1_655 S
O22 Cd18 2.352 . S
O22 C25 1.258 . S
C23 O20 1.320 . S
C23 O21 1.214 1_455 S
O24 Cd16 2.277 1_565 S
O24 C19 1.209 . S
C25 O22 1.258 . S
C25 O27 1.282 1_545 S
O26 Cd18 2.277 1_565 S
O26 C19 1.226 1_655 S
O27 Cd18 2.356 1_565 S
O27 C25 1.282 1_565 S
C28 O29 1.306 . S
C28 O31 1.160 . S
O29 C28 1.306 . S
O29 Cd30 2.228 . S
Cd30 O29 2.228 . S
Cd30 O34 2.273 1_655 S
Cd30 O38 2.277 . S
O31 C28 1.160 . S
O31 Cd32 2.203 1_655 S
Cd32 O31 2.203 1_455 S
Cd32 O34 2.411 . S
Cd32 O35 2.333 . S
Cd32 O36 2.352 . S
Cd32 O40 2.277 1_445 S
Cd32 O41 2.356 1_545 S
C33 O38 1.209 1_565 S
C33 O40 1.226 . S
O34 Cd30 2.273 1_455 S
O34 Cd32 2.411 . S
O34 C37 1.320 . S
O35 Cd32 2.333 . S
O35 C37 1.214 . S
O36 Cd32 2.352 . S
O36 C39 1.258 . S
C37 O34 1.320 . S
C37 O35 1.214 . S
O38 Cd30 2.277 . S
O38 C33 1.209 1_545 S
C39 O36 1.258 . S
C39 O41 1.282 1_545 S
O40 Cd32 2.277 1_665 S
O40 C33 1.226 . S
O41 Cd32 2.356 1_565 S
O41 C39 1.282 1_565 S
H42 C69 0.942 . S
N43 C68 1.433 . S
N43 C74 1.435 . S
N43 C80 1.423 . S
H44 C70 0.930 1_655 S
H45 C73 0.931 . S
H46 C72 0.929 . S
H47 C75 0.930 . S
H48 C76 0.932 . S
H49 C79 0.929 . S
H50 C78 0.931 1_655 S
H51 C81 0.929 . S
H52 C85 0.932 . S
H53 C82 0.931 . S
H54 C84 0.929 . S
H55 C87 0.932 . S
H56 C88 0.930 1_655 S
H57 C90 0.929 . S
H58 C91 0.931 . S
H59 C93 0.930 . S
H60 C94 0.932 . S
H61 C96 0.931 1_655 S
H62 C97 0.929 . S
H63 C99 0.929 . S
H64 C100 0.931 . S
H65 C102 0.929 . S
N66 C86 1.433 . S
N66 C92 1.435 . S
N66 C98 1.423 . S
H67 C103 0.932 . S
C68 N43 1.433 . S
C68 C69 1.350 1_455 S
C68 C73 1.370 . S
C69 H42 0.942 . S
C69 C68 1.350 1_655 S
C69 C70 1.387 1_655 S
C70 H44 0.930 1_455 S
C70 C69 1.387 1_455 S
C70 C71 1.357 . S
C71 C70 1.357 . S
C71 C72 1.406 . S
C72 H46 0.929 . S
C72 C71 1.406 . S
C72 C73 1.391 . S
C73 H45 0.931 . S
C73 C68 1.370 . S
C73 C72 1.391 . S
C74 N43 1.435 . S
C74 C75 1.358 . S
C74 C79 1.371 1_455 S
C75 H47 0.930 . S
C75 C74 1.358 . S
C75 C76 1.405 . S
C76 H48 0.932 . S
C76 C75 1.405 . S
C76 C77 1.383 . S
C77 C76 1.383 . S
C77 C78 1.393 . S
C78 H50 0.931 1_455 S
C78 C77 1.393 . S
C78 C79 1.382 1_455 S
C79 H49 0.929 . S
C79 C74 1.371 1_655 S
C79 C78 1.382 1_655 S
C80 N43 1.423 . S
C80 C81 1.362 1_455 S
C80 C85 1.388 . S
C81 H51 0.929 . S
C81 C80 1.362 1_655 S
C81 C82 1.376 . S
C82 H53 0.931 . S
C82 C81 1.376 . S
C82 C83 1.376 1_655 S
C83 C82 1.376 1_455 S
C83 C84 1.354 . S
C83 C101 1.472 . S
C84 H54 0.929 . S
C84 C83 1.354 . S
C84 C85 1.443 . S
C85 H52 0.932 . S
C85 C80 1.388 . S
C85 C84 1.443 . S
C86 N66 1.433 . S
C86 C87 1.365 1_455 S
C86 C91 1.370 . S
C87 H55 0.932 . S
C87 C86 1.365 1_655 S
C87 C88 1.381 1_655 S
C88 H56 0.930 1_455 S
C88 C87 1.381 1_455 S
C88 C89 1.357 . S
C89 C88 1.357 . S
C89 C90 1.406 . S
C90 H57 0.929 . S
C90 C89 1.406 . S
C90 C91 1.391 . S
C91 H58 0.931 . S
C91 C86 1.370 . S
C91 C90 1.391 . S
C92 N66 1.435 . S
C92 C93 1.358 . S
C92 C97 1.371 1_455 S
C93 H59 0.930 . S
C93 C92 1.358 . S
C93 C94 1.405 . S
C94 H60 0.932 . S
C94 C93 1.405 . S
C94 C95 1.383 . S
C95 C94 1.383 . S
C95 C96 1.393 . S
C96 H61 0.931 1_455 S
C96 C95 1.393 . S
C96 C97 1.382 1_455 S
C97 H62 0.929 . S
C97 C92 1.371 1_655 S
C97 C96 1.382 1_655 S
C98 N66 1.423 . S
C98 C99 1.362 1_455 S
C98 C103 1.388 . S
C99 H63 0.929 . S
C99 C98 1.362 1_655 S
C99 C100 1.376 . S
C100 H64 0.931 . S
C100 C99 1.376 . S
C100 C101 1.391 1_655 S
C101 C83 1.472 . S
C101 C100 1.391 1_455 S
C101 C102 1.368 . S
C102 H65 0.929 . S
C102 C101 1.368 . S
C102 C103 1.443 . S
C103 H67 0.932 . S
C103 C98 1.388 . S
C103 C102 1.443 . S
H104 C131 0.929 . S
N105 C130 1.433 . S
N105 C136 1.435 . S
N105 C142 1.423 . S
H106 C132 0.930 . S
H107 C135 0.934 1_565 S
H108 C134 0.929 1_565 S
H109 C137 0.930 1_565 S
H110 C138 0.932 . S
H111 C141 0.929 . S
H112 C140 0.931 . S
H113 C143 0.929 . S
H114 C147 0.932 . S
H115 C144 0.931 . S
H116 C146 0.929 . S
H117 C149 0.929 . S
H118 C150 0.930 . S
H119 C152 0.929 1_565 S
H120 C153 0.908 1_565 S
H121 C155 0.930 1_565 S
H122 C156 0.932 . S
H123 C158 0.931 . S
H124 C159 0.929 . S
H125 C161 0.929 . S
H126 C162 0.931 . S
H127 C164 0.929 . S
N128 C148 1.433 . S
N128 C154 1.435 . S
N128 C160 1.423 . S
H129 C165 0.932 . S
C130 N105 1.433 . S
C130 C131 1.363 . S
C130 C135 1.370 . S
C131 H104 0.929 . S
C131 C130 1.363 . S
C131 C132 1.385 . S
C132 H106 0.930 . S
C132 C131 1.385 . S
C132 C133 1.357 . S
C133 C132 1.357 . S
C133 C134 1.406 . S
C134 H108 0.929 1_545 S
C134 C133 1.406 . S
C134 C135 1.391 . S
C135 H107 0.934 1_545 S
C135 C130 1.370 . S
C135 C134 1.391 . S
C136 N105 1.435 . S
C136 C137 1.358 . S
C136 C141 1.371 . S
C137 H109 0.930 1_545 S
C137 C136 1.358 . S
C137 C138 1.405 1_545 S
C138 H110 0.932 . S
C138 C137 1.405 1_565 S
C138 C139 1.383 1_565 S
C139 C138 1.383 1_545 S
C139 C140 1.393 . S
C140 H112 0.931 . S
C140 C139 1.393 . S
C140 C141 1.382 . S
C141 H111 0.929 . S
C141 C136 1.371 . S
C141 C140 1.382 . S
C142 N105 1.423 . S
C142 C143 1.362 . S
C142 C147 1.388 . S
C143 H113 0.929 . S
C143 C142 1.362 . S
C143 C144 1.376 . S
C144 H115 0.931 . S
C144 C143 1.376 . S
C144 C145 1.396 . S
C145 C144 1.396 . S
C145 C146 1.348 . S
C145 C163 1.472 . S
C146 H116 0.929 . S
C146 C145 1.348 . S
C146 C147 1.443 . S
C147 H114 0.932 . S
C147 C142 1.388 . S
C147 C146 1.443 . S
C148 N128 1.433 . S
C148 C149 1.363 . S
C148 C153 1.370 . S
C149 H117 0.929 . S
C149 C148 1.363 . S
C149 C150 1.385 . S
C150 H118 0.930 . S
C150 C149 1.385 . S
C150 C151 1.357 . S
C151 C150 1.357 . S
C151 C152 1.406 . S
C152 H119 0.929 1_545 S
C152 C151 1.406 . S
C152 C153 1.391 . S
C153 H120 0.908 1_545 S
C153 C148 1.370 . S
C153 C152 1.391 . S
C154 N128 1.435 . S
C154 C155 1.358 . S
C154 C159 1.371 . S
C155 H121 0.930 1_545 S
C155 C154 1.358 . S
C155 C156 1.405 1_545 S
C156 H122 0.932 . S
C156 C155 1.405 1_565 S
C156 C157 1.383 1_565 S
C157 C156 1.383 1_545 S
C157 C158 1.393 . S
C158 H123 0.931 . S
C158 C157 1.393 . S
C158 C159 1.382 . S
C159 H124 0.929 . S
C159 C154 1.371 . S
C159 C158 1.382 . S
C160 N128 1.423 . S
C160 C161 1.362 . S
C160 C165 1.388 . S
C161 H125 0.929 . S
C161 C160 1.362 . S
C161 C162 1.376 . S
C162 H126 0.931 . S
C162 C161 1.376 . S
C162 C163 1.396 . S
C163 C145 1.472 . S
C163 C162 1.396 . S
C163 C164 1.348 . S
C164 H127 0.929 . S
C164 C163 1.348 . S
C164 C165 1.443 . S
C165 H129 0.932 . S
C165 C160 1.388 . S
C165 C164 1.443 . S
H166 C193 0.929 . S
N167 C192 1.433 . S
N167 C198 1.435 . S
N167 C204 1.423 . S
H168 C194 0.930 . S
H169 C197 0.931 . S
H170 C196 0.929 . S
H171 C199 0.930 . S
H172 C200 0.932 . S
H173 C203 0.929 . S
H174 C202 0.931 . S
H175 C205 0.929 . S
H176 C209 0.932 . S
H177 C206 0.931 . S
H178 C208 0.929 . S
H179 C211 0.929 . S
H180 C212 0.930 . S
H181 C214 0.929 . S
H182 C215 0.931 . S
H183 C217 0.930 . S
H184 C218 0.932 . S
H185 C220 0.931 . S
H186 C221 0.929 . S
H187 C223 0.929 . S
H188 C224 0.931 . S
H189 C226 0.929 . S
N190 C210 1.433 . S
N190 C216 1.435 . S
N190 C222 1.423 . S
H191 C227 0.932 . S
C192 N167 1.433 . S
C192 C193 1.363 . S
C192 C197 1.370 . S
C193 H166 0.929 . S
C193 C192 1.363 . S
C193 C194 1.385 . S
C194 H168 0.930 . S
C194 C193 1.385 . S
C194 C195 1.357 . S
C195 C194 1.357 . S
C195 C196 1.406 . S
C196 H170 0.929 . S
C196 C195 1.406 . S
C196 C197 1.391 . S
C197 H169 0.931 . S
C197 C192 1.370 . S
C197 C196 1.391 . S
C198 N167 1.435 . S
C198 C199 1.358 . S
C198 C203 1.371 . S
C199 H171 0.930 . S
C199 C198 1.358 . S
C199 C200 1.405 . S
C200 H172 0.932 . S
C200 C199 1.405 . S
C200 C201 1.383 . S
C201 C200 1.383 . S
C201 C202 1.393 . S
C202 H174 0.931 . S
C202 C201 1.393 . S
C202 C203 1.382 . S
C203 H173 0.929 . S
C203 C198 1.371 . S
C203 C202 1.382 . S
C204 N167 1.423 . S
C204 C205 1.362 . S
C204 C209 1.388 . S
C205 H175 0.929 . S
C205 C204 1.362 . S
C205 C206 1.376 . S
C206 H177 0.931 . S
C206 C205 1.376 . S
C206 C207 1.396 . S
C207 C206 1.396 . S
C207 C208 1.348 . S
C207 C225 1.472 . S
C208 H178 0.929 . S
C208 C207 1.348 . S
C208 C209 1.443 . S
C209 H176 0.932 . S
C209 C204 1.388 . S
C209 C208 1.443 . S
C210 N190 1.433 . S
C210 C211 1.363 . S
C210 C215 1.370 . S
C211 H179 0.929 . S
C211 C210 1.363 . S
C211 C212 1.385 . S
C212 H180 0.930 . S
C212 C211 1.385 . S
C212 C213 1.357 . S
C213 C212 1.357 . S
C213 C214 1.406 . S
C214 H181 0.929 . S
C214 C213 1.406 . S
C214 C215 1.391 . S
C215 H182 0.931 . S
C215 C210 1.370 . S
C215 C214 1.391 . S
C216 N190 1.435 . S
C216 C217 1.358 . S
C216 C221 1.371 . S
C217 H183 0.930 . S
C217 C216 1.358 . S
C217 C218 1.405 . S
C218 H184 0.932 . S
C218 C217 1.405 . S
C218 C219 1.383 . S
C219 C218 1.383 . S
C219 C220 1.393 . S
C220 H185 0.931 . S
C220 C219 1.393 . S
C220 C221 1.382 . S
C221 H186 0.929 . S
C221 C216 1.371 . S
C221 C220 1.382 . S
C222 N190 1.423 . S
C222 C223 1.362 . S
C222 C227 1.388 . S
C223 H187 0.929 . S
C223 C222 1.362 . S
C223 C224 1.376 . S
C224 H188 0.931 . S
C224 C223 1.376 . S
C224 C225 1.396 . S
C225 C207 1.472 . S
C225 C224 1.396 . S
C225 C226 1.348 . S
C226 H189 0.929 . S
C226 C225 1.348 . S
C226 C227 1.443 . S
C227 H191 0.932 . S
C227 C222 1.388 . S
C227 C226 1.443 . S
H228 C236 0.950 . S
H229 C241 0.950 . S
H230 C238 0.950 . S
H231 C240 0.950 . S
H232 C242 0.950 . S
H233 C244 0.950 . S
H234 C246 0.950 . S
H235 C247 0.950 . S
C236 H228 0.950 . S
C236 C237 1.386 1_655 S
C236 C238 1.391 . S
C237 C236 1.386 1_455 S
C237 C241 1.393 . S
C238 H230 0.950 . S
C238 C236 1.391 . S
C238 C239 1.400 1_655 S
C239 C238 1.400 1_455 S
C239 C240 1.398 . S
C239 C245 1.491 . S
C240 H231 0.950 . S
C240 C239 1.398 . S
C240 C241 1.391 . S
C241 H229 0.950 . S
C241 C237 1.393 . S
C241 C240 1.391 . S
C242 H232 0.950 . S
C242 C243 1.386 . S
C242 C244 1.391 . S
C243 C242 1.386 . S
C243 C247 1.393 1_455 S
C244 H233 0.950 . S
C244 C242 1.391 . S
C244 C245 1.400 . S
C245 C239 1.491 . S
C245 C244 1.400 . S
C245 C246 1.398 1_455 S
C246 H234 0.950 . S
C246 C245 1.398 1_655 S
C246 C247 1.391 . S
C247 H235 0.950 . S
C247 C243 1.393 1_655 S
C247 C246 1.391 . S
H248 C256 0.950 . S
H249 C261 0.950 . S
H250 C258 0.950 . S
H251 C260 0.950 . S
H252 C262 0.950 . S
H253 C264 0.950 . S
H254 C266 0.950 . S
H255 C267 0.950 . S
C256 H248 0.950 . S
C256 C257 1.386 . S
C256 C258 1.391 . S
C257 C256 1.386 . S
C257 C261 1.393 1_545 S
C258 H250 0.950 . S
C258 C256 1.391 . S
C258 C259 1.400 . S
C259 C258 1.400 . S
C259 C260 1.398 1_545 S
C259 C265 1.491 . S
C260 H251 0.950 . S
C260 C259 1.398 1_565 S
C260 C261 1.391 . S
C261 H249 0.950 . S
C261 C257 1.393 1_565 S
C261 C260 1.391 . S
C262 H252 0.950 . S
C262 C263 1.386 1_565 S
C262 C264 1.391 . S
C263 C262 1.386 1_545 S
C263 C267 1.393 . S
C264 H253 0.950 . S
C264 C262 1.391 . S
C264 C265 1.400 1_565 S
C265 C259 1.491 . S
C265 C264 1.400 1_545 S
C265 C266 1.398 . S
C266 H254 0.950 . S
C266 C265 1.398 . S
C266 C267 1.391 . S
C267 H255 0.950 . S
C267 C263 1.393 . S
C267 C266 1.391 . S
H268 C276 0.950 . S
H269 C281 0.950 . S
H270 C278 0.950 . S
H271 C280 0.950 . S
H272 C282 0.950 . S
H273 C284 0.950 . S
H274 C286 0.950 . S
H275 C287 0.950 . S
C276 H268 0.950 . S
C276 C277 1.386 . S
C276 C278 1.391 . S
C277 C276 1.386 . S
C277 C281 1.393 . S
C278 H270 0.950 . S
C278 C276 1.391 . S
C278 C279 1.400 . S
C279 C278 1.400 . S
C279 C280 1.398 . S
C279 C285 1.491 . S
C280 H271 0.950 . S
C280 C279 1.398 . S
C280 C281 1.391 . S
C281 H269 0.950 . S
C281 C277 1.393 . S
C281 C280 1.391 . S
C282 H272 0.950 . S
C282 C283 1.386 . S
C282 C284 1.391 . S
C283 C282 1.386 . S
C283 C287 1.393 . S
C284 H273 0.950 . S
C284 C282 1.391 . S
C284 C285 1.400 . S
C285 C279 1.491 . S
C285 C284 1.400 . S
C285 C286 1.398 . S
C286 H274 0.950 . S
C286 C285 1.398 . S
C286 C287 1.391 . S
C287 H275 0.950 . S
C287 C283 1.393 . S
C287 C286 1.391 . S
H288 C296 0.950 . S
H289 C301 0.950 . S
H290 C298 0.950 . S
H291 C300 0.950 . S
H292 C302 0.950 1_655 S
H293 C304 0.938 1_655 S
H294 C306 0.950 . S
H295 C307 0.950 . S
C296 H288 0.950 . S
C296 C297 1.386 . S
C296 C298 1.391 . S
C297 C296 1.386 . S
C297 C301 1.393 1_455 S
C298 H290 0.950 . S
C298 C296 1.391 . S
C298 C299 1.400 . S
C299 C298 1.400 . S
C299 C300 1.398 1_455 S
C299 C305 1.491 . S
C300 H291 0.950 . S
C300 C299 1.398 1_655 S
C300 C301 1.391 . S
C301 H289 0.950 . S
C301 C297 1.393 1_655 S
C301 C300 1.391 . S
C302 H292 0.950 1_455 S
C302 C303 1.386 . S
C302 C304 1.399 . S
C303 C302 1.386 . S
C303 C307 1.393 . S
C304 H293 0.938 1_455 S
C304 C302 1.399 . S
C304 C305 1.404 . S
C305 C299 1.491 . S
C305 C304 1.404 . S
C305 C306 1.398 . S
C306 H294 0.950 . S
C306 C305 1.398 . S
C306 C307 1.391 . S
C307 H295 0.950 . S
C307 C303 1.393 . S
C307 C306 1.391 . S
H308 C316 0.950 . S
H309 C321 0.950 . S
H310 C318 0.950 . S
H311 C320 0.950 . S
H312 C322 0.950 . S
H313 C324 0.950 . S
H314 C326 0.950 . S
H315 C327 0.950 . S
C316 H308 0.950 . S
C316 C317 1.386 1_565 S
C316 C318 1.391 . S
C317 C316 1.386 1_545 S
C317 C321 1.393 . S
C318 H310 0.950 . S
C318 C316 1.391 . S
C318 C319 1.400 1_565 S
C319 C318 1.400 1_545 S
C319 C320 1.398 . S
C319 C325 1.491 . S
C320 H311 0.950 . S
C320 C319 1.398 . S
C320 C321 1.391 . S
C321 H309 0.950 . S
C321 C317 1.393 . S
C321 C320 1.391 . S
C322 H312 0.950 . S
C322 C323 1.386 . S
C322 C324 1.391 . S
C323 C322 1.386 . S
C323 C327 1.393 1_545 S
C324 H313 0.950 . S
C324 C322 1.391 . S
C324 C325 1.400 . S
C325 C319 1.491 . S
C325 C324 1.400 . S
C325 C326 1.398 1_545 S
C326 H314 0.950 . S
C326 C325 1.398 1_565 S
C326 C327 1.391 . S
C327 H315 0.950 . S
C327 C323 1.393 1_565 S
C327 C326 1.391 . S
H328 C336 0.950 . S
H329 C341 0.950 . S
H330 C338 0.950 . S
H331 C340 0.950 . S
H332 C342 0.950 . S
H333 C344 0.950 . S
H334 C346 0.950 . S
H335 C347 0.950 . S
C336 H328 0.950 . S
C336 C337 1.386 . S
C336 C338 1.391 . S
C337 C336 1.386 . S
C337 C341 1.393 . S
C338 H330 0.950 . S
C338 C336 1.391 . S
C338 C339 1.400 . S
C339 C338 1.400 . S
C339 C340 1.398 . S
C339 C345 1.491 . S
C340 H331 0.950 . S
C340 C339 1.398 . S
C340 C341 1.391 . S
C341 H329 0.950 . S
C341 C337 1.393 . S
C341 C340 1.391 . S
C342 H332 0.950 . S
C342 C343 1.386 . S
C342 C344 1.391 . S
C343 C342 1.386 . S
C343 C347 1.393 . S
C344 H333 0.950 . S
C344 C342 1.391 . S
C344 C345 1.400 . S
C345 C339 1.491 . S
C345 C344 1.400 . S
C345 C346 1.398 . S
C346 H334 0.950 . S
C346 C345 1.398 . S
C346 C347 1.391 . S
C347 H335 0.950 . S
C347 C343 1.393 . S
C347 C346 1.391 . S
H348 C356 0.950 . S
H349 C361 0.950 . S
H350 C358 0.950 . S
H351 C360 0.950 . S
H352 C362 0.950 . S
H353 C364 0.950 . S
H354 C366 0.950 . S
H355 C367 0.950 . S
C356 H348 0.950 . S
C356 C357 1.386 . S
C356 C358 1.391 . S
C357 C356 1.386 . S
C357 C361 1.393 1_545 S
C358 H350 0.950 . S
C358 C356 1.391 . S
C358 C359 1.400 . S
C359 C358 1.400 . S
C359 C360 1.398 1_545 S
C359 C365 1.491 . S
C360 H351 0.950 . S
C360 C359 1.398 1_565 S
C360 C361 1.391 . S
C361 H349 0.950 . S
C361 C357 1.393 1_565 S
C361 C360 1.391 . S
C362 H352 0.950 . S
C362 C363 1.386 1_565 S
C362 C364 1.391 . S
C363 C362 1.386 1_545 S
C363 C367 1.393 . S
C364 H353 0.950 . S
C364 C362 1.391 . S
C364 C365 1.400 1_565 S
C365 C359 1.491 . S
C365 C364 1.400 1_545 S
C365 C366 1.398 . S
C366 H354 0.950 . S
C366 C365 1.398 . S
C366 C367 1.391 . S
C367 H355 0.950 . S
C367 C363 1.393 . S
C367 C366 1.391 . S
H368 C376 0.950 . S
H369 C381 0.950 . S
H370 C378 0.950 . S
H371 C380 0.950 . S
H372 C382 0.950 . S
H373 C384 0.950 . S
H374 C386 0.950 . S
H375 C387 0.950 . S
C376 H368 0.950 . S
C376 C377 1.386 . S
C376 C378 1.391 1_554 S
C377 C376 1.386 . S
C377 C381 1.393 1_554 S
C378 H370 0.950 . S
C378 C376 1.391 1_556 S
C378 C379 1.400 . S
C379 C378 1.400 . S
C379 C380 1.398 . S
C379 C385 1.491 . S
C380 H371 0.950 . S
C380 C379 1.398 . S
C380 C381 1.391 . S
C381 H369 0.950 . S
C381 C377 1.393 1_556 S
C381 C380 1.391 . S
C382 H372 0.950 . S
C382 C383 1.386 . S
C382 C384 1.391 . S
C383 C382 1.386 . S
C383 C387 1.393 . S
C384 H373 0.950 . S
C384 C382 1.391 . S
C384 C385 1.400 . S
C385 C379 1.491 . S
C385 C384 1.400 . S
C385 C386 1.398 . S
C386 H374 0.950 . S
C386 C385 1.398 . S
C386 C387 1.391 . S
C387 H375 0.950 . S
C387 C383 1.393 . S
C387 C386 1.391 . S
H388 C396 0.950 . S
H389 C401 0.950 . S
H390 C398 0.950 . S
H391 C400 0.950 . S
H392 C402 0.950 . S
H393 C404 0.950 . S
H394 C406 0.950 . S
H395 C407 0.950 . S
C396 H388 0.950 . S
C396 C397 1.386 . S
C396 C398 1.391 . S
C397 C396 1.386 . S
C397 C401 1.393 1_455 S
C398 H390 0.950 . S
C398 C396 1.391 . S
C398 C399 1.400 . S
C399 C398 1.400 . S
C399 C400 1.398 1_455 S
C399 C405 1.491 . S
C400 H391 0.950 . S
C400 C399 1.398 1_655 S
C400 C401 1.391 . S
C401 H389 0.950 . S
C401 C397 1.393 1_655 S
C401 C400 1.391 . S
C402 H392 0.950 . S
C402 C403 1.386 1_655 S
C402 C404 1.391 . S
C403 C402 1.386 1_455 S
C403 C407 1.393 . S
C404 H393 0.950 . S
C404 C402 1.391 . S
C404 C405 1.400 1_655 S
C405 C399 1.491 . S
C405 C404 1.400 1_455 S
C405 C406 1.398 . S
C406 H394 0.950 . S
C406 C405 1.398 . S
C406 C407 1.391 . S
C407 H395 0.950 . S
C407 C403 1.393 . S
C407 C406 1.391 . S
H408 C416 0.950 . S
H409 C421 0.950 . S
H410 C418 0.950 . S
H411 C420 0.950 . S
H412 C422 0.950 . S
H413 C424 0.950 . S
H414 C426 0.950 . S
H415 C427 0.950 . S
C416 H408 0.950 . S
C416 C417 1.386 . S
C416 C418 1.391 . S
C417 C416 1.386 . S
C417 C421 1.393 1_545 S
C418 H410 0.950 . S
C418 C416 1.391 . S
C418 C419 1.400 . S
C419 C418 1.400 . S
C419 C420 1.398 1_545 S
C419 C425 1.491 . S
C420 H411 0.950 . S
C420 C419 1.398 1_565 S
C420 C421 1.391 . S
C421 H409 0.950 . S
C421 C417 1.393 1_565 S
C421 C420 1.391 . S
C422 H412 0.950 . S
C422 C423 1.386 1_565 S
C422 C424 1.391 . S
C423 C422 1.386 1_545 S
C423 C427 1.393 . S
C424 H413 0.950 . S
C424 C422 1.391 . S
C424 C425 1.400 1_565 S
C425 C419 1.491 . S
C425 C424 1.400 1_545 S
C425 C426 1.398 . S
C426 H414 0.950 . S
C426 C425 1.398 . S
C426 C427 1.391 . S
C427 H415 0.950 . S
C427 C423 1.393 . S
C427 C426 1.391 . S
H428 C436 0.950 . S
H429 C441 0.950 . S
H430 C438 0.950 . S
H431 C440 0.950 . S
H432 C442 0.950 . S
H433 C444 0.950 . S
H434 C446 0.950 . S
H435 C447 0.950 . S
C436 H428 0.950 . S
C436 C437 1.386 . S
C436 C438 1.391 1_554 S
C437 C436 1.386 . S
C437 C441 1.393 1_554 S
C438 H430 0.950 . S
C438 C436 1.391 1_556 S
C438 C439 1.400 . S
C439 C438 1.400 . S
C439 C440 1.398 . S
C439 C445 1.491 . S
C440 H431 0.950 . S
C440 C439 1.398 . S
C440 C441 1.391 . S
C441 H429 0.950 . S
C441 C437 1.393 1_556 S
C441 C440 1.391 . S
C442 H432 0.950 . S
C442 C443 1.386 . S
C442 C444 1.391 . S
C443 C442 1.386 . S
C443 C447 1.393 . S
C444 H433 0.950 . S
C444 C442 1.391 . S
C444 C445 1.400 . S
C445 C439 1.491 . S
C445 C444 1.400 . S
C445 C446 1.398 . S
C446 H434 0.950 . S
C446 C445 1.398 . S
C446 C447 1.391 . S
C447 H435 0.950 . S
C447 C443 1.393 . S
C447 C446 1.391 . S
H448 C456 0.950 . S
H449 C461 0.950 1_655 S
H450 C458 0.950 . S
H451 C460 0.950 1_655 S
H452 C462 0.950 1_655 S
H453 C464 0.950 1_655 S
H454 C466 0.950 . S
H455 C467 0.950 . S
C456 H448 0.950 . S
C456 C457 1.386 . S
C456 C458 1.391 . S
C457 C456 1.386 . S
C457 C461 1.393 . S
C458 H450 0.950 . S
C458 C456 1.391 . S
C458 C459 1.400 . S
C459 C458 1.400 . S
C459 C460 1.398 . S
C459 C465 1.491 . S
C460 H451 0.950 1_455 S
C460 C459 1.398 . S
C460 C461 1.391 . S
C461 H449 0.950 1_455 S
C461 C457 1.393 . S
C461 C460 1.391 . S
C462 H452 0.950 1_455 S
C462 C463 1.386 . S
C462 C464 1.391 . S
C463 C462 1.386 . S
C463 C467 1.393 . S
C464 H453 0.950 1_455 S
C464 C462 1.391 . S
C464 C465 1.400 . S
C465 C459 1.491 . S
C465 C464 1.400 . S
C465 C466 1.398 . S
C466 H454 0.950 . S
C466 C465 1.398 . S
C466 C467 1.391 . S
C467 H455 0.950 . S
C467 C463 1.393 . S
C467 C466 1.391 . S
C243 C95 1.352 . S
C237 C0 1.359 . S
C257 C25 1.402 . S
C263 C139 1.389 . S
C277 C33 1.439 . S
C283 C201 1.432 . S
C297 C11 1.366 . S
C303 C77 1.361 . S
C323 C157 1.372 . S
C317 C14 1.383 . S
C337 C37 1.445 . S
C343 C219 1.437 . S
C363 C133 1.611 . S
C357 C28 1.696 . S
C377 C9 1.738 . S
C383 C195 1.639 . S
C403 C71 1.657 . S
C397 C19 1.775 . S
C423 C151 1.601 . S
C417 C39 1.710 . S
C443 C213 1.655 . S
C437 C5 1.738 . S
C457 C23 1.780 . S
C463 C89 1.685 . S
