# Generated by pormake.
# Topology zzz, (3,6)-cn, num edge types: 1
# Building blocks:
#     Node 0, Type 0, BuildingBlock: MIDCAF_clean_linker_0, # of connection points: 3
#     Node 1, Type 0, BuildingBlock: MIDCAF_clean_linker_0, # of connection points: 3
#     Node 2, Type 0, BuildingBlock: MIDCAF_clean_linker_0, # of connection points: 3
#     Node 3, Type 0, BuildingBlock: MIDCAF_clean_linker_0, # of connection points: 3
#     Node 4, Type 0, BuildingBlock: MIDCAF_clean_linker_0, # of connection points: 3
#     Node 5, Type 0, BuildingBlock: MIDCAF_clean_linker_0, # of connection points: 3
#     Node 6, Type 0, BuildingBlock: MIDCAF_clean_linker_0, # of connection points: 3
#     Node 7, Type 0, BuildingBlock: MIDCAF_clean_linker_0, # of connection points: 3
#     Node 8, Type 1, BuildingBlock: HISSIN_clean_sbu_0, # of connection points: 6
#     Node 9, Type 1, BuildingBlock: HISSIN_clean_sbu_0, # of connection points: 6
#     Node 10, Type 1, BuildingBlock: HISSIN_clean_sbu_0, # of connection points: 6
#     Node 11, Type 1, BuildingBlock: HISSIN_clean_sbu_0, # of connection points: 6
#     Edge 12, Type (0, 1), BuildingBlock: OJICUG_clean_linker_0, # of connection points: 2
#     Edge 13, Type (0, 1), BuildingBlock: OJICUG_clean_linker_0, # of connection points: 2
#     Edge 14, Type (0, 1), BuildingBlock: OJICUG_clean_linker_0, # of connection points: 2
#     Edge 15, Type (0, 1), BuildingBlock: OJICUG_clean_linker_0, # of connection points: 2
#     Edge 16, Type (0, 1), BuildingBlock: OJICUG_clean_linker_0, # of connection points: 2
#     Edge 17, Type (0, 1), BuildingBlock: OJICUG_clean_linker_0, # of connection points: 2
#     Edge 18, Type (0, 1), BuildingBlock: OJICUG_clean_linker_0, # of connection points: 2
#     Edge 19, Type (0, 1), BuildingBlock: OJICUG_clean_linker_0, # of connection points: 2
#     Edge 20, Type (0, 1), BuildingBlock: OJICUG_clean_linker_0, # of connection points: 2
#     Edge 21, Type (0, 1), BuildingBlock: OJICUG_clean_linker_0, # of connection points: 2
#     Edge 22, Type (0, 1), BuildingBlock: OJICUG_clean_linker_0, # of connection points: 2
#     Edge 23, Type (0, 1), BuildingBlock: OJICUG_clean_linker_0, # of connection points: 2
#     Edge 24, Type (0, 1), BuildingBlock: OJICUG_clean_linker_0, # of connection points: 2
#     Edge 25, Type (0, 1), BuildingBlock: OJICUG_clean_linker_0, # of connection points: 2
#     Edge 26, Type (0, 1), BuildingBlock: OJICUG_clean_linker_0, # of connection points: 2
#     Edge 27, Type (0, 1), BuildingBlock: OJICUG_clean_linker_0, # of connection points: 2
#     Edge 28, Type (0, 1), BuildingBlock: OJICUG_clean_linker_0, # of connection points: 2
#     Edge 29, Type (0, 1), BuildingBlock: OJICUG_clean_linker_0, # of connection points: 2
#     Edge 30, Type (0, 1), BuildingBlock: OJICUG_clean_linker_0, # of connection points: 2
#     Edge 31, Type (0, 1), BuildingBlock: OJICUG_clean_linker_0, # of connection points: 2
#     Edge 32, Type (0, 1), BuildingBlock: OJICUG_clean_linker_0, # of connection points: 2
#     Edge 33, Type (0, 1), BuildingBlock: OJICUG_clean_linker_0, # of connection points: 2
#     Edge 34, Type (0, 1), BuildingBlock: OJICUG_clean_linker_0, # of connection points: 2
#     Edge 35, Type (0, 1), BuildingBlock: OJICUG_clean_linker_0, # of connection points: 2
# Relax obj value: 0.456
# Max RMSD: 0.242
# Mean RMSD: 0.196
data_MOF--net-zzz--node1-HISSIN_clean_sbu_0--node2-MIDCAF_clean_linker_0--edge1-OJICUG_clean_linker_0
_symmetry_space_group_name_H-M    P1
_symmetry_Int_Tables_number       1
_symmetry_cell_setting            triclinic
loop_
_symmetry_equiv_pos_as_xyz
'x, y, z'
_cell_length_a     43.47908
_cell_length_b     43.469178
_cell_length_c     16.840545
_cell_angle_alpha  90.366116
_cell_angle_beta   91.516138
_cell_angle_gamma 91.49111
loop_
_atom_site_label
_atom_site_type_symbol
_atom_site_fract_x
_atom_site_fract_y
_atom_site_fract_z
_atom_type_partial_charge
C0 C 0.82529 0.5437 0.45927 0.0
C1 C 0.82857 0.52741 0.53124 0.0
C2 C 0.80335 0.50898 0.55522 0.0
C3 C 0.77706 0.50477 0.50587 0.0
H4 H 0.65147 0.50417 0.27439 0.0
H5 H 0.61505 0.51758 0.1676 0.0
H6 H 0.68847 0.56418 0.04487 0.0
H7 H 0.72473 0.55082 0.15247 0.0
H8 H 0.73398 0.44643 0.13142 0.0
H9 H 0.77006 0.41533 0.06299 0.0
H10 H 0.80773 0.38472 0.28842 0.0
H11 H 0.77247 0.41773 0.35718 0.0
H12 H 0.79798 0.55065 0.35266 0.0
H13 H 0.84408 0.5579 0.43783 0.0
H14 H 0.80435 0.49666 0.61084 0.0
H15 H 0.75922 0.48852 0.52346 0.0
N16 N 0.73146 0.5237 0.33077 0.0
N17 N 0.71869 0.48078 0.24895 0.0
N18 N 0.75704 0.47702 0.3477 0.0
C19 C 0.71361 0.51023 0.27113 0.0
C20 C 0.7404 0.46405 0.28662 0.0
C21 C 0.75284 0.50653 0.37058 0.0
C22 C 0.69076 0.52717 0.22281 0.0
C23 C 0.65945 0.51854 0.22637 0.0
C24 C 0.63864 0.52604 0.16474 0.0
C25 C 0.6488 0.54174 0.09699 0.0
C26 C 0.67986 0.55186 0.09573 0.0
C27 C 0.70057 0.54469 0.15798 0.0
C28 C 0.75145 0.43565 0.24958 0.0
C29 C 0.74911 0.43219 0.16667 0.0
C30 C 0.76993 0.41406 0.12714 0.0
C31 C 0.79302 0.39863 0.17008 0.0
C32 C 0.79126 0.39753 0.2534 0.0
C33 C 0.7709 0.41625 0.29294 0.0
C34 C 0.77473 0.51945 0.43197 0.0
C35 C 0.79868 0.53978 0.41036 0.0
C36 C 0.95557 0.83315 0.48866 0.0
C37 C 0.98565 0.84584 0.49276 0.0
C38 C 1.00878 0.8302 0.45254 0.0
C39 C 1.00139 0.80414 0.40428 0.0
H40 H 0.01789 0.71909 0.17881 0.0
H41 H 0.03005 0.67594 0.09113 0.0
H42 H 0.94075 0.63431 0.13332 0.0
H43 H 0.92914 0.67706 0.22082 0.0
H44 H 0.91492 0.75642 0.05482 0.0
H45 H 0.92096 0.79462 0.95155 0.0
H46 H 0.91092 0.86695 0.12521 0.0
H47 H 0.90357 0.82901 0.22716 0.0
H48 H 0.92443 0.79954 0.43568 0.0
H49 H 0.93723 0.84405 0.51978 0.0
H50 H 0.03222 0.83929 0.45413 0.0
H51 H 0.01913 0.79429 0.36882 0.0
N52 N 0.97254 0.74611 0.30511 0.0
N53 N 0.93907 0.74399 0.19233 0.0
N54 N 0.93785 0.78575 0.27922 0.0
C55 C 0.96112 0.73083 0.23831 0.0
C56 C 0.92746 0.77153 0.21172 0.0
C57 C 0.96002 0.7736 0.32655 0.0
C58 C 0.97289 0.70111 0.20872 0.0
C59 C 1.00152 0.69998 0.17205 0.0
C60 C 1.00815 0.67549 0.12033 0.0
C61 C 0.9863 0.65149 0.10388 0.0
C62 C 0.95842 0.65192 0.14459 0.0
C63 C 0.95178 0.67642 0.19555 0.0
C64 C 0.91156 0.78994 0.15018 0.0
C65 C 0.9122 0.7804 0.0703 0.0
C66 C 0.91576 0.80237 1.01087 0.0
C67 C 0.91903 0.8337 0.03165 0.0
C68 C 0.90992 0.84294 0.10748 0.0
C69 C 0.90589 0.82101 0.16659 0.0
C70 C 0.97077 0.793 0.39598 0.0
C71 C 0.9483 0.80725 0.44121 0.0
C72 C 0.70363 0.96682 0.44842 0.0
C73 C 0.69072 0.99615 0.44544 0.0
C74 C 0.70571 0.01878 0.39906 0.0
C75 C 0.73142 0.01153 0.35299 0.0
H76 H 0.86247 0.94724 0.20478 0.0
H77 H 0.90405 0.95862 0.11442 0.0
H78 H 0.85514 0.03721 0.0269 0.0
H79 H 0.81319 0.02522 0.11752 0.0
H80 H 0.78665 0.91127 0.04223 0.0
H81 H 0.75015 0.90958 0.9307 0.0
H82 H 0.67527 0.90407 0.09393 0.0
H83 H 0.71149 0.90425 0.20416 0.0
H84 H 0.73711 0.93629 0.4041 0.0
H85 H 0.69351 0.9489 0.48453 0.0
H86 H 0.69658 0.04166 0.39488 0.0
H87 H 0.74089 0.02878 0.31377 0.0
N88 N 0.78975 0.98483 0.26414 0.0
N89 N 0.79492 0.94622 0.16643 0.0
N90 N 0.75309 0.94415 0.24984 0.0
C91 C 0.80612 0.97207 0.20361 0.0
C92 C 0.76836 0.93223 0.1883 0.0
C93 C 0.76325 0.97004 0.28868 0.0
C94 C 0.83486 0.98589 0.17063 0.0
C95 C 0.86121 0.96778 0.16879 0.0
C96 C 0.88505 0.9742 0.11605 0.0
C97 C 0.88322 0.99879 0.06208 0.0
C98 C 0.85743 0.01784 0.06651 0.0
C99 C 0.83359 0.01145 0.11993 0.0
C100 C 0.75162 0.91109 0.13182 0.0
C101 C 0.76245 0.9079 0.05429 0.0
C102 C 0.74144 0.90703 0.99003 0.0
C103 C 0.70987 0.91 1.0038 0.0
C104 C 0.69948 0.90369 0.08066 0.0
C105 C 0.72045 0.90399 0.14474 0.0
C106 C 0.74291 0.98153 0.35263 0.0
C107 C 0.7291 0.95969 0.40294 0.0
C108 C 0.38703 0.728 0.08457 0.0
C109 C 0.38248 0.7384 1.00625 0.0
C110 C 0.3951 0.76729 0.98572 0.0
C111 C 0.41565 0.78295 0.03794 0.0
H112 H 0.5106 0.86943 0.19754 0.0
H113 H 0.52368 0.91068 0.10449 0.0
H114 H 0.53927 0.84273 0.92293 0.0
H115 H 0.52602 0.80186 1.01583 0.0
H116 H 0.45317 0.74258 0.35871 0.0
H117 H 0.46532 0.70304 0.45327 0.0
H118 H 0.56182 0.71387 0.4017 0.0
H119 H 0.54915 0.75338 0.30301 0.0
H120 H 0.41241 0.73349 0.19411 0.0
H121 H 0.37768 0.70593 0.10305 0.0
H122 H 0.39139 0.77637 0.92658 0.0
H123 H 0.42711 0.80373 1.01745 0.0
N124 N 0.47075 0.80248 0.12418 0.0
N125 N 0.50936 0.79314 0.2215 0.0
N126 N 0.46222 0.76519 0.22036 0.0
C127 C 0.49902 0.8092 0.15658 0.0
C128 C 0.4905 0.77108 0.25423 0.0
C129 C 0.45212 0.78065 0.15563 0.0
C130 C 0.51798 0.83239 0.11454 0.0
C131 C 0.51837 0.86337 0.13902 0.0
C132 C 0.52555 0.887 0.08525 0.0
C133 C 0.53204 0.88011 1.00555 0.0
C134 C 0.53392 0.84897 0.98328 0.0
C135 C 0.52688 0.82548 0.03696 0.0
C136 C 0.50012 0.75124 0.32241 0.0
C137 C 0.47713 0.73695 0.36782 0.0
C138 C 0.4842 0.71422 0.42316 0.0
C139 C 0.51465 0.70486 0.43601 0.0
C140 C 0.53802 0.72006 0.39307 0.0
C141 C 0.53085 0.74306 0.33711 0.0
C142 C 0.42372 0.77006 0.11181 0.0
C143 C 0.4074 0.7437 0.13687 0.0
C144 C 0.21697 0.52518 0.93715 0.0
C145 C 0.20111 0.50047 0.89813 0.0
C146 C 0.21556 0.47202 0.89412 0.0
C147 C 0.24378 0.46755 0.93374 0.0
H148 H 0.37845 0.46509 0.13538 0.0
H149 H 0.42008 0.47745 0.23162 0.0
H150 H 0.36829 0.5532 0.32016 0.0
H151 H 0.32669 0.54054 0.2236 0.0
H152 H 0.28858 0.45613 0.3259 0.0
H153 H 0.2451 0.46482 0.40911 0.0
H154 H 0.18364 0.4261 0.22709 0.0
H155 H 0.22728 0.41753 0.14299 0.0
H156 H 0.25524 0.53902 1.01454 0.0
H157 H 0.20636 0.54737 0.9414 0.0
H158 H 0.2041 0.45264 0.86404 0.0
H159 H 0.25287 0.44457 0.93476 0.0
N160 N 0.30574 0.49663 0.06994 0.0
N161 N 0.30769 0.46589 0.18501 0.0
N162 N 0.26642 0.4601 0.09509 0.0
C163 C 0.32093 0.48746 0.13809 0.0
C164 C 0.28034 0.45222 0.16434 0.0
C165 C 0.27852 0.48194 0.04742 0.0
C166 C 0.34968 0.50241 0.17018 0.0
C167 C 0.37673 0.48538 0.17258 0.0
C168 C 0.40047 0.49229 0.2286 0.0
C169 C 0.39749 0.51608 0.28485 0.0
C170 C 0.37128 0.53444 0.27869 0.0
C171 C 0.34768 0.52765 0.22212 0.0
C172 C 0.26097 0.43822 0.22579 0.0
C173 C 0.26608 0.44775 0.30508 0.0
C174 C 0.24103 0.45291 0.35296 0.0
C175 C 0.21098 0.44778 0.32222 0.0
C176 C 0.20663 0.43144 0.25051 0.0
C177 C 0.23169 0.42625 0.20275 0.0
C178 C 0.25826 0.49124 0.97961 0.0
C179 C 0.24524 0.52054 0.97804 0.0
C180 C 0.03539 0.21249 1.00181 0.0
C181 C 0.057 0.20197 0.9472 0.0
C182 C 0.08437 0.21952 0.93927 0.0
C183 C 0.09103 0.24518 0.98826 0.0
H184 H 0.02295 0.3299 0.23319 0.0
H185 H 1.00521 0.36848 0.32909 0.0
H186 H 0.0995 0.39457 0.38728 0.0
H187 H 0.117 0.35731 0.29176 0.0
H188 H 0.14511 0.28893 0.36803 0.0
H189 H 0.14224 0.25001 0.47034 0.0
H190 H 0.14103 0.17901 0.28969 0.0
H191 H 0.14513 0.2176 0.18847 0.0
H192 H 0.02635 0.24403 0.09748 0.0
H193 H 0.01407 0.19961 1.00995 0.0
H194 H 0.10133 0.21272 0.89708 0.0
H195 H 0.11335 0.25666 0.98401 0.0
N196 N 0.0701 0.2983 0.14769 0.0
N197 N 0.10938 0.30038 0.24698 0.0
N198 N 0.10909 0.26156 0.15151 0.0
C199 C 0.08392 0.31274 0.21299 0.0
C200 C 0.122 0.27475 0.21762 0.0
C201 C 0.08357 0.27286 0.11558 0.0
C202 C 0.07145 0.34017 0.25481 0.0
C203 C 0.03978 0.34455 0.26467 0.0
C204 C 0.02965 0.36647 0.32018 0.0
C205 C 0.051 0.38413 0.36741 0.0
C206 C 0.08243 0.38096 0.35354 0.0
C207 C 0.09242 0.3596 0.29807 0.0
C208 C 0.14202 0.25616 0.27009 0.0
C209 C 0.1461 0.26498 0.35029 0.0
C210 C 0.14435 0.2426 0.40922 0.0
C211 C 0.13829 0.2117 0.38741 0.0
C212 C 0.14388 0.20278 0.30871 0.0
C213 C 0.14611 0.22513 0.24997 0.0
C214 C 0.0706 0.25436 0.04695 0.0
C215 C 0.0422 0.23828 0.05143 0.0
C216 C 0.34816 0.03447 0.02078 0.0
C217 C 0.34889 0.04432 0.94103 0.0
C218 C 0.32196 0.05736 0.90882 0.0
C219 C 0.2963 0.06256 0.95624 0.0
H220 H 0.22673 0.0213 0.26182 0.0
H221 H 0.18654 1.00927 0.35835 0.0
H222 H 0.1486 0.09894 0.32075 0.0
H223 H 0.18819 0.11063 0.22558 0.0
H224 H 0.27766 0.13775 0.3191 0.0
H225 H 0.32845 0.14555 0.37725 0.0
H226 H 0.36399 0.16641 0.14623 0.0
H227 H 0.3128 0.15783 0.08759 0.0
H228 H 0.32384 0.03393 0.13051 0.0
H229 H 0.36808 0.02397 0.04807 0.0
H230 H 0.32142 0.06562 0.8483 0.0
H231 H 0.27733 0.0753 0.93122 0.0
N232 N 0.25236 0.05952 0.13333 0.0
N233 N 0.2491 0.10656 0.20344 0.0
N234 N 0.28679 0.10085 0.10899 0.0
C235 C 0.23775 0.0776 0.18772 0.0
C236 C 0.27355 0.11834 0.16449 0.0
C237 C 0.27679 0.07179 0.09244 0.0
C238 C 0.21067 0.06685 0.23498 0.0
C239 C 0.20931 0.03806 0.27281 0.0
C240 C 0.18646 0.03138 0.32915 0.0
C241 C 0.16407 0.05313 0.34827 0.0
C242 C 0.16495 0.08135 0.30774 0.0
C243 C 0.18785 0.08811 0.25278 0.0
C244 C 0.29205 0.14451 0.19812 0.0
C245 C 0.29577 0.14605 0.2811 0.0
C246 C 0.32526 0.15053 0.3147 0.0
C247 C 0.35067 0.15395 0.265 0.0
C248 C 0.345 0.162 0.18533 0.0
C249 C 0.31553 0.15727 0.15172 0.0
C250 C 0.29631 0.05432 0.03703 0.0
C251 C 0.32235 0.03943 0.06789 0.0
C252 C 0.66027 0.34189 0.25335 0.0
C253 C 0.66957 0.33146 0.32924 0.0
C254 C 0.65999 0.30151 0.35125 0.0
C255 C 0.63773 0.28503 0.30542 0.0
H256 H 0.52611 0.2645 0.35388 0.0
H257 H 0.51032 0.22454 0.44667 0.0
H258 H 0.52278 0.15559 0.26503 0.0
H259 H 0.53724 0.19604 0.17189 0.0
H260 H 0.49847 0.31599 0.07346 0.0
H261 H 0.48608 0.35641 0.97739 0.0
H262 H 0.57751 0.3512 0.88461 0.0
H263 H 0.58922 0.31072 0.97796 0.0
H264 H 0.63051 0.33531 0.15204 0.0
H265 H 0.66691 0.36443 0.23206 0.0
H266 H 0.66776 0.2916 0.40675 0.0
H267 H 0.62878 0.26335 0.32768 0.0
N268 N 0.57867 0.26439 0.23635 0.0
N269 N 0.53815 0.27052 0.142 0.0
N270 N 0.58472 0.29881 0.13195 0.0
C271 C 0.54992 0.25643 0.20854 0.0
C272 C 0.55599 0.29177 0.10298 0.0
C273 C 0.59629 0.28546 0.19824 0.0
C274 C 0.53218 0.23348 0.25505 0.0
C275 C 0.52424 0.24087 0.3331 0.0
C276 C 0.51577 0.21778 0.3868 0.0
C277 C 0.51567 0.18644 0.3646 0.0
C278 C 0.52213 0.17929 0.28484 0.0
C279 C 0.5303 0.20252 0.23086 0.0
C280 C 0.54483 0.31004 0.0336 0.0
C281 C 0.51543 0.32277 0.03055 0.0
C282 C 0.50858 0.34635 0.97614 0.0
C283 C 0.53091 0.35768 0.92328 0.0
C284 C 0.55949 0.34325 0.92319 0.0
C285 C 0.56629 0.31992 0.97732 0.0
C286 C 0.62544 0.29772 0.23531 0.0
C287 C 0.63874 0.32513 0.2069 0.0
Eu288 Eu 0.99955 0.0405 0.65041 0.0
Eu289 Eu 0.05047 0.01135 0.7693 0.0
C290 C 0.0388 0.08366 0.77886 0.0
C291 C 0.98335 0.10107 0.51633 0.0
C292 C 0.99057 0.12668 0.56576 0.0
C293 C 0.02349 0.11804 0.42764 0.0
C294 C 0.01537 0.14638 0.54912 0.0
C295 C 0.99864 0.09835 0.44418 0.0
C296 C 0.03314 0.14112 0.48225 0.0
C297 C 0.9687 0.07328 0.55087 0.0
O298 O 1.00582 0.01233 0.838 0.0
O299 O 0.96825 0.02027 0.74278 0.0
C300 C 0.97653 0.01385 0.81638 0.0
O301 O 0.99393 0.99011 0.61751 0.0
O302 O 0.06893 1.00799 0.89083 0.0
O303 O 0.08671 0.97915 0.79901 0.0
O304 O 0.0302 0.96961 0.70219 0.0
C305 C 1.00907 0.96646 0.64504 0.0
O306 O 0.0453 0.04716 0.58782 0.0
O307 O 0.08014 0.02058 0.66341 0.0
O308 O 0.0601 0.06274 0.78254 0.0
O309 O 0.98087 0.04738 0.53031 0.0
O310 O 0.96418 0.07441 0.62714 0.0
O311 O 1.01231 0.07757 0.74215 0.0
C312 C 0.06818 0.95461 0.91331 0.0
C313 C 0.06502 0.92685 0.86996 0.0
C314 C 0.02616 0.93753 0.99605 0.0
C315 C 0.04121 0.90584 0.88571 0.0
C316 C 0.04992 0.95861 0.98014 0.0
C317 C 0.02053 0.91185 0.94619 0.0
C318 C 0.08196 0.98203 0.87487 0.0
C319 C 0.07293 0.03583 0.59877 0.0
H320 H 0.97915 0.12979 0.62153 0.0
H321 H 0.03614 0.11418 0.37407 0.0
H322 H 0.02197 0.16429 0.59173 0.0
H323 H 0.99348 0.0791 0.40441 0.0
H324 H 0.07886 0.92274 0.81858 0.0
H325 H 1.01128 0.94212 0.0451 0.0
H326 H 0.03776 0.88604 0.84682 0.0
H327 H 0.05198 0.97951 1.0155 0.0
Eu328 Eu 0.53746 0.05308 0.74596 0.0
Eu329 Eu 0.50152 0.01068 0.61502 0.0
C330 C 0.52858 0.97913 0.77304 0.0
C331 C 0.60152 0.06193 0.87985 0.0
C332 C 0.62505 0.05579 0.82639 0.0
C333 C 0.6184 0.01914 0.96069 0.0
C334 C 0.6438 0.03055 0.83772 0.0
C335 C 0.59976 0.0445 0.94967 0.0
C336 C 0.63952 0.0111 0.90286 0.0
C337 C 0.57403 0.07842 0.85163 0.0
O338 O 0.46269 0.03115 0.68544 0.0
O339 O 0.48962 0.04839 0.79639 0.0
C340 C 0.46334 0.04094 0.75974 0.0
O341 O 0.51553 0.08906 0.66802 0.0
O342 O 0.4622 0.98309 0.56844 0.0
O343 O 0.50017 0.99382 0.49254 0.0
O344 O 0.50866 0.05757 0.5596 0.0
C345 C 0.51008 0.08522 0.59142 0.0
O346 O 0.57174 0.04384 0.6492 0.0
O347 O 0.55173 0.9981 0.60317 0.0
O348 O 0.50729 0.97741 0.71619 0.0
O349 O 0.57386 0.08703 0.7775 0.0
O350 O 0.54788 0.06525 0.86993 0.0
O351 O 0.54644 1.00385 0.78262 0.0
C352 C 0.45103 1.00588 0.44389 0.0
C353 C 0.46219 0.0169 0.3714 0.0
C354 C 0.41308 0.04595 0.44144 0.0
C355 C 0.44983 0.0431 0.33635 0.0
C356 C 0.42525 0.01978 0.47613 0.0
C357 C 0.42613 0.05868 0.37332 0.0
C358 C 0.47089 0.98682 0.49537 0.0
C359 C 0.57487 0.01817 0.609 0.0
H360 H 0.62726 0.06874 0.772 0.0
H361 H 0.6154 1.00506 1.01292 0.0
H362 H 0.66027 0.02515 0.79286 0.0
H363 H 0.58201 0.04867 0.9921 0.0
H364 H 0.48208 1.00676 0.34523 0.0
H365 H 0.39396 0.05679 0.46946 0.0
H366 H 0.46 0.05217 0.28304 0.0
H367 H 0.41581 0.01192 0.53155 0.0
Eu368 Eu 0.49631 0.54347 0.74394 0.0
Eu369 Eu 0.55413 0.52355 0.63163 0.0
C370 C 0.56608 0.54208 0.81798 0.0
C371 C 0.42384 0.57826 0.82894 0.0
C372 C 0.41838 0.59713 0.76312 0.0
C373 C 0.38751 0.60701 0.90418 0.0
C374 C 0.39851 0.6218 0.76918 0.0
C375 C 0.40711 0.58229 0.89777 0.0
C376 C 0.38442 0.62821 0.84167 0.0
C377 C 0.45018 0.55797 0.83201 0.0
O378 O 0.53649 0.47808 0.68255 0.0
O379 O 0.50914 0.49639 0.78691 0.0
C380 C 0.52228 0.47371 0.75003 0.0
O381 O 0.47334 0.52677 0.62858 0.0
O382 O 0.60319 0.52801 0.60612 0.0
O383 O 0.57271 0.49949 0.53098 0.0
O384 O 0.514 0.52737 0.54413 0.0
C385 C 0.48427 0.52575 0.5565 0.0
O386 O 0.50342 0.58475 0.66489 0.0
O387 O 0.55112 0.57519 0.61524 0.0
O388 O 0.57436 0.5258 0.75655 0.0
O389 O 0.44949 0.53434 0.78385 0.0
O390 O 0.47705 0.57202 0.83544 0.0
O391 O 0.5391 0.55504 0.81953 0.0
C392 C 0.62375 0.48355 0.54824 0.0
C393 C 0.61541 0.45399 0.57369 0.0
C394 C 0.67246 0.46427 0.50429 0.0
C395 C 0.63456 0.42942 0.56016 0.0
C396 C 0.65288 0.48883 0.51651 0.0
C397 C 0.66285 0.43387 0.52191 0.0
C398 C 0.60114 0.50811 0.54786 0.0
C399 C 0.52758 0.59327 0.62416 0.0
H400 H 0.43109 0.59414 0.70924 0.0
H401 H 0.37738 0.61108 0.96121 0.0
H402 H 0.39619 0.63726 0.71932 0.0
H403 H 0.41109 0.56784 0.94904 0.0
H404 H 0.59318 0.44949 0.59949 0.0
H405 H 0.69436 0.46901 0.47717 0.0
H406 H 0.6257 0.40669 0.5743 0.0
H407 H 0.6599 0.51169 0.49775 0.0
Eu408 Eu 0.02095 0.53932 0.67401 0.0
Eu409 Eu 1.00158 0.48608 0.79721 0.0
C410 C 0.07267 0.50747 0.78989 0.0
C411 C 0.06903 0.55587 0.5153 0.0
C412 C 0.07346 0.52472 0.53154 0.0
C413 C 0.1121 0.55475 0.42644 0.0
C414 C 0.09667 0.50873 0.49712 0.0
C415 C 0.08836 0.57102 0.4619 0.0
C416 C 0.11662 0.52359 0.44551 0.0
C417 C 0.04537 0.57103 0.56118 0.0
O418 O 0.9913 0.53019 0.86424 0.0
O419 O 0.01503 0.56699 0.78695 0.0
C420 C 1.00139 0.55875 0.85292 0.0
O421 O 0.96989 0.54591 0.68031 0.0
O422 O 0.99532 0.46554 0.91409 0.0
O423 O 0.98423 0.43891 0.80762 0.0
O424 O 0.95851 0.49695 0.72281 0.0
C425 C 0.94998 0.52302 0.68987 0.0
O426 O 1.00812 0.4952 0.6059 0.0
O427 O 0.02757 0.4635 0.69802 0.0
O428 O 0.05099 0.49629 0.83499 0.0
O429 O 0.01805 0.55802 0.55363 0.0
O430 O 0.05317 0.57553 0.63576 0.0
O431 O 0.0659 0.51953 0.7205 0.0
C432 C 0.95649 0.42682 0.92197 0.0
C433 C 0.92696 0.43391 0.89334 0.0
C434 C 0.9339 0.3955 0.02504 0.0
C435 C 0.90099 0.42202 0.93087 0.0
C436 C 0.95982 0.40726 0.98722 0.0
C437 C 0.90423 0.40308 0.99787 0.0
C438 C 0.98409 0.43963 0.88496 0.0
C439 C 0.0201 0.46876 0.62363 0.0
H440 H 0.05941 0.5127 0.57309 0.0
H441 H 0.12733 0.56658 0.3862 0.0
H442 H 0.0992 0.48465 0.51177 0.0
H443 H 0.08552 0.59516 0.44896 0.0
H444 H 0.924 0.44904 0.84296 0.0
H445 H 0.93705 0.38093 0.07641 0.0
H446 H 0.87844 0.42871 0.9095 0.0
H447 H 0.98251 0.40144 1.00967 0.0
C448 C 0.14817 0.03257 0.48344 0.0
C449 C 0.14046 0.04731 0.41148 0.0
H450 H 0.13361 0.01777 0.59853 0.0
C451 C 0.11015 0.05783 0.40202 0.0
H452 H 0.17122 0.02436 0.49384 0.0
C453 C 0.08855 0.05416 0.46235 0.0
C454 C 0.09639 0.03998 0.53486 0.0
H455 H 0.10295 0.06892 0.34748 0.0
H456 H 0.06558 0.06255 0.45186 0.0
C457 C 0.12655 0.02902 0.54409 0.0
C458 C 0.49752 0.13271 0.40419 0.0
C459 C 0.51123 0.16144 0.42538 0.0
H460 H 0.48628 0.08658 0.43948 0.0
C461 C 0.5223 0.16542 0.50456 0.0
H462 H 0.48804 0.12867 0.34484 0.0
C463 C 0.52065 0.14128 0.55962 0.0
C464 C 0.50825 0.11225 0.53705 0.0
H465 H 0.53346 0.18686 0.52362 0.0
H466 H 0.53032 0.14501 0.61893 0.0
C467 C 0.49625 0.10851 0.45894 0.0
C468 C 0.45191 0.51651 0.34378 0.0
C469 C 0.42008 0.51979 0.35364 0.0
H470 H 0.49697 0.51593 0.39897 0.0
C471 C 0.40972 0.52508 0.43101 0.0
H472 H 0.46083 0.51255 0.28527 0.0
C473 C 0.43041 0.52678 0.49642 0.0
C474 C 0.46222 0.52345 0.48665 0.0
H475 H 0.38539 0.52721 0.44149 0.0
H476 H 0.42138 0.53075 0.55482 0.0
C477 C 0.47268 0.5185 0.4092 0.0
C478 C 0.05548 0.40267 0.50983 0.0
C479 C 0.04134 0.40476 0.43378 0.0
H480 H 0.05966 0.42056 0.62895 0.0
C481 C 0.01932 0.42752 0.42158 0.0
H482 H 0.07247 0.38537 0.52153 0.0
C483 C 1.01235 0.44814 0.48311 0.0
C484 C 0.02666 0.44611 0.55905 0.0
H485 H 1.00815 0.42994 0.3638 0.0
H486 H 0.99575 0.46578 0.47106 0.0
C487 C 0.04806 0.42282 0.57166 0.0
C488 C 0.89901 0.01237 0.92134 0.0
C489 C 0.90723 1.00329 0.99924 0.0
H490 H 0.91377 0.02241 0.80317 0.0
C491 C 0.93853 0.99737 1.01545 0.0
H492 H 0.87522 0.01667 0.90549 0.0
C493 C 0.9607 1.00054 0.95637 0.0
C494 C 0.95246 1.00955 0.87852 0.0
H495 H 0.94609 0.99055 0.07437 0.0
H496 H 0.98444 0.99591 0.97205 0.0
C497 C 0.92119 0.01536 0.86203 0.0
C498 C 0.54886 0.93329 0.95925 0.0
C499 C 0.53345 0.9049 0.94401 0.0
H500 H 0.55995 0.97865 0.91712 0.0
C501 C 0.51777 0.90077 0.87024 0.0
H502 H 0.56129 0.93728 1.0151 0.0
C503 C 0.51683 0.9245 0.81426 0.0
C504 C 0.53181 0.95304 0.82985 0.0
H505 H 0.50524 0.87945 0.85664 0.0
H506 H 0.50389 0.92058 0.75912 0.0
C507 C 0.54824 0.95696 0.9027 0.0
C508 C 0.5969 0.55249 0.03159 0.0
C509 C 0.62797 0.54459 0.02504 0.0
H510 H 0.55319 0.55848 0.97181 0.0
C511 C 0.63863 0.53734 0.94914 0.0
H512 H 0.58789 0.55828 0.08898 0.0
C513 C 0.61871 0.53712 0.88223 0.0
C514 C 0.58755 0.54454 0.8888 0.0
H515 H 0.66223 0.53072 0.94172 0.0
H516 H 0.62773 0.53072 0.82528 0.0
C517 C 0.57703 0.55273 0.96427 0.0
C518 C 0.98027 0.59676 0.04964 0.0
C519 C 0.99138 0.62731 0.04101 0.0
H520 H 0.97455 0.55154 0.99848 0.0
C521 C 1.00596 0.63489 0.96965 0.0
H522 H 0.96921 0.58973 0.10368 0.0
C523 C 1.00903 0.61286 0.90893 0.0
C524 C 0.99768 0.5824 0.91737 0.0
H525 H 0.01442 0.65816 0.95965 0.0
H526 H 0.02026 0.61984 0.85506 0.0
C527 C 0.9834 0.57471 0.989 0.0
C528 C 0.1153 0.16067 0.4276 0.0
C529 C 0.11585 0.19295 0.43297 0.0
H530 H 0.08845 0.11907 0.43814 0.0
C531 C 0.09028 0.20752 0.46495 0.0
H532 H 0.13466 0.14864 0.40435 0.0
C533 C 0.06385 0.19058 0.48377 0.0
C534 C 0.06231 0.1587 0.47106 0.0
H535 H 0.0894 0.23235 0.46905 0.0
H536 H 0.04396 0.20273 0.50346 0.0
C537 C 0.0887 0.14376 0.44601 0.0
C538 C 0.38994 0.13668 0.36609 0.0
C539 C 0.37907 0.13726 0.28682 0.0
H540 H 0.41378 0.11114 0.45577 0.0
C541 C 0.38973 0.11511 0.23318 0.0
H542 H 0.38262 0.15364 0.40856 0.0
C543 C 0.40721 0.09067 0.26031 0.0
C544 C 0.41447 0.08797 0.34142 0.0
H545 H 0.38181 0.1145 0.17167 0.0
H546 H 0.41257 0.07252 0.21891 0.0
C547 C 0.40744 0.11217 0.39321 0.0
C548 C 0.69513 0.38266 0.36579 0.0
C549 C 0.68235 0.35419 0.38981 0.0
H550 H 0.69796 0.43089 0.38717 0.0
C551 C 0.6746 0.35121 0.47022 0.0
H552 H 0.70396 0.38563 0.30679 0.0
C553 C 0.67338 0.37718 0.5191 0.0
C554 C 0.67846 0.40673 0.48764 0.0
H555 H 0.66596 0.32972 0.49388 0.0
H556 H 0.66498 0.37424 0.57859 0.0
C557 C 0.69237 0.40887 0.41325 0.0
C558 C 0.16749 0.48342 0.30224 0.0
C559 C 0.18562 0.46565 0.35419 0.0
H560 H 0.13181 0.5164 0.29079 0.0
C561 C 0.18188 0.46837 0.43627 0.0
H562 H 0.17053 0.48245 0.23864 0.0
C563 C 0.16018 0.48819 0.4658 0.0
C564 C 0.14195 0.50575 0.41381 0.0
H565 H 0.19581 0.45527 0.47751 0.0
H566 H 0.15745 0.48967 0.52948 0.0
C567 C 0.14588 0.50337 0.33186 0.0
C568 C 0.93879 0.88588 0.98975 0.0
C569 C 0.94136 0.85371 0.98938 0.0
H570 H 0.96189 0.92955 0.97624 0.0
C571 C 0.96918 0.84104 0.96543 0.0
H572 H 0.91766 0.89638 1.0072 0.0
C573 C 0.99452 0.85994 0.94901 0.0
C574 C 0.9927 0.89197 0.95576 0.0
H575 H 0.97243 0.81643 0.96581 0.0
H576 H 0.01606 0.84931 0.93568 0.0
C577 C 0.96424 0.90483 0.97316 0.0
C578 C 0.70564 0.95705 0.92036 0.0
C579 C 0.69122 0.9306 0.95238 0.0
H580 H 0.70063 1.00338 0.88133 0.0
C581 C 0.65888 0.92909 0.95337 0.0
H582 H 0.73045 0.95951 0.91867 0.0
C583 C 0.64183 0.95486 0.93346 0.0
C584 C 0.65676 0.98235 0.91058 0.0
H585 H 0.64689 0.9089 0.97564 0.0
H586 H 0.6171 0.95377 0.93957 0.0
C587 C 0.68857 0.98261 0.89973 0.0
C588 C 0.35092 0.69208 0.95974 0.0
C589 C 0.37241 0.71581 0.94349 0.0
H590 H 0.33676 0.64525 0.93687 0.0
C591 C 0.39036 0.71309 0.87567 0.0
H592 H 0.33602 0.69386 1.01001 0.0
C593 C 0.39097 0.68527 0.83427 0.0
C594 C 0.37353 0.65964 0.85969 0.0
H595 H 0.40708 0.73085 0.86056 0.0
H596 H 0.40813 0.683 0.78934 0.0
C597 C 0.35141 0.66419 0.91789 0.0
C598 C 0.82199 0.38266 0.04921 0.0
C599 C 0.82207 0.39087 0.13026 0.0
H600 H 0.84812 0.38013 0.94316 0.0
C601 C 0.85053 0.3978 0.16914 0.0
H602 H 0.8007 0.37647 1.01761 0.0
C603 C 0.87759 0.39944 0.12675 0.0
C604 C 0.87692 0.39442 0.04437 0.0
H605 H 0.8518 0.40471 0.23101 0.0
H606 H 0.89862 0.40711 0.15757 0.0
C607 C 0.84913 0.38473 1.00649 0.0
C608 C 0.02345 0.16303 0.86844 0.0
C609 C 0.05227 0.17192 0.90249 0.0
H610 H 0.99675 0.12896 0.80212 0.0
C611 C 0.07676 0.15151 0.89436 0.0
H612 H 1.00407 0.17805 0.87281 0.0
C613 C 0.07255 0.12314 0.8542 0.0
C614 C 0.04376 0.11428 0.82005 0.0
H615 H 0.09922 0.15719 0.92055 0.0
H616 H 0.09192 0.1081 0.85023 0.0
C617 C 0.01932 0.13481 0.82741 0.0
C618 C 0.37747 0.0368 0.81141 0.0
C619 C 0.37814 0.04309 0.89386 0.0
H620 H 0.40314 0.03106 0.70493 0.0
C621 C 0.4072 0.04927 0.93067 0.0
H622 H 0.35577 0.03176 0.78043 0.0
C623 C 0.43444 0.04908 0.88711 0.0
C624 C 0.43382 0.04255 0.80491 0.0
H625 H 0.40899 0.05482 0.99342 0.0
H626 H 0.45612 0.0539 0.91843 0.0
C627 C 0.4048 0.03637 0.76784 0.0
C628 C 0.50952 0.41085 0.9041 0.0
C629 C 0.52586 0.38603 0.87382 0.0
H630 H 0.49551 0.45731 0.88962 0.0
C631 C 0.53945 0.38977 0.79904 0.0
H632 H 0.4991 0.40936 0.96167 0.0
C633 C 0.53772 0.41775 0.7576 0.0
C634 C 0.52224 0.44284 0.78948 0.0
H635 H 0.55186 0.37118 0.77273 0.0
H636 H 0.54907 0.41988 0.70135 0.0
C637 C 0.50771 0.43869 0.8627 0.0
C638 C 0.14568 0.48267 0.89981 0.0
C639 C 0.16833 0.50288 0.86988 0.0
H640 H 0.09803 0.4685 0.89929 0.0
C641 C 0.15928 0.52474 0.8133 0.0
H642 H 0.15188 0.46568 0.9438 0.0
C643 C 0.12838 0.52593 0.78633 0.0
C644 C 0.10566 0.50585 0.81692 0.0
H645 H 0.17618 0.54057 0.78908 0.0
H646 H 0.12221 0.54288 0.74223 0.0
C647 C 0.11476 0.48435 0.87443 0.0
C648 C 0.01785 0.88191 0.58376 0.0
C649 C 0.99184 0.87645 0.53351 0.0
H650 H 0.04335 0.91401 0.65957 0.0
C651 C 0.97142 0.90079 0.52167 0.0
H652 H 0.03402 0.86379 0.59465 0.0
C653 C 0.97688 0.92965 0.55812 0.0
C654 C 1.00276 0.93517 0.60865 0.0
H655 H 0.95134 0.89771 0.48273 0.0
H656 H 0.96071 0.94772 0.54643 0.0
C657 C 0.02307 0.91074 0.62139 0.0
C658 C 0.63719 0.97944 0.48887 0.0
C659 C 0.66104 1.00215 0.48753 0.0
H660 H 0.5919 0.96647 0.52689 0.0
C661 C 0.65607 0.03022 0.52693 0.0
H662 H 0.63968 0.95767 0.45843 0.0
C663 C 0.62845 0.03523 0.5668 0.0
C664 C 0.60464 0.0125 0.56786 0.0
H665 H 0.67374 0.04824 0.52804 0.0
H666 H 0.62575 0.0571 0.5966 0.0
C667 C 0.60952 0.98455 0.52802 0.0
C668 C 0.50302 0.67285 0.55769 0.0
C669 C 0.52106 0.67823 0.49046 0.0
H670 H 0.4908 0.64229 0.65186 0.0
C671 C 0.54339 0.65646 0.47251 0.0
H672 H 0.48614 0.68927 0.57529 0.0
C673 C 0.54649 0.62959 0.51796 0.0
C674 C 0.52719 0.62354 0.58226 0.0
H675 H 0.55759 0.65939 0.42114 0.0
H676 H 0.56315 0.61293 0.50041 0.0
C677 C 0.50583 0.64587 0.60231 0.0
C678 C 0.87886 0.55348 0.58022 0.0
C679 C 0.85881 0.52743 0.57738 0.0
H680 H 0.92286 0.57277 0.61798 0.0
C681 C 0.86869 0.50056 0.61599 0.0
H682 H 0.87217 0.57476 0.55241 0.0
C683 C 0.89764 0.49957 0.65461 0.0
C684 C 0.91796 0.5253 0.65552 0.0
H685 H 0.85452 0.47972 0.61425 0.0
H686 H 0.90441 0.47819 0.68182 0.0
C687 C 0.90798 0.55241 0.61854 0.0
loop_
_geom_bond_atom_site_label_1
_geom_bond_atom_site_label_2
_geom_bond_distance
_geom_bond_site_symmetry_2
_ccdc_geom_bond_type
C0 C1 1.384 . S
C0 H13 0.947 . S
C0 C35 1.382 . S
C1 C0 1.384 . S
C1 C2 1.378 . S
C2 C1 1.378 . S
C2 C3 1.378 . S
C2 H14 0.952 . S
C3 C2 1.378 . S
C3 H15 0.950 . S
C3 C34 1.383 . S
H4 C23 0.947 . S
H5 C24 0.946 . S
H6 C26 0.953 . S
H7 C27 0.945 . S
H8 C29 0.952 . S
H9 C30 0.949 1_556 S
H10 C32 0.950 . S
H11 C33 0.948 . S
H12 C35 0.951 . S
H13 C0 0.947 . S
H14 C2 0.952 . S
H15 C3 0.950 . S
N16 C19 1.382 . S
N16 C21 1.363 . S
N17 C19 1.371 . S
N17 C20 1.372 . S
N18 C20 1.361 . S
N18 C21 1.377 . S
C19 N16 1.382 . S
C19 N17 1.371 . S
C19 C22 1.480 . S
C20 N17 1.372 . S
C20 N18 1.361 . S
C20 C28 1.457 . S
C21 N16 1.363 . S
C21 N18 1.377 . S
C21 C34 1.479 . S
C22 C19 1.480 . S
C22 C23 1.383 . S
C22 C27 1.385 . S
C23 H4 0.947 . S
C23 C22 1.383 . S
C23 C24 1.388 . S
C24 H5 0.946 . S
C24 C23 1.388 . S
C24 C25 1.384 . S
C25 C24 1.384 . S
C25 C26 1.377 . S
C26 H6 0.953 . S
C26 C25 1.377 . S
C26 C27 1.369 . S
C27 H7 0.945 . S
C27 C22 1.385 . S
C27 C26 1.369 . S
C28 C20 1.457 . S
C28 C29 1.372 . S
C28 C33 1.364 . S
C29 H8 0.952 . S
C29 C28 1.372 . S
C29 C30 1.389 . S
C30 H9 0.949 1_554 S
C30 C29 1.389 . S
C30 C31 1.387 . S
C31 C30 1.387 . S
C31 C32 1.372 . S
C32 H10 0.950 . S
C32 C31 1.372 . S
C32 C33 1.379 . S
C33 H11 0.948 . S
C33 C28 1.364 . S
C33 C32 1.379 . S
C34 C3 1.383 . S
C34 C21 1.479 . S
C34 C35 1.398 . S
C35 C0 1.382 . S
C35 H12 0.951 . S
C35 C34 1.398 . S
C36 C37 1.384 . S
C36 H49 0.947 . S
C36 C71 1.382 . S
C37 C36 1.384 . S
C37 C38 1.378 . S
C38 C37 1.378 . S
C38 C39 1.378 . S
C38 H50 0.952 . S
C39 C38 1.378 . S
C39 H51 0.950 . S
C39 C70 1.383 . S
H40 C59 0.947 . S
H41 C60 0.946 . S
H42 C62 0.953 . S
H43 C63 0.945 . S
H44 C65 0.952 . S
H45 C66 0.949 . S
H46 C68 0.950 . S
H47 C69 0.948 . S
H48 C71 0.951 . S
H49 C36 0.947 . S
H50 C38 0.952 . S
H51 C39 0.950 . S
N52 C55 1.382 . S
N52 C57 1.363 . S
N53 C55 1.371 . S
N53 C56 1.372 . S
N54 C56 1.361 . S
N54 C57 1.377 . S
C55 N52 1.382 . S
C55 N53 1.371 . S
C55 C58 1.480 . S
C56 N53 1.372 . S
C56 N54 1.361 . S
C56 C64 1.457 . S
C57 N52 1.363 . S
C57 N54 1.377 . S
C57 C70 1.479 . S
C58 C55 1.480 . S
C58 C59 1.383 . S
C58 C63 1.385 . S
C59 H40 0.947 . S
C59 C58 1.383 . S
C59 C60 1.388 . S
C60 H41 0.946 . S
C60 C59 1.388 . S
C60 C61 1.384 . S
C61 C60 1.384 . S
C61 C62 1.377 . S
C62 H42 0.953 . S
C62 C61 1.377 . S
C62 C63 1.369 . S
C63 H43 0.945 . S
C63 C58 1.385 . S
C63 C62 1.369 . S
C64 C56 1.457 . S
C64 C65 1.372 . S
C64 C69 1.364 . S
C65 H44 0.952 . S
C65 C64 1.372 . S
C65 C66 1.389 . S
C66 H45 0.949 . S
C66 C65 1.389 . S
C66 C67 1.387 . S
C67 C66 1.387 . S
C67 C68 1.372 . S
C68 H46 0.950 . S
C68 C67 1.372 . S
C68 C69 1.379 . S
C69 H47 0.948 . S
C69 C64 1.364 . S
C69 C68 1.379 . S
C70 C39 1.383 . S
C70 C57 1.479 . S
C70 C71 1.398 . S
C71 C36 1.382 . S
C71 H48 0.951 . S
C71 C70 1.398 . S
C72 C73 1.384 . S
C72 H85 0.947 . S
C72 C107 1.382 . S
C73 C72 1.384 . S
C73 C74 1.378 . S
C74 C73 1.378 . S
C74 C75 1.378 . S
C74 H86 0.952 . S
C75 C74 1.378 . S
C75 H87 0.950 . S
C75 C106 1.383 . S
H76 C95 0.947 . S
H77 C96 0.946 . S
H78 C98 0.953 . S
H79 C99 0.945 . S
H80 C101 0.952 . S
H81 C102 0.949 . S
H82 C104 0.950 . S
H83 C105 0.948 . S
H84 C107 0.951 . S
H85 C72 0.947 . S
H86 C74 0.952 . S
H87 C75 0.950 . S
N88 C91 1.382 . S
N88 C93 1.363 . S
N89 C91 1.371 . S
N89 C92 1.372 . S
N90 C92 1.361 . S
N90 C93 1.377 . S
C91 N88 1.382 . S
C91 N89 1.371 . S
C91 C94 1.480 . S
C92 N89 1.372 . S
C92 N90 1.361 . S
C92 C100 1.457 . S
C93 N88 1.363 . S
C93 N90 1.377 . S
C93 C106 1.479 . S
C94 C91 1.480 . S
C94 C95 1.383 . S
C94 C99 1.385 . S
C95 H76 0.947 . S
C95 C94 1.383 . S
C95 C96 1.388 . S
C96 H77 0.946 . S
C96 C95 1.388 . S
C96 C97 1.384 . S
C97 C96 1.384 . S
C97 C98 1.377 . S
C98 H78 0.953 . S
C98 C97 1.377 . S
C98 C99 1.369 . S
C99 H79 0.945 . S
C99 C94 1.385 . S
C99 C98 1.369 . S
C100 C92 1.457 . S
C100 C101 1.372 . S
C100 C105 1.364 . S
C101 H80 0.952 . S
C101 C100 1.372 . S
C101 C102 1.389 . S
C102 H81 0.949 . S
C102 C101 1.389 . S
C102 C103 1.387 . S
C103 C102 1.387 . S
C103 C104 1.372 . S
C104 H82 0.950 . S
C104 C103 1.372 . S
C104 C105 1.379 . S
C105 H83 0.948 . S
C105 C100 1.364 . S
C105 C104 1.379 . S
C106 C75 1.383 . S
C106 C93 1.479 . S
C106 C107 1.398 . S
C107 C72 1.382 . S
C107 H84 0.951 . S
C107 C106 1.398 . S
C108 C109 1.384 . S
C108 H121 0.947 . S
C108 C143 1.382 . S
C109 C108 1.384 . S
C109 C110 1.378 . S
C110 C109 1.378 . S
C110 C111 1.378 . S
C110 H122 0.952 1_554 S
C111 C110 1.378 . S
C111 H123 0.950 . S
C111 C142 1.383 . S
H112 C131 0.947 . S
H113 C132 0.946 . S
H114 C134 0.953 . S
H115 C135 0.945 . S
H116 C137 0.952 . S
H117 C138 0.949 . S
H118 C140 0.950 . S
H119 C141 0.948 . S
H120 C143 0.951 . S
H121 C108 0.947 . S
H122 C110 0.952 1_556 S
H123 C111 0.950 . S
N124 C127 1.382 . S
N124 C129 1.363 . S
N125 C127 1.371 . S
N125 C128 1.372 . S
N126 C128 1.361 . S
N126 C129 1.377 . S
C127 N124 1.382 . S
C127 N125 1.371 . S
C127 C130 1.480 . S
C128 N125 1.372 . S
C128 N126 1.361 . S
C128 C136 1.457 . S
C129 N124 1.363 . S
C129 N126 1.377 . S
C129 C142 1.479 . S
C130 C127 1.480 . S
C130 C131 1.383 . S
C130 C135 1.385 . S
C131 H112 0.947 . S
C131 C130 1.383 . S
C131 C132 1.388 . S
C132 H113 0.946 . S
C132 C131 1.388 . S
C132 C133 1.384 . S
C133 C132 1.384 . S
C133 C134 1.377 . S
C134 H114 0.953 . S
C134 C133 1.377 . S
C134 C135 1.369 . S
C135 H115 0.945 . S
C135 C130 1.385 . S
C135 C134 1.369 . S
C136 C128 1.457 . S
C136 C137 1.372 . S
C136 C141 1.364 . S
C137 H116 0.952 . S
C137 C136 1.372 . S
C137 C138 1.389 . S
C138 H117 0.949 . S
C138 C137 1.389 . S
C138 C139 1.387 . S
C139 C138 1.387 . S
C139 C140 1.372 . S
C140 H118 0.950 . S
C140 C139 1.372 . S
C140 C141 1.379 . S
C141 H119 0.948 . S
C141 C136 1.364 . S
C141 C140 1.379 . S
C142 C111 1.383 . S
C142 C129 1.479 . S
C142 C143 1.398 . S
C143 C108 1.382 . S
C143 H120 0.951 . S
C143 C142 1.398 . S
C144 C145 1.384 . S
C144 H157 0.947 . S
C144 C179 1.382 . S
C145 C144 1.384 . S
C145 C146 1.378 . S
C146 C145 1.378 . S
C146 C147 1.378 . S
C146 H158 0.952 . S
C147 C146 1.378 . S
C147 H159 0.950 . S
C147 C178 1.383 . S
H148 C167 0.947 . S
H149 C168 0.946 . S
H150 C170 0.953 . S
H151 C171 0.945 . S
H152 C173 0.952 . S
H153 C174 0.949 . S
H154 C176 0.950 . S
H155 C177 0.948 . S
H156 C179 0.951 . S
H157 C144 0.947 . S
H158 C146 0.952 . S
H159 C147 0.950 . S
N160 C163 1.382 . S
N160 C165 1.363 . S
N161 C163 1.371 . S
N161 C164 1.372 . S
N162 C164 1.361 . S
N162 C165 1.377 . S
C163 N160 1.382 . S
C163 N161 1.371 . S
C163 C166 1.480 . S
C164 N161 1.372 . S
C164 N162 1.361 . S
C164 C172 1.457 . S
C165 N160 1.363 . S
C165 N162 1.377 . S
C165 C178 1.479 1_554 S
C166 C163 1.480 . S
C166 C167 1.383 . S
C166 C171 1.385 . S
C167 H148 0.947 . S
C167 C166 1.383 . S
C167 C168 1.388 . S
C168 H149 0.946 . S
C168 C167 1.388 . S
C168 C169 1.384 . S
C169 C168 1.384 . S
C169 C170 1.377 . S
C170 H150 0.953 . S
C170 C169 1.377 . S
C170 C171 1.369 . S
C171 H151 0.945 . S
C171 C166 1.385 . S
C171 C170 1.369 . S
C172 C164 1.457 . S
C172 C173 1.372 . S
C172 C177 1.364 . S
C173 H152 0.952 . S
C173 C172 1.372 . S
C173 C174 1.389 . S
C174 H153 0.949 . S
C174 C173 1.389 . S
C174 C175 1.387 . S
C175 C174 1.387 . S
C175 C176 1.372 . S
C176 H154 0.950 . S
C176 C175 1.372 . S
C176 C177 1.379 . S
C177 H155 0.948 . S
C177 C172 1.364 . S
C177 C176 1.379 . S
C178 C147 1.383 . S
C178 C165 1.479 1_556 S
C178 C179 1.398 . S
C179 C144 1.382 . S
C179 H156 0.951 . S
C179 C178 1.398 . S
C180 C181 1.384 . S
C180 H193 0.947 . S
C180 C215 1.382 . S
C181 C180 1.384 . S
C181 C182 1.378 . S
C182 C181 1.378 . S
C182 C183 1.378 . S
C182 H194 0.952 . S
C183 C182 1.378 . S
C183 H195 0.950 . S
C183 C214 1.383 . S
H184 C203 0.947 1_556 S
H185 C204 0.953 . S
H186 C206 0.953 . S
H187 C207 0.945 . S
H188 C209 0.952 . S
H189 C210 0.949 . S
H190 C212 0.950 . S
H191 C213 0.948 . S
H192 C215 0.951 . S
H193 C180 0.947 . S
H194 C182 0.952 . S
H195 C183 0.950 . S
N196 C199 1.382 1_556 S
N196 C201 1.363 . S
N197 C199 1.371 . S
N197 C200 1.372 . S
N198 C200 1.361 . S
N198 C201 1.377 1_554 S
C199 N196 1.382 1_554 S
C199 N197 1.371 . S
C199 C202 1.480 . S
C200 N197 1.372 . S
C200 N198 1.361 . S
C200 C208 1.457 . S
C201 N196 1.363 . S
C201 N198 1.377 1_556 S
C201 C214 1.479 . S
C202 C199 1.480 . S
C202 C203 1.383 . S
C202 C207 1.385 . S
C203 H184 0.947 1_554 S
C203 C202 1.383 . S
C203 C204 1.388 . S
C204 H185 0.953 . S
C204 C203 1.388 . S
C204 C205 1.384 . S
C205 C204 1.384 . S
C205 C206 1.377 . S
C206 H186 0.953 . S
C206 C205 1.377 . S
C206 C207 1.369 . S
C207 H187 0.945 . S
C207 C202 1.385 . S
C207 C206 1.369 . S
C208 C200 1.457 . S
C208 C209 1.372 . S
C208 C213 1.364 . S
C209 H188 0.952 . S
C209 C208 1.372 . S
C209 C210 1.389 . S
C210 H189 0.949 . S
C210 C209 1.389 . S
C210 C211 1.387 . S
C211 C210 1.387 . S
C211 C212 1.372 . S
C212 H190 0.950 . S
C212 C211 1.372 . S
C212 C213 1.379 . S
C213 H191 0.948 . S
C213 C208 1.364 . S
C213 C212 1.379 . S
C214 C183 1.383 . S
C214 C201 1.479 . S
C214 C215 1.398 . S
C215 C180 1.382 . S
C215 H192 0.951 . S
C215 C214 1.398 . S
C216 C217 1.384 . S
C216 H229 0.947 . S
C216 C251 1.382 . S
C217 C216 1.384 . S
C217 C218 1.378 . S
C218 C217 1.378 . S
C218 C219 1.378 . S
C218 H230 0.952 . S
C219 C218 1.378 . S
C219 H231 0.950 . S
C219 C250 1.383 . S
H220 C239 0.947 . S
H221 C240 0.946 1_556 S
H222 C242 0.953 . S
H223 C243 0.945 . S
H224 C245 0.952 . S
H225 C246 0.949 . S
H226 C248 0.950 . S
H227 C249 0.948 . S
H228 C251 0.951 . S
H229 C216 0.947 . S
H230 C218 0.952 . S
H231 C219 0.950 . S
N232 C235 1.382 1_556 S
N232 C237 1.363 . S
N233 C235 1.371 . S
N233 C236 1.372 . S
N234 C236 1.361 . S
N234 C237 1.377 1_554 S
C235 N232 1.382 1_554 S
C235 N233 1.371 . S
C235 C238 1.480 . S
C236 N233 1.372 . S
C236 N234 1.361 . S
C236 C244 1.457 . S
C237 N232 1.363 . S
C237 N234 1.377 1_556 S
C237 C250 1.479 . S
C238 C235 1.480 . S
C238 C239 1.383 1_554 S
C238 C243 1.385 . S
C239 H220 0.947 . S
C239 C238 1.383 1_556 S
C239 C240 1.388 1_556 S
C240 H221 0.946 1_554 S
C240 C239 1.388 1_554 S
C240 C241 1.384 . S
C241 C240 1.384 . S
C241 C242 1.377 . S
C242 H222 0.953 . S
C242 C241 1.377 . S
C242 C243 1.369 . S
C243 H223 0.945 . S
C243 C238 1.385 . S
C243 C242 1.369 . S
C244 C236 1.457 . S
C244 C245 1.372 . S
C244 C249 1.364 . S
C245 H224 0.952 . S
C245 C244 1.372 . S
C245 C246 1.389 . S
C246 H225 0.949 . S
C246 C245 1.389 . S
C246 C247 1.387 . S
C247 C246 1.387 . S
C247 C248 1.372 . S
C248 H226 0.950 . S
C248 C247 1.372 . S
C248 C249 1.379 . S
C249 H227 0.948 . S
C249 C244 1.364 . S
C249 C248 1.379 . S
C250 C219 1.383 . S
C250 C237 1.479 . S
C250 C251 1.398 . S
C251 C216 1.382 . S
C251 H228 0.951 . S
C251 C250 1.398 . S
C252 C253 1.384 . S
C252 H265 0.947 . S
C252 C287 1.382 . S
C253 C252 1.384 . S
C253 C254 1.378 . S
C254 C253 1.378 . S
C254 C255 1.378 . S
C254 H266 0.952 . S
C255 C254 1.378 . S
C255 H267 0.950 . S
C255 C286 1.383 . S
H256 C275 0.947 . S
H257 C276 0.946 . S
H258 C278 0.953 . S
H259 C279 0.945 1_556 S
H260 C281 0.952 . S
H261 C282 0.949 . S
H262 C284 0.950 . S
H263 C285 0.948 . S
H264 C287 0.951 . S
H265 C252 0.947 . S
H266 C254 0.952 . S
H267 C255 0.950 . S
N268 C271 1.382 . S
N268 C273 1.363 . S
N269 C271 1.371 . S
N269 C272 1.372 1_554 S
N270 C272 1.361 1_554 S
N270 C273 1.377 . S
C271 N268 1.382 . S
C271 N269 1.371 . S
C271 C274 1.480 . S
C272 N269 1.372 1_556 S
C272 N270 1.361 1_556 S
C272 C280 1.457 . S
C273 N268 1.363 . S
C273 N270 1.377 . S
C273 C286 1.479 . S
C274 C271 1.480 . S
C274 C275 1.383 . S
C274 C279 1.385 . S
C275 H256 0.947 . S
C275 C274 1.383 . S
C275 C276 1.388 . S
C276 H257 0.946 . S
C276 C275 1.388 . S
C276 C277 1.384 . S
C277 C276 1.384 . S
C277 C278 1.377 . S
C278 H258 0.953 . S
C278 C277 1.377 . S
C278 C279 1.369 . S
C279 H259 0.945 1_554 S
C279 C274 1.385 . S
C279 C278 1.369 . S
C280 C272 1.457 . S
C280 C281 1.372 . S
C280 C285 1.364 . S
C281 H260 0.952 . S
C281 C280 1.372 . S
C281 C282 1.389 . S
C282 H261 0.949 . S
C282 C281 1.389 . S
C282 C283 1.387 . S
C283 C282 1.387 . S
C283 C284 1.372 . S
C284 H262 0.950 . S
C284 C283 1.372 . S
C284 C285 1.379 . S
C285 H263 0.948 . S
C285 C280 1.364 . S
C285 C284 1.379 . S
C286 C255 1.383 . S
C286 C273 1.479 . S
C286 C287 1.398 . S
C287 C252 1.382 . S
C287 H264 0.951 . S
C287 C286 1.398 . S
Eu288 C297 2.828 . S
Eu288 O299 2.392 . S
Eu288 O301 2.418 1_545 S
Eu288 O306 2.373 1_655 S
Eu288 O309 2.488 . S
Eu288 O310 2.471 . S
Eu288 O311 2.349 1_655 S
Eu289 O298 2.373 1_455 S
Eu289 O302 2.488 . S
Eu289 O303 2.471 . S
Eu289 O304 2.349 . S
Eu289 O307 2.392 1_565 S
Eu289 O308 2.418 1_565 S
Eu289 C318 2.828 . S
C290 O308 1.244 . S
C290 O311 1.265 . S
C291 C292 1.379 1_655 S
C291 C295 1.373 . S
C291 C297 1.505 . S
C292 C291 1.379 1_455 S
C292 C294 1.369 . S
C292 H320 0.930 . S
C293 C295 1.383 . S
C293 C296 1.382 . S
C293 H321 0.930 . S
C294 C292 1.369 . S
C294 C296 1.392 1_455 S
C294 H322 0.930 . S
C295 C291 1.373 . S
C295 C293 1.383 . S
C295 H323 0.931 . S
C296 C293 1.382 . S
C296 C294 1.392 1_655 S
C297 Eu288 2.828 . S
C297 C291 1.505 . S
C297 O309 1.249 . S
C297 O310 1.244 . S
O298 Eu289 2.373 1_655 S
O298 C300 1.265 . S
O299 Eu288 2.392 . S
O299 C300 1.230 1_545 S
C300 O298 1.265 . S
C300 O299 1.230 1_565 S
O301 Eu288 2.418 1_565 S
O301 C305 1.244 . S
O302 Eu289 2.488 . S
O302 C318 1.249 . S
O303 Eu289 2.471 . S
O303 C318 1.244 . S
O304 Eu289 2.349 . S
O304 C305 1.265 1_455 S
C305 O301 1.244 . S
C305 O304 1.265 1_655 S
O306 Eu288 2.373 1_455 S
O306 C319 1.258 . S
O307 Eu289 2.392 1_545 S
O307 C319 1.242 . S
O308 Eu289 2.418 1_545 S
O308 C290 1.244 . S
O309 Eu288 2.488 . S
O309 C297 1.249 . S
O310 Eu288 2.471 . S
O310 C297 1.244 . S
O311 Eu288 2.349 1_455 S
O311 C290 1.265 . S
C312 C313 1.379 . S
C312 C316 1.373 1_556 S
C312 C318 1.505 . S
C313 C312 1.379 . S
C313 C315 1.369 . S
C313 H324 0.930 1_455 S
C314 C316 1.383 . S
C314 C317 1.382 . S
C314 H325 0.930 . S
C315 C313 1.369 . S
C315 C317 1.392 1_556 S
C315 H326 0.930 1_455 S
C316 C312 1.373 1_554 S
C316 C314 1.383 . S
C316 H327 0.931 . S
C317 C314 1.382 . S
C317 C315 1.392 1_554 S
C318 Eu289 2.828 . S
C318 O302 1.249 . S
C318 O303 1.244 . S
C318 C312 1.505 . S
C319 O306 1.258 . S
C319 O307 1.242 . S
H320 C292 0.930 . S
H321 C293 0.930 . S
H322 C294 0.930 . S
H323 C295 0.931 . S
H324 C313 0.930 1_655 S
H325 C314 0.930 . S
H326 C315 0.930 1_655 S
H327 C316 0.931 . S
Eu328 C337 2.828 . S
Eu328 O339 2.392 . S
Eu328 O341 2.418 . S
Eu328 O346 2.373 . S
Eu328 O349 2.488 . S
Eu328 O350 2.471 . S
Eu328 O351 2.349 1_545 S
Eu329 O338 2.373 1_565 S
Eu329 O342 2.488 . S
Eu329 O343 2.471 1_565 S
Eu329 O344 2.349 1_565 S
Eu329 O347 2.392 . S
Eu329 O348 2.418 . S
Eu329 C358 2.828 . S
C330 O348 1.244 . S
C330 O351 1.265 . S
C331 C332 1.379 . S
C331 C335 1.373 . S
C331 C337 1.505 . S
C332 C331 1.379 . S
C332 C334 1.369 . S
C332 H360 0.930 1_545 S
C333 C335 1.383 . S
C333 C336 1.382 . S
C333 H361 0.930 . S
C334 C332 1.369 . S
C334 C336 1.392 . S
C334 H362 0.930 1_545 S
C335 C331 1.373 . S
C335 C333 1.383 . S
C335 H363 0.931 . S
C336 C333 1.382 . S
C336 C334 1.392 . S
C337 Eu328 2.828 . S
C337 C331 1.505 . S
C337 O349 1.249 . S
C337 O350 1.244 . S
O338 Eu329 2.373 1_545 S
O338 C340 1.258 . S
O339 Eu328 2.392 . S
O339 C340 1.242 . S
C340 O338 1.258 . S
C340 O339 1.242 . S
O341 Eu328 2.418 . S
O341 C345 1.244 . S
O342 Eu329 2.488 . S
O342 C358 1.249 . S
O343 Eu329 2.471 1_545 S
O343 C358 1.244 1_545 S
O344 Eu329 2.349 1_545 S
O344 C345 1.265 . S
C345 O341 1.244 . S
C345 O344 1.265 . S
O346 Eu328 2.373 . S
O346 C359 1.258 1_545 S
O347 Eu329 2.392 . S
O347 C359 1.242 . S
O348 Eu329 2.418 . S
O348 C330 1.244 . S
O349 Eu328 2.488 . S
O349 C337 1.249 . S
O350 Eu328 2.471 . S
O350 C337 1.244 . S
O351 Eu328 2.349 1_565 S
O351 C330 1.265 . S
C352 C353 1.379 1_565 S
C352 C356 1.373 . S
C352 C358 1.505 . S
C353 C352 1.379 1_545 S
C353 C355 1.369 . S
C353 H364 0.930 . S
C354 C356 1.383 . S
C354 C357 1.382 . S
C354 H365 0.930 . S
C355 C353 1.369 . S
C355 C357 1.392 1_545 S
C355 H366 0.930 . S
C356 C352 1.373 . S
C356 C354 1.383 . S
C356 H367 0.931 . S
C357 C354 1.382 . S
C357 C355 1.392 1_565 S
C358 Eu329 2.828 . S
C358 O342 1.249 . S
C358 O343 1.244 1_565 S
C358 C352 1.505 . S
C359 O346 1.258 1_565 S
C359 O347 1.242 . S
H360 C332 0.930 1_565 S
H361 C333 0.930 . S
H362 C334 0.930 1_565 S
H363 C335 0.931 . S
H364 C353 0.930 . S
H365 C354 0.930 . S
H366 C355 0.930 . S
H367 C356 0.931 . S
Eu368 C377 2.828 . S
Eu368 O379 2.392 . S
Eu368 O381 2.418 . S
Eu368 O386 2.373 . S
Eu368 O389 2.488 . S
Eu368 O390 2.471 . S
Eu368 O391 2.349 . S
Eu369 O378 2.373 . S
Eu369 O382 2.488 . S
Eu369 O383 2.471 . S
Eu369 O384 2.349 . S
Eu369 O387 2.392 . S
Eu369 O388 2.418 . S
Eu369 C398 2.828 . S
C370 O388 1.244 . S
C370 O391 1.265 . S
C371 C372 1.379 . S
C371 C375 1.373 . S
C371 C377 1.505 . S
C372 C371 1.379 . S
C372 C374 1.369 . S
C372 H400 0.930 . S
C373 C375 1.383 . S
C373 C376 1.382 . S
C373 H401 0.930 . S
C374 C372 1.369 . S
C374 C376 1.392 . S
C374 H402 0.930 . S
C375 C371 1.373 . S
C375 C373 1.383 . S
C375 H403 0.931 . S
C376 C373 1.382 . S
C376 C374 1.392 . S
C377 Eu368 2.828 . S
C377 C371 1.505 . S
C377 O389 1.249 . S
C377 O390 1.244 . S
O378 Eu369 2.373 . S
O378 C380 1.258 . S
O379 Eu368 2.392 . S
O379 C380 1.242 . S
C380 O378 1.258 . S
C380 O379 1.242 . S
O381 Eu368 2.418 . S
O381 C385 1.244 . S
O382 Eu369 2.488 . S
O382 C398 1.249 . S
O383 Eu369 2.471 . S
O383 C398 1.244 . S
O384 Eu369 2.349 . S
O384 C385 1.265 . S
C385 O381 1.244 . S
C385 O384 1.265 . S
O386 Eu368 2.373 . S
O386 C399 1.258 . S
O387 Eu369 2.392 . S
O387 C399 1.242 . S
O388 Eu369 2.418 . S
O388 C370 1.244 . S
O389 Eu368 2.488 . S
O389 C377 1.249 . S
O390 Eu368 2.471 . S
O390 C377 1.244 . S
O391 Eu368 2.349 . S
O391 C370 1.265 . S
C392 C393 1.379 . S
C392 C396 1.373 . S
C392 C398 1.505 . S
C393 C392 1.379 . S
C393 C395 1.369 . S
C393 H404 0.930 . S
C394 C396 1.383 . S
C394 C397 1.382 . S
C394 H405 0.930 . S
C395 C393 1.369 . S
C395 C397 1.392 . S
C395 H406 0.930 . S
C396 C392 1.373 . S
C396 C394 1.383 . S
C396 H407 0.931 . S
C397 C394 1.382 . S
C397 C395 1.392 . S
C398 Eu369 2.828 . S
C398 O382 1.249 . S
C398 O383 1.244 . S
C398 C392 1.505 . S
C399 O386 1.258 . S
C399 O387 1.242 . S
H400 C372 0.930 . S
H401 C373 0.930 . S
H402 C374 0.930 . S
H403 C375 0.931 . S
H404 C393 0.930 . S
H405 C394 0.930 . S
H406 C395 0.930 . S
H407 C396 0.931 . S
Eu408 C417 2.828 . S
Eu408 O419 2.392 . S
Eu408 O421 2.418 1_455 S
Eu408 O426 2.373 . S
Eu408 O429 2.488 . S
Eu408 O430 2.471 . S
Eu408 O431 2.349 . S
Eu409 O418 2.373 . S
Eu409 O422 2.488 . S
Eu409 O423 2.471 . S
Eu409 O424 2.349 . S
Eu409 O427 2.392 1_655 S
Eu409 O428 2.418 1_655 S
Eu409 C438 2.828 . S
C410 O428 1.244 . S
C410 O431 1.265 . S
C411 C412 1.379 . S
C411 C415 1.373 . S
C411 C417 1.505 . S
C412 C411 1.379 . S
C412 C414 1.369 . S
C412 H440 0.930 . S
C413 C415 1.383 . S
C413 C416 1.382 . S
C413 H441 0.930 . S
C414 C412 1.369 . S
C414 C416 1.392 . S
C414 H442 0.930 . S
C415 C411 1.373 . S
C415 C413 1.383 . S
C415 H443 0.931 . S
C416 C413 1.382 . S
C416 C414 1.392 . S
C417 Eu408 2.828 . S
C417 C411 1.505 . S
C417 O429 1.249 . S
C417 O430 1.244 . S
O418 Eu409 2.373 . S
O418 C420 1.258 . S
O419 Eu408 2.392 . S
O419 C420 1.242 1_455 S
C420 O418 1.258 . S
C420 O419 1.242 1_655 S
O421 Eu408 2.418 1_655 S
O421 C425 1.244 . S
O422 Eu409 2.488 . S
O422 C438 1.249 . S
O423 Eu409 2.471 . S
O423 C438 1.244 . S
O424 Eu409 2.349 . S
O424 C425 1.265 . S
C425 O421 1.244 . S
C425 O424 1.265 . S
O426 Eu408 2.373 . S
O426 C439 1.258 . S
O427 Eu409 2.392 1_455 S
O427 C439 1.242 . S
O428 Eu409 2.418 1_455 S
O428 C410 1.244 . S
O429 Eu408 2.488 . S
O429 C417 1.249 . S
O430 Eu408 2.471 . S
O430 C417 1.244 . S
O431 Eu408 2.349 . S
O431 C410 1.265 . S
C432 C433 1.379 . S
C432 C436 1.373 . S
C432 C438 1.505 . S
C433 C432 1.379 . S
C433 C435 1.369 . S
C433 H444 0.930 . S
C434 C436 1.383 1_554 S
C434 C437 1.382 . S
C434 H445 0.930 . S
C435 C433 1.369 . S
C435 C437 1.392 1_556 S
C435 H446 0.930 . S
C436 C432 1.373 . S
C436 C434 1.383 1_556 S
C436 H447 0.931 1_556 S
C437 C434 1.382 . S
C437 C435 1.392 1_554 S
C438 Eu409 2.828 . S
C438 O422 1.249 . S
C438 O423 1.244 . S
C438 C432 1.505 . S
C439 O426 1.258 . S
C439 O427 1.242 . S
H440 C412 0.930 . S
H441 C413 0.930 . S
H442 C414 0.930 . S
H443 C415 0.931 . S
H444 C433 0.930 . S
H445 C434 0.930 . S
H446 C435 0.930 . S
H447 C436 0.931 1_554 S
C448 C449 1.387 . S
C448 H452 0.950 . S
C448 C457 1.390 . S
C449 C448 1.387 . S
C449 C451 1.387 . S
H450 C457 0.950 1_565 S
C451 C449 1.387 . S
C451 C453 1.390 . S
C451 H455 0.950 . S
H452 C448 0.950 . S
C453 C451 1.390 . S
C453 C454 1.387 . S
C453 H456 0.950 . S
C454 C453 1.387 . S
C454 C457 1.387 . S
H455 C451 0.950 . S
H456 C453 0.950 . S
C457 C448 1.390 . S
C457 H450 0.950 1_545 S
C457 C454 1.387 . S
C458 C459 1.387 . S
C458 H462 0.950 . S
C458 C467 1.390 . S
C459 C458 1.387 . S
C459 C461 1.387 . S
H460 C467 0.950 . S
C461 C459 1.387 . S
C461 C463 1.390 . S
C461 H465 0.950 . S
H462 C458 0.950 . S
C463 C461 1.390 . S
C463 C464 1.387 . S
C463 H466 0.950 . S
C464 C463 1.387 . S
C464 C467 1.387 . S
H465 C461 0.950 . S
H466 C463 0.950 . S
C467 C458 1.390 . S
C467 H460 0.950 . S
C467 C464 1.387 . S
C468 C469 1.387 . S
C468 H472 0.950 . S
C468 C477 1.390 . S
C469 C468 1.387 . S
C469 C471 1.387 . S
H470 C477 0.950 . S
C471 C469 1.387 . S
C471 C473 1.390 . S
C471 H475 0.950 . S
H472 C468 0.950 . S
C473 C471 1.390 . S
C473 C474 1.387 . S
C473 H476 0.950 . S
C474 C473 1.387 . S
C474 C477 1.387 . S
H475 C471 0.950 . S
H476 C473 0.950 . S
C477 C468 1.390 . S
C477 H470 0.950 . S
C477 C474 1.387 . S
C478 C479 1.387 . S
C478 H482 0.950 . S
C478 C487 1.390 . S
C479 C478 1.387 . S
C479 C481 1.387 . S
H480 C487 0.950 . S
C481 C479 1.387 . S
C481 C483 1.390 . S
C481 H485 0.950 . S
H482 C478 0.950 . S
C483 C481 1.390 . S
C483 C484 1.387 . S
C483 H486 0.950 . S
C484 C483 1.387 . S
C484 C487 1.387 . S
H485 C481 0.950 . S
H486 C483 0.950 . S
C487 C478 1.390 . S
C487 H480 0.950 . S
C487 C484 1.387 . S
C488 C489 1.387 . S
C488 H492 0.950 . S
C488 C497 1.390 1_554 S
C489 C488 1.387 . S
C489 C491 1.387 1_565 S
H490 C497 0.950 . S
C491 C489 1.387 1_545 S
C491 C493 1.390 . S
C491 H495 0.950 . S
H492 C488 0.950 . S
C493 C491 1.390 . S
C493 C494 1.387 1_544 S
C493 H496 0.950 1_554 S
C494 C493 1.387 1_566 S
C494 C497 1.387 . S
H495 C491 0.950 . S
H496 C493 0.950 1_556 S
C497 C488 1.390 1_556 S
C497 H490 0.950 . S
C497 C494 1.387 . S
C498 C499 1.387 . S
C498 H502 0.950 . S
C498 C507 1.390 1_554 S
C499 C498 1.387 . S
C499 C501 1.387 . S
H500 C507 0.950 . S
C501 C499 1.387 . S
C501 C503 1.390 1_554 S
C501 H505 0.950 . S
H502 C498 0.950 . S
C503 C501 1.390 1_556 S
C503 C504 1.387 . S
C503 H506 0.950 . S
C504 C503 1.387 . S
C504 C507 1.387 . S
H505 C501 0.950 . S
H506 C503 0.950 . S
C507 C498 1.390 1_556 S
C507 H500 0.950 . S
C507 C504 1.387 . S
C508 C509 1.387 . S
C508 H512 0.950 . S
C508 C517 1.390 1_554 S
C509 C508 1.387 . S
C509 C511 1.387 . S
H510 C517 0.950 . S
C511 C509 1.387 . S
C511 C513 1.390 1_554 S
C511 H515 0.950 . S
H512 C508 0.950 . S
C513 C511 1.390 1_556 S
C513 C514 1.387 . S
C513 H516 0.950 . S
C514 C513 1.387 . S
C514 C517 1.387 . S
H515 C511 0.950 . S
H516 C513 0.950 . S
C517 C508 1.390 1_556 S
C517 H510 0.950 . S
C517 C514 1.387 . S
C518 C519 1.387 . S
C518 H522 0.950 . S
C518 C527 1.390 1_554 S
C519 C518 1.387 . S
C519 C521 1.387 . S
H520 C527 0.950 . S
C521 C519 1.387 . S
C521 C523 1.390 1_554 S
C521 H525 0.950 . S
H522 C518 0.950 . S
C523 C521 1.390 1_556 S
C523 C524 1.387 . S
C523 H526 0.950 1_655 S
C524 C523 1.387 . S
C524 C527 1.387 . S
H525 C521 0.950 . S
H526 C523 0.950 1_455 S
C527 C518 1.390 1_556 S
C527 H520 0.950 . S
C527 C524 1.387 . S
C528 C529 1.387 . S
C528 H532 0.950 . S
C528 C537 1.390 . S
C529 C528 1.387 . S
C529 C531 1.387 . S
H530 C537 0.950 . S
C531 C529 1.387 . S
C531 C533 1.390 . S
C531 H535 0.950 . S
H532 C528 0.950 . S
C533 C531 1.390 . S
C533 C534 1.381 1_455 S
C533 H536 0.950 . S
C534 C533 1.381 1_655 S
C534 C537 1.377 1_655 S
H535 C531 0.950 . S
H536 C533 0.950 . S
C537 C528 1.390 . S
C537 H530 0.950 . S
C537 C534 1.377 1_455 S
C538 C539 1.387 . S
C538 H542 0.950 . S
C538 C547 1.390 . S
C539 C538 1.387 . S
C539 C541 1.387 . S
H540 C547 0.950 . S
C541 C539 1.387 . S
C541 C543 1.390 1_545 S
C541 H545 0.950 . S
H542 C538 0.950 . S
C543 C541 1.390 1_565 S
C543 C544 1.387 . S
C543 H546 0.950 . S
C544 C543 1.387 . S
C544 C547 1.387 1_565 S
H545 C541 0.950 . S
H546 C543 0.950 . S
C547 C538 1.390 . S
C547 H540 0.950 . S
C547 C544 1.387 1_545 S
C548 C549 1.387 . S
C548 H552 0.950 . S
C548 C557 1.390 . S
C549 C548 1.387 . S
C549 C551 1.387 . S
H550 C557 0.950 . S
C551 C549 1.387 . S
C551 C553 1.390 . S
C551 H555 0.950 . S
H552 C548 0.950 . S
C553 C551 1.390 . S
C553 C554 1.387 . S
C553 H556 0.950 . S
C554 C553 1.387 . S
C554 C557 1.387 . S
H555 C551 0.950 . S
H556 C553 0.950 . S
C557 C548 1.390 . S
C557 H550 0.950 . S
C557 C554 1.387 . S
C558 C559 1.387 . S
C558 H562 0.950 . S
C558 C567 1.390 . S
C559 C558 1.387 . S
C559 C561 1.387 . S
H560 C567 0.950 . S
C561 C559 1.387 . S
C561 C563 1.390 . S
C561 H565 0.950 . S
H562 C558 0.950 . S
C563 C561 1.390 . S
C563 C564 1.387 . S
C563 H566 0.950 . S
C564 C563 1.387 . S
C564 C567 1.387 . S
H565 C561 0.950 . S
H566 C563 0.950 . S
C567 C558 1.390 . S
C567 H560 0.950 . S
C567 C564 1.387 . S
C568 C569 1.387 . S
C568 H572 0.950 . S
C568 C577 1.390 1_655 S
C569 C568 1.387 . S
C569 C571 1.387 . S
H570 C577 0.950 . S
C571 C569 1.387 . S
C571 C573 1.390 1_655 S
C571 H575 0.950 1_554 S
H572 C568 0.950 . S
C573 C571 1.390 1_455 S
C573 C574 1.387 . S
C573 H576 0.950 1_554 S
C574 C573 1.387 . S
C574 C577 1.387 . S
H575 C571 0.950 1_556 S
H576 C573 0.950 1_556 S
C577 C568 1.390 1_455 S
C577 H570 0.950 . S
C577 C574 1.387 . S
C578 C579 1.387 1_556 S
C578 H582 0.950 . S
C578 C587 1.390 1_565 S
C579 C578 1.387 1_554 S
C579 C581 1.387 . S
H580 C587 0.950 . S
C581 C579 1.387 . S
C581 C583 1.390 1_565 S
C581 H585 0.950 . S
H582 C578 0.950 . S
C583 C581 1.390 1_545 S
C583 C584 1.387 1_554 S
C583 H586 0.950 . S
C584 C583 1.387 1_556 S
C584 C587 1.387 . S
H585 C581 0.950 . S
H586 C583 0.950 . S
C587 C578 1.390 1_545 S
C587 H580 0.950 . S
C587 C584 1.387 . S
C588 C589 1.387 . S
C588 H592 0.950 . S
C588 C597 1.390 1_554 S
C589 C588 1.387 . S
C589 C591 1.387 . S
H590 C597 0.950 . S
C591 C589 1.387 . S
C591 C593 1.390 1_554 S
C591 H595 0.950 . S
H592 C588 0.950 . S
C593 C591 1.390 1_556 S
C593 C594 1.387 . S
C593 H596 0.950 . S
C594 C593 1.387 . S
C594 C597 1.387 . S
H595 C591 0.950 . S
H596 C593 0.950 . S
C597 C588 1.390 1_556 S
C597 H590 0.950 . S
C597 C594 1.387 . S
C598 C599 1.387 1_556 S
C598 H602 0.950 . S
C598 C607 1.390 . S
C599 C598 1.387 1_554 S
C599 C601 1.387 . S
H600 C607 0.950 . S
C601 C599 1.387 . S
C601 C603 1.390 . S
C601 H605 0.950 . S
H602 C598 0.950 . S
C603 C601 1.390 . S
C603 C604 1.387 . S
C603 H606 0.950 . S
C604 C603 1.387 . S
C604 C607 1.387 1_554 S
H605 C601 0.950 . S
H606 C603 0.950 . S
C607 C598 1.390 . S
C607 H600 0.950 . S
C607 C604 1.387 1_556 S
C608 C609 1.387 . S
C608 H612 0.950 . S
C608 C617 1.390 . S
C609 C608 1.387 . S
C609 C611 1.387 . S
H610 C617 0.950 . S
C611 C609 1.387 . S
C611 C613 1.390 . S
C611 H615 0.950 . S
H612 C608 0.950 . S
C613 C611 1.390 . S
C613 C614 1.387 . S
C613 H616 0.950 . S
C614 C613 1.387 . S
C614 C617 1.387 . S
H615 C611 0.950 . S
H616 C613 0.950 . S
C617 C608 1.390 . S
C617 H610 0.950 . S
C617 C614 1.387 . S
C618 C619 1.387 . S
C618 H622 0.950 . S
C618 C627 1.390 . S
C619 C618 1.387 . S
C619 C621 1.387 . S
H620 C627 0.950 . S
C621 C619 1.387 . S
C621 C623 1.390 . S
C621 H625 0.950 . S
H622 C618 0.950 . S
C623 C621 1.390 . S
C623 C624 1.387 . S
C623 H626 0.950 . S
C624 C623 1.387 . S
C624 C627 1.387 . S
H625 C621 0.950 . S
H626 C623 0.950 . S
C627 C618 1.390 . S
C627 H620 0.950 . S
C627 C624 1.387 . S
C628 C629 1.387 . S
C628 H632 0.950 . S
C628 C637 1.390 . S
C629 C628 1.387 . S
C629 C631 1.387 . S
H630 C637 0.950 . S
C631 C629 1.387 . S
C631 C633 1.390 . S
C631 H635 0.950 . S
H632 C628 0.950 . S
C633 C631 1.390 . S
C633 C634 1.387 . S
C633 H636 0.950 . S
C634 C633 1.387 . S
C634 C637 1.387 . S
H635 C631 0.950 . S
H636 C633 0.950 . S
C637 C628 1.390 . S
C637 H630 0.950 . S
C637 C634 1.387 . S
C638 C639 1.387 . S
C638 H642 0.950 . S
C638 C647 1.390 . S
C639 C638 1.387 . S
C639 C641 1.387 . S
H640 C647 0.950 . S
C641 C639 1.387 . S
C641 C643 1.390 . S
C641 H645 0.950 . S
H642 C638 0.950 . S
C643 C641 1.390 . S
C643 C644 1.387 . S
C643 H646 0.950 . S
C644 C643 1.387 . S
C644 C647 1.387 . S
H645 C641 0.950 . S
H646 C643 0.950 . S
C647 C638 1.390 . S
C647 H640 0.950 . S
C647 C644 1.387 . S
C648 C649 1.387 . S
C648 H652 0.950 . S
C648 C657 1.390 . S
C649 C648 1.387 . S
C649 C651 1.387 . S
H650 C657 0.950 . S
C651 C649 1.387 . S
C651 C653 1.390 . S
C651 H655 0.950 . S
H652 C648 0.950 . S
C653 C651 1.390 . S
C653 C654 1.387 . S
C653 H656 0.950 . S
C654 C653 1.387 . S
C654 C657 1.387 . S
H655 C651 0.950 . S
H656 C653 0.950 . S
C657 C648 1.390 . S
C657 H650 0.950 . S
C657 C654 1.387 . S
C658 C659 1.387 . S
C658 H662 0.950 . S
C658 C667 1.390 . S
C659 C658 1.387 . S
C659 C661 1.387 . S
H660 C667 0.950 . S
C661 C659 1.387 . S
C661 C663 1.390 . S
C661 H665 0.950 . S
H662 C658 0.950 . S
C663 C661 1.390 . S
C663 C664 1.387 . S
C663 H666 0.950 . S
C664 C663 1.387 . S
C664 C667 1.387 . S
H665 C661 0.950 . S
H666 C663 0.950 . S
C667 C658 1.390 . S
C667 H660 0.950 . S
C667 C664 1.387 . S
C668 C669 1.387 . S
C668 H672 0.950 . S
C668 C677 1.390 . S
C669 C668 1.387 . S
C669 C671 1.387 . S
H670 C677 0.950 . S
C671 C669 1.387 . S
C671 C673 1.390 . S
C671 H675 0.950 . S
H672 C668 0.950 . S
C673 C671 1.390 . S
C673 C674 1.387 . S
C673 H676 0.950 . S
C674 C673 1.387 . S
C674 C677 1.387 . S
H675 C671 0.950 . S
H676 C673 0.950 . S
C677 C668 1.390 . S
C677 H670 0.950 . S
C677 C674 1.387 . S
C678 C679 1.387 . S
C678 H682 0.950 . S
C678 C687 1.390 . S
C679 C678 1.387 . S
C679 C681 1.387 . S
H680 C687 0.950 . S
C681 C679 1.387 . S
C681 C683 1.390 . S
C681 H685 0.950 . S
H682 C678 0.950 . S
C683 C681 1.390 . S
C683 C684 1.387 . S
C683 H686 0.950 . S
C684 C683 1.387 . S
C684 C687 1.387 . S
H685 C681 0.950 . S
H686 C683 0.950 . S
C687 C678 1.390 . S
C687 H680 0.950 . S
C687 C684 1.387 . S
C449 C241 2.942 . S
C454 C319 3.263 . S
C464 C345 2.946 . S
C459 C277 2.631 . S
C474 C385 2.814 . S
C469 C169 2.443 . S
C484 C439 3.165 . S
C479 C205 2.877 . S
C494 C300 3.268 . S
C489 C97 2.914 . S
C499 C133 2.602 . S
C504 C330 2.948 . S
C509 C25 2.422 . S
C514 C370 2.814 . S
C519 C61 2.843 . S
C524 C420 3.165 . S
C534 C296 0.881 . S
C529 C211 0.875 . S
C544 C357 0.961 . S
C539 C247 0.998 . S
C554 C397 0.624 . S
C549 C253 0.611 . S
C559 C175 0.758 . S
C564 C416 0.758 . S
C569 C67 0.835 . S
C574 C317 0.877 . S
C584 C336 0.957 . S
C579 C103 0.940 . S
C594 C376 0.628 . S
C589 C109 0.592 . S
C599 C31 0.753 . S
C604 C437 0.759 . S
C609 C181 2.933 . S
C614 C290 3.401 . S
C619 C217 3.380 . S
C624 C340 3.793 . S
C634 C380 3.571 . S
C629 C283 3.118 . S
C644 C410 3.130 . S
C639 C145 2.688 . S
C649 C37 2.914 . S
C654 C305 3.401 . S
C664 C359 3.793 . S
C659 C73 3.370 . S
C674 C399 3.571 . S
C669 C139 3.078 . S
C679 C1 2.674 . S
C684 C425 3.129 . S
