# Generated by pormake.
# Topology zzz, (3,6)-cn, num edge types: 1
# Building blocks:
#     Node 0, Type 0, BuildingBlock: ESEHIV_clean_linker_0, # of connection points: 3
#     Node 1, Type 0, BuildingBlock: ESEHIV_clean_linker_0, # of connection points: 3
#     Node 2, Type 0, BuildingBlock: ESEHIV_clean_linker_0, # of connection points: 3
#     Node 3, Type 0, BuildingBlock: ESEHIV_clean_linker_0, # of connection points: 3
#     Node 4, Type 0, BuildingBlock: ESEHIV_clean_linker_0, # of connection points: 3
#     Node 5, Type 0, BuildingBlock: ESEHIV_clean_linker_0, # of connection points: 3
#     Node 6, Type 0, BuildingBlock: ESEHIV_clean_linker_0, # of connection points: 3
#     Node 7, Type 0, BuildingBlock: ESEHIV_clean_linker_0, # of connection points: 3
#     Node 8, Type 1, BuildingBlock: KUMBUR_clean_sbu_0, # of connection points: 6
#     Node 9, Type 1, BuildingBlock: KUMBUR_clean_sbu_0, # of connection points: 6
#     Node 10, Type 1, BuildingBlock: KUMBUR_clean_sbu_0, # of connection points: 6
#     Node 11, Type 1, BuildingBlock: KUMBUR_clean_sbu_0, # of connection points: 6
#     Edge 12, Type (0, 1), BuildingBlock: XIVTED_clean_linker_0, # of connection points: 2
#     Edge 13, Type (0, 1), BuildingBlock: XIVTED_clean_linker_0, # of connection points: 2
#     Edge 14, Type (0, 1), BuildingBlock: XIVTED_clean_linker_0, # of connection points: 2
#     Edge 15, Type (0, 1), BuildingBlock: XIVTED_clean_linker_0, # of connection points: 2
#     Edge 16, Type (0, 1), BuildingBlock: XIVTED_clean_linker_0, # of connection points: 2
#     Edge 17, Type (0, 1), BuildingBlock: XIVTED_clean_linker_0, # of connection points: 2
#     Edge 18, Type (0, 1), BuildingBlock: XIVTED_clean_linker_0, # of connection points: 2
#     Edge 19, Type (0, 1), BuildingBlock: XIVTED_clean_linker_0, # of connection points: 2
#     Edge 20, Type (0, 1), BuildingBlock: XIVTED_clean_linker_0, # of connection points: 2
#     Edge 21, Type (0, 1), BuildingBlock: XIVTED_clean_linker_0, # of connection points: 2
#     Edge 22, Type (0, 1), BuildingBlock: XIVTED_clean_linker_0, # of connection points: 2
#     Edge 23, Type (0, 1), BuildingBlock: XIVTED_clean_linker_0, # of connection points: 2
#     Edge 24, Type (0, 1), BuildingBlock: XIVTED_clean_linker_0, # of connection points: 2
#     Edge 25, Type (0, 1), BuildingBlock: XIVTED_clean_linker_0, # of connection points: 2
#     Edge 26, Type (0, 1), BuildingBlock: XIVTED_clean_linker_0, # of connection points: 2
#     Edge 27, Type (0, 1), BuildingBlock: XIVTED_clean_linker_0, # of connection points: 2
#     Edge 28, Type (0, 1), BuildingBlock: XIVTED_clean_linker_0, # of connection points: 2
#     Edge 29, Type (0, 1), BuildingBlock: XIVTED_clean_linker_0, # of connection points: 2
#     Edge 30, Type (0, 1), BuildingBlock: XIVTED_clean_linker_0, # of connection points: 2
#     Edge 31, Type (0, 1), BuildingBlock: XIVTED_clean_linker_0, # of connection points: 2
#     Edge 32, Type (0, 1), BuildingBlock: XIVTED_clean_linker_0, # of connection points: 2
#     Edge 33, Type (0, 1), BuildingBlock: XIVTED_clean_linker_0, # of connection points: 2
#     Edge 34, Type (0, 1), BuildingBlock: XIVTED_clean_linker_0, # of connection points: 2
#     Edge 35, Type (0, 1), BuildingBlock: XIVTED_clean_linker_0, # of connection points: 2
# Relax obj value: 0.338
# Max RMSD: 0.221
# Mean RMSD: 0.214
data_MOF--net-zzz--node1-KUMBUR_clean_sbu_0--node2-ESEHIV_clean_linker_0--edge1-XIVTED_clean_linker_0
_symmetry_space_group_name_H-M    P1
_symmetry_Int_Tables_number       1
_symmetry_cell_setting            triclinic
loop_
_symmetry_equiv_pos_as_xyz
'x, y, z'
_cell_length_a     43.945694
_cell_length_b     43.904938
_cell_length_c     15.427081
_cell_angle_alpha  91.190085
_cell_angle_beta   89.909658
_cell_angle_gamma 89.95606
loop_
_atom_site_label
_atom_site_type_symbol
_atom_site_fract_x
_atom_site_fract_y
_atom_site_fract_z
_atom_type_partial_charge
H0 H 0.80973 0.59491 0.23908 0.0
H1 H 0.7378 0.60448 0.05462 0.0
H2 H 0.73642 0.53022 0.23444 0.0
C3 C 0.78774 0.58797 0.21388 0.0
C4 C 0.77387 0.56236 0.24949 0.0
C5 C 0.77559 0.60266 0.14188 0.0
C6 C 0.74768 0.59253 0.10854 0.0
C7 C 0.73342 0.56602 0.1388 0.0
C8 C 0.74665 0.55086 0.21064 0.0
H9 H 0.93107 0.81501 0.23037 0.0
H10 H 0.92271 0.73455 0.07015 0.0
H11 H 1.00237 0.74816 0.22988 0.0
C12 C 0.9392 0.79277 0.20948 0.0
C13 C 0.96678 0.78261 0.24435 0.0
C14 C 0.92377 0.77657 0.14363 0.0
C15 C 0.93545 0.74817 0.11669 0.0
C16 C 0.96444 0.73803 0.14252 0.0
C17 C 0.98012 0.75537 0.20832 0.0
H18 H 0.70701 0.91878 0.24773 0.0
H19 H 0.77661 0.92317 0.05276 0.0
H20 H 0.77523 0.9892 0.26139 0.0
C21 C 0.72751 0.92896 0.22252 0.0
C22 C 0.73937 0.955 0.26506 0.0
C23 C 0.73934 0.91823 0.143 0.0
C24 C 0.76672 0.93101 0.11347 0.0
C25 C 0.78043 0.95607 0.15573 0.0
C26 C 0.76616 0.96867 0.23111 0.0
H27 H 0.60574 0.71876 0.2894 0.0
H28 H 0.54958 0.79874 0.29794 0.0
H29 H 0.61404 0.78423 0.08906 0.0
C30 C 0.60042 0.741 0.26411 0.0
C31 C 0.61273 0.74943 0.18443 0.0
C32 C 0.57771 0.7582 0.30583 0.0
C33 C 0.56808 0.78586 0.26859 0.0
C34 C 0.58174 0.79587 0.19054 0.0
C35 C 0.60437 0.77757 0.15054 0.0
H36 H 0.22187 0.44451 0.08466 0.0
H37 H 0.29481 0.4359 0.26574 0.0
H38 H 0.29151 0.51301 0.09551 0.0
C39 C 0.24354 0.45226 0.11027 0.0
C40 C 0.25599 0.47898 0.07714 0.0
C41 C 0.25657 0.43738 0.1806 0.0
C42 C 0.28411 0.44837 0.21416 0.0
C43 C 0.29677 0.47618 0.18731 0.0
C44 C 0.28253 0.49152 0.11723 0.0
H45 H 0.08706 0.21248 0.13511 0.0
H46 H 0.09583 0.29499 0.28574 0.0
H47 H 0.02457 0.28616 0.09416 0.0
C48 C 0.08026 0.2358 0.14892 0.0
C49 C 0.05559 0.24751 0.10265 0.0
C50 C 0.09457 0.25235 0.21605 0.0
C51 C 0.08455 0.2821 0.23472 0.0
C52 C 0.05917 0.29495 0.19319 0.0
C53 C 0.04421 0.27706 0.12709 0.0
H54 H 0.32181 0.10852 0.14647 0.0
H55 H 0.23939 0.11429 0.29655 0.0
H56 H 0.2532 0.03986 0.11467 0.0
C57 C 0.29907 0.10073 0.16101 0.0
C58 C 0.28867 0.07449 0.1167 0.0
C59 C 0.28244 0.11465 0.22908 0.0
C60 C 0.25328 0.10328 0.24705 0.0
C61 C 0.24272 0.07592 0.20907 0.0
C62 C 0.26063 0.06131 0.14331 0.0
H63 H 0.43128 0.30822 0.0734 0.0
H64 H 0.49806 0.23961 0.12183 0.0
H65 H 0.41003 0.23559 0.24567 0.0
C66 C 0.43679 0.28657 0.10202 0.0
C67 C 0.41692 0.27369 0.16249 0.0
C68 C 0.46589 0.27472 0.08652 0.0
C69 C 0.47501 0.24802 0.12949 0.0
C70 C 0.45461 0.23351 0.18702 0.0
C71 C 0.42542 0.24615 0.2003 0.0
Tb72 Tb 0.03812 1.00242 0.75588 0.0
C73 C 0.92395 0.99375 0.52809 0.0
C74 C 0.93829 0.96092 0.40732 0.0
C75 C 0.88546 0.96333 0.45346 0.0
C76 C 0.94608 0.98189 0.47429 0.0
C77 C 0.89321 0.98527 0.51719 0.0
C78 C 0.908 0.95112 0.39861 0.0
C79 C 0.87986 0.02287 0.6271 0.0
N80 N 0.93239 0.01503 0.58797 0.0
C81 C 0.91065 0.03044 0.63543 0.0
C82 C 0.87113 0.99984 0.56862 0.0
Tb83 Tb 0.98349 0.02567 0.59959 0.0
N84 N 0.97492 0.99235 0.48429 0.0
C85 C 0.99661 0.98435 0.42405 0.0
C86 C 0.96093 0.95125 0.34935 0.0
C87 C 0.9901 0.96342 0.35698 0.0
H88 H 0.91712 0.04799 0.68185 0.0
H89 H 1.00769 0.95661 0.31136 0.0
H90 H 0.90164 0.93484 0.3481 0.0
H91 H 0.86294 0.03467 0.66624 0.0
H92 H 0.01942 0.99299 0.42791 0.0
H93 H 0.01484 0.07327 0.04129 0.0
H94 H 0.95595 0.93511 0.29722 0.0
H95 H 0.10415 0.97892 0.6737 0.0
H96 H 1.00253 0.03675 0.92567 0.0
H97 H 0.1585 0.99136 0.68909 0.0
H98 H 0.86202 0.95629 0.44451 0.0
H99 H 0.06706 0.09354 0.05587 0.0
H100 H 0.12147 0.0924 1.00585 0.0
H101 H 0.84727 0.99402 0.56219 0.0
H102 H 0.16076 0.06991 0.91021 0.0
N103 N 0.04722 0.03596 0.87036 0.0
C104 C 0.02556 0.04479 0.92981 0.0
C105 C 0.06183 0.0773 1.00419 0.0
C106 C 0.08438 0.06687 0.94696 0.0
C107 C 0.03239 0.06583 0.99632 0.0
C108 C 0.07627 0.04581 0.88053 0.0
H109 H 0.17487 0.03176 0.79299 0.0
N110 N 0.0894 0.01212 0.76764 0.0
C111 C 0.14178 1.00345 0.72826 0.0
C112 C 0.0982 0.03335 0.82724 0.0
C113 C 0.11086 0.99639 0.72005 0.0
C114 C 0.15091 0.02633 0.78667 0.0
C115 C 0.12909 0.04132 0.83802 0.0
O116 O 0.05999 0.96115 0.78283 0.0
O117 O 1.00747 0.98763 0.65261 0.0
O118 O 0.95869 0.99835 0.69494 0.0
O119 O 0.99146 1.00344 0.81242 0.0
O120 O 0.0495 0.96852 0.65353 0.0
O121 O 0.0235 0.97775 0.86395 0.0
O122 O 0.96062 0.06649 0.57386 0.0
O123 O 0.01429 0.04049 0.70223 0.0
O124 O 0.06312 0.02979 0.6614 0.0
O125 O 0.03036 0.0254 0.5435 0.0
O126 O 0.97233 0.0597 0.70185 0.0
O127 O 0.99728 0.05088 0.49174 0.0
C128 C 0.02387 0.96777 0.61407 0.0
C129 C 0.0222 0.92577 0.81848 0.0
C130 C 0.97386 0.89808 0.81052 0.0
C131 C 0.99112 0.92329 0.83953 0.0
C132 C 0.98832 0.87538 0.7592 0.0
C133 C 0.03605 0.90246 0.76855 0.0
C134 C 0.01911 0.87764 0.73857 0.0
C135 C 0.96413 0.99733 0.77943 0.0
C136 C 0.03935 0.95398 0.83924 0.0
C137 C 0.13721 0.06327 0.90134 0.0
C138 C 0.11485 0.07607 0.95574 0.0
C139 C 0.9981 0.06057 0.74062 0.0
C140 C 0.99746 0.10273 0.53876 0.0
C141 C 0.02891 0.10517 0.52308 0.0
C142 C 0.04546 0.13068 0.55306 0.0
C143 C 0.0299 0.15366 0.60061 0.0
C144 C 0.98252 0.12627 0.58493 0.0
C145 C 0.99875 0.15137 0.61631 0.0
C146 C 0.05772 0.03125 0.57696 0.0
C147 C 0.98096 0.07424 0.51726 0.0
H148 H 0.98032 0.94111 0.87798 0.0
H149 H 0.97628 0.85515 0.73744 0.0
H150 H 0.05986 0.9038 0.75076 0.0
H151 H 0.02993 0.85994 0.69954 0.0
H152 H 0.04051 0.08709 0.48783 0.0
H153 H 0.04138 0.17414 0.62305 0.0
H154 H 0.95839 0.12487 0.5988 0.0
H155 H 0.9871 0.16928 0.65246 0.0
Tb156 Tb 0.53088 0.04654 0.77099 0.0
C157 C 0.53246 0.92522 0.561 0.0
C158 C 0.56257 0.93506 0.4336 0.0
C159 C 0.56 0.88376 0.48908 0.0
C160 C 0.54342 0.94536 0.50174 0.0
C161 C 0.54004 0.89402 0.55464 0.0
C162 C 0.5713 0.90429 0.42865 0.0
C163 C 0.50577 0.88514 0.67382 0.0
N164 N 0.51318 0.93606 0.62277 0.0
C165 C 0.49901 0.91629 0.67741 0.0
C166 C 0.52669 0.87399 0.61286 0.0
Tb167 Tb 0.50378 0.98763 0.6263 0.0
N168 N 0.53417 0.97479 0.50865 0.0
C169 C 0.54184 0.99467 0.4449 0.0
C170 C 0.57172 0.95581 0.37131 0.0
C171 C 0.56098 0.98565 0.37646 0.0
H172 H 0.48308 0.92457 0.7257 0.0
H173 H 0.56752 1.00184 0.32785 0.0
H174 H 0.58618 0.89603 0.37724 0.0
H175 H 0.49497 0.86981 0.71846 0.0
H176 H 0.53435 0.01793 0.44692 0.0
H177 H 0.47073 0.02613 0.07316 0.0
H178 H 0.58649 0.94887 0.31812 0.0
H179 H 0.5458 0.11131 0.67254 0.0
H180 H 0.50323 0.01268 0.95102 0.0
H181 H 0.53022 0.16521 0.68362 0.0
H182 H 0.5663 0.85993 0.48342 0.0
H183 H 0.44939 0.07801 0.08857 0.0
H184 H 0.44626 0.13122 0.0336 0.0
H185 H 0.5319 0.84986 0.61015 0.0
H186 H 0.46237 0.16912 0.92762 0.0
N187 N 0.50112 0.05646 0.89243 0.0
C188 C 0.49486 0.0356 0.95497 0.0
C189 C 0.46394 0.0723 0.0338 0.0
C190 C 0.47133 0.09401 0.9724 0.0
C191 C 0.47601 0.04307 0.02542 0.0
C192 C 0.49028 0.08532 0.90202 0.0
H193 H 0.49383 0.18206 0.79737 0.0
N194 N 0.51812 0.09738 0.77824 0.0
C195 C 0.52122 0.14895 0.72877 0.0
C196 C 0.49911 0.10653 0.84275 0.0
C197 C 0.53007 0.11838 0.72297 0.0
C198 C 0.50061 0.15834 0.79282 0.0
C199 C 0.4896 0.13716 0.8516 0.0
O200 O 0.5693 0.0742 0.79101 0.0
O201 O 0.54258 0.01329 0.67069 0.0
O202 O 0.53423 0.96584 0.71906 0.0
O203 O 0.53287 1.00133 0.83357 0.0
O204 O 0.56133 0.05524 0.66051 0.0
O205 O 0.56344 0.03348 0.86361 0.0
O206 O 0.46175 0.96543 0.61131 0.0
O207 O 0.492 0.02116 0.72633 0.0
O208 O 0.50022 0.0675 0.67664 0.0
O209 O 0.50354 0.03247 0.56216 0.0
O210 O 0.47276 0.97946 0.73557 0.0
O211 O 0.47619 0.99894 0.52017 0.0
C212 C 0.56134 0.02832 0.62665 0.0
C213 C 0.61209 0.04242 0.80041 0.0
C214 C 0.64534 0.99937 0.7609 0.0
C215 C 0.62061 0.01173 0.80851 0.0
C216 C 0.66166 0.01856 0.70552 0.0
C217 C 0.62959 0.06123 0.74709 0.0
C218 C 0.65403 0.04928 0.69973 0.0
C219 C 0.53787 0.97326 0.80223 0.0
C220 C 0.58281 0.05376 0.83682 0.0
C221 C 0.47005 0.14576 0.91991 0.0
C222 C 0.4609 0.12419 0.98022 0.0
C223 C 0.47316 1.00619 0.77049 0.0
C224 C 0.42561 1.00229 0.5743 0.0
C225 C 0.42331 0.03305 0.5512 0.0
C226 C 0.39921 0.05143 0.58206 0.0
C227 C 0.37731 0.03841 0.63684 0.0
C228 C 0.40312 0.98983 0.62785 0.0
C229 C 0.3793 1.00789 0.6593 0.0
C230 C 0.49777 0.06035 0.59308 0.0
C231 C 0.4531 0.98423 0.55217 0.0
H232 H 0.60783 0.99759 0.85214 0.0
H233 H 0.68028 1.00993 0.66614 0.0
H234 H 0.62363 0.08496 0.73926 0.0
H235 H 0.66681 0.0638 0.65707 0.0
H236 H 0.44047 0.04276 0.50985 0.0
H237 H 0.35793 0.05142 0.66025 0.0
H238 H 0.4044 0.96631 0.64735 0.0
H239 H 0.36225 0.99815 0.70117 0.0
Tb240 Tb 0.54004 0.50019 0.60347 0.0
C241 C 0.41784 0.521 0.67946 0.0
C242 C 0.39707 0.57104 0.65385 0.0
C243 C 0.36627 0.52622 0.6238 0.0
C244 C 0.42128 0.55213 0.67992 0.0
C245 C 0.38992 0.50769 0.65358 0.0
C246 C 0.36989 0.55787 0.6236 0.0
C247 C 0.41049 0.45877 0.68989 0.0
N248 N 0.44157 0.50378 0.70625 0.0
C249 C 0.43788 0.47291 0.7132 0.0
C250 C 0.38649 0.47617 0.65906 0.0
Tb251 Tb 0.48503 0.52951 0.74933 0.0
N252 N 0.44769 0.56395 0.71078 0.0
C253 C 0.4499 0.59488 0.72551 0.0
C254 C 0.40046 0.60261 0.6619 0.0
C255 C 0.42681 0.61456 0.69936 0.0
H256 H 0.45575 0.45848 0.73548 0.0
H257 H 0.4293 0.63893 0.70875 0.0
H258 H 0.35121 0.572 0.60237 0.0
H259 H 0.40807 0.43433 0.69485 0.0
H260 H 0.46999 0.60453 0.75586 0.0
H261 H 0.62527 0.46187 0.83462 0.0
H262 H 0.38245 0.61788 0.64241 0.0
H263 H 0.54959 0.53463 0.41417 0.0
H264 H 0.57509 0.46373 0.77144 0.0
H265 H 0.58986 0.56292 0.33985 0.0
H266 H 0.34492 0.51635 0.60226 0.0
H267 H 0.66722 0.49226 0.77478 0.0
H268 H 0.68572 0.52776 0.66181 0.0
H269 H 0.36543 0.4651 0.64006 0.0
H270 H 0.67607 0.5557 0.52816 0.0
N271 N 0.58676 0.49504 0.67138 0.0
C272 C 0.59245 0.47688 0.74098 0.0
C273 C 0.64494 0.49302 0.74491 0.0
C274 C 0.63962 0.51068 0.67229 0.0
C275 C 0.62135 0.47578 0.7786 0.0
C276 C 0.61008 0.51102 0.63606 0.0
H277 H 0.64058 0.56862 0.4073 0.0
N278 N 0.57658 0.52539 0.52574 0.0
C279 C 0.5943 0.55315 0.40245 0.0
C280 C 0.60475 0.52686 0.56116 0.0
C281 C 0.57148 0.53712 0.44512 0.0
C282 C 0.62287 0.55634 0.44075 0.0
C283 C 0.62859 0.54264 0.52016 0.0
O284 O 0.56104 0.47637 0.49865 0.0
O285 O 0.49122 0.50665 0.62527 0.0
O286 O 0.49745 0.48389 0.79504 0.0
O287 O 0.53124 0.46289 0.69339 0.0
O288 O 0.50859 0.5186 0.5078 0.0
O289 O 0.52343 0.45722 0.56567 0.0
O290 O 0.47411 0.50897 0.86816 0.0
O291 O 0.53264 0.51673 0.73437 0.0
O292 O 0.54169 0.55029 0.59199 0.0
O293 O 0.49794 0.56733 0.6637 0.0
O294 O 0.52363 0.55779 0.79186 0.0
O295 O 0.47142 0.55715 0.85534 0.0
C296 C 0.48391 0.51704 0.55171 0.0
C297 C 0.5239 0.45021 0.4138 0.0
C298 C 0.47768 0.43377 0.33678 0.0
C299 C 0.49371 0.4396 0.4143 0.0
C300 C 0.4926 0.43937 0.25767 0.0
C301 C 0.53816 0.45552 0.33415 0.0
C302 C 0.5225 0.45017 0.25669 0.0
C303 C 0.51417 0.46095 0.764 0.0
C304 C 0.54019 0.45553 0.49665 0.0
C305 C 0.65757 0.54345 0.55818 0.0
C306 C 0.66307 0.5275 0.63414 0.0
C307 C 0.54537 0.53953 0.77058 0.0
C308 C 0.49138 0.53898 0.9866 0.0
C309 C 0.51331 0.5622 0.98962 0.0
C310 C 0.53394 0.56512 0.0587 0.0
C311 C 0.53177 0.54466 0.12733 0.0
C312 C 0.4895 0.51885 0.05575 0.0
C313 C 0.50945 0.52191 0.12604 0.0
C314 C 0.52179 0.57192 0.61289 0.0
C315 C 0.4718 0.53492 0.9093 0.0
H316 H 0.48289 0.43564 0.47586 0.0
H317 H 0.48178 0.4344 0.19606 0.0
H318 H 0.5614 0.46365 0.33171 0.0
H319 H 0.53375 0.45401 0.1954 0.0
H320 H 0.51476 0.57784 0.93682 0.0
H321 H 0.54683 0.54655 0.18266 0.0
H322 H 0.47278 0.50073 0.05514 0.0
H323 H 0.50761 0.50659 0.17973 0.0
Tb324 Tb 0.02219 0.54865 0.59551 0.0
C325 C 0.04177 0.42451 0.73961 0.0
C326 C 0.01864 0.38917 0.63732 0.0
C327 C 0.06393 0.37425 0.71593 0.0
C328 C 0.01967 0.41814 0.67873 0.0
C329 C 0.06358 0.40233 0.76116 0.0
C330 C 0.04149 0.36769 0.65394 0.0
C331 C 0.08063 0.43583 0.8773 0.0
N332 N 0.04044 0.45171 0.78238 0.0
C333 C 0.05852 0.45701 0.85374 0.0
C334 C 0.08357 0.40859 0.82974 0.0
Tb335 Tb 1.00554 0.48635 0.7325 0.0
N336 N 0.99785 0.43946 0.66521 0.0
C337 C 0.97238 0.4315 0.61877 0.0
C338 C 0.99406 0.38222 0.58319 0.0
C339 C 0.97047 0.4032 0.57571 0.0
H340 H 0.05669 0.47824 0.8901 0.0
H341 H 0.95064 0.39755 0.5371 0.0
H342 H 0.04134 0.34553 0.62165 0.0
H343 H 0.09548 0.44061 0.93181 0.0
H344 H 0.95311 0.4464 0.6139 0.0
H345 H 0.07273 0.63928 0.79438 0.0
H346 H 0.99245 0.3603 0.54995 0.0
H347 H 0.97126 0.55333 0.43596 0.0
H348 H 0.07119 0.58926 0.72494 0.0
H349 H 0.93352 0.59038 0.38488 0.0
H350 H 0.08077 0.35707 0.73058 0.0
H351 H 0.03261 0.67713 0.76554 0.0
H352 H 0.98604 0.69133 0.68227 0.0
H353 H 0.10066 0.39216 0.84825 0.0
H354 H 0.94822 0.67817 0.57025 0.0
N355 N 0.02866 0.5962 0.66016 0.0
C356 C 0.05271 0.60444 0.71215 0.0
C357 C 0.03145 0.65471 0.735 0.0
C358 C 1.00824 0.64722 0.67665 0.0
C359 C 0.05406 0.63339 0.75153 0.0
C360 C 1.00766 0.61759 0.63909 0.0
H361 H 0.92881 0.64081 0.45806 0.0
N362 N 0.98746 0.58212 0.53911 0.0
C363 C 0.94811 0.59624 0.43916 0.0
C364 C 0.98631 0.61027 0.5766 0.0
C365 C 0.96962 0.57534 0.46822 0.0
C366 C 0.94546 0.62462 0.4808 0.0
C367 C 0.96505 0.63218 0.54934 0.0
O368 O 0.03311 0.567 0.47465 0.0
O369 O 0.02198 0.49929 0.60708 0.0
O370 O 0.05519 0.48945 0.71291 0.0
O371 O 0.06133 0.54058 0.68374 0.0
O372 O 1.00827 0.51557 0.49208 0.0
O373 O 0.06784 0.54741 0.5535 0.0
O374 O 0.99561 0.46876 0.85504 0.0
O375 O 1.00565 0.53575 0.72148 0.0
O376 O 0.97272 0.54662 0.61742 0.0
O377 O 0.96617 0.49545 0.64531 0.0
O378 O 0.01965 0.51902 0.83608 0.0
O379 O 0.96005 0.48676 0.77599 0.0
C380 C 0.0133 0.49083 0.53231 0.0
C381 C 0.06939 0.53703 0.4017 0.0
C382 C 0.08896 0.48885 0.34138 0.0
C383 C 0.08171 0.50781 0.41324 0.0
C384 C 0.08254 0.49932 0.25757 0.0
C385 C 0.06347 0.54694 0.31754 0.0
C386 C 0.06975 0.52804 0.24605 0.0
C387 C 0.07197 0.51446 0.71352 0.0
C388 C 0.0607 0.55664 0.47653 0.0
C389 C 0.96461 0.66115 0.58954 0.0
C390 C 0.98615 0.66864 0.65323 0.0
C391 C 0.01419 0.54391 0.79686 0.0
C392 C 0.95938 0.49912 0.92663 0.0
C393 C 0.94843 0.52873 0.91232 0.0
C394 C 0.94205 0.54882 0.98233 0.0
C395 C 0.94793 0.53903 0.06716 0.0
C396 C 0.96476 0.48991 1.01172 0.0
C397 C 0.95932 0.50989 0.08142 0.0
C398 C 0.95564 0.52183 0.61684 0.0
C399 C 0.96782 0.47861 0.85353 0.0
H400 H 0.08567 0.49987 0.47822 0.0
H401 H 0.08845 0.48594 0.20028 0.0
H402 H 0.05366 0.56922 0.30719 0.0
H403 H 0.06515 0.53588 0.1813 0.0
H404 H 0.94502 0.53615 0.84656 0.0
H405 H 0.94264 0.55333 0.12316 0.0
H406 H 0.97362 0.46738 0.02412 0.0
H407 H 0.96352 0.50261 0.14694 0.0
H408 H 0.24003 0.05276 0.36993 0.0
H409 H 0.05915 0.03005 0.39679 0.0
H410 H 0.18308 0.0701 0.14959 0.0
H411 H 0.11617 0.04936 0.61823 0.0
H412 H 0.10325 0.03789 0.30146 0.0
H413 H 0.19467 0.04219 0.4563 0.0
C414 C 0.21794 0.05342 0.3389 0.0
C415 C 0.21555 0.06178 0.25168 0.0
C416 C 0.1061 0.04019 0.37098 0.0
C417 C 0.16289 0.05045 0.35182 0.0
C418 C 0.08087 0.03569 0.42583 0.0
C419 C 0.08384 0.03803 0.51678 0.0
C420 C 0.13481 0.04675 0.4069 0.0
C421 C 0.1127 0.04609 0.54935 0.0
C422 C 0.19195 0.04783 0.38875 0.0
C423 C 0.18613 0.06309 0.21587 0.0
N424 N 0.1369 0.04977 0.49495 0.0
N425 N 0.16097 0.05755 0.26599 0.0
H426 H 0.48085 0.17778 0.14131 0.0
H427 H 0.47113 0.11581 0.62909 0.0
H428 H 0.44923 0.23052 0.36245 0.0
H429 H 0.50557 0.06114 0.41522 0.0
H430 H 0.46204 0.15742 0.52979 0.0
H431 H 0.4905 0.13462 0.23777 0.0
C432 C 0.4763 0.18041 0.21009 0.0
C433 C 0.46406 0.20781 0.2436 0.0
C434 C 0.47172 0.13639 0.50432 0.0
C435 C 0.47469 0.15851 0.3543 0.0
C436 C 0.47702 0.11256 0.56134 0.0
C437 C 0.48988 0.085 0.53136 0.0
C438 C 0.47921 0.13287 0.41588 0.0
C439 C 0.49604 0.08199 0.44193 0.0
C440 C 0.48156 0.15571 0.26509 0.0
C441 C 0.45834 0.20978 0.33335 0.0
N442 N 0.49085 0.10562 0.38762 0.0
N443 N 0.46358 0.18562 0.38502 0.0
H444 H 0.34947 0.50631 0.13227 0.0
H445 H 0.44624 0.46733 0.53944 0.0
H446 H 0.30497 0.47504 0.36358 0.0
H447 H 0.45687 0.55819 0.44568 0.0
H448 H 0.4004 0.46115 0.44996 0.0
H449 H 0.39486 0.51902 0.22119 0.0
C450 C 0.34897 0.50236 0.2013 0.0
C451 C 0.32332 0.48876 0.23932 0.0
C452 C 0.41255 0.48261 0.44981 0.0
C453 C 0.37544 0.50245 0.34058 0.0
C454 C 0.43838 0.48633 0.50224 0.0
C455 C 0.45426 0.51401 0.50493 0.0
C456 C 0.40324 0.5062 0.39574 0.0
C457 C 0.44447 0.53693 0.4487 0.0
C458 C 0.37495 0.50947 0.25186 0.0
C459 C 0.32435 0.48432 0.3298 0.0
N460 N 0.41964 0.53258 0.39637 0.0
N461 N 0.34996 0.49047 0.37639 0.0
H462 H 1.00068 0.31728 0.23108 0.0
H463 H 0.06134 0.45043 0.54479 0.0
H464 H 0.09489 0.34464 0.23462 0.0
H465 H 0.97696 0.46356 0.40925 0.0
H466 H 0.07071 0.40421 0.45519 0.0
H467 H 0.98785 0.3646 0.31371 0.0
C468 C 0.01861 0.33328 0.24754 0.0
C469 C 0.04907 0.32632 0.22602 0.0
C470 C 0.04997 0.41702 0.44564 0.0
C471 C 0.0346 0.38 0.32451 0.0
C472 C 0.0445 0.4433 0.49737 0.0
C473 C 0.01802 0.46071 0.4859 0.0
C474 C 0.02866 0.40757 0.38234 0.0
C475 C 0.99748 0.45066 0.42123 0.0
C476 C 0.01128 0.36016 0.29572 0.0
C477 C 0.07117 0.34823 0.25085 0.0
N478 N 1.00298 0.4247 0.37282 0.0
N479 N 0.06364 0.37338 0.29972 0.0
H480 H 0.78252 0.97896 0.99348 0.0
H481 H 0.96324 1.00003 0.95932 0.0
H482 H 0.84031 0.96201 0.21247 0.0
H483 H 0.90553 0.97876 0.74071 0.0
H484 H 0.91948 0.9932 0.05634 0.0
H485 H 0.82757 0.98859 0.90505 0.0
C486 C 0.80474 0.97807 0.02371 0.0
C487 C 0.80744 0.96986 0.11107 0.0
C488 C 0.9164 0.99026 0.98705 0.0
C489 C 0.85972 0.98039 1.00863 0.0
C490 C 0.94142 0.99419 0.9312 0.0
C491 C 0.93815 0.99104 0.84048 0.0
C492 C 0.88757 0.98348 0.95238 0.0
C493 C 0.9092 0.98271 0.80925 0.0
C494 C 0.83054 0.98317 0.97269 0.0
C495 C 0.83701 0.96869 0.14599 0.0
N496 N 0.88517 0.97962 0.86459 0.0
N497 N 0.86197 0.97377 0.09471 0.0
H498 H 0.57514 0.85606 0.24809 0.0
H499 H 0.55663 0.91505 0.76226 0.0
H500 H 0.56433 0.79787 0.02179 0.0
H501 H 0.53939 0.97469 0.98252 0.0
H502 H 0.56467 0.8731 0.86012 0.0
H503 H 0.56516 0.90075 0.15713 0.0
C504 C 0.57021 0.85263 0.17984 0.0
C505 C 0.57087 0.82314 0.14247 0.0
C506 C 0.55889 0.89529 0.88742 0.0
C507 C 0.56013 0.87401 0.03787 0.0
C508 C 0.55407 0.91935 0.83118 0.0
C509 C 0.54609 0.94844 0.8633 0.0
C510 C 0.5562 0.90007 0.97752 0.0
C511 C 0.5448 0.95263 0.95415 0.0
C512 C 0.56476 0.87813 0.1278 0.0
C513 C 0.56452 0.82013 0.05338 0.0
N514 N 0.54966 0.92874 1.00801 0.0
N515 N 0.55975 0.84506 1.00449 0.0
H516 H 0.72916 0.55927 0.9631 0.0
H517 H 0.55563 0.50829 0.91999 0.0
H518 H 0.67601 0.54644 0.19464 0.0
H519 H 0.59817 0.57115 0.74713 0.0
H520 H 0.60108 0.51091 1.01414 0.0
H521 H 0.68367 0.55095 0.87548 0.0
C522 C 0.70795 0.55435 0.99583 0.0
C523 C 0.70657 0.55422 0.08715 0.0
C524 C 0.60055 0.52387 0.95521 0.0
C525 C 0.6539 0.54409 0.98538 0.0
C526 C 0.57476 0.52226 0.90123 0.0
C527 C 0.57356 0.53885 0.82422 0.0
C528 C 0.62548 0.54197 0.93158 0.0
C529 C 0.59847 0.55742 0.80463 0.0
C530 C 0.68192 0.54971 0.94538 0.0
C531 C 0.67834 0.54689 0.12483 0.0
N532 N 0.62347 0.55814 0.85707 0.0
N533 N 0.65311 0.54223 0.07385 0.0
H534 H 0.96323 0.72768 0.96687 0.0
H535 H 0.04342 0.56439 0.94258 0.0
H536 H 0.99522 0.68582 0.2001 0.0
H537 H 0.97196 0.58991 0.76807 0.0
H538 H 0.03392 0.61116 0.02933 0.0
H539 H 0.97524 0.68117 0.88479 0.0
C540 C 0.97297 0.70876 1.00129 0.0
C541 C 0.97755 0.71092 0.0919 0.0
C542 C 0.02057 0.60676 0.97148 0.0
C543 C 0.99215 0.65689 0.9956 0.0
C544 C 0.02607 0.58011 0.92145 0.0
C545 C 1.00942 0.57369 0.84524 0.0
C546 C 0.99829 0.62758 0.94533 0.0
C547 C 0.98648 0.5945 0.82338 0.0
C548 C 0.97976 0.68206 0.95381 0.0
C549 C 0.99115 0.68554 0.13094 0.0
N550 N 0.98193 0.62055 0.87216 0.0
N551 N 0.99789 0.65966 0.08276 0.0
H552 H 0.1046 0.26341 0.39145 0.0
H553 H 0.07404 0.11064 0.40222 0.0
H554 H 0.13523 0.2049 0.17992 0.0
H555 H 0.09199 0.16098 0.64015 0.0
H556 H 0.11609 0.13605 0.33479 0.0
H557 H 0.12168 0.22638 0.49221 0.0
C558 C 0.11569 0.24328 0.36511 0.0
C559 C 0.11603 0.23649 0.27556 0.0
C560 C 0.11157 0.14105 0.40266 0.0
C561 C 0.13389 0.1926 0.39302 0.0
C562 C 0.08724 0.12635 0.44183 0.0
C563 C 0.07759 0.13558 0.52529 0.0
C564 C 0.12506 0.16612 0.44564 0.0
C565 C 0.09688 0.15514 0.57306 0.0
C566 C 0.1255 0.22174 0.42381 0.0
C567 C 0.13186 0.21008 0.24812 0.0
N568 N 0.11892 0.17086 0.53148 0.0
N569 N 0.1388 0.18836 0.30639 0.0
H570 H 0.26948 0.12522 0.40412 0.0
H571 H 0.37511 0.10185 0.66833 0.0
H572 H 0.33259 0.15328 0.20582 0.0
H573 H 0.41391 0.07397 0.42176 0.0
H574 H 0.35108 0.14502 0.59766 0.0
H575 H 0.30722 0.1355 0.51146 0.0
C576 C 0.29083 0.13442 0.38191 0.0
C577 C 0.29847 0.13529 0.29323 0.0
C578 C 0.36563 0.12989 0.55986 0.0
C579 C 0.34287 0.14603 0.41889 0.0
C580 C 0.37911 0.10503 0.59983 0.0
C581 C 0.39471 0.08288 0.54975 0.0
C582 C 0.36765 0.13225 0.4694 0.0
C583 C 0.40098 0.0895 0.46281 0.0
C584 C 0.31279 0.14046 0.44484 0.0
C585 C 0.32647 0.14901 0.27238 0.0
N586 N 0.3867 0.11313 0.42485 0.0
N587 N 0.34836 0.1521 0.33413 0.0
H588 H 0.39681 0.27593 0.33319 0.0
H589 H 0.45312 0.39651 0.46212 0.0
H590 H 0.38002 0.31788 0.08768 0.0
H591 H 0.43048 0.43693 0.21724 0.0
H592 H 0.41047 0.36354 0.4476 0.0
H593 H 0.38601 0.32359 0.40582 0.0
C594 C 0.39025 0.29493 0.29375 0.0
C595 C 0.39287 0.29359 0.20289 0.0
C596 C 0.41432 0.3795 0.39647 0.0
C597 C 0.38365 0.34939 0.28643 0.0
C598 C 0.43905 0.39907 0.40537 0.0
C599 C 0.44708 0.41874 0.33819 0.0
C600 C 0.39824 0.3782 0.31773 0.0
C601 C 0.42683 0.4207 0.26798 0.0
C602 C 0.38483 0.32281 0.33591 0.0
C603 C 0.3815 0.31866 0.15772 0.0
N604 N 0.40407 0.39993 0.25808 0.0
N605 N 0.37922 0.34615 0.19933 0.0
H606 H 0.2535 0.43124 0.35789 0.0
H607 H 0.08723 0.43558 0.24209 0.0
H608 H 0.21522 0.39372 0.12143 0.0
H609 H 0.13091 0.47552 0.46786 0.0
H610 H 0.12778 0.39768 0.23294 0.0
H611 H 0.20671 0.41992 0.43259 0.0
C612 C 0.2358 0.41953 0.32167 0.0
C613 C 0.23746 0.41588 0.231 0.0
C614 C 0.12792 0.41417 0.28614 0.0
C615 C 0.18303 0.40464 0.31607 0.0
C616 C 0.10498 0.43617 0.29068 0.0
C617 C 0.1066 0.46015 0.35239 0.0
C618 C 0.15273 0.41639 0.3432 0.0
C619 C 0.12898 0.45832 0.41703 0.0
C620 C 0.2087 0.41329 0.36478 0.0
C621 C 0.214 0.39928 0.19003 0.0
N622 N 0.15158 0.4374 0.40929 0.0
N623 N 0.18703 0.39567 0.23173 0.0
H624 H 0.88355 0.8237 0.19096 0.0
H625 H 0.92574 0.86983 0.72591 0.0
H626 H 0.9081 0.76637 0.97057 0.0
H627 H 0.94827 0.9159 0.96741 0.0
H628 H 0.88439 0.84374 0.79969 0.0
H629 H 0.87107 0.86432 0.09151 0.0
C630 C 0.88568 0.81913 0.12202 0.0
C631 C 0.90035 0.79258 0.09019 0.0
C632 C 0.89759 0.86063 0.83535 0.0
C633 C 0.88395 0.8382 0.97652 0.0
C634 C 0.92159 0.87516 0.79375 0.0
C635 C 0.94216 0.89319 0.84206 0.0
C636 C 0.89431 0.86427 0.92544 0.0
C637 C 0.93414 0.90102 0.92794 0.0
C638 C 0.87791 0.84227 0.06527 0.0
C639 C 0.89911 0.78701 1.0 0.0
N640 N 0.91138 0.88576 0.96768 0.0
N641 N 0.89212 0.81004 0.94633 0.0
H642 H 0.67604 0.91252 0.13963 0.0
H643 H 0.70339 0.97549 0.7504 0.0
H644 H 0.75596 0.88066 1.00115 0.0
H645 H 0.61054 0.94894 0.80073 0.0
H646 H 0.72073 0.92905 0.81459 0.0
H647 H 0.64742 0.90851 1.00824 0.0
C648 C 0.68785 0.9038 0.0829 0.0
C649 C 0.71975 0.90017 0.08084 0.0
C650 C 0.69643 0.93277 0.80938 0.0
C651 C 0.68652 0.89707 0.92776 0.0
C652 C 0.68637 0.95963 0.77249 0.0
C653 C 0.65534 0.96734 0.77481 0.0
C654 C 0.67553 0.91418 0.8524 0.0
C655 C 0.6348 0.94512 0.80347 0.0
C656 C 0.67108 0.90153 1.00657 0.0
C657 C 0.73222 0.88711 1.0045 0.0
N658 N 0.64525 0.92014 0.84467 0.0
N659 N 0.71607 0.88775 0.92949 0.0
H660 H 0.6535 0.70384 0.22657 0.0
H661 H 0.5932 0.56451 0.11989 0.0
H662 H 0.60148 0.7377 1.0124 0.0
H663 H 0.52777 0.62264 0.99541 0.0
H664 H 0.63014 0.60629 0.11714 0.0
H665 H 0.64565 0.65214 0.1717 0.0
C666 C 0.64174 0.70054 0.16541 0.0
C667 C 0.62599 0.72489 0.12795 0.0
C668 C 0.60779 0.6097 0.08974 0.0
C669 C 0.61732 0.66598 0.06372 0.0
C670 C 0.58656 0.58591 0.09188 0.0
C671 C 0.55715 0.58984 0.05789 0.0
C672 C 0.59937 0.63764 0.05378 0.0
C673 C 0.55016 0.61794 0.02088 0.0
C674 C 0.63711 0.67081 0.13409 0.0
C675 C 0.61265 0.71955 0.04652 0.0
N676 N 0.571 0.64056 0.02015 0.0
N677 N 0.60748 0.69051 0.01897 0.0
H678 H 0.77924 0.60777 0.96423 0.0
H679 H 0.94575 0.60322 0.0765 0.0
H680 H 0.81842 0.64498 0.19997 0.0
H681 H 0.90082 0.56228 0.85417 0.0
H682 H 0.90586 0.6419 0.08397 0.0
H683 H 0.82584 0.61897 0.88845 0.0
C684 C 0.79711 0.61934 1.00012 0.0
C685 C 0.79564 0.62312 0.09078 0.0
C686 C 0.9053 0.62497 0.03189 0.0
C687 C 0.84995 0.63416 1.00436 0.0
C688 C 0.92788 0.60257 0.02824 0.0
C689 C 0.92557 0.57804 0.9685 0.0
C690 C 0.88014 0.62248 0.97607 0.0
C691 C 0.90317 0.57983 0.9039 0.0
C692 C 0.82409 0.62553 0.95636 0.0
C693 C 0.81942 0.63937 0.13138 0.0
N694 N 0.88087 0.60107 0.91099 0.0
N695 N 0.84626 0.64294 0.08896 0.0
H696 H 0.99835 0.22079 0.09098 0.0
H697 H 0.05395 0.09118 0.74434 0.0
H698 H 0.08492 0.22337 0.96059 0.0
H699 H 0.96326 0.09518 0.84983 0.0
H700 H 0.06596 0.13925 0.82287 0.0
H701 H 0.98438 0.17592 1.00075 0.0
C702 C 0.01401 0.21267 0.04138 0.0
C703 C 0.04267 0.22652 0.03274 0.0
C704 C 0.04344 0.12957 0.82929 0.0
C705 C 0.02739 0.17383 0.931 0.0
C706 C 0.0367 0.10187 0.78496 0.0
C707 C 1.00772 0.08855 0.79189 0.0
C708 C 0.02106 0.14434 0.88106 0.0
C709 C 0.98604 0.10424 0.84341 0.0
C710 C 1.00625 0.18662 0.99062 0.0
C711 C 0.06238 0.21391 0.96894 0.0
N712 N 0.99313 0.13091 0.88605 0.0
N713 N 0.05458 0.18839 0.92169 0.0
H714 H 0.31359 0.01647 0.10938 0.0
H715 H 0.44418 0.06264 0.7664 0.0
H716 H 0.31489 0.10197 0.97763 0.0
H717 H 0.4394 0.97501 0.88593 0.0
H718 H 0.39688 0.07756 0.84212 0.0
H719 H 0.35819 0.99994 0.0236 0.0
C720 C 0.32262 0.03141 0.06061 0.0
C721 C 0.31012 0.06058 0.05048 0.0
C722 C 0.40626 0.05511 0.85234 0.0
C723 C 0.36217 0.04226 0.95368 0.0
C724 C 0.43352 0.04674 0.80974 0.0
C725 C 0.44627 0.01775 0.82133 0.0
C726 C 0.39136 0.03429 0.90658 0.0
C727 C 0.43068 0.99774 0.87599 0.0
C728 C 0.34845 0.02217 1.01241 0.0
C729 C 0.32355 0.07921 0.9875 0.0
N730 N 0.40432 1.00635 0.91651 0.0
N731 N 0.34881 0.06993 0.9425 0.0
H732 H 0.476 0.27561 0.91097 0.0
H733 H 0.50453 0.45306 0.93776 0.0
H734 H 0.49897 0.3222 0.15006 0.0
H735 H 0.5229 0.40233 0.70113 0.0
H736 H 0.50109 0.40507 1.01531 0.0
H737 H 0.49332 0.32027 0.83055 0.0
C738 C 0.48606 0.29465 0.94627 0.0
C739 C 0.48685 0.29478 0.03733 0.0
C740 C 0.50615 0.40437 0.94656 0.0
C741 C 0.50484 0.34682 0.94616 0.0
C742 C 0.50795 0.43182 0.90205 0.0
C743 C 0.51396 0.43183 0.81254 0.0
C744 C 0.50963 0.37644 0.90127 0.0
C745 C 0.51835 0.40347 0.77011 0.0
C746 C 0.49548 0.32037 0.90046 0.0
C747 C 0.49876 0.32077 0.0799 0.0
N748 N 0.51566 0.37696 0.81444 0.0
N749 N 0.50668 0.34584 0.03431 0.0
H750 H 0.2218 0.53189 0.08234 0.0
H751 H 0.11261 0.46701 0.70894 0.0
H752 H 0.24569 0.45609 0.91449 0.0
H753 H 0.10182 0.5581 0.81354 0.0
H754 H 0.16127 0.46301 0.78545 0.0
H755 H 0.17901 0.5436 0.98515 0.0
C756 C 0.21891 0.51853 0.02312 0.0
C757 C 0.23795 0.49333 1.0059 0.0
C758 C 0.14854 0.48409 0.79092 0.0
C759 C 0.18779 0.50555 0.89639 0.0
C760 C 0.12065 0.48637 0.74714 0.0
C761 C 0.10308 0.51309 0.75356 0.0
C762 C 0.15905 0.50849 0.84353 0.0
C763 C 0.11473 0.53728 0.80498 0.0
C764 C 0.1941 0.52489 0.96827 0.0
C765 C 0.23209 0.47608 0.92969 0.0
N766 N 0.14168 0.5343 0.84857 0.0
N767 N 0.20747 0.48216 0.87903 0.0
H768 H 0.0222 0.8133 0.2426 0.0
H769 H 0.96884 0.93589 0.61063 0.0
H770 H 0.94153 0.80248 0.39748 0.0
H771 H 0.05877 0.93536 0.49957 0.0
H772 H 0.9575 0.8883 0.52895 0.0
H773 H 0.03624 0.85789 0.33403 0.0
C774 C 1.00797 0.81956 0.29752 0.0
C775 C 0.98084 0.80351 0.31268 0.0
C776 C 0.97969 0.89865 0.52199 0.0
C777 C 0.99603 0.85586 0.41593 0.0
C778 C 0.98603 0.92607 0.56811 0.0
C779 C 0.01461 0.94019 0.56063 0.0
C780 C 1.00202 0.88505 0.46754 0.0
C781 C 0.03629 0.92562 0.5065 0.0
C782 C 0.01572 0.84543 0.34908 0.0
C783 C 0.96285 0.81373 0.38361 0.0
N784 N 0.02953 0.89925 0.46188 0.0
N785 N 0.97049 0.83918 0.43134 0.0
H786 H 0.7179 0.01392 0.27943 0.0
H787 H 0.58882 0.97132 0.62893 0.0
H788 H 0.71428 0.9277 0.40728 0.0
H789 H 0.59618 0.0594 0.51299 0.0
H790 H 0.63502 0.95502 0.55045 0.0
H791 H 0.67538 0.03203 0.37048 0.0
C792 C 0.70885 0.99911 0.32845 0.0
C793 C 0.71995 0.96923 0.33551 0.0
C794 C 0.62647 0.97788 0.54169 0.0
C795 C 0.67018 0.98945 0.43843 0.0
C796 C 0.59985 0.98707 0.58593 0.0
C797 C 0.58811 0.01657 0.57598 0.0
C798 C 0.6418 0.99841 0.48767 0.0
C799 C 0.60413 0.03632 0.52168 0.0
C800 C 0.68416 1.00928 0.37966 0.0
C801 C 0.70657 0.9509 0.39925 0.0
N802 N 0.62992 0.02692 0.4796 0.0
N803 N 0.68235 0.96111 0.44718 0.0
H804 H 0.60254 0.74247 0.45992 0.0
H805 H 0.47915 0.61396 0.56276 0.0
H806 H 0.51961 0.73522 0.31281 0.0
H807 H 0.57601 0.60079 0.58441 0.0
H808 H 0.48843 0.66498 0.50445 0.0
H809 H 0.58677 0.69867 0.54488 0.0
C810 C 0.58026 0.73264 0.44845 0.0
C811 C 0.56228 0.74281 0.37941 0.0
C812 C 0.50758 0.65098 0.52271 0.0
C813 C 0.54443 0.69188 0.4752 0.0
C814 C 0.50233 0.62193 0.55633 0.0
C815 C 0.52684 0.60307 0.57884 0.0
C816 C 0.53754 0.66161 0.51361 0.0
C817 C 0.55643 0.61445 0.5677 0.0
C818 C 0.57158 0.7072 0.49577 0.0
C819 C 0.53397 0.72853 0.36612 0.0
N820 N 0.56092 0.64296 0.53659 0.0
N821 N 0.52606 0.70356 0.41272 0.0
H822 H 0.80532 0.50779 0.24881 0.0
H823 H 0.91634 0.57029 0.62128 0.0
H824 H 0.78515 0.58626 0.41052 0.0
H825 H 0.92428 0.47865 0.51865 0.0
H826 H 0.86798 0.57573 0.54441 0.0
H827 H 0.84726 0.49477 0.3476 0.0
C828 C 0.8088 0.52153 0.30706 0.0
C829 C 0.79109 0.54783 0.32207 0.0
C830 C 0.87997 0.55421 0.53945 0.0
C831 C 0.8403 0.534 0.43343 0.0
C832 C 0.9077 0.5511 0.58353 0.0
C833 C 0.92444 0.52383 0.57759 0.0
C834 C 0.86875 0.53009 0.48705 0.0
C835 C 0.91203 0.4999 0.52668 0.0
C836 C 0.83314 0.51438 0.36282 0.0
C837 C 0.7977 0.56546 0.39706 0.0
N838 N 0.88525 0.50368 0.48274 0.0
N839 N 0.82184 0.55854 0.44866 0.0
loop_
_geom_bond_atom_site_label_1
_geom_bond_atom_site_label_2
_geom_bond_distance
_geom_bond_site_symmetry_2
_ccdc_geom_bond_type
H0 C3 0.931 . S
H1 C6 0.928 . S
H2 C8 0.930 . S
C3 H0 0.931 . S
C3 C4 1.413 . S
C3 C5 1.360 . S
C4 C3 1.413 . S
C4 C8 1.429 . S
C5 C3 1.360 . S
C5 C6 1.372 . S
C6 H1 0.928 . S
C6 C5 1.372 . S
C6 C7 1.404 . S
C7 C6 1.404 . S
C7 C8 1.391 . S
C8 H2 0.930 . S
C8 C4 1.429 . S
C8 C7 1.391 . S
H9 C12 0.931 . S
H10 C15 0.928 . S
H11 C17 0.930 . S
C12 H9 0.931 . S
C12 C13 1.413 . S
C12 C14 1.360 . S
C13 C12 1.413 . S
C13 C17 1.429 . S
C14 C12 1.360 . S
C14 C15 1.372 . S
C15 H10 0.928 . S
C15 C14 1.372 . S
C15 C16 1.404 . S
C16 C15 1.404 . S
C16 C17 1.391 . S
C17 H11 0.930 . S
C17 C13 1.429 . S
C17 C16 1.391 . S
H18 C21 0.931 . S
H19 C24 0.928 . S
H20 C26 0.930 . S
C21 H18 0.931 . S
C21 C22 1.413 . S
C21 C23 1.360 . S
C22 C21 1.413 . S
C22 C26 1.429 . S
C23 C21 1.360 . S
C23 C24 1.372 . S
C24 H19 0.928 . S
C24 C23 1.372 . S
C24 C25 1.404 . S
C25 C24 1.404 . S
C25 C26 1.391 . S
C26 H20 0.930 . S
C26 C22 1.429 . S
C26 C25 1.391 . S
H27 C30 0.931 . S
H28 C33 0.928 . S
H29 C35 0.930 . S
C30 H27 0.931 . S
C30 C31 1.413 . S
C30 C32 1.360 . S
C31 C30 1.413 . S
C31 C35 1.429 . S
C32 C30 1.360 . S
C32 C33 1.372 . S
C33 H28 0.928 . S
C33 C32 1.372 . S
C33 C34 1.404 . S
C34 C33 1.404 . S
C34 C35 1.391 . S
C35 H29 0.930 . S
C35 C31 1.429 . S
C35 C34 1.391 . S
H36 C39 0.931 1_556 S
H37 C42 0.928 . S
H38 C44 0.930 . S
C39 H36 0.931 1_554 S
C39 C40 1.413 1_554 S
C39 C41 1.360 . S
C40 C39 1.413 1_556 S
C40 C44 1.429 . S
C41 C39 1.360 . S
C41 C42 1.372 . S
C42 H37 0.928 . S
C42 C41 1.372 . S
C42 C43 1.404 . S
C43 C42 1.404 . S
C43 C44 1.391 1_554 S
C44 H38 0.930 . S
C44 C40 1.429 . S
C44 C43 1.391 1_556 S
H45 C48 0.931 1_556 S
H46 C51 0.928 . S
H47 C53 0.930 . S
C48 H45 0.931 1_554 S
C48 C49 1.413 1_554 S
C48 C50 1.360 . S
C49 C48 1.413 1_556 S
C49 C53 1.429 . S
C50 C48 1.360 . S
C50 C51 1.372 . S
C51 H46 0.928 . S
C51 C50 1.372 . S
C51 C52 1.404 . S
C52 C51 1.404 . S
C52 C53 1.391 1_554 S
C53 H47 0.930 . S
C53 C49 1.429 . S
C53 C52 1.391 1_556 S
H54 C57 0.931 1_556 S
H55 C60 0.928 . S
H56 C62 0.930 . S
C57 H54 0.931 1_554 S
C57 C58 1.413 1_554 S
C57 C59 1.360 . S
C58 C57 1.413 1_556 S
C58 C62 1.429 . S
C59 C57 1.360 . S
C59 C60 1.372 . S
C60 H55 0.928 . S
C60 C59 1.372 . S
C60 C61 1.404 . S
C61 C60 1.404 . S
C61 C62 1.391 1_554 S
C62 H56 0.930 . S
C62 C58 1.429 . S
C62 C61 1.391 1_556 S
H63 C66 0.931 1_556 S
H64 C69 0.928 . S
H65 C71 0.930 . S
C66 H63 0.931 1_554 S
C66 C67 1.413 . S
C66 C68 1.360 1_554 S
C67 C66 1.413 . S
C67 C71 1.429 . S
C68 C66 1.360 1_556 S
C68 C69 1.372 . S
C69 H64 0.928 . S
C69 C68 1.372 . S
C69 C70 1.404 1_556 S
C70 C69 1.404 1_554 S
C70 C71 1.391 . S
C71 H65 0.930 . S
C71 C67 1.429 . S
C71 C70 1.391 . S
Tb72 N103 2.660 1_565 S
Tb72 N110 2.600 . S
Tb72 O116 2.546 . S
Tb72 O117 2.610 1_455 S
Tb72 O119 2.320 1_455 S
Tb72 O120 2.552 . S
Tb72 O121 2.413 . S
Tb72 O123 2.362 1_565 S
Tb72 O124 2.421 . S
Tb72 C136 2.833 . S
C73 C76 1.419 1_545 S
C73 C77 1.408 1_545 S
C73 N80 1.377 . S
C74 C76 1.417 . S
C74 C78 1.432 . S
C74 C86 1.410 . S
C75 C77 1.444 . S
C75 C78 1.317 . S
C75 H98 0.929 . S
C76 C73 1.419 1_565 S
C76 C74 1.417 . S
C76 N84 1.360 . S
C77 C73 1.408 1_565 S
C77 C75 1.444 . S
C77 C82 1.385 1_565 S
C78 C74 1.432 . S
C78 C75 1.317 . S
C78 H90 0.930 . S
C79 C81 1.392 . S
C79 C82 1.370 . S
C79 H91 0.931 . S
N80 C73 1.377 . S
N80 C81 1.327 . S
N80 Tb83 2.600 . S
C81 C79 1.392 . S
C81 N80 1.327 . S
C81 H88 0.930 . S
C82 C77 1.385 1_545 S
C82 C79 1.370 . S
C82 H101 0.930 . S
Tb83 N80 2.600 . S
Tb83 N84 2.660 1_545 S
Tb83 O117 2.362 1_545 S
Tb83 O118 2.421 . S
Tb83 O122 2.546 . S
Tb83 O123 2.610 1_655 S
Tb83 O125 2.320 1_655 S
Tb83 O126 2.545 1_655 S
Tb83 O127 2.413 . S
Tb83 C147 2.833 . S
N84 C76 1.360 . S
N84 Tb83 2.660 1_565 S
N84 C85 1.305 . S
C85 N84 1.305 . S
C85 C87 1.407 . S
C85 H92 0.930 1_655 S
C86 C74 1.410 . S
C86 C87 1.345 . S
C86 H94 0.930 . S
C87 C85 1.407 . S
C87 C86 1.345 . S
C87 H89 0.930 1_655 S
H88 C81 0.930 . S
H89 C87 0.930 1_455 S
H90 C78 0.930 . S
H91 C79 0.931 . S
H92 C85 0.930 1_455 S
H93 C107 0.930 1_654 S
H94 C86 0.930 . S
H95 C113 0.930 . S
H96 C104 0.930 1_655 S
H97 C111 0.931 . S
H98 C75 0.929 . S
H99 C105 0.930 . S
H100 C138 0.930 . S
H101 C82 0.930 . S
H102 C137 0.929 . S
N103 Tb72 2.660 1_545 S
N103 C104 1.305 . S
N103 C108 1.360 . S
C104 H96 0.930 1_455 S
C104 N103 1.305 . S
C104 C107 1.407 . S
C105 H99 0.930 . S
C105 C106 1.410 1_554 S
C105 C107 1.345 1_554 S
C106 C105 1.410 1_556 S
C106 C108 1.417 . S
C106 C138 1.432 1_556 S
C107 H93 0.930 1_456 S
C107 C104 1.407 . S
C107 C105 1.345 1_556 S
C108 N103 1.360 . S
C108 C106 1.417 . S
C108 C112 1.432 . S
H109 C114 0.930 . S
N110 Tb72 2.600 . S
N110 C112 1.359 1_565 S
N110 C113 1.327 . S
C111 H97 0.931 . S
C111 C113 1.392 . S
C111 C114 1.370 1_565 S
C112 C108 1.432 . S
C112 N110 1.359 1_545 S
C112 C115 1.414 . S
C113 H95 0.930 . S
C113 N110 1.327 . S
C113 C111 1.392 . S
C114 H109 0.930 . S
C114 C111 1.370 1_545 S
C114 C115 1.385 . S
C115 C112 1.414 . S
C115 C114 1.385 . S
C115 C137 1.444 . S
O116 Tb72 2.546 . S
O116 C136 1.251 . S
O117 Tb72 2.610 1_655 S
O117 Tb83 2.362 1_565 S
O117 C128 1.283 . S
O118 Tb83 2.421 . S
O118 C135 1.262 . S
O119 Tb72 2.320 1_655 S
O119 C135 1.260 1_565 S
O120 Tb72 2.552 . S
O120 C128 1.243 1_455 S
O121 Tb72 2.413 . S
O121 C136 1.256 . S
O122 Tb83 2.546 . S
O122 C147 1.251 . S
O123 Tb72 2.362 1_545 S
O123 Tb83 2.610 1_455 S
O123 C139 1.283 . S
O124 Tb72 2.421 . S
O124 C146 1.262 1_565 S
O125 Tb83 2.320 1_455 S
O125 C146 1.260 . S
O126 Tb83 2.545 1_455 S
O126 C139 1.255 . S
O127 Tb83 2.413 . S
O127 C147 1.256 . S
C128 O117 1.283 . S
C128 O120 1.243 1_655 S
C129 C131 1.382 . S
C129 C133 1.393 . S
C129 C136 1.500 . S
C130 C131 1.400 . S
C130 C132 1.384 . S
C131 C129 1.382 . S
C131 C130 1.400 . S
C131 H148 0.930 . S
C132 C130 1.384 . S
C132 C134 1.392 . S
C132 H149 0.931 1_556 S
C133 C129 1.393 . S
C133 C134 1.401 . S
C133 H150 0.930 . S
C134 C132 1.392 . S
C134 C133 1.401 . S
C134 H151 0.930 . S
C135 O118 1.262 . S
C135 O119 1.260 1_545 S
C136 Tb72 2.833 . S
C136 O116 1.251 . S
C136 O121 1.256 . S
C136 C129 1.500 . S
C137 H102 0.929 . S
C137 C115 1.444 . S
C137 C138 1.317 1_556 S
C138 H100 0.930 . S
C138 C106 1.432 1_554 S
C138 C137 1.317 1_554 S
C139 O123 1.283 . S
C139 O126 1.255 . S
C140 C141 1.382 . S
C140 C144 1.393 . S
C140 C147 1.500 . S
C141 C140 1.382 . S
C141 C142 1.400 . S
C141 H152 0.930 1_655 S
C142 C141 1.400 . S
C142 C143 1.384 . S
C143 C142 1.384 . S
C143 C145 1.392 . S
C143 H153 0.931 . S
C144 C140 1.393 . S
C144 C145 1.401 . S
C144 H154 0.930 . S
C145 C143 1.392 . S
C145 C144 1.401 . S
C145 H155 0.930 . S
C146 O124 1.262 1_545 S
C146 O125 1.260 . S
C147 Tb83 2.833 . S
C147 O122 1.251 . S
C147 O127 1.256 . S
C147 C140 1.500 . S
H148 C131 0.930 . S
H149 C132 0.931 1_554 S
H150 C133 0.930 . S
H151 C134 0.930 . S
H152 C141 0.930 1_455 S
H153 C143 0.931 . S
H154 C144 0.930 . S
H155 C145 0.930 . S
Tb156 N187 2.660 . S
Tb156 N194 2.600 . S
Tb156 O200 2.546 . S
Tb156 O201 2.610 1_545 S
Tb156 O203 2.320 1_545 S
Tb156 O204 2.552 . S
Tb156 O205 2.413 . S
Tb156 O207 2.362 . S
Tb156 O208 2.421 . S
Tb156 C220 2.833 . S
C157 C160 1.432 . S
C157 C161 1.414 . S
C157 N164 1.359 . S
C158 C160 1.417 . S
C158 C162 1.432 . S
C158 C170 1.410 . S
C159 C161 1.444 . S
C159 C162 1.317 . S
C159 H182 0.929 . S
C160 C157 1.432 . S
C160 C158 1.417 . S
C160 N168 1.360 . S
C161 C157 1.414 . S
C161 C159 1.444 . S
C161 C166 1.385 . S
C162 C158 1.432 . S
C162 C159 1.317 . S
C162 H174 0.930 . S
C163 C165 1.392 . S
C163 C166 1.370 . S
C163 H175 0.931 . S
N164 C157 1.359 . S
N164 C165 1.327 . S
N164 Tb167 2.600 . S
C165 C163 1.392 . S
C165 N164 1.327 . S
C165 H172 0.930 . S
C166 C161 1.385 . S
C166 C163 1.370 . S
C166 H185 0.930 . S
Tb167 N164 2.600 . S
Tb167 N168 2.660 . S
Tb167 O201 2.362 . S
Tb167 O202 2.421 . S
Tb167 O206 2.546 . S
Tb167 O207 2.610 1_565 S
Tb167 O209 2.320 1_565 S
Tb167 O210 2.552 1_565 S
Tb167 O211 2.413 . S
Tb167 C231 2.833 . S
N168 C160 1.360 . S
N168 Tb167 2.660 . S
N168 C169 1.286 1_565 S
C169 N168 1.286 1_545 S
C169 C171 1.406 1_545 S
C169 H176 0.951 . S
C170 C158 1.410 . S
C170 C171 1.376 . S
C170 H178 0.930 . S
C171 C169 1.406 1_565 S
C171 C170 1.376 . S
C171 H173 0.901 1_565 S
H172 C165 0.930 . S
H173 C171 0.901 1_545 S
H174 C162 0.930 . S
H175 C163 0.931 . S
H176 C169 0.951 . S
H177 C191 0.930 1_564 S
H178 C170 0.930 . S
H179 C197 0.930 . S
H180 C188 0.930 1_565 S
H181 C195 0.931 . S
H182 C159 0.929 . S
H183 C189 0.930 . S
H184 C222 0.930 . S
H185 C166 0.930 . S
H186 C221 0.929 1_554 S
N187 Tb156 2.660 . S
N187 C188 1.305 . S
N187 C192 1.360 . S
C188 H180 0.930 1_545 S
C188 N187 1.305 . S
C188 C191 1.407 . S
C189 H183 0.930 . S
C189 C190 1.410 1_554 S
C189 C191 1.345 1_554 S
C190 C189 1.410 1_556 S
C190 C192 1.417 . S
C190 C222 1.432 1_556 S
C191 H177 0.930 1_546 S
C191 C188 1.407 . S
C191 C189 1.345 1_556 S
C192 N187 1.360 . S
C192 C190 1.417 . S
C192 C196 1.432 . S
H193 C198 0.930 . S
N194 Tb156 2.600 . S
N194 C196 1.359 . S
N194 C197 1.327 . S
C195 H181 0.931 . S
C195 C197 1.392 . S
C195 C198 1.370 . S
C196 C192 1.432 . S
C196 N194 1.359 . S
C196 C199 1.414 . S
C197 H179 0.930 . S
C197 N194 1.327 . S
C197 C195 1.392 . S
C198 H193 0.930 . S
C198 C195 1.370 . S
C198 C199 1.385 . S
C199 C196 1.414 . S
C199 C198 1.385 . S
C199 C221 1.444 . S
O200 Tb156 2.546 . S
O200 C220 1.251 . S
O201 Tb156 2.610 1_565 S
O201 Tb167 2.362 . S
O201 C212 1.283 . S
O202 Tb167 2.421 . S
O202 C219 1.262 . S
O203 Tb156 2.320 1_565 S
O203 C219 1.260 . S
O204 Tb156 2.552 . S
O204 C212 1.243 1_545 S
O205 Tb156 2.413 . S
O205 C220 1.256 . S
O206 Tb167 2.546 . S
O206 C231 1.251 . S
O207 Tb156 2.362 . S
O207 Tb167 2.610 1_545 S
O207 C223 1.283 . S
O208 Tb156 2.421 . S
O208 C230 1.262 . S
O209 Tb167 2.320 1_545 S
O209 C230 1.260 . S
O210 Tb167 2.552 1_545 S
O210 C223 1.243 . S
O211 Tb167 2.413 . S
O211 C231 1.256 . S
C212 O201 1.283 . S
C212 O204 1.243 1_565 S
C213 C215 1.382 . S
C213 C217 1.393 . S
C213 C220 1.500 . S
C214 C215 1.400 . S
C214 C216 1.384 . S
C215 C213 1.382 . S
C215 C214 1.400 . S
C215 H232 0.930 . S
C216 C214 1.384 . S
C216 C218 1.392 . S
C216 H233 0.931 1_556 S
C217 C213 1.393 . S
C217 C218 1.401 . S
C217 H234 0.930 . S
C218 C216 1.392 . S
C218 C217 1.401 . S
C218 H235 0.930 . S
C219 O202 1.262 . S
C219 O203 1.260 . S
C220 Tb156 2.833 . S
C220 O200 1.251 . S
C220 O205 1.256 . S
C220 C213 1.500 . S
C221 H186 0.929 1_556 S
C221 C199 1.444 . S
C221 C222 1.317 1_556 S
C222 H184 0.930 . S
C222 C190 1.432 1_554 S
C222 C221 1.317 1_554 S
C223 O207 1.283 . S
C223 O210 1.243 . S
C224 C225 1.382 . S
C224 C228 1.393 . S
C224 C231 1.500 . S
C225 C224 1.382 . S
C225 C226 1.400 . S
C225 H236 0.930 1_565 S
C226 C225 1.400 . S
C226 C227 1.384 . S
C227 C226 1.384 . S
C227 C229 1.392 . S
C227 H237 0.931 . S
C228 C224 1.393 . S
C228 C229 1.401 . S
C228 H238 0.930 . S
C229 C227 1.392 . S
C229 C228 1.401 . S
C229 H239 0.930 . S
C230 O208 1.262 . S
C230 O209 1.260 . S
C231 Tb167 2.833 . S
C231 O206 1.251 . S
C231 O211 1.256 . S
C231 C224 1.500 . S
H232 C215 0.930 . S
H233 C216 0.931 1_554 S
H234 C217 0.930 . S
H235 C218 0.930 . S
H236 C225 0.930 1_545 S
H237 C227 0.931 . S
H238 C228 0.930 . S
H239 C229 0.930 . S
Tb240 N271 2.660 . S
Tb240 N278 2.600 . S
Tb240 O284 2.546 . S
Tb240 O285 2.610 . S
Tb240 O287 2.320 . S
Tb240 O288 2.552 . S
Tb240 O289 2.413 . S
Tb240 O291 2.362 . S
Tb240 O292 2.421 . S
Tb240 C304 2.833 . S
C241 C244 1.432 . S
C241 C245 1.414 . S
C241 N248 1.359 . S
C242 C244 1.417 . S
C242 C246 1.432 . S
C242 C254 1.410 . S
C243 C245 1.444 . S
C243 C246 1.317 . S
C243 H266 0.929 . S
C244 C241 1.432 . S
C244 C242 1.417 . S
C244 N252 1.360 . S
C245 C241 1.414 . S
C245 C243 1.444 . S
C245 C250 1.385 . S
C246 C242 1.432 . S
C246 C243 1.317 . S
C246 H258 0.930 . S
C247 C249 1.392 . S
C247 C250 1.370 . S
C247 H259 0.931 . S
N248 C241 1.359 . S
N248 C249 1.327 . S
N248 Tb251 2.600 . S
C249 C247 1.392 . S
C249 N248 1.327 . S
C249 H256 0.930 . S
C250 C245 1.385 . S
C250 C247 1.370 . S
C250 H269 0.930 . S
Tb251 N248 2.600 . S
Tb251 N252 2.660 . S
Tb251 O285 2.362 . S
Tb251 O286 2.421 . S
Tb251 O290 2.546 . S
Tb251 O291 2.610 . S
Tb251 O293 2.320 . S
Tb251 O294 2.552 . S
Tb251 O295 2.413 . S
Tb251 C315 2.833 . S
N252 C244 1.360 . S
N252 Tb251 2.660 . S
N252 C253 1.305 . S
C253 N252 1.305 . S
C253 C255 1.407 . S
C253 H260 0.930 . S
C254 C242 1.410 . S
C254 C255 1.345 . S
C254 H262 0.930 . S
C255 C253 1.407 . S
C255 C254 1.345 . S
C255 H257 0.930 . S
H256 C249 0.930 . S
H257 C255 0.930 . S
H258 C246 0.930 . S
H259 C247 0.931 . S
H260 C253 0.930 . S
H261 C275 0.930 . S
H262 C254 0.930 . S
H263 C281 0.930 . S
H264 C272 0.930 . S
H265 C279 0.931 . S
H266 C243 0.929 . S
H267 C273 0.930 . S
H268 C306 0.930 . S
H269 C250 0.930 . S
H270 C305 0.929 . S
N271 Tb240 2.660 . S
N271 C272 1.305 . S
N271 C276 1.360 . S
C272 H264 0.930 . S
C272 N271 1.305 . S
C272 C275 1.407 . S
C273 H267 0.930 . S
C273 C274 1.410 . S
C273 C275 1.345 . S
C274 C273 1.410 . S
C274 C276 1.417 . S
C274 C306 1.432 . S
C275 H261 0.930 . S
C275 C272 1.407 . S
C275 C273 1.345 . S
C276 N271 1.360 . S
C276 C274 1.417 . S
C276 C280 1.432 . S
H277 C282 0.930 . S
N278 Tb240 2.600 . S
N278 C280 1.359 . S
N278 C281 1.327 . S
C279 H265 0.931 . S
C279 C281 1.392 . S
C279 C282 1.370 . S
C280 C276 1.432 . S
C280 N278 1.359 . S
C280 C283 1.414 . S
C281 H263 0.930 . S
C281 N278 1.327 . S
C281 C279 1.392 . S
C282 H277 0.930 . S
C282 C279 1.370 . S
C282 C283 1.385 . S
C283 C280 1.414 . S
C283 C282 1.385 . S
C283 C305 1.444 . S
O284 Tb240 2.546 . S
O284 C304 1.251 . S
O285 Tb240 2.610 . S
O285 Tb251 2.362 . S
O285 C296 1.283 . S
O286 Tb251 2.421 . S
O286 C303 1.262 . S
O287 Tb240 2.320 . S
O287 C303 1.260 . S
O288 Tb240 2.552 . S
O288 C296 1.243 . S
O289 Tb240 2.413 . S
O289 C304 1.256 . S
O290 Tb251 2.546 . S
O290 C315 1.251 . S
O291 Tb240 2.362 . S
O291 Tb251 2.610 . S
O291 C307 1.283 . S
O292 Tb240 2.421 . S
O292 C314 1.262 . S
O293 Tb251 2.320 . S
O293 C314 1.260 . S
O294 Tb251 2.552 . S
O294 C307 1.243 . S
O295 Tb251 2.413 . S
O295 C315 1.256 . S
C296 O285 1.283 . S
C296 O288 1.243 . S
C297 C299 1.382 . S
C297 C301 1.393 . S
C297 C304 1.500 . S
C298 C299 1.400 . S
C298 C300 1.384 . S
C299 C297 1.382 . S
C299 C298 1.400 . S
C299 H316 0.930 . S
C300 C298 1.384 . S
C300 C302 1.392 . S
C300 H317 0.931 . S
C301 C297 1.393 . S
C301 C302 1.401 . S
C301 H318 0.930 . S
C302 C300 1.392 . S
C302 C301 1.401 . S
C302 H319 0.930 . S
C303 O286 1.262 . S
C303 O287 1.260 . S
C304 Tb240 2.833 . S
C304 O284 1.251 . S
C304 O289 1.256 . S
C304 C297 1.500 . S
C305 H270 0.929 . S
C305 C283 1.444 . S
C305 C306 1.317 . S
C306 H268 0.930 . S
C306 C274 1.432 . S
C306 C305 1.317 . S
C307 O291 1.283 . S
C307 O294 1.243 . S
C308 C309 1.382 . S
C308 C312 1.393 1_556 S
C308 C315 1.500 . S
C309 C308 1.382 . S
C309 C310 1.400 1_556 S
C309 H320 0.930 . S
C310 C309 1.400 1_554 S
C310 C311 1.384 . S
C311 C310 1.384 . S
C311 C313 1.392 . S
C311 H321 0.931 . S
C312 C308 1.393 1_554 S
C312 C313 1.401 . S
C312 H322 0.930 . S
C313 C311 1.392 . S
C313 C312 1.401 . S
C313 H323 0.930 . S
C314 O292 1.262 . S
C314 O293 1.260 . S
C315 Tb251 2.833 . S
C315 O290 1.251 . S
C315 O295 1.256 . S
C315 C308 1.500 . S
H316 C299 0.930 . S
H317 C300 0.931 . S
H318 C301 0.930 . S
H319 C302 0.930 . S
H320 C309 0.930 . S
H321 C311 0.931 . S
H322 C312 0.930 . S
H323 C313 0.930 . S
Tb324 N355 2.660 . S
Tb324 N362 2.600 . S
Tb324 O368 2.546 . S
Tb324 O369 2.610 . S
Tb324 O371 2.320 . S
Tb324 O372 2.552 . S
Tb324 O373 2.413 . S
Tb324 O375 2.349 1_455 S
Tb324 O376 2.421 1_455 S
Tb324 C388 2.833 . S
C325 C328 1.432 . S
C325 C329 1.414 . S
C325 N332 1.359 . S
C326 C328 1.417 . S
C326 C330 1.432 . S
C326 C338 1.410 . S
C327 C329 1.444 . S
C327 C330 1.317 . S
C327 H350 0.929 . S
C328 C325 1.432 . S
C328 C326 1.417 . S
C328 N336 1.360 . S
C329 C325 1.414 . S
C329 C327 1.444 . S
C329 C334 1.385 1_655 S
C330 C326 1.432 . S
C330 C327 1.317 . S
C330 H342 0.930 . S
C331 C333 1.392 . S
C331 C334 1.370 . S
C331 H343 0.931 . S
N332 C325 1.359 . S
N332 C333 1.327 1_655 S
N332 Tb335 2.600 . S
C333 C331 1.392 . S
C333 N332 1.327 1_455 S
C333 H340 0.930 . S
C334 C329 1.385 1_455 S
C334 C331 1.370 . S
C334 H353 0.930 . S
Tb335 N332 2.600 . S
Tb335 N336 2.660 . S
Tb335 O369 2.362 1_655 S
Tb335 O370 2.421 1_655 S
Tb335 O374 2.546 . S
Tb335 O375 2.618 . S
Tb335 O377 2.320 . S
Tb335 O378 2.552 . S
Tb335 O379 2.413 . S
Tb335 C399 2.833 . S
N336 C328 1.360 . S
N336 Tb335 2.660 . S
N336 C337 1.305 . S
C337 N336 1.305 . S
C337 C339 1.407 . S
C337 H344 0.930 . S
C338 C326 1.410 . S
C338 C339 1.345 . S
C338 H346 0.930 . S
C339 C337 1.407 . S
C339 C338 1.345 . S
C339 H341 0.930 . S
H340 C333 0.930 . S
H341 C339 0.930 . S
H342 C330 0.930 . S
H343 C331 0.931 . S
H344 C337 0.930 . S
H345 C359 0.930 . S
H346 C338 0.930 . S
H347 C365 0.930 . S
H348 C356 0.930 . S
H349 C363 0.931 . S
H350 C327 0.929 . S
H351 C357 0.930 . S
H352 C390 0.930 . S
H353 C334 0.930 . S
H354 C389 0.929 . S
N355 Tb324 2.660 . S
N355 C356 1.305 . S
N355 C360 1.360 . S
C356 H348 0.930 . S
C356 N355 1.305 . S
C356 C359 1.407 . S
C357 H351 0.930 . S
C357 C358 1.410 . S
C357 C359 1.345 . S
C358 C357 1.410 . S
C358 C360 1.417 . S
C358 C390 1.432 . S
C359 H345 0.930 . S
C359 C356 1.407 . S
C359 C357 1.345 . S
C360 N355 1.360 . S
C360 C358 1.417 . S
C360 C364 1.432 . S
H361 C366 0.930 . S
N362 Tb324 2.600 . S
N362 C364 1.359 . S
N362 C365 1.327 1_455 S
C363 H349 0.931 . S
C363 C365 1.392 . S
C363 C366 1.370 1_655 S
C364 C360 1.432 . S
C364 N362 1.359 . S
C364 C367 1.414 . S
C365 H347 0.930 . S
C365 N362 1.327 1_655 S
C365 C363 1.392 . S
C366 H361 0.930 . S
C366 C363 1.370 1_455 S
C366 C367 1.385 . S
C367 C364 1.414 . S
C367 C366 1.385 . S
C367 C389 1.444 . S
O368 Tb324 2.546 . S
O368 C388 1.251 . S
O369 Tb324 2.610 . S
O369 Tb335 2.362 1_455 S
O369 C380 1.283 . S
O370 Tb335 2.421 1_455 S
O370 C387 1.262 . S
O371 Tb324 2.320 . S
O371 C387 1.260 . S
O372 Tb324 2.552 . S
O372 C380 1.243 . S
O373 Tb324 2.413 . S
O373 C388 1.256 . S
O374 Tb335 2.546 . S
O374 C399 1.251 . S
O375 Tb324 2.349 1_655 S
O375 Tb335 2.618 . S
O375 C391 1.293 . S
O376 Tb324 2.421 1_655 S
O376 C398 1.262 . S
O377 Tb335 2.320 . S
O377 C398 1.260 . S
O378 Tb335 2.552 . S
O378 C391 1.243 . S
O379 Tb335 2.413 . S
O379 C399 1.256 . S
C380 O369 1.283 . S
C380 O372 1.243 . S
C381 C383 1.382 . S
C381 C385 1.393 . S
C381 C388 1.500 . S
C382 C383 1.400 . S
C382 C384 1.384 . S
C383 C381 1.382 . S
C383 C382 1.400 . S
C383 H400 0.930 . S
C384 C382 1.384 . S
C384 C386 1.392 . S
C384 H401 0.931 . S
C385 C381 1.393 . S
C385 C386 1.401 . S
C385 H402 0.930 . S
C386 C384 1.392 . S
C386 C385 1.401 . S
C386 H403 0.930 . S
C387 O370 1.262 . S
C387 O371 1.260 . S
C388 Tb324 2.833 . S
C388 O368 1.251 . S
C388 O373 1.256 . S
C388 C381 1.500 . S
C389 H354 0.929 . S
C389 C367 1.444 . S
C389 C390 1.317 . S
C390 H352 0.930 . S
C390 C358 1.432 . S
C390 C389 1.317 . S
C391 O375 1.293 . S
C391 O378 1.243 . S
C392 C393 1.382 . S
C392 C396 1.393 1_556 S
C392 C399 1.500 . S
C393 C392 1.382 . S
C393 C394 1.400 1_556 S
C393 H404 0.930 . S
C394 C393 1.400 1_554 S
C394 C395 1.384 . S
C395 C394 1.384 . S
C395 C397 1.392 . S
C395 H405 0.931 . S
C396 C392 1.393 1_554 S
C396 C397 1.401 . S
C396 H406 0.930 . S
C397 C395 1.392 . S
C397 C396 1.401 . S
C397 H407 0.930 . S
C398 O376 1.262 . S
C398 O377 1.260 . S
C399 Tb335 2.833 . S
C399 O374 1.251 . S
C399 O379 1.256 . S
C399 C392 1.500 . S
H400 C383 0.930 . S
H401 C384 0.931 . S
H402 C385 0.930 . S
H403 C386 0.930 . S
H404 C393 0.930 . S
H405 C395 0.931 . S
H406 C396 0.930 . S
H407 C397 0.930 . S
H408 C414 0.930 . S
H409 C418 0.930 . S
H410 C423 0.929 . S
H411 C421 0.929 1_565 S
H412 C416 0.929 . S
H413 C422 0.929 . S
C414 H408 0.930 . S
C414 C415 1.367 . S
C414 C422 1.378 . S
C415 C414 1.367 . S
C415 C423 1.433 . S
C416 H412 0.929 . S
C416 C418 1.378 . S
C416 C420 1.350 . S
C417 C420 1.463 . S
C417 C422 1.350 . S
C417 N425 1.427 . S
C418 H409 0.930 . S
C418 C416 1.378 . S
C418 C419 1.367 . S
C419 C418 1.367 . S
C419 C421 1.433 . S
C420 C416 1.350 . S
C420 C417 1.463 . S
C420 N424 1.427 . S
C421 H411 0.929 1_545 S
C421 C419 1.433 . S
C421 N424 1.384 . S
C422 H413 0.929 . S
C422 C414 1.378 . S
C422 C417 1.350 . S
C423 H410 0.929 . S
C423 C415 1.433 . S
C423 N425 1.384 . S
N424 C420 1.427 . S
N424 C421 1.384 . S
N425 C417 1.427 . S
N425 C423 1.384 . S
H426 C432 0.930 . S
H427 C436 0.930 . S
H428 C441 0.929 . S
H429 C439 0.929 . S
H430 C434 0.929 . S
H431 C440 0.929 . S
C432 H426 0.930 . S
C432 C433 1.367 . S
C432 C440 1.378 . S
C433 C432 1.367 . S
C433 C441 1.433 . S
C434 H430 0.929 . S
C434 C436 1.378 . S
C434 C438 1.350 . S
C435 C438 1.463 . S
C435 C440 1.350 . S
C435 N443 1.427 . S
C436 H427 0.930 . S
C436 C434 1.378 . S
C436 C437 1.367 . S
C437 C436 1.367 . S
C437 C439 1.433 . S
C438 C434 1.350 . S
C438 C435 1.463 . S
C438 N442 1.427 . S
C439 H429 0.929 . S
C439 C437 1.433 . S
C439 N442 1.384 . S
C440 H431 0.929 . S
C440 C432 1.378 . S
C440 C435 1.350 . S
C441 H428 0.929 . S
C441 C433 1.433 . S
C441 N443 1.384 . S
N442 C438 1.427 . S
N442 C439 1.384 . S
N443 C435 1.427 . S
N443 C441 1.384 . S
H444 C450 0.930 . S
H445 C454 0.930 . S
H446 C459 0.929 . S
H447 C457 0.929 . S
H448 C452 0.929 . S
H449 C458 0.929 . S
C450 H444 0.930 . S
C450 C451 1.367 . S
C450 C458 1.378 . S
C451 C450 1.367 . S
C451 C459 1.433 . S
C452 H448 0.929 . S
C452 C454 1.378 . S
C452 C456 1.350 . S
C453 C456 1.463 . S
C453 C458 1.350 . S
C453 N461 1.427 . S
C454 H445 0.930 . S
C454 C452 1.378 . S
C454 C455 1.367 . S
C455 C454 1.367 . S
C455 C457 1.433 . S
C456 C452 1.350 . S
C456 C453 1.463 . S
C456 N460 1.427 . S
C457 H447 0.929 . S
C457 C455 1.433 . S
C457 N460 1.384 . S
C458 H449 0.929 . S
C458 C450 1.378 . S
C458 C453 1.350 . S
C459 H446 0.929 . S
C459 C451 1.433 . S
C459 N461 1.384 . S
N460 C456 1.427 . S
N460 C457 1.384 . S
N461 C453 1.427 . S
N461 C459 1.384 . S
H462 C468 0.930 . S
H463 C472 0.930 . S
H464 C477 0.929 . S
H465 C475 0.929 1_655 S
H466 C470 0.929 . S
H467 C476 0.929 . S
C468 H462 0.930 . S
C468 C469 1.367 . S
C468 C476 1.378 . S
C469 C468 1.367 . S
C469 C477 1.433 . S
C470 H466 0.929 . S
C470 C472 1.378 . S
C470 C474 1.350 . S
C471 C474 1.463 . S
C471 C476 1.350 . S
C471 N479 1.427 . S
C472 H463 0.930 . S
C472 C470 1.378 . S
C472 C473 1.367 . S
C473 C472 1.367 . S
C473 C475 1.433 . S
C474 C470 1.350 . S
C474 C471 1.463 . S
C474 N478 1.427 . S
C475 H465 0.929 1_455 S
C475 C473 1.433 . S
C475 N478 1.384 . S
C476 H467 0.929 . S
C476 C468 1.378 . S
C476 C471 1.350 . S
C477 H464 0.929 . S
C477 C469 1.433 . S
C477 N479 1.384 . S
N478 C474 1.427 . S
N478 C475 1.384 . S
N479 C471 1.427 . S
N479 C477 1.384 . S
H480 C486 0.914 1_545 S
H481 C490 0.930 . S
H482 C495 0.929 . S
H483 C493 0.929 . S
H484 C488 0.929 . S
H485 C494 0.929 1_545 S
C486 H480 0.914 1_565 S
C486 C487 1.367 . S
C486 C494 1.378 . S
C487 C486 1.367 . S
C487 C495 1.433 . S
C488 H484 0.929 . S
C488 C490 1.378 . S
C488 C492 1.350 . S
C489 C492 1.463 1_554 S
C489 C494 1.350 . S
C489 N497 1.427 . S
C490 H481 0.930 . S
C490 C488 1.378 . S
C490 C491 1.367 . S
C491 C490 1.367 . S
C491 C493 1.433 1_565 S
C492 C488 1.350 . S
C492 C489 1.463 1_556 S
C492 N496 1.427 1_565 S
C493 H483 0.929 . S
C493 C491 1.433 1_545 S
C493 N496 1.384 . S
C494 H485 0.929 1_565 S
C494 C486 1.378 . S
C494 C489 1.350 . S
C495 H482 0.929 . S
C495 C487 1.433 . S
C495 N497 1.384 . S
N496 C492 1.427 1_545 S
N496 C493 1.384 . S
N497 C489 1.427 . S
N497 C495 1.384 . S
H498 C504 0.930 . S
H499 C508 0.930 . S
H500 C513 0.929 . S
H501 C511 0.929 . S
H502 C506 0.929 . S
H503 C512 0.929 . S
C504 H498 0.930 . S
C504 C505 1.367 . S
C504 C512 1.378 . S
C505 C504 1.367 . S
C505 C513 1.433 . S
C506 H502 0.929 . S
C506 C508 1.378 . S
C506 C510 1.350 . S
C507 C510 1.463 1_554 S
C507 C512 1.350 . S
C507 N515 1.427 . S
C508 H499 0.930 . S
C508 C506 1.378 . S
C508 C509 1.367 . S
C509 C508 1.367 . S
C509 C511 1.433 . S
C510 C506 1.350 . S
C510 C507 1.463 1_556 S
C510 N514 1.427 . S
C511 H501 0.929 . S
C511 C509 1.433 . S
C511 N514 1.384 . S
C512 H503 0.929 . S
C512 C504 1.378 . S
C512 C507 1.350 . S
C513 H500 0.929 . S
C513 C505 1.433 . S
C513 N515 1.384 . S
N514 C510 1.427 . S
N514 C511 1.384 . S
N515 C507 1.427 . S
N515 C513 1.384 . S
H516 C522 0.930 . S
H517 C526 0.930 . S
H518 C531 0.929 . S
H519 C529 0.929 . S
H520 C524 0.929 1_554 S
H521 C530 0.929 1_556 S
C522 H516 0.930 . S
C522 C523 1.367 . S
C522 C530 1.378 . S
C523 C522 1.367 . S
C523 C531 1.433 . S
C524 H520 0.929 1_556 S
C524 C526 1.378 . S
C524 C528 1.350 . S
C525 C528 1.463 1_554 S
C525 C530 1.350 . S
C525 N533 1.427 . S
C526 H517 0.930 . S
C526 C524 1.378 . S
C526 C527 1.367 . S
C527 C526 1.367 . S
C527 C529 1.433 . S
C528 C524 1.350 . S
C528 C525 1.463 1_556 S
C528 N532 1.427 . S
C529 H519 0.929 . S
C529 C527 1.433 . S
C529 N532 1.384 . S
C530 H521 0.929 1_554 S
C530 C522 1.378 . S
C530 C525 1.350 . S
C531 H518 0.929 . S
C531 C523 1.433 . S
C531 N533 1.384 . S
N532 C528 1.427 . S
N532 C529 1.384 . S
N533 C525 1.427 . S
N533 C531 1.384 . S
H534 C540 0.930 . S
H535 C544 0.930 . S
H536 C549 0.929 . S
H537 C547 0.929 1_455 S
H538 C542 0.929 1_554 S
H539 C548 0.929 . S
C540 H534 0.930 . S
C540 C541 1.367 . S
C540 C548 1.378 . S
C541 C540 1.367 . S
C541 C549 1.433 . S
C542 H538 0.929 1_556 S
C542 C544 1.378 . S
C542 C546 1.350 . S
C543 C546 1.463 1_554 S
C543 C548 1.350 . S
C543 N551 1.427 . S
C544 H535 0.930 . S
C544 C542 1.378 . S
C544 C545 1.367 . S
C545 C544 1.367 . S
C545 C547 1.433 . S
C546 C542 1.350 . S
C546 C543 1.463 1_556 S
C546 N550 1.427 . S
C547 H537 0.929 1_655 S
C547 C545 1.433 . S
C547 N550 1.384 . S
C548 H539 0.929 . S
C548 C540 1.378 . S
C548 C543 1.350 . S
C549 H536 0.929 . S
C549 C541 1.433 . S
C549 N551 1.384 . S
N550 C546 1.427 . S
N550 C547 1.384 . S
N551 C543 1.427 . S
N551 C549 1.384 . S
H552 C558 0.930 . S
H553 C562 0.930 . S
H554 C567 0.929 . S
H555 C565 0.929 . S
H556 C560 0.929 . S
H557 C566 0.929 . S
C558 H552 0.930 . S
C558 C559 1.367 . S
C558 C566 1.378 . S
C559 C558 1.367 . S
C559 C567 1.433 . S
C560 H556 0.929 . S
C560 C562 1.378 . S
C560 C564 1.350 . S
C561 C564 1.463 . S
C561 C566 1.350 . S
C561 N569 1.427 . S
C562 H553 0.930 . S
C562 C560 1.378 . S
C562 C563 1.367 1_455 S
C563 C562 1.367 1_655 S
C563 C565 1.433 . S
C564 C560 1.350 . S
C564 C561 1.463 . S
C564 N568 1.427 1_455 S
C565 H555 0.929 . S
C565 C563 1.433 . S
C565 N568 1.384 . S
C566 H557 0.929 . S
C566 C558 1.378 . S
C566 C561 1.350 . S
C567 H554 0.929 . S
C567 C559 1.433 . S
C567 N569 1.384 . S
N568 C564 1.427 1_655 S
N568 C565 1.384 . S
N569 C561 1.427 . S
N569 C567 1.384 . S
H570 C576 0.930 . S
H571 C580 0.930 . S
H572 C585 0.929 . S
H573 C583 0.929 . S
H574 C578 0.929 . S
H575 C584 0.929 . S
C576 H570 0.930 . S
C576 C577 1.367 . S
C576 C584 1.378 . S
C577 C576 1.367 . S
C577 C585 1.433 . S
C578 H574 0.929 . S
C578 C580 1.378 . S
C578 C582 1.350 . S
C579 C582 1.463 . S
C579 C584 1.350 . S
C579 N587 1.427 . S
C580 H571 0.930 . S
C580 C578 1.378 . S
C580 C581 1.367 1_545 S
C581 C580 1.367 1_565 S
C581 C583 1.433 . S
C582 C578 1.350 . S
C582 C579 1.463 . S
C582 N586 1.427 1_545 S
C583 H573 0.929 . S
C583 C581 1.433 . S
C583 N586 1.384 . S
C584 H575 0.929 . S
C584 C576 1.378 . S
C584 C579 1.350 . S
C585 H572 0.929 . S
C585 C577 1.433 . S
C585 N587 1.384 . S
N586 C582 1.427 1_565 S
N586 C583 1.384 . S
N587 C579 1.427 . S
N587 C585 1.384 . S
H588 C594 0.930 . S
H589 C598 0.930 . S
H590 C603 0.929 . S
H591 C601 0.929 . S
H592 C596 0.929 . S
H593 C602 0.929 . S
C594 H588 0.930 . S
C594 C595 1.367 . S
C594 C602 1.378 . S
C595 C594 1.367 . S
C595 C603 1.433 . S
C596 H592 0.929 . S
C596 C598 1.378 . S
C596 C600 1.350 . S
C597 C600 1.463 . S
C597 C602 1.350 . S
C597 N605 1.427 . S
C598 H589 0.930 . S
C598 C596 1.378 . S
C598 C599 1.367 . S
C599 C598 1.367 . S
C599 C601 1.433 . S
C600 C596 1.350 . S
C600 C597 1.463 . S
C600 N604 1.427 . S
C601 H591 0.929 . S
C601 C599 1.433 . S
C601 N604 1.384 . S
C602 H593 0.929 . S
C602 C594 1.378 . S
C602 C597 1.350 . S
C603 H590 0.929 . S
C603 C595 1.433 . S
C603 N605 1.384 . S
N604 C600 1.427 . S
N604 C601 1.384 . S
N605 C597 1.427 . S
N605 C603 1.384 . S
H606 C612 0.930 . S
H607 C616 0.930 . S
H608 C621 0.929 . S
H609 C619 0.929 . S
H610 C614 0.929 . S
H611 C620 0.929 . S
C612 H606 0.930 . S
C612 C613 1.367 . S
C612 C620 1.378 . S
C613 C612 1.367 . S
C613 C621 1.433 . S
C614 H610 0.929 . S
C614 C616 1.378 . S
C614 C618 1.350 . S
C615 C618 1.463 . S
C615 C620 1.350 . S
C615 N623 1.427 . S
C616 H607 0.930 . S
C616 C614 1.378 . S
C616 C617 1.367 . S
C617 C616 1.367 . S
C617 C619 1.433 . S
C618 C614 1.350 . S
C618 C615 1.463 . S
C618 N622 1.427 . S
C619 H609 0.929 . S
C619 C617 1.433 . S
C619 N622 1.384 . S
C620 H611 0.929 . S
C620 C612 1.378 . S
C620 C615 1.350 . S
C621 H608 0.929 . S
C621 C613 1.433 . S
C621 N623 1.384 . S
N622 C618 1.427 . S
N622 C619 1.384 . S
N623 C615 1.427 . S
N623 C621 1.384 . S
H624 C630 0.930 . S
H625 C634 0.930 1_556 S
H626 C639 0.929 . S
H627 C637 0.929 . S
H628 C632 0.929 . S
H629 C638 0.929 . S
C630 H624 0.930 . S
C630 C631 1.367 . S
C630 C638 1.378 . S
C631 C630 1.367 . S
C631 C639 1.433 . S
C632 H628 0.929 . S
C632 C634 1.378 . S
C632 C636 1.350 1_455 S
C633 C636 1.463 . S
C633 C638 1.350 . S
C633 N641 1.427 . S
C634 H625 0.930 1_554 S
C634 C632 1.378 . S
C634 C635 1.367 1_554 S
C635 C634 1.367 1_556 S
C635 C637 1.433 1_455 S
C636 C632 1.350 1_655 S
C636 C633 1.463 . S
C636 N640 1.427 . S
C637 H627 0.929 . S
C637 C635 1.433 1_655 S
C637 N640 1.384 1_556 S
C638 H629 0.929 . S
C638 C630 1.378 . S
C638 C633 1.350 . S
C639 H626 0.929 . S
C639 C631 1.433 . S
C639 N641 1.384 . S
N640 C636 1.427 . S
N640 C637 1.384 1_554 S
N641 C633 1.427 . S
N641 C639 1.384 . S
H642 C648 0.930 . S
H643 C652 0.930 . S
H644 C657 0.929 . S
H645 C655 0.929 . S
H646 C650 0.929 . S
H647 C656 0.929 . S
C648 H642 0.930 . S
C648 C649 1.367 . S
C648 C656 1.378 . S
C649 C648 1.367 . S
C649 C657 1.433 . S
C650 H646 0.929 . S
C650 C652 1.378 . S
C650 C654 1.350 1_545 S
C651 C654 1.463 . S
C651 C656 1.350 . S
C651 N659 1.427 . S
C652 H643 0.930 . S
C652 C650 1.378 . S
C652 C653 1.367 1_554 S
C653 C652 1.367 1_556 S
C653 C655 1.433 1_545 S
C654 C650 1.350 1_565 S
C654 C651 1.463 . S
C654 N658 1.427 . S
C655 H645 0.929 . S
C655 C653 1.433 1_565 S
C655 N658 1.384 1_556 S
C656 H647 0.929 . S
C656 C648 1.378 . S
C656 C651 1.350 . S
C657 H644 0.929 . S
C657 C649 1.433 . S
C657 N659 1.384 . S
N658 C654 1.427 . S
N658 C655 1.384 1_554 S
N659 C651 1.427 . S
N659 C657 1.384 . S
H660 C666 0.930 . S
H661 C670 0.930 . S
H662 C675 0.929 . S
H663 C673 0.929 . S
H664 C668 0.929 . S
H665 C674 0.929 . S
C666 H660 0.930 . S
C666 C667 1.367 . S
C666 C674 1.378 . S
C667 C666 1.367 . S
C667 C675 1.433 . S
C668 H664 0.929 . S
C668 C670 1.378 . S
C668 C672 1.350 . S
C669 C672 1.463 . S
C669 C674 1.350 . S
C669 N677 1.427 . S
C670 H661 0.930 . S
C670 C668 1.378 . S
C670 C671 1.367 1_554 S
C671 C670 1.367 1_556 S
C671 C673 1.433 . S
C672 C668 1.350 . S
C672 C669 1.463 . S
C672 N676 1.427 1_554 S
C673 H663 0.929 . S
C673 C671 1.433 . S
C673 N676 1.384 . S
C674 H665 0.929 . S
C674 C666 1.378 . S
C674 C669 1.350 . S
C675 H662 0.929 . S
C675 C667 1.433 . S
C675 N677 1.384 . S
N676 C672 1.427 1_556 S
N676 C673 1.384 . S
N677 C669 1.427 . S
N677 C675 1.384 . S
H678 C684 0.930 . S
H679 C688 0.930 . S
H680 C693 0.929 . S
H681 C691 0.929 . S
H682 C686 0.929 . S
H683 C692 0.929 . S
C684 H678 0.930 . S
C684 C685 1.367 . S
C684 C692 1.378 . S
C685 C684 1.367 . S
C685 C693 1.433 . S
C686 H682 0.929 . S
C686 C688 1.378 . S
C686 C690 1.350 . S
C687 C690 1.463 . S
C687 C692 1.350 . S
C687 N695 1.427 . S
C688 H679 0.930 . S
C688 C686 1.378 . S
C688 C689 1.367 1_554 S
C689 C688 1.367 1_556 S
C689 C691 1.433 . S
C690 C686 1.350 . S
C690 C687 1.463 . S
C690 N694 1.429 . S
C691 H681 0.929 . S
C691 C689 1.433 . S
C691 N694 1.382 1_556 S
C692 H683 0.929 . S
C692 C684 1.378 . S
C692 C687 1.350 . S
C693 H680 0.929 . S
C693 C685 1.433 . S
C693 N695 1.384 . S
N694 C690 1.429 . S
N694 C691 1.382 1_554 S
N695 C687 1.427 . S
N695 C693 1.384 . S
H696 C702 0.930 . S
H697 C706 0.930 . S
H698 C711 0.929 . S
H699 C709 0.929 1_655 S
H700 C704 0.929 . S
H701 C710 0.929 . S
C702 H696 0.930 . S
C702 C703 1.367 . S
C702 C710 1.378 . S
C703 C702 1.367 . S
C703 C711 1.433 . S
C704 H700 0.929 . S
C704 C706 1.378 . S
C704 C708 1.350 . S
C705 C708 1.463 . S
C705 C710 1.350 . S
C705 N713 1.427 . S
C706 H697 0.930 . S
C706 C704 1.378 . S
C706 C707 1.367 . S
C707 C706 1.367 . S
C707 C709 1.433 . S
C708 C704 1.350 . S
C708 C705 1.463 . S
C708 N712 1.427 . S
C709 H699 0.929 1_455 S
C709 C707 1.433 . S
C709 N712 1.384 . S
C710 H701 0.929 . S
C710 C702 1.378 . S
C710 C705 1.350 . S
C711 H698 0.929 . S
C711 C703 1.433 . S
C711 N713 1.384 . S
N712 C708 1.427 . S
N712 C709 1.384 . S
N713 C705 1.427 . S
N713 C711 1.384 . S
H714 C720 0.930 . S
H715 C724 0.930 . S
H716 C729 0.929 . S
H717 C727 0.929 1_565 S
H718 C722 0.929 . S
H719 C728 0.929 . S
C720 H714 0.930 . S
C720 C721 1.367 . S
C720 C728 1.378 . S
C721 C720 1.367 . S
C721 C729 1.433 . S
C722 H718 0.929 . S
C722 C724 1.378 . S
C722 C726 1.350 . S
C723 C726 1.463 . S
C723 C728 1.350 . S
C723 N731 1.427 . S
C724 H715 0.930 . S
C724 C722 1.378 . S
C724 C725 1.367 . S
C725 C724 1.367 . S
C725 C727 1.433 . S
C726 C722 1.350 . S
C726 C723 1.463 . S
C726 N730 1.427 . S
C727 H717 0.929 1_545 S
C727 C725 1.433 . S
C727 N730 1.384 . S
C728 H719 0.929 . S
C728 C720 1.378 . S
C728 C723 1.350 . S
C729 H716 0.929 . S
C729 C721 1.433 . S
C729 N731 1.384 . S
N730 C726 1.427 . S
N730 C727 1.384 . S
N731 C723 1.427 . S
N731 C729 1.384 . S
H732 C738 0.930 . S
H733 C742 0.930 . S
H734 C747 0.929 . S
H735 C745 0.929 . S
H736 C740 0.929 . S
H737 C746 0.929 . S
C738 H732 0.930 . S
C738 C739 1.367 . S
C738 C746 1.378 . S
C739 C738 1.367 . S
C739 C747 1.433 . S
C740 H736 0.929 . S
C740 C742 1.378 . S
C740 C744 1.350 . S
C741 C744 1.463 . S
C741 C746 1.350 . S
C741 N749 1.427 . S
C742 H733 0.930 . S
C742 C740 1.378 . S
C742 C743 1.367 . S
C743 C742 1.367 . S
C743 C745 1.433 . S
C744 C740 1.350 . S
C744 C741 1.463 . S
C744 N748 1.427 . S
C745 H735 0.929 . S
C745 C743 1.433 . S
C745 N748 1.384 . S
C746 H737 0.929 . S
C746 C738 1.378 . S
C746 C741 1.350 . S
C747 H734 0.929 . S
C747 C739 1.433 . S
C747 N749 1.384 . S
N748 C744 1.427 . S
N748 C745 1.384 . S
N749 C741 1.427 . S
N749 C747 1.384 . S
H750 C756 0.930 . S
H751 C760 0.930 . S
H752 C765 0.929 . S
H753 C763 0.929 . S
H754 C758 0.929 . S
H755 C764 0.929 . S
C756 H750 0.930 . S
C756 C757 1.367 . S
C756 C764 1.378 . S
C757 C756 1.367 . S
C757 C765 1.433 . S
C758 H754 0.929 . S
C758 C760 1.378 . S
C758 C762 1.350 . S
C759 C762 1.463 . S
C759 C764 1.350 . S
C759 N767 1.427 . S
C760 H751 0.930 . S
C760 C758 1.378 . S
C760 C761 1.367 . S
C761 C760 1.367 . S
C761 C763 1.433 . S
C762 C758 1.350 . S
C762 C759 1.463 . S
C762 N766 1.427 . S
C763 H753 0.929 . S
C763 C761 1.433 . S
C763 N766 1.384 . S
C764 H755 0.929 . S
C764 C756 1.378 . S
C764 C759 1.350 . S
C765 H752 0.929 . S
C765 C757 1.433 . S
C765 N767 1.384 . S
N766 C762 1.427 . S
N766 C763 1.384 . S
N767 C759 1.427 . S
N767 C765 1.384 . S
H768 C774 0.930 . S
H769 C778 0.930 . S
H770 C783 0.929 . S
H771 C781 0.929 . S
H772 C776 0.929 . S
H773 C782 0.929 . S
C774 H768 0.930 . S
C774 C775 1.367 . S
C774 C782 1.378 . S
C775 C774 1.367 . S
C775 C783 1.433 . S
C776 H772 0.929 . S
C776 C778 1.378 . S
C776 C780 1.350 . S
C777 C780 1.463 . S
C777 C782 1.350 . S
C777 N785 1.427 . S
C778 H769 0.930 . S
C778 C776 1.378 . S
C778 C779 1.367 . S
C779 C778 1.367 . S
C779 C781 1.433 . S
C780 C776 1.350 . S
C780 C777 1.463 . S
C780 N784 1.427 . S
C781 H771 0.929 . S
C781 C779 1.433 . S
C781 N784 1.384 . S
C782 H773 0.929 . S
C782 C774 1.378 . S
C782 C777 1.350 . S
C783 H770 0.929 . S
C783 C775 1.433 . S
C783 N785 1.384 . S
N784 C780 1.427 . S
N784 C781 1.384 . S
N785 C777 1.427 . S
N785 C783 1.384 . S
H786 C792 0.930 . S
H787 C796 0.930 . S
H788 C801 0.929 . S
H789 C799 0.929 . S
H790 C794 0.929 . S
H791 C800 0.929 . S
C792 H786 0.930 . S
C792 C793 1.367 . S
C792 C800 1.378 . S
C793 C792 1.367 . S
C793 C801 1.433 . S
C794 H790 0.929 . S
C794 C796 1.378 . S
C794 C798 1.350 . S
C795 C798 1.463 . S
C795 C800 1.350 . S
C795 N803 1.427 . S
C796 H787 0.930 . S
C796 C794 1.378 . S
C796 C797 1.367 . S
C797 C796 1.367 . S
C797 C799 1.433 . S
C798 C794 1.350 . S
C798 C795 1.463 . S
C798 N802 1.427 . S
C799 H789 0.929 . S
C799 C797 1.433 . S
C799 N802 1.384 . S
C800 H791 0.929 . S
C800 C792 1.378 . S
C800 C795 1.350 . S
C801 H788 0.929 . S
C801 C793 1.433 . S
C801 N803 1.384 . S
N802 C798 1.427 . S
N802 C799 1.384 . S
N803 C795 1.427 . S
N803 C801 1.384 . S
H804 C810 0.930 . S
H805 C814 0.930 . S
H806 C819 0.929 . S
H807 C817 0.929 . S
H808 C812 0.929 . S
H809 C818 0.929 . S
C810 H804 0.930 . S
C810 C811 1.367 . S
C810 C818 1.378 . S
C811 C810 1.367 . S
C811 C819 1.433 . S
C812 H808 0.929 . S
C812 C814 1.378 . S
C812 C816 1.350 . S
C813 C816 1.463 . S
C813 C818 1.350 . S
C813 N821 1.427 . S
C814 H805 0.930 . S
C814 C812 1.378 . S
C814 C815 1.367 . S
C815 C814 1.367 . S
C815 C817 1.433 . S
C816 C812 1.350 . S
C816 C813 1.463 . S
C816 N820 1.427 . S
C817 H807 0.929 . S
C817 C815 1.433 . S
C817 N820 1.384 . S
C818 H809 0.929 . S
C818 C810 1.378 . S
C818 C813 1.350 . S
C819 H806 0.929 . S
C819 C811 1.433 . S
C819 N821 1.384 . S
N820 C816 1.427 . S
N820 C817 1.384 . S
N821 C813 1.427 . S
N821 C819 1.384 . S
H822 C828 0.930 . S
H823 C832 0.930 . S
H824 C837 0.929 . S
H825 C835 0.929 . S
H826 C830 0.929 . S
H827 C836 0.929 . S
C828 H822 0.930 . S
C828 C829 1.367 . S
C828 C836 1.378 . S
C829 C828 1.367 . S
C829 C837 1.433 . S
C830 H826 0.929 . S
C830 C832 1.378 . S
C830 C834 1.350 . S
C831 C834 1.463 . S
C831 C836 1.350 . S
C831 N839 1.427 . S
C832 H823 0.930 . S
C832 C830 1.378 . S
C832 C833 1.367 . S
C833 C832 1.367 . S
C833 C835 1.433 . S
C834 C830 1.350 . S
C834 C831 1.463 . S
C834 N838 1.427 . S
C835 H825 0.929 . S
C835 C833 1.433 . S
C835 N838 1.384 . S
C836 H827 0.929 . S
C836 C828 1.378 . S
C836 C831 1.350 . S
C837 H824 0.929 . S
C837 C829 1.433 . S
C837 N839 1.384 . S
N838 C834 1.427 . S
N838 C835 1.384 . S
N839 C831 1.427 . S
N839 C837 1.384 . S
C415 C61 1.832 . S
C419 C146 1.904 . S
C437 C230 1.914 . S
C433 C70 1.868 . S
C455 C296 1.888 . S
C451 C43 1.950 . S
C473 C380 1.867 . S
C469 C52 1.930 . S
C491 C135 1.909 1_565 S
C487 C25 1.842 . S
C505 C34 1.870 . S
C509 C219 1.918 . S
C523 C7 1.942 . S
C527 C307 1.873 . S
C541 C16 1.930 . S
C545 C391 1.862 . S
C563 C142 0.614 . S
C559 C50 0.595 . S
C581 C226 0.586 . S
C577 C59 0.565 . S
C599 C298 0.567 . S
C595 C67 0.513 . S
C613 C41 0.578 . S
C617 C382 0.549 . S
C631 C14 0.620 . S
C635 C130 0.586 . S
C653 C214 0.556 . S
C649 C23 0.592 . S
C671 C310 0.525 1_556 S
C667 C31 0.551 . S
C685 C5 0.563 . S
C689 C394 0.553 1_556 S
C703 C49 1.988 . S
C707 C139 2.076 . S
C721 C58 1.956 . S
C725 C223 2.047 . S
C743 C303 2.035 . S
C739 C68 1.871 . S
C761 C387 2.059 . S
C757 C40 1.871 . S
C775 C13 1.999 . S
C779 C128 2.078 . S
C797 C212 2.049 . S
C793 C22 1.973 . S
C815 C314 2.031 . S
C811 C32 1.858 . S
C829 C4 1.885 . S
C833 C398 2.060 . S
