# Generated by pormake.
# Topology apo, (3,6)-cn, num edge types: 1
# Building blocks:
#     Node 0, Type 0, BuildingBlock: BETDAH_clean_linker_0, # of connection points: 3
#     Node 1, Type 0, BuildingBlock: BETDAH_clean_linker_0, # of connection points: 3
#     Node 2, Type 0, BuildingBlock: BETDAH_clean_linker_0, # of connection points: 3
#     Node 3, Type 0, BuildingBlock: BETDAH_clean_linker_0, # of connection points: 3
#     Node 4, Type 0, BuildingBlock: BETDAH_clean_linker_0, # of connection points: 3
#     Node 5, Type 0, BuildingBlock: BETDAH_clean_linker_0, # of connection points: 3
#     Node 6, Type 0, BuildingBlock: BETDAH_clean_linker_0, # of connection points: 3
#     Node 7, Type 0, BuildingBlock: BETDAH_clean_linker_0, # of connection points: 3
#     Node 8, Type 1, BuildingBlock: KUMBOL_clean_sbu_1, # of connection points: 6
#     Node 9, Type 1, BuildingBlock: KUMBOL_clean_sbu_1, # of connection points: 6
#     Node 10, Type 1, BuildingBlock: KUMBOL_clean_sbu_1, # of connection points: 6
#     Node 11, Type 1, BuildingBlock: KUMBOL_clean_sbu_1, # of connection points: 6
#     Edge 12, Type (0, 1), BuildingBlock: XIVTED_clean_linker_0, # of connection points: 2
#     Edge 13, Type (0, 1), BuildingBlock: XIVTED_clean_linker_0, # of connection points: 2
#     Edge 14, Type (0, 1), BuildingBlock: XIVTED_clean_linker_0, # of connection points: 2
#     Edge 15, Type (0, 1), BuildingBlock: XIVTED_clean_linker_0, # of connection points: 2
#     Edge 16, Type (0, 1), BuildingBlock: XIVTED_clean_linker_0, # of connection points: 2
#     Edge 17, Type (0, 1), BuildingBlock: XIVTED_clean_linker_0, # of connection points: 2
#     Edge 18, Type (0, 1), BuildingBlock: XIVTED_clean_linker_0, # of connection points: 2
#     Edge 19, Type (0, 1), BuildingBlock: XIVTED_clean_linker_0, # of connection points: 2
#     Edge 20, Type (0, 1), BuildingBlock: XIVTED_clean_linker_0, # of connection points: 2
#     Edge 21, Type (0, 1), BuildingBlock: XIVTED_clean_linker_0, # of connection points: 2
#     Edge 22, Type (0, 1), BuildingBlock: XIVTED_clean_linker_0, # of connection points: 2
#     Edge 23, Type (0, 1), BuildingBlock: XIVTED_clean_linker_0, # of connection points: 2
#     Edge 24, Type (0, 1), BuildingBlock: XIVTED_clean_linker_0, # of connection points: 2
#     Edge 25, Type (0, 1), BuildingBlock: XIVTED_clean_linker_0, # of connection points: 2
#     Edge 26, Type (0, 1), BuildingBlock: XIVTED_clean_linker_0, # of connection points: 2
#     Edge 27, Type (0, 1), BuildingBlock: XIVTED_clean_linker_0, # of connection points: 2
#     Edge 28, Type (0, 1), BuildingBlock: XIVTED_clean_linker_0, # of connection points: 2
#     Edge 29, Type (0, 1), BuildingBlock: XIVTED_clean_linker_0, # of connection points: 2
#     Edge 30, Type (0, 1), BuildingBlock: XIVTED_clean_linker_0, # of connection points: 2
#     Edge 31, Type (0, 1), BuildingBlock: XIVTED_clean_linker_0, # of connection points: 2
#     Edge 32, Type (0, 1), BuildingBlock: XIVTED_clean_linker_0, # of connection points: 2
#     Edge 33, Type (0, 1), BuildingBlock: XIVTED_clean_linker_0, # of connection points: 2
#     Edge 34, Type (0, 1), BuildingBlock: XIVTED_clean_linker_0, # of connection points: 2
#     Edge 35, Type (0, 1), BuildingBlock: XIVTED_clean_linker_0, # of connection points: 2
# Relax obj value: 0.037
# Max RMSD: 0.221
# Mean RMSD: 0.156
data_MOF--net-apo--node1-KUMBOL_clean_sbu_1--node2-BETDAH_clean_linker_0--edge1-XIVTED_clean_linker_0
_symmetry_space_group_name_H-M    P1
_symmetry_Int_Tables_number       1
_symmetry_cell_setting            triclinic
loop_
_symmetry_equiv_pos_as_xyz
'x, y, z'
_cell_length_a     27.443686
_cell_length_b     42.261459
_cell_length_c     52.185127
_cell_angle_alpha  89.64019
_cell_angle_beta   90.100972
_cell_angle_gamma 90.595994
loop_
_atom_site_label
_atom_site_type_symbol
_atom_site_fract_x
_atom_site_fract_y
_atom_site_fract_z
_atom_type_partial_charge
H0 H 0.35686 0.43003 0.41643 0.0
H1 H 0.27844 0.37107 0.36333 0.0
H2 H 0.27447 0.34938 0.44383 0.0
C3 C 0.33316 0.40982 0.41306 0.0
C4 C 0.31819 0.39045 0.43364 0.0
C5 C 0.31862 0.40318 0.38781 0.0
C6 C 0.28958 0.37624 0.38279 0.0
C7 C 0.27395 0.35675 0.40325 0.0
C8 C 0.28798 0.36421 0.42835 0.0
N9 N 0.24334 0.32975 0.39992 0.0
C10 C 0.22771 0.31673 0.37686 0.0
H11 H 0.16854 0.07152 0.93286 0.0
H12 H 0.21121 0.13597 0.87196 0.0
H13 H 0.23979 0.15939 0.95048 0.0
C14 C 0.18481 0.09359 0.92637 0.0
C15 C 0.20291 0.11476 0.94474 0.0
C16 C 0.18665 0.10096 0.89992 0.0
C17 C 0.20953 0.12961 0.89207 0.0
C18 C 0.22899 0.1505 0.91049 0.0
C19 C 0.22499 0.143 0.93651 0.0
N20 N 0.25211 0.17976 0.90426 0.0
C21 C 0.26295 0.19181 0.88008 0.0
H22 H 0.86958 0.10239 0.58749 0.0
H23 H 0.83354 0.15465 0.65573 0.0
H24 H 0.845 0.20248 0.58341 0.0
C25 C 0.85997 0.12425 0.59686 0.0
C26 C 0.8579 0.15219 0.58221 0.0
C27 C 0.85234 0.12469 0.62363 0.0
C28 C 0.83862 0.15336 0.63519 0.0
C29 C 0.83557 0.18125 0.62051 0.0
C30 C 0.84619 0.1806 0.59435 0.0
N31 N 0.82748 0.21097 0.63205 0.0
C32 C 0.78835 0.21725 0.648 0.0
H33 H 0.66513 0.42147 0.08724 0.0
H34 H 0.6936 0.35749 0.15035 0.0
H35 H 0.68354 0.32206 0.07389 0.0
C36 C 0.67325 0.39804 0.09452 0.0
C37 C 0.67516 0.37268 0.07724 0.0
C38 C 0.67894 0.39296 0.12114 0.0
C39 C 0.68859 0.36208 0.13008 0.0
C40 C 0.68973 0.33665 0.11296 0.0
C41 C 0.68242 0.342 0.08683 0.0
N42 N 0.69427 0.30507 0.12172 0.0
C43 C 0.73122 0.29503 0.13794 0.0
H44 H 0.6443 0.58013 0.59288 0.0
H45 H 0.73315 0.6324 0.64627 0.0
H46 H 0.74106 0.65374 0.56575 0.0
C47 C 0.67053 0.5989 0.59658 0.0
C48 C 0.69041 0.61626 0.57599 0.0
C49 C 0.6857 0.60451 0.62193 0.0
C50 C 0.7211 0.62811 0.62681 0.0
C51 C 0.74091 0.64592 0.60636 0.0
C52 C 0.72565 0.63969 0.58123 0.0
N53 N 0.77716 0.66976 0.60982 0.0
C54 C 0.78916 0.68473 0.63268 0.0
H55 H 0.85054 0.929 0.08217 0.0
H56 H 0.80741 0.8343 0.06199 0.0
H57 H 0.82831 0.85814 0.14095 0.0
C58 C 0.84032 0.90515 0.08778 0.0
C59 C 0.8409 0.89663 0.11397 0.0
C60 C 0.82846 0.88301 0.06869 0.0
C61 C 0.81626 0.85199 0.07624 0.0
C62 C 0.81496 0.84322 0.10215 0.0
C63 C 0.82692 0.86557 0.12106 0.0
N64 N 0.80804 0.81076 0.10823 0.0
C65 C 0.77499 0.79894 0.12614 0.0
H66 H 0.15063 0.91852 0.42148 0.0
H67 H 0.24092 0.87042 0.36685 0.0
H68 H 0.2424 0.84245 0.4461 0.0
C69 C 0.17686 0.90033 0.4171 0.0
C70 C 0.19369 0.88063 0.43686 0.0
C71 C 0.19402 0.89724 0.39182 0.0
C72 C 0.22671 0.87275 0.38609 0.0
C73 C 0.2438 0.85289 0.40585 0.0
C74 C 0.22749 0.85716 0.43097 0.0
N75 N 0.28082 0.83028 0.402 0.0
C76 C 0.2896 0.81381 0.37956 0.0
H77 H 0.35096 0.58201 0.92247 0.0
H78 H 0.31883 0.679 0.93889 0.0
H79 H 0.29971 0.64454 0.86249 0.0
C80 C 0.33772 0.60482 0.91613 0.0
C81 C 0.32532 0.60981 0.89012 0.0
C82 C 0.33426 0.62946 0.93397 0.0
C83 C 0.3196 0.65941 0.92557 0.0
C84 C 0.3069 0.66482 0.90004 0.0
C85 C 0.30905 0.63999 0.88234 0.0
N86 N 0.29712 0.69629 0.89237 0.0
C87 C 0.25805 0.70512 0.8771 0.0
C88 C 0.84542 0.08468 0.26973 0.0
C89 C 0.83842 0.02936 0.28229 0.0
C90 C 0.86579 0.05768 0.28033 0.0
C91 C 0.79083 0.02819 0.27239 0.0
C92 C 0.79687 0.08392 0.26077 0.0
C93 C 0.77016 0.05538 0.26159 0.0
N94 N 0.87186 0.1121 0.26976 0.0
C95 C 0.84999 0.14005 0.26369 0.0
C96 C 0.77597 0.11213 0.25221 0.0
C97 C 0.80237 0.14042 0.25414 0.0
Gd98 Gd 0.05302 0.10891 0.22784 0.0
Gd99 Gd 0.95242 0.10819 0.28516 0.0
N100 N 0.91224 0.05933 0.2893 0.0
C101 C 0.85952 1.00323 0.29449 0.0
C102 C 0.93223 0.03451 0.30233 0.0
C103 C 0.90643 0.00594 0.30481 0.0
H104 H 0.96832 0.03678 0.31047 0.0
H105 H 0.92266 0.98608 0.3147 0.0
H106 H 0.01699 0.17117 0.19141 0.0
H107 H 0.86847 0.16227 0.26688 0.0
H108 H 0.04396 0.22574 0.18243 0.0
H109 H 0.83963 0.98106 0.29642 0.0
H110 H 0.76937 0.00656 0.27346 0.0
H111 H 0.1462 0.07336 0.25657 0.0
H112 H 0.73881 0.11255 0.24517 0.0
H113 H 0.7857 0.16262 0.24882 0.0
H114 H 0.20023 0.23368 0.2233 0.0
H115 H 0.73297 0.05432 0.2546 0.0
H116 H 0.26304 0.14064 0.26414 0.0
H117 H 0.22963 0.08665 0.27116 0.0
N118 N 0.13233 0.11954 0.2422 0.0
C119 C 0.15062 0.1489 0.23718 0.0
C120 C 0.16033 0.09704 0.25369 0.0
C121 C 0.22644 0.13493 0.25774 0.0
C122 C 0.20766 0.10445 0.26181 0.0
C123 C 0.19798 0.15756 0.24517 0.0
H124 H 0.25144 0.19562 0.24658 0.0
N125 N 0.07676 0.16072 0.21596 0.0
C126 C 0.12161 0.1703 0.22411 0.0
C127 C 0.11042 0.22144 0.20412 0.0
C128 C 0.13947 0.20102 0.21862 0.0
C129 C 0.04998 0.17978 0.20024 0.0
C130 C 0.06581 0.21058 0.19455 0.0
O131 O 0.95545 0.06647 0.25768 0.0
O132 O 0.97532 0.09403 0.22197 0.0
O133 O 0.07411 0.11042 0.18776 0.0
O134 O 0.07877 0.0665 0.20908 0.0
O135 O 0.02523 0.0857 0.29281 0.0
O136 O 0.05378 0.06595 0.25428 0.0
O137 O 0.07167 0.12926 0.26682 0.0
O138 O 1.00026 0.1517 0.27974 0.0
O139 O 0.97381 0.10622 0.32529 0.0
O140 O 0.90382 0.12497 0.31478 0.0
O141 O 0.98058 0.13295 0.21999 0.0
O142 O 0.95226 0.1515 0.25889 0.0
C143 C 0.95772 0.06843 0.23264 0.0
C144 C 0.0499 0.06487 0.27949 0.0
C145 C 0.13404 0.07455 0.17442 0.0
C146 C 0.18023 0.07283 0.13441 0.0
C147 C 0.21783 0.05676 0.17465 0.0
C148 C 0.1748 0.06325 0.18779 0.0
C149 C 0.22059 0.0614 0.14814 0.0
C150 C 0.13704 0.07936 0.1478 0.0
C151 C 0.08766 0.08105 0.18747 0.0
C152 C 0.18609 0.2101 0.22719 0.0
C153 C 0.21532 0.18841 0.24038 0.0
H154 H 0.1228 0.24522 0.19949 0.0
C155 C 0.04807 0.15212 0.27813 0.0
C156 C 0.95551 0.15335 0.23367 0.0
C157 C 0.94216 0.14658 0.35105 0.0
C158 C 0.93994 0.16733 0.39467 0.0
C159 C 0.96375 0.20142 0.35885 0.0
C160 C 0.95724 0.17634 0.3419 0.0
C161 C 0.95502 0.19707 0.385 0.0
C162 C 0.93371 0.14209 0.37738 0.0
C163 C 0.93469 0.12016 0.33327 0.0
H164 H 0.24917 0.04808 0.18505 0.0
H165 H 0.17339 0.05927 0.20828 0.0
H166 H 0.2545 0.05645 0.13844 0.0
H167 H 0.10534 0.08774 0.13746 0.0
H168 H 0.97521 0.22439 0.35166 0.0
H169 H 0.96357 0.1802 0.32166 0.0
H170 H 0.95934 0.2172 0.39757 0.0
H171 H 0.9227 0.11888 0.38432 0.0
C172 C 0.62513 0.45044 0.77725 0.0
C173 C 0.59903 0.5005 0.79459 0.0
C174 C 0.59017 0.4682 0.78955 0.0
C175 C 0.64256 0.51486 0.78609 0.0
C176 C 0.66964 0.4644 0.76951 0.0
C177 C 0.67785 0.49682 0.77364 0.0
N178 N 0.6156 0.41934 0.77296 0.0
C179 C 0.65 0.40035 0.76236 0.0
C180 C 0.70463 0.44528 0.75797 0.0
C181 C 0.69489 0.41305 0.75458 0.0
Gd182 Gd 0.44453 0.39071 0.72789 0.0
Gd183 Gd 0.54004 0.39961 0.7871 0.0
N184 N 0.54872 0.45349 0.79779 0.0
C185 C 0.56463 0.51715 0.80878 0.0
C186 C 0.51755 0.46889 0.81366 0.0
C187 C 0.52415 0.50109 0.81878 0.0
H188 H 0.48826 0.45623 0.82302 0.0
H189 H 0.49854 0.51332 0.83086 0.0
H190 H 0.45829 0.3172 0.7068 0.0
H191 H 0.64274 0.37541 0.75998 0.0
H192 H 0.41408 0.26568 0.70879 0.0
H193 H 0.57002 0.542 0.81304 0.0
H194 H 0.6498 0.53971 0.7896 0.0
H195 H 0.35823 0.44626 0.73845 0.0
H196 H 0.73934 0.45509 0.75181 0.0
H197 H 0.72192 0.39799 0.74598 0.0
H198 H 0.2655 0.28958 0.75299 0.0
H199 H 0.71161 0.50807 0.76759 0.0
H200 H 0.23162 0.39889 0.76797 0.0
H201 H 0.27571 0.44843 0.7568 0.0
N202 N 0.36328 0.39609 0.74188 0.0
C203 C 0.33814 0.36863 0.74585 0.0
C204 C 0.3403 0.42447 0.74422 0.0
C205 C 0.26837 0.3978 0.76049 0.0
C206 C 0.29313 0.42581 0.75423 0.0
C207 C 0.29022 0.3687 0.75557 0.0
H208 H 0.22837 0.33944 0.76675 0.0
N209 N 0.40404 0.34159 0.72759 0.0
C210 C 0.35884 0.34055 0.73806 0.0
C211 C 0.35316 0.28451 0.72958 0.0
C212 C 0.33249 0.31183 0.73982 0.0
C213 C 0.42313 0.31557 0.71608 0.0
C214 C 0.39831 0.28651 0.71725 0.0
O215 O 0.55662 0.41898 0.74707 0.0
O216 O 0.48329 0.43733 0.73319 0.0
O217 O 0.47323 0.39281 0.68904 0.0
O218 O 0.39625 0.39795 0.69546 0.0
O219 O 0.46188 0.4147 0.79323 0.0
O220 O 0.43833 0.43377 0.75374 0.0
O221 O 0.4574 0.35024 0.75559 0.0
O222 O 0.46774 0.3747 0.79406 0.0
O223 O 0.55642 0.40434 0.82756 0.0
O224 O 0.58071 0.36306 0.80726 0.0
O225 O 0.51872 0.36813 0.72242 0.0
O226 O 0.55222 0.35649 0.76257 0.0
C227 C 0.53079 0.4402 0.73472 0.0
C228 C 0.4358 0.43391 0.77895 0.0
C229 C 0.4293 0.42436 0.65974 0.0
C230 C 0.41447 0.44155 0.61553 0.0
C231 C 0.42984 0.48023 0.64922 0.0
C232 C 0.43439 0.45596 0.66728 0.0
C233 C 0.41955 0.4732 0.62361 0.0
C234 C 0.42008 0.41723 0.63393 0.0
C235 C 0.43111 0.39857 0.67869 0.0
C236 C 0.28602 0.3115 0.75105 0.0
C237 C 0.26494 0.33989 0.75894 0.0
H238 H 0.33407 0.26196 0.73055 0.0
C239 C 0.44972 0.35151 0.78028 0.0
C240 C 0.54931 0.35257 0.73749 0.0
C241 C 0.62717 0.38031 0.84337 0.0
C242 C 0.66795 0.38399 0.88498 0.0
C243 C 0.71522 0.38522 0.84555 0.0
C244 C 0.67254 0.38223 0.8311 0.0
C245 C 0.71306 0.38616 0.8723 0.0
C246 C 0.62512 0.38115 0.87025 0.0
C247 C 0.58119 0.3784 0.82885 0.0
H248 H 0.43347 0.50464 0.65517 0.0
H249 H 0.44117 0.46179 0.68715 0.0
H250 H 0.41456 0.49269 0.61035 0.0
H251 H 0.41716 0.39263 0.62838 0.0
H252 H 0.75014 0.3867 0.83599 0.0
H253 H 0.67508 0.38145 0.81048 0.0
H254 H 0.74675 0.38802 0.88305 0.0
H255 H 0.58994 0.38003 0.87966 0.0
C256 C 0.85147 0.85198 0.76957 0.0
C257 C 0.8618 0.8015 0.791 0.0
C258 C 0.87867 0.83238 0.78527 0.0
C259 C 0.81842 0.79029 0.77975 0.0
C260 C 0.80682 0.8414 0.75915 0.0
C261 C 0.79091 0.81023 0.76392 0.0
N262 N 0.86839 0.88172 0.7648 0.0
C263 C 0.84099 0.90295 0.75144 0.0
C264 C 0.77936 0.8626 0.74445 0.0
C265 C 0.79628 0.89363 0.74083 0.0
Gd266 Gd 0.05623 0.89472 0.73245 0.0
Gd267 Gd 0.94348 0.89564 0.78307 0.0
N268 N 0.92009 0.84414 0.79611 0.0
C269 C 0.88813 0.78322 0.80854 0.0
C270 C 0.94332 0.82739 0.81488 0.0
C271 C 0.92855 0.79646 0.82089 0.0
H272 H 0.9727 0.83795 0.82569 0.0
H273 H 0.94785 0.78307 0.83537 0.0
H274 H 0.05322 0.96592 0.70568 0.0
H275 H 0.85403 0.92695 0.74873 0.0
H276 H 0.10244 0.01546 0.7051 0.0
H277 H 0.87642 0.75938 0.81344 0.0
H278 H 0.80517 0.76652 0.78373 0.0
H279 H 0.13144 0.8391 0.75686 0.0
H280 H 0.74482 0.8554 0.73614 0.0
H281 H 0.77495 0.91034 0.72986 0.0
H282 H 0.23759 0.99271 0.76073 0.0
H283 H 0.75701 0.8015 0.75582 0.0
H284 H 0.25363 0.88607 0.79094 0.0
H285 H 0.20694 0.8369 0.78227 0.0
N286 N 0.13059 0.88936 0.75478 0.0
C287 C 0.15762 0.91628 0.7576 0.0
C288 C 0.14932 0.86091 0.76215 0.0
C289 C 0.21932 0.88728 0.78069 0.0
C290 C 0.19301 0.8595 0.77591 0.0
C291 C 0.20258 0.91601 0.77075 0.0
H292 H 0.26483 0.94431 0.78271 0.0
N293 N 0.09965 0.94274 0.73218 0.0
C294 C 0.14225 0.94365 0.74545 0.0
C295 C 0.15642 0.99753 0.73136 0.0
C296 C 0.17141 0.97129 0.74579 0.0
C297 C 0.08589 0.96766 0.71716 0.0
C298 C 0.11379 0.99555 0.71672 0.0
O299 O 0.93284 0.87618 0.74299 0.0
O300 O 0.00513 0.85228 0.73366 0.0
O301 O 0.04924 0.89847 0.6909 0.0
O302 O 0.10953 0.87329 0.70749 0.0
O303 O 0.01392 0.87179 0.79528 0.0
O304 O 0.04597 0.85153 0.75801 0.0
O305 O 0.0458 0.93656 0.75926 0.0
O306 O 0.01867 0.91101 0.79497 0.0
O307 O 0.90851 0.89647 0.82073 0.0
O308 O 0.91422 0.93967 0.79748 0.0
O309 O 0.98709 0.91822 0.71917 0.0
O310 O 0.94802 0.9374 0.75534 0.0
C311 C 0.95722 0.85262 0.73321 0.0
C312 C 0.03881 0.85013 0.78295 0.0
C313 C 0.12424 0.90091 0.66882 0.0
C314 C 0.15066 0.91287 0.62508 0.0
C315 C 0.19382 0.93571 0.66139 0.0
C316 C 0.16248 0.9199 0.67822 0.0
C317 C 0.18802 0.9323 0.635 0.0
C318 C 0.11861 0.89731 0.64221 0.0
C319 C 0.09048 0.8846 0.68659 0.0
C320 C 0.21498 0.97157 0.75993 0.0
C321 C 0.23043 0.94402 0.77249 0.0
H322 H 0.17794 0.01917 0.73102 0.0
C323 C 0.04095 0.93516 0.78427 0.0
C324 C 0.95905 0.93893 0.73068 0.0
C325 C 0.87381 0.94451 0.83871 0.0
C326 C 0.84815 0.95125 0.88333 0.0
C327 C 0.82408 0.98924 0.85045 0.0
C328 C 0.84935 0.97234 0.83199 0.0
C329 C 0.82322 0.9788 0.87585 0.0
C330 C 0.87318 0.93403 0.86442 0.0
C331 C 0.89929 0.9265 0.81872 0.0
H332 H 0.22313 0.95034 0.66884 0.0
H333 H 0.16854 0.92229 0.69855 0.0
H334 H 0.21364 0.94424 0.62237 0.0
H335 H 0.08934 0.88248 0.63488 0.0
H336 H 0.80479 0.01048 0.84502 0.0
H337 H 0.84918 0.98082 0.81235 0.0
H338 H 0.80244 0.99221 0.88956 0.0
H339 H 0.89294 0.91291 0.86969 0.0
C340 C 0.67184 0.63717 0.26201 0.0
C341 C 0.67932 0.69339 0.2706 0.0
C342 C 0.65227 0.66487 0.27133 0.0
C343 C 0.72549 0.69397 0.25904 0.0
C344 C 0.71919 0.63733 0.25154 0.0
C345 C 0.74533 0.66601 0.24946 0.0
N346 N 0.64593 0.60977 0.2648 0.0
C347 C 0.66749 0.58141 0.26002 0.0
C348 C 0.73959 0.60851 0.2444 0.0
C349 C 0.71397 0.58038 0.24913 0.0
Gd350 Gd 0.4644 0.60924 0.22523 0.0
Gd351 Gd 0.56634 0.61479 0.28133 0.0
N352 N 0.60715 0.6637 0.28187 0.0
C353 C 0.65942 0.7203 0.28193 0.0
C354 C 0.58847 0.68933 0.29408 0.0
C355 C 0.61408 0.71813 0.29405 0.0
H356 H 0.55334 0.68756 0.30336 0.0
H357 H 0.5988 0.73864 0.30326 0.0
H358 H 0.50641 0.55048 0.18754 0.0
H359 H 0.64936 0.55938 0.26481 0.0
H360 H 0.49051 0.49364 0.181 0.0
H361 H 0.67908 0.74266 0.28181 0.0
H362 H 0.74657 0.71576 0.25794 0.0
H363 H 0.36632 0.63803 0.25391 0.0
H364 H 0.77584 0.60761 0.23626 0.0
H365 H 0.7303 0.55784 0.24477 0.0
H366 H 0.34417 0.47295 0.2287 0.0
H367 H 0.78153 0.66664 0.2412 0.0
H368 H 0.2661 0.56137 0.26792 0.0
H369 H 0.2877 0.61822 0.27133 0.0
N370 N 0.38876 0.59273 0.24145 0.0
C371 C 0.37655 0.56179 0.23815 0.0
C372 C 0.35695 0.61322 0.25241 0.0
C373 C 0.30042 0.56996 0.2602 0.0
C374 C 0.31252 0.60208 0.2622 0.0
C375 C 0.33238 0.54941 0.24786 0.0
H376 H 0.288 0.50704 0.25241 0.0
N377 N 0.44964 0.55579 0.21484 0.0
C378 C 0.40843 0.54262 0.2249 0.0
C379 C 0.42761 0.49244 0.20564 0.0
C380 C 0.39661 0.51048 0.22085 0.0
C381 C 0.47732 0.53907 0.19807 0.0
C382 C 0.46761 0.50698 0.19378 0.0
O383 O 0.55688 0.65487 0.25252 0.0
O384 O 0.53897 0.62877 0.21551 0.0
O385 O 0.43287 0.60435 0.18719 0.0
O386 O 0.43225 0.64969 0.20595 0.0
O387 O 0.49359 0.63762 0.28929 0.0
O388 O 0.46013 0.65287 0.25011 0.0
O389 O 0.4496 0.59144 0.26573 0.0
O390 O 0.52177 0.56985 0.27809 0.0
O391 O 0.5462 0.61981 0.32126 0.0
O392 O 0.6156 0.59967 0.31167 0.0
O393 O 0.5393 0.58947 0.21697 0.0
O394 O 0.56592 0.57092 0.25622 0.0
C395 C 0.56054 0.65217 0.22758 0.0
C396 C 0.46481 0.65562 0.27519 0.0
C397 C 0.44562 0.64903 0.16107 0.0
C398 C 0.44855 0.65181 0.11429 0.0
C399 C 0.50681 0.68181 0.13989 0.0
C400 C 0.48553 0.67008 0.16231 0.0
C401 C 0.48867 0.67268 0.11602 0.0
C402 C 0.42703 0.64018 0.137 0.0
C403 C 0.42536 0.63449 0.18458 0.0
C404 C 0.35357 0.49768 0.23138 0.0
C405 C 0.32149 0.51711 0.24482 0.0
H406 H 0.41987 0.46766 0.20208 0.0
C407 C 0.47404 0.56889 0.27718 0.0
C408 C 0.56511 0.56974 0.23098 0.0
C409 C 0.57828 0.58265 0.35016 0.0
C410 C 0.58414 0.56761 0.39535 0.0
C411 C 0.54667 0.53178 0.36451 0.0
C412 C 0.55533 0.55364 0.34482 0.0
C413 C 0.56079 0.53869 0.38964 0.0
C414 C 0.59282 0.58948 0.37536 0.0
C415 C 0.5855 0.60658 0.32996 0.0
H416 H 0.53764 0.69794 0.14102 0.0
H417 H 0.50059 0.67723 0.18058 0.0
H418 H 0.50563 0.68228 0.09889 0.0
H419 H 0.39664 0.62363 0.13598 0.0
H420 H 0.52884 0.50944 0.3603 0.0
H421 H 0.5439 0.54802 0.32551 0.0
H422 H 0.55395 0.52126 0.40454 0.0
H423 H 0.60994 0.61214 0.37946 0.0
H424 H 0.16457 0.88875 0.34152 0.0
H425 H 0.07852 0.06773 0.32924 0.0
H426 H 0.19236 0.96101 0.39787 0.0
H427 H 0.08244 0.00668 0.2633 0.0
H428 H 0.11875 0.02726 0.35442 0.0
H429 H 0.13431 0.92987 0.31194 0.0
C430 C 0.16476 0.91323 0.34755 0.0
C431 C 0.18003 0.9214 0.37238 0.0
C432 C 0.1112 0.0226 0.33441 0.0
C433 C 0.14545 0.96823 0.33892 0.0
C434 C 0.08794 0.04574 0.32 0.0
C435 C 0.07684 0.04054 0.29413 0.0
C436 C 0.12314 0.99364 0.32311 0.0
C437 C 0.09044 0.01163 0.2832 0.0
C438 C 0.14742 0.93662 0.33073 0.0
C439 C 0.17969 0.95346 0.3792 0.0
N440 N 0.11252 0.98905 0.29784 0.0
N441 N 0.16231 0.97553 0.36271 0.0
H442 H 0.36047 0.61462 0.84085 0.0
H443 H 0.38814 0.42841 0.8244 0.0
H444 H 0.3066 0.54606 0.89584 0.0
H445 H 0.42002 0.49518 0.76379 0.0
H446 H 0.35324 0.47107 0.84963 0.0
H447 H 0.37789 0.57158 0.8113 0.0
C448 C 0.35156 0.59059 0.84661 0.0
C449 C 0.33226 0.58406 0.87105 0.0
C450 C 0.36721 0.47642 0.83068 0.0
C451 C 0.353 0.53449 0.83731 0.0
C452 C 0.38702 0.45204 0.81627 0.0
C453 C 0.40723 0.45839 0.7921 0.0
C454 C 0.36807 0.50752 0.82101 0.0
C455 C 0.4047 0.48934 0.78236 0.0
C456 C 0.3618 0.56598 0.82973 0.0
C457 C 0.32232 0.5523 0.87746 0.0
N458 N 0.38618 0.51289 0.79701 0.0
N459 N 0.33314 0.52877 0.86082 0.0
H460 H 0.73423 0.56778 0.65691 0.0
H461 H 0.4902 0.49566 0.71893 0.0
H462 H 0.58992 0.59526 0.63362 0.0
H463 H 0.62593 0.44517 0.7186 0.0
H464 H 0.52899 0.53848 0.69447 0.0
H465 H 0.6979 0.52927 0.6871 0.0
C466 C 0.69495 0.5661 0.65855 0.0
C467 C 0.66493 0.58461 0.6428 0.0
C468 C 0.55043 0.51815 0.69996 0.0
C469 C 0.62332 0.54081 0.67702 0.0
C470 C 0.52829 0.49363 0.71385 0.0
C471 C 0.55496 0.4668 0.72094 0.0
C472 C 0.5998 0.51606 0.69326 0.0
C473 C 0.60431 0.46567 0.714 0.0
C474 C 0.67428 0.544 0.67555 0.0
C475 C 0.61425 0.58132 0.64539 0.0
N476 N 0.62521 0.48995 0.70056 0.0
N477 N 0.59504 0.55984 0.66212 0.0
H478 H 0.80866 0.90667 0.16357 0.0
H479 H 0.96611 0.06416 0.18075 0.0
H480 H 0.91608 0.93941 0.10885 0.0
H481 H 0.9133 0.01186 0.24649 0.0
H482 H 0.93872 0.02125 0.15319 0.0
H483 H 0.83821 0.94707 0.19375 0.0
C484 C 0.83847 0.92215 0.15789 0.0
C485 C 0.85915 0.91988 0.13332 0.0
C486 C 0.93301 0.01913 0.17366 0.0
C487 C 0.89246 0.96634 0.1676 0.0
C488 C 0.94853 0.04371 0.18947 0.0
C489 C 0.94148 0.04188 0.21608 0.0
C490 C 0.90962 0.99249 0.18436 0.0
C491 C 0.91872 0.01456 0.22612 0.0
C492 C 0.85518 0.94523 0.17511 0.0
C493 C 0.89769 0.94076 0.12713 0.0
N494 N 0.9032 0.991 0.21024 0.0
N495 N 0.91265 0.96317 0.14398 0.0
H496 H 0.80719 0.10316 0.66808 0.0
H497 H 0.97506 0.95042 0.67978 0.0
H498 H 0.92433 0.08118 0.61613 0.0
H499 H 0.89707 0.98694 0.74489 0.0
H500 H 0.94593 0.99434 0.654 0.0
H501 H 0.83011 0.05739 0.69454 0.0
C502 C 0.83754 0.08881 0.66213 0.0
C503 C 0.86346 0.09611 0.63956 0.0
C504 C 0.93509 0.99279 0.67392 0.0
C505 C 0.88927 0.04347 0.66962 0.0
C506 C 0.95166 0.9676 0.68873 0.0
C507 C 0.93899 0.96499 0.71473 0.0
C508 C 0.90506 0.01565 0.68494 0.0
C509 C 0.90811 0.98805 0.72499 0.0
C510 C 0.85046 0.06264 0.67724 0.0
C511 C 0.9022 0.07628 0.63285 0.0
N512 N 0.89219 0.01247 0.71007 0.0
N513 N 0.91371 0.05099 0.64771 0.0
H514 H 0.70477 0.45593 0.11586 0.0
H515 H 0.58088 0.50912 0.24749 0.0
H516 H 0.6349 0.39053 0.16847 0.0
H517 H 0.60811 0.5727 0.18406 0.0
H518 H 0.61588 0.46583 0.22255 0.0
H519 H 0.684 0.49939 0.14439 0.0
C520 C 0.68523 0.4506 0.1334 0.0
C521 C 0.67125 0.41937 0.13953 0.0
C522 C 0.61461 0.48934 0.21422 0.0
C523 C 0.64813 0.46914 0.17255 0.0
C524 C 0.595 0.51403 0.22848 0.0
C525 C 0.59138 0.54436 0.21768 0.0
C526 C 0.63128 0.49522 0.18916 0.0
C527 C 0.60988 0.54951 0.19294 0.0
C528 C 0.6736 0.47546 0.14974 0.0
C529 C 0.64701 0.41404 0.16294 0.0
N530 N 0.62889 0.52517 0.17948 0.0
N531 N 0.63605 0.43865 0.17849 0.0
H532 H 0.2899 0.46387 0.38139 0.0
H533 H 0.50386 0.50812 0.28456 0.0
H534 H 0.38294 0.39341 0.34864 0.0
H535 H 0.38503 0.57086 0.30053 0.0
H536 H 0.46118 0.46584 0.30815 0.0
H537 H 0.32399 0.50338 0.35173 0.0
C538 C 0.31695 0.45669 0.36755 0.0
C539 C 0.33349 0.42544 0.36722 0.0
C540 C 0.4442 0.48875 0.30628 0.0
C541 C 0.37373 0.47056 0.33375 0.0
C542 C 0.46866 0.51292 0.29297 0.0
C543 C 0.44784 0.54297 0.29061 0.0
C544 C 0.39891 0.49485 0.31765 0.0
C545 C 0.40213 0.54794 0.30174 0.0
C546 C 0.33652 0.47921 0.3507 0.0
C547 C 0.369 0.41727 0.34923 0.0
N548 N 0.37936 0.52421 0.31495 0.0
N549 N 0.38844 0.43981 0.33338 0.0
H550 H 0.2156 0.08709 0.85032 0.0
H551 H 0.04449 0.93674 0.83664 0.0
H552 H 0.10412 0.06414 0.90602 0.0
H553 H 0.08144 0.99248 0.76982 0.0
H554 H 0.0787 0.97845 0.86368 0.0
H555 H 0.17869 0.04822 0.82115 0.0
C556 C 0.18337 0.07418 0.85646 0.0
C557 C 0.16367 0.07876 0.88103 0.0
C558 C 0.07958 0.9814 0.84305 0.0
C559 C 0.12231 0.03368 0.84793 0.0
C560 C 0.06012 0.9576 0.82756 0.0
C561 C 0.06108 0.9607 0.80076 0.0
C562 C 0.10094 0.00837 0.83174 0.0
C563 C 0.08152 0.98851 0.79025 0.0
C564 C 0.16253 0.05189 0.8398 0.0
C565 C 0.12195 0.06089 0.88777 0.0
N566 N 0.10118 0.01115 0.80573 0.0
N567 N 0.10317 0.03895 0.87151 0.0
H568 H 0.17221 0.15486 0.98209 0.0
H569 H 0.22032 0.0343 0.09807 0.0
H570 H 0.2218 0.05944 0.97083 0.0
H571 H 0.14668 0.12332 0.10657 0.0
H572 H 0.2249 0.04373 0.05176 0.0
H573 H 0.16606 0.14436 0.02803 0.0
C574 C 0.18196 0.13169 0.98933 0.0
C575 C 0.19779 0.10803 0.97261 0.0
C576 C 0.20763 0.06115 0.06376 0.0
C577 C 0.19066 0.09576 0.02531 0.0
C578 C 0.20528 0.05588 0.09021 0.0
C579 C 0.1831 0.07806 0.10624 0.0
C580 C 0.18805 0.08894 0.05325 0.0
C581 C 0.16366 0.10542 0.09494 0.0
C582 C 0.17819 0.12565 0.01556 0.0
C583 C 0.20918 0.07829 0.98302 0.0
N584 N 0.16677 0.11013 0.0692 0.0
N585 N 0.20567 0.07304 0.00872 0.0
H586 H 0.33653 0.34855 0.47326 0.0
H587 H 0.44056 0.47428 0.57146 0.0
H588 H 0.33612 0.44873 0.45588 0.0
H589 H 0.35982 0.39145 0.5968 0.0
H590 H 0.41729 0.46226 0.52735 0.0
H591 H 0.35988 0.36085 0.51724 0.0
C592 C 0.34092 0.37313 0.47855 0.0
C593 C 0.3338 0.39758 0.46053 0.0
C594 C 0.40487 0.44679 0.54267 0.0
C595 C 0.3625 0.41158 0.51089 0.0
C596 C 0.41783 0.45368 0.56796 0.0
C597 C 0.40215 0.43399 0.58826 0.0
C598 C 0.37691 0.41964 0.53745 0.0
C599 C 0.37382 0.40711 0.58203 0.0
C600 C 0.35465 0.38004 0.50369 0.0
C601 C 0.34183 0.42892 0.46871 0.0
N602 N 0.3624 0.40067 0.55723 0.0
N603 N 0.35598 0.43498 0.49321 0.0
H604 H 0.7171 0.41891 0.04709 0.0
H605 H 0.61074 0.34702 0.91635 0.0
H606 H 0.62036 0.33794 0.04345 0.0
H607 H 0.71964 0.42136 0.91862 0.0
H608 H 0.60826 0.34686 0.96309 0.0
H609 H 0.71251 0.42388 1.00031 0.0
C610 C 0.69448 0.40241 0.03648 0.0
C611 C 0.66943 0.3778 0.04918 0.0
C612 C 0.63263 0.36329 0.9534 0.0
C613 C 0.66432 0.38316 0.99568 0.0
C614 C 0.63387 0.36352 0.92667 0.0
C615 C 0.66552 0.3842 0.91348 0.0
C616 C 0.6632 0.38394 0.96719 0.0
C617 C 0.69515 0.40471 0.92796 0.0
C618 C 0.69214 0.40512 0.00977 0.0
C619 C 0.64093 0.35695 0.03443 0.0
N620 N 0.6933 0.40405 0.95402 0.0
N621 N 0.6393 0.36004 0.00852 0.0
H622 H 0.8264 0.11158 0.54453 0.0
H623 H 0.98987 0.19329 0.43524 0.0
H624 H 0.91955 0.19285 0.55711 0.0
H625 H 0.8682 0.13128 0.41812 0.0
H626 H 0.97105 0.18829 0.48072 0.0
H627 H 0.84795 0.11325 0.49884 0.0
C628 C 0.85151 0.12966 0.53769 0.0
C629 C 0.87092 0.15227 0.55457 0.0
C630 C 0.94849 0.17574 0.46701 0.0
C631 C 0.89588 0.15423 0.50254 0.0
C632 C 0.95905 0.17871 0.44096 0.0
C633 C 0.93032 0.16297 0.42262 0.0
C634 C 0.9091 0.15668 0.475 0.0
C635 C 0.89168 0.14368 0.43146 0.0
C636 C 0.86361 0.1307 0.51164 0.0
C637 C 0.90317 0.17526 0.5447 0.0
N638 N 0.88214 0.14113 0.45699 0.0
N639 N 0.91468 0.1756 0.5194 0.0
H640 H 0.85876 0.84701 0.02781 0.0
H641 H 0.84985 0.98837 0.92643 0.0
H642 H 0.80419 0.93975 0.0459 0.0
H643 H 0.8459 0.89042 0.90324 0.0
H644 H 0.84415 0.9714 0.97102 0.0
H645 H 0.86396 0.86282 0.98275 0.0
C646 C 0.84741 0.87058 0.02241 0.0
C647 C 0.83093 0.89202 0.04094 0.0
C648 C 0.84445 0.95363 0.95616 0.0
C649 C 0.83827 0.91048 0.98928 0.0
C650 C 0.84747 0.96327 0.9306 0.0
C651 C 0.84768 0.94086 0.91078 0.0
C652 C 0.84237 0.92127 0.96221 0.0
C653 C 0.84621 0.90863 0.91772 0.0
C654 C 0.85076 0.87962 0.99664 0.0
C655 C 0.81796 0.9225 0.03258 0.0
N656 N 0.84363 0.89981 0.94284 0.0
N657 N 0.82215 0.93083 0.00746 0.0
H658 H 0.74672 0.61654 0.53236 0.0
H659 H 0.53211 0.55796 0.4396 0.0
H660 H 0.59889 0.60058 0.55798 0.0
H661 H 0.67006 0.59417 0.41206 0.0
H662 H 0.55759 0.56997 0.48347 0.0
H663 H 0.72073 0.60558 0.48854 0.0
C664 C 0.70871 0.61099 0.52883 0.0
C665 C 0.675 0.6096 0.54907 0.0
C666 C 0.58226 0.57535 0.46783 0.0
C667 C 0.64517 0.59636 0.49874 0.0
C668 C 0.56785 0.56831 0.44279 0.0
C669 C 0.59902 0.57503 0.4221 0.0
C670 C 0.6284 0.58894 0.47232 0.0
C671 C 0.64468 0.58886 0.42738 0.0
C672 C 0.69396 0.60454 0.50375 0.0
C673 C 0.62642 0.60153 0.54317 0.0
N674 N 0.65806 0.59522 0.45195 0.0
N675 N 0.61304 0.59516 0.51861 0.0
H676 H 0.41821 0.60414 0.95352 0.0
H677 H 0.35333 0.64915 0.09849 0.0
H678 H 0.28213 0.64546 0.9763 0.0
H679 H 0.49985 0.63337 0.07202 0.0
H680 H 0.32287 0.63758 0.05536 0.0
H681 H 0.44459 0.60422 0.99852 0.0
C682 C 0.39358 0.61266 0.96807 0.0
C683 C 0.34811 0.62502 0.96124 0.0
C684 C 0.36166 0.63644 0.05905 0.0
C685 C 0.37797 0.62537 0.01254 0.0
C686 C 0.37902 0.64288 0.08368 0.0
C687 C 0.42923 0.64252 0.08878 0.0
C688 C 0.39469 0.62931 0.03942 0.0
C689 C 0.46092 0.63442 0.0688 0.0
C690 C 0.40875 0.61294 0.99368 0.0
C691 C 0.3177 0.63604 0.98078 0.0
N692 N 0.44316 0.62823 0.04499 0.0
N693 N 0.33324 0.63609 0.00551 0.0
H694 H 0.18287 0.9371 0.4617 0.0
H695 H 0.13538 0.85735 0.59912 0.0
H696 H 0.17104 0.83618 0.47379 0.0
H697 H 0.15797 0.9575 0.58696 0.0
H698 H 0.13826 0.84947 0.5527 0.0
H699 H 0.16394 0.94525 0.50682 0.0
C700 C 0.17563 0.91663 0.47375 0.0
C701 C 0.17874 0.88588 0.4639 0.0
C702 C 0.1422 0.8732 0.56018 0.0
C703 C 0.15775 0.89507 0.51584 0.0
C704 C 0.14021 0.87774 0.58667 0.0
C705 C 0.14689 0.9081 0.59695 0.0
C706 C 0.15079 0.89923 0.54385 0.0
C707 C 0.15349 0.93362 0.5799 0.0
C708 C 0.16515 0.92131 0.4996 0.0
C709 C 0.16973 0.86029 0.48062 0.0
N710 N 0.15554 0.92858 0.55424 0.0
N711 N 0.15988 0.86545 0.50577 0.0
H712 H 0.26851 0.26659 0.35379 0.0
H713 H 0.01601 0.21161 0.28933 0.0
H714 H 0.13748 0.32161 0.35648 0.0
H715 H 0.14309 0.15272 0.2943 0.0
H716 H 0.06206 0.25457 0.3097 0.0
H717 H 0.22625 0.2277 0.32672 0.0
C718 C 0.23112 0.27078 0.3481 0.0
C719 C 0.2064 0.29733 0.35699 0.0
C720 C 0.08003 0.23233 0.30615 0.0
C721 C 0.15738 0.25272 0.32678 0.0
C722 C 0.05366 0.20773 0.29465 0.0
C723 C 0.0758 0.17854 0.29001 0.0
C724 C 0.12898 0.22777 0.31309 0.0
C725 C 0.1248 0.17497 0.2971 0.0
C726 C 0.20685 0.24849 0.33288 0.0
C727 C 0.15779 0.30152 0.34965 0.0
N728 N 0.14969 0.19923 0.3083 0.0
N729 N 0.1347 0.27933 0.33509 0.0
H730 H 0.23306 0.2506 0.86954 0.0
H731 H 0.44824 0.28825 0.7702 0.0
H732 H 0.33508 0.17977 0.84596 0.0
H733 H 0.38195 0.35866 0.81785 0.0
H734 H 0.39634 0.24746 0.79038 0.0
H735 H 0.27523 0.28955 0.84224 0.0
C736 C 0.26358 0.24311 0.85798 0.0
C737 C 0.28051 0.21206 0.85965 0.0
C738 C 0.39315 0.27184 0.79638 0.0
C739 C 0.32956 0.25642 0.82902 0.0
C740 C 0.42264 0.29506 0.78489 0.0
C741 C 0.41947 0.32671 0.79258 0.0
C742 C 0.35982 0.28049 0.8154 0.0
C743 C 0.38587 0.33441 0.81167 0.0
C744 C 0.28793 0.26537 0.84268 0.0
C745 C 0.32072 0.20351 0.84483 0.0
N746 N 0.35719 0.31148 0.82237 0.0
N747 N 0.34417 0.22567 0.83016 0.0
H748 H 0.70185 0.23532 0.62904 0.0
H749 H 0.61965 0.31605 0.76044 0.0
H750 H 0.78507 0.22935 0.6989 0.0
H751 H 0.55153 0.33405 0.68716 0.0
H752 H 0.67383 0.27843 0.73981 0.0
H753 H 0.63911 0.26496 0.65178 0.0
C754 C 0.70626 0.23978 0.64934 0.0
C755 C 0.74813 0.22989 0.66229 0.0
C756 C 0.64689 0.29055 0.72829 0.0
C757 C 0.67746 0.26421 0.68829 0.0
C758 C 0.6159 0.3121 0.74004 0.0
C759 C 0.5812 0.32865 0.72551 0.0
C760 C 0.64302 0.28526 0.70182 0.0
C761 C 0.57792 0.32218 0.69918 0.0
C762 C 0.67073 0.25686 0.66227 0.0
C763 C 0.75287 0.23649 0.68842 0.0
N764 N 0.6085 0.30111 0.68821 0.0
N765 N 0.71801 0.25344 0.7006 0.0
H766 H 0.79696 0.25634 0.11776 0.0
H767 H 0.91811 0.20889 0.25217 0.0
H768 H 0.75094 0.29698 0.18911 0.0
H769 H 0.92682 0.15267 0.18359 0.0
H770 H 0.86678 0.24677 0.22893 0.0
H771 H 0.85621 0.22419 0.14106 0.0
C772 C 0.79996 0.2587 0.13838 0.0
C773 C 0.76948 0.27913 0.15168 0.0
C774 C 0.88014 0.22617 0.21903 0.0
C775 C 0.83643 0.24234 0.1785 0.0
C776 C 0.90927 0.20452 0.23225 0.0
C777 C 0.92639 0.17739 0.21988 0.0
C778 C 0.86875 0.22086 0.19315 0.0
C779 C 0.91452 0.17321 0.19395 0.0
C780 C 0.83349 0.24028 0.15168 0.0
C781 C 0.7742 0.2814 0.17832 0.0
N782 N 0.8865 0.19466 0.18149 0.0
N783 N 0.80707 0.26306 0.19098 0.0
H784 H 0.74755 0.73816 0.64972 0.0
H785 H 0.98657 0.7914 0.72782 0.0
H786 H 0.87331 0.67914 0.65924 0.0
H787 H 0.86743 0.85364 0.71034 0.0
H788 H 0.942 0.74795 0.70716 0.0
H789 H 0.78612 0.7782 0.67719 0.0
C790 C 0.78287 0.73341 0.65815 0.0
C791 C 0.80728 0.70539 0.65257 0.0
C792 C 0.92542 0.77105 0.70799 0.0
C793 C 0.85222 0.75119 0.68331 0.0
C794 C 0.95096 0.7959 0.71966 0.0
C795 C 0.9305 0.82613 0.72092 0.0
C796 C 0.87913 0.7765 0.69736 0.0
C797 C 0.88417 0.83058 0.71018 0.0
C798 C 0.80507 0.75632 0.67361 0.0
C799 C 0.85326 0.70043 0.66343 0.0
N800 N 0.86009 0.80609 0.69883 0.0
N801 N 0.87446 0.72321 0.67817 0.0
H802 H 0.73279 0.74541 0.11038 0.0
H803 H 0.58449 0.71331 0.24025 0.0
H804 H 0.74082 0.80853 0.17475 0.0
H805 H 0.60253 0.64422 0.18071 0.0
H806 H 0.63609 0.75047 0.21595 0.0
H807 H 0.6785 0.71038 0.13483 0.0
C808 C 0.72273 0.75189 0.12971 0.0
C809 C 0.74097 0.7797 0.14067 0.0
C810 C 0.62883 0.72716 0.20824 0.0
C811 C 0.67919 0.73976 0.16891 0.0
C812 C 0.59972 0.70586 0.2222 0.0
C813 C 0.59009 0.6754 0.21278 0.0
C814 C 0.64772 0.71809 0.18442 0.0
C815 C 0.60923 0.66739 0.18881 0.0
C816 C 0.69192 0.73187 0.1437 0.0
C817 C 0.72721 0.78718 0.16573 0.0
N818 N 0.6371 0.68856 0.1755 0.0
N819 N 0.69704 0.76725 0.1791 0.0
H820 H 0.29204 0.75162 0.38761 0.0
H821 H 0.42225 0.7092 0.25547 0.0
H822 H 0.32486 0.82341 0.33111 0.0
H823 H 0.43814 0.65532 0.32547 0.0
H824 H 0.37325 0.74792 0.27888 0.0
H825 H 0.33049 0.71213 0.36043 0.0
C826 C 0.30662 0.75885 0.36917 0.0
C827 C 0.30531 0.79052 0.36138 0.0
C828 C 0.38749 0.72755 0.28899 0.0
C829 C 0.34992 0.7458 0.3304 0.0
C830 C 0.41528 0.70544 0.27569 0.0
C831 C 0.43456 0.6791 0.28859 0.0
C832 C 0.37818 0.72285 0.3152 0.0
C833 C 0.42446 0.6754 0.31478 0.0
C834 C 0.32887 0.73643 0.35378 0.0
C835 C 0.32507 0.79901 0.33755 0.0
N836 N 0.39686 0.69693 0.32716 0.0
N837 N 0.34685 0.77669 0.32281 0.0
H838 H 0.19549 0.74498 0.89863 0.0
H839 H 0.06894 0.79257 0.76571 0.0
H840 H 0.23229 0.70177 0.82679 0.0
H841 H 0.06514 0.85024 0.8336 0.0
H842 H 0.11694 0.75335 0.7892 0.0
H843 H 0.13509 0.77759 0.8765 0.0
C844 C 0.1901 0.74209 0.87819 0.0
C845 C 0.21838 0.72082 0.86438 0.0
C846 C 0.10528 0.77448 0.79899 0.0
C847 C 0.15019 0.7581 0.83891 0.0
C848 C 0.07792 0.79686 0.78563 0.0
C849 C 0.06354 0.82489 0.79765 0.0
C850 C 0.11784 0.77997 0.82467 0.0
C851 C 0.07552 0.82902 0.82356 0.0
C852 C 0.15593 0.76076 0.86556 0.0
C853 C 0.21073 0.71793 0.83798 0.0
N854 N 0.10217 0.80688 0.83616 0.0
N855 N 0.17736 0.73655 0.826 0.0
loop_
_geom_bond_atom_site_label_1
_geom_bond_atom_site_label_2
_geom_bond_distance
_geom_bond_site_symmetry_2
_ccdc_geom_bond_type
H0 C3 0.929 . S
H1 C6 0.929 . S
H2 C8 0.930 . S
C3 H0 0.929 . S
C3 C4 1.398 . S
C3 C5 1.396 . S
C4 C3 1.398 . S
C4 C8 1.407 . S
C5 C3 1.396 . S
C5 C6 1.394 . S
C6 H1 0.929 . S
C6 C5 1.394 . S
C6 C7 1.382 . S
C7 C6 1.382 . S
C7 C8 1.392 . S
C7 N9 1.420 . S
C8 H2 0.930 . S
C8 C4 1.407 . S
C8 C7 1.392 . S
N9 C7 1.420 . S
N9 C10 1.244 . S
C10 N9 1.244 . S
H11 C14 0.929 . S
H12 C17 0.929 . S
H13 C19 0.930 . S
C14 H11 0.929 . S
C14 C15 1.398 . S
C14 C16 1.396 . S
C15 C14 1.398 . S
C15 C19 1.407 . S
C16 C14 1.396 . S
C16 C17 1.394 . S
C17 H12 0.929 . S
C17 C16 1.394 . S
C17 C18 1.382 . S
C18 C17 1.382 . S
C18 C19 1.392 . S
C18 N20 1.420 . S
C19 H13 0.930 . S
C19 C15 1.407 . S
C19 C18 1.392 . S
N20 C18 1.420 . S
N20 C21 1.244 . S
C21 N20 1.244 . S
H22 C25 0.929 . S
H23 C28 0.929 . S
H24 C30 0.930 . S
C25 H22 0.929 . S
C25 C26 1.398 . S
C25 C27 1.396 . S
C26 C25 1.398 . S
C26 C30 1.407 . S
C27 C25 1.396 . S
C27 C28 1.394 . S
C28 H23 0.929 . S
C28 C27 1.394 . S
C28 C29 1.382 . S
C29 C28 1.382 . S
C29 C30 1.392 . S
C29 N31 1.420 . S
C30 H24 0.930 . S
C30 C26 1.407 . S
C30 C29 1.392 . S
N31 C29 1.420 . S
N31 C32 1.244 . S
C32 N31 1.244 . S
H33 C36 0.929 . S
H34 C39 0.929 . S
H35 C41 0.930 . S
C36 H33 0.929 . S
C36 C37 1.398 . S
C36 C38 1.396 . S
C37 C36 1.398 . S
C37 C41 1.407 . S
C38 C36 1.396 . S
C38 C39 1.394 . S
C39 H34 0.929 . S
C39 C38 1.394 . S
C39 C40 1.382 . S
C40 C39 1.382 . S
C40 C41 1.392 . S
C40 N42 1.420 . S
C41 H35 0.930 . S
C41 C37 1.407 . S
C41 C40 1.392 . S
N42 C40 1.420 . S
N42 C43 1.244 . S
C43 N42 1.244 . S
H44 C47 0.929 . S
H45 C50 0.929 . S
H46 C52 0.930 . S
C47 H44 0.929 . S
C47 C48 1.398 . S
C47 C49 1.396 . S
C48 C47 1.398 . S
C48 C52 1.407 . S
C49 C47 1.396 . S
C49 C50 1.394 . S
C50 H45 0.929 . S
C50 C49 1.394 . S
C50 C51 1.382 . S
C51 C50 1.382 . S
C51 C52 1.392 . S
C51 N53 1.420 . S
C52 H46 0.930 . S
C52 C48 1.407 . S
C52 C51 1.392 . S
N53 C51 1.420 . S
N53 C54 1.244 . S
C54 N53 1.244 . S
H55 C58 0.929 . S
H56 C61 0.929 . S
H57 C63 0.930 . S
C58 H55 0.929 . S
C58 C59 1.398 . S
C58 C60 1.396 . S
C59 C58 1.398 . S
C59 C63 1.407 . S
C60 C58 1.396 . S
C60 C61 1.394 . S
C61 H56 0.929 . S
C61 C60 1.394 . S
C61 C62 1.382 . S
C62 C61 1.382 . S
C62 C63 1.392 . S
C62 N64 1.420 . S
C63 H57 0.930 . S
C63 C59 1.407 . S
C63 C62 1.392 . S
N64 C62 1.420 . S
N64 C65 1.244 . S
C65 N64 1.244 . S
H66 C69 0.929 . S
H67 C72 0.929 . S
H68 C74 0.930 . S
C69 H66 0.929 . S
C69 C70 1.398 . S
C69 C71 1.396 . S
C70 C69 1.398 . S
C70 C74 1.407 . S
C71 C69 1.396 . S
C71 C72 1.394 . S
C72 H67 0.929 . S
C72 C71 1.394 . S
C72 C73 1.382 . S
C73 C72 1.382 . S
C73 C74 1.392 . S
C73 N75 1.420 . S
C74 H68 0.930 . S
C74 C70 1.407 . S
C74 C73 1.392 . S
N75 C73 1.420 . S
N75 C76 1.244 . S
C76 N75 1.244 . S
H77 C80 0.929 . S
H78 C83 0.929 . S
H79 C85 0.930 . S
C80 H77 0.929 . S
C80 C81 1.398 . S
C80 C82 1.396 . S
C81 C80 1.398 . S
C81 C85 1.407 . S
C82 C80 1.396 . S
C82 C83 1.394 . S
C83 H78 0.929 . S
C83 C82 1.394 . S
C83 C84 1.382 . S
C84 C83 1.382 . S
C84 C85 1.392 . S
C84 N86 1.420 . S
C85 H79 0.930 . S
C85 C81 1.407 . S
C85 C84 1.392 . S
N86 C84 1.420 . S
N86 C87 1.244 . S
C87 N86 1.244 . S
C88 C90 1.422 . S
C88 C92 1.415 . S
C88 N94 1.369 . S
C89 C90 1.421 . S
C89 C91 1.417 . S
C89 C101 1.422 1_545 S
C90 C88 1.422 . S
C90 C89 1.421 . S
C90 N100 1.359 . S
C91 C89 1.417 . S
C91 C93 1.329 . S
C91 H110 0.930 . S
C92 C88 1.415 . S
C92 C93 1.437 . S
C92 C96 1.413 . S
C93 C91 1.329 . S
C93 C92 1.437 . S
C93 H115 0.929 . S
N94 C88 1.369 . S
N94 C95 1.338 . S
N94 Gd99 2.622 . S
C95 N94 1.338 . S
C95 C97 1.378 . S
C95 H107 0.929 . S
C96 C92 1.413 . S
C96 C97 1.348 . S
C96 H112 0.931 . S
C97 C95 1.378 . S
C97 C96 1.348 . S
C97 H113 0.930 . S
Gd98 N118 2.622 . S
Gd98 N125 2.570 . S
Gd98 O132 2.353 . S
Gd98 O133 2.468 . S
Gd98 O134 2.427 . S
Gd98 O136 2.388 . S
Gd98 O137 2.386 . S
Gd98 O141 2.307 . S
Gd98 C151 2.805 . S
Gd99 N94 2.622 . S
Gd99 N100 2.570 . S
Gd99 O131 2.386 . S
Gd99 O135 2.307 1_655 S
Gd99 O138 2.353 1_655 S
Gd99 O139 2.468 . S
Gd99 O140 2.427 . S
Gd99 O142 2.388 . S
Gd99 C163 2.805 . S
N100 C90 1.359 . S
N100 Gd99 2.570 . S
N100 C102 1.343 . S
C101 C89 1.422 1_565 S
C101 C103 1.323 . S
C101 H109 0.931 . S
C102 N100 1.343 . S
C102 C103 1.366 1_545 S
C102 H104 0.931 . S
C103 C101 1.323 . S
C103 C102 1.366 1_565 S
C103 H105 0.953 . S
H104 C102 0.931 . S
H105 C103 0.953 . S
H106 C129 0.931 . S
H107 C95 0.929 . S
H108 C130 0.930 . S
H109 C101 0.931 . S
H110 C91 0.930 . S
H111 C120 0.929 . S
H112 C96 0.931 . S
H113 C97 0.930 . S
H114 C152 0.930 . S
H115 C93 0.929 . S
H116 C121 0.931 . S
H117 C122 0.930 . S
N118 Gd98 2.622 . S
N118 C119 1.369 . S
N118 C120 1.338 . S
C119 N118 1.369 . S
C119 C123 1.415 . S
C119 C126 1.422 . S
C120 H111 0.929 . S
C120 N118 1.338 . S
C120 C122 1.378 . S
C121 H116 0.931 . S
C121 C122 1.348 . S
C121 C123 1.413 . S
C122 H117 0.930 . S
C122 C120 1.378 . S
C122 C121 1.348 . S
C123 C119 1.415 . S
C123 C121 1.413 . S
C123 C153 1.437 . S
H124 C153 0.929 . S
N125 Gd98 2.570 . S
N125 C126 1.359 . S
N125 C129 1.343 . S
C126 C119 1.422 . S
C126 N125 1.359 . S
C126 C128 1.421 . S
C127 C128 1.422 . S
C127 C130 1.321 . S
C127 H154 0.931 . S
C128 C126 1.421 . S
C128 C127 1.422 . S
C128 C152 1.417 . S
C129 H106 0.931 . S
C129 N125 1.343 . S
C129 C130 1.390 . S
C130 H108 0.930 . S
C130 C127 1.321 . S
C130 C129 1.390 . S
O131 Gd99 2.386 . S
O131 C143 1.265 . S
O132 Gd98 2.353 . S
O132 C143 1.242 1_455 S
O133 Gd98 2.468 . S
O133 C151 1.263 . S
O134 Gd98 2.427 . S
O134 C151 1.252 . S
O135 Gd99 2.307 1_455 S
O135 C144 1.261 . S
O136 Gd98 2.388 . S
O136 C144 1.252 . S
O137 Gd98 2.386 . S
O137 C155 1.265 . S
O138 Gd99 2.353 1_455 S
O138 C155 1.242 . S
O139 Gd99 2.468 . S
O139 C163 1.263 . S
O140 Gd99 2.427 . S
O140 C163 1.252 . S
O141 Gd98 2.307 . S
O141 C156 1.261 1_455 S
O142 Gd99 2.388 . S
O142 C156 1.252 . S
C143 O131 1.265 . S
C143 O132 1.242 1_655 S
C144 O135 1.261 . S
C144 O136 1.252 . S
C145 C148 1.394 . S
C145 C150 1.370 . S
C145 C151 1.500 . S
C146 C149 1.383 . S
C146 C150 1.395 . S
C147 C148 1.396 . S
C147 C149 1.365 . S
C147 H164 0.929 . S
C148 C145 1.394 . S
C148 C147 1.396 . S
C148 H165 0.930 . S
C149 C146 1.383 . S
C149 C147 1.365 . S
C149 H166 0.931 . S
C150 C145 1.370 . S
C150 C146 1.395 . S
C150 H167 0.930 . S
C151 Gd98 2.805 . S
C151 O133 1.263 . S
C151 O134 1.252 . S
C151 C145 1.500 . S
C152 H114 0.930 . S
C152 C128 1.417 . S
C152 C153 1.329 . S
C153 C123 1.437 . S
C153 H124 0.929 . S
C153 C152 1.329 . S
H154 C127 0.931 . S
C155 O137 1.265 . S
C155 O138 1.242 . S
C156 O141 1.261 1_655 S
C156 O142 1.252 . S
C157 C160 1.394 . S
C157 C162 1.370 . S
C157 C163 1.500 . S
C158 C161 1.383 . S
C158 C162 1.395 . S
C159 C160 1.396 . S
C159 C161 1.365 . S
C159 H168 0.929 . S
C160 C157 1.394 . S
C160 C159 1.396 . S
C160 H169 0.930 . S
C161 C158 1.383 . S
C161 C159 1.365 . S
C161 H170 0.931 . S
C162 C157 1.370 . S
C162 C158 1.395 . S
C162 H171 0.930 . S
C163 Gd99 2.805 . S
C163 O139 1.263 . S
C163 O140 1.252 . S
C163 C157 1.500 . S
H164 C147 0.929 . S
H165 C148 0.930 . S
H166 C149 0.931 . S
H167 C150 0.930 . S
H168 C159 0.929 . S
H169 C160 0.930 . S
H170 C161 0.931 . S
H171 C162 0.930 . S
C172 C174 1.422 . S
C172 C176 1.415 . S
C172 N178 1.369 . S
C173 C174 1.421 . S
C173 C175 1.417 . S
C173 C185 1.422 . S
C174 C172 1.422 . S
C174 C173 1.421 . S
C174 N184 1.359 . S
C175 C173 1.417 . S
C175 C177 1.329 . S
C175 H194 0.930 . S
C176 C172 1.415 . S
C176 C177 1.437 . S
C176 C180 1.413 . S
C177 C175 1.329 . S
C177 C176 1.437 . S
C177 H199 0.929 . S
N178 C172 1.369 . S
N178 C179 1.338 . S
N178 Gd183 2.622 . S
C179 N178 1.338 . S
C179 C181 1.378 . S
C179 H191 0.929 . S
C180 C176 1.413 . S
C180 C181 1.348 . S
C180 H196 0.931 . S
C181 C179 1.378 . S
C181 C180 1.348 . S
C181 H197 0.930 . S
Gd182 N202 2.622 . S
Gd182 N209 2.570 . S
Gd182 O216 2.353 . S
Gd182 O217 2.468 . S
Gd182 O218 2.427 . S
Gd182 O220 2.388 . S
Gd182 O221 2.386 . S
Gd182 O225 2.307 . S
Gd182 C235 2.805 . S
Gd183 N178 2.622 . S
Gd183 N184 2.570 . S
Gd183 O215 2.386 . S
Gd183 O219 2.307 . S
Gd183 O222 2.353 . S
Gd183 O223 2.468 . S
Gd183 O224 2.427 . S
Gd183 O226 2.388 . S
Gd183 C247 2.805 . S
N184 C174 1.359 . S
N184 Gd183 2.570 . S
N184 C186 1.343 . S
C185 C173 1.422 . S
C185 C187 1.321 . S
C185 H193 0.931 . S
C186 N184 1.343 . S
C186 C187 1.390 . S
C186 H188 0.931 . S
C187 C185 1.321 . S
C187 C186 1.390 . S
C187 H189 0.930 . S
H188 C186 0.931 . S
H189 C187 0.930 . S
H190 C213 0.931 . S
H191 C179 0.929 . S
H192 C214 0.930 . S
H193 C185 0.931 . S
H194 C175 0.930 . S
H195 C204 0.929 . S
H196 C180 0.931 . S
H197 C181 0.930 . S
H198 C236 0.930 . S
H199 C177 0.929 . S
H200 C205 0.931 . S
H201 C206 0.930 . S
N202 Gd182 2.622 . S
N202 C203 1.369 . S
N202 C204 1.338 . S
C203 N202 1.369 . S
C203 C207 1.415 . S
C203 C210 1.422 . S
C204 H195 0.929 . S
C204 N202 1.338 . S
C204 C206 1.378 . S
C205 H200 0.931 . S
C205 C206 1.348 . S
C205 C207 1.413 . S
C206 H201 0.930 . S
C206 C204 1.378 . S
C206 C205 1.348 . S
C207 C203 1.415 . S
C207 C205 1.413 . S
C207 C237 1.437 . S
H208 C237 0.929 . S
N209 Gd182 2.570 . S
N209 C210 1.359 . S
N209 C213 1.343 . S
C210 C203 1.422 . S
C210 N209 1.359 . S
C210 C212 1.421 . S
C211 C212 1.422 . S
C211 C214 1.321 . S
C211 H238 0.931 . S
C212 C210 1.421 . S
C212 C211 1.422 . S
C212 C236 1.417 . S
C213 H190 0.931 . S
C213 N209 1.343 . S
C213 C214 1.390 . S
C214 H192 0.930 . S
C214 C211 1.321 . S
C214 C213 1.390 . S
O215 Gd183 2.386 . S
O215 C227 1.265 . S
O216 Gd182 2.353 . S
O216 C227 1.242 . S
O217 Gd182 2.468 . S
O217 C235 1.263 . S
O218 Gd182 2.427 . S
O218 C235 1.252 . S
O219 Gd183 2.307 . S
O219 C228 1.261 . S
O220 Gd182 2.388 . S
O220 C228 1.252 . S
O221 Gd182 2.386 . S
O221 C239 1.265 . S
O222 Gd183 2.353 . S
O222 C239 1.242 . S
O223 Gd183 2.468 . S
O223 C247 1.263 . S
O224 Gd183 2.427 . S
O224 C247 1.252 . S
O225 Gd182 2.307 . S
O225 C240 1.261 . S
O226 Gd183 2.388 . S
O226 C240 1.252 . S
C227 O215 1.265 . S
C227 O216 1.242 . S
C228 O219 1.261 . S
C228 O220 1.252 . S
C229 C232 1.394 . S
C229 C234 1.370 . S
C229 C235 1.500 . S
C230 C233 1.383 . S
C230 C234 1.395 . S
C231 C232 1.396 . S
C231 C233 1.365 . S
C231 H248 0.929 . S
C232 C229 1.394 . S
C232 C231 1.396 . S
C232 H249 0.930 . S
C233 C230 1.383 . S
C233 C231 1.365 . S
C233 H250 0.931 . S
C234 C229 1.370 . S
C234 C230 1.395 . S
C234 H251 0.930 . S
C235 Gd182 2.805 . S
C235 O217 1.263 . S
C235 O218 1.252 . S
C235 C229 1.500 . S
C236 H198 0.930 . S
C236 C212 1.417 . S
C236 C237 1.329 . S
C237 C207 1.437 . S
C237 H208 0.929 . S
C237 C236 1.329 . S
H238 C211 0.931 . S
C239 O221 1.265 . S
C239 O222 1.242 . S
C240 O225 1.261 . S
C240 O226 1.252 . S
C241 C244 1.394 . S
C241 C246 1.370 . S
C241 C247 1.500 . S
C242 C245 1.383 . S
C242 C246 1.395 . S
C243 C244 1.396 . S
C243 C245 1.365 . S
C243 H252 0.929 . S
C244 C241 1.394 . S
C244 C243 1.396 . S
C244 H253 0.930 . S
C245 C242 1.383 . S
C245 C243 1.365 . S
C245 H254 0.931 . S
C246 C241 1.370 . S
C246 C242 1.395 . S
C246 H255 0.930 . S
C247 Gd183 2.805 . S
C247 O223 1.263 . S
C247 O224 1.252 . S
C247 C241 1.500 . S
H248 C231 0.929 . S
H249 C232 0.930 . S
H250 C233 0.931 . S
H251 C234 0.930 . S
H252 C243 0.929 . S
H253 C244 0.930 . S
H254 C245 0.931 . S
H255 C246 0.930 . S
C256 C258 1.422 . S
C256 C260 1.415 . S
C256 N262 1.369 . S
C257 C258 1.421 . S
C257 C259 1.417 . S
C257 C269 1.422 . S
C258 C256 1.422 . S
C258 C257 1.421 . S
C258 N268 1.359 . S
C259 C257 1.417 . S
C259 C261 1.329 . S
C259 H278 0.930 . S
C260 C256 1.415 . S
C260 C261 1.437 . S
C260 C264 1.413 . S
C261 C259 1.329 . S
C261 C260 1.437 . S
C261 H283 0.929 . S
N262 C256 1.369 . S
N262 C263 1.338 . S
N262 Gd267 2.622 . S
C263 N262 1.338 . S
C263 C265 1.378 . S
C263 H275 0.929 . S
C264 C260 1.413 . S
C264 C265 1.348 . S
C264 H280 0.931 . S
C265 C263 1.378 . S
C265 C264 1.348 . S
C265 H281 0.930 . S
Gd266 N286 2.622 . S
Gd266 N293 2.570 . S
Gd266 O300 2.350 1_455 S
Gd266 O301 2.468 . S
Gd266 O302 2.427 . S
Gd266 O304 2.388 . S
Gd266 O305 2.386 . S
Gd266 O309 2.308 . S
Gd266 C319 2.805 . S
Gd267 N262 2.622 . S
Gd267 N268 2.570 . S
Gd267 O299 2.386 . S
Gd267 O303 2.307 1_655 S
Gd267 O306 2.353 1_655 S
Gd267 O307 2.468 . S
Gd267 O308 2.427 . S
Gd267 O310 2.388 . S
Gd267 C331 2.805 . S
N268 C258 1.359 . S
N268 Gd267 2.570 . S
N268 C270 1.343 . S
C269 C257 1.422 . S
C269 C271 1.321 . S
C269 H277 0.931 . S
C270 N268 1.343 . S
C270 C271 1.390 . S
C270 H272 0.931 . S
C271 C269 1.321 . S
C271 C270 1.390 . S
C271 H273 0.930 . S
H272 C270 0.931 . S
H273 C271 0.930 . S
H274 C297 0.931 . S
H275 C263 0.929 . S
H276 C298 0.930 . S
H277 C269 0.931 . S
H278 C259 0.930 . S
H279 C288 0.929 . S
H280 C264 0.931 . S
H281 C265 0.930 . S
H282 C320 0.930 . S
H283 C261 0.929 . S
H284 C289 0.931 . S
H285 C290 0.930 . S
N286 Gd266 2.622 . S
N286 C287 1.369 . S
N286 C288 1.338 . S
C287 N286 1.369 . S
C287 C291 1.415 . S
C287 C294 1.422 . S
C288 H279 0.929 . S
C288 N286 1.338 . S
C288 C290 1.378 . S
C289 H284 0.931 . S
C289 C290 1.348 . S
C289 C291 1.413 . S
C290 H285 0.930 . S
C290 C288 1.378 . S
C290 C289 1.348 . S
C291 C287 1.415 . S
C291 C289 1.413 . S
C291 C321 1.437 . S
H292 C321 0.929 . S
N293 Gd266 2.570 . S
N293 C294 1.359 . S
N293 C297 1.343 . S
C294 C287 1.422 . S
C294 N293 1.359 . S
C294 C296 1.421 . S
C295 C296 1.422 1_545 S
C295 C298 1.321 . S
C295 H322 0.931 . S
C296 C294 1.421 . S
C296 C295 1.422 1_565 S
C296 C320 1.417 . S
C297 H274 0.931 . S
C297 N293 1.343 . S
C297 C298 1.390 1_565 S
C298 H276 0.930 . S
C298 C295 1.321 . S
C298 C297 1.390 1_545 S
O299 Gd267 2.386 . S
O299 C311 1.265 . S
O300 Gd266 2.350 1_655 S
O300 C311 1.245 . S
O301 Gd266 2.468 . S
O301 C319 1.263 . S
O302 Gd266 2.427 . S
O302 C319 1.252 . S
O303 Gd267 2.307 1_455 S
O303 C312 1.261 . S
O304 Gd266 2.388 . S
O304 C312 1.252 . S
O305 Gd266 2.386 . S
O305 C323 1.265 . S
O306 Gd267 2.353 1_455 S
O306 C323 1.242 . S
O307 Gd267 2.468 . S
O307 C331 1.263 . S
O308 Gd267 2.427 . S
O308 C331 1.252 . S
O309 Gd266 2.308 . S
O309 C324 1.260 1_455 S
O310 Gd267 2.388 . S
O310 C324 1.252 . S
C311 O299 1.265 . S
C311 O300 1.245 . S
C312 O303 1.261 . S
C312 O304 1.252 . S
C313 C316 1.394 . S
C313 C318 1.370 . S
C313 C319 1.500 . S
C314 C317 1.383 . S
C314 C318 1.395 . S
C315 C316 1.396 . S
C315 C317 1.365 . S
C315 H332 0.929 . S
C316 C313 1.394 . S
C316 C315 1.396 . S
C316 H333 0.930 . S
C317 C314 1.383 . S
C317 C315 1.365 . S
C317 H334 0.931 . S
C318 C313 1.370 . S
C318 C314 1.395 . S
C318 H335 0.930 . S
C319 Gd266 2.805 . S
C319 O301 1.263 . S
C319 O302 1.252 . S
C319 C313 1.500 . S
C320 H282 0.930 . S
C320 C296 1.417 . S
C320 C321 1.329 . S
C321 C291 1.437 . S
C321 H292 0.929 . S
C321 C320 1.329 . S
H322 C295 0.931 . S
C323 O305 1.265 . S
C323 O306 1.242 . S
C324 O309 1.260 1_655 S
C324 O310 1.252 . S
C325 C328 1.394 . S
C325 C330 1.370 . S
C325 C331 1.500 . S
C326 C329 1.383 . S
C326 C330 1.395 . S
C327 C328 1.396 . S
C327 C329 1.365 . S
C327 H336 0.929 . S
C328 C325 1.394 . S
C328 C327 1.396 . S
C328 H337 0.930 . S
C329 C326 1.383 . S
C329 C327 1.365 . S
C329 H338 0.931 . S
C330 C325 1.370 . S
C330 C326 1.395 . S
C330 H339 0.930 . S
C331 Gd267 2.805 . S
C331 O307 1.263 . S
C331 O308 1.252 . S
C331 C325 1.500 . S
H332 C315 0.929 . S
H333 C316 0.930 . S
H334 C317 0.931 . S
H335 C318 0.930 . S
H336 C327 0.929 . S
H337 C328 0.930 . S
H338 C329 0.931 . S
H339 C330 0.930 . S
C340 C342 1.422 . S
C340 C344 1.415 . S
C340 N346 1.369 . S
C341 C342 1.421 . S
C341 C343 1.417 . S
C341 C353 1.422 . S
C342 C340 1.422 . S
C342 C341 1.421 . S
C342 N352 1.359 . S
C343 C341 1.417 . S
C343 C345 1.329 . S
C343 H362 0.930 . S
C344 C340 1.415 . S
C344 C345 1.437 . S
C344 C348 1.413 . S
C345 C343 1.329 . S
C345 C344 1.437 . S
C345 H367 0.929 . S
N346 C340 1.369 . S
N346 C347 1.338 . S
N346 Gd351 2.622 . S
C347 N346 1.338 . S
C347 C349 1.378 . S
C347 H359 0.929 . S
C348 C344 1.413 . S
C348 C349 1.348 . S
C348 H364 0.931 . S
C349 C347 1.378 . S
C349 C348 1.348 . S
C349 H365 0.930 . S
Gd350 N370 2.622 . S
Gd350 N377 2.570 . S
Gd350 O384 2.353 . S
Gd350 O385 2.468 . S
Gd350 O386 2.427 . S
Gd350 O388 2.388 . S
Gd350 O389 2.386 . S
Gd350 O393 2.307 . S
Gd350 C403 2.805 . S
Gd351 N346 2.622 . S
Gd351 N352 2.570 . S
Gd351 O383 2.386 . S
Gd351 O387 2.307 . S
Gd351 O390 2.353 . S
Gd351 O391 2.468 . S
Gd351 O392 2.427 . S
Gd351 O394 2.388 . S
Gd351 C415 2.805 . S
N352 C342 1.359 . S
N352 Gd351 2.570 . S
N352 C354 1.343 . S
C353 C341 1.422 . S
C353 C355 1.321 . S
C353 H361 0.931 . S
C354 N352 1.343 . S
C354 C355 1.390 . S
C354 H356 0.931 . S
C355 C353 1.321 . S
C355 C354 1.390 . S
C355 H357 0.930 . S
H356 C354 0.931 . S
H357 C355 0.930 . S
H358 C381 0.931 . S
H359 C347 0.929 . S
H360 C382 0.930 . S
H361 C353 0.931 . S
H362 C343 0.930 . S
H363 C372 0.929 . S
H364 C348 0.931 . S
H365 C349 0.930 . S
H366 C404 0.930 . S
H367 C345 0.929 . S
H368 C373 0.931 . S
H369 C374 0.930 . S
N370 Gd350 2.622 . S
N370 C371 1.369 . S
N370 C372 1.338 . S
C371 N370 1.369 . S
C371 C375 1.415 . S
C371 C378 1.422 . S
C372 H363 0.929 . S
C372 N370 1.338 . S
C372 C374 1.378 . S
C373 H368 0.931 . S
C373 C374 1.348 . S
C373 C375 1.413 . S
C374 H369 0.930 . S
C374 C372 1.378 . S
C374 C373 1.348 . S
C375 C371 1.415 . S
C375 C373 1.413 . S
C375 C405 1.437 . S
H376 C405 0.929 . S
N377 Gd350 2.570 . S
N377 C378 1.359 . S
N377 C381 1.343 . S
C378 C371 1.422 . S
C378 N377 1.359 . S
C378 C380 1.421 . S
C379 C380 1.422 . S
C379 C382 1.321 . S
C379 H406 0.931 . S
C380 C378 1.421 . S
C380 C379 1.422 . S
C380 C404 1.417 . S
C381 H358 0.931 . S
C381 N377 1.343 . S
C381 C382 1.390 . S
C382 H360 0.930 . S
C382 C379 1.321 . S
C382 C381 1.390 . S
O383 Gd351 2.386 . S
O383 C395 1.265 . S
O384 Gd350 2.353 . S
O384 C395 1.242 . S
O385 Gd350 2.468 . S
O385 C403 1.263 . S
O386 Gd350 2.427 . S
O386 C403 1.252 . S
O387 Gd351 2.307 . S
O387 C396 1.261 . S
O388 Gd350 2.388 . S
O388 C396 1.252 . S
O389 Gd350 2.386 . S
O389 C407 1.265 . S
O390 Gd351 2.353 . S
O390 C407 1.242 . S
O391 Gd351 2.468 . S
O391 C415 1.263 . S
O392 Gd351 2.427 . S
O392 C415 1.252 . S
O393 Gd350 2.307 . S
O393 C408 1.261 . S
O394 Gd351 2.388 . S
O394 C408 1.252 . S
C395 O383 1.265 . S
C395 O384 1.242 . S
C396 O387 1.261 . S
C396 O388 1.252 . S
C397 C400 1.394 . S
C397 C402 1.370 . S
C397 C403 1.500 . S
C398 C401 1.383 . S
C398 C402 1.395 . S
C399 C400 1.396 . S
C399 C401 1.365 . S
C399 H416 0.929 . S
C400 C397 1.394 . S
C400 C399 1.396 . S
C400 H417 0.930 . S
C401 C398 1.383 . S
C401 C399 1.365 . S
C401 H418 0.931 . S
C402 C397 1.370 . S
C402 C398 1.395 . S
C402 H419 0.930 . S
C403 Gd350 2.805 . S
C403 O385 1.263 . S
C403 O386 1.252 . S
C403 C397 1.500 . S
C404 H366 0.930 . S
C404 C380 1.417 . S
C404 C405 1.329 . S
C405 C375 1.437 . S
C405 H376 0.929 . S
C405 C404 1.329 . S
H406 C379 0.931 . S
C407 O389 1.265 . S
C407 O390 1.242 . S
C408 O393 1.261 . S
C408 O394 1.252 . S
C409 C412 1.394 . S
C409 C414 1.370 . S
C409 C415 1.500 . S
C410 C413 1.383 . S
C410 C414 1.395 . S
C411 C412 1.396 . S
C411 C413 1.365 . S
C411 H420 0.929 . S
C412 C409 1.394 . S
C412 C411 1.396 . S
C412 H421 0.930 . S
C413 C410 1.383 . S
C413 C411 1.365 . S
C413 H422 0.931 . S
C414 C409 1.370 . S
C414 C410 1.395 . S
C414 H423 0.930 . S
C415 Gd351 2.805 . S
C415 O391 1.263 . S
C415 O392 1.252 . S
C415 C409 1.500 . S
H416 C399 0.929 . S
H417 C400 0.930 . S
H418 C401 0.931 . S
H419 C402 0.930 . S
H420 C411 0.929 . S
H421 C412 0.930 . S
H422 C413 0.931 . S
H423 C414 0.930 . S
H424 C430 0.930 . S
H425 C434 0.930 . S
H426 C439 0.929 . S
H427 C437 0.929 1_565 S
H428 C432 0.929 . S
H429 C438 0.929 . S
C430 H424 0.930 . S
C430 C431 1.367 . S
C430 C438 1.378 . S
C431 C430 1.367 . S
C431 C439 1.433 . S
C432 H428 0.929 . S
C432 C434 1.378 . S
C432 C436 1.350 1_545 S
C433 C436 1.463 . S
C433 C438 1.350 . S
C433 N441 1.427 . S
C434 H425 0.930 . S
C434 C432 1.378 . S
C434 C435 1.367 . S
C435 C434 1.367 . S
C435 C437 1.433 . S
C436 C432 1.350 1_565 S
C436 C433 1.463 . S
C436 N440 1.427 . S
C437 H427 0.929 1_545 S
C437 C435 1.433 . S
C437 N440 1.384 1_545 S
C438 H429 0.929 . S
C438 C430 1.378 . S
C438 C433 1.350 . S
C439 H426 0.929 . S
C439 C431 1.433 . S
C439 N441 1.384 . S
N440 C436 1.427 . S
N440 C437 1.384 1_565 S
N441 C433 1.427 . S
N441 C439 1.384 . S
H442 C448 0.930 . S
H443 C452 0.930 . S
H444 C457 0.929 . S
H445 C455 0.929 . S
H446 C450 0.929 . S
H447 C456 0.929 . S
C448 H442 0.930 . S
C448 C449 1.367 . S
C448 C456 1.378 . S
C449 C448 1.367 . S
C449 C457 1.433 . S
C450 H446 0.929 . S
C450 C452 1.378 . S
C450 C454 1.350 . S
C451 C454 1.463 . S
C451 C456 1.350 . S
C451 N459 1.427 . S
C452 H443 0.930 . S
C452 C450 1.378 . S
C452 C453 1.367 . S
C453 C452 1.367 . S
C453 C455 1.433 . S
C454 C450 1.350 . S
C454 C451 1.463 . S
C454 N458 1.427 . S
C455 H445 0.929 . S
C455 C453 1.433 . S
C455 N458 1.384 . S
C456 H447 0.929 . S
C456 C448 1.378 . S
C456 C451 1.350 . S
C457 H444 0.929 . S
C457 C449 1.433 . S
C457 N459 1.384 . S
N458 C454 1.427 . S
N458 C455 1.384 . S
N459 C451 1.427 . S
N459 C457 1.384 . S
H460 C466 0.930 . S
H461 C470 0.930 . S
H462 C475 0.929 . S
H463 C473 0.929 . S
H464 C468 0.929 . S
H465 C474 0.929 . S
C466 H460 0.930 . S
C466 C467 1.367 . S
C466 C474 1.378 . S
C467 C466 1.367 . S
C467 C475 1.433 . S
C468 H464 0.929 . S
C468 C470 1.378 . S
C468 C472 1.350 . S
C469 C472 1.463 . S
C469 C474 1.350 . S
C469 N477 1.427 . S
C470 H461 0.930 . S
C470 C468 1.378 . S
C470 C471 1.367 . S
C471 C470 1.367 . S
C471 C473 1.433 . S
C472 C468 1.350 . S
C472 C469 1.463 . S
C472 N476 1.427 . S
C473 H463 0.929 . S
C473 C471 1.433 . S
C473 N476 1.384 . S
C474 H465 0.929 . S
C474 C466 1.378 . S
C474 C469 1.350 . S
C475 H462 0.929 . S
C475 C467 1.433 . S
C475 N477 1.384 . S
N476 C472 1.427 . S
N476 C473 1.384 . S
N477 C469 1.427 . S
N477 C475 1.384 . S
H478 C484 0.930 . S
H479 C488 0.930 . S
H480 C493 0.929 . S
H481 C491 0.929 . S
H482 C486 0.929 . S
H483 C492 0.929 . S
C484 H478 0.930 . S
C484 C485 1.367 . S
C484 C492 1.378 . S
C485 C484 1.367 . S
C485 C493 1.433 . S
C486 H482 0.929 . S
C486 C488 1.378 . S
C486 C490 1.350 1_545 S
C487 C490 1.463 . S
C487 C492 1.350 . S
C487 N495 1.427 . S
C488 H479 0.930 . S
C488 C486 1.378 . S
C488 C489 1.367 . S
C489 C488 1.367 . S
C489 C491 1.433 . S
C490 C486 1.350 1_565 S
C490 C487 1.463 . S
C490 N494 1.427 . S
C491 H481 0.929 . S
C491 C489 1.433 . S
C491 N494 1.384 1_545 S
C492 H483 0.929 . S
C492 C484 1.378 . S
C492 C487 1.350 . S
C493 H480 0.929 . S
C493 C485 1.433 . S
C493 N495 1.384 . S
N494 C490 1.427 . S
N494 C491 1.384 1_565 S
N495 C487 1.427 . S
N495 C493 1.384 . S
H496 C502 0.930 . S
H497 C506 0.930 . S
H498 C511 0.929 . S
H499 C509 0.929 . S
H500 C504 0.929 1_545 S
H501 C510 0.929 . S
C502 H496 0.930 . S
C502 C503 1.367 . S
C502 C510 1.378 . S
C503 C502 1.367 . S
C503 C511 1.433 . S
C504 H500 0.929 1_565 S
C504 C506 1.378 . S
C504 C508 1.350 1_565 S
C505 C508 1.463 . S
C505 C510 1.350 . S
C505 N513 1.427 . S
C506 H497 0.930 . S
C506 C504 1.378 . S
C506 C507 1.367 . S
C507 C506 1.367 . S
C507 C509 1.433 . S
C508 C504 1.350 1_545 S
C508 C505 1.463 . S
C508 N512 1.427 . S
C509 H499 0.929 . S
C509 C507 1.433 . S
C509 N512 1.384 1_565 S
C510 H501 0.929 . S
C510 C502 1.378 . S
C510 C505 1.350 . S
C511 H498 0.929 . S
C511 C503 1.433 . S
C511 N513 1.384 . S
N512 C508 1.427 . S
N512 C509 1.384 1_545 S
N513 C505 1.427 . S
N513 C511 1.384 . S
H514 C520 0.930 . S
H515 C524 0.930 . S
H516 C529 0.929 . S
H517 C527 0.929 . S
H518 C522 0.929 . S
H519 C528 0.929 . S
C520 H514 0.930 . S
C520 C521 1.367 . S
C520 C528 1.378 . S
C521 C520 1.367 . S
C521 C529 1.433 . S
C522 H518 0.929 . S
C522 C524 1.378 . S
C522 C526 1.350 . S
C523 C526 1.463 . S
C523 C528 1.350 . S
C523 N531 1.427 . S
C524 H515 0.930 . S
C524 C522 1.378 . S
C524 C525 1.367 . S
C525 C524 1.367 . S
C525 C527 1.433 . S
C526 C522 1.350 . S
C526 C523 1.463 . S
C526 N530 1.427 . S
C527 H517 0.929 . S
C527 C525 1.433 . S
C527 N530 1.384 . S
C528 H519 0.929 . S
C528 C520 1.378 . S
C528 C523 1.350 . S
C529 H516 0.929 . S
C529 C521 1.433 . S
C529 N531 1.384 . S
N530 C526 1.427 . S
N530 C527 1.384 . S
N531 C523 1.427 . S
N531 C529 1.384 . S
H532 C538 0.930 . S
H533 C542 0.930 . S
H534 C547 0.929 . S
H535 C545 0.929 . S
H536 C540 0.929 . S
H537 C546 0.929 . S
C538 H532 0.930 . S
C538 C539 1.367 . S
C538 C546 1.378 . S
C539 C538 1.367 . S
C539 C547 1.433 . S
C540 H536 0.929 . S
C540 C542 1.378 . S
C540 C544 1.350 . S
C541 C544 1.463 . S
C541 C546 1.350 . S
C541 N549 1.427 . S
C542 H533 0.930 . S
C542 C540 1.378 . S
C542 C543 1.367 . S
C543 C542 1.367 . S
C543 C545 1.433 . S
C544 C540 1.350 . S
C544 C541 1.463 . S
C544 N548 1.427 . S
C545 H535 0.929 . S
C545 C543 1.433 . S
C545 N548 1.384 . S
C546 H537 0.929 . S
C546 C538 1.378 . S
C546 C541 1.350 . S
C547 H534 0.929 . S
C547 C539 1.433 . S
C547 N549 1.384 . S
N548 C544 1.427 . S
N548 C545 1.384 . S
N549 C541 1.427 . S
N549 C547 1.384 . S
H550 C556 0.930 . S
H551 C560 0.930 . S
H552 C565 0.929 . S
H553 C563 0.929 . S
H554 C558 0.929 . S
H555 C564 0.929 . S
C556 H550 0.930 . S
C556 C557 1.367 . S
C556 C564 1.378 . S
C557 C556 1.367 . S
C557 C565 1.433 . S
C558 H554 0.929 . S
C558 C560 1.378 . S
C558 C562 1.350 1_565 S
C559 C562 1.463 . S
C559 C564 1.350 . S
C559 N567 1.427 . S
C560 H551 0.930 . S
C560 C558 1.378 . S
C560 C561 1.367 . S
C561 C560 1.367 . S
C561 C563 1.433 . S
C562 C558 1.350 1_545 S
C562 C559 1.463 . S
C562 N566 1.427 . S
C563 H553 0.929 . S
C563 C561 1.433 . S
C563 N566 1.384 1_565 S
C564 H555 0.929 . S
C564 C556 1.378 . S
C564 C559 1.350 . S
C565 H552 0.929 . S
C565 C557 1.433 . S
C565 N567 1.384 . S
N566 C562 1.427 . S
N566 C563 1.384 1_545 S
N567 C559 1.427 . S
N567 C565 1.384 . S
H568 C574 0.930 . S
H569 C578 0.930 . S
H570 C583 0.929 . S
H571 C581 0.929 . S
H572 C576 0.929 . S
H573 C582 0.929 1_554 S
C574 H568 0.930 . S
C574 C575 1.367 . S
C574 C582 1.378 . S
C575 C574 1.367 . S
C575 C583 1.433 . S
C576 H572 0.929 . S
C576 C578 1.378 . S
C576 C580 1.350 . S
C577 C580 1.463 . S
C577 C582 1.350 1_554 S
C577 N585 1.421 1_554 S
C578 H569 0.930 . S
C578 C576 1.378 . S
C578 C579 1.367 . S
C579 C578 1.367 . S
C579 C581 1.433 . S
C580 C576 1.350 . S
C580 C577 1.463 . S
C580 N584 1.427 . S
C581 H571 0.929 . S
C581 C579 1.433 . S
C581 N584 1.384 . S
C582 H573 0.929 1_556 S
C582 C574 1.378 . S
C582 C577 1.350 1_556 S
C583 H570 0.929 . S
C583 C575 1.433 . S
C583 N585 1.399 . S
N584 C580 1.427 . S
N584 C581 1.384 . S
N585 C577 1.421 1_556 S
N585 C583 1.399 . S
H586 C592 0.930 . S
H587 C596 0.930 . S
H588 C601 0.929 . S
H589 C599 0.929 . S
H590 C594 0.929 . S
H591 C600 0.929 . S
C592 H586 0.930 . S
C592 C593 1.367 . S
C592 C600 1.378 . S
C593 C592 1.367 . S
C593 C601 1.433 . S
C594 H590 0.929 . S
C594 C596 1.378 . S
C594 C598 1.350 . S
C595 C598 1.463 . S
C595 C600 1.350 . S
C595 N603 1.427 . S
C596 H587 0.930 . S
C596 C594 1.378 . S
C596 C597 1.367 . S
C597 C596 1.367 . S
C597 C599 1.433 . S
C598 C594 1.350 . S
C598 C595 1.463 . S
C598 N602 1.427 . S
C599 H589 0.929 . S
C599 C597 1.433 . S
C599 N602 1.384 . S
C600 H591 0.929 . S
C600 C592 1.378 . S
C600 C595 1.350 . S
C601 H588 0.929 . S
C601 C593 1.433 . S
C601 N603 1.384 . S
N602 C598 1.427 . S
N602 C599 1.384 . S
N603 C595 1.427 . S
N603 C601 1.384 . S
H604 C610 0.930 . S
H605 C614 0.930 . S
H606 C619 0.929 . S
H607 C617 0.929 . S
H608 C612 0.929 . S
H609 C618 0.929 1_556 S
C610 H604 0.930 . S
C610 C611 1.367 . S
C610 C618 1.378 . S
C611 C610 1.367 . S
C611 C619 1.433 . S
C612 H608 0.929 . S
C612 C614 1.378 . S
C612 C616 1.350 . S
C613 C616 1.463 . S
C613 C618 1.350 1_556 S
C613 N621 1.427 1_556 S
C614 H605 0.930 . S
C614 C612 1.378 . S
C614 C615 1.367 . S
C615 C614 1.367 . S
C615 C617 1.433 . S
C616 C612 1.350 . S
C616 C613 1.463 . S
C616 N620 1.427 . S
C617 H607 0.929 . S
C617 C615 1.433 . S
C617 N620 1.384 . S
C618 H609 0.929 1_554 S
C618 C610 1.378 . S
C618 C613 1.350 1_554 S
C619 H606 0.929 . S
C619 C611 1.433 . S
C619 N621 1.384 . S
N620 C616 1.427 . S
N620 C617 1.384 . S
N621 C613 1.427 1_554 S
N621 C619 1.384 . S
H622 C628 0.930 . S
H623 C632 0.930 . S
H624 C637 0.929 . S
H625 C635 0.929 . S
H626 C630 0.929 . S
H627 C636 0.929 . S
C628 H622 0.930 . S
C628 C629 1.367 . S
C628 C636 1.378 . S
C629 C628 1.367 . S
C629 C637 1.433 . S
C630 H626 0.929 . S
C630 C632 1.378 . S
C630 C634 1.350 . S
C631 C634 1.463 . S
C631 C636 1.350 . S
C631 N639 1.427 . S
C632 H623 0.930 . S
C632 C630 1.378 . S
C632 C633 1.367 . S
C633 C632 1.367 . S
C633 C635 1.433 . S
C634 C630 1.350 . S
C634 C631 1.463 . S
C634 N638 1.427 . S
C635 H625 0.929 . S
C635 C633 1.433 . S
C635 N638 1.384 . S
C636 H627 0.929 . S
C636 C628 1.378 . S
C636 C631 1.350 . S
C637 H624 0.929 . S
C637 C629 1.433 . S
C637 N639 1.384 . S
N638 C634 1.427 . S
N638 C635 1.384 . S
N639 C631 1.427 . S
N639 C637 1.384 . S
H640 C646 0.930 . S
H641 C650 0.930 . S
H642 C655 0.929 . S
H643 C653 0.929 . S
H644 C648 0.929 . S
H645 C654 0.929 1_556 S
C646 H640 0.930 . S
C646 C647 1.367 . S
C646 C654 1.378 . S
C647 C646 1.367 . S
C647 C655 1.433 . S
C648 H644 0.929 . S
C648 C650 1.378 . S
C648 C652 1.350 . S
C649 C652 1.463 . S
C649 C654 1.350 1_556 S
C649 N657 1.427 1_556 S
C650 H641 0.930 . S
C650 C648 1.378 . S
C650 C651 1.367 . S
C651 C650 1.367 . S
C651 C653 1.433 . S
C652 C648 1.350 . S
C652 C649 1.463 . S
C652 N656 1.427 . S
C653 H643 0.929 . S
C653 C651 1.433 . S
C653 N656 1.384 . S
C654 H645 0.929 1_554 S
C654 C646 1.378 . S
C654 C649 1.350 1_554 S
C655 H642 0.929 . S
C655 C647 1.433 . S
C655 N657 1.384 . S
N656 C652 1.427 . S
N656 C653 1.384 . S
N657 C649 1.427 1_554 S
N657 C655 1.384 . S
H658 C664 0.930 . S
H659 C668 0.930 . S
H660 C673 0.929 . S
H661 C671 0.929 . S
H662 C666 0.929 . S
H663 C672 0.929 . S
C664 H658 0.930 . S
C664 C665 1.367 . S
C664 C672 1.378 . S
C665 C664 1.367 . S
C665 C673 1.433 . S
C666 H662 0.929 . S
C666 C668 1.378 . S
C666 C670 1.350 . S
C667 C670 1.463 . S
C667 C672 1.350 . S
C667 N675 1.427 . S
C668 H659 0.930 . S
C668 C666 1.378 . S
C668 C669 1.367 . S
C669 C668 1.367 . S
C669 C671 1.433 . S
C670 C666 1.350 . S
C670 C667 1.463 . S
C670 N674 1.427 . S
C671 H661 0.929 . S
C671 C669 1.433 . S
C671 N674 1.384 . S
C672 H663 0.929 . S
C672 C664 1.378 . S
C672 C667 1.350 . S
C673 H660 0.929 . S
C673 C665 1.433 . S
C673 N675 1.384 . S
N674 C670 1.427 . S
N674 C671 1.384 . S
N675 C667 1.427 . S
N675 C673 1.384 . S
H676 C682 0.930 . S
H677 C686 0.930 . S
H678 C691 0.929 . S
H679 C689 0.929 . S
H680 C684 0.929 . S
H681 C690 0.929 . S
C682 H676 0.930 . S
C682 C683 1.367 . S
C682 C690 1.378 . S
C683 C682 1.367 . S
C683 C691 1.433 . S
C684 H680 0.929 . S
C684 C686 1.378 . S
C684 C688 1.350 . S
C685 C688 1.463 . S
C685 C690 1.350 1_554 S
C685 N693 1.429 . S
C686 H677 0.930 . S
C686 C684 1.378 . S
C686 C687 1.367 . S
C687 C686 1.367 . S
C687 C689 1.433 . S
C688 C684 1.350 . S
C688 C685 1.463 . S
C688 N692 1.427 . S
C689 H679 0.929 . S
C689 C687 1.433 . S
C689 N692 1.384 . S
C690 H681 0.929 . S
C690 C682 1.378 . S
C690 C685 1.350 1_556 S
C691 H678 0.929 . S
C691 C683 1.433 . S
C691 N693 1.370 1_556 S
N692 C688 1.427 . S
N692 C689 1.384 . S
N693 C685 1.429 . S
N693 C691 1.370 1_554 S
H694 C700 0.930 . S
H695 C704 0.930 . S
H696 C709 0.929 . S
H697 C707 0.929 . S
H698 C702 0.929 . S
H699 C708 0.929 . S
C700 H694 0.930 . S
C700 C701 1.367 . S
C700 C708 1.378 . S
C701 C700 1.367 . S
C701 C709 1.433 . S
C702 H698 0.929 . S
C702 C704 1.378 . S
C702 C706 1.350 . S
C703 C706 1.463 . S
C703 C708 1.350 . S
C703 N711 1.427 . S
C704 H695 0.930 . S
C704 C702 1.378 . S
C704 C705 1.367 . S
C705 C704 1.367 . S
C705 C707 1.433 . S
C706 C702 1.350 . S
C706 C703 1.463 . S
C706 N710 1.427 . S
C707 H697 0.929 . S
C707 C705 1.433 . S
C707 N710 1.384 . S
C708 H699 0.929 . S
C708 C700 1.378 . S
C708 C703 1.350 . S
C709 H696 0.929 . S
C709 C701 1.433 . S
C709 N711 1.384 . S
N710 C706 1.427 . S
N710 C707 1.384 . S
N711 C703 1.427 . S
N711 C709 1.384 . S
H712 C718 0.930 . S
H713 C722 0.930 . S
H714 C727 0.929 . S
H715 C725 0.929 . S
H716 C720 0.929 . S
H717 C726 0.929 . S
C718 H712 0.930 . S
C718 C719 1.367 . S
C718 C726 1.378 . S
C719 C718 1.367 . S
C719 C727 1.433 . S
C720 H716 0.929 . S
C720 C722 1.378 . S
C720 C724 1.350 . S
C721 C724 1.463 . S
C721 C726 1.350 . S
C721 N729 1.427 . S
C722 H713 0.930 . S
C722 C720 1.378 . S
C722 C723 1.367 . S
C723 C722 1.367 . S
C723 C725 1.433 . S
C724 C720 1.350 . S
C724 C721 1.463 . S
C724 N728 1.427 . S
C725 H715 0.929 . S
C725 C723 1.433 . S
C725 N728 1.384 . S
C726 H717 0.929 . S
C726 C718 1.378 . S
C726 C721 1.350 . S
C727 H714 0.929 . S
C727 C719 1.433 . S
C727 N729 1.384 . S
N728 C724 1.427 . S
N728 C725 1.384 . S
N729 C721 1.427 . S
N729 C727 1.384 . S
H730 C736 0.930 . S
H731 C740 0.930 . S
H732 C745 0.929 . S
H733 C743 0.929 . S
H734 C738 0.929 . S
H735 C744 0.929 . S
C736 H730 0.930 . S
C736 C737 1.367 . S
C736 C744 1.378 . S
C737 C736 1.367 . S
C737 C745 1.433 . S
C738 H734 0.929 . S
C738 C740 1.378 . S
C738 C742 1.350 . S
C739 C742 1.463 . S
C739 C744 1.350 . S
C739 N747 1.427 . S
C740 H731 0.930 . S
C740 C738 1.378 . S
C740 C741 1.367 . S
C741 C740 1.367 . S
C741 C743 1.433 . S
C742 C738 1.350 . S
C742 C739 1.463 . S
C742 N746 1.427 . S
C743 H733 0.929 . S
C743 C741 1.433 . S
C743 N746 1.384 . S
C744 H735 0.929 . S
C744 C736 1.378 . S
C744 C739 1.350 . S
C745 H732 0.929 . S
C745 C737 1.433 . S
C745 N747 1.384 . S
N746 C742 1.427 . S
N746 C743 1.384 . S
N747 C739 1.427 . S
N747 C745 1.384 . S
H748 C754 0.930 . S
H749 C758 0.930 . S
H750 C763 0.929 . S
H751 C761 0.929 . S
H752 C756 0.929 . S
H753 C762 0.929 . S
C754 H748 0.930 . S
C754 C755 1.367 . S
C754 C762 1.378 . S
C755 C754 1.367 . S
C755 C763 1.433 . S
C756 H752 0.929 . S
C756 C758 1.378 . S
C756 C760 1.350 . S
C757 C760 1.463 . S
C757 C762 1.350 . S
C757 N765 1.427 . S
C758 H749 0.930 . S
C758 C756 1.378 . S
C758 C759 1.367 . S
C759 C758 1.367 . S
C759 C761 1.433 . S
C760 C756 1.350 . S
C760 C757 1.463 . S
C760 N764 1.427 . S
C761 H751 0.929 . S
C761 C759 1.433 . S
C761 N764 1.384 . S
C762 H753 0.929 . S
C762 C754 1.378 . S
C762 C757 1.350 . S
C763 H750 0.929 . S
C763 C755 1.433 . S
C763 N765 1.384 . S
N764 C760 1.427 . S
N764 C761 1.384 . S
N765 C757 1.427 . S
N765 C763 1.384 . S
H766 C772 0.930 . S
H767 C776 0.930 . S
H768 C781 0.929 . S
H769 C779 0.929 . S
H770 C774 0.929 . S
H771 C780 0.929 . S
C772 H766 0.930 . S
C772 C773 1.367 . S
C772 C780 1.378 . S
C773 C772 1.367 . S
C773 C781 1.433 . S
C774 H770 0.929 . S
C774 C776 1.378 . S
C774 C778 1.350 . S
C775 C778 1.463 . S
C775 C780 1.350 . S
C775 N783 1.427 . S
C776 H767 0.930 . S
C776 C774 1.378 . S
C776 C777 1.367 . S
C777 C776 1.367 . S
C777 C779 1.433 . S
C778 C774 1.350 . S
C778 C775 1.463 . S
C778 N782 1.427 . S
C779 H769 0.929 . S
C779 C777 1.433 . S
C779 N782 1.384 . S
C780 H771 0.929 . S
C780 C772 1.378 . S
C780 C775 1.350 . S
C781 H768 0.929 . S
C781 C773 1.433 . S
C781 N783 1.384 . S
N782 C778 1.427 . S
N782 C779 1.384 . S
N783 C775 1.427 . S
N783 C781 1.384 . S
H784 C790 0.930 . S
H785 C794 0.930 . S
H786 C799 0.929 . S
H787 C797 0.929 . S
H788 C792 0.929 . S
H789 C798 0.929 . S
C790 H784 0.930 . S
C790 C791 1.367 . S
C790 C798 1.378 . S
C791 C790 1.367 . S
C791 C799 1.433 . S
C792 H788 0.929 . S
C792 C794 1.378 . S
C792 C796 1.350 . S
C793 C796 1.463 . S
C793 C798 1.350 . S
C793 N801 1.427 . S
C794 H785 0.930 . S
C794 C792 1.378 . S
C794 C795 1.367 . S
C795 C794 1.367 . S
C795 C797 1.433 . S
C796 C792 1.350 . S
C796 C793 1.463 . S
C796 N800 1.427 . S
C797 H787 0.929 . S
C797 C795 1.433 . S
C797 N800 1.384 . S
C798 H789 0.929 . S
C798 C790 1.378 . S
C798 C793 1.350 . S
C799 H786 0.929 . S
C799 C791 1.433 . S
C799 N801 1.384 . S
N800 C796 1.427 . S
N800 C797 1.384 . S
N801 C793 1.427 . S
N801 C799 1.384 . S
H802 C808 0.930 . S
H803 C812 0.930 . S
H804 C817 0.929 . S
H805 C815 0.929 . S
H806 C810 0.929 . S
H807 C816 0.929 . S
C808 H802 0.930 . S
C808 C809 1.367 . S
C808 C816 1.378 . S
C809 C808 1.367 . S
C809 C817 1.433 . S
C810 H806 0.929 . S
C810 C812 1.378 . S
C810 C814 1.350 . S
C811 C814 1.463 . S
C811 C816 1.350 . S
C811 N819 1.427 . S
C812 H803 0.930 . S
C812 C810 1.378 . S
C812 C813 1.367 . S
C813 C812 1.367 . S
C813 C815 1.433 . S
C814 C810 1.350 . S
C814 C811 1.463 . S
C814 N818 1.427 . S
C815 H805 0.929 . S
C815 C813 1.433 . S
C815 N818 1.384 . S
C816 H807 0.929 . S
C816 C808 1.378 . S
C816 C811 1.350 . S
C817 H804 0.929 . S
C817 C809 1.433 . S
C817 N819 1.384 . S
N818 C814 1.427 . S
N818 C815 1.384 . S
N819 C811 1.427 . S
N819 C817 1.384 . S
H820 C826 0.930 . S
H821 C830 0.930 . S
H822 C835 0.929 . S
H823 C833 0.929 . S
H824 C828 0.929 . S
H825 C834 0.929 . S
C826 H820 0.930 . S
C826 C827 1.367 . S
C826 C834 1.378 . S
C827 C826 1.367 . S
C827 C835 1.433 . S
C828 H824 0.929 . S
C828 C830 1.378 . S
C828 C832 1.350 . S
C829 C832 1.463 . S
C829 C834 1.350 . S
C829 N837 1.427 . S
C830 H821 0.930 . S
C830 C828 1.378 . S
C830 C831 1.367 . S
C831 C830 1.367 . S
C831 C833 1.433 . S
C832 C828 1.350 . S
C832 C829 1.463 . S
C832 N836 1.427 . S
C833 H823 0.929 . S
C833 C831 1.433 . S
C833 N836 1.384 . S
C834 H825 0.929 . S
C834 C826 1.378 . S
C834 C829 1.350 . S
C835 H822 0.929 . S
C835 C827 1.433 . S
C835 N837 1.384 . S
N836 C832 1.427 . S
N836 C833 1.384 . S
N837 C829 1.427 . S
N837 C835 1.384 . S
H838 C844 0.930 . S
H839 C848 0.930 . S
H840 C853 0.929 . S
H841 C851 0.929 . S
H842 C846 0.929 . S
H843 C852 0.929 . S
C844 H838 0.930 . S
C844 C845 1.367 . S
C844 C852 1.378 . S
C845 C844 1.367 . S
C845 C853 1.433 . S
C846 H842 0.929 . S
C846 C848 1.378 . S
C846 C850 1.350 . S
C847 C850 1.463 . S
C847 C852 1.350 . S
C847 N855 1.427 . S
C848 H839 0.930 . S
C848 C846 1.378 . S
C848 C849 1.367 . S
C849 C848 1.367 . S
C849 C851 1.433 . S
C850 C846 1.350 . S
C850 C847 1.463 . S
C850 N854 1.427 . S
C851 H841 0.929 . S
C851 C849 1.433 . S
C851 N854 1.384 . S
C852 H843 0.929 . S
C852 C844 1.378 . S
C852 C847 1.350 . S
C853 H840 0.929 . S
C853 C845 1.433 . S
C853 N855 1.384 . S
N854 C850 1.427 . S
N854 C851 1.384 . S
N855 C847 1.427 . S
N855 C853 1.384 . S
C431 C71 1.666 . S
C435 C144 1.651 . S
C453 C228 1.630 . S
C449 C81 1.636 . S
C471 C227 1.660 . S
C467 C49 1.659 . S
C485 C59 1.633 . S
C489 C143 1.632 . S
C507 C324 1.656 . S
C503 C27 1.667 . S
C525 C408 1.687 . S
C521 C38 1.704 . S
C539 C5 1.658 . S
C543 C407 1.661 . S
C557 C16 1.699 . S
C561 C323 1.700 . S
C579 C146 1.391 . S
C575 C15 1.559 . S
C597 C230 1.405 . S
C593 C4 1.573 . S
C615 C242 1.364 . S
C611 C37 1.569 . S
C633 C158 1.369 . S
C629 C26 1.582 . S
C651 C326 1.457 . S
C647 C60 1.612 . S
C665 C48 1.640 . S
C669 C410 1.478 . S
C687 C398 1.401 . S
C683 C82 1.613 . S
C701 C70 1.643 . S
C705 C314 1.413 . S
C723 C155 1.500 . S
C719 C10 1.487 . S
C741 C239 1.548 . S
C737 C21 1.536 . S
C755 C32 1.488 . S
C759 C240 1.462 . S
C777 C156 1.509 . S
C773 C43 1.536 . S
C795 C311 1.594 . S
C791 C54 1.579 . S
C809 C65 1.545 . S
C813 C395 1.545 . S
C827 C76 1.579 . S
C831 C396 1.561 . S
C845 C87 1.538 . S
C849 C312 1.511 . S
