# Generated by pormake.
# Topology pth, (4,4)-cn, num edge types: 1
# Building blocks:
#     Node 0, Type 0, BuildingBlock: QUQFOY_clean_sbu_1, # of connection points: 4
#     Node 1, Type 0, BuildingBlock: QUQFOY_clean_sbu_1, # of connection points: 4
#     Node 2, Type 0, BuildingBlock: QUQFOY_clean_sbu_1, # of connection points: 4
#     Node 3, Type 1, BuildingBlock: AZAVOO_clean_linker_0, # of connection points: 4
#     Node 4, Type 1, BuildingBlock: AZAVOO_clean_linker_0, # of connection points: 4
#     Node 5, Type 1, BuildingBlock: AZAVOO_clean_linker_0, # of connection points: 4
#     Edge 6, Type (0, 1), BuildingBlock: XIVTED_clean_linker_0, # of connection points: 2
#     Edge 7, Type (0, 1), BuildingBlock: XIVTED_clean_linker_0, # of connection points: 2
#     Edge 8, Type (0, 1), BuildingBlock: XIVTED_clean_linker_0, # of connection points: 2
#     Edge 9, Type (0, 1), BuildingBlock: XIVTED_clean_linker_0, # of connection points: 2
#     Edge 10, Type (0, 1), BuildingBlock: XIVTED_clean_linker_0, # of connection points: 2
#     Edge 11, Type (0, 1), BuildingBlock: XIVTED_clean_linker_0, # of connection points: 2
#     Edge 12, Type (0, 1), BuildingBlock: XIVTED_clean_linker_0, # of connection points: 2
#     Edge 13, Type (0, 1), BuildingBlock: XIVTED_clean_linker_0, # of connection points: 2
#     Edge 14, Type (0, 1), BuildingBlock: XIVTED_clean_linker_0, # of connection points: 2
#     Edge 15, Type (0, 1), BuildingBlock: XIVTED_clean_linker_0, # of connection points: 2
#     Edge 16, Type (0, 1), BuildingBlock: XIVTED_clean_linker_0, # of connection points: 2
#     Edge 17, Type (0, 1), BuildingBlock: XIVTED_clean_linker_0, # of connection points: 2
# Relax obj value: 0.116
# Max RMSD: 0.231
# Mean RMSD: 0.168
data_MOF--net-pth--node1-QUQFOY_clean_sbu_1--node2-AZAVOO_clean_linker_0--edge1-XIVTED_clean_linker_0
_symmetry_space_group_name_H-M    P1
_symmetry_Int_Tables_number       1
_symmetry_cell_setting            triclinic
loop_
_symmetry_equiv_pos_as_xyz
'x, y, z'
_cell_length_a     25.274213
_cell_length_b     28.060019
_cell_length_c     73.645604
_cell_angle_alpha  92.564552
_cell_angle_beta   88.726445
_cell_angle_gamma 120.50743
loop_
_atom_site_label
_atom_site_type_symbol
_atom_site_fract_x
_atom_site_fract_y
_atom_site_fract_z
_atom_type_partial_charge
O0 O 0.15877 0.15287 0.08652 0.0
Cd1 Cd 0.07742 0.0868 0.09533 0.0
Cd2 Cd 0.14091 0.03619 0.08907 0.0
O3 O 0.21506 0.11328 0.08489 0.0
O4 O 0.03042 0.12182 0.10487 0.0
O5 O 0.06125 0.07842 0.12228 0.0
C6 C 0.03406 0.10648 0.12079 0.0
C7 C 0.13655 0.98079 0.11206 0.0
C8 C 0.21002 0.15575 0.08349 0.0
C9 C 0.03308 8e-05 0.06518 0.0
O10 O 0.08185 0.99863 0.06753 0.0
O11 O 0.02006 0.02966 0.07579 0.0
O12 O 0.16721 0.98496 0.09735 0.0
O13 O 0.11006 0.00983 0.11389 0.0
O14 O 0.01227 0.08795 0.43495 0.0
Cd15 Cd 0.0698 0.09879 0.41332 0.0
Cd16 Cd 0.02308 0.98868 0.4165 0.0
O17 O 0.96616 0.99688 0.43522 0.0
O18 O 0.09247 0.17144 0.40338 0.0
O19 O 0.03752 0.09165 0.388 0.0
C20 C 0.06265 0.1449 0.38886 0.0
C21 C 0.98572 0.91256 0.39617 0.0
C22 C 0.97236 0.04233 0.44155 0.0
C23 C 0.15758 0.06499 0.42468 0.0
O24 O 0.11124 0.01638 0.42488 0.0
O25 O 0.15221 0.10488 0.41949 0.0
O26 O 0.98844 0.90743 0.41335 0.0
O27 O 0.00133 0.96094 0.39052 0.0
O28 O 0.96776 0.02929 0.73961 0.0
Cd29 Cd 0.02348 0.01708 0.75651 0.0
Cd30 Cd 0.08667 0.12967 0.75805 0.0
O31 O 0.0122 0.11986 0.74394 0.0
O32 O 0.97204 0.94008 0.7646 0.0
O33 O 0.00621 0.01379 0.78331 0.0
C34 C 0.97396 0.96063 0.78076 0.0
C35 C 0.13376 0.2002 0.78036 0.0
C36 C 0.96987 0.07461 0.73686 0.0
C37 C 0.14849 0.0702 0.74085 0.0
O38 O 0.14824 0.11494 0.74396 0.0
O39 O 0.10339 0.02446 0.74574 0.0
O40 O 0.13782 0.21063 0.76337 0.0
O41 O 0.09991 0.14936 0.78488 0.0
H42 H 0.94085 0.42032 0.13234 0.0
H43 H 0.09077 0.86392 0.28347 0.0
H44 H 0.88075 0.37878 0.2322 0.0
H45 H 0.86957 0.29576 0.21637 0.0
H46 H 0.06027 0.35226 0.22744 0.0
H47 H 0.07002 0.43411 0.24388 0.0
H48 H 0.90372 0.47911 0.20684 0.0
H49 H 0.90255 0.45283 0.17463 0.0
H50 H 0.08152 0.47043 0.18073 0.0
H51 H 0.08233 0.49726 0.21285 0.0
H52 H 0.92456 0.59141 0.22542 0.0
H53 H 0.94882 0.66474 0.20426 0.0
H54 H 0.13114 0.68914 0.19707 0.0
H55 H 0.10597 0.61529 0.218 0.0
H56 H 0.91016 0.59199 0.26715 0.0
H57 H 0.92222 0.68105 0.27756 0.0
H58 H 0.11685 0.76085 0.26627 0.0
H59 H 0.1042 0.67135 0.25613 0.0
H60 H 0.89266 0.50051 0.29039 0.0
H61 H 0.88562 0.55485 0.3163 0.0
H62 H 0.08282 0.66132 0.31582 0.0
H63 H 0.08937 0.60697 0.28993 0.0
H64 H 0.89948 0.3756 0.27135 0.0
H65 H 0.90954 0.31332 0.29121 0.0
H66 H 0.0879 0.44776 0.30856 0.0
H67 H 0.07964 0.50767 0.2874 0.0
O68 O 0.94238 0.43107 0.14508 0.0
O69 O 0.03414 0.4402 0.14898 0.0
O70 O 0.98432 0.7852 0.28492 0.0
O71 O 0.08456 0.82831 0.2792 0.0
C72 C 0.98557 0.46715 0.24511 0.0
C73 C 0.99291 0.50475 0.23174 0.0
C74 C 0.00075 0.5568 0.23698 0.0
C75 C -0.00068 0.57073 0.25551 0.0
C76 C 0.99306 0.53363 0.26894 0.0
C77 C 0.98746 0.48211 0.2638 0.0
C78 C 0.97621 0.41235 0.23908 0.0
C79 C 0.91949 0.37224 0.23166 0.0
C80 C 0.91343 0.32516 0.22249 0.0
C81 C 0.96433 0.31782 0.22034 0.0
C82 C 0.02001 0.35632 0.22895 0.0
C83 C 0.02582 0.40322 0.2383 0.0
C84 C 0.99292 0.48975 0.21215 0.0
C85 C 0.94267 0.47742 0.20115 0.0
C86 C 0.9421 0.46233 0.18278 0.0
C87 C 0.99187 0.45936 0.17511 0.0
C88 C 0.04238 0.47216 0.18621 0.0
C89 C 0.04292 0.48737 0.20455 0.0
C90 C 0.01348 0.59809 0.22315 0.0
C91 C 0.96948 0.61237 0.21912 0.0
C92 C 0.98362 0.65449 0.20716 0.0
C93 C 0.04203 0.68295 0.19904 0.0
C94 C 0.08553 0.66762 0.2029 0.0
C95 C 0.07132 0.62554 0.21485 0.0
C96 C 0.00632 0.62531 0.26095 0.0
C97 C 0.9553 0.6288 0.26691 0.0
C98 C 0.96233 0.6797 0.27283 0.0
C99 C 0.02055 0.7281 0.27275 0.0
C100 C 0.07142 0.72443 0.26651 0.0
C101 C 0.06433 0.67345 0.26066 0.0
C102 C 0.99146 0.55005 0.28825 0.0
C103 C 0.93454 0.53372 0.29651 0.0
C104 C 0.93057 0.56508 0.31121 0.0
C105 C 0.98358 0.61304 0.31773 0.0
C106 C 0.04117 0.6251 0.31082 0.0
C107 C 0.0451 0.59366 0.29622 0.0
C108 C 0.98901 0.44618 0.27777 0.0
C109 C 0.94078 0.39142 0.27941 0.0
C110 C 0.94644 0.35598 0.29096 0.0
C111 C -3e-05 0.37499 0.30143 0.0
C112 C 0.04675 0.43083 0.30037 0.0
C113 C 0.04164 0.4657 0.28852 0.0
C114 C 0.99098 0.44301 0.15562 0.0
C115 C 0.02844 0.78213 0.27931 0.0
H116 H 0.66377 0.01333 0.47068 0.0
H117 H 0.2773 0.18005 0.59623 0.0
H118 H 0.60161 0.97496 0.56701 0.0
H119 H 0.68001 0.9689 0.54903 0.0
H120 H 0.8103 0.14 0.56371 0.0
H121 H 0.73027 0.14597 0.5812 0.0
H122 H 0.52866 0.99197 0.53829 0.0
H123 H 0.57019 0.98582 0.50848 0.0
H124 H 0.72331 0.15228 0.51733 0.0
H125 H 0.6809 0.15799 0.54701 0.0
H126 H 0.41905 0.00761 0.55214 0.0
H127 H 0.3712 0.01107 0.52411 0.0
H128 H 0.52323 0.17627 0.51582 0.0
H129 H 0.57023 0.17269 0.54414 0.0
H130 H 0.38975 0.00989 0.59216 0.0
H131 H 0.30301 0.02463 0.5974 0.0
H132 H 0.42083 0.19806 0.5866 0.0
H133 H 0.50724 0.18273 0.58155 0.0
H134 H 0.45718 0.99218 0.61809 0.0
H135 H 0.40411 0.99278 0.64613 0.0
H136 H 0.5129 0.17182 0.64938 0.0
H137 H 0.56198 0.17038 0.62061 0.0
H138 H 0.596 0.98583 0.60736 0.0
H139 H 0.65638 0.98461 0.63267 0.0
H140 H 0.71411 0.15571 0.64643 0.0
H141 H 0.6568 0.15722 0.62049 0.0
O142 O 0.64724 0.01717 0.48227 0.0
O143 O 0.72553 0.10251 0.48766 0.0
O144 O 0.25213 0.08355 0.59964 0.0
O145 O 0.31074 0.17302 0.59419 0.0
C146 C 0.60832 0.07061 0.57855 0.0
C147 C 0.57936 0.07724 0.56346 0.0
C148 C 0.52909 0.08529 0.5661 0.0
C149 C 0.50747 0.08657 0.58381 0.0
C150 C 0.53699 0.08073 0.59891 0.0
C151 C 0.58805 0.0735 0.59632 0.0
C152 C 0.66018 0.06109 0.57513 0.0
C153 C 0.64792 0.01029 0.56707 0.0
C154 C 0.69292 0.00702 0.55674 0.0
C155 C 0.75096 0.05449 0.55452 0.0
C156 C 0.76548 0.10314 0.56479 0.0
C157 C 0.72019 0.10645 0.57503 0.0
C158 C 0.6019 0.07534 0.54478 0.0
C159 C 0.57076 0.02725 0.53365 0.0
C160 C 0.59477 0.02378 0.51668 0.0
C161 C 0.65031 0.06844 0.51058 0.0
C162 C 0.68058 0.11706 0.52164 0.0
C163 C 0.65644 0.12049 0.53857 0.0
C164 C 0.4978 0.08995 0.55013 0.0
C165 C 0.44149 0.04477 0.54438 0.0
C166 C 0.41473 0.04661 0.52828 0.0
C167 C 0.44393 0.09371 0.51766 0.0
C168 C 0.49965 0.13955 0.52375 0.0
C169 C 0.52648 0.1376 0.53987 0.0
C170 C 0.45466 0.09531 0.58658 0.0
C171 C 0.39667 0.05103 0.59099 0.0
C172 C 0.34725 0.05956 0.59394 0.0
C173 C 0.35502 0.11258 0.59245 0.0
C174 C 0.41326 0.15675 0.58788 0.0
C175 C 0.46265 0.14814 0.58496 0.0
C176 C 0.5131 0.08121 0.61738 0.0
C177 C 0.46995 0.03137 0.62507 0.0
C178 C 0.43998 0.0319 0.64117 0.0
C179 C 0.45354 0.08242 0.65001 0.0
C180 C 0.49992 0.13217 0.64275 0.0
C181 C 0.52871 0.13155 0.62644 0.0
C182 C 0.62189 0.07154 0.61216 0.0
C183 C 0.62184 0.02296 0.61587 0.0
C184 C 0.65593 0.02227 0.63044 0.0
C185 C 0.69025 0.07011 0.64163 0.0
C186 C 0.68915 0.11839 0.63796 0.0
C187 C 0.65575 0.11918 0.62328 0.0
C188 C 0.67677 0.06398 0.49282 0.0
C189 C 0.30274 0.12194 0.59565 0.0
H190 H 0.67948 0.74998 0.04483 0.0
H191 H 0.28607 0.22081 0.91805 0.0
H192 H 0.60771 0.72623 0.94731 0.0
H193 H 0.68846 0.80795 0.96354 0.0
H194 H 0.81193 0.74488 0.95466 0.0
H195 H 0.73161 0.66478 0.93781 0.0
H196 H 0.53896 0.64468 0.97822 0.0
H197 H 0.58324 0.69087 0.0076 0.0
H198 H 0.72917 0.65427 -0.00048 0.0
H199 H 0.68411 0.60794 0.97024 0.0
H200 H 0.42574 0.51341 0.96801 0.0
H201 H 0.38433 0.45659 0.99465 0.0
H202 H 0.54796 0.44455 -0.00275 0.0
H203 H 0.58764 0.49952 0.97015 0.0
H204 H 0.38894 0.49123 0.92983 0.0
H205 H 0.30354 0.39672 0.92419 0.0
H206 H 0.42948 0.33555 0.92661 0.0
H207 H 0.51452 0.4304 0.93204 0.0
H208 H 0.44863 0.57492 0.90453 0.0
H209 H 0.3796 0.52206 0.87909 0.0
H210 H 0.4839 0.44109 0.86772 0.0
H211 H 0.5516 0.49272 0.8936 0.0
H212 H 0.59326 0.70672 0.91005 0.0
H213 H 0.65696 0.76628 0.88568 0.0
H214 H 0.71939 0.65138 0.8721 0.0
H215 H 0.65548 0.59226 0.89635 0.0
O216 O 0.66174 0.73011 0.03343 0.0
O217 O 0.73552 0.70994 0.02868 0.0
O218 O 0.25613 0.29212 0.91915 0.0
O219 O 0.31888 0.25851 0.9204 0.0
C220 C 0.61098 0.63316 0.93844 0.0
C221 C 0.58456 0.59992 0.95364 0.0
C222 C 0.53497 0.54547 0.95126 0.0
C223 C 0.5099 0.52497 0.93381 0.0
C224 C 0.53556 0.55865 0.91864 0.0
C225 C 0.58731 0.61229 0.92087 0.0
C226 C 0.66394 0.68967 0.94153 0.0
C227 C 0.65323 0.73167 0.94807 0.0
C228 C 0.69913 0.77781 0.9576 0.0
C229 C 0.75604 0.7821 0.96089 0.0
C230 C 0.76875 0.74305 0.95239 0.0
C231 C 0.72296 0.69722 0.94267 0.0
C232 C 0.6084 0.62309 0.97216 0.0
C233 C 0.58005 0.64612 0.98295 0.0
C234 C 0.60562 0.6727 -0.00033 0.0
C235 C 0.65995 0.67653 0.00587 0.0
C236 C 0.6874 0.65218 0.99514 0.0
C237 C 0.66171 0.62556 0.97845 0.0
C238 C 0.50942 0.51023 0.96717 0.0
C239 C 0.45228 0.49807 0.97429 0.0
C240 C 0.42915 0.46623 0.98963 0.0
C241 C 0.46306 0.44633 -0.00184 0.0
C242 C 0.52045 0.45876 0.99092 0.0
C243 C 0.54332 0.49033 0.97552 0.0
C244 C 0.45776 0.46748 0.93126 0.0
C245 C 0.39789 0.4573 0.92914 0.0
C246 C 0.34925 0.40332 0.92593 0.0
C247 C 0.35971 0.35856 0.92491 0.0
C248 C 0.41982 0.36903 0.92729 0.0
C249 C 0.46844 0.42308 0.93044 0.0
C250 C 0.50526 0.53787 0.90075 0.0
C251 C 0.45766 0.54702 0.8962 0.0
C252 C 0.41807 0.51657 0.88183 0.0
C253 C 0.42657 0.47757 0.87161 0.0
C254 C 0.47686 0.47127 0.87539 0.0
C255 C 0.51566 0.50087 0.89003 0.0
C256 C 0.61963 0.64513 0.90488 0.0
C257 C 0.62018 0.69423 0.90163 0.0
C258 C 0.65689 0.72832 0.88782 0.0
C259 C 0.69348 0.71369 0.877 0.0
C260 C 0.69124 0.66354 0.88001 0.0
C261 C 0.65473 0.62967 0.89385 0.0
C262 C 0.68813 0.70638 0.02334 0.0
C263 C 0.30831 0.30118 0.92132 0.0
H264 H 0.05682 0.10306 0.15688 0.0
H265 H 0.90627 0.28462 0.18745 0.0
H266 H 0.95995 0.15074 0.12117 0.0
H267 H 0.01736 0.25334 0.22328 0.0
H268 H 0.91113 0.22174 0.16468 0.0
H269 H 0.02925 0.14444 0.18272 0.0
C270 C 0.02901 0.12147 0.15452 0.0
C271 C 0.01126 0.12411 0.13684 0.0
C272 C 0.93397 0.22805 0.17758 0.0
C273 C 0.97982 0.17146 0.16622 0.0
C274 C 0.93069 0.26365 0.19072 0.0
C275 C 0.96151 0.27446 0.20737 0.0
C276 C 0.96882 0.20324 0.18093 0.0
C277 C 0.99362 0.24686 0.21055 0.0
C278 C 0.01349 0.14522 0.16925 0.0
C279 C 0.97526 0.14837 0.13453 0.0
N280 N 0.9969 0.21285 0.19738 0.0
N281 N 0.96115 0.17141 0.14902 0.0
H282 H 0.89771 0.95565 0.46296 0.0
H283 H 0.81476 0.13755 0.53101 0.0
H284 H 0.96711 0.13012 0.45722 0.0
H285 H 0.77586 0.97333 0.54266 0.0
H286 H 0.8682 0.13462 0.50351 0.0
H287 H 0.8472 0.95943 0.49122 0.0
C288 C 0.90189 0.99464 0.46754 0.0
C289 C 0.93678 0.04268 0.4577 0.0
C290 C 0.84861 0.09944 0.51217 0.0
C291 C 0.87956 0.04731 0.49011 0.0
C292 C 0.81865 0.1013 0.52804 0.0
C293 C 0.79107 0.05573 0.5393 0.0
C294 C 0.85075 0.0515 0.50737 0.0
C295 C 0.79608 0.00927 0.53434 0.0
C296 C 0.87341 0.99683 0.48375 0.0
C297 C 0.9408 0.09208 0.46436 0.0
N298 N 0.82503 0.00821 0.51868 0.0
N299 N 0.91258 0.0931 0.48015 0.0
H300 H 0.9061 0.84776 0.77952 0.0
H301 H 0.76646 0.82684 0.87946 0.0
H302 H 0.95716 0.99014 0.81556 0.0
H303 H 0.7166 0.68611 0.84276 0.0
H304 H 0.83743 0.88749 0.85656 0.0
H305 H 0.83906 0.788 0.80306 0.0
C306 C 0.90354 0.86649 0.79245 0.0
C307 C 0.93722 0.92411 0.79555 0.0
C308 C 0.81096 0.84334 0.85352 0.0
C309 C 0.85989 0.85571 0.82259 0.0
C310 C 0.77004 0.80872 0.86653 0.0
C311 C 0.73539 0.75125 0.86303 0.0
C312 C 0.81726 0.82039 0.83685 0.0
C313 C 0.74282 0.73004 0.84615 0.0
C314 C 0.86506 0.83227 0.80589 0.0
C315 C 0.93204 0.94593 0.81258 0.0
N316 N 0.78284 0.76458 0.83371 0.0
N317 N 0.89384 0.91171 0.82545 0.0
H318 H 0.18249 0.91108 0.11143 0.0
H319 H 0.01288 0.76461 0.20302 0.0
H320 H 0.07281 0.96005 0.14412 0.0
H321 H 0.10798 0.70667 0.16731 0.0
H322 H 0.0396 0.84009 0.18269 0.0
H323 H 0.16245 0.84066 0.13315 0.0
C324 C 0.15456 0.90732 0.12325 0.0
C325 C 0.12905 0.94135 0.12592 0.0
C326 C 0.05467 0.81089 0.17932 0.0
C327 C 0.10556 0.86047 0.1508 0.0
C328 C 0.03906 0.76754 0.19085 0.0
C329 C 0.05797 0.72905 0.18683 0.0
C330 C 0.08952 0.8159 0.16364 0.0
C331 C 0.09292 0.73565 0.17106 0.0
C332 C 0.14297 0.86695 0.13563 0.0
C333 C 0.09327 0.93461 0.1415 0.0
N334 N 0.10745 0.77815 0.16004 0.0
N335 N 0.08236 0.89477 0.15332 0.0
H336 H 0.25399 0.164 0.43736 0.0
H337 H 0.39218 0.01145 0.4913 0.0
H338 H 0.19245 0.98982 0.431 0.0
H339 H 0.43252 0.17799 0.50448 0.0
H340 H 0.33644 0.0095 0.46438 0.0
H341 H 0.33783 0.17634 0.45673 0.0
C342 C 0.25894 0.12861 0.43968 0.0
C343 C 0.21555 0.07559 0.43285 0.0
C344 C 0.35797 0.0467 0.47305 0.0
C345 C 0.31075 0.08934 0.45507 0.0
C346 C 0.38945 0.0477 0.48848 0.0
C347 C 0.4159 0.09454 0.50033 0.0
C348 C 0.35259 0.09278 0.46947 0.0
C349 C 0.41253 0.14095 0.49574 0.0
C350 C 0.30656 0.13563 0.45083 0.0
C351 C 0.22425 0.03125 0.43625 0.0
N352 N 0.38067 0.13865 0.48078 0.0
N353 N 0.27039 0.039 0.44731 0.0
H354 H 0.22899 0.30334 0.77372 0.0
H355 H 0.30472 0.4077 0.87726 0.0
H356 H 0.12508 0.19851 0.81764 0.0
H357 H 0.44366 0.46196 0.83559 0.0
H358 H 0.22871 0.3418 0.85507 0.0
H359 H 0.29808 0.37372 0.79593 0.0
C360 C 0.22017 0.29537 0.78805 0.0
C361 C 0.17132 0.24483 0.79386 0.0
C362 C 0.27576 0.36839 0.8508 0.0
C363 C 0.25024 0.32539 0.81927 0.0
C364 C 0.31886 0.40605 0.86336 0.0
C365 C 0.38017 0.44015 0.85811 0.0
C366 C 0.29406 0.36574 0.83284 0.0
C367 C 0.39672 0.43621 0.84008 0.0
C368 C 0.2599 0.33545 0.80068 0.0
C369 C 0.16235 0.23679 0.8126 0.0
N370 N 0.35375 0.3998 0.82802 0.0
N371 N 0.20151 0.27677 0.82469 0.0
H372 H 0.97293 0.16427 0.7225 0.0
H373 H 0.66419 0.98663 0.66483 0.0
H374 H 0.86442 0.98587 0.72291 0.0
H375 H 0.80363 0.15398 0.65295 0.0
H376 H 0.72931 0.98775 0.68912 0.0
H377 H 0.90219 0.16355 0.70029 0.0
C378 C 0.93395 0.12496 0.71805 0.0
C379 C 0.92481 0.07501 0.7245 0.0
C380 C 0.74541 0.02421 0.6812 0.0
C381 C 0.84376 0.07398 0.69906 0.0
C382 C 0.70847 0.02354 0.66726 0.0
C383 C 0.72834 0.07028 0.65676 0.0
C384 C 0.80241 0.07208 0.68478 0.0
C385 C 0.78574 0.11728 0.66082 0.0
C386 C 0.89378 0.12459 0.7053 0.0
C387 C 0.87348 0.02533 0.71821 0.0
N388 N 0.82066 0.11697 0.6745 0.0
N389 N 0.83489 0.02606 0.70582 0.0
H390 H 0.05905 0.95355 0.03546 0.0
H391 H 0.72413 0.81107 0.99347 0.0
H392 H 0.91566 0.97696 0.05917 0.0
H393 H 0.88262 0.84049 0.9615 0.0
H394 H 0.79185 0.86679 0.01843 0.0
H395 H 0.99288 0.90517 0.00924 0.0
C396 C 0.01355 0.9483 0.0352 0.0
C397 C 0.99274 0.96918 0.04955 0.0
C398 C 0.81185 0.86168 0.00587 0.0
C399 C 0.91701 0.91398 0.01959 0.0
C400 C 0.77326 0.83029 0.99149 0.0
C401 C 0.79767 0.8214 0.97522 0.0
C402 C 0.87536 0.88377 0.00412 0.0
C403 C 0.8617 0.84584 0.97382 0.0
C404 C 0.97604 0.92106 0.02016 0.0
C405 C 0.93355 0.96154 0.04841 0.0
N406 N 0.89834 0.87559 0.98814 0.0
N407 N 0.89758 0.93425 0.03373 0.0
H408 H 0.00543 0.91475 0.35944 0.0
H409 H 0.9147 0.59678 0.34879 0.0
H410 H 0.93547 0.8036 0.4039 0.0
H411 H 0.03865 0.72356 0.31291 0.0
H412 H 0.90477 0.66741 0.36704 0.0
H413 H -0.00183 0.83919 0.33967 0.0
C414 C 0.98749 0.87423 0.36496 0.0
C415 C 0.9716 0.86555 0.38337 0.0
C416 C 0.93411 0.67958 0.35516 0.0
C417 C 0.96368 0.77923 0.36091 0.0
C418 C 0.93982 0.63943 0.3448 0.0
C419 C 0.97827 0.65459 0.32951 0.0
C420 C 0.96618 0.73491 0.34995 0.0
C421 C 0.00948 0.71031 0.32481 0.0
C422 C 0.98382 0.83127 0.35371 0.0
C423 C 0.94875 0.81219 0.38981 0.0
N424 N 0.00266 0.74839 0.33495 0.0
N425 N 0.94582 0.77108 0.37862 0.0
H426 H 0.16806 0.98425 0.73113 0.0
H427 H 0.41875 0.15881 0.65829 0.0
H428 H 0.2465 0.16048 0.72652 0.0
H429 H 0.40059 0.00776 0.67743 0.0
H430 H 0.35204 0.15743 0.68264 0.0
H431 H 0.24906 0.98864 0.71098 0.0
C432 C 0.20252 0.02385 0.72606 0.0
C433 C 0.20002 0.07195 0.73036 0.0
C434 C 0.36316 0.12486 0.68165 0.0
C435 C 0.29194 0.07703 0.70729 0.0
C436 C 0.40184 0.1258 0.66777 0.0
C437 C 0.41598 0.08348 0.66573 0.0
C438 C 0.33708 0.08074 0.69346 0.0
C439 C 0.39041 0.04087 0.67823 0.0
C440 C 0.24871 0.02631 0.71461 0.0
C441 C 0.24608 0.12219 0.72347 0.0
N442 N 0.35165 0.04027 0.69147 0.0
N443 N 0.28959 0.12326 0.71213 0.0
H444 H 0.31729 0.17067 0.06841 0.0
H445 H 0.39941 0.45848 0.02692 0.0
H446 H 0.21897 0.25662 0.08118 0.0
H447 H 0.46895 0.35453 0.00603 0.0
H448 H 0.34943 0.39509 0.0516 0.0
H449 H 0.3908 0.24901 0.05079 0.0
C450 C 0.31179 0.20642 0.06781 0.0
C451 C 0.26124 0.20666 0.076 0.0
C452 C 0.37618 0.38651 0.04171 0.0
C453 C 0.34484 0.29608 0.05575 0.0
C454 C 0.40436 0.42244 0.02754 0.0
C455 C 0.43765 0.41137 0.0142 0.0
C456 C 0.38133 0.33915 0.04256 0.0
C457 C 0.44392 0.36486 0.01601 0.0
C458 C 0.3536 0.25099 0.05767 0.0
C459 C 0.2567 0.25427 0.07484 0.0
N460 N 0.41551 0.33018 0.02982 0.0
N461 N 0.29751 0.29679 0.0647 0.0
H462 H 0.14301 0.25026 0.37933 0.0
H463 H 0.91159 0.28574 0.32019 0.0
H464 H 0.96641 0.10882 0.36522 0.0
H465 H 0.10666 0.37614 0.30924 0.0
H466 H 0.92721 0.22527 0.33952 0.0
H467 H 0.12777 0.30325 0.35659 0.0
C468 C 0.1012 0.23031 0.37133 0.0
C469 C 0.05592 0.17516 0.37407 0.0
C470 C 0.96634 0.2583 0.33277 0.0
C471 C 0.03766 0.23577 0.34845 0.0
C472 C 0.95758 0.29284 0.32166 0.0
C473 C 0.00792 0.33685 0.31309 0.0
C474 C 0.02589 0.26844 0.33565 0.0
C475 C 0.06652 0.3441 0.31591 0.0
C476 C 0.09263 0.26046 0.35837 0.0
C477 C 0.00257 0.15118 0.36338 0.0
N478 N 0.07393 0.31074 0.32709 0.0
N479 N 0.9944 0.18195 0.35118 0.0
loop_
_geom_bond_atom_site_label_1
_geom_bond_atom_site_label_2
_geom_bond_distance
_geom_bond_site_symmetry_2
_ccdc_geom_bond_type
O0 Cd1 2.223 . S
O0 C8 1.315 . S
Cd1 O0 2.223 . S
Cd1 O4 2.297 . S
Cd1 O5 2.439 . S
Cd1 O11 2.240 . S
Cd2 O3 2.240 . S
Cd2 O10 2.223 1_545 S
Cd2 O12 2.297 1_545 S
Cd2 O13 2.439 1_545 S
O3 Cd2 2.240 . S
O3 C8 1.279 . S
O4 Cd1 2.297 . S
O4 C6 1.247 . S
O5 Cd1 2.439 . S
O5 C6 1.208 . S
C6 O4 1.247 . S
C6 O5 1.208 . S
C7 O12 1.247 . S
C7 O13 1.208 . S
C8 O0 1.315 . S
C8 O3 1.279 . S
C9 O10 1.315 . S
C9 O11 1.279 1_565 S
O10 Cd2 2.223 1_565 S
O10 C9 1.315 . S
O11 Cd1 2.240 . S
O11 C9 1.279 1_545 S
O12 Cd2 2.297 1_565 S
O12 C7 1.247 . S
O13 Cd2 2.439 1_565 S
O13 C7 1.208 . S
O14 Cd15 2.223 . S
O14 C22 1.315 1_455 S
Cd15 O14 2.223 . S
Cd15 O18 2.297 . S
Cd15 O19 2.439 . S
Cd15 O25 2.240 . S
Cd16 O17 2.240 1_565 S
Cd16 O24 2.223 1_655 S
Cd16 O26 2.297 1_655 S
Cd16 O27 2.439 1_655 S
O17 Cd16 2.240 1_545 S
O17 C22 1.279 . S
O18 Cd15 2.297 . S
O18 C20 1.247 . S
O19 Cd15 2.439 . S
O19 C20 1.208 . S
C20 O18 1.247 . S
C20 O19 1.208 . S
C21 O26 1.247 . S
C21 O27 1.208 . S
C22 O14 1.315 1_655 S
C22 O17 1.279 . S
C23 O24 1.315 1_545 S
C23 O25 1.279 . S
O24 Cd16 2.223 1_455 S
O24 C23 1.315 1_565 S
O25 Cd15 2.240 . S
O25 C23 1.279 . S
O26 Cd16 2.297 1_455 S
O26 C21 1.247 . S
O27 Cd16 2.439 1_455 S
O27 C21 1.208 . S
O28 Cd29 2.223 . S
O28 C36 1.315 . S
Cd29 O28 2.223 . S
Cd29 O32 2.297 1_445 S
Cd29 O33 2.439 . S
Cd29 O39 2.240 . S
Cd30 O31 2.240 . S
Cd30 O38 2.223 . S
Cd30 O40 2.297 . S
Cd30 O41 2.439 . S
O31 Cd30 2.240 . S
O31 C36 1.279 . S
O32 Cd29 2.297 1_665 S
O32 C34 1.247 . S
O33 Cd29 2.439 . S
O33 C34 1.208 1_445 S
C34 O32 1.247 . S
C34 O33 1.208 1_665 S
C35 O40 1.247 . S
C35 O41 1.208 . S
C36 O28 1.315 . S
C36 O31 1.279 . S
C37 O38 1.315 . S
C37 O39 1.279 . S
O38 Cd30 2.223 . S
O38 C37 1.315 . S
O39 Cd29 2.240 . S
O39 C37 1.279 . S
O40 Cd30 2.297 . S
O40 C35 1.247 . S
O41 Cd30 2.439 . S
O41 C35 1.208 . S
H42 O68 0.856 . S
H43 O71 0.854 . S
H44 C79 0.930 . S
H45 C80 0.930 . S
H46 C82 0.930 . S
H47 C83 0.930 . S
H48 C85 0.931 1_655 S
H49 C86 0.930 1_655 S
H50 C88 0.930 . S
H51 C89 0.929 . S
H52 C91 0.930 1_655 S
H53 C92 0.931 1_655 S
H54 C94 0.930 . S
H55 C95 0.929 . S
H56 C97 0.931 . S
H57 C98 0.930 . S
H58 C100 0.930 . S
H59 C101 0.932 . S
H60 C103 0.930 . S
H61 C104 0.929 . S
H62 C106 0.931 . S
H63 C107 0.930 . S
H64 C109 0.929 . S
H65 C110 0.931 . S
H66 C112 0.930 . S
H67 C113 0.929 . S
O68 H42 0.856 . S
O68 C114 1.300 . S
O69 C114 1.209 . S
O70 C115 1.199 . S
O71 H43 0.854 . S
O71 C115 1.297 . S
C72 C73 1.404 . S
C72 C77 1.397 . S
C72 C78 1.492 . S
C73 C72 1.404 . S
C73 C74 1.396 . S
C73 C84 1.492 . S
C74 C73 1.396 . S
C74 C75 1.397 . S
C74 C90 1.509 . S
C75 C74 1.397 . S
C75 C76 1.412 . S
C75 C96 1.485 . S
C76 C75 1.412 . S
C76 C77 1.388 . S
C76 C102 1.490 . S
C77 C72 1.397 . S
C77 C76 1.388 . S
C77 C108 1.519 . S
C78 C72 1.492 . S
C78 C79 1.363 1_455 S
C78 C83 1.390 . S
C79 H44 0.930 . S
C79 C78 1.363 1_655 S
C79 C80 1.372 . S
C80 H45 0.930 . S
C80 C79 1.372 . S
C80 C81 1.383 1_655 S
C81 C80 1.383 1_455 S
C81 C82 1.395 . S
C82 H46 0.930 . S
C82 C81 1.395 . S
C82 C83 1.362 . S
C83 H47 0.930 . S
C83 C78 1.390 . S
C83 C82 1.362 . S
C84 C73 1.492 . S
C84 C85 1.377 . S
C84 C89 1.397 . S
C85 H48 0.931 1_455 S
C85 C84 1.377 . S
C85 C86 1.376 . S
C86 H49 0.930 1_455 S
C86 C85 1.376 . S
C86 C87 1.376 . S
C87 C86 1.376 . S
C87 C88 1.378 . S
C87 C114 1.486 . S
C88 H50 0.930 . S
C88 C87 1.378 . S
C88 C89 1.376 . S
C89 H51 0.929 . S
C89 C84 1.397 . S
C89 C88 1.376 . S
C90 C74 1.509 . S
C90 C91 1.391 . S
C90 C95 1.386 . S
C91 H52 0.930 1_455 S
C91 C90 1.391 . S
C91 C92 1.375 . S
C92 H53 0.931 1_455 S
C92 C91 1.375 . S
C92 C93 1.375 . S
C93 C92 1.375 . S
C93 C94 1.361 . S
C94 H54 0.930 . S
C94 C93 1.361 . S
C94 C95 1.399 . S
C95 H55 0.929 . S
C95 C90 1.386 . S
C95 C94 1.399 . S
C96 C75 1.485 . S
C96 C97 1.394 1_455 S
C96 C101 1.360 . S
C97 H56 0.931 . S
C97 C96 1.394 1_655 S
C97 C98 1.372 . S
C98 H57 0.930 . S
C98 C97 1.372 . S
C98 C99 1.397 1_655 S
C99 C98 1.397 1_455 S
C99 C100 1.390 . S
C99 C115 1.476 . S
C100 H58 0.930 . S
C100 C99 1.390 . S
C100 C101 1.366 . S
C101 H59 0.932 . S
C101 C96 1.360 . S
C101 C100 1.366 . S
C102 C76 1.490 . S
C102 C103 1.380 1_455 S
C102 C107 1.386 . S
C103 H60 0.930 . S
C103 C102 1.380 1_655 S
C103 C104 1.381 . S
C104 H61 0.929 . S
C104 C103 1.381 . S
C104 C105 1.371 1_655 S
C105 C104 1.371 1_455 S
C105 C106 1.380 . S
C106 H62 0.931 . S
C106 C105 1.380 . S
C106 C107 1.387 . S
C107 H63 0.930 . S
C107 C102 1.386 . S
C107 C106 1.387 . S
C108 C77 1.519 . S
C108 C109 1.377 1_455 S
C108 C113 1.361 . S
C109 H64 0.929 . S
C109 C108 1.377 1_655 S
C109 C110 1.386 . S
C110 H65 0.931 . S
C110 C109 1.386 . S
C110 C111 1.363 1_655 S
C111 C110 1.363 1_455 S
C111 C112 1.385 . S
C112 H66 0.930 . S
C112 C111 1.385 . S
C112 C113 1.396 . S
C113 H67 0.929 . S
C113 C108 1.361 . S
C113 C112 1.396 . S
C114 O68 1.300 . S
C114 O69 1.209 . S
C114 C87 1.486 . S
C115 O70 1.199 . S
C115 O71 1.297 . S
C115 C99 1.476 . S
H116 O142 0.856 . S
H117 O145 0.854 . S
H118 C153 0.930 1_565 S
H119 C154 0.930 1_565 S
H120 C156 0.930 . S
H121 C157 0.930 . S
H122 C159 0.939 . S
H123 C160 0.921 1_565 S
H124 C162 0.930 . S
H125 C163 0.929 . S
H126 C165 0.930 . S
H127 C166 0.931 . S
H128 C168 0.930 . S
H129 C169 0.929 . S
H130 C171 0.931 . S
H131 C172 0.930 . S
H132 C174 0.930 . S
H133 C175 0.932 . S
H134 C177 0.930 1_565 S
H135 C178 0.929 1_565 S
H136 C180 0.931 . S
H137 C181 0.930 . S
H138 C183 0.914 1_565 S
H139 C184 0.931 . S
H140 C186 0.930 . S
H141 C187 0.929 . S
O142 H116 0.856 . S
O142 C188 1.300 . S
O143 C188 1.209 . S
O144 C189 1.199 . S
O145 H117 0.854 . S
O145 C189 1.297 . S
C146 C147 1.404 . S
C146 C151 1.397 . S
C146 C152 1.492 . S
C147 C146 1.404 . S
C147 C148 1.396 . S
C147 C158 1.492 . S
C148 C147 1.396 . S
C148 C149 1.397 . S
C148 C164 1.509 . S
C149 C148 1.397 . S
C149 C150 1.412 . S
C149 C170 1.485 . S
C150 C149 1.412 . S
C150 C151 1.388 . S
C150 C176 1.490 . S
C151 C146 1.397 . S
C151 C150 1.388 . S
C151 C182 1.519 . S
C152 C146 1.492 . S
C152 C153 1.363 . S
C152 C157 1.390 . S
C153 H118 0.930 1_545 S
C153 C152 1.363 . S
C153 C154 1.372 . S
C154 H119 0.930 1_545 S
C154 C153 1.372 . S
C154 C155 1.383 . S
C155 C154 1.383 . S
C155 C156 1.395 . S
C156 H120 0.930 . S
C156 C155 1.395 . S
C156 C157 1.362 . S
C157 H121 0.930 . S
C157 C152 1.390 . S
C157 C156 1.362 . S
C158 C147 1.492 . S
C158 C159 1.377 . S
C158 C163 1.397 . S
C159 H122 0.939 . S
C159 C158 1.377 . S
C159 C160 1.376 . S
C160 H123 0.921 1_545 S
C160 C159 1.376 . S
C160 C161 1.376 . S
C161 C160 1.376 . S
C161 C162 1.378 . S
C161 C188 1.486 . S
C162 H124 0.930 . S
C162 C161 1.378 . S
C162 C163 1.376 . S
C163 H125 0.929 . S
C163 C158 1.397 . S
C163 C162 1.376 . S
C164 C148 1.509 . S
C164 C165 1.391 . S
C164 C169 1.386 . S
C165 H126 0.930 . S
C165 C164 1.391 . S
C165 C166 1.375 . S
C166 H127 0.931 . S
C166 C165 1.375 . S
C166 C167 1.375 . S
C167 C166 1.375 . S
C167 C168 1.361 . S
C168 H128 0.930 . S
C168 C167 1.361 . S
C168 C169 1.399 . S
C169 H129 0.929 . S
C169 C164 1.386 . S
C169 C168 1.399 . S
C170 C149 1.485 . S
C170 C171 1.394 . S
C170 C175 1.360 . S
C171 H130 0.931 . S
C171 C170 1.394 . S
C171 C172 1.372 . S
C172 H131 0.930 . S
C172 C171 1.372 . S
C172 C173 1.397 . S
C173 C172 1.397 . S
C173 C174 1.390 . S
C173 C189 1.476 . S
C174 H132 0.930 . S
C174 C173 1.390 . S
C174 C175 1.366 . S
C175 H133 0.932 . S
C175 C170 1.360 . S
C175 C174 1.366 . S
C176 C150 1.490 . S
C176 C177 1.380 . S
C176 C181 1.386 . S
C177 H134 0.930 1_545 S
C177 C176 1.380 . S
C177 C178 1.381 . S
C178 H135 0.929 1_545 S
C178 C177 1.381 . S
C178 C179 1.371 . S
C179 C178 1.371 . S
C179 C180 1.380 . S
C180 H136 0.931 . S
C180 C179 1.380 . S
C180 C181 1.387 . S
C181 H137 0.930 . S
C181 C176 1.386 . S
C181 C180 1.387 . S
C182 C151 1.519 . S
C182 C183 1.377 . S
C182 C187 1.361 . S
C183 H138 0.914 1_545 S
C183 C182 1.377 . S
C183 C184 1.386 . S
C184 H139 0.931 . S
C184 C183 1.386 . S
C184 C185 1.363 . S
C185 C184 1.363 . S
C185 C186 1.385 . S
C186 H140 0.930 . S
C186 C185 1.385 . S
C186 C187 1.396 . S
C187 H141 0.929 . S
C187 C182 1.361 . S
C187 C186 1.396 . S
C188 O142 1.300 . S
C188 O143 1.209 . S
C188 C161 1.486 . S
C189 O144 1.199 . S
C189 O145 1.297 . S
C189 C173 1.476 . S
H190 O216 0.856 . S
H191 O219 0.854 . S
H192 C227 0.930 . S
H193 C228 0.930 . S
H194 C230 0.930 . S
H195 C231 0.930 . S
H196 C233 0.931 . S
H197 C234 0.930 . S
H198 C236 0.930 . S
H199 C237 0.929 . S
H200 C239 0.930 . S
H201 C240 0.931 . S
H202 C242 0.930 . S
H203 C243 0.929 . S
H204 C245 0.931 . S
H205 C246 0.930 . S
H206 C248 0.930 . S
H207 C249 0.932 . S
H208 C251 0.930 . S
H209 C252 0.929 . S
H210 C254 0.931 . S
H211 C255 0.930 . S
H212 C257 0.929 . S
H213 C258 0.931 . S
H214 C260 0.930 . S
H215 C261 0.929 . S
O216 H190 0.856 . S
O216 C262 1.300 . S
O217 C262 1.209 . S
O218 C263 1.199 . S
O219 H191 0.854 . S
O219 C263 1.297 . S
C220 C221 1.404 . S
C220 C225 1.397 . S
C220 C226 1.492 . S
C221 C220 1.404 . S
C221 C222 1.396 . S
C221 C232 1.492 . S
C222 C221 1.396 . S
C222 C223 1.397 . S
C222 C238 1.509 . S
C223 C222 1.397 . S
C223 C224 1.412 . S
C223 C244 1.485 . S
C224 C223 1.412 . S
C224 C225 1.388 . S
C224 C250 1.490 . S
C225 C220 1.397 . S
C225 C224 1.388 . S
C225 C256 1.519 . S
C226 C220 1.492 . S
C226 C227 1.363 . S
C226 C231 1.390 . S
C227 H192 0.930 . S
C227 C226 1.363 . S
C227 C228 1.372 . S
C228 H193 0.930 . S
C228 C227 1.372 . S
C228 C229 1.383 . S
C229 C228 1.383 . S
C229 C230 1.395 . S
C230 H194 0.930 . S
C230 C229 1.395 . S
C230 C231 1.362 . S
C231 H195 0.930 . S
C231 C226 1.390 . S
C231 C230 1.362 . S
C232 C221 1.492 . S
C232 C233 1.377 . S
C232 C237 1.397 . S
C233 H196 0.931 . S
C233 C232 1.377 . S
C233 C234 1.376 1_556 S
C234 H197 0.930 . S
C234 C233 1.376 1_554 S
C234 C235 1.376 . S
C235 C234 1.376 . S
C235 C236 1.378 . S
C235 C262 1.486 . S
C236 H198 0.930 . S
C236 C235 1.378 . S
C236 C237 1.376 1_554 S
C237 H199 0.929 . S
C237 C232 1.397 . S
C237 C236 1.376 1_556 S
C238 C222 1.509 . S
C238 C239 1.391 . S
C238 C243 1.386 . S
C239 H200 0.930 . S
C239 C238 1.391 . S
C239 C240 1.375 . S
C240 H201 0.931 . S
C240 C239 1.375 . S
C240 C241 1.375 . S
C241 C240 1.375 . S
C241 C242 1.361 . S
C242 H202 0.930 . S
C242 C241 1.361 . S
C242 C243 1.399 . S
C243 H203 0.929 . S
C243 C238 1.386 . S
C243 C242 1.399 . S
C244 C223 1.485 . S
C244 C245 1.394 . S
C244 C249 1.360 . S
C245 H204 0.931 . S
C245 C244 1.394 . S
C245 C246 1.372 . S
C246 H205 0.930 . S
C246 C245 1.372 . S
C246 C247 1.397 . S
C247 C246 1.397 . S
C247 C248 1.390 . S
C247 C263 1.476 . S
C248 H206 0.930 . S
C248 C247 1.390 . S
C248 C249 1.366 . S
C249 H207 0.932 . S
C249 C244 1.360 . S
C249 C248 1.366 . S
C250 C224 1.490 . S
C250 C251 1.380 . S
C250 C255 1.386 . S
C251 H208 0.930 . S
C251 C250 1.380 . S
C251 C252 1.381 . S
C252 H209 0.929 . S
C252 C251 1.381 . S
C252 C253 1.371 . S
C253 C252 1.371 . S
C253 C254 1.380 . S
C254 H210 0.931 . S
C254 C253 1.380 . S
C254 C255 1.387 . S
C255 H211 0.930 . S
C255 C250 1.386 . S
C255 C254 1.387 . S
C256 C225 1.519 . S
C256 C257 1.377 . S
C256 C261 1.361 . S
C257 H212 0.929 . S
C257 C256 1.377 . S
C257 C258 1.386 . S
C258 H213 0.931 . S
C258 C257 1.386 . S
C258 C259 1.363 . S
C259 C258 1.363 . S
C259 C260 1.385 . S
C260 H214 0.930 . S
C260 C259 1.385 . S
C260 C261 1.396 . S
C261 H215 0.929 . S
C261 C256 1.361 . S
C261 C260 1.396 . S
C262 O216 1.300 . S
C262 O217 1.209 . S
C262 C235 1.486 . S
C263 O218 1.199 . S
C263 O219 1.297 . S
C263 C247 1.476 . S
H264 C270 0.930 . S
H265 C274 0.930 1_655 S
H266 C279 0.929 . S
H267 C277 0.929 . S
H268 C272 0.929 1_655 S
H269 C278 0.929 . S
C270 H264 0.930 . S
C270 C271 1.367 . S
C270 C278 1.378 . S
C271 C270 1.367 . S
C271 C279 1.433 . S
C272 H268 0.929 1_455 S
C272 C274 1.378 . S
C272 C276 1.350 . S
C273 C276 1.463 . S
C273 C278 1.350 . S
C273 N281 1.427 . S
C274 H265 0.930 1_455 S
C274 C272 1.378 . S
C274 C275 1.367 . S
C275 C274 1.367 . S
C275 C277 1.433 . S
C276 C272 1.350 . S
C276 C273 1.463 . S
C276 N280 1.427 . S
C277 H267 0.929 . S
C277 C275 1.433 . S
C277 N280 1.384 . S
C278 H269 0.929 . S
C278 C270 1.378 . S
C278 C273 1.350 . S
C279 H266 0.929 . S
C279 C271 1.433 . S
C279 N281 1.384 . S
N280 C276 1.427 . S
N280 C277 1.384 . S
N281 C273 1.427 . S
N281 C279 1.384 . S
H282 C288 0.930 . S
H283 C292 0.930 . S
H284 C297 0.929 . S
H285 C295 0.929 . S
H286 C290 0.929 . S
H287 C296 0.929 . S
C288 H282 0.930 . S
C288 C289 1.367 1_565 S
C288 C296 1.378 . S
C289 C288 1.367 1_545 S
C289 C297 1.433 . S
C290 H286 0.929 . S
C290 C292 1.378 . S
C290 C294 1.350 . S
C291 C294 1.463 . S
C291 C296 1.350 1_545 S
C291 N299 1.427 . S
C292 H283 0.930 . S
C292 C290 1.378 . S
C292 C293 1.367 . S
C293 C292 1.367 . S
C293 C295 1.433 1_545 S
C294 C290 1.350 . S
C294 C291 1.463 . S
C294 N298 1.427 1_545 S
C295 H285 0.929 . S
C295 C293 1.433 1_565 S
C295 N298 1.384 . S
C296 H287 0.929 . S
C296 C288 1.378 . S
C296 C291 1.350 1_565 S
C297 H284 0.929 . S
C297 C289 1.433 . S
C297 N299 1.384 . S
N298 C294 1.427 1_565 S
N298 C295 1.384 . S
N299 C291 1.427 . S
N299 C297 1.384 . S
H300 C306 0.930 . S
H301 C310 0.930 . S
H302 C315 0.929 . S
H303 C313 0.929 . S
H304 C308 0.929 . S
H305 C314 0.929 . S
C306 H300 0.930 . S
C306 C307 1.367 . S
C306 C314 1.378 . S
C307 C306 1.367 . S
C307 C315 1.433 . S
C308 H304 0.929 . S
C308 C310 1.378 . S
C308 C312 1.350 . S
C309 C312 1.463 . S
C309 C314 1.350 . S
C309 N317 1.427 . S
C310 H301 0.930 . S
C310 C308 1.378 . S
C310 C311 1.367 . S
C311 C310 1.367 . S
C311 C313 1.433 . S
C312 C308 1.350 . S
C312 C309 1.463 . S
C312 N316 1.427 . S
C313 H303 0.929 . S
C313 C311 1.433 . S
C313 N316 1.384 . S
C314 H305 0.929 . S
C314 C306 1.378 . S
C314 C309 1.350 . S
C315 H302 0.929 . S
C315 C307 1.433 . S
C315 N317 1.384 . S
N316 C312 1.427 . S
N316 C313 1.384 . S
N317 C309 1.427 . S
N317 C315 1.384 . S
H318 C324 0.930 . S
H319 C328 0.930 . S
H320 C333 0.929 . S
H321 C331 0.929 . S
H322 C326 0.929 . S
H323 C332 0.929 . S
C324 H318 0.930 . S
C324 C325 1.367 . S
C324 C332 1.378 . S
C325 C324 1.367 . S
C325 C333 1.433 . S
C326 H322 0.929 . S
C326 C328 1.378 . S
C326 C330 1.350 . S
C327 C330 1.463 . S
C327 C332 1.350 . S
C327 N335 1.427 . S
C328 H319 0.930 . S
C328 C326 1.378 . S
C328 C329 1.367 . S
C329 C328 1.367 . S
C329 C331 1.433 . S
C330 C326 1.350 . S
C330 C327 1.463 . S
C330 N334 1.427 . S
C331 H321 0.929 . S
C331 C329 1.433 . S
C331 N334 1.384 . S
C332 H323 0.929 . S
C332 C324 1.378 . S
C332 C327 1.350 . S
C333 H320 0.929 . S
C333 C325 1.433 . S
C333 N335 1.384 . S
N334 C330 1.427 . S
N334 C331 1.384 . S
N335 C327 1.427 . S
N335 C333 1.384 . S
H336 C342 0.930 . S
H337 C346 0.930 . S
H338 C351 0.929 . S
H339 C349 0.929 . S
H340 C344 0.922 1_565 S
H341 C350 0.929 . S
C342 H336 0.930 . S
C342 C343 1.367 . S
C342 C350 1.378 . S
C343 C342 1.367 . S
C343 C351 1.433 1_545 S
C344 H340 0.922 1_545 S
C344 C346 1.378 . S
C344 C348 1.350 . S
C345 C348 1.463 . S
C345 C350 1.350 . S
C345 N353 1.427 . S
C346 H337 0.930 . S
C346 C344 1.378 . S
C346 C347 1.367 . S
C347 C346 1.367 . S
C347 C349 1.433 . S
C348 C344 1.350 . S
C348 C345 1.463 . S
C348 N352 1.427 . S
C349 H339 0.929 . S
C349 C347 1.433 . S
C349 N352 1.384 . S
C350 H341 0.929 . S
C350 C342 1.378 . S
C350 C345 1.350 . S
C351 H338 0.929 . S
C351 C343 1.433 1_565 S
C351 N353 1.384 1_565 S
N352 C348 1.427 . S
N352 C349 1.384 . S
N353 C345 1.427 . S
N353 C351 1.384 1_545 S
H354 C360 0.930 . S
H355 C364 0.930 . S
H356 C369 0.929 . S
H357 C367 0.929 . S
H358 C362 0.929 . S
H359 C368 0.929 . S
C360 H354 0.930 . S
C360 C361 1.367 . S
C360 C368 1.378 . S
C361 C360 1.367 . S
C361 C369 1.433 . S
C362 H358 0.929 . S
C362 C364 1.378 . S
C362 C366 1.350 . S
C363 C366 1.463 . S
C363 C368 1.350 . S
C363 N371 1.427 . S
C364 H355 0.930 . S
C364 C362 1.378 . S
C364 C365 1.367 . S
C365 C364 1.367 . S
C365 C367 1.433 . S
C366 C362 1.350 . S
C366 C363 1.463 . S
C366 N370 1.427 . S
C367 H357 0.929 . S
C367 C365 1.433 . S
C367 N370 1.384 . S
C368 H359 0.929 . S
C368 C360 1.378 . S
C368 C363 1.350 . S
C369 H356 0.929 . S
C369 C361 1.433 . S
C369 N371 1.384 . S
N370 C366 1.427 . S
N370 C367 1.384 . S
N371 C363 1.427 . S
N371 C369 1.384 . S
H372 C378 0.930 1_455 S
H373 C382 0.930 . S
H374 C387 0.929 1_565 S
H375 C385 0.929 . S
H376 C380 0.929 . S
H377 C386 0.929 . S
C378 H372 0.930 1_655 S
C378 C379 1.367 . S
C378 C386 1.378 . S
C379 C378 1.367 . S
C379 C387 1.433 . S
C380 H376 0.929 . S
C380 C382 1.378 . S
C380 C384 1.350 . S
C381 C384 1.463 . S
C381 C386 1.350 . S
C381 N389 1.427 . S
C382 H373 0.930 . S
C382 C380 1.378 . S
C382 C383 1.367 . S
C383 C382 1.367 . S
C383 C385 1.433 . S
C384 C380 1.350 . S
C384 C381 1.463 . S
C384 N388 1.427 . S
C385 H375 0.929 . S
C385 C383 1.433 . S
C385 N388 1.384 . S
C386 H377 0.929 . S
C386 C378 1.378 . S
C386 C381 1.350 . S
C387 H374 0.929 1_545 S
C387 C379 1.433 . S
C387 N389 1.384 . S
N388 C384 1.427 . S
N388 C385 1.384 . S
N389 C381 1.427 . S
N389 C387 1.384 . S
H390 C396 0.930 1_455 S
H391 C400 0.930 . S
H392 C405 0.929 . S
H393 C403 0.929 . S
H394 C398 0.929 . S
H395 C404 0.929 . S
C396 H390 0.930 1_655 S
C396 C397 1.367 . S
C396 C404 1.378 . S
C397 C396 1.367 . S
C397 C405 1.433 . S
C398 H394 0.929 . S
C398 C400 1.378 1_554 S
C398 C402 1.350 . S
C399 C402 1.463 . S
C399 C404 1.350 . S
C399 N407 1.427 . S
C400 H391 0.930 . S
C400 C398 1.378 1_556 S
C400 C401 1.367 . S
C401 C400 1.367 . S
C401 C403 1.433 . S
C402 C398 1.350 . S
C402 C399 1.463 . S
C402 N406 1.427 1_554 S
C403 H393 0.929 . S
C403 C401 1.433 . S
C403 N406 1.384 . S
C404 H395 0.929 . S
C404 C396 1.378 . S
C404 C399 1.350 . S
C405 H392 0.929 . S
C405 C397 1.433 . S
C405 N407 1.384 . S
N406 C402 1.427 1_556 S
N406 C403 1.384 . S
N407 C399 1.427 . S
N407 C405 1.384 . S
H408 C414 0.930 . S
H409 C418 0.930 . S
H410 C423 0.929 . S
H411 C421 0.929 . S
H412 C416 0.929 . S
H413 C422 0.929 . S
C414 H408 0.930 . S
C414 C415 1.367 . S
C414 C422 1.378 . S
C415 C414 1.367 . S
C415 C423 1.433 1_455 S
C416 H412 0.929 . S
C416 C418 1.378 . S
C416 C420 1.350 1_655 S
C417 C420 1.463 . S
C417 C422 1.350 . S
C417 N425 1.427 1_455 S
C418 H409 0.930 . S
C418 C416 1.378 . S
C418 C419 1.367 1_655 S
C419 C418 1.367 1_455 S
C419 C421 1.433 . S
C420 C416 1.350 1_455 S
C420 C417 1.463 . S
C420 N424 1.427 . S
C421 H411 0.929 . S
C421 C419 1.433 . S
C421 N424 1.384 . S
C422 H413 0.929 . S
C422 C414 1.378 . S
C422 C417 1.350 . S
C423 H410 0.929 . S
C423 C415 1.433 1_655 S
C423 N425 1.384 . S
N424 C420 1.427 . S
N424 C421 1.384 . S
N425 C417 1.427 1_655 S
N425 C423 1.384 . S
H426 C432 0.930 . S
H427 C436 0.930 . S
H428 C441 0.929 . S
H429 C439 0.929 . S
H430 C434 0.929 . S
H431 C440 0.929 . S
C432 H426 0.930 . S
C432 C433 1.367 . S
C432 C440 1.378 . S
C433 C432 1.367 . S
C433 C441 1.433 . S
C434 H430 0.929 . S
C434 C436 1.378 . S
C434 C438 1.350 . S
C435 C438 1.463 . S
C435 C440 1.350 . S
C435 N443 1.427 . S
C436 H427 0.930 . S
C436 C434 1.378 . S
C436 C437 1.367 . S
C437 C436 1.367 . S
C437 C439 1.433 . S
C438 C434 1.350 . S
C438 C435 1.463 . S
C438 N442 1.427 . S
C439 H429 0.929 . S
C439 C437 1.433 . S
C439 N442 1.384 . S
C440 H431 0.929 . S
C440 C432 1.378 . S
C440 C435 1.350 . S
C441 H428 0.929 . S
C441 C433 1.433 . S
C441 N443 1.384 . S
N442 C438 1.427 . S
N442 C439 1.384 . S
N443 C435 1.427 . S
N443 C441 1.384 . S
H444 C450 0.930 . S
H445 C454 0.930 . S
H446 C459 0.929 . S
H447 C457 0.929 . S
H448 C452 0.929 . S
H449 C458 0.929 . S
C450 H444 0.930 . S
C450 C451 1.367 . S
C450 C458 1.378 . S
C451 C450 1.367 . S
C451 C459 1.433 . S
C452 H448 0.929 . S
C452 C454 1.378 . S
C452 C456 1.350 . S
C453 C456 1.463 . S
C453 C458 1.350 . S
C453 N461 1.427 . S
C454 H445 0.930 . S
C454 C452 1.378 . S
C454 C455 1.367 . S
C455 C454 1.367 . S
C455 C457 1.433 . S
C456 C452 1.350 . S
C456 C453 1.463 . S
C456 N460 1.427 . S
C457 H447 0.929 . S
C457 C455 1.433 . S
C457 N460 1.384 . S
C458 H449 0.929 . S
C458 C450 1.378 . S
C458 C453 1.350 . S
C459 H446 0.929 . S
C459 C451 1.433 . S
C459 N461 1.384 . S
N460 C456 1.427 . S
N460 C457 1.384 . S
N461 C453 1.427 . S
N461 C459 1.384 . S
H462 C468 0.930 . S
H463 C472 0.930 . S
H464 C477 0.929 . S
H465 C475 0.929 . S
H466 C470 0.929 . S
H467 C476 0.929 . S
C468 H462 0.930 . S
C468 C469 1.367 . S
C468 C476 1.378 . S
C469 C468 1.367 . S
C469 C477 1.433 1_455 S
C470 H466 0.929 . S
C470 C472 1.378 . S
C470 C474 1.350 1_655 S
C471 C474 1.463 . S
C471 C476 1.350 . S
C471 N479 1.427 1_455 S
C472 H463 0.930 . S
C472 C470 1.378 . S
C472 C473 1.367 1_655 S
C473 C472 1.367 1_455 S
C473 C475 1.433 . S
C474 C470 1.350 1_455 S
C474 C471 1.463 . S
C474 N478 1.427 . S
C475 H465 0.929 . S
C475 C473 1.433 . S
C475 N478 1.384 . S
C476 H467 0.929 . S
C476 C468 1.378 . S
C476 C471 1.350 . S
C477 H464 0.929 . S
C477 C469 1.433 1_655 S
C477 N479 1.384 . S
N478 C474 1.427 . S
N478 C475 1.384 . S
N479 C471 1.427 1_655 S
N479 C477 1.384 . S
C275 C81 1.428 . S
C271 C6 1.511 . S
C289 C22 1.569 . S
C293 C155 1.476 . S
C307 C34 1.900 . S
C311 C259 1.926 . S
C325 C7 0.824 . S
C329 C93 0.829 . S
C347 C167 0.932 . S
C343 C23 0.943 . S
C361 C35 1.292 . S
C365 C253 1.237 . S
C383 C185 2.172 . S
C379 C36 2.173 1_655 S
C397 C9 1.808 1_655 S
C401 C229 1.714 . S
C419 C105 1.498 . S
C415 C21 1.572 . S
C437 C179 1.476 . S
C433 C37 1.578 . S
C455 C241 1.114 1_554 S
C451 C8 1.112 . S
C469 C20 2.172 . S
C473 C111 2.202 . S
