# Generated by pormake.
# Topology tsx, (6,3)-cn, num edge types: 1
# Building blocks:
#     Node 0, Type 0, BuildingBlock: FUNLAD_clean_sbu_0, # of connection points: 6
#     Node 1, Type 0, BuildingBlock: FUNLAD_clean_sbu_0, # of connection points: 6
#     Node 2, Type 1, BuildingBlock: CUQRIR_clean_linker_1, # of connection points: 3
#     Node 3, Type 1, BuildingBlock: CUQRIR_clean_linker_1, # of connection points: 3
#     Node 4, Type 1, BuildingBlock: CUQRIR_clean_linker_1, # of connection points: 3
#     Node 5, Type 1, BuildingBlock: CUQRIR_clean_linker_1, # of connection points: 3
#     Edge 6, Type (0, 1), BuildingBlock: XIVTED_clean_linker_0, # of connection points: 2
#     Edge 7, Type (0, 1), BuildingBlock: XIVTED_clean_linker_0, # of connection points: 2
#     Edge 8, Type (0, 1), BuildingBlock: XIVTED_clean_linker_0, # of connection points: 2
#     Edge 9, Type (0, 1), BuildingBlock: XIVTED_clean_linker_0, # of connection points: 2
#     Edge 10, Type (0, 1), BuildingBlock: XIVTED_clean_linker_0, # of connection points: 2
#     Edge 11, Type (0, 1), BuildingBlock: XIVTED_clean_linker_0, # of connection points: 2
#     Edge 12, Type (0, 1), BuildingBlock: XIVTED_clean_linker_0, # of connection points: 2
#     Edge 13, Type (0, 1), BuildingBlock: XIVTED_clean_linker_0, # of connection points: 2
#     Edge 14, Type (0, 1), BuildingBlock: XIVTED_clean_linker_0, # of connection points: 2
#     Edge 15, Type (0, 1), BuildingBlock: XIVTED_clean_linker_0, # of connection points: 2
#     Edge 16, Type (0, 1), BuildingBlock: XIVTED_clean_linker_0, # of connection points: 2
#     Edge 17, Type (0, 1), BuildingBlock: XIVTED_clean_linker_0, # of connection points: 2
# Relax obj value: 0.158
# Max RMSD: 0.158
# Mean RMSD: 0.140
data_MOF--net-tsx--node1-FUNLAD_clean_sbu_0--node2-CUQRIR_clean_linker_1--edge1-XIVTED_clean_linker_0
_symmetry_space_group_name_H-M    P1
_symmetry_Int_Tables_number       1
_symmetry_cell_setting            triclinic
loop_
_symmetry_equiv_pos_as_xyz
'x, y, z'
_cell_length_a     17.861508
_cell_length_b     19.792337
_cell_length_c     37.859106
_cell_angle_alpha  79.006865
_cell_angle_beta   91.666899
_cell_angle_gamma 90.333887
loop_
_atom_site_label
_atom_site_type_symbol
_atom_site_fract_x
_atom_site_fract_y
_atom_site_fract_z
_atom_type_partial_charge
C0 C 0.93408 0.9091 0.00155 0.0
N1 N 0.02075 0.96226 0.0948 0.0
C2 C 0.95069 0.94755 0.10723 0.0
C3 C 0.93949 0.92714 0.144 0.0
C4 C 0.00065 0.9239 0.16849 0.0
C5 C 0.07249 0.93905 0.15473 0.0
C6 C 0.08137 0.95734 0.11767 0.0
Zn7 Zn 0.03491 0.98977 0.04087 0.0
C8 C 0.15062 0.90451 0.01466 0.0
N9 N 0.06418 0.04507 0.92771 0.0
C10 C 0.00373 0.06865 0.90639 0.0
C11 C 0.13209 0.03841 0.91333 0.0
C12 C 0.14012 0.05249 0.87608 0.0
C13 C 0.07825 0.07603 0.8533 0.0
C14 C 0.01 0.08612 0.86924 0.0
Zn15 Zn 0.05079 0.01859 0.98196 0.0
O16 O 0.9529 0.91941 0.03252 0.0
C17 C 0.9368 0.10725 0.00619 0.0
O18 O 0.96502 0.94374 0.97395 0.0
H19 H 0.17999 0.02073 0.93066 0.0
H20 H 0.90309 0.95183 0.08864 0.0
H21 H 0.94999 0.07338 0.91806 0.0
O22 O 0.95022 0.06958 0.03694 0.0
O23 O 0.9715 0.09615 0.9792 0.0
H24 H 0.1367 0.96853 0.10722 0.0
O25 O 0.13676 0.0896 0.99091 0.0
O26 O 0.11971 0.0603 0.049 0.0
O27 O 0.13071 0.94312 0.98534 0.0
O28 O 0.11901 0.91037 0.04363 0.0
C29 C 0.15502 0.09508 0.02299 0.0
H30 H 0.88322 0.91482 0.15299 0.0
H31 H 0.12143 0.93897 0.17226 0.0
H32 H 0.19383 0.04294 0.86551 0.0
H33 H 0.96105 0.10645 0.85334 0.0
C34 C 0.37394 0.46962 0.48848 0.0
N35 N 0.47905 0.51092 0.58169 0.0
C36 C 0.41257 0.49326 0.59761 0.0
C37 C 0.41 0.46974 0.63481 0.0
C38 C 0.47626 0.46589 0.65623 0.0
C39 C 0.54391 0.48505 0.63887 0.0
C40 C 0.54414 0.50643 0.60156 0.0
Zn41 Zn 0.48396 0.54231 0.52681 0.0
C42 C 0.59481 0.45982 0.49483 0.0
N43 N 0.50103 0.60619 0.41256 0.0
C44 C 0.43864 0.62433 0.39151 0.0
C45 C 0.56932 0.60438 0.39778 0.0
C46 C 0.5762 0.61723 0.3605 0.0
C47 C 0.51245 0.63383 0.33783 0.0
C48 C 0.44323 0.63919 0.354 0.0
Zn49 Zn 0.49338 0.57632 0.46729 0.0
O50 O 0.39875 0.47495 0.51948 0.0
C51 C 0.38707 0.66321 0.49726 0.0
O52 O 0.40307 0.50509 0.46055 0.0
H53 H 0.61853 0.59071 0.4149 0.0
H54 H 0.3613 0.49696 0.58146 0.0
H55 H 0.38488 0.62586 0.40375 0.0
O56 O 0.40221 0.6224 0.52693 0.0
O57 O 0.41708 0.65417 0.46858 0.0
H58 H 0.59669 0.51972 0.58853 0.0
O59 O 0.58193 0.64564 0.47554 0.0
O60 O 0.56863 0.61166 0.53364 0.0
O61 O 0.5717 0.50012 0.46663 0.0
O62 O 0.56691 0.46337 0.525 0.0
C63 C 0.6011 0.64947 0.50774 0.0
H64 H 0.35646 0.45451 0.64645 0.0
H65 H 0.59648 0.48488 0.6538 0.0
H66 H 0.63074 0.61115 0.3498 0.0
H67 H 0.3926 0.65337 0.33798 0.0
C68 C 0.02158 0.10947 0.43657 0.0
N69 N 0.03756 0.05261 0.42333 0.0
N70 N 0.95542 0.13714 0.42254 0.0
C71 C 0.07026 0.13655 0.46366 0.0
C72 C 0.93333 0.09632 0.39929 0.0
N73 N 0.98299 0.04462 0.39992 0.0
C74 C 0.86567 0.11052 0.37439 0.0
H75 H 0.12262 0.1574 0.45074 0.0
H76 H 0.08607 0.0937 0.48596 0.0
H77 H 0.04282 0.17817 0.47422 0.0
H78 H 0.87833 0.10093 0.34725 0.0
H79 H 0.84668 0.16457 0.37183 0.0
H80 H 0.81935 0.07594 0.38536 0.0
C81 C 0.98505 0.0493 0.55253 0.0
N82 N 0.03497 0.08436 0.56964 0.0
N83 N 0.97435 0.98544 0.57186 0.0
C84 C 0.93664 0.08031 0.52067 0.0
C85 C 0.01854 0.98323 0.60167 0.0
N86 N 0.05586 0.04342 0.60025 0.0
C87 C 0.02115 0.92433 0.63334 0.0
H88 H 0.94802 0.05466 0.49787 0.0
H89 H 0.94514 0.13645 0.51288 0.0
H90 H 0.8769 0.07053 0.52722 0.0
H91 H 0.00081 0.87589 0.62573 0.0
H92 H 0.98553 0.93691 0.65473 0.0
H93 H 0.07916 0.91626 0.64449 0.0
C94 C 0.52567 0.51345 0.95791 0.0
N95 N 0.5427 0.46619 0.93785 0.0
N96 N 0.45842 0.54194 0.9476 0.0
C97 C 0.57679 0.53815 0.98489 0.0
C98 C 0.43563 0.51253 0.91974 0.0
N99 N 0.48665 0.46545 0.91397 0.0
C100 C 0.36639 0.53369 0.89672 0.0
H101 H 0.57922 0.59523 0.97878 0.0
H102 H 0.63426 0.51813 0.98477 0.0
H103 H 0.55288 0.52348 0.01191 0.0
H104 H 0.38015 0.54302 0.8678 0.0
H105 H 0.3405 0.5807 0.90285 0.0
H106 H 0.32452 0.49162 0.90169 0.0
C107 C 0.61638 0.43867 0.07096 0.0
N108 N 0.62715 0.49721 0.0843 0.0
N109 N 0.55628 0.40329 0.08581 0.0
C110 C 0.66495 0.41364 0.04436 0.0
C111 C 0.53145 0.44146 0.10911 0.0
N112 N 0.57399 0.4986 0.10803 0.0
C113 C 0.46438 0.42346 0.13233 0.0
H114 H 0.69731 0.36836 0.05858 0.0
H115 H 0.70469 0.453 0.03137 0.0
H116 H 0.62948 0.39586 0.02355 0.0
H117 H 0.47404 0.43787 0.159 0.0
H118 H 0.45126 0.36784 0.1366 0.0
H119 H 0.41498 0.45224 0.1189 0.0
H120 H 0.22893 0.09197 0.08729 0.0
H121 H 0.48106 0.41928 0.02227 0.0
H122 H 0.22937 0.1945 0.97591 0.0
H123 H 0.53128 0.27214 0.11901 0.0
H124 H 0.38901 0.3395 0.00391 0.0
H125 H 0.33704 0.1604 0.0997 0.0
C126 C 0.25157 0.12913 0.06542 0.0
C127 C 0.21961 0.1379 0.03053 0.0
C128 C 0.42103 0.32395 0.02885 0.0
C129 C 0.34391 0.21641 0.04464 0.0
C130 C 0.4739 0.36923 0.0391 0.0
C131 C 0.51364 0.35173 0.072 0.0
C132 C 0.40689 0.2613 0.05214 0.0
C133 C 0.50156 0.28699 0.09341 0.0
C134 C 0.3138 0.16775 0.0725 0.0
C135 C 0.25204 0.18629 0.00322 0.0
N136 N 0.44835 0.24439 0.08339 0.0
N137 N 0.31206 0.22425 0.01093 0.0
H138 H 0.26961 0.92301 0.972 0.0
H139 H 0.38946 0.52692 0.01085 0.0
H140 H 0.16709 0.77267 0.05406 0.0
H141 H 0.44854 0.67569 0.91751 0.0
H142 H 0.32538 0.61814 0.0347 0.0
H143 H 0.35595 0.8358 0.96061 0.0
C144 C 0.26604 0.87151 0.98797 0.0
C145 C 0.21061 0.85449 0.01361 0.0
C146 C 0.35257 0.63084 0.00908 0.0
C147 C 0.30844 0.7538 0.0002 0.0
C148 C 0.38865 0.57909 0.99557 0.0
C149 C 0.42233 0.59458 0.96206 0.0
C150 C 0.35138 0.69822 0.98889 0.0
C151 C 0.42174 0.66236 0.94318 0.0
C152 C 0.3152 0.82167 0.98138 0.0
C153 C 0.20906 0.7875 0.03397 0.0
N154 N 0.38642 0.71176 0.95678 0.0
N155 N 0.25668 0.73893 0.0264 0.0
H156 H 0.96793 0.78218 0.98959 0.0
H157 H 0.57236 0.62309 0.05738 0.0
H158 H 0.78533 0.90521 0.01387 0.0
H159 H 0.77763 0.50706 0.0743 0.0
H160 H 0.64261 0.72493 0.02908 0.0
H161 H 0.89051 0.6784 0.00627 0.0
C162 C 0.91037 0.78746 -0.00305 0.0
C163 C 0.88201 0.85214 -0.00042 0.0
C164 C 0.67235 0.67719 0.03884 0.0
C165 C 0.79442 0.73423 0.01976 0.0
C166 C 0.63246 0.6194 0.0552 0.0
C167 C 0.66948 0.55692 0.06811 0.0
C168 C 0.75 0.67247 0.03514 0.0
C169 C 0.74717 0.55423 0.06427 0.0
C170 C 0.86679 0.7283 0.00706 0.0
C171 C 0.80835 0.85627 0.01072 0.0
N172 N 0.78498 0.61122 0.048 0.0
N173 N 0.76709 0.79809 0.0205 0.0
H174 H 0.9491 0.23009 0.96127 0.0
H175 H 0.52124 0.33226 0.96471 0.0
H176 H 0.79949 0.11267 0.03698 0.0
H177 H 0.69246 0.48252 0.93119 0.0
H178 H 0.61895 0.24516 0.98544 0.0
H179 H 0.8533 0.31897 0.9451 0.0
C180 C 0.89615 0.22349 0.97479 0.0
C181 C 0.88208 0.16415 0.00056 0.0
C182 C 0.63514 0.29716 0.97356 0.0
C183 C 0.77146 0.2649 0.98145 0.0
C184 C 0.57965 0.34634 0.96151 0.0
C185 C 0.59956 0.4141 0.9466 0.0
C186 C 0.71086 0.31587 0.9698 0.0
C187 C 0.67551 0.43065 0.94281 0.0
C188 C 0.84156 0.2742 0.96552 0.0
C189 C 0.8126 0.15802 0.01721 0.0
N190 N 0.72858 0.38177 0.95425 0.0
N191 N 0.75923 0.20745 0.00698 0.0
H192 H 0.69654 0.72971 0.46128 0.0
H193 H 0.86101 0.9264 0.61236 0.0
H194 H 0.63665 0.68075 0.57301 0.0
H195 H 0.96961 0.93125 0.51205 0.0
H196 H 0.77049 0.84294 0.59624 0.0
H197 H 0.79012 0.81154 0.47685 0.0
C198 C 0.70308 0.73611 0.48899 0.0
C199 C 0.65879 0.6984 0.51586 0.0
C200 C 0.81432 0.86194 0.57774 0.0
C201 C 0.76469 0.79167 0.53371 0.0
C202 C 0.8659 0.90909 0.58707 0.0
C203 C 0.92259 0.93469 0.56347 0.0
C204 C 0.81917 0.84111 0.54437 0.0
C205 C 0.92611 0.91238 0.53063 0.0
C206 C 0.75647 0.78256 0.49786 0.0
C207 C 0.66958 0.70856 0.55137 0.0
N208 N 0.87489 0.86688 0.52188 0.0
N209 N 0.72111 0.75437 0.5592 0.0
H210 H 0.71726 0.49128 0.45518 0.0
H211 H 0.82236 0.10719 0.45278 0.0
H212 H 0.6125 0.32305 0.52596 0.0
H213 H 0.98137 0.27146 0.42467 0.0
H214 H 0.74087 0.18531 0.47719 0.0
H215 H 0.81247 0.41241 0.44195 0.0
C216 C 0.71504 0.43763 0.46828 0.0
C217 C 0.65706 0.41328 0.49157 0.0
C218 C 0.79382 0.20422 0.46599 0.0
C219 C 0.76476 0.32262 0.47593 0.0
C220 C 0.83969 0.16004 0.45175 0.0
C221 C 0.9082 0.18342 0.43682 0.0
C222 C 0.81577 0.27284 0.46435 0.0
C223 C 0.92897 0.25188 0.43618 0.0
C224 C 0.76944 0.39278 0.46079 0.0
C225 C 0.65661 0.34361 0.50796 0.0
N226 N 0.88251 0.29458 0.44949 0.0
N227 N 0.70906 0.30021 0.4993 0.0
H228 H 0.37654 0.34843 0.46454 0.0
H229 H 0.9868 0.21712 0.55322 0.0
H230 H 0.23367 0.47982 0.51155 0.0
H231 H 0.17755 0.08667 0.55061 0.0
H232 H 0.06101 0.31707 0.52405 0.0
H233 H 0.28528 0.25454 0.47967 0.0
C234 C 0.32449 0.35814 0.47671 0.0
C235 C 0.31172 0.42168 0.48649 0.0
C236 C 0.0863 0.26641 0.52969 0.0
C237 C 0.20879 0.31502 0.50469 0.0
C238 C 0.0442 0.20989 0.54629 0.0
C239 C 0.07655 0.14426 0.55375 0.0
C240 C 0.1606 0.25649 0.52038 0.0
C241 C 0.15125 0.13686 0.54501 0.0
C242 C 0.2731 0.30452 0.48582 0.0
C243 C 0.24468 0.43147 0.50325 0.0
N244 N 0.19068 0.19217 0.52849 0.0
N245 N 0.19576 0.3785 0.51208 0.0
H246 H 0.24948 0.6716 0.52702 0.0
H247 H 0.18839 0.06475 0.42938 0.0
H248 H 0.41493 0.79158 0.46174 0.0
H249 H 0.00645 0.92084 0.45152 0.0
H250 H 0.2769 0.9724 0.45499 0.0
H251 H 0.1637 0.77115 0.51376 0.0
C252 C 0.26812 0.71932 0.51061 0.0
C253 C 0.33873 0.72375 0.4952 0.0
C254 C 0.21748 0.96126 0.45458 0.0
C255 C 0.24234 0.83665 0.48019 0.0
C256 C 0.16733 0.01383 0.44012 0.0
C257 C 0.09056 -0.00011 0.43867 0.0
C258 C 0.19028 0.89473 0.4679 0.0
C259 C 0.06553 0.93303 0.45234 0.0
C260 C 0.21927 0.77569 0.50284 0.0
C261 C 0.36047 0.78625 0.47384 0.0
N262 N 0.11524 0.88274 0.46649 0.0
N263 N 0.31245 0.84024 0.4669 0.0
H264 H 0.87825 0.95735 0.20436 0.0
H265 H 0.10336 0.01694 0.36413 0.0
H266 H 0.09646 0.86141 0.22358 0.0
H267 H 0.86999 0.96635 0.37904 0.0
H268 H 0.10406 0.95517 0.31424 0.0
H269 H 0.87032 0.95565 0.26834 0.0
C270 C 0.92384 0.93416 0.22188 0.0
C271 C 0.98916 0.9111 0.20801 0.0
C272 C 0.05307 0.95616 0.32895 0.0
C273 C 0.98079 0.91144 0.28145 0.0
C274 C 0.05269 0.99131 0.35742 0.0
C275 C 0.98601 0.99822 0.37498 0.0
C276 C 0.98572 0.92974 0.31732 0.0
C277 C 0.92169 0.96451 0.3651 0.0
C278 C 0.91909 0.93342 0.25858 0.0
C279 C 0.04634 0.88256 0.2326 0.0
N280 N 0.9224 0.9334 0.33607 0.0
N281 N 0.0418 0.88539 0.26803 0.0
H282 H 0.96571 0.06193 0.80408 0.0
H283 H 0.17756 0.00532 0.64421 0.0
H284 H 0.20194 0.1105 0.81043 0.0
H285 H 0.98547 0.13903 0.62749 0.0
H286 H 0.19479 0.0301 0.70551 0.0
H287 H 0.97384 0.07487 0.73959 0.0
C288 C 0.01914 0.0767 0.79222 0.0
C289 C 0.08303 0.08598 0.81336 0.0
C290 C 0.1505 0.05563 0.68784 0.0
C291 C 0.09274 0.09716 0.739 0.0
C292 C 0.14061 0.04135 0.65323 0.0
C293 C 0.07948 0.06963 0.63153 0.0
C294 C 0.09778 0.09703 0.70043 0.0
C295 C 0.03296 0.11631 0.64382 0.0
C296 C 0.02359 0.08345 0.75522 0.0
C297 C 0.15123 0.1017 0.79568 0.0
N298 N 0.04175 0.1272 0.67791 0.0
N299 N 0.15464 0.10567 0.75946 0.0
H300 H 0.36222 0.48204 0.70183 0.0
H301 H 0.60507 0.47199 0.87094 0.0
H302 H 0.58711 0.40125 0.7032 0.0
H303 H 0.37863 0.39679 0.88267 0.0
H304 H 0.60316 0.45018 0.80948 0.0
H305 H 0.36596 0.45705 0.76733 0.0
C306 C 0.41199 0.458 0.71555 0.0
C307 C 0.4749 0.44485 0.69634 0.0
C308 C 0.55443 0.43708 0.82579 0.0
C309 C 0.47979 0.41836 0.77179 0.0
C310 C 0.55572 0.44893 0.86095 0.0
C311 C 0.49141 0.43736 0.88163 0.0
C312 C 0.48769 0.41541 0.81099 0.0
C313 C 0.42843 0.40855 0.8671 0.0
C314 C 0.41394 0.44396 0.75311 0.0
C315 C 0.53805 0.41482 0.7164 0.0
N316 N 0.42723 0.40044 0.83221 0.0
N317 N 0.53949 0.40403 0.75297 0.0
H318 H 0.40522 0.6007 0.29002 0.0
H319 H 0.6855 0.53517 0.14991 0.0
H320 H 0.63143 0.67868 0.29394 0.0
H321 H 0.45251 0.57126 0.12072 0.0
H322 H 0.67011 0.59286 0.20119 0.0
H323 H 0.42062 0.59381 0.22735 0.0
C324 C 0.45767 0.61792 0.27777 0.0
C325 C 0.5175 0.63929 0.29801 0.0
C326 C 0.62268 0.58953 0.18312 0.0
C327 C 0.53603 0.62896 0.22596 0.0
C328 C 0.6316 0.55693 0.15388 0.0
C329 C 0.5696 0.54679 0.13201 0.0
C330 C 0.55095 0.61088 0.19064 0.0
C331 C 0.5009 0.57606 0.13792 0.0
C332 C 0.46644 0.61356 0.24179 0.0
C333 C 0.58441 0.65952 0.28011 0.0
N334 N 0.49278 0.60516 0.16731 0.0
N335 N 0.59243 0.6524 0.24539 0.0
loop_
_geom_bond_atom_site_label_1
_geom_bond_atom_site_label_2
_geom_bond_distance
_geom_bond_site_symmetry_2
_ccdc_geom_bond_type
C0 O16 1.251 . S
C0 O18 1.254 1_554 S
N1 C2 1.333 1_445 S
N1 C6 1.307 . S
N1 Zn7 2.020 . S
C2 N1 1.333 1_665 S
C2 C3 1.379 . S
C2 H20 0.952 . S
C3 C2 1.379 . S
C3 C4 1.390 1_655 S
C3 H30 0.949 . S
C4 C3 1.390 1_455 S
C4 C5 1.357 1_565 S
C5 C4 1.357 1_545 S
C5 C6 1.370 . S
C5 H31 0.950 . S
C6 N1 1.307 . S
C6 C5 1.370 . S
C6 H24 0.948 . S
Zn7 N1 2.020 . S
Zn7 O16 2.039 1_445 S
Zn7 O22 2.034 1_455 S
Zn7 O26 2.025 . S
Zn7 O28 2.024 1_545 S
C8 O27 1.246 1_554 S
C8 O28 1.249 . S
N9 C10 1.307 1_455 S
N9 C11 1.333 . S
N9 Zn15 2.020 . S
C10 N9 1.307 1_655 S
C10 C14 1.370 . S
C10 H21 0.948 . S
C11 N9 1.333 . S
C11 C12 1.379 . S
C11 H19 0.952 . S
C12 C11 1.379 . S
C12 C13 1.390 . S
C12 H32 0.949 . S
C13 C12 1.390 . S
C13 C14 1.357 1_455 S
C14 C10 1.370 . S
C14 C13 1.357 1_655 S
C14 H33 0.950 . S
Zn15 N9 2.020 . S
Zn15 O18 2.025 1_445 S
Zn15 O23 2.024 1_455 S
Zn15 O25 2.039 . S
Zn15 O27 2.034 1_545 S
O16 C0 1.251 . S
O16 Zn7 2.039 1_665 S
C17 O22 1.246 . S
C17 O23 1.249 1_554 S
O18 C0 1.254 1_556 S
O18 Zn15 2.025 1_665 S
H19 C11 0.952 . S
H20 C2 0.952 . S
H21 C10 0.948 . S
O22 Zn7 2.034 1_655 S
O22 C17 1.246 . S
O23 Zn15 2.024 1_655 S
O23 C17 1.249 1_556 S
H24 C6 0.948 . S
O25 Zn15 2.039 . S
O25 C29 1.251 1_556 S
O26 Zn7 2.025 . S
O26 C29 1.254 . S
O27 C8 1.246 1_556 S
O27 Zn15 2.034 1_565 S
O28 Zn7 2.024 1_565 S
O28 C8 1.249 . S
C29 O25 1.251 1_554 S
C29 O26 1.254 . S
H30 C3 0.949 . S
H31 C5 0.950 . S
H32 C12 0.949 . S
H33 C14 0.950 . S
C34 O50 1.251 . S
C34 O52 1.254 . S
N35 C36 1.333 . S
N35 C40 1.307 . S
N35 Zn41 2.020 . S
C36 N35 1.333 . S
C36 C37 1.379 . S
C36 H54 0.952 . S
C37 C36 1.379 . S
C37 C38 1.390 . S
C37 H64 0.949 . S
C38 C37 1.390 . S
C38 C39 1.357 . S
C39 C38 1.357 . S
C39 C40 1.370 . S
C39 H65 0.950 . S
C40 N35 1.307 . S
C40 C39 1.370 . S
C40 H58 0.948 . S
Zn41 N35 2.020 . S
Zn41 O50 2.039 . S
Zn41 O56 2.034 . S
Zn41 O60 2.025 . S
Zn41 O62 2.024 . S
C42 O61 1.246 . S
C42 O62 1.249 . S
N43 C44 1.307 . S
N43 C45 1.333 . S
N43 Zn49 2.020 . S
C44 N43 1.307 . S
C44 C48 1.370 . S
C44 H55 0.948 . S
C45 N43 1.333 . S
C45 C46 1.379 . S
C45 H53 0.952 . S
C46 C45 1.379 . S
C46 C47 1.390 . S
C46 H66 0.949 . S
C47 C46 1.390 . S
C47 C48 1.357 . S
C48 C44 1.370 . S
C48 C47 1.357 . S
C48 H67 0.950 . S
Zn49 N43 2.020 . S
Zn49 O52 2.025 . S
Zn49 O57 2.024 . S
Zn49 O59 2.039 . S
Zn49 O61 2.034 . S
O50 C34 1.251 . S
O50 Zn41 2.039 . S
C51 O56 1.246 . S
C51 O57 1.249 . S
O52 C34 1.254 . S
O52 Zn49 2.025 . S
H53 C45 0.952 . S
H54 C36 0.952 . S
H55 C44 0.948 . S
O56 Zn41 2.034 . S
O56 C51 1.246 . S
O57 Zn49 2.024 . S
O57 C51 1.249 . S
H58 C40 0.948 . S
O59 Zn49 2.039 . S
O59 C63 1.251 . S
O60 Zn41 2.025 . S
O60 C63 1.254 . S
O61 C42 1.246 . S
O61 Zn49 2.034 . S
O62 Zn41 2.024 . S
O62 C42 1.249 . S
C63 O59 1.251 . S
C63 O60 1.254 . S
H64 C37 0.949 . S
H65 C39 0.950 . S
H66 C46 0.949 . S
H67 C48 0.950 . S
C68 N69 1.317 1_545 S
C68 N70 1.348 1_455 S
C68 C71 1.485 1_545 S
N69 C68 1.317 1_565 S
N69 N73 1.370 . S
N70 C68 1.348 1_655 S
N70 C72 1.346 . S
C71 C68 1.485 1_565 S
C71 H75 0.960 1_455 S
C71 H76 0.961 1_565 S
C71 H77 0.960 . S
C72 N70 1.346 . S
C72 N73 1.308 1_645 S
C72 C74 1.486 . S
N73 N69 1.370 . S
N73 C72 1.308 1_465 S
C74 C72 1.486 . S
C74 H78 0.960 . S
C74 H79 0.960 . S
C74 H80 0.959 . S
H75 C71 0.960 1_655 S
H76 C71 0.961 1_545 S
H77 C71 0.960 . S
H78 C74 0.960 . S
H79 C74 0.960 . S
H80 C74 0.959 . S
C81 N82 1.317 . S
C81 N83 1.348 1_445 S
C81 C84 1.485 . S
N82 C81 1.317 . S
N82 N86 1.370 . S
N83 C81 1.348 1_665 S
N83 C85 1.346 1_565 S
C84 C81 1.485 . S
C84 H88 0.968 . S
C84 H89 0.961 . S
C84 H90 0.960 . S
C85 N83 1.346 1_545 S
C85 N86 1.307 1_655 S
C85 C87 1.486 1_545 S
N86 N82 1.370 . S
N86 C85 1.307 1_455 S
C87 C85 1.486 1_565 S
C87 H91 0.960 . S
C87 H92 0.960 . S
C87 H93 0.959 . S
H88 C84 0.968 . S
H89 C84 0.961 . S
H90 C84 0.960 . S
H91 C87 0.960 . S
H92 C87 0.960 . S
H93 C87 0.959 . S
C94 N95 1.317 . S
C94 N96 1.348 . S
C94 C97 1.485 1_556 S
N95 C94 1.317 . S
N95 N99 1.370 . S
N96 C94 1.348 . S
N96 C98 1.346 . S
C97 C94 1.485 1_554 S
C97 H101 0.960 . S
C97 H102 0.961 . S
C97 H103 0.960 . S
C98 N96 1.346 . S
C98 N99 1.307 . S
C98 C100 1.486 . S
N99 N95 1.370 . S
N99 C98 1.307 . S
C100 C98 1.486 . S
C100 H104 0.960 . S
C100 H105 0.960 . S
C100 H106 0.959 . S
H101 C97 0.960 . S
H102 C97 0.961 . S
H103 C97 0.960 . S
H104 C100 0.960 . S
H105 C100 0.960 . S
H106 C100 0.959 . S
C107 N108 1.317 . S
C107 N109 1.348 . S
C107 C110 1.485 1_554 S
N108 C107 1.317 . S
N108 N112 1.370 . S
N109 C107 1.348 . S
N109 C111 1.346 . S
C110 C107 1.485 1_556 S
C110 H114 0.960 . S
C110 H115 0.961 . S
C110 H116 0.960 . S
C111 N109 1.346 . S
C111 N112 1.307 . S
C111 C113 1.486 . S
N112 N108 1.370 . S
N112 C111 1.307 . S
C113 C111 1.486 . S
C113 H117 0.960 . S
C113 H118 0.960 . S
C113 H119 0.959 . S
H114 C110 0.960 . S
H115 C110 0.961 . S
H116 C110 0.960 . S
H117 C113 0.960 . S
H118 C113 0.960 . S
H119 C113 0.959 . S
H120 C126 0.930 . S
H121 C130 0.930 . S
H122 C135 0.929 . S
H123 C133 0.929 . S
H124 C128 0.929 . S
H125 C134 0.929 . S
C126 H120 0.930 . S
C126 C127 1.367 . S
C126 C134 1.378 . S
C127 C126 1.367 . S
C127 C135 1.433 1_554 S
C128 H124 0.929 . S
C128 C130 1.378 . S
C128 C132 1.350 1_556 S
C129 C132 1.463 . S
C129 C134 1.350 . S
C129 N137 1.427 1_554 S
C130 H121 0.930 . S
C130 C128 1.378 . S
C130 C131 1.367 1_556 S
C131 C130 1.367 1_554 S
C131 C133 1.433 . S
C132 C128 1.350 1_554 S
C132 C129 1.463 . S
C132 N136 1.427 . S
C133 H123 0.929 . S
C133 C131 1.433 . S
C133 N136 1.384 . S
C134 H125 0.929 . S
C134 C126 1.378 . S
C134 C129 1.350 . S
C135 H122 0.929 . S
C135 C127 1.433 1_556 S
C135 N137 1.384 . S
N136 C132 1.427 . S
N136 C133 1.384 . S
N137 C129 1.427 1_556 S
N137 C135 1.384 . S
H138 C144 0.930 . S
H139 C148 0.930 . S
H140 C153 0.929 . S
H141 C151 0.929 . S
H142 C146 0.929 . S
H143 C152 0.929 . S
C144 H138 0.930 . S
C144 C145 1.367 1_556 S
C144 C152 1.378 . S
C145 C144 1.367 1_554 S
C145 C153 1.433 . S
C146 H142 0.929 . S
C146 C148 1.378 . S
C146 C150 1.350 . S
C147 C150 1.463 . S
C147 C152 1.350 1_554 S
C147 N155 1.427 . S
C148 H139 0.930 . S
C148 C146 1.378 . S
C148 C149 1.367 1_554 S
C149 C148 1.367 1_556 S
C149 C151 1.433 . S
C150 C146 1.350 . S
C150 C147 1.463 . S
C150 N154 1.427 1_554 S
C151 H141 0.929 . S
C151 C149 1.433 . S
C151 N154 1.384 . S
C152 H143 0.929 . S
C152 C144 1.378 . S
C152 C147 1.350 1_556 S
C153 H140 0.929 . S
C153 C145 1.433 . S
C153 N155 1.384 . S
N154 C150 1.427 1_556 S
N154 C151 1.384 . S
N155 C147 1.427 . S
N155 C153 1.384 . S
H156 C162 0.930 . S
H157 C166 0.930 . S
H158 C171 0.929 . S
H159 C169 0.929 1_556 S
H160 C164 0.929 . S
H161 C170 0.929 . S
C162 H156 0.930 . S
C162 C163 1.367 1_556 S
C162 C170 1.378 . S
C163 C162 1.367 1_554 S
C163 C171 1.433 . S
C164 H160 0.929 . S
C164 C166 1.378 . S
C164 C168 1.350 . S
C165 C168 1.463 . S
C165 C170 1.350 1_554 S
C165 N173 1.427 . S
C166 H157 0.930 . S
C166 C164 1.378 . S
C166 C167 1.367 . S
C167 C166 1.367 . S
C167 C169 1.433 . S
C168 C164 1.350 . S
C168 C165 1.463 . S
C168 N172 1.427 . S
C169 H159 0.929 1_554 S
C169 C167 1.433 . S
C169 N172 1.384 . S
C170 H161 0.929 . S
C170 C162 1.378 . S
C170 C165 1.350 1_556 S
C171 H158 0.929 . S
C171 C163 1.433 . S
C171 N173 1.384 . S
N172 C168 1.427 . S
N172 C169 1.384 . S
N173 C165 1.427 . S
N173 C171 1.384 . S
H174 C180 0.930 . S
H175 C184 0.930 . S
H176 C189 0.929 . S
H177 C187 0.929 . S
H178 C182 0.929 . S
H179 C188 0.929 . S
C180 H174 0.930 . S
C180 C181 1.367 . S
C180 C188 1.378 . S
C181 C180 1.367 . S
C181 C189 1.433 1_554 S
C182 H178 0.929 . S
C182 C184 1.378 . S
C182 C186 1.350 . S
C183 C186 1.463 . S
C183 C188 1.350 1_556 S
C183 N191 1.427 . S
C184 H175 0.930 . S
C184 C182 1.378 . S
C184 C185 1.367 . S
C185 C184 1.367 . S
C185 C187 1.433 1_556 S
C186 C182 1.350 . S
C186 C183 1.463 . S
C186 N190 1.427 1_556 S
C187 H177 0.929 . S
C187 C185 1.433 1_554 S
C187 N190 1.384 . S
C188 H179 0.929 . S
C188 C180 1.378 . S
C188 C183 1.350 1_554 S
C189 H176 0.929 . S
C189 C181 1.433 1_556 S
C189 N191 1.384 . S
N190 C186 1.427 1_554 S
N190 C187 1.384 . S
N191 C183 1.427 . S
N191 C189 1.384 . S
H192 C198 0.930 . S
H193 C202 0.930 . S
H194 C207 0.929 . S
H195 C205 0.929 . S
H196 C200 0.929 . S
H197 C206 0.929 . S
C198 H192 0.930 . S
C198 C199 1.367 . S
C198 C206 1.378 . S
C199 C198 1.367 . S
C199 C207 1.433 . S
C200 H196 0.929 . S
C200 C202 1.378 . S
C200 C204 1.350 . S
C201 C204 1.463 . S
C201 C206 1.350 . S
C201 N209 1.427 . S
C202 H193 0.930 . S
C202 C200 1.378 . S
C202 C203 1.367 . S
C203 C202 1.367 . S
C203 C205 1.433 . S
C204 C200 1.350 . S
C204 C201 1.463 . S
C204 N208 1.427 . S
C205 H195 0.929 . S
C205 C203 1.433 . S
C205 N208 1.384 . S
C206 H197 0.929 . S
C206 C198 1.378 . S
C206 C201 1.350 . S
C207 H194 0.929 . S
C207 C199 1.433 . S
C207 N209 1.384 . S
N208 C204 1.427 . S
N208 C205 1.384 . S
N209 C201 1.427 . S
N209 C207 1.384 . S
H210 C216 0.930 . S
H211 C220 0.930 . S
H212 C225 0.929 . S
H213 C223 0.929 . S
H214 C218 0.929 . S
H215 C224 0.929 . S
C216 H210 0.930 . S
C216 C217 1.367 . S
C216 C224 1.378 . S
C217 C216 1.367 . S
C217 C225 1.433 . S
C218 H214 0.929 . S
C218 C220 1.378 . S
C218 C222 1.350 . S
C219 C222 1.463 . S
C219 C224 1.350 . S
C219 N227 1.427 . S
C220 H211 0.930 . S
C220 C218 1.378 . S
C220 C221 1.367 . S
C221 C220 1.367 . S
C221 C223 1.433 . S
C222 C218 1.350 . S
C222 C219 1.463 . S
C222 N226 1.427 . S
C223 H213 0.929 . S
C223 C221 1.433 . S
C223 N226 1.384 . S
C224 H215 0.929 . S
C224 C216 1.378 . S
C224 C219 1.350 . S
C225 H212 0.929 . S
C225 C217 1.433 . S
C225 N227 1.384 . S
N226 C222 1.427 . S
N226 C223 1.384 . S
N227 C219 1.427 . S
N227 C225 1.384 . S
H228 C234 0.930 . S
H229 C238 0.930 . S
H230 C243 0.929 . S
H231 C241 0.929 . S
H232 C236 0.929 . S
H233 C242 0.929 . S
C234 H228 0.930 . S
C234 C235 1.367 . S
C234 C242 1.378 . S
C235 C234 1.367 . S
C235 C243 1.433 . S
C236 H232 0.929 . S
C236 C238 1.378 . S
C236 C240 1.350 . S
C237 C240 1.463 . S
C237 C242 1.350 . S
C237 N245 1.427 . S
C238 H229 0.930 . S
C238 C236 1.378 . S
C238 C239 1.367 . S
C239 C238 1.367 . S
C239 C241 1.433 . S
C240 C236 1.350 . S
C240 C237 1.463 . S
C240 N244 1.427 . S
C241 H231 0.929 . S
C241 C239 1.433 . S
C241 N244 1.384 . S
C242 H233 0.929 . S
C242 C234 1.378 . S
C242 C237 1.350 . S
C243 H230 0.929 . S
C243 C235 1.433 . S
C243 N245 1.384 . S
N244 C240 1.427 . S
N244 C241 1.384 . S
N245 C237 1.427 . S
N245 C243 1.384 . S
H246 C252 0.930 . S
H247 C256 0.930 . S
H248 C261 0.929 . S
H249 C259 0.929 . S
H250 C254 0.929 . S
H251 C260 0.929 . S
C252 H246 0.930 . S
C252 C253 1.367 . S
C252 C260 1.378 . S
C253 C252 1.367 . S
C253 C261 1.433 . S
C254 H250 0.929 . S
C254 C256 1.378 . S
C254 C258 1.350 . S
C255 C258 1.463 . S
C255 C260 1.350 . S
C255 N263 1.427 . S
C256 H247 0.930 . S
C256 C254 1.378 . S
C256 C257 1.367 . S
C257 C256 1.367 . S
C257 C259 1.433 . S
C258 C254 1.350 . S
C258 C255 1.463 . S
C258 N262 1.427 . S
C259 H249 0.929 . S
C259 C257 1.433 . S
C259 N262 1.384 . S
C260 H251 0.929 . S
C260 C252 1.378 . S
C260 C255 1.350 . S
C261 H248 0.929 . S
C261 C253 1.433 . S
C261 N263 1.384 . S
N262 C258 1.427 . S
N262 C259 1.384 . S
N263 C255 1.427 . S
N263 C261 1.384 . S
H264 C270 0.930 . S
H265 C274 0.930 . S
H266 C279 0.929 . S
H267 C277 0.929 . S
H268 C272 0.929 . S
H269 C278 0.929 . S
C270 H264 0.930 . S
C270 C271 1.367 1_645 S
C270 C278 1.378 . S
C271 C270 1.367 1_465 S
C271 C279 1.433 . S
C272 H268 0.929 . S
C272 C274 1.378 . S
C272 C276 1.350 . S
C273 C276 1.463 . S
C273 C278 1.350 1_465 S
C273 N281 1.427 . S
C274 H265 0.930 . S
C274 C272 1.378 . S
C274 C275 1.367 . S
C275 C274 1.367 . S
C275 C277 1.433 1_465 S
C276 C272 1.350 . S
C276 C273 1.463 . S
C276 N280 1.427 1_465 S
C277 H267 0.929 . S
C277 C275 1.433 1_645 S
C277 N280 1.384 . S
C278 H269 0.929 . S
C278 C270 1.378 . S
C278 C273 1.350 1_645 S
C279 H266 0.929 . S
C279 C271 1.433 . S
C279 N281 1.384 . S
N280 C276 1.427 1_645 S
N280 C277 1.384 . S
N281 C273 1.427 . S
N281 C279 1.384 . S
H282 C288 0.930 . S
H283 C292 0.930 . S
H284 C297 0.929 . S
H285 C295 0.929 . S
H286 C290 0.929 . S
H287 C296 0.929 . S
C288 H282 0.930 . S
C288 C289 1.367 1_655 S
C288 C296 1.378 . S
C289 C288 1.367 1_455 S
C289 C297 1.433 . S
C290 H286 0.929 . S
C290 C292 1.378 . S
C290 C294 1.350 . S
C291 C294 1.463 . S
C291 C296 1.350 1_455 S
C291 N299 1.427 . S
C292 H283 0.930 . S
C292 C290 1.378 . S
C292 C293 1.367 . S
C293 C292 1.367 . S
C293 C295 1.433 1_455 S
C294 C290 1.350 . S
C294 C291 1.463 . S
C294 N298 1.427 1_455 S
C295 H285 0.929 . S
C295 C293 1.433 1_655 S
C295 N298 1.384 . S
C296 H287 0.929 . S
C296 C288 1.378 . S
C296 C291 1.350 1_655 S
C297 H284 0.929 . S
C297 C289 1.433 . S
C297 N299 1.384 . S
N298 C294 1.427 1_655 S
N298 C295 1.384 . S
N299 C291 1.427 . S
N299 C297 1.384 . S
H300 C306 0.930 . S
H301 C310 0.930 . S
H302 C315 0.929 . S
H303 C313 0.929 . S
H304 C308 0.929 . S
H305 C314 0.929 . S
C306 H300 0.930 . S
C306 C307 1.367 . S
C306 C314 1.378 . S
C307 C306 1.367 . S
C307 C315 1.433 . S
C308 H304 0.929 . S
C308 C310 1.378 . S
C308 C312 1.350 . S
C309 C312 1.463 . S
C309 C314 1.350 . S
C309 N317 1.427 . S
C310 H301 0.930 . S
C310 C308 1.378 . S
C310 C311 1.367 . S
C311 C310 1.367 . S
C311 C313 1.433 . S
C312 C308 1.350 . S
C312 C309 1.463 . S
C312 N316 1.427 . S
C313 H303 0.929 . S
C313 C311 1.433 . S
C313 N316 1.384 . S
C314 H305 0.929 . S
C314 C306 1.378 . S
C314 C309 1.350 . S
C315 H302 0.929 . S
C315 C307 1.433 . S
C315 N317 1.384 . S
N316 C312 1.427 . S
N316 C313 1.384 . S
N317 C309 1.427 . S
N317 C315 1.384 . S
H318 C324 0.930 . S
H319 C328 0.930 . S
H320 C333 0.929 . S
H321 C331 0.929 . S
H322 C326 0.929 . S
H323 C332 0.929 . S
C324 H318 0.930 . S
C324 C325 1.367 . S
C324 C332 1.378 . S
C325 C324 1.367 . S
C325 C333 1.433 . S
C326 H322 0.929 . S
C326 C328 1.378 . S
C326 C330 1.350 . S
C327 C330 1.463 . S
C327 C332 1.350 . S
C327 N335 1.427 . S
C328 H319 0.930 . S
C328 C326 1.378 . S
C328 C329 1.367 . S
C329 C328 1.367 . S
C329 C331 1.433 . S
C330 C326 1.350 . S
C330 C327 1.463 . S
C330 N334 1.427 . S
C331 H321 0.929 . S
C331 C329 1.433 . S
C331 N334 1.384 . S
C332 H323 0.929 . S
C332 C324 1.378 . S
C332 C327 1.350 . S
C333 H320 0.929 . S
C333 C325 1.433 . S
C333 N335 1.384 . S
N334 C330 1.427 . S
N334 C331 1.384 . S
N335 C327 1.427 . S
N335 C333 1.384 . S
C131 N109 1.362 . S
C127 C29 1.371 . S
C145 C8 1.389 . S
C149 N96 1.378 . S
C163 C0 1.498 . S
C167 N108 1.494 . S
C181 C17 1.488 . S
C185 N95 1.489 . S
C199 C63 1.375 . S
C203 N83 1.354 . S
C217 C42 1.389 . S
C221 N70 1.378 . S
C239 N82 1.494 . S
C235 C34 1.498 . S
C257 N69 1.488 . S
C253 C51 1.481 . S
C271 C4 1.518 . S
C275 N73 1.514 . S
C289 C13 1.527 . S
C293 N86 1.524 . S
C311 N99 1.514 . S
C307 C38 1.519 . S
C325 C47 1.526 . S
C329 N112 1.525 . S
