# Generated by pormake.
# Topology nom, (4,4)-cn, num edge types: 1
# Building blocks:
#     Node 0, Type 0, BuildingBlock: KUFVIS_clean_linker_0, # of connection points: 4
#     Node 1, Type 0, BuildingBlock: KUFVIS_clean_linker_0, # of connection points: 4
#     Node 2, Type 0, BuildingBlock: KUFVIS_clean_linker_0, # of connection points: 4
#     Node 3, Type 0, BuildingBlock: KUFVIS_clean_linker_0, # of connection points: 4
#     Node 4, Type 0, BuildingBlock: KUFVIS_clean_linker_0, # of connection points: 4
#     Node 5, Type 0, BuildingBlock: KUFVIS_clean_linker_0, # of connection points: 4
#     Node 6, Type 1, BuildingBlock: QUQFOY_clean_sbu_3, # of connection points: 4
#     Node 7, Type 1, BuildingBlock: QUQFOY_clean_sbu_3, # of connection points: 4
#     Node 8, Type 1, BuildingBlock: QUQFOY_clean_sbu_3, # of connection points: 4
#     Node 9, Type 1, BuildingBlock: QUQFOY_clean_sbu_3, # of connection points: 4
#     Node 10, Type 1, BuildingBlock: QUQFOY_clean_sbu_3, # of connection points: 4
#     Node 11, Type 1, BuildingBlock: QUQFOY_clean_sbu_3, # of connection points: 4
#     Edge 12, Type (0, 1), BuildingBlock: XIVTED_clean_linker_0, # of connection points: 2
#     Edge 13, Type (0, 1), BuildingBlock: XIVTED_clean_linker_0, # of connection points: 2
#     Edge 14, Type (0, 1), BuildingBlock: XIVTED_clean_linker_0, # of connection points: 2
#     Edge 15, Type (0, 1), BuildingBlock: XIVTED_clean_linker_0, # of connection points: 2
#     Edge 16, Type (0, 1), BuildingBlock: XIVTED_clean_linker_0, # of connection points: 2
#     Edge 17, Type (0, 1), BuildingBlock: XIVTED_clean_linker_0, # of connection points: 2
#     Edge 18, Type (0, 1), BuildingBlock: XIVTED_clean_linker_0, # of connection points: 2
#     Edge 19, Type (0, 1), BuildingBlock: XIVTED_clean_linker_0, # of connection points: 2
#     Edge 20, Type (0, 1), BuildingBlock: XIVTED_clean_linker_0, # of connection points: 2
#     Edge 21, Type (0, 1), BuildingBlock: XIVTED_clean_linker_0, # of connection points: 2
#     Edge 22, Type (0, 1), BuildingBlock: XIVTED_clean_linker_0, # of connection points: 2
#     Edge 23, Type (0, 1), BuildingBlock: XIVTED_clean_linker_0, # of connection points: 2
#     Edge 24, Type (0, 1), BuildingBlock: XIVTED_clean_linker_0, # of connection points: 2
#     Edge 25, Type (0, 1), BuildingBlock: XIVTED_clean_linker_0, # of connection points: 2
#     Edge 26, Type (0, 1), BuildingBlock: XIVTED_clean_linker_0, # of connection points: 2
#     Edge 27, Type (0, 1), BuildingBlock: XIVTED_clean_linker_0, # of connection points: 2
#     Edge 28, Type (0, 1), BuildingBlock: XIVTED_clean_linker_0, # of connection points: 2
#     Edge 29, Type (0, 1), BuildingBlock: XIVTED_clean_linker_0, # of connection points: 2
#     Edge 30, Type (0, 1), BuildingBlock: XIVTED_clean_linker_0, # of connection points: 2
#     Edge 31, Type (0, 1), BuildingBlock: XIVTED_clean_linker_0, # of connection points: 2
#     Edge 32, Type (0, 1), BuildingBlock: XIVTED_clean_linker_0, # of connection points: 2
#     Edge 33, Type (0, 1), BuildingBlock: XIVTED_clean_linker_0, # of connection points: 2
#     Edge 34, Type (0, 1), BuildingBlock: XIVTED_clean_linker_0, # of connection points: 2
#     Edge 35, Type (0, 1), BuildingBlock: XIVTED_clean_linker_0, # of connection points: 2
# Relax obj value: 0.003
# Max RMSD: 0.047
# Mean RMSD: 0.035
data_MOF--net-nom--node1-QUQFOY_clean_sbu_3--node2-KUFVIS_clean_linker_0--edge1-XIVTED_clean_linker_0
_symmetry_space_group_name_H-M    P1
_symmetry_Int_Tables_number       1
_symmetry_cell_setting            triclinic
loop_
_symmetry_equiv_pos_as_xyz
'x, y, z'
_cell_length_a     45.899517
_cell_length_b     47.111411
_cell_length_c     47.702167
_cell_angle_alpha  89.918073
_cell_angle_beta   89.983917
_cell_angle_gamma 120.05146
loop_
_atom_site_label
_atom_site_type_symbol
_atom_site_fract_x
_atom_site_fract_y
_atom_site_fract_z
_atom_type_partial_charge
H0 H 0.12632 0.58804 0.31841 0.0
H1 H 0.04702 0.5695 0.26061 0.0
H2 H 0.02596 0.51191 0.3366 0.0
H3 H 0.97678 0.51521 0.3317 0.0
H4 H 0.90133 0.46361 0.26926 0.0
H5 H 1.00538 0.51634 0.24516 0.0
C6 C 0.1 0.57416 0.31242 0.0
C7 C 0.0773 0.54933 0.33013 0.0
C8 C 0.08936 0.58195 0.28758 0.0
C9 C 0.05531 0.5634 0.27979 0.0
C10 C 0.03189 0.53791 0.2974 0.0
C11 C 0.04326 0.53136 0.32278 0.0
C12 C 0.99568 0.51799 0.28947 0.0
C13 C 0.97025 0.50759 0.3101 0.0
C14 C 0.93624 0.48735 0.30297 0.0
C15 C 0.92767 0.47806 0.275 0.0
C16 C 0.95233 0.48874 0.25407 0.0
C17 C 0.98632 0.50869 0.26135 0.0
H18 H 0.53317 0.11077 0.49778 0.0
H19 H 0.48735 0.04034 0.43222 0.0
H20 H 0.49899 0.0101 0.51566 0.0
H21 H 0.45754 0.9617 0.5033 0.0
H22 H 0.44699 0.89624 0.43707 0.0
H23 H 0.49155 0.99845 0.41902 0.0
C24 C 0.52059 0.08541 0.49086 0.0
C25 C 0.51534 0.06077 0.50982 0.0
C26 C 0.5112 0.07807 0.46288 0.0
C27 C 0.49514 0.04535 0.45389 0.0
C28 C 0.49019 0.01984 0.47265 0.0
C29 C 0.50073 0.02825 0.5008 0.0
C30 C 0.4765 0.9852 0.46263 0.0
C31 C 0.46155 0.95828 0.48152 0.0
C32 C 0.45218 0.92649 0.47246 0.0
C33 C 0.45559 0.92106 0.44421 0.0
C34 C 0.46877 0.94683 0.42491 0.0
C35 C 0.47973 0.9788 0.43417 0.0
H36 H 0.56526 0.43807 0.65042 0.0
H37 H 0.50602 0.46002 0.70623 0.0
H38 H 0.53107 0.50293 0.62302 0.0
H39 H 0.4797 0.49863 0.62862 0.0
H40 H 0.4561 0.55549 0.68434 0.0
H41 H 0.51199 0.51143 0.71521 0.0
C42 C 0.55232 0.45156 0.65483 0.0
C43 C 0.54972 0.47085 0.63389 0.0
C44 C 0.53672 0.44762 0.6808 0.0
C45 C 0.51875 0.46392 0.68628 0.0
C46 C 0.51661 0.48444 0.66559 0.0
C47 C 0.53214 0.48744 0.6393 0.0
C48 C 0.49851 0.50286 0.67114 0.0
C49 C 0.48151 0.50893 0.64926 0.0
C50 C 0.46702 0.52864 0.65377 0.0
C51 C 0.46843 0.54133 0.68053 0.0
C52 C 0.484 0.53472 0.70278 0.0
C53 C 0.49911 0.51558 0.69805 0.0
H54 H 0.14034 0.57112 0.7845 0.0
H55 H 0.05468 0.52426 0.83824 0.0
H56 H 0.042 0.52479 0.74823 0.0
H57 H 0.99226 0.48419 0.75598 0.0
H58 H 0.90804 0.46757 0.80606 0.0
H59 H 1.00677 0.523 0.84054 0.0
C60 C 0.1132 0.55751 0.78689 0.0
C61 C 0.09263 0.54695 0.76313 0.0
C62 C 0.09957 0.54952 0.81382 0.0
C63 C 0.06454 0.53151 0.81724 0.0
C64 C 0.04284 0.52321 0.79378 0.0
C65 C 0.05755 0.53112 0.76671 0.0
C66 C 1.00525 0.50677 0.79744 0.0
C67 C 0.98301 0.48862 0.77536 0.0
C68 C 0.94818 0.47577 0.77805 0.0
C69 C 0.93511 0.47914 0.80345 0.0
C70 C 0.95614 0.49507 0.82615 0.0
C71 C 0.99109 0.50949 0.82298 0.0
H72 H 0.506 0.91525 -0.01311 0.0
H73 H 0.53543 0.9915 0.92591 0.0
H74 H 0.55827 0.015 0.01413 0.0
H75 H 0.55646 0.05949 0.00278 0.0
H76 H 0.60767 0.13732 0.94388 0.0
H77 H 0.58236 0.03985 0.9204 0.0
C78 C 0.51852 0.94122 0.98183 0.0
C79 C 0.53167 0.96421 0.00333 0.0
C80 C 0.52016 0.95102 0.95402 0.0
C81 C 0.53551 0.98453 0.94752 0.0
C82 C 0.54979 0.00851 0.96899 0.0
C83 C 0.54759 0.99772 -0.00296 0.0
C84 C 0.5664 0.04445 0.96226 0.0
C85 C 0.5677 0.06732 0.98225 0.0
C86 C 0.58303 0.10075 0.97561 0.0
C87 C 0.59655 0.11149 0.94893 0.0
C88 C 0.59637 0.08973 0.92893 0.0
C89 C 0.58144 0.0563 0.93571 0.0
H90 H 0.46449 0.58156 0.14401 0.0
H91 H 0.51659 0.55474 0.20308 0.0
H92 H 0.51064 0.5275 0.11537 0.0
H93 H 0.55689 0.52624 0.12527 0.0
H94 H 0.57716 0.46816 0.18228 0.0
H95 H 0.51652 0.50824 0.20971 0.0
C96 C 0.4787 0.56933 0.14851 0.0
C97 C 0.48737 0.55531 0.1267 0.0
C98 C 0.48877 0.56868 0.17595 0.0
C99 C 0.50815 0.55398 0.18177 0.0
C100 C 0.51612 0.5383 0.16018 0.0
C101 C 0.50565 0.53951 0.13249 0.0
C102 C 0.53405 0.51976 0.16654 0.0
C103 C 0.5532 0.51501 0.14573 0.0
C104 C 0.56756 0.49534 0.15106 0.0
C105 C 0.56454 0.4819 0.17776 0.0
C106 C 0.54701 0.48733 0.19909 0.0
C107 C 0.53131 0.50567 0.1933 0.0
C108 C 0.72469 0.43467 0.40279 0.0
O109 O 0.72248 0.45815 0.41359 0.0
Cd110 Cd 0.67254 0.4552 0.43172 0.0
O111 O 0.69874 0.40612 0.40076 0.0
Cd112 Cd 0.63754 0.37858 0.41381 0.0
C113 C 0.6221 0.42893 0.3733 0.0
O114 O 0.64673 0.40608 0.45863 0.0
O115 O 0.59509 0.37863 0.44572 0.0
O116 O 0.63897 0.32807 0.42327 0.0
C117 C 0.61623 0.39637 0.46414 0.0
O118 O 0.63757 0.45122 0.39157 0.0
C119 C 0.61173 0.30921 0.41048 0.0
O120 O 0.62075 0.40133 0.37531 0.0
O121 O 0.59683 0.32265 0.39882 0.0
C122 C 0.3083 0.57283 0.54718 0.0
O123 O 0.28086 0.54836 0.53902 0.0
Cd124 Cd 0.2321 0.55021 0.52316 0.0
O125 O 0.31183 0.60148 0.54756 0.0
Cd126 Cd 0.27745 0.62743 0.53601 0.0
C127 C 0.21614 0.58071 0.5824 0.0
O128 O 0.25217 0.59669 0.49313 0.0
O129 O 0.23023 0.62435 0.50937 0.0
O130 O 0.32839 0.67729 0.52073 0.0
C131 C 0.23087 0.60607 0.49024 0.0
O132 O 0.20496 0.55755 0.56453 0.0
C133 C 0.3226 0.69691 0.53468 0.0
O134 O 0.24379 0.60727 0.57845 0.0
O135 O 0.29611 0.6842 0.54958 0.0
C136 C 0.74183 0.30129 0.69438 0.0
O137 O 0.73985 0.27501 0.68535 0.0
Cd138 Cd 0.68937 0.22304 0.67922 0.0
O139 O 0.71546 0.30191 0.70194 0.0
Cd140 Cd 0.65379 0.26337 0.70629 0.0
C141 C 0.66165 0.20798 0.74731 0.0
O142 O 0.64857 0.2357 0.66283 0.0
O143 O 0.60429 0.21284 0.68894 0.0
O144 O 0.63262 0.29878 0.69028 0.0
C145 C 0.61851 0.21278 0.66615 0.0
O146 O 0.67152 0.19912 0.7258 0.0
C147 C 0.62242 0.30235 0.71403 0.0
O148 O 0.6561 0.23194 0.74633 0.0
O149 O 0.62752 0.28851 0.73481 0.0
C150 C 0.30888 0.59784 0.90853 0.0
O151 O 0.31083 0.5743 0.91961 0.0
Cd152 Cd 0.36138 0.57644 0.93545 0.0
O153 O 0.33529 0.62567 0.90447 0.0
Cd154 Cd 0.39748 0.65409 0.91245 0.0
C155 C 0.40806 0.5986 0.87418 0.0
O156 O 0.39054 0.62851 0.95723 0.0
O157 O 0.4421 0.65798 0.94458 0.0
O158 O 0.39396 0.70354 0.92023 0.0
C159 C 0.42117 0.63886 0.96262 0.0
O160 O 0.3928 0.57767 0.89359 0.0
C161 C 0.41937 0.72236 0.90535 0.0
O162 O 0.41104 0.62701 0.87504 0.0
O163 O 0.4347 0.70944 0.8935 0.0
C164 C 0.72863 0.45157 0.0471 0.0
O165 O 0.75523 0.47553 0.03701 0.0
Cd166 Cd 0.80237 0.47231 0.01922 0.0
O167 O 0.72518 0.42298 0.04833 0.0
Cd168 Cd 0.75612 0.39396 0.03561 0.0
C169 C 0.82301 0.44265 0.07745 0.0
O170 O 0.77852 0.42339 -0.00786 0.0
O171 O 0.79839 0.39255 0.00451 0.0
O172 O 0.70267 0.34592 0.02221 0.0
C173 C 0.79828 0.41267 -0.01309 0.0
O174 O 0.83089 0.46585 0.05993 0.0
C175 C 0.70623 0.32559 0.03724 0.0
O176 O 0.79613 0.41506 0.07449 0.0
O177 O 0.73298 0.33705 0.05173 0.0
C178 C 0.30624 0.74448 0.2031 0.0
O179 O 0.31167 0.77 0.18966 0.0
Cd180 Cd 0.36672 0.81511 0.17799 0.0
O181 O 0.33045 0.74001 0.21026 0.0
Cd182 Cd 0.39262 0.76587 0.20482 0.0
C183 C 0.40575 0.83277 0.24252 0.0
O184 O 0.39577 0.78946 0.15919 0.0
O185 O 0.44348 0.80195 0.1775 0.0
O186 O 0.38616 0.71142 0.19938 0.0
C187 C 0.42756 0.80565 0.1575 0.0
O188 O 0.39395 0.84174 0.22235 0.0
C189 C 0.4088 0.71605 0.21712 0.0
O190 O 0.40611 0.80593 0.24149 0.0
O191 O 0.42348 0.74363 0.22942 0.0
H192 H 0.13378 0.64296 0.30626 0.0
H193 H 0.24689 0.7274 0.17595 0.0
H194 H 0.10364 0.58429 0.2311 0.0
H195 H 0.2869 0.70751 0.25052 0.0
H196 H 0.18939 0.68895 0.19289 0.0
H197 H 0.18509 0.68361 0.28253 0.0
C198 C 0.1376 0.63903 0.28451 0.0
C199 C 0.11483 0.60992 0.27076 0.0
C200 C 0.21093 0.69307 0.20529 0.0
C201 C 0.17308 0.65656 0.24357 0.0
C202 C 0.24355 0.71493 0.1958 0.0
C203 C 0.27159 0.72052 0.21191 0.0
C204 C 0.20662 0.67781 0.23139 0.0
C205 C 0.26601 0.70375 0.23741 0.0
C206 C 0.16683 0.66216 0.27111 0.0
C207 C 0.12069 0.60635 0.24242 0.0
N208 N 0.23414 0.68353 0.24657 0.0
N209 N 0.14966 0.62933 0.22971 0.0
H210 H 0.47537 0.10648 0.44443 0.0
H211 H 0.64324 0.27458 0.42292 0.0
H212 H 0.57272 0.11412 0.43974 0.0
H213 H 0.54698 0.2619 0.39834 0.0
H214 H 0.61752 0.21511 0.42713 0.0
H215 H 0.49976 0.16192 0.42444 0.0
C216 C 0.50158 0.11943 0.43815 0.0
C217 C 0.52209 0.10584 0.44332 0.0
C218 C 0.60206 0.22526 0.42045 0.0
C219 C 0.55043 0.16938 0.42178 0.0
C220 C 0.61673 0.25924 0.41818 0.0
C221 C 0.59717 0.2732 0.41049 0.0
C222 C 0.56739 0.20505 0.41556 0.0
C223 C 0.56296 0.25213 0.40441 0.0
C224 C 0.51559 0.15112 0.42702 0.0
C225 C 0.55611 0.12379 0.43567 0.0
N226 N 0.54902 0.21911 0.4075 0.0
N227 N 0.56936 0.15485 0.42572 0.0
H228 H 0.41827 0.48527 0.61795 0.0
H229 H 0.37017 0.61873 0.56745 0.0
H230 H 0.47499 0.58799 0.63889 0.0
H231 H 0.30916 0.5151 0.5505 0.0
H232 H 0.4131 0.60888 0.58783 0.0
H233 H 0.3828 0.49674 0.58683 0.0
C234 C 0.42366 0.51031 0.61552 0.0
C235 C 0.44928 0.53566 0.63122 0.0
C236 C 0.39043 0.58831 0.57946 0.0
C237 C 0.40871 0.54893 0.59611 0.0
C238 C 0.36587 0.59393 0.56781 0.0
C239 C 0.33578 0.56767 0.55751 0.0
C240 C 0.38491 0.55618 0.58093 0.0
C241 C 0.3318 0.53608 0.5584 0.0
C242 C 0.40329 0.51683 0.59796 0.0
C243 C 0.45512 0.56766 0.62746 0.0
N244 N 0.35593 0.53119 0.57012 0.0
N245 N 0.43481 0.57333 0.61054 0.0
H246 H 0.89895 0.48507 0.75611 0.0
H247 H 0.80381 0.30664 0.68815 0.0
H248 H 0.94239 0.42268 0.74961 0.0
H249 H 0.7565 0.36327 0.70924 0.0
H250 H 0.85847 0.35371 0.70015 0.0
H251 H 0.85128 0.44609 0.72781 0.0
C252 C 0.89873 0.46343 0.74813 0.0
C253 C 0.9243 0.45676 0.75544 0.0
C254 C 0.83616 0.35594 0.7018 0.0
C255 C 0.86963 0.41179 0.72354 0.0
C256 C 0.8049 0.32908 0.69494 0.0
C257 C 0.77538 0.3308 0.69813 0.0
C258 C 0.83795 0.38476 0.71181 0.0
C259 C 0.77848 0.36063 0.70683 0.0
C260 C 0.87148 0.44113 0.73212 0.0
C261 C 0.92308 0.42862 0.74444 0.0
N262 N 0.80914 0.3863 0.71361 0.0
N263 N 0.89582 0.4068 0.7294 0.0
H264 H 0.55125 0.92859 0.91934 0.0
H265 H 0.38622 0.75448 0.92078 0.0
H266 H 0.45368 0.91243 0.94333 0.0
H267 H 0.47998 0.77121 0.88523 0.0
H268 H 0.40865 0.81359 0.92223 0.0
H269 H 0.52432 0.87356 0.89867 0.0
C270 C 0.52403 0.91393 0.91908 0.0
C271 C 0.50453 0.92493 0.93278 0.0
C272 C 0.42425 0.80443 0.91375 0.0
C273 C 0.47366 0.86166 0.91047 0.0
C274 C 0.41146 0.77062 0.91302 0.0
C275 C 0.43143 0.75791 0.90326 0.0
C276 C 0.45751 0.82583 0.90507 0.0
C277 C 0.46381 0.77998 0.89315 0.0
C278 C 0.50866 0.88237 0.90764 0.0
C279 C 0.46945 0.9048 0.93266 0.0
N280 N 0.47606 0.81289 0.89474 0.0
N281 N 0.45517 0.87391 0.92218 0.0
H282 H 0.6187 0.53963 0.11727 0.0
H283 H 0.66722 0.40614 0.0684 0.0
H284 H 0.55998 0.43636 0.13608 0.0
H285 H 0.72843 0.50963 0.05058 0.0
H286 H 0.6244 0.41622 0.08851 0.0
H287 H 0.65545 0.52858 0.08739 0.0
C288 C 0.6132 0.51459 0.11464 0.0
C289 C 0.58659 0.4889 0.12935 0.0
C290 C 0.64711 0.43673 0.08006 0.0
C291 C 0.62854 0.47611 0.09569 0.0
C292 C 0.67163 0.43098 0.0686 0.0
C293 C 0.70167 0.45711 0.05803 0.0
C294 C 0.65263 0.46887 0.0811 0.0
C295 C 0.70579 0.48874 0.05867 0.0
C296 C 0.63427 0.5083 0.09779 0.0
C297 C 0.58059 0.4569 0.1254 0.0
N298 N 0.68166 0.49377 0.07021 0.0
N299 N 0.60157 0.45146 0.10918 0.0
H300 H 0.47876 0.88767 0.48289 0.0
H301 H 0.31015 0.74513 0.55267 0.0
H302 H 0.39451 0.89992 0.50423 0.0
H303 H 0.38559 0.73064 0.51182 0.0
H304 H 0.34538 0.80439 0.54496 0.0
H305 H 0.45021 0.83335 0.50454 0.0
C306 C 0.45452 0.87912 0.49282 0.0
C307 C 0.4388 0.89806 0.49171 0.0
C308 C 0.35432 0.78823 0.53797 0.0
C309 C 0.40556 0.83563 0.51588 0.0
C310 C 0.33429 0.75443 0.54239 0.0
C311 C 0.34482 0.73289 0.5326 0.0
C312 C 0.38523 0.80054 0.52394 0.0
C313 C 0.37631 0.74629 0.51946 0.0
C314 C 0.43812 0.84805 0.50496 0.0
C315 C 0.40742 0.88599 0.50479 0.0
N316 N 0.3953 0.77919 0.51542 0.0
N317 N 0.39151 0.85523 0.51601 0.0
H318 H 0.49449 0.38224 0.68173 0.0
H319 H 0.62601 0.34323 0.75666 0.0
H320 H 0.58385 0.45901 0.72074 0.0
H321 H 0.5775 0.30282 0.67759 0.0
H322 H 0.59779 0.3762 0.75818 0.0
H323 H 0.5104 0.34222 0.69712 0.0
C324 C 0.5165 0.39035 0.69488 0.0
C325 C 0.53779 0.4238 0.70023 0.0
C326 C 0.59306 0.35968 0.7408 0.0
C327 C 0.55658 0.37854 0.71712 0.0
C328 C 0.60907 0.34098 0.7399 0.0
C329 C 0.60427 0.32067 0.71679 0.0
C330 C 0.57134 0.35699 0.71894 0.0
C331 C 0.58216 0.31853 0.69557 0.0
C332 C 0.52583 0.36765 0.70325 0.0
C333 C 0.56663 0.43331 0.71658 0.0
N334 N 0.56644 0.33638 0.6972 0.0
N335 N 0.57556 0.41081 0.72413 0.0
H336 H 0.10375 0.50862 0.85219 0.0
H337 H 0.29364 0.64285 0.88688 0.0
H338 H 0.15002 0.61028 0.82809 0.0
H339 H 0.24773 0.54123 0.91181 0.0
H340 H 0.23863 0.63307 0.87159 0.0
H341 H 0.15273 0.52193 0.88167 0.0
C342 C 0.12374 0.53391 0.85391 0.0
C343 C 0.12313 0.55838 0.83763 0.0
C344 C 0.24052 0.61295 0.88061 0.0
C345 C 0.17947 0.57367 0.87043 0.0
C346 C 0.272 0.6185 0.88924 0.0
C347 C 0.27547 0.59273 0.90029 0.0
C348 C 0.21225 0.58135 0.88286 0.0
C349 C 0.24638 0.56178 0.90314 0.0
C350 C 0.15186 0.54148 0.87043 0.0
C351 C 0.14979 0.59072 0.84023 0.0
N352 N 0.21609 0.55689 0.89423 0.0
N353 N 0.17712 0.59735 0.85593 0.0
H354 H 0.55562 0.14021 0.97479 0.0
H355 H 0.71011 0.27529 0.0627 0.0
H356 H 0.62379 0.12036 0.02138 0.0
H357 H 0.64547 0.29483 0.01034 0.0
H358 H 0.67154 0.2164 0.05674 0.0
H359 H 0.57947 0.19367 -0.00234 0.0
C360 C 0.57473 0.14669 -0.00927 0.0
C361 C 0.58781 0.12601 -0.00369 0.0
C362 C 0.66556 0.23357 0.04688 0.0
C363 C 0.61632 0.18762 0.02162 0.0
C364 C 0.6876 0.26722 0.05024 0.0
C365 C 0.6813 0.29004 0.03661 0.0
C366 C 0.63702 0.22267 0.02976 0.0
C367 C 0.6516 0.27814 0.02092 0.0
C368 C 0.58868 0.17735 0.00353 0.0
C369 C 0.61293 0.13562 0.01674 0.0
N370 N 0.63079 0.24534 0.01769 0.0
N371 N 0.62691 0.16607 0.02826 0.0
H372 H 0.42618 0.54541 0.19685 0.0
H373 H 0.46749 0.72517 0.24018 0.0
H374 H 0.52699 0.62778 0.20153 0.0
H375 H 0.37371 0.65076 0.20452 0.0
H376 H 0.48708 0.68535 0.24178 0.0
H377 H 0.40479 0.57912 0.21713 0.0
C378 C 0.4439 0.57023 0.20337 0.0
C379 C 0.47831 0.58397 0.19764 0.0
C380 C 0.46201 0.67767 0.23409 0.0
C381 C 0.45408 0.62291 0.21978 0.0
C382 C 0.45079 0.7003 0.23317 0.0
C383 C 0.41912 0.69132 0.22179 0.0
C384 C 0.44117 0.64578 0.22394 0.0
C385 C 0.39849 0.65882 0.21307 0.0
C386 C 0.4317 0.58957 0.21456 0.0
C387 C 0.50031 0.61637 0.20589 0.0
N388 N 0.40996 0.63729 0.21416 0.0
N389 N 0.48775 0.63504 0.2161 0.0
H390 H 0.88229 0.42609 0.3112 0.0
H391 H 0.78533 0.49157 0.40639 0.0
H392 H 0.92743 0.52535 0.34171 0.0
H393 H 0.73988 0.39234 0.37536 0.0
H394 H 0.83923 0.50269 0.38717 0.0
H395 H 0.83223 0.41149 0.33936 0.0
C396 C 0.88179 0.4447 0.32418 0.0
C397 C 0.90886 0.47706 0.32392 0.0
C398 C 0.81755 0.47842 0.38469 0.0
C399 C 0.85151 0.46064 0.35599 0.0
C400 C 0.78665 0.47202 0.39562 0.0
C401 C 0.75783 0.44101 0.39226 0.0
C402 C 0.81979 0.4537 0.37016 0.0
C403 C 0.76131 0.41666 0.3783 0.0
C404 C 0.8532 0.43637 0.34021 0.0
C405 C 0.90714 0.50012 0.34135 0.0
N406 N 0.79166 0.42361 0.36759 0.0
N407 N 0.87873 0.49156 0.35641 0.0
H408 H 0.0618 0.56005 0.38265 0.0
H409 H 0.22549 0.56564 0.44707 0.0
H410 H 0.12359 0.53029 0.33788 0.0
H411 H 0.176 0.61389 0.48412 0.0
H412 H 0.1817 0.54256 0.41117 0.0
H413 H 0.09565 0.5682 0.42489 0.0
C414 C 0.08175 0.5541 0.38209 0.0
C415 C 0.09007 0.5445 0.35698 0.0
C416 C 0.18033 0.55806 0.42724 0.0
C417 C 0.12928 0.55456 0.40458 0.0
C418 C 0.20539 0.57135 0.44767 0.0
C419 C 0.20459 0.59202 0.46841 0.0
C420 C 0.15421 0.5654 0.4276 0.0
C421 C 0.17778 0.59835 0.46833 0.0
C422 C 0.10132 0.55916 0.406 0.0
C423 C 0.11648 0.53767 0.35699 0.0
N424 N 0.15372 0.58519 0.44816 0.0
N425 N 0.13544 0.5432 0.38036 0.0
H426 H 0.48046 0.06171 0.55551 0.0
H427 H 0.64957 0.19836 0.62456 0.0
H428 H 0.57919 0.08474 0.52775 0.0
H429 H 0.55254 0.16362 0.66339 0.0
H430 H 0.62392 0.15326 0.59134 0.0
H431 H 0.50544 0.09369 0.59829 0.0
C432 C 0.50726 0.07254 0.55905 0.0
C433 C 0.52794 0.07059 0.53849 0.0
C434 C 0.60819 0.15524 0.60723 0.0
C435 C 0.55675 0.10799 0.58638 0.0
C436 C 0.6228 0.18118 0.62609 0.0
C437 C 0.60304 0.18494 0.64652 0.0
C438 C 0.57341 0.1331 0.60847 0.0
C439 C 0.56859 0.16169 0.64779 0.0
C440 C 0.52156 0.09101 0.58324 0.0
C441 C 0.56255 0.08557 0.54343 0.0
N442 N 0.55474 0.13692 0.62877 0.0
N443 N 0.57598 0.10408 0.56671 0.0
H444 H 0.50092 0.59695 0.7176 0.0
H445 H 0.40716 0.54064 0.86541 0.0
H446 H 0.46239 0.49981 0.75167 0.0
H447 H 0.44412 0.63695 0.82956 0.0
H448 H 0.43229 0.52686 0.82645 0.0
H449 H 0.48685 0.61405 0.76143 0.0
C450 C 0.49002 0.5794 0.73459 0.0
C451 C 0.48249 0.54687 0.73102 0.0
C452 C 0.43503 0.55105 0.82718 0.0
C453 C 0.46574 0.56602 0.78104 0.0
C454 C 0.42057 0.55893 0.84938 0.0
C455 C 0.42325 0.58995 0.85068 0.0
C456 C 0.4523 0.57431 0.80606 0.0
C457 C 0.44116 0.61267 0.82937 0.0
C458 C 0.48185 0.5891 0.75954 0.0
C459 C 0.46863 0.52513 0.75366 0.0
N460 N 0.45485 0.60434 0.8079 0.0
N461 N 0.46023 0.53497 0.77762 0.0
H462 H 0.90983 0.51316 0.83895 0.0
H463 H 0.85089 0.40227 0.97645 0.0
H464 H 0.96544 0.47073 0.87501 0.0
H465 H 0.80506 0.45765 0.94746 0.0
H466 H 0.89454 0.42887 0.94064 0.0
H467 H 0.87384 0.49668 0.88054 0.0
C468 C 0.91492 0.50109 0.85603 0.0
C469 C 0.94048 0.49319 0.85366 0.0
C470 C 0.87503 0.43532 0.9422 0.0
C471 C 0.89891 0.47336 0.90084 0.0
C472 C 0.84996 0.41996 0.9625 0.0
C473 C 0.82417 0.42759 0.96479 0.0
C474 C 0.87416 0.45831 0.92394 0.0
C475 C 0.82436 0.45089 0.94632 0.0
C476 C 0.89428 0.49147 0.87967 0.0
C477 C 0.94607 0.47741 0.87621 0.0
N478 N 0.84886 0.46529 0.92659 0.0
N479 N 0.92506 0.4675 0.89871 0.0
H480 H 0.56232 0.9363 0.03168 0.0
H481 H 0.40069 0.83391 0.12422 0.0
H482 H 0.48419 0.96112 0.0387 0.0
H483 H 0.4944 0.83778 0.1439 0.0
H484 H 0.43072 0.87935 0.09135 0.0
H485 H 0.53924 0.90057 0.07288 0.0
C486 C 0.54106 0.93511 0.04265 0.0
C487 C 0.52529 0.95184 0.03227 0.0
C488 C 0.44474 0.87038 0.10299 0.0
C489 C 0.49786 0.91007 0.07816 0.0
C490 C 0.42756 0.84422 0.1215 0.0
C491 C 0.44509 0.83197 0.13663 0.0
C492 C 0.47957 0.88401 0.09924 0.0
C493 C 0.47996 0.84648 0.13254 0.0
C494 C 0.5277 0.91453 0.0659 0.0
C495 C 0.49724 0.94892 0.04651 0.0
N496 N 0.49606 0.87158 0.11401 0.0
N497 N 0.48398 0.92787 0.06848 0.0
H498 H 0.56179 0.52163 0.24816 0.0
H499 H 0.5861 0.38719 0.33057 0.0
H500 H 0.53456 0.42644 0.21487 0.0
H501 H 0.61922 0.48458 0.36207 0.0
H502 H 0.55988 0.39847 0.29091 0.0
H503 H 0.57431 0.5053 0.29329 0.0
C504 C 0.55767 0.49702 0.25059 0.0
C505 C 0.54756 0.47547 0.22773 0.0
C506 C 0.57272 0.41732 0.30658 0.0
C507 C 0.56244 0.45686 0.27894 0.0
C508 C 0.58782 0.41093 0.32921 0.0
C509 C 0.60527 0.43511 0.34955 0.0
C510 C 0.57512 0.44814 0.30418 0.0
C511 C 0.60633 0.4653 0.34678 0.0
C512 C 0.56512 0.48781 0.27623 0.0
C513 C 0.54285 0.44396 0.23189 0.0
N514 N 0.59167 0.47103 0.32441 0.0
N515 N 0.55071 0.43573 0.25689 0.0
H516 H 0.44453 0.96538 0.38042 0.0
H517 H 0.44351 0.82729 0.28396 0.0
H518 H 0.49338 0.91033 0.4016 0.0
H519 H 0.40168 0.88712 0.25733 0.0
H520 H 0.46643 0.86147 0.32527 0.0
H521 H 0.43442 0.94233 0.33299 0.0
C522 C 0.45388 0.9491 0.37481 0.0
C523 C 0.46937 0.93932 0.39492 0.0
C524 C 0.45242 0.86734 0.31036 0.0
C525 C 0.45741 0.91248 0.34121 0.0
C526 C 0.43911 0.84765 0.2868 0.0
C527 C 0.42027 0.85408 0.26729 0.0
C528 C 0.44663 0.89356 0.31476 0.0
C529 C 0.41586 0.88113 0.27194 0.0
C530 C 0.44787 0.93575 0.34787 0.0
C531 C 0.48084 0.91803 0.38677 0.0
N532 N 0.42867 0.89972 0.29538 0.0
N533 N 0.47423 0.905 0.36065 0.0
H534 H 0.61357 0.48655 0.61997 0.0
H535 H 0.55423 0.38859 0.47607 0.0
H536 H 0.51509 0.4522 0.58469 0.0
H537 H 0.6569 0.43666 0.50552 0.0
H538 H 0.53985 0.41364 0.51455 0.0
H539 H 0.63119 0.47234 0.57637 0.0
C540 C 0.59598 0.47677 0.60267 0.0
C541 C 0.5629 0.47046 0.60577 0.0
C542 C 0.56556 0.41884 0.5125 0.0
C543 C 0.58237 0.45316 0.55625 0.0
C544 C 0.57372 0.40434 0.49067 0.0
C545 C 0.60676 0.41037 0.48773 0.0
C546 C 0.59057 0.4393 0.53162 0.0
C547 C 0.63107 0.4312 0.5071 0.0
C548 C 0.60591 0.46844 0.57788 0.0
C549 C 0.54089 0.45759 0.58293 0.0
N550 N 0.62244 0.44477 0.52829 0.0
N551 N 0.55086 0.44883 0.55923 0.0
H552 H 0.07302 0.56021 0.71191 0.0
H553 H 0.24112 0.60577 0.63384 0.0
H554 H 0.14801 0.54231 0.7497 0.0
H555 H 0.14781 0.54664 0.58962 0.0
H556 H 0.20912 0.59744 0.6772 0.0
H557 H 0.10155 0.56809 0.6665 0.0
C558 C 0.09527 0.55785 0.7108 0.0
C559 C 0.1084 0.55118 0.73497 0.0
C560 C 0.19577 0.5865 0.6579 0.0
C561 C 0.14134 0.56121 0.68354 0.0
C562 C 0.2139 0.59127 0.63326 0.0
C563 C 0.197 0.57662 0.6083 0.0
C564 C 0.16054 0.56774 0.65737 0.0
C565 C 0.16168 0.55801 0.60861 0.0
C566 C 0.11152 0.56251 0.68495 0.0
C567 C 0.13753 0.54865 0.73207 0.0
N568 N 0.14445 0.55423 0.63284 0.0
N569 N 0.15324 0.55413 0.70698 0.0
H570 H 0.57187 0.06273 0.87707 0.0
H571 H 0.6688 0.23129 0.80059 0.0
H572 H 0.65476 0.14649 0.91692 0.0
H573 H 0.64087 0.14297 0.75383 0.0
H574 H 0.65738 0.19997 0.84422 0.0
H575 H 0.59166 0.09019 0.83151 0.0
C576 C 0.59455 0.08653 0.87622 0.0
C577 C 0.61125 0.10266 0.90091 0.0
C578 C 0.65403 0.18756 0.82438 0.0
C579 C 0.6332 0.13428 0.84928 0.0
C580 C 0.66031 0.20532 0.79956 0.0
C581 C 0.65579 0.18963 0.7737 0.0
C582 C 0.64227 0.15375 0.82325 0.0
C583 C 0.64483 0.15594 0.77344 0.0
C584 C 0.60567 0.1022 0.85028 0.0
C585 C 0.64046 0.13358 0.89854 0.0
N586 N 0.63794 0.13891 0.79791 0.0
N587 N 0.65009 0.14868 0.87327 0.0
H588 H 0.52859 0.58644 0.08222 0.0
H589 H 0.37991 0.59213 -0.00013 0.0
H590 H 0.42429 0.53363 0.10699 0.0
H591 H 0.48449 0.65077 0.97636 0.0
H592 H 0.39554 0.56572 0.03597 0.0
H593 H 0.51262 0.60409 0.03923 0.0
C594 C 0.50224 0.57776 0.0781 0.0
C595 C 0.47764 0.55867 0.09798 0.0
C596 C 0.41515 0.58431 0.02293 0.0
C597 C 0.45932 0.57924 0.04962 0.0
C598 C 0.40624 0.59956 0.00238 0.0
C599 C 0.43098 0.62389 -0.01477 0.0
C600 C 0.4491 0.59348 0.02653 0.0
C601 C 0.46466 0.63228 -0.01071 0.0
C602 C 0.49317 0.58812 0.05382 0.0
C603 C 0.44392 0.54842 0.09207 0.0
N604 N 0.47278 0.61717 0.00963 0.0
N605 N 0.43578 0.55911 0.06857 0.0
H606 H 0.97125 0.5299 0.20873 0.0
H607 H 0.817 0.39808 0.11734 0.0
H608 H 0.90785 0.42867 0.23267 0.0
H609 H 0.88097 0.49889 0.09196 0.0
H610 H 0.85398 0.40753 0.15721 0.0
H611 H 0.94362 0.51746 0.16284 0.0
C612 C 0.9521 0.5049 0.20404 0.0
C613 C 0.94147 0.48034 0.22456 0.0
C614 C 0.86006 0.42755 0.14284 0.0
C615 C 0.90932 0.46608 0.17253 0.0
C616 C 0.83884 0.42221 0.1201 0.0
C617 C 0.84564 0.44782 0.1014 0.0
C618 C 0.88825 0.45879 0.14706 0.0
C619 C 0.87455 0.47847 0.10595 0.0
C620 C 0.93611 0.49786 0.17797 0.0
C621 C 0.91638 0.44841 0.21753 0.0
N622 N 0.89465 0.48316 0.12842 0.0
N623 N 0.90087 0.44228 0.19225 0.0
loop_
_geom_bond_atom_site_label_1
_geom_bond_atom_site_label_2
_geom_bond_distance
_geom_bond_site_symmetry_2
_ccdc_geom_bond_type
H0 C6 0.930 . S
H1 C9 0.931 . S
H2 C11 0.931 . S
H3 C13 0.930 . S
H4 C15 0.930 . S
H5 C17 0.922 1_455 S
C6 H0 0.930 . S
C6 C7 1.380 . S
C6 C8 1.394 . S
C7 C6 1.380 . S
C7 C11 1.382 . S
C8 C6 1.394 . S
C8 C9 1.400 . S
C9 H1 0.931 . S
C9 C8 1.400 . S
C9 C10 1.375 . S
C10 C9 1.375 . S
C10 C11 1.415 . S
C10 C12 1.501 1_455 S
C11 H2 0.931 . S
C11 C7 1.382 . S
C11 C10 1.415 . S
C12 C10 1.501 1_655 S
C12 C13 1.384 . S
C12 C17 1.408 . S
C13 H3 0.930 . S
C13 C12 1.384 . S
C13 C14 1.389 . S
C14 C13 1.389 . S
C14 C15 1.405 . S
C15 H4 0.930 . S
C15 C14 1.405 . S
C15 C16 1.364 . S
C16 C15 1.364 . S
C16 C17 1.400 . S
C17 H5 0.922 1_655 S
C17 C12 1.408 . S
C17 C16 1.400 . S
H18 C24 0.930 . S
H19 C27 0.931 . S
H20 C29 0.931 . S
H21 C31 0.930 . S
H22 C33 0.930 . S
H23 C35 0.922 1_545 S
C24 H18 0.930 . S
C24 C25 1.380 . S
C24 C26 1.394 . S
C25 C24 1.380 . S
C25 C29 1.382 . S
C26 C24 1.394 . S
C26 C27 1.400 . S
C27 H19 0.931 . S
C27 C26 1.400 . S
C27 C28 1.375 . S
C28 C27 1.375 . S
C28 C29 1.415 . S
C28 C30 1.501 1_545 S
C29 H20 0.931 . S
C29 C25 1.382 . S
C29 C28 1.415 . S
C30 C28 1.501 1_565 S
C30 C31 1.384 . S
C30 C35 1.408 . S
C31 H21 0.930 . S
C31 C30 1.384 . S
C31 C32 1.389 . S
C32 C31 1.389 . S
C32 C33 1.405 . S
C33 H22 0.930 . S
C33 C32 1.405 . S
C33 C34 1.364 . S
C34 C33 1.364 . S
C34 C35 1.400 . S
C35 H23 0.922 1_565 S
C35 C30 1.408 . S
C35 C34 1.400 . S
H36 C42 0.930 . S
H37 C45 0.931 . S
H38 C47 0.931 . S
H39 C49 0.930 . S
H40 C51 0.930 . S
H41 C53 0.931 . S
C42 H36 0.930 . S
C42 C43 1.380 . S
C42 C44 1.394 . S
C43 C42 1.380 . S
C43 C47 1.382 . S
C44 C42 1.394 . S
C44 C45 1.400 . S
C45 H37 0.931 . S
C45 C44 1.400 . S
C45 C46 1.375 . S
C46 C45 1.375 . S
C46 C47 1.415 . S
C46 C48 1.501 . S
C47 H38 0.931 . S
C47 C43 1.382 . S
C47 C46 1.415 . S
C48 C46 1.501 . S
C48 C49 1.384 . S
C48 C53 1.408 . S
C49 H39 0.930 . S
C49 C48 1.384 . S
C49 C50 1.389 . S
C50 C49 1.389 . S
C50 C51 1.405 . S
C51 H40 0.930 . S
C51 C50 1.405 . S
C51 C52 1.364 . S
C52 C51 1.364 . S
C52 C53 1.400 . S
C53 H41 0.931 . S
C53 C48 1.408 . S
C53 C52 1.400 . S
H54 C60 0.930 . S
H55 C63 0.931 . S
H56 C65 0.931 . S
H57 C67 0.930 . S
H58 C69 0.930 . S
H59 C71 0.931 . S
C60 H54 0.930 . S
C60 C61 1.380 . S
C60 C62 1.394 . S
C61 C60 1.380 . S
C61 C65 1.382 . S
C62 C60 1.394 . S
C62 C63 1.400 . S
C63 H55 0.931 . S
C63 C62 1.400 . S
C63 C64 1.375 . S
C64 C63 1.375 . S
C64 C65 1.415 . S
C64 C66 1.501 1_455 S
C65 H56 0.931 . S
C65 C61 1.382 . S
C65 C64 1.415 . S
C66 C64 1.501 1_655 S
C66 C67 1.384 . S
C66 C71 1.408 . S
C67 H57 0.930 . S
C67 C66 1.384 . S
C67 C68 1.389 . S
C68 C67 1.389 . S
C68 C69 1.405 . S
C69 H58 0.930 . S
C69 C68 1.405 . S
C69 C70 1.364 . S
C70 C69 1.364 . S
C70 C71 1.400 . S
C71 H59 0.931 . S
C71 C66 1.408 . S
C71 C70 1.400 . S
H72 C78 0.930 . S
H73 C81 0.931 . S
H74 C83 0.931 . S
H75 C85 0.930 . S
H76 C87 0.930 . S
H77 C89 0.931 . S
C78 H72 0.930 . S
C78 C79 1.380 . S
C78 C80 1.394 1_554 S
C79 C78 1.380 . S
C79 C83 1.382 . S
C80 C78 1.394 1_556 S
C80 C81 1.400 . S
C81 H73 0.931 . S
C81 C80 1.400 . S
C81 C82 1.375 . S
C82 C81 1.375 . S
C82 C83 1.415 1_556 S
C82 C84 1.501 1_565 S
C83 H74 0.931 . S
C83 C79 1.382 . S
C83 C82 1.415 1_554 S
C84 C82 1.501 1_545 S
C84 C85 1.384 1_556 S
C84 C89 1.408 . S
C85 H75 0.930 . S
C85 C84 1.384 1_554 S
C85 C86 1.389 1_554 S
C86 C85 1.389 1_556 S
C86 C87 1.405 . S
C87 H76 0.930 . S
C87 C86 1.405 . S
C87 C88 1.364 . S
C88 C87 1.364 . S
C88 C89 1.400 . S
C89 H77 0.931 . S
C89 C84 1.408 . S
C89 C88 1.400 . S
H90 C96 0.930 . S
H91 C99 0.931 . S
H92 C101 0.931 . S
H93 C103 0.930 . S
H94 C105 0.930 . S
H95 C107 0.931 . S
C96 H90 0.930 . S
C96 C97 1.380 . S
C96 C98 1.394 . S
C97 C96 1.380 . S
C97 C101 1.382 . S
C98 C96 1.394 . S
C98 C99 1.400 . S
C99 H91 0.931 . S
C99 C98 1.400 . S
C99 C100 1.375 . S
C100 C99 1.375 . S
C100 C101 1.415 . S
C100 C102 1.501 . S
C101 H92 0.931 . S
C101 C97 1.382 . S
C101 C100 1.415 . S
C102 C100 1.501 . S
C102 C103 1.384 . S
C102 C107 1.408 . S
C103 H93 0.930 . S
C103 C102 1.384 . S
C103 C104 1.389 . S
C104 C103 1.389 . S
C104 C105 1.405 . S
C105 H94 0.930 . S
C105 C104 1.405 . S
C105 C106 1.364 . S
C106 C105 1.364 . S
C106 C107 1.400 . S
C107 H95 0.931 . S
C107 C102 1.408 . S
C107 C106 1.400 . S
C108 O109 1.306 . S
C108 O111 1.160 . S
O109 C108 1.306 . S
O109 Cd110 2.228 . S
Cd110 O109 2.228 . S
Cd110 O114 2.273 . S
Cd110 O118 2.277 . S
O111 C108 1.160 . S
O111 Cd112 2.203 . S
Cd112 O111 2.203 . S
Cd112 O114 2.411 . S
Cd112 O115 2.333 . S
Cd112 O116 2.352 . S
Cd112 O120 2.277 . S
Cd112 O121 2.356 . S
C113 O118 1.209 . S
C113 O120 1.226 . S
O114 Cd110 2.273 . S
O114 Cd112 2.411 . S
O114 C117 1.320 . S
O115 Cd112 2.333 . S
O115 C117 1.214 . S
O116 Cd112 2.352 . S
O116 C119 1.258 . S
C117 O114 1.320 . S
C117 O115 1.214 . S
O118 Cd110 2.277 . S
O118 C113 1.209 . S
C119 O116 1.258 . S
C119 O121 1.282 . S
O120 Cd112 2.277 . S
O120 C113 1.226 . S
O121 Cd112 2.356 . S
O121 C119 1.282 . S
C122 O123 1.306 . S
C122 O125 1.160 . S
O123 C122 1.306 . S
O123 Cd124 2.228 . S
Cd124 O123 2.228 . S
Cd124 O128 2.273 . S
Cd124 O132 2.277 . S
O125 C122 1.160 . S
O125 Cd126 2.203 . S
Cd126 O125 2.203 . S
Cd126 O128 2.411 . S
Cd126 O129 2.333 . S
Cd126 O130 2.352 . S
Cd126 O134 2.277 . S
Cd126 O135 2.356 . S
C127 O132 1.209 . S
C127 O134 1.226 . S
O128 Cd124 2.273 . S
O128 Cd126 2.411 . S
O128 C131 1.320 . S
O129 Cd126 2.333 . S
O129 C131 1.214 . S
O130 Cd126 2.352 . S
O130 C133 1.258 . S
C131 O128 1.320 . S
C131 O129 1.214 . S
O132 Cd124 2.277 . S
O132 C127 1.209 . S
C133 O130 1.258 . S
C133 O135 1.282 . S
O134 Cd126 2.277 . S
O134 C127 1.226 . S
O135 Cd126 2.356 . S
O135 C133 1.282 . S
C136 O137 1.306 . S
C136 O139 1.160 . S
O137 C136 1.306 . S
O137 Cd138 2.228 . S
Cd138 O137 2.228 . S
Cd138 O142 2.273 . S
Cd138 O146 2.277 . S
O139 C136 1.160 . S
O139 Cd140 2.203 . S
Cd140 O139 2.203 . S
Cd140 O142 2.411 . S
Cd140 O143 2.333 . S
Cd140 O144 2.352 . S
Cd140 O148 2.277 . S
Cd140 O149 2.356 . S
C141 O146 1.209 . S
C141 O148 1.226 . S
O142 Cd138 2.273 . S
O142 Cd140 2.411 . S
O142 C145 1.320 . S
O143 Cd140 2.333 . S
O143 C145 1.214 . S
O144 Cd140 2.352 . S
O144 C147 1.258 . S
C145 O142 1.320 . S
C145 O143 1.214 . S
O146 Cd138 2.277 . S
O146 C141 1.209 . S
C147 O144 1.258 . S
C147 O149 1.282 . S
O148 Cd140 2.277 . S
O148 C141 1.226 . S
O149 Cd140 2.356 . S
O149 C147 1.282 . S
C150 O151 1.306 . S
C150 O153 1.160 . S
O151 C150 1.306 . S
O151 Cd152 2.228 . S
Cd152 O151 2.228 . S
Cd152 O156 2.273 . S
Cd152 O160 2.277 . S
O153 C150 1.160 . S
O153 Cd154 2.203 . S
Cd154 O153 2.203 . S
Cd154 O156 2.411 . S
Cd154 O157 2.333 . S
Cd154 O158 2.352 . S
Cd154 O162 2.277 . S
Cd154 O163 2.356 . S
C155 O160 1.209 . S
C155 O162 1.226 . S
O156 Cd152 2.273 . S
O156 Cd154 2.411 . S
O156 C159 1.320 . S
O157 Cd154 2.333 . S
O157 C159 1.214 . S
O158 Cd154 2.352 . S
O158 C161 1.258 . S
C159 O156 1.320 . S
C159 O157 1.214 . S
O160 Cd152 2.277 . S
O160 C155 1.209 . S
C161 O158 1.258 . S
C161 O163 1.282 . S
O162 Cd154 2.277 . S
O162 C155 1.226 . S
O163 Cd154 2.356 . S
O163 C161 1.282 . S
C164 O165 1.306 . S
C164 O167 1.160 . S
O165 C164 1.306 . S
O165 Cd166 2.228 . S
Cd166 O165 2.228 . S
Cd166 O170 2.273 . S
Cd166 O174 2.277 . S
O167 C164 1.160 . S
O167 Cd168 2.203 . S
Cd168 O167 2.203 . S
Cd168 O170 2.411 . S
Cd168 O171 2.333 . S
Cd168 O172 2.352 . S
Cd168 O176 2.277 . S
Cd168 O177 2.356 . S
C169 O174 1.209 . S
C169 O176 1.226 . S
O170 Cd166 2.273 . S
O170 Cd168 2.411 . S
O170 C173 1.320 . S
O171 Cd168 2.333 . S
O171 C173 1.214 . S
O172 Cd168 2.352 . S
O172 C175 1.258 . S
C173 O170 1.320 . S
C173 O171 1.214 . S
O174 Cd166 2.277 . S
O174 C169 1.209 . S
C175 O172 1.258 . S
C175 O177 1.282 . S
O176 Cd168 2.277 . S
O176 C169 1.226 . S
O177 Cd168 2.356 . S
O177 C175 1.282 . S
C178 O179 1.306 . S
C178 O181 1.160 . S
O179 C178 1.306 . S
O179 Cd180 2.228 . S
Cd180 O179 2.228 . S
Cd180 O184 2.273 . S
Cd180 O188 2.277 . S
O181 C178 1.160 . S
O181 Cd182 2.203 . S
Cd182 O181 2.203 . S
Cd182 O184 2.411 . S
Cd182 O185 2.333 . S
Cd182 O186 2.352 . S
Cd182 O190 2.277 . S
Cd182 O191 2.356 . S
C183 O188 1.209 . S
C183 O190 1.226 . S
O184 Cd180 2.273 . S
O184 Cd182 2.411 . S
O184 C187 1.320 . S
O185 Cd182 2.333 . S
O185 C187 1.214 . S
O186 Cd182 2.352 . S
O186 C189 1.258 . S
C187 O184 1.320 . S
C187 O185 1.214 . S
O188 Cd180 2.277 . S
O188 C183 1.209 . S
C189 O186 1.258 . S
C189 O191 1.282 . S
O190 Cd182 2.277 . S
O190 C183 1.226 . S
O191 Cd182 2.356 . S
O191 C189 1.282 . S
H192 C198 0.930 . S
H193 C202 0.930 . S
H194 C207 0.929 . S
H195 C205 0.929 . S
H196 C200 0.929 . S
H197 C206 0.929 . S
C198 H192 0.930 . S
C198 C199 1.367 . S
C198 C206 1.378 . S
C199 C198 1.367 . S
C199 C207 1.433 . S
C200 H196 0.929 . S
C200 C202 1.378 . S
C200 C204 1.350 . S
C201 C204 1.463 . S
C201 C206 1.350 . S
C201 N209 1.427 . S
C202 H193 0.930 . S
C202 C200 1.378 . S
C202 C203 1.367 . S
C203 C202 1.367 . S
C203 C205 1.433 . S
C204 C200 1.350 . S
C204 C201 1.463 . S
C204 N208 1.427 . S
C205 H195 0.929 . S
C205 C203 1.433 . S
C205 N208 1.384 . S
C206 H197 0.929 . S
C206 C198 1.378 . S
C206 C201 1.350 . S
C207 H194 0.929 . S
C207 C199 1.433 . S
C207 N209 1.384 . S
N208 C204 1.427 . S
N208 C205 1.384 . S
N209 C201 1.427 . S
N209 C207 1.384 . S
H210 C216 0.930 . S
H211 C220 0.930 . S
H212 C225 0.929 . S
H213 C223 0.929 . S
H214 C218 0.929 . S
H215 C224 0.929 . S
C216 H210 0.930 . S
C216 C217 1.367 . S
C216 C224 1.378 . S
C217 C216 1.367 . S
C217 C225 1.433 . S
C218 H214 0.929 . S
C218 C220 1.378 . S
C218 C222 1.350 . S
C219 C222 1.463 . S
C219 C224 1.350 . S
C219 N227 1.427 . S
C220 H211 0.930 . S
C220 C218 1.378 . S
C220 C221 1.367 . S
C221 C220 1.367 . S
C221 C223 1.433 . S
C222 C218 1.350 . S
C222 C219 1.463 . S
C222 N226 1.427 . S
C223 H213 0.929 . S
C223 C221 1.433 . S
C223 N226 1.384 . S
C224 H215 0.929 . S
C224 C216 1.378 . S
C224 C219 1.350 . S
C225 H212 0.929 . S
C225 C217 1.433 . S
C225 N227 1.384 . S
N226 C222 1.427 . S
N226 C223 1.384 . S
N227 C219 1.427 . S
N227 C225 1.384 . S
H228 C234 0.930 . S
H229 C238 0.930 . S
H230 C243 0.929 . S
H231 C241 0.929 . S
H232 C236 0.929 . S
H233 C242 0.929 . S
C234 H228 0.930 . S
C234 C235 1.367 . S
C234 C242 1.378 . S
C235 C234 1.367 . S
C235 C243 1.433 . S
C236 H232 0.929 . S
C236 C238 1.378 . S
C236 C240 1.350 . S
C237 C240 1.463 . S
C237 C242 1.350 . S
C237 N245 1.427 . S
C238 H229 0.930 . S
C238 C236 1.378 . S
C238 C239 1.367 . S
C239 C238 1.367 . S
C239 C241 1.433 . S
C240 C236 1.350 . S
C240 C237 1.463 . S
C240 N244 1.427 . S
C241 H231 0.929 . S
C241 C239 1.433 . S
C241 N244 1.384 . S
C242 H233 0.929 . S
C242 C234 1.378 . S
C242 C237 1.350 . S
C243 H230 0.929 . S
C243 C235 1.433 . S
C243 N245 1.384 . S
N244 C240 1.427 . S
N244 C241 1.384 . S
N245 C237 1.427 . S
N245 C243 1.384 . S
H246 C252 0.930 . S
H247 C256 0.930 . S
H248 C261 0.929 . S
H249 C259 0.929 . S
H250 C254 0.929 . S
H251 C260 0.929 . S
C252 H246 0.930 . S
C252 C253 1.367 . S
C252 C260 1.378 . S
C253 C252 1.367 . S
C253 C261 1.433 . S
C254 H250 0.929 . S
C254 C256 1.378 . S
C254 C258 1.350 . S
C255 C258 1.463 . S
C255 C260 1.350 . S
C255 N263 1.427 . S
C256 H247 0.930 . S
C256 C254 1.378 . S
C256 C257 1.367 . S
C257 C256 1.367 . S
C257 C259 1.433 . S
C258 C254 1.350 . S
C258 C255 1.463 . S
C258 N262 1.427 . S
C259 H249 0.929 . S
C259 C257 1.433 . S
C259 N262 1.384 . S
C260 H251 0.929 . S
C260 C252 1.378 . S
C260 C255 1.350 . S
C261 H248 0.929 . S
C261 C253 1.433 . S
C261 N263 1.384 . S
N262 C258 1.427 . S
N262 C259 1.384 . S
N263 C255 1.427 . S
N263 C261 1.384 . S
H264 C270 0.930 . S
H265 C274 0.930 . S
H266 C279 0.929 . S
H267 C277 0.929 . S
H268 C272 0.929 . S
H269 C278 0.929 . S
C270 H264 0.930 . S
C270 C271 1.367 . S
C270 C278 1.378 . S
C271 C270 1.367 . S
C271 C279 1.433 . S
C272 H268 0.929 . S
C272 C274 1.378 . S
C272 C276 1.350 . S
C273 C276 1.463 . S
C273 C278 1.350 . S
C273 N281 1.427 . S
C274 H265 0.930 . S
C274 C272 1.378 . S
C274 C275 1.367 . S
C275 C274 1.367 . S
C275 C277 1.433 . S
C276 C272 1.350 . S
C276 C273 1.463 . S
C276 N280 1.427 . S
C277 H267 0.929 . S
C277 C275 1.433 . S
C277 N280 1.384 . S
C278 H269 0.929 . S
C278 C270 1.378 . S
C278 C273 1.350 . S
C279 H266 0.929 . S
C279 C271 1.433 . S
C279 N281 1.384 . S
N280 C276 1.427 . S
N280 C277 1.384 . S
N281 C273 1.427 . S
N281 C279 1.384 . S
H282 C288 0.930 . S
H283 C292 0.930 . S
H284 C297 0.929 . S
H285 C295 0.929 . S
H286 C290 0.929 . S
H287 C296 0.929 . S
C288 H282 0.930 . S
C288 C289 1.367 . S
C288 C296 1.378 . S
C289 C288 1.367 . S
C289 C297 1.433 . S
C290 H286 0.929 . S
C290 C292 1.378 . S
C290 C294 1.350 . S
C291 C294 1.463 . S
C291 C296 1.350 . S
C291 N299 1.427 . S
C292 H283 0.930 . S
C292 C290 1.378 . S
C292 C293 1.367 . S
C293 C292 1.367 . S
C293 C295 1.433 . S
C294 C290 1.350 . S
C294 C291 1.463 . S
C294 N298 1.427 . S
C295 H285 0.929 . S
C295 C293 1.433 . S
C295 N298 1.384 . S
C296 H287 0.929 . S
C296 C288 1.378 . S
C296 C291 1.350 . S
C297 H284 0.929 . S
C297 C289 1.433 . S
C297 N299 1.384 . S
N298 C294 1.427 . S
N298 C295 1.384 . S
N299 C291 1.427 . S
N299 C297 1.384 . S
H300 C306 0.930 . S
H301 C310 0.930 . S
H302 C315 0.929 . S
H303 C313 0.929 . S
H304 C308 0.929 . S
H305 C314 0.929 . S
C306 H300 0.930 . S
C306 C307 1.367 . S
C306 C314 1.378 . S
C307 C306 1.367 . S
C307 C315 1.433 . S
C308 H304 0.929 . S
C308 C310 1.378 . S
C308 C312 1.350 . S
C309 C312 1.463 . S
C309 C314 1.350 . S
C309 N317 1.427 . S
C310 H301 0.930 . S
C310 C308 1.378 . S
C310 C311 1.367 . S
C311 C310 1.367 . S
C311 C313 1.433 . S
C312 C308 1.350 . S
C312 C309 1.463 . S
C312 N316 1.427 . S
C313 H303 0.929 . S
C313 C311 1.433 . S
C313 N316 1.384 . S
C314 H305 0.929 . S
C314 C306 1.378 . S
C314 C309 1.350 . S
C315 H302 0.929 . S
C315 C307 1.433 . S
C315 N317 1.384 . S
N316 C312 1.427 . S
N316 C313 1.384 . S
N317 C309 1.427 . S
N317 C315 1.384 . S
H318 C324 0.930 . S
H319 C328 0.930 . S
H320 C333 0.929 . S
H321 C331 0.929 . S
H322 C326 0.929 . S
H323 C332 0.929 . S
C324 H318 0.930 . S
C324 C325 1.367 . S
C324 C332 1.378 . S
C325 C324 1.367 . S
C325 C333 1.433 . S
C326 H322 0.929 . S
C326 C328 1.378 . S
C326 C330 1.350 . S
C327 C330 1.463 . S
C327 C332 1.350 . S
C327 N335 1.427 . S
C328 H319 0.930 . S
C328 C326 1.378 . S
C328 C329 1.367 . S
C329 C328 1.367 . S
C329 C331 1.433 . S
C330 C326 1.350 . S
C330 C327 1.463 . S
C330 N334 1.427 . S
C331 H321 0.929 . S
C331 C329 1.433 . S
C331 N334 1.384 . S
C332 H323 0.929 . S
C332 C324 1.378 . S
C332 C327 1.350 . S
C333 H320 0.929 . S
C333 C325 1.433 . S
C333 N335 1.384 . S
N334 C330 1.427 . S
N334 C331 1.384 . S
N335 C327 1.427 . S
N335 C333 1.384 . S
H336 C342 0.930 . S
H337 C346 0.930 . S
H338 C351 0.929 . S
H339 C349 0.929 . S
H340 C344 0.929 . S
H341 C350 0.929 . S
C342 H336 0.930 . S
C342 C343 1.367 . S
C342 C350 1.378 . S
C343 C342 1.367 . S
C343 C351 1.433 . S
C344 H340 0.929 . S
C344 C346 1.378 . S
C344 C348 1.350 . S
C345 C348 1.463 . S
C345 C350 1.350 . S
C345 N353 1.427 . S
C346 H337 0.930 . S
C346 C344 1.378 . S
C346 C347 1.367 . S
C347 C346 1.367 . S
C347 C349 1.433 . S
C348 C344 1.350 . S
C348 C345 1.463 . S
C348 N352 1.427 . S
C349 H339 0.929 . S
C349 C347 1.433 . S
C349 N352 1.384 . S
C350 H341 0.929 . S
C350 C342 1.378 . S
C350 C345 1.350 . S
C351 H338 0.929 . S
C351 C343 1.433 . S
C351 N353 1.384 . S
N352 C348 1.427 . S
N352 C349 1.384 . S
N353 C345 1.427 . S
N353 C351 1.384 . S
H354 C360 0.930 . S
H355 C364 0.930 . S
H356 C369 0.929 . S
H357 C367 0.929 . S
H358 C362 0.929 . S
H359 C368 0.913 1_556 S
C360 H354 0.930 . S
C360 C361 1.367 1_556 S
C360 C368 1.372 1_556 S
C361 C360 1.367 1_554 S
C361 C369 1.433 . S
C362 H358 0.929 . S
C362 C364 1.378 . S
C362 C366 1.350 . S
C363 C366 1.463 . S
C363 C368 1.371 . S
C363 N371 1.427 . S
C364 H355 0.930 . S
C364 C362 1.378 . S
C364 C365 1.367 . S
C365 C364 1.367 . S
C365 C367 1.433 . S
C366 C362 1.350 . S
C366 C363 1.463 . S
C366 N370 1.427 . S
C367 H357 0.929 . S
C367 C365 1.433 . S
C367 N370 1.384 . S
C368 H359 0.913 1_554 S
C368 C360 1.372 1_554 S
C368 C363 1.371 . S
C369 H356 0.929 . S
C369 C361 1.433 . S
C369 N371 1.384 . S
N370 C366 1.427 . S
N370 C367 1.384 . S
N371 C363 1.427 . S
N371 C369 1.384 . S
H372 C378 0.930 . S
H373 C382 0.930 . S
H374 C387 0.929 . S
H375 C385 0.929 . S
H376 C380 0.929 . S
H377 C386 0.929 . S
C378 H372 0.930 . S
C378 C379 1.367 . S
C378 C386 1.378 . S
C379 C378 1.367 . S
C379 C387 1.433 . S
C380 H376 0.929 . S
C380 C382 1.378 . S
C380 C384 1.350 . S
C381 C384 1.463 . S
C381 C386 1.350 . S
C381 N389 1.427 . S
C382 H373 0.930 . S
C382 C380 1.378 . S
C382 C383 1.367 . S
C383 C382 1.367 . S
C383 C385 1.433 . S
C384 C380 1.350 . S
C384 C381 1.463 . S
C384 N388 1.427 . S
C385 H375 0.929 . S
C385 C383 1.433 . S
C385 N388 1.384 . S
C386 H377 0.929 . S
C386 C378 1.378 . S
C386 C381 1.350 . S
C387 H374 0.929 . S
C387 C379 1.433 . S
C387 N389 1.384 . S
N388 C384 1.427 . S
N388 C385 1.384 . S
N389 C381 1.427 . S
N389 C387 1.384 . S
H390 C396 0.930 . S
H391 C400 0.930 . S
H392 C405 0.929 . S
H393 C403 0.929 . S
H394 C398 0.929 . S
H395 C404 0.929 . S
C396 H390 0.930 . S
C396 C397 1.367 . S
C396 C404 1.378 . S
C397 C396 1.367 . S
C397 C405 1.433 . S
C398 H394 0.929 . S
C398 C400 1.378 . S
C398 C402 1.350 . S
C399 C402 1.463 . S
C399 C404 1.350 . S
C399 N407 1.427 . S
C400 H391 0.930 . S
C400 C398 1.378 . S
C400 C401 1.367 . S
C401 C400 1.367 . S
C401 C403 1.433 . S
C402 C398 1.350 . S
C402 C399 1.463 . S
C402 N406 1.427 . S
C403 H393 0.929 . S
C403 C401 1.433 . S
C403 N406 1.384 . S
C404 H395 0.929 . S
C404 C396 1.378 . S
C404 C399 1.350 . S
C405 H392 0.929 . S
C405 C397 1.433 . S
C405 N407 1.384 . S
N406 C402 1.427 . S
N406 C403 1.384 . S
N407 C399 1.427 . S
N407 C405 1.384 . S
H408 C414 0.930 . S
H409 C418 0.930 . S
H410 C423 0.929 . S
H411 C421 0.929 . S
H412 C416 0.929 . S
H413 C422 0.929 . S
C414 H408 0.930 . S
C414 C415 1.367 . S
C414 C422 1.378 . S
C415 C414 1.367 . S
C415 C423 1.433 . S
C416 H412 0.929 . S
C416 C418 1.378 . S
C416 C420 1.350 . S
C417 C420 1.463 . S
C417 C422 1.350 . S
C417 N425 1.427 . S
C418 H409 0.930 . S
C418 C416 1.378 . S
C418 C419 1.367 . S
C419 C418 1.367 . S
C419 C421 1.433 . S
C420 C416 1.350 . S
C420 C417 1.463 . S
C420 N424 1.427 . S
C421 H411 0.929 . S
C421 C419 1.433 . S
C421 N424 1.384 . S
C422 H413 0.929 . S
C422 C414 1.378 . S
C422 C417 1.350 . S
C423 H410 0.929 . S
C423 C415 1.433 . S
C423 N425 1.384 . S
N424 C420 1.427 . S
N424 C421 1.384 . S
N425 C417 1.427 . S
N425 C423 1.384 . S
H426 C432 0.930 . S
H427 C436 0.930 . S
H428 C441 0.929 . S
H429 C439 0.929 . S
H430 C434 0.929 . S
H431 C440 0.929 . S
C432 H426 0.930 . S
C432 C433 1.367 . S
C432 C440 1.378 . S
C433 C432 1.367 . S
C433 C441 1.433 . S
C434 H430 0.929 . S
C434 C436 1.378 . S
C434 C438 1.350 . S
C435 C438 1.463 . S
C435 C440 1.350 . S
C435 N443 1.427 . S
C436 H427 0.930 . S
C436 C434 1.378 . S
C436 C437 1.367 . S
C437 C436 1.367 . S
C437 C439 1.433 . S
C438 C434 1.350 . S
C438 C435 1.463 . S
C438 N442 1.427 . S
C439 H429 0.929 . S
C439 C437 1.433 . S
C439 N442 1.384 . S
C440 H431 0.929 . S
C440 C432 1.378 . S
C440 C435 1.350 . S
C441 H428 0.929 . S
C441 C433 1.433 . S
C441 N443 1.384 . S
N442 C438 1.427 . S
N442 C439 1.384 . S
N443 C435 1.427 . S
N443 C441 1.384 . S
H444 C450 0.930 . S
H445 C454 0.930 . S
H446 C459 0.929 . S
H447 C457 0.929 . S
H448 C452 0.929 . S
H449 C458 0.929 . S
C450 H444 0.930 . S
C450 C451 1.367 . S
C450 C458 1.378 . S
C451 C450 1.367 . S
C451 C459 1.433 . S
C452 H448 0.929 . S
C452 C454 1.378 . S
C452 C456 1.350 . S
C453 C456 1.463 . S
C453 C458 1.350 . S
C453 N461 1.427 . S
C454 H445 0.930 . S
C454 C452 1.378 . S
C454 C455 1.367 . S
C455 C454 1.367 . S
C455 C457 1.433 . S
C456 C452 1.350 . S
C456 C453 1.463 . S
C456 N460 1.427 . S
C457 H447 0.929 . S
C457 C455 1.433 . S
C457 N460 1.384 . S
C458 H449 0.929 . S
C458 C450 1.378 . S
C458 C453 1.350 . S
C459 H446 0.929 . S
C459 C451 1.433 . S
C459 N461 1.384 . S
N460 C456 1.427 . S
N460 C457 1.384 . S
N461 C453 1.427 . S
N461 C459 1.384 . S
H462 C468 0.930 . S
H463 C472 0.930 . S
H464 C477 0.929 . S
H465 C475 0.929 . S
H466 C470 0.929 . S
H467 C476 0.929 . S
C468 H462 0.930 . S
C468 C469 1.367 . S
C468 C476 1.378 . S
C469 C468 1.367 . S
C469 C477 1.433 . S
C470 H466 0.929 . S
C470 C472 1.378 1_556 S
C470 C474 1.350 . S
C471 C474 1.463 . S
C471 C476 1.350 . S
C471 N479 1.427 . S
C472 H463 0.930 . S
C472 C470 1.378 1_554 S
C472 C473 1.367 . S
C473 C472 1.367 . S
C473 C475 1.433 1_554 S
C474 C470 1.350 . S
C474 C471 1.463 . S
C474 N478 1.427 . S
C475 H465 0.929 . S
C475 C473 1.433 1_556 S
C475 N478 1.384 . S
C476 H467 0.929 . S
C476 C468 1.378 . S
C476 C471 1.350 . S
C477 H464 0.929 . S
C477 C469 1.433 . S
C477 N479 1.384 . S
N478 C474 1.427 . S
N478 C475 1.384 . S
N479 C471 1.427 . S
N479 C477 1.384 . S
H480 C486 0.930 . S
H481 C490 0.930 . S
H482 C495 0.929 . S
H483 C493 0.929 . S
H484 C488 0.929 . S
H485 C494 0.929 . S
C486 H480 0.930 . S
C486 C487 1.367 . S
C486 C494 1.378 . S
C487 C486 1.367 . S
C487 C495 1.433 . S
C488 H484 0.929 . S
C488 C490 1.378 . S
C488 C492 1.350 . S
C489 C492 1.463 . S
C489 C494 1.350 . S
C489 N497 1.427 . S
C490 H481 0.930 . S
C490 C488 1.378 . S
C490 C491 1.367 . S
C491 C490 1.367 . S
C491 C493 1.433 . S
C492 C488 1.350 . S
C492 C489 1.463 . S
C492 N496 1.427 . S
C493 H483 0.929 . S
C493 C491 1.433 . S
C493 N496 1.384 . S
C494 H485 0.929 . S
C494 C486 1.378 . S
C494 C489 1.350 . S
C495 H482 0.929 . S
C495 C487 1.433 . S
C495 N497 1.384 . S
N496 C492 1.427 . S
N496 C493 1.384 . S
N497 C489 1.427 . S
N497 C495 1.384 . S
H498 C504 0.930 . S
H499 C508 0.930 . S
H500 C513 0.929 . S
H501 C511 0.929 . S
H502 C506 0.929 . S
H503 C512 0.929 . S
C504 H498 0.930 . S
C504 C505 1.367 . S
C504 C512 1.378 . S
C505 C504 1.367 . S
C505 C513 1.433 . S
C506 H502 0.929 . S
C506 C508 1.378 . S
C506 C510 1.350 . S
C507 C510 1.463 . S
C507 C512 1.350 . S
C507 N515 1.427 . S
C508 H499 0.930 . S
C508 C506 1.378 . S
C508 C509 1.367 . S
C509 C508 1.367 . S
C509 C511 1.433 . S
C510 C506 1.350 . S
C510 C507 1.463 . S
C510 N514 1.427 . S
C511 H501 0.929 . S
C511 C509 1.433 . S
C511 N514 1.384 . S
C512 H503 0.929 . S
C512 C504 1.378 . S
C512 C507 1.350 . S
C513 H500 0.929 . S
C513 C505 1.433 . S
C513 N515 1.384 . S
N514 C510 1.427 . S
N514 C511 1.384 . S
N515 C507 1.427 . S
N515 C513 1.384 . S
H516 C522 0.930 . S
H517 C526 0.930 . S
H518 C531 0.929 . S
H519 C529 0.929 . S
H520 C524 0.929 . S
H521 C530 0.929 . S
C522 H516 0.930 . S
C522 C523 1.367 . S
C522 C530 1.378 . S
C523 C522 1.367 . S
C523 C531 1.433 . S
C524 H520 0.929 . S
C524 C526 1.378 . S
C524 C528 1.350 . S
C525 C528 1.463 . S
C525 C530 1.350 . S
C525 N533 1.427 . S
C526 H517 0.930 . S
C526 C524 1.378 . S
C526 C527 1.367 . S
C527 C526 1.367 . S
C527 C529 1.433 . S
C528 C524 1.350 . S
C528 C525 1.463 . S
C528 N532 1.427 . S
C529 H519 0.929 . S
C529 C527 1.433 . S
C529 N532 1.384 . S
C530 H521 0.929 . S
C530 C522 1.378 . S
C530 C525 1.350 . S
C531 H518 0.929 . S
C531 C523 1.433 . S
C531 N533 1.384 . S
N532 C528 1.427 . S
N532 C529 1.384 . S
N533 C525 1.427 . S
N533 C531 1.384 . S
H534 C540 0.930 . S
H535 C544 0.930 . S
H536 C549 0.929 . S
H537 C547 0.929 . S
H538 C542 0.929 . S
H539 C548 0.929 . S
C540 H534 0.930 . S
C540 C541 1.367 . S
C540 C548 1.378 . S
C541 C540 1.367 . S
C541 C549 1.433 . S
C542 H538 0.929 . S
C542 C544 1.378 . S
C542 C546 1.350 . S
C543 C546 1.463 . S
C543 C548 1.350 . S
C543 N551 1.427 . S
C544 H535 0.930 . S
C544 C542 1.378 . S
C544 C545 1.367 . S
C545 C544 1.367 . S
C545 C547 1.433 . S
C546 C542 1.350 . S
C546 C543 1.463 . S
C546 N550 1.427 . S
C547 H537 0.929 . S
C547 C545 1.433 . S
C547 N550 1.384 . S
C548 H539 0.929 . S
C548 C540 1.378 . S
C548 C543 1.350 . S
C549 H536 0.929 . S
C549 C541 1.433 . S
C549 N551 1.384 . S
N550 C546 1.427 . S
N550 C547 1.384 . S
N551 C543 1.427 . S
N551 C549 1.384 . S
H552 C558 0.930 . S
H553 C562 0.930 . S
H554 C567 0.929 . S
H555 C565 0.929 . S
H556 C560 0.929 . S
H557 C566 0.929 . S
C558 H552 0.930 . S
C558 C559 1.367 . S
C558 C566 1.378 . S
C559 C558 1.367 . S
C559 C567 1.433 . S
C560 H556 0.929 . S
C560 C562 1.378 . S
C560 C564 1.350 . S
C561 C564 1.463 . S
C561 C566 1.350 . S
C561 N569 1.427 . S
C562 H553 0.930 . S
C562 C560 1.378 . S
C562 C563 1.367 . S
C563 C562 1.367 . S
C563 C565 1.433 . S
C564 C560 1.350 . S
C564 C561 1.463 . S
C564 N568 1.427 . S
C565 H555 0.929 . S
C565 C563 1.433 . S
C565 N568 1.384 . S
C566 H557 0.929 . S
C566 C558 1.378 . S
C566 C561 1.350 . S
C567 H554 0.929 . S
C567 C559 1.433 . S
C567 N569 1.384 . S
N568 C564 1.427 . S
N568 C565 1.384 . S
N569 C561 1.427 . S
N569 C567 1.384 . S
H570 C576 0.930 . S
H571 C580 0.930 . S
H572 C585 0.929 . S
H573 C583 0.929 . S
H574 C578 0.929 . S
H575 C584 0.929 . S
C576 H570 0.930 . S
C576 C577 1.367 . S
C576 C584 1.378 . S
C577 C576 1.367 . S
C577 C585 1.433 . S
C578 H574 0.929 . S
C578 C580 1.378 . S
C578 C582 1.350 . S
C579 C582 1.463 . S
C579 C584 1.350 . S
C579 N587 1.427 . S
C580 H571 0.930 . S
C580 C578 1.378 . S
C580 C581 1.367 . S
C581 C580 1.367 . S
C581 C583 1.433 . S
C582 C578 1.350 . S
C582 C579 1.463 . S
C582 N586 1.427 . S
C583 H573 0.929 . S
C583 C581 1.433 . S
C583 N586 1.384 . S
C584 H575 0.929 . S
C584 C576 1.378 . S
C584 C579 1.350 . S
C585 H572 0.929 . S
C585 C577 1.433 . S
C585 N587 1.384 . S
N586 C582 1.427 . S
N586 C583 1.384 . S
N587 C579 1.427 . S
N587 C585 1.384 . S
H588 C594 0.930 . S
H589 C598 0.930 . S
H590 C603 0.929 . S
H591 C601 0.929 . S
H592 C596 0.929 . S
H593 C602 0.929 . S
C594 H588 0.930 . S
C594 C595 1.367 . S
C594 C602 1.378 . S
C595 C594 1.367 . S
C595 C603 1.433 . S
C596 H592 0.929 . S
C596 C598 1.378 1_554 S
C596 C600 1.350 . S
C597 C600 1.463 . S
C597 C602 1.350 . S
C597 N605 1.427 . S
C598 H589 0.930 . S
C598 C596 1.378 1_556 S
C598 C599 1.367 . S
C599 C598 1.367 . S
C599 C601 1.433 . S
C600 C596 1.350 . S
C600 C597 1.463 . S
C600 N604 1.427 . S
C601 H591 0.929 . S
C601 C599 1.433 . S
C601 N604 1.384 1_556 S
C602 H593 0.929 . S
C602 C594 1.378 . S
C602 C597 1.350 . S
C603 H590 0.929 . S
C603 C595 1.433 . S
C603 N605 1.384 . S
N604 C600 1.427 . S
N604 C601 1.384 1_554 S
N605 C597 1.427 . S
N605 C603 1.384 . S
H606 C612 0.930 . S
H607 C616 0.930 . S
H608 C621 0.929 . S
H609 C619 0.929 . S
H610 C614 0.929 . S
H611 C620 0.929 . S
C612 H606 0.930 . S
C612 C613 1.367 . S
C612 C620 1.378 . S
C613 C612 1.367 . S
C613 C621 1.433 . S
C614 H610 0.929 . S
C614 C616 1.378 . S
C614 C618 1.350 . S
C615 C618 1.463 . S
C615 C620 1.350 . S
C615 N623 1.427 . S
C616 H607 0.930 . S
C616 C614 1.378 . S
C616 C617 1.367 . S
C617 C616 1.367 . S
C617 C619 1.433 . S
C618 C614 1.350 . S
C618 C615 1.463 . S
C618 N622 1.427 . S
C619 H609 0.929 . S
C619 C617 1.433 . S
C619 N622 1.384 . S
C620 H611 0.929 . S
C620 C612 1.378 . S
C620 C615 1.350 . S
C621 H608 0.929 . S
C621 C613 1.433 . S
C621 N623 1.384 . S
N622 C618 1.427 . S
N622 C619 1.384 . S
N623 C615 1.427 . S
N623 C621 1.384 . S
C203 C178 1.584 . S
C199 C8 1.535 . S
C217 C26 1.538 . S
C221 C119 1.583 . S
C235 C50 1.533 . S
C239 C122 1.578 . S
C253 C68 1.545 . S
C257 C136 1.586 . S
C275 C161 1.583 . S
C271 C80 1.534 . S
C289 C104 1.528 . S
C293 C164 1.572 . S
C307 C32 1.504 . S
C311 C133 1.564 . S
C325 C44 1.519 . S
C329 C147 1.571 . S
C343 C62 1.516 . S
C347 C150 1.559 . S
C365 C175 1.558 . S
C361 C86 1.500 1_554 S
C383 C189 1.568 . S
C379 C98 1.524 . S
C401 C108 1.559 . S
C397 C14 1.509 . S
C415 C7 1.450 . S
C419 C131 1.503 . S
C433 C25 1.457 . S
C437 C145 1.514 . S
C455 C155 1.512 . S
C451 C52 1.466 . S
C469 C70 1.454 . S
C473 C173 1.498 . S
C491 C187 1.513 . S
C487 C79 1.456 . S
C509 C113 1.513 . S
C505 C106 1.468 . S
C527 C183 1.536 . S
C523 C34 1.487 . S
C541 C43 1.460 . S
C545 C117 1.520 . S
C563 C127 1.527 . S
C559 C61 1.480 . S
C577 C88 1.488 . S
C581 C141 1.537 . S
C595 C97 1.464 . S
C599 C159 1.521 . S
C613 C16 1.479 . S
C617 C169 1.526 . S
