# Generated by pormake.
# Topology pyr, (3,6)-cn, num edge types: 1
# Building blocks:
#     Node 0, Type 0, BuildingBlock: CUQRIR_clean_linker_1, # of connection points: 3
#     Node 1, Type 0, BuildingBlock: CUQRIR_clean_linker_1, # of connection points: 3
#     Node 2, Type 0, BuildingBlock: CUQRIR_clean_linker_1, # of connection points: 3
#     Node 3, Type 0, BuildingBlock: CUQRIR_clean_linker_1, # of connection points: 3
#     Node 4, Type 0, BuildingBlock: CUQRIR_clean_linker_1, # of connection points: 3
#     Node 5, Type 0, BuildingBlock: CUQRIR_clean_linker_1, # of connection points: 3
#     Node 6, Type 0, BuildingBlock: CUQRIR_clean_linker_1, # of connection points: 3
#     Node 7, Type 0, BuildingBlock: CUQRIR_clean_linker_1, # of connection points: 3
#     Node 8, Type 1, BuildingBlock: CIFDUS_clean_sbu_1, # of connection points: 6
#     Node 9, Type 1, BuildingBlock: CIFDUS_clean_sbu_1, # of connection points: 6
#     Node 10, Type 1, BuildingBlock: CIFDUS_clean_sbu_1, # of connection points: 6
#     Node 11, Type 1, BuildingBlock: CIFDUS_clean_sbu_1, # of connection points: 6
#     Edge 12, Type (0, 1), BuildingBlock: EYOCIG_clean_linker_4, # of connection points: 2
#     Edge 13, Type (0, 1), BuildingBlock: EYOCIG_clean_linker_4, # of connection points: 2
#     Edge 14, Type (0, 1), BuildingBlock: EYOCIG_clean_linker_4, # of connection points: 2
#     Edge 15, Type (0, 1), BuildingBlock: EYOCIG_clean_linker_4, # of connection points: 2
#     Edge 16, Type (0, 1), BuildingBlock: EYOCIG_clean_linker_4, # of connection points: 2
#     Edge 17, Type (0, 1), BuildingBlock: EYOCIG_clean_linker_4, # of connection points: 2
#     Edge 18, Type (0, 1), BuildingBlock: EYOCIG_clean_linker_4, # of connection points: 2
#     Edge 19, Type (0, 1), BuildingBlock: EYOCIG_clean_linker_4, # of connection points: 2
#     Edge 20, Type (0, 1), BuildingBlock: EYOCIG_clean_linker_4, # of connection points: 2
#     Edge 21, Type (0, 1), BuildingBlock: EYOCIG_clean_linker_4, # of connection points: 2
#     Edge 22, Type (0, 1), BuildingBlock: EYOCIG_clean_linker_4, # of connection points: 2
#     Edge 23, Type (0, 1), BuildingBlock: EYOCIG_clean_linker_4, # of connection points: 2
#     Edge 24, Type (0, 1), BuildingBlock: EYOCIG_clean_linker_4, # of connection points: 2
#     Edge 25, Type (0, 1), BuildingBlock: EYOCIG_clean_linker_4, # of connection points: 2
#     Edge 26, Type (0, 1), BuildingBlock: EYOCIG_clean_linker_4, # of connection points: 2
#     Edge 27, Type (0, 1), BuildingBlock: EYOCIG_clean_linker_4, # of connection points: 2
#     Edge 28, Type (0, 1), BuildingBlock: EYOCIG_clean_linker_4, # of connection points: 2
#     Edge 29, Type (0, 1), BuildingBlock: EYOCIG_clean_linker_4, # of connection points: 2
#     Edge 30, Type (0, 1), BuildingBlock: EYOCIG_clean_linker_4, # of connection points: 2
#     Edge 31, Type (0, 1), BuildingBlock: EYOCIG_clean_linker_4, # of connection points: 2
#     Edge 32, Type (0, 1), BuildingBlock: EYOCIG_clean_linker_4, # of connection points: 2
#     Edge 33, Type (0, 1), BuildingBlock: EYOCIG_clean_linker_4, # of connection points: 2
#     Edge 34, Type (0, 1), BuildingBlock: EYOCIG_clean_linker_4, # of connection points: 2
#     Edge 35, Type (0, 1), BuildingBlock: EYOCIG_clean_linker_4, # of connection points: 2
# Relax obj value: 0.108
# Max RMSD: 0.216
# Mean RMSD: 0.159
data_MOF--net-pry--node1-CIFDUS_clean_sbu_1--node2-CUQRIR_clean_linker_1--edge1-EYOCIG_clean_linker_4
_symmetry_space_group_name_H-M    P1
_symmetry_Int_Tables_number       1
_symmetry_cell_setting            triclinic
loop_
_symmetry_equiv_pos_as_xyz
'x, y, z'
_cell_length_a     26.350639
_cell_length_b     25.44872
_cell_length_c     24.451808
_cell_angle_alpha  90.049712
_cell_angle_beta   93.030504
_cell_angle_gamma 96.31356
loop_
_atom_site_label
_atom_site_type_symbol
_atom_site_fract_x
_atom_site_fract_y
_atom_site_fract_z
_atom_type_partial_charge
C0 C 0.14971 0.19903 0.16803 0.0
N1 N 0.18206 0.16249 0.18112 0.0
N2 N 0.16267 0.22438 0.1215 0.0
C3 C 0.10469 0.20977 0.20011 0.0
C4 C 0.20421 0.20213 0.10637 0.0
N5 N 0.21632 0.16425 0.14255 0.0
C6 C 0.23338 0.2188 0.057 0.0
H7 H 0.06987 0.18651 0.18172 0.0
H8 H 0.09874 0.25223 0.1979 0.0
H9 H 0.10963 0.19833 0.24365 0.0
H10 H 0.25653 0.25723 0.06601 0.0
H11 H 0.20627 0.22484 0.02184 0.0
H12 H 0.25914 0.18936 0.04571 0.0
C13 C 0.39649 0.88097 0.60788 0.0
N14 N 0.38396 0.91643 0.64444 0.0
N15 N 0.43879 0.85992 0.62588 0.0
C16 C 0.36541 0.86411 0.55611 0.0
C17 C 0.45226 0.88373 0.6746 0.0
N18 N 0.41898 0.91875 0.68614 0.0
C19 C 0.49625 0.87001 0.71158 0.0
H20 H 0.33372 0.83393 0.56635 0.0
H21 H 0.38913 0.84669 0.52618 0.0
H22 H 0.34856 0.89821 0.53706 0.0
H23 H 0.53227 0.87868 0.69013 0.0
H24 H 0.49153 0.8269 0.71985 0.0
H25 H 0.49938 0.89204 0.75095 0.0
C26 C 0.61491 0.38021 0.85391 0.0
N27 N 0.64416 0.36943 0.8984 0.0
N28 N 0.63596 0.42382 0.82904 0.0
C29 C 0.56769 0.34631 0.83259 0.0
C30 C 0.6771 0.4414 0.86147 0.0
N31 N 0.68221 0.4081 0.90377 0.0
C32 C 0.71454 0.48819 0.84816 0.0
H33 H 0.57858 0.31635 0.80377 0.0
H34 H 0.54114 0.37094 0.81041 0.0
H35 H 0.54802 0.32557 0.86681 0.0
H36 H 0.69493 0.52458 0.84941 0.0
H37 H 0.72701 0.48424 0.80584 0.0
H38 H 0.74859 0.49278 0.87706 0.0
C39 C 0.87615 0.59323 0.39086 0.0
N40 N 0.9136 0.63021 0.37578 0.0
N41 N 0.85804 0.607 0.43873 0.0
C42 C 0.85415 0.54613 0.35668 0.0
C43 C 0.88632 0.65262 0.45322 0.0
N44 N 0.92057 0.66681 0.41529 0.0
C45 C 0.87498 0.68644 0.50059 0.0
H46 H 0.82654 0.55885 0.3249 0.0
H47 H 0.83396 0.51547 0.38242 0.0
H48 H 0.88496 0.52899 0.33574 0.0
H49 H 0.87276 0.66204 0.53815 0.0
H50 H 0.83692 0.70056 0.4924 0.0
H51 H 0.90396 0.72104 0.50771 0.0
C52 C 0.8813 0.89872 0.94498 0.0
N53 N 0.91569 0.88508 0.90978 0.0
N54 N 0.85924 0.94122 0.92657 0.0
C55 C 0.86748 0.86893 0.99613 0.0
C56 C 0.88183 0.95368 0.87923 0.0
N57 N 0.916 0.91929 0.8684 0.0
C58 C 0.86979 0.99948 0.84391 0.0
H59 H 0.83869 0.83494 0.98502 0.0
H60 H 0.85099 0.89462 0.02562 0.0
H61 H 0.90156 0.85329 1.01589 0.0
H62 H 0.87977 0.03665 0.86776 0.0
H63 H 0.82807 0.99615 0.8334 0.0
H64 H 0.89092 1.00186 0.80583 0.0
C65 C 0.71584 0.19491 0.46399 0.0
N66 N 0.72771 0.15587 0.43063 0.0
N67 N 0.67033 0.21107 0.44745 0.0
C68 C 0.74845 0.21757 0.51241 0.0
C69 C 0.6547 0.18096 0.4032 0.0
N70 N 0.68944 0.14748 0.39258 0.0
C71 C 0.60622 0.18647 0.36916 0.0
H72 H 0.73397 0.19836 0.5501 0.0
H73 H 0.74574 0.26063 0.51612 0.0
H74 H 0.78903 0.21059 0.50935 0.0
H75 H 0.61267 0.22148 0.34236 0.0
H76 H 0.57496 0.19335 0.39611 0.0
H77 H 0.59403 0.1511 0.34328 0.0
C78 C 0.36327 0.6431 0.18738 0.0
N79 N 0.39801 0.68054 0.21089 0.0
N80 N 0.34733 0.65922 0.13758 0.0
C81 C 0.34106 0.59318 0.21446 0.0
C82 C 0.37314 0.70724 0.13135 0.0
N83 N 0.40396 0.72054 0.17611 0.0
C84 C 0.36311 0.74347 0.08443 0.0
H85 H 0.35138 0.55851 0.19166 0.0
H86 H 0.29869 0.59105 0.21222 0.0
H87 H 0.35482 0.59061 0.25791 0.0
H88 H 0.33155 0.76667 0.09459 0.0
H89 H 0.35114 0.7203 0.04654 0.0
H90 H 0.39748 0.77127 0.07709 0.0
C91 C 0.10868 0.38381 0.667 0.0
N92 N 0.13588 0.37583 0.62295 0.0
N93 N 0.12781 0.42901 0.69308 0.0
C94 C 0.06407 0.3471 0.68516 0.0
C95 C 0.16669 0.44904 0.66297 0.0
N96 N 0.17233 0.41619 0.62069 0.0
C97 C 0.19964 0.49998 0.67631 0.0
H98 H 0.02893 0.35666 0.66198 0.0
H99 H 0.05853 0.35188 0.72948 0.0
H100 H 0.06918 0.30532 0.67624 0.0
H101 H 0.22275 0.49534 0.71492 0.0
H102 H 0.17479 0.5316 0.68338 0.0
H103 H 0.22536 0.51216 0.64304 0.0
O104 O 0.98554 0.05555 0.50344 0.0
Mn105 Mn 0.05499 0.01974 0.51932 0.0
O106 O 0.94578 0.01663 0.42911 0.0
Mn107 Mn 1.00109 0.98161 0.41725 0.0
O108 O 0.12487 0.986 0.53851 0.0
O109 O 0.08262 0.08893 0.56072 0.0
Mn110 Mn 0.10752 0.06629 0.62405 0.0
O111 O 0.02177 0.98436 0.59059 0.0
O112 O 0.16249 0.0315 0.61161 0.0
O113 O 0.09069 0.05455 0.44935 0.0
O114 O 0.05012 0.01546 0.37541 0.0
O115 O 0.11935 0.13666 0.6317 0.0
O116 O 0.05839 0.02967 0.66376 0.0
C117 C 1.00715 0.90773 0.44626 0.0
C118 C 0.94693 0.0487 0.46843 0.0
C119 C 0.16251 0.99699 0.57448 0.0
C120 C 0.09882 0.13548 0.58233 0.0
C121 C 0.02654 0.99347 0.6428 0.0
C122 C 0.0859 0.04686 0.39709 0.0
O123 O 0.02655 0.94925 0.47659 0.0
O124 O 0.98415 0.91486 0.3992 0.0
O125 O 0.50646 0.0334 0.96436 0.0
Mn126 Mn 0.5376 0.03995 0.04699 0.0
O127 O 0.5104 0.94906 0.93809 0.0
Mn128 Mn 0.54614 0.93024 1.00025 0.0
O129 O 0.57035 0.04455 0.1281 0.0
O130 O 0.55419 0.12001 0.03761 0.0
Mn131 Mn 0.53235 0.14749 0.09779 0.0
O132 O 0.46189 0.04906 0.07272 0.0
O133 O 0.5719 0.12837 0.15709 0.0
O134 O 0.61253 0.03192 0.02149 0.0
O135 O 0.61587 0.94634 1.00132 0.0
O136 O 0.55673 0.20486 0.06058 0.0
O137 O 0.46276 0.1333 0.10044 0.0
C138 C 0.50988 0.91165 0.0731 0.0
C139 C 0.49783 0.99508 0.92898 0.0
C140 C 0.58368 0.08174 0.16342 0.0
C141 C 0.56763 0.16957 0.02621 0.0
C142 C 0.4391 0.0881 0.09014 0.0
C143 C 0.63722 0.99311 1.0082 0.0
O144 O 0.52258 0.96019 0.05777 0.0
O145 O 0.51986 0.87476 0.04014 0.0
O146 O 0.5864 0.54832 0.5109 0.0
Mn147 Mn 0.50909 0.5211 0.51051 0.0
O148 O 0.6117 0.53125 0.42635 0.0
Mn149 Mn 0.55086 0.49632 0.3977 0.0
O150 O 0.43074 0.49195 0.51197 0.0
O151 O 0.51498 0.51652 0.59053 0.0
Mn152 Mn 0.4673 0.54286 0.62501 0.0
O153 O 0.49246 0.59927 0.51657 0.0
O154 O 0.4081 0.50322 0.59903 0.0
O155 O 0.52979 0.44372 0.50593 0.0
O156 O 0.54257 0.42627 0.41763 0.0
O157 O 0.51085 0.51722 0.67817 0.0
O158 O 0.47532 0.61274 0.60488 0.0
C159 C 0.49198 0.54639 0.38253 0.0
C160 C 0.62037 0.54863 0.47519 0.0
C161 C 0.39835 0.48648 0.55007 0.0
C162 C 0.53513 0.50444 0.63649 0.0
C163 C 0.4839 0.62912 0.55675 0.0
C164 C 0.54115 0.4129 0.4677 0.0
O165 O 0.50351 0.52664 0.42929 0.0
O166 O 0.51522 0.52844 0.34239 0.0
O167 O 0.93523 0.50931 0.01797 0.0
Mn168 Mn 1.01099 0.54315 0.02089 0.0
O169 O 0.9034 0.51913 0.93183 0.0
Mn170 Mn 0.9608 0.55815 0.90759 0.0
O171 O 0.08654 0.57553 0.02314 0.0
O172 O 1.005 0.55399 0.10477 0.0
Mn173 Mn 0.05865 0.52267 0.12938 0.0
O174 O 0.03487 0.46557 0.02808 0.0
O175 O 0.11732 0.56059 0.10832 0.0
O176 O 0.99045 0.62193 1.00941 0.0
O177 O 0.96826 0.62941 0.91989 0.0
O178 O 0.03405 0.54134 0.19165 0.0
O179 O 0.05467 0.45184 0.11599 0.0
C180 C 0.02498 0.52148 0.88927 0.0
C181 C 0.89948 0.50182 0.9803 0.0
C182 C 0.12239 0.57894 0.06057 0.0
C183 C 1.00145 0.56067 0.15792 0.0
C184 C 0.04924 0.43574 0.06717 0.0
C185 C 0.97917 0.64962 0.96686 0.0
O186 O 0.01468 0.53271 0.939 0.0
O187 O 0.99303 0.53386 0.85068 0.0
C188 C 0.16709 0.1097 0.27159 0.0
C189 C 0.17886 0.13088 0.22876 0.0
C190 C 0.14509 0.09045 0.32104 0.0
C191 C 0.12134 0.07353 0.35988 0.0
C192 C 0.43347 0.97358 0.7773 0.0
C193 C 0.42245 0.95073 0.73388 0.0
C194 C 0.45316 0.99318 0.82989 0.0
C195 C 0.47249 1.00164 0.87576 0.0
C196 C 0.62499 0.44404 0.72587 0.0
C197 C 0.62999 0.43464 0.7735 0.0
C198 C 0.609 0.45916 0.67381 0.0
C199 C 0.57949 0.47829 0.64352 0.0
C200 C 0.94108 0.6285 0.27517 0.0
C201 C 0.93145 0.63385 0.32251 0.0
C202 C 0.95073 0.61277 0.22143 0.0
C203 C 0.96701 0.59241 0.18232 0.0
C204 C 0.296 0.11214 0.12914 0.0
C205 C 0.25838 0.13395 0.13904 0.0
C206 C 0.34243 0.09266 0.11337 0.0
C207 C 0.38477 0.08318 0.10066 0.0
C208 C 0.2966 0.9512 0.62219 0.0
C209 C 0.33777 0.93943 0.63929 0.0
C210 C 0.24885 0.95897 0.59535 0.0
C211 C 0.20758 0.96978 0.57735 0.0
C212 C 0.76278 0.42246 0.96923 0.0
C213 C 0.72386 0.41115 0.94201 0.0
C214 C 0.81133 0.44586 0.98782 0.0
C215 C 0.85304 0.47025 0.99122 0.0
C216 C 0.76935 0.5789 0.4771 0.0
C217 C 0.81001 0.59043 0.45809 0.0
C218 C 0.71818 0.57169 0.49079 0.0
C219 C 0.67257 0.56354 0.49123 0.0
C220 C 0.1161 0.30178 0.07809 0.0
C221 C 0.13887 0.26619 0.09656 0.0
C222 C 0.08907 0.34548 0.06246 0.0
C223 C 0.06897 0.386 0.05684 0.0
C224 C 0.63574 0.27439 0.93784 0.0
C225 C 0.64284 0.31929 0.92229 0.0
C226 C 0.61869 0.22337 0.9561 0.0
C227 C 0.59703 0.18798 0.98141 0.0
C228 C 0.97933 0.7552 0.43147 0.0
C229 C 0.95487 0.71352 0.4183 0.0
C230 C 0.99961 0.80617 0.45167 0.0
C231 C 1.00922 0.85318 0.46074 0.0
C232 C 0.47169 0.779 0.58018 0.0
C233 C 0.45805 0.81636 0.60292 0.0
C234 C 0.48057 0.73029 0.55795 0.0
C235 C 0.4837 0.68446 0.54907 0.0
C236 C 0.96116 0.92594 0.77522 0.0
C237 C 0.94268 0.91875 0.81957 0.0
C238 C 0.97948 0.94201 0.72305 0.0
C239 C 0.99734 0.96127 0.68173 0.0
C240 C 0.66961 0.09149 0.30393 0.0
C241 C 0.68516 0.11395 0.34625 0.0
C242 C 0.64168 0.07639 0.254 0.0
C243 C 0.6155 0.07268 0.21162 0.0
C244 C 0.4367 0.66207 0.30719 0.0
C245 C 0.4221 0.67667 0.26294 0.0
C246 C 0.45066 0.62901 0.35021 0.0
C247 C 0.46639 0.59264 0.37464 0.0
C248 C 0.10786 0.45884 0.79077 0.0
C249 C 0.11733 0.44536 0.74565 0.0
C250 C 0.09153 0.47608 0.84087 0.0
C251 C 0.06703 0.49506 0.87424 0.0
C252 C 0.78014 0.97977 0.96577 0.0
C253 C 0.81667 0.96225 0.94734 0.0
C254 C 0.73373 0.99516 0.98454 0.0
C255 C 0.69079 1.00111 0.99698 0.0
C256 C 0.81354 0.11313 0.44665 0.0
C257 C 0.77297 0.13052 0.436 0.0
C258 C 0.86194 0.09534 0.46186 0.0
C259 C 0.90271 0.07779 0.47078 0.0
C260 C 0.26608 0.62524 0.07865 0.0
C261 C 0.30336 0.63953 0.10691 0.0
C262 C 0.217 0.61331 0.05495 0.0
C263 C 0.17223 0.60024 0.04848 0.0
C264 C 0.25391 0.42821 0.56387 0.0
C265 C 0.215 0.41944 0.58798 0.0
C266 C 0.30327 0.44381 0.54506 0.0
C267 C 0.34718 0.46136 0.53914 0.0
C268 C 0.9594 0.7999 0.93211 0.0
C269 C 0.94234 0.84003 0.91641 0.0
C270 C 0.97147 0.75097 0.95512 0.0
C271 C 0.97717 0.70613 0.96921 0.0
C272 C 0.45195 0.81509 0.17963 0.0
C273 C 0.43227 0.77031 0.18461 0.0
C274 C 0.47111 0.86382 0.15649 0.0
C275 C 0.4879 0.89586 0.12379 0.0
C276 C 0.11978 0.28705 0.56794 0.0
C277 C 0.13022 0.3294 0.59067 0.0
C278 C 0.10594 0.23317 0.55337 0.0
C279 C 0.09768 0.18551 0.55538 0.0
C280 C 0.61955 0.2869 0.47919 0.0
C281 C 0.64538 0.2527 0.46732 0.0
C282 C 0.58818 0.32805 0.48455 0.0
C283 C 0.56554 0.36677 0.48234 0.0
loop_
_geom_bond_atom_site_label_1
_geom_bond_atom_site_label_2
_geom_bond_distance
_geom_bond_site_symmetry_2
_ccdc_geom_bond_type
C0 N1 1.317 . S
C0 N2 1.348 . S
C0 C3 1.485 . S
N1 C0 1.317 . S
N1 N5 1.370 . S
N2 C0 1.348 . S
N2 C4 1.346 . S
C3 C0 1.485 . S
C3 H7 0.960 . S
C3 H8 0.961 . S
C3 H9 0.960 . S
C4 N2 1.346 . S
C4 N5 1.307 . S
C4 C6 1.486 . S
N5 N1 1.370 . S
N5 C4 1.307 . S
C6 C4 1.486 . S
C6 H10 0.960 . S
C6 H11 0.960 . S
C6 H12 0.959 . S
H7 C3 0.960 . S
H8 C3 0.961 . S
H9 C3 0.960 . S
H10 C6 0.960 . S
H11 C6 0.960 . S
H12 C6 0.959 . S
C13 N14 1.317 . S
C13 N15 1.348 . S
C13 C16 1.485 . S
N14 C13 1.317 . S
N14 N18 1.370 . S
N15 C13 1.348 . S
N15 C17 1.346 . S
C16 C13 1.485 . S
C16 H20 0.960 . S
C16 H21 0.961 . S
C16 H22 0.960 . S
C17 N15 1.346 . S
C17 N18 1.307 . S
C17 C19 1.486 . S
N18 N14 1.370 . S
N18 C17 1.307 . S
C19 C17 1.486 . S
C19 H23 0.960 . S
C19 H24 0.960 . S
C19 H25 0.959 . S
H20 C16 0.960 . S
H21 C16 0.961 . S
H22 C16 0.960 . S
H23 C19 0.960 . S
H24 C19 0.960 . S
H25 C19 0.959 . S
C26 N27 1.317 . S
C26 N28 1.348 . S
C26 C29 1.485 . S
N27 C26 1.317 . S
N27 N31 1.370 . S
N28 C26 1.348 . S
N28 C30 1.346 . S
C29 C26 1.485 . S
C29 H33 0.960 . S
C29 H34 0.961 . S
C29 H35 0.960 . S
C30 N28 1.346 . S
C30 N31 1.307 . S
C30 C32 1.486 . S
N31 N27 1.370 . S
N31 C30 1.307 . S
C32 C30 1.486 . S
C32 H36 0.960 . S
C32 H37 0.960 . S
C32 H38 0.959 . S
H33 C29 0.960 . S
H34 C29 0.961 . S
H35 C29 0.960 . S
H36 C32 0.960 . S
H37 C32 0.960 . S
H38 C32 0.959 . S
C39 N40 1.317 . S
C39 N41 1.348 . S
C39 C42 1.485 . S
N40 C39 1.317 . S
N40 N44 1.370 . S
N41 C39 1.348 . S
N41 C43 1.346 . S
C42 C39 1.485 . S
C42 H46 0.960 . S
C42 H47 0.961 . S
C42 H48 0.960 . S
C43 N41 1.346 . S
C43 N44 1.307 . S
C43 C45 1.486 . S
N44 N40 1.370 . S
N44 C43 1.307 . S
C45 C43 1.486 . S
C45 H49 0.960 . S
C45 H50 0.960 . S
C45 H51 0.959 . S
H46 C42 0.960 . S
H47 C42 0.961 . S
H48 C42 0.960 . S
H49 C45 0.960 . S
H50 C45 0.960 . S
H51 C45 0.959 . S
C52 N53 1.317 . S
C52 N54 1.348 . S
C52 C55 1.485 . S
N53 C52 1.317 . S
N53 N57 1.370 . S
N54 C52 1.348 . S
N54 C56 1.346 . S
C55 C52 1.485 . S
C55 H59 0.960 . S
C55 H60 0.961 1_556 S
C55 H61 0.960 . S
C56 N54 1.346 . S
C56 N57 1.307 . S
C56 C58 1.486 . S
N57 N53 1.370 . S
N57 C56 1.307 . S
C58 C56 1.486 . S
C58 H62 0.960 1_565 S
C58 H63 0.960 . S
C58 H64 0.959 . S
H59 C55 0.960 . S
H60 C55 0.961 1_554 S
H61 C55 0.960 . S
H62 C58 0.960 1_545 S
H63 C58 0.960 . S
H64 C58 0.959 . S
C65 N66 1.317 . S
C65 N67 1.348 . S
C65 C68 1.485 . S
N66 C65 1.317 . S
N66 N70 1.370 . S
N67 C65 1.348 . S
N67 C69 1.346 . S
C68 C65 1.485 . S
C68 H72 0.960 . S
C68 H73 0.961 . S
C68 H74 0.960 . S
C69 N67 1.346 . S
C69 N70 1.307 . S
C69 C71 1.486 . S
N70 N66 1.370 . S
N70 C69 1.307 . S
C71 C69 1.486 . S
C71 H75 0.960 . S
C71 H76 0.960 . S
C71 H77 0.959 . S
H72 C68 0.960 . S
H73 C68 0.961 . S
H74 C68 0.960 . S
H75 C71 0.960 . S
H76 C71 0.960 . S
H77 C71 0.959 . S
C78 N79 1.317 . S
C78 N80 1.348 . S
C78 C81 1.485 . S
N79 C78 1.317 . S
N79 N83 1.370 . S
N80 C78 1.348 . S
N80 C82 1.346 . S
C81 C78 1.485 . S
C81 H85 0.960 . S
C81 H86 0.961 . S
C81 H87 0.960 . S
C82 N80 1.346 . S
C82 N83 1.307 . S
C82 C84 1.486 . S
N83 N79 1.370 . S
N83 C82 1.307 . S
C84 C82 1.486 . S
C84 H88 0.960 . S
C84 H89 0.960 . S
C84 H90 0.959 . S
H85 C81 0.960 . S
H86 C81 0.961 . S
H87 C81 0.960 . S
H88 C84 0.960 . S
H89 C84 0.960 . S
H90 C84 0.959 . S
C91 N92 1.317 . S
C91 N93 1.348 . S
C91 C94 1.485 . S
N92 C91 1.317 . S
N92 N96 1.370 . S
N93 C91 1.348 . S
N93 C95 1.346 . S
C94 C91 1.485 . S
C94 H98 0.960 . S
C94 H99 0.961 . S
C94 H100 0.960 . S
C95 N93 1.346 . S
C95 N96 1.307 . S
C95 C97 1.486 . S
N96 N92 1.370 . S
N96 C95 1.307 . S
C97 C95 1.486 . S
C97 H101 0.960 . S
C97 H102 0.960 . S
C97 H103 0.959 . S
H98 C94 0.960 . S
H99 C94 0.961 . S
H100 C94 0.960 . S
H101 C97 0.960 . S
H102 C97 0.960 . S
H103 C97 0.959 . S
O104 Mn105 2.163 1_655 S
O104 C118 1.244 . S
Mn105 O104 2.163 1_455 S
Mn105 O108 2.160 1_545 S
Mn105 O109 2.221 . S
Mn105 O111 2.163 1_545 S
Mn105 O113 2.160 . S
Mn105 O123 2.221 1_545 S
O106 Mn107 2.087 1_545 S
O106 C118 1.256 . S
Mn107 O106 2.087 1_565 S
Mn107 O114 2.089 1_665 S
Mn107 O123 2.290 1_655 S
Mn107 O124 2.251 . S
O108 Mn105 2.160 1_565 S
O108 C119 1.239 . S
O109 Mn105 2.221 . S
O109 Mn110 2.290 . S
O109 C120 1.278 . S
Mn110 O109 2.290 . S
Mn110 O112 2.089 1_545 S
Mn110 O115 2.251 . S
Mn110 O116 2.087 . S
O111 Mn105 2.163 1_565 S
O111 C121 1.244 . S
O112 Mn110 2.089 1_565 S
O112 C119 1.256 . S
O113 Mn105 2.160 . S
O113 C122 1.239 . S
O114 Mn107 2.089 1_445 S
O114 C122 1.256 . S
O115 Mn110 2.251 . S
O115 C120 1.241 . S
O116 Mn110 2.087 . S
O116 C121 1.256 1_545 S
C117 O123 1.278 1_655 S
C117 O124 1.241 . S
C118 O104 1.244 . S
C118 O106 1.256 . S
C119 O108 1.239 . S
C119 O112 1.256 . S
C120 O109 1.278 . S
C120 O115 1.241 . S
C121 O111 1.244 . S
C121 O116 1.256 1_565 S
C122 O113 1.239 . S
C122 O114 1.256 . S
O123 Mn105 2.221 1_565 S
O123 Mn107 2.290 1_455 S
O123 C117 1.278 1_455 S
O124 Mn107 2.251 . S
O124 C117 1.241 . S
O125 Mn126 2.163 1_556 S
O125 C139 1.244 1_545 S
Mn126 O125 2.163 1_554 S
Mn126 O129 2.160 . S
Mn126 O130 2.221 . S
Mn126 O132 2.163 . S
Mn126 O134 2.160 . S
Mn126 O144 2.221 1_545 S
O127 Mn128 2.087 . S
O127 C139 1.256 . S
Mn128 O127 2.087 . S
Mn128 O135 2.089 . S
Mn128 O144 2.290 1_556 S
Mn128 O145 2.251 1_556 S
O129 Mn126 2.160 . S
O129 C140 1.239 . S
O130 Mn126 2.221 . S
O130 Mn131 2.290 . S
O130 C141 1.278 1_554 S
Mn131 O130 2.290 . S
Mn131 O133 2.089 . S
Mn131 O136 2.255 . S
Mn131 O137 2.087 . S
O132 Mn126 2.163 . S
O132 C142 1.244 . S
O133 Mn131 2.089 . S
O133 C140 1.256 . S
O134 Mn126 2.160 . S
O134 C143 1.239 1_544 S
O135 Mn128 2.089 . S
O135 C143 1.256 . S
O136 Mn131 2.255 . S
O136 C141 1.240 1_554 S
O137 Mn131 2.087 . S
O137 C142 1.256 . S
C138 O144 1.278 . S
C138 O145 1.241 . S
C139 O125 1.244 1_565 S
C139 O127 1.256 . S
C140 O129 1.239 . S
C140 O133 1.256 . S
C141 O130 1.278 1_556 S
C141 O136 1.240 1_556 S
C142 O132 1.244 . S
C142 O137 1.256 . S
C143 O134 1.239 1_566 S
C143 O135 1.256 . S
O144 Mn126 2.221 1_565 S
O144 Mn128 2.290 1_554 S
O144 C138 1.278 . S
O145 Mn128 2.251 1_554 S
O145 C138 1.241 . S
O146 Mn147 2.163 . S
O146 C160 1.244 . S
Mn147 O146 2.163 . S
Mn147 O150 2.160 . S
Mn147 O151 2.221 . S
Mn147 O153 2.163 . S
Mn147 O155 2.160 . S
Mn147 O165 2.221 . S
O148 Mn149 2.087 . S
O148 C160 1.256 . S
Mn149 O148 2.087 . S
Mn149 O156 2.089 . S
Mn149 O165 2.290 . S
Mn149 O166 2.251 . S
O150 Mn147 2.160 . S
O150 C161 1.239 . S
O151 Mn147 2.221 . S
O151 Mn152 2.290 . S
O151 C162 1.278 . S
Mn152 O151 2.290 . S
Mn152 O154 2.089 . S
Mn152 O157 2.251 . S
Mn152 O158 2.087 . S
O153 Mn147 2.163 . S
O153 C163 1.244 . S
O154 Mn152 2.089 . S
O154 C161 1.256 . S
O155 Mn147 2.160 . S
O155 C164 1.239 . S
O156 Mn149 2.089 . S
O156 C164 1.256 . S
O157 Mn152 2.251 . S
O157 C162 1.241 . S
O158 Mn152 2.087 . S
O158 C163 1.256 . S
C159 O165 1.278 . S
C159 O166 1.241 . S
C160 O146 1.244 . S
C160 O148 1.256 . S
C161 O150 1.239 . S
C161 O154 1.256 . S
C162 O151 1.278 . S
C162 O157 1.241 . S
C163 O153 1.244 . S
C163 O158 1.256 . S
C164 O155 1.239 . S
C164 O156 1.256 . S
O165 Mn147 2.221 . S
O165 Mn149 2.290 . S
O165 C159 1.278 . S
O166 Mn149 2.251 . S
O166 C159 1.241 . S
O167 Mn168 2.163 1_656 S
O167 C181 1.244 . S
Mn168 O167 2.163 1_454 S
Mn168 O171 2.160 . S
Mn168 O172 2.221 1_455 S
Mn168 O174 2.163 . S
Mn168 O176 2.160 1_454 S
Mn168 O186 2.221 1_554 S
O169 Mn170 2.087 . S
O169 C181 1.256 . S
Mn170 O169 2.087 . S
Mn170 O177 2.089 . S
Mn170 O186 2.290 1_655 S
Mn170 O187 2.251 . S
O171 Mn168 2.160 . S
O171 C182 1.239 . S
O172 Mn168 2.221 1_655 S
O172 Mn173 2.290 1_655 S
O172 C183 1.278 . S
Mn173 O172 2.290 1_455 S
Mn173 O175 2.089 . S
Mn173 O178 2.251 1_455 S
Mn173 O179 2.087 . S
O174 Mn168 2.163 . S
O174 C184 1.244 . S
O175 Mn173 2.089 . S
O175 C182 1.256 . S
O176 Mn168 2.160 1_656 S
O176 C185 1.239 . S
O177 Mn170 2.089 . S
O177 C185 1.256 . S
O178 Mn173 2.251 1_655 S
O178 C183 1.241 . S
O179 Mn173 2.087 . S
O179 C184 1.256 . S
C180 O186 1.278 . S
C180 O187 1.241 1_455 S
C181 O167 1.244 . S
C181 O169 1.256 . S
C182 O171 1.239 . S
C182 O175 1.256 . S
C183 O172 1.278 . S
C183 O178 1.241 . S
C184 O174 1.244 . S
C184 O179 1.256 . S
C185 O176 1.239 . S
C185 O177 1.256 . S
O186 Mn168 2.221 1_556 S
O186 Mn170 2.290 1_455 S
O186 C180 1.278 . S
O187 Mn170 2.251 . S
O187 C180 1.241 1_655 S
C188 C189 1.170 . S
C188 C190 1.380 . S
C189 C188 1.170 . S
C190 C188 1.380 . S
C190 C191 1.170 . S
C191 C190 1.170 . S
C192 C193 1.170 . S
C192 C194 1.380 . S
C193 C192 1.170 . S
C194 C192 1.380 . S
C194 C195 1.170 . S
C195 C194 1.170 . S
C196 C197 1.170 . S
C196 C198 1.380 . S
C197 C196 1.170 . S
C198 C196 1.380 . S
C198 C199 1.170 . S
C199 C198 1.170 . S
C200 C201 1.170 . S
C200 C202 1.380 . S
C201 C200 1.170 . S
C202 C200 1.380 . S
C202 C203 1.170 . S
C203 C202 1.170 . S
C204 C205 1.170 . S
C204 C206 1.380 . S
C205 C204 1.170 . S
C206 C204 1.380 . S
C206 C207 1.170 . S
C207 C206 1.170 . S
C208 C209 1.170 . S
C208 C210 1.380 . S
C209 C208 1.170 . S
C210 C208 1.380 . S
C210 C211 1.170 . S
C211 C210 1.170 . S
C212 C213 1.170 . S
C212 C214 1.380 . S
C213 C212 1.170 . S
C214 C212 1.380 . S
C214 C215 1.170 . S
C215 C214 1.170 . S
C216 C217 1.170 . S
C216 C218 1.380 . S
C217 C216 1.170 . S
C218 C216 1.380 . S
C218 C219 1.170 . S
C219 C218 1.170 . S
C220 C221 1.170 . S
C220 C222 1.380 . S
C221 C220 1.170 . S
C222 C220 1.380 . S
C222 C223 1.170 . S
C223 C222 1.170 . S
C224 C225 1.170 . S
C224 C226 1.380 . S
C225 C224 1.170 . S
C226 C224 1.380 . S
C226 C227 1.170 . S
C227 C226 1.170 . S
C228 C229 1.170 . S
C228 C230 1.380 . S
C229 C228 1.170 . S
C230 C228 1.380 . S
C230 C231 1.170 . S
C231 C230 1.170 . S
C232 C233 1.170 . S
C232 C234 1.380 . S
C233 C232 1.170 . S
C234 C232 1.380 . S
C234 C235 1.170 . S
C235 C234 1.170 . S
C236 C237 1.170 . S
C236 C238 1.380 . S
C237 C236 1.170 . S
C238 C236 1.380 . S
C238 C239 1.170 . S
C239 C238 1.170 . S
C240 C241 1.170 . S
C240 C242 1.380 . S
C241 C240 1.170 . S
C242 C240 1.380 . S
C242 C243 1.170 . S
C243 C242 1.170 . S
C244 C245 1.170 . S
C244 C246 1.380 . S
C245 C244 1.170 . S
C246 C244 1.380 . S
C246 C247 1.170 . S
C247 C246 1.170 . S
C248 C249 1.170 . S
C248 C250 1.380 . S
C249 C248 1.170 . S
C250 C248 1.380 . S
C250 C251 1.170 . S
C251 C250 1.170 . S
C252 C253 1.170 . S
C252 C254 1.380 . S
C253 C252 1.170 . S
C254 C252 1.380 . S
C254 C255 1.170 . S
C255 C254 1.170 . S
C256 C257 1.170 . S
C256 C258 1.380 . S
C257 C256 1.170 . S
C258 C256 1.380 . S
C258 C259 1.170 . S
C259 C258 1.170 . S
C260 C261 1.170 . S
C260 C262 1.380 . S
C261 C260 1.170 . S
C262 C260 1.380 . S
C262 C263 1.170 . S
C263 C262 1.170 . S
C264 C265 1.170 . S
C264 C266 1.380 . S
C265 C264 1.170 . S
C266 C264 1.380 . S
C266 C267 1.170 . S
C267 C266 1.170 . S
C268 C269 1.170 . S
C268 C270 1.380 . S
C269 C268 1.170 . S
C270 C268 1.380 . S
C270 C271 1.170 . S
C271 C270 1.170 . S
C272 C273 1.170 . S
C272 C274 1.380 . S
C273 C272 1.170 . S
C274 C272 1.380 . S
C274 C275 1.170 . S
C275 C274 1.170 . S
C276 C277 1.170 . S
C276 C278 1.380 . S
C277 C276 1.170 . S
C278 C276 1.380 . S
C278 C279 1.170 . S
C279 C278 1.170 . S
C280 C281 1.170 . S
C280 C282 1.380 . S
C281 C280 1.170 . S
C282 C280 1.380 . S
C282 C283 1.170 . S
C283 C282 1.170 . S
C189 N1 1.497 . S
C191 C122 1.493 . S
C193 N18 1.718 . S
C195 C139 1.686 . S
C199 C162 1.032 . S
C197 N28 1.156 . S
C201 N40 1.809 . S
C203 C183 1.466 . S
C207 C142 1.928 . S
C205 N5 1.977 . S
C211 C119 1.595 . S
C209 N14 1.618 . S
C215 C181 1.357 . S
C213 N31 1.391 . S
C219 C160 1.162 . S
C217 N41 1.228 . S
C221 N2 1.552 . S
C223 C184 1.516 . S
C227 C141 1.355 . S
C225 N27 1.599 . S
C229 N44 1.691 . S
C231 C117 1.498 . S
C233 N15 1.389 . S
C235 C163 1.338 . S
C239 C121 1.742 1_655 S
C237 N57 1.814 . S
C241 N70 1.266 . S
C243 C140 1.270 . S
C245 N79 1.409 . S
C247 C159 1.274 . S
C249 N93 1.477 . S
C251 C180 1.208 . S
C253 N54 1.563 . S
C255 C143 1.529 . S
C259 C118 1.963 . S
C257 N66 2.015 . S
C263 C182 0.946 . S
C261 N80 0.977 . S
C267 C161 1.474 . S
C265 N96 1.522 . S
C269 N53 1.518 . S
C271 C185 1.504 . S
C275 C138 1.152 . S
C273 N83 1.419 . S
C279 C120 1.435 . S
C277 N92 1.564 . S
C281 N67 1.458 . S
C283 C164 1.449 . S
