# Generated by pormake.
# Topology zzz, (3,6)-cn, num edge types: 1
# Building blocks:
#     Node 0, Type 0, BuildingBlock: CUQRIR_clean_linker_1, # of connection points: 3
#     Node 1, Type 0, BuildingBlock: CUQRIR_clean_linker_1, # of connection points: 3
#     Node 2, Type 0, BuildingBlock: CUQRIR_clean_linker_1, # of connection points: 3
#     Node 3, Type 0, BuildingBlock: CUQRIR_clean_linker_1, # of connection points: 3
#     Node 4, Type 0, BuildingBlock: CUQRIR_clean_linker_1, # of connection points: 3
#     Node 5, Type 0, BuildingBlock: CUQRIR_clean_linker_1, # of connection points: 3
#     Node 6, Type 0, BuildingBlock: CUQRIR_clean_linker_1, # of connection points: 3
#     Node 7, Type 0, BuildingBlock: CUQRIR_clean_linker_1, # of connection points: 3
#     Node 8, Type 1, BuildingBlock: BETDIP_clean_sbu_0, # of connection points: 6
#     Node 9, Type 1, BuildingBlock: BETDIP_clean_sbu_0, # of connection points: 6
#     Node 10, Type 1, BuildingBlock: BETDIP_clean_sbu_0, # of connection points: 6
#     Node 11, Type 1, BuildingBlock: BETDIP_clean_sbu_0, # of connection points: 6
#     Edge 12, Type (0, 1), BuildingBlock: XUDNAN_clean_linker_2, # of connection points: 2
#     Edge 13, Type (0, 1), BuildingBlock: XUDNAN_clean_linker_2, # of connection points: 2
#     Edge 14, Type (0, 1), BuildingBlock: XUDNAN_clean_linker_2, # of connection points: 2
#     Edge 15, Type (0, 1), BuildingBlock: XUDNAN_clean_linker_2, # of connection points: 2
#     Edge 16, Type (0, 1), BuildingBlock: XUDNAN_clean_linker_2, # of connection points: 2
#     Edge 17, Type (0, 1), BuildingBlock: XUDNAN_clean_linker_2, # of connection points: 2
#     Edge 18, Type (0, 1), BuildingBlock: XUDNAN_clean_linker_2, # of connection points: 2
#     Edge 19, Type (0, 1), BuildingBlock: XUDNAN_clean_linker_2, # of connection points: 2
#     Edge 20, Type (0, 1), BuildingBlock: XUDNAN_clean_linker_2, # of connection points: 2
#     Edge 21, Type (0, 1), BuildingBlock: XUDNAN_clean_linker_2, # of connection points: 2
#     Edge 22, Type (0, 1), BuildingBlock: XUDNAN_clean_linker_2, # of connection points: 2
#     Edge 23, Type (0, 1), BuildingBlock: XUDNAN_clean_linker_2, # of connection points: 2
#     Edge 24, Type (0, 1), BuildingBlock: XUDNAN_clean_linker_2, # of connection points: 2
#     Edge 25, Type (0, 1), BuildingBlock: XUDNAN_clean_linker_2, # of connection points: 2
#     Edge 26, Type (0, 1), BuildingBlock: XUDNAN_clean_linker_2, # of connection points: 2
#     Edge 27, Type (0, 1), BuildingBlock: XUDNAN_clean_linker_2, # of connection points: 2
#     Edge 28, Type (0, 1), BuildingBlock: XUDNAN_clean_linker_2, # of connection points: 2
#     Edge 29, Type (0, 1), BuildingBlock: XUDNAN_clean_linker_2, # of connection points: 2
#     Edge 30, Type (0, 1), BuildingBlock: XUDNAN_clean_linker_2, # of connection points: 2
#     Edge 31, Type (0, 1), BuildingBlock: XUDNAN_clean_linker_2, # of connection points: 2
#     Edge 32, Type (0, 1), BuildingBlock: XUDNAN_clean_linker_2, # of connection points: 2
#     Edge 33, Type (0, 1), BuildingBlock: XUDNAN_clean_linker_2, # of connection points: 2
#     Edge 34, Type (0, 1), BuildingBlock: XUDNAN_clean_linker_2, # of connection points: 2
#     Edge 35, Type (0, 1), BuildingBlock: XUDNAN_clean_linker_2, # of connection points: 2
# Relax obj value: 0.307
# Max RMSD: 0.173
# Mean RMSD: 0.146
data_MOF--net-zzz--node1-BETDIP_clean_sbu_0--node2-CUQRIR_clean_linker_1--edge1-XUDNAN_clean_linker_2
_symmetry_space_group_name_H-M    P1
_symmetry_Int_Tables_number       1
_symmetry_cell_setting            triclinic
loop_
_symmetry_equiv_pos_as_xyz
'x, y, z'
_cell_length_a     48.317774
_cell_length_b     48.400983
_cell_length_c     12.273375
_cell_angle_alpha  89.492721
_cell_angle_beta   89.417389
_cell_angle_gamma 90.034838
loop_
_atom_site_label
_atom_site_type_symbol
_atom_site_fract_x
_atom_site_fract_y
_atom_site_fract_z
_atom_type_partial_charge
C0 C 0.75036 0.52171 0.41387 0.0
N1 N 0.77699 0.51336 0.3919 0.0
N2 N 0.73351 0.51799 0.32604 0.0
C3 C 0.74072 0.53361 0.51991 0.0
C4 C 0.75054 0.50642 0.25154 0.0
N5 N 0.77663 0.5039 0.29026 0.0
C6 C 0.74074 0.49453 0.14511 0.0
H7 H 0.73434 0.51648 0.57537 0.0
H8 H 0.72257 0.54728 0.50721 0.0
H9 H 0.75764 0.54531 0.55893 0.0
H10 H 0.74493 0.50967 0.07857 0.0
H11 H 0.71823 0.49011 0.14662 0.0
H12 H 0.75176 0.47504 0.12597 0.0
C13 C 1.02023 0.75429 0.40449 0.0
N14 N 0.02902 0.78115 0.39393 0.0
N15 N 0.02523 0.73957 0.31133 0.0
C16 C 1.00706 0.74237 0.50539 0.0
C17 C 0.03819 0.75817 0.24572 0.0
N18 N 0.04029 0.78314 0.29467 0.0
C19 C 0.05157 0.75088 0.13803 0.0
H20 H 0.02359 0.73566 0.56185 0.0
H21 H 0.99416 0.72415 0.48552 0.0
H22 H 0.99429 0.75821 0.54715 0.0
H23 H 0.03692 0.75562 0.07144 0.0
H24 H 0.05678 0.7286 0.13402 0.0
H25 H 0.07083 0.76293 0.12387 0.0
C26 C 0.79174 1.01027 0.44913 0.0
N27 N 0.76837 0.02514 0.47287 0.0
N28 N 0.81159 0.02646 0.40053 0.0
C29 C 0.7945 0.97966 0.46529 0.0
C30 C 0.79932 0.05159 0.3959 0.0
N31 N 0.77337 0.05087 0.43865 0.0
C32 C 0.81177 0.07663 0.34086 0.0
H33 H 0.78009 0.97209 0.52993 0.0
H34 H 0.81606 0.97425 0.487 0.0
H35 H 0.78958 0.96918 0.38779 0.0
H36 H 0.83468 0.07634 0.34663 0.0
H37 H 0.80358 0.09581 0.37817 0.0
H38 H 0.80608 0.07673 0.2535 0.0
C39 C 0.51285 0.77635 0.38967 0.0
N40 N 0.49714 0.75308 0.40259 0.0
N41 N 0.50268 0.79307 0.30896 0.0
C42 C 0.5377 0.78294 0.45678 0.0
C43 C 0.48062 0.77875 0.27209 0.0
N44 N 0.47687 0.75498 0.32996 0.0
C45 C 0.4653 0.78615 0.16928 0.0
H46 H 0.53489 0.77501 0.54129 0.0
H47 H 0.54156 0.80554 0.45782 0.0
H48 H 0.55604 0.77258 0.42062 0.0
H49 H 0.47845 0.79852 0.11255 0.0
H50 H 0.4468 0.79861 0.19079 0.0
H51 H 0.4585 0.7674 0.12575 0.0
C52 C 0.29285 0.5194 0.16898 0.0
N53 N 0.26827 0.53354 0.16176 0.0
N54 N 0.30971 0.53003 0.24829 0.0
C55 C 0.3013 0.49675 0.09287 0.0
C56 C 0.29424 0.55109 0.28847 0.0
N57 N 0.27006 0.55359 0.23463 0.0
C58 C 0.30054 0.56665 0.39174 0.0
H59 H 0.29532 0.47649 0.12886 0.0
H60 H 0.32406 0.49691 0.0796 0.0
H61 H 0.29078 0.49914 0.01338 0.0
H62 H 0.3131 0.58518 0.37086 0.0
H63 H 0.31203 0.55354 0.45038 0.0
H64 H 0.28148 0.57391 0.43353 0.0
C65 C 0.03059 0.29674 0.11986 0.0
N66 N 0.03274 0.26848 0.1282 0.0
N67 N 0.03345 0.30927 0.21963 0.0
C68 C 0.02608 0.31207 0.01505 0.0
C69 C 0.0366 0.28744 0.28838 0.0
N70 N 0.03636 0.26334 0.23368 0.0
C71 C 0.0366 0.28936 0.41108 0.0
H72 H 0.03535 0.33303 0.01845 0.0
H73 H 1.00351 0.31429 1.00191 0.0
H74 H 0.03506 0.30048 0.94555 0.0
H75 H 0.02347 0.30674 0.43924 0.0
H76 H 0.05808 0.29295 0.43871 0.0
H77 H 0.02899 0.27004 0.45037 0.0
C78 C 0.24146 1.0137 0.11856 0.0
N79 N 0.26686 0.02578 0.10499 0.0
N80 N 0.22498 0.0287 0.18745 0.0
C81 C 0.23296 0.98733 0.06541 0.0
C82 C 0.24125 0.05037 0.21387 0.0
N83 N 0.26635 0.04873 0.16399 0.0
C84 C 0.23255 0.07306 0.28995 0.0
H85 H 0.23137 0.99091 0.97626 0.0
H86 H 0.21275 0.97983 0.09772 0.0
H87 H 0.24912 0.97139 0.07849 0.0
H88 H 0.23495 0.06569 0.3752 0.0
H89 H 0.21045 0.07838 0.27827 0.0
H90 H 0.24534 0.09189 0.27737 0.0
C91 C 0.51343 0.23792 0.16708 0.0
N92 N 0.52863 0.26174 0.15691 0.0
N93 N 0.52707 0.21852 0.22761 0.0
C94 C 0.48522 0.23355 0.12056 0.0
C95 C 0.55105 0.23121 0.25263 0.0
N96 N 0.55204 0.25711 0.21039 0.0
C97 C 0.57209 0.21947 0.32989 0.0
H98 H 0.4694 0.23869 0.1833 0.0
H99 H 0.4824 0.21156 0.09832 0.0
H100 H 0.48207 0.24693 0.04787 0.0
H101 H 0.59308 0.22744 0.31006 0.0
H102 H 0.57231 0.19656 0.32713 0.0
H103 H 0.56661 0.22582 0.41405 0.0
Tb104 Tb 0.04043 1.01919 0.88097 0.0
Tb105 Tb 1.00021 0.02434 0.7057 0.0
C106 C 0.06799 0.02103 0.0539 0.0
C107 C 0.09019 1.0038 0.09977 0.0
C108 C 0.08541 0.98989 0.19882 0.0
C109 C 0.10078 0.96637 0.22456 0.0
C110 C 0.12071 0.95645 0.15027 0.0
C111 C 0.12924 0.97368 0.06354 0.0
C112 C 0.11373 0.99707 0.03718 0.0
C113 C 0.06403 1.01657 0.68441 0.0
C114 C 0.02314 0.96377 0.76554 0.0
C115 C 0.97825 1.02085 0.52165 0.0
C116 C 0.98265 0.03113 0.41083 0.0
C117 C 0.96233 0.04814 0.36601 0.0
C118 C 0.96984 0.06758 0.28752 0.0
C119 C 0.99807 0.07081 0.25942 0.0
C120 C 1.01573 0.04817 0.27811 0.0
C121 C 1.0084 0.02877 0.35782 0.0
C122 C 0.97018 1.01666 0.88843 0.0
C123 C 1.01955 0.08045 0.81245 0.0
O124 O 0.04384 1.00886 0.04668 0.0
O125 O 0.07417 0.03523 0.96585 0.0
O126 O 0.04417 0.03257 0.71164 0.0
O127 O 0.07133 1.00255 0.76962 0.0
O128 O 0.03444 0.97415 0.8548 0.0
O129 O 1.01072 0.98032 0.69577 0.0
O130 O 0.99651 1.00328 0.55862 0.0
O131 O 0.97177 0.03977 0.59346 0.0
O132 O 0.99637 1.01771 0.88048 0.0
O133 O 0.96068 1.02025 0.7921 0.0
O134 O 1.00751 0.06931 0.72604 0.0
O135 O 0.03154 0.06426 0.88595 0.0
H136 H 0.06782 0.99525 0.24988 0.0
H137 H 0.09402 0.95381 0.29336 0.0
H138 H 0.145 0.96679 1.00655 0.0
H139 H 0.11845 1.00794 0.96174 0.0
H140 H 0.94167 0.04885 0.40121 0.0
H141 H 0.95436 0.08275 0.26665 0.0
H142 H 0.0368 0.04815 0.24726 0.0
H143 H 0.0239 1.01431 0.38611 0.0
Tb144 Tb 0.51906 1.01836 0.86067 0.0
Tb145 Tb 0.50892 0.9891 0.6645 0.0
C146 C 0.53336 0.03426 0.04623 0.0
C147 C 0.55415 0.05297 0.0895 0.0
C148 C 0.56001 0.0521 0.20079 0.0
C149 C 0.58139 0.06813 0.24213 0.0
C150 C 0.59748 0.08485 0.17196 0.0
C151 C 0.59066 0.08665 0.06105 0.0
C152 C 0.56907 0.0708 0.02002 0.0
C153 C 0.50862 0.05246 0.69255 0.0
C154 C 0.57148 1.00215 0.70672 0.0
C155 C 0.49193 0.97751 0.47819 0.0
C156 C 0.47244 0.994 0.41224 0.0
C157 C 0.4824 1.01557 0.34448 0.0
C158 C 0.46484 0.03697 0.31176 0.0
C159 C 0.43693 0.0367 0.34411 0.0
C160 C 0.42639 1.01321 0.39921 0.0
C161 C 0.44396 0.99219 0.43346 0.0
C162 C 0.52151 0.95533 0.82939 0.0
C163 C 0.45762 1.00634 0.81121 0.0
O164 O 0.54293 1.01185 1.00031 0.0
O165 O 0.51387 0.04598 0.98927 0.0
O166 O 0.52245 0.03039 0.69135 0.0
O167 O 0.50175 0.05705 0.79278 0.0
O168 O 0.56298 1.01275 0.80134 0.0
O169 O 0.55321 0.99264 0.63733 0.0
O170 O 0.51555 0.98962 0.49583 0.0
O171 O 0.48193 0.96599 0.56727 0.0
O172 O 0.50609 0.97642 0.83439 0.0
O173 O 0.52859 0.95172 0.72867 0.0
O174 O 0.46731 1.00519 0.70994 0.0
O175 O 0.47562 1.00657 0.89131 0.0
H176 H 0.54868 0.03832 0.25513 0.0
H177 H 0.58654 0.06594 0.32749 0.0
H178 H 0.60294 0.09923 1.00537 0.0
H179 H 0.56471 0.07164 0.9336 0.0
H180 H 0.50419 1.01703 0.32375 0.0
H181 H 0.4734 0.05427 0.26614 0.0
H182 H 0.40458 1.01141 0.41927 0.0
H183 H 0.43542 0.97548 0.48259 0.0
Tb184 Tb 0.4934 0.51519 0.89356 0.0
Tb185 Tb 0.53568 0.51085 0.75501 0.0
C186 C 0.45389 0.52631 0.02108 0.0
C187 C 0.43031 0.54514 0.01097 0.0
C188 C 0.43027 0.56561 0.92937 0.0
C189 C 0.41328 0.58875 0.94091 0.0
C190 C 0.39652 0.59129 0.03436 0.0
C191 C 0.39194 0.56786 0.09997 0.0
C192 C 0.40935 0.54497 0.09033 0.0
C193 C 0.47579 0.49997 0.69651 0.0
C194 C 0.51157 0.56986 0.76328 0.0
C195 C 0.57081 0.49747 0.61218 0.0
C196 C 0.58936 0.47403 0.59835 0.0
C197 C 0.6008 0.46918 0.49551 0.0
C198 C 0.61298 0.44376 0.47283 0.0
C199 C 0.61359 0.42302 0.55322 0.0
C200 C 0.60471 0.42902 0.65978 0.0
C201 C 0.59261 0.4545 0.68232 0.0
C202 C 0.55521 0.52604 0.94854 0.0
C203 C 0.51797 0.45736 0.89763 0.0
O204 O 0.47826 0.53803 0.02593 0.0
O205 O 0.45383 0.50558 0.9547 0.0
O206 O 0.49287 0.51899 0.71681 0.0
O207 O 0.4704 0.48753 0.78706 0.0
O208 O 0.49959 0.55973 0.85264 0.0
O209 O 0.52509 0.5527 0.69957 0.0
O210 O 0.5445 0.49158 0.60649 0.0
O211 O 0.57622 0.51356 0.6935 0.0
O212 O 0.53666 0.5079 0.93219 0.0
O213 O 0.56093 0.53758 0.85602 0.0
O214 O 0.52876 0.46607 0.80323 0.0
O215 O 0.50671 0.47595 0.96129 0.0
H216 H 0.44529 0.56508 0.86347 0.0
H217 H 0.41683 0.60641 0.88769 0.0
H218 H 0.3786 0.56943 0.17039 0.0
H219 H 0.40823 0.52861 0.15107 0.0
H220 H 0.59834 0.48429 0.43089 0.0
H221 H 0.61904 0.43929 0.38959 0.0
H222 H 0.60462 0.41309 0.72239 0.0
H223 H 0.58393 0.45811 0.76267 0.0
Tb224 Tb 1.01845 0.50056 0.87 0.0
Tb225 Tb 0.02392 0.54002 0.717 0.0
C226 C 1.00588 0.46918 0.0278 0.0
C227 C 0.98527 0.44751 0.04766 0.0
C228 C 0.9705 0.44762 0.14602 0.0
C229 C 0.94617 0.43241 0.15677 0.0
C230 C 0.93614 0.41712 0.06827 0.0
C231 C 0.95325 0.41382 0.97593 0.0
C232 C 0.97753 0.42928 0.96491 0.0
C233 C 0.03065 0.47736 0.67588 0.0
C234 C 0.96424 0.5169 0.73404 0.0
C235 C 0.0371 0.57349 0.56842 0.0
C236 C 0.05757 0.59556 0.56789 0.0
C237 C 0.06632 0.60692 0.4688 0.0
C238 C 0.0907 0.62224 0.46352 0.0
C239 C 0.10667 0.6257 0.55729 0.0
C240 C 0.09591 0.61737 0.65901 0.0
C241 C 0.07137 0.60223 0.66428 0.0
C242 C 1.01171 0.56349 0.90899 0.0
C243 C 0.0783 0.52252 0.85083 0.0
O244 O 0.9959 0.49409 0.01501 0.0
O245 O 0.02518 0.4637 0.95639 0.0
O246 O 1.01389 0.49696 0.69376 0.0
O247 O 0.04166 0.47113 0.76804 0.0
O248 O 0.97372 0.50703 0.82802 0.0
O249 O 0.98237 0.5277 0.66506 0.0
O250 O 0.04734 0.54855 0.57603 0.0
O251 O 1.01624 0.57719 0.63447 0.0
O252 O 0.02862 0.54384 0.89236 0.0
O253 O 0.99991 0.56867 0.81764 0.0
O254 O 0.06894 0.53308 0.75782 0.0
O255 O 0.06024 0.51151 0.91893 0.0
H256 H 0.97635 0.46148 0.21071 0.0
H257 H 0.93366 0.43559 0.22931 0.0
H258 H 0.94626 0.40189 0.9072 0.0
H259 H 0.9889 0.42867 0.88842 0.0
H260 H 0.05571 0.60179 0.39456 0.0
H261 H 0.09905 0.62779 0.38398 0.0
H262 H 0.10824 0.61931 0.73183 0.0
H263 H 0.06467 0.59353 0.74184 0.0
H264 H 0.20897 0.9981 0.36461 0.0
H265 H 0.17791 0.051 0.10849 0.0
H266 H 0.13183 0.05217 0.2003 0.0
H267 H 0.14247 0.95881 0.41216 0.0
H268 H 0.14836 0.95641 0.55661 0.0
H269 H 0.17732 0.95743 0.46285 0.0
H270 H 0.19701 0.99956 0.56574 0.0
H271 H 0.16785 0.99897 0.65811 0.0
H272 H 0.17589 0.02999 0.58177 0.0
H273 H 0.09015 0.05219 0.33742 0.0
H274 H 0.05715 0.0475 0.49372 0.0
H275 H 0.11495 0.99269 0.65486 0.0
C276 C 0.19211 1.00901 0.326 0.0
C277 C 0.19687 0.02393 0.22768 0.0
C278 C 0.17454 0.03888 0.18198 0.0
C279 C 0.14835 0.03985 0.23441 0.0
C280 C 0.1445 0.02556 0.33299 0.0
C281 C 0.16571 1.00993 0.377 0.0
C282 C 0.1567 0.99729 0.48564 0.0
C283 C 0.15619 0.9656 0.47893 0.0
C284 C 0.17548 1.00704 0.57825 0.0
C285 C 0.12755 1.00886 0.49793 0.0
C286 C 0.12072 0.02514 0.40926 0.0
C287 C 0.0953 0.03914 0.40633 0.0
C288 C 0.07657 0.03637 0.49556 0.0
C289 C 0.08308 1.01953 0.58682 0.0
C290 C 0.10897 1.00554 0.58639 0.0
H291 H 0.50852 0.20648 0.43269 0.0
H292 H 0.52852 0.16986 0.12196 0.0
H293 H 0.52372 0.12302 0.20466 0.0
H294 H 0.54537 0.16002 0.59484 0.0
H295 H 0.52082 0.1585 0.70631 0.0
H296 H 0.52269 0.18884 0.62063 0.0
H297 H 0.47055 0.18446 0.57752 0.0
H298 H 0.4684 0.1543 0.66441 0.0
H299 H 0.45741 0.15244 0.52475 0.0
H300 H 0.52175 0.08029 0.32811 0.0
H301 H 0.52088 0.04532 0.47673 0.0
H302 H 0.49884 0.10896 0.70749 0.0
C303 C 0.51075 0.18851 0.38147 0.0
C304 C 0.51804 0.19177 0.26974 0.0
C305 C 0.52206 0.16781 0.20636 0.0
C306 C 0.5196 0.14115 0.25322 0.0
C307 C 0.51289 0.13862 0.36407 0.0
C308 C 0.50808 0.16171 0.42706 0.0
C309 C 0.50242 0.15335 0.54533 0.0
C310 C 0.52412 0.16593 0.62123 0.0
C311 C 0.47294 0.16163 0.58004 0.0
C312 C 0.50536 0.12205 0.53986 0.0
C313 C 0.51146 0.11401 0.43452 0.0
C314 C 0.51678 0.08637 0.41043 0.0
C315 C 0.51598 0.06655 0.49537 0.0
C316 C 0.50911 0.07403 0.60358 0.0
C317 C 0.50363 0.10231 0.62544 0.0
H318 H 0.35315 0.56106 0.32602 0.0
H319 H 0.32681 0.47645 0.27816 0.0
H320 H 0.36928 0.46011 0.36816 0.0
H321 H 0.4289 0.55282 0.30839 0.0
H322 H 0.43485 0.57563 0.42041 0.0
H323 H 0.405 0.58067 0.33619 0.0
H324 H 0.37369 0.57807 0.5083 0.0
H325 H 0.40374 0.5728 0.59156 0.0
H326 H 0.37569 0.54826 0.59697 0.0
H327 H 0.41296 0.45274 0.47975 0.0
H328 H 0.45255 0.455 0.60551 0.0
H329 H 0.44985 0.5444 0.59242 0.0
C330 C 0.35627 0.53905 0.33281 0.0
C331 C 0.3363 0.52019 0.29132 0.0
C332 C 0.34176 0.49156 0.30419 0.0
C333 C 0.36588 0.48204 0.35682 0.0
C334 C 0.38461 0.50126 0.39831 0.0
C335 C 0.38 0.52926 0.38727 0.0
C336 C 0.40167 0.54566 0.44977 0.0
C337 C 0.41856 0.5648 0.37388 0.0
C338 C 0.38788 0.56216 0.54212 0.0
C339 C 0.41965 0.52253 0.49542 0.0
C340 C 0.40935 0.49708 0.46487 0.0
C341 C 0.42133 0.47259 0.50242 0.0
C342 C 0.44397 0.47407 0.57364 0.0
C343 C 0.45495 0.49979 0.60671 0.0
C344 C 0.44268 0.52439 0.56577 0.0
H345 H 0.06868 0.33753 0.35141 0.0
H346 H 0.9926 0.34663 0.17189 0.0
H347 H 0.98478 0.39218 0.25883 0.0
H348 H 0.04226 0.36351 0.59915 0.0
H349 H 0.07388 0.38029 0.63857 0.0
H350 H 0.07514 0.3506 0.5513 0.0
H351 H 0.10292 0.37868 0.40687 0.0
H352 H 0.10188 0.40846 0.49397 0.0
H353 H 0.08921 0.41095 0.35661 0.0
H354 H 0.9837 0.43632 0.38241 0.0
H355 H 0.98993 0.47305 0.51971 0.0
H356 H 0.06519 0.43325 0.62788 0.0
C357 C 0.0506 0.34933 0.32868 0.0
C358 C 0.0314 0.33828 0.25321 0.0
C359 C 1.00797 0.35459 0.22696 0.0
C360 C 1.00325 0.38051 0.27721 0.0
C361 C 0.02208 0.39019 0.35449 0.0
C362 C 0.0454 0.37498 0.37942 0.0
C363 C 0.06163 0.38875 0.47013 0.0
C364 C 0.06332 0.36965 0.57073 0.0
C365 C 0.09063 0.39721 0.42945 0.0
C366 C 0.04385 0.41406 0.49361 0.0
C367 C 1.02121 0.41474 0.42552 0.0
C368 C 1.00167 0.43603 0.43415 0.0
C369 C 1.00536 0.45692 0.513 0.0
C370 C 0.02817 0.45646 0.58508 0.0
C371 C 0.04761 0.43455 0.57407 0.0
H372 H 0.82252 0.03043 0.18385 0.0
H373 H 0.85922 1.00667 0.49023 0.0
H374 H 0.90468 1.00005 0.39611 0.0
H375 H 0.86208 0.98418 1.0075 0.0
H376 H 0.8646 1.00948 0.8992 0.0
H377 H 0.83528 1.00974 0.99099 0.0
H378 H 0.84556 0.06084 0.03726 0.0
H379 H 0.87504 0.06065 0.94641 0.0
H380 H 0.87926 0.07014 0.08696 0.0
H381 H 0.94789 0.99762 0.25956 0.0
H382 H 0.98181 1.00164 0.10543 0.0
H383 H 0.91532 0.02783 0.89412 0.0
C384 C 0.84003 0.02335 0.23076 0.0
C385 C 0.83715 1.01867 0.34435 0.0
C386 C 0.86073 1.00981 0.40294 0.0
C387 C 0.88671 1.00621 0.34994 0.0
C388 C 0.88895 1.01158 0.23774 0.0
C389 C 0.86599 1.0199 0.17932 0.0
C390 C 0.87357 0.02571 0.06114 0.0
C391 C 0.85796 1.0061 0.98524 0.0
C392 C 0.86803 0.05614 0.03123 0.0
C393 C 0.90436 1.01951 0.06116 0.0
C394 C 0.91314 1.01125 0.16308 0.0
C395 C 0.94107 1.00453 0.18022 0.0
C396 C 0.9603 1.00678 0.09208 0.0
C397 C 0.95145 1.01509 0.98704 0.0
C398 C 0.92302 0.02141 0.97294 0.0
H399 H 0.47466 0.84138 0.2781 0.0
H400 H 0.55401 0.80218 0.22477 0.0
H401 H 0.56892 0.84202 0.10989 0.0
H402 H 0.466 0.86652 0.0149 0.0
H403 H 0.45008 0.89889 0.05123 0.0
H404 H 0.44707 0.86952 0.14158 0.0
H405 H 0.46793 0.89797 0.29836 0.0
H406 H 0.47079 0.92756 0.20865 0.0
H407 H 0.50089 0.91484 0.27856 0.0
H408 H 0.57247 0.8827 0.9789 0.0
H409 H 0.56612 0.9224 0.85386 0.0
H410 H 0.48492 0.93734 0.99417 0.0
C411 C 0.49551 0.8417 0.24503 0.0
C412 C 0.51339 0.81874 0.26195 0.0
C413 C 0.54026 0.81965 0.2152 0.0
C414 C 0.54875 0.84217 0.149 0.0
C415 C 0.53028 0.86397 0.13082 0.0
C416 C 0.50434 0.86418 0.17912 0.0
C417 C 0.48788 0.88937 0.14127 0.0
C418 C 0.46118 0.88054 0.08383 0.0
C419 C 0.4815 0.90857 0.23743 0.0
C420 C 0.50823 0.90288 0.06133 0.0
C421 C 0.53259 0.88785 0.05704 0.0
C422 C 0.55372 0.89485 0.98354 0.0
C423 C 0.5499 0.91749 0.91249 0.0
C424 C 0.52529 0.93339 0.91504 0.0
C425 C 0.50429 0.92611 0.99194 0.0
H426 H 0.70678 0.55424 0.19301 0.0
H427 H 0.69345 0.48582 0.41555 0.0
H428 H 0.64534 0.48145 0.35026 0.0
H429 H 0.63534 0.58457 0.21481 0.0
H430 H 0.635 0.59385 0.07227 0.0
H431 H 0.66724 0.59319 0.14493 0.0
H432 H 0.68747 0.55947 1.00239 0.0
H433 H 0.65525 0.55971 0.93012 0.0
H434 H 0.66976 0.52744 0.97651 0.0
H435 H 0.59903 0.4813 0.24277 0.0
H436 H 0.5596 0.48819 0.11812 0.0
H437 H 0.60248 0.55766 0.96856 0.0
C438 C 0.69316 0.53934 0.23218 0.0
C439 C 0.70369 0.52104 0.31298 0.0
C440 C 0.68562 0.50079 0.3575 0.0
C441 C 0.6582 0.49803 0.31995 0.0
C442 C 0.64856 0.516 0.23881 0.0
C443 C 0.66548 0.53663 0.19682 0.0
C444 C 0.65084 0.55231 0.10586 0.0
C445 C 0.64687 0.58279 0.1363 0.0
C446 C 0.66678 0.54956 0.99732 0.0
C447 C 0.62316 0.53722 0.10221 0.0
C448 C 0.6222 0.51621 0.17915 0.0
C449 C 0.59933 0.49841 0.18571 0.0
C450 C 0.57691 0.5024 0.11383 0.0
C451 C 0.57737 0.5238 0.0342 0.0
C452 C 0.60097 0.54143 0.0296 0.0
H453 H 0.99074 0.71638 0.1621 0.0
H454 H 0.05492 0.69697 0.39302 0.0
H455 H 0.05806 0.64971 0.31782 0.0
H456 H 0.95638 0.64717 0.16857 0.0
H457 H 0.949 0.64822 0.02493 0.0
H458 H 0.95072 0.67987 0.10089 0.0
H459 H 0.98762 0.69869 0.96519 0.0
H460 H 0.98624 0.66703 0.88951 0.0
H461 H 1.0188 0.67912 0.9414 0.0
H462 H 0.05678 0.60433 0.2066 0.0
H463 H 0.04849 0.56568 0.08009 0.0
H464 H 0.98391 0.61348 0.92471 0.0
C465 C 1.00454 0.70168 0.20028 0.0
C466 C 0.02191 0.71025 0.28682 0.0
C467 C 0.04065 0.69072 0.33041 0.0
C468 C 0.04267 0.66376 0.28763 0.0
C469 C 0.02547 0.65594 0.20226 0.0
C470 C 1.00641 0.67432 0.16004 0.0
C471 C 0.99104 0.66117 0.06552 0.0
C472 C 0.95993 0.65898 0.09155 0.0
C473 C 0.99624 0.67748 0.95912 0.0
C474 C 1.00442 0.6326 0.06078 0.0
C475 C 0.02442 0.63002 0.13986 0.0
C476 C 0.04048 0.60597 0.14737 0.0
C477 C 0.03571 0.584 0.07439 0.0
C478 C 1.01522 0.58598 0.99287 0.0
C479 C 0.99943 0.61084 0.98694 0.0
H480 H 0.9906 0.23312 0.23387 0.0
H481 H 0.07575 0.2341 0.33616 0.0
H482 H 0.07296 0.18415 0.38206 0.0
H483 H 0.967 0.17314 0.43037 0.0
H484 H 0.94437 0.16006 0.32703 0.0
H485 H 0.94972 0.19679 0.33942 0.0
H486 H 0.96617 0.20003 0.13373 0.0
H487 H 0.9582 0.16392 0.12611 0.0
H488 H 0.99221 0.17573 0.08941 0.0
H489 H 0.06464 0.13411 0.37079 0.0
H490 H 0.05052 0.08748 0.32368 0.0
H491 H 0.97268 0.11992 0.20021 0.0
C492 C 1.00807 0.22275 0.27061 0.0
C493 C 0.03328 0.23667 0.28244 0.0
C494 C 0.05628 0.22325 0.32844 0.0
C495 C 0.05474 0.19512 0.35491 0.0
C496 C 0.02995 0.18126 0.33561 0.0
C497 C 1.00684 0.19476 0.29578 0.0
C498 C 0.9844 0.1747 0.26444 0.0
C499 C 0.95993 0.17626 0.34516 0.0
C500 C 0.97469 0.17896 0.14645 0.0
C501 C 0.99998 0.14799 0.27797 0.0
C502 C 0.02542 0.15199 0.3257 0.0
C503 C 0.0443 0.13057 0.33752 0.0
C504 C 0.03629 0.1041 0.30614 0.0
C505 C 1.00982 0.09927 0.25979 0.0
C506 C 0.99235 0.12212 0.24033 0.0
H507 H 0.28875 0.05873 0.35685 0.0
H508 H 0.29752 0.07609 0.01322 0.0
H509 H 0.3446 0.09418 0.04283 0.0
H510 H 0.34122 0.11876 0.45145 0.0
H511 H 0.35235 0.09602 0.55953 0.0
H512 H 0.3165 0.09656 0.51988 0.0
H513 H 0.31822 0.04385 0.49117 0.0
H514 H 0.35368 0.04307 0.52869 0.0
H515 H 0.34358 0.02961 0.3985 0.0
H516 H 0.39298 0.09346 0.09548 0.0
H517 H 0.43429 0.06849 0.15662 0.0
H518 H 0.39694 0.05738 0.47567 0.0
C519 C 0.3001 0.0681 0.28973 0.0
C520 C 0.28994 0.06606 0.18336 0.0
C521 C 0.3053 0.07738 0.09537 0.0
C522 C 0.33186 0.0881 0.11199 0.0
C523 C 0.34235 0.0881 0.21767 0.0
C524 C 0.32651 0.079 0.30591 0.0
C525 C 0.344 0.07506 0.40623 0.0
C526 C 0.33817 0.09798 0.48912 0.0
C527 C 0.33963 0.04619 0.45879 0.0
C528 C 0.37255 0.0785 0.35606 0.0
C529 C 0.37126 0.08801 0.24929 0.0
C530 C 0.39438 0.08695 0.17982 0.0
C531 C 0.41792 0.07259 0.21513 0.0
C532 C 0.41813 0.0601 0.31961 0.0
C533 C 0.39662 0.06603 0.39407 0.0
H534 H 0.53407 0.293 0.35576 0.0
H535 H 0.60597 0.26917 0.16715 0.0
H536 H 0.6331 0.30733 0.25041 0.0
H537 H 0.54534 0.36521 0.32458 0.0
H538 H 0.53143 0.3731 0.45752 0.0
H539 H 0.51934 0.34321 0.38606 0.0
H540 H 0.53282 0.31138 0.55053 0.0
H541 H 0.54358 0.34201 0.62018 0.0
H542 H 0.56739 0.31356 0.60418 0.0
H543 H 0.65011 0.35118 0.34587 0.0
H544 H 0.65518 0.39601 0.44144 0.0
H545 H 0.57209 0.38717 0.57279 0.0
C546 C 0.55561 0.29586 0.33316 0.0
C547 C 0.56827 0.27865 0.25648 0.0
C548 C 0.59631 0.28252 0.22671 0.0
C549 C 0.61169 0.30394 0.27357 0.0
C550 C 0.59847 0.32077 0.34989 0.0
C551 C 0.571 0.31684 0.37883 0.0
C552 C 0.56069 0.33841 0.45634 0.0
C553 C 0.53787 0.35603 0.40294 0.0
C554 C 0.55058 0.32549 0.56429 0.0
C555 C 0.58689 0.35472 0.47056 0.0
C556 C 0.60846 0.34473 0.40728 0.0
C557 C 0.63364 0.35875 0.398 0.0
C558 C 0.63646 0.38396 0.45286 0.0
C559 C 0.6144 0.39421 0.51741 0.0
C560 C 0.58972 0.37902 0.52822 0.0
H561 H 0.2282 0.53638 0.35946 0.0
H562 H 0.26329 0.60807 0.19795 0.0
H563 H 0.22755 0.63798 0.28473 0.0
H564 H 0.15664 0.55736 0.34439 0.0
H565 H 0.14844 0.5423 0.47556 0.0
H566 H 0.17588 0.528 0.39372 0.0
H567 H 0.20981 0.53453 0.55581 0.0
H568 H 0.18187 0.54891 0.63482 0.0
H569 H 0.21351 0.56831 0.61472 0.0
H570 H 0.18492 0.65826 0.37814 0.0
H571 H 0.13948 0.6668 0.46813 0.0
H572 H 0.13912 0.58283 0.59237 0.0
C573 C 0.22785 0.55834 0.34163 0.0
C574 C 0.24758 0.57023 0.2715 0.0
C575 C 0.24759 0.59897 0.25064 0.0
C576 C 0.2277 0.61594 0.30014 0.0
C577 C 0.20875 0.60364 0.372 0.0
C578 C 0.20879 0.57548 0.39249 0.0
C579 C 0.18651 0.56711 0.47236 0.0
C580 C 0.16563 0.54756 0.41827 0.0
C581 C 0.1987 0.55397 0.57562 0.0
C582 C 0.17397 0.595 0.49509 0.0
C583 C 0.1866 0.61586 0.435 0.0
C584 C 0.17541 0.64241 0.42878 0.0
C585 C 0.1499 0.64725 0.481 0.0
C586 C 0.13668 0.62579 0.54056 0.0
C587 C 0.14966 0.59996 0.5523 0.0
H588 H 0.0802 0.81331 0.39459 0.0
H589 H 0.03351 0.80621 0.09656 0.0
H590 H 0.06193 0.84306 0.0119 0.0
H591 H 0.07976 0.88637 0.39646 0.0
H592 H 0.11335 0.8886 0.45681 0.0
H593 H 0.09236 0.8584 0.48013 0.0
H594 H 0.13465 0.82981 0.40753 0.0
H595 H 0.15372 0.86098 0.37601 0.0
H596 H 0.14739 0.83605 0.27095 0.0
H597 H 0.09271 0.88099 0.96237 0.0
H598 H 0.11057 0.92806 0.96718 0.0
H599 H 0.13236 0.91684 0.30696 0.0
C600 C 0.07585 0.81972 0.31194 0.0
C601 C 0.05506 0.80662 0.25089 0.0
C602 C 0.04993 0.81552 0.14303 0.0
C603 C 0.06612 0.83619 0.09425 0.0
C604 C 0.08689 0.84827 0.15561 0.0
C605 C 0.09108 0.8412 0.26347 0.0
C606 C 0.11119 0.86089 0.31659 0.0
C607 C 0.09837 0.87432 0.41852 0.0
C608 C 0.13835 0.84604 0.34438 0.0
C609 C 0.11558 0.88153 0.22416 0.0
C610 C 0.10303 0.87252 0.13007 0.0
C611 C 0.10274 0.88829 0.03507 0.0
C612 C 0.11329 0.91505 0.03857 0.0
C613 C 0.12287 0.92618 0.13781 0.0
C614 C 0.12556 0.90868 0.22994 0.0
H615 H 0.75186 0.05304 0.24119 0.0
H616 H 0.74622 0.08876 0.56154 0.0
H617 H 0.70222 0.11185 0.51089 0.0
H618 H 0.71681 0.11273 0.08551 0.0
H619 H 0.70032 0.08821 0.99741 0.0
H620 H 0.73427 0.08107 0.05044 0.0
H621 H 0.71626 0.03446 0.12887 0.0
H622 H 0.6824 0.04154 0.07779 0.0
H623 H 0.68692 0.03434 0.2209 0.0
H624 H 0.65428 0.11969 0.44204 0.0
H625 H 0.60828 0.11412 0.35786 0.0
H626 H 0.64698 0.07615 0.07697 0.0
C627 C 0.74187 0.06688 0.29816 0.0
C628 C 0.75187 0.0693 0.4046 0.0
C629 C 0.73843 0.08679 0.47962 0.0
C630 C 0.71367 0.10004 0.4511 0.0
C631 C 0.70338 0.09606 0.34645 0.0
C632 C 0.7175 0.08039 0.27019 0.0
C633 C 0.70056 0.07583 0.16928 0.0
C634 C 0.71378 0.09035 0.06979 0.0
C635 C 0.69627 0.04473 0.14816 0.0
C636 C 0.67395 0.0898 0.20316 0.0
C637 C 0.67599 0.10174 0.30488 0.0
C638 C 0.65268 0.11149 0.36059 0.0
C639 C 0.62666 0.10819 0.31256 0.0
C640 C 0.62433 0.09532 0.21002 0.0
C641 C 0.64837 0.08714 0.15323 0.0
H642 H 0.48728 0.70056 0.31242 0.0
H643 H 0.4217 0.76104 0.28928 0.0
H644 H 0.3902 0.72476 0.22007 0.0
H645 H 0.47692 0.66094 0.10468 0.0
H646 H 0.48222 0.62806 0.17128 0.0
H647 H 0.49798 0.65854 0.22477 0.0
H648 H 0.47216 0.65126 0.41779 0.0
H649 H 0.46088 0.61905 0.35999 0.0
H650 H 0.43604 0.64287 0.41642 0.0
H651 H 0.36986 0.68201 0.12024 0.0
H652 H 0.36093 0.63672 0.03074 0.0
H653 H 0.43747 0.60499 0.16233 0.0
C654 C 0.46593 0.70604 0.29992 0.0
C655 C 0.45703 0.73356 0.30671 0.0
C656 C 0.4291 0.74002 0.2826 0.0
C657 C 0.41102 0.71954 0.24452 0.0
C658 C 0.4208 0.69251 0.23771 0.0
C659 C 0.44729 0.6857 0.26999 0.0
C660 C 0.45323 0.65544 0.25708 0.0
C661 C 0.47909 0.65049 0.1852 0.0
C662 C 0.45575 0.64128 0.3693 0.0
C663 C 0.42712 0.64668 0.20159 0.0
C664 C 0.40828 0.66801 0.19152 0.0
C665 C 0.38402 0.66492 0.1312 0.0
C666 C 0.37911 0.63936 0.0804 0.0
C667 C 0.39839 0.61764 0.09192 0.0
C668 C 0.42222 0.62132 0.15468 0.0
H669 H 0.80595 0.46061 0.37098 0.0
H670 H 0.79615 0.51355 0.08783 0.0
H671 H 0.8265 0.48283 0.98065 0.0
H672 H 0.87813 0.45236 0.33342 0.0
H673 H 0.87781 0.41785 0.38888 0.0
H674 H 0.85151 0.44198 0.42945 0.0
H675 H 0.81564 0.40459 0.3673 0.0
H676 H 0.84295 0.38253 0.31723 0.0
H677 H 0.81583 0.39367 0.22723 0.0
H678 H 0.85853 0.44906 0.90756 0.0
H679 H 0.90478 0.42951 0.89204 0.0
H680 H 0.899 0.39964 0.22591 0.0
C681 C 0.81045 0.46572 0.28665 0.0
C682 C 0.79834 0.48896 0.23618 0.0
C683 C 0.80485 0.49537 0.12636 0.0
C684 C 0.82159 0.47781 0.06475 0.0
C685 C 0.83223 0.45428 0.1152 0.0
C686 C 0.82799 0.4489 0.2249 0.0
C687 C 0.84642 0.42566 0.26421 0.0
C688 C 0.86451 0.43505 0.35968 0.0
C689 C 0.82917 0.40009 0.29584 0.0
C690 C 0.86333 0.42053 0.16147 0.0
C691 C 0.85323 0.43583 0.07479 0.0
C692 C 0.86676 0.43704 0.97446 0.0
C693 C 0.89307 0.42541 0.96613 0.0
C694 C 0.9058 0.41363 0.05911 0.0
C695 C 0.88967 0.40863 0.15402 0.0
H696 H 0.06736 0.22434 0.09062 0.0
H697 H 0.99031 0.2606 0.98495 0.0
H698 H 0.98077 0.21872 0.87589 0.0
H699 H 0.08208 0.18572 0.82623 0.0
H700 H 0.09709 0.15685 0.89798 0.0
H701 H 0.10003 0.19122 0.95229 0.0
H702 H 0.07649 0.17508 0.13612 0.0
H703 H 0.07621 0.14083 0.07984 0.0
H704 H 0.04446 0.15606 0.12627 0.0
H705 H 0.97713 0.16872 0.79356 0.0
H706 H 0.97995 0.11879 0.75055 0.0
H707 H 0.0582 0.11377 0.91831 0.0
C708 C 0.04884 0.22384 0.04191 0.0
C709 C 0.02986 0.24651 0.04573 0.0
C710 C 1.00566 0.24435 0.98177 0.0
C711 C 1.00002 0.22033 0.91969 0.0
C712 C 1.0188 0.19815 0.9202 0.0
C713 C 0.04294 0.19993 0.97929 0.0
C714 C 0.05896 0.17265 0.97238 0.0
C715 C 0.08616 0.17687 0.90842 0.0
C716 C 0.06447 0.1605 0.0857 0.0
C717 C 0.03901 0.15434 0.90929 0.0
C718 C 1.01635 0.16964 0.87652 0.0
C719 C 0.99502 0.15691 0.81856 0.0
C720 C 0.99676 0.12827 0.79437 0.0
C721 C 1.01923 0.11174 0.8305 0.0
C722 C 0.04064 0.12541 0.88879 0.0
H723 H 0.31624 1.00466 0.1759 0.0
H724 H 0.2723 0.02927 0.88596 0.0
H725 H 0.3156 0.02466 0.77691 0.0
H726 H 0.37564 0.03781 0.12855 0.0
H727 H 0.40069 1.01244 0.17184 0.0
H728 H 0.36614 1.01205 0.22847 0.0
H729 H 0.35716 0.9626 0.1661 0.0
H730 H 0.39233 0.96106 0.11592 0.0
H731 H 0.36404 0.95328 0.02657 0.0
H732 H 0.36551 0.02168 0.70262 0.0
H733 H 0.41594 1.01895 0.66806 0.0
H734 H 0.42852 0.99592 1.00627 0.0
C735 C 0.31557 1.00793 0.08862 0.0
C736 C 0.29056 1.01681 0.03901 0.0
C737 C 0.29085 0.0218 0.92515 0.0
C738 C 0.31551 1.01941 0.86281 0.0
C739 C 0.33996 1.0113 0.91442 0.0
C740 C 0.33997 1.00483 0.02441 0.0
C741 C 0.36923 0.99736 0.06054 0.0
C742 C 0.37854 1.01601 0.15327 0.0
C743 C 0.37078 0.96676 0.09428 0.0
C744 C 0.38606 1.00276 0.95631 0.0
C745 C 0.36861 1.01002 0.8722 0.0
C746 C 0.37921 1.01589 0.76807 0.0
C747 C 0.40809 1.01431 0.74916 0.0
C748 C 0.42668 1.00737 0.834 0.0
C749 C 0.41518 1.00149 0.93923 0.0
H750 H 0.56082 0.29773 0.03601 0.0
H751 H 0.4795 0.28902 0.18422 0.0
H752 H 0.46812 0.3367 0.12663 0.0
H753 H 0.57086 0.3687 0.12087 0.0
H754 H 0.58955 0.3789 0.99906 0.0
H755 H 0.59073 0.34355 0.04633 0.0
H756 H 0.57404 0.32756 0.85881 0.0
H757 H 0.57128 0.36265 0.80943 0.0
H758 H 0.54152 0.34007 0.8078 0.0
H759 H 0.46624 0.38649 0.0616 0.0
H760 H 0.47312 0.43385 0.99194 0.0
H761 H 0.55607 0.41258 0.88356 0.0
C762 C 0.54048 0.30576 0.05527 0.0
C763 C 0.52077 0.28891 0.1125 0.0
C764 C 0.4946 0.30066 0.13712 0.0
C765 C 0.48812 0.32805 0.10594 0.0
C766 C 0.50805 0.34401 0.05072 0.0
C767 C 0.53378 0.33333 0.02581 0.0
C768 C 0.55174 0.35532 0.96888 0.0
C769 C 0.57723 0.36201 0.03786 0.0
C770 C 0.56021 0.34586 0.85432 0.0
C771 C 0.53194 0.37996 0.96362 0.0
C772 C 0.50696 0.37285 0.01267 0.0
C773 C 0.48565 0.39207 0.02248 0.0
C774 C 0.48981 0.4191 0.98234 0.0
C775 C 0.51499 0.42728 0.93073 0.0
C776 C 0.53635 0.40711 0.9205 0.0
H777 H 0.23115 0.56908 0.06045 0.0
H778 H 0.24565 0.4824 0.13117 0.0
H779 H 0.20105 0.47079 0.04655 0.0
H780 H 0.15753 0.56584 0.13266 0.0
H781 H 0.14769 0.59119 0.03179 0.0
H782 H 0.18174 0.59224 0.09035 0.0
H783 H 0.20226 0.59149 0.89767 0.0
H784 H 0.16898 0.58777 0.83402 0.0
H785 H 0.19584 0.56254 0.81087 0.0
H786 H 0.15296 0.46845 0.96428 0.0
H787 H 0.10577 0.47531 0.89401 0.0
H788 H 0.11944 0.56376 0.88049 0.0
C789 C 0.22506 0.5476 0.05852 0.0
C790 C 0.24283 0.52663 0.10193 0.0
C791 C 0.2335 0.49888 0.0959 0.0
C792 C 0.20777 0.49211 0.04897 0.0
C793 C 0.19078 0.51323 0.00895 0.0
C794 C 0.19894 0.5405 0.01416 0.0
C795 C 0.17594 0.55935 0.9709 0.0
C796 C 0.16508 0.57828 0.06179 0.0
C797 C 0.18633 0.57633 0.87244 0.0
C798 C 0.15379 0.5384 0.93784 0.0
C799 C 0.1629 0.51193 0.96164 0.0
C800 C 0.14589 0.48908 0.94446 0.0
C801 C 0.11898 0.49319 0.90385 0.0
C802 C 0.10874 0.51993 0.87849 0.0
C803 C 0.1267 0.54292 0.89535 0.0
H804 H 1.0032 0.8314 0.3716 0.0
H805 H 0.05307 0.78321 0.59346 0.0
H806 H 0.05664 0.8237 0.71585 0.0
H807 H 0.03491 0.89766 0.39618 0.0
H808 H 1.00275 0.91613 0.3959 0.0
H809 H 1.00526 0.88311 0.33005 0.0
H810 H 0.96336 0.86684 0.44906 0.0
H811 H 0.96244 0.89971 0.51693 0.0
H812 H 0.96564 0.86826 0.59541 0.0
H813 H 0.05704 0.87222 0.81039 0.0
H814 H 0.0519 0.92098 0.86906 0.0
H815 H 0.9998 0.93689 0.58976 0.0
C816 C 1.0145 0.82929 0.44689 0.0
C817 C 0.02769 0.80379 0.473 0.0
C818 C 0.04239 0.80213 0.57226 0.0
C819 C 0.04472 0.82525 0.64188 0.0
C820 C 0.0318 0.85017 0.61319 0.0
C821 C 1.0165 0.85209 0.51864 0.0
C822 C 1.00357 0.8808 0.50853 0.0
C823 C 1.01216 0.89523 0.40131 0.0
C824 C 0.97187 0.87878 0.51806 0.0
C825 C 1.01555 0.89537 0.6075 0.0
C826 C 0.03142 0.87731 0.66818 0.0
C827 C 0.04449 0.88633 0.76321 0.0
C828 C 0.0414 0.91424 0.79642 0.0
C829 C 0.02537 0.93333 0.73529 0.0
C830 C 1.01223 0.92325 0.63961 0.0
H831 H 0.73475 0.04434 0.63827 0.0
H832 H 0.73849 0.98426 0.37934 0.0
H833 H 0.69009 0.97067 0.42038 0.0
H834 H 0.68885 1.00683 0.82709 0.0
H835 H 0.6693 0.03695 0.86595 0.0
H836 H 0.70497 0.04044 0.82376 0.0
H837 H 0.69079 0.07592 0.6766 0.0
H838 H 0.65501 0.07252 0.71725 0.0
H839 H 0.66515 0.06671 0.57755 0.0
H840 H 0.64069 0.96484 0.48303 0.0
H841 H 0.59353 0.96731 0.55763 0.0
H842 H 0.61846 0.03326 0.77338 0.0
C843 C 0.72538 0.02824 0.59056 0.0
C844 C 0.74086 1.01507 0.50607 0.0
C845 C 0.72764 0.99408 0.4461 0.0
C846 C 0.69994 0.98646 0.46835 0.0
C847 C 0.68522 1.00013 0.55055 0.0
C848 C 0.69739 1.02069 0.61072 0.0
C849 C 0.6762 0.03315 0.69016 0.0
C850 C 0.68539 0.02909 0.80877 0.0
C851 C 0.67151 0.0639 0.66379 0.0
C852 C 0.65028 1.01612 0.66629 0.0
C853 C 0.65621 0.99724 0.58525 0.0
C854 C 0.63593 0.97953 0.54648 0.0
C855 C 0.60895 0.98119 0.58986 0.0
C856 C 0.6017 1.00045 0.67223 0.0
C857 C 0.62303 1.01804 0.71168 0.0
H858 H 0.53703 0.71248 0.41854 0.0
H859 H 0.46091 0.74205 0.56446 0.0
H860 H 0.45831 0.69999 0.68046 0.0
H861 H 0.51829 0.64138 0.39843 0.0
H862 H 0.55198 0.6286 0.43222 0.0
H863 H 0.54839 0.66236 0.37117 0.0
H864 H 0.57598 0.68185 0.53489 0.0
H865 H 0.57769 0.64787 0.59593 0.0
H866 H 0.56307 0.67616 0.67158 0.0
H867 H 0.46264 0.65369 0.77607 0.0
H868 H 0.47188 0.60592 0.83611 0.0
H869 H 0.54281 0.60252 0.61732 0.0
C870 C 0.52042 0.71043 0.47788 0.0
C871 C 0.49942 0.73104 0.48438 0.0
C872 C 0.47743 0.72699 0.5599 0.0
C873 C 0.47572 0.703 0.6255 0.0
C874 C 0.49609 0.6827 0.61483 0.0
C875 C 0.51808 0.68606 0.54283 0.0
C876 C 0.53624 0.66013 0.54365 0.0
C877 C 0.53883 0.64742 0.4296 0.0
C878 C 0.56495 0.66691 0.58922 0.0
C879 C 0.52013 0.64122 0.62227 0.0
C880 C 0.49759 0.65512 0.66497 0.0
C881 C 0.48012 0.6426 0.74223 0.0
C882 C 0.48552 0.61523 0.7759 0.0
C883 C 0.50775 0.59985 0.73071 0.0
C884 C 0.52539 0.61335 0.65291 0.0
H885 H 0.82931 0.53321 0.34533 0.0
H886 H 0.78098 0.49256 0.59862 0.0
H887 H 0.82275 0.48948 0.71395 0.0
H888 H 0.89387 0.49497 0.38126 0.0
H889 H 0.91466 0.52502 0.35358 0.0
H890 H 0.88061 0.52233 0.29586 0.0
H891 H 0.8696 0.57002 0.38548 0.0
H892 H 0.90323 0.57069 0.4476 0.0
H893 H 0.87248 0.57336 0.53113 0.0
H894 H 0.87148 0.48964 0.80143 0.0
H895 H 0.92081 0.49361 0.85209 0.0
H896 H 0.93813 0.53488 0.54376 0.0
C897 C 0.82749 0.52381 0.4254 0.0
C898 C 0.8014 0.51342 0.46289 0.0
C899 C 0.80025 0.50122 0.56838 0.0
C900 C 0.82409 0.49917 0.63425 0.0
C901 C 0.84942 0.5095 0.59482 0.0
C902 C 0.85119 0.52177 0.49279 0.0
C903 C 0.88081 0.53169 0.47035 0.0
C904 C 0.89317 0.51768 0.36912 0.0
C905 C 0.88157 0.56332 0.4579 0.0
C906 C 0.89563 0.52236 0.57385 0.0
C907 C 0.87711 0.50974 0.64502 0.0
C908 C 0.88602 0.49941 0.74571 0.0
C909 C 0.91428 0.50183 0.77412 0.0
C910 C 0.93389 0.51458 0.70282 0.0
C911 C 0.92404 0.52498 0.60106 0.0
loop_
_geom_bond_atom_site_label_1
_geom_bond_atom_site_label_2
_geom_bond_distance
_geom_bond_site_symmetry_2
_ccdc_geom_bond_type
C0 N1 1.317 . S
C0 N2 1.348 . S
C0 C3 1.485 . S
N1 C0 1.317 . S
N1 N5 1.370 . S
N2 C0 1.348 . S
N2 C4 1.346 . S
C3 C0 1.485 . S
C3 H7 0.960 . S
C3 H8 0.961 . S
C3 H9 0.960 . S
C4 N2 1.346 . S
C4 N5 1.307 . S
C4 C6 1.486 . S
N5 N1 1.370 . S
N5 C4 1.307 . S
C6 C4 1.486 . S
C6 H10 0.960 . S
C6 H11 0.960 . S
C6 H12 0.959 . S
H7 C3 0.960 . S
H8 C3 0.961 . S
H9 C3 0.960 . S
H10 C6 0.960 . S
H11 C6 0.960 . S
H12 C6 0.959 . S
C13 N14 1.317 . S
C13 N15 1.350 . S
C13 C16 1.485 . S
N14 C13 1.317 . S
N14 N18 1.371 . S
N15 C13 1.350 . S
N15 C17 1.345 1_655 S
C16 C13 1.485 . S
C16 H20 0.960 1_655 S
C16 H21 0.961 . S
C16 H22 0.960 . S
C17 N15 1.345 1_455 S
C17 N18 1.307 1_455 S
C17 C19 1.486 . S
N18 N14 1.371 . S
N18 C17 1.307 1_655 S
C19 C17 1.486 . S
C19 H23 0.922 1_455 S
C19 H24 0.991 . S
C19 H25 0.967 . S
H20 C16 0.960 1_455 S
H21 C16 0.961 . S
H22 C16 0.960 . S
H23 C19 0.922 1_655 S
H24 C19 0.991 . S
H25 C19 0.967 . S
C26 N27 1.317 . S
C26 N28 1.350 . S
C26 C29 1.485 . S
N27 C26 1.317 . S
N27 N31 1.371 . S
N28 C26 1.350 . S
N28 C30 1.346 1_565 S
C29 C26 1.485 . S
C29 H33 0.960 1_565 S
C29 H34 0.961 . S
C29 H35 0.960 . S
C30 N28 1.346 1_545 S
C30 N31 1.307 1_545 S
C30 C32 1.486 . S
N31 N27 1.371 . S
N31 C30 1.307 1_565 S
C32 C30 1.486 . S
C32 H36 0.922 1_545 S
C32 H37 0.991 . S
C32 H38 0.967 . S
H33 C29 0.960 1_545 S
H34 C29 0.961 . S
H35 C29 0.960 . S
H36 C32 0.922 1_565 S
H37 C32 0.991 . S
H38 C32 0.967 . S
C39 N40 1.317 . S
C39 N41 1.348 . S
C39 C42 1.485 . S
N40 C39 1.317 . S
N40 N44 1.370 . S
N41 C39 1.348 . S
N41 C43 1.346 . S
C42 C39 1.485 . S
C42 H46 0.960 . S
C42 H47 0.961 . S
C42 H48 0.960 . S
C43 N41 1.346 . S
C43 N44 1.307 . S
C43 C45 1.486 . S
N44 N40 1.370 . S
N44 C43 1.307 . S
C45 C43 1.486 . S
C45 H49 0.960 . S
C45 H50 0.960 . S
C45 H51 0.959 . S
H46 C42 0.960 . S
H47 C42 0.961 . S
H48 C42 0.960 . S
H49 C45 0.960 . S
H50 C45 0.960 . S
H51 C45 0.959 . S
C52 N53 1.317 . S
C52 N54 1.348 1_556 S
C52 C55 1.485 . S
N53 C52 1.317 . S
N53 N57 1.370 1_556 S
N54 C52 1.348 1_554 S
N54 C56 1.346 . S
C55 C52 1.485 . S
C55 H59 0.960 . S
C55 H60 0.961 . S
C55 H61 0.960 . S
C56 N54 1.346 . S
C56 N57 1.307 . S
C56 C58 1.486 . S
N57 N53 1.370 1_554 S
N57 C56 1.307 . S
C58 C56 1.486 . S
C58 H62 0.960 . S
C58 H63 0.960 . S
C58 H64 0.959 . S
H59 C55 0.960 . S
H60 C55 0.961 . S
H61 C55 0.960 . S
H62 C58 0.960 . S
H63 C58 0.960 . S
H64 C58 0.959 . S
C65 N66 1.317 . S
C65 N67 1.350 1_556 S
C65 C68 1.485 . S
N66 C65 1.317 . S
N66 N70 1.370 1_556 S
N67 C65 1.350 1_554 S
N67 C69 1.345 1_655 S
C68 C65 1.485 . S
C68 H72 0.960 1_655 S
C68 H73 0.961 . S
C68 H74 0.960 . S
C69 N67 1.345 1_455 S
C69 N70 1.307 1_455 S
C69 C71 1.486 . S
N70 N66 1.370 1_554 S
N70 C69 1.307 1_655 S
C71 C69 1.486 . S
C71 H75 0.960 1_455 S
C71 H76 0.960 . S
C71 H77 0.959 . S
H72 C68 0.960 1_455 S
H73 C68 0.961 . S
H74 C68 0.960 . S
H75 C71 0.960 1_655 S
H76 C71 0.960 . S
H77 C71 0.959 . S
C78 N79 1.317 . S
C78 N80 1.350 1_556 S
C78 C81 1.485 . S
N79 C78 1.317 . S
N79 N83 1.370 1_556 S
N80 C78 1.350 1_554 S
N80 C82 1.345 1_565 S
C81 C78 1.485 . S
C81 H85 0.960 1_565 S
C81 H86 0.961 . S
C81 H87 0.960 . S
C82 N80 1.345 1_545 S
C82 N83 1.307 1_545 S
C82 C84 1.487 . S
N83 N79 1.370 1_554 S
N83 C82 1.307 1_565 S
C84 C82 1.487 . S
C84 H88 0.960 1_545 S
C84 H89 0.960 . S
C84 H90 0.959 . S
H85 C81 0.960 1_545 S
H86 C81 0.961 . S
H87 C81 0.960 . S
H88 C84 0.960 1_565 S
H89 C84 0.960 . S
H90 C84 0.959 . S
C91 N92 1.317 . S
C91 N93 1.348 1_556 S
C91 C94 1.485 . S
N92 C91 1.317 . S
N92 N96 1.370 1_556 S
N93 C91 1.348 1_554 S
N93 C95 1.346 . S
C94 C91 1.485 . S
C94 H98 0.960 . S
C94 H99 0.961 . S
C94 H100 0.960 . S
C95 N93 1.346 . S
C95 N96 1.307 . S
C95 C97 1.486 . S
N96 N92 1.370 1_554 S
N96 C95 1.307 . S
C97 C95 1.486 . S
C97 H101 0.960 . S
C97 H102 0.960 . S
C97 H103 0.959 . S
H98 C94 0.960 . S
H99 C94 0.961 . S
H100 C94 0.960 . S
H101 C97 0.960 . S
H102 C97 0.960 . S
H103 C97 0.959 . S
Tb104 C106 2.809 . S
Tb104 O124 2.484 . S
Tb104 O125 2.440 . S
Tb104 O126 2.658 1_565 S
Tb104 O127 2.409 . S
Tb104 O128 2.378 . S
Tb104 O132 2.325 1_455 S
Tb104 O135 2.341 1_565 S
Tb105 C115 2.809 . S
Tb105 O126 2.325 1_655 S
Tb105 O129 2.341 1_545 S
Tb105 O130 2.484 . S
Tb105 O131 2.440 . S
Tb105 O132 2.658 1_545 S
Tb105 O133 2.409 . S
Tb105 O134 2.378 . S
C106 Tb104 2.809 . S
C106 C107 1.514 1_556 S
C106 O124 1.248 . S
C106 O125 1.266 . S
C107 C106 1.514 1_554 S
C107 C108 1.359 . S
C107 C112 1.348 . S
C108 C107 1.359 . S
C108 C109 1.380 . S
C108 H136 0.929 1_455 S
C109 C108 1.380 . S
C109 C110 1.347 . S
C109 H137 0.931 1_455 S
C110 C109 1.347 . S
C110 C111 1.369 . S
C111 C110 1.369 . S
C111 C112 1.408 . S
C111 H138 0.930 . S
C112 C107 1.348 . S
C112 C111 1.408 . S
C112 H139 0.930 . S
C113 O126 1.281 1_565 S
C113 O127 1.254 . S
C114 O128 1.236 1_655 S
C114 O129 1.266 . S
C115 Tb105 2.809 . S
C115 C116 1.514 . S
C115 O130 1.248 . S
C115 O131 1.266 . S
C116 C115 1.514 . S
C116 C117 1.359 . S
C116 C121 1.348 . S
C117 C116 1.359 . S
C117 C118 1.380 . S
C117 H140 0.929 1_655 S
C118 C117 1.380 . S
C118 C119 1.347 . S
C118 H141 0.931 1_655 S
C119 C118 1.347 . S
C119 C120 1.369 . S
C120 C119 1.369 . S
C120 C121 1.408 . S
C120 H142 0.930 . S
C121 C116 1.348 . S
C121 C120 1.408 . S
C121 H143 0.930 . S
C122 O132 1.281 1_545 S
C122 O133 1.254 . S
C123 O134 1.236 1_455 S
C123 O135 1.266 . S
O124 Tb104 2.484 . S
O124 C106 1.248 . S
O125 Tb104 2.440 . S
O125 C106 1.266 . S
O126 Tb104 2.658 1_545 S
O126 Tb105 2.325 1_455 S
O126 C113 1.281 1_545 S
O127 Tb104 2.409 . S
O127 C113 1.254 . S
O128 Tb104 2.378 . S
O128 C114 1.236 1_455 S
O129 Tb105 2.341 1_565 S
O129 C114 1.266 . S
O130 Tb105 2.484 . S
O130 C115 1.248 . S
O131 Tb105 2.440 . S
O131 C115 1.266 . S
O132 Tb104 2.325 1_655 S
O132 Tb105 2.658 1_565 S
O132 C122 1.281 1_565 S
O133 Tb105 2.409 . S
O133 C122 1.254 . S
O134 Tb105 2.378 . S
O134 C123 1.236 1_655 S
O135 Tb104 2.341 1_545 S
O135 C123 1.266 . S
H136 C108 0.929 1_655 S
H137 C109 0.931 1_655 S
H138 C111 0.930 . S
H139 C112 0.930 . S
H140 C117 0.929 1_455 S
H141 C118 0.931 1_455 S
H142 C120 0.930 . S
H143 C121 0.930 . S
Tb144 C146 2.813 . S
Tb144 O164 2.484 . S
Tb144 O165 2.440 . S
Tb144 O166 2.658 . S
Tb144 O167 2.409 . S
Tb144 O168 2.378 . S
Tb144 O172 2.325 1_545 S
Tb144 O175 2.341 . S
Tb145 C155 2.809 . S
Tb145 O166 2.325 1_565 S
Tb145 O169 2.341 . S
Tb145 O170 2.484 . S
Tb145 O171 2.440 . S
Tb145 O172 2.658 . S
Tb145 O173 2.409 . S
Tb145 O174 2.378 . S
C146 Tb144 2.813 . S
C146 C147 1.509 1_556 S
C146 O164 1.249 . S
C146 O165 1.269 . S
C147 C146 1.509 1_554 S
C147 C148 1.359 . S
C147 C152 1.348 . S
C148 C147 1.359 . S
C148 C149 1.380 . S
C148 H176 0.929 1_545 S
C149 C148 1.380 . S
C149 C150 1.347 . S
C149 H177 0.931 1_545 S
C150 C149 1.347 . S
C150 C151 1.369 . S
C151 C150 1.369 . S
C151 C152 1.408 . S
C151 H178 0.930 . S
C152 C147 1.348 . S
C152 C151 1.408 . S
C152 H179 0.930 . S
C153 O166 1.281 . S
C153 O167 1.254 . S
C154 O168 1.236 1_565 S
C154 O169 1.266 . S
C155 Tb145 2.809 . S
C155 C156 1.514 . S
C155 O170 1.248 . S
C155 O171 1.266 . S
C156 C155 1.514 . S
C156 C157 1.359 . S
C156 C161 1.348 . S
C157 C156 1.359 . S
C157 C158 1.380 . S
C157 H180 0.929 1_565 S
C158 C157 1.380 . S
C158 C159 1.347 . S
C158 H181 0.931 1_565 S
C159 C158 1.347 . S
C159 C160 1.369 . S
C160 C159 1.369 . S
C160 C161 1.408 . S
C160 H182 0.930 . S
C161 C156 1.348 . S
C161 C160 1.408 . S
C161 H183 0.930 . S
C162 O172 1.281 . S
C162 O173 1.254 . S
C163 O174 1.236 1_545 S
C163 O175 1.266 . S
O164 Tb144 2.484 . S
O164 C146 1.249 . S
O165 Tb144 2.440 . S
O165 C146 1.269 . S
O166 Tb144 2.658 . S
O166 Tb145 2.325 1_545 S
O166 C153 1.281 . S
O167 Tb144 2.409 . S
O167 C153 1.254 . S
O168 Tb144 2.378 . S
O168 C154 1.236 1_545 S
O169 Tb145 2.341 . S
O169 C154 1.266 . S
O170 Tb145 2.484 . S
O170 C155 1.248 . S
O171 Tb145 2.440 . S
O171 C155 1.266 . S
O172 Tb144 2.325 1_565 S
O172 Tb145 2.658 . S
O172 C162 1.281 . S
O173 Tb145 2.409 . S
O173 C162 1.254 . S
O174 Tb145 2.378 . S
O174 C163 1.236 1_565 S
O175 Tb144 2.341 . S
O175 C163 1.266 . S
H176 C148 0.929 1_565 S
H177 C149 0.931 1_565 S
H178 C151 0.930 . S
H179 C152 0.930 . S
H180 C157 0.929 1_545 S
H181 C158 0.931 1_545 S
H182 C160 0.930 . S
H183 C161 0.930 . S
Tb184 C186 2.809 1_556 S
Tb184 O204 2.484 . S
Tb184 O205 2.440 . S
Tb184 O206 2.658 . S
Tb184 O207 2.409 . S
Tb184 O208 2.378 . S
Tb184 O212 2.325 . S
Tb184 O215 2.341 . S
Tb185 C195 2.809 . S
Tb185 O206 2.325 . S
Tb185 O209 2.341 . S
Tb185 O210 2.484 . S
Tb185 O211 2.440 . S
Tb185 O212 2.658 . S
Tb185 O213 2.409 . S
Tb185 O214 2.378 . S
C186 Tb184 2.809 1_554 S
C186 C187 1.514 . S
C186 O204 1.248 1_554 S
C186 O205 1.266 1_554 S
C187 C186 1.514 . S
C187 C188 1.359 . S
C187 C192 1.348 . S
C188 C187 1.359 . S
C188 C189 1.380 . S
C188 H216 0.929 . S
C189 C188 1.380 . S
C189 C190 1.347 . S
C189 H217 0.931 . S
C190 C189 1.347 . S
C190 C191 1.369 . S
C191 C190 1.369 . S
C191 C192 1.408 . S
C191 H218 0.930 . S
C192 C187 1.348 . S
C192 C191 1.408 . S
C192 H219 0.930 . S
C193 O206 1.281 . S
C193 O207 1.254 . S
C194 O208 1.236 . S
C194 O209 1.266 . S
C195 Tb185 2.809 . S
C195 C196 1.514 . S
C195 O210 1.248 . S
C195 O211 1.266 . S
C196 C195 1.514 . S
C196 C197 1.359 . S
C196 C201 1.348 . S
C197 C196 1.359 . S
C197 C198 1.380 . S
C197 H220 0.929 . S
C198 C197 1.380 . S
C198 C199 1.347 . S
C198 H221 0.931 . S
C199 C198 1.347 . S
C199 C200 1.369 . S
C200 C199 1.369 . S
C200 C201 1.408 . S
C200 H222 0.930 . S
C201 C196 1.348 . S
C201 C200 1.408 . S
C201 H223 0.930 . S
C202 O212 1.281 . S
C202 O213 1.254 . S
C203 O214 1.236 . S
C203 O215 1.266 . S
O204 Tb184 2.484 . S
O204 C186 1.248 1_556 S
O205 Tb184 2.440 . S
O205 C186 1.266 1_556 S
O206 Tb184 2.658 . S
O206 Tb185 2.325 . S
O206 C193 1.281 . S
O207 Tb184 2.409 . S
O207 C193 1.254 . S
O208 Tb184 2.378 . S
O208 C194 1.236 . S
O209 Tb185 2.341 . S
O209 C194 1.266 . S
O210 Tb185 2.484 . S
O210 C195 1.248 . S
O211 Tb185 2.440 . S
O211 C195 1.266 . S
O212 Tb184 2.325 . S
O212 Tb185 2.658 . S
O212 C202 1.281 . S
O213 Tb185 2.409 . S
O213 C202 1.254 . S
O214 Tb185 2.378 . S
O214 C203 1.236 . S
O215 Tb184 2.341 . S
O215 C203 1.266 . S
H216 C188 0.929 . S
H217 C189 0.931 . S
H218 C191 0.930 . S
H219 C192 0.930 . S
H220 C197 0.929 . S
H221 C198 0.931 . S
H222 C200 0.930 . S
H223 C201 0.930 . S
Tb224 C226 2.806 1_556 S
Tb224 O244 2.484 . S
Tb224 O245 2.440 . S
Tb224 O246 2.658 1_655 S
Tb224 O247 2.409 . S
Tb224 O248 2.378 . S
Tb224 O252 2.325 . S
Tb224 O255 2.341 1_655 S
Tb225 C235 2.809 . S
Tb225 O246 2.325 . S
Tb225 O249 2.341 1_455 S
Tb225 O250 2.484 . S
Tb225 O251 2.440 . S
Tb225 O252 2.658 1_455 S
Tb225 O253 2.409 . S
Tb225 O254 2.378 . S
C226 Tb224 2.806 1_554 S
C226 C227 1.516 . S
C226 O244 1.248 1_554 S
C226 O245 1.264 1_554 S
C227 C226 1.516 . S
C227 C228 1.359 . S
C227 C232 1.348 . S
C228 C227 1.359 . S
C228 C229 1.380 . S
C228 H256 0.929 . S
C229 C228 1.380 . S
C229 C230 1.347 . S
C229 H257 0.931 . S
C230 C229 1.347 . S
C230 C231 1.369 . S
C231 C230 1.369 . S
C231 C232 1.408 . S
C231 H258 0.930 . S
C232 C227 1.348 . S
C232 C231 1.408 . S
C232 H259 0.930 . S
C233 O246 1.274 1_655 S
C233 O247 1.263 . S
C234 O248 1.236 . S
C234 O249 1.266 . S
C235 Tb225 2.809 . S
C235 C236 1.514 . S
C235 O250 1.248 . S
C235 O251 1.266 . S
C236 C235 1.514 . S
C236 C237 1.359 . S
C236 C241 1.348 . S
C237 C236 1.359 . S
C237 C238 1.380 . S
C237 H260 0.929 . S
C238 C237 1.380 . S
C238 C239 1.347 . S
C238 H261 0.931 . S
C239 C238 1.347 . S
C239 C240 1.369 . S
C240 C239 1.369 . S
C240 C241 1.408 . S
C240 H262 0.930 . S
C241 C236 1.348 . S
C241 C240 1.408 . S
C241 H263 0.930 . S
C242 O252 1.271 1_455 S
C242 O253 1.268 . S
C243 O254 1.236 . S
C243 O255 1.266 . S
O244 Tb224 2.484 . S
O244 C226 1.248 1_556 S
O245 Tb224 2.440 . S
O245 C226 1.264 1_556 S
O246 Tb224 2.658 1_455 S
O246 Tb225 2.325 . S
O246 C233 1.274 1_455 S
O247 Tb224 2.409 . S
O247 C233 1.263 . S
O248 Tb224 2.378 . S
O248 C234 1.236 . S
O249 Tb225 2.341 1_655 S
O249 C234 1.266 . S
O250 Tb225 2.484 . S
O250 C235 1.248 . S
O251 Tb225 2.440 . S
O251 C235 1.266 . S
O252 Tb224 2.325 . S
O252 Tb225 2.658 1_655 S
O252 C242 1.271 1_655 S
O253 Tb225 2.409 . S
O253 C242 1.268 . S
O254 Tb225 2.378 . S
O254 C243 1.236 . S
O255 Tb224 2.341 1_455 S
O255 C243 1.266 . S
H256 C228 0.929 . S
H257 C229 0.931 . S
H258 C231 0.930 . S
H259 C232 0.930 . S
H260 C237 0.929 . S
H261 C238 0.931 . S
H262 C240 0.930 . S
H263 C241 0.930 . S
H264 C276 0.930 . S
H265 C278 0.930 . S
H266 C279 0.930 . S
H267 C283 0.959 . S
H268 C283 0.959 . S
H269 C283 0.961 . S
H270 C284 0.960 . S
H271 C284 0.961 . S
H272 C284 0.959 . S
H273 C287 0.929 . S
H274 C288 0.931 . S
H275 C290 0.930 . S
C276 H264 0.930 . S
C276 C277 1.399 1_565 S
C276 C281 1.399 . S
C277 C276 1.399 1_545 S
C277 C278 1.376 . S
C278 H265 0.930 . S
C278 C277 1.376 . S
C278 C279 1.388 . S
C279 H266 0.930 . S
C279 C278 1.388 . S
C279 C280 1.390 . S
C280 C279 1.390 . S
C280 C281 1.394 1_545 S
C280 C286 1.465 . S
C281 C276 1.399 . S
C281 C280 1.394 1_565 S
C281 C282 1.516 . S
C282 C281 1.516 . S
C282 C283 1.502 . S
C282 C284 1.561 . S
C282 C285 1.526 . S
C283 H267 0.959 . S
C283 H268 0.959 . S
C283 H269 0.961 . S
C283 C282 1.502 . S
C284 H270 0.960 . S
C284 H271 0.961 . S
C284 H272 0.959 . S
C284 C282 1.561 . S
C285 C282 1.526 . S
C285 C286 1.396 1_565 S
C285 C290 1.390 . S
C286 C280 1.465 . S
C286 C285 1.396 1_545 S
C286 C287 1.399 . S
C287 H273 0.929 . S
C287 C286 1.399 . S
C287 C288 1.385 . S
C288 H274 0.931 . S
C288 C287 1.385 . S
C288 C289 1.389 . S
C289 C288 1.389 . S
C289 C290 1.387 1_545 S
C290 H275 0.930 . S
C290 C285 1.390 . S
C290 C289 1.387 1_565 S
H291 C303 0.930 . S
H292 C305 0.930 . S
H293 C306 0.930 . S
H294 C310 0.959 . S
H295 C310 0.959 . S
H296 C310 0.961 . S
H297 C311 0.960 . S
H298 C311 0.961 . S
H299 C311 0.959 . S
H300 C314 0.929 . S
H301 C315 0.931 . S
H302 C317 0.930 . S
C303 H291 0.930 . S
C303 C304 1.399 . S
C303 C308 1.399 . S
C304 C303 1.399 . S
C304 C305 1.376 . S
C305 H292 0.930 . S
C305 C304 1.376 . S
C305 C306 1.388 . S
C306 H293 0.930 . S
C306 C305 1.388 . S
C306 C307 1.390 . S
C307 C306 1.390 . S
C307 C308 1.394 . S
C307 C313 1.465 . S
C308 C303 1.399 . S
C308 C307 1.394 . S
C308 C309 1.516 . S
C309 C308 1.516 . S
C309 C310 1.502 . S
C309 C311 1.561 . S
C309 C312 1.526 . S
C310 H294 0.959 . S
C310 H295 0.959 . S
C310 H296 0.961 . S
C310 C309 1.502 . S
C311 H297 0.960 . S
C311 H298 0.961 . S
C311 H299 0.959 . S
C311 C309 1.561 . S
C312 C309 1.526 . S
C312 C313 1.396 . S
C312 C317 1.390 . S
C313 C307 1.465 . S
C313 C312 1.396 . S
C313 C314 1.399 . S
C314 H300 0.929 . S
C314 C313 1.399 . S
C314 C315 1.385 . S
C315 H301 0.931 . S
C315 C314 1.385 . S
C315 C316 1.389 . S
C316 C315 1.389 . S
C316 C317 1.387 . S
C317 H302 0.930 . S
C317 C312 1.390 . S
C317 C316 1.387 . S
H318 C330 0.930 . S
H319 C332 0.930 . S
H320 C333 0.930 . S
H321 C337 0.959 . S
H322 C337 0.959 . S
H323 C337 0.961 . S
H324 C338 0.960 . S
H325 C338 0.961 . S
H326 C338 0.959 . S
H327 C341 0.929 . S
H328 C342 0.931 . S
H329 C344 0.930 . S
C330 H318 0.930 . S
C330 C331 1.399 . S
C330 C335 1.399 . S
C331 C330 1.399 . S
C331 C332 1.376 . S
C332 H319 0.930 . S
C332 C331 1.376 . S
C332 C333 1.388 . S
C333 H320 0.930 . S
C333 C332 1.388 . S
C333 C334 1.390 . S
C334 C333 1.390 . S
C334 C335 1.394 . S
C334 C340 1.465 . S
C335 C330 1.399 . S
C335 C334 1.394 . S
C335 C336 1.516 . S
C336 C335 1.516 . S
C336 C337 1.502 . S
C336 C338 1.561 . S
C336 C339 1.526 . S
C337 H321 0.959 . S
C337 H322 0.959 . S
C337 H323 0.961 . S
C337 C336 1.502 . S
C338 H324 0.960 . S
C338 H325 0.961 . S
C338 H326 0.959 . S
C338 C336 1.561 . S
C339 C336 1.526 . S
C339 C340 1.396 . S
C339 C344 1.390 . S
C340 C334 1.465 . S
C340 C339 1.396 . S
C340 C341 1.399 . S
C341 H327 0.929 . S
C341 C340 1.399 . S
C341 C342 1.385 . S
C342 H328 0.931 . S
C342 C341 1.385 . S
C342 C343 1.389 . S
C343 C342 1.389 . S
C343 C344 1.387 . S
C344 H329 0.930 . S
C344 C339 1.390 . S
C344 C343 1.387 . S
H345 C357 0.930 . S
H346 C359 0.930 . S
H347 C360 0.930 . S
H348 C364 0.959 . S
H349 C364 0.959 . S
H350 C364 0.961 . S
H351 C365 0.961 . S
H352 C365 0.963 . S
H353 C365 0.952 1_655 S
H354 C368 0.929 . S
H355 C369 0.931 . S
H356 C371 0.930 . S
C357 H345 0.930 . S
C357 C358 1.399 1_455 S
C357 C362 1.399 . S
C358 C357 1.399 1_655 S
C358 C359 1.376 . S
C359 H346 0.930 . S
C359 C358 1.376 . S
C359 C360 1.388 . S
C360 H347 0.930 . S
C360 C359 1.388 . S
C360 C361 1.390 . S
C361 C360 1.390 . S
C361 C362 1.394 1_655 S
C361 C367 1.465 . S
C362 C357 1.399 . S
C362 C361 1.394 1_455 S
C362 C363 1.516 . S
C363 C362 1.516 . S
C363 C364 1.502 . S
C363 C365 1.564 . S
C363 C366 1.526 . S
C364 H348 0.959 . S
C364 H349 0.959 . S
C364 H350 0.961 . S
C364 C363 1.502 . S
C365 H351 0.961 . S
C365 H352 0.963 . S
C365 H353 0.952 1_455 S
C365 C363 1.564 . S
C366 C363 1.526 . S
C366 C367 1.396 1_455 S
C366 C371 1.390 . S
C367 C361 1.465 . S
C367 C366 1.396 1_655 S
C367 C368 1.399 . S
C368 H354 0.929 . S
C368 C367 1.399 . S
C368 C369 1.385 . S
C369 H355 0.931 . S
C369 C368 1.385 . S
C369 C370 1.413 . S
C370 C369 1.413 . S
C370 C371 1.371 1_655 S
C371 H356 0.930 . S
C371 C366 1.390 . S
C371 C370 1.371 1_455 S
H372 C384 0.930 . S
H373 C386 0.930 . S
H374 C387 0.930 . S
H375 C391 0.959 . S
H376 C391 0.959 . S
H377 C391 0.961 . S
H378 C392 0.960 . S
H379 C392 0.961 . S
H380 C392 0.959 . S
H381 C395 0.929 . S
H382 C396 0.931 . S
H383 C398 0.930 . S
C384 H372 0.930 . S
C384 C385 1.399 1_565 S
C384 C389 1.399 . S
C385 C384 1.399 1_545 S
C385 C386 1.376 . S
C386 H373 0.930 . S
C386 C385 1.376 . S
C386 C387 1.388 . S
C387 H374 0.930 . S
C387 C386 1.388 . S
C387 C388 1.390 . S
C388 C387 1.390 . S
C388 C389 1.394 1_545 S
C388 C394 1.465 . S
C389 C384 1.399 . S
C389 C388 1.394 1_565 S
C389 C390 1.516 . S
C390 C389 1.516 . S
C390 C391 1.502 . S
C390 C392 1.561 . S
C390 C393 1.526 . S
C391 H375 0.959 . S
C391 H376 0.959 . S
C391 H377 0.961 . S
C391 C390 1.502 . S
C392 H378 0.960 . S
C392 H379 0.961 . S
C392 H380 0.959 . S
C392 C390 1.561 . S
C393 C390 1.526 . S
C393 C394 1.396 1_565 S
C393 C398 1.390 . S
C394 C388 1.465 . S
C394 C393 1.396 1_545 S
C394 C395 1.399 . S
C395 H381 0.929 . S
C395 C394 1.399 . S
C395 C396 1.385 1_554 S
C396 H382 0.931 . S
C396 C395 1.385 1_556 S
C396 C397 1.389 . S
C397 C396 1.389 . S
C397 C398 1.387 1_546 S
C398 H383 0.930 . S
C398 C393 1.390 . S
C398 C397 1.387 1_564 S
H399 C411 0.930 . S
H400 C413 0.930 . S
H401 C414 0.930 . S
H402 C418 0.959 . S
H403 C418 0.959 . S
H404 C418 0.961 . S
H405 C419 0.960 . S
H406 C419 0.961 . S
H407 C419 0.959 . S
H408 C422 0.929 . S
H409 C423 0.931 . S
H410 C425 0.930 . S
C411 H399 0.930 . S
C411 C412 1.399 . S
C411 C416 1.399 . S
C412 C411 1.399 . S
C412 C413 1.376 . S
C413 H400 0.930 . S
C413 C412 1.376 . S
C413 C414 1.388 . S
C414 H401 0.930 . S
C414 C413 1.388 . S
C414 C415 1.390 . S
C415 C414 1.390 . S
C415 C416 1.394 . S
C415 C421 1.465 . S
C416 C411 1.399 . S
C416 C415 1.394 . S
C416 C417 1.516 . S
C417 C416 1.516 . S
C417 C418 1.502 . S
C417 C419 1.561 . S
C417 C420 1.526 . S
C418 H402 0.959 . S
C418 H403 0.959 . S
C418 H404 0.961 . S
C418 C417 1.502 . S
C419 H405 0.960 . S
C419 H406 0.961 . S
C419 H407 0.959 . S
C419 C417 1.561 . S
C420 C417 1.526 . S
C420 C421 1.396 . S
C420 C425 1.390 . S
C421 C415 1.465 . S
C421 C420 1.396 . S
C421 C422 1.399 . S
C422 H408 0.929 . S
C422 C421 1.399 . S
C422 C423 1.385 1_554 S
C423 H409 0.931 . S
C423 C422 1.385 1_556 S
C423 C424 1.389 . S
C424 C423 1.389 . S
C424 C425 1.387 1_556 S
C425 H410 0.930 . S
C425 C420 1.390 . S
C425 C424 1.387 1_554 S
H426 C438 0.930 . S
H427 C440 0.930 . S
H428 C441 0.930 . S
H429 C445 0.959 . S
H430 C445 0.959 . S
H431 C445 0.961 . S
H432 C446 0.960 . S
H433 C446 0.961 . S
H434 C446 0.959 . S
H435 C449 0.929 . S
H436 C450 0.931 . S
H437 C452 0.930 . S
C438 H426 0.930 . S
C438 C439 1.399 . S
C438 C443 1.399 . S
C439 C438 1.399 . S
C439 C440 1.376 . S
C440 H427 0.930 . S
C440 C439 1.376 . S
C440 C441 1.388 . S
C441 H428 0.930 . S
C441 C440 1.388 . S
C441 C442 1.390 . S
C442 C441 1.390 . S
C442 C443 1.394 . S
C442 C448 1.465 . S
C443 C438 1.399 . S
C443 C442 1.394 . S
C443 C444 1.516 . S
C444 C443 1.516 . S
C444 C445 1.502 . S
C444 C446 1.561 . S
C444 C447 1.526 . S
C445 H429 0.959 . S
C445 H430 0.959 . S
C445 H431 0.961 . S
C445 C444 1.502 . S
C446 H432 0.960 . S
C446 H433 0.961 . S
C446 H434 0.959 . S
C446 C444 1.561 . S
C447 C444 1.526 . S
C447 C448 1.396 . S
C447 C452 1.390 . S
C448 C442 1.465 . S
C448 C447 1.396 . S
C448 C449 1.399 1_554 S
C449 H435 0.929 . S
C449 C448 1.399 1_556 S
C449 C450 1.385 . S
C450 H436 0.931 . S
C450 C449 1.385 . S
C450 C451 1.389 . S
C451 C450 1.389 . S
C451 C452 1.387 1_556 S
C452 H437 0.930 . S
C452 C447 1.390 . S
C452 C451 1.387 1_554 S
H453 C465 0.930 . S
H454 C467 0.930 . S
H455 C468 0.930 . S
H456 C472 0.959 . S
H457 C472 0.959 . S
H458 C472 0.961 . S
H459 C473 0.960 . S
H460 C473 0.961 . S
H461 C473 0.959 . S
H462 C476 0.929 . S
H463 C477 0.931 1_556 S
H464 C479 0.930 1_556 S
C465 H453 0.930 . S
C465 C466 1.399 1_655 S
C465 C470 1.399 . S
C466 C465 1.399 1_455 S
C466 C467 1.376 . S
C467 H454 0.930 . S
C467 C466 1.376 . S
C467 C468 1.388 . S
C468 H455 0.930 . S
C468 C467 1.388 . S
C468 C469 1.390 . S
C469 C468 1.390 . S
C469 C470 1.394 1_455 S
C469 C475 1.465 . S
C470 C465 1.399 . S
C470 C469 1.394 1_655 S
C470 C471 1.516 . S
C471 C470 1.516 . S
C471 C472 1.502 . S
C471 C473 1.561 . S
C471 C474 1.526 . S
C472 H456 0.959 . S
C472 H457 0.959 . S
C472 H458 0.961 . S
C472 C471 1.502 . S
C473 H459 0.960 . S
C473 H460 0.961 . S
C473 H461 0.959 . S
C473 C471 1.561 . S
C474 C471 1.526 . S
C474 C475 1.396 1_655 S
C474 C479 1.390 . S
C475 C469 1.465 . S
C475 C474 1.396 1_455 S
C475 C476 1.399 . S
C476 H462 0.929 . S
C476 C475 1.399 . S
C476 C477 1.385 . S
C477 H463 0.931 1_554 S
C477 C476 1.385 . S
C477 C478 1.389 1_554 S
C478 C477 1.389 1_556 S
C478 C479 1.387 1_456 S
C479 H464 0.930 1_554 S
C479 C474 1.390 . S
C479 C478 1.387 1_654 S
H480 C492 0.930 . S
H481 C494 0.930 1_556 S
H482 C495 0.930 . S
H483 C499 0.959 . S
H484 C499 0.959 . S
H485 C499 0.961 . S
H486 C500 0.960 . S
H487 C500 0.961 . S
H488 C500 0.959 . S
H489 C503 0.910 1_455 S
H490 C504 0.931 . S
H491 C506 0.930 . S
C492 H480 0.930 . S
C492 C493 1.399 1_655 S
C492 C497 1.399 . S
C493 C492 1.399 1_455 S
C493 C494 1.376 . S
C494 H481 0.930 1_554 S
C494 C493 1.376 . S
C494 C495 1.388 . S
C495 H482 0.930 . S
C495 C494 1.388 . S
C495 C496 1.390 1_455 S
C496 C495 1.390 1_655 S
C496 C497 1.394 . S
C496 C502 1.465 . S
C497 C492 1.399 . S
C497 C496 1.394 . S
C497 C498 1.516 . S
C498 C497 1.516 . S
C498 C499 1.502 . S
C498 C500 1.561 . S
C498 C501 1.526 . S
C499 H483 0.959 . S
C499 H484 0.959 . S
C499 H485 0.961 . S
C499 C498 1.502 . S
C500 H486 0.960 . S
C500 H487 0.961 . S
C500 H488 0.959 . S
C500 C498 1.561 . S
C501 C498 1.526 . S
C501 C502 1.396 . S
C501 C506 1.390 . S
C502 C496 1.465 . S
C502 C501 1.396 . S
C502 C503 1.399 . S
C503 H489 0.910 1_655 S
C503 C502 1.399 . S
C503 C504 1.385 . S
C504 H490 0.931 . S
C504 C503 1.385 . S
C504 C505 1.389 . S
C505 C504 1.389 . S
C505 C506 1.387 . S
C506 H491 0.930 . S
C506 C501 1.390 . S
C506 C505 1.387 . S
H507 C519 0.930 . S
H508 C521 0.930 1_556 S
H509 C522 0.930 . S
H510 C526 0.959 . S
H511 C526 0.959 . S
H512 C526 0.961 . S
H513 C527 0.960 . S
H514 C527 0.961 . S
H515 C527 0.959 . S
H516 C530 0.921 1_545 S
H517 C531 0.931 . S
H518 C533 0.930 . S
C519 H507 0.930 . S
C519 C520 1.399 1_565 S
C519 C524 1.399 . S
C520 C519 1.399 1_545 S
C520 C521 1.376 . S
C521 H508 0.930 1_554 S
C521 C520 1.376 . S
C521 C522 1.388 . S
C522 H509 0.930 . S
C522 C521 1.388 . S
C522 C523 1.390 1_545 S
C523 C522 1.390 1_565 S
C523 C524 1.394 . S
C523 C529 1.465 . S
C524 C519 1.399 . S
C524 C523 1.394 . S
C524 C525 1.516 . S
C525 C524 1.516 . S
C525 C526 1.502 . S
C525 C527 1.561 . S
C525 C528 1.526 . S
C526 H510 0.959 . S
C526 H511 0.959 . S
C526 H512 0.961 . S
C526 C525 1.502 . S
C527 H513 0.960 . S
C527 H514 0.961 . S
C527 H515 0.959 . S
C527 C525 1.561 . S
C528 C525 1.526 . S
C528 C529 1.396 . S
C528 C533 1.390 . S
C529 C523 1.465 . S
C529 C528 1.396 . S
C529 C530 1.399 . S
C530 H516 0.921 1_565 S
C530 C529 1.399 . S
C530 C531 1.385 . S
C531 H517 0.931 . S
C531 C530 1.385 . S
C531 C532 1.389 . S
C532 C531 1.389 . S
C532 C533 1.387 . S
C533 H518 0.930 . S
C533 C528 1.390 . S
C533 C532 1.387 . S
H534 C546 0.930 . S
H535 C548 0.930 1_556 S
H536 C549 0.930 . S
H537 C553 0.959 . S
H538 C553 0.959 . S
H539 C553 0.961 . S
H540 C554 0.960 . S
H541 C554 0.961 . S
H542 C554 0.959 . S
H543 C557 0.929 . S
H544 C558 0.931 . S
H545 C560 0.930 . S
C546 H534 0.930 . S
C546 C547 1.399 . S
C546 C551 1.399 . S
C547 C546 1.399 . S
C547 C548 1.376 . S
C548 H535 0.930 1_554 S
C548 C547 1.376 . S
C548 C549 1.388 . S
C549 H536 0.930 . S
C549 C548 1.388 . S
C549 C550 1.390 . S
C550 C549 1.390 . S
C550 C551 1.394 . S
C550 C556 1.465 . S
C551 C546 1.399 . S
C551 C550 1.394 . S
C551 C552 1.516 . S
C552 C551 1.516 . S
C552 C553 1.502 . S
C552 C554 1.561 . S
C552 C555 1.526 . S
C553 H537 0.959 . S
C553 H538 0.959 . S
C553 H539 0.961 . S
C553 C552 1.502 . S
C554 H540 0.960 . S
C554 H541 0.961 . S
C554 H542 0.959 . S
C554 C552 1.561 . S
C555 C552 1.526 . S
C555 C556 1.396 . S
C555 C560 1.390 . S
C556 C550 1.465 . S
C556 C555 1.396 . S
C556 C557 1.399 . S
C557 H543 0.929 . S
C557 C556 1.399 . S
C557 C558 1.385 . S
C558 H544 0.931 . S
C558 C557 1.385 . S
C558 C559 1.389 . S
C559 C558 1.389 . S
C559 C560 1.387 . S
C560 H545 0.930 . S
C560 C555 1.390 . S
C560 C559 1.387 . S
H561 C573 0.930 . S
H562 C575 0.930 . S
H563 C576 0.930 . S
H564 C580 0.959 . S
H565 C580 0.959 . S
H566 C580 0.961 . S
H567 C581 0.960 . S
H568 C581 0.961 . S
H569 C581 0.959 . S
H570 C584 0.929 . S
H571 C585 0.931 . S
H572 C587 0.930 . S
C573 H561 0.930 . S
C573 C574 1.399 . S
C573 C578 1.399 . S
C574 C573 1.399 . S
C574 C575 1.376 . S
C575 H562 0.930 . S
C575 C574 1.376 . S
C575 C576 1.388 . S
C576 H563 0.930 . S
C576 C575 1.388 . S
C576 C577 1.390 . S
C577 C576 1.390 . S
C577 C578 1.394 . S
C577 C583 1.465 . S
C578 C573 1.399 . S
C578 C577 1.394 . S
C578 C579 1.516 . S
C579 C578 1.516 . S
C579 C580 1.502 . S
C579 C581 1.561 . S
C579 C582 1.526 . S
C580 H564 0.959 . S
C580 H565 0.959 . S
C580 H566 0.961 . S
C580 C579 1.502 . S
C581 H567 0.960 . S
C581 H568 0.961 . S
C581 H569 0.959 . S
C581 C579 1.561 . S
C582 C579 1.526 . S
C582 C583 1.396 . S
C582 C587 1.390 . S
C583 C577 1.465 . S
C583 C582 1.396 . S
C583 C584 1.399 . S
C584 H570 0.929 . S
C584 C583 1.399 . S
C584 C585 1.385 . S
C585 H571 0.931 . S
C585 C584 1.385 . S
C585 C586 1.389 . S
C586 C585 1.389 . S
C586 C587 1.387 . S
C587 H572 0.930 . S
C587 C582 1.390 . S
C587 C586 1.387 . S
H588 C600 0.930 . S
H589 C602 0.930 . S
H590 C603 0.930 . S
H591 C607 0.959 . S
H592 C607 0.959 . S
H593 C607 0.961 . S
H594 C608 0.960 . S
H595 C608 0.961 . S
H596 C608 0.959 . S
H597 C611 0.929 . S
H598 C612 0.931 . S
H599 C614 0.930 . S
C600 H588 0.930 . S
C600 C601 1.399 1_455 S
C600 C605 1.399 . S
C601 C600 1.399 1_655 S
C601 C602 1.376 . S
C602 H589 0.930 . S
C602 C601 1.376 . S
C602 C603 1.388 . S
C603 H590 0.930 . S
C603 C602 1.388 . S
C603 C604 1.390 1_655 S
C604 C603 1.390 1_455 S
C604 C605 1.394 . S
C604 C610 1.465 . S
C605 C600 1.399 . S
C605 C604 1.394 . S
C605 C606 1.516 . S
C606 C605 1.516 . S
C606 C607 1.502 . S
C606 C608 1.561 . S
C606 C609 1.526 . S
C607 H591 0.959 . S
C607 H592 0.959 . S
C607 H593 0.961 . S
C607 C606 1.502 . S
C608 H594 0.960 . S
C608 H595 0.961 . S
C608 H596 0.959 . S
C608 C606 1.561 . S
C609 C606 1.526 . S
C609 C610 1.396 . S
C609 C614 1.390 . S
C610 C604 1.465 . S
C610 C609 1.396 . S
C610 C611 1.399 . S
C611 H597 0.929 . S
C611 C610 1.399 . S
C611 C612 1.385 . S
C612 H598 0.931 . S
C612 C611 1.385 . S
C612 C613 1.389 . S
C613 C612 1.389 . S
C613 C614 1.387 . S
C614 H599 0.930 . S
C614 C609 1.390 . S
C614 C613 1.387 . S
H615 C627 0.930 . S
H616 C629 0.930 . S
H617 C630 0.930 . S
H618 C634 0.959 . S
H619 C634 0.959 . S
H620 C634 0.961 . S
H621 C635 0.960 . S
H622 C635 0.961 . S
H623 C635 0.959 . S
H624 C638 0.929 . S
H625 C639 0.931 . S
H626 C641 0.901 1_565 S
C627 H615 0.930 . S
C627 C628 1.392 1_565 S
C627 C632 1.399 . S
C628 C627 1.392 1_545 S
C628 C629 1.389 . S
C629 H616 0.930 . S
C629 C628 1.389 . S
C629 C630 1.388 . S
C630 H617 0.930 . S
C630 C629 1.388 . S
C630 C631 1.390 . S
C631 C630 1.390 . S
C631 C632 1.394 1_545 S
C631 C637 1.465 . S
C632 C627 1.399 . S
C632 C631 1.394 1_565 S
C632 C633 1.516 . S
C633 C632 1.516 . S
C633 C634 1.502 . S
C633 C635 1.561 . S
C633 C636 1.526 1_565 S
C634 H618 0.959 . S
C634 H619 0.959 . S
C634 H620 0.961 . S
C634 C633 1.502 . S
C635 H621 0.960 . S
C635 H622 0.961 . S
C635 H623 0.959 . S
C635 C633 1.561 . S
C636 C633 1.526 1_545 S
C636 C637 1.396 . S
C636 C641 1.390 . S
C637 C631 1.465 . S
C637 C636 1.396 . S
C637 C638 1.399 . S
C638 H624 0.929 . S
C638 C637 1.399 . S
C638 C639 1.385 . S
C639 H625 0.931 . S
C639 C638 1.385 . S
C639 C640 1.389 . S
C640 C639 1.389 . S
C640 C641 1.387 . S
C641 H626 0.901 1_545 S
C641 C636 1.390 . S
C641 C640 1.387 . S
H642 C654 0.930 . S
H643 C656 0.930 . S
H644 C657 0.930 . S
H645 C661 0.959 . S
H646 C661 0.959 . S
H647 C661 0.961 . S
H648 C662 0.960 . S
H649 C662 0.961 . S
H650 C662 0.959 . S
H651 C665 0.929 . S
H652 C666 0.931 . S
H653 C668 0.930 . S
C654 H642 0.930 . S
C654 C655 1.399 . S
C654 C659 1.399 . S
C655 C654 1.399 . S
C655 C656 1.376 . S
C656 H643 0.930 . S
C656 C655 1.376 . S
C656 C657 1.388 . S
C657 H644 0.930 . S
C657 C656 1.388 . S
C657 C658 1.390 . S
C658 C657 1.390 . S
C658 C659 1.394 . S
C658 C664 1.465 . S
C659 C654 1.399 . S
C659 C658 1.394 . S
C659 C660 1.516 . S
C660 C659 1.516 . S
C660 C661 1.502 . S
C660 C662 1.561 . S
C660 C663 1.526 . S
C661 H645 0.959 . S
C661 H646 0.959 . S
C661 H647 0.961 . S
C661 C660 1.502 . S
C662 H648 0.960 . S
C662 H649 0.961 . S
C662 H650 0.959 . S
C662 C660 1.561 . S
C663 C660 1.526 . S
C663 C664 1.396 . S
C663 C668 1.390 . S
C664 C658 1.465 . S
C664 C663 1.396 . S
C664 C665 1.399 . S
C665 H651 0.929 . S
C665 C664 1.399 . S
C665 C666 1.385 . S
C666 H652 0.931 . S
C666 C665 1.385 . S
C666 C667 1.389 . S
C667 C666 1.389 . S
C667 C668 1.387 . S
C668 H653 0.930 . S
C668 C663 1.390 . S
C668 C667 1.387 . S
H669 C681 0.930 . S
H670 C683 0.930 . S
H671 C684 0.930 . S
H672 C688 0.959 . S
H673 C688 0.959 . S
H674 C688 0.961 . S
H675 C689 0.960 . S
H676 C689 0.961 . S
H677 C689 0.959 . S
H678 C692 0.929 . S
H679 C693 0.931 . S
H680 C695 0.930 . S
C681 H669 0.930 . S
C681 C682 1.399 . S
C681 C686 1.399 . S
C682 C681 1.399 . S
C682 C683 1.376 . S
C683 H670 0.930 . S
C683 C682 1.376 . S
C683 C684 1.388 . S
C684 H671 0.930 . S
C684 C683 1.388 . S
C684 C685 1.390 . S
C685 C684 1.390 . S
C685 C686 1.394 . S
C685 C691 1.465 . S
C686 C681 1.399 . S
C686 C685 1.394 . S
C686 C687 1.516 . S
C687 C686 1.516 . S
C687 C688 1.502 . S
C687 C689 1.561 . S
C687 C690 1.526 . S
C688 H672 0.959 . S
C688 H673 0.959 . S
C688 H674 0.961 . S
C688 C687 1.502 . S
C689 H675 0.960 . S
C689 H676 0.961 . S
C689 H677 0.959 . S
C689 C687 1.561 . S
C690 C687 1.526 . S
C690 C691 1.396 . S
C690 C695 1.390 . S
C691 C685 1.465 . S
C691 C690 1.396 . S
C691 C692 1.399 . S
C692 H678 0.929 . S
C692 C691 1.399 . S
C692 C693 1.385 . S
C693 H679 0.931 . S
C693 C692 1.385 . S
C693 C694 1.389 . S
C694 C693 1.389 . S
C694 C695 1.387 . S
C695 H680 0.930 . S
C695 C690 1.390 . S
C695 C694 1.387 . S
H696 C708 0.930 1_554 S
H697 C710 0.930 . S
H698 C711 0.930 . S
H699 C715 0.959 . S
H700 C715 0.959 1_554 S
H701 C715 0.961 1_554 S
H702 C716 0.960 . S
H703 C716 0.961 . S
H704 C716 0.959 1_655 S
H705 C719 0.929 . S
H706 C720 0.931 . S
H707 C722 0.930 . S
C708 H696 0.930 1_556 S
C708 C709 1.376 1_455 S
C708 C713 1.399 . S
C709 C708 1.376 1_655 S
C709 C710 1.404 . S
C710 H697 0.930 . S
C710 C709 1.404 . S
C710 C711 1.388 . S
C711 H698 0.930 . S
C711 C710 1.388 . S
C711 C712 1.390 . S
C712 C711 1.390 . S
C712 C713 1.394 1_655 S
C712 C718 1.465 . S
C713 C708 1.399 . S
C713 C712 1.394 1_455 S
C713 C714 1.516 . S
C714 C713 1.516 . S
C714 C715 1.502 . S
C714 C716 1.561 1_556 S
C714 C717 1.526 . S
C715 H699 0.959 . S
C715 H700 0.959 1_556 S
C715 H701 0.961 1_556 S
C715 C714 1.502 . S
C716 H702 0.960 . S
C716 H703 0.961 . S
C716 H704 0.959 1_455 S
C716 C714 1.561 1_554 S
C717 C714 1.526 . S
C717 C718 1.396 1_455 S
C717 C722 1.390 . S
C718 C712 1.465 . S
C718 C717 1.396 1_655 S
C718 C719 1.399 . S
C719 H705 0.929 . S
C719 C718 1.399 . S
C719 C720 1.385 . S
C720 H706 0.931 . S
C720 C719 1.385 . S
C720 C721 1.389 1_655 S
C721 C720 1.389 1_455 S
C721 C722 1.387 . S
C722 H707 0.930 . S
C722 C717 1.390 . S
C722 C721 1.387 . S
H723 C735 0.930 . S
H724 C737 0.930 . S
H725 C738 0.930 . S
H726 C742 0.959 . S
H727 C742 0.959 . S
H728 C742 0.961 . S
H729 C743 0.960 . S
H730 C743 0.961 . S
H731 C743 0.959 . S
H732 C746 0.929 . S
H733 C747 0.931 . S
H734 C749 0.930 . S
C735 H723 0.930 . S
C735 C736 1.399 1_565 S
C735 C740 1.399 . S
C736 C735 1.399 1_545 S
C736 C737 1.376 . S
C737 H724 0.930 . S
C737 C736 1.376 . S
C737 C738 1.388 . S
C738 H725 0.930 . S
C738 C737 1.388 . S
C738 C739 1.390 . S
C739 C738 1.390 . S
C739 C740 1.394 1_545 S
C739 C745 1.465 . S
C740 C735 1.399 . S
C740 C739 1.394 1_565 S
C740 C741 1.516 . S
C741 C740 1.516 . S
C741 C742 1.502 . S
C741 C743 1.561 . S
C741 C744 1.526 . S
C742 H726 0.959 . S
C742 H727 0.959 . S
C742 H728 0.961 . S
C742 C741 1.502 . S
C743 H729 0.960 . S
C743 H730 0.961 . S
C743 H731 0.959 . S
C743 C741 1.561 . S
C744 C741 1.526 . S
C744 C745 1.396 1_565 S
C744 C749 1.390 . S
C745 C739 1.465 . S
C745 C744 1.396 1_545 S
C745 C746 1.399 . S
C746 H732 0.929 . S
C746 C745 1.399 . S
C746 C747 1.385 . S
C747 H733 0.931 . S
C747 C746 1.385 . S
C747 C748 1.389 . S
C748 C747 1.389 . S
C748 C749 1.387 1_545 S
C749 H734 0.930 . S
C749 C744 1.390 . S
C749 C748 1.387 1_565 S
H750 C762 0.930 1_554 S
H751 C764 0.930 . S
H752 C765 0.930 . S
H753 C769 0.959 . S
H754 C769 0.959 . S
H755 C769 0.961 . S
H756 C770 0.960 . S
H757 C770 0.961 . S
H758 C770 0.959 . S
H759 C773 0.929 . S
H760 C774 0.931 . S
H761 C776 0.930 . S
C762 H750 0.930 1_556 S
C762 C763 1.399 . S
C762 C767 1.399 . S
C763 C762 1.399 . S
C763 C764 1.376 . S
C764 H751 0.930 . S
C764 C763 1.376 . S
C764 C765 1.388 . S
C765 H752 0.930 . S
C765 C764 1.388 . S
C765 C766 1.390 . S
C766 C765 1.390 . S
C766 C767 1.394 . S
C766 C772 1.465 . S
C767 C762 1.399 . S
C767 C766 1.394 . S
C767 C768 1.516 . S
C768 C767 1.516 . S
C768 C769 1.502 1_556 S
C768 C770 1.561 . S
C768 C771 1.526 . S
C769 H753 0.959 . S
C769 H754 0.959 . S
C769 H755 0.961 . S
C769 C768 1.502 1_554 S
C770 H756 0.960 . S
C770 H757 0.961 . S
C770 H758 0.959 . S
C770 C768 1.561 . S
C771 C768 1.526 . S
C771 C772 1.396 . S
C771 C776 1.390 . S
C772 C766 1.465 . S
C772 C771 1.396 . S
C772 C773 1.399 . S
C773 H759 0.929 . S
C773 C772 1.399 . S
C773 C774 1.385 . S
C774 H760 0.931 . S
C774 C773 1.385 . S
C774 C775 1.389 . S
C775 C774 1.389 . S
C775 C776 1.387 . S
C776 H761 0.930 . S
C776 C771 1.390 . S
C776 C775 1.387 . S
H777 C789 0.930 . S
H778 C791 0.930 1_554 S
H779 C792 0.930 1_554 S
H780 C796 0.959 . S
H781 C796 0.959 . S
H782 C796 0.961 . S
H783 C797 0.960 . S
H784 C797 0.961 . S
H785 C797 0.959 . S
H786 C800 0.929 1_554 S
H787 C801 0.931 . S
H788 C803 0.930 . S
C789 H777 0.930 . S
C789 C790 1.399 . S
C789 C794 1.399 . S
C790 C789 1.399 . S
C790 C791 1.376 . S
C791 H778 0.930 1_556 S
C791 C790 1.376 . S
C791 C792 1.388 . S
C792 H779 0.930 1_556 S
C792 C791 1.388 . S
C792 C793 1.390 . S
C793 C792 1.390 . S
C793 C794 1.394 . S
C793 C799 1.465 . S
C794 C789 1.399 . S
C794 C793 1.394 . S
C794 C795 1.516 . S
C795 C794 1.516 . S
C795 C796 1.502 . S
C795 C797 1.561 . S
C795 C798 1.526 . S
C796 H780 0.959 . S
C796 H781 0.959 . S
C796 H782 0.961 . S
C796 C795 1.502 . S
C797 H783 0.960 . S
C797 H784 0.961 . S
C797 H785 0.959 . S
C797 C795 1.561 . S
C798 C795 1.526 . S
C798 C799 1.396 . S
C798 C803 1.390 . S
C799 C793 1.465 . S
C799 C798 1.396 . S
C799 C800 1.399 . S
C800 H786 0.929 1_556 S
C800 C799 1.399 . S
C800 C801 1.385 . S
C801 H787 0.931 . S
C801 C800 1.385 . S
C801 C802 1.389 . S
C802 C801 1.389 . S
C802 C803 1.387 . S
C803 H788 0.930 . S
C803 C798 1.390 . S
C803 C802 1.387 . S
H804 C816 0.930 . S
H805 C818 0.930 . S
H806 C819 0.930 . S
H807 C823 0.959 . S
H808 C823 0.959 . S
H809 C823 0.961 . S
H810 C824 0.960 . S
H811 C824 0.961 . S
H812 C824 0.959 . S
H813 C827 0.929 . S
H814 C828 0.931 . S
H815 C830 0.932 . S
C816 H804 0.930 . S
C816 C817 1.399 1_455 S
C816 C821 1.399 1_455 S
C817 C816 1.399 1_655 S
C817 C818 1.376 . S
C818 H805 0.930 . S
C818 C817 1.376 . S
C818 C819 1.388 . S
C819 H806 0.930 . S
C819 C818 1.388 . S
C819 C820 1.390 . S
C820 C819 1.390 . S
C820 C821 1.394 . S
C820 C826 1.465 . S
C821 C816 1.399 1_655 S
C821 C820 1.394 . S
C821 C822 1.518 . S
C822 C821 1.518 . S
C822 C823 1.483 1_655 S
C822 C824 1.577 . S
C822 C825 1.530 . S
C823 H807 0.959 . S
C823 H808 0.959 . S
C823 H809 0.961 . S
C823 C822 1.483 1_455 S
C824 H810 0.960 . S
C824 H811 0.961 . S
C824 H812 0.959 . S
C824 C822 1.577 . S
C825 C822 1.530 . S
C825 C826 1.396 . S
C825 C830 1.390 . S
C826 C820 1.465 . S
C826 C825 1.396 . S
C826 C827 1.399 . S
C827 H813 0.929 . S
C827 C826 1.399 . S
C827 C828 1.385 . S
C828 H814 0.931 . S
C828 C827 1.385 . S
C828 C829 1.389 . S
C829 C828 1.389 . S
C829 C830 1.387 . S
C830 H815 0.932 . S
C830 C825 1.390 . S
C830 C829 1.387 . S
H831 C843 0.930 . S
H832 C845 0.930 . S
H833 C846 0.930 . S
H834 C850 0.959 . S
H835 C850 0.959 . S
H836 C850 0.961 . S
H837 C851 0.960 . S
H838 C851 0.961 . S
H839 C851 0.959 . S
H840 C854 0.929 . S
H841 C855 0.931 . S
H842 C857 0.930 . S
C843 H831 0.930 . S
C843 C844 1.399 1_545 S
C843 C848 1.399 . S
C844 C843 1.399 1_565 S
C844 C845 1.376 . S
C845 H832 0.930 . S
C845 C844 1.376 . S
C845 C846 1.388 . S
C846 H833 0.930 . S
C846 C845 1.388 . S
C846 C847 1.390 . S
C847 C846 1.390 . S
C847 C848 1.394 1_565 S
C847 C853 1.465 . S
C848 C843 1.399 . S
C848 C847 1.394 1_545 S
C848 C849 1.516 . S
C849 C848 1.516 . S
C849 C850 1.502 . S
C849 C851 1.561 . S
C849 C852 1.526 . S
C850 H834 0.959 . S
C850 H835 0.959 . S
C850 H836 0.961 . S
C850 C849 1.502 . S
C851 H837 0.960 . S
C851 H838 0.961 . S
C851 H839 0.959 . S
C851 C849 1.561 . S
C852 C849 1.526 . S
C852 C853 1.396 1_545 S
C852 C857 1.390 . S
C853 C847 1.465 . S
C853 C852 1.396 1_565 S
C853 C854 1.399 . S
C854 H840 0.929 . S
C854 C853 1.399 . S
C854 C855 1.385 . S
C855 H841 0.931 . S
C855 C854 1.385 . S
C855 C856 1.389 . S
C856 C855 1.389 . S
C856 C857 1.387 1_565 S
C857 H842 0.930 . S
C857 C852 1.390 . S
C857 C856 1.387 1_545 S
H858 C870 0.930 . S
H859 C872 0.930 . S
H860 C873 0.930 . S
H861 C877 0.959 . S
H862 C877 0.959 . S
H863 C877 0.961 . S
H864 C878 0.960 . S
H865 C878 0.961 . S
H866 C878 0.959 . S
H867 C881 0.929 . S
H868 C882 0.931 . S
H869 C884 0.930 . S
C870 H858 0.930 . S
C870 C871 1.399 . S
C870 C875 1.399 . S
C871 C870 1.399 . S
C871 C872 1.376 . S
C872 H859 0.930 . S
C872 C871 1.376 . S
C872 C873 1.388 . S
C873 H860 0.930 . S
C873 C872 1.388 . S
C873 C874 1.390 . S
C874 C873 1.390 . S
C874 C875 1.394 . S
C874 C880 1.465 . S
C875 C870 1.399 . S
C875 C874 1.394 . S
C875 C876 1.516 . S
C876 C875 1.516 . S
C876 C877 1.502 . S
C876 C878 1.561 . S
C876 C879 1.526 . S
C877 H861 0.959 . S
C877 H862 0.959 . S
C877 H863 0.961 . S
C877 C876 1.502 . S
C878 H864 0.960 . S
C878 H865 0.961 . S
C878 H866 0.959 . S
C878 C876 1.561 . S
C879 C876 1.526 . S
C879 C880 1.396 . S
C879 C884 1.390 . S
C880 C874 1.465 . S
C880 C879 1.396 . S
C880 C881 1.399 . S
C881 H867 0.929 . S
C881 C880 1.399 . S
C881 C882 1.385 . S
C882 H868 0.931 . S
C882 C881 1.385 . S
C882 C883 1.389 . S
C883 C882 1.389 . S
C883 C884 1.387 . S
C884 H869 0.930 . S
C884 C879 1.390 . S
C884 C883 1.387 . S
H885 C897 0.930 . S
H886 C899 0.930 . S
H887 C900 0.930 . S
H888 C904 0.959 . S
H889 C904 0.959 . S
H890 C904 0.961 . S
H891 C905 0.960 . S
H892 C905 0.961 . S
H893 C905 0.959 . S
H894 C908 0.929 . S
H895 C909 0.931 . S
H896 C911 0.930 . S
C897 H885 0.930 . S
C897 C898 1.399 . S
C897 C902 1.399 . S
C898 C897 1.399 . S
C898 C899 1.376 . S
C899 H886 0.930 . S
C899 C898 1.376 . S
C899 C900 1.388 . S
C900 H887 0.930 . S
C900 C899 1.388 . S
C900 C901 1.390 . S
C901 C900 1.390 . S
C901 C902 1.394 . S
C901 C907 1.465 . S
C902 C897 1.399 . S
C902 C901 1.394 . S
C902 C903 1.516 . S
C903 C902 1.516 . S
C903 C904 1.502 . S
C903 C905 1.561 . S
C903 C906 1.526 . S
C904 H888 0.959 . S
C904 H889 0.959 . S
C904 H890 0.961 . S
C904 C903 1.502 . S
C905 H891 0.960 . S
C905 H892 0.961 . S
C905 H893 0.959 . S
C905 C903 1.561 . S
C906 C903 1.526 . S
C906 C907 1.396 . S
C906 C911 1.390 . S
C907 C901 1.465 . S
C907 C906 1.396 . S
C907 C908 1.399 . S
C908 H894 0.929 . S
C908 C907 1.399 . S
C908 C909 1.385 . S
C909 H895 0.931 . S
C909 C908 1.385 . S
C909 C910 1.389 . S
C910 C909 1.389 . S
C910 C911 1.387 . S
C911 H896 0.930 . S
C911 C906 1.390 . S
C911 C910 1.387 . S
C277 N80 1.839 1_545 S
C289 C113 1.943 1_545 S
C316 C153 1.953 . S
C304 N93 1.855 . S
C343 C193 1.983 . S
C331 N54 1.884 . S
C370 C233 1.948 . S
C358 N67 1.863 . S
C397 C122 1.938 . S
C385 N28 1.850 1_545 S
C412 N41 1.875 . S
C424 C162 1.970 . S
C439 N2 1.862 . S
C451 C202 1.965 . S
C466 N15 1.877 1_455 S
C478 C242 1.957 . S
C505 C119 0.420 . S
C493 N70 0.461 1_455 S
C532 C159 0.439 . S
C520 N83 0.476 1_545 S
C559 C199 0.526 . S
C547 N96 0.430 . S
C574 N57 0.373 . S
C586 C239 0.551 . S
C601 N18 0.410 . S
C613 C110 0.431 . S
C640 C150 0.558 . S
C628 N31 0.403 1_545 S
C667 C190 0.540 . S
C655 N44 0.395 . S
C682 N5 0.442 . S
C694 C230 0.398 . S
C709 N66 2.203 . S
C721 C123 2.258 . S
C736 N79 2.158 1_545 S
C748 C163 2.247 . S
C775 C203 2.217 . S
C763 N92 2.160 . S
C802 C243 2.269 . S
C790 N53 2.162 . S
C817 N14 2.208 . S
C829 C114 2.291 . S
C856 C154 2.243 . S
C844 N27 2.111 . S
C883 C194 2.196 . S
C871 N40 2.097 . S
C898 N1 2.196 . S
C910 C234 2.254 . S
