# Generated by pormake.
# Topology sqc, (4,8)-cn, num edge types: 1
# Building blocks:
#     Node 0, Type 0, BuildingBlock: GIZVER_clean_linker_0, # of connection points: 4
#     Node 1, Type 0, BuildingBlock: GIZVER_clean_linker_0, # of connection points: 4
#     Node 2, Type 0, BuildingBlock: GIZVER_clean_linker_0, # of connection points: 4
#     Node 3, Type 0, BuildingBlock: GIZVER_clean_linker_0, # of connection points: 4
#     Node 4, Type 0, BuildingBlock: GIZVER_clean_linker_0, # of connection points: 4
#     Node 5, Type 0, BuildingBlock: GIZVER_clean_linker_0, # of connection points: 4
#     Node 6, Type 0, BuildingBlock: GIZVER_clean_linker_0, # of connection points: 4
#     Node 7, Type 0, BuildingBlock: GIZVER_clean_linker_0, # of connection points: 4
#     Node 8, Type 1, BuildingBlock: TAGTUT_clean_sbu_3, # of connection points: 8
#     Node 9, Type 1, BuildingBlock: TAGTUT_clean_sbu_3, # of connection points: 8
#     Node 10, Type 1, BuildingBlock: TAGTUT_clean_sbu_3, # of connection points: 8
#     Node 11, Type 1, BuildingBlock: TAGTUT_clean_sbu_3, # of connection points: 8
#     Edge 12, Type (0, 1), None
#     Edge 13, Type (0, 1), None
#     Edge 14, Type (0, 1), None
#     Edge 15, Type (0, 1), None
#     Edge 16, Type (0, 1), None
#     Edge 17, Type (0, 1), None
#     Edge 18, Type (0, 1), None
#     Edge 19, Type (0, 1), None
#     Edge 20, Type (0, 1), None
#     Edge 21, Type (0, 1), None
#     Edge 22, Type (0, 1), None
#     Edge 23, Type (0, 1), None
#     Edge 24, Type (0, 1), None
#     Edge 25, Type (0, 1), None
#     Edge 26, Type (0, 1), None
#     Edge 27, Type (0, 1), None
#     Edge 28, Type (0, 1), None
#     Edge 29, Type (0, 1), None
#     Edge 30, Type (0, 1), None
#     Edge 31, Type (0, 1), None
#     Edge 32, Type (0, 1), None
#     Edge 33, Type (0, 1), None
#     Edge 34, Type (0, 1), None
#     Edge 35, Type (0, 1), None
#     Edge 36, Type (0, 1), None
#     Edge 37, Type (0, 1), None
#     Edge 38, Type (0, 1), None
#     Edge 39, Type (0, 1), None
#     Edge 40, Type (0, 1), None
#     Edge 41, Type (0, 1), None
#     Edge 42, Type (0, 1), None
#     Edge 43, Type (0, 1), None
# Relax obj value: 0.171
# Max RMSD: 0.267
# Mean RMSD: 0.218
data_MOF--net-sqc--node1-TAGTUT_clean_sbu_3--node2-GIZVER_clean_linker_0--edge1-none
_symmetry_space_group_name_H-M    P1
_symmetry_Int_Tables_number       1
_symmetry_cell_setting            triclinic
loop_
_symmetry_equiv_pos_as_xyz
'x, y, z'
_cell_length_a     12.959929
_cell_length_b     13.116733
_cell_length_c     33.681784
_cell_angle_alpha  92.793688
_cell_angle_beta   90.266522
_cell_angle_gamma 90.697844
loop_
_atom_site_label
_atom_site_type_symbol
_atom_site_fract_x
_atom_site_fract_y
_atom_site_fract_z
_atom_type_partial_charge
H0 H 0.92701 0.95697 0.43302 0.0
H1 H 0.92263 0.15647 0.53549 0.0
H2 H 0.6689 0.94087 0.5143 0.0
H3 H 0.03792 0.11043 0.43883 0.0
H4 H 0.0432 0.18581 0.4843 0.0
H5 H 0.1415 0.95873 0.42943 0.0
H6 H 0.37502 0.90415 0.5154 0.0
H7 H 0.1394 0.12575 0.54256 0.0
C8 C 0.88713 -0.01768 0.4599 0.0
C9 C 0.79228 0.93694 0.47001 0.0
C10 C 0.93354 0.05955 0.48369 0.0
C11 C 0.88447 0.09504 0.5182 0.0
C12 C 0.78869 0.05471 0.53046 0.0
C13 C 0.74121 -0.02497 0.50552 0.0
C14 C 0.03531 0.10601 0.47172 0.0
C15 C 0.12541 0.04419 0.4855 0.0
C16 C 0.17119 0.97099 0.45946 0.0
C17 C 0.26251 0.92303 0.47058 0.0
C18 C 0.30374 0.94176 0.50803 0.0
C19 C 0.26261 0.01682 0.53361 0.0
C20 C 0.17152 0.06657 0.5229 0.0
H21 H 0.46531 0.72814 0.70547 0.0
H22 H 0.38235 0.77192 0.8289 0.0
H23 H 0.29829 -0.00476 0.74759 0.0
H24 H 0.55895 0.64314 0.76057 0.0
H25 H 0.51665 0.65637 0.81064 0.0
H26 H 0.49997 0.51033 0.71733 0.0
H27 H 0.29741 0.28027 0.76206 0.0
H28 H 0.34943 0.56322 0.82986 0.0
C29 C 0.42479 0.77068 0.72883 0.0
C30 C 0.37624 0.86313 0.72064 0.0
C31 C 0.42541 0.73639 0.76807 0.0
C32 C 0.37857 0.79562 0.79852 0.0
C33 C 0.33522 0.88958 0.79068 0.0
C34 C 0.33159 0.92122 0.75218 0.0
C35 C 0.48915 0.64664 0.77931 0.0
C36 C 0.4308 0.547 0.7742 0.0
C37 C 0.44847 0.48445 0.74017 0.0
C38 C 0.40079 0.38891 0.73539 0.0
C39 C 0.3345 0.35469 0.76558 0.0
C40 C 0.31461 0.41666 0.80001 0.0
C41 C 0.36295 0.51381 0.80372 0.0
H42 H 0.80511 0.01506 0.08119 0.0
H43 H 0.82258 0.14022 0.96571 0.0
H44 H 0.03428 0.90849 0.99858 0.0
H45 H 0.72032 0.17831 0.06561 0.0
H46 H 0.72066 0.21934 0.01581 0.0
H47 H 0.59823 0.05532 0.08628 0.0
H48 H 0.36988 0.93273 0.00546 0.0
H49 H 0.6099 0.12921 0.96283 0.0
C50 C 0.83703 0.01237 0.05145 0.0
C51 C 0.91965 0.94794 0.04233 0.0
C52 C 0.80196 0.08075 0.02366 0.0
C53 C 0.8485 0.08503 0.98641 0.0
C54 C 0.93161 0.02281 0.97667 0.0
C55 C 0.96469 0.95171 0.00436 0.0
C56 C 0.71601 0.1514 0.03377 0.0
C57 C 0.6175 0.09437 0.02509 0.0
C58 C 0.56909 0.04543 0.05608 0.0
C59 C 0.47976 -0.01125 0.04845 0.0
C60 C 0.44127 -0.024 0.00985 0.0
C61 C 0.48457 0.02884 0.97862 0.0
C62 C 0.57479 0.08725 0.98629 0.0
H63 H 0.21803 0.20061 0.2169 0.0
H64 H 0.33394 0.21737 0.33689 0.0
H65 H 0.39897 0.95629 0.25964 0.0
H66 H 0.14365 0.31698 0.27074 0.0
H67 H 0.21271 0.34035 0.3163 0.0
H68 H 0.18817 0.40622 0.21424 0.0
H69 H 0.39212 0.66584 0.23302 0.0
H70 H 0.38657 0.42523 0.31579 0.0
C71 C 0.26414 0.1682 0.23996 0.0
C72 C 0.30776 0.07103 0.23369 0.0
C73 C 0.27623 0.22276 0.27667 0.0
C74 C 0.33108 0.17971 0.30751 0.0
C75 C 0.37367 0.08338 0.3012 0.0
C76 C 0.36688 0.03213 0.26378 0.0
C77 C 0.22262 0.3222 0.28392 0.0
C78 C 0.28343 0.40657 0.26595 0.0
C79 C 0.25121 0.44536 0.2301 0.0
C80 C 0.29156 0.53788 0.21663 0.0
C81 C 0.36751 0.58983 0.24041 0.0
C82 C 0.40476 0.54733 0.27592 0.0
C83 C 0.36504 0.45367 0.2872 0.0
H84 H 0.72706 0.24868 0.3 0.0
H85 H 0.82128 0.23918 0.1776 0.0
H86 H 0.88768 0.50482 0.25329 0.0
H87 H 0.64311 0.13204 0.24603 0.0
H88 H 0.70665 0.11188 0.19955 0.0
H89 H 0.69733 0.04744 0.30187 0.0
H90 H 0.89417 0.7889 0.27967 0.0
H91 H 0.87941 0.02877 0.1968 0.0
C92 C 0.76722 0.28407 0.276 0.0
C93 C 0.80885 0.38356 0.28166 0.0
C94 C 0.77342 0.23099 0.23875 0.0
C95 C 0.82135 0.27694 0.20698 0.0
C96 C 0.86086 0.37554 0.21241 0.0
C97 C 0.85816 0.42707 0.24989 0.0
C98 C 0.7205 0.12974 0.23181 0.0
C99 C 0.78429 0.04698 0.24855 0.0
C100 C 0.75742 0.00853 0.285 0.0
C101 C 0.79772 0.91619 0.29768 0.0
C102 C 0.86974 0.86473 0.27269 0.0
C103 C 0.90308 0.90762 0.23664 0.0
C104 C 0.862 0.00044 0.2258 0.0
H105 H 0.71063 0.70028 0.71368 0.0
H106 H 0.82004 0.71489 0.83474 0.0
H107 H 0.86621 0.4446 0.76068 0.0
H108 H 0.63472 0.8183 0.76861 0.0
H109 H 0.70073 0.8366 0.81481 0.0
H110 H 0.6895 0.89873 0.71235 0.0
H111 H 0.87552 0.16981 0.73556 0.0
H112 H 0.87004 0.92877 0.81826 0.0
C113 C 0.75249 0.66595 0.73744 0.0
C114 C 0.7886 0.56509 0.73233 0.0
C115 C 0.76443 0.72057 0.77437 0.0
C116 C 0.81491 0.67582 0.80564 0.0
C117 C 0.84959 0.57664 0.80039 0.0
C118 C 0.83987 0.52285 0.7637 0.0
C119 C 0.71282 0.82066 0.7824 0.0
C120 C 0.77561 0.90542 0.76606 0.0
C121 C 0.7479 0.94165 0.72946 0.0
C122 C 0.7839 0.0364 0.71703 0.0
C123 C 0.85392 0.09262 0.74245 0.0
C124 C 0.88996 0.05119 0.77852 0.0
C125 C 0.85161 0.95628 0.78922 0.0
H126 H 0.42273 0.50385 0.0813 0.0
H127 H 0.42162 0.31059 0.97734 0.0
H128 H 0.16654 0.51792 0.99812 0.0
H129 H 0.53883 0.35916 0.07393 0.0
H130 H 0.53627 0.2808 0.02942 0.0
H131 H 0.63781 0.51574 0.07871 0.0
H132 H 0.88453 0.54335 0.99638 0.0
H133 H 0.63462 0.33074 0.9697 0.0
C134 C 0.3834 0.47914 0.05394 0.0
C135 C 0.28825 0.52205 0.04369 0.0
C136 C 0.43075 0.40534 0.02958 0.0
C137 C 0.38266 0.37022 0.9947 0.0
C138 C 0.28766 0.40871 0.98194 0.0
C139 C 0.23859 0.48514 0.00726 0.0
C140 C 0.53243 0.36102 0.041 0.0
C141 C 0.62223 0.4209 0.02496 0.0
C142 C 0.66915 0.49765 0.04943 0.0
C143 C 0.76442 0.5395 0.03887 0.0
C144 C 0.80919 0.51137 1.00293 0.0
C145 C 0.76577 0.43375 0.97846 0.0
C146 C 0.66911 0.39152 0.98845 0.0
H147 H 0.29348 0.50395 0.57738 0.0
H148 H 0.32 0.63476 0.46309 0.0
H149 H 0.5241 0.39599 0.49572 0.0
H150 H 0.2107 0.67089 0.56153 0.0
H151 H 0.20522 0.70879 0.51105 0.0
H152 H 0.08593 0.55304 0.58532 0.0
H153 H 0.86851 0.40498 0.50537 0.0
H154 H 0.10427 0.6013 0.45984 0.0
C155 C 0.32701 0.50231 0.54792 0.0
C156 C 0.40893 0.43652 0.53897 0.0
C157 C 0.29391 0.57247 0.52032 0.0
C158 C 0.34355 0.57816 0.48361 0.0
C159 C 0.42588 0.51413 0.47402 0.0
C160 C 0.45544 0.44078 0.50134 0.0
C161 C 0.20543 0.6416 0.53 0.0
C162 C 0.10839 0.5802 0.52306 0.0
C163 C 0.0594 0.53584 0.55513 0.0
C164 C 0.97297 0.47341 0.54825 0.0
C165 C 0.9381 0.45123 0.5095 0.0
C166 C -0.01846 0.50003 0.47734 0.0
C167 C 0.06901 0.56284 0.48421 0.0
C168 C 0.24182 0.57906 0.18033 0.0
C169 C 0.88313 0.43657 0.17882 0.0
C170 C 0.83306 0.5799 0.06981 0.0
Mg171 Mg 0.33345 0.78468 0.14131 0.0
Mg172 Mg 0.19475 -0.01976 0.11572 0.0
O173 O 0.20832 0.84002 0.11645 0.0
Mg174 Mg 0.10226 0.74274 0.13245 0.0
O175 O 0.00851 0.63494 0.14799 0.0
Mg176 Mg 0.05903 0.51617 0.11515 0.0
Mg177 Mg 0.8671 0.65259 0.15102 0.0
C178 C -0.01381 0.91748 0.07526 0.0
O179 O 0.02619 0.84408 0.18684 0.0
O180 O 0.43065 0.88621 0.10103 0.0
O181 O 0.86427 0.77859 0.19065 0.0
O182 O 0.32948 0.92068 0.19072 0.0
O183 O 0.32474 0.00868 0.08107 0.0
O184 O 0.22158 0.04267 0.17271 0.0
O185 O 0.15979 0.62725 0.08028 0.0
O186 O 0.32675 0.66021 0.09015 0.0
C187 C 0.25452 0.61056 0.07103 0.0
C188 C 0.41104 0.96309 0.08036 0.0
O189 O -0.00944 0.82422 0.08632 0.0
O190 O 0.96275 0.41797 0.15731 0.0
O191 O 0.04997 -0.01254 0.08717 0.0
O192 O 0.91749 0.53176 0.07455 0.0
O193 O 0.83315 0.51929 0.17853 0.0
O194 O 0.79897 0.64526 0.09522 0.0
O195 O 0.22528 0.67534 0.17686 0.0
O196 O 0.19267 0.51221 0.15843 0.0
C197 C 0.28541 0.00771 0.19714 0.0
C198 C 0.93599 0.83876 0.20346 0.0
C199 C 0.75937 0.84569 0.44342 0.0
C200 C 0.919 0.50521 0.44061 0.0
C201 C 0.79267 0.44468 0.31925 0.0
Mg202 Mg 0.56741 0.93817 0.39877 0.0
Mg203 Mg 0.3738 0.80301 0.36092 0.0
O204 O 0.51535 0.81825 0.36602 0.0
Mg205 Mg 0.60813 0.70959 0.38102 0.0
O206 O 0.71355 0.61241 0.39729 0.0
Mg207 Mg 0.83991 0.67154 0.3743 0.0
Mg208 Mg 0.70468 0.47147 0.40162 0.0
C209 C 0.44021 0.61675 0.30879 0.0
O210 O 0.49752 0.62531 0.42585 0.0
O211 O 0.47633 0.03905 0.35625 0.0
O212 O 0.55831 0.46494 0.43012 0.0
O213 O 0.42066 0.92609 0.43777 0.0
O214 O 0.34658 0.93664 0.33335 0.0
O215 O 0.2978 0.81605 0.41483 0.0
O216 O 0.7328 0.77759 0.3374 0.0
O217 O 0.70267 0.94011 0.35639 0.0
C218 C 0.75022 0.87409 0.33423 0.0
C219 C 0.39702 0.02037 0.33408 0.0
O220 O 0.52965 0.6098 0.32612 0.0
O221 O 0.93716 0.57786 0.4174 0.0
O222 O 0.37022 0.67755 0.32112 0.0
O223 O 0.83561 0.53374 0.32504 0.0
O224 O 0.83464 0.45381 0.43887 0.0
O225 O 0.73299 0.40695 0.34472 0.0
O226 O 0.66488 0.82593 0.43377 0.0
O227 O 0.83183 0.79762 0.42483 0.0
C228 C 0.33214 0.88165 0.44057 0.0
C229 C 0.49352 0.53469 0.43973 0.0
C230 C 0.73384 0.07378 0.68009 0.0
C231 C 0.38638 0.91387 0.6825 0.0
C232 C 0.32189 0.04648 0.56951 0.0
Mg233 Mg 0.81966 0.27527 0.64189 0.0
Mg234 Mg 0.68297 0.46897 0.61344 0.0
O235 O 0.69593 0.32818 0.61472 0.0
Mg236 Mg 0.5895 0.22838 0.62936 0.0
O237 O 0.49663 0.11895 0.64505 0.0
Mg238 Mg 0.55461 -0.00111 0.61532 0.0
Mg239 Mg 0.35359 0.12727 0.65028 0.0
C240 C 0.47457 0.40423 0.57197 0.0
O241 O 0.50982 0.32701 0.68182 0.0
O242 O 0.92004 0.37518 0.60169 0.0
O243 O 0.34927 0.25988 0.68874 0.0
O244 O 0.81113 0.41367 0.69016 0.0
O245 O 0.8158 0.49622 0.57951 0.0
O246 O 0.70609 0.53594 0.67037 0.0
O247 O 0.65158 0.11208 0.57726 0.0
O248 O 0.81627 0.14888 0.5917 0.0
C249 C 0.74847 0.10059 0.56974 0.0
C250 C 0.90235 0.45097 0.58016 0.0
O251 O 0.47912 0.31016 0.58234 0.0
O252 O 0.46736 0.89988 0.66118 0.0
O253 O 0.53837 0.47386 0.58431 0.0
O254 O 0.40952 0.004 0.57488 0.0
O255 O 0.32812 -0.00944 0.67883 0.0
O256 O 0.28568 0.11285 0.59415 0.0
O257 O 0.71111 0.16806 0.67621 0.0
O258 O 0.69003 0.00416 0.65786 0.0
C259 C 0.76757 0.50128 0.69572 0.0
C260 C 0.42082 0.3236 0.69929 0.0
C261 C 0.25155 0.36458 0.94161 0.0
C262 C 0.42113 0.03672 0.94208 0.0
C263 C 0.30091 0.95791 0.82335 0.0
Mg264 Mg 0.05611 0.44937 0.89581 0.0
Mg265 Mg 0.85962 0.30502 0.86541 0.0
O266 O 0.00181 0.32568 0.86608 0.0
Mg267 Mg 0.09937 0.22217 0.88102 0.0
O268 O 0.21043 0.13079 0.89662 0.0
Mg269 Mg 0.33479 0.1935 0.87275 0.0
Mg270 Mg 0.20762 -0.00876 0.90339 0.0
C271 C 0.92545 0.12044 0.81181 0.0
O272 O -0.00428 0.13477 0.92736 0.0
O273 O 0.95866 0.54063 0.85366 0.0
O274 O 0.06353 -0.02261 0.93227 0.0
O275 O 0.91389 0.44015 0.93756 0.0
O276 O 0.82595 0.4351 0.8361 0.0
O277 O 0.79197 0.32326 0.92164 0.0
O278 O 0.2199 0.28949 0.83622 0.0
O279 O 0.18968 0.45424 0.8504 0.0
C280 C 0.2384 0.38441 0.8306 0.0
C281 C 0.87623 0.51845 0.83391 0.0
O282 O 0.01822 0.11887 0.82694 0.0
O283 O 0.43807 0.10894 0.9184 0.0
O284 O 0.85387 0.17658 0.82626 0.0
O285 O 0.33762 0.04987 0.82706 0.0
O286 O 0.33818 -0.01673 0.94028 0.0
O287 O 0.24226 0.91949 0.8489 0.0
O288 O 0.15663 0.3421 0.93355 0.0
O289 O 0.32291 0.32417 0.92002 0.0
C290 C 0.82717 0.39564 0.94436 0.0
C291 C -0.00357 0.04471 0.94185 0.0
loop_
_geom_bond_atom_site_label_1
_geom_bond_atom_site_label_2
_geom_bond_distance
_geom_bond_site_symmetry_2
_ccdc_geom_bond_type
H0 C8 0.930 . S
H1 C11 0.930 . S
H2 C13 0.930 1_565 S
H3 C14 0.970 . S
H4 C14 0.970 . S
H5 C16 0.930 1_565 S
H6 C18 0.935 . S
H7 C20 0.930 . S
C8 H0 0.930 . S
C8 C9 1.382 1_545 S
C8 C10 1.426 . S
C9 C8 1.382 1_565 S
C9 C13 1.389 1_565 S
C10 C8 1.426 . S
C10 C11 1.375 . S
C10 C14 1.532 1_655 S
C11 H1 0.930 . S
C11 C10 1.375 . S
C11 C12 1.416 . S
C12 C11 1.416 . S
C12 C13 1.371 . S
C13 H2 0.930 1_545 S
C13 C9 1.389 1_545 S
C13 C12 1.371 . S
C14 H3 0.970 . S
C14 H4 0.970 . S
C14 C10 1.532 1_455 S
C14 C15 1.499 . S
C15 C14 1.499 . S
C15 C16 1.370 . S
C15 C20 1.415 . S
C16 H5 0.930 1_545 S
C16 C15 1.370 . S
C16 C17 1.407 1_545 S
C17 C16 1.407 1_565 S
C17 C18 1.368 . S
C18 H6 0.935 . S
C18 C17 1.368 . S
C18 C19 1.385 1_565 S
C19 C18 1.385 1_545 S
C19 C20 1.387 . S
C20 H7 0.930 . S
C20 C15 1.415 . S
C20 C19 1.387 . S
H21 C29 0.930 . S
H22 C32 0.930 . S
H23 C34 0.930 1_545 S
H24 C35 0.970 . S
H25 C35 0.970 . S
H26 C37 0.930 . S
H27 C39 0.930 . S
H28 C41 0.930 . S
C29 H21 0.930 . S
C29 C30 1.382 . S
C29 C31 1.426 . S
C30 C29 1.382 . S
C30 C34 1.389 . S
C31 C29 1.426 . S
C31 C32 1.375 . S
C31 C35 1.532 . S
C32 H22 0.930 . S
C32 C31 1.375 . S
C32 C33 1.416 . S
C33 C32 1.416 . S
C33 C34 1.371 . S
C34 H23 0.930 1_565 S
C34 C30 1.389 . S
C34 C33 1.371 . S
C35 H24 0.970 . S
C35 H25 0.970 . S
C35 C31 1.532 . S
C35 C36 1.499 . S
C36 C35 1.499 . S
C36 C37 1.370 . S
C36 C41 1.415 . S
C37 H26 0.930 . S
C37 C36 1.370 . S
C37 C38 1.407 . S
C38 C37 1.407 . S
C38 C39 1.365 . S
C39 H27 0.930 . S
C39 C38 1.365 . S
C39 C40 1.393 . S
C40 C39 1.393 . S
C40 C41 1.387 . S
C41 H28 0.930 . S
C41 C36 1.415 . S
C41 C40 1.387 . S
H42 C50 0.930 1_565 S
H43 C53 0.930 . S
H44 C55 0.930 1_556 S
H45 C56 0.970 . S
H46 C56 0.970 . S
H47 C58 0.930 1_565 S
H48 C60 0.930 . S
H49 C62 0.930 . S
C50 H42 0.930 1_545 S
C50 C51 1.382 1_545 S
C50 C52 1.426 . S
C51 C50 1.382 1_565 S
C51 C55 1.389 1_655 S
C52 C50 1.426 . S
C52 C53 1.375 1_554 S
C52 C56 1.532 . S
C53 H43 0.930 . S
C53 C52 1.375 1_556 S
C53 C54 1.416 . S
C54 C53 1.416 . S
C54 C55 1.371 1_646 S
C55 H44 0.930 1_554 S
C55 C51 1.389 1_455 S
C55 C54 1.371 1_464 S
C56 H45 0.970 . S
C56 H46 0.970 . S
C56 C52 1.532 . S
C56 C57 1.499 . S
C57 C56 1.499 . S
C57 C58 1.370 . S
C57 C62 1.415 1_554 S
C58 H47 0.930 1_545 S
C58 C57 1.370 . S
C58 C59 1.407 1_545 S
C59 C58 1.407 1_565 S
C59 C60 1.365 1_554 S
C60 H48 0.930 . S
C60 C59 1.365 1_556 S
C60 C61 1.393 1_565 S
C61 C60 1.393 1_545 S
C61 C62 1.387 . S
C62 H49 0.930 . S
C62 C57 1.415 1_556 S
C62 C61 1.387 . S
H63 C71 0.930 . S
H64 C74 0.930 . S
H65 C76 0.930 . S
H66 C77 0.970 . S
H67 C77 0.970 . S
H68 C79 0.930 . S
H69 C81 0.930 . S
H70 C83 0.930 . S
C71 H63 0.930 . S
C71 C72 1.382 . S
C71 C73 1.426 . S
C72 C71 1.382 . S
C72 C76 1.389 . S
C73 C71 1.426 . S
C73 C74 1.375 . S
C73 C77 1.532 . S
C74 H64 0.930 . S
C74 C73 1.375 . S
C74 C75 1.416 . S
C75 C74 1.416 . S
C75 C76 1.371 . S
C76 H65 0.930 . S
C76 C72 1.389 . S
C76 C75 1.371 . S
C77 H66 0.970 . S
C77 H67 0.970 . S
C77 C73 1.532 . S
C77 C78 1.499 . S
C78 C77 1.499 . S
C78 C79 1.370 . S
C78 C83 1.415 . S
C79 H68 0.930 . S
C79 C78 1.370 . S
C79 C80 1.407 . S
C80 C79 1.407 . S
C80 C81 1.365 . S
C81 H69 0.930 . S
C81 C80 1.365 . S
C81 C82 1.393 . S
C82 C81 1.393 . S
C82 C83 1.387 . S
C83 H70 0.930 . S
C83 C78 1.415 . S
C83 C82 1.387 . S
H84 C92 0.930 . S
H85 C95 0.930 . S
H86 C97 0.930 . S
H87 C98 0.970 . S
H88 C98 0.970 . S
H89 C100 0.930 . S
H90 C102 0.930 . S
H91 C104 0.930 1_545 S
C92 H84 0.930 . S
C92 C93 1.382 . S
C92 C94 1.426 . S
C93 C92 1.382 . S
C93 C97 1.389 . S
C94 C92 1.426 . S
C94 C95 1.375 . S
C94 C98 1.532 . S
C95 H85 0.930 . S
C95 C94 1.375 . S
C95 C96 1.416 . S
C96 C95 1.416 . S
C96 C97 1.371 . S
C97 H86 0.930 . S
C97 C93 1.389 . S
C97 C96 1.371 . S
C98 H87 0.970 . S
C98 H88 0.970 . S
C98 C94 1.532 . S
C98 C99 1.499 . S
C99 C98 1.499 . S
C99 C100 1.370 . S
C99 C104 1.415 1_545 S
C100 H89 0.930 . S
C100 C99 1.370 . S
C100 C101 1.407 1_545 S
C101 C100 1.407 1_565 S
C101 C102 1.365 . S
C102 H90 0.930 . S
C102 C101 1.365 . S
C102 C103 1.393 . S
C103 C102 1.393 . S
C103 C104 1.387 . S
C104 H91 0.930 1_565 S
C104 C99 1.415 1_565 S
C104 C103 1.387 . S
H105 C113 0.930 . S
H106 C116 0.930 . S
H107 C118 0.930 . S
H108 C119 0.970 . S
H109 C119 0.970 . S
H110 C121 0.930 1_565 S
H111 C123 0.930 . S
H112 C125 0.930 1_565 S
C113 H105 0.930 . S
C113 C114 1.382 . S
C113 C115 1.426 . S
C114 C113 1.382 . S
C114 C118 1.389 . S
C115 C113 1.426 . S
C115 C116 1.375 . S
C115 C119 1.532 . S
C116 H106 0.930 . S
C116 C115 1.375 . S
C116 C117 1.416 . S
C117 C116 1.416 . S
C117 C118 1.371 . S
C118 H107 0.930 . S
C118 C114 1.389 . S
C118 C117 1.371 . S
C119 H108 0.970 . S
C119 H109 0.970 . S
C119 C115 1.532 . S
C119 C120 1.499 . S
C120 C119 1.499 . S
C120 C121 1.370 1_565 S
C120 C125 1.415 1_565 S
C121 H110 0.930 1_545 S
C121 C120 1.370 1_545 S
C121 C122 1.407 . S
C122 C121 1.407 . S
C122 C123 1.365 . S
C123 H111 0.930 . S
C123 C122 1.365 . S
C123 C124 1.393 . S
C124 C123 1.393 . S
C124 C125 1.387 . S
C125 H112 0.930 1_545 S
C125 C120 1.415 1_545 S
C125 C124 1.387 . S
H126 C134 0.930 . S
H127 C137 0.930 . S
H128 C139 0.930 1_556 S
H129 C140 0.970 . S
H130 C140 0.970 . S
H131 C142 0.930 . S
H132 C144 0.930 . S
H133 C146 0.930 . S
C134 H126 0.930 . S
C134 C135 1.382 . S
C134 C136 1.426 . S
C135 C134 1.382 . S
C135 C139 1.389 . S
C136 C134 1.426 . S
C136 C137 1.375 1_554 S
C136 C140 1.532 . S
C137 H127 0.930 . S
C137 C136 1.375 1_556 S
C137 C138 1.416 . S
C138 C137 1.416 . S
C138 C139 1.371 1_556 S
C139 H128 0.930 1_554 S
C139 C135 1.389 . S
C139 C138 1.371 1_554 S
C140 H129 0.970 . S
C140 H130 0.970 . S
C140 C136 1.532 . S
C140 C141 1.499 . S
C141 C140 1.499 . S
C141 C142 1.370 . S
C141 C146 1.415 1_554 S
C142 H131 0.930 . S
C142 C141 1.370 . S
C142 C143 1.407 . S
C143 C142 1.407 . S
C143 C144 1.365 1_554 S
C144 H132 0.930 . S
C144 C143 1.365 1_556 S
C144 C145 1.393 . S
C145 C144 1.393 . S
C145 C146 1.387 . S
C146 H133 0.930 . S
C146 C141 1.415 1_556 S
C146 C145 1.387 . S
H147 C155 0.930 . S
H148 C158 0.930 . S
H149 C160 0.930 . S
H150 C161 0.970 . S
H151 C161 0.970 . S
H152 C163 0.930 . S
H153 C165 0.930 . S
H154 C167 0.930 . S
C155 H147 0.930 . S
C155 C156 1.382 . S
C155 C157 1.426 . S
C156 C155 1.382 . S
C156 C160 1.389 . S
C157 C155 1.426 . S
C157 C158 1.375 . S
C157 C161 1.532 . S
C158 H148 0.930 . S
C158 C157 1.375 . S
C158 C159 1.416 . S
C159 C158 1.416 . S
C159 C160 1.371 . S
C160 H149 0.930 . S
C160 C156 1.389 . S
C160 C159 1.371 . S
C161 H150 0.970 . S
C161 H151 0.970 . S
C161 C157 1.532 . S
C161 C162 1.499 . S
C162 C161 1.499 . S
C162 C163 1.370 . S
C162 C167 1.415 . S
C163 H152 0.930 . S
C163 C162 1.370 . S
C163 C164 1.407 . S
C164 C163 1.407 . S
C164 C165 1.365 1_455 S
C165 H153 0.930 . S
C165 C164 1.365 1_655 S
C165 C166 1.393 1_655 S
C166 C165 1.393 1_455 S
C166 C167 1.387 . S
C167 H154 0.930 . S
C167 C162 1.415 . S
C167 C166 1.387 . S
C168 O195 1.312 . S
C168 O196 1.208 . S
C169 O190 1.331 . S
C169 O193 1.244 . S
C170 O192 1.264 . S
C170 O194 1.273 . S
Mg171 O173 1.936 . S
Mg171 O180 2.081 . S
Mg171 O182 2.023 . S
Mg171 O186 2.031 . S
Mg171 O195 2.291 . S
Mg172 O173 1.963 1_545 S
Mg172 O183 1.942 . S
Mg172 O184 1.955 . S
Mg172 O191 1.986 1_545 S
O173 Mg171 1.936 . S
O173 Mg172 1.963 1_565 S
O173 Mg174 1.915 . S
Mg174 O173 1.915 . S
Mg174 O175 1.915 . S
Mg174 O179 2.013 . S
Mg174 O185 2.114 . S
Mg174 O189 2.013 . S
Mg174 O195 2.114 . S
O175 Mg174 1.915 . S
O175 Mg176 1.936 . S
O175 Mg177 1.963 1_455 S
Mg176 O175 1.936 . S
Mg176 O185 2.291 . S
Mg176 O190 2.081 1_455 S
Mg176 O192 2.023 1_455 S
Mg176 O196 2.031 . S
Mg177 O175 1.963 1_655 S
Mg177 O181 1.986 . S
Mg177 O193 1.942 . S
Mg177 O194 1.955 . S
C178 O189 1.191 . S
C178 O191 1.307 . S
O179 Mg174 2.013 . S
O179 C198 1.191 1_455 S
O180 Mg171 2.081 . S
O180 C188 1.331 . S
O181 Mg177 1.986 . S
O181 C198 1.307 . S
O182 Mg171 2.023 . S
O182 C197 1.264 . S
O183 Mg172 1.942 . S
O183 C188 1.244 1_545 S
O184 Mg172 1.955 . S
O184 C197 1.273 1_545 S
O185 Mg174 2.114 . S
O185 Mg176 2.291 . S
O185 C187 1.312 . S
O186 Mg171 2.031 . S
O186 C187 1.208 . S
C187 O185 1.312 . S
C187 O186 1.208 . S
C188 O180 1.331 . S
C188 O183 1.244 1_565 S
O189 Mg174 2.013 . S
O189 C178 1.191 . S
O190 C169 1.331 . S
O190 Mg176 2.081 1_655 S
O191 Mg172 1.986 1_565 S
O191 C178 1.307 . S
O192 C170 1.264 . S
O192 Mg176 2.023 1_655 S
O193 C169 1.244 . S
O193 Mg177 1.942 . S
O194 C170 1.273 . S
O194 Mg177 1.955 . S
O195 C168 1.312 . S
O195 Mg171 2.291 . S
O195 Mg174 2.114 . S
O196 C168 1.208 . S
O196 Mg176 2.031 . S
C197 O182 1.264 . S
C197 O184 1.273 1_565 S
C198 O179 1.191 1_655 S
C198 O181 1.307 . S
C199 O226 1.312 . S
C199 O227 1.208 . S
C200 O221 1.331 . S
C200 O224 1.244 . S
C201 O223 1.264 . S
C201 O225 1.273 . S
Mg202 O204 1.936 1_545 S
Mg202 O211 2.081 . S
Mg202 O213 2.023 . S
Mg202 O217 2.031 1_545 S
Mg202 O226 2.291 1_545 S
Mg203 O204 1.963 . S
Mg203 O214 1.942 . S
Mg203 O215 1.955 . S
Mg203 O222 1.986 . S
O204 Mg202 1.936 1_565 S
O204 Mg203 1.963 . S
O204 Mg205 1.915 . S
Mg205 O204 1.915 . S
Mg205 O206 1.915 . S
Mg205 O210 2.013 . S
Mg205 O216 2.114 . S
Mg205 O220 2.013 . S
Mg205 O226 2.114 . S
O206 Mg205 1.915 . S
O206 Mg207 1.936 . S
O206 Mg208 1.963 . S
Mg207 O206 1.936 . S
Mg207 O216 2.291 . S
Mg207 O221 2.081 . S
Mg207 O223 2.023 . S
Mg207 O227 2.031 . S
Mg208 O206 1.963 . S
Mg208 O212 1.986 . S
Mg208 O224 1.942 . S
Mg208 O225 1.955 . S
C209 O220 1.191 . S
C209 O222 1.307 . S
O210 Mg205 2.013 . S
O210 C229 1.191 . S
O211 Mg202 2.081 . S
O211 C219 1.331 . S
O212 Mg208 1.986 . S
O212 C229 1.307 . S
O213 Mg202 2.023 . S
O213 C228 1.264 1_545 S
O214 Mg203 1.942 . S
O214 C219 1.244 1_565 S
O215 Mg203 1.955 . S
O215 C228 1.273 . S
O216 Mg205 2.114 . S
O216 Mg207 2.291 . S
O216 C218 1.312 . S
O217 Mg202 2.031 1_565 S
O217 C218 1.208 . S
C218 O216 1.312 . S
C218 O217 1.208 . S
C219 O211 1.331 . S
C219 O214 1.244 1_545 S
O220 Mg205 2.013 . S
O220 C209 1.191 . S
O221 C200 1.331 . S
O221 Mg207 2.081 . S
O222 Mg203 1.986 . S
O222 C209 1.307 . S
O223 C201 1.264 . S
O223 Mg207 2.023 . S
O224 C200 1.244 . S
O224 Mg208 1.942 . S
O225 C201 1.273 . S
O225 Mg208 1.955 . S
O226 C199 1.312 . S
O226 Mg202 2.291 1_565 S
O226 Mg205 2.114 . S
O227 C199 1.208 . S
O227 Mg207 2.031 . S
C228 O213 1.264 1_565 S
C228 O215 1.273 . S
C229 O210 1.191 . S
C229 O212 1.307 . S
C230 O257 1.312 . S
C230 O258 1.208 . S
C231 O252 1.331 . S
C231 O255 1.244 1_565 S
C232 O254 1.264 1_545 S
C232 O256 1.273 . S
Mg233 O235 1.936 . S
Mg233 O242 2.081 . S
Mg233 O244 2.023 . S
Mg233 O248 2.031 . S
Mg233 O257 2.291 . S
Mg234 O235 1.963 . S
Mg234 O245 1.942 . S
Mg234 O246 1.955 . S
Mg234 O253 1.986 . S
O235 Mg233 1.936 . S
O235 Mg234 1.963 . S
O235 Mg236 1.915 . S
Mg236 O235 1.915 . S
Mg236 O237 1.915 . S
Mg236 O241 2.013 . S
Mg236 O247 2.114 . S
Mg236 O251 2.013 . S
Mg236 O257 2.114 . S
O237 Mg236 1.915 . S
O237 Mg238 1.936 . S
O237 Mg239 1.963 . S
Mg238 O237 1.936 . S
Mg238 O247 2.291 . S
Mg238 O252 2.081 1_545 S
Mg238 O254 2.023 1_545 S
Mg238 O258 2.031 . S
Mg239 O237 1.963 . S
Mg239 O243 1.986 . S
Mg239 O255 1.942 . S
Mg239 O256 1.955 . S
C240 O251 1.191 . S
C240 O253 1.307 . S
O241 Mg236 2.013 . S
O241 C260 1.191 . S
O242 Mg233 2.081 . S
O242 C250 1.331 . S
O243 Mg239 1.986 . S
O243 C260 1.307 . S
O244 Mg233 2.023 . S
O244 C259 1.264 . S
O245 Mg234 1.942 . S
O245 C250 1.244 . S
O246 Mg234 1.955 . S
O246 C259 1.273 . S
O247 Mg236 2.114 . S
O247 Mg238 2.291 . S
O247 C249 1.312 . S
O248 Mg233 2.031 . S
O248 C249 1.208 . S
C249 O247 1.312 . S
C249 O248 1.208 . S
C250 O242 1.331 . S
C250 O245 1.244 . S
O251 Mg236 2.013 . S
O251 C240 1.191 . S
O252 C231 1.331 . S
O252 Mg238 2.081 1_565 S
O253 Mg234 1.986 . S
O253 C240 1.307 . S
O254 C232 1.264 1_565 S
O254 Mg238 2.023 1_565 S
O255 C231 1.244 1_545 S
O255 Mg239 1.942 . S
O256 C232 1.273 . S
O256 Mg239 1.955 . S
O257 C230 1.312 . S
O257 Mg233 2.291 . S
O257 Mg236 2.114 . S
O258 C230 1.208 . S
O258 Mg238 2.031 . S
C259 O244 1.264 . S
C259 O246 1.273 . S
C260 O241 1.191 . S
C260 O243 1.307 . S
C261 O288 1.312 . S
C261 O289 1.208 . S
C262 O283 1.331 . S
C262 O286 1.244 1_545 S
C263 O285 1.264 . S
C263 O287 1.273 1_545 S
Mg264 O266 1.936 . S
Mg264 O273 2.081 1_455 S
Mg264 O275 2.023 1_455 S
Mg264 O279 2.031 . S
Mg264 O288 2.291 . S
Mg265 O266 1.963 1_655 S
Mg265 O276 1.942 . S
Mg265 O277 1.955 . S
Mg265 O284 1.986 . S
O266 Mg264 1.936 . S
O266 Mg265 1.963 1_455 S
O266 Mg267 1.915 . S
Mg267 O266 1.915 . S
Mg267 O268 1.915 . S
Mg267 O272 2.013 . S
Mg267 O278 2.114 . S
Mg267 O282 2.013 . S
Mg267 O288 2.114 . S
O268 Mg267 1.915 . S
O268 Mg269 1.936 . S
O268 Mg270 1.963 1_545 S
Mg269 O268 1.936 . S
Mg269 O278 2.291 . S
Mg269 O283 2.081 . S
Mg269 O285 2.023 . S
Mg269 O289 2.031 . S
Mg270 O268 1.963 1_565 S
Mg270 O274 1.986 1_565 S
Mg270 O286 1.942 . S
Mg270 O287 1.955 . S
C271 O282 1.191 1_655 S
C271 O284 1.307 . S
O272 Mg267 2.013 . S
O272 C291 1.191 . S
O273 Mg264 2.081 1_655 S
O273 C281 1.331 . S
O274 Mg270 1.986 1_545 S
O274 C291 1.307 . S
O275 Mg264 2.023 1_655 S
O275 C290 1.264 . S
O276 Mg265 1.942 . S
O276 C281 1.244 . S
O277 Mg265 1.955 . S
O277 C290 1.273 . S
O278 Mg267 2.114 . S
O278 Mg269 2.291 . S
O278 C280 1.312 . S
O279 Mg264 2.031 . S
O279 C280 1.208 . S
C280 O278 1.312 . S
C280 O279 1.208 . S
C281 O273 1.331 . S
C281 O276 1.244 . S
O282 Mg267 2.013 . S
O282 C271 1.191 1_455 S
O283 C262 1.331 . S
O283 Mg269 2.081 . S
O284 Mg265 1.986 . S
O284 C271 1.307 . S
O285 C263 1.264 . S
O285 Mg269 2.023 . S
O286 C262 1.244 1_565 S
O286 Mg270 1.942 . S
O287 C263 1.273 1_565 S
O287 Mg270 1.955 . S
O288 C261 1.312 . S
O288 Mg264 2.291 . S
O288 Mg267 2.114 . S
O289 C261 1.208 . S
O289 Mg269 2.031 . S
C290 O275 1.264 . S
C290 O277 1.273 . S
C291 O272 1.191 . S
C291 O274 1.307 . S
C228 C17 1.892 . S
C30 C231 2.055 . S
C61 C262 1.993 . S
C197 C72 2.148 1_565 S
C232 C19 2.149 . S
C263 C33 1.866 1_545 S
C188 C59 1.840 . S
C219 C75 1.763 . S
C12 C249 1.685 . S
C101 C218 1.650 . S
C51 C178 1.478 1_655 S
C271 C124 1.521 . S
C199 C9 1.689 . S
C103 C198 1.575 . S
C54 C291 1.627 1_655 S
C230 C122 1.717 . S
C145 C290 2.095 . S
C96 C169 1.756 . S
C166 C200 2.067 1_455 S
C114 C259 2.082 . S
C170 C143 1.948 . S
C93 C201 2.131 . S
C164 C250 1.770 1_455 S
C281 C117 1.830 . S
C135 C187 1.641 . S
C40 C280 1.613 . S
C156 C240 1.541 . S
C209 C82 1.589 . S
C261 C138 1.738 . S
C260 C38 1.636 . S
C229 C159 1.573 . S
C168 C80 1.661 . S
