# Generated by pormake.
# Topology llj, (12,3)-cn, num edge types: 1
# Building blocks:
#     Node 0, Type 0, BuildingBlock: QEWDON_clean_sbu_0, # of connection points: 12
#     Node 1, Type 0, BuildingBlock: QEWDON_clean_sbu_0, # of connection points: 12
#     Node 2, Type 1, BuildingBlock: BELTOD_clean_linker_0, # of connection points: 3
#     Node 3, Type 1, BuildingBlock: BELTOD_clean_linker_0, # of connection points: 3
#     Node 4, Type 1, BuildingBlock: BELTOD_clean_linker_0, # of connection points: 3
#     Node 5, Type 1, BuildingBlock: BELTOD_clean_linker_0, # of connection points: 3
#     Node 6, Type 1, BuildingBlock: BELTOD_clean_linker_0, # of connection points: 3
#     Node 7, Type 1, BuildingBlock: BELTOD_clean_linker_0, # of connection points: 3
#     Node 8, Type 1, BuildingBlock: BELTOD_clean_linker_0, # of connection points: 3
#     Node 9, Type 1, BuildingBlock: BELTOD_clean_linker_0, # of connection points: 3
#     Edge 10, Type (0, 1), BuildingBlock: EZIPEK_clean_linker_0, # of connection points: 2
#     Edge 11, Type (0, 1), BuildingBlock: EZIPEK_clean_linker_0, # of connection points: 2
#     Edge 12, Type (0, 1), BuildingBlock: EZIPEK_clean_linker_0, # of connection points: 2
#     Edge 13, Type (0, 1), BuildingBlock: EZIPEK_clean_linker_0, # of connection points: 2
#     Edge 14, Type (0, 1), BuildingBlock: EZIPEK_clean_linker_0, # of connection points: 2
#     Edge 15, Type (0, 1), BuildingBlock: EZIPEK_clean_linker_0, # of connection points: 2
#     Edge 16, Type (0, 1), BuildingBlock: EZIPEK_clean_linker_0, # of connection points: 2
#     Edge 17, Type (0, 1), BuildingBlock: EZIPEK_clean_linker_0, # of connection points: 2
#     Edge 18, Type (0, 1), BuildingBlock: EZIPEK_clean_linker_0, # of connection points: 2
#     Edge 19, Type (0, 1), BuildingBlock: EZIPEK_clean_linker_0, # of connection points: 2
#     Edge 20, Type (0, 1), BuildingBlock: EZIPEK_clean_linker_0, # of connection points: 2
#     Edge 21, Type (0, 1), BuildingBlock: EZIPEK_clean_linker_0, # of connection points: 2
#     Edge 22, Type (0, 1), BuildingBlock: EZIPEK_clean_linker_0, # of connection points: 2
#     Edge 23, Type (0, 1), BuildingBlock: EZIPEK_clean_linker_0, # of connection points: 2
#     Edge 24, Type (0, 1), BuildingBlock: EZIPEK_clean_linker_0, # of connection points: 2
#     Edge 25, Type (0, 1), BuildingBlock: EZIPEK_clean_linker_0, # of connection points: 2
#     Edge 26, Type (0, 1), BuildingBlock: EZIPEK_clean_linker_0, # of connection points: 2
#     Edge 27, Type (0, 1), BuildingBlock: EZIPEK_clean_linker_0, # of connection points: 2
#     Edge 28, Type (0, 1), BuildingBlock: EZIPEK_clean_linker_0, # of connection points: 2
#     Edge 29, Type (0, 1), BuildingBlock: EZIPEK_clean_linker_0, # of connection points: 2
#     Edge 30, Type (0, 1), BuildingBlock: EZIPEK_clean_linker_0, # of connection points: 2
#     Edge 31, Type (0, 1), BuildingBlock: EZIPEK_clean_linker_0, # of connection points: 2
#     Edge 32, Type (0, 1), BuildingBlock: EZIPEK_clean_linker_0, # of connection points: 2
#     Edge 33, Type (0, 1), BuildingBlock: EZIPEK_clean_linker_0, # of connection points: 2
# Relax obj value: 0.009
# Max RMSD: 0.049
# Mean RMSD: 0.045
data_MOF--net-llj--node1-QEWDON_clean_sbu_0--node2-BELTOD_clean_linker_0--edge1-EZIPEK_clean_linker_0
_symmetry_space_group_name_H-M    P1
_symmetry_Int_Tables_number       1
_symmetry_cell_setting            triclinic
loop_
_symmetry_equiv_pos_as_xyz
'x, y, z'
_cell_length_a     33.548763
_cell_length_b     33.573643
_cell_length_c     22.839113
_cell_angle_alpha  89.442479
_cell_angle_beta   90.063445
_cell_angle_gamma 90.218045
loop_
_atom_site_label
_atom_site_type_symbol
_atom_site_fract_x
_atom_site_fract_y
_atom_site_fract_z
_atom_type_partial_charge
Zn0 Zn 0.92764 0.09995 0.93876 0.0
Zn1 Zn 0.91509 0.08178 0.07764 0.0
O2 O 0.94618 0.06537 0.00637 0.0
H3 H 0.96087 0.04089 0.00201 0.0
C4 C 0.91042 0.00313 0.87363 0.0
O5 O 0.94629 0.0029 0.8965 0.0
Zn6 Zn 0.01866 0.91609 0.08398 0.0
Zn7 Zn 0.03667 0.88552 0.95328 0.0
O8 O 0.00575 0.92491 -0.00039 0.0
H9 H 0.98471 0.94179 0.98477 0.0
Zn10 Zn 0.89432 0.94549 0.969 0.0
O11 O 0.9136 0.9682 0.04632 0.0
Zn12 Zn 0.87627 0.94521 0.10658 0.0
H13 H 0.93925 0.98023 0.05411 0.0
Zn14 Zn 0.05013 0.05086 0.9392 0.0
O15 O 0.04713 0.01203 0.00635 0.0
H16 H 0.0589 0.98593 0.00307 0.0
Zn17 Zn 0.05358 0.04921 0.07322 0.0
C18 C 0.04596 0.98943 0.84781 0.0
O19 O 0.02322 0.96992 0.88506 0.0
O20 O 0.89483 0.14729 0.96602 0.0
O21 O 0.88328 0.13215 0.06011 0.0
O22 O 0.07271 0.85115 0.00473 0.0
O23 O 0.05718 0.86856 0.09623 0.0
O24 O 0.8581 0.8967 0.98006 0.0
O25 O 0.83617 0.9068 0.071 0.0
C26 C 0.98864 0.0852 0.13923 0.0
O27 O 0.09194 0.09393 0.95696 0.0
O28 O 0.09289 0.09282 0.05414 0.0
O29 O 0.01316 0.86169 0.87754 0.0
C30 C 0.87929 0.15503 0.01544 0.0
O31 O 0.96204 0.10592 0.86342 0.0
C32 C 0.94245 0.89925 0.16 0.0
O33 O 0.88309 0.98188 0.89648 0.0
C34 C 0.07697 0.84746 0.05991 0.0
O35 O 0.05897 0.02381 0.86019 0.0
C36 C 0.86305 0.02546 0.14634 0.0
O37 O 0.95224 0.09421 0.1453 0.0
O38 O -0.00034 0.06916 0.09216 0.0
C39 C 0.8356 0.88756 0.023 0.0
O40 O 0.96352 0.91372 0.11887 0.0
O41 O 0.90619 0.90973 0.16373 0.0
C42 C 0.06993 0.98221 0.14305 0.0
O43 O 0.85197 0.98958 0.1552 0.0
O44 O 0.88181 0.03385 0.09953 0.0
C45 C 0.10563 0.10627 0.00536 0.0
O46 O 0.07724 0.01917 0.13953 0.0
O47 O 0.04376 0.96773 0.109 0.0
C48 C 0.9763 0.86334 0.8651 0.0
O49 O 0.9516 0.88178 0.90015 0.0
C50 C 0.97025 0.13989 0.8413 0.0
O51 O 0.95745 0.17221 0.86711 0.0
Zn52 Zn 0.43432 0.60977 0.43298 0.0
Zn53 Zn 0.43269 0.5921 0.57318 0.0
O54 O 0.46049 0.57842 0.49814 0.0
H55 H 0.47779 0.55592 0.49196 0.0
C56 C 0.4029 0.52546 0.36198 0.0
O57 O 0.43795 0.51972 0.38619 0.0
Zn58 Zn 0.5492 0.42143 0.60333 0.0
Zn59 Zn 0.55461 0.39248 0.47097 0.0
O60 O 0.51905 0.41943 0.52856 0.0
H61 H 0.4958 0.43488 0.51836 0.0
Zn62 Zn 0.37812 0.47493 0.45981 0.0
O63 O 0.42211 0.48427 0.51803 0.0
Zn64 Zn 0.40593 0.45197 0.58812 0.0
H65 H 0.44919 0.49151 0.50828 0.0
Zn66 Zn 0.57076 0.53851 0.42159 0.0
O67 O 0.55535 0.51703 0.50116 0.0
H68 H 0.53342 0.49877 0.50723 0.0
Zn69 Zn 0.57137 0.5596 0.55594 0.0
C70 C 0.56438 0.4622 0.35739 0.0
O71 O 0.53303 0.45481 0.39012 0.0
O72 O 0.39878 0.65395 0.46401 0.0
O73 O 0.39437 0.63873 0.55949 0.0
O74 O 0.60275 0.36492 0.50846 0.0
O75 O 0.59795 0.38458 0.60141 0.0
O76 O 0.34687 0.42337 0.47237 0.0
O77 O 0.36694 0.40712 0.56286 0.0
C78 C 0.51026 0.59991 0.62508 0.0
O79 O 0.61336 0.58298 0.42447 0.0
O80 O 0.61426 0.59479 0.52012 0.0
O81 O 0.52777 0.36919 0.39773 0.0
C82 C 0.38533 0.66049 0.51513 0.0
O83 O 0.4632 0.61688 0.35301 0.0
C84 C 0.47243 0.41058 0.66262 0.0
O85 O 0.37224 0.5093 0.38466 0.0
C86 C 0.61545 0.36513 0.56103 0.0
O87 O 0.58358 0.4946 0.36293 0.0
C88 C 0.38717 0.52712 0.64358 0.0
O89 O 0.47375 0.60751 0.63462 0.0
O90 O 0.52021 0.58651 0.57565 0.0
C91 C 0.34628 0.40011 0.51673 0.0
O92 O 0.50979 0.4041 0.66634 0.0
O93 O 0.45906 0.43034 0.61893 0.0
C94 C 0.59276 0.49874 0.63889 0.0
O95 O 0.38074 0.4897 0.6477 0.0
O96 O 0.40661 0.54017 0.59952 0.0
C97 C 0.62826 0.60033 0.46878 0.0
O98 O 0.59722 0.53539 0.62669 0.0
O99 O 0.56747 0.47877 0.60958 0.0
C100 C 0.49029 0.36373 0.39844 0.0
O101 O 0.46997 0.37111 0.44622 0.0
C102 C 0.50045 0.61058 0.35155 0.0
O103 O 0.51917 0.60022 0.39982 0.0
P104 P 0.37954 0.24592 0.01574 0.0
H105 H 0.35005 0.24037 0.13643 0.0
H106 H 0.37344 0.27026 0.22755 0.0
H107 H 0.46023 0.33931 0.13097 0.0
H108 H 0.43748 0.30888 0.03954 0.0
H109 H 0.34537 0.17485 0.0691 0.0
H110 H 0.27796 0.14647 0.06863 0.0
H111 H 0.23615 0.24693 0.96709 0.0
H112 H 0.30306 0.27591 0.96874 0.0
H113 H 0.41738 0.23062 0.90319 0.0
H114 H 0.35642 0.32774 0.98663 0.0
O115 O 0.41062 0.2073 0.01273 0.0
H116 H 0.43056 0.27318 0.81765 0.0
H117 H 0.36809 0.36986 0.89965 0.0
C118 C 0.39146 0.273 0.08092 0.0
C119 C 0.37348 0.26253 0.13436 0.0
C120 C 0.38677 0.27951 0.1864 0.0
C121 C 0.41823 0.30706 0.18551 0.0
C122 C 0.43556 0.31839 0.13205 0.0
C123 C 0.42249 0.30113 0.08006 0.0
C124 C 0.32944 0.22705 0.01801 0.0
C125 C 0.32166 0.19099 0.04721 0.0
C126 C 0.2833 0.17496 0.04732 0.0
C127 C 0.25237 0.19475 0.01782 0.0
C128 C 0.25977 0.23148 0.99026 0.0
C129 C 0.29809 0.24777 0.99086 0.0
C130 C 0.38662 0.27637 0.9515 0.0
C131 C 0.40649 0.26093 0.90288 0.0
C132 C 0.41366 0.28501 0.85391 0.0
C133 C 0.40037 0.32457 0.85264 0.0
C134 C 0.37854 0.33937 0.90004 0.0
C135 C 0.37215 0.3155 0.94957 0.0
P136 P 0.74477 0.43185 0.01866 0.0
H137 H 0.72011 0.48583 0.11153 0.0
H138 H 0.67053 0.47925 0.18989 0.0
H139 H 0.63507 0.36454 0.1238 0.0
H140 H 0.68403 0.37142 0.0445 0.0
H141 H 0.81 0.40025 0.0891 0.0
H142 H 0.84108 0.33415 0.0948 0.0
H143 H 0.76273 0.29265 0.95829 0.0
H144 H 0.73057 0.35786 0.95442 0.0
H145 H 0.67405 0.47653 0.9834 0.0
H146 H 0.77033 0.4146 0.89872 0.0
O147 O 0.7775 0.46745 0.03568 0.0
H148 H 0.64283 0.48865 0.88807 0.0
H149 H 0.73794 0.42509 0.8034 0.0
C150 C 0.70632 0.42872 0.07314 0.0
C151 C 0.70156 0.45939 0.11357 0.0
C152 C 0.6733 0.45569 0.15807 0.0
C153 C 0.64948 0.42133 0.16246 0.0
C154 C 0.65329 0.39119 0.12089 0.0
C155 C 0.68134 0.39509 0.07603 0.0
C156 C 0.76926 0.38441 0.01951 0.0
C157 C 0.79981 0.37703 0.06004 0.0
C158 C 0.81727 0.3394 0.06363 0.0
C159 C 0.80439 0.30888 0.02646 0.0
C160 C 0.77324 0.31604 0.98686 0.0
C161 C 0.75536 0.3534 0.98408 0.0
C162 C 0.72362 0.44324 0.94825 0.0
C163 C 0.68835 0.46531 0.94445 0.0
C164 C 0.67062 0.47234 0.89012 0.0
C165 C 0.68796 0.45741 0.83892 0.0
C166 C 0.72411 0.43669 0.8425 0.0
C167 C 0.74231 0.43047 0.89683 0.0
P168 P 0.6886 0.61637 0.9927 0.0
H169 H 0.68973 0.55777 0.89807 0.0
H170 H 0.65122 0.55272 0.80665 0.0
H171 H 0.5943 0.66457 0.84369 0.0
H172 H 0.63211 0.66942 0.93511 0.0
H173 H 0.76929 0.64278 0.96263 0.0
H174 H 0.80266 0.70799 0.96857 0.0
H175 H 0.69466 0.75972 0.03557 0.0
H176 H 0.66128 0.69486 0.02953 0.0
H177 H 0.60428 0.59084 -0.00058 0.0
H178 H 0.69614 0.63192 0.11713 0.0
O179 O 0.72201 0.57987 -0.00104 0.0
H180 H 0.55633 0.58996 0.08054 0.0
H181 H 0.64803 0.63101 0.19804 0.0
C182 C 0.66374 0.61399 0.92317 0.0
C183 C 0.66927 0.58135 0.88624 0.0
C184 C 0.64758 0.57854 0.83413 0.0
C185 C 0.62029 0.60842 0.81869 0.0
C186 C 0.61554 0.64149 0.8549 0.0
C187 C 0.63709 0.64421 0.90693 0.0
C188 C 0.71318 0.66388 -0.0031 0.0
C189 C 0.75286 0.66811 0.97876 0.0
C190 C 0.77178 0.70518 0.98187 0.0
C191 C 0.751 0.73837 0.00267 0.0
C192 C 0.71105 0.73432 0.01954 0.0
C193 C 0.69218 0.69732 0.01635 0.0
C194 C 0.65362 0.61218 0.05214 0.0
C195 C 0.61417 0.59976 0.04247 0.0
C196 C 0.58678 0.59929 0.08858 0.0
C197 C 0.5987 0.61103 0.14473 0.0
C198 C 0.63835 0.62236 0.1547 0.0
C199 C 0.66571 0.62269 0.10872 0.0
P200 P 0.33902 0.7056 0.00439 0.0
H201 H 0.40309 0.69674 0.92016 0.0
H202 H 0.41013 0.65656 0.83175 0.0
H203 H 0.28857 0.61627 0.8499 0.0
H204 H 0.28139 0.65674 0.93865 0.0
H205 H 0.28467 0.76082 0.9472 0.0
H206 H 0.21997 0.78846 0.97585 0.0
H207 H 0.21936 0.71375 0.13039 0.0
H208 H 0.284 0.68613 0.10219 0.0
H209 H 0.38677 0.72196 0.10861 0.0
H210 H 0.33194 0.61991 0.0275 0.0
O211 O 0.36757 0.74633 -0.00037 0.0
H212 H 0.40647 0.68017 0.19255 0.0
H213 H 0.35144 0.5783 0.1116 0.0
C214 C 0.34154 0.6802 0.93537 0.0
C215 C 0.37761 0.68004 0.90445 0.0
C216 C 0.38165 0.65721 0.85403 0.0
C217 C 0.34973 0.63391 0.83402 0.0
C218 C 0.3133 0.63459 0.86424 0.0
C219 C 0.30926 0.65757 0.9148 0.0
C220 C 0.28925 0.72147 0.02236 0.0
C221 C 0.27044 0.75 0.98684 0.0
C222 C 0.23366 0.76579 0.00322 0.0
C223 C 0.21512 0.75315 0.05526 0.0
C224 C 0.2333 0.72377 0.09009 0.0
C225 C 0.2702 0.70804 0.07377 0.0
C226 C 0.35849 0.67386 0.06144 0.0
C227 C 0.37972 0.69047 0.10824 0.0
C228 C 0.39089 0.66675 0.1561 0.0
C229 C 0.38042 0.62626 0.15796 0.0
C230 C 0.35997 0.60945 0.11057 0.0
C231 C 0.34895 0.63316 0.06265 0.0
P232 P 0.91909 0.7008 0.49155 0.0
H233 H 0.95955 0.68526 0.60335 0.0
H234 H 0.96929 0.72617 0.69075 0.0
H235 H 0.90199 0.82119 0.61012 0.0
H236 H 0.8925 0.78044 0.52233 0.0
H237 H 0.87263 0.6316 0.52868 0.0
H238 H 0.80181 0.61453 0.52025 0.0
H239 H 0.77929 0.72739 0.43491 0.0
H240 H 0.85011 0.74513 0.44516 0.0
H241 H 0.9854 0.75679 0.4767 0.0
H242 H 0.89435 0.70423 0.36808 0.0
O243 O 0.94537 0.65882 0.49683 0.0
H244 H 0.00418 0.80173 0.39581 0.0
H245 H 0.91205 0.75021 0.28826 0.0
C246 C 0.92548 0.72998 0.55641 0.0
C247 C 0.94685 0.71483 0.6044 0.0
C248 C 0.95235 0.73806 0.65419 0.0
C249 C 0.93642 0.7766 0.65652 0.0
C250 C 0.91449 0.79151 0.60887 0.0
C251 C 0.9091 0.7683 0.55903 0.0
C252 C 0.86683 0.689 0.48572 0.0
C253 C 0.85255 0.65273 0.50822 0.0
C254 C 0.81216 0.64311 0.50375 0.0
C255 C 0.78543 0.66966 0.47677 0.0
C256 C 0.79948 0.70656 0.45587 0.0
C257 C 0.83988 0.71644 0.46123 0.0
C258 C 0.93708 0.72871 0.42926 0.0
C259 C 0.96963 0.75473 0.43544 0.0
C260 C 0.98061 0.78007 0.38927 0.0
C261 C 0.95887 0.77975 0.33673 0.0
C262 C 0.9288 0.75116 0.32882 0.0
C263 C 0.91835 0.72535 0.37462 0.0
P264 P 0.22988 0.92467 0.50985 0.0
H265 H 0.22691 0.9713 0.61697 0.0
H266 H 0.17488 0.97984 0.691 0.0
H267 H 0.09842 0.89841 0.5981 0.0
H268 H 0.15087 0.88931 0.5241 0.0
H269 H 0.29809 0.9001 0.58025 0.0
H270 H 0.3327 0.83617 0.59131 0.0
H271 H 0.24649 0.7811 0.47707 0.0
H272 H 0.21019 0.84408 0.46997 0.0
H273 H 0.16392 0.97292 0.46714 0.0
H274 H 0.24718 0.88873 0.3952 0.0
O275 O 0.26402 0.96069 0.51576 0.0
H276 H 0.12956 0.97671 0.37281 0.0
H277 H 0.21151 0.89132 0.30128 0.0
C278 C 0.19237 0.93014 0.56488 0.0
C279 C 0.19904 0.95526 0.61244 0.0
C280 C 0.16946 0.96013 0.65453 0.0
C281 C 0.13301 0.93988 0.64944 0.0
C282 C 0.12642 0.91433 0.60225 0.0
C283 C 0.15622 0.90919 0.56037 0.0
C284 C 0.25294 0.87716 0.52168 0.0
C285 C 0.28645 0.87416 0.55808 0.0
C286 C 0.30602 0.83777 0.56463 0.0
C287 C 0.29267 0.80426 0.5338 0.0
C288 C 0.25758 0.80678 0.50048 0.0
C289 C 0.23725 0.84282 0.49575 0.0
C290 C 0.20691 0.92907 0.43898 0.0
C291 C 0.17451 0.95484 0.4314 0.0
C292 C 0.1549 0.95702 0.37772 0.0
C293 C 0.16768 0.9337 0.3308 0.0
C294 C 0.20102 0.90902 0.33751 0.0
C295 C 0.22111 0.90741 0.39109 0.0
P296 P 0.17064 0.14412 0.49411 0.0
H297 H 0.17494 0.08073 0.40665 0.0
H298 H 0.13451 0.06669 0.31962 0.0
H299 H 0.06956 0.1758 0.34542 0.0
H300 H 0.11091 0.1905 0.43142 0.0
H301 H 0.24432 0.16752 0.4355 0.0
H302 H 0.28514 0.22842 0.43812 0.0
H303 H 0.19923 0.28251 0.55281 0.0
H304 H 0.15678 0.22362 0.54534 0.0
H305 H 0.08693 0.11629 0.50142 0.0
H306 H 0.17535 0.16654 0.61708 0.0
O307 O 0.20275 0.10711 0.50625 0.0
H308 H 0.03804 0.11687 0.58089 0.0
H309 H 0.12584 0.16856 0.6957 0.0
C310 C 0.14588 0.13673 0.42523 0.0
C311 C 0.15262 0.10208 0.39293 0.0
C312 C 0.12949 0.09395 0.3435 0.0
C313 C 0.09886 0.12005 0.32659 0.0
C314 C 0.093 0.1553 0.35795 0.0
C315 C 0.11662 0.16375 0.4067 0.0
C316 C 0.19827 0.19034 0.49208 0.0
C317 C 0.23407 0.19269 0.46063 0.0
C318 C 0.25742 0.22729 0.46235 0.0
C319 C 0.24574 0.25969 0.49684 0.0
C320 C 0.20918 0.25769 0.52668 0.0
C321 C 0.18514 0.22376 0.52294 0.0
C322 C 0.13446 0.1431 0.55252 0.0
C323 C 0.09574 0.12826 0.5433 0.0
C324 C 0.06772 0.12857 0.58855 0.0
C325 C 0.07809 0.14376 0.64349 0.0
C326 C 0.11709 0.15755 0.65312 0.0
C327 C 0.14527 0.15638 0.60833 0.0
P328 P 0.86887 0.19592 0.52179 0.0
H329 H 0.80399 0.15248 0.46481 0.0
H330 H 0.80008 0.11627 0.37181 0.0
H331 H 0.92094 0.15109 0.33196 0.0
H332 H 0.9249 0.18725 0.42464 0.0
H333 H 0.81538 0.24242 0.44681 0.0
H334 H 0.75654 0.28306 0.46751 0.0
H335 H 0.76953 0.25778 0.65195 0.0
H336 H 0.829 0.21775 0.63157 0.0
H337 H 0.94002 0.16218 0.57739 0.0
H338 H 0.8129 0.14271 0.58298 0.0
O339 O 0.90851 0.22609 0.52224 0.0
H340 H 0.94894 0.11261 0.6561 0.0
H341 H 0.82184 0.09403 0.66293 0.0
C342 C 0.86457 0.17287 0.45121 0.0
C343 C 0.82936 0.15294 0.43554 0.0
C344 C 0.82703 0.13253 0.3825 0.0
C345 C 0.86003 0.13159 0.34485 0.0
C346 C 0.89499 0.15212 0.3601 0.0
C347 C 0.89727 0.17254 0.41304 0.0
C348 C 0.82566 0.22578 0.53739 0.0
C349 C 0.80555 0.24538 0.49169 0.0
C350 C 0.7722 0.26876 0.50346 0.0
C351 C 0.75874 0.27313 0.56116 0.0
C352 C 0.77948 0.25452 0.60715 0.0
C353 C 0.81312 0.23143 0.59538 0.0
C354 C 0.87566 0.15719 0.57602 0.0
C355 C 0.91406 0.14739 0.59563 0.0
C356 C 0.91919 0.11919 0.64045 0.0
C357 C 0.88597 0.10063 0.66632 0.0
C358 C 0.84776 0.10856 0.64406 0.0
C359 C 0.84268 0.13644 0.5988 0.0
C360 C 0.14224 0.16865 0.03228 0.0
C361 C 0.14191 0.13106 0.00471 0.0
C362 C 0.21139 0.14017 0.97572 0.0
C363 C 0.21343 0.17468 0.01077 0.0
N364 N 0.18223 0.21992 0.07806 0.0
N365 N 0.17851 0.07723 0.95999 0.0
C366 C 0.17919 0.18862 0.04052 0.0
C367 C 0.17704 0.11579 0.97873 0.0
N368 N 0.10718 0.18571 0.04879 0.0
N369 N 0.242 0.13103 0.93878 0.0
H370 H 0.15461 0.05741 0.96327 0.0
H371 H 0.2048 0.06362 0.94666 0.0
H372 H 0.2676 0.14858 0.93464 0.0
H373 H 0.24018 0.1084 0.90798 0.0
H374 H 0.10516 0.21468 0.06439 0.0
H375 H 0.07962 0.17214 0.04144 0.0
H376 H 0.15917 0.22859 0.1056 0.0
H377 H 0.20886 0.2353 0.08506 0.0
C378 C 0.88348 0.22902 0.01235 0.0
C379 C 0.86034 0.19419 0.02248 0.0
C380 C 0.80257 0.23518 0.04576 0.0
C381 C 0.82418 0.26956 0.02758 0.0
N382 N 0.88313 0.29836 0.98318 0.0
N383 N 0.79629 0.16347 0.0395 0.0
C384 C 0.86415 0.26633 0.00814 0.0
C385 C 0.81943 0.197 0.03699 0.0
N386 N 0.92408 0.22664 0.0084 0.0
N387 N 0.76639 0.23907 0.07249 0.0
H388 H 0.80756 0.13508 0.03192 0.0
H389 H 0.7654 0.16416 0.04402 0.0
H390 H 0.75338 0.26668 0.08037 0.0
H391 H 0.75116 0.21523 0.09173 0.0
H392 H 0.9426 0.25161 0.00695 0.0
H393 H 0.9396 0.19989 0.01264 0.0
H394 H 0.91073 0.29631 0.96259 0.0
H395 H 0.8698 0.32617 0.97793 0.0
C396 C 0.82189 0.81799 0.05757 0.0
C397 C 0.81214 0.85035 0.01972 0.0
C398 C 0.76419 0.80831 0.96773 0.0
C399 C 0.77153 0.7772 0.00879 0.0
N400 N 0.80135 0.75466 0.09934 0.0
N401 N 0.77007 0.87881 0.9448 0.0
C402 C 0.79856 0.78274 0.05576 0.0
C403 C 0.78213 0.84623 0.97642 0.0
N404 N 0.85477 0.81999 0.09296 0.0
N405 N 0.74112 0.80121 0.91954 0.0
H406 H 0.78248 0.90706 0.9504 0.0
H407 H 0.74557 0.87866 0.91678 0.0
H408 H 0.7273 0.77385 0.91197 0.0
H409 H 0.73818 0.82131 0.88481 0.0
H410 H 0.86576 0.79564 0.11645 0.0
H411 H 0.8735 0.84479 0.09475 0.0
H412 H 0.81728 0.75914 0.13792 0.0
H413 H 0.78489 0.72823 0.09945 0.0
C414 C 0.10505 0.7791 0.06364 0.0
C415 C 0.10838 0.81956 0.08008 0.0
C416 C 0.17926 0.80972 0.10192 0.0
C417 C 0.17741 0.77238 0.07367 0.0
N418 N 0.13891 0.71973 0.03012 0.0
N419 N 0.14846 0.87404 0.11545 0.0
C420 C 0.14022 0.75614 0.0563 0.0
C421 C 0.14522 0.8348 0.10102 0.0
N422 N 0.06809 0.76312 0.05448 0.0
N423 N 0.21379 0.82131 0.12871 0.0
H424 H 0.12413 0.89314 0.11565 0.0
H425 H 0.17546 0.88824 0.12391 0.0
H426 H 0.23933 0.80366 0.12922 0.0
H427 H 0.21606 0.84647 0.15484 0.0
H428 H 0.06295 0.73302 0.04683 0.0
H429 H 0.04213 0.77971 0.05991 0.0
H430 H 0.11353 0.70809 0.01028 0.0
H431 H 0.16401 0.70172 0.02591 0.0
C432 C 0.67227 0.65919 0.49061 0.0
C433 C 0.66675 0.622 0.46261 0.0
C434 C 0.73622 0.62417 0.42991 0.0
C435 C 0.74349 0.65691 0.46701 0.0
N436 N 0.71901 0.70392 0.5376 0.0
N437 N 0.6972 0.56476 0.41626 0.0
C438 C 0.7116 0.67432 0.4984 0.0
C439 C 0.69954 0.60343 0.43437 0.0
N440 N 0.63992 0.6803 0.50882 0.0
N441 N 0.76453 0.61267 0.39062 0.0
H442 H 0.67241 0.54653 0.42273 0.0
H443 H 0.7218 0.54913 0.40093 0.0
H444 H 0.79172 0.62755 0.38579 0.0
H445 H 0.75919 0.59124 0.3588 0.0
H446 H 0.6419 0.70913 0.52504 0.0
H447 H 0.61073 0.67049 0.50206 0.0
H448 H 0.69754 0.71456 0.56636 0.0
H449 H 0.74739 0.71571 0.54461 0.0
C450 C 0.32131 0.69488 0.53971 0.0
C451 C 0.36197 0.69706 0.52364 0.0
C452 C 0.3562 0.76893 0.50903 0.0
C453 C 0.31701 0.76746 0.53247 0.0
N454 N 0.26544 0.72965 0.58189 0.0
N455 N 0.42062 0.73715 0.50499 0.0
C456 C 0.30048 0.73058 0.55153 0.0
C457 C 0.38024 0.73443 0.51214 0.0
N458 N 0.30194 0.65908 0.54026 0.0
N459 N 0.36978 0.80239 0.48074 0.0
H460 H 0.43944 0.71253 0.50768 0.0
H461 H 0.43571 0.76429 0.50223 0.0
H462 H 0.35247 0.82779 0.47437 0.0
H463 H 0.39667 0.80335 0.45797 0.0
H464 H 0.27125 0.65637 0.54624 0.0
H465 H 0.316 0.63256 0.52903 0.0
H466 H 0.25413 0.70373 0.60121 0.0
H467 H 0.24986 0.75537 0.59273 0.0
C468 C 0.27946 0.36829 0.50005 0.0
C469 C 0.32051 0.36417 0.51383 0.0
C470 C 0.31143 0.29208 0.52315 0.0
C471 C 0.27171 0.29568 0.50206 0.0
N472 N 0.22159 0.33726 0.4565 0.0
N473 N 0.37752 0.3208 0.521 0.0
C474 C 0.25669 0.33385 0.48651 0.0
C475 C 0.33715 0.32568 0.52057 0.0
N476 N 0.26185 0.40491 0.50133 0.0
N477 N 0.32436 0.25715 0.5476 0.0
H478 H 0.39739 0.34455 0.51592 0.0
H479 H 0.39098 0.29287 0.52028 0.0
H480 H 0.30599 0.23226 0.55297 0.0
H481 H 0.35199 0.25449 0.56817 0.0
H482 H 0.23119 0.40888 0.49703 0.0
H483 H 0.27723 0.43077 0.5127 0.0
H484 H 0.21133 0.36424 0.43941 0.0
H485 H 0.20495 0.31269 0.44307 0.0
C486 C 0.6487 0.29923 0.57024 0.0
C487 C 0.65127 0.34123 0.57463 0.0
C488 C 0.72387 0.33693 0.58589 0.0
C489 C 0.72165 0.29578 0.57243 0.0
N490 N 0.68277 0.23702 0.55175 0.0
N491 N 0.69035 0.40098 0.5866 0.0
C492 C 0.68422 0.27661 0.56526 0.0
C493 C 0.68856 0.36034 0.58356 0.0
N494 N 0.61213 0.28112 0.57182 0.0
N495 N 0.75977 0.35347 0.60057 0.0
H496 H 0.66503 0.41891 0.58646 0.0
H497 H 0.71679 0.41727 0.58634 0.0
H498 H 0.78627 0.33733 0.60101 0.0
H499 H 0.76304 0.38224 0.61646 0.0
H500 H 0.60802 0.25041 0.57421 0.0
H501 H 0.58565 0.29706 0.5761 0.0
H502 H 0.65693 0.22231 0.53874 0.0
H503 H 0.70804 0.21902 0.55063 0.0
C504 C 0.02166 0.0661 0.23352 0.0
C505 C 0.01775 0.09326 0.18611 0.0
C506 C 0.07149 0.13426 0.22615 0.0
C507 C 0.07183 0.10993 0.2773 0.0
N508 N 0.04201 0.05655 0.33428 0.0
N509 N 0.03443 0.15629 0.14089 0.0
C510 C 0.04555 0.07677 0.28229 0.0
C511 C 0.04141 0.12824 0.18336 0.0
N512 N 0.00347 0.02969 0.23125 0.0
N513 N 0.10073 0.16215 0.21743 0.0
H514 H 0.01333 0.15249 0.10777 0.0
H515 H 0.04727 0.18458 0.14141 0.0
H516 H 0.12381 0.16682 0.24726 0.0
H517 H 0.10424 0.17791 0.17825 0.0
H518 H 0.00843 0.00716 0.26204 0.0
H519 H 0.98639 0.02069 0.19551 0.0
H520 H 0.02031 0.03485 0.34195 0.0
H521 H 0.05818 0.06398 0.37166 0.0
C522 C 0.88403 0.04407 0.2475 0.0
C523 C 0.86248 0.05379 0.19585 0.0
C524 C 0.8416 0.11673 0.24003 0.0
C525 C 0.86 0.10488 0.29341 0.0
N526 N 0.89231 0.05401 0.35157 0.0
N527 N 0.81596 0.09643 0.14541 0.0
C528 C 0.8793 0.06755 0.2982 0.0
C529 C 0.84004 0.08945 0.1926 0.0
N530 N 0.91057 0.01337 0.24737 0.0
N531 N 0.82651 0.1543 0.23424 0.0
H532 H 0.81455 0.07732 0.10971 0.0
H533 H 0.79514 0.11933 0.14389 0.0
H534 H 0.82661 0.17468 0.26845 0.0
H535 H 0.81667 0.16621 0.19452 0.0
H536 H 0.93007 0.00761 0.28188 0.0
H537 H 0.91623 0.99643 0.21031 0.0
H538 H 0.90232 0.02505 0.35887 0.0
H539 H 0.88975 0.07041 0.38993 0.0
C540 C 0.95132 0.88168 0.26454 0.0
C541 C 0.95844 0.87184 0.20539 0.0
C542 C 0.97807 0.80465 0.2364 0.0
C543 C 0.96331 0.81258 0.29329 0.0
N544 N 0.9309 0.85792 0.35982 0.0
N545 N 0.97658 0.82291 0.1335 0.0
C546 C 0.94905 0.85106 0.30727 0.0
C547 C 0.97207 0.83324 0.1908 0.0
N548 N 0.94705 0.92063 0.27967 0.0
N549 N -0.00231 0.76985 0.22613 0.0
H550 H 0.97299 0.84303 0.09889 0.0
H551 H 0.98134 0.79375 0.12015 0.0
H552 H 0.00236 0.74845 0.25885 0.0
H553 H 0.01238 0.76397 0.187 0.0
H554 H 0.94504 0.93021 0.32282 0.0
H555 H 0.95115 0.9435 0.24912 0.0
H556 H 0.91607 0.88431 0.36914 0.0
H557 H 0.92729 0.83621 0.3923 0.0
C558 C 0.07989 0.93525 0.22849 0.0
C559 C 0.09577 0.95783 0.18135 0.0
C560 C 0.16179 0.95731 0.22669 0.0
C561 C 0.14561 0.93589 0.27485 0.0
N562 N 0.0936 0.8936 0.31348 0.0
N563 N 0.1535 0.97741 0.12534 0.0
C564 C 0.10605 0.92101 0.27276 0.0
C565 C 0.13743 0.96442 0.1771 0.0
N566 N 0.03976 0.92999 0.23354 0.0
N567 N 0.19934 0.97311 0.22965 0.0
H568 H 0.1362 0.98175 0.08779 0.0
H569 H 0.18408 0.9795 0.11797 0.0
H570 H 0.21828 0.9687 0.2653 0.0
H571 H 0.21066 0.99298 0.1985 0.0
H572 H 0.02655 0.91873 0.27143 0.0
H573 H 0.01965 0.93953 0.20166 0.0
H574 H 0.06624 0.87891 0.31114 0.0
H575 H 0.11238 0.88274 0.34638 0.0
C576 C 0.05335 0.98999 0.73947 0.0
C577 C 0.0603 0.97056 0.79391 0.0
C578 C 0.10312 0.92204 0.74579 0.0
C579 C 0.10218 0.94596 0.69451 0.0
N580 N 0.07638 0.00211 0.64024 0.0
N581 N 0.09394 0.91952 0.85069 0.0
C582 C 0.07672 0.97945 0.6903 0.0
C583 C 0.08508 0.93639 0.79752 0.0
N584 N 0.02444 0.01847 0.73512 0.0
N585 N 0.12188 0.88599 0.74514 0.0
H586 H 0.08229 0.9295 0.89013 0.0
H587 H 0.11541 0.89752 0.85647 0.0
H588 H 0.13606 0.8751 0.70798 0.0
H589 H 0.12014 0.86535 0.7794 0.0
H590 H 0.01531 0.03125 0.69564 0.0
H591 H 0.00722 0.02713 0.7708 0.0
H592 H 0.06233 0.02963 0.63676 0.0
H593 H 0.09187 0.99411 0.60257 0.0
C594 C 0.98749 0.16526 0.73961 0.0
C595 C -0.00225 0.14285 0.79051 0.0
C596 C 0.05746 0.11814 0.74172 0.0
C597 C 0.0492 0.14274 0.69265 0.0
N598 N 0.01024 0.19523 0.64825 0.0
N599 N 0.04942 0.10994 0.84561 0.0
C600 C 0.01526 0.16796 0.69244 0.0
C601 C 0.0346 0.12253 0.79311 0.0
N602 N 0.95097 0.18297 0.73556 0.0
N603 N 0.08673 0.08997 0.73909 0.0
H604 H 0.03461 0.11439 0.88511 0.0
H605 H 0.0786 0.09989 0.8501 0.0
H606 H 0.10334 0.08469 0.70139 0.0
H607 H 0.09172 0.06915 0.77238 0.0
H608 H 0.94035 0.19674 0.69765 0.0
H609 H 0.92976 0.18132 0.76876 0.0
H610 H 0.98838 0.21715 0.64854 0.0
H611 H 0.03 0.19807 0.61323 0.0
C612 C 0.88094 0.06303 0.8242 0.0
C613 C 0.90235 0.02687 0.82003 0.0
C614 C 0.90885 0.03658 0.71371 0.0
C615 C 0.89105 0.07469 0.71899 0.0
N616 N 0.86574 0.12708 0.78024 0.0
N617 N 0.93817 0.97903 0.76248 0.0
C618 C 0.8784 0.08863 0.77448 0.0
C619 C 0.91684 0.01362 0.76518 0.0
N620 N 0.86275 0.0728 0.87563 0.0
N621 N 0.9168 0.0219 0.65931 0.0
H622 H 0.94277 0.96044 0.7987 0.0
H623 H 0.95318 0.9696 0.7253 0.0
H624 H 0.91103 0.03784 0.62081 0.0
H625 H 0.92626 0.99295 0.65167 0.0
H626 H 0.84294 0.09643 0.87955 0.0
H627 H 0.8652 0.05563 0.91376 0.0
H628 H 0.86084 0.14044 0.82053 0.0
H629 H 0.86355 0.14701 0.7451 0.0
C630 C 0.97782 0.85685 0.75638 0.0
C631 C 0.96174 0.84435 0.81093 0.0
C632 C 0.92274 0.79275 0.76154 0.0
C633 C 0.94343 0.8015 0.70879 0.0
N634 N 0.99405 0.83898 0.65686 0.0
N635 N 0.92179 0.79787 0.86726 0.0
C636 C 0.97177 0.83294 0.70628 0.0
C637 C 0.9346 0.81186 0.81405 0.0
N638 N -0.00217 0.89227 0.75225 0.0
N639 N 0.8914 0.76661 0.76115 0.0
H640 H 0.92984 0.81086 0.90684 0.0
H641 H 0.90568 0.77152 0.87259 0.0
H642 H 0.88203 0.75199 0.72341 0.0
H643 H 0.87252 0.76211 0.79679 0.0
H644 H 0.00708 0.90492 0.71269 0.0
H645 H 0.00139 0.91106 0.78795 0.0
H646 H 0.01825 0.85848 0.65492 0.0
H647 H 0.99048 0.82218 0.61903 0.0
C648 C 0.53407 0.57565 0.72268 0.0
C649 C 0.53957 0.60098 0.67334 0.0
C650 C 0.60241 0.6253 0.71481 0.0
C651 C 0.59402 0.60384 0.76715 0.0
N652 N 0.54972 0.56218 0.82441 0.0
N653 N 0.57671 0.65291 0.62389 0.0
C654 C 0.55928 0.57992 0.77206 0.0
C655 C 0.57332 0.62647 0.66952 0.0
N656 N 0.50601 0.54614 0.72128 0.0
N657 N 0.63845 0.64391 0.70816 0.0
H658 H 0.55602 0.65457 0.58984 0.0
H659 H 0.59824 0.6753 0.62207 0.0
H660 H 0.66023 0.64379 0.74082 0.0
H661 H 0.64809 0.6565 0.66878 0.0
H662 H 0.50367 0.52438 0.75376 0.0
H663 H 0.48784 0.54091 0.68505 0.0
H664 H 0.52231 0.54857 0.83258 0.0
H665 H 0.56788 0.56369 0.86142 0.0
C666 C 0.349 0.58565 0.68301 0.0
C667 C 0.37595 0.55383 0.6926 0.0
C668 C 0.3784 0.57024 0.79718 0.0
C669 C 0.35637 0.60536 0.78563 0.0
N670 N 0.32346 0.6489 0.71651 0.0
N671 N 0.41946 0.51795 0.75827 0.0
C672 C 0.34225 0.61369 0.72828 0.0
C673 C 0.39128 0.54654 0.74969 0.0
N674 N 0.32797 0.5878 0.63196 0.0
N675 N 0.38626 0.55903 0.85377 0.0
H676 H 0.42992 0.5003 0.72449 0.0
H677 H 0.43514 0.51444 0.79732 0.0
H678 H 0.37738 0.57567 0.8898 0.0
H679 H 0.39821 0.53147 0.86538 0.0
H680 H 0.30327 0.60622 0.62699 0.0
H681 H 0.33228 0.56815 0.59745 0.0
H682 H 0.31648 0.65842 0.67416 0.0
H683 H 0.31743 0.66985 0.74872 0.0
C684 C 0.45361 0.40656 0.76786 0.0
C685 C 0.44612 0.39474 0.70957 0.0
C686 C 0.39962 0.34392 0.74618 0.0
C687 C 0.41295 0.35128 0.80404 0.0
N688 N 0.45802 0.38594 0.86905 0.0
N689 N 0.41551 0.34841 0.64309 0.0
C690 C 0.4411 0.38191 0.81488 0.0
C691 C 0.41954 0.36277 0.69844 0.0
N692 N 0.47264 0.44164 0.7782 0.0
N693 N 0.368 0.31901 0.73693 0.0
H694 H 0.42984 0.36121 0.60705 0.0
H695 H 0.40062 0.32189 0.63404 0.0
H696 H 0.35274 0.30493 0.77119 0.0
H697 H 0.35472 0.31539 0.69605 0.0
H698 H 0.476 0.45373 0.81978 0.0
H699 H 0.48124 0.46043 0.74405 0.0
H700 H 0.48198 0.40493 0.87716 0.0
H701 H 0.45097 0.36769 0.90475 0.0
C702 C 0.60253 0.45902 0.73213 0.0
C703 C 0.61881 0.48074 0.68443 0.0
C704 C 0.68264 0.48529 0.73613 0.0
C705 C 0.66658 0.46182 0.78242 0.0
N706 N 0.61584 0.41552 0.81472 0.0
N707 N 0.67788 0.5033 0.63352 0.0
C708 C 0.62808 0.4449 0.77696 0.0
C709 C 0.66012 0.49016 0.68395 0.0
N710 N 0.56242 0.45479 0.73774 0.0
N711 N 0.71808 0.50485 0.743 0.0
H712 H 0.66249 0.50565 0.5939 0.0
H713 H 0.70858 0.5074 0.62964 0.0
H714 H 0.73504 0.50304 0.78119 0.0
H715 H 0.72879 0.52572 0.71276 0.0
H716 H 0.54937 0.44298 0.77545 0.0
H717 H 0.5425 0.467 0.7077 0.0
H718 H 0.58922 0.39986 0.80923 0.0
H719 H 0.63423 0.40397 0.84758 0.0
C720 C 0.61821 0.41935 0.31985 0.0
C721 C 0.5788 0.43359 0.31379 0.0
C722 C 0.58149 0.42566 0.20796 0.0
C723 C 0.62258 0.41654 0.21331 0.0
N724 N 0.67654 0.39158 0.27249 0.0
N725 N 0.51822 0.43441 0.25776 0.0
C726 C 0.63966 0.40859 0.26895 0.0
C727 C 0.55869 0.43088 0.25962 0.0
N728 N 0.6354 0.41829 0.37411 0.0
N729 N 0.56513 0.43218 0.15393 0.0
H730 H 0.5014 0.43853 0.29554 0.0
H731 H 0.5013 0.42967 0.2202 0.0
H732 H 0.58095 0.42799 0.1152 0.0
H733 H 0.53663 0.4436 0.14756 0.0
H734 H 0.66543 0.41251 0.38164 0.0
H735 H 0.61913 0.42415 0.41201 0.0
H736 H 0.68986 0.38263 0.3116 0.0
H737 H 0.69257 0.38343 0.23536 0.0
C738 C 0.53603 0.57423 0.27268 0.0
C739 C 0.52204 0.61074 0.29515 0.0
C740 C 0.55161 0.64644 0.21161 0.0
C741 C 0.57002 0.61051 0.19397 0.0
N742 N 0.58301 0.54064 0.21006 0.0
N743 N 0.5176 0.68226 0.28868 0.0
C744 C 0.56287 0.57443 0.22483 0.0
C745 C 0.52975 0.64709 0.26502 0.0
N746 N 0.52243 0.53913 0.29568 0.0
N747 N 0.55467 0.67968 0.17684 0.0
H748 H 0.50105 0.68371 0.32724 0.0
H749 H 0.52602 0.7101 0.27241 0.0
H750 H 0.57086 0.6802 0.13785 0.0
H751 H 0.53872 0.70571 0.18397 0.0
H752 H 0.52645 0.51209 0.27479 0.0
H753 H 0.50377 0.53745 0.33206 0.0
H754 H 0.5829 0.51488 0.23582 0.0
H755 H 0.60227 0.53916 0.17433 0.0
C756 C 0.42029 0.54475 0.2584 0.0
C757 C 0.3987 0.55231 0.31054 0.0
C758 C 0.36409 0.60756 0.26182 0.0
C759 C 0.38805 0.60201 0.21141 0.0
N760 N 0.44478 0.57113 0.16606 0.0
N761 N 0.35695 0.59656 0.36613 0.0
C762 C 0.41801 0.57238 0.21104 0.0
C763 C 0.37254 0.58537 0.31353 0.0
N764 N 0.44123 0.51018 0.25278 0.0
N765 N 0.33235 0.63297 0.2598 0.0
H766 H 0.3632 0.58177 0.40542 0.0
H767 H 0.34114 0.62289 0.37181 0.0
H768 H 0.325 0.64984 0.22278 0.0
H769 H 0.31127 0.63475 0.29312 0.0
H770 H 0.45395 0.50119 0.21349 0.0
H771 H 0.44331 0.4889 0.28614 0.0
H772 H 0.46989 0.55296 0.16669 0.0
H773 H 0.4439 0.59097 0.13061 0.0
C774 C 0.4826 0.31176 0.32192 0.0
C775 C 0.46996 0.3484 0.34589 0.0
C776 C 0.41974 0.35547 0.26839 0.0
C777 C 0.43551 0.32121 0.24115 0.0
N778 N 0.48434 0.26867 0.23763 0.0
N779 N 0.42947 0.40768 0.3397 0.0
C780 C 0.46767 0.29992 0.26666 0.0
C781 C 0.43904 0.37086 0.31886 0.0
N782 N 0.50736 0.28733 0.3534 0.0
N783 N 0.38622 0.37305 0.24609 0.0
H784 H 0.44358 0.42056 0.37557 0.0
H785 H 0.40978 0.42705 0.31886 0.0
H786 H 0.37226 0.36338 0.20792 0.0
H787 H 0.37054 0.39534 0.26737 0.0
H788 H 0.51425 0.25838 0.34109 0.0
H789 H 0.518 0.29437 0.39497 0.0
H790 H 0.51091 0.25521 0.25047 0.0
H791 H 0.47322 0.25783 0.19819 0.0
loop_
_geom_bond_atom_site_label_1
_geom_bond_atom_site_label_2
_geom_bond_distance
_geom_bond_site_symmetry_2
_ccdc_geom_bond_type
Zn0 O2 1.933 1_556 S
Zn0 O20 1.985 . S
Zn0 O31 1.955 . S
Zn1 O2 1.911 . S
Zn1 O21 1.970 . S
Zn1 O37 1.945 . S
Zn1 O44 1.981 . S
O2 Zn0 1.933 1_554 S
O2 Zn1 1.911 . S
O2 H3 0.841 1_655 S
H3 O2 0.841 1_455 S
C4 O5 1.246 . S
C4 O33 1.276 1_545 S
O5 C4 1.246 . S
Zn6 O8 1.911 . S
Zn6 O23 1.970 . S
Zn6 O40 1.945 . S
Zn6 O47 1.981 . S
Zn7 O8 1.933 1_556 S
Zn7 O22 1.985 . S
Zn7 O29 1.955 . S
O8 Zn6 1.911 . S
O8 Zn7 1.933 1_554 S
O8 H9 0.841 1_455 S
H9 O8 0.841 1_655 S
Zn10 O11 1.933 1_556 S
Zn10 O24 1.985 . S
Zn10 O33 1.955 . S
O11 Zn10 1.933 1_554 S
O11 Zn12 1.911 . S
O11 H13 0.841 1_565 S
Zn12 O11 1.911 . S
Zn12 O25 1.970 . S
Zn12 O41 1.981 . S
Zn12 O43 1.945 . S
H13 O11 0.841 1_545 S
Zn14 O15 1.933 1_556 S
Zn14 O27 1.985 . S
Zn14 O35 1.955 . S
O15 Zn14 1.933 1_554 S
O15 H16 0.841 1_545 S
O15 Zn17 1.911 . S
H16 O15 0.841 1_565 S
Zn17 O15 1.911 . S
Zn17 O28 1.970 . S
Zn17 O38 1.981 . S
Zn17 O46 1.945 . S
C18 O19 1.246 . S
C18 O35 1.276 1_565 S
O19 C18 1.246 . S
O20 Zn0 1.985 . S
O20 C30 1.245 1_556 S
O21 Zn1 1.970 . S
O21 C30 1.263 . S
O22 Zn7 1.985 . S
O22 C34 1.245 1_556 S
O23 Zn6 1.970 . S
O23 C34 1.263 . S
O24 Zn10 1.985 . S
O24 C39 1.245 1_556 S
O25 Zn12 1.970 . S
O25 C39 1.263 . S
C26 O37 1.262 1_455 S
C26 O38 1.245 . S
O27 Zn14 1.985 . S
O27 C45 1.245 1_556 S
O28 Zn17 1.970 . S
O28 C45 1.263 . S
O29 Zn7 1.955 . S
O29 C48 1.276 1_455 S
C30 O20 1.245 1_554 S
C30 O21 1.263 . S
O31 Zn0 1.955 . S
O31 C50 1.276 1_655 S
C32 O40 1.262 1_655 S
C32 O41 1.245 . S
O33 C4 1.276 1_565 S
O33 Zn10 1.955 . S
C34 O22 1.245 1_554 S
C34 O23 1.263 . S
O35 Zn14 1.955 . S
O35 C18 1.276 1_545 S
C36 O43 1.262 1_545 S
C36 O44 1.245 . S
O37 Zn1 1.945 . S
O37 C26 1.262 1_655 S
O38 Zn17 1.981 . S
O38 C26 1.245 . S
C39 O24 1.245 1_554 S
C39 O25 1.263 . S
O40 Zn6 1.945 . S
O40 C32 1.262 1_455 S
O41 Zn12 1.981 . S
O41 C32 1.245 . S
C42 O46 1.262 1_565 S
C42 O47 1.245 . S
O43 Zn12 1.945 . S
O43 C36 1.262 1_565 S
O44 Zn1 1.981 . S
O44 C36 1.245 . S
C45 O27 1.245 1_554 S
C45 O28 1.263 . S
O46 Zn17 1.945 . S
O46 C42 1.262 1_545 S
O47 Zn6 1.981 . S
O47 C42 1.245 . S
C48 O29 1.276 1_655 S
C48 O49 1.246 . S
O49 C48 1.246 . S
C50 O31 1.276 1_455 S
C50 O51 1.246 . S
O51 C50 1.246 . S
Zn52 O54 1.933 . S
Zn52 O72 1.985 . S
Zn52 O83 1.955 . S
Zn53 O54 1.911 . S
Zn53 O73 1.970 . S
Zn53 O89 1.945 . S
Zn53 O96 1.981 . S
O54 Zn52 1.933 . S
O54 Zn53 1.911 . S
O54 H55 0.841 . S
H55 O54 0.841 . S
C56 O57 1.246 . S
C56 O85 1.276 . S
O57 C56 1.246 . S
Zn58 O60 1.911 . S
Zn58 O75 1.970 . S
Zn58 O92 1.945 . S
Zn58 O99 1.981 . S
Zn59 O60 1.933 . S
Zn59 O74 1.985 . S
Zn59 O81 1.955 . S
O60 Zn58 1.911 . S
O60 Zn59 1.933 . S
O60 H61 0.841 . S
H61 O60 0.841 . S
Zn62 O63 1.933 . S
Zn62 O76 1.985 . S
Zn62 O85 1.955 . S
O63 Zn62 1.933 . S
O63 Zn64 1.911 . S
O63 H65 0.841 . S
Zn64 O63 1.911 . S
Zn64 O77 1.970 . S
Zn64 O93 1.981 . S
Zn64 O95 1.945 . S
H65 O63 0.841 . S
Zn66 O67 1.933 . S
Zn66 O79 1.985 . S
Zn66 O87 1.955 . S
O67 Zn66 1.933 . S
O67 H68 0.841 . S
O67 Zn69 1.911 . S
H68 O67 0.841 . S
Zn69 O67 1.911 . S
Zn69 O80 1.970 . S
Zn69 O90 1.981 . S
Zn69 O98 1.945 . S
C70 O71 1.246 . S
C70 O87 1.276 . S
O71 C70 1.246 . S
O72 Zn52 1.985 . S
O72 C82 1.245 . S
O73 Zn53 1.970 . S
O73 C82 1.263 . S
O74 Zn59 1.985 . S
O74 C86 1.245 . S
O75 Zn58 1.970 . S
O75 C86 1.263 . S
O76 Zn62 1.985 . S
O76 C91 1.245 . S
O77 Zn64 1.970 . S
O77 C91 1.263 . S
C78 O89 1.262 . S
C78 O90 1.245 . S
O79 Zn66 1.985 . S
O79 C97 1.245 . S
O80 Zn69 1.970 . S
O80 C97 1.263 . S
O81 Zn59 1.955 . S
O81 C100 1.276 . S
C82 O72 1.245 . S
C82 O73 1.263 . S
O83 Zn52 1.955 . S
O83 C102 1.276 . S
C84 O92 1.262 . S
C84 O93 1.245 . S
O85 C56 1.276 . S
O85 Zn62 1.955 . S
C86 O74 1.245 . S
C86 O75 1.263 . S
O87 Zn66 1.955 . S
O87 C70 1.276 . S
C88 O95 1.262 . S
C88 O96 1.245 . S
O89 Zn53 1.945 . S
O89 C78 1.262 . S
O90 Zn69 1.981 . S
O90 C78 1.245 . S
C91 O76 1.245 . S
C91 O77 1.263 . S
O92 Zn58 1.945 . S
O92 C84 1.262 . S
O93 Zn64 1.981 . S
O93 C84 1.245 . S
C94 O98 1.262 . S
C94 O99 1.245 . S
O95 Zn64 1.945 . S
O95 C88 1.262 . S
O96 Zn53 1.981 . S
O96 C88 1.245 . S
C97 O79 1.245 . S
C97 O80 1.263 . S
O98 Zn69 1.945 . S
O98 C94 1.262 . S
O99 Zn58 1.981 . S
O99 C94 1.245 . S
C100 O81 1.276 . S
C100 O101 1.246 . S
O101 C100 1.246 . S
C102 O83 1.276 . S
C102 O103 1.246 . S
O103 C102 1.246 . S
P104 O115 1.490 . S
P104 C118 1.812 . S
P104 C124 1.803 . S
P104 C130 1.819 1_554 S
H105 C119 0.941 . S
H106 C120 0.939 . S
H107 C122 0.940 . S
H108 C123 0.940 . S
H109 C125 0.939 . S
H110 C126 0.942 . S
H111 C128 0.940 . S
H112 C129 0.939 . S
H113 C131 0.941 . S
H114 C135 0.939 . S
O115 P104 1.490 . S
H116 C132 0.939 . S
H117 C134 0.940 . S
C118 P104 1.812 . S
C118 C119 1.389 . S
C118 C123 1.391 . S
C119 H105 0.941 . S
C119 C118 1.389 . S
C119 C120 1.397 . S
C120 H106 0.939 . S
C120 C119 1.397 . S
C120 C121 1.378 . S
C121 C120 1.378 . S
C121 C122 1.378 . S
C122 H107 0.940 . S
C122 C121 1.378 . S
C122 C123 1.396 . S
C123 H108 0.940 . S
C123 C118 1.391 . S
C123 C122 1.396 . S
C124 P104 1.803 . S
C124 C125 1.378 1_554 S
C124 C129 1.400 . S
C125 H109 0.939 . S
C125 C124 1.378 1_556 S
C125 C126 1.361 . S
C126 H110 0.942 . S
C126 C125 1.361 . S
C126 C127 1.369 1_556 S
C127 C126 1.369 1_554 S
C127 C128 1.404 . S
C128 H111 0.940 . S
C128 C127 1.404 . S
C128 C129 1.389 . S
C129 H112 0.939 . S
C129 C124 1.400 . S
C129 C128 1.389 . S
C130 P104 1.819 1_556 S
C130 C131 1.391 . S
C130 C135 1.391 . S
C131 H113 0.941 . S
C131 C130 1.391 . S
C131 C132 1.396 . S
C132 H116 0.939 . S
C132 C131 1.396 . S
C132 C133 1.397 . S
C133 C132 1.397 . S
C133 C134 1.385 . S
C134 H117 0.940 . S
C134 C133 1.385 . S
C134 C135 1.388 . S
C135 H114 0.939 . S
C135 C130 1.391 . S
C135 C134 1.388 . S
P136 O147 1.490 . S
P136 C150 1.812 . S
P136 C156 1.803 . S
P136 C162 1.819 1_554 S
H137 C151 0.941 . S
H138 C152 0.939 . S
H139 C154 0.940 . S
H140 C155 0.940 . S
H141 C157 0.939 . S
H142 C158 0.942 . S
H143 C160 0.940 . S
H144 C161 0.939 . S
H145 C163 0.941 . S
H146 C167 0.939 . S
O147 P136 1.490 . S
H148 C164 0.939 . S
H149 C166 0.940 . S
C150 P136 1.812 . S
C150 C151 1.389 . S
C150 C155 1.391 . S
C151 H137 0.941 . S
C151 C150 1.389 . S
C151 C152 1.397 . S
C152 H138 0.939 . S
C152 C151 1.397 . S
C152 C153 1.378 . S
C153 C152 1.378 . S
C153 C154 1.378 . S
C154 H139 0.940 . S
C154 C153 1.378 . S
C154 C155 1.396 . S
C155 H140 0.940 . S
C155 C150 1.391 . S
C155 C154 1.396 . S
C156 P136 1.803 . S
C156 C157 1.378 1_554 S
C156 C161 1.400 . S
C157 H141 0.939 . S
C157 C156 1.378 1_556 S
C157 C158 1.361 . S
C158 H142 0.942 . S
C158 C157 1.361 . S
C158 C159 1.369 1_556 S
C159 C158 1.369 1_554 S
C159 C160 1.404 . S
C160 H143 0.940 . S
C160 C159 1.404 . S
C160 C161 1.389 . S
C161 H144 0.939 . S
C161 C156 1.400 . S
C161 C160 1.389 . S
C162 P136 1.819 1_556 S
C162 C163 1.391 . S
C162 C167 1.391 . S
C163 H145 0.941 . S
C163 C162 1.391 . S
C163 C164 1.396 . S
C164 H148 0.939 . S
C164 C163 1.396 . S
C164 C165 1.397 . S
C165 C164 1.397 . S
C165 C166 1.385 . S
C166 H149 0.940 . S
C166 C165 1.385 . S
C166 C167 1.388 . S
C167 H146 0.939 . S
C167 C162 1.391 . S
C167 C166 1.388 . S
P168 O179 1.490 . S
P168 C182 1.812 1_554 S
P168 C188 1.803 . S
P168 C194 1.819 . S
H169 C183 0.941 . S
H170 C184 0.939 . S
H171 C186 0.940 . S
H172 C187 0.940 . S
H173 C189 0.939 . S
H174 C190 0.942 . S
H175 C192 0.940 . S
H176 C193 0.939 . S
H177 C195 0.941 . S
H178 C199 0.939 . S
O179 P168 1.490 . S
H180 C196 0.939 . S
H181 C198 0.940 . S
C182 P168 1.812 1_556 S
C182 C183 1.389 . S
C182 C187 1.391 . S
C183 H169 0.941 . S
C183 C182 1.389 . S
C183 C184 1.397 . S
C184 H170 0.939 . S
C184 C183 1.397 . S
C184 C185 1.378 . S
C185 C184 1.378 . S
C185 C186 1.378 . S
C186 H171 0.940 . S
C186 C185 1.378 . S
C186 C187 1.396 . S
C187 H172 0.940 . S
C187 C182 1.391 . S
C187 C186 1.396 . S
C188 P168 1.803 . S
C188 C189 1.378 . S
C188 C193 1.400 1_554 S
C189 H173 0.939 . S
C189 C188 1.378 . S
C189 C190 1.361 . S
C190 H174 0.942 . S
C190 C189 1.361 . S
C190 C191 1.369 . S
C191 C190 1.369 . S
C191 C192 1.404 1_554 S
C192 H175 0.940 . S
C192 C191 1.404 1_556 S
C192 C193 1.389 . S
C193 H176 0.939 . S
C193 C188 1.400 1_556 S
C193 C192 1.389 . S
C194 P168 1.819 . S
C194 C195 1.391 . S
C194 C199 1.391 . S
C195 H177 0.941 . S
C195 C194 1.391 . S
C195 C196 1.396 . S
C196 H180 0.939 . S
C196 C195 1.396 . S
C196 C197 1.397 . S
C197 C196 1.397 . S
C197 C198 1.385 . S
C198 H181 0.940 . S
C198 C197 1.385 . S
C198 C199 1.388 . S
C199 H178 0.939 . S
C199 C194 1.391 . S
C199 C198 1.388 . S
P200 O211 1.490 . S
P200 C214 1.812 1_554 S
P200 C220 1.803 . S
P200 C226 1.819 . S
H201 C215 0.941 . S
H202 C216 0.939 . S
H203 C218 0.940 . S
H204 C219 0.940 . S
H205 C221 0.939 . S
H206 C222 0.942 . S
H207 C224 0.940 . S
H208 C225 0.939 . S
H209 C227 0.941 . S
H210 C231 0.939 . S
O211 P200 1.490 . S
H212 C228 0.939 . S
H213 C230 0.940 . S
C214 P200 1.812 1_556 S
C214 C215 1.389 . S
C214 C219 1.391 . S
C215 H201 0.941 . S
C215 C214 1.389 . S
C215 C216 1.397 . S
C216 H202 0.939 . S
C216 C215 1.397 . S
C216 C217 1.378 . S
C217 C216 1.378 . S
C217 C218 1.378 . S
C218 H203 0.940 . S
C218 C217 1.378 . S
C218 C219 1.396 . S
C219 H204 0.940 . S
C219 C214 1.391 . S
C219 C218 1.396 . S
C220 P200 1.803 . S
C220 C221 1.378 . S
C220 C225 1.400 1_554 S
C221 H205 0.939 . S
C221 C220 1.378 . S
C221 C222 1.361 . S
C222 H206 0.942 . S
C222 C221 1.361 . S
C222 C223 1.369 . S
C223 C222 1.369 . S
C223 C224 1.404 1_554 S
C224 H207 0.940 . S
C224 C223 1.404 1_556 S
C224 C225 1.389 . S
C225 H208 0.939 . S
C225 C220 1.400 1_556 S
C225 C224 1.389 . S
C226 P200 1.819 . S
C226 C227 1.391 . S
C226 C231 1.391 . S
C227 H209 0.941 . S
C227 C226 1.391 . S
C227 C228 1.396 . S
C228 H212 0.939 . S
C228 C227 1.396 . S
C228 C229 1.397 . S
C229 C228 1.397 . S
C229 C230 1.385 . S
C230 H213 0.940 . S
C230 C229 1.385 . S
C230 C231 1.388 . S
C231 H210 0.939 . S
C231 C226 1.391 . S
C231 C230 1.388 . S
P232 O243 1.490 . S
P232 C246 1.812 . S
P232 C252 1.803 . S
P232 C258 1.819 . S
H233 C247 0.941 . S
H234 C248 0.939 . S
H235 C250 0.940 . S
H236 C251 0.940 . S
H237 C253 0.939 . S
H238 C254 0.942 . S
H239 C256 0.940 . S
H240 C257 0.939 . S
H241 C259 0.941 . S
H242 C263 0.939 . S
O243 P232 1.490 . S
H244 C260 0.914 1_455 S
H245 C262 0.940 . S
C246 P232 1.812 . S
C246 C247 1.389 . S
C246 C251 1.391 . S
C247 H233 0.941 . S
C247 C246 1.389 . S
C247 C248 1.397 . S
C248 H234 0.939 . S
C248 C247 1.397 . S
C248 C249 1.378 . S
C249 C248 1.378 . S
C249 C250 1.378 . S
C250 H235 0.940 . S
C250 C249 1.378 . S
C250 C251 1.396 . S
C251 H236 0.940 . S
C251 C246 1.391 . S
C251 C250 1.396 . S
C252 P232 1.803 . S
C252 C253 1.378 . S
C252 C257 1.400 . S
C253 H237 0.939 . S
C253 C252 1.378 . S
C253 C254 1.361 . S
C254 H238 0.942 . S
C254 C253 1.361 . S
C254 C255 1.369 . S
C255 C254 1.369 . S
C255 C256 1.404 . S
C256 H239 0.940 . S
C256 C255 1.404 . S
C256 C257 1.389 . S
C257 H240 0.939 . S
C257 C252 1.400 . S
C257 C256 1.389 . S
C258 P232 1.819 . S
C258 C259 1.391 . S
C258 C263 1.391 . S
C259 H241 0.941 . S
C259 C258 1.391 . S
C259 C260 1.396 . S
C260 H244 0.914 1_655 S
C260 C259 1.396 . S
C260 C261 1.397 . S
C261 C260 1.397 . S
C261 C262 1.385 . S
C262 H245 0.940 . S
C262 C261 1.385 . S
C262 C263 1.388 . S
C263 H242 0.939 . S
C263 C258 1.391 . S
C263 C262 1.388 . S
P264 O275 1.490 . S
P264 C278 1.812 . S
P264 C284 1.803 . S
P264 C290 1.819 . S
H265 C279 0.941 . S
H266 C280 0.939 . S
H267 C282 0.940 . S
H268 C283 0.940 . S
H269 C285 0.939 . S
H270 C286 0.942 . S
H271 C288 0.940 . S
H272 C289 0.939 . S
H273 C291 0.941 . S
H274 C295 0.939 . S
O275 P264 1.490 . S
H276 C292 0.939 1_545 S
H277 C294 0.940 . S
C278 P264 1.812 . S
C278 C279 1.389 . S
C278 C283 1.391 . S
C279 H265 0.941 . S
C279 C278 1.389 . S
C279 C280 1.397 . S
C280 H266 0.939 . S
C280 C279 1.397 . S
C280 C281 1.378 . S
C281 C280 1.378 . S
C281 C282 1.378 . S
C282 H267 0.940 . S
C282 C281 1.378 . S
C282 C283 1.396 . S
C283 H268 0.940 . S
C283 C278 1.391 . S
C283 C282 1.396 . S
C284 P264 1.803 . S
C284 C285 1.378 . S
C284 C289 1.400 . S
C285 H269 0.939 . S
C285 C284 1.378 . S
C285 C286 1.361 . S
C286 H270 0.942 . S
C286 C285 1.361 . S
C286 C287 1.369 . S
C287 C286 1.369 . S
C287 C288 1.404 . S
C288 H271 0.940 . S
C288 C287 1.404 . S
C288 C289 1.389 . S
C289 H272 0.939 . S
C289 C284 1.400 . S
C289 C288 1.389 . S
C290 P264 1.819 . S
C290 C291 1.391 . S
C290 C295 1.391 . S
C291 H273 0.941 . S
C291 C290 1.391 . S
C291 C292 1.396 . S
C292 H276 0.939 1_565 S
C292 C291 1.396 . S
C292 C293 1.397 . S
C293 C292 1.397 . S
C293 C294 1.385 . S
C294 H277 0.940 . S
C294 C293 1.385 . S
C294 C295 1.388 . S
C295 H274 0.939 . S
C295 C290 1.391 . S
C295 C294 1.388 . S
P296 O307 1.490 . S
P296 C310 1.812 . S
P296 C316 1.803 . S
P296 C322 1.819 . S
H297 C311 0.941 . S
H298 C312 0.939 . S
H299 C314 0.940 . S
H300 C315 0.940 . S
H301 C317 0.939 . S
H302 C318 0.942 . S
H303 C320 0.940 . S
H304 C321 0.939 . S
H305 C323 0.941 . S
H306 C327 0.939 . S
O307 P296 1.490 . S
H308 C324 0.939 . S
H309 C326 0.940 . S
C310 P296 1.812 . S
C310 C311 1.389 . S
C310 C315 1.391 . S
C311 H297 0.941 . S
C311 C310 1.389 . S
C311 C312 1.397 . S
C312 H298 0.939 . S
C312 C311 1.397 . S
C312 C313 1.378 . S
C313 C312 1.378 . S
C313 C314 1.378 . S
C314 H299 0.940 . S
C314 C313 1.378 . S
C314 C315 1.396 . S
C315 H300 0.940 . S
C315 C310 1.391 . S
C315 C314 1.396 . S
C316 P296 1.803 . S
C316 C317 1.378 . S
C316 C321 1.400 . S
C317 H301 0.939 . S
C317 C316 1.378 . S
C317 C318 1.361 . S
C318 H302 0.942 . S
C318 C317 1.361 . S
C318 C319 1.369 . S
C319 C318 1.369 . S
C319 C320 1.404 . S
C320 H303 0.940 . S
C320 C319 1.404 . S
C320 C321 1.389 . S
C321 H304 0.939 . S
C321 C316 1.400 . S
C321 C320 1.389 . S
C322 P296 1.819 . S
C322 C323 1.391 . S
C322 C327 1.391 . S
C323 H305 0.941 . S
C323 C322 1.391 . S
C323 C324 1.396 . S
C324 H308 0.939 . S
C324 C323 1.396 . S
C324 C325 1.397 . S
C325 C324 1.397 . S
C325 C326 1.385 . S
C326 H309 0.940 . S
C326 C325 1.385 . S
C326 C327 1.388 . S
C327 H306 0.939 . S
C327 C322 1.391 . S
C327 C326 1.388 . S
P328 O339 1.490 . S
P328 C342 1.812 . S
P328 C348 1.803 . S
P328 C354 1.819 . S
H329 C343 0.941 . S
H330 C344 0.939 . S
H331 C346 0.940 . S
H332 C347 0.940 . S
H333 C349 0.939 . S
H334 C350 0.942 . S
H335 C352 0.940 . S
H336 C353 0.939 . S
H337 C355 0.941 . S
H338 C359 0.939 . S
O339 P328 1.490 . S
H340 C356 0.939 . S
H341 C358 0.940 . S
C342 P328 1.812 . S
C342 C343 1.389 . S
C342 C347 1.391 . S
C343 H329 0.941 . S
C343 C342 1.389 . S
C343 C344 1.397 . S
C344 H330 0.939 . S
C344 C343 1.397 . S
C344 C345 1.378 . S
C345 C344 1.378 . S
C345 C346 1.378 . S
C346 H331 0.940 . S
C346 C345 1.378 . S
C346 C347 1.396 . S
C347 H332 0.940 . S
C347 C342 1.391 . S
C347 C346 1.396 . S
C348 P328 1.803 . S
C348 C349 1.378 . S
C348 C353 1.400 . S
C349 H333 0.939 . S
C349 C348 1.378 . S
C349 C350 1.361 . S
C350 H334 0.942 . S
C350 C349 1.361 . S
C350 C351 1.369 . S
C351 C350 1.369 . S
C351 C352 1.404 . S
C352 H335 0.940 . S
C352 C351 1.404 . S
C352 C353 1.389 . S
C353 H336 0.939 . S
C353 C348 1.400 . S
C353 C352 1.389 . S
C354 P328 1.819 . S
C354 C355 1.391 . S
C354 C359 1.391 . S
C355 H337 0.941 . S
C355 C354 1.391 . S
C355 C356 1.396 . S
C356 H340 0.939 . S
C356 C355 1.396 . S
C356 C357 1.397 . S
C357 C356 1.397 . S
C357 C358 1.385 . S
C358 H341 0.940 . S
C358 C357 1.385 . S
C358 C359 1.388 . S
C359 H338 0.939 . S
C359 C354 1.391 . S
C359 C358 1.388 . S
C360 C361 1.363 . S
C360 C366 1.379 . S
C360 N368 1.356 . S
C361 C360 1.363 . S
C361 C367 1.363 1_554 S
C362 C363 1.363 1_556 S
C362 C367 1.379 . S
C362 N369 1.356 . S
C363 C362 1.363 1_554 S
C363 C366 1.363 . S
N364 C366 1.356 . S
N364 H376 0.984 . S
N364 H377 0.985 . S
N365 C367 1.356 . S
N365 H370 0.984 . S
N365 H371 0.985 . S
C366 C360 1.379 . S
C366 C363 1.363 . S
C366 N364 1.356 . S
C367 C361 1.363 1_556 S
C367 C362 1.379 . S
C367 N365 1.356 . S
N368 C360 1.356 . S
N368 H374 0.984 . S
N368 H375 0.984 . S
N369 C362 1.356 . S
N369 H372 0.984 . S
N369 H373 0.985 . S
H370 N365 0.984 . S
H371 N365 0.985 . S
H372 N369 0.984 . S
H373 N369 0.985 . S
H374 N368 0.984 . S
H375 N368 0.984 . S
H376 N364 0.984 . S
H377 N364 0.985 . S
C378 C379 1.363 1_556 S
C378 C384 1.379 . S
C378 N386 1.356 . S
C379 C378 1.363 1_554 S
C379 C385 1.363 . S
C380 C381 1.363 . S
C380 C385 1.379 . S
C380 N387 1.356 . S
C381 C380 1.363 . S
C381 C384 1.363 1_554 S
N382 C384 1.356 . S
N382 H394 0.984 . S
N382 H395 0.985 . S
N383 C385 1.356 . S
N383 H388 0.984 . S
N383 H389 0.985 . S
C384 C378 1.379 . S
C384 C381 1.363 1_556 S
C384 N382 1.356 . S
C385 C379 1.363 . S
C385 C380 1.379 . S
C385 N383 1.356 . S
N386 C378 1.356 . S
N386 H392 0.984 . S
N386 H393 0.984 . S
N387 C380 1.356 . S
N387 H390 0.984 . S
N387 H391 0.985 . S
H388 N383 0.984 . S
H389 N383 0.985 . S
H390 N387 0.984 . S
H391 N387 0.985 . S
H392 N386 0.984 . S
H393 N386 0.984 . S
H394 N382 0.984 . S
H395 N382 0.985 . S
C396 C397 1.363 . S
C396 C402 1.379 . S
C396 N404 1.356 . S
C397 C396 1.363 . S
C397 C403 1.363 1_554 S
C398 C399 1.363 1_556 S
C398 C403 1.379 . S
C398 N405 1.356 . S
C399 C398 1.363 1_554 S
C399 C402 1.363 . S
N400 C402 1.356 . S
N400 H412 0.984 . S
N400 H413 0.985 . S
N401 C403 1.356 . S
N401 H406 0.984 . S
N401 H407 0.985 . S
C402 C396 1.379 . S
C402 C399 1.363 . S
C402 N400 1.356 . S
C403 C397 1.363 1_556 S
C403 C398 1.379 . S
C403 N401 1.356 . S
N404 C396 1.356 . S
N404 H410 0.984 . S
N404 H411 0.984 . S
N405 C398 1.356 . S
N405 H408 0.984 . S
N405 H409 0.985 . S
H406 N401 0.984 . S
H407 N401 0.985 . S
H408 N405 0.984 . S
H409 N405 0.985 . S
H410 N404 0.984 . S
H411 N404 0.984 . S
H412 N400 0.984 . S
H413 N400 0.985 . S
C414 C415 1.363 1_556 S
C414 C420 1.379 . S
C414 N422 1.356 . S
C415 C414 1.363 1_554 S
C415 C421 1.363 . S
C416 C417 1.363 . S
C416 C421 1.379 . S
C416 N423 1.356 . S
C417 C416 1.363 . S
C417 C420 1.363 1_554 S
N418 C420 1.356 . S
N418 H430 0.984 . S
N418 H431 0.985 . S
N419 C421 1.356 . S
N419 H424 0.984 . S
N419 H425 0.985 . S
C420 C414 1.379 . S
C420 C417 1.363 1_556 S
C420 N418 1.356 . S
C421 C415 1.363 . S
C421 C416 1.379 . S
C421 N419 1.356 . S
N422 C414 1.356 . S
N422 H428 0.984 . S
N422 H429 0.984 . S
N423 C416 1.356 . S
N423 H426 0.984 . S
N423 H427 0.985 . S
H424 N419 0.984 . S
H425 N419 0.985 . S
H426 N423 0.984 . S
H427 N423 0.985 . S
H428 N422 0.984 . S
H429 N422 0.984 . S
H430 N418 0.984 . S
H431 N418 0.985 . S
C432 C433 1.363 . S
C432 C438 1.379 . S
C432 N440 1.356 . S
C433 C432 1.363 . S
C433 C439 1.363 . S
C434 C435 1.363 . S
C434 C439 1.379 . S
C434 N441 1.356 . S
C435 C434 1.363 . S
C435 C438 1.363 . S
N436 C438 1.356 . S
N436 H448 0.984 . S
N436 H449 0.985 . S
N437 C439 1.356 . S
N437 H442 0.984 . S
N437 H443 0.985 . S
C438 C432 1.379 . S
C438 C435 1.363 . S
C438 N436 1.356 . S
C439 C433 1.363 . S
C439 C434 1.379 . S
C439 N437 1.356 . S
N440 C432 1.356 . S
N440 H446 0.984 . S
N440 H447 0.984 . S
N441 C434 1.356 . S
N441 H444 0.984 . S
N441 H445 0.985 . S
H442 N437 0.984 . S
H443 N437 0.985 . S
H444 N441 0.984 . S
H445 N441 0.985 . S
H446 N440 0.984 . S
H447 N440 0.984 . S
H448 N436 0.984 . S
H449 N436 0.985 . S
C450 C451 1.363 . S
C450 C456 1.379 . S
C450 N458 1.356 . S
C451 C450 1.363 . S
C451 C457 1.363 . S
C452 C453 1.363 . S
C452 C457 1.379 . S
C452 N459 1.356 . S
C453 C452 1.363 . S
C453 C456 1.363 . S
N454 C456 1.356 . S
N454 H466 0.984 . S
N454 H467 0.985 . S
N455 C457 1.356 . S
N455 H460 0.984 . S
N455 H461 0.985 . S
C456 C450 1.379 . S
C456 C453 1.363 . S
C456 N454 1.356 . S
C457 C451 1.363 . S
C457 C452 1.379 . S
C457 N455 1.356 . S
N458 C450 1.356 . S
N458 H464 0.984 . S
N458 H465 0.984 . S
N459 C452 1.356 . S
N459 H462 0.984 . S
N459 H463 0.985 . S
H460 N455 0.984 . S
H461 N455 0.985 . S
H462 N459 0.984 . S
H463 N459 0.985 . S
H464 N458 0.984 . S
H465 N458 0.984 . S
H466 N454 0.984 . S
H467 N454 0.985 . S
C468 C469 1.363 . S
C468 C474 1.379 . S
C468 N476 1.356 . S
C469 C468 1.363 . S
C469 C475 1.363 . S
C470 C471 1.363 . S
C470 C475 1.379 . S
C470 N477 1.356 . S
C471 C470 1.363 . S
C471 C474 1.363 . S
N472 C474 1.356 . S
N472 H484 0.984 . S
N472 H485 0.985 . S
N473 C475 1.356 . S
N473 H478 0.984 . S
N473 H479 0.985 . S
C474 C468 1.379 . S
C474 C471 1.363 . S
C474 N472 1.356 . S
C475 C469 1.363 . S
C475 C470 1.379 . S
C475 N473 1.356 . S
N476 C468 1.356 . S
N476 H482 0.984 . S
N476 H483 0.984 . S
N477 C470 1.356 . S
N477 H480 0.984 . S
N477 H481 0.985 . S
H478 N473 0.984 . S
H479 N473 0.985 . S
H480 N477 0.984 . S
H481 N477 0.985 . S
H482 N476 0.984 . S
H483 N476 0.984 . S
H484 N472 0.984 . S
H485 N472 0.985 . S
C486 C487 1.363 . S
C486 C492 1.379 . S
C486 N494 1.356 . S
C487 C486 1.363 . S
C487 C493 1.363 . S
C488 C489 1.363 . S
C488 C493 1.379 . S
C488 N495 1.356 . S
C489 C488 1.363 . S
C489 C492 1.363 . S
N490 C492 1.356 . S
N490 H502 0.984 . S
N490 H503 0.985 . S
N491 C493 1.356 . S
N491 H496 0.984 . S
N491 H497 0.985 . S
C492 C486 1.379 . S
C492 C489 1.363 . S
C492 N490 1.356 . S
C493 C487 1.363 . S
C493 C488 1.379 . S
C493 N491 1.356 . S
N494 C486 1.356 . S
N494 H500 0.984 . S
N494 H501 0.984 . S
N495 C488 1.356 . S
N495 H498 0.984 . S
N495 H499 0.985 . S
H496 N491 0.984 . S
H497 N491 0.985 . S
H498 N495 0.984 . S
H499 N495 0.985 . S
H500 N494 0.984 . S
H501 N494 0.984 . S
H502 N490 0.984 . S
H503 N490 0.985 . S
C504 C505 1.363 . S
C504 C510 1.379 . S
C504 N512 1.356 1_455 S
C505 C504 1.363 . S
C505 C511 1.363 . S
C506 C507 1.363 . S
C506 C511 1.379 . S
C506 N513 1.356 . S
C507 C506 1.363 . S
C507 C510 1.363 . S
N508 C510 1.356 1_655 S
N508 H520 0.984 . S
N508 H521 0.985 1_655 S
N509 C511 1.356 . S
N509 H514 0.984 . S
N509 H515 0.985 . S
C510 C504 1.379 . S
C510 C507 1.363 . S
C510 N508 1.356 1_455 S
C511 C505 1.363 . S
C511 C506 1.379 . S
C511 N509 1.356 . S
N512 C504 1.356 1_655 S
N512 H518 0.984 . S
N512 H519 0.984 . S
N513 C506 1.356 . S
N513 H516 0.984 . S
N513 H517 0.985 . S
H514 N509 0.984 . S
H515 N509 0.985 . S
H516 N513 0.984 . S
H517 N513 0.985 . S
H518 N512 0.984 . S
H519 N512 0.984 . S
H520 N508 0.984 . S
H521 N508 0.985 1_455 S
C522 C523 1.363 . S
C522 C528 1.379 . S
C522 N530 1.356 1_545 S
C523 C522 1.363 . S
C523 C529 1.363 . S
C524 C525 1.363 . S
C524 C529 1.379 . S
C524 N531 1.356 . S
C525 C524 1.363 . S
C525 C528 1.363 . S
N526 C528 1.356 1_565 S
N526 H538 0.984 . S
N526 H539 0.985 1_565 S
N527 C529 1.356 . S
N527 H532 0.984 . S
N527 H533 0.985 . S
C528 C522 1.379 . S
C528 C525 1.363 . S
C528 N526 1.356 1_545 S
C529 C523 1.363 . S
C529 C524 1.379 . S
C529 N527 1.356 . S
N530 C522 1.356 1_565 S
N530 H536 0.984 . S
N530 H537 0.984 . S
N531 C524 1.356 . S
N531 H534 0.984 . S
N531 H535 0.985 . S
H532 N527 0.984 . S
H533 N527 0.985 . S
H534 N531 0.984 . S
H535 N531 0.985 . S
H536 N530 0.984 . S
H537 N530 0.984 . S
H538 N526 0.984 . S
H539 N526 0.985 1_545 S
C540 C541 1.363 . S
C540 C546 1.379 . S
C540 N548 1.356 . S
C541 C540 1.363 . S
C541 C547 1.363 . S
C542 C543 1.363 . S
C542 C547 1.379 . S
C542 N549 1.356 . S
C543 C542 1.363 . S
C543 C546 1.363 . S
N544 C546 1.356 . S
N544 H556 0.984 . S
N544 H557 0.985 . S
N545 C547 1.356 . S
N545 H550 0.984 . S
N545 H551 0.985 . S
C546 C540 1.379 . S
C546 C543 1.363 . S
C546 N544 1.356 . S
C547 C541 1.363 . S
C547 C542 1.379 . S
C547 N545 1.356 . S
N548 C540 1.356 . S
N548 H554 0.984 . S
N548 H555 0.984 . S
N549 C542 1.356 . S
N549 H552 0.984 . S
N549 H553 0.985 . S
H550 N545 0.984 . S
H551 N545 0.985 . S
H552 N549 0.984 . S
H553 N549 0.985 . S
H554 N548 0.984 . S
H555 N548 0.984 . S
H556 N544 0.984 . S
H557 N544 0.985 . S
C558 C559 1.363 . S
C558 C564 1.379 . S
C558 N566 1.356 . S
C559 C558 1.363 . S
C559 C565 1.363 . S
C560 C561 1.363 . S
C560 C565 1.379 . S
C560 N567 1.356 1_565 S
C561 C560 1.363 . S
C561 C564 1.363 . S
N562 C564 1.356 . S
N562 H574 0.984 . S
N562 H575 0.985 . S
N563 C565 1.356 1_545 S
N563 H568 0.984 . S
N563 H569 0.985 . S
C564 C558 1.379 . S
C564 C561 1.363 . S
C564 N562 1.356 . S
C565 C559 1.363 . S
C565 C560 1.379 . S
C565 N563 1.356 1_565 S
N566 C558 1.356 . S
N566 H572 0.984 . S
N566 H573 0.984 . S
N567 C560 1.356 1_545 S
N567 H570 0.984 1_545 S
N567 H571 0.985 . S
H568 N563 0.984 . S
H569 N563 0.985 . S
H570 N567 0.984 1_565 S
H571 N567 0.985 . S
H572 N566 0.984 . S
H573 N566 0.984 . S
H574 N562 0.984 . S
H575 N562 0.985 . S
C576 C577 1.363 . S
C576 C582 1.379 . S
C576 N584 1.356 1_565 S
C577 C576 1.363 . S
C577 C583 1.363 . S
C578 C579 1.363 . S
C578 C583 1.379 . S
C578 N585 1.356 . S
C579 C578 1.363 . S
C579 C582 1.363 . S
N580 C582 1.356 . S
N580 H592 0.984 1_565 S
N580 H593 0.985 . S
N581 C583 1.356 . S
N581 H586 0.984 . S
N581 H587 0.985 . S
C582 C576 1.379 . S
C582 C579 1.363 . S
C582 N580 1.356 . S
C583 C577 1.363 . S
C583 C578 1.379 . S
C583 N581 1.356 . S
N584 C576 1.356 1_545 S
N584 H590 0.984 . S
N584 H591 0.984 . S
N585 C578 1.356 . S
N585 H588 0.984 . S
N585 H589 0.985 . S
H586 N581 0.984 . S
H587 N581 0.985 . S
H588 N585 0.984 . S
H589 N585 0.985 . S
H590 N584 0.984 . S
H591 N584 0.984 . S
H592 N580 0.984 1_545 S
H593 N580 0.985 . S
C594 C595 1.363 . S
C594 C600 1.379 . S
C594 N602 1.357 1_455 S
C595 C594 1.363 . S
C595 C601 1.363 . S
C596 C597 1.363 . S
C596 C601 1.379 . S
C596 N603 1.356 . S
C597 C596 1.363 . S
C597 C600 1.363 . S
N598 C600 1.356 . S
N598 H610 0.984 1_455 S
N598 H611 0.985 . S
N599 C601 1.356 . S
N599 H604 0.984 . S
N599 H605 0.985 . S
C600 C594 1.379 . S
C600 C597 1.363 . S
C600 N598 1.356 . S
C601 C595 1.363 . S
C601 C596 1.379 . S
C601 N599 1.356 . S
N602 C594 1.357 1_655 S
N602 H608 0.983 . S
N602 H609 0.985 1_655 S
N603 C596 1.356 . S
N603 H606 0.984 . S
N603 H607 0.985 . S
H604 N599 0.984 . S
H605 N599 0.985 . S
H606 N603 0.984 . S
H607 N603 0.985 . S
H608 N602 0.983 . S
H609 N602 0.985 1_455 S
H610 N598 0.984 1_655 S
H611 N598 0.985 . S
C612 C613 1.363 . S
C612 C618 1.379 . S
C612 N620 1.356 . S
C613 C612 1.363 . S
C613 C619 1.363 . S
C614 C615 1.363 . S
C614 C619 1.379 . S
C614 N621 1.356 . S
C615 C614 1.363 . S
C615 C618 1.363 . S
N616 C618 1.356 . S
N616 H628 0.984 . S
N616 H629 0.985 . S
N617 C619 1.356 . S
N617 H622 0.984 . S
N617 H623 0.985 1_545 S
C618 C612 1.379 . S
C618 C615 1.363 . S
C618 N616 1.356 . S
C619 C613 1.363 . S
C619 C614 1.379 . S
C619 N617 1.356 . S
N620 C612 1.356 . S
N620 H626 0.984 . S
N620 H627 0.984 . S
N621 C614 1.356 . S
N621 H624 0.984 . S
N621 H625 0.985 . S
H622 N617 0.984 . S
H623 N617 0.985 1_565 S
H624 N621 0.984 . S
H625 N621 0.985 . S
H626 N620 0.984 . S
H627 N620 0.984 . S
H628 N616 0.984 . S
H629 N616 0.985 . S
C630 C631 1.363 . S
C630 C636 1.379 . S
C630 N638 1.356 . S
C631 C630 1.363 . S
C631 C637 1.363 . S
C632 C633 1.363 . S
C632 C637 1.379 . S
C632 N639 1.356 . S
C633 C632 1.363 . S
C633 C636 1.363 . S
N634 C636 1.356 . S
N634 H646 0.984 . S
N634 H647 0.985 . S
N635 C637 1.356 . S
N635 H640 0.984 . S
N635 H641 0.985 . S
C636 C630 1.379 . S
C636 C633 1.363 . S
C636 N634 1.356 . S
C637 C631 1.363 . S
C637 C632 1.379 . S
C637 N635 1.356 . S
N638 C630 1.356 . S
N638 H644 0.984 . S
N638 H645 0.984 . S
N639 C632 1.356 . S
N639 H642 0.984 . S
N639 H643 0.985 . S
H640 N635 0.984 . S
H641 N635 0.985 . S
H642 N639 0.984 . S
H643 N639 0.985 . S
H644 N638 0.984 . S
H645 N638 0.984 . S
H646 N634 0.984 . S
H647 N634 0.985 . S
C648 C649 1.363 . S
C648 C654 1.379 . S
C648 N656 1.356 . S
C649 C648 1.363 . S
C649 C655 1.363 . S
C650 C651 1.363 . S
C650 C655 1.379 . S
C650 N657 1.356 . S
C651 C650 1.363 . S
C651 C654 1.363 . S
N652 C654 1.356 . S
N652 H664 0.984 . S
N652 H665 0.985 . S
N653 C655 1.356 . S
N653 H658 0.984 . S
N653 H659 0.985 . S
C654 C648 1.379 . S
C654 C651 1.363 . S
C654 N652 1.356 . S
C655 C649 1.363 . S
C655 C650 1.379 . S
C655 N653 1.356 . S
N656 C648 1.356 . S
N656 H662 0.984 . S
N656 H663 0.984 . S
N657 C650 1.356 . S
N657 H660 0.984 . S
N657 H661 0.985 . S
H658 N653 0.984 . S
H659 N653 0.985 . S
H660 N657 0.984 . S
H661 N657 0.985 . S
H662 N656 0.984 . S
H663 N656 0.984 . S
H664 N652 0.984 . S
H665 N652 0.985 . S
C666 C667 1.363 . S
C666 C672 1.379 . S
C666 N674 1.356 . S
C667 C666 1.363 . S
C667 C673 1.363 . S
C668 C669 1.363 . S
C668 C673 1.379 . S
C668 N675 1.356 . S
C669 C668 1.363 . S
C669 C672 1.363 . S
N670 C672 1.356 . S
N670 H682 0.984 . S
N670 H683 0.985 . S
N671 C673 1.356 . S
N671 H676 0.984 . S
N671 H677 0.985 . S
C672 C666 1.379 . S
C672 C669 1.363 . S
C672 N670 1.356 . S
C673 C667 1.363 . S
C673 C668 1.379 . S
C673 N671 1.356 . S
N674 C666 1.356 . S
N674 H680 0.984 . S
N674 H681 0.984 . S
N675 C668 1.356 . S
N675 H678 0.984 . S
N675 H679 0.985 . S
H676 N671 0.984 . S
H677 N671 0.985 . S
H678 N675 0.984 . S
H679 N675 0.985 . S
H680 N674 0.984 . S
H681 N674 0.984 . S
H682 N670 0.984 . S
H683 N670 0.985 . S
C684 C685 1.363 . S
C684 C690 1.379 . S
C684 N692 1.356 . S
C685 C684 1.363 . S
C685 C691 1.363 . S
C686 C687 1.363 . S
C686 C691 1.379 . S
C686 N693 1.356 . S
C687 C686 1.363 . S
C687 C690 1.363 . S
N688 C690 1.356 . S
N688 H700 0.984 . S
N688 H701 0.985 . S
N689 C691 1.356 . S
N689 H694 0.984 . S
N689 H695 0.985 . S
C690 C684 1.379 . S
C690 C687 1.363 . S
C690 N688 1.356 . S
C691 C685 1.363 . S
C691 C686 1.379 . S
C691 N689 1.356 . S
N692 C684 1.356 . S
N692 H698 0.984 . S
N692 H699 0.984 . S
N693 C686 1.356 . S
N693 H696 0.984 . S
N693 H697 0.985 . S
H694 N689 0.984 . S
H695 N689 0.985 . S
H696 N693 0.984 . S
H697 N693 0.985 . S
H698 N692 0.984 . S
H699 N692 0.984 . S
H700 N688 0.984 . S
H701 N688 0.985 . S
C702 C703 1.363 . S
C702 C708 1.379 . S
C702 N710 1.356 . S
C703 C702 1.363 . S
C703 C709 1.363 . S
C704 C705 1.363 . S
C704 C709 1.379 . S
C704 N711 1.356 . S
C705 C704 1.363 . S
C705 C708 1.363 . S
N706 C708 1.356 . S
N706 H718 0.984 . S
N706 H719 0.985 . S
N707 C709 1.356 . S
N707 H712 0.984 . S
N707 H713 0.985 . S
C708 C702 1.379 . S
C708 C705 1.363 . S
C708 N706 1.356 . S
C709 C703 1.363 . S
C709 C704 1.379 . S
C709 N707 1.356 . S
N710 C702 1.356 . S
N710 H716 0.984 . S
N710 H717 0.984 . S
N711 C704 1.356 . S
N711 H714 0.984 . S
N711 H715 0.985 . S
H712 N707 0.984 . S
H713 N707 0.985 . S
H714 N711 0.984 . S
H715 N711 0.985 . S
H716 N710 0.984 . S
H717 N710 0.984 . S
H718 N706 0.984 . S
H719 N706 0.985 . S
C720 C721 1.363 . S
C720 C726 1.379 . S
C720 N728 1.356 . S
C721 C720 1.363 . S
C721 C727 1.363 . S
C722 C723 1.363 . S
C722 C727 1.379 . S
C722 N729 1.356 . S
C723 C722 1.363 . S
C723 C726 1.363 . S
N724 C726 1.356 . S
N724 H736 0.984 . S
N724 H737 0.985 . S
N725 C727 1.356 . S
N725 H730 0.984 . S
N725 H731 0.985 . S
C726 C720 1.379 . S
C726 C723 1.363 . S
C726 N724 1.356 . S
C727 C721 1.363 . S
C727 C722 1.379 . S
C727 N725 1.356 . S
N728 C720 1.356 . S
N728 H734 0.984 . S
N728 H735 0.984 . S
N729 C722 1.356 . S
N729 H732 0.984 . S
N729 H733 0.985 . S
H730 N725 0.984 . S
H731 N725 0.985 . S
H732 N729 0.984 . S
H733 N729 0.985 . S
H734 N728 0.984 . S
H735 N728 0.984 . S
H736 N724 0.984 . S
H737 N724 0.985 . S
C738 C739 1.363 . S
C738 C744 1.379 . S
C738 N746 1.356 . S
C739 C738 1.363 . S
C739 C745 1.363 . S
C740 C741 1.363 . S
C740 C745 1.379 . S
C740 N747 1.356 . S
C741 C740 1.363 . S
C741 C744 1.363 . S
N742 C744 1.356 . S
N742 H754 0.984 . S
N742 H755 0.985 . S
N743 C745 1.356 . S
N743 H748 0.984 . S
N743 H749 0.985 . S
C744 C738 1.379 . S
C744 C741 1.363 . S
C744 N742 1.356 . S
C745 C739 1.363 . S
C745 C740 1.379 . S
C745 N743 1.356 . S
N746 C738 1.356 . S
N746 H752 0.984 . S
N746 H753 0.984 . S
N747 C740 1.356 . S
N747 H750 0.984 . S
N747 H751 0.985 . S
H748 N743 0.984 . S
H749 N743 0.985 . S
H750 N747 0.984 . S
H751 N747 0.985 . S
H752 N746 0.984 . S
H753 N746 0.984 . S
H754 N742 0.984 . S
H755 N742 0.985 . S
C756 C757 1.363 . S
C756 C762 1.379 . S
C756 N764 1.356 . S
C757 C756 1.363 . S
C757 C763 1.363 . S
C758 C759 1.363 . S
C758 C763 1.379 . S
C758 N765 1.356 . S
C759 C758 1.363 . S
C759 C762 1.363 . S
N760 C762 1.356 . S
N760 H772 0.984 . S
N760 H773 0.985 . S
N761 C763 1.356 . S
N761 H766 0.984 . S
N761 H767 0.985 . S
C762 C756 1.379 . S
C762 C759 1.363 . S
C762 N760 1.356 . S
C763 C757 1.363 . S
C763 C758 1.379 . S
C763 N761 1.356 . S
N764 C756 1.356 . S
N764 H770 0.984 . S
N764 H771 0.984 . S
N765 C758 1.356 . S
N765 H768 0.984 . S
N765 H769 0.985 . S
H766 N761 0.984 . S
H767 N761 0.985 . S
H768 N765 0.984 . S
H769 N765 0.985 . S
H770 N764 0.984 . S
H771 N764 0.984 . S
H772 N760 0.984 . S
H773 N760 0.985 . S
C774 C775 1.363 . S
C774 C780 1.379 . S
C774 N782 1.356 . S
C775 C774 1.363 . S
C775 C781 1.363 . S
C776 C777 1.363 . S
C776 C781 1.379 . S
C776 N783 1.356 . S
C777 C776 1.363 . S
C777 C780 1.363 . S
N778 C780 1.356 . S
N778 H790 0.984 . S
N778 H791 0.985 . S
N779 C781 1.356 . S
N779 H784 0.984 . S
N779 H785 0.985 . S
C780 C774 1.379 . S
C780 C777 1.363 . S
C780 N778 1.356 . S
C781 C775 1.363 . S
C781 C776 1.379 . S
C781 N779 1.356 . S
N782 C774 1.356 . S
N782 H788 0.984 . S
N782 H789 0.984 . S
N783 C776 1.356 . S
N783 H786 0.984 . S
N783 H787 0.985 . S
H784 N779 0.984 . S
H785 N779 0.985 . S
H786 N783 0.984 . S
H787 N783 0.985 . S
H788 N782 0.984 . S
H789 N782 0.984 . S
H790 N778 0.984 . S
H791 N778 0.985 . S
C361 C45 1.595 . S
C363 C127 1.645 . S
C379 C30 1.595 . S
C381 C159 1.645 . S
C397 C39 1.595 . S
C399 C191 1.517 . S
C417 C223 1.517 . S
C415 C34 1.595 . S
C433 C97 1.595 . S
C435 C255 1.645 . S
C453 C287 1.645 . S
C451 C82 1.595 . S
C471 C319 1.517 . S
C469 C91 1.595 . S
C489 C351 1.517 . S
C487 C86 1.595 . S
C507 C313 1.454 . S
C505 C26 1.473 . S
C525 C345 1.453 . S
C523 C36 1.474 . S
C543 C261 1.578 . S
C541 C32 1.483 . S
C561 C293 1.581 . S
C559 C42 1.482 . S
C577 C18 1.533 . S
C579 C281 1.657 . S
C597 C325 1.516 . S
C595 C50 1.543 . S
C613 C4 1.543 . S
C615 C357 1.517 . S
C631 C48 1.533 . S
C633 C249 1.660 . S
C651 C185 1.454 . S
C649 C78 1.473 . S
C667 C88 1.474 . S
C669 C217 1.453 . S
C687 C133 1.578 . S
C685 C84 1.483 . S
C705 C165 1.581 . S
C703 C94 1.482 . S
C723 C153 1.657 . S
C721 C70 1.533 . S
C741 C197 1.516 . S
C739 C102 1.543 . S
C757 C56 1.543 . S
C759 C229 1.517 . S
C775 C100 1.533 . S
C777 C121 1.660 . S
