# Generated by pormake.
# Topology ptr, (4,4)-cn, num edge types: 1
# Building blocks:
#     Node 0, Type 0, BuildingBlock: NAHDIM_clean_sbu_0, # of connection points: 4
#     Node 1, Type 0, BuildingBlock: NAHDIM_clean_sbu_0, # of connection points: 4
#     Node 2, Type 0, BuildingBlock: NAHDIM_clean_sbu_0, # of connection points: 4
#     Node 3, Type 0, BuildingBlock: NAHDIM_clean_sbu_0, # of connection points: 4
#     Node 4, Type 0, BuildingBlock: NAHDIM_clean_sbu_0, # of connection points: 4
#     Node 5, Type 0, BuildingBlock: NAHDIM_clean_sbu_0, # of connection points: 4
#     Node 6, Type 0, BuildingBlock: NAHDIM_clean_sbu_0, # of connection points: 4
#     Node 7, Type 0, BuildingBlock: NAHDIM_clean_sbu_0, # of connection points: 4
#     Node 8, Type 0, BuildingBlock: NAHDIM_clean_sbu_0, # of connection points: 4
#     Node 9, Type 0, BuildingBlock: NAHDIM_clean_sbu_0, # of connection points: 4
#     Node 10, Type 0, BuildingBlock: NAHDIM_clean_sbu_0, # of connection points: 4
#     Node 11, Type 0, BuildingBlock: NAHDIM_clean_sbu_0, # of connection points: 4
#     Node 12, Type 0, BuildingBlock: NAHDIM_clean_sbu_0, # of connection points: 4
#     Node 13, Type 0, BuildingBlock: NAHDIM_clean_sbu_0, # of connection points: 4
#     Node 14, Type 0, BuildingBlock: NAHDIM_clean_sbu_0, # of connection points: 4
#     Node 15, Type 0, BuildingBlock: NAHDIM_clean_sbu_0, # of connection points: 4
#     Node 16, Type 0, BuildingBlock: NAHDIM_clean_sbu_0, # of connection points: 4
#     Node 17, Type 0, BuildingBlock: NAHDIM_clean_sbu_0, # of connection points: 4
#     Node 18, Type 1, BuildingBlock: GIZVER_clean_linker_0, # of connection points: 4
#     Node 19, Type 1, BuildingBlock: GIZVER_clean_linker_0, # of connection points: 4
#     Node 20, Type 1, BuildingBlock: GIZVER_clean_linker_0, # of connection points: 4
#     Node 21, Type 1, BuildingBlock: GIZVER_clean_linker_0, # of connection points: 4
#     Node 22, Type 1, BuildingBlock: GIZVER_clean_linker_0, # of connection points: 4
#     Node 23, Type 1, BuildingBlock: GIZVER_clean_linker_0, # of connection points: 4
#     Node 24, Type 1, BuildingBlock: GIZVER_clean_linker_0, # of connection points: 4
#     Node 25, Type 1, BuildingBlock: GIZVER_clean_linker_0, # of connection points: 4
#     Node 26, Type 1, BuildingBlock: GIZVER_clean_linker_0, # of connection points: 4
#     Node 27, Type 1, BuildingBlock: GIZVER_clean_linker_0, # of connection points: 4
#     Node 28, Type 1, BuildingBlock: GIZVER_clean_linker_0, # of connection points: 4
#     Node 29, Type 1, BuildingBlock: GIZVER_clean_linker_0, # of connection points: 4
#     Node 30, Type 1, BuildingBlock: GIZVER_clean_linker_0, # of connection points: 4
#     Node 31, Type 1, BuildingBlock: GIZVER_clean_linker_0, # of connection points: 4
#     Node 32, Type 1, BuildingBlock: GIZVER_clean_linker_0, # of connection points: 4
#     Node 33, Type 1, BuildingBlock: GIZVER_clean_linker_0, # of connection points: 4
#     Node 34, Type 1, BuildingBlock: GIZVER_clean_linker_0, # of connection points: 4
#     Node 35, Type 1, BuildingBlock: GIZVER_clean_linker_0, # of connection points: 4
#     Edge 36, Type (0, 1), BuildingBlock: EZIPEK_clean_linker_0, # of connection points: 2
#     Edge 37, Type (0, 1), BuildingBlock: EZIPEK_clean_linker_0, # of connection points: 2
#     Edge 38, Type (0, 1), BuildingBlock: EZIPEK_clean_linker_0, # of connection points: 2
#     Edge 39, Type (0, 1), BuildingBlock: EZIPEK_clean_linker_0, # of connection points: 2
#     Edge 40, Type (0, 1), BuildingBlock: EZIPEK_clean_linker_0, # of connection points: 2
#     Edge 41, Type (0, 1), BuildingBlock: EZIPEK_clean_linker_0, # of connection points: 2
#     Edge 42, Type (0, 1), BuildingBlock: EZIPEK_clean_linker_0, # of connection points: 2
#     Edge 43, Type (0, 1), BuildingBlock: EZIPEK_clean_linker_0, # of connection points: 2
#     Edge 44, Type (0, 1), BuildingBlock: EZIPEK_clean_linker_0, # of connection points: 2
#     Edge 45, Type (0, 1), BuildingBlock: EZIPEK_clean_linker_0, # of connection points: 2
#     Edge 46, Type (0, 1), BuildingBlock: EZIPEK_clean_linker_0, # of connection points: 2
#     Edge 47, Type (0, 1), BuildingBlock: EZIPEK_clean_linker_0, # of connection points: 2
#     Edge 48, Type (0, 1), BuildingBlock: EZIPEK_clean_linker_0, # of connection points: 2
#     Edge 49, Type (0, 1), BuildingBlock: EZIPEK_clean_linker_0, # of connection points: 2
#     Edge 50, Type (0, 1), BuildingBlock: EZIPEK_clean_linker_0, # of connection points: 2
#     Edge 51, Type (0, 1), BuildingBlock: EZIPEK_clean_linker_0, # of connection points: 2
#     Edge 52, Type (0, 1), BuildingBlock: EZIPEK_clean_linker_0, # of connection points: 2
#     Edge 53, Type (0, 1), BuildingBlock: EZIPEK_clean_linker_0, # of connection points: 2
#     Edge 54, Type (0, 1), BuildingBlock: EZIPEK_clean_linker_0, # of connection points: 2
#     Edge 55, Type (0, 1), BuildingBlock: EZIPEK_clean_linker_0, # of connection points: 2
#     Edge 56, Type (0, 1), BuildingBlock: EZIPEK_clean_linker_0, # of connection points: 2
#     Edge 57, Type (0, 1), BuildingBlock: EZIPEK_clean_linker_0, # of connection points: 2
#     Edge 58, Type (0, 1), BuildingBlock: EZIPEK_clean_linker_0, # of connection points: 2
#     Edge 59, Type (0, 1), BuildingBlock: EZIPEK_clean_linker_0, # of connection points: 2
#     Edge 60, Type (0, 1), BuildingBlock: EZIPEK_clean_linker_0, # of connection points: 2
#     Edge 61, Type (0, 1), BuildingBlock: EZIPEK_clean_linker_0, # of connection points: 2
#     Edge 62, Type (0, 1), BuildingBlock: EZIPEK_clean_linker_0, # of connection points: 2
#     Edge 63, Type (0, 1), BuildingBlock: EZIPEK_clean_linker_0, # of connection points: 2
#     Edge 64, Type (0, 1), BuildingBlock: EZIPEK_clean_linker_0, # of connection points: 2
#     Edge 65, Type (0, 1), BuildingBlock: EZIPEK_clean_linker_0, # of connection points: 2
#     Edge 66, Type (0, 1), BuildingBlock: EZIPEK_clean_linker_0, # of connection points: 2
#     Edge 67, Type (0, 1), BuildingBlock: EZIPEK_clean_linker_0, # of connection points: 2
#     Edge 68, Type (0, 1), BuildingBlock: EZIPEK_clean_linker_0, # of connection points: 2
#     Edge 69, Type (0, 1), BuildingBlock: EZIPEK_clean_linker_0, # of connection points: 2
#     Edge 70, Type (0, 1), BuildingBlock: EZIPEK_clean_linker_0, # of connection points: 2
#     Edge 71, Type (0, 1), BuildingBlock: EZIPEK_clean_linker_0, # of connection points: 2
#     Edge 72, Type (0, 1), BuildingBlock: EZIPEK_clean_linker_0, # of connection points: 2
#     Edge 73, Type (0, 1), BuildingBlock: EZIPEK_clean_linker_0, # of connection points: 2
#     Edge 74, Type (0, 1), BuildingBlock: EZIPEK_clean_linker_0, # of connection points: 2
#     Edge 75, Type (0, 1), BuildingBlock: EZIPEK_clean_linker_0, # of connection points: 2
#     Edge 76, Type (0, 1), BuildingBlock: EZIPEK_clean_linker_0, # of connection points: 2
#     Edge 77, Type (0, 1), BuildingBlock: EZIPEK_clean_linker_0, # of connection points: 2
#     Edge 78, Type (0, 1), BuildingBlock: EZIPEK_clean_linker_0, # of connection points: 2
#     Edge 79, Type (0, 1), BuildingBlock: EZIPEK_clean_linker_0, # of connection points: 2
#     Edge 80, Type (0, 1), BuildingBlock: EZIPEK_clean_linker_0, # of connection points: 2
#     Edge 81, Type (0, 1), BuildingBlock: EZIPEK_clean_linker_0, # of connection points: 2
#     Edge 82, Type (0, 1), BuildingBlock: EZIPEK_clean_linker_0, # of connection points: 2
#     Edge 83, Type (0, 1), BuildingBlock: EZIPEK_clean_linker_0, # of connection points: 2
#     Edge 84, Type (0, 1), BuildingBlock: EZIPEK_clean_linker_0, # of connection points: 2
#     Edge 85, Type (0, 1), BuildingBlock: EZIPEK_clean_linker_0, # of connection points: 2
#     Edge 86, Type (0, 1), BuildingBlock: EZIPEK_clean_linker_0, # of connection points: 2
#     Edge 87, Type (0, 1), BuildingBlock: EZIPEK_clean_linker_0, # of connection points: 2
#     Edge 88, Type (0, 1), BuildingBlock: EZIPEK_clean_linker_0, # of connection points: 2
#     Edge 89, Type (0, 1), BuildingBlock: EZIPEK_clean_linker_0, # of connection points: 2
#     Edge 90, Type (0, 1), BuildingBlock: EZIPEK_clean_linker_0, # of connection points: 2
#     Edge 91, Type (0, 1), BuildingBlock: EZIPEK_clean_linker_0, # of connection points: 2
#     Edge 92, Type (0, 1), BuildingBlock: EZIPEK_clean_linker_0, # of connection points: 2
#     Edge 93, Type (0, 1), BuildingBlock: EZIPEK_clean_linker_0, # of connection points: 2
#     Edge 94, Type (0, 1), BuildingBlock: EZIPEK_clean_linker_0, # of connection points: 2
#     Edge 95, Type (0, 1), BuildingBlock: EZIPEK_clean_linker_0, # of connection points: 2
#     Edge 96, Type (0, 1), BuildingBlock: EZIPEK_clean_linker_0, # of connection points: 2
#     Edge 97, Type (0, 1), BuildingBlock: EZIPEK_clean_linker_0, # of connection points: 2
#     Edge 98, Type (0, 1), BuildingBlock: EZIPEK_clean_linker_0, # of connection points: 2
#     Edge 99, Type (0, 1), BuildingBlock: EZIPEK_clean_linker_0, # of connection points: 2
#     Edge 100, Type (0, 1), BuildingBlock: EZIPEK_clean_linker_0, # of connection points: 2
#     Edge 101, Type (0, 1), BuildingBlock: EZIPEK_clean_linker_0, # of connection points: 2
#     Edge 102, Type (0, 1), BuildingBlock: EZIPEK_clean_linker_0, # of connection points: 2
#     Edge 103, Type (0, 1), BuildingBlock: EZIPEK_clean_linker_0, # of connection points: 2
#     Edge 104, Type (0, 1), BuildingBlock: EZIPEK_clean_linker_0, # of connection points: 2
#     Edge 105, Type (0, 1), BuildingBlock: EZIPEK_clean_linker_0, # of connection points: 2
#     Edge 106, Type (0, 1), BuildingBlock: EZIPEK_clean_linker_0, # of connection points: 2
#     Edge 107, Type (0, 1), BuildingBlock: EZIPEK_clean_linker_0, # of connection points: 2
# Relax obj value: 0.076
# Max RMSD: 0.213
# Mean RMSD: 0.115
data_MOF--net-ptr--node1-NAHDIM_clean_sbu_0--node2-GIZVER_clean_linker_0--edge1-EZIPEK_clean_linker_0
_symmetry_space_group_name_H-M    P1
_symmetry_Int_Tables_number       1
_symmetry_cell_setting            triclinic
loop_
_symmetry_equiv_pos_as_xyz
'x, y, z'
_cell_length_a     60.346358
_cell_length_b     59.229417
_cell_length_c     34.942221
_cell_angle_alpha  92.495047
_cell_angle_beta   89.311326
_cell_angle_gamma 121.88678
loop_
_atom_site_label
_atom_site_type_symbol
_atom_site_fract_x
_atom_site_fract_y
_atom_site_fract_z
_atom_type_partial_charge
C0 C 0.04675 0.36578 0.98657 0.0
O1 O 0.03402 0.35881 0.9537 0.0
O2 O 0.97996 0.35305 -0.00158 0.0
Zn3 Zn 0.01458 0.38774 0.00665 0.0
O4 O 0.01524 0.40765 0.05514 0.0
C5 C 0.00489 0.41 0.94168 0.0
O6 O 0.98044 0.39397 0.95123 0.0
O7 O 0.04212 0.37855 0.01228 0.0
C8 C 1.00199 0.4184 0.06151 0.0
O9 O 0.98583 0.41682 0.03518 0.0
C10 C 0.9621 0.34182 0.0231 0.0
O11 O 0.96507 0.35288 0.05755 0.0
O12 O 0.02296 0.41111 0.96158 0.0
C13 C 0.67218 0.63595 0.99359 0.0
O14 O 0.66663 0.64589 0.96501 0.0
O15 O 0.63008 0.66355 0.02545 0.0
Zn16 Zn 0.62271 0.62602 0.02168 0.0
O17 O 0.6015 0.60637 0.97424 0.0
C18 C 0.58638 0.60924 0.08526 0.0
O19 O 0.58137 0.62692 0.07374 0.0
O20 O 0.65666 0.62691 0.02153 0.0
C21 C 0.58044 0.60531 0.96655 0.0
O22 O 0.57216 0.61736 0.98956 0.0
C23 C 0.63328 0.67726 -0.00346 0.0
O24 O 0.63153 0.66708 0.96177 0.0
O25 O 0.60278 0.60564 0.06735 0.0
C26 C 0.36203 0.04623 -0.00138 0.0
O27 O 0.34219 0.02338 0.98552 0.0
O28 O 0.34141 0.98169 0.02873 0.0
Zn29 Zn 0.3785 0.01182 0.02083 0.0
O30 O 0.39218 0.00579 0.97123 0.0
C31 C 0.40096 0.99136 0.06733 0.0
O32 O 0.39074 0.97296 0.03954 0.0
O33 O 0.38031 0.04666 0.01702 0.0
C34 C 0.41652 0.017 0.96542 0.0
O35 O 0.43321 0.03175 0.99298 0.0
C36 C 0.32939 0.96077 0.00708 0.0
O37 O 0.34056 0.95831 0.97605 0.0
O38 O 0.39939 0.01187 0.06561 0.0
C39 C 0.96088 0.63243 0.98813 0.0
O40 O 0.98033 0.65009 0.96782 0.0
O41 O 0.02743 0.65774 -0.00029 0.0
Zn42 Zn 0.99867 0.6197 0.00559 0.0
O43 O 0.99886 0.59882 0.95891 0.0
C44 C 0.02589 0.60549 0.05751 0.0
O45 O 0.04312 0.61344 0.0301 0.0
O46 O 0.96403 0.61699 0.0083 0.0
C47 C 0.02026 0.60611 0.94209 0.0
O48 O 0.0421 0.6266 0.95612 0.0
C49 C 0.03112 0.67593 0.02407 0.0
O50 O 0.01469 0.67025 0.05233 0.0
O51 O 0.00523 0.60597 0.05339 0.0
C52 C 0.31403 0.36387 0.988 0.0
O53 O 0.32307 0.36162 0.95461 0.0
O54 O 0.35902 0.33854 0.026 0.0
Zn55 Zn 0.36349 0.3746 0.02226 0.0
O56 O 0.38115 0.39605 0.07068 0.0
C57 C 0.38772 0.38 0.94873 0.0
O58 O 0.37136 0.35412 0.94557 0.0
O59 O 0.3279 0.36969 0.01816 0.0
C60 C 0.40558 0.4129 0.07255 0.0
O61 O 0.42004 0.41699 0.04218 0.0
C62 C 0.37894 0.33716 0.03245 0.0
O63 O 0.40177 0.35953 0.0342 0.0
O64 O 0.38684 0.39304 0.9779 0.0
C65 C 0.64229 0.96676 0.01858 0.0
O66 O 0.65146 0.98618 0.04493 0.0
O67 O 0.65639 0.03119 0.98717 0.0
Zn68 Zn 0.62173 0.99656 0.9928 0.0
O69 O 0.60477 0.99517 0.04311 0.0
C70 C 0.59666 0.00887 0.93362 0.0
O71 O 0.61446 0.03365 0.94344 0.0
O72 O 0.62865 0.96664 0.99107 0.0
C73 C 0.59173 0.00607 0.04993 0.0
O74 O 0.5901 0.02059 0.02411 0.0
C75 C 0.66616 0.05191 0.00938 0.0
O76 O 0.65341 0.05244 0.03978 0.0
O77 O 0.59615 0.99006 0.95061 0.0
C78 C 0.70718 0.69763 0.36236 0.0
O79 O 0.68965 0.69127 0.38915 0.0
O80 O 0.64369 0.68373 0.33061 0.0
Zn81 Zn 0.67861 0.7185 0.3331 0.0
O82 O 0.68164 0.74009 0.38067 0.0
C83 C 0.66507 0.74052 0.27189 0.0
O84 O 0.64156 0.72679 0.28627 0.0
O85 O 0.70679 0.70992 0.33378 0.0
C86 C 0.69995 0.76437 0.38368 0.0
O87 O 0.71645 0.77511 0.35554 0.0
C88 C 0.62556 0.6764 0.355 0.0
O89 O 0.6286 0.69199 0.38495 0.0
O90 O 0.68373 0.74002 0.28735 0.0
C91 C 0.35553 0.9649 0.37031 0.0
O92 O 0.35614 0.97772 0.4023 0.0
O93 O 0.31768 0.996 0.35825 0.0
Zn94 Zn 0.30391 0.95677 0.35587 0.0
O95 O 0.282 0.93914 0.30853 0.0
C96 C 0.26627 0.94317 0.41569 0.0
O97 O 0.26156 0.95883 0.39671 0.0
O98 O 0.33522 0.95366 0.34906 0.0
C99 C 0.2573 0.92553 0.30498 0.0
O100 O 0.24242 0.9217 0.3347 0.0
C101 C 0.3051 0.00724 0.35221 0.0
O102 O 0.28086 0.99281 0.33965 0.0
O103 O 0.28406 0.93919 0.40419 0.0
C104 C 0.03874 0.38328 0.35105 0.0
O105 O 0.02876 0.37212 0.38364 0.0
O106 O 0.0134 0.31152 0.35287 0.0
Zn107 Zn 0.04914 0.34067 0.33805 0.0
O108 O 0.06053 0.32957 0.2904 0.0
C109 C 0.07698 0.32661 0.38378 0.0
O110 O 0.06822 0.30789 0.35637 0.0
O111 O 0.04894 0.37382 0.32872 0.0
C112 C 0.07981 0.34713 0.27197 0.0
O113 O 0.09194 0.37212 0.28453 0.0
C114 C 0.99343 0.29832 0.33119 0.0
O115 O 0.99492 0.30324 0.29465 0.0
O116 O 0.07255 0.34525 0.38179 0.0
C117 C 0.63304 0.97467 0.32541 0.0
O118 O 0.65378 0.99456 0.31007 0.0
O119 O 0.70003 0.99924 0.34958 0.0
Zn120 Zn 0.67018 0.96116 0.3452 0.0
O121 O 0.67331 0.94405 0.29644 0.0
C122 C 0.69539 0.94475 0.39415 0.0
O123 O 0.71347 0.9563 0.36816 0.0
O124 O 0.63531 0.95812 0.34426 0.0
C125 C 0.6624 0.91898 0.29193 0.0
O126 O 0.64921 0.90363 0.32011 0.0
C127 C 0.71442 0.01269 0.32227 0.0
O128 O 0.70967 0.00228 0.28715 0.0
O129 O 0.67375 0.94328 0.39022 0.0
C130 C 0.97514 0.70225 0.3284 0.0
O131 O 0.98033 0.6975 0.29341 0.0
O132 O 0.02338 0.68077 0.34643 0.0
Zn133 Zn 0.02856 0.71747 0.34624 0.0
O134 O 0.05153 0.73938 0.39136 0.0
C135 C 0.06883 0.7473 0.29059 0.0
O136 O 0.0845 0.75233 0.31973 0.0
O137 O 0.99292 0.71199 0.3541 0.0
C138 C 0.06319 0.76456 0.39573 0.0
O139 O 0.06155 0.77842 0.3688 0.0
C140 C 0.04127 0.677 0.33501 0.0
O141 O 0.06406 0.69763 0.32634 0.0
O142 O 0.04424 0.73382 0.29522 0.0
C143 C 0.30713 0.2896 0.34776 0.0
O144 O 0.31522 0.30837 0.37496 0.0
O145 O 0.32198 0.35454 0.31863 0.0
Zn146 Zn 0.2871 0.31964 0.32136 0.0
O147 O 0.26903 0.31776 0.37088 0.0
C148 C 0.26482 0.33347 0.25973 0.0
O149 O 0.28243 0.35806 0.27083 0.0
O150 O 0.2941 0.28976 0.31962 0.0
C151 C 0.25532 0.32807 0.3764 0.0
O152 O 0.2529 0.34129 0.34925 0.0
C153 C 0.33179 0.37326 0.34436 0.0
O154 O 0.31904 0.37106 0.37607 0.0
O155 O 0.26324 0.31425 0.27709 0.0
C156 C 0.36554 0.03507 0.67146 0.0
O157 O 0.35299 0.02591 0.63852 0.0
O158 O 0.29736 0.01815 0.6778 0.0
Zn159 Zn 0.33037 0.05439 0.68501 0.0
O160 O 0.32868 0.0756 0.73072 0.0
C161 C 0.32576 0.0875 0.63027 0.0
O162 O 0.31042 0.0886 0.65621 0.0
O163 O 0.35984 0.04833 0.69471 0.0
C164 C 0.30824 0.07488 0.74212 0.0
O165 O 0.28599 0.05952 0.72369 0.0
C166 C 0.28515 0.0022 0.7043 0.0
O167 O 0.29274 0.00958 0.74015 0.0
O168 O 0.33664 0.0745 0.6365 0.0
C169 C 0.01078 0.30526 0.65564 0.0
O170 O 0.01155 0.32618 0.64295 0.0
O171 O 0.96716 0.3273 0.68233 0.0
Zn172 Zn 0.95762 0.28913 0.67466 0.0
O173 O 0.93597 0.27204 0.62662 0.0
C174 C 0.92236 0.27397 0.73855 0.0
O175 O 0.91947 0.29323 0.72767 0.0
O176 O 0.99015 0.28731 0.67129 0.0
C177 C 0.91591 0.27291 0.61895 0.0
O178 O 0.90839 0.28521 0.64286 0.0
C179 C 0.97022 0.34255 0.65557 0.0
O180 O 0.96709 0.33382 0.61968 0.0
O181 O 0.93716 0.26839 0.71982 0.0
C182 C 0.69346 0.70888 0.66241 0.0
O183 O 0.67484 0.68777 0.64349 0.0
O184 O 0.66927 0.64153 0.69767 0.0
Zn185 Zn 0.7059 0.67117 0.6858 0.0
O186 O 0.71885 0.66417 0.63572 0.0
C187 C 0.72951 0.65127 0.73018 0.0
O188 O 0.71795 0.63221 0.70349 0.0
O189 O 0.70867 0.7065 0.68434 0.0
C190 C 0.74329 0.67446 0.63167 0.0
O191 O 0.75927 0.68927 0.65985 0.0
C192 C 0.65625 0.61941 0.67886 0.0
O193 O 0.66547 0.61532 0.64685 0.0
O194 O 0.72802 0.67181 0.72872 0.0
C195 C 0.30395 0.31523 0.65536 0.0
O196 O 0.32381 0.33299 0.63573 0.0
O197 O 0.37162 0.3403 0.6754 0.0
Zn198 Zn 0.34146 0.30246 0.67429 0.0
O199 O 0.34315 0.28529 0.62442 0.0
C200 C 0.34865 0.29307 0.752 0.0
O201 O 0.34708 0.31408 0.7598 0.0
O202 O 0.30698 0.30019 0.67665 0.0
C203 C 0.34994 0.2683 0.62254 0.0
O204 O 0.35564 0.26089 0.65392 0.0
C205 C 0.39391 0.34308 0.67204 0.0
O206 O 0.39489 0.32144 0.67164 0.0
O207 O 0.34612 0.28413 0.71766 0.0
C208 C 0.6441 0.03204 0.6871 0.0
O209 O 0.64731 0.01639 0.70878 0.0
O210 O 0.68993 0.01304 0.67742 0.0
Zn211 Zn 0.6973 0.05047 0.67097 0.0
O212 O 0.71743 0.07408 0.71749 0.0
C213 C 0.74098 0.07955 0.61824 0.0
O214 O 0.7558 0.0882 0.64915 0.0
O215 O 0.66296 0.0486 0.66703 0.0
C216 C 0.73661 0.0741 0.73224 0.0
O217 O 0.7447 0.05928 0.71638 0.0
C218 C 0.70651 0.00734 0.66591 0.0
O219 O 0.72878 0.02628 0.65253 0.0
O220 O 0.71638 0.0645 0.62111 0.0
C221 C 0.96529 0.61143 0.6568 0.0
O222 O 0.95898 0.61185 0.62113 0.0
O223 O 0.98609 0.6894 0.66426 0.0
Zn224 Zn 0.95363 0.65364 0.67471 0.0
O225 O 0.93497 0.6545 0.72257 0.0
C226 C 0.92754 0.66015 0.61235 0.0
O227 O 0.94296 0.68523 0.62361 0.0
O228 O 0.96442 0.62694 0.6823 0.0
C229 C 0.92491 0.66852 0.72873 0.0
O230 O 0.92739 0.68543 0.70343 0.0
C231 C 0.00773 0.69824 0.68164 0.0
O232 O 0.00928 0.68459 0.70896 0.0
O233 O 0.92836 0.64225 0.62995 0.0
H234 H 0.13145 0.30643 0.13815 0.0
H235 H 0.1267 0.31891 0.01845 0.0
H236 H 0.09406 0.34706 0.10374 0.0
H237 H 0.13389 0.2773 0.08307 0.0
H238 H 0.14048 0.28945 0.03595 0.0
H239 H 0.16756 0.3017 0.13634 0.0
H240 H 0.24661 0.34114 0.09777 0.0
H241 H 0.18479 0.32067 0.01745 0.0
C242 C 0.12637 0.31505 0.11577 0.0
C243 C 0.11316 0.32809 0.1254 0.0
C244 C 0.13204 0.31224 0.07726 0.0
C245 C 0.12359 0.32201 0.04834 0.0
C246 C 0.10945 0.33411 0.05794 0.0
C247 C 0.10508 0.3378 0.09641 0.0
C248 C 0.1439 0.29584 0.06684 0.0
C249 C 0.17278 0.3105 0.07612 0.0
C250 C 0.18148 0.31103 0.11364 0.0
C251 C 0.20817 0.32257 0.12157 0.0
C252 C 0.22608 0.33312 0.09189 0.0
C253 C 0.21777 0.33211 0.05437 0.0
C254 C 0.1912 0.32161 0.04663 0.0
H255 H 0.69796 0.83214 0.14317 0.0
H256 H 0.67441 0.80969 0.02453 0.0
H257 H 0.65352 0.74995 0.10671 0.0
H258 H 0.71943 0.86433 0.08849 0.0
H259 H 0.70371 0.85573 0.0426 0.0
H260 H 0.69004 0.86398 0.14757 0.0
H261 H 0.65614 0.9092 0.12173 0.0
H262 H 0.68056 0.87695 0.02972 0.0
C263 C 0.68681 0.81718 0.12087 0.0
C264 C 0.67425 0.7903 0.12959 0.0
C265 C 0.68572 0.82452 0.08338 0.0
C266 C 0.67385 0.80444 0.054 0.0
C267 C 0.66299 0.77761 0.06239 0.0
C268 C 0.66213 0.77071 0.1003 0.0
C269 C 0.70001 0.85363 0.0739 0.0
C270 C 0.68564 0.86723 0.08687 0.0
C271 C 0.68281 0.87121 0.12622 0.0
C272 C 0.67185 0.88593 0.13865 0.0
C273 C 0.66393 0.89715 0.11189 0.0
C274 C 0.66721 0.89417 0.07272 0.0
C275 C 0.67764 0.87882 0.06007 0.0
H276 H 0.15864 0.7992 0.16607 0.0
H277 H 0.15069 0.79465 0.04305 0.0
H278 H 0.08306 0.75317 0.11378 0.0
H279 H 0.1936 0.80196 0.12065 0.0
H280 H 0.19126 0.80558 0.07088 0.0
H281 H 0.19513 0.83927 0.16754 0.0
H282 H 0.25728 0.91468 0.13161 0.0
H283 H 0.21844 0.84898 0.04931 0.0
C284 C 0.14665 0.7933 0.14044 0.0
C285 C 0.11945 0.77794 0.14388 0.0
C286 C 0.15817 0.79947 0.10403 0.0
C287 C 0.14202 0.78991 0.07116 0.0
C288 C 0.11515 0.77159 0.07446 0.0
C289 C 0.1039 0.76698 0.11086 0.0
C290 C 0.18714 0.81108 0.09979 0.0
C291 C 0.20339 0.84086 0.10696 0.0
C292 C 0.20622 0.85177 0.14438 0.0
C293 C 0.22527 0.87843 0.15306 0.0
C294 C 0.24163 0.89444 0.12434 0.0
C295 C 0.23924 0.88386 0.08696 0.0
C296 C 0.21957 0.85731 0.07799 0.0
H297 H 0.38383 0.22476 0.85229 0.0
H298 H 0.38666 0.23004 0.97599 0.0
H299 H 0.36598 0.27739 0.91354 0.0
H300 H 0.40887 0.2101 0.88913 0.0
H301 H 0.40851 0.21114 0.9403 0.0
H302 H 0.35761 0.17939 0.8618 0.0
H303 H 0.33151 0.10016 0.89586 0.0
H304 H 0.39083 0.16772 0.9604 0.0
C305 C 0.38087 0.23241 0.87933 0.0
C306 C 0.37315 0.25096 0.87922 0.0
C307 C 0.38532 0.22425 0.91422 0.0
C308 C 0.38253 0.23547 0.94895 0.0
C309 C 0.37621 0.25513 0.94861 0.0
C310 C 0.37103 0.26231 0.9138 0.0
C311 C 0.39605 0.20623 0.91428 0.0
C312 C 0.37506 0.17685 0.91233 0.0
C313 C 0.35692 0.16586 0.88165 0.0
C314 C 0.33964 0.13806 0.87593 0.0
C315 C 0.34245 0.12157 0.90087 0.0
C316 C 0.36054 0.13213 0.93121 0.0
C317 C 0.37634 0.15972 0.93751 0.0
H318 H 0.85355 0.18896 0.87126 0.0
H319 H 0.86115 0.21392 0.99081 0.0
H320 H 0.90212 0.27126 0.90521 0.0
H321 H 0.84723 0.15886 0.92995 0.0
H322 H 0.83884 0.16777 0.97456 0.0
H323 H 0.81808 0.14934 0.87042 0.0
H324 H 0.73703 0.10585 0.89743 0.0
H325 H 0.7938 0.15023 0.98688 0.0
C326 C 0.86011 0.2044 0.89359 0.0
C327 C 0.87718 0.23085 0.88386 0.0
C328 C 0.85322 0.19797 0.93207 0.0
C329 C 0.8647 0.21857 0.96085 0.0
C330 C 0.88261 0.24495 0.95112 0.0
C331 C 0.88792 0.25099 0.91264 0.0
C332 C 0.83778 0.16911 0.94304 0.0
C333 C 0.80947 0.15395 0.92969 0.0
C334 C 0.803 0.14495 0.89106 0.0
C335 C 0.77689 0.12828 0.87934 0.0
C336 C 0.7571 0.11995 0.90628 0.0
C337 C 0.7631 0.12732 0.94504 0.0
C338 C 0.78921 0.14505 0.95667 0.0
H339 H 0.82897 0.63012 0.85317 0.0
H340 H 0.8396 0.6142 0.96887 0.0
H341 H 0.90415 0.64989 0.89198 0.0
H342 H 0.79315 0.58821 0.89695 0.0
H343 H 0.79676 0.59623 0.94685 0.0
H344 H 0.78841 0.61798 0.85114 0.0
H345 H 0.74209 0.6472 0.89729 0.0
H346 H 0.77743 0.61962 0.97325 0.0
C347 C 0.84127 0.63196 0.87667 0.0
C348 C 0.86781 0.6424 0.8694 0.0
C349 C 0.83069 0.62194 0.91278 0.0
C350 C 0.84742 0.62295 0.94157 0.0
C351 C 0.87378 0.63269 0.93382 0.0
C352 C 0.88391 0.64295 0.89818 0.0
C353 C 0.80136 0.60525 0.91834 0.0
C354 C 0.78729 0.61986 0.91323 0.0
C355 C 0.78209 0.6244 0.87611 0.0
C356 C 0.76671 0.63523 0.87069 0.0
C357 C 0.75533 0.64038 0.90204 0.0
C358 C 0.75841 0.63402 0.93878 0.0
C359 C 0.77537 0.6249 0.94478 0.0
H360 H 0.79797 0.63837 0.49484 0.0
H361 H 0.78714 0.64823 0.37603 0.0
H362 H 0.75761 0.67696 0.46543 0.0
H363 H 0.79634 0.60704 0.43716 0.0
H364 H 0.80309 0.62027 0.39072 0.0
H365 H 0.8302 0.6278 0.48954 0.0
H366 H 0.90946 0.67059 0.45155 0.0
H367 H 0.84757 0.65355 0.37336 0.0
C368 C 0.79144 0.64614 0.47315 0.0
C369 C 0.77805 0.65873 0.48437 0.0
C370 C 0.79518 0.64249 0.43399 0.0
C371 C 0.78527 0.65166 0.40628 0.0
C372 C 0.77165 0.66402 0.41773 0.0
C373 C 0.7685 0.66779 0.45665 0.0
C374 C 0.80663 0.62596 0.42183 0.0
C375 C 0.8355 0.63997 0.43083 0.0
C376 C 0.84416 0.63844 0.46737 0.0
C377 C 0.87087 0.65002 0.47513 0.0
C378 C 0.88887 0.66242 0.44596 0.0
C379 C 0.88058 0.66337 0.40921 0.0
C380 C 0.85396 0.65291 0.40192 0.0
H381 H 0.3621 0.17126 0.48802 0.0
H382 H 0.35782 0.14094 0.37185 0.0
H383 H 0.32278 0.08767 0.46399 0.0
H384 H 0.39555 0.19778 0.42725 0.0
H385 H 0.37907 0.18762 0.38202 0.0
H386 H 0.37822 0.21326 0.48191 0.0
H387 H 0.33271 0.24573 0.45104 0.0
H388 H 0.35041 0.20324 0.36547 0.0
C389 C 0.35475 0.15508 0.46688 0.0
C390 C 0.3414 0.12914 0.47988 0.0
C391 C 0.35976 0.15972 0.42745 0.0
C392 C 0.35236 0.13778 0.40169 0.0
C393 C 0.33908 0.11178 0.41487 0.0
C394 C 0.33268 0.1077 0.45362 0.0
C395 C 0.3759 0.18786 0.41343 0.0
C396 C 0.36398 0.20435 0.42318 0.0
C397 C 0.36657 0.21524 0.4606 0.0
C398 C 0.35403 0.22871 0.471 0.0
C399 C 0.34125 0.23404 0.44315 0.0
C400 C 0.34087 0.22595 0.40486 0.0
C401 C 0.35124 0.21006 0.395 0.0
H402 H 0.83345 0.13376 0.5006 0.0
H403 H 0.83212 0.12073 0.37798 0.0
H404 H 0.7609 0.082 0.4416 0.0
H405 H 0.87356 0.1432 0.46378 0.0
H406 H 0.87307 0.14232 0.41266 0.0
H407 H 0.86339 0.17688 0.49745 0.0
H408 H 0.91304 0.25418 0.45284 0.0
H409 H 0.89563 0.18449 0.38627 0.0
C410 C 0.82279 0.12566 0.47378 0.0
C411 C 0.79562 0.10865 0.47461 0.0
C412 C 0.83617 0.13104 0.43883 0.0
C413 C 0.82199 0.1181 0.4048 0.0
C414 C 0.79492 0.09992 0.40603 0.0
C415 C 0.78179 0.09618 0.44063 0.0
C416 C 0.86567 0.14772 0.4386 0.0
C417 C 0.8761 0.17729 0.44063 0.0
C418 C 0.87284 0.18939 0.47395 0.0
C419 C 0.88355 0.21717 0.47781 0.0
C420 C 0.90114 0.23274 0.44916 0.0
C421 C 0.90548 0.22109 0.41648 0.0
C422 C 0.89198 0.19337 0.41143 0.0
H423 H 0.05884 0.55345 0.19237 0.0
H424 H 0.04688 0.56451 0.31216 0.0
H425 H 0.03146 0.60449 0.22628 0.0
H426 H 0.08201 0.54583 0.24683 0.0
H427 H 0.07055 0.54381 0.29455 0.0
H428 H 0.03795 0.51063 0.19705 0.0
H429 H 0.01697 0.43372 0.23194 0.0
H430 H 0.05407 0.50029 0.31293 0.0
C431 C 0.05164 0.56096 0.21486 0.0
C432 C 0.04268 0.57747 0.20516 0.0
C433 C 0.05218 0.5551 0.25336 0.0
C434 C 0.0454 0.56775 0.28225 0.0
C435 C 0.03914 0.58658 0.27263 0.0
C436 C 0.03686 0.59045 0.23401 0.0
C437 C 0.06412 0.5392 0.26399 0.0
C438 C 0.04657 0.50927 0.2568 0.0
C439 C 0.03621 0.49824 0.21996 0.0
C440 C 0.02549 0.47108 0.21105 0.0
C441 C 0.02435 0.45452 0.23927 0.0
C442 C 0.0345 0.46497 0.276 0.0
C443 C 0.0452 0.49219 0.28492 0.0
H444 H 0.52095 0.52051 0.21684 0.0
H445 H 0.52421 0.54569 0.33556 0.0
H446 H 0.56388 0.60314 0.24966 0.0
H447 H 0.51385 0.49096 0.27605 0.0
H448 H 0.50468 0.49966 0.32022 0.0
H449 H 0.48489 0.48289 0.21513 0.0
H450 H 0.40389 0.43477 0.23981 0.0
H451 H 0.45907 0.4768 0.33201 0.0
C452 C 0.52575 0.53584 0.23877 0.0
C453 C 0.54133 0.56243 0.22873 0.0
C454 C 0.51816 0.52938 0.27711 0.0
C455 C 0.52806 0.55019 0.3056 0.0
C456 C 0.54517 0.5767 0.29569 0.0
C457 C 0.55057 0.58267 0.25722 0.0
C458 C 0.50368 0.5006 0.2886 0.0
C459 C 0.47544 0.48433 0.27493 0.0
C460 C 0.46958 0.47691 0.2358 0.0
C461 C 0.4438 0.45979 0.22318 0.0
C462 C 0.42367 0.44918 0.24962 0.0
C463 C 0.42909 0.45474 0.28881 0.0
C464 C 0.45488 0.47296 0.30154 0.0
H465 H 0.49795 0.96015 0.17549 0.0
H466 H 0.50951 0.9454 0.29123 0.0
H467 H 0.5748 0.98678 0.21655 0.0
H468 H 0.4632 0.9196 0.21461 0.0
H469 H 0.46638 0.92278 0.26539 0.0
H470 H 0.4574 0.95255 0.17817 0.0
H471 H 0.4126 0.97877 0.23954 0.0
H472 H 0.45055 0.94682 0.30094 0.0
C473 C 0.51068 0.96313 0.19921 0.0
C474 C 0.53756 0.97586 0.19285 0.0
C475 C 0.50025 0.95235 0.23486 0.0
C476 C 0.51727 0.95471 0.26424 0.0
C477 C 0.54414 0.96698 0.25748 0.0
C478 C 0.55416 0.978 0.22213 0.0
C479 C 0.47105 0.93444 0.23918 0.0
C480 C 0.45705 0.94939 0.23978 0.0
C481 C 0.45117 0.95672 0.20529 0.0
C482 C 0.43574 0.96796 0.20534 0.0
C483 C 0.42557 0.97126 0.2398 0.0
C484 C 0.43052 0.96329 0.27414 0.0
C485 C 0.44703 0.95327 0.27436 0.0
H486 H 0.46594 0.9883 0.81829 0.0
H487 H 0.45124 0.99663 0.70064 0.0
H488 H 0.41971 0.0211 0.79291 0.0
H489 H 0.46325 0.9567 0.75769 0.0
H490 H 0.47114 0.97207 0.71286 0.0
H491 H 0.49578 0.97754 0.81384 0.0
H492 H 0.57548 0.01747 0.77945 0.0
H493 H 0.51614 0.00168 0.6972 0.0
C494 C 0.45818 0.99517 0.79717 0.0
C495 C 0.44348 0.00601 0.80976 0.0
C496 C 0.46151 0.99192 0.75778 0.0
C497 C 0.44971 0.99977 0.7311 0.0
C498 C 0.43436 0.01002 0.74377 0.0
C499 C 0.43168 0.0134 0.78305 0.0
C500 C 0.47386 0.97638 0.74435 0.0
C501 C 0.50254 0.98986 0.75497 0.0
C502 C 0.5102 0.98811 0.79224 0.0
C503 C 0.53661 0.9989 0.80127 0.0
C504 C 0.55521 0.01027 0.77276 0.0
C505 C 0.54794 0.01069 0.73517 0.0
C506 C 0.52174 0.00145 0.72646 0.0
H507 H 0.03769 0.49997 0.80805 0.0
H508 H 0.01427 0.47285 0.69035 0.0
H509 H 0.99554 0.41656 0.77726 0.0
H510 H 0.06018 0.52959 0.75005 0.0
H511 H 0.04405 0.5192 0.70448 0.0
H512 H 0.03822 0.53851 0.80643 0.0
H513 H 0.99446 0.57297 0.77491 0.0
H514 H 0.01358 0.53209 0.68892 0.0
C515 C 0.02734 0.48407 0.78655 0.0
C516 C 0.0156 0.45761 0.79727 0.0
C517 C 0.02638 0.48984 0.74805 0.0
C518 C 0.01429 0.46876 0.72028 0.0
C519 C 0.00369 0.44241 0.73078 0.0
C520 C 0.00376 0.43697 0.76926 0.0
C521 C 0.04061 0.51832 0.73589 0.0
C522 C 0.02609 0.53199 0.74684 0.0
C523 C 0.02723 0.5413 0.78493 0.0
C524 C 0.01538 0.55555 0.79514 0.0
C525 C 0.00264 0.56092 0.76719 0.0
C526 C 0.00237 0.55302 0.72887 0.0
C527 C 0.01346 0.53787 0.71873 0.0
H528 H 0.50072 0.45501 0.86254 0.0
H529 H 0.50724 0.45055 0.73961 0.0
H530 H 0.43308 0.40215 0.79325 0.0
H531 H 0.5436 0.47133 0.8326 0.0
H532 H 0.54597 0.46797 0.7819 0.0
H533 H 0.52955 0.50357 0.85612 0.0
H534 H 0.57714 0.57895 0.80378 0.0
H535 H 0.56484 0.50759 0.74827 0.0
C536 C 0.49185 0.44725 0.83445 0.0
C537 C 0.46498 0.42844 0.83132 0.0
C538 C 0.50729 0.45545 0.80135 0.0
C539 C 0.4955 0.44473 0.76522 0.0
C540 C 0.46885 0.42509 0.76243 0.0
C541 C 0.45369 0.41742 0.79541 0.0
C542 C 0.53653 0.47366 0.80466 0.0
C543 C 0.54489 0.50247 0.80189 0.0
C544 C 0.53964 0.51535 0.83209 0.0
C545 C 0.54896 0.54286 0.83221 0.0
C546 C 0.56641 0.55745 0.80275 0.0
C547 C 0.57197 0.5449 0.77253 0.0
C548 C 0.56025 0.51723 0.77136 0.0
H549 H 0.72994 0.89189 0.52424 0.0
H550 H 0.71728 0.89823 0.64514 0.0
H551 H 0.6979 0.93769 0.56361 0.0
H552 H 0.75644 0.88701 0.57871 0.0
H553 H 0.74309 0.88045 0.62548 0.0
H554 H 0.72604 0.85373 0.5219 0.0
H555 H 0.69575 0.7738 0.55255 0.0
H556 H 0.72035 0.83524 0.64112 0.0
C557 C 0.72205 0.89783 0.54767 0.0
C558 C 0.71161 0.91336 0.53975 0.0
C559 C 0.72348 0.89142 0.58558 0.0
C560 C 0.71531 0.90197 0.61566 0.0
C561 C 0.70721 0.91967 0.60793 0.0
C562 C 0.70448 0.92435 0.56987 0.0
C563 C 0.73773 0.87746 0.59451 0.0
C564 C 0.72274 0.84801 0.58312 0.0
C565 C 0.7192 0.83957 0.54413 0.0
C566 C 0.70887 0.8128 0.53328 0.0
C567 C 0.70242 0.79426 0.56121 0.0
C568 C 0.70679 0.80229 0.59997 0.0
C569 C 0.71624 0.829 0.6111 0.0
H570 H 0.19308 0.85362 0.53986 0.0
H571 H 0.19134 0.87277 0.65872 0.0
H572 H 0.23644 0.93469 0.58186 0.0
H573 H 0.18041 0.82024 0.58969 0.0
H574 H 0.17427 0.82756 0.63729 0.0
H575 H 0.15028 0.82678 0.53594 0.0
H576 H 0.0707 0.77177 0.56269 0.0
H577 H 0.12959 0.7987 0.65053 0.0
C578 C 0.19667 0.86859 0.56161 0.0
C579 C 0.21105 0.89593 0.55359 0.0
C580 C 0.18801 0.85997 0.59893 0.0
C581 C 0.19685 0.87898 0.62963 0.0
C582 C 0.21481 0.90583 0.62306 0.0
C583 C 0.22175 0.91396 0.58556 0.0
C584 C 0.17222 0.83046 0.60658 0.0
C585 C 0.14348 0.81676 0.59568 0.0
C586 C 0.13593 0.81632 0.55749 0.0
C587 C 0.10978 0.8002 0.54574 0.0
C588 C 0.09079 0.78494 0.57229 0.0
C589 C 0.09779 0.78413 0.60998 0.0
C590 C 0.1241 0.80024 0.6218 0.0
H591 H 0.1669 0.29226 0.50704 0.0
H592 H 0.18069 0.29118 0.62765 0.0
H593 H 0.24401 0.32136 0.54817 0.0
H594 H 0.1318 0.25926 0.55461 0.0
H595 H 0.13703 0.26802 0.60444 0.0
H596 H 0.13332 0.29534 0.50944 0.0
H597 H 0.08335 0.32017 0.55454 0.0
H598 H 0.11417 0.28745 0.62943 0.0
C599 C 0.17997 0.298 0.53128 0.0
C600 C 0.20659 0.30939 0.52414 0.0
C601 C 0.17033 0.29224 0.56882 0.0
C602 C 0.18787 0.29704 0.59896 0.0
C603 C 0.21432 0.30692 0.59129 0.0
C604 C 0.22365 0.31394 0.55418 0.0
C605 C 0.14113 0.27654 0.57559 0.0
C606 C 0.12805 0.29223 0.57098 0.0
C607 C 0.12535 0.29971 0.53437 0.0
C608 C 0.1099 0.31047 0.52879 0.0
C609 C 0.09659 0.3134 0.55956 0.0
C610 C 0.09761 0.30461 0.59555 0.0
C611 C 0.11407 0.29494 0.60172 0.0
C612 C 0.98654 0.42734 0.12444 0.0
C613 C 0.00678 0.43453 0.09752 0.0
C614 C 0.03907 0.46675 0.14428 0.0
C615 C 0.01879 0.46035 0.17083 0.0
N616 N 0.97288 0.43899 0.18385 0.0
N617 N 0.05065 0.46603 0.07789 0.0
C618 C 0.99235 0.44207 0.16008 0.0
C619 C 0.03254 0.45584 0.10624 0.0
N620 N 0.96216 0.40564 0.11689 0.0
N621 N 0.06464 0.48207 0.15584 0.0
H622 H 0.04636 0.45887 0.04943 0.0
H623 H 0.06901 0.48328 0.08176 0.0
H624 H 0.07048 0.49024 0.18359 0.0
H625 H 0.08006 0.48475 0.13879 0.0
H626 H 0.94745 0.39759 0.13716 0.0
H627 H 0.9571 0.39439 0.09113 0.0
H628 H 0.95319 0.42792 0.17611 0.0
H629 H 0.9766 0.44949 0.21015 0.0
C630 C 0.59032 0.59604 0.15091 0.0
C631 C 0.57423 0.59468 0.12045 0.0
C632 C 0.53535 0.56909 0.15967 0.0
C633 C 0.55148 0.56968 0.18936 0.0
N634 N 0.5929 0.57682 0.20916 0.0
N635 N 0.5312 0.57454 0.09222 0.0
C636 C 0.57852 0.58083 0.18349 0.0
C637 C 0.54662 0.57956 0.12371 0.0
N638 N 0.61679 0.61317 0.15002 0.0
N639 N 0.50955 0.55951 0.16625 0.0
H640 H 0.5388 0.58143 0.06528 0.0
H641 H 0.51103 0.5615 0.09193 0.0
H642 H 0.50053 0.55114 0.19191 0.0
H643 H 0.4975 0.56137 0.14724 0.0
H644 H 0.62906 0.61696 0.17334 0.0
H645 H 0.62635 0.62571 0.12759 0.0
H646 H 0.61218 0.58234 0.2045 0.0
H647 H 0.58472 0.56549 0.23322 0.0
C648 C 0.43681 0.00218 0.11456 0.0
C649 C 0.41025 0.98598 0.10281 0.0
C650 C 0.40177 0.95615 0.15492 0.0
C651 C 0.42762 0.97365 0.16884 0.0
N652 N 0.46905 0.01495 0.16518 0.0
N653 N 0.3662 0.95079 0.11617 0.0
C654 C 0.44501 0.99714 0.14952 0.0
C655 C 0.39237 0.9638 0.12414 0.0
N656 N 0.45431 0.02179 0.09168 0.0
N657 N 0.38636 0.93192 0.17061 0.0
H658 H 0.3584 0.95638 0.09473 0.0
H659 H 0.352 0.93621 0.13319 0.0
H660 H 0.39257 0.92554 0.1932 0.0
H661 H 0.36837 0.91717 0.15899 0.0
H662 H 0.47441 0.03238 0.09647 0.0
H663 H 0.44892 0.02616 0.0661 0.0
H664 H 0.48152 0.03379 0.15482 0.0
H665 H 0.47587 0.01164 0.19032 0.0
C666 C 0.44256 0.0372 0.90626 0.0
C667 C 0.42581 0.01423 0.92712 0.0
C668 C 0.42108 0.98557 0.87112 0.0
C669 C 0.43903 0.00847 0.85114 0.0
N670 N 0.47131 0.05544 0.85211 0.0
N671 N 0.40412 0.96671 0.93264 0.0
C672 C 0.45124 0.0341 0.86958 0.0
C673 C 0.41657 0.98843 0.91051 0.0
N674 N 0.4489 0.06185 0.92025 0.0
N675 N 0.40749 0.96126 0.85212 0.0
H676 H 0.40099 0.9681 0.96184 0.0
H677 H 0.39926 0.94772 0.92303 0.0
H678 H 0.41025 0.95826 0.82326 0.0
H679 H 0.392 0.94445 0.86412 0.0
H680 H 0.45851 0.07882 0.90423 0.0
H681 H 0.44251 0.06514 0.94654 0.0
H682 H 0.48275 0.07414 0.86579 0.0
H683 H 0.47812 0.05384 0.82516 0.0
C684 C 1.00034 0.44197 0.90256 0.0
C685 C 0.01109 0.42589 0.90703 0.0
C686 C 0.03185 0.43905 0.84449 0.0
C687 C 0.01713 0.45077 0.8372 0.0
N688 N 0.98587 0.46214 0.85829 0.0
N689 N 0.03449 0.40629 0.87959 0.0
C690 C 1.00117 0.4522 0.86612 0.0
C691 C 0.0265 0.42394 0.87754 0.0
N692 N 0.98993 0.44799 0.93337 0.0
N693 N 0.05088 0.44232 0.81963 0.0
H694 H 0.03013 0.39386 0.90233 0.0
H695 H 0.04329 0.40207 0.85691 0.0
H696 H 0.05535 0.45348 0.79527 0.0
H697 H 0.06392 0.43635 0.82524 0.0
H698 H 0.98407 0.46165 0.93272 0.0
H699 H 0.98965 0.44142 0.96069 0.0
H700 H 0.97163 0.46085 0.8768 0.0
H701 H 0.98615 0.47008 0.83212 0.0
C702 C 0.56589 0.60132 0.89829 0.0
C703 C 0.56453 0.5891 0.93301 0.0
C704 C 0.53567 0.5456 0.90147 0.0
C705 C 0.54467 0.55735 0.86572 0.0
N706 N 0.54963 0.59445 0.83284 0.0
N707 N 0.54468 0.54933 0.96939 0.0
C708 C 0.55405 0.58485 0.86474 0.0
C709 C 0.54814 0.56112 0.93531 0.0
N710 N 0.57935 0.62839 0.897 0.0
N711 N 0.51289 0.5216 0.90329 0.0
H712 H 0.55264 0.56021 0.99516 0.0
H713 H 0.53487 0.52873 0.97139 0.0
H714 H 0.50108 0.51235 0.87897 0.0
H715 H 0.50425 0.51308 0.92906 0.0
H716 H 0.58353 0.63834 0.87155 0.0
H717 H 0.58714 0.64088 0.92149 0.0
H718 H 0.55404 0.61391 0.83117 0.0
H719 H 0.53897 0.58175 0.80951 0.0
C720 C 0.00889 0.56492 0.90243 0.0
C721 C 0.02036 0.59294 0.90527 0.0
C722 C 0.03388 0.5961 0.83856 0.0
C723 C 0.01891 0.56797 0.83409 0.0
N724 N 0.98974 0.52521 0.86057 0.0
N725 N 0.03934 0.6347 0.87374 0.0
C726 C 0.00582 0.55218 0.86575 0.0
C727 C 0.03183 0.60848 0.8728 0.0
N728 N 1.00172 0.55061 0.9348 0.0
N729 N 0.05033 0.61099 0.81024 0.0
H730 H 0.03698 0.64441 0.89758 0.0
H731 H 0.04531 0.64607 0.84952 0.0
H732 H 0.05274 0.60254 0.78493 0.0
H733 H 0.06353 0.63144 0.81359 0.0
H734 H 0.99567 0.53056 0.93472 0.0
H735 H 0.00424 0.55936 0.96225 0.0
H736 H 0.97754 0.51304 0.8818 0.0
H737 H 0.98706 0.51518 0.83413 0.0
C738 C 0.41237 0.41623 0.90226 0.0
C739 C 0.40882 0.39358 0.9205 0.0
C740 C 0.44384 0.39509 0.88214 0.0
C741 C 0.44823 0.41849 0.86545 0.0
N742 N 0.44061 0.45446 0.86459 0.0
N743 N 0.42537 0.36548 0.93465 0.0
C744 C 0.4338 0.43013 0.8773 0.0
C745 C 0.42574 0.38412 0.9124 0.0
N746 N 0.39442 0.42352 0.90695 0.0
N747 N 0.45642 0.38291 0.86833 0.0
H748 H 0.41305 0.35749 0.95793 0.0
H749 H 0.43903 0.35984 0.93248 0.0
H750 H 0.47073 0.39098 0.84739 0.0
H751 H 0.45146 0.36397 0.87582 0.0
H752 H 0.39447 0.43809 0.89126 0.0
H753 H 0.37797 0.41337 0.92398 0.0
H754 H 0.43258 0.46527 0.87518 0.0
H755 H 0.45603 0.46495 0.84588 0.0
C756 C 0.57419 0.98522 0.87119 0.0
C757 C 0.57752 0.00295 0.90249 0.0
C758 C 0.54912 0.01449 0.87015 0.0
C759 C 0.54558 0.99647 0.83939 0.0
N760 N 0.54802 0.95912 0.81569 0.0
N761 N 0.56229 0.02853 0.93643 0.0
C762 C 0.55574 0.97982 0.84189 0.0
C763 C 0.56313 0.01576 0.90345 0.0
N764 N 0.58995 0.97512 0.86772 0.0
N765 N 0.54017 0.03125 0.86688 0.0
H766 H 0.57174 0.02928 0.96165 0.0
H767 H 0.55015 0.03602 0.93991 0.0
H768 H 0.52912 0.03029 0.84344 0.0
H769 H 0.54499 0.04707 0.8863 0.0
H770 H 0.59014 0.96444 0.84337 0.0
H771 H 0.60477 0.97957 0.88727 0.0
H772 H 0.55292 0.9448 0.81796 0.0
H773 H 0.53448 0.9548 0.79389 0.0
C774 C 0.55661 0.97176 0.08996 0.0
C775 C 0.57536 0.99897 0.08444 0.0
C776 C 0.56391 0.01114 0.14616 0.0
C777 C 0.54832 0.98376 0.15403 0.0
N778 N 0.53228 0.9378 0.13552 0.0
N779 N 0.5985 0.0448 0.10793 0.0
C780 C 0.54514 0.96396 0.1264 0.0
C781 C 0.57927 0.01883 0.1125 0.0
N782 N 0.54923 0.95345 0.06003 0.0
N783 N 0.56383 0.02966 0.1708 0.0
H784 H 0.6101 0.05118 0.08363 0.0
H785 H 0.60425 0.05972 0.1293 0.0
H786 H 0.55279 0.02452 0.19572 0.0
H787 H 0.57279 0.04971 0.16496 0.0
H788 H 0.53376 0.93379 0.06141 0.0
H789 H 0.55672 0.95853 0.03254 0.0
H790 H 0.53215 0.92303 0.11805 0.0
H791 H 0.52349 0.93106 0.1619 0.0
C792 C 0.01519 0.57075 0.10501 0.0
C793 C 0.03128 0.59741 0.09391 0.0
C794 C 0.05869 0.60822 0.1511 0.0
C795 C 0.04055 0.58277 0.16476 0.0
N796 N 1.00031 0.54018 0.15673 0.0
N797 N 0.06612 0.6427 0.10873 0.0
C798 C 0.01855 0.56399 0.14213 0.0
C799 C 0.05262 0.61645 0.11739 0.0
N800 N 0.99717 0.5518 0.07974 0.0
N801 N 0.08178 0.62441 0.17038 0.0
H802 H 0.06164 0.64968 0.08501 0.0
H803 H 0.08005 0.65789 0.12693 0.0
H804 H 0.0868 0.61882 0.19518 0.0
H805 H 0.0969 0.64216 0.15987 0.0
H806 H 0.98675 0.53153 0.08465 0.0
H807 H 0.9942 0.55609 0.0523 0.0
H808 H 0.98235 0.52703 0.14352 0.0
H809 H 0.00239 0.53424 0.18343 0.0
C810 C 0.41938 0.41052 0.13859 0.0
C811 C 0.41798 0.42592 0.1098 0.0
C812 C 0.43634 0.46493 0.15436 0.0
C813 C 0.43785 0.44949 0.1829 0.0
N814 N 0.43725 0.41022 0.20018 0.0
N815 N 0.42909 0.46858 0.08731 0.0
C816 C 0.43136 0.42306 0.17433 0.0
C817 C 0.42791 0.45348 0.11669 0.0
N818 N 0.40881 0.38379 0.13206 0.0
N819 N 0.44186 0.49006 0.16378 0.0
H820 H 0.42195 0.46062 0.05981 0.0
H821 H 0.43864 0.48924 0.08936 0.0
H822 H 0.44869 0.49923 0.19086 0.0
H823 H 0.43836 0.50135 0.14563 0.0
H824 H 0.40622 0.37092 0.15342 0.0
H825 H 0.40107 0.374 0.10565 0.0
H826 H 0.43549 0.39197 0.19421 0.0
H827 H 0.44626 0.41896 0.2266 0.0
C828 C 0.68466 0.78566 0.43164 0.0
C829 C 0.70373 0.77976 0.41997 0.0
C830 C 0.729 0.80168 0.47881 0.0
C831 C 0.70828 0.80436 0.49262 0.0
N832 N 0.66591 0.7983 0.48389 0.0
N833 N 0.74266 0.77938 0.4336 0.0
C834 C 0.68603 0.79639 0.46938 0.0
C835 C 0.72573 0.78731 0.44363 0.0
N836 N 0.66564 0.78153 0.4063 0.0
N837 N 0.75185 0.81301 0.49936 0.0
H838 H 0.74092 0.76869 0.40815 0.0
H839 H 0.75723 0.78148 0.45179 0.0
H840 H 0.75479 0.82337 0.52559 0.0
H841 H 0.76865 0.81419 0.48896 0.0
H842 H 0.65264 0.78777 0.41165 0.0
H843 H 0.66419 0.77376 0.37841 0.0
H844 H 0.64786 0.79003 0.47021 0.0
H845 H 0.66677 0.807 0.51089 0.0
C846 C 0.24788 0.94632 0.47868 0.0
C847 C 0.25031 0.93024 0.44968 0.0
C848 C 0.21591 0.89042 0.4805 0.0
C849 C 0.21818 0.90646 0.51336 0.0
N850 N 0.2198 0.94744 0.52746 0.0
N851 N 0.23535 0.88623 0.42185 0.0
C852 C 0.22923 0.93393 0.50773 0.0
C853 C 0.2341 0.90203 0.45034 0.0
N854 N 0.26417 0.97338 0.47975 0.0
N855 N 0.19355 0.86625 0.47428 0.0
H856 H 0.24689 0.89367 0.3977 0.0
H857 H 0.22592 0.86563 0.42354 0.0
H858 H 0.17704 0.86065 0.49078 0.0
H859 H 0.18977 0.85438 0.44937 0.0
H860 H 0.26458 0.98556 0.50254 0.0
H861 H 0.279 0.98338 0.46002 0.0
H862 H 0.22545 0.96693 0.522 0.0
H863 H 0.20395 0.93782 0.54581 0.0
C864 C 0.1122 0.34066 0.43346 0.0
C865 C 0.0863 0.32251 0.42014 0.0
C866 C 0.07845 0.29425 0.47396 0.0
C867 C 0.10319 0.31382 0.48965 0.0
N868 N 0.14309 0.35661 0.48677 0.0
N869 N 0.04304 0.28487 0.43143 0.0
C870 C 0.12003 0.33729 0.47 0.0
C871 C 0.06896 0.29998 0.44128 0.0
N872 N 0.12939 0.36061 0.41078 0.0
N873 N 0.06415 0.27004 0.49011 0.0
H874 H 0.03497 0.28892 0.40849 0.0
H875 H 0.02902 0.26996 0.44824 0.0
H876 H 0.07045 0.26504 0.51418 0.0
H877 H 0.04724 0.25403 0.47754 0.0
H878 H 0.14924 0.37286 0.41705 0.0
H879 H 0.12415 0.36368 0.38403 0.0
H880 H 0.15493 0.37543 0.47597 0.0
H881 H 0.14967 0.35437 0.51297 0.0
C882 C 0.11505 0.34879 0.23087 0.0
C883 C 0.08825 0.33969 0.23609 0.0
C884 C 0.07806 0.31632 0.17328 0.0
C885 C 0.10509 0.32951 0.16532 0.0
N886 N 0.14974 0.36049 0.18541 0.0
N887 N 0.04461 0.31825 0.209 0.0
C888 C 0.12379 0.34621 0.1939 0.0
C889 C 0.06974 0.32412 0.2066 0.0
N890 N 0.132 0.35911 0.26141 0.0
N891 N 0.06035 0.29625 0.14897 0.0
H892 H 0.03781 0.32478 0.2318 0.0
H893 H 0.0312 0.3093 0.18638 0.0
H894 H 0.06588 0.2897 0.12458 0.0
H895 H 0.04059 0.28433 0.15521 0.0
H896 H 0.1512 0.36372 0.25991 0.0
H897 H 0.12613 0.36038 0.28921 0.0
H898 H 0.16391 0.37517 0.20395 0.0
H899 H 0.15695 0.35917 0.1587 0.0
C900 C 0.66086 0.77362 0.23489 0.0
C901 C 0.66965 0.75566 0.23691 0.0
C902 C 0.6885 0.76798 0.17321 0.0
C903 C 0.67561 0.78193 0.16852 0.0
N904 N 0.64732 0.79619 0.19377 0.0
N905 N 0.68791 0.73222 0.20461 0.0
C906 C 0.66133 0.78448 0.19916 0.0
C907 C 0.68267 0.75205 0.20532 0.0
N908 N 0.65288 0.78097 0.26727 0.0
N909 N 0.70633 0.77 0.14689 0.0
H910 H 0.6826 0.71886 0.22638 0.0
H911 H 0.69497 0.72715 0.1805 0.0
H912 H 0.71135 0.78193 0.12329 0.0
H913 H 0.71804 0.76217 0.15071 0.0
H914 H 0.64865 0.79591 0.26811 0.0
H915 H 0.6531 0.77415 0.2942 0.0
H916 H 0.63423 0.79587 0.21378 0.0
H917 H 0.64727 0.80456 0.16815 0.0
C918 C 0.25134 0.89157 0.25505 0.0
C919 C 0.24578 0.911 0.26819 0.0
C920 C 0.22223 0.90505 0.20833 0.0
C921 C 0.23098 0.88849 0.19342 0.0
N922 N 0.25634 0.86814 0.20051 0.0
N923 N 0.22753 0.93791 0.25738 0.0
C924 C 0.24609 0.88218 0.21627 0.0
C925 C 0.23138 0.91803 0.24503 0.0
N926 N 0.26107 0.88164 0.27999 0.0
N927 N 0.20501 0.9081 0.18753 0.0
H928 H 0.23365 0.94755 0.28433 0.0
H929 H 0.2198 0.94605 0.24012 0.0
H930 H 0.19825 0.89908 0.16034 0.0
H931 H 0.19586 0.91776 0.19828 0.0
H932 H 0.26304 0.86551 0.27307 0.0
H933 H 0.26475 0.88779 0.30888 0.0
H934 H 0.27003 0.86571 0.21454 0.0
H935 H 0.25284 0.86064 0.17221 0.0
C936 C 0.69005 0.91689 0.23983 0.0
C937 C 0.66483 0.90743 0.2549 0.0
C938 C 0.64512 0.87856 0.19727 0.0
C939 C 0.66997 0.89128 0.17998 0.0
N940 N 0.71604 0.92465 0.18301 0.0
N941 N 0.61792 0.88145 0.24618 0.0
C942 C 0.69251 0.91089 0.20084 0.0
C943 C 0.64218 0.88856 0.2334 0.0
N944 N 0.71161 0.93105 0.26307 0.0
N945 N 0.62438 0.85684 0.17917 0.0
H946 H 0.61475 0.8886 0.2721 0.0
H947 H 0.60101 0.87021 0.22955 0.0
H948 H 0.62597 0.84908 0.15259 0.0
H949 H 0.60636 0.84509 0.19202 0.0
H950 H 0.73029 0.93627 0.25463 0.0
H951 H 0.71048 0.93519 0.2921 0.0
H952 H 0.73242 0.94128 0.19559 0.0
H953 H 0.71876 0.92078 0.15451 0.0
C954 C 0.09472 0.78242 0.24335 0.0
C955 C 0.08011 0.7551 0.25203 0.0
C956 C 0.09436 0.74357 0.19239 0.0
C957 C 0.10702 0.7705 0.18204 0.0
N958 N 0.1161 0.81499 0.19462 0.0
N959 N 0.06222 0.70903 0.23202 0.0
C960 C 0.10642 0.78984 0.20674 0.0
C961 C 0.07865 0.73546 0.22559 0.0
N962 N 0.09754 0.80128 0.2702 0.0
N963 N 0.09829 0.72597 0.17137 0.0
H964 H 0.05067 0.70213 0.25624 0.0
H965 H 0.05824 0.6939 0.21173 0.0
H966 H 0.11028 0.73133 0.14746 0.0
H967 H 0.09181 0.70679 0.17968 0.0
H968 H 0.11051 0.82162 0.26749 0.0
H969 H 0.08796 0.79654 0.29638 0.0
H970 H 0.11369 0.82915 0.20952 0.0
H971 H 0.12484 0.82119 0.16807 0.0
C972 C 0.24601 0.31121 0.19514 0.0
C973 C 0.24749 0.32822 0.22629 0.0
C974 C 0.22015 0.33951 0.19031 0.0
C975 C 0.21794 0.32171 0.16 0.0
N976 N 0.22241 0.28523 0.13801 0.0
N977 N 0.23056 0.35315 0.25737 0.0
C978 C 0.22872 0.3057 0.16405 0.0
C979 C 0.23289 0.34075 0.22506 0.0
N980 N 0.26238 0.30177 0.19377 0.0
N981 N 0.21107 0.35602 0.18539 0.0
H982 H 0.2391 0.35394 0.28354 0.0
H983 H 0.21809 0.36032 0.25921 0.0
H984 H 0.20118 0.35532 0.16067 0.0
H985 H 0.21484 0.37157 0.20473 0.0
H986 H 0.26398 0.29168 0.16977 0.0
H987 H 0.27635 0.30629 0.21487 0.0
H988 H 0.22769 0.27128 0.14145 0.0
H989 H 0.2096 0.28059 0.11501 0.0
C990 C 0.24548 0.34535 0.43712 0.0
C991 C 0.24078 0.3235 0.4125 0.0
C992 C 0.21292 0.29228 0.46065 0.0
C993 C 0.21657 0.31401 0.48448 0.0
N994 N 0.23179 0.3606 0.49288 0.0
N995 N 0.21505 0.27635 0.39657 0.0
C996 C 0.23141 0.34039 0.47184 0.0
C997 C 0.22299 0.29699 0.423 0.0
N998 N 0.26435 0.3707 0.4284 0.0
N999 N 0.20078 0.26728 0.47448 0.0
H1000 H 0.2215 0.27907 0.36834 0.0
H1001 H 0.20013 0.2569 0.40143 0.0
H1002 H 0.19292 0.26287 0.50185 0.0
H1003 H 0.20033 0.2513 0.45998 0.0
H1004 H 0.2707 0.38711 0.44731 0.0
H1005 H 0.27525 0.37519 0.40342 0.0
H1006 H 0.24007 0.3798 0.48331 0.0
H1007 H 0.22179 0.35759 0.51857 0.0
C1008 C 0.68627 0.90877 0.4386 0.0
C1009 C 0.70119 0.936 0.42964 0.0
C1010 C 0.72702 0.94647 0.48857 0.0
C1011 C 0.70975 0.9201 0.5 0.0
N1012 N 0.67159 0.87637 0.48781 0.0
N1013 N 0.7337 0.98163 0.44807 0.0
C1014 C 0.68911 0.90119 0.4754 0.0
C1015 C 0.72121 0.9551 0.45496 0.0
N1016 N 0.66994 0.8901 0.41154 0.0
N1017 N 0.74911 0.96315 0.50975 0.0
H1018 H 0.72981 0.98895 0.42412 0.0
H1019 H 0.74631 0.99661 0.46772 0.0
H1020 H 0.75398 0.95735 0.53448 0.0
H1021 H 0.76378 0.98175 0.50095 0.0
H1022 H 0.66055 0.86969 0.4149 0.0
H1023 H 0.66762 0.89499 0.38419 0.0
H1024 H 0.6544 0.86278 0.47304 0.0
H1025 H 0.67329 0.86988 0.51426 0.0
C1026 C 0.07304 0.79425 0.45523 0.0
C1027 C 0.07862 0.77786 0.43131 0.0
C1028 C 0.10713 0.77854 0.48125 0.0
C1029 C 0.10226 0.79564 0.50458 0.0
N1030 N 0.08597 0.82492 0.5107 0.0
N1031 N 0.10656 0.76085 0.41737 0.0
C1032 C 0.08706 0.8053 0.49038 0.0
C1033 C 0.09748 0.77209 0.44301 0.0
N1034 N 0.05317 0.79778 0.44589 0.0
N1035 N 0.11968 0.76721 0.49614 0.0
H1036 H 0.10031 0.75629 0.38887 0.0
H1037 H 0.1222 0.75867 0.42324 0.0
H1038 H 0.12719 0.77132 0.524 0.0
H1039 H 0.12081 0.75206 0.48182 0.0
H1040 H 0.04641 0.80705 0.46437 0.0
H1041 H 0.0418 0.78947 0.42108 0.0
H1042 H 0.07725 0.83462 0.50016 0.0
H1043 H 0.09601 0.83324 0.53663 0.0
C1044 C 0.29612 0.0811 0.80933 0.0
C1045 C 0.30995 0.09232 0.77512 0.0
C1046 C 0.32838 0.13677 0.80532 0.0
C1047 C 0.32144 0.12528 0.84143 0.0
N1048 N 0.28601 0.0896 0.87414 0.0
N1049 N 0.33796 0.13167 0.73954 0.0
C1050 C 0.3009 0.09828 0.84214 0.0
C1051 C 0.32568 0.12043 0.77272 0.0
N1052 N 0.28021 0.05413 0.81145 0.0
N1053 N 0.33277 0.16155 0.80104 0.0
H1054 H 0.33553 0.1206 0.71424 0.0
H1055 H 0.35165 0.152 0.73808 0.0
H1056 H 0.328 0.17093 0.82267 0.0
H1057 H 0.33621 0.17025 0.77458 0.0
H1058 H 0.27189 0.04472 0.83679 0.0
H1059 H 0.27646 0.04089 0.78823 0.0
H1060 H 0.26938 0.07069 0.8761 0.0
H1061 H 0.28931 0.10265 0.89755 0.0
C1062 C 0.88257 0.24759 0.77862 0.0
C1063 C 0.91 0.26023 0.77419 0.0
C1064 C 0.91361 0.24626 0.83749 0.0
C1065 C 0.88714 0.23761 0.84433 0.0
N1066 N 0.84642 0.23141 0.8227 0.0
N1067 N 0.95238 0.27539 0.80214 0.0
C1068 C 0.87149 0.23842 0.81514 0.0
C1069 C 0.92575 0.26038 0.80419 0.0
N1070 N 0.86708 0.24367 0.7477 0.0
N1071 N 0.92711 0.24084 0.86284 0.0
H1072 H 0.96231 0.28707 0.77908 0.0
H1073 H 0.96467 0.27844 0.82506 0.0
H1074 H 0.91868 0.23025 0.88742 0.0
H1075 H 0.94569 0.2444 0.85749 0.0
H1076 H 0.84677 0.2323 0.74828 0.0
H1077 H 0.8745 0.24966 0.72039 0.0
H1078 H 0.83503 0.23446 0.80401 0.0
H1079 H 0.83752 0.2241 0.84885 0.0
C1080 C 0.72268 0.62542 0.78813 0.0
C1081 C 0.73995 0.64662 0.76485 0.0
C1082 C 0.77593 0.65978 0.81004 0.0
C1083 C 0.7589 0.63759 0.83188 0.0
N1084 N 0.71815 0.59574 0.83722 0.0
N1085 N 0.78378 0.68121 0.74953 0.0
C1086 C 0.73294 0.6192 0.81933 0.0
C1087 C 0.76686 0.66303 0.77456 0.0
N1088 N 0.6963 0.6123 0.78196 0.0
N1089 N 0.80036 0.6782 0.82385 0.0
H1090 H 0.77771 0.68416 0.72344 0.0
H1091 H 0.80398 0.69181 0.75314 0.0
H1092 H 0.80786 0.67603 0.84922 0.0
H1093 H 0.8126 0.69637 0.81148 0.0
H1094 H 0.6827 0.59853 0.80051 0.0
H1095 H 0.68783 0.61718 0.76059 0.0
H1096 H 0.69996 0.58045 0.82692 0.0
H1097 H 0.72515 0.59049 0.86021 0.0
C1098 C 0.77412 0.69193 0.5763 0.0
C1099 C 0.75381 0.66991 0.59553 0.0
C1100 C 0.75107 0.63963 0.54303 0.0
C1101 C 0.77227 0.6615 0.52504 0.0
N1102 N 0.80801 0.7071 0.52857 0.0
N1103 N 0.72771 0.62226 0.60185 0.0
C1104 C 0.78518 0.6872 0.54318 0.0
C1105 C 0.74368 0.64356 0.5803 0.0
N1106 N 0.78168 0.71737 0.58798 0.0
N1107 N 0.73723 0.61538 0.52393 0.0
H1108 H 0.72235 0.62424 0.62965 0.0
H1109 H 0.72192 0.60276 0.59366 0.0
H1110 H 0.74227 0.6115 0.49688 0.0
H1111 H 0.71966 0.59965 0.53376 0.0
H1112 H 0.79439 0.73394 0.5725 0.0
H1113 H 0.77335 0.72188 0.611 0.0
H1114 H 0.81968 0.72562 0.5426 0.0
H1115 H 0.81656 0.70413 0.50428 0.0
C1116 C 0.35597 0.11834 0.58093 0.0
C1117 C 0.33013 0.1011 0.59372 0.0
C1118 C 0.31319 0.11044 0.53703 0.0
C1119 C 0.33851 0.12364 0.52132 0.0
N1120 N 0.38395 0.1376 0.52646 0.0
N1121 N 0.28364 0.07753 0.58077 0.0
C1122 C 0.35998 0.12714 0.54286 0.0
C1123 C 0.30854 0.09652 0.57119 0.0
N1124 N 0.37667 0.12695 0.60543 0.0
N1125 N 0.29358 0.11111 0.51902 0.0
H1126 H 0.27925 0.06573 0.60432 0.0
H1127 H 0.2675 0.07155 0.56314 0.0
H1128 H 0.29658 0.12128 0.49395 0.0
H1129 H 0.27526 0.10396 0.53094 0.0
H1130 H 0.39573 0.14153 0.59868 0.0
H1131 H 0.37448 0.12165 0.63393 0.0
H1132 H 0.39942 0.13757 0.53933 0.0
H1133 H 0.38789 0.14448 0.49875 0.0
C1134 C 0.90232 0.27285 0.55125 0.0
C1135 C 0.9003 0.25867 0.58417 0.0
C1136 C 0.87109 0.217 0.54847 0.0
C1137 C 0.8805 0.23053 0.51399 0.0
N1138 N 0.88674 0.26984 0.4863 0.0
N1139 N 0.87952 0.21689 0.6158 0.0
C1140 C 0.89059 0.25826 0.5163 0.0
C1141 C 0.88352 0.2306 0.58344 0.0
N1142 N 0.9163 0.30001 0.55292 0.0
N1143 N 0.84786 0.19334 0.54849 0.0
H1144 H 0.88735 0.22631 0.64247 0.0
H1145 H 0.86937 0.19615 0.61541 0.0
H1146 H 0.83608 0.18585 0.52389 0.0
H1147 H 0.8389 0.18361 0.57343 0.0
H1148 H 0.92103 0.31133 0.52876 0.0
H1149 H 0.92396 0.31118 0.5785 0.0
H1150 H 0.89164 0.28956 0.48714 0.0
H1151 H 0.87595 0.25852 0.46209 0.0
C1152 C 0.33488 0.23039 0.57435 0.0
C1153 C 0.35234 0.25765 0.58484 0.0
C1154 C 0.37199 0.26565 0.52126 0.0
C1155 C 0.35492 0.23827 0.51107 0.0
N1156 N 0.32325 0.19354 0.5289 0.0
N1157 N 0.39062 0.30019 0.57178 0.0
C1158 C 0.33743 0.22027 0.53805 0.0
C1159 C 0.37179 0.27502 0.55925 0.0
N1160 N 0.315 0.21454 0.59824 0.0
N1161 N 0.38807 0.28272 0.49436 0.0
H1162 H 0.39108 0.30777 0.59941 0.0
H1163 H 0.407 0.31289 0.55603 0.0
H1164 H 0.39009 0.27634 0.46696 0.0
H1165 H 0.39844 0.30335 0.49835 0.0
H1166 H 0.29982 0.19535 0.59052 0.0
H1167 H 0.31246 0.22123 0.62508 0.0
H1168 H 0.31254 0.17913 0.54873 0.0
H1169 H 0.32358 0.18544 0.50197 0.0
C1170 C 0.76624 0.11364 0.5694 0.0
C1171 C 0.75319 0.08675 0.58014 0.0
C1172 C 0.77051 0.07527 0.52403 0.0
C1173 C 0.78165 0.10153 0.51153 0.0
N1174 N 0.78565 0.14422 0.51793 0.0
N1175 N 0.73755 0.04071 0.56244 0.0
C1176 C 0.77834 0.12038 0.53302 0.0
C1177 C 0.75359 0.06714 0.55581 0.0
N1178 N 0.76701 0.13271 0.59383 0.0
N1179 N 0.77679 0.05834 0.50639 0.0
H1180 H 0.72421 0.03372 0.58459 0.0
H1181 H 0.73536 0.0256 0.5434 0.0
H1182 H 0.78959 0.06371 0.48344 0.0
H1183 H 0.77142 0.03995 0.51691 0.0
H1184 H 0.77888 0.15302 0.58957 0.0
H1185 H 0.7569 0.12832 0.61956 0.0
H1186 H 0.78128 0.15766 0.53046 0.0
H1187 H 0.79428 0.14967 0.49114 0.0
C1188 C 0.90974 0.63841 0.54696 0.0
C1189 C 0.90924 0.65324 0.57965 0.0
C1190 C 0.88054 0.66345 0.54532 0.0
C1191 C 0.8806 0.64813 0.51303 0.0
N1192 N 0.88873 0.61486 0.48705 0.0
N1193 N 0.88803 0.67286 0.61369 0.0
C1194 C 0.89301 0.63349 0.51528 0.0
C1195 C 0.89266 0.66355 0.58 0.0
N1196 N 0.92736 0.63057 0.5449 0.0
N1197 N 0.87014 0.67897 0.54244 0.0
H1198 H 0.89589 0.67236 0.63983 0.0
H1199 H 0.87425 0.67834 0.61635 0.0
H1200 H 0.86099 0.67944 0.51763 0.0
H1201 H 0.8723 0.69288 0.56373 0.0
H1202 H 0.93048 0.62235 0.52001 0.0
H1203 H 0.94059 0.6344 0.56684 0.0
H1204 H 0.8953 0.60182 0.48884 0.0
H1205 H 0.87633 0.61064 0.46366 0.0
C1206 C 0.91348 0.68325 0.79073 0.0
C1207 C 0.90765 0.66305 0.76212 0.0
C1208 C 0.87334 0.62957 0.80206 0.0
C1209 C 0.87872 0.64981 0.83039 0.0
N1210 N 0.89939 0.69637 0.84837 0.0
N1211 N 0.8772 0.61895 0.73559 0.0
C1212 C 0.89731 0.67686 0.82351 0.0
C1213 C 0.88602 0.63681 0.76624 0.0
N1214 N 0.93522 0.70808 0.78768 0.0
N1215 N 0.85728 0.60335 0.81 0.0
H1216 H 0.88561 0.62377 0.70857 0.0
H1217 H 0.85995 0.60036 0.73586 0.0
H1218 H 0.84755 0.59699 0.83586 0.0
H1219 H 0.85524 0.58782 0.79208 0.0
H1220 H 0.94213 0.72276 0.80962 0.0
H1221 H 0.94758 0.71349 0.76421 0.0
H1222 H 0.91083 0.71658 0.84325 0.0
H1223 H 0.88774 0.69218 0.87256 0.0
C1224 C 0.38061 0.29651 0.8006 0.0
C1225 C 0.35565 0.28125 0.78248 0.0
C1226 C 0.34328 0.24455 0.82497 0.0
C1227 C 0.36818 0.25981 0.84302 0.0
N1228 N 0.41216 0.29777 0.84464 0.0
N1229 N 0.31468 0.23951 0.7727 0.0
C1230 C 0.38735 0.28508 0.82976 0.0
C1231 C 0.3375 0.25478 0.79304 0.0
N1232 N 0.39779 0.32197 0.78998 0.0
N1233 N 0.32474 0.22087 0.83965 0.0
H1234 H 0.30881 0.2468 0.75093 0.0
H1235 H 0.30212 0.21917 0.77578 0.0
H1236 H 0.32849 0.2124 0.86229 0.0
H1237 H 0.30523 0.2102 0.831 0.0
H1238 H 0.41483 0.33541 0.80512 0.0
H1239 H 0.3946 0.33029 0.76658 0.0
H1240 H 0.42785 0.3151 0.83415 0.0
H1241 H 0.41767 0.2898 0.86592 0.0
C1242 C 0.74804 0.07436 0.80083 0.0
C1243 C 0.74829 0.0887 0.76915 0.0
C1244 C 0.76892 0.13001 0.80923 0.0
C1245 C 0.76992 0.11581 0.84012 0.0
N1246 N 0.76647 0.07623 0.86288 0.0
N1247 N 0.76333 0.13077 0.74073 0.0
C1248 C 0.76144 0.08853 0.83504 0.0
C1249 C 0.75999 0.11675 0.7726 0.0
N1250 N 0.73374 0.04713 0.7991 0.0
N1251 N 0.77573 0.15588 0.81522 0.0
H1252 H 0.75719 0.12173 0.71344 0.0
H1253 H 0.77411 0.15147 0.74073 0.0
H1254 H 0.78305 0.16638 0.8414 0.0
H1255 H 0.77263 0.1664 0.79508 0.0
H1256 H 0.73062 0.03574 0.82275 0.0
H1257 H 0.72273 0.03581 0.77512 0.0
H1258 H 0.76311 0.05712 0.85914 0.0
H1259 H 0.77641 0.08607 0.88833 0.0
C1260 C 0.05392 0.32925 0.00283 0.0
C1261 C 0.06448 0.35648 0.99569 0.0
C1262 C 0.1073 0.36784 0.01996 0.0
C1263 C 0.09644 0.34085 0.02867 0.0
N1264 N 0.06189 0.29487 0.02015 0.0
N1265 N 0.10195 0.40046 0.9883 0.0
C1266 C 0.07059 0.3212 0.01697 0.0
C1267 C 0.0915 0.37539 0.00124 0.0
N1268 N 0.02765 0.31142 -0.00134 0.0
N1269 N 0.13236 0.38632 0.03119 0.0
H1270 H 0.09075 0.40637 0.97435 0.0
H1271 H 0.12186 0.41466 0.98844 0.0
H1272 H 0.14471 0.38105 0.04308 0.0
H1273 H 0.14065 0.40678 0.03009 0.0
H1274 H 0.01819 0.29208 0.00802 0.0
H1275 H 0.0148 0.31638 0.98792 0.0
H1276 H 0.04418 0.27941 0.00879 0.0
H1277 H 0.07342 0.28837 0.0313 0.0
C1278 C 0.62084 0.71056 0.01402 0.0
C1279 C 0.64026 0.70513 0.00257 0.0
C1280 C 0.67467 0.75131 0.01816 0.0
C1281 C 0.65538 0.75622 0.03232 0.0
N1282 N 0.61062 0.74381 0.03485 0.0
N1283 N 0.68453 0.72122 0.98368 0.0
C1284 C 0.62853 0.73687 0.0269 0.0
C1285 C 0.66682 0.72593 0.00095 0.0
N1286 N 0.59523 0.69031 0.01385 0.0
N1287 N 0.70052 0.77023 0.02386 0.0
H1288 H 0.67951 0.70261 0.97185 0.0
H1289 H 0.70371 0.73608 0.97828 0.0
H1290 H 0.70702 0.78936 0.03507 0.0
H1291 H 0.71555 0.76675 0.01912 0.0
H1292 H 0.58027 0.69207 0.02565 0.0
H1293 H 0.58899 0.67119 0.00279 0.0
H1294 H 0.5907 0.73138 0.02936 0.0
H1295 H 0.61621 0.76312 0.04416 0.0
C1296 C 0.30433 0.91643 0.03677 0.0
C1297 C 0.30446 0.93795 0.02015 0.0
C1298 C 0.25968 0.92104 0.04137 0.0
C1299 C 0.25984 0.90003 0.05911 0.0
N1300 N 0.2799 0.87454 0.06836 0.0
N1301 N 0.28123 0.95793 -0.00122 0.0
C1302 C 0.28134 0.89659 0.05476 0.0
C1303 C 0.28172 0.93933 0.01997 0.0
N1304 N 0.3267 0.91586 0.03737 0.0
N1305 N 0.23876 0.9239 0.04615 0.0
H1306 H 0.29707 0.97133 0.98258 0.0
H1307 H 0.26465 0.95879 0.9946 0.0
H1308 H 0.22178 0.90999 0.05987 0.0
H1309 H 0.23847 0.94043 0.03801 0.0
H1310 H 0.32917 0.90297 0.05348 0.0
H1311 H 0.34362 0.92939 0.02329 0.0
H1312 H 0.29349 0.86919 0.06229 0.0
H1313 H 0.26413 0.86034 0.08379 0.0
C1314 C 0.38254 0.08533 0.95665 0.0
C1315 C 0.36487 0.07121 0.98629 0.0
C1316 C 0.34651 0.09948 0.98335 0.0
C1317 C 0.36426 0.11367 0.95384 0.0
N1318 N 0.40236 0.12384 0.91723 0.0
N1319 N 0.33362 0.06745 0.03303 0.0
C1320 C 0.38345 0.1079 0.94229 0.0
C1321 C 0.34797 0.07916 0.00129 0.0
N1322 N 0.39723 0.07613 0.94047 0.0
N1323 N 0.32777 0.10492 0.99326 0.0
H1324 H 0.33434 0.05252 0.04667 0.0
H1325 H 0.32268 0.07386 0.0477 0.0
H1326 H 0.32702 0.12055 0.98203 0.0
H1327 H 0.31225 0.09331 0.01112 0.0
H1328 H 0.40804 0.08346 0.9157 0.0
H1329 H 0.39725 0.05974 0.95014 0.0
H1330 H 0.41859 0.12257 0.91102 0.0
H1331 H 0.40303 0.13985 0.90474 0.0
C1332 C 0.9149 0.31185 0.00384 0.0
C1333 C 0.93916 0.31502 0.01367 0.0
C1334 C 0.92327 0.26909 0.99162 0.0
C1335 C 0.89935 0.2662 0.98019 0.0
N1336 N 0.86975 0.28168 0.9832 0.0
N1337 N 0.96408 0.29523 0.02727 0.0
C1338 C 0.89427 0.28659 0.98918 0.0
C1339 C 0.94251 0.29307 0.01102 0.0
N1340 N 0.91212 0.33332 0.00669 0.0
N1341 N 0.92823 0.2496 0.98175 0.0
H1342 H 0.97853 0.31263 0.04161 0.0
H1343 H 0.96657 0.27923 0.02961 0.0
H1344 H 0.91436 0.23136 0.96869 0.0
H1345 H 0.94651 0.25197 0.9846 0.0
H1346 H 0.89605 0.33325 0.99608 0.0
H1347 H 0.92664 0.35185 0.01822 0.0
H1348 H 0.86393 0.29482 0.9917 0.0
H1349 H 0.85448 0.26326 0.97249 0.0
C1350 C 0.72092 0.65848 0.99229 0.0
C1351 C 0.69601 0.63457 0.99208 0.0
C1352 C 0.71541 0.6088 0.97127 0.0
C1353 C 0.73987 0.63296 0.96809 0.0
N1354 N 0.76793 0.6793 0.98521 0.0
N1355 N 0.67051 0.58657 0.99228 0.0
C1356 C 0.74327 0.65733 0.98232 0.0
C1357 C 0.69367 0.60956 0.98569 0.0
N1358 N 0.72294 0.68225 0.0008 0.0
N1359 N 0.71245 0.58541 0.95733 0.0
H1360 H 0.65374 0.58616 0.00096 0.0
H1361 H 0.66838 0.56794 0.99213 0.0
H1362 H 0.72805 0.58383 0.94797 0.0
H1363 H 0.69445 0.56775 0.95339 0.0
H1364 H 0.73991 0.70072 -0.00241 0.0
H1365 H 0.70713 0.6835 0.01029 0.0
H1366 H 0.7724 0.69759 -0.00259 0.0
H1367 H 0.7843 0.6784 0.97799 0.0
C1368 C 0.9323 0.65102 0.99549 0.0
C1369 C 0.93501 0.62929 0.98441 0.0
C1370 C 0.89113 0.60554 0.95587 0.0
C1371 C 0.89076 0.62925 0.96012 0.0
N1372 N 0.90954 0.67409 0.98563 0.0
N1373 N 0.91752 0.58583 0.95323 0.0
C1374 C 0.91073 0.65173 0.98113 0.0
C1375 C 0.91429 0.6062 0.96526 0.0
N1376 N 0.95038 0.67083 0.01973 0.0
N1377 N 0.86956 0.58265 0.94178 0.0
H1378 H 0.93413 0.58539 0.95935 0.0
H1379 H 0.9045 0.5701 0.93487 0.0
H1380 H 0.85251 0.58171 0.9337 0.0
H1381 H 0.86762 0.5641 0.94144 0.0
H1382 H 0.94863 0.68629 0.03136 0.0
H1383 H 0.96617 0.6705 0.0309 0.0
H1384 H 0.92482 0.69233 -0.00345 0.0
H1385 H 0.89325 0.6745 0.977 0.0
C1386 C 0.35299 0.28715 0.02052 0.0
C1387 C 0.37726 0.31102 0.02827 0.0
C1388 C 0.40049 0.2914 -0.00085 0.0
C1389 C 0.37637 0.27007 0.98388 0.0
N1390 N 0.32944 0.24459 0.9847 0.0
N1391 N 0.42173 0.32774 0.04679 0.0
C1392 C 0.35245 0.26667 -0.00313 0.0
C1393 C 0.40038 0.31058 0.02469 0.0
N1394 N 0.33094 0.28388 0.03715 0.0
N1395 N 0.42355 0.29458 0.98703 0.0
H1396 H 0.42097 0.34001 0.06845 0.0
H1397 H 0.43865 0.32711 0.04732 0.0
H1398 H 0.42461 0.28085 0.96867 0.0
H1399 H 0.44163 0.31168 0.99349 0.0
H1400 H 0.3126 0.26657 0.03426 0.0
H1401 H 0.33173 0.2977 0.05756 0.0
H1402 H 0.31119 0.24202 0.98931 0.0
H1403 H 0.32879 0.22885 0.96897 0.0
C1404 C 0.71396 0.07037 0.00419 0.0
C1405 C 0.69292 0.07448 0.00217 0.0
C1406 C 0.72241 0.11878 0.97751 0.0
C1407 C 0.74186 0.11242 0.97275 0.0
N1408 N 0.75643 0.08195 0.98059 0.0
N1409 N 0.67653 0.10248 0.98751 0.0
C1410 C 0.73793 0.08838 0.98655 0.0
C1411 C 0.69708 0.09893 0.98975 0.0
N1412 N 0.711 0.04931 0.02332 0.0
N1413 N 0.72824 0.14374 0.96973 0.0
H1414 H 0.65784 0.0885 -0.00334 0.0
H1415 H 0.67755 0.11853 0.97468 0.0
H1416 H 0.74672 0.15842 0.96071 0.0
H1417 H 0.71577 0.1506 0.97538 0.0
H1418 H 0.72627 0.04649 0.02888 0.0
H1419 H 0.69373 0.03603 0.03701 0.0
H1420 H 0.75324 0.06321 0.98522 0.0
H1421 H 0.77461 0.0949 0.9689 0.0
C1422 C 0.62818 0.91909 0.02853 0.0
C1423 C 0.64832 0.94564 0.02147 0.0
C1424 C 0.68157 0.93565 0.03758 0.0
C1425 C 0.66145 0.90949 0.04634 0.0
N1426 N 0.61659 0.87395 0.04032 0.0
N1427 N 0.69349 0.97691 0.00808 0.0
C1428 C 0.63504 0.90041 0.03814 0.0
C1429 C 0.67483 0.95312 0.02223 0.0
N1430 N 0.6027 0.91222 0.0288 0.0
N1431 N 0.70696 0.94429 0.04615 0.0
H1432 H 0.68897 0.98991 0.99625 0.0
H1433 H 0.71291 0.98262 0.00468 0.0
H1434 H 0.7127 0.93178 0.05617 0.0
H1435 H 0.72216 0.96408 0.04517 0.0
H1436 H 0.58745 0.89414 0.03819 0.0
H1437 H 0.59684 0.92524 0.02184 0.0
H1438 H 0.59723 0.86545 0.03166 0.0
H1439 H 0.62137 0.86008 0.0475 0.0
C1440 C 0.08 0.7061 0.02531 0.0
C1441 C 0.05496 0.70281 0.02284 0.0
C1442 C 0.07448 0.75073 0.03489 0.0
C1443 C 0.09872 0.75321 0.0422 0.0
N1444 N 0.12673 0.73645 0.02644 0.0
N1445 N 0.02944 0.72246 0.01276 0.0
C1446 C 0.10226 0.73204 0.03102 0.0
C1447 C 0.0526 0.72541 0.02325 0.0
N1448 N 0.08258 0.68451 0.02537 0.0
N1449 N 0.07234 0.77236 0.04171 0.0
H1450 H 0.01337 0.70409 0.00358 0.0
H1451 H 0.02673 0.73828 0.0101 0.0
H1452 H 0.08865 0.79115 0.04871 0.0
H1453 H 0.05476 0.77169 0.04137 0.0
H1454 H 0.09982 0.68573 0.03302 0.0
H1455 H 0.0672 0.66501 0.02057 0.0
H1456 H 0.13021 0.72213 0.01478 0.0
H1457 H 0.14363 0.75513 0.02943 0.0
C1458 C 0.2804 0.37534 0.00211 0.0
C1459 C 0.28638 0.35572 0.99225 0.0
C1460 C 0.24163 0.32053 0.0067 0.0
C1461 C 0.2375 0.34015 0.02374 0.0
N1462 N 0.25105 0.386 0.03494 0.0
N1463 N 0.27302 0.3096 0.98334 0.0
C1464 C 0.25616 0.36757 0.01982 0.0
C1465 C 0.26686 0.32825 0.99301 0.0
N1466 N 0.2981 0.40133 0.99473 0.0
N1467 N 0.22159 0.2945 0.00469 0.0
H1468 H 0.29108 0.31446 0.9723 0.0
H1469 H 0.26082 0.28939 0.98792 0.0
H1470 H 0.20308 0.28826 0.01524 0.0
H1471 H 0.2225 0.27944 0.98971 0.0
H1472 H 0.29448 0.4166 -0.00132 0.0
H1473 H 0.31589 0.40725 0.98159 0.0
H1474 H 0.26473 0.40634 0.03721 0.0
H1475 H 0.23289 0.38059 0.04628 0.0
C1476 C 0.75283 0.70766 0.37225 0.0
C1477 C 0.72595 0.68883 0.36485 0.0
C1478 C 0.73176 0.65231 0.38001 0.0
C1479 C 0.75815 0.67125 0.39014 0.0
N1480 N 0.79577 0.71535 0.38627 0.0
N1481 N 0.69175 0.64354 0.34985 0.0
C1482 C 0.76936 0.69845 0.38263 0.0
C1483 C 0.71609 0.66118 0.36474 0.0
N1484 N 0.76211 0.73427 0.3717 0.0
N1485 N 0.72133 0.6261 0.38728 0.0
H1486 H 0.68011 0.64969 0.33796 0.0
H1487 H 0.68412 0.62319 0.34593 0.0
H1488 H 0.73255 0.61881 0.39703 0.0
H1489 H 0.70146 0.61179 0.38529 0.0
H1490 H 0.78069 0.74908 0.38126 0.0
H1491 H 0.75072 0.74165 0.36316 0.0
H1492 H 0.8057 0.7351 0.37855 0.0
H1493 H 0.80803 0.70877 0.39397 0.0
C1494 C 0.33381 0.04709 0.39634 0.0
C1495 C 0.31676 0.03585 0.36387 0.0
C1496 C 0.31685 0.07722 0.36029 0.0
C1497 C 0.33523 0.08859 0.39092 0.0
N1498 N 0.36856 0.08768 0.42688 0.0
N1499 N 0.29937 0.0442 0.30778 0.0
C1500 C 0.3465 0.07471 0.40453 0.0
C1501 C 0.31052 0.05214 0.34346 0.0
N1502 N 0.33602 0.03149 0.42185 0.0
N1503 N 0.30461 0.08958 0.34831 0.0
H1504 H 0.29616 0.02692 0.29338 0.0
H1505 H 0.29629 0.05637 0.29081 0.0
H1506 H 0.30882 0.10798 0.35988 0.0
H1507 H 0.28903 0.08061 0.32881 0.0
H1508 H 0.34695 0.03929 0.44717 0.0
H1509 H 0.32416 0.01083 0.42118 0.0
H1510 H 0.37838 0.07856 0.43542 0.0
H1511 H 0.37838 0.10816 0.43314 0.0
C1512 C 0.97076 0.25601 0.36564 0.0
C1513 C 0.9693 0.27606 0.34728 0.0
C1514 C 0.92366 0.25565 0.36663 0.0
C1515 C 0.92662 0.23835 0.38993 0.0
N1516 N 0.95452 0.22481 0.41624 0.0
N1517 N 0.94522 0.2968 0.33298 0.0
C1518 C 0.95051 0.23908 0.39048 0.0
C1519 C 0.94586 0.27624 0.34803 0.0
N1520 N 0.99133 0.25284 0.35874 0.0
N1521 N 0.89959 0.25223 0.36214 0.0
H1522 H 0.96106 0.31228 0.31923 0.0
H1523 H 0.92967 0.29961 0.33663 0.0
H1524 H 0.88299 0.23732 0.37545 0.0
H1525 H 0.89564 0.26252 0.34268 0.0
H1526 H 0.99219 0.23694 0.3685 0.0
H1527 H 0.00627 0.26455 0.33996 0.0
H1528 H 0.97264 0.22711 0.42083 0.0
H1529 H 0.94046 0.21244 0.43559 0.0
C1530 C 0.01366 0.40461 0.33383 0.0
C1531 C 0.03794 0.40659 0.33936 0.0
C1532 C 0.06072 0.44915 0.3079 0.0
C1533 C 0.03654 0.44745 0.30302 0.0
N1534 N 0.99132 0.42742 0.31944 0.0
N1535 N 0.08489 0.43386 0.34166 0.0
C1536 C 0.01345 0.42646 0.31891 0.0
C1537 C 0.06159 0.42994 0.32966 0.0
N1538 N 0.99076 0.3813 0.34022 0.0
N1539 N 0.08254 0.46809 0.28989 0.0
H1540 H 0.08615 0.42031 0.3582 0.0
H1541 H 0.10268 0.45165 0.33863 0.0
H1542 H 0.08291 0.4826 0.2736 0.0
H1543 H 0.09984 0.46817 0.28865 0.0
H1544 H 0.97254 0.37774 0.33243 0.0
H1545 H 0.9899 0.36461 0.3505 0.0
H1546 H 0.97448 0.414 0.33379 0.0
H1547 H 0.99069 0.44321 0.30856 0.0
C1548 C 0.57756 0.64531 0.34148 0.0
C1549 C 0.60214 0.64921 0.35088 0.0
C1550 C 0.58527 0.6019 0.33698 0.0
C1551 C 0.56131 0.59848 0.32443 0.0
N1552 N 0.5332 0.61607 0.32119 0.0
N1553 N 0.62684 0.63026 0.36996 0.0
C1554 C 0.55684 0.61963 0.32956 0.0
C1555 C 0.60512 0.6271 0.3527 0.0
N1556 N 0.57401 0.66626 0.34245 0.0
N1557 N 0.58984 0.58174 0.33108 0.0
H1558 H 0.64138 0.64846 0.38234 0.0
H1559 H 0.62927 0.61455 0.37542 0.0
H1560 H 0.57562 0.56272 0.32081 0.0
H1561 H 0.6081 0.58416 0.33451 0.0
H1562 H 0.55623 0.66407 0.33507 0.0
H1563 H 0.58872 0.68564 0.35058 0.0
H1564 H 0.5169 0.5977 0.31252 0.0
H1565 H 0.5169 0.5977 0.31252 0.0
C1566 C 0.37584 0.93998 0.34608 0.0
C1567 C 0.37881 0.96481 0.35654 0.0
C1568 C 0.42158 0.98767 0.3259 0.0
C1569 C 0.41575 0.96307 0.30855 0.0
N1570 N 0.38674 0.91535 0.30086 0.0
N1571 N 0.40439 0.01289 0.35551 0.0
C1572 C 0.39299 0.93897 0.3189 0.0
C1573 C 0.40196 0.98892 0.34708 0.0
N1574 N 0.35644 0.9174 0.36207 0.0
N1575 N 0.44574 0.00986 0.32137 0.0
H1576 H 0.39058 0.0149 0.37079 0.0
H1577 H 0.41935 0.03077 0.34509 0.0
H1578 H 0.46031 0.00927 0.30577 0.0
H1579 H 0.45209 0.028 0.33599 0.0
H1580 H 0.35462 0.89895 0.35823 0.0
H1581 H 0.34379 0.91777 0.38239 0.0
H1582 H 0.3688 0.89773 0.3038 0.0
H1583 H 0.39875 0.91357 0.28089 0.0
C1584 C 0.58953 0.9469 0.2921 0.0
C1585 C 0.60694 0.96959 0.31563 0.0
C1586 C 0.57905 0.98783 0.30847 0.0
C1587 C 0.56199 0.96539 0.2845 0.0
N1588 N 0.54684 0.92051 0.26167 0.0
N1589 N 0.61552 0.00834 0.35366 0.0
C1590 C 0.56576 0.94378 0.27945 0.0
C1591 C 0.60074 0.989 0.3263 0.0
N1592 N 0.59659 0.92945 0.27916 0.0
N1593 N 0.57504 0.00844 0.31278 0.0
H1594 H 0.63141 0.00949 0.36729 0.0
H1595 H 0.61083 0.02178 0.36519 0.0
H1596 H 0.55858 0.00746 0.30155 0.0
H1597 H 0.58838 0.02679 0.32598 0.0
H1598 H 0.58618 0.91447 0.2582 0.0
H1599 H 0.61404 0.93113 0.28682 0.0
H1600 H 0.52947 0.91782 0.25116 0.0
H1601 H 0.54723 0.90313 0.26054 0.0
C1602 C 0.05738 0.64613 0.33989 0.0
C1603 C 0.03683 0.64981 0.32979 0.0
C1604 C 0.01323 0.60449 0.30107 0.0
C1605 C 0.03656 0.60426 0.30157 0.0
N1606 N 0.08207 0.62628 0.32059 0.0
N1607 N 0.99507 0.63209 0.29727 0.0
C1608 C 0.05887 0.62515 0.32152 0.0
C1609 C 0.01431 0.62865 0.31029 0.0
N1610 N 0.0755 0.66278 0.36693 0.0
N1611 N 0.99038 0.58186 0.29 0.0
H1612 H 0.99528 0.6497 0.30098 0.0
H1613 H 0.97987 0.61808 0.27937 0.0
H1614 H 0.98943 0.56406 0.28287 0.0
H1615 H 0.9723 0.58016 0.29185 0.0
H1616 H 0.08971 0.65968 0.37754 0.0
H1617 H 0.07434 0.67779 0.38181 0.0
H1618 H 0.09952 0.64286 0.33078 0.0
H1619 H 0.08443 0.61164 0.30729 0.0
C1620 C 0.36242 0.42184 0.33214 0.0
C1621 C 0.35851 0.39659 0.33944 0.0
C1622 C 0.40412 0.41275 0.32421 0.0
C1623 C 0.40775 0.43763 0.31517 0.0
N1624 N 0.39328 0.46837 0.31927 0.0
N1625 N 0.37687 0.37029 0.35343 0.0
C1626 C 0.38781 0.44302 0.32239 0.0
C1627 C 0.37984 0.39283 0.3391 0.0
N1628 N 0.3416 0.42507 0.33236 0.0
N1629 N 0.42332 0.40761 0.31628 0.0
H1630 H 0.35936 0.35551 0.36491 0.0
H1631 H 0.39223 0.36734 0.35728 0.0
H1632 H 0.44175 0.42202 0.30686 0.0
H1633 H 0.42061 0.38876 0.31717 0.0
H1634 H 0.34248 0.44201 0.32321 0.0
H1635 H 0.32286 0.4101 0.33985 0.0
H1636 H 0.38041 0.47441 0.3269 0.0
H1637 H 0.41182 0.484 0.3121 0.0
C1638 C 0.29587 0.24337 0.36125 0.0
C1639 C 0.31443 0.26942 0.34977 0.0
C1640 C 0.35011 0.26222 0.36136 0.0
C1641 C 0.3318 0.23707 0.37596 0.0
N1642 N 0.28759 0.20049 0.38018 0.0
N1643 N 0.35755 0.30067 0.32774 0.0
C1644 C 0.30468 0.22649 0.37223 0.0
C1645 C 0.34105 0.27777 0.34594 0.0
N1646 N 0.27017 0.2355 0.36395 0.0
N1647 N 0.37623 0.27196 0.36476 0.0
H1648 H 0.35119 0.31227 0.31611 0.0
H1649 H 0.37677 0.30693 0.32111 0.0
H1650 H 0.38346 0.26066 0.37452 0.0
H1651 H 0.39073 0.29148 0.35944 0.0
H1652 H 0.25601 0.21797 0.37615 0.0
H1653 H 0.2631 0.2472 0.35526 0.0
H1654 H 0.26752 0.19068 0.37567 0.0
H1655 H 0.29398 0.18807 0.3883 0.0
C1656 C 0.76055 0.0364 0.34433 0.0
C1657 C 0.7391 0.03781 0.33196 0.0
C1658 C 0.76141 0.08461 0.35406 0.0
C1659 C 0.78008 0.08142 0.37321 0.0
N1660 N 0.79773 0.05435 0.3874 0.0
N1661 N 0.71902 0.063 0.3221 0.0
C1662 C 0.78018 0.05756 0.36778 0.0
C1663 C 0.73972 0.06205 0.33529 0.0
N1664 N 0.76182 0.01457 0.3341 0.0
N1665 N 0.76439 0.10914 0.35463 0.0
H1666 H 0.70348 0.04702 0.30686 0.0
H1667 H 0.71675 0.0791 0.32726 0.0
H1668 H 0.78028 0.12579 0.36827 0.0
H1669 H 0.75257 0.11349 0.33918 0.0
H1670 H 0.77807 0.01329 0.3393 0.0
H1671 H 0.74752 0.99868 0.3171 0.0
H1672 H 0.7965 0.03619 0.38879 0.0
H1673 H 0.81282 0.06951 0.40426 0.0
C1674 C 0.94119 0.71065 0.35442 0.0
C1675 C 0.94791 0.69229 0.34005 0.0
C1676 C 0.90496 0.65512 0.3581 0.0
C1677 C 0.9003 0.67342 0.37841 0.0
N1678 N 0.9128 0.71844 0.39535 0.0
N1679 N 0.93695 0.64689 0.32964 0.0
C1680 C 0.91792 0.70121 0.37586 0.0
C1681 C 0.92977 0.66444 0.34143 0.0
N1682 N 0.9571 0.73703 0.34731 0.0
N1683 N 0.88581 0.62872 0.35557 0.0
H1684 H 0.95489 0.65269 0.31733 0.0
H1685 H 0.92591 0.62662 0.33449 0.0
H1686 H 0.86768 0.62115 0.36838 0.0
H1687 H 0.88694 0.61473 0.33797 0.0
H1688 H 0.95242 0.75129 0.35417 0.0
H1689 H 0.97417 0.74432 0.33151 0.0
H1690 H 0.92614 0.73883 0.3987 0.0
H1691 H 0.89525 0.71201 0.40954 0.0
C1692 C 0.37585 0.00112 0.69059 0.0
C1693 C 0.38459 0.02799 0.68332 0.0
C1694 C 0.42803 0.04253 0.70913 0.0
C1695 C 0.41918 0.01574 0.71684 0.0
N1696 N 0.38693 0.96896 0.70781 0.0
N1697 N 0.42002 0.0733 0.67737 0.0
C1698 C 0.39386 0.99484 0.70491 0.0
C1699 C 0.41107 0.04842 0.69002 0.0
N1700 N 0.34996 0.98187 0.68627 0.0
N1701 N 0.45237 0.06238 0.72135 0.0
H1702 H 0.40807 0.07812 0.66309 0.0
H1703 H 0.4396 0.08854 0.67805 0.0
H1704 H 0.46575 0.05857 0.73344 0.0
H1705 H 0.45896 0.08254 0.72111 0.0
H1706 H 0.34172 0.96261 0.69558 0.0
H1707 H 0.33609 0.9855 0.6758 0.0
H1708 H 0.36988 0.9528 0.6959 0.0
H1709 H 0.39926 0.9636 0.71941 0.0
C1710 C 0.00362 0.39128 0.66137 0.0
C1711 C 0.97742 0.37015 0.66552 0.0
C1712 C 0.9673 0.4006 0.69962 0.0
C1713 C 0.99433 0.42006 0.7019 0.0
N1714 N 0.0388 0.43405 0.68648 0.0
N1715 N 0.93362 0.35425 0.68664 0.0
C1716 C 0.01265 0.4157 0.6825 0.0
C1717 C 0.95894 0.37478 0.68369 0.0
N1718 N 0.01993 0.3879 0.63769 0.0
N1719 N 0.9498 0.40698 0.7129 0.0
H1720 H 0.9266 0.33557 0.67322 0.0
H1721 H 0.91983 0.35533 0.70345 0.0
H1722 H 0.95564 0.42589 0.72448 0.0
H1723 H 0.92967 0.39452 0.70949 0.0
H1724 H 0.03852 0.40335 0.63068 0.0
H1725 H 0.01397 0.3702 0.62202 0.0
H1726 H 0.05319 0.43048 0.67727 0.0
H1727 H 0.0463 0.45236 0.70124 0.0
C1728 C 0.63544 0.57831 0.71646 0.0
C1729 C 0.6329 0.59725 0.69671 0.0
C1730 C 0.58805 0.57736 0.71964 0.0
C1731 C 0.59223 0.56143 0.7442 0.0
N1732 N 0.62193 0.55031 0.77085 0.0
N1733 N 0.60748 0.61606 0.68047 0.0
C1734 C 0.61637 0.56261 0.74367 0.0
C1735 C 0.60933 0.59708 0.69846 0.0
N1736 N 0.65618 0.57544 0.7096 0.0
N1737 N 0.56364 0.57325 0.71605 0.0
H1738 H 0.62221 0.6299 0.66313 0.0
H1739 H 0.59203 0.619 0.68437 0.0
H1740 H 0.5476 0.55871 0.73076 0.0
H1741 H 0.55877 0.5825 0.69603 0.0
H1742 H 0.65757 0.56009 0.72034 0.0
H1743 H 0.67087 0.58688 0.69041 0.0
H1744 H 0.64032 0.55304 0.77435 0.0
H1745 H 0.60908 0.5395 0.79248 0.0
C1746 C 0.72298 0.75493 0.63874 0.0
C1747 C 0.69861 0.7356 0.65421 0.0
C1748 C 0.6811 0.76387 0.64247 0.0
C1749 C 0.70541 0.78297 0.62701 0.0
N1750 N 0.75138 0.80046 0.62023 0.0
N1751 N 0.6568 0.72432 0.67949 0.0
C1752 C 0.72705 0.77982 0.62893 0.0
C1753 C 0.67838 0.74096 0.65892 0.0
N1754 N 0.74144 0.74879 0.63025 0.0
N1755 N 0.66042 0.76716 0.63992 0.0
H1756 H 0.65446 0.70759 0.69223 0.0
H1757 H 0.64239 0.7283 0.68679 0.0
H1758 H 0.6623 0.78438 0.62967 0.0
H1759 H 0.64134 0.7525 0.64633 0.0
H1760 H 0.7582 0.76099 0.61481 0.0
H1761 H 0.73908 0.73044 0.63524 0.0
H1762 H 0.76832 0.80029 0.62465 0.0
H1763 H 0.75488 0.81881 0.61216 0.0
C1764 C 0.24002 0.97104 0.67777 0.0
C1765 C 0.26333 0.97487 0.69377 0.0
C1766 C 0.25057 0.92952 0.67262 0.0
C1767 C 0.228 0.92625 0.65475 0.0
N1768 N 0.19747 0.94023 0.64848 0.0
N1769 N 0.28744 0.95586 0.71595 0.0
C1770 C 0.22144 0.94585 0.66033 0.0
C1771 C 0.26734 0.95335 0.69468 0.0
N1772 N 0.23616 0.9918 0.67822 0.0
N1773 N 0.25698 0.91074 0.66618 0.0
H1774 H 0.30068 0.97331 0.73135 0.0
H1775 H 0.28983 0.94006 0.7209 0.0
H1776 H 0.24487 0.89272 0.6511 0.0
H1777 H 0.27489 0.9135 0.67392 0.0
H1778 H 0.22122 0.9915 0.66319 0.0
H1779 H 0.24865 0.00994 0.69281 0.0
H1780 H 0.19043 0.95271 0.65401 0.0
H1781 H 0.18363 0.92178 0.6358 0.0
C1782 C 0.05868 0.32293 0.66082 0.0
C1783 C 0.03329 0.302 0.64898 0.0
C1784 C 0.05214 0.27801 0.61841 0.0
C1785 C 0.07732 0.30121 0.62319 0.0
N1786 N 0.10534 0.34563 0.64966 0.0
N1787 N 0.00587 0.26031 0.61312 0.0
C1788 C 0.08087 0.32351 0.64523 0.0
C1789 C 0.02989 0.27937 0.62764 0.0
N1790 N 0.06147 0.34204 0.68714 0.0
N1791 N 0.04953 0.25497 0.60365 0.0
H1792 H 0.98903 0.26077 0.61757 0.0
H1793 H 0.00296 0.24516 0.59359 0.0
H1794 H 0.0655 0.25356 0.59588 0.0
H1795 H 0.03187 0.23673 0.60278 0.0
H1796 H 0.07935 0.35662 0.69928 0.0
H1797 H 0.04553 0.34179 0.69955 0.0
H1798 H 0.10906 0.36381 0.66131 0.0
H1799 H 0.12194 0.34592 0.64006 0.0
C1800 C 0.27383 0.33228 0.6549 0.0
C1801 C 0.27771 0.31079 0.6485 0.0
C1802 C 0.2338 0.28363 0.62025 0.0
C1803 C 0.23223 0.30664 0.61974 0.0
N1804 N 0.24969 0.35271 0.63743 0.0
N1805 N 0.26209 0.26627 0.62233 0.0
C1806 C 0.25177 0.33086 0.63796 0.0
C1807 C 0.25765 0.28626 0.63129 0.0
N1808 N 0.29122 0.3539 0.67733 0.0
N1809 N 0.21271 0.25939 0.60902 0.0
H1810 H 0.2794 0.26731 0.62885 0.0
H1811 H 0.24941 0.24937 0.60548 0.0
H1812 H 0.19515 0.25691 0.59986 0.0
H1813 H 0.21173 0.24149 0.61233 0.0
H1814 H 0.28847 0.36932 0.68576 0.0
H1815 H 0.30737 0.35524 0.69036 0.0
H1816 H 0.26464 0.37184 0.64597 0.0
H1817 H 0.23307 0.35172 0.62687 0.0
C1818 C 0.72308 0.97772 0.67628 0.0
C1819 C 0.70165 0.97996 0.66654 0.0
C1820 C 0.67937 0.93426 0.63938 0.0
C1821 C 0.70361 0.93582 0.63835 0.0
N1822 N 0.74935 0.95971 0.65683 0.0
N1823 N 0.65754 0.95874 0.64102 0.0
C1824 C 0.72557 0.95732 0.65811 0.0
C1825 C 0.67884 0.95748 0.64979 0.0
N1826 N 0.7413 0.99556 0.70228 0.0
N1827 N 0.65716 0.91079 0.62885 0.0
H1828 H 0.65561 0.9747 0.64911 0.0
H1829 H 0.642 0.94419 0.62415 0.0
H1830 H 0.65751 0.89377 0.62094 0.0
H1831 H 0.63851 0.90757 0.63167 0.0
H1832 H 0.75638 0.99377 0.71273 0.0
H1833 H 0.73936 0.01029 0.71646 0.0
H1834 H 0.7665 0.97681 0.6667 0.0
H1835 H 0.75244 0.9455 0.6438 0.0
C1836 C 0.04358 0.74672 0.6824 0.0
C1837 C 0.03196 0.72055 0.66573 0.0
C1838 C 0.06828 0.73589 0.62126 0.0
C1839 C 0.07777 0.76259 0.63379 0.0
N1840 N 0.07379 0.79406 0.67459 0.0
N1841 N 0.0309 0.69099 0.61492 0.0
C1842 C 0.06541 0.76823 0.66424 0.0
C1843 C 0.0437 0.7153 0.63401 0.0
N1844 N 0.03369 0.75097 0.71541 0.0
N1845 N 0.08296 0.73023 0.59728 0.0
H1846 H 0.01245 0.67555 0.62252 0.0
H1847 H 0.03739 0.687 0.58925 0.0
H1848 H 0.10133 0.74488 0.58789 0.0
H1849 H 0.07819 0.71091 0.59001 0.0
H1850 H 0.04277 0.76907 0.73107 0.0
H1851 H 0.01725 0.73578 0.72861 0.0
H1852 H 0.06385 0.79956 0.69356 0.0
H1853 H 0.09001 0.81015 0.66238 0.0
C1854 C 0.00254 0.60662 0.67544 0.0
C1855 C 0.9755 0.59454 0.66723 0.0
C1856 C 0.96697 0.55215 0.69052 0.0
C1857 C 0.99383 0.56458 0.6999 0.0
N1858 N 0.03809 0.60094 0.69276 0.0
N1859 N 0.93281 0.55485 0.6589 0.0
C1860 C 0.01192 0.59093 0.68923 0.0
C1861 C 0.958 0.56687 0.67185 0.0
N1862 N 0.01907 0.63335 0.67151 0.0
N1863 N 0.94998 0.52673 0.70123 0.0
H1864 H 0.9255 0.56526 0.64618 0.0
H1865 H 0.91964 0.53438 0.65823 0.0
H1866 H 0.95628 0.51523 0.71331 0.0
H1867 H 0.92977 0.51737 0.69959 0.0
H1868 H 0.0383 0.6441 0.68149 0.0
H1869 H 0.01309 0.64522 0.66003 0.0
H1870 H 0.05245 0.61909 0.6823 0.0
H1871 H 0.04551 0.58997 0.70321 0.0
C1872 C 0.44225 0.3714 0.68366 0.0
C1873 C 0.41833 0.3698 0.67782 0.0
C1874 C 0.43617 0.41344 0.71027 0.0
C1875 C 0.45623 0.41069 0.72576 0.0
N1876 N 0.47956 0.38767 0.72565 0.0
N1877 N 0.3988 0.3953 0.66667 0.0
C1878 C 0.46018 0.39035 0.71114 0.0
C1879 C 0.41723 0.39288 0.68507 0.0
N1880 N 0.448 0.35541 0.66215 0.0
N1881 N 0.43466 0.43498 0.7215 0.0
H1882 H 0.38675 0.38151 0.64523 0.0
H1883 H 0.3972 0.41193 0.66942 0.0
H1884 H 0.44915 0.45077 0.73844 0.0
H1885 H 0.41917 0.43715 0.7147 0.0
H1886 H 0.46602 0.35701 0.66335 0.0
H1887 H 0.43596 0.34319 0.63943 0.0
H1888 H 0.481 0.37115 0.7193 0.0
H1889 H 0.49329 0.40109 0.74582 0.0
C1890 C 0.61503 0.05031 0.69928 0.0
C1891 C 0.61823 0.02927 0.68557 0.0
C1892 C 0.57112 0.99762 0.68828 0.0
C1893 C 0.56829 0.01803 0.70569 0.0
N1894 N 0.58473 0.06451 0.71561 0.0
N1895 N 0.59923 0.98591 0.65425 0.0
C1896 C 0.58939 0.04476 0.7064 0.0
C1897 C 0.59612 0.00391 0.67559 0.0
N1898 N 0.63638 0.07488 0.70835 0.0
N1899 N 0.55039 0.97194 0.68672 0.0
H1900 H 0.61744 0.99031 0.64436 0.0
H1901 H 0.58372 0.96782 0.64329 0.0
H1902 H 0.5316 0.96683 0.69438 0.0
H1903 H 0.55196 0.95563 0.67926 0.0
H1904 H 0.63534 0.0901 0.72255 0.0
H1905 H 0.65545 0.07975 0.70347 0.0
H1906 H 0.59876 0.0847 0.71421 0.0
H1907 H 0.5659 0.06031 0.72123 0.0
loop_
_geom_bond_atom_site_label_1
_geom_bond_atom_site_label_2
_geom_bond_distance
_geom_bond_site_symmetry_2
_ccdc_geom_bond_type
C0 O1 1.160 . S
C0 O7 1.185 . S
O1 C0 1.160 . S
O2 Zn3 1.899 1_656 S
O2 C10 1.284 . S
Zn3 O2 1.899 1_454 S
Zn3 O4 2.032 . S
Zn3 O7 2.086 . S
Zn3 O12 1.977 1_554 S
O4 Zn3 2.032 . S
O4 C8 1.278 1_455 S
C5 O6 1.203 1_455 S
C5 O12 1.267 . S
O6 C5 1.203 1_655 S
O7 C0 1.185 . S
O7 Zn3 2.086 . S
C8 O4 1.278 1_655 S
C8 O9 1.211 . S
O9 C8 1.211 . S
C10 O2 1.284 . S
C10 O11 1.273 1_556 S
O11 C10 1.273 1_554 S
O12 Zn3 1.977 1_556 S
O12 C5 1.267 . S
C13 O14 1.160 . S
C13 O20 1.185 1_556 S
O14 C13 1.160 . S
O15 Zn16 1.899 . S
O15 C23 1.284 . S
Zn16 O15 1.899 . S
Zn16 O17 2.032 1_554 S
Zn16 O20 2.086 . S
Zn16 O25 1.977 . S
O17 Zn16 2.032 1_556 S
O17 C21 1.278 . S
C18 O19 1.203 . S
C18 O25 1.267 . S
O19 C18 1.203 . S
O20 C13 1.185 1_554 S
O20 Zn16 2.086 . S
C21 O17 1.278 . S
C21 O22 1.211 . S
O22 C21 1.211 . S
C23 O15 1.284 . S
C23 O24 1.273 . S
O24 C23 1.273 . S
O25 Zn16 1.977 . S
O25 C18 1.267 . S
C26 O27 1.160 . S
C26 O33 1.185 1_556 S
O27 C26 1.160 . S
O28 Zn29 1.899 1_565 S
O28 C36 1.284 . S
Zn29 O28 1.899 1_545 S
Zn29 O30 2.032 1_554 S
Zn29 O33 2.086 . S
Zn29 O38 1.977 . S
O30 Zn29 2.032 1_556 S
O30 C34 1.278 1_545 S
C31 O32 1.203 1_545 S
C31 O38 1.267 . S
O32 C31 1.203 1_565 S
O33 C26 1.185 1_554 S
O33 Zn29 2.086 . S
C34 O30 1.278 1_565 S
C34 O35 1.211 . S
O35 C34 1.211 . S
C36 O28 1.284 . S
C36 O37 1.273 . S
O37 C36 1.273 . S
O38 Zn29 1.977 . S
O38 C31 1.267 . S
C39 O40 1.160 . S
C39 O46 1.185 1_556 S
O40 C39 1.160 . S
O41 Zn42 1.899 1_455 S
O41 C49 1.284 . S
Zn42 O41 1.899 1_655 S
Zn42 O43 2.032 1_554 S
Zn42 O46 2.086 . S
Zn42 O51 1.977 . S
O43 Zn42 2.032 1_556 S
O43 C47 1.278 1_655 S
C44 O45 1.203 1_655 S
C44 O51 1.267 . S
O45 C44 1.203 1_455 S
O46 C39 1.185 1_554 S
O46 Zn42 2.086 . S
C47 O43 1.278 1_455 S
C47 O48 1.211 . S
O48 C47 1.211 . S
C49 O41 1.284 . S
C49 O50 1.273 . S
O50 C49 1.273 . S
O51 Zn42 1.977 . S
O51 C44 1.267 . S
C52 O53 1.160 . S
C52 O59 1.185 . S
O53 C52 1.160 . S
O54 Zn55 1.899 1_556 S
O54 C62 1.284 . S
Zn55 O54 1.899 1_554 S
Zn55 O56 2.032 . S
Zn55 O59 2.086 . S
Zn55 O64 1.977 1_554 S
O56 Zn55 2.032 . S
O56 C60 1.278 . S
C57 O58 1.203 . S
C57 O64 1.267 . S
O58 C57 1.203 . S
O59 C52 1.185 . S
O59 Zn55 2.086 . S
C60 O56 1.278 . S
C60 O61 1.211 . S
O61 C60 1.211 . S
C62 O54 1.284 . S
C62 O63 1.273 1_556 S
O63 C62 1.273 1_554 S
O64 Zn55 1.977 1_556 S
O64 C57 1.267 . S
C65 O66 1.160 . S
C65 O72 1.185 . S
O66 C65 1.160 . S
O67 Zn68 1.899 1_546 S
O67 C75 1.284 . S
Zn68 O67 1.899 1_564 S
Zn68 O69 2.032 . S
Zn68 O72 2.086 . S
Zn68 O77 1.977 1_554 S
O69 Zn68 2.032 . S
O69 C73 1.278 1_565 S
C70 O71 1.203 1_565 S
C70 O77 1.267 . S
O71 C70 1.203 1_545 S
O72 C65 1.185 . S
O72 Zn68 2.086 . S
C73 O69 1.278 1_545 S
C73 O74 1.211 . S
O74 C73 1.211 . S
C75 O67 1.284 . S
C75 O76 1.273 1_556 S
O76 C75 1.273 1_554 S
O77 Zn68 1.977 1_556 S
O77 C70 1.267 . S
C78 O79 1.160 . S
C78 O85 1.185 . S
O79 C78 1.160 . S
O80 Zn81 1.899 . S
O80 C88 1.284 . S
Zn81 O80 1.899 . S
Zn81 O82 2.032 . S
Zn81 O85 2.086 . S
Zn81 O90 1.977 . S
O82 Zn81 2.032 . S
O82 C86 1.278 . S
C83 O84 1.203 . S
C83 O90 1.267 . S
O84 C83 1.203 . S
O85 C78 1.185 . S
O85 Zn81 2.086 . S
C86 O82 1.278 . S
C86 O87 1.211 . S
O87 C86 1.211 . S
C88 O80 1.284 . S
C88 O89 1.273 . S
O89 C88 1.273 . S
O90 Zn81 1.977 . S
O90 C83 1.267 . S
C91 O92 1.160 1_565 S
C91 O98 1.185 . S
O92 C91 1.160 1_545 S
O93 Zn94 1.899 1_545 S
O93 C101 1.284 . S
Zn94 O93 1.899 1_565 S
Zn94 O95 2.032 . S
Zn94 O98 2.086 . S
Zn94 O103 1.977 . S
O95 Zn94 2.032 . S
O95 C99 1.278 . S
C96 O97 1.203 . S
C96 O103 1.267 . S
O97 C96 1.203 . S
O98 C91 1.185 . S
O98 Zn94 2.086 . S
C99 O95 1.278 . S
C99 O100 1.211 . S
O100 C99 1.211 . S
C101 O93 1.284 . S
C101 O102 1.273 . S
O102 C101 1.273 . S
O103 Zn94 1.977 . S
O103 C96 1.267 . S
C104 O105 1.160 1_455 S
C104 O111 1.185 . S
O105 C104 1.160 1_655 S
O106 Zn107 1.899 1_655 S
O106 C114 1.284 . S
Zn107 O106 1.899 1_455 S
Zn107 O108 2.032 . S
Zn107 O111 2.086 . S
Zn107 O116 1.977 . S
O108 Zn107 2.032 . S
O108 C112 1.278 . S
C109 O110 1.203 . S
C109 O116 1.267 . S
O110 C109 1.203 . S
O111 C104 1.185 . S
O111 Zn107 2.086 . S
C112 O108 1.278 . S
C112 O113 1.211 . S
O113 C112 1.211 . S
C114 O106 1.284 . S
C114 O115 1.273 . S
O115 C114 1.273 . S
O116 Zn107 1.977 . S
O116 C109 1.267 . S
C117 O118 1.160 1_565 S
C117 O124 1.185 . S
O118 C117 1.160 1_545 S
O119 Zn120 1.899 1_545 S
O119 C127 1.284 . S
Zn120 O119 1.899 1_565 S
Zn120 O121 2.032 . S
Zn120 O124 2.086 . S
Zn120 O129 1.977 . S
O121 Zn120 2.032 . S
O121 C125 1.278 . S
C122 O123 1.203 . S
C122 O129 1.267 . S
O123 C122 1.203 . S
O124 C117 1.185 . S
O124 Zn120 2.086 . S
C125 O121 1.278 . S
C125 O126 1.211 . S
O126 C125 1.211 . S
C127 O119 1.284 . S
C127 O128 1.273 . S
O128 C127 1.273 . S
O129 Zn120 1.977 . S
O129 C122 1.267 . S
C130 O131 1.160 . S
C130 O137 1.185 . S
O131 C130 1.160 . S
O132 Zn133 1.896 . S
O132 C140 1.295 . S
Zn133 O132 1.896 . S
Zn133 O134 2.032 . S
Zn133 O137 2.086 1_455 S
Zn133 O142 1.977 . S
O134 Zn133 2.032 . S
O134 C138 1.278 . S
C135 O136 1.203 . S
C135 O142 1.267 . S
O136 C135 1.203 . S
O137 C130 1.185 . S
O137 Zn133 2.086 1_655 S
C138 O134 1.278 . S
C138 O139 1.211 . S
O139 C138 1.211 . S
C140 O132 1.295 . S
C140 O141 1.273 . S
O141 C140 1.273 . S
O142 Zn133 1.977 . S
O142 C135 1.267 . S
C143 O144 1.160 . S
C143 O150 1.185 . S
O144 C143 1.160 . S
O145 Zn146 1.899 . S
O145 C153 1.284 . S
Zn146 O145 1.899 . S
Zn146 O147 2.032 . S
Zn146 O150 2.086 . S
Zn146 O155 1.977 . S
O147 Zn146 2.032 . S
O147 C151 1.278 . S
C148 O149 1.203 . S
C148 O155 1.267 . S
O149 C148 1.203 . S
O150 C143 1.185 . S
O150 Zn146 2.086 . S
C151 O147 1.278 . S
C151 O152 1.211 . S
O152 C151 1.211 . S
C153 O145 1.284 . S
C153 O154 1.273 . S
O154 C153 1.273 . S
O155 Zn146 1.977 . S
O155 C148 1.267 . S
C156 O157 1.160 1_545 S
C156 O163 1.185 . S
O157 C156 1.160 1_565 S
O158 Zn159 1.899 1_565 S
O158 C166 1.284 . S
Zn159 O158 1.899 1_545 S
Zn159 O160 2.032 . S
Zn159 O163 2.086 . S
Zn159 O168 1.977 . S
O160 Zn159 2.032 . S
O160 C164 1.278 . S
C161 O162 1.203 . S
C161 O168 1.267 . S
O162 C161 1.203 . S
O163 C156 1.185 . S
O163 Zn159 2.086 . S
C164 O160 1.278 . S
C164 O165 1.211 . S
O165 C164 1.211 . S
C166 O158 1.284 . S
C166 O167 1.273 . S
O167 C166 1.273 . S
O168 Zn159 1.977 . S
O168 C161 1.267 . S
C169 O170 1.160 . S
C169 O176 1.185 . S
O170 C169 1.160 . S
O171 Zn172 1.887 . S
O171 C179 1.328 . S
Zn172 O171 1.887 . S
Zn172 O173 2.032 . S
Zn172 O176 2.086 1_655 S
Zn172 O181 1.977 . S
O173 Zn172 2.032 . S
O173 C177 1.278 . S
C174 O175 1.203 . S
C174 O181 1.267 . S
O175 C174 1.203 . S
O176 C169 1.185 . S
O176 Zn172 2.086 1_455 S
C177 O173 1.278 . S
C177 O178 1.211 . S
O178 C177 1.211 . S
C179 O171 1.328 . S
C179 O180 1.273 . S
O180 C179 1.273 . S
O181 Zn172 1.977 . S
O181 C174 1.267 . S
C182 O183 1.160 . S
C182 O189 1.185 . S
O183 C182 1.160 . S
O184 Zn185 1.899 . S
O184 C192 1.284 . S
Zn185 O184 1.899 . S
Zn185 O186 2.032 . S
Zn185 O189 2.086 . S
Zn185 O194 1.977 . S
O186 Zn185 2.032 . S
O186 C190 1.278 . S
C187 O188 1.203 . S
C187 O194 1.267 . S
O188 C187 1.203 . S
O189 C182 1.185 . S
O189 Zn185 2.086 . S
C190 O186 1.278 . S
C190 O191 1.211 . S
O191 C190 1.211 . S
C192 O184 1.284 . S
C192 O193 1.273 . S
O193 C192 1.273 . S
O194 Zn185 1.977 . S
O194 C187 1.267 . S
C195 O196 1.160 . S
C195 O202 1.185 . S
O196 C195 1.160 . S
O197 Zn198 1.899 . S
O197 C205 1.284 . S
Zn198 O197 1.899 . S
Zn198 O199 2.032 . S
Zn198 O202 2.086 . S
Zn198 O207 1.977 . S
O199 Zn198 2.032 . S
O199 C203 1.278 . S
C200 O201 1.203 . S
C200 O207 1.267 . S
O201 C200 1.203 . S
O202 C195 1.185 . S
O202 Zn198 2.086 . S
C203 O199 1.278 . S
C203 O204 1.211 . S
O204 C203 1.211 . S
C205 O197 1.284 . S
C205 O206 1.273 . S
O206 C205 1.273 . S
O207 Zn198 1.977 . S
O207 C200 1.267 . S
C208 O209 1.160 1_545 S
C208 O215 1.185 . S
O209 C208 1.160 1_565 S
O210 Zn211 1.899 1_565 S
O210 C218 1.284 . S
Zn211 O210 1.899 1_545 S
Zn211 O212 2.032 . S
Zn211 O215 2.086 . S
Zn211 O220 1.977 . S
O212 Zn211 2.032 . S
O212 C216 1.278 . S
C213 O214 1.203 . S
C213 O220 1.267 . S
O214 C213 1.203 . S
O215 C208 1.185 . S
O215 Zn211 2.086 . S
C216 O212 1.278 . S
C216 O217 1.211 . S
O217 C216 1.211 . S
C218 O210 1.284 . S
C218 O219 1.273 . S
O219 C218 1.273 . S
O220 Zn211 1.977 . S
O220 C213 1.267 . S
C221 O222 1.160 1_655 S
C221 O228 1.185 . S
O222 C221 1.160 1_455 S
O223 Zn224 1.899 1_455 S
O223 C231 1.284 . S
Zn224 O223 1.899 1_655 S
Zn224 O225 2.032 . S
Zn224 O228 2.086 . S
Zn224 O233 1.977 . S
O225 Zn224 2.032 . S
O225 C229 1.278 . S
C226 O227 1.203 . S
C226 O233 1.267 . S
O227 C226 1.203 . S
O228 C221 1.185 . S
O228 Zn224 2.086 . S
C229 O225 1.278 . S
C229 O230 1.211 . S
O230 C229 1.211 . S
C231 O223 1.284 . S
C231 O232 1.273 . S
O232 C231 1.273 . S
O233 Zn224 1.977 . S
O233 C226 1.267 . S
H234 C242 0.930 . S
H235 C245 0.930 . S
H236 C247 0.930 . S
H237 C248 0.970 . S
H238 C248 0.970 . S
H239 C250 0.930 . S
H240 C252 0.930 . S
H241 C254 0.930 . S
C242 H234 0.930 . S
C242 C243 1.382 . S
C242 C244 1.426 . S
C243 C242 1.382 . S
C243 C247 1.389 . S
C244 C242 1.426 . S
C244 C245 1.375 . S
C244 C248 1.532 . S
C245 H235 0.930 . S
C245 C244 1.375 . S
C245 C246 1.416 . S
C246 C245 1.416 . S
C246 C247 1.371 . S
C247 H236 0.930 . S
C247 C243 1.389 . S
C247 C246 1.371 . S
C248 H237 0.970 . S
C248 H238 0.970 . S
C248 C244 1.532 . S
C248 C249 1.499 . S
C249 C248 1.499 . S
C249 C250 1.370 . S
C249 C254 1.415 . S
C250 H239 0.930 . S
C250 C249 1.370 . S
C250 C251 1.407 . S
C251 C250 1.407 . S
C251 C252 1.365 . S
C252 H240 0.930 . S
C252 C251 1.365 . S
C252 C253 1.393 . S
C253 C252 1.393 . S
C253 C254 1.387 . S
C254 H241 0.930 . S
C254 C249 1.415 . S
C254 C253 1.387 . S
H255 C263 0.930 . S
H256 C266 0.930 . S
H257 C268 0.930 . S
H258 C269 0.970 . S
H259 C269 0.970 . S
H260 C271 0.930 . S
H261 C273 0.930 . S
H262 C275 0.930 . S
C263 H255 0.930 . S
C263 C264 1.382 . S
C263 C265 1.426 . S
C264 C263 1.382 . S
C264 C268 1.389 . S
C265 C263 1.426 . S
C265 C266 1.375 . S
C265 C269 1.532 . S
C266 H256 0.930 . S
C266 C265 1.375 . S
C266 C267 1.416 . S
C267 C266 1.416 . S
C267 C268 1.371 . S
C268 H257 0.930 . S
C268 C264 1.389 . S
C268 C267 1.371 . S
C269 H258 0.970 . S
C269 H259 0.970 . S
C269 C265 1.532 . S
C269 C270 1.499 . S
C270 C269 1.499 . S
C270 C271 1.370 . S
C270 C275 1.415 . S
C271 H260 0.930 . S
C271 C270 1.370 . S
C271 C272 1.407 . S
C272 C271 1.407 . S
C272 C273 1.365 . S
C273 H261 0.930 . S
C273 C272 1.365 . S
C273 C274 1.393 . S
C274 C273 1.393 . S
C274 C275 1.387 . S
C275 H262 0.930 . S
C275 C270 1.415 . S
C275 C274 1.387 . S
H276 C284 0.930 . S
H277 C287 0.930 . S
H278 C289 0.930 . S
H279 C290 0.970 . S
H280 C290 0.970 . S
H281 C292 0.930 . S
H282 C294 0.930 . S
H283 C296 0.930 . S
C284 H276 0.930 . S
C284 C285 1.382 . S
C284 C286 1.426 . S
C285 C284 1.382 . S
C285 C289 1.389 . S
C286 C284 1.426 . S
C286 C287 1.375 . S
C286 C290 1.532 . S
C287 H277 0.930 . S
C287 C286 1.375 . S
C287 C288 1.416 . S
C288 C287 1.416 . S
C288 C289 1.371 . S
C289 H278 0.930 . S
C289 C285 1.389 . S
C289 C288 1.371 . S
C290 H279 0.970 . S
C290 H280 0.970 . S
C290 C286 1.532 . S
C290 C291 1.499 . S
C291 C290 1.499 . S
C291 C292 1.370 . S
C291 C296 1.415 . S
C292 H281 0.930 . S
C292 C291 1.370 . S
C292 C293 1.407 . S
C293 C292 1.407 . S
C293 C294 1.365 . S
C294 H282 0.930 . S
C294 C293 1.365 . S
C294 C295 1.393 . S
C295 C294 1.393 . S
C295 C296 1.387 . S
C296 H283 0.930 . S
C296 C291 1.415 . S
C296 C295 1.387 . S
H297 C305 0.930 . S
H298 C308 0.930 . S
H299 C310 0.930 . S
H300 C311 0.970 . S
H301 C311 0.970 . S
H302 C313 0.930 . S
H303 C315 0.930 . S
H304 C317 0.930 . S
C305 H297 0.930 . S
C305 C306 1.382 . S
C305 C307 1.426 . S
C306 C305 1.382 . S
C306 C310 1.389 . S
C307 C305 1.426 . S
C307 C308 1.375 . S
C307 C311 1.532 . S
C308 H298 0.930 . S
C308 C307 1.375 . S
C308 C309 1.416 . S
C309 C308 1.416 . S
C309 C310 1.371 . S
C310 H299 0.930 . S
C310 C306 1.389 . S
C310 C309 1.371 . S
C311 H300 0.970 . S
C311 H301 0.970 . S
C311 C307 1.532 . S
C311 C312 1.499 . S
C312 C311 1.499 . S
C312 C313 1.370 . S
C312 C317 1.415 . S
C313 H302 0.930 . S
C313 C312 1.370 . S
C313 C314 1.407 . S
C314 C313 1.407 . S
C314 C315 1.365 . S
C315 H303 0.930 . S
C315 C314 1.365 . S
C315 C316 1.393 . S
C316 C315 1.393 . S
C316 C317 1.387 . S
C317 H304 0.930 . S
C317 C312 1.415 . S
C317 C316 1.387 . S
H318 C326 0.930 . S
H319 C329 0.930 . S
H320 C331 0.930 . S
H321 C332 0.970 . S
H322 C332 0.970 . S
H323 C334 0.930 . S
H324 C336 0.930 . S
H325 C338 0.930 . S
C326 H318 0.930 . S
C326 C327 1.382 . S
C326 C328 1.426 . S
C327 C326 1.382 . S
C327 C331 1.389 . S
C328 C326 1.426 . S
C328 C329 1.375 . S
C328 C332 1.532 . S
C329 H319 0.930 . S
C329 C328 1.375 . S
C329 C330 1.416 . S
C330 C329 1.416 . S
C330 C331 1.371 . S
C331 H320 0.930 . S
C331 C327 1.389 . S
C331 C330 1.371 . S
C332 H321 0.970 . S
C332 H322 0.970 . S
C332 C328 1.532 . S
C332 C333 1.499 . S
C333 C332 1.499 . S
C333 C334 1.370 . S
C333 C338 1.415 . S
C334 H323 0.930 . S
C334 C333 1.370 . S
C334 C335 1.407 . S
C335 C334 1.407 . S
C335 C336 1.365 . S
C336 H324 0.930 . S
C336 C335 1.365 . S
C336 C337 1.393 . S
C337 C336 1.393 . S
C337 C338 1.387 . S
C338 H325 0.930 . S
C338 C333 1.415 . S
C338 C337 1.387 . S
H339 C347 0.930 . S
H340 C350 0.930 . S
H341 C352 0.930 . S
H342 C353 0.970 . S
H343 C353 0.970 . S
H344 C355 0.930 . S
H345 C357 0.930 . S
H346 C359 0.930 . S
C347 H339 0.930 . S
C347 C348 1.382 . S
C347 C349 1.426 . S
C348 C347 1.382 . S
C348 C352 1.389 . S
C349 C347 1.426 . S
C349 C350 1.375 . S
C349 C353 1.532 . S
C350 H340 0.930 . S
C350 C349 1.375 . S
C350 C351 1.416 . S
C351 C350 1.416 . S
C351 C352 1.371 . S
C352 H341 0.930 . S
C352 C348 1.389 . S
C352 C351 1.371 . S
C353 H342 0.970 . S
C353 H343 0.970 . S
C353 C349 1.532 . S
C353 C354 1.499 . S
C354 C353 1.499 . S
C354 C355 1.370 . S
C354 C359 1.415 . S
C355 H344 0.930 . S
C355 C354 1.370 . S
C355 C356 1.407 . S
C356 C355 1.407 . S
C356 C357 1.365 . S
C357 H345 0.930 . S
C357 C356 1.365 . S
C357 C358 1.393 . S
C358 C357 1.393 . S
C358 C359 1.387 . S
C359 H346 0.930 . S
C359 C354 1.415 . S
C359 C358 1.387 . S
H360 C368 0.930 . S
H361 C371 0.930 . S
H362 C373 0.930 . S
H363 C374 0.970 . S
H364 C374 0.970 . S
H365 C376 0.930 . S
H366 C378 0.930 . S
H367 C380 0.930 . S
C368 H360 0.930 . S
C368 C369 1.382 . S
C368 C370 1.426 . S
C369 C368 1.382 . S
C369 C373 1.389 . S
C370 C368 1.426 . S
C370 C371 1.375 . S
C370 C374 1.532 . S
C371 H361 0.930 . S
C371 C370 1.375 . S
C371 C372 1.416 . S
C372 C371 1.416 . S
C372 C373 1.371 . S
C373 H362 0.930 . S
C373 C369 1.389 . S
C373 C372 1.371 . S
C374 H363 0.970 . S
C374 H364 0.970 . S
C374 C370 1.532 . S
C374 C375 1.499 . S
C375 C374 1.499 . S
C375 C376 1.370 . S
C375 C380 1.415 . S
C376 H365 0.930 . S
C376 C375 1.370 . S
C376 C377 1.407 . S
C377 C376 1.407 . S
C377 C378 1.365 . S
C378 H366 0.930 . S
C378 C377 1.365 . S
C378 C379 1.393 . S
C379 C378 1.393 . S
C379 C380 1.387 . S
C380 H367 0.930 . S
C380 C375 1.415 . S
C380 C379 1.387 . S
H381 C389 0.930 . S
H382 C392 0.930 . S
H383 C394 0.930 . S
H384 C395 0.970 . S
H385 C395 0.970 . S
H386 C397 0.930 . S
H387 C399 0.930 . S
H388 C401 0.930 . S
C389 H381 0.930 . S
C389 C390 1.382 . S
C389 C391 1.426 . S
C390 C389 1.382 . S
C390 C394 1.389 . S
C391 C389 1.426 . S
C391 C392 1.375 . S
C391 C395 1.532 . S
C392 H382 0.930 . S
C392 C391 1.375 . S
C392 C393 1.416 . S
C393 C392 1.416 . S
C393 C394 1.371 . S
C394 H383 0.930 . S
C394 C390 1.389 . S
C394 C393 1.371 . S
C395 H384 0.970 . S
C395 H385 0.970 . S
C395 C391 1.532 . S
C395 C396 1.499 . S
C396 C395 1.499 . S
C396 C397 1.370 . S
C396 C401 1.415 . S
C397 H386 0.930 . S
C397 C396 1.370 . S
C397 C398 1.407 . S
C398 C397 1.407 . S
C398 C399 1.365 . S
C399 H387 0.930 . S
C399 C398 1.365 . S
C399 C400 1.393 . S
C400 C399 1.393 . S
C400 C401 1.387 . S
C401 H388 0.930 . S
C401 C396 1.415 . S
C401 C400 1.387 . S
H402 C410 0.930 . S
H403 C413 0.930 . S
H404 C415 0.930 . S
H405 C416 0.970 . S
H406 C416 0.970 . S
H407 C418 0.930 . S
H408 C420 0.930 . S
H409 C422 0.930 . S
C410 H402 0.930 . S
C410 C411 1.382 . S
C410 C412 1.426 . S
C411 C410 1.382 . S
C411 C415 1.389 . S
C412 C410 1.426 . S
C412 C413 1.375 . S
C412 C416 1.532 . S
C413 H403 0.930 . S
C413 C412 1.375 . S
C413 C414 1.416 . S
C414 C413 1.416 . S
C414 C415 1.371 . S
C415 H404 0.930 . S
C415 C411 1.389 . S
C415 C414 1.371 . S
C416 H405 0.970 . S
C416 H406 0.970 . S
C416 C412 1.532 . S
C416 C417 1.499 . S
C417 C416 1.499 . S
C417 C418 1.370 . S
C417 C422 1.415 . S
C418 H407 0.930 . S
C418 C417 1.370 . S
C418 C419 1.407 . S
C419 C418 1.407 . S
C419 C420 1.365 . S
C420 H408 0.930 . S
C420 C419 1.365 . S
C420 C421 1.393 . S
C421 C420 1.393 . S
C421 C422 1.387 . S
C422 H409 0.930 . S
C422 C417 1.415 . S
C422 C421 1.387 . S
H423 C431 0.930 . S
H424 C434 0.930 . S
H425 C436 0.930 . S
H426 C437 0.970 . S
H427 C437 0.970 . S
H428 C439 0.930 . S
H429 C441 0.930 . S
H430 C443 0.930 . S
C431 H423 0.930 . S
C431 C432 1.382 . S
C431 C433 1.426 . S
C432 C431 1.382 . S
C432 C436 1.389 1_455 S
C433 C431 1.426 . S
C433 C434 1.375 . S
C433 C437 1.532 . S
C434 H424 0.930 . S
C434 C433 1.375 . S
C434 C435 1.416 . S
C435 C434 1.416 . S
C435 C436 1.371 1_455 S
C436 H425 0.930 . S
C436 C432 1.389 1_655 S
C436 C435 1.371 1_655 S
C437 H426 0.970 . S
C437 H427 0.970 . S
C437 C433 1.532 . S
C437 C438 1.499 . S
C438 C437 1.499 . S
C438 C439 1.370 . S
C438 C443 1.415 . S
C439 H428 0.930 . S
C439 C438 1.370 . S
C439 C440 1.407 . S
C440 C439 1.407 . S
C440 C441 1.365 1_455 S
C441 H429 0.930 . S
C441 C440 1.365 1_655 S
C441 C442 1.393 1_655 S
C442 C441 1.393 1_455 S
C442 C443 1.387 . S
C443 H430 0.930 . S
C443 C438 1.415 . S
C443 C442 1.387 . S
H444 C452 0.930 . S
H445 C455 0.930 . S
H446 C457 0.930 . S
H447 C458 0.970 . S
H448 C458 0.970 . S
H449 C460 0.930 . S
H450 C462 0.930 . S
H451 C464 0.930 . S
C452 H444 0.930 . S
C452 C453 1.382 . S
C452 C454 1.426 . S
C453 C452 1.382 . S
C453 C457 1.389 . S
C454 C452 1.426 . S
C454 C455 1.375 . S
C454 C458 1.532 . S
C455 H445 0.930 . S
C455 C454 1.375 . S
C455 C456 1.416 . S
C456 C455 1.416 . S
C456 C457 1.371 . S
C457 H446 0.930 . S
C457 C453 1.389 . S
C457 C456 1.371 . S
C458 H447 0.970 . S
C458 H448 0.970 . S
C458 C454 1.532 . S
C458 C459 1.499 . S
C459 C458 1.499 . S
C459 C460 1.370 . S
C459 C464 1.415 . S
C460 H449 0.930 . S
C460 C459 1.370 . S
C460 C461 1.407 . S
C461 C460 1.407 . S
C461 C462 1.365 . S
C462 H450 0.930 . S
C462 C461 1.365 . S
C462 C463 1.393 . S
C463 C462 1.393 . S
C463 C464 1.387 . S
C464 H451 0.930 . S
C464 C459 1.415 . S
C464 C463 1.387 . S
H465 C473 0.930 . S
H466 C476 0.930 . S
H467 C478 0.930 . S
H468 C479 0.970 . S
H469 C479 0.970 . S
H470 C481 0.930 . S
H471 C483 0.930 . S
H472 C485 0.930 . S
C473 H465 0.930 . S
C473 C474 1.382 . S
C473 C475 1.426 . S
C474 C473 1.382 . S
C474 C478 1.389 1_565 S
C475 C473 1.426 . S
C475 C476 1.375 . S
C475 C479 1.532 . S
C476 H466 0.930 . S
C476 C475 1.375 . S
C476 C477 1.416 . S
C477 C476 1.416 . S
C477 C478 1.371 1_565 S
C478 H467 0.930 . S
C478 C474 1.389 1_545 S
C478 C477 1.371 1_545 S
C479 H468 0.970 . S
C479 H469 0.970 . S
C479 C475 1.532 . S
C479 C480 1.499 . S
C480 C479 1.499 . S
C480 C481 1.370 . S
C480 C485 1.415 . S
C481 H470 0.930 . S
C481 C480 1.370 . S
C481 C482 1.412 . S
C482 C481 1.412 . S
C482 C483 1.362 1_565 S
C483 H471 0.930 . S
C483 C482 1.362 1_545 S
C483 C484 1.393 1_545 S
C484 C483 1.393 1_565 S
C484 C485 1.387 . S
C485 H472 0.930 . S
C485 C480 1.415 . S
C485 C484 1.387 . S
H486 C494 0.930 . S
H487 C497 0.930 . S
H488 C499 0.930 . S
H489 C500 0.970 . S
H490 C500 0.970 . S
H491 C502 0.930 . S
H492 C504 0.930 . S
H493 C506 0.930 . S
C494 H486 0.930 . S
C494 C495 1.382 . S
C494 C496 1.426 . S
C495 C494 1.382 . S
C495 C499 1.389 1_565 S
C496 C494 1.426 . S
C496 C497 1.375 . S
C496 C500 1.532 . S
C497 H487 0.930 . S
C497 C496 1.375 . S
C497 C498 1.416 . S
C498 C497 1.416 . S
C498 C499 1.371 1_565 S
C499 H488 0.930 . S
C499 C495 1.389 1_545 S
C499 C498 1.371 1_545 S
C500 H489 0.970 . S
C500 H490 0.970 . S
C500 C496 1.532 . S
C500 C501 1.499 . S
C501 C500 1.499 . S
C501 C502 1.370 . S
C501 C506 1.415 . S
C502 H491 0.930 . S
C502 C501 1.370 . S
C502 C503 1.407 . S
C503 C502 1.407 . S
C503 C504 1.365 1_565 S
C504 H492 0.930 . S
C504 C503 1.365 1_545 S
C504 C505 1.393 1_545 S
C505 C504 1.393 1_565 S
C505 C506 1.387 . S
C506 H493 0.930 . S
C506 C501 1.415 . S
C506 C505 1.387 . S
H507 C515 0.930 . S
H508 C518 0.930 . S
H509 C520 0.930 . S
H510 C521 0.970 . S
H511 C521 0.970 . S
H512 C523 0.930 . S
H513 C525 0.930 . S
H514 C527 0.930 . S
C515 H507 0.930 . S
C515 C516 1.382 . S
C515 C517 1.426 . S
C516 C515 1.382 . S
C516 C520 1.389 1_455 S
C517 C515 1.426 . S
C517 C518 1.375 . S
C517 C521 1.532 . S
C518 H508 0.930 . S
C518 C517 1.375 . S
C518 C519 1.416 . S
C519 C518 1.416 . S
C519 C520 1.371 1_455 S
C520 H509 0.930 . S
C520 C516 1.389 1_655 S
C520 C519 1.371 1_655 S
C521 H510 0.970 . S
C521 H511 0.970 . S
C521 C517 1.532 . S
C521 C522 1.499 . S
C522 C521 1.499 . S
C522 C523 1.370 . S
C522 C527 1.415 . S
C523 H512 0.930 . S
C523 C522 1.370 . S
C523 C524 1.407 . S
C524 C523 1.407 . S
C524 C525 1.365 1_455 S
C525 H513 0.930 . S
C525 C524 1.365 1_655 S
C525 C526 1.393 1_655 S
C526 C525 1.393 1_455 S
C526 C527 1.387 . S
C527 H514 0.930 . S
C527 C522 1.415 . S
C527 C526 1.387 . S
H528 C536 0.930 . S
H529 C539 0.930 . S
H530 C541 0.930 . S
H531 C542 0.970 . S
H532 C542 0.970 . S
H533 C544 0.930 . S
H534 C546 0.930 . S
H535 C548 0.930 . S
C536 H528 0.930 . S
C536 C537 1.382 . S
C536 C538 1.426 . S
C537 C536 1.382 . S
C537 C541 1.389 . S
C538 C536 1.426 . S
C538 C539 1.375 . S
C538 C542 1.532 . S
C539 H529 0.930 . S
C539 C538 1.375 . S
C539 C540 1.416 . S
C540 C539 1.416 . S
C540 C541 1.371 . S
C541 H530 0.930 . S
C541 C537 1.389 . S
C541 C540 1.371 . S
C542 H531 0.970 . S
C542 H532 0.970 . S
C542 C538 1.532 . S
C542 C543 1.499 . S
C543 C542 1.499 . S
C543 C544 1.370 . S
C543 C548 1.415 . S
C544 H533 0.930 . S
C544 C543 1.370 . S
C544 C545 1.407 . S
C545 C544 1.407 . S
C545 C546 1.365 . S
C546 H534 0.930 . S
C546 C545 1.365 . S
C546 C547 1.393 . S
C547 C546 1.393 . S
C547 C548 1.387 . S
C548 H535 0.930 . S
C548 C543 1.415 . S
C548 C547 1.387 . S
H549 C557 0.930 . S
H550 C560 0.930 . S
H551 C562 0.930 . S
H552 C563 0.970 . S
H553 C563 0.970 . S
H554 C565 0.930 . S
H555 C567 0.930 . S
H556 C569 0.930 . S
C557 H549 0.930 . S
C557 C558 1.382 . S
C557 C559 1.426 . S
C558 C557 1.382 . S
C558 C562 1.389 . S
C559 C557 1.426 . S
C559 C560 1.375 . S
C559 C563 1.532 . S
C560 H550 0.930 . S
C560 C559 1.375 . S
C560 C561 1.416 . S
C561 C560 1.416 . S
C561 C562 1.371 . S
C562 H551 0.930 . S
C562 C558 1.389 . S
C562 C561 1.371 . S
C563 H552 0.970 . S
C563 H553 0.970 . S
C563 C559 1.532 . S
C563 C564 1.499 . S
C564 C563 1.499 . S
C564 C565 1.370 . S
C564 C569 1.415 . S
C565 H554 0.930 . S
C565 C564 1.370 . S
C565 C566 1.407 . S
C566 C565 1.407 . S
C566 C567 1.365 . S
C567 H555 0.930 . S
C567 C566 1.365 . S
C567 C568 1.393 . S
C568 C567 1.393 . S
C568 C569 1.387 . S
C569 H556 0.930 . S
C569 C564 1.415 . S
C569 C568 1.387 . S
H570 C578 0.930 . S
H571 C581 0.930 . S
H572 C583 0.930 . S
H573 C584 0.970 . S
H574 C584 0.970 . S
H575 C586 0.930 . S
H576 C588 0.930 . S
H577 C590 0.930 . S
C578 H570 0.930 . S
C578 C579 1.382 . S
C578 C580 1.426 . S
C579 C578 1.382 . S
C579 C583 1.389 . S
C580 C578 1.426 . S
C580 C581 1.375 . S
C580 C584 1.532 . S
C581 H571 0.930 . S
C581 C580 1.375 . S
C581 C582 1.416 . S
C582 C581 1.416 . S
C582 C583 1.371 . S
C583 H572 0.930 . S
C583 C579 1.389 . S
C583 C582 1.371 . S
C584 H573 0.970 . S
C584 H574 0.970 . S
C584 C580 1.532 . S
C584 C585 1.499 . S
C585 C584 1.499 . S
C585 C586 1.370 . S
C585 C590 1.415 . S
C586 H575 0.930 . S
C586 C585 1.370 . S
C586 C587 1.407 . S
C587 C586 1.407 . S
C587 C588 1.365 . S
C588 H576 0.930 . S
C588 C587 1.365 . S
C588 C589 1.393 . S
C589 C588 1.393 . S
C589 C590 1.387 . S
C590 H577 0.930 . S
C590 C585 1.415 . S
C590 C589 1.387 . S
H591 C599 0.930 . S
H592 C602 0.930 . S
H593 C604 0.930 . S
H594 C605 0.970 . S
H595 C605 0.970 . S
H596 C607 0.930 . S
H597 C609 0.930 . S
H598 C611 0.930 . S
C599 H591 0.930 . S
C599 C600 1.382 . S
C599 C601 1.426 . S
C600 C599 1.382 . S
C600 C604 1.389 . S
C601 C599 1.426 . S
C601 C602 1.375 . S
C601 C605 1.532 . S
C602 H592 0.930 . S
C602 C601 1.375 . S
C602 C603 1.416 . S
C603 C602 1.416 . S
C603 C604 1.371 . S
C604 H593 0.930 . S
C604 C600 1.389 . S
C604 C603 1.371 . S
C605 H594 0.970 . S
C605 H595 0.970 . S
C605 C601 1.532 . S
C605 C606 1.499 . S
C606 C605 1.499 . S
C606 C607 1.370 . S
C606 C611 1.415 . S
C607 H596 0.930 . S
C607 C606 1.370 . S
C607 C608 1.407 . S
C608 C607 1.407 . S
C608 C609 1.365 . S
C609 H597 0.930 . S
C609 C608 1.365 . S
C609 C610 1.393 . S
C610 C609 1.393 . S
C610 C611 1.387 . S
C611 H598 0.930 . S
C611 C606 1.415 . S
C611 C610 1.387 . S
C612 C613 1.363 . S
C612 C618 1.379 . S
C612 N620 1.356 . S
C613 C612 1.363 . S
C613 C619 1.363 1_655 S
C614 C615 1.363 1_455 S
C614 C619 1.379 . S
C614 N621 1.356 . S
C615 C614 1.363 1_655 S
C615 C618 1.363 . S
N616 C618 1.356 . S
N616 H628 0.984 . S
N616 H629 0.985 . S
N617 C619 1.356 . S
N617 H622 0.984 . S
N617 H623 0.985 . S
C618 C612 1.379 . S
C618 C615 1.363 . S
C618 N616 1.356 . S
C619 C613 1.363 1_455 S
C619 C614 1.379 . S
C619 N617 1.356 . S
N620 C612 1.356 . S
N620 H626 0.984 . S
N620 H627 0.984 . S
N621 C614 1.356 . S
N621 H624 0.984 . S
N621 H625 0.985 . S
H622 N617 0.984 . S
H623 N617 0.985 . S
H624 N621 0.984 . S
H625 N621 0.985 . S
H626 N620 0.984 . S
H627 N620 0.984 . S
H628 N616 0.984 . S
H629 N616 0.985 . S
C630 C631 1.363 . S
C630 C636 1.379 . S
C630 N638 1.356 . S
C631 C630 1.363 . S
C631 C637 1.363 . S
C632 C633 1.363 . S
C632 C637 1.379 . S
C632 N639 1.356 . S
C633 C632 1.363 . S
C633 C636 1.363 . S
N634 C636 1.356 . S
N634 H646 0.984 . S
N634 H647 0.985 . S
N635 C637 1.356 . S
N635 H640 0.984 . S
N635 H641 0.985 . S
C636 C630 1.379 . S
C636 C633 1.363 . S
C636 N634 1.356 . S
C637 C631 1.363 . S
C637 C632 1.379 . S
C637 N635 1.356 . S
N638 C630 1.356 . S
N638 H644 0.984 . S
N638 H645 0.984 . S
N639 C632 1.356 . S
N639 H642 0.984 . S
N639 H643 0.985 . S
H640 N635 0.984 . S
H641 N635 0.985 . S
H642 N639 0.984 . S
H643 N639 0.985 . S
H644 N638 0.984 . S
H645 N638 0.984 . S
H646 N634 0.984 . S
H647 N634 0.985 . S
C648 C649 1.363 . S
C648 C654 1.379 . S
C648 N656 1.356 . S
C649 C648 1.363 . S
C649 C655 1.363 1_545 S
C650 C651 1.363 1_565 S
C650 C655 1.379 . S
C650 N657 1.356 . S
C651 C650 1.363 1_545 S
C651 C654 1.363 . S
N652 C654 1.356 . S
N652 H664 0.984 . S
N652 H665 0.985 . S
N653 C655 1.356 . S
N653 H658 0.984 . S
N653 H659 0.985 . S
C654 C648 1.379 . S
C654 C651 1.363 . S
C654 N652 1.356 . S
C655 C649 1.363 1_565 S
C655 C650 1.379 . S
C655 N653 1.356 . S
N656 C648 1.356 . S
N656 H662 0.984 . S
N656 H663 0.984 . S
N657 C650 1.356 . S
N657 H660 0.984 . S
N657 H661 0.985 . S
H658 N653 0.984 . S
H659 N653 0.985 . S
H660 N657 0.984 . S
H661 N657 0.985 . S
H662 N656 0.984 . S
H663 N656 0.984 . S
H664 N652 0.984 . S
H665 N652 0.985 . S
C666 C667 1.363 1_545 S
C666 C672 1.379 . S
C666 N674 1.356 . S
C667 C666 1.363 1_565 S
C667 C673 1.363 . S
C668 C669 1.363 . S
C668 C673 1.379 . S
C668 N675 1.356 . S
C669 C668 1.363 . S
C669 C672 1.363 1_565 S
N670 C672 1.356 . S
N670 H682 0.984 . S
N670 H683 0.985 . S
N671 C673 1.356 . S
N671 H676 0.984 . S
N671 H677 0.985 . S
C672 C666 1.379 . S
C672 C669 1.363 1_545 S
C672 N670 1.356 . S
C673 C667 1.363 . S
C673 C668 1.379 . S
C673 N671 1.356 . S
N674 C666 1.356 . S
N674 H680 0.984 . S
N674 H681 0.984 . S
N675 C668 1.356 . S
N675 H678 0.984 . S
N675 H679 0.985 . S
H676 N671 0.984 . S
H677 N671 0.985 . S
H678 N675 0.984 . S
H679 N675 0.985 . S
H680 N674 0.984 . S
H681 N674 0.984 . S
H682 N670 0.984 . S
H683 N670 0.985 . S
C684 C685 1.363 1_655 S
C684 C690 1.379 . S
C684 N692 1.356 . S
C685 C684 1.363 1_455 S
C685 C691 1.363 . S
C686 C687 1.363 . S
C686 C691 1.379 . S
C686 N693 1.356 . S
C687 C686 1.363 . S
C687 C690 1.363 1_455 S
N688 C690 1.356 . S
N688 H700 0.984 . S
N688 H701 0.985 . S
N689 C691 1.356 . S
N689 H694 0.984 . S
N689 H695 0.985 . S
C690 C684 1.379 . S
C690 C687 1.363 1_655 S
C690 N688 1.356 . S
C691 C685 1.363 . S
C691 C686 1.379 . S
C691 N689 1.356 . S
N692 C684 1.356 . S
N692 H698 0.984 . S
N692 H699 0.984 . S
N693 C686 1.356 . S
N693 H696 0.984 . S
N693 H697 0.985 . S
H694 N689 0.984 . S
H695 N689 0.985 . S
H696 N693 0.984 . S
H697 N693 0.985 . S
H698 N692 0.984 . S
H699 N692 0.984 . S
H700 N688 0.984 . S
H701 N688 0.985 . S
C702 C703 1.363 . S
C702 C708 1.379 . S
C702 N710 1.356 . S
C703 C702 1.363 . S
C703 C709 1.363 . S
C704 C705 1.363 . S
C704 C709 1.379 . S
C704 N711 1.356 . S
C705 C704 1.363 . S
C705 C708 1.363 . S
N706 C708 1.356 . S
N706 H718 0.984 . S
N706 H719 0.985 . S
N707 C709 1.356 . S
N707 H712 0.984 . S
N707 H713 0.985 . S
C708 C702 1.379 . S
C708 C705 1.363 . S
C708 N706 1.356 . S
C709 C703 1.363 . S
C709 C704 1.379 . S
C709 N707 1.356 . S
N710 C702 1.356 . S
N710 H716 0.984 . S
N710 H717 0.984 . S
N711 C704 1.356 . S
N711 H714 0.984 . S
N711 H715 0.985 . S
H712 N707 0.984 . S
H713 N707 0.985 . S
H714 N711 0.984 . S
H715 N711 0.985 . S
H716 N710 0.984 . S
H717 N710 0.984 . S
H718 N706 0.984 . S
H719 N706 0.985 . S
C720 C721 1.363 . S
C720 C726 1.379 . S
C720 N728 1.356 . S
C721 C720 1.363 . S
C721 C727 1.363 . S
C722 C723 1.363 . S
C722 C727 1.379 . S
C722 N729 1.356 . S
C723 C722 1.363 . S
C723 C726 1.363 . S
N724 C726 1.356 . S
N724 H736 0.984 . S
N724 H737 0.985 . S
N725 C727 1.356 . S
N725 H730 0.984 . S
N725 H731 0.985 . S
C726 C720 1.379 . S
C726 C723 1.363 . S
C726 N724 1.356 . S
C727 C721 1.363 . S
C727 C722 1.379 . S
C727 N725 1.356 . S
N728 C720 1.356 . S
N728 H734 0.984 . S
N728 H735 0.984 . S
N729 C722 1.356 . S
N729 H732 0.990 1_455 S
N729 H733 0.979 . S
H730 N725 0.984 . S
H731 N725 0.985 . S
H732 N729 0.990 1_655 S
H733 N729 0.979 . S
H734 N728 0.984 . S
H735 N728 0.984 . S
H736 N724 0.984 . S
H737 N724 0.985 . S
C738 C739 1.363 . S
C738 C744 1.379 . S
C738 N746 1.356 . S
C739 C738 1.363 . S
C739 C745 1.363 . S
C740 C741 1.363 . S
C740 C745 1.379 . S
C740 N747 1.356 . S
C741 C740 1.363 . S
C741 C744 1.363 . S
N742 C744 1.356 . S
N742 H754 0.984 . S
N742 H755 0.985 . S
N743 C745 1.356 . S
N743 H748 0.984 . S
N743 H749 0.985 . S
C744 C738 1.379 . S
C744 C741 1.363 . S
C744 N742 1.356 . S
C745 C739 1.363 . S
C745 C740 1.379 . S
C745 N743 1.356 . S
N746 C738 1.356 . S
N746 H752 0.984 . S
N746 H753 0.984 . S
N747 C740 1.356 . S
N747 H750 0.984 . S
N747 H751 0.985 . S
H748 N743 0.984 . S
H749 N743 0.985 . S
H750 N747 0.984 . S
H751 N747 0.985 . S
H752 N746 0.984 . S
H753 N746 0.984 . S
H754 N742 0.984 . S
H755 N742 0.985 . S
C756 C757 1.363 . S
C756 C762 1.379 . S
C756 N764 1.356 . S
C757 C756 1.363 . S
C757 C763 1.363 1_565 S
C758 C759 1.363 1_545 S
C758 C763 1.379 . S
C758 N765 1.356 . S
C759 C758 1.363 1_565 S
C759 C762 1.363 . S
N760 C762 1.356 . S
N760 H772 0.984 . S
N760 H773 0.985 . S
N761 C763 1.356 . S
N761 H766 0.984 . S
N761 H767 0.985 . S
C762 C756 1.379 . S
C762 C759 1.363 . S
C762 N760 1.356 . S
C763 C757 1.363 1_545 S
C763 C758 1.379 . S
C763 N761 1.356 . S
N764 C756 1.356 . S
N764 H770 0.984 . S
N764 H771 0.984 . S
N765 C758 1.356 . S
N765 H768 0.984 . S
N765 H769 0.985 . S
H766 N761 0.984 . S
H767 N761 0.985 . S
H768 N765 0.984 . S
H769 N765 0.985 . S
H770 N764 0.984 . S
H771 N764 0.984 . S
H772 N760 0.984 . S
H773 N760 0.985 . S
C774 C775 1.363 1_565 S
C774 C780 1.379 . S
C774 N782 1.356 . S
C775 C774 1.363 1_545 S
C775 C781 1.363 . S
C776 C777 1.363 . S
C776 C781 1.379 . S
C776 N783 1.356 . S
C777 C776 1.363 . S
C777 C780 1.363 1_545 S
N778 C780 1.356 . S
N778 H790 0.984 . S
N778 H791 0.985 . S
N779 C781 1.356 . S
N779 H784 0.984 . S
N779 H785 0.985 . S
C780 C774 1.379 . S
C780 C777 1.363 1_565 S
C780 N778 1.356 . S
C781 C775 1.363 . S
C781 C776 1.379 . S
C781 N779 1.356 . S
N782 C774 1.356 . S
N782 H788 0.984 . S
N782 H789 0.984 . S
N783 C776 1.356 . S
N783 H786 0.984 . S
N783 H787 0.985 . S
H784 N779 0.984 . S
H785 N779 0.985 . S
H786 N783 0.984 . S
H787 N783 0.985 . S
H788 N782 0.984 . S
H789 N782 0.984 . S
H790 N778 0.984 . S
H791 N778 0.985 . S
C792 C793 1.363 . S
C792 C798 1.379 . S
C792 N800 1.356 . S
C793 C792 1.363 . S
C793 C799 1.363 1_655 S
C794 C795 1.363 1_455 S
C794 C799 1.379 . S
C794 N801 1.356 . S
C795 C794 1.363 1_655 S
C795 C798 1.363 . S
N796 C798 1.356 . S
N796 H808 0.984 . S
N796 H809 0.985 . S
N797 C799 1.356 . S
N797 H802 0.984 . S
N797 H803 0.985 . S
C798 C792 1.379 . S
C798 C795 1.363 . S
C798 N796 1.356 . S
C799 C793 1.363 1_455 S
C799 C794 1.379 . S
C799 N797 1.356 . S
N800 C792 1.356 . S
N800 H806 0.984 . S
N800 H807 0.984 . S
N801 C794 1.356 . S
N801 H804 0.984 . S
N801 H805 0.985 . S
H802 N797 0.984 . S
H803 N797 0.985 . S
H804 N801 0.984 . S
H805 N801 0.985 . S
H806 N800 0.984 . S
H807 N800 0.984 . S
H808 N796 0.984 . S
H809 N796 0.985 . S
C810 C811 1.363 . S
C810 C816 1.379 . S
C810 N818 1.356 . S
C811 C810 1.363 . S
C811 C817 1.363 . S
C812 C813 1.363 . S
C812 C817 1.379 . S
C812 N819 1.356 . S
C813 C812 1.363 . S
C813 C816 1.363 . S
N814 C816 1.356 . S
N814 H826 0.984 . S
N814 H827 0.985 . S
N815 C817 1.356 . S
N815 H820 0.984 . S
N815 H821 0.985 . S
C816 C810 1.379 . S
C816 C813 1.363 . S
C816 N814 1.356 . S
C817 C811 1.363 . S
C817 C812 1.379 . S
C817 N815 1.356 . S
N818 C810 1.356 . S
N818 H824 0.984 . S
N818 H825 0.984 . S
N819 C812 1.356 . S
N819 H822 0.984 . S
N819 H823 0.985 . S
H820 N815 0.984 . S
H821 N815 0.985 . S
H822 N819 0.984 . S
H823 N819 0.985 . S
H824 N818 0.984 . S
H825 N818 0.984 . S
H826 N814 0.984 . S
H827 N814 0.985 . S
C828 C829 1.363 . S
C828 C834 1.379 . S
C828 N836 1.356 . S
C829 C828 1.363 . S
C829 C835 1.363 . S
C830 C831 1.363 . S
C830 C835 1.379 . S
C830 N837 1.356 . S
C831 C830 1.363 . S
C831 C834 1.363 . S
N832 C834 1.356 . S
N832 H844 0.984 . S
N832 H845 0.985 . S
N833 C835 1.356 . S
N833 H838 0.984 . S
N833 H839 0.985 . S
C834 C828 1.379 . S
C834 C831 1.363 . S
C834 N832 1.356 . S
C835 C829 1.363 . S
C835 C830 1.379 . S
C835 N833 1.356 . S
N836 C828 1.356 . S
N836 H842 0.984 . S
N836 H843 0.984 . S
N837 C830 1.356 . S
N837 H840 0.984 . S
N837 H841 0.985 . S
H838 N833 0.984 . S
H839 N833 0.985 . S
H840 N837 0.984 . S
H841 N837 0.985 . S
H842 N836 0.984 . S
H843 N836 0.984 . S
H844 N832 0.984 . S
H845 N832 0.985 . S
C846 C847 1.363 . S
C846 C852 1.379 . S
C846 N854 1.356 . S
C847 C846 1.363 . S
C847 C853 1.363 . S
C848 C849 1.363 . S
C848 C853 1.379 . S
C848 N855 1.356 . S
C849 C848 1.363 . S
C849 C852 1.363 . S
N850 C852 1.356 . S
N850 H862 0.984 . S
N850 H863 0.985 . S
N851 C853 1.356 . S
N851 H856 0.984 . S
N851 H857 0.985 . S
C852 C846 1.379 . S
C852 C849 1.363 . S
C852 N850 1.356 . S
C853 C847 1.363 . S
C853 C848 1.379 . S
C853 N851 1.356 . S
N854 C846 1.356 . S
N854 H860 0.984 . S
N854 H861 0.984 . S
N855 C848 1.356 . S
N855 H858 0.984 . S
N855 H859 0.985 . S
H856 N851 0.984 . S
H857 N851 0.985 . S
H858 N855 0.984 . S
H859 N855 0.985 . S
H860 N854 0.984 . S
H861 N854 0.984 . S
H862 N850 0.984 . S
H863 N850 0.985 . S
C864 C865 1.363 . S
C864 C870 1.379 . S
C864 N872 1.356 . S
C865 C864 1.363 . S
C865 C871 1.363 . S
C866 C867 1.363 . S
C866 C871 1.379 . S
C866 N873 1.356 . S
C867 C866 1.363 . S
C867 C870 1.363 . S
N868 C870 1.356 . S
N868 H880 0.984 . S
N868 H881 0.985 . S
N869 C871 1.356 . S
N869 H874 0.984 . S
N869 H875 0.985 . S
C870 C864 1.379 . S
C870 C867 1.363 . S
C870 N868 1.356 . S
C871 C865 1.363 . S
C871 C866 1.379 . S
C871 N869 1.356 . S
N872 C864 1.356 . S
N872 H878 0.984 . S
N872 H879 0.984 . S
N873 C866 1.356 . S
N873 H876 0.984 . S
N873 H877 0.985 . S
H874 N869 0.984 . S
H875 N869 0.985 . S
H876 N873 0.984 . S
H877 N873 0.985 . S
H878 N872 0.984 . S
H879 N872 0.984 . S
H880 N868 0.984 . S
H881 N868 0.985 . S
C882 C883 1.363 . S
C882 C888 1.379 . S
C882 N890 1.356 . S
C883 C882 1.363 . S
C883 C889 1.363 . S
C884 C885 1.363 . S
C884 C889 1.379 . S
C884 N891 1.356 . S
C885 C884 1.363 . S
C885 C888 1.363 . S
N886 C888 1.356 . S
N886 H898 0.984 . S
N886 H899 0.985 . S
N887 C889 1.356 . S
N887 H892 0.984 . S
N887 H893 0.985 . S
C888 C882 1.379 . S
C888 C885 1.363 . S
C888 N886 1.356 . S
C889 C883 1.363 . S
C889 C884 1.379 . S
C889 N887 1.356 . S
N890 C882 1.356 . S
N890 H896 0.984 . S
N890 H897 0.984 . S
N891 C884 1.356 . S
N891 H894 0.984 . S
N891 H895 0.985 . S
H892 N887 0.984 . S
H893 N887 0.985 . S
H894 N891 0.984 . S
H895 N891 0.985 . S
H896 N890 0.984 . S
H897 N890 0.984 . S
H898 N886 0.984 . S
H899 N886 0.985 . S
C900 C901 1.363 . S
C900 C906 1.379 . S
C900 N908 1.356 . S
C901 C900 1.363 . S
C901 C907 1.363 . S
C902 C903 1.363 . S
C902 C907 1.379 . S
C902 N909 1.356 . S
C903 C902 1.363 . S
C903 C906 1.363 . S
N904 C906 1.356 . S
N904 H916 0.984 . S
N904 H917 0.985 . S
N905 C907 1.356 . S
N905 H910 0.984 . S
N905 H911 0.985 . S
C906 C900 1.379 . S
C906 C903 1.363 . S
C906 N904 1.356 . S
C907 C901 1.363 . S
C907 C902 1.379 . S
C907 N905 1.356 . S
N908 C900 1.356 . S
N908 H914 0.984 . S
N908 H915 0.984 . S
N909 C902 1.356 . S
N909 H912 0.984 . S
N909 H913 0.985 . S
H910 N905 0.984 . S
H911 N905 0.985 . S
H912 N909 0.984 . S
H913 N909 0.985 . S
H914 N908 0.984 . S
H915 N908 0.984 . S
H916 N904 0.984 . S
H917 N904 0.985 . S
C918 C919 1.363 . S
C918 C924 1.379 . S
C918 N926 1.356 . S
C919 C918 1.363 . S
C919 C925 1.363 . S
C920 C921 1.363 . S
C920 C925 1.379 . S
C920 N927 1.356 . S
C921 C920 1.363 . S
C921 C924 1.363 . S
N922 C924 1.356 . S
N922 H934 0.984 . S
N922 H935 0.985 . S
N923 C925 1.356 . S
N923 H928 0.984 . S
N923 H929 0.985 . S
C924 C918 1.379 . S
C924 C921 1.363 . S
C924 N922 1.356 . S
C925 C919 1.363 . S
C925 C920 1.379 . S
C925 N923 1.356 . S
N926 C918 1.356 . S
N926 H932 0.984 . S
N926 H933 0.984 . S
N927 C920 1.356 . S
N927 H930 0.984 . S
N927 H931 0.985 . S
H928 N923 0.984 . S
H929 N923 0.985 . S
H930 N927 0.984 . S
H931 N927 0.985 . S
H932 N926 0.984 . S
H933 N926 0.984 . S
H934 N922 0.984 . S
H935 N922 0.985 . S
C936 C937 1.363 . S
C936 C942 1.379 . S
C936 N944 1.356 . S
C937 C936 1.363 . S
C937 C943 1.363 . S
C938 C939 1.363 . S
C938 C943 1.379 . S
C938 N945 1.356 . S
C939 C938 1.363 . S
C939 C942 1.363 . S
N940 C942 1.356 . S
N940 H952 0.984 . S
N940 H953 0.985 . S
N941 C943 1.356 . S
N941 H946 0.984 . S
N941 H947 0.985 . S
C942 C936 1.379 . S
C942 C939 1.363 . S
C942 N940 1.356 . S
C943 C937 1.363 . S
C943 C938 1.379 . S
C943 N941 1.356 . S
N944 C936 1.356 . S
N944 H950 0.984 . S
N944 H951 0.984 . S
N945 C938 1.356 . S
N945 H948 0.984 . S
N945 H949 0.985 . S
H946 N941 0.984 . S
H947 N941 0.985 . S
H948 N945 0.984 . S
H949 N945 0.985 . S
H950 N944 0.984 . S
H951 N944 0.984 . S
H952 N940 0.984 . S
H953 N940 0.985 . S
C954 C955 1.363 . S
C954 C960 1.379 . S
C954 N962 1.356 . S
C955 C954 1.363 . S
C955 C961 1.363 . S
C956 C957 1.363 . S
C956 C961 1.379 . S
C956 N963 1.356 . S
C957 C956 1.363 . S
C957 C960 1.363 . S
N958 C960 1.356 . S
N958 H970 0.984 . S
N958 H971 0.985 . S
N959 C961 1.356 . S
N959 H964 0.984 . S
N959 H965 0.985 . S
C960 C954 1.379 . S
C960 C957 1.363 . S
C960 N958 1.356 . S
C961 C955 1.363 . S
C961 C956 1.379 . S
C961 N959 1.356 . S
N962 C954 1.356 . S
N962 H968 0.984 . S
N962 H969 0.984 . S
N963 C956 1.356 . S
N963 H966 0.984 . S
N963 H967 0.985 . S
H964 N959 0.984 . S
H965 N959 0.985 . S
H966 N963 0.984 . S
H967 N963 0.985 . S
H968 N962 0.984 . S
H969 N962 0.984 . S
H970 N958 0.984 . S
H971 N958 0.985 . S
C972 C973 1.363 . S
C972 C978 1.379 . S
C972 N980 1.356 . S
C973 C972 1.363 . S
C973 C979 1.363 . S
C974 C975 1.363 . S
C974 C979 1.379 . S
C974 N981 1.356 . S
C975 C974 1.363 . S
C975 C978 1.363 . S
N976 C978 1.356 . S
N976 H988 0.984 . S
N976 H989 0.985 . S
N977 C979 1.356 . S
N977 H982 0.984 . S
N977 H983 0.985 . S
C978 C972 1.379 . S
C978 C975 1.363 . S
C978 N976 1.356 . S
C979 C973 1.363 . S
C979 C974 1.379 . S
C979 N977 1.356 . S
N980 C972 1.356 . S
N980 H986 0.984 . S
N980 H987 0.984 . S
N981 C974 1.356 . S
N981 H984 0.984 . S
N981 H985 0.985 . S
H982 N977 0.984 . S
H983 N977 0.985 . S
H984 N981 0.984 . S
H985 N981 0.985 . S
H986 N980 0.984 . S
H987 N980 0.984 . S
H988 N976 0.984 . S
H989 N976 0.985 . S
C990 C991 1.363 . S
C990 C996 1.379 . S
C990 N998 1.356 . S
C991 C990 1.363 . S
C991 C997 1.363 . S
C992 C993 1.363 . S
C992 C997 1.379 . S
C992 N999 1.356 . S
C993 C992 1.363 . S
C993 C996 1.363 . S
N994 C996 1.356 . S
N994 H1006 0.984 . S
N994 H1007 0.985 . S
N995 C997 1.356 . S
N995 H1000 0.984 . S
N995 H1001 0.985 . S
C996 C990 1.379 . S
C996 C993 1.363 . S
C996 N994 1.356 . S
C997 C991 1.363 . S
C997 C992 1.379 . S
C997 N995 1.356 . S
N998 C990 1.356 . S
N998 H1004 0.984 . S
N998 H1005 0.984 . S
N999 C992 1.356 . S
N999 H1002 0.984 . S
N999 H1003 0.985 . S
H1000 N995 0.984 . S
H1001 N995 0.985 . S
H1002 N999 0.984 . S
H1003 N999 0.985 . S
H1004 N998 0.984 . S
H1005 N998 0.984 . S
H1006 N994 0.984 . S
H1007 N994 0.985 . S
C1008 C1009 1.363 . S
C1008 C1014 1.379 . S
C1008 N1016 1.356 . S
C1009 C1008 1.363 . S
C1009 C1015 1.363 . S
C1010 C1011 1.363 . S
C1010 C1015 1.379 . S
C1010 N1017 1.356 . S
C1011 C1010 1.363 . S
C1011 C1014 1.363 . S
N1012 C1014 1.356 . S
N1012 H1024 0.984 . S
N1012 H1025 0.985 . S
N1013 C1015 1.356 . S
N1013 H1018 0.984 . S
N1013 H1019 0.985 . S
C1014 C1008 1.379 . S
C1014 C1011 1.363 . S
C1014 N1012 1.356 . S
C1015 C1009 1.363 . S
C1015 C1010 1.379 . S
C1015 N1013 1.356 . S
N1016 C1008 1.356 . S
N1016 H1022 0.984 . S
N1016 H1023 0.984 . S
N1017 C1010 1.356 . S
N1017 H1020 0.984 . S
N1017 H1021 0.985 . S
H1018 N1013 0.984 . S
H1019 N1013 0.985 . S
H1020 N1017 0.984 . S
H1021 N1017 0.985 . S
H1022 N1016 0.984 . S
H1023 N1016 0.984 . S
H1024 N1012 0.984 . S
H1025 N1012 0.985 . S
C1026 C1027 1.363 . S
C1026 C1032 1.379 . S
C1026 N1034 1.356 . S
C1027 C1026 1.363 . S
C1027 C1033 1.363 . S
C1028 C1029 1.363 . S
C1028 C1033 1.379 . S
C1028 N1035 1.356 . S
C1029 C1028 1.363 . S
C1029 C1032 1.363 . S
N1030 C1032 1.356 . S
N1030 H1042 0.984 . S
N1030 H1043 0.985 . S
N1031 C1033 1.356 . S
N1031 H1036 0.984 . S
N1031 H1037 0.985 . S
C1032 C1026 1.379 . S
C1032 C1029 1.363 . S
C1032 N1030 1.356 . S
C1033 C1027 1.363 . S
C1033 C1028 1.379 . S
C1033 N1031 1.356 . S
N1034 C1026 1.356 . S
N1034 H1040 0.984 . S
N1034 H1041 0.984 . S
N1035 C1028 1.356 . S
N1035 H1038 0.984 . S
N1035 H1039 0.985 . S
H1036 N1031 0.984 . S
H1037 N1031 0.985 . S
H1038 N1035 0.984 . S
H1039 N1035 0.985 . S
H1040 N1034 0.984 . S
H1041 N1034 0.984 . S
H1042 N1030 0.984 . S
H1043 N1030 0.985 . S
C1044 C1045 1.363 . S
C1044 C1050 1.379 . S
C1044 N1052 1.356 . S
C1045 C1044 1.363 . S
C1045 C1051 1.363 . S
C1046 C1047 1.363 . S
C1046 C1051 1.379 . S
C1046 N1053 1.356 . S
C1047 C1046 1.363 . S
C1047 C1050 1.363 . S
N1048 C1050 1.356 . S
N1048 H1060 0.984 . S
N1048 H1061 0.985 . S
N1049 C1051 1.356 . S
N1049 H1054 0.984 . S
N1049 H1055 0.985 . S
C1050 C1044 1.379 . S
C1050 C1047 1.363 . S
C1050 N1048 1.356 . S
C1051 C1045 1.363 . S
C1051 C1046 1.379 . S
C1051 N1049 1.356 . S
N1052 C1044 1.356 . S
N1052 H1058 0.984 . S
N1052 H1059 0.984 . S
N1053 C1046 1.356 . S
N1053 H1056 0.984 . S
N1053 H1057 0.985 . S
H1054 N1049 0.984 . S
H1055 N1049 0.985 . S
H1056 N1053 0.984 . S
H1057 N1053 0.985 . S
H1058 N1052 0.984 . S
H1059 N1052 0.984 . S
H1060 N1048 0.984 . S
H1061 N1048 0.985 . S
C1062 C1063 1.363 . S
C1062 C1068 1.379 . S
C1062 N1070 1.356 . S
C1063 C1062 1.363 . S
C1063 C1069 1.363 . S
C1064 C1065 1.363 . S
C1064 C1069 1.379 . S
C1064 N1071 1.356 . S
C1065 C1064 1.363 . S
C1065 C1068 1.363 . S
N1066 C1068 1.356 . S
N1066 H1078 0.984 . S
N1066 H1079 0.985 . S
N1067 C1069 1.356 . S
N1067 H1072 0.984 . S
N1067 H1073 0.985 . S
C1068 C1062 1.379 . S
C1068 C1065 1.363 . S
C1068 N1066 1.356 . S
C1069 C1063 1.363 . S
C1069 C1064 1.379 . S
C1069 N1067 1.356 . S
N1070 C1062 1.356 . S
N1070 H1076 0.984 . S
N1070 H1077 0.984 . S
N1071 C1064 1.356 . S
N1071 H1074 0.984 . S
N1071 H1075 0.985 . S
H1072 N1067 0.984 . S
H1073 N1067 0.985 . S
H1074 N1071 0.984 . S
H1075 N1071 0.985 . S
H1076 N1070 0.984 . S
H1077 N1070 0.984 . S
H1078 N1066 0.984 . S
H1079 N1066 0.985 . S
C1080 C1081 1.363 . S
C1080 C1086 1.379 . S
C1080 N1088 1.356 . S
C1081 C1080 1.363 . S
C1081 C1087 1.363 . S
C1082 C1083 1.363 . S
C1082 C1087 1.379 . S
C1082 N1089 1.356 . S
C1083 C1082 1.363 . S
C1083 C1086 1.363 . S
N1084 C1086 1.356 . S
N1084 H1096 0.984 . S
N1084 H1097 0.985 . S
N1085 C1087 1.356 . S
N1085 H1090 0.984 . S
N1085 H1091 0.985 . S
C1086 C1080 1.379 . S
C1086 C1083 1.363 . S
C1086 N1084 1.356 . S
C1087 C1081 1.363 . S
C1087 C1082 1.379 . S
C1087 N1085 1.356 . S
N1088 C1080 1.356 . S
N1088 H1094 0.984 . S
N1088 H1095 0.984 . S
N1089 C1082 1.356 . S
N1089 H1092 0.984 . S
N1089 H1093 0.985 . S
H1090 N1085 0.984 . S
H1091 N1085 0.985 . S
H1092 N1089 0.984 . S
H1093 N1089 0.985 . S
H1094 N1088 0.984 . S
H1095 N1088 0.984 . S
H1096 N1084 0.984 . S
H1097 N1084 0.985 . S
C1098 C1099 1.363 . S
C1098 C1104 1.379 . S
C1098 N1106 1.356 . S
C1099 C1098 1.363 . S
C1099 C1105 1.363 . S
C1100 C1101 1.363 . S
C1100 C1105 1.379 . S
C1100 N1107 1.356 . S
C1101 C1100 1.363 . S
C1101 C1104 1.363 . S
N1102 C1104 1.356 . S
N1102 H1114 0.984 . S
N1102 H1115 0.985 . S
N1103 C1105 1.356 . S
N1103 H1108 0.984 . S
N1103 H1109 0.985 . S
C1104 C1098 1.379 . S
C1104 C1101 1.363 . S
C1104 N1102 1.356 . S
C1105 C1099 1.363 . S
C1105 C1100 1.379 . S
C1105 N1103 1.356 . S
N1106 C1098 1.356 . S
N1106 H1112 0.984 . S
N1106 H1113 0.984 . S
N1107 C1100 1.356 . S
N1107 H1110 0.984 . S
N1107 H1111 0.985 . S
H1108 N1103 0.984 . S
H1109 N1103 0.985 . S
H1110 N1107 0.984 . S
H1111 N1107 0.985 . S
H1112 N1106 0.984 . S
H1113 N1106 0.984 . S
H1114 N1102 0.984 . S
H1115 N1102 0.985 . S
C1116 C1117 1.363 . S
C1116 C1122 1.379 . S
C1116 N1124 1.356 . S
C1117 C1116 1.363 . S
C1117 C1123 1.363 . S
C1118 C1119 1.363 . S
C1118 C1123 1.379 . S
C1118 N1125 1.356 . S
C1119 C1118 1.363 . S
C1119 C1122 1.363 . S
N1120 C1122 1.356 . S
N1120 H1132 0.984 . S
N1120 H1133 0.985 . S
N1121 C1123 1.356 . S
N1121 H1126 0.984 . S
N1121 H1127 0.985 . S
C1122 C1116 1.379 . S
C1122 C1119 1.363 . S
C1122 N1120 1.356 . S
C1123 C1117 1.363 . S
C1123 C1118 1.379 . S
C1123 N1121 1.356 . S
N1124 C1116 1.356 . S
N1124 H1130 0.984 . S
N1124 H1131 0.984 . S
N1125 C1118 1.356 . S
N1125 H1128 0.984 . S
N1125 H1129 0.985 . S
H1126 N1121 0.984 . S
H1127 N1121 0.985 . S
H1128 N1125 0.984 . S
H1129 N1125 0.985 . S
H1130 N1124 0.984 . S
H1131 N1124 0.984 . S
H1132 N1120 0.984 . S
H1133 N1120 0.985 . S
C1134 C1135 1.363 . S
C1134 C1140 1.379 . S
C1134 N1142 1.356 . S
C1135 C1134 1.363 . S
C1135 C1141 1.363 . S
C1136 C1137 1.363 . S
C1136 C1141 1.379 . S
C1136 N1143 1.356 . S
C1137 C1136 1.363 . S
C1137 C1140 1.363 . S
N1138 C1140 1.356 . S
N1138 H1150 0.984 . S
N1138 H1151 0.985 . S
N1139 C1141 1.356 . S
N1139 H1144 0.984 . S
N1139 H1145 0.985 . S
C1140 C1134 1.379 . S
C1140 C1137 1.363 . S
C1140 N1138 1.356 . S
C1141 C1135 1.363 . S
C1141 C1136 1.379 . S
C1141 N1139 1.356 . S
N1142 C1134 1.356 . S
N1142 H1148 0.984 . S
N1142 H1149 0.984 . S
N1143 C1136 1.356 . S
N1143 H1146 0.984 . S
N1143 H1147 0.985 . S
H1144 N1139 0.984 . S
H1145 N1139 0.985 . S
H1146 N1143 0.984 . S
H1147 N1143 0.985 . S
H1148 N1142 0.984 . S
H1149 N1142 0.984 . S
H1150 N1138 0.984 . S
H1151 N1138 0.985 . S
C1152 C1153 1.363 . S
C1152 C1158 1.379 . S
C1152 N1160 1.356 . S
C1153 C1152 1.363 . S
C1153 C1159 1.363 . S
C1154 C1155 1.363 . S
C1154 C1159 1.379 . S
C1154 N1161 1.356 . S
C1155 C1154 1.363 . S
C1155 C1158 1.363 . S
N1156 C1158 1.356 . S
N1156 H1168 0.984 . S
N1156 H1169 0.985 . S
N1157 C1159 1.356 . S
N1157 H1162 0.984 . S
N1157 H1163 0.985 . S
C1158 C1152 1.379 . S
C1158 C1155 1.363 . S
C1158 N1156 1.356 . S
C1159 C1153 1.363 . S
C1159 C1154 1.379 . S
C1159 N1157 1.356 . S
N1160 C1152 1.356 . S
N1160 H1166 0.984 . S
N1160 H1167 0.984 . S
N1161 C1154 1.356 . S
N1161 H1164 0.984 . S
N1161 H1165 0.985 . S
H1162 N1157 0.984 . S
H1163 N1157 0.985 . S
H1164 N1161 0.984 . S
H1165 N1161 0.985 . S
H1166 N1160 0.984 . S
H1167 N1160 0.984 . S
H1168 N1156 0.984 . S
H1169 N1156 0.985 . S
C1170 C1171 1.363 . S
C1170 C1176 1.379 . S
C1170 N1178 1.356 . S
C1171 C1170 1.363 . S
C1171 C1177 1.363 . S
C1172 C1173 1.363 . S
C1172 C1177 1.379 . S
C1172 N1179 1.356 . S
C1173 C1172 1.363 . S
C1173 C1176 1.363 . S
N1174 C1176 1.356 . S
N1174 H1186 0.984 . S
N1174 H1187 0.985 . S
N1175 C1177 1.356 . S
N1175 H1180 0.984 . S
N1175 H1181 0.985 . S
C1176 C1170 1.379 . S
C1176 C1173 1.363 . S
C1176 N1174 1.356 . S
C1177 C1171 1.363 . S
C1177 C1172 1.379 . S
C1177 N1175 1.356 . S
N1178 C1170 1.356 . S
N1178 H1184 0.984 . S
N1178 H1185 0.984 . S
N1179 C1172 1.356 . S
N1179 H1182 0.984 . S
N1179 H1183 0.985 . S
H1180 N1175 0.984 . S
H1181 N1175 0.985 . S
H1182 N1179 0.984 . S
H1183 N1179 0.985 . S
H1184 N1178 0.984 . S
H1185 N1178 0.984 . S
H1186 N1174 0.984 . S
H1187 N1174 0.985 . S
C1188 C1189 1.363 . S
C1188 C1194 1.379 . S
C1188 N1196 1.356 . S
C1189 C1188 1.363 . S
C1189 C1195 1.363 . S
C1190 C1191 1.363 . S
C1190 C1195 1.379 . S
C1190 N1197 1.356 . S
C1191 C1190 1.363 . S
C1191 C1194 1.363 . S
N1192 C1194 1.356 . S
N1192 H1204 0.984 . S
N1192 H1205 0.985 . S
N1193 C1195 1.356 . S
N1193 H1198 0.984 . S
N1193 H1199 0.985 . S
C1194 C1188 1.379 . S
C1194 C1191 1.363 . S
C1194 N1192 1.356 . S
C1195 C1189 1.363 . S
C1195 C1190 1.379 . S
C1195 N1193 1.356 . S
N1196 C1188 1.356 . S
N1196 H1202 0.984 . S
N1196 H1203 0.984 . S
N1197 C1190 1.356 . S
N1197 H1200 0.984 . S
N1197 H1201 0.985 . S
H1198 N1193 0.984 . S
H1199 N1193 0.985 . S
H1200 N1197 0.984 . S
H1201 N1197 0.985 . S
H1202 N1196 0.984 . S
H1203 N1196 0.984 . S
H1204 N1192 0.984 . S
H1205 N1192 0.985 . S
C1206 C1207 1.363 . S
C1206 C1212 1.379 . S
C1206 N1214 1.356 . S
C1207 C1206 1.363 . S
C1207 C1213 1.363 . S
C1208 C1209 1.363 . S
C1208 C1213 1.379 . S
C1208 N1215 1.356 . S
C1209 C1208 1.363 . S
C1209 C1212 1.363 . S
N1210 C1212 1.356 . S
N1210 H1222 0.984 . S
N1210 H1223 0.985 . S
N1211 C1213 1.356 . S
N1211 H1216 0.984 . S
N1211 H1217 0.985 . S
C1212 C1206 1.379 . S
C1212 C1209 1.363 . S
C1212 N1210 1.356 . S
C1213 C1207 1.363 . S
C1213 C1208 1.379 . S
C1213 N1211 1.356 . S
N1214 C1206 1.356 . S
N1214 H1220 0.984 . S
N1214 H1221 0.984 . S
N1215 C1208 1.356 . S
N1215 H1218 0.984 . S
N1215 H1219 0.985 . S
H1216 N1211 0.984 . S
H1217 N1211 0.985 . S
H1218 N1215 0.984 . S
H1219 N1215 0.985 . S
H1220 N1214 0.984 . S
H1221 N1214 0.984 . S
H1222 N1210 0.984 . S
H1223 N1210 0.985 . S
C1224 C1225 1.363 . S
C1224 C1230 1.379 . S
C1224 N1232 1.356 . S
C1225 C1224 1.363 . S
C1225 C1231 1.363 . S
C1226 C1227 1.363 . S
C1226 C1231 1.379 . S
C1226 N1233 1.356 . S
C1227 C1226 1.363 . S
C1227 C1230 1.363 . S
N1228 C1230 1.356 . S
N1228 H1240 0.984 . S
N1228 H1241 0.985 . S
N1229 C1231 1.356 . S
N1229 H1234 0.984 . S
N1229 H1235 0.985 . S
C1230 C1224 1.379 . S
C1230 C1227 1.363 . S
C1230 N1228 1.356 . S
C1231 C1225 1.363 . S
C1231 C1226 1.379 . S
C1231 N1229 1.356 . S
N1232 C1224 1.356 . S
N1232 H1238 0.984 . S
N1232 H1239 0.984 . S
N1233 C1226 1.356 . S
N1233 H1236 0.984 . S
N1233 H1237 0.985 . S
H1234 N1229 0.984 . S
H1235 N1229 0.985 . S
H1236 N1233 0.984 . S
H1237 N1233 0.985 . S
H1238 N1232 0.984 . S
H1239 N1232 0.984 . S
H1240 N1228 0.984 . S
H1241 N1228 0.985 . S
C1242 C1243 1.363 . S
C1242 C1248 1.379 . S
C1242 N1250 1.356 . S
C1243 C1242 1.363 . S
C1243 C1249 1.363 . S
C1244 C1245 1.363 . S
C1244 C1249 1.379 . S
C1244 N1251 1.356 . S
C1245 C1244 1.363 . S
C1245 C1248 1.363 . S
N1246 C1248 1.356 . S
N1246 H1258 0.984 . S
N1246 H1259 0.985 . S
N1247 C1249 1.356 . S
N1247 H1252 0.984 . S
N1247 H1253 0.985 . S
C1248 C1242 1.379 . S
C1248 C1245 1.363 . S
C1248 N1246 1.356 . S
C1249 C1243 1.363 . S
C1249 C1244 1.379 . S
C1249 N1247 1.356 . S
N1250 C1242 1.356 . S
N1250 H1256 0.984 . S
N1250 H1257 0.984 . S
N1251 C1244 1.356 . S
N1251 H1254 0.984 . S
N1251 H1255 0.985 . S
H1252 N1247 0.984 . S
H1253 N1247 0.985 . S
H1254 N1251 0.984 . S
H1255 N1251 0.985 . S
H1256 N1250 0.984 . S
H1257 N1250 0.984 . S
H1258 N1246 0.984 . S
H1259 N1246 0.985 . S
C1260 C1261 1.363 . S
C1260 C1266 1.379 . S
C1260 N1268 1.356 . S
C1261 C1260 1.363 . S
C1261 C1267 1.363 . S
C1262 C1263 1.363 . S
C1262 C1267 1.379 . S
C1262 N1269 1.356 . S
C1263 C1262 1.363 . S
C1263 C1266 1.363 . S
N1264 C1266 1.356 . S
N1264 H1276 0.984 . S
N1264 H1277 0.985 . S
N1265 C1267 1.356 . S
N1265 H1270 0.984 . S
N1265 H1271 0.985 1_554 S
C1266 C1260 1.379 . S
C1266 C1263 1.363 . S
C1266 N1264 1.356 . S
C1267 C1261 1.363 . S
C1267 C1262 1.379 . S
C1267 N1265 1.356 . S
N1268 C1260 1.356 . S
N1268 H1274 0.984 . S
N1268 H1275 0.984 . S
N1269 C1262 1.356 . S
N1269 H1272 0.984 . S
N1269 H1273 0.985 . S
H1270 N1265 0.984 . S
H1271 N1265 0.985 1_556 S
H1272 N1269 0.984 . S
H1273 N1269 0.985 . S
H1274 N1268 0.984 . S
H1275 N1268 0.984 . S
H1276 N1264 0.984 . S
H1277 N1264 0.985 . S
C1278 C1279 1.363 . S
C1278 C1284 1.379 . S
C1278 N1286 1.356 . S
C1279 C1278 1.363 . S
C1279 C1285 1.363 . S
C1280 C1281 1.363 . S
C1280 C1285 1.379 . S
C1280 N1287 1.356 . S
C1281 C1280 1.363 . S
C1281 C1284 1.363 . S
N1282 C1284 1.356 . S
N1282 H1294 0.984 . S
N1282 H1295 0.985 . S
N1283 C1285 1.356 . S
N1283 H1288 0.984 . S
N1283 H1289 0.985 1_554 S
C1284 C1278 1.379 . S
C1284 C1281 1.363 . S
C1284 N1282 1.356 . S
C1285 C1279 1.363 . S
C1285 C1280 1.379 . S
C1285 N1283 1.356 . S
N1286 C1278 1.356 . S
N1286 H1292 0.984 . S
N1286 H1293 0.984 . S
N1287 C1280 1.356 . S
N1287 H1290 0.984 . S
N1287 H1291 0.985 . S
H1288 N1283 0.984 . S
H1289 N1283 0.985 1_556 S
H1290 N1287 0.984 . S
H1291 N1287 0.985 . S
H1292 N1286 0.984 . S
H1293 N1286 0.984 . S
H1294 N1282 0.984 . S
H1295 N1282 0.985 . S
C1296 C1297 1.363 . S
C1296 C1302 1.379 . S
C1296 N1304 1.356 . S
C1297 C1296 1.363 . S
C1297 C1303 1.363 . S
C1298 C1299 1.363 . S
C1298 C1303 1.379 . S
C1298 N1305 1.356 . S
C1299 C1298 1.363 . S
C1299 C1302 1.363 . S
N1300 C1302 1.356 . S
N1300 H1312 0.984 . S
N1300 H1313 0.985 . S
N1301 C1303 1.356 1_556 S
N1301 H1306 0.984 . S
N1301 H1307 0.985 . S
C1302 C1296 1.379 . S
C1302 C1299 1.363 . S
C1302 N1300 1.356 . S
C1303 C1297 1.363 . S
C1303 C1298 1.379 . S
C1303 N1301 1.356 1_554 S
N1304 C1296 1.356 . S
N1304 H1310 0.984 . S
N1304 H1311 0.984 . S
N1305 C1298 1.356 . S
N1305 H1308 0.984 . S
N1305 H1309 0.992 . S
H1306 N1301 0.984 . S
H1307 N1301 0.985 . S
H1308 N1305 0.984 . S
H1309 N1305 0.992 . S
H1310 N1304 0.984 . S
H1311 N1304 0.984 . S
H1312 N1300 0.984 . S
H1313 N1300 0.985 . S
C1314 C1315 1.363 . S
C1314 C1320 1.379 . S
C1314 N1322 1.356 . S
C1315 C1314 1.363 . S
C1315 C1321 1.363 . S
C1316 C1317 1.363 . S
C1316 C1321 1.379 . S
C1316 N1323 1.356 . S
C1317 C1316 1.363 . S
C1317 C1320 1.363 . S
N1318 C1320 1.356 . S
N1318 H1330 0.984 . S
N1318 H1331 0.985 . S
N1319 C1321 1.356 . S
N1319 H1324 0.984 . S
N1319 H1325 0.985 . S
C1320 C1314 1.379 . S
C1320 C1317 1.363 . S
C1320 N1318 1.356 . S
C1321 C1315 1.363 . S
C1321 C1316 1.379 . S
C1321 N1319 1.356 . S
N1322 C1314 1.356 . S
N1322 H1328 0.984 . S
N1322 H1329 0.984 . S
N1323 C1316 1.356 . S
N1323 H1326 0.984 . S
N1323 H1327 0.985 . S
H1324 N1319 0.984 . S
H1325 N1319 0.985 . S
H1326 N1323 0.984 . S
H1327 N1323 0.985 . S
H1328 N1322 0.984 . S
H1329 N1322 0.984 . S
H1330 N1318 0.984 . S
H1331 N1318 0.985 . S
C1332 C1333 1.363 . S
C1332 C1338 1.379 . S
C1332 N1340 1.356 . S
C1333 C1332 1.363 . S
C1333 C1339 1.363 1_556 S
C1334 C1335 1.363 . S
C1334 C1339 1.379 1_556 S
C1334 N1341 1.356 1_556 S
C1335 C1334 1.363 . S
C1335 C1338 1.363 . S
N1336 C1338 1.356 . S
N1336 H1348 0.984 . S
N1336 H1349 0.985 . S
N1337 C1339 1.356 . S
N1337 H1342 0.984 . S
N1337 H1343 0.985 . S
C1338 C1332 1.379 . S
C1338 C1335 1.363 . S
C1338 N1336 1.356 . S
C1339 C1333 1.363 1_554 S
C1339 C1334 1.379 1_554 S
C1339 N1337 1.356 . S
N1340 C1332 1.356 . S
N1340 H1346 0.984 . S
N1340 H1347 0.984 . S
N1341 C1334 1.356 1_554 S
N1341 H1344 0.984 1_554 S
N1341 H1345 0.985 . S
H1342 N1337 0.984 . S
H1343 N1337 0.985 . S
H1344 N1341 0.984 1_556 S
H1345 N1341 0.985 . S
H1346 N1340 0.984 . S
H1347 N1340 0.984 . S
H1348 N1336 0.984 . S
H1349 N1336 0.985 . S
C1350 C1351 1.363 . S
C1350 C1356 1.379 . S
C1350 N1358 1.356 . S
C1351 C1350 1.363 . S
C1351 C1357 1.363 . S
C1352 C1353 1.363 . S
C1352 C1357 1.379 . S
C1352 N1359 1.356 . S
C1353 C1352 1.363 . S
C1353 C1356 1.363 . S
N1354 C1356 1.356 . S
N1354 H1366 0.984 . S
N1354 H1367 0.985 . S
N1355 C1357 1.356 . S
N1355 H1360 0.984 . S
N1355 H1361 0.985 . S
C1356 C1350 1.379 . S
C1356 C1353 1.363 . S
C1356 N1354 1.356 . S
C1357 C1351 1.363 . S
C1357 C1352 1.379 . S
C1357 N1355 1.356 . S
N1358 C1350 1.356 . S
N1358 H1364 0.984 . S
N1358 H1365 0.984 . S
N1359 C1352 1.356 . S
N1359 H1362 0.984 . S
N1359 H1363 0.985 . S
H1360 N1355 0.984 . S
H1361 N1355 0.985 . S
H1362 N1359 0.984 . S
H1363 N1359 0.985 . S
H1364 N1358 0.984 . S
H1365 N1358 0.984 . S
H1366 N1354 0.984 . S
H1367 N1354 0.985 . S
C1368 C1369 1.363 . S
C1368 C1374 1.379 . S
C1368 N1376 1.356 . S
C1369 C1368 1.363 . S
C1369 C1375 1.363 . S
C1370 C1371 1.363 . S
C1370 C1375 1.379 . S
C1370 N1377 1.356 . S
C1371 C1370 1.363 . S
C1371 C1374 1.363 . S
N1372 C1374 1.356 . S
N1372 H1384 0.984 . S
N1372 H1385 0.985 . S
N1373 C1375 1.356 . S
N1373 H1378 0.984 . S
N1373 H1379 0.985 . S
C1374 C1368 1.379 . S
C1374 C1371 1.363 . S
C1374 N1372 1.356 . S
C1375 C1369 1.363 . S
C1375 C1370 1.379 . S
C1375 N1373 1.356 . S
N1376 C1368 1.356 . S
N1376 H1382 0.984 1_556 S
N1376 H1383 0.984 1_556 S
N1377 C1370 1.356 . S
N1377 H1380 0.984 . S
N1377 H1381 0.985 . S
H1378 N1373 0.984 . S
H1379 N1373 0.985 . S
H1380 N1377 0.984 . S
H1381 N1377 0.985 . S
H1382 N1376 0.984 1_554 S
H1383 N1376 0.984 1_554 S
H1384 N1372 0.984 . S
H1385 N1372 0.985 . S
C1386 C1387 1.363 . S
C1386 C1392 1.379 . S
C1386 N1394 1.356 . S
C1387 C1386 1.363 . S
C1387 C1393 1.363 . S
C1388 C1389 1.363 . S
C1388 C1393 1.379 . S
C1388 N1395 1.356 . S
C1389 C1388 1.363 . S
C1389 C1392 1.363 . S
N1390 C1392 1.356 . S
N1390 H1402 0.984 . S
N1390 H1403 0.985 . S
N1391 C1393 1.356 1_554 S
N1391 H1396 0.984 . S
N1391 H1397 0.985 . S
C1392 C1386 1.379 . S
C1392 C1389 1.363 . S
C1392 N1390 1.356 . S
C1393 C1387 1.363 . S
C1393 C1388 1.379 . S
C1393 N1391 1.356 1_556 S
N1394 C1386 1.356 . S
N1394 H1400 0.984 . S
N1394 H1401 0.984 . S
N1395 C1388 1.356 . S
N1395 H1398 0.984 . S
N1395 H1399 0.985 1_556 S
H1396 N1391 0.984 . S
H1397 N1391 0.985 . S
H1398 N1395 0.984 . S
H1399 N1395 0.985 1_554 S
H1400 N1394 0.984 . S
H1401 N1394 0.984 . S
H1402 N1390 0.984 . S
H1403 N1390 0.985 . S
C1404 C1405 1.363 . S
C1404 C1410 1.379 . S
C1404 N1412 1.356 . S
C1405 C1404 1.363 . S
C1405 C1411 1.363 . S
C1406 C1407 1.363 . S
C1406 C1411 1.379 . S
C1406 N1413 1.356 . S
C1407 C1406 1.363 . S
C1407 C1410 1.363 . S
N1408 C1410 1.356 . S
N1408 H1420 0.984 . S
N1408 H1421 0.985 . S
N1409 C1411 1.356 . S
N1409 H1414 0.984 . S
N1409 H1415 0.985 . S
C1410 C1404 1.379 . S
C1410 C1407 1.363 . S
C1410 N1408 1.356 . S
C1411 C1405 1.363 . S
C1411 C1406 1.379 . S
C1411 N1409 1.356 . S
N1412 C1404 1.356 . S
N1412 H1418 0.984 . S
N1412 H1419 0.984 . S
N1413 C1406 1.356 . S
N1413 H1416 0.984 . S
N1413 H1417 0.985 . S
H1414 N1409 0.984 . S
H1415 N1409 0.985 . S
H1416 N1413 0.984 . S
H1417 N1413 0.985 . S
H1418 N1412 0.984 . S
H1419 N1412 0.984 . S
H1420 N1408 0.984 . S
H1421 N1408 0.985 . S
C1422 C1423 1.363 . S
C1422 C1428 1.379 . S
C1422 N1430 1.356 . S
C1423 C1422 1.363 . S
C1423 C1429 1.363 . S
C1424 C1425 1.363 . S
C1424 C1429 1.379 . S
C1424 N1431 1.356 . S
C1425 C1424 1.363 . S
C1425 C1428 1.363 . S
N1426 C1428 1.356 . S
N1426 H1438 0.984 . S
N1426 H1439 0.985 . S
N1427 C1429 1.356 1_556 S
N1427 H1432 0.984 . S
N1427 H1433 0.985 . S
C1428 C1422 1.379 . S
C1428 C1425 1.363 . S
C1428 N1426 1.356 . S
C1429 C1423 1.363 . S
C1429 C1424 1.379 . S
C1429 N1427 1.356 1_554 S
N1430 C1422 1.356 . S
N1430 H1436 0.984 . S
N1430 H1437 0.984 . S
N1431 C1424 1.356 . S
N1431 H1434 0.984 . S
N1431 H1435 0.977 1_554 S
H1432 N1427 0.984 . S
H1433 N1427 0.985 . S
H1434 N1431 0.984 . S
H1435 N1431 0.977 1_556 S
H1436 N1430 0.984 . S
H1437 N1430 0.984 . S
H1438 N1426 0.984 . S
H1439 N1426 0.985 . S
C1440 C1441 1.363 . S
C1440 C1446 1.379 . S
C1440 N1448 1.356 1_554 S
C1441 C1440 1.363 . S
C1441 C1447 1.363 . S
C1442 C1443 1.363 . S
C1442 C1447 1.379 . S
C1442 N1449 1.356 . S
C1443 C1442 1.363 . S
C1443 C1446 1.363 . S
N1444 C1446 1.356 . S
N1444 H1456 0.984 1_554 S
N1444 H1457 0.985 . S
N1445 C1447 1.356 . S
N1445 H1450 0.984 . S
N1445 H1451 0.985 . S
C1446 C1440 1.379 . S
C1446 C1443 1.363 . S
C1446 N1444 1.356 . S
C1447 C1441 1.363 . S
C1447 C1442 1.379 . S
C1447 N1445 1.356 . S
N1448 C1440 1.356 1_556 S
N1448 H1454 0.984 . S
N1448 H1455 0.984 . S
N1449 C1442 1.356 . S
N1449 H1452 0.984 . S
N1449 H1453 0.985 . S
H1450 N1445 0.984 . S
H1451 N1445 0.985 . S
H1452 N1449 0.984 . S
H1453 N1449 0.985 . S
H1454 N1448 0.984 . S
H1455 N1448 0.984 . S
H1456 N1444 0.984 1_556 S
H1457 N1444 0.985 . S
C1458 C1459 1.363 . S
C1458 C1464 1.379 . S
C1458 N1466 1.356 1_554 S
C1459 C1458 1.363 . S
C1459 C1465 1.363 . S
C1460 C1461 1.363 . S
C1460 C1465 1.379 . S
C1460 N1467 1.356 . S
C1461 C1460 1.363 . S
C1461 C1464 1.363 . S
N1462 C1464 1.356 . S
N1462 H1474 0.984 1_554 S
N1462 H1475 0.985 . S
N1463 C1465 1.356 . S
N1463 H1468 0.984 . S
N1463 H1469 0.985 . S
C1464 C1458 1.379 . S
C1464 C1461 1.363 . S
C1464 N1462 1.356 . S
C1465 C1459 1.363 . S
C1465 C1460 1.379 . S
C1465 N1463 1.356 . S
N1466 C1458 1.356 1_556 S
N1466 H1472 0.984 . S
N1466 H1473 0.984 . S
N1467 C1460 1.356 . S
N1467 H1470 0.984 . S
N1467 H1471 0.985 . S
H1468 N1463 0.984 . S
H1469 N1463 0.985 . S
H1470 N1467 0.984 . S
H1471 N1467 0.985 . S
H1472 N1466 0.984 . S
H1473 N1466 0.984 . S
H1474 N1462 0.984 1_556 S
H1475 N1462 0.985 . S
C1476 C1477 1.363 . S
C1476 C1482 1.379 . S
C1476 N1484 1.356 . S
C1477 C1476 1.363 . S
C1477 C1483 1.363 . S
C1478 C1479 1.363 . S
C1478 C1483 1.379 . S
C1478 N1485 1.356 . S
C1479 C1478 1.363 . S
C1479 C1482 1.363 . S
N1480 C1482 1.356 . S
N1480 H1492 0.984 . S
N1480 H1493 0.985 . S
N1481 C1483 1.356 . S
N1481 H1486 0.984 . S
N1481 H1487 0.985 . S
C1482 C1476 1.379 . S
C1482 C1479 1.363 . S
C1482 N1480 1.356 . S
C1483 C1477 1.363 . S
C1483 C1478 1.379 . S
C1483 N1481 1.356 . S
N1484 C1476 1.356 . S
N1484 H1490 0.984 . S
N1484 H1491 0.984 . S
N1485 C1478 1.356 . S
N1485 H1488 0.984 . S
N1485 H1489 0.985 . S
H1486 N1481 0.984 . S
H1487 N1481 0.985 . S
H1488 N1485 0.984 . S
H1489 N1485 0.985 . S
H1490 N1484 0.984 . S
H1491 N1484 0.984 . S
H1492 N1480 0.984 . S
H1493 N1480 0.985 . S
C1494 C1495 1.363 . S
C1494 C1500 1.379 . S
C1494 N1502 1.356 . S
C1495 C1494 1.363 . S
C1495 C1501 1.363 . S
C1496 C1497 1.363 . S
C1496 C1501 1.379 . S
C1496 N1503 1.356 . S
C1497 C1496 1.363 . S
C1497 C1500 1.363 . S
N1498 C1500 1.356 . S
N1498 H1510 0.984 . S
N1498 H1511 0.985 . S
N1499 C1501 1.356 . S
N1499 H1504 0.984 . S
N1499 H1505 0.985 . S
C1500 C1494 1.379 . S
C1500 C1497 1.363 . S
C1500 N1498 1.356 . S
C1501 C1495 1.363 . S
C1501 C1496 1.379 . S
C1501 N1499 1.356 . S
N1502 C1494 1.356 . S
N1502 H1508 0.984 . S
N1502 H1509 0.984 . S
N1503 C1496 1.356 . S
N1503 H1506 0.984 . S
N1503 H1507 0.985 . S
H1504 N1499 0.984 . S
H1505 N1499 0.985 . S
H1506 N1503 0.984 . S
H1507 N1503 0.985 . S
H1508 N1502 0.984 . S
H1509 N1502 0.984 . S
H1510 N1498 0.984 . S
H1511 N1498 0.985 . S
C1512 C1513 1.363 . S
C1512 C1518 1.379 . S
C1512 N1520 1.356 . S
C1513 C1512 1.363 . S
C1513 C1519 1.363 . S
C1514 C1515 1.363 . S
C1514 C1519 1.379 . S
C1514 N1521 1.356 . S
C1515 C1514 1.363 . S
C1515 C1518 1.363 . S
N1516 C1518 1.356 . S
N1516 H1528 0.984 . S
N1516 H1529 0.985 . S
N1517 C1519 1.356 . S
N1517 H1522 0.984 . S
N1517 H1523 0.985 . S
C1518 C1512 1.379 . S
C1518 C1515 1.363 . S
C1518 N1516 1.356 . S
C1519 C1513 1.363 . S
C1519 C1514 1.379 . S
C1519 N1517 1.356 . S
N1520 C1512 1.356 . S
N1520 H1526 0.984 . S
N1520 H1527 0.984 . S
N1521 C1514 1.356 . S
N1521 H1524 0.984 . S
N1521 H1525 0.985 . S
H1522 N1517 0.984 . S
H1523 N1517 0.985 . S
H1524 N1521 0.984 . S
H1525 N1521 0.985 . S
H1526 N1520 0.984 . S
H1527 N1520 0.984 . S
H1528 N1516 0.984 . S
H1529 N1516 0.985 . S
C1530 C1531 1.363 1_655 S
C1530 C1536 1.379 . S
C1530 N1538 1.356 . S
C1531 C1530 1.363 1_455 S
C1531 C1537 1.363 . S
C1532 C1533 1.363 . S
C1532 C1537 1.379 . S
C1532 N1539 1.356 . S
C1533 C1532 1.363 . S
C1533 C1536 1.363 1_455 S
N1534 C1536 1.356 . S
N1534 H1546 0.984 . S
N1534 H1547 0.985 . S
N1535 C1537 1.356 . S
N1535 H1540 0.984 . S
N1535 H1541 0.985 . S
C1536 C1530 1.379 . S
C1536 C1533 1.363 1_655 S
C1536 N1534 1.356 . S
C1537 C1531 1.363 . S
C1537 C1532 1.379 . S
C1537 N1535 1.356 . S
N1538 C1530 1.356 . S
N1538 H1544 0.984 . S
N1538 H1545 0.984 . S
N1539 C1532 1.356 . S
N1539 H1542 0.984 . S
N1539 H1543 0.985 . S
H1540 N1535 0.984 . S
H1541 N1535 0.985 . S
H1542 N1539 0.984 . S
H1543 N1539 0.985 . S
H1544 N1538 0.984 . S
H1545 N1538 0.984 . S
H1546 N1534 0.984 . S
H1547 N1534 0.985 . S
C1548 C1549 1.363 . S
C1548 C1554 1.379 . S
C1548 N1556 1.356 . S
C1549 C1548 1.363 . S
C1549 C1555 1.363 . S
C1550 C1551 1.363 . S
C1550 C1555 1.379 . S
C1550 N1557 1.356 . S
C1551 C1550 1.363 . S
C1551 C1554 1.363 . S
N1552 C1554 1.356 . S
N1552 H1564 0.984 . S
N1552 H1565 0.985 . S
N1553 C1555 1.356 . S
N1553 H1558 0.984 . S
N1553 H1559 0.985 . S
C1554 C1548 1.379 . S
C1554 C1551 1.363 . S
C1554 N1552 1.356 . S
C1555 C1549 1.363 . S
C1555 C1550 1.379 . S
C1555 N1553 1.356 . S
N1556 C1548 1.356 . S
N1556 H1562 0.984 . S
N1556 H1563 0.984 . S
N1557 C1550 1.356 . S
N1557 H1560 0.984 . S
N1557 H1561 0.985 . S
H1558 N1553 0.984 . S
H1559 N1553 0.985 . S
H1560 N1557 0.984 . S
H1561 N1557 0.985 . S
H1562 N1556 0.984 . S
H1563 N1556 0.984 . S
H1564 N1552 0.984 . S
H1565 N1552 0.985 . S
C1566 C1567 1.363 . S
C1566 C1572 1.379 . S
C1566 N1574 1.356 . S
C1567 C1566 1.363 . S
C1567 C1573 1.363 1_565 S
C1568 C1569 1.363 1_545 S
C1568 C1573 1.379 . S
C1568 N1575 1.356 . S
C1569 C1568 1.363 1_565 S
C1569 C1572 1.363 . S
N1570 C1572 1.356 . S
N1570 H1582 0.984 . S
N1570 H1583 0.985 . S
N1571 C1573 1.356 . S
N1571 H1576 0.984 . S
N1571 H1577 0.985 . S
C1572 C1566 1.379 . S
C1572 C1569 1.363 . S
C1572 N1570 1.356 . S
C1573 C1567 1.363 1_545 S
C1573 C1568 1.379 . S
C1573 N1571 1.356 . S
N1574 C1566 1.356 . S
N1574 H1580 0.984 . S
N1574 H1581 0.984 . S
N1575 C1568 1.356 . S
N1575 H1578 0.984 . S
N1575 H1579 0.985 . S
H1576 N1571 0.984 . S
H1577 N1571 0.985 . S
H1578 N1575 0.984 . S
H1579 N1575 0.985 . S
H1580 N1574 0.984 . S
H1581 N1574 0.984 . S
H1582 N1570 0.984 . S
H1583 N1570 0.985 . S
C1584 C1585 1.363 . S
C1584 C1590 1.398 . S
C1584 N1592 1.356 . S
C1585 C1584 1.363 . S
C1585 C1591 1.363 . S
C1586 C1587 1.363 . S
C1586 C1591 1.379 . S
C1586 N1593 1.356 . S
C1587 C1586 1.363 . S
C1587 C1590 1.353 . S
N1588 C1590 1.343 1_545 S
N1588 H1600 0.984 . S
N1588 H1601 0.985 . S
N1589 C1591 1.356 . S
N1589 H1594 0.984 . S
N1589 H1595 0.985 . S
C1590 C1584 1.398 . S
C1590 C1587 1.353 . S
C1590 N1588 1.343 1_565 S
C1591 C1585 1.363 . S
C1591 C1586 1.379 . S
C1591 N1589 1.356 . S
N1592 C1584 1.356 . S
N1592 H1598 0.984 1_565 S
N1592 H1599 0.984 . S
N1593 C1586 1.356 . S
N1593 H1596 0.984 . S
N1593 H1597 0.985 . S
H1594 N1589 0.984 . S
H1595 N1589 0.985 . S
H1596 N1593 0.984 . S
H1597 N1593 0.985 . S
H1598 N1592 0.984 1_545 S
H1599 N1592 0.984 . S
H1600 N1588 0.984 . S
H1601 N1588 0.985 . S
C1602 C1603 1.363 . S
C1602 C1608 1.379 . S
C1602 N1610 1.356 . S
C1603 C1602 1.363 . S
C1603 C1609 1.363 1_455 S
C1604 C1605 1.363 1_655 S
C1604 C1609 1.379 . S
C1604 N1611 1.356 . S
C1605 C1604 1.363 1_455 S
C1605 C1608 1.363 . S
N1606 C1608 1.356 . S
N1606 H1618 0.984 . S
N1606 H1619 0.985 . S
N1607 C1609 1.356 . S
N1607 H1612 0.984 . S
N1607 H1613 0.985 . S
C1608 C1602 1.379 . S
C1608 C1605 1.363 . S
C1608 N1606 1.356 . S
C1609 C1603 1.363 1_655 S
C1609 C1604 1.379 . S
C1609 N1607 1.356 . S
N1610 C1602 1.356 . S
N1610 H1616 0.984 . S
N1610 H1617 0.984 . S
N1611 C1604 1.356 . S
N1611 H1614 0.984 . S
N1611 H1615 0.985 . S
H1612 N1607 0.984 . S
H1613 N1607 0.985 . S
H1614 N1611 0.984 . S
H1615 N1611 0.985 . S
H1616 N1610 0.984 . S
H1617 N1610 0.984 . S
H1618 N1606 0.984 . S
H1619 N1606 0.985 . S
C1620 C1621 1.363 . S
C1620 C1626 1.379 . S
C1620 N1628 1.356 . S
C1621 C1620 1.363 . S
C1621 C1627 1.363 . S
C1622 C1623 1.363 . S
C1622 C1627 1.379 . S
C1622 N1629 1.356 . S
C1623 C1622 1.363 . S
C1623 C1626 1.363 . S
N1624 C1626 1.356 . S
N1624 H1636 0.984 . S
N1624 H1637 0.985 . S
N1625 C1627 1.356 . S
N1625 H1630 0.984 . S
N1625 H1631 0.985 . S
C1626 C1620 1.379 . S
C1626 C1623 1.363 . S
C1626 N1624 1.356 . S
C1627 C1621 1.363 . S
C1627 C1622 1.379 . S
C1627 N1625 1.356 . S
N1628 C1620 1.356 . S
N1628 H1634 0.984 . S
N1628 H1635 0.984 . S
N1629 C1622 1.356 . S
N1629 H1632 0.984 . S
N1629 H1633 0.985 . S
H1630 N1625 0.984 . S
H1631 N1625 0.985 . S
H1632 N1629 0.984 . S
H1633 N1629 0.985 . S
H1634 N1628 0.984 . S
H1635 N1628 0.984 . S
H1636 N1624 0.984 . S
H1637 N1624 0.985 . S
C1638 C1639 1.363 . S
C1638 C1644 1.379 . S
C1638 N1646 1.356 . S
C1639 C1638 1.363 . S
C1639 C1645 1.363 . S
C1640 C1641 1.363 . S
C1640 C1645 1.379 . S
C1640 N1647 1.356 . S
C1641 C1640 1.363 . S
C1641 C1644 1.363 . S
N1642 C1644 1.356 . S
N1642 H1654 0.984 . S
N1642 H1655 0.985 . S
N1643 C1645 1.356 . S
N1643 H1648 0.984 . S
N1643 H1649 0.985 . S
C1644 C1638 1.379 . S
C1644 C1641 1.363 . S
C1644 N1642 1.356 . S
C1645 C1639 1.363 . S
C1645 C1640 1.379 . S
C1645 N1643 1.356 . S
N1646 C1638 1.356 . S
N1646 H1652 0.984 . S
N1646 H1653 0.984 . S
N1647 C1640 1.356 . S
N1647 H1650 0.984 . S
N1647 H1651 0.985 . S
H1648 N1643 0.984 . S
H1649 N1643 0.985 . S
H1650 N1647 0.984 . S
H1651 N1647 0.985 . S
H1652 N1646 0.984 . S
H1653 N1646 0.984 . S
H1654 N1642 0.984 . S
H1655 N1642 0.985 . S
C1656 C1657 1.363 . S
C1656 C1662 1.379 . S
C1656 N1664 1.356 . S
C1657 C1656 1.363 . S
C1657 C1663 1.363 . S
C1658 C1659 1.363 . S
C1658 C1663 1.379 . S
C1658 N1665 1.356 . S
C1659 C1658 1.363 . S
C1659 C1662 1.363 . S
N1660 C1662 1.356 . S
N1660 H1672 0.984 . S
N1660 H1673 0.985 . S
N1661 C1663 1.356 . S
N1661 H1666 0.984 . S
N1661 H1667 0.985 . S
C1662 C1656 1.379 . S
C1662 C1659 1.363 . S
C1662 N1660 1.356 . S
C1663 C1657 1.363 . S
C1663 C1658 1.379 . S
C1663 N1661 1.356 . S
N1664 C1656 1.356 . S
N1664 H1670 0.984 . S
N1664 H1671 0.984 . S
N1665 C1658 1.356 . S
N1665 H1668 0.984 . S
N1665 H1669 0.985 . S
H1666 N1661 0.984 . S
H1667 N1661 0.985 . S
H1668 N1665 0.984 . S
H1669 N1665 0.985 . S
H1670 N1664 0.984 . S
H1671 N1664 0.984 . S
H1672 N1660 0.984 . S
H1673 N1660 0.985 . S
C1674 C1675 1.363 . S
C1674 C1680 1.379 . S
C1674 N1682 1.356 . S
C1675 C1674 1.363 . S
C1675 C1681 1.363 . S
C1676 C1677 1.363 . S
C1676 C1681 1.379 . S
C1676 N1683 1.356 . S
C1677 C1676 1.363 . S
C1677 C1680 1.363 . S
N1678 C1680 1.356 . S
N1678 H1690 0.984 . S
N1678 H1691 0.985 . S
N1679 C1681 1.356 . S
N1679 H1684 0.984 . S
N1679 H1685 0.985 . S
C1680 C1674 1.379 . S
C1680 C1677 1.363 . S
C1680 N1678 1.356 . S
C1681 C1675 1.363 . S
C1681 C1676 1.379 . S
C1681 N1679 1.356 . S
N1682 C1674 1.356 . S
N1682 H1688 0.984 . S
N1682 H1689 0.984 . S
N1683 C1676 1.356 . S
N1683 H1686 0.984 . S
N1683 H1687 0.985 . S
H1684 N1679 0.984 . S
H1685 N1679 0.985 . S
H1686 N1683 0.984 . S
H1687 N1683 0.985 . S
H1688 N1682 0.984 . S
H1689 N1682 0.984 . S
H1690 N1678 0.984 . S
H1691 N1678 0.985 . S
C1692 C1693 1.355 1_565 S
C1692 C1698 1.387 . S
C1692 N1700 1.353 . S
C1693 C1692 1.355 1_545 S
C1693 C1699 1.363 . S
C1694 C1695 1.363 . S
C1694 C1699 1.379 . S
C1694 N1701 1.356 . S
C1695 C1694 1.363 . S
C1695 C1698 1.363 1_545 S
N1696 C1698 1.356 . S
N1696 H1708 0.984 . S
N1696 H1709 0.985 . S
N1697 C1699 1.356 . S
N1697 H1702 0.984 . S
N1697 H1703 0.985 . S
C1698 C1692 1.387 . S
C1698 C1695 1.363 1_565 S
C1698 N1696 1.356 . S
C1699 C1693 1.363 . S
C1699 C1694 1.379 . S
C1699 N1697 1.356 . S
N1700 C1692 1.353 . S
N1700 H1706 0.984 . S
N1700 H1707 0.984 . S
N1701 C1694 1.356 . S
N1701 H1704 0.984 . S
N1701 H1705 0.985 . S
H1702 N1697 0.984 . S
H1703 N1697 0.985 . S
H1704 N1701 0.984 . S
H1705 N1701 0.985 . S
H1706 N1700 0.984 . S
H1707 N1700 0.984 . S
H1708 N1696 0.984 . S
H1709 N1696 0.985 . S
C1710 C1711 1.363 1_455 S
C1710 C1716 1.379 . S
C1710 N1718 1.356 . S
C1711 C1710 1.363 1_655 S
C1711 C1717 1.363 . S
C1712 C1713 1.363 . S
C1712 C1717 1.379 . S
C1712 N1719 1.356 . S
C1713 C1712 1.363 . S
C1713 C1716 1.363 1_655 S
N1714 C1716 1.356 . S
N1714 H1726 0.984 . S
N1714 H1727 0.985 . S
N1715 C1717 1.356 . S
N1715 H1720 0.984 . S
N1715 H1721 0.985 . S
C1716 C1710 1.379 . S
C1716 C1713 1.363 1_455 S
C1716 N1714 1.356 . S
C1717 C1711 1.363 . S
C1717 C1712 1.379 . S
C1717 N1715 1.356 . S
N1718 C1710 1.356 . S
N1718 H1724 0.984 . S
N1718 H1725 0.984 . S
N1719 C1712 1.356 . S
N1719 H1722 0.984 . S
N1719 H1723 0.985 . S
H1720 N1715 0.984 . S
H1721 N1715 0.985 . S
H1722 N1719 0.984 . S
H1723 N1719 0.985 . S
H1724 N1718 0.984 . S
H1725 N1718 0.984 . S
H1726 N1714 0.984 . S
H1727 N1714 0.985 . S
C1728 C1729 1.363 . S
C1728 C1734 1.379 . S
C1728 N1736 1.356 . S
C1729 C1728 1.363 . S
C1729 C1735 1.363 . S
C1730 C1731 1.363 . S
C1730 C1735 1.379 . S
C1730 N1737 1.356 . S
C1731 C1730 1.363 . S
C1731 C1734 1.363 . S
N1732 C1734 1.356 . S
N1732 H1744 0.984 . S
N1732 H1745 0.985 . S
N1733 C1735 1.356 . S
N1733 H1738 0.984 . S
N1733 H1739 0.985 . S
C1734 C1728 1.379 . S
C1734 C1731 1.363 . S
C1734 N1732 1.356 . S
C1735 C1729 1.363 . S
C1735 C1730 1.379 . S
C1735 N1733 1.356 . S
N1736 C1728 1.356 . S
N1736 H1742 0.984 . S
N1736 H1743 0.984 . S
N1737 C1730 1.356 . S
N1737 H1740 0.984 . S
N1737 H1741 0.985 . S
H1738 N1733 0.984 . S
H1739 N1733 0.985 . S
H1740 N1737 0.984 . S
H1741 N1737 0.985 . S
H1742 N1736 0.984 . S
H1743 N1736 0.984 . S
H1744 N1732 0.984 . S
H1745 N1732 0.985 . S
C1746 C1747 1.363 . S
C1746 C1752 1.379 . S
C1746 N1754 1.356 . S
C1747 C1746 1.363 . S
C1747 C1753 1.363 . S
C1748 C1749 1.363 . S
C1748 C1753 1.379 . S
C1748 N1755 1.356 . S
C1749 C1748 1.363 . S
C1749 C1752 1.363 . S
N1750 C1752 1.356 . S
N1750 H1762 0.984 . S
N1750 H1763 0.985 . S
N1751 C1753 1.356 . S
N1751 H1756 0.984 . S
N1751 H1757 0.985 . S
C1752 C1746 1.379 . S
C1752 C1749 1.363 . S
C1752 N1750 1.356 . S
C1753 C1747 1.363 . S
C1753 C1748 1.379 . S
C1753 N1751 1.356 . S
N1754 C1746 1.356 . S
N1754 H1760 0.984 . S
N1754 H1761 0.984 . S
N1755 C1748 1.356 . S
N1755 H1758 0.984 . S
N1755 H1759 0.985 . S
H1756 N1751 0.984 . S
H1757 N1751 0.985 . S
H1758 N1755 0.984 . S
H1759 N1755 0.985 . S
H1760 N1754 0.984 . S
H1761 N1754 0.984 . S
H1762 N1750 0.984 . S
H1763 N1750 0.985 . S
C1764 C1765 1.363 . S
C1764 C1770 1.379 . S
C1764 N1772 1.356 . S
C1765 C1764 1.363 . S
C1765 C1771 1.363 . S
C1766 C1767 1.363 . S
C1766 C1771 1.379 . S
C1766 N1773 1.356 . S
C1767 C1766 1.363 . S
C1767 C1770 1.363 . S
N1768 C1770 1.356 . S
N1768 H1780 0.984 . S
N1768 H1781 0.985 . S
N1769 C1771 1.356 . S
N1769 H1774 0.984 . S
N1769 H1775 0.985 . S
C1770 C1764 1.379 . S
C1770 C1767 1.363 . S
C1770 N1768 1.356 . S
C1771 C1765 1.363 . S
C1771 C1766 1.379 . S
C1771 N1769 1.356 . S
N1772 C1764 1.356 . S
N1772 H1778 0.984 . S
N1772 H1779 0.984 . S
N1773 C1766 1.356 . S
N1773 H1776 0.984 . S
N1773 H1777 0.985 . S
H1774 N1769 0.984 . S
H1775 N1769 0.985 . S
H1776 N1773 0.984 . S
H1777 N1773 0.985 . S
H1778 N1772 0.984 . S
H1779 N1772 0.984 . S
H1780 N1768 0.984 . S
H1781 N1768 0.985 . S
C1782 C1783 1.363 . S
C1782 C1788 1.379 . S
C1782 N1790 1.356 . S
C1783 C1782 1.363 . S
C1783 C1789 1.363 . S
C1784 C1785 1.363 . S
C1784 C1789 1.379 . S
C1784 N1791 1.356 . S
C1785 C1784 1.363 . S
C1785 C1788 1.363 . S
N1786 C1788 1.356 . S
N1786 H1798 0.984 . S
N1786 H1799 0.985 . S
N1787 C1789 1.356 . S
N1787 H1792 0.984 . S
N1787 H1793 0.985 . S
C1788 C1782 1.379 . S
C1788 C1785 1.363 . S
C1788 N1786 1.356 . S
C1789 C1783 1.363 . S
C1789 C1784 1.379 . S
C1789 N1787 1.356 . S
N1790 C1782 1.356 . S
N1790 H1796 0.984 . S
N1790 H1797 0.984 . S
N1791 C1784 1.356 . S
N1791 H1794 0.984 . S
N1791 H1795 0.985 . S
H1792 N1787 0.984 . S
H1793 N1787 0.985 . S
H1794 N1791 0.984 . S
H1795 N1791 0.985 . S
H1796 N1790 0.984 . S
H1797 N1790 0.984 . S
H1798 N1786 0.984 . S
H1799 N1786 0.985 . S
C1800 C1801 1.363 . S
C1800 C1806 1.379 . S
C1800 N1808 1.356 . S
C1801 C1800 1.363 . S
C1801 C1807 1.363 . S
C1802 C1803 1.363 . S
C1802 C1807 1.379 . S
C1802 N1809 1.356 . S
C1803 C1802 1.363 . S
C1803 C1806 1.363 . S
N1804 C1806 1.356 . S
N1804 H1816 0.984 . S
N1804 H1817 0.985 . S
N1805 C1807 1.356 . S
N1805 H1810 0.984 . S
N1805 H1811 0.985 . S
C1806 C1800 1.379 . S
C1806 C1803 1.363 . S
C1806 N1804 1.356 . S
C1807 C1801 1.363 . S
C1807 C1802 1.379 . S
C1807 N1805 1.356 . S
N1808 C1800 1.356 . S
N1808 H1814 0.984 . S
N1808 H1815 0.984 . S
N1809 C1802 1.356 . S
N1809 H1812 0.984 . S
N1809 H1813 0.985 . S
H1810 N1805 0.984 . S
H1811 N1805 0.985 . S
H1812 N1809 0.984 . S
H1813 N1809 0.985 . S
H1814 N1808 0.984 . S
H1815 N1808 0.984 . S
H1816 N1804 0.984 . S
H1817 N1804 0.985 . S
C1818 C1819 1.363 . S
C1818 C1824 1.379 . S
C1818 N1826 1.356 . S
C1819 C1818 1.363 . S
C1819 C1825 1.363 . S
C1820 C1821 1.363 . S
C1820 C1825 1.379 . S
C1820 N1827 1.356 . S
C1821 C1820 1.363 . S
C1821 C1824 1.363 . S
N1822 C1824 1.356 . S
N1822 H1834 0.984 . S
N1822 H1835 0.985 . S
N1823 C1825 1.356 . S
N1823 H1828 0.984 . S
N1823 H1829 0.985 . S
C1824 C1818 1.379 . S
C1824 C1821 1.363 . S
C1824 N1822 1.356 . S
C1825 C1819 1.363 . S
C1825 C1820 1.379 . S
C1825 N1823 1.356 . S
N1826 C1818 1.356 . S
N1826 H1832 0.984 . S
N1826 H1833 0.984 . S
N1827 C1820 1.356 . S
N1827 H1830 0.984 . S
N1827 H1831 0.985 . S
H1828 N1823 0.984 . S
H1829 N1823 0.985 . S
H1830 N1827 0.984 . S
H1831 N1827 0.985 . S
H1832 N1826 0.984 . S
H1833 N1826 0.984 . S
H1834 N1822 0.984 . S
H1835 N1822 0.985 . S
C1836 C1837 1.363 . S
C1836 C1842 1.379 . S
C1836 N1844 1.356 . S
C1837 C1836 1.363 . S
C1837 C1843 1.363 . S
C1838 C1839 1.363 . S
C1838 C1843 1.379 . S
C1838 N1845 1.356 . S
C1839 C1838 1.363 . S
C1839 C1842 1.363 . S
N1840 C1842 1.356 . S
N1840 H1852 0.984 . S
N1840 H1853 0.985 . S
N1841 C1843 1.356 . S
N1841 H1846 0.984 . S
N1841 H1847 0.985 . S
C1842 C1836 1.379 . S
C1842 C1839 1.363 . S
C1842 N1840 1.356 . S
C1843 C1837 1.363 . S
C1843 C1838 1.379 . S
C1843 N1841 1.356 . S
N1844 C1836 1.356 . S
N1844 H1850 0.984 . S
N1844 H1851 0.984 . S
N1845 C1838 1.356 . S
N1845 H1848 0.984 . S
N1845 H1849 0.985 . S
H1846 N1841 0.984 . S
H1847 N1841 0.985 . S
H1848 N1845 0.984 . S
H1849 N1845 0.985 . S
H1850 N1844 0.984 . S
H1851 N1844 0.984 . S
H1852 N1840 0.984 . S
H1853 N1840 0.985 . S
C1854 C1855 1.363 1_455 S
C1854 C1860 1.379 . S
C1854 N1862 1.356 . S
C1855 C1854 1.363 1_655 S
C1855 C1861 1.363 . S
C1856 C1857 1.363 . S
C1856 C1861 1.379 . S
C1856 N1863 1.356 . S
C1857 C1856 1.363 . S
C1857 C1860 1.363 1_655 S
N1858 C1860 1.356 . S
N1858 H1870 0.984 . S
N1858 H1871 0.985 . S
N1859 C1861 1.356 . S
N1859 H1864 0.984 . S
N1859 H1865 0.985 . S
C1860 C1854 1.379 . S
C1860 C1857 1.363 1_455 S
C1860 N1858 1.356 . S
C1861 C1855 1.363 . S
C1861 C1856 1.379 . S
C1861 N1859 1.356 . S
N1862 C1854 1.356 . S
N1862 H1868 0.984 . S
N1862 H1869 0.984 . S
N1863 C1856 1.356 . S
N1863 H1866 0.984 . S
N1863 H1867 0.985 . S
H1864 N1859 0.984 . S
H1865 N1859 0.985 . S
H1866 N1863 0.984 . S
H1867 N1863 0.985 . S
H1868 N1862 0.984 . S
H1869 N1862 0.984 . S
H1870 N1858 0.984 . S
H1871 N1858 0.985 . S
C1872 C1873 1.363 . S
C1872 C1878 1.379 . S
C1872 N1880 1.356 . S
C1873 C1872 1.363 . S
C1873 C1879 1.363 . S
C1874 C1875 1.363 . S
C1874 C1879 1.379 . S
C1874 N1881 1.356 . S
C1875 C1874 1.363 . S
C1875 C1878 1.363 . S
N1876 C1878 1.356 . S
N1876 H1888 0.984 . S
N1876 H1889 0.985 . S
N1877 C1879 1.356 . S
N1877 H1882 0.984 . S
N1877 H1883 0.985 . S
C1878 C1872 1.379 . S
C1878 C1875 1.363 . S
C1878 N1876 1.356 . S
C1879 C1873 1.363 . S
C1879 C1874 1.379 . S
C1879 N1877 1.356 . S
N1880 C1872 1.356 . S
N1880 H1886 0.984 . S
N1880 H1887 0.984 . S
N1881 C1874 1.356 . S
N1881 H1884 0.984 . S
N1881 H1885 0.985 . S
H1882 N1877 0.984 . S
H1883 N1877 0.985 . S
H1884 N1881 0.984 . S
H1885 N1881 0.985 . S
H1886 N1880 0.984 . S
H1887 N1880 0.984 . S
H1888 N1876 0.984 . S
H1889 N1876 0.985 . S
C1890 C1891 1.363 . S
C1890 C1896 1.379 . S
C1890 N1898 1.356 . S
C1891 C1890 1.363 . S
C1891 C1897 1.363 1_545 S
C1892 C1893 1.363 1_565 S
C1892 C1897 1.379 . S
C1892 N1899 1.356 . S
C1893 C1892 1.363 1_545 S
C1893 C1896 1.363 . S
N1894 C1896 1.356 . S
N1894 H1906 0.984 . S
N1894 H1907 0.985 . S
N1895 C1897 1.356 . S
N1895 H1900 0.984 . S
N1895 H1901 0.985 . S
C1896 C1890 1.379 . S
C1896 C1893 1.363 . S
C1896 N1894 1.356 . S
C1897 C1891 1.363 1_565 S
C1897 C1892 1.379 . S
C1897 N1895 1.356 . S
N1898 C1890 1.356 . S
N1898 H1904 0.984 . S
N1898 H1905 0.984 . S
N1899 C1892 1.356 . S
N1899 H1902 0.984 . S
N1899 H1903 0.985 . S
H1900 N1895 0.984 . S
H1901 N1895 0.985 . S
H1902 N1899 0.984 . S
H1903 N1899 0.985 . S
H1904 N1898 0.984 . S
H1905 N1898 0.984 . S
H1906 N1894 0.984 . S
H1907 N1894 0.985 . S
C613 C8 1.511 . S
C615 C440 1.533 1_655 S
C631 C18 1.526 . S
C633 C453 1.530 . S
C651 C482 1.520 1_545 S
C649 C31 1.517 . S
C667 C34 1.509 . S
C669 C495 1.539 . S
C685 C5 1.529 . S
C687 C516 1.540 . S
C703 C21 1.520 . S
C705 C545 1.522 . S
C721 C47 1.509 . S
C723 C524 1.523 . S
C741 C537 1.521 . S
C739 C57 1.513 . S
C759 C503 1.519 . S
C757 C70 1.520 . S
C775 C73 1.499 . S
C777 C474 1.545 1_545 S
C795 C432 1.537 1_655 S
C793 C44 1.520 . S
C811 C60 1.511 . S
C813 C461 1.529 . S
C829 C86 1.550 . S
C831 C566 1.545 . S
C847 C96 1.547 . S
C849 C579 1.546 . S
C867 C608 1.520 . S
C865 C109 1.584 . S
C883 C112 1.564 . S
C885 C243 1.598 . S
C901 C83 1.584 . S
C903 C264 1.586 . S
C919 C99 1.543 . S
C921 C293 1.536 . S
C937 C125 1.520 . S
C939 C272 1.544 . S
C955 C135 1.528 . S
C957 C285 1.531 . S
C975 C251 1.548 . S
C973 C148 1.555 . S
C993 C600 1.552 . S
C991 C151 1.556 . S
C1011 C558 1.526 . S
C1009 C122 1.555 . S
C1029 C587 1.557 . S
C1027 C138 1.537 . S
C1045 C164 1.534 . S
C1047 C314 1.531 . S
C1063 C174 1.541 . S
C1065 C327 1.548 . S
C1081 C187 1.575 . S
C1083 C356 1.519 . S
C1099 C190 1.578 . S
C1101 C369 1.613 . S
C1119 C390 1.581 . S
C1117 C161 1.585 . S
C1137 C419 1.543 . S
C1135 C177 1.551 . S
C1155 C398 1.566 . S
C1153 C203 1.540 . S
C1173 C411 1.528 . S
C1171 C213 1.535 . S
C1189 C226 1.558 . S
C1191 C377 1.547 . S
C1209 C348 1.537 . S
C1207 C229 1.540 . S
C1225 C200 1.558 . S
C1227 C306 1.540 . S
C1245 C335 1.554 . S
C1243 C216 1.535 . S
C1263 C246 1.352 . S
C1261 C0 1.384 . S
C1279 C23 1.395 . S
C1281 C267 1.286 . S
C1299 C295 1.319 . S
C1297 C36 1.446 . S
C1317 C316 1.329 . S
C1315 C26 1.398 . S
C1335 C330 1.308 . S
C1333 C10 1.421 . S
C1353 C358 1.280 . S
C1351 C13 1.365 . S
C1369 C39 1.407 . S
C1371 C351 1.289 . S
C1387 C62 1.416 . S
C1389 C309 1.229 . S
C1405 C75 1.454 . S
C1407 C337 1.367 . S
C1423 C65 1.429 . S
C1425 C274 1.415 . S
C1443 C288 1.254 . S
C1441 C49 1.444 . S
C1459 C52 1.388 . S
C1461 C253 1.368 . S
C1479 C372 1.344 . S
C1477 C78 1.394 . S
C1495 C101 1.434 . S
C1497 C393 1.322 . S
C1513 C114 1.455 . S
C1515 C421 1.327 . S
C1533 C442 1.285 . S
C1531 C104 1.362 . S
C1549 C88 1.407 . S
C1551 C456 1.290 . S
C1567 C91 1.331 . S
C1569 C484 1.254 . S
C1585 C117 1.360 . S
C1587 C477 1.246 . S
C1603 C140 1.371 . S
C1605 C435 1.223 . S
C1623 C463 1.350 . S
C1621 C153 1.443 . S
C1639 C143 1.408 . S
C1641 C400 1.380 . S
C1657 C127 1.470 . S
C1659 C414 1.280 . S
C1677 C379 1.389 . S
C1675 C130 1.419 . S
C1695 C498 1.270 1_545 S
C1693 C156 1.360 . S
C1711 C179 1.358 . S
C1713 C519 1.240 1_655 S
C1729 C192 1.423 . S
C1731 C547 1.303 . S
C1749 C568 1.300 . S
C1747 C182 1.384 . S
C1767 C582 1.327 . S
C1765 C166 1.449 . S
C1783 C169 1.400 . S
C1785 C610 1.308 . S
C1801 C195 1.414 . S
C1803 C603 1.281 . S
C1819 C218 1.457 . S
C1821 C561 1.270 . S
C1839 C589 1.369 . S
C1837 C231 1.466 . S
C1857 C526 1.314 1_655 S
C1855 C221 1.362 . S
C1875 C540 1.249 . S
C1873 C205 1.429 . S
C1891 C208 1.339 . S
C1893 C505 1.285 1_545 S
