# Generated by pormake.
# Topology anh, (6,3)-cn, num edge types: 1
# Building blocks:
#     Node 0, Type 0, BuildingBlock: HISSIN_clean_sbu_0, # of connection points: 6
#     Node 1, Type 0, BuildingBlock: HISSIN_clean_sbu_0, # of connection points: 6
#     Node 2, Type 0, BuildingBlock: HISSIN_clean_sbu_0, # of connection points: 6
#     Node 3, Type 1, BuildingBlock: BELTOD_clean_linker_0, # of connection points: 3
#     Node 4, Type 1, BuildingBlock: BELTOD_clean_linker_0, # of connection points: 3
#     Node 5, Type 1, BuildingBlock: BELTOD_clean_linker_0, # of connection points: 3
#     Node 6, Type 1, BuildingBlock: BELTOD_clean_linker_0, # of connection points: 3
#     Node 7, Type 1, BuildingBlock: BELTOD_clean_linker_0, # of connection points: 3
#     Node 8, Type 1, BuildingBlock: BELTOD_clean_linker_0, # of connection points: 3
#     Edge 9, Type (0, 1), BuildingBlock: CIFDUS_clean_linker_0, # of connection points: 2
#     Edge 10, Type (0, 1), BuildingBlock: CIFDUS_clean_linker_0, # of connection points: 2
#     Edge 11, Type (0, 1), BuildingBlock: CIFDUS_clean_linker_0, # of connection points: 2
#     Edge 12, Type (0, 1), BuildingBlock: CIFDUS_clean_linker_0, # of connection points: 2
#     Edge 13, Type (0, 1), BuildingBlock: CIFDUS_clean_linker_0, # of connection points: 2
#     Edge 14, Type (0, 1), BuildingBlock: CIFDUS_clean_linker_0, # of connection points: 2
#     Edge 15, Type (0, 1), BuildingBlock: CIFDUS_clean_linker_0, # of connection points: 2
#     Edge 16, Type (0, 1), BuildingBlock: CIFDUS_clean_linker_0, # of connection points: 2
#     Edge 17, Type (0, 1), BuildingBlock: CIFDUS_clean_linker_0, # of connection points: 2
#     Edge 18, Type (0, 1), BuildingBlock: CIFDUS_clean_linker_0, # of connection points: 2
#     Edge 19, Type (0, 1), BuildingBlock: CIFDUS_clean_linker_0, # of connection points: 2
#     Edge 20, Type (0, 1), BuildingBlock: CIFDUS_clean_linker_0, # of connection points: 2
#     Edge 21, Type (0, 1), BuildingBlock: CIFDUS_clean_linker_0, # of connection points: 2
#     Edge 22, Type (0, 1), BuildingBlock: CIFDUS_clean_linker_0, # of connection points: 2
#     Edge 23, Type (0, 1), BuildingBlock: CIFDUS_clean_linker_0, # of connection points: 2
#     Edge 24, Type (0, 1), BuildingBlock: CIFDUS_clean_linker_0, # of connection points: 2
#     Edge 25, Type (0, 1), BuildingBlock: CIFDUS_clean_linker_0, # of connection points: 2
#     Edge 26, Type (0, 1), BuildingBlock: CIFDUS_clean_linker_0, # of connection points: 2
# Relax obj value: 0.273
# Max RMSD: 0.187
# Mean RMSD: 0.151
data_MOF--net-anh--node1-HISSIN_clean_sbu_0--node2-BELTOD_clean_linker_0--edge1-CIFDUS_clean_linker_0
_symmetry_space_group_name_H-M    P1
_symmetry_Int_Tables_number       1
_symmetry_cell_setting            triclinic
loop_
_symmetry_equiv_pos_as_xyz
'x, y, z'
_cell_length_a     31.236029
_cell_length_b     31.195177
_cell_length_c     54.952124
_cell_angle_alpha  93.305363
_cell_angle_beta   89.224883
_cell_angle_gamma 120.27979
loop_
_atom_site_label
_atom_site_type_symbol
_atom_site_fract_x
_atom_site_fract_y
_atom_site_fract_z
_atom_type_partial_charge
Eu0 Eu 1.03635 0.53451 0.16201 0.0
Eu1 Eu 0.09687 0.65159 0.17201 0.0
C2 C 1.06188 0.58242 0.2174 0.0
C3 C 0.93885 0.40134 0.14112 0.0
C4 C 0.93246 0.35509 0.13331 0.0
C5 C 0.85047 0.36858 0.13636 0.0
C6 C 0.88506 0.31498 0.12841 0.0
C7 C 0.89815 0.40881 0.14134 0.0
C8 C 0.84316 0.32054 0.13139 0.0
C9 C 0.98681 0.43895 0.15172 0.0
O10 O 0.15988 0.63191 0.17328 0.0
O11 O 0.11613 0.55156 0.15748 0.0
C12 C 0.15898 0.59097 0.16426 0.0
O13 O 1.03961 0.56946 0.12642 0.0
O14 O 0.14071 0.71948 0.19481 0.0
O15 O 0.12376 0.72431 0.15727 0.0
O16 O 0.11639 0.63329 0.13528 0.0
C17 C 1.08246 0.60458 0.11916 0.0
O18 O 0.97405 0.55213 0.16698 0.0
O19 O 1.01762 0.63561 0.1615 0.0
O20 O 1.06704 0.62313 0.20885 0.0
O21 O 1.01868 0.47055 0.13701 0.0
O22 O 0.98564 0.45975 0.17282 0.0
O23 O 1.05832 0.54636 0.20234 0.0
C24 C 0.20635 0.77411 0.17059 0.0
C25 C 0.22579 0.8121 0.15412 0.0
C26 C 0.28456 0.77537 0.17085 0.0
C27 C 0.27463 0.83167 0.14607 0.0
C28 C 0.2365 0.75639 0.17899 0.0
C29 C 0.30402 0.81267 0.15407 0.0
C30 C 0.15314 0.74727 0.17612 0.0
C31 C 0.97444 0.59368 0.16305 0.0
H32 H 0.96371 0.34901 0.13283 0.0
H33 H 0.81914 0.37431 0.13836 0.0
H34 H 0.88136 0.27877 0.12482 0.0
H35 H 0.90282 0.44481 0.14697 0.0
H36 H 0.2029 0.82571 0.14709 0.0
H37 H 0.3068 0.76112 0.17801 0.0
H38 H 0.28915 0.86098 0.1334 0.0
H39 H 0.22274 0.72686 0.19151 0.0
Eu40 Eu 0.58854 1.00664 0.50562 0.0
Eu41 Eu 0.53771 0.06991 0.49401 0.0
C42 C 0.55788 1.05428 0.5496 0.0
C43 C 0.6325 0.91112 0.50494 0.0
C44 C 0.62233 0.87517 0.52171 0.0
C45 C 0.65747 0.86686 0.47556 0.0
C46 C 0.63116 0.83633 0.51578 0.0
C47 C 0.64825 0.90559 0.48143 0.0
C48 C 0.65078 0.83299 0.49302 0.0
C49 C 0.63299 0.95703 0.51333 0.0
O50 O 0.6195 0.13146 0.49793 0.0
O51 O 0.65372 0.08177 0.4941 0.0
C52 C 0.65879 0.12663 0.49454 0.0
O53 O 0.55972 0.98369 0.46766 0.0
O54 O 0.51255 0.12084 0.50662 0.0
O55 O 0.50158 0.09404 0.46875 0.0
O56 O 0.571 1.05846 0.45866 0.0
C57 C 0.56787 1.01596 0.45165 0.0
O58 O 0.50472 0.94643 0.5047 0.0
O59 O 0.47285 0.99031 0.48779 0.0
O60 O 0.52496 1.05353 0.53457 0.0
O61 O 0.64815 0.99188 0.4979 0.0
O62 O 0.59597 0.95294 0.52641 0.0
O63 O 0.594 1.04899 0.54078 0.0
C64 C 0.52977 0.17911 0.47806 0.0
C65 C 0.57482 0.19649 0.46579 0.0
C66 C 0.55358 0.26413 0.49067 0.0
C67 C 0.61005 0.24704 0.46716 0.0
C68 C 0.5182 0.21343 0.48931 0.0
C69 C 0.60077 0.28066 0.4809 0.0
C70 C 0.50229 0.12714 0.48466 0.0
C71 C 0.46686 0.94775 0.49476 0.0
H72 H 0.61041 0.87876 0.53994 0.0
H73 H 0.67229 0.86493 0.45785 0.0
H74 H 0.6263 0.81127 0.52979 0.0
H75 H 0.65609 0.93261 0.46801 0.0
H76 H 0.58484 0.17071 0.45719 0.0
H77 H 0.54592 0.28956 0.50151 0.0
H78 H 0.64621 0.25928 0.45941 0.0
H79 H 0.48391 0.20067 0.49909 0.0
Eu80 Eu 0.51429 0.52713 0.83181 0.0
Eu81 Eu 0.63185 0.59524 0.83767 0.0
C82 C 0.56595 0.56818 0.88482 0.0
C83 C 0.38665 0.49844 0.81875 0.0
C84 C 0.4053 0.53551 0.80178 0.0
C85 C 0.32586 0.52167 0.83101 0.0
C86 C 0.38624 0.56723 0.80052 0.0
C87 C 0.3449 0.48977 0.83226 0.0
C88 C 0.34866 0.56249 0.81629 0.0
C89 C 0.41807 0.47933 0.82699 0.0
O90 O 0.61817 0.51518 0.84028 0.0
O91 O 0.53719 0.46782 0.82686 0.0
C92 C 0.57977 0.4713 0.83278 0.0
O93 O 0.54435 0.55156 0.7941 0.0
O94 O 0.70061 0.62008 0.85787 0.0
O95 O 0.70131 0.6543 0.82426 0.0
O96 O 0.61814 0.55621 0.80097 0.0
C97 C 0.5838 0.55116 0.78598 0.0
O98 O 0.52643 0.60659 0.83183 0.0
O99 O 0.61005 0.65165 0.82596 0.0
O100 O 0.60126 0.60481 0.87345 0.0
O101 O 0.44703 0.4753 0.81081 0.0
O102 O 0.44145 0.50059 0.84757 0.0
O103 O 0.53307 0.52805 0.87212 0.0
C104 C 0.77267 0.65147 0.83394 0.0
C105 C 0.77528 0.60779 0.83213 0.0
C106 C 0.85962 0.69964 0.82449 0.0
C107 C 0.82062 0.61042 0.82744 0.0
C108 C 0.81451 0.69698 0.82923 0.0
C109 C 0.8636 0.6567 0.82446 0.0
C110 C 0.72761 0.6513 0.8416 0.0
C111 C 0.56658 0.64915 0.82707 0.0
H112 H 0.43782 0.54332 0.7913 0.0
H113 H 0.29702 0.51765 0.84345 0.0
H114 H 0.40411 0.59846 0.789 0.0
H115 H 0.33034 0.46171 0.84561 0.0
H116 H 0.74289 0.57212 0.83528 0.0
H117 H 0.89204 0.73597 0.82265 0.0
H118 H 0.82258 0.57672 0.82734 0.0
H119 H 0.81283 0.7309 0.83032 0.0
P120 P 0.68878 0.95359 0.23878 0.0
H121 H 0.6751 0.88876 0.19555 0.0
H122 H 0.60631 0.85032 0.16547 0.0
H123 H 0.5158 0.87957 0.2159 0.0
H124 H 0.58368 0.91862 0.24517 0.0
H125 H 0.76397 1.00149 0.20168 0.0
H126 H 0.77387 1.05999 0.17138 0.0
H127 H 0.64959 0.06837 0.20175 0.0
H128 H 0.64195 1.01222 0.23268 0.0
H129 H 0.62415 0.89268 0.2769 0.0
H130 H 0.72906 1.04762 0.2683 0.0
O131 O 0.73375 0.9396 0.23884 0.0
H132 H 0.6002 0.91371 0.31603 0.0
H133 H 0.70812 0.06904 0.3084 0.0
C134 C 0.6343 0.90541 0.22298 0.0
C135 C 0.63958 0.88455 0.20056 0.0
C136 C 0.60067 0.86324 0.18328 0.0
C137 C 0.55655 0.86314 0.18837 0.0
C138 C 0.54991 0.87987 0.21156 0.0
C139 C 0.58854 0.90123 0.22861 0.0
C140 C 0.7034 1.00396 0.21987 0.0
C141 C 0.73984 1.01707 0.20218 0.0
C142 C 0.74457 1.04954 0.18451 0.0
C143 C 0.71213 0.06852 0.18396 0.0
C144 C 0.67555 1.055 0.20178 0.0
C145 C 0.67141 1.0232 0.2196 0.0
C146 C 0.67702 0.9687 0.26935 0.0
C147 C 0.64246 0.93127 0.28362 0.0
C148 C 0.62918 0.94348 0.3062 0.0
C149 C 0.65187 0.99335 0.31549 0.0
C150 C 0.68876 1.03048 0.30163 0.0
C151 C 0.70118 1.01822 0.27877 0.0
P152 P 0.83557 0.6455 0.59983 0.0
H153 H 0.88943 0.62496 0.56222 0.0
H154 H 0.86462 0.54774 0.53763 0.0
H155 H 0.75443 0.46522 0.59051 0.0
H156 H 0.77719 0.542 0.61437 0.0
H157 H 0.85905 0.73925 0.57902 0.0
H158 H 0.81667 0.75804 0.54793 0.0
H159 H 0.71623 0.6008 0.53263 0.0
H160 H 0.7574 0.58243 0.56419 0.0
H161 H 0.83194 0.61353 0.64921 0.0
H162 H 0.75101 0.66233 0.60658 0.0
O163 O 0.89333 0.69087 0.60667 0.0
H164 H 0.77465 0.59891 0.68289 0.0
H165 H 0.69434 0.6479 0.63993 0.0
C166 C 0.83535 0.58939 0.59019 0.0
C167 C 0.86174 0.58998 0.56921 0.0
C168 C 0.84752 0.54603 0.55511 0.0
C169 C 0.80787 0.50105 0.56237 0.0
C170 C 0.78561 0.49966 0.58485 0.0
C171 C 0.79888 0.5437 0.59859 0.0
C172 C 0.81189 0.65957 0.57369 0.0
C173 C 0.82879 0.7089 0.56851 0.0
C174 C 0.80468 0.71948 0.55061 0.0
C175 C 0.76314 0.68078 0.53778 0.0
C176 C 0.74794 0.63134 0.54226 0.0
C177 C 0.7718 0.62086 0.56022 0.0
C178 C 0.79548 0.63814 0.62518 0.0
C179 C 0.80204 0.62116 0.64709 0.0
C180 C 0.76914 0.61255 0.66621 0.0
C181 C 0.72971 0.62175 0.66387 0.0
C182 C 0.72433 0.64045 0.64223 0.0
C183 C 0.75683 0.64849 0.62306 0.0
P184 P 0.25937 0.83146 0.93238 0.0
H185 H 0.27305 0.84047 0.88023 0.0
H186 H 0.31421 0.81073 0.85182 0.0
H187 H 0.38897 0.7917 0.9122 0.0
H188 H 0.34826 0.82255 0.94065 0.0
H189 H 0.19165 0.85721 0.90914 0.0
H190 H 0.11547 0.80689 0.88465 0.0
H191 H 0.12671 0.67619 0.89339 0.0
H192 H 0.20296 0.7265 0.91735 0.0
H193 H 0.21691 0.84196 0.97799 0.0
H194 H 0.27094 0.74809 0.94722 0.0
O195 O 0.27223 0.88995 0.93795 0.0
H196 H 0.18645 0.79038 0.0132 0.0
H197 H 0.24266 0.69818 0.9828 0.0
C198 C 0.30511 0.8303 0.91258 0.0
C199 C 0.29932 0.8312 0.88738 0.0
C200 C 0.3229 0.81433 0.87112 0.0
C201 C 0.35324 0.79727 0.87991 0.0
C202 C 0.36511 0.80397 0.90497 0.0
C203 C 0.3414 0.82098 0.92127 0.0
C204 C 0.20205 0.79528 0.91561 0.0
C205 C 0.17755 0.81774 0.90589 0.0
C206 C 0.1345 0.78913 0.8917 0.0
C207 C 0.11554 0.73778 0.88719 0.0
C208 C 0.14049 0.7156 0.89678 0.0
C209 C 0.18371 0.74428 0.91068 0.0
C210 C 0.24844 0.80056 0.96044 0.0
C211 C 0.22384 0.81144 0.97917 0.0
C212 C 0.20581 0.7816 -0.00093 0.0
C213 C 0.21236 0.7405 0.00059 0.0
C214 C 0.23772 0.73007 0.9821 0.0
C215 C 0.25478 0.75929 0.96196 0.0
P216 P 1.07299 0.51988 0.44417 0.0
H217 H 0.12979 0.55807 0.49132 0.0
H218 H 0.20458 0.63603 0.50447 0.0
H219 H 0.19833 0.70053 0.43826 0.0
H220 H 0.1239 0.62326 0.42546 0.0
H221 H 1.03841 0.44392 0.48172 0.0
H222 H 0.95737 0.3738 0.49168 0.0
H223 H 0.88712 0.42326 0.44235 0.0
H224 H 0.96764 0.49327 0.43297 0.0
H225 H 0.1019 0.47902 0.40144 0.0
H226 H 1.03087 0.56612 0.4136 0.0
O227 O 0.10399 0.48969 0.44693 0.0
H228 H 0.09666 0.48335 0.35773 0.0
H229 H 1.0241 0.56941 0.36938 0.0
C230 C 0.11894 0.58339 0.45743 0.0
C231 C 0.1433 0.58933 0.47988 0.0
C232 C 0.18727 0.63432 0.48724 0.0
C233 C 0.20926 0.67584 0.47248 0.0
C234 C 0.18343 0.67055 0.45054 0.0
C235 C 0.13974 0.62545 0.44314 0.0
C236 C 1.01074 0.4756 0.45657 0.0
C237 C 1.00561 0.44063 0.47338 0.0
C238 C 0.95859 0.39942 0.47885 0.0
C239 C 0.91407 0.39113 0.46787 0.0
C240 C 0.91933 0.42734 0.4517 0.0
C241 C 0.96632 0.46836 0.44621 0.0
C242 C 1.06666 0.52211 0.4112 0.0
C243 C 1.08469 0.49884 0.39483 0.0
C244 C 1.08135 0.50106 0.36955 0.0
C245 C 1.05967 0.52652 0.35967 0.0
C246 C 1.04146 0.54979 0.37611 0.0
C247 C 1.04482 0.54749 0.40151 0.0
P248 P 0.59775 0.0681 0.78082 0.0
H249 H 0.66505 0.17625 0.7921 0.0
H250 H 0.65413 0.24667 0.80218 0.0
H251 H 0.49667 0.14701 0.80816 0.0
H252 H 0.50807 0.07596 0.79715 0.0
H253 H 0.63491 1.04163 0.82372 0.0
H254 H 0.63206 0.96556 0.83477 0.0
H255 H 0.5241 0.88257 0.77732 0.0
H256 H 0.52621 0.95908 0.76681 0.0
H257 H 0.5521 0.10698 0.74706 0.0
H258 H 0.61287 1.0097 0.74187 0.0
O259 O 0.65945 0.0951 0.78076 0.0
H260 H 0.5463 0.10365 0.70251 0.0
H261 H 0.60537 1.00471 0.69767 0.0
C262 C 0.58766 0.11909 0.7942 0.0
C263 C 0.62794 0.16864 0.79606 0.0
C264 C 0.6216 0.20995 0.80195 0.0
C265 C 0.57438 0.20439 0.80616 0.0
C266 C 0.53393 0.15443 0.80482 0.0
C267 C 0.54039 0.11287 0.79885 0.0
C268 C 0.58073 1.00765 0.79434 0.0
C269 C 0.60926 1.00702 0.81387 0.0
C270 C 0.60829 0.96284 0.8199 0.0
C271 C 0.5788 0.91656 0.80669 0.0
C272 C 0.54764 0.91654 0.78815 0.0
C273 C 0.54868 0.96098 0.78211 0.0
C274 C 0.58238 1.05799 0.7482 0.0
C275 C 0.56295 0.08375 0.73654 0.0
C276 C 0.55952 0.08178 0.71087 0.0
C277 C 0.57588 1.05439 0.69624 0.0
C278 C 0.59321 1.02701 0.70812 0.0
C279 C 0.59687 1.02923 0.7336 0.0
P280 P 0.55591 0.568 0.11706 0.0
H281 H 0.59926 0.54148 0.15782 0.0
H282 H 0.68202 0.55484 0.16636 0.0
H283 H 0.7404 0.655 0.10809 0.0
H284 H 0.65765 0.64166 0.09985 0.0
H285 H 0.46143 0.54574 0.09508 0.0
H286 H 0.39347 0.55879 0.10674 0.0
H287 H 0.4743 0.64166 0.17221 0.0
H288 H 0.54355 0.62858 0.16001 0.0
H289 H 0.55576 0.49506 0.0806 0.0
H290 H 0.56088 0.63555 0.07985 0.0
O291 O 0.52596 0.50864 0.12422 0.0
H292 H 0.55233 0.48775 0.03612 0.0
H293 H 0.5566 0.62821 0.03512 0.0
C294 C 0.62078 0.59101 0.12831 0.0
C295 C 0.6299 0.56748 0.1472 0.0
C296 C 0.67786 0.57455 0.15185 0.0
C297 C 0.71951 0.60582 0.13793 0.0
C298 C 0.71054 0.63092 0.11965 0.0
C299 C 0.66248 0.62354 0.11492 0.0
C300 C 0.50971 0.5875 0.12598 0.0
C301 C 0.46569 0.56787 0.11176 0.0
C302 C 0.42563 0.57466 0.11878 0.0
C303 C 0.42674 0.60118 0.1407 0.0
C304 C 0.47113 0.62136 0.15504 0.0
C305 C 0.51146 0.6141 0.148 0.0
C306 C 0.55761 0.56541 0.08376 0.0
C307 C 0.55601 0.5244 0.07088 0.0
C308 C 0.55373 0.5201 0.04529 0.0
C309 C 0.55336 0.55695 0.03174 0.0
C310 C 0.5569 0.59903 0.04474 0.0
C311 C 0.55914 0.60325 0.07042 0.0
H312 H 0.26161 0.65994 0.17577 0.0
H313 H 0.16485 0.51403 0.14166 0.0
H314 H 0.23552 0.50459 0.13187 0.0
H315 H 0.32532 0.53586 0.13211 0.0
H316 H 0.42476 0.67993 0.16674 0.0
H317 H 0.35406 0.69086 0.17707 0.0
C318 C 0.25575 0.62594 0.16629 0.0
C319 C 0.20626 0.58785 0.15966 0.0
C320 C 0.29783 0.61997 0.16061 0.0
C321 C 0.20116 0.54439 0.1473 0.0
C322 C 0.24214 0.53873 0.14153 0.0
C323 C 0.33219 0.57007 0.14176 0.0
C324 C 0.38191 0.60713 0.14818 0.0
C325 C 0.29077 0.57611 0.14793 0.0
C326 C 0.38795 0.65023 0.16137 0.0
C327 C 0.34701 0.65669 0.16729 0.0
H328 H 0.68476 0.224 0.48461 0.0
H329 H 0.75048 0.13378 0.49549 0.0
H330 H 0.83285 0.20507 0.48914 0.0
H331 H 0.88803 0.29396 0.47966 0.0
H332 H 0.82157 0.38359 0.46796 0.0
H333 H 0.73993 0.31245 0.47407 0.0
C334 C 0.71695 0.21972 0.48562 0.0
C335 C 0.71007 0.17238 0.49071 0.0
C336 C 0.76517 0.26144 0.48149 0.0
C337 C 0.75333 0.1688 0.49171 0.0
C338 C 0.80102 0.21003 0.48804 0.0
C339 C 0.856 0.29861 0.4788 0.0
C340 C 0.86281 0.34572 0.47305 0.0
C341 C 0.80774 0.25679 0.48287 0.0
C342 C 0.81926 0.34888 0.47182 0.0
C343 C 0.77177 0.30781 0.47577 0.0
H344 H 0.63801 0.75141 0.8308 0.0
H345 H 0.48467 0.6512 0.81145 0.0
H346 H 0.47402 0.7217 0.80332 0.0
H347 H 0.50746 0.81342 0.8022 0.0
H348 H 0.66148 0.91339 0.82155 0.0
H349 H 0.67162 0.84301 0.82935 0.0
C350 C 0.6021 0.74473 0.82486 0.0
C351 C 0.56192 0.69475 0.82213 0.0
C352 C 0.59596 0.78632 0.82037 0.0
C353 C 0.51612 0.68835 0.81427 0.0
C354 C 0.51005 0.7291 0.80947 0.0
C355 C 0.54347 0.82024 0.80803 0.0
C356 C 0.58336 0.87042 0.81142 0.0
C357 C 0.54953 0.77859 0.81257 0.0
C358 C 0.62928 0.87654 0.81918 0.0
C359 C 0.63543 0.83571 0.82352 0.0
H360 H 0.95072 0.66557 0.14847 0.0
H361 H 0.88183 0.51471 0.17054 0.0
H362 H 0.80027 0.50523 0.16537 0.0
H363 H 0.74582 0.53785 0.15396 0.0
H364 H 0.81305 0.68835 0.13168 0.0
H365 H 0.89527 0.69879 0.13728 0.0
C366 C 0.91803 0.63061 0.15229 0.0
C367 C 0.92409 0.59106 0.16007 0.0
C368 C 0.86961 0.62482 0.14906 0.0
C369 C 0.87997 0.54624 0.1646 0.0
C370 C 0.83254 0.54058 0.16161 0.0
C371 C 0.77817 0.57331 0.15048 0.0
C372 C 0.77139 0.61202 0.14217 0.0
C373 C 0.8265 0.5794 0.15379 0.0
C374 C 0.81532 0.65708 0.13764 0.0
C375 C 0.86312 0.66337 0.14103 0.0
H376 H 0.43182 0.84796 0.50612 0.0
H377 H 0.3851 0.93927 0.47208 0.0
H378 H 0.30437 0.86657 0.4625 0.0
H379 H 0.24494 0.77587 0.46305 0.0
H380 H 0.2901 0.68348 0.49715 0.0
H381 H 0.37096 0.75631 0.5073 0.0
C382 C 0.40408 0.85222 0.49668 0.0
C383 C 0.41608 0.90049 0.48999 0.0
C384 C 0.35621 0.80925 0.49111 0.0
C385 C 0.37839 0.90373 0.4777 0.0
C386 C 0.33154 0.86164 0.47208 0.0
C387 C 0.27225 0.77117 0.47262 0.0
C388 C 0.25969 0.72273 0.47923 0.0
C389 C 0.31974 0.81397 0.47855 0.0
C390 C 0.29684 0.71928 0.49197 0.0
C391 C 0.34391 0.76141 0.49771 0.0
H392 H 0.51196 0.37406 0.81481 0.0
H393 H 0.6607 0.46237 0.84436 0.0
H394 H 0.67195 0.39026 0.83944 0.0
H395 H 0.6405 0.30122 0.82656 0.0
H396 H 0.4924 0.21358 0.79581 0.0
H397 H 0.48057 0.28483 0.8018 0.0
C398 C 0.54691 0.3778 0.82033 0.0
C399 C 0.5853 0.42492 0.83015 0.0
C400 C 0.5535 0.33545 0.8173 0.0
C401 C 0.63012 0.4276 0.83687 0.0
C402 C 0.6367 0.3859 0.834 0.0
C403 C 0.60552 0.29718 0.82091 0.0
C404 C 0.56744 0.25008 0.81072 0.0
C405 C 0.5988 0.33943 0.82414 0.0
C406 C 0.52255 0.2476 0.80412 0.0
C407 C 0.51572 0.28909 0.80736 0.0
H408 H 0.60916 0.73654 0.50421 0.0
H409 H 0.74136 0.857 0.47507 0.0
H410 H 0.78671 0.81407 0.48209 0.0
H411 H 0.79318 0.75196 0.50479 0.0
H412 H 0.66242 0.63577 0.5373 0.0
H413 H 0.61223 0.66669 0.52042 0.0
C414 C 0.64754 0.75267 0.49882 0.0
C415 C 0.67214 0.80022 0.48967 0.0
C416 C 0.674 0.72891 0.50395 0.0
C417 C 0.72154 0.8204 0.48221 0.0
C418 C 0.74774 0.79618 0.48652 0.0
C419 C 0.75354 0.73293 0.50776 0.0
C420 C 0.7318 0.69232 0.52264 0.0
C421 C 0.7251 0.75194 0.49872 0.0
C422 C 0.68018 0.66717 0.5259 0.0
C423 C 0.65143 0.68508 0.51643 0.0
H424 H 0.8935 0.61253 0.85544 0.0
H425 H 0.94599 0.71536 0.79812 0.0
H426 H 1.03169 0.74594 0.81097 0.0
H427 H 1.08951 0.7542 0.84338 0.0
H428 H 1.03583 0.65268 0.90119 0.0
H429 H 0.95261 0.60996 0.88295 0.0
C430 C 0.92363 0.64017 0.84508 0.0
C431 C 0.91349 0.66249 0.82622 0.0
C432 C 0.9725 0.65848 0.853 0.0
C433 C 0.95301 0.69838 0.81305 0.0
C434 C 1.00193 0.71606 0.82047 0.0
C435 C 1.05961 0.72219 0.85167 0.0
C436 C 1.06816 0.70708 0.87377 0.0
C437 C 1.01183 0.69832 0.84128 0.0
C438 C 1.02978 0.66501 0.88421 0.0
C439 C 0.98224 0.64074 0.87386 0.0
H440 H 0.3508 0.76261 0.13945 0.0
H441 H 0.3752 0.91056 0.15457 0.0
H442 H 0.46385 0.94266 0.16006 0.0
H443 H 0.52742 0.92383 0.1723 0.0
H444 H 0.50036 0.77412 0.16272 0.0
H445 H 0.42055 0.74764 0.14245 0.0
C446 C 0.37594 0.80217 0.14312 0.0
C447 C 0.35661 0.83403 0.14742 0.0
C448 C 0.42621 0.81968 0.14778 0.0
C449 C 0.38925 0.8853 0.15148 0.0
C450 C 0.43984 0.90353 0.15494 0.0
C451 C 0.5045 0.88571 0.16507 0.0
C452 C 0.51848 0.85048 0.16944 0.0
C453 C 0.45779 0.87037 0.15499 0.0
C454 C 0.48963 0.80148 0.15975 0.0
C455 C 0.4439 0.78633 0.14851 0.0
H456 H 0.67678 0.29345 0.50813 0.0
H457 H 0.61621 0.37405 0.47538 0.0
H458 H 0.68134 0.45208 0.49547 0.0
H459 H 0.74987 0.49491 0.52561 0.0
H460 H 0.80556 0.41244 0.56075 0.0
H461 H 0.74902 0.33717 0.53574 0.0
C462 C 0.67883 0.32842 0.50489 0.0
C463 C 0.64274 0.32867 0.49004 0.0
C464 C 0.71543 0.37237 0.51686 0.0
C465 C 0.64424 0.37354 0.48655 0.0
C466 C 0.68128 0.41786 0.49804 0.0
C467 C 0.7503 0.46061 0.52722 0.0
C468 C 0.78181 0.45871 0.54457 0.0
C469 C 0.71636 0.41745 0.51363 0.0
C470 C 0.78176 0.41431 0.54721 0.0
C471 C 0.74928 0.37147 0.53311 0.0
H472 H 0.41878 0.65153 0.83413 0.0
H473 H 0.26432 0.56837 0.81317 0.0
H474 H 0.2541 0.63828 0.82835 0.0
H475 H 0.28776 0.71883 0.85132 0.0
H476 H 0.4416 0.79966 0.87425 0.0
H477 H 0.4543 0.73516 0.85384 0.0
C478 C 0.38346 0.64965 0.83203 0.0
C479 C 0.34264 0.6058 0.82204 0.0
C480 C 0.37795 0.68927 0.84123 0.0
C481 C 0.29622 0.60225 0.82054 0.0
C482 C 0.29049 0.64205 0.82925 0.0
C483 C 0.32443 0.72305 0.85121 0.0
C484 C 0.36387 0.76396 0.8641 0.0
C485 C 0.33091 0.68524 0.8401 0.0
C486 C 0.41085 0.76843 0.86441 0.0
C487 C 0.41799 0.73157 0.85282 0.0
H488 H 0.80159 0.22875 0.10736 0.0
H489 H 0.77528 0.31081 0.16581 0.0
H490 H 0.72091 0.23425 0.18507 0.0
H491 H 0.70344 0.15047 0.19173 0.0
H492 H 0.73599 0.06876 0.13569 0.0
H493 H 0.76679 0.13889 0.10964 0.0
C494 C 0.7828 0.22965 0.12396 0.0
C495 C 0.7945 0.2757 0.13565 0.0
C496 C 0.75457 0.18578 0.13604 0.0
C497 C 0.76797 0.27618 0.15649 0.0
C498 C 0.73741 0.23229 0.16786 0.0
C499 C 0.71551 0.14708 0.17349 0.0
C500 C 0.71902 0.10512 0.16601 0.0
C501 C 0.73398 0.18775 0.15885 0.0
C502 C 0.7347 0.1015 0.14224 0.0
C503 C 0.75196 0.14142 0.12726 0.0
H504 H 0.1689 0.63094 0.09788 0.0
H505 H 1.02193 0.60424 0.08346 0.0
H506 H 1.04894 0.64241 0.04411 0.0
H507 H 0.11752 0.69233 0.01638 0.0
H508 H 0.26385 0.71743 0.03129 0.0
H509 H 0.23412 0.67094 0.06808 0.0
C510 C 0.14255 0.63256 0.08583 0.0
C511 C 0.09372 0.61531 0.09343 0.0
C512 C 0.15853 0.65498 0.06364 0.0
C513 C 1.05963 0.61706 0.07778 0.0
C514 C 1.07525 0.63939 0.05548 0.0
C515 C 0.1426 0.68715 0.02767 0.0
C516 C 0.19288 0.70871 0.02151 0.0
C517 C 0.12507 0.65998 0.04865 0.0
C518 C 0.22508 0.70124 0.03586 0.0
C519 C 0.20812 0.67477 0.05684 0.0
H520 H 0.59415 0.0741 0.41196 0.0
H521 H 0.56678 0.93218 0.43485 0.0
H522 H 0.59175 0.91426 0.39561 0.0
H523 H 0.62449 0.93905 0.35559 0.0
H524 H 0.64637 0.0768 0.32989 0.0
H525 H 0.62207 0.09657 0.36955 0.0
C526 C 0.59321 1.03913 0.40822 0.0
C527 C 0.5788 1.00487 0.42652 0.0
C528 C 0.60743 1.02842 0.38522 0.0
C529 C 0.57779 0.95959 0.42131 0.0
C530 C 0.59225 0.94914 0.3988 0.0
C531 C 0.62304 0.97299 0.3583 0.0
C532 C 0.63721 1.00612 0.33958 0.0
C533 C 0.60753 0.98337 0.38074 0.0
C534 C 0.63646 1.05072 0.34401 0.0
C535 C 0.62206 1.06191 0.36665 0.0
H536 H 0.60112 0.62001 0.75375 0.0
H537 H 0.59295 0.47947 0.76134 0.0
H538 H 0.63465 0.4871 0.72251 0.0
H539 H 0.68342 0.5391 0.68954 0.0
H540 H 0.69629 0.68218 0.68294 0.0
H541 H 0.64278 0.66843 0.71806 0.0
C542 C 0.60681 0.59032 0.7463 0.0
C543 C 0.59341 0.54885 0.75993 0.0
C544 C 0.63282 0.59611 0.7245 0.0
C545 C 0.60227 0.5112 0.75074 0.0
C546 C 0.62667 0.5159 0.72876 0.0
C547 C 0.6743 0.56713 0.69577 0.0
C548 C 0.69432 0.61186 0.68396 0.0
C549 C 0.6439 0.55912 0.71603 0.0
C550 C 0.68139 0.64747 0.69182 0.0
C551 C 0.65086 0.63967 0.71191 0.0
H552 H 0.62379 1.06142 0.58361 0.0
H553 H 0.48305 1.05474 0.57726 0.0
H554 H 0.47615 1.05532 0.62189 0.0
H555 H 0.50937 1.05463 0.66304 0.0
H556 H 0.65085 1.06188 0.66758 0.0
H557 H 0.65759 0.06363 0.62356 0.0
C558 C 0.59148 1.06026 0.59182 0.0
C559 C 0.55391 1.05788 0.57682 0.0
C560 C 0.58763 1.06021 0.61739 0.0
C561 C 0.51265 1.05665 0.58816 0.0
C562 C 0.50864 1.05682 0.61376 0.0
C563 C 0.54179 1.05688 0.65441 0.0
C564 C 0.57909 1.05713 0.66893 0.0
C565 C 0.54577 1.05815 0.62863 0.0
C566 C 0.6208 1.06018 0.65715 0.0
C567 C 0.62499 1.06163 0.63185 0.0
H568 H 0.51379 0.49568 0.91768 0.0
H569 H 0.61759 0.6527 0.91385 0.0
H570 H 0.62229 0.66325 0.95808 0.0
H571 H 0.59958 0.62835 -0.00168 0.0
H572 H 0.49609 0.47161 0.00294 0.0
H573 H 0.48934 0.46081 0.95851 0.0
C574 C 0.53713 0.53224 0.92652 0.0
C575 C 0.56529 0.57321 0.91214 0.0
C576 C 0.54024 0.53826 0.95236 0.0
C577 C 0.59555 0.62024 0.92416 0.0
C578 C 0.59836 0.62646 0.94962 0.0
C579 C 0.57509 0.59185 0.9897 0.0
C580 C 0.54866 0.55093 0.0043 0.0
C581 C 0.57123 0.58577 0.96397 0.0
C582 C 0.51769 0.50386 0.99244 0.0
C583 C 0.51348 0.49762 0.96689 0.0
H584 H 1.0469 0.50282 0.24337 0.0
H585 H 1.0758 0.65349 0.25295 0.0
H586 H 1.07672 0.64947 0.29704 0.0
H587 H 1.07126 0.60427 0.33337 0.0
H588 H 1.04049 0.45297 0.32412 0.0
H589 H 1.03888 0.45656 0.27995 0.0
C590 C 1.05333 0.53478 0.25507 0.0
C591 C 1.06131 0.57842 0.24452 0.0
C592 C 1.05375 0.53231 0.28074 0.0
C593 C 1.06946 0.61928 0.26025 0.0
C594 C 1.07005 0.6171 0.28563 0.0
C595 C 1.06359 0.57179 0.32178 0.0
C596 C 1.05642 0.52854 0.33243 0.0
C597 C 1.06237 0.5739 0.29615 0.0
C598 C 1.04716 0.48722 0.31674 0.0
C599 C 1.04591 0.48908 0.29133 0.0
loop_
_geom_bond_atom_site_label_1
_geom_bond_atom_site_label_2
_geom_bond_distance
_geom_bond_site_symmetry_2
_ccdc_geom_bond_type
Eu0 C9 2.828 . S
Eu0 O11 2.392 1_655 S
Eu0 O13 2.418 . S
Eu0 O18 2.373 . S
Eu0 O21 2.488 . S
Eu0 O22 2.471 . S
Eu0 O23 2.349 . S
Eu1 O10 2.373 . S
Eu1 O14 2.488 . S
Eu1 O15 2.471 . S
Eu1 O16 2.349 . S
Eu1 O19 2.392 1_455 S
Eu1 O20 2.418 . S
Eu1 C30 2.828 . S
C2 O20 1.244 . S
C2 O23 1.265 1_455 S
C3 C4 1.379 . S
C3 C7 1.373 . S
C3 C9 1.505 . S
C4 C3 1.379 . S
C4 C6 1.369 . S
C4 H32 0.930 . S
C5 C7 1.383 . S
C5 C8 1.382 . S
C5 H33 0.930 . S
C6 C4 1.369 . S
C6 C8 1.392 . S
C6 H34 0.930 . S
C7 C3 1.373 . S
C7 C5 1.383 . S
C7 H35 0.931 . S
C8 C5 1.382 . S
C8 C6 1.392 . S
C9 Eu0 2.828 . S
C9 C3 1.505 . S
C9 O21 1.249 . S
C9 O22 1.244 . S
O10 Eu1 2.373 . S
O10 C12 1.258 . S
O11 Eu0 2.392 1_455 S
O11 C12 1.242 . S
C12 O10 1.258 . S
C12 O11 1.242 . S
O13 Eu0 2.418 . S
O13 C17 1.244 . S
O14 Eu1 2.488 . S
O14 C30 1.249 . S
O15 Eu1 2.471 . S
O15 C30 1.244 . S
O16 Eu1 2.349 . S
O16 C17 1.265 1_455 S
C17 O13 1.244 . S
C17 O16 1.265 1_655 S
O18 Eu0 2.373 . S
O18 C31 1.258 . S
O19 Eu1 2.392 1_655 S
O19 C31 1.242 . S
O20 Eu1 2.418 . S
O20 C2 1.244 . S
O21 Eu0 2.488 . S
O21 C9 1.249 . S
O22 Eu0 2.471 . S
O22 C9 1.244 . S
O23 Eu0 2.349 . S
O23 C2 1.265 1_655 S
C24 C25 1.379 . S
C24 C28 1.373 . S
C24 C30 1.505 . S
C25 C24 1.379 . S
C25 C27 1.369 . S
C25 H36 0.930 . S
C26 C28 1.383 . S
C26 C29 1.382 . S
C26 H37 0.930 . S
C27 C25 1.369 . S
C27 C29 1.392 . S
C27 H38 0.930 . S
C28 C24 1.373 . S
C28 C26 1.383 . S
C28 H39 0.931 . S
C29 C26 1.382 . S
C29 C27 1.392 . S
C30 Eu1 2.828 . S
C30 O14 1.249 . S
C30 O15 1.244 . S
C30 C24 1.505 . S
C31 O18 1.258 . S
C31 O19 1.242 . S
H32 C4 0.930 . S
H33 C5 0.930 . S
H34 C6 0.930 . S
H35 C7 0.931 . S
H36 C25 0.930 . S
H37 C26 0.930 . S
H38 C27 0.930 . S
H39 C28 0.931 . S
Eu40 C49 2.828 . S
Eu40 O51 2.392 1_565 S
Eu40 O53 2.418 . S
Eu40 O58 2.373 . S
Eu40 O61 2.488 . S
Eu40 O62 2.471 . S
Eu40 O63 2.349 . S
Eu41 O50 2.373 . S
Eu41 O54 2.488 . S
Eu41 O55 2.471 . S
Eu41 O56 2.349 . S
Eu41 O59 2.392 1_545 S
Eu41 O60 2.418 . S
Eu41 C70 2.828 . S
C42 O60 1.244 . S
C42 O63 1.265 1_545 S
C43 C44 1.379 . S
C43 C47 1.373 . S
C43 C49 1.505 . S
C44 C43 1.379 . S
C44 C46 1.369 . S
C44 H72 0.930 . S
C45 C47 1.383 . S
C45 C48 1.382 . S
C45 H73 0.930 . S
C46 C44 1.369 . S
C46 C48 1.392 . S
C46 H74 0.930 . S
C47 C43 1.373 . S
C47 C45 1.383 . S
C47 H75 0.931 . S
C48 C45 1.382 . S
C48 C46 1.392 . S
C49 Eu40 2.828 . S
C49 C43 1.505 . S
C49 O61 1.249 . S
C49 O62 1.244 . S
O50 Eu41 2.373 . S
O50 C52 1.258 . S
O51 Eu40 2.392 1_545 S
O51 C52 1.242 . S
C52 O50 1.258 . S
C52 O51 1.242 . S
O53 Eu40 2.418 . S
O53 C57 1.220 1_565 S
O54 Eu41 2.488 . S
O54 C70 1.249 . S
O55 Eu41 2.471 . S
O55 C70 1.244 . S
O56 Eu41 2.349 . S
O56 C57 1.277 . S
C57 O53 1.220 1_545 S
C57 O56 1.277 . S
O58 Eu40 2.373 . S
O58 C71 1.258 . S
O59 Eu41 2.392 1_565 S
O59 C71 1.242 . S
O60 Eu41 2.418 . S
O60 C42 1.244 . S
O61 Eu40 2.488 . S
O61 C49 1.249 . S
O62 Eu40 2.471 . S
O62 C49 1.244 . S
O63 Eu40 2.349 . S
O63 C42 1.265 1_565 S
C64 C65 1.379 . S
C64 C68 1.373 . S
C64 C70 1.505 . S
C65 C64 1.379 . S
C65 C67 1.369 . S
C65 H76 0.930 . S
C66 C68 1.383 . S
C66 C69 1.382 . S
C66 H77 0.930 . S
C67 C65 1.369 . S
C67 C69 1.392 . S
C67 H78 0.930 . S
C68 C64 1.373 . S
C68 C66 1.383 . S
C68 H79 0.931 . S
C69 C66 1.382 . S
C69 C67 1.392 . S
C70 Eu41 2.828 . S
C70 O54 1.249 . S
C70 O55 1.244 . S
C70 C64 1.505 . S
C71 O58 1.258 . S
C71 O59 1.242 . S
H72 C44 0.930 . S
H73 C45 0.930 . S
H74 C46 0.930 . S
H75 C47 0.931 . S
H76 C65 0.930 . S
H77 C66 0.930 . S
H78 C67 0.930 . S
H79 C68 0.931 . S
Eu80 C89 2.828 . S
Eu80 O91 2.392 . S
Eu80 O93 2.418 . S
Eu80 O98 2.373 . S
Eu80 O101 2.488 . S
Eu80 O102 2.471 . S
Eu80 O103 2.349 . S
Eu81 O90 2.373 . S
Eu81 O94 2.488 . S
Eu81 O95 2.471 . S
Eu81 O96 2.349 . S
Eu81 O99 2.392 . S
Eu81 O100 2.418 . S
Eu81 C110 2.828 . S
C82 O100 1.244 . S
C82 O103 1.265 . S
C83 C84 1.379 . S
C83 C87 1.373 . S
C83 C89 1.505 . S
C84 C83 1.379 . S
C84 C86 1.369 . S
C84 H112 0.930 . S
C85 C87 1.383 . S
C85 C88 1.382 . S
C85 H113 0.930 . S
C86 C84 1.369 . S
C86 C88 1.392 . S
C86 H114 0.930 . S
C87 C83 1.373 . S
C87 C85 1.383 . S
C87 H115 0.931 . S
C88 C85 1.382 . S
C88 C86 1.392 . S
C89 Eu80 2.828 . S
C89 C83 1.505 . S
C89 O101 1.249 . S
C89 O102 1.244 . S
O90 Eu81 2.373 . S
O90 C92 1.258 . S
O91 Eu80 2.392 . S
O91 C92 1.242 . S
C92 O90 1.258 . S
C92 O91 1.242 . S
O93 Eu80 2.418 . S
O93 C97 1.244 . S
O94 Eu81 2.488 . S
O94 C110 1.249 . S
O95 Eu81 2.471 . S
O95 C110 1.244 . S
O96 Eu81 2.349 . S
O96 C97 1.265 . S
C97 O93 1.244 . S
C97 O96 1.265 . S
O98 Eu80 2.373 . S
O98 C111 1.258 . S
O99 Eu81 2.392 . S
O99 C111 1.242 . S
O100 Eu81 2.418 . S
O100 C82 1.244 . S
O101 Eu80 2.488 . S
O101 C89 1.249 . S
O102 Eu80 2.471 . S
O102 C89 1.244 . S
O103 Eu80 2.349 . S
O103 C82 1.265 . S
C104 C105 1.379 . S
C104 C108 1.373 . S
C104 C110 1.505 . S
C105 C104 1.379 . S
C105 C107 1.369 . S
C105 H116 0.930 . S
C106 C108 1.383 . S
C106 C109 1.382 . S
C106 H117 0.930 . S
C107 C105 1.369 . S
C107 C109 1.392 . S
C107 H118 0.930 . S
C108 C104 1.373 . S
C108 C106 1.383 . S
C108 H119 0.931 . S
C109 C106 1.382 . S
C109 C107 1.392 . S
C110 Eu81 2.828 . S
C110 O94 1.249 . S
C110 O95 1.244 . S
C110 C104 1.505 . S
C111 O98 1.258 . S
C111 O99 1.242 . S
H112 C84 0.930 . S
H113 C85 0.930 . S
H114 C86 0.930 . S
H115 C87 0.931 . S
H116 C105 0.930 . S
H117 C106 0.930 . S
H118 C107 0.930 . S
H119 C108 0.931 . S
P120 O131 1.490 . S
P120 C134 1.812 . S
P120 C140 1.803 1_565 S
P120 C146 1.819 1_565 S
H121 C135 0.941 . S
H122 C136 0.939 . S
H123 C138 0.940 . S
H124 C139 0.940 . S
H125 C141 0.939 . S
H126 C142 0.942 . S
H127 C144 0.940 . S
H128 C145 0.939 . S
H129 C147 0.941 . S
H130 C151 0.939 . S
O131 P120 1.490 . S
H132 C148 0.939 . S
H133 C150 0.940 . S
C134 P120 1.812 . S
C134 C135 1.389 . S
C134 C139 1.391 . S
C135 H121 0.941 . S
C135 C134 1.389 . S
C135 C136 1.397 . S
C136 H122 0.939 . S
C136 C135 1.397 . S
C136 C137 1.378 . S
C137 C136 1.378 . S
C137 C138 1.378 . S
C138 H123 0.940 . S
C138 C137 1.378 . S
C138 C139 1.396 . S
C139 H124 0.940 . S
C139 C134 1.391 . S
C139 C138 1.396 . S
C140 P120 1.803 1_545 S
C140 C141 1.378 . S
C140 C145 1.400 . S
C141 H125 0.939 . S
C141 C140 1.378 . S
C141 C142 1.361 . S
C142 H126 0.942 . S
C142 C141 1.361 . S
C142 C143 1.369 . S
C143 C142 1.369 . S
C143 C144 1.404 . S
C144 H127 0.940 . S
C144 C143 1.404 . S
C144 C145 1.389 . S
C145 H128 0.939 . S
C145 C140 1.400 . S
C145 C144 1.389 . S
C146 P120 1.819 1_545 S
C146 C147 1.391 1_545 S
C146 C151 1.391 . S
C147 H129 0.941 . S
C147 C146 1.391 1_565 S
C147 C148 1.396 . S
C148 H132 0.939 . S
C148 C147 1.396 . S
C148 C149 1.397 1_565 S
C149 C148 1.397 1_545 S
C149 C150 1.385 . S
C150 H133 0.940 . S
C150 C149 1.385 . S
C150 C151 1.388 . S
C151 H130 0.939 . S
C151 C146 1.391 . S
C151 C150 1.388 . S
P152 O163 1.490 . S
P152 C166 1.812 . S
P152 C172 1.803 . S
P152 C178 1.819 . S
H153 C167 0.941 . S
H154 C168 0.939 . S
H155 C170 0.940 . S
H156 C171 0.940 . S
H157 C173 0.939 . S
H158 C174 0.942 . S
H159 C176 0.940 . S
H160 C177 0.939 . S
H161 C179 0.941 . S
H162 C183 0.939 . S
O163 P152 1.490 . S
H164 C180 0.939 . S
H165 C182 0.940 . S
C166 P152 1.812 . S
C166 C167 1.389 . S
C166 C171 1.391 . S
C167 H153 0.941 . S
C167 C166 1.389 . S
C167 C168 1.397 . S
C168 H154 0.939 . S
C168 C167 1.397 . S
C168 C169 1.378 . S
C169 C168 1.378 . S
C169 C170 1.378 . S
C170 H155 0.940 . S
C170 C169 1.378 . S
C170 C171 1.396 . S
C171 H156 0.940 . S
C171 C166 1.391 . S
C171 C170 1.396 . S
C172 P152 1.803 . S
C172 C173 1.378 . S
C172 C177 1.400 . S
C173 H157 0.939 . S
C173 C172 1.378 . S
C173 C174 1.361 . S
C174 H158 0.942 . S
C174 C173 1.361 . S
C174 C175 1.369 . S
C175 C174 1.369 . S
C175 C176 1.404 . S
C176 H159 0.940 . S
C176 C175 1.404 . S
C176 C177 1.389 . S
C177 H160 0.939 . S
C177 C172 1.400 . S
C177 C176 1.389 . S
C178 P152 1.819 . S
C178 C179 1.391 . S
C178 C183 1.391 . S
C179 H161 0.941 . S
C179 C178 1.391 . S
C179 C180 1.396 . S
C180 H164 0.939 . S
C180 C179 1.396 . S
C180 C181 1.397 . S
C181 C180 1.397 . S
C181 C182 1.385 . S
C182 H165 0.940 . S
C182 C181 1.385 . S
C182 C183 1.388 . S
C183 H162 0.939 . S
C183 C178 1.391 . S
C183 C182 1.388 . S
P184 O195 1.490 . S
P184 C198 1.812 . S
P184 C204 1.803 . S
P184 C210 1.819 . S
H185 C199 0.941 . S
H186 C200 0.939 . S
H187 C202 0.940 . S
H188 C203 0.940 . S
H189 C205 0.939 1_455 S
H190 C206 0.942 . S
H191 C208 0.940 . S
H192 C209 0.939 1_455 S
H193 C211 0.941 . S
H194 C215 0.939 1_655 S
O195 P184 1.490 . S
H196 C212 0.939 . S
H197 C214 0.940 1_655 S
C198 P184 1.812 . S
C198 C199 1.389 . S
C198 C203 1.391 . S
C199 H185 0.941 . S
C199 C198 1.389 . S
C199 C200 1.397 . S
C200 H186 0.939 . S
C200 C199 1.397 . S
C200 C201 1.378 . S
C201 C200 1.378 . S
C201 C202 1.378 . S
C202 H187 0.940 . S
C202 C201 1.378 . S
C202 C203 1.396 . S
C203 H188 0.940 . S
C203 C198 1.391 . S
C203 C202 1.396 . S
C204 P184 1.803 . S
C204 C205 1.378 1_455 S
C204 C209 1.400 1_455 S
C205 H189 0.939 1_655 S
C205 C204 1.378 1_655 S
C205 C206 1.361 . S
C206 H190 0.942 . S
C206 C205 1.361 . S
C206 C207 1.369 . S
C207 C206 1.369 . S
C207 C208 1.404 . S
C208 H191 0.940 . S
C208 C207 1.404 . S
C208 C209 1.389 . S
C209 H192 0.939 1_655 S
C209 C204 1.400 1_655 S
C209 C208 1.389 . S
C210 P184 1.819 . S
C210 C211 1.391 . S
C210 C215 1.391 . S
C211 H193 0.941 . S
C211 C210 1.391 . S
C211 C212 1.396 . S
C212 H196 0.939 . S
C212 C211 1.396 . S
C212 C213 1.397 . S
C213 C212 1.397 . S
C213 C214 1.385 . S
C214 H197 0.940 1_455 S
C214 C213 1.385 . S
C214 C215 1.388 . S
C215 H194 0.939 1_455 S
C215 C210 1.391 . S
C215 C214 1.388 . S
P216 O227 1.490 . S
P216 C230 1.812 . S
P216 C236 1.803 1_455 S
P216 C242 1.819 . S
H217 C231 0.941 . S
H218 C232 0.939 . S
H219 C234 0.940 . S
H220 C235 0.940 . S
H221 C237 0.939 . S
H222 C238 0.942 . S
H223 C240 0.940 . S
H224 C241 0.939 . S
H225 C243 0.941 . S
H226 C247 0.939 . S
O227 P216 1.490 . S
H228 C244 0.939 . S
H229 C246 0.940 . S
C230 P216 1.812 . S
C230 C231 1.389 . S
C230 C235 1.391 . S
C231 H217 0.941 . S
C231 C230 1.389 . S
C231 C232 1.397 . S
C232 H218 0.939 . S
C232 C231 1.397 . S
C232 C233 1.378 . S
C233 C232 1.378 . S
C233 C234 1.378 . S
C234 H219 0.940 . S
C234 C233 1.378 . S
C234 C235 1.396 . S
C235 H220 0.940 . S
C235 C230 1.391 . S
C235 C234 1.396 . S
C236 P216 1.803 1_655 S
C236 C237 1.378 . S
C236 C241 1.400 . S
C237 H221 0.939 . S
C237 C236 1.378 . S
C237 C238 1.361 . S
C238 H222 0.942 . S
C238 C237 1.361 . S
C238 C239 1.369 . S
C239 C238 1.369 . S
C239 C240 1.404 . S
C240 H223 0.940 . S
C240 C239 1.404 . S
C240 C241 1.389 . S
C241 H224 0.939 . S
C241 C236 1.400 . S
C241 C240 1.389 . S
C242 P216 1.819 . S
C242 C243 1.391 . S
C242 C247 1.391 1_455 S
C243 H225 0.941 . S
C243 C242 1.391 . S
C243 C244 1.396 . S
C244 H228 0.939 . S
C244 C243 1.396 . S
C244 C245 1.397 . S
C245 C244 1.397 . S
C245 C246 1.385 1_455 S
C246 H229 0.940 . S
C246 C245 1.385 1_655 S
C246 C247 1.388 . S
C247 H226 0.939 . S
C247 C242 1.391 1_655 S
C247 C246 1.388 . S
P248 O259 1.490 . S
P248 C262 1.812 . S
P248 C268 1.803 1_545 S
P248 C274 1.819 . S
H249 C263 0.941 . S
H250 C264 0.939 . S
H251 C266 0.940 . S
H252 C267 0.940 . S
H253 C269 0.939 . S
H254 C270 0.942 . S
H255 C272 0.940 . S
H256 C273 0.939 . S
H257 C275 0.941 . S
H258 C279 0.939 . S
O259 P248 1.490 . S
H260 C276 0.939 . S
H261 C278 0.940 . S
C262 P248 1.812 . S
C262 C263 1.389 . S
C262 C267 1.391 . S
C263 H249 0.941 . S
C263 C262 1.389 . S
C263 C264 1.397 . S
C264 H250 0.939 . S
C264 C263 1.397 . S
C264 C265 1.378 . S
C265 C264 1.378 . S
C265 C266 1.378 . S
C266 H251 0.940 . S
C266 C265 1.378 . S
C266 C267 1.396 . S
C267 H252 0.940 . S
C267 C262 1.391 . S
C267 C266 1.396 . S
C268 P248 1.803 1_565 S
C268 C269 1.378 . S
C268 C273 1.400 . S
C269 H253 0.939 . S
C269 C268 1.378 . S
C269 C270 1.361 . S
C270 H254 0.942 . S
C270 C269 1.361 . S
C270 C271 1.369 . S
C271 C270 1.369 . S
C271 C272 1.404 . S
C272 H255 0.940 . S
C272 C271 1.404 . S
C272 C273 1.389 . S
C273 H256 0.939 . S
C273 C268 1.400 . S
C273 C272 1.389 . S
C274 P248 1.819 . S
C274 C275 1.391 . S
C274 C279 1.391 1_545 S
C275 H257 0.941 . S
C275 C274 1.391 . S
C275 C276 1.396 . S
C276 H260 0.939 . S
C276 C275 1.396 . S
C276 C277 1.397 . S
C277 C276 1.397 . S
C277 C278 1.385 1_545 S
C278 H261 0.940 . S
C278 C277 1.385 1_565 S
C278 C279 1.388 . S
C279 H258 0.939 . S
C279 C274 1.391 1_565 S
C279 C278 1.388 . S
P280 O291 1.490 . S
P280 C294 1.812 . S
P280 C300 1.803 . S
P280 C306 1.819 . S
H281 C295 0.941 . S
H282 C296 0.939 . S
H283 C298 0.940 . S
H284 C299 0.940 . S
H285 C301 0.939 . S
H286 C302 0.942 . S
H287 C304 0.940 . S
H288 C305 0.939 . S
H289 C307 0.941 . S
H290 C311 0.939 . S
O291 P280 1.490 . S
H292 C308 0.939 . S
H293 C310 0.940 . S
C294 P280 1.812 . S
C294 C295 1.389 . S
C294 C299 1.391 . S
C295 H281 0.941 . S
C295 C294 1.389 . S
C295 C296 1.397 . S
C296 H282 0.939 . S
C296 C295 1.397 . S
C296 C297 1.378 . S
C297 C296 1.378 . S
C297 C298 1.378 . S
C298 H283 0.940 . S
C298 C297 1.378 . S
C298 C299 1.396 . S
C299 H284 0.940 . S
C299 C294 1.391 . S
C299 C298 1.396 . S
C300 P280 1.803 . S
C300 C301 1.378 . S
C300 C305 1.400 . S
C301 H285 0.939 . S
C301 C300 1.378 . S
C301 C302 1.361 . S
C302 H286 0.942 . S
C302 C301 1.361 . S
C302 C303 1.369 . S
C303 C302 1.369 . S
C303 C304 1.404 . S
C304 H287 0.940 . S
C304 C303 1.404 . S
C304 C305 1.389 . S
C305 H288 0.939 . S
C305 C300 1.400 . S
C305 C304 1.389 . S
C306 P280 1.819 . S
C306 C307 1.391 . S
C306 C311 1.391 . S
C307 H289 0.941 . S
C307 C306 1.391 . S
C307 C308 1.396 . S
C308 H292 0.939 . S
C308 C307 1.396 . S
C308 C309 1.397 . S
C309 C308 1.397 . S
C309 C310 1.385 . S
C310 H293 0.940 . S
C310 C309 1.385 . S
C310 C311 1.388 . S
C311 H290 0.939 . S
C311 C306 1.391 . S
C311 C310 1.388 . S
H312 C318 0.930 . S
H313 C321 0.930 . S
H314 C322 0.930 . S
H315 C323 0.930 . S
H316 C326 0.930 . S
H317 C327 0.930 . S
C318 H312 0.930 . S
C318 C319 1.355 . S
C318 C320 1.415 . S
C319 C318 1.355 . S
C319 C321 1.419 . S
C320 C318 1.415 . S
C320 C325 1.425 . S
C320 C327 1.409 . S
C321 H313 0.930 . S
C321 C319 1.419 . S
C321 C322 1.362 . S
C322 H314 0.930 . S
C322 C321 1.362 . S
C322 C325 1.409 . S
C323 H315 0.930 . S
C323 C324 1.355 . S
C323 C325 1.415 . S
C324 C323 1.355 . S
C324 C326 1.419 . S
C325 C320 1.425 . S
C325 C322 1.409 . S
C325 C323 1.415 . S
C326 H316 0.930 . S
C326 C324 1.419 . S
C326 C327 1.362 . S
C327 H317 0.930 . S
C327 C320 1.409 . S
C327 C326 1.362 . S
H328 C334 0.930 . S
H329 C337 0.930 . S
H330 C338 0.930 . S
H331 C339 0.930 . S
H332 C342 0.930 . S
H333 C343 0.930 . S
C334 H328 0.930 . S
C334 C335 1.355 . S
C334 C336 1.415 . S
C335 C334 1.355 . S
C335 C337 1.419 . S
C336 C334 1.415 . S
C336 C341 1.425 . S
C336 C343 1.409 . S
C337 H329 0.930 . S
C337 C335 1.419 . S
C337 C338 1.362 . S
C338 H330 0.930 . S
C338 C337 1.362 . S
C338 C341 1.409 . S
C339 H331 0.930 . S
C339 C340 1.355 . S
C339 C341 1.415 . S
C340 C339 1.355 . S
C340 C342 1.419 . S
C341 C336 1.425 . S
C341 C338 1.409 . S
C341 C339 1.415 . S
C342 H332 0.930 . S
C342 C340 1.419 . S
C342 C343 1.362 . S
C343 H333 0.930 . S
C343 C336 1.409 . S
C343 C342 1.362 . S
H344 C350 0.930 . S
H345 C353 0.930 . S
H346 C354 0.930 . S
H347 C355 0.930 . S
H348 C358 0.930 . S
H349 C359 0.930 . S
C350 H344 0.930 . S
C350 C351 1.355 . S
C350 C352 1.415 . S
C351 C350 1.355 . S
C351 C353 1.419 . S
C352 C350 1.415 . S
C352 C357 1.425 . S
C352 C359 1.409 . S
C353 H345 0.930 . S
C353 C351 1.419 . S
C353 C354 1.362 . S
C354 H346 0.930 . S
C354 C353 1.362 . S
C354 C357 1.409 . S
C355 H347 0.930 . S
C355 C356 1.355 . S
C355 C357 1.415 . S
C356 C355 1.355 . S
C356 C358 1.419 . S
C357 C352 1.425 . S
C357 C354 1.409 . S
C357 C355 1.415 . S
C358 H348 0.930 . S
C358 C356 1.419 . S
C358 C359 1.362 . S
C359 H349 0.930 . S
C359 C352 1.409 . S
C359 C358 1.362 . S
H360 C366 0.930 . S
H361 C369 0.930 . S
H362 C370 0.930 . S
H363 C371 0.930 . S
H364 C374 0.930 . S
H365 C375 0.930 . S
C366 H360 0.930 . S
C366 C367 1.355 . S
C366 C368 1.415 . S
C367 C366 1.355 . S
C367 C369 1.419 . S
C368 C366 1.415 . S
C368 C373 1.425 . S
C368 C375 1.409 . S
C369 H361 0.930 . S
C369 C367 1.419 . S
C369 C370 1.362 . S
C370 H362 0.930 . S
C370 C369 1.362 . S
C370 C373 1.409 . S
C371 H363 0.930 . S
C371 C372 1.355 . S
C371 C373 1.415 . S
C372 C371 1.355 . S
C372 C374 1.419 . S
C373 C368 1.425 . S
C373 C370 1.409 . S
C373 C371 1.415 . S
C374 H364 0.930 . S
C374 C372 1.419 . S
C374 C375 1.362 . S
C375 H365 0.930 . S
C375 C368 1.409 . S
C375 C374 1.362 . S
H376 C382 0.930 . S
H377 C385 0.930 . S
H378 C386 0.930 . S
H379 C387 0.930 . S
H380 C390 0.930 . S
H381 C391 0.930 . S
C382 H376 0.930 . S
C382 C383 1.355 . S
C382 C384 1.415 . S
C383 C382 1.355 . S
C383 C385 1.419 . S
C384 C382 1.415 . S
C384 C389 1.425 . S
C384 C391 1.409 . S
C385 H377 0.930 . S
C385 C383 1.419 . S
C385 C386 1.362 . S
C386 H378 0.930 . S
C386 C385 1.362 . S
C386 C389 1.409 . S
C387 H379 0.930 . S
C387 C388 1.355 . S
C387 C389 1.415 . S
C388 C387 1.355 . S
C388 C390 1.419 . S
C389 C384 1.425 . S
C389 C386 1.409 . S
C389 C387 1.415 . S
C390 H380 0.930 . S
C390 C388 1.419 . S
C390 C391 1.362 . S
C391 H381 0.930 . S
C391 C384 1.409 . S
C391 C390 1.362 . S
H392 C398 0.930 . S
H393 C401 0.930 . S
H394 C402 0.930 . S
H395 C403 0.930 . S
H396 C406 0.930 . S
H397 C407 0.930 . S
C398 H392 0.930 . S
C398 C399 1.355 . S
C398 C400 1.415 . S
C399 C398 1.355 . S
C399 C401 1.419 . S
C400 C398 1.415 . S
C400 C405 1.425 . S
C400 C407 1.409 . S
C401 H393 0.930 . S
C401 C399 1.419 . S
C401 C402 1.362 . S
C402 H394 0.930 . S
C402 C401 1.362 . S
C402 C405 1.409 . S
C403 H395 0.930 . S
C403 C404 1.355 . S
C403 C405 1.415 . S
C404 C403 1.355 . S
C404 C406 1.419 . S
C405 C400 1.425 . S
C405 C402 1.409 . S
C405 C403 1.415 . S
C406 H396 0.930 . S
C406 C404 1.419 . S
C406 C407 1.362 . S
C407 H397 0.930 . S
C407 C400 1.409 . S
C407 C406 1.362 . S
H408 C414 0.930 . S
H409 C417 0.930 . S
H410 C418 0.930 . S
H411 C419 0.930 . S
H412 C422 0.930 . S
H413 C423 0.930 . S
C414 H408 0.930 . S
C414 C415 1.355 . S
C414 C416 1.415 . S
C415 C414 1.355 . S
C415 C417 1.419 . S
C416 C414 1.415 . S
C416 C421 1.425 . S
C416 C423 1.409 . S
C417 H409 0.930 . S
C417 C415 1.419 . S
C417 C418 1.362 . S
C418 H410 0.930 . S
C418 C417 1.362 . S
C418 C421 1.409 . S
C419 H411 0.930 . S
C419 C420 1.355 . S
C419 C421 1.415 . S
C420 C419 1.355 . S
C420 C422 1.419 . S
C421 C416 1.425 . S
C421 C418 1.409 . S
C421 C419 1.415 . S
C422 H412 0.930 . S
C422 C420 1.419 . S
C422 C423 1.362 . S
C423 H413 0.930 . S
C423 C416 1.409 . S
C423 C422 1.362 . S
H424 C430 0.930 . S
H425 C433 0.930 . S
H426 C434 0.930 . S
H427 C435 0.930 . S
H428 C438 0.930 . S
H429 C439 0.930 . S
C430 H424 0.930 . S
C430 C431 1.355 . S
C430 C432 1.415 . S
C431 C430 1.355 . S
C431 C433 1.419 . S
C432 C430 1.415 . S
C432 C437 1.425 . S
C432 C439 1.409 . S
C433 H425 0.930 . S
C433 C431 1.419 . S
C433 C434 1.362 . S
C434 H426 0.930 . S
C434 C433 1.362 . S
C434 C437 1.409 . S
C435 H427 0.930 . S
C435 C436 1.355 . S
C435 C437 1.415 . S
C436 C435 1.355 . S
C436 C438 1.419 . S
C437 C432 1.425 . S
C437 C434 1.409 . S
C437 C435 1.415 . S
C438 H428 0.930 . S
C438 C436 1.419 . S
C438 C439 1.362 . S
C439 H429 0.930 . S
C439 C432 1.409 . S
C439 C438 1.362 . S
H440 C446 0.930 . S
H441 C449 0.930 . S
H442 C450 0.930 . S
H443 C451 0.930 . S
H444 C454 0.930 . S
H445 C455 0.930 . S
C446 H440 0.930 . S
C446 C447 1.355 . S
C446 C448 1.415 . S
C447 C446 1.355 . S
C447 C449 1.419 . S
C448 C446 1.415 . S
C448 C453 1.425 . S
C448 C455 1.409 . S
C449 H441 0.930 . S
C449 C447 1.419 . S
C449 C450 1.362 . S
C450 H442 0.930 . S
C450 C449 1.362 . S
C450 C453 1.409 . S
C451 H443 0.930 . S
C451 C452 1.355 . S
C451 C453 1.415 . S
C452 C451 1.355 . S
C452 C454 1.419 . S
C453 C448 1.425 . S
C453 C450 1.409 . S
C453 C451 1.415 . S
C454 H444 0.930 . S
C454 C452 1.419 . S
C454 C455 1.362 . S
C455 H445 0.930 . S
C455 C448 1.409 . S
C455 C454 1.362 . S
H456 C462 0.930 . S
H457 C465 0.930 . S
H458 C466 0.930 . S
H459 C467 0.930 . S
H460 C470 0.930 . S
H461 C471 0.930 . S
C462 H456 0.930 . S
C462 C463 1.355 . S
C462 C464 1.415 . S
C463 C462 1.355 . S
C463 C465 1.419 . S
C464 C462 1.415 . S
C464 C469 1.425 . S
C464 C471 1.409 . S
C465 H457 0.930 . S
C465 C463 1.419 . S
C465 C466 1.362 . S
C466 H458 0.930 . S
C466 C465 1.362 . S
C466 C469 1.409 . S
C467 H459 0.930 . S
C467 C468 1.355 . S
C467 C469 1.415 . S
C468 C467 1.355 . S
C468 C470 1.419 . S
C469 C464 1.425 . S
C469 C466 1.409 . S
C469 C467 1.415 . S
C470 H460 0.930 . S
C470 C468 1.419 . S
C470 C471 1.362 . S
C471 H461 0.930 . S
C471 C464 1.409 . S
C471 C470 1.362 . S
H472 C478 0.930 . S
H473 C481 0.930 . S
H474 C482 0.930 . S
H475 C483 0.930 . S
H476 C486 0.930 . S
H477 C487 0.930 . S
C478 H472 0.930 . S
C478 C479 1.355 . S
C478 C480 1.415 . S
C479 C478 1.355 . S
C479 C481 1.419 . S
C480 C478 1.415 . S
C480 C485 1.425 . S
C480 C487 1.409 . S
C481 H473 0.930 . S
C481 C479 1.419 . S
C481 C482 1.362 . S
C482 H474 0.930 . S
C482 C481 1.362 . S
C482 C485 1.409 . S
C483 H475 0.930 . S
C483 C484 1.355 . S
C483 C485 1.415 . S
C484 C483 1.355 . S
C484 C486 1.419 . S
C485 C480 1.425 . S
C485 C482 1.409 . S
C485 C483 1.415 . S
C486 H476 0.930 . S
C486 C484 1.419 . S
C486 C487 1.362 . S
C487 H477 0.930 . S
C487 C480 1.409 . S
C487 C486 1.362 . S
H488 C494 0.930 . S
H489 C497 0.930 . S
H490 C498 0.930 . S
H491 C499 0.930 . S
H492 C502 0.930 . S
H493 C503 0.930 . S
C494 H488 0.930 . S
C494 C495 1.355 . S
C494 C496 1.415 . S
C495 C494 1.355 . S
C495 C497 1.419 . S
C496 C494 1.415 . S
C496 C501 1.425 . S
C496 C503 1.409 . S
C497 H489 0.930 . S
C497 C495 1.419 . S
C497 C498 1.362 . S
C498 H490 0.930 . S
C498 C497 1.362 . S
C498 C501 1.409 . S
C499 H491 0.930 . S
C499 C500 1.355 . S
C499 C501 1.415 . S
C500 C499 1.355 . S
C500 C502 1.419 . S
C501 C496 1.425 . S
C501 C498 1.409 . S
C501 C499 1.415 . S
C502 H492 0.930 . S
C502 C500 1.419 . S
C502 C503 1.362 . S
C503 H493 0.930 . S
C503 C496 1.409 . S
C503 C502 1.362 . S
H504 C510 0.930 . S
H505 C513 0.923 1_655 S
H506 C514 0.930 . S
H507 C515 0.930 . S
H508 C518 0.930 . S
H509 C519 0.930 . S
C510 H504 0.930 . S
C510 C511 1.355 . S
C510 C512 1.415 . S
C511 C510 1.355 . S
C511 C513 1.419 . S
C512 C510 1.415 . S
C512 C517 1.425 . S
C512 C519 1.409 . S
C513 H505 0.923 1_455 S
C513 C511 1.419 . S
C513 C514 1.362 . S
C514 H506 0.930 . S
C514 C513 1.362 . S
C514 C517 1.409 . S
C515 H507 0.930 . S
C515 C516 1.355 . S
C515 C517 1.415 . S
C516 C515 1.355 . S
C516 C518 1.419 . S
C517 C512 1.425 . S
C517 C514 1.409 . S
C517 C515 1.415 . S
C518 H508 0.930 . S
C518 C516 1.419 . S
C518 C519 1.362 . S
C519 H509 0.930 . S
C519 C512 1.409 . S
C519 C518 1.362 . S
H520 C526 0.930 . S
H521 C529 0.930 . S
H522 C530 0.921 1_565 S
H523 C531 0.930 . S
H524 C534 0.930 . S
H525 C535 0.930 . S
C526 H520 0.930 . S
C526 C527 1.355 . S
C526 C528 1.415 . S
C527 C526 1.355 . S
C527 C529 1.419 1_545 S
C528 C526 1.415 . S
C528 C533 1.425 . S
C528 C535 1.409 . S
C529 H521 0.930 . S
C529 C527 1.419 1_565 S
C529 C530 1.361 1_565 S
C530 H522 0.921 1_545 S
C530 C529 1.361 1_545 S
C530 C533 1.420 . S
C531 H523 0.930 . S
C531 C532 1.355 . S
C531 C533 1.415 . S
C532 C531 1.355 . S
C532 C534 1.419 . S
C533 C528 1.425 . S
C533 C530 1.420 . S
C533 C531 1.415 . S
C534 H524 0.930 . S
C534 C532 1.419 . S
C534 C535 1.362 . S
C535 H525 0.930 . S
C535 C528 1.409 . S
C535 C534 1.362 . S
H536 C542 0.930 . S
H537 C545 0.930 . S
H538 C546 0.930 . S
H539 C547 0.930 . S
H540 C550 0.930 . S
H541 C551 0.930 . S
C542 H536 0.930 . S
C542 C543 1.355 . S
C542 C544 1.415 . S
C543 C542 1.355 . S
C543 C545 1.419 . S
C544 C542 1.415 . S
C544 C549 1.425 . S
C544 C551 1.409 . S
C545 H537 0.930 . S
C545 C543 1.419 . S
C545 C546 1.362 . S
C546 H538 0.930 . S
C546 C545 1.362 . S
C546 C549 1.409 . S
C547 H539 0.930 . S
C547 C548 1.355 . S
C547 C549 1.415 . S
C548 C547 1.355 . S
C548 C550 1.419 . S
C549 C544 1.425 . S
C549 C546 1.409 . S
C549 C547 1.415 . S
C550 H540 0.930 . S
C550 C548 1.419 . S
C550 C551 1.362 . S
C551 H541 0.930 . S
C551 C544 1.409 . S
C551 C550 1.362 . S
H552 C558 0.930 . S
H553 C561 0.930 . S
H554 C562 0.930 . S
H555 C563 0.930 . S
H556 C566 0.930 . S
H557 C567 0.930 . S
C558 H552 0.930 . S
C558 C559 1.355 1_565 S
C558 C560 1.415 . S
C559 C558 1.355 1_545 S
C559 C561 1.419 . S
C560 C558 1.415 . S
C560 C565 1.425 1_565 S
C560 C567 1.409 . S
C561 H553 0.930 . S
C561 C559 1.419 . S
C561 C562 1.362 . S
C562 H554 0.930 . S
C562 C561 1.362 . S
C562 C565 1.409 . S
C563 H555 0.930 . S
C563 C564 1.355 . S
C563 C565 1.415 . S
C564 C563 1.355 . S
C564 C566 1.419 1_545 S
C565 C560 1.425 1_545 S
C565 C562 1.409 . S
C565 C563 1.415 . S
C566 H556 0.930 . S
C566 C564 1.419 1_565 S
C566 C567 1.362 . S
C567 H557 0.930 . S
C567 C560 1.409 . S
C567 C566 1.362 . S
H568 C574 0.930 . S
H569 C577 0.930 . S
H570 C578 0.930 . S
H571 C579 0.930 . S
H572 C582 0.930 1_554 S
H573 C583 0.930 . S
C574 H568 0.930 . S
C574 C575 1.355 . S
C574 C576 1.415 . S
C575 C574 1.355 . S
C575 C577 1.419 . S
C576 C574 1.415 . S
C576 C581 1.425 . S
C576 C583 1.409 . S
C577 H569 0.930 . S
C577 C575 1.419 . S
C577 C578 1.362 . S
C578 H570 0.930 . S
C578 C577 1.362 . S
C578 C581 1.409 . S
C579 H571 0.930 . S
C579 C580 1.355 1_556 S
C579 C581 1.415 . S
C580 C579 1.355 1_554 S
C580 C582 1.419 1_554 S
C581 C576 1.425 . S
C581 C578 1.409 . S
C581 C579 1.415 . S
C582 H572 0.930 1_556 S
C582 C580 1.419 1_556 S
C582 C583 1.362 . S
C583 H573 0.930 . S
C583 C576 1.409 . S
C583 C582 1.362 . S
H584 C590 0.930 . S
H585 C593 0.930 . S
H586 C594 0.930 . S
H587 C595 0.930 . S
H588 C598 0.930 . S
H589 C599 0.930 . S
C590 H584 0.930 . S
C590 C591 1.355 1_455 S
C590 C592 1.415 . S
C591 C590 1.355 1_655 S
C591 C593 1.419 . S
C592 C590 1.415 . S
C592 C597 1.425 1_455 S
C592 C599 1.409 . S
C593 H585 0.930 . S
C593 C591 1.419 . S
C593 C594 1.362 . S
C594 H586 0.930 . S
C594 C593 1.362 . S
C594 C597 1.409 . S
C595 H587 0.930 . S
C595 C596 1.355 1_655 S
C595 C597 1.415 . S
C596 C595 1.355 1_455 S
C596 C598 1.419 . S
C597 C592 1.425 1_655 S
C597 C594 1.409 . S
C597 C595 1.415 . S
C598 H588 0.930 . S
C598 C596 1.419 . S
C598 C599 1.362 . S
C599 H589 0.930 . S
C599 C592 1.409 . S
C599 C598 1.362 . S
C319 C12 2.929 . S
C324 C303 2.878 . S
C335 C52 2.959 . S
C340 C239 2.898 . S
C351 C111 3.004 . S
C356 C271 2.918 . S
C367 C31 3.125 . S
C372 C297 3.071 . S
C388 C233 3.011 . S
C383 C71 3.094 . S
C404 C265 2.995 . S
C399 C92 3.054 . S
C415 C48 0.504 . S
C420 C175 0.545 . S
C431 C109 0.657 . S
C436 C207 0.568 . S
C447 C29 0.478 . S
C452 C137 0.483 . S
C468 C169 0.430 . S
C463 C69 0.546 . S
C484 C201 0.395 . S
C479 C88 0.499 . S
C495 C8 0.408 . S
C500 C143 0.351 . S
C516 C213 1.080 1_554 S
C511 C17 1.082 1_455 S
C527 C57 1.014 . S
C532 C149 1.069 . S
C543 C97 1.071 . S
C548 C181 1.065 . S
C564 C277 1.729 . S
C559 C42 1.694 . S
C580 C309 1.727 . S
C575 C82 1.713 . S
C591 C2 1.751 1_655 S
C596 C245 1.744 . S
