# Generated by pormake.
# Topology zzz, (3,6)-cn, num edge types: 1
# Building blocks:
#     Node 0, Type 0, BuildingBlock: BETDIP_clean_linker_0, # of connection points: 3
#     Node 1, Type 0, BuildingBlock: BETDIP_clean_linker_0, # of connection points: 3
#     Node 2, Type 0, BuildingBlock: BETDIP_clean_linker_0, # of connection points: 3
#     Node 3, Type 0, BuildingBlock: BETDIP_clean_linker_0, # of connection points: 3
#     Node 4, Type 0, BuildingBlock: BETDIP_clean_linker_0, # of connection points: 3
#     Node 5, Type 0, BuildingBlock: BETDIP_clean_linker_0, # of connection points: 3
#     Node 6, Type 0, BuildingBlock: BETDIP_clean_linker_0, # of connection points: 3
#     Node 7, Type 0, BuildingBlock: BETDIP_clean_linker_0, # of connection points: 3
#     Node 8, Type 1, BuildingBlock: KUMJIN_clean_sbu_0, # of connection points: 6
#     Node 9, Type 1, BuildingBlock: KUMJIN_clean_sbu_0, # of connection points: 6
#     Node 10, Type 1, BuildingBlock: KUMJIN_clean_sbu_0, # of connection points: 6
#     Node 11, Type 1, BuildingBlock: KUMJIN_clean_sbu_0, # of connection points: 6
#     Edge 12, Type (0, 1), BuildingBlock: CIFDUS_clean_linker_0, # of connection points: 2
#     Edge 13, Type (0, 1), BuildingBlock: CIFDUS_clean_linker_0, # of connection points: 2
#     Edge 14, Type (0, 1), BuildingBlock: CIFDUS_clean_linker_0, # of connection points: 2
#     Edge 15, Type (0, 1), BuildingBlock: CIFDUS_clean_linker_0, # of connection points: 2
#     Edge 16, Type (0, 1), BuildingBlock: CIFDUS_clean_linker_0, # of connection points: 2
#     Edge 17, Type (0, 1), BuildingBlock: CIFDUS_clean_linker_0, # of connection points: 2
#     Edge 18, Type (0, 1), BuildingBlock: CIFDUS_clean_linker_0, # of connection points: 2
#     Edge 19, Type (0, 1), BuildingBlock: CIFDUS_clean_linker_0, # of connection points: 2
#     Edge 20, Type (0, 1), BuildingBlock: CIFDUS_clean_linker_0, # of connection points: 2
#     Edge 21, Type (0, 1), BuildingBlock: CIFDUS_clean_linker_0, # of connection points: 2
#     Edge 22, Type (0, 1), BuildingBlock: CIFDUS_clean_linker_0, # of connection points: 2
#     Edge 23, Type (0, 1), BuildingBlock: CIFDUS_clean_linker_0, # of connection points: 2
#     Edge 24, Type (0, 1), BuildingBlock: CIFDUS_clean_linker_0, # of connection points: 2
#     Edge 25, Type (0, 1), BuildingBlock: CIFDUS_clean_linker_0, # of connection points: 2
#     Edge 26, Type (0, 1), BuildingBlock: CIFDUS_clean_linker_0, # of connection points: 2
#     Edge 27, Type (0, 1), BuildingBlock: CIFDUS_clean_linker_0, # of connection points: 2
#     Edge 28, Type (0, 1), BuildingBlock: CIFDUS_clean_linker_0, # of connection points: 2
#     Edge 29, Type (0, 1), BuildingBlock: CIFDUS_clean_linker_0, # of connection points: 2
#     Edge 30, Type (0, 1), BuildingBlock: CIFDUS_clean_linker_0, # of connection points: 2
#     Edge 31, Type (0, 1), BuildingBlock: CIFDUS_clean_linker_0, # of connection points: 2
#     Edge 32, Type (0, 1), BuildingBlock: CIFDUS_clean_linker_0, # of connection points: 2
#     Edge 33, Type (0, 1), BuildingBlock: CIFDUS_clean_linker_0, # of connection points: 2
#     Edge 34, Type (0, 1), BuildingBlock: CIFDUS_clean_linker_0, # of connection points: 2
#     Edge 35, Type (0, 1), BuildingBlock: CIFDUS_clean_linker_0, # of connection points: 2
# Relax obj value: 0.198
# Max RMSD: 0.171
# Mean RMSD: 0.117
data_MOF--net-zzz--node1-KUMJIN_clean_sbu_0--node2-BETDIP_clean_linker_0--edge1-CIFDUS_clean_linker_0
_symmetry_space_group_name_H-M    P1
_symmetry_Int_Tables_number       1
_symmetry_cell_setting            triclinic
loop_
_symmetry_equiv_pos_as_xyz
'x, y, z'
_cell_length_a     44.165341
_cell_length_b     44.149504
_cell_length_c     12.876252
_cell_angle_alpha  91.73693
_cell_angle_beta   89.645347
_cell_angle_gamma 89.788335
loop_
_atom_site_label
_atom_site_type_symbol
_atom_site_fract_x
_atom_site_fract_y
_atom_site_fract_z
_atom_type_partial_charge
H0 H 0.77156 0.51762 0.34399 0.0
H1 H 0.75813 0.58924 0.12618 0.0
H2 H 0.8402 0.58486 0.30008 0.0
H3 H 0.70885 0.58625 0.21516 0.0
C4 C 0.70631 0.56301 0.18612 0.0
C5 C 0.77927 0.53809 0.3081 0.0
C6 C 0.80874 0.54964 0.33109 0.0
C7 C 0.76003 0.55319 0.23657 0.0
C8 C 0.77129 0.57883 0.18636 0.0
C9 C 0.79997 0.59041 0.20919 0.0
C10 C 0.81772 0.57624 0.28363 0.0
N11 N 0.73027 0.5422 0.20974 0.0
H12 H 0.02225 0.78101 0.42628 0.0
H13 H 0.99189 0.75971 0.11436 0.0
H14 H 0.99527 0.85196 0.22224 0.0
H15 H 0.97186 0.7172 0.20744 0.0
C16 C 0.99523 0.71144 0.22458 0.0
C17 C 1.01314 0.78817 0.3531 0.0
C18 C 1.00879 0.81988 0.3359 0.0
C19 C 1.00622 0.76588 0.27327 0.0
C20 C 0.99543 0.77586 0.17815 0.0
C21 C 0.99224 0.80655 0.15902 0.0
C22 C 0.99776 0.82814 0.23864 0.0
N23 N 1.01254 0.73393 0.28204 0.0
H24 H 0.77264 1.00564 0.45376 0.0
H25 H 0.79797 1.01638 0.13283 0.0
H26 H 0.70457 0.02195 0.2223 0.0
H27 H 0.83427 0.96552 0.23579 0.0
C28 C 0.84088 0.98885 0.2522 0.0
C29 C 0.76625 1.00913 0.37397 0.0
C30 C 0.73504 1.01347 0.34863 0.0
C31 C 0.78917 1.00958 0.29485 0.0
C32 C 0.78071 1.01486 0.1927 0.0
C33 C 0.75052 1.01962 0.16734 0.0
C34 C 0.72795 1.01837 0.2442 0.0
N35 N 0.82089 1.00721 0.31656 0.0
H36 H 0.52953 0.78899 0.37805 0.0
H37 H 0.59487 0.80381 0.13397 0.0
H38 H 0.5931 0.71912 0.28859 0.0
H39 H 0.59284 0.85435 0.25614 0.0
C40 C 0.57018 0.85563 0.22394 0.0
C41 C 0.5488 0.78128 0.33193 0.0
C42 C 0.56115 0.75188 0.34661 0.0
C43 C 0.56205 0.80087 0.25821 0.0
C44 C 0.58616 0.78996 0.1954 0.0
C45 C 0.59734 0.76046 0.20489 0.0
C46 C 0.58542 0.74237 0.28314 0.0
N47 N 0.55025 0.83067 0.24116 0.0
H48 H 0.287 0.51529 0.98766 0.0
H49 H 0.30074 0.47505 0.28598 0.0
H50 H 0.21325 0.47233 0.14511 0.0
H51 H 0.32902 0.53772 0.26522 0.0
C52 C 0.34245 0.52014 0.22582 0.0
C53 C 0.27827 0.50281 0.05238 0.0
C54 C 0.24725 0.49369 0.05345 0.0
C55 C 0.29782 0.49603 0.13711 0.0
C56 C 0.28624 0.48002 0.22099 0.0
C57 C 0.25618 0.47036 0.2218 0.0
C58 C 0.23713 0.47766 0.1392 0.0
N59 N 0.32924 0.5042 0.13851 0.0
H60 H 0.03749 0.27436 0.01506 0.0
H61 H 0.04111 0.28194 0.35013 0.0
H62 H 0.03684 0.19445 0.20017 0.0
H63 H 0.07424 0.32174 0.30864 0.0
C64 C 0.05672 0.33293 0.26473 0.0
C65 C 0.03914 0.2639 0.08979 0.0
C66 C 0.03811 0.2315 0.09551 0.0
C67 C 0.04179 0.28261 0.18253 0.0
C68 C 0.04151 0.26841 0.27853 0.0
C69 C 0.03973 0.237 0.28477 0.0
C70 C 0.03915 0.21881 0.19393 0.0
N71 N 0.04235 0.31538 0.18229 0.0
H72 H 0.27452 0.02507 0.96673 0.0
H73 H 0.25388 0.08514 0.22755 0.0
H74 H 0.34493 0.0778 0.11032 0.0
H75 H 0.20293 0.08448 0.11512 0.0
C76 C 0.20435 0.0612 0.13984 0.0
C77 C 0.28137 0.04279 0.02153 0.0
C78 C 0.31204 0.05275 0.0227 0.0
C79 C 0.25977 0.05543 0.09365 0.0
C80 C 0.26964 0.07694 0.16821 0.0
C81 C 0.30056 0.08321 0.18032 0.0
C82 C 0.32095 0.07317 0.10209 0.0
N83 N 0.22977 0.04323 0.10374 0.0
H84 H 0.52037 0.27792 0.9622 0.0
H85 H 0.47276 0.27767 0.25575 0.0
H86 H 0.46713 0.35492 0.06396 0.0
H87 H 0.46192 0.22245 0.15839 0.0
C88 C 0.48622 0.22014 0.16882 0.0
C89 C 0.50459 0.28852 0.01688 0.0
C90 C 0.49354 0.31823 0.99942 0.0
C91 C 0.49491 0.2726 0.10589 0.0
C92 C 0.47701 0.28798 0.18179 0.0
C93 C 0.46736 0.31781 0.16715 0.0
C94 C 0.47375 0.33145 0.07289 0.0
N95 N 0.50554 0.24255 0.12513 0.0
Eu96 Eu 0.05729 0.01997 0.80071 0.0
C97 C 0.97519 0.97666 0.48714 0.0
C98 C 0.98694 0.9874 0.30817 0.0
C99 C 0.96627 0.93841 0.35056 0.0
C100 C 0.9861 0.99622 0.41449 0.0
C101 C 0.96409 0.94789 0.4554 0.0
C102 C 0.97808 0.958 0.27729 0.0
C103 C 0.9497 0.93981 0.63324 0.0
N104 N 0.97487 0.98594 0.58862 0.0
C105 C 0.96179 0.96811 0.66135 0.0
C106 C 0.95113 0.92949 0.52996 0.0
Eu107 Eu 0.99499 0.03495 0.63 0.0
N108 N 0.99457 0.02438 0.44706 0.0
C109 C 1.00084 0.04592 0.37568 0.0
C110 C 0.99595 1.00863 0.23588 0.0
C111 C 1.00227 0.03822 0.2697 0.0
H112 H 0.96065 0.97518 0.74167 0.0
H113 H 1.00826 0.05508 0.21433 0.0
H114 H 0.97965 0.95043 0.19672 0.0
H115 H 0.9397 0.92578 0.69171 0.0
H116 H 1.00575 0.06895 0.40125 0.0
H117 H 1.01218 0.09915 0.10453 0.0
H118 H 0.9972 1.00272 0.15376 0.0
H119 H 0.12831 1.01608 0.70271 0.0
H120 H 1.00989 0.05796 0.97612 0.0
H121 H 0.17687 0.04294 0.71897 0.0
H122 H 0.95869 0.91607 0.32529 0.0
H123 H 0.05974 0.12704 0.13342 0.0
H124 H 0.11375 0.13499 0.08557 0.0
H125 H 0.94225 0.90733 0.50869 0.0
H126 H 0.15803 0.12061 0.97862 0.0
N127 N 0.05623 0.06082 0.92848 0.0
C128 C 0.03127 0.0688 0.9871 0.0
C129 C 0.05912 0.10844 0.07656 0.0
C130 C 0.08464 0.10046 0.01734 0.0
C131 C 0.0323 0.09266 0.0608 0.0
C132 C 0.08255 0.07632 0.94283 0.0
H133 H 0.18162 0.0867 0.84195 0.0
N134 N 0.10474 0.04567 0.80959 0.0
C135 C 0.15745 0.05069 0.76419 0.0
C136 C 0.10735 0.0687 0.8811 0.0
C137 C 0.12973 0.03581 0.75424 0.0
C138 C 0.16004 0.07529 0.83383 0.0
C139 C 0.13501 0.08438 0.89417 0.0
O140 O 0.09529 0.99909 0.88127 0.0
O141 O 0.02396 0.99747 0.68942 0.0
O142 O 0.97466 0.02576 0.78916 0.0
O143 O 1.01414 1.00947 0.89363 0.0
O144 O 0.06956 0.987 0.66787 0.0
O145 O 0.05103 0.97978 0.89326 0.0
O146 O 0.95014 0.04489 0.69626 0.0
O147 O 0.0236 0.05529 0.7589 0.0
O148 O 0.07848 0.03451 0.6466 0.0
O149 O 0.03832 0.04253 0.534 0.0
O150 O 1.01562 0.08234 0.63426 0.0
O151 O 0.96287 0.06415 0.55161 0.0
C152 C 0.04254 0.98091 0.63641 0.0
C153 C 0.09088 0.94625 0.85136 0.0
C154 C 0.07685 0.89529 0.79148 0.0
C155 C 0.0727 0.92066 0.85881 0.0
C156 C 0.10113 0.89498 0.72055 0.0
C157 C 0.11549 0.94541 0.78126 0.0
C158 C 0.12059 0.91981 0.71676 0.0
C159 C 0.98496 1.01465 0.87637 0.0
C160 C 0.07999 0.97493 0.90073 0.0
C161 C 0.13703 0.10832 0.96785 0.0
C162 C 0.11188 0.1164 0.02908 0.0
C163 C 0.02895 0.0813 0.72292 0.0
C164 C 0.93666 0.09574 0.67441 0.0
C165 C 0.95227 0.1211 0.6399 0.0
C166 C 0.94943 0.14943 0.69139 0.0
C167 C 0.9291 0.15276 0.77517 0.0
C168 C 0.91664 0.09926 0.75913 0.0
C169 C 0.91273 0.12772 0.80855 0.0
C170 C 0.06771 0.04138 0.55441 0.0
C171 C 0.94395 0.06538 0.62945 0.0
H172 H 0.05451 0.92111 0.91578 0.0
H173 H 0.10498 0.8757 0.6681 0.0
H174 H 0.13004 0.96486 0.77314 0.0
H175 H 0.13925 0.91954 0.66184 0.0
H176 H 0.96721 0.11874 0.57307 0.0
H177 H 0.92627 0.17446 0.81561 0.0
H178 H 0.90452 0.07995 0.78817 0.0
H179 H 0.89735 0.13026 0.87404 0.0
Eu180 Eu 0.53019 0.05745 0.75895 0.0
C181 C 0.56506 0.95661 0.49389 0.0
C182 C 0.59412 0.98252 0.36401 0.0
C183 C 0.61149 0.9339 0.42364 0.0
C184 C 0.56911 0.9814 0.43292 0.0
C185 C 0.58559 0.93199 0.48672 0.0
C186 C 0.61573 0.95913 0.36216 0.0
C187 C 0.55145 0.90373 0.5932 0.0
N188 N 0.53984 0.95552 0.55416 0.0
C189 C 0.53183 0.92865 0.59745 0.0
C190 C 0.57885 0.90566 0.53967 0.0
Eu191 Eu 0.5092 1.00051 0.56826 0.0
N192 N 0.54808 1.00395 0.43822 0.0
C193 C 0.54963 0.02693 0.36945 0.0
C194 C 0.5966 1.007 0.29843 0.0
C195 C 0.5741 0.02915 0.3006 0.0
H196 H 0.51027 0.92643 0.63664 0.0
H197 H 0.57535 0.04783 0.24821 0.0
H198 H 0.63534 0.95995 0.31135 0.0
H199 H 0.54529 0.88298 0.63055 0.0
H200 H 0.53202 0.04356 0.36474 0.0
H201 H 0.52875 0.02139 0.16398 0.0
H202 H 0.61546 1.00872 0.24473 0.0
H203 H 0.48748 0.11396 0.66205 0.0
H204 H 0.55252 0.03321 0.99722 0.0
H205 H 0.44108 0.14216 0.70262 0.0
H206 H 0.62776 0.91548 0.41871 0.0
H207 H 0.47723 0.03992 0.2066 0.0
H208 H 0.43242 0.07109 0.15583 0.0
H209 H 0.59396 0.88626 0.53577 0.0
H210 H 0.40898 0.10509 0.03138 0.0
N211 N 0.51236 0.05246 0.93467 0.0
C212 C 0.52924 0.0399 1.0115 0.0
C213 C 0.48697 0.04395 0.1308 0.0
C214 C 0.47133 0.06054 0.05757 0.0
C215 C 0.51622 0.03388 0.10781 0.0
C216 C 0.48479 0.06442 0.95894 0.0
H217 H 0.41277 0.13278 0.86462 0.0
N218 N 0.48541 0.08663 0.79582 0.0
C219 C 0.44904 0.12521 0.75508 0.0
C220 C 0.47132 0.08285 0.88843 0.0
C221 C 0.47532 0.10855 0.73139 0.0
C222 C 0.43322 0.11997 0.84669 0.0
C223 C 0.44443 0.09881 0.91534 0.0
O224 O 0.54736 0.10191 0.71768 0.0
O225 O 0.54732 0.03098 0.61808 0.0
O226 O 0.51706 0.97587 0.71823 0.0
O227 O 0.53749 1.01122 0.83436 0.0
O228 O 0.57445 0.03088 0.74739 0.0
O229 O 0.56188 0.08232 0.85936 0.0
O230 O 0.4851 0.96232 0.49468 0.0
O231 O 0.48999 0.03523 0.68404 0.0
O232 O 0.52562 0.07989 0.60149 0.0
O233 O 0.49653 0.04628 0.50305 0.0
O234 O 0.47473 0.99132 0.69565 0.0
O235 O 0.47336 1.00752 0.45469 0.0
C236 C 0.57315 0.02251 0.6505 0.0
C237 C 0.59902 0.10548 0.75445 0.0
C238 C 0.64991 0.08389 0.74374 0.0
C239 C 0.62107 0.08547 0.78961 0.0
C240 C 0.65729 0.1038 0.66466 0.0
C241 C 0.6066 0.12523 0.67484 0.0
C242 C 0.63566 0.12447 0.63073 0.0
C243 C 0.52906 0.98324 0.80895 0.0
C244 C 0.56739 0.10268 0.79074 0.0
C245 C 0.43001 0.09364 1.01061 0.0
C246 C 0.44332 0.07428 0.08133 0.0
C247 C 0.47093 1.01876 0.73067 0.0
C248 C 0.4334 0.97594 0.50509 0.0
C249 C 0.41182 0.99891 0.49356 0.0
C250 C 0.38616 1.00119 0.55908 0.0
C251 C 0.3818 0.9791 0.63413 0.0
C252 C 0.42781 0.95338 0.57775 0.0
C253 C 0.40221 0.95508 0.6418 0.0
C254 C 0.50829 0.0735 0.5203 0.0
C255 C 0.46402 0.9797 0.45961 0.0
H256 H 0.61567 0.07062 0.85253 0.0
H257 H 0.67952 0.10316 0.62872 0.0
H258 H 0.58985 0.14067 0.64509 0.0
H259 H 0.64128 0.13959 0.56893 0.0
H260 H 0.41567 1.01547 0.4346 0.0
H261 H 0.3627 0.98032 0.68718 0.0
H262 H 0.44404 0.93537 0.58944 0.0
H263 H 0.39862 0.93816 0.69966 0.0
Eu264 Eu 0.5593 0.52233 0.59899 0.0
C265 C 0.43345 0.5205 0.78997 0.0
C266 C 0.40033 0.54883 0.67964 0.0
C267 C 0.381 0.50507 0.76833 0.0
C268 C 0.42926 0.54359 0.72171 0.0
C269 C 0.40902 0.50182 0.8178 0.0
C270 C 0.37666 0.52856 0.69911 0.0
C271 C 0.44013 0.48192 0.95371 0.0
N272 N 0.46052 0.51859 0.83816 0.0
C273 C 0.46354 0.50109 0.92379 0.0
C274 C 0.41297 0.48175 0.89881 0.0
Eu275 Eu 0.50049 0.54931 0.77446 0.0
N276 N 0.45238 0.56326 0.7075 0.0
C277 C 0.4467 0.59074 0.66519 0.0
C278 C 0.39547 0.57544 0.62589 0.0
C279 C 0.41847 0.59695 0.62177 0.0
H280 H 0.48468 0.50089 0.9654 0.0
H281 H 0.41447 0.61836 0.58536 0.0
H282 H 0.35447 0.5319 0.66584 0.0
H283 H 0.44309 0.46729 0.01888 0.0
H284 H 0.46373 0.60814 0.66394 0.0
H285 H 0.58352 0.39953 0.57574 0.0
H286 H 0.37358 0.58037 0.5927 0.0
H287 H 0.61377 0.57723 0.6194 0.0
H288 H 0.55502 0.44593 0.54037 0.0
H289 H 0.66348 0.58396 0.69888 0.0
H290 H 0.3621 0.4906 0.78721 0.0
H291 H 0.63025 0.40237 0.68012 0.0
H292 H 0.66963 0.43429 0.76866 0.0
H293 H 0.39474 0.46708 0.92263 0.0
H294 H 0.69124 0.48471 0.80388 0.0
N295 N 0.58566 0.47544 0.62092 0.0
C296 C 0.57624 0.44783 0.58106 0.0
C297 C 0.61813 0.42299 0.66294 0.0
C298 C 0.62912 0.45134 0.69591 0.0
C299 C 0.59194 0.4213 0.60327 0.0
C300 C 0.61248 0.47758 0.67185 0.0
H301 H 0.68963 0.54045 0.7752 0.0
N302 N 0.60941 0.53088 0.65975 0.0
C303 C 0.6526 0.56203 0.69934 0.0
C304 C 0.62467 0.50608 0.69182 0.0
C305 C 0.62382 0.55821 0.65643 0.0
C306 C 0.66731 0.53742 0.74202 0.0
C307 C 0.6538 0.50884 0.73597 0.0
O308 O 0.55433 0.5456 0.4519 0.0
O309 O 0.51083 0.53775 0.6083 0.0
O310 O 0.49597 0.49787 0.75342 0.0
O311 O 0.54374 0.48281 0.69816 0.0
O312 O 0.51856 0.49775 0.52543 0.0
O313 O 0.58862 0.51165 0.46476 0.0
O314 O 0.4853 0.56481 0.92918 0.0
O315 O 0.55138 0.54382 0.75517 0.0
O316 O 0.5618 0.5738 0.62934 0.0
O317 O 0.51144 0.58527 0.65414 0.0
O318 O 0.53249 0.52716 0.88825 0.0
O319 O 0.50902 0.59554 0.8321 0.0
C320 C 0.4981 0.51757 0.55189 0.0
C321 C 0.5593 0.51103 0.31272 0.0
C322 C 0.52879 0.46751 0.25798 0.0
C323 C 0.54886 0.48162 0.32734 0.0
C324 C 0.52039 0.48278 0.16839 0.0
C325 C 0.55159 0.52569 0.22179 0.0
C326 C 0.53215 0.51159 0.14997 0.0
C327 C 0.51694 0.47674 0.73832 0.0
C328 C 0.57289 0.52768 0.40139 0.0
C329 C 0.66918 0.4829 0.76787 0.0
C330 C 0.65687 0.45419 0.74781 0.0
C331 C 0.55753 0.5313 0.83963 0.0
C332 C 0.51971 0.5979 1.01238 0.0
C333 C 0.54865 0.61002 0.99479 0.0
C334 C 0.56725 0.61885 0.07849 0.0
C335 C 0.55702 0.61381 0.18047 0.0
C336 C 0.50994 0.5934 0.11464 0.0
C337 C 0.52861 0.60115 0.19807 0.0
C338 C 0.53904 0.59342 0.62589 0.0
C339 C 0.49926 0.59049 0.92523 0.0
H340 H 0.55496 0.47033 0.39681 0.0
H341 H 0.50509 0.47236 0.1126 0.0
H342 H 0.55986 0.54823 0.20824 0.0
H343 H 0.52551 0.52342 0.08161 0.0
H344 H 0.5563 0.61367 0.91607 0.0
H345 H 0.57019 0.62107 0.2473 0.0
H346 H 0.48777 0.58404 0.13003 0.0
H347 H 0.52086 0.59779 0.27682 0.0
Eu348 Eu 0.0393 0.55524 0.61976 0.0
C349 C 0.02996 0.43488 0.8724 0.0
C350 C 1.00674 0.39919 0.75088 0.0
C351 C 0.03825 0.38064 0.88913 0.0
C352 C 1.01175 0.4294 0.78659 0.0
C353 C 0.04294 0.41049 0.92553 0.0
C354 C 0.02031 0.37502 0.80178 0.0
C355 C 0.06312 0.44658 0.05095 0.0
N356 N 0.03431 0.46389 0.90621 0.0
C357 C 0.05021 0.47 0.99544 0.0
C358 C 0.05979 0.41671 0.01519 0.0
Eu359 Eu 1.01109 0.50279 0.8108 0.0
N360 N 0.99875 0.4533 0.73876 0.0
C361 C 0.97986 0.44779 0.65593 0.0
C362 C 0.98804 0.39394 0.66536 0.0
C363 C 0.97447 0.41833 0.61814 0.0
H364 H 0.05291 0.49311 0.02364 0.0
H365 H 0.96006 0.41452 0.55135 0.0
H366 H 1.01672 0.35181 0.77494 0.0
H367 H 0.07544 0.45147 0.12164 0.0
H368 H 0.96966 0.46556 0.61318 0.0
H369 H 0.11003 0.62759 0.87448 0.0
H370 H 0.98385 0.37115 0.63542 0.0
H371 H 0.98766 0.58084 0.44549 0.0
H372 H 0.09693 0.58216 0.77322 0.0
H373 H 0.9548 0.62501 0.42334 0.0
H374 H 0.04814 0.36171 0.92872 0.0
H375 H 0.07687 0.67272 0.87275 0.0
H376 H 0.03097 0.69813 0.80289 0.0
H377 H 0.06986 0.39859 0.05839 0.0
H378 H 0.9881 0.69714 0.6821 0.0
N379 N 0.05563 0.59987 0.71421 0.0
C380 C 0.08179 0.6011 0.77071 0.0
C381 C 0.07086 0.65259 0.82734 0.0
C382 C 0.04501 0.65197 0.76543 0.0
C383 C 0.08959 0.62718 0.82855 0.0
C384 C 0.0381 0.62508 0.70795 0.0
H385 H 0.95972 0.67017 0.53974 0.0
N386 N 1.00898 0.59885 0.58264 0.0
C387 C 0.97101 0.62508 0.48581 0.0
C388 C 1.01382 0.62442 0.64115 0.0
C389 C 0.98945 0.59981 0.50021 0.0
C390 C 0.97383 0.65046 0.55177 0.0
C391 C 0.99604 0.65075 0.62855 0.0
O392 O 0.04619 0.56788 0.45882 0.0
O393 O 0.03507 0.50614 0.65781 0.0
O394 O 0.06263 0.49944 0.81772 0.0
O395 O 0.08099 0.53621 0.70713 0.0
O396 O 0.0274 0.51652 0.50554 0.0
O397 O 0.08486 0.55953 0.55595 0.0
O398 O 0.99172 0.49205 0.96237 0.0
O399 O 1.01764 0.55199 0.77632 0.0
O400 O 0.98935 0.5465 0.58552 0.0
O401 O 0.97139 0.51055 0.69948 0.0
O402 O 0.03381 0.53812 0.91695 0.0
O403 O 0.96766 0.52203 0.8632 0.0
C404 C 0.02915 0.49449 0.56865 0.0
C405 C 0.08637 0.54078 0.38207 0.0
C406 C 0.11203 0.49327 0.33564 0.0
C407 C 0.10054 0.51382 0.41116 0.0
C408 C 0.10731 0.49911 0.22992 0.0
C409 C 0.08184 0.54619 0.27654 0.0
C410 C 0.09191 0.52517 0.2009 0.0
C411 C 0.08526 0.51496 0.77715 0.0
C412 C 0.07511 0.56267 0.46143 0.0
C413 C 1.00181 0.67692 0.68967 0.0
C414 C 0.02627 0.67753 0.75807 0.0
C415 C 0.02874 0.56152 0.86206 0.0
C416 C 0.97043 0.53679 0.04032 0.0
C417 C 0.94804 0.55938 0.03902 0.0
C418 C 0.94976 0.58579 0.10403 0.0
C419 C 0.97449 0.5883 0.17278 0.0
C420 C 0.99397 0.53949 0.11287 0.0
C421 C 0.99588 0.56509 0.17841 0.0
C422 C 0.96765 0.52875 0.62026 0.0
C423 C 0.9708 0.5127 0.9575 0.0
H424 H 0.10378 0.50928 0.49263 0.0
H425 H 0.11698 0.48446 0.16933 0.0
H426 H 0.07065 0.56671 0.25277 0.0
H427 H 0.08875 0.52962 0.11945 0.0
H428 H 0.9294 0.55578 0.98628 0.0
H429 H 0.97781 0.6081 0.2226 0.0
H430 H 1.01152 0.5224 0.11673 0.0
H431 H 1.01444 0.56731 0.23254 0.0
H432 H 0.14905 0.0861 0.1786 0.0
H433 H 0.20716 1.01409 0.27718 0.0
H434 H 0.1706 1.00201 0.41444 0.0
H435 H 0.12232 1.01307 0.5107 0.0
H436 H 0.063 0.08299 0.40246 0.0
H437 H 0.09933 0.09447 0.26495 0.0
C438 C 0.1535 0.06743 0.22899 0.0
C439 C 0.18089 0.05097 0.21661 0.0
C440 C 0.13207 0.06035 0.30685 0.0
C441 C 0.18629 0.02699 0.2836 0.0
C442 C 0.16537 0.02021 0.36277 0.0
C443 C 0.1174 0.03091 0.45728 0.0
C444 C 0.08993 0.04745 0.46852 0.0
C445 C 0.13828 0.03695 0.37605 0.0
C446 C 0.08377 0.06992 0.39639 0.0
C447 C 0.10465 0.07653 0.31753 0.0
H448 H 0.45643 0.16791 0.20266 0.0
H449 H 0.54029 0.21333 0.27332 0.0
H450 H 0.55458 0.17226 0.38832 0.0
H451 H 0.54198 0.12413 0.47562 0.0
H452 H 0.45911 0.07789 0.39466 0.0
H453 H 0.4458 0.11831 0.27779 0.0
C454 C 0.47802 0.16867 0.24237 0.0
C455 C 0.49722 0.19378 0.22927 0.0
C456 C 0.48618 0.14478 0.30744 0.0
C457 C 0.52515 0.19428 0.28113 0.0
C458 C 0.53322 0.17083 0.34755 0.0
C459 C 0.52105 0.12287 0.43214 0.0
C460 C 0.50146 0.09794 0.44524 0.0
C461 C 0.51374 0.14609 0.36253 0.0
C462 C 0.47466 0.09662 0.38672 0.0
C463 C 0.46699 0.11981 0.31964 0.0
H464 H 0.38284 0.56112 0.30171 0.0
H465 H 0.37105 0.46509 0.25108 0.0
H466 H 0.41742 0.45542 0.35016 0.0
H467 H 0.4605 0.47464 0.45992 0.0
H468 H 0.47507 0.57087 0.48715 0.0
H469 H 0.42916 0.58009 0.38814 0.0
C470 C 0.39072 0.53805 0.31059 0.0
C471 C 0.37339 0.51389 0.26853 0.0
C472 C 0.41781 0.53272 0.36552 0.0
C473 C 0.38403 0.48415 0.28112 0.0
C474 C 0.41048 0.47863 0.33871 0.0
C475 C 0.45337 0.49762 0.44511 0.0
C476 C 0.47007 0.52222 0.48856 0.0
C477 C 0.42736 0.50274 0.38308 0.0
C478 C 0.46146 0.55167 0.4625 0.0
C479 C 0.43545 0.55693 0.40376 0.0
H480 H 0.07373 0.36044 0.44558 0.0
H481 H 1.0188 0.37589 0.17678 0.0
H482 H 1.00551 0.42666 0.24785 0.0
H483 H 1.00971 0.46703 0.38759 0.0
H484 H 0.06447 0.45061 0.65619 0.0
H485 H 0.07722 0.39997 0.58531 0.0
C486 C 0.05873 0.37485 0.40236 0.0
C487 C 0.0473 0.36408 0.30541 0.0
C488 C 0.05095 0.40388 0.44463 0.0
C489 C 0.02787 0.38324 0.25127 0.0
C490 C 0.0203 0.41237 0.29221 0.0
C491 C 0.02427 0.45225 0.43103 0.0
C492 C 0.03557 0.46262 0.52884 0.0
C493 C 0.03166 0.42297 0.38899 0.0
C494 C 0.05484 0.44323 0.58259 0.0
C495 C 0.06231 0.41425 0.5414 0.0
H496 H 0.88766 0.95544 0.17295 0.0
H497 H 0.85582 0.04764 0.20157 0.0
H498 H 0.89776 0.064 0.09016 0.0
H499 H 0.94222 0.05135 0.97447 0.0
H500 H 0.97511 0.95934 0.95611 0.0
H501 H 0.93407 0.94362 0.07127 0.0
C502 C 0.89011 0.97922 0.15602 0.0
C503 C 0.86846 1.00025 0.19614 0.0
C504 C 0.91448 0.98845 0.09243 0.0
C505 C 0.87213 0.03096 0.17307 0.0
C506 C 0.89609 0.04028 0.10853 0.0
C507 C 0.94064 0.02796 0.99729 0.0
C508 C 0.96193 1.00653 0.95683 0.0
C509 C 0.91724 1.01917 0.06643 0.0
C510 C 0.95938 0.97632 0.98669 0.0
C511 C 0.93576 0.96731 0.05232 0.0
H512 H 0.52406 0.8647 0.08067 0.0
H513 H 0.60141 0.90762 0.22277 0.0
H514 H 0.59476 0.95185 0.11591 0.0
H515 H 0.56911 0.9774 0.97189 0.0
H516 H 0.49368 0.93304 0.82139 0.0
H517 H 0.49765 0.89089 0.93858 0.0
C518 C 0.53914 0.88391 0.08919 0.0
C519 C 0.56291 0.88296 0.16172 0.0
C520 C 0.53588 0.90909 0.02376 0.0
C521 C 0.58258 0.90794 0.1695 0.0
C522 C 0.57896 0.93323 0.10744 0.0
C523 C 0.55337 0.95867 0.96532 0.0
C524 C 0.53133 0.95854 0.88645 0.0
C525 C 0.55598 0.93397 0.03287 0.0
C526 C 0.51129 0.93375 0.87956 0.0
C527 C 0.5134 0.90954 0.94728 0.0
H528 H 0.67095 0.5118 0.13585 0.0
H529 H 0.68643 0.6046 0.05586 0.0
H530 H 0.64393 0.6027 0.93624 0.0
H531 H 0.59938 0.57649 0.86333 0.0
H532 H 0.58127 0.4847 0.9466 0.0
H533 H 0.62679 0.48443 0.05514 0.0
C534 C 0.66531 0.53137 0.09085 0.0
C535 C 0.68228 0.55828 0.10472 0.0
C536 C 0.63982 0.53049 0.02324 0.0
C537 C 0.67403 0.58355 0.04684 0.0
C538 C 0.64951 0.58259 0.97851 0.0
C539 C 0.60581 0.5562 0.90331 0.0
C540 C 0.58737 0.53033 0.89402 0.0
C541 C 0.6318 0.55645 0.96739 0.0
C542 C 0.59542 0.50469 0.95023 0.0
C543 C 0.62146 0.50459 1.01286 0.0
H544 H 0.97029 0.68231 0.059 0.0
H545 H 0.04834 0.67851 0.25706 0.0
H546 H 0.06573 0.63225 0.16217 0.0
H547 H 0.05774 0.59167 0.0241 0.0
H548 H 0.97995 0.59768 0.82509 0.0
H549 H 0.96379 0.64416 0.91753 0.0
C550 C 0.99131 0.67156 0.08115 0.0
C551 C 1.00793 0.68408 0.16567 0.0
C552 C 1.00135 0.64532 0.02494 0.0
C553 C 0.03509 0.66967 0.19257 0.0
C554 C 0.04499 0.6431 0.13813 0.0
C555 C 0.03746 0.60341 1.00025 0.0
C556 C 0.02048 0.59131 0.91552 0.0
C557 C 0.02824 0.63056 0.05428 0.0
C558 C 0.9939 0.60661 0.88766 0.0
C559 C 0.98455 0.63324 0.94109 0.0
H560 H 0.99478 0.25303 0.41724 0.0
H561 H 0.06887 0.18991 0.37419 0.0
H562 H 0.05045 0.16076 0.52044 0.0
H563 H 1.00844 0.14845 0.63437 0.0
H564 H 0.9307 0.20766 0.66023 0.0
H565 H 0.95603 0.24416 0.5503 0.0
C566 C 1.00738 0.23343 0.44223 0.0
C567 C 0.03298 0.22338 0.38541 0.0
C568 C 0.99587 0.21616 0.5227 0.0
C569 C 0.049 0.1978 0.41695 0.0
C570 C 0.03845 0.18119 0.50011 0.0
C571 C 0.99729 0.16965 0.61796 0.0
C572 C 0.96746 0.17503 0.65302 0.0
C573 C 1.01114 0.1894 0.54982 0.0
C574 C 0.95357 0.20289 0.63341 0.0
C575 C 0.9679 0.22357 0.56955 0.0
H576 H 0.27847 0.06194 0.3608 0.0
H577 H 0.35062 0.11701 0.24172 0.0
H578 H 0.38339 0.10119 0.38245 0.0
H579 H 0.39547 0.05951 0.49768 0.0
H580 H 0.32453 0.99791 0.58561 0.0
H581 H 0.28725 0.02956 0.50438 0.0
C582 C 0.30083 0.07182 0.36746 0.0
C583 C 0.31266 0.08922 0.28677 0.0
C584 C 0.32017 0.06065 0.44279 0.0
C585 C 0.34136 0.1025 0.30027 0.0
C586 C 0.36023 0.09316 0.38016 0.0
C587 C 0.37181 0.05306 0.49974 0.0
C588 C 0.3632 0.0253 0.54247 0.0
C589 C 0.35068 0.06999 0.44499 0.0
C590 C 0.33219 1.01863 0.55137 0.0
C591 C 0.31073 0.03666 0.50381 0.0
H592 H 0.50483 0.33031 0.324 0.0
H593 H 0.41782 0.35516 0.20528 0.0
H594 H 0.42954 0.40879 0.23379 0.0
H595 H 0.47053 0.44715 0.23988 0.0
H596 H 0.56005 0.41987 0.3338 0.0
H597 H 0.542 0.36905 0.36479 0.0
C598 C 0.48773 0.34744 0.31022 0.0
C599 C 0.46146 0.33911 0.25591 0.0
C600 C 0.49612 0.37802 0.31568 0.0
C601 C 0.43877 0.36121 0.24388 0.0
C602 C 0.44594 0.39197 0.25663 0.0
C603 C 0.48598 0.43006 0.26749 0.0
C604 C 0.51675 0.43714 0.28197 0.0
C605 C 0.47561 0.40044 0.28287 0.0
C606 C 0.53631 0.41504 0.32107 0.0
C607 C 0.526 0.38592 0.33927 0.0
H608 H 0.22141 0.41989 0.23318 0.0
H609 H 0.25812 0.4927 0.42177 0.0
H610 H 0.21032 0.49818 0.51516 0.0
H611 H 0.1564 0.49927 0.47832 0.0
H612 H 0.11829 0.43475 0.25791 0.0
H613 H 0.16718 0.40903 0.24137 0.0
C614 C 0.2193 0.43566 0.2992 0.0
C615 C 0.24203 0.45753 0.31531 0.0
C616 C 0.19053 0.44136 0.34211 0.0
C617 C 0.24025 0.47662 0.40431 0.0
C618 C 0.21256 0.48026 0.45615 0.0
C619 C 0.15825 0.47862 0.43086 0.0
C620 C 0.13433 0.46986 0.36485 0.0
C621 C 0.18688 0.46552 0.41587 0.0
C622 C 0.13689 0.44265 0.30591 0.0
C623 C 0.1649 0.428 0.29631 0.0
H624 H 0.02705 0.78541 1.00132 0.0
H625 H 0.9567 0.85071 0.07561 0.0
H626 H 0.97277 0.88115 0.92997 0.0
H627 H 1.01628 0.89627 0.82788 0.0
H628 H 0.09172 0.8349 0.78015 0.0
H629 H 0.06355 0.7951 0.86443 0.0
C630 C 1.01421 0.80549 0.98251 0.0
C631 C 0.99142 0.81649 0.05069 0.0
C632 C 0.02509 0.82387 0.90445 0.0
C633 C 0.97478 0.84232 0.02514 0.0
C634 C 0.98416 0.85979 0.9426 0.0
C635 C 0.0263 0.87395 0.83342 0.0
C636 C 0.05656 0.86897 0.8024 0.0
C637 C 1.01094 0.85208 0.88875 0.0
C638 C 0.06869 0.83957 0.80531 0.0
C639 C 0.05268 0.81687 0.85457 0.0
H640 H 0.70881 0.99432 0.04031 0.0
H641 H 0.77435 0.06624 0.06142 0.0
H642 H 0.75263 0.08956 0.90886 0.0
H643 H 0.70814 0.09512 0.79719 0.0
H644 H 0.64059 0.02486 0.78845 0.0
H645 H 0.67037 0.9947 0.90471 0.0
C646 C 0.71871 1.01466 1.00947 0.0
C647 C 0.74252 0.029 0.06232 0.0
C648 C 0.70565 0.02828 0.92395 0.0
C649 C 0.75575 0.05503 0.02169 0.0
C650 C 0.74325 0.06844 0.93502 0.0
C651 C 0.70061 0.07269 0.81752 0.0
C652 C 0.67212 0.06234 0.78505 0.0
C653 C 0.71716 0.05613 0.88919 0.0
C654 C 0.66251 0.03326 0.81209 0.0
C655 C 0.67935 1.01615 0.87989 0.0
H656 H 0.64572 0.72145 0.21744 0.0
H657 H 0.58855 0.76385 0.99487 0.0
H658 H 0.58259 0.71591 0.90061 0.0
H659 H 0.57303 0.66299 0.93714 0.0
H660 H 0.62166 0.62004 0.18269 0.0
H661 H 0.65107 0.66609 0.21303 0.0
C662 C 0.63341 0.72036 0.14474 0.0
C663 C 0.61493 0.7451 0.11927 0.0
C664 C 0.62684 0.69186 0.09931 0.0
C665 C 0.60129 0.74451 0.02081 0.0
C666 C 0.59722 0.71677 0.96792 0.0
C667 C 0.5911 0.66294 0.99373 0.0
C668 C 0.59386 0.63878 0.06203 0.0
C669 C 0.6065 0.69007 0.01499 0.0
C670 C 0.61802 0.63902 0.1328 0.0
C671 C 0.63489 0.66537 0.15008 0.0
H672 H 0.83238 0.64018 0.26897 0.0
H673 H 0.80273 0.59048 0.99632 0.0
H674 H 0.85213 0.59683 0.91533 0.0
H675 H 0.90623 0.59699 0.95413 0.0
H676 H 0.93558 0.63026 0.25639 0.0
H677 H 0.88607 0.65095 0.29084 0.0
C678 C 0.83643 0.63216 0.18954 0.0
C679 C 0.81508 0.61273 0.14222 0.0
C680 C 0.86618 0.63151 0.15107 0.0
C681 C 0.81941 0.60419 0.03708 0.0
C682 C 0.84806 0.60713 0.99165 0.0
C683 C 0.90199 0.60819 0.0287 0.0
C684 C 0.92435 0.60865 0.10681 0.0
C685 C 0.87229 0.61723 0.05355 0.0
C686 C 0.91893 0.6272 0.19634 0.0
C687 C 0.89021 0.6393 0.21675 0.0
H688 H 0.07718 0.20236 0.95347 0.0
H689 H 0.98352 0.20793 0.04708 0.0
H690 H 0.97266 0.16129 0.94755 0.0
H691 H 0.99021 0.11632 0.84296 0.0
H692 H 0.08217 0.11298 0.73148 0.0
H693 H 0.09318 0.16076 0.82668 0.0
C694 C 0.05414 0.19411 0.94844 0.0
C695 C 0.03104 0.2095 1.00647 0.0
C696 C 0.04787 0.16696 0.88936 0.0
C697 C 1.00158 0.19742 1.0013 0.0
C698 C 0.99541 0.17034 0.94527 0.0
C699 C 1.01271 0.12601 0.83995 0.0
C700 C 0.03579 0.11007 0.78434 0.0
C701 C 1.01846 0.15443 0.89101 0.0
C702 C 0.06434 0.12391 0.77717 0.0
C703 C 0.07053 0.15152 0.83088 0.0
H704 H 0.34139 0.07496 0.85145 0.0
H705 H 0.3415 1.00006 0.0578 0.0
H706 H 0.39095 0.98353 0.98938 0.0
H707 H 0.43636 0.99248 0.87956 0.0
H708 H 0.43432 0.06411 0.66076 0.0
H709 H 0.38394 0.07968 0.72407 0.0
C710 C 0.35175 0.05441 0.87878 0.0
C711 C 0.33716 0.03837 0.95838 0.0
C712 C 0.38047 0.04497 0.83875 0.0
C713 C 0.35158 1.01232 0.99477 0.0
C714 C 0.38019 1.00313 0.95665 0.0
C715 C 0.42498 1.01171 0.8465 0.0
C716 C 0.44018 0.02848 0.77035 0.0
C717 C 0.39527 1.01969 0.88049 0.0
C718 C 0.42423 0.05216 0.72435 0.0
C719 C 0.39507 0.06069 0.75936 0.0
H720 H 0.46009 0.35211 0.8696 0.0
H721 H 0.5524 0.33372 0.95358 0.0
H722 H 0.56863 0.38062 0.87204 0.0
H723 H 0.55513 0.43108 0.8016 0.0
H724 H 0.46152 0.45036 0.73498 0.0
H725 H 0.44723 0.39979 0.78776 0.0
C726 C 0.48395 0.35783 0.86707 0.0
C727 C 0.50496 0.33909 0.91754 0.0
C728 C 0.49274 0.38584 0.82655 0.0
C729 C 0.53573 0.34718 0.91411 0.0
C730 C 0.54492 0.37445 0.86933 0.0
C731 C 0.5317 0.42399 0.79692 0.0
C732 C 0.50941 0.44479 0.76466 0.0
C733 C 0.52344 0.39465 0.82927 0.0
C734 C 0.47912 0.43519 0.76059 0.0
C735 C 0.47092 0.40609 0.79019 0.0
H736 H 0.2031 0.45692 0.97146 0.0
H737 H 0.23621 0.54837 0.95734 0.0
H738 H 0.19048 0.56288 0.86207 0.0
H739 H 0.13785 0.55061 0.79947 0.0
H740 H 0.1045 0.45963 0.8339 0.0
H741 H 0.15278 0.44441 0.90568 0.0
C742 C 0.20063 0.48009 0.94699 0.0
C743 C 0.22347 0.50147 0.97318 0.0
C744 C 0.17356 0.48859 0.89717 0.0
C745 C 0.21956 0.53117 0.93829 0.0
C746 C 0.19302 0.53959 0.88484 0.0
C747 C 0.14115 0.5274 0.82162 0.0
C748 C 0.11687 0.50645 0.81121 0.0
C749 C 0.16932 0.51871 0.86637 0.0
C750 C 0.12218 0.47649 0.84128 0.0
C751 C 0.15002 0.46764 0.88238 0.0
H752 H 0.04091 0.87188 0.30112 0.0
H753 H 0.99161 0.82754 0.54255 0.0
H754 H 0.99526 0.87353 0.65348 0.0
H755 H 1.01379 0.9272 0.68462 0.0
H756 H 0.06085 0.97101 0.43767 0.0
H757 H 0.05757 0.92474 0.32868 0.0
C758 C 0.03143 0.87192 0.379 0.0
C759 C 1.01621 0.84563 0.41295 0.0
C760 C 0.03358 0.89866 0.44257 0.0
C761 C 1.00411 0.84671 0.51435 0.0
C762 C 1.00623 0.87325 0.57818 0.0
C763 C 0.0228 0.92667 0.60631 0.0
C764 C 0.03654 0.95319 0.56831 0.0
C765 C 0.0209 0.8995 0.54344 0.0
C766 C 0.04933 0.95151 0.4681 0.0
C767 C 0.04768 0.92484 0.40591 0.0
H768 H 0.68725 0.05332 0.36853 0.0
H769 H 0.7228 0.97227 0.50151 0.0
H770 H 0.67599 0.96717 0.60392 0.0
H771 H 0.62309 0.98436 0.64884 0.0
H772 H 0.58903 0.066 0.51586 0.0
H773 H 0.63644 0.07183 0.41963 0.0
C774 C 0.68499 0.03455 0.42039 0.0
C775 C 0.70892 1.0131 0.42609 0.0
C776 C 0.65774 0.03152 0.47787 0.0
C777 C 0.70526 0.98932 0.49546 0.0
C778 C 0.6782 0.98621 0.55333 0.0
C779 C 0.62602 1.00327 0.59805 0.0
C780 C 0.60189 0.02421 0.58731 0.0
C781 C 0.65396 1.00684 0.54378 0.0
C782 C 0.60659 0.04902 0.52335 0.0
C783 C 0.63395 0.05254 0.46898 0.0
H784 H 0.59205 0.71957 0.48803 0.0
H785 H 0.50281 0.72967 0.36087 0.0
H786 H 0.4871 0.68223 0.44064 0.0
H787 H 0.5008 0.63442 0.53103 0.0
H788 H 0.59138 0.62495 0.64951 0.0
H789 H 0.60444 0.67483 0.58792 0.0
C790 C 0.56886 0.71185 0.47996 0.0
C791 C 0.54862 0.72859 0.41887 0.0
C792 C 0.56043 0.68394 0.52246 0.0
C793 C 0.51878 0.71784 0.40876 0.0
C794 C 0.50995 0.69032 0.45314 0.0
C795 C 0.52328 0.64343 0.54434 0.0
C796 C 0.54525 0.62532 0.5936 0.0
C797 C 0.53086 0.67261 0.50767 0.0
C798 C 0.57422 0.63764 0.6097 0.0
C799 C 0.58168 0.66647 0.57519 0.0
H800 H 0.86597 0.53364 0.2752 0.0
H801 H 0.80624 0.53586 0.54062 0.0
H802 H 0.84975 0.5272 0.65523 0.0
H803 H 0.9065 0.52517 0.68166 0.0
H804 H 0.96456 0.52841 0.41137 0.0
H805 H 0.92061 0.52942 0.29891 0.0
C806 C 0.86224 0.53144 0.35801 0.0
C807 C 0.83249 0.53511 0.39834 0.0
C808 C 0.88755 0.5283 0.42359 0.0
C809 C 0.8285 0.53254 0.50632 0.0
C810 C 0.85363 0.52812 0.57224 0.0
C811 C 0.90945 0.52572 0.59812 0.0
C812 C 0.93921 0.52698 0.5558 0.0
C813 C 0.88352 0.52694 0.53227 0.0
C814 C 0.94228 0.52788 0.44701 0.0
C815 C 0.91701 0.52827 0.38207 0.0
loop_
_geom_bond_atom_site_label_1
_geom_bond_atom_site_label_2
_geom_bond_distance
_geom_bond_site_symmetry_2
_ccdc_geom_bond_type
H0 C5 0.930 . S
H1 C8 0.930 . S
H2 C10 0.930 . S
H3 C4 1.016 . S
C4 H3 1.016 . S
C4 N11 1.286 . S
C5 H0 0.930 . S
C5 C6 1.397 . S
C5 C7 1.361 . S
C6 C5 1.397 . S
C6 C10 1.390 . S
C7 C5 1.361 . S
C7 C8 1.393 . S
C7 N11 1.413 . S
C8 H1 0.930 . S
C8 C7 1.393 . S
C8 C9 1.399 . S
C9 C8 1.399 . S
C9 C10 1.381 . S
C10 H2 0.930 . S
C10 C6 1.390 . S
C10 C9 1.381 . S
N11 C4 1.286 . S
N11 C7 1.413 . S
H12 C17 0.930 . S
H13 C20 0.930 . S
H14 C22 0.930 . S
H15 C16 1.016 . S
C16 H15 1.016 . S
C16 N23 1.286 . S
C17 H12 0.930 . S
C17 C18 1.397 . S
C17 C19 1.361 . S
C18 C17 1.397 . S
C18 C22 1.390 . S
C19 C17 1.361 . S
C19 C20 1.393 . S
C19 N23 1.413 . S
C20 H13 0.930 . S
C20 C19 1.393 . S
C20 C21 1.399 . S
C21 C20 1.399 . S
C21 C22 1.381 . S
C22 H14 0.930 . S
C22 C18 1.390 . S
C22 C21 1.381 . S
N23 C16 1.286 . S
N23 C19 1.413 . S
H24 C29 0.930 . S
H25 C32 0.930 . S
H26 C34 0.930 . S
H27 C28 1.016 . S
C28 H27 1.016 . S
C28 N35 1.286 . S
C29 H24 0.930 . S
C29 C30 1.397 . S
C29 C31 1.361 . S
C30 C29 1.397 . S
C30 C34 1.390 . S
C31 C29 1.361 . S
C31 C32 1.393 . S
C31 N35 1.413 . S
C32 H25 0.930 . S
C32 C31 1.393 . S
C32 C33 1.399 . S
C33 C32 1.399 . S
C33 C34 1.381 . S
C34 H26 0.930 . S
C34 C30 1.390 . S
C34 C33 1.381 . S
N35 C28 1.286 . S
N35 C31 1.413 . S
H36 C41 0.930 . S
H37 C44 0.930 . S
H38 C46 0.930 . S
H39 C40 1.016 . S
C40 H39 1.016 . S
C40 N47 1.286 . S
C41 H36 0.930 . S
C41 C42 1.397 . S
C41 C43 1.361 . S
C42 C41 1.397 . S
C42 C46 1.390 . S
C43 C41 1.361 . S
C43 C44 1.393 . S
C43 N47 1.413 . S
C44 H37 0.930 . S
C44 C43 1.393 . S
C44 C45 1.399 . S
C45 C44 1.399 . S
C45 C46 1.381 . S
C46 H38 0.930 . S
C46 C42 1.390 . S
C46 C45 1.381 . S
N47 C40 1.286 . S
N47 C43 1.413 . S
H48 C53 0.930 . S
H49 C56 0.930 . S
H50 C58 0.930 . S
H51 C52 1.016 . S
C52 H51 1.016 . S
C52 N59 1.286 . S
C53 H48 0.930 . S
C53 C54 1.397 . S
C53 C55 1.361 1_556 S
C54 C53 1.397 . S
C54 C58 1.390 . S
C55 C53 1.361 1_554 S
C55 C56 1.393 . S
C55 N59 1.413 . S
C56 H49 0.930 . S
C56 C55 1.393 . S
C56 C57 1.399 . S
C57 C56 1.399 . S
C57 C58 1.381 1_554 S
C58 H50 0.930 . S
C58 C54 1.390 . S
C58 C57 1.381 1_556 S
N59 C52 1.286 . S
N59 C55 1.413 . S
H60 C65 0.930 . S
H61 C68 0.930 . S
H62 C70 0.930 . S
H63 C64 1.016 . S
C64 H63 1.016 . S
C64 N71 1.286 . S
C65 H60 0.930 . S
C65 C66 1.397 . S
C65 C67 1.361 1_556 S
C66 C65 1.397 . S
C66 C70 1.390 . S
C67 C65 1.361 1_554 S
C67 C68 1.393 . S
C67 N71 1.413 . S
C68 H61 0.930 . S
C68 C67 1.393 . S
C68 C69 1.399 . S
C69 C68 1.399 . S
C69 C70 1.381 1_554 S
C70 H62 0.930 . S
C70 C66 1.390 . S
C70 C69 1.381 1_556 S
N71 C64 1.286 . S
N71 C67 1.413 . S
H72 C77 0.930 . S
H73 C80 0.930 . S
H74 C82 0.930 . S
H75 C76 1.016 . S
C76 H75 1.016 . S
C76 N83 1.286 . S
C77 H72 0.930 . S
C77 C78 1.397 . S
C77 C79 1.361 1_556 S
C78 C77 1.397 . S
C78 C82 1.390 . S
C79 C77 1.361 1_554 S
C79 C80 1.393 . S
C79 N83 1.413 . S
C80 H73 0.930 . S
C80 C79 1.393 . S
C80 C81 1.399 . S
C81 C80 1.399 . S
C81 C82 1.381 1_554 S
C82 H74 0.930 . S
C82 C78 1.390 . S
C82 C81 1.381 1_556 S
N83 C76 1.286 . S
N83 C79 1.413 . S
H84 C89 0.930 . S
H85 C92 0.930 . S
H86 C94 0.930 . S
H87 C88 1.016 . S
C88 H87 1.016 . S
C88 N95 1.286 . S
C89 H84 0.930 . S
C89 C90 1.397 . S
C89 C91 1.361 1_556 S
C90 C89 1.397 . S
C90 C94 1.390 . S
C91 C89 1.361 1_554 S
C91 C92 1.393 . S
C91 N95 1.413 . S
C92 H85 0.930 . S
C92 C91 1.393 . S
C92 C93 1.399 . S
C93 C92 1.399 . S
C93 C94 1.381 1_554 S
C94 H86 0.930 . S
C94 C90 1.390 . S
C94 C93 1.381 1_556 S
N95 C88 1.286 . S
N95 C91 1.413 . S
Eu96 N127 2.657 1_565 S
Eu96 N134 2.609 1_565 S
Eu96 O140 2.558 . S
Eu96 O141 2.612 1_455 S
Eu96 O143 2.339 1_455 S
Eu96 O144 2.563 . S
Eu96 O145 2.419 . S
Eu96 O147 2.380 1_565 S
Eu96 O148 2.432 . S
Eu96 C160 2.848 . S
C97 C100 1.429 1_545 S
C97 C101 1.411 1_545 S
C97 N104 1.377 . S
C98 C100 1.420 . S
C98 C102 1.423 . S
C98 C110 1.392 . S
C99 C101 1.420 . S
C99 C102 1.351 . S
C99 H122 0.931 . S
C100 C97 1.429 1_565 S
C100 C98 1.420 . S
C100 N108 1.362 . S
C101 C97 1.411 1_565 S
C101 C99 1.420 . S
C101 C106 1.395 1_565 S
C102 C98 1.423 . S
C102 C99 1.351 . S
C102 H114 0.930 . S
C103 C105 1.400 . S
C103 C106 1.386 . S
C103 H115 0.930 . S
N104 C97 1.377 . S
N104 C105 1.321 . S
N104 Eu107 2.609 . S
C105 C103 1.400 . S
C105 N104 1.321 . S
C105 H112 0.930 . S
C106 C101 1.395 1_545 S
C106 C103 1.386 . S
C106 H125 0.930 . S
Eu107 N104 2.609 . S
Eu107 N108 2.657 1_545 S
Eu107 O141 2.380 1_545 S
Eu107 O142 2.432 . S
Eu107 O146 2.558 . S
Eu107 O147 2.612 1_655 S
Eu107 O149 2.339 1_655 S
Eu107 O150 2.563 1_655 S
Eu107 O151 2.419 . S
Eu107 C171 2.848 . S
N108 C100 1.362 . S
N108 Eu107 2.657 1_565 S
N108 C109 1.334 1_655 S
C109 N108 1.334 1_455 S
C109 C111 1.413 . S
C109 H116 0.929 . S
C110 C98 1.392 . S
C110 C111 1.367 1_655 S
C110 H118 0.930 . S
C111 C109 1.413 . S
C111 C110 1.367 1_455 S
C111 H113 0.930 . S
H112 C105 0.930 . S
H113 C111 0.930 . S
H114 C102 0.930 . S
H115 C103 0.930 . S
H116 C109 0.929 . S
H117 C131 0.930 1_655 S
H118 C110 0.930 . S
H119 C137 0.930 . S
H120 C128 0.929 1_655 S
H121 C135 0.930 . S
H122 C99 0.931 . S
H123 C129 0.930 . S
H124 C162 0.930 . S
H125 C106 0.930 . S
H126 C161 0.931 . S
N127 Eu96 2.657 1_545 S
N127 C128 1.334 . S
N127 C132 1.362 . S
C128 H120 0.929 1_455 S
C128 N127 1.334 . S
C128 C131 1.413 1_556 S
C129 H123 0.930 . S
C129 C130 1.392 . S
C129 C131 1.367 . S
C130 C129 1.392 . S
C130 C132 1.420 1_554 S
C130 C162 1.423 . S
C131 H117 0.930 1_455 S
C131 C128 1.413 1_554 S
C131 C129 1.367 . S
C132 N127 1.362 . S
C132 C130 1.420 1_556 S
C132 C136 1.429 . S
H133 C138 0.930 . S
N134 Eu96 2.609 1_545 S
N134 C136 1.377 . S
N134 C137 1.321 1_545 S
C135 H121 0.930 . S
C135 C137 1.400 . S
C135 C138 1.386 1_565 S
C136 C132 1.429 . S
C136 N134 1.377 . S
C136 C139 1.411 . S
C137 H119 0.930 . S
C137 N134 1.321 1_565 S
C137 C135 1.400 . S
C138 H133 0.930 . S
C138 C135 1.386 1_545 S
C138 C139 1.395 . S
C139 C136 1.411 . S
C139 C138 1.395 . S
C139 C161 1.420 1_556 S
O140 Eu96 2.558 . S
O140 C160 1.257 . S
O141 Eu96 2.612 1_655 S
O141 Eu107 2.380 1_565 S
O141 C152 1.276 . S
O142 Eu107 2.432 . S
O142 C159 1.264 . S
O143 Eu96 2.339 1_655 S
O143 C159 1.254 1_565 S
O144 Eu96 2.563 . S
O144 C152 1.235 1_455 S
O145 Eu96 2.419 . S
O145 C160 1.249 . S
O146 Eu107 2.558 . S
O146 C171 1.257 . S
O147 Eu96 2.380 1_545 S
O147 Eu107 2.612 1_455 S
O147 C163 1.276 . S
O148 Eu96 2.432 . S
O148 C170 1.264 1_565 S
O149 Eu107 2.339 1_455 S
O149 C170 1.254 . S
O150 Eu107 2.563 1_455 S
O150 C163 1.235 . S
O151 Eu107 2.419 . S
O151 C171 1.249 . S
C152 O141 1.276 . S
C152 O144 1.235 1_655 S
C153 C155 1.393 1_556 S
C153 C157 1.395 . S
C153 C160 1.492 . S
C154 C155 1.392 . S
C154 C156 1.386 . S
C155 C153 1.393 1_554 S
C155 C154 1.392 . S
C155 H172 0.930 . S
C156 C154 1.386 . S
C156 C158 1.395 . S
C156 H173 0.930 . S
C157 C153 1.395 . S
C157 C158 1.379 1_556 S
C157 H174 0.930 . S
C158 C156 1.395 . S
C158 C157 1.379 1_554 S
C158 H175 0.930 . S
C159 O142 1.264 . S
C159 O143 1.254 1_545 S
C160 Eu96 2.848 . S
C160 O140 1.257 . S
C160 O145 1.249 . S
C160 C153 1.492 . S
C161 H126 0.931 . S
C161 C139 1.420 1_554 S
C161 C162 1.351 . S
C162 H124 0.930 . S
C162 C130 1.423 . S
C162 C161 1.351 . S
C163 O147 1.276 . S
C163 O150 1.235 . S
C164 C165 1.393 . S
C164 C168 1.395 . S
C164 C171 1.492 . S
C165 C164 1.393 . S
C165 C166 1.392 . S
C165 H176 0.930 1_655 S
C166 C165 1.392 . S
C166 C167 1.386 . S
C167 C166 1.386 . S
C167 C169 1.395 . S
C167 H177 0.930 . S
C168 C164 1.395 . S
C168 C169 1.379 . S
C168 H178 0.930 . S
C169 C167 1.395 . S
C169 C168 1.379 . S
C169 H179 0.930 . S
C170 O148 1.264 1_545 S
C170 O149 1.254 . S
C171 Eu107 2.848 . S
C171 O146 1.257 . S
C171 O151 1.249 . S
C171 C164 1.492 . S
H172 C155 0.930 . S
H173 C156 0.930 . S
H174 C157 0.930 . S
H175 C158 0.930 . S
H176 C165 0.930 1_455 S
H177 C167 0.930 . S
H178 C168 0.930 . S
H179 C169 0.930 . S
Eu180 N211 2.657 . S
Eu180 N218 2.609 . S
Eu180 O224 2.558 . S
Eu180 O225 2.612 1_545 S
Eu180 O227 2.339 1_545 S
Eu180 O228 2.563 . S
Eu180 O229 2.419 . S
Eu180 O231 2.380 . S
Eu180 O232 2.432 . S
Eu180 C244 2.848 . S
C181 C184 1.429 . S
C181 C185 1.411 . S
C181 N188 1.377 . S
C182 C184 1.420 . S
C182 C186 1.423 . S
C182 C194 1.392 . S
C183 C185 1.420 . S
C183 C186 1.351 . S
C183 H206 0.931 . S
C184 C181 1.429 . S
C184 C182 1.420 . S
C184 N192 1.362 . S
C185 C181 1.411 . S
C185 C183 1.420 . S
C185 C190 1.395 . S
C186 C182 1.423 . S
C186 C183 1.351 . S
C186 H198 0.930 . S
C187 C189 1.400 . S
C187 C190 1.386 . S
C187 H199 0.930 . S
N188 C181 1.377 . S
N188 C189 1.321 . S
N188 Eu191 2.609 . S
C189 C187 1.400 . S
C189 N188 1.321 . S
C189 H196 0.930 . S
C190 C185 1.395 . S
C190 C187 1.386 . S
C190 H209 0.930 . S
Eu191 N188 2.609 . S
Eu191 N192 2.657 . S
Eu191 O225 2.380 . S
Eu191 O226 2.432 . S
Eu191 O230 2.558 . S
Eu191 O231 2.612 1_565 S
Eu191 O233 2.339 1_565 S
Eu191 O234 2.563 1_565 S
Eu191 O235 2.419 . S
Eu191 C255 2.848 . S
N192 C184 1.362 . S
N192 Eu191 2.657 . S
N192 C193 1.334 1_565 S
C193 N192 1.334 1_545 S
C193 C195 1.413 . S
C193 H200 0.929 . S
C194 C182 1.392 . S
C194 C195 1.367 1_565 S
C194 H202 0.930 . S
C195 C193 1.413 . S
C195 C194 1.367 1_545 S
C195 H197 0.930 . S
H196 C189 0.930 . S
H197 C195 0.930 . S
H198 C186 0.930 . S
H199 C187 0.930 . S
H200 C193 0.929 . S
H201 C215 0.930 1_565 S
H202 C194 0.930 . S
H203 C221 0.930 . S
H204 C212 0.929 1_565 S
H205 C219 0.930 . S
H206 C183 0.931 . S
H207 C213 0.930 . S
H208 C246 0.930 . S
H209 C190 0.930 . S
H210 C245 0.931 . S
N211 Eu180 2.657 . S
N211 C212 1.334 . S
N211 C216 1.362 . S
C212 H204 0.929 1_545 S
C212 N211 1.334 . S
C212 C215 1.413 1_556 S
C213 H207 0.930 . S
C213 C214 1.392 . S
C213 C215 1.367 . S
C214 C213 1.392 . S
C214 C216 1.420 1_554 S
C214 C246 1.423 . S
C215 H201 0.930 1_545 S
C215 C212 1.413 1_554 S
C215 C213 1.367 . S
C216 N211 1.362 . S
C216 C214 1.420 1_556 S
C216 C220 1.429 . S
H217 C222 0.930 . S
N218 Eu180 2.609 . S
N218 C220 1.377 . S
N218 C221 1.321 . S
C219 H205 0.930 . S
C219 C221 1.400 . S
C219 C222 1.386 . S
C220 C216 1.429 . S
C220 N218 1.377 . S
C220 C223 1.407 1_556 S
C221 H203 0.930 . S
C221 N218 1.321 . S
C221 C219 1.400 . S
C222 H217 0.930 . S
C222 C219 1.386 . S
C222 C223 1.391 1_556 S
C223 C220 1.407 1_554 S
C223 C222 1.391 1_554 S
C223 C245 1.427 . S
O224 Eu180 2.558 . S
O224 C244 1.257 . S
O225 Eu180 2.612 1_565 S
O225 Eu191 2.380 . S
O225 C236 1.276 . S
O226 Eu191 2.432 . S
O226 C243 1.264 . S
O227 Eu180 2.339 1_565 S
O227 C243 1.254 . S
O228 Eu180 2.563 . S
O228 C236 1.235 1_545 S
O229 Eu180 2.419 . S
O229 C244 1.249 . S
O230 Eu191 2.558 . S
O230 C255 1.257 . S
O231 Eu180 2.380 . S
O231 Eu191 2.612 1_545 S
O231 C247 1.276 . S
O232 Eu180 2.432 . S
O232 C254 1.264 . S
O233 Eu191 2.339 1_545 S
O233 C254 1.254 . S
O234 Eu191 2.563 1_545 S
O234 C247 1.235 . S
O235 Eu191 2.419 . S
O235 C255 1.249 . S
C236 O225 1.276 . S
C236 O228 1.235 1_565 S
C237 C239 1.393 1_556 S
C237 C241 1.395 . S
C237 C244 1.492 . S
C238 C239 1.392 . S
C238 C240 1.386 . S
C239 C237 1.393 1_554 S
C239 C238 1.392 . S
C239 H256 0.930 . S
C240 C238 1.386 . S
C240 C242 1.395 . S
C240 H257 0.930 . S
C241 C237 1.395 . S
C241 C242 1.379 1_556 S
C241 H258 0.930 . S
C242 C240 1.395 . S
C242 C241 1.379 1_554 S
C242 H259 0.930 . S
C243 O226 1.264 . S
C243 O227 1.254 . S
C244 Eu180 2.848 . S
C244 O224 1.257 . S
C244 O229 1.249 . S
C244 C237 1.492 . S
C245 H210 0.931 . S
C245 C223 1.427 . S
C245 C246 1.351 . S
C246 H208 0.930 . S
C246 C214 1.423 . S
C246 C245 1.351 . S
C247 O231 1.276 . S
C247 O234 1.235 . S
C248 C249 1.393 . S
C248 C252 1.395 . S
C248 C255 1.492 . S
C249 C248 1.393 . S
C249 C250 1.392 . S
C249 H260 0.930 1_565 S
C250 C249 1.392 . S
C250 C251 1.386 . S
C251 C250 1.386 . S
C251 C253 1.395 . S
C251 H261 0.930 . S
C252 C248 1.395 . S
C252 C253 1.379 . S
C252 H262 0.930 . S
C253 C251 1.395 . S
C253 C252 1.379 . S
C253 H263 0.930 . S
C254 O232 1.264 . S
C254 O233 1.254 . S
C255 Eu191 2.848 . S
C255 O230 1.257 . S
C255 O235 1.249 . S
C255 C248 1.492 . S
H256 C239 0.930 . S
H257 C240 0.930 . S
H258 C241 0.930 . S
H259 C242 0.930 . S
H260 C249 0.930 1_545 S
H261 C251 0.930 . S
H262 C252 0.930 . S
H263 C253 0.930 . S
Eu264 N295 2.657 . S
Eu264 N302 2.609 . S
Eu264 O308 2.558 . S
Eu264 O309 2.612 . S
Eu264 O311 2.339 . S
Eu264 O312 2.563 . S
Eu264 O313 2.419 . S
Eu264 O315 2.380 . S
Eu264 O316 2.432 . S
Eu264 C328 2.848 . S
C265 C268 1.429 . S
C265 C269 1.411 . S
C265 N272 1.377 . S
C266 C268 1.420 . S
C266 C270 1.423 . S
C266 C278 1.392 . S
C267 C269 1.420 . S
C267 C270 1.351 . S
C267 H290 0.931 . S
C268 C265 1.429 . S
C268 C266 1.420 . S
C268 N276 1.362 . S
C269 C265 1.411 . S
C269 C267 1.420 . S
C269 C274 1.395 . S
C270 C266 1.423 . S
C270 C267 1.351 . S
C270 H282 0.930 . S
C271 C273 1.400 . S
C271 C274 1.386 . S
C271 H283 0.930 1_556 S
N272 C265 1.377 . S
N272 C273 1.321 . S
N272 Eu275 2.609 . S
C273 C271 1.400 . S
C273 N272 1.321 . S
C273 H280 0.930 . S
C274 C269 1.395 . S
C274 C271 1.386 . S
C274 H293 0.930 . S
Eu275 N272 2.609 . S
Eu275 N276 2.657 . S
Eu275 O309 2.380 . S
Eu275 O310 2.432 . S
Eu275 O314 2.558 . S
Eu275 O315 2.612 . S
Eu275 O317 2.339 . S
Eu275 O318 2.563 . S
Eu275 O319 2.419 . S
Eu275 C339 2.848 . S
N276 C268 1.362 . S
N276 Eu275 2.657 . S
N276 C277 1.334 . S
C277 N276 1.334 . S
C277 C279 1.413 . S
C277 H284 0.929 . S
C278 C266 1.392 . S
C278 C279 1.367 . S
C278 H286 0.930 . S
C279 C277 1.413 . S
C279 C278 1.367 . S
C279 H281 0.930 . S
H280 C273 0.930 . S
H281 C279 0.930 . S
H282 C270 0.930 . S
H283 C271 0.930 1_554 S
H284 C277 0.929 . S
H285 C299 0.930 . S
H286 C278 0.930 . S
H287 C305 0.930 . S
H288 C296 0.929 . S
H289 C303 0.930 . S
H290 C267 0.931 . S
H291 C297 0.930 . S
H292 C330 0.930 . S
H293 C274 0.930 . S
H294 C329 0.931 . S
N295 Eu264 2.657 . S
N295 C296 1.334 . S
N295 C300 1.362 . S
C296 H288 0.929 . S
C296 N295 1.334 . S
C296 C299 1.413 . S
C297 H291 0.930 . S
C297 C298 1.392 . S
C297 C299 1.367 . S
C298 C297 1.392 . S
C298 C300 1.420 . S
C298 C330 1.423 . S
C299 H285 0.930 . S
C299 C296 1.413 . S
C299 C297 1.367 . S
C300 N295 1.362 . S
C300 C298 1.420 . S
C300 C304 1.429 . S
H301 C306 0.930 . S
N302 Eu264 2.609 . S
N302 C304 1.377 . S
N302 C305 1.321 . S
C303 H289 0.930 . S
C303 C305 1.400 . S
C303 C306 1.386 . S
C304 C300 1.429 . S
C304 N302 1.377 . S
C304 C307 1.411 . S
C305 H287 0.930 . S
C305 N302 1.321 . S
C305 C303 1.400 . S
C306 H301 0.930 . S
C306 C303 1.386 . S
C306 C307 1.395 . S
C307 C304 1.411 . S
C307 C306 1.395 . S
C307 C329 1.420 . S
O308 Eu264 2.558 . S
O308 C328 1.257 . S
O309 Eu264 2.612 . S
O309 Eu275 2.380 . S
O309 C320 1.276 . S
O310 Eu275 2.432 . S
O310 C327 1.264 . S
O311 Eu264 2.339 . S
O311 C327 1.254 . S
O312 Eu264 2.563 . S
O312 C320 1.235 . S
O313 Eu264 2.419 . S
O313 C328 1.249 . S
O314 Eu275 2.558 . S
O314 C339 1.257 . S
O315 Eu264 2.380 . S
O315 Eu275 2.612 . S
O315 C331 1.276 . S
O316 Eu264 2.432 . S
O316 C338 1.264 . S
O317 Eu275 2.339 . S
O317 C338 1.254 . S
O318 Eu275 2.563 . S
O318 C331 1.235 . S
O319 Eu275 2.419 . S
O319 C339 1.249 . S
C320 O309 1.276 . S
C320 O312 1.235 . S
C321 C323 1.393 . S
C321 C325 1.395 . S
C321 C328 1.492 . S
C322 C323 1.392 . S
C322 C324 1.386 . S
C323 C321 1.393 . S
C323 C322 1.392 . S
C323 H340 0.930 . S
C324 C322 1.386 . S
C324 C326 1.395 . S
C324 H341 0.930 . S
C325 C321 1.395 . S
C325 C326 1.379 . S
C325 H342 0.930 . S
C326 C324 1.395 . S
C326 C325 1.379 . S
C326 H343 0.930 . S
C327 O310 1.264 . S
C327 O311 1.254 . S
C328 Eu264 2.848 . S
C328 O308 1.257 . S
C328 O313 1.249 . S
C328 C321 1.492 . S
C329 H294 0.931 . S
C329 C307 1.420 . S
C329 C330 1.351 . S
C330 H292 0.930 . S
C330 C298 1.423 . S
C330 C329 1.351 . S
C331 O315 1.276 . S
C331 O318 1.235 . S
C332 C333 1.393 . S
C332 C336 1.395 . S
C332 C339 1.492 1_554 S
C333 C332 1.393 . S
C333 C334 1.392 . S
C333 H344 0.930 1_554 S
C334 C333 1.392 . S
C334 C335 1.386 . S
C335 C334 1.386 . S
C335 C337 1.395 . S
C335 H345 0.930 . S
C336 C332 1.395 . S
C336 C337 1.379 . S
C336 H346 0.930 . S
C337 C335 1.395 . S
C337 C336 1.379 . S
C337 H347 0.930 . S
C338 O316 1.264 . S
C338 O317 1.254 . S
C339 Eu275 2.848 . S
C339 O314 1.257 . S
C339 O319 1.249 . S
C339 C332 1.492 1_556 S
H340 C323 0.930 . S
H341 C324 0.930 . S
H342 C325 0.930 . S
H343 C326 0.930 . S
H344 C333 0.930 1_556 S
H345 C335 0.930 . S
H346 C336 0.930 . S
H347 C337 0.930 . S
Eu348 N379 2.657 . S
Eu348 N386 2.609 . S
Eu348 O392 2.558 . S
Eu348 O393 2.612 . S
Eu348 O395 2.339 . S
Eu348 O396 2.563 . S
Eu348 O397 2.419 . S
Eu348 O399 2.380 . S
Eu348 O400 2.432 1_455 S
Eu348 C412 2.848 . S
C349 C352 1.429 . S
C349 C353 1.411 . S
C349 N356 1.395 . S
C350 C352 1.420 . S
C350 C354 1.423 . S
C350 C362 1.392 . S
C351 C353 1.420 . S
C351 C354 1.351 . S
C351 H374 0.931 . S
C352 C349 1.429 . S
C352 C350 1.420 . S
C352 N360 1.362 . S
C353 C349 1.411 . S
C353 C351 1.420 . S
C353 C358 1.395 1_655 S
C354 C350 1.423 . S
C354 C351 1.351 . S
C354 H366 0.930 . S
C355 C357 1.400 . S
C355 C358 1.386 . S
C355 H367 0.930 1_556 S
N356 C349 1.395 . S
N356 C357 1.298 1_655 S
N356 Eu359 2.618 . S
C357 C355 1.400 . S
C357 N356 1.298 1_455 S
C357 H364 0.930 . S
C358 C353 1.395 1_455 S
C358 C355 1.386 . S
C358 H377 0.930 . S
Eu359 N356 2.618 . S
Eu359 N360 2.657 . S
Eu359 O393 2.380 1_655 S
Eu359 O394 2.432 1_655 S
Eu359 O398 2.558 . S
Eu359 O399 2.612 1_655 S
Eu359 O401 2.339 . S
Eu359 O402 2.563 . S
Eu359 O403 2.419 . S
Eu359 C423 2.848 . S
N360 C352 1.362 . S
N360 Eu359 2.657 . S
N360 C361 1.334 . S
C361 N360 1.334 . S
C361 C363 1.413 . S
C361 H368 0.929 . S
C362 C350 1.392 . S
C362 C363 1.367 . S
C362 H370 0.930 . S
C363 C361 1.413 . S
C363 C362 1.367 . S
C363 H365 0.930 . S
H364 C357 0.930 . S
H365 C363 0.930 . S
H366 C354 0.930 . S
H367 C355 0.930 1_554 S
H368 C361 0.929 . S
H369 C383 0.930 . S
H370 C362 0.930 . S
H371 C389 0.930 . S
H372 C380 0.929 . S
H373 C387 0.930 . S
H374 C351 0.931 . S
H375 C381 0.930 . S
H376 C414 0.930 . S
H377 C358 0.930 . S
H378 C413 0.931 . S
N379 Eu348 2.657 . S
N379 C380 1.334 . S
N379 C384 1.362 . S
C380 H372 0.929 . S
C380 N379 1.334 . S
C380 C383 1.413 . S
C381 H375 0.930 . S
C381 C382 1.392 . S
C381 C383 1.367 . S
C382 C381 1.392 . S
C382 C384 1.420 . S
C382 C414 1.423 . S
C383 H369 0.930 . S
C383 C380 1.413 . S
C383 C381 1.367 . S
C384 N379 1.362 . S
C384 C382 1.420 . S
C384 C388 1.429 . S
H385 C390 0.930 . S
N386 Eu348 2.609 . S
N386 C388 1.377 . S
N386 C389 1.321 1_455 S
C387 H373 0.930 . S
C387 C389 1.400 . S
C387 C390 1.386 1_655 S
C388 C384 1.429 . S
C388 N386 1.377 . S
C388 C391 1.411 . S
C389 H371 0.930 . S
C389 N386 1.321 1_655 S
C389 C387 1.400 . S
C390 H385 0.930 . S
C390 C387 1.386 1_455 S
C390 C391 1.395 . S
C391 C388 1.411 . S
C391 C390 1.395 . S
C391 C413 1.420 . S
O392 Eu348 2.558 . S
O392 C412 1.257 . S
O393 Eu348 2.612 . S
O393 Eu359 2.380 1_455 S
O393 C404 1.276 . S
O394 Eu359 2.432 1_455 S
O394 C411 1.264 . S
O395 Eu348 2.339 . S
O395 C411 1.254 . S
O396 Eu348 2.563 . S
O396 C404 1.235 . S
O397 Eu348 2.419 . S
O397 C412 1.249 . S
O398 Eu359 2.558 . S
O398 C423 1.257 . S
O399 Eu348 2.380 . S
O399 Eu359 2.612 1_455 S
O399 C415 1.276 1_455 S
O400 Eu348 2.432 1_655 S
O400 C422 1.264 . S
O401 Eu359 2.339 . S
O401 C422 1.254 . S
O402 Eu359 2.563 . S
O402 C415 1.235 . S
O403 Eu359 2.419 . S
O403 C423 1.249 . S
C404 O393 1.276 . S
C404 O396 1.235 . S
C405 C407 1.393 . S
C405 C409 1.395 . S
C405 C412 1.492 . S
C406 C407 1.392 . S
C406 C408 1.386 . S
C407 C405 1.393 . S
C407 C406 1.392 . S
C407 H424 0.930 . S
C408 C406 1.386 . S
C408 C410 1.395 . S
C408 H425 0.930 . S
C409 C405 1.395 . S
C409 C410 1.379 . S
C409 H426 0.930 . S
C410 C408 1.395 . S
C410 C409 1.379 . S
C410 H427 0.930 . S
C411 O394 1.264 . S
C411 O395 1.254 . S
C412 Eu348 2.848 . S
C412 O392 1.257 . S
C412 O397 1.249 . S
C412 C405 1.492 . S
C413 H378 0.931 . S
C413 C391 1.420 . S
C413 C414 1.351 . S
C414 H376 0.930 . S
C414 C382 1.423 . S
C414 C413 1.351 . S
C415 O399 1.276 1_655 S
C415 O402 1.235 . S
C416 C417 1.393 . S
C416 C420 1.395 . S
C416 C423 1.492 1_554 S
C417 C416 1.393 . S
C417 C418 1.392 . S
C417 H428 0.930 1_554 S
C418 C417 1.392 . S
C418 C419 1.386 . S
C419 C418 1.386 . S
C419 C421 1.395 . S
C419 H429 0.930 . S
C420 C416 1.395 . S
C420 C421 1.379 . S
C420 H430 0.930 . S
C421 C419 1.395 . S
C421 C420 1.379 . S
C421 H431 0.930 . S
C422 O400 1.264 . S
C422 O401 1.254 . S
C423 Eu359 2.848 . S
C423 O398 1.257 . S
C423 O403 1.249 . S
C423 C416 1.492 1_556 S
H424 C407 0.930 . S
H425 C408 0.930 . S
H426 C409 0.930 . S
H427 C410 0.930 . S
H428 C417 0.930 1_556 S
H429 C419 0.930 . S
H430 C420 0.930 . S
H431 C421 0.930 . S
H432 C438 0.930 . S
H433 C441 0.930 . S
H434 C442 0.930 . S
H435 C443 0.930 . S
H436 C446 0.930 . S
H437 C447 0.930 . S
C438 H432 0.930 . S
C438 C439 1.355 . S
C438 C440 1.415 . S
C439 C438 1.355 . S
C439 C441 1.419 . S
C440 C438 1.415 . S
C440 C445 1.425 . S
C440 C447 1.409 . S
C441 H433 0.930 . S
C441 C439 1.419 . S
C441 C442 1.362 . S
C442 H434 0.930 . S
C442 C441 1.362 . S
C442 C445 1.409 . S
C443 H435 0.930 . S
C443 C444 1.355 . S
C443 C445 1.415 . S
C444 C443 1.355 . S
C444 C446 1.419 . S
C445 C440 1.425 . S
C445 C442 1.409 . S
C445 C443 1.415 . S
C446 H436 0.930 . S
C446 C444 1.419 . S
C446 C447 1.362 . S
C447 H437 0.930 . S
C447 C440 1.409 . S
C447 C446 1.362 . S
H448 C454 0.930 . S
H449 C457 0.930 . S
H450 C458 0.930 . S
H451 C459 0.930 . S
H452 C462 0.930 . S
H453 C463 0.930 . S
C454 H448 0.930 . S
C454 C455 1.355 . S
C454 C456 1.415 . S
C455 C454 1.355 . S
C455 C457 1.419 . S
C456 C454 1.415 . S
C456 C461 1.425 . S
C456 C463 1.409 . S
C457 H449 0.930 . S
C457 C455 1.419 . S
C457 C458 1.362 . S
C458 H450 0.930 . S
C458 C457 1.362 . S
C458 C461 1.409 . S
C459 H451 0.930 . S
C459 C460 1.355 . S
C459 C461 1.415 . S
C460 C459 1.355 . S
C460 C462 1.419 . S
C461 C456 1.425 . S
C461 C458 1.409 . S
C461 C459 1.415 . S
C462 H452 0.930 . S
C462 C460 1.419 . S
C462 C463 1.362 . S
C463 H453 0.930 . S
C463 C456 1.409 . S
C463 C462 1.362 . S
H464 C470 0.930 . S
H465 C473 0.930 . S
H466 C474 0.930 . S
H467 C475 0.930 . S
H468 C478 0.930 . S
H469 C479 0.930 . S
C470 H464 0.930 . S
C470 C471 1.355 . S
C470 C472 1.415 . S
C471 C470 1.355 . S
C471 C473 1.419 . S
C472 C470 1.415 . S
C472 C477 1.425 . S
C472 C479 1.409 . S
C473 H465 0.930 . S
C473 C471 1.419 . S
C473 C474 1.362 . S
C474 H466 0.930 . S
C474 C473 1.362 . S
C474 C477 1.409 . S
C475 H467 0.930 . S
C475 C476 1.355 . S
C475 C477 1.415 . S
C476 C475 1.355 . S
C476 C478 1.419 . S
C477 C472 1.425 . S
C477 C474 1.409 . S
C477 C475 1.415 . S
C478 H468 0.930 . S
C478 C476 1.419 . S
C478 C479 1.362 . S
C479 H469 0.930 . S
C479 C472 1.409 . S
C479 C478 1.362 . S
H480 C486 0.930 . S
H481 C489 0.930 . S
H482 C490 0.930 1_655 S
H483 C491 0.909 1_655 S
H484 C494 0.930 . S
H485 C495 0.930 . S
C486 H480 0.930 . S
C486 C487 1.355 . S
C486 C488 1.415 . S
C487 C486 1.355 . S
C487 C489 1.419 . S
C488 C486 1.415 . S
C488 C493 1.425 . S
C488 C495 1.409 . S
C489 H481 0.930 . S
C489 C487 1.419 . S
C489 C490 1.362 . S
C490 H482 0.930 1_455 S
C490 C489 1.362 . S
C490 C493 1.409 . S
C491 H483 0.909 1_455 S
C491 C492 1.355 . S
C491 C493 1.415 . S
C492 C491 1.355 . S
C492 C494 1.419 . S
C493 C488 1.425 . S
C493 C490 1.409 . S
C493 C491 1.415 . S
C494 H484 0.930 . S
C494 C492 1.419 . S
C494 C495 1.362 . S
C495 H485 0.930 . S
C495 C488 1.409 . S
C495 C494 1.362 . S
H496 C502 0.930 . S
H497 C505 0.930 . S
H498 C506 0.933 1_556 S
H499 C507 0.926 1_545 S
H500 C510 0.930 . S
H501 C511 0.930 . S
C502 H496 0.930 . S
C502 C503 1.355 . S
C502 C504 1.415 . S
C503 C502 1.355 . S
C503 C505 1.419 . S
C504 C502 1.415 . S
C504 C509 1.425 . S
C504 C511 1.409 . S
C505 H497 0.930 . S
C505 C503 1.419 . S
C505 C506 1.362 . S
C506 H498 0.933 1_554 S
C506 C505 1.362 . S
C506 C509 1.409 . S
C507 H499 0.926 1_565 S
C507 C508 1.355 . S
C507 C509 1.415 1_556 S
C508 C507 1.355 . S
C508 C510 1.419 . S
C509 C504 1.425 . S
C509 C506 1.409 . S
C509 C507 1.415 1_554 S
C510 H500 0.930 . S
C510 C508 1.419 . S
C510 C511 1.362 1_556 S
C511 H501 0.930 . S
C511 C504 1.409 . S
C511 C510 1.362 1_554 S
H512 C518 0.930 . S
H513 C521 0.930 . S
H514 C522 0.930 . S
H515 C523 0.930 . S
H516 C526 0.930 . S
H517 C527 0.930 . S
C518 H512 0.930 . S
C518 C519 1.355 . S
C518 C520 1.415 . S
C519 C518 1.355 . S
C519 C521 1.419 . S
C520 C518 1.415 . S
C520 C525 1.425 . S
C520 C527 1.409 1_554 S
C521 H513 0.930 . S
C521 C519 1.419 . S
C521 C522 1.362 . S
C522 H514 0.930 . S
C522 C521 1.362 . S
C522 C525 1.409 . S
C523 H515 0.930 . S
C523 C524 1.355 . S
C523 C525 1.415 1_556 S
C524 C523 1.355 . S
C524 C526 1.419 . S
C525 C520 1.425 . S
C525 C522 1.409 . S
C525 C523 1.415 1_554 S
C526 H516 0.930 . S
C526 C524 1.419 . S
C526 C527 1.362 . S
C527 H517 0.930 . S
C527 C520 1.409 1_556 S
C527 C526 1.362 . S
H528 C534 0.930 . S
H529 C537 0.930 . S
H530 C538 0.930 1_556 S
H531 C539 0.930 . S
H532 C542 0.930 . S
H533 C543 0.930 . S
C534 H528 0.930 . S
C534 C535 1.355 . S
C534 C536 1.415 . S
C535 C534 1.355 . S
C535 C537 1.419 . S
C536 C534 1.415 . S
C536 C541 1.425 . S
C536 C543 1.409 . S
C537 H529 0.930 . S
C537 C535 1.419 . S
C537 C538 1.362 . S
C538 H530 0.930 1_554 S
C538 C537 1.362 . S
C538 C541 1.409 . S
C539 H531 0.930 . S
C539 C540 1.355 . S
C539 C541 1.415 1_556 S
C540 C539 1.355 . S
C540 C542 1.419 . S
C541 C536 1.425 . S
C541 C538 1.409 . S
C541 C539 1.415 1_554 S
C542 H532 0.930 . S
C542 C540 1.419 . S
C542 C543 1.362 1_556 S
C543 H533 0.930 . S
C543 C536 1.409 . S
C543 C542 1.362 1_554 S
H544 C550 0.930 . S
H545 C553 0.930 1_455 S
H546 C554 0.930 . S
H547 C555 0.930 1_455 S
H548 C558 0.930 . S
H549 C559 0.930 . S
C550 H544 0.930 . S
C550 C551 1.355 . S
C550 C552 1.415 . S
C551 C550 1.355 . S
C551 C553 1.419 . S
C552 C550 1.415 . S
C552 C557 1.425 . S
C552 C559 1.409 . S
C553 H545 0.930 1_655 S
C553 C551 1.419 . S
C553 C554 1.362 1_655 S
C554 H546 0.930 . S
C554 C553 1.362 1_455 S
C554 C557 1.409 1_455 S
C555 H547 0.930 1_655 S
C555 C556 1.355 . S
C555 C557 1.415 1_556 S
C556 C555 1.355 . S
C556 C558 1.419 . S
C557 C552 1.425 . S
C557 C554 1.409 1_655 S
C557 C555 1.415 1_554 S
C558 H548 0.930 . S
C558 C556 1.419 . S
C558 C559 1.362 1_556 S
C559 H549 0.930 . S
C559 C552 1.409 . S
C559 C558 1.362 1_554 S
H560 C566 0.930 . S
H561 C569 0.930 . S
H562 C570 0.930 . S
H563 C571 0.930 . S
H564 C574 0.930 . S
H565 C575 0.930 . S
C566 H560 0.930 . S
C566 C567 1.355 . S
C566 C568 1.415 . S
C567 C566 1.355 . S
C567 C569 1.419 . S
C568 C566 1.415 . S
C568 C573 1.425 . S
C568 C575 1.409 . S
C569 H561 0.930 . S
C569 C567 1.419 . S
C569 C570 1.362 . S
C570 H562 0.930 . S
C570 C569 1.362 . S
C570 C573 1.409 . S
C571 H563 0.930 . S
C571 C572 1.355 . S
C571 C573 1.415 . S
C572 C571 1.355 . S
C572 C574 1.419 1_455 S
C573 C568 1.425 . S
C573 C570 1.409 . S
C573 C571 1.415 . S
C574 H564 0.930 . S
C574 C572 1.419 1_655 S
C574 C575 1.362 1_655 S
C575 H565 0.930 . S
C575 C568 1.409 . S
C575 C574 1.362 1_455 S
H576 C582 0.930 . S
H577 C585 0.930 . S
H578 C586 0.930 . S
H579 C587 0.930 . S
H580 C590 0.930 . S
H581 C591 0.930 . S
C582 H576 0.930 . S
C582 C583 1.355 . S
C582 C584 1.415 . S
C583 C582 1.355 . S
C583 C585 1.419 . S
C584 C582 1.415 . S
C584 C589 1.425 . S
C584 C591 1.409 1_545 S
C585 H577 0.930 . S
C585 C583 1.419 . S
C585 C586 1.362 . S
C586 H578 0.930 . S
C586 C585 1.362 . S
C586 C589 1.409 . S
C587 H579 0.930 . S
C587 C588 1.389 . S
C587 C589 1.415 . S
C588 C587 1.389 . S
C588 C590 1.398 1_545 S
C589 C584 1.425 . S
C589 C586 1.409 . S
C589 C587 1.415 . S
C590 H580 0.930 . S
C590 C588 1.398 1_565 S
C590 C591 1.362 . S
C591 H581 0.930 . S
C591 C584 1.409 1_565 S
C591 C590 1.362 . S
H592 C598 0.930 . S
H593 C601 0.930 . S
H594 C602 0.930 . S
H595 C603 0.930 . S
H596 C606 0.930 . S
H597 C607 0.930 . S
C598 H592 0.930 . S
C598 C599 1.355 . S
C598 C600 1.415 . S
C599 C598 1.355 . S
C599 C601 1.419 . S
C600 C598 1.415 . S
C600 C605 1.425 . S
C600 C607 1.409 . S
C601 H593 0.930 . S
C601 C599 1.419 . S
C601 C602 1.362 . S
C602 H594 0.930 . S
C602 C601 1.362 . S
C602 C605 1.409 . S
C603 H595 0.930 . S
C603 C604 1.355 . S
C603 C605 1.415 . S
C604 C603 1.355 . S
C604 C606 1.419 . S
C605 C600 1.425 . S
C605 C602 1.409 . S
C605 C603 1.415 . S
C606 H596 0.930 . S
C606 C604 1.419 . S
C606 C607 1.362 . S
C607 H597 0.930 . S
C607 C600 1.409 . S
C607 C606 1.362 . S
H608 C614 0.930 . S
H609 C617 0.930 . S
H610 C618 0.930 . S
H611 C619 0.930 . S
H612 C622 0.930 . S
H613 C623 0.930 . S
C614 H608 0.930 . S
C614 C615 1.355 . S
C614 C616 1.415 . S
C615 C614 1.355 . S
C615 C617 1.419 . S
C616 C614 1.415 . S
C616 C621 1.425 . S
C616 C623 1.409 . S
C617 H609 0.930 . S
C617 C615 1.419 . S
C617 C618 1.362 . S
C618 H610 0.930 . S
C618 C617 1.362 . S
C618 C621 1.409 . S
C619 H611 0.930 . S
C619 C620 1.355 . S
C619 C621 1.415 . S
C620 C619 1.355 . S
C620 C622 1.419 . S
C621 C616 1.425 . S
C621 C618 1.409 . S
C621 C619 1.415 . S
C622 H612 0.930 . S
C622 C620 1.419 . S
C622 C623 1.362 . S
C623 H613 0.930 . S
C623 C616 1.409 . S
C623 C622 1.362 . S
H624 C630 0.930 . S
H625 C633 0.930 . S
H626 C634 0.930 . S
H627 C635 0.930 . S
H628 C638 0.930 . S
H629 C639 0.930 . S
C630 H624 0.930 . S
C630 C631 1.355 . S
C630 C632 1.415 . S
C631 C630 1.355 . S
C631 C633 1.419 . S
C632 C630 1.415 . S
C632 C637 1.425 . S
C632 C639 1.409 1_655 S
C633 H625 0.930 . S
C633 C631 1.419 . S
C633 C634 1.362 . S
C634 H626 0.930 . S
C634 C633 1.362 . S
C634 C637 1.409 . S
C635 H627 0.930 . S
C635 C636 1.355 1_655 S
C635 C637 1.415 . S
C636 C635 1.355 1_455 S
C636 C638 1.419 . S
C637 C632 1.425 . S
C637 C634 1.409 . S
C637 C635 1.415 . S
C638 H628 0.930 . S
C638 C636 1.419 . S
C638 C639 1.362 . S
C639 H629 0.930 . S
C639 C632 1.409 1_455 S
C639 C638 1.362 . S
H640 C646 0.930 . S
H641 C649 0.930 1_545 S
H642 C650 0.930 . S
H643 C651 0.930 . S
H644 C654 0.930 1_556 S
H645 C655 0.930 . S
C646 H640 0.930 . S
C646 C647 1.355 . S
C646 C648 1.415 . S
C647 C646 1.355 . S
C647 C649 1.419 . S
C648 C646 1.415 . S
C648 C653 1.425 1_565 S
C648 C655 1.409 . S
C649 H641 0.930 1_565 S
C649 C647 1.419 . S
C649 C650 1.362 1_565 S
C650 H642 0.930 . S
C650 C649 1.362 1_545 S
C650 C653 1.409 . S
C651 H643 0.930 . S
C651 C652 1.355 . S
C651 C653 1.415 . S
C652 C651 1.355 . S
C652 C654 1.419 1_545 S
C653 C648 1.425 1_545 S
C653 C650 1.409 . S
C653 C651 1.415 . S
C654 H644 0.930 1_554 S
C654 C652 1.419 1_565 S
C654 C655 1.362 . S
C655 H645 0.930 . S
C655 C648 1.409 . S
C655 C654 1.362 . S
H656 C662 0.930 . S
H657 C665 0.930 . S
H658 C666 0.930 . S
H659 C667 0.930 . S
H660 C670 0.930 . S
H661 C671 0.930 . S
C662 H656 0.930 . S
C662 C663 1.355 . S
C662 C664 1.415 . S
C663 C662 1.355 . S
C663 C665 1.419 . S
C664 C662 1.415 . S
C664 C669 1.425 . S
C664 C671 1.409 . S
C665 H657 0.930 . S
C665 C663 1.419 . S
C665 C666 1.362 . S
C666 H658 0.930 . S
C666 C665 1.362 . S
C666 C669 1.409 . S
C667 H659 0.930 . S
C667 C668 1.355 . S
C667 C669 1.415 . S
C668 C667 1.355 . S
C668 C670 1.419 . S
C669 C664 1.425 . S
C669 C666 1.409 . S
C669 C667 1.415 . S
C670 H660 0.930 . S
C670 C668 1.419 . S
C670 C671 1.362 . S
C671 H661 0.930 . S
C671 C664 1.409 . S
C671 C670 1.362 . S
H672 C678 0.930 . S
H673 C681 0.930 . S
H674 C682 0.930 . S
H675 C683 0.930 . S
H676 C686 0.930 . S
H677 C687 0.930 . S
C678 H672 0.930 . S
C678 C679 1.355 . S
C678 C680 1.415 . S
C679 C678 1.355 . S
C679 C681 1.419 . S
C680 C678 1.415 . S
C680 C685 1.425 . S
C680 C687 1.409 . S
C681 H673 0.930 . S
C681 C679 1.419 . S
C681 C682 1.362 . S
C682 H674 0.930 . S
C682 C681 1.362 . S
C682 C685 1.409 . S
C683 H675 0.930 . S
C683 C684 1.355 . S
C683 C685 1.415 . S
C684 C683 1.355 . S
C684 C686 1.419 . S
C685 C680 1.425 . S
C685 C682 1.409 . S
C685 C683 1.415 . S
C686 H676 0.930 . S
C686 C684 1.419 . S
C686 C687 1.362 . S
C687 H677 0.930 . S
C687 C680 1.409 . S
C687 C686 1.362 . S
H688 C694 0.930 . S
H689 C697 0.930 . S
H690 C698 0.930 . S
H691 C699 0.930 . S
H692 C702 0.930 . S
H693 C703 0.930 . S
C694 H688 0.930 . S
C694 C695 1.355 . S
C694 C696 1.415 . S
C695 C694 1.355 . S
C695 C697 1.419 . S
C696 C694 1.415 . S
C696 C701 1.425 . S
C696 C703 1.409 . S
C697 H689 0.930 . S
C697 C695 1.419 . S
C697 C698 1.362 . S
C698 H690 0.930 . S
C698 C697 1.362 . S
C698 C701 1.409 . S
C699 H691 0.930 . S
C699 C700 1.355 . S
C699 C701 1.415 . S
C700 C699 1.355 . S
C700 C702 1.419 . S
C701 C696 1.425 . S
C701 C698 1.409 . S
C701 C699 1.415 . S
C702 H692 0.930 . S
C702 C700 1.419 . S
C702 C703 1.362 . S
C703 H693 0.930 . S
C703 C696 1.409 . S
C703 C702 1.362 . S
H704 C710 0.930 . S
H705 C713 0.930 . S
H706 C714 0.930 1_565 S
H707 C715 0.930 . S
H708 C718 0.930 . S
H709 C719 0.930 . S
C710 H704 0.930 . S
C710 C711 1.355 . S
C710 C712 1.415 . S
C711 C710 1.355 . S
C711 C713 1.419 . S
C712 C710 1.415 . S
C712 C717 1.425 . S
C712 C719 1.409 . S
C713 H705 0.930 . S
C713 C711 1.419 . S
C713 C714 1.362 . S
C714 H706 0.930 1_545 S
C714 C713 1.362 . S
C714 C717 1.409 . S
C715 H707 0.930 . S
C715 C716 1.355 . S
C715 C717 1.415 . S
C716 C715 1.355 . S
C716 C718 1.419 . S
C717 C712 1.425 . S
C717 C714 1.409 . S
C717 C715 1.415 . S
C718 H708 0.930 . S
C718 C716 1.419 . S
C718 C719 1.362 . S
C719 H709 0.930 . S
C719 C712 1.409 . S
C719 C718 1.362 . S
H720 C726 0.930 . S
H721 C729 0.930 . S
H722 C730 0.930 1_554 S
H723 C731 0.930 . S
H724 C734 0.930 . S
H725 C735 0.930 . S
C726 H720 0.930 . S
C726 C727 1.355 . S
C726 C728 1.415 . S
C727 C726 1.355 . S
C727 C729 1.419 . S
C728 C726 1.415 . S
C728 C733 1.425 . S
C728 C735 1.409 . S
C729 H721 0.930 . S
C729 C727 1.419 . S
C729 C730 1.362 . S
C730 H722 0.930 1_556 S
C730 C729 1.362 . S
C730 C733 1.409 . S
C731 H723 0.930 . S
C731 C732 1.355 . S
C731 C733 1.415 . S
C732 C731 1.355 . S
C732 C734 1.419 . S
C733 C728 1.425 . S
C733 C730 1.409 . S
C733 C731 1.415 . S
C734 H724 0.930 . S
C734 C732 1.419 . S
C734 C735 1.362 . S
C735 H725 0.930 . S
C735 C728 1.409 . S
C735 C734 1.362 . S
H736 C742 0.930 . S
H737 C745 0.930 . S
H738 C746 0.930 . S
H739 C747 0.930 . S
H740 C750 0.930 . S
H741 C751 0.936 . S
C742 H736 0.930 . S
C742 C743 1.355 . S
C742 C744 1.415 . S
C743 C742 1.355 . S
C743 C745 1.419 . S
C744 C742 1.415 . S
C744 C749 1.425 . S
C744 C751 1.409 . S
C745 H737 0.930 . S
C745 C743 1.419 . S
C745 C746 1.362 . S
C746 H738 0.930 . S
C746 C745 1.362 . S
C746 C749 1.409 . S
C747 H739 0.930 . S
C747 C748 1.355 . S
C747 C749 1.415 . S
C748 C747 1.355 . S
C748 C750 1.419 . S
C749 C744 1.425 . S
C749 C746 1.409 . S
C749 C747 1.415 . S
C750 H740 0.930 . S
C750 C748 1.419 . S
C750 C751 1.362 . S
C751 H741 0.936 . S
C751 C744 1.409 . S
C751 C750 1.362 . S
H752 C758 0.930 . S
H753 C761 0.930 . S
H754 C762 0.930 . S
H755 C763 0.930 . S
H756 C766 0.930 . S
H757 C767 0.930 . S
C758 H752 0.930 . S
C758 C759 1.355 . S
C758 C760 1.415 . S
C759 C758 1.355 . S
C759 C761 1.419 . S
C760 C758 1.415 . S
C760 C765 1.425 . S
C760 C767 1.409 1_655 S
C761 H753 0.930 . S
C761 C759 1.419 . S
C761 C762 1.362 . S
C762 H754 0.930 . S
C762 C761 1.362 . S
C762 C765 1.409 . S
C763 H755 0.930 . S
C763 C764 1.355 . S
C763 C765 1.415 . S
C764 C763 1.355 . S
C764 C766 1.419 1_655 S
C765 C760 1.425 . S
C765 C762 1.409 . S
C765 C763 1.415 . S
C766 H756 0.930 . S
C766 C764 1.419 1_455 S
C766 C767 1.362 . S
C767 H757 0.930 . S
C767 C760 1.409 1_455 S
C767 C766 1.362 . S
H768 C774 0.930 . S
H769 C777 0.930 . S
H770 C778 0.930 . S
H771 C779 0.930 . S
H772 C782 0.935 . S
H773 C783 0.927 1_545 S
C774 H768 0.930 . S
C774 C775 1.355 . S
C774 C776 1.415 . S
C775 C774 1.355 . S
C775 C777 1.419 . S
C776 C774 1.415 . S
C776 C781 1.425 . S
C776 C783 1.413 . S
C777 H769 0.930 . S
C777 C775 1.419 . S
C777 C778 1.362 . S
C778 H770 0.930 . S
C778 C777 1.362 . S
C778 C781 1.409 . S
C779 H771 0.930 . S
C779 C780 1.355 . S
C779 C781 1.415 . S
C780 C779 1.355 . S
C780 C782 1.414 1_565 S
C781 C776 1.425 . S
C781 C778 1.409 . S
C781 C779 1.415 . S
C782 H772 0.935 . S
C782 C780 1.414 1_545 S
C782 C783 1.362 1_545 S
C783 H773 0.927 1_565 S
C783 C776 1.413 . S
C783 C782 1.362 1_565 S
H784 C790 0.930 . S
H785 C793 0.930 . S
H786 C794 0.930 . S
H787 C795 0.930 . S
H788 C798 0.930 . S
H789 C799 0.930 . S
C790 H784 0.930 . S
C790 C791 1.355 . S
C790 C792 1.415 . S
C791 C790 1.355 . S
C791 C793 1.419 . S
C792 C790 1.415 . S
C792 C797 1.425 . S
C792 C799 1.409 . S
C793 H785 0.930 . S
C793 C791 1.419 . S
C793 C794 1.362 . S
C794 H786 0.930 . S
C794 C793 1.362 . S
C794 C797 1.409 . S
C795 H787 0.930 . S
C795 C796 1.355 . S
C795 C797 1.415 . S
C796 C795 1.355 . S
C796 C798 1.419 . S
C797 C792 1.425 . S
C797 C794 1.409 . S
C797 C795 1.415 . S
C798 H788 0.930 . S
C798 C796 1.419 . S
C798 C799 1.362 . S
C799 H789 0.930 . S
C799 C792 1.409 . S
C799 C798 1.362 . S
H800 C806 0.930 . S
H801 C809 0.930 . S
H802 C810 0.930 . S
H803 C811 0.930 . S
H804 C814 0.930 . S
H805 C815 0.930 . S
C806 H800 0.930 . S
C806 C807 1.355 . S
C806 C808 1.415 . S
C807 C806 1.355 . S
C807 C809 1.419 . S
C808 C806 1.415 . S
C808 C813 1.425 . S
C808 C815 1.409 . S
C809 H801 0.930 . S
C809 C807 1.419 . S
C809 C810 1.362 . S
C810 H802 0.930 . S
C810 C809 1.362 . S
C810 C813 1.409 . S
C811 H803 0.930 . S
C811 C812 1.355 . S
C811 C813 1.415 . S
C812 C811 1.355 . S
C812 C814 1.419 . S
C813 C808 1.425 . S
C813 C810 1.409 . S
C813 C811 1.415 . S
C814 H804 0.930 . S
C814 C812 1.419 . S
C814 C815 1.362 . S
C815 H805 0.930 . S
C815 C808 1.409 . S
C815 C814 1.362 . S
C439 C76 1.910 . S
C444 C170 2.027 . S
C460 C254 1.988 . S
C455 C88 1.848 . S
C476 C320 1.963 . S
C471 C52 1.978 . S
C492 C404 1.956 . S
C487 C64 1.962 . S
C508 C159 1.991 1_565 S
C503 C28 1.854 . S
C519 C40 1.938 . S
C524 C243 2.015 . S
C535 C4 1.952 . S
C540 C331 1.927 . S
C551 C16 1.964 . S
C556 C415 1.941 . S
C572 C166 0.723 1_455 S
C567 C69 0.798 . S
C588 C250 0.633 1_545 S
C583 C81 0.784 . S
C604 C322 0.610 . S
C599 C93 0.773 . S
C615 C57 0.766 . S
C620 C406 0.653 . S
C631 C21 0.800 . S
C636 C154 0.676 . S
C652 C238 0.760 . S
C647 C33 0.638 . S
C668 C334 0.708 . S
C663 C45 0.617 . S
C679 C9 0.779 . S
C684 C418 0.647 . S
C695 C66 2.037 . S
C700 C163 2.143 . S
C711 C78 2.027 . S
C716 C247 2.131 . S
C732 C327 2.170 . S
C727 C90 1.913 . S
C748 C411 2.178 . S
C743 C54 2.018 . S
C759 C18 2.049 . S
C764 C152 2.106 . S
C780 C236 2.126 . S
C775 C30 2.065 . S
C796 C338 2.173 . S
C791 C42 1.900 . S
C807 C6 1.969 . S
C812 C422 2.198 . S
