# Generated by pormake.
# Topology anh, (6,3)-cn, num edge types: 1
# Building blocks:
#     Node 0, Type 0, BuildingBlock: BETDEL_clean_sbu_0, # of connection points: 6
#     Node 1, Type 0, BuildingBlock: BETDEL_clean_sbu_0, # of connection points: 6
#     Node 2, Type 0, BuildingBlock: BETDEL_clean_sbu_0, # of connection points: 6
#     Node 3, Type 1, BuildingBlock: QEWDON_clean_linker_0, # of connection points: 3
#     Node 4, Type 1, BuildingBlock: QEWDON_clean_linker_0, # of connection points: 3
#     Node 5, Type 1, BuildingBlock: QEWDON_clean_linker_0, # of connection points: 3
#     Node 6, Type 1, BuildingBlock: QEWDON_clean_linker_0, # of connection points: 3
#     Node 7, Type 1, BuildingBlock: QEWDON_clean_linker_0, # of connection points: 3
#     Node 8, Type 1, BuildingBlock: QEWDON_clean_linker_0, # of connection points: 3
#     Edge 9, Type (0, 1), BuildingBlock: EZIPEK_clean_linker_0, # of connection points: 2
#     Edge 10, Type (0, 1), BuildingBlock: EZIPEK_clean_linker_0, # of connection points: 2
#     Edge 11, Type (0, 1), BuildingBlock: EZIPEK_clean_linker_0, # of connection points: 2
#     Edge 12, Type (0, 1), BuildingBlock: EZIPEK_clean_linker_0, # of connection points: 2
#     Edge 13, Type (0, 1), BuildingBlock: EZIPEK_clean_linker_0, # of connection points: 2
#     Edge 14, Type (0, 1), BuildingBlock: EZIPEK_clean_linker_0, # of connection points: 2
#     Edge 15, Type (0, 1), BuildingBlock: EZIPEK_clean_linker_0, # of connection points: 2
#     Edge 16, Type (0, 1), BuildingBlock: EZIPEK_clean_linker_0, # of connection points: 2
#     Edge 17, Type (0, 1), BuildingBlock: EZIPEK_clean_linker_0, # of connection points: 2
#     Edge 18, Type (0, 1), BuildingBlock: EZIPEK_clean_linker_0, # of connection points: 2
#     Edge 19, Type (0, 1), BuildingBlock: EZIPEK_clean_linker_0, # of connection points: 2
#     Edge 20, Type (0, 1), BuildingBlock: EZIPEK_clean_linker_0, # of connection points: 2
#     Edge 21, Type (0, 1), BuildingBlock: EZIPEK_clean_linker_0, # of connection points: 2
#     Edge 22, Type (0, 1), BuildingBlock: EZIPEK_clean_linker_0, # of connection points: 2
#     Edge 23, Type (0, 1), BuildingBlock: EZIPEK_clean_linker_0, # of connection points: 2
#     Edge 24, Type (0, 1), BuildingBlock: EZIPEK_clean_linker_0, # of connection points: 2
#     Edge 25, Type (0, 1), BuildingBlock: EZIPEK_clean_linker_0, # of connection points: 2
#     Edge 26, Type (0, 1), BuildingBlock: EZIPEK_clean_linker_0, # of connection points: 2
# Relax obj value: 0.106
# Max RMSD: 0.136
# Mean RMSD: 0.121
data_MOF--net-anh--node1-BETDEL_clean_sbu_0--node2-QEWDON_clean_linker_0--edge1-EZIPEK_clean_linker_0
_symmetry_space_group_name_H-M    P1
_symmetry_Int_Tables_number       1
_symmetry_cell_setting            triclinic
loop_
_symmetry_equiv_pos_as_xyz
'x, y, z'
_cell_length_a     23.389887
_cell_length_b     23.489535
_cell_length_c     33.978939
_cell_angle_alpha  94.094721
_cell_angle_beta   93.943301
_cell_angle_gamma 120.00871
loop_
_atom_site_label
_atom_site_type_symbol
_atom_site_fract_x
_atom_site_fract_y
_atom_site_fract_z
_atom_type_partial_charge
Dy0 Dy 0.08554 0.48901 0.15713 0.0
C1 C 0.94289 0.63165 0.18581 0.0
C2 C 0.16634 0.44361 0.13396 0.0
Dy3 Dy 1.00515 0.56467 0.16311 0.0
O4 O 0.16361 0.46287 0.17015 0.0
O5 O 0.12282 0.44758 0.11007 0.0
O6 O 0.09383 0.47635 0.22277 0.0
O7 O 0.04561 0.52288 0.20153 0.0
C8 C 0.06278 0.50709 0.23271 0.0
C9 C 1.01853 0.52649 0.08916 0.0
O10 O 0.11122 0.6501 0.18101 0.0
O11 O 0.16761 0.597 0.16039 0.0
O12 O 0.97939 0.64391 0.15679 0.0
O13 O 0.94074 0.5823 0.2021 0.0
O14 O 0.96826 0.53213 0.09808 0.0
O15 O 0.06094 0.5474 0.11953 0.0
O16 O 0.97938 0.4024 0.14431 0.0
O17 O 0.92332 0.45778 0.16241 0.0
C18 C 0.16734 0.65188 0.17338 0.0
C19 C 0.92405 0.40225 0.15213 0.0
Dy20 Dy 0.4941 0.02725 0.48804 0.0
C21 C 0.76743 0.19633 0.5242 0.0
C22 C 0.36201 0.94174 0.46526 0.0
Dy23 Dy 0.6371 0.09989 0.50128 0.0
O24 O 0.38641 0.98747 0.49532 0.0
O25 O 0.40978 0.94292 0.4474 0.0
O26 O 0.49103 0.06516 0.54945 0.0
O27 O 0.56407 0.0411 0.54017 0.0
C28 C 0.54117 0.06282 0.56602 0.0
C29 C 0.59293 0.06214 0.42344 0.0
O30 O 0.62323 0.99915 0.51152 0.0
O31 O 0.51352 0.94175 0.48366 0.0
O32 O 0.7468 0.14573 0.49752 0.0
O33 O 0.71642 0.19146 0.53979 0.0
O34 O 0.64894 0.07165 0.43988 0.0
O35 O 0.56701 0.08196 0.4485 0.0
O36 O 0.50756 0.12582 0.47551 0.0
O37 O 0.61261 0.18223 0.50929 0.0
C38 C 0.56823 0.94217 0.49739 0.0
C39 C 0.55937 0.18208 0.49295 0.0
Dy40 Dy 0.65437 0.62735 0.82687 0.0
C41 C 0.54115 0.35775 0.83473 0.0
C42 C 0.71368 0.75387 0.80754 0.0
Dy43 Dy 0.58391 0.4877 0.83058 0.0
O44 O 0.73351 0.73518 0.83811 0.0
O45 O 0.66219 0.70252 0.78754 0.0
O46 O 0.62912 0.64813 0.88619 0.0
O47 O 0.64612 0.56965 0.8769 0.0
C48 C 0.62889 0.59925 0.90142 0.0
C49 C 0.58059 0.52035 0.75582 0.0
O50 O 0.5027 0.50728 0.84624 0.0
O51 O 0.54652 0.60176 0.81581 0.0
O52 O 0.57145 0.39092 0.80667 0.0
O53 O 0.53397 0.39539 0.86141 0.0
O54 O 0.52882 0.47973 0.77165 0.0
O55 O 0.63018 0.54496 0.78185 0.0
O56 O 0.74378 0.6151 0.82564 0.0
O57 O 0.68928 0.50775 0.84134 0.0
C58 C 0.4965 0.55505 0.83191 0.0
C59 C 0.74458 0.56155 0.83488 0.0
H60 H 0.5907 0.06968 0.23763 0.0
C61 C 0.54292 0.02699 0.22618 0.0
C62 C 0.50141 0.99015 0.25377 0.0
C63 C 0.52556 1.00651 0.18499 0.0
H64 H 0.41058 0.90274 0.26246 0.0
C65 C 0.44112 0.93168 0.24073 0.0
C66 C 0.42088 0.90892 0.20013 0.0
C67 C 0.46282 0.94706 0.17231 0.0
C68 C 0.57556 0.04401 0.15635 0.0
H69 H 0.4463 0.92934 0.14109 0.0
C70 C 0.62929 0.11141 0.16599 0.0
C71 C 0.67793 0.14261 0.13958 0.0
C72 C 0.57249 1.01052 0.11942 0.0
H73 H 0.53513 0.95914 0.11069 0.0
C74 C 0.61914 0.04169 0.09322 0.0
H75 H 0.63398 0.14001 0.19364 0.0
C76 C 0.67124 0.10671 0.10314 0.0
H77 H 0.70718 0.12902 0.08235 0.0
H78 H 0.61551 1.01462 0.06511 0.0
H79 H 0.56142 0.58516 0.57603 0.0
C80 C 0.56562 0.54536 0.56099 0.0
C81 C 0.57695 0.50372 0.58383 0.0
C82 C 0.55392 0.53246 0.51928 0.0
H83 H 0.58711 0.41756 0.58316 0.0
C84 C 0.57943 0.45 0.56511 0.0
C85 C 0.56746 0.43468 0.52374 0.0
C86 C 0.5548 0.47628 0.50073 0.0
C87 C 0.52928 0.57064 0.4967 0.0
H88 H 0.54348 0.4636 0.46879 0.0
C89 C 0.55603 0.64053 0.50567 0.0
C90 C 0.52487 0.67259 0.48736 0.0
C91 C 0.47253 0.53473 0.46865 0.0
H92 H 0.44983 0.48163 0.46155 0.0
C93 C 0.44182 0.56578 0.45091 0.0
H94 H 0.60028 0.66953 0.52678 0.0
C95 C 0.46699 0.63341 0.46044 0.0
H96 H 0.44143 0.65565 0.44617 0.0
H97 H 0.39744 0.53693 0.42989 0.0
H98 H 0.14628 0.55423 0.91426 0.0
C99 C 0.10162 0.55072 0.90009 0.0
C100 C 0.05166 0.54266 0.92385 0.0
C101 C 0.09498 0.55738 0.85918 0.0
H102 H 0.95784 0.53807 0.9262 0.0
C103 C 0.995 0.54214 0.90733 0.0
C104 C 0.98658 0.54936 0.8673 0.0
C105 C 1.03556 0.55513 0.84311 0.0
C106 C 0.15102 0.57086 0.83407 0.0
H107 H 1.02675 0.55861 0.81199 0.0
C108 C 0.20197 0.55571 0.84442 0.0
C109 C 0.25425 0.57106 0.82044 0.0
C110 C 0.1555 0.60223 0.7995 0.0
H111 H 0.12129 0.61858 0.79084 0.0
C112 C 0.20572 0.61546 0.77555 0.0
H113 H 0.20172 0.53231 0.87072 0.0
C114 C 0.25441 0.5999 0.78576 0.0
H115 H 0.29367 0.61212 0.76701 0.0
H116 H 0.20764 0.63929 0.74914 0.0
H117 H 0.96659 0.52154 0.4093 0.0
C118 C 1.00465 0.57314 0.41726 0.0
C119 C 0.04774 0.60696 0.38958 0.0
C120 C 1.01089 0.60576 0.45512 0.0
H121 H 0.13267 0.69873 0.37925 0.0
C122 C 0.09753 0.67321 0.39998 0.0
C123 C 0.10629 0.70488 0.43811 0.0
C124 C 0.06203 0.67192 0.46539 0.0
C125 C 0.96558 0.56977 0.4843 0.0
H126 H 0.06981 0.69649 0.49516 0.0
C127 C 0.95152 0.50572 0.49032 0.0
C128 C 0.90286 0.46816 0.51441 0.0
C129 C 0.93389 0.59792 0.50493 0.0
H130 H 0.94407 0.64733 0.50087 0.0
C131 C 0.88693 0.56149 0.52993 0.0
H132 H 0.97661 0.48396 0.47513 0.0
C133 C 0.87072 0.49659 0.53426 0.0
H134 H 0.8327 0.4683 0.55278 0.0
H135 H 0.86197 0.58308 0.54531 0.0
H136 H 0.56122 0.98307 0.74304 0.0
C137 C 0.55508 1.02162 0.75807 0.0
C138 C 0.54672 0.0652 0.73566 0.0
C139 C 0.55524 0.02749 0.79959 0.0
H140 H 0.53289 0.14937 0.73743 0.0
C141 C 0.53837 0.1149 0.75468 0.0
C142 C 0.53826 0.12093 0.79601 0.0
C143 C 0.54573 0.07674 0.81833 0.0
C144 C 0.56684 0.98302 0.82322 0.0
H145 H 0.54682 0.08262 0.85036 0.0
C146 C 0.61578 0.96783 0.81435 0.0
C147 C 0.62187 0.9197 0.83309 0.0
C148 C 0.52759 0.9534 0.85348 0.0
H149 H 0.48947 0.96427 0.86089 0.0
C150 C 0.53582 0.90764 0.87356 0.0
H151 H 0.64722 0.99107 0.79155 0.0
C152 C 0.5822 0.89017 0.86312 0.0
H153 H 0.58642 0.85286 0.87794 0.0
H154 H 0.505 0.88442 0.89654 0.0
H155 H 0.56395 0.61756 0.07118 0.0
C156 C 0.60707 0.62498 0.09 0.0
C157 C 0.65929 0.62472 0.07244 0.0
C158 C 0.61045 0.63516 0.13152 0.0
H159 H 0.75498 0.63268 0.0827 0.0
C160 C 0.71495 0.63382 0.09639 0.0
C161 C 0.71963 0.64533 0.13785 0.0
C162 C 0.66788 0.64728 0.15534 0.0
C163 C 0.55287 0.63073 0.14966 0.0
H164 H 0.67139 0.65549 0.18744 0.0
C165 C 0.48812 0.57952 0.13494 0.0
C166 C 0.43316 0.57543 0.15139 0.0
C167 C 0.56188 0.67721 0.1815 0.0
H168 H 0.6112 0.71735 0.1932 0.0
C169 C 0.50699 0.67286 0.19805 0.0
H170 H 0.48022 0.54249 0.11088 0.0
C171 C 0.44282 0.62222 0.18308 0.0
H172 H 0.40065 0.61944 0.19615 0.0
H173 H 0.51418 0.70896 0.22244 0.0
C174 C 0.26158 0.42881 0.15199 0.0
C175 C 0.22659 0.44391 0.12296 0.0
C176 C 0.33024 0.52809 0.10233 0.0
C177 C 0.36489 0.52158 0.13607 0.0
N178 N 0.36876 0.45375 0.18484 0.0
N179 N 0.226 0.48018 0.05883 0.0
C180 C 0.33219 0.4671 0.15794 0.0
C181 C 0.26059 0.48394 0.09386 0.0
N182 N 0.22621 0.38075 0.1752 0.0
N183 N 0.36296 0.57862 0.08008 0.0
H184 H 0.17554 0.44506 0.05185 0.0
H185 H 0.2484 0.50567 0.03531 0.0
H186 H 0.41425 0.61106 0.08509 0.0
H187 H 0.33889 0.59029 0.05791 0.0
H188 H 0.24709 0.3702 0.1996 0.0
H189 H 0.17446 0.35128 0.16951 0.0
H190 H 0.34867 0.41326 0.20078 0.0
H191 H 0.42064 0.48148 0.18933 0.0
C192 C 0.85328 0.30764 0.55842 0.0
C193 C 0.82766 0.26185 0.52346 0.0
C194 C 0.85852 0.35125 0.48255 0.0
C195 C 0.88304 0.39788 0.51735 0.0
N196 N 0.92358 0.42228 0.58733 0.0
N197 N 0.83816 0.24461 0.45416 0.0
C198 C 0.88712 0.37669 0.55508 0.0
C199 C 0.84176 0.28526 0.48615 0.0
N200 N 0.84306 0.28475 0.59458 0.0
N201 N 0.84626 0.36802 0.44655 0.0
H202 H 0.83159 0.19783 0.45687 0.0
H203 H 0.85141 0.26108 0.42671 0.0
H204 H 0.85269 0.41438 0.44267 0.0
H205 H 0.82249 0.33331 0.42137 0.0
H206 H 0.85335 0.31509 0.62111 0.0
H207 H 0.82194 0.23439 0.59746 0.0
H208 H 0.93243 0.40949 0.61487 0.0
H209 H 0.9503 0.47307 0.58542 0.0
C210 C 0.68913 0.82871 0.77322 0.0
C211 C 0.72643 0.8218 0.80478 0.0
C212 C 0.72166 0.90751 0.84684 0.0
C213 C 0.66707 0.89707 0.81992 0.0
N214 N 0.59991 0.84909 0.75574 0.0
N215 N 0.801 0.87222 0.865 0.0
C216 C 0.65244 0.85996 0.7819 0.0
C217 C 0.75118 0.86808 0.83938 0.0
N218 N 0.68609 0.80159 0.73574 0.0
N219 N 0.74379 0.95403 0.87937 0.0
H220 H 0.82633 0.84772 0.85736 0.0
H221 H 0.81856 0.9007 0.89266 0.0
H222 H 0.72345 0.98422 0.88449 0.0
H223 H 0.78398 0.96544 0.90004 0.0
H224 H 0.66299 0.80831 0.71066 0.0
H225 H 0.71317 0.77816 0.72996 0.0
H226 H 0.58343 0.81653 0.72956 0.0
H227 H 0.56926 0.8683 0.76129 0.0
C228 C 0.83466 0.61355 0.2052 0.0
C229 C 0.895 0.6552 0.19032 0.0
C230 C 0.84268 0.71019 0.15788 0.0
C231 C 0.77962 0.65524 0.16232 0.0
N232 N 0.71519 0.55294 0.1906 0.0
N233 N 0.96239 0.75586 0.16251 0.0
C234 C 0.7752 0.60712 0.1869 0.0
C235 C 0.90107 0.70834 0.1702 0.0
N236 N 0.83444 0.58094 0.23684 0.0
N237 N 0.84607 0.76342 0.14191 0.0
H238 H 1.00587 0.75881 0.17522 0.0
H239 H 0.97031 0.79189 0.14397 0.0
H240 H 0.8037 0.76603 0.13361 0.0
H241 H 0.8903 0.80684 0.13978 0.0
H242 H 0.79199 0.55277 0.25041 0.0
H243 H 0.87867 0.59037 0.25272 0.0
H244 H 0.71084 0.51333 0.20485 0.0
H245 H 0.67012 0.54475 0.17679 0.0
C246 C 0.23971 0.8854 0.4431 0.0
C247 C 0.29475 0.88349 0.46164 0.0
C248 C 0.22438 0.76627 0.46878 0.0
C249 C 0.16885 0.76808 0.45076 0.0
N250 N 0.11959 0.82964 0.42681 0.0
N251 N 0.33776 0.82821 0.50075 0.0
C252 C 0.17527 0.82799 0.43989 0.0
C253 C 0.28653 0.82576 0.47717 0.0
N254 N 0.24962 0.94127 0.42751 0.0
N255 N 0.21851 0.70715 0.47614 0.0
H256 H 0.3845 0.87079 0.50746 0.0
H257 H 0.33241 0.78983 0.51661 0.0
H258 H 0.17347 0.66235 0.4717 0.0
H259 H 0.25907 0.70158 0.48411 0.0
H260 H 0.21296 0.94401 0.41003 0.0
H261 H 0.29612 0.98443 0.43024 0.0
H262 H 0.11971 0.87277 0.42149 0.0
H263 H 0.07194 0.78802 0.42415 0.0
C264 C 0.58946 0.28913 0.85024 0.0
C265 C 0.53188 0.29208 0.83887 0.0
C266 C 0.47265 0.17522 0.81189 0.0
C267 C 0.53404 0.17645 0.81596 0.0
N268 N 0.65213 0.23463 0.83788 0.0
N269 N 0.41746 0.2396 0.81104 0.0
C270 C 0.59266 0.23292 0.83566 0.0
C271 C 0.47253 0.23512 0.82102 0.0
N272 N 0.64146 0.34107 0.8742 0.0
N273 N 0.41505 0.11695 0.79909 0.0
H274 H 0.4158 0.28242 0.81919 0.0
H275 H 0.3747 0.20227 0.79373 0.0
H276 H 0.4141 0.07244 0.79221 0.0
H277 H 0.36799 0.1115 0.79838 0.0
H278 H 0.68306 0.34013 0.8863 0.0
H279 H 0.63973 0.38283 0.88507 0.0
H280 H 0.69768 0.27724 0.84761 0.0
H281 H 0.65689 0.19459 0.82738 0.0
C282 C 0.56754 0.8485 0.53238 0.0
C283 C 0.56617 0.87655 0.49669 0.0
C284 C 0.56158 0.78039 0.45903 0.0
C285 C 0.55122 0.74685 0.49333 0.0
N286 N 0.53726 0.74799 0.56301 0.0
N287 N 0.54401 0.85797 0.42502 0.0
C288 C 0.55322 0.781 0.53033 0.0
C289 C 0.55834 0.83941 0.45976 0.0
N290 N 0.58046 0.88541 0.56824 0.0
N291 N 0.57441 0.75556 0.42537 0.0
H292 H 0.53735 0.89845 0.42396 0.0
H293 H 0.53142 0.82884 0.3977 0.0
H294 H 0.57893 0.71347 0.42416 0.0
H295 H 0.58781 0.78087 0.40051 0.0
H296 H 0.58887 0.8706 0.59515 0.0
H297 H 0.58739 0.93302 0.57088 0.0
H298 H 0.53037 0.7674 0.58959 0.0
H299 H 0.52598 0.69906 0.5627 0.0
C300 C 0.86537 0.61319 0.86449 0.0
C301 C 0.80918 0.56171 0.8394 0.0
C302 C 0.87105 0.50286 0.8297 0.0
C303 C 0.92826 0.55628 0.8528 0.0
N304 N 0.98451 0.66915 0.88395 0.0
N305 N 0.76471 0.46514 0.79076 0.0
C306 C 0.9268 0.61372 0.86736 0.0
C307 C 0.81387 0.50873 0.81982 0.0
N308 N 0.85924 0.65922 0.88786 0.0
N309 N 0.87025 0.44545 0.81843 0.0
H310 H 0.72343 0.46907 0.7817 0.0
H311 H 0.76809 0.42929 0.77287 0.0
H312 H 0.91145 0.43992 0.82432 0.0
H313 H 0.82745 0.40198 0.80578 0.0
H314 H 0.89644 0.69338 0.90983 0.0
H315 H 0.81473 0.65911 0.88839 0.0
H316 H 0.98801 0.71464 0.89154 0.0
H317 H 1.03033 0.67137 0.88638 0.0
C318 C 0.29259 0.72358 0.19693 0.0
C319 C 0.23288 0.71812 0.17866 0.0
C320 C 0.2973 0.83889 0.17306 0.0
C321 C 0.35731 0.84257 0.1883 0.0
N322 N 0.41351 0.78436 0.20648 0.0
N323 N 0.18422 0.77026 0.14094 0.0
C324 C 0.35521 0.78349 0.19751 0.0
C325 C 0.2369 0.7758 0.16445 0.0
N326 N 0.28949 0.6731 0.2161 0.0
N327 N 0.29724 0.896 0.16788 0.0
H328 H 0.14016 0.72555 0.13271 0.0
H329 H 0.18665 0.80866 0.12619 0.0
H330 H 0.34031 0.94258 0.17283 0.0
H331 H 0.25386 0.89758 0.16161 0.0
H332 H 0.33003 0.67689 0.23343 0.0
H333 H 0.24507 0.63003 0.2185 0.0
H334 H 0.41588 0.74171 0.20934 0.0
H335 H 0.45999 0.82695 0.20707 0.0
C336 C 0.50297 0.24913 0.50863 0.0
C337 C 0.55802 0.24617 0.49522 0.0
C338 C 0.61752 0.36814 0.49526 0.0
C339 C 0.56123 0.37019 0.50677 0.0
N340 N 0.44514 0.31059 0.5152 0.0
N341 N 0.66134 0.30207 0.46672 0.0
C342 C 0.5022 0.30981 0.51012 0.0
C343 C 0.61345 0.30555 0.48585 0.0
N344 N 0.45348 0.19562 0.52301 0.0
N345 N 0.67574 0.42617 0.49455 0.0
H346 H 0.65891 0.25739 0.4579 0.0
H347 H 0.69983 0.34248 0.45598 0.0
H348 H 0.67956 0.47236 0.49959 0.0
H349 H 0.72086 0.42861 0.49135 0.0
H350 H 0.41623 0.1973 0.53726 0.0
H351 H 0.45304 0.15135 0.52468 0.0
H352 H 0.3988 0.26776 0.51385 0.0
H353 H 0.44309 0.35406 0.51677 0.0
C354 C 0.43361 0.61377 0.85099 0.0
C355 C 0.43237 0.55615 0.8333 0.0
C356 C 0.30977 0.50191 0.81853 0.0
C357 C 0.31274 0.56225 0.8314 0.0
N358 N 0.37806 0.67731 0.85808 0.0
N359 N 0.3685 0.44703 0.79624 0.0
C360 C 0.37486 0.61845 0.84737 0.0
C361 C 0.37001 0.50025 0.81651 0.0
N362 N 0.49044 0.66338 0.87274 0.0
N363 N 0.24904 0.44605 0.80796 0.0
H364 H 0.41085 0.44391 0.7932 0.0
H365 H 0.32613 0.40823 0.77944 0.0
H366 H 0.20455 0.44617 0.80842 0.0
H367 H 0.24236 0.39885 0.80224 0.0
H368 H 0.49292 0.70312 0.89006 0.0
H369 H 0.53402 0.66187 0.87656 0.0
H370 H 0.42248 0.72245 0.86435 0.0
H371 H 0.33584 0.68165 0.85866 0.0
C372 C 0.85548 0.28873 0.17588 0.0
C373 C 0.85972 0.33664 0.1509 0.0
C374 C 0.73958 0.26348 0.12762 0.0
C375 C 0.73756 0.21237 0.14862 0.0
N376 N 0.79631 0.17425 0.18984 0.0
N377 N 0.80663 0.36519 0.09894 0.0
C378 C 0.79624 0.22467 0.17216 0.0
C379 C 0.80171 0.32299 0.12594 0.0
N380 N 0.90719 0.30517 0.20438 0.0
N381 N 0.68152 0.25524 0.10947 0.0
H382 H 0.85114 0.40801 0.096 0.0
H383 H 0.7683 0.35485 0.07698 0.0
H384 H 0.6356 0.21259 0.11027 0.0
H385 H 0.67789 0.29271 0.09702 0.0
H386 H 0.90452 0.27554 0.22638 0.0
H387 H 0.95089 0.3512 0.20838 0.0
H388 H 0.83929 0.17712 0.20312 0.0
H389 H 0.75381 0.12774 0.18898 0.0
C390 C 0.06451 0.59399 0.03308 0.0
C391 C 0.03743 0.53182 0.04815 0.0
C392 C 1.03233 0.47782 0.9823 0.0
C393 C 0.05906 0.53996 0.96742 0.0
N394 N 0.11568 0.65879 0.97981 0.0
N395 N 1.00708 0.41712 0.03978 0.0
C396 C 0.08046 0.59863 -0.00661 0.0
C397 C 1.02541 0.47455 0.0236 0.0
N398 N 0.07171 0.64793 0.05604 0.0
N399 N 1.0108 0.42172 0.95653 0.0
H400 H 0.99956 0.41283 0.06956 0.0
H401 H 1.00389 0.37533 0.02466 0.0
H402 H 1.01786 0.423 0.92654 0.0
H403 H 0.98352 0.37398 0.96425 0.0
H404 H 0.08392 0.69263 0.0454 0.0
H405 H 0.06047 0.64667 0.0852 0.0
H406 H 0.13848 0.70377 -0.00192 0.0
H407 H 0.12745 0.66352 0.9507 0.0
C408 C 0.58685 1.00261 0.35621 0.0
C409 C 0.5726 0.0465 0.37932 0.0
C410 C 0.50804 0.04971 0.32005 0.0
C411 C 0.52522 1.00915 0.29699 0.0
N412 N 0.59067 0.95669 0.29084 0.0
N413 N 0.54017 0.12951 0.37808 0.0
C414 C 0.56775 0.9888 0.3144 0.0
C415 C 0.53853 0.0748 0.35993 0.0
N416 N 0.6163 0.97163 0.37387 0.0
N417 N 0.46287 0.06476 0.30382 0.0
H418 H 0.56942 0.15535 0.40484 0.0
H419 H 0.5206 0.15508 0.36401 0.0
H420 H 0.44134 0.04927 0.27427 0.0
H421 H 0.44289 0.08796 0.32056 0.0
H422 H 0.61896 0.93269 0.35923 0.0
H423 H 0.63327 0.97952 0.40387 0.0
H424 H 0.62941 0.94931 0.30056 0.0
H425 H 0.57464 0.94165 0.26054 0.0
C426 C 0.63431 0.57004 0.69402 0.0
C427 C 0.58453 0.51633 0.71182 0.0
C428 C 0.52686 0.46071 0.64551 0.0
C429 C 0.57866 0.5111 0.62778 0.0
N430 N 0.68837 0.60744 0.63483 0.0
N431 N 0.50249 0.39882 0.70137 0.0
C432 C 0.63427 0.56418 0.65193 0.0
C433 C 0.53589 0.45828 0.68677 0.0
N434 N 0.68155 0.62697 0.71671 0.0
N435 N 0.46876 0.41482 0.62301 0.0
H436 H 0.51535 0.39134 0.72969 0.0
H437 H 0.46995 0.35465 0.68331 0.0
H438 H 0.45957 0.41548 0.5926 0.0
H439 H 0.42742 0.38061 0.63548 0.0
H440 H 0.71175 0.67057 0.70485 0.0
H441 H 0.68975 0.63207 0.74741 0.0
H442 H 0.73367 0.64229 0.65106 0.0
H443 H 0.68995 0.60493 0.60419 0.0
C444 C 0.48716 1.01119 0.62524 0.0
C445 C 0.54594 0.05388 0.6088 0.0
C446 C 0.60775 0.09581 0.67561 0.0
C447 C 0.54717 0.05893 0.69198 0.0
N448 N 0.42858 0.98389 0.68346 0.0
N449 N 0.66531 0.11857 0.61675 0.0
C450 C 0.48676 1.01672 0.66709 0.0
C451 C 0.6074 0.09084 0.63355 0.0
N452 N 0.43319 0.96232 0.6008 0.0
N453 N 0.665 0.13727 0.70036 0.0
H454 H 0.66597 0.11089 0.58633 0.0
H455 H 0.71251 0.14267 0.63268 0.0
H456 H 0.66739 0.14041 0.73127 0.0
H457 H 0.70945 0.17127 0.69065 0.0
H458 H 0.39074 0.92556 0.61096 0.0
H459 H 0.4339 0.95367 0.57035 0.0
H460 H 0.38182 0.95901 0.6669 0.0
H461 H 0.42651 0.98511 0.71406 0.0
C462 C 0.69454 0.66083 0.96682 0.0
C463 C 0.64176 0.60182 0.94493 0.0
C464 C 0.61025 0.55315 0.00691 0.0
C465 C 0.65578 0.61578 0.0286 0.0
N466 N 0.73573 0.73208 0.02935 0.0
N467 N 0.54683 0.49229 0.94366 0.0
C468 C 0.69675 0.67041 0.00864 0.0
C469 C 0.59922 0.54775 0.96481 0.0
N470 N 0.74387 0.70677 0.94781 0.0
N471 N 0.57869 0.49873 0.02654 0.0
H472 H 0.5385 0.48607 0.91279 0.0
H473 H 0.50939 0.45446 0.95671 0.0
H474 H 0.58591 0.50102 0.05739 0.0
H475 H 0.55004 0.45059 0.01219 0.0
H476 H 0.78686 0.7476 0.96278 0.0
H477 H 0.74554 0.70027 0.91732 0.0
H478 H 0.76077 0.77486 0.01564 0.0
H479 H 0.73853 0.74155 0.06009 0.0
C480 C 0.99419 0.51688 0.28396 0.0
C481 C 0.05609 0.5263 0.274 0.0
C482 C 0.1037 0.56898 0.34334 0.0
C483 C 0.04656 0.57227 0.35098 0.0
N484 N 0.93836 0.55418 0.32733 0.0
N485 N 0.17374 0.57132 0.29405 0.0
C486 C 0.99177 0.54732 0.32099 0.0
C487 C 0.11192 0.55455 0.30369 0.0
N488 N 0.93729 0.47603 0.25906 0.0
N489 N 0.1497 0.57865 0.3741 0.0
H490 H 0.18345 0.56419 0.26528 0.0
H491 H 0.21678 0.59866 0.31409 0.0
H492 H 0.14415 0.58724 0.40377 0.0
H493 H 0.18919 0.57076 0.37046 0.0
H494 H 0.88999 0.46316 0.2661 0.0
H495 H 0.93704 0.44822 0.23378 0.0
H496 H 0.89918 0.54102 0.30535 0.0
H497 H 0.93533 0.57749 0.35371 0.0
loop_
_geom_bond_atom_site_label_1
_geom_bond_atom_site_label_2
_geom_bond_distance
_geom_bond_site_symmetry_2
_ccdc_geom_bond_type
Dy0 O4 2.398 . S
Dy0 O5 2.491 . S
Dy0 O6 2.403 . S
Dy0 O7 2.664 . S
Dy0 O11 2.326 . S
Dy0 O15 2.310 . S
Dy0 O16 2.351 1_455 S
C1 O12 1.185 . S
C1 O13 1.355 . S
C2 O4 1.185 . S
C2 O5 1.355 . S
Dy3 O7 2.310 1_655 S
Dy3 O10 2.351 1_655 S
Dy3 O12 2.398 . S
Dy3 O13 2.491 . S
Dy3 O14 2.403 . S
Dy3 O15 2.664 1_655 S
Dy3 O17 2.326 . S
O4 Dy0 2.398 . S
O4 C2 1.185 . S
O5 Dy0 2.491 . S
O5 C2 1.355 . S
O6 Dy0 2.403 . S
O6 C8 1.254 . S
O7 Dy0 2.664 . S
O7 Dy3 2.310 1_455 S
O7 C8 1.268 . S
C8 O6 1.254 . S
C8 O7 1.268 . S
C9 O14 1.254 1_455 S
C9 O15 1.268 . S
O10 Dy3 2.351 1_455 S
O10 C18 1.249 . S
O11 Dy0 2.326 . S
O11 C18 1.267 . S
O12 C1 1.185 . S
O12 Dy3 2.398 . S
O13 C1 1.355 . S
O13 Dy3 2.491 . S
O14 Dy3 2.403 . S
O14 C9 1.254 1_655 S
O15 Dy0 2.310 . S
O15 Dy3 2.664 1_455 S
O15 C9 1.268 . S
O16 Dy0 2.351 1_655 S
O16 C19 1.249 . S
O17 Dy3 2.326 . S
O17 C19 1.267 . S
C18 O10 1.249 . S
C18 O11 1.267 . S
C19 O16 1.249 . S
C19 O17 1.267 . S
Dy20 O24 2.398 . S
Dy20 O25 2.491 . S
Dy20 O26 2.403 1_565 S
Dy20 O27 2.664 1_565 S
Dy20 O31 2.326 . S
Dy20 O35 2.310 1_565 S
Dy20 O36 2.351 1_565 S
C21 O32 1.185 . S
C21 O33 1.355 . S
C22 O24 1.185 . S
C22 O25 1.355 . S
Dy23 O27 2.310 . S
Dy23 O30 2.351 1_545 S
Dy23 O32 2.398 . S
Dy23 O33 2.491 . S
Dy23 O34 2.403 . S
Dy23 O35 2.664 . S
Dy23 O37 2.326 . S
O24 Dy20 2.398 . S
O24 C22 1.185 . S
O25 Dy20 2.491 . S
O25 C22 1.355 . S
O26 Dy20 2.403 1_545 S
O26 C28 1.254 . S
O27 Dy20 2.664 1_545 S
O27 Dy23 2.310 . S
O27 C28 1.268 . S
C28 O26 1.254 . S
C28 O27 1.268 . S
C29 O34 1.254 . S
C29 O35 1.268 . S
O30 Dy23 2.351 1_565 S
O30 C38 1.249 . S
O31 Dy20 2.326 . S
O31 C38 1.267 . S
O32 C21 1.185 . S
O32 Dy23 2.398 . S
O33 C21 1.355 . S
O33 Dy23 2.491 . S
O34 Dy23 2.403 . S
O34 C29 1.254 . S
O35 Dy20 2.310 1_545 S
O35 Dy23 2.664 . S
O35 C29 1.268 . S
O36 Dy20 2.351 1_545 S
O36 C39 1.249 . S
O37 Dy23 2.326 . S
O37 C39 1.267 . S
C38 O30 1.249 . S
C38 O31 1.267 . S
C39 O36 1.249 . S
C39 O37 1.267 . S
Dy40 O44 2.398 . S
Dy40 O45 2.491 . S
Dy40 O46 2.403 . S
Dy40 O47 2.664 . S
Dy40 O51 2.326 . S
Dy40 O55 2.310 . S
Dy40 O56 2.351 . S
C41 O52 1.185 . S
C41 O53 1.355 . S
C42 O44 1.185 . S
C42 O45 1.355 . S
Dy43 O47 2.310 . S
Dy43 O50 2.351 . S
Dy43 O52 2.398 . S
Dy43 O53 2.491 . S
Dy43 O54 2.403 . S
Dy43 O55 2.664 . S
Dy43 O57 2.326 . S
O44 Dy40 2.398 . S
O44 C42 1.185 . S
O45 Dy40 2.491 . S
O45 C42 1.355 . S
O46 Dy40 2.403 . S
O46 C48 1.254 . S
O47 Dy40 2.664 . S
O47 Dy43 2.310 . S
O47 C48 1.268 . S
C48 O46 1.254 . S
C48 O47 1.268 . S
C49 O54 1.254 . S
C49 O55 1.268 . S
O50 Dy43 2.351 . S
O50 C58 1.249 . S
O51 Dy40 2.326 . S
O51 C58 1.267 . S
O52 C41 1.185 . S
O52 Dy43 2.398 . S
O53 C41 1.355 . S
O53 Dy43 2.491 . S
O54 Dy43 2.403 . S
O54 C49 1.254 . S
O55 Dy40 2.310 . S
O55 Dy43 2.664 . S
O55 C49 1.268 . S
O56 Dy40 2.351 . S
O56 C59 1.249 . S
O57 Dy43 2.326 . S
O57 C59 1.267 . S
C58 O50 1.249 . S
C58 O51 1.267 . S
C59 O56 1.249 . S
C59 O57 1.267 . S
H60 C61 0.949 . S
C61 H60 0.949 . S
C61 C62 1.397 . S
C61 C63 1.391 . S
C62 C61 1.397 . S
C62 C65 1.388 1_545 S
C63 C61 1.391 . S
C63 C67 1.387 1_545 S
C63 C68 1.491 . S
H64 C65 0.950 . S
C65 C62 1.388 1_565 S
C65 H64 0.950 . S
C65 C66 1.378 . S
C66 C65 1.378 . S
C66 C67 1.409 . S
C67 C63 1.387 1_565 S
C67 C66 1.409 . S
C67 H69 0.951 . S
C68 C63 1.491 . S
C68 C70 1.382 . S
C68 C72 1.404 . S
H69 C67 0.951 . S
C70 C68 1.382 . S
C70 C71 1.390 . S
C70 H75 0.949 . S
C71 C70 1.390 . S
C71 C76 1.399 . S
C72 C68 1.404 . S
C72 H73 0.950 . S
C72 C74 1.375 . S
H73 C72 0.950 . S
C74 C72 1.375 . S
C74 C76 1.382 . S
C74 H78 0.950 . S
H75 C70 0.949 . S
C76 C71 1.399 . S
C76 C74 1.382 . S
C76 H77 0.952 . S
H77 C76 0.952 . S
H78 C74 0.950 . S
H79 C80 0.949 . S
C80 H79 0.949 . S
C80 C81 1.395 . S
C80 C82 1.391 . S
C81 C80 1.395 . S
C81 C84 1.390 . S
C82 C80 1.391 . S
C82 C86 1.387 . S
C82 C87 1.491 . S
H83 C84 0.950 . S
C84 C81 1.390 . S
C84 H83 0.950 . S
C84 C85 1.378 . S
C85 C84 1.378 . S
C85 C86 1.409 . S
C86 C82 1.387 . S
C86 C85 1.409 . S
C86 H88 0.951 . S
C87 C82 1.491 . S
C87 C89 1.382 . S
C87 C91 1.404 . S
H88 C86 0.951 . S
C89 C87 1.382 . S
C89 C90 1.390 . S
C89 H94 0.949 . S
C90 C89 1.390 . S
C90 C95 1.399 . S
C91 C87 1.404 . S
C91 H92 0.950 . S
C91 C93 1.375 . S
H92 C91 0.950 . S
C93 C91 1.375 . S
C93 C95 1.382 . S
C93 H97 0.950 . S
H94 C89 0.949 . S
C95 C90 1.399 . S
C95 C93 1.382 . S
C95 H96 0.952 . S
H96 C95 0.952 . S
H97 C93 0.950 . S
H98 C99 0.949 . S
C99 H98 0.949 . S
C99 C100 1.395 . S
C99 C101 1.391 . S
C100 C99 1.395 . S
C100 C103 1.390 1_455 S
C101 C99 1.391 . S
C101 C105 1.387 . S
C101 C106 1.491 . S
H102 C103 0.950 . S
C103 C100 1.390 1_655 S
C103 H102 0.950 . S
C103 C104 1.378 . S
C104 C103 1.378 . S
C104 C105 1.409 1_655 S
C105 C101 1.387 . S
C105 C104 1.409 1_455 S
C105 H107 0.951 . S
C106 C101 1.491 . S
C106 C108 1.382 . S
C106 C110 1.404 . S
H107 C105 0.951 . S
C108 C106 1.382 . S
C108 C109 1.390 . S
C108 H113 0.949 . S
C109 C108 1.390 . S
C109 C114 1.399 . S
C110 C106 1.404 . S
C110 H111 0.950 . S
C110 C112 1.375 . S
H111 C110 0.950 . S
C112 C110 1.375 . S
C112 C114 1.382 . S
C112 H116 0.950 . S
H113 C108 0.949 . S
C114 C109 1.399 . S
C114 C112 1.382 . S
C114 H115 0.952 . S
H115 C114 0.952 . S
H116 C112 0.950 . S
H117 C118 0.949 . S
C118 H117 0.949 . S
C118 C119 1.395 1_655 S
C118 C120 1.391 1_655 S
C119 C118 1.395 1_455 S
C119 C122 1.390 . S
C120 C118 1.391 1_455 S
C120 C124 1.387 . S
C120 C125 1.491 1_455 S
H121 C122 0.950 . S
C122 C119 1.390 . S
C122 H121 0.950 . S
C122 C123 1.378 . S
C123 C122 1.378 . S
C123 C124 1.409 . S
C124 C120 1.387 . S
C124 C123 1.409 . S
C124 H126 0.951 . S
C125 C120 1.491 1_655 S
C125 C127 1.382 . S
C125 C129 1.404 . S
H126 C124 0.951 . S
C127 C125 1.382 . S
C127 C128 1.390 . S
C127 H132 0.949 . S
C128 C127 1.390 . S
C128 C133 1.399 . S
C129 C125 1.404 . S
C129 H130 0.950 . S
C129 C131 1.375 . S
H130 C129 0.950 . S
C131 C129 1.375 . S
C131 C133 1.382 . S
C131 H135 0.950 . S
H132 C127 0.949 . S
C133 C128 1.399 . S
C133 C131 1.382 . S
C133 H134 0.952 . S
H134 C133 0.952 . S
H135 C131 0.950 . S
H136 C137 0.949 1_565 S
C137 H136 0.949 1_545 S
C137 C138 1.395 . S
C137 C139 1.391 . S
C138 C137 1.395 . S
C138 C141 1.390 . S
C139 C137 1.391 . S
C139 C143 1.387 . S
C139 C144 1.491 1_545 S
H140 C141 0.950 . S
C141 C138 1.390 . S
C141 H140 0.950 . S
C141 C142 1.378 . S
C142 C141 1.378 . S
C142 C143 1.409 . S
C143 C139 1.387 . S
C143 C142 1.409 . S
C143 H145 0.951 . S
C144 C139 1.491 1_565 S
C144 C146 1.382 . S
C144 C148 1.404 . S
H145 C143 0.951 . S
C146 C144 1.382 . S
C146 C147 1.390 . S
C146 H151 0.949 . S
C147 C146 1.390 . S
C147 C152 1.399 . S
C148 C144 1.404 . S
C148 H149 0.950 1_565 S
C148 C150 1.375 . S
H149 C148 0.950 1_545 S
C150 C148 1.375 . S
C150 C152 1.382 . S
C150 H154 0.950 . S
H151 C146 0.949 . S
C152 C147 1.399 . S
C152 C150 1.382 . S
C152 H153 0.952 . S
H153 C152 0.952 . S
H154 C150 0.950 . S
H155 C156 0.949 . S
C156 H155 0.949 . S
C156 C157 1.395 . S
C156 C158 1.391 . S
C157 C156 1.395 . S
C157 C160 1.390 . S
C158 C156 1.391 . S
C158 C162 1.387 . S
C158 C163 1.491 . S
H159 C160 0.950 . S
C160 C157 1.390 . S
C160 H159 0.950 . S
C160 C161 1.378 . S
C161 C160 1.378 . S
C161 C162 1.409 . S
C162 C158 1.387 . S
C162 C161 1.409 . S
C162 H164 0.951 . S
C163 C158 1.491 . S
C163 C165 1.382 . S
C163 C167 1.404 . S
H164 C162 0.951 . S
C165 C163 1.382 . S
C165 C166 1.390 . S
C165 H170 0.949 . S
C166 C165 1.390 . S
C166 C171 1.399 . S
C167 C163 1.404 . S
C167 H168 0.950 . S
C167 C169 1.375 . S
H168 C167 0.950 . S
C169 C167 1.375 . S
C169 C171 1.382 . S
C169 H173 0.950 . S
H170 C165 0.949 . S
C171 C166 1.399 . S
C171 C169 1.382 . S
C171 H172 0.952 . S
H172 C171 0.952 . S
H173 C169 0.950 . S
C174 C175 1.363 . S
C174 C180 1.379 . S
C174 N182 1.356 . S
C175 C174 1.363 . S
C175 C181 1.363 . S
C176 C177 1.363 . S
C176 C181 1.379 . S
C176 N183 1.356 . S
C177 C176 1.363 . S
C177 C180 1.363 . S
N178 C180 1.356 . S
N178 H190 0.984 . S
N178 H191 0.985 . S
N179 C181 1.356 . S
N179 H184 0.984 . S
N179 H185 0.985 . S
C180 C174 1.379 . S
C180 C177 1.363 . S
C180 N178 1.356 . S
C181 C175 1.363 . S
C181 C176 1.379 . S
C181 N179 1.356 . S
N182 C174 1.356 . S
N182 H188 0.984 . S
N182 H189 0.984 . S
N183 C176 1.356 . S
N183 H186 0.984 . S
N183 H187 0.985 . S
H184 N179 0.984 . S
H185 N179 0.985 . S
H186 N183 0.984 . S
H187 N183 0.985 . S
H188 N182 0.984 . S
H189 N182 0.984 . S
H190 N178 0.984 . S
H191 N178 0.985 . S
C192 C193 1.363 . S
C192 C198 1.379 . S
C192 N200 1.356 . S
C193 C192 1.363 . S
C193 C199 1.363 . S
C194 C195 1.363 . S
C194 C199 1.379 . S
C194 N201 1.356 . S
C195 C194 1.363 . S
C195 C198 1.363 . S
N196 C198 1.356 . S
N196 H208 0.984 . S
N196 H209 0.985 . S
N197 C199 1.356 . S
N197 H202 0.984 . S
N197 H203 0.985 . S
C198 C192 1.379 . S
C198 C195 1.363 . S
C198 N196 1.356 . S
C199 C193 1.363 . S
C199 C194 1.379 . S
C199 N197 1.356 . S
N200 C192 1.356 . S
N200 H206 0.984 . S
N200 H207 0.984 . S
N201 C194 1.356 . S
N201 H204 0.984 . S
N201 H205 0.985 . S
H202 N197 0.984 . S
H203 N197 0.985 . S
H204 N201 0.984 . S
H205 N201 0.985 . S
H206 N200 0.984 . S
H207 N200 0.984 . S
H208 N196 0.984 . S
H209 N196 0.985 . S
C210 C211 1.363 . S
C210 C216 1.379 . S
C210 N218 1.356 . S
C211 C210 1.363 . S
C211 C217 1.363 . S
C212 C213 1.363 . S
C212 C217 1.379 . S
C212 N219 1.356 . S
C213 C212 1.363 . S
C213 C216 1.363 . S
N214 C216 1.356 . S
N214 H226 0.984 . S
N214 H227 0.985 . S
N215 C217 1.356 . S
N215 H220 0.984 . S
N215 H221 0.985 . S
C216 C210 1.379 . S
C216 C213 1.363 . S
C216 N214 1.356 . S
C217 C211 1.363 . S
C217 C212 1.379 . S
C217 N215 1.356 . S
N218 C210 1.356 . S
N218 H224 0.984 . S
N218 H225 0.984 . S
N219 C212 1.356 . S
N219 H222 0.984 . S
N219 H223 0.985 . S
H220 N215 0.984 . S
H221 N215 0.985 . S
H222 N219 0.984 . S
H223 N219 0.985 . S
H224 N218 0.984 . S
H225 N218 0.984 . S
H226 N214 0.984 . S
H227 N214 0.985 . S
C228 C229 1.363 . S
C228 C234 1.379 . S
C228 N236 1.356 . S
C229 C228 1.363 . S
C229 C235 1.363 . S
C230 C231 1.363 . S
C230 C235 1.379 . S
C230 N237 1.356 . S
C231 C230 1.363 . S
C231 C234 1.363 . S
N232 C234 1.356 . S
N232 H244 0.984 . S
N232 H245 0.985 . S
N233 C235 1.356 . S
N233 H238 0.984 . S
N233 H239 0.985 . S
C234 C228 1.379 . S
C234 C231 1.363 . S
C234 N232 1.356 . S
C235 C229 1.363 . S
C235 C230 1.379 . S
C235 N233 1.356 . S
N236 C228 1.356 . S
N236 H242 0.984 . S
N236 H243 0.984 . S
N237 C230 1.356 . S
N237 H240 0.984 . S
N237 H241 0.985 . S
H238 N233 0.984 . S
H239 N233 0.985 . S
H240 N237 0.984 . S
H241 N237 0.985 . S
H242 N236 0.984 . S
H243 N236 0.984 . S
H244 N232 0.984 . S
H245 N232 0.985 . S
C246 C247 1.363 . S
C246 C252 1.379 . S
C246 N254 1.356 . S
C247 C246 1.363 . S
C247 C253 1.363 . S
C248 C249 1.363 . S
C248 C253 1.379 . S
C248 N255 1.356 . S
C249 C248 1.363 . S
C249 C252 1.363 . S
N250 C252 1.356 . S
N250 H262 0.984 . S
N250 H263 0.985 . S
N251 C253 1.356 . S
N251 H256 0.984 . S
N251 H257 0.985 . S
C252 C246 1.379 . S
C252 C249 1.363 . S
C252 N250 1.356 . S
C253 C247 1.363 . S
C253 C248 1.379 . S
C253 N251 1.356 . S
N254 C246 1.356 . S
N254 H260 0.984 . S
N254 H261 0.984 . S
N255 C248 1.356 . S
N255 H258 0.984 . S
N255 H259 0.985 . S
H256 N251 0.984 . S
H257 N251 0.985 . S
H258 N255 0.984 . S
H259 N255 0.985 . S
H260 N254 0.984 . S
H261 N254 0.984 . S
H262 N250 0.984 . S
H263 N250 0.985 . S
C264 C265 1.363 . S
C264 C270 1.379 . S
C264 N272 1.356 . S
C265 C264 1.363 . S
C265 C271 1.363 . S
C266 C267 1.363 . S
C266 C271 1.379 . S
C266 N273 1.356 . S
C267 C266 1.363 . S
C267 C270 1.363 . S
N268 C270 1.356 . S
N268 H280 0.984 . S
N268 H281 0.985 . S
N269 C271 1.356 . S
N269 H274 0.984 . S
N269 H275 0.985 . S
C270 C264 1.379 . S
C270 C267 1.363 . S
C270 N268 1.356 . S
C271 C265 1.363 . S
C271 C266 1.379 . S
C271 N269 1.356 . S
N272 C264 1.356 . S
N272 H278 0.984 . S
N272 H279 0.984 . S
N273 C266 1.356 . S
N273 H276 0.984 . S
N273 H277 0.985 . S
H274 N269 0.984 . S
H275 N269 0.985 . S
H276 N273 0.984 . S
H277 N273 0.985 . S
H278 N272 0.984 . S
H279 N272 0.984 . S
H280 N268 0.984 . S
H281 N268 0.985 . S
C282 C283 1.363 . S
C282 C288 1.379 . S
C282 N290 1.356 . S
C283 C282 1.363 . S
C283 C289 1.363 . S
C284 C285 1.363 . S
C284 C289 1.379 . S
C284 N291 1.356 . S
C285 C284 1.363 . S
C285 C288 1.363 . S
N286 C288 1.356 . S
N286 H298 0.984 . S
N286 H299 0.985 . S
N287 C289 1.356 . S
N287 H292 0.984 . S
N287 H293 0.985 . S
C288 C282 1.379 . S
C288 C285 1.363 . S
C288 N286 1.356 . S
C289 C283 1.363 . S
C289 C284 1.379 . S
C289 N287 1.356 . S
N290 C282 1.356 . S
N290 H296 0.984 . S
N290 H297 0.984 . S
N291 C284 1.356 . S
N291 H294 0.984 . S
N291 H295 0.985 . S
H292 N287 0.984 . S
H293 N287 0.985 . S
H294 N291 0.984 . S
H295 N291 0.985 . S
H296 N290 0.984 . S
H297 N290 0.984 . S
H298 N286 0.984 . S
H299 N286 0.985 . S
C300 C301 1.363 . S
C300 C306 1.379 . S
C300 N308 1.356 . S
C301 C300 1.363 . S
C301 C307 1.363 . S
C302 C303 1.363 . S
C302 C307 1.379 . S
C302 N309 1.356 . S
C303 C302 1.363 . S
C303 C306 1.363 . S
N304 C306 1.356 . S
N304 H316 0.984 . S
N304 H317 0.985 . S
N305 C307 1.356 . S
N305 H310 0.984 . S
N305 H311 0.985 . S
C306 C300 1.379 . S
C306 C303 1.363 . S
C306 N304 1.356 . S
C307 C301 1.363 . S
C307 C302 1.379 . S
C307 N305 1.356 . S
N308 C300 1.356 . S
N308 H314 0.984 . S
N308 H315 0.984 . S
N309 C302 1.356 . S
N309 H312 0.984 . S
N309 H313 0.985 . S
H310 N305 0.984 . S
H311 N305 0.985 . S
H312 N309 0.984 . S
H313 N309 0.985 . S
H314 N308 0.984 . S
H315 N308 0.984 . S
H316 N304 0.984 . S
H317 N304 0.985 . S
C318 C319 1.363 . S
C318 C324 1.379 . S
C318 N326 1.356 . S
C319 C318 1.363 . S
C319 C325 1.363 . S
C320 C321 1.363 . S
C320 C325 1.379 . S
C320 N327 1.356 . S
C321 C320 1.363 . S
C321 C324 1.363 . S
N322 C324 1.356 . S
N322 H334 0.984 . S
N322 H335 0.985 . S
N323 C325 1.356 . S
N323 H328 0.984 . S
N323 H329 0.985 . S
C324 C318 1.379 . S
C324 C321 1.363 . S
C324 N322 1.356 . S
C325 C319 1.363 . S
C325 C320 1.379 . S
C325 N323 1.356 . S
N326 C318 1.356 . S
N326 H332 0.984 . S
N326 H333 0.984 . S
N327 C320 1.356 . S
N327 H330 0.984 . S
N327 H331 0.985 . S
H328 N323 0.984 . S
H329 N323 0.985 . S
H330 N327 0.984 . S
H331 N327 0.985 . S
H332 N326 0.984 . S
H333 N326 0.984 . S
H334 N322 0.984 . S
H335 N322 0.985 . S
C336 C337 1.363 . S
C336 C342 1.379 . S
C336 N344 1.356 . S
C337 C336 1.363 . S
C337 C343 1.363 . S
C338 C339 1.363 . S
C338 C343 1.379 . S
C338 N345 1.356 . S
C339 C338 1.363 . S
C339 C342 1.363 . S
N340 C342 1.356 . S
N340 H352 0.984 . S
N340 H353 0.985 . S
N341 C343 1.356 . S
N341 H346 0.984 . S
N341 H347 0.985 . S
C342 C336 1.379 . S
C342 C339 1.363 . S
C342 N340 1.356 . S
C343 C337 1.363 . S
C343 C338 1.379 . S
C343 N341 1.356 . S
N344 C336 1.356 . S
N344 H350 0.984 . S
N344 H351 0.984 . S
N345 C338 1.356 . S
N345 H348 0.984 . S
N345 H349 0.985 . S
H346 N341 0.984 . S
H347 N341 0.985 . S
H348 N345 0.984 . S
H349 N345 0.985 . S
H350 N344 0.984 . S
H351 N344 0.984 . S
H352 N340 0.984 . S
H353 N340 0.985 . S
C354 C355 1.363 . S
C354 C360 1.379 . S
C354 N362 1.356 . S
C355 C354 1.363 . S
C355 C361 1.363 . S
C356 C357 1.363 . S
C356 C361 1.379 . S
C356 N363 1.356 . S
C357 C356 1.363 . S
C357 C360 1.363 . S
N358 C360 1.356 . S
N358 H370 0.984 . S
N358 H371 0.985 . S
N359 C361 1.356 . S
N359 H364 0.984 . S
N359 H365 0.985 . S
C360 C354 1.379 . S
C360 C357 1.363 . S
C360 N358 1.356 . S
C361 C355 1.363 . S
C361 C356 1.379 . S
C361 N359 1.356 . S
N362 C354 1.356 . S
N362 H368 0.984 . S
N362 H369 0.984 . S
N363 C356 1.356 . S
N363 H366 0.984 . S
N363 H367 0.985 . S
H364 N359 0.984 . S
H365 N359 0.985 . S
H366 N363 0.984 . S
H367 N363 0.985 . S
H368 N362 0.984 . S
H369 N362 0.984 . S
H370 N358 0.984 . S
H371 N358 0.985 . S
C372 C373 1.363 . S
C372 C378 1.379 . S
C372 N380 1.356 . S
C373 C372 1.363 . S
C373 C379 1.363 . S
C374 C375 1.363 . S
C374 C379 1.379 . S
C374 N381 1.356 . S
C375 C374 1.363 . S
C375 C378 1.363 . S
N376 C378 1.356 . S
N376 H388 0.984 . S
N376 H389 0.985 . S
N377 C379 1.356 . S
N377 H382 0.984 . S
N377 H383 0.985 . S
C378 C372 1.379 . S
C378 C375 1.363 . S
C378 N376 1.356 . S
C379 C373 1.363 . S
C379 C374 1.379 . S
C379 N377 1.356 . S
N380 C372 1.356 . S
N380 H386 0.984 . S
N380 H387 0.984 . S
N381 C374 1.356 . S
N381 H384 0.984 . S
N381 H385 0.985 . S
H382 N377 0.984 . S
H383 N377 0.985 . S
H384 N381 0.984 . S
H385 N381 0.985 . S
H386 N380 0.984 . S
H387 N380 0.984 . S
H388 N376 0.984 . S
H389 N376 0.985 . S
C390 C391 1.363 . S
C390 C396 1.379 1_554 S
C390 N398 1.356 . S
C391 C390 1.363 . S
C391 C397 1.363 . S
C392 C393 1.363 . S
C392 C397 1.379 1_556 S
C392 N399 1.356 . S
C393 C392 1.363 . S
C393 C396 1.363 . S
N394 C396 1.356 . S
N394 H406 0.984 . S
N394 H407 0.985 . S
N395 C397 1.356 . S
N395 H400 0.984 . S
N395 H401 0.985 . S
C396 C390 1.379 1_556 S
C396 C393 1.363 . S
C396 N394 1.356 . S
C397 C391 1.363 . S
C397 C392 1.379 1_554 S
C397 N395 1.356 . S
N398 C390 1.356 . S
N398 H404 0.995 . S
N398 H405 0.984 . S
N399 C392 1.356 . S
N399 H402 0.984 . S
N399 H403 0.985 . S
H400 N395 0.984 . S
H401 N395 0.985 . S
H402 N399 0.984 . S
H403 N399 0.985 . S
H404 N398 0.995 . S
H405 N398 0.984 . S
H406 N394 0.984 . S
H407 N394 0.985 . S
C408 C409 1.363 1_565 S
C408 C414 1.379 . S
C408 N416 1.356 . S
C409 C408 1.363 1_545 S
C409 C415 1.363 . S
C410 C411 1.363 . S
C410 C415 1.379 . S
C410 N417 1.356 . S
C411 C410 1.363 . S
C411 C414 1.363 1_545 S
N412 C414 1.356 . S
N412 H424 0.984 . S
N412 H425 0.985 . S
N413 C415 1.356 . S
N413 H418 0.984 . S
N413 H419 0.985 . S
C414 C408 1.379 . S
C414 C411 1.363 1_565 S
C414 N412 1.356 . S
C415 C409 1.363 . S
C415 C410 1.379 . S
C415 N413 1.356 . S
N416 C408 1.356 . S
N416 H422 0.984 . S
N416 H423 0.984 . S
N417 C410 1.356 . S
N417 H420 0.984 . S
N417 H421 0.985 . S
H418 N413 0.984 . S
H419 N413 0.985 . S
H420 N417 0.984 . S
H421 N417 0.985 . S
H422 N416 0.984 . S
H423 N416 0.984 . S
H424 N412 0.984 . S
H425 N412 0.985 . S
C426 C427 1.363 . S
C426 C432 1.379 . S
C426 N434 1.356 . S
C427 C426 1.363 . S
C427 C433 1.363 . S
C428 C429 1.363 . S
C428 C433 1.379 . S
C428 N435 1.356 . S
C429 C428 1.363 . S
C429 C432 1.363 . S
N430 C432 1.356 . S
N430 H442 0.984 . S
N430 H443 0.985 . S
N431 C433 1.356 . S
N431 H436 0.984 . S
N431 H437 0.985 . S
C432 C426 1.379 . S
C432 C429 1.363 . S
C432 N430 1.356 . S
C433 C427 1.363 . S
C433 C428 1.379 . S
C433 N431 1.356 . S
N434 C426 1.356 . S
N434 H440 0.984 . S
N434 H441 0.984 . S
N435 C428 1.356 . S
N435 H438 0.984 . S
N435 H439 0.985 . S
H436 N431 0.984 . S
H437 N431 0.985 . S
H438 N435 0.984 . S
H439 N435 0.985 . S
H440 N434 0.984 . S
H441 N434 0.984 . S
H442 N430 0.984 . S
H443 N430 0.985 . S
C444 C445 1.363 . S
C444 C450 1.379 . S
C444 N452 1.356 1_545 S
C445 C444 1.363 . S
C445 C451 1.363 . S
C446 C447 1.363 . S
C446 C451 1.379 . S
C446 N453 1.356 . S
C447 C446 1.363 . S
C447 C450 1.363 . S
N448 C450 1.356 1_565 S
N448 H460 0.984 . S
N448 H461 0.985 . S
N449 C451 1.356 . S
N449 H454 0.984 . S
N449 H455 0.985 . S
C450 C444 1.379 . S
C450 C447 1.363 . S
C450 N448 1.356 1_545 S
C451 C445 1.363 . S
C451 C446 1.379 . S
C451 N449 1.356 . S
N452 C444 1.356 1_565 S
N452 H458 0.984 . S
N452 H459 0.984 . S
N453 C446 1.356 . S
N453 H456 0.984 . S
N453 H457 0.985 . S
H454 N449 0.984 . S
H455 N449 0.985 . S
H456 N453 0.984 . S
H457 N453 0.985 . S
H458 N452 0.984 . S
H459 N452 0.984 . S
H460 N448 0.984 . S
H461 N448 0.985 . S
C462 C463 1.363 . S
C462 C468 1.379 1_556 S
C462 N470 1.356 . S
C463 C462 1.363 . S
C463 C469 1.363 . S
C464 C465 1.363 . S
C464 C469 1.379 1_554 S
C464 N471 1.356 . S
C465 C464 1.363 . S
C465 C468 1.363 . S
N466 C468 1.356 . S
N466 H478 0.984 . S
N466 H479 0.985 . S
N467 C469 1.356 . S
N467 H472 0.984 . S
N467 H473 0.985 . S
C468 C462 1.379 1_554 S
C468 C465 1.363 . S
C468 N466 1.356 . S
C469 C463 1.363 . S
C469 C464 1.379 1_556 S
C469 N467 1.356 . S
N470 C462 1.356 . S
N470 H476 0.984 . S
N470 H477 0.984 . S
N471 C464 1.356 . S
N471 H474 0.984 . S
N471 H475 0.985 . S
H472 N467 0.984 . S
H473 N467 0.985 . S
H474 N471 0.984 . S
H475 N471 0.985 . S
H476 N470 0.984 . S
H477 N470 0.984 . S
H478 N466 0.984 . S
H479 N466 0.985 . S
C480 C481 1.363 1_655 S
C480 C486 1.379 . S
C480 N488 1.356 . S
C481 C480 1.363 1_455 S
C481 C487 1.363 . S
C482 C483 1.363 . S
C482 C487 1.379 . S
C482 N489 1.356 . S
C483 C482 1.363 . S
C483 C486 1.363 1_455 S
N484 C486 1.356 . S
N484 H496 0.984 . S
N484 H497 0.985 . S
N485 C487 1.356 . S
N485 H490 0.984 . S
N485 H491 0.985 . S
C486 C480 1.379 . S
C486 C483 1.363 1_655 S
C486 N484 1.356 . S
C487 C481 1.363 . S
C487 C482 1.379 . S
C487 N485 1.356 . S
N488 C480 1.356 . S
N488 H494 0.984 . S
N488 H495 0.984 . S
N489 C482 1.356 . S
N489 H492 0.984 . S
N489 H493 0.985 . S
H490 N485 0.984 . S
H491 N485 0.985 . S
H492 N489 0.984 . S
H493 N489 0.985 . S
H494 N488 0.984 . S
H495 N488 0.984 . S
H496 N484 0.984 . S
H497 N484 0.985 . S
C175 C2 1.214 . S
C177 C166 1.174 . S
C193 C21 1.131 . S
C195 C128 1.101 . S
C211 C42 1.192 . S
C213 C147 1.158 . S
C229 C1 0.984 . S
C231 C161 0.968 . S
C249 C123 1.010 . S
C247 C22 1.027 . S
C267 C142 0.953 . S
C265 C41 0.962 . S
C283 C38 2.010 . S
C285 C90 1.946 . S
C301 C59 1.904 . S
C303 C104 1.871 . S
C319 C18 1.856 . S
C321 C66 1.819 . S
C339 C85 1.869 . S
C337 C39 1.902 . S
C357 C109 1.943 . S
C355 C58 2.001 . S
C373 C19 2.065 . S
C375 C71 2.002 . S
C393 C100 1.594 . S
C391 C9 1.581 . S
C409 C29 1.547 . S
C411 C62 1.655 . S
C427 C49 1.580 . S
C429 C81 1.617 . S
C447 C138 1.553 . S
C445 C28 1.556 . S
C465 C157 1.518 . S
C463 C48 1.493 . S
C481 C8 1.434 . S
C483 C119 1.488 . S
