# Generated by pormake.
# Topology pyr, (3,6)-cn, num edge types: 1
# Building blocks:
#     Node 0, Type 0, BuildingBlock: BETDAH_clean_linker_0, # of connection points: 3
#     Node 1, Type 0, BuildingBlock: BETDAH_clean_linker_0, # of connection points: 3
#     Node 2, Type 0, BuildingBlock: BETDAH_clean_linker_0, # of connection points: 3
#     Node 3, Type 0, BuildingBlock: BETDAH_clean_linker_0, # of connection points: 3
#     Node 4, Type 0, BuildingBlock: BETDAH_clean_linker_0, # of connection points: 3
#     Node 5, Type 0, BuildingBlock: BETDAH_clean_linker_0, # of connection points: 3
#     Node 6, Type 0, BuildingBlock: BETDAH_clean_linker_0, # of connection points: 3
#     Node 7, Type 0, BuildingBlock: BETDAH_clean_linker_0, # of connection points: 3
#     Node 8, Type 1, BuildingBlock: GEDQOX_clean_sbu_0, # of connection points: 6
#     Node 9, Type 1, BuildingBlock: GEDQOX_clean_sbu_0, # of connection points: 6
#     Node 10, Type 1, BuildingBlock: GEDQOX_clean_sbu_0, # of connection points: 6
#     Node 11, Type 1, BuildingBlock: GEDQOX_clean_sbu_0, # of connection points: 6
#     Edge 12, Type (0, 1), BuildingBlock: UVAHIK_clean_linker_0, # of connection points: 2
#     Edge 13, Type (0, 1), BuildingBlock: UVAHIK_clean_linker_0, # of connection points: 2
#     Edge 14, Type (0, 1), BuildingBlock: UVAHIK_clean_linker_0, # of connection points: 2
#     Edge 15, Type (0, 1), BuildingBlock: UVAHIK_clean_linker_0, # of connection points: 2
#     Edge 16, Type (0, 1), BuildingBlock: UVAHIK_clean_linker_0, # of connection points: 2
#     Edge 17, Type (0, 1), BuildingBlock: UVAHIK_clean_linker_0, # of connection points: 2
#     Edge 18, Type (0, 1), BuildingBlock: UVAHIK_clean_linker_0, # of connection points: 2
#     Edge 19, Type (0, 1), BuildingBlock: UVAHIK_clean_linker_0, # of connection points: 2
#     Edge 20, Type (0, 1), BuildingBlock: UVAHIK_clean_linker_0, # of connection points: 2
#     Edge 21, Type (0, 1), BuildingBlock: UVAHIK_clean_linker_0, # of connection points: 2
#     Edge 22, Type (0, 1), BuildingBlock: UVAHIK_clean_linker_0, # of connection points: 2
#     Edge 23, Type (0, 1), BuildingBlock: UVAHIK_clean_linker_0, # of connection points: 2
#     Edge 24, Type (0, 1), BuildingBlock: UVAHIK_clean_linker_0, # of connection points: 2
#     Edge 25, Type (0, 1), BuildingBlock: UVAHIK_clean_linker_0, # of connection points: 2
#     Edge 26, Type (0, 1), BuildingBlock: UVAHIK_clean_linker_0, # of connection points: 2
#     Edge 27, Type (0, 1), BuildingBlock: UVAHIK_clean_linker_0, # of connection points: 2
#     Edge 28, Type (0, 1), BuildingBlock: UVAHIK_clean_linker_0, # of connection points: 2
#     Edge 29, Type (0, 1), BuildingBlock: UVAHIK_clean_linker_0, # of connection points: 2
#     Edge 30, Type (0, 1), BuildingBlock: UVAHIK_clean_linker_0, # of connection points: 2
#     Edge 31, Type (0, 1), BuildingBlock: UVAHIK_clean_linker_0, # of connection points: 2
#     Edge 32, Type (0, 1), BuildingBlock: UVAHIK_clean_linker_0, # of connection points: 2
#     Edge 33, Type (0, 1), BuildingBlock: UVAHIK_clean_linker_0, # of connection points: 2
#     Edge 34, Type (0, 1), BuildingBlock: UVAHIK_clean_linker_0, # of connection points: 2
#     Edge 35, Type (0, 1), BuildingBlock: UVAHIK_clean_linker_0, # of connection points: 2
# Relax obj value: 0.157
# Max RMSD: 0.204
# Mean RMSD: 0.148
data_MOF--net-pyr--node1-GEDQOX_clean_sbu_0--node2-BETDAH_clean_linker_0--edge1-UVAHIK_clean_linker_0
_symmetry_space_group_name_H-M    P1
_symmetry_Int_Tables_number       1
_symmetry_cell_setting            triclinic
loop_
_symmetry_equiv_pos_as_xyz
'x, y, z'
_cell_length_a     49.157006
_cell_length_b     49.790319
_cell_length_c     46.309403
_cell_angle_alpha  87.544207
_cell_angle_beta   92.193334
_cell_angle_gamma 93.57513
loop_
_atom_site_label
_atom_site_type_symbol
_atom_site_fract_x
_atom_site_fract_y
_atom_site_fract_z
_atom_type_partial_charge
H0 H 0.2457 0.15376 0.21639 0.0
H1 H 0.25831 0.21573 0.1497 0.0
H2 H 0.19321 0.22076 0.20786 0.0
C3 C 0.23988 0.17222 0.20536 0.0
C4 C 0.21754 0.18574 0.2158 0.0
C5 C 0.2549 0.18227 0.18106 0.0
C6 C 0.24689 0.20677 0.16756 0.0
C7 C 0.22473 0.22075 0.17666 0.0
C8 C 0.21014 0.21011 0.20081 0.0
N9 N 0.2194 0.24577 0.16101 0.0
C10 C 0.1978 0.26332 0.16068 0.0
H11 H 0.42585 0.78013 0.81093 0.0
H12 H 0.34543 0.80185 0.83106 0.0
H13 H 0.35425 0.7352 0.77778 0.0
C14 C 0.40389 0.77677 0.8088 0.0
C15 C 0.39239 0.75551 0.79223 0.0
C16 C 0.38713 0.79377 0.82274 0.0
C17 C 0.35865 0.78931 0.82006 0.0
C18 C 0.34709 0.76787 0.8043 0.0
C19 C 0.36382 0.75117 0.7905 0.0
N20 N 0.31856 0.76218 0.80315 0.0
C21 C 0.30134 0.7789 0.78756 0.0
H22 H 0.7208 0.43937 0.97525 0.0
H23 H 0.71334 0.52505 0.96605 0.0
H24 H 0.64179 0.47153 0.96081 0.0
C25 C 0.70821 0.45642 0.97186 0.0
C26 C 0.67972 0.45211 0.96872 0.0
C27 C 0.72057 0.48266 0.97105 0.0
C28 C 0.70413 0.5047 0.96747 0.0
C29 C 0.67588 0.50063 0.96364 0.0
C30 C 0.66368 0.47443 0.96432 0.0
N31 N 0.6601 0.52291 0.95662 0.0
C32 C 0.64909 0.5261 0.92878 0.0
H33 H 0.84338 0.81964 0.36594 0.0
H34 H 0.84508 0.86407 0.28414 0.0
H35 H 0.80076 0.78714 0.29134 0.0
C36 C 0.83777 0.82118 0.3431 0.0
C37 C 0.82131 0.80042 0.33061 0.0
C38 C 0.84667 0.84417 0.3266 0.0
C39 C 0.83812 0.84669 0.29735 0.0
C40 C 0.8219 0.82608 0.28448 0.0
C41 C 0.81339 0.80306 0.30123 0.0
N42 N 0.81529 0.82838 0.25442 0.0
C43 C 0.81189 0.80581 0.23775 0.0
H44 H 0.92694 0.86082 0.84608 0.0
H45 H 0.85808 0.85074 0.90172 0.0
H46 H 0.86067 0.91338 0.83522 0.0
C47 C 0.90781 0.86735 0.85314 0.0
C48 C 0.89626 0.88966 0.83808 0.0
C49 C 0.89471 0.85286 0.87648 0.0
C50 C 0.86919 0.86177 0.88482 0.0
C51 C 0.85703 0.88415 0.87066 0.0
C52 C 0.87084 0.89761 0.84736 0.0
N53 N 0.82828 0.88768 0.87316 0.0
C54 C 0.81429 0.90162 0.89355 0.0
H55 H 0.71846 0.22963 0.29606 0.0
H56 H 0.71245 0.29677 0.35075 0.0
H57 H 0.6589 0.28781 0.27585 0.0
C58 C 0.70904 0.24788 0.30112 0.0
C59 C 0.68741 0.25677 0.28329 0.0
C60 C 0.71828 0.26211 0.32562 0.0
C61 C 0.70572 0.28576 0.33185 0.0
C62 C 0.68435 0.29507 0.31375 0.0
C63 C 0.67545 0.28056 0.28961 0.0
N64 N 0.67125 0.3189 0.319 0.0
C65 C 0.67297 0.33184 0.34504 0.0
H66 H 0.32805 0.67933 0.19084 0.0
H67 H 0.29268 0.62246 0.25305 0.0
H68 H 0.37616 0.65216 0.26491 0.0
C69 C 0.33029 0.66678 0.21038 0.0
C70 C 0.35508 0.66781 0.22665 0.0
C71 C 0.30779 0.65049 0.21971 0.0
C72 C 0.30998 0.63514 0.24568 0.0
C73 C 0.33447 0.63565 0.2621 0.0
C74 C 0.35707 0.65192 0.25246 0.0
N75 N 0.33557 0.61959 0.28815 0.0
C76 C 0.35833 0.61893 0.30682 0.0
H77 H 0.23892 0.26771 0.72407 0.0
H78 H 0.27156 0.29583 0.80539 0.0
H79 H 0.22366 0.22063 0.80247 0.0
C80 C 0.24146 0.26496 0.74734 0.0
C81 C 0.22937 0.24189 0.76124 0.0
C82 C 0.25683 0.28447 0.763 0.0
C83 C 0.25954 0.28099 0.79319 0.0
C84 C 0.24758 0.25792 0.80749 0.0
C85 C 0.233 0.23825 0.79135 0.0
N86 N 0.24968 0.25418 0.83804 0.0
C87 C 0.25381 0.27567 0.85621 0.0
Nd88 Nd 0.06855 0.02348 0.52565 0.0
Nd89 Nd 0.03541 0.06984 0.5304 0.0
C90 C 0.08955 0.97595 0.52437 0.0
C91 C 0.10252 0.9589 0.54681 0.0
C92 C 0.1115 0.93382 0.54017 0.0
C93 C 0.12553 0.91849 0.5612 0.0
C94 C 0.13091 0.92816 0.5891 0.0
C95 C 0.12129 0.95309 0.59576 0.0
C96 C 0.10718 0.9683 0.5748 0.0
C97 C 0.09382 0.0636 0.55829 0.0
C98 C 1.02649 0.02246 0.58054 0.0
C99 C 1.0134 0.11702 0.53235 0.0
C100 C 0.98981 0.12976 0.51796 0.0
C101 C 0.99379 0.15418 0.50197 0.0
C102 C 0.97175 0.16606 0.48758 0.0
C103 C 0.94521 0.1538 0.48902 0.0
C104 C 0.94127 0.12954 0.50546 0.0
C105 C 0.9633 0.1176 0.51965 0.0
C106 C 1.00911 0.02979 0.49901 0.0
C107 C 0.07869 0.07022 0.47665 0.0
O108 O 0.06349 0.97882 0.52687 0.0
O109 O 0.10317 0.99868 0.51808 0.0
O110 O 0.10651 0.04979 0.54062 0.0
O111 O 0.06927 0.05534 0.55924 0.0
O112 O 0.0395 1.00793 0.56274 0.0
O113 O 1.02547 0.04872 0.57498 0.0
O114 O 0.03387 0.11308 0.51623 0.0
O115 O 1.00802 0.09676 0.55043 0.0
O116 O 0.99708 0.04446 0.51633 0.0
O117 O 0.03382 0.03755 0.49705 0.0
O118 O 0.06789 0.08511 0.49596 0.0
O119 O 0.07716 0.04375 0.48081 0.0
H120 H 0.10812 0.92635 0.51861 0.0
H121 H 0.13288 0.89945 0.55539 0.0
H122 H 0.1248 0.96089 0.61715 0.0
H123 H 0.10029 0.98766 0.58026 0.0
H124 H 1.01404 0.16392 0.50033 0.0
H125 H 0.97561 0.18456 0.47485 0.0
H126 H 0.9211 0.11976 0.5075 0.0
H127 H 0.95949 0.09877 0.53182 0.0
Nd128 Nd 0.53862 0.02062 0.06464 0.0
Nd129 Nd 0.53368 0.05556 1.01791 0.0
C130 C 0.54516 0.97953 0.1022 0.0
C131 C 0.53314 0.95248 0.11017 0.0
C132 C 0.5311 0.93164 0.0905 0.0
C133 C 0.52117 0.90576 0.09928 0.0
C134 C 0.51299 0.90024 0.12783 0.0
C135 C 0.51462 0.92132 0.14722 0.0
C136 C 0.52472 0.94709 0.13851 0.0
C137 C 0.49713 0.0555 0.07339 0.0
C138 C 0.50131 0.99982 1.00902 0.0
C139 C 0.52897 0.09769 0.98132 0.0
C140 C 0.53862 0.12626 0.98047 0.0
C141 C 0.5418 0.14072 1.00588 0.0
C142 C 0.55223 0.16749 1.00484 0.0
C143 C 0.55976 0.18023 0.97839 0.0
C144 C 0.55631 0.1657 0.95298 0.0
C145 C 0.54583 0.13895 0.95404 0.0
C146 C 0.57502 0.02068 1.00938 0.0
C147 C 0.57181 0.0753 0.07291 0.0
O148 O 0.55754 0.98258 0.07775 0.0
O149 O 0.53111 1.00002 0.10742 0.0
O150 O 0.51676 0.05015 0.0918 0.0
O151 O 0.5004 0.04344 0.05011 0.0
O152 O 0.51632 0.99263 0.03184 0.0
O153 O 0.5013 0.02524 1.00037 0.0
O154 O 0.51089 0.09009 1.00037 0.0
O155 O 0.54772 0.0805 0.97978 0.0
O156 O 0.55529 0.02575 0.99096 0.0
O157 O 0.57179 0.0329 0.03256 0.0
O158 O 0.55467 0.08317 0.05221 0.0
O159 O 0.57325 0.04957 0.07923 0.0
H160 H 0.53748 0.9352 0.06847 0.0
H161 H 0.5204 0.88998 0.08383 0.0
H162 H 0.50796 0.91799 0.16918 0.0
H163 H 0.52613 0.96283 0.15405 0.0
H164 H 0.53652 0.13125 0.02657 0.0
H165 H 0.55494 0.17804 0.02482 0.0
H166 H 0.56163 0.17505 0.93224 0.0
H167 H 0.54356 0.12808 0.93423 0.0
Nd168 Nd 0.53436 0.53255 0.57641 0.0
Nd169 Nd 0.58799 0.56629 0.58397 0.0
C170 C 0.48844 0.50694 0.55919 0.0
C171 C 0.46213 0.49958 0.57207 0.0
C172 C 0.45874 0.503 0.60158 0.0
C173 C 0.43497 0.49274 0.6147 0.0
C174 C 0.41415 0.47899 0.59845 0.0
C175 C 0.41708 0.47703 0.56849 0.0
C176 C 0.44096 0.48716 0.55544 0.0
C177 C 0.55558 0.52979 0.63191 0.0
C178 C 0.53506 0.58793 0.6104 0.0
C179 C 0.63864 0.58621 0.59283 0.0
C180 C 0.66096 0.59266 0.57308 0.0
C181 C 0.65952 0.58235 0.54531 0.0
C182 C 0.67838 0.59158 0.52485 0.0
C183 C 0.69887 0.61149 0.53172 0.0
C184 C 0.70104 0.62081 0.56003 0.0
C185 C 0.68214 0.61149 0.58055 0.0
C186 C 0.55569 0.58086 0.53666 0.0
C187 C 0.58895 0.5103 0.54943 0.0
O188 O 0.49395 0.53268 0.55341 0.0
O189 O 0.50916 0.49477 0.57115 0.0
O190 O 0.5297 0.52823 0.62537 0.0
O191 O 0.56948 0.5305 0.60949 0.0
O192 O 0.52109 0.57326 0.59107 0.0
O193 O 0.56129 0.58511 0.61585 0.0
O194 O 0.63129 0.56069 0.59688 0.0
O195 O 0.61784 0.60115 0.58873 0.0
O196 O 0.56987 0.59823 0.55198 0.0
O197 O 0.56012 0.55737 0.54554 0.0
O198 O 0.60241 0.53305 0.5563 0.0
O199 O 0.56314 0.50508 0.55572 0.0
H200 H 0.47493 0.51263 0.6147 0.0
H201 H 0.43358 0.49437 0.63783 0.0
H202 H 0.40123 0.46698 0.55528 0.0
H203 H 0.44326 0.48452 0.53257 0.0
H204 H 0.64316 0.56797 0.53904 0.0
H205 H 0.67639 0.58378 0.50334 0.0
H206 H 0.71641 0.63636 0.56589 0.0
H207 H 0.68336 0.61984 0.60182 0.0
Nd208 Nd 1.01941 0.55255 0.04562 0.0
Nd209 Nd 0.06139 0.55868 0.99881 0.0
C210 C 0.97757 0.54095 0.07896 0.0
C211 C 0.95655 0.55734 0.08944 0.0
C212 C 0.95444 0.5838 0.07835 0.0
C213 C 0.93417 0.59945 0.08762 0.0
C214 C 0.91569 0.58896 0.10827 0.0
C215 C 0.91795 0.56242 0.11944 0.0
C216 C 0.93822 0.54667 0.10998 0.0
C217 C 0.06284 0.58817 0.05764 0.0
C218 C 1.0175 0.60557 1.00011 0.0
C219 C 0.1049 0.56125 0.96688 0.0
C220 C 0.13023 0.54711 0.96763 0.0
C221 C 0.13863 0.5326 0.9927 0.0
C222 C 0.1596 0.515 0.99168 0.0
C223 C 0.17249 0.51168 0.96558 0.0
C224 C 0.16507 0.52755 0.94099 0.0
C225 C 0.14403 0.54505 0.94201 0.0
C226 C 1.01066 0.53756 0.98187 0.0
C227 C 0.06478 0.50579 0.04596 0.0
O228 O 0.9765 0.53798 0.05099 0.0
O229 O 1.00241 0.54629 0.08928 0.0
O230 O 0.03799 0.59201 0.06425 0.0
O231 O 0.06409 0.5658 0.04625 0.0
O232 O 1.00267 0.58747 1.01575 0.0
O233 O 0.04313 0.601 0.99457 0.0
O234 O 0.10189 0.5777 0.98773 0.0
O235 O 0.08285 0.54607 0.9611 0.0
O236 O 1.02443 0.55553 0.96632 0.0
O237 O 1.02386 0.5316 1.00474 0.0
O238 O 0.07524 0.51922 0.0231 0.0
O239 O 0.04315 0.51437 0.05836 0.0
H240 H 0.96852 0.59237 0.06251 0.0
H241 H 0.93329 0.61997 0.07901 0.0
H242 H 0.90393 0.55379 0.13529 0.0
H243 H 0.93957 0.52622 0.11864 0.0
H244 H 0.12819 0.53396 1.01271 0.0
H245 H 0.16505 0.50326 1.01104 0.0
H246 H 0.17432 0.52524 0.92046 0.0
H247 H 0.13761 0.55594 0.92241 0.0
C248 C 0.19881 0.14635 0.24875 0.0
C249 C 0.2023 0.17439 0.24245 0.0
C250 C 0.18544 0.1358 0.27372 0.0
C251 C 0.1394 0.15406 0.33346 0.0
H252 H 0.16243 0.08745 0.37 0.0
C253 C 0.09513 0.11114 0.44457 0.0
C254 C 0.0926 0.08298 0.45008 0.0
C255 C 0.10821 0.12262 0.41974 0.0
C256 C 0.15524 0.10589 0.36009 0.0
H257 H 0.19373 0.21297 0.25897 0.0
H258 H 0.17066 0.1948 0.30196 0.0
H259 H 0.18485 0.10617 0.32711 0.0
H260 H 0.10221 0.04515 0.43262 0.0
H261 H 0.12434 0.06476 0.38985 0.0
H262 H 0.10978 0.15374 0.36655 0.0
C263 C 0.17801 0.18075 0.28732 0.0
C264 C 0.16831 0.1168 0.3351 0.0
C265 C 0.19141 0.19132 0.26231 0.0
C266 C 0.10366 0.06687 0.42962 0.0
C267 C 0.11671 0.0783 0.40487 0.0
C268 C 0.1263 0.14313 0.35849 0.0
C269 C 0.1748 0.1527 0.29376 0.0
C270 C 0.1607 0.14112 0.32103 0.0
C271 C 0.11943 0.10648 0.39926 0.0
C272 C 0.1338 0.11868 0.37241 0.0
H273 H 0.20609 0.13225 0.23412 0.0
H274 H 0.18315 0.11414 0.27698 0.0
H275 H 0.13232 0.17255 0.32353 0.0
H276 H 0.08705 0.12445 0.45957 0.0
H277 H 0.10987 0.14434 0.41692 0.0
C278 C 0.41999 0.81056 0.86166 0.0
C279 C 0.39918 0.81567 0.84087 0.0
C280 C 0.43016 0.83074 0.87998 0.0
C281 C 0.43737 0.90401 0.8869 0.0
H282 H 0.4444 0.88662 0.96915 0.0
C283 C 0.4687 0.98596 0.96851 0.0
C284 C 0.48653 0.97888 0.99163 0.0
C285 C 0.45651 0.96622 0.95075 0.0
C286 C 0.44293 0.89179 0.94623 0.0
H287 H 0.37323 0.84606 0.8224 0.0
H288 H 0.39126 0.88147 0.85419 0.0
H289 H 0.42745 0.85193 0.93629 0.0
H290 H 0.50524 0.9454 1.01448 0.0
H291 H 0.48469 0.91123 0.98322 0.0
H292 H 0.45348 0.94362 0.89654 0.0
C293 C 0.39959 0.86182 0.8564 0.0
C294 C 0.43314 0.87189 0.92741 0.0
C295 C 0.38917 0.84154 0.83834 0.0
C296 C 0.49147 0.95157 0.99696 0.0
C297 C 0.47953 0.93189 0.97905 0.0
C298 C 0.44746 0.92386 0.90566 0.0
C299 C 0.41998 0.85654 0.87763 0.0
C300 C 0.43031 0.87776 0.89755 0.0
C301 C 0.46208 0.93894 0.95551 0.0
C302 C 0.45045 0.91802 0.9356 0.0
H303 H 0.42794 0.79076 0.86424 0.0
H304 H 0.44605 0.82618 0.89597 0.0
H305 H 0.43563 0.90905 0.86394 0.0
H306 H 0.46435 1.0068 0.96391 0.0
H307 H 0.44277 0.97239 0.93321 0.0
C308 C 0.65962 0.52964 0.87742 0.0
C309 C 0.64022 0.52797 0.89887 0.0
C310 C 0.6513 0.53021 0.84823 0.0
C311 C 0.5925 0.51134 0.80008 0.0
H312 H 0.62964 0.55908 0.74388 0.0
C313 C 0.59492 0.53049 0.66808 0.0
C314 C 0.56671 0.52949 0.66189 0.0
C315 C 0.60491 0.53023 0.69683 0.0
C316 C 0.6193 0.5454 0.75927 0.0
H317 H 0.59722 0.52571 0.90751 0.0
H318 H 0.58241 0.527 0.85633 0.0
H319 H 0.64483 0.55938 0.79473 0.0
H320 H 0.52684 0.52798 0.68059 0.0
H321 H 0.54417 0.52772 0.73046 0.0
H322 H 0.56693 0.4974 0.76475 0.0
C323 C 0.60404 0.52761 0.86188 0.0
C324 C 0.62796 0.54559 0.78838 0.0
C325 C 0.61242 0.52706 0.89108 0.0
C326 C 0.54871 0.52849 0.68476 0.0
C327 C 0.55863 0.5282 0.71334 0.0
C328 C 0.58387 0.51114 0.77104 0.0
C329 C 0.6234 0.52901 0.84013 0.0
C330 C 0.61451 0.5287 0.80914 0.0
C331 C 0.58681 0.52892 0.71975 0.0
C332 C 0.59701 0.52833 0.75034 0.0
H333 H 0.68122 0.53015 0.88323 0.0
H334 H 0.66669 0.53095 0.83205 0.0
H335 H 0.58207 0.49767 0.81542 0.0
H336 H 0.60921 0.53138 0.65078 0.0
H337 H 0.62675 0.53067 0.70111 0.0
C338 C 0.8059 0.78099 0.19277 0.0
C339 C 0.81168 0.7812 0.22259 0.0
C340 C 0.80893 0.75763 0.17776 0.0
C341 C 0.81941 0.68428 0.18769 0.0
H342 H 0.86286 0.69647 0.11973 0.0
C343 C 0.8907 0.60728 0.14853 0.0
C344 C 0.89498 0.60624 0.1188 0.0
C345 C 0.87373 0.62599 0.15872 0.0
C346 C 0.85021 0.6926 0.13827 0.0
H347 H 0.82446 0.75769 0.26051 0.0
H348 H 0.8299 0.71696 0.23451 0.0
H349 H 0.84468 0.73451 0.14199 0.0
H350 H 0.8833 0.62255 0.07627 0.0
H351 H 0.85359 0.65519 0.09407 0.0
H352 H 0.82594 0.64238 0.18455 0.0
C353 C 0.82256 0.73442 0.22259 0.0
C354 C 0.83975 0.71446 0.15105 0.0
C355 C 0.81958 0.75775 0.2375 0.0
C356 C 0.88079 0.62326 0.09936 0.0
C357 C 0.86378 0.64193 0.10954 0.0
C358 C 0.82989 0.66238 0.1749 0.0
C359 C 0.81783 0.73424 0.19246 0.0
C360 C 0.82489 0.71063 0.17636 0.0
C361 C 0.86063 0.64399 0.13938 0.0
C362 C 0.84603 0.6664 0.15051 0.0
H363 H 0.79986 0.79906 0.18098 0.0
H364 H 0.80494 0.75803 0.15458 0.0
H365 H 0.80765 0.68065 0.20693 0.0
H366 H 0.90153 0.59458 0.16404 0.0
H367 H 0.87203 0.62727 0.18187 0.0
C368 C 0.28617 0.17058 0.14025 0.0
C369 C 0.27901 0.16779 0.16964 0.0
C370 C 0.30884 0.15825 0.12968 0.0
C371 C 0.37281 0.12161 0.15446 0.0
H372 H 0.37611 0.10903 0.0728 0.0
C373 C 0.47248 0.08328 0.10783 0.0
C374 C 0.47173 0.06886 0.08219 0.0
C375 C 0.44919 0.09497 0.11766 0.0
C376 C 0.37578 0.11198 0.09578 0.0
H377 H 0.29153 0.14847 0.21046 0.0
H378 H 0.32966 0.1263 0.19213 0.0
H379 H 0.33624 0.12803 0.09115 0.0
H380 H 0.44476 0.05584 0.04685 0.0
H381 H 0.40405 0.07538 0.0641 0.0
H382 H 0.41172 0.10443 0.15937 0.0
C383 C 0.31817 0.13879 0.17706 0.0
C384 C 0.35263 0.12353 0.10648 0.0
C385 C 0.2956 0.15138 0.18772 0.0
C386 C 0.4465 0.06683 0.06658 0.0
C387 C 0.42293 0.07831 0.07663 0.0
C388 C 0.3958 0.10983 0.14383 0.0
C389 C 0.32561 0.142 0.14773 0.0
C390 C 0.3505 0.12887 0.13614 0.0
C391 C 0.42357 0.0926 0.10262 0.0
C392 C 0.39813 0.10484 0.11412 0.0
H393 H 0.27413 0.18227 0.12491 0.0
H394 H 0.31329 0.16198 0.10713 0.0
H395 H 0.37294 0.12531 0.17731 0.0
H396 H 0.49137 0.08565 0.12055 0.0
H397 H 0.45163 0.10618 0.13717 0.0
C398 C 0.28776 0.8223 0.76575 0.0
C399 C 0.28297 0.79441 0.76974 0.0
C400 C 0.27042 0.83698 0.74731 0.0
C401 C 0.22201 0.82857 0.68523 0.0
H402 H 0.19823 0.89783 0.70575 0.0
C403 C 0.14264 0.88475 0.61484 0.0
C404 C 0.14726 0.91277 0.61091 0.0
C405 C 0.15844 0.8703 0.63507 0.0
C406 C 0.20492 0.87865 0.69956 0.0
H407 H 0.25675 0.75968 0.7584 0.0
H408 H 0.22623 0.78524 0.72626 0.0
H409 H 0.22744 0.87283 0.73963 0.0
H410 H 0.17228 0.94758 0.62484 0.0
H411 H 0.20002 0.9224 0.65987 0.0
H412 H 0.19984 0.83443 0.64506 0.0
C413 C 0.24339 0.79587 0.73701 0.0
C414 C 0.22164 0.86433 0.71899 0.0
C415 C 0.26067 0.78128 0.75548 0.0
C416 C 0.16795 0.92605 0.6277 0.0
C417 C 0.18382 0.91161 0.64781 0.0
C418 C 0.2054 0.84291 0.66577 0.0
C419 C 0.24818 0.82386 0.73253 0.0
C420 C 0.23035 0.83912 0.71204 0.0
C421 C 0.17932 0.88355 0.65171 0.0
C422 C 0.19665 0.86813 0.67267 0.0
H423 H 0.30506 0.83266 0.77657 0.0
H424 H 0.2748 0.85846 0.74408 0.0
H425 H 0.22874 0.8094 0.67903 0.0
H426 H 0.12662 0.87402 0.60246 0.0
H427 H 0.15413 0.84877 0.63784 0.0
C428 C 0.76343 0.50698 0.98969 0.0
C429 C 0.75066 0.48708 0.97235 0.0
C430 C 0.79173 0.51185 0.98993 0.0
C431 C 0.85147 0.50482 0.94641 0.0
H432 H 0.89218 0.51253 1.01929 0.0
C433 C 0.96538 0.54356 0.95664 0.0
C434 C 0.98158 0.52954 0.97705 0.0
C435 C 0.93719 0.53757 0.95457 0.0
C436 C 0.88108 0.5103 0.99878 0.0
H437 H 0.75739 0.45681 0.94152 0.0
H438 H 0.80691 0.46529 0.94202 0.0
H439 H 0.84279 0.50361 1.01922 0.0
H440 H 0.98153 0.49741 1.01014 0.0
H441 H 0.93239 0.48708 1.00666 0.0
H442 H 0.88989 0.51151 0.92602 0.0
C443 C 0.795 0.47713 0.95537 0.0
C444 C 0.85282 0.50544 0.99874 0.0
C445 C 0.76674 0.47208 0.95533 0.0
C446 C 0.9694 0.50874 0.99446 0.0
C447 C 0.94131 0.5029 0.99257 0.0
C448 C 0.87976 0.50995 0.94645 0.0
C449 C 0.80777 0.4971 0.97262 0.0
C450 C 0.83774 0.50253 0.97257 0.0
C451 C 0.92485 0.51757 0.97298 0.0
C452 C 0.89484 0.51256 0.97265 0.0
H453 H 0.75153 0.51876 1.00309 0.0
H454 H 0.80103 0.52749 1.0033 0.0
H455 H 0.8403 0.5029 0.92592 0.0
H456 H 0.97432 0.55972 0.94299 0.0
H457 H 0.92493 0.54923 0.93934 0.0
C458 C 0.78585 0.76442 0.34543 0.0
C459 C 0.81256 0.77606 0.34838 0.0
C460 C 0.77727 0.74244 0.36329 0.0
C461 C 0.79097 0.71214 0.43498 0.0
H462 H 0.74422 0.65243 0.40713 0.0
C463 C 0.74386 0.63125 0.51398 0.0
C464 C 0.71599 0.62443 0.50872 0.0
C465 C 0.75911 0.64573 0.49297 0.0
C466 C 0.75718 0.66902 0.41527 0.0
H467 H 0.85158 0.77282 0.37145 0.0
H468 H 0.83635 0.73478 0.40299 0.0
H469 H 0.76423 0.68571 0.3726 0.0
H470 H 0.68237 0.62722 0.4772 0.0
H471 H 0.70872 0.65258 0.4409 0.0
H472 H 0.78309 0.69627 0.47764 0.0
C473 C 0.82203 0.74288 0.38703 0.0
C474 C 0.76864 0.68803 0.39548 0.0
C475 C 0.83068 0.76472 0.36905 0.0
C476 C 0.70392 0.63172 0.48176 0.0
C477 C 0.71908 0.64626 0.46087 0.0
C478 C 0.77935 0.69327 0.45478 0.0
C479 C 0.79515 0.73172 0.38456 0.0
C480 C 0.78523 0.71005 0.40518 0.0
C481 C 0.74676 0.65382 0.46636 0.0
C482 C 0.76185 0.67179 0.4452 0.0
H483 H 0.77129 0.77283 0.32997 0.0
H484 H 0.75631 0.73446 0.36115 0.0
H485 H 0.80346 0.72907 0.44309 0.0
H486 H 0.75377 0.62565 0.53446 0.0
H487 H 0.78049 0.65091 0.49773 0.0
C488 C 0.16616 0.28646 0.12514 0.0
C489 C 0.18049 0.28601 0.15208 0.0
C490 C 0.15304 0.30959 0.11442 0.0
C491 C 0.129 0.37701 0.1358 0.0
H492 H 0.1274 0.39281 0.05314 0.0
C493 C 0.068 0.46625 0.0831 0.0
C494 C 0.07784 0.48051 0.05821 0.0
C495 C 0.08021 0.44288 0.09465 0.0
C496 C 0.1277 0.38905 0.07634 0.0
H497 H 0.19226 0.31023 0.18865 0.0
H498 H 0.16932 0.35029 0.17042 0.0
H499 H 0.14853 0.35267 0.07288 0.0
H500 H 0.10897 0.48044 0.02631 0.0
H501 H 0.13013 0.44021 0.04624 0.0
H502 H 0.10855 0.41365 0.13926 0.0
C503 C 0.16772 0.33262 0.1575 0.0
C504 C 0.13966 0.36551 0.08779 0.0
C505 C 0.18095 0.30946 0.16814 0.0
C506 C 0.10048 0.47028 0.04537 0.0
C507 C 0.11264 0.44684 0.05685 0.0
C508 C 0.1169 0.40048 0.12432 0.0
C509 C 0.15376 0.33341 0.13014 0.0
C510 C 0.14063 0.35886 0.11782 0.0
C511 C 0.10283 0.43253 0.08182 0.0
C512 C 0.11595 0.40713 0.09428 0.0
H513 H 0.16567 0.26905 0.11184 0.0
H514 H 0.14237 0.30872 0.09357 0.0
H515 H 0.12889 0.37297 0.15894 0.0
H516 H 0.05068 0.47313 0.09383 0.0
H517 H 0.07149 0.43268 0.11354 0.0
C518 C 0.64303 0.41808 0.98495 0.0
C519 C 0.6668 0.42434 0.96947 0.0
C520 C 0.63101 0.39188 0.98587 0.0
C521 C 0.62705 0.32862 0.94705 0.0
H522 H 0.60237 0.29641 1.01992 0.0
C523 C 0.59416 0.21574 0.96037 0.0
C524 C 0.57156 0.20842 0.97733 0.0
C525 C 0.60539 0.24221 0.95941 0.0
C526 C 0.60882 0.30522 0.99932 0.0
H527 H 0.69635 0.40811 0.94243 0.0
H528 H 0.67551 0.36232 0.94425 0.0
H529 H 0.6225 0.34246 1.01812 0.0
H530 H 0.54283 0.22323 1.00631 0.0
H531 H 0.56228 0.26955 1.00445 0.0
H532 H 0.61328 0.29151 0.92818 0.0
C533 C 0.6661 0.3777 0.95557 0.0
C534 C 0.62039 0.3316 0.99831 0.0
C535 C 0.6782 0.40386 0.95478 0.0
C536 C 0.56045 0.22818 0.99332 0.0
C537 C 0.57163 0.2547 0.99227 0.0
C538 C 0.61539 0.3023 0.94803 0.0
C539 C 0.64241 0.37141 0.97118 0.0
C540 C 0.62972 0.34355 0.97218 0.0
C541 C 0.59424 0.26204 0.9753 0.0
C542 C 0.60623 0.29022 0.9742 0.0
H543 H 0.63389 0.43339 0.99665 0.0
H544 H 0.61263 0.38771 0.99786 0.0
H545 H 0.63367 0.33742 0.9265 0.0
H546 H 0.60346 0.20087 0.94819 0.0
H547 H 0.62311 0.24704 0.94654 0.0
C548 C 0.88673 0.85714 0.35917 0.0
C549 C 0.86557 0.86494 0.33993 0.0
C550 C 0.90382 0.87639 0.37293 0.0
C551 C 0.90598 0.94684 0.3944 0.0
H552 H 0.98168 0.93395 0.41352 0.0
C553 C 1.00714 1.00163 0.45546 0.0
C554 C 0.99423 1.01144 0.47901 0.0
C555 C 0.99245 0.98508 0.43596 0.0
C556 C 0.9607 0.9381 0.40805 0.0
H557 H 0.84632 0.89919 0.31939 0.0
H558 H 0.87675 0.93296 0.34285 0.0
H559 H 0.95496 0.90348 0.38223 0.0
H560 H 0.95621 1.01129 0.50121 0.0
H561 H 0.93078 0.98185 0.46782 0.0
H562 H 0.91184 0.98174 0.41974 0.0
C563 C 0.87972 0.91186 0.34772 0.0
C564 C 0.94526 0.92042 0.3904 0.0
C565 C 0.86246 0.89253 0.33405 0.0
C566 C 0.96658 1.00414 0.48306 0.0
C567 C 0.95197 0.98746 0.46377 0.0
C568 C 0.92147 0.96464 0.41185 0.0
C569 C 0.9004 0.90399 0.36759 0.0
C570 C 0.91757 0.92427 0.38384 0.0
C571 C 0.96464 0.9779 0.43983 0.0
C572 C 0.94886 0.96017 0.41938 0.0
H573 H 0.89002 0.83605 0.36377 0.0
H574 H 0.91927 0.86955 0.38835 0.0
H575 H 0.88467 0.95034 0.39 0.0
H576 H 0.02847 1.00705 0.45185 0.0
H577 H 1.00278 0.97827 0.41763 0.0
C578 C 0.40204 0.71073 0.77278 0.0
C579 C 0.40983 0.73812 0.77621 0.0
C580 C 0.41682 0.69495 0.75558 0.0
C581 C 0.46773 0.70086 0.69749 0.0
H582 H 0.46952 0.62386 0.71343 0.0
C583 C 0.53528 0.62883 0.63991 0.0
C584 C 0.52083 0.6066 0.62766 0.0
C585 C 0.52224 0.64568 0.65763 0.0
C586 C 0.46905 0.64534 0.70872 0.0
H587 H 0.44019 0.76996 0.76486 0.0
H588 H 0.46693 0.74206 0.73643 0.0
H589 H 0.44772 0.65144 0.74695 0.0
H590 H 0.4815 0.58449 0.62435 0.0
H591 H 0.4589 0.61358 0.65615 0.0
H592 H 0.49016 0.6945 0.65975 0.0
C593 C 0.44871 0.73298 0.74615 0.0
C594 C 0.45643 0.6612 0.72781 0.0
C595 C 0.43359 0.74894 0.76296 0.0
C596 C 0.49306 0.60161 0.63333 0.0
C597 C 0.48019 0.6181 0.65161 0.0
C598 C 0.48088 0.68503 0.67876 0.0
C599 C 0.44026 0.70586 0.74177 0.0
C600 C 0.45523 0.68917 0.7223 0.0
C601 C 0.49471 0.6402 0.66397 0.0
C602 C 0.48134 0.65711 0.68404 0.0
H603 H 0.38425 0.70142 0.78312 0.0
H604 H 0.40931 0.67432 0.75259 0.0
H605 H 0.46688 0.72216 0.69209 0.0
H606 H 0.5567 0.63314 0.63586 0.0
H607 H 0.53383 0.66257 0.66701 0.0
C608 C 0.92491 0.88937 0.79262 0.0
C609 C 0.90997 0.90368 0.81176 0.0
C610 C 0.93738 0.90221 0.76819 0.0
C611 C 0.93801 0.9663 0.72002 0.0
H612 H 1.00451 0.93996 0.69276 0.0
C613 C 0.99893 0.02388 0.62635 0.0
C614 C 1.01335 1.00912 0.60723 0.0
C615 C 0.98654 1.01137 0.65104 0.0
C616 C 0.98575 0.94757 0.69961 0.0
H617 H 0.89725 0.94367 0.81913 0.0
H618 H 0.91879 0.96583 0.77712 0.0
H619 H 0.98319 0.91824 0.73498 0.0
H620 H 1.02565 0.96898 0.60002 0.0
H621 H 1.00414 0.94734 0.64237 0.0
H622 H 0.94062 0.99566 0.68463 0.0
C623 C 0.92059 0.94438 0.78068 0.0
C624 C 0.97333 0.93493 0.72419 0.0
C625 C 0.90809 0.93152 0.80512 0.0
C626 C 1.0149 0.9813 0.61396 0.0
C627 C 1.00257 0.9688 0.63866 0.0
C628 C 0.95044 0.97896 0.69544 0.0
C629 C 0.93558 0.93007 0.76156 0.0
C630 C 0.9491 0.94392 0.73503 0.0
C631 C 0.98804 0.98349 0.65785 0.0
C632 C 0.97463 0.9699 0.68456 0.0
H633 H 0.9266 0.8679 0.79607 0.0
H634 H 0.94805 0.88996 0.75414 0.0
H635 H 0.91924 0.9739 0.72687 0.0
H636 H 0.99716 0.04529 0.62228 0.0
H637 H 0.97608 0.02384 0.66505 0.0
C638 C 0.69396 0.23035 0.23929 0.0
C639 C 0.67643 0.24054 0.25887 0.0
C640 C 0.68347 0.2141 0.21706 0.0
C641 C 0.62614 0.16691 0.20014 0.0
H642 H 0.64719 0.17719 0.12032 0.0
C643 C 0.60066 0.0864 0.11684 0.0
C644 C 0.58726 0.09514 0.09109 0.0
C645 C 0.61289 0.105 0.13575 0.0
C646 C 0.64113 0.17418 0.14253 0.0
H647 H 0.63426 0.24182 0.27053 0.0
H648 H 0.61599 0.21323 0.23192 0.0
H649 H 0.66559 0.20879 0.1565 0.0
H650 H 0.57733 0.13026 0.06434 0.0
H651 H 0.59917 0.16287 0.09742 0.0
H652 H 0.60196 0.13224 0.18643 0.0
C653 C 0.63779 0.21792 0.23367 0.0
C654 C 0.65175 0.1921 0.1632 0.0
C655 C 0.64822 0.23442 0.25561 0.0
C656 C 0.58739 0.12291 0.08407 0.0
C657 C 0.59996 0.14156 0.10291 0.0
C658 C 0.61589 0.14883 0.17964 0.0
C659 C 0.65531 0.20744 0.21431 0.0
C660 C 0.64425 0.18866 0.19218 0.0
C661 C 0.61229 0.13275 0.12922 0.0
C662 C 0.62327 0.15225 0.15065 0.0
H663 H 0.71578 0.23489 0.24123 0.0
H664 H 0.69743 0.20614 0.20252 0.0
H665 H 0.62019 0.16366 0.22236 0.0
H666 H 0.60102 0.06517 0.12291 0.0
H667 H 0.62254 0.09767 0.15573 0.0
C668 C 0.39044 0.59227 0.33595 0.0
C669 C 0.38122 0.61741 0.32699 0.0
C670 C 0.41177 0.59049 0.35662 0.0
C671 C 0.44596 0.62735 0.4163 0.0
H672 H 0.50009 0.57456 0.41081 0.0
C673 C 0.53328 0.614 0.50273 0.0
C674 C 0.53788 0.58724 0.51129 0.0
C675 C 0.51605 0.61966 0.47874 0.0
C676 C 0.48503 0.5893 0.41272 0.0
H677 H 0.38674 0.66044 0.33165 0.0
H678 H 0.42436 0.65751 0.36786 0.0
H679 H 0.4668 0.58096 0.37113 0.0
H680 H 0.52824 0.54541 0.50166 0.0
H681 H 0.49813 0.55521 0.46011 0.0
H682 H 0.46397 0.63536 0.45814 0.0
C683 C 0.41503 0.63912 0.35922 0.0
C684 C 0.46596 0.59297 0.38999 0.0
C685 C 0.39369 0.64085 0.33848 0.0
C686 C 0.52511 0.56626 0.49547 0.0
C687 C 0.50802 0.57188 0.47154 0.0
C688 C 0.46508 0.62369 0.43906 0.0
C689 C 0.42419 0.61388 0.36867 0.0
C690 C 0.4459 0.6117 0.39172 0.0
C691 C 0.50327 0.59863 0.46287 0.0
C692 C 0.48451 0.60428 0.43773 0.0
H693 H 0.38087 0.57397 0.32732 0.0
H694 H 0.41803 0.57073 0.36371 0.0
H695 H 0.4306 0.64175 0.41844 0.0
H696 H 0.5429 0.63053 0.5146 0.0
H697 H 0.51292 0.64048 0.47248 0.0
C698 C 0.27246 0.32155 0.86603 0.0
C699 C 0.25546 0.29896 0.87369 0.0
C700 C 0.27133 0.3454 0.88072 0.0
C701 C 0.24479 0.3745 0.94593 0.0
H702 H 0.23593 0.43732 0.89483 0.0
C703 C 0.18414 0.4638 0.97482 0.0
C704 C 0.19111 0.48963 0.96288 0.0
C705 C 0.19885 0.44187 0.96834 0.0
C706 C 0.239 0.42022 0.90959 0.0
H707 H 0.22471 0.28269 0.90283 0.0
H708 H 0.22254 0.32434 0.92857 0.0
H709 H 0.24948 0.39591 0.87525 0.0
H710 H 0.22029 0.51308 0.93667 0.0
H711 H 0.2462 0.47476 0.92552 0.0
H712 H 0.23338 0.39867 0.98013 0.0
C713 C 0.23702 0.32375 0.9116 0.0
C714 C 0.24675 0.39641 0.89832 0.0
C715 C 0.23812 0.29997 0.89683 0.0
C716 C 0.21418 0.49334 0.94581 0.0
C717 C 0.22898 0.47139 0.9394 0.0
C718 C 0.23711 0.39838 0.95725 0.0
C719 C 0.25316 0.34692 0.90326 0.0
C720 C 0.24901 0.37308 0.9162 0.0
C721 C 0.22094 0.44526 0.94983 0.0
C722 C 0.23338 0.42131 0.93905 0.0
H723 H 0.28601 0.32107 0.84818 0.0
H724 H 0.2842 0.36282 0.87399 0.0
H725 H 0.24678 0.35696 0.96033 0.0
H726 H 0.16627 0.46016 0.98774 0.0
H727 H 0.19183 0.42202 0.97646 0.0
C728 C 0.79262 0.94153 0.91386 0.0
C729 C 0.79272 0.91363 0.90978 0.0
C730 C 0.77028 0.95289 0.92647 0.0
C731 C 0.69526 0.9378 0.94202 0.0
H732 H 0.70428 1.00094 0.9883 0.0
C733 C 0.60077 0.9952 0.97385 0.0
C734 C 0.60062 1.00776 1.00061 0.0
C735 C 0.62428 0.98379 0.96426 0.0
C736 C 0.70117 0.98318 0.97561 0.0
H737 H 0.76889 0.87601 0.91598 0.0
H738 H 0.73054 0.89535 0.93804 0.0
H739 H 0.74432 0.98147 0.96965 0.0
H740 H 0.62615 0.01779 0.03818 0.0
H741 H 0.66719 0.99793 0.02159 0.0
H742 H 0.65227 0.93926 0.94804 0.0
C743 C 0.74749 0.90881 0.9314 0.0
C744 C 0.72438 0.97205 0.96451 0.0
C745 C 0.76983 0.89752 0.91896 0.0
C746 C 0.62517 1.00834 1.0175 0.0
C747 C 0.64893 0.99702 1.00776 0.0
C748 C 0.67212 0.94899 0.9529 0.0
C749 C 0.74694 0.93684 0.9352 0.0
C750 C 0.72202 0.94904 0.94743 0.0
C751 C 0.64903 0.98441 0.98086 0.0
C752 C 0.6744 0.97203 0.96991 0.0
H753 H 0.80958 0.95475 0.90668 0.0
H754 H 0.771 0.9745 0.92851 0.0
H755 H 0.69196 0.92039 0.92882 0.0
H756 H 0.58252 0.99428 0.95997 0.0
H757 H 0.62306 0.97488 0.94331 0.0
C758 C 0.74235 0.22421 0.35085 0.0
C759 C 0.74087 0.25199 0.3446 0.0
C760 C 0.76427 0.21444 0.36729 0.0
C761 C 0.81937 0.23323 0.41992 0.0
H762 H 0.85333 0.17194 0.39108 0.0
C763 C 0.91962 0.19393 0.47106 0.0
C764 C 0.92179 0.16586 0.47301 0.0
C765 C 0.89765 0.20511 0.45579 0.0
C766 C 0.8439 0.18883 0.39969 0.0
H767 H 0.76113 0.2913 0.35136 0.0
H768 H 0.7993 0.27416 0.3805 0.0
H769 H 0.81449 0.1901 0.36447 0.0
H770 H 0.90251 0.12762 0.46009 0.0
H771 H 0.86391 0.14695 0.43447 0.0
H772 H 0.84857 0.23173 0.45539 0.0
C773 C 0.78338 0.26002 0.37262 0.0
C774 C 0.82166 0.19927 0.38438 0.0
C775 C 0.76149 0.26982 0.35598 0.0
C776 C 0.90138 0.14929 0.45941 0.0
C777 C 0.87939 0.16043 0.44431 0.0
C778 C 0.84155 0.22265 0.4354 0.0
C779 C 0.78518 0.23218 0.37809 0.0
C780 C 0.80906 0.2215 0.39437 0.0
C781 C 0.87728 0.18849 0.44215 0.0
C782 C 0.85402 0.20022 0.42554 0.0
H783 H 0.72651 0.20994 0.34305 0.0
H784 H 0.76482 0.19292 0.37162 0.0
H785 H 0.80993 0.25024 0.42826 0.0
H786 H 0.93479 0.20731 0.48153 0.0
H787 H 0.89685 0.22681 0.45436 0.0
C788 C 0.25724 0.65394 0.21477 0.0
C789 C 0.28199 0.64949 0.2022 0.0
C790 C 0.23286 0.65269 0.1982 0.0
C791 C 0.20539 0.65033 0.12173 0.0
H792 H 0.14102 0.61774 0.15821 0.0
C793 C 0.11317 0.5974 0.06199 0.0
C794 C 0.08701 0.60283 0.07044 0.0
C795 C 0.13631 0.60852 0.07652 0.0
C796 C 0.15873 0.62726 0.14785 0.0
H797 H 0.30088 0.64017 0.16268 0.0
H798 H 0.25834 0.63674 0.13398 0.0
H799 H 0.18283 0.62593 0.18713 0.0
H800 H 0.06441 0.62486 0.09993 0.0
H801 H 0.10505 0.64376 0.12595 0.0
H802 H 0.18137 0.64998 0.08205 0.0
C803 C 0.25762 0.64215 0.15632 0.0
C804 C 0.18273 0.63206 0.16442 0.0
C805 C 0.28202 0.64388 0.17278 0.0
C806 C 0.08436 0.62039 0.09297 0.0
C807 C 0.10754 0.63111 0.10789 0.0
C808 C 0.18149 0.64507 0.10507 0.0
C809 C 0.23266 0.64646 0.16881 0.0
C810 C 0.20653 0.64333 0.15153 0.0
C811 C 0.13368 0.62487 0.10008 0.0
C812 C 0.15807 0.63321 0.11796 0.0
H813 H 0.2568 0.65863 0.23738 0.0
H814 H 0.2142 0.65667 0.20848 0.0
H815 H 0.22305 0.65961 0.11111 0.0
H816 H 0.11576 0.58383 0.04478 0.0
H817 H 0.15624 0.60322 0.07026 0.0
C818 C 0.28242 0.30486 0.72099 0.0
C819 C 0.27015 0.30816 0.74743 0.0
C820 C 0.2936 0.32703 0.70525 0.0
C821 C 0.32336 0.39535 0.7113 0.0
H822 H 0.30979 0.39849 0.62816 0.0
C823 C 0.37911 0.4753 0.63697 0.0
C824 C 0.39096 0.46443 0.61323 0.0
C825 C 0.35969 0.45997 0.65297 0.0
C826 C 0.31376 0.39792 0.65135 0.0
H827 H 0.26066 0.33737 0.77842 0.0
H828 H 0.28091 0.3763 0.75095 0.0
H829 H 0.28525 0.36419 0.65796 0.0
H830 H 0.39117 0.42908 0.5874 0.0
H831 H 0.35734 0.40264 0.61493 0.0
H832 H 0.35273 0.4284 0.70455 0.0
C833 C 0.28155 0.35642 0.74246 0.0
C834 C 0.29972 0.3783 0.66838 0.0
C835 C 0.27009 0.33415 0.7582 0.0
C836 C 0.38213 0.43834 0.60516 0.0
C837 C 0.36271 0.42311 0.62102 0.0
C838 C 0.33752 0.41497 0.69421 0.0
C839 C 0.29305 0.35306 0.71563 0.0
C840 C 0.305 0.3763 0.6984 0.0
C841 C 0.35164 0.43353 0.64543 0.0
C842 C 0.33346 0.4159 0.66395 0.0
H843 H 0.28347 0.28506 0.71243 0.0
H844 H 0.30298 0.32375 0.685 0.0
H845 H 0.32787 0.39419 0.73438 0.0
H846 H 0.38521 0.49548 0.64352 0.0
H847 H 0.35128 0.46864 0.67148 0.0
C848 C 0.93573 0.82516 0.89263 0.0
C849 C 0.90717 0.82776 0.89082 0.0
C850 C 0.94728 0.80161 0.90459 0.0
C851 C 0.93223 0.73858 0.95181 0.0
H852 H 0.99669 0.71407 0.91813 0.0
C853 C 0.97684 0.63504 0.99051 0.0
C854 C 1.00488 0.63116 0.9881 0.0
C855 C 0.96499 0.65864 0.979 0.0
C856 C 0.97896 0.72056 0.92839 0.0
H857 H 0.86885 0.80604 0.90107 0.0
H858 H 0.88883 0.76574 0.92221 0.0
H859 H 0.97664 0.75472 0.89851 0.0
H860 H 0.04219 0.65025 0.97147 0.0
H861 H 1.02208 0.69119 0.95234 0.0
H862 H 0.93469 0.70473 0.98196 0.0
C863 C 0.90244 0.78215 0.91439 0.0
C864 C 0.96725 0.74422 0.91688 0.0
C865 C 0.89084 0.80564 0.90218 0.0
C866 C 1.02056 0.65206 0.97382 0.0
C867 C 1.00877 0.67576 0.9625 0.0
C868 C 0.94407 0.71503 0.9635 0.0
C869 C 0.93095 0.77944 0.91568 0.0
C870 C 0.94357 0.75384 0.92826 0.0
C871 C 0.98062 0.6797 0.96467 0.0
C872 C 0.96777 0.70532 0.95209 0.0
H873 H 0.94949 0.84152 0.88502 0.0
H874 H 0.96927 0.80103 0.90549 0.0
H875 H 0.91433 0.74511 0.96175 0.0
H876 H 0.96379 0.61962 1.00112 0.0
H877 H 0.94328 0.66002 0.98105 0.0
C878 C 0.38293 0.69152 0.18764 0.0
C879 C 0.37822 0.68647 0.21722 0.0
C880 C 0.4023 0.71152 0.17864 0.0
C881 C 0.43788 0.77384 0.20522 0.0
H882 H 0.4752 0.77275 0.13303 0.0
C883 C 0.5091 0.8626 0.16561 0.0
C884 C 0.5027 0.87271 0.13749 0.0
C885 C 0.4979 0.83761 0.17552 0.0
C886 C 0.4649 0.77325 0.15325 0.0
H887 H 0.39163 0.69758 0.26055 0.0
H888 H 0.42639 0.73127 0.24492 0.0
H889 H 0.44951 0.73222 0.15094 0.0
H890 H 0.48015 0.86387 0.09744 0.0
H891 H 0.46103 0.81993 0.11469 0.0
H892 H 0.45341 0.81481 0.20752 0.0
C893 C 0.41436 0.72047 0.22859 0.0
C894 C 0.45008 0.75011 0.16348 0.0
C895 C 0.39466 0.70077 0.23759 0.0
C896 C 0.48574 0.85664 0.11912 0.0
C897 C 0.47476 0.83148 0.12897 0.0
C898 C 0.45299 0.79676 0.19521 0.0
C899 C 0.41784 0.72672 0.19898 0.0
C900 C 0.43597 0.75025 0.18937 0.0
C901 C 0.48032 0.82199 0.15745 0.0
C902 C 0.46628 0.79684 0.16893 0.0
H903 H 0.37115 0.68046 0.17131 0.0
H904 H 0.4042 0.71576 0.15565 0.0
H905 H 0.42686 0.77504 0.22487 0.0
H906 H 0.52265 0.87409 0.18011 0.0
H907 H 0.50278 0.83057 0.19746 0.0
C908 C 0.2159 0.19423 0.7482 0.0
C909 C 0.21285 0.222 0.7439 0.0
C910 C 0.20191 0.17588 0.73002 0.0
C911 C 0.18472 0.14454 0.67655 0.0
H912 H 0.11153 0.15705 0.64704 0.0
C913 C 0.13521 0.0889 0.57885 0.0
C914 C 0.10727 0.08138 0.57985 0.0
C915 C 0.14779 0.10527 0.59992 0.0
C916 C 0.13185 0.15303 0.65526 0.0
H917 H 0.19174 0.2522 0.71816 0.0
H918 H 0.16806 0.22049 0.68613 0.0
H919 H 0.13273 0.18579 0.68365 0.0
H920 H 0.07054 0.08486 0.60357 0.0
H921 H 0.09248 0.11278 0.64056 0.0
H922 H 0.18352 0.11132 0.64859 0.0
C923 C 0.18099 0.21271 0.70359 0.0
C924 C 0.14415 0.16974 0.67604 0.0
C925 C 0.19485 0.23095 0.72175 0.0
C926 C 0.09212 0.09048 0.60218 0.0
C927 C 0.10468 0.10661 0.62331 0.0
C928 C 0.17233 0.12767 0.65586 0.0
C929 C 0.18456 0.18497 0.70726 0.0
C930 C 0.17084 0.16591 0.68672 0.0
C931 C 0.13266 0.11428 0.62244 0.0
C932 C 0.14581 0.13185 0.6448 0.0
H933 H 0.22969 0.18675 0.76505 0.0
H934 H 0.20481 0.15461 0.73368 0.0
H935 H 0.20541 0.14119 0.68407 0.0
H936 H 0.14731 0.08219 0.56178 0.0
H937 H 0.16929 0.11113 0.59834 0.0
C938 C 0.64946 0.34051 0.38913 0.0
C939 C 0.67128 0.34655 0.37094 0.0
C940 C 0.64546 0.35682 0.41221 0.0
C941 C 0.65996 0.42648 0.43426 0.0
H942 H 0.62888 0.39864 0.50604 0.0
C943 C 0.62878 0.49669 0.52213 0.0
C944 C 0.60269 0.49049 0.53297 0.0
C945 C 0.641 0.4784 0.50534 0.0
C946 C 0.63751 0.40672 0.48608 0.0
H947 H 0.70658 0.37344 0.36253 0.0
H948 H 0.69997 0.40193 0.40331 0.0
H949 H 0.64416 0.36744 0.47169 0.0
H950 H 0.56934 0.45984 0.53526 0.0
H951 H 0.59057 0.42815 0.506 0.0
H952 H 0.6528 0.46572 0.4484 0.0
C953 C 0.68572 0.38484 0.39967 0.0
C954 C 0.64625 0.38885 0.46639 0.0
C955 C 0.68966 0.36848 0.37653 0.0
C956 C 0.58942 0.46534 0.52724 0.0
C957 C 0.60169 0.44704 0.51063 0.0
C958 C 0.65131 0.44434 0.454 0.0
C959 C 0.66323 0.37951 0.41745 0.0
C960 C 0.65703 0.39849 0.43994 0.0
C961 C 0.62749 0.45345 0.49922 0.0
C962 C 0.63944 0.43464 0.47984 0.0
H963 H 0.63493 0.32375 0.38487 0.0
H964 H 0.62772 0.35231 0.42513 0.0
H965 H 0.66781 0.43462 0.41396 0.0
H966 H 0.63963 0.51584 0.52619 0.0
H967 H 0.661 0.48382 0.49706 0.0
loop_
_geom_bond_atom_site_label_1
_geom_bond_atom_site_label_2
_geom_bond_distance
_geom_bond_site_symmetry_2
_ccdc_geom_bond_type
H0 C3 0.929 . S
H1 C6 0.929 . S
H2 C8 0.930 . S
C3 H0 0.929 . S
C3 C4 1.398 . S
C3 C5 1.396 . S
C4 C3 1.398 . S
C4 C8 1.407 . S
C5 C3 1.396 . S
C5 C6 1.394 . S
C6 H1 0.929 . S
C6 C5 1.394 . S
C6 C7 1.382 . S
C7 C6 1.382 . S
C7 C8 1.392 . S
C7 N9 1.420 . S
C8 H2 0.930 . S
C8 C4 1.407 . S
C8 C7 1.392 . S
N9 C7 1.420 . S
N9 C10 1.244 . S
C10 N9 1.244 . S
H11 C14 0.929 . S
H12 C17 0.929 . S
H13 C19 0.930 . S
C14 H11 0.929 . S
C14 C15 1.398 . S
C14 C16 1.396 . S
C15 C14 1.398 . S
C15 C19 1.407 . S
C16 C14 1.396 . S
C16 C17 1.394 . S
C17 H12 0.929 . S
C17 C16 1.394 . S
C17 C18 1.382 . S
C18 C17 1.382 . S
C18 C19 1.392 . S
C18 N20 1.420 . S
C19 H13 0.930 . S
C19 C15 1.407 . S
C19 C18 1.392 . S
N20 C18 1.420 . S
N20 C21 1.244 . S
C21 N20 1.244 . S
H22 C25 0.929 . S
H23 C28 0.929 . S
H24 C30 0.930 . S
C25 H22 0.929 . S
C25 C26 1.398 . S
C25 C27 1.396 . S
C26 C25 1.398 . S
C26 C30 1.407 . S
C27 C25 1.396 . S
C27 C28 1.394 . S
C28 H23 0.929 . S
C28 C27 1.394 . S
C28 C29 1.382 . S
C29 C28 1.382 . S
C29 C30 1.392 . S
C29 N31 1.420 . S
C30 H24 0.930 . S
C30 C26 1.407 . S
C30 C29 1.392 . S
N31 C29 1.420 . S
N31 C32 1.244 . S
C32 N31 1.244 . S
H33 C36 0.929 . S
H34 C39 0.929 . S
H35 C41 0.930 . S
C36 H33 0.929 . S
C36 C37 1.398 . S
C36 C38 1.396 . S
C37 C36 1.398 . S
C37 C41 1.407 . S
C38 C36 1.396 . S
C38 C39 1.394 . S
C39 H34 0.929 . S
C39 C38 1.394 . S
C39 C40 1.382 . S
C40 C39 1.382 . S
C40 C41 1.392 . S
C40 N42 1.420 . S
C41 H35 0.930 . S
C41 C37 1.407 . S
C41 C40 1.392 . S
N42 C40 1.420 . S
N42 C43 1.244 . S
C43 N42 1.244 . S
H44 C47 0.929 . S
H45 C50 0.929 . S
H46 C52 0.930 . S
C47 H44 0.929 . S
C47 C48 1.398 . S
C47 C49 1.396 . S
C48 C47 1.398 . S
C48 C52 1.407 . S
C49 C47 1.396 . S
C49 C50 1.394 . S
C50 H45 0.929 . S
C50 C49 1.394 . S
C50 C51 1.382 . S
C51 C50 1.382 . S
C51 C52 1.392 . S
C51 N53 1.420 . S
C52 H46 0.930 . S
C52 C48 1.407 . S
C52 C51 1.392 . S
N53 C51 1.420 . S
N53 C54 1.244 . S
C54 N53 1.244 . S
H55 C58 0.929 . S
H56 C61 0.929 . S
H57 C63 0.930 . S
C58 H55 0.929 . S
C58 C59 1.398 . S
C58 C60 1.396 . S
C59 C58 1.398 . S
C59 C63 1.407 . S
C60 C58 1.396 . S
C60 C61 1.394 . S
C61 H56 0.929 . S
C61 C60 1.394 . S
C61 C62 1.382 . S
C62 C61 1.382 . S
C62 C63 1.392 . S
C62 N64 1.420 . S
C63 H57 0.930 . S
C63 C59 1.407 . S
C63 C62 1.392 . S
N64 C62 1.420 . S
N64 C65 1.244 . S
C65 N64 1.244 . S
H66 C69 0.929 . S
H67 C72 0.929 . S
H68 C74 0.930 . S
C69 H66 0.929 . S
C69 C70 1.398 . S
C69 C71 1.396 . S
C70 C69 1.398 . S
C70 C74 1.407 . S
C71 C69 1.396 . S
C71 C72 1.394 . S
C72 H67 0.929 . S
C72 C71 1.394 . S
C72 C73 1.382 . S
C73 C72 1.382 . S
C73 C74 1.392 . S
C73 N75 1.420 . S
C74 H68 0.930 . S
C74 C70 1.407 . S
C74 C73 1.392 . S
N75 C73 1.420 . S
N75 C76 1.244 . S
C76 N75 1.244 . S
H77 C80 0.929 . S
H78 C83 0.929 . S
H79 C85 0.930 . S
C80 H77 0.929 . S
C80 C81 1.398 . S
C80 C82 1.396 . S
C81 C80 1.398 . S
C81 C85 1.407 . S
C82 C80 1.396 . S
C82 C83 1.394 . S
C83 H78 0.929 . S
C83 C82 1.394 . S
C83 C84 1.382 . S
C84 C83 1.382 . S
C84 C85 1.392 . S
C84 N86 1.420 . S
C85 H79 0.930 . S
C85 C81 1.407 . S
C85 C84 1.392 . S
N86 C84 1.420 . S
N86 C87 1.244 . S
C87 N86 1.244 . S
Nd88 C90 2.836 1_545 S
Nd88 O108 2.500 1_545 S
Nd88 O109 2.492 1_545 S
Nd88 O110 2.487 . S
Nd88 O111 2.682 . S
Nd88 O112 2.410 1_545 S
Nd88 O117 2.414 1_445 S
Nd88 O119 2.424 . S
Nd89 C99 2.836 . S
Nd89 O111 2.414 1_655 S
Nd89 O113 2.424 . S
Nd89 O114 2.500 . S
Nd89 O115 2.492 . S
Nd89 O116 2.487 1_545 S
Nd89 O117 2.682 1_545 S
Nd89 O118 2.410 . S
C90 Nd88 2.836 1_565 S
C90 C91 1.498 . S
C90 O108 1.258 . S
C90 O109 1.239 . S
C91 C90 1.498 . S
C91 C92 1.366 . S
C91 C96 1.407 . S
C92 C91 1.366 . S
C92 C93 1.392 . S
C92 H120 0.930 . S
C93 C92 1.392 . S
C93 C94 1.398 . S
C93 H121 0.929 . S
C94 C93 1.398 . S
C94 C95 1.352 . S
C95 C94 1.352 . S
C95 C96 1.384 . S
C95 H122 0.930 . S
C96 C91 1.407 . S
C96 C95 1.384 . S
C96 H123 0.929 . S
C97 O110 1.241 . S
C97 O111 1.273 . S
C98 O112 1.251 1_655 S
C98 O113 1.268 1_565 S
C99 Nd89 2.836 . S
C99 C100 1.498 . S
C99 O114 1.258 . S
C99 O115 1.239 . S
C100 C99 1.498 . S
C100 C101 1.366 . S
C100 C105 1.407 . S
C101 C100 1.366 . S
C101 C102 1.392 . S
C101 H124 0.930 . S
C102 C101 1.392 . S
C102 C103 1.398 . S
C102 H125 0.929 . S
C103 C102 1.398 . S
C103 C104 1.352 . S
C104 C103 1.352 . S
C104 C105 1.384 . S
C104 H126 0.930 . S
C105 C100 1.407 . S
C105 C104 1.384 . S
C105 H127 0.929 . S
C106 O116 1.241 . S
C106 O117 1.273 . S
C107 O118 1.251 1_455 S
C107 O119 1.268 . S
O108 Nd88 2.500 1_565 S
O108 C90 1.258 . S
O109 Nd88 2.492 1_565 S
O109 C90 1.239 . S
O110 Nd88 2.487 . S
O110 C97 1.241 . S
O111 Nd88 2.682 . S
O111 Nd89 2.414 1_455 S
O111 C97 1.273 . S
O112 Nd88 2.410 1_565 S
O112 C98 1.251 1_455 S
O113 Nd89 2.424 . S
O113 C98 1.268 1_545 S
O114 Nd89 2.500 . S
O114 C99 1.258 . S
O115 Nd89 2.492 . S
O115 C99 1.239 . S
O116 Nd89 2.487 1_565 S
O116 C106 1.241 . S
O117 Nd88 2.414 1_665 S
O117 Nd89 2.682 1_565 S
O117 C106 1.273 . S
O118 Nd89 2.410 . S
O118 C107 1.251 1_655 S
O119 Nd88 2.424 . S
O119 C107 1.268 . S
H120 C92 0.930 . S
H121 C93 0.929 . S
H122 C95 0.930 . S
H123 C96 0.929 . S
H124 C101 0.930 . S
H125 C102 0.929 . S
H126 C104 0.930 . S
H127 C105 0.929 . S
Nd128 C130 2.836 1_545 S
Nd128 O148 2.500 1_545 S
Nd128 O149 2.492 1_545 S
Nd128 O150 2.487 . S
Nd128 O151 2.682 . S
Nd128 O152 2.410 1_545 S
Nd128 O157 2.414 . S
Nd128 O159 2.424 . S
Nd129 C139 2.836 . S
Nd129 O151 2.414 . S
Nd129 O153 2.421 1_554 S
Nd129 O154 2.500 . S
Nd129 O155 2.492 1_554 S
Nd129 O156 2.487 . S
Nd129 O157 2.682 . S
Nd129 O158 2.410 . S
C130 Nd128 2.836 1_565 S
C130 C131 1.498 . S
C130 O148 1.258 . S
C130 O149 1.239 . S
C131 C130 1.498 . S
C131 C132 1.366 . S
C131 C136 1.407 . S
C132 C131 1.366 . S
C132 C133 1.392 . S
C132 H160 0.930 . S
C133 C132 1.392 . S
C133 C134 1.398 . S
C133 H161 0.929 . S
C134 C133 1.398 . S
C134 C135 1.352 . S
C135 C134 1.352 . S
C135 C136 1.384 . S
C135 H162 0.930 . S
C136 C131 1.407 . S
C136 C135 1.384 . S
C136 H163 0.929 . S
C137 O150 1.241 . S
C137 O151 1.273 . S
C138 O152 1.251 . S
C138 O153 1.260 1_564 S
C139 Nd129 2.836 . S
C139 C140 1.498 . S
C139 O154 1.258 . S
C139 O155 1.239 1_554 S
C140 C139 1.498 . S
C140 C141 1.366 . S
C140 C145 1.407 1_554 S
C141 C140 1.366 . S
C141 C142 1.392 . S
C141 H164 0.930 . S
C142 C141 1.392 . S
C142 C143 1.398 1_554 S
C142 H165 0.929 . S
C143 C142 1.398 1_556 S
C143 C144 1.352 . S
C144 C143 1.352 . S
C144 C145 1.384 . S
C144 H166 0.930 . S
C145 C140 1.407 1_556 S
C145 C144 1.384 . S
C145 H167 0.929 . S
C146 O156 1.241 . S
C146 O157 1.273 . S
C147 O158 1.251 . S
C147 O159 1.268 . S
O148 Nd128 2.500 1_565 S
O148 C130 1.258 . S
O149 Nd128 2.492 1_565 S
O149 C130 1.239 . S
O150 Nd128 2.487 . S
O150 C137 1.241 . S
O151 Nd128 2.682 . S
O151 Nd129 2.414 . S
O151 C137 1.273 . S
O152 Nd128 2.410 1_565 S
O152 C138 1.251 . S
O153 Nd129 2.421 1_556 S
O153 C138 1.260 1_546 S
O154 Nd129 2.500 . S
O154 C139 1.258 . S
O155 Nd129 2.492 1_556 S
O155 C139 1.239 1_556 S
O156 Nd129 2.487 . S
O156 C146 1.241 . S
O157 Nd128 2.414 . S
O157 Nd129 2.682 . S
O157 C146 1.273 . S
O158 Nd129 2.410 . S
O158 C147 1.251 . S
O159 Nd128 2.424 . S
O159 C147 1.268 . S
H160 C132 0.930 . S
H161 C133 0.929 . S
H162 C135 0.930 . S
H163 C136 0.929 . S
H164 C141 0.930 . S
H165 C142 0.929 . S
H166 C144 0.930 . S
H167 C145 0.929 . S
Nd168 C170 2.836 . S
Nd168 O188 2.500 . S
Nd168 O189 2.492 . S
Nd168 O190 2.487 . S
Nd168 O191 2.682 . S
Nd168 O192 2.410 . S
Nd168 O197 2.414 . S
Nd168 O199 2.424 . S
Nd169 C179 2.836 . S
Nd169 O191 2.414 . S
Nd169 O193 2.424 . S
Nd169 O194 2.500 . S
Nd169 O195 2.492 . S
Nd169 O196 2.487 . S
Nd169 O197 2.682 . S
Nd169 O198 2.410 . S
C170 Nd168 2.836 . S
C170 C171 1.498 . S
C170 O188 1.258 . S
C170 O189 1.239 . S
C171 C170 1.498 . S
C171 C172 1.366 . S
C171 C176 1.407 . S
C172 C171 1.366 . S
C172 C173 1.392 . S
C172 H200 0.930 . S
C173 C172 1.392 . S
C173 C174 1.398 . S
C173 H201 0.929 . S
C174 C173 1.398 . S
C174 C175 1.352 . S
C175 C174 1.352 . S
C175 C176 1.384 . S
C175 H202 0.930 . S
C176 C171 1.407 . S
C176 C175 1.384 . S
C176 H203 0.929 . S
C177 O190 1.241 . S
C177 O191 1.273 . S
C178 O192 1.251 . S
C178 O193 1.268 . S
C179 Nd169 2.836 . S
C179 C180 1.498 . S
C179 O194 1.258 . S
C179 O195 1.239 . S
C180 C179 1.498 . S
C180 C181 1.366 . S
C180 C185 1.407 . S
C181 C180 1.366 . S
C181 C182 1.392 . S
C181 H204 0.930 . S
C182 C181 1.392 . S
C182 C183 1.398 . S
C182 H205 0.929 . S
C183 C182 1.398 . S
C183 C184 1.352 . S
C184 C183 1.352 . S
C184 C185 1.384 . S
C184 H206 0.930 . S
C185 C180 1.407 . S
C185 C184 1.384 . S
C185 H207 0.929 . S
C186 O196 1.241 . S
C186 O197 1.273 . S
C187 O198 1.251 . S
C187 O199 1.268 . S
O188 Nd168 2.500 . S
O188 C170 1.258 . S
O189 Nd168 2.492 . S
O189 C170 1.239 . S
O190 Nd168 2.487 . S
O190 C177 1.241 . S
O191 Nd168 2.682 . S
O191 Nd169 2.414 . S
O191 C177 1.273 . S
O192 Nd168 2.410 . S
O192 C178 1.251 . S
O193 Nd169 2.424 . S
O193 C178 1.268 . S
O194 Nd169 2.500 . S
O194 C179 1.258 . S
O195 Nd169 2.492 . S
O195 C179 1.239 . S
O196 Nd169 2.487 . S
O196 C186 1.241 . S
O197 Nd168 2.414 . S
O197 Nd169 2.682 . S
O197 C186 1.273 . S
O198 Nd169 2.410 . S
O198 C187 1.251 . S
O199 Nd168 2.424 . S
O199 C187 1.268 . S
H200 C172 0.930 . S
H201 C173 0.929 . S
H202 C175 0.930 . S
H203 C176 0.929 . S
H204 C181 0.930 . S
H205 C182 0.929 . S
H206 C184 0.930 . S
H207 C185 0.929 . S
Nd208 C210 2.836 1_455 S
Nd208 O228 2.500 1_455 S
Nd208 O229 2.492 . S
Nd208 O230 2.487 . S
Nd208 O231 2.682 . S
Nd208 O232 2.410 . S
Nd208 O237 2.414 1_455 S
Nd208 O239 2.424 . S
Nd209 C219 2.836 . S
Nd209 O231 2.414 1_556 S
Nd209 O233 2.424 . S
Nd209 O234 2.500 . S
Nd209 O235 2.492 . S
Nd209 O236 2.487 1_455 S
Nd209 O237 2.682 1_456 S
Nd209 O238 2.410 . S
C210 Nd208 2.836 1_655 S
C210 C211 1.498 . S
C210 O228 1.258 . S
C210 O229 1.239 1_655 S
C211 C210 1.498 . S
C211 C212 1.366 . S
C211 C216 1.407 . S
C212 C211 1.366 . S
C212 C213 1.392 . S
C212 H240 0.930 . S
C213 C212 1.392 . S
C213 C214 1.398 . S
C213 H241 0.929 . S
C214 C213 1.398 . S
C214 C215 1.352 . S
C215 C214 1.352 . S
C215 C216 1.384 . S
C215 H242 0.930 . S
C216 C211 1.407 . S
C216 C215 1.384 . S
C216 H243 0.929 1_655 S
C217 O230 1.241 . S
C217 O231 1.273 . S
C218 O232 1.251 . S
C218 O233 1.268 1_554 S
C219 Nd209 2.836 . S
C219 C220 1.498 . S
C219 O234 1.258 . S
C219 O235 1.239 . S
C220 C219 1.498 . S
C220 C221 1.366 . S
C220 C225 1.407 . S
C221 C220 1.366 . S
C221 C222 1.392 . S
C221 H244 0.930 . S
C222 C221 1.392 . S
C222 C223 1.398 . S
C222 H245 0.929 . S
C223 C222 1.398 . S
C223 C224 1.352 . S
C224 C223 1.352 . S
C224 C225 1.384 . S
C224 H246 0.930 . S
C225 C220 1.407 . S
C225 C224 1.384 . S
C225 H247 0.929 . S
C226 O236 1.241 . S
C226 O237 1.273 1_556 S
C227 O238 1.251 1_554 S
C227 O239 1.268 . S
O228 Nd208 2.500 1_655 S
O228 C210 1.258 . S
O229 Nd208 2.492 . S
O229 C210 1.239 1_455 S
O230 Nd208 2.487 . S
O230 C217 1.241 . S
O231 Nd208 2.682 . S
O231 Nd209 2.414 1_554 S
O231 C217 1.273 . S
O232 Nd208 2.410 . S
O232 C218 1.251 . S
O233 Nd209 2.424 . S
O233 C218 1.268 1_556 S
O234 Nd209 2.500 . S
O234 C219 1.258 . S
O235 Nd209 2.492 . S
O235 C219 1.239 . S
O236 Nd209 2.487 1_655 S
O236 C226 1.241 . S
O237 Nd208 2.414 1_655 S
O237 Nd209 2.682 1_654 S
O237 C226 1.273 1_554 S
O238 Nd209 2.410 . S
O238 C227 1.251 1_556 S
O239 Nd208 2.424 . S
O239 C227 1.268 . S
H240 C212 0.930 . S
H241 C213 0.929 . S
H242 C215 0.930 . S
H243 C216 0.929 1_455 S
H244 C221 0.930 . S
H245 C222 0.929 . S
H246 C224 0.930 . S
H247 C225 0.929 . S
C248 C249 1.349 . S
C248 C250 1.327 . S
C248 H273 0.950 . S
C249 C248 1.349 . S
C249 C265 1.349 . S
C250 C248 1.327 . S
C250 C269 1.429 . S
C250 H274 0.950 . S
C251 C268 1.574 . S
C251 C270 1.368 . S
C251 H275 0.949 . S
H252 C256 0.949 . S
C253 C254 1.349 . S
C253 C255 1.327 . S
C253 H276 0.950 . S
C254 C253 1.349 . S
C254 C266 1.349 . S
C255 C253 1.327 . S
C255 C271 1.429 . S
C255 H277 0.950 . S
C256 H252 0.949 . S
C256 C264 1.574 . S
C256 C272 1.368 . S
H257 C265 0.950 . S
H258 C263 0.950 . S
H259 C264 0.949 . S
H260 C266 0.950 . S
H261 C267 0.950 . S
H262 C268 0.949 . S
C263 H258 0.950 . S
C263 C265 1.327 . S
C263 C269 1.429 . S
C264 C256 1.574 . S
C264 H259 0.949 . S
C264 C270 1.368 . S
C265 C249 1.349 . S
C265 H257 0.950 . S
C265 C263 1.327 . S
C266 C254 1.349 . S
C266 H260 0.950 . S
C266 C267 1.327 . S
C267 H261 0.950 . S
C267 C266 1.327 . S
C267 C271 1.429 . S
C268 C251 1.574 . S
C268 H262 0.949 . S
C268 C272 1.368 . S
C269 C250 1.429 . S
C269 C263 1.429 . S
C269 C270 1.523 . S
C270 C251 1.368 . S
C270 C264 1.368 . S
C270 C269 1.523 . S
C271 C255 1.429 . S
C271 C267 1.429 . S
C271 C272 1.523 . S
C272 C256 1.368 . S
C272 C268 1.368 . S
C272 C271 1.523 . S
H273 C248 0.950 . S
H274 C250 0.950 . S
H275 C251 0.949 . S
H276 C253 0.950 . S
H277 C255 0.950 . S
C278 C279 1.349 . S
C278 C280 1.327 . S
C278 H303 0.950 . S
C279 C278 1.349 . S
C279 C295 1.349 . S
C280 C278 1.327 . S
C280 C299 1.429 . S
C280 H304 0.950 . S
C281 C298 1.574 . S
C281 C300 1.368 . S
C281 H305 0.949 . S
H282 C286 0.949 . S
C283 C284 1.349 . S
C283 C285 1.327 . S
C283 H306 0.950 . S
C284 C283 1.349 . S
C284 C296 1.349 . S
C285 C283 1.327 . S
C285 C301 1.429 . S
C285 H307 0.950 . S
C286 H282 0.949 . S
C286 C294 1.574 . S
C286 C302 1.368 . S
H287 C295 0.950 . S
H288 C293 0.950 . S
H289 C294 0.949 . S
H290 C296 0.950 1_554 S
H291 C297 0.950 . S
H292 C298 0.949 . S
C293 H288 0.950 . S
C293 C295 1.327 . S
C293 C299 1.429 . S
C294 C286 1.574 . S
C294 H289 0.949 . S
C294 C300 1.368 . S
C295 C279 1.349 . S
C295 H287 0.950 . S
C295 C293 1.327 . S
C296 C284 1.349 . S
C296 H290 0.950 1_556 S
C296 C297 1.327 . S
C297 H291 0.950 . S
C297 C296 1.327 . S
C297 C301 1.429 . S
C298 C281 1.574 . S
C298 H292 0.949 . S
C298 C302 1.368 . S
C299 C280 1.429 . S
C299 C293 1.429 . S
C299 C300 1.523 . S
C300 C281 1.368 . S
C300 C294 1.368 . S
C300 C299 1.523 . S
C301 C285 1.429 . S
C301 C297 1.429 . S
C301 C302 1.523 . S
C302 C286 1.368 . S
C302 C298 1.368 . S
C302 C301 1.523 . S
H303 C278 0.950 . S
H304 C280 0.950 . S
H305 C281 0.949 . S
H306 C283 0.950 . S
H307 C285 0.950 . S
C308 C309 1.349 . S
C308 C310 1.327 . S
C308 H333 0.950 . S
C309 C308 1.349 . S
C309 C325 1.349 . S
C310 C308 1.327 . S
C310 C329 1.429 . S
C310 H334 0.950 . S
C311 C328 1.574 . S
C311 C330 1.368 . S
C311 H335 0.949 . S
H312 C316 0.949 . S
C313 C314 1.349 . S
C313 C315 1.327 . S
C313 H336 0.950 . S
C314 C313 1.349 . S
C314 C326 1.349 . S
C315 C313 1.327 . S
C315 C331 1.429 . S
C315 H337 0.950 . S
C316 H312 0.949 . S
C316 C324 1.574 . S
C316 C332 1.368 . S
H317 C325 0.950 . S
H318 C323 0.950 . S
H319 C324 0.949 . S
H320 C326 0.950 . S
H321 C327 0.950 . S
H322 C328 0.949 . S
C323 H318 0.950 . S
C323 C325 1.327 . S
C323 C329 1.429 . S
C324 C316 1.574 . S
C324 H319 0.949 . S
C324 C330 1.368 . S
C325 C309 1.349 . S
C325 H317 0.950 . S
C325 C323 1.327 . S
C326 C314 1.349 . S
C326 H320 0.950 . S
C326 C327 1.327 . S
C327 H321 0.950 . S
C327 C326 1.327 . S
C327 C331 1.429 . S
C328 C311 1.574 . S
C328 H322 0.949 . S
C328 C332 1.368 . S
C329 C310 1.429 . S
C329 C323 1.429 . S
C329 C330 1.523 . S
C330 C311 1.368 . S
C330 C324 1.368 . S
C330 C329 1.523 . S
C331 C315 1.429 . S
C331 C327 1.429 . S
C331 C332 1.523 . S
C332 C316 1.368 . S
C332 C328 1.368 . S
C332 C331 1.523 . S
H333 C308 0.950 . S
H334 C310 0.950 . S
H335 C311 0.949 . S
H336 C313 0.950 . S
H337 C315 0.950 . S
C338 C339 1.349 . S
C338 C340 1.327 . S
C338 H363 0.950 . S
C339 C338 1.349 . S
C339 C355 1.349 . S
C340 C338 1.327 . S
C340 C359 1.429 . S
C340 H364 0.950 . S
C341 C358 1.574 . S
C341 C360 1.368 . S
C341 H365 0.949 . S
H342 C346 0.949 . S
C343 C344 1.349 . S
C343 C345 1.327 . S
C343 H366 0.950 . S
C344 C343 1.349 . S
C344 C356 1.349 . S
C345 C343 1.327 . S
C345 C361 1.429 . S
C345 H367 0.950 . S
C346 H342 0.949 . S
C346 C354 1.574 . S
C346 C362 1.368 . S
H347 C355 0.950 . S
H348 C353 0.950 . S
H349 C354 0.949 . S
H350 C356 0.950 . S
H351 C357 0.950 . S
H352 C358 0.949 . S
C353 H348 0.950 . S
C353 C355 1.327 . S
C353 C359 1.429 . S
C354 C346 1.574 . S
C354 H349 0.949 . S
C354 C360 1.368 . S
C355 C339 1.349 . S
C355 H347 0.950 . S
C355 C353 1.327 . S
C356 C344 1.349 . S
C356 H350 0.950 . S
C356 C357 1.327 . S
C357 H351 0.950 . S
C357 C356 1.327 . S
C357 C361 1.429 . S
C358 C341 1.574 . S
C358 H352 0.949 . S
C358 C362 1.368 . S
C359 C340 1.429 . S
C359 C353 1.429 . S
C359 C360 1.523 . S
C360 C341 1.368 . S
C360 C354 1.368 . S
C360 C359 1.523 . S
C361 C345 1.429 . S
C361 C357 1.429 . S
C361 C362 1.523 . S
C362 C346 1.368 . S
C362 C358 1.368 . S
C362 C361 1.523 . S
H363 C338 0.950 . S
H364 C340 0.950 . S
H365 C341 0.949 . S
H366 C343 0.950 . S
H367 C345 0.950 . S
C368 C369 1.349 . S
C368 C370 1.327 . S
C368 H393 0.950 . S
C369 C368 1.349 . S
C369 C385 1.349 . S
C370 C368 1.327 . S
C370 C389 1.429 . S
C370 H394 0.950 . S
C371 C388 1.574 . S
C371 C390 1.368 . S
C371 H395 0.949 . S
H372 C376 0.949 . S
C373 C374 1.349 . S
C373 C375 1.327 . S
C373 H396 0.950 . S
C374 C373 1.349 . S
C374 C386 1.349 . S
C375 C373 1.327 . S
C375 C391 1.429 . S
C375 H397 0.950 . S
C376 H372 0.949 . S
C376 C384 1.574 . S
C376 C392 1.368 . S
H377 C385 0.950 . S
H378 C383 0.950 . S
H379 C384 0.949 . S
H380 C386 0.950 . S
H381 C387 0.950 . S
H382 C388 0.949 . S
C383 H378 0.950 . S
C383 C385 1.327 . S
C383 C389 1.429 . S
C384 C376 1.574 . S
C384 H379 0.949 . S
C384 C390 1.368 . S
C385 C369 1.349 . S
C385 H377 0.950 . S
C385 C383 1.327 . S
C386 C374 1.349 . S
C386 H380 0.950 . S
C386 C387 1.327 . S
C387 H381 0.950 . S
C387 C386 1.327 . S
C387 C391 1.429 . S
C388 C371 1.574 . S
C388 H382 0.949 . S
C388 C392 1.368 . S
C389 C370 1.429 . S
C389 C383 1.429 . S
C389 C390 1.523 . S
C390 C371 1.368 . S
C390 C384 1.368 . S
C390 C389 1.523 . S
C391 C375 1.429 . S
C391 C387 1.429 . S
C391 C392 1.523 . S
C392 C376 1.368 . S
C392 C388 1.368 . S
C392 C391 1.523 . S
H393 C368 0.950 . S
H394 C370 0.950 . S
H395 C371 0.949 . S
H396 C373 0.950 . S
H397 C375 0.950 . S
C398 C399 1.349 . S
C398 C400 1.327 . S
C398 H423 0.950 . S
C399 C398 1.349 . S
C399 C415 1.349 . S
C400 C398 1.327 . S
C400 C419 1.429 . S
C400 H424 0.950 . S
C401 C418 1.574 . S
C401 C420 1.368 . S
C401 H425 0.949 . S
H402 C406 0.949 . S
C403 C404 1.349 . S
C403 C405 1.327 . S
C403 H426 0.950 . S
C404 C403 1.349 . S
C404 C416 1.349 . S
C405 C403 1.327 . S
C405 C421 1.429 . S
C405 H427 0.950 . S
C406 H402 0.949 . S
C406 C414 1.574 . S
C406 C422 1.368 . S
H407 C415 0.950 . S
H408 C413 0.950 . S
H409 C414 0.949 . S
H410 C416 0.950 . S
H411 C417 0.950 . S
H412 C418 0.949 . S
C413 H408 0.950 . S
C413 C415 1.327 . S
C413 C419 1.429 . S
C414 C406 1.574 . S
C414 H409 0.949 . S
C414 C420 1.368 . S
C415 C399 1.349 . S
C415 H407 0.950 . S
C415 C413 1.327 . S
C416 C404 1.349 . S
C416 H410 0.950 . S
C416 C417 1.327 . S
C417 H411 0.950 . S
C417 C416 1.327 . S
C417 C421 1.429 . S
C418 C401 1.574 . S
C418 H412 0.949 . S
C418 C422 1.368 . S
C419 C400 1.429 . S
C419 C413 1.429 . S
C419 C420 1.523 . S
C420 C401 1.368 . S
C420 C414 1.368 . S
C420 C419 1.523 . S
C421 C405 1.429 . S
C421 C417 1.429 . S
C421 C422 1.523 . S
C422 C406 1.368 . S
C422 C418 1.368 . S
C422 C421 1.523 . S
H423 C398 0.950 . S
H424 C400 0.950 . S
H425 C401 0.949 . S
H426 C403 0.950 . S
H427 C405 0.950 . S
C428 C429 1.349 . S
C428 C430 1.327 . S
C428 H453 0.950 . S
C429 C428 1.349 . S
C429 C445 1.349 . S
C430 C428 1.327 . S
C430 C449 1.429 . S
C430 H454 0.950 . S
C431 C448 1.574 . S
C431 C450 1.368 . S
C431 H455 0.949 . S
H432 C436 0.949 . S
C433 C434 1.349 . S
C433 C435 1.327 . S
C433 H456 0.950 . S
C434 C433 1.349 . S
C434 C446 1.349 . S
C435 C433 1.327 . S
C435 C451 1.429 . S
C435 H457 0.950 . S
C436 H432 0.949 . S
C436 C444 1.574 . S
C436 C452 1.368 . S
H437 C445 0.950 . S
H438 C443 0.950 . S
H439 C444 0.949 . S
H440 C446 0.950 1_554 S
H441 C447 0.950 1_554 S
H442 C448 0.949 . S
C443 H438 0.950 . S
C443 C445 1.327 . S
C443 C449 1.429 . S
C444 C436 1.574 . S
C444 H439 0.949 . S
C444 C450 1.368 . S
C445 C429 1.349 . S
C445 H437 0.950 . S
C445 C443 1.327 . S
C446 C434 1.349 . S
C446 H440 0.950 1_556 S
C446 C447 1.327 . S
C447 H441 0.950 1_556 S
C447 C446 1.327 . S
C447 C451 1.429 . S
C448 C431 1.574 . S
C448 H442 0.949 . S
C448 C452 1.368 . S
C449 C430 1.429 . S
C449 C443 1.429 . S
C449 C450 1.523 . S
C450 C431 1.368 . S
C450 C444 1.368 . S
C450 C449 1.523 . S
C451 C435 1.429 . S
C451 C447 1.429 . S
C451 C452 1.523 . S
C452 C436 1.368 . S
C452 C448 1.368 . S
C452 C451 1.523 . S
H453 C428 0.950 . S
H454 C430 0.950 . S
H455 C431 0.949 . S
H456 C433 0.950 . S
H457 C435 0.950 . S
C458 C459 1.349 . S
C458 C460 1.327 . S
C458 H483 0.950 . S
C459 C458 1.349 . S
C459 C475 1.349 . S
C460 C458 1.327 . S
C460 C479 1.429 . S
C460 H484 0.950 . S
C461 C478 1.574 . S
C461 C480 1.368 . S
C461 H485 0.949 . S
H462 C466 0.949 . S
C463 C464 1.349 . S
C463 C465 1.327 . S
C463 H486 0.950 . S
C464 C463 1.349 . S
C464 C476 1.349 . S
C465 C463 1.327 . S
C465 C481 1.429 . S
C465 H487 0.950 . S
C466 H462 0.949 . S
C466 C474 1.574 . S
C466 C482 1.368 . S
H467 C475 0.950 . S
H468 C473 0.950 . S
H469 C474 0.949 . S
H470 C476 0.950 . S
H471 C477 0.950 . S
H472 C478 0.949 . S
C473 H468 0.950 . S
C473 C475 1.327 . S
C473 C479 1.429 . S
C474 C466 1.574 . S
C474 H469 0.949 . S
C474 C480 1.368 . S
C475 C459 1.349 . S
C475 H467 0.950 . S
C475 C473 1.327 . S
C476 C464 1.349 . S
C476 H470 0.950 . S
C476 C477 1.327 . S
C477 H471 0.950 . S
C477 C476 1.327 . S
C477 C481 1.429 . S
C478 C461 1.574 . S
C478 H472 0.949 . S
C478 C482 1.368 . S
C479 C460 1.429 . S
C479 C473 1.429 . S
C479 C480 1.523 . S
C480 C461 1.368 . S
C480 C474 1.368 . S
C480 C479 1.523 . S
C481 C465 1.429 . S
C481 C477 1.429 . S
C481 C482 1.523 . S
C482 C466 1.368 . S
C482 C478 1.368 . S
C482 C481 1.523 . S
H483 C458 0.950 . S
H484 C460 0.950 . S
H485 C461 0.949 . S
H486 C463 0.950 . S
H487 C465 0.950 . S
C488 C489 1.349 . S
C488 C490 1.327 . S
C488 H513 0.950 . S
C489 C488 1.349 . S
C489 C505 1.349 . S
C490 C488 1.327 . S
C490 C509 1.429 . S
C490 H514 0.950 . S
C491 C508 1.574 . S
C491 C510 1.368 . S
C491 H515 0.949 . S
H492 C496 0.949 . S
C493 C494 1.349 . S
C493 C495 1.327 . S
C493 H516 0.950 . S
C494 C493 1.349 . S
C494 C506 1.349 . S
C495 C493 1.327 . S
C495 C511 1.429 . S
C495 H517 0.950 . S
C496 H492 0.949 . S
C496 C504 1.574 . S
C496 C512 1.368 . S
H497 C505 0.950 . S
H498 C503 0.950 . S
H499 C504 0.949 . S
H500 C506 0.950 . S
H501 C507 0.950 . S
H502 C508 0.949 . S
C503 H498 0.950 . S
C503 C505 1.327 . S
C503 C509 1.429 . S
C504 C496 1.574 . S
C504 H499 0.949 . S
C504 C510 1.368 . S
C505 C489 1.349 . S
C505 H497 0.950 . S
C505 C503 1.327 . S
C506 C494 1.349 . S
C506 H500 0.950 . S
C506 C507 1.327 . S
C507 H501 0.950 . S
C507 C506 1.327 . S
C507 C511 1.429 . S
C508 C491 1.574 . S
C508 H502 0.949 . S
C508 C512 1.368 . S
C509 C490 1.429 . S
C509 C503 1.429 . S
C509 C510 1.523 . S
C510 C491 1.368 . S
C510 C504 1.368 . S
C510 C509 1.523 . S
C511 C495 1.429 . S
C511 C507 1.429 . S
C511 C512 1.523 . S
C512 C496 1.368 . S
C512 C508 1.368 . S
C512 C511 1.523 . S
H513 C488 0.950 . S
H514 C490 0.950 . S
H515 C491 0.949 . S
H516 C493 0.950 . S
H517 C495 0.950 . S
C518 C519 1.349 . S
C518 C520 1.327 . S
C518 H543 0.950 . S
C519 C518 1.349 . S
C519 C535 1.349 . S
C520 C518 1.327 . S
C520 C539 1.429 . S
C520 H544 0.950 . S
C521 C538 1.574 . S
C521 C540 1.368 . S
C521 H545 0.949 . S
H522 C526 0.949 . S
C523 C524 1.349 . S
C523 C525 1.327 . S
C523 H546 0.950 . S
C524 C523 1.349 . S
C524 C536 1.349 . S
C525 C523 1.327 . S
C525 C541 1.429 . S
C525 H547 0.950 . S
C526 H522 0.949 . S
C526 C534 1.574 . S
C526 C542 1.368 . S
H527 C535 0.950 . S
H528 C533 0.950 . S
H529 C534 0.949 . S
H530 C536 0.950 . S
H531 C537 0.950 . S
H532 C538 0.949 . S
C533 H528 0.950 . S
C533 C535 1.327 . S
C533 C539 1.429 . S
C534 C526 1.574 . S
C534 H529 0.949 . S
C534 C540 1.368 . S
C535 C519 1.349 . S
C535 H527 0.950 . S
C535 C533 1.327 . S
C536 C524 1.349 . S
C536 H530 0.950 . S
C536 C537 1.327 . S
C537 H531 0.950 . S
C537 C536 1.327 . S
C537 C541 1.429 . S
C538 C521 1.574 . S
C538 H532 0.949 . S
C538 C542 1.368 . S
C539 C520 1.429 . S
C539 C533 1.429 . S
C539 C540 1.523 . S
C540 C521 1.368 . S
C540 C534 1.368 . S
C540 C539 1.523 . S
C541 C525 1.429 . S
C541 C537 1.429 . S
C541 C542 1.523 . S
C542 C526 1.368 . S
C542 C538 1.368 . S
C542 C541 1.523 . S
H543 C518 0.950 . S
H544 C520 0.950 . S
H545 C521 0.949 . S
H546 C523 0.950 . S
H547 C525 0.950 . S
C548 C549 1.349 . S
C548 C550 1.327 . S
C548 H573 0.950 . S
C549 C548 1.349 . S
C549 C565 1.349 . S
C550 C548 1.327 . S
C550 C569 1.429 . S
C550 H574 0.950 . S
C551 C568 1.574 . S
C551 C570 1.368 . S
C551 H575 0.949 . S
H552 C556 0.949 . S
C553 C554 1.349 . S
C553 C555 1.327 . S
C553 H576 0.950 . S
C554 C553 1.349 . S
C554 C566 1.349 . S
C555 C553 1.327 . S
C555 C571 1.429 . S
C555 H577 0.950 . S
C556 H552 0.949 . S
C556 C564 1.574 . S
C556 C572 1.368 . S
H557 C565 0.950 . S
H558 C563 0.950 . S
H559 C564 0.949 . S
H560 C566 0.950 . S
H561 C567 0.950 . S
H562 C568 0.949 . S
C563 H558 0.950 . S
C563 C565 1.327 . S
C563 C569 1.429 . S
C564 C556 1.574 . S
C564 H559 0.949 . S
C564 C570 1.368 . S
C565 C549 1.349 . S
C565 H557 0.950 . S
C565 C563 1.327 . S
C566 C554 1.349 . S
C566 H560 0.950 . S
C566 C567 1.327 . S
C567 H561 0.950 . S
C567 C566 1.327 . S
C567 C571 1.429 . S
C568 C551 1.574 . S
C568 H562 0.949 . S
C568 C572 1.368 . S
C569 C550 1.429 . S
C569 C563 1.429 . S
C569 C570 1.523 . S
C570 C551 1.368 . S
C570 C564 1.368 . S
C570 C569 1.523 . S
C571 C555 1.429 . S
C571 C567 1.429 . S
C571 C572 1.523 . S
C572 C556 1.368 . S
C572 C568 1.368 . S
C572 C571 1.523 . S
H573 C548 0.950 . S
H574 C550 0.950 . S
H575 C551 0.949 . S
H576 C553 0.950 . S
H577 C555 0.950 . S
C578 C579 1.349 . S
C578 C580 1.327 . S
C578 H603 0.950 . S
C579 C578 1.349 . S
C579 C595 1.349 . S
C580 C578 1.327 . S
C580 C599 1.429 . S
C580 H604 0.950 . S
C581 C598 1.574 . S
C581 C600 1.368 . S
C581 H605 0.949 . S
H582 C586 0.949 . S
C583 C584 1.349 . S
C583 C585 1.327 . S
C583 H606 0.950 . S
C584 C583 1.349 . S
C584 C596 1.349 . S
C585 C583 1.327 . S
C585 C601 1.429 . S
C585 H607 0.950 . S
C586 H582 0.949 . S
C586 C594 1.574 . S
C586 C602 1.368 . S
H587 C595 0.950 . S
H588 C593 0.950 . S
H589 C594 0.949 . S
H590 C596 0.950 . S
H591 C597 0.950 . S
H592 C598 0.949 . S
C593 H588 0.950 . S
C593 C595 1.327 . S
C593 C599 1.429 . S
C594 C586 1.574 . S
C594 H589 0.949 . S
C594 C600 1.368 . S
C595 C579 1.349 . S
C595 H587 0.950 . S
C595 C593 1.327 . S
C596 C584 1.349 . S
C596 H590 0.950 . S
C596 C597 1.327 . S
C597 H591 0.950 . S
C597 C596 1.327 . S
C597 C601 1.429 . S
C598 C581 1.574 . S
C598 H592 0.949 . S
C598 C602 1.368 . S
C599 C580 1.429 . S
C599 C593 1.429 . S
C599 C600 1.523 . S
C600 C581 1.368 . S
C600 C594 1.368 . S
C600 C599 1.523 . S
C601 C585 1.429 . S
C601 C597 1.429 . S
C601 C602 1.523 . S
C602 C586 1.368 . S
C602 C598 1.368 . S
C602 C601 1.523 . S
H603 C578 0.950 . S
H604 C580 0.950 . S
H605 C581 0.949 . S
H606 C583 0.950 . S
H607 C585 0.950 . S
C608 C609 1.349 . S
C608 C610 1.327 . S
C608 H633 0.950 . S
C609 C608 1.349 . S
C609 C625 1.349 . S
C610 C608 1.327 . S
C610 C629 1.429 . S
C610 H634 0.950 . S
C611 C628 1.574 . S
C611 C630 1.368 . S
C611 H635 0.949 . S
H612 C616 0.949 . S
C613 C614 1.349 . S
C613 C615 1.327 . S
C613 H636 0.944 1_565 S
C614 C613 1.349 . S
C614 C626 1.349 . S
C615 C613 1.327 . S
C615 C631 1.429 . S
C615 H637 0.950 . S
C616 H612 0.949 . S
C616 C624 1.574 . S
C616 C632 1.368 . S
H617 C625 0.950 . S
H618 C623 0.950 . S
H619 C624 0.949 . S
H620 C626 0.950 . S
H621 C627 0.950 . S
H622 C628 0.949 . S
C623 H618 0.950 . S
C623 C625 1.327 . S
C623 C629 1.429 . S
C624 C616 1.574 . S
C624 H619 0.949 . S
C624 C630 1.368 . S
C625 C609 1.349 . S
C625 H617 0.950 . S
C625 C623 1.327 . S
C626 C614 1.349 . S
C626 H620 0.950 . S
C626 C627 1.327 . S
C627 H621 0.950 . S
C627 C626 1.327 . S
C627 C631 1.429 . S
C628 C611 1.574 . S
C628 H622 0.949 . S
C628 C632 1.368 . S
C629 C610 1.429 . S
C629 C623 1.429 . S
C629 C630 1.523 . S
C630 C611 1.368 . S
C630 C624 1.368 . S
C630 C629 1.523 . S
C631 C615 1.429 . S
C631 C627 1.429 . S
C631 C632 1.523 . S
C632 C616 1.368 . S
C632 C628 1.368 . S
C632 C631 1.523 . S
H633 C608 0.950 . S
H634 C610 0.950 . S
H635 C611 0.949 . S
H636 C613 0.944 1_545 S
H637 C615 0.950 . S
C638 C639 1.349 . S
C638 C640 1.327 . S
C638 H663 0.950 . S
C639 C638 1.349 . S
C639 C655 1.349 . S
C640 C638 1.327 . S
C640 C659 1.429 . S
C640 H664 0.950 . S
C641 C658 1.574 . S
C641 C660 1.368 . S
C641 H665 0.949 . S
H642 C646 0.949 . S
C643 C644 1.349 . S
C643 C645 1.327 . S
C643 H666 0.950 . S
C644 C643 1.349 . S
C644 C656 1.349 . S
C645 C643 1.327 . S
C645 C661 1.429 . S
C645 H667 0.950 . S
C646 H642 0.949 . S
C646 C654 1.574 . S
C646 C662 1.368 . S
H647 C655 0.950 . S
H648 C653 0.950 . S
H649 C654 0.949 . S
H650 C656 0.950 . S
H651 C657 0.950 . S
H652 C658 0.949 . S
C653 H648 0.950 . S
C653 C655 1.327 . S
C653 C659 1.429 . S
C654 C646 1.574 . S
C654 H649 0.949 . S
C654 C660 1.368 . S
C655 C639 1.349 . S
C655 H647 0.950 . S
C655 C653 1.327 . S
C656 C644 1.349 . S
C656 H650 0.950 . S
C656 C657 1.327 . S
C657 H651 0.950 . S
C657 C656 1.327 . S
C657 C661 1.429 . S
C658 C641 1.574 . S
C658 H652 0.949 . S
C658 C662 1.368 . S
C659 C640 1.429 . S
C659 C653 1.429 . S
C659 C660 1.523 . S
C660 C641 1.368 . S
C660 C654 1.368 . S
C660 C659 1.523 . S
C661 C645 1.429 . S
C661 C657 1.429 . S
C661 C662 1.523 . S
C662 C646 1.368 . S
C662 C658 1.368 . S
C662 C661 1.523 . S
H663 C638 0.950 . S
H664 C640 0.950 . S
H665 C641 0.949 . S
H666 C643 0.950 . S
H667 C645 0.950 . S
C668 C669 1.349 . S
C668 C670 1.327 . S
C668 H693 0.950 . S
C669 C668 1.349 . S
C669 C685 1.349 . S
C670 C668 1.327 . S
C670 C689 1.429 . S
C670 H694 0.950 . S
C671 C688 1.574 . S
C671 C690 1.368 . S
C671 H695 0.949 . S
H672 C676 0.949 . S
C673 C674 1.349 . S
C673 C675 1.327 . S
C673 H696 0.950 . S
C674 C673 1.349 . S
C674 C686 1.349 . S
C675 C673 1.327 . S
C675 C691 1.429 . S
C675 H697 0.950 . S
C676 H672 0.949 . S
C676 C684 1.574 . S
C676 C692 1.368 . S
H677 C685 0.950 . S
H678 C683 0.950 . S
H679 C684 0.949 . S
H680 C686 0.950 . S
H681 C687 0.950 . S
H682 C688 0.949 . S
C683 H678 0.950 . S
C683 C685 1.327 . S
C683 C689 1.429 . S
C684 C676 1.574 . S
C684 H679 0.949 . S
C684 C690 1.368 . S
C685 C669 1.349 . S
C685 H677 0.950 . S
C685 C683 1.327 . S
C686 C674 1.349 . S
C686 H680 0.950 . S
C686 C687 1.327 . S
C687 H681 0.950 . S
C687 C686 1.327 . S
C687 C691 1.429 . S
C688 C671 1.574 . S
C688 H682 0.949 . S
C688 C692 1.368 . S
C689 C670 1.429 . S
C689 C683 1.429 . S
C689 C690 1.523 . S
C690 C671 1.368 . S
C690 C684 1.368 . S
C690 C689 1.523 . S
C691 C675 1.429 . S
C691 C687 1.429 . S
C691 C692 1.523 . S
C692 C676 1.368 . S
C692 C688 1.368 . S
C692 C691 1.523 . S
H693 C668 0.950 . S
H694 C670 0.950 . S
H695 C671 0.949 . S
H696 C673 0.950 . S
H697 C675 0.950 . S
C698 C699 1.349 . S
C698 C700 1.327 . S
C698 H723 0.950 . S
C699 C698 1.349 . S
C699 C715 1.349 . S
C700 C698 1.327 . S
C700 C719 1.429 . S
C700 H724 0.950 . S
C701 C718 1.574 . S
C701 C720 1.368 . S
C701 H725 0.949 . S
H702 C706 0.949 . S
C703 C704 1.349 . S
C703 C705 1.327 . S
C703 H726 0.950 . S
C704 C703 1.349 . S
C704 C716 1.349 . S
C705 C703 1.327 . S
C705 C721 1.429 . S
C705 H727 0.950 . S
C706 H702 0.949 . S
C706 C714 1.574 . S
C706 C722 1.368 . S
H707 C715 0.950 . S
H708 C713 0.950 . S
H709 C714 0.949 . S
H710 C716 0.950 . S
H711 C717 0.950 . S
H712 C718 0.949 . S
C713 H708 0.950 . S
C713 C715 1.327 . S
C713 C719 1.429 . S
C714 C706 1.574 . S
C714 H709 0.949 . S
C714 C720 1.368 . S
C715 C699 1.349 . S
C715 H707 0.950 . S
C715 C713 1.327 . S
C716 C704 1.349 . S
C716 H710 0.950 . S
C716 C717 1.327 . S
C717 H711 0.950 . S
C717 C716 1.327 . S
C717 C721 1.429 . S
C718 C701 1.574 . S
C718 H712 0.949 . S
C718 C722 1.368 . S
C719 C700 1.429 . S
C719 C713 1.429 . S
C719 C720 1.523 . S
C720 C701 1.368 . S
C720 C714 1.368 . S
C720 C719 1.523 . S
C721 C705 1.429 . S
C721 C717 1.429 . S
C721 C722 1.523 . S
C722 C706 1.368 . S
C722 C718 1.368 . S
C722 C721 1.523 . S
H723 C698 0.950 . S
H724 C700 0.950 . S
H725 C701 0.949 . S
H726 C703 0.950 . S
H727 C705 0.950 . S
C728 C729 1.349 . S
C728 C730 1.327 . S
C728 H753 0.950 . S
C729 C728 1.349 . S
C729 C745 1.349 . S
C730 C728 1.327 . S
C730 C749 1.429 . S
C730 H754 0.950 . S
C731 C748 1.574 . S
C731 C750 1.368 . S
C731 H755 0.949 . S
H732 C736 0.949 . S
C733 C734 1.349 1_556 S
C733 C735 1.327 . S
C733 H756 0.950 . S
C734 C733 1.349 1_554 S
C734 C746 1.349 . S
C735 C733 1.327 . S
C735 C751 1.439 . S
C735 H757 0.950 . S
C736 H732 0.949 . S
C736 C744 1.574 1_554 S
C736 C752 1.368 1_554 S
H737 C745 0.950 . S
H738 C743 0.950 . S
H739 C744 0.949 1_554 S
H740 C746 0.950 . S
H741 C747 0.950 . S
H742 C748 0.949 . S
C743 H738 0.950 . S
C743 C745 1.327 . S
C743 C749 1.429 . S
C744 C736 1.574 1_556 S
C744 H739 0.949 1_556 S
C744 C750 1.368 . S
C745 C729 1.349 . S
C745 H737 0.950 . S
C745 C743 1.327 . S
C746 C734 1.349 . S
C746 H740 0.950 . S
C746 C747 1.327 . S
C747 H741 0.950 . S
C747 C746 1.327 . S
C747 C751 1.409 1_554 S
C748 C731 1.574 . S
C748 H742 0.949 . S
C748 C752 1.368 . S
C749 C730 1.429 . S
C749 C743 1.429 . S
C749 C750 1.523 . S
C750 C731 1.368 . S
C750 C744 1.368 . S
C750 C749 1.523 . S
C751 C735 1.439 . S
C751 C747 1.409 1_556 S
C751 C752 1.531 . S
C752 C736 1.368 1_556 S
C752 C748 1.368 . S
C752 C751 1.531 . S
H753 C728 0.950 . S
H754 C730 0.950 . S
H755 C731 0.949 . S
H756 C733 0.950 . S
H757 C735 0.950 . S
C758 C759 1.349 . S
C758 C760 1.327 . S
C758 H783 0.950 . S
C759 C758 1.349 . S
C759 C775 1.349 . S
C760 C758 1.327 . S
C760 C779 1.429 . S
C760 H784 0.950 . S
C761 C778 1.574 . S
C761 C780 1.368 . S
C761 H785 0.949 . S
H762 C766 0.949 . S
C763 C764 1.349 . S
C763 C765 1.327 . S
C763 H786 0.950 . S
C764 C763 1.349 . S
C764 C776 1.349 . S
C765 C763 1.327 . S
C765 C781 1.429 . S
C765 H787 0.950 . S
C766 H762 0.949 . S
C766 C774 1.574 . S
C766 C782 1.368 . S
H767 C775 0.950 . S
H768 C773 0.950 . S
H769 C774 0.949 . S
H770 C776 0.950 . S
H771 C777 0.950 . S
H772 C778 0.949 . S
C773 H768 0.950 . S
C773 C775 1.327 . S
C773 C779 1.429 . S
C774 C766 1.574 . S
C774 H769 0.949 . S
C774 C780 1.368 . S
C775 C759 1.349 . S
C775 H767 0.950 . S
C775 C773 1.327 . S
C776 C764 1.349 . S
C776 H770 0.950 . S
C776 C777 1.327 . S
C777 H771 0.950 . S
C777 C776 1.327 . S
C777 C781 1.429 . S
C778 C761 1.574 . S
C778 H772 0.949 . S
C778 C782 1.368 . S
C779 C760 1.429 . S
C779 C773 1.429 . S
C779 C780 1.523 . S
C780 C761 1.368 . S
C780 C774 1.368 . S
C780 C779 1.523 . S
C781 C765 1.429 . S
C781 C777 1.429 . S
C781 C782 1.523 . S
C782 C766 1.368 . S
C782 C778 1.368 . S
C782 C781 1.523 . S
H783 C758 0.950 . S
H784 C760 0.950 . S
H785 C761 0.949 . S
H786 C763 0.950 . S
H787 C765 0.950 . S
C788 C789 1.349 . S
C788 C790 1.327 . S
C788 H813 0.950 . S
C789 C788 1.349 . S
C789 C805 1.349 . S
C790 C788 1.327 . S
C790 C809 1.429 . S
C790 H814 0.950 . S
C791 C808 1.574 . S
C791 C810 1.368 . S
C791 H815 0.949 . S
H792 C796 0.949 . S
C793 C794 1.349 . S
C793 C795 1.327 . S
C793 H816 0.950 . S
C794 C793 1.349 . S
C794 C806 1.349 . S
C795 C793 1.327 . S
C795 C811 1.429 . S
C795 H817 0.950 . S
C796 H792 0.949 . S
C796 C804 1.574 . S
C796 C812 1.368 . S
H797 C805 0.950 . S
H798 C803 0.950 . S
H799 C804 0.949 . S
H800 C806 0.950 . S
H801 C807 0.950 . S
H802 C808 0.949 . S
C803 H798 0.950 . S
C803 C805 1.327 . S
C803 C809 1.429 . S
C804 C796 1.574 . S
C804 H799 0.949 . S
C804 C810 1.368 . S
C805 C789 1.349 . S
C805 H797 0.950 . S
C805 C803 1.327 . S
C806 C794 1.349 . S
C806 H800 0.950 . S
C806 C807 1.327 . S
C807 H801 0.950 . S
C807 C806 1.327 . S
C807 C811 1.429 . S
C808 C791 1.574 . S
C808 H802 0.949 . S
C808 C812 1.368 . S
C809 C790 1.429 . S
C809 C803 1.429 . S
C809 C810 1.523 . S
C810 C791 1.368 . S
C810 C804 1.368 . S
C810 C809 1.523 . S
C811 C795 1.429 . S
C811 C807 1.429 . S
C811 C812 1.523 . S
C812 C796 1.368 . S
C812 C808 1.368 . S
C812 C811 1.523 . S
H813 C788 0.950 . S
H814 C790 0.950 . S
H815 C791 0.949 . S
H816 C793 0.950 . S
H817 C795 0.950 . S
C818 C819 1.349 . S
C818 C820 1.327 . S
C818 H843 0.950 . S
C819 C818 1.349 . S
C819 C835 1.349 . S
C820 C818 1.327 . S
C820 C839 1.429 . S
C820 H844 0.950 . S
C821 C838 1.574 . S
C821 C840 1.368 . S
C821 H845 0.949 . S
H822 C826 0.949 . S
C823 C824 1.349 . S
C823 C825 1.327 . S
C823 H846 0.950 . S
C824 C823 1.349 . S
C824 C836 1.349 . S
C825 C823 1.327 . S
C825 C841 1.429 . S
C825 H847 0.950 . S
C826 H822 0.949 . S
C826 C834 1.574 . S
C826 C842 1.368 . S
H827 C835 0.950 . S
H828 C833 0.950 . S
H829 C834 0.949 . S
H830 C836 0.950 . S
H831 C837 0.950 . S
H832 C838 0.949 . S
C833 H828 0.950 . S
C833 C835 1.327 . S
C833 C839 1.429 . S
C834 C826 1.574 . S
C834 H829 0.949 . S
C834 C840 1.368 . S
C835 C819 1.349 . S
C835 H827 0.950 . S
C835 C833 1.327 . S
C836 C824 1.349 . S
C836 H830 0.950 . S
C836 C837 1.327 . S
C837 H831 0.950 . S
C837 C836 1.327 . S
C837 C841 1.429 . S
C838 C821 1.574 . S
C838 H832 0.949 . S
C838 C842 1.368 . S
C839 C820 1.429 . S
C839 C833 1.429 . S
C839 C840 1.523 . S
C840 C821 1.368 . S
C840 C834 1.368 . S
C840 C839 1.523 . S
C841 C825 1.429 . S
C841 C837 1.429 . S
C841 C842 1.523 . S
C842 C826 1.368 . S
C842 C838 1.368 . S
C842 C841 1.523 . S
H843 C818 0.950 . S
H844 C820 0.950 . S
H845 C821 0.949 . S
H846 C823 0.950 . S
H847 C825 0.950 . S
C848 C849 1.349 . S
C848 C850 1.327 . S
C848 H873 0.950 . S
C849 C848 1.349 . S
C849 C865 1.349 . S
C850 C848 1.327 . S
C850 C869 1.429 . S
C850 H874 0.950 . S
C851 C868 1.574 . S
C851 C870 1.368 . S
C851 H875 0.949 . S
H852 C856 0.949 . S
C853 C854 1.340 1_554 S
C853 C855 1.323 1_554 S
C853 H876 0.963 . S
C854 C853 1.340 1_556 S
C854 C866 1.349 . S
C855 C853 1.323 1_556 S
C855 C871 1.429 . S
C855 H877 0.950 1_556 S
C856 H852 0.949 . S
C856 C864 1.574 . S
C856 C872 1.368 . S
H857 C865 0.950 . S
H858 C863 0.950 . S
H859 C864 0.949 . S
H860 C866 0.950 1_455 S
H861 C867 0.950 . S
H862 C868 0.949 . S
C863 H858 0.950 . S
C863 C865 1.327 . S
C863 C869 1.429 . S
C864 C856 1.574 . S
C864 H859 0.949 . S
C864 C870 1.368 . S
C865 C849 1.349 . S
C865 H857 0.950 . S
C865 C863 1.327 . S
C866 C854 1.349 . S
C866 H860 0.950 1_655 S
C866 C867 1.327 . S
C867 H861 0.950 . S
C867 C866 1.327 . S
C867 C871 1.429 . S
C868 C851 1.574 . S
C868 H862 0.949 . S
C868 C872 1.368 . S
C869 C850 1.429 . S
C869 C863 1.429 . S
C869 C870 1.523 . S
C870 C851 1.368 . S
C870 C864 1.368 . S
C870 C869 1.523 . S
C871 C855 1.429 . S
C871 C867 1.429 . S
C871 C872 1.523 . S
C872 C856 1.368 . S
C872 C868 1.368 . S
C872 C871 1.523 . S
H873 C848 0.950 . S
H874 C850 0.950 . S
H875 C851 0.949 . S
H876 C853 0.963 . S
H877 C855 0.950 1_554 S
C878 C879 1.349 . S
C878 C880 1.327 . S
C878 H903 0.950 . S
C879 C878 1.349 . S
C879 C895 1.349 . S
C880 C878 1.327 . S
C880 C899 1.429 . S
C880 H904 0.950 . S
C881 C898 1.574 . S
C881 C900 1.368 . S
C881 H905 0.949 . S
H882 C886 0.949 . S
C883 C884 1.349 . S
C883 C885 1.327 . S
C883 H906 0.950 . S
C884 C883 1.349 . S
C884 C896 1.349 . S
C885 C883 1.327 . S
C885 C901 1.429 . S
C885 H907 0.950 . S
C886 H882 0.949 . S
C886 C894 1.574 . S
C886 C902 1.368 . S
H887 C895 0.950 . S
H888 C893 0.950 . S
H889 C894 0.949 . S
H890 C896 0.950 . S
H891 C897 0.950 . S
H892 C898 0.949 . S
C893 H888 0.950 . S
C893 C895 1.327 . S
C893 C899 1.429 . S
C894 C886 1.574 . S
C894 H889 0.949 . S
C894 C900 1.368 . S
C895 C879 1.349 . S
C895 H887 0.950 . S
C895 C893 1.327 . S
C896 C884 1.349 . S
C896 H890 0.950 . S
C896 C897 1.327 . S
C897 H891 0.950 . S
C897 C896 1.327 . S
C897 C901 1.429 . S
C898 C881 1.574 . S
C898 H892 0.949 . S
C898 C902 1.368 . S
C899 C880 1.429 . S
C899 C893 1.429 . S
C899 C900 1.523 . S
C900 C881 1.368 . S
C900 C894 1.368 . S
C900 C899 1.523 . S
C901 C885 1.429 . S
C901 C897 1.429 . S
C901 C902 1.523 . S
C902 C886 1.368 . S
C902 C898 1.368 . S
C902 C901 1.523 . S
H903 C878 0.950 . S
H904 C880 0.950 . S
H905 C881 0.949 . S
H906 C883 0.950 . S
H907 C885 0.950 . S
C908 C909 1.349 . S
C908 C910 1.327 . S
C908 H933 0.950 . S
C909 C908 1.349 . S
C909 C925 1.349 . S
C910 C908 1.327 . S
C910 C929 1.429 . S
C910 H934 0.950 . S
C911 C928 1.574 . S
C911 C930 1.368 . S
C911 H935 0.949 . S
H912 C916 0.949 . S
C913 C914 1.349 . S
C913 C915 1.327 . S
C913 H936 0.950 . S
C914 C913 1.349 . S
C914 C926 1.349 . S
C915 C913 1.327 . S
C915 C931 1.429 . S
C915 H937 0.950 . S
C916 H912 0.949 . S
C916 C924 1.574 . S
C916 C932 1.368 . S
H917 C925 0.950 . S
H918 C923 0.950 . S
H919 C924 0.949 . S
H920 C926 0.950 . S
H921 C927 0.950 . S
H922 C928 0.949 . S
C923 H918 0.950 . S
C923 C925 1.327 . S
C923 C929 1.429 . S
C924 C916 1.574 . S
C924 H919 0.949 . S
C924 C930 1.368 . S
C925 C909 1.349 . S
C925 H917 0.950 . S
C925 C923 1.327 . S
C926 C914 1.349 . S
C926 H920 0.950 . S
C926 C927 1.327 . S
C927 H921 0.950 . S
C927 C926 1.327 . S
C927 C931 1.429 . S
C928 C911 1.574 . S
C928 H922 0.949 . S
C928 C932 1.368 . S
C929 C910 1.429 . S
C929 C923 1.429 . S
C929 C930 1.523 . S
C930 C911 1.368 . S
C930 C924 1.368 . S
C930 C929 1.523 . S
C931 C915 1.429 . S
C931 C927 1.429 . S
C931 C932 1.523 . S
C932 C916 1.368 . S
C932 C928 1.368 . S
C932 C931 1.523 . S
H933 C908 0.950 . S
H934 C910 0.950 . S
H935 C911 0.949 . S
H936 C913 0.950 . S
H937 C915 0.950 . S
C938 C939 1.349 . S
C938 C940 1.327 . S
C938 H963 0.950 . S
C939 C938 1.349 . S
C939 C955 1.349 . S
C940 C938 1.327 . S
C940 C959 1.429 . S
C940 H964 0.950 . S
C941 C958 1.574 . S
C941 C960 1.368 . S
C941 H965 0.949 . S
H942 C946 0.949 . S
C943 C944 1.349 . S
C943 C945 1.327 . S
C943 H966 0.950 . S
C944 C943 1.349 . S
C944 C956 1.349 . S
C945 C943 1.327 . S
C945 C961 1.429 . S
C945 H967 0.950 . S
C946 H942 0.949 . S
C946 C954 1.574 . S
C946 C962 1.368 . S
H947 C955 0.950 . S
H948 C953 0.950 . S
H949 C954 0.949 . S
H950 C956 0.950 . S
H951 C957 0.950 . S
H952 C958 0.949 . S
C953 H948 0.950 . S
C953 C955 1.327 . S
C953 C959 1.429 . S
C954 C946 1.574 . S
C954 H949 0.949 . S
C954 C960 1.368 . S
C955 C939 1.349 . S
C955 H947 0.950 . S
C955 C953 1.327 . S
C956 C944 1.349 . S
C956 H950 0.950 . S
C956 C957 1.327 . S
C957 H951 0.950 . S
C957 C956 1.327 . S
C957 C961 1.429 . S
C958 C941 1.574 . S
C958 H952 0.949 . S
C958 C962 1.368 . S
C959 C940 1.429 . S
C959 C953 1.429 . S
C959 C960 1.523 . S
C960 C941 1.368 . S
C960 C954 1.368 . S
C960 C959 1.523 . S
C961 C945 1.429 . S
C961 C957 1.429 . S
C961 C962 1.523 . S
C962 C946 1.368 . S
C962 C958 1.368 . S
C962 C961 1.523 . S
H963 C938 0.950 . S
H964 C940 0.950 . S
H965 C941 0.949 . S
H966 C943 0.950 . S
H967 C945 0.950 . S
C249 C4 3.125 . S
C254 C107 3.092 . S
C279 C16 2.509 . S
C284 C138 2.545 1_556 S
C314 C177 0.743 . S
C309 C32 0.741 . S
C339 C43 0.251 . S
C344 C214 0.314 . S
C374 C137 3.397 . S
C369 C5 3.461 . S
C404 C94 1.265 . S
C399 C21 1.255 . S
C434 C226 1.076 . S
C429 C27 1.093 . S
C464 C183 0.786 . S
C459 C37 0.787 . S
C489 C10 2.462 . S
C494 C227 2.459 . S
C524 C143 1.470 . S
C519 C26 1.474 . S
C549 C38 0.194 . S
C554 C106 0.403 . S
C579 C15 2.557 . S
C584 C178 2.586 . S
C614 C98 3.144 . S
C609 C48 3.184 . S
C639 C59 2.237 . S
C644 C147 2.269 . S
C669 C76 1.064 . S
C674 C186 1.037 . S
C699 C87 0.309 . S
C704 C223 0.248 . S
C729 C54 2.794 . S
C734 C146 2.695 1_565 S
C764 C103 1.849 . S
C759 C60 1.832 . S
C794 C217 1.106 . S
C789 C71 1.149 . S
C824 C174 0.825 . S
C819 C82 0.829 . S
C849 C49 2.577 . S
C854 C218 2.587 1_656 S
C884 C134 1.210 . S
C879 C70 1.215 . S
C914 C97 0.649 . S
C909 C81 0.631 . S
C939 C65 2.393 . S
C944 C187 2.418 . S
