# Generated by pormake.
# Topology tsx, (6,3)-cn, num edge types: 1
# Building blocks:
#     Node 0, Type 0, BuildingBlock: MIDCAF_clean_sbu_0, # of connection points: 6
#     Node 1, Type 0, BuildingBlock: MIDCAF_clean_sbu_0, # of connection points: 6
#     Node 2, Type 1, BuildingBlock: BELTOD_clean_linker_0, # of connection points: 3
#     Node 3, Type 1, BuildingBlock: BELTOD_clean_linker_0, # of connection points: 3
#     Node 4, Type 1, BuildingBlock: BELTOD_clean_linker_0, # of connection points: 3
#     Node 5, Type 1, BuildingBlock: BELTOD_clean_linker_0, # of connection points: 3
#     Edge 6, Type (0, 1), BuildingBlock: UVAHIK_clean_linker_0, # of connection points: 2
#     Edge 7, Type (0, 1), BuildingBlock: UVAHIK_clean_linker_0, # of connection points: 2
#     Edge 8, Type (0, 1), BuildingBlock: UVAHIK_clean_linker_0, # of connection points: 2
#     Edge 9, Type (0, 1), BuildingBlock: UVAHIK_clean_linker_0, # of connection points: 2
#     Edge 10, Type (0, 1), BuildingBlock: UVAHIK_clean_linker_0, # of connection points: 2
#     Edge 11, Type (0, 1), BuildingBlock: UVAHIK_clean_linker_0, # of connection points: 2
#     Edge 12, Type (0, 1), BuildingBlock: UVAHIK_clean_linker_0, # of connection points: 2
#     Edge 13, Type (0, 1), BuildingBlock: UVAHIK_clean_linker_0, # of connection points: 2
#     Edge 14, Type (0, 1), BuildingBlock: UVAHIK_clean_linker_0, # of connection points: 2
#     Edge 15, Type (0, 1), BuildingBlock: UVAHIK_clean_linker_0, # of connection points: 2
#     Edge 16, Type (0, 1), BuildingBlock: UVAHIK_clean_linker_0, # of connection points: 2
#     Edge 17, Type (0, 1), BuildingBlock: UVAHIK_clean_linker_0, # of connection points: 2
# Relax obj value: 0.110
# Max RMSD: 0.178
# Mean RMSD: 0.105
data_MOF--net-tsx--node1-MIDCAF_clean_sbu_0--node2-BELTOD_clean_linker_0--edge1-UVAHIK_clean_linker_0
_symmetry_space_group_name_H-M    P1
_symmetry_Int_Tables_number       1
_symmetry_cell_setting            triclinic
loop_
_symmetry_equiv_pos_as_xyz
'x, y, z'
_cell_length_a     28.144581
_cell_length_b     29.3697
_cell_length_c     54.20364
_cell_angle_alpha  90.966987
_cell_angle_beta   94.597157
_cell_angle_gamma 89.93084
loop_
_atom_site_label
_atom_site_type_symbol
_atom_site_fract_x
_atom_site_fract_y
_atom_site_fract_z
_atom_type_partial_charge
Zn0 Zn 0.94046 0.01981 0.9775 0.0
Zn1 Zn 0.09642 0.0317 0.03462 0.0
Zn2 Zn 0.01915 0.02968 0.00551 0.0
C3 C 0.06816 0.12216 0.02828 0.0
C4 C 0.12172 -0.00841 0.99127 0.0
O5 O 0.9666 0.98909 0.0249 0.0
O6 O 0.89981 0.98988 0.00045 0.0
C7 C 0.95886 0.11391 0.98274 0.0
O8 O 0.03657 0.10316 0.01289 0.0
O9 O 0.09715 0.09801 0.04133 0.0
O10 O 0.14109 0.00748 0.01138 0.0
O11 O 0.07638 -0.00457 0.98618 0.0
O12 O 0.93113 0.0854 0.97142 0.0
O13 O 0.99405 0.10014 -0.00259 0.0
O14 O 0.03524 -0.00424 0.9696 0.0
O15 O 0.96441 0.98315 0.95007 0.0
C16 C 0.00922 0.98014 0.95062 0.0
O17 O 0.00709 -0.00397 0.04153 0.0
O18 O 0.07854 -0.0077 0.06152 0.0
C19 C 0.92237 0.97791 0.02033 0.0
C20 C 0.03447 0.98397 0.06059 0.0
Zn21 Zn 0.586 0.48328 0.5396 0.0
Zn22 Zn 0.44619 0.48467 0.4697 0.0
Zn23 Zn 0.51763 0.49328 0.50399 0.0
C24 C 0.52547 0.52382 0.44845 0.0
C25 C 0.4172 0.54659 0.50586 0.0
O26 O 0.49411 0.53158 0.53611 0.0
O27 O 0.55202 0.51651 0.56497 0.0
C28 C 0.57023 0.39711 0.52334 0.0
O29 O 0.54488 0.5221 0.47073 0.0
O30 O 0.4838 0.50861 0.44324 0.0
O31 O 0.40317 0.52775 0.48546 0.0
O32 O 0.4588 0.53724 0.51632 0.0
O33 O 0.59559 0.41643 0.54069 0.0
O34 O 0.53959 0.42056 0.50977 0.0
O35 O 0.58012 0.52953 0.49084 0.0
O36 O 0.63328 0.51881 0.52257 0.0
C37 C 0.6221 0.53599 0.5017 0.0
O38 O 0.49059 0.4214 0.50034 0.0
O39 O 0.43064 0.41892 0.47147 0.0
C40 C 0.51295 0.53574 0.55846 0.0
C41 C 0.45649 0.39916 0.48813 0.0
P42 P 0.02003 0.01359 0.39895 0.0
H43 H 0.00541 0.10148 0.42304 0.0
H44 H 0.93845 0.13576 0.44164 0.0
H45 H 0.85925 0.01004 0.42985 0.0
H46 H 0.92633 0.97675 0.40956 0.0
H47 H 0.1196 0.98855 0.39916 0.0
H48 H 0.16959 0.93352 0.42197 0.0
H49 H 0.04776 0.88801 0.45864 0.0
H50 H -0.00198 0.94482 0.43615 0.0
H51 H 0.9726 0.06027 0.35722 0.0
H52 H 0.02394 0.92458 0.37264 0.0
O53 O 0.057 0.05677 0.39491 0.0
H54 H 0.95698 0.03965 0.31358 0.0
H55 H 0.00698 0.90301 0.32907 0.0
C56 C 0.97104 0.03643 0.41491 0.0
C57 C 0.97379 0.08106 0.42445 0.0
C58 C 0.93529 0.10061 0.43541 0.0
C59 C 0.89309 0.07577 0.4376 0.0
C60 C 0.89075 0.03057 0.42831 0.0
C61 C 0.92929 0.01122 0.41694 0.0
C62 C 0.05517 0.97137 0.41615 0.0
C63 C 0.10357 0.96698 0.41221 0.0
C64 C 0.13213 0.93504 0.42516 0.0
C65 C 0.11287 0.90598 0.44218 0.0
C66 C 0.06403 0.91016 0.44596 0.0
C67 C 0.0354 0.9425 0.43298 0.0
C68 C -0.00035 -0.00587 0.36816 0.0
C69 C 0.97939 0.02563 0.35127 0.0
C70 C 0.97025 0.01364 0.32626 0.0
C71 C 0.98104 0.96967 0.31758 0.0
C72 C -0.00094 0.93743 0.33492 0.0
C73 C 0.00844 0.94961 0.35996 0.0
P74 P 0.12511 0.90055 0.61229 0.0
H75 H 0.07562 0.81562 0.61812 0.0
H76 H 0.00826 0.77805 0.59505 0.0
H77 H 0.99049 0.89418 0.54731 0.0
H78 H 0.05781 0.93203 0.57091 0.0
H79 H 0.15921 0.91506 0.56367 0.0
H80 H 0.20184 0.97799 0.5463 0.0
H81 H 0.18486 0.05855 0.61246 0.0
H82 H 0.1427 -0.00456 0.62973 0.0
H83 H 0.04076 0.91848 0.64015 0.0
H84 H 0.19265 0.90542 0.65583 0.0
O85 O 0.16735 0.86087 0.61095 0.0
H86 H 0.03118 0.92813 0.68444 0.0
H87 H 0.18369 0.91611 0.70001 0.0
C88 C 0.07206 0.8764 0.59614 0.0
C89 C 0.05704 0.83317 0.60279 0.0
C90 C 0.01869 0.81157 0.58944 0.0
C91 C 0.99429 0.83274 0.56904 0.0
C92 C 0.00839 0.87691 0.56291 0.0
C93 C 0.04704 0.89853 0.57634 0.0
C94 C 0.14774 0.95041 0.59799 0.0
C95 C 0.1639 0.94661 0.57423 0.0
C96 C 0.18827 0.98268 0.56431 0.0
C97 C 0.19729 0.02327 0.57808 0.0
C98 C 0.17932 0.02753 0.60152 0.0
C99 C 0.15479 -0.00852 0.61137 0.0
C100 C 0.11733 0.91034 0.64474 0.0
C101 C 0.07207 0.91783 0.65312 0.0
C102 C 0.06673 0.92368 0.67848 0.0
C103 C 0.10664 0.92249 0.69594 0.0
C104 C 0.15204 0.91624 0.68725 0.0
C105 C 0.15727 0.91035 0.66195 0.0
P106 P 0.62619 0.64319 0.88265 0.0
H107 H 0.61945 0.71063 0.92254 0.0
H108 H 0.55119 0.74845 0.93905 0.0
H109 H 0.45598 0.65906 0.89433 0.0
H110 H 0.52432 0.62007 0.87906 0.0
H111 H 0.6885 0.57606 0.86218 0.0
H112 H 0.73333 0.51176 0.87996 0.0
H113 H 0.67416 0.53735 0.95001 0.0
H114 H 0.62946 0.60218 0.93201 0.0
H115 H 0.61269 0.70487 0.84128 0.0
H116 H 0.58632 0.56331 0.85489 0.0
O117 O 0.66757 0.68395 0.88351 0.0
H118 H 0.57438 0.69618 0.79943 0.0
H119 H 0.54704 0.55442 0.81318 0.0
C120 C 0.57694 0.66342 0.89906 0.0
C121 C 0.58389 0.69861 0.91671 0.0
C122 C 0.54473 0.72048 0.92594 0.0
C123 C 0.4979 0.70773 0.9175 0.0
C124 C 0.49136 0.66997 0.90126 0.0
C125 C 0.53059 0.64777 0.89231 0.0
C126 C 0.65454 0.593 0.89554 0.0
C127 C 0.68445 0.56734 0.88123 0.0
C128 C 0.71016 0.53062 0.89145 0.0
C129 C 0.70704 0.51917 0.91636 0.0
C130 C 0.67743 0.54538 0.9308 0.0
C131 C 0.65146 0.58211 0.92045 0.0
C132 C 0.60358 0.63444 0.8509 0.0
C133 C 0.59928 0.67171 0.8351 0.0
C134 C 0.57672 0.66684 0.8113 0.0
C135 C 0.55748 0.62462 0.80295 0.0
C136 C 0.56205 0.58723 0.81888 0.0
C137 C 0.5847 0.59218 0.8427 0.0
P138 P 0.56502 0.47509 0.11452 0.0
H139 H 0.52693 0.43841 0.0668 0.0
H140 H 0.44653 0.41743 0.05028 0.0
H141 H 0.38975 0.47686 0.11524 0.0
H142 H 0.47042 0.49651 0.13189 0.0
H143 H 0.66411 0.49975 0.12198 0.0
H144 H 0.70915 0.56642 0.11171 0.0
H145 H 0.5828 0.62119 0.07211 0.0
H146 H 0.53737 0.55466 0.08359 0.0
H147 H 0.58754 0.41347 0.15588 0.0
H148 H 0.54815 0.55428 0.14596 0.0
O149 O 0.59469 0.42756 0.10831 0.0
H150 H 0.59949 0.4265 0.20056 0.0
H151 H 0.55891 0.56745 0.19072 0.0
C152 C 0.50483 0.46838 0.10072 0.0
C153 C 0.49707 0.44749 0.07731 0.0
C154 C 0.45092 0.43572 0.06782 0.0
C155 C 0.41146 0.4449 0.08154 0.0
C156 C 0.41929 0.46836 0.10439 0.0
C157 C 0.46553 0.47995 0.11389 0.0
C158 C 0.59767 0.52199 0.10324 0.0
C159 C 0.64627 0.52583 0.11077 0.0
C160 C 0.67207 0.56404 0.10477 0.0
C161 C 0.64987 0.59934 0.09091 0.0
C162 C 0.60104 0.59498 0.08303 0.0
C163 C 0.57506 0.55671 0.08931 0.0
C164 C 0.56737 0.48301 0.14762 0.0
C165 C 0.58088 0.44708 0.16335 0.0
C166 C 0.58757 0.45458 0.18894 0.0
C167 C 0.58065 0.49817 0.19924 0.0
C168 C 0.56553 0.53371 0.18339 0.0
C169 C 0.55892 0.52616 0.15782 0.0
C170 C 0.08731 0.19212 0.05312 0.0
C171 C 0.07528 0.17191 0.02982 0.0
C172 C 0.10956 0.23459 0.05515 0.0
C173 C 0.15348 0.32856 0.05592 0.0
H174 H 0.26279 0.32579 0.01673 0.0
C175 C 0.34728 0.42548 0.04764 0.0
C176 C 0.36319 0.42691 0.07295 0.0
C177 C 0.30397 0.40447 0.03955 0.0
C178 C 0.23206 0.32787 0.02751 0.0
H179 H 0.07332 0.1817 0.99028 0.0
H180 H 0.1126 0.25646 0.99374 0.0
H181 H 0.19719 0.27296 0.00689 0.0
H182 H 0.34512 0.40776 0.10954 0.0
H183 H 0.27002 0.3716 0.09554 0.0
H184 H 0.18941 0.38215 0.07723 0.0
C185 C 0.1049 0.23927 0.01048 0.0
C186 C 0.19424 0.29757 0.0218 0.0
C187 C 0.08191 0.19679 0.00847 0.0
C188 C 0.33382 0.40815 0.08998 0.0
C189 C 0.29056 0.38731 0.08191 0.0
C190 C 0.19128 0.35886 0.06164 0.0
C191 C 0.12091 0.25765 0.03388 0.0
C192 C 0.15524 0.29643 0.03647 0.0
C193 C 0.27538 0.3845 0.05657 0.0
C194 C 0.23182 0.35782 0.04804 0.0
H195 H 0.08279 0.17345 0.06985 0.0
H196 H 0.12153 0.24735 0.07346 0.0
H197 H 0.12366 0.32908 0.06738 0.0
H198 H 0.36855 0.44016 0.03401 0.0
H199 H 0.29311 0.40345 0.01993 0.0
C200 C 0.13995 0.92234 0.96633 0.0
C201 C 0.152 0.96656 0.9748 0.0
C202 C 0.17437 0.8944 0.95643 0.0
C203 C 0.30554 0.88413 0.9619 0.0
H204 H 0.28524 0.78788 0.91238 0.0
C205 C 0.46062 0.78368 0.92534 0.0
C206 C 0.45646 0.73596 0.92389 0.0
C207 C 0.42161 0.81076 0.93019 0.0
C208 C 0.29119 0.81446 0.92638 0.0
H209 H 0.20706 0.01813 0.97737 0.0
H210 H 0.26613 0.97064 0.95895 0.0
H211 H 0.21936 0.83912 0.92081 0.0
H212 H 0.4075 0.67947 0.9265 0.0
H213 H 0.33897 0.7272 0.93463 0.0
H214 H 0.3772 0.85998 0.96736 0.0
C215 C 0.23114 0.95648 0.96088 0.0
C216 C 0.25355 0.8438 0.93119 0.0
C217 C 0.1972 0.98391 0.97116 0.0
C218 C 0.41197 0.71609 0.92727 0.0
C219 C 0.37268 0.74336 0.9319 0.0
C220 C 0.34301 0.85523 0.95696 0.0
C221 C 0.22106 0.91062 0.95466 0.0
C222 C 0.26046 0.87928 0.94889 0.0
C223 C 0.37724 0.79096 0.93349 0.0
C224 C 0.3364 0.82029 0.93907 0.0
H225 H 0.10525 0.90827 0.9691 0.0
H226 H 0.16528 0.85932 0.95177 0.0
H227 H 0.3119 0.91 0.97626 0.0
H228 H 0.4938 0.80038 0.92216 0.0
H229 H 0.42599 0.84741 0.93097 0.0
C230 C 0.8496 0.95356 0.03965 0.0
C231 C 0.89824 0.94737 0.03668 0.0
C232 C 0.82337 0.91964 0.05013 0.0
C233 C 0.83247 0.8064 0.08122 0.0
H234 H 0.70733 0.78957 0.04675 0.0
C235 C 0.72602 0.63771 0.08106 0.0
C236 C 0.6775 0.64091 0.08555 0.0
C237 C 0.75275 0.67679 0.07747 0.0
C238 C 0.74196 0.79408 0.05674 0.0
H239 H 0.95836 0.90207 0.04345 0.0
H240 H 0.91246 0.84193 0.06105 0.0
H241 H 0.7549 0.85533 0.03784 0.0
H242 H 0.61929 0.68835 0.08961 0.0
H243 H 0.66567 0.75634 0.08244 0.0
H244 H 0.81976 0.74357 0.09925 0.0
C245 C 0.89449 0.87336 0.05587 0.0
C246 C 0.76928 0.83203 0.05179 0.0
C247 C 0.92096 0.90784 0.0458 0.0
C248 C 0.65626 0.68432 0.08581 0.0
C249 C 0.6829 0.72338 0.08188 0.0
C250 C 0.8053 0.76803 0.08592 0.0
C251 C 0.84489 0.8781 0.05728 0.0
C252 C 0.81501 0.83878 0.0639 0.0
C253 C 0.73152 0.72004 0.07789 0.0
C254 C 0.75984 0.76142 0.07364 0.0
H255 H 0.83135 0.98395 0.03289 0.0
H256 H 0.78571 0.92534 0.05169 0.0
H257 H 0.86714 0.8106 0.09117 0.0
H258 H 0.74347 0.60492 0.08018 0.0
H259 H 0.78994 0.67312 0.07398 0.0
C260 C 0.95094 0.19491 -0.0019 0.0
C261 C 0.94864 0.16262 0.97859 0.0
C262 C 0.9297 0.23795 0.99457 0.0
C263 C 0.82828 0.28418 0.95789 0.0
H264 H 0.87931 0.40558 0.9706 0.0
C265 C 0.73761 0.43935 0.91318 0.0
C266 C 0.73474 0.47998 0.92701 0.0
C267 C 0.76463 0.40279 0.92257 0.0
C268 C 0.86436 0.37185 0.96734 0.0
H269 H 0.92703 0.1513 0.93969 0.0
H270 H 0.8908 0.22576 0.93357 0.0
H271 H 0.92892 0.3388 0.98167 0.0
H272 H 0.75822 0.51406 0.96165 0.0
H273 H 0.8053 0.44957 0.97827 0.0
H274 H 0.76417 0.31632 0.94343 0.0
C275 C 0.90781 0.21786 0.95165 0.0
C276 C 0.89277 0.33377 0.97364 0.0
C277 C 0.92872 0.17532 0.95514 0.0
C278 C 0.75939 0.48303 0.95063 0.0
C279 C 0.78672 0.44633 0.96004 0.0
C280 C 0.80002 0.3219 0.95176 0.0
C281 C 0.90609 0.24881 0.97153 0.0
C282 C 0.87534 0.28963 0.96825 0.0
C283 C 0.78951 0.40573 0.94611 0.0
C284 C 0.8181 0.3662 0.95568 0.0
H285 H 0.96595 0.18581 0.01638 0.0
H286 H 0.92901 0.26145 0.01016 0.0
H287 H 0.81362 0.25047 0.95402 0.0
H288 H 0.71875 0.43568 0.89503 0.0
H289 H 0.76651 0.37228 0.91118 0.0
C290 C 0.6439 0.61285 0.48698 0.0
C291 C 0.65687 0.56762 0.49221 0.0
C292 C 0.67902 0.64685 0.487 0.0
C293 C 0.81087 0.66667 0.48974 0.0
H294 H 0.78448 0.76563 0.53488 0.0
C295 C 0.95997 0.76136 0.54849 0.0
C296 C 0.95521 0.80801 0.55408 0.0
C297 C 0.92289 0.73718 0.53552 0.0
C298 C 0.79234 0.73884 0.52186 0.0
H299 H 0.71638 0.52172 0.49927 0.0
H300 H 0.77732 0.58014 0.49855 0.0
H301 H 0.7204 0.71439 0.51943 0.0
H302 H 0.90768 0.86596 0.54981 0.0
H303 H 0.84282 0.8237 0.52695 0.0
H304 H 0.88314 0.69017 0.49281 0.0
C305 C 0.74042 0.58991 0.49459 0.0
C306 C 0.75545 0.70943 0.51292 0.0
C307 C 0.70545 0.55626 0.49494 0.0
C308 C 0.91264 0.83011 0.54577 0.0
C309 C 0.8753 0.80578 0.53284 0.0
C310 C 0.84771 0.6961 0.49864 0.0
C311 C 0.72765 0.63597 0.49186 0.0
C312 C 0.76454 0.67211 0.49734 0.0
C313 C 0.87981 0.75885 0.52771 0.0
C314 C 0.8393 0.73173 0.51544 0.0
H315 H 0.60667 0.62262 0.48518 0.0
H316 H 0.668 0.68192 0.48453 0.0
H317 H 0.81903 0.63874 0.47748 0.0
H318 H 0.99247 0.74333 0.55424 0.0
H319 H 0.9276 0.70104 0.53225 0.0
C320 C 0.58337 0.33825 0.49094 0.0
C321 C 0.58213 0.3499 0.5161 0.0
C322 C 0.60748 0.29911 0.48371 0.0
C323 C 0.70332 0.2211 0.50993 0.0
H324 H 0.68912 0.16992 0.44346 0.0
C325 C 0.85983 0.13056 0.46815 0.0
C326 C 0.85188 0.09771 0.44907 0.0
C327 C 0.82191 0.15421 0.47751 0.0
C328 C 0.69341 0.18299 0.46229 0.0
H329 H 0.60016 0.32724 0.55344 0.0
H330 H 0.63849 0.25705 0.54104 0.0
H331 H 0.62765 0.21948 0.45761 0.0
H332 H 0.79658 0.06301 0.42567 0.0
H333 H 0.73037 0.10209 0.44306 0.0
H334 H 0.76766 0.18281 0.51511 0.0
C335 C 0.62382 0.27935 0.52668 0.0
C336 C 0.65827 0.21237 0.47033 0.0
C337 C 0.60105 0.31928 0.53388 0.0
C338 C 0.80441 0.08779 0.44044 0.0
C339 C 0.76625 0.11091 0.45018 0.0
C340 C 0.73772 0.19089 0.50213 0.0
C341 C 0.62987 0.2699 0.50151 0.0
C342 C 0.66334 0.23312 0.49404 0.0
C343 C 0.77442 0.14509 0.46861 0.0
C344 C 0.73429 0.17254 0.47789 0.0
H345 H 0.5694 0.36141 0.4768 0.0
H346 H 0.61118 0.29381 0.46417 0.0
H347 H 0.70953 0.23631 0.52821 0.0
H348 H 0.89559 0.1386 0.47582 0.0
H349 H 0.83033 0.18062 0.49132 0.0
C350 C 0.45577 0.33714 0.51953 0.0
C351 C 0.44305 0.35266 0.4955 0.0
C352 C 0.43514 0.29761 0.52812 0.0
C353 C 0.36284 0.19489 0.50856 0.0
H354 H 0.3161 0.2083 0.57365 0.0
C355 C 0.22269 0.07194 0.54346 0.0
C356 C 0.22727 0.06001 0.56857 0.0
C357 C 0.2518 0.10564 0.53456 0.0
C358 C 0.32942 0.20355 0.55559 0.0
H359 H 0.40067 0.33718 0.46121 0.0
H360 H 0.36482 0.2685 0.47612 0.0
H361 H 0.36484 0.26809 0.55809 0.0
H362 H 0.26702 0.07376 0.60385 0.0
H363 H 0.31771 0.13216 0.58839 0.0
H364 H 0.32703 0.13045 0.506 0.0
C365 C 0.39086 0.28666 0.48836 0.0
C366 C 0.35754 0.23792 0.54666 0.0
C367 C 0.41135 0.32622 0.47981 0.0
C368 C 0.26179 0.08264 0.58451 0.0
C369 C 0.29097 0.11619 0.57561 0.0
C370 C 0.3348 0.1604 0.51753 0.0
C371 C 0.40133 0.2726 0.51287 0.0
C372 C 0.37436 0.23425 0.52295 0.0
C373 C 0.28643 0.12822 0.55051 0.0
C374 C 0.31737 0.1644 0.54111 0.0
H375 H 0.47949 0.35687 0.53227 0.0
H376 H 0.4446 0.2874 0.54698 0.0
H377 H 0.37558 0.19067 0.49033 0.0
H378 H 0.19617 0.05558 0.53071 0.0
H379 H 0.24664 0.11444 0.51521 0.0
C380 C 0.3371 0.5796 0.51054 0.0
C381 C 0.3868 0.58311 0.51524 0.0
C382 C 0.30809 0.61808 0.51161 0.0
C383 C 0.31703 0.7387 0.49869 0.0
H384 H 0.18342 0.73922 0.51157 0.0
C385 C 0.13908 0.86121 0.48049 0.0
C386 C 0.14388 0.87134 0.45549 0.0
C387 C 0.16958 0.82971 0.49292 0.0
C388 C 0.2208 0.73999 0.50816 0.0
H389 H 0.44474 0.6289 0.52698 0.0
H390 H 0.39391 0.69665 0.52888 0.0
H391 H 0.2354 0.6779 0.52764 0.0
H392 H 0.18367 0.85455 0.42387 0.0
H393 H 0.23673 0.80057 0.44549 0.0
H394 H 0.30222 0.79993 0.4786 0.0
C395 C 0.37743 0.66401 0.52416 0.0
C396 C 0.25057 0.7047 0.51725 0.0
C397 C 0.40651 0.62517 0.52338 0.0
C398 C 0.17953 0.84867 0.44325 0.0
C399 C 0.21008 0.8176 0.45567 0.0
C400 C 0.28727 0.77376 0.4895 0.0
C401 C 0.32813 0.66121 0.51718 0.0
C402 C 0.29877 0.7029 0.51202 0.0
C403 C 0.20578 0.80787 0.4807 0.0
C404 C 0.23847 0.77411 0.49346 0.0
H405 H 0.32095 0.54757 0.50421 0.0
H406 H 0.27046 0.61446 0.50601 0.0
H407 H 0.35376 0.73834 0.49407 0.0
H408 H 0.11238 0.87826 0.49062 0.0
H409 H 0.16537 0.82304 0.51222 0.0
C410 C 0.97316 0.98187 0.09176 0.0
C411 C 0.01529 0.96477 0.08283 0.0
C412 C 0.96236 0.973 0.11608 0.0
C413 C 0.02889 0.94868 0.17572 0.0
H414 H 0.90444 0.93802 0.20092 0.0
C415 C 0.01232 0.93236 0.27995 0.0
C416 C 0.97722 0.95895 0.29041 0.0
C417 C 0.01206 0.92638 0.25429 0.0
C418 C 0.93944 0.94123 0.19416 0.0
H419 H 0.07641 0.92129 0.09125 0.0
H420 H 0.05689 0.9045 0.13307 0.0
H421 H 0.91131 0.93788 0.15611 0.0
H422 H 0.91263 -0.00208 0.28177 0.0
H423 H 0.91304 0.9886 0.23698 0.0
H424 H 0.05716 0.95322 0.2134 0.0
C425 C 0.03296 0.92606 0.12181 0.0
C426 C 0.94335 0.94109 0.16848 0.0
C427 C 0.04394 0.9353 0.09775 0.0
C428 C 0.94072 0.97783 0.27443 0.0
C429 C 0.9406 0.97202 0.24869 0.0
C430 C 0.025 0.94887 0.20123 0.0
C431 C 0.99345 0.94669 0.13177 0.0
C432 C 0.98823 0.94475 0.15894 0.0
C433 C 0.97693 0.94709 0.23825 0.0
C434 C 0.9803 0.94516 0.21087 0.0
H435 H 0.95061 0.00496 0.0807 0.0
H436 H 0.93157 0.98938 0.12309 0.0
H437 H 0.06394 0.95292 0.16917 0.0
H438 H 0.0413 0.91757 0.2915 0.0
H439 H 0.04014 0.90623 0.24698 0.0
C440 C 0.07228 0.98203 0.92022 0.0
C441 C 0.0303 0.96298 0.92802 0.0
C442 C 0.08559 0.97342 0.89615 0.0
C443 C 0.02769 0.94353 0.83443 0.0
H444 H 0.15649 0.9333 0.81448 0.0
C445 C 0.06775 0.95771 0.73206 0.0
C446 C 0.10102 0.9271 0.72307 0.0
C447 C 0.06198 0.96139 0.75744 0.0
C448 C 0.12027 0.93584 0.81975 0.0
H449 H 0.97161 0.91718 0.91748 0.0
H450 H 0.99526 0.90135 0.87599 0.0
H451 H 0.14305 0.93716 0.85855 0.0
H452 H 0.15417 0.87617 0.73403 0.0
H453 H 0.14412 0.88268 0.77821 0.0
H454 H 0.00467 0.94176 0.79586 0.0
C455 C 0.01728 0.92393 0.88806 0.0
C456 C 0.11262 0.93844 0.84502 0.0
C457 C 0.00394 0.93267 0.91195 0.0
C458 C 0.1287 0.90062 0.74024 0.0
C459 C 0.12295 0.90434 0.76564 0.0
C460 C 0.03532 0.9411 0.80927 0.0
C461 C 0.05712 0.94565 0.87945 0.0
C462 C 0.06615 0.94214 0.85268 0.0
C463 C 0.08928 0.93456 0.77458 0.0
C464 C 0.08167 0.93728 0.80154 0.0
H465 H 0.09297 0.00602 0.93205 0.0
H466 H 0.1165 -0.00925 0.89017 0.0
H467 H 0.99145 0.94718 0.83954 0.0
H468 H 0.04641 0.97925 0.7195 0.0
H469 H 0.03627 0.98561 0.76366 0.0
C470 C 0.44694 0.54925 0.58573 0.0
C471 C 0.49041 0.56288 0.57725 0.0
C472 C 0.4337 0.5653 0.60871 0.0
C473 C 0.46924 0.64537 0.66144 0.0
H474 H 0.45352 0.53939 0.7017 0.0
C475 C 0.50288 0.65437 0.76784 0.0
C476 C 0.53295 0.61974 0.77771 0.0
C477 C 0.48203 0.65089 0.74357 0.0
C478 C 0.45758 0.56942 0.69072 0.0
H479 H 0.55172 0.60681 0.58436 0.0
H480 H 0.52855 0.63552 0.6239 0.0
H481 H 0.44165 0.53235 0.65681 0.0
H482 H 0.56384 0.55389 0.76992 0.0
H483 H 0.52776 0.54787 0.7277 0.0
H484 H 0.48871 0.68161 0.69529 0.0
C485 C 0.50442 0.61263 0.61322 0.0
C486 C 0.45005 0.56557 0.66498 0.0
C487 C 0.51787 0.59613 0.59058 0.0
C488 C 0.54045 0.58093 0.76302 0.0
C489 C 0.51958 0.57743 0.7388 0.0
C490 C 0.47679 0.64922 0.6872 0.0
C491 C 0.46358 0.59555 0.6232 0.0
C492 C 0.45796 0.603 0.65 0.0
C493 C 0.49064 0.61263 0.72866 0.0
C494 C 0.47312 0.61077 0.70204 0.0
H495 H 0.4255 0.52328 0.57574 0.0
H496 H 0.4018 0.55186 0.61584 0.0
H497 H 0.47511 0.67494 0.6504 0.0
H498 H 0.49561 0.68433 0.77883 0.0
H499 H 0.45951 0.67835 0.73641 0.0
C500 C 0.59841 0.52668 0.42494 0.0
C501 C 0.5515 0.5407 0.42795 0.0
C502 C 0.61763 0.53188 0.40206 0.0
C503 C 0.62052 0.50604 0.34731 0.0
H504 H 0.58791 0.60381 0.30181 0.0
C505 C 0.57604 0.47445 0.24333 0.0
C506 C 0.58968 0.50666 0.22636 0.0
C507 C 0.58386 0.48272 0.26879 0.0
C508 C 0.59812 0.57642 0.31428 0.0
H509 H 0.48978 0.5752 0.41069 0.0
H510 H 0.52324 0.58507 0.37124 0.0
H511 H 0.58348 0.61659 0.34614 0.0
H512 H 0.62371 0.57227 0.22296 0.0
H513 H 0.63682 0.5869 0.26745 0.0
H514 H 0.63361 0.46539 0.31539 0.0
C515 C 0.54536 0.56983 0.38617 0.0
C516 C 0.59534 0.58371 0.33968 0.0
C517 C 0.52602 0.564 0.40876 0.0
C518 C 0.61195 0.5471 0.23551 0.0
C519 C 0.61968 0.55542 0.261 0.0
C520 C 0.62322 0.49873 0.3219 0.0
C521 C 0.59044 0.5519 0.38214 0.0
C522 C 0.60476 0.54808 0.35638 0.0
C523 C 0.60548 0.52342 0.27795 0.0
C524 C 0.61033 0.53332 0.30503 0.0
H525 H 0.61864 0.50845 0.43949 0.0
H526 H 0.65266 0.51811 0.39954 0.0
H527 H 0.62769 0.47775 0.35962 0.0
H528 H 0.55823 0.44325 0.23696 0.0
H529 H 0.57158 0.45774 0.28131 0.0
loop_
_geom_bond_atom_site_label_1
_geom_bond_atom_site_label_2
_geom_bond_distance
_geom_bond_site_symmetry_2
_ccdc_geom_bond_type
Zn0 O6 1.920 1_545 S
Zn0 O12 1.898 . S
Zn0 O15 1.905 1_545 S
Zn1 O9 1.905 . S
Zn1 O10 1.898 1_545 S
Zn1 O18 1.920 1_545 S
Zn2 O5 2.080 1_445 S
Zn2 O8 2.114 . S
Zn2 O11 2.120 1_545 S
Zn2 O13 2.120 1_455 S
Zn2 O14 2.114 1_554 S
Zn2 O17 2.080 . S
C3 O8 1.166 . S
C3 O9 1.182 . S
C4 O10 1.167 . S
C4 O11 1.299 . S
O5 Zn2 2.080 1_665 S
O5 C19 1.305 . S
O6 Zn0 1.920 1_565 S
O6 C19 1.234 1_556 S
C7 O12 1.167 . S
C7 O13 1.299 1_556 S
O8 Zn2 2.114 . S
O8 C3 1.166 . S
O9 Zn1 1.905 . S
O9 C3 1.182 . S
O10 Zn1 1.898 1_565 S
O10 C4 1.167 . S
O11 Zn2 2.120 1_565 S
O11 C4 1.299 . S
O12 Zn0 1.898 . S
O12 C7 1.167 . S
O13 Zn2 2.120 1_655 S
O13 C7 1.299 1_554 S
O14 Zn2 2.114 1_556 S
O14 C16 1.166 1_545 S
O15 Zn0 1.905 1_565 S
O15 C16 1.182 1_655 S
C16 O14 1.166 1_565 S
C16 O15 1.182 1_455 S
O17 Zn2 2.080 . S
O17 C20 1.305 1_545 S
O18 Zn1 1.920 1_565 S
O18 C20 1.234 . S
C19 O5 1.305 . S
C19 O6 1.234 1_554 S
C20 O17 1.305 1_565 S
C20 O18 1.234 . S
Zn21 O27 1.920 . S
Zn21 O33 1.898 . S
Zn21 O36 1.905 . S
Zn22 O30 1.905 . S
Zn22 O31 1.898 . S
Zn22 O39 1.920 . S
Zn23 O26 2.080 . S
Zn23 O29 2.114 . S
Zn23 O32 2.120 . S
Zn23 O34 2.120 . S
Zn23 O35 2.114 . S
Zn23 O38 2.080 . S
C24 O29 1.166 . S
C24 O30 1.182 . S
C25 O31 1.167 . S
C25 O32 1.299 . S
O26 Zn23 2.080 . S
O26 C40 1.305 . S
O27 Zn21 1.920 . S
O27 C40 1.234 . S
C28 O33 1.167 . S
C28 O34 1.299 . S
O29 Zn23 2.114 . S
O29 C24 1.166 . S
O30 Zn22 1.905 . S
O30 C24 1.182 . S
O31 Zn22 1.898 . S
O31 C25 1.167 . S
O32 Zn23 2.120 . S
O32 C25 1.299 . S
O33 Zn21 1.898 . S
O33 C28 1.167 . S
O34 Zn23 2.120 . S
O34 C28 1.299 . S
O35 Zn23 2.114 . S
O35 C37 1.166 . S
O36 Zn21 1.905 . S
O36 C37 1.182 . S
C37 O35 1.166 . S
C37 O36 1.182 . S
O38 Zn23 2.080 . S
O38 C41 1.305 . S
O39 Zn22 1.920 . S
O39 C41 1.234 . S
C40 O26 1.305 . S
C40 O27 1.234 . S
C41 O38 1.305 . S
C41 O39 1.234 . S
P42 O53 1.490 . S
P42 C56 1.812 . S
P42 C62 1.803 . S
P42 C68 1.819 . S
H43 C57 0.941 . S
H44 C58 0.939 . S
H45 C60 0.940 . S
H46 C61 0.940 . S
H47 C63 0.939 . S
H48 C64 0.942 . S
H49 C66 0.940 . S
H50 C67 0.939 1_545 S
H51 C69 0.941 . S
H52 C73 0.939 1_565 S
O53 P42 1.490 . S
H54 C70 0.939 . S
H55 C72 0.940 1_565 S
C56 P42 1.812 . S
C56 C57 1.389 . S
C56 C61 1.391 . S
C57 H43 0.941 . S
C57 C56 1.389 . S
C57 C58 1.397 . S
C58 H44 0.939 . S
C58 C57 1.397 . S
C58 C59 1.378 1_455 S
C59 C58 1.378 1_655 S
C59 C60 1.378 . S
C60 H45 0.940 . S
C60 C59 1.378 . S
C60 C61 1.396 1_655 S
C61 H46 0.940 . S
C61 C56 1.391 . S
C61 C60 1.396 1_455 S
C62 P42 1.803 . S
C62 C63 1.378 . S
C62 C67 1.400 1_545 S
C63 H47 0.939 . S
C63 C62 1.378 . S
C63 C64 1.361 1_545 S
C64 H48 0.942 . S
C64 C63 1.361 1_565 S
C64 C65 1.369 . S
C65 C64 1.369 . S
C65 C66 1.404 . S
C66 H49 0.940 . S
C66 C65 1.404 . S
C66 C67 1.389 . S
C67 H50 0.939 1_565 S
C67 C62 1.400 1_565 S
C67 C66 1.389 . S
C68 P42 1.819 . S
C68 C69 1.391 . S
C68 C73 1.391 . S
C69 H51 0.941 . S
C69 C68 1.391 . S
C69 C70 1.396 . S
C70 H54 0.939 . S
C70 C69 1.396 . S
C70 C71 1.397 . S
C71 C70 1.397 . S
C71 C72 1.385 . S
C72 H55 0.940 1_545 S
C72 C71 1.385 . S
C72 C73 1.388 . S
C73 H52 0.939 1_545 S
C73 C68 1.391 . S
C73 C72 1.388 . S
P74 O85 1.490 . S
P74 C88 1.812 1_455 S
P74 C94 1.803 1_565 S
P74 C100 1.815 1_565 S
H75 C89 0.941 1_455 S
H76 C90 0.939 . S
H77 C92 0.940 . S
H78 C93 0.940 1_545 S
H79 C95 0.939 . S
H80 C96 0.942 . S
H81 C98 0.940 . S
H82 C99 0.939 . S
H83 C101 0.941 . S
H84 C105 0.939 . S
O85 P74 1.490 . S
H86 C102 0.939 . S
H87 C104 0.940 . S
C88 P74 1.812 1_655 S
C88 C89 1.389 . S
C88 C93 1.391 . S
C89 H75 0.941 1_655 S
C89 C88 1.389 . S
C89 C90 1.397 . S
C90 H76 0.939 . S
C90 C89 1.397 . S
C90 C91 1.378 . S
C91 C90 1.378 . S
C91 C92 1.378 . S
C92 H77 0.940 . S
C92 C91 1.378 . S
C92 C93 1.396 . S
C93 H78 0.940 1_565 S
C93 C88 1.391 . S
C93 C92 1.396 . S
C94 P74 1.803 1_545 S
C94 C95 1.378 . S
C94 C99 1.400 . S
C95 H79 0.939 . S
C95 C94 1.378 . S
C95 C96 1.361 . S
C96 H80 0.942 . S
C96 C95 1.361 . S
C96 C97 1.369 . S
C97 C96 1.369 . S
C97 C98 1.404 . S
C98 H81 0.940 . S
C98 C97 1.404 . S
C98 C99 1.389 . S
C99 H82 0.939 . S
C99 C94 1.400 . S
C99 C98 1.389 . S
C100 P74 1.815 1_545 S
C100 C101 1.381 1_545 S
C100 C105 1.405 . S
C101 H83 0.941 . S
C101 C100 1.381 1_565 S
C101 C102 1.396 . S
C102 H86 0.939 . S
C102 C101 1.396 . S
C102 C103 1.397 1_565 S
C103 C102 1.397 1_545 S
C103 C104 1.385 . S
C104 H87 0.940 . S
C104 C103 1.385 . S
C104 C105 1.388 . S
C105 H84 0.939 . S
C105 C100 1.405 . S
C105 C104 1.388 . S
P106 O117 1.490 . S
P106 C120 1.812 . S
P106 C126 1.803 . S
P106 C132 1.819 . S
H107 C121 0.941 . S
H108 C122 0.939 . S
H109 C124 0.940 . S
H110 C125 0.940 . S
H111 C127 0.939 . S
H112 C128 0.942 . S
H113 C130 0.940 . S
H114 C131 0.939 . S
H115 C133 0.941 . S
H116 C137 0.939 . S
O117 P106 1.490 . S
H118 C134 0.939 . S
H119 C136 0.940 . S
C120 P106 1.812 . S
C120 C121 1.389 . S
C120 C125 1.391 . S
C121 H107 0.941 . S
C121 C120 1.389 . S
C121 C122 1.397 . S
C122 H108 0.939 . S
C122 C121 1.397 . S
C122 C123 1.378 . S
C123 C122 1.378 . S
C123 C124 1.378 . S
C124 H109 0.940 . S
C124 C123 1.378 . S
C124 C125 1.396 . S
C125 H110 0.940 . S
C125 C120 1.391 . S
C125 C124 1.396 . S
C126 P106 1.803 . S
C126 C127 1.378 . S
C126 C131 1.400 . S
C127 H111 0.939 . S
C127 C126 1.378 . S
C127 C128 1.361 . S
C128 H112 0.942 . S
C128 C127 1.361 . S
C128 C129 1.369 . S
C129 C128 1.369 . S
C129 C130 1.404 . S
C130 H113 0.940 . S
C130 C129 1.404 . S
C130 C131 1.389 . S
C131 H114 0.939 . S
C131 C126 1.400 . S
C131 C130 1.389 . S
C132 P106 1.819 . S
C132 C133 1.391 . S
C132 C137 1.391 . S
C133 H115 0.941 . S
C133 C132 1.391 . S
C133 C134 1.396 . S
C134 H118 0.939 . S
C134 C133 1.396 . S
C134 C135 1.397 . S
C135 C134 1.397 . S
C135 C136 1.385 . S
C136 H119 0.940 . S
C136 C135 1.385 . S
C136 C137 1.388 . S
C137 H116 0.939 . S
C137 C132 1.391 . S
C137 C136 1.388 . S
P138 O149 1.490 . S
P138 C152 1.812 . S
P138 C158 1.803 . S
P138 C164 1.819 . S
H139 C153 0.941 . S
H140 C154 0.939 . S
H141 C156 0.940 . S
H142 C157 0.940 . S
H143 C159 0.939 . S
H144 C160 0.942 . S
H145 C162 0.940 . S
H146 C163 0.939 . S
H147 C165 0.941 . S
H148 C169 0.939 . S
O149 P138 1.490 . S
H150 C166 0.939 . S
H151 C168 0.940 . S
C152 P138 1.812 . S
C152 C153 1.389 . S
C152 C157 1.391 . S
C153 H139 0.941 . S
C153 C152 1.389 . S
C153 C154 1.397 . S
C154 H140 0.939 . S
C154 C153 1.397 . S
C154 C155 1.378 . S
C155 C154 1.378 . S
C155 C156 1.378 . S
C156 H141 0.940 . S
C156 C155 1.378 . S
C156 C157 1.396 . S
C157 H142 0.940 . S
C157 C152 1.391 . S
C157 C156 1.396 . S
C158 P138 1.803 . S
C158 C159 1.378 . S
C158 C163 1.400 . S
C159 H143 0.939 . S
C159 C158 1.378 . S
C159 C160 1.361 . S
C160 H144 0.942 . S
C160 C159 1.361 . S
C160 C161 1.369 . S
C161 C160 1.369 . S
C161 C162 1.404 . S
C162 H145 0.940 . S
C162 C161 1.404 . S
C162 C163 1.389 . S
C163 H146 0.939 . S
C163 C158 1.400 . S
C163 C162 1.389 . S
C164 P138 1.819 . S
C164 C165 1.391 . S
C164 C169 1.391 . S
C165 H147 0.941 . S
C165 C164 1.391 . S
C165 C166 1.396 . S
C166 H150 0.939 . S
C166 C165 1.396 . S
C166 C167 1.397 . S
C167 C166 1.397 . S
C167 C168 1.385 . S
C168 H151 0.940 . S
C168 C167 1.385 . S
C168 C169 1.388 . S
C169 H148 0.939 . S
C169 C164 1.391 . S
C169 C168 1.388 . S
C170 C171 1.349 . S
C170 C172 1.327 . S
C170 H195 0.950 . S
C171 C170 1.349 . S
C171 C187 1.349 . S
C172 C170 1.327 . S
C172 C191 1.429 . S
C172 H196 0.950 . S
C173 C190 1.574 . S
C173 C192 1.368 . S
C173 H197 0.949 . S
H174 C178 0.949 . S
C175 C176 1.349 . S
C175 C177 1.327 . S
C175 H198 0.950 . S
C176 C175 1.349 . S
C176 C188 1.349 . S
C177 C175 1.327 . S
C177 C193 1.429 . S
C177 H199 0.950 . S
C178 H174 0.949 . S
C178 C186 1.574 . S
C178 C194 1.368 . S
H179 C187 0.950 1_556 S
H180 C185 0.950 . S
H181 C186 0.949 . S
H182 C188 0.950 . S
H183 C189 0.950 . S
H184 C190 0.949 . S
C185 H180 0.950 . S
C185 C187 1.327 . S
C185 C191 1.429 . S
C186 C178 1.574 . S
C186 H181 0.949 . S
C186 C192 1.368 . S
C187 C171 1.349 . S
C187 H179 0.950 1_554 S
C187 C185 1.327 . S
C188 C176 1.349 . S
C188 H182 0.950 . S
C188 C189 1.327 . S
C189 H183 0.950 . S
C189 C188 1.327 . S
C189 C193 1.429 . S
C190 C173 1.574 . S
C190 H184 0.949 . S
C190 C194 1.368 . S
C191 C172 1.429 . S
C191 C185 1.429 . S
C191 C192 1.523 . S
C192 C173 1.368 . S
C192 C186 1.368 . S
C192 C191 1.523 . S
C193 C177 1.429 . S
C193 C189 1.429 . S
C193 C194 1.523 . S
C194 C178 1.368 . S
C194 C190 1.368 . S
C194 C193 1.523 . S
H195 C170 0.950 . S
H196 C172 0.950 . S
H197 C173 0.949 . S
H198 C175 0.950 . S
H199 C177 0.950 . S
C200 C201 1.349 . S
C200 C202 1.327 . S
C200 H225 0.950 . S
C201 C200 1.349 . S
C201 C217 1.349 . S
C202 C200 1.327 . S
C202 C221 1.429 . S
C202 H226 0.950 . S
C203 C220 1.574 . S
C203 C222 1.368 . S
C203 H227 0.949 . S
H204 C208 0.949 . S
C205 C206 1.349 . S
C205 C207 1.327 . S
C205 H228 0.950 . S
C206 C205 1.349 . S
C206 C218 1.349 . S
C207 C205 1.327 . S
C207 C223 1.429 . S
C207 H229 0.950 . S
C208 H204 0.949 . S
C208 C216 1.574 . S
C208 C224 1.368 . S
H209 C217 0.950 . S
H210 C215 0.950 . S
H211 C216 0.949 . S
H212 C218 0.950 . S
H213 C219 0.950 . S
H214 C220 0.949 . S
C215 H210 0.950 . S
C215 C217 1.327 . S
C215 C221 1.429 . S
C216 C208 1.574 . S
C216 H211 0.949 . S
C216 C222 1.368 . S
C217 C201 1.349 . S
C217 H209 0.950 . S
C217 C215 1.327 . S
C218 C206 1.349 . S
C218 H212 0.950 . S
C218 C219 1.327 . S
C219 H213 0.950 . S
C219 C218 1.327 . S
C219 C223 1.429 . S
C220 C203 1.574 . S
C220 H214 0.949 . S
C220 C224 1.368 . S
C221 C202 1.429 . S
C221 C215 1.429 . S
C221 C222 1.523 . S
C222 C203 1.368 . S
C222 C216 1.368 . S
C222 C221 1.523 . S
C223 C207 1.429 . S
C223 C219 1.429 . S
C223 C224 1.523 . S
C224 C208 1.368 . S
C224 C220 1.368 . S
C224 C223 1.523 . S
H225 C200 0.950 . S
H226 C202 0.950 . S
H227 C203 0.949 . S
H228 C205 0.950 . S
H229 C207 0.950 . S
C230 C231 1.349 . S
C230 C232 1.327 . S
C230 H255 0.950 . S
C231 C230 1.349 . S
C231 C247 1.349 . S
C232 C230 1.327 . S
C232 C251 1.429 . S
C232 H256 0.950 . S
C233 C250 1.574 . S
C233 C252 1.368 . S
C233 H257 0.949 . S
H234 C238 0.949 . S
C235 C236 1.349 . S
C235 C237 1.327 . S
C235 H258 0.950 . S
C236 C235 1.349 . S
C236 C248 1.349 . S
C237 C235 1.327 . S
C237 C253 1.429 . S
C237 H259 0.950 . S
C238 H234 0.949 . S
C238 C246 1.574 . S
C238 C254 1.368 . S
H239 C247 0.950 1_556 S
H240 C245 0.950 . S
H241 C246 0.949 . S
H242 C248 0.950 . S
H243 C249 0.950 . S
H244 C250 0.949 . S
C245 H240 0.950 . S
C245 C247 1.327 . S
C245 C251 1.429 . S
C246 C238 1.574 . S
C246 H241 0.949 . S
C246 C252 1.368 . S
C247 C231 1.349 . S
C247 H239 0.950 1_554 S
C247 C245 1.327 . S
C248 C236 1.349 . S
C248 H242 0.950 . S
C248 C249 1.327 . S
C249 H243 0.950 . S
C249 C248 1.327 . S
C249 C253 1.429 . S
C250 C233 1.574 . S
C250 H244 0.949 . S
C250 C254 1.368 . S
C251 C232 1.429 . S
C251 C245 1.429 . S
C251 C252 1.523 . S
C252 C233 1.368 . S
C252 C246 1.368 . S
C252 C251 1.523 . S
C253 C237 1.429 . S
C253 C249 1.429 . S
C253 C254 1.523 . S
C254 C238 1.368 . S
C254 C250 1.368 . S
C254 C253 1.523 . S
H255 C230 0.950 . S
H256 C232 0.950 . S
H257 C233 0.949 . S
H258 C235 0.950 . S
H259 C237 0.950 . S
C260 C261 1.349 1_554 S
C260 C262 1.327 . S
C260 H285 0.950 . S
C261 C260 1.349 1_556 S
C261 C277 1.349 . S
C262 C260 1.327 . S
C262 C281 1.429 1_554 S
C262 H286 0.950 . S
C263 C280 1.574 . S
C263 C282 1.368 . S
C263 H287 0.949 . S
H264 C268 0.949 1_554 S
C265 C266 1.349 . S
C265 C267 1.327 . S
C265 H288 0.950 . S
C266 C265 1.349 . S
C266 C278 1.349 . S
C267 C265 1.327 . S
C267 C283 1.429 . S
C267 H289 0.950 . S
C268 H264 0.949 1_556 S
C268 C276 1.574 . S
C268 C284 1.368 . S
H269 C277 0.950 . S
H270 C275 0.950 . S
H271 C276 0.949 1_554 S
H272 C278 0.950 . S
H273 C279 0.950 . S
H274 C280 0.949 . S
C275 H270 0.950 . S
C275 C277 1.327 . S
C275 C281 1.429 . S
C276 C268 1.574 . S
C276 H271 0.949 1_556 S
C276 C282 1.368 . S
C277 C261 1.349 . S
C277 H269 0.950 . S
C277 C275 1.327 . S
C278 C266 1.349 . S
C278 H272 0.950 . S
C278 C279 1.327 . S
C279 H273 0.950 . S
C279 C278 1.327 . S
C279 C283 1.429 . S
C280 C263 1.574 . S
C280 H274 0.949 . S
C280 C284 1.368 . S
C281 C262 1.429 1_556 S
C281 C275 1.429 . S
C281 C282 1.523 . S
C282 C263 1.368 . S
C282 C276 1.368 . S
C282 C281 1.523 . S
C283 C267 1.429 . S
C283 C279 1.429 . S
C283 C284 1.523 . S
C284 C268 1.368 . S
C284 C280 1.368 . S
C284 C283 1.523 . S
H285 C260 0.950 . S
H286 C262 0.950 . S
H287 C263 0.949 . S
H288 C265 0.950 . S
H289 C267 0.950 . S
C290 C291 1.349 . S
C290 C292 1.327 . S
C290 H315 0.950 . S
C291 C290 1.349 . S
C291 C307 1.349 . S
C292 C290 1.327 . S
C292 C311 1.429 . S
C292 H316 0.950 . S
C293 C310 1.574 . S
C293 C312 1.368 . S
C293 H317 0.949 . S
H294 C298 0.949 . S
C295 C296 1.349 . S
C295 C297 1.327 . S
C295 H318 0.950 . S
C296 C295 1.349 . S
C296 C308 1.349 . S
C297 C295 1.327 . S
C297 C313 1.429 . S
C297 H319 0.950 . S
C298 H294 0.949 . S
C298 C306 1.574 . S
C298 C314 1.368 . S
H299 C307 0.950 . S
H300 C305 0.950 . S
H301 C306 0.949 . S
H302 C308 0.950 . S
H303 C309 0.950 . S
H304 C310 0.949 . S
C305 H300 0.950 . S
C305 C307 1.327 . S
C305 C311 1.429 . S
C306 C298 1.574 . S
C306 H301 0.949 . S
C306 C312 1.368 . S
C307 C291 1.349 . S
C307 H299 0.950 . S
C307 C305 1.327 . S
C308 C296 1.349 . S
C308 H302 0.950 . S
C308 C309 1.327 . S
C309 H303 0.950 . S
C309 C308 1.327 . S
C309 C313 1.429 . S
C310 C293 1.574 . S
C310 H304 0.949 . S
C310 C314 1.368 . S
C311 C292 1.429 . S
C311 C305 1.429 . S
C311 C312 1.523 . S
C312 C293 1.368 . S
C312 C306 1.368 . S
C312 C311 1.523 . S
C313 C297 1.429 . S
C313 C309 1.429 . S
C313 C314 1.523 . S
C314 C298 1.368 . S
C314 C310 1.368 . S
C314 C313 1.523 . S
H315 C290 0.950 . S
H316 C292 0.950 . S
H317 C293 0.949 . S
H318 C295 0.950 . S
H319 C297 0.950 . S
C320 C321 1.349 . S
C320 C322 1.327 . S
C320 H345 0.950 . S
C321 C320 1.349 . S
C321 C337 1.349 . S
C322 C320 1.327 . S
C322 C341 1.429 . S
C322 H346 0.950 . S
C323 C340 1.574 . S
C323 C342 1.368 . S
C323 H347 0.949 . S
H324 C328 0.949 . S
C325 C326 1.349 . S
C325 C327 1.327 . S
C325 H348 0.950 . S
C326 C325 1.349 . S
C326 C338 1.349 . S
C327 C325 1.327 . S
C327 C343 1.429 . S
C327 H349 0.950 . S
C328 H324 0.949 . S
C328 C336 1.574 . S
C328 C344 1.368 . S
H329 C337 0.950 . S
H330 C335 0.950 . S
H331 C336 0.949 . S
H332 C338 0.950 . S
H333 C339 0.950 . S
H334 C340 0.949 . S
C335 H330 0.950 . S
C335 C337 1.327 . S
C335 C341 1.429 . S
C336 C328 1.574 . S
C336 H331 0.949 . S
C336 C342 1.368 . S
C337 C321 1.349 . S
C337 H329 0.950 . S
C337 C335 1.327 . S
C338 C326 1.349 . S
C338 H332 0.950 . S
C338 C339 1.327 . S
C339 H333 0.950 . S
C339 C338 1.327 . S
C339 C343 1.429 . S
C340 C323 1.574 . S
C340 H334 0.949 . S
C340 C344 1.368 . S
C341 C322 1.429 . S
C341 C335 1.429 . S
C341 C342 1.523 . S
C342 C323 1.368 . S
C342 C336 1.368 . S
C342 C341 1.523 . S
C343 C327 1.429 . S
C343 C339 1.429 . S
C343 C344 1.523 . S
C344 C328 1.368 . S
C344 C340 1.368 . S
C344 C343 1.523 . S
H345 C320 0.950 . S
H346 C322 0.950 . S
H347 C323 0.949 . S
H348 C325 0.950 . S
H349 C327 0.950 . S
C350 C351 1.349 . S
C350 C352 1.327 . S
C350 H375 0.950 . S
C351 C350 1.349 . S
C351 C367 1.349 . S
C352 C350 1.327 . S
C352 C371 1.429 . S
C352 H376 0.950 . S
C353 C370 1.574 . S
C353 C372 1.368 . S
C353 H377 0.949 . S
H354 C358 0.949 . S
C355 C356 1.349 . S
C355 C357 1.327 . S
C355 H378 0.950 . S
C356 C355 1.349 . S
C356 C368 1.349 . S
C357 C355 1.327 . S
C357 C373 1.429 . S
C357 H379 0.950 . S
C358 H354 0.949 . S
C358 C366 1.574 . S
C358 C374 1.368 . S
H359 C367 0.950 . S
H360 C365 0.950 . S
H361 C366 0.949 . S
H362 C368 0.950 . S
H363 C369 0.950 . S
H364 C370 0.949 . S
C365 H360 0.950 . S
C365 C367 1.327 . S
C365 C371 1.429 . S
C366 C358 1.574 . S
C366 H361 0.949 . S
C366 C372 1.368 . S
C367 C351 1.349 . S
C367 H359 0.950 . S
C367 C365 1.327 . S
C368 C356 1.349 . S
C368 H362 0.950 . S
C368 C369 1.327 . S
C369 H363 0.950 . S
C369 C368 1.327 . S
C369 C373 1.429 . S
C370 C353 1.574 . S
C370 H364 0.949 . S
C370 C374 1.368 . S
C371 C352 1.429 . S
C371 C365 1.429 . S
C371 C372 1.523 . S
C372 C353 1.368 . S
C372 C366 1.368 . S
C372 C371 1.523 . S
C373 C357 1.429 . S
C373 C369 1.429 . S
C373 C374 1.523 . S
C374 C358 1.368 . S
C374 C370 1.368 . S
C374 C373 1.523 . S
H375 C350 0.950 . S
H376 C352 0.950 . S
H377 C353 0.949 . S
H378 C355 0.950 . S
H379 C357 0.950 . S
C380 C381 1.349 . S
C380 C382 1.327 . S
C380 H405 0.950 . S
C381 C380 1.349 . S
C381 C397 1.349 . S
C382 C380 1.327 . S
C382 C401 1.429 . S
C382 H406 0.950 . S
C383 C400 1.574 . S
C383 C402 1.368 . S
C383 H407 0.949 . S
H384 C388 0.949 . S
C385 C386 1.349 . S
C385 C387 1.327 . S
C385 H408 0.950 . S
C386 C385 1.349 . S
C386 C398 1.349 . S
C387 C385 1.327 . S
C387 C403 1.429 . S
C387 H409 0.950 . S
C388 H384 0.949 . S
C388 C396 1.574 . S
C388 C404 1.368 . S
H389 C397 0.950 . S
H390 C395 0.950 . S
H391 C396 0.949 . S
H392 C398 0.950 . S
H393 C399 0.950 . S
H394 C400 0.949 . S
C395 H390 0.950 . S
C395 C397 1.327 . S
C395 C401 1.429 . S
C396 C388 1.574 . S
C396 H391 0.949 . S
C396 C402 1.368 . S
C397 C381 1.349 . S
C397 H389 0.950 . S
C397 C395 1.327 . S
C398 C386 1.349 . S
C398 H392 0.950 . S
C398 C399 1.327 . S
C399 H393 0.950 . S
C399 C398 1.327 . S
C399 C403 1.429 . S
C400 C383 1.574 . S
C400 H394 0.949 . S
C400 C404 1.368 . S
C401 C382 1.429 . S
C401 C395 1.429 . S
C401 C402 1.523 . S
C402 C383 1.368 . S
C402 C396 1.368 . S
C402 C401 1.523 . S
C403 C387 1.429 . S
C403 C399 1.429 . S
C403 C404 1.523 . S
C404 C388 1.368 . S
C404 C400 1.368 . S
C404 C403 1.523 . S
H405 C380 0.950 . S
H406 C382 0.950 . S
H407 C383 0.949 . S
H408 C385 0.950 . S
H409 C387 0.950 . S
C410 C411 1.349 1_545 S
C410 C412 1.327 . S
C410 H435 0.950 . S
C411 C410 1.349 1_565 S
C411 C427 1.349 . S
C412 C410 1.327 . S
C412 C431 1.438 . S
C412 H436 0.950 . S
C413 C430 1.574 . S
C413 C432 1.368 1_565 S
C413 H437 0.949 . S
H414 C418 0.949 . S
C415 C416 1.330 1_565 S
C415 C417 1.330 . S
C415 H438 0.966 . S
C416 C415 1.330 1_545 S
C416 C428 1.349 . S
C417 C415 1.330 . S
C417 C433 1.429 1_565 S
C417 H439 0.950 . S
C418 H414 0.949 . S
C418 C426 1.574 . S
C418 C434 1.368 . S
H419 C427 0.950 . S
H420 C425 0.950 . S
H421 C426 0.949 . S
H422 C428 0.950 . S
H423 C429 0.950 . S
H424 C430 0.949 . S
C425 H420 0.950 . S
C425 C427 1.327 . S
C425 C431 1.417 1_565 S
C426 C418 1.574 . S
C426 H421 0.949 . S
C426 C432 1.368 . S
C427 C411 1.349 . S
C427 H419 0.950 . S
C427 C425 1.327 . S
C428 C416 1.349 . S
C428 H422 0.950 . S
C428 C429 1.327 . S
C429 H423 0.950 . S
C429 C428 1.327 . S
C429 C433 1.429 . S
C430 C413 1.574 . S
C430 H424 0.949 . S
C430 C434 1.368 1_565 S
C431 C412 1.438 . S
C431 C425 1.417 1_545 S
C431 C432 1.524 . S
C432 C413 1.368 1_545 S
C432 C426 1.368 . S
C432 C431 1.524 . S
C433 C417 1.429 1_545 S
C433 C429 1.429 . S
C433 C434 1.523 . S
C434 C418 1.368 . S
C434 C430 1.368 1_545 S
C434 C433 1.523 . S
H435 C410 0.950 . S
H436 C412 0.950 . S
H437 C413 0.949 . S
H438 C415 0.966 . S
H439 C417 0.950 . S
C440 C441 1.349 1_545 S
C440 C442 1.327 . S
C440 H465 0.950 . S
C441 C440 1.349 1_565 S
C441 C457 1.349 . S
C442 C440 1.327 . S
C442 C461 1.429 1_545 S
C442 H466 0.950 . S
C443 C460 1.574 . S
C443 C462 1.368 1_665 S
C443 H467 0.949 . S
H444 C448 0.949 . S
C445 C446 1.349 1_665 S
C445 C447 1.327 . S
C445 H468 0.950 . S
C446 C445 1.349 1_445 S
C446 C458 1.349 . S
C447 C445 1.327 . S
C447 C463 1.429 1_665 S
C447 H469 0.950 . S
C448 H444 0.949 . S
C448 C456 1.574 . S
C448 C464 1.368 . S
H449 C457 0.950 1_655 S
H450 C455 0.954 . S
H451 C456 0.949 . S
H452 C458 0.950 . S
H453 C459 0.950 . S
H454 C460 0.949 . S
C455 H450 0.954 . S
C455 C457 1.327 1_655 S
C455 C461 1.424 1_655 S
C456 C448 1.574 . S
C456 H451 0.949 . S
C456 C462 1.368 . S
C457 C441 1.349 . S
C457 H449 0.950 1_455 S
C457 C455 1.327 1_455 S
C458 C446 1.349 . S
C458 H452 0.950 . S
C458 C459 1.327 . S
C459 H453 0.950 . S
C459 C458 1.327 . S
C459 C463 1.429 . S
C460 C443 1.574 . S
C460 H454 0.949 . S
C460 C464 1.368 1_665 S
C461 C442 1.429 1_565 S
C461 C455 1.424 1_455 S
C461 C462 1.523 1_565 S
C462 C443 1.368 1_445 S
C462 C456 1.368 . S
C462 C461 1.523 1_545 S
C463 C447 1.429 1_445 S
C463 C459 1.429 . S
C463 C464 1.523 . S
C464 C448 1.368 . S
C464 C460 1.368 1_445 S
C464 C463 1.523 . S
H465 C440 0.950 . S
H466 C442 0.950 . S
H467 C443 0.949 . S
H468 C445 0.950 . S
H469 C447 0.950 . S
C470 C471 1.349 . S
C470 C472 1.327 . S
C470 H495 0.950 . S
C471 C470 1.349 . S
C471 C487 1.349 . S
C472 C470 1.327 . S
C472 C491 1.429 . S
C472 H496 0.950 . S
C473 C490 1.574 . S
C473 C492 1.368 . S
C473 H497 0.949 . S
H474 C478 0.949 . S
C475 C476 1.349 . S
C475 C477 1.327 . S
C475 H498 0.950 . S
C476 C475 1.349 . S
C476 C488 1.349 . S
C477 C475 1.327 . S
C477 C493 1.429 . S
C477 H499 0.950 . S
C478 H474 0.949 . S
C478 C486 1.574 . S
C478 C494 1.368 . S
H479 C487 0.950 . S
H480 C485 0.950 . S
H481 C486 0.949 . S
H482 C488 0.950 . S
H483 C489 0.950 . S
H484 C490 0.949 . S
C485 H480 0.950 . S
C485 C487 1.327 . S
C485 C491 1.429 . S
C486 C478 1.574 . S
C486 H481 0.949 . S
C486 C492 1.368 . S
C487 C471 1.349 . S
C487 H479 0.950 . S
C487 C485 1.327 . S
C488 C476 1.349 . S
C488 H482 0.950 . S
C488 C489 1.327 . S
C489 H483 0.950 . S
C489 C488 1.327 . S
C489 C493 1.429 . S
C490 C473 1.574 . S
C490 H484 0.949 . S
C490 C494 1.368 . S
C491 C472 1.429 . S
C491 C485 1.429 . S
C491 C492 1.523 . S
C492 C473 1.368 . S
C492 C486 1.368 . S
C492 C491 1.523 . S
C493 C477 1.429 . S
C493 C489 1.429 . S
C493 C494 1.523 . S
C494 C478 1.368 . S
C494 C490 1.368 . S
C494 C493 1.523 . S
H495 C470 0.950 . S
H496 C472 0.950 . S
H497 C473 0.949 . S
H498 C475 0.950 . S
H499 C477 0.950 . S
C500 C501 1.349 . S
C500 C502 1.327 . S
C500 H525 0.950 . S
C501 C500 1.349 . S
C501 C517 1.349 . S
C502 C500 1.327 . S
C502 C521 1.429 . S
C502 H526 0.950 . S
C503 C520 1.574 . S
C503 C522 1.368 . S
C503 H527 0.949 . S
H504 C508 0.949 . S
C505 C506 1.349 . S
C505 C507 1.327 . S
C505 H528 0.950 . S
C506 C505 1.349 . S
C506 C518 1.349 . S
C507 C505 1.327 . S
C507 C523 1.429 . S
C507 H529 0.950 . S
C508 H504 0.949 . S
C508 C516 1.574 . S
C508 C524 1.368 . S
H509 C517 0.950 . S
H510 C515 0.950 . S
H511 C516 0.949 . S
H512 C518 0.950 . S
H513 C519 0.950 . S
H514 C520 0.949 . S
C515 H510 0.950 . S
C515 C517 1.327 . S
C515 C521 1.429 . S
C516 C508 1.574 . S
C516 H511 0.949 . S
C516 C522 1.368 . S
C517 C501 1.349 . S
C517 H509 0.950 . S
C517 C515 1.327 . S
C518 C506 1.349 . S
C518 H512 0.950 . S
C518 C519 1.327 . S
C519 H513 0.950 . S
C519 C518 1.327 . S
C519 C523 1.429 . S
C520 C503 1.574 . S
C520 H514 0.949 . S
C520 C524 1.368 . S
C521 C502 1.429 . S
C521 C515 1.429 . S
C521 C522 1.523 . S
C522 C503 1.368 . S
C522 C516 1.368 . S
C522 C521 1.523 . S
C523 C507 1.429 . S
C523 C519 1.429 . S
C523 C524 1.523 . S
C524 C508 1.368 . S
C524 C520 1.368 . S
C524 C523 1.523 . S
H525 C500 0.950 . S
H526 C502 0.950 . S
H527 C503 0.949 . S
H528 C505 0.950 . S
H529 C507 0.950 . S
C176 C155 1.135 . S
C171 C3 1.042 . S
C201 C4 1.495 1_556 S
C206 C123 1.588 . S
C231 C19 1.519 . S
C236 C161 1.582 . S
C261 C7 1.041 . S
C266 C129 1.145 . S
C291 C37 1.042 . S
C296 C91 1.135 . S
C321 C28 1.495 . S
C326 C59 1.588 . S
C356 C97 1.582 . S
C351 C41 1.519 . S
C386 C65 1.145 . S
C381 C25 1.041 . S
C411 C20 1.280 . S
C416 C71 1.416 . S
C441 C16 1.332 . S
C446 C103 1.439 . S
C476 C135 1.416 . S
C471 C40 1.280 . S
C501 C24 1.332 . S
C506 C167 1.439 . S
