# Generated by pormake.
# Topology anh, (6,3)-cn, num edge types: 1
# Building blocks:
#     Node 0, Type 0, BuildingBlock: PAMTOO_clean_sbu_0, # of connection points: 6
#     Node 1, Type 0, BuildingBlock: PAMTOO_clean_sbu_0, # of connection points: 6
#     Node 2, Type 0, BuildingBlock: PAMTOO_clean_sbu_0, # of connection points: 6
#     Node 3, Type 1, BuildingBlock: KAKCAD_clean_linker_0, # of connection points: 3
#     Node 4, Type 1, BuildingBlock: KAKCAD_clean_linker_0, # of connection points: 3
#     Node 5, Type 1, BuildingBlock: KAKCAD_clean_linker_0, # of connection points: 3
#     Node 6, Type 1, BuildingBlock: KAKCAD_clean_linker_0, # of connection points: 3
#     Node 7, Type 1, BuildingBlock: KAKCAD_clean_linker_0, # of connection points: 3
#     Node 8, Type 1, BuildingBlock: KAKCAD_clean_linker_0, # of connection points: 3
#     Edge 9, Type (0, 1), BuildingBlock: XUDNAN_clean_linker_2, # of connection points: 2
#     Edge 10, Type (0, 1), BuildingBlock: XUDNAN_clean_linker_2, # of connection points: 2
#     Edge 11, Type (0, 1), BuildingBlock: XUDNAN_clean_linker_2, # of connection points: 2
#     Edge 12, Type (0, 1), BuildingBlock: XUDNAN_clean_linker_2, # of connection points: 2
#     Edge 13, Type (0, 1), BuildingBlock: XUDNAN_clean_linker_2, # of connection points: 2
#     Edge 14, Type (0, 1), BuildingBlock: XUDNAN_clean_linker_2, # of connection points: 2
#     Edge 15, Type (0, 1), BuildingBlock: XUDNAN_clean_linker_2, # of connection points: 2
#     Edge 16, Type (0, 1), BuildingBlock: XUDNAN_clean_linker_2, # of connection points: 2
#     Edge 17, Type (0, 1), BuildingBlock: XUDNAN_clean_linker_2, # of connection points: 2
#     Edge 18, Type (0, 1), BuildingBlock: XUDNAN_clean_linker_2, # of connection points: 2
#     Edge 19, Type (0, 1), BuildingBlock: XUDNAN_clean_linker_2, # of connection points: 2
#     Edge 20, Type (0, 1), BuildingBlock: XUDNAN_clean_linker_2, # of connection points: 2
#     Edge 21, Type (0, 1), BuildingBlock: XUDNAN_clean_linker_2, # of connection points: 2
#     Edge 22, Type (0, 1), BuildingBlock: XUDNAN_clean_linker_2, # of connection points: 2
#     Edge 23, Type (0, 1), BuildingBlock: XUDNAN_clean_linker_2, # of connection points: 2
#     Edge 24, Type (0, 1), BuildingBlock: XUDNAN_clean_linker_2, # of connection points: 2
#     Edge 25, Type (0, 1), BuildingBlock: XUDNAN_clean_linker_2, # of connection points: 2
#     Edge 26, Type (0, 1), BuildingBlock: XUDNAN_clean_linker_2, # of connection points: 2
# Relax obj value: 0.179
# Max RMSD: 0.195
# Mean RMSD: 0.155
data_MOF--net-anh--node1-PAMTOO_clean_sbu_0--node2-KAKCAD_clean_linker_0--edge1-XUDNAN_clean_linker_2
_symmetry_space_group_name_H-M    P1
_symmetry_Int_Tables_number       1
_symmetry_cell_setting            triclinic
loop_
_symmetry_equiv_pos_as_xyz
'x, y, z'
_cell_length_a     36.029581
_cell_length_b     35.260691
_cell_length_c     66.98501
_cell_angle_alpha  90.711956
_cell_angle_beta   94.293396
_cell_angle_gamma 104.86779
loop_
_atom_site_label
_atom_site_type_symbol
_atom_site_fract_x
_atom_site_fract_y
_atom_site_fract_z
_atom_type_partial_charge
Dy0 Dy 0.07817 0.58616 0.15044 0.0
Dy1 Dy 1.05092 0.49004 0.14231 0.0
C2 C 1.06509 0.54821 0.10664 0.0
O3 O 1.01503 0.57085 0.15444 0.0
O4 O 0.99575 0.50969 0.13869 0.0
O5 O 0.09521 0.64404 0.13863 0.0
O6 O 0.09217 0.63744 0.17057 0.0
O7 O 1.03927 0.50275 0.17342 0.0
O8 O 0.08829 0.55794 0.17935 0.0
O9 O 0.11583 0.50357 0.14897 0.0
O10 O 0.13202 0.57005 0.14379 0.0
O11 O 1.05023 0.4318 0.15209 0.0
O12 O 1.0197 0.4395 0.12389 0.0
C13 C 0.98773 0.54084 0.14664 0.0
O14 O 1.05613 0.57407 0.11833 0.0
O15 O 0.07221 0.51625 0.11392 0.0
C16 C 0.14109 0.68993 0.15975 0.0
C17 C 0.21251 0.74675 0.16532 0.0
C18 C 0.20802 0.71391 0.15237 0.0
C19 C 0.17271 0.68566 0.14969 0.0
C20 C 0.14566 0.72229 0.17294 0.0
C21 C 0.1811 0.75039 0.17577 0.0
C22 C 0.1031 0.66151 0.15626 0.0
C23 C 1.06313 0.52788 0.18593 0.0
C24 C 0.14184 0.53696 0.14663 0.0
C25 C 0.99111 0.38559 0.14285 0.0
C26 C 0.92349 0.33022 0.15233 0.0
C27 C 0.93598 0.36663 0.16283 0.0
C28 C 0.9694 0.39417 0.15806 0.0
C29 C 0.97895 0.34926 0.13247 0.0
C30 C 0.94542 0.32182 0.13713 0.0
C31 C 1.02569 0.41473 0.1373 0.0
H32 H 0.23187 0.71002 0.14435 0.0
H33 H 0.17003 0.66072 0.13957 0.0
H34 H 0.12164 0.72608 0.18086 0.0
H35 H 0.18365 0.77549 0.18576 0.0
H36 H 0.91949 0.37414 0.17444 0.0
H37 H 0.97813 0.42229 0.16612 0.0
H38 H 0.99527 0.34218 0.12065 0.0
H39 H 0.93677 0.2939 0.12891 0.0
Dy40 Dy 0.57606 0.01721 0.52466 0.0
Dy41 Dy 0.66836 0.05251 0.5203 0.0
C42 C 0.63542 0.0374 0.56239 0.0
O43 O 0.58286 0.07979 0.51672 0.0
O44 O 0.64657 0.10464 0.52736 0.0
O45 O 0.53016 0.98902 0.54264 0.0
O46 O 0.51695 0.00739 0.51274 0.0
O47 O 0.63654 0.05639 0.49078 0.0
O48 O 0.58865 1.00098 0.49403 0.0
O49 O 0.65865 0.98768 0.51518 0.0
O50 O 0.60094 0.96588 0.52937 0.0
O51 O 0.71788 0.06264 0.5029 0.0
O52 O 0.72414 0.08399 0.53377 0.0
C53 C 0.61251 0.10966 0.52176 0.0
O54 O 0.60346 0.04387 0.55427 0.0
O55 O 0.6613 0.03049 0.55114 0.0
C56 C 0.47552 0.95014 0.52419 0.0
C57 C 0.42183 0.87684 0.51722 0.0
C58 C 0.41559 0.90426 0.53115 0.0
C59 C 0.44222 0.94065 0.53457 0.0
C60 C 0.48218 0.92276 0.51043 0.0
C61 C 0.45539 0.88642 0.50688 0.0
C62 C 0.50343 0.98822 0.52829 0.0
C63 C 0.61016 0.02623 0.48272 0.0
C64 C 0.63181 0.9594 0.52218 0.0
C65 C 0.7608 0.12416 0.51118 0.0
C66 C 0.79947 0.2013 0.50225 0.0
C67 C 0.75932 0.1877 0.49816 0.0
C68 C 0.74013 0.14947 0.50265 0.0
C69 C 0.80073 0.13741 0.51527 0.0
C70 C 0.81996 0.1757 0.51086 0.0
C71 C 0.74039 0.08489 0.51698 0.0
H72 H 0.38977 0.89783 0.53916 0.0
H73 H 0.43681 0.96144 0.54532 0.0
H74 H 0.50806 0.92948 0.50247 0.0
H75 H 0.46105 0.86568 0.49621 0.0
H76 H 0.74271 0.20644 0.49133 0.0
H77 H 0.70913 0.13973 0.4996 0.0
H78 H 0.81694 0.11833 0.52213 0.0
H79 H 0.85078 0.18543 0.51451 0.0
Dy80 Dy 0.57651 0.48183 0.833 0.0
Dy81 Dy 0.48553 0.46371 0.84016 0.0
C82 C 0.5163 0.47551 0.79696 0.0
O83 O 0.56033 0.53922 0.82959 0.0
O84 O 0.50929 0.52678 0.84894 0.0
O85 O 0.62543 0.51923 0.82058 0.0
O86 O 0.63225 0.46878 0.8373 0.0
O87 O 0.51613 0.45309 0.86906 0.0
O88 O 0.57331 0.49737 0.86496 0.0
O89 O 0.49261 0.40537 0.83098 0.0
O90 O 0.55789 0.41724 0.83865 0.0
O91 O 0.43945 0.45635 0.85975 0.0
O92 O 0.42654 0.45318 0.82764 0.0
C93 C 0.53583 0.55152 0.83994 0.0
O94 O 0.54442 0.46083 0.80375 0.0
O95 O 0.49511 0.48754 0.8095 0.0
C96 C 0.67469 0.49043 0.81157 0.0
C97 C 0.73849 0.49787 0.78885 0.0
C98 C 0.70631 0.51014 0.78115 0.0
C99 C 0.67452 0.50635 0.79241 0.0
C100 C 0.7048 0.47398 0.81813 0.0
C101 C 0.73638 0.47742 0.80678 0.0
C102 C 0.6484 0.49756 0.8262 0.0
C103 C 0.54837 0.47721 0.87664 0.0
C104 C 0.52374 0.39282 0.83434 0.0
C105 C 0.397 0.49253 0.84642 0.0
C106 C 0.37599 0.56434 0.84601 0.0
C107 C 0.39604 0.55403 0.863 0.0
C108 C 0.40642 0.51856 0.86322 0.0
C109 C 0.37555 0.50208 0.82974 0.0
C110 C 0.36525 0.53767 0.82951 0.0
C111 C 0.41455 0.45909 0.84503 0.0
H112 H 0.70724 0.52588 0.76733 0.0
H113 H 0.65144 0.51887 0.7868 0.0
H114 H 0.70556 0.46154 0.83282 0.0
H115 H 0.76091 0.46797 0.81318 0.0
H116 H 0.40386 0.57343 0.87616 0.0
H117 H 0.42296 0.51227 0.87636 0.0
H118 H 0.36811 0.48275 0.81654 0.0
H119 H 0.34981 0.54477 0.81617 0.0
C120 C 0.62291 0.06002 0.32748 0.0
C121 C 0.60553 0.02361 0.33555 0.0
C122 C 0.619 0.06566 0.30681 0.0
C123 C 0.59812 0.03486 0.29363 0.0
C124 C 0.5816 0.99832 0.30172 0.0
C125 C 0.58463 0.99302 0.32229 0.0
C126 C 0.59305 0.04023 0.27157 0.0
C127 C 0.62224 0.0647 0.26126 0.0
C128 C 0.61796 0.06741 0.24029 0.0
C129 C 0.5843 0.04471 0.22957 0.0
C130 C 0.55486 0.02016 0.23957 0.0
C131 C 0.55907 0.01926 0.26053 0.0
C132 C 0.52027 0.99404 0.22832 0.0
C133 C 0.50194 0.00699 0.21143 0.0
C134 C 0.50524 0.95557 0.23458 0.0
C135 C 0.47237 0.93097 0.22454 0.0
C136 C 0.45379 0.944 0.20783 0.0
C137 C 0.64895 0.09322 0.22946 0.0
C138 C 0.66703 0.13166 0.23666 0.0
C139 C 0.66013 0.07982 0.21159 0.0
C140 C 0.68817 0.10444 0.20097 0.0
C141 C 0.70568 0.14323 0.20788 0.0
C142 C 0.69502 0.15641 0.22598 0.0
C143 C 0.46909 0.98217 0.20126 0.0
H144 H 0.63974 0.08423 0.33706 0.0
H145 H 0.63197 0.09432 0.30126 0.0
H146 H 0.56618 0.9734 0.29218 0.0
H147 H 0.56995 0.96477 0.32771 0.0
H148 H 0.64892 0.08061 0.2694 0.0
H149 H 0.53552 1.00189 0.2683 0.0
H150 H 0.5812 0.0459 0.21339 0.0
H151 H 0.51254 0.03651 0.20629 0.0
H152 H 0.51912 0.9442 0.2472 0.0
H153 H 0.46178 0.90147 0.22972 0.0
H154 H 0.65882 0.14295 0.25031 0.0
H155 H 0.64733 0.05012 0.20584 0.0
H156 H 0.45522 0.99309 0.18848 0.0
H157 H 0.70757 0.1862 0.23166 0.0
H158 H 0.69626 0.09294 0.18736 0.0
C159 C 0.53003 0.52954 0.63874 0.0
C160 C 0.55382 0.52069 0.65472 0.0
C161 C 0.54196 0.5326 0.61931 0.0
C162 C 0.57752 0.52605 0.61535 0.0
C163 C 0.60126 0.517 0.63113 0.0
C164 C 0.58978 0.51479 0.65063 0.0
C165 C 0.58988 0.52848 0.59476 0.0
C166 C 0.59243 0.56284 0.58411 0.0
C167 C 0.60509 0.56572 0.56473 0.0
C168 C 0.61425 0.5333 0.55578 0.0
C169 C 0.61072 0.49812 0.56613 0.0
C170 C 0.59908 0.49637 0.58576 0.0
C171 C 0.61655 0.4622 0.5563 0.0
C172 C 0.6007 0.45073 0.53667 0.0
C173 C 0.63451 0.43701 0.56719 0.0
C174 C 0.63443 0.40021 0.55915 0.0
C175 C 0.61646 0.3877 0.53998 0.0
C176 C 0.60933 0.60321 0.55431 0.0
C177 C 0.57852 0.62085 0.55246 0.0
C178 C 0.64501 0.62325 0.5478 0.0
C179 C 0.65031 0.66113 0.54046 0.0
C180 C 0.61982 0.67952 0.5392 0.0
C181 C 0.58358 0.65836 0.54482 0.0
C182 C 0.60066 0.41391 0.5286 0.0
H183 H 0.50188 0.53355 0.64112 0.0
H184 H 0.52308 0.53933 0.60728 0.0
H185 H 0.62901 0.51223 0.6284 0.0
H186 H 0.60941 0.50889 0.6625 0.0
H187 H 0.58565 0.58782 0.59116 0.0
H188 H 0.59568 0.46942 0.59387 0.0
H189 H 0.62368 0.53537 0.54075 0.0
H190 H 0.58653 0.46932 0.52789 0.0
H191 H 0.64751 0.44521 0.58225 0.0
H192 H 0.64672 0.38081 0.5684 0.0
H193 H 0.55062 0.60578 0.55725 0.0
H194 H 0.6693 0.61037 0.54927 0.0
H195 H 0.58715 0.40548 0.51366 0.0
H196 H 0.55909 0.67092 0.54358 0.0
H197 H 0.67876 0.67649 0.53655 0.0
C198 C 0.10306 0.68769 0.96923 0.0
C199 C 0.08384 0.6477 0.97022 0.0
C200 C 0.10333 0.70681 0.95101 0.0
C201 C 0.08404 0.68642 0.9335 0.0
C202 C 1.06465 0.64653 0.93459 0.0
C203 C 1.06453 0.62745 0.9527 0.0
C204 C 0.08499 0.70593 0.91393 0.0
C205 C 0.12014 0.72753 0.90734 0.0
C206 C 0.1224 0.74188 0.88771 0.0
C207 C 0.08789 0.73547 0.87523 0.0
C208 C 1.05348 0.71082 0.88094 0.0
C209 C 1.05179 0.69805 0.90065 0.0
C210 C 1.02313 0.69103 0.86522 0.0
C211 C 1.01216 0.71133 0.84878 0.0
C212 C 1.00888 0.64999 0.8653 0.0
C213 C 0.98519 0.62964 0.84921 0.0
C214 C 0.97515 0.64964 0.8325 0.0
C215 C 0.16079 0.75541 0.87901 0.0
C216 C 0.19545 0.76704 0.89145 0.0
C217 C 0.16376 0.75049 0.85826 0.0
C218 C 0.19903 0.75149 0.85085 0.0
C219 C 0.23209 0.7556 0.86395 0.0
C220 C 0.23064 0.76632 0.88409 0.0
C221 C 0.98821 0.69081 0.83259 0.0
H222 H 0.11843 0.70399 0.98246 0.0
H223 H 0.11853 0.73755 0.95061 0.0
H224 H 1.05008 0.62976 0.92131 0.0
H225 H 1.0491 0.59677 0.95299 0.0
H226 H 0.14595 0.72988 0.91712 0.0
H227 H 1.02495 0.67976 0.90525 0.0
H228 H 0.08816 0.74623 0.86022 0.0
H229 H 1.02268 0.74294 0.84827 0.0
H230 H 1.0173 0.6332 0.87746 0.0
H231 H 0.97476 0.59804 0.84987 0.0
H232 H 0.19537 0.77382 0.90723 0.0
H233 H 0.13892 0.74212 0.84759 0.0
H234 H 0.98061 0.70702 0.81998 0.0
H235 H 0.25583 0.77064 0.89459 0.0
H236 H 0.19954 0.74482 0.83505 0.0
C237 C 1.03661 0.54429 0.34352 0.0
C238 C 0.06841 0.54416 0.33265 0.0
C239 C 1.04098 0.549 0.36434 0.0
C240 C 0.07723 0.55336 0.37478 0.0
C241 C 0.10939 0.55492 0.36382 0.0
C242 C 0.10503 0.55047 0.34293 0.0
C243 C 0.08086 0.5538 0.39702 0.0
C244 C 1.05272 0.52806 0.40729 0.0
C245 C 1.05603 0.52708 0.42824 0.0
C246 C 0.08795 0.55211 0.43904 0.0
C247 C 0.11627 0.57838 0.42909 0.0
C248 C 0.11257 0.57896 0.40805 0.0
C249 C 0.14944 0.60534 0.44078 0.0
C250 C 0.14385 0.62411 0.45853 0.0
C251 C 0.18685 0.61229 0.43444 0.0
C252 C 0.21799 0.6374 0.44564 0.0
C253 C 0.21235 0.65593 0.46344 0.0
C254 C 1.0264 0.49927 0.43875 0.0
C255 C 0.98708 0.49565 0.43364 0.0
C256 C 1.03721 0.4754 0.45354 0.0
C257 C 1.00918 0.44772 0.46269 0.0
C258 C 0.96986 0.44371 0.45737 0.0
C259 C 0.95906 0.46826 0.44295 0.0
C260 C 0.17496 0.64905 0.46974 0.0
H261 H 1.00817 0.54021 0.33592 0.0
H262 H 1.0158 0.54859 0.37229 0.0
H263 H 0.13765 0.55794 0.37143 0.0
H264 H 0.12998 0.5503 0.33489 0.0
H265 H 1.02869 0.50771 0.39895 0.0
H266 H 0.13392 0.59958 0.40027 0.0
H267 H 0.09069 0.55108 0.45523 0.0
H268 H 0.1153 0.61996 0.46363 0.0
H269 H 0.19215 0.59787 0.42097 0.0
H270 H 0.24657 0.64192 0.44051 0.0
H271 H 0.97803 0.51394 0.42239 0.0
H272 H 0.06733 0.47746 0.45766 0.0
H273 H 0.16959 0.66353 0.48318 0.0
H274 H 0.92895 0.46554 0.43846 0.0
H275 H 1.01825 0.42929 0.47387 0.0
C276 C 0.59191 0.97467 0.71174 0.0
C277 C 0.6229 0.00591 0.70731 0.0
C278 C 0.58203 0.96878 0.73145 0.0
C279 C 0.60267 0.99431 0.74706 0.0
C280 C 0.63383 0.02537 0.74266 0.0
C281 C 0.644 0.03098 0.72298 0.0
C282 C 0.59074 0.98947 0.76777 0.0
C283 C 0.58278 0.95254 0.77635 0.0
C284 C 0.56962 0.94729 0.79565 0.0
C285 C 0.56511 0.98026 0.8065 0.0
C286 C 0.57355 0.01776 0.79812 0.0
C287 C 0.58616 0.02176 0.77872 0.0
C288 C 0.5675 0.05291 0.8087 0.0
C289 C 0.53406 0.0507 0.81865 0.0
C290 C 0.59328 0.08996 0.80695 0.0
C291 C 0.58441 0.12415 0.81345 0.0
C292 C 0.54973 0.12229 0.8222 0.0
C293 C 0.56088 0.90722 0.80412 0.0
C294 C 0.54467 0.87387 0.79151 0.0
C295 C 0.57031 0.9016 0.82445 0.0
C296 C 0.56478 0.86362 0.83178 0.0
C297 C 0.55015 0.83051 0.81889 0.0
C298 C 0.53974 0.83608 0.79875 0.0
C299 C 0.52536 0.08498 0.82539 0.0
H300 H 0.57537 0.95473 0.69995 0.0
H301 H 0.55769 0.9448 0.73443 0.0
H302 H 0.65031 0.04536 0.75444 0.0
H303 H 0.66787 0.05542 0.71996 0.0
H304 H 0.58749 0.92794 0.76797 0.0
H305 H 0.59108 0.04998 0.77171 0.0
H306 H 0.55479 0.97674 0.82131 0.0
H307 H 0.51358 0.0227 0.82029 0.0
H308 H 0.61973 0.09271 0.79974 0.0
H309 H 0.60393 0.15208 0.81057 0.0
H310 H 0.53595 0.87688 0.77591 0.0
H311 H 0.5831 0.92646 0.83459 0.0
H312 H 0.49886 0.08222 0.83253 0.0
H313 H 0.52766 0.81111 0.78857 0.0
H314 H 0.57307 0.86012 0.8474 0.0
C315 C 0.55442 0.46704 0.03301 0.0
C316 C 0.54614 0.4988 0.02281 0.0
C317 C 0.55372 0.46563 0.05382 0.0
C318 C 0.54392 0.49551 0.06466 0.0
C319 C 0.53418 0.52647 0.05437 0.0
C320 C 0.53567 0.52832 0.03361 0.0
C321 C 0.54624 0.4957 0.08677 0.0
C322 C 0.58091 0.49531 0.09745 0.0
C323 C 0.5849 0.49732 0.11851 0.0
C324 C 0.55249 0.49968 0.12894 0.0
C325 C 0.5166 0.49876 0.11818 0.0
C326 C 0.51449 0.49756 0.09711 0.0
C327 C 0.48062 0.49967 0.12799 0.0
C328 C 0.44479 0.47535 0.12026 0.0
C329 C 0.48056 0.52805 0.14289 0.0
C330 C 0.44556 0.53377 0.14877 0.0
C331 C 0.40962 0.51136 0.13986 0.0
C332 C 0.62393 0.49829 0.12855 0.0
C333 C 0.6457 0.47421 0.12088 0.0
C334 C 0.64226 0.52698 0.14333 0.0
C335 C 0.6819 0.53332 0.14908 0.0
C336 C 0.70451 0.51146 0.14004 0.0
C337 C 0.68523 0.48088 0.12635 0.0
C338 C 0.40996 0.48117 0.126 0.0
H339 H 0.56281 0.44412 0.02498 0.0
H340 H 0.5613 0.44148 0.06151 0.0
H341 H 0.52678 0.54993 0.06247 0.0
H342 H 0.52913 0.55304 0.026 0.0
H343 H 0.60552 0.49497 0.08913 0.0
H344 H 0.4879 0.49825 0.08856 0.0
H345 H 0.55488 0.50122 0.14516 0.0
H346 H 0.44362 0.45278 0.10893 0.0
H347 H 0.50747 0.54729 0.1492 0.0
H348 H 0.44681 0.55666 0.1599 0.0
H349 H 0.63252 0.45132 0.1097 0.0
H350 H 0.62656 0.54603 0.14962 0.0
H351 H 0.38335 0.46324 0.11866 0.0
H352 H 0.70087 0.46322 0.11888 0.0
H353 H 0.69495 0.55631 0.1602 0.0
H354 H 0.17865 0.47604 0.14374 0.0
H355 H 0.20145 0.60269 0.15141 0.0
H356 H 0.27086 0.60884 0.15199 0.0
H357 H 0.26284 0.4659 0.1756 0.0
H358 H 0.27236 0.42852 0.15964 0.0
H359 H 0.22382 0.43309 0.16059 0.0
H360 H 0.21835 0.44004 0.12213 0.0
H361 H 0.26685 0.43549 0.12108 0.0
H362 H 0.25362 0.47765 0.11082 0.0
H363 H 0.338 0.6027 0.15073 0.0
H364 H 0.39852 0.58451 0.14689 0.0
H365 H 0.33519 0.46162 0.14054 0.0
C366 C 0.19827 0.505 0.1457 0.0
C367 C 0.18405 0.53885 0.14749 0.0
C368 C 0.21105 0.57619 0.14986 0.0
C369 C 0.25082 0.58009 0.15029 0.0
C370 C 0.26384 0.54644 0.14832 0.0
C371 C 0.23853 0.50956 0.14605 0.0
C372 C 0.26069 0.47849 0.14363 0.0
C373 C 0.25456 0.4498 0.1609 0.0
C374 C 0.24919 0.45663 0.1232 0.0
C375 C 0.30213 0.50381 0.14477 0.0
C376 C 0.30309 0.54288 0.1476 0.0
C377 C 0.33764 0.5721 0.14871 0.0
C378 C 0.37214 0.56133 0.1467 0.0
C379 C 0.37239 0.52148 0.14361 0.0
C380 C 0.33652 0.4924 0.14279 0.0
H381 H 0.86963 0.2257 0.4867 0.0
H382 H 0.77567 0.2688 0.50683 0.0
H383 H 0.80937 0.33597 0.49803 0.0
H384 H 0.94625 0.30918 0.50563 0.0
H385 H 0.97463 0.30776 0.48472 0.0
H386 H 0.943 0.26319 0.49267 0.0
H387 H 0.90907 0.25016 0.4568 0.0
H388 H 0.94056 0.29467 0.44874 0.0
H389 H 0.88907 0.28725 0.44527 0.0
H390 H 0.85282 0.39824 0.48608 0.0
H391 H 0.90334 0.45086 0.47255 0.0
H392 H 0.96929 0.36673 0.46156 0.0
C393 C 0.85631 0.24928 0.48955 0.0
C394 C 0.81995 0.24191 0.49744 0.0
C395 C 0.80325 0.27359 0.50053 0.0
C396 C 0.82229 0.3119 0.49572 0.0
C397 C 0.85807 0.31803 0.48794 0.0
C398 C 0.87497 0.28761 0.48497 0.0
C399 C 0.91346 0.30183 0.47627 0.0
C400 C 0.94627 0.29509 0.49069 0.0
C401 C 0.91298 0.28232 0.45554 0.0
C402 C 0.91553 0.34503 0.4747 0.0
C403 C 0.88331 0.35385 0.48146 0.0
C404 C 0.87829 0.39173 0.48087 0.0
C405 C 0.90698 0.42134 0.47311 0.0
C406 C 0.94023 0.41282 0.46618 0.0
C407 C 0.94448 0.37419 0.4671 0.0
H408 H 0.56898 0.60943 0.81473 0.0
H409 H 0.50326 0.58885 0.86706 0.0
H410 H 0.50162 0.65836 0.86811 0.0
H411 H 0.62578 0.7083 0.82887 0.0
H412 H 0.6234 0.7256 0.80371 0.0
H413 H 0.62136 0.67472 0.80778 0.0
H414 H 0.55688 0.65395 0.78565 0.0
H415 H 0.55867 0.70474 0.78155 0.0
H416 H 0.51716 0.67321 0.79167 0.0
H417 H 0.50718 0.73049 0.86351 0.0
H418 H 0.51604 0.79864 0.85217 0.0
H419 H 0.57514 0.77138 0.80198 0.0
C420 C 0.55475 0.61969 0.82658 0.0
C421 C 0.53667 0.59377 0.84096 0.0
C422 C 0.51753 0.60817 0.85595 0.0
C423 C 0.51648 0.64766 0.8567 0.0
C424 C 0.53441 0.67241 0.84225 0.0
C425 C 0.55294 0.65894 0.82739 0.0
C426 C 0.56815 0.69112 0.81305 0.0
C427 C 0.6123 0.70049 0.81338 0.0
C428 C 0.54906 0.68008 0.79172 0.0
C429 C 0.55534 0.72474 0.82219 0.0
C430 C 0.53626 0.71348 0.83914 0.0
C431 C 0.52206 0.73964 0.85024 0.0
C432 C 0.52732 0.77827 0.84375 0.0
C433 C 0.54611 0.79016 0.82619 0.0
C434 C 0.56035 0.76296 0.81536 0.0
H435 H 0.91993 0.48083 0.14 0.0
H436 H 0.96218 0.60588 0.15385 0.0
H437 H 0.89552 0.61113 0.15459 0.0
H438 H 0.83625 0.48599 0.10796 0.0
H439 H 0.80537 0.44179 0.1168 0.0
H440 H 0.85656 0.44735 0.11734 0.0
H441 H 0.85888 0.43449 0.1553 0.0
H442 H 0.80769 0.42892 0.15489 0.0
H443 H 0.8402 0.46434 0.17194 0.0
H444 H 0.82425 0.60395 0.15279 0.0
H445 H 0.7536 0.58479 0.14897 0.0
H446 H 0.75555 0.46337 0.1384 0.0
C447 C 0.91516 0.50933 0.14314 0.0
C448 C 0.94672 0.54298 0.14682 0.0
C449 C 0.93888 0.57958 0.15102 0.0
C450 C 0.90094 0.58293 0.15147 0.0
C451 C 0.87064 0.54938 0.14786 0.0
C452 C 0.87719 0.5132 0.14386 0.0
C453 C 0.83913 0.48183 0.14065 0.0
C454 C 0.83403 0.46314 0.11943 0.0
C455 C 0.83632 0.45055 0.15665 0.0
C456 C 0.81032 0.50617 0.14326 0.0
C457 C 0.82925 0.54505 0.14739 0.0
C458 C 0.80911 0.57345 0.14981 0.0
C459 C 0.76862 0.56204 0.14782 0.0
C460 C 0.748 0.5223 0.14359 0.0
C461 C 0.76969 0.49407 0.14148 0.0
H462 H 0.39274 0.84178 0.48073 0.0
H463 H 0.38494 0.82677 0.5446 0.0
H464 H 0.33325 0.76564 0.53776 0.0
H465 H 0.29362 0.81129 0.46708 0.0
H466 H 0.29786 0.78643 0.44402 0.0
H467 H 0.33657 0.82686 0.45394 0.0
H468 H 0.3841 0.78278 0.45359 0.0
H469 H 0.34549 0.74216 0.44361 0.0
H470 H 0.37355 0.737 0.46637 0.0
H471 H 0.2798 0.70886 0.52397 0.0
H472 H 0.22783 0.66052 0.50418 0.0
H473 H 0.27034 0.71313 0.44934 0.0
C474 C 0.38072 0.82514 0.49327 0.0
C475 C 0.39286 0.83882 0.51319 0.0
C476 C 0.37584 0.81682 0.52922 0.0
C477 C 0.34668 0.78201 0.52549 0.0
C478 C 0.33499 0.76963 0.50565 0.0
C479 C 0.35152 0.79046 0.48981 0.0
C480 C 0.33213 0.77214 0.4699 0.0
C481 C 0.31397 0.80089 0.45805 0.0
C482 C 0.36051 0.75766 0.45765 0.0
C483 C 0.30165 0.73814 0.47704 0.0
C484 C 0.30399 0.73701 0.4977 0.0
C485 C 0.27785 0.70925 0.50778 0.0
C486 C 0.24832 0.68211 0.49643 0.0
C487 C 0.24511 0.68307 0.47524 0.0
C488 C 0.27246 0.71124 0.46549 0.0
H489 H 0.58096 0.35381 0.84022 0.0
H490 H 0.45771 0.33425 0.82602 0.0
H491 H 0.45067 0.26302 0.82367 0.0
H492 H 0.59369 0.27991 0.80681 0.0
H493 H 0.62887 0.26506 0.82332 0.0
H494 H 0.62418 0.3146 0.82493 0.0
H495 H 0.61324 0.30686 0.86261 0.0
H496 H 0.61783 0.25723 0.8611 0.0
H497 H 0.57528 0.26694 0.87026 0.0
H498 H 0.45708 0.19432 0.82102 0.0
H499 H 0.47667 0.13286 0.81768 0.0
H500 H 0.59542 0.19579 0.835 0.0
C501 C 0.55242 0.33456 0.83675 0.0
C502 C 0.51988 0.34984 0.83333 0.0
C503 C 0.48312 0.32349 0.82873 0.0
C504 C 0.47878 0.28286 0.8274 0.0
C505 C 0.51137 0.26882 0.8308 0.0
C506 C 0.5475 0.29379 0.83541 0.0
C507 C 0.57794 0.27101 0.83773 0.0
C508 C 0.60793 0.28338 0.82227 0.0
C509 C 0.5972 0.2758 0.85921 0.0
C510 C 0.55331 0.22945 0.83337 0.0
C511 C 0.515 0.2289 0.82953 0.0
C512 C 0.48695 0.19427 0.82428 0.0
C513 C 0.49839 0.15932 0.82261 0.0
C514 C 0.53763 0.159 0.82623 0.0
C515 C 0.56523 0.19472 0.832 0.0
H516 H 0.59319 0.89747 0.54319 0.0
H517 H 0.67967 0.9291 0.5003 0.0
H518 H 0.68507 0.86056 0.49921 0.0
H519 H 0.63763 0.83205 0.57076 0.0
H520 H 0.59246 0.79824 0.57529 0.0
H521 H 0.59499 0.84946 0.57219 0.0
H522 H 0.54052 0.83111 0.54347 0.0
H523 H 0.53797 0.77982 0.54641 0.0
H524 H 0.54605 0.80141 0.52236 0.0
H525 H 0.67976 0.78769 0.50244 0.0
H526 H 0.66717 0.71797 0.51113 0.0
H527 H 0.58707 0.73601 0.55343 0.0
C528 C 0.61322 0.89005 0.53351 0.0
C529 C 0.63593 0.91866 0.52177 0.0
C530 C 0.66206 0.90772 0.50947 0.0
C531 C 0.66521 0.86883 0.50869 0.0
C532 C 0.64226 0.84134 0.52042 0.0
C533 C 0.61702 0.85159 0.53272 0.0
C534 C 0.59638 0.81691 0.54427 0.0
C535 C 0.60595 0.82463 0.56697 0.0
C536 C 0.55264 0.80672 0.53879 0.0
C537 C 0.6139 0.78545 0.53656 0.0
C538 C 0.64006 0.79996 0.5227 0.0
C539 C 0.65955 0.77612 0.51341 0.0
C540 C 0.65237 0.73653 0.51856 0.0
C541 C 0.62616 0.72114 0.53305 0.0
C542 C 0.60676 0.74627 0.54205 0.0
H543 H 0.76948 0.57448 0.78367 0.0
H544 H 0.79466 0.46114 0.78079 0.0
H545 H 0.86411 0.49384 0.78168 0.0
H546 H 0.86171 0.6354 0.75938 0.0
H547 H 0.86453 0.67512 0.7771 0.0
H548 H 0.81818 0.64506 0.76727 0.0
H549 H 0.79952 0.63058 0.80348 0.0
H550 H 0.84562 0.65959 0.81341 0.0
H551 H 0.82944 0.60904 0.82022 0.0
H552 H 0.92789 0.53534 0.79326 0.0
H553 H 0.97904 0.58043 0.81488 0.0
H554 H 0.91272 0.66704 0.81295 0.0
C555 C 0.78953 0.55674 0.7818 0.0
C556 C 0.77688 0.51543 0.78178 0.0
C557 C 0.80388 0.49287 0.78044 0.0
C558 C 0.84337 0.5113 0.78091 0.0
C559 C 0.85528 0.55224 0.78275 0.0
C560 C 0.82898 0.5748 0.78287 0.0
C561 C 0.84835 0.61682 0.78974 0.0
C562 C 0.84819 0.64475 0.77233 0.0
C563 C 0.82964 0.62966 0.80778 0.0
C564 C 0.88869 0.61339 0.79554 0.0
C565 C 0.8926 0.57648 0.79048 0.0
C566 C 0.92547 0.5646 0.7968 0.0
C567 C 0.95422 0.59026 0.80927 0.0
C568 C 0.94959 0.62711 0.81566 0.0
C569 C 0.91729 0.63942 0.80792 0.0
H570 H 0.25191 0.78211 0.20015 0.0
H571 H 0.25685 0.78065 0.13565 0.0
H572 H 0.3184 0.83215 0.13932 0.0
H573 H 0.29123 0.88646 0.20876 0.0
H574 H 0.31832 0.88125 0.23184 0.0
H575 H 0.27439 0.84479 0.22406 0.0
H576 H 0.31107 0.79044 0.22626 0.0
H577 H 0.35509 0.82671 0.23406 0.0
H578 H 0.35302 0.79499 0.21247 0.0
H579 H 0.37927 0.8844 0.1501 0.0
H580 H 0.43653 0.93072 0.16735 0.0
H581 H 0.39184 0.89733 0.22474 0.0
C582 C 0.26582 0.79285 0.1868 0.0
C583 C 0.24961 0.77746 0.16761 0.0
C584 C 0.26897 0.79182 0.1505 0.0
C585 C 0.30379 0.82121 0.15243 0.0
C586 C 0.31897 0.83578 0.17157 0.0
C587 C 0.30073 0.82192 0.18846 0.0
C588 C 0.3236 0.84174 0.20734 0.0
C589 C 0.3005 0.86494 0.21866 0.0
C590 C 0.33646 0.81168 0.22082 0.0
C591 C 0.35755 0.86891 0.19844 0.0
C592 C 0.35426 0.86527 0.17778 0.0
C593 C 0.38215 0.8875 0.16628 0.0
C594 C 0.41444 0.91388 0.17618 0.0
C595 C 0.41868 0.91755 0.19736 0.0
C596 C 0.38962 0.89486 0.20854 0.0
H597 H 0.665 0.17904 0.53417 0.0
H598 H 0.54797 0.1317 0.50786 0.0
H599 H 0.53841 0.19842 0.50731 0.0
H600 H 0.64402 0.24951 0.56648 0.0
H601 H 0.68802 0.28662 0.56362 0.0
H602 H 0.68681 0.23552 0.56059 0.0
H603 H 0.71113 0.24792 0.52523 0.0
H604 H 0.71252 0.29916 0.52815 0.0
H605 H 0.68517 0.27058 0.50695 0.0
H606 H 0.54007 0.26936 0.51115 0.0
H607 H 0.55198 0.33953 0.52031 0.0
H608 H 0.66807 0.34163 0.544 0.0
C609 C 0.63747 0.18269 0.52814 0.0
C610 C 0.60725 0.15 0.52105 0.0
C611 C 0.57159 0.15617 0.5134 0.0
C612 C 0.56587 0.19401 0.51294 0.0
C613 C 0.59612 0.22549 0.52016 0.0
C614 C 0.6312 0.2203 0.52763 0.0
C615 C 0.65829 0.25894 0.53535 0.0
C616 C 0.66995 0.25755 0.55784 0.0
C617 C 0.69388 0.2698 0.52319 0.0
C618 C 0.63261 0.2865 0.53144 0.0
C619 C 0.59705 0.26662 0.52244 0.0
C620 C 0.56796 0.28537 0.51798 0.0
C621 C 0.57512 0.32538 0.52313 0.0
C622 C 0.61108 0.34636 0.53274 0.0
C623 C 0.64028 0.32653 0.5367 0.0
H624 H 0.30785 0.57744 0.83141 0.0
H625 H 0.41958 0.63662 0.86071 0.0
H626 H 0.39815 0.69748 0.86397 0.0
H627 H 0.29052 0.66486 0.80444 0.0
H628 H 0.23987 0.64981 0.80817 0.0
H629 H 0.26641 0.61341 0.80529 0.0
H630 H 0.24449 0.5838 0.83906 0.0
H631 H 0.21796 0.61988 0.84198 0.0
H632 H 0.2539 0.61513 0.86133 0.0
H633 H 0.36051 0.74819 0.86877 0.0
H634 H 0.31058 0.78339 0.87425 0.0
H635 H 0.22545 0.69031 0.84079 0.0
C636 C 0.32834 0.60353 0.83787 0.0
C637 C 0.36529 0.60224 0.84583 0.0
C638 C 0.39086 0.63681 0.85472 0.0
C639 C 0.37911 0.67163 0.85644 0.0
C640 C 0.34196 0.67153 0.84891 0.0
C641 C 0.31717 0.63841 0.83958 0.0
C642 C 0.27757 0.64431 0.83455 0.0
C643 C 0.26805 0.64303 0.81176 0.0
C644 C 0.2467 0.61401 0.84486 0.0
C645 C 0.28332 0.68522 0.84336 0.0
C646 C 0.32071 0.70088 0.85132 0.0
C647 C 0.33137 0.73664 0.86215 0.0
C648 C 0.30284 0.75635 0.86528 0.0
C649 C 0.26418 0.74007 0.85765 0.0
C650 C 0.25489 0.70454 0.84616 0.0
H651 H 0.89895 0.30752 0.18936 0.0
H652 H 0.86647 0.28752 0.12565 0.0
H653 H 0.80696 0.23856 0.13297 0.0
H654 H 0.86499 0.20748 0.20302 0.0
H655 H 0.84789 0.21927 0.22633 0.0
H656 H 0.88744 0.25358 0.21613 0.0
H657 H 0.8504 0.30751 0.21715 0.0
H658 H 0.81071 0.27334 0.22735 0.0
H659 H 0.80263 0.29829 0.20475 0.0
H660 H 0.75123 0.19172 0.14711 0.0
H661 H 0.70347 0.14908 0.16705 0.0
H662 H 0.77264 0.19808 0.2217 0.0
C663 C 0.87911 0.2931 0.17696 0.0
C664 C 0.88739 0.3013 0.15691 0.0
C665 C 0.86095 0.28139 0.14111 0.0
C666 C 0.82697 0.25371 0.14512 0.0
C667 C 0.81981 0.24615 0.16503 0.0
C668 C 0.84512 0.26518 0.1807 0.0
C669 C 0.83093 0.25088 0.20072 0.0
C670 C 0.85951 0.23166 0.21222 0.0
C671 C 0.8232 0.28451 0.21323 0.0
C672 C 0.79374 0.22079 0.19384 0.0
C673 C 0.78784 0.21868 0.17319 0.0
C674 C 0.75562 0.19299 0.16329 0.0
C675 C 0.72878 0.16864 0.17477 0.0
C676 C 0.7343 0.16987 0.19598 0.0
C677 C 0.76727 0.19657 0.20556 0.0
H678 H 1.06034 0.61493 0.08695 0.0
H679 H 0.07792 0.49887 0.07755 0.0
H680 H 0.08571 0.51224 0.04184 0.0
H681 H 1.00608 0.61797 0.03991 0.0
H682 H 1.02761 0.66939 0.03667 0.0
H683 H 1.02318 0.65055 0.06149 0.0
H684 H 0.09666 0.67853 0.06979 0.0
H685 H 0.10136 0.69727 0.04496 0.0
H686 H 0.12978 0.66483 0.054 0.0
H687 H 0.09173 0.53812 0.00722 0.0
H688 H 0.0946 0.57443 0.97588 0.0
H689 H 0.07311 0.67364 0.00773 0.0
C690 C 1.06562 0.5922 0.07738 0.0
C691 C 0.06841 0.55577 0.08507 0.0
C692 C 0.07562 0.52698 0.07204 0.0
C693 C 0.08014 0.5343 0.05172 0.0
C694 C 0.07749 0.57059 0.04467 0.0
C695 C 0.07035 0.59906 0.05708 0.0
C696 C 0.06897 0.63565 0.04574 0.0
C697 C 1.02908 0.64386 0.04596 0.0
C698 C 0.10111 0.67117 0.05412 0.0
C699 C 0.07625 0.62322 0.02497 0.0
C700 C 0.08113 0.58561 0.02471 0.0
C701 C 0.08786 0.56755 0.00723 0.0
C702 C 0.08926 0.58835 0.98949 0.0
C703 C 0.08393 0.62681 0.98933 0.0
C704 C 0.07768 0.64447 0.00741 0.0
H705 H 0.61589 0.0794 0.45288 0.0
H706 H 0.59928 0.95539 0.46372 0.0
H707 H 0.59934 0.94188 0.4274 0.0
H708 H 0.55161 0.06436 0.4074 0.0
H709 H 0.58011 0.10606 0.39533 0.0
H710 H 0.58036 0.10607 0.42222 0.0
H711 H 0.65475 0.11937 0.42503 0.0
H712 H 0.65467 0.11896 0.39813 0.0
H713 H 0.67681 0.08641 0.41239 0.0
H714 H 0.60573 0.94266 0.39049 0.0
H715 H 0.60751 0.95517 0.3546 0.0
H716 H 0.61121 0.07758 0.36697 0.0
C717 C 0.61224 0.04945 0.44752 0.0
C718 C 0.6078 0.01837 0.46097 0.0
C719 C 0.60255 0.97948 0.45355 0.0
C720 C 0.60282 0.9716 0.43301 0.0
C721 C 0.60756 1.00289 0.42011 0.0
C722 C 0.6113 0.04091 0.42698 0.0
C723 C 0.61363 0.06871 0.40975 0.0
C724 C 0.57938 0.08739 0.40861 0.0
C725 C 0.65227 0.10022 0.41143 0.0
C726 C 0.61103 0.04041 0.39216 0.0
C727 C 0.60822 1.00277 0.39855 0.0
C728 C 0.607 0.97184 0.38524 0.0
C729 C 0.60765 0.97928 0.36477 0.0
C730 C 0.60844 0.01722 0.3576 0.0
C731 C 0.61069 0.04823 0.37169 0.0
H732 H 0.54831 0.44589 0.76664 0.0
H733 H 0.47666 0.52415 0.7787 0.0
H734 H 0.47649 0.54284 0.74323 0.0
H735 H 0.60694 0.50666 0.734 0.0
H736 H 0.61043 0.4673 0.71742 0.0
H737 H 0.6028 0.45817 0.74337 0.0
H738 H 0.54133 0.40268 0.73307 0.0
H739 H 0.54899 0.41133 0.70706 0.0
H740 H 0.50378 0.41306 0.71639 0.0
H741 H 0.48935 0.5573 0.70714 0.0
H742 H 0.51 0.56289 0.67282 0.0
H743 H 0.56955 0.4716 0.68413 0.0
C744 C 0.53212 0.46655 0.76179 0.0
C745 C 0.51247 0.48355 0.77542 0.0
C746 C 0.4917 0.51054 0.76847 0.0
C747 C 0.49156 0.52145 0.74838 0.0
C748 C 0.51193 0.50471 0.73543 0.0
C749 C 0.53138 0.47744 0.74181 0.0
C750 C 0.55169 0.46437 0.72508 0.0
C751 C 0.59555 0.47476 0.73028 0.0
C752 C 0.53546 0.42024 0.7201 0.0
C753 C 0.54109 0.48894 0.70831 0.0
C754 C 0.51831 0.51214 0.71458 0.0
C755 C 0.50658 0.53871 0.70196 0.0
C756 C 0.5183 0.54146 0.68239 0.0
C757 C 0.54124 0.51749 0.67551 0.0
C758 C 0.55244 0.49077 0.68878 0.0
H759 H 0.58131 0.02743 0.58985 0.0
H760 H 0.7037 0.04375 0.58451 0.0
H761 H 0.7141 0.039 0.62117 0.0
H762 H 0.58934 0.08162 0.63707 0.0
H763 H 0.54803 0.04794 0.64622 0.0
H764 H 0.5506 0.05472 0.61971 0.0
H765 H 0.54082 0.97985 0.61398 0.0
H766 H 0.5384 0.97286 0.64048 0.0
H767 H 0.57307 0.95562 0.62731 0.0
H768 H 0.71109 0.03184 0.65832 0.0
H769 H 0.69443 0.02054 0.6933 0.0
H770 H 0.57384 0.00672 0.67417 0.0
C771 C 0.61036 0.03048 0.59642 0.0
C772 C 0.64176 0.03623 0.58438 0.0
C773 C 0.67924 0.03937 0.59348 0.0
C774 C 0.68545 0.03679 0.61428 0.0
C775 C 0.65383 0.03075 0.62571 0.0
C776 C 0.617 0.02749 0.61711 0.0
C777 C 0.58778 0.01945 0.63266 0.0
C778 C 0.56777 0.05293 0.63399 0.0
C779 C 0.55828 0.97957 0.62834 0.0
C780 C 0.61392 0.01864 0.65133 0.0
C781 C 0.65195 0.02553 0.64703 0.0
C782 C 0.68142 0.02644 0.66188 0.0
C783 C 0.67173 0.02012 0.68168 0.0
C784 C 0.63289 0.01265 0.68637 0.0
C785 C 0.60372 0.01192 0.67095 0.0
H786 H 0.51355 0.43241 0.90682 0.0
H787 H 0.59738 0.54128 0.89576 0.0
H788 H 0.60535 0.5585 0.93183 0.0
H789 H 0.46864 0.46973 0.94551 0.0
H790 H 0.46268 0.42675 0.96046 0.0
H791 H 0.46366 0.42227 0.9337 0.0
H792 H 0.51974 0.38878 0.93845 0.0
H793 H 0.51875 0.39289 0.96523 0.0
H794 H 0.56287 0.41314 0.9537 0.0
H795 H 0.60145 0.56617 0.96856 0.0
H796 H 0.59074 0.56046 0.00456 0.0
H797 H 0.51252 0.44525 0.99248 0.0
C798 C 0.53376 0.45971 0.91203 0.0
C799 C 0.55484 0.48548 0.89848 0.0
C800 C 0.58111 0.52091 0.90586 0.0
C801 C 0.58572 0.53109 0.92633 0.0
C802 C 0.56424 0.50532 0.93926 0.0
C803 C 0.53922 0.47009 0.93251 0.0
C804 C 0.52014 0.44748 0.94973 0.0
C805 C 0.47617 0.4412 0.94719 0.0
C806 C 0.53104 0.40825 0.9519 0.0
C807 C 0.53806 0.47575 0.96712 0.0
C808 C 0.56313 0.50909 0.96069 0.0
C809 C 0.58218 0.54007 0.97383 0.0
C810 C 0.57578 0.5367 0.99418 0.0
C811 C 0.55094 0.50244 0.00116 0.0
C812 C 0.53188 0.4716 0.98746 0.0
H813 H 0.10767 0.57332 0.21714 0.0
H814 H 1.01099 0.47126 0.20392 0.0
H815 H 1.00307 0.464 0.23993 0.0
H816 H 0.14641 0.53614 0.26247 0.0
H817 H 0.16027 0.58347 0.27534 0.0
H818 H 0.15933 0.58025 0.24843 0.0
H819 H 0.11324 0.62588 0.2455 0.0
H820 H 0.11395 0.62915 0.27238 0.0
H821 H 0.0687 0.61285 0.25745 0.0
H822 H 1.00335 0.46905 0.27689 0.0
H823 H 1.01363 0.48484 0.31319 0.0
H824 H 0.11059 0.58286 0.30299 0.0
C825 C 0.08502 0.54929 0.22183 0.0
C826 C 1.05995 0.52291 0.20767 0.0
C827 C 1.03061 0.49188 0.21444 0.0
C828 C 1.02582 0.48746 0.23488 0.0
C829 C 1.05071 0.51413 0.2484 0.0
C830 C 0.0799 0.54429 0.24224 0.0
C831 C 0.10234 0.5691 0.25998 0.0
C832 C 0.14459 0.5671 0.26165 0.0
C833 C 0.09936 0.61177 0.25875 0.0
C834 C 0.08087 0.54837 0.27701 0.0
C835 C 1.05118 0.51677 0.26994 0.0
C836 C 1.02658 0.49361 0.28265 0.0
C837 C 1.03249 0.50295 0.3032 0.0
C838 C 1.06279 0.5351 0.31083 0.0
C839 C 0.0874 0.55793 0.29754 0.0
loop_
_geom_bond_atom_site_label_1
_geom_bond_atom_site_label_2
_geom_bond_distance
_geom_bond_site_symmetry_2
_ccdc_geom_bond_type
Dy0 O3 2.307 1_455 S
Dy0 O5 2.395 . S
Dy0 O6 2.379 . S
Dy0 O8 2.339 . S
Dy0 O10 2.298 . S
Dy0 O14 2.275 . S
Dy0 C22 2.738 . S
Dy1 O4 2.298 . S
Dy1 O7 2.275 1_655 S
Dy1 O9 2.307 1_655 S
Dy1 O11 2.395 . S
Dy1 O12 2.379 . S
Dy1 O15 2.339 . S
Dy1 C31 2.738 . S
C2 O14 1.254 . S
C2 O15 1.257 1_455 S
O3 Dy0 2.307 1_655 S
O3 C13 1.266 . S
O4 Dy1 2.298 . S
O4 C13 1.236 . S
O5 Dy0 2.395 . S
O5 C22 1.255 . S
O6 Dy0 2.379 . S
O6 C22 1.249 . S
O7 Dy1 2.275 1_455 S
O7 C23 1.254 . S
O8 Dy0 2.339 . S
O8 C23 1.257 . S
O9 Dy1 2.307 1_455 S
O9 C24 1.266 . S
O10 Dy0 2.298 . S
O10 C24 1.236 . S
O11 Dy1 2.395 . S
O11 C31 1.255 . S
O12 Dy1 2.379 . S
O12 C31 1.249 . S
C13 O3 1.266 . S
C13 O4 1.236 . S
O14 Dy0 2.275 . S
O14 C2 1.254 . S
O15 Dy1 2.339 . S
O15 C2 1.257 1_655 S
C16 C19 1.344 . S
C16 C20 1.328 . S
C16 C22 1.516 . S
C17 C18 1.304 . S
C17 C21 1.323 . S
C18 C17 1.304 . S
C18 C19 1.371 . S
C18 H32 0.930 . S
C19 C16 1.344 . S
C19 C18 1.371 . S
C19 H33 0.931 . S
C20 C16 1.328 . S
C20 C21 1.433 . S
C20 H34 0.931 . S
C21 C17 1.323 . S
C21 C20 1.433 . S
C21 H35 0.933 . S
C22 Dy0 2.738 . S
C22 O5 1.255 . S
C22 O6 1.249 . S
C22 C16 1.516 . S
C23 O7 1.254 . S
C23 O8 1.257 . S
C24 O9 1.266 . S
C24 O10 1.236 . S
C25 C28 1.344 . S
C25 C29 1.328 . S
C25 C31 1.516 . S
C26 C27 1.304 . S
C26 C30 1.323 . S
C27 C26 1.304 . S
C27 C28 1.371 . S
C27 H36 0.930 . S
C28 C25 1.344 . S
C28 C27 1.371 . S
C28 H37 0.931 . S
C29 C25 1.328 . S
C29 C30 1.433 . S
C29 H38 0.931 . S
C30 C26 1.323 . S
C30 C29 1.433 . S
C30 H39 0.933 . S
C31 Dy1 2.738 . S
C31 O11 1.255 . S
C31 O12 1.249 . S
C31 C25 1.516 . S
H32 C18 0.930 . S
H33 C19 0.931 . S
H34 C20 0.931 . S
H35 C21 0.933 . S
H36 C27 0.930 . S
H37 C28 0.931 . S
H38 C29 0.931 . S
H39 C30 0.933 . S
Dy40 O43 2.307 . S
Dy40 O45 2.395 1_545 S
Dy40 O46 2.379 1_545 S
Dy40 O48 2.339 . S
Dy40 O50 2.298 1_545 S
Dy40 O54 2.275 . S
Dy40 C62 2.738 1_545 S
Dy41 O44 2.298 . S
Dy41 O47 2.275 . S
Dy41 O49 2.307 1_545 S
Dy41 O51 2.395 . S
Dy41 O52 2.379 . S
Dy41 O55 2.339 . S
Dy41 C71 2.738 . S
C42 O54 1.254 . S
C42 O55 1.257 . S
O43 Dy40 2.307 . S
O43 C53 1.266 . S
O44 Dy41 2.298 . S
O44 C53 1.236 . S
O45 Dy40 2.395 1_565 S
O45 C62 1.255 . S
O46 Dy40 2.379 1_565 S
O46 C62 1.249 . S
O47 Dy41 2.275 . S
O47 C63 1.254 . S
O48 Dy40 2.339 . S
O48 C63 1.257 . S
O49 Dy41 2.307 1_565 S
O49 C64 1.266 . S
O50 Dy40 2.298 1_565 S
O50 C64 1.236 . S
O51 Dy41 2.395 . S
O51 C71 1.255 . S
O52 Dy41 2.379 . S
O52 C71 1.249 . S
C53 O43 1.266 . S
C53 O44 1.236 . S
O54 Dy40 2.275 . S
O54 C42 1.254 . S
O55 Dy41 2.339 . S
O55 C42 1.257 . S
C56 C59 1.344 . S
C56 C60 1.328 . S
C56 C62 1.516 . S
C57 C58 1.304 . S
C57 C61 1.323 . S
C58 C57 1.304 . S
C58 C59 1.371 . S
C58 H72 0.930 . S
C59 C56 1.344 . S
C59 C58 1.371 . S
C59 H73 0.931 . S
C60 C56 1.328 . S
C60 C61 1.433 . S
C60 H74 0.931 . S
C61 C57 1.323 . S
C61 C60 1.433 . S
C61 H75 0.933 . S
C62 Dy40 2.738 1_565 S
C62 O45 1.255 . S
C62 O46 1.249 . S
C62 C56 1.516 . S
C63 O47 1.254 . S
C63 O48 1.257 . S
C64 O49 1.266 . S
C64 O50 1.236 . S
C65 C68 1.344 . S
C65 C69 1.328 . S
C65 C71 1.516 . S
C66 C67 1.304 . S
C66 C70 1.323 . S
C67 C66 1.304 . S
C67 C68 1.371 . S
C67 H76 0.930 . S
C68 C65 1.344 . S
C68 C67 1.371 . S
C68 H77 0.931 . S
C69 C65 1.328 . S
C69 C70 1.433 . S
C69 H78 0.931 . S
C70 C66 1.323 . S
C70 C69 1.433 . S
C70 H79 0.933 . S
C71 Dy41 2.738 . S
C71 O51 1.255 . S
C71 O52 1.249 . S
C71 C65 1.516 . S
H72 C58 0.930 . S
H73 C59 0.931 . S
H74 C60 0.931 . S
H75 C61 0.933 . S
H76 C67 0.930 . S
H77 C68 0.931 . S
H78 C69 0.931 . S
H79 C70 0.933 . S
Dy80 O83 2.307 . S
Dy80 O85 2.395 . S
Dy80 O86 2.379 . S
Dy80 O88 2.339 . S
Dy80 O90 2.298 . S
Dy80 O94 2.275 . S
Dy80 C102 2.738 . S
Dy81 O84 2.298 . S
Dy81 O87 2.275 . S
Dy81 O89 2.307 . S
Dy81 O91 2.395 . S
Dy81 O92 2.379 . S
Dy81 O95 2.339 . S
Dy81 C111 2.738 . S
C82 O94 1.254 . S
C82 O95 1.257 . S
O83 Dy80 2.307 . S
O83 C93 1.266 . S
O84 Dy81 2.298 . S
O84 C93 1.236 . S
O85 Dy80 2.395 . S
O85 C102 1.255 . S
O86 Dy80 2.379 . S
O86 C102 1.249 . S
O87 Dy81 2.275 . S
O87 C103 1.254 . S
O88 Dy80 2.339 . S
O88 C103 1.257 . S
O89 Dy81 2.307 . S
O89 C104 1.266 . S
O90 Dy80 2.298 . S
O90 C104 1.236 . S
O91 Dy81 2.395 . S
O91 C111 1.255 . S
O92 Dy81 2.379 . S
O92 C111 1.249 . S
C93 O83 1.266 . S
C93 O84 1.236 . S
O94 Dy80 2.275 . S
O94 C82 1.254 . S
O95 Dy81 2.339 . S
O95 C82 1.257 . S
C96 C99 1.344 . S
C96 C100 1.328 . S
C96 C102 1.516 . S
C97 C98 1.304 . S
C97 C101 1.323 . S
C98 C97 1.304 . S
C98 C99 1.371 . S
C98 H112 0.930 . S
C99 C96 1.344 . S
C99 C98 1.371 . S
C99 H113 0.931 . S
C100 C96 1.328 . S
C100 C101 1.433 . S
C100 H114 0.931 . S
C101 C97 1.323 . S
C101 C100 1.433 . S
C101 H115 0.933 . S
C102 Dy80 2.738 . S
C102 O85 1.255 . S
C102 O86 1.249 . S
C102 C96 1.516 . S
C103 O87 1.254 . S
C103 O88 1.257 . S
C104 O89 1.266 . S
C104 O90 1.236 . S
C105 C108 1.344 . S
C105 C109 1.328 . S
C105 C111 1.516 . S
C106 C107 1.304 . S
C106 C110 1.323 . S
C107 C106 1.304 . S
C107 C108 1.371 . S
C107 H116 0.930 . S
C108 C105 1.344 . S
C108 C107 1.371 . S
C108 H117 0.931 . S
C109 C105 1.328 . S
C109 C110 1.433 . S
C109 H118 0.931 . S
C110 C106 1.323 . S
C110 C109 1.433 . S
C110 H119 0.933 . S
C111 Dy81 2.738 . S
C111 O91 1.255 . S
C111 O92 1.249 . S
C111 C105 1.516 . S
H112 C98 0.930 . S
H113 C99 0.931 . S
H114 C100 0.931 . S
H115 C101 0.933 . S
H116 C107 0.930 . S
H117 C108 0.931 . S
H118 C109 0.931 . S
H119 C110 0.933 . S
C120 C121 1.386 . S
C120 C122 1.397 . S
C120 H144 0.931 . S
C121 C120 1.386 . S
C121 C125 1.397 . S
C122 C120 1.397 . S
C122 C123 1.384 . S
C122 H145 0.930 . S
C123 C122 1.384 . S
C123 C124 1.377 . S
C123 C126 1.481 . S
C124 C123 1.377 . S
C124 C125 1.389 . S
C124 H146 0.917 1_545 S
C125 C121 1.397 . S
C125 C124 1.389 . S
C125 H147 0.931 1_545 S
C126 C123 1.481 . S
C126 C127 1.387 . S
C126 C131 1.390 . S
C127 C126 1.387 . S
C127 C128 1.401 . S
C127 H148 0.930 . S
C128 C127 1.401 . S
C128 C129 1.376 . S
C128 C137 1.511 . S
C129 C128 1.376 . S
C129 C130 1.392 . S
C129 H150 0.931 . S
C130 C129 1.392 . S
C130 C131 1.361 . S
C130 C132 1.500 1_545 S
C131 C126 1.390 . S
C131 C130 1.361 . S
C131 H149 0.931 . S
C132 C130 1.500 1_565 S
C132 C133 1.372 1_565 S
C132 C134 1.363 . S
C133 C132 1.372 1_545 S
C133 C143 1.386 1_545 S
C133 H151 0.931 . S
C134 C132 1.363 . S
C134 C135 1.409 . S
C134 H152 0.929 . S
C135 C134 1.409 . S
C135 C136 1.380 . S
C135 H153 0.930 . S
C136 C135 1.380 . S
C136 C143 1.357 . S
C137 C128 1.511 . S
C137 C138 1.341 . S
C137 C139 1.371 . S
C138 C137 1.341 . S
C138 C142 1.394 . S
C138 H154 0.930 . S
C139 C137 1.371 . S
C139 C140 1.392 . S
C139 H155 0.931 . S
C140 C139 1.392 . S
C140 C141 1.331 . S
C140 H158 0.932 . S
C141 C140 1.331 . S
C141 C142 1.336 . S
C142 C138 1.394 . S
C142 C141 1.336 . S
C142 H157 0.929 . S
C143 C133 1.386 1_565 S
C143 C136 1.357 . S
C143 H156 0.928 . S
H144 C120 0.931 . S
H145 C122 0.930 . S
H146 C124 0.917 1_565 S
H147 C125 0.931 1_565 S
H148 C127 0.930 . S
H149 C131 0.931 . S
H150 C129 0.931 . S
H151 C133 0.931 . S
H152 C134 0.929 . S
H153 C135 0.930 . S
H154 C138 0.930 . S
H155 C139 0.931 . S
H156 C143 0.928 . S
H157 C142 0.929 . S
H158 C140 0.932 . S
C159 C160 1.386 . S
C159 C161 1.397 . S
C159 H183 0.931 . S
C160 C159 1.386 . S
C160 C164 1.397 . S
C161 C159 1.397 . S
C161 C162 1.384 . S
C161 H184 0.930 . S
C162 C161 1.384 . S
C162 C163 1.377 . S
C162 C165 1.481 . S
C163 C162 1.377 . S
C163 C164 1.389 . S
C163 H185 0.929 . S
C164 C160 1.397 . S
C164 C163 1.389 . S
C164 H186 0.931 . S
C165 C162 1.481 . S
C165 C166 1.387 . S
C165 C170 1.390 . S
C166 C165 1.387 . S
C166 C167 1.401 . S
C166 H187 0.930 . S
C167 C166 1.401 . S
C167 C168 1.376 . S
C167 C176 1.511 . S
C168 C167 1.376 . S
C168 C169 1.392 . S
C168 H189 0.931 . S
C169 C168 1.392 . S
C169 C170 1.361 . S
C169 C171 1.500 . S
C170 C165 1.390 . S
C170 C169 1.361 . S
C170 H188 0.931 . S
C171 C169 1.500 . S
C171 C172 1.371 . S
C171 C173 1.365 . S
C172 C171 1.371 . S
C172 C182 1.386 . S
C172 H190 0.931 . S
C173 C171 1.365 . S
C173 C174 1.409 . S
C173 H191 0.929 . S
C174 C173 1.409 . S
C174 C175 1.380 . S
C174 H192 0.930 . S
C175 C174 1.380 . S
C175 C182 1.357 . S
C176 C167 1.511 . S
C176 C177 1.341 . S
C176 C178 1.371 . S
C177 C176 1.341 . S
C177 C181 1.394 . S
C177 H193 0.930 . S
C178 C176 1.371 . S
C178 C179 1.392 . S
C178 H194 0.931 . S
C179 C178 1.392 . S
C179 C180 1.331 . S
C179 H197 0.932 . S
C180 C179 1.331 . S
C180 C181 1.336 . S
C181 C177 1.394 . S
C181 C180 1.336 . S
C181 H196 0.929 . S
C182 C172 1.386 . S
C182 C175 1.357 . S
C182 H195 0.928 . S
H183 C159 0.931 . S
H184 C161 0.930 . S
H185 C163 0.929 . S
H186 C164 0.931 . S
H187 C166 0.930 . S
H188 C170 0.931 . S
H189 C168 0.931 . S
H190 C172 0.931 . S
H191 C173 0.929 . S
H192 C174 0.930 . S
H193 C177 0.930 . S
H194 C178 0.931 . S
H195 C182 0.928 . S
H196 C181 0.929 . S
H197 C179 0.932 . S
C198 C199 1.386 . S
C198 C200 1.397 . S
C198 H222 0.931 . S
C199 C198 1.386 . S
C199 C203 1.391 1_455 S
C200 C198 1.397 . S
C200 C201 1.384 . S
C200 H223 0.930 . S
C201 C200 1.384 . S
C201 C202 1.377 1_455 S
C201 C204 1.481 . S
C202 C201 1.377 1_655 S
C202 C203 1.388 . S
C202 H224 0.929 . S
C203 C199 1.391 1_655 S
C203 C202 1.388 . S
C203 H225 0.937 . S
C204 C201 1.481 . S
C204 C205 1.387 . S
C204 C209 1.390 1_455 S
C205 C204 1.387 . S
C205 C206 1.401 . S
C205 H226 0.930 . S
C206 C205 1.401 . S
C206 C207 1.376 . S
C206 C215 1.511 . S
C207 C206 1.376 . S
C207 C208 1.392 1_455 S
C207 H228 0.931 . S
C208 C207 1.392 1_655 S
C208 C209 1.361 . S
C208 C210 1.500 . S
C209 C204 1.390 1_655 S
C209 C208 1.361 . S
C209 H227 0.931 . S
C210 C208 1.500 . S
C210 C211 1.371 . S
C210 C212 1.365 . S
C211 C210 1.371 . S
C211 C221 1.386 . S
C211 H229 0.931 . S
C212 C210 1.365 . S
C212 C213 1.409 . S
C212 H230 0.929 . S
C213 C212 1.409 . S
C213 C214 1.380 . S
C213 H231 0.930 . S
C214 C213 1.380 . S
C214 C221 1.357 . S
C215 C206 1.511 . S
C215 C216 1.341 . S
C215 C217 1.371 . S
C216 C215 1.341 . S
C216 C220 1.394 . S
C216 H232 0.930 . S
C217 C215 1.371 . S
C217 C218 1.392 . S
C217 H233 0.931 . S
C218 C217 1.392 . S
C218 C219 1.331 . S
C218 H236 0.932 . S
C219 C218 1.331 . S
C219 C220 1.336 . S
C220 C216 1.394 . S
C220 C219 1.336 . S
C220 H235 0.929 . S
C221 C211 1.386 . S
C221 C214 1.357 . S
C221 H234 0.928 . S
H222 C198 0.931 . S
H223 C200 0.930 . S
H224 C202 0.929 . S
H225 C203 0.937 . S
H226 C205 0.930 . S
H227 C209 0.931 . S
H228 C207 0.931 . S
H229 C211 0.931 . S
H230 C212 0.929 . S
H231 C213 0.930 . S
H232 C216 0.930 . S
H233 C217 0.931 . S
H234 C221 0.928 . S
H235 C220 0.929 . S
H236 C218 0.932 . S
C237 C238 1.386 . S
C237 C239 1.397 . S
C237 H261 0.931 . S
C238 C237 1.386 . S
C238 C242 1.397 1_655 S
C239 C237 1.397 . S
C239 C240 1.384 1_655 S
C239 H262 0.930 . S
C240 C239 1.384 1_455 S
C240 C241 1.377 . S
C240 C243 1.481 . S
C241 C240 1.377 . S
C241 C242 1.389 . S
C241 H263 0.929 . S
C242 C238 1.397 1_455 S
C242 C241 1.389 . S
C242 H264 0.931 . S
C243 C240 1.481 . S
C243 C244 1.387 1_455 S
C243 C248 1.390 . S
C244 C243 1.387 1_655 S
C244 C245 1.401 . S
C244 H265 0.930 . S
C245 C244 1.401 . S
C245 C246 1.376 1_655 S
C245 C254 1.511 . S
C246 C245 1.376 1_455 S
C246 C247 1.392 . S
C246 H267 0.931 . S
C247 C246 1.392 . S
C247 C248 1.361 . S
C247 C249 1.500 . S
C248 C243 1.390 . S
C248 C247 1.361 . S
C248 H266 0.931 . S
C249 C247 1.500 . S
C249 C250 1.371 . S
C249 C251 1.365 . S
C250 C249 1.371 . S
C250 C260 1.386 . S
C250 H268 0.931 . S
C251 C249 1.365 . S
C251 C252 1.409 . S
C251 H269 0.929 . S
C252 C251 1.409 . S
C252 C253 1.380 . S
C252 H270 0.930 . S
C253 C252 1.380 . S
C253 C260 1.357 . S
C254 C245 1.511 . S
C254 C255 1.341 . S
C254 C256 1.371 . S
C255 C254 1.341 . S
C255 C259 1.394 . S
C255 H271 0.930 . S
C256 C254 1.371 . S
C256 C257 1.392 . S
C256 H272 0.931 . S
C257 C256 1.392 . S
C257 C258 1.331 . S
C257 H275 0.932 . S
C258 C257 1.331 . S
C258 C259 1.336 . S
C259 C255 1.394 . S
C259 C258 1.336 . S
C259 H274 0.929 . S
C260 C250 1.386 . S
C260 C253 1.357 . S
C260 H273 0.928 . S
H261 C237 0.931 . S
H262 C239 0.930 . S
H263 C241 0.929 . S
H264 C242 0.931 . S
H265 C244 0.930 . S
H266 C248 0.931 . S
H267 C246 0.931 . S
H268 C250 0.931 . S
H269 C251 0.929 . S
H270 C252 0.930 . S
H271 C255 0.930 . S
H272 C256 0.931 . S
H273 C260 0.928 . S
H274 C259 0.929 . S
H275 C257 0.932 . S
C276 C277 1.386 1_565 S
C276 C278 1.397 . S
C276 H300 0.931 . S
C277 C276 1.386 1_545 S
C277 C281 1.397 . S
C278 C276 1.397 . S
C278 C279 1.384 1_565 S
C278 H301 0.930 . S
C279 C278 1.384 1_545 S
C279 C280 1.377 . S
C279 C282 1.481 . S
C280 C279 1.377 . S
C280 C281 1.389 . S
C280 H302 0.929 . S
C281 C277 1.397 . S
C281 C280 1.389 . S
C281 H303 0.931 . S
C282 C279 1.481 . S
C282 C283 1.387 1_545 S
C282 C287 1.390 . S
C283 C282 1.387 1_565 S
C283 C284 1.401 . S
C283 H304 0.930 . S
C284 C283 1.401 . S
C284 C285 1.376 1_565 S
C284 C293 1.511 . S
C285 C284 1.376 1_545 S
C285 C286 1.392 . S
C285 H306 0.931 . S
C286 C285 1.392 . S
C286 C287 1.361 . S
C286 C288 1.500 . S
C287 C282 1.390 . S
C287 C286 1.361 . S
C287 H305 0.931 . S
C288 C286 1.500 . S
C288 C289 1.371 . S
C288 C290 1.365 . S
C289 C288 1.371 . S
C289 C299 1.386 . S
C289 H307 0.931 . S
C290 C288 1.365 . S
C290 C291 1.409 . S
C290 H308 0.929 . S
C291 C290 1.409 . S
C291 C292 1.380 . S
C291 H309 0.930 . S
C292 C291 1.380 . S
C292 C299 1.357 . S
C293 C284 1.511 . S
C293 C294 1.341 . S
C293 C295 1.371 . S
C294 C293 1.341 . S
C294 C298 1.394 . S
C294 H310 0.930 . S
C295 C293 1.371 . S
C295 C296 1.392 . S
C295 H311 0.931 . S
C296 C295 1.392 . S
C296 C297 1.331 . S
C296 H314 0.932 . S
C297 C296 1.331 . S
C297 C298 1.336 . S
C298 C294 1.394 . S
C298 C297 1.336 . S
C298 H313 0.929 . S
C299 C289 1.386 . S
C299 C292 1.357 . S
C299 H312 0.928 . S
H300 C276 0.931 . S
H301 C278 0.930 . S
H302 C280 0.929 . S
H303 C281 0.931 . S
H304 C283 0.930 . S
H305 C287 0.931 . S
H306 C285 0.931 . S
H307 C289 0.931 . S
H308 C290 0.929 . S
H309 C291 0.930 . S
H310 C294 0.930 . S
H311 C295 0.931 . S
H312 C299 0.928 . S
H313 C298 0.929 . S
H314 C296 0.932 . S
C315 C316 1.386 . S
C315 C317 1.397 . S
C315 H339 0.931 . S
C316 C315 1.386 . S
C316 C320 1.397 . S
C317 C315 1.397 . S
C317 C318 1.384 . S
C317 H340 0.930 . S
C318 C317 1.384 . S
C318 C319 1.377 . S
C318 C321 1.481 . S
C319 C318 1.377 . S
C319 C320 1.389 . S
C319 H341 0.929 . S
C320 C316 1.397 . S
C320 C319 1.389 . S
C320 H342 0.931 . S
C321 C318 1.481 . S
C321 C322 1.387 . S
C321 C326 1.390 . S
C322 C321 1.387 . S
C322 C323 1.401 . S
C322 H343 0.930 . S
C323 C322 1.401 . S
C323 C324 1.376 . S
C323 C332 1.511 . S
C324 C323 1.376 . S
C324 C325 1.392 . S
C324 H345 0.931 . S
C325 C324 1.392 . S
C325 C326 1.361 . S
C325 C327 1.500 . S
C326 C321 1.390 . S
C326 C325 1.361 . S
C326 H344 0.931 . S
C327 C325 1.500 . S
C327 C328 1.371 . S
C327 C329 1.365 . S
C328 C327 1.371 . S
C328 C338 1.386 . S
C328 H346 0.931 . S
C329 C327 1.365 . S
C329 C330 1.409 . S
C329 H347 0.929 . S
C330 C329 1.409 . S
C330 C331 1.380 . S
C330 H348 0.930 . S
C331 C330 1.380 . S
C331 C338 1.357 . S
C332 C323 1.511 . S
C332 C333 1.341 . S
C332 C334 1.371 . S
C333 C332 1.341 . S
C333 C337 1.394 . S
C333 H349 0.930 . S
C334 C332 1.371 . S
C334 C335 1.392 . S
C334 H350 0.931 . S
C335 C334 1.392 . S
C335 C336 1.331 . S
C335 H353 0.932 . S
C336 C335 1.331 . S
C336 C337 1.336 . S
C337 C333 1.394 . S
C337 C336 1.336 . S
C337 H352 0.929 . S
C338 C328 1.386 . S
C338 C331 1.357 . S
C338 H351 0.928 . S
H339 C315 0.931 . S
H340 C317 0.930 . S
H341 C319 0.929 . S
H342 C320 0.931 . S
H343 C322 0.930 . S
H344 C326 0.931 . S
H345 C324 0.931 . S
H346 C328 0.931 . S
H347 C329 0.929 . S
H348 C330 0.930 . S
H349 C333 0.930 . S
H350 C334 0.931 . S
H351 C338 0.928 . S
H352 C337 0.929 . S
H353 C335 0.932 . S
H354 C366 0.930 . S
H355 C368 0.930 . S
H356 C369 0.930 . S
H357 C373 0.959 . S
H358 C373 0.959 . S
H359 C373 0.961 . S
H360 C374 0.960 . S
H361 C374 0.961 . S
H362 C374 0.959 . S
H363 C377 0.929 . S
H364 C378 0.931 . S
H365 C380 0.930 . S
C366 H354 0.930 . S
C366 C367 1.399 . S
C366 C371 1.399 . S
C367 C366 1.399 . S
C367 C368 1.376 . S
C368 H355 0.930 . S
C368 C367 1.376 . S
C368 C369 1.388 . S
C369 H356 0.930 . S
C369 C368 1.388 . S
C369 C370 1.390 . S
C370 C369 1.390 . S
C370 C371 1.394 . S
C370 C376 1.465 . S
C371 C366 1.399 . S
C371 C370 1.394 . S
C371 C372 1.516 . S
C372 C371 1.516 . S
C372 C373 1.502 . S
C372 C374 1.561 . S
C372 C375 1.526 . S
C373 H357 0.959 . S
C373 H358 0.959 . S
C373 H359 0.961 . S
C373 C372 1.502 . S
C374 H360 0.960 . S
C374 H361 0.961 . S
C374 H362 0.959 . S
C374 C372 1.561 . S
C375 C372 1.526 . S
C375 C376 1.396 . S
C375 C380 1.390 . S
C376 C370 1.465 . S
C376 C375 1.396 . S
C376 C377 1.399 . S
C377 H363 0.929 . S
C377 C376 1.399 . S
C377 C378 1.385 . S
C378 H364 0.931 . S
C378 C377 1.385 . S
C378 C379 1.389 . S
C379 C378 1.389 . S
C379 C380 1.387 . S
C380 H365 0.930 . S
C380 C375 1.390 . S
C380 C379 1.387 . S
H381 C393 0.930 . S
H382 C395 0.930 . S
H383 C396 0.930 . S
H384 C400 0.959 . S
H385 C400 0.959 . S
H386 C400 0.961 . S
H387 C401 0.960 . S
H388 C401 0.961 . S
H389 C401 0.959 . S
H390 C404 0.929 . S
H391 C405 0.931 . S
H392 C407 0.930 . S
C393 H381 0.930 . S
C393 C394 1.399 . S
C393 C398 1.399 . S
C394 C393 1.399 . S
C394 C395 1.376 . S
C395 H382 0.930 . S
C395 C394 1.376 . S
C395 C396 1.388 . S
C396 H383 0.930 . S
C396 C395 1.388 . S
C396 C397 1.390 . S
C397 C396 1.390 . S
C397 C398 1.394 . S
C397 C403 1.465 . S
C398 C393 1.399 . S
C398 C397 1.394 . S
C398 C399 1.516 . S
C399 C398 1.516 . S
C399 C400 1.502 . S
C399 C401 1.561 . S
C399 C402 1.526 . S
C400 H384 0.959 . S
C400 H385 0.959 . S
C400 H386 0.961 . S
C400 C399 1.502 . S
C401 H387 0.960 . S
C401 H388 0.961 . S
C401 H389 0.959 . S
C401 C399 1.561 . S
C402 C399 1.526 . S
C402 C403 1.396 . S
C402 C407 1.390 . S
C403 C397 1.465 . S
C403 C402 1.396 . S
C403 C404 1.399 . S
C404 H390 0.929 . S
C404 C403 1.399 . S
C404 C405 1.385 . S
C405 H391 0.931 . S
C405 C404 1.385 . S
C405 C406 1.389 . S
C406 C405 1.389 . S
C406 C407 1.387 . S
C407 H392 0.930 . S
C407 C402 1.390 . S
C407 C406 1.387 . S
H408 C420 0.930 . S
H409 C422 0.930 . S
H410 C423 0.930 . S
H411 C427 0.959 . S
H412 C427 0.959 . S
H413 C427 0.961 . S
H414 C428 0.960 . S
H415 C428 0.961 . S
H416 C428 0.959 . S
H417 C431 0.929 . S
H418 C432 0.931 . S
H419 C434 0.930 . S
C420 H408 0.930 . S
C420 C421 1.399 . S
C420 C425 1.399 . S
C421 C420 1.399 . S
C421 C422 1.376 . S
C422 H409 0.930 . S
C422 C421 1.376 . S
C422 C423 1.388 . S
C423 H410 0.930 . S
C423 C422 1.388 . S
C423 C424 1.390 . S
C424 C423 1.390 . S
C424 C425 1.394 . S
C424 C430 1.465 . S
C425 C420 1.399 . S
C425 C424 1.394 . S
C425 C426 1.516 . S
C426 C425 1.516 . S
C426 C427 1.502 . S
C426 C428 1.561 . S
C426 C429 1.526 . S
C427 H411 0.959 . S
C427 H412 0.959 . S
C427 H413 0.961 . S
C427 C426 1.502 . S
C428 H414 0.960 . S
C428 H415 0.961 . S
C428 H416 0.959 . S
C428 C426 1.561 . S
C429 C426 1.526 . S
C429 C430 1.396 . S
C429 C434 1.390 . S
C430 C424 1.465 . S
C430 C429 1.396 . S
C430 C431 1.399 . S
C431 H417 0.929 . S
C431 C430 1.399 . S
C431 C432 1.385 . S
C432 H418 0.931 . S
C432 C431 1.385 . S
C432 C433 1.389 . S
C433 C432 1.389 . S
C433 C434 1.387 . S
C434 H419 0.930 . S
C434 C429 1.390 . S
C434 C433 1.387 . S
H435 C447 0.930 . S
H436 C449 0.930 . S
H437 C450 0.930 . S
H438 C454 0.959 . S
H439 C454 0.959 . S
H440 C454 0.961 . S
H441 C455 0.960 . S
H442 C455 0.961 . S
H443 C455 0.959 . S
H444 C458 0.929 . S
H445 C459 0.931 . S
H446 C461 0.930 . S
C447 H435 0.930 . S
C447 C448 1.399 . S
C447 C452 1.399 . S
C448 C447 1.399 . S
C448 C449 1.376 . S
C449 H436 0.930 . S
C449 C448 1.376 . S
C449 C450 1.388 . S
C450 H437 0.930 . S
C450 C449 1.388 . S
C450 C451 1.390 . S
C451 C450 1.390 . S
C451 C452 1.394 . S
C451 C457 1.465 . S
C452 C447 1.399 . S
C452 C451 1.394 . S
C452 C453 1.516 . S
C453 C452 1.516 . S
C453 C454 1.502 . S
C453 C455 1.561 . S
C453 C456 1.526 . S
C454 H438 0.959 . S
C454 H439 0.959 . S
C454 H440 0.961 . S
C454 C453 1.502 . S
C455 H441 0.960 . S
C455 H442 0.961 . S
C455 H443 0.959 . S
C455 C453 1.561 . S
C456 C453 1.526 . S
C456 C457 1.396 . S
C456 C461 1.390 . S
C457 C451 1.465 . S
C457 C456 1.396 . S
C457 C458 1.399 . S
C458 H444 0.929 . S
C458 C457 1.399 . S
C458 C459 1.385 . S
C459 H445 0.931 . S
C459 C458 1.385 . S
C459 C460 1.389 . S
C460 C459 1.389 . S
C460 C461 1.387 . S
C461 H446 0.930 . S
C461 C456 1.390 . S
C461 C460 1.387 . S
H462 C474 0.930 . S
H463 C476 0.930 . S
H464 C477 0.930 . S
H465 C481 0.959 . S
H466 C481 0.959 . S
H467 C481 0.961 . S
H468 C482 0.960 . S
H469 C482 0.961 . S
H470 C482 0.959 . S
H471 C485 0.929 . S
H472 C486 0.931 . S
H473 C488 0.930 . S
C474 H462 0.930 . S
C474 C475 1.399 . S
C474 C479 1.399 . S
C475 C474 1.399 . S
C475 C476 1.376 . S
C476 H463 0.930 . S
C476 C475 1.376 . S
C476 C477 1.388 . S
C477 H464 0.930 . S
C477 C476 1.388 . S
C477 C478 1.390 . S
C478 C477 1.390 . S
C478 C479 1.394 . S
C478 C484 1.465 . S
C479 C474 1.399 . S
C479 C478 1.394 . S
C479 C480 1.516 . S
C480 C479 1.516 . S
C480 C481 1.502 . S
C480 C482 1.561 . S
C480 C483 1.526 . S
C481 H465 0.959 . S
C481 H466 0.959 . S
C481 H467 0.961 . S
C481 C480 1.502 . S
C482 H468 0.960 . S
C482 H469 0.961 . S
C482 H470 0.959 . S
C482 C480 1.561 . S
C483 C480 1.526 . S
C483 C484 1.396 . S
C483 C488 1.390 . S
C484 C478 1.465 . S
C484 C483 1.396 . S
C484 C485 1.399 . S
C485 H471 0.929 . S
C485 C484 1.399 . S
C485 C486 1.385 . S
C486 H472 0.931 . S
C486 C485 1.385 . S
C486 C487 1.389 . S
C487 C486 1.389 . S
C487 C488 1.387 . S
C488 H473 0.930 . S
C488 C483 1.390 . S
C488 C487 1.387 . S
H489 C501 0.930 . S
H490 C503 0.930 . S
H491 C504 0.930 . S
H492 C508 0.959 . S
H493 C508 0.959 . S
H494 C508 0.961 . S
H495 C509 0.960 . S
H496 C509 0.961 . S
H497 C509 0.959 . S
H498 C512 0.929 . S
H499 C513 0.931 . S
H500 C515 0.930 . S
C501 H489 0.930 . S
C501 C502 1.399 . S
C501 C506 1.399 . S
C502 C501 1.399 . S
C502 C503 1.376 . S
C503 H490 0.930 . S
C503 C502 1.376 . S
C503 C504 1.388 . S
C504 H491 0.930 . S
C504 C503 1.388 . S
C504 C505 1.390 . S
C505 C504 1.390 . S
C505 C506 1.394 . S
C505 C511 1.465 . S
C506 C501 1.399 . S
C506 C505 1.394 . S
C506 C507 1.516 . S
C507 C506 1.516 . S
C507 C508 1.502 . S
C507 C509 1.561 . S
C507 C510 1.526 . S
C508 H492 0.959 . S
C508 H493 0.959 . S
C508 H494 0.961 . S
C508 C507 1.502 . S
C509 H495 0.960 . S
C509 H496 0.961 . S
C509 H497 0.959 . S
C509 C507 1.561 . S
C510 C507 1.526 . S
C510 C511 1.396 . S
C510 C515 1.390 . S
C511 C505 1.465 . S
C511 C510 1.396 . S
C511 C512 1.399 . S
C512 H498 0.929 . S
C512 C511 1.399 . S
C512 C513 1.385 . S
C513 H499 0.931 . S
C513 C512 1.385 . S
C513 C514 1.389 . S
C514 C513 1.389 . S
C514 C515 1.387 . S
C515 H500 0.930 . S
C515 C510 1.390 . S
C515 C514 1.387 . S
H516 C528 0.930 . S
H517 C530 0.930 . S
H518 C531 0.930 . S
H519 C535 0.959 . S
H520 C535 0.959 . S
H521 C535 0.961 . S
H522 C536 0.960 . S
H523 C536 0.961 . S
H524 C536 0.959 . S
H525 C539 0.929 . S
H526 C540 0.931 . S
H527 C542 0.930 . S
C528 H516 0.930 . S
C528 C529 1.399 . S
C528 C533 1.399 . S
C529 C528 1.399 . S
C529 C530 1.376 . S
C530 H517 0.930 . S
C530 C529 1.376 . S
C530 C531 1.388 . S
C531 H518 0.930 . S
C531 C530 1.388 . S
C531 C532 1.390 . S
C532 C531 1.390 . S
C532 C533 1.394 . S
C532 C538 1.465 . S
C533 C528 1.399 . S
C533 C532 1.394 . S
C533 C534 1.516 . S
C534 C533 1.516 . S
C534 C535 1.502 . S
C534 C536 1.561 . S
C534 C537 1.526 . S
C535 H519 0.959 . S
C535 H520 0.959 . S
C535 H521 0.961 . S
C535 C534 1.502 . S
C536 H522 0.960 . S
C536 H523 0.961 . S
C536 H524 0.959 . S
C536 C534 1.561 . S
C537 C534 1.526 . S
C537 C538 1.396 . S
C537 C542 1.390 . S
C538 C532 1.465 . S
C538 C537 1.396 . S
C538 C539 1.399 . S
C539 H525 0.929 . S
C539 C538 1.399 . S
C539 C540 1.385 . S
C540 H526 0.931 . S
C540 C539 1.385 . S
C540 C541 1.389 . S
C541 C540 1.389 . S
C541 C542 1.387 . S
C542 H527 0.930 . S
C542 C537 1.390 . S
C542 C541 1.387 . S
H543 C555 0.930 . S
H544 C557 0.930 . S
H545 C558 0.930 . S
H546 C562 0.959 . S
H547 C562 0.959 . S
H548 C562 0.961 . S
H549 C563 0.960 . S
H550 C563 0.961 . S
H551 C563 0.959 . S
H552 C566 0.929 . S
H553 C567 0.931 . S
H554 C569 0.930 . S
C555 H543 0.930 . S
C555 C556 1.399 . S
C555 C560 1.399 . S
C556 C555 1.399 . S
C556 C557 1.376 . S
C557 H544 0.930 . S
C557 C556 1.376 . S
C557 C558 1.388 . S
C558 H545 0.930 . S
C558 C557 1.388 . S
C558 C559 1.390 . S
C559 C558 1.390 . S
C559 C560 1.394 . S
C559 C565 1.465 . S
C560 C555 1.399 . S
C560 C559 1.394 . S
C560 C561 1.516 . S
C561 C560 1.516 . S
C561 C562 1.502 . S
C561 C563 1.561 . S
C561 C564 1.526 . S
C562 H546 0.959 . S
C562 H547 0.959 . S
C562 H548 0.961 . S
C562 C561 1.502 . S
C563 H549 0.960 . S
C563 H550 0.961 . S
C563 H551 0.959 . S
C563 C561 1.561 . S
C564 C561 1.526 . S
C564 C565 1.396 . S
C564 C569 1.390 . S
C565 C559 1.465 . S
C565 C564 1.396 . S
C565 C566 1.399 . S
C566 H552 0.929 . S
C566 C565 1.399 . S
C566 C567 1.385 . S
C567 H553 0.931 . S
C567 C566 1.385 . S
C567 C568 1.389 . S
C568 C567 1.389 . S
C568 C569 1.387 . S
C569 H554 0.930 . S
C569 C564 1.390 . S
C569 C568 1.387 . S
H570 C582 0.930 . S
H571 C584 0.930 . S
H572 C585 0.930 . S
H573 C589 0.959 . S
H574 C589 0.959 . S
H575 C589 0.961 . S
H576 C590 0.960 . S
H577 C590 0.961 . S
H578 C590 0.959 . S
H579 C593 0.929 . S
H580 C594 0.931 . S
H581 C596 0.930 . S
C582 H570 0.930 . S
C582 C583 1.399 . S
C582 C587 1.399 . S
C583 C582 1.399 . S
C583 C584 1.376 . S
C584 H571 0.930 . S
C584 C583 1.376 . S
C584 C585 1.388 . S
C585 H572 0.930 . S
C585 C584 1.388 . S
C585 C586 1.390 . S
C586 C585 1.390 . S
C586 C587 1.394 . S
C586 C592 1.465 . S
C587 C582 1.399 . S
C587 C586 1.394 . S
C587 C588 1.516 . S
C588 C587 1.516 . S
C588 C589 1.502 . S
C588 C590 1.561 . S
C588 C591 1.526 . S
C589 H573 0.959 . S
C589 H574 0.959 . S
C589 H575 0.961 . S
C589 C588 1.502 . S
C590 H576 0.960 . S
C590 H577 0.961 . S
C590 H578 0.959 . S
C590 C588 1.561 . S
C591 C588 1.526 . S
C591 C592 1.396 . S
C591 C596 1.390 . S
C592 C586 1.465 . S
C592 C591 1.396 . S
C592 C593 1.399 . S
C593 H579 0.929 . S
C593 C592 1.399 . S
C593 C594 1.385 . S
C594 H580 0.931 . S
C594 C593 1.385 . S
C594 C595 1.389 . S
C595 C594 1.389 . S
C595 C596 1.387 . S
C596 H581 0.930 . S
C596 C591 1.390 . S
C596 C595 1.387 . S
H597 C609 0.930 . S
H598 C611 0.930 . S
H599 C612 0.930 . S
H600 C616 0.959 . S
H601 C616 0.959 . S
H602 C616 0.961 . S
H603 C617 0.960 . S
H604 C617 0.961 . S
H605 C617 0.959 . S
H606 C620 0.929 . S
H607 C621 0.931 . S
H608 C623 0.930 . S
C609 H597 0.930 . S
C609 C610 1.399 . S
C609 C614 1.399 . S
C610 C609 1.399 . S
C610 C611 1.376 . S
C611 H598 0.930 . S
C611 C610 1.376 . S
C611 C612 1.388 . S
C612 H599 0.930 . S
C612 C611 1.388 . S
C612 C613 1.390 . S
C613 C612 1.390 . S
C613 C614 1.394 . S
C613 C619 1.465 . S
C614 C609 1.399 . S
C614 C613 1.394 . S
C614 C615 1.516 . S
C615 C614 1.516 . S
C615 C616 1.502 . S
C615 C617 1.561 . S
C615 C618 1.526 . S
C616 H600 0.959 . S
C616 H601 0.959 . S
C616 H602 0.961 . S
C616 C615 1.502 . S
C617 H603 0.960 . S
C617 H604 0.961 . S
C617 H605 0.959 . S
C617 C615 1.561 . S
C618 C615 1.526 . S
C618 C619 1.396 . S
C618 C623 1.390 . S
C619 C613 1.465 . S
C619 C618 1.396 . S
C619 C620 1.399 . S
C620 H606 0.929 . S
C620 C619 1.399 . S
C620 C621 1.385 . S
C621 H607 0.931 . S
C621 C620 1.385 . S
C621 C622 1.389 . S
C622 C621 1.389 . S
C622 C623 1.387 . S
C623 H608 0.930 . S
C623 C618 1.390 . S
C623 C622 1.387 . S
H624 C636 0.930 . S
H625 C638 0.930 . S
H626 C639 0.930 . S
H627 C643 0.959 . S
H628 C643 0.959 . S
H629 C643 0.961 . S
H630 C644 0.960 . S
H631 C644 0.961 . S
H632 C644 0.959 . S
H633 C647 0.929 . S
H634 C648 0.931 . S
H635 C650 0.930 . S
C636 H624 0.930 . S
C636 C637 1.399 . S
C636 C641 1.399 . S
C637 C636 1.399 . S
C637 C638 1.376 . S
C638 H625 0.930 . S
C638 C637 1.376 . S
C638 C639 1.388 . S
C639 H626 0.930 . S
C639 C638 1.388 . S
C639 C640 1.390 . S
C640 C639 1.390 . S
C640 C641 1.394 . S
C640 C646 1.465 . S
C641 C636 1.399 . S
C641 C640 1.394 . S
C641 C642 1.516 . S
C642 C641 1.516 . S
C642 C643 1.502 . S
C642 C644 1.561 . S
C642 C645 1.526 . S
C643 H627 0.959 . S
C643 H628 0.959 . S
C643 H629 0.961 . S
C643 C642 1.502 . S
C644 H630 0.960 . S
C644 H631 0.961 . S
C644 H632 0.959 . S
C644 C642 1.561 . S
C645 C642 1.526 . S
C645 C646 1.396 . S
C645 C650 1.390 . S
C646 C640 1.465 . S
C646 C645 1.396 . S
C646 C647 1.399 . S
C647 H633 0.929 . S
C647 C646 1.399 . S
C647 C648 1.385 . S
C648 H634 0.931 . S
C648 C647 1.385 . S
C648 C649 1.389 . S
C649 C648 1.389 . S
C649 C650 1.387 . S
C650 H635 0.930 . S
C650 C645 1.390 . S
C650 C649 1.387 . S
H651 C663 0.930 . S
H652 C665 0.930 . S
H653 C666 0.930 . S
H654 C670 0.959 . S
H655 C670 0.959 . S
H656 C670 0.961 . S
H657 C671 0.960 . S
H658 C671 0.961 . S
H659 C671 0.959 . S
H660 C674 0.929 . S
H661 C675 0.931 . S
H662 C677 0.930 . S
C663 H651 0.930 . S
C663 C664 1.399 . S
C663 C668 1.399 . S
C664 C663 1.399 . S
C664 C665 1.376 . S
C665 H652 0.930 . S
C665 C664 1.376 . S
C665 C666 1.388 . S
C666 H653 0.930 . S
C666 C665 1.388 . S
C666 C667 1.390 . S
C667 C666 1.390 . S
C667 C668 1.394 . S
C667 C673 1.465 . S
C668 C663 1.399 . S
C668 C667 1.394 . S
C668 C669 1.516 . S
C669 C668 1.516 . S
C669 C670 1.502 . S
C669 C671 1.561 . S
C669 C672 1.526 . S
C670 H654 0.959 . S
C670 H655 0.959 . S
C670 H656 0.961 . S
C670 C669 1.502 . S
C671 H657 0.960 . S
C671 H658 0.961 . S
C671 H659 0.959 . S
C671 C669 1.561 . S
C672 C669 1.526 . S
C672 C673 1.396 . S
C672 C677 1.390 . S
C673 C667 1.465 . S
C673 C672 1.396 . S
C673 C674 1.399 . S
C674 H660 0.929 . S
C674 C673 1.399 . S
C674 C675 1.385 . S
C675 H661 0.931 . S
C675 C674 1.385 . S
C675 C676 1.389 . S
C676 C675 1.389 . S
C676 C677 1.387 . S
C677 H662 0.930 . S
C677 C672 1.390 . S
C677 C676 1.387 . S
H678 C690 0.930 . S
H679 C692 0.930 . S
H680 C693 0.930 . S
H681 C697 0.969 . S
H682 C697 0.959 1_455 S
H683 C697 0.965 . S
H684 C698 0.960 . S
H685 C698 0.961 . S
H686 C698 0.959 . S
H687 C701 0.929 . S
H688 C702 0.931 . S
H689 C704 0.930 . S
C690 H678 0.930 . S
C690 C691 1.399 . S
C690 C695 1.399 . S
C691 C690 1.399 . S
C691 C692 1.376 . S
C692 H679 0.930 . S
C692 C691 1.376 . S
C692 C693 1.388 . S
C693 H680 0.930 . S
C693 C692 1.388 . S
C693 C694 1.390 . S
C694 C693 1.390 . S
C694 C695 1.394 . S
C694 C700 1.465 . S
C695 C690 1.399 . S
C695 C694 1.394 . S
C695 C696 1.516 . S
C696 C695 1.516 . S
C696 C697 1.489 1_455 S
C696 C698 1.561 . S
C696 C699 1.526 . S
C697 H681 0.969 . S
C697 H682 0.959 1_655 S
C697 H683 0.965 . S
C697 C696 1.489 1_655 S
C698 H684 0.960 . S
C698 H685 0.961 . S
C698 H686 0.959 . S
C698 C696 1.561 . S
C699 C696 1.526 . S
C699 C700 1.396 . S
C699 C704 1.390 . S
C700 C694 1.465 . S
C700 C699 1.396 . S
C700 C701 1.399 . S
C701 H687 0.929 . S
C701 C700 1.399 . S
C701 C702 1.385 . S
C702 H688 0.931 . S
C702 C701 1.385 . S
C702 C703 1.389 . S
C703 C702 1.389 . S
C703 C704 1.387 . S
C704 H689 0.930 . S
C704 C699 1.390 . S
C704 C703 1.387 . S
H705 C717 0.930 . S
H706 C719 0.928 1_565 S
H707 C720 0.930 . S
H708 C724 0.959 . S
H709 C724 0.959 . S
H710 C724 0.961 . S
H711 C725 0.960 . S
H712 C725 0.961 . S
H713 C725 0.959 . S
H714 C728 0.929 1_565 S
H715 C729 0.931 1_565 S
H716 C731 0.930 . S
C717 H705 0.930 . S
C717 C718 1.399 . S
C717 C722 1.399 . S
C718 C717 1.399 . S
C718 C719 1.380 . S
C719 H706 0.928 1_545 S
C719 C718 1.380 . S
C719 C720 1.388 1_545 S
C720 H707 0.930 . S
C720 C719 1.388 1_565 S
C720 C721 1.390 1_565 S
C721 C720 1.390 1_545 S
C721 C722 1.394 . S
C721 C727 1.465 . S
C722 C717 1.399 . S
C722 C721 1.394 . S
C722 C723 1.516 . S
C723 C722 1.516 . S
C723 C724 1.502 . S
C723 C725 1.561 . S
C723 C726 1.526 . S
C724 H708 0.959 . S
C724 H709 0.959 . S
C724 H710 0.961 . S
C724 C723 1.502 . S
C725 H711 0.960 . S
C725 H712 0.961 . S
C725 H713 0.959 . S
C725 C723 1.561 . S
C726 C723 1.526 . S
C726 C727 1.396 . S
C726 C731 1.390 . S
C727 C721 1.465 . S
C727 C726 1.396 . S
C727 C728 1.399 . S
C728 H714 0.929 1_545 S
C728 C727 1.399 . S
C728 C729 1.385 . S
C729 H715 0.931 1_545 S
C729 C728 1.385 . S
C729 C730 1.389 . S
C730 C729 1.389 . S
C730 C731 1.387 . S
C731 H716 0.930 . S
C731 C726 1.390 . S
C731 C730 1.387 . S
H732 C744 0.930 . S
H733 C746 0.930 . S
H734 C747 0.930 . S
H735 C751 0.959 . S
H736 C751 0.959 . S
H737 C751 0.961 . S
H738 C752 0.960 . S
H739 C752 0.961 . S
H740 C752 0.959 . S
H741 C755 0.929 . S
H742 C756 0.931 . S
H743 C758 0.930 . S
C744 H732 0.930 . S
C744 C745 1.399 . S
C744 C749 1.399 . S
C745 C744 1.399 . S
C745 C746 1.376 . S
C746 H733 0.930 . S
C746 C745 1.376 . S
C746 C747 1.388 . S
C747 H734 0.930 . S
C747 C746 1.388 . S
C747 C748 1.390 . S
C748 C747 1.390 . S
C748 C749 1.394 . S
C748 C754 1.465 . S
C749 C744 1.399 . S
C749 C748 1.394 . S
C749 C750 1.516 . S
C750 C749 1.516 . S
C750 C751 1.502 . S
C750 C752 1.561 . S
C750 C753 1.526 . S
C751 H735 0.959 . S
C751 H736 0.959 . S
C751 H737 0.961 . S
C751 C750 1.502 . S
C752 H738 0.960 . S
C752 H739 0.961 . S
C752 H740 0.959 . S
C752 C750 1.561 . S
C753 C750 1.526 . S
C753 C754 1.396 . S
C753 C758 1.390 . S
C754 C748 1.465 . S
C754 C753 1.396 . S
C754 C755 1.399 . S
C755 H741 0.929 . S
C755 C754 1.399 . S
C755 C756 1.385 . S
C756 H742 0.931 . S
C756 C755 1.385 . S
C756 C757 1.389 . S
C757 C756 1.389 . S
C757 C758 1.387 . S
C758 H743 0.930 . S
C758 C753 1.390 . S
C758 C757 1.387 . S
H759 C771 0.930 . S
H760 C773 0.930 . S
H761 C774 0.930 . S
H762 C778 0.959 . S
H763 C778 0.959 . S
H764 C778 0.961 . S
H765 C779 0.960 . S
H766 C779 0.961 . S
H767 C779 0.959 . S
H768 C782 0.929 . S
H769 C783 0.931 . S
H770 C785 0.930 . S
C771 H759 0.930 . S
C771 C772 1.399 1_565 S
C771 C776 1.399 . S
C772 C771 1.399 1_545 S
C772 C773 1.376 . S
C773 H760 0.930 . S
C773 C772 1.376 . S
C773 C774 1.388 . S
C774 H761 0.930 . S
C774 C773 1.388 . S
C774 C775 1.390 . S
C775 C774 1.390 . S
C775 C776 1.394 1_545 S
C775 C781 1.465 . S
C776 C771 1.399 . S
C776 C775 1.394 1_565 S
C776 C777 1.516 . S
C777 C776 1.516 . S
C777 C778 1.502 . S
C777 C779 1.561 . S
C777 C780 1.526 . S
C778 H762 0.959 . S
C778 H763 0.959 . S
C778 H764 0.961 . S
C778 C777 1.502 . S
C779 H765 0.960 . S
C779 H766 0.961 . S
C779 H767 0.959 . S
C779 C777 1.561 . S
C780 C777 1.526 . S
C780 C781 1.396 1_565 S
C780 C785 1.390 . S
C781 C775 1.465 . S
C781 C780 1.396 1_545 S
C781 C782 1.399 . S
C782 H768 0.929 . S
C782 C781 1.399 . S
C782 C783 1.385 . S
C783 H769 0.931 . S
C783 C782 1.385 . S
C783 C784 1.389 . S
C784 C783 1.389 . S
C784 C785 1.387 1_545 S
C785 H770 0.930 . S
C785 C780 1.390 . S
C785 C784 1.387 1_565 S
H786 C798 0.930 . S
H787 C800 0.930 . S
H788 C801 0.930 . S
H789 C805 0.959 . S
H790 C805 0.959 . S
H791 C805 0.961 . S
H792 C806 0.960 . S
H793 C806 0.961 . S
H794 C806 0.959 . S
H795 C809 0.929 . S
H796 C810 0.931 . S
H797 C812 0.930 . S
C798 H786 0.930 . S
C798 C799 1.399 . S
C798 C803 1.399 . S
C799 C798 1.399 . S
C799 C800 1.376 . S
C800 H787 0.930 . S
C800 C799 1.376 . S
C800 C801 1.388 . S
C801 H788 0.930 . S
C801 C800 1.388 . S
C801 C802 1.390 . S
C802 C801 1.390 . S
C802 C803 1.394 . S
C802 C808 1.465 . S
C803 C798 1.399 . S
C803 C802 1.394 . S
C803 C804 1.516 . S
C804 C803 1.516 . S
C804 C805 1.502 . S
C804 C806 1.561 . S
C804 C807 1.526 . S
C805 H789 0.959 . S
C805 H790 0.959 . S
C805 H791 0.961 . S
C805 C804 1.502 . S
C806 H792 0.960 . S
C806 H793 0.961 . S
C806 H794 0.959 . S
C806 C804 1.561 . S
C807 C804 1.526 . S
C807 C808 1.396 . S
C807 C812 1.390 . S
C808 C802 1.465 . S
C808 C807 1.396 . S
C808 C809 1.399 . S
C809 H795 0.929 . S
C809 C808 1.399 . S
C809 C810 1.385 . S
C810 H796 0.931 . S
C810 C809 1.385 . S
C810 C811 1.389 . S
C811 C810 1.389 . S
C811 C812 1.387 . S
C812 H797 0.930 . S
C812 C807 1.390 . S
C812 C811 1.387 . S
H813 C825 0.930 . S
H814 C827 0.930 . S
H815 C828 0.930 . S
H816 C832 0.959 . S
H817 C832 0.959 . S
H818 C832 0.961 . S
H819 C833 0.960 . S
H820 C833 0.961 . S
H821 C833 0.959 . S
H822 C836 0.929 . S
H823 C837 0.931 . S
H824 C839 0.930 . S
C825 H813 0.930 . S
C825 C826 1.402 . S
C825 C830 1.399 . S
C826 C825 1.402 . S
C826 C827 1.372 1_455 S
C827 H814 0.930 . S
C827 C826 1.372 1_655 S
C827 C828 1.388 . S
C828 H815 0.930 . S
C828 C827 1.388 . S
C828 C829 1.390 . S
C829 C828 1.390 . S
C829 C830 1.394 1_655 S
C829 C835 1.465 . S
C830 C825 1.399 . S
C830 C829 1.394 1_455 S
C830 C831 1.516 . S
C831 C830 1.516 . S
C831 C832 1.502 . S
C831 C833 1.561 . S
C831 C834 1.526 . S
C832 H816 0.959 . S
C832 H817 0.959 . S
C832 H818 0.961 . S
C832 C831 1.502 . S
C833 H819 0.960 . S
C833 H820 0.961 . S
C833 H821 0.959 . S
C833 C831 1.561 . S
C834 C831 1.526 . S
C834 C835 1.396 1_455 S
C834 C839 1.390 . S
C835 C829 1.465 . S
C835 C834 1.396 1_655 S
C835 C836 1.399 . S
C836 H822 0.929 . S
C836 C835 1.399 . S
C836 C837 1.385 . S
C837 H823 0.931 . S
C837 C836 1.385 . S
C837 C838 1.389 . S
C838 C837 1.389 . S
C838 C839 1.387 1_655 S
C839 H824 0.930 . S
C839 C834 1.390 . S
C839 C838 1.387 1_455 S
C367 C24 2.946 . S
C379 C331 2.895 . S
C394 C66 1.093 . S
C406 C258 1.162 . S
C421 C93 1.854 . S
C433 C297 1.827 . S
C448 C13 3.079 . S
C460 C336 3.034 . S
C487 C253 1.291 . S
C475 C57 1.294 . S
C514 C292 1.901 . S
C502 C104 1.969 . S
C529 C64 1.962 . S
C541 C180 1.925 . S
C556 C97 0.636 . S
C568 C214 0.514 . S
C583 C17 1.294 . S
C595 C136 1.310 . S
C622 C175 1.766 . S
C610 C53 1.837 . S
C649 C219 0.236 . S
C637 C106 0.257 . S
C664 C26 1.174 . S
C676 C141 1.181 . S
C703 C199 1.068 1_554 S
C691 C2 1.049 . S
C718 C63 1.461 . S
C730 C121 1.493 . S
C745 C82 1.338 . S
C757 C160 1.376 . S
C784 C277 1.396 . S
C772 C42 1.352 . S
C811 C316 1.781 1_556 S
C799 C103 1.712 . S
C826 C23 1.494 . S
C838 C238 1.507 . S
