# Generated by pormake.
# Topology llj, (12,3)-cn, num edge types: 1
# Building blocks:
#     Node 0, Type 0, BuildingBlock: QEWDON_clean_sbu_0, # of connection points: 12
#     Node 1, Type 0, BuildingBlock: QEWDON_clean_sbu_0, # of connection points: 12
#     Node 2, Type 1, BuildingBlock: KAKCAD_clean_linker_0, # of connection points: 3
#     Node 3, Type 1, BuildingBlock: KAKCAD_clean_linker_0, # of connection points: 3
#     Node 4, Type 1, BuildingBlock: KAKCAD_clean_linker_0, # of connection points: 3
#     Node 5, Type 1, BuildingBlock: KAKCAD_clean_linker_0, # of connection points: 3
#     Node 6, Type 1, BuildingBlock: KAKCAD_clean_linker_0, # of connection points: 3
#     Node 7, Type 1, BuildingBlock: KAKCAD_clean_linker_0, # of connection points: 3
#     Node 8, Type 1, BuildingBlock: KAKCAD_clean_linker_0, # of connection points: 3
#     Node 9, Type 1, BuildingBlock: KAKCAD_clean_linker_0, # of connection points: 3
#     Edge 10, Type (0, 1), BuildingBlock: CIFDUS_clean_linker_0, # of connection points: 2
#     Edge 11, Type (0, 1), BuildingBlock: CIFDUS_clean_linker_0, # of connection points: 2
#     Edge 12, Type (0, 1), BuildingBlock: CIFDUS_clean_linker_0, # of connection points: 2
#     Edge 13, Type (0, 1), BuildingBlock: CIFDUS_clean_linker_0, # of connection points: 2
#     Edge 14, Type (0, 1), BuildingBlock: CIFDUS_clean_linker_0, # of connection points: 2
#     Edge 15, Type (0, 1), BuildingBlock: CIFDUS_clean_linker_0, # of connection points: 2
#     Edge 16, Type (0, 1), BuildingBlock: CIFDUS_clean_linker_0, # of connection points: 2
#     Edge 17, Type (0, 1), BuildingBlock: CIFDUS_clean_linker_0, # of connection points: 2
#     Edge 18, Type (0, 1), BuildingBlock: CIFDUS_clean_linker_0, # of connection points: 2
#     Edge 19, Type (0, 1), BuildingBlock: CIFDUS_clean_linker_0, # of connection points: 2
#     Edge 20, Type (0, 1), BuildingBlock: CIFDUS_clean_linker_0, # of connection points: 2
#     Edge 21, Type (0, 1), BuildingBlock: CIFDUS_clean_linker_0, # of connection points: 2
#     Edge 22, Type (0, 1), BuildingBlock: CIFDUS_clean_linker_0, # of connection points: 2
#     Edge 23, Type (0, 1), BuildingBlock: CIFDUS_clean_linker_0, # of connection points: 2
#     Edge 24, Type (0, 1), BuildingBlock: CIFDUS_clean_linker_0, # of connection points: 2
#     Edge 25, Type (0, 1), BuildingBlock: CIFDUS_clean_linker_0, # of connection points: 2
#     Edge 26, Type (0, 1), BuildingBlock: CIFDUS_clean_linker_0, # of connection points: 2
#     Edge 27, Type (0, 1), BuildingBlock: CIFDUS_clean_linker_0, # of connection points: 2
#     Edge 28, Type (0, 1), BuildingBlock: CIFDUS_clean_linker_0, # of connection points: 2
#     Edge 29, Type (0, 1), BuildingBlock: CIFDUS_clean_linker_0, # of connection points: 2
#     Edge 30, Type (0, 1), BuildingBlock: CIFDUS_clean_linker_0, # of connection points: 2
#     Edge 31, Type (0, 1), BuildingBlock: CIFDUS_clean_linker_0, # of connection points: 2
#     Edge 32, Type (0, 1), BuildingBlock: CIFDUS_clean_linker_0, # of connection points: 2
#     Edge 33, Type (0, 1), BuildingBlock: CIFDUS_clean_linker_0, # of connection points: 2
# Relax obj value: 0.011
# Max RMSD: 0.054
# Mean RMSD: 0.050
data_MOF--net-llj--node1-QEWDON_clean_sbu_0--node2-KAKCAD_clean_linker_0--edge1-CIFDUS_clean_linker_0
_symmetry_space_group_name_H-M    P1
_symmetry_Int_Tables_number       1
_symmetry_cell_setting            triclinic
loop_
_symmetry_equiv_pos_as_xyz
'x, y, z'
_cell_length_a     41.331198
_cell_length_b     41.305061
_cell_length_c     28.803234
_cell_angle_alpha  89.992053
_cell_angle_beta   89.894946
_cell_angle_gamma 90.04876
loop_
_atom_site_label
_atom_site_type_symbol
_atom_site_fract_x
_atom_site_fract_y
_atom_site_fract_z
_atom_type_partial_charge
Zn0 Zn 0.95031 0.068 0.96035 0.0
Zn1 Zn 0.94697 0.05078 0.06736 0.0
O2 O 0.97718 0.05037 0.01327 0.0
H3 H 0.99502 0.03553 0.00911 0.0
C4 C 0.90573 0.98956 0.90464 0.0
O5 O 0.91415 0.00328 0.94393 0.0
Zn6 Zn 0.05146 0.94352 0.08409 0.0
Zn7 Zn 0.05226 0.93639 0.97335 0.0
O8 O 0.02509 0.95071 0.02753 0.0
H9 H 0.01 0.96847 0.02555 0.0
Zn10 Zn 0.92472 0.93316 0.9565 0.0
O11 O 0.94217 0.95989 0.00876 0.0
Zn12 Zn 0.9363 0.93457 0.06674 0.0
H13 H 0.95672 0.97793 0.00429 0.0
Zn14 Zn 0.07565 0.06447 0.96923 0.0
O15 O 0.06963 0.03109 0.01999 0.0
H16 H 0.06434 0.00854 0.01542 0.0
Zn17 Zn 0.06512 0.05727 0.07757 0.0
C18 C 0.07492 0.02131 0.89254 0.0
O19 O 0.05059 0.01085 0.91784 0.0
O20 O 0.90916 0.09251 0.98024 0.0
O21 O 0.90875 0.08102 0.05571 0.0
O22 O 0.09442 0.91365 0.99248 0.0
O23 O 0.09079 0.91515 0.06983 0.0
O24 O 0.90081 0.89251 0.97807 0.0
O25 O 0.90899 0.89412 0.05442 0.0
C26 C 0.00129 0.06682 0.12571 0.0
O27 O 0.09579 0.10681 0.99291 0.0
O28 O 0.08839 0.10047 0.06896 0.0
O29 O 0.02653 0.91816 0.9177 0.0
C30 C 0.89652 0.09522 0.02045 0.0
O31 O 0.97474 0.0809 0.90039 0.0
C32 C 0.99345 0.91899 0.12725 0.0
O33 O 0.9072 0.95895 0.90092 0.0
C34 C 0.10518 0.9064 0.03256 0.0
O35 O 0.09048 0.04605 0.9061 0.0
C36 C 0.91807 0.99313 0.11118 0.0
O37 O 0.97063 0.06459 0.12544 0.0
O38 O 0.01688 0.0615 0.08843 0.0
C39 C 0.89683 0.88064 0.01852 0.0
O40 O 0.02363 0.92255 0.13365 0.0
O41 O 0.9818 0.92635 0.08791 0.0
C42 C 0.08221 0.00239 0.13176 0.0
O43 O 0.91497 0.96266 0.11512 0.0
O44 O 0.93282 0.00461 0.07622 0.0
C45 C 0.09906 0.11681 0.03449 0.0
O46 O 0.0864 0.03283 0.12992 0.0
O47 O 0.06409 0.9892 0.10164 0.0
C48 C 0.0025 0.9343 0.90296 0.0
O49 O 0.99534 0.962 0.92284 0.0
C50 C 0.98553 0.05837 0.87469 0.0
O51 O 0.97984 0.02817 0.88646 0.0
Zn52 Zn 0.44024 0.56237 0.4457 0.0
Zn53 Zn 0.44395 0.56544 0.55639 0.0
O54 O 0.47041 0.55716 0.50007 0.0
H55 H 0.49102 0.54621 0.49908 0.0
C56 C 0.40617 0.50249 0.41358 0.0
O57 O 0.39304 0.50669 0.45473 0.0
Zn58 Zn 0.55401 0.42535 0.5755 0.0
Zn59 Zn 0.56636 0.4344 0.47473 0.0
O60 O 0.52844 0.42367 0.51746 0.0
H61 H 0.50621 0.42987 0.51233 0.0
Zn62 Zn 0.43672 0.45137 0.4647 0.0
O63 O 0.45406 0.47649 0.51968 0.0
Zn64 Zn 0.44361 0.45028 0.57546 0.0
H65 H 0.47241 0.4909 0.51765 0.0
Zn66 Zn 0.57005 0.5417 0.4619 0.0
O67 O 0.55139 0.51568 0.51495 0.0
H68 H 0.53599 0.49825 0.51129 0.0
Zn69 Zn 0.55603 0.54422 0.57017 0.0
C70 C 0.60149 0.49155 0.40884 0.0
O71 O 0.61394 0.48602 0.45003 0.0
O72 O 0.39846 0.58663 0.4625 0.0
O73 O 0.4021 0.58873 0.53942 0.0
O74 O 0.60911 0.41279 0.49475 0.0
O75 O 0.59431 0.39833 0.56605 0.0
O76 O 0.40738 0.41243 0.48125 0.0
O77 O 0.41234 0.4139 0.55802 0.0
C78 C 0.50035 0.58767 0.60318 0.0
O79 O 0.59877 0.58006 0.48217 0.0
O80 O 0.58993 0.57933 0.55839 0.0
O81 O 0.5536 0.42575 0.40726 0.0
C82 C 0.38724 0.59529 0.50177 0.0
O83 O 0.46214 0.57541 0.38438 0.0
C84 C 0.49785 0.4165 0.63012 0.0
O85 O 0.42583 0.47927 0.40761 0.0
C86 C 0.61437 0.39755 0.53239 0.0
O87 O 0.58214 0.51516 0.40378 0.0
C88 C 0.42357 0.50938 0.62134 0.0
O89 O 0.47031 0.59347 0.59949 0.0
O90 O 0.51198 0.56434 0.57962 0.0
C91 C 0.40043 0.40135 0.52136 0.0
O92 O 0.52763 0.40902 0.62954 0.0
O93 O 0.48666 0.43209 0.59565 0.0
C94 C 0.56798 0.48632 0.62469 0.0
O95 O 0.42404 0.47875 0.6259 0.0
O96 O 0.43552 0.52133 0.58438 0.0
C97 C 0.60402 0.59123 0.52274 0.0
O98 O 0.56742 0.51701 0.62657 0.0
O99 O 0.56344 0.47248 0.5859 0.0
C100 C 0.52915 0.4403 0.3909 0.0
O101 O 0.51464 0.46237 0.41636 0.0
C102 C 0.49211 0.57002 0.37856 0.0
O103 O 0.5084 0.55501 0.4112 0.0
C104 C 0.38357 0.37501 0.87428 0.0
C105 C 0.4131 0.35917 0.86518 0.0
C106 C 0.36494 0.36653 0.91289 0.0
C107 C 0.37577 0.34242 0.94322 0.0
C108 C 0.40471 0.32602 0.93379 0.0
C109 C 0.42309 0.3341 0.89488 0.0
C110 C 0.35929 0.33701 0.9877 0.0
C111 C 0.32874 0.32259 0.98989 0.0
C112 C 0.31445 0.31591 0.03317 0.0
C113 C 0.33095 0.32429 0.07419 0.0
C114 C 0.36138 0.33951 0.07206 0.0
C115 C 0.37512 0.34587 0.02846 0.0
C116 C 0.37898 0.34963 0.11456 0.0
C117 C 0.36243 0.36285 0.15272 0.0
C118 C 0.41297 0.34852 0.1156 0.0
C119 C 0.43006 0.36248 0.15204 0.0
C120 C 0.41366 0.3769 0.18947 0.0
C121 C 0.28319 0.29853 0.03515 0.0
C122 C 0.25732 0.30804 0.00672 0.0
C123 C 0.2798 0.27097 0.0632 0.0
C124 C 0.2516 0.25243 0.06137 0.0
C125 C 0.22601 0.26126 0.03178 0.0
C126 C 0.22893 0.2897 0.00524 0.0
C127 C 0.37958 0.37604 0.18999 0.0
H128 H 0.37536 0.39474 0.85254 0.0
H129 H 0.34288 0.37974 0.92023 0.0
H130 H 0.4134 0.30739 0.95715 0.0
H131 H 0.44529 0.32095 0.8884 0.0
H132 H 0.31673 0.31549 0.95803 0.0
H133 H 0.39819 0.35825 0.02578 0.0
H134 H 0.32014 0.31878 0.10757 0.0
H135 H 0.33626 0.36414 0.15314 0.0
H136 H 0.42659 0.33765 0.08749 0.0
H137 H 0.4562 0.36281 0.14977 0.0
H138 H 0.25925 0.32944 0.98513 0.0
H139 H 0.29955 0.26291 0.08501 0.0
H140 H 0.36601 0.38603 0.21879 0.0
H141 H 0.2095 0.29753 0.98272 0.0
H142 H 0.25051 0.23039 0.08167 0.0
C143 C 0.61354 0.33866 0.84312 0.0
C144 C 0.61269 0.37251 0.83798 0.0
C145 C 0.62266 0.32476 0.88547 0.0
C146 C 0.63118 0.34448 0.92334 0.0
C147 C 0.63049 0.3783 0.91786 0.0
C148 C 0.62127 0.39211 0.87581 0.0
C149 C 0.64135 0.33028 0.96842 0.0
C150 C 0.66249 0.30374 0.9701 0.0
C151 C 0.67448 0.29232 0.01279 0.0
C152 C 0.66519 0.30805 0.05412 0.0
C153 C 0.64406 0.3347 0.05294 0.0
C154 C 0.63164 0.34491 0.01007 0.0
C155 C 0.63618 0.35338 0.09562 0.0
C156 C 0.62991 0.33785 0.13818 0.0
C157 C 0.6346 0.38738 0.09363 0.0
C158 C 0.62605 0.40535 0.13266 0.0
C159 C 0.61926 0.38988 0.17491 0.0
C160 C 0.69822 0.26527 0.01351 0.0
C161 C 0.69435 0.23851 0.98385 0.0
C162 C 0.72578 0.26675 0.04202 0.0
C163 C 0.74935 0.24252 0.03989 0.0
C164 C 0.74594 0.21633 0.00912 0.0
C165 C 0.71795 0.21436 0.98163 0.0
C166 C 0.62164 0.35598 0.17757 0.0
H167 H 0.60693 0.32298 0.81453 0.0
H168 H 0.62276 0.29864 0.8887 0.0
H169 H 0.63771 0.39422 0.94588 0.0
H170 H 0.62161 0.41824 0.87261 0.0
H171 H 0.67087 0.29296 0.93797 0.0
H172 H 0.61454 0.36477 0.00901 0.0
H173 H 0.67494 0.29999 0.08704 0.0
H174 H 0.63078 0.31171 0.14083 0.0
H175 H 0.64019 0.40025 0.06185 0.0
H176 H 0.62515 0.4315 0.12991 0.0
H177 H 0.67315 0.23637 0.962 0.0
H178 H 0.72976 0.28724 0.06477 0.0
H179 H 0.61651 0.3435 0.20984 0.0
H180 H 0.71438 0.19421 0.95812 0.0
H181 H 0.77082 0.24494 0.06111 0.0
C182 C 0.57564 0.68211 0.15493 0.0
C183 C 0.55515 0.65544 0.14822 0.0
C184 C 0.59145 0.69634 0.11713 0.0
C185 C 0.58745 0.68369 0.07215 0.0
C186 C 0.56725 0.65652 0.066 0.0
C187 C 0.55097 0.64283 0.10356 0.0
C188 C 0.60438 0.69825 0.0316 0.0
C189 C 0.63617 0.71016 0.0354 0.0
C190 C 0.6529 0.72114 -0.00409 0.0
C191 C 0.6377 0.7202 0.95237 0.0
C192 C 0.60611 0.70837 0.94817 0.0
C193 C 0.58936 0.69836 0.98794 0.0
C194 C 0.5919 0.70249 0.90197 0.0
C195 C 0.59141 0.72664 0.86757 0.0
C196 C 0.5796 0.67164 0.89183 0.0
C197 C 0.56742 0.66481 0.84802 0.0
C198 C 0.56706 0.68873 0.81352 0.0
C199 C 0.6867 0.73256 -0.0004 0.0
C200 C 0.69523 0.75589 0.0328 0.0
C201 C 0.71033 0.72116 0.96859 0.0
C202 C 0.74161 0.73386 0.96944 0.0
C203 C 0.7498 0.75848 0.00101 0.0
C204 C 0.72645 0.76886 0.03336 0.0
C205 C 0.57868 0.71987 0.82356 0.0
H206 H 0.57906 0.69218 0.18932 0.0
H207 H 0.60651 0.71738 0.12313 0.0
H208 H 0.5643 0.6454 0.03224 0.0
H209 H 0.5356 0.62194 0.09788 0.0
H210 H 0.64851 0.70958 0.06855 0.0
H211 H 0.56468 0.68985 0.98439 0.0
H212 H 0.65078 0.72777 0.92155 0.0
H213 H 0.60079 0.75061 0.87477 0.0
H214 H 0.58006 0.6525 0.91757 0.0
H215 H 0.55839 0.64067 0.8409 0.0
H216 H 0.67738 0.76511 0.05699 0.0
H217 H 0.70447 0.70269 0.94324 0.0
H218 H 0.57854 0.73857 0.7972 0.0
H219 H 0.73178 0.78809 0.05774 0.0
H220 H 0.75918 0.72488 0.94467 0.0
C221 C 0.34584 0.60675 0.1738 0.0
C222 C 0.37931 0.60227 0.17998 0.0
C223 C 0.33403 0.62266 0.13476 0.0
C224 C 0.35527 0.63394 0.10041 0.0
C225 C 0.3887 0.62948 0.10602 0.0
C226 C 0.40066 0.61404 0.14571 0.0
C227 C 0.34184 0.64876 0.05797 0.0
C228 C 0.31878 0.67349 0.06158 0.0
C229 C 0.30161 0.68432 0.02238 0.0
C230 C 0.30857 0.67024 0.9789 0.0
C231 C 0.33251 0.64631 0.97487 0.0
C232 C 0.34919 0.6358 0.01435 0.0
C233 C 0.33889 0.63033 0.93015 0.0
C234 C 0.31854 0.60537 0.9148 0.0
C235 C 0.36702 0.63773 0.90506 0.0
C236 C 0.37499 0.62003 0.86531 0.0
C237 C 0.35522 0.59429 0.85063 0.0
C238 C 0.27598 0.70952 0.02756 0.0
C239 C 0.25732 0.71128 0.06843 0.0
C240 C 0.27018 0.73232 0.99227 0.0
C241 C 0.24654 0.75624 -0.00215 0.0
C242 C 0.22848 0.75846 0.03926 0.0
C243 C 0.23433 0.73563 0.07447 0.0
C244 C 0.32673 0.58734 0.87544 0.0
H245 H 0.3285 0.59722 0.19849 0.0
H246 H 0.3081 0.62525 0.13071 0.0
H247 H 0.40549 0.63803 0.07982 0.0
H248 H 0.42658 0.61133 0.14946 0.0
H249 H 0.31415 0.68397 0.09541 0.0
H250 H 0.36666 0.61631 0.0114 0.0
H251 H 0.29507 0.67726 0.94831 0.0
H252 H 0.29689 0.59919 0.93415 0.0
H253 H 0.38316 0.6567 0.91685 0.0
H254 H 0.39723 0.62567 0.84705 0.0
H255 H 0.26028 0.69377 0.09605 0.0
H256 H 0.28414 0.73204 0.96045 0.0
H257 H 0.31102 0.56774 0.86466 0.0
H258 H 0.2214 0.7366 0.10714 0.0
H259 H 0.24238 0.77283 0.9694 0.0
C260 C 0.87666 0.8648 0.36746 0.0
C261 C 0.91062 0.86578 0.3649 0.0
C262 C 0.86125 0.85111 0.40608 0.0
C263 C 0.87954 0.83802 0.44267 0.0
C264 C 0.91349 0.83817 0.43922 0.0
C265 C 0.92882 0.852 0.40092 0.0
C266 C 0.8636 0.82544 0.48529 0.0
C267 C 0.83541 0.80645 0.48286 0.0
C268 C 0.82076 0.79433 0.52355 0.0
C269 C 0.83447 0.8019 0.56693 0.0
C270 C 0.8628 0.82042 0.56959 0.0
C271 C 0.87705 0.83223 0.52889 0.0
C272 C 0.87839 0.8271 0.61462 0.0
C273 C 0.8617 0.8437 0.64975 0.0
C274 C 0.91091 0.8186 0.62137 0.0
C275 C 0.92677 0.82713 0.66228 0.0
C276 C 0.91051 0.84478 0.69678 0.0
C277 C 0.79217 0.77254 0.5206 0.0
C278 C 0.76744 0.77836 0.48819 0.0
C279 C 0.78993 0.7451 0.54935 0.0
C280 C 0.76382 0.72379 0.54541 0.0
C281 C 0.7394 0.72932 0.51251 0.0
C282 C 0.74137 0.75695 0.48413 0.0
C283 C 0.87777 0.85277 0.69043 0.0
H284 H 0.86206 0.87533 0.34018 0.0
H285 H 0.83508 0.85159 0.40788 0.0
H286 H 0.92829 0.8276 0.46625 0.0
H287 H 0.95501 0.85176 0.39936 0.0
H288 H 0.82559 0.80012 0.44921 0.0
H289 H 0.89853 0.84721 0.53142 0.0
H290 H 0.82347 0.79298 0.59865 0.0
H291 H 0.83664 0.8506 0.64503 0.0
H292 H 0.92417 0.80574 0.59464 0.0
H293 H 0.95207 0.8209 0.66626 0.0
H294 H 0.76819 0.79951 0.46598 0.0
H295 H 0.80882 0.73953 0.57409 0.0
H296 H 0.86475 0.86628 0.71672 0.0
H297 H 0.7227 0.76205 0.45882 0.0
H298 H 0.76328 0.70245 0.56726 0.0
C299 C 0.1396 0.86467 0.35742 0.0
C300 C 0.14394 0.89733 0.34505 0.0
C301 C 0.15161 0.85296 0.39959 0.0
C302 C 0.16796 0.87377 0.4302 0.0
C303 C 0.17312 0.90612 0.41712 0.0
C304 C 0.16121 0.91778 0.37512 0.0
C305 C 0.17814 0.86255 0.47678 0.0
C306 C 0.19384 0.83272 0.48274 0.0
C307 C 0.20389 0.82266 0.52709 0.0
C308 C 0.19772 0.84266 0.56558 0.0
C309 C 0.18185 0.87244 0.56012 0.0
C310 C 0.17209 0.88209 0.51566 0.0
C311 C 0.17472 0.89332 0.60075 0.0
C312 C 0.16291 0.87974 0.64215 0.0
C313 C 0.17841 0.92711 0.59777 0.0
C314 C 0.16954 0.94697 0.63489 0.0
C315 C 0.15684 0.93343 0.67577 0.0
C316 C 0.22171 0.79177 0.53309 0.0
C317 C 0.21205 0.76368 0.5093 0.0
C318 C 0.24898 0.7904 0.56208 0.0
C319 C 0.26656 0.76176 0.56654 0.0
C320 C 0.25731 0.73381 0.54211 0.0
C321 C 0.22967 0.73498 0.51378 0.0
C322 C 0.15412 0.89957 0.67927 0.0
H323 H 0.12663 0.84828 0.33475 0.0
H324 H 0.14719 0.82793 0.40891 0.0
H325 H 0.18599 0.92262 0.43978 0.0
H326 H 0.16466 0.94315 0.36695 0.0
H327 H 0.19914 0.81787 0.45266 0.0
H328 H 0.15897 0.9046 0.51139 0.0
H329 H 0.20534 0.83506 0.59987 0.0
H330 H 0.15959 0.85382 0.64543 0.0
H331 H 0.18788 0.93825 0.56652 0.0
H332 H 0.1718 0.97296 0.63108 0.0
H333 H 0.19086 0.76388 0.48724 0.0
H334 H 0.25734 0.81175 0.58031 0.0
H335 H 0.1449 0.88839 0.71064 0.0
H336 H 0.22174 0.71374 0.49491 0.0
H337 H 0.28809 0.76186 0.58794 0.0
C338 C 0.12033 0.15514 0.67383 0.0
C339 C 0.10161 0.12661 0.67446 0.0
C340 C 0.13794 0.16396 0.63431 0.0
C341 C 0.13813 0.14404 0.5947 0.0
C342 C 0.12121 0.11448 0.59654 0.0
C343 C 0.10279 0.10618 0.63539 0.0
C344 C 0.15391 0.15488 0.55067 0.0
C345 C 0.18163 0.17479 0.55098 0.0
C346 C 0.19498 0.18655 0.50924 0.0
C347 C 0.18081 0.17758 0.46684 0.0
C348 C 0.15356 0.15741 0.46587 0.0
C349 C 0.14012 0.14651 0.5077 0.0
C350 C 0.13829 0.14837 0.42127 0.0
C351 C 0.1314 0.17206 0.3878 0.0
C352 C 0.12967 0.11605 0.41253 0.0
C353 C 0.11435 0.10757 0.37113 0.0
C354 C 0.10704 0.13129 0.33774 0.0
C355 C 0.22278 0.2094 0.50962 0.0
C356 C 0.22351 0.23539 0.5411 0.0
C357 C 0.24777 0.20657 0.47669 0.0
C358 C 0.27235 0.22975 0.47431 0.0
C359 C 0.27253 0.2563 0.50483 0.0
C360 C 0.2481 0.25859 0.53872 0.0
C361 C 0.1158 0.16364 0.34656 0.0
H362 H 0.12102 0.17114 0.70355 0.0
H363 H 0.15045 0.18698 0.63448 0.0
H364 H 0.12148 0.09788 0.56746 0.0
H365 H 0.08865 0.08415 0.6338 0.0
H366 H 0.19302 0.18107 0.58358 0.0
H367 H 0.11802 0.13244 0.50648 0.0
H368 H 0.19069 0.18666 0.43448 0.0
H369 H 0.1374 0.19723 0.39399 0.0
H370 H 0.13501 0.09728 0.43765 0.0
H371 H 0.1085 0.08235 0.36512 0.0
H372 H 0.20439 0.2385 0.56648 0.0
H373 H 0.24817 0.18653 0.45244 0.0
H374 H 0.11007 0.18263 0.32199 0.0
H375 H 0.24732 0.27894 0.5624 0.0
H376 H 0.29114 0.22697 0.44836 0.0
C377 C 0.8292 0.07402 0.64729 0.0
C378 C 0.86094 0.07192 0.66402 0.0
C379 C 0.82222 0.09381 0.60944 0.0
C380 C 0.84702 0.11123 0.58735 0.0
C381 C 0.87886 0.10886 0.6037 0.0
C382 C 0.88573 0.08959 0.64229 0.0
C383 C 0.83946 0.1309 0.54624 0.0
C384 C 0.81616 0.1553 0.54907 0.0
C385 C 0.80532 0.17137 0.50894 0.0
C386 C 0.81883 0.16275 0.46567 0.0
C387 C 0.84305 0.13891 0.46289 0.0
C388 C 0.85335 0.12328 0.50345 0.0
C389 C 0.85582 0.12774 0.41769 0.0
C390 C 0.83454 0.11829 0.38229 0.0
C391 C 0.88918 0.12268 0.41188 0.0
C392 C 0.9009 0.10682 0.37256 0.0
C393 C 0.87946 0.09552 0.33839 0.0
C394 C 0.77946 0.19636 0.5127 0.0
C395 C 0.75525 0.19359 0.54687 0.0
C396 C 0.77909 0.22354 0.48329 0.0
C397 C 0.75537 0.24742 0.48836 0.0
C398 C 0.73183 0.24511 0.52364 0.0
C399 C 0.73222 0.21782 0.55282 0.0
C400 C 0.84623 0.10223 0.34304 0.0
H401 H 0.80979 0.06066 0.66388 0.0
H402 H 0.79755 0.09517 0.59692 0.0
H403 H 0.89826 0.12208 0.58688 0.0
H404 H 0.91037 0.08818 0.6549 0.0
H405 H 0.80652 0.16152 0.58291 0.0
H406 H 0.87087 0.10379 0.50141 0.0
H407 H 0.81023 0.17403 0.43407 0.0
H408 H 0.80867 0.12157 0.38621 0.0
H409 H 0.9061 0.13005 0.43857 0.0
H410 H 0.92669 0.10265 0.36949 0.0
H411 H 0.75397 0.17266 0.56943 0.0
H412 H 0.7974 0.22674 0.45676 0.0
H413 H 0.82903 0.09359 0.31757 0.0
H414 H 0.715 0.21516 0.58091 0.0
H415 H 0.75555 0.26762 0.46443 0.0
H416 H 0.11865 0.16165 0.97119 0.0
H417 H 0.12412 0.13762 0.1167 0.0
H418 H 0.16051 0.18313 0.12992 0.0
H419 H 0.19477 0.22647 0.09881 0.0
H420 H 0.19359 0.24666 0.95169 0.0
H421 H 0.15124 0.2064 0.94064 0.0
C422 C 0.1275 0.16657 0.00591 0.0
C423 C 0.1183 0.14645 0.04307 0.0
C424 C 0.14942 0.19205 0.01291 0.0
C425 C 0.13008 0.15319 0.08777 0.0
C426 C 0.15127 0.17899 0.09523 0.0
C427 C 0.18528 0.22208 0.0643 0.0
C428 C 0.19762 0.23949 0.02617 0.0
C429 C 0.16169 0.19809 0.05785 0.0
C430 C 0.18441 0.23397 0.98186 0.0
C431 C 0.16036 0.21068 0.97536 0.0
H432 H 0.85841 0.12071 0.95286 0.0
H433 H 0.86969 0.11667 0.10171 0.0
H434 H 0.82346 0.15282 0.11153 0.0
H435 H 0.78083 0.18707 0.07763 0.0
H436 H 0.77029 0.19139 0.92873 0.0
H437 H 0.81503 0.15347 0.91923 0.0
C438 C 0.85076 0.12766 0.9875 0.0
C439 C 0.86759 0.116 0.02648 0.0
C440 C 0.82425 0.14855 0.9929 0.0
C441 C 0.85711 0.1251 0.07109 0.0
C442 C 0.83074 0.14591 0.07674 0.0
C443 C 0.78839 0.17974 0.04313 0.0
C444 C 0.77224 0.19208 0.00397 0.0
C445 C 0.81431 0.15802 0.03787 0.0
C446 C 0.78203 0.18199 0.95949 0.0
C447 C 0.80777 0.16046 0.95399 0.0
H448 H 0.86935 0.84519 0.95002 0.0
H449 H 0.87471 0.85309 0.09933 0.0
H450 H 0.83164 0.81286 0.10726 0.0
H451 H 0.78854 0.78008 0.07141 0.0
H452 H 0.7818 0.77559 0.9219 0.0
H453 H 0.82975 0.80932 0.91463 0.0
C454 C 0.86143 0.8379 0.9844 0.0
C455 C 0.87487 0.85258 0.02397 0.0
C456 C 0.83627 0.8154 0.9887 0.0
C457 C 0.8646 0.8424 0.06822 0.0
C458 C 0.83987 0.81949 0.0728 0.0
C459 C 0.79766 0.78639 0.03726 0.0
C460 C 0.78138 0.77546 -0.00268 0.0
C461 C 0.82484 0.80663 0.03322 0.0
C462 C 0.79394 0.7833 0.9533 0.0
C463 C 0.82124 0.80288 0.94904 0.0
H464 H 0.10913 0.85044 0.07997 0.0
H465 H 0.16299 0.91329 0.98885 0.0
H466 H 0.20725 0.87388 0.98557 0.0
H467 H 0.22906 0.82053 0.00549 0.0
H468 H 0.17107 0.7546 0.08744 0.0
H469 H 0.13042 0.79638 0.0982 0.0
C470 C 0.13087 0.85561 0.06012 0.0
C471 C 0.13325 0.88471 0.03524 0.0
C472 C 0.15536 0.83221 0.05657 0.0
C473 C 0.16098 0.89104 0.00857 0.0
C474 C 0.18612 0.86849 0.00654 0.0
C475 C 0.2074 0.81498 0.02521 0.0
C476 C 0.20351 0.78422 0.04568 0.0
C477 C 0.18328 0.8387 0.02967 0.0
C478 C 0.17538 0.7781 0.07201 0.0
C479 C 0.15183 0.80195 0.07791 0.0
H480 H 0.63528 0.62504 0.45504 0.0
H481 H 0.62511 0.61831 0.60402 0.0
H482 H 0.66518 0.66117 0.61389 0.0
H483 H 0.7044 0.69945 0.58033 0.0
H484 H 0.71463 0.70581 0.43149 0.0
H485 H 0.6729 0.66453 0.42154 0.0
C486 C 0.64174 0.63294 0.48972 0.0
C487 C 0.62735 0.61819 0.52869 0.0
C488 C 0.66478 0.65762 0.49521 0.0
C489 C 0.63587 0.62905 0.57334 0.0
C490 C 0.65881 0.65358 0.57907 0.0
C491 C 0.69752 0.69173 0.54573 0.0
C492 C 0.71269 0.7056 0.50673 0.0
C493 C 0.67365 0.66781 0.54026 0.0
C494 C 0.70313 0.69575 0.46209 0.0
C495 C 0.67942 0.67199 0.45637 0.0
H496 H 0.3598 0.62389 0.57744 0.0
H497 H 0.34901 0.61344 0.42902 0.0
H498 H 0.30564 0.6533 0.42932 0.0
H499 H 0.27493 0.69522 0.47016 0.0
H500 H 0.28605 0.70654 0.6182 0.0
H501 H 0.32528 0.66232 0.61948 0.0
C502 C 0.3477 0.62998 0.54522 0.0
C503 C 0.35799 0.61593 0.50321 0.0
C504 C 0.32309 0.65338 0.54544 0.0
C505 C 0.34183 0.62401 0.46185 0.0
C506 C 0.31703 0.6469 0.46193 0.0
C507 C 0.28536 0.68755 0.50288 0.0
C508 C 0.2778 0.70435 0.54394 0.0
C509 C 0.30806 0.66234 0.5033 0.0
C510 C 0.29189 0.69435 0.58597 0.0
C511 C 0.31423 0.66901 0.58676 0.0
H512 H 0.37051 0.36793 0.45193 0.0
H513 H 0.37962 0.37213 0.60122 0.0
H514 H 0.34163 0.3273 0.60915 0.0
H515 H 0.30513 0.28732 0.57397 0.0
H516 H 0.29541 0.28366 0.42491 0.0
H517 H 0.33467 0.32747 0.41676 0.0
C518 C 0.36426 0.35905 0.48623 0.0
C519 C 0.37787 0.37357 0.52585 0.0
C520 C 0.34235 0.33321 0.49066 0.0
C521 C 0.36951 0.36156 0.57002 0.0
C522 C 0.34775 0.33587 0.57467 0.0
C523 C 0.31149 0.29622 0.53971 0.0
C524 C 0.29733 0.2822 0.50015 0.0
C525 C 0.33388 0.32164 0.53526 0.0
C526 C 0.30624 0.2937 0.45595 0.0
C527 C 0.32852 0.31892 0.45125 0.0
H528 H 0.61178 0.33613 0.56149 0.0
H529 H 0.67661 0.40741 0.50403 0.0
H530 H 0.71972 0.36671 0.49888 0.0
H531 H 0.73778 0.31042 0.50802 0.0
H532 H 0.66908 0.23793 0.55359 0.0
H533 H 0.6289 0.27966 0.5669 0.0
C534 C 0.63557 0.34279 0.54861 0.0
C535 C 0.64144 0.37462 0.53394 0.0
C536 C 0.65942 0.31901 0.54344 0.0
C537 C 0.67189 0.38298 0.51598 0.0
C538 C 0.69636 0.35973 0.51282 0.0
C539 C 0.71393 0.30351 0.52018 0.0
C540 C 0.70691 0.27083 0.5302 0.0
C541 C 0.69019 0.32751 0.52574 0.0
C542 C 0.67582 0.2628 0.54675 0.0
C543 C 0.65256 0.28667 0.55402 0.0
H544 H 0.04993 0.10938 0.13692 0.0
H545 H 0.98908 0.04265 0.21168 0.0
H546 H 0.01663 0.05638 0.28436 0.0
H547 H 0.05778 0.08797 0.32628 0.0
H548 H 0.11841 0.15497 0.25058 0.0
H549 H 0.09025 0.14151 0.17903 0.0
C550 C 0.04328 0.09743 0.16901 0.0
C551 C 0.01823 0.07459 0.16909 0.0
C552 C 0.05888 0.10579 0.21048 0.0
C553 C 0.00859 0.06018 0.21104 0.0
C554 C 0.02433 0.068 0.25245 0.0
C555 C 0.06534 0.09914 0.29397 0.0
C556 C 0.09033 0.12235 0.29393 0.0
C557 C 0.04956 0.09077 0.25254 0.0
C558 C 0.09912 0.13723 0.25185 0.0
C559 C 0.08338 0.12921 0.21067 0.0
H560 H 0.93804 0.99239 0.19984 0.0
H561 H 0.87395 0.04121 0.10527 0.0
H562 H 0.85713 0.07846 0.16703 0.0
H563 H 0.86096 0.09698 0.24772 0.0
H564 H 0.92442 0.04721 0.34281 0.0
H565 H 0.94197 0.01107 0.28077 0.0
C566 C 0.92036 0.01123 0.19307 0.0
C567 C 0.90733 0.01458 0.14848 0.0
C568 C 0.91111 0.03256 0.22852 0.0
C569 C 0.88461 0.0389 0.13943 0.0
C570 C 0.87498 0.06002 0.17463 0.0
C571 C 0.87851 0.07814 0.25491 0.0
C572 C 0.89134 0.07487 0.29982 0.0
C573 C 0.88816 0.05713 0.21928 0.0
C574 C 0.91449 0.05063 0.30839 0.0
C575 C 0.92433 0.02971 0.27307 0.0
H576 H 0.00142 0.93343 0.21789 0.0
H577 H 0.93991 0.88087 0.124 0.0
H578 H 0.90657 0.86221 0.18889 0.0
H579 H 0.89757 0.85768 0.27317 0.0
H580 H 0.96124 0.90798 0.3673 0.0
H581 H 0.99155 0.93025 0.30176 0.0
C582 C 0.98063 0.91798 0.21174 0.0
C583 C 0.97256 0.90902 0.16619 0.0
C584 C 0.9623 0.90665 0.2494 0.0
C585 C 0.94564 0.88908 0.15855 0.0
C586 C 0.92697 0.878 0.19576 0.0
C587 C 0.9178 0.87388 0.27922 0.0
C588 C 0.9273 0.88103 0.32491 0.0
C589 C 0.9353 0.88634 0.24141 0.0
C590 C 0.95376 0.90179 0.33237 0.0
C591 C 0.97102 0.91462 0.29498 0.0
H592 H 0.05751 0.9546 0.18495 0.0
H593 H 0.14434 0.00927 0.15955 0.0
H594 H 0.17219 0.97963 0.22125 0.0
H595 H 0.171 0.93956 0.28396 0.0
H596 H 0.08341 0.88567 0.31072 0.0
H597 H 0.05706 0.9122 0.24513 0.0
C598 C 0.08281 0.95897 0.19178 0.0
C599 C 0.09916 0.98323 0.16711 0.0
C600 C 0.09847 0.94195 0.22737 0.0
C601 C 0.13143 0.99043 0.1781 0.0
C602 C 0.14732 0.97349 0.21322 0.0
C603 C 0.14615 0.93358 0.27539 0.0
C604 C 0.12917 0.91079 0.30231 0.0
C605 C 0.13095 0.94944 0.23837 0.0
C606 C 0.09716 0.90288 0.29028 0.0
C607 C 0.08196 0.91827 0.25306 0.0
H608 H 0.12768 0.03246 0.8377 0.0
H609 H 0.04475 0.96994 0.85296 0.0
H610 H 0.06227 0.93783 0.78681 0.0
H611 H 0.10183 0.9266 0.7259 0.0
H612 H 0.18585 0.98782 0.71103 0.0
H613 H 0.16696 0.02176 0.77517 0.0
C614 C 0.11342 0.01185 0.82647 0.0
C615 C 0.08511 0.00328 0.85072 0.0
C616 C 0.12383 0.99334 0.78839 0.0
C617 C 0.06688 0.97663 0.83553 0.0
C618 C 0.07681 0.95836 0.7975 0.0
C619 C 0.11621 0.94717 0.73699 0.0
C620 C 0.14536 0.95446 0.7141 0.0
C621 C 0.10546 0.96624 0.77409 0.0
C622 C 0.16325 0.98175 0.72802 0.0
C623 C 0.15254 0.00107 0.7648 0.0
H624 H 0.00492 0.11774 0.84474 0.0
H625 H 0.01202 0.01593 0.81292 0.0
H626 H 0.0505 0.02772 0.7507 0.0
H627 H 0.08316 0.06677 0.7072 0.0
H628 H 0.06993 0.16921 0.7322 0.0
H629 H 0.03378 0.1571 0.79637 0.0
C630 C 0.01473 0.09811 0.82406 0.0
C631 C 0.00624 0.06592 0.83421 0.0
C632 C 0.03619 0.10512 0.78761 0.0
C633 C 0.01874 0.04087 0.8065 0.0
C634 C 0.04068 0.0476 0.77084 0.0
C635 C 0.07204 0.08664 0.72586 0.0
C636 C 0.07984 0.11895 0.71452 0.0
C637 C 0.04981 0.07964 0.76139 0.0
C638 C 0.06545 0.14406 0.74048 0.0
C639 C 0.04427 0.13721 0.77697 0.0
H640 H 0.88139 0.9692 0.82226 0.0
H641 H 0.91072 0.05507 0.89648 0.0
H642 H 0.90094 0.08795 0.82767 0.0
H643 H 0.88446 0.09223 0.74595 0.0
H644 H 0.85227 0.0071 0.67295 0.0
H645 H 0.86304 0.97373 0.74162 0.0
C646 C 0.88563 0.99511 0.82336 0.0
C647 C 0.89729 0.00961 0.86413 0.0
C648 C 0.87958 0.01389 0.78384 0.0
C649 C 0.90208 0.04328 0.86535 0.0
C650 C 0.89653 0.0621 0.82601 0.0
C651 C 0.88 0.06634 0.74528 0.0
C652 C 0.86794 0.05186 0.70487 0.0
C653 C 0.88549 0.04763 0.78501 0.0
C654 C 0.86166 0.01849 0.70403 0.0
C655 C 0.86775 -0.00047 0.74314 0.0
H656 H 0.99793 0.87267 0.87142 0.0
H657 H 0.96515 0.96997 0.84434 0.0
H658 H 0.93293 0.95062 0.77894 0.0
H659 H 0.91365 0.90595 0.7299 0.0
H660 H 0.94785 0.80897 0.7552 0.0
H661 H 0.97961 0.82818 0.82137 0.0
C662 C 0.9837 0.88961 0.85121 0.0
C663 C 0.98354 0.92261 0.86302 0.0
C664 C 0.96519 0.87832 0.81377 0.0
C665 C 0.96517 0.94435 0.83642 0.0
C666 C 0.94675 0.93333 0.79905 0.0
C667 C 0.92781 0.88904 0.7503 0.0
C668 C 0.92832 0.85612 0.73815 0.0
C669 C 0.94636 0.90034 0.78768 0.0
C670 C 0.94718 0.83444 0.76411 0.0
C671 C 0.96531 0.8454 0.80183 0.0
H672 H 0.48433 0.64498 0.64341 0.0
H673 H 0.5609 0.57445 0.63642 0.0
H674 H 0.5908 0.60291 0.69583 0.0
H675 H 0.59189 0.64374 0.75713 0.0
H676 H 0.51492 0.71352 0.76785 0.0
H677 H 0.48852 0.68995 0.69938 0.0
C678 C 0.50774 0.63602 0.65451 0.0
C679 C 0.52024 0.60721 0.63541 0.0
C680 C 0.52459 0.65244 0.68964 0.0
C681 C 0.55069 0.59631 0.64997 0.0
C682 C 0.56779 0.61262 0.68435 0.0
C683 C 0.5697 0.65416 0.74366 0.0
C684 C 0.5551 0.68001 0.76715 0.0
C685 C 0.55452 0.64009 0.70533 0.0
C686 C 0.52649 0.69362 0.74983 0.0
C687 C 0.51133 0.67996 0.71109 0.0
H688 H 0.40083 0.48958 0.70529 0.0
H689 H 0.41465 0.57534 0.62234 0.0
H690 H 0.39508 0.60895 0.68541 0.0
H691 H 0.37468 0.61427 0.76529 0.0
H692 H 0.35819 0.52848 0.8473 0.0
H693 H 0.37756 0.49457 0.7834 0.0
C694 C 0.39953 0.51562 0.70085 0.0
C695 C 0.41011 0.5299 0.65906 0.0
C696 C 0.38752 0.53481 0.73725 0.0
C697 C 0.40772 0.56364 0.65409 0.0
C698 C 0.39621 0.58295 0.69026 0.0
C699 C 0.37534 0.58814 0.76904 0.0
C700 C 0.36518 0.57386 0.81086 0.0
C701 C 0.3863 0.56883 0.73214 0.0
C702 C 0.3657 0.53997 0.81522 0.0
C703 C 0.37692 0.52062 0.77884 0.0
H704 H 0.51808 0.39751 0.71532 0.0
H705 H 0.43183 0.41492 0.6356 0.0
H706 H 0.39829 0.39835 0.70037 0.0
H707 H 0.39339 0.37764 0.7793 0.0
H708 H 0.4793 0.36346 0.86194 0.0
H709 H 0.51309 0.3794 0.79623 0.0
C710 C 0.49194 0.39766 0.7121 0.0
C711 C 0.47745 0.40726 0.67015 0.0
C712 C 0.47277 0.3884 0.75007 0.0
C713 C 0.44362 0.40765 0.66696 0.0
C714 C 0.42438 0.39808 0.70421 0.0
C715 C 0.41946 0.37842 0.78328 0.0
C716 C 0.4337 0.36916 0.82545 0.0
C717 C 0.4387 0.3883 0.74585 0.0
C718 C 0.46764 0.36982 0.82957 0.0
C719 C 0.48701 0.37919 0.79215 0.0
H720 H 0.60236 0.43143 0.6368 0.0
H721 H 0.54212 0.49983 0.70918 0.0
H722 H 0.54865 0.46917 0.7813 0.0
H723 H 0.57302 0.4239 0.82393 0.0
H724 H 0.63339 0.35535 0.75129 0.0
H725 H 0.62398 0.38408 0.6783 0.0
C726 C 0.59001 0.43899 0.66806 0.0
C727 C 0.5714 0.46736 0.66767 0.0
C728 C 0.59377 0.42116 0.70913 0.0
C729 C 0.5566 0.47797 0.70883 0.0
C730 C 0.56021 0.46041 0.74992 0.0
C731 C 0.58408 0.41525 0.79208 0.0
C732 C 0.6041 0.38774 0.79304 0.0
C733 C 0.57901 0.43215 0.75053 0.0
C734 C 0.61774 0.37637 0.7514 0.0
C735 C 0.61261 0.39294 0.70977 0.0
H736 H 0.5742 0.49236 0.32322 0.0
H737 H 0.64346 0.44048 0.407 0.0
H738 H 0.65358 0.40307 0.34295 0.0
H739 H 0.64396 0.38609 0.26213 0.0
H740 H 0.57439 0.43791 0.17912 0.0
H741 H 0.56286 0.47409 0.24415 0.0
C742 C 0.59167 0.473 0.32743 0.0
C743 C 0.60831 0.46947 0.36965 0.0
C744 C 0.59716 0.45143 0.29069 0.0
C745 C 0.6305 0.44393 0.37472 0.0
C746 C 0.63622 0.42243 0.33818 0.0
C747 C 0.626 0.40507 0.25859 0.0
C748 C 0.61022 0.40954 0.21591 0.0
C749 C 0.61979 0.42603 0.29594 0.0
C750 C 0.58714 0.43432 0.21154 0.0
C751 C 0.58056 0.455 0.24864 0.0
H752 H 0.46469 0.59517 0.30121 0.0
H753 H 0.55719 0.57448 0.36396 0.0
H754 H 0.58489 0.59978 0.29838 0.0
H755 H 0.58272 0.62912 0.22406 0.0
H756 H 0.49047 0.64726 0.15965 0.0
H757 H 0.46258 0.6217 0.22525 0.0
C758 C 0.49091 0.59592 0.30035 0.0
C759 C 0.50886 0.58303 0.33738 0.0
C760 C 0.50664 0.61025 0.26247 0.0
C761 C 0.54282 0.58415 0.33578 0.0
C762 C 0.55868 0.59874 0.29842 0.0
C763 C 0.55652 0.62748 0.2247 0.0
C764 C 0.53849 0.64023 0.1878 0.0
C765 C 0.54082 0.61214 0.26184 0.0
C766 C 0.50464 0.63763 0.18809 0.0
C767 C 0.48877 0.62301 0.2254 0.0
H768 H 0.43779 0.50844 0.3312 0.0
H769 H 0.3579 0.54732 0.41008 0.0
H770 H 0.34513 0.58421 0.3466 0.0
H771 H 0.35515 0.60372 0.26798 0.0
H772 H 0.43066 0.56009 0.18512 0.0
H773 H 0.44693 0.527 0.25122 0.0
C774 C 0.41718 0.52449 0.33414 0.0
C775 C 0.39854 0.52477 0.37504 0.0
C776 C 0.40936 0.54495 0.29698 0.0
C777 C 0.37267 0.54661 0.37899 0.0
C778 C 0.36531 0.56769 0.3427 0.0
C779 C 0.37494 0.58674 0.26399 0.0
C780 C 0.39132 0.58424 0.22124 0.0
C781 C 0.38326 0.56678 0.30138 0.0
C782 C 0.41767 0.56283 0.21755 0.0
C783 C 0.4268 0.54358 0.25521 0.0
H784 H 0.47332 0.46092 0.35145 0.0
H785 H 0.5516 0.39302 0.33306 0.0
H786 H 0.52273 0.36747 0.2691 0.0
H787 H 0.47324 0.3611 0.224 0.0
H788 H 0.39595 0.43083 0.23919 0.0
H789 H 0.42552 0.45737 0.30107 0.0
C790 C 0.48413 0.4407 0.33325 0.0
C791 C 0.51419 0.42851 0.34762 0.0
C792 C 0.46719 0.42578 0.29696 0.0
C793 C 0.52824 0.40264 0.32311 0.0
C794 C 0.51169 0.38788 0.28667 0.0
C795 C 0.46305 0.38259 0.23984 0.0
C796 C 0.43209 0.39357 0.22686 0.0
C797 C 0.48079 0.39874 0.27415 0.0
C798 C 0.41926 0.42109 0.24902 0.0
C799 C 0.43646 0.43678 0.28401 0.0
loop_
_geom_bond_atom_site_label_1
_geom_bond_atom_site_label_2
_geom_bond_distance
_geom_bond_site_symmetry_2
_ccdc_geom_bond_type
Zn0 O2 1.933 1_556 S
Zn0 O20 1.985 . S
Zn0 O31 1.955 . S
Zn1 O2 1.911 . S
Zn1 O21 1.970 . S
Zn1 O37 1.945 . S
Zn1 O44 1.981 . S
O2 Zn0 1.933 1_554 S
O2 Zn1 1.911 . S
O2 H3 0.841 1_655 S
H3 O2 0.841 1_455 S
C4 O5 1.246 . S
C4 O33 1.276 1_545 S
O5 C4 1.246 . S
Zn6 O8 1.911 . S
Zn6 O23 1.970 . S
Zn6 O40 1.945 . S
Zn6 O47 1.981 . S
Zn7 O8 1.933 1_556 S
Zn7 O22 1.985 . S
Zn7 O29 1.955 . S
O8 Zn6 1.911 . S
O8 Zn7 1.933 1_554 S
O8 H9 0.841 1_455 S
H9 O8 0.841 1_655 S
Zn10 O11 1.933 1_556 S
Zn10 O24 1.985 . S
Zn10 O33 1.955 . S
O11 Zn10 1.933 1_554 S
O11 Zn12 1.911 . S
O11 H13 0.841 1_565 S
Zn12 O11 1.911 . S
Zn12 O25 1.970 . S
Zn12 O41 1.981 . S
Zn12 O43 1.945 . S
H13 O11 0.841 1_545 S
Zn14 O15 1.933 1_556 S
Zn14 O27 1.985 . S
Zn14 O35 1.955 . S
O15 Zn14 1.933 1_554 S
O15 H16 0.841 1_545 S
O15 Zn17 1.911 . S
H16 O15 0.841 1_565 S
Zn17 O15 1.911 . S
Zn17 O28 1.970 . S
Zn17 O38 1.981 . S
Zn17 O46 1.945 . S
C18 O19 1.246 . S
C18 O35 1.276 1_565 S
O19 C18 1.246 . S
O20 Zn0 1.985 . S
O20 C30 1.245 1_556 S
O21 Zn1 1.970 . S
O21 C30 1.263 . S
O22 Zn7 1.985 . S
O22 C34 1.245 1_556 S
O23 Zn6 1.970 . S
O23 C34 1.263 . S
O24 Zn10 1.985 . S
O24 C39 1.245 1_556 S
O25 Zn12 1.970 . S
O25 C39 1.263 . S
C26 O37 1.262 1_455 S
C26 O38 1.245 . S
O27 Zn14 1.985 . S
O27 C45 1.245 1_556 S
O28 Zn17 1.970 . S
O28 C45 1.263 . S
O29 Zn7 1.955 . S
O29 C48 1.276 1_455 S
C30 O20 1.245 1_554 S
C30 O21 1.263 . S
O31 Zn0 1.955 . S
O31 C50 1.276 1_655 S
C32 O40 1.262 1_655 S
C32 O41 1.245 . S
O33 C4 1.276 1_565 S
O33 Zn10 1.955 . S
C34 O22 1.245 1_554 S
C34 O23 1.263 . S
O35 Zn14 1.955 . S
O35 C18 1.276 1_545 S
C36 O43 1.262 1_545 S
C36 O44 1.245 . S
O37 Zn1 1.945 . S
O37 C26 1.262 1_655 S
O38 Zn17 1.981 . S
O38 C26 1.245 . S
C39 O24 1.245 1_554 S
C39 O25 1.263 . S
O40 Zn6 1.945 . S
O40 C32 1.262 1_455 S
O41 Zn12 1.981 . S
O41 C32 1.245 . S
C42 O46 1.262 1_565 S
C42 O47 1.245 . S
O43 Zn12 1.945 . S
O43 C36 1.262 1_565 S
O44 Zn1 1.981 . S
O44 C36 1.245 . S
C45 O27 1.245 1_554 S
C45 O28 1.263 . S
O46 Zn17 1.945 . S
O46 C42 1.262 1_545 S
O47 Zn6 1.981 . S
O47 C42 1.245 . S
C48 O29 1.276 1_655 S
C48 O49 1.246 . S
O49 C48 1.246 . S
C50 O31 1.276 1_455 S
C50 O51 1.246 . S
O51 C50 1.246 . S
Zn52 O54 1.933 . S
Zn52 O72 1.985 . S
Zn52 O83 1.955 . S
Zn53 O54 1.911 . S
Zn53 O73 1.970 . S
Zn53 O89 1.945 . S
Zn53 O96 1.981 . S
O54 Zn52 1.933 . S
O54 Zn53 1.911 . S
O54 H55 0.841 . S
H55 O54 0.841 . S
C56 O57 1.246 . S
C56 O85 1.276 . S
O57 C56 1.246 . S
Zn58 O60 1.911 . S
Zn58 O75 1.970 . S
Zn58 O92 1.945 . S
Zn58 O99 1.981 . S
Zn59 O60 1.933 . S
Zn59 O74 1.985 . S
Zn59 O81 1.955 . S
O60 Zn58 1.911 . S
O60 Zn59 1.933 . S
O60 H61 0.841 . S
H61 O60 0.841 . S
Zn62 O63 1.933 . S
Zn62 O76 1.985 . S
Zn62 O85 1.955 . S
O63 Zn62 1.933 . S
O63 Zn64 1.911 . S
O63 H65 0.841 . S
Zn64 O63 1.911 . S
Zn64 O77 1.970 . S
Zn64 O93 1.981 . S
Zn64 O95 1.945 . S
H65 O63 0.841 . S
Zn66 O67 1.933 . S
Zn66 O79 1.985 . S
Zn66 O87 1.955 . S
O67 Zn66 1.933 . S
O67 H68 0.841 . S
O67 Zn69 1.911 . S
H68 O67 0.841 . S
Zn69 O67 1.911 . S
Zn69 O80 1.970 . S
Zn69 O90 1.981 . S
Zn69 O98 1.945 . S
C70 O71 1.246 . S
C70 O87 1.276 . S
O71 C70 1.246 . S
O72 Zn52 1.985 . S
O72 C82 1.245 . S
O73 Zn53 1.970 . S
O73 C82 1.263 . S
O74 Zn59 1.985 . S
O74 C86 1.245 . S
O75 Zn58 1.970 . S
O75 C86 1.263 . S
O76 Zn62 1.985 . S
O76 C91 1.245 . S
O77 Zn64 1.970 . S
O77 C91 1.263 . S
C78 O89 1.262 . S
C78 O90 1.245 . S
O79 Zn66 1.985 . S
O79 C97 1.245 . S
O80 Zn69 1.970 . S
O80 C97 1.263 . S
O81 Zn59 1.955 . S
O81 C100 1.276 . S
C82 O72 1.245 . S
C82 O73 1.263 . S
O83 Zn52 1.955 . S
O83 C102 1.276 . S
C84 O92 1.262 . S
C84 O93 1.245 . S
O85 C56 1.276 . S
O85 Zn62 1.955 . S
C86 O74 1.245 . S
C86 O75 1.263 . S
O87 Zn66 1.955 . S
O87 C70 1.276 . S
C88 O95 1.262 . S
C88 O96 1.245 . S
O89 Zn53 1.945 . S
O89 C78 1.262 . S
O90 Zn69 1.981 . S
O90 C78 1.245 . S
C91 O76 1.245 . S
C91 O77 1.263 . S
O92 Zn58 1.945 . S
O92 C84 1.262 . S
O93 Zn64 1.981 . S
O93 C84 1.245 . S
C94 O98 1.262 . S
C94 O99 1.245 . S
O95 Zn64 1.945 . S
O95 C88 1.262 . S
O96 Zn53 1.981 . S
O96 C88 1.245 . S
C97 O79 1.245 . S
C97 O80 1.263 . S
O98 Zn69 1.945 . S
O98 C94 1.262 . S
O99 Zn58 1.981 . S
O99 C94 1.245 . S
C100 O81 1.276 . S
C100 O101 1.246 . S
O101 C100 1.246 . S
C102 O83 1.276 . S
C102 O103 1.246 . S
O103 C102 1.246 . S
C104 C105 1.386 . S
C104 C106 1.397 . S
C104 H128 0.931 . S
C105 C104 1.386 . S
C105 C109 1.397 . S
C106 C104 1.397 . S
C106 C107 1.384 . S
C106 H129 0.930 . S
C107 C106 1.384 . S
C107 C108 1.377 . S
C107 C110 1.481 . S
C108 C107 1.377 . S
C108 C109 1.389 . S
C108 H130 0.929 . S
C109 C105 1.397 . S
C109 C108 1.389 . S
C109 H131 0.931 . S
C110 C107 1.481 . S
C110 C111 1.387 . S
C110 C115 1.390 1_556 S
C111 C110 1.387 . S
C111 C112 1.401 1_556 S
C111 H132 0.930 . S
C112 C111 1.401 1_554 S
C112 C113 1.376 . S
C112 C121 1.511 . S
C113 C112 1.376 . S
C113 C114 1.392 . S
C113 H134 0.931 . S
C114 C113 1.392 . S
C114 C115 1.361 . S
C114 C116 1.500 . S
C115 C110 1.390 1_554 S
C115 C114 1.361 . S
C115 H133 0.931 . S
C116 C114 1.500 . S
C116 C117 1.371 . S
C116 C118 1.365 . S
C117 C116 1.371 . S
C117 C127 1.386 . S
C117 H135 0.931 . S
C118 C116 1.365 . S
C118 C119 1.409 . S
C118 H136 0.929 . S
C119 C118 1.409 . S
C119 C120 1.380 . S
C119 H137 0.930 . S
C120 C119 1.380 . S
C120 C127 1.357 . S
C121 C112 1.511 . S
C121 C122 1.341 1_554 S
C121 C123 1.371 . S
C122 C121 1.341 1_556 S
C122 C126 1.394 . S
C122 H138 0.930 . S
C123 C121 1.371 . S
C123 C124 1.392 . S
C123 H139 0.931 . S
C124 C123 1.392 . S
C124 C125 1.331 . S
C124 H142 0.932 . S
C125 C124 1.331 . S
C125 C126 1.336 1_554 S
C126 C122 1.394 . S
C126 C125 1.336 1_556 S
C126 H141 0.929 . S
C127 C117 1.386 . S
C127 C120 1.357 . S
C127 H140 0.928 . S
H128 C104 0.931 . S
H129 C106 0.930 . S
H130 C108 0.929 . S
H131 C109 0.931 . S
H132 C111 0.930 . S
H133 C115 0.931 . S
H134 C113 0.931 . S
H135 C117 0.931 . S
H136 C118 0.929 . S
H137 C119 0.930 . S
H138 C122 0.930 . S
H139 C123 0.931 . S
H140 C127 0.928 . S
H141 C126 0.929 . S
H142 C124 0.932 . S
C143 C144 1.386 . S
C143 C145 1.397 . S
C143 H167 0.931 . S
C144 C143 1.386 . S
C144 C148 1.397 . S
C145 C143 1.397 . S
C145 C146 1.384 . S
C145 H168 0.930 . S
C146 C145 1.384 . S
C146 C147 1.377 . S
C146 C149 1.481 . S
C147 C146 1.377 . S
C147 C148 1.389 . S
C147 H169 0.929 . S
C148 C144 1.397 . S
C148 C147 1.389 . S
C148 H170 0.931 . S
C149 C146 1.481 . S
C149 C150 1.387 . S
C149 C154 1.390 1_556 S
C150 C149 1.387 . S
C150 C151 1.401 1_556 S
C150 H171 0.930 . S
C151 C150 1.401 1_554 S
C151 C152 1.376 . S
C151 C160 1.511 . S
C152 C151 1.376 . S
C152 C153 1.392 . S
C152 H173 0.931 . S
C153 C152 1.392 . S
C153 C154 1.361 . S
C153 C155 1.500 . S
C154 C149 1.390 1_554 S
C154 C153 1.361 . S
C154 H172 0.931 . S
C155 C153 1.500 . S
C155 C156 1.371 . S
C155 C157 1.365 . S
C156 C155 1.371 . S
C156 C166 1.386 . S
C156 H174 0.931 . S
C157 C155 1.365 . S
C157 C158 1.409 . S
C157 H175 0.929 . S
C158 C157 1.409 . S
C158 C159 1.380 . S
C158 H176 0.930 . S
C159 C158 1.380 . S
C159 C166 1.357 . S
C160 C151 1.511 . S
C160 C161 1.341 1_554 S
C160 C162 1.371 . S
C161 C160 1.341 1_556 S
C161 C165 1.394 . S
C161 H177 0.930 . S
C162 C160 1.371 . S
C162 C163 1.392 . S
C162 H178 0.931 . S
C163 C162 1.392 . S
C163 C164 1.331 . S
C163 H181 0.932 . S
C164 C163 1.331 . S
C164 C165 1.336 1_554 S
C165 C161 1.394 . S
C165 C164 1.336 1_556 S
C165 H180 0.929 . S
C166 C156 1.386 . S
C166 C159 1.357 . S
C166 H179 0.928 . S
H167 C143 0.931 . S
H168 C145 0.930 . S
H169 C147 0.929 . S
H170 C148 0.931 . S
H171 C150 0.930 . S
H172 C154 0.931 . S
H173 C152 0.931 . S
H174 C156 0.931 . S
H175 C157 0.929 . S
H176 C158 0.930 . S
H177 C161 0.930 . S
H178 C162 0.931 . S
H179 C166 0.928 . S
H180 C165 0.929 . S
H181 C163 0.932 . S
C182 C183 1.386 . S
C182 C184 1.397 . S
C182 H206 0.931 . S
C183 C182 1.386 . S
C183 C187 1.397 . S
C184 C182 1.397 . S
C184 C185 1.384 . S
C184 H207 0.930 . S
C185 C184 1.384 . S
C185 C186 1.377 . S
C185 C188 1.481 . S
C186 C185 1.377 . S
C186 C187 1.389 . S
C186 H208 0.929 . S
C187 C183 1.397 . S
C187 C186 1.389 . S
C187 H209 0.931 . S
C188 C185 1.481 . S
C188 C189 1.387 . S
C188 C193 1.390 . S
C189 C188 1.387 . S
C189 C190 1.401 . S
C189 H210 0.930 . S
C190 C189 1.401 . S
C190 C191 1.376 1_554 S
C190 C199 1.511 . S
C191 C190 1.376 1_556 S
C191 C192 1.392 . S
C191 H212 0.931 . S
C192 C191 1.392 . S
C192 C193 1.361 1_556 S
C192 C194 1.500 . S
C193 C188 1.390 . S
C193 C192 1.361 1_554 S
C193 H211 0.931 . S
C194 C192 1.500 . S
C194 C195 1.371 . S
C194 C196 1.365 . S
C195 C194 1.371 . S
C195 C205 1.386 . S
C195 H213 0.931 . S
C196 C194 1.365 . S
C196 C197 1.409 . S
C196 H214 0.929 . S
C197 C196 1.409 . S
C197 C198 1.380 . S
C197 H215 0.930 . S
C198 C197 1.380 . S
C198 C205 1.357 . S
C199 C190 1.511 . S
C199 C200 1.341 . S
C199 C201 1.371 1_554 S
C200 C199 1.341 . S
C200 C204 1.394 . S
C200 H216 0.930 . S
C201 C199 1.371 1_556 S
C201 C202 1.392 . S
C201 H217 0.931 . S
C202 C201 1.392 . S
C202 C203 1.331 1_556 S
C202 H220 0.932 . S
C203 C202 1.331 1_554 S
C203 C204 1.336 . S
C204 C200 1.394 . S
C204 C203 1.336 . S
C204 H219 0.929 . S
C205 C195 1.386 . S
C205 C198 1.357 . S
C205 H218 0.928 . S
H206 C182 0.931 . S
H207 C184 0.930 . S
H208 C186 0.929 . S
H209 C187 0.931 . S
H210 C189 0.930 . S
H211 C193 0.931 . S
H212 C191 0.931 . S
H213 C195 0.931 . S
H214 C196 0.929 . S
H215 C197 0.930 . S
H216 C200 0.930 . S
H217 C201 0.931 . S
H218 C205 0.928 . S
H219 C204 0.929 . S
H220 C202 0.932 . S
C221 C222 1.386 . S
C221 C223 1.397 . S
C221 H245 0.931 . S
C222 C221 1.386 . S
C222 C226 1.397 . S
C223 C221 1.397 . S
C223 C224 1.384 . S
C223 H246 0.930 . S
C224 C223 1.384 . S
C224 C225 1.377 . S
C224 C227 1.481 . S
C225 C224 1.377 . S
C225 C226 1.389 . S
C225 H247 0.929 . S
C226 C222 1.397 . S
C226 C225 1.389 . S
C226 H248 0.931 . S
C227 C224 1.481 . S
C227 C228 1.387 . S
C227 C232 1.390 . S
C228 C227 1.387 . S
C228 C229 1.401 . S
C228 H249 0.930 . S
C229 C228 1.401 . S
C229 C230 1.376 1_554 S
C229 C238 1.511 . S
C230 C229 1.376 1_556 S
C230 C231 1.392 . S
C230 H251 0.931 . S
C231 C230 1.392 . S
C231 C232 1.361 1_556 S
C231 C233 1.500 . S
C232 C227 1.390 . S
C232 C231 1.361 1_554 S
C232 H250 0.931 . S
C233 C231 1.500 . S
C233 C234 1.371 . S
C233 C235 1.365 . S
C234 C233 1.371 . S
C234 C244 1.386 . S
C234 H252 0.931 . S
C235 C233 1.365 . S
C235 C236 1.409 . S
C235 H253 0.929 . S
C236 C235 1.409 . S
C236 C237 1.380 . S
C236 H254 0.930 . S
C237 C236 1.380 . S
C237 C244 1.357 . S
C238 C229 1.511 . S
C238 C239 1.341 . S
C238 C240 1.371 1_554 S
C239 C238 1.341 . S
C239 C243 1.394 . S
C239 H255 0.930 . S
C240 C238 1.371 1_556 S
C240 C241 1.392 . S
C240 H256 0.931 . S
C241 C240 1.392 . S
C241 C242 1.331 1_556 S
C241 H259 0.932 . S
C242 C241 1.331 1_554 S
C242 C243 1.336 . S
C243 C239 1.394 . S
C243 C242 1.336 . S
C243 H258 0.929 . S
C244 C234 1.386 . S
C244 C237 1.357 . S
C244 H257 0.928 . S
H245 C221 0.931 . S
H246 C223 0.930 . S
H247 C225 0.929 . S
H248 C226 0.931 . S
H249 C228 0.930 . S
H250 C232 0.931 . S
H251 C230 0.931 . S
H252 C234 0.931 . S
H253 C235 0.929 . S
H254 C236 0.930 . S
H255 C239 0.930 . S
H256 C240 0.931 . S
H257 C244 0.928 . S
H258 C243 0.929 . S
H259 C241 0.932 . S
C260 C261 1.386 . S
C260 C262 1.397 . S
C260 H284 0.931 . S
C261 C260 1.386 . S
C261 C265 1.397 . S
C262 C260 1.397 . S
C262 C263 1.384 . S
C262 H285 0.930 . S
C263 C262 1.384 . S
C263 C264 1.377 . S
C263 C266 1.481 . S
C264 C263 1.377 . S
C264 C265 1.389 . S
C264 H286 0.929 . S
C265 C261 1.397 . S
C265 C264 1.389 . S
C265 H287 0.931 . S
C266 C263 1.481 . S
C266 C267 1.387 . S
C266 C271 1.390 . S
C267 C266 1.387 . S
C267 C268 1.401 . S
C267 H288 0.930 . S
C268 C267 1.401 . S
C268 C269 1.376 . S
C268 C277 1.511 . S
C269 C268 1.376 . S
C269 C270 1.392 . S
C269 H290 0.931 . S
C270 C269 1.392 . S
C270 C271 1.361 . S
C270 C272 1.500 . S
C271 C266 1.390 . S
C271 C270 1.361 . S
C271 H289 0.931 . S
C272 C270 1.500 . S
C272 C273 1.371 . S
C272 C274 1.365 . S
C273 C272 1.371 . S
C273 C283 1.386 . S
C273 H291 0.931 . S
C274 C272 1.365 . S
C274 C275 1.409 . S
C274 H292 0.929 . S
C275 C274 1.409 . S
C275 C276 1.380 . S
C275 H293 0.930 . S
C276 C275 1.380 . S
C276 C283 1.357 . S
C277 C268 1.511 . S
C277 C278 1.341 . S
C277 C279 1.371 . S
C278 C277 1.341 . S
C278 C282 1.394 . S
C278 H294 0.930 . S
C279 C277 1.371 . S
C279 C280 1.392 . S
C279 H295 0.931 . S
C280 C279 1.392 . S
C280 C281 1.331 . S
C280 H298 0.932 . S
C281 C280 1.331 . S
C281 C282 1.336 . S
C282 C278 1.394 . S
C282 C281 1.336 . S
C282 H297 0.929 . S
C283 C273 1.386 . S
C283 C276 1.357 . S
C283 H296 0.928 . S
H284 C260 0.931 . S
H285 C262 0.930 . S
H286 C264 0.929 . S
H287 C265 0.931 . S
H288 C267 0.930 . S
H289 C271 0.931 . S
H290 C269 0.931 . S
H291 C273 0.931 . S
H292 C274 0.929 . S
H293 C275 0.930 . S
H294 C278 0.930 . S
H295 C279 0.931 . S
H296 C283 0.928 . S
H297 C282 0.929 . S
H298 C280 0.932 . S
C299 C300 1.386 . S
C299 C301 1.397 . S
C299 H323 0.931 . S
C300 C299 1.386 . S
C300 C304 1.397 . S
C301 C299 1.397 . S
C301 C302 1.384 . S
C301 H324 0.930 . S
C302 C301 1.384 . S
C302 C303 1.377 . S
C302 C305 1.481 . S
C303 C302 1.377 . S
C303 C304 1.389 . S
C303 H325 0.929 . S
C304 C300 1.397 . S
C304 C303 1.389 . S
C304 H326 0.931 . S
C305 C302 1.481 . S
C305 C306 1.387 . S
C305 C310 1.390 . S
C306 C305 1.387 . S
C306 C307 1.401 . S
C306 H327 0.930 . S
C307 C306 1.401 . S
C307 C308 1.376 . S
C307 C316 1.511 . S
C308 C307 1.376 . S
C308 C309 1.392 . S
C308 H329 0.931 . S
C309 C308 1.392 . S
C309 C310 1.361 . S
C309 C311 1.500 . S
C310 C305 1.390 . S
C310 C309 1.361 . S
C310 H328 0.931 . S
C311 C309 1.500 . S
C311 C312 1.371 . S
C311 C313 1.365 . S
C312 C311 1.371 . S
C312 C322 1.386 . S
C312 H330 0.931 . S
C313 C311 1.365 . S
C313 C314 1.409 . S
C313 H331 0.929 . S
C314 C313 1.409 . S
C314 C315 1.380 . S
C314 H332 0.930 . S
C315 C314 1.380 . S
C315 C322 1.357 . S
C316 C307 1.511 . S
C316 C317 1.341 . S
C316 C318 1.371 . S
C317 C316 1.341 . S
C317 C321 1.394 . S
C317 H333 0.930 . S
C318 C316 1.371 . S
C318 C319 1.392 . S
C318 H334 0.931 . S
C319 C318 1.392 . S
C319 C320 1.331 . S
C319 H337 0.932 . S
C320 C319 1.331 . S
C320 C321 1.336 . S
C321 C317 1.394 . S
C321 C320 1.336 . S
C321 H336 0.929 . S
C322 C312 1.386 . S
C322 C315 1.357 . S
C322 H335 0.928 . S
H323 C299 0.931 . S
H324 C301 0.930 . S
H325 C303 0.929 . S
H326 C304 0.931 . S
H327 C306 0.930 . S
H328 C310 0.931 . S
H329 C308 0.931 . S
H330 C312 0.931 . S
H331 C313 0.929 . S
H332 C314 0.930 . S
H333 C317 0.930 . S
H334 C318 0.931 . S
H335 C322 0.928 . S
H336 C321 0.929 . S
H337 C319 0.932 . S
C338 C339 1.386 . S
C338 C340 1.397 . S
C338 H362 0.931 . S
C339 C338 1.386 . S
C339 C343 1.397 . S
C340 C338 1.397 . S
C340 C341 1.384 . S
C340 H363 0.930 . S
C341 C340 1.384 . S
C341 C342 1.377 . S
C341 C344 1.481 . S
C342 C341 1.377 . S
C342 C343 1.389 . S
C342 H364 0.929 . S
C343 C339 1.397 . S
C343 C342 1.389 . S
C343 H365 0.931 . S
C344 C341 1.481 . S
C344 C345 1.387 . S
C344 C349 1.390 . S
C345 C344 1.387 . S
C345 C346 1.401 . S
C345 H366 0.930 . S
C346 C345 1.401 . S
C346 C347 1.376 . S
C346 C355 1.511 . S
C347 C346 1.376 . S
C347 C348 1.392 . S
C347 H368 0.931 . S
C348 C347 1.392 . S
C348 C349 1.361 . S
C348 C350 1.500 . S
C349 C344 1.390 . S
C349 C348 1.361 . S
C349 H367 0.931 . S
C350 C348 1.500 . S
C350 C351 1.371 . S
C350 C352 1.365 . S
C351 C350 1.371 . S
C351 C361 1.386 . S
C351 H369 0.931 . S
C352 C350 1.365 . S
C352 C353 1.409 . S
C352 H370 0.929 . S
C353 C352 1.409 . S
C353 C354 1.380 . S
C353 H371 0.930 . S
C354 C353 1.380 . S
C354 C361 1.357 . S
C355 C346 1.511 . S
C355 C356 1.341 . S
C355 C357 1.371 . S
C356 C355 1.341 . S
C356 C360 1.394 . S
C356 H372 0.930 . S
C357 C355 1.371 . S
C357 C358 1.392 . S
C357 H373 0.931 . S
C358 C357 1.392 . S
C358 C359 1.331 . S
C358 H376 0.932 . S
C359 C358 1.331 . S
C359 C360 1.336 . S
C360 C356 1.394 . S
C360 C359 1.336 . S
C360 H375 0.929 . S
C361 C351 1.386 . S
C361 C354 1.357 . S
C361 H374 0.928 . S
H362 C338 0.931 . S
H363 C340 0.930 . S
H364 C342 0.929 . S
H365 C343 0.931 . S
H366 C345 0.930 . S
H367 C349 0.931 . S
H368 C347 0.931 . S
H369 C351 0.931 . S
H370 C352 0.929 . S
H371 C353 0.930 . S
H372 C356 0.930 . S
H373 C357 0.931 . S
H374 C361 0.928 . S
H375 C360 0.929 . S
H376 C358 0.932 . S
C377 C378 1.386 . S
C377 C379 1.397 . S
C377 H401 0.931 . S
C378 C377 1.386 . S
C378 C382 1.397 . S
C379 C377 1.397 . S
C379 C380 1.384 . S
C379 H402 0.930 . S
C380 C379 1.384 . S
C380 C381 1.377 . S
C380 C383 1.481 . S
C381 C380 1.377 . S
C381 C382 1.389 . S
C381 H403 0.929 . S
C382 C378 1.397 . S
C382 C381 1.389 . S
C382 H404 0.931 . S
C383 C380 1.481 . S
C383 C384 1.387 . S
C383 C388 1.390 . S
C384 C383 1.387 . S
C384 C385 1.401 . S
C384 H405 0.930 . S
C385 C384 1.401 . S
C385 C386 1.376 . S
C385 C394 1.511 . S
C386 C385 1.376 . S
C386 C387 1.392 . S
C386 H407 0.931 . S
C387 C386 1.392 . S
C387 C388 1.361 . S
C387 C389 1.500 . S
C388 C383 1.390 . S
C388 C387 1.361 . S
C388 H406 0.931 . S
C389 C387 1.500 . S
C389 C390 1.371 . S
C389 C391 1.365 . S
C390 C389 1.371 . S
C390 C400 1.386 . S
C390 H408 0.931 . S
C391 C389 1.365 . S
C391 C392 1.409 . S
C391 H409 0.929 . S
C392 C391 1.409 . S
C392 C393 1.380 . S
C392 H410 0.930 . S
C393 C392 1.380 . S
C393 C400 1.357 . S
C394 C385 1.511 . S
C394 C395 1.341 . S
C394 C396 1.371 . S
C395 C394 1.341 . S
C395 C399 1.394 . S
C395 H411 0.930 . S
C396 C394 1.371 . S
C396 C397 1.392 . S
C396 H412 0.931 . S
C397 C396 1.392 . S
C397 C398 1.331 . S
C397 H415 0.932 . S
C398 C397 1.331 . S
C398 C399 1.336 . S
C399 C395 1.394 . S
C399 C398 1.336 . S
C399 H414 0.929 . S
C400 C390 1.386 . S
C400 C393 1.357 . S
C400 H413 0.928 . S
H401 C377 0.931 . S
H402 C379 0.930 . S
H403 C381 0.929 . S
H404 C382 0.931 . S
H405 C384 0.930 . S
H406 C388 0.931 . S
H407 C386 0.931 . S
H408 C390 0.931 . S
H409 C391 0.929 . S
H410 C392 0.930 . S
H411 C395 0.930 . S
H412 C396 0.931 . S
H413 C400 0.928 . S
H414 C399 0.929 . S
H415 C397 0.932 . S
H416 C422 0.930 . S
H417 C425 0.930 . S
H418 C426 0.930 . S
H419 C427 0.930 . S
H420 C430 0.930 . S
H421 C431 0.930 . S
C422 H416 0.930 . S
C422 C423 1.355 1_556 S
C422 C424 1.413 1_556 S
C423 C422 1.355 1_554 S
C423 C425 1.419 . S
C424 C422 1.413 1_554 S
C424 C429 1.435 . S
C424 C431 1.401 1_554 S
C425 H417 0.930 . S
C425 C423 1.419 . S
C425 C426 1.362 . S
C426 H418 0.930 . S
C426 C425 1.362 . S
C426 C429 1.409 . S
C427 H419 0.930 . S
C427 C428 1.355 . S
C427 C429 1.415 . S
C428 C427 1.355 . S
C428 C430 1.419 1_554 S
C429 C424 1.435 . S
C429 C426 1.409 . S
C429 C427 1.415 . S
C430 H420 0.930 . S
C430 C428 1.419 1_556 S
C430 C431 1.362 . S
C431 H421 0.930 . S
C431 C424 1.401 1_556 S
C431 C430 1.362 . S
H432 C438 0.930 . S
H433 C441 0.930 . S
H434 C442 0.930 . S
H435 C443 0.930 . S
H436 C446 0.930 . S
H437 C447 0.930 . S
C438 H432 0.930 . S
C438 C439 1.355 1_556 S
C438 C440 1.415 . S
C439 C438 1.355 1_554 S
C439 C441 1.419 . S
C440 C438 1.415 . S
C440 C445 1.425 1_556 S
C440 C447 1.409 . S
C441 H433 0.930 . S
C441 C439 1.419 . S
C441 C442 1.362 . S
C442 H434 0.930 . S
C442 C441 1.362 . S
C442 C445 1.409 . S
C443 H435 0.930 . S
C443 C444 1.355 . S
C443 C445 1.415 . S
C444 C443 1.355 . S
C444 C446 1.419 1_554 S
C445 C440 1.425 1_554 S
C445 C442 1.409 . S
C445 C443 1.415 . S
C446 H436 0.930 . S
C446 C444 1.419 1_556 S
C446 C447 1.362 . S
C447 H437 0.930 . S
C447 C440 1.409 . S
C447 C446 1.362 . S
H448 C454 0.930 . S
H449 C457 0.930 . S
H450 C458 0.930 . S
H451 C459 0.930 . S
H452 C462 0.930 . S
H453 C463 0.930 . S
C454 H448 0.930 . S
C454 C455 1.355 1_556 S
C454 C456 1.415 . S
C455 C454 1.355 1_554 S
C455 C457 1.419 . S
C456 C454 1.415 . S
C456 C461 1.425 1_556 S
C456 C463 1.409 . S
C457 H449 0.930 . S
C457 C455 1.419 . S
C457 C458 1.362 . S
C458 H450 0.930 . S
C458 C457 1.362 . S
C458 C461 1.409 . S
C459 H451 0.930 . S
C459 C460 1.355 . S
C459 C461 1.415 . S
C460 C459 1.355 . S
C460 C462 1.419 1_554 S
C461 C456 1.425 1_554 S
C461 C458 1.409 . S
C461 C459 1.415 . S
C462 H452 0.930 . S
C462 C460 1.419 1_556 S
C462 C463 1.362 . S
C463 H453 0.930 . S
C463 C456 1.409 . S
C463 C462 1.362 . S
H464 C470 0.930 . S
H465 C473 0.930 . S
H466 C474 0.930 . S
H467 C475 0.930 . S
H468 C478 0.930 . S
H469 C479 0.930 . S
C470 H464 0.930 . S
C470 C471 1.355 . S
C470 C472 1.415 . S
C471 C470 1.355 . S
C471 C473 1.419 1_554 S
C472 C470 1.415 . S
C472 C477 1.425 . S
C472 C479 1.409 . S
C473 H465 0.930 . S
C473 C471 1.419 1_556 S
C473 C474 1.362 . S
C474 H466 0.930 . S
C474 C473 1.362 . S
C474 C477 1.409 1_556 S
C475 H467 0.930 . S
C475 C476 1.355 1_556 S
C475 C477 1.415 1_556 S
C476 C475 1.355 1_554 S
C476 C478 1.419 . S
C477 C472 1.425 . S
C477 C474 1.409 1_554 S
C477 C475 1.415 1_554 S
C478 H468 0.930 . S
C478 C476 1.419 . S
C478 C479 1.362 . S
C479 H469 0.930 . S
C479 C472 1.409 . S
C479 C478 1.362 . S
H480 C486 0.930 . S
H481 C489 0.930 . S
H482 C490 0.930 . S
H483 C491 0.930 . S
H484 C494 0.930 . S
H485 C495 0.930 . S
C486 H480 0.930 . S
C486 C487 1.355 . S
C486 C488 1.415 . S
C487 C486 1.355 . S
C487 C489 1.419 . S
C488 C486 1.415 . S
C488 C493 1.425 . S
C488 C495 1.409 . S
C489 H481 0.930 . S
C489 C487 1.419 . S
C489 C490 1.362 . S
C490 H482 0.930 . S
C490 C489 1.362 . S
C490 C493 1.409 . S
C491 H483 0.930 . S
C491 C492 1.355 . S
C491 C493 1.415 . S
C492 C491 1.355 . S
C492 C494 1.419 . S
C493 C488 1.425 . S
C493 C490 1.409 . S
C493 C491 1.415 . S
C494 H484 0.930 . S
C494 C492 1.419 . S
C494 C495 1.362 . S
C495 H485 0.930 . S
C495 C488 1.409 . S
C495 C494 1.362 . S
H496 C502 0.930 . S
H497 C505 0.930 . S
H498 C506 0.930 . S
H499 C507 0.930 . S
H500 C510 0.930 . S
H501 C511 0.930 . S
C502 H496 0.930 . S
C502 C503 1.355 . S
C502 C504 1.415 . S
C503 C502 1.355 . S
C503 C505 1.419 . S
C504 C502 1.415 . S
C504 C509 1.425 . S
C504 C511 1.409 . S
C505 H497 0.930 . S
C505 C503 1.419 . S
C505 C506 1.362 . S
C506 H498 0.930 . S
C506 C505 1.362 . S
C506 C509 1.409 . S
C507 H499 0.930 . S
C507 C508 1.355 . S
C507 C509 1.415 . S
C508 C507 1.355 . S
C508 C510 1.419 . S
C509 C504 1.425 . S
C509 C506 1.409 . S
C509 C507 1.415 . S
C510 H500 0.930 . S
C510 C508 1.419 . S
C510 C511 1.362 . S
C511 H501 0.930 . S
C511 C504 1.409 . S
C511 C510 1.362 . S
H512 C518 0.930 . S
H513 C521 0.930 . S
H514 C522 0.930 . S
H515 C523 0.930 . S
H516 C526 0.930 . S
H517 C527 0.930 . S
C518 H512 0.930 . S
C518 C519 1.355 . S
C518 C520 1.415 . S
C519 C518 1.355 . S
C519 C521 1.419 . S
C520 C518 1.415 . S
C520 C525 1.425 . S
C520 C527 1.409 . S
C521 H513 0.930 . S
C521 C519 1.419 . S
C521 C522 1.362 . S
C522 H514 0.930 . S
C522 C521 1.362 . S
C522 C525 1.409 . S
C523 H515 0.930 . S
C523 C524 1.355 . S
C523 C525 1.415 . S
C524 C523 1.355 . S
C524 C526 1.419 . S
C525 C520 1.425 . S
C525 C522 1.409 . S
C525 C523 1.415 . S
C526 H516 0.930 . S
C526 C524 1.419 . S
C526 C527 1.362 . S
C527 H517 0.930 . S
C527 C520 1.409 . S
C527 C526 1.362 . S
H528 C534 0.930 . S
H529 C537 0.930 . S
H530 C538 0.930 . S
H531 C539 0.930 . S
H532 C542 0.930 . S
H533 C543 0.930 . S
C534 H528 0.930 . S
C534 C535 1.355 . S
C534 C536 1.415 . S
C535 C534 1.355 . S
C535 C537 1.419 . S
C536 C534 1.415 . S
C536 C541 1.425 . S
C536 C543 1.409 . S
C537 H529 0.930 . S
C537 C535 1.419 . S
C537 C538 1.362 . S
C538 H530 0.930 . S
C538 C537 1.362 . S
C538 C541 1.409 . S
C539 H531 0.930 . S
C539 C540 1.355 . S
C539 C541 1.415 . S
C540 C539 1.355 . S
C540 C542 1.419 . S
C541 C536 1.425 . S
C541 C538 1.409 . S
C541 C539 1.415 . S
C542 H532 0.930 . S
C542 C540 1.419 . S
C542 C543 1.362 . S
C543 H533 0.930 . S
C543 C536 1.409 . S
C543 C542 1.362 . S
H544 C550 0.930 . S
H545 C553 0.930 1_655 S
H546 C554 0.927 1_655 S
H547 C555 0.930 . S
H548 C558 0.930 . S
H549 C559 0.930 . S
C550 H544 0.930 . S
C550 C551 1.355 . S
C550 C552 1.415 . S
C551 C550 1.355 . S
C551 C553 1.419 . S
C552 C550 1.415 . S
C552 C557 1.425 . S
C552 C559 1.409 . S
C553 H545 0.930 1_455 S
C553 C551 1.419 . S
C553 C554 1.362 . S
C554 H546 0.927 1_455 S
C554 C553 1.362 . S
C554 C557 1.412 . S
C555 H547 0.930 . S
C555 C556 1.355 . S
C555 C557 1.415 . S
C556 C555 1.355 . S
C556 C558 1.419 . S
C557 C552 1.425 . S
C557 C554 1.412 . S
C557 C555 1.415 . S
C558 H548 0.930 . S
C558 C556 1.419 . S
C558 C559 1.362 . S
C559 H549 0.930 . S
C559 C552 1.409 . S
C559 C558 1.362 . S
H560 C566 0.930 . S
H561 C569 0.930 . S
H562 C570 0.930 . S
H563 C571 0.930 . S
H564 C574 0.930 . S
H565 C575 0.930 . S
C566 H560 0.930 . S
C566 C567 1.355 . S
C566 C568 1.415 . S
C567 C566 1.355 . S
C567 C569 1.419 . S
C568 C566 1.415 . S
C568 C573 1.425 . S
C568 C575 1.409 . S
C569 H561 0.930 . S
C569 C567 1.419 . S
C569 C570 1.362 . S
C570 H562 0.930 . S
C570 C569 1.362 . S
C570 C573 1.409 . S
C571 H563 0.930 . S
C571 C572 1.355 . S
C571 C573 1.415 . S
C572 C571 1.355 . S
C572 C574 1.419 . S
C573 C568 1.425 . S
C573 C570 1.409 . S
C573 C571 1.415 . S
C574 H564 0.930 . S
C574 C572 1.419 . S
C574 C575 1.362 . S
C575 H565 0.930 . S
C575 C568 1.409 . S
C575 C574 1.362 . S
H576 C582 0.930 . S
H577 C585 0.930 . S
H578 C586 0.930 . S
H579 C587 0.930 . S
H580 C590 0.930 . S
H581 C591 0.930 . S
C582 H576 0.930 . S
C582 C583 1.355 . S
C582 C584 1.415 . S
C583 C582 1.355 . S
C583 C585 1.419 . S
C584 C582 1.415 . S
C584 C589 1.425 . S
C584 C591 1.409 . S
C585 H577 0.930 . S
C585 C583 1.419 . S
C585 C586 1.362 . S
C586 H578 0.930 . S
C586 C585 1.362 . S
C586 C589 1.409 . S
C587 H579 0.930 . S
C587 C588 1.355 . S
C587 C589 1.415 . S
C588 C587 1.355 . S
C588 C590 1.419 . S
C589 C584 1.425 . S
C589 C586 1.409 . S
C589 C587 1.415 . S
C590 H580 0.930 . S
C590 C588 1.419 . S
C590 C591 1.362 . S
C591 H581 0.930 . S
C591 C584 1.409 . S
C591 C590 1.362 . S
H592 C598 0.930 . S
H593 C601 0.930 . S
H594 C602 0.930 . S
H595 C603 0.930 . S
H596 C606 0.930 . S
H597 C607 0.930 . S
C598 H592 0.930 . S
C598 C599 1.355 . S
C598 C600 1.415 . S
C599 C598 1.355 . S
C599 C601 1.419 . S
C600 C598 1.415 . S
C600 C605 1.425 . S
C600 C607 1.409 . S
C601 H593 0.930 . S
C601 C599 1.419 . S
C601 C602 1.362 . S
C602 H594 0.930 . S
C602 C601 1.362 . S
C602 C605 1.409 . S
C603 H595 0.930 . S
C603 C604 1.355 . S
C603 C605 1.415 . S
C604 C603 1.355 . S
C604 C606 1.419 . S
C605 C600 1.425 . S
C605 C602 1.409 . S
C605 C603 1.415 . S
C606 H596 0.930 . S
C606 C604 1.419 . S
C606 C607 1.362 . S
C607 H597 0.930 . S
C607 C600 1.409 . S
C607 C606 1.362 . S
H608 C614 0.930 . S
H609 C617 0.930 . S
H610 C618 0.930 . S
H611 C619 0.930 . S
H612 C622 0.930 . S
H613 C623 0.930 . S
C614 H608 0.930 . S
C614 C615 1.355 . S
C614 C616 1.415 . S
C615 C614 1.355 . S
C615 C617 1.419 . S
C616 C614 1.415 . S
C616 C621 1.425 . S
C616 C623 1.409 . S
C617 H609 0.930 . S
C617 C615 1.419 . S
C617 C618 1.362 . S
C618 H610 0.930 . S
C618 C617 1.362 . S
C618 C621 1.409 . S
C619 H611 0.930 . S
C619 C620 1.355 . S
C619 C621 1.415 . S
C620 C619 1.355 . S
C620 C622 1.419 . S
C621 C616 1.425 . S
C621 C618 1.409 . S
C621 C619 1.415 . S
C622 H612 0.930 . S
C622 C620 1.419 . S
C622 C623 1.362 . S
C623 H613 0.930 . S
C623 C616 1.409 . S
C623 C622 1.362 . S
H624 C630 0.930 . S
H625 C633 0.930 . S
H626 C634 0.930 . S
H627 C635 0.930 . S
H628 C638 0.930 . S
H629 C639 0.930 . S
C630 H624 0.930 . S
C630 C631 1.355 . S
C630 C632 1.415 . S
C631 C630 1.355 . S
C631 C633 1.419 . S
C632 C630 1.415 . S
C632 C637 1.425 . S
C632 C639 1.409 . S
C633 H625 0.930 . S
C633 C631 1.419 . S
C633 C634 1.362 . S
C634 H626 0.930 . S
C634 C633 1.362 . S
C634 C637 1.409 . S
C635 H627 0.930 . S
C635 C636 1.355 . S
C635 C637 1.415 . S
C636 C635 1.355 . S
C636 C638 1.419 . S
C637 C632 1.425 . S
C637 C634 1.409 . S
C637 C635 1.415 . S
C638 H628 0.930 . S
C638 C636 1.419 . S
C638 C639 1.362 . S
C639 H629 0.930 . S
C639 C632 1.409 . S
C639 C638 1.362 . S
H640 C646 0.930 . S
H641 C649 0.930 . S
H642 C650 0.930 . S
H643 C651 0.930 . S
H644 C654 0.930 . S
H645 C655 0.930 . S
C646 H640 0.930 . S
C646 C647 1.355 . S
C646 C648 1.415 . S
C647 C646 1.355 . S
C647 C649 1.419 . S
C648 C646 1.415 . S
C648 C653 1.425 . S
C648 C655 1.409 . S
C649 H641 0.930 . S
C649 C647 1.419 . S
C649 C650 1.362 . S
C650 H642 0.930 . S
C650 C649 1.362 . S
C650 C653 1.409 . S
C651 H643 0.930 . S
C651 C652 1.355 . S
C651 C653 1.415 . S
C652 C651 1.355 . S
C652 C654 1.419 . S
C653 C648 1.425 . S
C653 C650 1.409 . S
C653 C651 1.415 . S
C654 H644 0.930 . S
C654 C652 1.419 . S
C654 C655 1.362 . S
C655 H645 0.930 . S
C655 C648 1.409 . S
C655 C654 1.362 . S
H656 C662 0.930 . S
H657 C665 0.930 . S
H658 C666 0.930 . S
H659 C667 0.930 . S
H660 C670 0.930 . S
H661 C671 0.930 . S
C662 H656 0.930 . S
C662 C663 1.355 . S
C662 C664 1.415 . S
C663 C662 1.355 . S
C663 C665 1.419 . S
C664 C662 1.415 . S
C664 C669 1.425 . S
C664 C671 1.409 . S
C665 H657 0.930 . S
C665 C663 1.419 . S
C665 C666 1.362 . S
C666 H658 0.930 . S
C666 C665 1.362 . S
C666 C669 1.409 . S
C667 H659 0.930 . S
C667 C668 1.355 . S
C667 C669 1.415 . S
C668 C667 1.355 . S
C668 C670 1.419 . S
C669 C664 1.425 . S
C669 C666 1.409 . S
C669 C667 1.415 . S
C670 H660 0.930 . S
C670 C668 1.419 . S
C670 C671 1.362 . S
C671 H661 0.930 . S
C671 C664 1.409 . S
C671 C670 1.362 . S
H672 C678 0.930 . S
H673 C681 0.930 . S
H674 C682 0.930 . S
H675 C683 0.930 . S
H676 C686 0.930 . S
H677 C687 0.930 . S
C678 H672 0.930 . S
C678 C679 1.355 . S
C678 C680 1.415 . S
C679 C678 1.355 . S
C679 C681 1.419 . S
C680 C678 1.415 . S
C680 C685 1.425 . S
C680 C687 1.409 . S
C681 H673 0.930 . S
C681 C679 1.419 . S
C681 C682 1.362 . S
C682 H674 0.930 . S
C682 C681 1.362 . S
C682 C685 1.409 . S
C683 H675 0.930 . S
C683 C684 1.355 . S
C683 C685 1.415 . S
C684 C683 1.355 . S
C684 C686 1.419 . S
C685 C680 1.425 . S
C685 C682 1.409 . S
C685 C683 1.415 . S
C686 H676 0.930 . S
C686 C684 1.419 . S
C686 C687 1.362 . S
C687 H677 0.930 . S
C687 C680 1.409 . S
C687 C686 1.362 . S
H688 C694 0.930 . S
H689 C697 0.930 . S
H690 C698 0.930 . S
H691 C699 0.930 . S
H692 C702 0.930 . S
H693 C703 0.930 . S
C694 H688 0.930 . S
C694 C695 1.355 . S
C694 C696 1.415 . S
C695 C694 1.355 . S
C695 C697 1.419 . S
C696 C694 1.415 . S
C696 C701 1.425 . S
C696 C703 1.409 . S
C697 H689 0.930 . S
C697 C695 1.419 . S
C697 C698 1.362 . S
C698 H690 0.930 . S
C698 C697 1.362 . S
C698 C701 1.409 . S
C699 H691 0.930 . S
C699 C700 1.355 . S
C699 C701 1.415 . S
C700 C699 1.355 . S
C700 C702 1.419 . S
C701 C696 1.425 . S
C701 C698 1.409 . S
C701 C699 1.415 . S
C702 H692 0.930 . S
C702 C700 1.419 . S
C702 C703 1.362 . S
C703 H693 0.930 . S
C703 C696 1.409 . S
C703 C702 1.362 . S
H704 C710 0.930 . S
H705 C713 0.930 . S
H706 C714 0.930 . S
H707 C715 0.930 . S
H708 C718 0.930 . S
H709 C719 0.930 . S
C710 H704 0.930 . S
C710 C711 1.355 . S
C710 C712 1.415 . S
C711 C710 1.355 . S
C711 C713 1.419 . S
C712 C710 1.415 . S
C712 C717 1.425 . S
C712 C719 1.409 . S
C713 H705 0.930 . S
C713 C711 1.419 . S
C713 C714 1.362 . S
C714 H706 0.930 . S
C714 C713 1.362 . S
C714 C717 1.409 . S
C715 H707 0.930 . S
C715 C716 1.355 . S
C715 C717 1.415 . S
C716 C715 1.355 . S
C716 C718 1.419 . S
C717 C712 1.425 . S
C717 C714 1.409 . S
C717 C715 1.415 . S
C718 H708 0.930 . S
C718 C716 1.419 . S
C718 C719 1.362 . S
C719 H709 0.930 . S
C719 C712 1.409 . S
C719 C718 1.362 . S
H720 C726 0.930 . S
H721 C729 0.930 . S
H722 C730 0.930 . S
H723 C731 0.930 . S
H724 C734 0.930 . S
H725 C735 0.930 . S
C726 H720 0.930 . S
C726 C727 1.355 . S
C726 C728 1.415 . S
C727 C726 1.355 . S
C727 C729 1.419 . S
C728 C726 1.415 . S
C728 C733 1.425 . S
C728 C735 1.409 . S
C729 H721 0.930 . S
C729 C727 1.419 . S
C729 C730 1.362 . S
C730 H722 0.930 . S
C730 C729 1.362 . S
C730 C733 1.409 . S
C731 H723 0.930 . S
C731 C732 1.355 . S
C731 C733 1.415 . S
C732 C731 1.355 . S
C732 C734 1.419 . S
C733 C728 1.425 . S
C733 C730 1.409 . S
C733 C731 1.415 . S
C734 H724 0.930 . S
C734 C732 1.419 . S
C734 C735 1.362 . S
C735 H725 0.930 . S
C735 C728 1.409 . S
C735 C734 1.362 . S
H736 C742 0.930 . S
H737 C745 0.930 . S
H738 C746 0.930 . S
H739 C747 0.930 . S
H740 C750 0.930 . S
H741 C751 0.930 . S
C742 H736 0.930 . S
C742 C743 1.355 . S
C742 C744 1.415 . S
C743 C742 1.355 . S
C743 C745 1.419 . S
C744 C742 1.415 . S
C744 C749 1.425 . S
C744 C751 1.409 . S
C745 H737 0.930 . S
C745 C743 1.419 . S
C745 C746 1.362 . S
C746 H738 0.930 . S
C746 C745 1.362 . S
C746 C749 1.409 . S
C747 H739 0.930 . S
C747 C748 1.355 . S
C747 C749 1.415 . S
C748 C747 1.355 . S
C748 C750 1.419 . S
C749 C744 1.425 . S
C749 C746 1.409 . S
C749 C747 1.415 . S
C750 H740 0.930 . S
C750 C748 1.419 . S
C750 C751 1.362 . S
C751 H741 0.930 . S
C751 C744 1.409 . S
C751 C750 1.362 . S
H752 C758 0.930 . S
H753 C761 0.930 . S
H754 C762 0.930 . S
H755 C763 0.930 . S
H756 C766 0.930 . S
H757 C767 0.930 . S
C758 H752 0.930 . S
C758 C759 1.355 . S
C758 C760 1.415 . S
C759 C758 1.355 . S
C759 C761 1.419 . S
C760 C758 1.415 . S
C760 C765 1.425 . S
C760 C767 1.409 . S
C761 H753 0.930 . S
C761 C759 1.419 . S
C761 C762 1.362 . S
C762 H754 0.930 . S
C762 C761 1.362 . S
C762 C765 1.409 . S
C763 H755 0.930 . S
C763 C764 1.355 . S
C763 C765 1.415 . S
C764 C763 1.355 . S
C764 C766 1.419 . S
C765 C760 1.425 . S
C765 C762 1.409 . S
C765 C763 1.415 . S
C766 H756 0.930 . S
C766 C764 1.419 . S
C766 C767 1.362 . S
C767 H757 0.930 . S
C767 C760 1.409 . S
C767 C766 1.362 . S
H768 C774 0.930 . S
H769 C777 0.930 . S
H770 C778 0.930 . S
H771 C779 0.930 . S
H772 C782 0.930 . S
H773 C783 0.930 . S
C774 H768 0.930 . S
C774 C775 1.355 . S
C774 C776 1.415 . S
C775 C774 1.355 . S
C775 C777 1.419 . S
C776 C774 1.415 . S
C776 C781 1.425 . S
C776 C783 1.409 . S
C777 H769 0.930 . S
C777 C775 1.419 . S
C777 C778 1.362 . S
C778 H770 0.930 . S
C778 C777 1.362 . S
C778 C781 1.409 . S
C779 H771 0.930 . S
C779 C780 1.355 . S
C779 C781 1.415 . S
C780 C779 1.355 . S
C780 C782 1.419 . S
C781 C776 1.425 . S
C781 C778 1.409 . S
C781 C779 1.415 . S
C782 H772 0.930 . S
C782 C780 1.419 . S
C782 C783 1.362 . S
C783 H773 0.930 . S
C783 C776 1.409 . S
C783 C782 1.362 . S
H784 C790 0.930 . S
H785 C793 0.930 . S
H786 C794 0.930 . S
H787 C795 0.930 . S
H788 C798 0.930 . S
H789 C799 0.930 . S
C790 H784 0.930 . S
C790 C791 1.355 . S
C790 C792 1.415 . S
C791 C790 1.355 . S
C791 C793 1.419 . S
C792 C790 1.415 . S
C792 C797 1.425 . S
C792 C799 1.409 . S
C793 H785 0.930 . S
C793 C791 1.419 . S
C793 C794 1.362 . S
C794 H786 0.930 . S
C794 C793 1.362 . S
C794 C797 1.409 . S
C795 H787 0.930 . S
C795 C796 1.355 . S
C795 C797 1.415 . S
C796 C795 1.355 . S
C796 C798 1.419 . S
C797 C792 1.425 . S
C797 C794 1.409 . S
C797 C795 1.415 . S
C798 H788 0.930 . S
C798 C796 1.419 . S
C798 C799 1.362 . S
C799 H789 0.930 . S
C799 C792 1.409 . S
C799 C798 1.362 . S
C423 C45 1.636 . S
C428 C125 1.643 . S
C439 C30 1.626 . S
C444 C164 1.634 . S
C455 C39 1.628 . S
C460 C203 1.646 . S
C476 C242 1.666 . S
C471 C34 1.651 . S
C487 C97 1.624 . S
C492 C281 1.632 . S
C508 C320 1.610 . S
C503 C82 1.602 . S
C524 C359 1.654 . S
C519 C91 1.639 . S
C540 C398 1.665 . S
C535 C86 1.650 . S
C556 C354 1.548 . S
C551 C26 1.491 . S
C572 C393 1.525 . S
C567 C36 1.456 . S
C588 C261 1.526 . S
C583 C32 1.457 . S
C604 C300 1.525 . S
C599 C42 1.457 . S
C615 C18 1.611 . S
C620 C315 1.672 . S
C636 C339 1.673 . S
C631 C50 1.610 . S
C647 C4 1.605 . S
C652 C378 1.671 . S
C663 C48 1.610 . S
C668 C276 1.672 . S
C684 C198 1.578 . S
C679 C78 1.538 . S
C695 C88 1.530 . S
C700 C237 1.573 . S
C716 C105 1.526 . S
C711 C84 1.457 . S
C732 C144 1.572 . S
C727 C94 1.530 . S
C748 C159 1.642 . S
C743 C70 1.563 . S
C764 C183 1.642 . S
C759 C102 1.556 . S
C775 C56 1.559 . S
C780 C222 1.643 . S
C791 C100 1.526 . S
C796 C120 1.622 . S
