# Generated by pormake.
# Topology nom, (4,4)-cn, num edge types: 1
# Building blocks:
#     Node 0, Type 0, BuildingBlock: AZAVOO_clean_linker_0, # of connection points: 4
#     Node 1, Type 0, BuildingBlock: AZAVOO_clean_linker_0, # of connection points: 4
#     Node 2, Type 0, BuildingBlock: AZAVOO_clean_linker_0, # of connection points: 4
#     Node 3, Type 0, BuildingBlock: AZAVOO_clean_linker_0, # of connection points: 4
#     Node 4, Type 0, BuildingBlock: AZAVOO_clean_linker_0, # of connection points: 4
#     Node 5, Type 0, BuildingBlock: AZAVOO_clean_linker_0, # of connection points: 4
#     Node 6, Type 1, BuildingBlock: TATPOV_clean_sbu_0, # of connection points: 4
#     Node 7, Type 1, BuildingBlock: TATPOV_clean_sbu_0, # of connection points: 4
#     Node 8, Type 1, BuildingBlock: TATPOV_clean_sbu_0, # of connection points: 4
#     Node 9, Type 1, BuildingBlock: TATPOV_clean_sbu_0, # of connection points: 4
#     Node 10, Type 1, BuildingBlock: TATPOV_clean_sbu_0, # of connection points: 4
#     Node 11, Type 1, BuildingBlock: TATPOV_clean_sbu_0, # of connection points: 4
#     Edge 12, Type (0, 1), BuildingBlock: KIFKEQ_clean_linker_1, # of connection points: 2
#     Edge 13, Type (0, 1), BuildingBlock: KIFKEQ_clean_linker_1, # of connection points: 2
#     Edge 14, Type (0, 1), BuildingBlock: KIFKEQ_clean_linker_1, # of connection points: 2
#     Edge 15, Type (0, 1), BuildingBlock: KIFKEQ_clean_linker_1, # of connection points: 2
#     Edge 16, Type (0, 1), BuildingBlock: KIFKEQ_clean_linker_1, # of connection points: 2
#     Edge 17, Type (0, 1), BuildingBlock: KIFKEQ_clean_linker_1, # of connection points: 2
#     Edge 18, Type (0, 1), BuildingBlock: KIFKEQ_clean_linker_1, # of connection points: 2
#     Edge 19, Type (0, 1), BuildingBlock: KIFKEQ_clean_linker_1, # of connection points: 2
#     Edge 20, Type (0, 1), BuildingBlock: KIFKEQ_clean_linker_1, # of connection points: 2
#     Edge 21, Type (0, 1), BuildingBlock: KIFKEQ_clean_linker_1, # of connection points: 2
#     Edge 22, Type (0, 1), BuildingBlock: KIFKEQ_clean_linker_1, # of connection points: 2
#     Edge 23, Type (0, 1), BuildingBlock: KIFKEQ_clean_linker_1, # of connection points: 2
#     Edge 24, Type (0, 1), BuildingBlock: KIFKEQ_clean_linker_1, # of connection points: 2
#     Edge 25, Type (0, 1), BuildingBlock: KIFKEQ_clean_linker_1, # of connection points: 2
#     Edge 26, Type (0, 1), BuildingBlock: KIFKEQ_clean_linker_1, # of connection points: 2
#     Edge 27, Type (0, 1), BuildingBlock: KIFKEQ_clean_linker_1, # of connection points: 2
#     Edge 28, Type (0, 1), BuildingBlock: KIFKEQ_clean_linker_1, # of connection points: 2
#     Edge 29, Type (0, 1), BuildingBlock: KIFKEQ_clean_linker_1, # of connection points: 2
#     Edge 30, Type (0, 1), BuildingBlock: KIFKEQ_clean_linker_1, # of connection points: 2
#     Edge 31, Type (0, 1), BuildingBlock: KIFKEQ_clean_linker_1, # of connection points: 2
#     Edge 32, Type (0, 1), BuildingBlock: KIFKEQ_clean_linker_1, # of connection points: 2
#     Edge 33, Type (0, 1), BuildingBlock: KIFKEQ_clean_linker_1, # of connection points: 2
#     Edge 34, Type (0, 1), BuildingBlock: KIFKEQ_clean_linker_1, # of connection points: 2
#     Edge 35, Type (0, 1), BuildingBlock: KIFKEQ_clean_linker_1, # of connection points: 2
# Relax obj value: 0.158
# Max RMSD: 0.227
# Mean RMSD: 0.171
data_MOF--net-nom--node1-TATPOV_clean_sbu_0--node2-AZAVOO_clean_linker_0--edge1-KIFKEQ_clean_linker_1
_symmetry_space_group_name_H-M    P1
_symmetry_Int_Tables_number       1
_symmetry_cell_setting            triclinic
loop_
_symmetry_equiv_pos_as_xyz
'x, y, z'
_cell_length_a     48.099402
_cell_length_b     50.120362
_cell_length_c     60.22628
_cell_angle_alpha  90.60253
_cell_angle_beta   90.33455
_cell_angle_gamma 121.05185
loop_
_atom_site_label
_atom_site_type_symbol
_atom_site_fract_x
_atom_site_fract_y
_atom_site_fract_z
_atom_type_partial_charge
H0 H 0.057 0.38963 0.17505 0.0
H1 H 0.26427 0.60885 0.35839 0.0
H2 H 0.99772 0.40374 0.2781 0.0
H3 H 0.95819 0.38634 0.24764 0.0
H4 H 0.96066 0.47375 0.25161 0.0
H5 H 0.00206 0.4918 0.28071 0.0
H6 H 0.0722 0.42134 0.26988 0.0
H7 H 0.06834 0.40171 0.23191 0.0
H8 H 0.04489 0.46899 0.2081 0.0
H9 H 0.04937 0.48873 0.24606 0.0
H10 H 0.13967 0.4695 0.30325 0.0
H11 H 0.19641 0.50044 0.2916 0.0
H12 H 0.17086 0.55207 0.24751 0.0
H13 H 0.11507 0.52246 0.25992 0.0
H14 H 0.11901 0.47816 0.35121 0.0
H15 H 0.17242 0.50865 0.36928 0.0
H16 H 0.19603 0.58524 0.32556 0.0
H17 H 0.14244 0.55474 0.30794 0.0
H18 H 0.04742 0.45955 0.36641 0.0
H19 H 0.06094 0.4819 0.40413 0.0
H20 H 0.10848 0.57443 0.37682 0.0
H21 H 0.09392 0.55184 0.33944 0.0
H22 H 0.97891 0.42553 0.32972 0.0
H23 H 0.93246 0.42636 0.34568 0.0
H24 H 0.98537 0.52678 0.34129 0.0
H25 H 0.03067 0.52553 0.32462 0.0
O26 O 0.05867 0.39793 0.18992 0.0
O27 O 0.04639 0.43275 0.17858 0.0
O28 O 0.2289 0.5571 0.37472 0.0
O29 O 0.24278 0.59645 0.35183 0.0
C30 C 0.03409 0.46327 0.2945 0.0
C31 C 0.0624 0.4675 0.28394 0.0
C32 C 0.09279 0.48401 0.29497 0.0
C33 C 0.09483 0.49537 0.31687 0.0
C34 C 0.06671 0.49092 0.32752 0.0
C35 C 0.03644 0.47557 0.31619 0.0
C36 C 0.00315 0.4492 0.28149 0.0
C37 C 0.98906 0.41879 0.27276 0.0
C38 C 0.96633 0.40884 0.25535 0.0
C39 C 0.9568 0.42895 0.24671 0.0
C40 C 0.96821 0.45801 0.25733 0.0
C41 C 0.99146 0.46819 0.27434 0.0
C42 C 0.06073 0.4562 0.26075 0.0
C43 C 0.06636 0.43186 0.25642 0.0
C44 C 0.06406 0.42066 0.23472 0.0
C45 C 0.05616 0.43369 0.21697 0.0
C46 C 0.05091 0.45836 0.22138 0.0
C47 C 0.05335 0.46961 0.24306 0.0
C48 C 0.12327 0.49396 0.28264 0.0
C49 C 0.14613 0.48669 0.29045 0.0
C50 C 0.17847 0.50433 0.28381 0.0
C51 C 0.18799 0.52874 0.26878 0.0
C52 C 0.16418 0.5332 0.25893 0.0
C53 C 0.13214 0.51615 0.26596 0.0
C54 C 0.127 0.51415 0.32817 0.0
C55 C 0.13572 0.50157 0.34566 0.0
C56 C 0.16624 0.51902 0.3559 0.0
C57 C 0.18856 0.54934 0.34878 0.0
C58 C 0.17949 0.56196 0.33141 0.0
C59 C 0.14894 0.54457 0.32128 0.0
C60 C 0.06984 0.50409 0.35025 0.0
C61 C 0.06004 0.48461 0.36868 0.0
C62 C 0.06811 0.49744 0.39017 0.0
C63 C 0.08613 0.52998 0.39351 0.0
C64 C 0.09434 0.54932 0.37494 0.0
C65 C 0.08617 0.53648 0.35354 0.0
C66 C 0.00824 0.47548 0.32618 0.0
C67 C 0.9803 0.44762 0.33219 0.0
C68 C 0.95393 0.44819 0.34143 0.0
C69 C 0.95515 0.47664 0.34471 0.0
C70 C 0.98334 0.50442 0.33869 0.0
C71 C 0.00946 0.50381 0.32941 0.0
C72 C 0.05343 0.42153 0.19398 0.0
C73 C 0.22123 0.56777 0.35929 0.0
H74 H 0.55786 0.07964 0.349 0.0
H75 H 0.55716 0.23441 0.56675 0.0
H76 H 0.54227 0.01979 0.46153 0.0
H77 H 0.53086 0.98055 0.43301 0.0
H78 H 0.42787 0.94179 0.44206 0.0
H79 H 0.4398 0.98296 0.4691 0.0
H80 H 0.56862 0.088 0.44595 0.0
H81 H 0.57402 0.08953 0.40554 0.0
H82 H 0.46947 0.03872 0.39826 0.0
H83 H 0.46444 0.03775 0.43869 0.0
H84 H 0.58477 0.13829 0.48039 0.0
H85 H 0.60328 0.18924 0.46393 0.0
H86 H 0.50513 0.15753 0.4422 0.0
H87 H 0.48686 0.10667 0.45875 0.0
H88 H 0.5734 0.11603 0.53266 0.0
H89 H 0.59282 0.16336 0.55531 0.0
H90 H 0.51339 0.17213 0.53047 0.0
H91 H 0.49399 0.12454 0.50817 0.0
H92 H 0.53848 0.0455 0.54691 0.0
H93 H 0.54186 0.05557 0.58693 0.0
H94 H 0.47111 0.08385 0.57994 0.0
H95 H 0.46642 0.07162 0.54042 0.0
H96 H 0.51404 0.99369 0.52283 0.0
H97 H 0.47974 0.9435 0.54068 0.0
H98 H 0.39502 0.94915 0.52466 0.0
H99 H 0.42982 7e-05 0.50875 0.0
O100 O 0.55517 0.07895 0.36495 0.0
O101 O 0.50131 0.05261 0.36212 0.0
O102 O 0.59033 0.20999 0.57031 0.0
O103 O 0.55007 0.21569 0.55792 0.0
C104 C 0.49956 0.03245 0.48065 0.0
C105 C 0.51294 0.06138 0.46977 0.0
C106 C 0.52275 0.0889 0.48219 0.0
C107 C 0.52024 0.08773 0.50552 0.0
C108 C 0.50568 0.05869 0.51631 0.0
C109 C 0.49452 0.03095 0.50381 0.0
C110 C 0.4919 0.00421 0.46747 0.0
C111 C 0.51723 0.00239 0.45764 0.0
C112 C 0.5106 0.97974 0.44139 0.0
C113 C 0.47838 0.95806 0.43492 0.0
C114 C 0.453 0.95851 0.44617 0.0
C115 C 0.45971 0.98167 0.46204 0.0
C116 C 0.51615 0.06276 0.44522 0.0
C117 C 0.54693 0.0774 0.43559 0.0
C118 C 0.54994 0.07814 0.4125 0.0
C119 C 0.52218 0.0642 0.39866 0.0
C120 C 0.49135 0.04965 0.40843 0.0
C121 C 0.48839 0.04902 0.43151 0.0
C122 C 0.53452 0.11888 0.47074 0.0
C123 C 0.56739 0.1423 0.47186 0.0
C124 C 0.57789 0.17128 0.46239 0.0
C125 C 0.5556 0.17735 0.45183 0.0
C126 C 0.52277 0.15358 0.4504 0.0
C127 C 0.51235 0.12453 0.45969 0.0
C128 C 0.5324 0.11698 0.51872 0.0
C129 C 0.56027 0.12825 0.53213 0.0
C130 C 0.5713 0.15527 0.54504 0.0
C131 C 0.55466 0.17156 0.54468 0.0
C132 C 0.5268 0.16021 0.53112 0.0
C133 C 0.51574 0.13311 0.51829 0.0
C134 C 0.50227 0.05791 0.54079 0.0
C135 C 0.52281 0.05268 0.55425 0.0
C136 C 0.52509 0.05899 0.57707 0.0
C137 C 0.50724 0.07112 0.58674 0.0
C138 C 0.48503 0.07425 0.5733 0.0
C139 C 0.48237 0.06741 0.5506 0.0
C140 C 0.47435 0.00041 0.51452 0.0
C141 C 0.48807 0.98406 0.52348 0.0
C142 C 0.4683 0.9552 0.53348 0.0
C143 C 0.43433 0.94191 0.53429 0.0
C144 C 0.42095 0.95864 0.52506 0.0
C145 C 0.44079 0.9877 0.51564 0.0
C146 C 0.52545 0.06484 0.37415 0.0
C147 C 0.5662 0.20021 0.55843 0.0
H148 H 0.581 0.61866 0.79319 0.0
H149 H 0.58961 0.42064 0.59296 0.0
H150 H 0.56852 0.63524 0.67153 0.0
H151 H 0.55925 0.66283 0.7015 0.0
H152 H 0.46118 0.58485 0.7076 0.0
H153 H 0.47042 0.5581 0.67706 0.0
H154 H 0.59611 0.60157 0.69865 0.0
H155 H 0.59992 0.6144 0.73834 0.0
H156 H 0.49866 0.54382 0.74548 0.0
H157 H 0.49525 0.53128 0.7058 0.0
H158 H 0.61348 0.54915 0.67089 0.0
H159 H 0.62767 0.51526 0.69095 0.0
H160 H 0.52808 0.45865 0.71168 0.0
H161 H 0.51416 0.49217 0.69148 0.0
H162 H 0.60936 0.55859 0.62116 0.0
H163 H 0.62967 0.52821 0.60294 0.0
H164 H 0.5434 0.44316 0.62256 0.0
H165 H 0.52327 0.47385 0.64058 0.0
H166 H 0.5796 0.5971 0.60184 0.0
H167 H 0.60108 0.58948 0.56728 0.0
H168 H 0.5269 0.49188 0.56682 0.0
H169 H 0.50502 0.49989 0.60114 0.0
H170 H 0.54155 0.62817 0.62972 0.0
H171 H 0.50618 0.64377 0.612 0.0
H172 H 0.43487 0.54706 0.59836 0.0
H173 H 0.47006 0.53169 0.61634 0.0
O174 O 0.5793 0.61259 0.77769 0.0
O175 O 0.52801 0.57413 0.78087 0.0
O176 O 0.62563 0.47764 0.58989 0.0
O177 O 0.58235 0.43321 0.60029 0.0
C178 C 0.52985 0.57403 0.66147 0.0
C179 C 0.54257 0.55984 0.67505 0.0
C180 C 0.55285 0.54071 0.66548 0.0
C181 C 0.55192 0.53694 0.64222 0.0
C182 C 0.53875 0.55074 0.6286 0.0
C183 C 0.52677 0.56858 0.63826 0.0
C184 C 0.5202 0.59462 0.67231 0.0
C185 C 0.5445 0.62492 0.67853 0.0
C186 C 0.53928 0.64044 0.69586 0.0
C187 C 0.50981 0.62567 0.70736 0.0
C188 C 0.48416 0.59698 0.69911 0.0
C189 C 0.48933 0.5816 0.68159 0.0
C190 C 0.54545 0.5655 0.69944 0.0
C191 C 0.57492 0.58868 0.7089 0.0
C192 C 0.57697 0.59605 0.73153 0.0
C193 C 0.54956 0.58019 0.74507 0.0
C194 C 0.52022 0.55648 0.73554 0.0
C195 C 0.51822 0.5492 0.71291 0.0
C196 C 0.56281 0.52312 0.67981 0.0
C197 C 0.59492 0.52966 0.68005 0.0
C198 C 0.60294 0.51029 0.69142 0.0
C199 C 0.57901 0.48439 0.70293 0.0
C200 C 0.54718 0.47873 0.70331 0.0
C201 C 0.53916 0.49783 0.69177 0.0
C202 C 0.56481 0.51839 0.63207 0.0
C203 C 0.59493 0.5334 0.62151 0.0
C204 C 0.60644 0.51599 0.61111 0.0
C205 C 0.58806 0.48324 0.61118 0.0
C206 C 0.55811 0.46832 0.62213 0.0
C207 C 0.54659 0.48577 0.63249 0.0
C208 C 0.54119 0.54893 0.60418 0.0
C209 C 0.56685 0.57447 0.59363 0.0
C210 C 0.57938 0.56997 0.57407 0.0
C211 C 0.56628 0.53989 0.56484 0.0
C212 C 0.53758 0.51526 0.57364 0.0
C213 C 0.52495 0.51983 0.59319 0.0
C214 C 0.50821 0.57876 0.6246 0.0
C215 C 0.51842 0.6104 0.62274 0.0
C216 C 0.4982 0.61925 0.61263 0.0
C217 C 0.46763 0.59661 0.60394 0.0
C218 C 0.45836 0.56506 0.60471 0.0
C219 C 0.47843 0.55624 0.615 0.0
C220 C 0.55153 0.58865 0.76896 0.0
C221 C 0.59993 0.46465 0.59981 0.0
H222 H 0.00241 0.37989 0.95917 0.0
H223 H 0.22109 0.49735 0.74885 0.0
H224 H 0.97164 0.432 0.83773 0.0
H225 H 0.93042 0.41806 0.86572 0.0
H226 H 0.91443 0.32493 0.86742 0.0
H227 H 0.95604 0.33932 0.83902 0.0
H228 H 0.02067 0.43519 0.87147 0.0
H229 H 0.01336 0.41993 0.91045 0.0
H230 H 0.017 0.33799 0.89256 0.0
H231 H 0.02391 0.35339 0.85358 0.0
H232 H 0.09259 0.47204 0.8493 0.0
H233 H 0.14281 0.48794 0.86998 0.0
H234 H 0.1346 0.40013 0.85284 0.0
H235 H 0.08443 0.38465 0.83188 0.0
H236 H 0.09301 0.49125 0.79649 0.0
H237 H 0.14591 0.52152 0.77882 0.0
H238 H 0.15037 0.43788 0.77139 0.0
H239 H 0.09721 0.40783 0.78877 0.0
H240 H 0.0229 0.47067 0.77939 0.0
H241 H 0.04463 0.50244 0.7463 0.0
H242 H 0.0728 0.43902 0.72091 0.0
H243 H 0.05009 0.40676 0.75383 0.0
H244 H 0.96768 0.43843 0.79704 0.0
H245 H 0.91294 0.41765 0.78182 0.0
H246 H 0.91015 0.33317 0.76186 0.0
H247 H 0.96448 0.35384 0.77784 0.0
O248 O 0.00575 0.38569 0.94371 0.0
O249 O 0.00876 0.3444 0.93377 0.0
O250 O 0.19645 0.52817 0.75983 0.0
O251 O 0.20023 0.48597 0.75599 0.0
C252 C 0.99737 0.39819 0.82402 0.0
C253 C 0.02524 0.40373 0.83601 0.0
C254 C 0.05571 0.41878 0.82579 0.0
C255 C 0.05861 0.42892 0.80372 0.0
C256 C 0.03065 0.42297 0.79149 0.0
C257 C -8e-05 0.40708 0.80158 0.0
C258 C 0.96656 0.38659 0.83613 0.0
C259 C 0.95817 0.40816 0.84332 0.0
C260 C 0.93464 0.40013 0.85946 0.0
C261 C 0.91919 0.37038 0.86891 0.0
C262 C 0.9261 0.3481 0.86059 0.0
C263 C 0.94958 0.35615 0.84424 0.0
C264 C 0.02274 0.39534 0.85978 0.0
C265 C 0.01998 0.41401 0.87605 0.0
C266 C 0.01578 0.40522 0.89828 0.0
C267 C 0.0145 0.37769 0.90462 0.0
C268 C 0.01783 0.35931 0.88824 0.0
C269 C 0.0219 0.36808 0.866 0.0
C270 C 0.08517 0.42734 0.83908 0.0
C271 C 0.10158 0.4562 0.85018 0.0
C272 C 0.13006 0.46509 0.86212 0.0
C273 C 0.14259 0.44521 0.8631 0.0
C274 C 0.12564 0.41599 0.85224 0.0
C275 C 0.09705 0.40709 0.84034 0.0
C276 C 0.09132 0.44739 0.79384 0.0
C277 C 0.10549 0.47955 0.79103 0.0
C278 C 0.13569 0.49676 0.78095 0.0
C279 C 0.15235 0.4821 0.77366 0.0
C280 C 0.13819 0.44989 0.77679 0.0
C281 C 0.10791 0.43269 0.78678 0.0
C282 C 0.03472 0.43628 0.769 0.0
C283 C 0.03227 0.46276 0.76621 0.0
C284 C 0.04501 0.48107 0.74739 0.0
C285 C 0.06079 0.47339 0.73122 0.0
C286 C 0.06108 0.44562 0.73326 0.0
C287 C 0.04784 0.42704 0.75191 0.0
C288 C 0.96994 0.39757 0.78858 0.0
C289 C 0.95547 0.41571 0.78897 0.0
C290 C 0.92421 0.40381 0.78019 0.0
C291 C 0.90697 0.37357 0.77082 0.0
C292 C 0.92248 0.35629 0.76932 0.0
C293 C 0.95363 0.36815 0.77821 0.0
C294 C 0.00954 0.36817 0.92821 0.0
C295 C 0.18432 0.50024 0.76277 0.0
H296 H 0.39799 0.99847 0.85106 0.0
H297 H 0.40013 0.78233 0.02097 0.0
H298 H 0.45203 0.03894 0.96742 0.0
H299 H 0.46929 0.08531 0.94519 0.0
H300 H 0.56282 0.0942 0.93614 0.0
H301 H 0.54557 0.04832 0.95909 0.0
H302 H 0.40635 0.97019 0.94401 0.0
H303 H 0.39324 0.97851 0.90634 0.0
H304 H 0.49241 0.01268 0.88713 0.0
H305 H 0.50504 0.00384 0.92477 0.0
H306 H 0.38872 0.90497 0.96895 0.0
H307 H 0.36584 0.85415 0.95013 0.0
H308 H 0.45628 0.88746 0.91574 0.0
H309 H 0.47879 0.93776 0.9346 0.0
H310 H 0.4104 0.92036 0.02088 0.0
H311 H 0.3854 0.86727 0.03486 0.0
H312 H 0.44953 0.85157 0.99412 0.0
H313 H 0.47473 0.90486 0.98063 0.0
H314 H 0.46198 0.99435 0.04151 0.0
H315 H 0.46307 0.97951 0.07978 0.0
H316 H 0.50712 0.92725 0.05802 0.0
H317 H 0.50875 0.94485 0.02031 0.0
H318 H 0.4873 0.05414 0.0107 0.0
H319 H 0.5296 0.10216 0.02867 0.0
H320 H 0.59287 0.06463 0.03023 0.0
H321 H 0.55117 0.01763 0.01101 0.0
O322 O 0.40362 0.99505 0.8658 0.0
O323 O 0.45495 0.01266 0.85681 0.0
O324 O 0.37821 0.81312 0.03719 0.0
O325 O 0.40989 0.80356 0.01597 0.0
C326 C 0.48455 0.00884 0.97393 0.0
C327 C 0.46467 0.98254 0.96024 0.0
C328 C 0.45234 0.95236 0.96849 0.0
C329 C 0.45871 0.94836 0.99077 0.0
C330 C 0.47879 0.97467 0.00449 0.0
C331 C 0.49232 0.00499 0.99589 0.0
C332 C 0.49751 0.04028 0.96468 0.0
C333 C 0.47656 0.0515 0.96117 0.0
C334 C 0.48638 0.0778 0.94832 0.0
C335 C 0.5172 0.09308 0.93854 0.0
C336 C 0.539 0.08309 0.94351 0.0
C337 C 0.52921 0.05687 0.95657 0.0
C338 C 0.45666 0.98661 0.93712 0.0
C339 C 0.42513 0.97931 0.93159 0.0
C340 C 0.41775 0.98417 0.91009 0.0
C341 C 0.44181 0.99639 0.89374 0.0
C342 C 0.47333 0.00334 0.89933 0.0
C343 C 0.48064 0.99838 0.92081 0.0
C344 C 0.43552 0.92488 0.95331 0.0
C345 C 0.40316 0.90149 0.95684 0.0
C346 C 0.39022 0.8725 0.94617 0.0
C347 C 0.40938 0.8667 0.93164 0.0
C348 C 0.44075 0.89122 0.92664 0.0
C349 C 0.45371 0.92003 0.93743 0.0
C350 C 0.44426 0.91639 -0.00031 0.0
C351 C 0.41912 0.90546 0.01512 0.0
C352 C 0.40485 0.87512 0.02302 0.0
C353 C 0.4154 0.85513 0.01554 0.0
C354 C 0.44078 0.8663 0.00019 0.0
C355 C 0.45517 0.8967 0.99242 0.0
C356 C 0.48464 0.97013 0.02804 0.0
C357 C 0.47278 0.98051 0.04518 0.0
C358 C 0.47297 0.97153 0.06702 0.0
C359 C 0.48429 0.95133 0.07207 0.0
C360 C 0.49826 0.94285 0.055 0.0
C361 C 0.49888 0.95258 0.03328 0.0
C362 C 0.5163 0.03256 0.00925 0.0
C363 C 0.51031 0.05634 0.01495 0.0
C364 C 0.53443 0.08364 0.02547 0.0
C365 C 0.56485 0.08747 0.03075 0.0
C366 C 0.57005 0.06282 0.02599 0.0
C367 C 0.5461 0.03577 0.01522 0.0
C368 C 0.43398 0.00188 0.87099 0.0
C369 C 0.39999 0.82272 0.02362 0.0
H370 H 0.54863 0.5683 0.00523 0.0
H371 H 0.69139 0.46947 0.2003 0.0
H372 H 0.52785 0.57344 0.12598 0.0
H373 H 0.51287 0.59825 0.0976 0.0
H374 H 0.61122 0.67686 0.09804 0.0
H375 H 0.62594 0.65175 0.12669 0.0
H376 H 0.54682 0.53377 0.09796 0.0
H377 H 0.53925 0.53944 0.0584 0.0
H378 H 0.63407 0.62331 0.05743 0.0
H379 H 0.64127 0.61728 0.09695 0.0
H380 H 0.57603 0.4916 0.1275 0.0
H381 H 0.59639 0.46183 0.10823 0.0
H382 H 0.68209 0.548 0.08963 0.0
H383 H 0.66153 0.57737 0.10883 0.0
H384 H 0.57365 0.49939 0.17974 0.0
H385 H 0.59143 0.46615 0.19624 0.0
H386 H 0.68878 0.52867 0.17315 0.0
H387 H 0.67075 0.56192 0.15701 0.0
H388 H 0.55499 0.54213 0.20204 0.0
H389 H 0.56261 0.53349 0.24109 0.0
H390 H 0.66664 0.58879 0.23295 0.0
H391 H 0.65867 0.59786 0.19439 0.0
H392 H 0.53166 0.58018 0.17066 0.0
H393 H 0.51806 0.61306 0.19264 0.0
H394 H 0.61984 0.67546 0.20804 0.0
H395 H 0.63321 0.64276 0.18537 0.0
O396 O 0.55259 0.56586 0.02064 0.0
O397 O 0.60188 0.60832 0.02087 0.0
O398 O 0.63337 0.45104 0.20571 0.0
O399 O 0.68373 0.48226 0.194 0.0
C400 C 0.58906 0.59125 0.13864 0.0
C401 C 0.59739 0.57363 0.12468 0.0
C402 C 0.6077 0.55449 0.13399 0.0
C403 C 0.60999 0.55316 0.15729 0.0
C404 C 0.6022 0.57123 0.17121 0.0
C405 C 0.59153 0.59017 0.1619 0.0
C406 C 0.57794 0.6108 0.12827 0.0
C407 C 0.54571 0.59673 0.1208 0.0
C408 C 0.53724 0.61096 0.10454 0.0
C409 C 0.56102 0.63933 0.09542 0.0
C410 C 0.59252 0.65489 0.10468 0.0
C411 C 0.60088 0.64074 0.12114 0.0
C412 C 0.59462 0.57503 0.10022 0.0
C413 C 0.56611 0.55304 0.08905 0.0
C414 C 0.56178 0.55647 0.06651 0.0
C415 C 0.58599 0.58193 0.05477 0.0
C416 C 0.61493 0.60346 0.06596 0.0
C417 C 0.61919 0.6 0.08849 0.0
C418 C 0.61731 0.53659 0.11949 0.0
C419 C 0.59887 0.50395 0.11885 0.0
C420 C 0.61061 0.48703 0.10797 0.0
C421 C 0.64089 0.50257 0.09748 0.0
C422 C 0.65848 0.53533 0.09726 0.0
C423 C 0.6468 0.55218 0.10822 0.0
C424 C 0.62091 0.53301 0.16719 0.0
C425 C 0.59882 0.50589 0.17834 0.0
C426 C 0.60903 0.48693 0.1877 0.0
C427 C 0.64154 0.49474 0.18599 0.0
C428 C 0.66358 0.52196 0.17476 0.0
C429 C 0.65336 0.54095 0.16548 0.0
C430 C 0.6063 0.57063 0.19552 0.0
C431 C 0.57933 0.55302 0.20897 0.0
C432 C 0.58376 0.54784 0.23113 0.0
C433 C 0.61523 0.56029 0.24008 0.0
C434 C 0.64208 0.57921 0.22672 0.0
C435 C 0.63763 0.58438 0.20466 0.0
C436 C 0.58338 0.6092 0.17636 0.0
C437 C 0.55097 0.60092 0.17883 0.0
C438 C 0.54327 0.61961 0.19156 0.0
C439 C 0.56788 0.64691 0.20214 0.0
C440 C 0.60036 0.6548 0.19992 0.0
C441 C 0.60803 0.63608 0.18712 0.0
C442 C 0.58079 0.58623 0.03107 0.0
C443 C 0.6525 0.47463 0.19585 0.0
Zn444 Zn 0.73826 0.52801 0.41505 0.0
Zn445 Zn 0.69829 0.46649 0.41178 0.0
O446 O 0.74443 0.47452 0.40742 0.0
O447 O 0.77793 0.52515 0.40939 0.0
O448 O 0.6731 0.41967 0.41275 0.0
O449 O 0.72301 0.52901 0.44583 0.0
O450 O 0.68648 0.47927 0.44128 0.0
C451 C 0.77314 0.49804 0.40653 0.0
C452 C 0.68941 0.50673 0.3793 0.0
O453 O 0.68124 0.47928 0.38515 0.0
O454 O 0.71213 0.53029 0.38945 0.0
C455 C 0.64258 0.40127 0.41121 0.0
O456 O 0.62368 0.41264 0.40789 0.0
C457 C 0.69836 0.50445 0.4527 0.0
Zn458 Zn 0.19959 0.67465 0.58005 0.0
Zn459 Zn 0.24014 0.65235 0.57642 0.0
O460 O 0.26987 0.69997 0.57562 0.0
O461 O 0.23826 0.71909 0.58126 0.0
O462 O 0.2725 0.6383 0.5781 0.0
O463 O 0.18038 0.65045 0.60823 0.0
O464 O 0.21256 0.63173 0.60403 0.0
C465 C 0.26622 0.72326 0.57802 0.0
C466 C 0.19077 0.63665 0.53976 0.0
O467 O 0.214 0.63427 0.54773 0.0
O468 O 0.18093 0.6524 0.5501 0.0
C469 C 0.29212 0.64128 0.56292 0.0
O470 O 0.2909 0.65299 0.54378 0.0
C471 C 0.19021 0.63268 0.61462 0.0
Zn472 Zn 0.53513 0.22574 0.76043 0.0
Zn473 Zn 0.59941 0.24861 0.75996 0.0
O474 O 0.59626 0.28714 0.75325 0.0
O475 O 0.54353 0.26815 0.75223 0.0
O476 O 0.64755 0.26556 0.76096 0.0
O477 O 0.53357 0.21524 0.79262 0.0
O478 O 0.58549 0.23079 0.7914 0.0
C479 C 0.57227 0.291 0.75052 0.0
C480 C 0.55394 0.19536 0.72814 0.0
O481 O 0.58249 0.21571 0.73476 0.0
O482 O 0.52943 0.19413 0.73689 0.0
C483 C 0.66655 0.28164 0.7455 0.0
O484 O 0.65453 0.28734 0.72777 0.0
C485 C 0.559 0.21909 0.80205 0.0
Zn486 Zn 0.4429 0.58193 0.90564 0.0
Zn487 Zn 0.4323 0.63024 0.90854 0.0
O488 O 0.38693 0.59199 0.90915 0.0
O489 O 0.39394 0.55198 0.90675 0.0
O490 O 0.42404 0.66536 0.91204 0.0
O491 O 0.46988 0.5976 0.93394 0.0
O492 O 0.46072 0.63629 0.93577 0.0
C493 C 0.37522 0.5627 0.90823 0.0
C494 C 0.465 0.62274 0.86763 0.0
O495 O 0.45369 0.63714 0.87819 0.0
O496 O 0.46391 0.5991 0.87597 0.0
C497 C 0.40816 0.67113 0.89793 0.0
O498 O 0.39689 0.65385 0.87979 0.0
C499 C 0.47372 0.62179 0.94372 0.0
Zn500 Zn 0.84622 0.42512 0.0563 0.0
Zn501 Zn 0.79908 0.36525 0.06006 0.0
O502 O 0.77376 0.38796 0.06146 0.0
O503 O 0.81228 0.43726 0.05905 0.0
O504 O 0.764 0.32008 0.05928 0.0
O505 O 0.85786 0.41733 0.02588 0.0
O506 O 0.82092 0.36791 0.0301 0.0
C507 C 0.78254 0.41667 0.06094 0.0
C508 C 0.85309 0.39486 0.09509 0.0
O509 O 0.82615 0.3716 0.08841 0.0
O510 O 0.86691 0.41961 0.0839 0.0
C511 C 0.74377 0.30457 0.0743 0.0
O512 O 0.74515 0.31812 0.0934 0.0
C513 C 0.8429 0.38957 0.01852 0.0
Zn514 Zn 0.38887 0.80738 0.25399 0.0
Zn515 Zn 0.43972 0.79987 0.25375 0.0
O516 O 0.40008 0.75528 0.25453 0.0
O517 O 0.35846 0.76158 0.25908 0.0
O518 O 0.47574 0.79082 0.25102 0.0
O519 O 0.39895 0.82428 0.22299 0.0
O520 O 0.44491 0.82477 0.22544 0.0
C521 C 0.36987 0.74385 0.25759 0.0
C522 C 0.43434 0.83901 0.29034 0.0
O523 O 0.44825 0.82493 0.28296 0.0
O524 O 0.40993 0.83655 0.28023 0.0
C525 C 0.47757 0.77217 0.26425 0.0
O526 O 0.45766 0.76142 0.2811 0.0
C527 C 0.42616 0.83138 0.21499 0.0
H528 H 0.22209 0.55552 0.231 0.0
H529 H 0.23067 0.55928 0.30254 0.0
H530 H 0.2726 0.60621 0.22906 0.0
H531 H 0.28063 0.60996 0.30055 0.0
H532 H 0.31405 0.71452 0.28081 0.0
H533 H 0.27664 0.65863 0.2842 0.0
H534 H 0.33808 0.64045 0.24273 0.0
H535 H 0.37645 0.69685 0.23982 0.0
C536 C 0.23542 0.56665 0.24621 0.0
C537 C 0.22247 0.5536 0.26691 0.0
C538 C 0.26425 0.59554 0.2451 0.0
C539 C 0.28015 0.6119 0.26468 0.0
C540 C 0.2687 0.59767 0.28525 0.0
C541 C 0.24024 0.56861 0.28635 0.0
C542 C 0.31977 0.69865 0.27255 0.0
C543 C 0.34803 0.70996 0.25998 0.0
C544 C 0.29852 0.66672 0.27465 0.0
C545 C 0.30474 0.64543 0.26386 0.0
C546 C 0.333 0.65656 0.25129 0.0
C547 C 0.3548 0.68867 0.24964 0.0
H548 H 0.60871 0.21379 0.42659 0.0
H549 H 0.52701 0.21186 0.45756 0.0
H550 H 0.62825 0.26667 0.41413 0.0
H551 H 0.54684 0.265 0.44565 0.0
H552 H 0.57879 0.35405 0.40788 0.0
H553 H 0.5564 0.29878 0.41506 0.0
H554 H 0.65282 0.31736 0.43018 0.0
H555 H 0.67513 0.372 0.42235 0.0
C556 C 0.59498 0.22475 0.43075 0.0
C557 C 0.56643 0.20877 0.44311 0.0
C558 C 0.60618 0.25507 0.42368 0.0
C559 C 0.58928 0.27028 0.42902 0.0
C560 C 0.56026 0.25393 0.44094 0.0
C561 C 0.54892 0.22349 0.44784 0.0
C562 C 0.59518 0.34623 0.41256 0.0
C563 C 0.62873 0.36748 0.41456 0.0
C564 C 0.58234 0.31458 0.4168 0.0
C565 C 0.60277 0.30353 0.42323 0.0
C566 C 0.63636 0.32482 0.4249 0.0
C567 C 0.64916 0.35631 0.42055 0.0
H568 H 0.42879 0.57535 0.5666 0.0
H569 H 0.45327 0.63736 0.62329 0.0
H570 H 0.38656 0.58626 0.55559 0.0
H571 H 0.41151 0.64851 0.61214 0.0
H572 H 0.30703 0.62596 0.60273 0.0
H573 H 0.35068 0.61645 0.61118 0.0
H574 H 0.37914 0.63046 0.54245 0.0
H575 H 0.33525 0.64009 0.53386 0.0
C576 C 0.42534 0.59151 0.57657 0.0
C577 C 0.44432 0.60548 0.59582 0.0
C578 C 0.40133 0.59788 0.5702 0.0
C579 C 0.3956 0.61804 0.5831 0.0
C580 C 0.41515 0.6326 0.60201 0.0
C581 C 0.4393 0.62648 0.60825 0.0
C582 C 0.32244 0.62691 0.58934 0.0
C583 C 0.31768 0.63388 0.56761 0.0
C584 C 0.34762 0.62167 0.59424 0.0
C585 C 0.36851 0.62301 0.57752 0.0
C586 C 0.36335 0.62923 0.55566 0.0
C587 C 0.33829 0.63481 0.55077 0.0
H588 H 0.85784 0.31396 0.77807 0.0
H589 H 0.87705 0.40057 0.74959 0.0
H590 H 0.80028 0.29095 0.77009 0.0
H591 H 0.81902 0.37783 0.74246 0.0
H592 H 0.71439 0.31735 0.716 0.0
H593 H 0.7727 0.33867 0.72029 0.0
H594 H 0.75688 0.2965 0.78475 0.0
H595 H 0.6988 0.27476 0.78032 0.0
C596 C 0.84986 0.32802 0.76985 0.0
C597 C 0.87214 0.35914 0.76444 0.0
C598 C 0.81674 0.31492 0.76556 0.0
C599 C 0.80498 0.33262 0.75583 0.0
C600 C 0.8273 0.36349 0.74985 0.0
C601 C 0.86052 0.37662 0.75414 0.0
C602 C 0.72337 0.31254 0.73105 0.0
C603 C 0.7019 0.29431 0.74781 0.0
C604 C 0.7568 0.3249 0.73354 0.0
C605 C 0.76946 0.31922 0.75283 0.0
C606 C 0.74793 0.30091 0.76952 0.0
C607 C 0.71459 0.28859 0.76704 0.0
H608 H 0.38044 0.81439 0.95659 0.0
H609 H 0.41625 0.84647 0.89067 0.0
H610 H 0.37362 0.76395 0.94738 0.0
H611 H 0.41046 0.79618 0.88171 0.0
H612 H 0.38129 0.6946 0.86969 0.0
H613 H 0.37401 0.73884 0.87657 0.0
H614 H 0.41564 0.75064 0.94229 0.0
H615 H 0.4226 0.70661 0.93559 0.0
C616 C 0.38599 0.81041 0.93992 0.0
C617 C 0.39906 0.83449 0.92438 0.0
C618 C 0.38249 0.78162 0.93475 0.0
C619 C 0.39203 0.77629 0.91396 0.0
C620 C 0.40285 0.79956 0.89786 0.0
C621 C 0.40639 0.82842 0.90303 0.0
C622 C 0.38865 0.70654 0.88565 0.0
C623 C 0.40264 0.69717 0.90206 0.0
C624 C 0.38454 0.73188 0.88956 0.0
C625 C 0.39406 0.74808 0.91001 0.0
C626 C 0.40751 0.73831 0.9265 0.0
C627 C 0.41179 0.71322 0.92257 0.0
H628 H 0.67419 0.5124 0.05877 0.0
H629 H 0.64149 0.45354 0.11629 0.0
H630 H 0.70497 0.48847 0.04697 0.0
H631 H 0.67215 0.42964 0.10448 0.0
H632 H 0.71782 0.38036 0.07053 0.0
H633 H 0.67909 0.39754 0.07617 0.0
H634 H 0.75416 0.49204 0.06216 0.0
H635 H 0.79256 0.47501 0.05628 0.0
C636 C 0.67331 0.49414 0.06876 0.0
C637 C 0.65562 0.48503 0.08854 0.0
C638 C 0.69093 0.48045 0.06202 0.0
C639 C 0.69122 0.45738 0.07491 0.0
C640 C 0.67214 0.44711 0.09406 0.0
C641 C 0.65454 0.46081 0.10081 0.0
C642 C 0.72593 0.40474 0.06844 0.0
C643 C 0.75833 0.42634 0.06308 0.0
C644 C 0.70379 0.41457 0.07174 0.0
C645 C 0.71357 0.44613 0.06958 0.0
C646 C 0.74572 0.4675 0.06363 0.0
C647 C 0.76783 0.45775 0.06045 0.0
H648 H 0.37657 0.92091 0.55597 0.0
H649 H 0.44266 0.89134 0.53538 0.0
H650 H 0.33842 0.86883 0.56775 0.0
H651 H 0.40614 0.84001 0.54979 0.0
H652 H 0.31735 0.74168 0.5505 0.0
H653 H 0.35959 0.79453 0.54206 0.0
H654 H 0.32159 0.82968 0.592 0.0
H655 H 0.27774 0.7767 0.59883 0.0
C656 C 0.38323 0.90343 0.55406 0.0
C657 C 0.41267 0.91058 0.54415 0.0
C658 C 0.36144 0.8734 0.56139 0.0
C659 C 0.36874 0.84962 0.55974 0.0
C660 C 0.39898 0.8572 0.55091 0.0
C661 C 0.42042 0.88708 0.54298 0.0
C662 C 0.31828 0.76079 0.55975 0.0
C663 C 0.29416 0.75516 0.57518 0.0
C664 C 0.34273 0.79126 0.55505 0.0
C665 C 0.34424 0.81692 0.56614 0.0
C666 C 0.32091 0.81091 0.5825 0.0
C667 C 0.29587 0.78046 0.58667 0.0
H668 H 0.56008 0.45727 0.74343 0.0
H669 H 0.61344 0.4599 0.68523 0.0
H670 H 0.56311 0.41322 0.75719 0.0
H671 H 0.61653 0.41581 0.69905 0.0
H672 H 0.52747 0.30861 0.75132 0.0
H673 H 0.53488 0.35893 0.74236 0.0
H674 H 0.63625 0.39462 0.72946 0.0
H675 H 0.62884 0.34373 0.73843 0.0
C676 C 0.57285 0.44869 0.73375 0.0
C677 C 0.58613 0.46172 0.71313 0.0
C678 C 0.57458 0.4235 0.7416 0.0
C679 C 0.58962 0.41081 0.72901 0.0
C680 C 0.60493 0.42521 0.70915 0.0
C681 C 0.60317 0.45046 0.70126 0.0
C682 C 0.55142 0.32713 0.74667 0.0
C683 C 0.57755 0.32212 0.74554 0.0
C684 C 0.55572 0.3561 0.74173 0.0
C685 C 0.58621 0.38079 0.7354 0.0
C686 C 0.61248 0.37595 0.73428 0.0
C687 C 0.60824 0.34689 0.73947 0.0
H688 H 0.16452 0.47615 0.90296 0.0
H689 H 0.19249 0.43912 0.84812 0.0
H690 H 0.21946 0.50042 0.91845 0.0
H691 H 0.24725 0.46332 0.86354 0.0
H692 H 0.3412 0.49957 0.90067 0.0
H693 H 0.28286 0.46614 0.89404 0.0
H694 H 0.27071 0.54465 0.90603 0.0
H695 H 0.32863 0.57784 0.91298 0.0
C696 C 0.18233 0.47294 0.89435 0.0
C697 C 0.17431 0.45603 0.8742 0.0
C698 C 0.21373 0.48679 0.90322 0.0
C699 C 0.23775 0.48401 0.89211 0.0
C700 C 0.22922 0.4656 0.87264 0.0
C701 C 0.19782 0.45175 0.86378 0.0
C702 C 0.32599 0.50956 0.90227 0.0
C703 C 0.33961 0.54145 0.90711 0.0
C704 C 0.29261 0.49043 0.89838 0.0
C705 C 0.27223 0.5028 0.89936 0.0
C706 C 0.28567 0.5343 0.90537 0.0
C707 C 0.31897 0.55341 0.90918 0.0
H708 H 0.62925 0.11665 0.02057 0.0
H709 H 0.56152 0.12719 0.0611 0.0
H710 H 0.67286 0.16723 0.03334 0.0
H711 H 0.60507 0.17894 0.07284 0.0
H712 H 0.69781 0.26242 0.10263 0.0
H713 H 0.65522 0.20864 0.09406 0.0
H714 H 0.68873 0.21975 0.02646 0.0
H715 H 0.73148 0.27265 0.03511 0.0
C716 C 0.62364 0.12957 0.0324 0.0
C717 C 0.59174 0.11773 0.03976 0.0
C718 C 0.64865 0.15888 0.03947 0.0
C719 C 0.64245 0.17739 0.05389 0.0
C720 C 0.61076 0.16526 0.06181 0.0
C721 C 0.5857 0.13573 0.05484 0.0
C722 C 0.69613 0.25324 0.08599 0.0
C723 C 0.71813 0.27181 0.06959 0.0
C724 C 0.67163 0.2225 0.08105 0.0
C725 C 0.66864 0.20978 0.0596 0.0
C726 C 0.69068 0.22848 0.04328 0.0
C727 C 0.71514 0.25899 0.04822 0.0
H728 H 0.5999 0.71068 0.20246 0.0
H729 H 0.51699 0.6298 0.23017 0.0
H730 H 0.58382 0.74421 0.22075 0.0
H731 H 0.5001 0.66311 0.24757 0.0
H732 H 0.48518 0.72988 0.28775 0.0
H733 H 0.51192 0.70217 0.27568 0.0
H734 H 0.54128 0.75541 0.2154 0.0
H735 H 0.51536 0.78363 0.2277 0.0
C736 C 0.57845 0.70007 0.21266 0.0
C737 C 0.55959 0.66752 0.21472 0.0
C738 C 0.56904 0.71927 0.22296 0.0
C739 C 0.54055 0.70638 0.23553 0.0
C740 C 0.52236 0.67391 0.23822 0.0
C741 C 0.5318 0.65474 0.22798 0.0
C742 C 0.49784 0.73606 0.27211 0.0
C743 C 0.49783 0.75875 0.25859 0.0
C744 C 0.51298 0.72001 0.26512 0.0
C745 C 0.5284 0.72626 0.24444 0.0
C746 C 0.52989 0.75015 0.2315 0.0
C747 C 0.51485 0.76625 0.23852 0.0
H748 H 0.91572 0.44243 0.37898 0.0
H749 H 0.93134 0.51323 0.3319 0.0
H750 H 0.87177 0.4466 0.39562 0.0
H751 H 0.88809 0.51773 0.34875 0.0
H752 H 0.83595 0.54339 0.3989 0.0
H753 H 0.87953 0.53686 0.38498 0.0
H754 H 0.816 0.43694 0.3858 0.0
H755 H 0.77219 0.44334 0.39989 0.0
C756 C 0.90963 0.45866 0.37206 0.0
C757 C 0.92729 0.47772 0.35425 0.0
C758 C 0.88456 0.46111 0.38164 0.0
C759 C 0.87683 0.4828 0.37367 0.0
C760 C 0.894 0.50131 0.35558 0.0
C761 C 0.91881 0.49873 0.34594 0.0
C762 C 0.83128 0.51999 0.39636 0.0
C763 C 0.80047 0.49389 0.40036 0.0
C764 C 0.85622 0.51628 0.38825 0.0
C765 C 0.85103 0.4864 0.38405 0.0
C766 C 0.8207 0.46024 0.38893 0.0
C767 C 0.79561 0.46395 0.39693 0.0
H768 H 0.11039 0.50948 0.42597 0.0
H769 H 0.09022 0.58225 0.41185 0.0
H770 H 0.13398 0.5341 0.46175 0.0
H771 H 0.11539 0.60777 0.44712 0.0
H772 H 0.13614 0.63091 0.52079 0.0
H773 H 0.10889 0.60365 0.48647 0.0
H774 H 0.18196 0.57924 0.47618 0.0
H775 H 0.2087 0.60574 0.5109 0.0
C776 C 0.11068 0.53057 0.43058 0.0
C777 C 0.09836 0.54386 0.41601 0.0
C778 C 0.1247 0.54497 0.45097 0.0
C779 C 0.12688 0.57309 0.45727 0.0
C780 C 0.11391 0.58601 0.44291 0.0
C781 C 0.09976 0.57154 0.42256 0.0
C782 C 0.14643 0.61974 0.51121 0.0
C783 C 0.17465 0.62054 0.51861 0.0
C784 C 0.13085 0.60421 0.49145 0.0
C785 C 0.14318 0.58921 0.47852 0.0
C786 C 0.17146 0.59008 0.48589 0.0
C787 C 0.18696 0.60548 0.50574 0.0
H788 H 0.46427 0.07017 0.61708 0.0
H789 H 0.56565 0.10063 0.60923 0.0
H790 H 0.47685 0.09798 0.65229 0.0
H791 H 0.57776 0.12594 0.64546 0.0
H792 H 0.59484 0.20441 0.694 0.0
H793 H 0.58383 0.17083 0.66157 0.0
H794 H 0.49151 0.10257 0.68924 0.0
H795 H 0.50184 0.13721 0.72085 0.0
C796 C 0.48919 0.08237 0.623 0.0
C797 C 0.51393 0.08343 0.61002 0.0
C798 C 0.49639 0.09798 0.64348 0.0
C799 C 0.52848 0.1146 0.65182 0.0
C800 C 0.5529 0.11406 0.63944 0.0
C801 C 0.54579 0.09894 0.61874 0.0
C802 C 0.57234 0.1821 0.69316 0.0
C803 C 0.54903 0.17357 0.70976 0.0
C804 C 0.56604 0.16265 0.67463 0.0
C805 C 0.53656 0.13392 0.67254 0.0
C806 C 0.51405 0.12481 0.68986 0.0
C807 C 0.52005 0.14457 0.7081 0.0
H808 H 0.45842 0.62637 0.72661 0.0
H809 H 0.55661 0.64853 0.73971 0.0
H810 H 0.45197 0.63314 0.76612 0.0
H811 H 0.55049 0.65632 0.77878 0.0
H812 H 0.45448 0.65892 0.83903 0.0
H813 H 0.46945 0.66825 0.79984 0.0
H814 H 0.51789 0.61617 0.8059 0.0
H815 H 0.50309 0.60692 0.84473 0.0
C816 C 0.47886 0.63348 0.73778 0.0
C817 C 0.50791 0.63669 0.72998 0.0
C818 C 0.47527 0.63762 0.76038 0.0
C819 C 0.50063 0.64491 0.77556 0.0
C820 C 0.53041 0.65035 0.7675 0.0
C821 C 0.53401 0.64625 0.745 0.0
C822 C 0.46882 0.64997 0.83204 0.0
C823 C 0.47743 0.63199 0.8449 0.0
C824 C 0.47721 0.65517 0.80961 0.0
C825 C 0.49477 0.64289 0.7998 0.0
C826 C 0.50465 0.62622 0.813 0.0
C827 C 0.49597 0.62073 0.83525 0.0
H828 H 0.91997 0.34076 0.90661 0.0
H829 H 0.87472 0.38765 0.87734 0.0
H830 H 0.89636 0.34076 0.9424 0.0
H831 H 0.85199 0.38839 0.91333 0.0
H832 H 0.87332 0.43064 0.98533 0.0
H833 H 0.88529 0.42003 0.94819 0.0
H834 H 0.8414 0.32263 0.96355 0.0
H835 H 0.82882 0.33312 0.00093 0.0
C836 C 0.90418 0.35019 0.90761 0.0
C837 C 0.89947 0.36449 0.88916 0.0
C838 C 0.89081 0.3503 0.92815 0.0
C839 C 0.87277 0.36495 0.93062 0.0
C840 C 0.86622 0.37734 0.91188 0.0
C841 C 0.87926 0.37694 0.89133 0.0
C842 C 0.86613 0.40693 0.98085 0.0
C843 C 0.8502 0.38273 0.99608 0.0
C844 C 0.87273 0.40083 0.9595 0.0
C845 C 0.86399 0.37048 0.95299 0.0
C846 C 0.84829 0.34621 0.9682 0.0
C847 C 0.84111 0.35223 0.98952 0.0
H848 H 0.52223 0.93387 0.09495 0.0
H849 H 0.43323 0.93516 0.09988 0.0
H850 H 0.50884 0.90396 0.12881 0.0
H851 H 0.42169 0.90829 0.13468 0.0
H852 H 0.38712 0.82918 0.18144 0.0
H853 H 0.40286 0.85868 0.14741 0.0
H854 H 0.50385 0.90289 0.16741 0.0
H855 H 0.48786 0.87165 0.20094 0.0
C856 C 0.5 0.92815 0.1033 0.0
C857 C 0.47874 0.93684 0.09437 0.0
C858 C 0.49254 0.91132 0.12298 0.0
C859 C 0.4639 0.90321 0.13445 0.0
C860 C 0.44352 0.91325 0.12607 0.0
C861 C 0.45059 0.92944 0.10622 0.0
C862 C 0.4127 0.84506 0.17847 0.0
C863 C 0.43626 0.84822 0.19384 0.0
C864 C 0.42178 0.86228 0.15904 0.0
C865 C 0.45467 0.88374 0.15472 0.0
C866 C 0.47832 0.88645 0.17 0.0
C867 C 0.4692 0.86864 0.18927 0.0
H868 H 0.66038 0.59831 0.27112 0.0
H869 H 0.58235 0.50336 0.25991 0.0
H870 H 0.67426 0.58339 0.30571 0.0
H871 H 0.59497 0.48867 0.29539 0.0
H872 H 0.65831 0.46867 0.34325 0.0
H873 H 0.63593 0.48075 0.31095 0.0
H874 H 0.65867 0.56786 0.34234 0.0
H875 H 0.68231 0.55643 0.37385 0.0
C876 C 0.64587 0.5743 0.27623 0.0
C877 C 0.62046 0.552 0.26267 0.0
C878 C 0.65355 0.56576 0.29624 0.0
C879 C 0.63576 0.53474 0.30339 0.0
C880 C 0.60945 0.51265 0.29026 0.0
C881 C 0.60191 0.52118 0.27008 0.0
C882 C 0.65823 0.49024 0.34322 0.0
C883 C 0.67256 0.51187 0.36081 0.0
C884 C 0.64524 0.49712 0.32481 0.0
C885 C 0.64591 0.52554 0.32388 0.0
C886 C 0.65856 0.5462 0.34217 0.0
C887 C 0.67201 0.53959 0.36029 0.0
H888 H 0.51152 0.92981 0.42032 0.0
H889 H 0.42992 0.94012 0.40388 0.0
H890 H 0.50413 0.90233 0.38513 0.0
H891 H 0.42089 0.91049 0.37 0.0
H892 H 0.43223 0.89066 0.29999 0.0
H893 H 0.44446 0.91867 0.33519 0.0
H894 H 0.47181 0.8563 0.36338 0.0
H895 H 0.46112 0.82925 0.3274 0.0
C896 C 0.4918 0.92597 0.40939 0.0
C897 C 0.47151 0.93751 0.41502 0.0
C898 C 0.48733 0.90984 0.3893 0.0
C899 C 0.46224 0.90459 0.37447 0.0
C900 C 0.44106 0.91482 0.38065 0.0
C901 C 0.44583 0.93131 0.40046 0.0
C902 C 0.44122 0.88317 0.31365 0.0
C903 C 0.4455 0.85768 0.31107 0.0
C904 C 0.44791 0.899 0.33394 0.0
C905 C 0.45831 0.88928 0.35239 0.0
C906 C 0.46389 0.86449 0.34955 0.0
C907 C 0.45777 0.84896 0.32898 0.0
H908 H 0.54549 0.50413 0.52658 0.0
H909 H 0.63024 0.55975 0.56805 0.0
H910 H 0.57806 0.49281 0.5014 0.0
H911 H 0.66238 0.54781 0.54355 0.0
H912 H 0.63984 0.4592 0.46914 0.0
H913 H 0.60764 0.4658 0.49749 0.0
H914 H 0.68459 0.56153 0.50756 0.0
H915 H 0.71694 0.55472 0.47998 0.0
C916 C 0.57103 0.51386 0.53029 0.0
C917 C 0.58551 0.5334 0.54894 0.0
C918 C 0.58962 0.50716 0.51604 0.0
C919 C 0.62293 0.51958 0.52038 0.0
C920 C 0.63703 0.53844 0.5394 0.0
C921 C 0.61862 0.54539 0.55341 0.0
C922 C 0.65012 0.48144 0.47777 0.0
C923 C 0.68094 0.50646 0.47223 0.0
C924 C 0.6315 0.48532 0.49382 0.0
C925 C 0.64337 0.51428 0.50465 0.0
C926 C 0.67476 0.5388 0.49975 0.0
C927 C 0.69334 0.53491 0.48383 0.0
H928 H 0.04133 0.50396 0.70371 0.0
H929 H 0.12322 0.49423 0.71965 0.0
H930 H 0.07365 0.54301 0.67615 0.0
H931 H 0.15597 0.5339 0.6927 0.0
H932 H 0.1951 0.5828 0.62666 0.0
H933 H 0.16376 0.54402 0.65439 0.0
H934 H 0.11703 0.59503 0.67263 0.0
H935 H 0.1475 0.63315 0.64424 0.0
C936 C 0.06628 0.51025 0.70129 0.0
C937 C 0.07966 0.49586 0.71361 0.0
C938 C 0.08494 0.5328 0.68564 0.0
C939 C 0.11756 0.5418 0.68219 0.0
C940 C 0.13083 0.52725 0.69457 0.0
C941 C 0.11206 0.50447 0.71001 0.0
C942 C 0.17835 0.58591 0.63672 0.0
C943 C 0.17374 0.61105 0.63316 0.0
C944 C 0.16039 0.56367 0.65271 0.0
C945 C 0.1376 0.56616 0.66572 0.0
C946 C 0.13379 0.5919 0.66261 0.0
C947 C 0.15151 0.61397 0.64646 0.0
H948 H 0.47709 0.09111 0.90578 0.0
H949 H 0.57507 0.14764 0.93148 0.0
H950 H 0.48987 0.12684 0.8755 0.0
H951 H 0.58805 0.18368 0.90069 0.0
H952 H 0.51093 0.20457 0.83167 0.0
H953 H 0.50317 0.17944 0.86729 0.0
H954 H 0.59401 0.18244 0.85981 0.0
H955 H 0.60223 0.20841 0.82423 0.0
C956 C 0.50119 0.11163 0.90529 0.0
C957 C 0.52496 0.11669 0.92122 0.0
C958 C 0.50855 0.13213 0.88785 0.0
C959 C 0.53992 0.15825 0.88578 0.0
C960 C 0.56371 0.16365 0.90181 0.0
C961 C 0.55628 0.14306 0.9194 0.0
C962 C 0.5295 0.20028 0.83773 0.0
C963 C 0.55694 0.20798 0.82496 0.0
C964 C 0.525 0.18581 0.85813 0.0
C965 C 0.54768 0.17845 0.86616 0.0
C966 C 0.57616 0.18791 0.85409 0.0
C967 C 0.58079 0.20264 0.83367 0.0
H968 H 0.50781 0.64242 0.08324 0.0
H969 H 0.59852 0.6564 0.05868 0.0
H970 H 0.49124 0.64545 0.04535 0.0
H971 H 0.58222 0.65992 0.02098 0.0
H972 H 0.51312 0.60319 0.96151 0.0
H973 H 0.5392 0.61639 -0.00203 0.0
H974 H 0.50191 0.67707 0.01072 0.0
H975 H 0.4756 0.66383 0.97406 0.0
C976 C 0.52456 0.64708 0.06982 0.0
C977 C 0.55434 0.64902 0.07389 0.0
C978 C 0.51518 0.64896 0.04817 0.0
C979 C 0.53532 0.65256 0.03022 0.0
C980 C 0.5661 0.65682 0.0345 0.0
C981 C 0.57556 0.65516 0.05613 0.0
C982 C 0.51076 0.61964 0.97194 0.0
C983 C 0.49207 0.63225 0.96496 0.0
C984 C 0.52595 0.62741 0.99277 0.0
C985 C 0.5226 0.6478 0.00716 0.0
C986 C 0.50475 0.6612 -4e-05 0.0
C987 C 0.4898 0.65367 0.97898 0.0
H988 H 0.90747 0.37196 0.2306 0.0
H989 H 0.96587 0.46911 0.21346 0.0
H990 H 0.88244 0.36009 0.19355 0.0
H991 H 0.93955 0.45766 0.17747 0.0
H992 H 0.82255 0.36027 0.13176 0.0
H993 H 0.84617 0.36636 0.16896 0.0
H994 H 0.94046 0.43388 0.14372 0.0
H995 H 0.91668 0.42875 0.1071 0.0
C996 C 0.91476 0.39082 0.21909 0.0
C997 C 0.93868 0.42153 0.22516 0.0
C998 C 0.9002 0.38404 0.19791 0.0
C999 C 0.90926 0.40784 0.18237 0.0
C1000 C 0.93246 0.43858 0.18875 0.0
C1001 C 0.94712 0.44528 0.20971 0.0
C1002 C 0.84839 0.37606 0.13419 0.0
C1003 C 0.86771 0.39437 0.11663 0.0
C1004 C 0.86195 0.37955 0.15548 0.0
C1005 C 0.89511 0.40115 0.15948 0.0
C1006 C 0.91465 0.41781 0.14147 0.0
C1007 C 0.90108 0.41468 0.12039 0.0
loop_
_geom_bond_atom_site_label_1
_geom_bond_atom_site_label_2
_geom_bond_distance
_geom_bond_site_symmetry_2
_ccdc_geom_bond_type
H0 O26 0.856 . S
H1 O29 0.854 . S
H2 C37 0.943 . S
H3 C38 0.930 . S
H4 C40 0.930 . S
H5 C41 0.930 . S
H6 C43 0.931 . S
H7 C44 0.930 . S
H8 C46 0.930 . S
H9 C47 0.929 . S
H10 C49 0.930 . S
H11 C50 0.931 . S
H12 C52 0.930 . S
H13 C53 0.929 . S
H14 C55 0.931 . S
H15 C56 0.930 . S
H16 C58 0.930 . S
H17 C59 0.932 . S
H18 C61 0.930 . S
H19 C62 0.929 . S
H20 C64 0.931 . S
H21 C65 0.930 . S
H22 C67 0.929 . S
H23 C68 0.931 . S
H24 C70 0.930 . S
H25 C71 0.929 1_455 S
O26 H0 0.856 . S
O26 C72 1.300 . S
O27 C72 1.209 . S
O28 C73 1.199 . S
O29 H1 0.854 . S
O29 C73 1.297 . S
C30 C31 1.404 . S
C30 C35 1.397 . S
C30 C36 1.492 . S
C31 C30 1.404 . S
C31 C32 1.396 . S
C31 C42 1.492 . S
C32 C31 1.396 . S
C32 C33 1.397 . S
C32 C48 1.509 . S
C33 C32 1.397 . S
C33 C34 1.412 . S
C33 C54 1.485 . S
C34 C33 1.412 . S
C34 C35 1.388 . S
C34 C60 1.490 . S
C35 C30 1.397 . S
C35 C34 1.388 . S
C35 C66 1.519 1_455 S
C36 C30 1.492 . S
C36 C37 1.359 . S
C36 C41 1.390 1_455 S
C37 H2 0.943 . S
C37 C36 1.359 . S
C37 C38 1.364 1_455 S
C38 H3 0.930 . S
C38 C37 1.364 1_655 S
C38 C39 1.383 . S
C39 C38 1.383 . S
C39 C40 1.395 . S
C40 H4 0.930 . S
C40 C39 1.395 . S
C40 C41 1.362 . S
C41 H5 0.930 . S
C41 C36 1.390 1_655 S
C41 C40 1.362 . S
C42 C31 1.492 . S
C42 C43 1.377 . S
C42 C47 1.397 . S
C43 H6 0.931 . S
C43 C42 1.377 . S
C43 C44 1.376 . S
C44 H7 0.930 . S
C44 C43 1.376 . S
C44 C45 1.376 . S
C45 C44 1.376 . S
C45 C46 1.378 . S
C45 C72 1.486 . S
C46 H8 0.930 . S
C46 C45 1.378 . S
C46 C47 1.376 . S
C47 H9 0.929 . S
C47 C42 1.397 . S
C47 C46 1.376 . S
C48 C32 1.509 . S
C48 C49 1.391 . S
C48 C53 1.386 . S
C49 H10 0.930 . S
C49 C48 1.391 . S
C49 C50 1.375 . S
C50 H11 0.931 . S
C50 C49 1.375 . S
C50 C51 1.375 . S
C51 C50 1.375 . S
C51 C52 1.361 . S
C52 H12 0.930 . S
C52 C51 1.361 . S
C52 C53 1.399 . S
C53 H13 0.929 . S
C53 C48 1.386 . S
C53 C52 1.399 . S
C54 C33 1.485 . S
C54 C55 1.394 . S
C54 C59 1.360 . S
C55 H14 0.931 . S
C55 C54 1.394 . S
C55 C56 1.372 . S
C56 H15 0.930 . S
C56 C55 1.372 . S
C56 C57 1.397 . S
C57 C56 1.397 . S
C57 C58 1.390 . S
C57 C73 1.476 . S
C58 H16 0.930 . S
C58 C57 1.390 . S
C58 C59 1.366 . S
C59 H17 0.932 . S
C59 C54 1.360 . S
C59 C58 1.366 . S
C60 C34 1.490 . S
C60 C61 1.380 . S
C60 C65 1.386 . S
C61 H18 0.930 . S
C61 C60 1.380 . S
C61 C62 1.381 . S
C62 H19 0.929 . S
C62 C61 1.381 . S
C62 C63 1.371 . S
C63 C62 1.371 . S
C63 C64 1.380 . S
C64 H20 0.931 . S
C64 C63 1.380 . S
C64 C65 1.387 . S
C65 H21 0.930 . S
C65 C60 1.386 . S
C65 C64 1.387 . S
C66 C35 1.519 1_655 S
C66 C67 1.377 . S
C66 C71 1.361 . S
C67 H22 0.929 . S
C67 C66 1.377 . S
C67 C68 1.386 . S
C68 H23 0.931 . S
C68 C67 1.386 . S
C68 C69 1.363 . S
C69 C68 1.363 . S
C69 C70 1.385 . S
C70 H24 0.930 . S
C70 C69 1.385 . S
C70 C71 1.396 . S
C71 H25 0.929 1_655 S
C71 C66 1.361 . S
C71 C70 1.396 . S
C72 O26 1.300 . S
C72 O27 1.209 . S
C72 C45 1.486 . S
C73 O28 1.199 . S
C73 O29 1.297 . S
C73 C57 1.476 . S
H74 O100 0.856 . S
H75 O103 0.854 . S
H76 C111 0.930 . S
H77 C112 0.930 . S
H78 C114 0.930 . S
H79 C115 0.930 . S
H80 C117 0.931 . S
H81 C118 0.930 . S
H82 C120 0.930 . S
H83 C121 0.929 . S
H84 C123 0.930 . S
H85 C124 0.931 . S
H86 C126 0.930 . S
H87 C127 0.929 . S
H88 C129 0.931 . S
H89 C130 0.930 . S
H90 C132 0.930 . S
H91 C133 0.932 . S
H92 C135 0.930 . S
H93 C136 0.929 . S
H94 C138 0.931 . S
H95 C139 0.930 . S
H96 C141 0.929 . S
H97 C142 0.931 . S
H98 C144 0.930 . S
H99 C145 0.929 . S
O100 H74 0.856 . S
O100 C146 1.300 . S
O101 C146 1.209 . S
O102 C147 1.199 . S
O103 H75 0.854 . S
O103 C147 1.297 . S
C104 C105 1.404 . S
C104 C109 1.397 . S
C104 C110 1.492 . S
C105 C104 1.404 . S
C105 C106 1.396 . S
C105 C116 1.492 . S
C106 C105 1.396 . S
C106 C107 1.397 . S
C106 C122 1.509 . S
C107 C106 1.397 . S
C107 C108 1.412 . S
C107 C128 1.485 . S
C108 C107 1.412 . S
C108 C109 1.388 . S
C108 C134 1.490 . S
C109 C104 1.397 . S
C109 C108 1.388 . S
C109 C140 1.519 1_545 S
C110 C104 1.492 . S
C110 C111 1.363 . S
C110 C115 1.390 1_545 S
C111 H76 0.930 . S
C111 C110 1.363 . S
C111 C112 1.372 1_545 S
C112 H77 0.930 . S
C112 C111 1.372 1_565 S
C112 C113 1.383 . S
C113 C112 1.383 . S
C113 C114 1.395 . S
C114 H78 0.930 . S
C114 C113 1.395 . S
C114 C115 1.362 . S
C115 H79 0.930 . S
C115 C110 1.390 1_565 S
C115 C114 1.362 . S
C116 C105 1.492 . S
C116 C117 1.377 . S
C116 C121 1.397 . S
C117 H80 0.931 . S
C117 C116 1.377 . S
C117 C118 1.376 . S
C118 H81 0.930 . S
C118 C117 1.376 . S
C118 C119 1.376 . S
C119 C118 1.376 . S
C119 C120 1.378 . S
C119 C146 1.486 . S
C120 H82 0.930 . S
C120 C119 1.378 . S
C120 C121 1.376 . S
C121 H83 0.929 . S
C121 C116 1.397 . S
C121 C120 1.376 . S
C122 C106 1.509 . S
C122 C123 1.391 . S
C122 C127 1.386 . S
C123 H84 0.930 . S
C123 C122 1.391 . S
C123 C124 1.375 . S
C124 H85 0.931 . S
C124 C123 1.375 . S
C124 C125 1.375 . S
C125 C124 1.375 . S
C125 C126 1.361 . S
C126 H86 0.930 . S
C126 C125 1.361 . S
C126 C127 1.399 . S
C127 H87 0.929 . S
C127 C122 1.386 . S
C127 C126 1.399 . S
C128 C107 1.485 . S
C128 C129 1.394 . S
C128 C133 1.360 . S
C129 H88 0.931 . S
C129 C128 1.394 . S
C129 C130 1.372 . S
C130 H89 0.930 . S
C130 C129 1.372 . S
C130 C131 1.397 . S
C131 C130 1.397 . S
C131 C132 1.390 . S
C131 C147 1.476 . S
C132 H90 0.930 . S
C132 C131 1.390 . S
C132 C133 1.366 . S
C133 H91 0.932 . S
C133 C128 1.360 . S
C133 C132 1.366 . S
C134 C108 1.490 . S
C134 C135 1.380 . S
C134 C139 1.386 . S
C135 H92 0.930 . S
C135 C134 1.380 . S
C135 C136 1.381 . S
C136 H93 0.929 . S
C136 C135 1.381 . S
C136 C137 1.371 . S
C137 C136 1.371 . S
C137 C138 1.380 . S
C138 H94 0.931 . S
C138 C137 1.380 . S
C138 C139 1.387 . S
C139 H95 0.930 . S
C139 C134 1.386 . S
C139 C138 1.387 . S
C140 C109 1.519 1_565 S
C140 C141 1.377 . S
C140 C145 1.361 . S
C141 H96 0.929 . S
C141 C140 1.377 . S
C141 C142 1.386 . S
C142 H97 0.931 . S
C142 C141 1.386 . S
C142 C143 1.363 . S
C143 C142 1.363 . S
C143 C144 1.385 . S
C144 H98 0.930 . S
C144 C143 1.385 . S
C144 C145 1.396 . S
C145 H99 0.929 . S
C145 C140 1.361 . S
C145 C144 1.396 . S
C146 O100 1.300 . S
C146 O101 1.209 . S
C146 C119 1.486 . S
C147 O102 1.199 . S
C147 O103 1.297 . S
C147 C131 1.476 . S
H148 O174 0.856 . S
H149 O177 0.854 . S
H150 C185 0.930 . S
H151 C186 0.930 . S
H152 C188 0.930 . S
H153 C189 0.930 . S
H154 C191 0.931 . S
H155 C192 0.930 . S
H156 C194 0.930 . S
H157 C195 0.929 . S
H158 C197 0.930 . S
H159 C198 0.931 . S
H160 C200 0.930 . S
H161 C201 0.929 . S
H162 C203 0.931 . S
H163 C204 0.930 . S
H164 C206 0.930 . S
H165 C207 0.932 . S
H166 C209 0.930 . S
H167 C210 0.929 . S
H168 C212 0.931 . S
H169 C213 0.930 . S
H170 C215 0.929 . S
H171 C216 0.931 . S
H172 C218 0.930 . S
H173 C219 0.929 . S
O174 H148 0.856 . S
O174 C220 1.300 . S
O175 C220 1.209 . S
O176 C221 1.199 . S
O177 H149 0.854 . S
O177 C221 1.297 . S
C178 C179 1.404 . S
C178 C183 1.397 . S
C178 C184 1.492 . S
C179 C178 1.404 . S
C179 C180 1.396 . S
C179 C190 1.492 . S
C180 C179 1.396 . S
C180 C181 1.397 . S
C180 C196 1.509 . S
C181 C180 1.397 . S
C181 C182 1.412 . S
C181 C202 1.485 . S
C182 C181 1.412 . S
C182 C183 1.388 . S
C182 C208 1.490 . S
C183 C178 1.397 . S
C183 C182 1.388 . S
C183 C214 1.519 . S
C184 C178 1.492 . S
C184 C185 1.363 . S
C184 C189 1.390 . S
C185 H150 0.930 . S
C185 C184 1.363 . S
C185 C186 1.372 . S
C186 H151 0.930 . S
C186 C185 1.372 . S
C186 C187 1.383 . S
C187 C186 1.383 . S
C187 C188 1.395 . S
C188 H152 0.930 . S
C188 C187 1.395 . S
C188 C189 1.362 . S
C189 H153 0.930 . S
C189 C184 1.390 . S
C189 C188 1.362 . S
C190 C179 1.492 . S
C190 C191 1.377 . S
C190 C195 1.397 . S
C191 H154 0.931 . S
C191 C190 1.377 . S
C191 C192 1.376 . S
C192 H155 0.930 . S
C192 C191 1.376 . S
C192 C193 1.376 . S
C193 C192 1.376 . S
C193 C194 1.378 . S
C193 C220 1.486 . S
C194 H156 0.930 . S
C194 C193 1.378 . S
C194 C195 1.376 . S
C195 H157 0.929 . S
C195 C190 1.397 . S
C195 C194 1.376 . S
C196 C180 1.509 . S
C196 C197 1.391 . S
C196 C201 1.386 . S
C197 H158 0.930 . S
C197 C196 1.391 . S
C197 C198 1.375 . S
C198 H159 0.931 . S
C198 C197 1.375 . S
C198 C199 1.375 . S
C199 C198 1.375 . S
C199 C200 1.361 . S
C200 H160 0.930 . S
C200 C199 1.361 . S
C200 C201 1.399 . S
C201 H161 0.929 . S
C201 C196 1.386 . S
C201 C200 1.399 . S
C202 C181 1.485 . S
C202 C203 1.394 . S
C202 C207 1.360 . S
C203 H162 0.931 . S
C203 C202 1.394 . S
C203 C204 1.372 . S
C204 H163 0.930 . S
C204 C203 1.372 . S
C204 C205 1.397 . S
C205 C204 1.397 . S
C205 C206 1.390 . S
C205 C221 1.476 . S
C206 H164 0.930 . S
C206 C205 1.390 . S
C206 C207 1.366 . S
C207 H165 0.932 . S
C207 C202 1.360 . S
C207 C206 1.366 . S
C208 C182 1.490 . S
C208 C209 1.380 . S
C208 C213 1.386 . S
C209 H166 0.930 . S
C209 C208 1.380 . S
C209 C210 1.381 . S
C210 H167 0.929 . S
C210 C209 1.381 . S
C210 C211 1.371 . S
C211 C210 1.371 . S
C211 C212 1.380 . S
C212 H168 0.931 . S
C212 C211 1.380 . S
C212 C213 1.387 . S
C213 H169 0.930 . S
C213 C208 1.386 . S
C213 C212 1.387 . S
C214 C183 1.519 . S
C214 C215 1.377 . S
C214 C219 1.361 . S
C215 H170 0.929 . S
C215 C214 1.377 . S
C215 C216 1.386 . S
C216 H171 0.931 . S
C216 C215 1.386 . S
C216 C217 1.363 . S
C217 C216 1.363 . S
C217 C218 1.385 . S
C218 H172 0.930 . S
C218 C217 1.385 . S
C218 C219 1.396 . S
C219 H173 0.929 . S
C219 C214 1.361 . S
C219 C218 1.396 . S
C220 O174 1.300 . S
C220 O175 1.209 . S
C220 C193 1.486 . S
C221 O176 1.199 . S
C221 O177 1.297 . S
C221 C205 1.476 . S
H222 O248 0.856 . S
H223 O251 0.854 . S
H224 C259 0.930 1_455 S
H225 C260 0.930 . S
H226 C262 0.930 . S
H227 C263 0.930 . S
H228 C265 0.931 . S
H229 C266 0.930 . S
H230 C268 0.930 . S
H231 C269 0.929 . S
H232 C271 0.930 . S
H233 C272 0.931 . S
H234 C274 0.930 . S
H235 C275 0.929 . S
H236 C277 0.931 . S
H237 C278 0.930 . S
H238 C280 0.930 . S
H239 C281 0.932 . S
H240 C283 0.930 . S
H241 C284 0.929 . S
H242 C286 0.931 . S
H243 C287 0.930 . S
H244 C289 0.929 . S
H245 C290 0.931 . S
H246 C292 0.930 . S
H247 C293 0.940 . S
O248 H222 0.856 . S
O248 C294 1.300 . S
O249 C294 1.209 . S
O250 C295 1.199 . S
O251 H223 0.854 . S
O251 C295 1.297 . S
C252 C253 1.404 . S
C252 C257 1.397 . S
C252 C258 1.492 . S
C253 C252 1.404 . S
C253 C254 1.396 . S
C253 C264 1.492 . S
C254 C253 1.396 . S
C254 C255 1.397 . S
C254 C270 1.509 . S
C255 C254 1.397 . S
C255 C256 1.412 . S
C255 C276 1.485 . S
C256 C255 1.412 . S
C256 C257 1.388 . S
C256 C282 1.490 . S
C257 C252 1.397 . S
C257 C256 1.388 . S
C257 C288 1.519 1_455 S
C258 C252 1.492 . S
C258 C259 1.363 1_455 S
C258 C263 1.390 1_455 S
C259 H224 0.930 1_655 S
C259 C258 1.363 1_655 S
C259 C260 1.372 . S
C260 H225 0.930 . S
C260 C259 1.372 . S
C260 C261 1.383 . S
C261 C260 1.383 . S
C261 C262 1.395 . S
C262 H226 0.930 . S
C262 C261 1.395 . S
C262 C263 1.362 . S
C263 H227 0.930 . S
C263 C258 1.390 1_655 S
C263 C262 1.362 . S
C264 C253 1.492 . S
C264 C265 1.377 . S
C264 C269 1.397 . S
C265 H228 0.931 . S
C265 C264 1.377 . S
C265 C266 1.376 . S
C266 H229 0.930 . S
C266 C265 1.376 . S
C266 C267 1.376 . S
C267 C266 1.376 . S
C267 C268 1.378 . S
C267 C294 1.486 . S
C268 H230 0.930 . S
C268 C267 1.378 . S
C268 C269 1.376 . S
C269 H231 0.929 . S
C269 C264 1.397 . S
C269 C268 1.376 . S
C270 C254 1.509 . S
C270 C271 1.391 . S
C270 C275 1.386 . S
C271 H232 0.930 . S
C271 C270 1.391 . S
C271 C272 1.375 . S
C272 H233 0.931 . S
C272 C271 1.375 . S
C272 C273 1.375 . S
C273 C272 1.375 . S
C273 C274 1.361 . S
C274 H234 0.930 . S
C274 C273 1.361 . S
C274 C275 1.399 . S
C275 H235 0.929 . S
C275 C270 1.386 . S
C275 C274 1.399 . S
C276 C255 1.485 . S
C276 C277 1.394 . S
C276 C281 1.360 . S
C277 H236 0.931 . S
C277 C276 1.394 . S
C277 C278 1.372 . S
C278 H237 0.930 . S
C278 C277 1.372 . S
C278 C279 1.397 . S
C279 C278 1.397 . S
C279 C280 1.390 . S
C279 C295 1.476 . S
C280 H238 0.930 . S
C280 C279 1.390 . S
C280 C281 1.366 . S
C281 H239 0.932 . S
C281 C276 1.360 . S
C281 C280 1.366 . S
C282 C256 1.490 . S
C282 C283 1.380 . S
C282 C287 1.386 . S
C283 H240 0.930 . S
C283 C282 1.380 . S
C283 C284 1.381 . S
C284 H241 0.929 . S
C284 C283 1.381 . S
C284 C285 1.371 . S
C285 C284 1.371 . S
C285 C286 1.380 . S
C286 H242 0.931 . S
C286 C285 1.380 . S
C286 C287 1.387 . S
C287 H243 0.930 . S
C287 C282 1.386 . S
C287 C286 1.387 . S
C288 C257 1.519 1_655 S
C288 C289 1.377 . S
C288 C293 1.361 . S
C289 H244 0.929 . S
C289 C288 1.377 . S
C289 C290 1.386 . S
C290 H245 0.931 . S
C290 C289 1.386 . S
C290 C291 1.363 . S
C291 C290 1.363 . S
C291 C292 1.385 . S
C292 H246 0.930 . S
C292 C291 1.385 . S
C292 C293 1.396 . S
C293 H247 0.940 . S
C293 C288 1.361 . S
C293 C292 1.396 . S
C294 O248 1.300 . S
C294 O249 1.209 . S
C294 C267 1.486 . S
C295 O250 1.199 . S
C295 O251 1.297 . S
C295 C279 1.476 . S
H296 O322 0.856 . S
H297 O325 0.854 . S
H298 C333 0.930 . S
H299 C334 0.930 . S
H300 C336 0.930 . S
H301 C337 0.930 . S
H302 C339 0.931 . S
H303 C340 0.930 . S
H304 C342 0.930 . S
H305 C343 0.929 . S
H306 C345 0.930 . S
H307 C346 0.931 . S
H308 C348 0.930 . S
H309 C349 0.929 . S
H310 C351 0.931 . S
H311 C352 0.930 . S
H312 C354 0.930 . S
H313 C355 0.932 . S
H314 C357 0.930 . S
H315 C358 0.899 1_545 S
H316 C360 0.931 . S
H317 C361 0.930 . S
H318 C363 0.929 1_556 S
H319 C364 0.931 . S
H320 C366 0.930 . S
H321 C367 0.929 . S
O322 H296 0.856 . S
O322 C368 1.300 . S
O323 C368 1.209 . S
O324 C369 1.199 . S
O325 H297 0.854 . S
O325 C369 1.297 . S
C326 C327 1.404 . S
C326 C331 1.395 1_565 S
C326 C332 1.492 1_565 S
C327 C326 1.404 . S
C327 C328 1.396 . S
C327 C338 1.492 . S
C328 C327 1.396 . S
C328 C329 1.397 . S
C328 C344 1.509 . S
C329 C328 1.397 . S
C329 C330 1.412 1_556 S
C329 C350 1.485 1_556 S
C330 C329 1.412 1_554 S
C330 C331 1.369 1_564 S
C330 C356 1.490 . S
C331 C326 1.395 1_545 S
C331 C330 1.369 1_546 S
C331 C362 1.541 1_556 S
C332 C326 1.492 1_545 S
C332 C333 1.363 . S
C332 C337 1.390 . S
C333 H298 0.930 . S
C333 C332 1.363 . S
C333 C334 1.372 . S
C334 H299 0.930 . S
C334 C333 1.372 . S
C334 C335 1.383 . S
C335 C334 1.383 . S
C335 C336 1.395 . S
C336 H300 0.930 . S
C336 C335 1.395 . S
C336 C337 1.362 . S
C337 H301 0.930 . S
C337 C332 1.390 . S
C337 C336 1.362 . S
C338 C327 1.492 . S
C338 C339 1.377 . S
C338 C343 1.397 . S
C339 H302 0.931 . S
C339 C338 1.377 . S
C339 C340 1.376 . S
C340 H303 0.930 . S
C340 C339 1.376 . S
C340 C341 1.376 . S
C341 C340 1.376 . S
C341 C342 1.378 . S
C341 C368 1.486 . S
C342 H304 0.930 . S
C342 C341 1.378 . S
C342 C343 1.376 . S
C343 H305 0.929 . S
C343 C338 1.397 . S
C343 C342 1.376 . S
C344 C328 1.509 . S
C344 C345 1.391 . S
C344 C349 1.386 . S
C345 H306 0.930 . S
C345 C344 1.391 . S
C345 C346 1.375 . S
C346 H307 0.931 . S
C346 C345 1.375 . S
C346 C347 1.375 . S
C347 C346 1.375 . S
C347 C348 1.361 . S
C348 H308 0.930 . S
C348 C347 1.361 . S
C348 C349 1.399 . S
C349 H309 0.929 . S
C349 C344 1.386 . S
C349 C348 1.399 . S
C350 C329 1.485 1_554 S
C350 C351 1.394 . S
C350 C355 1.360 . S
C351 H310 0.931 . S
C351 C350 1.394 . S
C351 C352 1.372 . S
C352 H311 0.930 . S
C352 C351 1.372 . S
C352 C353 1.397 . S
C353 C352 1.397 . S
C353 C354 1.390 . S
C353 C369 1.476 . S
C354 H312 0.930 . S
C354 C353 1.390 . S
C354 C355 1.366 . S
C355 H313 0.932 . S
C355 C350 1.360 . S
C355 C354 1.366 . S
C356 C330 1.490 . S
C356 C357 1.380 . S
C356 C361 1.386 . S
C357 H314 0.930 . S
C357 C356 1.380 . S
C357 C358 1.381 . S
C358 H315 0.899 1_565 S
C358 C357 1.381 . S
C358 C359 1.371 . S
C359 C358 1.371 . S
C359 C360 1.380 . S
C360 H316 0.931 . S
C360 C359 1.380 . S
C360 C361 1.387 . S
C361 H317 0.930 . S
C361 C356 1.386 . S
C361 C360 1.387 . S
C362 C331 1.541 1_554 S
C362 C363 1.377 . S
C362 C367 1.361 . S
C363 H318 0.929 1_554 S
C363 C362 1.377 . S
C363 C364 1.386 . S
C364 H319 0.931 . S
C364 C363 1.386 . S
C364 C365 1.363 . S
C365 C364 1.363 . S
C365 C366 1.385 . S
C366 H320 0.930 . S
C366 C365 1.385 . S
C366 C367 1.396 . S
C367 H321 0.929 . S
C367 C362 1.361 . S
C367 C366 1.396 . S
C368 O322 1.300 . S
C368 O323 1.209 . S
C368 C341 1.486 . S
C369 O324 1.199 . S
C369 O325 1.297 . S
C369 C353 1.476 . S
H370 O396 0.856 . S
H371 O399 0.854 . S
H372 C407 0.930 . S
H373 C408 0.930 . S
H374 C410 0.930 . S
H375 C411 0.930 . S
H376 C413 0.931 . S
H377 C414 0.930 . S
H378 C416 0.930 . S
H379 C417 0.929 . S
H380 C419 0.930 . S
H381 C420 0.931 . S
H382 C422 0.930 . S
H383 C423 0.929 . S
H384 C425 0.931 . S
H385 C426 0.930 . S
H386 C428 0.930 . S
H387 C429 0.932 . S
H388 C431 0.930 . S
H389 C432 0.929 . S
H390 C434 0.931 . S
H391 C435 0.930 . S
H392 C437 0.929 . S
H393 C438 0.931 . S
H394 C440 0.930 . S
H395 C441 0.929 . S
O396 H370 0.856 . S
O396 C442 1.300 . S
O397 C442 1.209 . S
O398 C443 1.199 . S
O399 H371 0.854 . S
O399 C443 1.297 . S
C400 C401 1.404 . S
C400 C405 1.397 . S
C400 C406 1.492 . S
C401 C400 1.404 . S
C401 C402 1.396 . S
C401 C412 1.492 . S
C402 C401 1.396 . S
C402 C403 1.397 . S
C402 C418 1.509 . S
C403 C402 1.397 . S
C403 C404 1.412 . S
C403 C424 1.485 . S
C404 C403 1.412 . S
C404 C405 1.388 . S
C404 C430 1.490 . S
C405 C400 1.397 . S
C405 C404 1.388 . S
C405 C436 1.519 . S
C406 C400 1.492 . S
C406 C407 1.363 . S
C406 C411 1.390 . S
C407 H372 0.930 . S
C407 C406 1.363 . S
C407 C408 1.372 . S
C408 H373 0.930 . S
C408 C407 1.372 . S
C408 C409 1.383 . S
C409 C408 1.383 . S
C409 C410 1.395 . S
C410 H374 0.930 . S
C410 C409 1.395 . S
C410 C411 1.362 . S
C411 H375 0.930 . S
C411 C406 1.390 . S
C411 C410 1.362 . S
C412 C401 1.492 . S
C412 C413 1.377 . S
C412 C417 1.397 . S
C413 H376 0.931 . S
C413 C412 1.377 . S
C413 C414 1.376 . S
C414 H377 0.930 . S
C414 C413 1.376 . S
C414 C415 1.376 . S
C415 C414 1.376 . S
C415 C416 1.378 . S
C415 C442 1.486 . S
C416 H378 0.930 . S
C416 C415 1.378 . S
C416 C417 1.376 . S
C417 H379 0.929 . S
C417 C412 1.397 . S
C417 C416 1.376 . S
C418 C402 1.509 . S
C418 C419 1.391 . S
C418 C423 1.386 . S
C419 H380 0.930 . S
C419 C418 1.391 . S
C419 C420 1.375 . S
C420 H381 0.931 . S
C420 C419 1.375 . S
C420 C421 1.375 . S
C421 C420 1.375 . S
C421 C422 1.361 . S
C422 H382 0.930 . S
C422 C421 1.361 . S
C422 C423 1.399 . S
C423 H383 0.929 . S
C423 C418 1.386 . S
C423 C422 1.399 . S
C424 C403 1.485 . S
C424 C425 1.394 . S
C424 C429 1.360 . S
C425 H384 0.931 . S
C425 C424 1.394 . S
C425 C426 1.372 . S
C426 H385 0.930 . S
C426 C425 1.372 . S
C426 C427 1.397 . S
C427 C426 1.397 . S
C427 C428 1.390 . S
C427 C443 1.476 . S
C428 H386 0.930 . S
C428 C427 1.390 . S
C428 C429 1.366 . S
C429 H387 0.932 . S
C429 C424 1.360 . S
C429 C428 1.366 . S
C430 C404 1.490 . S
C430 C431 1.380 . S
C430 C435 1.386 . S
C431 H388 0.930 . S
C431 C430 1.380 . S
C431 C432 1.381 . S
C432 H389 0.929 . S
C432 C431 1.381 . S
C432 C433 1.371 . S
C433 C432 1.371 . S
C433 C434 1.380 . S
C434 H390 0.931 . S
C434 C433 1.380 . S
C434 C435 1.387 . S
C435 H391 0.930 . S
C435 C430 1.386 . S
C435 C434 1.387 . S
C436 C405 1.519 . S
C436 C437 1.377 . S
C436 C441 1.361 . S
C437 H392 0.929 . S
C437 C436 1.377 . S
C437 C438 1.386 . S
C438 H393 0.931 . S
C438 C437 1.386 . S
C438 C439 1.363 . S
C439 C438 1.363 . S
C439 C440 1.385 . S
C440 H394 0.930 . S
C440 C439 1.385 . S
C440 C441 1.396 . S
C441 H395 0.929 . S
C441 C436 1.361 . S
C441 C440 1.396 . S
C442 O396 1.300 . S
C442 O397 1.209 . S
C442 C415 1.486 . S
C443 O398 1.199 . S
C443 O399 1.297 . S
C443 C427 1.476 . S
Zn444 O447 2.031 . S
Zn444 O449 2.049 . S
Zn444 O454 2.067 . S
Zn445 O446 1.962 . S
Zn445 O448 1.986 . S
Zn445 O450 1.996 . S
Zn445 O453 1.943 . S
O446 Zn445 1.962 . S
O446 C451 1.254 . S
O447 Zn444 2.031 . S
O447 C451 1.269 . S
O448 Zn445 1.986 . S
O448 C455 1.262 . S
O449 Zn444 2.049 . S
O449 C457 1.260 . S
O450 Zn445 1.996 . S
O450 C457 1.257 . S
C451 O446 1.254 . S
C451 O447 1.269 . S
C452 O453 1.249 . S
C452 O454 1.270 . S
O453 Zn445 1.943 . S
O453 C452 1.249 . S
O454 Zn444 2.067 . S
O454 C452 1.270 . S
C455 O448 1.262 . S
C455 O456 1.232 . S
O456 C455 1.232 . S
C457 O449 1.260 . S
C457 O450 1.257 . S
Zn458 O461 2.031 . S
Zn458 O463 2.049 . S
Zn458 O468 2.067 . S
Zn459 O460 1.962 . S
Zn459 O462 1.986 . S
Zn459 O464 1.996 . S
Zn459 O467 1.943 . S
O460 Zn459 1.962 . S
O460 C465 1.254 . S
O461 Zn458 2.031 . S
O461 C465 1.269 . S
O462 Zn459 1.986 . S
O462 C469 1.262 . S
O463 Zn458 2.049 . S
O463 C471 1.260 . S
O464 Zn459 1.996 . S
O464 C471 1.257 . S
C465 O460 1.254 . S
C465 O461 1.269 . S
C466 O467 1.249 . S
C466 O468 1.270 . S
O467 Zn459 1.943 . S
O467 C466 1.249 . S
O468 Zn458 2.067 . S
O468 C466 1.270 . S
C469 O462 1.262 . S
C469 O470 1.232 . S
O470 C469 1.232 . S
C471 O463 1.260 . S
C471 O464 1.257 . S
Zn472 O475 2.031 . S
Zn472 O477 2.049 . S
Zn472 O482 2.067 . S
Zn473 O474 1.962 . S
Zn473 O476 1.986 . S
Zn473 O478 1.996 . S
Zn473 O481 1.943 . S
O474 Zn473 1.962 . S
O474 C479 1.254 . S
O475 Zn472 2.031 . S
O475 C479 1.269 . S
O476 Zn473 1.986 . S
O476 C483 1.262 . S
O477 Zn472 2.049 . S
O477 C485 1.260 . S
O478 Zn473 1.996 . S
O478 C485 1.257 . S
C479 O474 1.254 . S
C479 O475 1.269 . S
C480 O481 1.249 . S
C480 O482 1.270 . S
O481 Zn473 1.943 . S
O481 C480 1.249 . S
O482 Zn472 2.067 . S
O482 C480 1.270 . S
C483 O476 1.262 . S
C483 O484 1.232 . S
O484 C483 1.232 . S
C485 O477 1.260 . S
C485 O478 1.257 . S
Zn486 O489 2.031 . S
Zn486 O491 2.049 . S
Zn486 O496 2.067 . S
Zn487 O488 1.962 . S
Zn487 O490 1.986 . S
Zn487 O492 1.996 . S
Zn487 O495 1.943 . S
O488 Zn487 1.962 . S
O488 C493 1.254 . S
O489 Zn486 2.031 . S
O489 C493 1.269 . S
O490 Zn487 1.986 . S
O490 C497 1.262 . S
O491 Zn486 2.049 . S
O491 C499 1.260 . S
O492 Zn487 1.996 . S
O492 C499 1.257 . S
C493 O488 1.254 . S
C493 O489 1.269 . S
C494 O495 1.249 . S
C494 O496 1.270 . S
O495 Zn487 1.943 . S
O495 C494 1.249 . S
O496 Zn486 2.067 . S
O496 C494 1.270 . S
C497 O490 1.262 . S
C497 O498 1.232 . S
O498 C497 1.232 . S
C499 O491 1.260 . S
C499 O492 1.257 . S
Zn500 O503 2.031 . S
Zn500 O505 2.049 . S
Zn500 O510 2.067 . S
Zn501 O502 1.962 . S
Zn501 O504 1.986 . S
Zn501 O506 1.996 . S
Zn501 O509 1.943 . S
O502 Zn501 1.962 . S
O502 C507 1.254 . S
O503 Zn500 2.031 . S
O503 C507 1.269 . S
O504 Zn501 1.986 . S
O504 C511 1.262 . S
O505 Zn500 2.049 . S
O505 C513 1.260 . S
O506 Zn501 1.996 . S
O506 C513 1.257 . S
C507 O502 1.254 . S
C507 O503 1.269 . S
C508 O509 1.249 . S
C508 O510 1.270 . S
O509 Zn501 1.943 . S
O509 C508 1.249 . S
O510 Zn500 2.067 . S
O510 C508 1.270 . S
C511 O504 1.262 . S
C511 O512 1.232 . S
O512 C511 1.232 . S
C513 O505 1.260 . S
C513 O506 1.257 . S
Zn514 O517 2.031 . S
Zn514 O519 2.049 . S
Zn514 O524 2.067 . S
Zn515 O516 1.962 . S
Zn515 O518 1.986 . S
Zn515 O520 1.996 . S
Zn515 O523 1.943 . S
O516 Zn515 1.962 . S
O516 C521 1.254 . S
O517 Zn514 2.031 . S
O517 C521 1.269 . S
O518 Zn515 1.986 . S
O518 C525 1.262 . S
O519 Zn514 2.049 . S
O519 C527 1.260 . S
O520 Zn515 1.996 . S
O520 C527 1.257 . S
C521 O516 1.254 . S
C521 O517 1.269 . S
C522 O523 1.249 . S
C522 O524 1.270 . S
O523 Zn515 1.943 . S
O523 C522 1.249 . S
O524 Zn514 2.067 . S
O524 C522 1.270 . S
C525 O518 1.262 . S
C525 O526 1.232 . S
O526 C525 1.232 . S
C527 O519 1.260 . S
C527 O520 1.257 . S
H528 C536 0.950 . S
H529 C541 0.950 . S
H530 C538 0.950 . S
H531 C540 0.950 . S
H532 C542 0.950 . S
H533 C544 0.950 . S
H534 C546 0.950 . S
H535 C547 0.950 . S
C536 H528 0.950 . S
C536 C537 1.386 . S
C536 C538 1.391 . S
C537 C536 1.386 . S
C537 C541 1.393 . S
C538 H530 0.950 . S
C538 C536 1.391 . S
C538 C539 1.400 . S
C539 C538 1.400 . S
C539 C540 1.398 . S
C539 C545 1.491 . S
C540 H531 0.950 . S
C540 C539 1.398 . S
C540 C541 1.391 . S
C541 H529 0.950 . S
C541 C537 1.393 . S
C541 C540 1.391 . S
C542 H532 0.950 . S
C542 C543 1.386 . S
C542 C544 1.391 . S
C543 C542 1.386 . S
C543 C547 1.393 . S
C544 H533 0.950 . S
C544 C542 1.391 . S
C544 C545 1.400 . S
C545 C539 1.491 . S
C545 C544 1.400 . S
C545 C546 1.398 . S
C546 H534 0.950 . S
C546 C545 1.398 . S
C546 C547 1.391 . S
C547 H535 0.950 . S
C547 C543 1.393 . S
C547 C546 1.391 . S
H548 C556 0.950 . S
H549 C561 0.950 . S
H550 C558 0.950 . S
H551 C560 0.950 . S
H552 C562 0.950 . S
H553 C564 0.950 . S
H554 C566 0.950 . S
H555 C567 0.950 . S
C556 H548 0.950 . S
C556 C557 1.386 . S
C556 C558 1.391 . S
C557 C556 1.386 . S
C557 C561 1.393 . S
C558 H550 0.950 . S
C558 C556 1.391 . S
C558 C559 1.400 . S
C559 C558 1.400 . S
C559 C560 1.398 . S
C559 C565 1.491 . S
C560 H551 0.950 . S
C560 C559 1.398 . S
C560 C561 1.391 . S
C561 H549 0.950 . S
C561 C557 1.393 . S
C561 C560 1.391 . S
C562 H552 0.950 . S
C562 C563 1.386 . S
C562 C564 1.391 . S
C563 C562 1.386 . S
C563 C567 1.393 . S
C564 H553 0.950 . S
C564 C562 1.391 . S
C564 C565 1.400 . S
C565 C559 1.491 . S
C565 C564 1.400 . S
C565 C566 1.398 . S
C566 H554 0.950 . S
C566 C565 1.398 . S
C566 C567 1.391 . S
C567 H555 0.950 . S
C567 C563 1.393 . S
C567 C566 1.391 . S
H568 C576 0.950 . S
H569 C581 0.950 . S
H570 C578 0.950 . S
H571 C580 0.950 . S
H572 C582 0.950 . S
H573 C584 0.950 . S
H574 C586 0.950 . S
H575 C587 0.950 . S
C576 H568 0.950 . S
C576 C577 1.386 . S
C576 C578 1.391 . S
C577 C576 1.386 . S
C577 C581 1.393 . S
C578 H570 0.950 . S
C578 C576 1.391 . S
C578 C579 1.400 . S
C579 C578 1.400 . S
C579 C580 1.398 . S
C579 C585 1.491 . S
C580 H571 0.950 . S
C580 C579 1.398 . S
C580 C581 1.391 . S
C581 H569 0.950 . S
C581 C577 1.393 . S
C581 C580 1.391 . S
C582 H572 0.950 . S
C582 C583 1.386 . S
C582 C584 1.391 . S
C583 C582 1.386 . S
C583 C587 1.393 . S
C584 H573 0.950 . S
C584 C582 1.391 . S
C584 C585 1.400 . S
C585 C579 1.491 . S
C585 C584 1.400 . S
C585 C586 1.398 . S
C586 H574 0.950 . S
C586 C585 1.398 . S
C586 C587 1.391 . S
C587 H575 0.950 . S
C587 C583 1.393 . S
C587 C586 1.391 . S
H588 C596 0.950 . S
H589 C601 0.950 . S
H590 C598 0.950 . S
H591 C600 0.950 . S
H592 C602 0.950 . S
H593 C604 0.950 . S
H594 C606 0.950 . S
H595 C607 0.950 . S
C596 H588 0.950 . S
C596 C597 1.386 . S
C596 C598 1.391 . S
C597 C596 1.386 . S
C597 C601 1.393 . S
C598 H590 0.950 . S
C598 C596 1.391 . S
C598 C599 1.400 . S
C599 C598 1.400 . S
C599 C600 1.398 . S
C599 C605 1.491 . S
C600 H591 0.950 . S
C600 C599 1.398 . S
C600 C601 1.391 . S
C601 H589 0.950 . S
C601 C597 1.393 . S
C601 C600 1.391 . S
C602 H592 0.950 . S
C602 C603 1.386 . S
C602 C604 1.391 . S
C603 C602 1.386 . S
C603 C607 1.393 . S
C604 H593 0.950 . S
C604 C602 1.391 . S
C604 C605 1.400 . S
C605 C599 1.491 . S
C605 C604 1.400 . S
C605 C606 1.398 . S
C606 H594 0.950 . S
C606 C605 1.398 . S
C606 C607 1.391 . S
C607 H595 0.950 . S
C607 C603 1.393 . S
C607 C606 1.391 . S
H608 C616 0.950 . S
H609 C621 0.950 . S
H610 C618 0.950 . S
H611 C620 0.950 . S
H612 C622 0.950 . S
H613 C624 0.950 . S
H614 C626 0.950 . S
H615 C627 0.950 . S
C616 H608 0.950 . S
C616 C617 1.386 . S
C616 C618 1.391 . S
C617 C616 1.386 . S
C617 C621 1.393 . S
C618 H610 0.950 . S
C618 C616 1.391 . S
C618 C619 1.400 . S
C619 C618 1.400 . S
C619 C620 1.398 . S
C619 C625 1.491 . S
C620 H611 0.950 . S
C620 C619 1.398 . S
C620 C621 1.391 . S
C621 H609 0.950 . S
C621 C617 1.393 . S
C621 C620 1.391 . S
C622 H612 0.950 . S
C622 C623 1.386 . S
C622 C624 1.391 . S
C623 C622 1.386 . S
C623 C627 1.393 . S
C624 H613 0.950 . S
C624 C622 1.391 . S
C624 C625 1.400 . S
C625 C619 1.491 . S
C625 C624 1.400 . S
C625 C626 1.398 . S
C626 H614 0.950 . S
C626 C625 1.398 . S
C626 C627 1.391 . S
C627 H615 0.950 . S
C627 C623 1.393 . S
C627 C626 1.391 . S
H628 C636 0.950 . S
H629 C641 0.950 . S
H630 C638 0.950 . S
H631 C640 0.950 . S
H632 C642 0.950 . S
H633 C644 0.950 . S
H634 C646 0.950 . S
H635 C647 0.950 . S
C636 H628 0.950 . S
C636 C637 1.386 . S
C636 C638 1.391 . S
C637 C636 1.386 . S
C637 C641 1.393 . S
C638 H630 0.950 . S
C638 C636 1.391 . S
C638 C639 1.400 . S
C639 C638 1.400 . S
C639 C640 1.398 . S
C639 C645 1.491 . S
C640 H631 0.950 . S
C640 C639 1.398 . S
C640 C641 1.391 . S
C641 H629 0.950 . S
C641 C637 1.393 . S
C641 C640 1.391 . S
C642 H632 0.950 . S
C642 C643 1.386 . S
C642 C644 1.391 . S
C643 C642 1.386 . S
C643 C647 1.393 . S
C644 H633 0.950 . S
C644 C642 1.391 . S
C644 C645 1.400 . S
C645 C639 1.491 . S
C645 C644 1.400 . S
C645 C646 1.398 . S
C646 H634 0.950 . S
C646 C645 1.398 . S
C646 C647 1.391 . S
C647 H635 0.950 . S
C647 C643 1.393 . S
C647 C646 1.391 . S
H648 C656 0.950 . S
H649 C661 0.950 . S
H650 C658 0.950 . S
H651 C660 0.950 . S
H652 C662 0.950 . S
H653 C664 0.950 . S
H654 C666 0.950 . S
H655 C667 0.950 . S
C656 H648 0.950 . S
C656 C657 1.386 . S
C656 C658 1.391 . S
C657 C656 1.386 . S
C657 C661 1.393 . S
C658 H650 0.950 . S
C658 C656 1.391 . S
C658 C659 1.400 . S
C659 C658 1.400 . S
C659 C660 1.398 . S
C659 C665 1.491 . S
C660 H651 0.950 . S
C660 C659 1.398 . S
C660 C661 1.391 . S
C661 H649 0.950 . S
C661 C657 1.393 . S
C661 C660 1.391 . S
C662 H652 0.950 . S
C662 C663 1.386 . S
C662 C664 1.391 . S
C663 C662 1.386 . S
C663 C667 1.393 . S
C664 H653 0.950 . S
C664 C662 1.391 . S
C664 C665 1.400 . S
C665 C659 1.491 . S
C665 C664 1.400 . S
C665 C666 1.398 . S
C666 H654 0.950 . S
C666 C665 1.398 . S
C666 C667 1.391 . S
C667 H655 0.950 . S
C667 C663 1.393 . S
C667 C666 1.391 . S
H668 C676 0.950 . S
H669 C681 0.950 . S
H670 C678 0.950 . S
H671 C680 0.950 . S
H672 C682 0.950 . S
H673 C684 0.950 . S
H674 C686 0.950 . S
H675 C687 0.950 . S
C676 H668 0.950 . S
C676 C677 1.386 . S
C676 C678 1.391 . S
C677 C676 1.386 . S
C677 C681 1.393 . S
C678 H670 0.950 . S
C678 C676 1.391 . S
C678 C679 1.400 . S
C679 C678 1.400 . S
C679 C680 1.398 . S
C679 C685 1.491 . S
C680 H671 0.950 . S
C680 C679 1.398 . S
C680 C681 1.391 . S
C681 H669 0.950 . S
C681 C677 1.393 . S
C681 C680 1.391 . S
C682 H672 0.950 . S
C682 C683 1.386 . S
C682 C684 1.391 . S
C683 C682 1.386 . S
C683 C687 1.393 . S
C684 H673 0.950 . S
C684 C682 1.391 . S
C684 C685 1.400 . S
C685 C679 1.491 . S
C685 C684 1.400 . S
C685 C686 1.398 . S
C686 H674 0.950 . S
C686 C685 1.398 . S
C686 C687 1.391 . S
C687 H675 0.950 . S
C687 C683 1.393 . S
C687 C686 1.391 . S
H688 C696 0.950 . S
H689 C701 0.950 . S
H690 C698 0.950 . S
H691 C700 0.950 . S
H692 C702 0.950 . S
H693 C704 0.950 . S
H694 C706 0.950 . S
H695 C707 0.950 . S
C696 H688 0.950 . S
C696 C697 1.386 . S
C696 C698 1.391 . S
C697 C696 1.386 . S
C697 C701 1.393 . S
C698 H690 0.950 . S
C698 C696 1.391 . S
C698 C699 1.400 . S
C699 C698 1.400 . S
C699 C700 1.398 . S
C699 C705 1.491 . S
C700 H691 0.950 . S
C700 C699 1.398 . S
C700 C701 1.391 . S
C701 H689 0.950 . S
C701 C697 1.393 . S
C701 C700 1.391 . S
C702 H692 0.950 . S
C702 C703 1.386 . S
C702 C704 1.391 . S
C703 C702 1.386 . S
C703 C707 1.393 . S
C704 H693 0.950 . S
C704 C702 1.391 . S
C704 C705 1.400 . S
C705 C699 1.491 . S
C705 C704 1.400 . S
C705 C706 1.398 . S
C706 H694 0.950 . S
C706 C705 1.398 . S
C706 C707 1.391 . S
C707 H695 0.950 . S
C707 C703 1.393 . S
C707 C706 1.391 . S
H708 C716 0.950 . S
H709 C721 0.950 . S
H710 C718 0.950 . S
H711 C720 0.950 . S
H712 C722 0.950 . S
H713 C724 0.950 . S
H714 C726 0.950 . S
H715 C727 0.950 . S
C716 H708 0.950 . S
C716 C717 1.386 . S
C716 C718 1.391 . S
C717 C716 1.386 . S
C717 C721 1.393 . S
C718 H710 0.950 . S
C718 C716 1.391 . S
C718 C719 1.400 . S
C719 C718 1.400 . S
C719 C720 1.398 . S
C719 C725 1.491 . S
C720 H711 0.950 . S
C720 C719 1.398 . S
C720 C721 1.391 . S
C721 H709 0.950 . S
C721 C717 1.393 . S
C721 C720 1.391 . S
C722 H712 0.950 . S
C722 C723 1.386 . S
C722 C724 1.391 . S
C723 C722 1.386 . S
C723 C727 1.393 . S
C724 H713 0.950 . S
C724 C722 1.391 . S
C724 C725 1.400 . S
C725 C719 1.491 . S
C725 C724 1.400 . S
C725 C726 1.398 . S
C726 H714 0.950 . S
C726 C725 1.398 . S
C726 C727 1.391 . S
C727 H715 0.950 . S
C727 C723 1.393 . S
C727 C726 1.391 . S
H728 C736 0.950 . S
H729 C741 0.950 . S
H730 C738 0.950 . S
H731 C740 0.950 . S
H732 C742 0.950 . S
H733 C744 0.950 . S
H734 C746 0.950 . S
H735 C747 0.950 . S
C736 H728 0.950 . S
C736 C737 1.386 . S
C736 C738 1.391 . S
C737 C736 1.386 . S
C737 C741 1.393 . S
C738 H730 0.950 . S
C738 C736 1.391 . S
C738 C739 1.400 . S
C739 C738 1.400 . S
C739 C740 1.398 . S
C739 C745 1.491 . S
C740 H731 0.950 . S
C740 C739 1.398 . S
C740 C741 1.391 . S
C741 H729 0.950 . S
C741 C737 1.393 . S
C741 C740 1.391 . S
C742 H732 0.950 . S
C742 C743 1.386 . S
C742 C744 1.391 . S
C743 C742 1.386 . S
C743 C747 1.393 . S
C744 H733 0.950 . S
C744 C742 1.391 . S
C744 C745 1.400 . S
C745 C739 1.491 . S
C745 C744 1.400 . S
C745 C746 1.398 . S
C746 H734 0.950 . S
C746 C745 1.398 . S
C746 C747 1.391 . S
C747 H735 0.950 . S
C747 C743 1.393 . S
C747 C746 1.391 . S
H748 C756 0.950 . S
H749 C761 0.950 . S
H750 C758 0.950 . S
H751 C760 0.950 . S
H752 C762 0.950 . S
H753 C764 0.950 . S
H754 C766 0.950 . S
H755 C767 0.950 . S
C756 H748 0.950 . S
C756 C757 1.386 . S
C756 C758 1.391 . S
C757 C756 1.386 . S
C757 C761 1.393 . S
C758 H750 0.950 . S
C758 C756 1.391 . S
C758 C759 1.400 . S
C759 C758 1.400 . S
C759 C760 1.398 . S
C759 C765 1.491 . S
C760 H751 0.950 . S
C760 C759 1.398 . S
C760 C761 1.391 . S
C761 H749 0.950 . S
C761 C757 1.393 . S
C761 C760 1.391 . S
C762 H752 0.950 . S
C762 C763 1.386 . S
C762 C764 1.391 . S
C763 C762 1.386 . S
C763 C767 1.393 . S
C764 H753 0.950 . S
C764 C762 1.391 . S
C764 C765 1.400 . S
C765 C759 1.491 . S
C765 C764 1.400 . S
C765 C766 1.398 . S
C766 H754 0.950 . S
C766 C765 1.398 . S
C766 C767 1.391 . S
C767 H755 0.950 . S
C767 C763 1.393 . S
C767 C766 1.391 . S
H768 C776 0.950 . S
H769 C781 0.950 . S
H770 C778 0.950 . S
H771 C780 0.950 . S
H772 C782 0.950 . S
H773 C784 0.950 . S
H774 C786 0.950 . S
H775 C787 0.950 . S
C776 H768 0.950 . S
C776 C777 1.386 . S
C776 C778 1.391 . S
C777 C776 1.386 . S
C777 C781 1.393 . S
C778 H770 0.950 . S
C778 C776 1.391 . S
C778 C779 1.400 . S
C779 C778 1.400 . S
C779 C780 1.398 . S
C779 C785 1.491 . S
C780 H771 0.950 . S
C780 C779 1.398 . S
C780 C781 1.391 . S
C781 H769 0.950 . S
C781 C777 1.393 . S
C781 C780 1.391 . S
C782 H772 0.950 . S
C782 C783 1.386 . S
C782 C784 1.391 . S
C783 C782 1.386 . S
C783 C787 1.393 . S
C784 H773 0.950 . S
C784 C782 1.391 . S
C784 C785 1.400 . S
C785 C779 1.491 . S
C785 C784 1.400 . S
C785 C786 1.398 . S
C786 H774 0.950 . S
C786 C785 1.398 . S
C786 C787 1.391 . S
C787 H775 0.950 . S
C787 C783 1.393 . S
C787 C786 1.391 . S
H788 C796 0.950 . S
H789 C801 0.950 . S
H790 C798 0.950 . S
H791 C800 0.950 . S
H792 C802 0.950 . S
H793 C804 0.950 . S
H794 C806 0.950 . S
H795 C807 0.950 . S
C796 H788 0.950 . S
C796 C797 1.386 . S
C796 C798 1.391 . S
C797 C796 1.386 . S
C797 C801 1.393 . S
C798 H790 0.950 . S
C798 C796 1.391 . S
C798 C799 1.400 . S
C799 C798 1.400 . S
C799 C800 1.398 . S
C799 C805 1.491 . S
C800 H791 0.950 . S
C800 C799 1.398 . S
C800 C801 1.391 . S
C801 H789 0.950 . S
C801 C797 1.393 . S
C801 C800 1.391 . S
C802 H792 0.950 . S
C802 C803 1.386 . S
C802 C804 1.391 . S
C803 C802 1.386 . S
C803 C807 1.393 . S
C804 H793 0.950 . S
C804 C802 1.391 . S
C804 C805 1.400 . S
C805 C799 1.491 . S
C805 C804 1.400 . S
C805 C806 1.398 . S
C806 H794 0.950 . S
C806 C805 1.398 . S
C806 C807 1.391 . S
C807 H795 0.950 . S
C807 C803 1.393 . S
C807 C806 1.391 . S
H808 C816 0.950 . S
H809 C821 0.950 . S
H810 C818 0.950 . S
H811 C820 0.950 . S
H812 C822 0.950 . S
H813 C824 0.950 . S
H814 C826 0.950 . S
H815 C827 0.950 . S
C816 H808 0.950 . S
C816 C817 1.386 . S
C816 C818 1.391 . S
C817 C816 1.386 . S
C817 C821 1.393 . S
C818 H810 0.950 . S
C818 C816 1.391 . S
C818 C819 1.400 . S
C819 C818 1.400 . S
C819 C820 1.398 . S
C819 C825 1.491 . S
C820 H811 0.950 . S
C820 C819 1.398 . S
C820 C821 1.391 . S
C821 H809 0.950 . S
C821 C817 1.393 . S
C821 C820 1.391 . S
C822 H812 0.950 . S
C822 C823 1.386 . S
C822 C824 1.391 . S
C823 C822 1.386 . S
C823 C827 1.393 . S
C824 H813 0.950 . S
C824 C822 1.391 . S
C824 C825 1.400 . S
C825 C819 1.491 . S
C825 C824 1.400 . S
C825 C826 1.398 . S
C826 H814 0.950 . S
C826 C825 1.398 . S
C826 C827 1.391 . S
C827 H815 0.950 . S
C827 C823 1.393 . S
C827 C826 1.391 . S
H828 C836 0.950 . S
H829 C841 0.950 . S
H830 C838 0.950 . S
H831 C840 0.950 . S
H832 C842 0.950 . S
H833 C844 0.950 . S
H834 C846 0.950 . S
H835 C847 0.950 . S
C836 H828 0.950 . S
C836 C837 1.386 . S
C836 C838 1.391 . S
C837 C836 1.386 . S
C837 C841 1.393 . S
C838 H830 0.950 . S
C838 C836 1.391 . S
C838 C839 1.400 . S
C839 C838 1.400 . S
C839 C840 1.398 . S
C839 C845 1.491 . S
C840 H831 0.950 . S
C840 C839 1.398 . S
C840 C841 1.391 . S
C841 H829 0.950 . S
C841 C837 1.393 . S
C841 C840 1.391 . S
C842 H832 0.950 . S
C842 C843 1.386 . S
C842 C844 1.391 1_554 S
C843 C842 1.386 . S
C843 C847 1.393 . S
C844 H833 0.950 . S
C844 C842 1.391 1_556 S
C844 C845 1.400 . S
C845 C839 1.491 . S
C845 C844 1.400 . S
C845 C846 1.398 . S
C846 H834 0.950 . S
C846 C845 1.398 . S
C846 C847 1.391 1_556 S
C847 H835 0.950 . S
C847 C843 1.393 . S
C847 C846 1.391 1_554 S
H848 C856 0.950 1_545 S
H849 C861 0.950 . S
H850 C858 0.950 . S
H851 C860 0.950 . S
H852 C862 0.950 . S
H853 C864 0.950 . S
H854 C866 0.950 . S
H855 C867 0.950 . S
C856 H848 0.950 1_565 S
C856 C857 1.386 . S
C856 C858 1.391 . S
C857 C856 1.386 . S
C857 C861 1.393 . S
C858 H850 0.950 . S
C858 C856 1.391 . S
C858 C859 1.400 . S
C859 C858 1.400 . S
C859 C860 1.398 . S
C859 C865 1.491 . S
C860 H851 0.950 . S
C860 C859 1.398 . S
C860 C861 1.391 . S
C861 H849 0.950 . S
C861 C857 1.393 . S
C861 C860 1.391 . S
C862 H852 0.950 . S
C862 C863 1.386 . S
C862 C864 1.391 . S
C863 C862 1.386 . S
C863 C867 1.393 . S
C864 H853 0.950 . S
C864 C862 1.391 . S
C864 C865 1.400 . S
C865 C859 1.491 . S
C865 C864 1.400 . S
C865 C866 1.398 . S
C866 H854 0.950 . S
C866 C865 1.398 . S
C866 C867 1.391 . S
C867 H855 0.950 . S
C867 C863 1.393 . S
C867 C866 1.391 . S
H868 C876 0.950 . S
H869 C881 0.950 . S
H870 C878 0.950 . S
H871 C880 0.950 . S
H872 C882 0.950 . S
H873 C884 0.950 . S
H874 C886 0.950 . S
H875 C887 0.950 . S
C876 H868 0.950 . S
C876 C877 1.386 . S
C876 C878 1.391 . S
C877 C876 1.386 . S
C877 C881 1.393 . S
C878 H870 0.950 . S
C878 C876 1.391 . S
C878 C879 1.400 . S
C879 C878 1.400 . S
C879 C880 1.398 . S
C879 C885 1.491 . S
C880 H871 0.950 . S
C880 C879 1.398 . S
C880 C881 1.391 . S
C881 H869 0.950 . S
C881 C877 1.393 . S
C881 C880 1.391 . S
C882 H872 0.950 . S
C882 C883 1.386 . S
C882 C884 1.391 . S
C883 C882 1.386 . S
C883 C887 1.393 . S
C884 H873 0.950 . S
C884 C882 1.391 . S
C884 C885 1.400 . S
C885 C879 1.491 . S
C885 C884 1.400 . S
C885 C886 1.398 . S
C886 H874 0.950 . S
C886 C885 1.398 . S
C886 C887 1.391 . S
C887 H875 0.950 . S
C887 C883 1.393 . S
C887 C886 1.391 . S
H888 C896 0.950 . S
H889 C901 0.950 . S
H890 C898 0.950 . S
H891 C900 0.950 . S
H892 C902 0.950 . S
H893 C904 0.950 . S
H894 C906 0.950 . S
H895 C907 0.950 . S
C896 H888 0.950 . S
C896 C897 1.386 . S
C896 C898 1.391 . S
C897 C896 1.386 . S
C897 C901 1.393 . S
C898 H890 0.950 . S
C898 C896 1.391 . S
C898 C899 1.400 . S
C899 C898 1.400 . S
C899 C900 1.398 . S
C899 C905 1.491 . S
C900 H891 0.950 . S
C900 C899 1.398 . S
C900 C901 1.391 . S
C901 H889 0.950 . S
C901 C897 1.393 . S
C901 C900 1.391 . S
C902 H892 0.950 . S
C902 C903 1.386 . S
C902 C904 1.391 . S
C903 C902 1.386 . S
C903 C907 1.393 . S
C904 H893 0.950 . S
C904 C902 1.391 . S
C904 C905 1.400 . S
C905 C899 1.491 . S
C905 C904 1.400 . S
C905 C906 1.398 . S
C906 H894 0.950 . S
C906 C905 1.398 . S
C906 C907 1.391 . S
C907 H895 0.950 . S
C907 C903 1.393 . S
C907 C906 1.391 . S
H908 C916 0.950 . S
H909 C921 0.950 . S
H910 C918 0.950 . S
H911 C920 0.950 . S
H912 C922 0.950 . S
H913 C924 0.950 . S
H914 C926 0.950 . S
H915 C927 0.950 . S
C916 H908 0.950 . S
C916 C917 1.386 . S
C916 C918 1.391 . S
C917 C916 1.386 . S
C917 C921 1.393 . S
C918 H910 0.950 . S
C918 C916 1.391 . S
C918 C919 1.400 . S
C919 C918 1.400 . S
C919 C920 1.398 . S
C919 C925 1.491 . S
C920 H911 0.950 . S
C920 C919 1.398 . S
C920 C921 1.391 . S
C921 H909 0.950 . S
C921 C917 1.393 . S
C921 C920 1.391 . S
C922 H912 0.950 . S
C922 C923 1.386 . S
C922 C924 1.391 . S
C923 C922 1.386 . S
C923 C927 1.393 . S
C924 H913 0.950 . S
C924 C922 1.391 . S
C924 C925 1.400 . S
C925 C919 1.491 . S
C925 C924 1.400 . S
C925 C926 1.398 . S
C926 H914 0.950 . S
C926 C925 1.398 . S
C926 C927 1.391 . S
C927 H915 0.950 . S
C927 C923 1.393 . S
C927 C926 1.391 . S
H928 C936 0.950 . S
H929 C941 0.950 . S
H930 C938 0.950 . S
H931 C940 0.950 . S
H932 C942 0.950 . S
H933 C944 0.950 . S
H934 C946 0.950 . S
H935 C947 0.950 . S
C936 H928 0.950 . S
C936 C937 1.386 . S
C936 C938 1.391 . S
C937 C936 1.386 . S
C937 C941 1.393 . S
C938 H930 0.950 . S
C938 C936 1.391 . S
C938 C939 1.400 . S
C939 C938 1.400 . S
C939 C940 1.398 . S
C939 C945 1.491 . S
C940 H931 0.950 . S
C940 C939 1.398 . S
C940 C941 1.391 . S
C941 H929 0.950 . S
C941 C937 1.393 . S
C941 C940 1.391 . S
C942 H932 0.950 . S
C942 C943 1.386 . S
C942 C944 1.391 . S
C943 C942 1.386 . S
C943 C947 1.393 . S
C944 H933 0.950 . S
C944 C942 1.391 . S
C944 C945 1.400 . S
C945 C939 1.491 . S
C945 C944 1.400 . S
C945 C946 1.398 . S
C946 H934 0.950 . S
C946 C945 1.398 . S
C946 C947 1.391 . S
C947 H935 0.950 . S
C947 C943 1.393 . S
C947 C946 1.391 . S
H948 C956 0.950 . S
H949 C961 0.950 . S
H950 C958 0.950 . S
H951 C960 0.950 . S
H952 C962 0.950 . S
H953 C964 0.950 . S
H954 C966 0.950 . S
H955 C967 0.950 . S
C956 H948 0.950 . S
C956 C957 1.386 . S
C956 C958 1.391 . S
C957 C956 1.386 . S
C957 C961 1.393 . S
C958 H950 0.950 . S
C958 C956 1.391 . S
C958 C959 1.400 . S
C959 C958 1.400 . S
C959 C960 1.398 . S
C959 C965 1.491 . S
C960 H951 0.950 . S
C960 C959 1.398 . S
C960 C961 1.391 . S
C961 H949 0.950 . S
C961 C957 1.393 . S
C961 C960 1.391 . S
C962 H952 0.950 . S
C962 C963 1.386 . S
C962 C964 1.391 . S
C963 C962 1.386 . S
C963 C967 1.393 . S
C964 H953 0.950 . S
C964 C962 1.391 . S
C964 C965 1.400 . S
C965 C959 1.491 . S
C965 C964 1.400 . S
C965 C966 1.398 . S
C966 H954 0.950 . S
C966 C965 1.398 . S
C966 C967 1.391 . S
C967 H955 0.950 . S
C967 C963 1.393 . S
C967 C966 1.391 . S
H968 C976 0.950 . S
H969 C981 0.950 . S
H970 C978 0.950 . S
H971 C980 0.950 . S
H972 C982 0.950 . S
H973 C984 0.950 . S
H974 C986 0.950 . S
H975 C987 0.950 . S
C976 H968 0.950 . S
C976 C977 1.386 . S
C976 C978 1.391 . S
C977 C976 1.386 . S
C977 C981 1.393 . S
C978 H970 0.950 . S
C978 C976 1.391 . S
C978 C979 1.400 . S
C979 C978 1.400 . S
C979 C980 1.398 . S
C979 C985 1.491 . S
C980 H971 0.950 . S
C980 C979 1.398 . S
C980 C981 1.391 . S
C981 H969 0.950 . S
C981 C977 1.393 . S
C981 C980 1.391 . S
C982 H972 0.950 . S
C982 C983 1.386 . S
C982 C984 1.391 . S
C983 C982 1.386 . S
C983 C987 1.393 . S
C984 H973 0.950 . S
C984 C982 1.391 . S
C984 C985 1.400 1_556 S
C985 C979 1.491 . S
C985 C984 1.400 1_554 S
C985 C986 1.398 . S
C986 H974 0.950 . S
C986 C985 1.398 . S
C986 C987 1.391 1_554 S
C987 H975 0.950 . S
C987 C983 1.393 . S
C987 C986 1.391 1_556 S
H988 C996 0.950 . S
H989 C1001 0.950 . S
H990 C998 0.950 . S
H991 C1000 0.950 . S
H992 C1002 0.950 . S
H993 C1004 0.950 . S
H994 C1006 0.950 . S
H995 C1007 0.950 . S
C996 H988 0.950 . S
C996 C997 1.386 . S
C996 C998 1.391 . S
C997 C996 1.386 . S
C997 C1001 1.393 . S
C998 H990 0.950 . S
C998 C996 1.391 . S
C998 C999 1.400 . S
C999 C998 1.400 . S
C999 C1000 1.398 . S
C999 C1005 1.491 . S
C1000 H991 0.950 . S
C1000 C999 1.398 . S
C1000 C1001 1.391 . S
C1001 H989 0.950 . S
C1001 C997 1.393 . S
C1001 C1000 1.391 . S
C1002 H992 0.950 . S
C1002 C1003 1.386 . S
C1002 C1004 1.391 . S
C1003 C1002 1.386 . S
C1003 C1007 1.393 . S
C1004 H993 0.950 . S
C1004 C1002 1.391 . S
C1004 C1005 1.400 . S
C1005 C999 1.491 . S
C1005 C1004 1.400 . S
C1005 C1006 1.398 . S
C1006 H994 0.950 . S
C1006 C1005 1.398 . S
C1006 C1007 1.391 . S
C1007 H995 0.950 . S
C1007 C1003 1.393 . S
C1007 C1006 1.391 . S
C543 C521 1.324 . S
C537 C51 1.293 . S
C557 C125 1.390 . S
C563 C455 1.360 . S
C577 C217 2.422 . S
C583 C469 2.417 . S
C597 C291 1.425 . S
C603 C483 1.402 . S
C623 C497 0.898 . S
C617 C347 0.891 . S
C637 C421 0.771 . S
C643 C507 0.779 . S
C657 C143 2.316 . S
C663 C465 2.325 . S
C677 C199 1.584 . S
C683 C479 1.613 . S
C697 C273 0.466 . S
C703 C493 0.452 . S
C723 C511 1.602 . S
C717 C365 1.612 . S
C743 C525 1.787 . S
C737 C439 1.836 . S
C763 C451 2.415 . S
C757 C69 2.379 . S
C777 C63 1.389 . S
C783 C466 1.450 . S
C797 C137 1.656 . S
C803 C480 1.676 . S
C823 C494 1.409 . S
C817 C187 1.342 . S
C837 C261 1.433 . S
C843 C513 1.446 . S
C863 C527 1.385 . S
C857 C359 1.388 . S
C883 C452 1.026 . S
C877 C433 1.015 . S
C903 C522 1.615 . S
C897 C113 1.635 . S
C917 C211 1.189 . S
C923 C457 1.229 . S
C943 C471 1.449 . S
C937 C285 1.376 . S
C957 C335 1.331 . S
C963 C485 1.326 . S
C977 C409 1.302 . S
C983 C499 1.303 . S
C997 C39 1.651 . S
C1003 C508 1.636 . S
