# Generated by pormake.
# Topology anh, (6,3)-cn, num edge types: 1
# Building blocks:
#     Node 0, Type 0, BuildingBlock: BETGAK_clean_sbu_0, # of connection points: 6
#     Node 1, Type 0, BuildingBlock: BETGAK_clean_sbu_0, # of connection points: 6
#     Node 2, Type 0, BuildingBlock: BETGAK_clean_sbu_0, # of connection points: 6
#     Node 3, Type 1, BuildingBlock: QEWDON_clean_linker_0, # of connection points: 3
#     Node 4, Type 1, BuildingBlock: QEWDON_clean_linker_0, # of connection points: 3
#     Node 5, Type 1, BuildingBlock: QEWDON_clean_linker_0, # of connection points: 3
#     Node 6, Type 1, BuildingBlock: QEWDON_clean_linker_0, # of connection points: 3
#     Node 7, Type 1, BuildingBlock: QEWDON_clean_linker_0, # of connection points: 3
#     Node 8, Type 1, BuildingBlock: QEWDON_clean_linker_0, # of connection points: 3
#     Edge 9, Type (0, 1), BuildingBlock: ZUJKAS_clean_linker_0, # of connection points: 2
#     Edge 10, Type (0, 1), BuildingBlock: ZUJKAS_clean_linker_0, # of connection points: 2
#     Edge 11, Type (0, 1), BuildingBlock: ZUJKAS_clean_linker_0, # of connection points: 2
#     Edge 12, Type (0, 1), BuildingBlock: ZUJKAS_clean_linker_0, # of connection points: 2
#     Edge 13, Type (0, 1), BuildingBlock: ZUJKAS_clean_linker_0, # of connection points: 2
#     Edge 14, Type (0, 1), BuildingBlock: ZUJKAS_clean_linker_0, # of connection points: 2
#     Edge 15, Type (0, 1), BuildingBlock: ZUJKAS_clean_linker_0, # of connection points: 2
#     Edge 16, Type (0, 1), BuildingBlock: ZUJKAS_clean_linker_0, # of connection points: 2
#     Edge 17, Type (0, 1), BuildingBlock: ZUJKAS_clean_linker_0, # of connection points: 2
#     Edge 18, Type (0, 1), BuildingBlock: ZUJKAS_clean_linker_0, # of connection points: 2
#     Edge 19, Type (0, 1), BuildingBlock: ZUJKAS_clean_linker_0, # of connection points: 2
#     Edge 20, Type (0, 1), BuildingBlock: ZUJKAS_clean_linker_0, # of connection points: 2
#     Edge 21, Type (0, 1), BuildingBlock: ZUJKAS_clean_linker_0, # of connection points: 2
#     Edge 22, Type (0, 1), BuildingBlock: ZUJKAS_clean_linker_0, # of connection points: 2
#     Edge 23, Type (0, 1), BuildingBlock: ZUJKAS_clean_linker_0, # of connection points: 2
#     Edge 24, Type (0, 1), BuildingBlock: ZUJKAS_clean_linker_0, # of connection points: 2
#     Edge 25, Type (0, 1), BuildingBlock: ZUJKAS_clean_linker_0, # of connection points: 2
#     Edge 26, Type (0, 1), BuildingBlock: ZUJKAS_clean_linker_0, # of connection points: 2
# Relax obj value: 0.111
# Max RMSD: 0.156
# Mean RMSD: 0.126
data_MOF--net-anh--node1-BETGAK_clean_sbu_0--node2-QEWDON_clean_linker_0--edge1-ZUJKAS_clean_linker_0
_symmetry_space_group_name_H-M    P1
_symmetry_Int_Tables_number       1
_symmetry_cell_setting            triclinic
loop_
_symmetry_equiv_pos_as_xyz
'x, y, z'
_cell_length_a     40.695367
_cell_length_b     48.404394
_cell_length_c     62.473566
_cell_angle_alpha  96.124335
_cell_angle_beta   91.738272
_cell_angle_gamma 127.77154
loop_
_atom_site_label
_atom_site_type_symbol
_atom_site_fract_x
_atom_site_fract_y
_atom_site_fract_z
_atom_type_partial_charge
La0 La 0.11484 0.52109 0.15396 0.0
La1 La 1.07057 0.54921 0.17147 0.0
C2 C 0.16145 0.51231 0.13418 0.0
C3 C 0.20556 0.53814 0.13083 0.0
C4 C 0.2326 0.56935 0.14583 0.0
C5 C 0.27464 0.59373 0.14306 0.0
C6 C 0.29074 0.58718 0.12539 0.0
C7 C 0.26334 0.55637 0.11 0.0
C8 C 0.22097 0.53205 0.1127 0.0
C9 C 0.10831 0.52241 0.19566 0.0
C10 C 0.16422 0.60515 0.16683 0.0
C11 C 1.02851 0.5606 0.19393 0.0
C12 C 0.98622 0.5387 0.20051 0.0
C13 C 0.96324 0.55139 0.20068 0.0
C14 C 0.92144 0.52971 0.20447 0.0
C15 C 0.90172 0.49479 0.20805 0.0
C16 C 0.92524 0.48247 0.20861 0.0
C17 C 0.96737 0.50444 0.20507 0.0
C18 C 0.07822 0.5498 0.12995 0.0
C19 C 1.02079 0.46529 0.15777 0.0
O20 O 0.1548 0.5075 0.15429 0.0
O21 O 0.13533 0.51554 0.12445 0.0
O22 O 0.10564 0.49757 0.18347 0.0
O23 O 0.11622 0.54572 0.18471 0.0
O24 O 0.16167 0.579 0.15545 0.0
O25 O 0.13323 0.59905 0.17733 0.0
O26 O 1.03008 0.56229 0.17318 0.0
O27 O 1.05503 0.55653 0.20213 0.0
O28 O 1.07744 0.57268 0.14222 0.0
O29 O 1.07055 0.52594 0.14038 0.0
O30 O 1.02346 0.49135 0.16942 0.0
O31 O 1.05181 0.47142 0.14721 0.0
H32 H 0.22146 0.57468 0.15997 0.0
H33 H 0.29473 0.61745 0.155 0.0
H34 H 0.27491 0.55039 0.09634 0.0
H35 H 0.20047 0.5082 0.10089 0.0
H36 H 0.97725 0.57771 0.19715 0.0
H37 H 0.90401 0.5398 0.20354 0.0
H38 H 0.91088 0.45574 0.2114 0.0
H39 H 0.98494 0.49444 0.20537 0.0
La40 La 0.6635 0.06686 0.49242 0.0
La41 La 0.60714 0.08537 0.48141 0.0
C42 C 0.69669 0.04264 0.50898 0.0
C43 C 0.68366 1.00762 0.51209 0.0
C44 C 0.64822 0.97647 0.49972 0.0
C45 C 0.63742 0.94354 0.50225 0.0
C46 C 0.66185 0.94115 0.51722 0.0
C47 C 0.69686 0.97246 0.52985 0.0
C48 C 0.70764 1.00535 0.52728 0.0
C49 C 0.65345 0.07075 0.45133 0.0
C50 C 0.56397 1.00619 0.48188 0.0
C51 C 0.57484 0.11042 0.46521 0.0
C52 C 0.58339 0.14501 0.46842 0.0
C53 C 0.59734 0.1657 0.48906 0.0
C54 C 0.60384 0.19783 0.492 0.0
C55 C 0.59704 0.21024 0.47431 0.0
C56 C 0.58411 0.18977 0.45356 0.0
C57 C 0.57724 0.15745 0.45068 0.0
C58 C 0.6174 0.08214 0.52261 0.0
C59 C 0.70725 0.1464 0.4912 0.0
O60 O 0.69851 0.04849 0.48893 0.0
O61 O 0.67933 0.05408 0.52006 0.0
O62 O 0.68782 0.07951 0.46114 0.0
O63 O 0.62571 0.05801 0.46393 0.0
O64 O 0.59982 0.01689 0.49224 0.0
O65 O 0.5615 0.02826 0.47257 0.0
O66 O 0.56137 0.0926 0.48144 0.0
O67 O 0.60313 0.1096 0.4565 0.0
O68 O 0.58346 0.07418 0.51287 0.0
O69 O 0.64498 0.09441 0.50991 0.0
O70 O 0.6702 0.13616 0.48309 0.0
O71 O 0.71165 0.12409 0.49866 0.0
H72 H 0.6292 0.97765 0.48793 0.0
H73 H 0.60994 0.91994 0.49248 0.0
H74 H 0.71663 0.97166 0.54134 0.0
H75 H 0.73512 0.02912 0.53696 0.0
H76 H 0.60266 0.1568 0.503 0.0
H77 H 0.61323 0.21248 0.50826 0.0
H78 H 0.5793 0.19869 0.43948 0.0
H79 H 0.56689 0.14204 0.43459 0.0
La80 La 0.66215 0.60177 0.84376 0.0
La81 La 0.6015 0.52398 0.84459 0.0
C82 C 0.70019 0.66292 0.83403 0.0
C83 C 0.69165 0.68753 0.83007 0.0
C84 C 0.72268 0.72377 0.83743 0.0
C85 C 0.71598 0.748 0.83373 0.0
C86 C 0.67811 0.73643 0.82248 0.0
C87 C 0.64694 0.70001 0.81512 0.0
C88 C 0.65356 0.6757 0.81898 0.0
C89 C 0.65713 0.58302 0.88211 0.0
C90 C 0.56398 0.56425 0.84695 0.0
C91 C 0.56484 0.46216 0.85281 0.0
C92 C 0.57428 0.43712 0.85172 0.0
C93 C 0.54412 0.40237 0.84102 0.0
C94 C 0.5529 0.37856 0.83869 0.0
C95 C 0.5921 0.38898 0.84707 0.0
C96 C 0.62216 0.42376 0.85804 0.0
C97 C 0.61332 0.4476 0.86037 0.0
C98 C 0.6068 0.54323 0.80634 0.0
C99 C 0.70018 0.56171 0.84297 0.0
O100 O 0.6994 0.65669 0.85394 0.0
O101 O 0.68212 0.63418 0.8197 0.0
O102 O 0.69151 0.6094 0.87601 0.0
O103 O 0.6271 0.56987 0.86757 0.0
O104 O 0.60054 0.59142 0.84165 0.0
O105 O 0.55885 0.5359 0.85177 0.0
O106 O 0.55855 0.46912 0.83415 0.0
O107 O 0.58786 0.49064 0.86752 0.0
O108 O 0.57225 0.51734 0.81254 0.0
O109 O 0.63679 0.55579 0.82077 0.0
O110 O 0.66253 0.53369 0.84644 0.0
O111 O 0.7066 0.59101 0.83921 0.0
H112 H 0.75229 0.73339 0.84599 0.0
H113 H 0.74074 0.7759 0.8394 0.0
H114 H 0.61728 0.69031 0.80661 0.0
H115 H 0.62903 0.64777 0.81327 0.0
H116 H 0.51389 0.39379 0.83414 0.0
H117 H 0.52926 0.3522 0.82984 0.0
H118 H 0.65248 0.43254 0.86489 0.0
H119 H 0.63716 0.47426 0.86876 0.0
H120 H 0.60586 0.07538 0.21127 0.0
C121 C 0.58238 0.04711 0.20624 0.0
C122 C 0.5632 0.02537 0.2222 0.0
C123 C 0.56985 0.03262 0.184 0.0
H124 H 0.51674 0.97214 0.22821 0.0
C125 C 0.53124 0.98897 0.21589 0.0
C126 C 0.51822 0.97383 0.19396 0.0
C127 C 0.53832 0.99563 0.17814 0.0
C128 C 0.58776 0.05597 0.16688 0.0
H129 H 0.52855 0.98369 0.16123 0.0
C130 C 0.6295 0.08777 0.16985 0.0
C131 C 0.64554 0.10937 0.15352 0.0
C132 C 0.56248 0.04678 0.14737 0.0
H133 H 0.52989 0.02355 0.14466 0.0
C134 C 0.57848 0.06784 0.13113 0.0
H135 H 0.64982 0.09558 0.1846 0.0
C136 C 0.61969 0.09882 0.1341 0.0
H137 H 0.63105 0.11509 0.1214 0.0
H138 H 0.55862 0.06035 0.11626 0.0
H139 H 0.58619 0.57022 0.57231 0.0
C140 C 0.59462 0.55456 0.56463 0.0
C141 C 0.61147 0.54267 0.57739 0.0
C142 C 0.58554 0.54413 0.54199 0.0
H143 H 0.63542 0.51326 0.57633 0.0
C144 C 0.62068 0.52132 0.56692 0.0
C145 C 0.60967 0.50895 0.54453 0.0
C146 C 0.59285 0.5211 0.53212 0.0
C147 C 0.56489 0.55465 0.52885 0.0
H148 H 0.58409 0.5117 0.51483 0.0
C149 C 0.57986 0.59007 0.5313 0.0
C150 C 0.56041 0.59976 0.51841 0.0
C151 C 0.52972 0.52896 0.51371 0.0
H152 H 0.51707 0.50146 0.51174 0.0
C153 C 0.51003 0.53832 0.50118 0.0
H154 H 0.60728 0.61014 0.54273 0.0
C155 C 0.52521 0.57339 0.50345 0.0
H156 H 0.50905 0.5798 0.49361 0.0
H157 H 0.48281 0.51826 0.48967 0.0
H158 H 0.15271 0.56834 0.89575 0.0
C159 C 0.12605 0.5658 0.88896 0.0
C160 C 0.09616 0.55986 0.9026 0.0
C161 C 0.12196 0.56895 0.86701 0.0
H162 H 1.0402 0.5547 0.90543 0.0
C163 C 1.06252 0.55844 0.89461 0.0
C164 C 1.05761 0.56255 0.87315 0.0
C165 C 0.08663 0.56652 0.85921 0.0
C166 C 0.15567 0.57683 0.85282 0.0
H167 H 0.0818 0.5684 0.84248 0.0
C168 C 0.18297 0.56809 0.85693 0.0
C169 C 0.21456 0.5766 0.84341 0.0
C170 C 0.16194 0.5948 0.83516 0.0
H171 H 0.14393 0.60373 0.83173 0.0
C172 C 0.1925 0.6027 0.82178 0.0
H173 H 0.17949 0.5542 0.87021 0.0
C174 C 0.21835 0.59362 0.82575 0.0
H175 H 0.24216 0.60066 0.81517 0.0
H176 H 0.19655 0.61646 0.80831 0.0
H177 H 0.08701 0.54714 0.4372 0.0
C178 C 0.11575 0.57379 0.44212 0.0
C179 C 0.14159 0.59238 0.42633 0.0
C180 C 0.1265 0.58969 0.46408 0.0
H181 H 0.19729 0.64249 0.4205 0.0
C182 C 0.17789 0.6275 0.43262 0.0
C183 C 0.18944 0.64386 0.45431 0.0
C184 C 0.16421 0.62457 0.47002 0.0
C185 C 0.09743 0.5709 0.48057 0.0
H186 H 0.17358 0.63722 0.48681 0.0
C187 C 1.07234 0.5337 0.47945 0.0
C188 C 1.04452 0.51652 0.49495 0.0
C189 C 0.09372 0.59035 0.49739 0.0
H190 H 0.11113 0.61865 0.49848 0.0
C191 C 1.06663 0.57351 0.51282 0.0
H192 H 1.07479 0.51811 0.46681 0.0
C193 C 1.04223 0.53696 0.51165 0.0
H194 H 1.02073 0.52457 0.52359 0.0
H195 H 1.06407 0.58885 0.52558 0.0
H196 H 0.6145 0.03507 0.755 0.0
C197 C 0.62158 0.05936 0.76316 0.0
C198 C 0.63177 0.08608 0.75111 0.0
C199 C 0.61769 0.06297 0.78541 0.0
H200 H 0.64634 0.13727 0.75237 0.0
C201 C 0.6391 0.11686 0.76165 0.0
C202 C 0.6354 0.12092 0.78378 0.0
C203 C 0.62532 0.0941 0.79558 0.0
C204 C 0.60283 0.03352 0.79791 0.0
H205 H 0.62296 0.09738 0.81276 0.0
C206 C 0.61774 0.01376 0.79558 0.0
C207 C 0.60454 0.98706 0.80831 0.0
C208 C 0.57353 0.02529 0.81259 0.0
H209 H 0.5606 0.03929 0.81437 0.0
C210 C 0.56021 0.99869 0.82503 0.0
H211 H 0.64046 0.01982 0.78445 0.0
C212 C 0.57576 0.97982 0.82304 0.0
H213 H 0.56482 0.95917 0.83283 0.0
H214 H 0.53772 0.99267 0.83627 0.0
H215 H 0.66333 0.60147 0.1113 0.0
C216 C 0.65913 0.58076 0.11914 0.0
C217 C 0.65111 0.55107 0.1064 0.0
C218 C 0.66244 0.5843 0.14185 0.0
H219 H 0.64209 0.50245 0.10695 0.0
C220 C 0.64627 0.52454 0.11667 0.0
C221 C 0.64961 0.52761 0.13943 0.0
C222 C 0.65707 0.55738 0.15184 0.0
C223 C 0.67236 0.61657 0.155 0.0
H224 H 0.65883 0.55967 0.16936 0.0
C225 C 0.6538 0.63138 0.14823 0.0
C226 C 0.66336 0.66226 0.16014 0.0
C227 C 0.70077 0.6331 0.17409 0.0
H228 H 0.7161 0.62265 0.17958 0.0
C229 C 0.71023 0.66373 0.18609 0.0
H230 H 0.63077 0.61821 0.13396 0.0
C231 C 0.69156 0.67824 0.17923 0.0
H232 H 0.69917 0.70193 0.18877 0.0
H233 H 0.73215 0.67628 0.20075 0.0
H234 H 0.33216 0.6106 0.08952 0.0
H235 H 0.4076 0.64382 0.08773 0.0
H236 H 0.42744 0.6494 0.15678 0.0
H237 H 0.35288 0.61653 0.15871 0.0
H238 H 0.49148 0.71226 0.14122 0.0
H239 H 0.4549 0.59033 0.09341 0.0
H240 H 0.43262 0.60918 0.08248 0.0
H241 H 0.41564 0.58953 0.10664 0.0
C242 C 0.35277 0.61924 0.10431 0.0
C243 C 0.33652 0.6107 0.12422 0.0
C244 C 0.39577 0.63831 0.10328 0.0
C245 C 0.42293 0.64872 0.1221 0.0
C246 C 0.40703 0.64182 0.14209 0.0
H247 H 0.62343 0.68051 0.18477 0.0
H248 H 0.57405 0.6895 0.17165 0.0
C249 C 0.36431 0.62299 0.14315 0.0
C250 C 0.46687 0.66286 0.12116 0.0
H251 H 0.52349 0.63423 0.10902 0.0
C252 C 0.49884 0.69567 0.13373 0.0
C253 C 0.4764 0.64127 0.11121 0.0
C254 C 0.44322 0.60553 0.09775 0.0
C255 C 0.53944 0.70626 0.13794 0.0
C256 C 0.54788 0.68313 0.12964 0.0
C257 C 0.51694 0.6519 0.11545 0.0
C258 C 0.58534 0.68729 0.13805 0.0
C259 C 0.57235 0.74138 0.15196 0.0
C260 C 0.60875 0.6837 0.12364 0.0
C261 C 0.63656 0.67804 0.13111 0.0
C262 C 0.64141 0.6759 0.15311 0.0
C263 C 0.62056 0.68237 0.16778 0.0
C264 C 0.59252 0.68776 0.16028 0.0
H265 H 0.56726 0.761 0.14961 0.0
H266 H 0.57008 0.73792 0.16926 0.0
H267 H 0.6044 0.75214 0.14837 0.0
H268 H 0.60357 0.68307 0.10643 0.0
H269 H 0.65265 0.67348 0.11951 0.0
H270 H 0.70899 0.19963 0.47861 0.0
H271 H 0.76971 0.26104 0.47863 0.0
H272 H 0.85043 0.24066 0.50558 0.0
H273 H 0.78968 0.17872 0.50536 0.0
H274 H 0.82549 0.3117 0.51296 0.0
H275 H 0.90782 0.28815 0.45355 0.0
H276 H 0.85384 0.25434 0.45716 0.0
H277 H 0.89532 0.26469 0.47619 0.0
C278 C 0.7396 0.20803 0.48452 0.0
C279 C 0.74436 0.18406 0.49193 0.0
C280 C 0.77435 0.24326 0.48451 0.0
C281 C 0.81475 0.2554 0.49179 0.0
C282 C 0.81968 0.23173 0.49946 0.0
H283 H 1.02784 0.47835 0.52791 0.0
H284 H 0.9742 0.41465 0.52684 0.0
C285 C 0.78484 0.19637 0.49948 0.0
C286 C 0.85128 0.29311 0.49188 0.0
H287 H 0.94404 0.34731 0.47111 0.0
C288 C 0.85142 0.31946 0.50383 0.0
C289 C 0.88485 0.30326 0.47971 0.0
C290 C 0.88547 0.2762 0.46575 0.0
C291 C 0.88427 0.35557 0.50411 0.0
C292 C 0.91838 0.36575 0.49241 0.0
C293 C 0.9181 0.33946 0.48024 0.0
C294 C 0.95418 0.40365 0.49247 0.0
C295 C 0.88169 0.38255 0.51658 0.0
C296 C 0.96219 0.41843 0.47329 0.0
C297 C 0.99305 0.45495 0.47383 0.0
C298 C 1.01641 0.47727 0.49358 0.0
C299 C 1.00985 0.46199 0.51251 0.0
C300 C 0.97917 0.42558 0.51194 0.0
H301 H 0.84925 0.37064 0.52008 0.0
H302 H 0.90201 0.39358 0.5323 0.0
H303 H 0.89272 0.40474 0.50749 0.0
H304 H 0.9434 0.40195 0.45806 0.0
H305 H 0.99719 0.4659 0.459 0.0
H306 H 0.6958 0.79182 0.85116 0.0
H307 H 0.68651 0.83563 0.84448 0.0
H308 H 0.63723 0.7844 0.77803 0.0
H309 H 0.64593 0.74011 0.78473 0.0
H310 H 0.72119 0.88298 0.81615 0.0
H311 H 0.5478 0.79086 0.79725 0.0
H312 H 0.57653 0.7779 0.8091 0.0
H313 H 0.57451 0.77978 0.78054 0.0
C314 C 0.68297 0.78988 0.83512 0.0
C315 C 0.67144 0.76245 0.81848 0.0
C316 C 0.67764 0.8149 0.83133 0.0
C317 C 0.66071 0.81307 0.81083 0.0
C318 C 0.64946 0.78588 0.79411 0.0
H319 H 0.60547 0.9514 0.77159 0.0
H320 H 0.62333 0.91101 0.76954 0.0
C321 C 0.65447 0.76062 0.79794 0.0
C322 C 0.65546 0.84001 0.80709 0.0
H323 H 0.58213 0.85074 0.7941 0.0
C324 C 0.6908 0.8759 0.81123 0.0
C325 C 0.6158 0.83074 0.80059 0.0
C326 C 0.5764 0.79277 0.79678 0.0
C327 C 0.68744 0.90276 0.80943 0.0
C328 C 0.64771 0.89349 0.80341 0.0
C329 C 0.61259 0.85766 0.79857 0.0
C330 C 0.6412 0.92046 0.80408 0.0
C331 C 0.72626 0.9409 0.81422 0.0
C332 C 0.64571 0.93923 0.82413 0.0
C333 C 0.63528 0.96191 0.82533 0.0
C334 C 0.62031 0.96638 0.8065 0.0
C335 C 0.61728 0.9486 0.78631 0.0
C336 C 0.62727 0.9255 0.78514 0.0
H337 H 0.75523 0.94347 0.81333 0.0
H338 H 0.72571 0.95663 0.80271 0.0
H339 H 0.72748 0.9524 0.83085 0.0
H340 H 0.65592 0.93536 0.83895 0.0
H341 H 0.63802 0.97541 0.84108 0.0
H342 H 0.85638 0.50896 0.23086 0.0
H343 H 0.78198 0.47866 0.22328 0.0
H344 H 0.76814 0.39562 0.17983 0.0
H345 H 0.8436 0.42711 0.18668 0.0
H346 H 0.74571 0.4244 0.15873 0.0
H347 H 0.66602 0.40081 0.23105 0.0
H348 H 0.715 0.44423 0.23773 0.0
H349 H 0.71429 0.40652 0.2313 0.0
C350 C 0.83728 0.48366 0.22024 0.0
C351 C 0.8559 0.47087 0.20896 0.0
C352 C 0.79437 0.46587 0.21617 0.0
C353 C 0.76904 0.43461 0.20098 0.0
C354 C 0.78691 0.41961 0.19164 0.0
H355 H 0.60049 0.45513 0.12761 0.0
H356 H 0.61011 0.41508 0.14221 0.0
C357 C 0.83009 0.43763 0.1956 0.0
C358 C 0.72843 0.42398 0.19106 0.0
H359 H 0.65416 0.43214 0.2051 0.0
C360 C 0.72428 0.42428 0.16869 0.0
C361 C 0.69963 0.42295 0.20378 0.0
C362 C 0.69885 0.41819 0.22725 0.0
C363 C 0.69724 0.42982 0.15957 0.0
C364 C 0.6737 0.43491 0.17321 0.0
C365 C 0.67297 0.42902 0.19476 0.0
C366 C 0.66013 0.45551 0.16715 0.0
C367 C 0.69819 0.43477 0.13607 0.0
C368 C 0.68392 0.49103 0.17688 0.0
C369 C 0.67894 0.51393 0.1685 0.0
C370 C 0.64976 0.50175 0.15024 0.0
C371 C 0.62379 0.46548 0.14143 0.0
C372 C 0.62897 0.4425 0.14984 0.0
H373 H 0.71878 0.43039 0.12781 0.0
H374 H 0.66609 0.41588 0.12727 0.0
H375 H 0.7095 0.46199 0.13487 0.0
H376 H 0.70846 0.50167 0.19012 0.0
H377 H 0.69991 0.54166 0.17555 0.0
H378 H 0.55443 0.95447 0.50211 0.0
H379 H 0.49196 0.89252 0.49927 0.0
H380 H 0.42591 0.91076 0.45517 0.0
H381 H 0.488 0.97263 0.45787 0.0
H382 H 0.40618 0.86558 0.50803 0.0
H383 H 0.41495 0.82399 0.42337 0.0
H384 H 0.45947 0.86336 0.44037 0.0
H385 H 0.41923 0.86346 0.42787 0.0
C386 C 0.52668 0.94532 0.49174 0.0
C387 C 0.52635 0.96855 0.48012 0.0
C388 C 0.49098 0.90992 0.49021 0.0
C389 C 0.45447 0.89701 0.47688 0.0
C390 C 0.45394 0.92012 0.46537 0.0
H391 H 0.21029 0.69925 0.4346 0.0
H392 H 0.27462 0.76037 0.44188 0.0
C393 C 0.48947 0.95553 0.46698 0.0
C394 C 0.41675 0.85941 0.47493 0.0
H395 H 0.35311 0.78307 0.43859 0.0
C396 C 0.39463 0.84737 0.49292 0.0
C397 C 0.40188 0.83582 0.45521 0.0
C398 C 0.42519 0.84708 0.43561 0.0
C399 C 0.35709 0.81262 0.49146 0.0
C400 C 0.34187 0.7891 0.4716 0.0
C401 C 0.36463 0.80107 0.45378 0.0
C402 C 0.30171 0.75237 0.46853 0.0
C403 C 0.33334 0.80187 0.51094 0.0
C404 C 0.29516 0.72744 0.48122 0.0
C405 C 0.25809 0.69238 0.47715 0.0
C406 C 0.22728 0.68155 0.46009 0.0
C407 C 0.23367 0.70671 0.44769 0.0
C408 C 0.27041 0.74167 0.45186 0.0
H409 H 0.34315 0.82525 0.52275 0.0
H410 H 0.29908 0.78527 0.50602 0.0
H411 H 0.33961 0.78617 0.51931 0.0
H412 H 0.31916 0.7348 0.49386 0.0
H413 H 0.25416 0.67346 0.48682 0.0
H414 H 0.54035 0.31823 0.84973 0.0
H415 H 0.55417 0.27593 0.84164 0.0
H416 H 0.67909 0.36 0.82917 0.0
H417 H 0.66537 0.40253 0.83687 0.0
H418 H 0.57668 0.26305 0.80124 0.0
H419 H 0.69634 0.30665 0.87025 0.0
H420 H 0.66212 0.31863 0.8709 0.0
H421 H 0.70617 0.34075 0.85576 0.0
C422 C 0.5708 0.32779 0.84528 0.0
C423 C 0.60167 0.36378 0.84385 0.0
C424 C 0.57871 0.3036 0.8408 0.0
C425 C 0.61774 0.3149 0.835 0.0
C426 C 0.649 0.35087 0.834 0.0
H427 H 0.69281 0.19083 0.77933 0.0
H428 H 0.6916 0.23972 0.79275 0.0
C429 C 0.64109 0.37512 0.83842 0.0
C430 C 0.6245 0.28852 0.82859 0.0
H431 H 0.6814 0.26146 0.84267 0.0
C432 C 0.59955 0.2627 0.81031 0.0
C433 C 0.65449 0.28827 0.84043 0.0
C434 C 0.68119 0.31485 0.86054 0.0
C435 C 0.60376 0.23656 0.80354 0.0
C436 C 0.63341 0.2361 0.81546 0.0
C437 C 0.65876 0.26208 0.8336 0.0
C438 C 0.63718 0.20788 0.80946 0.0
C439 C 0.57652 0.20947 0.78367 0.0
C440 C 0.60743 0.17415 0.81482 0.0
C441 C 0.60793 0.14625 0.80717 0.0
C442 C 0.63818 0.15159 0.79397 0.0
C443 C 0.66891 0.18583 0.7893 0.0
C444 C 0.66844 0.21379 0.79704 0.0
H445 H 0.55835 0.21579 0.77484 0.0
H446 H 0.59607 0.20774 0.77246 0.0
H447 H 0.5542 0.18304 0.78857 0.0
H448 H 0.58299 0.16918 0.82434 0.0
H449 H 0.58351 0.12015 0.81083 0.0
H450 H 0.63714 0.88734 0.48454 0.0
H451 H 0.62268 0.83095 0.48761 0.0
H452 H 0.65086 0.86019 0.55714 0.0
H453 H 0.66438 0.91634 0.55428 0.0
H454 H 0.67917 0.82159 0.50628 0.0
H455 H 0.53648 0.76044 0.5484 0.0
H456 H 0.55627 0.79792 0.53465 0.0
H457 H 0.58135 0.80402 0.5608 0.0
C458 C 0.6396 0.88157 0.50053 0.0
C459 C 0.65175 0.90634 0.51918 0.0
C460 C 0.63164 0.84944 0.50223 0.0
C461 C 0.6353 0.84122 0.52261 0.0
C462 C 0.64726 0.86576 0.54128 0.0
H463 H 0.58688 0.64803 0.55535 0.0
H464 H 0.60932 0.70845 0.55785 0.0
C465 C 0.65536 0.89799 0.53959 0.0
C466 C 0.62778 0.80739 0.52413 0.0
H467 H 0.56246 0.7284 0.54251 0.0
C468 C 0.65371 0.80123 0.51424 0.0
C469 C 0.59479 0.78102 0.5347 0.0
C470 C 0.56534 0.78589 0.54512 0.0
C471 C 0.64735 0.76929 0.51447 0.0
C472 C 0.61362 0.74248 0.52448 0.0
C473 C 0.58832 0.74898 0.53486 0.0
C474 C 0.60242 0.70674 0.52314 0.0
C475 C 0.67696 0.76461 0.50405 0.0
C476 C 0.59109 0.68577 0.50285 0.0
C477 C 0.57849 0.65147 0.50138 0.0
C478 C 0.57656 0.63717 0.5202 0.0
C479 C 0.58843 0.65837 0.54056 0.0
C480 C 0.601 0.69279 0.54201 0.0
H481 H 0.70768 0.79053 0.50327 0.0
H482 H 0.6823 0.74883 0.51304 0.0
H483 H 0.66322 0.75045 0.4872 0.0
H484 H 0.59121 0.69569 0.48809 0.0
H485 H 0.56997 0.63601 0.48545 0.0
H486 H 0.6994 0.50524 0.8478 0.0
H487 H 0.75836 0.5036 0.84967 0.0
H488 H 0.84207 0.61331 0.84164 0.0
H489 H 0.78322 0.615 0.83946 0.0
H490 H 0.82721 0.53844 0.87809 0.0
H491 H 0.87815 0.57294 0.7976 0.0
H492 H 0.8766 0.60534 0.81325 0.0
H493 H 0.82885 0.56105 0.80484 0.0
C494 C 0.73025 0.52903 0.84629 0.0
C495 C 0.73612 0.56023 0.84341 0.0
C496 C 0.76416 0.52805 0.84736 0.0
C497 C 0.80505 0.55815 0.84545 0.0
C498 C 0.81097 0.58935 0.8426 0.0
H499 H 0.99958 0.52803 0.83602 0.0
H500 H 0.93808 0.52575 0.82818 0.0
C501 C 0.77709 0.59034 0.8415 0.0
C502 C 0.84156 0.55735 0.84745 0.0
H503 H 0.92612 0.57608 0.82292 0.0
C504 C 0.84858 0.54649 0.8659 0.0
C505 C 0.86952 0.56722 0.83149 0.0
C506 C 0.86273 0.57694 0.81058 0.0
C507 C 0.88295 0.5463 0.86916 0.0
C508 C 0.91211 0.55789 0.85376 0.0
C509 C 0.90439 0.56762 0.83493 0.0
C510 C 0.95117 0.561 0.85739 0.0
C511 C 0.88741 0.53326 0.8891 0.0
C512 C 0.98022 0.58257 0.87592 0.0
C513 C 1.01525 0.58394 0.88035 0.0
C514 C 1.02278 0.56396 0.86637 0.0
C515 C 0.99495 0.54377 0.84717 0.0
C516 C 0.95959 0.54234 0.84274 0.0
H517 H 0.85695 0.51563 0.89554 0.0
H518 H 0.90005 0.51864 0.88561 0.0
H519 H 0.90935 0.55626 0.90197 0.0
H520 H 0.97556 0.59815 0.88721 0.0
H521 H 1.03632 0.60043 0.89505 0.0
H522 H 0.23079 0.6299 0.14345 0.0
H523 H 0.29298 0.6914 0.14437 0.0
H524 H 0.24662 0.72577 0.19279 0.0
H525 H 0.18439 0.66458 0.19191 0.0
H526 H 0.27353 0.76467 0.15866 0.0
H527 H 0.39366 0.75433 0.19144 0.0
H528 H 0.3602 0.72342 0.16752 0.0
H529 H 0.33839 0.72072 0.1925 0.0
C530 C 0.23404 0.65048 0.15449 0.0
C531 C 0.20266 0.64221 0.16773 0.0
C532 C 0.26969 0.68565 0.15502 0.0
C533 C 0.27472 0.71317 0.16885 0.0
C534 C 0.24345 0.70496 0.18203 0.0
H535 H 0.44411 0.93611 0.21097 0.0
H536 H 0.38614 0.87285 0.20238 0.0
C537 C 0.20787 0.6699 0.18152 0.0
C538 C 0.31177 0.75073 0.16927 0.0
H539 H 0.41785 0.80994 0.18315 0.0
C540 C 0.30511 0.77452 0.16391 0.0
C541 C 0.35303 0.76351 0.17592 0.0
C542 C 0.36196 0.73931 0.18235 0.0
C543 C 0.33838 0.81081 0.16543 0.0
C544 C 0.37939 0.8238 0.17287 0.0
C545 C 0.38637 0.79989 0.17748 0.0
C546 C 0.41472 0.86235 0.17756 0.0
C547 C 0.3293 0.83497 0.15918 0.0
C548 C 0.45049 0.87745 0.16672 0.0
C549 C 0.48398 0.91377 0.17171 0.0
C550 C 0.48244 0.93546 0.18785 0.0
C551 C 0.44649 0.92012 0.19862 0.0
C552 C 0.41312 0.884 0.19357 0.0
H553 H 0.29983 0.82021 0.14792 0.0
H554 H 0.32559 0.84724 0.17397 0.0
H555 H 0.35533 0.85649 0.15136 0.0
H556 H 0.45246 0.86113 0.15442 0.0
H557 H 0.51138 0.92475 0.16328 0.0
H558 H 0.54946 0.22472 0.45403 0.0
H559 H 0.55553 0.27833 0.46082 0.0
H560 H 0.65972 0.32427 0.51011 0.0
H561 H 0.65564 0.27172 0.50247 0.0
H562 H 0.54395 0.30346 0.49633 0.0
H563 H 0.70486 0.40673 0.47902 0.0
H564 H 0.67894 0.36012 0.47128 0.0
H565 H 0.70445 0.38189 0.49849 0.0
C566 C 0.57447 0.24656 0.46589 0.0
C567 C 0.6021 0.24373 0.47766 0.0
C568 C 0.57767 0.27716 0.46989 0.0
C569 C 0.60846 0.30566 0.48577 0.0
C570 C 0.63634 0.3031 0.4974 0.0
H571 H 0.59103 0.45238 0.56229 0.0
H572 H 0.59185 0.40478 0.54636 0.0
C573 C 0.63346 0.27266 0.49326 0.0
C574 C 0.60913 0.33668 0.49142 0.0
H575 H 0.67348 0.42716 0.50077 0.0
C576 C 0.57219 0.33047 0.49701 0.0
C577 C 0.64571 0.37202 0.49199 0.0
C578 C 0.68557 0.38059 0.48464 0.0
C579 C 0.57124 0.35848 0.50397 0.0
C580 C 0.60855 0.39376 0.50603 0.0
C581 C 0.64506 0.4001 0.49953 0.0
C582 C 0.61054 0.42415 0.51588 0.0
C583 C 0.53017 0.3499 0.50909 0.0
C584 C 0.62255 0.45185 0.5044 0.0
C585 C 0.62303 0.4798 0.51371 0.0
C586 C 0.61175 0.48063 0.53472 0.0
C587 C 0.60059 0.45309 0.54624 0.0
C588 C 0.60037 0.42544 0.53701 0.0
H589 H 0.5031 0.32369 0.50015 0.0
H590 H 0.52803 0.34883 0.52669 0.0
H591 H 0.52757 0.37029 0.50497 0.0
H592 H 0.63092 0.45156 0.48813 0.0
H593 H 0.6322 0.50071 0.50446 0.0
H594 H 0.56313 0.62018 0.84277 0.0
H595 H 0.5043 0.62194 0.84472 0.0
H596 H 0.42388 0.51285 0.85431 0.0
H597 H 0.48263 0.51128 0.85308 0.0
H598 H 0.43272 0.58922 0.82089 0.0
H599 H 0.39441 0.55193 0.90218 0.0
H600 H 0.44143 0.56292 0.89197 0.0
H601 H 0.39236 0.51907 0.88452 0.0
C602 C 0.53303 0.59661 0.84548 0.0
C603 C 0.5281 0.56568 0.84797 0.0
C604 C 0.49918 0.59762 0.84657 0.0
C605 C 0.45931 0.56778 0.85019 0.0
C606 C 0.45426 0.53672 0.85225 0.0
H607 H 0.27126 0.59928 0.87937 0.0
H608 H 0.33032 0.59729 0.88168 0.0
C609 C 0.48808 0.53577 0.85134 0.0
C610 C 0.42283 0.5687 0.85095 0.0
H611 H 0.3427 0.54889 0.88024 0.0
C612 C 0.41329 0.58055 0.83398 0.0
C613 C 0.39739 0.55809 0.86814 0.0
C614 C 0.40716 0.54766 0.88784 0.0
C615 C 0.37905 0.58126 0.83341 0.0
C616 C 0.35222 0.56879 0.84998 0.0
C617 C 0.36241 0.55787 0.86728 0.0
C618 C 0.31385 0.56714 0.84959 0.0
C619 C 0.37272 0.59627 0.81519 0.0
C620 C 0.28334 0.54951 0.83132 0.0
C621 C 0.24974 0.55077 0.82999 0.0
C622 C 0.24486 0.569 0.84709 0.0
C623 C 0.2737 0.58466 0.866 0.0
C624 C 0.30775 0.58374 0.86724 0.0
H625 H 0.40239 0.61472 0.80827 0.0
H626 H 0.34986 0.57434 0.80197 0.0
H627 H 0.36054 0.61065 0.82075 0.0
H628 H 0.28601 0.53539 0.81773 0.0
H629 H 0.22816 0.53837 0.81518 0.0
H630 H 0.99794 0.405 0.13199 0.0
H631 H 0.93531 0.34399 0.1321 0.0
H632 H 0.89555 0.38061 0.18328 0.0
H633 H 0.95692 0.44133 0.18273 0.0
H634 H 0.90948 0.30328 0.16329 0.0
H635 H 0.79066 0.32048 0.14164 0.0
H636 H 0.84553 0.35378 0.13961 0.0
H637 H 0.82565 0.35046 0.16537 0.0
C638 C 0.97564 0.4001 0.14311 0.0
C639 C 0.98239 0.42825 0.15722 0.0
C640 C 0.93988 0.36517 0.1432 0.0
C641 C 0.9102 0.35765 0.15742 0.0
C642 C 0.91723 0.38568 0.1717 0.0
H643 H 0.68208 0.16326 0.18785 0.0
H644 H 0.74869 0.22327 0.19026 0.0
C645 C 0.95263 0.42054 0.17145 0.0
C646 C 0.87251 0.32051 0.15778 0.0
H647 H 0.76562 0.26666 0.15427 0.0
C648 C 0.87804 0.29527 0.16118 0.0
C649 C 0.83136 0.30994 0.15503 0.0
C650 C 0.82286 0.335 0.14999 0.0
C651 C 0.84366 0.26 0.1622 0.0
C652 C 0.80276 0.24971 0.15976 0.0
C653 C 0.79714 0.27482 0.15639 0.0
C654 C 0.76509 0.21258 0.15957 0.0
C655 C 0.85116 0.23395 0.16607 0.0
C656 C 0.75267 0.1867 0.14168 0.0
C657 C 0.71467 0.15262 0.14021 0.0
C658 C 0.68848 0.14373 0.15668 0.0
C659 C 0.70184 0.16927 0.17505 0.0
C660 C 0.7397 0.20355 0.17638 0.0
H661 H 0.88468 0.24729 0.17134 0.0
H662 H 0.8321 0.21814 0.17856 0.0
H663 H 0.84136 0.21533 0.15082 0.0
H664 H 0.77165 0.19324 0.12846 0.0
H665 H 0.70517 0.13343 0.1259 0.0
H666 H 0.14661 0.56782 0.11081 0.0
H667 H 0.15484 0.56877 0.07206 0.0
H668 H 1.03052 0.53689 0.05848 0.0
H669 H 1.02173 0.53471 0.09722 0.0
H670 H 0.09235 0.50673 0.03419 0.0
H671 H 0.11971 0.63427 0.0334 0.0
H672 H 0.12993 0.62239 0.05779 0.0
H673 H 1.07707 0.60198 0.04714 0.0
C674 C 0.12065 0.55997 0.09945 0.0
C675 C 0.08301 0.54998 0.10673 0.0
C676 C 0.12556 0.56096 0.07741 0.0
C677 C 0.09322 0.55276 0.06246 0.0
C678 C 1.05578 0.54324 0.0698 0.0
H679 H 1.03647 0.50858 0.92423 0.0
H680 H 1.04008 0.50667 0.96317 0.0
C681 C 1.05075 0.54195 0.09182 0.0
C682 C 0.09871 0.55456 0.03921 0.0
H683 H 0.11201 0.60274 -0.0005 0.0
C684 C 0.09689 0.52779 0.02658 0.0
C685 C 0.10511 0.5823 0.02948 0.0
C686 C 0.10838 0.6121 0.04258 0.0
C687 C 0.1 0.52747 0.00422 0.0
C688 C 0.10497 0.55458 0.99433 0.0
C689 C 0.10814 0.58196 0.00713 0.0
C690 C 0.10452 0.55402 0.97054 0.0
C691 C 0.09778 0.4981 0.9913 0.0
C692 C 0.13963 0.58121 0.96177 0.0
C693 C 0.13768 0.58228 0.93947 0.0
C694 C 0.10034 0.55647 0.92569 0.0
C695 C 1.0656 0.52884 0.93449 0.0
C696 C 1.06769 0.52761 0.95669 0.0
H697 H 0.10421 0.4845 0.0019 0.0
H698 H 1.06587 0.47822 0.98242 0.0
H699 H 0.12046 0.50846 0.97917 0.0
H700 H 0.16824 0.60197 0.97224 0.0
H701 H 0.16475 0.60406 0.93315 0.0
H702 H 0.58055 0.04728 0.42833 0.0
H703 H 0.56811 0.04637 0.38957 0.0
H704 H 0.69764 0.09496 0.38336 0.0
H705 H 0.71045 0.09641 0.42226 0.0
H706 H 0.66465 0.12335 0.36054 0.0
H707 H 0.5634 0.97659 0.34288 0.0
H708 H 0.54792 0.99368 0.36366 0.0
H709 H 0.59709 1.00161 0.36811 0.0
C710 C 0.60643 0.05797 0.41872 0.0
C711 C 0.64639 0.07166 0.42821 0.0
C712 C 0.59925 0.05733 0.3966 0.0
C713 C 0.63183 0.07014 0.38357 0.0
C714 C 0.67208 0.08484 0.39314 0.0
H715 H 0.64229 0.0685 0.24418 0.0
H716 H 0.66122 0.0838 0.28369 0.0
C717 C 0.67929 0.08552 0.4153 0.0
C718 C 0.62345 0.06691 0.35983 0.0
H719 H 0.56692 1.00599 0.31413 0.0
C720 C 0.64339 0.09774 0.35032 0.0
C721 C 0.59588 0.03344 0.34659 0.0
C722 C 0.57508 0.9994 0.35574 0.0
C723 C 0.63557 0.09594 0.32793 0.0
C724 C 0.60762 0.06243 0.31475 0.0
C725 C 0.5881 0.03167 0.32428 0.0
C726 C 0.59772 0.05813 0.29101 0.0
C727 C 0.65647 0.12983 0.31864 0.0
C728 C 0.55592 0.03902 0.28203 0.0
C729 C 0.5451 0.03007 0.25959 0.0
C730 C 0.57588 0.04002 0.24566 0.0
C731 C 0.61804 0.06079 0.25457 0.0
C732 C 0.62886 0.06959 0.27712 0.0
H733 H 0.66832 0.15276 0.33143 0.0
H734 H 0.68352 0.13529 0.31071 0.0
H735 H 0.63449 0.12757 0.30623 0.0
H736 H 0.53141 0.02995 0.29244 0.0
H737 H 0.5124 0.01433 0.25312 0.0
H738 H 0.54926 0.53837 0.7796 0.0
H739 H 0.55296 0.54781 0.74174 0.0
H740 H 0.67605 0.57517 0.74528 0.0
H741 H 0.67355 0.56833 0.78366 0.0
H742 H 0.67327 0.6131 0.72008 0.0
H743 H 0.53053 0.47433 0.6954 0.0
H744 H 0.5205 0.49965 0.71281 0.0
H745 H 0.55547 0.49162 0.72294 0.0
C746 C 0.57725 0.54682 0.77229 0.0
C747 C 0.61084 0.55209 0.78429 0.0
C748 C 0.57924 0.55194 0.75064 0.0
C749 C 0.61411 0.56089 0.74036 0.0
C750 C 0.64862 0.56792 0.75274 0.0
H751 H 0.60037 0.49849 0.6055 0.0
H752 H 0.60538 0.50761 0.64456 0.0
C753 C 0.64716 0.56391 0.77462 0.0
C754 C 0.61378 0.56099 0.71653 0.0
H755 H 0.55732 0.5099 0.6679 0.0
C756 C 0.64798 0.5905 0.70864 0.0
C757 C 0.58105 0.53129 0.70155 0.0
C758 C 0.54508 0.49733 0.70858 0.0
C759 C 0.65069 0.5909 0.68626 0.0
C760 C 0.61741 0.56154 0.67132 0.0
C761 C 0.5828 0.5325 0.67928 0.0
C762 C 0.61869 0.55864 0.64744 0.0
C763 C 0.68993 0.62212 0.67896 0.0
C764 C 0.62525 0.58458 0.63577 0.0
C765 C 0.62424 0.58014 0.61313 0.0
C766 C 0.61555 0.54921 0.60164 0.0
C767 C 0.60863 0.52327 0.61352 0.0
C768 C 0.61077 0.52816 0.63603 0.0
H769 H 0.71662 0.63711 0.69211 0.0
H770 H 0.69909 0.61356 0.66472 0.0
H771 H 0.6842 0.64046 0.6743 0.0
H772 H 0.63037 0.60795 0.64405 0.0
H773 H 0.62996 0.60085 0.60469 0.0
H774 H 0.55753 0.04998 0.54947 0.0
H775 H 0.56684 0.04788 0.58798 0.0
H776 H 0.69964 0.10644 0.58602 0.0
H777 H 0.69055 0.10916 0.54744 0.0
H778 H 0.60194 0.02109 0.60995 0.0
H779 H 0.69082 0.16624 0.63427 0.0
H780 H 0.66147 0.14333 0.60781 0.0
H781 H 0.71111 0.15284 0.61412 0.0
C782 C 0.5887 0.06235 0.55725 0.0
C783 C 0.62336 0.07986 0.54556 0.0
C784 C 0.59394 0.06096 0.57919 0.0
C785 C 0.63394 0.07723 0.58987 0.0
C786 C 0.66856 0.09405 0.57811 0.0
H787 H 0.66756 0.0615 0.72763 0.0
H788 H 0.67111 0.05749 0.68828 0.0
C789 C 0.66332 0.09543 0.5561 0.0
C790 C 0.63913 0.07779 0.61354 0.0
H791 H 0.67665 0.13277 0.66214 0.0
C792 C 0.61873 0.0455 0.62141 0.0
C793 C 0.66078 0.10971 0.62838 0.0
C794 C 0.6821 0.14505 0.62084 0.0
C795 C 0.61847 0.04422 0.64378 0.0
C796 C 0.63939 0.07609 0.65857 0.0
C797 C 0.66084 0.10842 0.65071 0.0
C798 C 0.63595 0.07643 0.68212 0.0
C799 C 0.59428 1.00879 0.65145 0.0
C800 C 0.61494 0.08823 0.69157 0.0
C801 C 0.61287 0.0905 0.71384 0.0
C802 C 0.63209 0.08129 0.72724 0.0
C803 C 0.65234 0.06864 0.7177 0.0
C804 C 0.6544 0.06636 0.69527 0.0
H805 H 0.57504 0.98639 0.63783 0.0
H806 H 0.6165 1.00616 0.65976 0.0
H807 H 0.57338 1.00677 0.6633 0.0
H808 H 0.60026 0.09589 0.68167 0.0
H809 H 0.59628 0.09963 0.72061 0.0
H810 H 0.58499 0.53672 0.89926 0.0
H811 H 0.57822 0.52298 0.93631 0.0
H812 H 0.71273 0.59327 0.95103 0.0
H813 H 0.71973 0.607 0.914 0.0
H814 H 0.66662 0.5236 0.96639 0.0
H815 H 0.60798 0.59954 0.98912 0.0
H816 H 0.58178 0.56675 0.96505 0.0
H817 H 0.63511 0.60539 0.96561 0.0
C818 C 0.61308 0.54896 0.91036 0.0
C819 C 0.6529 0.57309 0.9039 0.0
C820 C 0.60916 0.54115 0.93147 0.0
C821 C 0.64498 0.55735 0.94636 0.0
C822 C 0.68476 0.58055 0.93972 0.0
H823 H 0.70274 0.60393 0.08316 0.0
H824 H 0.69777 0.60125 0.04385 0.0
C825 C 0.6887 0.58847 0.91865 0.0
C826 C 0.64124 0.55173 0.96922 0.0
H827 H 0.61617 0.57348 0.01632 0.0
C828 C 0.65516 0.53411 0.9773 0.0
C829 C 0.62653 0.56576 0.98333 0.0
C830 C 0.61219 0.58564 0.97549 0.0
C831 C 0.65528 0.53059 -0.00068 0.0
C832 C 0.64126 0.54516 0.01345 0.0
C833 C 0.62666 0.56221 0.0053 0.0
C834 C 0.64466 0.54562 0.03708 0.0
C835 C 0.67169 0.51249 0.00759 0.0
C836 C 0.61643 0.51509 0.04618 0.0
C837 C 0.61883 0.51659 0.06872 0.0
C838 C 0.64948 0.54869 0.08244 0.0
C839 C 0.67821 0.57897 0.07311 0.0
C840 C 0.67564 0.57747 0.05066 0.0
H841 H 0.68412 0.50469 0.99477 0.0
H842 H 0.69695 0.53029 0.02127 0.0
H843 H 0.64612 0.48839 0.01386 0.0
H844 H 0.59213 0.49034 0.03586 0.0
H845 H 0.59608 0.49289 0.07542 0.0
H846 H 0.13604 0.58039 0.22486 0.0
H847 H 0.13284 0.58382 0.264 0.0
H848 H 1.06689 0.47123 0.2581 0.0
H849 H 1.07179 0.46808 0.21901 0.0
H850 H 1.07085 0.55562 0.28799 0.0
H851 H 0.16011 0.50632 0.30401 0.0
H852 H 0.15544 0.51737 0.27804 0.0
H853 H 0.11327 0.47563 0.28544 0.0
C854 C 0.12095 0.55641 0.23196 0.0
C855 C 0.1046 0.52405 0.21906 0.0
C856 C 0.11903 0.55835 0.2543 0.0
C857 C 0.10037 0.5279 0.26412 0.0
C858 C 0.08258 0.49526 0.25105 0.0
H859 H 1.06397 0.54907 0.40195 0.0
H860 H 1.04828 0.5273 0.36292 0.0
C861 C 0.08517 0.49343 0.22872 0.0
C862 C 0.10022 0.53079 0.28805 0.0
H863 H 0.13342 0.51734 0.33382 0.0
C864 C 0.0844 0.54714 0.29803 0.0
C865 C 0.1182 0.51994 0.30115 0.0
C866 C 0.13808 0.50415 0.29167 0.0
C867 C 0.08718 0.55395 0.3207 0.0
C868 C 0.10491 0.54289 0.3338 0.0
C869 C 0.11951 0.52553 0.32378 0.0
C870 C 0.11276 0.55237 0.35783 0.0
C871 C 1.07306 0.57454 0.33034 0.0
C872 C 0.15374 0.57183 0.3682 0.0
C873 C 0.16258 0.58335 0.39052 0.0
C874 C 0.13073 0.57612 0.40305 0.0
C875 C 0.08929 0.55517 0.39283 0.0
C876 C 0.08035 0.54316 0.37043 0.0
H877 H 1.07002 0.58841 0.3183 0.0
H878 H 1.04193 0.55604 0.33589 0.0
H879 H 0.09536 0.59449 0.34448 0.0
H880 H 0.17926 0.57898 0.35891 0.0
H881 H 0.19466 0.59859 0.39791 0.0
loop_
_geom_bond_atom_site_label_1
_geom_bond_atom_site_label_2
_geom_bond_distance
_geom_bond_site_symmetry_2
_ccdc_geom_bond_type
La0 C2 2.928 . S
La0 O20 2.521 . S
La0 O21 2.628 . S
La0 O22 2.554 . S
La0 O23 2.757 . S
La0 O24 2.470 . S
La0 O29 2.482 . S
La0 O31 2.503 1_455 S
La1 C11 2.928 1_455 S
La1 O23 2.482 . S
La1 O25 2.503 . S
La1 O26 2.521 1_455 S
La1 O27 2.628 1_455 S
La1 O28 2.554 . S
La1 O29 2.757 . S
La1 O30 2.470 1_455 S
C2 La0 2.928 . S
C2 C3 1.503 . S
C2 O20 1.261 . S
C2 O21 1.243 . S
C3 C2 1.503 . S
C3 C4 1.394 . S
C3 C8 1.373 . S
C4 C3 1.394 . S
C4 C5 1.380 . S
C4 H32 0.930 . S
C5 C4 1.380 . S
C5 C6 1.376 . S
C5 H33 0.930 . S
C6 C5 1.376 . S
C6 C7 1.370 . S
C7 C6 1.370 . S
C7 C8 1.396 . S
C7 H34 0.929 . S
C8 C3 1.373 . S
C8 C7 1.396 . S
C8 H35 0.929 . S
C9 O22 1.240 . S
C9 O23 1.289 . S
C10 O24 1.258 . S
C10 O25 1.256 . S
C11 La1 2.928 1_655 S
C11 C12 1.503 . S
C11 O26 1.261 . S
C11 O27 1.243 . S
C12 C11 1.503 . S
C12 C13 1.394 . S
C12 C17 1.373 . S
C13 C12 1.394 . S
C13 C14 1.380 . S
C13 H36 0.930 . S
C14 C13 1.380 . S
C14 C15 1.376 . S
C14 H37 0.930 . S
C15 C14 1.376 . S
C15 C16 1.370 . S
C16 C15 1.370 . S
C16 C17 1.396 . S
C16 H38 0.929 . S
C17 C12 1.373 . S
C17 C16 1.396 . S
C17 H39 0.929 . S
C18 O28 1.240 . S
C18 O29 1.289 . S
C19 O30 1.258 . S
C19 O31 1.256 . S
O20 La0 2.521 . S
O20 C2 1.261 . S
O21 La0 2.628 . S
O21 C2 1.243 . S
O22 La0 2.554 . S
O22 C9 1.240 . S
O23 La0 2.757 . S
O23 La1 2.482 . S
O23 C9 1.289 . S
O24 La0 2.470 . S
O24 C10 1.258 . S
O25 La1 2.503 . S
O25 C10 1.256 . S
O26 La1 2.521 1_655 S
O26 C11 1.261 . S
O27 La1 2.628 1_655 S
O27 C11 1.243 . S
O28 La1 2.554 . S
O28 C18 1.240 . S
O29 La0 2.482 . S
O29 La1 2.757 . S
O29 C18 1.289 . S
O30 La1 2.470 1_655 S
O30 C19 1.258 . S
O31 La0 2.503 1_655 S
O31 C19 1.256 . S
H32 C4 0.930 . S
H33 C5 0.930 . S
H34 C7 0.929 . S
H35 C8 0.929 . S
H36 C13 0.930 . S
H37 C14 0.930 . S
H38 C16 0.929 . S
H39 C17 0.929 . S
La40 C42 2.928 1_545 S
La40 O60 2.521 1_545 S
La40 O61 2.628 1_545 S
La40 O62 2.554 . S
La40 O63 2.757 . S
La40 O64 2.470 1_545 S
La40 O69 2.482 . S
La40 O71 2.503 . S
La41 C51 2.928 . S
La41 O63 2.482 . S
La41 O65 2.511 . S
La41 O66 2.521 . S
La41 O67 2.628 . S
La41 O68 2.554 . S
La41 O69 2.757 . S
La41 O70 2.470 . S
C42 La40 2.928 1_565 S
C42 C43 1.503 . S
C42 O60 1.261 . S
C42 O61 1.243 . S
C43 C42 1.503 . S
C43 C44 1.394 . S
C43 C48 1.373 . S
C44 C43 1.394 . S
C44 C45 1.380 . S
C44 H72 0.930 . S
C45 C44 1.380 . S
C45 C46 1.376 . S
C45 H73 0.930 . S
C46 C45 1.376 . S
C46 C47 1.370 . S
C47 C46 1.370 . S
C47 C48 1.396 . S
C47 H74 0.929 . S
C48 C43 1.373 . S
C48 C47 1.396 . S
C48 H75 0.929 . S
C49 O62 1.240 . S
C49 O63 1.289 . S
C50 O64 1.258 . S
C50 O65 1.246 1_565 S
C51 La41 2.928 . S
C51 C52 1.503 . S
C51 O66 1.261 . S
C51 O67 1.243 . S
C52 C51 1.503 . S
C52 C53 1.394 . S
C52 C57 1.373 . S
C53 C52 1.394 . S
C53 C54 1.380 . S
C53 H76 0.930 . S
C54 C53 1.380 . S
C54 C55 1.376 . S
C54 H77 0.930 . S
C55 C54 1.376 . S
C55 C56 1.370 . S
C56 C55 1.370 . S
C56 C57 1.396 . S
C56 H78 0.929 . S
C57 C52 1.373 . S
C57 C56 1.396 . S
C57 H79 0.929 . S
C58 O68 1.240 . S
C58 O69 1.289 . S
C59 O70 1.258 . S
C59 O71 1.256 . S
O60 La40 2.521 1_565 S
O60 C42 1.261 . S
O61 La40 2.628 1_565 S
O61 C42 1.243 . S
O62 La40 2.554 . S
O62 C49 1.240 . S
O63 La40 2.757 . S
O63 La41 2.482 . S
O63 C49 1.289 . S
O64 La40 2.470 1_565 S
O64 C50 1.258 . S
O65 La41 2.511 . S
O65 C50 1.246 1_545 S
O66 La41 2.521 . S
O66 C51 1.261 . S
O67 La41 2.628 . S
O67 C51 1.243 . S
O68 La41 2.554 . S
O68 C58 1.240 . S
O69 La40 2.482 . S
O69 La41 2.757 . S
O69 C58 1.289 . S
O70 La41 2.470 . S
O70 C59 1.258 . S
O71 La40 2.503 . S
O71 C59 1.256 . S
H72 C44 0.930 . S
H73 C45 0.930 . S
H74 C47 0.929 . S
H75 C48 0.929 . S
H76 C53 0.930 . S
H77 C54 0.930 . S
H78 C56 0.929 . S
H79 C57 0.929 . S
La80 C82 2.928 . S
La80 O100 2.521 . S
La80 O101 2.628 . S
La80 O102 2.554 . S
La80 O103 2.757 . S
La80 O104 2.470 . S
La80 O109 2.482 . S
La80 O111 2.503 . S
La81 C91 2.928 . S
La81 O103 2.482 . S
La81 O105 2.503 . S
La81 O106 2.521 . S
La81 O107 2.628 . S
La81 O108 2.554 . S
La81 O109 2.757 . S
La81 O110 2.470 . S
C82 La80 2.928 . S
C82 C83 1.503 . S
C82 O100 1.261 . S
C82 O101 1.243 . S
C83 C82 1.503 . S
C83 C84 1.394 . S
C83 C88 1.373 . S
C84 C83 1.394 . S
C84 C85 1.380 . S
C84 H112 0.930 . S
C85 C84 1.380 . S
C85 C86 1.376 . S
C85 H113 0.930 . S
C86 C85 1.376 . S
C86 C87 1.370 . S
C87 C86 1.370 . S
C87 C88 1.396 . S
C87 H114 0.929 . S
C88 C83 1.373 . S
C88 C87 1.396 . S
C88 H115 0.929 . S
C89 O102 1.240 . S
C89 O103 1.289 . S
C90 O104 1.258 . S
C90 O105 1.256 . S
C91 La81 2.928 . S
C91 C92 1.503 . S
C91 O106 1.261 . S
C91 O107 1.243 . S
C92 C91 1.503 . S
C92 C93 1.394 . S
C92 C97 1.373 . S
C93 C92 1.394 . S
C93 C94 1.380 . S
C93 H116 0.930 . S
C94 C93 1.380 . S
C94 C95 1.376 . S
C94 H117 0.930 . S
C95 C94 1.376 . S
C95 C96 1.370 . S
C96 C95 1.370 . S
C96 C97 1.396 . S
C96 H118 0.929 . S
C97 C92 1.373 . S
C97 C96 1.396 . S
C97 H119 0.929 . S
C98 O108 1.240 . S
C98 O109 1.289 . S
C99 O110 1.258 . S
C99 O111 1.256 . S
O100 La80 2.521 . S
O100 C82 1.261 . S
O101 La80 2.628 . S
O101 C82 1.243 . S
O102 La80 2.554 . S
O102 C89 1.240 . S
O103 La80 2.757 . S
O103 La81 2.482 . S
O103 C89 1.289 . S
O104 La80 2.470 . S
O104 C90 1.258 . S
O105 La81 2.503 . S
O105 C90 1.256 . S
O106 La81 2.521 . S
O106 C91 1.261 . S
O107 La81 2.628 . S
O107 C91 1.243 . S
O108 La81 2.554 . S
O108 C98 1.240 . S
O109 La80 2.482 . S
O109 La81 2.757 . S
O109 C98 1.289 . S
O110 La81 2.470 . S
O110 C99 1.258 . S
O111 La80 2.503 . S
O111 C99 1.256 . S
H112 C84 0.930 . S
H113 C85 0.930 . S
H114 C87 0.929 . S
H115 C88 0.929 . S
H116 C93 0.930 . S
H117 C94 0.930 . S
H118 C96 0.929 . S
H119 C97 0.929 . S
H120 C121 0.949 . S
C121 H120 0.949 . S
C121 C122 1.395 . S
C121 C123 1.391 . S
C122 C121 1.395 . S
C122 C125 1.390 . S
C123 C121 1.391 . S
C123 C127 1.387 . S
C123 C128 1.491 . S
H124 C125 0.944 1_565 S
C125 C122 1.390 . S
C125 H124 0.944 1_545 S
C125 C126 1.378 . S
C126 C125 1.378 . S
C126 C127 1.409 . S
C127 C123 1.387 . S
C127 C126 1.409 . S
C127 H129 0.951 . S
C128 C123 1.491 . S
C128 C130 1.382 . S
C128 C132 1.404 . S
H129 C127 0.951 . S
C130 C128 1.382 . S
C130 C131 1.390 . S
C130 H135 0.949 . S
C131 C130 1.390 . S
C131 C136 1.399 . S
C132 C128 1.404 . S
C132 H133 0.950 . S
C132 C134 1.375 . S
H133 C132 0.950 . S
C134 C132 1.375 . S
C134 C136 1.382 . S
C134 H138 0.950 . S
H135 C130 0.949 . S
C136 C131 1.399 . S
C136 C134 1.382 . S
C136 H137 0.952 . S
H137 C136 0.952 . S
H138 C134 0.950 . S
H139 C140 0.949 . S
C140 H139 0.949 . S
C140 C141 1.395 . S
C140 C142 1.391 . S
C141 C140 1.395 . S
C141 C144 1.390 . S
C142 C140 1.391 . S
C142 C146 1.387 . S
C142 C147 1.491 . S
H143 C144 0.950 . S
C144 C141 1.390 . S
C144 H143 0.950 . S
C144 C145 1.378 . S
C145 C144 1.378 . S
C145 C146 1.409 . S
C146 C142 1.387 . S
C146 C145 1.409 . S
C146 H148 0.951 . S
C147 C142 1.491 . S
C147 C149 1.382 . S
C147 C151 1.404 . S
H148 C146 0.951 . S
C149 C147 1.382 . S
C149 C150 1.390 . S
C149 H154 0.949 . S
C150 C149 1.390 . S
C150 C155 1.399 . S
C151 C147 1.404 . S
C151 H152 0.950 . S
C151 C153 1.375 . S
H152 C151 0.950 . S
C153 C151 1.375 . S
C153 C155 1.382 . S
C153 H157 0.950 . S
H154 C149 0.949 . S
C155 C150 1.399 . S
C155 C153 1.382 . S
C155 H156 0.952 . S
H156 C155 0.952 . S
H157 C153 0.950 . S
H158 C159 0.949 . S
C159 H158 0.949 . S
C159 C160 1.395 . S
C159 C161 1.391 . S
C160 C159 1.395 . S
C160 C163 1.390 . S
C161 C159 1.391 . S
C161 C165 1.387 . S
C161 C166 1.491 . S
H162 C163 0.950 . S
C163 C160 1.390 . S
C163 H162 0.950 . S
C163 C164 1.378 . S
C164 C163 1.378 . S
C164 C165 1.409 . S
C165 C161 1.387 . S
C165 C164 1.409 . S
C165 H167 0.951 . S
C166 C161 1.491 . S
C166 C168 1.382 . S
C166 C170 1.404 . S
H167 C165 0.951 . S
C168 C166 1.382 . S
C168 C169 1.390 . S
C168 H173 0.949 . S
C169 C168 1.390 . S
C169 C174 1.399 . S
C170 C166 1.404 . S
C170 H171 0.950 . S
C170 C172 1.375 . S
H171 C170 0.950 . S
C172 C170 1.375 . S
C172 C174 1.382 . S
C172 H176 0.950 . S
H173 C168 0.949 . S
C174 C169 1.399 . S
C174 C172 1.382 . S
C174 H175 0.952 . S
H175 C174 0.952 . S
H176 C172 0.950 . S
H177 C178 0.949 . S
C178 H177 0.949 . S
C178 C179 1.395 1_655 S
C178 C180 1.391 1_655 S
C179 C178 1.395 1_455 S
C179 C182 1.390 . S
C180 C178 1.391 1_455 S
C180 C184 1.387 . S
C180 C185 1.491 1_455 S
H181 C182 0.950 . S
C182 C179 1.390 . S
C182 H181 0.950 . S
C182 C183 1.378 . S
C183 C182 1.378 . S
C183 C184 1.409 . S
C184 C180 1.387 . S
C184 C183 1.409 . S
C184 H186 0.951 . S
C185 C180 1.491 1_655 S
C185 C187 1.382 . S
C185 C189 1.404 . S
H186 C184 0.951 . S
C187 C185 1.382 . S
C187 C188 1.390 . S
C187 H192 0.949 . S
C188 C187 1.390 . S
C188 C193 1.399 . S
C189 C185 1.404 . S
C189 H190 0.950 . S
C189 C191 1.375 . S
H190 C189 0.950 . S
C191 C189 1.375 . S
C191 C193 1.382 . S
C191 H195 0.950 . S
H192 C187 0.949 . S
C193 C188 1.399 . S
C193 C191 1.382 . S
C193 H194 0.952 . S
H194 C193 0.952 . S
H195 C191 0.950 . S
H196 C197 0.949 . S
C197 H196 0.949 . S
C197 C198 1.395 . S
C197 C199 1.391 . S
C198 C197 1.395 . S
C198 C201 1.390 . S
C199 C197 1.391 . S
C199 C203 1.387 . S
C199 C204 1.491 . S
H200 C201 0.950 . S
C201 C198 1.390 . S
C201 H200 0.950 . S
C201 C202 1.378 . S
C202 C201 1.378 . S
C202 C203 1.409 . S
C203 C199 1.387 . S
C203 C202 1.409 . S
C203 H205 0.951 . S
C204 C199 1.491 . S
C204 C206 1.382 1_545 S
C204 C208 1.405 1_545 S
H205 C203 0.951 . S
C206 C204 1.382 1_565 S
C206 C207 1.390 . S
C206 H211 0.949 . S
C207 C206 1.390 . S
C207 C212 1.399 . S
C208 C204 1.405 1_565 S
C208 H209 0.916 1_565 S
C208 C210 1.407 . S
H209 C208 0.916 1_545 S
C210 C208 1.407 . S
C210 C212 1.382 . S
C210 H214 0.950 . S
H211 C206 0.949 . S
C212 C207 1.399 . S
C212 C210 1.382 . S
C212 H213 0.952 . S
H213 C212 0.952 . S
H214 C210 0.950 . S
H215 C216 0.949 . S
C216 H215 0.949 . S
C216 C217 1.395 . S
C216 C218 1.391 . S
C217 C216 1.395 . S
C217 C220 1.390 . S
C218 C216 1.391 . S
C218 C222 1.387 . S
C218 C223 1.491 . S
H219 C220 0.950 . S
C220 C217 1.390 . S
C220 H219 0.950 . S
C220 C221 1.378 . S
C221 C220 1.378 . S
C221 C222 1.409 . S
C222 C218 1.387 . S
C222 C221 1.409 . S
C222 H224 0.951 . S
C223 C218 1.491 . S
C223 C225 1.382 . S
C223 C227 1.404 . S
H224 C222 0.951 . S
C225 C223 1.382 . S
C225 C226 1.390 . S
C225 H230 0.949 . S
C226 C225 1.390 . S
C226 C231 1.399 . S
C227 C223 1.404 . S
C227 H228 0.950 . S
C227 C229 1.375 . S
H228 C227 0.950 . S
C229 C227 1.375 . S
C229 C231 1.382 . S
C229 H233 0.950 . S
H230 C225 0.949 . S
C231 C226 1.399 . S
C231 C229 1.382 . S
C231 H232 0.952 . S
H232 C231 0.952 . S
H233 C229 0.950 . S
H234 C242 0.929 . S
H235 C244 0.930 . S
H236 C246 0.930 . S
H237 C249 0.929 . S
H238 C252 0.930 . S
H239 C254 0.960 . S
H240 C254 0.960 . S
H241 C254 0.960 . S
C242 H234 0.929 . S
C242 C243 1.377 . S
C242 C244 1.384 . S
C243 C242 1.377 . S
C243 C249 1.390 . S
C244 H235 0.930 . S
C244 C242 1.384 . S
C244 C245 1.372 . S
C245 C244 1.372 . S
C245 C246 1.400 . S
C245 C250 1.490 . S
C246 H236 0.930 . S
C246 C245 1.400 . S
C246 C249 1.386 . S
H247 C263 0.930 . S
H248 C264 0.931 . S
C249 H237 0.929 . S
C249 C243 1.390 . S
C249 C246 1.386 . S
C250 C245 1.490 . S
C250 C252 1.395 . S
C250 C253 1.403 . S
H251 C257 0.930 . S
C252 H238 0.930 . S
C252 C250 1.395 . S
C252 C255 1.403 . S
C253 C250 1.403 . S
C253 C254 1.524 . S
C253 C257 1.400 . S
C254 H239 0.960 . S
C254 H240 0.960 . S
C254 H241 0.960 . S
C254 C253 1.524 . S
C255 C252 1.403 . S
C255 C256 1.392 . S
C255 C259 1.495 . S
C256 C255 1.392 . S
C256 C257 1.385 . S
C256 C258 1.478 . S
C257 H251 0.930 . S
C257 C253 1.400 . S
C257 C256 1.385 . S
C258 C256 1.478 . S
C258 C260 1.381 . S
C258 C264 1.383 . S
C259 C255 1.495 . S
C259 H265 0.959 . S
C259 H266 0.961 . S
C259 H267 0.960 . S
C260 C258 1.381 . S
C260 C261 1.394 . S
C260 H268 0.930 . S
C261 C260 1.394 . S
C261 C262 1.383 . S
C261 H269 0.929 . S
C262 C261 1.383 . S
C262 C263 1.377 . S
C263 H247 0.930 . S
C263 C262 1.377 . S
C263 C264 1.379 . S
C264 H248 0.931 . S
C264 C258 1.383 . S
C264 C263 1.379 . S
H265 C259 0.959 . S
H266 C259 0.961 . S
H267 C259 0.960 . S
H268 C260 0.930 . S
H269 C261 0.929 . S
H270 C278 0.929 . S
H271 C280 0.930 . S
H272 C282 0.930 . S
H273 C285 0.929 . S
H274 C288 0.930 . S
H275 C290 0.960 . S
H276 C290 0.960 . S
H277 C290 0.960 . S
C278 H270 0.929 . S
C278 C279 1.377 . S
C278 C280 1.384 . S
C279 C278 1.377 . S
C279 C285 1.390 . S
C280 H271 0.930 . S
C280 C278 1.384 . S
C280 C281 1.372 . S
C281 C280 1.372 . S
C281 C282 1.400 . S
C281 C286 1.490 . S
C282 H272 0.930 . S
C282 C281 1.400 . S
C282 C285 1.386 . S
H283 C299 0.930 . S
H284 C300 0.931 . S
C285 H273 0.929 . S
C285 C279 1.390 . S
C285 C282 1.386 . S
C286 C281 1.490 . S
C286 C288 1.395 . S
C286 C289 1.403 . S
H287 C293 0.930 . S
C288 H274 0.930 . S
C288 C286 1.395 . S
C288 C291 1.403 . S
C289 C286 1.403 . S
C289 C290 1.524 . S
C289 C293 1.400 . S
C290 H275 0.960 . S
C290 H276 0.960 . S
C290 H277 0.960 . S
C290 C289 1.524 . S
C291 C288 1.403 . S
C291 C292 1.392 . S
C291 C295 1.495 . S
C292 C291 1.392 . S
C292 C293 1.385 . S
C292 C294 1.478 . S
C293 H287 0.930 . S
C293 C289 1.400 . S
C293 C292 1.385 . S
C294 C292 1.478 . S
C294 C296 1.381 . S
C294 C300 1.383 . S
C295 C291 1.495 . S
C295 H301 0.959 . S
C295 H302 0.961 . S
C295 H303 0.960 . S
C296 C294 1.381 . S
C296 C297 1.394 . S
C296 H304 0.930 . S
C297 C296 1.394 . S
C297 C298 1.383 . S
C297 H305 0.929 . S
C298 C297 1.383 . S
C298 C299 1.377 . S
C299 H283 0.930 . S
C299 C298 1.377 . S
C299 C300 1.379 . S
C300 H284 0.931 . S
C300 C294 1.383 . S
C300 C299 1.379 . S
H301 C295 0.959 . S
H302 C295 0.961 . S
H303 C295 0.960 . S
H304 C296 0.930 . S
H305 C297 0.929 . S
H306 C314 0.929 . S
H307 C316 0.930 . S
H308 C318 0.930 . S
H309 C321 0.929 . S
H310 C324 0.930 . S
H311 C326 0.960 . S
H312 C326 0.960 . S
H313 C326 0.960 . S
C314 H306 0.929 . S
C314 C315 1.377 . S
C314 C316 1.384 . S
C315 C314 1.377 . S
C315 C321 1.390 . S
C316 H307 0.930 . S
C316 C314 1.384 . S
C316 C317 1.372 . S
C317 C316 1.372 . S
C317 C318 1.400 . S
C317 C322 1.490 . S
C318 H308 0.930 . S
C318 C317 1.400 . S
C318 C321 1.386 . S
H319 C335 0.930 . S
H320 C336 0.931 . S
C321 H309 0.929 . S
C321 C315 1.390 . S
C321 C318 1.386 . S
C322 C317 1.490 . S
C322 C324 1.395 . S
C322 C325 1.403 . S
H323 C329 0.930 . S
C324 H310 0.930 . S
C324 C322 1.395 . S
C324 C327 1.403 . S
C325 C322 1.403 . S
C325 C326 1.524 . S
C325 C329 1.400 . S
C326 H311 0.960 . S
C326 H312 0.960 . S
C326 H313 0.960 . S
C326 C325 1.524 . S
C327 C324 1.403 . S
C327 C328 1.392 . S
C327 C331 1.495 . S
C328 C327 1.392 . S
C328 C329 1.385 . S
C328 C330 1.478 . S
C329 H323 0.930 . S
C329 C325 1.400 . S
C329 C328 1.385 . S
C330 C328 1.478 . S
C330 C332 1.381 . S
C330 C336 1.383 . S
C331 C327 1.495 . S
C331 H337 0.959 . S
C331 H338 0.961 . S
C331 H339 0.960 . S
C332 C330 1.381 . S
C332 C333 1.394 . S
C332 H340 0.930 . S
C333 C332 1.394 . S
C333 C334 1.383 . S
C333 H341 0.929 . S
C334 C333 1.383 . S
C334 C335 1.377 . S
C335 H319 0.930 . S
C335 C334 1.377 . S
C335 C336 1.379 . S
C336 H320 0.931 . S
C336 C330 1.383 . S
C336 C335 1.379 . S
H337 C331 0.959 . S
H338 C331 0.961 . S
H339 C331 0.960 . S
H340 C332 0.930 . S
H341 C333 0.929 . S
H342 C350 0.929 . S
H343 C352 0.930 . S
H344 C354 0.930 . S
H345 C357 0.929 . S
H346 C360 0.930 . S
H347 C362 0.960 . S
H348 C362 0.960 . S
H349 C362 0.960 . S
C350 H342 0.929 . S
C350 C351 1.377 . S
C350 C352 1.384 . S
C351 C350 1.377 . S
C351 C357 1.390 . S
C352 H343 0.930 . S
C352 C350 1.384 . S
C352 C353 1.372 . S
C353 C352 1.372 . S
C353 C354 1.400 . S
C353 C358 1.490 . S
C354 H344 0.930 . S
C354 C353 1.400 . S
C354 C357 1.386 . S
H355 C371 0.930 . S
H356 C372 0.931 . S
C357 H345 0.929 . S
C357 C351 1.390 . S
C357 C354 1.386 . S
C358 C353 1.490 . S
C358 C360 1.395 . S
C358 C361 1.403 . S
H359 C365 0.930 . S
C360 H346 0.930 . S
C360 C358 1.395 . S
C360 C363 1.403 . S
C361 C358 1.403 . S
C361 C362 1.524 . S
C361 C365 1.400 . S
C362 H347 0.960 . S
C362 H348 0.960 . S
C362 H349 0.960 . S
C362 C361 1.524 . S
C363 C360 1.403 . S
C363 C364 1.392 . S
C363 C367 1.495 . S
C364 C363 1.392 . S
C364 C365 1.385 . S
C364 C366 1.478 . S
C365 H359 0.930 . S
C365 C361 1.400 . S
C365 C364 1.385 . S
C366 C364 1.478 . S
C366 C368 1.381 . S
C366 C372 1.383 . S
C367 C363 1.495 . S
C367 H373 0.959 . S
C367 H374 0.961 . S
C367 H375 0.960 . S
C368 C366 1.381 . S
C368 C369 1.394 . S
C368 H376 0.930 . S
C369 C368 1.394 . S
C369 C370 1.383 . S
C369 H377 0.929 . S
C370 C369 1.383 . S
C370 C371 1.377 . S
C371 H355 0.930 . S
C371 C370 1.377 . S
C371 C372 1.379 . S
C372 H356 0.931 . S
C372 C366 1.383 . S
C372 C371 1.379 . S
H373 C367 0.959 . S
H374 C367 0.961 . S
H375 C367 0.960 . S
H376 C368 0.930 . S
H377 C369 0.929 . S
H378 C386 0.929 . S
H379 C388 0.930 . S
H380 C390 0.930 . S
H381 C393 0.929 . S
H382 C396 0.930 . S
H383 C398 0.960 . S
H384 C398 0.960 . S
H385 C398 0.960 . S
C386 H378 0.929 . S
C386 C387 1.377 . S
C386 C388 1.384 . S
C387 C386 1.377 . S
C387 C393 1.390 . S
C388 H379 0.930 . S
C388 C386 1.384 . S
C388 C389 1.372 . S
C389 C388 1.372 . S
C389 C390 1.400 . S
C389 C394 1.490 . S
C390 H380 0.930 . S
C390 C389 1.400 . S
C390 C393 1.386 . S
H391 C407 0.930 . S
H392 C408 0.931 . S
C393 H381 0.929 . S
C393 C387 1.390 . S
C393 C390 1.386 . S
C394 C389 1.490 . S
C394 C396 1.395 . S
C394 C397 1.403 . S
H395 C401 0.930 . S
C396 H382 0.930 . S
C396 C394 1.395 . S
C396 C399 1.403 . S
C397 C394 1.403 . S
C397 C398 1.524 . S
C397 C401 1.400 . S
C398 H383 0.960 . S
C398 H384 0.960 . S
C398 H385 0.960 . S
C398 C397 1.524 . S
C399 C396 1.403 . S
C399 C400 1.392 . S
C399 C403 1.495 . S
C400 C399 1.392 . S
C400 C401 1.385 . S
C400 C402 1.478 . S
C401 H395 0.930 . S
C401 C397 1.400 . S
C401 C400 1.385 . S
C402 C400 1.478 . S
C402 C404 1.381 . S
C402 C408 1.383 . S
C403 C399 1.495 . S
C403 H409 0.959 . S
C403 H410 0.961 . S
C403 H411 0.960 . S
C404 C402 1.381 . S
C404 C405 1.394 . S
C404 H412 0.930 . S
C405 C404 1.394 . S
C405 C406 1.383 . S
C405 H413 0.929 . S
C406 C405 1.383 . S
C406 C407 1.377 . S
C407 H391 0.930 . S
C407 C406 1.377 . S
C407 C408 1.379 . S
C408 H392 0.931 . S
C408 C402 1.383 . S
C408 C407 1.379 . S
H409 C403 0.959 . S
H410 C403 0.961 . S
H411 C403 0.960 . S
H412 C404 0.930 . S
H413 C405 0.929 . S
H414 C422 0.929 . S
H415 C424 0.930 . S
H416 C426 0.930 . S
H417 C429 0.929 . S
H418 C432 0.930 . S
H419 C434 0.960 . S
H420 C434 0.960 . S
H421 C434 0.960 . S
C422 H414 0.929 . S
C422 C423 1.377 . S
C422 C424 1.384 . S
C423 C422 1.377 . S
C423 C429 1.390 . S
C424 H415 0.930 . S
C424 C422 1.384 . S
C424 C425 1.372 . S
C425 C424 1.372 . S
C425 C426 1.400 . S
C425 C430 1.490 . S
C426 H416 0.930 . S
C426 C425 1.400 . S
C426 C429 1.386 . S
H427 C443 0.930 . S
H428 C444 0.931 . S
C429 H417 0.929 . S
C429 C423 1.390 . S
C429 C426 1.386 . S
C430 C425 1.490 . S
C430 C432 1.395 . S
C430 C433 1.403 . S
H431 C437 0.930 . S
C432 H418 0.930 . S
C432 C430 1.395 . S
C432 C435 1.403 . S
C433 C430 1.403 . S
C433 C434 1.524 . S
C433 C437 1.400 . S
C434 H419 0.960 . S
C434 H420 0.960 . S
C434 H421 0.960 . S
C434 C433 1.524 . S
C435 C432 1.403 . S
C435 C436 1.392 . S
C435 C439 1.495 . S
C436 C435 1.392 . S
C436 C437 1.385 . S
C436 C438 1.478 . S
C437 H431 0.930 . S
C437 C433 1.400 . S
C437 C436 1.385 . S
C438 C436 1.478 . S
C438 C440 1.381 . S
C438 C444 1.383 . S
C439 C435 1.495 . S
C439 H445 0.959 . S
C439 H446 0.961 . S
C439 H447 0.960 . S
C440 C438 1.381 . S
C440 C441 1.394 . S
C440 H448 0.930 . S
C441 C440 1.394 . S
C441 C442 1.383 . S
C441 H449 0.929 . S
C442 C441 1.383 . S
C442 C443 1.377 . S
C443 H427 0.930 . S
C443 C442 1.377 . S
C443 C444 1.379 . S
C444 H428 0.931 . S
C444 C438 1.383 . S
C444 C443 1.379 . S
H445 C439 0.959 . S
H446 C439 0.961 . S
H447 C439 0.960 . S
H448 C440 0.930 . S
H449 C441 0.929 . S
H450 C458 0.929 . S
H451 C460 0.930 . S
H452 C462 0.930 . S
H453 C465 0.929 . S
H454 C468 0.930 . S
H455 C470 0.960 . S
H456 C470 0.960 . S
H457 C470 0.960 . S
C458 H450 0.929 . S
C458 C459 1.377 . S
C458 C460 1.384 . S
C459 C458 1.377 . S
C459 C465 1.390 . S
C460 H451 0.930 . S
C460 C458 1.384 . S
C460 C461 1.372 . S
C461 C460 1.372 . S
C461 C462 1.400 . S
C461 C466 1.490 . S
C462 H452 0.930 . S
C462 C461 1.400 . S
C462 C465 1.386 . S
H463 C479 0.930 . S
H464 C480 0.931 . S
C465 H453 0.929 . S
C465 C459 1.390 . S
C465 C462 1.386 . S
C466 C461 1.490 . S
C466 C468 1.395 . S
C466 C469 1.403 . S
H467 C473 0.930 . S
C468 H454 0.930 . S
C468 C466 1.395 . S
C468 C471 1.403 . S
C469 C466 1.403 . S
C469 C470 1.524 . S
C469 C473 1.400 . S
C470 H455 0.960 . S
C470 H456 0.960 . S
C470 H457 0.960 . S
C470 C469 1.524 . S
C471 C468 1.403 . S
C471 C472 1.392 . S
C471 C475 1.495 . S
C472 C471 1.392 . S
C472 C473 1.385 . S
C472 C474 1.478 . S
C473 H467 0.930 . S
C473 C469 1.400 . S
C473 C472 1.385 . S
C474 C472 1.478 . S
C474 C476 1.381 . S
C474 C480 1.383 . S
C475 C471 1.495 . S
C475 H481 0.959 . S
C475 H482 0.961 . S
C475 H483 0.960 . S
C476 C474 1.381 . S
C476 C477 1.394 . S
C476 H484 0.930 . S
C477 C476 1.394 . S
C477 C478 1.383 . S
C477 H485 0.929 . S
C478 C477 1.383 . S
C478 C479 1.377 . S
C479 H463 0.930 . S
C479 C478 1.377 . S
C479 C480 1.379 . S
C480 H464 0.931 . S
C480 C474 1.383 . S
C480 C479 1.379 . S
H481 C475 0.959 . S
H482 C475 0.961 . S
H483 C475 0.960 . S
H484 C476 0.930 . S
H485 C477 0.929 . S
H486 C494 0.929 . S
H487 C496 0.930 . S
H488 C498 0.930 . S
H489 C501 0.929 . S
H490 C504 0.930 . S
H491 C506 0.960 . S
H492 C506 0.960 . S
H493 C506 0.960 . S
C494 H486 0.929 . S
C494 C495 1.377 . S
C494 C496 1.384 . S
C495 C494 1.377 . S
C495 C501 1.390 . S
C496 H487 0.930 . S
C496 C494 1.384 . S
C496 C497 1.372 . S
C497 C496 1.372 . S
C497 C498 1.400 . S
C497 C502 1.490 . S
C498 H488 0.930 . S
C498 C497 1.400 . S
C498 C501 1.386 . S
H499 C515 0.930 . S
H500 C516 0.931 . S
C501 H489 0.929 . S
C501 C495 1.390 . S
C501 C498 1.386 . S
C502 C497 1.490 . S
C502 C504 1.395 . S
C502 C505 1.403 . S
H503 C509 0.930 . S
C504 H490 0.930 . S
C504 C502 1.395 . S
C504 C507 1.403 . S
C505 C502 1.403 . S
C505 C506 1.524 . S
C505 C509 1.400 . S
C506 H491 0.960 . S
C506 H492 0.960 . S
C506 H493 0.960 . S
C506 C505 1.524 . S
C507 C504 1.403 . S
C507 C508 1.392 . S
C507 C511 1.495 . S
C508 C507 1.392 . S
C508 C509 1.385 . S
C508 C510 1.478 . S
C509 H503 0.930 . S
C509 C505 1.400 . S
C509 C508 1.385 . S
C510 C508 1.478 . S
C510 C512 1.381 . S
C510 C516 1.383 . S
C511 C507 1.495 . S
C511 H517 0.959 . S
C511 H518 0.961 . S
C511 H519 0.960 . S
C512 C510 1.381 . S
C512 C513 1.394 . S
C512 H520 0.930 . S
C513 C512 1.394 . S
C513 C514 1.383 . S
C513 H521 0.929 . S
C514 C513 1.383 . S
C514 C515 1.377 . S
C515 H499 0.930 . S
C515 C514 1.377 . S
C515 C516 1.379 . S
C516 H500 0.931 . S
C516 C510 1.383 . S
C516 C515 1.379 . S
H517 C511 0.959 . S
H518 C511 0.961 . S
H519 C511 0.960 . S
H520 C512 0.930 . S
H521 C513 0.929 . S
H522 C530 0.929 . S
H523 C532 0.930 . S
H524 C534 0.930 . S
H525 C537 0.929 . S
H526 C540 0.930 . S
H527 C542 0.960 . S
H528 C542 0.960 . S
H529 C542 0.960 . S
C530 H522 0.929 . S
C530 C531 1.377 . S
C530 C532 1.384 . S
C531 C530 1.377 . S
C531 C537 1.390 . S
C532 H523 0.930 . S
C532 C530 1.384 . S
C532 C533 1.372 . S
C533 C532 1.372 . S
C533 C534 1.400 . S
C533 C538 1.490 . S
C534 H524 0.930 . S
C534 C533 1.400 . S
C534 C537 1.386 . S
H535 C551 0.930 . S
H536 C552 0.931 . S
C537 H525 0.929 . S
C537 C531 1.390 . S
C537 C534 1.386 . S
C538 C533 1.490 . S
C538 C540 1.395 . S
C538 C541 1.403 . S
H539 C545 0.930 . S
C540 H526 0.930 . S
C540 C538 1.395 . S
C540 C543 1.403 . S
C541 C538 1.403 . S
C541 C542 1.524 . S
C541 C545 1.400 . S
C542 H527 0.960 . S
C542 H528 0.960 . S
C542 H529 0.960 . S
C542 C541 1.524 . S
C543 C540 1.403 . S
C543 C544 1.392 . S
C543 C547 1.495 . S
C544 C543 1.392 . S
C544 C545 1.385 . S
C544 C546 1.478 . S
C545 H539 0.930 . S
C545 C541 1.400 . S
C545 C544 1.385 . S
C546 C544 1.478 . S
C546 C548 1.381 . S
C546 C552 1.383 . S
C547 C543 1.495 . S
C547 H553 0.959 . S
C547 H554 0.961 . S
C547 H555 0.960 . S
C548 C546 1.381 . S
C548 C549 1.394 . S
C548 H556 0.930 . S
C549 C548 1.394 . S
C549 C550 1.383 . S
C549 H557 0.929 . S
C550 C549 1.383 . S
C550 C551 1.377 . S
C551 H535 0.930 . S
C551 C550 1.377 . S
C551 C552 1.379 . S
C552 H536 0.931 . S
C552 C546 1.383 . S
C552 C551 1.379 . S
H553 C547 0.959 . S
H554 C547 0.961 . S
H555 C547 0.960 . S
H556 C548 0.930 . S
H557 C549 0.929 . S
H558 C566 0.929 . S
H559 C568 0.930 . S
H560 C570 0.930 . S
H561 C573 0.929 . S
H562 C576 0.930 . S
H563 C578 0.960 . S
H564 C578 0.960 . S
H565 C578 0.960 . S
C566 H558 0.929 . S
C566 C567 1.377 . S
C566 C568 1.384 . S
C567 C566 1.377 . S
C567 C573 1.390 . S
C568 H559 0.930 . S
C568 C566 1.384 . S
C568 C569 1.372 . S
C569 C568 1.372 . S
C569 C570 1.400 . S
C569 C574 1.490 . S
C570 H560 0.930 . S
C570 C569 1.400 . S
C570 C573 1.386 . S
H571 C587 0.930 . S
H572 C588 0.931 . S
C573 H561 0.929 . S
C573 C567 1.390 . S
C573 C570 1.386 . S
C574 C569 1.490 . S
C574 C576 1.395 . S
C574 C577 1.403 . S
H575 C581 0.930 . S
C576 H562 0.930 . S
C576 C574 1.395 . S
C576 C579 1.403 . S
C577 C574 1.403 . S
C577 C578 1.524 . S
C577 C581 1.400 . S
C578 H563 0.960 . S
C578 H564 0.960 . S
C578 H565 0.960 . S
C578 C577 1.524 . S
C579 C576 1.403 . S
C579 C580 1.392 . S
C579 C583 1.495 . S
C580 C579 1.392 . S
C580 C581 1.385 . S
C580 C582 1.478 . S
C581 H575 0.930 . S
C581 C577 1.400 . S
C581 C580 1.385 . S
C582 C580 1.478 . S
C582 C584 1.381 . S
C582 C588 1.383 . S
C583 C579 1.495 . S
C583 H589 0.959 . S
C583 H590 0.961 . S
C583 H591 0.960 . S
C584 C582 1.381 . S
C584 C585 1.394 . S
C584 H592 0.930 . S
C585 C584 1.394 . S
C585 C586 1.383 . S
C585 H593 0.929 . S
C586 C585 1.383 . S
C586 C587 1.377 . S
C587 H571 0.930 . S
C587 C586 1.377 . S
C587 C588 1.379 . S
C588 H572 0.931 . S
C588 C582 1.383 . S
C588 C587 1.379 . S
H589 C583 0.959 . S
H590 C583 0.961 . S
H591 C583 0.960 . S
H592 C584 0.930 . S
H593 C585 0.929 . S
H594 C602 0.929 . S
H595 C604 0.930 . S
H596 C606 0.930 . S
H597 C609 0.929 . S
H598 C612 0.930 . S
H599 C614 0.960 . S
H600 C614 0.960 . S
H601 C614 0.960 . S
C602 H594 0.929 . S
C602 C603 1.377 . S
C602 C604 1.384 . S
C603 C602 1.377 . S
C603 C609 1.390 . S
C604 H595 0.930 . S
C604 C602 1.384 . S
C604 C605 1.372 . S
C605 C604 1.372 . S
C605 C606 1.400 . S
C605 C610 1.490 . S
C606 H596 0.930 . S
C606 C605 1.400 . S
C606 C609 1.386 . S
H607 C623 0.930 . S
H608 C624 0.931 . S
C609 H597 0.929 . S
C609 C603 1.390 . S
C609 C606 1.386 . S
C610 C605 1.490 . S
C610 C612 1.395 . S
C610 C613 1.403 . S
H611 C617 0.930 . S
C612 H598 0.930 . S
C612 C610 1.395 . S
C612 C615 1.403 . S
C613 C610 1.403 . S
C613 C614 1.524 . S
C613 C617 1.400 . S
C614 H599 0.960 . S
C614 H600 0.960 . S
C614 H601 0.960 . S
C614 C613 1.524 . S
C615 C612 1.403 . S
C615 C616 1.392 . S
C615 C619 1.495 . S
C616 C615 1.392 . S
C616 C617 1.385 . S
C616 C618 1.478 . S
C617 H611 0.930 . S
C617 C613 1.400 . S
C617 C616 1.385 . S
C618 C616 1.478 . S
C618 C620 1.381 . S
C618 C624 1.383 . S
C619 C615 1.495 . S
C619 H625 0.959 . S
C619 H626 0.961 . S
C619 H627 0.960 . S
C620 C618 1.381 . S
C620 C621 1.394 . S
C620 H628 0.930 . S
C621 C620 1.394 . S
C621 C622 1.383 . S
C621 H629 0.929 . S
C622 C621 1.383 . S
C622 C623 1.377 . S
C623 H607 0.930 . S
C623 C622 1.377 . S
C623 C624 1.379 . S
C624 H608 0.931 . S
C624 C618 1.383 . S
C624 C623 1.379 . S
H625 C619 0.959 . S
H626 C619 0.961 . S
H627 C619 0.960 . S
H628 C620 0.930 . S
H629 C621 0.929 . S
H630 C638 0.929 . S
H631 C640 0.930 . S
H632 C642 0.930 . S
H633 C645 0.929 . S
H634 C648 0.930 . S
H635 C650 0.960 . S
H636 C650 0.960 . S
H637 C650 0.960 . S
C638 H630 0.929 . S
C638 C639 1.377 . S
C638 C640 1.384 . S
C639 C638 1.377 . S
C639 C645 1.390 . S
C640 H631 0.930 . S
C640 C638 1.384 . S
C640 C641 1.372 . S
C641 C640 1.372 . S
C641 C642 1.400 . S
C641 C646 1.490 . S
C642 H632 0.930 . S
C642 C641 1.400 . S
C642 C645 1.386 . S
H643 C659 0.930 . S
H644 C660 0.931 . S
C645 H633 0.929 . S
C645 C639 1.390 . S
C645 C642 1.386 . S
C646 C641 1.490 . S
C646 C648 1.395 . S
C646 C649 1.403 . S
H647 C653 0.930 . S
C648 H634 0.930 . S
C648 C646 1.395 . S
C648 C651 1.403 . S
C649 C646 1.403 . S
C649 C650 1.524 . S
C649 C653 1.400 . S
C650 H635 0.960 . S
C650 H636 0.960 . S
C650 H637 0.960 . S
C650 C649 1.524 . S
C651 C648 1.403 . S
C651 C652 1.392 . S
C651 C655 1.495 . S
C652 C651 1.392 . S
C652 C653 1.385 . S
C652 C654 1.478 . S
C653 H647 0.930 . S
C653 C649 1.400 . S
C653 C652 1.385 . S
C654 C652 1.478 . S
C654 C656 1.381 . S
C654 C660 1.383 . S
C655 C651 1.495 . S
C655 H661 0.959 . S
C655 H662 0.961 . S
C655 H663 0.960 . S
C656 C654 1.381 . S
C656 C657 1.394 . S
C656 H664 0.930 . S
C657 C656 1.394 . S
C657 C658 1.383 . S
C657 H665 0.929 . S
C658 C657 1.383 . S
C658 C659 1.377 . S
C659 H643 0.930 . S
C659 C658 1.377 . S
C659 C660 1.379 . S
C660 H644 0.931 . S
C660 C654 1.383 . S
C660 C659 1.379 . S
H661 C655 0.959 . S
H662 C655 0.961 . S
H663 C655 0.960 . S
H664 C656 0.930 . S
H665 C657 0.929 . S
H666 C674 0.929 . S
H667 C676 0.930 . S
H668 C678 0.930 1_655 S
H669 C681 0.929 1_655 S
H670 C684 0.930 . S
H671 C686 0.960 . S
H672 C686 0.960 . S
H673 C686 0.960 . S
C674 H666 0.929 . S
C674 C675 1.377 . S
C674 C676 1.384 . S
C675 C674 1.377 . S
C675 C681 1.390 . S
C676 H667 0.930 . S
C676 C674 1.384 . S
C676 C677 1.372 . S
C677 C676 1.372 . S
C677 C678 1.400 . S
C677 C682 1.490 . S
C678 H668 0.930 1_455 S
C678 C677 1.400 . S
C678 C681 1.386 . S
H679 C695 0.930 . S
H680 C696 0.934 . S
C681 H669 0.929 1_455 S
C681 C675 1.390 . S
C681 C678 1.386 . S
C682 C677 1.490 . S
C682 C684 1.395 . S
C682 C685 1.403 . S
H683 C689 0.953 . S
C684 H670 0.930 . S
C684 C682 1.395 . S
C684 C687 1.403 . S
C685 C682 1.403 . S
C685 C686 1.524 . S
C685 C689 1.369 1_554 S
C686 H671 0.960 . S
C686 H672 0.960 . S
C686 H673 0.960 . S
C686 C685 1.524 . S
C687 C684 1.403 . S
C687 C688 1.392 1_554 S
C687 C691 1.495 1_554 S
C688 C687 1.392 1_556 S
C688 C689 1.395 . S
C688 C690 1.478 . S
C689 H683 0.953 . S
C689 C685 1.369 1_556 S
C689 C688 1.395 . S
C690 C688 1.478 . S
C690 C692 1.381 . S
C690 C696 1.383 . S
C691 C687 1.495 1_556 S
C691 H697 0.959 1_556 S
C691 H698 0.961 . S
C691 H699 0.960 . S
C692 C690 1.381 . S
C692 C693 1.394 . S
C692 H700 0.930 . S
C693 C692 1.394 . S
C693 C694 1.383 . S
C693 H701 0.929 . S
C694 C693 1.383 . S
C694 C695 1.377 . S
C695 H679 0.930 . S
C695 C694 1.377 . S
C695 C696 1.379 . S
C696 H680 0.934 . S
C696 C690 1.383 . S
C696 C695 1.379 . S
H697 C691 0.959 1_554 S
H698 C691 0.961 . S
H699 C691 0.960 . S
H700 C692 0.930 . S
H701 C693 0.929 . S
H702 C710 0.929 . S
H703 C712 0.930 . S
H704 C714 0.930 . S
H705 C717 0.929 . S
H706 C720 0.930 . S
H707 C722 0.960 . S
H708 C722 0.960 . S
H709 C722 0.960 . S
C710 H702 0.929 . S
C710 C711 1.377 . S
C710 C712 1.384 . S
C711 C710 1.377 . S
C711 C717 1.390 . S
C712 H703 0.930 . S
C712 C710 1.384 . S
C712 C713 1.372 . S
C713 C712 1.372 . S
C713 C714 1.400 . S
C713 C718 1.490 . S
C714 H704 0.930 . S
C714 C713 1.400 . S
C714 C717 1.386 . S
H715 C731 0.930 . S
H716 C732 0.931 . S
C717 H705 0.929 . S
C717 C711 1.390 . S
C717 C714 1.386 . S
C718 C713 1.490 . S
C718 C720 1.395 . S
C718 C721 1.403 . S
H719 C725 0.930 . S
C720 H706 0.930 . S
C720 C718 1.395 . S
C720 C723 1.403 . S
C721 C718 1.403 . S
C721 C722 1.524 1_545 S
C721 C725 1.400 . S
C722 H707 0.960 . S
C722 H708 0.960 . S
C722 H709 0.960 . S
C722 C721 1.524 1_565 S
C723 C720 1.403 . S
C723 C724 1.392 . S
C723 C727 1.495 . S
C724 C723 1.392 . S
C724 C725 1.385 . S
C724 C726 1.478 . S
C725 H719 0.930 . S
C725 C721 1.400 . S
C725 C724 1.385 . S
C726 C724 1.478 . S
C726 C728 1.381 . S
C726 C732 1.383 . S
C727 C723 1.495 . S
C727 H733 0.959 . S
C727 H734 0.961 . S
C727 H735 0.960 . S
C728 C726 1.381 . S
C728 C729 1.394 . S
C728 H736 0.930 . S
C729 C728 1.394 . S
C729 C730 1.383 . S
C729 H737 0.929 . S
C730 C729 1.383 . S
C730 C731 1.377 . S
C731 H715 0.930 . S
C731 C730 1.377 . S
C731 C732 1.379 . S
C732 H716 0.931 . S
C732 C726 1.383 . S
C732 C731 1.379 . S
H733 C727 0.959 . S
H734 C727 0.961 . S
H735 C727 0.960 . S
H736 C728 0.930 . S
H737 C729 0.929 . S
H738 C746 0.929 . S
H739 C748 0.930 . S
H740 C750 0.930 . S
H741 C753 0.929 . S
H742 C756 0.930 . S
H743 C758 0.960 . S
H744 C758 0.960 . S
H745 C758 0.960 . S
C746 H738 0.929 . S
C746 C747 1.377 . S
C746 C748 1.384 . S
C747 C746 1.377 . S
C747 C753 1.390 . S
C748 H739 0.930 . S
C748 C746 1.384 . S
C748 C749 1.372 . S
C749 C748 1.372 . S
C749 C750 1.400 . S
C749 C754 1.490 . S
C750 H740 0.930 . S
C750 C749 1.400 . S
C750 C753 1.386 . S
H751 C767 0.930 . S
H752 C768 0.931 . S
C753 H741 0.929 . S
C753 C747 1.390 . S
C753 C750 1.386 . S
C754 C749 1.490 . S
C754 C756 1.395 . S
C754 C757 1.403 . S
H755 C761 0.930 . S
C756 H742 0.930 . S
C756 C754 1.395 . S
C756 C759 1.403 . S
C757 C754 1.403 . S
C757 C758 1.524 . S
C757 C761 1.400 . S
C758 H743 0.960 . S
C758 H744 0.960 . S
C758 H745 0.960 . S
C758 C757 1.524 . S
C759 C756 1.403 . S
C759 C760 1.392 . S
C759 C763 1.495 . S
C760 C759 1.392 . S
C760 C761 1.385 . S
C760 C762 1.478 . S
C761 H755 0.930 . S
C761 C757 1.400 . S
C761 C760 1.385 . S
C762 C760 1.478 . S
C762 C764 1.381 . S
C762 C768 1.383 . S
C763 C759 1.495 . S
C763 H769 0.959 . S
C763 H770 0.961 . S
C763 H771 0.960 . S
C764 C762 1.381 . S
C764 C765 1.394 . S
C764 H772 0.930 . S
C765 C764 1.394 . S
C765 C766 1.383 . S
C765 H773 0.929 . S
C766 C765 1.383 . S
C766 C767 1.377 . S
C767 H751 0.930 . S
C767 C766 1.377 . S
C767 C768 1.379 . S
C768 H752 0.931 . S
C768 C762 1.383 . S
C768 C767 1.379 . S
H769 C763 0.959 . S
H770 C763 0.961 . S
H771 C763 0.960 . S
H772 C764 0.930 . S
H773 C765 0.929 . S
H774 C782 0.929 . S
H775 C784 0.930 . S
H776 C786 0.930 . S
H777 C789 0.929 . S
H778 C792 0.930 . S
H779 C794 0.960 . S
H780 C794 0.960 . S
H781 C794 0.960 . S
C782 H774 0.929 . S
C782 C783 1.377 . S
C782 C784 1.384 . S
C783 C782 1.377 . S
C783 C789 1.390 . S
C784 H775 0.930 . S
C784 C782 1.384 . S
C784 C785 1.372 . S
C785 C784 1.372 . S
C785 C786 1.400 . S
C785 C790 1.490 . S
C786 H776 0.930 . S
C786 C785 1.400 . S
C786 C789 1.386 . S
H787 C803 0.930 . S
H788 C804 0.931 . S
C789 H777 0.929 . S
C789 C783 1.390 . S
C789 C786 1.386 . S
C790 C785 1.490 . S
C790 C792 1.395 . S
C790 C793 1.403 . S
H791 C797 0.930 . S
C792 H778 0.930 . S
C792 C790 1.395 . S
C792 C795 1.403 . S
C793 C790 1.403 . S
C793 C794 1.524 . S
C793 C797 1.400 . S
C794 H779 0.960 . S
C794 H780 0.960 . S
C794 H781 0.960 . S
C794 C793 1.524 . S
C795 C792 1.403 . S
C795 C796 1.392 . S
C795 C799 1.495 . S
C796 C795 1.392 . S
C796 C797 1.385 . S
C796 C798 1.478 . S
C797 H791 0.930 . S
C797 C793 1.400 . S
C797 C796 1.385 . S
C798 C796 1.478 . S
C798 C800 1.381 . S
C798 C804 1.383 . S
C799 C795 1.495 . S
C799 H805 0.959 . S
C799 H806 0.961 . S
C799 H807 0.960 . S
C800 C798 1.381 . S
C800 C801 1.394 . S
C800 H808 0.930 . S
C801 C800 1.394 . S
C801 C802 1.383 . S
C801 H809 0.929 . S
C802 C801 1.383 . S
C802 C803 1.377 . S
C803 H787 0.930 . S
C803 C802 1.377 . S
C803 C804 1.379 . S
C804 H788 0.931 . S
C804 C798 1.383 . S
C804 C803 1.379 . S
H805 C799 0.959 . S
H806 C799 0.961 . S
H807 C799 0.960 . S
H808 C800 0.930 . S
H809 C801 0.929 . S
H810 C818 0.929 . S
H811 C820 0.930 . S
H812 C822 0.930 . S
H813 C825 0.929 . S
H814 C828 0.930 . S
H815 C830 0.960 . S
H816 C830 0.960 . S
H817 C830 0.960 . S
C818 H810 0.929 . S
C818 C819 1.377 . S
C818 C820 1.384 . S
C819 C818 1.377 . S
C819 C825 1.390 . S
C820 H811 0.930 . S
C820 C818 1.384 . S
C820 C821 1.372 . S
C821 C820 1.372 . S
C821 C822 1.400 . S
C821 C826 1.490 . S
C822 H812 0.930 . S
C822 C821 1.400 . S
C822 C825 1.386 . S
H823 C839 0.930 . S
H824 C840 0.931 . S
C825 H813 0.929 . S
C825 C819 1.390 . S
C825 C822 1.386 . S
C826 C821 1.490 . S
C826 C828 1.395 . S
C826 C829 1.403 . S
H827 C833 0.930 1_554 S
C828 H814 0.930 . S
C828 C826 1.395 . S
C828 C831 1.403 1_556 S
C829 C826 1.403 . S
C829 C830 1.524 . S
C829 C833 1.400 . S
C830 H815 0.960 . S
C830 H816 0.960 . S
C830 H817 0.960 . S
C830 C829 1.524 . S
C831 C828 1.403 1_554 S
C831 C832 1.392 . S
C831 C835 1.495 . S
C832 C831 1.392 . S
C832 C833 1.385 1_554 S
C832 C834 1.478 . S
C833 H827 0.930 1_556 S
C833 C829 1.400 . S
C833 C832 1.385 1_556 S
C834 C832 1.478 . S
C834 C836 1.381 . S
C834 C840 1.383 . S
C835 C831 1.495 . S
C835 H841 0.959 . S
C835 H842 0.961 . S
C835 H843 0.960 . S
C836 C834 1.381 . S
C836 C837 1.394 . S
C836 H844 0.930 . S
C837 C836 1.394 . S
C837 C838 1.383 . S
C837 H845 0.929 . S
C838 C837 1.383 . S
C838 C839 1.377 . S
C839 H823 0.930 . S
C839 C838 1.377 . S
C839 C840 1.379 . S
C840 H824 0.931 . S
C840 C834 1.383 . S
C840 C839 1.379 . S
H841 C835 0.959 . S
H842 C835 0.961 . S
H843 C835 0.960 . S
H844 C836 0.930 . S
H845 C837 0.929 . S
H846 C854 0.929 . S
H847 C856 0.930 . S
H848 C858 0.930 1_655 S
H849 C861 0.929 1_655 S
H850 C864 0.930 . S
H851 C866 0.960 . S
H852 C866 0.960 . S
H853 C866 0.960 . S
C854 H846 0.929 . S
C854 C855 1.377 . S
C854 C856 1.384 . S
C855 C854 1.377 . S
C855 C861 1.390 . S
C856 H847 0.930 . S
C856 C854 1.384 . S
C856 C857 1.372 . S
C857 C856 1.372 . S
C857 C858 1.400 . S
C857 C862 1.490 . S
C858 H848 0.930 1_455 S
C858 C857 1.400 . S
C858 C861 1.386 . S
H859 C875 0.930 . S
H860 C876 0.931 1_655 S
C861 H849 0.929 1_455 S
C861 C855 1.390 . S
C861 C858 1.386 . S
C862 C857 1.490 . S
C862 C864 1.395 . S
C862 C865 1.403 . S
H863 C869 0.930 1_655 S
C864 H850 0.930 . S
C864 C862 1.395 . S
C864 C867 1.403 . S
C865 C862 1.403 . S
C865 C866 1.524 1_455 S
C865 C869 1.400 . S
C866 H851 0.960 . S
C866 H852 0.960 . S
C866 H853 0.960 . S
C866 C865 1.524 1_655 S
C867 C864 1.403 . S
C867 C868 1.392 . S
C867 C871 1.495 . S
C868 C867 1.392 . S
C868 C869 1.385 . S
C868 C870 1.478 . S
C869 H863 0.930 1_455 S
C869 C865 1.400 . S
C869 C868 1.385 . S
C870 C868 1.478 . S
C870 C872 1.381 . S
C870 C876 1.383 . S
C871 C867 1.495 . S
C871 H877 0.959 . S
C871 H878 0.961 . S
C871 H879 0.960 . S
C872 C870 1.381 . S
C872 C873 1.394 . S
C872 H880 0.930 . S
C873 C872 1.394 . S
C873 C874 1.383 . S
C873 H881 0.929 . S
C874 C873 1.383 . S
C874 C875 1.377 1_455 S
C875 H859 0.930 . S
C875 C874 1.377 1_655 S
C875 C876 1.379 1_655 S
C876 H860 0.931 1_455 S
C876 C870 1.383 . S
C876 C875 1.379 1_455 S
H877 C871 0.959 . S
H878 C871 0.961 . S
H879 C871 0.960 . S
H880 C872 0.930 . S
H881 C873 0.929 . S
C243 C6 0.600 . S
C262 C226 0.560 . S
C279 C59 1.982 . S
C298 C188 1.901 . S
C315 C86 1.265 . S
C334 C207 1.216 . S
C351 C15 0.162 . S
C370 C221 0.144 . S
C406 C183 1.849 . S
C387 C50 1.855 . S
C442 C202 1.046 . S
C423 C95 1.086 . S
C459 C46 1.321 . S
C478 C150 1.281 . S
C495 C99 3.028 . S
C514 C164 2.997 1_655 S
C531 C10 1.864 . S
C550 C126 1.856 1_565 S
C586 C145 1.061 . S
C567 C55 1.071 . S
C622 C169 3.045 . S
C603 C90 3.092 . S
C639 C19 1.988 . S
C658 C131 1.939 . S
C694 C160 1.718 . S
C675 C18 1.690 . S
C711 C49 1.476 . S
C730 C122 1.548 . S
C747 C98 1.557 . S
C766 C141 1.582 . S
C802 C198 1.562 . S
C783 C58 1.572 . S
C838 C217 1.379 . S
C819 C89 1.373 . S
C855 C9 1.438 . S
C874 C179 1.479 . S
