# Generated by pormake.
# Topology pyr, (3,6)-cn, num edge types: 1
# Building blocks:
#     Node 0, Type 0, BuildingBlock: BELTOD_clean_linker_0, # of connection points: 3
#     Node 1, Type 0, BuildingBlock: BELTOD_clean_linker_0, # of connection points: 3
#     Node 2, Type 0, BuildingBlock: BELTOD_clean_linker_0, # of connection points: 3
#     Node 3, Type 0, BuildingBlock: BELTOD_clean_linker_0, # of connection points: 3
#     Node 4, Type 0, BuildingBlock: BELTOD_clean_linker_0, # of connection points: 3
#     Node 5, Type 0, BuildingBlock: BELTOD_clean_linker_0, # of connection points: 3
#     Node 6, Type 0, BuildingBlock: BELTOD_clean_linker_0, # of connection points: 3
#     Node 7, Type 0, BuildingBlock: BELTOD_clean_linker_0, # of connection points: 3
#     Node 8, Type 1, BuildingBlock: MIDCAF_clean_sbu_0, # of connection points: 6
#     Node 9, Type 1, BuildingBlock: MIDCAF_clean_sbu_0, # of connection points: 6
#     Node 10, Type 1, BuildingBlock: MIDCAF_clean_sbu_0, # of connection points: 6
#     Node 11, Type 1, BuildingBlock: MIDCAF_clean_sbu_0, # of connection points: 6
#     Edge 12, Type (0, 1), BuildingBlock: CIFDUS_clean_linker_0, # of connection points: 2
#     Edge 13, Type (0, 1), BuildingBlock: CIFDUS_clean_linker_0, # of connection points: 2
#     Edge 14, Type (0, 1), BuildingBlock: CIFDUS_clean_linker_0, # of connection points: 2
#     Edge 15, Type (0, 1), BuildingBlock: CIFDUS_clean_linker_0, # of connection points: 2
#     Edge 16, Type (0, 1), BuildingBlock: CIFDUS_clean_linker_0, # of connection points: 2
#     Edge 17, Type (0, 1), BuildingBlock: CIFDUS_clean_linker_0, # of connection points: 2
#     Edge 18, Type (0, 1), BuildingBlock: CIFDUS_clean_linker_0, # of connection points: 2
#     Edge 19, Type (0, 1), BuildingBlock: CIFDUS_clean_linker_0, # of connection points: 2
#     Edge 20, Type (0, 1), BuildingBlock: CIFDUS_clean_linker_0, # of connection points: 2
#     Edge 21, Type (0, 1), BuildingBlock: CIFDUS_clean_linker_0, # of connection points: 2
#     Edge 22, Type (0, 1), BuildingBlock: CIFDUS_clean_linker_0, # of connection points: 2
#     Edge 23, Type (0, 1), BuildingBlock: CIFDUS_clean_linker_0, # of connection points: 2
#     Edge 24, Type (0, 1), BuildingBlock: CIFDUS_clean_linker_0, # of connection points: 2
#     Edge 25, Type (0, 1), BuildingBlock: CIFDUS_clean_linker_0, # of connection points: 2
#     Edge 26, Type (0, 1), BuildingBlock: CIFDUS_clean_linker_0, # of connection points: 2
#     Edge 27, Type (0, 1), BuildingBlock: CIFDUS_clean_linker_0, # of connection points: 2
#     Edge 28, Type (0, 1), BuildingBlock: CIFDUS_clean_linker_0, # of connection points: 2
#     Edge 29, Type (0, 1), BuildingBlock: CIFDUS_clean_linker_0, # of connection points: 2
#     Edge 30, Type (0, 1), BuildingBlock: CIFDUS_clean_linker_0, # of connection points: 2
#     Edge 31, Type (0, 1), BuildingBlock: CIFDUS_clean_linker_0, # of connection points: 2
#     Edge 32, Type (0, 1), BuildingBlock: CIFDUS_clean_linker_0, # of connection points: 2
#     Edge 33, Type (0, 1), BuildingBlock: CIFDUS_clean_linker_0, # of connection points: 2
#     Edge 34, Type (0, 1), BuildingBlock: CIFDUS_clean_linker_0, # of connection points: 2
#     Edge 35, Type (0, 1), BuildingBlock: CIFDUS_clean_linker_0, # of connection points: 2
# Relax obj value: 0.020
# Max RMSD: 0.062
# Mean RMSD: 0.033
data_MOF--net-pyr--node1-MIDCAF_clean_sbu_0--node2-BELTOD_clean_linker_0--edge1-CIFDUS_clean_linker_0
_symmetry_space_group_name_H-M    P1
_symmetry_Int_Tables_number       1
_symmetry_cell_setting            triclinic
loop_
_symmetry_equiv_pos_as_xyz
'x, y, z'
_cell_length_a     36.054115
_cell_length_b     36.327593
_cell_length_c     35.688125
_cell_angle_alpha  89.496948
_cell_angle_beta   89.976189
_cell_angle_gamma 90.372318
loop_
_atom_site_label
_atom_site_type_symbol
_atom_site_fract_x
_atom_site_fract_y
_atom_site_fract_z
_atom_type_partial_charge
P0 P 0.25436 0.26915 0.26159 0.0
H1 H 0.28599 0.28102 0.18675 0.0
H2 H 0.32984 0.24729 0.14939 0.0
H3 H 0.34359 0.1688 0.2402 0.0
H4 H 0.29656 0.20123 0.27615 0.0
H5 H 0.22644 0.34457 0.2687 0.0
H6 H 0.18588 0.38243 0.22946 0.0
H7 H 0.17732 0.29342 0.15019 0.0
H8 H 0.2162 0.25537 0.19048 0.0
H9 H 0.26804 0.2367 0.33548 0.0
H10 H 0.17927 0.23688 0.25452 0.0
O11 O 0.27963 0.29704 0.2885 0.0
H12 H 0.23011 0.19881 0.37794 0.0
H13 H 0.14127 0.19923 0.29681 0.0
C14 C 0.28655 0.2429 0.23372 0.0
C15 C 0.29748 0.25596 0.19833 0.0
C16 C 0.32354 0.23691 0.17719 0.0
C17 C 0.34087 0.2051 0.19155 0.0
C18 C 0.33051 0.19261 0.22762 0.0
C19 C 0.30358 0.21128 0.2484 0.0
C20 C 0.22488 0.29734 0.2322 0.0
C21 C 0.21589 0.3333 0.24279 0.0
C22 C 0.1929 0.35507 0.22013 0.0
C23 C 0.17834 0.3412 0.18644 0.0
C24 C 0.18753 0.30503 0.17608 0.0
C25 C 0.21011 0.28324 0.19895 0.0
C26 C 0.22643 0.24006 0.29197 0.0
C27 C 0.24041 0.22861 0.32681 0.0
C28 C 0.21874 0.20685 0.35102 0.0
C29 C 0.18254 0.19626 0.34089 0.0
C30 C 0.1688 0.20744 0.30572 0.0
C31 C 0.19064 0.22889 0.28139 0.0
P32 P 0.29687 0.81145 0.72556 0.0
H33 H 0.3691 0.83627 0.75017 0.0
H34 H 0.39255 0.85745 0.81025 0.0
H35 H 0.28864 0.82677 0.86269 0.0
H36 H 0.26535 0.80526 0.80201 0.0
H37 H 0.2996 0.78183 0.65045 0.0
H38 H 0.32897 0.72784 0.62399 0.0
H39 H 0.3639 0.69394 0.73489 0.0
H40 H 0.332 0.74681 0.76141 0.0
H41 H 0.2455 0.86276 0.76039 0.0
H42 H 0.23913 0.77318 0.68215 0.0
O43 O 0.31428 0.84413 0.69736 0.0
H44 H 0.18247 0.8803 0.74461 0.0
H45 H 0.17828 0.7928 0.66305 0.0
C46 C 0.3151 0.82051 0.77149 0.0
C47 C 0.35153 0.8336 0.77469 0.0
C48 C 0.36503 0.84536 0.80918 0.0
C49 C 0.34229 0.84412 0.84118 0.0
C50 C 0.30658 0.82852 0.83838 0.0
C51 C 0.29322 0.81636 0.80376 0.0
C52 C 0.31363 0.76839 0.70784 0.0
C53 C 0.3127 0.76223 0.66919 0.0
C54 C 0.32995 0.73152 0.65405 0.0
C55 C 0.34954 0.70684 0.67718 0.0
C56 C 0.34892 0.71218 0.71622 0.0
C57 C 0.33091 0.74264 0.73144 0.0
C58 C 0.24725 0.81649 0.72266 0.0
C59 C 0.23026 0.84621 0.74047 0.0
C60 C 0.19428 0.85674 0.73074 0.0
C61 C 0.17518 0.83885 0.7016 0.0
C62 C 0.19146 0.80739 0.68579 0.0
C63 C 0.22693 0.79622 0.69644 0.0
P64 P 0.75601 0.27473 0.78551 0.0
H65 H 0.77257 0.27162 0.86654 0.0
H66 H 0.81263 0.30747 0.90641 0.0
H67 H 0.84944 0.37114 0.81016 0.0
H68 H 0.8061 0.33716 0.77089 0.0
H69 H 0.73802 0.19612 0.78079 0.0
H70 H 0.70073 0.15467 0.82004 0.0
H71 H 0.66731 0.24662 0.88773 0.0
H72 H 0.70442 0.28822 0.84799 0.0
H73 H 0.77835 0.30441 0.71297 0.0
H74 H 0.68179 0.30947 0.78407 0.0
O75 O 0.78478 0.24769 0.76176 0.0
H76 H 0.74931 0.34683 0.66858 0.0
H77 H 0.65239 0.35182 0.73935 0.0
C78 C 0.78485 0.30255 0.81576 0.0
C79 C 0.78809 0.29408 0.854 0.0
C80 C 0.81204 0.31423 0.87683 0.0
C81 C 0.83486 0.34233 0.86176 0.0
C82 C 0.83196 0.35036 0.82318 0.0
C83 C 0.80714 0.33074 0.80052 0.0
C84 C 0.72457 0.24525 0.81182 0.0
C85 C 0.72247 0.20753 0.80385 0.0
C86 C 0.7011 0.1838 0.82629 0.0
C87 C 0.68156 0.19731 0.85729 0.0
C88 C 0.68262 0.23533 0.86442 0.0
C89 C 0.70356 0.25914 0.84157 0.0
C90 C 0.73224 0.30351 0.7518 0.0
C91 C 0.75071 0.31429 0.71887 0.0
C92 C 0.73414 0.33865 0.69353 0.0
C93 C 0.69858 0.35264 0.70048 0.0
C94 C 0.67967 0.34117 0.73308 0.0
C95 C 0.69653 0.31705 0.75874 0.0
P96 P 0.76266 0.78942 0.25783 0.0
H97 H 0.80607 0.85714 0.24958 0.0
H98 H 0.84722 0.89058 0.29231 0.0
H99 H 0.81887 0.81367 0.38103 0.0
H100 H 0.77916 0.77995 0.33819 0.0
H101 H 0.74895 0.75889 0.18375 0.0
H102 H 0.78783 0.72417 0.14052 0.0
H103 H 0.88152 0.73908 0.2145 0.0
H104 H 0.8423 0.77255 0.25795 0.0
H105 H 0.69392 0.79078 0.30103 0.0
H106 H 0.77554 0.71032 0.27001 0.0
O107 O 0.73312 0.81727 0.23569 0.0
H108 H 0.66235 0.74466 0.34016 0.0
H109 H 0.74358 0.66388 0.30783 0.0
C110 C 0.78941 0.81616 0.29064 0.0
C111 C 0.80848 0.84782 0.27838 0.0
C112 C 0.83183 0.86699 0.30288 0.0
C113 C 0.83652 0.85471 0.34008 0.0
C114 C 0.8164 0.82357 0.35243 0.0
C115 C 0.79333 0.80436 0.32791 0.0
C116 C 0.79281 0.76876 0.22377 0.0
C117 C 0.77803 0.75519 0.19027 0.0
C118 C 0.80035 0.73547 0.16552 0.0
C119 C 0.83783 0.72879 0.17403 0.0
C120 C 0.85269 0.74336 0.20725 0.0
C121 C 0.83033 0.76288 0.23201 0.0
C122 C 0.73673 0.75392 0.28215 0.0
C123 C 0.70451 0.76295 0.30192 0.0
C124 C 0.68643 0.73648 0.32419 0.0
C125 C 0.70038 0.70046 0.32719 0.0
C126 C 0.73227 0.6914 0.30655 0.0
C127 C 0.75042 0.71793 0.28453 0.0
P128 P 0.93484 0.96027 0.95077 0.0
H129 H 0.89209 0.95961 0.01909 0.0
H130 H 0.83009 0.97993 0.03504 0.0
H131 H 0.81144 0.01114 0.91931 0.0
H132 H 0.87255 0.9877 0.90316 0.0
H133 H 0.9687 0.92944 0.0182 0.0
H134 H 0.97871 0.86687 0.04045 0.0
H135 H 0.92509 0.8249 0.94108 0.0
H136 H 0.91344 0.88817 0.91993 0.0
H137 H 0.93097 0.02575 0.90419 0.0
H138 H 0.97447 0.91604 0.89361 0.0
O139 O 0.96118 0.98758 0.97727 0.0
H140 H 0.95363 0.04123 0.84184 0.0
H141 H 0.99837 0.93171 0.83133 0.0
C142 C 0.88739 0.97272 0.96013 0.0
C143 C 0.87452 0.97049 0.99706 0.0
C144 C 0.8391 0.98274 0.00621 0.0
C145 C 0.8158 0.99833 0.97871 0.0
C146 C 0.82844 0.99949 0.94135 0.0
C147 C 0.86377 0.98644 0.9321 0.0
C148 C 0.94158 0.91347 0.96667 0.0
C149 C 0.95912 0.90685 1.00108 0.0
C150 C 0.96488 0.8709 0.01381 0.0
C151 C 0.95339 0.84062 0.9923 0.0
C152 C 0.93424 0.84743 0.95853 0.0
C153 C 0.92801 0.88358 0.94607 0.0
C154 C 0.94948 0.96928 0.90311 0.0
C155 C 0.94489 0.00473 0.88818 0.0
C156 C 0.95849 0.01374 0.85267 0.0
C157 C 0.97804 0.98776 0.83147 0.0
C158 C 0.98296 0.95221 0.84659 0.0
C159 C 0.96907 0.94316 0.88225 0.0
P160 P 0.64386 0.15028 0.38555 0.0
H161 H 0.66871 0.22507 0.40185 0.0
H162 H 0.64367 0.273 0.44105 0.0
H163 H 0.5617 0.19607 0.48452 0.0
H164 H 0.585 0.14927 0.44217 0.0
H165 H 0.70966 0.11002 0.36269 0.0
H166 H 0.75443 0.07403 0.39855 0.0
H167 H 0.6817 0.07625 0.49466 0.0
H168 H 0.63705 0.11225 0.45874 0.0
H169 H 0.57711 0.18538 0.35716 0.0
H170 H 0.62685 0.07781 0.35456 0.0
O171 O 0.6713 0.17162 0.35443 0.0
H172 H 0.53141 0.16608 0.31061 0.0
H173 H 0.58194 0.05854 0.30765 0.0
C174 C 0.62846 0.18376 0.41883 0.0
C175 C 0.64544 0.21847 0.41991 0.0
C176 C 0.63132 0.24582 0.44298 0.0
C177 C 0.60038 0.23873 0.46615 0.0
C178 C 0.58498 0.20297 0.46658 0.0
C179 C 0.59854 0.17595 0.44268 0.0
C180 C 0.67074 0.11514 0.40852 0.0
C181 C 0.70289 0.10201 0.39119 0.0
C182 C 0.7283 0.08104 0.41159 0.0
C183 C 0.7218 0.07293 0.4496 0.0
C184 C 0.6876 0.08262 0.46554 0.0
C185 C 0.66215 0.10346 0.44505 0.0
C186 C 0.60501 0.13282 0.35968 0.0
C187 C 0.57745 0.15722 0.34747 0.0
C188 C 0.5515 0.14627 0.32067 0.0
C189 C 0.553 0.11082 0.30537 0.0
C190 C 0.57946 0.08583 0.31932 0.0
C191 C 0.60537 0.09684 0.3461 0.0
P192 P 0.44042 0.59023 0.08793 0.0
H193 H 0.39013 0.53448 0.05679 0.0
H194 H 0.32278 0.53144 0.05064 0.0
H195 H 0.31366 0.63225 0.1136 0.0
H196 H 0.38096 0.63647 0.11683 0.0
H197 H 0.50306 0.63734 0.10927 0.0
H198 H 0.52266 0.69876 0.0897 0.0
H199 H 0.42889 0.70551 0.01468 0.0
H200 H 0.40912 0.64368 0.03467 0.0
H201 H 0.50849 0.5541 0.11255 0.0
H202 H 0.41381 0.60461 0.16451 0.0
O203 O 0.45846 0.56122 0.05696 0.0
H204 H 0.53514 0.54187 0.17438 0.0
H205 H 0.43948 0.59156 0.22605 0.0
C206 C 0.39057 0.58583 0.08707 0.0
C207 C 0.37357 0.55588 0.0693 0.0
C208 C 0.33491 0.55397 0.06618 0.0
C209 C 0.3125 0.58174 0.08135 0.0
C210 C 0.32984 0.61076 0.10075 0.0
C211 C 0.36843 0.61301 0.1031 0.0
C212 C 0.45408 0.63621 0.07418 0.0
C213 C 0.48645 0.65198 0.08886 0.0
C214 C 0.49787 0.68706 0.07732 0.0
C215 C 0.47734 0.70699 0.05057 0.0
C216 C 0.44504 0.691 0.03562 0.0
C217 C 0.43373 0.6557 0.04707 0.0
C218 C 0.45867 0.57947 0.13379 0.0
C219 C 0.49316 0.56212 0.13723 0.0
C220 C 0.50841 0.55521 0.17262 0.0
C221 C 0.48949 0.56571 0.20529 0.0
C222 C 0.45516 0.58358 0.20158 0.0
C223 C 0.44008 0.59061 0.16621 0.0
P224 P 0.16376 0.37381 0.66157 0.0
H225 H 0.19159 0.34552 0.59073 0.0
H226 H 0.16367 0.30542 0.54329 0.0
H227 H 0.05936 0.30902 0.60267 0.0
H228 H 0.08729 0.34817 0.64989 0.0
H229 H 0.2428 0.38696 0.67419 0.0
H230 H 0.28698 0.43021 0.64681 0.0
H231 H 0.19828 0.48163 0.5842 0.0
H232 H 0.15447 0.43667 0.61046 0.0
H233 H 0.15545 0.37022 0.74291 0.0
H234 H 0.10103 0.42386 0.64993 0.0
O235 O 0.18769 0.34191 0.68505 0.0
H236 H 0.11434 0.40109 0.78647 0.0
H237 H 0.0592 0.45466 0.69352 0.0
C238 C 0.14132 0.35056 0.62339 0.0
C239 C 0.16245 0.33838 0.59293 0.0
C240 C 0.14657 0.3154 0.56594 0.0
C241 C 0.10924 0.30444 0.56901 0.0
C242 C 0.08794 0.3177 0.59899 0.0
C243 C 0.10394 0.34018 0.62612 0.0
C244 C 0.19543 0.40836 0.64406 0.0
C245 C 0.23277 0.40765 0.65475 0.0
C246 C 0.25801 0.43286 0.63938 0.0
C247 C 0.24633 0.45963 0.61323 0.0
C248 C 0.20841 0.46117 0.60386 0.0
C249 C 0.18324 0.43561 0.61902 0.0
C250 C 0.13129 0.39471 0.69316 0.0
C251 C 0.13426 0.38824 0.73178 0.0
C252 C 0.11043 0.40569 0.75671 0.0
C253 C 0.08324 0.43017 0.7435 0.0
C254 C 0.07995 0.43611 0.70462 0.0
C255 C 0.10387 0.41859 0.67968 0.0
Zn256 Zn 0.97978 0.0755 0.5627 0.0
Zn257 Zn 0.05213 0.97618 0.49 0.0
Zn258 Zn 0.01109 0.02727 0.52469 0.0
C259 C 0.08231 0.0456 0.47132 0.0
C260 C 0.97902 0.97412 0.46057 0.0
O261 O 0.01422 0.0135 0.58604 0.0
O262 O 0.99676 0.06439 0.61416 0.0
C263 C 0.02617 0.11597 0.52007 0.0
O264 O 0.05441 0.05623 0.49105 0.0
O265 O 0.089 0.01167 0.46794 0.0
O266 O 0.01051 0.9593 0.45817 0.0
O267 O 0.9731 0.99994 0.48443 0.0
O268 O 0.99745 0.12146 0.53929 0.0
O269 O 0.03634 0.08272 0.51313 0.0
O270 O 0.95132 0.02262 0.50902 0.0
O271 O 0.92887 0.05996 0.55167 0.0
C272 C 0.92335 0.03729 0.52568 0.0
O273 O 0.0366 0.98901 0.56569 0.0
O274 O 0.06585 0.94568 0.53422 0.0
C275 C 0.00849 0.03182 0.61632 0.0
C276 C 0.0559 0.95929 0.565 0.0
Zn277 Zn 0.46741 0.04836 0.98801 0.0
Zn278 Zn 0.55959 0.97237 0.07215 0.0
Zn279 Zn 0.51516 0.00928 0.03065 0.0
C280 C 0.60485 0.01533 0.02768 0.0
C281 C 0.52012 0.92002 0.03434 0.0
O282 O 0.48191 0.04595 0.06718 0.0
O283 O 0.44854 0.08063 0.02873 0.0
C284 C 0.53994 0.06213 0.96131 0.0
O285 O 0.57308 0.02158 0.01241 0.0
O286 O 0.60671 0.99679 0.05768 0.0
O287 O 0.54978 0.9225 0.0529 0.0
O288 O 0.50256 0.94942 0.02462 0.0
O289 O 0.50635 0.06777 0.95313 0.0
O290 O 0.54855 0.04204 0.98993 0.0
O291 O 0.47971 0.97025 1.00019 0.0
O292 O 0.43756 0.00474 0.97183 0.0
C293 C 0.45068 0.97336 0.97939 0.0
O294 O 0.5055 0.02495 0.08973 0.0
O295 O 0.53774 0.98355 0.12139 0.0
C296 C 0.45847 0.07211 0.0616 0.0
C297 C 0.5154 0.01011 0.12106 0.0
Zn298 Zn 0.57211 0.56568 0.55036 0.0
Zn299 Zn 0.47873 0.48367 0.47359 0.0
Zn300 Zn 0.52324 0.52461 0.51178 0.0
C301 C 0.52719 0.4358 0.50836 0.0
C302 C 0.51305 0.52734 0.42096 0.0
O303 O 0.48988 0.55817 0.5493 0.0
O304 O 0.53185 0.59652 0.5726 0.0
C305 C 0.585 0.49316 0.5714 0.0
O306 O 0.54108 0.4667 0.51928 0.0
O307 O 0.49787 0.43536 0.48911 0.0
O308 O 0.49121 0.50018 0.42268 0.0
O309 O 0.52727 0.54079 0.45113 0.0
O310 O 0.59487 0.52535 0.5802 0.0
O311 O 0.56047 0.48818 0.54554 0.0
O312 O 0.55318 0.56191 0.47204 0.0
O313 O 0.59913 0.58526 0.50578 0.0
C314 C 0.58288 0.58178 0.47467 0.0
O315 O 0.46574 0.53169 0.53376 0.0
O316 O 0.43112 0.49924 0.49488 0.0
C317 C 0.49846 0.58622 0.56933 0.0
C318 C 0.43368 0.51972 0.52313 0.0
Zn319 Zn 0.04874 0.58375 0.97099 0.0
Zn320 Zn 0.97378 0.49813 0.05987 0.0
Zn321 Zn 0.01361 0.54087 0.01692 0.0
C322 C 0.04747 0.48292 0.07708 0.0
C323 C 0.95465 0.47854 0.98829 0.0
O324 O 0.99222 0.59902 0.0218 0.0
O325 O 0.02284 0.63013 0.97785 0.0
C326 C 0.10114 0.55612 0.02178 0.0
O327 O 0.05296 0.5112 0.05552 0.0
O328 O 0.0151 0.47029 0.08173 0.0
O329 O 0.94393 0.47252 0.02145 0.0
O330 O 0.98105 0.50187 0.98168 0.0
O331 O 0.09738 0.5794 0.99564 0.0
O332 O 0.07304 0.53704 0.03339 0.0
O333 O 0.00782 0.51887 0.95902 0.0
O334 O 0.04082 0.55725 0.92383 0.0
C335 C 0.02122 0.52848 0.92681 0.0
O336 O 0.97605 0.5767 0.04962 0.0
O337 O 0.95175 0.53746 0.09078 0.0
C338 C 0.99887 0.62923 0.00351 0.0
C339 C 0.95589 0.57002 0.07881 0.0
H340 H 0.2033 0.13553 0.38063 0.0
H341 H 0.10944 0.20553 0.35901 0.0
H342 H 0.07055 0.16662 0.3995 0.0
H343 H 0.06245 0.11062 0.43852 0.0
H344 H 0.15619 0.04005 0.45848 0.0
H345 H 0.19586 0.08122 0.42142 0.0
C346 C 0.17444 0.1425 0.38511 0.0
C347 C 0.1593 0.17332 0.36668 0.0
C348 C 0.15216 0.11979 0.40809 0.0
C349 C 0.12169 0.18169 0.37245 0.0
C350 C 0.09946 0.15954 0.39573 0.0
C351 C 0.09171 0.10469 0.43527 0.0
C352 C 0.10646 0.07254 0.4515 0.0
C353 C 0.11427 0.12824 0.41335 0.0
C354 C 0.14422 0.06468 0.44631 0.0
C355 C 0.16691 0.08819 0.42511 0.0
H356 H 0.41006 0.84142 0.87485 0.0
H357 H 0.30196 0.89078 0.88413 0.0
H358 H 0.32522 0.93255 0.93194 0.0
H359 H 0.3783 0.96103 0.96398 0.0
H360 H 0.48705 0.91384 0.9524 0.0
H361 H 0.46163 0.86515 0.91296 0.0
C362 C 0.39151 0.86095 0.88781 0.0
C363 C 0.35448 0.86329 0.87564 0.0
C364 C 0.40531 0.88555 0.9146 0.0
C365 C 0.33053 0.88826 0.8931 0.0
C366 C 0.34391 0.91246 0.92017 0.0
C367 C 0.39623 0.93966 0.9533 0.0
C368 C 0.43439 0.94086 0.96107 0.0
C369 C 0.38154 0.91227 0.93004 0.0
C370 C 0.45746 0.91312 0.94719 0.0
C371 C 0.443 0.88549 0.92438 0.0
H372 H 0.62886 0.35446 0.67008 0.0
H373 H 0.73254 0.41427 0.67358 0.0
H374 H 0.70706 0.46193 0.63267 0.0
H375 H 0.65492 0.48781 0.59755 0.0
H376 H 0.55098 0.42881 0.59309 0.0
H377 H 0.57693 0.37944 0.63215 0.0
C378 C 0.64576 0.37797 0.66183 0.0
C379 C 0.68253 0.38085 0.67488 0.0
C380 C 0.63096 0.40528 0.63796 0.0
C381 C 0.70429 0.41126 0.66368 0.0
C382 C 0.68971 0.43859 0.64039 0.0
C383 C 0.63804 0.464 0.60495 0.0
C384 C 0.60124 0.46174 0.5922 0.0
C385 C 0.65306 0.43601 0.62755 0.0
C386 C 0.57962 0.43081 0.60202 0.0
C387 C 0.59436 0.40277 0.62462 0.0
H388 H 0.8856 0.67588 0.19688 0.0
H389 H 0.84045 0.72616 0.09704 0.0
H390 H 0.87442 0.68252 0.05821 0.0
H391 H 0.9141 0.62711 0.05324 0.0
H392 H 0.95896 0.57823 0.15355 0.0
H393 H 0.928 0.62423 0.19175 0.0
C394 C 0.88374 0.67791 0.16661 0.0
C395 C 0.86052 0.70434 0.14997 0.0
C396 C 0.90322 0.65278 0.14457 0.0
C397 C 0.85782 0.70584 0.11064 0.0
C398 C 0.87736 0.68099 0.0884 0.0
C399 C 0.91802 0.62755 0.08326 0.0
C400 C 0.93931 0.60002 0.10054 0.0
C401 C 0.89982 0.65402 0.10509 0.0
C402 C 0.94276 0.59938 0.13972 0.0
C403 C 0.9251 0.62563 0.16154 0.0
H404 H 0.35681 0.13084 0.19059 0.0
H405 H 0.39071 0.2349 0.14125 0.0
H406 H 0.43095 0.20302 0.09797 0.0
H407 H 0.45306 0.14541 0.07048 0.0
H408 H 0.42469 0.04181 0.1229 0.0
H409 H 0.38692 0.0738 0.16952 0.0
C410 C 0.3735 0.14681 0.17104 0.0
C411 C 0.36933 0.18541 0.16866 0.0
C412 C 0.39781 0.12834 0.14675 0.0
C413 C 0.39165 0.20517 0.1429 0.0
C414 C 0.41518 0.18698 0.11826 0.0
C415 C 0.43904 0.13 0.09254 0.0
C416 C 0.44128 0.09145 0.09327 0.0
C417 C 0.41777 0.14857 0.11929 0.0
C418 C 0.42334 0.07159 0.122 0.0
C419 C 0.40159 0.08987 0.14844 0.0
H420 H 0.15771 0.91211 0.69652 0.0
H421 H 0.11665 0.80437 0.66583 0.0
H422 H 0.07305 0.83273 0.62243 0.0
H423 H 0.05378 0.88769 0.58627 0.0
H424 H 0.09123 0.99498 0.62091 0.0
H425 H 0.1281 0.96706 0.67105 0.0
C426 C 0.13847 0.89451 0.68165 0.0
C427 C 0.14183 0.85585 0.68368 0.0
C428 C 0.11287 0.91096 0.65722 0.0
C429 C 0.11616 0.8341 0.66376 0.0
C430 C 0.09092 0.8503 0.63902 0.0
C431 C 0.06935 0.90485 0.60548 0.0
C432 C 0.0704 0.94313 0.59986 0.0
C433 C 0.0903 0.88861 0.63428 0.0
C434 C 0.09018 0.96538 0.6249 0.0
C435 C 0.11141 0.94942 0.65334 0.0
H436 H 0.85895 0.41451 0.8562 0.0
H437 H 0.873 0.31527 0.92243 0.0
H438 H 0.91158 0.34859 0.96639 0.0
H439 H 0.93868 0.40638 0.98838 0.0
H440 H 0.9307 0.50443 0.92025 0.0
H441 H 0.89357 0.47072 0.87391 0.0
C442 C 0.87093 0.39984 0.87977 0.0
C443 C 0.86175 0.36244 0.8863 0.0
C444 C 0.8944 0.41894 0.90459 0.0
C445 C 0.8779 0.34429 0.91724 0.0
C446 C 0.90049 0.36323 0.94233 0.0
C447 C 0.92907 0.42022 0.96315 0.0
C448 C 0.93684 0.45779 0.95779 0.0
C449 C 0.9083 0.40064 0.93669 0.0
C450 C 0.92489 0.47545 0.92486 0.0
C451 C 0.90354 0.45623 0.89855 0.0
H452 H 0.62656 0.68823 0.34113 0.0
H453 H 0.73586 0.65161 0.37318 0.0
H454 H 0.70881 0.60935 0.41907 0.0
H455 H 0.6545 0.58561 0.45332 0.0
H456 H 0.54587 0.6255 0.42554 0.0
H457 H 0.57188 0.66322 0.37455 0.0
C458 C 0.64446 0.67103 0.35816 0.0
C459 C 0.68325 0.6732 0.35355 0.0
C460 C 0.62874 0.64711 0.38512 0.0
C461 C 0.70594 0.65025 0.37559 0.0
C462 C 0.69051 0.6262 0.40213 0.0
C463 C 0.63657 0.60221 0.43565 0.0
C464 C 0.59813 0.6018 0.44196 0.0
C465 C 0.65204 0.62477 0.40749 0.0
C466 C 0.57518 0.62388 0.41959 0.0
C467 C 0.59023 0.64602 0.39106 0.0
H468 H 0.18008 0.41583 0.17137 0.0
H469 H 0.11709 0.31673 0.14915 0.0
H470 H 0.07385 0.35168 0.11108 0.0
H471 H 0.05205 0.41004 0.08599 0.0
H472 H 0.1101 0.51073 0.11142 0.0
H473 H 0.15731 0.47559 0.14607 0.0
C474 C 0.15679 0.4019 0.15838 0.0
C475 C 0.15228 0.36343 0.16302 0.0
C476 C 0.13124 0.42243 0.13692 0.0
C477 C 0.122 0.34599 0.14556 0.0
C478 C 0.09695 0.36603 0.12394 0.0
C479 C 0.07518 0.42434 0.09896 0.0
C480 C 0.07811 0.46282 0.09554 0.0
C481 C 0.10118 0.40416 0.11963 0.0
C482 C 0.10795 0.481 0.11273 0.0
C483 C 0.1346 0.46092 0.13291 0.0
H484 H 0.63292 0.14383 0.83672 0.0
H485 H 0.68283 0.19356 0.93379 0.0
H486 H 0.64689 0.15248 0.97497 0.0
H487 H 0.59795 0.10493 0.98338 0.0
H488 H 0.54471 0.05949 0.88599 0.0
H489 H 0.58573 0.09546 0.84495 0.0
C490 C 0.63616 0.1454 0.86689 0.0
C491 C 0.66035 0.17177 0.88219 0.0
C492 C 0.6149 0.12222 0.89033 0.0
C493 C 0.66401 0.17377 0.92136 0.0
C494 C 0.64363 0.15016 0.9449 0.0
C495 C 0.59597 0.10251 0.95317 0.0
C496 C 0.56869 0.07951 0.93756 0.0
C497 C 0.61859 0.12458 0.92974 0.0
C498 C 0.56571 0.07698 0.89846 0.0
C499 C 0.58899 0.09766 0.87503 0.0
H500 H 0.85102 0.92853 0.34873 0.0
H501 H 0.88448 0.82087 0.38782 0.0
H502 H 0.92998 0.84873 0.42924 0.0
H503 H 0.96139 0.90311 0.45365 0.0
H504 H 0.93109 0.0111 0.41405 0.0
H505 H 0.88339 0.98381 0.3733 0.0
C506 C 0.8684 0.91121 0.36619 0.0
C507 C 0.86398 0.8726 0.36533 0.0
C508 C 0.89506 0.92746 0.38982 0.0
C509 C 0.88661 0.85061 0.38839 0.0
C510 C 0.9129 0.86649 0.41193 0.0
C511 C 0.9442 0.92063 0.43614 0.0
C512 C 0.94912 0.95893 0.4371 0.0
C513 C 0.91739 0.90477 0.41282 0.0
C514 C 0.92724 0.9815 0.414 0.0
C515 C 0.90014 0.96588 0.39074 0.0
H516 H 0.39096 0.71289 0.61401 0.0
H517 H 0.36244 0.63616 0.70264 0.0
H518 H 0.40551 0.5912 0.67667 0.0
H519 H 0.45403 0.57527 0.63025 0.0
H520 H 0.47956 0.65176 0.54088 0.0
H521 H 0.43458 0.69539 0.56557 0.0
C522 C 0.39332 0.68605 0.62729 0.0
C523 C 0.3733 0.67801 0.66024 0.0
C524 C 0.41778 0.66039 0.61213 0.0
C525 C 0.37778 0.64333 0.6775 0.0
C526 C 0.4023 0.61754 0.66258 0.0
C527 C 0.44884 0.60107 0.61579 0.0
C528 C 0.46932 0.6103 0.58357 0.0
C529 C 0.42279 0.62595 0.63013 0.0
C530 C 0.4637 0.64427 0.56564 0.0
C531 C 0.43809 0.66913 0.57973 0.0
H532 H 0.97976 0.94665 0.76727 0.0
H533 H 0.01121 0.0527 0.81134 0.0
H534 H 0.02779 0.07412 0.74873 0.0
H535 H 0.02655 0.06536 0.68091 0.0
H536 H 0.99597 0.95977 0.63585 0.0
H537 H 0.98735 0.93509 0.69941 0.0
C538 C 0.99097 0.97417 0.76331 0.0
C539 C 0.99317 0.99833 0.79397 0.0
C540 C 0.00072 0.9864 0.72702 0.0
C541 C 0.00796 0.03388 0.78818 0.0
C542 C 0.01775 0.04613 0.75238 0.0
C543 C 0.01869 0.03672 0.68506 0.0
C544 C 0.01162 0.0145 0.65382 0.0
C545 C 0.01311 0.02305 0.7215 0.0
C546 C 0.0018 0.97737 0.65949 0.0
C547 C 0.99647 0.96339 0.69583 0.0
H548 H 0.51823 0.04611 0.28962 0.0
H549 H 0.5401 0.15448 0.24403 0.0
H550 H 0.5206 0.13414 0.18218 0.0
H551 H 0.51222 0.08222 0.1391 0.0
H552 H 0.49667 0.97277 0.18417 0.0
H553 H 0.49853 0.99666 0.24786 0.0
C554 C 0.518 0.06543 0.26627 0.0
C555 C 0.53144 0.10143 0.27128 0.0
C556 C 0.50845 0.05312 0.23042 0.0
C557 C 0.53003 0.12651 0.24103 0.0
C558 C 0.51925 0.1148 0.20546 0.0
C559 C 0.50776 0.06393 0.1629 0.0
C560 C 0.5047 0.02587 0.15724 0.0
C561 C 0.51054 0.07767 0.19945 0.0
C562 C 0.49935 0.00221 0.18812 0.0
C563 C 0.50063 0.01581 0.22449 0.0
H564 H 0.4882 0.60806 0.26818 0.0
H565 H 0.5241 0.50245 0.22768 0.0
H566 H 0.54146 0.48404 0.29108 0.0
H567 H 0.53811 0.49447 0.35893 0.0
H568 H 0.49526 0.59675 0.39994 0.0
H569 H 0.48962 0.62034 0.33578 0.0
C570 C 0.49997 0.58107 0.27318 0.0
C571 C 0.50436 0.55655 0.24315 0.0
C572 C 0.50892 0.57021 0.30994 0.0
C573 C 0.52052 0.52201 0.25009 0.0
C574 C 0.53025 0.51132 0.28645 0.0
C575 C 0.52876 0.52237 0.35366 0.0
C576 C 0.51867 0.54458 0.38397 0.0
C577 C 0.52353 0.53475 0.31668 0.0
C578 C 0.50525 0.58012 0.37707 0.0
C579 C 0.50116 0.59319 0.34034 0.0
H580 H 0.05083 0.40652 0.80878 0.0
H581 H 0.06671 0.50319 0.73921 0.0
H582 H 0.04119 0.54162 0.78829 0.0
H583 H 0.0247 0.54902 0.85417 0.0
H584 H 0.01308 0.45346 0.92583 0.0
H585 H 0.02567 0.41335 0.87269 0.0
C586 C 0.04827 0.43595 0.80424 0.0
C587 C 0.06124 0.45198 0.77055 0.0
C588 C 0.03446 0.45813 0.83307 0.0
C589 C 0.0569 0.49004 0.76473 0.0
C590 C 0.04257 0.51214 0.79295 0.0
C591 C 0.02408 0.51935 0.85796 0.0
C592 C 0.01838 0.50423 0.89391 0.0
C593 C 0.03274 0.49666 0.82769 0.0
C594 C 0.01718 0.46579 0.8984 0.0
C595 C 0.02488 0.44286 0.86809 0.0
H596 H 0.75085 0.99749 0.93789 0.0
H597 H 0.79662 0.03311 0.04359 0.0
H598 H 0.7348 0.04709 0.0662 0.0
H599 H 0.66749 0.04068 0.05943 0.0
H600 H 0.62101 0.00855 0.95341 0.0
H601 H 0.68348 0.0036 0.92679 0.0
C602 C 0.74758 0.00919 0.96551 0.0
C603 C 0.77855 0.01271 0.98946 0.0
C604 C 0.71177 0.01804 0.97826 0.0
C605 C 0.77335 0.02831 0.02506 0.0
C606 C 0.73796 0.03679 0.03797 0.0
C607 C 0.67109 0.03375 0.03014 0.0
C608 C 0.63995 0.02453 0.00849 0.0
C609 C 0.70692 0.03042 0.01536 0.0
C610 C 0.6447 0.01586 0.97054 0.0
C611 C 0.68042 0.01254 0.95551 0.0
H612 H 0.77256 0.01793 0.43878 0.0
H613 H 0.74226 0.10498 0.51431 0.0
H614 H 0.80085 0.09856 0.54713 0.0
H615 H 0.86348 0.07532 0.54832 0.0
H616 H 0.89398 0.98435 0.47895 0.0
H617 H 0.83264 0.98542 0.44896 0.0
C618 C 0.77859 0.03486 0.46293 0.0
C619 C 0.75324 0.0621 0.47389 0.0
C620 C 0.81267 0.03119 0.48177 0.0
C621 C 0.7611 0.08361 0.50548 0.0
C622 C 0.7948 0.08027 0.52405 0.0
C623 C 0.85688 0.05534 0.52687 0.0
C624 C 0.88446 0.03173 0.51322 0.0
C625 C 0.82126 0.05521 0.51148 0.0
C626 C 0.87444 0.00504 0.48693 0.0
C627 C 0.83905 0.00515 0.47065 0.0
H628 H 0.26375 0.52302 0.07765 0.0
H629 H 0.26903 0.64174 0.06835 0.0
H630 H 0.20346 0.64366 0.05384 0.0
H631 H 0.14569 0.61221 0.03902 0.0
H632 H 0.14 0.49381 0.0409 0.0
H633 H 0.2045 0.49106 0.06317 0.0
C634 C 0.25063 0.54931 0.07236 0.0
C635 C 0.27166 0.58219 0.07447 0.0
C636 C 0.21276 0.55028 0.0627 0.0
C637 C 0.25377 0.61598 0.06794 0.0
C638 C 0.21619 0.61717 0.05919 0.0
C639 C 0.1585 0.58579 0.04471 0.0
C640 C 0.13809 0.55326 0.03919 0.0
C641 C 0.19563 0.58456 0.05597 0.0
C642 C 0.15495 0.51919 0.04614 0.0
C643 C 0.19191 0.51769 0.05836 0.0
H644 H 0.30988 0.49088 0.64117 0.0
H645 H 0.2461 0.4802 0.53932 0.0
H646 H 0.29688 0.50701 0.50339 0.0
H647 H 0.36292 0.52191 0.49907 0.0
H648 H 0.42956 0.52426 0.59912 0.0
H649 H 0.37436 0.5134 0.63756 0.0
C650 C 0.30694 0.49471 0.61116 0.0
C651 C 0.27429 0.48281 0.59304 0.0
C652 C 0.33699 0.50872 0.59025 0.0
C653 C 0.27065 0.4891 0.55425 0.0
C654 C 0.29991 0.50416 0.5335 0.0
C655 C 0.36512 0.52111 0.52939 0.0
C656 C 0.40017 0.52429 0.54634 0.0
C657 C 0.33372 0.51244 0.55095 0.0
C658 C 0.40276 0.52312 0.58556 0.0
C659 C 0.37126 0.51604 0.60745 0.0
H660 H 0.91257 0.77673 0.98564 0.0
H661 H 0.01818 0.81829 0.02456 0.0
H662 H 0.03825 0.75608 0.0388 0.0
H663 H 0.0295 0.68961 0.0325 0.0
H664 H 0.9273 0.64696 0.98777 0.0
H665 H 0.902 0.70944 0.98396 0.0
C666 C 0.93992 0.77221 0.99734 0.0
C667 C 0.96375 0.80244 0.00384 0.0
C668 C 0.95188 0.73599 0.00462 0.0
C669 C 0.9989 0.79588 0.01966 0.0
C670 C 0.01062 0.76016 0.02761 0.0
C671 C 0.0012 0.69404 0.0232 0.0
C672 C 0.97977 0.66389 0.01155 0.0
C673 C 0.98775 0.73002 0.01937 0.0
C674 C 0.94371 0.66979 0.99815 0.0
C675 C 0.92955 0.70554 0.99538 0.0
H676 H 0.43524 0.76874 0.04164 0.0
H677 H 0.54756 0.72925 0.03323 0.0
H678 H 0.57002 0.79189 0.02245 0.0
H679 H 0.55875 0.85813 0.02247 0.0
H680 H 0.4472 0.89867 0.03298 0.0
H681 H 0.42321 0.83541 0.0345 0.0
C682 C 0.46451 0.7738 0.03668 0.0
C683 C 0.48978 0.74445 0.03892 0.0
C684 C 0.47734 0.81007 0.03081 0.0
C685 C 0.52766 0.75146 0.03252 0.0
C686 C 0.54052 0.78724 0.02618 0.0
C687 C 0.52911 0.85307 0.02441 0.0
C688 C 0.50475 0.8829 0.02755 0.0
C689 C 0.51577 0.8168 0.0264 0.0
C690 C 0.46644 0.87611 0.03001 0.0
C691 C 0.45278 0.83994 0.03131 0.0
H692 H 0.14036 0.23967 0.54855 0.0
H693 H 0.04176 0.30498 0.53455 0.0
H694 H 0.00891 0.25199 0.50869 0.0
H695 H 0.00471 0.18498 0.50328 0.0
H696 H 0.10182 0.1187 0.52156 0.0
H697 H 0.13927 0.17423 0.5308 0.0
C698 C 0.11211 0.24263 0.53858 0.0
C699 C 0.09321 0.27594 0.54416 0.0
C700 C 0.09309 0.21172 0.52472 0.0
C701 C 0.05659 0.27937 0.53121 0.0
C702 C 0.03782 0.24909 0.51646 0.0
C703 C 0.03436 0.18284 0.50802 0.0
C704 C 0.05046 0.14793 0.51214 0.0
C705 C 0.05519 0.21473 0.51507 0.0
C706 C 0.08886 0.14531 0.51805 0.0
C707 C 0.11015 0.17708 0.5239 0.0
H708 H 0.63215 0.30021 0.49746 0.0
H709 H 0.52595 0.24742 0.47874 0.0
H710 H 0.49438 0.30237 0.49891 0.0
H711 H 0.49633 0.36829 0.51001 0.0
H712 H 0.60165 0.42447 0.5188 0.0
H713 H 0.63398 0.36565 0.51455 0.0
C714 C 0.6021 0.3006 0.49782 0.0
C715 C 0.58172 0.2696 0.48578 0.0
C716 C 0.58383 0.33323 0.50734 0.0
C717 C 0.54273 0.2704 0.48797 0.0
C718 C 0.52445 0.30214 0.4991 0.0
C719 C 0.52637 0.3676 0.51167 0.0
C720 C 0.54659 0.40062 0.51454 0.0
C721 C 0.54468 0.33413 0.50708 0.0
C722 C 0.58543 0.39936 0.51699 0.0
C723 C 0.60393 0.36577 0.5141 0.0
loop_
_geom_bond_atom_site_label_1
_geom_bond_atom_site_label_2
_geom_bond_distance
_geom_bond_site_symmetry_2
_ccdc_geom_bond_type
P0 O11 1.490 . S
P0 C14 1.812 . S
P0 C20 1.803 . S
P0 C26 1.819 . S
H1 C15 0.941 . S
H2 C16 0.939 . S
H3 C18 0.940 . S
H4 C19 0.940 . S
H5 C21 0.939 . S
H6 C22 0.942 . S
H7 C24 0.940 . S
H8 C25 0.939 . S
H9 C27 0.941 . S
H10 C31 0.939 . S
O11 P0 1.490 . S
H12 C28 0.939 . S
H13 C30 0.940 . S
C14 P0 1.812 . S
C14 C15 1.389 . S
C14 C19 1.391 . S
C15 H1 0.941 . S
C15 C14 1.389 . S
C15 C16 1.397 . S
C16 H2 0.939 . S
C16 C15 1.397 . S
C16 C17 1.378 . S
C17 C16 1.378 . S
C17 C18 1.378 . S
C18 H3 0.940 . S
C18 C17 1.378 . S
C18 C19 1.396 . S
C19 H4 0.940 . S
C19 C14 1.391 . S
C19 C18 1.396 . S
C20 P0 1.803 . S
C20 C21 1.378 . S
C20 C25 1.400 . S
C21 H5 0.939 . S
C21 C20 1.378 . S
C21 C22 1.361 . S
C22 H6 0.942 . S
C22 C21 1.361 . S
C22 C23 1.369 . S
C23 C22 1.369 . S
C23 C24 1.404 . S
C24 H7 0.940 . S
C24 C23 1.404 . S
C24 C25 1.389 . S
C25 H8 0.939 . S
C25 C20 1.400 . S
C25 C24 1.389 . S
C26 P0 1.819 . S
C26 C27 1.391 . S
C26 C31 1.391 . S
C27 H9 0.941 . S
C27 C26 1.391 . S
C27 C28 1.396 . S
C28 H12 0.939 . S
C28 C27 1.396 . S
C28 C29 1.397 . S
C29 C28 1.397 . S
C29 C30 1.385 . S
C30 H13 0.940 . S
C30 C29 1.385 . S
C30 C31 1.388 . S
C31 H10 0.939 . S
C31 C26 1.391 . S
C31 C30 1.388 . S
P32 O43 1.490 . S
P32 C46 1.812 . S
P32 C52 1.803 . S
P32 C58 1.819 . S
H33 C47 0.941 . S
H34 C48 0.939 . S
H35 C50 0.940 . S
H36 C51 0.940 . S
H37 C53 0.939 . S
H38 C54 0.942 . S
H39 C56 0.940 . S
H40 C57 0.939 . S
H41 C59 0.941 . S
H42 C63 0.939 . S
O43 P32 1.490 . S
H44 C60 0.939 . S
H45 C62 0.940 . S
C46 P32 1.812 . S
C46 C47 1.389 . S
C46 C51 1.391 . S
C47 H33 0.941 . S
C47 C46 1.389 . S
C47 C48 1.397 . S
C48 H34 0.939 . S
C48 C47 1.397 . S
C48 C49 1.378 . S
C49 C48 1.378 . S
C49 C50 1.378 . S
C50 H35 0.940 . S
C50 C49 1.378 . S
C50 C51 1.396 . S
C51 H36 0.940 . S
C51 C46 1.391 . S
C51 C50 1.396 . S
C52 P32 1.803 . S
C52 C53 1.378 . S
C52 C57 1.400 . S
C53 H37 0.939 . S
C53 C52 1.378 . S
C53 C54 1.361 . S
C54 H38 0.942 . S
C54 C53 1.361 . S
C54 C55 1.369 . S
C55 C54 1.369 . S
C55 C56 1.404 . S
C56 H39 0.940 . S
C56 C55 1.404 . S
C56 C57 1.389 . S
C57 H40 0.939 . S
C57 C52 1.400 . S
C57 C56 1.389 . S
C58 P32 1.819 . S
C58 C59 1.391 . S
C58 C63 1.391 . S
C59 H41 0.941 . S
C59 C58 1.391 . S
C59 C60 1.396 . S
C60 H44 0.939 . S
C60 C59 1.396 . S
C60 C61 1.397 . S
C61 C60 1.397 . S
C61 C62 1.385 . S
C62 H45 0.940 . S
C62 C61 1.385 . S
C62 C63 1.388 . S
C63 H42 0.939 . S
C63 C58 1.391 . S
C63 C62 1.388 . S
P64 O75 1.490 . S
P64 C78 1.812 . S
P64 C84 1.803 . S
P64 C90 1.819 . S
H65 C79 0.941 . S
H66 C80 0.939 . S
H67 C82 0.940 . S
H68 C83 0.940 . S
H69 C85 0.939 . S
H70 C86 0.942 . S
H71 C88 0.940 . S
H72 C89 0.939 . S
H73 C91 0.941 . S
H74 C95 0.939 . S
O75 P64 1.490 . S
H76 C92 0.939 . S
H77 C94 0.940 . S
C78 P64 1.812 . S
C78 C79 1.389 . S
C78 C83 1.391 . S
C79 H65 0.941 . S
C79 C78 1.389 . S
C79 C80 1.397 . S
C80 H66 0.939 . S
C80 C79 1.397 . S
C80 C81 1.378 . S
C81 C80 1.378 . S
C81 C82 1.378 . S
C82 H67 0.940 . S
C82 C81 1.378 . S
C82 C83 1.396 . S
C83 H68 0.940 . S
C83 C78 1.391 . S
C83 C82 1.396 . S
C84 P64 1.803 . S
C84 C85 1.378 . S
C84 C89 1.400 . S
C85 H69 0.939 . S
C85 C84 1.378 . S
C85 C86 1.361 . S
C86 H70 0.942 . S
C86 C85 1.361 . S
C86 C87 1.369 . S
C87 C86 1.369 . S
C87 C88 1.404 . S
C88 H71 0.940 . S
C88 C87 1.404 . S
C88 C89 1.389 . S
C89 H72 0.939 . S
C89 C84 1.400 . S
C89 C88 1.389 . S
C90 P64 1.819 . S
C90 C91 1.391 . S
C90 C95 1.391 . S
C91 H73 0.941 . S
C91 C90 1.391 . S
C91 C92 1.396 . S
C92 H76 0.939 . S
C92 C91 1.396 . S
C92 C93 1.397 . S
C93 C92 1.397 . S
C93 C94 1.385 . S
C94 H77 0.940 . S
C94 C93 1.385 . S
C94 C95 1.388 . S
C95 H74 0.939 . S
C95 C90 1.391 . S
C95 C94 1.388 . S
P96 O107 1.490 . S
P96 C110 1.812 . S
P96 C116 1.803 . S
P96 C122 1.819 . S
H97 C111 0.941 . S
H98 C112 0.939 . S
H99 C114 0.940 . S
H100 C115 0.940 . S
H101 C117 0.939 . S
H102 C118 0.942 . S
H103 C120 0.940 . S
H104 C121 0.939 . S
H105 C123 0.941 . S
H106 C127 0.939 . S
O107 P96 1.490 . S
H108 C124 0.939 . S
H109 C126 0.940 . S
C110 P96 1.812 . S
C110 C111 1.389 . S
C110 C115 1.391 . S
C111 H97 0.941 . S
C111 C110 1.389 . S
C111 C112 1.397 . S
C112 H98 0.939 . S
C112 C111 1.397 . S
C112 C113 1.378 . S
C113 C112 1.378 . S
C113 C114 1.378 . S
C114 H99 0.940 . S
C114 C113 1.378 . S
C114 C115 1.396 . S
C115 H100 0.940 . S
C115 C110 1.391 . S
C115 C114 1.396 . S
C116 P96 1.803 . S
C116 C117 1.378 . S
C116 C121 1.400 . S
C117 H101 0.939 . S
C117 C116 1.378 . S
C117 C118 1.361 . S
C118 H102 0.942 . S
C118 C117 1.361 . S
C118 C119 1.369 . S
C119 C118 1.369 . S
C119 C120 1.404 . S
C120 H103 0.940 . S
C120 C119 1.404 . S
C120 C121 1.389 . S
C121 H104 0.939 . S
C121 C116 1.400 . S
C121 C120 1.389 . S
C122 P96 1.819 . S
C122 C123 1.391 . S
C122 C127 1.391 . S
C123 H105 0.941 . S
C123 C122 1.391 . S
C123 C124 1.396 . S
C124 H108 0.939 . S
C124 C123 1.396 . S
C124 C125 1.397 . S
C125 C124 1.397 . S
C125 C126 1.385 . S
C126 H109 0.940 . S
C126 C125 1.385 . S
C126 C127 1.388 . S
C127 H106 0.939 . S
C127 C122 1.391 . S
C127 C126 1.388 . S
P128 O139 1.490 . S
P128 C142 1.812 . S
P128 C148 1.803 . S
P128 C154 1.819 . S
H129 C143 0.941 . S
H130 C144 0.939 . S
H131 C146 0.940 . S
H132 C147 0.940 . S
H133 C149 0.946 . S
H134 C150 0.942 1_554 S
H135 C152 0.940 . S
H136 C153 0.939 . S
H137 C155 0.941 . S
H138 C159 0.939 . S
O139 P128 1.490 . S
H140 C156 0.939 . S
H141 C158 0.940 . S
C142 P128 1.812 . S
C142 C143 1.389 1_556 S
C142 C147 1.391 . S
C143 H129 0.941 . S
C143 C142 1.389 1_554 S
C143 C144 1.397 . S
C144 H130 0.939 . S
C144 C143 1.397 . S
C144 C145 1.378 1_554 S
C145 C144 1.378 1_556 S
C145 C146 1.378 . S
C146 H131 0.940 . S
C146 C145 1.378 . S
C146 C147 1.396 . S
C147 H132 0.940 . S
C147 C142 1.391 . S
C147 C146 1.396 . S
C148 P128 1.803 . S
C148 C149 1.369 1_655 S
C148 C153 1.400 . S
C149 H133 0.946 . S
C149 C148 1.369 1_455 S
C149 C150 1.363 . S
C150 H134 0.942 1_556 S
C150 C149 1.363 . S
C150 C151 1.369 1_455 S
C151 C150 1.369 1_655 S
C151 C152 1.404 . S
C152 H135 0.940 . S
C152 C151 1.404 . S
C152 C153 1.389 . S
C153 H136 0.939 . S
C153 C148 1.400 . S
C153 C152 1.389 . S
C154 P128 1.819 . S
C154 C155 1.391 1_565 S
C154 C159 1.391 . S
C155 H137 0.941 . S
C155 C154 1.391 1_545 S
C155 C156 1.396 . S
C156 H140 0.939 . S
C156 C155 1.396 . S
C156 C157 1.397 1_545 S
C157 C156 1.397 1_565 S
C157 C158 1.385 . S
C158 H141 0.940 . S
C158 C157 1.385 . S
C158 C159 1.388 . S
C159 H138 0.939 . S
C159 C154 1.391 . S
C159 C158 1.388 . S
P160 O171 1.490 . S
P160 C174 1.812 . S
P160 C180 1.803 . S
P160 C186 1.819 . S
H161 C175 0.941 . S
H162 C176 0.939 . S
H163 C178 0.940 . S
H164 C179 0.940 . S
H165 C181 0.939 . S
H166 C182 0.942 . S
H167 C184 0.940 . S
H168 C185 0.939 . S
H169 C187 0.941 . S
H170 C191 0.939 . S
O171 P160 1.490 . S
H172 C188 0.939 . S
H173 C190 0.940 . S
C174 P160 1.812 . S
C174 C175 1.389 . S
C174 C179 1.391 . S
C175 H161 0.941 . S
C175 C174 1.389 . S
C175 C176 1.397 . S
C176 H162 0.939 . S
C176 C175 1.397 . S
C176 C177 1.378 . S
C177 C176 1.378 . S
C177 C178 1.378 . S
C178 H163 0.940 . S
C178 C177 1.378 . S
C178 C179 1.396 . S
C179 H164 0.940 . S
C179 C174 1.391 . S
C179 C178 1.396 . S
C180 P160 1.803 . S
C180 C181 1.378 . S
C180 C185 1.400 . S
C181 H165 0.939 . S
C181 C180 1.378 . S
C181 C182 1.361 . S
C182 H166 0.942 . S
C182 C181 1.361 . S
C182 C183 1.369 . S
C183 C182 1.369 . S
C183 C184 1.404 . S
C184 H167 0.940 . S
C184 C183 1.404 . S
C184 C185 1.389 . S
C185 H168 0.939 . S
C185 C180 1.400 . S
C185 C184 1.389 . S
C186 P160 1.819 . S
C186 C187 1.391 . S
C186 C191 1.391 . S
C187 H169 0.941 . S
C187 C186 1.391 . S
C187 C188 1.396 . S
C188 H172 0.939 . S
C188 C187 1.396 . S
C188 C189 1.397 . S
C189 C188 1.397 . S
C189 C190 1.385 . S
C190 H173 0.940 . S
C190 C189 1.385 . S
C190 C191 1.388 . S
C191 H170 0.939 . S
C191 C186 1.391 . S
C191 C190 1.388 . S
P192 O203 1.490 . S
P192 C206 1.812 . S
P192 C212 1.803 . S
P192 C218 1.819 . S
H193 C207 0.941 . S
H194 C208 0.939 1_556 S
H195 C210 0.940 . S
H196 C211 0.940 . S
H197 C213 0.939 . S
H198 C214 0.942 . S
H199 C216 0.940 . S
H200 C217 0.939 . S
H201 C219 0.941 . S
H202 C223 0.939 . S
O203 P192 1.490 . S
H204 C220 0.939 . S
H205 C222 0.940 . S
C206 P192 1.812 . S
C206 C207 1.389 . S
C206 C211 1.391 . S
C207 H193 0.941 . S
C207 C206 1.389 . S
C207 C208 1.397 . S
C208 H194 0.939 1_554 S
C208 C207 1.397 . S
C208 C209 1.378 . S
C209 C208 1.378 . S
C209 C210 1.378 . S
C210 H195 0.940 . S
C210 C209 1.378 . S
C210 C211 1.396 . S
C211 H196 0.940 . S
C211 C206 1.391 . S
C211 C210 1.396 . S
C212 P192 1.803 . S
C212 C213 1.378 . S
C212 C217 1.400 . S
C213 H197 0.939 . S
C213 C212 1.378 . S
C213 C214 1.361 . S
C214 H198 0.942 . S
C214 C213 1.361 . S
C214 C215 1.369 . S
C215 C214 1.369 . S
C215 C216 1.404 . S
C216 H199 0.940 . S
C216 C215 1.404 . S
C216 C217 1.389 . S
C217 H200 0.939 . S
C217 C212 1.400 . S
C217 C216 1.389 . S
C218 P192 1.819 . S
C218 C219 1.391 . S
C218 C223 1.391 . S
C219 H201 0.941 . S
C219 C218 1.391 . S
C219 C220 1.396 . S
C220 H204 0.939 . S
C220 C219 1.396 . S
C220 C221 1.397 . S
C221 C220 1.397 . S
C221 C222 1.385 . S
C222 H205 0.940 . S
C222 C221 1.385 . S
C222 C223 1.388 . S
C223 H202 0.939 . S
C223 C218 1.391 . S
C223 C222 1.388 . S
P224 O235 1.490 . S
P224 C238 1.812 . S
P224 C244 1.803 . S
P224 C250 1.819 . S
H225 C239 0.941 . S
H226 C240 0.939 . S
H227 C242 0.940 . S
H228 C243 0.940 . S
H229 C245 0.939 . S
H230 C246 0.942 . S
H231 C248 0.940 . S
H232 C249 0.939 . S
H233 C251 0.941 . S
H234 C255 0.939 . S
O235 P224 1.490 . S
H236 C252 0.939 . S
H237 C254 0.940 . S
C238 P224 1.812 . S
C238 C239 1.389 . S
C238 C243 1.391 . S
C239 H225 0.941 . S
C239 C238 1.389 . S
C239 C240 1.397 . S
C240 H226 0.939 . S
C240 C239 1.397 . S
C240 C241 1.378 . S
C241 C240 1.378 . S
C241 C242 1.378 . S
C242 H227 0.940 . S
C242 C241 1.378 . S
C242 C243 1.396 . S
C243 H228 0.940 . S
C243 C238 1.391 . S
C243 C242 1.396 . S
C244 P224 1.803 . S
C244 C245 1.378 . S
C244 C249 1.400 . S
C245 H229 0.939 . S
C245 C244 1.378 . S
C245 C246 1.361 . S
C246 H230 0.942 . S
C246 C245 1.361 . S
C246 C247 1.369 . S
C247 C246 1.369 . S
C247 C248 1.404 . S
C248 H231 0.940 . S
C248 C247 1.404 . S
C248 C249 1.389 . S
C249 H232 0.939 . S
C249 C244 1.400 . S
C249 C248 1.389 . S
C250 P224 1.819 . S
C250 C251 1.391 . S
C250 C255 1.391 . S
C251 H233 0.941 . S
C251 C250 1.391 . S
C251 C252 1.396 . S
C252 H236 0.939 . S
C252 C251 1.396 . S
C252 C253 1.397 . S
C253 C252 1.397 . S
C253 C254 1.385 . S
C254 H237 0.940 . S
C254 C253 1.385 . S
C254 C255 1.388 . S
C255 H234 0.939 . S
C255 C250 1.391 . S
C255 C254 1.388 . S
Zn256 O262 1.920 . S
Zn256 O268 1.898 . S
Zn256 O271 1.905 . S
Zn257 O265 1.905 1_565 S
Zn257 O266 1.898 . S
Zn257 O274 1.920 . S
Zn258 O261 2.080 1_455 S
Zn258 O264 2.114 . S
Zn258 O267 2.120 1_445 S
Zn258 O269 2.120 . S
Zn258 O270 2.114 1_455 S
Zn258 O273 2.080 . S
C259 O264 1.166 . S
C259 O265 1.182 . S
C260 O266 1.167 1_655 S
C260 O267 1.299 . S
O261 Zn258 2.080 1_655 S
O261 C275 1.305 . S
O262 Zn256 1.920 . S
O262 C275 1.234 . S
C263 O268 1.167 1_455 S
C263 O269 1.299 . S
O264 Zn258 2.114 . S
O264 C259 1.166 . S
O265 Zn257 1.905 1_545 S
O265 C259 1.182 . S
O266 Zn257 1.898 . S
O266 C260 1.167 1_455 S
O267 Zn258 2.120 1_665 S
O267 C260 1.299 . S
O268 Zn256 1.898 . S
O268 C263 1.167 1_655 S
O269 Zn258 2.120 . S
O269 C263 1.299 . S
O270 Zn258 2.114 1_655 S
O270 C272 1.166 . S
O271 Zn256 1.905 . S
O271 C272 1.182 . S
C272 O270 1.166 . S
C272 O271 1.182 . S
O273 Zn258 2.080 . S
O273 C276 1.305 1_545 S
O274 Zn257 1.920 . S
O274 C276 1.234 . S
C275 O261 1.305 . S
C275 O262 1.234 . S
C276 O273 1.305 1_565 S
C276 O274 1.234 . S
Zn277 O283 1.920 1_556 S
Zn277 O289 1.898 . S
Zn277 O292 1.905 . S
Zn278 O286 1.905 . S
Zn278 O287 1.898 . S
Zn278 O295 1.920 . S
Zn279 O282 2.080 . S
Zn279 O285 2.114 1_545 S
Zn279 O288 2.120 1_545 S
Zn279 O290 2.120 . S
Zn279 O291 2.114 1_544 S
Zn279 O294 2.080 . S
C280 O285 1.166 . S
C280 O286 1.182 . S
C281 O287 1.167 . S
C281 O288 1.299 . S
O282 Zn279 2.080 . S
O282 C296 1.305 . S
O283 Zn277 1.920 1_554 S
O283 C296 1.234 . S
C284 O289 1.167 . S
C284 O290 1.299 1_556 S
O285 Zn279 2.114 1_565 S
O285 C280 1.166 . S
O286 Zn278 1.905 . S
O286 C280 1.182 . S
O287 Zn278 1.898 . S
O287 C281 1.167 . S
O288 Zn279 2.120 1_565 S
O288 C281 1.299 . S
O289 Zn277 1.898 . S
O289 C284 1.167 . S
O290 Zn279 2.120 . S
O290 C284 1.299 1_554 S
O291 Zn279 2.114 1_566 S
O291 C293 1.166 . S
O292 Zn277 1.905 . S
O292 C293 1.182 1_545 S
C293 O291 1.166 . S
C293 O292 1.182 1_565 S
O294 Zn279 2.080 . S
O294 C297 1.305 . S
O295 Zn278 1.920 . S
O295 C297 1.234 1_565 S
C296 O282 1.305 . S
C296 O283 1.234 . S
C297 O294 1.305 . S
C297 O295 1.234 1_545 S
Zn298 O304 1.920 . S
Zn298 O310 1.898 . S
Zn298 O313 1.905 . S
Zn299 O307 1.905 . S
Zn299 O308 1.898 . S
Zn299 O316 1.920 . S
Zn300 O303 2.080 . S
Zn300 O306 2.114 . S
Zn300 O309 2.120 . S
Zn300 O311 2.120 . S
Zn300 O312 2.114 . S
Zn300 O315 2.080 . S
C301 O306 1.166 . S
C301 O307 1.182 . S
C302 O308 1.167 . S
C302 O309 1.299 . S
O303 Zn300 2.080 . S
O303 C317 1.305 . S
O304 Zn298 1.920 . S
O304 C317 1.234 . S
C305 O310 1.167 . S
C305 O311 1.299 . S
O306 Zn300 2.114 . S
O306 C301 1.166 . S
O307 Zn299 1.905 . S
O307 C301 1.182 . S
O308 Zn299 1.898 . S
O308 C302 1.167 . S
O309 Zn300 2.120 . S
O309 C302 1.299 . S
O310 Zn298 1.898 . S
O310 C305 1.167 . S
O311 Zn300 2.120 . S
O311 C305 1.299 . S
O312 Zn300 2.114 . S
O312 C314 1.166 . S
O313 Zn298 1.905 . S
O313 C314 1.182 . S
C314 O312 1.166 . S
C314 O313 1.182 . S
O315 Zn300 2.080 . S
O315 C318 1.305 . S
O316 Zn299 1.920 . S
O316 C318 1.234 . S
C317 O303 1.305 . S
C317 O304 1.234 . S
C318 O315 1.305 . S
C318 O316 1.234 . S
Zn319 O325 1.920 . S
Zn319 O331 1.898 . S
Zn319 O334 1.905 . S
Zn320 O328 1.905 1_655 S
Zn320 O329 1.898 . S
Zn320 O337 1.920 . S
Zn321 O324 2.080 1_554 S
Zn321 O327 2.114 . S
Zn321 O330 2.120 1_454 S
Zn321 O332 2.120 . S
Zn321 O333 2.114 1_554 S
Zn321 O336 2.080 . S
C322 O327 1.166 . S
C322 O328 1.182 . S
C323 O329 1.167 1_556 S
C323 O330 1.299 . S
O324 Zn321 2.080 1_556 S
O324 C338 1.305 . S
O325 Zn319 1.920 . S
O325 C338 1.234 . S
C326 O331 1.167 1_554 S
C326 O332 1.299 . S
O327 Zn321 2.114 . S
O327 C322 1.166 . S
O328 Zn320 1.905 1_455 S
O328 C322 1.182 . S
O329 Zn320 1.898 . S
O329 C323 1.167 1_554 S
O330 Zn321 2.120 1_656 S
O330 C323 1.299 . S
O331 Zn319 1.898 . S
O331 C326 1.167 1_556 S
O332 Zn321 2.120 . S
O332 C326 1.299 . S
O333 Zn321 2.114 1_556 S
O333 C335 1.166 . S
O334 Zn319 1.905 . S
O334 C335 1.182 . S
C335 O333 1.166 . S
C335 O334 1.182 . S
O336 Zn321 2.080 . S
O336 C339 1.305 1_455 S
O337 Zn320 1.920 . S
O337 C339 1.234 . S
C338 O324 1.305 . S
C338 O325 1.234 . S
C339 O336 1.305 1_655 S
C339 O337 1.234 . S
H340 C346 0.930 . S
H341 C349 0.930 . S
H342 C350 0.930 . S
H343 C351 0.930 . S
H344 C354 0.930 . S
H345 C355 0.930 . S
C346 H340 0.930 . S
C346 C347 1.355 . S
C346 C348 1.415 . S
C347 C346 1.355 . S
C347 C349 1.419 . S
C348 C346 1.415 . S
C348 C353 1.425 . S
C348 C355 1.409 . S
C349 H341 0.930 . S
C349 C347 1.419 . S
C349 C350 1.362 . S
C350 H342 0.930 . S
C350 C349 1.362 . S
C350 C353 1.409 . S
C351 H343 0.930 . S
C351 C352 1.355 . S
C351 C353 1.415 . S
C352 C351 1.355 . S
C352 C354 1.419 . S
C353 C348 1.425 . S
C353 C350 1.409 . S
C353 C351 1.415 . S
C354 H344 0.930 . S
C354 C352 1.419 . S
C354 C355 1.362 . S
C355 H345 0.930 . S
C355 C348 1.409 . S
C355 C354 1.362 . S
H356 C362 0.930 . S
H357 C365 0.930 . S
H358 C366 0.930 . S
H359 C367 0.930 . S
H360 C370 0.930 . S
H361 C371 0.930 . S
C362 H356 0.930 . S
C362 C363 1.355 . S
C362 C364 1.415 . S
C363 C362 1.355 . S
C363 C365 1.419 . S
C364 C362 1.415 . S
C364 C369 1.425 . S
C364 C371 1.409 . S
C365 H357 0.930 . S
C365 C363 1.419 . S
C365 C366 1.362 . S
C366 H358 0.930 . S
C366 C365 1.362 . S
C366 C369 1.409 . S
C367 H359 0.930 . S
C367 C368 1.355 . S
C367 C369 1.415 . S
C368 C367 1.355 . S
C368 C370 1.419 . S
C369 C364 1.425 . S
C369 C366 1.409 . S
C369 C367 1.415 . S
C370 H360 0.930 . S
C370 C368 1.419 . S
C370 C371 1.362 . S
C371 H361 0.930 . S
C371 C364 1.409 . S
C371 C370 1.362 . S
H372 C378 0.930 . S
H373 C381 0.930 . S
H374 C382 0.930 . S
H375 C383 0.930 . S
H376 C386 0.930 . S
H377 C387 0.930 . S
C378 H372 0.930 . S
C378 C379 1.355 . S
C378 C380 1.415 . S
C379 C378 1.355 . S
C379 C381 1.419 . S
C380 C378 1.415 . S
C380 C385 1.425 . S
C380 C387 1.409 . S
C381 H373 0.930 . S
C381 C379 1.419 . S
C381 C382 1.362 . S
C382 H374 0.930 . S
C382 C381 1.362 . S
C382 C385 1.409 . S
C383 H375 0.930 . S
C383 C384 1.355 . S
C383 C385 1.415 . S
C384 C383 1.355 . S
C384 C386 1.419 . S
C385 C380 1.425 . S
C385 C382 1.409 . S
C385 C383 1.415 . S
C386 H376 0.930 . S
C386 C384 1.419 . S
C386 C387 1.362 . S
C387 H377 0.930 . S
C387 C380 1.409 . S
C387 C386 1.362 . S
H388 C394 0.930 . S
H389 C397 0.930 . S
H390 C398 0.930 . S
H391 C399 0.930 . S
H392 C402 0.930 . S
H393 C403 0.930 . S
C394 H388 0.930 . S
C394 C395 1.355 . S
C394 C396 1.415 . S
C395 C394 1.355 . S
C395 C397 1.419 . S
C396 C394 1.415 . S
C396 C401 1.425 . S
C396 C403 1.409 . S
C397 H389 0.930 . S
C397 C395 1.419 . S
C397 C398 1.362 . S
C398 H390 0.930 . S
C398 C397 1.362 . S
C398 C401 1.409 . S
C399 H391 0.930 . S
C399 C400 1.355 . S
C399 C401 1.415 . S
C400 C399 1.355 . S
C400 C402 1.419 . S
C401 C396 1.425 . S
C401 C398 1.409 . S
C401 C399 1.415 . S
C402 H392 0.930 . S
C402 C400 1.419 . S
C402 C403 1.362 . S
C403 H393 0.930 . S
C403 C396 1.409 . S
C403 C402 1.362 . S
H404 C410 0.930 . S
H405 C413 0.930 . S
H406 C414 0.930 . S
H407 C415 0.930 . S
H408 C418 0.930 . S
H409 C419 0.930 . S
C410 H404 0.930 . S
C410 C411 1.355 . S
C410 C412 1.415 . S
C411 C410 1.355 . S
C411 C413 1.419 . S
C412 C410 1.415 . S
C412 C417 1.425 . S
C412 C419 1.409 . S
C413 H405 0.930 . S
C413 C411 1.419 . S
C413 C414 1.362 . S
C414 H406 0.930 . S
C414 C413 1.362 . S
C414 C417 1.409 . S
C415 H407 0.930 . S
C415 C416 1.355 . S
C415 C417 1.415 . S
C416 C415 1.355 . S
C416 C418 1.419 . S
C417 C412 1.425 . S
C417 C414 1.409 . S
C417 C415 1.415 . S
C418 H408 0.930 . S
C418 C416 1.419 . S
C418 C419 1.362 . S
C419 H409 0.930 . S
C419 C412 1.409 . S
C419 C418 1.362 . S
H420 C426 0.930 . S
H421 C429 0.930 . S
H422 C430 0.930 . S
H423 C431 0.930 . S
H424 C434 0.930 . S
H425 C435 0.930 . S
C426 H420 0.930 . S
C426 C427 1.355 . S
C426 C428 1.415 . S
C427 C426 1.355 . S
C427 C429 1.419 . S
C428 C426 1.415 . S
C428 C433 1.425 . S
C428 C435 1.409 . S
C429 H421 0.930 . S
C429 C427 1.419 . S
C429 C430 1.362 . S
C430 H422 0.930 . S
C430 C429 1.362 . S
C430 C433 1.409 . S
C431 H423 0.930 . S
C431 C432 1.355 . S
C431 C433 1.415 . S
C432 C431 1.355 . S
C432 C434 1.419 . S
C433 C428 1.425 . S
C433 C430 1.409 . S
C433 C431 1.415 . S
C434 H424 0.930 . S
C434 C432 1.419 . S
C434 C435 1.362 . S
C435 H425 0.930 . S
C435 C428 1.409 . S
C435 C434 1.362 . S
H436 C442 0.930 . S
H437 C445 0.930 . S
H438 C446 0.930 . S
H439 C447 0.930 . S
H440 C450 0.930 1_554 S
H441 C451 0.930 . S
C442 H436 0.930 . S
C442 C443 1.355 . S
C442 C444 1.415 . S
C443 C442 1.355 . S
C443 C445 1.419 . S
C444 C442 1.415 . S
C444 C449 1.425 . S
C444 C451 1.409 . S
C445 H437 0.930 . S
C445 C443 1.419 . S
C445 C446 1.362 . S
C446 H438 0.930 . S
C446 C445 1.362 . S
C446 C449 1.409 . S
C447 H439 0.930 . S
C447 C448 1.355 . S
C447 C449 1.415 . S
C448 C447 1.355 . S
C448 C450 1.419 . S
C449 C444 1.425 . S
C449 C446 1.409 . S
C449 C447 1.415 . S
C450 H440 0.930 1_556 S
C450 C448 1.419 . S
C450 C451 1.362 . S
C451 H441 0.930 . S
C451 C444 1.409 . S
C451 C450 1.362 . S
H452 C458 0.930 . S
H453 C461 0.930 . S
H454 C462 0.930 . S
H455 C463 0.930 . S
H456 C466 0.930 . S
H457 C467 0.930 . S
C458 H452 0.930 . S
C458 C459 1.355 . S
C458 C460 1.415 . S
C459 C458 1.355 . S
C459 C461 1.419 . S
C460 C458 1.415 . S
C460 C465 1.425 . S
C460 C467 1.409 . S
C461 H453 0.930 . S
C461 C459 1.419 . S
C461 C462 1.362 . S
C462 H454 0.930 . S
C462 C461 1.362 . S
C462 C465 1.409 . S
C463 H455 0.930 . S
C463 C464 1.355 . S
C463 C465 1.415 . S
C464 C463 1.355 . S
C464 C466 1.419 . S
C465 C460 1.425 . S
C465 C462 1.409 . S
C465 C463 1.415 . S
C466 H456 0.930 . S
C466 C464 1.419 . S
C466 C467 1.362 . S
C467 H457 0.930 . S
C467 C460 1.409 . S
C467 C466 1.362 . S
H468 C474 0.930 . S
H469 C477 0.930 . S
H470 C478 0.930 . S
H471 C479 0.930 . S
H472 C482 0.930 . S
H473 C483 0.930 . S
C474 H468 0.930 . S
C474 C475 1.355 . S
C474 C476 1.415 . S
C475 C474 1.355 . S
C475 C477 1.419 . S
C476 C474 1.415 . S
C476 C481 1.425 . S
C476 C483 1.409 . S
C477 H469 0.930 . S
C477 C475 1.419 . S
C477 C478 1.362 . S
C478 H470 0.930 . S
C478 C477 1.362 . S
C478 C481 1.409 . S
C479 H471 0.930 . S
C479 C480 1.355 . S
C479 C481 1.415 . S
C480 C479 1.355 . S
C480 C482 1.419 . S
C481 C476 1.425 . S
C481 C478 1.409 . S
C481 C479 1.415 . S
C482 H472 0.930 . S
C482 C480 1.419 . S
C482 C483 1.362 . S
C483 H473 0.930 . S
C483 C476 1.409 . S
C483 C482 1.362 . S
H484 C490 0.930 . S
H485 C493 0.930 . S
H486 C494 0.930 1_554 S
H487 C495 0.930 1_554 S
H488 C498 0.930 . S
H489 C499 0.930 . S
C490 H484 0.930 . S
C490 C491 1.355 . S
C490 C492 1.415 . S
C491 C490 1.355 . S
C491 C493 1.419 . S
C492 C490 1.415 . S
C492 C497 1.425 . S
C492 C499 1.409 . S
C493 H485 0.930 . S
C493 C491 1.419 . S
C493 C494 1.362 . S
C494 H486 0.930 1_556 S
C494 C493 1.362 . S
C494 C497 1.409 . S
C495 H487 0.930 1_556 S
C495 C496 1.355 . S
C495 C497 1.415 . S
C496 C495 1.355 . S
C496 C498 1.419 . S
C497 C492 1.425 . S
C497 C494 1.409 . S
C497 C495 1.415 . S
C498 H488 0.930 . S
C498 C496 1.419 . S
C498 C499 1.362 . S
C499 H489 0.930 . S
C499 C492 1.409 . S
C499 C498 1.362 . S
H500 C506 0.930 . S
H501 C509 0.930 . S
H502 C510 0.930 . S
H503 C511 0.930 . S
H504 C514 0.930 . S
H505 C515 0.930 . S
C506 H500 0.930 . S
C506 C507 1.355 . S
C506 C508 1.415 . S
C507 C506 1.355 . S
C507 C509 1.419 . S
C508 C506 1.415 . S
C508 C513 1.425 . S
C508 C515 1.409 . S
C509 H501 0.930 . S
C509 C507 1.419 . S
C509 C510 1.362 . S
C510 H502 0.930 . S
C510 C509 1.362 . S
C510 C513 1.409 . S
C511 H503 0.930 . S
C511 C512 1.355 . S
C511 C513 1.415 . S
C512 C511 1.355 . S
C512 C514 1.419 . S
C513 C508 1.425 . S
C513 C510 1.409 . S
C513 C511 1.415 . S
C514 H504 0.930 . S
C514 C512 1.419 . S
C514 C515 1.362 . S
C515 H505 0.930 . S
C515 C508 1.409 . S
C515 C514 1.362 . S
H516 C522 0.930 . S
H517 C525 0.930 . S
H518 C526 0.930 . S
H519 C527 0.930 . S
H520 C530 0.930 . S
H521 C531 0.930 . S
C522 H516 0.930 . S
C522 C523 1.355 . S
C522 C524 1.415 . S
C523 C522 1.355 . S
C523 C525 1.419 . S
C524 C522 1.415 . S
C524 C529 1.425 . S
C524 C531 1.409 . S
C525 H517 0.930 . S
C525 C523 1.419 . S
C525 C526 1.362 . S
C526 H518 0.930 . S
C526 C525 1.362 . S
C526 C529 1.409 . S
C527 H519 0.930 . S
C527 C528 1.355 . S
C527 C529 1.415 . S
C528 C527 1.355 . S
C528 C530 1.419 . S
C529 C524 1.425 . S
C529 C526 1.409 . S
C529 C527 1.415 . S
C530 H520 0.930 . S
C530 C528 1.419 . S
C530 C531 1.362 . S
C531 H521 0.930 . S
C531 C524 1.409 . S
C531 C530 1.362 . S
H532 C538 0.930 . S
H533 C541 0.930 . S
H534 C542 0.930 . S
H535 C543 0.930 1_455 S
H536 C546 0.930 . S
H537 C547 0.930 . S
C538 H532 0.930 . S
C538 C539 1.348 1_565 S
C538 C540 1.415 . S
C539 C538 1.348 1_545 S
C539 C541 1.428 1_655 S
C540 C538 1.415 . S
C540 C545 1.425 1_565 S
C540 C547 1.409 . S
C541 H533 0.930 . S
C541 C539 1.428 1_455 S
C541 C542 1.362 . S
C542 H534 0.930 . S
C542 C541 1.362 . S
C542 C545 1.409 1_455 S
C543 H535 0.930 1_655 S
C543 C544 1.355 . S
C543 C545 1.415 . S
C544 C543 1.355 . S
C544 C546 1.419 1_545 S
C545 C540 1.425 1_545 S
C545 C542 1.409 1_655 S
C545 C543 1.415 . S
C546 H536 0.930 . S
C546 C544 1.419 1_565 S
C546 C547 1.362 . S
C547 H537 0.930 . S
C547 C540 1.409 . S
C547 C546 1.362 . S
H548 C554 0.930 . S
H549 C557 0.930 . S
H550 C558 0.930 . S
H551 C559 0.930 . S
H552 C562 0.930 . S
H553 C563 0.930 . S
C554 H548 0.930 . S
C554 C555 1.355 . S
C554 C556 1.415 . S
C555 C554 1.355 . S
C555 C557 1.419 . S
C556 C554 1.415 . S
C556 C561 1.425 . S
C556 C563 1.409 1_545 S
C557 H549 0.930 . S
C557 C555 1.419 . S
C557 C558 1.362 . S
C558 H550 0.930 . S
C558 C557 1.362 . S
C558 C561 1.409 . S
C559 H551 0.930 . S
C559 C560 1.355 . S
C559 C561 1.415 . S
C560 C559 1.355 . S
C560 C562 1.419 1_545 S
C561 C556 1.425 . S
C561 C558 1.409 . S
C561 C559 1.415 . S
C562 H552 0.930 . S
C562 C560 1.419 1_565 S
C562 C563 1.362 . S
C563 H553 0.930 . S
C563 C556 1.409 1_565 S
C563 C562 1.362 . S
H564 C570 0.930 . S
H565 C573 0.930 . S
H566 C574 0.930 . S
H567 C575 0.930 . S
H568 C578 0.930 . S
H569 C579 0.930 . S
C570 H564 0.930 . S
C570 C571 1.355 . S
C570 C572 1.415 . S
C571 C570 1.355 . S
C571 C573 1.419 . S
C572 C570 1.415 . S
C572 C577 1.425 . S
C572 C579 1.409 . S
C573 H565 0.930 . S
C573 C571 1.419 . S
C573 C574 1.362 . S
C574 H566 0.930 . S
C574 C573 1.362 . S
C574 C577 1.409 . S
C575 H567 0.930 . S
C575 C576 1.355 . S
C575 C577 1.415 . S
C576 C575 1.355 . S
C576 C578 1.419 . S
C577 C572 1.425 . S
C577 C574 1.409 . S
C577 C575 1.415 . S
C578 H568 0.930 . S
C578 C576 1.419 . S
C578 C579 1.362 . S
C579 H569 0.930 . S
C579 C572 1.409 . S
C579 C578 1.362 . S
H580 C586 0.930 . S
H581 C589 0.930 . S
H582 C590 0.930 . S
H583 C591 0.930 . S
H584 C594 0.930 1_655 S
H585 C595 0.930 1_655 S
C586 H580 0.930 . S
C586 C587 1.355 . S
C586 C588 1.415 . S
C587 C586 1.355 . S
C587 C589 1.419 . S
C588 C586 1.415 . S
C588 C593 1.425 . S
C588 C595 1.409 . S
C589 H581 0.930 . S
C589 C587 1.419 . S
C589 C590 1.362 . S
C590 H582 0.930 . S
C590 C589 1.362 . S
C590 C593 1.409 . S
C591 H583 0.930 . S
C591 C592 1.355 . S
C591 C593 1.415 . S
C592 C591 1.355 . S
C592 C594 1.419 . S
C593 C588 1.425 . S
C593 C590 1.409 . S
C593 C591 1.415 . S
C594 H584 0.930 1_455 S
C594 C592 1.419 . S
C594 C595 1.362 . S
C595 H585 0.930 1_455 S
C595 C588 1.409 . S
C595 C594 1.362 . S
H596 C602 0.930 . S
H597 C605 0.930 . S
H598 C606 0.930 . S
H599 C607 0.930 . S
H600 C610 0.930 . S
H601 C611 0.930 . S
C602 H596 0.930 . S
C602 C603 1.355 . S
C602 C604 1.415 . S
C603 C602 1.355 . S
C603 C605 1.419 1_566 S
C604 C602 1.415 . S
C604 C609 1.425 1_566 S
C604 C611 1.409 . S
C605 H597 0.930 . S
C605 C603 1.419 1_544 S
C605 C606 1.362 . S
C606 H598 0.930 . S
C606 C605 1.362 . S
C606 C609 1.409 . S
C607 H599 0.930 . S
C607 C608 1.355 1_545 S
C607 C609 1.415 . S
C608 C607 1.355 1_565 S
C608 C610 1.419 1_554 S
C609 C604 1.425 1_544 S
C609 C606 1.409 . S
C609 C607 1.415 . S
C610 H600 0.930 . S
C610 C608 1.419 1_556 S
C610 C611 1.362 . S
C611 H601 0.930 . S
C611 C604 1.409 . S
C611 C610 1.362 . S
H612 C618 0.930 . S
H613 C621 0.930 . S
H614 C622 0.930 . S
H615 C623 0.930 . S
H616 C626 0.930 1_565 S
H617 C627 0.930 1_565 S
C618 H612 0.930 . S
C618 C619 1.355 . S
C618 C620 1.415 . S
C619 C618 1.355 . S
C619 C621 1.419 . S
C620 C618 1.415 . S
C620 C625 1.425 . S
C620 C627 1.409 . S
C621 H613 0.930 . S
C621 C619 1.419 . S
C621 C622 1.362 . S
C622 H614 0.930 . S
C622 C621 1.362 . S
C622 C625 1.409 . S
C623 H615 0.930 . S
C623 C624 1.355 . S
C623 C625 1.415 . S
C624 C623 1.355 . S
C624 C626 1.419 . S
C625 C620 1.425 . S
C625 C622 1.409 . S
C625 C623 1.415 . S
C626 H616 0.930 1_545 S
C626 C624 1.419 . S
C626 C627 1.362 . S
C627 H617 0.930 1_545 S
C627 C620 1.409 . S
C627 C626 1.362 . S
H628 C634 0.930 . S
H629 C637 0.930 . S
H630 C638 0.930 . S
H631 C639 0.930 . S
H632 C642 0.930 . S
H633 C643 0.930 . S
C634 H628 0.930 . S
C634 C635 1.355 . S
C634 C636 1.415 . S
C635 C634 1.355 . S
C635 C637 1.419 . S
C636 C634 1.415 . S
C636 C641 1.425 . S
C636 C643 1.409 . S
C637 H629 0.930 . S
C637 C635 1.419 . S
C637 C638 1.362 . S
C638 H630 0.930 . S
C638 C637 1.362 . S
C638 C641 1.409 . S
C639 H631 0.930 . S
C639 C640 1.355 . S
C639 C641 1.415 . S
C640 C639 1.355 . S
C640 C642 1.419 . S
C641 C636 1.425 . S
C641 C638 1.409 . S
C641 C639 1.415 . S
C642 H632 0.930 . S
C642 C640 1.419 . S
C642 C643 1.362 . S
C643 H633 0.930 . S
C643 C636 1.409 . S
C643 C642 1.362 . S
H644 C650 0.930 . S
H645 C653 0.930 . S
H646 C654 0.930 . S
H647 C655 0.930 . S
H648 C658 0.930 . S
H649 C659 0.930 . S
C650 H644 0.930 . S
C650 C651 1.355 . S
C650 C652 1.415 . S
C651 C650 1.355 . S
C651 C653 1.419 . S
C652 C650 1.415 . S
C652 C657 1.425 . S
C652 C659 1.409 . S
C653 H645 0.930 . S
C653 C651 1.419 . S
C653 C654 1.362 . S
C654 H646 0.930 . S
C654 C653 1.362 . S
C654 C657 1.409 . S
C655 H647 0.930 . S
C655 C656 1.355 . S
C655 C657 1.415 . S
C656 C655 1.355 . S
C656 C658 1.419 . S
C657 C652 1.425 . S
C657 C654 1.409 . S
C657 C655 1.415 . S
C658 H648 0.930 . S
C658 C656 1.419 . S
C658 C659 1.362 . S
C659 H649 0.930 . S
C659 C652 1.409 . S
C659 C658 1.362 . S
H660 C666 0.926 1_554 S
H661 C669 0.930 . S
H662 C670 0.930 . S
H663 C671 0.930 . S
H664 C674 0.930 . S
H665 C675 0.930 . S
C666 H660 0.926 1_556 S
C666 C667 1.357 . S
C666 C668 1.416 . S
C667 C666 1.357 . S
C667 C669 1.419 1_655 S
C668 C666 1.416 . S
C668 C673 1.425 1_655 S
C668 C675 1.409 1_556 S
C669 H661 0.930 . S
C669 C667 1.419 1_455 S
C669 C670 1.362 . S
C670 H662 0.930 . S
C670 C669 1.362 . S
C670 C673 1.409 . S
C671 H663 0.930 . S
C671 C672 1.355 . S
C671 C673 1.415 . S
C672 C671 1.355 . S
C672 C674 1.419 1_456 S
C673 C668 1.425 1_455 S
C673 C670 1.409 . S
C673 C671 1.415 . S
C674 H664 0.930 . S
C674 C672 1.419 1_654 S
C674 C675 1.362 . S
C675 H665 0.930 . S
C675 C668 1.409 1_554 S
C675 C674 1.362 . S
H676 C682 0.930 . S
H677 C685 0.930 . S
H678 C686 0.930 . S
H679 C687 0.930 . S
H680 C690 0.930 . S
H681 C691 0.930 . S
C682 H676 0.930 . S
C682 C683 1.355 . S
C682 C684 1.415 . S
C683 C682 1.355 . S
C683 C685 1.419 . S
C684 C682 1.415 . S
C684 C689 1.425 . S
C684 C691 1.409 . S
C685 H677 0.930 . S
C685 C683 1.419 . S
C685 C686 1.362 . S
C686 H678 0.930 . S
C686 C685 1.362 . S
C686 C689 1.409 . S
C687 H679 0.930 . S
C687 C688 1.355 . S
C687 C689 1.415 . S
C688 C687 1.355 . S
C688 C690 1.419 . S
C689 C684 1.425 . S
C689 C686 1.409 . S
C689 C687 1.415 . S
C690 H680 0.930 . S
C690 C688 1.419 . S
C690 C691 1.362 . S
C691 H681 0.930 . S
C691 C684 1.409 . S
C691 C690 1.362 . S
H692 C698 0.930 . S
H693 C701 0.930 . S
H694 C702 0.930 . S
H695 C703 0.930 . S
H696 C706 0.930 . S
H697 C707 0.930 . S
C698 H692 0.930 . S
C698 C699 1.355 . S
C698 C700 1.415 . S
C699 C698 1.355 . S
C699 C701 1.419 . S
C700 C698 1.415 . S
C700 C705 1.425 . S
C700 C707 1.409 . S
C701 H693 0.930 . S
C701 C699 1.419 . S
C701 C702 1.362 . S
C702 H694 0.930 . S
C702 C701 1.362 . S
C702 C705 1.409 . S
C703 H695 0.930 . S
C703 C704 1.355 . S
C703 C705 1.415 . S
C704 C703 1.355 . S
C704 C706 1.419 . S
C705 C700 1.425 . S
C705 C702 1.409 . S
C705 C703 1.415 . S
C706 H696 0.930 . S
C706 C704 1.419 . S
C706 C707 1.362 . S
C707 H697 0.930 . S
C707 C700 1.409 . S
C707 C706 1.362 . S
H708 C714 0.930 . S
H709 C717 0.930 . S
H710 C718 0.930 . S
H711 C719 0.930 . S
H712 C722 0.930 . S
H713 C723 0.930 . S
C714 H708 0.930 . S
C714 C715 1.355 . S
C714 C716 1.415 . S
C715 C714 1.355 . S
C715 C717 1.419 . S
C716 C714 1.415 . S
C716 C721 1.425 . S
C716 C723 1.409 . S
C717 H709 0.930 . S
C717 C715 1.419 . S
C717 C718 1.362 . S
C718 H710 0.930 . S
C718 C717 1.362 . S
C718 C721 1.409 . S
C719 H711 0.930 . S
C719 C720 1.355 . S
C719 C721 1.415 . S
C720 C719 1.355 . S
C720 C722 1.419 . S
C721 C716 1.425 . S
C721 C718 1.409 . S
C721 C719 1.415 . S
C722 H712 0.930 . S
C722 C720 1.419 . S
C722 C723 1.362 . S
C723 H713 0.930 . S
C723 C716 1.409 . S
C723 C722 1.362 . S
C347 C29 1.535 . S
C352 C259 1.426 . S
C363 C49 1.480 . S
C368 C293 1.375 . S
C384 C305 1.426 . S
C379 C93 1.478 . S
C395 C119 1.421 . S
C400 C339 1.314 . S
C416 C296 1.380 . S
C411 C17 1.460 . S
C432 C276 1.380 . S
C427 C61 1.528 . S
C448 C323 1.323 . S
C443 C81 1.437 . S
C464 C314 1.439 . S
C459 C125 1.528 . S
C475 C23 1.501 . S
C480 C322 1.422 . S
C496 C284 1.372 . S
C491 C87 1.472 . S
C507 C113 1.516 . S
C512 C260 1.478 . S
C523 C55 1.503 . S
C528 C317 1.382 . S
C544 C275 1.554 . S
C539 C157 1.689 1_545 S
C555 C189 1.480 . S
C560 C297 1.534 . S
C571 C221 1.720 . S
C576 C302 1.605 . S
C587 C253 1.503 . S
C592 C335 1.619 . S
C603 C145 1.748 . S
C608 C280 1.594 . S
C624 C272 1.579 . S
C619 C183 1.488 . S
C640 C326 1.626 . S
C635 C209 1.711 . S
C656 C318 1.586 . S
C651 C247 1.551 . S
C667 C151 1.700 . S
C672 C338 1.605 . S
C688 C281 1.580 . S
C683 C215 1.721 . S
C704 C263 1.534 . S
C699 C241 1.577 . S
C715 C177 1.608 . S
C720 C301 1.644 . S
