# Generated by pormake.
# Topology anh, (6,3)-cn, num edge types: 1
# Building blocks:
#     Node 0, Type 0, BuildingBlock: BETDIP_clean_sbu_0, # of connection points: 6
#     Node 1, Type 0, BuildingBlock: BETDIP_clean_sbu_0, # of connection points: 6
#     Node 2, Type 0, BuildingBlock: BETDIP_clean_sbu_0, # of connection points: 6
#     Node 3, Type 1, BuildingBlock: VETTIZ_charged_linker_0, # of connection points: 3
#     Node 4, Type 1, BuildingBlock: VETTIZ_charged_linker_0, # of connection points: 3
#     Node 5, Type 1, BuildingBlock: VETTIZ_charged_linker_0, # of connection points: 3
#     Node 6, Type 1, BuildingBlock: VETTIZ_charged_linker_0, # of connection points: 3
#     Node 7, Type 1, BuildingBlock: VETTIZ_charged_linker_0, # of connection points: 3
#     Node 8, Type 1, BuildingBlock: VETTIZ_charged_linker_0, # of connection points: 3
#     Edge 9, Type (0, 1), BuildingBlock: AJUNOK_clean_linker_0, # of connection points: 2
#     Edge 10, Type (0, 1), BuildingBlock: AJUNOK_clean_linker_0, # of connection points: 2
#     Edge 11, Type (0, 1), BuildingBlock: AJUNOK_clean_linker_0, # of connection points: 2
#     Edge 12, Type (0, 1), BuildingBlock: AJUNOK_clean_linker_0, # of connection points: 2
#     Edge 13, Type (0, 1), BuildingBlock: AJUNOK_clean_linker_0, # of connection points: 2
#     Edge 14, Type (0, 1), BuildingBlock: AJUNOK_clean_linker_0, # of connection points: 2
#     Edge 15, Type (0, 1), BuildingBlock: AJUNOK_clean_linker_0, # of connection points: 2
#     Edge 16, Type (0, 1), BuildingBlock: AJUNOK_clean_linker_0, # of connection points: 2
#     Edge 17, Type (0, 1), BuildingBlock: AJUNOK_clean_linker_0, # of connection points: 2
#     Edge 18, Type (0, 1), BuildingBlock: AJUNOK_clean_linker_0, # of connection points: 2
#     Edge 19, Type (0, 1), BuildingBlock: AJUNOK_clean_linker_0, # of connection points: 2
#     Edge 20, Type (0, 1), BuildingBlock: AJUNOK_clean_linker_0, # of connection points: 2
#     Edge 21, Type (0, 1), BuildingBlock: AJUNOK_clean_linker_0, # of connection points: 2
#     Edge 22, Type (0, 1), BuildingBlock: AJUNOK_clean_linker_0, # of connection points: 2
#     Edge 23, Type (0, 1), BuildingBlock: AJUNOK_clean_linker_0, # of connection points: 2
#     Edge 24, Type (0, 1), BuildingBlock: AJUNOK_clean_linker_0, # of connection points: 2
#     Edge 25, Type (0, 1), BuildingBlock: AJUNOK_clean_linker_0, # of connection points: 2
#     Edge 26, Type (0, 1), BuildingBlock: AJUNOK_clean_linker_0, # of connection points: 2
# Relax obj value: 0.309
# Max RMSD: 0.193
# Mean RMSD: 0.166
data_MOF--net-anh--node1-BETDIP_clean_sbu_0--node2-VETTIZ_charged_linker_0--edge1-AJUNOK_clean_linker_0
_symmetry_space_group_name_H-M    P1
_symmetry_Int_Tables_number       1
_symmetry_cell_setting            triclinic
loop_
_symmetry_equiv_pos_as_xyz
'x, y, z'
_cell_length_a     29.204953
_cell_length_b     29.152813
_cell_length_c     52.780375
_cell_angle_alpha  89.868354
_cell_angle_beta   90.436476
_cell_angle_gamma 119.81848
loop_
_atom_site_label
_atom_site_type_symbol
_atom_site_fract_x
_atom_site_fract_y
_atom_site_fract_z
_atom_type_partial_charge
Tb0 Tb 0.15959 0.61626 0.16231 0.0
Tb1 Tb 0.10736 0.50655 0.1646 0.0
C2 C 0.22354 0.71065 0.17217 0.0
C3 C 0.27977 0.74525 0.16713 0.0
C4 C 0.31286 0.77511 0.18706 0.0
C5 C 0.36454 0.81391 0.1822 0.0
C6 C 0.38361 0.8238 0.15724 0.0
C7 C 0.35212 0.79044 0.13762 0.0
C8 C 0.30038 0.75107 0.14256 0.0
C9 C 0.12919 0.57196 0.11763 0.0
C10 C 0.23374 0.55887 0.1566 0.0
C11 C 1.03739 0.41244 0.16036 0.0
C12 C 0.98526 0.39464 0.17157 0.0
C13 C 0.93948 0.36948 0.15651 0.0
C14 C 0.89328 0.36869 0.16421 0.0
C15 C 0.89274 0.39408 0.18679 0.0
C16 C 0.93771 0.4163 0.20244 0.0
C17 C 0.98316 0.41618 0.19506 0.0
C18 C 0.13245 0.54899 0.21076 0.0
C19 C 1.03444 0.56661 0.16136 0.0
O20 O 0.21195 0.67235 0.18835 0.0
O21 O 0.19203 0.69567 0.15244 0.0
O22 O 0.14948 0.55812 0.13502 0.0
O23 O 0.12915 0.61463 0.12427 0.0
O24 O 0.23112 0.60343 0.15929 0.0
O25 O 0.18725 0.51351 0.15636 0.0
O26 O 1.04877 0.44646 0.14198 0.0
O27 O 1.07655 0.42775 0.17649 0.0
O28 O 0.11433 0.5642 0.19262 0.0
O29 O 0.1368 0.50954 0.20282 0.0
O30 O 1.0371 0.52185 0.16002 0.0
O31 O 1.08021 0.61128 0.1646 0.0
H32 H 0.29784 0.77055 0.20617 0.0
H33 H 0.38786 0.8395 0.19765 0.0
H34 H 0.36618 0.79738 0.11829 0.0
H35 H 0.27579 0.72733 0.12695 0.0
H36 H 0.94043 0.35348 0.13814 0.0
H37 H 0.85861 0.34964 0.15214 0.0
H38 H 0.93885 0.43641 0.21987 0.0
H39 H 1.018 0.43704 0.20693 0.0
Tb40 Tb 0.63937 1.06834 0.49153 0.0
Tb41 Tb 0.58298 0.11947 0.49958 0.0
C42 C 0.67048 1.0028 0.49481 0.0
C43 C 0.64384 0.9454 0.48998 0.0
C44 C 0.6172 0.90957 0.5096 0.0
C45 C 0.59671 0.85561 0.50585 0.0
C46 C 0.60267 0.83635 0.48243 0.0
C47 C 0.6253 0.8717 0.46217 0.0
C48 C 0.64598 0.92585 0.46594 0.0
C49 C 0.61658 0.10034 0.4494 0.0
C50 C 0.50776 0.99339 0.49088 0.0
C51 C 0.55662 0.18859 0.49786 0.0
C52 C 0.59205 0.24337 0.50607 0.0
C53 C 0.60571 0.28532 0.48913 0.0
C54 C 0.65012 0.33478 0.49386 0.0
C55 C 0.68167 0.3426 0.51548 0.0
C56 C 0.66619 0.30126 0.53298 0.0
C57 C 0.62194 0.25234 0.52838 0.0
C58 C 0.60753 0.09142 0.54331 0.0
C59 C 0.71531 0.19331 0.49264 0.0
O60 O 0.65403 1.01817 0.51435 0.0
O61 O 0.67887 1.03283 0.475 0.0
O62 O 0.58585 0.07831 0.46762 0.0
O63 O 0.66142 0.10298 0.45386 0.0
O64 O 0.55522 0.99627 0.4912 0.0
O65 O 0.50881 1.03985 0.49247 0.0
O66 O 0.57335 0.17471 0.47799 0.0
O67 O 0.54052 0.15271 0.51567 0.0
O68 O 0.63792 0.11166 0.52442 0.0
O69 O 0.56199 0.08578 0.53743 0.0
O70 O 0.66808 0.19093 0.49473 0.0
O71 O 0.71405 0.147 0.49292 0.0
H72 H 0.61448 0.9233 0.52829 0.0
H73 H 0.58062 0.8297 0.52205 0.0
H74 H 0.63061 0.85787 0.44398 0.0
H75 H 0.66575 0.95248 0.45034 0.0
H76 H 0.58378 0.27903 0.4716 0.0
H77 H 0.66033 0.36645 0.48041 0.0
H78 H 0.68979 0.30591 0.54974 0.0
H79 H 0.61345 0.22058 0.54157 0.0
Tb80 Tb 0.61868 0.59588 0.8315 0.0
Tb81 Tb 0.73001 0.65571 0.83026 0.0
C82 C 0.52444 0.55874 0.84423 0.0
C83 C 0.48068 0.56974 0.84213 0.0
C84 C 0.45718 0.57334 0.86446 0.0
C85 C 0.4083 0.57058 0.86358 0.0
C86 C 0.3819 0.56378 0.8403 0.0
C87 C 0.40793 0.56584 0.81773 0.0
C88 C 0.45711 0.56869 0.81862 0.0
C89 C 0.65721 0.61149 0.78579 0.0
C90 C 0.67484 0.72809 0.82548 0.0
C91 C 0.82355 0.68242 0.82108 0.0
C92 C 0.84515 0.64683 0.82563 0.0
C93 C 0.85453 0.62237 0.80495 0.0
C94 C 0.85489 0.57493 0.8083 0.0
C95 C 0.84525 0.55114 0.8323 0.0
C96 C 0.84169 0.57857 0.85329 0.0
C97 C 0.84198 0.62607 0.85005 0.0
C98 C 0.69258 0.63835 0.87732 0.0
C99 C 0.67326 0.52384 0.82716 0.0
O100 O 0.5643 0.59001 0.85886 0.0
O101 O 0.539 0.54531 0.82348 0.0
O102 O 0.67222 0.64479 0.80339 0.0
O103 O 0.61648 0.56786 0.79289 0.0
O104 O 0.63085 0.68092 0.82965 0.0
O105 O 0.72006 0.72705 0.82325 0.0
O106 O 0.78709 0.66598 0.80344 0.0
O107 O 0.80982 0.69866 0.84122 0.0
O108 O 0.67621 0.60502 0.85931 0.0
O109 O 0.73164 0.68202 0.86909 0.0
O110 O 0.71586 0.57154 0.82309 0.0
O111 O 0.62954 0.52412 0.83429 0.0
H112 H 0.4747 0.57424 0.88277 0.0
H113 H 0.38909 0.56879 0.88133 0.0
H114 H 0.38866 0.56145 0.79956 0.0
H115 H 0.47483 0.56653 0.80103 0.0
H116 H 0.85692 0.63739 0.78591 0.0
H117 H 0.85908 0.55523 0.79187 0.0
H118 H 0.83618 0.562 0.87216 0.0
H119 H 0.83508 0.64385 0.86651 0.0
C120 C 0.66171 0.35084 0.20294 0.0
C121 C 0.70185 0.38987 0.21798 0.0
C122 C 0.6905 0.39373 0.24359 0.0
C123 C 0.61547 0.30533 0.24097 0.0
C124 C 0.62106 0.30697 0.21492 0.0
C125 C 0.59083 0.25337 0.20294 0.0
H126 H 0.48332 0.99254 0.21498 0.0
C127 C 0.58183 0.24934 0.24837 0.0
C128 C 0.56704 0.21905 0.22604 0.0
H129 H 0.52551 0.08549 0.14635 0.0
H130 H 0.54315 0.16267 0.17053 0.0
H131 H 0.58319 0.08216 0.25039 0.0
H132 H 0.42014 1.03793 0.23974 0.0
H133 H 0.43733 1.0654 0.27034 0.0
H134 H 0.43942 1.00589 0.26305 0.0
H135 H 0.52764 1.01778 0.25645 0.0
H136 H 0.55029 1.06863 0.27979 0.0
C137 C 0.63074 0.24104 0.18917 0.0
C138 C 0.54774 0.25307 0.18556 0.0
C139 C 0.57602 0.19443 0.34042 0.0
C140 C 0.55402 0.14451 0.35203 0.0
C141 C 0.51946 0.09916 0.33798 0.0
C142 C 0.51044 0.10297 0.31218 0.0
C143 C 0.53697 0.15246 0.30027 0.0
C144 C 0.56668 0.19749 0.31454 0.0
C145 C 0.59041 0.24675 0.29855 0.0
C146 C 0.5705 0.22354 0.2723 0.0
C147 C 0.54097 0.16807 0.27345 0.0
C148 C 0.65131 0.27332 0.30101 0.0
C149 C 0.56744 0.28183 0.30721 0.0
C150 C 0.49774 1.02997 0.20528 0.0
C151 C 0.50438 1.03346 0.17884 0.0
C152 C 0.52062 0.08205 0.16671 0.0
C153 C 0.53076 0.12672 0.18081 0.0
C154 C 0.5264 0.12315 0.20738 0.0
C155 C 0.50912 0.07515 0.21914 0.0
C156 C 0.50634 0.07872 0.24747 0.0
C157 C 0.52718 0.13766 0.25083 0.0
C158 C 0.53938 0.16321 0.22729 0.0
C159 C 0.54362 1.06085 0.25934 0.0
C160 C 0.44795 1.0451 0.25574 0.0
H161 H 0.64324 0.35342 0.27536 0.0
H162 H 0.66798 0.34721 0.18304 0.0
H163 H 0.53083 0.27612 0.1942 0.0
H164 H 0.51367 0.21295 0.18264 0.0
H165 H 0.56426 0.27109 0.16687 0.0
H166 H 0.67165 0.26526 0.19668 0.0
H167 H 0.63192 0.24885 0.16851 0.0
H168 H 0.62284 0.20027 0.1921 0.0
H169 H 0.60168 0.23004 0.35099 0.0
H170 H 0.50158 1.06037 0.34664 0.0
H171 H 0.48511 1.06702 0.30222 0.0
H172 H 0.66391 0.24303 0.30161 0.0
H173 H 0.66569 0.29707 0.31869 0.0
H174 H 0.67266 0.29875 0.28486 0.0
H175 H 0.52539 0.25715 0.31279 0.0
H176 H 0.56718 0.3077 0.29194 0.0
H177 H 0.58952 0.30647 0.32382 0.0
H178 H 0.71965 0.42516 0.25544 0.0
C179 C 0.64694 0.35127 0.25524 0.0
C180 C 0.68301 0.67511 0.51604 0.0
C181 C 0.64394 0.68743 0.52281 0.0
C182 C 0.63513 0.6916 0.54876 0.0
C183 C 0.70638 0.67573 0.56026 0.0
C184 C 0.71427 0.67051 0.53494 0.0
C185 C 0.76202 0.66493 0.5306 0.0
H186 H 0.8767 0.54231 0.57562 0.0
C187 C 0.74743 0.67181 0.57494 0.0
C188 C 0.78044 0.66576 0.5578 0.0
H189 H 0.85113 0.57716 0.49899 0.0
H190 H 0.85074 0.65455 0.51354 0.0
H191 H 0.93974 0.68197 0.59573 0.0
H192 H 0.78679 0.54013 0.60017 0.0
H193 H 0.80815 0.57087 0.63007 0.0
H194 H 0.84566 0.54653 0.61487 0.0
H195 H 0.92568 0.63266 0.61947 0.0
H196 H 0.90877 0.68395 0.62381 0.0
C197 C 0.80284 0.71423 0.51579 0.0
C198 C 0.74419 0.61151 0.51667 0.0
C199 C 0.73279 0.65917 0.67035 0.0
C200 C 0.75988 0.64802 0.68911 0.0
C201 C 0.8038 0.64301 0.6826 0.0
C202 C 0.81976 0.64789 0.65723 0.0
C203 C 0.79009 0.65571 0.63834 0.0
C204 C 0.74837 0.66267 0.64518 0.0
C205 C 0.72157 0.67118 0.62282 0.0
C206 C 0.75459 0.66905 0.60134 0.0
C207 C 0.79402 0.6589 0.61043 0.0
C208 C 0.72674 0.72657 0.62529 0.0
C209 C 0.66393 0.62445 0.62186 0.0
C210 C 0.87204 0.5675 0.56199 0.0
C211 C 0.85825 0.55022 0.53665 0.0
C212 C 0.8581 0.58646 0.51894 0.0
C213 C 0.85518 0.6302 0.52741 0.0
C214 C 0.85043 0.63568 0.5534 0.0
C215 C 0.86471 0.60904 0.57047 0.0
C216 C 0.85578 0.61995 0.59749 0.0
C217 C 0.82507 0.649 0.59306 0.0
C218 C 0.82083 0.65628 0.56699 0.0
C219 C 0.91015 0.65623 0.60998 0.0
C220 C 0.82248 0.56676 0.61152 0.0
H221 H 0.65819 0.6908 0.58675 0.0
H222 H 0.69148 0.67254 0.49631 0.0
H223 H 0.70251 0.59231 0.50998 0.0
H224 H 0.74657 0.58216 0.52926 0.0
H225 H 0.76772 0.61674 0.49942 0.0
H226 H 0.80242 0.7504 0.52214 0.0
H227 H 0.79402 0.70948 0.49513 0.0
H228 H 0.84384 0.72294 0.51902 0.0
H229 H 0.69888 0.66316 0.67509 0.0
H230 H 0.82513 0.63464 0.69707 0.0
H231 H 0.8533 0.64354 0.6531 0.0
H232 H 0.76387 0.75467 0.63535 0.0
H233 H 0.69335 0.72459 0.63611 0.0
H234 H 0.7293 0.74529 0.6067 0.0
H235 H 0.66216 0.58685 0.62762 0.0
H236 H 0.6462 0.6164 0.60273 0.0
H237 H 0.63828 0.63131 0.63492 0.0
H238 H 0.60695 0.70322 0.5547 0.0
C239 C 0.66594 0.68564 0.56745 0.0
C240 C 0.12248 0.42918 0.86535 0.0
C241 C 0.17425 0.45042 0.87449 0.0
C242 C 0.18332 0.439 0.89932 0.0
C243 C 1.08997 0.39494 0.90725 0.0
C244 C 1.08064 0.40103 0.88214 0.0
C245 C 1.02282 0.37839 0.87662 0.0
H246 H 0.82953 0.39673 0.90424 0.0
C247 C 1.04035 0.37438 0.92116 0.0
C248 C 0.99979 0.36033 0.90323 0.0
H249 H 0.84807 0.32009 0.83813 0.0
H250 H 0.90232 0.29364 0.86364 0.0
H251 H 0.8243 0.2957 0.9434 0.0
H252 H 0.93972 0.45724 0.92624 0.0
H253 H 0.93361 0.44604 0.95942 0.0
H254 H 0.87772 0.43703 0.9416 0.0
H255 H 0.82692 0.34987 0.96064 0.0
H256 H 0.86685 0.32096 0.96978 0.0
C257 C 1.00484 0.3325 0.85735 0.0
C258 C 1.01406 0.42332 0.86646 0.0
C259 C 1.0597 0.43699 0.01208 0.0
C260 C 1.02649 0.44495 0.0283 0.0
C261 C 0.97373 0.42673 0.02082 0.0
C262 C 0.95517 0.40282 -0.00299 0.0
C263 C 0.99008 0.3983 0.98037 0.0
C264 C 1.04107 0.41442 0.98822 0.0
C265 C 1.07307 0.40715 0.96816 0.0
C266 C 1.03247 0.38346 0.9468 0.0
C267 C 0.98407 0.37878 0.95405 0.0
C268 C 1.08895 0.367 0.97808 0.0
C269 C 0.12105 0.46232 0.96156 0.0
C270 C 0.84425 0.37339 0.89519 0.0
C271 C 0.83835 0.36408 0.86877 0.0
C272 C 0.85527 0.33081 0.85799 0.0
C273 C 0.88798 0.31763 0.872 0.0
C274 C 0.90379 0.33919 0.89623 0.0
C275 C 0.87712 0.35978 0.90879 0.0
C276 C 0.89579 0.37281 0.936 0.0
C277 C 0.9429 0.36356 0.93584 0.0
C278 C 0.94897 0.34784 0.91158 0.0
C279 C 0.85126 0.33317 0.9535 0.0
C280 C 0.91259 0.43134 0.94126 0.0
H281 H 0.14959 0.40162 0.93422 0.0
H282 H 0.11505 0.43607 0.84597 0.0
H283 H 1.02862 0.45635 0.88035 0.0
H284 H 0.97202 0.40964 0.86264 0.0
H285 H 1.0351 0.43913 0.8483 0.0
H286 H 1.03827 0.33566 0.84606 0.0
H287 H 0.97676 0.33274 0.84317 0.0
H288 H 0.98641 0.29355 0.86706 0.0
H289 H 1.10042 0.45061 0.01734 0.0
H290 H 0.94713 0.43162 0.03326 0.0
H291 H 0.91496 0.39036 0.99206 0.0
H292 H 1.05545 0.33371 0.98807 0.0
H293 H 0.1226 0.38619 0.99164 0.0
H294 H 1.09959 0.34862 0.96262 0.0
H295 H 0.1263 0.49391 0.97499 0.0
H296 H 0.1165 0.47629 0.94263 0.0
H297 H 0.15891 0.46212 0.96231 0.0
H298 H 0.2232 0.45317 0.9062 0.0
C299 C 0.14113 0.41023 0.91561 0.0
C300 C 0.96876 0.44928 0.48302 0.0
C301 C 0.92555 0.40405 0.46925 0.0
C302 C 0.93032 0.40909 0.44269 0.0
C303 C 1.01514 0.49416 0.4435 0.0
C304 C 1.01349 0.49413 0.46962 0.0
C305 C 1.0646 0.54671 0.4789 0.0
H306 H 0.30884 0.77718 0.43521 0.0
C307 C 1.06488 0.5427 0.43382 0.0
C308 C 1.09626 0.57614 0.45425 0.0
H309 H 0.26309 0.75968 0.51329 0.0
H310 H 0.18063 0.67495 0.50288 0.0
H311 H 0.27306 0.65792 0.42273 0.0
H312 H 0.19845 0.7523 0.41622 0.0
H313 H 0.1776 0.71182 0.38934 0.0
H314 H 0.24711 0.75753 0.39412 0.0
H315 H 0.29158 0.70916 0.39954 0.0
H316 H 0.24089 0.64196 0.39321 0.0
C317 C 1.09858 0.53263 0.49596 0.0
C318 C 1.04781 0.58165 0.49323 0.0
C319 C 1.08945 0.5517 0.3373 0.0
C320 C 0.12896 0.58736 0.3207 0.0
C321 C 0.1722 0.63255 0.33142 0.0
C322 C 0.17673 0.64131 0.35785 0.0
C323 C 0.13726 0.60497 0.37431 0.0
C324 C 1.09442 0.56137 0.36374 0.0
C325 C 1.05602 0.52701 0.3837 0.0
C326 C 1.0826 0.55656 0.40824 0.0
C327 C 0.13044 0.6024 0.40272 0.0
C328 C 1.05264 0.47214 0.38241 0.0
C329 C 1.00323 0.52642 0.37861 0.0
C330 C 0.28228 0.75589 0.45056 0.0
C331 C 0.29594 0.7778 0.47531 0.0
C332 C 0.25639 0.74618 0.49382 0.0
C333 C 0.20797 0.6963 0.48783 0.0
C334 C 0.19562 0.67562 0.46262 0.0
C335 C 0.23368 0.7076 0.44485 0.0
C336 C 0.21612 0.68663 0.41866 0.0
C337 C 0.16292 0.63665 0.42266 0.0
C338 C 0.14786 0.62638 0.44874 0.0
C339 C 0.25749 0.67349 0.40771 0.0
C340 C 0.20977 0.72909 0.40359 0.0
H341 H 0.97093 0.4494 0.41011 0.0
H342 H 0.96833 0.44935 0.5035 0.0
H343 H 1.023 0.59154 0.48083 0.0
H344 H 1.08292 0.61916 0.49937 0.0
H345 H 1.02454 0.56086 0.51027 0.0
H346 H 0.11036 0.50707 0.48554 0.0
H347 H 1.07631 0.51101 0.51308 0.0
H348 H 0.13497 0.56899 0.50212 0.0
H349 H 1.05519 0.51679 0.3299 0.0
H350 H 0.2035 0.66061 0.31935 0.0
H351 H 0.21147 0.67607 0.36437 0.0
H352 H 1.09061 0.47584 0.3761 0.0
H353 H 1.02155 0.44536 0.36886 0.0
H354 H 1.0456 0.45254 0.40107 0.0
H355 H 1.01004 0.56371 0.36945 0.0
H356 H 0.98191 0.52425 0.39622 0.0
H357 H 0.97683 0.49327 0.36588 0.0
H358 H 0.89993 0.37878 0.43084 0.0
C359 C 0.97292 0.4518 0.43029 0.0
C360 C 0.67264 0.98223 0.81615 0.0
C361 C 0.66758 0.9354 0.80282 0.0
C362 C 0.65964 0.93581 0.77652 0.0
C363 C 0.66319 1.02289 0.77662 0.0
C364 C 0.66982 1.02552 0.8026 0.0
C365 C 0.67266 0.07879 0.81169 0.0
H366 H 0.67234 0.31633 0.76745 0.0
C367 C 0.66319 0.07219 0.76673 0.0
C368 C 0.66821 0.10708 0.787 0.0
H369 H 0.67328 0.28372 0.84685 0.0
H370 H 0.67164 0.19936 0.83617 0.0
H371 H 0.75518 0.2821 0.7512 0.0
H372 H 0.58607 0.20363 0.75233 0.0
H373 H 0.60219 0.18505 0.72372 0.0
H374 H 0.62474 0.25392 0.72969 0.0
H375 H 0.71767 0.29604 0.72855 0.0
H376 H 0.73429 0.24488 0.7232 0.0
C377 C 0.72548 0.11406 0.8252 0.0
C378 C 0.62634 1.0658 0.82939 0.0
C379 C 0.6491 0.0826 0.66996 0.0
C380 C 0.6519 0.1216 0.65308 0.0
C381 C 0.65931 0.16929 0.66363 0.0
C382 C 0.66337 0.17781 0.69007 0.0
C383 C 0.66042 0.13847 0.7068 0.0
C384 C 0.6541 0.09219 0.69645 0.0
C385 C 0.65405 1.05564 0.71668 0.0
C386 C 0.66038 0.08676 0.74106 0.0
C387 C 0.6634 0.13522 0.73529 0.0
C388 C 0.70252 1.04832 0.71193 0.0
C389 C 0.59963 1.00406 0.71548 0.0
C390 C 0.67329 0.29282 0.78311 0.0
C391 C 0.67404 0.31069 0.80828 0.0
C392 C 0.67291 0.27392 0.82706 0.0
C393 C 0.67211 0.22434 0.82089 0.0
C394 C 0.67169 0.20813 0.79531 0.0
C395 C 0.67197 0.24368 0.77735 0.0
C396 C 0.66971 0.22359 0.75104 0.0
C397 C 0.66732 0.17055 0.75515 0.0
C398 C 0.66917 0.15855 0.78136 0.0
C399 C 0.72151 0.26364 0.73757 0.0
C400 C 0.6184 0.21641 0.73829 0.0
H401 H 0.65156 0.97234 0.74383 0.0
H402 H 0.67841 0.98501 0.83648 0.0
H403 H 0.5882 1.04004 0.81955 0.0
H404 H 0.62683 0.10248 0.83546 0.0
H405 H 0.62849 1.04477 0.84656 0.0
H406 H 0.75888 0.12306 0.81234 0.0
H407 H 0.72944 0.09399 0.84231 0.0
H408 H 0.72845 0.15202 0.83111 0.0
H409 H 0.64368 1.04549 0.6627 0.0
H410 H 0.66082 0.19985 0.65136 0.0
H411 H 0.6682 0.21488 0.69644 0.0
H412 H 0.73509 0.08362 0.70257 0.0
H413 H 0.692 1.01373 0.69951 0.0
H414 H 0.72062 1.04423 0.72965 0.0
H415 H 0.5679 1.01232 0.70932 0.0
H416 H 0.58645 0.98488 0.73417 0.0
H417 H 0.60003 0.97531 0.70184 0.0
H418 H 0.65529 0.90286 0.76522 0.0
C419 C 0.65756 0.97755 0.76384 0.0
C420 C 0.78125 0.56942 0.14887 0.0
C421 C 0.82426 0.56744 0.13497 0.0
C422 C 0.81451 0.56059 0.10858 0.0
C423 C 0.73248 0.56584 0.10951 0.0
C424 C 0.73512 0.5679 0.1356 0.0
C425 C 0.68316 0.56762 0.1448 0.0
H426 H 0.451 0.58037 0.1003 0.0
C427 C 0.68439 0.56805 0.0997 0.0
C428 C 0.65217 0.56782 0.12002 0.0
H429 H 0.46798 0.5481 0.17816 0.0
H430 H 0.55316 0.55147 0.16803 0.0
H431 H 0.57175 0.6649 0.08897 0.0
H432 H 0.47727 0.49661 0.08024 0.0
H433 H 0.51752 0.51849 0.05347 0.0
H434 H 0.47156 0.54174 0.05907 0.0
H435 H 0.52056 0.6342 0.06547 0.0
H436 H 0.58743 0.64987 0.05924 0.0
C437 C 0.69814 0.61708 0.16077 0.0
C438 C 0.64935 0.51734 0.16024 0.0
C439 C 0.67889 0.58946 0.00345 0.0
C440 C 0.64474 0.59568 0.98654 0.0
C441 C 0.59963 0.59449 -0.00326 0.0
C442 C 0.58968 0.58877 0.02308 0.0
C443 C 0.62464 0.5832 0.03989 0.0
C444 C 0.66794 0.58307 0.02968 0.0
C445 C 0.70028 0.57532 0.04973 0.0
C446 C 0.67095 0.57292 0.07406 0.0
C447 C 0.62611 0.57701 0.0683 0.0
C448 C 0.75658 0.6245 0.04901 0.0
C449 C 0.6973 0.52149 0.04413 0.0
C450 C 0.47228 0.57442 0.11566 0.0
C451 C 0.45006 0.56468 0.14029 0.0
C452 C 0.48171 0.55604 0.15881 0.0
C453 C 0.53186 0.55814 0.15297 0.0
C454 C 0.55283 0.56792 0.12792 0.0
C455 C 0.52088 0.57469 0.11007 0.0
C456 C 0.54231 0.57946 0.08395 0.0
C457 C 0.59198 0.57533 0.08811 0.0
C458 C 0.60208 0.56969 0.11425 0.0
C459 C 0.55598 0.63468 0.07361 0.0
C460 C 0.50016 0.53208 0.06815 0.0
H461 H 0.77108 0.55669 0.07629 0.0
H462 H 0.78348 0.57247 0.1693 0.0
H463 H 0.63871 0.48163 0.14861 0.0
H464 H 0.61232 0.51566 0.16646 0.0
H465 H 0.6713 0.5162 0.17731 0.0
H466 H 0.72293 0.65335 0.14955 0.0
H467 H 0.72081 0.61781 0.17793 0.0
H468 H 0.66216 0.61781 0.16686 0.0
H469 H 0.71363 0.58949 -0.00363 0.0
H470 H 0.57263 0.59935 0.98435 0.0
H471 H 0.55507 0.5893 0.02931 0.0
H472 H 0.7551 0.66076 0.0438 0.0
H473 H 0.78164 0.61942 0.03484 0.0
H474 H 0.77697 0.63421 0.06756 0.0
H475 H 0.66097 0.49421 0.03328 0.0
H476 H 0.69467 0.49926 0.06164 0.0
H477 H 0.73156 0.52692 0.03283 0.0
H478 H 0.84042 0.55421 0.09643 0.0
C479 C 0.77151 0.56057 0.09636 0.0
C480 C 0.29796 0.51716 0.15805 0.0
C481 C 0.28934 0.56063 0.15282 0.0
C482 C 0.34849 0.51891 0.15495 0.0
C483 C 0.39537 0.56386 0.14565 0.0
H484 H 0.26504 0.48077 0.16494 0.0
H485 H 0.35031 0.48362 0.15948 0.0
S486 S 0.39763 0.6894 0.12852 0.0
N487 N 0.33616 0.65127 0.13789 0.0
N488 N 0.42695 0.65358 0.1312 0.0
C489 C 0.38709 0.60729 0.14014 0.0
C490 C 0.33618 0.606 0.14392 0.0
C491 C 0.78378 0.29816 0.4992 0.0
C492 C 0.77033 0.24752 0.48867 0.0
C493 C 0.83413 0.34679 0.49508 0.0
C494 C 0.87548 0.35014 0.47935 0.0
H495 H 0.7551 0.30048 0.51111 0.0
H496 H 0.84007 0.3827 0.50395 0.0
S497 S 0.86437 0.23015 0.44778 0.0
N498 N 0.80738 0.20613 0.46252 0.0
N499 N 0.89727 0.29399 0.4543 0.0
C500 C 0.86264 0.29943 0.46927 0.0
C501 C 0.81232 0.25007 0.47394 0.0
C502 C 0.62587 0.7851 0.82031 0.0
C503 C 0.67342 0.78231 0.82195 0.0
C504 C 0.62436 0.83376 0.81594 0.0
C505 C 0.67018 0.88512 0.81354 0.0
H506 H 0.58857 0.74863 0.82172 0.0
H507 H 0.58603 0.83064 0.81377 0.0
S508 S 0.80604 0.90347 0.81559 0.0
N509 N 0.76859 0.83918 0.82016 0.0
N510 N 0.76547 0.92732 0.8125 0.0
C511 C 0.71788 0.88294 0.81528 0.0
C512 C 0.71953 0.8334 0.81941 0.0
C513 C 0.97041 0.58524 0.13323 0.0
C514 C 0.98065 0.56758 0.15655 0.0
C515 C 0.92275 0.58696 0.12765 0.0
C516 C 0.87883 0.57069 0.1446 0.0
H517 H 1.00013 0.5983 0.11866 0.0
H518 H 0.92142 0.60255 0.10925 0.0
S519 S 0.88813 0.53151 0.21112 0.0
N520 N 0.94361 0.5402 0.19858 0.0
N521 N 0.85608 0.54339 0.1884 0.0
C522 C 0.89004 0.556 0.16883 0.0
C523 C 0.93924 0.55414 0.17454 0.0
C524 C 0.40223 0.9299 0.49317 0.0
C525 C 0.45368 0.9378 0.48756 0.0
C526 C 0.35317 0.87959 0.4902 0.0
C527 C 0.35023 0.83216 0.48072 0.0
H528 H 0.39949 0.9633 0.50019 0.0
H529 H 0.31662 0.87842 0.49496 0.0
S530 S 0.4715 0.82763 0.46283 0.0
N531 N 0.49579 0.88953 0.47219 0.0
N532 N 0.40677 0.79911 0.46582 0.0
C533 C 0.40129 0.83962 0.4749 0.0
C534 C 0.45123 0.89035 0.4785 0.0
C535 C 0.64533 0.42271 0.83762 0.0
C536 C 0.6745 0.4698 0.82286 0.0
C537 C 0.64648 0.37369 0.83363 0.0
C538 C 0.67556 0.36597 0.81393 0.0
H539 H 0.62124 0.42363 0.85287 0.0
H540 H 0.62286 0.34073 0.84602 0.0
S541 S 0.75832 0.47465 0.76873 0.0
N542 N 0.7337 0.50273 0.78711 0.0
N543 N 0.73507 0.4139 0.77946 0.0
C544 C 0.7046 0.41282 0.79899 0.0
C545 C 0.70431 0.4629 0.80342 0.0
C546 C 0.64615 0.78361 0.47559 0.0
C547 C 0.59987 0.78434 0.48193 0.0
C548 C 0.65723 0.74646 0.48634 0.0
C549 C 0.62207 0.70855 0.50354 0.0
H550 H 0.67745 0.81613 0.46527 0.0
H551 H 0.69649 0.75228 0.48363 0.0
S552 S 0.48654 0.68104 0.5175 0.0
N553 N 0.51224 0.73519 0.50004 0.0
N554 N 0.53254 0.66396 0.51993 0.0
C555 C 0.57149 0.70268 0.50594 0.0
C556 C 0.56041 0.74093 0.4951 0.0
C557 C 0.79412 0.46062 0.85075 0.0
C558 C 0.83671 0.49705 0.83591 0.0
C559 C 0.79087 0.41344 0.859 0.0
C560 C 0.83011 0.40109 0.85266 0.0
H561 H 0.76466 0.47008 0.85722 0.0
H562 H 0.75974 0.38848 0.87197 0.0
S563 S 0.94532 0.47967 0.81103 0.0
N564 N 0.91527 0.51481 0.81274 0.0
N565 N 0.90932 0.42608 0.82799 0.0
C566 C 0.86982 0.43461 0.83563 0.0
C567 C 0.87317 0.48275 0.82734 0.0
C568 C 0.47436 0.895 0.16711 0.0
C569 C 0.42897 0.87631 0.15182 0.0
C570 C 0.50401 0.94865 0.17328 0.0
C571 C 0.48892 0.9847 0.16429 0.0
H572 H 0.48272 0.86733 0.17699 0.0
H573 H 0.53511 0.9609 0.18738 0.0
S574 S 0.38253 0.95712 0.11782 0.0
N575 N 0.37785 0.89914 0.12315 0.0
N576 N 0.43322 1.0 0.13502 0.0
C577 C 0.4493 0.96779 0.14563 0.0
C578 C 0.4194 0.91326 0.13921 0.0
C579 C 0.74 0.41485 0.54489 0.0
C580 C 0.73046 0.39355 0.52038 0.0
C581 C 0.78465 0.46302 0.55047 0.0
C582 C 0.82218 0.4927 0.53176 0.0
H583 H 0.71152 0.39518 0.55981 0.0
H584 H 0.78719 0.47836 0.56936 0.0
S585 S 0.81985 0.44973 0.46533 0.0
N586 N 0.76452 0.40243 0.47764 0.0
N587 N 0.85001 0.493 0.48835 0.0
C588 C 0.81496 0.46998 0.50747 0.0
C589 C 0.76864 0.42078 0.50167 0.0
C590 C 0.30444 0.56663 0.85758 0.0
C591 C 0.32442 0.54364 0.84075 0.0
C592 C 0.25293 0.53753 0.86667 0.0
C593 C 0.21978 0.48511 0.85881 0.0
H594 H 0.33041 0.60521 0.86574 0.0
H595 H 0.24045 0.55449 0.88148 0.0
S596 S 0.24911 0.41071 0.81122 0.0
N597 N 0.3042 0.46814 0.81371 0.0
N598 N 0.20672 0.4142 0.83053 0.0
C599 C 0.23672 0.46415 0.83962 0.0
C600 C 0.28935 0.49347 0.83051 0.0
C601 C 0.83053 0.39056 0.21979 0.0
C602 C 0.84623 0.39851 0.19432 0.0
C603 C 0.78709 0.39423 0.22779 0.0
C604 C 0.75681 0.40557 0.21064 0.0
H605 H 0.85078 0.37935 0.23362 0.0
H606 H 0.77503 0.38395 0.24729 0.0
S607 S 0.78457 0.43525 0.14224 0.0
N608 N 0.831 0.42282 0.15224 0.0
N609 N 0.74873 0.4296 0.16734 0.0
C610 C 0.77381 0.41654 0.18532 0.0
C611 C 0.81826 0.41261 0.17711 0.0
C612 C 0.10509 0.49428 0.08954 0.0
C613 C 1.10217 0.53994 0.09495 0.0
C614 C 1.07901 0.46271 0.06841 0.0
C615 C 1.04877 0.47548 0.05201 0.0
H616 H 0.12796 0.48294 0.10162 0.0
H617 H 1.08289 0.42826 0.06473 0.0
S618 S 1.02902 0.59124 0.05763 0.0
N619 N 1.06688 0.59654 0.08212 0.0
N620 N 1.01792 0.53719 0.04243 0.0
C621 C 1.04512 0.52075 0.05734 0.0
C622 C 1.07194 0.55308 0.07876 0.0
C623 C 0.54816 0.09661 0.41948 0.0
C624 C 0.60165 0.11537 0.42533 0.0
C625 C 0.53296 0.10761 0.396 0.0
C626 C 0.5708 0.13852 0.3778 0.0
H627 H 0.51772 0.07204 0.43283 0.0
H628 H 0.4913 0.09117 0.39189 0.0
S629 S 0.71609 0.19948 0.38454 0.0
N630 N 0.69259 0.16815 0.41157 0.0
N631 N 0.66409 0.18894 0.3675 0.0
C632 C 0.62449 0.15901 0.38381 0.0
C633 C 0.6399 0.14737 0.40757 0.0
C634 C 0.71934 0.67155 0.75323 0.0
C635 C 0.68535 0.61978 0.76174 0.0
C636 C 0.74541 0.68064 0.73004 0.0
C637 C 0.73924 0.63825 0.71503 0.0
H638 H 0.7247 0.70523 0.76424 0.0
H639 H 0.76958 0.72094 0.72351 0.0
S640 S 0.65758 0.49564 0.72944 0.0
N641 N 0.64858 0.52571 0.7538 0.0
N642 N 0.69864 0.54312 0.71036 0.0
C643 C 0.70693 0.58647 0.72367 0.0
C644 C 0.67966 0.57712 0.74704 0.0
C645 C 0.5898 1.05992 0.58857 0.0
C646 C 0.62433 0.09667 0.57067 0.0
C647 C 0.60017 1.06706 0.61491 0.0
C648 C 0.64488 0.11216 0.62476 0.0
H649 H 0.55365 1.02568 0.58215 0.0
H650 H 0.57169 1.03799 0.62774 0.0
S651 S 0.74849 0.22021 0.58612 0.0
N652 N 0.70614 0.17931 0.56485 0.0
N653 N 0.72498 0.19353 0.61407 0.0
C654 C 0.68025 0.14884 0.60702 0.0
C655 C 0.67022 0.14092 0.58014 0.0
C656 C 0.63282 0.58333 0.91355 0.0
C657 C 0.68079 0.6264 0.90513 0.0
C658 C 0.62108 0.57371 0.93974 0.0
C659 C 0.65733 0.60579 0.95868 0.0
H660 H 0.6038 0.5574 0.89986 0.0
H661 H 0.58341 0.5405 0.94521 0.0
S662 S 0.78881 0.72286 0.94701 0.0
N663 N 0.76473 0.70129 0.91836 0.0
N664 N 0.74324 0.68223 0.96691 0.0
C665 C 0.70559 0.64834 0.95048 0.0
C666 C 0.71708 0.6588 0.92397 0.0
C667 C 0.13575 0.60647 0.24797 0.0
C668 C 0.12874 0.55809 0.23863 0.0
C669 C 0.13549 0.61571 0.27436 0.0
C670 C 0.12689 0.57653 0.29256 0.0
H671 H 0.14275 0.63789 0.23486 0.0
H672 H 0.14202 0.6539 0.28056 0.0
S673 S 0.10476 0.44241 0.27819 0.0
N674 N 0.11198 0.47015 0.25012 0.0
N675 N 0.11075 0.48731 0.29897 0.0
C676 C 0.11872 0.52774 0.28337 0.0
C677 C 0.11985 0.51863 0.25669 0.0
loop_
_geom_bond_atom_site_label_1
_geom_bond_atom_site_label_2
_geom_bond_distance
_geom_bond_site_symmetry_2
_ccdc_geom_bond_type
Tb0 C2 2.809 . S
Tb0 O20 2.484 . S
Tb0 O21 2.440 . S
Tb0 O22 2.658 . S
Tb0 O23 2.409 . S
Tb0 O24 2.378 . S
Tb0 O28 2.325 . S
Tb0 O31 2.341 1_455 S
Tb1 C11 2.809 . S
Tb1 O22 2.325 1_655 S
Tb1 O25 2.341 1_655 S
Tb1 O26 2.484 . S
Tb1 O27 2.440 . S
Tb1 O28 2.658 1_655 S
Tb1 O29 2.408 . S
Tb1 O30 2.378 . S
C2 Tb0 2.809 . S
C2 C3 1.514 . S
C2 O20 1.248 . S
C2 O21 1.266 . S
C3 C2 1.514 . S
C3 C4 1.359 . S
C3 C8 1.348 . S
C4 C3 1.359 . S
C4 C5 1.380 . S
C4 H32 0.929 . S
C5 C4 1.380 . S
C5 C6 1.347 . S
C5 H33 0.931 . S
C6 C5 1.347 . S
C6 C7 1.369 . S
C7 C6 1.369 . S
C7 C8 1.408 . S
C7 H34 0.930 . S
C8 C3 1.348 . S
C8 C7 1.408 . S
C8 H35 0.930 . S
C9 O22 1.281 . S
C9 O23 1.254 . S
C10 O24 1.236 . S
C10 O25 1.266 . S
C11 Tb1 2.809 . S
C11 C12 1.514 . S
C11 O26 1.248 . S
C11 O27 1.266 . S
C12 C11 1.514 . S
C12 C13 1.359 . S
C12 C17 1.348 . S
C13 C12 1.359 . S
C13 C14 1.380 . S
C13 H36 0.929 . S
C14 C13 1.380 . S
C14 C15 1.347 . S
C14 H37 0.931 . S
C15 C14 1.347 . S
C15 C16 1.369 . S
C16 C15 1.369 . S
C16 C17 1.408 . S
C16 H38 0.930 . S
C17 C12 1.348 . S
C17 C16 1.408 . S
C17 H39 0.930 . S
C18 O28 1.281 . S
C18 O29 1.253 1_455 S
C19 O30 1.236 . S
C19 O31 1.266 . S
O20 Tb0 2.484 . S
O20 C2 1.248 . S
O21 Tb0 2.440 . S
O21 C2 1.266 . S
O22 Tb0 2.658 . S
O22 Tb1 2.325 1_455 S
O22 C9 1.281 . S
O23 Tb0 2.409 . S
O23 C9 1.254 . S
O24 Tb0 2.378 . S
O24 C10 1.236 . S
O25 Tb1 2.341 1_455 S
O25 C10 1.266 . S
O26 Tb1 2.484 . S
O26 C11 1.248 . S
O27 Tb1 2.440 . S
O27 C11 1.266 . S
O28 Tb0 2.325 . S
O28 Tb1 2.658 1_455 S
O28 C18 1.281 . S
O29 Tb1 2.408 . S
O29 C18 1.253 1_655 S
O30 Tb1 2.378 . S
O30 C19 1.236 . S
O31 Tb0 2.341 1_655 S
O31 C19 1.266 . S
H32 C4 0.929 . S
H33 C5 0.931 . S
H34 C7 0.930 . S
H35 C8 0.930 . S
H36 C13 0.929 . S
H37 C14 0.931 . S
H38 C16 0.930 . S
H39 C17 0.930 . S
Tb40 C42 2.809 . S
Tb40 O60 2.484 . S
Tb40 O61 2.440 . S
Tb40 O62 2.658 1_565 S
Tb40 O63 2.409 1_565 S
Tb40 O64 2.378 . S
Tb40 O68 2.325 1_565 S
Tb40 O71 2.341 1_565 S
Tb41 C51 2.809 . S
Tb41 O62 2.325 . S
Tb41 O65 2.341 1_545 S
Tb41 O66 2.484 . S
Tb41 O67 2.440 . S
Tb41 O68 2.658 . S
Tb41 O69 2.409 . S
Tb41 O70 2.378 . S
C42 Tb40 2.809 . S
C42 C43 1.514 . S
C42 O60 1.248 . S
C42 O61 1.266 . S
C43 C42 1.514 . S
C43 C44 1.359 . S
C43 C48 1.348 . S
C44 C43 1.359 . S
C44 C45 1.380 . S
C44 H72 0.929 . S
C45 C44 1.380 . S
C45 C46 1.347 . S
C45 H73 0.931 . S
C46 C45 1.347 . S
C46 C47 1.369 . S
C47 C46 1.369 . S
C47 C48 1.408 . S
C47 H74 0.930 . S
C48 C43 1.348 . S
C48 C47 1.408 . S
C48 H75 0.930 . S
C49 O62 1.281 . S
C49 O63 1.254 . S
C50 O64 1.236 . S
C50 O65 1.266 . S
C51 Tb41 2.809 . S
C51 C52 1.514 . S
C51 O66 1.248 . S
C51 O67 1.266 . S
C52 C51 1.514 . S
C52 C53 1.359 . S
C52 C57 1.348 . S
C53 C52 1.359 . S
C53 C54 1.380 . S
C53 H76 0.929 . S
C54 C53 1.380 . S
C54 C55 1.347 . S
C54 H77 0.931 . S
C55 C54 1.347 . S
C55 C56 1.369 . S
C56 C55 1.369 . S
C56 C57 1.408 . S
C56 H78 0.930 . S
C57 C52 1.348 . S
C57 C56 1.408 . S
C57 H79 0.930 . S
C58 O68 1.281 . S
C58 O69 1.254 . S
C59 O70 1.236 . S
C59 O71 1.266 . S
O60 Tb40 2.484 . S
O60 C42 1.248 . S
O61 Tb40 2.440 . S
O61 C42 1.266 . S
O62 Tb40 2.658 1_545 S
O62 Tb41 2.325 . S
O62 C49 1.281 . S
O63 Tb40 2.409 1_545 S
O63 C49 1.254 . S
O64 Tb40 2.378 . S
O64 C50 1.236 . S
O65 Tb41 2.341 1_565 S
O65 C50 1.266 . S
O66 Tb41 2.484 . S
O66 C51 1.248 . S
O67 Tb41 2.440 . S
O67 C51 1.266 . S
O68 Tb40 2.325 1_545 S
O68 Tb41 2.658 . S
O68 C58 1.281 . S
O69 Tb41 2.409 . S
O69 C58 1.254 . S
O70 Tb41 2.378 . S
O70 C59 1.236 . S
O71 Tb40 2.341 1_545 S
O71 C59 1.266 . S
H72 C44 0.929 . S
H73 C45 0.931 . S
H74 C47 0.930 . S
H75 C48 0.930 . S
H76 C53 0.929 . S
H77 C54 0.931 . S
H78 C56 0.930 . S
H79 C57 0.930 . S
Tb80 C82 2.809 . S
Tb80 O100 2.484 . S
Tb80 O101 2.440 . S
Tb80 O102 2.658 . S
Tb80 O103 2.409 . S
Tb80 O104 2.378 . S
Tb80 O108 2.325 . S
Tb80 O111 2.341 . S
Tb81 C91 2.809 . S
Tb81 O102 2.325 . S
Tb81 O105 2.341 . S
Tb81 O106 2.484 . S
Tb81 O107 2.440 . S
Tb81 O108 2.658 . S
Tb81 O109 2.409 . S
Tb81 O110 2.378 . S
C82 Tb80 2.809 . S
C82 C83 1.514 . S
C82 O100 1.248 . S
C82 O101 1.266 . S
C83 C82 1.514 . S
C83 C84 1.359 . S
C83 C88 1.348 . S
C84 C83 1.359 . S
C84 C85 1.380 . S
C84 H112 0.929 . S
C85 C84 1.380 . S
C85 C86 1.347 . S
C85 H113 0.931 . S
C86 C85 1.347 . S
C86 C87 1.369 . S
C87 C86 1.369 . S
C87 C88 1.408 . S
C87 H114 0.930 . S
C88 C83 1.348 . S
C88 C87 1.408 . S
C88 H115 0.930 . S
C89 O102 1.281 . S
C89 O103 1.254 . S
C90 O104 1.236 . S
C90 O105 1.266 . S
C91 Tb81 2.809 . S
C91 C92 1.514 . S
C91 O106 1.248 . S
C91 O107 1.266 . S
C92 C91 1.514 . S
C92 C93 1.359 . S
C92 C97 1.348 . S
C93 C92 1.359 . S
C93 C94 1.380 . S
C93 H116 0.929 . S
C94 C93 1.380 . S
C94 C95 1.347 . S
C94 H117 0.931 . S
C95 C94 1.347 . S
C95 C96 1.369 . S
C96 C95 1.369 . S
C96 C97 1.408 . S
C96 H118 0.930 . S
C97 C92 1.348 . S
C97 C96 1.408 . S
C97 H119 0.930 . S
C98 O108 1.281 . S
C98 O109 1.254 . S
C99 O110 1.236 . S
C99 O111 1.266 . S
O100 Tb80 2.484 . S
O100 C82 1.248 . S
O101 Tb80 2.440 . S
O101 C82 1.266 . S
O102 Tb80 2.658 . S
O102 Tb81 2.325 . S
O102 C89 1.281 . S
O103 Tb80 2.409 . S
O103 C89 1.254 . S
O104 Tb80 2.378 . S
O104 C90 1.236 . S
O105 Tb81 2.341 . S
O105 C90 1.266 . S
O106 Tb81 2.484 . S
O106 C91 1.248 . S
O107 Tb81 2.440 . S
O107 C91 1.266 . S
O108 Tb80 2.325 . S
O108 Tb81 2.658 . S
O108 C98 1.281 . S
O109 Tb81 2.409 . S
O109 C98 1.254 . S
O110 Tb81 2.378 . S
O110 C99 1.236 . S
O111 Tb80 2.341 . S
O111 C99 1.266 . S
H112 C84 0.929 . S
H113 C85 0.931 . S
H114 C87 0.930 . S
H115 C88 0.930 . S
H116 C93 0.929 . S
H117 C94 0.931 . S
H118 C96 0.930 . S
H119 C97 0.930 . S
C120 C121 1.391 . S
C120 C124 1.391 . S
C120 H162 0.948 . S
C121 C120 1.391 . S
C121 C122 1.391 . S
C122 C121 1.391 . S
C122 H178 0.947 . S
C122 C179 1.392 . S
C123 C124 1.391 . S
C123 C127 1.397 . S
C123 C179 1.419 . S
C124 C120 1.391 . S
C124 C123 1.391 . S
C124 C125 1.399 . S
C125 C124 1.399 . S
C125 C128 1.396 . S
C125 C137 1.453 . S
C125 C138 1.684 . S
H126 C150 0.948 . S
C127 C123 1.397 . S
C127 C128 1.394 . S
C127 C146 1.723 . S
C128 C125 1.396 . S
C128 C127 1.394 . S
C128 C158 1.723 . S
H129 C152 0.947 . S
H130 C153 0.948 1_545 S
H131 C159 0.982 . S
H132 C160 0.979 . S
H133 C160 0.980 . S
H134 C160 0.983 . S
H135 C159 0.979 . S
H136 C159 0.977 . S
C137 C125 1.453 . S
C137 H166 0.982 . S
C137 H167 0.979 . S
C137 H168 0.977 . S
C138 C125 1.684 . S
C138 H163 0.979 . S
C138 H164 0.980 . S
C138 H165 0.983 . S
C139 C140 1.391 . S
C139 C144 1.391 . S
C139 H169 0.948 . S
C140 C139 1.391 . S
C140 C141 1.391 . S
C141 C140 1.391 . S
C141 C142 1.392 1_545 S
C141 H170 0.947 1_545 S
C142 C141 1.392 1_565 S
C142 C143 1.419 1_565 S
C142 H171 0.948 . S
C143 C142 1.419 1_545 S
C143 C144 1.391 . S
C143 C147 1.397 . S
C144 C139 1.391 . S
C144 C143 1.391 . S
C144 C145 1.399 . S
C145 C144 1.399 . S
C145 C146 1.396 . S
C145 C148 1.453 . S
C145 C149 1.684 . S
C146 C127 1.723 . S
C146 C145 1.396 . S
C146 C147 1.394 . S
C147 C143 1.397 . S
C147 C146 1.394 . S
C147 C157 1.723 1_545 S
C148 C145 1.453 . S
C148 H172 0.982 . S
C148 H173 0.979 . S
C148 H174 0.977 . S
C149 C145 1.684 . S
C149 H175 0.979 . S
C149 H176 0.980 . S
C149 H177 0.983 . S
C150 H126 0.948 . S
C150 C151 1.391 . S
C150 C155 1.391 . S
C151 C150 1.391 . S
C151 C152 1.391 . S
C152 H129 0.947 . S
C152 C151 1.391 . S
C152 C153 1.392 . S
C153 H130 0.948 1_565 S
C153 C152 1.392 . S
C153 C154 1.419 . S
C154 C153 1.419 . S
C154 C155 1.391 . S
C154 C158 1.397 1_565 S
C155 C150 1.391 . S
C155 C154 1.391 . S
C155 C156 1.399 . S
C156 C155 1.399 . S
C156 C157 1.396 . S
C156 C159 1.453 . S
C156 C160 1.684 . S
C157 C147 1.723 1_565 S
C157 C156 1.396 . S
C157 C158 1.394 1_565 S
C158 C128 1.723 . S
C158 C154 1.397 1_545 S
C158 C157 1.394 1_545 S
C159 H131 0.982 . S
C159 H135 0.979 . S
C159 H136 0.977 . S
C159 C156 1.453 . S
C160 H132 0.979 . S
C160 H133 0.980 . S
C160 H134 0.983 . S
C160 C156 1.684 . S
H161 C179 0.948 . S
H162 C120 0.948 . S
H163 C138 0.979 . S
H164 C138 0.980 . S
H165 C138 0.983 . S
H166 C137 0.982 . S
H167 C137 0.979 . S
H168 C137 0.977 . S
H169 C139 0.948 . S
H170 C141 0.947 1_565 S
H171 C142 0.948 . S
H172 C148 0.982 . S
H173 C148 0.979 . S
H174 C148 0.977 . S
H175 C149 0.979 . S
H176 C149 0.980 . S
H177 C149 0.983 . S
H178 C122 0.947 . S
C179 C122 1.392 . S
C179 C123 1.419 . S
C179 H161 0.948 . S
C180 C181 1.391 . S
C180 C184 1.391 . S
C180 H222 0.948 . S
C181 C180 1.391 . S
C181 C182 1.391 . S
C182 C181 1.391 . S
C182 H238 0.947 . S
C182 C239 1.392 . S
C183 C184 1.391 . S
C183 C187 1.397 . S
C183 C239 1.419 . S
C184 C180 1.391 . S
C184 C183 1.391 . S
C184 C185 1.399 . S
C185 C184 1.399 . S
C185 C188 1.396 . S
C185 C197 1.453 . S
C185 C198 1.684 . S
H186 C210 0.948 . S
C187 C183 1.397 . S
C187 C188 1.394 . S
C187 C206 1.723 . S
C188 C185 1.396 . S
C188 C187 1.394 . S
C188 C218 1.723 . S
H189 C212 0.947 . S
H190 C213 0.948 . S
H191 C219 0.982 . S
H192 C220 0.979 . S
H193 C220 0.980 . S
H194 C220 0.983 . S
H195 C219 0.979 . S
H196 C219 0.977 . S
C197 C185 1.453 . S
C197 H226 0.982 . S
C197 H227 0.979 . S
C197 H228 0.977 . S
C198 C185 1.684 . S
C198 H223 0.979 . S
C198 H224 0.980 . S
C198 H225 0.983 . S
C199 C200 1.391 . S
C199 C204 1.391 . S
C199 H229 0.948 . S
C200 C199 1.391 . S
C200 C201 1.391 . S
C201 C200 1.391 . S
C201 C202 1.392 . S
C201 H230 0.947 . S
C202 C201 1.392 . S
C202 C203 1.419 . S
C202 H231 0.948 . S
C203 C202 1.419 . S
C203 C204 1.391 . S
C203 C207 1.397 . S
C204 C199 1.391 . S
C204 C203 1.391 . S
C204 C205 1.399 . S
C205 C204 1.399 . S
C205 C206 1.396 . S
C205 C208 1.453 . S
C205 C209 1.684 . S
C206 C187 1.723 . S
C206 C205 1.396 . S
C206 C207 1.394 . S
C207 C203 1.397 . S
C207 C206 1.394 . S
C207 C217 1.723 . S
C208 C205 1.453 . S
C208 H232 0.982 . S
C208 H233 0.979 . S
C208 H234 0.977 . S
C209 C205 1.684 . S
C209 H235 0.979 . S
C209 H236 0.980 . S
C209 H237 0.983 . S
C210 H186 0.948 . S
C210 C211 1.391 . S
C210 C215 1.391 . S
C211 C210 1.391 . S
C211 C212 1.391 . S
C212 H189 0.947 . S
C212 C211 1.391 . S
C212 C213 1.392 . S
C213 H190 0.948 . S
C213 C212 1.392 . S
C213 C214 1.419 . S
C214 C213 1.419 . S
C214 C215 1.391 . S
C214 C218 1.397 . S
C215 C210 1.391 . S
C215 C214 1.391 . S
C215 C216 1.399 . S
C216 C215 1.399 . S
C216 C217 1.396 . S
C216 C219 1.453 . S
C216 C220 1.684 . S
C217 C207 1.723 . S
C217 C216 1.396 . S
C217 C218 1.394 . S
C218 C188 1.723 . S
C218 C214 1.397 . S
C218 C217 1.394 . S
C219 H191 0.982 . S
C219 H195 0.979 . S
C219 H196 0.977 . S
C219 C216 1.453 . S
C220 H192 0.979 . S
C220 H193 0.980 . S
C220 H194 0.983 . S
C220 C216 1.684 . S
H221 C239 0.948 . S
H222 C180 0.948 . S
H223 C198 0.979 . S
H224 C198 0.980 . S
H225 C198 0.983 . S
H226 C197 0.982 . S
H227 C197 0.979 . S
H228 C197 0.977 . S
H229 C199 0.948 . S
H230 C201 0.947 . S
H231 C202 0.948 . S
H232 C208 0.982 . S
H233 C208 0.979 . S
H234 C208 0.977 . S
H235 C209 0.979 . S
H236 C209 0.980 . S
H237 C209 0.983 . S
H238 C182 0.947 . S
C239 C182 1.392 . S
C239 C183 1.419 . S
C239 H221 0.948 . S
C240 C241 1.391 . S
C240 C244 1.391 . S
C240 H282 0.948 . S
C241 C240 1.391 . S
C241 C242 1.391 . S
C242 C241 1.391 . S
C242 H298 0.947 . S
C242 C299 1.392 . S
C243 C244 1.391 . S
C243 C247 1.397 . S
C243 C299 1.419 . S
C244 C240 1.391 . S
C244 C243 1.391 . S
C244 C245 1.399 . S
C245 C244 1.399 . S
C245 C248 1.396 . S
C245 C257 1.453 . S
C245 C258 1.684 . S
H246 C270 0.948 . S
C247 C243 1.397 . S
C247 C248 1.394 . S
C247 C266 1.723 . S
C248 C245 1.396 . S
C248 C247 1.394 . S
C248 C278 1.723 1_455 S
H249 C272 0.947 . S
H250 C273 0.948 . S
H251 C279 0.982 . S
H252 C280 0.979 . S
H253 C280 0.980 . S
H254 C280 0.983 . S
H255 C279 0.979 . S
H256 C279 0.977 . S
C257 C245 1.453 . S
C257 H286 0.985 1_455 S
C257 H287 0.979 . S
C257 H288 0.977 1_455 S
C258 C245 1.684 . S
C258 H283 0.979 . S
C258 H284 0.980 . S
C258 H285 0.983 . S
C259 C260 1.391 . S
C259 C264 1.391 1_554 S
C259 H289 0.948 . S
C260 C259 1.391 . S
C260 C261 1.391 1_455 S
C261 C260 1.391 1_655 S
C261 C262 1.392 1_554 S
C261 H290 0.947 . S
C262 C261 1.392 1_556 S
C262 C263 1.419 . S
C262 H291 0.948 . S
C263 C262 1.419 . S
C263 C264 1.391 1_655 S
C263 C267 1.397 . S
C264 C259 1.391 1_556 S
C264 C263 1.391 1_455 S
C264 C265 1.399 . S
C265 C264 1.399 . S
C265 C266 1.396 . S
C265 C268 1.453 . S
C265 C269 1.684 . S
C266 C247 1.723 . S
C266 C265 1.396 . S
C266 C267 1.394 1_455 S
C267 C263 1.397 . S
C267 C266 1.394 1_655 S
C267 C277 1.723 . S
C268 C265 1.453 . S
C268 H292 0.982 . S
C268 H293 0.979 . S
C268 H294 0.977 . S
C269 C265 1.684 . S
C269 H295 0.979 . S
C269 H296 0.980 . S
C269 H297 0.983 . S
C270 H246 0.948 . S
C270 C271 1.391 . S
C270 C275 1.391 . S
C271 C270 1.391 . S
C271 C272 1.391 . S
C272 H249 0.947 . S
C272 C271 1.391 . S
C272 C273 1.392 . S
C273 H250 0.948 . S
C273 C272 1.392 . S
C273 C274 1.419 . S
C274 C273 1.419 . S
C274 C275 1.391 . S
C274 C278 1.397 . S
C275 C270 1.391 . S
C275 C274 1.391 . S
C275 C276 1.399 . S
C276 C275 1.399 . S
C276 C277 1.396 . S
C276 C279 1.453 . S
C276 C280 1.684 . S
C277 C267 1.723 . S
C277 C276 1.396 . S
C277 C278 1.394 . S
C278 C248 1.723 1_655 S
C278 C274 1.397 . S
C278 C277 1.394 . S
C279 H251 0.982 . S
C279 H255 0.979 . S
C279 H256 0.977 . S
C279 C276 1.453 . S
C280 H252 0.979 . S
C280 H253 0.980 . S
C280 H254 0.983 . S
C280 C276 1.684 . S
H281 C299 0.948 . S
H282 C240 0.948 . S
H283 C258 0.979 . S
H284 C258 0.980 . S
H285 C258 0.983 . S
H286 C257 0.985 1_655 S
H287 C257 0.979 . S
H288 C257 0.977 1_655 S
H289 C259 0.948 . S
H290 C261 0.947 . S
H291 C262 0.948 . S
H292 C268 0.982 . S
H293 C268 0.979 . S
H294 C268 0.977 . S
H295 C269 0.979 . S
H296 C269 0.980 . S
H297 C269 0.983 . S
H298 C242 0.947 . S
C299 C242 1.392 . S
C299 C243 1.419 . S
C299 H281 0.948 . S
C300 C301 1.391 . S
C300 C304 1.391 . S
C300 H342 0.948 . S
C301 C300 1.391 . S
C301 C302 1.391 . S
C302 C301 1.391 . S
C302 H358 0.947 . S
C302 C359 1.392 . S
C303 C304 1.391 . S
C303 C307 1.397 1_655 S
C303 C359 1.419 . S
C304 C300 1.391 . S
C304 C303 1.391 . S
C304 C305 1.399 1_655 S
C305 C304 1.399 1_455 S
C305 C308 1.396 . S
C305 C317 1.453 . S
C305 C318 1.684 . S
H306 C330 0.948 . S
C307 C303 1.397 1_455 S
C307 C308 1.394 . S
C307 C326 1.723 . S
C308 C305 1.396 . S
C308 C307 1.394 . S
C308 C338 1.723 . S
H309 C332 0.947 . S
H310 C333 0.948 . S
H311 C339 0.982 . S
H312 C340 0.979 . S
H313 C340 0.980 . S
H314 C340 0.983 . S
H315 C339 0.979 . S
H316 C339 0.977 . S
C317 C305 1.453 . S
C317 H346 0.982 . S
C317 H347 0.979 . S
C317 H348 0.977 . S
C318 C305 1.684 . S
C318 H343 0.979 1_455 S
C318 H344 0.980 . S
C318 H345 0.983 1_455 S
C319 C320 1.391 . S
C319 C324 1.391 . S
C319 H349 0.948 1_455 S
C320 C319 1.391 . S
C320 C321 1.391 . S
C321 C320 1.391 . S
C321 C322 1.392 . S
C321 H350 0.947 . S
C322 C321 1.392 . S
C322 C323 1.419 . S
C322 H351 0.948 . S
C323 C322 1.419 . S
C323 C324 1.391 . S
C323 C327 1.397 . S
C324 C319 1.391 . S
C324 C323 1.391 . S
C324 C325 1.399 1_455 S
C325 C324 1.399 1_655 S
C325 C326 1.396 1_655 S
C325 C328 1.453 . S
C325 C329 1.684 . S
C326 C307 1.723 . S
C326 C325 1.396 1_455 S
C326 C327 1.394 . S
C327 C323 1.397 . S
C327 C326 1.394 . S
C327 C337 1.723 . S
C328 C325 1.453 . S
C328 H352 0.982 1_655 S
C328 H353 0.979 . S
C328 H354 0.977 . S
C329 C325 1.684 . S
C329 H355 0.979 . S
C329 H356 0.980 . S
C329 H357 0.983 . S
C330 H306 0.948 . S
C330 C331 1.391 . S
C330 C335 1.391 . S
C331 C330 1.391 . S
C331 C332 1.391 . S
C332 H309 0.947 . S
C332 C331 1.391 . S
C332 C333 1.392 . S
C333 H310 0.948 . S
C333 C332 1.392 . S
C333 C334 1.419 . S
C334 C333 1.419 . S
C334 C335 1.391 . S
C334 C338 1.397 . S
C335 C330 1.391 . S
C335 C334 1.391 . S
C335 C336 1.399 . S
C336 C335 1.399 . S
C336 C337 1.396 . S
C336 C339 1.453 . S
C336 C340 1.684 . S
C337 C327 1.723 . S
C337 C336 1.396 . S
C337 C338 1.394 . S
C338 C308 1.723 . S
C338 C334 1.397 . S
C338 C337 1.394 . S
C339 H311 0.982 . S
C339 H315 0.979 . S
C339 H316 0.977 . S
C339 C336 1.453 . S
C340 H312 0.979 . S
C340 H313 0.980 . S
C340 H314 0.983 . S
C340 C336 1.684 . S
H341 C359 0.948 . S
H342 C300 0.948 . S
H343 C318 0.979 1_655 S
H344 C318 0.980 . S
H345 C318 0.983 1_655 S
H346 C317 0.982 . S
H347 C317 0.979 . S
H348 C317 0.977 . S
H349 C319 0.948 1_655 S
H350 C321 0.947 . S
H351 C322 0.948 . S
H352 C328 0.982 1_455 S
H353 C328 0.979 . S
H354 C328 0.977 . S
H355 C329 0.979 . S
H356 C329 0.980 . S
H357 C329 0.983 . S
H358 C302 0.947 . S
C359 C302 1.392 . S
C359 C303 1.419 . S
C359 H341 0.948 . S
C360 C361 1.391 . S
C360 C364 1.391 . S
C360 H402 0.948 . S
C361 C360 1.391 . S
C361 C362 1.391 . S
C362 C361 1.391 . S
C362 H418 0.947 . S
C362 C419 1.392 . S
C363 C364 1.391 . S
C363 C367 1.397 . S
C363 C419 1.419 . S
C364 C360 1.391 . S
C364 C363 1.391 . S
C364 C365 1.399 . S
C365 C364 1.399 . S
C365 C368 1.396 . S
C365 C377 1.453 . S
C365 C378 1.684 . S
H366 C390 0.948 . S
C367 C363 1.397 . S
C367 C368 1.394 . S
C367 C386 1.723 . S
C368 C365 1.396 . S
C368 C367 1.394 . S
C368 C398 1.723 1_565 S
H369 C392 0.947 . S
H370 C393 0.948 . S
H371 C399 0.982 . S
H372 C400 0.979 . S
H373 C400 0.980 . S
H374 C400 0.983 . S
H375 C399 0.979 . S
H376 C399 0.977 . S
C377 C365 1.453 . S
C377 H406 0.982 1_565 S
C377 H407 0.979 . S
C377 H408 0.977 1_565 S
C378 C365 1.684 . S
C378 H403 0.979 . S
C378 H404 0.980 . S
C378 H405 0.983 . S
C379 C380 1.391 1_565 S
C379 C384 1.391 . S
C379 H409 0.948 . S
C380 C379 1.391 1_545 S
C380 C381 1.391 . S
C381 C380 1.391 . S
C381 C382 1.392 . S
C381 H410 0.947 . S
C382 C381 1.392 . S
C382 C383 1.419 . S
C382 H411 0.948 . S
C383 C382 1.419 . S
C383 C384 1.391 1_545 S
C383 C387 1.397 . S
C384 C379 1.391 . S
C384 C383 1.391 1_565 S
C384 C385 1.399 . S
C385 C384 1.399 . S
C385 C386 1.396 . S
C385 C388 1.453 . S
C385 C389 1.684 . S
C386 C367 1.723 . S
C386 C385 1.396 . S
C386 C387 1.394 1_565 S
C387 C383 1.397 . S
C387 C386 1.394 1_545 S
C387 C397 1.723 . S
C388 C385 1.453 . S
C388 H412 0.982 . S
C388 H413 0.979 . S
C388 H414 0.977 . S
C389 C385 1.684 . S
C389 H415 0.979 . S
C389 H416 0.980 . S
C389 H417 0.983 . S
C390 H366 0.948 . S
C390 C391 1.391 . S
C390 C395 1.391 . S
C391 C390 1.391 . S
C391 C392 1.391 . S
C392 H369 0.947 . S
C392 C391 1.391 . S
C392 C393 1.392 . S
C393 H370 0.948 . S
C393 C392 1.392 . S
C393 C394 1.419 . S
C394 C393 1.419 . S
C394 C395 1.391 . S
C394 C398 1.397 . S
C395 C390 1.391 . S
C395 C394 1.391 . S
C395 C396 1.399 . S
C396 C395 1.399 . S
C396 C397 1.396 . S
C396 C399 1.453 . S
C396 C400 1.684 . S
C397 C387 1.723 . S
C397 C396 1.396 . S
C397 C398 1.394 . S
C398 C368 1.723 1_545 S
C398 C394 1.397 . S
C398 C397 1.394 . S
C399 H371 0.982 . S
C399 H375 0.979 . S
C399 H376 0.977 . S
C399 C396 1.453 . S
C400 H372 0.979 . S
C400 H373 0.980 . S
C400 H374 0.983 . S
C400 C396 1.684 . S
H401 C419 0.948 . S
H402 C360 0.948 . S
H403 C378 0.979 . S
H404 C378 0.980 . S
H405 C378 0.983 . S
H406 C377 0.982 1_545 S
H407 C377 0.979 . S
H408 C377 0.977 1_545 S
H409 C379 0.948 . S
H410 C381 0.947 . S
H411 C382 0.948 . S
H412 C388 0.982 . S
H413 C388 0.979 . S
H414 C388 0.977 . S
H415 C389 0.979 . S
H416 C389 0.980 . S
H417 C389 0.983 . S
H418 C362 0.947 . S
C419 C362 1.392 . S
C419 C363 1.419 . S
C419 H401 0.948 . S
C420 C421 1.391 . S
C420 C424 1.391 . S
C420 H462 0.948 . S
C421 C420 1.391 . S
C421 C422 1.391 . S
C422 C421 1.391 . S
C422 H478 0.947 . S
C422 C479 1.392 . S
C423 C424 1.391 . S
C423 C427 1.397 . S
C423 C479 1.419 . S
C424 C420 1.391 . S
C424 C423 1.391 . S
C424 C425 1.399 . S
C425 C424 1.399 . S
C425 C428 1.396 . S
C425 C437 1.453 . S
C425 C438 1.684 . S
H426 C450 0.948 . S
C427 C423 1.397 . S
C427 C428 1.394 . S
C427 C446 1.723 . S
C428 C425 1.396 . S
C428 C427 1.394 . S
C428 C458 1.723 . S
H429 C452 0.947 . S
H430 C453 0.948 . S
H431 C459 0.982 . S
H432 C460 0.979 . S
H433 C460 0.980 . S
H434 C460 0.983 . S
H435 C459 0.979 . S
H436 C459 0.977 . S
C437 C425 1.453 . S
C437 H466 0.982 . S
C437 H467 0.979 . S
C437 H468 0.977 . S
C438 C425 1.684 . S
C438 H463 0.979 . S
C438 H464 0.980 . S
C438 H465 0.983 . S
C439 C440 1.399 . S
C439 C444 1.391 . S
C439 H469 0.948 . S
C440 C439 1.399 . S
C440 C441 1.397 . S
C441 C440 1.397 . S
C441 C442 1.392 . S
C441 H470 0.947 . S
C442 C441 1.392 . S
C442 C443 1.419 . S
C442 H471 0.948 . S
C443 C442 1.419 . S
C443 C444 1.391 . S
C443 C447 1.397 . S
C444 C439 1.391 . S
C444 C443 1.391 . S
C444 C445 1.399 . S
C445 C444 1.399 . S
C445 C446 1.396 . S
C445 C448 1.453 . S
C445 C449 1.684 . S
C446 C427 1.723 . S
C446 C445 1.396 . S
C446 C447 1.394 . S
C447 C443 1.397 . S
C447 C446 1.394 . S
C447 C457 1.723 . S
C448 C445 1.453 . S
C448 H472 0.982 . S
C448 H473 0.979 . S
C448 H474 0.977 . S
C449 C445 1.684 . S
C449 H475 0.979 . S
C449 H476 0.980 . S
C449 H477 0.983 . S
C450 H426 0.948 . S
C450 C451 1.391 . S
C450 C455 1.391 . S
C451 C450 1.391 . S
C451 C452 1.391 . S
C452 H429 0.947 . S
C452 C451 1.391 . S
C452 C453 1.392 . S
C453 H430 0.948 . S
C453 C452 1.392 . S
C453 C454 1.419 . S
C454 C453 1.419 . S
C454 C455 1.391 . S
C454 C458 1.397 . S
C455 C450 1.391 . S
C455 C454 1.391 . S
C455 C456 1.399 . S
C456 C455 1.399 . S
C456 C457 1.396 . S
C456 C459 1.453 . S
C456 C460 1.684 . S
C457 C447 1.723 . S
C457 C456 1.396 . S
C457 C458 1.394 . S
C458 C428 1.723 . S
C458 C454 1.397 . S
C458 C457 1.394 . S
C459 H431 0.982 . S
C459 H435 0.979 . S
C459 H436 0.977 . S
C459 C456 1.453 . S
C460 H432 0.979 . S
C460 H433 0.980 . S
C460 H434 0.983 . S
C460 C456 1.684 . S
H461 C479 0.948 . S
H462 C420 0.948 . S
H463 C438 0.979 . S
H464 C438 0.980 . S
H465 C438 0.983 . S
H466 C437 0.982 . S
H467 C437 0.979 . S
H468 C437 0.977 . S
H469 C439 0.948 . S
H470 C441 0.947 . S
H471 C442 0.948 . S
H472 C448 0.982 . S
H473 C448 0.979 . S
H474 C448 0.977 . S
H475 C449 0.979 . S
H476 C449 0.980 . S
H477 C449 0.983 . S
H478 C422 0.947 . S
C479 C422 1.392 . S
C479 C423 1.419 . S
C479 H461 0.948 . S
C480 C481 1.369 . S
C480 C482 1.419 . S
C480 H484 0.930 . S
C481 C480 1.369 . S
C481 C490 1.429 . S
C482 C480 1.419 . S
C482 C483 1.363 . S
C482 H485 0.929 . S
C483 C482 1.363 . S
C483 C489 1.428 . S
H484 C480 0.930 . S
H485 C482 0.929 . S
S486 N487 1.613 . S
S486 N488 1.610 . S
N487 S486 1.613 . S
N487 C490 1.350 . S
N488 S486 1.610 . S
N488 C489 1.351 . S
C489 C483 1.428 . S
C489 N488 1.351 . S
C489 C490 1.434 . S
C490 C481 1.429 . S
C490 N487 1.350 . S
C490 C489 1.434 . S
C491 C492 1.369 . S
C491 C493 1.419 . S
C491 H495 0.930 . S
C492 C491 1.369 . S
C492 C501 1.429 . S
C493 C491 1.419 . S
C493 C494 1.363 . S
C493 H496 0.929 . S
C494 C493 1.363 . S
C494 C500 1.428 . S
H495 C491 0.930 . S
H496 C493 0.929 . S
S497 N498 1.613 . S
S497 N499 1.610 . S
N498 S497 1.613 . S
N498 C501 1.350 . S
N499 S497 1.610 . S
N499 C500 1.351 . S
C500 C494 1.428 . S
C500 N499 1.351 . S
C500 C501 1.434 . S
C501 C492 1.429 . S
C501 N498 1.350 . S
C501 C500 1.434 . S
C502 C503 1.369 . S
C502 C504 1.419 . S
C502 H506 0.930 . S
C503 C502 1.369 . S
C503 C512 1.429 . S
C504 C502 1.419 . S
C504 C505 1.363 . S
C504 H507 0.929 . S
C505 C504 1.363 . S
C505 C511 1.428 . S
H506 C502 0.930 . S
H507 C504 0.929 . S
S508 N509 1.613 . S
S508 N510 1.610 . S
N509 S508 1.613 . S
N509 C512 1.350 . S
N510 S508 1.610 . S
N510 C511 1.351 . S
C511 C505 1.428 . S
C511 N510 1.351 . S
C511 C512 1.434 . S
C512 C503 1.429 . S
C512 N509 1.350 . S
C512 C511 1.434 . S
C513 C514 1.369 . S
C513 C515 1.419 . S
C513 H517 0.930 . S
C514 C513 1.369 . S
C514 C523 1.429 . S
C515 C513 1.419 . S
C515 C516 1.363 . S
C515 H518 0.929 . S
C516 C515 1.363 . S
C516 C522 1.428 . S
H517 C513 0.930 . S
H518 C515 0.929 . S
S519 N520 1.613 . S
S519 N521 1.610 . S
N520 S519 1.613 . S
N520 C523 1.350 . S
N521 S519 1.610 . S
N521 C522 1.351 . S
C522 C516 1.428 . S
C522 N521 1.351 . S
C522 C523 1.434 . S
C523 C514 1.429 . S
C523 N520 1.350 . S
C523 C522 1.434 . S
C524 C525 1.369 . S
C524 C526 1.419 . S
C524 H528 0.930 . S
C525 C524 1.369 . S
C525 C534 1.429 . S
C526 C524 1.419 . S
C526 C527 1.363 . S
C526 H529 0.929 . S
C527 C526 1.363 . S
C527 C533 1.428 . S
H528 C524 0.930 . S
H529 C526 0.929 . S
S530 N531 1.613 . S
S530 N532 1.610 . S
N531 S530 1.613 . S
N531 C534 1.350 . S
N532 S530 1.610 . S
N532 C533 1.351 . S
C533 C527 1.428 . S
C533 N532 1.351 . S
C533 C534 1.434 . S
C534 C525 1.429 . S
C534 N531 1.350 . S
C534 C533 1.434 . S
C535 C536 1.369 . S
C535 C537 1.419 . S
C535 H539 0.930 . S
C536 C535 1.369 . S
C536 C545 1.429 . S
C537 C535 1.419 . S
C537 C538 1.363 . S
C537 H540 0.929 . S
C538 C537 1.363 . S
C538 C544 1.428 . S
H539 C535 0.930 . S
H540 C537 0.929 . S
S541 N542 1.613 . S
S541 N543 1.610 . S
N542 S541 1.613 . S
N542 C545 1.350 . S
N543 S541 1.610 . S
N543 C544 1.351 . S
C544 C538 1.428 . S
C544 N543 1.351 . S
C544 C545 1.434 . S
C545 C536 1.429 . S
C545 N542 1.350 . S
C545 C544 1.434 . S
C546 C547 1.369 . S
C546 C548 1.419 . S
C546 H550 0.930 . S
C547 C546 1.369 . S
C547 C556 1.429 . S
C548 C546 1.419 . S
C548 C549 1.363 . S
C548 H551 0.929 . S
C549 C548 1.363 . S
C549 C555 1.428 . S
H550 C546 0.930 . S
H551 C548 0.929 . S
S552 N553 1.613 . S
S552 N554 1.610 . S
N553 S552 1.613 . S
N553 C556 1.350 . S
N554 S552 1.610 . S
N554 C555 1.351 . S
C555 C549 1.428 . S
C555 N554 1.351 . S
C555 C556 1.434 . S
C556 C547 1.429 . S
C556 N553 1.350 . S
C556 C555 1.434 . S
C557 C558 1.369 . S
C557 C559 1.419 . S
C557 H561 0.930 . S
C558 C557 1.369 . S
C558 C567 1.429 . S
C559 C557 1.419 . S
C559 C560 1.363 . S
C559 H562 0.929 . S
C560 C559 1.363 . S
C560 C566 1.428 . S
H561 C557 0.930 . S
H562 C559 0.929 . S
S563 N564 1.613 . S
S563 N565 1.610 . S
N564 S563 1.613 . S
N564 C567 1.350 . S
N565 S563 1.610 . S
N565 C566 1.351 . S
C566 C560 1.428 . S
C566 N565 1.351 . S
C566 C567 1.434 . S
C567 C558 1.429 . S
C567 N564 1.350 . S
C567 C566 1.434 . S
C568 C569 1.369 . S
C568 C570 1.419 . S
C568 H572 0.930 . S
C569 C568 1.369 . S
C569 C578 1.429 . S
C570 C568 1.419 . S
C570 C571 1.363 . S
C570 H573 0.929 . S
C571 C570 1.363 . S
C571 C577 1.428 . S
H572 C568 0.930 . S
H573 C570 0.929 . S
S574 N575 1.613 . S
S574 N576 1.610 . S
N575 S574 1.613 . S
N575 C578 1.350 . S
N576 S574 1.610 . S
N576 C577 1.351 . S
C577 C571 1.428 . S
C577 N576 1.351 . S
C577 C578 1.434 . S
C578 C569 1.429 . S
C578 N575 1.350 . S
C578 C577 1.434 . S
C579 C580 1.369 . S
C579 C581 1.419 . S
C579 H583 0.930 . S
C580 C579 1.369 . S
C580 C589 1.429 . S
C581 C579 1.419 . S
C581 C582 1.363 . S
C581 H584 0.929 . S
C582 C581 1.363 . S
C582 C588 1.428 . S
H583 C579 0.930 . S
H584 C581 0.929 . S
S585 N586 1.613 . S
S585 N587 1.610 . S
N586 S585 1.613 . S
N586 C589 1.350 . S
N587 S585 1.610 . S
N587 C588 1.351 . S
C588 C582 1.428 . S
C588 N587 1.351 . S
C588 C589 1.434 . S
C589 C580 1.429 . S
C589 N586 1.350 . S
C589 C588 1.434 . S
C590 C591 1.369 . S
C590 C592 1.419 . S
C590 H594 0.930 . S
C591 C590 1.369 . S
C591 C600 1.429 . S
C592 C590 1.419 . S
C592 C593 1.363 . S
C592 H595 0.929 . S
C593 C592 1.363 . S
C593 C599 1.428 . S
H594 C590 0.930 . S
H595 C592 0.929 . S
S596 N597 1.613 . S
S596 N598 1.610 . S
N597 S596 1.613 . S
N597 C600 1.350 . S
N598 S596 1.610 . S
N598 C599 1.351 . S
C599 C593 1.428 . S
C599 N598 1.351 . S
C599 C600 1.434 . S
C600 C591 1.429 . S
C600 N597 1.350 . S
C600 C599 1.434 . S
C601 C602 1.369 . S
C601 C603 1.419 . S
C601 H605 0.930 . S
C602 C601 1.369 . S
C602 C611 1.429 . S
C603 C601 1.419 . S
C603 C604 1.363 . S
C603 H606 0.929 . S
C604 C603 1.363 . S
C604 C610 1.428 . S
H605 C601 0.930 . S
H606 C603 0.929 . S
S607 N608 1.613 . S
S607 N609 1.610 . S
N608 S607 1.613 . S
N608 C611 1.350 . S
N609 S607 1.610 . S
N609 C610 1.351 . S
C610 C604 1.428 . S
C610 N609 1.351 . S
C610 C611 1.434 . S
C611 C602 1.429 . S
C611 N608 1.350 . S
C611 C610 1.434 . S
C612 C613 1.369 1_655 S
C612 C614 1.419 . S
C612 H616 0.930 . S
C613 C612 1.369 1_455 S
C613 C622 1.429 . S
C614 C612 1.419 . S
C614 C615 1.363 1_655 S
C614 H617 0.929 . S
C615 C614 1.363 1_455 S
C615 C621 1.428 . S
H616 C612 0.930 . S
H617 C614 0.929 . S
S618 N619 1.613 . S
S618 N620 1.610 . S
N619 S618 1.613 . S
N619 C622 1.350 . S
N620 S618 1.610 . S
N620 C621 1.351 . S
C621 C615 1.428 . S
C621 N620 1.351 . S
C621 C622 1.434 . S
C622 C613 1.429 . S
C622 N619 1.350 . S
C622 C621 1.434 . S
C623 C624 1.369 . S
C623 C625 1.419 . S
C623 H627 0.930 . S
C624 C623 1.369 . S
C624 C633 1.429 . S
C625 C623 1.419 . S
C625 C626 1.363 . S
C625 H628 0.929 . S
C626 C625 1.363 . S
C626 C632 1.428 . S
H627 C623 0.930 . S
H628 C625 0.929 . S
S629 N630 1.613 . S
S629 N631 1.610 . S
N630 S629 1.613 . S
N630 C633 1.350 . S
N631 S629 1.610 . S
N631 C632 1.351 . S
C632 C626 1.428 . S
C632 N631 1.351 . S
C632 C633 1.434 . S
C633 C624 1.429 . S
C633 N630 1.350 . S
C633 C632 1.434 . S
C634 C635 1.369 . S
C634 C636 1.419 . S
C634 H638 0.930 . S
C635 C634 1.369 . S
C635 C644 1.429 . S
C636 C634 1.419 . S
C636 C637 1.363 . S
C636 H639 0.929 . S
C637 C636 1.363 . S
C637 C643 1.428 . S
H638 C634 0.930 . S
H639 C636 0.929 . S
S640 N641 1.613 . S
S640 N642 1.610 . S
N641 S640 1.613 . S
N641 C644 1.350 . S
N642 S640 1.610 . S
N642 C643 1.351 . S
C643 C637 1.428 . S
C643 N642 1.351 . S
C643 C644 1.434 . S
C644 C635 1.429 . S
C644 N641 1.350 . S
C644 C643 1.434 . S
C645 C646 1.369 1_565 S
C645 C647 1.419 . S
C645 H649 0.930 . S
C646 C645 1.369 1_545 S
C646 C655 1.429 . S
C647 C645 1.419 . S
C647 C648 1.363 1_565 S
C647 H650 0.929 . S
C648 C647 1.363 1_545 S
C648 C654 1.428 . S
H649 C645 0.930 . S
H650 C647 0.929 . S
S651 N652 1.613 . S
S651 N653 1.610 . S
N652 S651 1.613 . S
N652 C655 1.350 . S
N653 S651 1.610 . S
N653 C654 1.351 . S
C654 C648 1.428 . S
C654 N653 1.351 . S
C654 C655 1.434 . S
C655 C646 1.429 . S
C655 N652 1.350 . S
C655 C654 1.434 . S
C656 C657 1.369 . S
C656 C658 1.419 . S
C656 H660 0.930 . S
C657 C656 1.369 . S
C657 C666 1.429 . S
C658 C656 1.419 . S
C658 C659 1.363 . S
C658 H661 0.929 . S
C659 C658 1.363 . S
C659 C665 1.428 . S
H660 C656 0.930 . S
H661 C658 0.929 . S
S662 N663 1.613 . S
S662 N664 1.610 . S
N663 S662 1.613 . S
N663 C666 1.350 . S
N664 S662 1.610 . S
N664 C665 1.351 . S
C665 C659 1.428 . S
C665 N664 1.351 . S
C665 C666 1.434 . S
C666 C657 1.429 . S
C666 N663 1.350 . S
C666 C665 1.434 . S
C667 C668 1.369 . S
C667 C669 1.419 . S
C667 H671 0.930 . S
C668 C667 1.369 . S
C668 C677 1.429 . S
C669 C667 1.419 . S
C669 C670 1.363 . S
C669 H672 0.929 . S
C670 C669 1.363 . S
C670 C676 1.428 . S
H671 C667 0.930 . S
H672 C669 0.929 . S
S673 N674 1.613 . S
S673 N675 1.610 . S
N674 S673 1.613 . S
N674 C677 1.350 . S
N675 S673 1.610 . S
N675 C676 1.351 . S
C676 C670 1.428 . S
C676 N675 1.351 . S
C676 C677 1.434 . S
C677 C668 1.429 . S
C677 N674 1.350 . S
C677 C676 1.434 . S
C481 C10 3.112 . S
C483 C451 3.106 . S
C492 C59 3.170 . S
C494 C301 2.971 . S
C503 C90 3.113 . S
C505 C361 2.915 . S
C514 C19 3.170 . S
C516 C421 2.973 . S
C527 C331 3.106 . S
C525 C50 3.113 . S
C538 C391 3.165 . S
C536 C99 3.170 . S
C547 C46 0.669 . S
C549 C181 0.646 . S
C558 C95 0.606 . S
C560 C271 0.580 . S
C569 C6 0.656 . S
C571 C151 0.620 . S
C582 C211 0.584 . S
C580 C55 0.613 . S
C593 C241 0.662 . S
C591 C86 0.657 . S
C602 C15 0.609 . S
C604 C121 0.520 . S
C615 C260 1.007 . S
C613 C9 1.020 . S
C624 C49 1.018 . S
C626 C140 1.027 . S
C635 C89 1.018 . S
C637 C200 0.999 . S
C648 C380 1.788 . S
C646 C58 1.725 . S
C659 C440 1.773 1_556 S
C657 C98 1.725 . S
C668 C18 1.722 . S
C670 C320 1.786 . S
