# Generated by pormake.
# Topology anh, (6,3)-cn, num edge types: 1
# Building blocks:
#     Node 0, Type 0, BuildingBlock: VOLQOD_clean_sbu_1, # of connection points: 6
#     Node 1, Type 0, BuildingBlock: VOLQOD_clean_sbu_1, # of connection points: 6
#     Node 2, Type 0, BuildingBlock: VOLQOD_clean_sbu_1, # of connection points: 6
#     Node 3, Type 1, BuildingBlock: ESEHIV_clean_linker_0, # of connection points: 3
#     Node 4, Type 1, BuildingBlock: ESEHIV_clean_linker_0, # of connection points: 3
#     Node 5, Type 1, BuildingBlock: ESEHIV_clean_linker_0, # of connection points: 3
#     Node 6, Type 1, BuildingBlock: ESEHIV_clean_linker_0, # of connection points: 3
#     Node 7, Type 1, BuildingBlock: ESEHIV_clean_linker_0, # of connection points: 3
#     Node 8, Type 1, BuildingBlock: ESEHIV_clean_linker_0, # of connection points: 3
#     Edge 9, Type (0, 1), BuildingBlock: KIFKEQ_clean_linker_1, # of connection points: 2
#     Edge 10, Type (0, 1), BuildingBlock: KIFKEQ_clean_linker_1, # of connection points: 2
#     Edge 11, Type (0, 1), BuildingBlock: KIFKEQ_clean_linker_1, # of connection points: 2
#     Edge 12, Type (0, 1), BuildingBlock: KIFKEQ_clean_linker_1, # of connection points: 2
#     Edge 13, Type (0, 1), BuildingBlock: KIFKEQ_clean_linker_1, # of connection points: 2
#     Edge 14, Type (0, 1), BuildingBlock: KIFKEQ_clean_linker_1, # of connection points: 2
#     Edge 15, Type (0, 1), BuildingBlock: KIFKEQ_clean_linker_1, # of connection points: 2
#     Edge 16, Type (0, 1), BuildingBlock: KIFKEQ_clean_linker_1, # of connection points: 2
#     Edge 17, Type (0, 1), BuildingBlock: KIFKEQ_clean_linker_1, # of connection points: 2
#     Edge 18, Type (0, 1), BuildingBlock: KIFKEQ_clean_linker_1, # of connection points: 2
#     Edge 19, Type (0, 1), BuildingBlock: KIFKEQ_clean_linker_1, # of connection points: 2
#     Edge 20, Type (0, 1), BuildingBlock: KIFKEQ_clean_linker_1, # of connection points: 2
#     Edge 21, Type (0, 1), BuildingBlock: KIFKEQ_clean_linker_1, # of connection points: 2
#     Edge 22, Type (0, 1), BuildingBlock: KIFKEQ_clean_linker_1, # of connection points: 2
#     Edge 23, Type (0, 1), BuildingBlock: KIFKEQ_clean_linker_1, # of connection points: 2
#     Edge 24, Type (0, 1), BuildingBlock: KIFKEQ_clean_linker_1, # of connection points: 2
#     Edge 25, Type (0, 1), BuildingBlock: KIFKEQ_clean_linker_1, # of connection points: 2
#     Edge 26, Type (0, 1), BuildingBlock: KIFKEQ_clean_linker_1, # of connection points: 2
# Relax obj value: 0.167
# Max RMSD: 0.230
# Mean RMSD: 0.114
data_MOF--net-anh--node1-VOLQOD_clean_sbu_1--node2-ESEHIV_clean_linker_0--edge1-KIFKEQ_clean_linker_1
_symmetry_space_group_name_H-M    P1
_symmetry_Int_Tables_number       1
_symmetry_cell_setting            triclinic
loop_
_symmetry_equiv_pos_as_xyz
'x, y, z'
_cell_length_a     27.876685
_cell_length_b     27.596379
_cell_length_c     59.276477
_cell_angle_alpha  90.062225
_cell_angle_beta   89.812539
_cell_angle_gamma 120.24486
loop_
_atom_site_label
_atom_site_type_symbol
_atom_site_fract_x
_atom_site_fract_y
_atom_site_fract_z
_atom_type_partial_charge
O0 O 0.97809 0.54052 0.21083 0.0
Zn1 Zn -0.01416 0.56291 0.17821 0.0
O2 O -0.00345 0.51123 0.15949 0.0
Zn3 Zn 0.9342 0.46909 0.13973 0.0
Zn4 Zn 0.00661 0.46066 0.17904 0.0
Zn5 Zn 0.06002 0.55223 0.14013 0.0
O6 O 0.95643 0.47352 0.10712 0.0
O7 O 0.0386 0.55153 0.1078 0.0
O8 O 0.91877 0.56713 0.16834 0.0
O9 O 0.88648 0.5036 0.14081 0.0
O10 O 0.88824 0.38902 0.14994 0.0
O11 O 0.93798 0.38428 0.17816 0.0
O12 O 0.07227 0.45386 0.16918 0.0
O13 O 0.05418 0.63965 0.17684 0.0
O14 O 0.10521 0.51466 0.14067 0.0
O15 O 0.10709 0.63154 0.15072 0.0
C16 C -0.0036 0.51336 0.22166 0.0
C17 C -0.00237 0.51346 0.09691 0.0
C18 C 0.89481 0.36179 0.1658 0.0
C19 C 0.88417 0.54088 0.15263 0.0
C20 C 0.10635 0.47748 0.15297 0.0
C21 C 0.09906 0.6604 0.16543 0.0
O22 O 0.01478 0.4853 0.21146 0.0
O23 O 0.45733 0.02066 0.44378 0.0
Zn24 Zn 0.43175 0.01272 0.47605 0.0
O25 O 0.48091 0.00186 0.49582 0.0
Zn26 Zn 0.52214 0.06541 0.51531 0.0
Zn27 Zn 0.53152 0.98932 0.47743 0.0
Zn28 Zn 0.43785 0.93983 0.51571 0.0
O29 O 0.51908 0.04378 0.54796 0.0
O30 O 0.43938 0.96314 0.5479 0.0
O31 O 0.42611 0.07985 0.48574 0.0
O32 O 0.48637 0.11207 0.51417 0.0
O33 O 0.60112 0.11191 0.50492 0.0
O34 O 0.60778 0.05795 0.47872 0.0
O35 O 0.53543 0.92199 0.48844 0.0
O36 O 0.35537 0.94396 0.47686 0.0
O37 O 0.47272 0.89253 0.51615 0.0
O38 O 0.35937 0.89317 0.50505 0.0
C39 C 0.48433 0.00104 0.43368 0.0
C40 C 0.47893 0.00356 0.55851 0.0
C41 C 0.62917 0.10324 0.49012 0.0
C42 C 0.45007 0.11411 0.50189 0.0
C43 C 0.50961 0.88902 0.50478 0.0
C44 C 0.33273 0.90019 0.48921 0.0
O45 O 0.50987 0.98114 0.44461 0.0
O46 O 0.43936 0.44252 0.78078 0.0
Zn47 Zn 0.42653 0.4233 0.81379 0.0
O48 O 0.49086 0.47627 0.8313 0.0
Zn49 Zn 0.47315 0.52096 0.85085 0.0
Zn50 Zn 0.55005 0.52523 0.81071 0.0
Zn51 Zn 0.51447 0.43641 0.85079 0.0
O52 O 0.49276 0.51896 0.88329 0.0
O53 O 0.49788 0.44138 0.88348 0.0
O54 O 0.35657 0.42223 0.82406 0.0
O55 O 0.3915 0.48782 0.85078 0.0
O56 O 0.50653 0.6002 0.8397 0.0
O57 O 0.55824 0.60208 0.81079 0.0
O58 O 0.62303 0.5324 0.81978 0.0
O59 O 0.4167 0.34586 0.8164 0.0
O60 O 0.59685 0.47268 0.84862 0.0
O61 O 0.47986 0.35568 0.84161 0.0
C62 C 0.48386 0.46912 0.76924 0.0
C63 C 0.49548 0.48041 0.89395 0.0
C64 C 0.5388 0.62591 0.8232 0.0
C65 C 0.35056 0.45051 0.83967 0.0
C66 C 0.6344 0.50916 0.83581 0.0
C67 C 0.44125 0.3256 0.82779 0.0
O68 O 0.53098 0.49815 0.77869 0.0
H69 H 0.40886 0.94777 0.2607 0.0
H70 H 0.58356 0.06898 0.2612 0.0
H71 H 0.4972 0.01071 0.19809 0.0
C72 C 0.44717 0.97466 0.25168 0.0
C73 C 0.4473 0.9754 0.22801 0.0
C74 C 0.49619 0.00816 0.26376 0.0
C75 C 0.5456 0.04274 0.25195 0.0
C76 C 0.54622 0.04392 0.22827 0.0
C77 C 0.49694 0.01007 0.21639 0.0
H78 H 0.49022 0.57175 0.6005 0.0
H79 H 0.43912 0.39745 0.59428 0.0
H80 H 0.45617 0.49466 0.53489 0.0
C81 C 0.4773 0.53501 0.59002 0.0
C82 C 0.47492 0.53931 0.5665 0.0
C83 C 0.46436 0.48397 0.6001 0.0
C84 C 0.44876 0.43688 0.58649 0.0
C85 C 0.4456 0.44035 0.56293 0.0
C86 C 0.45922 0.49186 0.55302 0.0
H87 H 0.95025 0.55498 0.92258 0.0
H88 H 0.07542 0.50864 0.92651 0.0
H89 H 0.02527 0.53732 0.86172 0.0
C90 C 0.98035 0.54718 0.91422 0.0
C91 C -0.01589 0.54864 0.89051 0.0
C92 C 0.01297 0.53255 0.92725 0.0
C93 C 0.05014 0.52005 0.91647 0.0
C94 C 0.05483 0.52179 0.89288 0.0
C95 C 0.02153 0.53579 0.87994 0.0
H96 H 0.92209 0.42 0.39227 0.0
H97 H 0.04404 0.59494 0.39582 0.0
H98 H 0.97206 0.50228 0.4569 0.0
C99 C 0.94627 0.45739 0.40232 0.0
C100 C 0.94167 0.45463 0.42598 0.0
C101 C -0.01732 0.50779 0.39138 0.0
C102 C 0.0156 0.55588 0.40423 0.0
C103 C 0.01224 0.55386 0.42785 0.0
C104 C 0.97537 0.50322 0.43867 0.0
H105 H 0.44953 0.03717 0.73467 0.0
H106 H 0.51051 0.92296 0.72718 0.0
H107 H 0.47729 0.96394 0.79349 0.0
C108 C 0.46162 0.00904 0.74212 0.0
C109 C 0.46181 0.0041 0.76566 0.0
C110 C 0.47938 0.98007 0.72818 0.0
C111 C 0.49663 0.94517 0.73801 0.0
C112 C 0.49544 0.93821 0.76156 0.0
C113 C 0.47865 0.96865 0.77532 0.0
H114 H 0.39721 0.45039 0.06706 0.0
H115 H 0.57294 0.51438 0.06699 0.0
H116 H 0.48636 0.48937 0.12986 0.0
C117 C 0.43553 0.46471 0.07626 0.0
C118 C 0.43552 0.46745 0.09997 0.0
C119 C 0.48486 0.48129 0.06424 0.0
C120 C 0.53463 0.50123 0.07617 0.0
C121 C 0.53554 0.50464 0.09981 0.0
C122 C 0.48577 0.48706 0.11161 0.0
H123 H 0.1637 0.44928 0.18242 0.0
H124 H 0.14208 0.46925 0.11158 0.0
H125 H 0.24027 0.43264 0.17302 0.0
H126 H 0.21685 0.45119 0.10226 0.0
H127 H 0.32961 0.38226 0.0912 0.0
H128 H 0.24347 0.37098 0.10694 0.0
H129 H 0.33768 0.50784 0.15287 0.0
H130 H 0.42379 0.52128 0.13658 0.0
C131 C 0.17458 0.44888 0.16489 0.0
C132 C 0.1477 0.46107 0.1477 0.0
C133 C 0.21811 0.4394 0.15955 0.0
C134 C 0.23386 0.44033 0.13696 0.0
C135 C 0.20489 0.44956 0.11979 0.0
C136 C 0.16258 0.46041 0.12512 0.0
C137 C 0.33203 0.40972 0.10477 0.0
C138 C 0.38366 0.45343 0.1123 0.0
C139 C 0.28277 0.40276 0.11391 0.0
C140 C 0.28431 0.43862 0.13102 0.0
C141 C 0.33561 0.47925 0.13985 0.0
C142 C 0.38491 0.48687 0.13048 0.0
H143 H 0.69441 0.20051 0.5134 0.0
H144 H 0.68983 0.11137 0.45263 0.0
H145 H 0.77735 0.28412 0.49931 0.0
H146 H 0.77208 0.19512 0.43864 0.0
H147 H 0.83786 0.37791 0.4112 0.0
H148 H 0.77148 0.28923 0.42843 0.0
H149 H 0.88317 0.3223 0.48408 0.0
H150 H 0.95188 0.41051 0.46622 0.0
C151 C 0.71173 0.19833 0.49731 0.0
C152 C 0.68507 0.14956 0.48399 0.0
C153 C 0.75927 0.24607 0.48933 0.0
C154 C 0.78039 0.2459 0.46784 0.0
C155 C 0.75611 0.19616 0.45522 0.0
C156 C 0.70915 0.14825 0.46329 0.0
C157 C 0.84918 0.36604 0.42683 0.0
C158 C 0.90072 0.40125 0.43713 0.0
C159 C 0.81094 0.31527 0.43672 0.0
C160 C 0.82272 0.29889 0.45738 0.0
C161 C 0.87346 0.33419 0.46807 0.0
C162 C 0.91243 0.38477 0.45792 0.0
H163 H 0.58468 0.68306 0.78406 0.0
H164 H 0.51228 0.69438 0.84707 0.0
H165 H 0.58284 0.76509 0.77006 0.0
H166 H 0.51085 0.77677 0.83294 0.0
H167 H 0.55146 0.94797 0.80112 0.0
H168 H 0.57232 0.87934 0.81761 0.0
H169 H 0.49472 0.76955 0.76081 0.0
H170 H 0.4716 0.83612 0.74483 0.0
C171 C 0.56957 0.70371 0.79514 0.0
C172 C 0.54788 0.68164 0.81658 0.0
C173 C 0.56833 0.75054 0.78706 0.0
C174 C 0.54608 0.77668 0.80034 0.0
C175 C 0.52832 0.75738 0.82239 0.0
C176 C 0.52895 0.71009 0.83042 0.0
C177 C 0.53845 0.90901 0.79223 0.0
C178 C 0.51006 0.89785 0.77154 0.0
C179 C 0.55077 0.87002 0.80161 0.0
C180 C 0.53574 0.81963 0.79031 0.0
C181 C 0.50787 0.80867 0.76962 0.0
C182 C 0.4948 0.84703 0.76045 0.0
H183 H 0.82063 0.56083 0.18226 0.0
H184 H 0.8482 0.54767 0.11136 0.0
H185 H 0.7376 0.5665 0.17293 0.0
H186 H 0.76687 0.55448 0.10209 0.0
H187 H 0.5549 0.4615 0.13795 0.0
H188 H 0.64498 0.48721 0.15425 0.0
H189 H 0.72616 0.62014 0.10524 0.0
H190 H 0.63612 0.5954 0.0892 0.0
C191 C 0.8097 0.56067 0.16473 0.0
C192 C 0.84014 0.5534 0.14749 0.0
C193 C 0.76239 0.56374 0.15943 0.0
C194 C 0.74621 0.56112 0.13682 0.0
C195 C 0.77886 0.55733 0.11963 0.0
C196 C 0.82508 0.55299 0.12492 0.0
C197 C 0.59179 0.49732 0.13112 0.0
C198 C 0.58866 0.52569 0.11201 0.0
C199 C 0.64327 0.51215 0.1405 0.0
C200 C 0.69227 0.55532 0.13084 0.0
C201 C 0.68884 0.58638 0.11284 0.0
C202 C 0.63746 0.57186 0.10356 0.0
H203 H 0.26358 0.80971 0.51531 0.0
H204 H 0.27485 0.88593 0.45039 0.0
H205 H 0.1767 0.72747 0.50396 0.0
H206 H 0.18972 0.80315 0.4387 0.0
H207 H 0.02465 0.65769 0.42324 0.0
H208 H 0.09309 0.74426 0.44167 0.0
H209 H 0.15221 0.65088 0.47959 0.0
H210 H 0.08208 0.56441 0.46182 0.0
C211 C 0.24725 0.8091 0.49869 0.0
C212 C 0.27637 0.85408 0.48367 0.0
C213 C 0.19763 0.76182 0.49213 0.0
C214 C 0.17643 0.7582 0.4703 0.0
C215 C 0.20421 0.80454 0.45574 0.0
C216 C 0.25338 0.85206 0.4624 0.0
C217 C 0.05182 0.65588 0.43581 0.0
C218 C 0.04862 0.60474 0.44104 0.0
C219 C 0.09119 0.70537 0.44629 0.0
C220 C 0.12879 0.70483 0.46192 0.0
C221 C 0.12359 0.653 0.46788 0.0
C222 C 0.08363 0.6034 0.45764 0.0
H223 H 0.46704 0.2599 0.85368 0.0
H224 H 0.38912 0.26132 0.791 0.0
H225 H 0.4602 0.17133 0.84299 0.0
H226 H 0.38474 0.17472 0.77981 0.0
H227 H 0.3678 0.01099 0.76393 0.0
H228 H 0.35014 0.07851 0.78339 0.0
H229 H 0.50779 0.14518 0.81766 0.0
H230 H 0.52351 0.07576 0.79901 0.0
C231 C 0.44795 0.24099 0.83772 0.0
C232 C 0.42917 0.26791 0.82308 0.0
C233 C 0.44435 0.19039 0.83151 0.0
C234 C 0.42271 0.16607 0.81037 0.0
C235 C 0.40104 0.19154 0.79634 0.0
C236 C 0.40385 0.2416 0.8027 0.0
C237 C 0.39791 0.03944 0.77603 0.0
C238 C 0.44712 0.03865 0.77993 0.0
C239 C 0.38809 0.07838 0.78706 0.0
C240 C 0.42789 0.11808 0.80187 0.0
C241 C 0.47576 0.11498 0.80664 0.0
C242 C 0.48505 0.07538 0.79588 0.0
H243 H 0.51272 0.80872 0.47884 0.0
H244 H 0.53477 0.87322 0.54667 0.0
H245 H 0.5124 0.72501 0.49311 0.0
H246 H 0.53689 0.7916 0.56083 0.0
H247 H 0.43768 0.60814 0.58036 0.0
H248 H 0.45814 0.69731 0.56423 0.0
H249 H 0.56029 0.68155 0.51305 0.0
H250 H 0.53922 0.59118 0.52931 0.0
C251 C 0.51949 0.80574 0.49664 0.0
C252 C 0.52303 0.84645 0.51179 0.0
C253 C 0.51933 0.75807 0.50482 0.0
C254 C 0.52326 0.7513 0.52815 0.0
C255 C 0.5322 0.79497 0.54286 0.0
C256 C 0.53141 0.84178 0.53478 0.0
C257 C 0.465 0.62395 0.56582 0.0
C258 C 0.48731 0.59313 0.55621 0.0
C259 C 0.47691 0.67511 0.55661 0.0
C260 C 0.51168 0.69688 0.53761 0.0
C261 C 0.53342 0.66572 0.52771 0.0
C262 C 0.52132 0.61415 0.53696 0.0
H263 H 0.67813 0.51455 0.87685 0.0
H264 H 0.72131 0.54353 0.80612 0.0
H265 H 0.77284 0.53938 0.88589 0.0
H266 H 0.81686 0.56721 0.81528 0.0
H267 H 0.92801 0.49476 0.8522 0.0
H268 H 0.85097 0.49924 0.83495 0.0
H269 H 0.8747 0.62941 0.88167 0.0
H270 H 0.95302 0.62656 0.89854 0.0
C271 C 0.70805 0.52643 0.86324 0.0
C272 C 0.69253 0.52676 0.84078 0.0
C273 C 0.7623 0.54118 0.86844 0.0
C274 C 0.80191 0.5556 0.85126 0.0
C275 C 0.78684 0.55656 0.82876 0.0
C276 C 0.7325 0.54303 0.82356 0.0
C277 C 0.91829 0.5259 0.85824 0.0
C278 C 0.94579 0.5595 0.87706 0.0
C279 C 0.87425 0.52844 0.84832 0.0
C280 C 0.85691 0.56426 0.8572 0.0
C281 C 0.88731 0.6012 0.8747 0.0
C282 C 0.93166 0.59914 0.88444 0.0
H283 H 0.19062 0.72838 0.13997 0.0
H284 H 0.11257 0.71915 0.20416 0.0
H285 H 0.27348 0.81392 0.15208 0.0
H286 H 0.19595 0.80268 0.2167 0.0
H287 H 0.34575 0.96575 0.23344 0.0
H288 H 0.25901 0.89925 0.21491 0.0
H289 H 0.34658 0.83368 0.17685 0.0
H290 H 0.43315 0.90186 0.19467 0.0
C291 C 0.19099 0.74496 0.15658 0.0
C292 C 0.14534 0.71675 0.1712 0.0
C293 C 0.23863 0.79375 0.1636 0.0
C294 C 0.24195 0.81481 0.18552 0.0
C295 C 0.19492 0.78824 0.19962 0.0
C296 C 0.14701 0.74001 0.19247 0.0
C297 C 0.34621 0.93742 0.22089 0.0
C298 C 0.39579 0.9385 0.21552 0.0
C299 C 0.29662 0.89922 0.21033 0.0
C300 C 0.29552 0.86067 0.19447 0.0
C301 C 0.34577 0.86325 0.18864 0.0
C302 C 0.39542 0.90204 0.19894 0.0
H303 H 0.43919 0.14528 0.54364 0.0
H304 H 0.42542 0.17645 0.47324 0.0
H305 H 0.42206 0.22027 0.55428 0.0
H306 H 0.40927 0.25337 0.48401 0.0
H307 H 0.49433 0.43412 0.52382 0.0
H308 H 0.47927 0.34893 0.50488 0.0
H309 H 0.34664 0.24855 0.55156 0.0
H310 H 0.36097 0.33361 0.57033 0.0
C311 C 0.43186 0.16797 0.53046 0.0
C312 C 0.43404 0.1557 0.50766 0.0
C313 C 0.4215 0.21045 0.53655 0.0
C314 C 0.41404 0.2422 0.51994 0.0
C315 C 0.41466 0.22909 0.49706 0.0
C316 C 0.42382 0.18536 0.49094 0.0
C317 C 0.46074 0.39397 0.52955 0.0
C318 C 0.42966 0.39026 0.54886 0.0
C319 C 0.45199 0.34531 0.51864 0.0
C320 C 0.41221 0.29245 0.52697 0.0
C321 C 0.37789 0.28898 0.54501 0.0
C322 C 0.38645 0.33751 0.55583 0.0
H323 H 0.27239 0.44747 0.81105 0.0
H324 H 0.30715 0.43691 0.88118 0.0
H325 H 0.19421 0.4599 0.82221 0.0
H326 H 0.22877 0.44738 0.8923 0.0
H327 H 0.16275 0.56392 0.90384 0.0
H328 H 0.22659 0.53572 0.88925 0.0
H329 H 0.10095 0.42129 0.84296 0.0
H330 H 0.03653 0.45011 0.85766 0.0
C331 C 0.26185 0.44563 0.82876 0.0
C332 C 0.29566 0.44191 0.84534 0.0
C333 C 0.21742 0.45288 0.83514 0.0
C334 C 0.20658 0.45608 0.85812 0.0
C335 C 0.23724 0.44663 0.87449 0.0
C336 C 0.2817 0.44016 0.86816 0.0
C337 C 0.14877 0.53281 0.89054 0.0
C338 C 0.09464 0.50856 0.88208 0.0
C339 C 0.18513 0.51645 0.88225 0.0
C340 C 0.16812 0.47526 0.86538 0.0
C341 C 0.11484 0.45285 0.85607 0.0
C342 C 0.07823 0.46941 0.8644 0.0
H343 H 0.88055 0.30379 0.20483 0.0
H344 H 0.8038 0.29275 0.14034 0.0
H345 H 0.79731 0.22008 0.21744 0.0
H346 H 0.72101 0.20712 0.15261 0.0
H347 H 0.56052 0.1182 0.19521 0.0
H348 H 0.64718 0.18724 0.1775 0.0
H349 H 0.73532 0.12289 0.21556 0.0
H350 H 0.64845 0.05529 0.23391 0.0
C351 C 0.84644 0.28258 0.19309 0.0
C352 C 0.8485 0.30539 0.17169 0.0
C353 C 0.79862 0.23422 0.2003 0.0
C354 C 0.75198 0.20707 0.18616 0.0
C355 C 0.75561 0.22772 0.16415 0.0
C356 C 0.80322 0.27658 0.15704 0.0
C357 C 0.59839 0.11846 0.19952 0.0
C358 C 0.59807 0.08191 0.21602 0.0
C359 C 0.64809 0.15776 0.18927 0.0
C360 C 0.69848 0.16088 0.19512 0.0
C361 C 0.69754 0.12245 0.21096 0.0
C362 C 0.64788 0.08365 0.22143 0.0
H363 H 0.06765 0.60115 0.06989 0.0
H364 H 0.92797 0.43174 0.06756 0.0
H365 H 0.06846 0.60534 0.0288 0.0
H366 H 0.92901 0.4362 0.0264 0.0
H367 H 0.00071 0.44739 0.95434 0.0
H368 H -0.00504 0.44266 0.99549 0.0
H369 H 0.00661 0.60472 -0.00269 0.0
H370 H 0.0128 0.60963 0.95608 0.0
C371 C 0.03711 0.56482 0.06063 0.0
C372 C -0.00217 0.51603 0.072 0.0
C373 C 0.03737 0.56743 0.03712 0.0
C374 C -0.00124 0.52113 0.02447 0.0
C375 C 0.95947 0.47235 0.03578 0.0
C376 C 0.95878 0.46992 0.05932 0.0
C377 C 0.0021 0.48198 0.96357 0.0
C378 C 0.00747 0.529 0.95211 0.0
C379 C -0.00166 0.47906 0.98705 0.0
C380 C 0.00041 0.52335 -0.00047 0.0
C381 C 0.00533 0.57021 0.98807 0.0
C382 C 0.00847 0.57285 0.96454 0.0
H383 H 0.45667 0.06053 0.40503 0.0
H384 H 0.51681 0.94351 0.40591 0.0
H385 H 0.46062 0.06235 0.36389 0.0
H386 H 0.52042 0.94532 0.36471 0.0
H387 H 0.45211 0.91648 0.29124 0.0
H388 H 0.4498 0.91471 0.33252 0.0
H389 H 0.53665 0.09578 0.33369 0.0
H390 H 0.53889 0.09753 0.29241 0.0
C391 C 0.47061 0.03512 0.39647 0.0
C392 C 0.48642 0.00185 0.40874 0.0
C393 C 0.47317 0.03646 0.37293 0.0
C394 C 0.49087 0.00403 0.36118 0.0
C395 C 0.50628 0.97044 0.37339 0.0
C396 C 0.50445 0.96965 0.39695 0.0
C397 C 0.47059 0.95582 0.30037 0.0
C398 C 0.49563 0.00714 0.28871 0.0
C399 C 0.46962 0.95482 0.32392 0.0
C400 C 0.49301 0.00511 0.33623 0.0
C401 C 0.518 0.05643 0.32457 0.0
C402 C 0.51963 0.05744 0.30102 0.0
H403 H 0.56885 0.50184 0.7389 0.0
H404 H 0.39135 0.43355 0.74328 0.0
H405 H 0.5635 0.5032 0.6978 0.0
H406 H 0.38636 0.43525 0.70223 0.0
H407 H 0.41857 0.51995 0.6318 0.0
H408 H 0.4229 0.51382 0.67282 0.0
H409 H 0.51997 0.43259 0.66523 0.0
H410 H 0.51569 0.43881 0.62413 0.0
C411 C 0.52872 0.48695 0.73111 0.0
C412 C 0.48054 0.46773 0.74435 0.0
C413 C 0.52568 0.48748 0.70761 0.0
C414 C 0.47456 0.46951 0.69692 0.0
C415 C 0.42634 0.44979 0.7101 0.0
C416 C 0.42923 0.44856 0.73358 0.0
C417 C 0.44091 0.50094 0.63894 0.0
C418 C 0.46683 0.47987 0.62489 0.0
C419 C 0.44303 0.49704 0.66234 0.0
C420 C 0.47167 0.47264 0.67211 0.0
C421 C 0.49785 0.45182 0.65808 0.0
C422 C 0.49511 0.45505 0.63464 0.0
H423 H 0.56215 0.07405 0.58705 0.0
H424 H 0.39518 0.93144 0.58651 0.0
H425 H 0.56241 0.07076 0.62819 0.0
H426 H 0.39581 0.92813 0.62757 0.0
H427 H 0.39769 0.97622 0.70169 0.0
H428 H 0.39784 0.98501 0.66067 0.0
H429 H 0.56194 0.0056 0.65765 0.0
H430 H 0.56218 -0.00218 0.6987 0.0
C431 C 0.52546 0.04215 0.59567 0.0
C432 C 0.47868 0.00293 0.58348 0.0
C433 C 0.52577 0.04011 0.61922 0.0
C434 C 0.47917 -0.00085 0.63106 0.0
C435 C 0.43212 0.96051 0.6189 0.0
C436 C 0.43193 0.96225 0.59537 0.0
C437 C 0.43395 0.98312 0.69225 0.0
C438 C 0.47987 0.98622 0.70334 0.0
C439 C 0.43386 0.9877 0.6688 0.0
C440 C 0.47987 -0.00409 0.65599 0.0
C441 C 0.5261 -0.00024 0.66711 0.0
C442 C 0.52602 -0.00525 0.69055 0.0
H443 H 0.4916 0.40057 0.92246 0.0
H444 H 0.49696 0.55991 0.922 0.0
H445 H 0.48726 0.39916 0.96351 0.0
H446 H 0.49406 0.55909 0.96305 0.0
H447 H 0.42953 0.51223 0.03487 0.0
H448 H 0.43091 0.51018 0.99378 0.0
H449 H 0.5439 0.4461 -0.00403 0.0
H450 H 0.54039 0.44562 0.03705 0.0
C451 C 0.49226 0.43549 0.9311 0.0
C452 C 0.49457 0.48032 0.91892 0.0
C453 C 0.49001 0.43479 0.95465 0.0
C454 C 0.4902 0.47896 0.96656 0.0
C455 C 0.49292 0.52397 0.95438 0.0
C456 C 0.49498 0.52459 0.93084 0.0
C457 C 0.45401 0.49692 0.02657 0.0
C458 C 0.48484 0.47908 0.03922 0.0
C459 C 0.45539 0.49645 0.00303 0.0
C460 C 0.48775 0.47826 0.99159 0.0
C461 C 0.51815 0.45989 0.00424 0.0
C462 C 0.51665 0.46022 0.02779 0.0
H463 H 0.05111 0.48071 0.25059 0.0
H464 H 0.94046 0.54778 0.2491 0.0
H465 H 0.04899 0.48102 0.2918 0.0
H466 H 0.93835 0.54775 0.29025 0.0
H467 H 0.89669 0.46912 0.36186 0.0
H468 H 0.90121 0.47169 0.32065 0.0
H469 H 0.0801 0.55419 0.32361 0.0
H470 H 0.07554 0.55151 0.36492 0.0
C471 C 0.02638 0.49551 0.25903 0.0
C472 C -0.00414 0.51412 0.24658 0.0
C473 C 0.02547 0.49597 0.28259 0.0
C474 C -0.00654 0.51433 0.29412 0.0
C475 C 0.96302 0.53299 0.28172 0.0
C476 C 0.96447 0.53322 0.25818 0.0
C477 C 0.93691 0.48766 0.35367 0.0
C478 C -0.01423 0.51007 0.36647 0.0
C479 C 0.93951 0.48949 0.33016 0.0
C480 C -0.009 0.51317 0.31903 0.0
C481 C 0.0399 0.53542 0.33183 0.0
C482 C 0.03733 0.53425 0.35538 0.0
loop_
_geom_bond_atom_site_label_1
_geom_bond_atom_site_label_2
_geom_bond_distance
_geom_bond_site_symmetry_2
_ccdc_geom_bond_type
O0 Zn1 1.953 . S
O0 C16 1.225 1_655 S
Zn1 O0 1.953 . S
Zn1 O2 1.949 1_655 S
Zn1 O8 1.919 . S
Zn1 O13 1.924 1_655 S
O2 Zn1 1.949 1_455 S
O2 Zn3 1.923 1_455 S
O2 Zn4 1.950 . S
O2 Zn5 1.945 . S
Zn3 O2 1.923 1_655 S
Zn3 O6 1.933 . S
Zn3 O9 1.941 . S
Zn3 O10 1.965 . S
Zn4 O2 1.950 . S
Zn4 O11 1.938 1_455 S
Zn4 O12 1.906 . S
Zn4 O22 1.953 . S
Zn5 O2 1.945 . S
Zn5 O7 1.932 . S
Zn5 O14 1.977 . S
Zn5 O15 1.910 . S
O6 Zn3 1.933 . S
O6 C17 1.226 1_655 S
O7 Zn5 1.932 . S
O7 C17 1.307 . S
O8 Zn1 1.919 . S
O8 C19 1.253 . S
O9 Zn3 1.941 . S
O9 C19 1.283 . S
O10 Zn3 1.965 . S
O10 C18 1.303 . S
O11 Zn4 1.938 1_655 S
O11 C18 1.247 . S
O12 Zn4 1.906 . S
O12 C20 1.304 . S
O13 Zn1 1.924 1_455 S
O13 C21 1.311 . S
O14 Zn5 1.977 . S
O14 C20 1.272 . S
O15 Zn5 1.910 . S
O15 C21 1.231 . S
C16 O0 1.225 1_455 S
C16 O22 1.298 . S
C17 O6 1.226 1_455 S
C17 O7 1.307 . S
C18 O10 1.303 . S
C18 O11 1.247 . S
C19 O8 1.253 . S
C19 O9 1.283 . S
C20 O12 1.304 . S
C20 O14 1.272 . S
C21 O13 1.311 . S
C21 O15 1.231 . S
O22 Zn4 1.953 . S
O22 C16 1.298 . S
O23 Zn24 1.953 . S
O23 C39 1.225 . S
Zn24 O23 1.953 . S
Zn24 O25 1.949 . S
Zn24 O31 1.919 . S
Zn24 O36 1.924 1_545 S
O25 Zn24 1.949 . S
O25 Zn26 1.923 . S
O25 Zn27 1.950 1_545 S
O25 Zn28 1.945 1_545 S
Zn26 O25 1.923 . S
Zn26 O29 1.933 . S
Zn26 O32 1.941 . S
Zn26 O33 1.965 . S
Zn27 O25 1.950 1_565 S
Zn27 O34 1.938 1_565 S
Zn27 O35 1.906 . S
Zn27 O45 1.953 . S
Zn28 O25 1.945 1_565 S
Zn28 O30 1.932 . S
Zn28 O37 1.977 . S
Zn28 O38 1.910 . S
O29 Zn26 1.933 . S
O29 C40 1.226 . S
O30 Zn28 1.932 . S
O30 C40 1.307 1_565 S
O31 Zn24 1.919 . S
O31 C42 1.253 . S
O32 Zn26 1.941 . S
O32 C42 1.283 . S
O33 Zn26 1.965 . S
O33 C41 1.303 . S
O34 Zn27 1.938 1_545 S
O34 C41 1.247 . S
O35 Zn27 1.906 . S
O35 C43 1.304 . S
O36 Zn24 1.924 1_565 S
O36 C44 1.311 . S
O37 Zn28 1.977 . S
O37 C43 1.272 . S
O38 Zn28 1.910 . S
O38 C44 1.231 . S
C39 O23 1.225 . S
C39 O45 1.298 1_545 S
C40 O29 1.226 . S
C40 O30 1.307 1_545 S
C41 O33 1.303 . S
C41 O34 1.247 . S
C42 O31 1.253 . S
C42 O32 1.283 . S
C43 O35 1.304 . S
C43 O37 1.272 . S
C44 O36 1.311 . S
C44 O38 1.231 . S
O45 Zn27 1.953 . S
O45 C39 1.298 1_565 S
O46 Zn47 1.953 . S
O46 C62 1.225 . S
Zn47 O46 1.953 . S
Zn47 O48 1.949 . S
Zn47 O54 1.919 . S
Zn47 O59 1.924 . S
O48 Zn47 1.949 . S
O48 Zn49 1.923 . S
O48 Zn50 1.950 . S
O48 Zn51 1.945 . S
Zn49 O48 1.923 . S
Zn49 O52 1.933 . S
Zn49 O55 1.941 . S
Zn49 O56 1.965 . S
Zn50 O48 1.950 . S
Zn50 O57 1.938 . S
Zn50 O58 1.906 . S
Zn50 O68 1.953 . S
Zn51 O48 1.945 . S
Zn51 O53 1.932 . S
Zn51 O60 1.977 . S
Zn51 O61 1.910 . S
O52 Zn49 1.933 . S
O52 C63 1.226 . S
O53 Zn51 1.932 . S
O53 C63 1.307 . S
O54 Zn47 1.919 . S
O54 C65 1.253 . S
O55 Zn49 1.941 . S
O55 C65 1.283 . S
O56 Zn49 1.965 . S
O56 C64 1.303 . S
O57 Zn50 1.938 . S
O57 C64 1.247 . S
O58 Zn50 1.906 . S
O58 C66 1.304 . S
O59 Zn47 1.924 . S
O59 C67 1.311 . S
O60 Zn51 1.977 . S
O60 C66 1.272 . S
O61 Zn51 1.910 . S
O61 C67 1.231 . S
C62 O46 1.225 . S
C62 O68 1.298 . S
C63 O52 1.226 . S
C63 O53 1.307 . S
C64 O56 1.303 . S
C64 O57 1.247 . S
C65 O54 1.253 . S
C65 O55 1.283 . S
C66 O58 1.304 . S
C66 O60 1.272 . S
C67 O59 1.311 . S
C67 O61 1.231 . S
O68 Zn50 1.953 . S
O68 C62 1.298 . S
H69 C72 0.931 . S
H70 C75 0.928 . S
H71 C77 0.930 . S
C72 H69 0.931 . S
C72 C73 1.413 . S
C72 C74 1.360 1_565 S
C73 C72 1.413 . S
C73 C77 1.429 1_565 S
C74 C72 1.360 1_545 S
C74 C75 1.372 . S
C75 H70 0.928 . S
C75 C74 1.372 . S
C75 C76 1.404 . S
C76 C75 1.404 . S
C76 C77 1.391 . S
C77 H71 0.930 . S
C77 C73 1.429 1_545 S
C77 C76 1.391 . S
H78 C81 0.931 . S
H79 C84 0.928 . S
H80 C86 0.930 . S
C81 H78 0.931 . S
C81 C82 1.413 . S
C81 C83 1.360 . S
C82 C81 1.413 . S
C82 C86 1.429 . S
C83 C81 1.360 . S
C83 C84 1.372 . S
C84 H79 0.928 . S
C84 C83 1.372 . S
C84 C85 1.404 . S
C85 C84 1.404 . S
C85 C86 1.391 . S
C86 H80 0.930 . S
C86 C82 1.429 . S
C86 C85 1.391 . S
H87 C90 0.931 . S
H88 C93 0.928 . S
H89 C95 0.930 . S
C90 H87 0.931 . S
C90 C91 1.413 . S
C90 C92 1.360 1_655 S
C91 C90 1.413 . S
C91 C95 1.429 1_655 S
C92 C90 1.360 1_455 S
C92 C93 1.372 . S
C93 H88 0.928 . S
C93 C92 1.372 . S
C93 C94 1.404 . S
C94 C93 1.404 . S
C94 C95 1.391 . S
C95 H89 0.930 . S
C95 C91 1.429 1_455 S
C95 C94 1.391 . S
H96 C99 0.931 . S
H97 C102 0.928 . S
H98 C104 0.930 . S
C99 H96 0.931 . S
C99 C100 1.413 . S
C99 C101 1.360 1_655 S
C100 C99 1.413 . S
C100 C104 1.429 1_655 S
C101 C99 1.360 1_455 S
C101 C102 1.372 . S
C102 H97 0.928 . S
C102 C101 1.372 . S
C102 C103 1.404 . S
C103 C102 1.404 . S
C103 C104 1.391 . S
C104 H98 0.930 . S
C104 C100 1.429 1_455 S
C104 C103 1.391 . S
H105 C108 0.931 . S
H106 C111 0.928 . S
H107 C113 0.930 . S
C108 H105 0.931 . S
C108 C109 1.413 . S
C108 C110 1.353 1_545 S
C109 C108 1.413 . S
C109 C113 1.410 1_545 S
C110 C108 1.353 1_565 S
C110 C111 1.379 . S
C111 H106 0.928 . S
C111 C110 1.379 . S
C111 C112 1.404 . S
C112 C111 1.404 . S
C112 C113 1.409 . S
C113 H107 0.930 . S
C113 C109 1.410 1_565 S
C113 C112 1.409 . S
H114 C117 0.931 . S
H115 C120 0.928 . S
H116 C122 0.930 . S
C117 H114 0.931 . S
C117 C118 1.413 . S
C117 C119 1.360 . S
C118 C117 1.413 . S
C118 C122 1.429 . S
C119 C117 1.360 . S
C119 C120 1.372 . S
C120 H115 0.928 . S
C120 C119 1.372 . S
C120 C121 1.404 . S
C121 C120 1.404 . S
C121 C122 1.391 . S
C122 H116 0.930 . S
C122 C118 1.429 . S
C122 C121 1.391 . S
H123 C131 0.950 . S
H124 C136 0.950 . S
H125 C133 0.950 . S
H126 C135 0.950 . S
H127 C137 0.950 . S
H128 C139 0.950 . S
H129 C141 0.950 . S
H130 C142 0.950 . S
C131 H123 0.950 . S
C131 C132 1.386 . S
C131 C133 1.391 . S
C132 C131 1.386 . S
C132 C136 1.393 . S
C133 H125 0.950 . S
C133 C131 1.391 . S
C133 C134 1.400 . S
C134 C133 1.400 . S
C134 C135 1.398 . S
C134 C140 1.491 . S
C135 H126 0.950 . S
C135 C134 1.398 . S
C135 C136 1.391 . S
C136 H124 0.950 . S
C136 C132 1.393 . S
C136 C135 1.391 . S
C137 H127 0.950 . S
C137 C138 1.386 . S
C137 C139 1.391 . S
C138 C137 1.386 . S
C138 C142 1.393 . S
C139 H128 0.950 . S
C139 C137 1.391 . S
C139 C140 1.400 . S
C140 C134 1.491 . S
C140 C139 1.400 . S
C140 C141 1.398 . S
C141 H129 0.950 . S
C141 C140 1.398 . S
C141 C142 1.391 . S
C142 H130 0.950 . S
C142 C138 1.393 . S
C142 C141 1.391 . S
H143 C151 0.950 . S
H144 C156 0.950 . S
H145 C153 0.950 . S
H146 C155 0.950 . S
H147 C157 0.950 . S
H148 C159 0.950 . S
H149 C161 0.950 . S
H150 C162 0.950 . S
C151 H143 0.950 . S
C151 C152 1.386 . S
C151 C153 1.391 . S
C152 C151 1.386 . S
C152 C156 1.393 . S
C153 H145 0.950 . S
C153 C151 1.391 . S
C153 C154 1.400 . S
C154 C153 1.400 . S
C154 C155 1.398 . S
C154 C160 1.491 . S
C155 H146 0.950 . S
C155 C154 1.398 . S
C155 C156 1.391 . S
C156 H144 0.950 . S
C156 C152 1.393 . S
C156 C155 1.391 . S
C157 H147 0.950 . S
C157 C158 1.386 . S
C157 C159 1.391 . S
C158 C157 1.386 . S
C158 C162 1.393 . S
C159 H148 0.950 . S
C159 C157 1.391 . S
C159 C160 1.400 . S
C160 C154 1.491 . S
C160 C159 1.400 . S
C160 C161 1.398 . S
C161 H149 0.950 . S
C161 C160 1.398 . S
C161 C162 1.391 . S
C162 H150 0.950 . S
C162 C158 1.393 . S
C162 C161 1.391 . S
H163 C171 0.950 . S
H164 C176 0.950 . S
H165 C173 0.950 . S
H166 C175 0.950 . S
H167 C177 0.950 . S
H168 C179 0.950 . S
H169 C181 0.950 . S
H170 C182 0.950 . S
C171 H163 0.950 . S
C171 C172 1.386 . S
C171 C173 1.391 . S
C172 C171 1.386 . S
C172 C176 1.393 . S
C173 H165 0.950 . S
C173 C171 1.391 . S
C173 C174 1.400 . S
C174 C173 1.400 . S
C174 C175 1.398 . S
C174 C180 1.491 . S
C175 H166 0.950 . S
C175 C174 1.398 . S
C175 C176 1.391 . S
C176 H164 0.950 . S
C176 C172 1.393 . S
C176 C175 1.391 . S
C177 H167 0.950 . S
C177 C178 1.386 . S
C177 C179 1.391 . S
C178 C177 1.386 . S
C178 C182 1.393 . S
C179 H168 0.950 . S
C179 C177 1.391 . S
C179 C180 1.400 . S
C180 C174 1.491 . S
C180 C179 1.400 . S
C180 C181 1.398 . S
C181 H169 0.950 . S
C181 C180 1.398 . S
C181 C182 1.391 . S
C182 H170 0.950 . S
C182 C178 1.393 . S
C182 C181 1.391 . S
H183 C191 0.950 . S
H184 C196 0.950 . S
H185 C193 0.950 . S
H186 C195 0.950 . S
H187 C197 0.950 . S
H188 C199 0.950 . S
H189 C201 0.950 . S
H190 C202 0.950 . S
C191 H183 0.950 . S
C191 C192 1.386 . S
C191 C193 1.391 . S
C192 C191 1.386 . S
C192 C196 1.393 . S
C193 H185 0.950 . S
C193 C191 1.391 . S
C193 C194 1.400 . S
C194 C193 1.400 . S
C194 C195 1.398 . S
C194 C200 1.491 . S
C195 H186 0.950 . S
C195 C194 1.398 . S
C195 C196 1.391 . S
C196 H184 0.950 . S
C196 C192 1.393 . S
C196 C195 1.391 . S
C197 H187 0.950 . S
C197 C198 1.386 . S
C197 C199 1.391 . S
C198 C197 1.386 . S
C198 C202 1.393 . S
C199 H188 0.950 . S
C199 C197 1.391 . S
C199 C200 1.400 . S
C200 C194 1.491 . S
C200 C199 1.400 . S
C200 C201 1.398 . S
C201 H189 0.950 . S
C201 C200 1.398 . S
C201 C202 1.391 . S
C202 H190 0.950 . S
C202 C198 1.393 . S
C202 C201 1.391 . S
H203 C211 0.950 . S
H204 C216 0.950 . S
H205 C213 0.950 . S
H206 C215 0.950 . S
H207 C217 0.950 . S
H208 C219 0.950 . S
H209 C221 0.950 . S
H210 C222 0.950 . S
C211 H203 0.950 . S
C211 C212 1.386 . S
C211 C213 1.391 . S
C212 C211 1.386 . S
C212 C216 1.393 . S
C213 H205 0.950 . S
C213 C211 1.391 . S
C213 C214 1.400 . S
C214 C213 1.400 . S
C214 C215 1.398 . S
C214 C220 1.491 . S
C215 H206 0.950 . S
C215 C214 1.398 . S
C215 C216 1.391 . S
C216 H204 0.950 . S
C216 C212 1.393 . S
C216 C215 1.391 . S
C217 H207 0.950 . S
C217 C218 1.386 . S
C217 C219 1.391 . S
C218 C217 1.386 . S
C218 C222 1.393 . S
C219 H208 0.950 . S
C219 C217 1.391 . S
C219 C220 1.400 . S
C220 C214 1.491 . S
C220 C219 1.400 . S
C220 C221 1.398 . S
C221 H209 0.950 . S
C221 C220 1.398 . S
C221 C222 1.391 . S
C222 H210 0.950 . S
C222 C218 1.393 . S
C222 C221 1.391 . S
H223 C231 0.950 . S
H224 C236 0.950 . S
H225 C233 0.950 . S
H226 C235 0.950 . S
H227 C237 0.950 . S
H228 C239 0.950 . S
H229 C241 0.950 . S
H230 C242 0.950 . S
C231 H223 0.950 . S
C231 C232 1.386 . S
C231 C233 1.391 . S
C232 C231 1.386 . S
C232 C236 1.393 . S
C233 H225 0.950 . S
C233 C231 1.391 . S
C233 C234 1.400 . S
C234 C233 1.400 . S
C234 C235 1.398 . S
C234 C240 1.491 . S
C235 H226 0.950 . S
C235 C234 1.398 . S
C235 C236 1.391 . S
C236 H224 0.950 . S
C236 C232 1.393 . S
C236 C235 1.391 . S
C237 H227 0.950 . S
C237 C238 1.386 . S
C237 C239 1.391 . S
C238 C237 1.386 . S
C238 C242 1.393 . S
C239 H228 0.950 . S
C239 C237 1.391 . S
C239 C240 1.400 . S
C240 C234 1.491 . S
C240 C239 1.400 . S
C240 C241 1.398 . S
C241 H229 0.950 . S
C241 C240 1.398 . S
C241 C242 1.391 . S
C242 H230 0.950 . S
C242 C238 1.393 . S
C242 C241 1.391 . S
H243 C251 0.950 . S
H244 C256 0.950 . S
H245 C253 0.950 . S
H246 C255 0.950 . S
H247 C257 0.950 . S
H248 C259 0.950 . S
H249 C261 0.950 . S
H250 C262 0.950 . S
C251 H243 0.950 . S
C251 C252 1.386 . S
C251 C253 1.391 . S
C252 C251 1.386 . S
C252 C256 1.393 . S
C253 H245 0.950 . S
C253 C251 1.391 . S
C253 C254 1.400 . S
C254 C253 1.400 . S
C254 C255 1.398 . S
C254 C260 1.491 . S
C255 H246 0.950 . S
C255 C254 1.398 . S
C255 C256 1.391 . S
C256 H244 0.950 . S
C256 C252 1.393 . S
C256 C255 1.391 . S
C257 H247 0.950 . S
C257 C258 1.386 . S
C257 C259 1.391 . S
C258 C257 1.386 . S
C258 C262 1.393 . S
C259 H248 0.950 . S
C259 C257 1.391 . S
C259 C260 1.400 . S
C260 C254 1.491 . S
C260 C259 1.400 . S
C260 C261 1.398 . S
C261 H249 0.950 . S
C261 C260 1.398 . S
C261 C262 1.391 . S
C262 H250 0.950 . S
C262 C258 1.393 . S
C262 C261 1.391 . S
H263 C271 0.950 . S
H264 C276 0.950 . S
H265 C273 0.950 . S
H266 C275 0.950 . S
H267 C277 0.950 . S
H268 C279 0.950 . S
H269 C281 0.950 . S
H270 C282 0.950 . S
C271 H263 0.950 . S
C271 C272 1.386 . S
C271 C273 1.391 . S
C272 C271 1.386 . S
C272 C276 1.393 . S
C273 H265 0.950 . S
C273 C271 1.391 . S
C273 C274 1.400 . S
C274 C273 1.400 . S
C274 C275 1.398 . S
C274 C280 1.491 . S
C275 H266 0.950 . S
C275 C274 1.398 . S
C275 C276 1.391 . S
C276 H264 0.950 . S
C276 C272 1.393 . S
C276 C275 1.391 . S
C277 H267 0.950 . S
C277 C278 1.386 . S
C277 C279 1.391 . S
C278 C277 1.386 . S
C278 C282 1.393 . S
C279 H268 0.950 . S
C279 C277 1.391 . S
C279 C280 1.400 . S
C280 C274 1.491 . S
C280 C279 1.400 . S
C280 C281 1.398 . S
C281 H269 0.950 . S
C281 C280 1.398 . S
C281 C282 1.391 . S
C282 H270 0.950 . S
C282 C278 1.393 . S
C282 C281 1.391 . S
H283 C291 0.950 . S
H284 C296 0.950 . S
H285 C293 0.950 . S
H286 C295 0.950 . S
H287 C297 0.950 . S
H288 C299 0.950 . S
H289 C301 0.950 . S
H290 C302 0.950 . S
C291 H283 0.950 . S
C291 C292 1.386 . S
C291 C293 1.391 . S
C292 C291 1.386 . S
C292 C296 1.393 . S
C293 H285 0.950 . S
C293 C291 1.391 . S
C293 C294 1.400 . S
C294 C293 1.400 . S
C294 C295 1.398 . S
C294 C300 1.491 . S
C295 H286 0.950 . S
C295 C294 1.398 . S
C295 C296 1.391 . S
C296 H284 0.950 . S
C296 C292 1.393 . S
C296 C295 1.391 . S
C297 H287 0.950 . S
C297 C298 1.386 . S
C297 C299 1.391 . S
C298 C297 1.386 . S
C298 C302 1.393 . S
C299 H288 0.950 . S
C299 C297 1.391 . S
C299 C300 1.400 . S
C300 C294 1.491 . S
C300 C299 1.400 . S
C300 C301 1.398 . S
C301 H289 0.950 . S
C301 C300 1.398 . S
C301 C302 1.391 . S
C302 H290 0.950 . S
C302 C298 1.393 . S
C302 C301 1.391 . S
H303 C311 0.950 . S
H304 C316 0.950 . S
H305 C313 0.950 . S
H306 C315 0.950 . S
H307 C317 0.950 . S
H308 C319 0.950 . S
H309 C321 0.950 . S
H310 C322 0.950 . S
C311 H303 0.950 . S
C311 C312 1.386 . S
C311 C313 1.391 . S
C312 C311 1.386 . S
C312 C316 1.393 . S
C313 H305 0.950 . S
C313 C311 1.391 . S
C313 C314 1.400 . S
C314 C313 1.400 . S
C314 C315 1.398 . S
C314 C320 1.491 . S
C315 H306 0.950 . S
C315 C314 1.398 . S
C315 C316 1.391 . S
C316 H304 0.950 . S
C316 C312 1.393 . S
C316 C315 1.391 . S
C317 H307 0.950 . S
C317 C318 1.386 . S
C317 C319 1.391 . S
C318 C317 1.386 . S
C318 C322 1.393 . S
C319 H308 0.950 . S
C319 C317 1.391 . S
C319 C320 1.400 . S
C320 C314 1.491 . S
C320 C319 1.400 . S
C320 C321 1.398 . S
C321 H309 0.950 . S
C321 C320 1.398 . S
C321 C322 1.391 . S
C322 H310 0.950 . S
C322 C318 1.393 . S
C322 C321 1.391 . S
H323 C331 0.950 . S
H324 C336 0.950 . S
H325 C333 0.950 . S
H326 C335 0.950 . S
H327 C337 0.950 . S
H328 C339 0.950 . S
H329 C341 0.950 . S
H330 C342 0.950 . S
C331 H323 0.950 . S
C331 C332 1.386 . S
C331 C333 1.391 . S
C332 C331 1.386 . S
C332 C336 1.393 . S
C333 H325 0.950 . S
C333 C331 1.391 . S
C333 C334 1.400 . S
C334 C333 1.400 . S
C334 C335 1.398 . S
C334 C340 1.491 . S
C335 H326 0.950 . S
C335 C334 1.398 . S
C335 C336 1.391 . S
C336 H324 0.950 . S
C336 C332 1.393 . S
C336 C335 1.391 . S
C337 H327 0.950 . S
C337 C338 1.386 . S
C337 C339 1.391 . S
C338 C337 1.386 . S
C338 C342 1.393 . S
C339 H328 0.950 . S
C339 C337 1.391 . S
C339 C340 1.400 . S
C340 C334 1.491 . S
C340 C339 1.400 . S
C340 C341 1.398 . S
C341 H329 0.950 . S
C341 C340 1.398 . S
C341 C342 1.391 . S
C342 H330 0.950 . S
C342 C338 1.393 . S
C342 C341 1.391 . S
H343 C351 0.950 . S
H344 C356 0.950 . S
H345 C353 0.950 . S
H346 C355 0.950 . S
H347 C357 0.950 . S
H348 C359 0.950 . S
H349 C361 0.950 . S
H350 C362 0.950 . S
C351 H343 0.950 . S
C351 C352 1.386 . S
C351 C353 1.391 . S
C352 C351 1.386 . S
C352 C356 1.393 . S
C353 H345 0.950 . S
C353 C351 1.391 . S
C353 C354 1.400 . S
C354 C353 1.400 . S
C354 C355 1.398 . S
C354 C360 1.491 . S
C355 H346 0.950 . S
C355 C354 1.398 . S
C355 C356 1.391 . S
C356 H344 0.950 . S
C356 C352 1.393 . S
C356 C355 1.391 . S
C357 H347 0.950 . S
C357 C358 1.386 . S
C357 C359 1.391 . S
C358 C357 1.386 . S
C358 C362 1.393 . S
C359 H348 0.950 . S
C359 C357 1.391 . S
C359 C360 1.400 . S
C360 C354 1.491 . S
C360 C359 1.400 . S
C360 C361 1.398 . S
C361 H349 0.950 . S
C361 C360 1.398 . S
C361 C362 1.391 . S
C362 H350 0.950 . S
C362 C358 1.393 . S
C362 C361 1.391 . S
H363 C371 0.950 . S
H364 C376 0.950 . S
H365 C373 0.950 . S
H366 C375 0.950 . S
H367 C377 0.950 . S
H368 C379 0.950 1_554 S
H369 C381 0.950 1_554 S
H370 C382 0.950 . S
C371 H363 0.950 . S
C371 C372 1.386 . S
C371 C373 1.391 . S
C372 C371 1.386 . S
C372 C376 1.393 1_455 S
C373 H365 0.950 . S
C373 C371 1.391 . S
C373 C374 1.400 . S
C374 C373 1.400 . S
C374 C375 1.398 1_455 S
C374 C380 1.491 . S
C375 H366 0.950 . S
C375 C374 1.398 1_655 S
C375 C376 1.391 . S
C376 H364 0.950 . S
C376 C372 1.393 1_655 S
C376 C375 1.391 . S
C377 H367 0.950 . S
C377 C378 1.386 1_655 S
C377 C379 1.391 . S
C378 C377 1.386 1_455 S
C378 C382 1.393 . S
C379 H368 0.950 1_556 S
C379 C377 1.391 . S
C379 C380 1.400 1_656 S
C380 C374 1.491 . S
C380 C379 1.400 1_454 S
C380 C381 1.398 1_554 S
C381 H369 0.950 1_556 S
C381 C380 1.398 1_556 S
C381 C382 1.391 . S
C382 H370 0.950 . S
C382 C378 1.393 . S
C382 C381 1.391 . S
H383 C391 0.950 . S
H384 C396 0.950 . S
H385 C393 0.950 . S
H386 C395 0.950 . S
H387 C397 0.950 . S
H388 C399 0.950 . S
H389 C401 0.950 . S
H390 C402 0.950 . S
C391 H383 0.950 . S
C391 C392 1.386 . S
C391 C393 1.391 . S
C392 C391 1.386 . S
C392 C396 1.393 1_545 S
C393 H385 0.950 . S
C393 C391 1.391 . S
C393 C394 1.400 . S
C394 C393 1.400 . S
C394 C395 1.398 1_545 S
C394 C400 1.491 . S
C395 H386 0.950 . S
C395 C394 1.398 1_565 S
C395 C396 1.391 . S
C396 H384 0.950 . S
C396 C392 1.393 1_565 S
C396 C395 1.391 . S
C397 H387 0.950 . S
C397 C398 1.386 1_565 S
C397 C399 1.391 . S
C398 C397 1.386 1_545 S
C398 C402 1.393 . S
C399 H388 0.950 . S
C399 C397 1.391 . S
C399 C400 1.400 1_565 S
C400 C394 1.491 . S
C400 C399 1.400 1_545 S
C400 C401 1.398 . S
C401 H389 0.950 . S
C401 C400 1.398 . S
C401 C402 1.391 . S
C402 H390 0.950 . S
C402 C398 1.393 . S
C402 C401 1.391 . S
H403 C411 0.950 . S
H404 C416 0.950 . S
H405 C413 0.950 . S
H406 C415 0.950 . S
H407 C417 0.950 . S
H408 C419 0.950 . S
H409 C421 0.950 . S
H410 C422 0.950 . S
C411 H403 0.950 . S
C411 C412 1.386 . S
C411 C413 1.391 . S
C412 C411 1.386 . S
C412 C416 1.393 . S
C413 H405 0.950 . S
C413 C411 1.391 . S
C413 C414 1.400 . S
C414 C413 1.400 . S
C414 C415 1.398 . S
C414 C420 1.491 . S
C415 H406 0.950 . S
C415 C414 1.398 . S
C415 C416 1.391 . S
C416 H404 0.950 . S
C416 C412 1.393 . S
C416 C415 1.391 . S
C417 H407 0.950 . S
C417 C418 1.386 . S
C417 C419 1.391 . S
C418 C417 1.386 . S
C418 C422 1.393 . S
C419 H408 0.950 . S
C419 C417 1.391 . S
C419 C420 1.400 . S
C420 C414 1.491 . S
C420 C419 1.400 . S
C420 C421 1.398 . S
C421 H409 0.950 . S
C421 C420 1.398 . S
C421 C422 1.391 . S
C422 H410 0.950 . S
C422 C418 1.393 . S
C422 C421 1.391 . S
H423 C431 0.950 . S
H424 C436 0.950 . S
H425 C433 0.950 . S
H426 C435 0.950 . S
H427 C437 0.950 . S
H428 C439 0.950 . S
H429 C441 0.950 . S
H430 C442 0.950 . S
C431 H423 0.950 . S
C431 C432 1.386 . S
C431 C433 1.391 . S
C432 C431 1.386 . S
C432 C436 1.393 1_545 S
C433 H425 0.950 . S
C433 C431 1.391 . S
C433 C434 1.400 . S
C434 C433 1.400 . S
C434 C435 1.398 1_545 S
C434 C440 1.491 . S
C435 H426 0.950 . S
C435 C434 1.398 1_565 S
C435 C436 1.391 . S
C436 H424 0.950 . S
C436 C432 1.393 1_565 S
C436 C435 1.391 . S
C437 H427 0.950 . S
C437 C438 1.384 1_565 S
C437 C439 1.391 . S
C438 C437 1.384 1_545 S
C438 C442 1.394 . S
C439 H428 0.950 . S
C439 C437 1.391 . S
C439 C440 1.400 1_565 S
C440 C434 1.491 . S
C440 C439 1.400 1_545 S
C440 C441 1.398 . S
C441 H429 0.950 . S
C441 C440 1.398 . S
C441 C442 1.391 . S
C442 H430 0.950 . S
C442 C438 1.394 . S
C442 C441 1.391 . S
H443 C451 0.950 . S
H444 C456 0.950 . S
H445 C453 0.950 . S
H446 C455 0.950 . S
H447 C457 0.950 . S
H448 C459 0.950 1_556 S
H449 C461 0.950 1_556 S
H450 C462 0.950 . S
C451 H443 0.950 . S
C451 C452 1.386 . S
C451 C453 1.391 . S
C452 C451 1.386 . S
C452 C456 1.393 . S
C453 H445 0.950 . S
C453 C451 1.391 . S
C453 C454 1.400 . S
C454 C453 1.400 . S
C454 C455 1.398 . S
C454 C460 1.491 . S
C455 H446 0.950 . S
C455 C454 1.398 . S
C455 C456 1.391 . S
C456 H444 0.950 . S
C456 C452 1.393 . S
C456 C455 1.391 . S
C457 H447 0.950 . S
C457 C458 1.386 . S
C457 C459 1.391 . S
C458 C457 1.386 . S
C458 C462 1.393 . S
C459 H448 0.950 1_554 S
C459 C457 1.391 . S
C459 C460 1.400 1_554 S
C460 C454 1.491 . S
C460 C459 1.400 1_556 S
C460 C461 1.398 1_556 S
C461 H449 0.950 1_554 S
C461 C460 1.398 1_554 S
C461 C462 1.391 . S
C462 H450 0.950 . S
C462 C458 1.393 . S
C462 C461 1.391 . S
H463 C471 0.950 . S
H464 C476 0.950 . S
H465 C473 0.950 . S
H466 C475 0.950 . S
H467 C477 0.950 . S
H468 C479 0.950 . S
H469 C481 0.950 . S
H470 C482 0.950 . S
C471 H463 0.950 . S
C471 C472 1.386 . S
C471 C473 1.391 . S
C472 C471 1.386 . S
C472 C476 1.393 1_455 S
C473 H465 0.950 . S
C473 C471 1.391 . S
C473 C474 1.400 . S
C474 C473 1.400 . S
C474 C475 1.398 1_455 S
C474 C480 1.491 . S
C475 H466 0.950 . S
C475 C474 1.398 1_655 S
C475 C476 1.391 . S
C476 H464 0.950 . S
C476 C472 1.393 1_655 S
C476 C475 1.391 . S
C477 H467 0.950 . S
C477 C478 1.381 1_655 S
C477 C479 1.391 . S
C478 C477 1.381 1_455 S
C478 C482 1.397 . S
C479 H468 0.950 . S
C479 C477 1.391 . S
C479 C480 1.400 1_655 S
C480 C474 1.491 . S
C480 C479 1.400 1_455 S
C480 C481 1.398 . S
C481 H469 0.950 . S
C481 C480 1.398 . S
C481 C482 1.391 . S
C482 H470 0.950 . S
C482 C478 1.397 . S
C482 C481 1.391 . S
C132 C20 1.240 . S
C138 C118 1.262 . S
C152 C41 1.290 . S
C158 C100 1.288 . S
C172 C64 1.293 . S
C178 C112 1.284 . S
C192 C19 1.259 . S
C198 C121 1.295 . S
C218 C103 1.272 . S
C212 C44 1.275 . S
C238 C109 1.273 . S
C232 C67 1.273 . S
C252 C43 1.241 . S
C258 C82 1.267 . S
C272 C66 1.211 . S
C278 C91 1.258 . S
C292 C21 1.284 . S
C298 C73 1.283 . S
C318 C85 1.279 . S
C312 C42 1.232 . S
C338 C94 1.296 . S
C332 C65 1.265 . S
C352 C18 1.275 . S
C358 C76 1.271 . S
C378 C92 1.469 . S
C372 C17 1.466 . S
C392 C39 1.466 . S
C398 C74 1.466 . S
C412 C62 1.480 . S
C418 C83 1.481 . S
C438 C110 1.453 1_545 S
C432 C40 1.454 . S
C458 C119 1.469 . S
C452 C63 1.467 . S
C472 C16 1.465 . S
C478 C101 1.466 . S
