# Generated by pormake.
# Topology ssb, (4,4)-cn, num edge types: 1
# Building blocks:
#     Node 0, Type 0, BuildingBlock: NAHDIM_clean_linker_0, # of connection points: 4
#     Node 1, Type 0, BuildingBlock: NAHDIM_clean_linker_0, # of connection points: 4
#     Node 2, Type 0, BuildingBlock: NAHDIM_clean_linker_0, # of connection points: 4
#     Node 3, Type 0, BuildingBlock: NAHDIM_clean_linker_0, # of connection points: 4
#     Node 4, Type 0, BuildingBlock: NAHDIM_clean_linker_0, # of connection points: 4
#     Node 5, Type 0, BuildingBlock: NAHDIM_clean_linker_0, # of connection points: 4
#     Node 6, Type 0, BuildingBlock: NAHDIM_clean_linker_0, # of connection points: 4
#     Node 7, Type 0, BuildingBlock: NAHDIM_clean_linker_0, # of connection points: 4
#     Node 8, Type 1, BuildingBlock: NAWXER_clean_sbu_0, # of connection points: 4
#     Node 9, Type 1, BuildingBlock: NAWXER_clean_sbu_0, # of connection points: 4
#     Node 10, Type 1, BuildingBlock: NAWXER_clean_sbu_0, # of connection points: 4
#     Node 11, Type 1, BuildingBlock: NAWXER_clean_sbu_0, # of connection points: 4
#     Node 12, Type 1, BuildingBlock: NAWXER_clean_sbu_0, # of connection points: 4
#     Node 13, Type 1, BuildingBlock: NAWXER_clean_sbu_0, # of connection points: 4
#     Node 14, Type 1, BuildingBlock: NAWXER_clean_sbu_0, # of connection points: 4
#     Node 15, Type 1, BuildingBlock: NAWXER_clean_sbu_0, # of connection points: 4
#     Edge 16, Type (0, 1), BuildingBlock: EZIPEK_clean_linker_0, # of connection points: 2
#     Edge 17, Type (0, 1), BuildingBlock: EZIPEK_clean_linker_0, # of connection points: 2
#     Edge 18, Type (0, 1), BuildingBlock: EZIPEK_clean_linker_0, # of connection points: 2
#     Edge 19, Type (0, 1), BuildingBlock: EZIPEK_clean_linker_0, # of connection points: 2
#     Edge 20, Type (0, 1), BuildingBlock: EZIPEK_clean_linker_0, # of connection points: 2
#     Edge 21, Type (0, 1), BuildingBlock: EZIPEK_clean_linker_0, # of connection points: 2
#     Edge 22, Type (0, 1), BuildingBlock: EZIPEK_clean_linker_0, # of connection points: 2
#     Edge 23, Type (0, 1), BuildingBlock: EZIPEK_clean_linker_0, # of connection points: 2
#     Edge 24, Type (0, 1), BuildingBlock: EZIPEK_clean_linker_0, # of connection points: 2
#     Edge 25, Type (0, 1), BuildingBlock: EZIPEK_clean_linker_0, # of connection points: 2
#     Edge 26, Type (0, 1), BuildingBlock: EZIPEK_clean_linker_0, # of connection points: 2
#     Edge 27, Type (0, 1), BuildingBlock: EZIPEK_clean_linker_0, # of connection points: 2
#     Edge 28, Type (0, 1), BuildingBlock: EZIPEK_clean_linker_0, # of connection points: 2
#     Edge 29, Type (0, 1), BuildingBlock: EZIPEK_clean_linker_0, # of connection points: 2
#     Edge 30, Type (0, 1), BuildingBlock: EZIPEK_clean_linker_0, # of connection points: 2
#     Edge 31, Type (0, 1), BuildingBlock: EZIPEK_clean_linker_0, # of connection points: 2
#     Edge 32, Type (0, 1), BuildingBlock: EZIPEK_clean_linker_0, # of connection points: 2
#     Edge 33, Type (0, 1), BuildingBlock: EZIPEK_clean_linker_0, # of connection points: 2
#     Edge 34, Type (0, 1), BuildingBlock: EZIPEK_clean_linker_0, # of connection points: 2
#     Edge 35, Type (0, 1), BuildingBlock: EZIPEK_clean_linker_0, # of connection points: 2
#     Edge 36, Type (0, 1), BuildingBlock: EZIPEK_clean_linker_0, # of connection points: 2
#     Edge 37, Type (0, 1), BuildingBlock: EZIPEK_clean_linker_0, # of connection points: 2
#     Edge 38, Type (0, 1), BuildingBlock: EZIPEK_clean_linker_0, # of connection points: 2
#     Edge 39, Type (0, 1), BuildingBlock: EZIPEK_clean_linker_0, # of connection points: 2
#     Edge 40, Type (0, 1), BuildingBlock: EZIPEK_clean_linker_0, # of connection points: 2
#     Edge 41, Type (0, 1), BuildingBlock: EZIPEK_clean_linker_0, # of connection points: 2
#     Edge 42, Type (0, 1), BuildingBlock: EZIPEK_clean_linker_0, # of connection points: 2
#     Edge 43, Type (0, 1), BuildingBlock: EZIPEK_clean_linker_0, # of connection points: 2
#     Edge 44, Type (0, 1), BuildingBlock: EZIPEK_clean_linker_0, # of connection points: 2
#     Edge 45, Type (0, 1), BuildingBlock: EZIPEK_clean_linker_0, # of connection points: 2
#     Edge 46, Type (0, 1), BuildingBlock: EZIPEK_clean_linker_0, # of connection points: 2
#     Edge 47, Type (0, 1), BuildingBlock: EZIPEK_clean_linker_0, # of connection points: 2
# Relax obj value: 0.006
# Max RMSD: 0.044
# Mean RMSD: 0.034
data_MOF--net-ssb--node1-NAWXER_clean_sbu_0--node2-NAHDIM_clean_linker_0--edge1-EZIPEK_clean_linker_0
_symmetry_space_group_name_H-M    P1
_symmetry_Int_Tables_number       1
_symmetry_cell_setting            triclinic
loop_
_symmetry_equiv_pos_as_xyz
'x, y, z'
_cell_length_a     50.230039
_cell_length_b     50.212663
_cell_length_c     43.090083
_cell_angle_alpha  90.018141
_cell_angle_beta   89.996387
_cell_angle_gamma 89.994234
loop_
_atom_site_label
_atom_site_type_symbol
_atom_site_fract_x
_atom_site_fract_y
_atom_site_fract_z
_atom_type_partial_charge
C0 C 0.34526 0.1036 0.34788 0.0
C1 C 0.32427 0.11552 0.36987 0.0
C2 C 0.30335 0.15055 0.3389 0.0
C3 C 0.3146 0.17333 0.35251 0.0
C4 C 0.31563 0.1975 0.33624 0.0
C5 C 0.30519 0.19889 0.30579 0.0
C6 C 0.29251 0.17637 0.29272 0.0
C7 C 0.29151 0.15251 0.30966 0.0
C8 C 0.32853 0.22139 0.35127 0.0
C9 C 0.28086 0.17729 0.26048 0.0
C10 C 0.48082 0.26971 0.17588 0.0
C11 C 0.45148 0.26182 0.17265 0.0
C12 C 0.4187 0.24797 0.21087 0.0
C13 C 0.39663 0.24014 0.19321 0.0
C14 C 0.37112 0.23929 0.2065 0.0
C15 C 0.36781 0.24653 0.23801 0.0
C16 C 0.39019 0.25411 0.2559 0.0
C17 C 0.41546 0.25434 0.24213 0.0
C18 C 0.34777 0.2305 0.18702 0.0
C19 C 0.38749 0.26182 0.2896 0.0
C20 C 0.29124 0.40004 0.18797 0.0
C21 C 0.27861 0.37749 0.17553 0.0
C22 C 0.27097 0.35626 0.19472 0.0
C23 C 0.27637 0.35752 0.22693 0.0
C24 C 0.28831 0.3806 0.23964 0.0
C25 C 0.29526 0.40175 0.21996 0.0
C26 C 0.25739 0.33237 0.18052 0.0
C27 C 0.29424 0.38265 0.27388 0.0
C28 C 0.15289 0.28631 0.39829 0.0
C29 C 0.15004 0.31664 0.39432 0.0
C30 C 0.17407 0.32129 0.34506 0.0
C31 C 0.17024 0.31607 0.31353 0.0
C32 C 0.19197 0.31252 0.29344 0.0
C33 C 0.21817 0.31508 0.30512 0.0
C34 C 0.22217 0.32121 0.33686 0.0
C35 C 0.2001 0.32394 0.35658 0.0
C36 C 0.1869 0.30596 0.25978 0.0
C37 C 0.24977 0.32524 0.34996 0.0
C38 C 0.31013 0.22287 0.28655 0.0
C39 C 0.33407 0.22378 0.27007 0.0
C40 C 0.34104 0.24606 0.25252 0.0
C41 C 0.32347 0.26796 0.25069 0.0
C42 C 0.32986 0.29062 0.23307 0.0
C43 C 0.31258 0.31219 0.2316 0.0
C44 C 0.2884 0.3121 0.24806 0.0
C45 C 0.27086 0.33409 0.24692 0.0
C46 C 0.24783 0.33412 0.26511 0.0
C47 C 0.24144 0.31242 0.28406 0.0
C48 C 0.25798 0.28957 0.2841 0.0
C49 C 0.25151 0.26681 0.3016 0.0
C50 C 0.26839 0.24478 0.3022 0.0
C51 C 0.29241 0.24475 0.28545 0.0
C52 C 0.29912 0.26735 0.26733 0.0
C53 C 0.28174 0.28963 0.26637 0.0
C54 C 0.33507 0.43398 0.13941 0.0
C55 C 0.30828 0.41933 0.13978 0.0
O56 O 0.30328 0.12653 0.35336 0.0
O57 O 0.15222 0.32401 0.36342 0.0
O58 O 0.29866 0.42096 0.16988 0.0
O59 O 0.44358 0.24807 0.19888 0.0
H60 H 0.33563 0.13118 0.38213 0.0
H61 H 0.35437 0.11974 0.33381 0.0
H62 H 0.33695 0.08878 0.33155 0.0
H63 H 0.36135 0.09395 0.36154 0.0
H64 H 0.32255 0.17244 0.3758 0.0
H65 H 0.28236 0.13495 0.29964 0.0
H66 H 0.34724 0.22625 0.33882 0.0
H67 H 0.3333 0.21787 0.3761 0.0
H68 H 0.31521 0.23898 0.3495 0.0
H69 H 0.27018 0.15864 0.2544 0.0
H70 H 0.29705 0.18054 0.24334 0.0
H71 H 0.26684 0.1943 0.25852 0.0
H72 H 0.44101 0.28127 0.17229 0.0
H73 H 0.48726 0.28142 0.15532 0.0
H74 H 0.49396 0.25207 0.17815 0.0
H75 H 0.48351 0.2823 0.19686 0.0
H76 H 0.39935 0.23408 0.16934 0.0
H77 H 0.43282 0.25983 0.25563 0.0
H78 H 0.33735 0.2137 0.19856 0.0
H79 H 0.35388 0.22416 0.16336 0.0
H80 H 0.33331 0.24712 0.18487 0.0
H81 H 0.40628 0.27005 0.29923 0.0
H82 H 0.3819 0.24398 0.30332 0.0
H83 H 0.37144 0.27683 0.29251 0.0
H84 H 0.31237 0.39815 0.13424 0.0
H85 H 0.27433 0.37663 0.15091 0.0
H86 H 0.30449 0.41951 0.22938 0.0
H87 H 0.27108 0.31503 0.18124 0.0
H88 H 0.25153 0.33591 0.15601 0.0
H89 H 0.23936 0.32708 0.19411 0.0
H90 H 0.30478 0.40141 0.27988 0.0
H91 H 0.30667 0.36551 0.28131 0.0
H92 H 0.27535 0.3818 0.28722 0.0
H93 H 0.16689 0.32498 0.40764 0.0
H94 H 0.14973 0.28072 0.42296 0.0
H95 H 0.17329 0.27995 0.39166 0.0
H96 H 0.13862 0.27504 0.38374 0.0
H97 H 0.15008 0.31427 0.30481 0.0
H98 H 0.20341 0.32873 0.38072 0.0
H99 H 0.19911 0.28855 0.25265 0.0
H100 H 0.19292 0.3231 0.24511 0.0
H101 H 0.1656 0.30149 0.25519 0.0
H102 H 0.24933 0.33336 0.37394 0.0
H103 H 0.26135 0.33905 0.33502 0.0
H104 H 0.26045 0.3059 0.35042 0.0
H105 H 0.34779 0.20713 0.27151 0.0
H106 H 0.34829 0.29194 0.22012 0.0
H107 H 0.31861 0.32906 0.21764 0.0
H108 H 0.23492 0.35145 0.26487 0.0
H109 H 0.23333 0.26581 0.31504 0.0
H110 H 0.26251 0.22784 0.31615 0.0
H111 H 0.33214 0.45544 0.14478 0.0
H112 H 0.34514 0.43225 0.11659 0.0
H113 H 0.34852 0.42531 0.15721 0.0
C114 C 0.61511 0.13513 0.14449 0.0
C115 C 0.61914 0.16529 0.14098 0.0
C116 C 0.66299 0.17933 0.15969 0.0
C117 C 0.65644 0.19995 0.18026 0.0
C118 C 0.6746 0.20853 0.20289 0.0
C119 C 0.69982 0.19611 0.20503 0.0
C120 C 0.70659 0.17548 0.18405 0.0
C121 C 0.68819 0.16768 0.16128 0.0
C122 C 0.66686 0.23097 0.22439 0.0
C123 C 0.7332 0.1616 0.18578 0.0
C124 C 0.67916 0.16782 0.45 0.0
C125 C 0.69226 0.15911 0.41946 0.0
C126 C 0.7134 0.18397 0.37817 0.0
C127 C 0.72818 0.16594 0.36033 0.0
C128 C 0.73392 0.17136 0.32908 0.0
C129 C 0.72511 0.19557 0.31581 0.0
C130 C 0.71042 0.21391 0.334 0.0
C131 C 0.70492 0.20791 0.3651 0.0
C132 C 0.74991 0.1516 0.31044 0.0
C133 C 0.7009 0.24004 0.3207 0.0
C134 C 0.88134 0.27773 0.32724 0.0
C135 C 0.88131 0.25516 0.30795 0.0
C136 C 0.86246 0.25242 0.28417 0.0
C137 C 0.84296 0.27243 0.27989 0.0
C138 C 0.84346 0.29558 0.2986 0.0
C139 C 0.86292 0.29805 0.3218 0.0
C140 C 0.86306 0.22784 0.26398 0.0
C141 C 0.82296 0.31729 0.29471 0.0
C142 C 0.77194 0.34661 0.06003 0.0
C143 C 0.78568 0.36044 0.08751 0.0
C144 C 0.80372 0.32807 0.12544 0.0
C145 C 0.82206 0.30722 0.12783 0.0
C146 C 0.82202 0.28995 0.15347 0.0
C147 C 0.80356 0.29414 0.17776 0.0
C148 C 0.78537 0.31562 0.17595 0.0
C149 C 0.78537 0.33208 0.14968 0.0
C150 C 0.84166 0.26724 0.15457 0.0
C151 C 0.76605 0.32149 0.20197 0.0
C152 C 0.71903 0.2046 0.22928 0.0
C153 C 0.71512 0.19538 0.25958 0.0
C154 C 0.73242 0.20265 0.28351 0.0
C155 C 0.75502 0.21841 0.27695 0.0
C156 C 0.77373 0.22462 0.30012 0.0
C157 C 0.79565 0.24056 0.29358 0.0
C158 C 0.79928 0.25152 0.26385 0.0
C159 C 0.82119 0.26822 0.25712 0.0
C160 C 0.82273 0.28098 0.22835 0.0
C161 C 0.8034 0.27664 0.20552 0.0
C162 C 0.78284 0.25794 0.21078 0.0
C163 C 0.7644 0.25136 0.18744 0.0
C164 C 0.74371 0.23358 0.19324 0.0
C165 C 0.74039 0.22211 0.22278 0.0
C166 C 0.75871 0.22861 0.24662 0.0
C167 C 0.7804 0.24588 0.24034 0.0
C168 C 0.89086 0.24316 0.38548 0.0
C169 C 0.91111 0.26059 0.36788 0.0
O170 O 0.64595 0.17107 0.13721 0.0
O171 O 0.8052 0.34408 0.09997 0.0
O172 O 0.89858 0.28068 0.35133 0.0
O173 O 0.70841 0.17934 0.40852 0.0
H174 H 0.61212 0.17295 0.1636 0.0
H175 H 0.62655 0.12781 0.16484 0.0
H176 H 0.62174 0.12378 0.12387 0.0
H177 H 0.59371 0.1307 0.14853 0.0
H178 H 0.63747 0.20981 0.17829 0.0
H179 H 0.6932 0.15205 0.14494 0.0
H180 H 0.66427 0.22303 0.24823 0.0
H181 H 0.64799 0.24074 0.21723 0.0
H182 H 0.68287 0.24621 0.22521 0.0
H183 H 0.73437 0.14426 0.16982 0.0
H184 H 0.73701 0.15467 0.20985 0.0
H185 H 0.74924 0.17584 0.17958 0.0
H186 H 0.67494 0.1569 0.40369 0.0
H187 H 0.66626 0.15162 0.45911 0.0
H188 H 0.66649 0.18561 0.44586 0.0
H189 H 0.694 0.17311 0.468 0.0
H190 H 0.73558 0.14787 0.37094 0.0
H191 H 0.69393 0.22186 0.3794 0.0
H192 H 0.73871 0.14589 0.28924 0.0
H193 H 0.75461 0.13332 0.32388 0.0
H194 H 0.76883 0.16098 0.30282 0.0
H195 H 0.6885 0.25145 0.33741 0.0
H196 H 0.68907 0.2364 0.29935 0.0
H197 H 0.71831 0.25242 0.31408 0.0
H198 H 0.92103 0.24659 0.35177 0.0
H199 H 0.89585 0.23955 0.31123 0.0
H200 H 0.86329 0.31552 0.33657 0.0
H201 H 0.84592 0.21487 0.26994 0.0
H202 H 0.88166 0.21618 0.26712 0.0
H203 H 0.86116 0.2334 0.23914 0.0
H204 H 0.82523 0.33337 0.31223 0.0
H205 H 0.80263 0.30876 0.29671 0.0
H206 H 0.82477 0.32615 0.27121 0.0
H207 H 0.769 0.3635 0.10381 0.0
H208 H 0.75723 0.36026 0.04917 0.0
H209 H 0.7611 0.32874 0.06848 0.0
H210 H 0.78611 0.33987 0.04199 0.0
H211 H 0.83631 0.30434 0.10925 0.0
H212 H 0.77129 0.34825 0.14908 0.0
H213 H 0.83122 0.24833 0.16013 0.0
H214 H 0.8564 0.27096 0.17326 0.0
H215 H 0.85252 0.26479 0.13229 0.0
H216 H 0.75641 0.34128 0.19935 0.0
H217 H 0.77635 0.32087 0.22477 0.0
H218 H 0.7502 0.3061 0.20224 0.0
H219 H 0.69804 0.18291 0.26474 0.0
H220 H 0.77176 0.21705 0.32353 0.0
H221 H 0.80942 0.2446 0.31233 0.0
H222 H 0.83884 0.29486 0.22393 0.0
H223 H 0.76587 0.25981 0.16439 0.0
H224 H 0.73008 0.22928 0.17443 0.0
H225 H 0.90143 0.229 0.40101 0.0
H226 H 0.87895 0.23125 0.36879 0.0
H227 H 0.87673 0.25507 0.3995 0.0
C228 C 0.66407 0.90749 0.34117 0.0
C229 C 0.68089 0.89344 0.36612 0.0
C230 C 0.70178 0.85725 0.33692 0.0
C231 C 0.68753 0.83508 0.34768 0.0
C232 C 0.68753 0.81112 0.3309 0.0
C233 C 0.70192 0.80942 0.30271 0.0
C234 C 0.7166 0.83165 0.29207 0.0
C235 C 0.71667 0.85518 0.30965 0.0
C236 C 0.6722 0.78757 0.34332 0.0
C237 C 0.73204 0.8306 0.26205 0.0
C238 C 0.56176 0.71697 0.13429 0.0
C239 C 0.58725 0.73317 0.13899 0.0
C240 C 0.60902 0.74664 0.18718 0.0
C241 C 0.63396 0.75323 0.17467 0.0
C242 C 0.65596 0.75753 0.19409 0.0
C243 C 0.65303 0.75455 0.2266 0.0
C244 C 0.62777 0.74836 0.23924 0.0
C245 C 0.60598 0.74492 0.21929 0.0
C246 C 0.68232 0.76517 0.17982 0.0
C247 C 0.62376 0.74519 0.27375 0.0
C248 C 0.74575 0.60097 0.21124 0.0
C249 C 0.75491 0.62327 0.19489 0.0
C250 C 0.75822 0.64786 0.20996 0.0
C251 C 0.75181 0.65012 0.24188 0.0
C252 C 0.74294 0.62746 0.25843 0.0
C253 C 0.74046 0.60305 0.24293 0.0
C254 C 0.7687 0.67134 0.19185 0.0
C255 C 0.73593 0.62903 0.29245 0.0
C256 C 0.86185 0.73938 0.41637 0.0
C257 C 0.87129 0.712 0.40463 0.0
C258 C 0.84737 0.70871 0.35473 0.0
C259 C 0.85012 0.71337 0.32294 0.0
C260 C 0.82811 0.71233 0.30294 0.0
C261 C 0.80276 0.70587 0.31505 0.0
C262 C 0.79983 0.70066 0.34715 0.0
C263 C 0.82208 0.70245 0.36674 0.0
C264 C 0.83196 0.71811 0.26887 0.0
C265 C 0.77321 0.69295 0.36074 0.0
C266 C 0.70109 0.78453 0.28414 0.0
C267 C 0.67944 0.78078 0.26424 0.0
C268 C 0.67651 0.75724 0.24728 0.0
C269 C 0.6956 0.73671 0.25026 0.0
C270 C 0.69262 0.71229 0.23464 0.0
C271 C 0.7117 0.69238 0.23728 0.0
C272 C 0.73458 0.69612 0.25557 0.0
C273 C 0.75428 0.67612 0.25805 0.0
C274 C 0.7764 0.68019 0.27711 0.0
C275 C 0.77944 0.70374 0.29404 0.0
C276 C 0.76016 0.72417 0.29151 0.0
C277 C 0.76269 0.74823 0.30796 0.0
C278 C 0.7433 0.76796 0.3058 0.0
C279 C 0.72089 0.76459 0.28663 0.0
C280 C 0.71809 0.7406 0.2696 0.0
C281 C 0.73768 0.72032 0.27214 0.0
C282 C 0.71782 0.54469 0.17027 0.0
C283 C 0.7318 0.57178 0.1689 0.0
O284 O 0.70246 0.88056 0.35281 0.0
O285 O 0.86965 0.71021 0.3726 0.0
O286 O 0.74303 0.57683 0.19759 0.0
O287 O 0.58725 0.74277 0.16906 0.0
H288 H 0.66676 0.87889 0.37599 0.0
H289 H 0.65471 0.89237 0.32581 0.0
H290 H 0.67597 0.92091 0.32625 0.0
H291 H 0.64789 0.91921 0.35225 0.0
H292 H 0.67687 0.83618 0.36945 0.0
H293 H 0.72791 0.87234 0.30182 0.0
H294 H 0.65557 0.78281 0.32731 0.0
H295 H 0.66384 0.7914 0.36677 0.0
H296 H 0.68533 0.7698 0.34446 0.0
H297 H 0.74137 0.85002 0.25625 0.0
H298 H 0.71863 0.82466 0.24275 0.0
H299 H 0.74791 0.81529 0.26378 0.0
H300 H 0.60369 0.71854 0.13671 0.0
H301 H 0.5614 0.70799 0.11071 0.0
H302 H 0.54388 0.72978 0.13722 0.0
H303 H 0.5608 0.7006 0.15159 0.0
H304 H 0.63619 0.75552 0.14986 0.0
H305 H 0.5865 0.74029 0.22868 0.0
H306 H 0.69135 0.78207 0.19271 0.0
H307 H 0.68027 0.77085 0.15501 0.0
H308 H 0.69625 0.74807 0.18133 0.0
H309 H 0.60388 0.73682 0.27944 0.0
H310 H 0.62559 0.76495 0.28508 0.0
H311 H 0.63933 0.73201 0.28369 0.0
H312 H 0.71527 0.58605 0.16532 0.0
H313 H 0.76018 0.62135 0.17067 0.0
H314 H 0.73386 0.58549 0.25538 0.0
H315 H 0.7527 0.68641 0.18921 0.0
H316 H 0.77575 0.66554 0.16836 0.0
H317 H 0.78537 0.6809 0.20461 0.0
H318 H 0.72666 0.61035 0.30107 0.0
H319 H 0.722 0.64582 0.29667 0.0
H320 H 0.75424 0.63288 0.30616 0.0
H321 H 0.85733 0.69772 0.41536 0.0
H322 H 0.86426 0.74058 0.44197 0.0
H323 H 0.8404 0.74216 0.41104 0.0
H324 H 0.87286 0.75611 0.40568 0.0
H325 H 0.86968 0.71812 0.31386 0.0
H326 H 0.81944 0.69859 0.39121 0.0
H327 H 0.81733 0.73327 0.26104 0.0
H328 H 0.82833 0.69969 0.25526 0.0
H329 H 0.85237 0.72538 0.26365 0.0
H330 H 0.77479 0.6868 0.38543 0.0
H331 H 0.76433 0.67633 0.34725 0.0
H332 H 0.75935 0.71012 0.35927 0.0
H333 H 0.66451 0.7963 0.26215 0.0
H334 H 0.67546 0.70825 0.22019 0.0
H335 H 0.70829 0.67402 0.22471 0.0
H336 H 0.79125 0.66459 0.27923 0.0
H337 H 0.77964 0.75203 0.32284 0.0
H338 H 0.74618 0.78597 0.31921 0.0
H339 H 0.70831 0.54009 0.1476 0.0
H340 H 0.70206 0.54504 0.18836 0.0
H341 H 0.73211 0.52857 0.17613 0.0
C342 C 0.39775 0.86413 0.12559 0.0
C343 C 0.3944 0.83428 0.11869 0.0
C344 C 0.34969 0.82108 0.13584 0.0
C345 C 0.35619 0.80472 0.16119 0.0
C346 C 0.33709 0.79828 0.1837 0.0
C347 C 0.31099 0.80856 0.181 0.0
C348 C 0.30414 0.82446 0.1551 0.0
C349 C 0.32353 0.83012 0.13255 0.0
C350 C 0.34496 0.78086 0.21075 0.0
C351 C 0.27659 0.83606 0.15171 0.0
C352 C 0.2632 0.93425 0.38376 0.0
C353 C 0.25932 0.91861 0.35482 0.0
C354 C 0.27804 0.88052 0.32722 0.0
C355 C 0.25786 0.87964 0.30462 0.0
C356 C 0.25758 0.85971 0.28187 0.0
C357 C 0.27757 0.83985 0.28203 0.0
C358 C 0.29788 0.84056 0.30476 0.0
C359 C 0.29791 0.86104 0.32698 0.0
C360 C 0.23586 0.85998 0.25761 0.0
C361 C 0.3194 0.81963 0.30566 0.0
C362 C 0.14826 0.73051 0.33872 0.0
C363 C 0.14551 0.7525 0.31904 0.0
C364 C 0.16069 0.75455 0.29184 0.0
C365 C 0.17992 0.73471 0.28504 0.0
C366 C 0.1822 0.71212 0.30456 0.0
C367 C 0.16589 0.71009 0.33092 0.0
C368 C 0.15647 0.77823 0.27082 0.0
C369 C 0.20229 0.69049 0.29804 0.0
C370 C 0.18279 0.66167 0.04287 0.0
C371 C 0.19377 0.65814 0.07586 0.0
C372 C 0.18636 0.6847 0.12261 0.0
C373 C 0.17536 0.70952 0.12956 0.0
C374 C 0.18323 0.72366 0.15609 0.0
C375 C 0.20222 0.71236 0.17647 0.0
C376 C 0.21296 0.68692 0.16995 0.0
C377 C 0.20484 0.67329 0.14308 0.0
C378 C 0.17115 0.75065 0.16243 0.0
C379 C 0.23274 0.67405 0.1916 0.0
C380 C 0.29177 0.80453 0.20673 0.0
C381 C 0.29363 0.82173 0.23215 0.0
C382 C 0.27718 0.81867 0.25799 0.0
C383 C 0.25888 0.79734 0.25911 0.0
C384 C 0.24345 0.79253 0.28571 0.0
C385 C 0.22436 0.7725 0.28596 0.0
C386 C 0.21939 0.75709 0.2593 0.0
C387 C 0.19844 0.73826 0.25844 0.0
C388 C 0.19393 0.72351 0.23143 0.0
C389 C 0.20992 0.72686 0.20514 0.0
C390 C 0.23128 0.74524 0.20575 0.0
C391 C 0.24814 0.74876 0.17999 0.0
C392 C 0.2685 0.76764 0.18052 0.0
C393 C 0.2722 0.78424 0.20645 0.0
C394 C 0.25572 0.78066 0.23284 0.0
C395 C 0.2356 0.76081 0.23272 0.0
C396 C 0.15755 0.73461 0.41173 0.0
C397 C 0.13651 0.74659 0.38975 0.0
O398 O 0.3678 0.82806 0.11383 0.0
O399 O 0.1779 0.67192 0.09668 0.0
O400 O 0.13401 0.72874 0.36535 0.0
O401 O 0.27887 0.89962 0.3496 0.0
H402 H 0.40189 0.82492 0.14023 0.0
H403 H 0.38731 0.86913 0.14757 0.0
H404 H 0.38946 0.87707 0.1072 0.0
H405 H 0.41918 0.86899 0.12856 0.0
H406 H 0.37598 0.79665 0.16358 0.0
H407 H 0.31857 0.8424 0.1127 0.0
H408 H 0.34502 0.79292 0.23234 0.0
H409 H 0.36503 0.77194 0.20768 0.0
H410 H 0.33022 0.76459 0.21384 0.0
H411 H 0.27465 0.84865 0.13063 0.0
H412 H 0.2717 0.84832 0.1724 0.0
H413 H 0.26171 0.81976 0.15042 0.0
H414 H 0.25513 0.93092 0.33382 0.0
H415 H 0.26679 0.95529 0.37581 0.0
H416 H 0.28436 0.93076 0.39143 0.0
H417 H 0.23069 0.92372 0.4106 0.0
H418 H 0.24227 0.89451 0.30444 0.0
H419 H 0.31337 0.86181 0.34451 0.0
H420 H 0.22213 0.84302 0.26166 0.0
H421 H 0.24451 0.85759 0.23406 0.0
H422 H 0.22404 0.87868 0.25816 0.0
H423 H 0.33224 0.82151 0.32654 0.0
H424 H 0.33209 0.82148 0.28468 0.0
H425 H 0.31037 0.79944 0.30535 0.0
H426 H 0.14376 0.76613 0.38101 0.0
H427 H 0.13143 0.76804 0.32496 0.0
H428 H 0.16756 0.69304 0.34622 0.0
H429 H 0.17211 0.79332 0.2754 0.0
H430 H 0.1368 0.78775 0.27489 0.0
H431 H 0.15783 0.77234 0.24603 0.0
H432 H 0.20316 0.67546 0.31694 0.0
H433 H 0.2224 0.69931 0.29499 0.0
H434 H 0.19701 0.6802 0.27609 0.0
H435 H 0.21316 0.66846 0.07449 0.0
H436 H 0.19559 0.65098 0.02591 0.0
H437 H 0.18275 0.68314 0.03661 0.0
H438 H 0.16214 0.6542 0.04054 0.0
H439 H 0.16076 0.71792 0.11384 0.0
H440 H 0.21233 0.6535 0.13866 0.0
H441 H 0.18715 0.76576 0.16489 0.0
H442 H 0.16 0.75008 0.18468 0.0
H443 H 0.15736 0.75707 0.14372 0.0
H444 H 0.2395 0.65428 0.18308 0.0
H445 H 0.22361 0.67154 0.21488 0.0
H446 H 0.25036 0.68718 0.19437 0.0
H447 H 0.30785 0.83801 0.23159 0.0
H448 H 0.24595 0.80425 0.30661 0.0
H449 H 0.21313 0.76969 0.30715 0.0
H450 H 0.17733 0.7097 0.2306 0.0
H451 H 0.24577 0.73697 0.15914 0.0
H452 H 0.28089 0.76952 0.16008 0.0
H453 H 0.15022 0.71551 0.42157 0.0
H454 H 0.16291 0.74802 0.43111 0.0
H455 H 0.17619 0.73053 0.39869 0.0
C456 C 0.11381 0.6158 0.63245 0.0
C457 C 0.1182 0.64595 0.63525 0.0
C458 C 0.16052 0.66434 0.65363 0.0
C459 C 0.15161 0.68681 0.6699 0.0
C460 C 0.1676 0.69872 0.69276 0.0
C461 C 0.19307 0.68801 0.69913 0.0
C462 C 0.20254 0.66607 0.68169 0.0
C463 C 0.18618 0.65471 0.65887 0.0
C464 C 0.15721 0.72254 0.71033 0.0
C465 C 0.22966 0.65421 0.68772 0.0
C466 C 0.16026 0.6432 0.93641 0.0
C467 C 0.18022 0.63855 0.90999 0.0
C468 C 0.19739 0.66985 0.87168 0.0
C469 C 0.21321 0.65358 0.85275 0.0
C470 C 0.22024 0.66173 0.82268 0.0
C471 C 0.21143 0.68675 0.81161 0.0
C472 C 0.19568 0.70328 0.83087 0.0
C473 C 0.18914 0.6947 0.86087 0.0
C474 C 0.23753 0.64392 0.80296 0.0
C475 C 0.18594 0.73009 0.81985 0.0
C476 C 0.3635 0.77606 0.83622 0.0
C477 C 0.36407 0.75275 0.81837 0.0
C478 C 0.34657 0.74935 0.79336 0.0
C479 C 0.32767 0.76947 0.78662 0.0
C480 C 0.32763 0.79339 0.80406 0.0
C481 C 0.34595 0.79654 0.8284 0.0
C482 C 0.34806 0.72406 0.77448 0.0
C483 C 0.30783 0.81528 0.79754 0.0
C484 C 0.27086 0.8452 0.56533 0.0
C485 C 0.28566 0.85895 0.59212 0.0
C486 C 0.30001 0.82524 0.63033 0.0
C487 C 0.31657 0.80298 0.63311 0.0
C488 C 0.31412 0.78532 0.65822 0.0
C489 C 0.29488 0.7904 0.68143 0.0
C490 C 0.27832 0.81309 0.6791 0.0
C491 C 0.28095 0.83019 0.65358 0.0
C492 C 0.33214 0.76135 0.66007 0.0
C493 C 0.25815 0.81965 0.70399 0.0
C494 C 0.20921 0.69856 0.72523 0.0
C495 C 0.20389 0.68873 0.75495 0.0
C496 C 0.21941 0.69623 0.78037 0.0
C497 C 0.24147 0.71329 0.77604 0.0
C498 C 0.25845 0.71994 0.8008 0.0
C499 C 0.28011 0.73672 0.7963 0.0
C500 C 0.28536 0.74787 0.76699 0.0
C501 C 0.30739 0.7649 0.76215 0.0
C502 C 0.31062 0.77755 0.73353 0.0
C503 C 0.29283 0.77301 0.70915 0.0
C504 C 0.27214 0.75415 0.71267 0.0
C505 C 0.25526 0.74739 0.68784 0.0
C506 C 0.23481 0.72892 0.69173 0.0
C507 C 0.23006 0.71712 0.72081 0.0
C508 C 0.24654 0.72408 0.74624 0.0
C509 C 0.26809 0.74196 0.74193 0.0
C510 C 0.3639 0.7725 0.91152 0.0
C511 C 0.38141 0.76111 0.88538 0.0
O512 O 0.14508 0.65176 0.63237 0.0
O513 O 0.30383 0.84164 0.60554 0.0
O514 O 0.37978 0.77913 0.86107 0.0
O515 O 0.19087 0.66276 0.90102 0.0
H516 H 0.11203 0.64985 0.65939 0.0
H517 H 0.12595 0.60525 0.65015 0.0
H518 H 0.11935 0.60792 0.60932 0.0
H519 H 0.09253 0.61098 0.6367 0.0
H520 H 0.13237 0.6952 0.66452 0.0
H521 H 0.19305 0.63767 0.64565 0.0
H522 H 0.15426 0.7171 0.73506 0.0
H523 H 0.13799 0.72987 0.70084 0.0
H524 H 0.17202 0.73895 0.70956 0.0
H525 H 0.23387 0.63684 0.67252 0.0
H526 H 0.23111 0.64777 0.71232 0.0
H527 H 0.24524 0.66953 0.68382 0.0
H528 H 0.16737 0.63109 0.89104 0.0
H529 H 0.14385 0.65626 0.92819 0.0
H530 H 0.16967 0.65299 0.95671 0.0
H531 H 0.15147 0.62396 0.94399 0.0
H532 H 0.22074 0.63496 0.86174 0.0
H533 H 0.1773 0.70726 0.87597 0.0
H534 H 0.22692 0.63884 0.78115 0.0
H535 H 0.24299 0.62517 0.81508 0.0
H536 H 0.25605 0.65465 0.79647 0.0
H537 H 0.17229 0.73967 0.8368 0.0
H538 H 0.17539 0.72792 0.79733 0.0
H539 H 0.20321 0.74348 0.81599 0.0
H540 H 0.37314 0.74152 0.87824 0.0
H541 H 0.37828 0.73725 0.82396 0.0
H542 H 0.346 0.8146 0.84217 0.0
H543 H 0.3309 0.71109 0.78039 0.0
H544 H 0.36667 0.71277 0.77907 0.0
H545 H 0.34692 0.72861 0.7493 0.0
H546 H 0.30875 0.83147 0.8151 0.0
H547 H 0.28731 0.80705 0.79711 0.0
H548 H 0.31189 0.82398 0.77434 0.0
H549 H 0.26934 0.86412 0.60822 0.0
H550 H 0.25775 0.85967 0.55321 0.0
H551 H 0.25814 0.82901 0.57477 0.0
H552 H 0.28449 0.83607 0.54818 0.0
H553 H 0.33141 0.79939 0.61533 0.0
H554 H 0.26846 0.84763 0.65284 0.0
H555 H 0.32015 0.74306 0.66393 0.0
H556 H 0.34579 0.76357 0.68017 0.0
H557 H 0.34426 0.75876 0.63871 0.0
H558 H 0.24822 0.83911 0.69998 0.0
H559 H 0.26796 0.82015 0.72709 0.0
H560 H 0.24266 0.80391 0.70471 0.0
H561 H 0.18741 0.67505 0.75834 0.0
H562 H 0.25533 0.71204 0.82389 0.0
H563 H 0.29253 0.74108 0.8162 0.0
H564 H 0.3269 0.7915 0.73038 0.0
H565 H 0.25791 0.75608 0.66505 0.0
H566 H 0.22254 0.72427 0.6718 0.0
H567 H 0.37233 0.7916 0.92009 0.0
H568 H 0.36183 0.75869 0.9314 0.0
H569 H 0.34353 0.77641 0.90256 0.0
C570 C 0.15266 0.38462 0.89965 0.0
C571 C 0.18315 0.38429 0.90352 0.0
C572 C 0.19835 0.3584 0.85802 0.0
C573 C 0.18921 0.33335 0.86807 0.0
C574 C 0.19119 0.31088 0.8488 0.0
C575 C 0.20242 0.31345 0.81884 0.0
C576 C 0.21226 0.33842 0.80896 0.0
C577 C 0.21017 0.36054 0.82876 0.0
C578 C 0.18072 0.28445 0.86018 0.0
C579 C 0.22447 0.34183 0.77722 0.0
C580 C 0.05058 0.22179 0.66448 0.0
C581 C 0.07674 0.23749 0.66481 0.0
C582 C 0.1034 0.25341 0.70852 0.0
C583 C 0.12549 0.26444 0.69339 0.0
C584 C 0.14924 0.26931 0.70966 0.0
C585 C 0.15092 0.26253 0.74153 0.0
C586 C 0.12837 0.25193 0.75688 0.0
C587 C 0.10475 0.24796 0.74022 0.0
C588 C 0.17251 0.28162 0.69282 0.0
C589 C 0.12921 0.24464 0.79085 0.0
C590 C 0.25336 0.12907 0.68019 0.0
C591 C 0.26526 0.15359 0.67305 0.0
C592 C 0.26809 0.17336 0.69579 0.0
C593 C 0.25909 0.16833 0.72634 0.0
C594 C 0.24845 0.1431 0.734 0.0
C595 C 0.24591 0.12365 0.71077 0.0
C596 C 0.28018 0.19983 0.68704 0.0
C597 C 0.23905 0.13702 0.76648 0.0
C598 C 0.39514 0.24995 0.87986 0.0
C599 C 0.3864 0.22105 0.88567 0.0
C600 C 0.35676 0.21141 0.84271 0.0
C601 C 0.35716 0.22017 0.812 0.0
C602 C 0.33353 0.22242 0.79487 0.0
C603 C 0.30908 0.21475 0.80858 0.0
C604 C 0.30866 0.20563 0.8397 0.0
C605 C 0.33256 0.20435 0.85656 0.0
C606 C 0.33486 0.23238 0.76186 0.0
C607 C 0.28318 0.19636 0.85479 0.0
C608 C 0.20188 0.29053 0.79705 0.0
C609 C 0.17912 0.28735 0.77872 0.0
C610 C 0.17638 0.26565 0.75868 0.0
C611 C 0.19703 0.24662 0.75647 0.0
C612 C 0.19481 0.22443 0.73673 0.0
C613 C 0.2153 0.20597 0.73436 0.0
C614 C 0.23861 0.20867 0.75213 0.0
C615 C 0.25958 0.19003 0.7497 0.0
C616 C 0.28199 0.19256 0.76857 0.0
C617 C 0.28452 0.21377 0.78943 0.0
C618 C 0.26419 0.23325 0.79137 0.0
C619 C 0.2664 0.25541 0.81118 0.0
C620 C 0.24606 0.27426 0.81309 0.0
C621 C 0.22282 0.27171 0.79512 0.0
C622 C 0.22033 0.24969 0.77472 0.0
C623 C 0.24104 0.23051 0.77279 0.0
C624 C 0.20956 0.10708 0.62949 0.0
C625 C 0.2391 0.11502 0.62866 0.0
O626 O 0.19603 0.38101 0.87531 0.0
O627 O 0.38014 0.20858 0.85799 0.0
O628 O 0.24909 0.1102 0.65815 0.0
O629 O 0.08004 0.249 0.69373 0.0
H630 H 0.1869 0.36683 0.91857 0.0
H631 H 0.14548 0.36475 0.89211 0.0
H632 H 0.14575 0.39922 0.88221 0.0
H633 H 0.143 0.38926 0.92222 0.0
H634 H 0.1802 0.33105 0.89067 0.0
H635 H 0.21733 0.37984 0.82121 0.0
H636 H 0.16352 0.2783 0.84571 0.0
H637 H 0.17423 0.28526 0.88481 0.0
H638 H 0.19632 0.26891 0.85777 0.0
H639 H 0.23229 0.36227 0.77351 0.0
H640 H 0.2093 0.33753 0.75916 0.0
H641 H 0.24097 0.32735 0.77409 0.0
H642 H 0.0921 0.22185 0.66204 0.0
H643 H 0.04807 0.2115 0.64182 0.0
H644 H 0.03314 0.23491 0.66841 0.0
H645 H 0.05087 0.20645 0.68306 0.0
H646 H 0.12403 0.26987 0.66918 0.0
H647 H 0.0873 0.23999 0.75174 0.0
H648 H 0.18085 0.29837 0.70657 0.0
H649 H 0.16688 0.28908 0.66945 0.0
H650 H 0.18848 0.26653 0.69001 0.0
H651 H 0.11112 0.23362 0.7983 0.0
H652 H 0.13076 0.26309 0.80491 0.0
H653 H 0.14699 0.23223 0.7959 0.0
H654 H 0.24026 0.13655 0.62315 0.0
H655 H 0.2724 0.15733 0.64974 0.0
H656 H 0.23728 0.10442 0.71616 0.0
H657 H 0.26509 0.21581 0.68982 0.0
H658 H 0.28752 0.2001 0.66271 0.0
H659 H 0.29702 0.20452 0.70281 0.0
H660 H 0.23195 0.11617 0.76892 0.0
H661 H 0.22257 0.15073 0.77278 0.0
H662 H 0.25551 0.14045 0.78322 0.0
H663 H 0.3682 0.22317 0.90004 0.0
H664 H 0.40061 0.25963 0.90216 0.0
H665 H 0.37843 0.26138 0.86948 0.0
H666 H 0.41232 0.25128 0.86382 0.0
H667 H 0.37609 0.22534 0.80153 0.0
H668 H 0.33249 0.19693 0.88015 0.0
H669 H 0.31844 0.24663 0.75718 0.0
H670 H 0.33255 0.21529 0.74575 0.0
H671 H 0.35415 0.24228 0.75676 0.0
H672 H 0.28662 0.1878 0.87822 0.0
H673 H 0.27338 0.18108 0.84005 0.0
H674 H 0.26922 0.21337 0.85704 0.0
H675 H 0.16305 0.30172 0.78053 0.0
H676 H 0.17726 0.2211 0.72269 0.0
H677 H 0.21252 0.18944 0.71857 0.0
H678 H 0.29785 0.17797 0.76674 0.0
H679 H 0.28388 0.25839 0.82547 0.0
H680 H 0.24876 0.29086 0.82882 0.0
H681 H 0.20756 0.08539 0.6341 0.0
H682 H 0.19915 0.1118 0.60751 0.0
H683 H 0.19926 0.11811 0.64835 0.0
C684 C 0.89664 0.37582 0.63411 0.0
C685 C 0.89552 0.34559 0.62857 0.0
C686 C 0.85143 0.3298 0.64496 0.0
C687 C 0.8585 0.31551 0.67178 0.0
C688 C 0.83935 0.30884 0.69413 0.0
C689 C 0.81262 0.31683 0.68979 0.0
C690 C 0.80521 0.3303 0.66229 0.0
C691 C 0.82471 0.33624 0.63998 0.0
C692 C 0.84784 0.29384 0.72283 0.0
C693 C 0.77689 0.33921 0.657 0.0
C694 C 0.77092 0.4521 0.88415 0.0
C695 C 0.76641 0.43676 0.85509 0.0
C696 C 0.78145 0.39555 0.83038 0.0
C697 C 0.76172 0.39548 0.80723 0.0
C698 C 0.75998 0.37447 0.78585 0.0
C699 C 0.77815 0.353 0.78784 0.0
C700 C 0.79787 0.35291 0.81126 0.0
C701 C 0.79932 0.3743 0.83215 0.0
C702 C 0.73882 0.37528 0.76098 0.0
C703 C 0.81748 0.33029 0.8141 0.0
C704 C 0.64881 0.24245 0.84967 0.0
C705 C 0.64585 0.26204 0.82684 0.0
C706 C 0.66275 0.26268 0.80097 0.0
C707 C 0.68391 0.24408 0.7988 0.0
C708 C 0.68661 0.22397 0.82166 0.0
C709 C 0.66857 0.2231 0.84652 0.0
C710 C 0.65806 0.28347 0.77625 0.0
C711 C 0.7088 0.20374 0.82024 0.0
C712 C 0.74767 0.13205 0.61417 0.0
C713 C 0.72056 0.1245 0.6284 0.0
C714 C 0.70979 0.16613 0.65619 0.0
C715 C 0.69489 0.18956 0.65412 0.0
C716 C 0.69833 0.21035 0.67551 0.0
C717 C 0.71703 0.20749 0.6998 0.0
C718 C 0.73219 0.18384 0.70216 0.0
C719 C 0.72846 0.16339 0.68034 0.0
C720 C 0.68179 0.23529 0.67235 0.0
C721 C 0.75208 0.18005 0.72804 0.0
C722 C 0.7933 0.31366 0.71555 0.0
C723 C 0.79371 0.33298 0.73887 0.0
C724 C 0.77705 0.33116 0.76468 0.0
C725 C 0.7594 0.3094 0.76754 0.0
C726 C 0.74296 0.30653 0.7937 0.0
C727 C 0.72509 0.28548 0.7959 0.0
C728 C 0.72266 0.26672 0.7718 0.0
C729 C 0.70351 0.24609 0.77308 0.0
C730 C 0.70223 0.22733 0.74918 0.0
C731 C 0.71956 0.22851 0.72385 0.0
C732 C 0.73845 0.24935 0.72177 0.0
C733 C 0.75591 0.25146 0.69636 0.0
C734 C 0.77411 0.27236 0.69436 0.0
C735 C 0.77536 0.29201 0.71758 0.0
C736 C 0.75823 0.29 0.74364 0.0
C737 C 0.73981 0.26864 0.74576 0.0
C738 C 0.65389 0.25688 0.92025 0.0
C739 C 0.63152 0.26242 0.89654 0.0
O740 O 0.86957 0.33733 0.62321 0.0
O741 O 0.70528 0.14686 0.6346 0.0
O742 O 0.63277 0.24195 0.87496 0.0
O743 O 0.78378 0.41551 0.85153 0.0
H744 H 0.90317 0.33756 0.65075 0.0
H745 H 0.88566 0.38077 0.65574 0.0
H746 H 0.88759 0.38752 0.61511 0.0
H747 H 0.91763 0.38233 0.63708 0.0
H748 H 0.87879 0.30932 0.67558 0.0
H749 H 0.81933 0.34685 0.619 0.0
H750 H 0.84715 0.30743 0.74313 0.0
H751 H 0.86837 0.28579 0.72077 0.0
H752 H 0.83394 0.27712 0.72746 0.0
H753 H 0.77431 0.34937 0.63429 0.0
H754 H 0.77077 0.35308 0.67578 0.0
H755 H 0.76335 0.32177 0.6579 0.0
H756 H 0.76473 0.44909 0.83364 0.0
H757 H 0.77742 0.47245 0.87625 0.0
H758 H 0.79111 0.44616 0.89317 0.0
H759 H 0.73626 0.44597 0.90904 0.0
H760 H 0.74773 0.4118 0.80556 0.0
H761 H 0.8144 0.37448 0.85015 0.0
H762 H 0.72513 0.35811 0.76387 0.0
H763 H 0.74819 0.37349 0.73773 0.0
H764 H 0.72694 0.39393 0.76173 0.0
H765 H 0.83003 0.332 0.83524 0.0
H766 H 0.83069 0.3301 0.79345 0.0
H767 H 0.80675 0.31096 0.81471 0.0
H768 H 0.63522 0.28197 0.88519 0.0
H769 H 0.6302 0.27675 0.82915 0.0
H770 H 0.67042 0.2079 0.86424 0.0
H771 H 0.67201 0.30033 0.77981 0.0
H772 H 0.63745 0.29147 0.77721 0.0
H773 H 0.66165 0.27517 0.75273 0.0
H774 H 0.71027 0.19183 0.8419 0.0
H775 H 0.72817 0.21378 0.81608 0.0
H776 H 0.7052 0.1899 0.80059 0.0
H777 H 0.72551 0.11432 0.65044 0.0
H778 H 0.75872 0.11376 0.60742 0.0
H779 H 0.76003 0.14292 0.63135 0.0
H780 H 0.74563 0.14497 0.59349 0.0
H781 H 0.68052 0.19151 0.6355 0.0
H782 H 0.74001 0.14534 0.68264 0.0
H783 H 0.69499 0.25302 0.67152 0.0
H784 H 0.66872 0.23745 0.69298 0.0
H785 H 0.66916 0.23505 0.65119 0.0
H786 H 0.76262 0.16064 0.72648 0.0
H787 H 0.74175 0.1812 0.75078 0.0
H788 H 0.76705 0.19631 0.72742 0.0
H789 H 0.80731 0.34971 0.73695 0.0
H790 H 0.74368 0.32059 0.81275 0.0
H791 H 0.71301 0.28427 0.81666 0.0
H792 H 0.68743 0.2116 0.75025 0.0
H793 H 0.75561 0.23704 0.67768 0.0
H794 H 0.78704 0.27308 0.67427 0.0
H795 H 0.64926 0.23869 0.93392 0.0
H796 H 0.65734 0.27364 0.9364 0.0
H797 H 0.67304 0.25356 0.90795 0.0
C798 C 0.83229 0.60292 0.84754 0.0
C799 C 0.83667 0.62093 0.87617 0.0
C800 C 0.81511 0.66127 0.85921 0.0
C801 C 0.83243 0.68237 0.86554 0.0
C802 C 0.83308 0.70491 0.84633 0.0
C803 C 0.81669 0.70583 0.81955 0.0
C804 C 0.7989 0.68454 0.81338 0.0
C805 C 0.79784 0.66282 0.83388 0.0
C806 C 0.85191 0.72733 0.85424 0.0
C807 C 0.78178 0.68411 0.78459 0.0
C808 C 0.9916 0.71949 0.69219 0.0
C809 C 0.96197 0.72313 0.68472 0.0
C810 C 0.92605 0.74426 0.71478 0.0
C811 C 0.90467 0.73021 0.70162 0.0
C812 C 0.87911 0.73158 0.71477 0.0
C813 C 0.87491 0.74738 0.74152 0.0
C814 C 0.89627 0.76216 0.75424 0.0
C815 C 0.92151 0.76057 0.74048 0.0
C816 C 0.85663 0.71603 0.70029 0.0
C817 C 0.89254 0.77926 0.78274 0.0
C818 C 0.78451 0.88929 0.66825 0.0
C819 C 0.77348 0.86439 0.66064 0.0
C820 C 0.76921 0.84502 0.68361 0.0
C821 C 0.77632 0.85054 0.71473 0.0
C822 C 0.78696 0.87574 0.72254 0.0
C823 C 0.7906 0.89488 0.69921 0.0
C824 C 0.75703 0.81863 0.67464 0.0
C825 C 0.79469 0.88234 0.75549 0.0
C826 C 0.6605 0.79164 0.89788 0.0
C827 C 0.64988 0.81846 0.88567 0.0
C828 C 0.67503 0.81897 0.83671 0.0
C829 C 0.67342 0.80909 0.80648 0.0
C830 C 0.69627 0.80624 0.78802 0.0
C831 C 0.72129 0.81423 0.79989 0.0
C832 C 0.72294 0.82521 0.83011 0.0
C833 C 0.69984 0.82722 0.84834 0.0
C834 C 0.69368 0.7945 0.75592 0.0
C835 C 0.74911 0.83489 0.84314 0.0
C836 C 0.82013 0.72773 0.79665 0.0
C837 C 0.84333 0.72754 0.77871 0.0
C838 C 0.84856 0.74761 0.75715 0.0
C839 C 0.82971 0.76807 0.75231 0.0
C840 C 0.83399 0.78807 0.73006 0.0
C841 C 0.81544 0.80828 0.72564 0.0
C842 C 0.79195 0.80933 0.74337 0.0
C843 C 0.77299 0.8298 0.73899 0.0
C844 C 0.75025 0.83074 0.75766 0.0
C845 C 0.74565 0.81153 0.78054 0.0
C846 C 0.76408 0.79048 0.78474 0.0
C847 C 0.7599 0.7705 0.8071 0.0
C848 C 0.77831 0.75006 0.81127 0.0
C849 C 0.80141 0.74857 0.79292 0.0
C850 C 0.8061 0.76862 0.77037 0.0
C851 C 0.78734 0.78947 0.76614 0.0
C852 C 0.82498 0.90739 0.61077 0.0
C853 C 0.79471 0.90633 0.61575 0.0
O854 O 0.8156 0.63882 0.8767 0.0
O855 O 0.65223 0.82036 0.85368 0.0
O856 O 0.78858 0.90889 0.647 0.0
O857 O 0.95128 0.74277 0.70356 0.0
H858 H 0.85584 0.63183 0.87357 0.0
H859 H 0.82984 0.61527 0.82636 0.0
H860 H 0.81399 0.59075 0.85059 0.0
H861 H 0.84922 0.58946 0.84279 0.0
H862 H 0.84565 0.68107 0.88534 0.0
H863 H 0.78451 0.64631 0.82933 0.0
H864 H 0.86983 0.7259 0.83925 0.0
H865 H 0.85849 0.72643 0.87883 0.0
H866 H 0.84242 0.74696 0.84994 0.0
H867 H 0.77249 0.66431 0.78069 0.0
H868 H 0.79374 0.68942 0.76381 0.0
H869 H 0.76563 0.69905 0.78688 0.0
H870 H 0.95323 0.70409 0.69222 0.0
H871 H 0.99978 0.7025 0.67868 0.0
H872 H 0.99412 0.71498 0.71726 0.0
H873 H 0.00348 0.73749 0.68674 0.0
H874 H 0.90776 0.7183 0.68107 0.0
H875 H 0.93807 0.7716 0.75021 0.0
H876 H 0.84966 0.70055 0.7168 0.0
H877 H 0.86267 0.70615 0.67831 0.0
H878 H 0.83956 0.72947 0.69552 0.0
H879 H 0.91137 0.78889 0.79029 0.0
H880 H 0.88476 0.76697 0.80213 0.0
H881 H 0.87762 0.79503 0.77789 0.0
H882 H 0.78972 0.88624 0.60718 0.0
H883 H 0.76757 0.85999 0.63712 0.0
H884 H 0.79868 0.91428 0.70496 0.0
H885 H 0.77187 0.80252 0.67805 0.0
H886 H 0.75035 0.81828 0.65007 0.0
H887 H 0.73973 0.81419 0.68983 0.0
H888 H 0.80406 0.90231 0.75748 0.0
H889 H 0.80882 0.86715 0.76443 0.0
H890 H 0.77674 0.88183 0.77052 0.0
H891 H 0.66282 0.83359 0.89663 0.0
H892 H 0.65686 0.79005 0.92325 0.0
H893 H 0.68231 0.79024 0.89411 0.0
H894 H 0.6511 0.77437 0.88623 0.0
H895 H 0.65416 0.803 0.79761 0.0
H896 H 0.70131 0.83552 0.87143 0.0
H897 H 0.70816 0.77798 0.75286 0.0
H898 H 0.69841 0.80997 0.73836 0.0
H899 H 0.67332 0.78682 0.75131 0.0
H900 H 0.74655 0.84576 0.8654 0.0
H901 H 0.75913 0.84825 0.82624 0.0
H902 H 0.76245 0.81764 0.84724 0.0
H903 H 0.85784 0.71178 0.78204 0.0
H904 H 0.8517 0.78826 0.71574 0.0
H905 H 0.81983 0.82315 0.70818 0.0
H906 H 0.73595 0.84668 0.75436 0.0
H907 H 0.74236 0.77046 0.8217 0.0
H908 H 0.7742 0.73541 0.82906 0.0
H909 H 0.82963 0.90508 0.5857 0.0
H910 H 0.83457 0.8907 0.62348 0.0
H911 H 0.83411 0.92615 0.61902 0.0
C912 C 0.98078 0.32722 0.54018 0.0
C913 C 0.05698 0.32785 0.47011 0.0
O914 O 0.99313 0.34751 0.52995 0.0
Zn915 Zn 0.01942 0.32818 0.50599 0.0
O916 O 0.98859 0.30382 0.53261 0.0
Zn917 Zn 0.01978 0.286 0.50581 0.0
O918 O 0.03961 0.26709 0.53689 0.0
O919 O 0.04309 0.31052 0.5422 0.0
O920 O 0.04954 0.30424 0.47732 0.0
O921 O 0.04498 0.34787 0.4815 0.0
O922 O 0.99493 0.30936 0.47105 0.0
O923 O 0.99958 0.26572 0.47626 0.0
C924 C 0.0486 0.28701 0.55173 0.0
C925 C 0.98924 0.28555 0.46246 0.0
C926 C 0.69905 0.04284 0.54074 0.0
C927 C 0.69973 0.97659 0.45788 0.0
O928 O 0.72176 0.04061 0.52742 0.0
Zn929 Zn 0.73958 0.01753 0.49065 0.0
O930 O 0.67957 0.02835 0.53228 0.0
Zn931 Zn 0.69864 0.01016 0.49947 0.0
O932 O 0.72609 0.98646 0.52602 0.0
O933 O 0.76693 0.99843 0.51271 0.0
O934 O 0.68005 0.98434 0.47403 0.0
O935 O 0.72262 0.98728 0.46191 0.0
O936 O 0.75001 0.0453 0.46212 0.0
O937 O 0.70651 0.0434 0.4694 0.0
C938 C 0.75139 0.98413 0.52895 0.0
C939 C 0.72691 0.05488 0.45759 0.0
C940 C 0.98061 0.7343 0.55561 0.0
C941 C 0.04523 0.73891 0.47134 0.0
O942 O 0.99237 0.75464 0.54467 0.0
Zn943 Zn 0.01151 0.73675 0.51241 0.0
O944 O 0.98544 0.71142 0.54344 0.0
Zn945 Zn 0.00926 0.69542 0.50566 0.0
O946 O 0.03134 0.67069 0.52759 0.0
O947 O 0.03881 0.71289 0.53991 0.0
O948 O 0.03805 0.71488 0.47674 0.0
O949 O 0.03412 0.75783 0.48594 0.0
O950 O 0.97971 0.7245 0.48251 0.0
O951 O 0.98356 0.68108 0.47692 0.0
C952 C 0.04391 0.68801 0.54332 0.0
C953 C 0.97148 0.70261 0.47066 0.0
C954 C 0.26773 0.03354 0.54158 0.0
C955 C 0.25715 0.96842 0.45973 0.0
O956 O 0.29045 0.02596 0.53128 0.0
Zn957 Zn 0.30441 0.99677 0.49827 0.0
O958 O 0.24667 0.02255 0.53162 0.0
Zn959 Zn 0.26271 0.99943 0.50171 0.0
O960 O 0.28012 0.96769 0.5281 0.0
O961 O 0.32369 0.97089 0.52268 0.0
O962 O 0.23919 0.98063 0.47477 0.0
O963 O 0.28182 0.97221 0.46607 0.0
O964 O 0.32439 0.01891 0.47016 0.0
O965 O 0.28099 0.02662 0.46951 0.0
C966 C 0.30358 0.95894 0.53381 0.0
C967 C 0.30452 0.03179 0.45977 0.0
C968 C 0.47632 0.81517 0.02613 0.0
C969 C 0.54969 0.81707 0.9515 0.0
O970 O 0.48749 0.83563 0.01453 0.0
Zn971 Zn 0.51239 0.8166 0.98844 0.0
O972 O 0.48451 0.79188 0.01851 0.0
Zn973 Zn 0.51542 0.77481 0.98997 0.0
O974 O 0.53676 0.75738 0.02056 0.0
O975 O 0.53936 0.80119 0.02325 0.0
O976 O 0.54443 0.79349 0.96101 0.0
O977 O 0.53529 0.83639 0.96044 0.0
O978 O 0.4853 0.79558 0.95814 0.0
O979 O 0.49554 0.75294 0.96176 0.0
C980 C 0.54602 0.77815 0.03349 0.0
C981 C 0.48109 0.77127 0.95044 0.0
C982 C 0.20566 0.54847 0.05725 0.0
C983 C 0.20372 0.47673 0.98065 0.0
O984 O 0.22793 0.54489 0.0433 0.0
Zn985 Zn 0.24489 0.51907 0.00879 0.0
O986 O 0.18613 0.53355 0.05017 0.0
Zn987 Zn 0.2041 0.51213 0.01936 0.0
O988 O 0.23184 0.48966 0.04659 0.0
O989 O 0.27241 0.50068 0.03131 0.0
O990 O 0.18456 0.48497 0.99731 0.0
O991 O 0.22671 0.4876 0.98276 0.0
O992 O 0.25492 0.54464 0.97736 0.0
O993 O 0.21139 0.54155 0.9845 0.0
C994 C 0.25716 0.48719 0.04881 0.0
C995 C 0.23141 0.55219 0.97094 0.0
C996 C 0.53876 0.24344 0.97225 0.0
C997 C 0.47301 0.22812 0.05278 0.0
O998 O 0.52506 0.26039 0.98715 0.0
Zn999 Zn 0.50479 0.23555 0.01105 0.0
O1000 O 0.53454 0.21844 0.97621 0.0
Zn1001 Zn 0.50835 0.19417 0.00442 0.0
O1002 O 0.48559 0.17602 0.97493 0.0
O1003 O 0.47751 0.21917 0.97812 0.0
O1004 O 0.48127 0.20622 0.04091 0.0
O1005 O 0.48164 0.24998 0.04191 0.0
O1006 O 0.53469 0.21606 0.03908 0.0
O1007 O 0.53341 0.17313 0.02772 0.0
C1008 C 0.47235 0.19628 0.96651 0.0
C1009 C 0.54324 0.19225 0.04329 0.0
C1010 C 0.77504 0.53851 0.05499 0.0
C1011 C 0.76521 0.48675 0.96052 0.0
O1012 O 0.79765 0.52999 0.04552 0.0
Zn1013 Zn 0.8117 0.50611 0.0076 0.0
O1014 O 0.75448 0.53407 0.03874 0.0
Zn1015 Zn 0.77071 0.51349 0.00619 0.0
O1016 O 0.78234 0.47683 0.02901 0.0
O1017 O 0.82628 0.47585 0.029 0.0
O1018 O 0.74757 0.50007 0.9748 0.0
O1019 O 0.78952 0.48705 0.96985 0.0
O1020 O 0.8363 0.52922 0.98669 0.0
O1021 O 0.79444 0.54092 0.9795 0.0
C1022 C 0.80421 0.46512 0.03611 0.0
C1023 C 0.8193 0.54445 0.97407 0.0
C1024 C 0.12418 0.34433 0.43385 0.0
C1025 C 0.12364 0.32665 0.40806 0.0
C1026 C 0.07597 0.31932 0.41755 0.0
C1027 C 0.0787 0.33118 0.44721 0.0
N1028 N 0.10591 0.35475 0.48436 0.0
N1029 N 0.09515 0.30383 0.37051 0.0
C1030 C 0.10279 0.34407 0.45543 0.0
C1031 C 0.09855 0.3163 0.39828 0.0
N1032 N 0.14441 0.36231 0.43687 0.0
N1033 N 0.05165 0.31064 0.40757 0.0
H1034 H 0.10992 0.3016 0.35373 0.0
H1035 H 0.10992 0.3016 0.35373 0.0
H1036 H 0.03419 0.31379 0.42017 0.0
H1037 H 0.04888 0.30136 0.38613 0.0
H1038 H 0.14474 0.37694 0.45402 0.0
H1039 H 0.15874 0.3651 0.41965 0.0
H1040 H 0.12418 0.36154 0.49266 0.0
H1041 H 0.09082 0.35496 0.50096 0.0
C1042 C 0.70022 0.11009 0.40562 0.0
C1043 C 0.70754 0.1328 0.42345 0.0
C1044 C 0.73368 0.10433 0.45835 0.0
C1045 C 0.72345 0.08143 0.44306 0.0
N1046 N 0.69655 0.06208 0.40269 0.0
N1047 N 0.74096 0.15185 0.45735 0.0
C1048 C 0.70689 0.08423 0.41658 0.0
C1049 C 0.72742 0.13005 0.44678 0.0
N1050 N 0.68839 0.11325 0.37726 0.0
N1051 N 0.74727 0.10177 0.48573 0.0
H1052 H 0.73754 0.17111 0.44946 0.0
H1053 H 0.75769 0.15056 0.47155 0.0
H1054 H 0.75214 0.08354 0.49572 0.0
H1055 H 0.75161 0.1178 0.50023 0.0
H1056 H 0.68483 0.09766 0.3619 0.0
H1057 H 0.6852 0.13173 0.36699 0.0
H1058 H 0.68129 0.06254 0.38636 0.0
H1059 H 0.70227 0.04292 0.4089 0.0
C1060 C 0.90434 0.68399 0.43556 0.0
C1061 C 0.89981 0.70591 0.41541 0.0
C1062 C 0.94567 0.72095 0.42537 0.0
C1063 C 0.94758 0.70258 0.45034 0.0
N1064 N 0.92625 0.66902 0.48214 0.0
N1065 N 0.92073 0.74125 0.38496 0.0
C1066 C 0.92639 0.68453 0.45607 0.0
C1067 C 0.92163 0.7231 0.4084 0.0
N1068 N 0.8885 0.66191 0.43397 0.0
N1069 N 0.96688 0.7366 0.41744 0.0
H1070 H 0.90486 0.74361 0.36963 0.0
H1071 H 0.90486 0.74361 0.36963 0.0
H1072 H 0.98544 0.73517 0.42803 0.0
H1073 H 0.96607 0.75056 0.39951 0.0
H1074 H 0.89232 0.64465 0.44664 0.0
H1075 H 0.87421 0.65932 0.41667 0.0
H1076 H 0.90982 0.65767 0.48873 0.0
H1077 H 0.94114 0.66966 0.49897 0.0
C1078 C 0.21832 0.94017 0.37266 0.0
C1079 C 0.23702 0.90827 0.37066 0.0
C1080 C 0.26174 0.91604 0.43606 0.0
C1081 C 0.24975 0.95021 0.43478 0.0
N1082 N 0.2183 0.98722 0.40518 0.0
N1083 N 0.26118 0.86727 0.40522 0.0
C1084 C 0.22754 0.96197 0.40439 0.0
C1085 C 0.2534 0.89298 0.40516 0.0
N1086 N 0.20225 0.94798 0.3493 0.0
N1087 N 0.27623 0.90769 0.46059 0.0
H1088 H 0.25679 0.85509 0.38627 0.0
H1089 H 0.27134 0.85913 0.42405 0.0
H1090 H 0.28046 0.92057 0.47891 0.0
H1091 H 0.28327 0.8882 0.4619 0.0
H1092 H 0.19286 0.96648 0.34962 0.0
H1093 H 0.19893 0.93525 0.33054 0.0
H1094 H 0.2057 0.99439 0.38789 0.0
H1095 H 0.22398 0.00028 0.42277 0.0
C1096 C 0.1066 0.6585 0.57836 0.0
C1097 C 0.10136 0.66105 0.61104 0.0
C1098 C 0.05826 0.68205 0.59842 0.0
C1099 C 0.0639 0.67954 0.56642 0.0
N1100 N 0.09439 0.66798 0.52543 0.0
N1101 N 0.07542 0.68457 0.65043 0.0
C1102 C 0.08839 0.6688 0.55639 0.0
C1103 C 0.07818 0.67557 0.62062 0.0
N1104 N 0.12878 0.64642 0.56676 0.0
N1105 N 0.03335 0.6896 0.60782 0.0
H1106 H 0.08959 0.68252 0.66776 0.0
H1107 H 0.06029 0.69751 0.65723 0.0
H1108 H 0.01823 0.69483 0.59241 0.0
H1109 H 0.02687 0.68826 0.63073 0.0
H1110 H 0.1441 0.63803 0.57974 0.0
H1111 H 0.1441 0.63803 0.57974 0.0
H1112 H 0.11221 0.66013 0.51694 0.0
H1113 H 0.0819 0.67572 0.5083 0.0
C1114 C 0.24503 0.10058 0.57186 0.0
C1115 C 0.2539 0.09927 0.60323 0.0
C1116 C 0.27795 0.05801 0.59141 0.0
C1117 C 0.26566 0.0573 0.56179 0.0
N1118 N 0.24319 0.08134 0.5208 0.0
N1119 N 0.29234 0.08641 0.63337 0.0
C1120 C 0.25115 0.07971 0.55108 0.0
C1121 C 0.2744 0.08078 0.61053 0.0
N1122 N 0.23114 0.12182 0.56074 0.0
N1123 N 0.29242 0.03679 0.60176 0.0
H1124 H 0.29345 0.1052 0.64358 0.0
H1125 H 0.30874 0.07439 0.63823 0.0
H1126 H 0.29631 0.02014 0.58811 0.0
H1127 H 0.29906 0.03514 0.6246 0.0
H1128 H 0.22687 0.13893 0.57355 0.0
H1129 H 0.22687 0.13893 0.57355 0.0
H1130 H 0.23209 0.09733 0.51228 0.0
H1131 H 0.24853 0.06732 0.50404 0.0
C1132 C 0.93351 0.31695 0.60815 0.0
C1133 C 0.91387 0.33657 0.60208 0.0
C1134 C 0.93504 0.34528 0.55159 0.0
C1135 C 0.95744 0.33007 0.56102 0.0
N1136 N 0.97863 0.30237 0.59984 0.0
N1137 N 0.89143 0.36177 0.56145 0.0
C1138 C 0.95676 0.31595 0.5896 0.0
C1139 C 0.91322 0.34851 0.57208 0.0
N1140 N 0.92909 0.29796 0.63025 0.0
N1141 N 0.93401 0.35624 0.52257 0.0
H1142 H 0.87342 0.36311 0.57338 0.0
H1143 H 0.87342 0.36311 0.57338 0.0
H1144 H 0.94868 0.35321 0.50582 0.0
H1145 H 0.918 0.36781 0.51505 0.0
H1146 H 0.94175 0.28182 0.63388 0.0
H1147 H 0.91087 0.29604 0.64154 0.0
H1148 H 0.98021 0.29471 0.62224 0.0
H1149 H 0.99611 0.30064 0.58709 0.0
C1150 C 0.76177 0.9198 0.57326 0.0
C1151 C 0.78012 0.92775 0.59671 0.0
C1152 C 0.77631 0.97403 0.578 0.0
C1153 C 0.76206 0.96488 0.55173 0.0
N1154 N 0.74446 0.9283 0.52185 0.0
N1155 N 0.799 0.9655 0.62524 0.0
C1156 C 0.75565 0.93756 0.54869 0.0
C1157 C 0.78575 0.95553 0.60023 0.0
N1158 N 0.74846 0.89616 0.57563 0.0
N1159 N 0.78062 0.00067 0.58232 0.0
H1160 H 0.80535 0.95437 0.64424 0.0
H1161 H 0.80535 0.95437 0.64424 0.0
H1162 H 0.77331 0.01528 0.56739 0.0
H1163 H 0.79115 0.00817 0.6013 0.0
H1164 H 0.73342 0.89048 0.56036 0.0
H1165 H 0.74928 0.88424 0.59537 0.0
H1166 H 0.74192 0.90809 0.51719 0.0
H1167 H 0.74025 0.94059 0.50296 0.0
C1168 C 0.96663 0.75454 0.63736 0.0
C1169 C 0.95816 0.7294 0.64993 0.0
C1170 C 0.95165 0.71309 0.59634 0.0
C1171 C 0.96501 0.73583 0.58519 0.0
N1172 N 0.96756 0.78315 0.59208 0.0
N1173 N 0.93923 0.6854 0.63956 0.0
C1174 C 0.967 0.75822 0.60471 0.0
C1175 C 0.94912 0.70907 0.62892 0.0
N1176 N 0.97612 0.77451 0.65593 0.0
N1177 N 0.93951 0.69651 0.57552 0.0
H1178 H 0.93206 0.68218 0.66184 0.0
H1179 H 0.9379 0.66841 0.62579 0.0
H1180 H 0.93904 0.7008 0.55181 0.0
H1181 H 0.92714 0.68076 0.58172 0.0
H1182 H 0.98585 0.79119 0.64709 0.0
H1183 H 0.97657 0.7741 0.67999 0.0
H1184 H 0.96661 0.80051 0.6053 0.0
H1185 H 0.96467 0.78637 0.56841 0.0
C1186 C 0.29387 0.90868 0.59865 0.0
C1187 C 0.29937 0.88487 0.58216 0.0
C1188 C 0.3178 0.91108 0.53929 0.0
C1189 C 0.30656 0.93441 0.55261 0.0
N1190 N 0.28598 0.95621 0.59636 0.0
N1191 N 0.32825 0.86491 0.54336 0.0
C1192 C 0.29553 0.93349 0.58295 0.0
C1193 C 0.31512 0.88645 0.55485 0.0
N1194 N 0.28843 0.9075 0.62968 0.0
N1195 N 0.3301 0.91185 0.51102 0.0
H1196 H 0.32915 0.84652 0.55457 0.0
H1197 H 0.32915 0.84652 0.55457 0.0
H1198 H 0.33207 0.92911 0.49784 0.0
H1199 H 0.33793 0.89484 0.50047 0.0
H1200 H 0.28616 0.92422 0.64372 0.0
H1201 H 0.28964 0.88974 0.64213 0.0
H1202 H 0.2746 0.95639 0.61656 0.0
H1203 H 0.28851 0.97495 0.58642 0.0
C1204 C 0.05897 0.28009 0.6374 0.0
C1205 C 0.07689 0.25792 0.63816 0.0
C1206 C 0.0837 0.26266 0.58193 0.0
C1207 C 0.06372 0.28253 0.58105 0.0
N1208 N 0.04094 0.31739 0.60962 0.0
N1209 N 0.11551 0.23841 0.61317 0.0
C1210 C 0.05467 0.2939 0.60926 0.0
C1211 C 0.09225 0.25241 0.61105 0.0
N1212 N 0.04493 0.28851 0.6626 0.0
N1213 N 0.09433 0.25339 0.55482 0.0
H1214 H 0.12403 0.2329 0.63424 0.0
H1215 H 0.12834 0.23553 0.59449 0.0
H1216 H 0.09044 0.26235 0.53343 0.0
H1217 H 0.10619 0.2364 0.55349 0.0
H1218 H 0.04574 0.28013 0.68467 0.0
H1219 H 0.04574 0.28013 0.68467 0.0
H1220 H 0.03352 0.32579 0.63003 0.0
H1221 H 0.03863 0.32952 0.59026 0.0
C1222 C 0.70019 0.1116 0.57531 0.0
C1223 C 0.70526 0.10534 0.60705 0.0
C1224 C 0.69671 0.05811 0.59611 0.0
C1225 C 0.69567 0.0641 0.56405 0.0
N1226 N 0.6908 0.09672 0.52336 0.0
N1227 N 0.69367 0.07522 0.64856 0.0
C1228 C 0.69529 0.09088 0.55389 0.0
C1229 C 0.69891 0.07932 0.61784 0.0
N1230 N 0.69959 0.13708 0.56459 0.0
N1231 N 0.69692 0.03218 0.6057 0.0
H1232 H 0.69226 0.09088 0.6644 0.0
H1233 H 0.68713 0.05707 0.65743 0.0
H1234 H 0.69451 0.01624 0.59041 0.0
H1235 H 0.70099 0.02652 0.62847 0.0
H1236 H 0.70149 0.15396 0.5785 0.0
H1237 H 0.70149 0.15396 0.5785 0.0
H1238 H 0.69106 0.11616 0.51477 0.0
H1239 H 0.68614 0.08216 0.50696 0.0
C1240 C 0.9243 0.28655 0.41717 0.0
C1241 C 0.93196 0.27264 0.38981 0.0
C1242 C 0.97817 0.27104 0.4083 0.0
C1243 C 0.96972 0.28149 0.43725 0.0
N1244 N 0.93455 0.29743 0.47061 0.0
N1245 N 0.96797 0.26506 0.35384 0.0
C1246 C 0.94281 0.28917 0.44191 0.0
C1247 C 0.95949 0.26873 0.38368 0.0
N1248 N 0.89999 0.29869 0.41877 0.0
N1249 N 0.0039 0.26278 0.40449 0.0
H1250 H 0.95522 0.2666 0.33481 0.0
H1251 H 0.98794 0.26429 0.34745 0.0
H1252 H 0.01847 0.26506 0.42151 0.0
H1253 H 0.01041 0.252 0.38529 0.0
H1254 H 0.89438 0.31138 0.43673 0.0
H1255 H 0.8865 0.29882 0.40044 0.0
H1256 H 0.91464 0.30016 0.47654 0.0
H1257 H 0.94735 0.29935 0.48951 0.0
C1258 C 0.68512 0.90802 0.42329 0.0
C1259 C 0.69065 0.91289 0.39129 0.0
C1260 C 0.70418 0.95856 0.4038 0.0
C1261 C 0.69682 0.95449 0.4352 0.0
N1262 N 0.68664 0.92391 0.47663 0.0
N1263 N 0.71755 0.93854 0.35542 0.0
C1264 C 0.68894 0.9288 0.44549 0.0
C1265 C 0.70394 0.93683 0.38282 0.0
N1266 N 0.67697 0.88333 0.43264 0.0
N1267 N 0.71048 0.9835 0.39351 0.0
H1268 H 0.71936 0.92279 0.33987 0.0
H1269 H 0.72981 0.95455 0.34976 0.0
H1270 H 0.71142 0.99993 0.40813 0.0
H1271 H 0.71257 0.98827 0.3701 0.0
H1272 H 0.668 0.8795 0.45394 0.0
H1273 H 0.67986 0.86626 0.41929 0.0
H1274 H 0.6836 0.90514 0.48619 0.0
H1275 H 0.68971 0.93843 0.49355 0.0
C1276 C 0.1094 0.76523 0.43545 0.0
C1277 C 0.10987 0.75114 0.40685 0.0
C1278 C 0.06503 0.73412 0.41776 0.0
C1279 C 0.06674 0.74441 0.44851 0.0
N1280 N 0.09121 0.77042 0.48652 0.0
N1281 N 0.08093 0.73789 0.36501 0.0
C1282 C 0.08884 0.76047 0.45711 0.0
C1283 C 0.08562 0.7399 0.39613 0.0
N1284 N 0.12803 0.78396 0.44247 0.0
N1285 N 0.04382 0.71886 0.40896 0.0
H1286 H 0.09347 0.74662 0.34869 0.0
H1287 H 0.06282 0.73179 0.35563 0.0
H1288 H 0.02713 0.71582 0.4228 0.0
H1289 H 0.04348 0.70795 0.38839 0.0
H1290 H 0.14274 0.79032 0.42705 0.0
H1291 H 0.14274 0.79032 0.42705 0.0
H1292 H 0.10738 0.78208 0.49338 0.0
H1293 H 0.07808 0.76592 0.50448 0.0
C1294 C 0.31642 0.1004 0.42572 0.0
C1295 C 0.31384 0.09509 0.39341 0.0
C1296 C 0.30082 0.04905 0.40562 0.0
C1297 C 0.30815 0.05333 0.43694 0.0
N1298 N 0.32372 0.08269 0.47733 0.0
N1299 N 0.29387 0.06568 0.3547 0.0
C1300 C 0.31619 0.07891 0.44716 0.0
C1301 C 0.30318 0.07003 0.38393 0.0
N1302 N 0.31674 0.12612 0.43613 0.0
N1303 N 0.29165 0.02471 0.39619 0.0
H1304 H 0.29244 0.08025 0.33755 0.0
H1305 H 0.29244 0.08025 0.33755 0.0
H1306 H 0.28982 0.00844 0.4111 0.0
H1307 H 0.2862 0.02078 0.37326 0.0
H1308 H 0.31646 0.13126 0.45954 0.0
H1309 H 0.31328 0.14234 0.42159 0.0
H1310 H 0.33277 0.10009 0.48521 0.0
H1311 H 0.32273 0.06773 0.49408 0.0
C1312 C 0.60023 0.80427 0.88753 0.0
C1313 C 0.62076 0.82266 0.89562 0.0
C1314 C 0.5924 0.84073 0.93694 0.0
C1315 C 0.57271 0.82124 0.93029 0.0
N1316 N 0.55571 0.78789 0.8949 0.0
N1317 N 0.62885 0.86664 0.91632 0.0
C1318 C 0.57591 0.80431 0.90414 0.0
C1319 C 0.61451 0.84354 0.91666 0.0
N1320 N 0.60273 0.78664 0.86369 0.0
N1321 N 0.59122 0.85542 0.9636 0.0
H1322 H 0.64314 0.87068 0.8994 0.0
H1323 H 0.62378 0.88319 0.92969 0.0
H1324 H 0.57623 0.85337 0.98011 0.0
H1325 H 0.60673 0.86775 0.97084 0.0
H1326 H 0.61905 0.78546 0.84883 0.0
H1327 H 0.61905 0.78546 0.84883 0.0
H1328 H 0.55745 0.77486 0.87613 0.0
H1329 H 0.53692 0.78808 0.90512 0.0
C1330 C 0.20323 0.59279 0.9053 0.0
C1331 C 0.20175 0.61837 0.91993 0.0
C1332 C 0.22753 0.60127 0.96411 0.0
C1333 C 0.22655 0.57549 0.95093 0.0
N1334 N 0.22051 0.54741 0.90655 0.0
N1335 N 0.22231 0.64861 0.95691 0.0
C1336 C 0.2167 0.57154 0.92061 0.0
C1337 C 0.21728 0.62321 0.94713 0.0
N1338 N 0.1914 0.58856 0.87715 0.0
N1339 N 0.23673 0.60456 0.99376 0.0
H1340 H 0.21528 0.66555 0.94579 0.0
H1341 H 0.23576 0.6531 0.97454 0.0
H1342 H 0.24545 0.58922 0.00652 0.0
H1343 H 0.23431 0.62206 0.00645 0.0
H1344 H 0.18766 0.56976 0.86798 0.0
H1345 H 0.18553 0.60383 0.86234 0.0
H1346 H 0.21597 0.54343 0.88346 0.0
H1347 H 0.23037 0.53172 0.91752 0.0
C1348 C 0.43444 0.2027 0.89161 0.0
C1349 C 0.40792 0.20539 0.90325 0.0
C1350 C 0.42365 0.19319 0.95522 0.0
C1351 C 0.45018 0.1939 0.94423 0.0
N1352 N 0.48063 0.1927 0.90111 0.0
N1353 N 0.37714 0.18866 0.94166 0.0
C1354 C 0.45539 0.19613 0.91214 0.0
C1355 C 0.4024 0.19609 0.93375 0.0
N1356 N 0.44063 0.20609 0.86111 0.0
N1357 N 0.41876 0.19055 0.98626 0.0
H1358 H 0.36179 0.18754 0.92542 0.0
H1359 H 0.37234 0.18001 0.9629 0.0
H1360 H 0.43384 0.18706 0.00243 0.0
H1361 H 0.39998 0.19325 0.99604 0.0
H1362 H 0.42685 0.20993 0.8436 0.0
H1363 H 0.42685 0.20993 0.8436 0.0
H1364 H 0.48548 0.19485 0.87768 0.0
H1365 H 0.49634 0.18665 0.91532 0.0
C1366 C 0.72773 0.46369 0.87045 0.0
C1367 C 0.74224 0.4296 0.86953 0.0
C1368 C 0.7649 0.43442 0.93628 0.0
C1369 C 0.75751 0.46987 0.93439 0.0
N1370 N 0.73205 0.51042 0.90331 0.0
N1371 N 0.7591 0.38597 0.90552 0.0
C1372 C 0.7383 0.48427 0.90277 0.0
C1373 C 0.75499 0.41251 0.90491 0.0
N1374 N 0.71379 0.47338 0.84621 0.0
N1375 N 0.77681 0.42426 0.96174 0.0
H1376 H 0.75382 0.37435 0.88641 0.0
H1377 H 0.76722 0.37666 0.92495 0.0
H1378 H 0.78165 0.43646 0.98046 0.0
H1379 H 0.78111 0.40401 0.96343 0.0
H1380 H 0.70686 0.49294 0.84603 0.0
H1381 H 0.70964 0.4611 0.82728 0.0
H1382 H 0.7211 0.51908 0.88543 0.0
H1383 H 0.7384 0.52262 0.92143 0.0
C1384 C 0.58054 0.19356 0.12011 0.0
C1385 C 0.60256 0.17642 0.11381 0.0
C1386 C 0.58799 0.17432 0.05907 0.0
C1387 C 0.56391 0.18722 0.06717 0.0
N1388 N 0.53543 0.20553 0.10697 0.0
N1389 N 0.6289 0.15426 0.07333 0.0
C1390 C 0.55973 0.19593 0.09807 0.0
C1391 C 0.60681 0.16794 0.08242 0.0
N1392 N 0.58004 0.20907 0.14617 0.0
N1393 N 0.59329 0.16815 0.02878 0.0
H1394 H 0.6448 0.14912 0.08764 0.0
H1395 H 0.6448 0.14912 0.08764 0.0
H1396 H 0.58086 0.17356 0.01045 0.0
H1397 H 0.61069 0.15843 0.02188 0.0
H1398 H 0.56552 0.22349 0.15017 0.0
H1399 H 0.59594 0.21076 0.16141 0.0
H1400 H 0.53034 0.20896 0.13009 0.0
H1401 H 0.51946 0.20759 0.0918 0.0
C1402 C 0.77342 0.55309 0.14189 0.0
C1403 C 0.75219 0.57189 0.14211 0.0
C1404 C 0.75734 0.57692 0.0856 0.0
C1405 C 0.77233 0.55303 0.08497 0.0
N1406 N 0.79725 0.51947 0.11308 0.0
N1407 N 0.7293 0.60718 0.11476 0.0
C1408 C 0.78172 0.54182 0.11322 0.0
C1409 C 0.74612 0.58581 0.11415 0.0
N1410 N 0.78597 0.54617 0.16884 0.0
N1411 N 0.75446 0.59132 0.05888 0.0
H1412 H 0.72432 0.61718 0.13514 0.0
H1413 H 0.72053 0.61535 0.09507 0.0
H1414 H 0.76318 0.58548 0.03798 0.0
H1415 H 0.74573 0.61009 0.05782 0.0
H1416 H 0.80317 0.53461 0.1695 0.0
H1417 H 0.78165 0.55457 0.19026 0.0
H1418 H 0.80065 0.50792 0.13277 0.0
H1419 H 0.80585 0.51144 0.09326 0.0
C1420 C 0.43046 0.80456 0.09565 0.0
C1421 C 0.41149 0.82512 0.0911 0.0
C1422 C 0.43126 0.83389 0.03983 0.0
C1423 C 0.45348 0.8178 0.04789 0.0
N1424 N 0.47477 0.78863 0.08528 0.0
N1425 N 0.38912 0.85264 0.05246 0.0
C1426 C 0.45313 0.80314 0.07614 0.0
C1427 C 0.41043 0.83783 0.06154 0.0
N1428 N 0.42591 0.78516 0.11721 0.0
N1429 N 0.42938 0.84501 0.01096 0.0
H1430 H 0.37172 0.85492 0.06538 0.0
H1431 H 0.37172 0.85492 0.06538 0.0
H1432 H 0.44288 0.84112 0.99315 0.0
H1433 H 0.41358 0.85732 0.00447 0.0
H1434 H 0.43798 0.76842 0.11969 0.0
H1435 H 0.40796 0.78364 0.12916 0.0
H1436 H 0.47662 0.78058 0.10747 0.0
H1437 H 0.49185 0.78639 0.07196 0.0
C1438 C 0.2689 0.44962 0.12371 0.0
C1439 C 0.28949 0.43153 0.11513 0.0
C1440 C 0.28325 0.44586 0.06079 0.0
C1441 C 0.26829 0.46799 0.07134 0.0
N1442 N 0.24901 0.4925 0.114 0.0
N1443 N 0.31471 0.41112 0.07317 0.0
C1444 C 0.26185 0.4704 0.10315 0.0
C1445 C 0.29597 0.42903 0.08288 0.0
N1446 N 0.25381 0.44541 0.14955 0.0
N1447 N 0.28452 0.44031 0.02974 0.0
H1448 H 0.32313 0.39665 0.08737 0.0
H1449 H 0.32294 0.4114 0.05098 0.0
H1450 H 0.27531 0.45206 0.01291 0.0
H1451 H 0.29247 0.42273 0.02087 0.0
H1452 H 0.2378 0.45755 0.15563 0.0
H1453 H 0.25359 0.42723 0.16103 0.0
H1454 H 0.2463 0.49611 0.13763 0.0
H1455 H 0.24331 0.50825 0.09973 0.0
C1456 C 0.43283 0.25786 0.11769 0.0
C1457 C 0.44711 0.24589 0.14262 0.0
C1458 C 0.46242 0.21132 0.10646 0.0
C1459 C 0.45633 0.22854 0.08144 0.0
N1460 N 0.42948 0.26438 0.06195 0.0
N1461 N 0.47036 0.2057 0.16029 0.0
C1462 C 0.43919 0.25046 0.0867 0.0
C1463 C 0.45994 0.22092 0.13714 0.0
N1464 N 0.41269 0.27542 0.12364 0.0
N1465 N 0.47122 0.18597 0.10134 0.0
H1466 H 0.46957 0.21031 0.18383 0.0
H1467 H 0.46957 0.21031 0.18383 0.0
H1468 H 0.47023 0.1768 0.0797 0.0
H1469 H 0.47695 0.1733 0.11935 0.0
H1470 H 0.40048 0.28343 0.10649 0.0
H1471 H 0.40581 0.27937 0.14598 0.0
H1472 H 0.41984 0.28266 0.06388 0.0
H1473 H 0.43174 0.25756 0.03919 0.0
C1474 C 0.78907 0.41063 0.09522 0.0
C1475 C 0.79735 0.38768 0.07865 0.0
C1476 C 0.81642 0.41647 0.03828 0.0
C1477 C 0.80348 0.43882 0.05186 0.0
N1478 N 0.77634 0.45693 0.09326 0.0
N1479 N 0.8287 0.37071 0.04039 0.0
C1480 C 0.78958 0.43587 0.08042 0.0
C1481 C 0.81408 0.3911 0.05232 0.0
N1482 N 0.78252 0.40855 0.12588 0.0
N1483 N 0.83015 0.41885 0.01102 0.0
H1484 H 0.83004 0.35185 0.05039 0.0
H1485 H 0.83004 0.35185 0.05039 0.0
H1486 H 0.83135 0.43646 0.99833 0.0
H1487 H 0.83956 0.4027 0.00039 0.0
H1488 H 0.77849 0.42489 0.14003 0.0
H1489 H 0.78502 0.39091 0.13823 0.0
H1490 H 0.76315 0.45498 0.11179 0.0
H1491 H 0.77692 0.47611 0.08421 0.0
C1492 C 0.59939 0.74839 0.08474 0.0
C1493 C 0.58865 0.75515 0.11414 0.0
C1494 C 0.55825 0.78686 0.08952 0.0
C1495 C 0.56447 0.7753 0.06025 0.0
N1496 N 0.59494 0.75027 0.02851 0.0
N1497 N 0.57088 0.792 0.1434 0.0
C1498 C 0.58666 0.75795 0.05739 0.0
C1499 C 0.57202 0.7779 0.11635 0.0
N1500 N 0.62208 0.73345 0.08334 0.0
N1501 N 0.53841 0.80533 0.09218 0.0
H1502 H 0.58368 0.78833 0.16185 0.0
H1503 H 0.56056 0.80985 0.14588 0.0
H1504 H 0.52924 0.81438 0.07332 0.0
H1505 H 0.53016 0.81098 0.11335 0.0
H1506 H 0.63174 0.72819 0.06291 0.0
H1507 H 0.63297 0.72859 0.10315 0.0
H1508 H 0.60904 0.73555 0.02434 0.0
H1509 H 0.58735 0.7588 0.00827 0.0
C1510 C 0.1733 0.6114 0.08472 0.0
C1511 C 0.19629 0.62834 0.08411 0.0
C1512 C 0.22471 0.58837 0.08453 0.0
C1513 C 0.20221 0.57287 0.0769 0.0
N1514 N 0.15628 0.56628 0.08994 0.0
N1515 N 0.24429 0.63189 0.09099 0.0
C1516 C 0.17671 0.58328 0.08327 0.0
C1517 C 0.22212 0.61649 0.08697 0.0
N1518 N 0.1482 0.62191 0.08505 0.0
N1519 N 0.2481 0.57581 0.09143 0.0
H1520 H 0.2438 0.65151 0.09874 0.0
H1521 H 0.26356 0.62504 0.08704 0.0
H1522 H 0.24947 0.55509 0.09233 0.0
H1523 H 0.26499 0.58542 0.09979 0.0
H1524 H 0.13117 0.61073 0.08055 0.0
H1525 H 0.14405 0.64196 0.08839 0.0
H1526 H 0.13754 0.57252 0.09728 0.0
H1527 H 0.15931 0.54586 0.09257 0.0
C1528 C 0.41508 0.74184 0.92408 0.0
C1529 C 0.41025 0.75691 0.89673 0.0
C1530 C 0.45497 0.77623 0.90084 0.0
C1531 C 0.45785 0.76456 0.93071 0.0
N1532 N 0.44019 0.73545 0.97077 0.0
N1533 N 0.43271 0.77356 0.85125 0.0
C1534 C 0.43808 0.74677 0.94201 0.0
C1535 C 0.4322 0.77 0.88264 0.0
N1536 N 0.39814 0.72234 0.93363 0.0
N1537 N 0.47381 0.79339 0.8898 0.0
H1538 H 0.41876 0.76462 0.8367 0.0
H1539 H 0.44902 0.78126 0.83932 0.0
H1540 H 0.49161 0.79724 0.90133 0.0
H1541 H 0.47099 0.80501 0.87004 0.0
H1542 H 0.38154 0.71607 0.92104 0.0
H1543 H 0.38154 0.71607 0.92104 0.0
H1544 H 0.42578 0.72254 0.97963 0.0
H1545 H 0.45537 0.7398 0.98643 0.0
C1546 C 0.20882 0.40689 0.94745 0.0
C1547 C 0.19348 0.40947 0.91987 0.0
C1548 C 0.18948 0.45758 0.92968 0.0
C1549 C 0.20021 0.45374 0.9597 0.0
N1550 N 0.21937 0.42469 0.99825 0.0
N1551 N 0.1786 0.44046 0.87985 0.0
C1552 C 0.20986 0.42841 0.96883 0.0
C1553 C 0.18662 0.43556 0.90947 0.0
N1554 N 0.22407 0.38469 0.95205 0.0
N1555 N 0.18211 0.48244 0.92004 0.0
H1556 H 0.17821 0.42622 0.86224 0.0
H1557 H 0.17821 0.42622 0.86224 0.0
H1558 H 0.18408 0.49937 0.9339 0.0
H1559 H 0.17397 0.486 0.89813 0.0
H1560 H 0.23731 0.38261 0.97049 0.0
H1561 H 0.22645 0.37003 0.93511 0.0
H1562 H 0.22384 0.406 0.00735 0.0
H1563 H 0.2208 0.44004 0.01448 0.0
C1564 C 0.58121 0.25076 0.89937 0.0
C1565 C 0.60393 0.26354 0.91224 0.0
C1566 C 0.58049 0.26946 0.96142 0.0
C1567 C 0.55989 0.25243 0.95066 0.0
N1568 N 0.5384 0.22964 0.90826 0.0
N1569 N 0.61546 0.29978 0.9463 0.0
C1570 C 0.55953 0.24398 0.91918 0.0
C1571 C 0.6006 0.27759 0.94048 0.0
N1572 N 0.57912 0.248 0.86795 0.0
N1573 N 0.58207 0.27649 0.99201 0.0
H1574 H 0.62849 0.30765 0.92981 0.0
H1575 H 0.61225 0.31207 0.96544 0.0
H1576 H 0.56851 0.27015 0.00875 0.0
H1577 H 0.59839 0.28657 0.00124 0.0
H1578 H 0.56251 0.24029 0.85668 0.0
H1579 H 0.5925 0.25704 0.85281 0.0
H1580 H 0.5384 0.21964 0.88709 0.0
H1581 H 0.52091 0.22722 0.92095 0.0
C1582 C 0.82447 0.61212 0.93392 0.0
C1583 C 0.83804 0.60445 0.90638 0.0
C1584 C 0.84553 0.56003 0.92764 0.0
C1585 C 0.82795 0.56591 0.95256 0.0
N1586 N 0.80351 0.59859 0.98223 0.0
N1587 N 0.87594 0.5786 0.89009 0.0
C1588 C 0.81835 0.59237 0.95664 0.0
C1589 C 0.85324 0.58073 0.90729 0.0
N1590 N 0.82034 0.6385 0.93988 0.0
N1591 N 0.85338 0.53447 0.92169 0.0
H1592 H 0.88329 0.59451 0.87707 0.0
H1593 H 0.88896 0.56251 0.89195 0.0
H1594 H 0.84705 0.51809 0.93454 0.0
H1595 H 0.86404 0.52926 0.90182 0.0
H1596 H 0.81195 0.64583 0.96023 0.0
H1597 H 0.82884 0.65338 0.92626 0.0
H1598 H 0.79274 0.61618 0.98457 0.0
H1599 H 0.80147 0.58575 0.00109 0.0
loop_
_geom_bond_atom_site_label_1
_geom_bond_atom_site_label_2
_geom_bond_distance
_geom_bond_site_symmetry_2
_ccdc_geom_bond_type
C0 C1 1.560 . S
C0 H61 0.959 . S
C0 H62 0.959 . S
C0 H63 0.960 . S
C1 C0 1.560 . S
C1 O56 1.426 . S
C1 H60 0.980 . S
C2 C3 1.407 . S
C2 C7 1.418 . S
C2 O56 1.334 . S
C3 C2 1.407 . S
C3 C4 1.360 . S
C3 H64 0.929 . S
C4 C3 1.360 . S
C4 C5 1.401 . S
C4 C8 1.527 . S
C5 C4 1.401 . S
C5 C6 1.405 . S
C5 C38 1.587 . S
C6 C5 1.405 . S
C6 C7 1.332 . S
C6 C9 1.496 . S
C7 C2 1.418 . S
C7 C6 1.332 . S
C7 H65 0.929 . S
C8 C4 1.527 . S
C8 H66 0.959 . S
C8 H67 0.961 . S
C8 H68 0.961 . S
C9 C6 1.496 . S
C9 H69 0.960 . S
C9 H70 0.960 . S
C9 H71 0.961 . S
C10 C11 1.517 . S
C10 H73 0.961 . S
C10 H74 0.960 . S
C10 H75 0.959 . S
C11 C10 1.517 . S
C11 O59 1.468 . S
C11 H72 0.980 . S
C12 C13 1.349 . S
C12 C17 1.367 . S
C12 O59 1.408 . S
C13 C12 1.349 . S
C13 C14 1.407 . S
C13 H76 0.930 . S
C14 C13 1.407 . S
C14 C15 1.449 . S
C14 C18 1.535 . S
C15 C14 1.449 . S
C15 C16 1.384 . S
C15 C40 1.553 . S
C16 C15 1.384 . S
C16 C17 1.364 . S
C16 C19 1.450 . S
C17 C12 1.367 . S
C17 C16 1.364 . S
C17 H77 0.931 . S
C18 C14 1.535 . S
C18 H78 0.959 . S
C18 H79 0.961 . S
C18 H80 0.959 . S
C19 C16 1.450 . S
C19 H81 0.960 . S
C19 H82 0.960 . S
C19 H83 0.960 . S
C20 C21 1.309 . S
C20 C25 1.304 . S
C20 O58 1.435 . S
C21 C20 1.309 . S
C21 C22 1.476 . S
C21 H85 0.930 . S
C22 C21 1.476 . S
C22 C23 1.400 . S
C22 C26 1.567 . S
C23 C22 1.400 . S
C23 C24 1.373 . S
C23 C45 1.432 . S
C24 C23 1.373 . S
C24 C25 1.339 . S
C24 C27 1.530 . S
C25 C20 1.304 . S
C25 C24 1.339 . S
C25 H86 0.930 . S
C26 C22 1.567 . S
C26 H87 0.961 . S
C26 H88 0.960 . S
C26 H89 0.958 . S
C27 C24 1.530 . S
C27 H90 0.961 . S
C27 H91 0.960 . S
C27 H92 0.960 . S
C28 C29 1.530 . S
C28 H94 0.961 . S
C28 H95 0.961 . S
C28 H96 0.959 . S
C29 C28 1.530 . S
C29 O57 1.412 . S
C29 H93 0.980 . S
C30 C31 1.288 . S
C30 C35 1.377 . S
C30 O57 1.393 . S
C31 C30 1.288 . S
C31 C32 1.369 . S
C31 H97 0.932 . S
C32 C31 1.369 . S
C32 C33 1.398 . S
C32 C36 1.527 . S
C33 C32 1.398 . S
C33 C34 1.380 . S
C33 C47 1.497 . S
C34 C33 1.380 . S
C34 C35 1.383 . S
C34 C37 1.603 . S
C35 C30 1.377 . S
C35 C34 1.383 . S
C35 H98 0.929 . S
C36 C32 1.527 . S
C36 H99 0.961 . S
C36 H100 0.959 . S
C36 H101 0.959 . S
C37 C34 1.603 . S
C37 H102 0.960 . S
C37 H103 0.962 . S
C37 H104 0.961 . S
C38 C5 1.587 . S
C38 C39 1.360 . S
C38 C51 1.412 . S
C39 C38 1.360 . S
C39 C40 1.365 . S
C39 H105 0.929 . S
C40 C15 1.553 . S
C40 C39 1.365 . S
C40 C41 1.404 . S
C41 C40 1.404 . S
C41 C42 1.395 . S
C41 C52 1.451 . S
C42 C41 1.395 . S
C42 C43 1.322 . S
C42 H106 0.930 . S
C43 C42 1.322 . S
C43 C44 1.459 . S
C43 H107 0.929 . S
C44 C43 1.459 . S
C44 C45 1.445 . S
C44 C53 1.395 . S
C45 C23 1.432 . S
C45 C44 1.445 . S
C45 C46 1.370 . S
C46 C45 1.370 . S
C46 C47 1.438 . S
C46 H108 0.930 . S
C47 C33 1.497 . S
C47 C46 1.438 . S
C47 C48 1.360 . S
C48 C47 1.360 . S
C48 C49 1.401 . S
C48 C53 1.446 . S
C49 C48 1.401 . S
C49 C50 1.347 . S
C49 H109 0.929 . S
C50 C49 1.347 . S
C50 C51 1.455 . S
C50 H110 0.930 . S
C51 C38 1.412 . S
C51 C50 1.455 . S
C51 C52 1.331 . S
C52 C41 1.451 . S
C52 C51 1.331 . S
C52 C53 1.497 . S
C53 C44 1.395 . S
C53 C48 1.446 . S
C53 C52 1.497 . S
C54 C55 1.582 . S
C54 H111 0.962 . S
C54 H112 0.959 . S
C54 H113 0.958 . S
C55 C54 1.582 . S
C55 O58 1.458 . S
C55 H84 0.980 . S
O56 C1 1.426 . S
O56 C2 1.334 . S
O57 C29 1.412 . S
O57 C30 1.393 . S
O58 C20 1.435 . S
O58 C55 1.458 . S
O59 C11 1.468 . S
O59 C12 1.408 . S
H60 C1 0.980 . S
H61 C0 0.959 . S
H62 C0 0.959 . S
H63 C0 0.960 . S
H64 C3 0.929 . S
H65 C7 0.929 . S
H66 C8 0.959 . S
H67 C8 0.961 . S
H68 C8 0.961 . S
H69 C9 0.960 . S
H70 C9 0.960 . S
H71 C9 0.961 . S
H72 C11 0.980 . S
H73 C10 0.961 . S
H74 C10 0.960 . S
H75 C10 0.959 . S
H76 C13 0.930 . S
H77 C17 0.931 . S
H78 C18 0.959 . S
H79 C18 0.961 . S
H80 C18 0.959 . S
H81 C19 0.960 . S
H82 C19 0.960 . S
H83 C19 0.960 . S
H84 C55 0.980 . S
H85 C21 0.930 . S
H86 C25 0.930 . S
H87 C26 0.961 . S
H88 C26 0.960 . S
H89 C26 0.958 . S
H90 C27 0.961 . S
H91 C27 0.960 . S
H92 C27 0.960 . S
H93 C29 0.980 . S
H94 C28 0.961 . S
H95 C28 0.961 . S
H96 C28 0.959 . S
H97 C31 0.932 . S
H98 C35 0.929 . S
H99 C36 0.961 . S
H100 C36 0.959 . S
H101 C36 0.959 . S
H102 C37 0.960 . S
H103 C37 0.962 . S
H104 C37 0.961 . S
H105 C39 0.929 . S
H106 C42 0.930 . S
H107 C43 0.929 . S
H108 C46 0.930 . S
H109 C49 0.929 . S
H110 C50 0.930 . S
H111 C54 0.962 . S
H112 C54 0.959 . S
H113 C54 0.958 . S
C114 C115 1.560 . S
C114 H175 0.959 . S
C114 H176 0.959 . S
C114 H177 0.960 . S
C115 C114 1.560 . S
C115 O170 1.426 . S
C115 H174 0.980 . S
C116 C117 1.407 . S
C116 C121 1.418 . S
C116 O170 1.334 . S
C117 C116 1.407 . S
C117 C118 1.360 . S
C117 H178 0.929 . S
C118 C117 1.360 . S
C118 C119 1.401 . S
C118 C122 1.527 . S
C119 C118 1.401 . S
C119 C120 1.405 . S
C119 C152 1.587 . S
C120 C119 1.405 . S
C120 C121 1.332 . S
C120 C123 1.496 . S
C121 C116 1.418 . S
C121 C120 1.332 . S
C121 H179 0.929 . S
C122 C118 1.527 . S
C122 H180 0.959 . S
C122 H181 0.961 . S
C122 H182 0.961 . S
C123 C120 1.496 . S
C123 H183 0.960 . S
C123 H184 0.960 . S
C123 H185 0.961 . S
C124 C125 1.517 . S
C124 H187 0.961 . S
C124 H188 0.960 . S
C124 H189 0.959 . S
C125 C124 1.517 . S
C125 O173 1.468 . S
C125 H186 0.980 . S
C126 C127 1.349 . S
C126 C131 1.367 . S
C126 O173 1.408 . S
C127 C126 1.349 . S
C127 C128 1.407 . S
C127 H190 0.930 . S
C128 C127 1.407 . S
C128 C129 1.449 . S
C128 C132 1.535 . S
C129 C128 1.449 . S
C129 C130 1.384 . S
C129 C154 1.553 . S
C130 C129 1.384 . S
C130 C131 1.364 . S
C130 C133 1.450 . S
C131 C126 1.367 . S
C131 C130 1.364 . S
C131 H191 0.931 . S
C132 C128 1.535 . S
C132 H192 0.959 . S
C132 H193 0.961 . S
C132 H194 0.959 . S
C133 C130 1.450 . S
C133 H195 0.960 . S
C133 H196 0.960 . S
C133 H197 0.960 . S
C134 C135 1.309 . S
C134 C139 1.304 . S
C134 O172 1.435 . S
C135 C134 1.309 . S
C135 C136 1.476 . S
C135 H199 0.930 . S
C136 C135 1.476 . S
C136 C137 1.400 . S
C136 C140 1.567 . S
C137 C136 1.400 . S
C137 C138 1.373 . S
C137 C159 1.432 . S
C138 C137 1.373 . S
C138 C139 1.339 . S
C138 C141 1.530 . S
C139 C134 1.304 . S
C139 C138 1.339 . S
C139 H200 0.930 . S
C140 C136 1.567 . S
C140 H201 0.961 . S
C140 H202 0.960 . S
C140 H203 0.958 . S
C141 C138 1.530 . S
C141 H204 0.961 . S
C141 H205 0.960 . S
C141 H206 0.960 . S
C142 C143 1.530 . S
C142 H208 0.961 . S
C142 H209 0.961 . S
C142 H210 0.959 . S
C143 C142 1.530 . S
C143 O171 1.412 . S
C143 H207 0.980 . S
C144 C145 1.288 . S
C144 C149 1.377 . S
C144 O171 1.393 . S
C145 C144 1.288 . S
C145 C146 1.369 . S
C145 H211 0.932 . S
C146 C145 1.369 . S
C146 C147 1.398 . S
C146 C150 1.527 . S
C147 C146 1.398 . S
C147 C148 1.380 . S
C147 C161 1.497 . S
C148 C147 1.380 . S
C148 C149 1.383 . S
C148 C151 1.603 . S
C149 C144 1.377 . S
C149 C148 1.383 . S
C149 H212 0.929 . S
C150 C146 1.527 . S
C150 H213 0.961 . S
C150 H214 0.959 . S
C150 H215 0.959 . S
C151 C148 1.603 . S
C151 H216 0.960 . S
C151 H217 0.962 . S
C151 H218 0.961 . S
C152 C119 1.587 . S
C152 C153 1.360 . S
C152 C165 1.412 . S
C153 C152 1.360 . S
C153 C154 1.365 . S
C153 H219 0.929 . S
C154 C129 1.553 . S
C154 C153 1.365 . S
C154 C155 1.404 . S
C155 C154 1.404 . S
C155 C156 1.395 . S
C155 C166 1.451 . S
C156 C155 1.395 . S
C156 C157 1.322 . S
C156 H220 0.930 . S
C157 C156 1.322 . S
C157 C158 1.459 . S
C157 H221 0.929 . S
C158 C157 1.459 . S
C158 C159 1.445 . S
C158 C167 1.395 . S
C159 C137 1.432 . S
C159 C158 1.445 . S
C159 C160 1.370 . S
C160 C159 1.370 . S
C160 C161 1.438 . S
C160 H222 0.930 . S
C161 C147 1.497 . S
C161 C160 1.438 . S
C161 C162 1.360 . S
C162 C161 1.360 . S
C162 C163 1.401 . S
C162 C167 1.446 . S
C163 C162 1.401 . S
C163 C164 1.347 . S
C163 H223 0.929 . S
C164 C163 1.347 . S
C164 C165 1.455 . S
C164 H224 0.930 . S
C165 C152 1.412 . S
C165 C164 1.455 . S
C165 C166 1.331 . S
C166 C155 1.451 . S
C166 C165 1.331 . S
C166 C167 1.497 . S
C167 C158 1.395 . S
C167 C162 1.446 . S
C167 C166 1.497 . S
C168 C169 1.582 . S
C168 H225 0.962 . S
C168 H226 0.959 . S
C168 H227 0.958 . S
C169 C168 1.582 . S
C169 O172 1.458 . S
C169 H198 0.980 . S
O170 C115 1.426 . S
O170 C116 1.334 . S
O171 C143 1.412 . S
O171 C144 1.393 . S
O172 C134 1.435 . S
O172 C169 1.458 . S
O173 C125 1.468 . S
O173 C126 1.408 . S
H174 C115 0.980 . S
H175 C114 0.959 . S
H176 C114 0.959 . S
H177 C114 0.960 . S
H178 C117 0.929 . S
H179 C121 0.929 . S
H180 C122 0.959 . S
H181 C122 0.961 . S
H182 C122 0.961 . S
H183 C123 0.960 . S
H184 C123 0.960 . S
H185 C123 0.961 . S
H186 C125 0.980 . S
H187 C124 0.961 . S
H188 C124 0.960 . S
H189 C124 0.959 . S
H190 C127 0.930 . S
H191 C131 0.931 . S
H192 C132 0.959 . S
H193 C132 0.961 . S
H194 C132 0.959 . S
H195 C133 0.960 . S
H196 C133 0.960 . S
H197 C133 0.960 . S
H198 C169 0.980 . S
H199 C135 0.930 . S
H200 C139 0.930 . S
H201 C140 0.961 . S
H202 C140 0.960 . S
H203 C140 0.958 . S
H204 C141 0.961 . S
H205 C141 0.960 . S
H206 C141 0.960 . S
H207 C143 0.980 . S
H208 C142 0.961 . S
H209 C142 0.961 . S
H210 C142 0.959 . S
H211 C145 0.932 . S
H212 C149 0.929 . S
H213 C150 0.961 . S
H214 C150 0.959 . S
H215 C150 0.959 . S
H216 C151 0.960 . S
H217 C151 0.962 . S
H218 C151 0.961 . S
H219 C153 0.929 . S
H220 C156 0.930 . S
H221 C157 0.929 . S
H222 C160 0.930 . S
H223 C163 0.929 . S
H224 C164 0.930 . S
H225 C168 0.962 . S
H226 C168 0.959 . S
H227 C168 0.958 . S
C228 C229 1.560 . S
C228 H289 0.959 . S
C228 H290 0.959 . S
C228 H291 0.960 . S
C229 C228 1.560 . S
C229 O284 1.426 . S
C229 H288 0.980 . S
C230 C231 1.407 . S
C230 C235 1.418 . S
C230 O284 1.334 . S
C231 C230 1.407 . S
C231 C232 1.360 . S
C231 H292 0.929 . S
C232 C231 1.360 . S
C232 C233 1.401 . S
C232 C236 1.527 . S
C233 C232 1.401 . S
C233 C234 1.405 . S
C233 C266 1.587 . S
C234 C233 1.405 . S
C234 C235 1.332 . S
C234 C237 1.496 . S
C235 C230 1.418 . S
C235 C234 1.332 . S
C235 H293 0.929 . S
C236 C232 1.527 . S
C236 H294 0.959 . S
C236 H295 0.961 . S
C236 H296 0.961 . S
C237 C234 1.496 . S
C237 H297 0.960 . S
C237 H298 0.960 . S
C237 H299 0.961 . S
C238 C239 1.517 . S
C238 H301 0.961 . S
C238 H302 0.960 . S
C238 H303 0.959 . S
C239 C238 1.517 . S
C239 O287 1.468 . S
C239 H300 0.980 . S
C240 C241 1.349 . S
C240 C245 1.367 . S
C240 O287 1.408 . S
C241 C240 1.349 . S
C241 C242 1.407 . S
C241 H304 0.930 . S
C242 C241 1.407 . S
C242 C243 1.449 . S
C242 C246 1.535 . S
C243 C242 1.449 . S
C243 C244 1.384 . S
C243 C268 1.553 . S
C244 C243 1.384 . S
C244 C245 1.364 . S
C244 C247 1.450 . S
C245 C240 1.367 . S
C245 C244 1.364 . S
C245 H305 0.931 . S
C246 C242 1.535 . S
C246 H306 0.959 . S
C246 H307 0.961 . S
C246 H308 0.959 . S
C247 C244 1.450 . S
C247 H309 0.960 . S
C247 H310 0.960 . S
C247 H311 0.960 . S
C248 C249 1.309 . S
C248 C253 1.304 . S
C248 O286 1.435 . S
C249 C248 1.309 . S
C249 C250 1.476 . S
C249 H313 0.930 . S
C250 C249 1.476 . S
C250 C251 1.400 . S
C250 C254 1.567 . S
C251 C250 1.400 . S
C251 C252 1.373 . S
C251 C273 1.432 . S
C252 C251 1.373 . S
C252 C253 1.339 . S
C252 C255 1.530 . S
C253 C248 1.304 . S
C253 C252 1.339 . S
C253 H314 0.930 . S
C254 C250 1.567 . S
C254 H315 0.961 . S
C254 H316 0.960 . S
C254 H317 0.958 . S
C255 C252 1.530 . S
C255 H318 0.961 . S
C255 H319 0.960 . S
C255 H320 0.960 . S
C256 C257 1.530 . S
C256 H322 0.961 . S
C256 H323 0.961 . S
C256 H324 0.959 . S
C257 C256 1.530 . S
C257 O285 1.412 . S
C257 H321 0.980 . S
C258 C259 1.288 . S
C258 C263 1.377 . S
C258 O285 1.393 . S
C259 C258 1.288 . S
C259 C260 1.369 . S
C259 H325 0.932 . S
C260 C259 1.369 . S
C260 C261 1.398 . S
C260 C264 1.527 . S
C261 C260 1.398 . S
C261 C262 1.380 . S
C261 C275 1.497 . S
C262 C261 1.380 . S
C262 C263 1.383 . S
C262 C265 1.603 . S
C263 C258 1.377 . S
C263 C262 1.383 . S
C263 H326 0.929 . S
C264 C260 1.527 . S
C264 H327 0.961 . S
C264 H328 0.959 . S
C264 H329 0.959 . S
C265 C262 1.603 . S
C265 H330 0.960 . S
C265 H331 0.962 . S
C265 H332 0.961 . S
C266 C233 1.587 . S
C266 C267 1.360 . S
C266 C279 1.412 . S
C267 C266 1.360 . S
C267 C268 1.365 . S
C267 H333 0.929 . S
C268 C243 1.553 . S
C268 C267 1.365 . S
C268 C269 1.404 . S
C269 C268 1.404 . S
C269 C270 1.395 . S
C269 C280 1.451 . S
C270 C269 1.395 . S
C270 C271 1.322 . S
C270 H334 0.930 . S
C271 C270 1.322 . S
C271 C272 1.459 . S
C271 H335 0.929 . S
C272 C271 1.459 . S
C272 C273 1.445 . S
C272 C281 1.395 . S
C273 C251 1.432 . S
C273 C272 1.445 . S
C273 C274 1.370 . S
C274 C273 1.370 . S
C274 C275 1.438 . S
C274 H336 0.930 . S
C275 C261 1.497 . S
C275 C274 1.438 . S
C275 C276 1.360 . S
C276 C275 1.360 . S
C276 C277 1.401 . S
C276 C281 1.446 . S
C277 C276 1.401 . S
C277 C278 1.347 . S
C277 H337 0.929 . S
C278 C277 1.347 . S
C278 C279 1.455 . S
C278 H338 0.930 . S
C279 C266 1.412 . S
C279 C278 1.455 . S
C279 C280 1.331 . S
C280 C269 1.451 . S
C280 C279 1.331 . S
C280 C281 1.497 . S
C281 C272 1.395 . S
C281 C276 1.446 . S
C281 C280 1.497 . S
C282 C283 1.582 . S
C282 H339 0.962 . S
C282 H340 0.959 . S
C282 H341 0.958 . S
C283 C282 1.582 . S
C283 O286 1.458 . S
C283 H312 0.980 . S
O284 C229 1.426 . S
O284 C230 1.334 . S
O285 C257 1.412 . S
O285 C258 1.393 . S
O286 C248 1.435 . S
O286 C283 1.458 . S
O287 C239 1.468 . S
O287 C240 1.408 . S
H288 C229 0.980 . S
H289 C228 0.959 . S
H290 C228 0.959 . S
H291 C228 0.960 . S
H292 C231 0.929 . S
H293 C235 0.929 . S
H294 C236 0.959 . S
H295 C236 0.961 . S
H296 C236 0.961 . S
H297 C237 0.960 . S
H298 C237 0.960 . S
H299 C237 0.961 . S
H300 C239 0.980 . S
H301 C238 0.961 . S
H302 C238 0.960 . S
H303 C238 0.959 . S
H304 C241 0.930 . S
H305 C245 0.931 . S
H306 C246 0.959 . S
H307 C246 0.961 . S
H308 C246 0.959 . S
H309 C247 0.960 . S
H310 C247 0.960 . S
H311 C247 0.960 . S
H312 C283 0.980 . S
H313 C249 0.930 . S
H314 C253 0.930 . S
H315 C254 0.961 . S
H316 C254 0.960 . S
H317 C254 0.958 . S
H318 C255 0.961 . S
H319 C255 0.960 . S
H320 C255 0.960 . S
H321 C257 0.980 . S
H322 C256 0.961 . S
H323 C256 0.961 . S
H324 C256 0.959 . S
H325 C259 0.932 . S
H326 C263 0.929 . S
H327 C264 0.961 . S
H328 C264 0.959 . S
H329 C264 0.959 . S
H330 C265 0.960 . S
H331 C265 0.962 . S
H332 C265 0.961 . S
H333 C267 0.929 . S
H334 C270 0.930 . S
H335 C271 0.929 . S
H336 C274 0.930 . S
H337 C277 0.929 . S
H338 C278 0.930 . S
H339 C282 0.962 . S
H340 C282 0.959 . S
H341 C282 0.958 . S
C342 C343 1.560 . S
C342 H403 0.959 . S
C342 H404 0.959 . S
C342 H405 0.960 . S
C343 C342 1.560 . S
C343 O398 1.426 . S
C343 H402 0.980 . S
C344 C345 1.407 . S
C344 C349 1.418 . S
C344 O398 1.334 . S
C345 C344 1.407 . S
C345 C346 1.360 . S
C345 H406 0.929 . S
C346 C345 1.360 . S
C346 C347 1.401 . S
C346 C350 1.527 . S
C347 C346 1.401 . S
C347 C348 1.405 . S
C347 C380 1.587 . S
C348 C347 1.405 . S
C348 C349 1.332 . S
C348 C351 1.496 . S
C349 C344 1.418 . S
C349 C348 1.332 . S
C349 H407 0.929 . S
C350 C346 1.527 . S
C350 H408 0.959 . S
C350 H409 0.961 . S
C350 H410 0.961 . S
C351 C348 1.496 . S
C351 H411 0.960 . S
C351 H412 0.960 . S
C351 H413 0.961 . S
C352 C353 1.517 . S
C352 H415 0.961 . S
C352 H416 0.960 . S
C352 H417 0.959 . S
C353 C352 1.517 . S
C353 O401 1.468 . S
C353 H414 0.980 . S
C354 C355 1.349 . S
C354 C359 1.367 . S
C354 O401 1.408 . S
C355 C354 1.349 . S
C355 C356 1.407 . S
C355 H418 0.930 . S
C356 C355 1.407 . S
C356 C357 1.449 . S
C356 C360 1.535 . S
C357 C356 1.449 . S
C357 C358 1.384 . S
C357 C382 1.553 . S
C358 C357 1.384 . S
C358 C359 1.364 . S
C358 C361 1.450 . S
C359 C354 1.367 . S
C359 C358 1.364 . S
C359 H419 0.931 . S
C360 C356 1.535 . S
C360 H420 0.959 . S
C360 H421 0.961 . S
C360 H422 0.959 . S
C361 C358 1.450 . S
C361 H423 0.960 . S
C361 H424 0.960 . S
C361 H425 0.960 . S
C362 C363 1.309 . S
C362 C367 1.304 . S
C362 O400 1.435 . S
C363 C362 1.309 . S
C363 C364 1.476 . S
C363 H427 0.930 . S
C364 C363 1.476 . S
C364 C365 1.400 . S
C364 C368 1.567 . S
C365 C364 1.400 . S
C365 C366 1.373 . S
C365 C387 1.432 . S
C366 C365 1.373 . S
C366 C367 1.339 . S
C366 C369 1.530 . S
C367 C362 1.304 . S
C367 C366 1.339 . S
C367 H428 0.930 . S
C368 C364 1.567 . S
C368 H429 0.961 . S
C368 H430 0.960 . S
C368 H431 0.958 . S
C369 C366 1.530 . S
C369 H432 0.961 . S
C369 H433 0.960 . S
C369 H434 0.960 . S
C370 C371 1.530 . S
C370 H436 0.961 . S
C370 H437 0.961 . S
C370 H438 0.959 . S
C371 C370 1.530 . S
C371 O399 1.412 . S
C371 H435 0.980 . S
C372 C373 1.288 . S
C372 C377 1.377 . S
C372 O399 1.393 . S
C373 C372 1.288 . S
C373 C374 1.369 . S
C373 H439 0.932 . S
C374 C373 1.369 . S
C374 C375 1.398 . S
C374 C378 1.527 . S
C375 C374 1.398 . S
C375 C376 1.380 . S
C375 C389 1.497 . S
C376 C375 1.380 . S
C376 C377 1.383 . S
C376 C379 1.603 . S
C377 C372 1.377 . S
C377 C376 1.383 . S
C377 H440 0.929 . S
C378 C374 1.527 . S
C378 H441 0.961 . S
C378 H442 0.959 . S
C378 H443 0.959 . S
C379 C376 1.603 . S
C379 H444 0.960 . S
C379 H445 0.962 . S
C379 H446 0.961 . S
C380 C347 1.587 . S
C380 C381 1.360 . S
C380 C393 1.412 . S
C381 C380 1.360 . S
C381 C382 1.365 . S
C381 H447 0.929 . S
C382 C357 1.553 . S
C382 C381 1.365 . S
C382 C383 1.404 . S
C383 C382 1.404 . S
C383 C384 1.395 . S
C383 C394 1.451 . S
C384 C383 1.395 . S
C384 C385 1.322 . S
C384 H448 0.930 . S
C385 C384 1.322 . S
C385 C386 1.459 . S
C385 H449 0.929 . S
C386 C385 1.459 . S
C386 C387 1.445 . S
C386 C395 1.395 . S
C387 C365 1.432 . S
C387 C386 1.445 . S
C387 C388 1.370 . S
C388 C387 1.370 . S
C388 C389 1.438 . S
C388 H450 0.930 . S
C389 C375 1.497 . S
C389 C388 1.438 . S
C389 C390 1.360 . S
C390 C389 1.360 . S
C390 C391 1.401 . S
C390 C395 1.446 . S
C391 C390 1.401 . S
C391 C392 1.347 . S
C391 H451 0.929 . S
C392 C391 1.347 . S
C392 C393 1.455 . S
C392 H452 0.930 . S
C393 C380 1.412 . S
C393 C392 1.455 . S
C393 C394 1.331 . S
C394 C383 1.451 . S
C394 C393 1.331 . S
C394 C395 1.497 . S
C395 C386 1.395 . S
C395 C390 1.446 . S
C395 C394 1.497 . S
C396 C397 1.582 . S
C396 H453 0.962 . S
C396 H454 0.959 . S
C396 H455 0.958 . S
C397 C396 1.582 . S
C397 O400 1.458 . S
C397 H426 0.980 . S
O398 C343 1.426 . S
O398 C344 1.334 . S
O399 C371 1.412 . S
O399 C372 1.393 . S
O400 C362 1.435 . S
O400 C397 1.458 . S
O401 C353 1.468 . S
O401 C354 1.408 . S
H402 C343 0.980 . S
H403 C342 0.959 . S
H404 C342 0.959 . S
H405 C342 0.960 . S
H406 C345 0.929 . S
H407 C349 0.929 . S
H408 C350 0.959 . S
H409 C350 0.961 . S
H410 C350 0.961 . S
H411 C351 0.960 . S
H412 C351 0.960 . S
H413 C351 0.961 . S
H414 C353 0.980 . S
H415 C352 0.961 . S
H416 C352 0.960 . S
H417 C352 0.959 . S
H418 C355 0.930 . S
H419 C359 0.931 . S
H420 C360 0.959 . S
H421 C360 0.961 . S
H422 C360 0.959 . S
H423 C361 0.960 . S
H424 C361 0.960 . S
H425 C361 0.960 . S
H426 C397 0.980 . S
H427 C363 0.930 . S
H428 C367 0.930 . S
H429 C368 0.961 . S
H430 C368 0.960 . S
H431 C368 0.958 . S
H432 C369 0.961 . S
H433 C369 0.960 . S
H434 C369 0.960 . S
H435 C371 0.980 . S
H436 C370 0.961 . S
H437 C370 0.961 . S
H438 C370 0.959 . S
H439 C373 0.932 . S
H440 C377 0.929 . S
H441 C378 0.961 . S
H442 C378 0.959 . S
H443 C378 0.959 . S
H444 C379 0.960 . S
H445 C379 0.962 . S
H446 C379 0.961 . S
H447 C381 0.929 . S
H448 C384 0.930 . S
H449 C385 0.929 . S
H450 C388 0.930 . S
H451 C391 0.929 . S
H452 C392 0.930 . S
H453 C396 0.962 . S
H454 C396 0.959 . S
H455 C396 0.958 . S
C456 C457 1.560 . S
C456 H517 0.959 . S
C456 H518 0.959 . S
C456 H519 0.960 . S
C457 C456 1.560 . S
C457 O512 1.426 . S
C457 H516 0.980 . S
C458 C459 1.407 . S
C458 C463 1.418 . S
C458 O512 1.334 . S
C459 C458 1.407 . S
C459 C460 1.360 . S
C459 H520 0.929 . S
C460 C459 1.360 . S
C460 C461 1.401 . S
C460 C464 1.527 . S
C461 C460 1.401 . S
C461 C462 1.405 . S
C461 C494 1.587 . S
C462 C461 1.405 . S
C462 C463 1.332 . S
C462 C465 1.496 . S
C463 C458 1.418 . S
C463 C462 1.332 . S
C463 H521 0.929 . S
C464 C460 1.527 . S
C464 H522 0.959 . S
C464 H523 0.961 . S
C464 H524 0.961 . S
C465 C462 1.496 . S
C465 H525 0.960 . S
C465 H526 0.960 . S
C465 H527 0.961 . S
C466 C467 1.517 . S
C466 H529 0.961 . S
C466 H530 0.960 . S
C466 H531 0.959 . S
C467 C466 1.517 . S
C467 O515 1.468 . S
C467 H528 0.980 . S
C468 C469 1.349 . S
C468 C473 1.367 . S
C468 O515 1.408 . S
C469 C468 1.349 . S
C469 C470 1.407 . S
C469 H532 0.930 . S
C470 C469 1.407 . S
C470 C471 1.449 . S
C470 C474 1.535 . S
C471 C470 1.449 . S
C471 C472 1.384 . S
C471 C496 1.553 . S
C472 C471 1.384 . S
C472 C473 1.364 . S
C472 C475 1.450 . S
C473 C468 1.367 . S
C473 C472 1.364 . S
C473 H533 0.931 . S
C474 C470 1.535 . S
C474 H534 0.959 . S
C474 H535 0.961 . S
C474 H536 0.959 . S
C475 C472 1.450 . S
C475 H537 0.960 . S
C475 H538 0.960 . S
C475 H539 0.960 . S
C476 C477 1.309 . S
C476 C481 1.304 . S
C476 O514 1.435 . S
C477 C476 1.309 . S
C477 C478 1.476 . S
C477 H541 0.930 . S
C478 C477 1.476 . S
C478 C479 1.400 . S
C478 C482 1.567 . S
C479 C478 1.400 . S
C479 C480 1.373 . S
C479 C501 1.432 . S
C480 C479 1.373 . S
C480 C481 1.339 . S
C480 C483 1.530 . S
C481 C476 1.304 . S
C481 C480 1.339 . S
C481 H542 0.930 . S
C482 C478 1.567 . S
C482 H543 0.961 . S
C482 H544 0.960 . S
C482 H545 0.958 . S
C483 C480 1.530 . S
C483 H546 0.961 . S
C483 H547 0.960 . S
C483 H548 0.960 . S
C484 C485 1.530 . S
C484 H550 0.961 . S
C484 H551 0.961 . S
C484 H552 0.959 . S
C485 C484 1.530 . S
C485 O513 1.412 . S
C485 H549 0.980 . S
C486 C487 1.288 . S
C486 C491 1.377 . S
C486 O513 1.393 . S
C487 C486 1.288 . S
C487 C488 1.369 . S
C487 H553 0.932 . S
C488 C487 1.369 . S
C488 C489 1.398 . S
C488 C492 1.527 . S
C489 C488 1.398 . S
C489 C490 1.380 . S
C489 C503 1.497 . S
C490 C489 1.380 . S
C490 C491 1.383 . S
C490 C493 1.603 . S
C491 C486 1.377 . S
C491 C490 1.383 . S
C491 H554 0.929 . S
C492 C488 1.527 . S
C492 H555 0.961 . S
C492 H556 0.959 . S
C492 H557 0.959 . S
C493 C490 1.603 . S
C493 H558 0.960 . S
C493 H559 0.962 . S
C493 H560 0.961 . S
C494 C461 1.587 . S
C494 C495 1.360 . S
C494 C507 1.412 . S
C495 C494 1.360 . S
C495 C496 1.365 . S
C495 H561 0.929 . S
C496 C471 1.553 . S
C496 C495 1.365 . S
C496 C497 1.404 . S
C497 C496 1.404 . S
C497 C498 1.395 . S
C497 C508 1.451 . S
C498 C497 1.395 . S
C498 C499 1.322 . S
C498 H562 0.930 . S
C499 C498 1.322 . S
C499 C500 1.459 . S
C499 H563 0.929 . S
C500 C499 1.459 . S
C500 C501 1.445 . S
C500 C509 1.395 . S
C501 C479 1.432 . S
C501 C500 1.445 . S
C501 C502 1.370 . S
C502 C501 1.370 . S
C502 C503 1.438 . S
C502 H564 0.930 . S
C503 C489 1.497 . S
C503 C502 1.438 . S
C503 C504 1.360 . S
C504 C503 1.360 . S
C504 C505 1.401 . S
C504 C509 1.446 . S
C505 C504 1.401 . S
C505 C506 1.347 . S
C505 H565 0.929 . S
C506 C505 1.347 . S
C506 C507 1.455 . S
C506 H566 0.930 . S
C507 C494 1.412 . S
C507 C506 1.455 . S
C507 C508 1.331 . S
C508 C497 1.451 . S
C508 C507 1.331 . S
C508 C509 1.497 . S
C509 C500 1.395 . S
C509 C504 1.446 . S
C509 C508 1.497 . S
C510 C511 1.582 . S
C510 H567 0.962 . S
C510 H568 0.959 . S
C510 H569 0.958 . S
C511 C510 1.582 . S
C511 O514 1.458 . S
C511 H540 0.980 . S
O512 C457 1.426 . S
O512 C458 1.334 . S
O513 C485 1.412 . S
O513 C486 1.393 . S
O514 C476 1.435 . S
O514 C511 1.458 . S
O515 C467 1.468 . S
O515 C468 1.408 . S
H516 C457 0.980 . S
H517 C456 0.959 . S
H518 C456 0.959 . S
H519 C456 0.960 . S
H520 C459 0.929 . S
H521 C463 0.929 . S
H522 C464 0.959 . S
H523 C464 0.961 . S
H524 C464 0.961 . S
H525 C465 0.960 . S
H526 C465 0.960 . S
H527 C465 0.961 . S
H528 C467 0.980 . S
H529 C466 0.961 . S
H530 C466 0.960 . S
H531 C466 0.959 . S
H532 C469 0.930 . S
H533 C473 0.931 . S
H534 C474 0.959 . S
H535 C474 0.961 . S
H536 C474 0.959 . S
H537 C475 0.960 . S
H538 C475 0.960 . S
H539 C475 0.960 . S
H540 C511 0.980 . S
H541 C477 0.930 . S
H542 C481 0.930 . S
H543 C482 0.961 . S
H544 C482 0.960 . S
H545 C482 0.958 . S
H546 C483 0.961 . S
H547 C483 0.960 . S
H548 C483 0.960 . S
H549 C485 0.980 . S
H550 C484 0.961 . S
H551 C484 0.961 . S
H552 C484 0.959 . S
H553 C487 0.932 . S
H554 C491 0.929 . S
H555 C492 0.961 . S
H556 C492 0.959 . S
H557 C492 0.959 . S
H558 C493 0.960 . S
H559 C493 0.962 . S
H560 C493 0.961 . S
H561 C495 0.929 . S
H562 C498 0.930 . S
H563 C499 0.929 . S
H564 C502 0.930 . S
H565 C505 0.929 . S
H566 C506 0.930 . S
H567 C510 0.962 . S
H568 C510 0.959 . S
H569 C510 0.958 . S
C570 C571 1.560 . S
C570 H631 0.959 . S
C570 H632 0.959 . S
C570 H633 0.960 . S
C571 C570 1.560 . S
C571 O626 1.426 . S
C571 H630 0.980 . S
C572 C573 1.407 . S
C572 C577 1.418 . S
C572 O626 1.334 . S
C573 C572 1.407 . S
C573 C574 1.360 . S
C573 H634 0.929 . S
C574 C573 1.360 . S
C574 C575 1.401 . S
C574 C578 1.527 . S
C575 C574 1.401 . S
C575 C576 1.405 . S
C575 C608 1.587 . S
C576 C575 1.405 . S
C576 C577 1.332 . S
C576 C579 1.496 . S
C577 C572 1.418 . S
C577 C576 1.332 . S
C577 H635 0.929 . S
C578 C574 1.527 . S
C578 H636 0.959 . S
C578 H637 0.961 . S
C578 H638 0.961 . S
C579 C576 1.496 . S
C579 H639 0.960 . S
C579 H640 0.960 . S
C579 H641 0.961 . S
C580 C581 1.517 . S
C580 H643 0.961 . S
C580 H644 0.960 . S
C580 H645 0.959 . S
C581 C580 1.517 . S
C581 O629 1.468 . S
C581 H642 0.980 . S
C582 C583 1.349 . S
C582 C587 1.367 . S
C582 O629 1.408 . S
C583 C582 1.349 . S
C583 C584 1.407 . S
C583 H646 0.930 . S
C584 C583 1.407 . S
C584 C585 1.449 . S
C584 C588 1.535 . S
C585 C584 1.449 . S
C585 C586 1.384 . S
C585 C610 1.553 . S
C586 C585 1.384 . S
C586 C587 1.364 . S
C586 C589 1.450 . S
C587 C582 1.367 . S
C587 C586 1.364 . S
C587 H647 0.931 . S
C588 C584 1.535 . S
C588 H648 0.959 . S
C588 H649 0.961 . S
C588 H650 0.959 . S
C589 C586 1.450 . S
C589 H651 0.960 . S
C589 H652 0.960 . S
C589 H653 0.960 . S
C590 C591 1.309 . S
C590 C595 1.304 . S
C590 O628 1.435 . S
C591 C590 1.309 . S
C591 C592 1.476 . S
C591 H655 0.930 . S
C592 C591 1.476 . S
C592 C593 1.400 . S
C592 C596 1.567 . S
C593 C592 1.400 . S
C593 C594 1.373 . S
C593 C615 1.432 . S
C594 C593 1.373 . S
C594 C595 1.339 . S
C594 C597 1.530 . S
C595 C590 1.304 . S
C595 C594 1.339 . S
C595 H656 0.930 . S
C596 C592 1.567 . S
C596 H657 0.961 . S
C596 H658 0.960 . S
C596 H659 0.958 . S
C597 C594 1.530 . S
C597 H660 0.961 . S
C597 H661 0.960 . S
C597 H662 0.960 . S
C598 C599 1.530 . S
C598 H664 0.961 . S
C598 H665 0.961 . S
C598 H666 0.959 . S
C599 C598 1.530 . S
C599 O627 1.412 . S
C599 H663 0.980 . S
C600 C601 1.288 . S
C600 C605 1.377 . S
C600 O627 1.393 . S
C601 C600 1.288 . S
C601 C602 1.369 . S
C601 H667 0.932 . S
C602 C601 1.369 . S
C602 C603 1.398 . S
C602 C606 1.527 . S
C603 C602 1.398 . S
C603 C604 1.380 . S
C603 C617 1.497 . S
C604 C603 1.380 . S
C604 C605 1.383 . S
C604 C607 1.603 . S
C605 C600 1.377 . S
C605 C604 1.383 . S
C605 H668 0.929 . S
C606 C602 1.527 . S
C606 H669 0.961 . S
C606 H670 0.959 . S
C606 H671 0.959 . S
C607 C604 1.603 . S
C607 H672 0.960 . S
C607 H673 0.962 . S
C607 H674 0.961 . S
C608 C575 1.587 . S
C608 C609 1.360 . S
C608 C621 1.412 . S
C609 C608 1.360 . S
C609 C610 1.365 . S
C609 H675 0.929 . S
C610 C585 1.553 . S
C610 C609 1.365 . S
C610 C611 1.404 . S
C611 C610 1.404 . S
C611 C612 1.395 . S
C611 C622 1.451 . S
C612 C611 1.395 . S
C612 C613 1.322 . S
C612 H676 0.930 . S
C613 C612 1.322 . S
C613 C614 1.459 . S
C613 H677 0.929 . S
C614 C613 1.459 . S
C614 C615 1.445 . S
C614 C623 1.395 . S
C615 C593 1.432 . S
C615 C614 1.445 . S
C615 C616 1.370 . S
C616 C615 1.370 . S
C616 C617 1.438 . S
C616 H678 0.930 . S
C617 C603 1.497 . S
C617 C616 1.438 . S
C617 C618 1.360 . S
C618 C617 1.360 . S
C618 C619 1.401 . S
C618 C623 1.446 . S
C619 C618 1.401 . S
C619 C620 1.347 . S
C619 H679 0.929 . S
C620 C619 1.347 . S
C620 C621 1.455 . S
C620 H680 0.930 . S
C621 C608 1.412 . S
C621 C620 1.455 . S
C621 C622 1.331 . S
C622 C611 1.451 . S
C622 C621 1.331 . S
C622 C623 1.497 . S
C623 C614 1.395 . S
C623 C618 1.446 . S
C623 C622 1.497 . S
C624 C625 1.582 . S
C624 H681 0.962 . S
C624 H682 0.959 . S
C624 H683 0.958 . S
C625 C624 1.582 . S
C625 O628 1.458 . S
C625 H654 0.980 . S
O626 C571 1.426 . S
O626 C572 1.334 . S
O627 C599 1.412 . S
O627 C600 1.393 . S
O628 C590 1.435 . S
O628 C625 1.458 . S
O629 C581 1.468 . S
O629 C582 1.408 . S
H630 C571 0.980 . S
H631 C570 0.959 . S
H632 C570 0.959 . S
H633 C570 0.960 . S
H634 C573 0.929 . S
H635 C577 0.929 . S
H636 C578 0.959 . S
H637 C578 0.961 . S
H638 C578 0.961 . S
H639 C579 0.960 . S
H640 C579 0.960 . S
H641 C579 0.961 . S
H642 C581 0.980 . S
H643 C580 0.961 . S
H644 C580 0.960 . S
H645 C580 0.959 . S
H646 C583 0.930 . S
H647 C587 0.931 . S
H648 C588 0.959 . S
H649 C588 0.961 . S
H650 C588 0.959 . S
H651 C589 0.960 . S
H652 C589 0.960 . S
H653 C589 0.960 . S
H654 C625 0.980 . S
H655 C591 0.930 . S
H656 C595 0.930 . S
H657 C596 0.961 . S
H658 C596 0.960 . S
H659 C596 0.958 . S
H660 C597 0.961 . S
H661 C597 0.960 . S
H662 C597 0.960 . S
H663 C599 0.980 . S
H664 C598 0.961 . S
H665 C598 0.961 . S
H666 C598 0.959 . S
H667 C601 0.932 . S
H668 C605 0.929 . S
H669 C606 0.961 . S
H670 C606 0.959 . S
H671 C606 0.959 . S
H672 C607 0.960 . S
H673 C607 0.962 . S
H674 C607 0.961 . S
H675 C609 0.929 . S
H676 C612 0.930 . S
H677 C613 0.929 . S
H678 C616 0.930 . S
H679 C619 0.929 . S
H680 C620 0.930 . S
H681 C624 0.962 . S
H682 C624 0.959 . S
H683 C624 0.958 . S
C684 C685 1.560 . S
C684 H745 0.959 . S
C684 H746 0.959 . S
C684 H747 0.960 . S
C685 C684 1.560 . S
C685 O740 1.426 . S
C685 H744 0.980 . S
C686 C687 1.407 . S
C686 C691 1.418 . S
C686 O740 1.334 . S
C687 C686 1.407 . S
C687 C688 1.360 . S
C687 H748 0.929 . S
C688 C687 1.360 . S
C688 C689 1.401 . S
C688 C692 1.527 . S
C689 C688 1.401 . S
C689 C690 1.405 . S
C689 C722 1.587 . S
C690 C689 1.405 . S
C690 C691 1.332 . S
C690 C693 1.496 . S
C691 C686 1.418 . S
C691 C690 1.332 . S
C691 H749 0.929 . S
C692 C688 1.527 . S
C692 H750 0.959 . S
C692 H751 0.961 . S
C692 H752 0.961 . S
C693 C690 1.496 . S
C693 H753 0.960 . S
C693 H754 0.960 . S
C693 H755 0.961 . S
C694 C695 1.517 . S
C694 H757 0.961 . S
C694 H758 0.960 . S
C694 H759 0.959 . S
C695 C694 1.517 . S
C695 O743 1.468 . S
C695 H756 0.980 . S
C696 C697 1.349 . S
C696 C701 1.367 . S
C696 O743 1.408 . S
C697 C696 1.349 . S
C697 C698 1.407 . S
C697 H760 0.930 . S
C698 C697 1.407 . S
C698 C699 1.449 . S
C698 C702 1.535 . S
C699 C698 1.449 . S
C699 C700 1.384 . S
C699 C724 1.553 . S
C700 C699 1.384 . S
C700 C701 1.364 . S
C700 C703 1.450 . S
C701 C696 1.367 . S
C701 C700 1.364 . S
C701 H761 0.931 . S
C702 C698 1.535 . S
C702 H762 0.959 . S
C702 H763 0.961 . S
C702 H764 0.959 . S
C703 C700 1.450 . S
C703 H765 0.960 . S
C703 H766 0.960 . S
C703 H767 0.960 . S
C704 C705 1.309 . S
C704 C709 1.304 . S
C704 O742 1.435 . S
C705 C704 1.309 . S
C705 C706 1.476 . S
C705 H769 0.930 . S
C706 C705 1.476 . S
C706 C707 1.400 . S
C706 C710 1.567 . S
C707 C706 1.400 . S
C707 C708 1.373 . S
C707 C729 1.432 . S
C708 C707 1.373 . S
C708 C709 1.339 . S
C708 C711 1.530 . S
C709 C704 1.304 . S
C709 C708 1.339 . S
C709 H770 0.930 . S
C710 C706 1.567 . S
C710 H771 0.961 . S
C710 H772 0.960 . S
C710 H773 0.958 . S
C711 C708 1.530 . S
C711 H774 0.961 . S
C711 H775 0.960 . S
C711 H776 0.960 . S
C712 C713 1.530 . S
C712 H778 0.961 . S
C712 H779 0.961 . S
C712 H780 0.959 . S
C713 C712 1.530 . S
C713 O741 1.412 . S
C713 H777 0.980 . S
C714 C715 1.288 . S
C714 C719 1.377 . S
C714 O741 1.393 . S
C715 C714 1.288 . S
C715 C716 1.369 . S
C715 H781 0.932 . S
C716 C715 1.369 . S
C716 C717 1.398 . S
C716 C720 1.527 . S
C717 C716 1.398 . S
C717 C718 1.380 . S
C717 C731 1.497 . S
C718 C717 1.380 . S
C718 C719 1.383 . S
C718 C721 1.603 . S
C719 C714 1.377 . S
C719 C718 1.383 . S
C719 H782 0.929 . S
C720 C716 1.527 . S
C720 H783 0.961 . S
C720 H784 0.959 . S
C720 H785 0.959 . S
C721 C718 1.603 . S
C721 H786 0.960 . S
C721 H787 0.962 . S
C721 H788 0.961 . S
C722 C689 1.587 . S
C722 C723 1.360 . S
C722 C735 1.412 . S
C723 C722 1.360 . S
C723 C724 1.365 . S
C723 H789 0.929 . S
C724 C699 1.553 . S
C724 C723 1.365 . S
C724 C725 1.404 . S
C725 C724 1.404 . S
C725 C726 1.395 . S
C725 C736 1.451 . S
C726 C725 1.395 . S
C726 C727 1.322 . S
C726 H790 0.930 . S
C727 C726 1.322 . S
C727 C728 1.459 . S
C727 H791 0.929 . S
C728 C727 1.459 . S
C728 C729 1.445 . S
C728 C737 1.395 . S
C729 C707 1.432 . S
C729 C728 1.445 . S
C729 C730 1.370 . S
C730 C729 1.370 . S
C730 C731 1.438 . S
C730 H792 0.930 . S
C731 C717 1.497 . S
C731 C730 1.438 . S
C731 C732 1.360 . S
C732 C731 1.360 . S
C732 C733 1.401 . S
C732 C737 1.446 . S
C733 C732 1.401 . S
C733 C734 1.347 . S
C733 H793 0.929 . S
C734 C733 1.347 . S
C734 C735 1.455 . S
C734 H794 0.930 . S
C735 C722 1.412 . S
C735 C734 1.455 . S
C735 C736 1.331 . S
C736 C725 1.451 . S
C736 C735 1.331 . S
C736 C737 1.497 . S
C737 C728 1.395 . S
C737 C732 1.446 . S
C737 C736 1.497 . S
C738 C739 1.582 . S
C738 H795 0.962 . S
C738 H796 0.959 . S
C738 H797 0.958 . S
C739 C738 1.582 . S
C739 O742 1.458 . S
C739 H768 0.980 . S
O740 C685 1.426 . S
O740 C686 1.334 . S
O741 C713 1.412 . S
O741 C714 1.393 . S
O742 C704 1.435 . S
O742 C739 1.458 . S
O743 C695 1.468 . S
O743 C696 1.408 . S
H744 C685 0.980 . S
H745 C684 0.959 . S
H746 C684 0.959 . S
H747 C684 0.960 . S
H748 C687 0.929 . S
H749 C691 0.929 . S
H750 C692 0.959 . S
H751 C692 0.961 . S
H752 C692 0.961 . S
H753 C693 0.960 . S
H754 C693 0.960 . S
H755 C693 0.961 . S
H756 C695 0.980 . S
H757 C694 0.961 . S
H758 C694 0.960 . S
H759 C694 0.959 . S
H760 C697 0.930 . S
H761 C701 0.931 . S
H762 C702 0.959 . S
H763 C702 0.961 . S
H764 C702 0.959 . S
H765 C703 0.960 . S
H766 C703 0.960 . S
H767 C703 0.960 . S
H768 C739 0.980 . S
H769 C705 0.930 . S
H770 C709 0.930 . S
H771 C710 0.961 . S
H772 C710 0.960 . S
H773 C710 0.958 . S
H774 C711 0.961 . S
H775 C711 0.960 . S
H776 C711 0.960 . S
H777 C713 0.980 . S
H778 C712 0.961 . S
H779 C712 0.961 . S
H780 C712 0.959 . S
H781 C715 0.932 . S
H782 C719 0.929 . S
H783 C720 0.961 . S
H784 C720 0.959 . S
H785 C720 0.959 . S
H786 C721 0.960 . S
H787 C721 0.962 . S
H788 C721 0.961 . S
H789 C723 0.929 . S
H790 C726 0.930 . S
H791 C727 0.929 . S
H792 C730 0.930 . S
H793 C733 0.929 . S
H794 C734 0.930 . S
H795 C738 0.962 . S
H796 C738 0.959 . S
H797 C738 0.958 . S
C798 C799 1.560 . S
C798 H859 0.959 . S
C798 H860 0.959 . S
C798 H861 0.960 . S
C799 C798 1.560 . S
C799 O854 1.426 . S
C799 H858 0.980 . S
C800 C801 1.407 . S
C800 C805 1.418 . S
C800 O854 1.334 . S
C801 C800 1.407 . S
C801 C802 1.360 . S
C801 H862 0.929 . S
C802 C801 1.360 . S
C802 C803 1.401 . S
C802 C806 1.527 . S
C803 C802 1.401 . S
C803 C804 1.405 . S
C803 C836 1.587 . S
C804 C803 1.405 . S
C804 C805 1.332 . S
C804 C807 1.496 . S
C805 C800 1.418 . S
C805 C804 1.332 . S
C805 H863 0.929 . S
C806 C802 1.527 . S
C806 H864 0.959 . S
C806 H865 0.961 . S
C806 H866 0.961 . S
C807 C804 1.496 . S
C807 H867 0.960 . S
C807 H868 0.960 . S
C807 H869 0.961 . S
C808 C809 1.517 . S
C808 H871 0.961 . S
C808 H872 0.960 . S
C808 H873 0.959 . S
C809 C808 1.517 . S
C809 O857 1.468 . S
C809 H870 0.980 . S
C810 C811 1.349 . S
C810 C815 1.367 . S
C810 O857 1.408 . S
C811 C810 1.349 . S
C811 C812 1.407 . S
C811 H874 0.930 . S
C812 C811 1.407 . S
C812 C813 1.449 . S
C812 C816 1.535 . S
C813 C812 1.449 . S
C813 C814 1.384 . S
C813 C838 1.553 . S
C814 C813 1.384 . S
C814 C815 1.364 . S
C814 C817 1.450 . S
C815 C810 1.367 . S
C815 C814 1.364 . S
C815 H875 0.931 . S
C816 C812 1.535 . S
C816 H876 0.959 . S
C816 H877 0.961 . S
C816 H878 0.959 . S
C817 C814 1.450 . S
C817 H879 0.960 . S
C817 H880 0.960 . S
C817 H881 0.960 . S
C818 C819 1.309 . S
C818 C823 1.304 . S
C818 O856 1.435 . S
C819 C818 1.309 . S
C819 C820 1.476 . S
C819 H883 0.930 . S
C820 C819 1.476 . S
C820 C821 1.400 . S
C820 C824 1.567 . S
C821 C820 1.400 . S
C821 C822 1.373 . S
C821 C843 1.432 . S
C822 C821 1.373 . S
C822 C823 1.339 . S
C822 C825 1.530 . S
C823 C818 1.304 . S
C823 C822 1.339 . S
C823 H884 0.930 . S
C824 C820 1.567 . S
C824 H885 0.961 . S
C824 H886 0.960 . S
C824 H887 0.958 . S
C825 C822 1.530 . S
C825 H888 0.961 . S
C825 H889 0.960 . S
C825 H890 0.960 . S
C826 C827 1.530 . S
C826 H892 0.961 . S
C826 H893 0.961 . S
C826 H894 0.959 . S
C827 C826 1.530 . S
C827 O855 1.412 . S
C827 H891 0.980 . S
C828 C829 1.288 . S
C828 C833 1.377 . S
C828 O855 1.393 . S
C829 C828 1.288 . S
C829 C830 1.369 . S
C829 H895 0.932 . S
C830 C829 1.369 . S
C830 C831 1.398 . S
C830 C834 1.527 . S
C831 C830 1.398 . S
C831 C832 1.380 . S
C831 C845 1.497 . S
C832 C831 1.380 . S
C832 C833 1.383 . S
C832 C835 1.603 . S
C833 C828 1.377 . S
C833 C832 1.383 . S
C833 H896 0.929 . S
C834 C830 1.527 . S
C834 H897 0.961 . S
C834 H898 0.959 . S
C834 H899 0.959 . S
C835 C832 1.603 . S
C835 H900 0.960 . S
C835 H901 0.962 . S
C835 H902 0.961 . S
C836 C803 1.587 . S
C836 C837 1.360 . S
C836 C849 1.412 . S
C837 C836 1.360 . S
C837 C838 1.365 . S
C837 H903 0.929 . S
C838 C813 1.553 . S
C838 C837 1.365 . S
C838 C839 1.404 . S
C839 C838 1.404 . S
C839 C840 1.395 . S
C839 C850 1.451 . S
C840 C839 1.395 . S
C840 C841 1.322 . S
C840 H904 0.930 . S
C841 C840 1.322 . S
C841 C842 1.459 . S
C841 H905 0.929 . S
C842 C841 1.459 . S
C842 C843 1.445 . S
C842 C851 1.395 . S
C843 C821 1.432 . S
C843 C842 1.445 . S
C843 C844 1.370 . S
C844 C843 1.370 . S
C844 C845 1.438 . S
C844 H906 0.930 . S
C845 C831 1.497 . S
C845 C844 1.438 . S
C845 C846 1.360 . S
C846 C845 1.360 . S
C846 C847 1.401 . S
C846 C851 1.446 . S
C847 C846 1.401 . S
C847 C848 1.347 . S
C847 H907 0.929 . S
C848 C847 1.347 . S
C848 C849 1.455 . S
C848 H908 0.930 . S
C849 C836 1.412 . S
C849 C848 1.455 . S
C849 C850 1.331 . S
C850 C839 1.451 . S
C850 C849 1.331 . S
C850 C851 1.497 . S
C851 C842 1.395 . S
C851 C846 1.446 . S
C851 C850 1.497 . S
C852 C853 1.582 . S
C852 H909 0.962 . S
C852 H910 0.959 . S
C852 H911 0.958 . S
C853 C852 1.582 . S
C853 O856 1.458 . S
C853 H882 0.980 . S
O854 C799 1.426 . S
O854 C800 1.334 . S
O855 C827 1.412 . S
O855 C828 1.393 . S
O856 C818 1.435 . S
O856 C853 1.458 . S
O857 C809 1.468 . S
O857 C810 1.408 . S
H858 C799 0.980 . S
H859 C798 0.959 . S
H860 C798 0.959 . S
H861 C798 0.960 . S
H862 C801 0.929 . S
H863 C805 0.929 . S
H864 C806 0.959 . S
H865 C806 0.961 . S
H866 C806 0.961 . S
H867 C807 0.960 . S
H868 C807 0.960 . S
H869 C807 0.961 . S
H870 C809 0.980 . S
H871 C808 0.961 . S
H872 C808 0.960 . S
H873 C808 0.959 . S
H874 C811 0.930 . S
H875 C815 0.931 . S
H876 C816 0.959 . S
H877 C816 0.961 . S
H878 C816 0.959 . S
H879 C817 0.960 . S
H880 C817 0.960 . S
H881 C817 0.960 . S
H882 C853 0.980 . S
H883 C819 0.930 . S
H884 C823 0.930 . S
H885 C824 0.961 . S
H886 C824 0.960 . S
H887 C824 0.958 . S
H888 C825 0.961 . S
H889 C825 0.960 . S
H890 C825 0.960 . S
H891 C827 0.980 . S
H892 C826 0.961 . S
H893 C826 0.961 . S
H894 C826 0.959 . S
H895 C829 0.932 . S
H896 C833 0.929 . S
H897 C834 0.961 . S
H898 C834 0.959 . S
H899 C834 0.959 . S
H900 C835 0.960 . S
H901 C835 0.962 . S
H902 C835 0.961 . S
H903 C837 0.929 . S
H904 C840 0.930 . S
H905 C841 0.929 . S
H906 C844 0.930 . S
H907 C847 0.929 . S
H908 C848 0.930 . S
H909 C852 0.962 . S
H910 C852 0.959 . S
H911 C852 0.958 . S
C912 O914 1.247 . S
C912 O916 1.258 . S
C913 O920 1.247 . S
C913 O921 1.258 . S
O914 C912 1.247 . S
O914 Zn915 2.028 1_655 S
Zn915 O914 2.028 1_455 S
Zn915 O919 2.035 . S
Zn915 O921 2.035 . S
Zn915 O922 2.028 1_455 S
O916 C912 1.258 . S
O916 Zn917 2.035 1_655 S
Zn917 O916 2.035 1_455 S
Zn917 O918 2.028 . S
Zn917 O920 2.028 . S
Zn917 O923 2.035 1_455 S
O918 Zn917 2.028 . S
O918 C924 1.247 . S
O919 Zn915 2.035 . S
O919 C924 1.258 . S
O920 C913 1.247 . S
O920 Zn917 2.028 . S
O921 C913 1.258 . S
O921 Zn915 2.035 . S
O922 Zn915 2.028 1_655 S
O922 C925 1.247 . S
O923 Zn917 2.035 1_655 S
O923 C925 1.258 . S
C924 O918 1.247 . S
C924 O919 1.258 . S
C925 O922 1.247 . S
C925 O923 1.258 . S
C926 O928 1.247 . S
C926 O930 1.258 . S
C927 O934 1.247 . S
C927 O935 1.258 . S
O928 C926 1.247 . S
O928 Zn929 2.028 . S
Zn929 O928 2.028 . S
Zn929 O933 2.035 1_545 S
Zn929 O935 2.035 1_545 S
Zn929 O936 2.028 . S
O930 C926 1.258 . S
O930 Zn931 2.035 . S
Zn931 O930 2.035 . S
Zn931 O932 2.028 1_545 S
Zn931 O934 2.028 1_545 S
Zn931 O937 2.035 . S
O932 Zn931 2.028 1_565 S
O932 C938 1.247 . S
O933 Zn929 2.035 1_565 S
O933 C938 1.258 . S
O934 C927 1.247 . S
O934 Zn931 2.028 1_565 S
O935 C927 1.258 . S
O935 Zn929 2.035 1_565 S
O936 Zn929 2.028 . S
O936 C939 1.247 . S
O937 Zn931 2.035 . S
O937 C939 1.258 . S
C938 O932 1.247 . S
C938 O933 1.258 . S
C939 O936 1.247 . S
C939 O937 1.258 . S
C940 O942 1.247 . S
C940 O944 1.258 . S
C941 O948 1.247 . S
C941 O949 1.258 . S
O942 C940 1.247 . S
O942 Zn943 2.028 1_655 S
Zn943 O942 2.028 1_455 S
Zn943 O947 2.035 . S
Zn943 O949 2.035 . S
Zn943 O950 2.028 1_455 S
O944 C940 1.258 . S
O944 Zn945 2.035 1_655 S
Zn945 O944 2.035 1_455 S
Zn945 O946 2.028 . S
Zn945 O948 2.028 . S
Zn945 O951 2.035 1_455 S
O946 Zn945 2.028 . S
O946 C952 1.247 . S
O947 Zn943 2.035 . S
O947 C952 1.258 . S
O948 C941 1.247 . S
O948 Zn945 2.028 . S
O949 C941 1.258 . S
O949 Zn943 2.035 . S
O950 Zn943 2.028 1_655 S
O950 C953 1.247 . S
O951 Zn945 2.035 1_655 S
O951 C953 1.258 . S
C952 O946 1.247 . S
C952 O947 1.258 . S
C953 O950 1.247 . S
C953 O951 1.258 . S
C954 O956 1.247 . S
C954 O958 1.258 . S
C955 O962 1.247 . S
C955 O963 1.258 . S
O956 C954 1.247 . S
O956 Zn957 2.028 . S
Zn957 O956 2.028 . S
Zn957 O961 2.035 1_545 S
Zn957 O963 2.035 1_545 S
Zn957 O964 2.028 . S
O958 C954 1.258 . S
O958 Zn959 2.035 . S
Zn959 O958 2.035 . S
Zn959 O960 2.028 1_545 S
Zn959 O962 2.028 1_545 S
Zn959 O965 2.035 . S
O960 Zn959 2.028 1_565 S
O960 C966 1.247 . S
O961 Zn957 2.035 1_565 S
O961 C966 1.258 . S
O962 C955 1.247 . S
O962 Zn959 2.028 1_565 S
O963 C955 1.258 . S
O963 Zn957 2.035 1_565 S
O964 Zn957 2.028 . S
O964 C967 1.247 . S
O965 Zn959 2.035 . S
O965 C967 1.258 . S
C966 O960 1.247 . S
C966 O961 1.258 . S
C967 O964 1.247 . S
C967 O965 1.258 . S
C968 O970 1.247 . S
C968 O972 1.258 . S
C969 O976 1.247 . S
C969 O977 1.258 . S
O970 C968 1.247 . S
O970 Zn971 2.030 . S
Zn971 O970 2.030 . S
Zn971 O975 2.037 . S
Zn971 O977 2.033 1_554 S
Zn971 O978 2.026 1_554 S
O972 C968 1.258 . S
O972 Zn973 2.037 . S
Zn973 O972 2.037 . S
Zn973 O974 2.030 . S
Zn973 O976 2.026 1_554 S
Zn973 O979 2.033 1_554 S
O974 Zn973 2.030 . S
O974 C980 1.247 . S
O975 Zn971 2.037 . S
O975 C980 1.258 . S
O976 C969 1.247 . S
O976 Zn973 2.026 1_556 S
O977 C969 1.258 . S
O977 Zn971 2.033 1_556 S
O978 Zn971 2.026 1_556 S
O978 C981 1.247 . S
O979 Zn973 2.033 1_556 S
O979 C981 1.258 . S
C980 O974 1.247 . S
C980 O975 1.258 . S
C981 O978 1.247 . S
C981 O979 1.258 . S
C982 O984 1.247 . S
C982 O986 1.258 . S
C983 O990 1.247 . S
C983 O991 1.258 . S
O984 C982 1.247 . S
O984 Zn985 2.028 . S
Zn985 O984 2.028 . S
Zn985 O989 2.035 . S
Zn985 O991 2.035 1_554 S
Zn985 O992 2.028 1_554 S
O986 C982 1.258 . S
O986 Zn987 2.035 . S
Zn987 O986 2.035 . S
Zn987 O988 2.028 . S
Zn987 O990 2.028 1_554 S
Zn987 O993 2.035 1_554 S
O988 Zn987 2.028 . S
O988 C994 1.247 . S
O989 Zn985 2.035 . S
O989 C994 1.258 . S
O990 C983 1.247 . S
O990 Zn987 2.028 1_556 S
O991 C983 1.258 . S
O991 Zn985 2.035 1_556 S
O992 Zn985 2.028 1_556 S
O992 C995 1.247 . S
O993 Zn987 2.035 1_556 S
O993 C995 1.258 . S
C994 O988 1.247 . S
C994 O989 1.258 . S
C995 O992 1.247 . S
C995 O993 1.258 . S
C996 O998 1.247 . S
C996 O1000 1.258 . S
C997 O1004 1.247 . S
C997 O1005 1.258 . S
O998 C996 1.247 . S
O998 Zn999 2.026 1_556 S
Zn999 O998 2.026 1_554 S
Zn999 O1003 2.033 1_554 S
Zn999 O1005 2.037 . S
Zn999 O1006 2.030 . S
O1000 C996 1.258 . S
O1000 Zn1001 2.033 1_556 S
Zn1001 O1000 2.033 1_554 S
Zn1001 O1002 2.025 1_554 S
Zn1001 O1004 2.031 . S
Zn1001 O1007 2.038 . S
O1002 Zn1001 2.025 1_556 S
O1002 C1008 1.247 . S
O1003 Zn999 2.033 1_556 S
O1003 C1008 1.258 . S
O1004 C997 1.247 . S
O1004 Zn1001 2.031 . S
O1005 C997 1.258 . S
O1005 Zn999 2.037 . S
O1006 Zn999 2.030 . S
O1006 C1009 1.247 . S
O1007 Zn1001 2.038 . S
O1007 C1009 1.258 . S
C1008 O1002 1.247 . S
C1008 O1003 1.258 . S
C1009 O1006 1.247 . S
C1009 O1007 1.258 . S
C1010 O1012 1.247 . S
C1010 O1014 1.258 . S
C1011 O1018 1.247 . S
C1011 O1019 1.258 . S
O1012 C1010 1.247 . S
O1012 Zn1013 2.028 . S
Zn1013 O1012 2.028 . S
Zn1013 O1017 2.035 . S
Zn1013 O1019 2.035 1_554 S
Zn1013 O1020 2.028 1_554 S
O1014 C1010 1.258 . S
O1014 Zn1015 2.035 . S
Zn1015 O1014 2.035 . S
Zn1015 O1016 2.028 . S
Zn1015 O1018 2.028 1_554 S
Zn1015 O1021 2.035 1_554 S
O1016 Zn1015 2.028 . S
O1016 C1022 1.247 . S
O1017 Zn1013 2.035 . S
O1017 C1022 1.258 . S
O1018 C1011 1.247 . S
O1018 Zn1015 2.028 1_556 S
O1019 C1011 1.258 . S
O1019 Zn1013 2.035 1_556 S
O1020 Zn1013 2.028 1_556 S
O1020 C1023 1.247 . S
O1021 Zn1015 2.035 1_556 S
O1021 C1023 1.258 . S
C1022 O1016 1.247 . S
C1022 O1017 1.258 . S
C1023 O1020 1.247 . S
C1023 O1021 1.258 . S
C1024 C1025 1.363 . S
C1024 C1030 1.379 . S
C1024 N1032 1.356 . S
C1025 C1024 1.363 . S
C1025 C1031 1.363 . S
C1026 C1027 1.363 . S
C1026 C1031 1.379 . S
C1026 N1033 1.356 . S
C1027 C1026 1.363 . S
C1027 C1030 1.363 . S
N1028 C1030 1.356 . S
N1028 H1040 0.984 . S
N1028 H1041 0.985 . S
N1029 C1031 1.356 . S
N1029 H1034 0.984 . S
N1029 H1035 0.985 . S
C1030 C1024 1.379 . S
C1030 C1027 1.363 . S
C1030 N1028 1.356 . S
C1031 C1025 1.363 . S
C1031 C1026 1.379 . S
C1031 N1029 1.356 . S
N1032 C1024 1.356 . S
N1032 H1038 0.984 . S
N1032 H1039 0.984 . S
N1033 C1026 1.356 . S
N1033 H1036 0.984 . S
N1033 H1037 0.985 . S
H1034 N1029 0.984 . S
H1035 N1029 0.985 . S
H1036 N1033 0.984 . S
H1037 N1033 0.985 . S
H1038 N1032 0.984 . S
H1039 N1032 0.984 . S
H1040 N1028 0.984 . S
H1041 N1028 0.985 . S
C1042 C1043 1.363 . S
C1042 C1048 1.379 . S
C1042 N1050 1.356 . S
C1043 C1042 1.363 . S
C1043 C1049 1.363 . S
C1044 C1045 1.363 . S
C1044 C1049 1.379 . S
C1044 N1051 1.356 . S
C1045 C1044 1.363 . S
C1045 C1048 1.363 . S
N1046 C1048 1.356 . S
N1046 H1058 0.984 . S
N1046 H1059 0.985 . S
N1047 C1049 1.356 . S
N1047 H1052 0.984 . S
N1047 H1053 0.985 . S
C1048 C1042 1.379 . S
C1048 C1045 1.363 . S
C1048 N1046 1.356 . S
C1049 C1043 1.363 . S
C1049 C1044 1.379 . S
C1049 N1047 1.356 . S
N1050 C1042 1.356 . S
N1050 H1056 0.984 . S
N1050 H1057 0.984 . S
N1051 C1044 1.356 . S
N1051 H1054 0.984 . S
N1051 H1055 0.985 . S
H1052 N1047 0.984 . S
H1053 N1047 0.985 . S
H1054 N1051 0.984 . S
H1055 N1051 0.985 . S
H1056 N1050 0.984 . S
H1057 N1050 0.984 . S
H1058 N1046 0.984 . S
H1059 N1046 0.985 . S
C1060 C1061 1.363 . S
C1060 C1066 1.379 . S
C1060 N1068 1.356 . S
C1061 C1060 1.363 . S
C1061 C1067 1.363 . S
C1062 C1063 1.363 . S
C1062 C1067 1.379 . S
C1062 N1069 1.356 . S
C1063 C1062 1.363 . S
C1063 C1066 1.363 . S
N1064 C1066 1.356 . S
N1064 H1076 0.984 . S
N1064 H1077 0.985 . S
N1065 C1067 1.356 . S
N1065 H1070 0.984 . S
N1065 H1071 0.985 . S
C1066 C1060 1.379 . S
C1066 C1063 1.363 . S
C1066 N1064 1.356 . S
C1067 C1061 1.363 . S
C1067 C1062 1.379 . S
C1067 N1065 1.356 . S
N1068 C1060 1.356 . S
N1068 H1074 0.984 . S
N1068 H1075 0.984 . S
N1069 C1062 1.356 . S
N1069 H1072 0.984 . S
N1069 H1073 0.985 . S
H1070 N1065 0.984 . S
H1071 N1065 0.985 . S
H1072 N1069 0.984 . S
H1073 N1069 0.985 . S
H1074 N1068 0.984 . S
H1075 N1068 0.984 . S
H1076 N1064 0.984 . S
H1077 N1064 0.985 . S
C1078 C1079 1.363 . S
C1078 C1084 1.379 . S
C1078 N1086 1.356 . S
C1079 C1078 1.363 . S
C1079 C1085 1.363 . S
C1080 C1081 1.363 . S
C1080 C1085 1.379 . S
C1080 N1087 1.356 . S
C1081 C1080 1.363 . S
C1081 C1084 1.363 . S
N1082 C1084 1.356 . S
N1082 H1094 0.984 . S
N1082 H1095 0.985 . S
N1083 C1085 1.356 . S
N1083 H1088 0.984 . S
N1083 H1089 0.985 . S
C1084 C1078 1.379 . S
C1084 C1081 1.363 . S
C1084 N1082 1.356 . S
C1085 C1079 1.363 . S
C1085 C1080 1.379 . S
C1085 N1083 1.356 . S
N1086 C1078 1.356 . S
N1086 H1092 0.984 . S
N1086 H1093 0.984 . S
N1087 C1080 1.356 . S
N1087 H1090 0.984 . S
N1087 H1091 0.985 . S
H1088 N1083 0.984 . S
H1089 N1083 0.985 . S
H1090 N1087 0.984 . S
H1091 N1087 0.985 . S
H1092 N1086 0.984 . S
H1093 N1086 0.984 . S
H1094 N1082 0.984 . S
H1095 N1082 0.985 . S
C1096 C1097 1.363 . S
C1096 C1102 1.379 . S
C1096 N1104 1.356 . S
C1097 C1096 1.363 . S
C1097 C1103 1.363 . S
C1098 C1099 1.363 . S
C1098 C1103 1.379 . S
C1098 N1105 1.356 . S
C1099 C1098 1.363 . S
C1099 C1102 1.363 . S
N1100 C1102 1.356 . S
N1100 H1112 0.984 . S
N1100 H1113 0.985 . S
N1101 C1103 1.356 . S
N1101 H1106 0.984 . S
N1101 H1107 0.985 . S
C1102 C1096 1.379 . S
C1102 C1099 1.363 . S
C1102 N1100 1.356 . S
C1103 C1097 1.363 . S
C1103 C1098 1.379 . S
C1103 N1101 1.356 . S
N1104 C1096 1.356 . S
N1104 H1110 0.984 . S
N1104 H1111 0.984 . S
N1105 C1098 1.356 . S
N1105 H1108 0.984 . S
N1105 H1109 0.985 . S
H1106 N1101 0.984 . S
H1107 N1101 0.985 . S
H1108 N1105 0.984 . S
H1109 N1105 0.985 . S
H1110 N1104 0.984 . S
H1111 N1104 0.984 . S
H1112 N1100 0.984 . S
H1113 N1100 0.985 . S
C1114 C1115 1.363 . S
C1114 C1120 1.379 . S
C1114 N1122 1.356 . S
C1115 C1114 1.363 . S
C1115 C1121 1.363 . S
C1116 C1117 1.363 . S
C1116 C1121 1.379 . S
C1116 N1123 1.356 . S
C1117 C1116 1.363 . S
C1117 C1120 1.363 . S
N1118 C1120 1.356 . S
N1118 H1130 0.984 . S
N1118 H1131 0.985 . S
N1119 C1121 1.356 . S
N1119 H1124 0.984 . S
N1119 H1125 0.985 . S
C1120 C1114 1.379 . S
C1120 C1117 1.363 . S
C1120 N1118 1.356 . S
C1121 C1115 1.363 . S
C1121 C1116 1.379 . S
C1121 N1119 1.356 . S
N1122 C1114 1.356 . S
N1122 H1128 0.984 . S
N1122 H1129 0.984 . S
N1123 C1116 1.356 . S
N1123 H1126 0.984 . S
N1123 H1127 0.985 . S
H1124 N1119 0.984 . S
H1125 N1119 0.985 . S
H1126 N1123 0.984 . S
H1127 N1123 0.985 . S
H1128 N1122 0.984 . S
H1129 N1122 0.984 . S
H1130 N1118 0.984 . S
H1131 N1118 0.985 . S
C1132 C1133 1.363 . S
C1132 C1138 1.379 . S
C1132 N1140 1.356 . S
C1133 C1132 1.363 . S
C1133 C1139 1.363 . S
C1134 C1135 1.363 . S
C1134 C1139 1.379 . S
C1134 N1141 1.356 . S
C1135 C1134 1.363 . S
C1135 C1138 1.363 . S
N1136 C1138 1.356 . S
N1136 H1148 0.984 . S
N1136 H1149 0.985 . S
N1137 C1139 1.356 . S
N1137 H1142 0.984 . S
N1137 H1143 0.985 . S
C1138 C1132 1.379 . S
C1138 C1135 1.363 . S
C1138 N1136 1.356 . S
C1139 C1133 1.363 . S
C1139 C1134 1.379 . S
C1139 N1137 1.356 . S
N1140 C1132 1.356 . S
N1140 H1146 0.984 . S
N1140 H1147 0.984 . S
N1141 C1134 1.356 . S
N1141 H1144 0.984 . S
N1141 H1145 0.985 . S
H1142 N1137 0.984 . S
H1143 N1137 0.985 . S
H1144 N1141 0.984 . S
H1145 N1141 0.985 . S
H1146 N1140 0.984 . S
H1147 N1140 0.984 . S
H1148 N1136 0.984 . S
H1149 N1136 0.985 . S
C1150 C1151 1.363 . S
C1150 C1156 1.379 . S
C1150 N1158 1.356 . S
C1151 C1150 1.363 . S
C1151 C1157 1.363 . S
C1152 C1153 1.363 . S
C1152 C1157 1.379 . S
C1152 N1159 1.356 . S
C1153 C1152 1.363 . S
C1153 C1156 1.363 . S
N1154 C1156 1.356 . S
N1154 H1166 0.984 . S
N1154 H1167 0.985 . S
N1155 C1157 1.356 . S
N1155 H1160 0.984 . S
N1155 H1161 0.985 . S
C1156 C1150 1.379 . S
C1156 C1153 1.363 . S
C1156 N1154 1.356 . S
C1157 C1151 1.363 . S
C1157 C1152 1.379 . S
C1157 N1155 1.356 . S
N1158 C1150 1.356 . S
N1158 H1164 0.984 . S
N1158 H1165 0.984 . S
N1159 C1152 1.356 . S
N1159 H1162 0.984 . S
N1159 H1163 0.985 . S
H1160 N1155 0.984 . S
H1161 N1155 0.985 . S
H1162 N1159 0.984 . S
H1163 N1159 0.985 . S
H1164 N1158 0.984 . S
H1165 N1158 0.984 . S
H1166 N1154 0.984 . S
H1167 N1154 0.985 . S
C1168 C1169 1.363 . S
C1168 C1174 1.379 . S
C1168 N1176 1.356 . S
C1169 C1168 1.363 . S
C1169 C1175 1.363 . S
C1170 C1171 1.363 . S
C1170 C1175 1.379 . S
C1170 N1177 1.356 . S
C1171 C1170 1.363 . S
C1171 C1174 1.363 . S
N1172 C1174 1.356 . S
N1172 H1184 0.984 . S
N1172 H1185 0.985 . S
N1173 C1175 1.356 . S
N1173 H1178 0.984 . S
N1173 H1179 0.985 . S
C1174 C1168 1.379 . S
C1174 C1171 1.363 . S
C1174 N1172 1.356 . S
C1175 C1169 1.363 . S
C1175 C1170 1.379 . S
C1175 N1173 1.356 . S
N1176 C1168 1.356 . S
N1176 H1182 0.984 . S
N1176 H1183 0.984 . S
N1177 C1170 1.356 . S
N1177 H1180 0.984 . S
N1177 H1181 0.985 . S
H1178 N1173 0.984 . S
H1179 N1173 0.985 . S
H1180 N1177 0.984 . S
H1181 N1177 0.985 . S
H1182 N1176 0.984 . S
H1183 N1176 0.984 . S
H1184 N1172 0.984 . S
H1185 N1172 0.985 . S
C1186 C1187 1.363 . S
C1186 C1192 1.379 . S
C1186 N1194 1.356 . S
C1187 C1186 1.363 . S
C1187 C1193 1.363 . S
C1188 C1189 1.363 . S
C1188 C1193 1.379 . S
C1188 N1195 1.356 . S
C1189 C1188 1.363 . S
C1189 C1192 1.363 . S
N1190 C1192 1.356 . S
N1190 H1202 0.984 . S
N1190 H1203 0.985 . S
N1191 C1193 1.356 . S
N1191 H1196 0.984 . S
N1191 H1197 0.985 . S
C1192 C1186 1.379 . S
C1192 C1189 1.363 . S
C1192 N1190 1.356 . S
C1193 C1187 1.363 . S
C1193 C1188 1.379 . S
C1193 N1191 1.356 . S
N1194 C1186 1.356 . S
N1194 H1200 0.984 . S
N1194 H1201 0.984 . S
N1195 C1188 1.356 . S
N1195 H1198 0.984 . S
N1195 H1199 0.985 . S
H1196 N1191 0.984 . S
H1197 N1191 0.985 . S
H1198 N1195 0.984 . S
H1199 N1195 0.985 . S
H1200 N1194 0.984 . S
H1201 N1194 0.984 . S
H1202 N1190 0.984 . S
H1203 N1190 0.985 . S
C1204 C1205 1.363 . S
C1204 C1210 1.379 . S
C1204 N1212 1.356 . S
C1205 C1204 1.363 . S
C1205 C1211 1.363 . S
C1206 C1207 1.363 . S
C1206 C1211 1.379 . S
C1206 N1213 1.356 . S
C1207 C1206 1.363 . S
C1207 C1210 1.363 . S
N1208 C1210 1.356 . S
N1208 H1220 0.984 . S
N1208 H1221 0.985 . S
N1209 C1211 1.356 . S
N1209 H1214 0.984 . S
N1209 H1215 0.985 . S
C1210 C1204 1.379 . S
C1210 C1207 1.363 . S
C1210 N1208 1.356 . S
C1211 C1205 1.363 . S
C1211 C1206 1.379 . S
C1211 N1209 1.356 . S
N1212 C1204 1.356 . S
N1212 H1218 0.984 . S
N1212 H1219 0.984 . S
N1213 C1206 1.356 . S
N1213 H1216 0.984 . S
N1213 H1217 0.985 . S
H1214 N1209 0.984 . S
H1215 N1209 0.985 . S
H1216 N1213 0.984 . S
H1217 N1213 0.985 . S
H1218 N1212 0.984 . S
H1219 N1212 0.984 . S
H1220 N1208 0.984 . S
H1221 N1208 0.985 . S
C1222 C1223 1.363 . S
C1222 C1228 1.379 . S
C1222 N1230 1.356 . S
C1223 C1222 1.363 . S
C1223 C1229 1.363 . S
C1224 C1225 1.363 . S
C1224 C1229 1.379 . S
C1224 N1231 1.356 . S
C1225 C1224 1.363 . S
C1225 C1228 1.363 . S
N1226 C1228 1.356 . S
N1226 H1238 0.984 . S
N1226 H1239 0.985 . S
N1227 C1229 1.356 . S
N1227 H1232 0.984 . S
N1227 H1233 0.985 . S
C1228 C1222 1.379 . S
C1228 C1225 1.363 . S
C1228 N1226 1.356 . S
C1229 C1223 1.363 . S
C1229 C1224 1.379 . S
C1229 N1227 1.356 . S
N1230 C1222 1.356 . S
N1230 H1236 0.984 . S
N1230 H1237 0.984 . S
N1231 C1224 1.356 . S
N1231 H1234 0.984 . S
N1231 H1235 0.985 . S
H1232 N1227 0.984 . S
H1233 N1227 0.985 . S
H1234 N1231 0.984 . S
H1235 N1231 0.985 . S
H1236 N1230 0.984 . S
H1237 N1230 0.984 . S
H1238 N1226 0.984 . S
H1239 N1226 0.985 . S
C1240 C1241 1.363 . S
C1240 C1246 1.379 . S
C1240 N1248 1.356 . S
C1241 C1240 1.363 . S
C1241 C1247 1.363 . S
C1242 C1243 1.363 . S
C1242 C1247 1.379 . S
C1242 N1249 1.356 . S
C1243 C1242 1.363 . S
C1243 C1246 1.363 . S
N1244 C1246 1.356 . S
N1244 H1256 0.984 . S
N1244 H1257 0.985 . S
N1245 C1247 1.356 . S
N1245 H1250 0.984 . S
N1245 H1251 0.985 . S
C1246 C1240 1.379 . S
C1246 C1243 1.363 . S
C1246 N1244 1.356 . S
C1247 C1241 1.363 . S
C1247 C1242 1.379 . S
C1247 N1245 1.356 . S
N1248 C1240 1.356 . S
N1248 H1254 0.984 . S
N1248 H1255 0.984 . S
N1249 C1242 1.356 . S
N1249 H1252 0.984 . S
N1249 H1253 0.985 . S
H1250 N1245 0.984 . S
H1251 N1245 0.985 . S
H1252 N1249 0.984 . S
H1253 N1249 0.985 . S
H1254 N1248 0.984 . S
H1255 N1248 0.984 . S
H1256 N1244 0.984 . S
H1257 N1244 0.985 . S
C1258 C1259 1.363 . S
C1258 C1264 1.379 . S
C1258 N1266 1.356 . S
C1259 C1258 1.363 . S
C1259 C1265 1.363 . S
C1260 C1261 1.363 . S
C1260 C1265 1.379 . S
C1260 N1267 1.356 . S
C1261 C1260 1.363 . S
C1261 C1264 1.363 . S
N1262 C1264 1.356 . S
N1262 H1274 0.984 . S
N1262 H1275 0.985 . S
N1263 C1265 1.356 . S
N1263 H1268 0.984 . S
N1263 H1269 0.985 . S
C1264 C1258 1.379 . S
C1264 C1261 1.363 . S
C1264 N1262 1.356 . S
C1265 C1259 1.363 . S
C1265 C1260 1.379 . S
C1265 N1263 1.356 . S
N1266 C1258 1.356 . S
N1266 H1272 0.984 . S
N1266 H1273 0.984 . S
N1267 C1260 1.356 . S
N1267 H1270 0.984 . S
N1267 H1271 0.985 . S
H1268 N1263 0.984 . S
H1269 N1263 0.985 . S
H1270 N1267 0.984 . S
H1271 N1267 0.985 . S
H1272 N1266 0.984 . S
H1273 N1266 0.984 . S
H1274 N1262 0.984 . S
H1275 N1262 0.985 . S
C1276 C1277 1.363 . S
C1276 C1282 1.379 . S
C1276 N1284 1.356 . S
C1277 C1276 1.363 . S
C1277 C1283 1.363 . S
C1278 C1279 1.363 . S
C1278 C1283 1.379 . S
C1278 N1285 1.356 . S
C1279 C1278 1.363 . S
C1279 C1282 1.363 . S
N1280 C1282 1.356 . S
N1280 H1292 0.984 . S
N1280 H1293 0.985 . S
N1281 C1283 1.356 . S
N1281 H1286 0.984 . S
N1281 H1287 0.985 . S
C1282 C1276 1.379 . S
C1282 C1279 1.363 . S
C1282 N1280 1.356 . S
C1283 C1277 1.363 . S
C1283 C1278 1.379 . S
C1283 N1281 1.356 . S
N1284 C1276 1.356 . S
N1284 H1290 0.984 . S
N1284 H1291 0.984 . S
N1285 C1278 1.356 . S
N1285 H1288 0.984 . S
N1285 H1289 0.985 . S
H1286 N1281 0.984 . S
H1287 N1281 0.985 . S
H1288 N1285 0.984 . S
H1289 N1285 0.985 . S
H1290 N1284 0.984 . S
H1291 N1284 0.984 . S
H1292 N1280 0.984 . S
H1293 N1280 0.985 . S
C1294 C1295 1.363 . S
C1294 C1300 1.379 . S
C1294 N1302 1.356 . S
C1295 C1294 1.363 . S
C1295 C1301 1.363 . S
C1296 C1297 1.363 . S
C1296 C1301 1.379 . S
C1296 N1303 1.356 . S
C1297 C1296 1.363 . S
C1297 C1300 1.363 . S
N1298 C1300 1.356 . S
N1298 H1310 0.984 . S
N1298 H1311 0.985 . S
N1299 C1301 1.356 . S
N1299 H1304 0.984 . S
N1299 H1305 0.985 . S
C1300 C1294 1.379 . S
C1300 C1297 1.363 . S
C1300 N1298 1.356 . S
C1301 C1295 1.363 . S
C1301 C1296 1.379 . S
C1301 N1299 1.356 . S
N1302 C1294 1.356 . S
N1302 H1308 0.984 . S
N1302 H1309 0.984 . S
N1303 C1296 1.356 . S
N1303 H1306 0.984 . S
N1303 H1307 0.985 . S
H1304 N1299 0.984 . S
H1305 N1299 0.985 . S
H1306 N1303 0.984 . S
H1307 N1303 0.985 . S
H1308 N1302 0.984 . S
H1309 N1302 0.984 . S
H1310 N1298 0.984 . S
H1311 N1298 0.985 . S
C1312 C1313 1.363 . S
C1312 C1318 1.379 . S
C1312 N1320 1.356 . S
C1313 C1312 1.363 . S
C1313 C1319 1.363 . S
C1314 C1315 1.363 . S
C1314 C1319 1.379 . S
C1314 N1321 1.356 . S
C1315 C1314 1.363 . S
C1315 C1318 1.363 . S
N1316 C1318 1.356 . S
N1316 H1328 0.984 . S
N1316 H1329 0.985 . S
N1317 C1319 1.356 . S
N1317 H1322 0.984 . S
N1317 H1323 0.985 . S
C1318 C1312 1.379 . S
C1318 C1315 1.363 . S
C1318 N1316 1.356 . S
C1319 C1313 1.363 . S
C1319 C1314 1.379 . S
C1319 N1317 1.356 . S
N1320 C1312 1.356 . S
N1320 H1326 0.984 . S
N1320 H1327 0.984 . S
N1321 C1314 1.356 . S
N1321 H1324 0.984 . S
N1321 H1325 0.985 . S
H1322 N1317 0.984 . S
H1323 N1317 0.985 . S
H1324 N1321 0.984 . S
H1325 N1321 0.985 . S
H1326 N1320 0.984 . S
H1327 N1320 0.984 . S
H1328 N1316 0.984 . S
H1329 N1316 0.985 . S
C1330 C1331 1.363 . S
C1330 C1336 1.379 . S
C1330 N1338 1.356 . S
C1331 C1330 1.363 . S
C1331 C1337 1.363 . S
C1332 C1333 1.363 . S
C1332 C1337 1.379 . S
C1332 N1339 1.356 . S
C1333 C1332 1.363 . S
C1333 C1336 1.363 . S
N1334 C1336 1.356 . S
N1334 H1346 0.984 . S
N1334 H1347 0.985 . S
N1335 C1337 1.356 . S
N1335 H1340 0.984 . S
N1335 H1341 0.985 . S
C1336 C1330 1.379 . S
C1336 C1333 1.363 . S
C1336 N1334 1.356 . S
C1337 C1331 1.363 . S
C1337 C1332 1.379 . S
C1337 N1335 1.356 . S
N1338 C1330 1.356 . S
N1338 H1344 0.984 . S
N1338 H1345 0.984 . S
N1339 C1332 1.356 . S
N1339 H1342 0.984 . S
N1339 H1343 0.985 . S
H1340 N1335 0.984 . S
H1341 N1335 0.985 . S
H1342 N1339 0.984 . S
H1343 N1339 0.985 . S
H1344 N1338 0.984 . S
H1345 N1338 0.984 . S
H1346 N1334 0.984 . S
H1347 N1334 0.985 . S
C1348 C1349 1.363 . S
C1348 C1354 1.379 . S
C1348 N1356 1.356 . S
C1349 C1348 1.363 . S
C1349 C1355 1.363 . S
C1350 C1351 1.363 . S
C1350 C1355 1.379 . S
C1350 N1357 1.356 . S
C1351 C1350 1.363 . S
C1351 C1354 1.363 . S
N1352 C1354 1.356 . S
N1352 H1364 0.984 . S
N1352 H1365 0.985 . S
N1353 C1355 1.356 . S
N1353 H1358 0.984 . S
N1353 H1359 0.985 . S
C1354 C1348 1.379 . S
C1354 C1351 1.363 . S
C1354 N1352 1.356 . S
C1355 C1349 1.363 . S
C1355 C1350 1.379 . S
C1355 N1353 1.356 . S
N1356 C1348 1.356 . S
N1356 H1362 0.984 . S
N1356 H1363 0.984 . S
N1357 C1350 1.356 . S
N1357 H1360 0.984 . S
N1357 H1361 0.985 . S
H1358 N1353 0.984 . S
H1359 N1353 0.985 . S
H1360 N1357 0.984 . S
H1361 N1357 0.985 . S
H1362 N1356 0.984 . S
H1363 N1356 0.984 . S
H1364 N1352 0.984 . S
H1365 N1352 0.985 . S
C1366 C1367 1.363 . S
C1366 C1372 1.379 . S
C1366 N1374 1.356 . S
C1367 C1366 1.363 . S
C1367 C1373 1.363 . S
C1368 C1369 1.363 . S
C1368 C1373 1.379 . S
C1368 N1375 1.356 . S
C1369 C1368 1.363 . S
C1369 C1372 1.363 . S
N1370 C1372 1.356 . S
N1370 H1382 0.984 . S
N1370 H1383 0.985 . S
N1371 C1373 1.356 . S
N1371 H1376 0.984 . S
N1371 H1377 0.985 . S
C1372 C1366 1.379 . S
C1372 C1369 1.363 . S
C1372 N1370 1.356 . S
C1373 C1367 1.363 . S
C1373 C1368 1.379 . S
C1373 N1371 1.356 . S
N1374 C1366 1.356 . S
N1374 H1380 0.984 . S
N1374 H1381 0.984 . S
N1375 C1368 1.356 . S
N1375 H1378 0.984 . S
N1375 H1379 0.985 . S
H1376 N1371 0.984 . S
H1377 N1371 0.985 . S
H1378 N1375 0.984 . S
H1379 N1375 0.985 . S
H1380 N1374 0.984 . S
H1381 N1374 0.984 . S
H1382 N1370 0.984 . S
H1383 N1370 0.985 . S
C1384 C1385 1.363 . S
C1384 C1390 1.379 . S
C1384 N1392 1.356 . S
C1385 C1384 1.363 . S
C1385 C1391 1.363 . S
C1386 C1387 1.363 . S
C1386 C1391 1.379 . S
C1386 N1393 1.356 . S
C1387 C1386 1.363 . S
C1387 C1390 1.363 . S
N1388 C1390 1.356 . S
N1388 H1400 0.984 . S
N1388 H1401 0.985 . S
N1389 C1391 1.356 . S
N1389 H1394 0.984 . S
N1389 H1395 0.985 . S
C1390 C1384 1.379 . S
C1390 C1387 1.363 . S
C1390 N1388 1.356 . S
C1391 C1385 1.363 . S
C1391 C1386 1.379 . S
C1391 N1389 1.356 . S
N1392 C1384 1.356 . S
N1392 H1398 0.984 . S
N1392 H1399 0.984 . S
N1393 C1386 1.356 . S
N1393 H1396 0.984 . S
N1393 H1397 0.985 . S
H1394 N1389 0.984 . S
H1395 N1389 0.985 . S
H1396 N1393 0.984 . S
H1397 N1393 0.985 . S
H1398 N1392 0.984 . S
H1399 N1392 0.984 . S
H1400 N1388 0.984 . S
H1401 N1388 0.985 . S
C1402 C1403 1.363 . S
C1402 C1408 1.379 . S
C1402 N1410 1.356 . S
C1403 C1402 1.363 . S
C1403 C1409 1.363 . S
C1404 C1405 1.363 . S
C1404 C1409 1.379 . S
C1404 N1411 1.356 . S
C1405 C1404 1.363 . S
C1405 C1408 1.363 . S
N1406 C1408 1.356 . S
N1406 H1418 0.984 . S
N1406 H1419 0.985 . S
N1407 C1409 1.356 . S
N1407 H1412 0.984 . S
N1407 H1413 0.985 . S
C1408 C1402 1.379 . S
C1408 C1405 1.363 . S
C1408 N1406 1.356 . S
C1409 C1403 1.363 . S
C1409 C1404 1.379 . S
C1409 N1407 1.356 . S
N1410 C1402 1.356 . S
N1410 H1416 0.984 . S
N1410 H1417 0.984 . S
N1411 C1404 1.356 . S
N1411 H1414 0.984 . S
N1411 H1415 0.985 . S
H1412 N1407 0.984 . S
H1413 N1407 0.985 . S
H1414 N1411 0.984 . S
H1415 N1411 0.985 . S
H1416 N1410 0.984 . S
H1417 N1410 0.984 . S
H1418 N1406 0.984 . S
H1419 N1406 0.985 . S
C1420 C1421 1.363 . S
C1420 C1426 1.379 . S
C1420 N1428 1.356 . S
C1421 C1420 1.363 . S
C1421 C1427 1.363 . S
C1422 C1423 1.363 . S
C1422 C1427 1.379 . S
C1422 N1429 1.356 . S
C1423 C1422 1.363 . S
C1423 C1426 1.363 . S
N1424 C1426 1.356 . S
N1424 H1436 0.984 . S
N1424 H1437 0.985 . S
N1425 C1427 1.356 . S
N1425 H1430 0.984 . S
N1425 H1431 0.985 . S
C1426 C1420 1.379 . S
C1426 C1423 1.363 . S
C1426 N1424 1.356 . S
C1427 C1421 1.363 . S
C1427 C1422 1.379 . S
C1427 N1425 1.356 . S
N1428 C1420 1.356 . S
N1428 H1434 0.984 . S
N1428 H1435 0.984 . S
N1429 C1422 1.356 . S
N1429 H1432 0.984 . S
N1429 H1433 0.985 . S
H1430 N1425 0.984 . S
H1431 N1425 0.985 . S
H1432 N1429 0.984 . S
H1433 N1429 0.985 . S
H1434 N1428 0.984 . S
H1435 N1428 0.984 . S
H1436 N1424 0.984 . S
H1437 N1424 0.985 . S
C1438 C1439 1.363 . S
C1438 C1444 1.379 . S
C1438 N1446 1.356 . S
C1439 C1438 1.363 . S
C1439 C1445 1.363 . S
C1440 C1441 1.363 . S
C1440 C1445 1.379 . S
C1440 N1447 1.356 . S
C1441 C1440 1.363 . S
C1441 C1444 1.363 . S
N1442 C1444 1.356 . S
N1442 H1454 0.984 . S
N1442 H1455 0.985 . S
N1443 C1445 1.356 . S
N1443 H1448 0.984 . S
N1443 H1449 0.985 . S
C1444 C1438 1.379 . S
C1444 C1441 1.363 . S
C1444 N1442 1.356 . S
C1445 C1439 1.363 . S
C1445 C1440 1.379 . S
C1445 N1443 1.356 . S
N1446 C1438 1.356 . S
N1446 H1452 0.984 . S
N1446 H1453 0.984 . S
N1447 C1440 1.356 . S
N1447 H1450 0.984 . S
N1447 H1451 0.985 . S
H1448 N1443 0.984 . S
H1449 N1443 0.985 . S
H1450 N1447 0.984 . S
H1451 N1447 0.985 . S
H1452 N1446 0.984 . S
H1453 N1446 0.984 . S
H1454 N1442 0.984 . S
H1455 N1442 0.985 . S
C1456 C1457 1.363 . S
C1456 C1462 1.379 . S
C1456 N1464 1.356 . S
C1457 C1456 1.363 . S
C1457 C1463 1.363 . S
C1458 C1459 1.363 . S
C1458 C1463 1.379 . S
C1458 N1465 1.356 . S
C1459 C1458 1.363 . S
C1459 C1462 1.363 . S
N1460 C1462 1.356 . S
N1460 H1472 0.984 . S
N1460 H1473 0.985 . S
N1461 C1463 1.356 . S
N1461 H1466 0.984 . S
N1461 H1467 0.985 . S
C1462 C1456 1.379 . S
C1462 C1459 1.363 . S
C1462 N1460 1.356 . S
C1463 C1457 1.363 . S
C1463 C1458 1.379 . S
C1463 N1461 1.356 . S
N1464 C1456 1.356 . S
N1464 H1470 0.984 . S
N1464 H1471 0.984 . S
N1465 C1458 1.356 . S
N1465 H1468 0.984 . S
N1465 H1469 0.985 . S
H1466 N1461 0.984 . S
H1467 N1461 0.985 . S
H1468 N1465 0.984 . S
H1469 N1465 0.985 . S
H1470 N1464 0.984 . S
H1471 N1464 0.984 . S
H1472 N1460 0.984 . S
H1473 N1460 0.985 . S
C1474 C1475 1.363 . S
C1474 C1480 1.379 . S
C1474 N1482 1.356 . S
C1475 C1474 1.363 . S
C1475 C1481 1.363 . S
C1476 C1477 1.363 . S
C1476 C1481 1.379 . S
C1476 N1483 1.356 . S
C1477 C1476 1.363 . S
C1477 C1480 1.363 . S
N1478 C1480 1.356 . S
N1478 H1490 0.984 . S
N1478 H1491 0.985 . S
N1479 C1481 1.356 . S
N1479 H1484 0.984 . S
N1479 H1485 0.985 . S
C1480 C1474 1.379 . S
C1480 C1477 1.363 . S
C1480 N1478 1.356 . S
C1481 C1475 1.363 . S
C1481 C1476 1.379 . S
C1481 N1479 1.356 . S
N1482 C1474 1.356 . S
N1482 H1488 0.984 . S
N1482 H1489 0.984 . S
N1483 C1476 1.356 . S
N1483 H1486 0.984 . S
N1483 H1487 0.985 . S
H1484 N1479 0.984 . S
H1485 N1479 0.985 . S
H1486 N1483 0.984 . S
H1487 N1483 0.985 . S
H1488 N1482 0.984 . S
H1489 N1482 0.984 . S
H1490 N1478 0.984 . S
H1491 N1478 0.985 . S
C1492 C1493 1.363 . S
C1492 C1498 1.379 . S
C1492 N1500 1.356 . S
C1493 C1492 1.363 . S
C1493 C1499 1.363 . S
C1494 C1495 1.363 . S
C1494 C1499 1.379 . S
C1494 N1501 1.356 . S
C1495 C1494 1.363 . S
C1495 C1498 1.363 . S
N1496 C1498 1.356 . S
N1496 H1508 0.984 . S
N1496 H1509 0.985 . S
N1497 C1499 1.356 . S
N1497 H1502 0.984 . S
N1497 H1503 0.985 . S
C1498 C1492 1.379 . S
C1498 C1495 1.363 . S
C1498 N1496 1.356 . S
C1499 C1493 1.363 . S
C1499 C1494 1.379 . S
C1499 N1497 1.356 . S
N1500 C1492 1.356 . S
N1500 H1506 0.984 . S
N1500 H1507 0.984 . S
N1501 C1494 1.356 . S
N1501 H1504 0.984 . S
N1501 H1505 0.985 . S
H1502 N1497 0.984 . S
H1503 N1497 0.985 . S
H1504 N1501 0.984 . S
H1505 N1501 0.985 . S
H1506 N1500 0.984 . S
H1507 N1500 0.984 . S
H1508 N1496 0.984 . S
H1509 N1496 0.985 . S
C1510 C1511 1.363 . S
C1510 C1516 1.379 . S
C1510 N1518 1.356 . S
C1511 C1510 1.363 . S
C1511 C1517 1.363 . S
C1512 C1513 1.363 . S
C1512 C1517 1.379 . S
C1512 N1519 1.356 . S
C1513 C1512 1.363 . S
C1513 C1516 1.363 . S
N1514 C1516 1.356 . S
N1514 H1526 0.984 . S
N1514 H1527 0.985 . S
N1515 C1517 1.356 . S
N1515 H1520 0.984 . S
N1515 H1521 0.985 . S
C1516 C1510 1.379 . S
C1516 C1513 1.363 . S
C1516 N1514 1.356 . S
C1517 C1511 1.363 . S
C1517 C1512 1.379 . S
C1517 N1515 1.356 . S
N1518 C1510 1.356 . S
N1518 H1524 0.984 . S
N1518 H1525 0.984 . S
N1519 C1512 1.356 . S
N1519 H1522 0.984 . S
N1519 H1523 0.985 . S
H1520 N1515 0.984 . S
H1521 N1515 0.985 . S
H1522 N1519 0.984 . S
H1523 N1519 0.985 . S
H1524 N1518 0.984 . S
H1525 N1518 0.984 . S
H1526 N1514 0.984 . S
H1527 N1514 0.985 . S
C1528 C1529 1.363 . S
C1528 C1534 1.379 . S
C1528 N1536 1.356 . S
C1529 C1528 1.363 . S
C1529 C1535 1.363 . S
C1530 C1531 1.363 . S
C1530 C1535 1.379 . S
C1530 N1537 1.356 . S
C1531 C1530 1.363 . S
C1531 C1534 1.363 . S
N1532 C1534 1.356 . S
N1532 H1544 0.984 . S
N1532 H1545 0.985 . S
N1533 C1535 1.356 . S
N1533 H1538 0.984 . S
N1533 H1539 0.985 . S
C1534 C1528 1.379 . S
C1534 C1531 1.363 . S
C1534 N1532 1.356 . S
C1535 C1529 1.363 . S
C1535 C1530 1.379 . S
C1535 N1533 1.356 . S
N1536 C1528 1.356 . S
N1536 H1542 0.984 . S
N1536 H1543 0.984 . S
N1537 C1530 1.356 . S
N1537 H1540 0.984 . S
N1537 H1541 0.985 . S
H1538 N1533 0.984 . S
H1539 N1533 0.985 . S
H1540 N1537 0.984 . S
H1541 N1537 0.985 . S
H1542 N1536 0.984 . S
H1543 N1536 0.984 . S
H1544 N1532 0.984 . S
H1545 N1532 0.985 . S
C1546 C1547 1.363 . S
C1546 C1552 1.379 . S
C1546 N1554 1.356 . S
C1547 C1546 1.363 . S
C1547 C1553 1.363 . S
C1548 C1549 1.363 . S
C1548 C1553 1.379 . S
C1548 N1555 1.356 . S
C1549 C1548 1.363 . S
C1549 C1552 1.363 . S
N1550 C1552 1.356 . S
N1550 H1562 0.984 . S
N1550 H1563 0.985 . S
N1551 C1553 1.356 . S
N1551 H1556 0.984 . S
N1551 H1557 0.985 . S
C1552 C1546 1.379 . S
C1552 C1549 1.363 . S
C1552 N1550 1.356 . S
C1553 C1547 1.363 . S
C1553 C1548 1.379 . S
C1553 N1551 1.356 . S
N1554 C1546 1.356 . S
N1554 H1560 0.984 . S
N1554 H1561 0.984 . S
N1555 C1548 1.356 . S
N1555 H1558 0.984 . S
N1555 H1559 0.985 . S
H1556 N1551 0.984 . S
H1557 N1551 0.985 . S
H1558 N1555 0.984 . S
H1559 N1555 0.985 . S
H1560 N1554 0.984 . S
H1561 N1554 0.984 . S
H1562 N1550 0.984 . S
H1563 N1550 0.985 . S
C1564 C1565 1.363 . S
C1564 C1570 1.379 . S
C1564 N1572 1.356 . S
C1565 C1564 1.363 . S
C1565 C1571 1.363 . S
C1566 C1567 1.363 . S
C1566 C1571 1.379 . S
C1566 N1573 1.356 . S
C1567 C1566 1.363 . S
C1567 C1570 1.363 . S
N1568 C1570 1.356 . S
N1568 H1580 0.984 . S
N1568 H1581 0.985 . S
N1569 C1571 1.356 . S
N1569 H1574 0.984 . S
N1569 H1575 0.985 . S
C1570 C1564 1.379 . S
C1570 C1567 1.363 . S
C1570 N1568 1.356 . S
C1571 C1565 1.363 . S
C1571 C1566 1.379 . S
C1571 N1569 1.356 . S
N1572 C1564 1.356 . S
N1572 H1578 0.984 . S
N1572 H1579 0.984 . S
N1573 C1566 1.356 . S
N1573 H1576 0.984 . S
N1573 H1577 0.985 . S
H1574 N1569 0.984 . S
H1575 N1569 0.985 . S
H1576 N1573 0.984 . S
H1577 N1573 0.985 . S
H1578 N1572 0.984 . S
H1579 N1572 0.984 . S
H1580 N1568 0.984 . S
H1581 N1568 0.985 . S
C1582 C1583 1.363 . S
C1582 C1588 1.379 . S
C1582 N1590 1.356 . S
C1583 C1582 1.363 . S
C1583 C1589 1.363 . S
C1584 C1585 1.363 . S
C1584 C1589 1.379 . S
C1584 N1591 1.356 . S
C1585 C1584 1.363 . S
C1585 C1588 1.363 . S
N1586 C1588 1.356 . S
N1586 H1598 0.984 . S
N1586 H1599 0.985 . S
N1587 C1589 1.356 . S
N1587 H1592 0.984 . S
N1587 H1593 0.985 . S
C1588 C1582 1.379 . S
C1588 C1585 1.363 . S
C1588 N1586 1.356 . S
C1589 C1583 1.363 . S
C1589 C1584 1.379 . S
C1589 N1587 1.356 . S
N1590 C1582 1.356 . S
N1590 H1596 0.984 . S
N1590 H1597 0.984 . S
N1591 C1584 1.356 . S
N1591 H1594 0.984 . S
N1591 H1595 0.985 . S
H1592 N1587 0.984 . S
H1593 N1587 0.985 . S
H1594 N1591 0.984 . S
H1595 N1591 0.985 . S
H1596 N1590 0.984 . S
H1597 N1590 0.984 . S
H1598 N1586 0.984 . S
H1599 N1586 0.985 . S
C1027 C913 1.527 . S
C1025 C29 1.211 . S
C1045 C939 1.667 . S
C1043 C125 0.899 . S
C1063 C953 1.526 . S
C1061 C257 1.211 . S
C1081 C955 1.667 . S
C1079 C353 0.899 . S
C1097 C457 1.175 . S
C1099 C952 1.488 . S
C1117 C954 1.647 . S
C1115 C625 1.347 . S
C1135 C912 1.487 . S
C1133 C685 1.175 . S
C1153 C938 1.646 . S
C1151 C853 1.347 . S
C1171 C940 1.701 . S
C1169 C809 1.119 . S
C1189 C966 1.506 . S
C1187 C485 1.234 . S
C1207 C924 1.701 . S
C1205 C581 1.119 . S
C1225 C926 1.506 . S
C1223 C713 1.235 . S
C1243 C925 1.672 . S
C1241 C169 1.235 . S
C1261 C927 1.474 . S
C1259 C229 1.158 . S
C1279 C941 1.673 . S
C1277 C397 1.235 . S
C1297 C967 1.474 . S
C1295 C1 1.158 . S
C1315 C969 1.527 . S
C1313 C827 1.211 . S
C1331 C467 0.899 . S
C1333 C995 1.667 . S
C1349 C599 1.210 . S
C1351 C1008 1.527 . S
C1367 C695 0.899 . S
C1369 C1011 1.667 . S
C1385 C115 1.175 . S
C1387 C1009 1.487 . S
C1403 C283 1.348 . S
C1405 C1010 1.647 . S
C1421 C343 1.175 . S
C1423 C968 1.488 . S
C1441 C994 1.647 . S
C1439 C55 1.348 . S
C1459 C997 1.703 . S
C1457 C11 1.119 . S
C1475 C143 1.235 . S
C1477 C1022 1.506 . S
C1493 C239 1.119 . S
C1495 C980 1.701 . S
C1511 C371 1.235 . S
C1513 C982 1.506 . S
C1531 C981 1.673 . S
C1529 C511 1.235 . S
C1549 C983 1.474 . S
C1547 C571 1.158 . S
C1565 C739 1.235 . S
C1567 C996 1.671 . S
C1585 C1023 1.474 . S
C1583 C799 1.158 . S
