# Generated by pormake.
# Topology anh, (6,3)-cn, num edge types: 1
# Building blocks:
#     Node 0, Type 0, BuildingBlock: BETDIP_clean_sbu_0, # of connection points: 6
#     Node 1, Type 0, BuildingBlock: BETDIP_clean_sbu_0, # of connection points: 6
#     Node 2, Type 0, BuildingBlock: BETDIP_clean_sbu_0, # of connection points: 6
#     Node 3, Type 1, BuildingBlock: ESEHIV_clean_linker_0, # of connection points: 3
#     Node 4, Type 1, BuildingBlock: ESEHIV_clean_linker_0, # of connection points: 3
#     Node 5, Type 1, BuildingBlock: ESEHIV_clean_linker_0, # of connection points: 3
#     Node 6, Type 1, BuildingBlock: ESEHIV_clean_linker_0, # of connection points: 3
#     Node 7, Type 1, BuildingBlock: ESEHIV_clean_linker_0, # of connection points: 3
#     Node 8, Type 1, BuildingBlock: ESEHIV_clean_linker_0, # of connection points: 3
#     Edge 9, Type (0, 1), BuildingBlock: MIFKUJ_clean_linker_0, # of connection points: 2
#     Edge 10, Type (0, 1), BuildingBlock: MIFKUJ_clean_linker_0, # of connection points: 2
#     Edge 11, Type (0, 1), BuildingBlock: MIFKUJ_clean_linker_0, # of connection points: 2
#     Edge 12, Type (0, 1), BuildingBlock: MIFKUJ_clean_linker_0, # of connection points: 2
#     Edge 13, Type (0, 1), BuildingBlock: MIFKUJ_clean_linker_0, # of connection points: 2
#     Edge 14, Type (0, 1), BuildingBlock: MIFKUJ_clean_linker_0, # of connection points: 2
#     Edge 15, Type (0, 1), BuildingBlock: MIFKUJ_clean_linker_0, # of connection points: 2
#     Edge 16, Type (0, 1), BuildingBlock: MIFKUJ_clean_linker_0, # of connection points: 2
#     Edge 17, Type (0, 1), BuildingBlock: MIFKUJ_clean_linker_0, # of connection points: 2
#     Edge 18, Type (0, 1), BuildingBlock: MIFKUJ_clean_linker_0, # of connection points: 2
#     Edge 19, Type (0, 1), BuildingBlock: MIFKUJ_clean_linker_0, # of connection points: 2
#     Edge 20, Type (0, 1), BuildingBlock: MIFKUJ_clean_linker_0, # of connection points: 2
#     Edge 21, Type (0, 1), BuildingBlock: MIFKUJ_clean_linker_0, # of connection points: 2
#     Edge 22, Type (0, 1), BuildingBlock: MIFKUJ_clean_linker_0, # of connection points: 2
#     Edge 23, Type (0, 1), BuildingBlock: MIFKUJ_clean_linker_0, # of connection points: 2
#     Edge 24, Type (0, 1), BuildingBlock: MIFKUJ_clean_linker_0, # of connection points: 2
#     Edge 25, Type (0, 1), BuildingBlock: MIFKUJ_clean_linker_0, # of connection points: 2
#     Edge 26, Type (0, 1), BuildingBlock: MIFKUJ_clean_linker_0, # of connection points: 2
# Relax obj value: 0.241
# Max RMSD: 0.183
# Mean RMSD: 0.155
data_MOF--net-anh--node1-BETDIP_clean_sbu_0--node2-ESEHIV_clean_linker_0--edge1-MIFKUJ_clean_linker_0
_symmetry_space_group_name_H-M    P1
_symmetry_Int_Tables_number       1
_symmetry_cell_setting            triclinic
loop_
_symmetry_equiv_pos_as_xyz
'x, y, z'
_cell_length_a     36.4034
_cell_length_b     36.480605
_cell_length_c     66.913452
_cell_angle_alpha  89.703852
_cell_angle_beta   89.795945
_cell_angle_gamma 119.83609
loop_
_atom_site_label
_atom_site_type_symbol
_atom_site_fract_x
_atom_site_fract_y
_atom_site_fract_z
_atom_type_partial_charge
Tb0 Tb 0.16291 0.61682 0.17542 0.0
Tb1 Tb 0.11926 0.52603 0.16374 0.0
C2 C 0.20984 0.68198 0.19474 0.0
C3 C 0.25588 0.70964 0.19578 0.0
C4 C 0.27442 0.72697 0.21417 0.0
C5 C 0.31775 0.75557 0.21524 0.0
C6 C 0.34305 0.76747 0.19787 0.0
C7 C 0.32482 0.74831 0.17964 0.0
C8 C 0.28154 0.71927 0.17862 0.0
C9 C 0.14883 0.60452 0.13725 0.0
C10 C 0.21796 0.57074 0.16423 0.0
C11 C 1.06578 0.45765 0.14879 0.0
C12 C 1.01954 0.44009 0.1507 0.0
C13 C 0.99534 0.43676 0.13375 0.0
C14 C 0.95496 0.43221 0.13593 0.0
C15 C 0.93862 0.43144 0.15508 0.0
C16 C 0.9615 0.43168 0.17192 0.0
C17 C 1.0014 0.43578 0.16978 0.0
C18 C 0.12978 0.54026 0.20258 0.0
C19 C 1.06589 0.57521 0.16829 0.0
O20 O 0.1954 0.64376 0.20195 0.0
O21 O 0.19203 0.68249 0.17783 0.0
O22 O 0.15936 0.58394 0.14882 0.0
O23 O 0.15035 0.63627 0.14666 0.0
O24 O 0.21665 0.60419 0.17137 0.0
O25 O 0.183 0.53643 0.15847 0.0
O26 O 1.08533 0.49277 0.13841 0.0
O27 O 1.08592 0.45971 0.1653 0.0
O28 O 0.11983 0.55956 0.19003 0.0
O29 O 0.13162 0.50984 0.19364 0.0
O30 O 1.06913 0.54314 0.16107 0.0
O31 O 1.09814 0.6065 0.17777 0.0
H32 H 0.25515 0.71941 0.22758 0.0
H33 H 0.33093 0.77034 0.22943 0.0
H34 H 0.34377 0.75699 0.16608 0.0
H35 H 0.26793 0.70543 0.16434 0.0
H36 H 1.00879 0.4406 0.1189 0.0
H37 H 0.93773 0.43203 0.12273 0.0
H38 H 0.94918 0.43042 0.18683 0.0
H39 H 1.01909 0.43849 0.18321 0.0
Tb40 Tb 0.66411 0.07535 0.50257 0.0
Tb41 Tb 0.61457 0.11956 0.49943 0.0
C42 C 0.69007 1.02628 0.51318 0.0
C43 C 0.67374 0.98105 0.50982 0.0
C44 C 0.63005 0.95222 0.51049 0.0
C45 C 0.61459 0.91012 0.50536 0.0
C46 C 0.64259 0.896 0.49972 0.0
C47 C 0.68635 0.92465 0.49936 0.0
C48 C 0.70179 0.96698 0.50426 0.0
C49 C 0.6556 0.0961 0.46604 0.0
C50 C 0.56104 1.02088 0.49807 0.0
C51 C 0.59028 0.1702 0.48904 0.0
C52 C 0.61475 0.21445 0.48208 0.0
C53 C 0.60499 0.22665 0.4638 0.0
C54 C 0.63057 0.26771 0.45629 0.0
C55 C 0.66668 0.29667 0.4668 0.0
C56 C 0.67591 0.28461 0.48519 0.0
C57 C 0.65021 0.24399 0.49278 0.0
C58 C 0.62175 0.09677 0.53594 0.0
C59 C 0.71712 0.1728 0.49978 0.0
O60 O 0.66729 1.03629 0.52476 0.0
O61 O 0.70344 1.0498 0.49705 0.0
O62 O 0.6282 0.08279 0.47971 0.0
O63 O 0.68899 0.09545 0.47213 0.0
O64 O 0.59758 1.0216 0.50113 0.0
O65 O 0.55995 1.05642 0.49573 0.0
O66 O 0.59099 0.1425 0.47699 0.0
O67 O 0.59538 0.16287 0.50772 0.0
O68 O 0.65077 0.11228 0.52285 0.0
O69 O 0.58796 0.09554 0.52899 0.0
O70 O 0.68105 0.17055 0.4942 0.0
O71 O 0.71718 0.13901 0.50699 0.0
H72 H 0.60772 0.96208 0.51494 0.0
H73 H 0.58077 0.88839 0.5062 0.0
H74 H 0.70852 0.91434 0.49516 0.0
H75 H 0.73557 0.98885 0.5035 0.0
H76 H 0.57795 0.20427 0.45522 0.0
H77 H 0.62256 0.27668 0.44221 0.0
H78 H 0.703 0.30679 0.49379 0.0
H79 H 0.65876 0.23558 0.50687 0.0
Tb80 Tb 0.62191 0.57767 0.84228 0.0
Tb81 Tb 0.7103 0.63009 0.82718 0.0
C82 C 0.55608 0.54718 0.86327 0.0
C83 C 0.52168 0.55538 0.86803 0.0
C84 C 0.50068 0.54051 0.8863 0.0
C85 C 0.46524 0.54403 0.89077 0.0
C86 C 0.44976 0.56169 0.87678 0.0
C87 C 0.47141 0.57762 0.85858 0.0
C88 C 0.50764 0.57494 0.8543 0.0
C89 C 0.63065 0.57479 0.80372 0.0
C90 C 0.65866 0.67745 0.832 0.0
C91 C 0.77724 0.65962 0.80688 0.0
C92 C 0.79704 0.63957 0.79558 0.0
C93 C 0.7721 0.60146 0.78546 0.0
C94 C 0.78979 0.57714 0.77922 0.0
C95 C 0.83241 0.59029 0.78334 0.0
C96 C 0.85823 0.63071 0.79138 0.0
C97 C 0.84058 0.65513 0.79749 0.0
C98 C 0.70024 0.63013 0.86638 0.0
C99 C 0.67065 0.52951 0.8331 0.0
O100 O 0.59356 0.57443 0.87006 0.0
O101 O 0.55715 0.53526 0.84497 0.0
O102 O 0.64959 0.60694 0.81451 0.0
O103 O 0.60303 0.54302 0.81424 0.0
O104 O 0.62748 0.64158 0.83984 0.0
O105 O 0.69367 0.67949 0.82503 0.0
O106 O 0.74146 0.65443 0.79985 0.0
O107 O 0.77587 0.65386 0.82626 0.0
O108 O 0.68231 0.59901 0.85489 0.0
O109 O 0.727 0.66293 0.85607 0.0
O110 O 0.69826 0.56443 0.82335 0.0
O111 O 0.64119 0.52975 0.8447 0.0
H112 H 0.51081 0.5246 0.89673 0.0
H113 H 0.44838 0.53064 0.90468 0.0
H114 H 0.45961 0.59094 0.84754 0.0
H115 H 0.52366 0.5866 0.84007 0.0
H116 H 0.73837 0.58889 0.7837 0.0
H117 H 0.76927 0.54635 0.77284 0.0
H118 H 0.8911 0.64169 0.7949 0.0
H119 H 0.86028 0.68455 0.8052 0.0
H120 H 0.55992 0.16551 0.28536 0.0
H121 H 0.6209 0.29694 0.27018 0.0
H122 H 0.56286 0.20271 0.22425 0.0
C123 C 0.56787 0.18997 0.27419 0.0
C124 C 0.55979 0.1791 0.25402 0.0
C125 C 0.58912 0.23228 0.28003 0.0
C126 C 0.60169 0.26435 0.26562 0.0
C127 C 0.59186 0.25411 0.24529 0.0
C128 C 0.56974 0.21117 0.23981 0.0
H129 H 0.58166 0.55838 0.59441 0.0
H130 H 0.68313 0.53166 0.58351 0.0
H131 H 0.61943 0.5521 0.53461 0.0
C132 C 0.60123 0.55224 0.5843 0.0
C133 C 0.59562 0.55394 0.56371 0.0
C134 C 0.63258 0.54393 0.5918 0.0
C135 C 0.6592 0.53861 0.57815 0.0
C136 C 0.65445 0.54138 0.55746 0.0
C137 C 0.62235 0.54857 0.55051 0.0
H138 H 0.94115 0.43503 0.93446 0.0
H139 H 1.0272 0.40887 0.96664 0.0
H140 H 1.01466 0.39094 0.90313 0.0
C141 C 0.96182 0.42157 0.93474 0.0
C142 C 0.97322 0.40972 0.9168 0.0
C143 C 0.98108 0.42077 0.95271 0.0
C144 C 1.01096 0.40721 0.95282 0.0
C145 C 1.02515 0.39873 0.93488 0.0
C146 C 1.004 0.39724 0.91716 0.0
H147 H 1.08309 0.52606 0.42275 0.0
H148 H 0.19962 0.6427 0.41711 0.0
H149 H 0.14035 0.60016 0.4753 0.0
C150 C 0.10868 0.55385 0.42965 0.0
C151 C 0.10824 0.55878 0.45044 0.0
C152 C 0.1409 0.58471 0.41761 0.0
C153 C 0.17392 0.62061 0.42662 0.0
C154 C 0.17472 0.62772 0.44743 0.0
C155 C 0.14118 0.596 0.45933 0.0
H156 H 0.65096 0.15241 0.7516 0.0
H157 H 0.64506 1.03235 0.75469 0.0
H158 H 0.65224 0.09862 0.80914 0.0
C159 C 0.65061 0.12743 0.76059 0.0
C160 C 0.65227 0.13072 0.78161 0.0
C161 C 0.64779 0.09219 0.75086 0.0
C162 C 0.64658 1.05928 0.76227 0.0
C163 C 0.64834 1.06099 0.78328 0.0
C164 C 0.65039 0.09665 0.793 0.0
H165 H 0.60618 0.60592 0.08221 0.0
H166 H 0.71557 0.59185 0.08579 0.0
H167 H 0.64115 0.57477 0.13899 0.0
C168 C 0.62675 0.59914 0.09124 0.0
C169 C 0.61776 0.5892 0.11179 0.0
C170 C 0.6612 0.59915 0.0818 0.0
C171 C 0.68871 0.59124 0.09318 0.0
C172 C 0.68264 0.58317 0.11387 0.0
C173 C 0.64696 0.58236 0.12322 0.0
H174 H 0.29368 0.63862 0.15205 0.0
H175 H 0.36089 0.64088 0.14537 0.0
H176 H 0.30545 0.51083 0.16474 0.0
H177 H 0.23729 0.5077 0.16946 0.0
H178 H 0.35054 0.51513 0.13811 0.0
H179 H 0.46655 0.69543 0.1459 0.0
H180 H 0.47171 0.7558 0.16472 0.0
H181 H 0.39128 0.67145 0.21082 0.0
H182 H 0.38608 0.61062 0.19242 0.0
H183 H 0.5406 0.55791 0.09318 0.0
H184 H 0.47704 0.55682 0.10451 0.0
H185 H 0.53404 0.60419 0.16187 0.0
H186 H 0.60034 0.6091 0.14978 0.0
H187 H 0.48969 0.63887 0.1544 0.0
H188 H 0.45212 0.49497 0.15244 0.0
H189 H 0.44524 0.42911 0.13891 0.0
H190 H 0.36726 0.43135 0.09146 0.0
H191 H 0.37412 0.49754 0.10455 0.0
C192 C 0.29592 0.61054 0.15491 0.0
C193 C 0.25994 0.57297 0.16132 0.0
C194 C 0.3348 0.61193 0.1513 0.0
C195 C 0.33964 0.57635 0.15492 0.0
C196 C 0.30349 0.53896 0.16162 0.0
C197 C 0.26425 0.53714 0.16447 0.0
C198 C 0.38137 0.57728 0.15106 0.0
C199 C 0.38075 0.54232 0.14184 0.0
C200 C 0.42167 0.61195 0.1562 0.0
C201 C 0.42565 0.64844 0.16768 0.0
C202 C 0.4502 0.68979 0.16012 0.0
C203 C 0.45306 0.72408 0.17069 0.0
C204 C 0.43172 0.71744 0.18892 0.0
C205 C 0.40768 0.67653 0.19667 0.0
C206 C 0.40477 0.64213 0.18618 0.0
C207 C 0.54047 0.56897 0.10814 0.0
C208 C 0.57681 0.58449 0.1203 0.0
C209 C 0.50317 0.56743 0.11482 0.0
C210 C 0.49954 0.5796 0.13431 0.0
C211 C 0.53539 0.59444 0.14676 0.0
C212 C 0.5734 0.5968 0.13988 0.0
C213 C 0.4585 0.57703 0.14123 0.0
C214 C 0.45931 0.61165 0.15092 0.0
C215 C 0.41819 0.54126 0.13737 0.0
C216 C 0.41392 0.50142 0.1294 0.0
C217 C 0.43373 0.48157 0.13904 0.0
C218 C 0.4298 0.44416 0.13146 0.0
C219 C 0.4059 0.42611 0.11431 0.0
C220 C 0.38579 0.44539 0.10474 0.0
C221 C 0.38964 0.48283 0.11225 0.0
H222 H 0.4029 0.39714 0.10847 0.0
H223 H 0.4339 0.74401 0.19704 0.0
H224 H 0.79911 0.18752 0.50294 0.0
H225 H 0.86543 0.25349 0.49712 0.0
H226 H 0.79505 0.31757 0.48518 0.0
H227 H 0.72914 0.25116 0.48983 0.0
H228 H 0.85359 0.34863 0.46152 0.0
H229 H 0.85803 0.32507 0.53181 0.0
H230 H 0.85666 0.28663 0.56243 0.0
H231 H 0.96525 0.2806 0.54166 0.0
H232 H 0.96697 0.31864 0.51077 0.0
H233 H 1.03463 0.55506 0.46298 0.0
H234 H 0.96921 0.49212 0.4744 0.0
H235 H 1.03327 0.41961 0.47327 0.0
H236 H 1.09851 0.48254 0.46191 0.0
H237 H 0.97859 0.39559 0.50514 0.0
H238 H 0.97094 0.41766 0.43425 0.0
H239 H 0.97197 0.45805 0.40436 0.0
H240 H 0.86782 0.46852 0.42812 0.0
H241 H 0.86685 0.42884 0.45829 0.0
C242 C 0.7977 0.21573 0.49925 0.0
C243 C 0.75824 0.21377 0.4972 0.0
C244 C 0.83599 0.25391 0.49607 0.0
C245 C 0.83625 0.29181 0.49128 0.0
C246 C 0.79668 0.28958 0.48907 0.0
C247 C 0.75854 0.2513 0.49189 0.0
C248 C 0.87722 0.3332 0.48786 0.0
C249 C 0.88044 0.35886 0.47136 0.0
C250 C 0.9134 0.34734 0.5003 0.0
C251 C 0.9124 0.32446 0.51888 0.0
C252 C 0.88148 0.3154 0.5337 0.0
C253 C 0.88065 0.29367 0.55112 0.0
C254 C 0.91079 0.2811 0.55397 0.0
C255 C 0.94189 0.29032 0.53942 0.0
C256 C 0.94282 0.312 0.52196 0.0
C257 C 1.03507 0.52603 0.46582 0.0
C258 C 1.07213 0.52413 0.46198 0.0
C259 C 0.99743 0.48978 0.4721 0.0
C260 C 0.9957 0.4505 0.47453 0.0
C261 C 1.03337 0.44921 0.47161 0.0
C262 C 1.07088 0.48536 0.46523 0.0
C263 C 0.95445 0.41041 0.47891 0.0
C264 C 0.95134 0.38512 0.49549 0.0
C265 C 0.91819 0.39677 0.46673 0.0
C266 C 0.91899 0.42063 0.44858 0.0
C267 C 0.94849 0.42886 0.43315 0.0
C268 C 0.94907 0.45161 0.41616 0.0
C269 C 0.92003 0.46592 0.41435 0.0
C270 C 0.89033 0.45748 0.42953 0.0
C271 C 0.88975 0.43487 0.44657 0.0
H272 H 0.92051 0.48349 0.40117 0.0
H273 H 0.9101 0.26428 0.56747 0.0
H274 H 0.71539 0.75358 0.81507 0.0
H275 H 0.71004 0.81688 0.81073 0.0
H276 H 0.58753 0.75519 0.8395 0.0
H277 H 0.59231 0.6905 0.84359 0.0
H278 H 0.5858 0.80078 0.80844 0.0
H279 H 0.67889 0.83305 0.86354 0.0
H280 H 0.73979 0.83899 0.88229 0.0
H281 H 0.8252 0.92626 0.83834 0.0
H282 H 0.76477 0.92038 0.81917 0.0
H283 H 0.58995 1.00085 0.80934 0.0
H284 H 0.58809 0.93595 0.82144 0.0
H285 H 0.70801 0.97508 0.79239 0.0
H286 H 0.70975 1.03944 0.78041 0.0
H287 H 0.70617 0.93983 0.82779 0.0
H288 H 0.61184 0.90219 0.77152 0.0
H289 H 0.55062 0.89603 0.75297 0.0
H290 H 0.46694 0.81901 0.8001 0.0
H291 H 0.52779 0.82523 0.81906 0.0
C292 C 0.68717 0.7531 0.82062 0.0
C293 C 0.65441 0.71643 0.82986 0.0
C294 C 0.68427 0.78982 0.81818 0.0
C295 C 0.64874 0.79178 0.82508 0.0
C296 C 0.61552 0.75504 0.83409 0.0
C297 C 0.61835 0.71794 0.8365 0.0
C298 C 0.64676 0.83209 0.82262 0.0
C299 C 0.61183 0.83102 0.81306 0.0
C300 C 0.68076 0.87217 0.8283 0.0
C301 C 0.71725 0.87603 0.83984 0.0
C302 C 0.71065 0.8533 0.8578 0.0
C303 C 0.74509 0.85668 0.86852 0.0
C304 C 0.78633 0.88293 0.86149 0.0
C305 C 0.79323 0.90592 0.84376 0.0
C306 C 0.75889 0.90262 0.83298 0.0
C307 C 0.61636 0.99603 0.806 0.0
C308 C 0.65026 1.02571 0.7941 0.0
C309 C 0.61507 0.95857 0.8127 0.0
C310 C 0.64769 0.94985 0.80769 0.0
C311 C 0.68236 0.98055 0.79656 0.0
C312 C 0.68344 1.0176 0.78975 0.0
C313 C 0.64561 0.90858 0.8133 0.0
C314 C 0.6799 0.90951 0.82341 0.0
C315 C 0.61096 0.86846 0.80821 0.0
C316 C 0.5744 0.8646 0.79681 0.0
C317 C 0.58042 0.88422 0.778 0.0
C318 C 0.54579 0.88068 0.7674 0.0
C319 C 0.50493 0.85725 0.77538 0.0
C320 C 0.49862 0.83722 0.79395 0.0
C321 C 0.53316 0.84074 0.80463 0.0
H322 H 0.47815 0.85453 0.76714 0.0
H323 H 0.81296 0.8855 0.8698 0.0
H324 H 1.00298 0.5265 0.14222 0.0
H325 H 0.93699 0.5254 0.1356 0.0
H326 H 0.96978 0.62479 0.17837 0.0
H327 H 1.0363 0.62516 0.18552 0.0
H328 H 0.88788 0.5691 0.18232 0.0
H329 H 0.97345 0.63955 0.12137 0.0
H330 H 1.01682 0.64074 0.09257 0.0
H331 H 0.91677 0.51934 0.07414 0.0
H332 H 0.87313 0.5175 0.10278 0.0
H333 H 0.73081 0.6218 0.14753 0.0
H334 H 0.79267 0.61775 0.15951 0.0
H335 H 0.76893 0.52308 0.11535 0.0
H336 H 0.70757 0.52659 0.10372 0.0
H337 H 0.84631 0.57658 0.11263 0.0
H338 H 0.75957 0.5006 0.16708 0.0
H339 H 0.71054 0.48271 0.19564 0.0
H340 H 0.80264 0.59309 0.22657 0.0
H341 H 0.85232 0.61164 0.19813 0.0
C342 C 0.9964 0.54819 0.15035 0.0
C343 C 1.02533 0.57574 0.16457 0.0
C344 C 0.95854 0.54806 0.14624 0.0
C345 C 0.94795 0.57562 0.15609 0.0
C346 C 0.97668 0.60308 0.17045 0.0
C347 C 1.01495 0.60339 0.17452 0.0
C348 C 0.90705 0.57538 0.15144 0.0
C349 C 0.87931 0.57168 0.16709 0.0
C350 C 0.89396 0.57635 0.13156 0.0
C351 C 0.91995 0.57852 0.11408 0.0
C352 C 0.96071 0.61329 0.11109 0.0
C353 C 0.98532 0.61405 0.09482 0.0
C354 C 0.96943 0.58014 0.08155 0.0
C355 C 0.92889 0.54563 0.08438 0.0
C356 C 0.90414 0.54483 0.10054 0.0
C357 C 0.73803 0.59912 0.14086 0.0
C358 C 0.714 0.57456 0.12461 0.0
C359 C 0.7737 0.59691 0.14765 0.0
C360 C 0.78623 0.57009 0.13837 0.0
C361 C 0.7607 0.54413 0.12287 0.0
C362 C 0.72523 0.54611 0.11622 0.0
C363 C 0.82723 0.57101 0.14353 0.0
C364 C 0.85497 0.57468 0.12794 0.0
C365 C 0.83933 0.5682 0.16338 0.0
C366 C 0.80943 0.55784 0.18036 0.0
C367 C 0.76923 0.52129 0.17988 0.0
C368 C 0.74135 0.51097 0.19607 0.0
C369 C 0.75333 0.53695 0.21284 0.0
C370 C 0.79334 0.57312 0.21352 0.0
C371 C 0.82142 0.5835 0.19739 0.0
H372 H 0.73172 0.5289 0.22538 0.0
H373 H 0.98854 0.58029 0.06915 0.0
H374 H 0.47923 1.00357 0.50402 0.0
H375 H 0.41335 0.93694 0.49942 0.0
H376 H 0.48471 0.87703 0.48155 0.0
H377 H 0.55083 0.94331 0.48726 0.0
H378 H 0.42076 0.82055 0.49962 0.0
H379 H 0.31895 0.8965 0.47837 0.0
H380 H 0.32785 0.96196 0.46283 0.0
H381 H 0.43941 0.98002 0.43203 0.0
H382 H 0.43087 0.91442 0.44719 0.0
H383 H 0.21147 0.64405 0.48553 0.0
H384 H 0.27254 0.70897 0.49753 0.0
H385 H 0.28429 0.76758 0.4399 0.0
H386 H 0.22074 0.70612 0.42903 0.0
H387 H 0.30667 0.82487 0.4614 0.0
H388 H 0.35364 0.72126 0.4623 0.0
H389 H 0.35144 0.65503 0.47247 0.0
H390 H 0.3585 0.6896 0.53417 0.0
H391 H 0.36066 0.75599 0.52435 0.0
C392 C 0.481 0.9762 0.49919 0.0
C393 C 0.52067 0.97925 0.4959 0.0
C394 C 0.44302 0.93786 0.49639 0.0
C395 C 0.44319 0.90143 0.4895 0.0
C396 C 0.48296 0.90419 0.48675 0.0
C397 C 0.52105 0.94238 0.49 0.0
C398 C 0.40224 0.86122 0.48466 0.0
C399 C 0.39593 0.82166 0.49119 0.0
C400 C 0.36934 0.86154 0.47342 0.0
C401 C 0.37451 0.90083 0.4641 0.0
C402 C 0.34529 0.91439 0.46824 0.0
C403 C 0.35029 0.95152 0.4595 0.0
C404 C 0.38426 0.97521 0.44651 0.0
C405 C 0.41321 0.96173 0.44215 0.0
C406 C 0.40832 0.9246 0.45082 0.0
C407 C 0.22648 0.67098 0.47549 0.0
C408 C 0.21096 0.66832 0.45592 0.0
C409 C 0.26244 0.70825 0.48228 0.0
C410 C 0.28505 0.74377 0.46955 0.0
C411 C 0.26858 0.74136 0.4503 0.0
C412 C 0.23206 0.70505 0.44383 0.0
C413 C 0.32527 0.78364 0.47582 0.0
C414 C 0.3314 0.82341 0.46973 0.0
C415 C 0.35864 0.78324 0.48667 0.0
C416 C 0.35688 0.74327 0.49261 0.0
C417 C 0.35446 0.71455 0.47804 0.0
C418 C 0.35329 0.67705 0.48373 0.0
C419 C 0.35466 0.66804 0.50395 0.0
C420 C 0.35724 0.69653 0.51852 0.0
C421 C 0.35852 0.73412 0.5129 0.0
H422 H 0.35386 0.63905 0.50833 0.0
H423 H 0.3881 1.00396 0.43978 0.0
H424 H 0.72375 0.51469 0.80911 0.0
H425 H 0.72177 0.4476 0.80279 0.0
H426 H 0.61595 0.38383 0.84329 0.0
H427 H 0.61825 0.45092 0.84998 0.0
H428 H 0.66753 0.35179 0.84797 0.0
H429 H 0.60636 0.38142 0.79029 0.0
H430 H 0.60751 0.4264 0.76244 0.0
H431 H 0.71711 0.42786 0.73752 0.0
H432 H 0.71725 0.38375 0.76554 0.0
H433 H 0.60981 0.14137 0.81392 0.0
H434 H 0.61223 0.20704 0.8246 0.0
H435 H 0.70724 0.27636 0.77957 0.0
H436 H 0.70551 0.21198 0.76934 0.0
H437 H 0.65856 0.30497 0.77788 0.0
H438 H 0.72567 0.28186 0.83412 0.0
H439 H 0.73285 0.24258 0.86253 0.0
H440 H 0.62163 0.23306 0.89004 0.0
H441 H 0.61354 0.27192 0.86166 0.0
C442 C 0.70024 0.48655 0.81684 0.0
C443 C 0.67116 0.48873 0.83007 0.0
C444 C 0.69897 0.44791 0.8131 0.0
C445 C 0.6683 0.40991 0.82226 0.0
C446 C 0.63997 0.41224 0.8359 0.0
C447 C 0.64127 0.4509 0.83969 0.0
C448 C 0.665 0.36785 0.81721 0.0
C449 C 0.66497 0.34137 0.83264 0.0
C450 C 0.66283 0.35405 0.79722 0.0
C451 C 0.66191 0.37942 0.78005 0.0
C452 C 0.63075 0.3914 0.77889 0.0
C453 C 0.63119 0.41678 0.76307 0.0
C454 C 0.66228 0.42987 0.74815 0.0
C455 C 0.69301 0.41763 0.74905 0.0
C456 C 0.69286 0.39246 0.76491 0.0
C457 C 0.63197 0.17086 0.80667 0.0
C458 C 0.65731 0.17092 0.79066 0.0
C459 C 0.63334 0.20868 0.81276 0.0
C460 C 0.66037 0.24776 0.80314 0.0
C461 C 0.6862 0.24752 0.78751 0.0
C462 C 0.68505 0.21017 0.78156 0.0
C463 C 0.66139 0.28869 0.80864 0.0
C464 C 0.66093 0.31507 0.79327 0.0
C465 C 0.66404 0.30275 0.82864 0.0
C466 C 0.66871 0.27932 0.84567 0.0
C467 C 0.70256 0.27109 0.84615 0.0
C468 C 0.70683 0.24897 0.86226 0.0
C469 C 0.67763 0.23521 0.87804 0.0
C470 C 0.64417 0.24366 0.87778 0.0
C471 C 0.63974 0.26576 0.8617 0.0
H472 H 0.68099 0.21809 0.8905 0.0
H473 H 0.66264 0.44953 0.73591 0.0
H474 H 0.57749 0.84442 0.47513 0.0
H475 H 0.54375 0.76717 0.47288 0.0
H476 H 0.63545 0.76897 0.51414 0.0
H477 H 0.6701 0.84577 0.51575 0.0
H478 H 0.60904 0.70653 0.48208 0.0
H479 H 0.5318 0.73738 0.54511 0.0
H480 H 0.50008 0.78153 0.55363 0.0
H481 H 0.44441 0.7604 0.49536 0.0
H482 H 0.47384 0.71438 0.48697 0.0
H483 H 0.58537 0.61937 0.57582 0.0
H484 H 0.55874 0.65599 0.55516 0.0
H485 H 0.51446 0.55615 0.51176 0.0
H486 H 0.54076 0.51892 0.53258 0.0
H487 H 0.49002 0.64888 0.53095 0.0
H488 H 0.56291 0.59822 0.47346 0.0
H489 H 0.60677 0.56416 0.47003 0.0
H490 H 0.68142 0.63402 0.52025 0.0
H491 H 0.63786 0.66826 0.52398 0.0
C492 C 0.5908 0.82818 0.48336 0.0
C493 C 0.62605 0.85076 0.49578 0.0
C494 C 0.57147 0.78421 0.48212 0.0
C495 C 0.58659 0.76245 0.49369 0.0
C496 C 0.62339 0.78528 0.50505 0.0
C497 C 0.64312 0.82911 0.506 0.0
C498 C 0.56186 0.71626 0.4967 0.0
C499 C 0.58142 0.69272 0.49183 0.0
C500 C 0.52633 0.69869 0.5097 0.0
C501 C 0.50523 0.72285 0.51538 0.0
C502 C 0.51216 0.74164 0.53428 0.0
C503 C 0.49447 0.76686 0.5391 0.0
C504 C 0.47007 0.77367 0.52507 0.0
C505 C 0.46288 0.7548 0.5063 0.0
C506 C 0.47976 0.72889 0.50156 0.0
C507 C 0.5679 0.60401 0.56245 0.0
C508 C 0.56611 0.56694 0.55551 0.0
C509 C 0.55255 0.62495 0.55064 0.0
C510 C 0.53548 0.60912 0.53176 0.0
C511 C 0.52789 0.56896 0.52621 0.0
C512 C 0.54317 0.54793 0.53805 0.0
C513 C 0.53761 0.63945 0.51649 0.0
C514 C 0.51464 0.66042 0.51956 0.0
C515 C 0.56998 0.65467 0.50173 0.0
C516 C 0.59724 0.63561 0.49898 0.0
C517 C 0.58886 0.60642 0.48366 0.0
C518 C 0.61354 0.58701 0.48172 0.0
C519 C 0.64675 0.59683 0.49496 0.0
C520 C 0.6557 0.62647 0.51001 0.0
C521 C 0.63102 0.64581 0.51207 0.0
H522 H 0.66547 0.58141 0.49361 0.0
H523 H 0.45679 0.79358 0.52873 0.0
H524 H 0.9098 0.6001 0.77224 0.0
H525 H 0.93953 0.55714 0.78474 0.0
H526 H 0.81811 0.46914 0.81079 0.0
H527 H 0.78869 0.51081 0.79808 0.0
H528 H 0.94715 0.55269 0.8226 0.0
H529 H 0.80582 0.38045 0.82432 0.0
H530 H 0.74983 0.33263 0.80169 0.0
H531 H 0.82815 0.39785 0.75089 0.0
H532 H 0.88516 0.44615 0.77335 0.0
H533 H 0.8935 0.39115 0.90539 0.0
H534 H 0.87366 0.41177 0.87398 0.0
H535 H 1.00287 0.46834 0.85309 0.0
H536 H 1.0231 0.44931 0.88438 0.0
H537 H 0.88136 0.39774 0.83267 0.0
H538 H 1.02743 0.56359 0.83208 0.0
H539 H 1.08024 0.61462 0.85544 0.0
H540 H 0.98925 0.56373 0.90335 0.0
H541 H 0.9358 0.51289 0.88022 0.0
C542 C 0.88916 0.57055 0.77988 0.0
C543 C 0.84695 0.55895 0.7843 0.0
C544 C 0.90615 0.54608 0.78703 0.0
C545 C 0.88117 0.50986 0.79875 0.0
C546 C 0.83799 0.49621 0.8014 0.0
C547 C 0.82101 0.52026 0.79408 0.0
C548 C 0.90107 0.49136 0.81155 0.0
C549 C 0.9337 0.51878 0.82427 0.0
C550 C 0.88293 0.44715 0.81416 0.0
C551 C 0.84979 0.4169 0.80054 0.0
C552 C 0.81138 0.38431 0.80833 0.0
C553 C 0.77932 0.35719 0.79549 0.0
C554 C 0.78529 0.36209 0.7748 0.0
C555 C 0.82353 0.39409 0.76691 0.0
C556 C 0.85573 0.4214 0.7797 0.0
C557 C 0.91747 0.40764 0.89399 0.0
C558 C 0.95971 0.41835 0.89731 0.0
C559 C 0.90609 0.419 0.87604 0.0
C560 C 0.9369 0.44159 0.86131 0.0
C561 C 0.9787 0.45091 0.86429 0.0
C562 C 0.99008 0.43972 0.88216 0.0
C563 C 0.92638 0.45917 0.84375 0.0
C564 C 0.89566 0.43158 0.83036 0.0
C565 C 0.94622 0.50329 0.84046 0.0
C566 C 0.97788 0.5341 0.85447 0.0
C567 C 1.01872 0.56339 0.84759 0.0
C568 C 1.04874 0.59228 0.86079 0.0
C569 C 1.03817 0.59229 0.88089 0.0
C570 C 0.99747 0.56356 0.88781 0.0
C571 C 0.96732 0.53468 0.87466 0.0
H572 H 1.06146 0.61465 0.89108 0.0
H573 H 0.76033 0.34126 0.76484 0.0
H574 H 0.37401 0.83657 0.17401 0.0
H575 H 0.43343 0.9057 0.18127 0.0
H576 H 0.46883 0.85255 0.23037 0.0
H577 H 0.40741 0.78314 0.22364 0.0
H578 H 0.45706 0.9088 0.24409 0.0
H579 H 0.53987 0.91187 0.18998 0.0
H580 H 0.55852 0.90159 0.15585 0.0
H581 H 0.52365 0.99015 0.133 0.0
H582 H 0.50408 1.0005 0.16693 0.0
H583 H 0.58779 0.12737 0.26858 0.0
H584 H 0.56894 1.05662 0.2575 0.0
H585 H 0.48631 1.06195 0.21302 0.0
H586 H 0.50385 0.13249 0.22446 0.0
H587 H 0.54169 1.03088 0.19897 0.0
H588 H 0.44152 1.0077 0.25383 0.0
H589 H 0.42258 1.01403 0.28858 0.0
H590 H 0.49798 0.96185 0.31016 0.0
H591 H 0.51722 0.9551 0.27549 0.0
C592 C 0.39548 0.83925 0.18582 0.0
C593 C 0.38595 0.80476 0.19843 0.0
C594 C 0.42981 0.87893 0.18993 0.0
C595 C 0.45582 0.88464 0.20644 0.0
C596 C 0.44906 0.84907 0.21765 0.0
C597 C 0.41407 0.80945 0.21381 0.0
C598 C 0.48308 0.92791 0.2143 0.0
C599 C 0.47677 0.93523 0.23428 0.0
C600 C 0.50857 0.96279 0.20162 0.0
C601 C 0.52039 0.9569 0.18108 0.0
C602 C 0.5359 0.92898 0.17768 0.0
C603 C 0.54667 0.92316 0.15835 0.0
C604 C 0.54226 0.94519 0.14226 0.0
C605 C 0.5271 0.97314 0.14548 0.0
C606 C 0.51625 0.97908 0.16478 0.0
C607 C 0.56493 0.11328 0.2567 0.0
C608 C 0.54676 0.13539 0.24762 0.0
C609 C 0.5547 0.07306 0.25022 0.0
C610 C 0.5264 1.05428 0.23444 0.0
C611 C 0.50855 0.07625 0.22513 0.0
C612 C 0.51848 0.11642 0.23172 0.0
C613 C 0.51376 1.01084 0.22821 0.0
C614 C 0.52305 1.00393 0.20869 0.0
C615 C 0.49176 0.97619 0.24136 0.0
C616 C 0.48114 0.98134 0.26215 0.0
C617 C 0.45433 0.99794 0.26601 0.0
C618 C 0.4434 1.00142 0.28567 0.0
C619 C 0.45913 0.9884 0.30157 0.0
C620 C 0.48584 0.97191 0.29784 0.0
C621 C 0.49667 0.96816 0.27819 0.0
H622 H 0.45057 0.99103 0.31679 0.0
H623 H 0.55061 0.94062 0.12731 0.0
H624 H 0.75243 0.34055 0.46053 0.0
H625 H 0.79673 0.41737 0.46013 0.0
H626 H 0.6843 0.42882 0.46026 0.0
H627 H 0.64042 0.35253 0.4587 0.0
H628 H 0.74971 0.50202 0.44837 0.0
H629 H 0.73278 0.40066 0.5109 0.0
H630 H 0.75433 0.35054 0.52377 0.0
H631 H 0.88052 0.43057 0.5013 0.0
H632 H 0.85963 0.48113 0.48838 0.0
H633 H 0.6318 0.49854 0.52248 0.0
H634 H 0.6773 0.49538 0.49692 0.0
H635 H 0.78707 0.57094 0.53315 0.0
H636 H 0.74109 0.57546 0.55896 0.0
H637 H 0.78481 0.50004 0.51975 0.0
H638 H 0.78824 0.61325 0.48756 0.0
H639 H 0.76605 0.66325 0.47564 0.0
H640 H 0.67112 0.56679 0.43889 0.0
H641 H 0.69214 0.51595 0.45077 0.0
C642 C 0.73739 0.35963 0.45929 0.0
C643 C 0.69302 0.34081 0.45997 0.0
C644 C 0.76278 0.40359 0.45929 0.0
C645 C 0.74404 0.42897 0.46122 0.0
C646 C 0.69985 0.41016 0.45901 0.0
C647 C 0.67453 0.36635 0.45825 0.0
C648 C 0.76663 0.47102 0.47093 0.0
C649 C 0.75869 0.50269 0.46385 0.0
C650 C 0.78202 0.47424 0.49067 0.0
C651 C 0.79472 0.44449 0.49876 0.0
C652 C 0.76516 0.40759 0.50887 0.0
C653 C 0.77722 0.37914 0.51611 0.0
C654 C 0.81879 0.38749 0.5134 0.0
C655 C 0.8484 0.42427 0.50344 0.0
C656 C 0.8365 0.45284 0.49619 0.0
C657 C 0.66567 0.51525 0.52495 0.0
C658 C 0.68283 0.53754 0.54269 0.0
C659 C 0.69179 0.51377 0.5102 0.0
C660 C 0.7358 0.5342 0.5128 0.0
C661 C 0.75327 0.55583 0.53067 0.0
C662 C 0.72695 0.55777 0.54548 0.0
C663 C 0.76125 0.52656 0.49785 0.0
C664 C 0.77899 0.50205 0.504 0.0
C665 C 0.75566 0.53067 0.47721 0.0
C666 C 0.74226 0.56082 0.46991 0.0
C667 C 0.76259 0.60261 0.47694 0.0
C668 C 0.75023 0.63115 0.47017 0.0
C669 C 0.71747 0.61831 0.45637 0.0
C670 C 0.6968 0.57681 0.44942 0.0
C671 C 0.70905 0.54813 0.45613 0.0
H672 H 0.70783 0.6404 0.45121 0.0
H673 H 0.828 0.3654 0.51896 0.0
H674 H 0.38068 0.52113 0.85348 0.0
H675 H 0.30751 0.49524 0.86385 0.0
H676 H 0.35107 0.56529 0.91879 0.0
H677 H 0.42444 0.58967 0.9087 0.0
H678 H 0.29924 0.48839 0.92731 0.0
H679 H 0.2943 0.58648 0.88224 0.0
H680 H 0.3036 0.62522 0.85063 0.0
H681 H 0.21731 0.5094 0.82152 0.0
H682 H 0.20793 0.46981 0.8529 0.0
H683 H 1.09523 0.45382 0.95589 0.0
H684 H 0.16825 0.47812 0.94702 0.0
H685 H 0.12822 0.38468 0.90064 0.0
H686 H 1.0541 0.35806 0.91012 0.0
H687 H 0.17713 0.47263 0.88796 0.0
H688 H 0.18291 0.37688 0.93624 0.0
H689 H 0.17307 0.34421 0.96962 0.0
H690 H 0.25802 0.4654 0.99471 0.0
H691 H 0.26793 0.4989 0.96152 0.0
C692 C 0.37457 0.53223 0.86741 0.0
C693 C 0.40786 0.55726 0.88035 0.0
C694 C 0.33274 0.51742 0.87336 0.0
C695 C 0.32373 0.52822 0.89214 0.0
C696 C 0.35728 0.55629 0.9043 0.0
C697 C 0.39908 0.57047 0.89851 0.0
C698 C 0.27987 0.50593 0.90012 0.0
C699 C 0.27267 0.48563 0.91881 0.0
C700 C 0.24505 0.50145 0.88887 0.0
C701 C 0.25073 0.5251 0.86991 0.0
C702 C 0.27759 0.56918 0.86906 0.0
C703 C 0.28282 0.59132 0.85119 0.0
C704 C 0.26115 0.56977 0.83407 0.0
C705 C 0.23412 0.52604 0.83479 0.0
C706 C 0.2288 0.50374 0.85263 0.0
C707 C 1.10146 0.43662 0.9445 0.0
C708 C 1.06835 0.40404 0.93358 0.0
C709 C 0.14353 0.45107 0.93931 0.0
C710 C 0.15339 0.43351 0.92305 0.0
C711 C 0.12094 0.39876 0.91316 0.0
C712 C 1.07869 0.38368 0.91859 0.0
C713 C 0.1969 0.45519 0.91495 0.0
C714 C 0.20392 0.47546 0.89631 0.0
C715 C 0.23163 0.46062 0.92646 0.0
C716 C 0.22591 0.44043 0.94641 0.0
C717 C 0.19924 0.39661 0.9489 0.0
C718 C 0.1937 0.37793 0.96779 0.0
C719 C 0.21484 0.40272 0.98429 0.0
C720 C 0.24165 0.44623 0.98192 0.0
C721 C 0.24728 0.46507 0.96307 0.0
H722 H 0.2105 0.3882 0.99889 0.0
H723 H 0.26522 0.58697 0.82024 0.0
H724 H 0.86063 0.37931 0.13936 0.0
H725 H 0.79429 0.37661 0.14822 0.0
H726 H 0.86296 0.48801 0.18449 0.0
H727 H 0.92819 0.48714 0.17762 0.0
H728 H 0.80788 0.43829 0.20543 0.0
H729 H 0.79736 0.47817 0.13965 0.0
H730 H 0.79921 0.47988 0.10279 0.0
H731 H 0.69868 0.35109 0.10122 0.0
H732 H 0.69626 0.34817 0.13797 0.0
H733 H 0.60602 0.33592 0.24652 0.0
H734 H 0.65335 0.39436 0.22435 0.0
H735 H 0.66642 0.30653 0.18626 0.0
H736 H 0.62199 0.24919 0.2084 0.0
H737 H 0.67689 0.37895 0.16521 0.0
H738 H 0.72531 0.33816 0.22763 0.0
H739 H 0.72133 0.33003 0.26436 0.0
H740 H 0.75113 0.45907 0.27058 0.0
H741 H 0.75468 0.4676 0.23385 0.0
C742 C 0.86141 0.4035 0.14896 0.0
C743 C 0.89934 0.43335 0.15783 0.0
C744 C 0.82353 0.40254 0.15377 0.0
C745 C 0.82327 0.43268 0.16681 0.0
C746 C 0.86195 0.46436 0.17444 0.0
C747 C 0.89931 0.46392 0.17048 0.0
C748 C 0.78264 0.42617 0.17543 0.0
C749 C 0.77972 0.42712 0.19637 0.0
C750 C 0.74531 0.41149 0.16392 0.0
C751 C 0.74648 0.41311 0.14169 0.0
C752 C 0.77571 0.45014 0.13148 0.0
C753 C 0.77698 0.45126 0.11059 0.0
C754 C 0.74921 0.41566 0.0997 0.0
C755 C 0.72009 0.37874 0.10967 0.0
C756 C 0.71865 0.37737 0.13055 0.0
C757 C 0.61828 0.32896 0.23319 0.0
C758 C 0.61071 0.28773 0.2296 0.0
C759 C 0.6447 0.36232 0.22037 0.0
C760 C 0.66358 0.35473 0.20377 0.0
C761 C 0.65187 0.31307 0.19888 0.0
C762 C 0.62622 0.28002 0.21174 0.0
C763 C 0.70309 0.38859 0.19468 0.0
C764 C 0.70587 0.39294 0.17381 0.0
C765 C 0.7405 0.40803 0.20609 0.0
C766 C 0.73978 0.40338 0.2281 0.0
C767 C 0.73096 0.36472 0.23687 0.0
C768 C 0.72872 0.36002 0.25766 0.0
C769 C 0.73589 0.39399 0.2698 0.0
C770 C 0.74546 0.43276 0.26116 0.0
C771 C 0.74751 0.43753 0.24037 0.0
H772 H 0.73411 0.3903 0.28589 0.0
H773 H 0.75024 0.4167 0.08353 0.0
H774 H 0.15682 0.55158 0.1114 0.0
H775 H 0.11876 0.524 0.07999 0.0
H776 H 1.05273 0.59334 0.08936 0.0
H777 H 1.09154 0.62182 0.12034 0.0
H778 H 1.04157 0.47565 0.07193 0.0
H779 H 1.02776 0.62017 0.04126 0.0
H780 H 1.06716 0.69773 0.04355 0.0
H781 H 0.18038 0.69491 0.0583 0.0
H782 H 0.14181 0.61732 0.056 0.0
H783 H 0.92645 0.39545 0.9848 0.0
H784 H 0.94134 0.43208 0.01705 0.0
H785 H 1.05501 0.53627 0.9917 0.0
H786 H 1.03825 0.50128 0.95952 0.0
H787 H 1.0335 0.56673 0.01886 0.0
H788 H 1.04952 0.4439 0.01454 0.0
H789 H 1.02591 0.36853 0.00925 0.0
H790 H 0.93751 0.3344 0.05802 0.0
H791 H 0.96024 0.40963 0.0634 0.0
C792 C 0.13437 0.56106 0.10659 0.0
C793 C 0.12727 0.58896 0.11808 0.0
C794 C 0.11243 0.54516 0.08876 0.0
C795 C 1.08285 0.55669 0.08224 0.0
C796 C 1.07564 0.58438 0.09389 0.0
C797 C 1.09796 0.60073 0.11156 0.0
C798 C 1.05953 0.53944 0.06332 0.0
C799 C 1.03974 0.49566 0.06037 0.0
C800 C 1.05753 0.56556 0.04807 0.0
C801 C 1.08133 0.61253 0.04919 0.0
C802 C 1.06093 0.63593 0.04521 0.0
C803 C 1.0832 0.68001 0.04642 0.0
C804 C 0.12614 0.70122 0.05129 0.0
C805 C 0.14699 0.67841 0.05476 0.0
C806 C 0.12487 0.63433 0.05358 0.0
C807 C 0.95336 0.42704 0.98605 0.0
C808 C 0.9813 0.44578 0.9699 0.0
C809 C 0.96224 0.44775 0.00447 0.0
C810 C 1.00012 0.48638 0.00704 0.0
C811 C 1.02569 0.50656 0.99027 0.0
C812 C 1.01617 0.48655 0.97184 0.0
C813 C 1.01672 0.50317 0.02725 0.0
C814 C 1.03486 0.54679 0.03058 0.0
C815 C 1.01979 0.47743 0.04234 0.0
C816 C 1.00612 0.43225 0.03919 0.0
C817 C 1.02486 0.42027 0.02405 0.0
C818 C 1.01165 0.37761 0.02104 0.0
C819 C 0.98012 0.34668 0.03325 0.0
C820 C 0.96183 0.35839 0.04853 0.0
C821 C 0.97483 0.40102 0.05156 0.0
H822 H 0.96995 0.31366 0.03091 0.0
H823 H 0.14332 0.73535 0.05221 0.0
H824 H 0.71639 0.13774 0.43749 0.0
H825 H 0.70884 0.16843 0.40615 0.0
H826 H 0.57696 0.1222 0.42007 0.0
H827 H 0.58365 0.08852 0.45031 0.0
H828 H 0.58351 0.11342 0.38311 0.0
H829 H 0.66164 0.22452 0.42918 0.0
H830 H 0.72086 0.26504 0.45204 0.0
H831 H 0.80817 0.30821 0.40262 0.0
H832 H 0.74981 0.26547 0.37953 0.0
H833 H 0.54187 0.2251 0.31278 0.0
H834 H 0.55855 0.21491 0.34709 0.0
H835 H 0.68351 0.24388 0.32793 0.0
H836 H 0.66736 0.25585 0.2938 0.0
H837 H 0.68175 0.26507 0.36799 0.0
H838 H 0.60306 0.14056 0.32467 0.0
H839 H 0.54299 0.09711 0.30241 0.0
H840 H 0.45535 0.08512 0.34855 0.0
H841 H 0.51482 0.12771 0.37118 0.0
C842 C 0.68574 0.13375 0.43365 0.0
C843 C 0.65085 0.11191 0.44653 0.0
C844 C 0.68152 0.15159 0.41587 0.0
C845 C 0.64264 0.14879 0.41103 0.0
C846 C 0.60742 0.12531 0.42355 0.0
C847 C 0.61138 0.10655 0.44098 0.0
C848 C 0.63829 0.17048 0.39311 0.0
C849 C 0.6048 0.14672 0.38005 0.0
C850 C 0.66632 0.21394 0.38888 0.0
C851 C 0.70125 0.24134 0.40261 0.0
C852 C 0.69346 0.24239 0.42316 0.0
C853 C 0.72693 0.26565 0.43618 0.0
C854 C 0.76821 0.28945 0.42879 0.0
C855 C 0.77615 0.28975 0.40833 0.0
C856 C 0.7429 0.26571 0.39527 0.0
C857 C 0.57358 0.23146 0.31619 0.0
C858 C 0.60347 0.24137 0.30086 0.0
C859 C 0.58299 0.22527 0.33569 0.0
C860 C 0.62187 0.22754 0.33989 0.0
C861 C 0.65331 0.24185 0.32499 0.0
C862 C 0.64415 0.2488 0.30554 0.0
C863 C 0.62685 0.20794 0.35838 0.0
C864 C 0.66052 0.23192 0.37135 0.0
C865 C 0.59883 0.16478 0.3628 0.0
C866 C 0.56326 0.13751 0.34951 0.0
C867 C 0.57095 0.12849 0.33005 0.0
C868 C 0.53705 0.10404 0.31739 0.0
C869 C 0.49547 0.0889 0.324 0.0
C870 C 0.4876 0.09712 0.34343 0.0
C871 C 0.52134 0.12113 0.35622 0.0
H872 H 0.4693 0.07084 0.31407 0.0
H873 H 0.79401 0.30761 0.43891 0.0
H874 H 0.64961 0.63357 0.77461 0.0
H875 H 0.65826 0.6256 0.73887 0.0
H876 H 0.64809 0.50437 0.75062 0.0
H877 H 0.63555 0.51074 0.78606 0.0
H878 H 0.70684 0.61915 0.71501 0.0
H879 H 0.60092 0.4363 0.71169 0.0
H880 H 0.5415 0.3781 0.73007 0.0
H881 H 0.50431 0.46471 0.75289 0.0
H882 H 0.563 0.52326 0.73434 0.0
H883 H 0.70612 0.56832 0.61302 0.0
H884 H 0.71404 0.56826 0.64916 0.0
H885 H 0.57972 0.5195 0.65667 0.0
H886 H 0.57081 0.51454 0.6208 0.0
H887 H 0.59992 0.48658 0.68294 0.0
H888 H 0.66296 0.63144 0.66036 0.0
H889 H 0.71264 0.69477 0.64096 0.0
H890 H 0.81802 0.6931 0.66868 0.0
H891 H 0.76891 0.62944 0.68808 0.0
C892 C 0.64924 0.60528 0.76944 0.0
C893 C 0.6409 0.5723 0.78278 0.0
C894 C 0.65447 0.6008 0.74908 0.0
C895 C 0.65268 0.56376 0.74189 0.0
C896 C 0.64795 0.53242 0.75563 0.0
C897 C 0.64098 0.53614 0.77585 0.0
C898 C 0.6531 0.55706 0.71999 0.0
C899 C 0.68345 0.59009 0.70802 0.0
C900 C 0.62242 0.5193 0.71072 0.0
C901 C 0.5869 0.4843 0.72193 0.0
C902 C 0.58003 0.44291 0.72061 0.0
C903 C 0.5464 0.40983 0.73101 0.0
C904 C 0.51929 0.41774 0.74273 0.0
C905 C 0.52551 0.45867 0.74391 0.0
C906 C 0.55895 0.49181 0.73345 0.0
C907 C 0.67803 0.55647 0.62231 0.0
C908 C 0.63783 0.54208 0.61381 0.0
C909 C 0.68278 0.5572 0.64307 0.0
C910 C 0.64771 0.54502 0.65578 0.0
C911 C 0.60747 0.52937 0.64731 0.0
C912 C 0.6025 0.52729 0.62665 0.0
C913 C 0.65236 0.54937 0.67787 0.0
C914 C 0.62342 0.51558 0.68992 0.0
C915 C 0.68277 0.58724 0.68711 0.0
C916 C 0.71231 0.62544 0.67547 0.0
C917 C 0.69674 0.64444 0.66221 0.0
C918 C 0.72478 0.6804 0.65123 0.0
C919 C 0.76846 0.69786 0.65354 0.0
C920 C 0.78418 0.67947 0.66687 0.0
C921 C 0.75627 0.64347 0.67786 0.0
H922 H 0.79012 0.72571 0.64503 0.0
H923 H 0.49337 0.39212 0.75083 0.0
H924 H 0.56135 1.04622 0.56257 0.0
H925 H 0.568 1.04197 0.59869 0.0
H926 H 0.70122 0.13376 0.59432 0.0
H927 H 0.69494 0.13589 0.55783 0.0
H928 H 0.69273 0.08205 0.622 0.0
H929 H 0.62108 0.15893 0.6091 0.0
H930 H 0.56708 0.17318 0.59476 0.0
H931 H 0.46915 1.06516 0.62581 0.0
H932 H 0.52255 1.04992 0.64013 0.0
H933 H 0.70351 0.15119 0.72444 0.0
H934 H 0.70142 0.14877 0.68776 0.0
H935 H 0.58748 1.02726 0.69044 0.0
H936 H 0.59006 1.02903 0.72716 0.0
H937 H 0.58766 0.09522 0.66426 0.0
H938 H 0.66591 1.02261 0.6778 0.0
H939 H 0.72412 1.01607 0.69285 0.0
H940 H 0.8152 0.12741 0.66119 0.0
H941 H 0.75749 0.13499 0.64619 0.0
C942 C 0.59216 1.06508 0.56931 0.0
C943 C 0.62754 0.09162 0.55745 0.0
C944 C 0.59591 1.06298 0.59002 0.0
C945 C 0.63484 0.0886 0.5995 0.0
C946 C 0.6707 0.11388 0.58751 0.0
C947 C 0.66715 0.11514 0.56665 0.0
C948 C 0.63766 0.08969 0.62185 0.0
C949 C 0.66997 0.08546 0.63115 0.0
C950 C 0.60801 0.09395 0.63406 0.0
C951 C 0.57579 0.10306 0.62553 0.0
C952 C 0.588 0.13805 0.61276 0.0
C953 C 0.55751 0.14633 0.60465 0.0
C954 C 0.5147 0.12003 0.60933 0.0
C955 C 0.50232 0.08547 0.62218 0.0
C956 C 0.53268 0.07701 0.63031 0.0
C957 C 0.67812 0.12391 0.71718 0.0
C958 C 0.64692 0.09029 0.72863 0.0
C959 C 0.67704 0.12251 0.69626 0.0
C960 C 0.64434 0.08781 0.68638 0.0
C961 C 0.61302 1.05428 0.69777 0.0
C962 C 0.61459 1.05526 0.71871 0.0
C963 C 0.64221 0.08711 0.66418 0.0
C964 C 0.61019 0.0917 0.65498 0.0
C965 C 0.67271 0.08431 0.65212 0.0
C966 C 0.70739 0.07962 0.66104 0.0
C967 C 0.69835 1.04594 0.6742 0.0
C968 C 0.73126 1.04199 0.68269 0.0
C969 C 0.77334 0.07137 0.67802 0.0
C970 C 0.78259 0.10471 0.66481 0.0
C971 C 0.7498 0.10882 0.6563 0.0
H972 H 0.79877 0.06825 0.68461 0.0
H973 H 0.49114 0.12649 0.60303 0.0
H974 H 0.65733 0.5602 0.89028 0.0
H975 H 0.6499 0.55728 0.92668 0.0
H976 H 0.72164 0.6935 0.92877 0.0
H977 H 0.73023 0.69627 0.89236 0.0
H978 H 0.74839 0.66721 0.95672 0.0
H979 H 0.60791 0.63137 0.93882 0.0
H980 H 0.53554 0.59533 0.92518 0.0
H981 H 0.51187 0.47856 0.9523 0.0
H982 H 0.58411 0.51383 0.96603 0.0
H983 H 0.66648 0.66399 0.05865 0.0
H984 H 0.67531 0.6723 0.02209 0.0
H985 H 0.67664 0.55505 0.01869 0.0
H986 H 0.66908 0.54722 0.05517 0.0
H987 H 0.6133 0.57503 0.99242 0.0
H988 H 0.75925 0.61758 0.0101 0.0
H989 H 0.82519 0.66138 0.02865 0.0
H990 H 0.83352 0.77381 0.00346 0.0
H991 H 0.76717 0.7306 0.98501 0.0
C992 C 0.6713 0.58953 0.89851 0.0
C993 C 0.6944 0.62848 0.88844 0.0
C994 C 0.66675 0.58788 0.91938 0.0
C995 C 0.68467 0.62519 0.93071 0.0
C996 C 0.70748 0.66416 0.92055 0.0
C997 C 0.71235 0.66578 0.89969 0.0
C998 C 0.68156 0.62349 0.95311 0.0
C999 C 0.71857 0.64734 0.96438 0.0
C1000 C 0.64298 0.59746 0.96351 0.0
C1001 C 0.60153 0.57519 0.95332 0.0
C1002 C 0.58754 0.59785 0.94157 0.0
C1003 C 0.54642 0.57762 0.93396 0.0
C1004 C 0.51907 0.53476 0.93801 0.0
C1005 C 0.53303 0.5118 0.94928 0.0
C1006 C 0.57404 0.53188 0.95697 0.0
C1007 C 0.66894 0.64019 0.05008 0.0
C1008 C 0.66725 0.60504 0.05974 0.0
C1009 C 0.67413 0.64503 0.02925 0.0
C1010 C 0.67693 0.61444 0.01773 0.0
C1011 C 0.67489 0.57918 0.02733 0.0
C1012 C 0.67064 0.57479 0.04814 0.0
C1013 C 0.67982 0.618 0.99557 0.0
C1014 C 0.64287 0.59465 0.9845 0.0
C1015 C 0.71809 0.64501 0.98541 0.0
C1016 C 0.75799 0.67091 0.99641 0.0
C1017 C 0.77486 0.65165 0.00871 0.0
C1018 C 0.81238 0.67636 0.01915 0.0
C1019 C 0.83345 0.72036 0.01729 0.0
C1020 C 0.81712 0.73973 0.00492 0.0
C1021 C 0.77958 0.71515 0.99447 0.0
H1022 H 0.8625 0.73944 0.02538 0.0
H1023 H 0.48701 0.51926 0.93244 0.0
H1024 H 0.13863 0.49181 0.23118 0.0
H1025 H 0.13946 0.49989 0.26755 0.0
H1026 H 0.12543 0.60973 0.26014 0.0
H1027 H 0.12313 0.60096 0.22371 0.0
H1028 H 0.19165 0.61863 0.28813 0.0
H1029 H 1.04366 0.52751 0.27421 0.0
H1030 H 0.98246 0.46497 0.25981 0.0
H1031 H 1.01165 0.38348 0.29448 0.0
H1032 H 1.07347 0.44559 0.30887 0.0
H1033 H 0.15152 0.64353 0.38935 0.0
H1034 H 0.14894 0.63644 0.35302 0.0
H1035 H 0.12582 0.50885 0.35927 0.0
H1036 H 0.12683 0.51545 0.39574 0.0
H1037 H 1.0785 0.50952 0.33125 0.0
H1038 H 0.22592 0.5972 0.34493 0.0
H1039 H 0.28951 0.65787 0.35899 0.0
H1040 H 0.26547 0.7434 0.32466 0.0
H1041 H 0.20137 0.68324 0.3106 0.0
C1042 C 0.13569 0.51768 0.23729 0.0
C1043 C 0.13109 0.54592 0.22457 0.0
C1044 C 0.13614 0.52223 0.25807 0.0
C1045 C 0.1325 0.55541 0.26657 0.0
C1046 C 0.12844 0.584 0.2539 0.0
C1047 C 0.1272 0.579 0.2331 0.0
C1048 C 0.13266 0.55992 0.28868 0.0
C1049 C 0.16665 0.59513 0.29758 0.0
C1050 C 1.10071 0.52859 0.30102 0.0
C1051 C 1.06346 0.49121 0.29245 0.0
C1052 C 1.03728 0.49626 0.27862 0.0
C1053 C 1.00242 0.46089 0.27049 0.0
C1054 C 0.99324 0.42028 0.27618 0.0
C1055 C 1.01884 0.41496 0.29006 0.0
C1056 C 1.05377 0.45024 0.29822 0.0
C1057 C 0.14612 0.61404 0.38297 0.0
C1058 C 0.13971 0.58016 0.39543 0.0
C1059 C 0.1448 0.61003 0.36214 0.0
C1060 C 0.13805 0.57237 0.35321 0.0
C1061 C 0.13118 0.5383 0.36568 0.0
C1062 C 0.13181 0.54209 0.38654 0.0
C1063 C 0.1377 0.56837 0.33093 0.0
C1064 C 0.10364 0.53318 0.32192 0.0
C1065 C 0.16999 0.59947 0.3185 0.0
C1066 C 0.2086 0.63572 0.32686 0.0
C1067 C 0.23402 0.62896 0.34049 0.0
C1068 C 0.27018 0.66325 0.34844 0.0
C1069 C 0.28146 0.70446 0.34276 0.0
C1070 C 0.25665 0.71146 0.32907 0.0
C1071 C 0.22043 0.67728 0.32109 0.0
H1072 H 0.30946 0.73097 0.34894 0.0
H1073 H 0.96624 0.39293 0.26987 0.0
loop_
_geom_bond_atom_site_label_1
_geom_bond_atom_site_label_2
_geom_bond_distance
_geom_bond_site_symmetry_2
_ccdc_geom_bond_type
Tb0 C2 2.809 . S
Tb0 O20 2.484 . S
Tb0 O21 2.440 . S
Tb0 O22 2.658 . S
Tb0 O23 2.409 . S
Tb0 O24 2.378 . S
Tb0 O28 2.325 . S
Tb0 O31 2.341 1_455 S
Tb1 C11 2.809 . S
Tb1 O22 2.325 1_655 S
Tb1 O25 2.341 1_655 S
Tb1 O26 2.484 . S
Tb1 O27 2.440 . S
Tb1 O28 2.658 1_655 S
Tb1 O29 2.409 1_655 S
Tb1 O30 2.378 . S
C2 Tb0 2.809 . S
C2 C3 1.514 . S
C2 O20 1.248 . S
C2 O21 1.266 . S
C3 C2 1.514 . S
C3 C4 1.359 . S
C3 C8 1.348 . S
C4 C3 1.359 . S
C4 C5 1.380 . S
C4 H32 0.929 . S
C5 C4 1.380 . S
C5 C6 1.347 . S
C5 H33 0.931 . S
C6 C5 1.347 . S
C6 C7 1.369 . S
C7 C6 1.369 . S
C7 C8 1.408 . S
C7 H34 0.930 . S
C8 C3 1.348 . S
C8 C7 1.408 . S
C8 H35 0.930 . S
C9 O22 1.281 . S
C9 O23 1.254 . S
C10 O24 1.236 . S
C10 O25 1.266 . S
C11 Tb1 2.809 . S
C11 C12 1.514 . S
C11 O26 1.248 . S
C11 O27 1.266 . S
C12 C11 1.514 . S
C12 C13 1.359 . S
C12 C17 1.348 . S
C13 C12 1.359 . S
C13 C14 1.380 . S
C13 H36 0.929 . S
C14 C13 1.380 . S
C14 C15 1.347 . S
C14 H37 0.931 . S
C15 C14 1.347 . S
C15 C16 1.369 . S
C16 C15 1.369 . S
C16 C17 1.408 . S
C16 H38 0.930 . S
C17 C12 1.348 . S
C17 C16 1.408 . S
C17 H39 0.930 . S
C18 O28 1.281 . S
C18 O29 1.254 . S
C19 O30 1.236 . S
C19 O31 1.266 . S
O20 Tb0 2.484 . S
O20 C2 1.248 . S
O21 Tb0 2.440 . S
O21 C2 1.266 . S
O22 Tb0 2.658 . S
O22 Tb1 2.325 1_455 S
O22 C9 1.281 . S
O23 Tb0 2.409 . S
O23 C9 1.254 . S
O24 Tb0 2.378 . S
O24 C10 1.236 . S
O25 Tb1 2.341 1_455 S
O25 C10 1.266 . S
O26 Tb1 2.484 . S
O26 C11 1.248 . S
O27 Tb1 2.440 . S
O27 C11 1.266 . S
O28 Tb0 2.325 . S
O28 Tb1 2.658 1_455 S
O28 C18 1.281 . S
O29 Tb1 2.409 1_455 S
O29 C18 1.254 . S
O30 Tb1 2.378 . S
O30 C19 1.236 . S
O31 Tb0 2.341 1_655 S
O31 C19 1.266 . S
H32 C4 0.929 . S
H33 C5 0.931 . S
H34 C7 0.930 . S
H35 C8 0.930 . S
H36 C13 0.929 . S
H37 C14 0.931 . S
H38 C16 0.930 . S
H39 C17 0.930 . S
Tb40 C42 2.796 1_545 S
Tb40 O60 2.474 1_545 S
Tb40 O61 2.428 1_545 S
Tb40 O62 2.669 . S
Tb40 O63 2.411 . S
Tb40 O64 2.376 1_545 S
Tb40 O68 2.331 . S
Tb40 O71 2.352 . S
Tb41 C51 2.809 . S
Tb41 O62 2.325 . S
Tb41 O65 2.341 1_545 S
Tb41 O66 2.484 . S
Tb41 O67 2.440 . S
Tb41 O68 2.658 . S
Tb41 O69 2.409 . S
Tb41 O70 2.378 . S
C42 Tb40 2.796 1_565 S
C42 C43 1.514 . S
C42 O60 1.248 . S
C42 O61 1.266 . S
C43 C42 1.514 . S
C43 C44 1.359 . S
C43 C48 1.348 . S
C44 C43 1.359 . S
C44 C45 1.380 . S
C44 H72 0.929 . S
C45 C44 1.380 . S
C45 C46 1.347 . S
C45 H73 0.931 . S
C46 C45 1.347 . S
C46 C47 1.369 . S
C47 C46 1.369 . S
C47 C48 1.408 . S
C47 H74 0.930 . S
C48 C43 1.348 . S
C48 C47 1.408 . S
C48 H75 0.930 . S
C49 O62 1.281 . S
C49 O63 1.254 . S
C50 O64 1.236 . S
C50 O65 1.266 . S
C51 Tb41 2.809 . S
C51 C52 1.514 . S
C51 O66 1.248 . S
C51 O67 1.266 . S
C52 C51 1.514 . S
C52 C53 1.359 . S
C52 C57 1.348 . S
C53 C52 1.359 . S
C53 C54 1.380 . S
C53 H76 0.929 . S
C54 C53 1.380 . S
C54 C55 1.347 . S
C54 H77 0.931 . S
C55 C54 1.347 . S
C55 C56 1.369 . S
C56 C55 1.369 . S
C56 C57 1.408 . S
C56 H78 0.930 . S
C57 C52 1.348 . S
C57 C56 1.408 . S
C57 H79 0.930 . S
C58 O68 1.281 . S
C58 O69 1.254 . S
C59 O70 1.236 . S
C59 O71 1.266 . S
O60 Tb40 2.474 1_565 S
O60 C42 1.248 . S
O61 Tb40 2.428 1_565 S
O61 C42 1.266 . S
O62 Tb40 2.669 . S
O62 Tb41 2.325 . S
O62 C49 1.281 . S
O63 Tb40 2.411 . S
O63 C49 1.254 . S
O64 Tb40 2.376 1_565 S
O64 C50 1.236 . S
O65 Tb41 2.341 1_565 S
O65 C50 1.266 . S
O66 Tb41 2.484 . S
O66 C51 1.248 . S
O67 Tb41 2.440 . S
O67 C51 1.266 . S
O68 Tb40 2.331 . S
O68 Tb41 2.658 . S
O68 C58 1.281 . S
O69 Tb41 2.409 . S
O69 C58 1.254 . S
O70 Tb41 2.378 . S
O70 C59 1.236 . S
O71 Tb40 2.352 . S
O71 C59 1.266 . S
H72 C44 0.929 . S
H73 C45 0.931 . S
H74 C47 0.930 . S
H75 C48 0.930 . S
H76 C53 0.929 . S
H77 C54 0.931 . S
H78 C56 0.930 . S
H79 C57 0.930 . S
Tb80 C82 2.809 . S
Tb80 O100 2.484 . S
Tb80 O101 2.440 . S
Tb80 O102 2.658 . S
Tb80 O103 2.409 . S
Tb80 O104 2.378 . S
Tb80 O108 2.325 . S
Tb80 O111 2.341 . S
Tb81 C91 2.809 . S
Tb81 O102 2.325 . S
Tb81 O105 2.341 . S
Tb81 O106 2.484 . S
Tb81 O107 2.440 . S
Tb81 O108 2.658 . S
Tb81 O109 2.409 . S
Tb81 O110 2.378 . S
C82 Tb80 2.809 . S
C82 C83 1.514 . S
C82 O100 1.248 . S
C82 O101 1.266 . S
C83 C82 1.514 . S
C83 C84 1.359 . S
C83 C88 1.348 . S
C84 C83 1.359 . S
C84 C85 1.380 . S
C84 H112 0.929 . S
C85 C84 1.380 . S
C85 C86 1.347 . S
C85 H113 0.931 . S
C86 C85 1.347 . S
C86 C87 1.369 . S
C87 C86 1.369 . S
C87 C88 1.408 . S
C87 H114 0.930 . S
C88 C83 1.348 . S
C88 C87 1.408 . S
C88 H115 0.930 . S
C89 O102 1.281 . S
C89 O103 1.254 . S
C90 O104 1.236 . S
C90 O105 1.266 . S
C91 Tb81 2.809 . S
C91 C92 1.514 . S
C91 O106 1.248 . S
C91 O107 1.266 . S
C92 C91 1.514 . S
C92 C93 1.359 . S
C92 C97 1.348 . S
C93 C92 1.359 . S
C93 C94 1.380 . S
C93 H116 0.929 . S
C94 C93 1.380 . S
C94 C95 1.347 . S
C94 H117 0.931 . S
C95 C94 1.347 . S
C95 C96 1.369 . S
C96 C95 1.369 . S
C96 C97 1.408 . S
C96 H118 0.930 . S
C97 C92 1.348 . S
C97 C96 1.408 . S
C97 H119 0.930 . S
C98 O108 1.281 . S
C98 O109 1.254 . S
C99 O110 1.236 . S
C99 O111 1.266 . S
O100 Tb80 2.484 . S
O100 C82 1.248 . S
O101 Tb80 2.440 . S
O101 C82 1.266 . S
O102 Tb80 2.658 . S
O102 Tb81 2.325 . S
O102 C89 1.281 . S
O103 Tb80 2.409 . S
O103 C89 1.254 . S
O104 Tb80 2.378 . S
O104 C90 1.236 . S
O105 Tb81 2.341 . S
O105 C90 1.266 . S
O106 Tb81 2.484 . S
O106 C91 1.248 . S
O107 Tb81 2.440 . S
O107 C91 1.266 . S
O108 Tb80 2.325 . S
O108 Tb81 2.658 . S
O108 C98 1.281 . S
O109 Tb81 2.409 . S
O109 C98 1.254 . S
O110 Tb81 2.378 . S
O110 C99 1.236 . S
O111 Tb80 2.341 . S
O111 C99 1.266 . S
H112 C84 0.929 . S
H113 C85 0.931 . S
H114 C87 0.930 . S
H115 C88 0.930 . S
H116 C93 0.929 . S
H117 C94 0.931 . S
H118 C96 0.930 . S
H119 C97 0.930 . S
H120 C123 0.931 1_565 S
H121 C126 0.928 . S
H122 C128 0.930 . S
C123 H120 0.931 1_545 S
C123 C124 1.413 . S
C123 C125 1.360 . S
C124 C123 1.413 . S
C124 C128 1.429 . S
C125 C123 1.360 . S
C125 C126 1.372 . S
C126 H121 0.928 . S
C126 C125 1.372 . S
C126 C127 1.404 . S
C127 C126 1.404 . S
C127 C128 1.391 . S
C128 H122 0.930 . S
C128 C124 1.429 . S
C128 C127 1.391 . S
H129 C132 0.931 . S
H130 C135 0.928 . S
H131 C137 0.930 . S
C132 H129 0.931 . S
C132 C133 1.413 . S
C132 C134 1.360 . S
C133 C132 1.413 . S
C133 C137 1.429 . S
C134 C132 1.360 . S
C134 C135 1.372 . S
C135 H130 0.928 . S
C135 C134 1.372 . S
C135 C136 1.404 . S
C136 C135 1.404 . S
C136 C137 1.391 . S
C137 H131 0.930 . S
C137 C133 1.429 . S
C137 C136 1.391 . S
H138 C141 0.931 . S
H139 C144 0.928 . S
H140 C146 0.930 . S
C141 H138 0.931 . S
C141 C142 1.413 . S
C141 C143 1.360 1_655 S
C142 C141 1.413 . S
C142 C146 1.429 1_655 S
C143 C141 1.360 1_455 S
C143 C144 1.372 . S
C144 H139 0.928 . S
C144 C143 1.372 . S
C144 C145 1.404 . S
C145 C144 1.404 . S
C145 C146 1.391 . S
C146 H140 0.930 . S
C146 C142 1.429 1_455 S
C146 C145 1.391 . S
H147 C150 0.931 1_655 S
H148 C153 0.928 . S
H149 C155 0.930 . S
C150 H147 0.931 1_455 S
C150 C151 1.413 . S
C150 C152 1.360 . S
C151 C150 1.413 . S
C151 C155 1.429 . S
C152 C150 1.360 . S
C152 C153 1.372 . S
C153 H148 0.928 . S
C153 C152 1.372 . S
C153 C154 1.404 . S
C154 C153 1.404 . S
C154 C155 1.391 . S
C155 H149 0.930 . S
C155 C151 1.429 . S
C155 C154 1.391 . S
H156 C159 0.931 . S
H157 C162 0.928 . S
H158 C164 0.931 . S
C159 H156 0.931 . S
C159 C160 1.413 . S
C159 C161 1.360 . S
C160 C159 1.413 . S
C160 C164 1.429 . S
C161 C159 1.360 . S
C161 C162 1.372 1_545 S
C162 H157 0.928 . S
C162 C161 1.372 1_565 S
C162 C163 1.404 . S
C163 C162 1.404 . S
C163 C164 1.391 1_565 S
C164 H158 0.931 . S
C164 C160 1.429 . S
C164 C163 1.391 1_545 S
H165 C168 0.931 . S
H166 C171 0.928 . S
H167 C173 0.930 . S
C168 H165 0.931 . S
C168 C169 1.413 . S
C168 C170 1.360 . S
C169 C168 1.413 . S
C169 C173 1.429 . S
C170 C168 1.360 . S
C170 C171 1.372 . S
C171 H166 0.928 . S
C171 C170 1.372 . S
C171 C172 1.404 . S
C172 C171 1.404 . S
C172 C173 1.391 . S
C173 H167 0.930 . S
C173 C169 1.429 . S
C173 C172 1.391 . S
H174 C192 0.951 . S
H175 C194 0.951 . S
H176 C196 0.950 . S
H177 C197 0.950 . S
H178 C199 0.950 . S
H179 C202 0.950 . S
H180 C203 0.950 . S
H181 C205 0.950 . S
H182 C206 0.950 . S
H183 C207 0.951 . S
H184 C209 0.951 . S
H185 C211 0.950 . S
H186 C212 0.950 . S
H187 C214 0.950 . S
H188 C217 0.950 . S
H189 C218 0.950 . S
H190 C220 0.950 . S
H191 C221 0.950 . S
C192 H174 0.951 . S
C192 C193 1.366 . S
C192 C194 1.388 . S
C193 C192 1.366 . S
C193 C197 1.385 . S
C194 H175 0.951 . S
C194 C192 1.388 . S
C194 C195 1.366 . S
C195 C194 1.366 . S
C195 C196 1.414 . S
C195 C198 1.499 . S
C196 H176 0.950 . S
C196 C195 1.414 . S
C196 C197 1.374 . S
C197 H177 0.950 . S
C197 C193 1.385 . S
C197 C196 1.374 . S
C198 C195 1.499 . S
C198 C199 1.373 . S
C198 C200 1.389 . S
C199 H178 0.950 . S
C199 C198 1.373 . S
C199 C215 1.377 . S
C200 C198 1.389 . S
C200 C201 1.524 . S
C200 C214 1.377 . S
C201 C200 1.524 . S
C201 C202 1.397 . S
C201 C206 1.363 . S
C202 H179 0.950 . S
C202 C201 1.397 . S
C202 C203 1.334 . S
C203 H180 0.950 . S
C203 C202 1.334 . S
C203 C204 1.287 . S
C204 C203 1.287 . S
C204 C205 1.524 . S
C204 H223 0.913 . S
C205 H181 0.950 . S
C205 C204 1.524 . S
C205 C206 1.415 . S
C206 H182 0.950 . S
C206 C201 1.363 . S
C206 C205 1.415 . S
C207 H183 0.951 . S
C207 C208 1.366 . S
C207 C209 1.388 . S
C208 C207 1.366 . S
C208 C212 1.385 . S
C209 H184 0.951 . S
C209 C207 1.388 . S
C209 C210 1.366 . S
C210 C209 1.366 . S
C210 C211 1.414 . S
C210 C213 1.499 . S
C211 H185 0.950 . S
C211 C210 1.414 . S
C211 C212 1.374 . S
C212 H186 0.950 . S
C212 C208 1.385 . S
C212 C211 1.374 . S
C213 C210 1.499 . S
C213 C214 1.373 . S
C213 C215 1.389 . S
C214 H187 0.950 . S
C214 C200 1.377 . S
C214 C213 1.373 . S
C215 C199 1.377 . S
C215 C213 1.389 . S
C215 C216 1.524 . S
C216 C215 1.524 . S
C216 C217 1.397 . S
C216 C221 1.363 . S
C217 H188 0.950 . S
C217 C216 1.397 . S
C217 C218 1.334 . S
C218 H189 0.950 . S
C218 C217 1.334 . S
C218 C219 1.287 . S
C219 C218 1.287 . S
C219 C220 1.524 . S
C219 H222 0.999 . S
C220 H190 0.950 . S
C220 C219 1.524 . S
C220 C221 1.415 . S
C221 H191 0.950 . S
C221 C216 1.363 . S
C221 C220 1.415 . S
H222 C219 0.999 . S
H223 C204 0.913 . S
H224 C242 0.951 . S
H225 C244 0.951 . S
H226 C246 0.950 . S
H227 C247 0.950 . S
H228 C249 0.950 . S
H229 C252 0.950 . S
H230 C253 0.950 . S
H231 C255 0.950 . S
H232 C256 0.950 . S
H233 C257 0.951 . S
H234 C259 0.951 . S
H235 C261 0.950 . S
H236 C262 0.950 . S
H237 C264 0.950 . S
H238 C267 0.950 . S
H239 C268 0.950 . S
H240 C270 0.950 . S
H241 C271 0.950 . S
C242 H224 0.951 . S
C242 C243 1.366 . S
C242 C244 1.388 . S
C243 C242 1.366 . S
C243 C247 1.385 . S
C244 H225 0.951 . S
C244 C242 1.388 . S
C244 C245 1.366 . S
C245 C244 1.366 . S
C245 C246 1.414 . S
C245 C248 1.499 . S
C246 H226 0.950 . S
C246 C245 1.414 . S
C246 C247 1.374 . S
C247 H227 0.950 . S
C247 C243 1.385 . S
C247 C246 1.374 . S
C248 C245 1.499 . S
C248 C249 1.373 . S
C248 C250 1.389 . S
C249 H228 0.950 . S
C249 C248 1.373 . S
C249 C265 1.377 . S
C250 C248 1.389 . S
C250 C251 1.524 . S
C250 C264 1.377 . S
C251 C250 1.524 . S
C251 C252 1.397 . S
C251 C256 1.363 . S
C252 H229 0.950 . S
C252 C251 1.397 . S
C252 C253 1.334 . S
C253 H230 0.950 . S
C253 C252 1.334 . S
C253 C254 1.287 . S
C254 C253 1.287 . S
C254 C255 1.524 . S
C254 H273 0.913 . S
C255 H231 0.950 . S
C255 C254 1.524 . S
C255 C256 1.415 . S
C256 H232 0.950 . S
C256 C251 1.363 . S
C256 C255 1.415 . S
C257 H233 0.951 . S
C257 C258 1.366 . S
C257 C259 1.388 . S
C258 C257 1.366 . S
C258 C262 1.385 . S
C259 H234 0.951 . S
C259 C257 1.388 . S
C259 C260 1.366 . S
C260 C259 1.366 . S
C260 C261 1.414 . S
C260 C263 1.499 . S
C261 H235 0.950 . S
C261 C260 1.414 . S
C261 C262 1.374 . S
C262 H236 0.950 . S
C262 C258 1.385 . S
C262 C261 1.374 . S
C263 C260 1.499 . S
C263 C264 1.373 . S
C263 C265 1.389 . S
C264 H237 0.950 . S
C264 C250 1.377 . S
C264 C263 1.373 . S
C265 C249 1.377 . S
C265 C263 1.389 . S
C265 C266 1.524 . S
C266 C265 1.524 . S
C266 C267 1.397 . S
C266 C271 1.363 . S
C267 H238 0.950 . S
C267 C266 1.397 . S
C267 C268 1.334 . S
C268 H239 0.950 . S
C268 C267 1.334 . S
C268 C269 1.287 . S
C269 C268 1.287 . S
C269 C270 1.524 . S
C269 H272 0.999 . S
C270 H240 0.950 . S
C270 C269 1.524 . S
C270 C271 1.415 . S
C271 H241 0.950 . S
C271 C266 1.363 . S
C271 C270 1.415 . S
H272 C269 0.999 . S
H273 C254 0.913 . S
H274 C292 0.951 . S
H275 C294 0.951 . S
H276 C296 0.950 . S
H277 C297 0.950 . S
H278 C299 0.950 . S
H279 C302 0.950 . S
H280 C303 0.950 . S
H281 C305 0.950 . S
H282 C306 0.950 . S
H283 C307 0.951 . S
H284 C309 0.951 . S
H285 C311 0.950 . S
H286 C312 0.950 . S
H287 C314 0.950 . S
H288 C317 0.950 . S
H289 C318 0.950 . S
H290 C320 0.950 . S
H291 C321 0.950 . S
C292 H274 0.951 . S
C292 C293 1.366 . S
C292 C294 1.388 . S
C293 C292 1.366 . S
C293 C297 1.385 . S
C294 H275 0.951 . S
C294 C292 1.388 . S
C294 C295 1.366 . S
C295 C294 1.366 . S
C295 C296 1.414 . S
C295 C298 1.499 . S
C296 H276 0.950 . S
C296 C295 1.414 . S
C296 C297 1.374 . S
C297 H277 0.950 . S
C297 C293 1.385 . S
C297 C296 1.374 . S
C298 C295 1.499 . S
C298 C299 1.373 . S
C298 C300 1.389 . S
C299 H278 0.950 . S
C299 C298 1.373 . S
C299 C315 1.377 . S
C300 C298 1.389 . S
C300 C301 1.524 . S
C300 C314 1.377 . S
C301 C300 1.524 . S
C301 C302 1.397 . S
C301 C306 1.363 . S
C302 H279 0.950 . S
C302 C301 1.397 . S
C302 C303 1.334 . S
C303 H280 0.950 . S
C303 C302 1.334 . S
C303 C304 1.287 . S
C304 C303 1.287 . S
C304 C305 1.524 . S
C304 H323 0.913 . S
C305 H281 0.950 . S
C305 C304 1.524 . S
C305 C306 1.415 . S
C306 H282 0.950 . S
C306 C301 1.363 . S
C306 C305 1.415 . S
C307 H283 0.951 . S
C307 C308 1.366 . S
C307 C309 1.388 . S
C308 C307 1.366 . S
C308 C312 1.385 . S
C309 H284 0.951 . S
C309 C307 1.388 . S
C309 C310 1.366 . S
C310 C309 1.366 . S
C310 C311 1.414 . S
C310 C313 1.499 . S
C311 H285 0.950 . S
C311 C310 1.414 . S
C311 C312 1.374 . S
C312 H286 0.950 . S
C312 C308 1.385 . S
C312 C311 1.374 . S
C313 C310 1.499 . S
C313 C314 1.373 . S
C313 C315 1.389 . S
C314 H287 0.950 . S
C314 C300 1.377 . S
C314 C313 1.373 . S
C315 C299 1.377 . S
C315 C313 1.389 . S
C315 C316 1.524 . S
C316 C315 1.524 . S
C316 C317 1.397 . S
C316 C321 1.363 . S
C317 H288 0.950 . S
C317 C316 1.397 . S
C317 C318 1.334 . S
C318 H289 0.950 . S
C318 C317 1.334 . S
C318 C319 1.287 . S
C319 C318 1.287 . S
C319 C320 1.524 . S
C319 H322 0.999 . S
C320 H290 0.950 . S
C320 C319 1.524 . S
C320 C321 1.415 . S
C321 H291 0.950 . S
C321 C316 1.363 . S
C321 C320 1.415 . S
H322 C319 0.999 . S
H323 C304 0.913 . S
H324 C342 0.951 . S
H325 C344 0.951 . S
H326 C346 0.950 . S
H327 C347 0.950 . S
H328 C349 0.950 . S
H329 C352 0.950 . S
H330 C353 0.950 . S
H331 C355 0.950 . S
H332 C356 0.950 . S
H333 C357 0.951 . S
H334 C359 0.951 . S
H335 C361 0.950 . S
H336 C362 0.950 . S
H337 C364 0.950 . S
H338 C367 0.950 . S
H339 C368 0.950 . S
H340 C370 0.950 . S
H341 C371 0.950 . S
C342 H324 0.951 . S
C342 C343 1.366 . S
C342 C344 1.388 . S
C343 C342 1.366 . S
C343 C347 1.385 . S
C344 H325 0.951 . S
C344 C342 1.388 . S
C344 C345 1.366 . S
C345 C344 1.366 . S
C345 C346 1.414 . S
C345 C348 1.499 . S
C346 H326 0.950 . S
C346 C345 1.414 . S
C346 C347 1.374 . S
C347 H327 0.950 . S
C347 C343 1.385 . S
C347 C346 1.374 . S
C348 C345 1.499 . S
C348 C349 1.373 . S
C348 C350 1.389 . S
C349 H328 0.950 . S
C349 C348 1.373 . S
C349 C365 1.377 . S
C350 C348 1.389 . S
C350 C351 1.524 . S
C350 C364 1.377 . S
C351 C350 1.524 . S
C351 C352 1.397 . S
C351 C356 1.363 . S
C352 H329 0.950 . S
C352 C351 1.397 . S
C352 C353 1.334 . S
C353 H330 0.950 . S
C353 C352 1.334 . S
C353 C354 1.287 . S
C354 C353 1.287 . S
C354 C355 1.524 . S
C354 H373 0.913 . S
C355 H331 0.950 . S
C355 C354 1.524 . S
C355 C356 1.415 . S
C356 H332 0.950 . S
C356 C351 1.363 . S
C356 C355 1.415 . S
C357 H333 0.951 . S
C357 C358 1.366 . S
C357 C359 1.388 . S
C358 C357 1.366 . S
C358 C362 1.385 . S
C359 H334 0.951 . S
C359 C357 1.388 . S
C359 C360 1.366 . S
C360 C359 1.366 . S
C360 C361 1.414 . S
C360 C363 1.499 . S
C361 H335 0.950 . S
C361 C360 1.414 . S
C361 C362 1.374 . S
C362 H336 0.950 . S
C362 C358 1.385 . S
C362 C361 1.374 . S
C363 C360 1.499 . S
C363 C364 1.373 . S
C363 C365 1.389 . S
C364 H337 0.950 . S
C364 C350 1.377 . S
C364 C363 1.373 . S
C365 C349 1.377 . S
C365 C363 1.389 . S
C365 C366 1.524 . S
C366 C365 1.524 . S
C366 C367 1.397 . S
C366 C371 1.363 . S
C367 H338 0.950 . S
C367 C366 1.397 . S
C367 C368 1.334 . S
C368 H339 0.950 . S
C368 C367 1.334 . S
C368 C369 1.287 . S
C369 C368 1.287 . S
C369 C370 1.524 . S
C369 H372 0.999 . S
C370 H340 0.950 . S
C370 C369 1.524 . S
C370 C371 1.415 . S
C371 H341 0.950 . S
C371 C366 1.363 . S
C371 C370 1.415 . S
H372 C369 0.999 . S
H373 C354 0.913 . S
H374 C392 0.951 . S
H375 C394 0.951 . S
H376 C396 0.950 . S
H377 C397 0.950 . S
H378 C399 0.950 . S
H379 C402 0.950 . S
H380 C403 0.950 . S
H381 C405 0.950 . S
H382 C406 0.950 . S
H383 C407 0.951 . S
H384 C409 0.951 . S
H385 C411 0.950 . S
H386 C412 0.950 . S
H387 C414 0.950 . S
H388 C417 0.950 . S
H389 C418 0.950 . S
H390 C420 0.950 . S
H391 C421 0.950 . S
C392 H374 0.951 . S
C392 C393 1.366 . S
C392 C394 1.388 . S
C393 C392 1.366 . S
C393 C397 1.385 . S
C394 H375 0.951 . S
C394 C392 1.388 . S
C394 C395 1.366 . S
C395 C394 1.366 . S
C395 C396 1.414 . S
C395 C398 1.499 . S
C396 H376 0.950 . S
C396 C395 1.414 . S
C396 C397 1.374 . S
C397 H377 0.950 . S
C397 C393 1.385 . S
C397 C396 1.374 . S
C398 C395 1.499 . S
C398 C399 1.373 . S
C398 C400 1.389 . S
C399 H378 0.950 . S
C399 C398 1.373 . S
C399 C415 1.377 . S
C400 C398 1.389 . S
C400 C401 1.524 . S
C400 C414 1.377 . S
C401 C400 1.524 . S
C401 C402 1.397 . S
C401 C406 1.363 . S
C402 H379 0.950 . S
C402 C401 1.397 . S
C402 C403 1.334 . S
C403 H380 0.950 . S
C403 C402 1.334 . S
C403 C404 1.287 . S
C404 C403 1.287 . S
C404 C405 1.524 . S
C404 H423 0.913 . S
C405 H381 0.950 . S
C405 C404 1.524 . S
C405 C406 1.415 . S
C406 H382 0.950 . S
C406 C401 1.363 . S
C406 C405 1.415 . S
C407 H383 0.951 . S
C407 C408 1.366 . S
C407 C409 1.388 . S
C408 C407 1.366 . S
C408 C412 1.385 . S
C409 H384 0.951 . S
C409 C407 1.388 . S
C409 C410 1.366 . S
C410 C409 1.366 . S
C410 C411 1.414 . S
C410 C413 1.499 . S
C411 H385 0.950 . S
C411 C410 1.414 . S
C411 C412 1.374 . S
C412 H386 0.950 . S
C412 C408 1.385 . S
C412 C411 1.374 . S
C413 C410 1.499 . S
C413 C414 1.373 . S
C413 C415 1.389 . S
C414 H387 0.950 . S
C414 C400 1.377 . S
C414 C413 1.373 . S
C415 C399 1.377 . S
C415 C413 1.389 . S
C415 C416 1.524 . S
C416 C415 1.524 . S
C416 C417 1.397 . S
C416 C421 1.363 . S
C417 H388 0.950 . S
C417 C416 1.397 . S
C417 C418 1.334 . S
C418 H389 0.950 . S
C418 C417 1.334 . S
C418 C419 1.287 . S
C419 C418 1.287 . S
C419 C420 1.524 . S
C419 H422 0.999 . S
C420 H390 0.950 . S
C420 C419 1.524 . S
C420 C421 1.415 . S
C421 H391 0.950 . S
C421 C416 1.363 . S
C421 C420 1.415 . S
H422 C419 0.999 . S
H423 C404 0.913 . S
H424 C442 0.951 . S
H425 C444 0.951 . S
H426 C446 0.950 . S
H427 C447 0.950 . S
H428 C449 0.950 . S
H429 C452 0.950 . S
H430 C453 0.950 . S
H431 C455 0.950 . S
H432 C456 0.950 . S
H433 C457 0.951 . S
H434 C459 0.951 . S
H435 C461 0.950 . S
H436 C462 0.950 . S
H437 C464 0.950 . S
H438 C467 0.950 . S
H439 C468 0.950 . S
H440 C470 0.950 . S
H441 C471 0.950 . S
C442 H424 0.951 . S
C442 C443 1.366 . S
C442 C444 1.388 . S
C443 C442 1.366 . S
C443 C447 1.385 . S
C444 H425 0.951 . S
C444 C442 1.388 . S
C444 C445 1.366 . S
C445 C444 1.366 . S
C445 C446 1.414 . S
C445 C448 1.499 . S
C446 H426 0.950 . S
C446 C445 1.414 . S
C446 C447 1.374 . S
C447 H427 0.950 . S
C447 C443 1.385 . S
C447 C446 1.374 . S
C448 C445 1.499 . S
C448 C449 1.373 . S
C448 C450 1.389 . S
C449 H428 0.950 . S
C449 C448 1.373 . S
C449 C465 1.377 . S
C450 C448 1.389 . S
C450 C451 1.524 . S
C450 C464 1.377 . S
C451 C450 1.524 . S
C451 C452 1.397 . S
C451 C456 1.363 . S
C452 H429 0.950 . S
C452 C451 1.397 . S
C452 C453 1.334 . S
C453 H430 0.950 . S
C453 C452 1.334 . S
C453 C454 1.287 . S
C454 C453 1.287 . S
C454 C455 1.524 . S
C454 H473 0.913 . S
C455 H431 0.950 . S
C455 C454 1.524 . S
C455 C456 1.415 . S
C456 H432 0.950 . S
C456 C451 1.363 . S
C456 C455 1.415 . S
C457 H433 0.951 . S
C457 C458 1.366 . S
C457 C459 1.388 . S
C458 C457 1.366 . S
C458 C462 1.385 . S
C459 H434 0.951 . S
C459 C457 1.388 . S
C459 C460 1.366 . S
C460 C459 1.366 . S
C460 C461 1.414 . S
C460 C463 1.499 . S
C461 H435 0.950 . S
C461 C460 1.414 . S
C461 C462 1.374 . S
C462 H436 0.950 . S
C462 C458 1.385 . S
C462 C461 1.374 . S
C463 C460 1.499 . S
C463 C464 1.373 . S
C463 C465 1.389 . S
C464 H437 0.950 . S
C464 C450 1.377 . S
C464 C463 1.373 . S
C465 C449 1.377 . S
C465 C463 1.389 . S
C465 C466 1.524 . S
C466 C465 1.524 . S
C466 C467 1.397 . S
C466 C471 1.363 . S
C467 H438 0.950 . S
C467 C466 1.397 . S
C467 C468 1.334 . S
C468 H439 0.950 . S
C468 C467 1.334 . S
C468 C469 1.287 . S
C469 C468 1.287 . S
C469 C470 1.524 . S
C469 H472 0.999 . S
C470 H440 0.950 . S
C470 C469 1.524 . S
C470 C471 1.415 . S
C471 H441 0.950 . S
C471 C466 1.363 . S
C471 C470 1.415 . S
H472 C469 0.999 . S
H473 C454 0.913 . S
H474 C492 0.951 . S
H475 C494 0.951 . S
H476 C496 0.950 . S
H477 C497 0.950 . S
H478 C499 0.950 . S
H479 C502 0.950 . S
H480 C503 0.950 . S
H481 C505 0.950 . S
H482 C506 0.950 . S
H483 C507 0.951 . S
H484 C509 0.951 . S
H485 C511 0.950 . S
H486 C512 0.950 . S
H487 C514 0.950 . S
H488 C517 0.950 . S
H489 C518 0.950 . S
H490 C520 0.950 . S
H491 C521 0.950 . S
C492 H474 0.951 . S
C492 C493 1.366 . S
C492 C494 1.388 . S
C493 C492 1.366 . S
C493 C497 1.385 . S
C494 H475 0.951 . S
C494 C492 1.388 . S
C494 C495 1.366 . S
C495 C494 1.366 . S
C495 C496 1.414 . S
C495 C498 1.499 . S
C496 H476 0.950 . S
C496 C495 1.414 . S
C496 C497 1.374 . S
C497 H477 0.950 . S
C497 C493 1.385 . S
C497 C496 1.374 . S
C498 C495 1.499 . S
C498 C499 1.373 . S
C498 C500 1.389 . S
C499 H478 0.950 . S
C499 C498 1.373 . S
C499 C515 1.377 . S
C500 C498 1.389 . S
C500 C501 1.524 . S
C500 C514 1.377 . S
C501 C500 1.524 . S
C501 C502 1.397 . S
C501 C506 1.363 . S
C502 H479 0.950 . S
C502 C501 1.397 . S
C502 C503 1.334 . S
C503 H480 0.950 . S
C503 C502 1.334 . S
C503 C504 1.287 . S
C504 C503 1.287 . S
C504 C505 1.524 . S
C504 H523 0.913 . S
C505 H481 0.950 . S
C505 C504 1.524 . S
C505 C506 1.415 . S
C506 H482 0.950 . S
C506 C501 1.363 . S
C506 C505 1.415 . S
C507 H483 0.951 . S
C507 C508 1.366 . S
C507 C509 1.388 . S
C508 C507 1.366 . S
C508 C512 1.385 . S
C509 H484 0.951 . S
C509 C507 1.388 . S
C509 C510 1.366 . S
C510 C509 1.366 . S
C510 C511 1.414 . S
C510 C513 1.499 . S
C511 H485 0.950 . S
C511 C510 1.414 . S
C511 C512 1.374 . S
C512 H486 0.950 . S
C512 C508 1.385 . S
C512 C511 1.374 . S
C513 C510 1.499 . S
C513 C514 1.373 . S
C513 C515 1.389 . S
C514 H487 0.950 . S
C514 C500 1.377 . S
C514 C513 1.373 . S
C515 C499 1.377 . S
C515 C513 1.389 . S
C515 C516 1.524 . S
C516 C515 1.524 . S
C516 C517 1.397 . S
C516 C521 1.363 . S
C517 H488 0.950 . S
C517 C516 1.397 . S
C517 C518 1.334 . S
C518 H489 0.950 . S
C518 C517 1.334 . S
C518 C519 1.287 . S
C519 C518 1.287 . S
C519 C520 1.524 . S
C519 H522 0.999 . S
C520 H490 0.950 . S
C520 C519 1.524 . S
C520 C521 1.415 . S
C521 H491 0.950 . S
C521 C516 1.363 . S
C521 C520 1.415 . S
H522 C519 0.999 . S
H523 C504 0.913 . S
H524 C542 0.951 . S
H525 C544 0.951 . S
H526 C546 0.950 . S
H527 C547 0.950 . S
H528 C549 0.950 . S
H529 C552 0.950 . S
H530 C553 0.950 . S
H531 C555 0.950 . S
H532 C556 0.950 . S
H533 C557 0.951 . S
H534 C559 0.951 . S
H535 C561 0.950 . S
H536 C562 0.950 . S
H537 C564 0.950 . S
H538 C567 0.950 . S
H539 C568 0.950 . S
H540 C570 0.950 . S
H541 C571 0.950 . S
C542 H524 0.951 . S
C542 C543 1.366 . S
C542 C544 1.388 . S
C543 C542 1.366 . S
C543 C547 1.385 . S
C544 H525 0.951 . S
C544 C542 1.388 . S
C544 C545 1.366 . S
C545 C544 1.366 . S
C545 C546 1.414 . S
C545 C548 1.499 . S
C546 H526 0.950 . S
C546 C545 1.414 . S
C546 C547 1.374 . S
C547 H527 0.950 . S
C547 C543 1.385 . S
C547 C546 1.374 . S
C548 C545 1.499 . S
C548 C549 1.373 . S
C548 C550 1.389 . S
C549 H528 0.950 . S
C549 C548 1.373 . S
C549 C565 1.377 . S
C550 C548 1.389 . S
C550 C551 1.524 . S
C550 C564 1.377 . S
C551 C550 1.524 . S
C551 C552 1.397 . S
C551 C556 1.363 . S
C552 H529 0.950 . S
C552 C551 1.397 . S
C552 C553 1.334 . S
C553 H530 0.950 . S
C553 C552 1.334 . S
C553 C554 1.287 . S
C554 C553 1.287 . S
C554 C555 1.524 . S
C554 H573 0.913 . S
C555 H531 0.950 . S
C555 C554 1.524 . S
C555 C556 1.415 . S
C556 H532 0.950 . S
C556 C551 1.363 . S
C556 C555 1.415 . S
C557 H533 0.951 . S
C557 C558 1.366 . S
C557 C559 1.388 . S
C558 C557 1.366 . S
C558 C562 1.385 . S
C559 H534 0.951 . S
C559 C557 1.388 . S
C559 C560 1.366 . S
C560 C559 1.366 . S
C560 C561 1.414 . S
C560 C563 1.499 . S
C561 H535 0.950 . S
C561 C560 1.414 . S
C561 C562 1.374 . S
C562 H536 0.950 . S
C562 C558 1.385 . S
C562 C561 1.374 . S
C563 C560 1.499 . S
C563 C564 1.373 . S
C563 C565 1.389 . S
C564 H537 0.950 . S
C564 C550 1.377 . S
C564 C563 1.373 . S
C565 C549 1.377 . S
C565 C563 1.389 . S
C565 C566 1.524 . S
C566 C565 1.524 . S
C566 C567 1.397 . S
C566 C571 1.363 . S
C567 H538 0.950 . S
C567 C566 1.397 . S
C567 C568 1.334 . S
C568 H539 0.950 . S
C568 C567 1.334 . S
C568 C569 1.287 . S
C569 C568 1.287 . S
C569 C570 1.524 . S
C569 H572 0.999 . S
C570 H540 0.950 . S
C570 C569 1.524 . S
C570 C571 1.415 . S
C571 H541 0.950 . S
C571 C566 1.363 . S
C571 C570 1.415 . S
H572 C569 0.999 . S
H573 C554 0.913 . S
H574 C592 0.951 . S
H575 C594 0.951 . S
H576 C596 0.950 . S
H577 C597 0.950 . S
H578 C599 0.950 . S
H579 C602 0.950 . S
H580 C603 0.950 . S
H581 C605 0.950 . S
H582 C606 0.950 . S
H583 C607 0.951 . S
H584 C609 0.951 . S
H585 C611 0.950 . S
H586 C612 0.950 . S
H587 C614 0.950 . S
H588 C617 0.950 . S
H589 C618 0.950 . S
H590 C620 0.950 . S
H591 C621 0.950 . S
C592 H574 0.951 . S
C592 C593 1.366 . S
C592 C594 1.388 . S
C593 C592 1.366 . S
C593 C597 1.385 . S
C594 H575 0.951 . S
C594 C592 1.388 . S
C594 C595 1.366 . S
C595 C594 1.366 . S
C595 C596 1.414 . S
C595 C598 1.499 . S
C596 H576 0.950 . S
C596 C595 1.414 . S
C596 C597 1.374 . S
C597 H577 0.950 . S
C597 C593 1.385 . S
C597 C596 1.374 . S
C598 C595 1.499 . S
C598 C599 1.373 . S
C598 C600 1.389 . S
C599 H578 0.950 . S
C599 C598 1.373 . S
C599 C615 1.377 . S
C600 C598 1.389 . S
C600 C601 1.524 . S
C600 C614 1.377 . S
C601 C600 1.524 . S
C601 C602 1.397 . S
C601 C606 1.363 . S
C602 H579 0.950 . S
C602 C601 1.397 . S
C602 C603 1.334 . S
C603 H580 0.950 . S
C603 C602 1.334 . S
C603 C604 1.287 . S
C604 C603 1.287 . S
C604 C605 1.524 . S
C604 H623 0.913 . S
C605 H581 0.950 . S
C605 C604 1.524 . S
C605 C606 1.415 . S
C606 H582 0.950 . S
C606 C601 1.363 . S
C606 C605 1.415 . S
C607 H583 0.951 . S
C607 C608 1.366 1_565 S
C607 C609 1.388 . S
C608 C607 1.366 1_545 S
C608 C612 1.385 . S
C609 H584 0.951 . S
C609 C607 1.388 . S
C609 C610 1.366 . S
C610 C609 1.366 . S
C610 C611 1.414 . S
C610 C613 1.499 . S
C611 H585 0.950 . S
C611 C610 1.414 . S
C611 C612 1.374 1_565 S
C612 H586 0.950 . S
C612 C608 1.385 . S
C612 C611 1.374 1_545 S
C613 C610 1.499 . S
C613 C614 1.373 . S
C613 C615 1.389 . S
C614 H587 0.950 . S
C614 C600 1.377 . S
C614 C613 1.373 . S
C615 C599 1.377 . S
C615 C613 1.389 . S
C615 C616 1.524 . S
C616 C615 1.524 . S
C616 C617 1.397 . S
C616 C621 1.363 . S
C617 H588 0.950 . S
C617 C616 1.397 . S
C617 C618 1.334 . S
C618 H589 0.950 . S
C618 C617 1.334 . S
C618 C619 1.287 . S
C619 C618 1.287 . S
C619 C620 1.524 . S
C619 H622 0.999 . S
C620 H590 0.950 . S
C620 C619 1.524 . S
C620 C621 1.415 . S
C621 H591 0.950 . S
C621 C616 1.363 . S
C621 C620 1.415 . S
H622 C619 0.999 . S
H623 C604 0.913 . S
H624 C642 0.951 . S
H625 C644 0.951 . S
H626 C646 0.950 . S
H627 C647 0.950 . S
H628 C649 0.950 . S
H629 C652 0.950 . S
H630 C653 0.950 . S
H631 C655 0.950 . S
H632 C656 0.950 . S
H633 C657 0.951 . S
H634 C659 0.951 . S
H635 C661 0.950 . S
H636 C662 0.950 . S
H637 C664 0.950 . S
H638 C667 0.950 . S
H639 C668 0.950 . S
H640 C670 0.950 . S
H641 C671 0.950 . S
C642 H624 0.951 . S
C642 C643 1.366 . S
C642 C644 1.388 . S
C643 C642 1.366 . S
C643 C647 1.385 . S
C644 H625 0.951 . S
C644 C642 1.388 . S
C644 C645 1.366 . S
C645 C644 1.366 . S
C645 C646 1.414 . S
C645 C648 1.499 . S
C646 H626 0.950 . S
C646 C645 1.414 . S
C646 C647 1.374 . S
C647 H627 0.950 . S
C647 C643 1.385 . S
C647 C646 1.374 . S
C648 C645 1.499 . S
C648 C649 1.373 . S
C648 C650 1.389 . S
C649 H628 0.950 . S
C649 C648 1.373 . S
C649 C665 1.377 . S
C650 C648 1.389 . S
C650 C651 1.524 . S
C650 C664 1.377 . S
C651 C650 1.524 . S
C651 C652 1.397 . S
C651 C656 1.363 . S
C652 H629 0.950 . S
C652 C651 1.397 . S
C652 C653 1.334 . S
C653 H630 0.950 . S
C653 C652 1.334 . S
C653 C654 1.287 . S
C654 C653 1.287 . S
C654 C655 1.524 . S
C654 H673 0.913 . S
C655 H631 0.950 . S
C655 C654 1.524 . S
C655 C656 1.415 . S
C656 H632 0.950 . S
C656 C651 1.363 . S
C656 C655 1.415 . S
C657 H633 0.951 . S
C657 C658 1.366 . S
C657 C659 1.388 . S
C658 C657 1.366 . S
C658 C662 1.385 . S
C659 H634 0.951 . S
C659 C657 1.388 . S
C659 C660 1.366 . S
C660 C659 1.366 . S
C660 C661 1.414 . S
C660 C663 1.499 . S
C661 H635 0.950 . S
C661 C660 1.414 . S
C661 C662 1.374 . S
C662 H636 0.950 . S
C662 C658 1.385 . S
C662 C661 1.374 . S
C663 C660 1.499 . S
C663 C664 1.373 . S
C663 C665 1.389 . S
C664 H637 0.950 . S
C664 C650 1.377 . S
C664 C663 1.373 . S
C665 C649 1.377 . S
C665 C663 1.389 . S
C665 C666 1.524 . S
C666 C665 1.524 . S
C666 C667 1.397 . S
C666 C671 1.363 . S
C667 H638 0.950 . S
C667 C666 1.397 . S
C667 C668 1.334 . S
C668 H639 0.950 . S
C668 C667 1.334 . S
C668 C669 1.287 . S
C669 C668 1.287 . S
C669 C670 1.524 . S
C669 H672 0.999 . S
C670 H640 0.950 . S
C670 C669 1.524 . S
C670 C671 1.415 . S
C671 H641 0.950 . S
C671 C666 1.363 . S
C671 C670 1.415 . S
H672 C669 0.999 . S
H673 C654 0.913 . S
H674 C692 0.951 . S
H675 C694 0.951 . S
H676 C696 0.950 . S
H677 C697 0.950 . S
H678 C699 0.950 . S
H679 C702 0.950 . S
H680 C703 0.950 . S
H681 C705 0.950 . S
H682 C706 0.950 . S
H683 C707 0.951 . S
H684 C709 0.951 . S
H685 C711 0.950 . S
H686 C712 0.950 . S
H687 C714 0.950 . S
H688 C717 0.950 . S
H689 C718 0.950 . S
H690 C720 0.950 . S
H691 C721 0.950 . S
C692 H674 0.951 . S
C692 C693 1.366 . S
C692 C694 1.388 . S
C693 C692 1.366 . S
C693 C697 1.385 . S
C694 H675 0.951 . S
C694 C692 1.388 . S
C694 C695 1.366 . S
C695 C694 1.366 . S
C695 C696 1.414 . S
C695 C698 1.499 . S
C696 H676 0.950 . S
C696 C695 1.414 . S
C696 C697 1.374 . S
C697 H677 0.950 . S
C697 C693 1.385 . S
C697 C696 1.374 . S
C698 C695 1.499 . S
C698 C699 1.373 . S
C698 C700 1.389 . S
C699 H678 0.950 . S
C699 C698 1.373 . S
C699 C715 1.377 . S
C700 C698 1.389 . S
C700 C701 1.524 . S
C700 C714 1.377 . S
C701 C700 1.524 . S
C701 C702 1.397 . S
C701 C706 1.363 . S
C702 H679 0.950 . S
C702 C701 1.397 . S
C702 C703 1.334 . S
C703 H680 0.950 . S
C703 C702 1.334 . S
C703 C704 1.287 . S
C704 C703 1.287 . S
C704 C705 1.524 . S
C704 H723 0.913 . S
C705 H681 0.950 . S
C705 C704 1.524 . S
C705 C706 1.415 . S
C706 H682 0.950 . S
C706 C701 1.363 . S
C706 C705 1.415 . S
C707 H683 0.951 . S
C707 C708 1.366 . S
C707 C709 1.388 . S
C708 C707 1.366 . S
C708 C712 1.385 . S
C709 H684 0.951 . S
C709 C707 1.388 . S
C709 C710 1.366 . S
C710 C709 1.366 . S
C710 C711 1.414 . S
C710 C713 1.499 . S
C711 H685 0.950 . S
C711 C710 1.414 . S
C711 C712 1.374 . S
C712 H686 0.950 . S
C712 C708 1.385 . S
C712 C711 1.374 . S
C713 C710 1.499 . S
C713 C714 1.373 . S
C713 C715 1.389 . S
C714 H687 0.950 . S
C714 C700 1.377 . S
C714 C713 1.373 . S
C715 C699 1.377 . S
C715 C713 1.389 . S
C715 C716 1.524 . S
C716 C715 1.524 . S
C716 C717 1.397 . S
C716 C721 1.363 . S
C717 H688 0.950 . S
C717 C716 1.397 . S
C717 C718 1.334 . S
C718 H689 0.950 . S
C718 C717 1.334 . S
C718 C719 1.287 . S
C719 C718 1.287 . S
C719 C720 1.524 . S
C719 H722 0.999 . S
C720 H690 0.950 . S
C720 C719 1.524 . S
C720 C721 1.415 . S
C721 H691 0.950 . S
C721 C716 1.363 . S
C721 C720 1.415 . S
H722 C719 0.999 . S
H723 C704 0.913 . S
H724 C742 0.951 . S
H725 C744 0.951 . S
H726 C746 0.950 . S
H727 C747 0.950 . S
H728 C749 0.950 . S
H729 C752 0.950 . S
H730 C753 0.950 . S
H731 C755 0.950 . S
H732 C756 0.950 . S
H733 C757 0.951 . S
H734 C759 0.951 . S
H735 C761 0.950 . S
H736 C762 0.950 . S
H737 C764 0.950 . S
H738 C767 0.950 . S
H739 C768 0.950 . S
H740 C770 0.950 . S
H741 C771 0.950 . S
C742 H724 0.951 . S
C742 C743 1.366 . S
C742 C744 1.388 . S
C743 C742 1.366 . S
C743 C747 1.385 . S
C744 H725 0.951 . S
C744 C742 1.388 . S
C744 C745 1.366 . S
C745 C744 1.366 . S
C745 C746 1.414 . S
C745 C748 1.499 . S
C746 H726 0.950 . S
C746 C745 1.414 . S
C746 C747 1.374 . S
C747 H727 0.950 . S
C747 C743 1.385 . S
C747 C746 1.374 . S
C748 C745 1.499 . S
C748 C749 1.373 . S
C748 C750 1.389 . S
C749 H728 0.950 . S
C749 C748 1.373 . S
C749 C765 1.377 . S
C750 C748 1.389 . S
C750 C751 1.524 . S
C750 C764 1.377 . S
C751 C750 1.524 . S
C751 C752 1.397 . S
C751 C756 1.363 . S
C752 H729 0.950 . S
C752 C751 1.397 . S
C752 C753 1.334 . S
C753 H730 0.950 . S
C753 C752 1.334 . S
C753 C754 1.287 . S
C754 C753 1.287 . S
C754 C755 1.524 . S
C754 H773 0.913 . S
C755 H731 0.950 . S
C755 C754 1.524 . S
C755 C756 1.415 . S
C756 H732 0.950 . S
C756 C751 1.363 . S
C756 C755 1.415 . S
C757 H733 0.951 . S
C757 C758 1.366 . S
C757 C759 1.388 . S
C758 C757 1.366 . S
C758 C762 1.385 . S
C759 H734 0.951 . S
C759 C757 1.388 . S
C759 C760 1.366 . S
C760 C759 1.366 . S
C760 C761 1.414 . S
C760 C763 1.499 . S
C761 H735 0.950 . S
C761 C760 1.414 . S
C761 C762 1.374 . S
C762 H736 0.950 . S
C762 C758 1.385 . S
C762 C761 1.374 . S
C763 C760 1.499 . S
C763 C764 1.373 . S
C763 C765 1.389 . S
C764 H737 0.950 . S
C764 C750 1.377 . S
C764 C763 1.373 . S
C765 C749 1.377 . S
C765 C763 1.389 . S
C765 C766 1.524 . S
C766 C765 1.524 . S
C766 C767 1.397 . S
C766 C771 1.363 . S
C767 H738 0.950 . S
C767 C766 1.397 . S
C767 C768 1.334 . S
C768 H739 0.950 . S
C768 C767 1.334 . S
C768 C769 1.287 . S
C769 C768 1.287 . S
C769 C770 1.524 . S
C769 H772 0.999 . S
C770 H740 0.950 . S
C770 C769 1.524 . S
C770 C771 1.415 . S
C771 H741 0.950 . S
C771 C766 1.363 . S
C771 C770 1.415 . S
H772 C769 0.999 . S
H773 C754 0.913 . S
H774 C792 0.951 . S
H775 C794 0.951 . S
H776 C796 0.950 . S
H777 C797 0.950 . S
H778 C799 0.950 . S
H779 C802 0.950 . S
H780 C803 0.950 . S
H781 C805 0.950 . S
H782 C806 0.950 . S
H783 C807 0.951 . S
H784 C809 0.951 . S
H785 C811 0.950 . S
H786 C812 0.950 . S
H787 C814 0.950 . S
H788 C817 0.949 1_556 S
H789 C818 0.950 . S
H790 C820 0.950 . S
H791 C821 0.950 . S
C792 H774 0.951 . S
C792 C793 1.366 . S
C792 C794 1.388 . S
C793 C792 1.366 . S
C793 C797 1.385 1_455 S
C794 H775 0.951 . S
C794 C792 1.388 . S
C794 C795 1.366 . S
C795 C794 1.366 . S
C795 C796 1.414 1_455 S
C795 C798 1.499 . S
C796 H776 0.950 . S
C796 C795 1.414 1_655 S
C796 C797 1.374 . S
C797 H777 0.950 . S
C797 C793 1.385 1_655 S
C797 C796 1.374 . S
C798 C795 1.499 . S
C798 C799 1.373 1_455 S
C798 C800 1.389 . S
C799 H778 0.950 . S
C799 C798 1.373 1_655 S
C799 C815 1.377 . S
C800 C798 1.389 . S
C800 C801 1.524 . S
C800 C814 1.377 . S
C801 C800 1.524 . S
C801 C802 1.397 . S
C801 C806 1.363 . S
C802 H779 0.950 . S
C802 C801 1.397 . S
C802 C803 1.334 . S
C803 H780 0.950 . S
C803 C802 1.334 . S
C803 C804 1.287 . S
C804 C803 1.287 . S
C804 C805 1.524 . S
C804 H823 0.913 . S
C805 H781 0.950 . S
C805 C804 1.524 . S
C805 C806 1.415 . S
C806 H782 0.950 . S
C806 C801 1.363 . S
C806 C805 1.415 . S
C807 H783 0.951 . S
C807 C808 1.366 1_655 S
C807 C809 1.388 . S
C808 C807 1.366 1_455 S
C808 C812 1.385 . S
C809 H784 0.951 . S
C809 C807 1.388 . S
C809 C810 1.366 1_655 S
C810 C809 1.366 1_455 S
C810 C811 1.414 . S
C810 C813 1.499 1_556 S
C811 H785 0.950 . S
C811 C810 1.414 . S
C811 C812 1.374 . S
C812 H786 0.950 . S
C812 C808 1.385 . S
C812 C811 1.374 . S
C813 C810 1.499 1_554 S
C813 C814 1.373 . S
C813 C815 1.389 1_455 S
C814 H787 0.950 . S
C814 C800 1.377 . S
C814 C813 1.373 . S
C815 C799 1.377 . S
C815 C813 1.389 1_655 S
C815 C816 1.524 . S
C816 C815 1.524 . S
C816 C817 1.397 . S
C816 C821 1.363 . S
C817 H788 0.949 1_554 S
C817 C816 1.397 . S
C817 C818 1.334 1_554 S
C818 H789 0.950 . S
C818 C817 1.334 1_556 S
C818 C819 1.275 1_556 S
C819 C818 1.275 1_554 S
C819 C820 1.548 . S
C819 H822 0.985 1_554 S
C820 H790 0.950 . S
C820 C819 1.548 . S
C820 C821 1.415 . S
C821 H791 0.950 . S
C821 C816 1.363 . S
C821 C820 1.415 . S
H822 C819 0.985 1_556 S
H823 C804 0.913 . S
H824 C842 0.951 . S
H825 C844 0.951 . S
H826 C846 0.950 . S
H827 C847 0.950 . S
H828 C849 0.950 1_565 S
H829 C852 0.950 . S
H830 C853 0.950 . S
H831 C855 0.950 . S
H832 C856 0.950 . S
H833 C857 0.951 . S
H834 C859 0.951 . S
H835 C861 0.950 . S
H836 C862 0.950 . S
H837 C864 0.950 . S
H838 C867 0.950 . S
H839 C868 0.950 . S
H840 C870 0.950 . S
H841 C871 0.950 . S
C842 H824 0.951 . S
C842 C843 1.366 . S
C842 C844 1.388 . S
C843 C842 1.366 . S
C843 C847 1.385 . S
C844 H825 0.951 . S
C844 C842 1.388 . S
C844 C845 1.366 . S
C845 C844 1.366 . S
C845 C846 1.414 . S
C845 C848 1.499 . S
C846 H826 0.950 . S
C846 C845 1.414 . S
C846 C847 1.374 . S
C847 H827 0.950 . S
C847 C843 1.385 . S
C847 C846 1.374 . S
C848 C845 1.499 . S
C848 C849 1.373 . S
C848 C850 1.389 . S
C849 H828 0.950 1_545 S
C849 C848 1.373 . S
C849 C865 1.377 . S
C850 C848 1.389 . S
C850 C851 1.524 . S
C850 C864 1.377 . S
C851 C850 1.524 . S
C851 C852 1.397 . S
C851 C856 1.363 . S
C852 H829 0.950 . S
C852 C851 1.397 . S
C852 C853 1.334 . S
C853 H830 0.950 . S
C853 C852 1.334 . S
C853 C854 1.287 . S
C854 C853 1.287 . S
C854 C855 1.524 . S
C854 H873 0.913 . S
C855 H831 0.950 . S
C855 C854 1.524 . S
C855 C856 1.415 . S
C856 H832 0.950 . S
C856 C851 1.363 . S
C856 C855 1.415 . S
C857 H833 0.951 . S
C857 C858 1.366 . S
C857 C859 1.388 . S
C858 C857 1.366 . S
C858 C862 1.385 . S
C859 H834 0.951 . S
C859 C857 1.388 . S
C859 C860 1.366 . S
C860 C859 1.366 . S
C860 C861 1.414 . S
C860 C863 1.499 . S
C861 H835 0.950 . S
C861 C860 1.414 . S
C861 C862 1.374 . S
C862 H836 0.950 . S
C862 C858 1.385 . S
C862 C861 1.374 . S
C863 C860 1.499 . S
C863 C864 1.373 . S
C863 C865 1.389 . S
C864 H837 0.950 . S
C864 C850 1.377 . S
C864 C863 1.373 . S
C865 C849 1.377 . S
C865 C863 1.389 . S
C865 C866 1.524 1_545 S
C866 C865 1.524 1_565 S
C866 C867 1.397 . S
C866 C871 1.363 . S
C867 H838 0.950 . S
C867 C866 1.397 . S
C867 C868 1.334 . S
C868 H839 0.950 . S
C868 C867 1.334 . S
C868 C869 1.287 . S
C869 C868 1.287 . S
C869 C870 1.524 . S
C869 H872 0.999 . S
C870 H840 0.950 . S
C870 C869 1.524 . S
C870 C871 1.415 . S
C871 H841 0.950 . S
C871 C866 1.363 . S
C871 C870 1.415 . S
H872 C869 0.999 . S
H873 C854 0.913 . S
H874 C892 0.951 . S
H875 C894 0.951 . S
H876 C896 0.950 . S
H877 C897 0.950 . S
H878 C899 0.950 . S
H879 C902 0.950 . S
H880 C903 0.950 . S
H881 C905 0.950 . S
H882 C906 0.950 . S
H883 C907 0.951 . S
H884 C909 0.951 . S
H885 C911 0.950 . S
H886 C912 0.950 . S
H887 C914 0.950 . S
H888 C917 0.950 . S
H889 C918 0.950 . S
H890 C920 0.950 . S
H891 C921 0.950 . S
C892 H874 0.951 . S
C892 C893 1.366 . S
C892 C894 1.388 . S
C893 C892 1.366 . S
C893 C897 1.385 . S
C894 H875 0.951 . S
C894 C892 1.388 . S
C894 C895 1.366 . S
C895 C894 1.366 . S
C895 C896 1.414 . S
C895 C898 1.499 . S
C896 H876 0.950 . S
C896 C895 1.414 . S
C896 C897 1.374 . S
C897 H877 0.950 . S
C897 C893 1.385 . S
C897 C896 1.374 . S
C898 C895 1.499 . S
C898 C899 1.373 . S
C898 C900 1.389 . S
C899 H878 0.950 . S
C899 C898 1.373 . S
C899 C915 1.377 . S
C900 C898 1.389 . S
C900 C901 1.524 . S
C900 C914 1.377 . S
C901 C900 1.524 . S
C901 C902 1.397 . S
C901 C906 1.363 . S
C902 H879 0.950 . S
C902 C901 1.397 . S
C902 C903 1.334 . S
C903 H880 0.950 . S
C903 C902 1.334 . S
C903 C904 1.287 . S
C904 C903 1.287 . S
C904 C905 1.524 . S
C904 H923 0.913 . S
C905 H881 0.950 . S
C905 C904 1.524 . S
C905 C906 1.415 . S
C906 H882 0.950 . S
C906 C901 1.363 . S
C906 C905 1.415 . S
C907 H883 0.951 . S
C907 C908 1.366 . S
C907 C909 1.388 . S
C908 C907 1.366 . S
C908 C912 1.385 . S
C909 H884 0.951 . S
C909 C907 1.388 . S
C909 C910 1.366 . S
C910 C909 1.366 . S
C910 C911 1.414 . S
C910 C913 1.499 . S
C911 H885 0.950 . S
C911 C910 1.414 . S
C911 C912 1.374 . S
C912 H886 0.950 . S
C912 C908 1.385 . S
C912 C911 1.374 . S
C913 C910 1.499 . S
C913 C914 1.373 . S
C913 C915 1.389 . S
C914 H887 0.950 . S
C914 C900 1.377 . S
C914 C913 1.373 . S
C915 C899 1.377 . S
C915 C913 1.389 . S
C915 C916 1.524 . S
C916 C915 1.524 . S
C916 C917 1.397 . S
C916 C921 1.363 . S
C917 H888 0.950 . S
C917 C916 1.397 . S
C917 C918 1.334 . S
C918 H889 0.950 . S
C918 C917 1.334 . S
C918 C919 1.287 . S
C919 C918 1.287 . S
C919 C920 1.524 . S
C919 H922 0.999 . S
C920 H890 0.950 . S
C920 C919 1.524 . S
C920 C921 1.415 . S
C921 H891 0.950 . S
C921 C916 1.363 . S
C921 C920 1.415 . S
H922 C919 0.999 . S
H923 C904 0.913 . S
H924 C942 0.951 . S
H925 C944 0.951 . S
H926 C946 0.950 . S
H927 C947 0.950 . S
H928 C949 0.950 . S
H929 C952 0.950 . S
H930 C953 0.950 . S
H931 C955 0.950 . S
H932 C956 0.950 . S
H933 C957 0.951 . S
H934 C959 0.951 . S
H935 C961 0.950 . S
H936 C962 0.950 . S
H937 C964 0.950 1_565 S
H938 C967 0.950 . S
H939 C968 0.950 . S
H940 C970 0.950 . S
H941 C971 0.950 . S
C942 H924 0.951 . S
C942 C943 1.366 1_565 S
C942 C944 1.388 . S
C943 C942 1.366 1_545 S
C943 C947 1.385 . S
C944 H925 0.951 . S
C944 C942 1.388 . S
C944 C945 1.366 1_565 S
C945 C944 1.366 1_545 S
C945 C946 1.414 . S
C945 C948 1.499 . S
C946 H926 0.950 . S
C946 C945 1.414 . S
C946 C947 1.374 . S
C947 H927 0.950 . S
C947 C943 1.385 . S
C947 C946 1.374 . S
C948 C945 1.499 . S
C948 C949 1.373 . S
C948 C950 1.389 . S
C949 H928 0.950 . S
C949 C948 1.373 . S
C949 C965 1.377 . S
C950 C948 1.389 . S
C950 C951 1.524 . S
C950 C964 1.377 . S
C951 C950 1.524 . S
C951 C952 1.397 . S
C951 C956 1.363 1_545 S
C952 H929 0.950 . S
C952 C951 1.397 . S
C952 C953 1.334 . S
C953 H930 0.950 . S
C953 C952 1.334 . S
C953 C954 1.287 . S
C954 C953 1.287 . S
C954 C955 1.524 1_545 S
C954 H973 0.913 . S
C955 H931 0.950 . S
C955 C954 1.524 1_565 S
C955 C956 1.415 . S
C956 H932 0.950 . S
C956 C951 1.363 1_565 S
C956 C955 1.415 . S
C957 H933 0.951 . S
C957 C958 1.366 . S
C957 C959 1.388 . S
C958 C957 1.366 . S
C958 C962 1.385 1_545 S
C959 H934 0.951 . S
C959 C957 1.388 . S
C959 C960 1.366 . S
C960 C959 1.366 . S
C960 C961 1.414 1_545 S
C960 C963 1.499 . S
C961 H935 0.950 . S
C961 C960 1.414 1_565 S
C961 C962 1.374 . S
C962 H936 0.950 . S
C962 C958 1.385 1_565 S
C962 C961 1.374 . S
C963 C960 1.499 . S
C963 C964 1.373 . S
C963 C965 1.389 . S
C964 H937 0.950 1_545 S
C964 C950 1.377 . S
C964 C963 1.373 . S
C965 C949 1.377 . S
C965 C963 1.389 . S
C965 C966 1.524 . S
C966 C965 1.524 . S
C966 C967 1.397 1_545 S
C966 C971 1.363 . S
C967 H938 0.950 . S
C967 C966 1.397 1_565 S
C967 C968 1.334 . S
C968 H939 0.950 . S
C968 C967 1.334 . S
C968 C969 1.287 1_565 S
C969 C968 1.287 1_545 S
C969 C970 1.524 . S
C969 H972 0.999 . S
C970 H940 0.950 . S
C970 C969 1.524 . S
C970 C971 1.415 . S
C971 H941 0.950 . S
C971 C966 1.363 . S
C971 C970 1.415 . S
H972 C969 0.999 . S
H973 C954 0.913 . S
H974 C992 0.951 . S
H975 C994 0.951 . S
H976 C996 0.950 . S
H977 C997 0.950 . S
H978 C999 0.950 . S
H979 C1002 0.950 . S
H980 C1003 0.950 . S
H981 C1005 0.950 . S
H982 C1006 0.950 . S
H983 C1007 0.951 . S
H984 C1009 0.951 . S
H985 C1011 0.950 . S
H986 C1012 0.950 . S
H987 C1014 0.950 . S
H988 C1017 0.950 . S
H989 C1018 0.950 . S
H990 C1020 0.950 . S
H991 C1021 0.950 . S
C992 H974 0.951 . S
C992 C993 1.366 . S
C992 C994 1.388 . S
C993 C992 1.366 . S
C993 C997 1.385 . S
C994 H975 0.951 . S
C994 C992 1.388 . S
C994 C995 1.366 . S
C995 C994 1.366 . S
C995 C996 1.414 . S
C995 C998 1.499 . S
C996 H976 0.950 . S
C996 C995 1.414 . S
C996 C997 1.374 . S
C997 H977 0.950 . S
C997 C993 1.385 . S
C997 C996 1.374 . S
C998 C995 1.499 . S
C998 C999 1.373 . S
C998 C1000 1.389 . S
C999 H978 0.950 . S
C999 C998 1.373 . S
C999 C1015 1.377 . S
C1000 C998 1.389 . S
C1000 C1001 1.524 . S
C1000 C1014 1.377 . S
C1001 C1000 1.524 . S
C1001 C1002 1.397 . S
C1001 C1006 1.363 . S
C1002 H979 0.950 . S
C1002 C1001 1.397 . S
C1002 C1003 1.334 . S
C1003 H980 0.950 . S
C1003 C1002 1.334 . S
C1003 C1004 1.287 . S
C1004 C1003 1.287 . S
C1004 C1005 1.524 . S
C1004 H1023 0.913 . S
C1005 H981 0.950 . S
C1005 C1004 1.524 . S
C1005 C1006 1.415 . S
C1006 H982 0.950 . S
C1006 C1001 1.363 . S
C1006 C1005 1.415 . S
C1007 H983 0.951 . S
C1007 C1008 1.366 . S
C1007 C1009 1.388 . S
C1008 C1007 1.366 . S
C1008 C1012 1.385 . S
C1009 H984 0.951 . S
C1009 C1007 1.388 . S
C1009 C1010 1.366 . S
C1010 C1009 1.366 . S
C1010 C1011 1.414 . S
C1010 C1013 1.499 1_554 S
C1011 H985 0.950 . S
C1011 C1010 1.414 . S
C1011 C1012 1.374 . S
C1012 H986 0.950 . S
C1012 C1008 1.385 . S
C1012 C1011 1.374 . S
C1013 C1010 1.499 1_556 S
C1013 C1014 1.373 . S
C1013 C1015 1.389 . S
C1014 H987 0.950 . S
C1014 C1000 1.377 . S
C1014 C1013 1.373 . S
C1015 C999 1.377 . S
C1015 C1013 1.389 . S
C1015 C1016 1.524 . S
C1016 C1015 1.524 . S
C1016 C1017 1.397 1_556 S
C1016 C1021 1.363 . S
C1017 H988 0.950 . S
C1017 C1016 1.397 1_554 S
C1017 C1018 1.334 . S
C1018 H989 0.950 . S
C1018 C1017 1.334 . S
C1018 C1019 1.287 . S
C1019 C1018 1.287 . S
C1019 C1020 1.524 1_554 S
C1019 H1022 0.999 . S
C1020 H990 0.950 . S
C1020 C1019 1.524 1_556 S
C1020 C1021 1.415 . S
C1021 H991 0.950 . S
C1021 C1016 1.363 . S
C1021 C1020 1.415 . S
H1022 C1019 0.999 . S
H1023 C1004 0.913 . S
H1024 C1042 0.951 1_655 S
H1025 C1044 0.951 1_655 S
H1026 C1046 0.950 . S
H1027 C1047 0.950 . S
H1028 C1049 0.950 . S
H1029 C1052 0.950 . S
H1030 C1053 0.950 . S
H1031 C1055 0.950 . S
H1032 C1056 0.950 . S
H1033 C1057 0.951 . S
H1034 C1059 0.951 . S
H1035 C1061 0.950 1_655 S
H1036 C1062 0.951 1_655 S
H1037 C1064 0.950 1_655 S
H1038 C1067 0.950 . S
H1039 C1068 0.950 . S
H1040 C1070 0.950 . S
H1041 C1071 0.950 . S
C1042 H1024 0.951 1_455 S
C1042 C1043 1.366 . S
C1042 C1044 1.388 . S
C1043 C1042 1.366 . S
C1043 C1047 1.385 . S
C1044 H1025 0.951 1_455 S
C1044 C1042 1.388 . S
C1044 C1045 1.366 . S
C1045 C1044 1.366 . S
C1045 C1046 1.414 . S
C1045 C1048 1.499 . S
C1046 H1026 0.950 . S
C1046 C1045 1.414 . S
C1046 C1047 1.374 . S
C1047 H1027 0.950 . S
C1047 C1043 1.385 . S
C1047 C1046 1.374 . S
C1048 C1045 1.499 . S
C1048 C1049 1.373 . S
C1048 C1050 1.389 . S
C1049 H1028 0.950 . S
C1049 C1048 1.373 . S
C1049 C1065 1.377 . S
C1050 C1048 1.389 . S
C1050 C1051 1.524 1_455 S
C1050 C1064 1.377 . S
C1051 C1050 1.524 1_655 S
C1051 C1052 1.397 . S
C1051 C1056 1.363 . S
C1052 H1029 0.950 . S
C1052 C1051 1.397 . S
C1052 C1053 1.334 . S
C1053 H1030 0.950 . S
C1053 C1052 1.334 . S
C1053 C1054 1.287 . S
C1054 C1053 1.287 . S
C1054 C1055 1.524 . S
C1054 H1073 0.913 . S
C1055 H1031 0.950 . S
C1055 C1054 1.524 . S
C1055 C1056 1.415 . S
C1056 H1032 0.950 . S
C1056 C1051 1.363 . S
C1056 C1055 1.415 . S
C1057 H1033 0.951 . S
C1057 C1058 1.366 . S
C1057 C1059 1.388 . S
C1058 C1057 1.366 . S
C1058 C1062 1.385 . S
C1059 H1034 0.951 . S
C1059 C1057 1.388 . S
C1059 C1060 1.366 . S
C1060 C1059 1.366 . S
C1060 C1061 1.414 . S
C1060 C1063 1.499 . S
C1061 H1035 0.950 1_455 S
C1061 C1060 1.414 . S
C1061 C1062 1.374 . S
C1062 H1036 0.951 1_455 S
C1062 C1058 1.385 . S
C1062 C1061 1.374 . S
C1063 C1060 1.499 . S
C1063 C1064 1.373 . S
C1063 C1065 1.389 . S
C1064 H1037 0.950 1_455 S
C1064 C1050 1.377 . S
C1064 C1063 1.373 . S
C1065 C1049 1.377 . S
C1065 C1063 1.389 . S
C1065 C1066 1.524 . S
C1066 C1065 1.524 . S
C1066 C1067 1.397 . S
C1066 C1071 1.363 . S
C1067 H1038 0.950 . S
C1067 C1066 1.397 . S
C1067 C1068 1.334 . S
C1068 H1039 0.950 . S
C1068 C1067 1.334 . S
C1068 C1069 1.287 . S
C1069 C1068 1.287 . S
C1069 C1070 1.524 . S
C1069 H1072 0.999 . S
C1070 H1040 0.950 . S
C1070 C1069 1.524 . S
C1070 C1071 1.415 . S
C1071 H1041 0.950 . S
C1071 C1066 1.363 . S
C1071 C1070 1.415 . S
H1072 C1069 0.999 . S
H1073 C1054 0.913 . S
C193 C10 2.835 . S
C208 C169 2.849 . S
C243 C59 2.937 . S
C258 C151 2.910 1_655 S
C293 C90 2.817 . S
C308 C163 2.822 . S
C343 C19 2.918 . S
C358 C172 2.883 . S
C408 C154 2.822 . S
C393 C50 2.817 . S
C458 C160 2.909 . S
C443 C99 2.936 . S
C493 C46 0.394 . S
C508 C133 0.336 . S
C543 C95 0.406 . S
C558 C142 0.290 . S
C593 C6 0.391 . S
C608 C124 0.336 . S
C658 C136 0.274 . S
C643 C55 0.399 . S
C708 C145 0.329 . S
C693 C86 0.377 . S
C743 C15 0.396 . S
C758 C127 0.276 . S
C808 C143 1.072 . S
C793 C9 1.049 . S
C843 C49 1.049 . S
C858 C125 1.073 . S
C893 C89 1.050 . S
C908 C134 1.074 . S
C958 C161 1.792 . S
C943 C58 1.711 . S
C1008 C170 1.792 . S
C993 C98 1.710 . S
C1043 C18 1.710 . S
C1058 C152 1.792 . S
