# Generated by pormake.
# Topology pyr, (3,6)-cn, num edge types: 1
# Building blocks:
#     Node 0, Type 0, BuildingBlock: KAKCAD_clean_linker_0, # of connection points: 3
#     Node 1, Type 0, BuildingBlock: KAKCAD_clean_linker_0, # of connection points: 3
#     Node 2, Type 0, BuildingBlock: KAKCAD_clean_linker_0, # of connection points: 3
#     Node 3, Type 0, BuildingBlock: KAKCAD_clean_linker_0, # of connection points: 3
#     Node 4, Type 0, BuildingBlock: KAKCAD_clean_linker_0, # of connection points: 3
#     Node 5, Type 0, BuildingBlock: KAKCAD_clean_linker_0, # of connection points: 3
#     Node 6, Type 0, BuildingBlock: KAKCAD_clean_linker_0, # of connection points: 3
#     Node 7, Type 0, BuildingBlock: KAKCAD_clean_linker_0, # of connection points: 3
#     Node 8, Type 1, BuildingBlock: VOLQOD_clean_sbu_1, # of connection points: 6
#     Node 9, Type 1, BuildingBlock: VOLQOD_clean_sbu_1, # of connection points: 6
#     Node 10, Type 1, BuildingBlock: VOLQOD_clean_sbu_1, # of connection points: 6
#     Node 11, Type 1, BuildingBlock: VOLQOD_clean_sbu_1, # of connection points: 6
#     Edge 12, Type (0, 1), BuildingBlock: EZIPEK_clean_linker_0, # of connection points: 2
#     Edge 13, Type (0, 1), BuildingBlock: EZIPEK_clean_linker_0, # of connection points: 2
#     Edge 14, Type (0, 1), BuildingBlock: EZIPEK_clean_linker_0, # of connection points: 2
#     Edge 15, Type (0, 1), BuildingBlock: EZIPEK_clean_linker_0, # of connection points: 2
#     Edge 16, Type (0, 1), BuildingBlock: EZIPEK_clean_linker_0, # of connection points: 2
#     Edge 17, Type (0, 1), BuildingBlock: EZIPEK_clean_linker_0, # of connection points: 2
#     Edge 18, Type (0, 1), BuildingBlock: EZIPEK_clean_linker_0, # of connection points: 2
#     Edge 19, Type (0, 1), BuildingBlock: EZIPEK_clean_linker_0, # of connection points: 2
#     Edge 20, Type (0, 1), BuildingBlock: EZIPEK_clean_linker_0, # of connection points: 2
#     Edge 21, Type (0, 1), BuildingBlock: EZIPEK_clean_linker_0, # of connection points: 2
#     Edge 22, Type (0, 1), BuildingBlock: EZIPEK_clean_linker_0, # of connection points: 2
#     Edge 23, Type (0, 1), BuildingBlock: EZIPEK_clean_linker_0, # of connection points: 2
#     Edge 24, Type (0, 1), BuildingBlock: EZIPEK_clean_linker_0, # of connection points: 2
#     Edge 25, Type (0, 1), BuildingBlock: EZIPEK_clean_linker_0, # of connection points: 2
#     Edge 26, Type (0, 1), BuildingBlock: EZIPEK_clean_linker_0, # of connection points: 2
#     Edge 27, Type (0, 1), BuildingBlock: EZIPEK_clean_linker_0, # of connection points: 2
#     Edge 28, Type (0, 1), BuildingBlock: EZIPEK_clean_linker_0, # of connection points: 2
#     Edge 29, Type (0, 1), BuildingBlock: EZIPEK_clean_linker_0, # of connection points: 2
#     Edge 30, Type (0, 1), BuildingBlock: EZIPEK_clean_linker_0, # of connection points: 2
#     Edge 31, Type (0, 1), BuildingBlock: EZIPEK_clean_linker_0, # of connection points: 2
#     Edge 32, Type (0, 1), BuildingBlock: EZIPEK_clean_linker_0, # of connection points: 2
#     Edge 33, Type (0, 1), BuildingBlock: EZIPEK_clean_linker_0, # of connection points: 2
#     Edge 34, Type (0, 1), BuildingBlock: EZIPEK_clean_linker_0, # of connection points: 2
#     Edge 35, Type (0, 1), BuildingBlock: EZIPEK_clean_linker_0, # of connection points: 2
# Relax obj value: 0.035
# Max RMSD: 0.119
# Mean RMSD: 0.043
data_MOF--net-pry--node1-VOLQOD_clean_sbu_1--node2-KAKCAD_clean_linker_0--edge1-EZIPEK_clean_linker_0
_symmetry_space_group_name_H-M    P1
_symmetry_Int_Tables_number       1
_symmetry_cell_setting            triclinic
loop_
_symmetry_equiv_pos_as_xyz
'x, y, z'
_cell_length_a     35.93619
_cell_length_b     35.873557
_cell_length_c     36.005263
_cell_angle_alpha  90.439929
_cell_angle_beta   89.903357
_cell_angle_gamma 90.250117
loop_
_atom_site_label
_atom_site_type_symbol
_atom_site_fract_x
_atom_site_fract_y
_atom_site_fract_z
_atom_type_partial_charge
C0 C 0.03793 0.08768 0.23052 0.0
C1 C 0.06158 0.07765 0.25969 0.0
C2 C 0.05287 0.09979 0.19678 0.0
C3 C 0.09167 0.10194 0.19178 0.0
C4 C 0.11513 0.09148 0.22113 0.0
C5 C 0.1002 0.07939 0.25474 0.0
C6 C 0.10791 0.11599 0.15659 0.0
C7 C 0.09318 0.14762 0.13934 0.0
C8 C 0.11047 0.16292 0.10785 0.0
C9 C 0.14254 0.14587 0.09323 0.0
C10 C 0.15755 0.11424 0.1102 0.0
C11 C 0.13983 0.09929 0.14153 0.0
C12 C 0.19297 0.09776 0.09703 0.0
C13 C 0.19945 0.09032 0.05934 0.0
C14 C 0.22096 0.08973 0.12264 0.0
C15 C 0.2535 0.07204 0.11128 0.0
C16 C 0.25847 0.0595 0.07421 0.0
C17 C 0.09675 0.19851 0.09245 0.0
C18 C 0.05839 0.20457 0.08775 0.0
C19 C 0.12187 0.2276 0.08469 0.0
C20 C 0.10884 0.26234 0.0735 0.0
C21 C 0.07057 0.26846 0.06969 0.0
C22 C 0.04539 0.23931 0.07633 0.0
C23 C 0.23211 0.07228 0.04799 0.0
H24 H 0.00801 0.08644 0.23404 0.0
H25 H 0.03412 0.10739 0.1746 0.0
H26 H 0.1451 0.09343 0.21845 0.0
H27 H 0.11876 0.07192 0.27715 0.0
H28 H 0.06942 0.16157 0.15164 0.0
H29 H 0.15116 0.0746 0.15441 0.0
H30 H 0.15642 0.15783 0.06935 0.0
H31 H 0.17911 0.09804 0.03864 0.0
H32 H 0.21787 0.09753 0.15162 0.0
H33 H 0.27471 0.069 0.13218 0.0
H34 H 0.03846 0.18257 0.09333 0.0
H35 H 0.1515 0.22394 0.08857 0.0
H36 H 0.23628 0.06937 0.01848 0.0
H37 H 0.01574 0.24374 0.07345 0.0
H38 H 0.12854 0.28471 0.06854 0.0
C39 C 0.39031 0.94029 0.76555 0.0
C40 C 0.42862 0.94167 0.77262 0.0
C41 C 0.37723 0.92861 0.73085 0.0
C42 C 0.40227 0.91809 0.7026 0.0
C43 C 0.44073 0.91995 0.70974 0.0
C44 C 0.45379 0.93168 0.7445 0.0
C45 C 0.38813 0.90416 0.66627 0.0
C46 C 0.35751 0.92125 0.64935 0.0
C47 C 0.34231 0.90679 0.61632 0.0
C48 C 0.35841 0.87508 0.59988 0.0
C49 C 0.38908 0.85758 0.61638 0.0
C50 C 0.40393 0.87249 0.64942 0.0
C51 C 0.40407 0.82231 0.60062 0.0
C52 C 0.37973 0.79366 0.58912 0.0
C53 C 0.4427 0.81634 0.59851 0.0
C54 C 0.45664 0.78221 0.58578 0.0
C55 C 0.43217 0.75352 0.57516 0.0
C56 C 0.30829 0.9235 0.60022 0.0
C57 C 0.27819 0.93304 0.62338 0.0
C58 C 0.30509 0.92891 0.56169 0.0
C59 C 0.27225 0.94312 0.54664 0.0
C60 C 0.24207 0.95179 0.56987 0.0
C61 C 0.24537 0.947 0.60831 0.0
C62 C 0.39369 0.75952 0.57659 0.0
H63 H 0.37057 0.94776 0.7871 0.0
H64 H 0.34746 0.92696 0.72645 0.0
H65 H 0.4607 0.91235 0.68846 0.0
H66 H 0.48348 0.93261 0.74962 0.0
H67 H 0.34543 0.94596 0.66192 0.0
H68 H 0.42667 0.85831 0.66301 0.0
H69 H 0.34649 0.86344 0.57469 0.0
H70 H 0.34987 0.79721 0.5909 0.0
H71 H 0.4621 0.83799 0.60692 0.0
H72 H 0.48644 0.77789 0.58486 0.0
H73 H 0.27963 0.92876 0.65309 0.0
H74 H 0.32795 0.92212 0.54324 0.0
H75 H 0.37449 0.7375 0.56866 0.0
H76 H 0.22225 0.95347 0.62658 0.0
H77 H 0.27011 0.94677 0.51689 0.0
C78 C 0.74079 0.4697 0.93597 0.0
C79 C 0.76966 0.44537 0.94536 0.0
C80 C 0.70626 0.45553 0.9247 0.0
C81 C 0.70013 0.41678 0.92246 0.0
C82 C 0.72907 0.3926 0.93258 0.0
C83 C 0.76347 0.40678 0.94399 0.0
C84 C 0.6644 0.4015 0.90796 0.0
C85 C 0.64723 0.41783 0.8771 0.0
C86 C 0.61504 0.40202 0.86134 0.0
C87 C 0.59976 0.36962 0.87703 0.0
C88 C 0.61654 0.35283 0.90786 0.0
C89 C 0.64862 0.36918 0.92334 0.0
C90 C 0.60191 0.31704 0.92253 0.0
C91 C 0.56343 0.3113 0.9272 0.0
C92 C 0.62648 0.28786 0.93087 0.0
C93 C 0.61288 0.25357 0.94314 0.0
C94 C 0.57453 0.24791 0.94745 0.0
C95 C 0.59915 0.41793 0.82688 0.0
C96 C 0.59568 0.45675 0.82278 0.0
C97 C 0.58919 0.3944 0.79705 0.0
C98 C 0.57686 0.40939 0.76359 0.0
C99 C 0.57413 0.44809 0.75945 0.0
C100 C 0.58318 0.47171 0.78931 0.0
C101 C 0.54985 0.27698 0.93968 0.0
H102 H 0.7452 0.49958 0.93689 0.0
H103 H 0.68444 0.47491 0.91752 0.0
H104 H 0.72556 0.36265 0.93061 0.0
H105 H 0.78559 0.38765 0.95097 0.0
H106 H 0.66002 0.44184 0.86409 0.0
H107 H 0.66137 0.35661 0.94743 0.0
H108 H 0.5753 0.35691 0.86462 0.0
H109 H 0.54387 0.33334 0.92125 0.0
H110 H 0.65621 0.29122 0.92705 0.0
H111 H 0.63223 0.23127 0.94889 0.0
H112 H 0.60289 0.47553 0.84537 0.0
H113 H 0.59206 0.36445 0.79914 0.0
H114 H 0.52013 0.27294 0.94288 0.0
H115 H 0.58122 0.50167 0.78643 0.0
H116 H 0.57011 0.39084 0.74066 0.0
C117 C 0.91074 0.57014 0.26501 0.0
C118 C 0.94884 0.57059 0.25677 0.0
C119 C 0.89828 0.58037 0.30033 0.0
C120 C 0.92375 0.59125 0.32806 0.0
C121 C 0.96206 0.59078 0.31988 0.0
C122 C 0.97451 0.58051 0.28445 0.0
C123 C 0.91001 0.60532 0.36443 0.0
C124 C 0.87935 0.58829 0.38175 0.0
C125 C 0.86309 0.6042 0.41359 0.0
C126 C 0.87852 0.63697 0.4287 0.0
C127 C 0.9093 0.65423 0.41191 0.0
C128 C 0.92515 0.63803 0.38003 0.0
C129 C 0.92249 0.69112 0.42536 0.0
C130 C 0.89668 0.71947 0.43318 0.0
C131 C 0.96073 0.69883 0.42893 0.0
C132 C 0.97287 0.73432 0.43992 0.0
C133 C 0.94694 0.76263 0.44705 0.0
C134 C 0.82785 0.58894 0.42885 0.0
C135 C 0.79891 0.57832 0.40466 0.0
C136 C 0.82178 0.58737 0.46744 0.0
C137 C 0.78714 0.57645 0.48147 0.0
C138 C 0.75816 0.56698 0.45711 0.0
C139 C 0.76437 0.56747 0.4187 0.0
C140 C 0.90882 0.75492 0.44386 0.0
H141 H 0.89063 0.56272 0.24379 0.0
H142 H 0.86859 0.58105 0.30549 0.0
H143 H 0.98233 0.59876 0.34073 0.0
H144 H 0.00404 0.581 0.27838 0.0
H145 H 0.86763 0.56295 0.36999 0.0
H146 H 0.94777 0.65226 0.36601 0.0
H147 H 0.86562 0.64996 0.45273 0.0
H148 H 0.86708 0.71452 0.43011 0.0
H149 H 0.98116 0.67743 0.4232 0.0
H150 H 0.00242 0.73989 0.44242 0.0
H151 H 0.80246 0.57981 0.37483 0.0
H152 H 0.84364 0.59511 0.48672 0.0
H153 H 0.88849 0.77653 0.44923 0.0
H154 H 0.74212 0.5604 0.3996 0.0
H155 H 0.78264 0.57622 0.51123 0.0
C156 C 0.93451 0.92022 0.76148 0.0
C157 C 0.93646 0.95855 0.75459 0.0
C158 C 0.92612 0.90743 0.79702 0.0
C159 C 0.91942 0.93282 0.8262 0.0
C160 C 0.92133 0.97129 0.8191 0.0
C161 C 0.92992 0.98407 0.78351 0.0
C162 C 0.90992 0.91909 0.86378 0.0
C163 C 0.9294 0.88916 0.87895 0.0
C164 C 0.9192 0.87444 0.91343 0.0
C165 C 0.89037 0.89131 0.93382 0.0
C166 C 0.86935 0.92068 0.91865 0.0
C167 C 0.87973 0.93426 0.88339 0.0
C168 C 0.83456 0.93451 0.93737 0.0
C169 C 0.81443 0.91166 0.96216 0.0
C170 C 0.81931 0.96955 0.92845 0.0
C171 C 0.78379 0.97955 0.94068 0.0
C172 C 0.76341 0.95586 0.96398 0.0
C173 C 0.93549 0.83873 0.92583 0.0
C174 C 0.93811 0.80875 0.90054 0.0
C175 C 0.94617 0.83335 0.96295 0.0
C176 C 0.95874 0.79845 0.9746 0.0
C177 C 0.96031 0.76851 0.94934 0.0
C178 C 0.95032 0.77395 0.91224 0.0
C179 C 0.77987 0.92271 0.97603 0.0
H180 H 0.93939 0.90026 0.73929 0.0
H181 H 0.92428 0.87766 0.80154 0.0
H182 H 0.91649 0.99143 0.84113 0.0
H183 H 0.93136 0.01378 0.77847 0.0
H184 H 0.95222 0.87675 0.86356 0.0
H185 H 0.86331 0.95531 0.86979 0.0
H186 H 0.88346 0.88009 0.96073 0.0
H187 H 0.82406 0.8843 0.96979 0.0
H188 H 0.83414 0.98913 0.91113 0.0
H189 H 0.7719 0.00555 0.93136 0.0
H190 H 0.9295 0.81185 0.87191 0.0
H191 H 0.94452 0.85599 0.98295 0.0
H192 H 0.76482 0.90415 0.99437 0.0
H193 H 0.9513 0.75102 0.8925 0.0
H194 H 0.9664 0.79454 0.00339 0.0
C195 C 0.55824 0.03228 0.29762 0.0
C196 C 0.55093 0.05745 0.26891 0.0
C197 C 0.56829 0.0455 0.33288 0.0
C198 C 0.57064 0.08404 0.33997 0.0
C199 C 0.56223 0.10906 0.31134 0.0
C200 C 0.55256 0.09587 0.27612 0.0
C201 C 0.58404 0.09848 0.37626 0.0
C202 C 0.61661 0.08409 0.39206 0.0
C203 C 0.63244 0.10084 0.42374 0.0
C204 C 0.61464 0.13164 0.44019 0.0
C205 C 0.58212 0.14645 0.42468 0.0
C206 C 0.56673 0.12932 0.39302 0.0
C207 C 0.56692 0.18222 0.43895 0.0
C208 C 0.56511 0.18969 0.47734 0.0
C209 C 0.55689 0.21039 0.41394 0.0
C210 C 0.54661 0.24559 0.42695 0.0
C211 C 0.54621 0.25328 0.46513 0.0
C212 C 0.66963 0.08888 0.43696 0.0
C213 C 0.67911 0.05088 0.43819 0.0
C214 C 0.6968 0.11574 0.44625 0.0
C215 C 0.73275 0.10493 0.45577 0.0
C216 C 0.74226 0.06712 0.4561 0.0
C217 C 0.71521 0.04008 0.44768 0.0
C218 C 0.55478 0.225 0.49035 0.0
H219 H 0.55696 0.00252 0.29245 0.0
H220 H 0.57449 0.02565 0.3545 0.0
H221 H 0.56434 0.13889 0.31582 0.0
H222 H 0.54706 0.11563 0.25422 0.0
H223 H 0.63103 0.06147 0.37813 0.0
H224 H 0.54167 0.14059 0.3808 0.0
H225 H 0.62714 0.1452 0.46413 0.0
H226 H 0.57235 0.16845 0.49726 0.0
H227 H 0.55855 0.20578 0.38422 0.0
H228 H 0.54018 0.26725 0.40718 0.0
H229 H 0.65875 0.02956 0.43142 0.0
H230 H 0.69071 0.14524 0.44489 0.0
H231 H 0.5545 0.23061 0.51995 0.0
H232 H 0.72224 0.01075 0.44778 0.0
H233 H 0.75346 0.1261 0.462 0.0
C234 C 0.28049 0.55596 0.10601 0.0
C235 C 0.26786 0.56856 0.07149 0.0
C236 C 0.31624 0.56497 0.11839 0.0
C237 C 0.3409 0.58553 0.09585 0.0
C238 C 0.32852 0.59655 0.06043 0.0
C239 C 0.29221 0.58886 0.04877 0.0
C240 C 0.37872 0.59658 0.10965 0.0
C241 C 0.39734 0.57508 0.13619 0.0
C242 C 0.43099 0.58732 0.15192 0.0
C243 C 0.44857 0.61914 0.13743 0.0
C244 C 0.431 0.64118 0.11037 0.0
C245 C 0.39535 0.6301 0.09801 0.0
C246 C 0.4482 0.67694 0.0968 0.0
C247 C 0.47518 0.69649 0.1179 0.0
C248 C 0.43672 0.69283 0.06294 0.0
C249 C 0.44898 0.72819 0.05243 0.0
C250 C 0.47493 0.74781 0.07415 0.0
C251 C 0.44485 0.57005 0.18674 0.0
C252 C 0.4193 0.56051 0.21486 0.0
C253 C 0.48319 0.56663 0.19401 0.0
C254 C 0.49556 0.55552 0.22909 0.0
C255 C 0.46978 0.54762 0.25729 0.0
C256 C 0.43166 0.54934 0.2497 0.0
C257 C 0.48915 0.73085 0.10608 0.0
H258 H 0.26214 0.54024 0.12401 0.0
H259 H 0.32388 0.55656 0.14612 0.0
H260 H 0.3467 0.6114 0.04161 0.0
H261 H 0.28308 0.59876 0.02194 0.0
H262 H 0.38529 0.54914 0.14569 0.0
H263 H 0.37955 0.6484 0.08043 0.0
H264 H 0.47523 0.62734 0.14863 0.0
H265 H 0.48494 0.68637 0.14429 0.0
H266 H 0.41771 0.67848 0.04444 0.0
H267 H 0.43791 0.74038 0.02735 0.0
H268 H 0.38963 0.56344 0.21065 0.0
H269 H 0.5036 0.57336 0.17292 0.0
H270 H 0.50959 0.74524 0.12308 0.0
H271 H 0.41145 0.54343 0.27125 0.0
H272 H 0.52515 0.55418 0.2346 0.0
C273 C 0.08766 0.27503 0.55871 0.0
C274 C 0.04946 0.2679 0.56182 0.0
C275 C 0.10208 0.30976 0.56887 0.0
C276 C 0.07854 0.33795 0.58254 0.0
C277 C 0.04004 0.331 0.58473 0.0
C278 C 0.02555 0.29622 0.57421 0.0
C279 C 0.095 0.37304 0.59731 0.0
C280 C 0.1244 0.39045 0.57832 0.0
C281 C 0.14568 0.41891 0.59529 0.0
C282 C 0.13503 0.43132 0.63099 0.0
C283 C 0.10437 0.41565 0.64952 0.0
C284 C 0.08455 0.38641 0.6325 0.0
C285 C 0.09455 0.42827 0.68769 0.0
C286 C 0.12261 0.43529 0.7141 0.0
C287 C 0.05712 0.43317 0.69807 0.0
C288 C 0.04799 0.44489 0.73406 0.0
C289 C 0.07615 0.4519 0.76012 0.0
C290 C 0.18086 0.433 0.57764 0.0
C291 C 0.20124 0.41039 0.55266 0.0
C292 C 0.19618 0.46791 0.58781 0.0
C293 C 0.23196 0.47807 0.57644 0.0
C294 C 0.25257 0.45462 0.55291 0.0
C295 C 0.23613 0.42158 0.53971 0.0
C296 C 0.11346 0.44711 0.74998 0.0
H297 H 0.10641 0.25337 0.54925 0.0
H298 H 0.13191 0.31402 0.56743 0.0
H299 H 0.02128 0.35226 0.59507 0.0
H300 H 0.99594 0.29101 0.5767 0.0
H301 H 0.13107 0.38077 0.55059 0.0
H302 H 0.06245 0.37256 0.64765 0.0
H303 H 0.15107 0.45257 0.64521 0.0
H304 H 0.15165 0.4311 0.70725 0.0
H305 H 0.03493 0.42825 0.67829 0.0
H306 H 0.01903 0.44846 0.74162 0.0
H307 H 0.19146 0.3831 0.54421 0.0
H308 H 0.18118 0.48724 0.60542 0.0
H309 H 0.13544 0.45217 0.76997 0.0
H310 H 0.25139 0.40322 0.52119 0.0
H311 H 0.24386 0.504 0.5866 0.0
O312 O 0.98199 0.0992 0.54065 0.0
Zn313 Zn 0.96266 0.04665 0.53618 0.0
O314 O 0.99575 0.01577 0.50558 0.0
Zn315 Zn 0.96807 0.99593 0.46292 0.0
Zn316 Zn 0.03788 0.0458 0.48824 0.0
Zn317 Zn 0.01447 0.97444 0.53509 0.0
O318 O 0.96818 0.93992 0.46226 0.0
O319 O 5e-05 0.92493 0.51285 0.0
O320 O 0.91116 0.04868 0.51454 0.0
O321 O 0.91463 0.01219 0.46443 0.0
O322 O 0.98971 0.0141 0.41466 0.0
O323 O 0.03775 0.04919 0.43265 0.0
O324 O 0.08722 0.02423 0.50425 0.0
O325 O 0.95783 0.02626 0.58782 0.0
O326 O 0.07008 0.97549 0.53813 0.0
O327 O 0.99436 0.97632 0.5871 0.0
C328 C 0.01093 0.11533 0.52805 0.0
C329 C 0.98173 0.91569 0.48399 0.0
C330 C 0.01726 0.03521 0.4073 0.0
C331 C 0.89627 0.03327 0.48626 0.0
C332 C 0.09518 0.99641 0.52448 0.0
C333 C 0.97213 0.99828 0.60383 0.0
O334 O 0.03465 0.09827 0.50799 0.0
O335 O 0.49866 0.08555 0.97971 0.0
Zn336 Zn 0.47528 0.03485 0.98636 0.0
O337 O 0.50803 0.00301 0.01552 0.0
Zn338 Zn 0.52941 0.96387 0.98457 0.0
Zn339 Zn 0.54899 0.03181 0.03666 0.0
Zn340 Zn 0.47881 0.98035 0.05465 0.0
O341 O 0.52331 0.91315 0.00844 0.0
O342 O 0.48171 0.92484 0.05249 0.0
O343 O 0.46699 0.01176 0.93563 0.0
O344 O 0.50433 0.96232 0.9348 0.0
O345 O 0.58415 0.9718 0.97682 0.0
O346 O 0.59878 0.00873 0.0243 0.0
O347 O 0.54482 0.03474 0.09218 0.0
O348 O 0.42435 0.04057 0.01045 0.0
O349 O 0.49695 0.99738 0.10514 0.0
O350 O 0.42525 0.99416 0.05087 0.0
C351 C 0.52777 0.10083 0.9932 0.0
C352 C 0.50165 0.90199 0.03414 0.0
C353 C 0.60838 0.9876 0.9974 0.0
C354 C 0.48035 0.98311 0.91935 0.0
C355 C 0.52314 0.01916 0.11541 0.0
C356 C 0.40802 0.01998 0.03419 0.0
O357 O 0.54913 0.08382 0.01559 0.0
O358 O 0.5444 0.52334 0.59649 0.0
Zn359 Zn 0.53775 0.54331 0.54467 0.0
O360 O 0.50845 0.5091 0.51387 0.0
Zn361 Zn 0.54019 0.48634 0.4761 0.0
Zn362 Zn 0.48705 0.47076 0.54554 0.0
Zn363 Zn 0.46812 0.53563 0.48946 0.0
O364 O 0.52356 0.4996 0.42443 0.0
O365 O 0.47543 0.53726 0.43406 0.0
O366 O 0.58921 0.55004 0.52351 0.0
O367 O 0.59268 0.50511 0.48061 0.0
O368 O 0.5396 0.43059 0.4801 0.0
O369 O 0.49974 0.41952 0.52618 0.0
O370 O 0.43143 0.47473 0.54753 0.0
O371 O 0.51247 0.59318 0.5486 0.0
O372 O 0.41859 0.51087 0.49948 0.0
O373 O 0.46474 0.58825 0.50939 0.0
C374 C 0.53022 0.49556 0.61325 0.0
C375 C 0.498 0.52068 0.4123 0.0
C376 C 0.52153 0.40813 0.50064 0.0
C377 C 0.60742 0.53155 0.49929 0.0
C378 C 0.40809 0.48943 0.52554 0.0
C379 C 0.48396 0.60684 0.53283 0.0
O380 O 0.50726 0.47361 0.59738 0.0
O381 O 0.97632 0.51003 0.08929 0.0
Zn382 Zn 0.98222 0.4875 0.03831 0.0
O383 O 0.01569 0.5178 0.00768 0.0
Zn384 Zn 0.98908 0.53546 0.96386 0.0
Zn385 Zn 0.03354 0.56086 0.03615 0.0
Zn386 Zn 0.05836 0.48761 0.99254 0.0
O387 O 0.01362 0.51725 0.91689 0.0
O388 O 0.06132 0.48345 0.93688 0.0
O389 O 0.93166 0.48248 0.01473 0.0
O390 O 0.93656 0.51572 0.96302 0.0
O391 O 0.98637 0.59157 0.96294 0.0
O392 O 0.01607 0.60902 0.01442 0.0
O393 O 0.08941 0.56245 0.03833 0.0
O394 O 0.00191 0.43547 0.04486 0.0
O395 O 0.10647 0.50889 0.0123 0.0
O396 O 0.05432 0.43559 0.01195 0.0
C397 C 0.99139 0.53802 0.10528 0.0
C398 C 0.0417 0.4966 0.91069 0.0
C399 C 0.99801 0.61679 0.98517 0.0
C400 C 0.91785 0.49507 0.98483 0.0
C401 C 0.11452 0.53923 0.02908 0.0
C402 C 0.03074 0.41907 0.03247 0.0
O403 O 0.01427 0.55926 0.08853 0.0
C404 C 0.03491 0.09395 0.32207 0.0
C405 C 0.04626 0.06628 0.29613 0.0
C406 C 0.03765 0.01765 0.34284 0.0
C407 C 0.025 0.04519 0.36833 0.0
N408 N 0.00356 0.10778 0.3802 0.0
N409 N 0.05179 0.00155 0.27877 0.0
C410 C 0.02122 0.08286 0.35732 0.0
C411 C 0.04548 0.02798 0.30559 0.0
N412 N 0.03853 0.13088 0.31353 0.0
N413 N 0.04387 0.98208 0.35469 0.0
H414 H 0.0579 0.00826 0.25128 0.0
H415 H 0.04792 0.9731 0.28292 0.0
H416 H 0.03836 0.97341 0.38173 0.0
H417 H 0.05706 0.96182 0.33861 0.0
H418 H 0.03494 0.15233 0.33283 0.0
H419 H 0.04778 0.14018 0.28772 0.0
H420 H 0.99652 0.13468 0.37223 0.0
H421 H 0.99278 0.10051 0.40609 0.0
C422 C 0.44016 0.92626 0.83935 0.0
C423 C 0.44227 0.9524 0.81007 0.0
C424 C 0.47213 0.99781 0.85176 0.0
C425 C 0.46688 0.97289 0.88179 0.0
N426 N 0.43966 0.91629 0.90579 0.0
N427 N 0.45491 0.01484 0.78906 0.0
C428 C 0.44923 0.93784 0.87604 0.0
C429 C 0.45674 0.98874 0.81645 0.0
N430 N 0.43036 0.89008 0.83193 0.0
N431 N 0.49318 0.02933 0.85655 0.0
H432 H 0.44427 0.00905 0.76268 0.0
H433 H 0.46116 0.04292 0.79331 0.0
H434 H 0.50534 0.03672 0.88186 0.0
H435 H 0.50134 0.04649 0.83478 0.0
H436 H 0.43237 0.86882 0.85134 0.0
H437 H 0.42324 0.88056 0.80542 0.0
H438 H 0.42326 0.89238 0.9036 0.0
H439 H 0.44507 0.92409 0.93323 0.0
C440 C 0.59072 0.46704 0.69475 0.0
C441 C 0.5634 0.46371 0.72301 0.0
C442 C 0.51593 0.48795 0.68088 0.0
C443 C 0.54227 0.48701 0.65149 0.0
N444 N 0.60354 0.47111 0.62884 0.0
N445 N 0.49949 0.46771 0.74296 0.0
C446 C 0.57948 0.47565 0.65801 0.0
C447 C 0.52584 0.47344 0.71615 0.0
N448 N 0.6275 0.46238 0.70318 0.0
N449 N 0.48182 0.50367 0.67526 0.0
H450 H 0.50591 0.45803 0.76943 0.0
H451 H 0.47102 0.47014 0.73831 0.0
H452 H 0.47383 0.51481 0.64981 0.0
H453 H 0.46269 0.50865 0.69645 0.0
H454 H 0.64906 0.46844 0.68482 0.0
H455 H 0.63673 0.45546 0.7297 0.0
H456 H 0.62956 0.45873 0.6313 0.0
H457 H 0.59647 0.47686 0.6014 0.0
C458 C 0.97641 0.52719 0.20921 0.0
C459 C 0.96148 0.56261 0.21837 0.0
C460 C 0.96396 0.58091 0.15304 0.0
C461 C 0.98149 0.54659 0.14426 0.0
N462 N 0.01075 0.48987 0.16455 0.0
N463 N 0.94742 0.62577 0.20084 0.0
C464 C 0.98948 0.52043 0.17251 0.0
C465 C 0.9572 0.59029 0.1908 0.0
N466 N 0.97712 0.49972 0.23531 0.0
N467 N 0.95215 0.60377 0.12524 0.0
H468 H 0.94204 0.63367 0.22827 0.0
H469 H 0.94784 0.6481 0.18254 0.0
H470 H 0.95594 0.59766 0.09712 0.0
H471 H 0.93559 0.62711 0.12984 0.0
H472 H 0.98373 0.47211 0.22921 0.0
H473 H 0.96835 0.50387 0.26266 0.0
H474 H 0.02076 0.47185 0.18471 0.0
H475 H 0.02129 0.48427 0.13809 0.0
C476 C 0.31894 0.02622 0.09032 0.0
C477 C 0.29299 0.03741 0.06319 0.0
C478 C 0.34037 0.02578 0.01534 0.0
C479 C 0.36817 0.02587 0.04355 0.0
N480 N 0.38277 0.02902 0.10934 0.0
N481 N 0.27499 0.01571 0.00257 0.0
C482 C 0.35714 0.02649 0.08148 0.0
C483 C 0.30216 0.02857 0.02581 0.0
N484 N 0.3069 0.01049 0.12255 0.0
N485 N 0.35004 0.02219 0.97879 0.0
H486 H 0.24828 0.00975 0.01239 0.0
H487 H 0.28007 0.00559 0.97586 0.0
H488 H 0.37695 0.0161 0.96989 0.0
H489 H 0.33134 0.02675 0.95722 0.0
H490 H 0.32502 0.99884 0.14183 0.0
H491 H 0.27872 0.00495 0.1272 0.0
H492 H 0.3751 0.03235 0.13713 0.0
H493 H 0.41121 0.03185 0.10449 0.0
C494 C 0.19505 0.00217 0.55972 0.0
C495 C 0.20624 0.96468 0.55414 0.0
C496 C 0.14794 0.95142 0.5214 0.0
C497 C 0.13457 0.98714 0.53186 0.0
N498 N 0.14367 0.04544 0.56467 0.0
N499 N 0.19179 0.90202 0.53363 0.0
C500 C 0.15777 0.01247 0.55169 0.0
C501 C 0.18239 0.93887 0.5358 0.0
N502 N 0.22023 0.02799 0.57226 0.0
N503 N 0.1281 0.92985 0.49693 0.0
H504 H 0.21676 0.89156 0.54384 0.0
H505 H 0.17355 0.88129 0.52445 0.0
H506 H 0.10305 0.93848 0.48522 0.0
H507 H 0.1382 0.90517 0.48539 0.0
H508 H 0.21485 0.05648 0.57334 0.0
H509 H 0.24777 0.02131 0.57838 0.0
H510 H 0.15799 0.06302 0.58289 0.0
H511 H 0.11644 0.05395 0.55975 0.0
C512 C 0.81353 0.47705 0.99009 0.0
C513 C 0.80713 0.46005 0.95495 0.0
C514 C 0.87361 0.46413 0.94039 0.0
C515 C 0.8796 0.48384 0.97423 0.0
N516 N 0.85438 0.51552 0.02793 0.0
N517 N 0.82931 0.44451 0.8935 0.0
C518 C 0.84929 0.49214 0.99819 0.0
C519 C 0.83667 0.45577 0.92912 0.0
N520 N 0.78582 0.47768 0.01614 0.0
N521 N 0.90321 0.45165 0.91993 0.0
H522 H 0.80254 0.43827 0.8841 0.0
H523 H 0.84918 0.44474 0.87241 0.0
H524 H 0.93084 0.45619 0.9276 0.0
H525 H 0.90045 0.43369 0.89722 0.0
H526 H 0.79003 0.48594 0.04361 0.0
H527 H 0.7592 0.46709 0.01114 0.0
H528 H 0.83259 0.52567 0.04415 0.0
H529 H 0.88004 0.52762 0.03439 0.0
C530 C 0.71164 0.52269 0.48479 0.0
C531 C 0.72039 0.55877 0.47143 0.0
C532 C 0.65503 0.57712 0.47643 0.0
C533 C 0.64653 0.54169 0.4916 0.0
N534 N 0.6673 0.48348 0.51727 0.0
N535 N 0.70265 0.62271 0.46177 0.0
C536 C 0.67504 0.51522 0.49787 0.0
C537 C 0.69274 0.58676 0.46958 0.0
N538 N 0.73796 0.4953 0.48381 0.0
N539 N 0.62699 0.60077 0.46667 0.0
H540 H 0.73004 0.63078 0.45632 0.0
H541 H 0.68438 0.64508 0.46393 0.0
H542 H 0.59889 0.59467 0.47075 0.0
H543 H 0.63132 0.62506 0.45159 0.0
H544 H 0.73213 0.46738 0.48912 0.0
H545 H 0.76527 0.49999 0.47512 0.0
H546 H 0.68761 0.4649 0.52599 0.0
H547 H 0.64085 0.47734 0.52762 0.0
C548 C 0.05106 0.31576 0.0227 0.0
C549 C 0.05699 0.30614 0.06034 0.0
C550 C 0.04509 0.37054 0.07995 0.0
C551 C 0.03758 0.37984 0.04247 0.0
N552 N 0.02614 0.36051 0.97921 0.0
N553 N 0.0531 0.32178 0.12547 0.0
C554 C 0.03846 0.35218 0.01409 0.0
C555 C 0.05184 0.33276 0.08921 0.0
N556 N 0.05845 0.29037 0.99517 0.0
N557 N 0.04778 0.39805 0.10635 0.0
H558 H 0.05882 0.29447 0.13333 0.0
H559 H 0.04552 0.33891 0.14768 0.0
H560 H 0.04332 0.42614 0.1007 0.0
H561 H 0.05735 0.39358 0.13322 0.0
H562 H 0.05892 0.29695 0.96706 0.0
H563 H 0.06657 0.26304 0.00053 0.0
H564 H 0.02255 0.34071 0.95822 0.0
H565 H 0.01629 0.38682 0.97208 0.0
C566 C 0.5533 0.20385 0.99715 0.0
C567 C 0.56034 0.21089 0.95906 0.0
C568 C 0.54732 0.14548 0.94358 0.0
C569 C 0.53801 0.13893 0.98133 0.0
N570 N 0.52572 0.16277 0.04291 0.0
N571 N 0.55809 0.19079 0.89506 0.0
C572 C 0.53923 0.16839 0.00786 0.0
C573 C 0.55545 0.1824 0.93196 0.0
N574 N 0.56097 0.23077 0.02315 0.0
N575 N 0.55023 0.11617 0.91922 0.0
H576 H 0.56474 0.21739 0.88551 0.0
H577 H 0.55075 0.17227 0.87387 0.0
H578 H 0.54498 0.0886 0.92666 0.0
H579 H 0.56093 0.11863 0.89246 0.0
H580 H 0.56058 0.22602 0.05163 0.0
H581 H 0.57029 0.25742 0.01623 0.0
H582 H 0.52218 0.18407 0.06238 0.0
H583 H 0.51496 0.13723 0.05164 0.0
C584 C 0.95267 0.81413 0.49403 0.0
C585 C 0.95932 0.80077 0.45747 0.0
C586 C 0.98692 0.86091 0.44078 0.0
C587 C 0.9755 0.87572 0.47562 0.0
N588 N 0.94209 0.86797 0.53341 0.0
N589 N 0.97807 0.81267 0.39421 0.0
C590 C 0.95714 0.85271 0.5019 0.0
C591 C 0.97533 0.82443 0.43032 0.0
N592 N 0.94263 0.78979 0.52134 0.0
N593 N 0.0098 0.88123 0.41821 0.0
H594 H 0.96987 0.78616 0.38531 0.0
H595 H 0.98559 0.83023 0.37252 0.0
H596 H 0.01958 0.90776 0.4253 0.0
H597 H 0.02203 0.87039 0.39422 0.0
H598 H 0.94111 0.79729 0.54931 0.0
H599 H 0.93928 0.76125 0.51656 0.0
H600 H 0.92495 0.85317 0.55146 0.0
H601 H 0.94371 0.89631 0.53988 0.0
C602 C 0.45692 0.70912 0.52689 0.0
C603 C 0.44669 0.71636 0.56432 0.0
C604 C 0.45875 0.65128 0.5804 0.0
C605 C 0.47157 0.64467 0.54363 0.0
N606 N 0.48838 0.66802 0.48325 0.0
N607 N 0.44321 0.69665 0.62812 0.0
C608 C 0.47212 0.67379 0.51717 0.0
C609 C 0.44925 0.6881 0.59152 0.0
N610 N 0.45129 0.73574 0.50054 0.0
N611 N 0.45397 0.62207 0.60417 0.0
H612 H 0.43537 0.72314 0.63729 0.0
H613 H 0.44881 0.67839 0.64972 0.0
H614 H 0.46022 0.59456 0.59704 0.0
H615 H 0.44078 0.62447 0.62984 0.0
H616 H 0.45417 0.73083 0.47215 0.0
H617 H 0.44115 0.76225 0.50686 0.0
H618 H 0.49324 0.68915 0.46416 0.0
H619 H 0.49986 0.64253 0.47523 0.0
C620 C 0.98241 0.98051 0.70702 0.0
C621 C 0.94514 0.97173 0.71669 0.0
C622 C 0.92548 0.98012 0.65222 0.0
C623 C 0.96242 0.9907 0.6429 0.0
N624 N 0.0244 0.00812 0.66206 0.0
N625 N 0.88001 0.96958 0.70091 0.0
C626 C 0.99046 0.99296 0.67051 0.0
C627 C 0.91626 0.97359 0.68999 0.0
N628 N 0.01022 0.9759 0.73243 0.0
N629 N 0.89971 0.97453 0.62479 0.0
H630 H 0.87229 0.96417 0.7283 0.0
H631 H 0.85745 0.97463 0.68358 0.0
H632 H 0.90542 0.97877 0.59673 0.0
H633 H 0.87357 0.9628 0.62938 0.0
H634 H 0.03839 0.97759 0.72583 0.0
H635 H 0.00527 0.9678 0.75977 0.0
H636 H 0.0447 0.01415 0.68183 0.0
H637 H 0.03117 0.0178 0.63563 0.0
C638 C 0.57164 0.02862 0.20852 0.0
C639 C 0.54276 0.04403 0.2307 0.0
C640 C 0.50114 0.04412 0.17694 0.0
C641 C 0.5291 0.02626 0.15548 0.0
N642 N 0.5878 0.99394 0.15286 0.0
N643 N 0.47786 0.05897 0.23847 0.0
C644 C 0.56344 0.0162 0.1719 0.0
C645 C 0.50675 0.04937 0.21565 0.0
N646 N 0.60725 0.0274 0.22175 0.0
N647 N 0.47018 0.05799 0.16002 0.0
H648 H 0.48101 0.06282 0.26705 0.0
H649 H 0.45027 0.05965 0.22968 0.0
H650 H 0.46589 0.05607 0.13145 0.0
H651 H 0.45064 0.07454 0.17365 0.0
H652 H 0.63007 0.0204 0.20527 0.0
H653 H 0.61461 0.03642 0.24835 0.0
H654 H 0.61149 0.98256 0.16486 0.0
H655 H 0.58253 0.98385 0.12612 0.0
C656 C 0.48143 0.50297 0.30913 0.0
C657 C 0.48208 0.54003 0.2958 0.0
C658 C 0.50023 0.563 0.35748 0.0
C659 C 0.49469 0.52668 0.37183 0.0
N660 N 0.4765 0.46243 0.36251 0.0
N661 N 0.48855 0.6061 0.30741 0.0
C662 C 0.48472 0.49659 0.34793 0.0
C663 C 0.49078 0.57029 0.31994 0.0
N664 N 0.47799 0.47392 0.28456 0.0
N665 N 0.51553 0.59026 0.37949 0.0
H666 H 0.48254 0.61266 0.2799 0.0
H667 H 0.49008 0.6294 0.32477 0.0
H668 H 0.52315 0.58581 0.40705 0.0
H669 H 0.52386 0.61618 0.36959 0.0
H670 H 0.48106 0.4461 0.29196 0.0
H671 H 0.47526 0.47779 0.256 0.0
H672 H 0.46505 0.44057 0.34709 0.0
H673 H 0.47837 0.45665 0.39078 0.0
C674 C 0.05687 0.43617 0.82502 0.0
C675 C 0.06661 0.46357 0.79851 0.0
C676 C 0.06257 0.5125 0.84623 0.0
C677 C 0.05024 0.48544 0.87205 0.0
N678 N 0.02894 0.4229 0.88479 0.0
N679 N 0.0737 0.52813 0.78169 0.0
C680 C 0.04559 0.44759 0.86114 0.0
C681 C 0.06799 0.50189 0.80848 0.0
N682 N 0.05928 0.39917 0.81591 0.0
N683 N 0.07046 0.54796 0.85813 0.0
H684 H 0.07839 0.52129 0.75386 0.0
H685 H 0.07099 0.55666 0.78639 0.0
H686 H 0.06683 0.55669 0.88559 0.0
H687 H 0.08336 0.56791 0.84161 0.0
H688 H 0.05676 0.37785 0.83523 0.0
H689 H 0.06666 0.38968 0.78946 0.0
H690 H 0.02108 0.39599 0.87701 0.0
H691 H 0.01989 0.43024 0.91139 0.0
C692 C 0.69568 0.93761 0.96558 0.0
C693 C 0.72392 0.96428 0.97356 0.0
C694 C 0.67583 0.00844 0.99325 0.0
C695 C 0.64847 0.97976 0.99053 0.0
N696 N 0.63644 0.91336 0.98546 0.0
N697 N 0.74089 0.02214 0.00408 0.0
C698 C 0.65955 0.94319 0.98009 0.0
C699 C 0.71406 0.99886 0.99022 0.0
N700 N 0.70264 0.90774 0.94289 0.0
N701 N 0.66568 0.04496 0.99668 0.0
H702 H 0.76909 0.01538 0.00386 0.0
H703 H 0.73466 0.04614 0.01933 0.0
H704 H 0.6381 0.05377 0.99616 0.0
H705 H 0.68486 0.06681 0.99554 0.0
H706 H 0.68174 0.88944 0.93413 0.0
H707 H 0.72798 0.90382 0.92931 0.0
H708 H 0.64489 0.88595 0.9807 0.0
H709 H 0.61092 0.91543 0.99914 0.0
C710 C 0.79148 0.04184 0.49842 0.0
C711 C 0.78131 0.05625 0.46333 0.0
C712 C 0.84671 0.05762 0.44416 0.0
C713 C 0.85665 0.04061 0.47817 0.0
N714 N 0.83809 0.00982 0.53467 0.0
N715 N 0.79776 0.0709 0.40011 0.0
C716 C 0.82891 0.03083 0.50453 0.0
C717 C 0.80852 0.06199 0.43534 0.0
N718 N 0.76564 0.03973 0.52624 0.0
N719 N 0.87371 0.0713 0.4211 0.0
H720 H 0.76998 0.07438 0.39257 0.0
H721 H 0.81601 0.07149 0.37761 0.0
H722 H 0.90208 0.06945 0.42684 0.0
H723 H 0.868 0.08757 0.39798 0.0
H724 H 0.7723 0.03347 0.55363 0.0
H725 H 0.73782 0.04706 0.52263 0.0
H726 H 0.81849 0.99858 0.55279 0.0
H727 H 0.8651 0.00067 0.53975 0.0
C728 C 0.199 0.574 0.08292 0.0
C729 C 0.22862 0.56163 0.0599 0.0
C730 C 0.18316 0.54011 0.0138 0.0
C731 C 0.15384 0.5471 0.03945 0.0
N732 N 0.13626 0.56133 0.10302 0.0
N733 N 0.2483 0.52505 0.00676 0.0
C734 C 0.16235 0.56145 0.07536 0.0
C735 C 0.22059 0.54237 0.02624 0.0
N736 N 0.20547 0.59861 0.11135 0.0
N737 N 0.17559 0.53298 0.97725 0.0
H738 H 0.27588 0.52467 0.01569 0.0
H739 H 0.24312 0.50779 0.98391 0.0
H740 H 0.14875 0.53341 0.96633 0.0
H741 H 0.19632 0.53099 0.95704 0.0
H742 H 0.18407 0.61081 0.12671 0.0
H743 H 0.23166 0.61002 0.11678 0.0
H744 H 0.14251 0.56865 0.1304 0.0
H745 H 0.10985 0.54962 0.09991 0.0
C746 C 0.30215 0.4982 0.52847 0.0
C747 C 0.29218 0.46338 0.54415 0.0
C748 C 0.35699 0.44362 0.53937 0.0
C749 C 0.3679 0.48051 0.53019 0.0
N750 N 0.35004 0.54538 0.52473 0.0
N751 N 0.31296 0.40679 0.57389 0.0
C752 C 0.34029 0.50861 0.52699 0.0
C753 C 0.32039 0.4371 0.55231 0.0
N754 N 0.2755 0.52099 0.5142 0.0
N755 N 0.38088 0.41446 0.53446 0.0
H756 H 0.28718 0.40212 0.58637 0.0
H757 H 0.33372 0.38878 0.58291 0.0
H758 H 0.40704 0.4174 0.52225 0.0
H759 H 0.37275 0.38679 0.53815 0.0
H760 H 0.28192 0.54518 0.49961 0.0
H761 H 0.24739 0.51365 0.51338 0.0
H762 H 0.33053 0.56679 0.52563 0.0
H763 H 0.37744 0.55485 0.52647 0.0
C764 C 0.008 0.7183 0.95673 0.0
C765 C 0.97086 0.73068 0.96166 0.0
C766 C 0.9516 0.6684 0.98199 0.0
C767 C 0.9889 0.65616 0.97771 0.0
N768 N 0.05364 0.66943 0.96564 0.0
N769 N 0.90826 0.72017 0.98341 0.0
C770 C 0.01747 0.68119 0.96661 0.0
C771 C 0.94293 0.70647 0.97566 0.0
N772 N 0.03386 0.7418 0.94153 0.0
N773 N 0.92443 0.64343 0.99169 0.0
H774 H 0.90056 0.7476 0.97806 0.0
H775 H 0.88768 0.70536 0.99737 0.0
H776 H 0.92997 0.61593 0.99898 0.0
H777 H 0.89609 0.64915 0.99091 0.0
H778 H 0.06026 0.73353 0.93302 0.0
H779 H 0.02829 0.76963 0.93555 0.0
H780 H 0.07633 0.68713 0.96194 0.0
H781 H 0.06141 0.64194 0.97058 0.0
C782 C 0.48174 0.81607 0.09084 0.0
C783 C 0.48558 0.78681 0.06434 0.0
C784 C 0.49926 0.83314 0.0165 0.0
C785 C 0.49967 0.86178 0.04407 0.0
N786 N 0.50471 0.87649 0.10964 0.0
N787 N 0.50943 0.76756 0.00441 0.0
C788 C 0.49523 0.852 0.08197 0.0
C789 C 0.49808 0.79533 0.02792 0.0
N790 N 0.46335 0.81052 0.12359 0.0
N791 N 0.49753 0.84151 0.97959 0.0
H792 H 0.51054 0.7397 0.0124 0.0
H793 H 0.5216 0.77287 0.97867 0.0
H794 H 0.49533 0.86856 0.96961 0.0
H795 H 0.49386 0.82117 0.95907 0.0
H796 H 0.45751 0.83225 0.14208 0.0
H797 H 0.45006 0.78557 0.13021 0.0
H798 H 0.50428 0.86918 0.13763 0.0
H799 H 0.51748 0.90211 0.10447 0.0
C800 C 0.02705 0.21928 0.51657 0.0
C801 C 0.03522 0.22988 0.55371 0.0
C802 C 0.02681 0.16539 0.57422 0.0
C803 C 0.01751 0.15499 0.53727 0.0
N804 N 0.00198 0.17222 0.47463 0.0
N805 N 0.0369 0.21529 0.61896 0.0
C806 C 0.01565 0.18203 0.50879 0.0
C807 C 0.03305 0.20361 0.58291 0.0
N808 N 0.03111 0.24466 0.48868 0.0
N809 N 0.0316 0.13851 0.60052 0.0
H810 H 0.04274 0.24286 0.62636 0.0
H811 H 0.03151 0.19838 0.64173 0.0
H812 H 0.02724 0.11019 0.5953 0.0
H813 H 0.0426 0.14376 0.62678 0.0
H814 H 0.03001 0.23773 0.46058 0.0
H815 H 0.03771 0.27261 0.4936 0.0
H816 H 0.99635 0.19125 0.45373 0.0
H817 H 0.9933 0.14517 0.46805 0.0
C818 C 0.50239 0.30597 0.47806 0.0
C819 C 0.53918 0.29187 0.47822 0.0
C820 C 0.56279 0.35231 0.49999 0.0
C821 C 0.52686 0.36766 0.49504 0.0
N822 N 0.46299 0.36055 0.4754 0.0
N823 N 0.60527 0.30219 0.48503 0.0
C824 C 0.49663 0.34483 0.48334 0.0
C825 C 0.56965 0.31513 0.48822 0.0
N826 N 0.47302 0.28209 0.47328 0.0
N827 N 0.59007 0.37296 0.51693 0.0
H828 H 0.61158 0.27498 0.4769 0.0
H829 H 0.62869 0.31921 0.48765 0.0
H830 H 0.58591 0.40019 0.52642 0.0
H831 H 0.61565 0.36202 0.5248 0.0
H832 H 0.44536 0.28999 0.47665 0.0
H833 H 0.4764 0.25348 0.46912 0.0
H834 H 0.44115 0.34602 0.46291 0.0
H835 H 0.45776 0.38897 0.47846 0.0
loop_
_geom_bond_atom_site_label_1
_geom_bond_atom_site_label_2
_geom_bond_distance
_geom_bond_site_symmetry_2
_ccdc_geom_bond_type
C0 C1 1.386 . S
C0 C2 1.397 . S
C0 H24 0.931 . S
C1 C0 1.386 . S
C1 C5 1.397 . S
C2 C0 1.397 . S
C2 C3 1.384 . S
C2 H25 0.930 . S
C3 C2 1.384 . S
C3 C4 1.377 . S
C3 C6 1.481 . S
C4 C3 1.377 . S
C4 C5 1.389 . S
C4 H26 0.929 . S
C5 C1 1.397 . S
C5 C4 1.389 . S
C5 H27 0.931 . S
C6 C3 1.481 . S
C6 C7 1.387 . S
C6 C11 1.390 . S
C7 C6 1.387 . S
C7 C8 1.401 . S
C7 H28 0.930 . S
C8 C7 1.401 . S
C8 C9 1.376 . S
C8 C17 1.511 . S
C9 C8 1.376 . S
C9 C10 1.392 . S
C9 H30 0.931 . S
C10 C9 1.392 . S
C10 C11 1.361 . S
C10 C12 1.500 . S
C11 C6 1.390 . S
C11 C10 1.361 . S
C11 H29 0.931 . S
C12 C10 1.500 . S
C12 C13 1.371 . S
C12 C14 1.365 . S
C13 C12 1.371 . S
C13 C23 1.386 . S
C13 H31 0.931 . S
C14 C12 1.365 . S
C14 C15 1.409 . S
C14 H32 0.929 . S
C15 C14 1.409 . S
C15 C16 1.380 . S
C15 H33 0.930 . S
C16 C15 1.380 . S
C16 C23 1.357 . S
C17 C8 1.511 . S
C17 C18 1.341 . S
C17 C19 1.371 . S
C18 C17 1.341 . S
C18 C22 1.394 . S
C18 H34 0.930 . S
C19 C17 1.371 . S
C19 C20 1.392 . S
C19 H35 0.931 . S
C20 C19 1.392 . S
C20 C21 1.331 . S
C20 H38 0.932 . S
C21 C20 1.331 . S
C21 C22 1.336 . S
C22 C18 1.394 . S
C22 C21 1.336 . S
C22 H37 0.929 . S
C23 C13 1.386 . S
C23 C16 1.357 . S
C23 H36 0.928 . S
H24 C0 0.931 . S
H25 C2 0.930 . S
H26 C4 0.929 . S
H27 C5 0.931 . S
H28 C7 0.930 . S
H29 C11 0.931 . S
H30 C9 0.931 . S
H31 C13 0.931 . S
H32 C14 0.929 . S
H33 C15 0.930 . S
H34 C18 0.930 . S
H35 C19 0.931 . S
H36 C23 0.928 . S
H37 C22 0.929 . S
H38 C20 0.932 . S
C39 C40 1.386 . S
C39 C41 1.397 . S
C39 H63 0.931 . S
C40 C39 1.386 . S
C40 C44 1.397 . S
C41 C39 1.397 . S
C41 C42 1.384 . S
C41 H64 0.930 . S
C42 C41 1.384 . S
C42 C43 1.377 . S
C42 C45 1.481 . S
C43 C42 1.377 . S
C43 C44 1.389 . S
C43 H65 0.929 . S
C44 C40 1.397 . S
C44 C43 1.389 . S
C44 H66 0.931 . S
C45 C42 1.481 . S
C45 C46 1.387 . S
C45 C50 1.390 . S
C46 C45 1.387 . S
C46 C47 1.401 . S
C46 H67 0.930 . S
C47 C46 1.401 . S
C47 C48 1.376 . S
C47 C56 1.511 . S
C48 C47 1.376 . S
C48 C49 1.392 . S
C48 H69 0.931 . S
C49 C48 1.392 . S
C49 C50 1.361 . S
C49 C51 1.500 . S
C50 C45 1.390 . S
C50 C49 1.361 . S
C50 H68 0.931 . S
C51 C49 1.500 . S
C51 C52 1.371 . S
C51 C53 1.365 . S
C52 C51 1.371 . S
C52 C62 1.386 . S
C52 H70 0.931 . S
C53 C51 1.365 . S
C53 C54 1.409 . S
C53 H71 0.929 . S
C54 C53 1.409 . S
C54 C55 1.380 . S
C54 H72 0.930 . S
C55 C54 1.380 . S
C55 C62 1.357 . S
C56 C47 1.511 . S
C56 C57 1.341 . S
C56 C58 1.371 . S
C57 C56 1.341 . S
C57 C61 1.394 . S
C57 H73 0.930 . S
C58 C56 1.371 . S
C58 C59 1.392 . S
C58 H74 0.931 . S
C59 C58 1.392 . S
C59 C60 1.331 . S
C59 H77 0.932 . S
C60 C59 1.331 . S
C60 C61 1.336 . S
C61 C57 1.394 . S
C61 C60 1.336 . S
C61 H76 0.929 . S
C62 C52 1.386 . S
C62 C55 1.357 . S
C62 H75 0.928 . S
H63 C39 0.931 . S
H64 C41 0.930 . S
H65 C43 0.929 . S
H66 C44 0.931 . S
H67 C46 0.930 . S
H68 C50 0.931 . S
H69 C48 0.931 . S
H70 C52 0.931 . S
H71 C53 0.929 . S
H72 C54 0.930 . S
H73 C57 0.930 . S
H74 C58 0.931 . S
H75 C62 0.928 . S
H76 C61 0.929 . S
H77 C59 0.932 . S
C78 C79 1.386 . S
C78 C80 1.397 . S
C78 H102 0.931 . S
C79 C78 1.386 . S
C79 C83 1.397 . S
C80 C78 1.397 . S
C80 C81 1.384 . S
C80 H103 0.930 . S
C81 C80 1.384 . S
C81 C82 1.377 . S
C81 C84 1.481 . S
C82 C81 1.377 . S
C82 C83 1.389 . S
C82 H104 0.929 . S
C83 C79 1.397 . S
C83 C82 1.389 . S
C83 H105 0.931 . S
C84 C81 1.481 . S
C84 C85 1.387 . S
C84 C89 1.390 . S
C85 C84 1.387 . S
C85 C86 1.401 . S
C85 H106 0.930 . S
C86 C85 1.401 . S
C86 C87 1.376 . S
C86 C95 1.511 . S
C87 C86 1.376 . S
C87 C88 1.392 . S
C87 H108 0.931 . S
C88 C87 1.392 . S
C88 C89 1.361 . S
C88 C90 1.500 . S
C89 C84 1.390 . S
C89 C88 1.361 . S
C89 H107 0.931 . S
C90 C88 1.500 . S
C90 C91 1.371 . S
C90 C92 1.365 . S
C91 C90 1.371 . S
C91 C101 1.386 . S
C91 H109 0.931 . S
C92 C90 1.365 . S
C92 C93 1.409 . S
C92 H110 0.929 . S
C93 C92 1.409 . S
C93 C94 1.380 . S
C93 H111 0.930 . S
C94 C93 1.380 . S
C94 C101 1.357 . S
C95 C86 1.511 . S
C95 C96 1.341 . S
C95 C97 1.371 . S
C96 C95 1.341 . S
C96 C100 1.394 . S
C96 H112 0.930 . S
C97 C95 1.371 . S
C97 C98 1.392 . S
C97 H113 0.931 . S
C98 C97 1.392 . S
C98 C99 1.331 . S
C98 H116 0.932 . S
C99 C98 1.331 . S
C99 C100 1.336 . S
C100 C96 1.394 . S
C100 C99 1.336 . S
C100 H115 0.929 . S
C101 C91 1.386 . S
C101 C94 1.357 . S
C101 H114 0.928 . S
H102 C78 0.931 . S
H103 C80 0.930 . S
H104 C82 0.929 . S
H105 C83 0.931 . S
H106 C85 0.930 . S
H107 C89 0.931 . S
H108 C87 0.931 . S
H109 C91 0.931 . S
H110 C92 0.929 . S
H111 C93 0.930 . S
H112 C96 0.930 . S
H113 C97 0.931 . S
H114 C101 0.928 . S
H115 C100 0.929 . S
H116 C98 0.932 . S
C117 C118 1.386 . S
C117 C119 1.397 . S
C117 H141 0.931 . S
C118 C117 1.386 . S
C118 C122 1.397 . S
C119 C117 1.397 . S
C119 C120 1.384 . S
C119 H142 0.930 . S
C120 C119 1.384 . S
C120 C121 1.377 . S
C120 C123 1.481 . S
C121 C120 1.377 . S
C121 C122 1.389 . S
C121 H143 0.929 . S
C122 C118 1.397 . S
C122 C121 1.389 . S
C122 H144 0.931 . S
C123 C120 1.481 . S
C123 C124 1.387 . S
C123 C128 1.390 . S
C124 C123 1.387 . S
C124 C125 1.401 . S
C124 H145 0.930 . S
C125 C124 1.401 . S
C125 C126 1.376 . S
C125 C134 1.511 . S
C126 C125 1.376 . S
C126 C127 1.392 . S
C126 H147 0.931 . S
C127 C126 1.392 . S
C127 C128 1.361 . S
C127 C129 1.500 . S
C128 C123 1.390 . S
C128 C127 1.361 . S
C128 H146 0.931 . S
C129 C127 1.500 . S
C129 C130 1.371 . S
C129 C131 1.365 . S
C130 C129 1.371 . S
C130 C140 1.386 . S
C130 H148 0.931 . S
C131 C129 1.365 . S
C131 C132 1.409 . S
C131 H149 0.929 . S
C132 C131 1.409 . S
C132 C133 1.380 . S
C132 H150 0.930 . S
C133 C132 1.380 . S
C133 C140 1.357 . S
C134 C125 1.511 . S
C134 C135 1.341 . S
C134 C136 1.371 . S
C135 C134 1.341 . S
C135 C139 1.394 . S
C135 H151 0.930 . S
C136 C134 1.371 . S
C136 C137 1.392 . S
C136 H152 0.931 . S
C137 C136 1.392 . S
C137 C138 1.331 . S
C137 H155 0.932 . S
C138 C137 1.331 . S
C138 C139 1.336 . S
C139 C135 1.394 . S
C139 C138 1.336 . S
C139 H154 0.929 . S
C140 C130 1.386 . S
C140 C133 1.357 . S
C140 H153 0.928 . S
H141 C117 0.931 . S
H142 C119 0.930 . S
H143 C121 0.929 . S
H144 C122 0.931 . S
H145 C124 0.930 . S
H146 C128 0.931 . S
H147 C126 0.931 . S
H148 C130 0.931 . S
H149 C131 0.929 . S
H150 C132 0.930 . S
H151 C135 0.930 . S
H152 C136 0.931 . S
H153 C140 0.928 . S
H154 C139 0.929 . S
H155 C137 0.932 . S
C156 C157 1.386 . S
C156 C158 1.397 . S
C156 H180 0.931 . S
C157 C156 1.386 . S
C157 C161 1.397 1_565 S
C158 C156 1.397 . S
C158 C159 1.384 . S
C158 H181 0.930 . S
C159 C158 1.384 . S
C159 C160 1.377 . S
C159 C162 1.481 . S
C160 C159 1.377 . S
C160 C161 1.389 1_565 S
C160 H182 0.929 1_565 S
C161 C157 1.397 1_545 S
C161 C160 1.389 1_545 S
C161 H183 0.931 . S
C162 C159 1.481 . S
C162 C163 1.387 . S
C162 C167 1.390 . S
C163 C162 1.387 . S
C163 C164 1.401 . S
C163 H184 0.930 . S
C164 C163 1.401 . S
C164 C165 1.376 . S
C164 C173 1.511 . S
C165 C164 1.376 . S
C165 C166 1.392 . S
C165 H186 0.931 . S
C166 C165 1.392 . S
C166 C167 1.361 . S
C166 C168 1.500 . S
C167 C162 1.390 . S
C167 C166 1.361 . S
C167 H185 0.931 . S
C168 C166 1.500 . S
C168 C169 1.371 . S
C168 C170 1.386 . S
C169 C168 1.371 . S
C169 C179 1.386 . S
C169 H187 0.931 . S
C170 C168 1.386 . S
C170 C171 1.400 1_565 S
C170 H188 0.917 1_565 S
C171 C170 1.400 1_545 S
C171 C172 1.380 1_545 S
C171 H189 0.930 . S
C172 C171 1.380 1_565 S
C172 C179 1.357 . S
C173 C164 1.511 . S
C173 C174 1.341 . S
C173 C175 1.371 . S
C174 C173 1.341 . S
C174 C178 1.394 . S
C174 H190 0.930 . S
C175 C173 1.371 . S
C175 C176 1.392 . S
C175 H191 0.931 . S
C176 C175 1.392 . S
C176 C177 1.331 . S
C176 H194 0.932 1_556 S
C177 C176 1.331 . S
C177 C178 1.336 . S
C178 C174 1.394 . S
C178 C177 1.336 . S
C178 H193 0.929 . S
C179 C169 1.386 . S
C179 C172 1.357 . S
C179 H192 0.928 . S
H180 C156 0.931 . S
H181 C158 0.930 . S
H182 C160 0.929 1_545 S
H183 C161 0.931 . S
H184 C163 0.930 . S
H185 C167 0.931 . S
H186 C165 0.931 . S
H187 C169 0.931 . S
H188 C170 0.917 1_545 S
H189 C171 0.930 . S
H190 C174 0.930 . S
H191 C175 0.931 . S
H192 C179 0.928 . S
H193 C178 0.929 . S
H194 C176 0.932 1_554 S
C195 C196 1.386 . S
C195 C197 1.397 . S
C195 H219 0.931 1_545 S
C196 C195 1.386 . S
C196 C200 1.397 . S
C197 C195 1.397 . S
C197 C198 1.384 . S
C197 H220 0.930 . S
C198 C197 1.384 . S
C198 C199 1.377 . S
C198 C201 1.481 . S
C199 C198 1.377 . S
C199 C200 1.389 . S
C199 H221 0.929 . S
C200 C196 1.397 . S
C200 C199 1.389 . S
C200 H222 0.931 . S
C201 C198 1.481 . S
C201 C202 1.387 . S
C201 C206 1.390 . S
C202 C201 1.387 . S
C202 C203 1.401 . S
C202 H223 0.930 . S
C203 C202 1.401 . S
C203 C204 1.376 . S
C203 C212 1.511 . S
C204 C203 1.376 . S
C204 C205 1.392 . S
C204 H225 0.931 . S
C205 C204 1.392 . S
C205 C206 1.361 . S
C205 C207 1.500 . S
C206 C201 1.390 . S
C206 C205 1.361 . S
C206 H224 0.931 . S
C207 C205 1.500 . S
C207 C208 1.371 . S
C207 C209 1.365 . S
C208 C207 1.371 . S
C208 C218 1.386 . S
C208 H226 0.931 . S
C209 C207 1.365 . S
C209 C210 1.409 . S
C209 H227 0.929 . S
C210 C209 1.409 . S
C210 C211 1.380 . S
C210 H228 0.930 . S
C211 C210 1.380 . S
C211 C218 1.357 . S
C212 C203 1.511 . S
C212 C213 1.341 . S
C212 C214 1.371 . S
C213 C212 1.341 . S
C213 C217 1.394 . S
C213 H229 0.930 . S
C214 C212 1.371 . S
C214 C215 1.392 . S
C214 H230 0.931 . S
C215 C214 1.392 . S
C215 C216 1.331 . S
C215 H233 0.932 . S
C216 C215 1.331 . S
C216 C217 1.336 . S
C217 C213 1.394 . S
C217 C216 1.336 . S
C217 H232 0.929 1_545 S
C218 C208 1.386 . S
C218 C211 1.357 . S
C218 H231 0.928 . S
H219 C195 0.931 1_565 S
H220 C197 0.930 . S
H221 C199 0.929 . S
H222 C200 0.931 . S
H223 C202 0.930 . S
H224 C206 0.931 . S
H225 C204 0.931 . S
H226 C208 0.931 . S
H227 C209 0.929 . S
H228 C210 0.930 . S
H229 C213 0.930 . S
H230 C214 0.931 . S
H231 C218 0.928 . S
H232 C217 0.929 1_565 S
H233 C215 0.932 . S
C234 C235 1.386 . S
C234 C236 1.397 . S
C234 H258 0.931 . S
C235 C234 1.386 . S
C235 C239 1.397 . S
C236 C234 1.397 . S
C236 C237 1.384 . S
C236 H259 0.930 . S
C237 C236 1.384 . S
C237 C238 1.377 . S
C237 C240 1.481 . S
C238 C237 1.377 . S
C238 C239 1.389 . S
C238 H260 0.929 . S
C239 C235 1.397 . S
C239 C238 1.389 . S
C239 H261 0.931 1_554 S
C240 C237 1.481 . S
C240 C241 1.387 . S
C240 C245 1.390 . S
C241 C240 1.387 . S
C241 C242 1.401 . S
C241 H262 0.930 . S
C242 C241 1.401 . S
C242 C243 1.376 . S
C242 C251 1.511 . S
C243 C242 1.376 . S
C243 C244 1.392 . S
C243 H264 0.931 . S
C244 C243 1.392 . S
C244 C245 1.361 . S
C244 C246 1.500 . S
C245 C240 1.390 . S
C245 C244 1.361 . S
C245 H263 0.931 . S
C246 C244 1.500 . S
C246 C247 1.371 . S
C246 C248 1.365 . S
C247 C246 1.371 . S
C247 C257 1.386 . S
C247 H265 0.931 . S
C248 C246 1.365 . S
C248 C249 1.409 . S
C248 H266 0.929 . S
C249 C248 1.409 . S
C249 C250 1.380 . S
C249 H267 0.930 1_554 S
C250 C249 1.380 . S
C250 C257 1.357 . S
C251 C242 1.511 . S
C251 C252 1.341 . S
C251 C253 1.371 . S
C252 C251 1.341 . S
C252 C256 1.394 . S
C252 H268 0.930 . S
C253 C251 1.371 . S
C253 C254 1.392 . S
C253 H269 0.931 . S
C254 C253 1.392 . S
C254 C255 1.331 . S
C254 H272 0.932 . S
C255 C254 1.331 . S
C255 C256 1.336 . S
C256 C252 1.394 . S
C256 C255 1.336 . S
C256 H271 0.929 . S
C257 C247 1.386 . S
C257 C250 1.357 . S
C257 H270 0.928 . S
H258 C234 0.931 . S
H259 C236 0.930 . S
H260 C238 0.929 . S
H261 C239 0.931 1_556 S
H262 C241 0.930 . S
H263 C245 0.931 . S
H264 C243 0.931 . S
H265 C247 0.931 . S
H266 C248 0.929 . S
H267 C249 0.930 1_556 S
H268 C252 0.930 . S
H269 C253 0.931 . S
H270 C257 0.928 . S
H271 C256 0.929 . S
H272 C254 0.932 . S
C273 C274 1.386 . S
C273 C275 1.397 . S
C273 H297 0.931 . S
C274 C273 1.386 . S
C274 C278 1.397 . S
C275 C273 1.397 . S
C275 C276 1.384 . S
C275 H298 0.930 . S
C276 C275 1.384 . S
C276 C277 1.377 . S
C276 C279 1.481 . S
C277 C276 1.377 . S
C277 C278 1.389 . S
C277 H299 0.929 . S
C278 C274 1.397 . S
C278 C277 1.389 . S
C278 H300 0.957 . S
C279 C276 1.481 . S
C279 C280 1.387 . S
C279 C284 1.390 . S
C280 C279 1.387 . S
C280 C281 1.401 . S
C280 H301 0.930 . S
C281 C280 1.401 . S
C281 C282 1.376 . S
C281 C290 1.511 . S
C282 C281 1.376 . S
C282 C283 1.392 . S
C282 H303 0.931 . S
C283 C282 1.392 . S
C283 C284 1.361 . S
C283 C285 1.500 . S
C284 C279 1.390 . S
C284 C283 1.361 . S
C284 H302 0.931 . S
C285 C283 1.500 . S
C285 C286 1.371 . S
C285 C287 1.365 . S
C286 C285 1.371 . S
C286 C296 1.386 . S
C286 H304 0.931 . S
C287 C285 1.365 . S
C287 C288 1.409 . S
C287 H305 0.929 . S
C288 C287 1.409 . S
C288 C289 1.380 . S
C288 H306 0.930 . S
C289 C288 1.380 . S
C289 C296 1.357 . S
C290 C281 1.511 . S
C290 C291 1.341 . S
C290 C292 1.371 . S
C291 C290 1.341 . S
C291 C295 1.394 . S
C291 H307 0.930 . S
C292 C290 1.371 . S
C292 C293 1.392 . S
C292 H308 0.931 . S
C293 C292 1.392 . S
C293 C294 1.331 . S
C293 H311 0.932 . S
C294 C293 1.331 . S
C294 C295 1.336 . S
C295 C291 1.394 . S
C295 C294 1.336 . S
C295 H310 0.929 . S
C296 C286 1.386 . S
C296 C289 1.357 . S
C296 H309 0.928 . S
H297 C273 0.931 . S
H298 C275 0.930 . S
H299 C277 0.929 . S
H300 C278 0.957 . S
H301 C280 0.930 . S
H302 C284 0.931 . S
H303 C282 0.931 . S
H304 C286 0.931 . S
H305 C287 0.929 . S
H306 C288 0.930 . S
H307 C291 0.930 . S
H308 C292 0.931 . S
H309 C296 0.928 . S
H310 C295 0.929 . S
H311 C293 0.932 . S
O312 Zn313 1.953 . S
O312 C328 1.225 1_655 S
Zn313 O312 1.953 . S
Zn313 O314 1.949 1_655 S
Zn313 O320 1.919 . S
Zn313 O325 1.924 . S
O314 Zn313 1.949 1_455 S
O314 Zn315 1.923 1_445 S
O314 Zn316 1.950 . S
O314 Zn317 1.945 1_545 S
Zn315 O314 1.923 1_665 S
Zn315 O318 1.933 . S
Zn315 O321 1.941 1_565 S
Zn315 O322 1.965 1_665 S
Zn316 O314 1.950 . S
Zn316 O323 1.938 . S
Zn316 O324 1.900 1_545 S
Zn316 O334 1.953 . S
Zn317 O314 1.945 1_565 S
Zn317 O319 1.932 1_455 S
Zn317 O326 1.977 . S
Zn317 O327 1.910 1_455 S
O318 Zn315 1.933 . S
O318 C329 1.226 . S
O319 Zn317 1.932 1_655 S
O319 C329 1.307 . S
O320 Zn313 1.919 . S
O320 C331 1.253 . S
O321 Zn315 1.941 1_545 S
O321 C331 1.283 . S
O322 Zn315 1.965 1_445 S
O322 C330 1.303 . S
O323 Zn316 1.938 . S
O323 C330 1.247 . S
O324 Zn316 1.900 1_565 S
O324 C332 1.314 . S
O325 Zn313 1.924 . S
O325 C333 1.294 1_545 S
O326 Zn317 1.977 . S
O326 C332 1.272 . S
O327 Zn317 1.910 1_655 S
O327 C333 1.250 . S
C328 O312 1.225 1_455 S
C328 O334 1.298 . S
C329 O318 1.226 . S
C329 O319 1.307 . S
C330 O322 1.303 . S
C330 O323 1.247 . S
C331 O320 1.253 . S
C331 O321 1.283 . S
C332 O324 1.314 . S
C332 O326 1.272 . S
C333 O325 1.294 1_565 S
C333 O327 1.250 . S
O334 Zn316 1.953 . S
O334 C328 1.298 . S
O335 Zn336 1.953 . S
O335 C351 1.225 . S
Zn336 O335 1.953 . S
Zn336 O337 1.949 1_556 S
Zn336 O343 1.919 . S
Zn336 O348 1.924 1_556 S
O337 Zn336 1.949 1_554 S
O337 Zn338 1.923 1_544 S
O337 Zn339 1.950 . S
O337 Zn340 1.945 1_545 S
Zn338 O337 1.923 1_566 S
Zn338 O341 1.933 1_556 S
Zn338 O344 1.941 . S
Zn338 O345 1.965 . S
Zn339 O337 1.950 . S
Zn339 O346 1.938 . S
Zn339 O347 1.906 . S
Zn339 O357 1.953 . S
Zn340 O337 1.945 1_565 S
Zn340 O342 1.932 . S
Zn340 O349 1.977 1_565 S
Zn340 O350 1.910 1_565 S
O341 Zn338 1.933 1_554 S
O341 C352 1.226 . S
O342 Zn340 1.932 . S
O342 C352 1.307 . S
O343 Zn336 1.919 . S
O343 C354 1.253 1_545 S
O344 Zn338 1.941 . S
O344 C354 1.283 . S
O345 Zn338 1.965 . S
O345 C353 1.303 . S
O346 Zn339 1.938 . S
O346 C353 1.247 1_544 S
O347 Zn339 1.906 . S
O347 C355 1.304 . S
O348 Zn336 1.924 1_554 S
O348 C356 1.311 . S
O349 Zn340 1.977 1_545 S
O349 C355 1.272 . S
O350 Zn340 1.910 1_545 S
O350 C356 1.231 . S
C351 O335 1.225 . S
C351 O357 1.298 1_556 S
C352 O341 1.226 . S
C352 O342 1.307 . S
C353 O345 1.303 . S
C353 O346 1.247 1_566 S
C354 O343 1.253 1_565 S
C354 O344 1.283 . S
C355 O347 1.304 . S
C355 O349 1.272 . S
C356 O348 1.311 . S
C356 O350 1.231 . S
O357 Zn339 1.953 . S
O357 C351 1.298 1_554 S
O358 Zn359 1.953 . S
O358 C374 1.225 . S
Zn359 O358 1.953 . S
Zn359 O360 1.949 . S
Zn359 O366 1.919 . S
Zn359 O371 1.924 . S
O360 Zn359 1.949 . S
O360 Zn361 1.923 . S
O360 Zn362 1.950 . S
O360 Zn363 1.945 . S
Zn361 O360 1.923 . S
Zn361 O364 1.933 . S
Zn361 O367 1.941 . S
Zn361 O368 1.965 . S
Zn362 O360 1.950 . S
Zn362 O369 1.938 . S
Zn362 O370 1.906 . S
Zn362 O380 1.953 . S
Zn363 O360 1.945 . S
Zn363 O365 1.932 . S
Zn363 O372 1.977 . S
Zn363 O373 1.910 . S
O364 Zn361 1.933 . S
O364 C375 1.226 . S
O365 Zn363 1.932 . S
O365 C375 1.307 . S
O366 Zn359 1.919 . S
O366 C377 1.253 . S
O367 Zn361 1.941 . S
O367 C377 1.283 . S
O368 Zn361 1.965 . S
O368 C376 1.303 . S
O369 Zn362 1.938 . S
O369 C376 1.247 . S
O370 Zn362 1.906 . S
O370 C378 1.304 . S
O371 Zn359 1.924 . S
O371 C379 1.311 . S
O372 Zn363 1.977 . S
O372 C378 1.272 . S
O373 Zn363 1.910 . S
O373 C379 1.231 . S
C374 O358 1.225 . S
C374 O380 1.298 . S
C375 O364 1.226 . S
C375 O365 1.307 . S
C376 O368 1.303 . S
C376 O369 1.247 . S
C377 O366 1.253 . S
C377 O367 1.283 . S
C378 O370 1.304 . S
C378 O372 1.272 . S
C379 O371 1.311 . S
C379 O373 1.231 . S
O380 Zn362 1.953 . S
O380 C374 1.298 . S
O381 Zn382 1.953 . S
O381 C397 1.225 . S
Zn382 O381 1.953 . S
Zn382 O383 1.949 1_655 S
Zn382 O389 1.919 . S
Zn382 O394 1.924 . S
O383 Zn382 1.949 1_455 S
O383 Zn384 1.923 1_454 S
O383 Zn385 1.950 . S
O383 Zn386 1.945 1_554 S
Zn384 O383 1.923 1_656 S
Zn384 O387 1.933 1_655 S
Zn384 O390 1.941 . S
Zn384 O391 1.965 . S
Zn385 O383 1.950 . S
Zn385 O392 1.938 . S
Zn385 O393 1.906 . S
Zn385 O403 1.953 . S
Zn386 O383 1.945 1_556 S
Zn386 O388 1.932 . S
Zn386 O395 1.977 1_556 S
Zn386 O396 1.910 1_556 S
O387 Zn384 1.933 1_455 S
O387 C398 1.226 . S
O388 Zn386 1.932 . S
O388 C398 1.307 . S
O389 Zn382 1.919 . S
O389 C400 1.253 1_554 S
O390 Zn384 1.941 . S
O390 C400 1.283 . S
O391 Zn384 1.965 . S
O391 C399 1.303 . S
O392 Zn385 1.938 . S
O392 C399 1.247 1_454 S
O393 Zn385 1.906 . S
O393 C401 1.304 . S
O394 Zn382 1.924 . S
O394 C402 1.311 1_655 S
O395 Zn386 1.977 1_554 S
O395 C401 1.272 . S
O396 Zn386 1.910 1_554 S
O396 C402 1.231 . S
C397 O381 1.225 . S
C397 O403 1.298 1_655 S
C398 O387 1.226 . S
C398 O388 1.307 . S
C399 O391 1.303 . S
C399 O392 1.247 1_656 S
C400 O389 1.253 1_556 S
C400 O390 1.283 . S
C401 O393 1.304 . S
C401 O395 1.272 . S
C402 O394 1.311 1_455 S
C402 O396 1.231 . S
O403 Zn385 1.953 . S
O403 C397 1.298 1_455 S
C404 C405 1.363 . S
C404 C410 1.379 . S
C404 N412 1.356 . S
C405 C404 1.363 . S
C405 C411 1.363 . S
C406 C407 1.363 . S
C406 C411 1.379 . S
C406 N413 1.356 . S
C407 C406 1.363 . S
C407 C410 1.363 . S
N408 C410 1.356 1_655 S
N408 H420 0.984 . S
N408 H421 0.985 . S
N409 C411 1.356 . S
N409 H414 0.984 . S
N409 H415 0.985 . S
C410 C404 1.379 . S
C410 C407 1.363 . S
C410 N408 1.356 1_455 S
C411 C405 1.363 . S
C411 C406 1.379 . S
C411 N409 1.356 . S
N412 C404 1.356 . S
N412 H418 0.984 1_455 S
N412 H419 0.984 . S
N413 C406 1.356 . S
N413 H416 0.984 . S
N413 H417 0.985 . S
H414 N409 0.984 . S
H415 N409 0.985 . S
H416 N413 0.984 . S
H417 N413 0.985 . S
H418 N412 0.984 1_655 S
H419 N412 0.984 . S
H420 N408 0.984 . S
H421 N408 0.985 . S
C422 C423 1.363 . S
C422 C428 1.379 . S
C422 N430 1.356 . S
C423 C422 1.363 . S
C423 C429 1.363 . S
C424 C425 1.363 . S
C424 C429 1.379 . S
C424 N431 1.356 . S
C425 C424 1.363 . S
C425 C428 1.363 . S
N426 C428 1.356 . S
N426 H438 0.984 . S
N426 H439 0.985 . S
N427 C429 1.356 . S
N427 H432 0.984 . S
N427 H433 0.985 . S
C428 C422 1.379 . S
C428 C425 1.363 . S
C428 N426 1.356 . S
C429 C423 1.363 . S
C429 C424 1.379 . S
C429 N427 1.356 . S
N430 C422 1.356 . S
N430 H436 0.984 . S
N430 H437 0.984 . S
N431 C424 1.356 . S
N431 H434 0.984 . S
N431 H435 0.985 1_565 S
H432 N427 0.984 . S
H433 N427 0.985 . S
H434 N431 0.984 . S
H435 N431 0.985 1_545 S
H436 N430 0.984 . S
H437 N430 0.984 . S
H438 N426 0.984 . S
H439 N426 0.985 . S
C440 C441 1.363 . S
C440 C446 1.379 . S
C440 N448 1.356 . S
C441 C440 1.363 . S
C441 C447 1.363 . S
C442 C443 1.363 . S
C442 C447 1.379 . S
C442 N449 1.356 . S
C443 C442 1.363 . S
C443 C446 1.363 . S
N444 C446 1.356 . S
N444 H456 0.984 . S
N444 H457 0.985 . S
N445 C447 1.356 . S
N445 H450 0.984 . S
N445 H451 0.985 . S
C446 C440 1.379 . S
C446 C443 1.363 . S
C446 N444 1.356 . S
C447 C441 1.363 . S
C447 C442 1.379 . S
C447 N445 1.356 . S
N448 C440 1.356 . S
N448 H454 0.984 . S
N448 H455 0.984 . S
N449 C442 1.356 . S
N449 H452 0.984 . S
N449 H453 0.985 . S
H450 N445 0.984 . S
H451 N445 0.985 . S
H452 N449 0.984 . S
H453 N449 0.985 . S
H454 N448 0.984 . S
H455 N448 0.984 . S
H456 N444 0.984 . S
H457 N444 0.985 . S
C458 C459 1.363 . S
C458 C464 1.379 . S
C458 N466 1.356 . S
C459 C458 1.363 . S
C459 C465 1.363 . S
C460 C461 1.363 . S
C460 C465 1.379 . S
C460 N467 1.356 . S
C461 C460 1.363 . S
C461 C464 1.363 . S
N462 C464 1.356 1_455 S
N462 H474 0.984 . S
N462 H475 0.987 . S
N463 C465 1.356 . S
N463 H468 0.984 . S
N463 H469 0.985 . S
C464 C458 1.379 . S
C464 C461 1.363 . S
C464 N462 1.356 1_655 S
C465 C459 1.363 . S
C465 C460 1.379 . S
C465 N463 1.356 . S
N466 C458 1.356 . S
N466 H472 0.984 1_655 S
N466 H473 0.984 . S
N467 C460 1.356 . S
N467 H470 0.984 . S
N467 H471 0.985 . S
H468 N463 0.984 . S
H469 N463 0.985 . S
H470 N467 0.984 . S
H471 N467 0.985 . S
H472 N466 0.984 1_455 S
H473 N466 0.984 . S
H474 N462 0.984 . S
H475 N462 0.987 . S
C476 C477 1.363 . S
C476 C482 1.379 . S
C476 N484 1.356 . S
C477 C476 1.363 . S
C477 C483 1.363 . S
C478 C479 1.363 . S
C478 C483 1.379 . S
C478 N485 1.356 1_554 S
C479 C478 1.363 . S
C479 C482 1.363 . S
N480 C482 1.356 . S
N480 H492 0.984 . S
N480 H493 0.985 . S
N481 C483 1.356 . S
N481 H486 0.984 . S
N481 H487 0.985 1_554 S
C482 C476 1.379 . S
C482 C479 1.363 . S
C482 N480 1.356 . S
C483 C477 1.363 . S
C483 C478 1.379 . S
C483 N481 1.356 . S
N484 C476 1.356 . S
N484 H490 0.984 . S
N484 H491 0.984 . S
N485 C478 1.356 1_556 S
N485 H488 0.984 . S
N485 H489 0.985 . S
H486 N481 0.984 . S
H487 N481 0.985 1_556 S
H488 N485 0.984 . S
H489 N485 0.985 . S
H490 N484 0.984 . S
H491 N484 0.984 . S
H492 N480 0.984 . S
H493 N480 0.985 . S
C494 C495 1.363 . S
C494 C500 1.379 . S
C494 N502 1.356 . S
C495 C494 1.363 . S
C495 C501 1.363 . S
C496 C497 1.363 . S
C496 C501 1.379 . S
C496 N503 1.356 . S
C497 C496 1.363 . S
C497 C500 1.363 . S
N498 C500 1.356 . S
N498 H510 0.984 1_565 S
N498 H511 0.985 . S
N499 C501 1.356 . S
N499 H504 0.984 . S
N499 H505 0.985 . S
C500 C494 1.379 . S
C500 C497 1.363 . S
C500 N498 1.356 . S
C501 C495 1.363 . S
C501 C496 1.379 . S
C501 N499 1.356 . S
N502 C494 1.356 . S
N502 H508 0.984 1_565 S
N502 H509 0.984 . S
N503 C496 1.356 . S
N503 H506 0.984 . S
N503 H507 0.985 . S
H504 N499 0.984 . S
H505 N499 0.985 . S
H506 N503 0.984 . S
H507 N503 0.985 . S
H508 N502 0.984 1_545 S
H509 N502 0.984 . S
H510 N498 0.984 1_545 S
H511 N498 0.985 . S
C512 C513 1.363 . S
C512 C518 1.379 . S
C512 N520 1.356 . S
C513 C512 1.363 . S
C513 C519 1.363 . S
C514 C515 1.363 . S
C514 C519 1.379 . S
C514 N521 1.356 . S
C515 C514 1.363 . S
C515 C518 1.363 . S
N516 C518 1.356 . S
N516 H528 0.984 1_556 S
N516 H529 0.985 . S
N517 C519 1.356 . S
N517 H522 0.984 . S
N517 H523 0.985 . S
C518 C512 1.379 . S
C518 C515 1.363 . S
C518 N516 1.356 . S
C519 C513 1.363 . S
C519 C514 1.379 . S
C519 N517 1.356 . S
N520 C512 1.356 . S
N520 H526 0.984 1_556 S
N520 H527 0.984 . S
N521 C514 1.356 . S
N521 H524 0.984 . S
N521 H525 0.985 . S
H522 N517 0.984 . S
H523 N517 0.985 . S
H524 N521 0.984 . S
H525 N521 0.985 . S
H526 N520 0.984 1_554 S
H527 N520 0.984 . S
H528 N516 0.984 1_554 S
H529 N516 0.985 . S
C530 C531 1.363 . S
C530 C536 1.379 . S
C530 N538 1.356 . S
C531 C530 1.363 . S
C531 C537 1.363 . S
C532 C533 1.363 . S
C532 C537 1.379 . S
C532 N539 1.356 . S
C533 C532 1.363 . S
C533 C536 1.363 . S
N534 C536 1.356 . S
N534 H546 0.984 . S
N534 H547 0.985 . S
N535 C537 1.356 . S
N535 H540 0.984 . S
N535 H541 0.985 . S
C536 C530 1.379 . S
C536 C533 1.363 . S
C536 N534 1.356 . S
C537 C531 1.363 . S
C537 C532 1.379 . S
C537 N535 1.356 . S
N538 C530 1.356 . S
N538 H544 0.984 . S
N538 H545 0.984 . S
N539 C532 1.356 . S
N539 H542 0.984 . S
N539 H543 0.985 . S
H540 N535 0.984 . S
H541 N535 0.985 . S
H542 N539 0.984 . S
H543 N539 0.985 . S
H544 N538 0.984 . S
H545 N538 0.984 . S
H546 N534 0.984 . S
H547 N534 0.985 . S
C548 C549 1.363 . S
C548 C554 1.379 . S
C548 N556 1.356 . S
C549 C548 1.363 . S
C549 C555 1.363 . S
C550 C551 1.363 . S
C550 C555 1.379 . S
C550 N557 1.356 . S
C551 C550 1.363 . S
C551 C554 1.363 . S
N552 C554 1.356 . S
N552 H564 0.984 1_554 S
N552 H565 0.985 . S
N553 C555 1.356 . S
N553 H558 0.984 . S
N553 H559 0.985 . S
C554 C548 1.379 . S
C554 C551 1.363 . S
C554 N552 1.356 . S
C555 C549 1.363 . S
C555 C550 1.379 . S
C555 N553 1.356 . S
N556 C548 1.356 . S
N556 H562 0.984 . S
N556 H563 0.984 . S
N557 C550 1.356 . S
N557 H560 0.986 . S
N557 H561 0.985 1_455 S
H558 N553 0.984 . S
H559 N553 0.985 . S
H560 N557 0.986 . S
H561 N557 0.985 1_655 S
H562 N556 0.984 . S
H563 N556 0.984 . S
H564 N552 0.984 1_556 S
H565 N552 0.985 . S
C566 C567 1.363 . S
C566 C572 1.379 1_556 S
C566 N574 1.356 1_556 S
C567 C566 1.363 . S
C567 C573 1.363 . S
C568 C569 1.363 . S
C568 C573 1.379 . S
C568 N575 1.356 . S
C569 C568 1.363 . S
C569 C572 1.363 1_556 S
N570 C572 1.356 . S
N570 H582 0.984 . S
N570 H583 0.985 . S
N571 C573 1.356 . S
N571 H576 0.984 . S
N571 H577 0.985 . S
C572 C566 1.379 1_554 S
C572 C569 1.363 1_554 S
C572 N570 1.356 . S
C573 C567 1.363 . S
C573 C568 1.379 . S
C573 N571 1.356 . S
N574 C566 1.356 1_554 S
N574 H580 0.984 . S
N574 H581 0.984 . S
N575 C568 1.356 . S
N575 H578 0.984 . S
N575 H579 0.985 . S
H576 N571 0.984 . S
H577 N571 0.985 . S
H578 N575 0.984 . S
H579 N575 0.985 . S
H580 N574 0.984 . S
H581 N574 0.984 . S
H582 N570 0.984 . S
H583 N570 0.985 . S
C584 C585 1.363 . S
C584 C590 1.379 . S
C584 N592 1.356 . S
C585 C584 1.363 . S
C585 C591 1.363 . S
C586 C587 1.363 . S
C586 C591 1.379 . S
C586 N593 1.356 1_655 S
C587 C586 1.363 . S
C587 C590 1.363 . S
N588 C590 1.356 . S
N588 H600 0.984 . S
N588 H601 0.985 . S
N589 C591 1.356 . S
N589 H594 0.984 . S
N589 H595 0.985 1_655 S
C590 C584 1.379 . S
C590 C587 1.363 . S
C590 N588 1.356 . S
C591 C585 1.363 . S
C591 C586 1.379 . S
C591 N589 1.356 . S
N592 C584 1.356 . S
N592 H598 0.984 . S
N592 H599 0.984 . S
N593 C586 1.356 1_455 S
N593 H596 0.984 . S
N593 H597 0.985 . S
H594 N589 0.984 . S
H595 N589 0.985 1_455 S
H596 N593 0.984 . S
H597 N593 0.985 . S
H598 N592 0.984 . S
H599 N592 0.984 . S
H600 N588 0.984 . S
H601 N588 0.985 . S
C602 C603 1.363 . S
C602 C608 1.379 . S
C602 N610 1.356 . S
C603 C602 1.363 . S
C603 C609 1.363 . S
C604 C605 1.363 . S
C604 C609 1.379 . S
C604 N611 1.356 . S
C605 C604 1.363 . S
C605 C608 1.363 . S
N606 C608 1.356 . S
N606 H618 0.984 . S
N606 H619 0.985 . S
N607 C609 1.356 . S
N607 H612 0.984 . S
N607 H613 0.985 . S
C608 C602 1.379 . S
C608 C605 1.363 . S
C608 N606 1.356 . S
C609 C603 1.363 . S
C609 C604 1.379 . S
C609 N607 1.356 . S
N610 C602 1.356 . S
N610 H616 0.984 . S
N610 H617 0.984 . S
N611 C604 1.356 . S
N611 H614 0.984 . S
N611 H615 0.985 . S
H612 N607 0.984 . S
H613 N607 0.985 . S
H614 N611 0.984 . S
H615 N611 0.985 . S
H616 N610 0.984 . S
H617 N610 0.984 . S
H618 N606 0.984 . S
H619 N606 0.985 . S
C620 C621 1.363 1_565 S
C620 C626 1.379 . S
C620 N628 1.356 1_655 S
C621 C620 1.363 1_545 S
C621 C627 1.363 . S
C622 C623 1.363 . S
C622 C627 1.379 . S
C622 N629 1.356 . S
C623 C622 1.363 . S
C623 C626 1.363 1_545 S
N624 C626 1.356 1_455 S
N624 H636 0.984 . S
N624 H637 0.985 . S
N625 C627 1.356 . S
N625 H630 0.984 . S
N625 H631 0.985 . S
C626 C620 1.379 . S
C626 C623 1.363 1_565 S
C626 N624 1.356 1_655 S
C627 C621 1.363 . S
C627 C622 1.379 . S
C627 N625 1.356 . S
N628 C620 1.356 1_455 S
N628 H634 0.984 . S
N628 H635 0.984 1_455 S
N629 C622 1.356 . S
N629 H632 0.984 . S
N629 H633 0.985 . S
H630 N625 0.984 . S
H631 N625 0.985 . S
H632 N629 0.984 . S
H633 N629 0.985 . S
H634 N628 0.984 . S
H635 N628 0.984 1_655 S
H636 N624 0.984 . S
H637 N624 0.985 . S
C638 C639 1.363 1_565 S
C638 C644 1.379 . S
C638 N646 1.356 . S
C639 C638 1.363 1_545 S
C639 C645 1.363 . S
C640 C641 1.363 . S
C640 C645 1.379 . S
C640 N647 1.356 . S
C641 C640 1.363 . S
C641 C644 1.363 1_545 S
N642 C644 1.356 . S
N642 H654 0.984 . S
N642 H655 0.985 . S
N643 C645 1.356 . S
N643 H648 0.984 . S
N643 H649 0.985 . S
C644 C638 1.379 . S
C644 C641 1.363 1_565 S
C644 N642 1.356 . S
C645 C639 1.363 . S
C645 C640 1.379 . S
C645 N643 1.356 . S
N646 C638 1.356 . S
N646 H652 0.984 . S
N646 H653 0.984 . S
N647 C640 1.356 . S
N647 H650 0.984 . S
N647 H651 0.985 . S
H648 N643 0.984 . S
H649 N643 0.985 . S
H650 N647 0.984 . S
H651 N647 0.985 . S
H652 N646 0.984 . S
H653 N646 0.984 . S
H654 N642 0.984 . S
H655 N642 0.985 . S
C656 C657 1.363 . S
C656 C662 1.379 . S
C656 N664 1.356 . S
C657 C656 1.363 . S
C657 C663 1.363 . S
C658 C659 1.363 . S
C658 C663 1.379 . S
C658 N665 1.356 . S
C659 C658 1.363 . S
C659 C662 1.363 . S
N660 C662 1.356 . S
N660 H672 0.984 . S
N660 H673 0.985 . S
N661 C663 1.356 . S
N661 H666 0.984 . S
N661 H667 0.985 . S
C662 C656 1.379 . S
C662 C659 1.363 . S
C662 N660 1.356 . S
C663 C657 1.363 . S
C663 C658 1.379 . S
C663 N661 1.356 . S
N664 C656 1.356 . S
N664 H670 0.984 . S
N664 H671 0.984 . S
N665 C658 1.356 . S
N665 H668 0.984 . S
N665 H669 0.985 . S
H666 N661 0.984 . S
H667 N661 0.985 . S
H668 N665 0.984 . S
H669 N665 0.985 . S
H670 N664 0.984 . S
H671 N664 0.984 . S
H672 N660 0.984 . S
H673 N660 0.985 . S
C674 C675 1.363 . S
C674 C680 1.379 . S
C674 N682 1.356 . S
C675 C674 1.363 . S
C675 C681 1.363 . S
C676 C677 1.363 . S
C676 C681 1.379 . S
C676 N683 1.356 . S
C677 C676 1.363 . S
C677 C680 1.363 . S
N678 C680 1.356 . S
N678 H690 0.984 . S
N678 H691 0.985 . S
N679 C681 1.356 . S
N679 H684 0.984 . S
N679 H685 0.985 . S
C680 C674 1.379 . S
C680 C677 1.363 . S
C680 N678 1.356 . S
C681 C675 1.363 . S
C681 C676 1.379 . S
C681 N679 1.356 . S
N682 C674 1.356 . S
N682 H688 0.989 . S
N682 H689 0.984 . S
N683 C676 1.356 . S
N683 H686 0.984 . S
N683 H687 0.985 . S
H684 N679 0.984 . S
H685 N679 0.985 . S
H686 N683 0.984 . S
H687 N683 0.985 . S
H688 N682 0.989 . S
H689 N682 0.984 . S
H690 N678 0.984 . S
H691 N678 0.985 . S
C692 C693 1.357 1_565 S
C692 C698 1.379 . S
C692 N700 1.356 . S
C693 C692 1.357 1_545 S
C693 C699 1.369 . S
C694 C695 1.363 1_545 S
C694 C699 1.379 . S
C694 N701 1.356 1_556 S
C695 C694 1.363 1_565 S
C695 C698 1.363 . S
N696 C698 1.356 . S
N696 H708 0.984 . S
N696 H709 0.985 . S
N697 C699 1.356 1_554 S
N697 H702 0.984 . S
N697 H703 0.985 . S
C698 C692 1.379 . S
C698 C695 1.363 . S
C698 N696 1.356 . S
C699 C693 1.369 . S
C699 C694 1.379 . S
C699 N697 1.356 1_556 S
N700 C692 1.356 . S
N700 H706 0.984 . S
N700 H707 0.984 . S
N701 C694 1.356 1_554 S
N701 H704 0.985 . S
N701 H705 0.985 . S
H702 N697 0.984 . S
H703 N697 0.985 . S
H704 N701 0.985 . S
H705 N701 0.985 . S
H706 N700 0.984 . S
H707 N700 0.984 . S
H708 N696 0.984 . S
H709 N696 0.985 . S
C710 C711 1.363 . S
C710 C716 1.379 . S
C710 N718 1.356 . S
C711 C710 1.363 . S
C711 C717 1.363 . S
C712 C713 1.363 . S
C712 C717 1.379 . S
C712 N719 1.356 1_545 S
C713 C712 1.363 . S
C713 C716 1.363 . S
N714 C716 1.356 . S
N714 H726 0.984 . S
N714 H727 0.985 . S
N715 C717 1.356 1_565 S
N715 H720 0.984 . S
N715 H721 0.985 . S
C716 C710 1.379 . S
C716 C713 1.363 . S
C716 N714 1.356 . S
C717 C711 1.363 . S
C717 C712 1.379 . S
C717 N715 1.356 1_545 S
N718 C710 1.356 . S
N718 H724 0.984 . S
N718 H725 0.984 . S
N719 C712 1.356 1_565 S
N719 H722 0.984 1_565 S
N719 H723 0.985 . S
H720 N715 0.984 . S
H721 N715 0.985 . S
H722 N719 0.984 1_545 S
H723 N719 0.985 . S
H724 N718 0.984 . S
H725 N718 0.984 . S
H726 N714 0.984 . S
H727 N714 0.985 . S
C728 C729 1.363 . S
C728 C734 1.379 . S
C728 N736 1.356 . S
C729 C728 1.363 . S
C729 C735 1.363 1_554 S
C730 C731 1.363 1_556 S
C730 C735 1.379 . S
C730 N737 1.356 . S
C731 C730 1.363 1_554 S
C731 C734 1.363 . S
N732 C734 1.356 . S
N732 H744 0.984 . S
N732 H745 0.985 . S
N733 C735 1.356 . S
N733 H738 0.984 . S
N733 H739 0.985 . S
C734 C728 1.379 . S
C734 C731 1.363 . S
C734 N732 1.356 . S
C735 C729 1.363 1_556 S
C735 C730 1.379 . S
C735 N733 1.356 . S
N736 C728 1.356 . S
N736 H742 0.984 . S
N736 H743 0.984 . S
N737 C730 1.356 . S
N737 H740 0.984 . S
N737 H741 0.985 . S
H738 N733 0.984 . S
H739 N733 0.985 . S
H740 N737 0.984 . S
H741 N737 0.985 . S
H742 N736 0.984 . S
H743 N736 0.984 . S
H744 N732 0.984 . S
H745 N732 0.985 . S
C746 C747 1.363 . S
C746 C752 1.379 . S
C746 N754 1.356 . S
C747 C746 1.363 . S
C747 C753 1.363 . S
C748 C749 1.363 . S
C748 C753 1.379 . S
C748 N755 1.356 . S
C749 C748 1.363 . S
C749 C752 1.363 . S
N750 C752 1.356 . S
N750 H762 0.984 . S
N750 H763 0.985 . S
N751 C753 1.356 . S
N751 H756 0.984 . S
N751 H757 0.985 . S
C752 C746 1.379 . S
C752 C749 1.363 . S
C752 N750 1.356 . S
C753 C747 1.363 . S
C753 C748 1.379 . S
C753 N751 1.356 . S
N754 C746 1.356 . S
N754 H760 0.984 . S
N754 H761 0.984 . S
N755 C748 1.356 . S
N755 H758 0.984 . S
N755 H759 0.985 . S
H756 N751 0.984 . S
H757 N751 0.985 . S
H758 N755 0.984 . S
H759 N755 0.985 . S
H760 N754 0.984 . S
H761 N754 0.984 . S
H762 N750 0.984 . S
H763 N750 0.985 . S
C764 C765 1.363 1_554 S
C764 C770 1.379 . S
C764 N772 1.356 1_655 S
C765 C764 1.363 1_556 S
C765 C771 1.363 . S
C766 C767 1.363 . S
C766 C771 1.379 . S
C766 N773 1.356 . S
C767 C766 1.363 . S
C767 C770 1.363 1_556 S
N768 C770 1.356 1_455 S
N768 H780 0.984 . S
N768 H781 0.985 . S
N769 C771 1.356 . S
N769 H774 0.984 . S
N769 H775 0.985 . S
C770 C764 1.379 . S
C770 C767 1.363 1_554 S
C770 N768 1.356 1_655 S
C771 C765 1.363 . S
C771 C766 1.379 . S
C771 N769 1.356 . S
N772 C764 1.356 1_455 S
N772 H778 0.984 . S
N772 H779 0.984 . S
N773 C766 1.356 . S
N773 H776 0.984 . S
N773 H777 0.985 . S
H774 N769 0.984 . S
H775 N769 0.985 . S
H776 N773 0.984 . S
H777 N773 0.985 . S
H778 N772 0.984 . S
H779 N772 0.984 . S
H780 N768 0.984 . S
H781 N768 0.985 . S
C782 C783 1.363 . S
C782 C788 1.379 . S
C782 N790 1.356 . S
C783 C782 1.363 . S
C783 C789 1.363 . S
C784 C785 1.363 . S
C784 C789 1.379 . S
C784 N791 1.365 . S
C785 C784 1.363 . S
C785 C788 1.363 . S
N786 C788 1.356 . S
N786 H798 0.984 . S
N786 H799 0.985 . S
N787 C789 1.356 1_556 S
N787 H792 0.984 . S
N787 H793 0.985 . S
C788 C782 1.379 . S
C788 C785 1.363 . S
C788 N786 1.356 . S
C789 C783 1.363 . S
C789 C784 1.379 . S
C789 N787 1.356 1_554 S
N790 C782 1.356 . S
N790 H796 0.984 . S
N790 H797 0.984 . S
N791 C784 1.365 . S
N791 H794 0.990 . S
N791 H795 0.971 1_554 S
H792 N787 0.984 . S
H793 N787 0.985 . S
H794 N791 0.990 . S
H795 N791 0.971 1_556 S
H796 N790 0.984 . S
H797 N790 0.984 . S
H798 N786 0.984 . S
H799 N786 0.985 . S
C800 C801 1.363 . S
C800 C806 1.379 . S
C800 N808 1.356 . S
C801 C800 1.363 . S
C801 C807 1.363 . S
C802 C803 1.363 . S
C802 C807 1.379 . S
C802 N809 1.356 . S
C803 C802 1.363 . S
C803 C806 1.363 . S
N804 C806 1.366 . S
N804 H816 0.972 1_455 S
N804 H817 0.988 . S
N805 C807 1.356 . S
N805 H810 0.984 . S
N805 H811 0.985 . S
C806 C800 1.379 . S
C806 C803 1.363 . S
C806 N804 1.366 . S
C807 C801 1.363 . S
C807 C802 1.379 . S
C807 N805 1.356 . S
N808 C800 1.356 . S
N808 H814 0.984 1_455 S
N808 H815 0.984 . S
N809 C802 1.356 . S
N809 H812 0.984 . S
N809 H813 0.985 . S
H810 N805 0.984 . S
H811 N805 0.985 . S
H812 N809 0.984 . S
H813 N809 0.985 . S
H814 N808 0.984 1_655 S
H815 N808 0.984 . S
H816 N804 0.972 1_655 S
H817 N804 0.988 . S
C818 C819 1.363 . S
C818 C824 1.379 . S
C818 N826 1.356 . S
C819 C818 1.363 . S
C819 C825 1.363 . S
C820 C821 1.363 . S
C820 C825 1.379 . S
C820 N827 1.356 . S
C821 C820 1.363 . S
C821 C824 1.363 . S
N822 C824 1.356 . S
N822 H834 0.984 . S
N822 H835 0.985 . S
N823 C825 1.356 . S
N823 H828 0.984 . S
N823 H829 0.985 . S
C824 C818 1.379 . S
C824 C821 1.363 . S
C824 N822 1.356 . S
C825 C819 1.363 . S
C825 C820 1.379 . S
C825 N823 1.356 . S
N826 C818 1.356 . S
N826 H832 0.984 . S
N826 H833 0.984 . S
N827 C820 1.356 . S
N827 H830 0.984 . S
N827 H831 0.985 . S
H828 N823 0.984 . S
H829 N823 0.985 . S
H830 N827 0.984 . S
H831 N827 0.985 . S
H832 N826 0.984 . S
H833 N826 0.984 . S
H834 N822 0.984 . S
H835 N822 0.985 . S
C405 C1 1.617 . S
C407 C330 1.603 . S
C423 C40 1.601 . S
C425 C354 1.567 . S
C443 C374 1.502 . S
C441 C99 1.482 . S
C459 C118 1.478 . S
C461 C397 1.508 . S
C479 C356 1.647 . S
C477 C16 1.698 . S
C497 C332 1.636 . S
C495 C60 1.676 . S
C515 C400 1.607 . S
C513 C79 1.669 . S
C533 C377 1.570 . S
C531 C138 1.620 . S
C549 C21 1.453 . S
C551 C402 1.402 . S
C569 C351 1.668 . S
C567 C94 1.640 . S
C585 C133 1.617 . S
C587 C329 1.640 . S
C603 C55 1.447 . S
C605 C379 1.399 . S
C623 C333 1.791 1_545 S
C621 C157 1.714 1_545 S
C639 C196 1.684 . S
C641 C355 1.718 . S
C657 C255 1.777 . S
C659 C375 1.831 . S
C675 C289 1.790 . S
C677 C398 1.833 . S
C693 C172 1.682 1_545 S
C695 C353 1.679 . S
C713 C331 1.753 . S
C711 C216 1.680 . S
C731 C401 1.591 . S
C729 C235 1.596 . S
C749 C378 1.592 . S
C747 C294 1.590 . S
C765 C177 1.896 . S
C767 C399 1.894 . S
C785 C352 1.697 . S
C783 C250 1.657 . S
C803 C328 1.688 . S
C801 C274 1.640 . S
C819 C211 1.880 . S
C821 C376 1.873 . S
