# Generated by pormake.
# Topology nom, (4,4)-cn, num edge types: 1
# Building blocks:
#     Node 0, Type 0, BuildingBlock: KUFVIS_clean_linker_0, # of connection points: 4
#     Node 1, Type 0, BuildingBlock: KUFVIS_clean_linker_0, # of connection points: 4
#     Node 2, Type 0, BuildingBlock: KUFVIS_clean_linker_0, # of connection points: 4
#     Node 3, Type 0, BuildingBlock: KUFVIS_clean_linker_0, # of connection points: 4
#     Node 4, Type 0, BuildingBlock: KUFVIS_clean_linker_0, # of connection points: 4
#     Node 5, Type 0, BuildingBlock: KUFVIS_clean_linker_0, # of connection points: 4
#     Node 6, Type 1, BuildingBlock: KUFVIS_clean_sbu_0, # of connection points: 4
#     Node 7, Type 1, BuildingBlock: KUFVIS_clean_sbu_0, # of connection points: 4
#     Node 8, Type 1, BuildingBlock: KUFVIS_clean_sbu_0, # of connection points: 4
#     Node 9, Type 1, BuildingBlock: KUFVIS_clean_sbu_0, # of connection points: 4
#     Node 10, Type 1, BuildingBlock: KUFVIS_clean_sbu_0, # of connection points: 4
#     Node 11, Type 1, BuildingBlock: KUFVIS_clean_sbu_0, # of connection points: 4
#     Edge 12, Type (0, 1), BuildingBlock: CIFDUS_clean_linker_0, # of connection points: 2
#     Edge 13, Type (0, 1), BuildingBlock: CIFDUS_clean_linker_0, # of connection points: 2
#     Edge 14, Type (0, 1), BuildingBlock: CIFDUS_clean_linker_0, # of connection points: 2
#     Edge 15, Type (0, 1), BuildingBlock: CIFDUS_clean_linker_0, # of connection points: 2
#     Edge 16, Type (0, 1), BuildingBlock: CIFDUS_clean_linker_0, # of connection points: 2
#     Edge 17, Type (0, 1), BuildingBlock: CIFDUS_clean_linker_0, # of connection points: 2
#     Edge 18, Type (0, 1), BuildingBlock: CIFDUS_clean_linker_0, # of connection points: 2
#     Edge 19, Type (0, 1), BuildingBlock: CIFDUS_clean_linker_0, # of connection points: 2
#     Edge 20, Type (0, 1), BuildingBlock: CIFDUS_clean_linker_0, # of connection points: 2
#     Edge 21, Type (0, 1), BuildingBlock: CIFDUS_clean_linker_0, # of connection points: 2
#     Edge 22, Type (0, 1), BuildingBlock: CIFDUS_clean_linker_0, # of connection points: 2
#     Edge 23, Type (0, 1), BuildingBlock: CIFDUS_clean_linker_0, # of connection points: 2
#     Edge 24, Type (0, 1), BuildingBlock: CIFDUS_clean_linker_0, # of connection points: 2
#     Edge 25, Type (0, 1), BuildingBlock: CIFDUS_clean_linker_0, # of connection points: 2
#     Edge 26, Type (0, 1), BuildingBlock: CIFDUS_clean_linker_0, # of connection points: 2
#     Edge 27, Type (0, 1), BuildingBlock: CIFDUS_clean_linker_0, # of connection points: 2
#     Edge 28, Type (0, 1), BuildingBlock: CIFDUS_clean_linker_0, # of connection points: 2
#     Edge 29, Type (0, 1), BuildingBlock: CIFDUS_clean_linker_0, # of connection points: 2
#     Edge 30, Type (0, 1), BuildingBlock: CIFDUS_clean_linker_0, # of connection points: 2
#     Edge 31, Type (0, 1), BuildingBlock: CIFDUS_clean_linker_0, # of connection points: 2
#     Edge 32, Type (0, 1), BuildingBlock: CIFDUS_clean_linker_0, # of connection points: 2
#     Edge 33, Type (0, 1), BuildingBlock: CIFDUS_clean_linker_0, # of connection points: 2
#     Edge 34, Type (0, 1), BuildingBlock: CIFDUS_clean_linker_0, # of connection points: 2
#     Edge 35, Type (0, 1), BuildingBlock: CIFDUS_clean_linker_0, # of connection points: 2
# Relax obj value: 0.004
# Max RMSD: 0.053
# Mean RMSD: 0.039
data_MOF--net-nom--node1-KUFVIS_clean_sbu_0--node2-KUFVIS_clean_linker_0--edge1-CIFDUS_clean_linker_0
_symmetry_space_group_name_H-M    P1
_symmetry_Int_Tables_number       1
_symmetry_cell_setting            triclinic
loop_
_symmetry_equiv_pos_as_xyz
'x, y, z'
_cell_length_a     39.08657
_cell_length_b     39.470566
_cell_length_c     41.564694
_cell_angle_alpha  90.210442
_cell_angle_beta   90.719363
_cell_angle_gamma 120.05516
loop_
_atom_site_label
_atom_site_type_symbol
_atom_site_fract_x
_atom_site_fract_y
_atom_site_fract_z
_atom_type_partial_charge
H0 H 0.17977 0.6258 0.32654 0.0
H1 H 0.08455 0.59819 0.25972 0.0
H2 H 0.06095 0.54764 0.35501 0.0
H3 H 1.00488 0.55498 0.34594 0.0
H4 H 0.91099 0.48386 0.27929 0.0
H5 H 1.03096 0.53177 0.25002 0.0
C6 C 0.14836 0.61018 0.32077 0.0
C7 C 0.12192 0.58626 0.34398 0.0
C8 C 0.13549 0.61528 0.29063 0.0
C9 C 0.09468 0.59445 0.2831 0.0
C10 C 0.06703 0.5699 0.30636 0.0
C11 C 0.08125 0.56652 0.33696 0.0
C12 C 1.02357 0.5469 0.29877 0.0
C13 C 0.99525 0.54121 0.32244 0.0
C14 C 0.9544 0.51746 0.31583 0.0
C15 C 0.94231 0.50051 0.28524 0.0
C16 C 0.96944 0.50505 0.26172 0.0
C17 C 1.01007 0.5287 0.26826 0.0
H18 H 0.55517 0.17236 0.49154 0.0
H19 H 0.51506 0.08016 0.42174 0.0
H20 H 0.52255 0.05688 0.52272 0.0
H21 H 0.47124 0.99793 0.51089 0.0
H22 H 0.45328 0.90891 0.44295 0.0
H23 H 0.52285 0.02856 0.4159 0.0
C24 C 0.5442 0.1417 0.48606 0.0
C25 C 0.53953 0.11598 0.51088 0.0
C26 C 0.53687 0.12924 0.45401 0.0
C27 C 0.5217 0.08942 0.44666 0.0
C28 C 0.51475 0.0621 0.47148 0.0
C29 C 0.52475 0.07626 0.50351 0.0
C30 C 0.49842 1.01935 0.46408 0.0
C31 C 0.47687 0.99012 0.48737 0.0
C32 C 0.46252 0.9503 0.48028 0.0
C33 C 0.46715 0.93974 0.44933 0.0
C34 C 0.48929 0.96757 0.42642 0.0
C35 C 0.50497 1.00734 0.43373 0.0
H36 H 0.59391 0.46005 0.62359 0.0
H37 H 0.52678 0.48158 0.69177 0.0
H38 H 0.52361 0.50958 0.59181 0.0
H39 H 0.47355 0.5169 0.60635 0.0
H40 H 0.45842 0.58768 0.67693 0.0
H41 H 0.53016 0.53806 0.70063 0.0
C42 C 0.57291 0.46957 0.6282 0.0
C43 C 0.55705 0.48099 0.60272 0.0
C44 C 0.56128 0.46853 0.65997 0.0
C45 C 0.53622 0.48326 0.66719 0.0
C46 C 0.52457 0.50098 0.64305 0.0
C47 C 0.53388 0.49806 0.61066 0.0
C48 C 0.50484 0.52414 0.65202 0.0
C49 C 0.48054 0.53054 0.62995 0.0
C50 C 0.46491 0.55475 0.63842 0.0
C51 C 0.47227 0.57109 0.6694 0.0
C52 C 0.49487 0.56425 0.69174 0.0
C53 C 0.51159 0.54152 0.68299 0.0
H54 H 0.1689 0.5847 0.77083 0.0
H55 H 0.0924 0.52041 0.84842 0.0
H56 H 0.04414 0.52469 0.75535 0.0
H57 H 0.99412 0.46739 0.77293 0.0
H58 H 0.91468 0.45394 0.84845 0.0
H59 H 0.03906 0.52397 0.86555 0.0
C60 C 0.13964 0.56635 0.78029 0.0
C61 C 0.10713 0.55428 0.7595 0.0
C62 C 0.13514 0.55379 0.81227 0.0
C63 C 0.09646 0.53106 0.82404 0.0
C64 C 0.06297 0.52104 0.80406 0.0
C65 C 0.06894 0.53225 0.7715 0.0
C66 C 1.02192 0.49977 0.81704 0.0
C67 C 0.98927 0.47446 0.797 0.0
C68 C 0.9503 0.45745 0.80817 0.0
C69 C 0.94444 0.46602 0.83962 0.0
C70 C 0.97614 0.48833 0.86067 0.0
C71 C 1.01484 0.50556 0.8493 0.0
H72 H 0.47807 0.90618 -0.00071 0.0
H73 H 0.55085 0.98343 0.92504 0.0
H74 H 0.53318 0.02955 0.01422 0.0
H75 H 0.59602 0.07841 0.00173 0.0
H76 H 0.62111 0.16111 0.9262 0.0
H77 H 0.54537 0.03872 0.90631 0.0
C78 C 0.4963 0.9355 -0.00996 0.0
C79 C 0.50418 0.96722 0.00976 0.0
C80 C 0.51412 0.94066 0.96008 0.0
C81 C 0.53711 0.9791 0.94828 0.0
C82 C 0.54385 1.01192 0.96744 0.0
C83 C 0.52775 1.0053 -0.00143 0.0
C84 C 0.56748 0.0531 0.95558 0.0
C85 C 0.59194 0.08437 0.977 0.0
C86 C 0.61078 0.12356 0.96676 0.0
C87 C 0.60595 0.13119 0.93471 0.0
C88 C 0.58302 0.10084 0.91297 0.0
C89 C 0.56386 0.06186 0.92325 0.0
H90 H 0.48103 0.60662 0.12008 0.0
H91 H 0.57036 0.61769 0.18711 0.0
H92 H 0.5366 0.53837 0.10524 0.0
H93 H 0.60106 0.55125 0.11486 0.0
H94 H 0.63887 0.51115 0.19679 0.0
H95 H 0.56719 0.56276 0.21136 0.0
C96 C 0.50255 0.5986 0.12785 0.0
C97 C 0.50719 0.57173 0.10923 0.0
C98 C 0.5259 0.61657 0.15521 0.0
C99 C 0.55225 0.6042 0.1658 0.0
C100 C 0.55582 0.57501 0.14848 0.0
C101 C 0.53393 0.55996 0.11943 0.0
C102 C 0.58099 0.55921 0.16135 0.0
C103 C 0.60158 0.54713 0.14056 0.0
C104 C 0.62338 0.53026 0.15305 0.0
C105 C 0.62416 0.52575 0.18647 0.0
C106 C 0.60524 0.53857 0.20729 0.0
C107 C 0.58316 0.55462 0.19486 0.0
Mn108 Mn 0.6579 0.41275 0.39984 0.0
Mn109 Mn 0.71682 0.50159 0.43408 0.0
C110 C 0.63395 0.43616 0.43969 0.0
C111 C 0.63146 0.34491 0.39827 0.0
C112 C 0.67664 0.49049 0.36909 0.0
O113 O 0.71338 0.42521 0.38657 0.0
O114 O 0.74955 0.48359 0.41163 0.0
C115 C 0.75356 0.47488 0.48302 0.0
N116 N 0.73251 0.49285 0.47556 0.0
C117 C 0.72477 0.50272 0.53158 0.0
C118 C 0.74657 0.48453 0.53985 0.0
C119 C 0.76096 0.47049 0.51545 0.0
C120 C 0.71812 0.50602 0.49886 0.0
H121 H 0.76444 0.46378 0.46436 0.0
C122 C 0.74658 0.45538 0.39422 0.0
O123 O 0.63118 0.36379 0.37287 0.0
O124 O 0.64901 0.36556 0.42385 0.0
N125 N 0.68977 0.52308 0.45702 0.0
C126 C 0.67099 0.54161 0.44494 0.0
C127 C 0.65652 0.55912 0.46614 0.0
C128 C 0.66178 0.55766 0.4995 0.0
C129 C 0.68176 0.53898 0.51134 0.0
C130 C 0.69622 0.52277 0.48902 0.0
H131 H 0.66718 0.54317 0.41932 0.0
O132 O 0.60982 0.40861 0.42015 0.0
O133 O 0.67125 0.44853 0.43562 0.0
O134 O 0.65939 0.45319 0.36862 0.0
O135 O 0.69995 0.51202 0.39179 0.0
C136 C 0.68807 0.536 0.54441 0.0
C137 C 0.7093 0.5176 0.55453 0.0
H138 H 0.75237 0.48113 0.56483 0.0
H139 H 0.77766 0.45627 0.52163 0.0
H140 H 0.64126 0.57361 0.4568 0.0
H141 H 0.65027 0.57088 0.51578 0.0
H142 H 0.6767 0.54774 0.56224 0.0
H143 H 0.71384 0.51535 0.58001 0.0
Mn144 Mn 0.28343 0.67174 0.54977 0.0
Mn145 Mn 0.23167 0.5732 0.53899 0.0
C146 C 0.23129 0.64374 0.51309 0.0
C147 C 0.33591 0.7343 0.53989 0.0
C148 C 0.22076 0.61502 0.59576 0.0
O149 O 0.31988 0.65392 0.56951 0.0
O150 O 0.28454 0.58923 0.55839 0.0
C151 C 0.28122 0.56465 0.48992 0.0
N152 N 0.24536 0.55855 0.49941 0.0
C153 C 0.21382 0.52213 0.45091 0.0
C154 C 0.25037 0.52783 0.4407 0.0
C155 C 0.28424 0.54932 0.46023 0.0
C156 C 0.21263 0.53811 0.48072 0.0
H157 H 0.3073 0.58102 0.5049 0.0
C158 C 0.31573 0.61963 0.56919 0.0
O159 O 0.31679 0.72607 0.56658 0.0
O160 O 0.32531 0.70599 0.51902 0.0
N161 N 0.18024 0.55333 0.51985 0.0
C162 C 0.14789 0.55301 0.53208 0.0
C163 C 0.11197 0.5344 0.51467 0.0
C164 C 0.10953 0.51589 0.48512 0.0
C165 C 0.14308 0.51619 0.4732 0.0
C166 C 0.17809 0.53523 0.4916 0.0
H167 H 0.14954 0.56711 0.55481 0.0
O168 O 0.24334 0.6785 0.52485 0.0
O169 O 0.25057 0.62647 0.52254 0.0
O170 O 0.24578 0.64939 0.58703 0.0
O171 O 0.21399 0.58431 0.58015 0.0
C172 C 0.14337 0.49904 0.44349 0.0
C173 C 0.17869 0.50194 0.43238 0.0
H174 H 0.25285 0.51617 0.41777 0.0
H175 H 0.31259 0.55399 0.45244 0.0
H176 H 0.08621 0.53433 0.52401 0.0
H177 H 0.08183 0.50177 0.47167 0.0
H178 H 0.11675 0.48416 0.42872 0.0
H179 H 0.1787 0.48924 0.40924 0.0
Mn180 Mn 0.65291 0.28162 0.71645 0.0
Mn181 Mn 0.70142 0.23696 0.68862 0.0
C182 C 0.62921 0.24148 0.67148 0.0
C183 C 0.64611 0.33723 0.71706 0.0
C184 C 0.64992 0.21078 0.74805 0.0
O185 O 0.70654 0.31022 0.73955 0.0
O186 O 0.739 0.28469 0.71337 0.0
C187 C 0.75503 0.29679 0.64287 0.0
N188 N 0.72646 0.2593 0.64889 0.0
C189 C 0.72642 0.23983 0.59395 0.0
C190 C 0.75608 0.27817 0.58721 0.0
C191 C 0.77033 0.3068 0.61176 0.0
C192 C 0.71234 0.23159 0.62541 0.0
H193 H 0.76599 0.31887 0.66166 0.0
C194 C 0.7378 0.309 0.73313 0.0
O195 O 0.63266 0.3122 0.74035 0.0
O196 O 0.66396 0.33033 0.69409 0.0
N197 N 0.66872 0.19041 0.66389 0.0
C198 C 0.63868 0.15535 0.67394 0.0
C199 C 0.62035 0.12382 0.65204 0.0
C200 C 0.63336 0.12852 0.62016 0.0
C201 C 0.66467 0.16471 0.61048 0.0
C202 C 0.68194 0.19501 0.63341 0.0
H203 H 0.62866 0.15146 0.69844 0.0
O204 O 0.6062 0.25025 0.68723 0.0
O205 O 0.66545 0.25731 0.68197 0.0
O206 O 0.63641 0.2342 0.74547 0.0
O207 O 0.67573 0.21118 0.72918 0.0
C208 C 0.67896 0.17211 0.57883 0.0
C209 C 0.70973 0.20967 0.57055 0.0
H210 H 0.76785 0.28604 0.56322 0.0
H211 H 0.79305 0.33651 0.6067 0.0
H212 H 0.59619 0.09598 0.65969 0.0
H213 H 0.6189 0.10424 0.60326 0.0
H214 H 0.66605 0.14929 0.56054 0.0
H215 H 0.72002 0.21517 0.54602 0.0
Mn216 Mn 0.43061 0.6538 0.90822 0.0
Mn217 Mn 0.37352 0.55596 0.92048 0.0
C218 C 0.45124 0.62258 0.94411 0.0
C219 C 0.44925 0.71906 0.91983 0.0
C220 C 0.42709 0.59023 0.86339 0.0
O221 O 0.37743 0.64146 0.88876 0.0
O222 O 0.34231 0.57688 0.89919 0.0
C223 C 0.31897 0.55841 0.96801 0.0
N224 N 0.34472 0.5464 0.95936 0.0
C225 C 0.33109 0.50762 0.00706 0.0
C226 C 0.30421 0.51937 0.0164 0.0
C227 C 0.29831 0.54507 -0.00311 0.0
C228 C 0.35096 0.52205 0.97813 0.0
H229 H 0.31414 0.57788 0.95291 0.0
C230 C 0.34544 0.60848 0.88816 0.0
O231 O 0.4564 0.70897 0.89209 0.0
O232 O 0.42992 0.69117 0.94015 0.0
N233 N 0.39852 0.53049 0.94092 0.0
C234 C 0.42777 0.52459 0.92973 0.0
C235 C 0.43901 0.50139 0.94742 0.0
C236 C 0.41946 0.48377 0.97599 0.0
C237 C 0.38898 0.48971 0.98673 0.0
C238 C 0.37928 0.51338 0.96823 0.0
H239 H 0.44257 0.53772 0.90759 0.0
O240 O 0.47629 0.65602 0.93186 0.0
O241 O 0.41419 0.60848 0.93593 0.0
O242 O 0.4398 0.62618 0.87025 0.0
O243 O 0.40213 0.56201 0.8804 0.0
C244 C 0.3684 0.47376 0.0154 0.0
C245 C 0.33946 0.4827 0.02556 0.0
H246 H 0.28821 0.50914 0.03865 0.0
H247 H 0.27775 0.55441 0.00401 0.0
H248 H 0.46254 0.49692 0.93896 0.0
H249 H 0.42827 0.46596 0.98959 0.0
H250 H 0.37518 0.45528 0.03018 0.0
H251 H 0.32442 0.47093 0.04798 0.0
Mn252 Mn 0.7916 0.41681 0.06766 0.0
Mn253 Mn 0.8424 0.36823 0.07255 0.0
C254 C 0.84861 0.44152 0.09899 0.0
C255 C 0.74474 0.43235 0.08583 0.0
C256 C 0.85012 0.42098 0.01728 0.0
O257 O 0.75106 0.36243 0.05065 0.0
O258 O 0.78851 0.3339 0.0536 0.0
C259 C 0.7927 0.30999 0.12105 0.0
N260 N 0.82885 0.33859 0.11128 0.0
C261 C 0.86063 0.33054 0.15825 0.0
C262 C 0.82378 0.30081 0.16868 0.0
C263 C 0.78966 0.29061 0.15005 0.0
C264 C 0.86184 0.34878 0.12911 0.0
H265 H 0.76639 0.30202 0.10684 0.0
C266 C 0.75601 0.33303 0.04667 0.0
O267 O 0.75685 0.43907 0.05638 0.0
O268 O 0.75737 0.41387 0.10371 0.0
N269 N 0.89469 0.39677 0.09075 0.0
C270 C 0.92748 0.42803 0.07859 0.0
C271 C 0.96382 0.44311 0.09515 0.0
C272 C 0.96621 0.4256 0.1238 0.0
C273 C 0.93219 0.39318 0.13567 0.0
C274 C 0.89678 0.37941 0.11811 0.0
H275 H 0.92582 0.44173 0.05667 0.0
O276 O 0.83605 0.46424 0.08834 0.0
O277 O 0.82717 0.40447 0.09147 0.0
O278 O 0.82349 0.42836 0.02645 0.0
O279 O 0.85947 0.39876 0.03264 0.0
C280 C 0.93183 0.37459 0.16464 0.0
C281 C 0.89608 0.34329 0.17591 0.0
H282 H 0.82128 0.28588 0.19109 0.0
H283 H 0.76109 0.26783 0.15803 0.0
H284 H 0.98992 0.46823 0.0859 0.0
H285 H 0.99424 0.4375 0.13664 0.0
H286 H 0.95875 0.38461 0.17875 0.0
H287 H 0.89606 0.32969 0.19851 0.0
Mn288 Mn 0.41658 0.81021 0.22216 0.0
Mn289 Mn 0.51483 0.85713 0.24023 0.0
C290 C 0.44406 0.86319 0.25729 0.0
C291 C 0.35117 0.76228 0.2329 0.0
C292 C 0.48075 0.87029 0.1787 0.0
O293 O 0.43319 0.77139 0.20665 0.0
O294 O 0.49765 0.80443 0.22186 0.0
C295 C 0.51425 0.80601 0.29247 0.0
N296 N 0.52422 0.84227 0.28165 0.0
C297 C 0.55916 0.8725 0.33109 0.0
C298 C 0.54963 0.83549 0.34264 0.0
C299 C 0.52686 0.80209 0.32331 0.0
C300 C 0.5457 0.87456 0.30019 0.0
H301 H 0.49685 0.78032 0.27765 0.0
C302 C 0.46726 0.77448 0.20975 0.0
O303 O 0.3611 0.77737 0.20448 0.0
O304 O 0.37949 0.77289 0.25403 0.0
N305 N 0.53615 0.90844 0.25862 0.0
C306 C 0.53973 0.94141 0.24503 0.0
C307 C 0.55933 0.97704 0.26217 0.0
C308 C 0.57565 0.97855 0.29281 0.0
C309 C 0.57209 0.94435 0.30611 0.0
C310 C 0.55205 0.90965 0.28797 0.0
H311 H 0.52748 0.94046 0.22139 0.0
O312 O 0.4106 0.85263 0.24276 0.0
O313 O 0.46034 0.84205 0.25145 0.0
O314 O 0.44442 0.8461 0.18412 0.0
O315 O 0.50894 0.87554 0.1977 0.0
C316 C 0.58694 0.94317 0.3369 0.0
C317 C 0.58059 0.90728 0.34934 0.0
H318 H 0.55919 0.83234 0.36646 0.0
H319 H 0.51912 0.7734 0.33215 0.0
H320 H 0.56195 1.00331 0.25175 0.0
H321 H 0.59064 1.00606 0.30599 0.0
H322 H 0.60261 0.96955 0.35147 0.0
H323 H 0.59144 0.90662 0.37331 0.0
H324 H 0.18938 0.68987 0.30414 0.0
H325 H 0.15281 0.6027 0.22901 0.0
H326 H 0.21608 0.64283 0.20177 0.0
H327 H 0.28615 0.69882 0.20412 0.0
H328 H 0.32297 0.77893 0.285 0.0
H329 H 0.25603 0.74542 0.3055 0.0
C330 C 0.19491 0.68008 0.28135 0.0
C331 C 0.16654 0.64337 0.26865 0.0
C332 C 0.23213 0.70169 0.2674 0.0
C333 C 0.17399 0.63103 0.23912 0.0
C334 C 0.21049 0.6537 0.2239 0.0
C335 C 0.27921 0.70888 0.22607 0.0
C336 C 0.30952 0.74105 0.24327 0.0
C337 C 0.24051 0.68836 0.23855 0.0
C338 C 0.3003 0.75389 0.27167 0.0
C339 C 0.26196 0.73491 0.28331 0.0
H340 H 0.5079 0.17761 0.44409 0.0
H341 H 0.59635 0.15171 0.41125 0.0
H342 H 0.63295 0.21663 0.38695 0.0
H343 H 0.6456 0.28506 0.38417 0.0
H344 H 0.55765 0.31043 0.41964 0.0
H345 H 0.51508 0.24185 0.4338 0.0
C346 C 0.5343 0.18567 0.43038 0.0
C347 C 0.54937 0.16001 0.42928 0.0
C348 C 0.55586 0.2235 0.41774 0.0
C349 C 0.58392 0.17083 0.41195 0.0
C350 C 0.6052 0.20823 0.39858 0.0
C351 C 0.61668 0.27513 0.39425 0.0
C352 C 0.60457 0.30244 0.401 0.0
C353 C 0.59245 0.23551 0.40272 0.0
C354 C 0.56732 0.28966 0.41428 0.0
C355 C 0.54304 0.25053 0.42241 0.0
H356 H 0.468 0.62387 0.62743 0.0
H357 H 0.40162 0.50132 0.60172 0.0
H358 H 0.35015 0.51108 0.57663 0.0
H359 H 0.32098 0.55304 0.56734 0.0
H360 H 0.38629 0.6749 0.59633 0.0
H361 H 0.44073 0.66646 0.61557 0.0
C362 C 0.44243 0.59932 0.61602 0.0
C363 C 0.43848 0.5618 0.61676 0.0
C364 C 0.41231 0.60484 0.60298 0.0
C365 C 0.40557 0.5305 0.60135 0.0
C366 C 0.37587 0.536 0.58742 0.0
C367 C 0.34707 0.57785 0.57788 0.0
C368 C 0.34908 0.61451 0.58074 0.0
C369 C 0.37835 0.57279 0.58905 0.0
C370 C 0.38354 0.64628 0.59406 0.0
C371 C 0.41483 0.64153 0.60497 0.0
H372 H 0.88221 0.39393 0.828 0.0
H373 H 0.93863 0.45897 0.7425 0.0
H374 H 0.87802 0.41772 0.71127 0.0
H375 H 0.80738 0.36524 0.70915 0.0
H376 H 0.74974 0.30907 0.79696 0.0
H377 H 0.81208 0.34663 0.82702 0.0
C378 C 0.88132 0.40012 0.80271 0.0
C379 C 0.91506 0.43036 0.78795 0.0
C380 C 0.8458 0.37833 0.7855 0.0
C381 C 0.91342 0.43593 0.75466 0.0
C382 C 0.87855 0.41266 0.73683 0.0
C383 C 0.80864 0.36174 0.73493 0.0
C384 C 0.77434 0.33486 0.7511 0.0
C385 C 0.84434 0.38424 0.75215 0.0
C386 C 0.77587 0.33011 0.78435 0.0
C387 C 0.81147 0.35126 0.80138 0.0
H388 H 0.52335 0.88402 0.98737 0.0
H389 H 0.49477 0.91643 0.89633 0.0
H390 H 0.47479 0.8509 0.87438 0.0
H391 H 0.45857 0.78157 0.88362 0.0
H392 H 0.4788 0.74971 0.97823 0.0
H393 H 0.50767 0.81731 -0.00341 0.0
C394 C 0.51277 0.87688 0.96263 0.0
C395 C 0.50989 0.90492 0.94371 0.0
C396 C 0.49895 0.83877 0.95111 0.0
C397 C 0.4973 0.89548 0.91145 0.0
C398 C 0.48538 0.85781 0.89908 0.0
C399 C 0.46941 0.78965 0.90819 0.0
C400 C 0.46629 0.76061 0.92967 0.0
C401 C 0.48486 0.82875 0.91905 0.0
C402 C 0.48035 0.77134 0.96143 0.0
C403 C 0.49712 0.81006 0.97189 0.0
H404 H 0.69279 0.53269 0.16675 0.0
H405 H 0.60277 0.49545 0.09231 0.0
H406 H 0.63357 0.46357 0.06336 0.0
H407 H 0.68356 0.44139 0.06186 0.0
H408 H 0.76419 0.46983 0.14261 0.0
H409 H 0.73825 0.50813 0.16728 0.0
C410 C 0.67911 0.51699 0.14451 0.0
C411 C 0.64472 0.51584 0.13233 0.0
C412 C 0.69494 0.49626 0.12945 0.0
C413 C 0.62919 0.49705 0.10245 0.0
C414 C 0.64651 0.47828 0.08607 0.0
C415 C 0.69505 0.45578 0.08495 0.0
C416 C 0.72549 0.45251 0.10059 0.0
C417 C 0.67884 0.47679 0.09979 0.0
C418 C 0.74032 0.47135 0.13042 0.0
C419 C 0.72578 0.49358 0.1444 0.0
H420 H 0.47747 0.89178 0.49105 0.0
H421 H 0.4014 0.93541 0.52115 0.0
H422 H 0.35745 0.87239 0.54664 0.0
H423 H 0.33539 0.80163 0.55214 0.0
H424 H 0.40636 0.75678 0.51223 0.0
H425 H 0.45712 0.8231 0.49781 0.0
C426 C 0.45149 0.88769 0.50359 0.0
C427 C 0.44231 0.91799 0.50374 0.0
C428 C 0.42493 0.85069 0.51553 0.0
C429 C 0.40914 0.91263 0.52068 0.0
C430 C 0.38372 0.87637 0.53476 0.0
C431 C 0.36227 0.80665 0.54063 0.0
C432 C 0.36734 0.77459 0.53313 0.0
C433 C 0.39041 0.84467 0.53101 0.0
C434 C 0.40188 0.78108 0.51795 0.0
C435 C 0.43088 0.81893 0.50987 0.0
H436 H 0.63554 0.48232 0.6716 0.0
H437 H 0.51517 0.40985 0.7015 0.0
H438 H 0.53292 0.36506 0.72766 0.0
H439 H 0.5799 0.34013 0.7325 0.0
H440 H 0.69755 0.40942 0.69564 0.0
H441 H 0.68387 0.46152 0.68163 0.0
C442 C 0.61339 0.45717 0.68452 0.0
C443 C 0.57399 0.44911 0.68421 0.0
C444 C 0.62329 0.43045 0.69766 0.0
C445 C 0.54572 0.41679 0.70142 0.0
C446 C 0.55578 0.39085 0.71598 0.0
C447 C 0.60276 0.36714 0.72223 0.0
C448 C 0.63967 0.37102 0.71502 0.0
C449 C 0.59403 0.39636 0.71285 0.0
C450 C 0.66892 0.40581 0.70126 0.0
C451 C 0.66108 0.43556 0.6932 0.0
H452 H 0.20559 0.56302 0.79188 0.0
H453 H 0.14685 0.56658 0.87823 0.0
H454 H 0.20708 0.58474 0.90961 0.0
H455 H 0.27719 0.60008 0.91219 0.0
H456 H 0.33646 0.60514 0.8241 0.0
H457 H 0.27563 0.58566 0.79323 0.0
C458 C 0.20581 0.56905 0.81735 0.0
C459 C 0.1713 0.56389 0.83229 0.0
C460 C 0.24104 0.58183 0.83486 0.0
C461 C 0.17247 0.56979 0.86583 0.0
C462 C 0.20716 0.58071 0.88381 0.0
C463 C 0.27677 0.59777 0.88617 0.0
C464 C 0.31108 0.60445 0.87017 0.0
C465 C 0.24173 0.58705 0.86853 0.0
C466 C 0.31043 0.60081 0.83662 0.0
C467 C 0.27562 0.58927 0.8191 0.0
H468 H 0.61099 0.19226 0.9739 0.0
H469 H 0.66932 0.13074 0.00804 0.0
H470 H 0.71837 0.18973 0.03706 0.0
H471 H 0.74773 0.26016 0.04889 0.0
H472 H 0.68947 0.32173 0.01427 0.0
H473 H 0.63753 0.26139 0.98908 0.0
C474 C 0.63429 0.19168 0.9879 0.0
C475 C 0.63668 0.15718 0.98854 0.0
C476 C 0.66269 0.22586 0.00408 0.0
C477 C 0.66663 0.15674 0.00725 0.0
C478 C 0.69491 0.19061 0.02359 0.0
C479 C 0.72364 0.26046 0.03592 0.0
C480 C 0.72293 0.29576 0.03317 0.0
C481 C 0.69376 0.22557 0.02154 0.0
C482 C 0.691 0.2952 0.01671 0.0
C483 C 0.66127 0.26066 0.00225 0.0
H484 H 0.51299 0.6713 0.12685 0.0
H485 H 0.5293 0.63368 0.22038 0.0
H486 H 0.51263 0.67964 0.2459 0.0
H487 H 0.48945 0.72793 0.24112 0.0
H488 H 0.46273 0.75532 0.14713 0.0
H489 H 0.4848 0.71354 0.12209 0.0
C490 C 0.51203 0.67213 0.15289 0.0
C491 C 0.52148 0.64803 0.17156 0.0
C492 C 0.49941 0.69601 0.16722 0.0
C493 C 0.52226 0.65171 0.20527 0.0
C494 C 0.51212 0.67759 0.21987 0.0
C495 C 0.48786 0.72406 0.21521 0.0
C496 C 0.47406 0.7441 0.19584 0.0
C497 C 0.49979 0.69923 0.20105 0.0
C498 C 0.47247 0.73944 0.16236 0.0
C499 C 0.48556 0.71601 0.1481 0.0
H500 H 0.88761 0.44852 0.32782 0.0
H501 H 0.94982 0.57032 0.35635 0.0
H502 H 0.89153 0.56075 0.38548 0.0
H503 H 0.82067 0.51977 0.39704 0.0
H504 H 0.75718 0.39941 0.36399 0.0
H505 H 0.81803 0.4068 0.34162 0.0
C506 C 0.88858 0.47302 0.34057 0.0
C507 C 0.92298 0.51032 0.33942 0.0
C508 C 0.8544 0.46773 0.35581 0.0
C509 C 0.92395 0.54136 0.35684 0.0
C510 C 0.89039 0.53596 0.37314 0.0
C511 C 0.82003 0.49495 0.38517 0.0
C512 C 0.78401 0.45907 0.38201 0.0
C513 C 0.85506 0.49961 0.37184 0.0
C514 C 0.78414 0.42741 0.36656 0.0
C515 C 0.81902 0.4316 0.35384 0.0
H516 H 0.10295 0.60131 0.40318 0.0
H517 H 0.1797 0.56889 0.3552 0.0
H518 H 0.22113 0.58493 0.40349 0.0
H519 H 0.23923 0.61427 0.45734 0.0
H520 H 0.16175 0.64371 0.50737 0.0
H521 H 0.11694 0.62321 0.46028 0.0
C522 C 0.12786 0.59638 0.40381 0.0
C523 C 0.13853 0.58431 0.37568 0.0
C524 C 0.15171 0.60574 0.43179 0.0
C525 C 0.17115 0.57841 0.37659 0.0
C526 C 0.19504 0.58792 0.40405 0.0
C527 C 0.21191 0.61505 0.45819 0.0
C528 C 0.20294 0.62913 0.4859 0.0
C529 C 0.18621 0.60259 0.43144 0.0
C530 C 0.16867 0.63216 0.48631 0.0
C531 C 0.14308 0.62034 0.45951 0.0
H532 H 0.60458 0.18399 0.52842 0.0
H533 H 0.50292 0.08367 0.56801 0.0
H534 H 0.52159 0.11376 0.62181 0.0
H535 H 0.56585 0.17035 0.6571 0.0
H536 H 0.66419 0.27154 0.61543 0.0
H537 H 0.64624 0.2404 0.56225 0.0
C538 C 0.58596 0.16886 0.54865 0.0
C539 C 0.55199 0.13193 0.54407 0.0
C540 C 0.59583 0.1869 0.57892 0.0
C541 C 0.52928 0.11209 0.57087 0.0
C542 C 0.53966 0.12948 0.60153 0.0
C543 C 0.58312 0.18531 0.63622 0.0
C544 C 0.61694 0.22241 0.6399 0.0
C545 C 0.57261 0.16712 0.60575 0.0
C546 C 0.63874 0.24237 0.61294 0.0
C547 C 0.62845 0.22467 0.58266 0.0
H548 H 0.46596 0.51838 0.74328 0.0
H549 H 0.52406 0.63882 0.71395 0.0
H550 H 0.51064 0.65834 0.76619 0.0
H551 H 0.47526 0.6397 0.8173 0.0
H552 H 0.41339 0.51803 0.84471 0.0
H553 H 0.4352 0.50045 0.79615 0.0
C554 C 0.47673 0.54901 0.74885 0.0
C555 C 0.49623 0.57725 0.72523 0.0
C556 C 0.46734 0.55963 0.77824 0.0
C557 C 0.50933 0.61678 0.73214 0.0
C558 C 0.50127 0.62781 0.76178 0.0
C559 C 0.46676 0.60938 0.8128 0.0
C560 C 0.44219 0.58025 0.83448 0.0
C561 C 0.47906 0.59926 0.78456 0.0
C562 C 0.43178 0.54111 0.82829 0.0
C563 C 0.44438 0.53095 0.80055 0.0
H564 H 0.92306 0.50512 0.88668 0.0
H565 H 1.00785 0.46965 0.91146 0.0
H566 H 0.97698 0.4471 0.96378 0.0
H567 H 0.91967 0.42783 -0.00187 0.0
H568 H 0.83262 0.46019 0.97182 0.0
H569 H 0.86988 0.49242 0.92385 0.0
C570 C 0.93535 0.49338 0.90396 0.0
C571 C 0.96729 0.48854 0.89517 0.0
C572 C 0.91613 0.47854 0.9331 0.0
C573 C 0.98339 0.47383 0.91777 0.0
C574 C 0.96526 0.46024 0.94741 0.0
C575 C 0.90883 0.44203 0.98203 0.0
C576 C 0.87294 0.4409 0.98833 0.0
C577 C 0.93048 0.46069 0.95457 0.0
C578 C 0.85983 0.46011 0.96739 0.0
C579 C 0.88124 0.47877 0.94004 0.0
H580 H 0.55354 0.98002 0.05915 0.0
H581 H 0.43036 0.932 0.03485 0.0
H582 H 0.41173 0.89851 0.08667 0.0
H583 H 0.43077 0.87621 0.13538 0.0
H584 H 0.55467 0.92136 0.15724 0.0
H585 H 0.57269 0.96217 0.10978 0.0
C586 C 0.52271 0.96348 0.06589 0.0
C587 C 0.49331 0.95893 0.04378 0.0
C588 C 0.51236 0.94271 0.09477 0.0
C589 C 0.45336 0.93645 0.05202 0.0
C590 C 0.44279 0.91682 0.08133 0.0
C591 C 0.46171 0.89499 0.12981 0.0
C592 C 0.4912 0.89508 0.14969 0.0
C593 C 0.47204 0.91847 0.10229 0.0
C594 C 0.5312 0.92016 0.14227 0.0
C595 C 0.54165 0.94378 0.11518 0.0
H596 H 0.66964 0.57817 0.24541 0.0
H597 H 0.54858 0.48447 0.24538 0.0
H598 H 0.55965 0.46233 0.29748 0.0
H599 H 0.6063 0.46467 0.33892 0.0
H600 H 0.72736 0.55887 0.3395 0.0
H601 H 0.71397 0.58615 0.29123 0.0
C602 C 0.64545 0.55377 0.25751 0.0
C603 C 0.60831 0.53303 0.24202 0.0
C604 C 0.65235 0.5409 0.28701 0.0
C605 C 0.57716 0.50109 0.25732 0.0
C606 C 0.58368 0.48819 0.2868 0.0
C607 C 0.62963 0.49135 0.32857 0.0
C608 C 0.66796 0.50936 0.34215 0.0
C609 C 0.62155 0.50698 0.30119 0.0
C610 C 0.69775 0.5444 0.32916 0.0
C611 C 0.69009 0.55993 0.30162 0.0
H612 H 0.478 0.98819 0.36607 0.0
H613 H 0.5111 0.91337 0.41673 0.0
H614 H 0.49674 0.87253 0.36905 0.0
H615 H 0.46894 0.8545 0.31491 0.0
H616 H 0.44412 0.93237 0.26046 0.0
H617 H 0.46101 0.97595 0.30767 0.0
C618 C 0.48375 0.96402 0.36615 0.0
C619 C 0.49444 0.95307 0.39504 0.0
C620 C 0.47667 0.94116 0.33815 0.0
C621 C 0.50196 0.92175 0.39487 0.0
C622 C 0.49364 0.89828 0.3677 0.0
C623 C 0.46883 0.88184 0.31303 0.0
C624 C 0.45694 0.8912 0.28421 0.0
C625 C 0.48001 0.90712 0.33955 0.0
C626 C 0.45415 0.92525 0.28247 0.0
C627 C 0.46394 0.95013 0.30932 0.0
H628 H 0.57855 0.42849 0.58033 0.0
H629 H 0.55169 0.51609 0.54549 0.0
H630 H 0.56665 0.50489 0.49124 0.0
H631 H 0.59398 0.47467 0.45404 0.0
H632 H 0.63962 0.40455 0.49448 0.0
H633 H 0.6136 0.40692 0.54696 0.0
C634 C 0.5779 0.44738 0.56189 0.0
C635 C 0.5652 0.47449 0.56849 0.0
C636 C 0.59077 0.44431 0.53143 0.0
C637 C 0.56116 0.4949 0.54221 0.0
C638 C 0.57017 0.48884 0.51087 0.0
C639 C 0.5986 0.46053 0.4746 0.0
C640 C 0.61925 0.44014 0.4709 0.0
C641 C 0.58603 0.46437 0.50533 0.0
C642 C 0.6244 0.42099 0.49719 0.0
C643 C 0.60943 0.42222 0.52705 0.0
H644 H 0.15557 0.62343 0.73131 0.0
H645 H 0.07634 0.50123 0.7102 0.0
H646 H 0.10291 0.50965 0.65593 0.0
H647 H 0.15525 0.54985 0.61766 0.0
H648 H 0.23626 0.67161 0.64065 0.0
H649 H 0.20284 0.66507 0.6911 0.0
C650 C 0.14358 0.59889 0.71451 0.0
C651 C 0.11444 0.56174 0.7247 0.0
C652 C 0.16006 0.60362 0.68401 0.0
C653 C 0.09868 0.53017 0.70275 0.0
C654 C 0.11429 0.53486 0.67192 0.0
C655 C 0.16549 0.57498 0.63364 0.0
C656 C 0.19871 0.61095 0.62555 0.0
C657 C 0.14615 0.57109 0.66282 0.0
C658 C 0.21106 0.64342 0.64631 0.0
C659 C 0.19191 0.6398 0.6752 0.0
H660 H 0.62443 0.09729 0.86321 0.0
H661 H 0.5397 0.13148 0.88923 0.0
H662 H 0.55063 0.16663 0.8385 0.0
H663 H 0.59074 0.19452 0.79037 0.0
H664 H 0.67773 0.16219 0.76566 0.0
H665 H 0.65949 0.11949 0.81204 0.0
C666 C 0.60742 0.11129 0.85707 0.0
C667 C 0.5809 0.11146 0.87938 0.0
C668 C 0.615 0.13258 0.82849 0.0
C669 C 0.55971 0.13053 0.87192 0.0
C670 C 0.56635 0.15099 0.84318 0.0
C671 C 0.6055 0.17791 0.79493 0.0
C672 C 0.63606 0.18223 0.77473 0.0
C673 C 0.59502 0.15342 0.82184 0.0
C674 C 0.6544 0.15992 0.78088 0.0
C675 C 0.64397 0.13536 0.80743 0.0
H676 H 0.53933 0.58025 0.05011 0.0
H677 H 0.4287 0.54128 0.09787 0.0
H678 H 0.40193 0.55652 0.05054 0.0
H679 H 0.41405 0.59074 -0.00075 0.0
H680 H 0.51997 0.62095 0.94742 0.0
H681 H 0.54516 0.59985 -0.0071 0.0
C682 C 0.50859 0.57283 0.04941 0.0
C683 C 0.48633 0.56069 0.07765 0.0
C684 C 0.49299 0.58096 0.02173 0.0
C685 C 0.44648 0.55109 0.07644 0.0
C686 C 0.43133 0.56032 0.04957 0.0
C687 C 0.4417 0.59081 -0.00272 0.0
C688 C 0.46447 0.60595 0.96976 0.0
C689 C 0.45492 0.57683 0.02266 0.0
C690 C 0.50163 0.60863 0.96831 0.0
C691 C 0.51589 0.59638 -0.00583 0.0
H692 H 0.98379 0.53634 0.20156 0.0
H693 H 0.91731 0.42811 0.25264 0.0
H694 H 0.8736 0.39847 0.20611 0.0
H695 H 0.84876 0.40648 0.15414 0.0
H696 H 0.91696 0.51178 0.10031 0.0
H697 H 0.96533 0.53994 0.14482 0.0
C698 C 0.96077 0.50581 0.20191 0.0
C699 C 0.95328 0.4846 0.23055 0.0
C700 C 0.93564 0.48878 0.1749 0.0
C701 C 0.92326 0.44507 0.23087 0.0
C702 C 0.89805 0.4282 0.20442 0.0
C703 C 0.87512 0.43488 0.15164 0.0
C704 C 0.88015 0.45654 0.12376 0.0
C705 C 0.90308 0.45024 0.17681 0.0
C706 C 0.91305 0.49436 0.12149 0.0
C707 C 0.94068 0.51037 0.14684 0.0
loop_
_geom_bond_atom_site_label_1
_geom_bond_atom_site_label_2
_geom_bond_distance
_geom_bond_site_symmetry_2
_ccdc_geom_bond_type
H0 C6 0.930 . S
H1 C9 0.931 . S
H2 C11 0.931 . S
H3 C13 0.930 . S
H4 C15 0.930 . S
H5 C17 0.931 . S
C6 H0 0.930 . S
C6 C7 1.380 . S
C6 C8 1.394 . S
C7 C6 1.380 . S
C7 C11 1.382 . S
C8 C6 1.394 . S
C8 C9 1.400 . S
C9 H1 0.931 . S
C9 C8 1.400 . S
C9 C10 1.375 . S
C10 C9 1.375 . S
C10 C11 1.415 . S
C10 C12 1.501 1_455 S
C11 H2 0.931 . S
C11 C7 1.382 . S
C11 C10 1.415 . S
C12 C10 1.501 1_655 S
C12 C13 1.384 . S
C12 C17 1.408 . S
C13 H3 0.930 . S
C13 C12 1.384 . S
C13 C14 1.389 . S
C14 C13 1.389 . S
C14 C15 1.405 . S
C15 H4 0.930 . S
C15 C14 1.405 . S
C15 C16 1.364 . S
C16 C15 1.364 . S
C16 C17 1.400 . S
C17 H5 0.931 . S
C17 C12 1.408 . S
C17 C16 1.400 . S
H18 C24 0.930 . S
H19 C27 0.931 . S
H20 C29 0.931 . S
H21 C31 0.930 . S
H22 C33 0.930 . S
H23 C35 0.926 1_545 S
C24 H18 0.930 . S
C24 C25 1.380 . S
C24 C26 1.394 . S
C25 C24 1.380 . S
C25 C29 1.382 . S
C26 C24 1.394 . S
C26 C27 1.400 . S
C27 H19 0.931 . S
C27 C26 1.400 . S
C27 C28 1.375 . S
C28 C27 1.375 . S
C28 C29 1.415 . S
C28 C30 1.501 1_545 S
C29 H20 0.931 . S
C29 C25 1.382 . S
C29 C28 1.415 . S
C30 C28 1.501 1_565 S
C30 C31 1.384 . S
C30 C35 1.408 . S
C31 H21 0.930 . S
C31 C30 1.384 . S
C31 C32 1.389 . S
C32 C31 1.389 . S
C32 C33 1.405 . S
C33 H22 0.930 . S
C33 C32 1.405 . S
C33 C34 1.364 . S
C34 C33 1.364 . S
C34 C35 1.400 . S
C35 H23 0.926 1_565 S
C35 C30 1.408 . S
C35 C34 1.400 . S
H36 C42 0.930 . S
H37 C45 0.931 . S
H38 C47 0.931 . S
H39 C49 0.930 . S
H40 C51 0.930 . S
H41 C53 0.931 . S
C42 H36 0.930 . S
C42 C43 1.380 . S
C42 C44 1.394 . S
C43 C42 1.380 . S
C43 C47 1.382 . S
C44 C42 1.394 . S
C44 C45 1.400 . S
C45 H37 0.931 . S
C45 C44 1.400 . S
C45 C46 1.375 . S
C46 C45 1.375 . S
C46 C47 1.415 . S
C46 C48 1.501 . S
C47 H38 0.931 . S
C47 C43 1.382 . S
C47 C46 1.415 . S
C48 C46 1.501 . S
C48 C49 1.384 . S
C48 C53 1.408 . S
C49 H39 0.930 . S
C49 C48 1.384 . S
C49 C50 1.389 . S
C50 C49 1.389 . S
C50 C51 1.405 . S
C51 H40 0.930 . S
C51 C50 1.405 . S
C51 C52 1.364 . S
C52 C51 1.364 . S
C52 C53 1.400 . S
C53 H41 0.931 . S
C53 C48 1.408 . S
C53 C52 1.400 . S
H54 C60 0.930 . S
H55 C63 0.931 . S
H56 C65 0.931 . S
H57 C67 0.930 . S
H58 C69 0.930 . S
H59 C71 0.931 . S
C60 H54 0.930 . S
C60 C61 1.380 . S
C60 C62 1.394 . S
C61 C60 1.380 . S
C61 C65 1.382 . S
C62 C60 1.394 . S
C62 C63 1.400 . S
C63 H55 0.931 . S
C63 C62 1.400 . S
C63 C64 1.375 . S
C64 C63 1.375 . S
C64 C65 1.415 . S
C64 C66 1.501 1_455 S
C65 H56 0.931 . S
C65 C61 1.382 . S
C65 C64 1.415 . S
C66 C64 1.501 1_655 S
C66 C67 1.384 . S
C66 C71 1.408 . S
C67 H57 0.930 . S
C67 C66 1.384 . S
C67 C68 1.389 . S
C68 C67 1.389 . S
C68 C69 1.405 . S
C69 H58 0.930 . S
C69 C68 1.405 . S
C69 C70 1.364 . S
C70 C69 1.364 . S
C70 C71 1.400 . S
C71 H59 0.931 . S
C71 C66 1.408 . S
C71 C70 1.400 . S
H72 C78 0.930 . S
H73 C81 0.931 . S
H74 C83 0.931 1_545 S
H75 C85 0.930 . S
H76 C87 0.930 . S
H77 C89 0.931 . S
C78 H72 0.930 . S
C78 C79 1.380 . S
C78 C80 1.394 1_554 S
C79 C78 1.380 . S
C79 C83 1.382 . S
C80 C78 1.394 1_556 S
C80 C81 1.400 . S
C81 H73 0.931 . S
C81 C80 1.400 . S
C81 C82 1.375 . S
C82 C81 1.375 . S
C82 C83 1.415 1_556 S
C82 C84 1.501 1_565 S
C83 H74 0.931 1_565 S
C83 C79 1.382 . S
C83 C82 1.415 1_554 S
C84 C82 1.501 1_545 S
C84 C85 1.384 1_556 S
C84 C89 1.408 . S
C85 H75 0.930 . S
C85 C84 1.384 1_554 S
C85 C86 1.384 1_554 S
C86 C85 1.384 1_556 S
C86 C87 1.421 . S
C87 H76 0.930 . S
C87 C86 1.421 . S
C87 C88 1.364 . S
C88 C87 1.364 . S
C88 C89 1.400 . S
C89 H77 0.931 . S
C89 C84 1.408 . S
C89 C88 1.400 . S
H90 C96 0.930 . S
H91 C99 0.931 . S
H92 C101 0.931 . S
H93 C103 0.930 . S
H94 C105 0.930 . S
H95 C107 0.931 . S
C96 H90 0.930 . S
C96 C97 1.380 . S
C96 C98 1.394 . S
C97 C96 1.380 . S
C97 C101 1.382 . S
C98 C96 1.394 . S
C98 C99 1.400 . S
C99 H91 0.931 . S
C99 C98 1.400 . S
C99 C100 1.375 . S
C100 C99 1.375 . S
C100 C101 1.415 . S
C100 C102 1.501 . S
C101 H92 0.931 . S
C101 C97 1.382 . S
C101 C100 1.415 . S
C102 C100 1.501 . S
C102 C103 1.384 . S
C102 C107 1.408 . S
C103 H93 0.930 . S
C103 C102 1.384 . S
C103 C104 1.389 . S
C104 C103 1.389 . S
C104 C105 1.405 . S
C105 H94 0.930 . S
C105 C104 1.405 . S
C105 C106 1.364 . S
C106 C105 1.364 . S
C106 C107 1.400 . S
C107 H95 0.931 . S
C107 C102 1.408 . S
C107 C106 1.400 . S
Mn108 O113 2.095 . S
Mn108 O123 2.162 . S
Mn108 O124 2.297 . S
Mn108 O132 2.385 . S
Mn108 O133 2.209 . S
Mn108 O134 2.094 . S
Mn109 O114 2.121 . S
Mn109 N116 2.257 . S
Mn109 N125 2.282 . S
Mn109 O133 2.215 . S
Mn109 O135 2.117 . S
C110 O132 1.234 . S
C110 O133 1.283 . S
C111 O123 1.281 . S
C111 O124 1.236 . S
C112 O134 1.240 . S
C112 O135 1.264 . S
O113 Mn108 2.095 . S
O113 C122 1.250 . S
O114 Mn109 2.121 . S
O114 C122 1.258 . S
C115 N116 1.326 . S
C115 C119 1.460 . S
C115 H121 0.929 . S
N116 Mn109 2.257 . S
N116 C115 1.326 . S
N116 C120 1.362 . S
C117 C118 1.258 . S
C117 C120 1.431 . S
C117 C137 1.449 . S
C118 C117 1.258 . S
C118 C119 1.477 . S
C118 H138 0.931 . S
C119 C115 1.460 . S
C119 C118 1.477 . S
C119 H139 0.930 . S
C120 N116 1.362 . S
C120 C117 1.431 . S
C120 C130 1.476 . S
H121 C115 0.929 . S
C122 O113 1.250 . S
C122 O114 1.258 . S
O123 Mn108 2.162 . S
O123 C111 1.281 . S
O124 Mn108 2.297 . S
O124 C111 1.236 . S
N125 Mn109 2.282 . S
N125 C126 1.328 . S
N125 C130 1.318 . S
C126 N125 1.328 . S
C126 C127 1.457 . S
C126 H131 0.929 . S
C127 C126 1.457 . S
C127 C128 1.291 . S
C127 H140 0.931 . S
C128 C127 1.291 . S
C128 C129 1.373 . S
C128 H141 0.929 . S
C129 C128 1.373 . S
C129 C130 1.396 . S
C129 C136 1.403 . S
C130 C120 1.476 . S
C130 N125 1.318 . S
C130 C129 1.396 . S
H131 C126 0.929 . S
O132 Mn108 2.385 . S
O132 C110 1.234 . S
O133 Mn108 2.209 . S
O133 Mn109 2.215 . S
O133 C110 1.283 . S
O134 Mn108 2.094 . S
O134 C112 1.240 . S
O135 Mn109 2.117 . S
O135 C112 1.264 . S
C136 C129 1.403 . S
C136 C137 1.399 . S
C136 H142 0.929 . S
C137 C117 1.449 . S
C137 C136 1.399 . S
C137 H143 0.930 . S
H138 C118 0.931 . S
H139 C119 0.930 . S
H140 C127 0.931 . S
H141 C128 0.929 . S
H142 C136 0.929 . S
H143 C137 0.930 . S
Mn144 O149 2.095 . S
Mn144 O159 2.162 . S
Mn144 O160 2.297 . S
Mn144 O168 2.385 . S
Mn144 O169 2.209 . S
Mn144 O170 2.094 . S
Mn145 O150 2.121 . S
Mn145 N152 2.257 . S
Mn145 N161 2.282 . S
Mn145 O169 2.215 . S
Mn145 O171 2.117 . S
C146 O168 1.234 . S
C146 O169 1.283 . S
C147 O159 1.281 . S
C147 O160 1.236 . S
C148 O170 1.240 . S
C148 O171 1.264 . S
O149 Mn144 2.095 . S
O149 C158 1.250 . S
O150 Mn145 2.121 . S
O150 C158 1.258 . S
C151 N152 1.326 . S
C151 C155 1.460 . S
C151 H157 0.929 . S
N152 Mn145 2.257 . S
N152 C151 1.326 . S
N152 C156 1.362 . S
C153 C154 1.258 . S
C153 C156 1.431 . S
C153 C173 1.449 . S
C154 C153 1.258 . S
C154 C155 1.477 . S
C154 H174 0.931 . S
C155 C151 1.460 . S
C155 C154 1.477 . S
C155 H175 0.930 . S
C156 N152 1.362 . S
C156 C153 1.431 . S
C156 C166 1.476 . S
H157 C151 0.929 . S
C158 O149 1.250 . S
C158 O150 1.258 . S
O159 Mn144 2.162 . S
O159 C147 1.281 . S
O160 Mn144 2.297 . S
O160 C147 1.236 . S
N161 Mn145 2.282 . S
N161 C162 1.328 . S
N161 C166 1.318 . S
C162 N161 1.328 . S
C162 C163 1.457 . S
C162 H167 0.929 . S
C163 C162 1.457 . S
C163 C164 1.291 . S
C163 H176 0.931 . S
C164 C163 1.291 . S
C164 C165 1.373 . S
C164 H177 0.929 . S
C165 C164 1.373 . S
C165 C166 1.396 . S
C165 C172 1.403 . S
C166 C156 1.476 . S
C166 N161 1.318 . S
C166 C165 1.396 . S
H167 C162 0.929 . S
O168 Mn144 2.385 . S
O168 C146 1.234 . S
O169 Mn144 2.209 . S
O169 Mn145 2.215 . S
O169 C146 1.283 . S
O170 Mn144 2.094 . S
O170 C148 1.240 . S
O171 Mn145 2.117 . S
O171 C148 1.264 . S
C172 C165 1.403 . S
C172 C173 1.399 . S
C172 H178 0.929 . S
C173 C153 1.449 . S
C173 C172 1.399 . S
C173 H179 0.930 . S
H174 C154 0.931 . S
H175 C155 0.930 . S
H176 C163 0.931 . S
H177 C164 0.929 . S
H178 C172 0.929 . S
H179 C173 0.930 . S
Mn180 O185 2.095 . S
Mn180 O195 2.162 . S
Mn180 O196 2.297 . S
Mn180 O204 2.385 . S
Mn180 O205 2.209 . S
Mn180 O206 2.094 . S
Mn181 O186 2.121 . S
Mn181 N188 2.257 . S
Mn181 N197 2.282 . S
Mn181 O205 2.215 . S
Mn181 O207 2.117 . S
C182 O204 1.234 . S
C182 O205 1.283 . S
C183 O195 1.281 . S
C183 O196 1.236 . S
C184 O206 1.240 . S
C184 O207 1.264 . S
O185 Mn180 2.095 . S
O185 C194 1.250 . S
O186 Mn181 2.121 . S
O186 C194 1.258 . S
C187 N188 1.326 . S
C187 C191 1.460 . S
C187 H193 0.929 . S
N188 Mn181 2.257 . S
N188 C187 1.326 . S
N188 C192 1.362 . S
C189 C190 1.258 . S
C189 C192 1.431 . S
C189 C209 1.449 . S
C190 C189 1.258 . S
C190 C191 1.477 . S
C190 H210 0.931 . S
C191 C187 1.460 . S
C191 C190 1.477 . S
C191 H211 0.930 . S
C192 N188 1.362 . S
C192 C189 1.431 . S
C192 C202 1.476 . S
H193 C187 0.929 . S
C194 O185 1.250 . S
C194 O186 1.258 . S
O195 Mn180 2.162 . S
O195 C183 1.281 . S
O196 Mn180 2.297 . S
O196 C183 1.236 . S
N197 Mn181 2.282 . S
N197 C198 1.328 . S
N197 C202 1.318 . S
C198 N197 1.328 . S
C198 C199 1.457 . S
C198 H203 0.929 . S
C199 C198 1.457 . S
C199 C200 1.291 . S
C199 H212 0.931 . S
C200 C199 1.291 . S
C200 C201 1.373 . S
C200 H213 0.929 . S
C201 C200 1.373 . S
C201 C202 1.396 . S
C201 C208 1.403 . S
C202 C192 1.476 . S
C202 N197 1.318 . S
C202 C201 1.396 . S
H203 C198 0.929 . S
O204 Mn180 2.385 . S
O204 C182 1.234 . S
O205 Mn180 2.209 . S
O205 Mn181 2.215 . S
O205 C182 1.283 . S
O206 Mn180 2.094 . S
O206 C184 1.240 . S
O207 Mn181 2.117 . S
O207 C184 1.264 . S
C208 C201 1.403 . S
C208 C209 1.399 . S
C208 H214 0.929 . S
C209 C189 1.449 . S
C209 C208 1.399 . S
C209 H215 0.930 . S
H210 C190 0.931 . S
H211 C191 0.930 . S
H212 C199 0.931 . S
H213 C200 0.929 . S
H214 C208 0.929 . S
H215 C209 0.930 . S
Mn216 O221 2.095 . S
Mn216 O231 2.162 . S
Mn216 O232 2.297 . S
Mn216 O240 2.385 . S
Mn216 O241 2.209 . S
Mn216 O242 2.094 . S
Mn217 O222 2.121 . S
Mn217 N224 2.257 . S
Mn217 N233 2.282 . S
Mn217 O241 2.215 . S
Mn217 O243 2.117 . S
C218 O240 1.234 . S
C218 O241 1.283 . S
C219 O231 1.281 . S
C219 O232 1.236 . S
C220 O242 1.240 . S
C220 O243 1.264 . S
O221 Mn216 2.095 . S
O221 C230 1.250 . S
O222 Mn217 2.121 . S
O222 C230 1.258 . S
C223 N224 1.326 . S
C223 C227 1.460 . S
C223 H229 0.929 . S
N224 Mn217 2.257 . S
N224 C223 1.326 . S
N224 C228 1.362 . S
C225 C226 1.263 . S
C225 C228 1.431 . S
C225 C245 1.449 1_556 S
C226 C225 1.263 . S
C226 C227 1.483 . S
C226 H246 0.920 1_556 S
C227 C223 1.460 . S
C227 C226 1.483 . S
C227 H247 0.930 . S
C228 N224 1.362 . S
C228 C225 1.431 . S
C228 C238 1.476 . S
H229 C223 0.929 . S
C230 O221 1.250 . S
C230 O222 1.258 . S
O231 Mn216 2.162 . S
O231 C219 1.281 . S
O232 Mn216 2.297 . S
O232 C219 1.236 . S
N233 Mn217 2.282 . S
N233 C234 1.328 . S
N233 C238 1.318 . S
C234 N233 1.328 . S
C234 C235 1.457 . S
C234 H239 0.929 . S
C235 C234 1.457 . S
C235 C236 1.291 . S
C235 H248 0.931 . S
C236 C235 1.291 . S
C236 C237 1.373 . S
C236 H249 0.929 . S
C237 C236 1.373 . S
C237 C238 1.396 . S
C237 C244 1.403 . S
C238 C228 1.476 . S
C238 N233 1.318 . S
C238 C237 1.396 . S
H239 C234 0.929 . S
O240 Mn216 2.385 . S
O240 C218 1.234 . S
O241 Mn216 2.209 . S
O241 Mn217 2.215 . S
O241 C218 1.283 . S
O242 Mn216 2.094 . S
O242 C220 1.240 . S
O243 Mn217 2.117 . S
O243 C220 1.264 . S
C244 C237 1.403 . S
C244 C245 1.399 1_556 S
C244 H250 0.929 1_556 S
C245 C225 1.449 1_554 S
C245 C244 1.399 1_554 S
C245 H251 0.930 . S
H246 C226 0.920 1_554 S
H247 C227 0.930 . S
H248 C235 0.931 . S
H249 C236 0.929 . S
H250 C244 0.929 1_554 S
H251 C245 0.930 . S
Mn252 O257 2.095 . S
Mn252 O267 2.162 . S
Mn252 O268 2.297 . S
Mn252 O276 2.385 . S
Mn252 O277 2.209 . S
Mn252 O278 2.094 . S
Mn253 O258 2.121 . S
Mn253 N260 2.257 . S
Mn253 N269 2.282 . S
Mn253 O277 2.215 . S
Mn253 O279 2.117 . S
C254 O276 1.234 . S
C254 O277 1.283 . S
C255 O267 1.281 . S
C255 O268 1.236 . S
C256 O278 1.240 . S
C256 O279 1.264 . S
O257 Mn252 2.095 . S
O257 C266 1.250 . S
O258 Mn253 2.121 . S
O258 C266 1.258 . S
C259 N260 1.326 . S
C259 C263 1.460 . S
C259 H265 0.929 . S
N260 Mn253 2.257 . S
N260 C259 1.326 . S
N260 C264 1.362 . S
C261 C262 1.258 . S
C261 C264 1.431 . S
C261 C281 1.449 . S
C262 C261 1.258 . S
C262 C263 1.477 . S
C262 H282 0.931 . S
C263 C259 1.460 . S
C263 C262 1.477 . S
C263 H283 0.930 . S
C264 N260 1.362 . S
C264 C261 1.431 . S
C264 C274 1.476 . S
H265 C259 0.929 . S
C266 O257 1.250 . S
C266 O258 1.258 . S
O267 Mn252 2.162 . S
O267 C255 1.281 . S
O268 Mn252 2.297 . S
O268 C255 1.236 . S
N269 Mn253 2.282 . S
N269 C270 1.328 . S
N269 C274 1.318 . S
C270 N269 1.328 . S
C270 C271 1.457 . S
C270 H275 0.929 . S
C271 C270 1.457 . S
C271 C272 1.291 . S
C271 H284 0.931 . S
C272 C271 1.291 . S
C272 C273 1.373 . S
C272 H285 0.929 . S
C273 C272 1.373 . S
C273 C274 1.396 . S
C273 C280 1.403 . S
C274 C264 1.476 . S
C274 N269 1.318 . S
C274 C273 1.396 . S
H275 C270 0.929 . S
O276 Mn252 2.385 . S
O276 C254 1.234 . S
O277 Mn252 2.209 . S
O277 Mn253 2.215 . S
O277 C254 1.283 . S
O278 Mn252 2.094 . S
O278 C256 1.240 . S
O279 Mn253 2.117 . S
O279 C256 1.264 . S
C280 C273 1.403 . S
C280 C281 1.399 . S
C280 H286 0.929 . S
C281 C261 1.449 . S
C281 C280 1.399 . S
C281 H287 0.930 . S
H282 C262 0.931 . S
H283 C263 0.930 . S
H284 C271 0.931 . S
H285 C272 0.929 . S
H286 C280 0.929 . S
H287 C281 0.930 . S
Mn288 O293 2.095 . S
Mn288 O303 2.162 . S
Mn288 O304 2.297 . S
Mn288 O312 2.385 . S
Mn288 O313 2.209 . S
Mn288 O314 2.094 . S
Mn289 O294 2.121 . S
Mn289 N296 2.257 . S
Mn289 N305 2.282 . S
Mn289 O313 2.215 . S
Mn289 O315 2.117 . S
C290 O312 1.234 . S
C290 O313 1.283 . S
C291 O303 1.281 . S
C291 O304 1.236 . S
C292 O314 1.240 . S
C292 O315 1.264 . S
O293 Mn288 2.095 . S
O293 C302 1.250 . S
O294 Mn289 2.121 . S
O294 C302 1.258 . S
C295 N296 1.326 . S
C295 C299 1.460 . S
C295 H301 0.929 . S
N296 Mn289 2.257 . S
N296 C295 1.326 . S
N296 C300 1.362 . S
C297 C298 1.258 . S
C297 C300 1.431 . S
C297 C317 1.449 . S
C298 C297 1.258 . S
C298 C299 1.477 . S
C298 H318 0.931 . S
C299 C295 1.460 . S
C299 C298 1.477 . S
C299 H319 0.930 . S
C300 N296 1.362 . S
C300 C297 1.431 . S
C300 C310 1.476 . S
H301 C295 0.929 . S
C302 O293 1.250 . S
C302 O294 1.258 . S
O303 Mn288 2.162 . S
O303 C291 1.281 . S
O304 Mn288 2.297 . S
O304 C291 1.236 . S
N305 Mn289 2.282 . S
N305 C306 1.328 . S
N305 C310 1.318 . S
C306 N305 1.328 . S
C306 C307 1.457 . S
C306 H311 0.929 . S
C307 C306 1.457 . S
C307 C308 1.291 . S
C307 H320 0.931 . S
C308 C307 1.291 . S
C308 C309 1.373 . S
C308 H321 0.929 . S
C309 C308 1.373 . S
C309 C310 1.396 . S
C309 C316 1.403 . S
C310 C300 1.476 . S
C310 N305 1.318 . S
C310 C309 1.396 . S
H311 C306 0.929 . S
O312 Mn288 2.385 . S
O312 C290 1.234 . S
O313 Mn288 2.209 . S
O313 Mn289 2.215 . S
O313 C290 1.283 . S
O314 Mn288 2.094 . S
O314 C292 1.240 . S
O315 Mn289 2.117 . S
O315 C292 1.264 . S
C316 C309 1.403 . S
C316 C317 1.399 . S
C316 H322 0.929 . S
C317 C297 1.449 . S
C317 C316 1.399 . S
C317 H323 0.930 . S
H318 C298 0.931 . S
H319 C299 0.930 . S
H320 C307 0.931 . S
H321 C308 0.929 . S
H322 C316 0.929 . S
H323 C317 0.930 . S
H324 C330 0.930 . S
H325 C333 0.930 . S
H326 C334 0.930 . S
H327 C335 0.930 . S
H328 C338 0.930 . S
H329 C339 0.930 . S
C330 H324 0.930 . S
C330 C331 1.355 . S
C330 C332 1.415 . S
C331 C330 1.355 . S
C331 C333 1.419 . S
C332 C330 1.415 . S
C332 C337 1.425 . S
C332 C339 1.409 . S
C333 H325 0.930 . S
C333 C331 1.419 . S
C333 C334 1.362 . S
C334 H326 0.930 . S
C334 C333 1.362 . S
C334 C337 1.409 . S
C335 H327 0.930 . S
C335 C336 1.355 . S
C335 C337 1.415 . S
C336 C335 1.355 . S
C336 C338 1.419 . S
C337 C332 1.425 . S
C337 C334 1.409 . S
C337 C335 1.415 . S
C338 H328 0.930 . S
C338 C336 1.419 . S
C338 C339 1.362 . S
C339 H329 0.930 . S
C339 C332 1.409 . S
C339 C338 1.362 . S
H340 C346 0.930 . S
H341 C349 0.930 . S
H342 C350 0.930 . S
H343 C351 0.930 . S
H344 C354 0.930 . S
H345 C355 0.930 . S
C346 H340 0.930 . S
C346 C347 1.355 . S
C346 C348 1.415 . S
C347 C346 1.355 . S
C347 C349 1.419 . S
C348 C346 1.415 . S
C348 C353 1.425 . S
C348 C355 1.409 . S
C349 H341 0.930 . S
C349 C347 1.419 . S
C349 C350 1.362 . S
C350 H342 0.930 . S
C350 C349 1.362 . S
C350 C353 1.409 . S
C351 H343 0.930 . S
C351 C352 1.355 . S
C351 C353 1.415 . S
C352 C351 1.355 . S
C352 C354 1.419 . S
C353 C348 1.425 . S
C353 C350 1.409 . S
C353 C351 1.415 . S
C354 H344 0.930 . S
C354 C352 1.419 . S
C354 C355 1.362 . S
C355 H345 0.930 . S
C355 C348 1.409 . S
C355 C354 1.362 . S
H356 C362 0.930 . S
H357 C365 0.930 . S
H358 C366 0.930 . S
H359 C367 0.930 . S
H360 C370 0.930 . S
H361 C371 0.930 . S
C362 H356 0.930 . S
C362 C363 1.355 . S
C362 C364 1.415 . S
C363 C362 1.355 . S
C363 C365 1.419 . S
C364 C362 1.415 . S
C364 C369 1.425 . S
C364 C371 1.409 . S
C365 H357 0.930 . S
C365 C363 1.419 . S
C365 C366 1.362 . S
C366 H358 0.930 . S
C366 C365 1.362 . S
C366 C369 1.409 . S
C367 H359 0.930 . S
C367 C368 1.355 . S
C367 C369 1.415 . S
C368 C367 1.355 . S
C368 C370 1.419 . S
C369 C364 1.425 . S
C369 C366 1.409 . S
C369 C367 1.415 . S
C370 H360 0.930 . S
C370 C368 1.419 . S
C370 C371 1.362 . S
C371 H361 0.930 . S
C371 C364 1.409 . S
C371 C370 1.362 . S
H372 C378 0.930 . S
H373 C381 0.930 . S
H374 C382 0.930 . S
H375 C383 0.930 . S
H376 C386 0.930 . S
H377 C387 0.930 . S
C378 H372 0.930 . S
C378 C379 1.355 . S
C378 C380 1.415 . S
C379 C378 1.355 . S
C379 C381 1.419 . S
C380 C378 1.415 . S
C380 C385 1.425 . S
C380 C387 1.409 . S
C381 H373 0.930 . S
C381 C379 1.419 . S
C381 C382 1.362 . S
C382 H374 0.930 . S
C382 C381 1.362 . S
C382 C385 1.409 . S
C383 H375 0.930 . S
C383 C384 1.355 . S
C383 C385 1.415 . S
C384 C383 1.355 . S
C384 C386 1.419 . S
C385 C380 1.425 . S
C385 C382 1.409 . S
C385 C383 1.415 . S
C386 H376 0.930 . S
C386 C384 1.419 . S
C386 C387 1.362 . S
C387 H377 0.930 . S
C387 C380 1.409 . S
C387 C386 1.362 . S
H388 C394 0.930 . S
H389 C397 0.930 . S
H390 C398 0.930 . S
H391 C399 0.930 . S
H392 C402 0.930 . S
H393 C403 0.930 . S
C394 H388 0.930 . S
C394 C395 1.355 . S
C394 C396 1.415 . S
C395 C394 1.355 . S
C395 C397 1.419 . S
C396 C394 1.415 . S
C396 C401 1.425 . S
C396 C403 1.409 . S
C397 H389 0.930 . S
C397 C395 1.419 . S
C397 C398 1.362 . S
C398 H390 0.930 . S
C398 C397 1.362 . S
C398 C401 1.409 . S
C399 H391 0.930 . S
C399 C400 1.355 . S
C399 C401 1.415 . S
C400 C399 1.355 . S
C400 C402 1.419 . S
C401 C396 1.425 . S
C401 C398 1.409 . S
C401 C399 1.415 . S
C402 H392 0.930 . S
C402 C400 1.419 . S
C402 C403 1.362 . S
C403 H393 0.930 . S
C403 C396 1.409 . S
C403 C402 1.362 . S
H404 C410 0.930 . S
H405 C413 0.930 . S
H406 C414 0.930 . S
H407 C415 0.930 . S
H408 C418 0.930 . S
H409 C419 0.930 . S
C410 H404 0.930 . S
C410 C411 1.355 . S
C410 C412 1.415 . S
C411 C410 1.355 . S
C411 C413 1.419 . S
C412 C410 1.415 . S
C412 C417 1.425 . S
C412 C419 1.409 . S
C413 H405 0.930 . S
C413 C411 1.419 . S
C413 C414 1.362 . S
C414 H406 0.930 . S
C414 C413 1.362 . S
C414 C417 1.409 . S
C415 H407 0.930 . S
C415 C416 1.355 . S
C415 C417 1.415 . S
C416 C415 1.355 . S
C416 C418 1.419 . S
C417 C412 1.425 . S
C417 C414 1.409 . S
C417 C415 1.415 . S
C418 H408 0.930 . S
C418 C416 1.419 . S
C418 C419 1.362 . S
C419 H409 0.930 . S
C419 C412 1.409 . S
C419 C418 1.362 . S
H420 C426 0.930 . S
H421 C429 0.930 . S
H422 C430 0.930 . S
H423 C431 0.930 . S
H424 C434 0.930 . S
H425 C435 0.930 . S
C426 H420 0.930 . S
C426 C427 1.355 . S
C426 C428 1.415 . S
C427 C426 1.355 . S
C427 C429 1.419 . S
C428 C426 1.415 . S
C428 C433 1.425 . S
C428 C435 1.409 . S
C429 H421 0.930 . S
C429 C427 1.419 . S
C429 C430 1.362 . S
C430 H422 0.930 . S
C430 C429 1.362 . S
C430 C433 1.409 . S
C431 H423 0.930 . S
C431 C432 1.355 . S
C431 C433 1.415 . S
C432 C431 1.355 . S
C432 C434 1.419 . S
C433 C428 1.425 . S
C433 C430 1.409 . S
C433 C431 1.415 . S
C434 H424 0.930 . S
C434 C432 1.419 . S
C434 C435 1.362 . S
C435 H425 0.930 . S
C435 C428 1.409 . S
C435 C434 1.362 . S
H436 C442 0.930 . S
H437 C445 0.930 . S
H438 C446 0.930 . S
H439 C447 0.930 . S
H440 C450 0.930 . S
H441 C451 0.930 . S
C442 H436 0.930 . S
C442 C443 1.355 . S
C442 C444 1.415 . S
C443 C442 1.355 . S
C443 C445 1.419 . S
C444 C442 1.415 . S
C444 C449 1.425 . S
C444 C451 1.409 . S
C445 H437 0.930 . S
C445 C443 1.419 . S
C445 C446 1.362 . S
C446 H438 0.930 . S
C446 C445 1.362 . S
C446 C449 1.409 . S
C447 H439 0.930 . S
C447 C448 1.355 . S
C447 C449 1.415 . S
C448 C447 1.355 . S
C448 C450 1.419 . S
C449 C444 1.425 . S
C449 C446 1.409 . S
C449 C447 1.415 . S
C450 H440 0.930 . S
C450 C448 1.419 . S
C450 C451 1.362 . S
C451 H441 0.930 . S
C451 C444 1.409 . S
C451 C450 1.362 . S
H452 C458 0.930 . S
H453 C461 0.930 . S
H454 C462 0.930 . S
H455 C463 0.930 . S
H456 C466 0.930 . S
H457 C467 0.930 . S
C458 H452 0.930 . S
C458 C459 1.355 . S
C458 C460 1.415 . S
C459 C458 1.355 . S
C459 C461 1.419 . S
C460 C458 1.415 . S
C460 C465 1.425 . S
C460 C467 1.409 . S
C461 H453 0.930 . S
C461 C459 1.419 . S
C461 C462 1.362 . S
C462 H454 0.930 . S
C462 C461 1.362 . S
C462 C465 1.409 . S
C463 H455 0.930 . S
C463 C464 1.355 . S
C463 C465 1.415 . S
C464 C463 1.355 . S
C464 C466 1.419 . S
C465 C460 1.425 . S
C465 C462 1.409 . S
C465 C463 1.415 . S
C466 H456 0.930 . S
C466 C464 1.419 . S
C466 C467 1.362 . S
C467 H457 0.930 . S
C467 C460 1.409 . S
C467 C466 1.362 . S
H468 C474 0.930 . S
H469 C477 0.934 . S
H470 C478 0.930 1_556 S
H471 C479 0.930 . S
H472 C482 0.930 . S
H473 C483 0.930 . S
C474 H468 0.930 . S
C474 C475 1.355 . S
C474 C476 1.415 . S
C475 C474 1.355 . S
C475 C477 1.416 1_554 S
C476 C474 1.415 . S
C476 C481 1.425 . S
C476 C483 1.409 . S
C477 H469 0.934 . S
C477 C475 1.416 1_556 S
C477 C478 1.361 1_556 S
C478 H470 0.930 1_554 S
C478 C477 1.361 1_554 S
C478 C481 1.409 . S
C479 H471 0.930 . S
C479 C480 1.355 . S
C479 C481 1.415 . S
C480 C479 1.355 . S
C480 C482 1.419 . S
C481 C476 1.425 . S
C481 C478 1.409 . S
C481 C479 1.415 . S
C482 H472 0.930 . S
C482 C480 1.419 . S
C482 C483 1.362 . S
C483 H473 0.930 . S
C483 C476 1.409 . S
C483 C482 1.362 . S
H484 C490 0.930 . S
H485 C493 0.930 . S
H486 C494 0.930 . S
H487 C495 0.930 . S
H488 C498 0.930 . S
H489 C499 0.930 . S
C490 H484 0.930 . S
C490 C491 1.355 . S
C490 C492 1.415 . S
C491 C490 1.355 . S
C491 C493 1.419 . S
C492 C490 1.415 . S
C492 C497 1.425 . S
C492 C499 1.409 . S
C493 H485 0.930 . S
C493 C491 1.419 . S
C493 C494 1.362 . S
C494 H486 0.930 . S
C494 C493 1.362 . S
C494 C497 1.409 . S
C495 H487 0.930 . S
C495 C496 1.355 . S
C495 C497 1.415 . S
C496 C495 1.355 . S
C496 C498 1.419 . S
C497 C492 1.425 . S
C497 C494 1.409 . S
C497 C495 1.415 . S
C498 H488 0.930 . S
C498 C496 1.419 . S
C498 C499 1.362 . S
C499 H489 0.930 . S
C499 C492 1.409 . S
C499 C498 1.362 . S
H500 C506 0.930 . S
H501 C509 0.930 . S
H502 C510 0.930 . S
H503 C511 0.930 . S
H504 C514 0.930 . S
H505 C515 0.930 . S
C506 H500 0.930 . S
C506 C507 1.355 . S
C506 C508 1.415 . S
C507 C506 1.355 . S
C507 C509 1.419 . S
C508 C506 1.415 . S
C508 C513 1.425 . S
C508 C515 1.409 . S
C509 H501 0.930 . S
C509 C507 1.419 . S
C509 C510 1.362 . S
C510 H502 0.930 . S
C510 C509 1.362 . S
C510 C513 1.409 . S
C511 H503 0.930 . S
C511 C512 1.355 . S
C511 C513 1.415 . S
C512 C511 1.355 . S
C512 C514 1.419 . S
C513 C508 1.425 . S
C513 C510 1.409 . S
C513 C511 1.415 . S
C514 H504 0.930 . S
C514 C512 1.419 . S
C514 C515 1.362 . S
C515 H505 0.930 . S
C515 C508 1.409 . S
C515 C514 1.362 . S
H516 C522 0.930 . S
H517 C525 0.930 . S
H518 C526 0.930 . S
H519 C527 0.930 . S
H520 C530 0.930 . S
H521 C531 0.930 . S
C522 H516 0.930 . S
C522 C523 1.355 . S
C522 C524 1.415 . S
C523 C522 1.355 . S
C523 C525 1.419 . S
C524 C522 1.415 . S
C524 C529 1.425 . S
C524 C531 1.409 . S
C525 H517 0.930 . S
C525 C523 1.419 . S
C525 C526 1.362 . S
C526 H518 0.930 . S
C526 C525 1.362 . S
C526 C529 1.409 . S
C527 H519 0.930 . S
C527 C528 1.355 . S
C527 C529 1.415 . S
C528 C527 1.355 . S
C528 C530 1.419 . S
C529 C524 1.425 . S
C529 C526 1.409 . S
C529 C527 1.415 . S
C530 H520 0.930 . S
C530 C528 1.419 . S
C530 C531 1.362 . S
C531 H521 0.930 . S
C531 C524 1.409 . S
C531 C530 1.362 . S
H532 C538 0.930 . S
H533 C541 0.930 . S
H534 C542 0.930 . S
H535 C543 0.930 . S
H536 C546 0.930 . S
H537 C547 0.930 . S
C538 H532 0.930 . S
C538 C539 1.355 . S
C538 C540 1.415 . S
C539 C538 1.355 . S
C539 C541 1.419 . S
C540 C538 1.415 . S
C540 C545 1.425 . S
C540 C547 1.409 . S
C541 H533 0.930 . S
C541 C539 1.419 . S
C541 C542 1.362 . S
C542 H534 0.930 . S
C542 C541 1.362 . S
C542 C545 1.409 . S
C543 H535 0.930 . S
C543 C544 1.355 . S
C543 C545 1.415 . S
C544 C543 1.355 . S
C544 C546 1.419 . S
C545 C540 1.425 . S
C545 C542 1.409 . S
C545 C543 1.415 . S
C546 H536 0.930 . S
C546 C544 1.419 . S
C546 C547 1.362 . S
C547 H537 0.930 . S
C547 C540 1.409 . S
C547 C546 1.362 . S
H548 C554 0.930 . S
H549 C557 0.930 . S
H550 C558 0.930 . S
H551 C559 0.930 . S
H552 C562 0.930 . S
H553 C563 0.930 . S
C554 H548 0.930 . S
C554 C555 1.355 . S
C554 C556 1.415 . S
C555 C554 1.355 . S
C555 C557 1.419 . S
C556 C554 1.415 . S
C556 C561 1.425 . S
C556 C563 1.409 . S
C557 H549 0.930 . S
C557 C555 1.419 . S
C557 C558 1.362 . S
C558 H550 0.930 . S
C558 C557 1.362 . S
C558 C561 1.409 . S
C559 H551 0.930 . S
C559 C560 1.355 . S
C559 C561 1.415 . S
C560 C559 1.355 . S
C560 C562 1.419 . S
C561 C556 1.425 . S
C561 C558 1.409 . S
C561 C559 1.415 . S
C562 H552 0.930 . S
C562 C560 1.419 . S
C562 C563 1.362 . S
C563 H553 0.930 . S
C563 C556 1.409 . S
C563 C562 1.362 . S
H564 C570 0.930 . S
H565 C573 0.930 . S
H566 C574 0.930 . S
H567 C575 0.930 1_554 S
H568 C578 0.930 . S
H569 C579 0.930 . S
C570 H564 0.930 . S
C570 C571 1.355 . S
C570 C572 1.415 . S
C571 C570 1.355 . S
C571 C573 1.419 . S
C572 C570 1.415 . S
C572 C577 1.425 . S
C572 C579 1.409 . S
C573 H565 0.930 . S
C573 C571 1.419 . S
C573 C574 1.362 . S
C574 H566 0.930 . S
C574 C573 1.362 . S
C574 C577 1.409 . S
C575 H567 0.930 1_556 S
C575 C576 1.355 . S
C575 C577 1.415 . S
C576 C575 1.355 . S
C576 C578 1.419 . S
C577 C572 1.425 . S
C577 C574 1.409 . S
C577 C575 1.415 . S
C578 H568 0.930 . S
C578 C576 1.419 . S
C578 C579 1.362 . S
C579 H569 0.930 . S
C579 C572 1.409 . S
C579 C578 1.362 . S
H580 C586 0.930 . S
H581 C589 0.930 . S
H582 C590 0.930 . S
H583 C591 0.930 . S
H584 C594 0.930 . S
H585 C595 0.930 . S
C586 H580 0.930 . S
C586 C587 1.355 . S
C586 C588 1.415 . S
C587 C586 1.355 . S
C587 C589 1.419 . S
C588 C586 1.415 . S
C588 C593 1.425 . S
C588 C595 1.409 . S
C589 H581 0.930 . S
C589 C587 1.419 . S
C589 C590 1.362 . S
C590 H582 0.930 . S
C590 C589 1.362 . S
C590 C593 1.409 . S
C591 H583 0.930 . S
C591 C592 1.355 . S
C591 C593 1.415 . S
C592 C591 1.355 . S
C592 C594 1.419 . S
C593 C588 1.425 . S
C593 C590 1.409 . S
C593 C591 1.415 . S
C594 H584 0.930 . S
C594 C592 1.419 . S
C594 C595 1.362 . S
C595 H585 0.930 . S
C595 C588 1.409 . S
C595 C594 1.362 . S
H596 C602 0.930 . S
H597 C605 0.930 . S
H598 C606 0.930 . S
H599 C607 0.930 . S
H600 C610 0.930 . S
H601 C611 0.930 . S
C602 H596 0.930 . S
C602 C603 1.355 . S
C602 C604 1.415 . S
C603 C602 1.355 . S
C603 C605 1.419 . S
C604 C602 1.415 . S
C604 C609 1.425 . S
C604 C611 1.409 . S
C605 H597 0.930 . S
C605 C603 1.419 . S
C605 C606 1.362 . S
C606 H598 0.930 . S
C606 C605 1.362 . S
C606 C609 1.409 . S
C607 H599 0.930 . S
C607 C608 1.355 . S
C607 C609 1.415 . S
C608 C607 1.355 . S
C608 C610 1.419 . S
C609 C604 1.425 . S
C609 C606 1.409 . S
C609 C607 1.415 . S
C610 H600 0.930 . S
C610 C608 1.419 . S
C610 C611 1.362 . S
C611 H601 0.930 . S
C611 C604 1.409 . S
C611 C610 1.362 . S
H612 C618 0.930 . S
H613 C621 0.930 . S
H614 C622 0.930 . S
H615 C623 0.930 . S
H616 C626 0.930 . S
H617 C627 0.930 . S
C618 H612 0.930 . S
C618 C619 1.355 . S
C618 C620 1.415 . S
C619 C618 1.355 . S
C619 C621 1.419 . S
C620 C618 1.415 . S
C620 C625 1.425 . S
C620 C627 1.409 . S
C621 H613 0.930 . S
C621 C619 1.419 . S
C621 C622 1.362 . S
C622 H614 0.930 . S
C622 C621 1.362 . S
C622 C625 1.409 . S
C623 H615 0.930 . S
C623 C624 1.355 . S
C623 C625 1.415 . S
C624 C623 1.355 . S
C624 C626 1.419 . S
C625 C620 1.425 . S
C625 C622 1.409 . S
C625 C623 1.415 . S
C626 H616 0.930 . S
C626 C624 1.419 . S
C626 C627 1.362 . S
C627 H617 0.930 . S
C627 C620 1.409 . S
C627 C626 1.362 . S
H628 C634 0.930 . S
H629 C637 0.930 . S
H630 C638 0.930 . S
H631 C639 0.930 . S
H632 C642 0.930 . S
H633 C643 0.930 . S
C634 H628 0.930 . S
C634 C635 1.355 . S
C634 C636 1.415 . S
C635 C634 1.355 . S
C635 C637 1.419 . S
C636 C634 1.415 . S
C636 C641 1.425 . S
C636 C643 1.409 . S
C637 H629 0.930 . S
C637 C635 1.419 . S
C637 C638 1.362 . S
C638 H630 0.930 . S
C638 C637 1.362 . S
C638 C641 1.409 . S
C639 H631 0.930 . S
C639 C640 1.355 . S
C639 C641 1.415 . S
C640 C639 1.355 . S
C640 C642 1.419 . S
C641 C636 1.425 . S
C641 C638 1.409 . S
C641 C639 1.415 . S
C642 H632 0.930 . S
C642 C640 1.419 . S
C642 C643 1.362 . S
C643 H633 0.930 . S
C643 C636 1.409 . S
C643 C642 1.362 . S
H644 C650 0.930 . S
H645 C653 0.930 . S
H646 C654 0.930 . S
H647 C655 0.930 . S
H648 C658 0.930 . S
H649 C659 0.930 . S
C650 H644 0.930 . S
C650 C651 1.355 . S
C650 C652 1.415 . S
C651 C650 1.355 . S
C651 C653 1.419 . S
C652 C650 1.415 . S
C652 C657 1.425 . S
C652 C659 1.409 . S
C653 H645 0.930 . S
C653 C651 1.419 . S
C653 C654 1.362 . S
C654 H646 0.930 . S
C654 C653 1.362 . S
C654 C657 1.409 . S
C655 H647 0.930 . S
C655 C656 1.355 . S
C655 C657 1.415 . S
C656 C655 1.355 . S
C656 C658 1.419 . S
C657 C652 1.425 . S
C657 C654 1.409 . S
C657 C655 1.415 . S
C658 H648 0.930 . S
C658 C656 1.419 . S
C658 C659 1.362 . S
C659 H649 0.930 . S
C659 C652 1.409 . S
C659 C658 1.362 . S
H660 C666 0.930 . S
H661 C669 0.930 . S
H662 C670 0.930 . S
H663 C671 0.930 . S
H664 C674 0.930 . S
H665 C675 0.930 . S
C666 H660 0.930 . S
C666 C667 1.355 . S
C666 C668 1.415 . S
C667 C666 1.355 . S
C667 C669 1.419 . S
C668 C666 1.415 . S
C668 C673 1.425 . S
C668 C675 1.409 . S
C669 H661 0.930 . S
C669 C667 1.419 . S
C669 C670 1.362 . S
C670 H662 0.930 . S
C670 C669 1.362 . S
C670 C673 1.409 . S
C671 H663 0.930 . S
C671 C672 1.355 . S
C671 C673 1.415 . S
C672 C671 1.355 . S
C672 C674 1.419 . S
C673 C668 1.425 . S
C673 C670 1.409 . S
C673 C671 1.415 . S
C674 H664 0.930 . S
C674 C672 1.419 . S
C674 C675 1.362 . S
C675 H665 0.930 . S
C675 C668 1.409 . S
C675 C674 1.362 . S
H676 C682 0.930 . S
H677 C685 0.930 . S
H678 C686 0.930 . S
H679 C687 0.930 . S
H680 C690 0.930 . S
H681 C691 0.930 . S
C682 H676 0.930 . S
C682 C683 1.355 . S
C682 C684 1.415 . S
C683 C682 1.355 . S
C683 C685 1.419 . S
C684 C682 1.415 . S
C684 C689 1.425 . S
C684 C691 1.409 1_554 S
C685 H677 0.930 . S
C685 C683 1.419 . S
C685 C686 1.362 . S
C686 H678 0.930 . S
C686 C685 1.362 . S
C686 C689 1.409 . S
C687 H679 0.930 . S
C687 C688 1.355 1_554 S
C687 C689 1.415 . S
C688 C687 1.355 1_556 S
C688 C690 1.419 . S
C689 C684 1.425 . S
C689 C686 1.409 . S
C689 C687 1.415 . S
C690 H680 0.930 . S
C690 C688 1.419 . S
C690 C691 1.362 . S
C691 H681 0.930 . S
C691 C684 1.409 1_556 S
C691 C690 1.362 . S
H692 C698 0.930 . S
H693 C701 0.930 . S
H694 C702 0.930 . S
H695 C703 0.930 . S
H696 C706 0.930 . S
H697 C707 0.930 . S
C698 H692 0.930 . S
C698 C699 1.355 . S
C698 C700 1.415 . S
C699 C698 1.355 . S
C699 C701 1.419 . S
C700 C698 1.415 . S
C700 C705 1.425 . S
C700 C707 1.409 . S
C701 H693 0.930 . S
C701 C699 1.419 . S
C701 C702 1.362 . S
C702 H694 0.930 . S
C702 C701 1.362 . S
C702 C705 1.409 . S
C703 H695 0.930 . S
C703 C704 1.355 . S
C703 C705 1.415 . S
C704 C703 1.355 . S
C704 C706 1.419 . S
C705 C700 1.425 . S
C705 C702 1.409 . S
C705 C703 1.415 . S
C706 H696 0.930 . S
C706 C704 1.419 . S
C706 C707 1.362 . S
C707 H697 0.930 . S
C707 C700 1.409 . S
C707 C706 1.362 . S
C336 C291 1.565 . S
C331 C8 1.526 . S
C347 C26 1.574 . S
C352 C111 1.595 . S
C363 C50 1.520 . S
C368 C158 1.567 . S
C379 C68 1.458 . S
C384 C194 1.485 . S
C400 C219 1.549 . S
C395 C80 1.524 . S
C411 C104 1.487 . S
C416 C255 1.556 . S
C427 C32 1.531 . S
C432 C147 1.588 . S
C443 C44 1.493 . S
C448 C183 1.541 . S
C459 C62 1.457 . S
C464 C230 1.455 . S
C480 C266 1.534 . S
C475 C86 1.460 1_554 S
C496 C302 1.488 . S
C491 C98 1.539 . S
C512 C122 1.551 . S
C507 C14 1.489 . S
C523 C7 1.437 . S
C528 C146 1.476 . S
C539 C25 1.444 . S
C544 C182 1.513 . S
C560 C220 1.494 . S
C555 C52 1.424 . S
C571 C70 1.496 . S
C576 C256 1.513 1_556 S
C592 C292 1.467 . S
C587 C79 1.391 . S
C608 C112 1.451 . S
C603 C106 1.415 . S
C624 C290 1.468 . S
C619 C34 1.431 . S
C635 C43 1.463 . S
C640 C110 1.478 . S
C656 C148 1.494 . S
C651 C61 1.430 . S
C667 C88 1.422 . S
C672 C184 1.490 . S
C683 C97 1.456 . S
C688 C218 1.520 . S
C699 C16 1.450 . S
C704 C254 1.514 . S
