# Generated by pormake.
# Topology pth, (4,4)-cn, num edge types: 1
# Building blocks:
#     Node 0, Type 0, BuildingBlock: KUFVIS_clean_sbu_0, # of connection points: 4
#     Node 1, Type 0, BuildingBlock: KUFVIS_clean_sbu_0, # of connection points: 4
#     Node 2, Type 0, BuildingBlock: KUFVIS_clean_sbu_0, # of connection points: 4
#     Node 3, Type 1, BuildingBlock: NAHDIM_clean_linker_0, # of connection points: 4
#     Node 4, Type 1, BuildingBlock: NAHDIM_clean_linker_0, # of connection points: 4
#     Node 5, Type 1, BuildingBlock: NAHDIM_clean_linker_0, # of connection points: 4
#     Edge 6, Type (0, 1), BuildingBlock: AJUNOK_clean_linker_0, # of connection points: 2
#     Edge 7, Type (0, 1), BuildingBlock: AJUNOK_clean_linker_0, # of connection points: 2
#     Edge 8, Type (0, 1), BuildingBlock: AJUNOK_clean_linker_0, # of connection points: 2
#     Edge 9, Type (0, 1), BuildingBlock: AJUNOK_clean_linker_0, # of connection points: 2
#     Edge 10, Type (0, 1), BuildingBlock: AJUNOK_clean_linker_0, # of connection points: 2
#     Edge 11, Type (0, 1), BuildingBlock: AJUNOK_clean_linker_0, # of connection points: 2
#     Edge 12, Type (0, 1), BuildingBlock: AJUNOK_clean_linker_0, # of connection points: 2
#     Edge 13, Type (0, 1), BuildingBlock: AJUNOK_clean_linker_0, # of connection points: 2
#     Edge 14, Type (0, 1), BuildingBlock: AJUNOK_clean_linker_0, # of connection points: 2
#     Edge 15, Type (0, 1), BuildingBlock: AJUNOK_clean_linker_0, # of connection points: 2
#     Edge 16, Type (0, 1), BuildingBlock: AJUNOK_clean_linker_0, # of connection points: 2
#     Edge 17, Type (0, 1), BuildingBlock: AJUNOK_clean_linker_0, # of connection points: 2
# Relax obj value: 0.014
# Max RMSD: 0.083
# Mean RMSD: 0.063
data_MOF--net-pth--node1-KUFVIS_clean_sbu_0--node2-NAHDIM_clean_linker_0--edge1-AJUNOK_clean_linker_0
_symmetry_space_group_name_H-M    P1
_symmetry_Int_Tables_number       1
_symmetry_cell_setting            triclinic
loop_
_symmetry_equiv_pos_as_xyz
'x, y, z'
_cell_length_a     25.581926
_cell_length_b     25.622342
_cell_length_c     66.263035
_cell_angle_alpha  89.955562
_cell_angle_beta   92.696101
_cell_angle_gamma 120.31243
loop_
_atom_site_label
_atom_site_type_symbol
_atom_site_fract_x
_atom_site_fract_y
_atom_site_fract_z
_atom_type_partial_charge
Mn0 Mn 0.06787 0.08861 0.07686 0.0
Mn1 Mn 0.02487 0.17284 0.04923 0.0
C2 C 0.00586 0.04724 0.04807 0.0
C3 C 0.05485 0.0263 0.10407 0.0
C4 C 0.14897 0.1856 0.04761 0.0
O5 O 0.08758 0.15866 0.09592 0.0
O6 O 0.05455 0.21002 0.07681 0.0
C7 C 0.91904 0.15039 0.07207 0.0
N8 N 0.94285 0.14845 0.05432 0.0
C9 C 0.84646 0.11111 0.03614 0.0
C10 C 0.82095 0.11307 0.0542 0.0
C11 C 0.85735 0.13249 0.07226 0.0
C12 C 0.90807 0.12904 0.03692 0.0
H13 H 0.94695 0.16556 0.08595 0.0
C14 C 0.07793 0.20237 0.09325 0.0
O15 O 0.10736 0.05861 0.09645 0.0
O16 O 0.0099 0.03012 0.09583 0.0
N17 N 0.99496 0.14321 0.02219 0.0
C18 C 0.0266 0.14409 0.00609 0.0
C19 C 0.99674 0.12559 0.98689 0.0
C20 C 0.93496 0.10725 0.98439 0.0
C21 C 0.90352 0.10746 0.00114 0.0
C22 C 0.93575 0.12661 0.01988 0.0
H23 H 0.07422 0.15866 0.00787 0.0
O24 O 0.03697 0.02373 0.0555 0.0
O25 O 0.01084 0.09358 0.05797 0.0
O26 O 0.13994 0.14429 0.0601 0.0
O27 O 0.10909 0.20002 0.04269 0.0
C28 C 0.84157 0.08974 -5e-05 0.0
C29 C 0.81301 0.09133 0.01746 0.0
H30 H 0.7734 0.09935 0.05441 0.0
H31 H 0.83793 0.13385 0.08627 0.0
H32 H 0.02133 0.1257 0.97402 0.0
H33 H 0.91229 0.09349 0.96952 0.0
H34 H 0.81542 0.07469 0.98567 0.0
H35 H 0.76524 0.07712 0.01639 0.0
Mn36 Mn 0.00711 0.0585 0.40422 0.0
Mn37 Mn 0.06167 0.19225 0.4291 0.0
C38 C 0.05341 0.07334 0.43616 0.0
C39 C 0.02001 0.996 0.38199 0.0
C40 C 0.92761 0.09758 0.42483 0.0
O41 O 0.01079 0.11501 0.38194 0.0
O42 O 0.05543 0.20353 0.39955 0.0
C43 C 0.18547 0.25469 0.41396 0.0
N44 N 0.14835 0.23557 0.42971 0.0
C45 C 0.23378 0.2786 0.45385 0.0
C46 C 0.27286 0.3004 0.43788 0.0
C47 C 0.24859 0.28794 0.41785 0.0
C48 C 0.17126 0.24609 0.44904 0.0
H49 H 0.16708 0.2441 0.39855 0.0
C50 C 0.03474 0.17249 0.38296 0.0
O51 O 0.96639 0.98636 0.38554 0.0
O52 O 0.06594 0.0433 0.39071 0.0
N53 N 0.07101 0.1882 0.45781 0.0
C54 C 0.02728 0.16199 0.47147 0.0
C55 C 0.04408 0.16837 0.4922 0.0
C56 C 0.1056 0.20181 0.49868 0.0
C57 C 0.14982 0.22856 0.48437 0.0
C58 C 0.13031 0.2212 0.46393 0.0
H59 H 0.97995 0.1361 0.46662 0.0
O60 O 0.01703 0.01896 0.42902 0.0
O61 O 0.06191 0.11706 0.42434 0.0
O62 O 0.93391 0.05783 0.41548 0.0
O63 O 0.97215 0.15002 0.42992 0.0
C64 C 0.21249 0.26176 0.48958 0.0
C65 C 0.25445 0.28666 0.47433 0.0
H66 H 0.32158 0.32565 0.44082 0.0
H67 H 0.27846 0.30356 0.40543 0.0
H68 H 0.0097 0.14743 0.50314 0.0
H69 H 0.11835 0.20644 0.51468 0.0
H70 H 0.22894 0.2679 0.50526 0.0
H71 H 0.30254 0.31141 0.4785 0.0
Mn72 Mn 0.05308 0.065 0.74216 0.0
Mn73 Mn 0.97415 0.11938 0.76465 0.0
C74 C 0.08764 0.11526 0.77307 0.0
C75 C 0.12711 0.07797 0.72021 0.0
C76 C 0.93561 0.9862 0.76324 0.0
O77 O 0.99715 0.0647 0.71919 0.0
O78 O 0.95264 0.10846 0.73512 0.0
C79 C 0.02768 0.24004 0.74645 0.0
N80 N 0.01581 0.20553 0.76313 0.0
C81 C 0.06214 0.29381 0.78518 0.0
C82 C 0.0745 0.33027 0.76823 0.0
C83 C 0.05734 0.30326 0.74879 0.0
C84 C 0.03219 0.23106 0.78191 0.0
H85 H 0.01458 0.21949 0.73147 0.0
C86 C 0.96177 0.08635 0.71921 0.0
O87 O 0.08441 0.02435 0.72479 0.0
O88 O 0.12553 0.12358 0.72793 0.0
N89 N 0.99183 0.13274 0.7932 0.0
C90 C 0.97721 0.09122 0.80794 0.0
C91 C 0.99237 0.11093 0.82825 0.0
C92 C 0.02199 0.17302 0.83321 0.0
C93 C 0.03597 0.21486 0.8178 0.0
C94 C 0.01945 0.19253 0.79783 0.0
H95 H 0.95442 0.04344 0.80422 0.0
O96 O 0.10553 0.07878 0.76722 0.0
O97 O 0.05023 0.12109 0.76064 0.0
O98 O 0.98156 0.99211 0.75446 0.0
O99 O 0.92809 0.03059 0.76736 0.0
C100 C 0.06607 0.27786 0.82144 0.0
C101 C 0.07914 0.3173 0.80515 0.0
H102 H 0.09766 0.37907 0.76997 0.0
H103 H 0.06702 0.33111 0.73563 0.0
H104 H 0.98139 0.07837 0.84007 0.0
H105 H 0.03391 0.18805 0.84889 0.0
H106 H 0.07962 0.29648 0.83672 0.0
H107 H 0.10264 0.36566 0.80813 0.0
C108 C 0.09075 0.79782 0.36304 0.0
C109 C 0.07375 0.8235 0.34459 0.0
C110 C 0.03185 0.73666 0.32061 0.0
C111 C 0.08784 0.74358 0.31561 0.0
C112 C 0.09039 0.7013 0.30289 0.0
C113 C 0.03594 0.65038 0.29521 0.0
C114 C 0.9795 0.64265 0.30042 0.0
C115 C 0.97826 0.68632 0.31289 0.0
C116 C 0.15151 0.71122 0.29764 0.0
C117 C 0.92063 0.58855 0.29266 0.0
C118 C 0.12283 0.26579 0.2951 0.0
C119 C 0.0853 0.28963 0.3046 0.0
C120 C 0.10244 0.39289 0.29983 0.0
C121 C 0.0416 0.37773 0.2967 0.0
C122 C 0.02703 0.42114 0.28995 0.0
C123 C 0.07414 0.48081 0.28659 0.0
C124 C 0.1352 0.49684 0.29086 0.0
C125 C 0.14842 0.45258 0.29744 0.0
C126 C 0.96144 0.40298 0.28584 0.0
C127 C 0.1866 0.56025 0.28784 0.0
C128 C 0.1427 0.46976 0.15922 0.0
C129 C 0.08115 0.43875 0.16336 0.0
C130 C 0.05548 0.46866 0.17299 0.0
C131 C 0.09288 0.53017 0.17916 0.0
C132 C 0.15446 0.56197 0.17416 0.0
C133 C 0.1782 0.53144 0.16387 0.0
C134 C 0.98903 0.434 0.17717 0.0
C135 C 0.19574 0.62774 0.18016 0.0
C136 C 0.97293 0.87934 0.18775 0.0
C137 C 0.01332 0.87068 0.17341 0.0
C138 C 0.00013 0.76895 0.17278 0.0
C139 C 0.95387 0.70887 0.17421 0.0
C140 C 0.96642 0.66439 0.1812 0.0
C141 C 0.02694 0.68058 0.18669 0.0
C142 C 0.0744 0.74068 0.18423 0.0
C143 C 0.06057 0.78416 0.17708 0.0
C144 C 0.91486 0.60052 0.18331 0.0
C145 C 0.13957 0.75919 0.18956 0.0
C146 C 0.03874 0.60682 0.28116 0.0
C147 C 0.04906 0.56226 0.28938 0.0
C148 C 0.06011 0.52508 0.277 0.0
C149 C 0.06122 0.53254 0.25583 0.0
C150 C 0.07546 0.49819 0.24306 0.0
C151 C 0.07898 0.50752 0.2224 0.0
C152 C 0.06619 0.55001 0.2135 0.0
C153 C 0.06975 0.55987 0.19245 0.0
C154 C 0.05578 0.60184 0.1841 0.0
C155 C 0.04007 0.63576 0.19632 0.0
C156 C 0.03836 0.62797 0.21748 0.0
C157 C 0.02559 0.66338 0.23031 0.0
C158 C 0.02578 0.65664 0.25115 0.0
C159 C 0.03731 0.61324 0.25995 0.0
C160 C 0.04916 0.57632 0.24728 0.0
C161 C 0.0507 0.58439 0.22604 0.0
C162 C 0.22839 0.40158 0.16439 0.0
C163 C 0.16478 0.38818 0.1575 0.0
O164 O 0.02741 0.77698 0.33278 0.0
O165 O 0.98465 0.81051 0.167 0.0
O166 O 0.16895 0.44129 0.1507 0.0
O167 O 0.11947 0.35225 0.30524 0.0
H168 H 0.11416 0.84899 0.33549 0.0
H169 H 0.10722 0.76741 0.35823 0.0
H170 H 0.05082 0.77163 0.37228 0.0
H171 H 0.12759 0.83505 0.37258 0.0
H172 H 0.12998 0.78188 0.32141 0.0
H173 H 0.93524 0.6811 0.31682 0.0
H174 H 0.15808 0.67511 0.30435 0.0
H175 H 0.18946 0.7557 0.30336 0.0
H176 H 0.15361 0.70839 0.28101 0.0
H177 H 0.88069 0.58655 0.29938 0.0
H178 H 0.92095 0.54627 0.29608 0.0
H179 H 0.9157 0.59043 0.27599 0.0
H180 H 0.04359 0.27337 0.29461 0.0
H181 H 0.09641 0.21567 0.29349 0.0
H182 H 0.16509 0.27948 0.30453 0.0
H183 H 0.1354 0.28454 0.27981 0.0
H184 H 0.00535 0.33239 0.2994 0.0
H185 H 0.19515 0.46407 0.3003 0.0
H186 H 0.951 0.43333 0.29454 0.0
H187 H 0.92992 0.35545 0.28991 0.0
H188 H 0.95326 0.4082 0.26955 0.0
H189 H 0.23128 0.56638 0.29312 0.0
H190 H 0.17893 0.59318 0.29614 0.0
H191 H 0.18811 0.57089 0.27156 0.0
H192 H 0.13611 0.37173 0.17081 0.0
H193 H 0.0534 0.39125 0.15909 0.0
H194 H 0.22543 0.55499 0.16019 0.0
H195 H 0.98397 0.42229 0.19336 0.0
H196 H 0.96405 0.39138 0.16794 0.0
H197 H 0.96791 0.46206 0.17404 0.0
H198 H 0.24375 0.64402 0.17695 0.0
H199 H 0.19328 0.63508 0.19652 0.0
H200 H 0.18063 0.65549 0.17164 0.0
H201 H 0.05604 0.88395 0.18242 0.0
H202 H 0.99424 0.92769 0.19255 0.0
H203 H 0.96702 0.85227 0.20145 0.0
H204 H 0.92737 0.86423 0.18046 0.0
H205 H 0.90751 0.69727 0.17041 0.0
H206 H 0.09715 0.82974 0.17486 0.0
H207 H 0.91049 0.58902 0.19953 0.0
H208 H 0.92458 0.56834 0.17544 0.0
H209 H 0.87093 0.59422 0.17704 0.0
H210 H 0.17123 0.80789 0.18701 0.0
H211 H 0.15264 0.73197 0.1803 0.0
H212 H 0.14474 0.74986 0.20568 0.0
H213 H 0.0505 0.55782 0.30566 0.0
H214 H 0.08513 0.46433 0.24892 0.0
H215 H 0.09166 0.48064 0.21351 0.0
H216 H 0.05848 0.60915 0.16796 0.0
H217 H 0.01615 0.69738 0.22445 0.0
H218 H 0.01652 0.68583 0.26024 0.0
H219 H 0.25882 0.41755 0.15157 0.0
H220 H 0.22691 0.36056 0.17056 0.0
H221 H 0.24766 0.43737 0.17649 0.0
C222 C 0.3932 0.14194 0.69965 0.0
C223 C 0.34564 0.11967 0.68192 0.0
C224 C 0.37743 0.06433 0.65991 0.0
C225 C 0.42845 0.11567 0.65275 0.0
C226 C 0.46511 0.1098 0.6389 0.0
C227 C 0.45082 0.05154 0.63211 0.0
C228 C 0.40041 0.99978 0.63957 0.0
C229 C 0.36424 0.00694 0.65333 0.0
C230 C 0.51865 0.16598 0.63123 0.0
C231 C 0.38424 0.93702 0.63272 0.0
C232 C 0.88973 0.10816 0.62302 0.0
C233 C 0.85255 0.10308 0.64118 0.0
C234 C 0.74365 0.05302 0.63065 0.0
C235 C 0.68841 0.99883 0.63133 0.0
C236 C 0.63393 0.9944 0.62395 0.0
C237 C 0.63469 0.04597 0.61595 0.0
C238 C 0.69041 0.10118 0.61527 0.0
C239 C 0.74442 0.10378 0.62216 0.0
C240 C 0.57558 0.93459 0.62469 0.0
C241 C 0.69313 0.15767 0.60725 0.0
C242 C 0.64818 0.05747 0.48249 0.0
C243 C 0.59338 0.00297 0.48465 0.0
C244 C 0.55099 0.99951 0.4981 0.0
C245 C 0.56304 0.05186 0.50923 0.0
C246 C 0.61631 0.10762 0.50608 0.0
C247 C 0.65826 0.10955 0.49277 0.0
C248 C 0.49408 0.93962 0.50084 0.0
C249 C 0.62976 0.16482 0.51719 0.0
C250 C 0.19361 0.1243 0.52664 0.0
C251 C 0.21531 0.11291 0.50681 0.0
C252 C 0.27441 0.06259 0.51412 0.0
C253 C 0.27311 0.0076 0.51245 0.0
C254 C 0.32401 0.00289 0.51821 0.0
C255 C 0.37785 0.05487 0.52564 0.0
C256 C 0.38001 0.11103 0.52706 0.0
C257 C 0.32799 0.11415 0.52165 0.0
C258 C 0.31999 0.9422 0.51664 0.0
C259 C 0.43698 0.16765 0.53467 0.0
C260 C 0.48686 0.04519 0.61638 0.0
C261 C 0.53958 0.04458 0.62251 0.0
C262 C 0.57735 0.04239 0.60835 0.0
C263 C 0.56208 0.04041 0.58744 0.0
C264 C 0.59848 0.03736 0.57276 0.0
C265 C 0.58496 0.03901 0.55227 0.0
C266 C 0.53425 0.04334 0.54564 0.0
C267 C 0.52161 0.04787 0.52489 0.0
C268 C 0.47022 0.05102 0.51882 0.0
C269 C 0.43084 0.04991 0.53297 0.0
C270 C 0.44309 0.0461 0.55379 0.0
C271 C 0.40462 0.04533 0.56842 0.0
C272 C 0.41861 0.04461 0.5889 0.0
C273 C 0.47114 0.04371 0.59556 0.0
C274 C 0.5093 0.04207 0.58106 0.0
C275 C 0.49535 0.04348 0.56014 0.0
C276 C 0.70963 0.98096 0.48152 0.0
C277 C 0.70001 0.01493 0.4639 0.0
O278 O 0.33985 0.06782 0.67306 0.0
O279 O 0.22289 0.06323 0.50853 0.0
O280 O 0.69294 0.06177 0.47106 0.0
O281 O 0.79441 0.05377 0.63829 0.0
H282 H 0.35964 0.15543 0.67049 0.0
H283 H 0.43801 0.15265 0.69439 0.0
H284 H 0.37967 0.10669 0.71125 0.0
H285 H 0.39831 0.18369 0.70672 0.0
H286 H 0.44006 0.16058 0.65773 0.0
H287 H 0.32509 0.96756 0.65896 0.0
H288 H 0.56087 0.16464 0.63462 0.0
H289 H 0.52409 0.20811 0.63809 0.0
H290 H 0.51304 0.16752 0.61456 0.0
H291 H 0.34572 0.90128 0.6408 0.0
H292 H 0.42414 0.93106 0.63522 0.0
H293 H 0.37187 0.93099 0.61625 0.0
H294 H 0.85213 0.1461 0.64213 0.0
H295 H 0.93803 0.14354 0.62603 0.0
H296 H 0.87183 0.12106 0.60951 0.0
H297 H 0.8865 0.06426 0.61944 0.0
H298 H 0.68813 0.95973 0.6377 0.0
H299 H 0.78661 0.14568 0.62074 0.0
H300 H 0.5509 0.92266 0.60963 0.0
H301 H 0.54594 0.93837 0.6356 0.0
H302 H 0.58346 0.89737 0.62937 0.0
H303 H 0.73761 0.19887 0.61109 0.0
H304 H 0.65682 0.1637 0.61339 0.0
H305 H 0.68591 0.15351 0.59055 0.0
H306 H 0.65889 0.98319 0.45444 0.0
H307 H 0.5839 0.96274 0.47621 0.0
H308 H 0.70012 0.15163 0.49074 0.0
H309 H 0.49126 0.9273 0.51699 0.0
H310 H 0.49227 0.90258 0.49156 0.0
H311 H 0.45375 0.94354 0.49655 0.0
H312 H 0.66898 0.20559 0.5112 0.0
H313 H 0.64013 0.16161 0.53345 0.0
H314 H 0.58949 0.17054 0.51609 0.0
H315 H 0.25881 0.15464 0.50406 0.0
H316 H 0.18135 0.15992 0.52476 0.0
H317 H 0.2306 0.14001 0.53862 0.0
H318 H 0.15412 0.08229 0.53184 0.0
H319 H 0.23161 0.96803 0.50673 0.0
H320 H 0.32981 0.15688 0.52364 0.0
H321 H 0.33239 0.93048 0.53155 0.0
H322 H 0.35285 0.94454 0.5058 0.0
H323 H 0.27388 0.90553 0.51149 0.0
H324 H 0.43428 0.20905 0.53196 0.0
H325 H 0.47699 0.17216 0.52722 0.0
H326 H 0.4444 0.1647 0.55117 0.0
H327 H 0.55204 0.04715 0.63852 0.0
H328 H 0.63829 0.0344 0.57697 0.0
H329 H 0.61509 0.03732 0.54169 0.0
H330 H 0.4611 0.05504 0.50291 0.0
H331 H 0.3636 0.04608 0.56423 0.0
H332 H 0.38778 0.0451 0.59944 0.0
H333 H 0.71812 0.94542 0.47567 0.0
H334 H 0.6691 0.95824 0.49063 0.0
H335 H 0.74898 0.01278 0.49162 0.0
C336 C 0.74288 0.69749 0.76376 0.0
C337 C 0.74991 0.73877 0.78163 0.0
C338 C 0.72987 0.68839 0.81415 0.0
C339 C 0.68523 0.70013 0.82068 0.0
C340 C 0.6467 0.66568 0.83584 0.0
C341 C 0.65361 0.61926 0.84483 0.0
C342 C 0.70019 0.6091 0.83886 0.0
C343 C 0.73807 0.64424 0.82369 0.0
C344 C 0.59842 0.67862 0.84222 0.0
C345 C 0.7093 0.56049 0.84832 0.0
C346 C 0.19958 0.27542 0.85841 0.0
C347 C 0.22995 0.29069 0.83812 0.0
C348 C 0.34039 0.34256 0.84585 0.0
C349 C 0.3916 0.33641 0.84539 0.0
C350 C 0.44943 0.38416 0.85161 0.0
C351 C 0.45609 0.43964 0.85833 0.0
C352 C 0.40472 0.44677 0.85843 0.0
C353 C 0.34735 0.39802 0.85245 0.0
C354 C 0.50318 0.37495 0.85147 0.0
C355 C 0.41018 0.50563 0.86528 0.0
C356 C 0.43178 0.41039 0.98952 0.0
C357 C 0.48582 0.41001 0.98695 0.0
C358 C 0.53057 0.45302 0.97489 0.0
C359 C 0.52139 0.49764 0.96555 0.0
C360 C 0.46873 0.50031 0.96918 0.0
C361 C 0.42462 0.45653 0.98114 0.0
C362 C 0.58673 0.44965 0.97156 0.0
C363 C 0.45807 0.54812 0.95986 0.0
C364 C 0.83319 0.95299 0.96497 0.0
C365 C 0.82492 0.91204 0.98287 0.0
C366 C 0.78821 0.8098 0.96877 0.0
C367 C 0.8019 0.76367 0.9671 0.0
C368 C 0.75872 0.70627 0.95907 0.0
C369 C 0.70067 0.69519 0.95235 0.0
C370 C 0.68671 0.74188 0.95368 0.0
C371 C 0.73051 0.79862 0.96188 0.0
C372 C 0.77494 0.65741 0.95779 0.0
C373 C 0.62528 0.73172 0.94649 0.0
C374 C 0.61116 0.58013 0.86006 0.0
C375 C 0.55718 0.52881 0.85306 0.0
C376 C 0.51578 0.48916 0.86654 0.0
C377 C 0.5293 0.49953 0.88758 0.0
C378 C 0.49038 0.4585 0.90151 0.0
C379 C 0.50248 0.47037 0.92218 0.0
C380 C 0.5534 0.52427 0.92972 0.0
C381 C 0.56414 0.53833 0.95068 0.0
C382 C 0.61391 0.59325 0.95764 0.0
C383 C 0.6538 0.6347 0.94417 0.0
C384 C 0.64506 0.62052 0.9232 0.0
C385 C 0.68529 0.66039 0.90928 0.0
C386 C 0.67506 0.64675 0.88861 0.0
C387 C 0.62344 0.59344 0.88106 0.0
C388 C 0.58251 0.55262 0.89485 0.0
C389 C 0.59401 0.56554 0.91595 0.0
C390 C 0.36572 0.27058 0.98673 0.0
C391 C 0.37521 0.31084 0.00533 0.0
O392 O 0.76651 0.7193 0.79903 0.0
O393 O 0.83188 0.86407 0.97697 0.0
O394 O 0.38494 0.36702 -0.00041 0.0
O395 O 0.28563 0.29379 0.84007 0.0
H396 H 0.70482 0.73459 0.78276 0.0
H397 H 0.70574 0.65069 0.76632 0.0
H398 H 0.78523 0.69631 0.76195 0.0
H399 H 0.73121 0.71337 0.74956 0.0
H400 H 0.68067 0.73648 0.81417 0.0
H401 H 0.77344 0.63636 0.81884 0.0
H402 H 0.55295 0.63818 0.83897 0.0
H403 H 0.60027 0.71771 0.83431 0.0
H404 H 0.60365 0.68805 0.85877 0.0
H405 H 0.74777 0.55841 0.84207 0.0
H406 H 0.66738 0.51579 0.84577 0.0
H407 H 0.71797 0.56895 0.8649 0.0
H408 H 0.23549 0.33498 0.83374 0.0
H409 H 0.15218 0.26587 0.85641 0.0
H410 H 0.22465 0.31438 0.86922 0.0
H411 H 0.19975 0.23591 0.86522 0.0
H412 H 0.38594 0.29355 0.84033 0.0
H413 H 0.30849 0.40379 0.85329 0.0
H414 H 0.52514 0.38326 0.86691 0.0
H415 H 0.53726 0.40811 0.8414 0.0
H416 H 0.49025 0.3286 0.84622 0.0
H417 H 0.36795 0.50686 0.86172 0.0
H418 H 0.44827 0.54435 0.858 0.0
H419 H 0.42013 0.5118 0.88187 0.0
H420 H 0.41497 0.31708 0.01488 0.0
H421 H 0.49289 0.37577 0.99396 0.0
H422 H 0.38324 0.45704 0.98351 0.0
H423 H 0.58839 0.44079 0.95526 0.0
H424 H 0.58818 0.41353 0.98041 0.0
H425 H 0.62777 0.4937 0.97584 0.0
H426 H 0.41718 0.54688 0.96543 0.0
H427 H 0.45227 0.54139 0.94318 0.0
H428 H 0.49805 0.59364 0.96326 0.0
H429 H 0.77858 0.89462 0.98818 0.0
H430 H 0.82453 0.98948 0.96953 0.0
H431 H 0.80057 0.92682 0.95221 0.0
H432 H 0.87969 0.97346 0.95947 0.0
H433 H 0.84655 0.77266 0.97233 0.0
H434 H 0.71911 0.83381 0.96272 0.0
H435 H 0.76933 0.64129 0.94185 0.0
H436 H 0.74355 0.61819 0.96671 0.0
H437 H 0.82227 0.67333 0.96351 0.0
H438 H 0.62191 0.77304 0.94817 0.0
H439 H 0.5896 0.69518 0.95523 0.0
H440 H 0.61586 0.71682 0.93034 0.0
H441 H 0.54684 0.52013 0.83692 0.0
H442 H 0.45 0.41671 0.89659 0.0
H443 H 0.47075 0.43713 0.93214 0.0
H444 H 0.62059 0.6047 0.97368 0.0
H445 H 0.72519 0.70255 0.91423 0.0
H446 H 0.70748 0.67908 0.87859 0.0
H447 H 0.32803 0.26644 0.97651 0.0
H448 H 0.35475 0.22469 0.9915 0.0
H449 H 0.40723 0.28943 0.97809 0.0
C450 C 0.11915 0.30909 0.10513 0.0
C451 C 0.09658 0.24805 0.10976 0.0
C452 C 0.14031 0.35394 0.12042 0.0
C453 C 0.138 0.33922 0.14098 0.0
H454 H 0.12226 0.32263 0.08954 0.0
H455 H 0.15919 0.40048 0.11601 0.0
S456 S 0.08059 0.18553 0.16107 0.0
N457 N 0.07221 0.1749 0.13628 0.0
N458 N 0.11018 0.25896 0.16508 0.0
C459 C 0.11436 0.27809 0.14577 0.0
C460 C 0.094 0.23259 0.13018 0.0
C461 C 0.86164 0.11585 0.44712 0.0
C462 C 0.86678 0.08014 0.43205 0.0
C463 C 0.80726 0.09602 0.45665 0.0
C464 C 0.75508 0.04033 0.45116 0.0
H465 H 0.90067 0.15829 0.45238 0.0
H466 H 0.80683 0.12363 0.46893 0.0
S467 S 0.74204 0.93233 0.41126 0.0
N468 N 0.81312 0.98802 0.41109 0.0
N469 N 0.71086 0.95132 0.42893 0.0
C470 C 0.75857 0.00559 0.43544 0.0
C471 C 0.81419 0.02544 0.42584 0.0
C472 C 0.90285 0.8789 0.77159 0.0
C473 C 0.88818 0.92456 0.76874 0.0
C474 C 0.85857 0.81991 0.77623 0.0
C475 C 0.79759 0.80388 0.77789 0.0
H476 H 0.94899 0.88875 0.77028 0.0
H477 H 0.87202 0.7863 0.77829 0.0
S478 S 0.73535 0.90655 0.77201 0.0
N479 N 0.80824 0.94978 0.76826 0.0
N480 N 0.72506 0.83878 0.77666 0.0
C481 C 0.7824 0.84921 0.77531 0.0
C482 C 0.82761 0.90949 0.77082 0.0
C483 C 0.98772 0.93936 0.12521 0.0
C484 C 0.0462 0.98681 0.12143 0.0
C485 C 0.97785 0.90164 0.14166 0.0
C486 C 0.0259 0.91055 0.15521 0.0
H487 H 0.94916 0.93095 0.11532 0.0
H488 H 0.93207 0.86545 0.14389 0.0
S489 S 0.1878 0.02848 0.15201 0.0
N490 N 0.15308 0.04028 0.13242 0.0
N491 N 0.13435 0.97012 0.16357 0.0
C492 C 0.08471 0.95764 0.15152 0.0
C493 C 0.09489 0.99559 0.1346 0.0
C494 C 0.07022 0.06046 0.47276 0.0
C495 C 0.09384 0.08291 0.45397 0.0
C496 C 0.10892 0.07011 0.48984 0.0
C497 C 0.17258 0.10242 0.48859 0.0
H498 H 0.02165 0.03636 0.47434 0.0
H499 H 0.0885 0.05229 0.50401 0.0
S500 S 0.25479 0.15524 0.44138 0.0
N501 N 0.18292 0.12843 0.43412 0.0
N502 N 0.25596 0.14658 0.46606 0.0
C503 C 0.19595 0.12048 0.46939 0.0
C504 C 0.15657 0.11084 0.45212 0.0
C505 C 0.1266 0.14012 0.80903 0.0
C506 C 0.12201 0.1594 0.78957 0.0
C507 C 0.16081 0.18216 0.8247 0.0
C508 C 0.19168 0.24496 0.82135 0.0
H509 H 0.10312 0.09232 0.8122 0.0
H510 H 0.16301 0.16504 0.83944 0.0
S511 S 0.20534 0.31636 0.77161 0.0
N512 N 0.15869 0.24351 0.76683 0.0
N513 N 0.22285 0.32284 0.79613 0.0
C514 C 0.19049 0.26405 0.80149 0.0
C515 C 0.15565 0.22125 0.78564 0.0
C516 C 0.94036 0.06487 0.68178 0.0
C517 C 0.93133 0.0882 0.6997 0.0
C518 C 0.91474 0.06872 0.66305 0.0
C519 C 0.88006 0.0974 0.66134 0.0
H520 H 0.96779 0.04363 0.68212 0.0
H521 H 0.92303 0.04954 0.64991 0.0
S522 S 0.83664 0.1598 0.70372 0.0
N523 N 0.88037 0.13651 0.71456 0.0
N524 N 0.83303 0.14403 0.67939 0.0
C525 C 0.86846 0.11848 0.67921 0.0
C526 C 0.89409 0.11421 0.69831 0.0
C527 C 0.97666 0.00157 0.01334 0.0
C528 C 0.95985 0.01505 0.0316 0.0
C529 C 0.93309 0.96887 0.99774 0.0
C530 C 0.87102 0.94734 4e-05 0.0
H531 H 0.02391 0.01717 0.01102 0.0
H532 H 0.94801 0.96011 0.98377 0.0
S533 S 0.80354 0.96213 0.04656 0.0
N534 N 0.87729 0.99875 0.05222 0.0
N535 N 0.79498 0.93756 0.02293 0.0
C536 C 0.85366 0.95862 0.01866 0.0
C537 C 0.89816 0.99213 0.03448 0.0
C538 C 0.0869 0.97089 0.36315 0.0
C539 C 0.02914 0.95266 0.37004 0.0
C540 C 0.09956 0.92938 0.35415 0.0
C541 C 0.05505 0.86782 0.35164 0.0
H542 H 0.12329 0.0174 0.36522 0.0
H543 H 0.14533 0.94529 0.34971 0.0
S544 S 0.89619 0.79681 0.367 0.0
N545 N 0.92637 0.86902 0.37338 0.0
N546 N 0.95056 0.79069 0.35679 0.0
C547 C 0.99662 0.84911 0.3581 0.0
C548 C 0.98351 0.89163 0.36711 0.0
C549 C 0.19182 0.04044 0.70632 0.0
C550 C 0.17847 0.08712 0.70825 0.0
C551 C 0.24457 0.05039 0.69734 0.0
C552 C 0.28532 0.10705 0.6895 0.0
H553 H 0.16268 0.99654 0.71256 0.0
H554 H 0.25423 0.01384 0.69699 0.0
S555 S 0.26961 0.24333 0.68984 0.0
N556 N 0.20919 0.19152 0.70092 0.0
N557 N 0.30783 0.20994 0.68389 0.0
C558 C 0.27149 0.15353 0.69083 0.0
C559 C 0.21815 0.14359 0.70015 0.0
C560 C 0.21405 0.2553 0.02135 0.0
C561 C 0.20786 0.21791 0.03775 0.0
C562 C 0.26794 0.28533 0.01127 0.0
C563 C 0.31868 0.28036 0.01734 0.0
H564 H 0.17663 0.26092 0.01592 0.0
H565 H 0.26968 0.31234 0.99846 0.0
S566 S 0.32684 0.18784 0.0591 0.0
N567 N 0.25763 0.17721 0.05945 0.0
N568 N 0.35915 0.23419 0.04044 0.0
C569 C 0.31337 0.24308 0.03363 0.0
C570 C 0.25814 0.212 0.04388 0.0
C571 C 0.01097 0.17427 0.34584 0.0
C572 C 0.04323 0.20562 0.36379 0.0
C573 C 0.02293 0.20301 0.32721 0.0
C574 C 0.06834 0.26403 0.3256 0.0
H575 H 0.97692 0.12672 0.34607 0.0
H576 H 0.99789 0.17656 0.31375 0.0
S577 S 0.16415 0.36763 0.36829 0.0
N578 N 0.11995 0.30273 0.37894 0.0
N579 N 0.14485 0.35548 0.34392 0.0
C580 C 0.10005 0.29646 0.34353 0.0
C581 C 0.08673 0.26762 0.36259 0.0
loop_
_geom_bond_atom_site_label_1
_geom_bond_atom_site_label_2
_geom_bond_distance
_geom_bond_site_symmetry_2
_ccdc_geom_bond_type
Mn0 O5 2.095 . S
Mn0 O15 2.162 . S
Mn0 O16 2.297 1_545 S
Mn0 O24 2.385 1_545 S
Mn0 O25 2.209 1_455 S
Mn0 O26 2.094 . S
Mn1 O6 2.121 . S
Mn1 N8 2.257 1_455 S
Mn1 N17 2.282 1_455 S
Mn1 O25 2.215 1_455 S
Mn1 O27 2.117 . S
C2 O24 1.234 1_655 S
C2 O25 1.283 1_565 S
C3 O15 1.281 1_565 S
C3 O16 1.236 . S
C4 O26 1.240 . S
C4 O27 1.264 . S
O5 Mn0 2.095 . S
O5 C14 1.250 . S
O6 Mn1 2.121 . S
O6 C14 1.258 . S
C7 N8 1.326 . S
C7 C11 1.460 . S
C7 H13 0.929 . S
N8 Mn1 2.257 1_655 S
N8 C7 1.326 . S
N8 C12 1.362 . S
C9 C10 1.258 . S
C9 C12 1.431 . S
C9 C29 1.449 . S
C10 C9 1.258 . S
C10 C11 1.477 . S
C10 H30 0.931 . S
C11 C7 1.460 . S
C11 C10 1.477 . S
C11 H31 0.930 . S
C12 N8 1.362 . S
C12 C9 1.431 . S
C12 C22 1.476 . S
H13 C7 0.929 . S
C14 O5 1.250 . S
C14 O6 1.258 . S
O15 Mn0 2.162 . S
O15 C3 1.281 1_545 S
O16 Mn0 2.297 1_565 S
O16 C3 1.236 . S
N17 Mn1 2.282 1_655 S
N17 C18 1.328 1_655 S
N17 C22 1.318 . S
C18 N17 1.328 1_455 S
C18 C19 1.457 1_454 S
C18 H23 0.929 . S
C19 C18 1.457 1_656 S
C19 C20 1.291 . S
C19 H32 0.919 1_655 S
C20 C19 1.291 . S
C20 C21 1.373 . S
C20 H33 0.929 . S
C21 C20 1.373 . S
C21 C22 1.396 1_556 S
C21 C28 1.403 . S
C22 C12 1.476 . S
C22 N17 1.318 . S
C22 C21 1.396 1_554 S
H23 C18 0.929 . S
O24 Mn0 2.385 1_565 S
O24 C2 1.234 1_455 S
O25 Mn0 2.209 1_655 S
O25 Mn1 2.215 1_655 S
O25 C2 1.283 1_545 S
O26 Mn0 2.094 . S
O26 C4 1.240 . S
O27 Mn1 2.117 . S
O27 C4 1.264 . S
C28 C21 1.403 . S
C28 C29 1.399 1_556 S
C28 H34 0.929 . S
C29 C9 1.449 . S
C29 C28 1.399 1_554 S
C29 H35 0.930 1_554 S
H30 C10 0.931 . S
H31 C11 0.930 . S
H32 C19 0.919 1_455 S
H33 C20 0.929 . S
H34 C28 0.929 . S
H35 C29 0.930 1_556 S
Mn36 O41 2.095 . S
Mn36 O51 2.162 1_445 S
Mn36 O52 2.297 . S
Mn36 O60 2.385 . S
Mn36 O61 2.209 . S
Mn36 O62 2.094 1_455 S
Mn37 O42 2.121 . S
Mn37 N44 2.257 . S
Mn37 N53 2.282 . S
Mn37 O61 2.215 . S
Mn37 O63 2.117 1_455 S
C38 O60 1.234 . S
C38 O61 1.283 . S
C39 O51 1.281 1_455 S
C39 O52 1.236 1_565 S
C40 O62 1.240 . S
C40 O63 1.264 . S
O41 Mn36 2.095 . S
O41 C50 1.250 . S
O42 Mn37 2.121 . S
O42 C50 1.258 . S
C43 N44 1.326 . S
C43 C47 1.460 . S
C43 H49 0.929 . S
N44 Mn37 2.257 . S
N44 C43 1.326 . S
N44 C48 1.362 . S
C45 C46 1.258 . S
C45 C48 1.431 . S
C45 C65 1.449 . S
C46 C45 1.258 . S
C46 C47 1.477 . S
C46 H66 0.931 . S
C47 C43 1.460 . S
C47 C46 1.477 . S
C47 H67 0.930 . S
C48 N44 1.362 . S
C48 C45 1.431 . S
C48 C58 1.476 . S
H49 C43 0.929 . S
C50 O41 1.250 . S
C50 O42 1.258 . S
O51 Mn36 2.162 1_665 S
O51 C39 1.281 1_655 S
O52 Mn36 2.297 . S
O52 C39 1.236 1_545 S
N53 Mn37 2.282 . S
N53 C54 1.328 . S
N53 C58 1.318 . S
C54 N53 1.328 . S
C54 C55 1.457 . S
C54 H59 0.929 . S
C55 C54 1.457 . S
C55 C56 1.291 . S
C55 H68 0.931 . S
C56 C55 1.291 . S
C56 C57 1.373 . S
C56 H69 0.929 . S
C57 C56 1.373 . S
C57 C58 1.396 . S
C57 C64 1.403 . S
C58 C48 1.476 . S
C58 N53 1.318 . S
C58 C57 1.396 . S
H59 C54 0.929 . S
O60 Mn36 2.385 . S
O60 C38 1.234 . S
O61 Mn36 2.209 . S
O61 Mn37 2.215 . S
O61 C38 1.283 . S
O62 Mn36 2.094 1_655 S
O62 C40 1.240 . S
O63 Mn37 2.117 1_655 S
O63 C40 1.264 . S
C64 C57 1.403 . S
C64 C65 1.399 . S
C64 H70 0.929 . S
C65 C45 1.449 . S
C65 C64 1.399 . S
C65 H71 0.930 . S
H66 C46 0.931 . S
H67 C47 0.930 . S
H68 C55 0.931 . S
H69 C56 0.929 . S
H70 C64 0.929 . S
H71 C65 0.930 . S
Mn72 O77 2.095 1_455 S
Mn72 O87 2.162 . S
Mn72 O88 2.297 . S
Mn72 O96 2.385 . S
Mn72 O97 2.209 . S
Mn72 O98 2.094 1_445 S
Mn73 O78 2.121 . S
Mn73 N80 2.257 1_655 S
Mn73 N89 2.282 1_655 S
Mn73 O97 2.215 1_655 S
Mn73 O99 2.117 . S
C74 O96 1.234 . S
C74 O97 1.283 . S
C75 O87 1.281 . S
C75 O88 1.236 . S
C76 O98 1.240 . S
C76 O99 1.264 1_565 S
O77 Mn72 2.095 1_655 S
O77 C86 1.250 . S
O78 Mn73 2.121 . S
O78 C86 1.258 . S
C79 N80 1.326 . S
C79 C83 1.460 . S
C79 H85 0.929 1_455 S
N80 Mn73 2.257 1_455 S
N80 C79 1.326 . S
N80 C84 1.362 . S
C81 C82 1.258 . S
C81 C84 1.431 . S
C81 C101 1.449 . S
C82 C81 1.258 . S
C82 C83 1.477 . S
C82 H102 0.931 . S
C83 C79 1.460 . S
C83 C82 1.477 . S
C83 H103 0.930 . S
C84 N80 1.362 . S
C84 C81 1.431 . S
C84 C94 1.476 . S
H85 C79 0.929 1_655 S
C86 O77 1.250 . S
C86 O78 1.258 . S
O87 Mn72 2.162 . S
O87 C75 1.281 . S
O88 Mn72 2.297 . S
O88 C75 1.236 . S
N89 Mn73 2.282 1_455 S
N89 C90 1.328 . S
N89 C94 1.318 . S
C90 N89 1.328 . S
C90 C91 1.457 . S
C90 H95 0.929 . S
C91 C90 1.457 . S
C91 C92 1.291 . S
C91 H104 0.931 . S
C92 C91 1.291 . S
C92 C93 1.373 . S
C92 H105 0.929 . S
C93 C92 1.373 . S
C93 C94 1.396 . S
C93 C100 1.403 . S
C94 C84 1.476 . S
C94 N89 1.318 . S
C94 C93 1.396 . S
H95 C90 0.929 . S
O96 Mn72 2.385 . S
O96 C74 1.234 . S
O97 Mn72 2.209 . S
O97 Mn73 2.215 1_455 S
O97 C74 1.283 . S
O98 Mn72 2.094 1_665 S
O98 C76 1.240 . S
O99 Mn73 2.117 . S
O99 C76 1.264 1_545 S
C100 C93 1.403 . S
C100 C101 1.399 . S
C100 H106 0.929 . S
C101 C81 1.449 . S
C101 C100 1.399 . S
C101 H107 0.930 . S
H102 C82 0.931 . S
H103 C83 0.930 . S
H104 C91 0.931 . S
H105 C92 0.929 . S
H106 C100 0.929 . S
H107 C101 0.930 . S
C108 C109 1.560 1_655 S
C108 H169 0.959 . S
C108 H170 0.959 . S
C108 H171 0.960 . S
C109 C108 1.560 1_455 S
C109 O164 1.426 1_455 S
C109 H168 0.980 . S
C110 C111 1.407 1_655 S
C110 C115 1.418 . S
C110 O164 1.334 . S
C111 C110 1.407 1_455 S
C111 C112 1.360 . S
C111 H172 0.929 . S
C112 C111 1.360 . S
C112 C113 1.401 . S
C112 C116 1.527 . S
C113 C112 1.401 . S
C113 C114 1.405 1_455 S
C113 C146 1.587 . S
C114 C113 1.405 1_655 S
C114 C115 1.332 . S
C114 C117 1.496 . S
C115 C110 1.418 . S
C115 C114 1.332 . S
C115 H173 0.929 . S
C116 C112 1.527 . S
C116 H174 0.959 . S
C116 H175 0.961 . S
C116 H176 0.961 . S
C117 C114 1.496 . S
C117 H177 0.960 . S
C117 H178 0.960 . S
C117 H179 0.961 . S
C118 C119 1.517 . S
C118 H181 0.961 . S
C118 H182 0.960 . S
C118 H183 0.959 . S
C119 C118 1.517 . S
C119 O167 1.468 . S
C119 H180 0.980 . S
C120 C121 1.349 . S
C120 C125 1.367 . S
C120 O167 1.408 . S
C121 C120 1.349 . S
C121 C122 1.407 . S
C121 H184 0.930 . S
C122 C121 1.407 . S
C122 C123 1.449 . S
C122 C126 1.535 1_455 S
C123 C122 1.449 . S
C123 C124 1.384 . S
C123 C148 1.553 . S
C124 C123 1.384 . S
C124 C125 1.364 . S
C124 C127 1.450 . S
C125 C120 1.367 . S
C125 C124 1.364 . S
C125 H185 0.931 . S
C126 C122 1.535 1_655 S
C126 H186 0.959 . S
C126 H187 0.961 . S
C126 H188 0.959 . S
C127 C124 1.450 . S
C127 H189 0.960 . S
C127 H190 0.960 . S
C127 H191 0.960 . S
C128 C129 1.309 . S
C128 C133 1.304 . S
C128 O166 1.435 . S
C129 C128 1.309 . S
C129 C130 1.476 . S
C129 H193 0.930 . S
C130 C129 1.476 . S
C130 C131 1.400 . S
C130 C134 1.567 1_455 S
C131 C130 1.400 . S
C131 C132 1.373 . S
C131 C153 1.432 . S
C132 C131 1.373 . S
C132 C133 1.339 . S
C132 C135 1.530 . S
C133 C128 1.304 . S
C133 C132 1.339 . S
C133 H194 0.930 . S
C134 C130 1.567 1_655 S
C134 H195 0.961 . S
C134 H196 0.960 . S
C134 H197 0.958 . S
C135 C132 1.530 . S
C135 H198 0.961 . S
C135 H199 0.960 . S
C135 H200 0.960 . S
C136 C137 1.530 1_655 S
C136 H202 0.961 1_655 S
C136 H203 0.961 . S
C136 H204 0.959 . S
C137 C136 1.530 1_455 S
C137 O165 1.412 1_455 S
C137 H201 0.980 . S
C138 C139 1.288 1_455 S
C138 C143 1.377 . S
C138 O165 1.393 1_455 S
C139 C138 1.288 1_655 S
C139 C140 1.369 . S
C139 H205 0.932 . S
C140 C139 1.369 . S
C140 C141 1.398 1_655 S
C140 C144 1.527 . S
C141 C140 1.398 1_455 S
C141 C142 1.380 . S
C141 C155 1.497 . S
C142 C141 1.380 . S
C142 C143 1.383 . S
C142 C145 1.603 . S
C143 C138 1.377 . S
C143 C142 1.383 . S
C143 H206 0.929 . S
C144 C140 1.527 . S
C144 H207 0.961 . S
C144 H208 0.959 . S
C144 H209 0.959 . S
C145 C142 1.603 . S
C145 H210 0.960 . S
C145 H211 0.962 . S
C145 H212 0.961 . S
C146 C113 1.587 . S
C146 C147 1.360 . S
C146 C159 1.412 . S
C147 C146 1.360 . S
C147 C148 1.365 . S
C147 H213 0.929 . S
C148 C123 1.553 . S
C148 C147 1.365 . S
C148 C149 1.404 . S
C149 C148 1.404 . S
C149 C150 1.395 . S
C149 C160 1.451 . S
C150 C149 1.395 . S
C150 C151 1.322 . S
C150 H214 0.930 . S
C151 C150 1.322 . S
C151 C152 1.459 . S
C151 H215 0.929 . S
C152 C151 1.459 . S
C152 C153 1.445 . S
C152 C161 1.395 . S
C153 C131 1.432 . S
C153 C152 1.445 . S
C153 C154 1.370 . S
C154 C153 1.370 . S
C154 C155 1.438 . S
C154 H216 0.930 . S
C155 C141 1.497 . S
C155 C154 1.438 . S
C155 C156 1.360 . S
C156 C155 1.360 . S
C156 C157 1.401 . S
C156 C161 1.446 . S
C157 C156 1.401 . S
C157 C158 1.347 . S
C157 H217 0.929 . S
C158 C157 1.347 . S
C158 C159 1.455 . S
C158 H218 0.930 . S
C159 C146 1.412 . S
C159 C158 1.455 . S
C159 C160 1.331 . S
C160 C149 1.451 . S
C160 C159 1.331 . S
C160 C161 1.497 . S
C161 C152 1.395 . S
C161 C156 1.446 . S
C161 C160 1.497 . S
C162 C163 1.582 . S
C162 H219 0.962 . S
C162 H220 0.959 . S
C162 H221 0.958 . S
C163 C162 1.582 . S
C163 O166 1.458 . S
C163 H192 0.980 . S
O164 C109 1.426 1_655 S
O164 C110 1.334 . S
O165 C137 1.412 1_655 S
O165 C138 1.393 1_655 S
O166 C128 1.435 . S
O166 C163 1.458 . S
O167 C119 1.468 . S
O167 C120 1.408 . S
H168 C109 0.980 . S
H169 C108 0.959 . S
H170 C108 0.959 . S
H171 C108 0.960 . S
H172 C111 0.929 . S
H173 C115 0.929 . S
H174 C116 0.959 . S
H175 C116 0.961 . S
H176 C116 0.961 . S
H177 C117 0.960 . S
H178 C117 0.960 . S
H179 C117 0.961 . S
H180 C119 0.980 . S
H181 C118 0.961 . S
H182 C118 0.960 . S
H183 C118 0.959 . S
H184 C121 0.930 . S
H185 C125 0.931 . S
H186 C126 0.959 . S
H187 C126 0.961 . S
H188 C126 0.959 . S
H189 C127 0.960 . S
H190 C127 0.960 . S
H191 C127 0.960 . S
H192 C163 0.980 . S
H193 C129 0.930 . S
H194 C133 0.930 . S
H195 C134 0.961 . S
H196 C134 0.960 . S
H197 C134 0.958 . S
H198 C135 0.961 . S
H199 C135 0.960 . S
H200 C135 0.960 . S
H201 C137 0.980 . S
H202 C136 0.961 1_455 S
H203 C136 0.961 . S
H204 C136 0.959 . S
H205 C139 0.932 . S
H206 C143 0.929 . S
H207 C144 0.961 . S
H208 C144 0.959 . S
H209 C144 0.959 . S
H210 C145 0.960 . S
H211 C145 0.962 . S
H212 C145 0.961 . S
H213 C147 0.929 . S
H214 C150 0.930 . S
H215 C151 0.929 . S
H216 C154 0.930 . S
H217 C157 0.929 . S
H218 C158 0.930 . S
H219 C162 0.962 . S
H220 C162 0.959 . S
H221 C162 0.958 . S
C222 C223 1.560 . S
C222 H283 0.974 . S
C222 H284 0.959 1_545 S
C222 H285 0.960 . S
C223 C222 1.560 . S
C223 O278 1.426 . S
C223 H282 0.980 . S
C224 C225 1.407 . S
C224 C229 1.418 . S
C224 O278 1.334 . S
C225 C224 1.407 . S
C225 C226 1.360 . S
C225 H286 0.929 . S
C226 C225 1.360 . S
C226 C227 1.401 . S
C226 C230 1.527 . S
C227 C226 1.401 . S
C227 C228 1.405 . S
C227 C260 1.587 . S
C228 C227 1.405 . S
C228 C229 1.332 . S
C228 C231 1.496 1_545 S
C229 C224 1.418 . S
C229 C228 1.332 . S
C229 H287 0.929 1_545 S
C230 C226 1.527 . S
C230 H288 0.959 . S
C230 H289 0.961 . S
C230 H290 0.961 . S
C231 C228 1.496 1_565 S
C231 H291 0.960 . S
C231 H292 0.965 1_565 S
C231 H293 0.961 1_565 S
C232 C233 1.517 . S
C232 H295 0.961 . S
C232 H296 0.960 . S
C232 H297 0.959 . S
C233 C232 1.517 . S
C233 O281 1.468 . S
C233 H294 0.980 . S
C234 C235 1.349 . S
C234 C239 1.367 . S
C234 O281 1.408 . S
C235 C234 1.349 . S
C235 C236 1.407 . S
C235 H298 0.930 . S
C236 C235 1.407 . S
C236 C237 1.449 . S
C236 C240 1.535 . S
C237 C236 1.449 . S
C237 C238 1.384 . S
C237 C262 1.553 . S
C238 C237 1.384 . S
C238 C239 1.364 . S
C238 C241 1.450 . S
C239 C234 1.367 . S
C239 C238 1.364 . S
C239 H299 0.931 . S
C240 C236 1.535 . S
C240 H300 0.959 . S
C240 H301 0.961 . S
C240 H302 0.959 . S
C241 C238 1.450 . S
C241 H303 0.960 . S
C241 H304 0.960 . S
C241 H305 0.960 . S
C242 C243 1.309 . S
C242 C247 1.304 . S
C242 O280 1.435 . S
C243 C242 1.309 . S
C243 C244 1.476 . S
C243 H307 0.930 . S
C244 C243 1.476 . S
C244 C245 1.400 . S
C244 C248 1.567 . S
C245 C244 1.400 . S
C245 C246 1.373 . S
C245 C267 1.432 . S
C246 C245 1.373 . S
C246 C247 1.339 . S
C246 C249 1.530 . S
C247 C242 1.304 . S
C247 C246 1.339 . S
C247 H308 0.930 . S
C248 C244 1.567 . S
C248 H309 0.961 . S
C248 H310 0.960 . S
C248 H311 0.958 . S
C249 C246 1.530 . S
C249 H312 0.961 . S
C249 H313 0.960 . S
C249 H314 0.960 . S
C250 C251 1.530 . S
C250 H316 0.961 . S
C250 H317 0.961 . S
C250 H318 0.959 . S
C251 C250 1.530 . S
C251 O279 1.412 . S
C251 H315 0.980 . S
C252 C253 1.288 . S
C252 C257 1.377 . S
C252 O279 1.393 . S
C253 C252 1.288 . S
C253 C254 1.369 . S
C253 H319 0.932 1_545 S
C254 C253 1.369 . S
C254 C255 1.398 . S
C254 C258 1.527 1_545 S
C255 C254 1.398 . S
C255 C256 1.380 . S
C255 C269 1.497 . S
C256 C255 1.380 . S
C256 C257 1.383 . S
C256 C259 1.603 . S
C257 C252 1.377 . S
C257 C256 1.383 . S
C257 H320 0.929 . S
C258 C254 1.527 1_565 S
C258 H321 0.961 . S
C258 H322 0.959 . S
C258 H323 0.959 . S
C259 C256 1.603 . S
C259 H324 0.960 . S
C259 H325 0.962 . S
C259 H326 0.961 . S
C260 C227 1.587 . S
C260 C261 1.360 . S
C260 C273 1.412 . S
C261 C260 1.360 . S
C261 C262 1.365 . S
C261 H327 0.929 . S
C262 C237 1.553 . S
C262 C261 1.365 . S
C262 C263 1.404 . S
C263 C262 1.404 . S
C263 C264 1.395 . S
C263 C274 1.451 . S
C264 C263 1.395 . S
C264 C265 1.322 . S
C264 H328 0.930 . S
C265 C264 1.322 . S
C265 C266 1.459 . S
C265 H329 0.929 . S
C266 C265 1.459 . S
C266 C267 1.445 . S
C266 C275 1.395 . S
C267 C245 1.432 . S
C267 C266 1.445 . S
C267 C268 1.370 . S
C268 C267 1.370 . S
C268 C269 1.438 . S
C268 H330 0.930 . S
C269 C255 1.497 . S
C269 C268 1.438 . S
C269 C270 1.360 . S
C270 C269 1.360 . S
C270 C271 1.401 . S
C270 C275 1.446 . S
C271 C270 1.401 . S
C271 C272 1.347 . S
C271 H331 0.929 . S
C272 C271 1.347 . S
C272 C273 1.455 . S
C272 H332 0.930 . S
C273 C260 1.412 . S
C273 C272 1.455 . S
C273 C274 1.331 . S
C274 C263 1.451 . S
C274 C273 1.331 . S
C274 C275 1.497 . S
C275 C266 1.395 . S
C275 C270 1.446 . S
C275 C274 1.497 . S
C276 C277 1.582 . S
C276 H333 0.962 . S
C276 H334 0.959 . S
C276 H335 0.958 . S
C277 C276 1.582 . S
C277 O280 1.458 . S
C277 H306 0.980 . S
O278 C223 1.426 . S
O278 C224 1.334 . S
O279 C251 1.412 . S
O279 C252 1.393 . S
O280 C242 1.435 . S
O280 C277 1.458 . S
O281 C233 1.468 . S
O281 C234 1.408 . S
H282 C223 0.980 . S
H283 C222 0.974 . S
H284 C222 0.959 1_565 S
H285 C222 0.960 . S
H286 C225 0.929 . S
H287 C229 0.929 1_565 S
H288 C230 0.959 . S
H289 C230 0.961 . S
H290 C230 0.961 . S
H291 C231 0.960 . S
H292 C231 0.965 1_545 S
H293 C231 0.961 1_545 S
H294 C233 0.980 . S
H295 C232 0.961 . S
H296 C232 0.960 . S
H297 C232 0.959 . S
H298 C235 0.930 . S
H299 C239 0.931 . S
H300 C240 0.959 . S
H301 C240 0.961 . S
H302 C240 0.959 . S
H303 C241 0.960 . S
H304 C241 0.960 . S
H305 C241 0.960 . S
H306 C277 0.980 . S
H307 C243 0.930 . S
H308 C247 0.930 . S
H309 C248 0.961 . S
H310 C248 0.960 . S
H311 C248 0.958 . S
H312 C249 0.961 . S
H313 C249 0.960 . S
H314 C249 0.960 . S
H315 C251 0.980 . S
H316 C250 0.961 . S
H317 C250 0.961 . S
H318 C250 0.959 . S
H319 C253 0.932 1_565 S
H320 C257 0.929 . S
H321 C258 0.961 . S
H322 C258 0.959 . S
H323 C258 0.959 . S
H324 C259 0.960 . S
H325 C259 0.962 . S
H326 C259 0.961 . S
H327 C261 0.929 . S
H328 C264 0.930 . S
H329 C265 0.929 . S
H330 C268 0.930 . S
H331 C271 0.929 . S
H332 C272 0.930 . S
H333 C276 0.962 . S
H334 C276 0.959 . S
H335 C276 0.958 . S
C336 C337 1.560 . S
C336 H397 0.959 . S
C336 H398 0.959 . S
C336 H399 0.960 . S
C337 C336 1.560 . S
C337 O392 1.426 . S
C337 H396 0.980 . S
C338 C339 1.407 . S
C338 C343 1.418 . S
C338 O392 1.334 . S
C339 C338 1.407 . S
C339 C340 1.360 . S
C339 H400 0.929 . S
C340 C339 1.360 . S
C340 C341 1.401 . S
C340 C344 1.527 . S
C341 C340 1.401 . S
C341 C342 1.405 . S
C341 C374 1.587 . S
C342 C341 1.405 . S
C342 C343 1.332 . S
C342 C345 1.496 . S
C343 C338 1.418 . S
C343 C342 1.332 . S
C343 H401 0.929 . S
C344 C340 1.527 . S
C344 H402 0.959 . S
C344 H403 0.961 . S
C344 H404 0.961 . S
C345 C342 1.496 . S
C345 H405 0.960 . S
C345 H406 0.960 . S
C345 H407 0.961 . S
C346 C347 1.517 . S
C346 H409 0.961 . S
C346 H410 0.960 . S
C346 H411 0.959 . S
C347 C346 1.517 . S
C347 O395 1.468 . S
C347 H408 0.980 . S
C348 C349 1.349 . S
C348 C353 1.367 . S
C348 O395 1.408 . S
C349 C348 1.349 . S
C349 C350 1.407 . S
C349 H412 0.930 . S
C350 C349 1.407 . S
C350 C351 1.449 . S
C350 C354 1.535 . S
C351 C350 1.449 . S
C351 C352 1.384 . S
C351 C376 1.553 . S
C352 C351 1.384 . S
C352 C353 1.364 . S
C352 C355 1.450 . S
C353 C348 1.367 . S
C353 C352 1.364 . S
C353 H413 0.931 . S
C354 C350 1.535 . S
C354 H414 0.959 . S
C354 H415 0.961 . S
C354 H416 0.959 . S
C355 C352 1.450 . S
C355 H417 0.960 . S
C355 H418 0.960 . S
C355 H419 0.960 . S
C356 C357 1.309 . S
C356 C361 1.304 . S
C356 O394 1.435 . S
C357 C356 1.309 . S
C357 C358 1.476 . S
C357 H421 0.930 . S
C358 C357 1.476 . S
C358 C359 1.400 . S
C358 C362 1.567 . S
C359 C358 1.400 . S
C359 C360 1.373 . S
C359 C381 1.432 . S
C360 C359 1.373 . S
C360 C361 1.339 . S
C360 C363 1.530 . S
C361 C356 1.304 . S
C361 C360 1.339 . S
C361 H422 0.930 . S
C362 C358 1.567 . S
C362 H423 0.961 . S
C362 H424 0.960 . S
C362 H425 0.958 . S
C363 C360 1.530 . S
C363 H426 0.961 . S
C363 H427 0.960 . S
C363 H428 0.960 . S
C364 C365 1.530 1_554 S
C364 H430 0.961 . S
C364 H431 0.961 1_554 S
C364 H432 0.959 . S
C365 C364 1.530 1_556 S
C365 O393 1.412 . S
C365 H429 0.980 . S
C366 C367 1.288 . S
C366 C371 1.377 . S
C366 O393 1.393 . S
C367 C366 1.288 . S
C367 C368 1.369 . S
C367 H433 0.932 . S
C368 C367 1.369 . S
C368 C369 1.398 . S
C368 C372 1.527 . S
C369 C368 1.398 . S
C369 C370 1.380 . S
C369 C383 1.497 . S
C370 C369 1.380 . S
C370 C371 1.383 . S
C370 C373 1.603 . S
C371 C366 1.377 . S
C371 C370 1.383 . S
C371 H434 0.929 . S
C372 C368 1.527 . S
C372 H435 0.961 . S
C372 H436 0.959 . S
C372 H437 0.959 . S
C373 C370 1.603 . S
C373 H438 0.960 . S
C373 H439 0.962 . S
C373 H440 0.961 . S
C374 C341 1.587 . S
C374 C375 1.360 . S
C374 C387 1.412 . S
C375 C374 1.360 . S
C375 C376 1.365 . S
C375 H441 0.929 . S
C376 C351 1.553 . S
C376 C375 1.365 . S
C376 C377 1.404 . S
C377 C376 1.404 . S
C377 C378 1.395 . S
C377 C388 1.451 . S
C378 C377 1.395 . S
C378 C379 1.322 . S
C378 H442 0.930 . S
C379 C378 1.322 . S
C379 C380 1.459 . S
C379 H443 0.929 . S
C380 C379 1.459 . S
C380 C381 1.445 . S
C380 C389 1.395 . S
C381 C359 1.432 . S
C381 C380 1.445 . S
C381 C382 1.370 . S
C382 C381 1.370 . S
C382 C383 1.438 . S
C382 H444 0.930 . S
C383 C369 1.497 . S
C383 C382 1.438 . S
C383 C384 1.360 . S
C384 C383 1.360 . S
C384 C385 1.401 . S
C384 C389 1.446 . S
C385 C384 1.401 . S
C385 C386 1.347 . S
C385 H445 0.929 . S
C386 C385 1.347 . S
C386 C387 1.455 . S
C386 H446 0.930 . S
C387 C374 1.412 . S
C387 C386 1.455 . S
C387 C388 1.331 . S
C388 C377 1.451 . S
C388 C387 1.331 . S
C388 C389 1.497 . S
C389 C380 1.395 . S
C389 C384 1.446 . S
C389 C388 1.497 . S
C390 C391 1.602 . S
C390 H447 0.935 1_556 S
C390 H448 0.981 . S
C390 H449 0.943 1_556 S
C391 C390 1.602 . S
C391 O394 1.458 . S
C391 H420 0.980 . S
O392 C337 1.426 . S
O392 C338 1.334 . S
O393 C365 1.412 . S
O393 C366 1.393 . S
O394 C356 1.435 . S
O394 C391 1.458 . S
O395 C347 1.468 . S
O395 C348 1.408 . S
H396 C337 0.980 . S
H397 C336 0.959 . S
H398 C336 0.959 . S
H399 C336 0.960 . S
H400 C339 0.929 . S
H401 C343 0.929 . S
H402 C344 0.959 . S
H403 C344 0.961 . S
H404 C344 0.961 . S
H405 C345 0.960 . S
H406 C345 0.960 . S
H407 C345 0.961 . S
H408 C347 0.980 . S
H409 C346 0.961 . S
H410 C346 0.960 . S
H411 C346 0.959 . S
H412 C349 0.930 . S
H413 C353 0.931 . S
H414 C354 0.959 . S
H415 C354 0.961 . S
H416 C354 0.959 . S
H417 C355 0.960 . S
H418 C355 0.960 . S
H419 C355 0.960 . S
H420 C391 0.980 . S
H421 C357 0.930 . S
H422 C361 0.930 . S
H423 C362 0.961 . S
H424 C362 0.960 . S
H425 C362 0.958 . S
H426 C363 0.961 . S
H427 C363 0.960 . S
H428 C363 0.960 . S
H429 C365 0.980 . S
H430 C364 0.961 . S
H431 C364 0.961 1_556 S
H432 C364 0.959 . S
H433 C367 0.932 . S
H434 C371 0.929 . S
H435 C372 0.961 . S
H436 C372 0.959 . S
H437 C372 0.959 . S
H438 C373 0.960 . S
H439 C373 0.962 . S
H440 C373 0.961 . S
H441 C375 0.929 . S
H442 C378 0.930 . S
H443 C379 0.929 . S
H444 C382 0.930 . S
H445 C385 0.929 . S
H446 C386 0.930 . S
H447 C390 0.935 1_554 S
H448 C390 0.981 . S
H449 C390 0.943 1_554 S
C450 C451 1.369 . S
C450 C452 1.419 . S
C450 H454 0.930 . S
C451 C450 1.369 . S
C451 C460 1.429 . S
C452 C450 1.419 . S
C452 C453 1.363 . S
C452 H455 0.929 . S
C453 C452 1.363 . S
C453 C459 1.428 . S
H454 C450 0.930 . S
H455 C452 0.929 . S
S456 N457 1.613 . S
S456 N458 1.610 . S
N457 S456 1.613 . S
N457 C460 1.350 . S
N458 S456 1.610 . S
N458 C459 1.351 . S
C459 C453 1.428 . S
C459 N458 1.351 . S
C459 C460 1.434 . S
C460 C451 1.429 . S
C460 N457 1.350 . S
C460 C459 1.434 . S
C461 C462 1.369 . S
C461 C463 1.419 . S
C461 H465 0.930 . S
C462 C461 1.369 . S
C462 C471 1.429 . S
C463 C461 1.419 . S
C463 C464 1.363 . S
C463 H466 0.929 . S
C464 C463 1.363 . S
C464 C470 1.428 . S
H465 C461 0.930 . S
H466 C463 0.929 . S
S467 N468 1.613 . S
S467 N469 1.610 . S
N468 S467 1.613 . S
N468 C471 1.350 1_565 S
N469 S467 1.610 . S
N469 C470 1.351 1_565 S
C470 C464 1.428 . S
C470 N469 1.351 1_545 S
C470 C471 1.434 . S
C471 C462 1.429 . S
C471 N468 1.350 1_545 S
C471 C470 1.434 . S
C472 C473 1.369 . S
C472 C474 1.419 . S
C472 H476 0.930 . S
C473 C472 1.369 . S
C473 C482 1.429 . S
C474 C472 1.419 . S
C474 C475 1.363 . S
C474 H477 0.929 . S
C475 C474 1.363 . S
C475 C481 1.428 . S
H476 C472 0.930 . S
H477 C474 0.929 . S
S478 N479 1.613 . S
S478 N480 1.610 1_545 S
N479 S478 1.613 . S
N479 C482 1.350 1_545 S
N480 S478 1.610 1_565 S
N480 C481 1.351 . S
C481 C475 1.428 . S
C481 N480 1.351 . S
C481 C482 1.434 . S
C482 C473 1.429 . S
C482 N479 1.350 1_565 S
C482 C481 1.434 . S
C483 C484 1.369 . S
C483 C485 1.419 . S
C483 H487 0.930 . S
C484 C483 1.369 . S
C484 C493 1.429 . S
C485 C483 1.419 . S
C485 C486 1.363 . S
C485 H488 0.929 . S
C486 C485 1.363 . S
C486 C492 1.428 . S
H487 C483 0.930 . S
H488 C485 0.929 . S
S489 N490 1.613 . S
S489 N491 1.610 . S
N490 S489 1.613 . S
N490 C493 1.350 . S
N491 S489 1.610 . S
N491 C492 1.351 . S
C492 C486 1.428 . S
C492 N491 1.351 . S
C492 C493 1.434 . S
C493 C484 1.429 . S
C493 N490 1.350 . S
C493 C492 1.434 . S
C494 C495 1.369 . S
C494 C496 1.419 . S
C494 H498 0.930 . S
C495 C494 1.369 . S
C495 C504 1.429 . S
C496 C494 1.419 . S
C496 C497 1.363 . S
C496 H499 0.929 . S
C497 C496 1.363 . S
C497 C503 1.428 . S
H498 C494 0.930 . S
H499 C496 0.929 . S
S500 N501 1.613 . S
S500 N502 1.610 . S
N501 S500 1.613 . S
N501 C504 1.350 . S
N502 S500 1.610 . S
N502 C503 1.351 . S
C503 C497 1.428 . S
C503 N502 1.351 . S
C503 C504 1.434 . S
C504 C495 1.429 . S
C504 N501 1.350 . S
C504 C503 1.434 . S
C505 C506 1.369 . S
C505 C507 1.419 . S
C505 H509 0.930 . S
C506 C505 1.369 . S
C506 C515 1.429 . S
C507 C505 1.419 . S
C507 C508 1.363 . S
C507 H510 0.929 . S
C508 C507 1.363 . S
C508 C514 1.428 . S
H509 C505 0.930 . S
H510 C507 0.929 . S
S511 N512 1.613 . S
S511 N513 1.610 . S
N512 S511 1.613 . S
N512 C515 1.350 . S
N513 S511 1.610 . S
N513 C514 1.351 . S
C514 C508 1.428 . S
C514 N513 1.351 . S
C514 C515 1.434 . S
C515 C506 1.429 . S
C515 N512 1.350 . S
C515 C514 1.434 . S
C516 C517 1.369 . S
C516 C518 1.419 . S
C516 H520 0.930 . S
C517 C516 1.369 . S
C517 C526 1.429 . S
C518 C516 1.419 . S
C518 C519 1.363 . S
C518 H521 0.929 . S
C519 C518 1.363 . S
C519 C525 1.428 . S
H520 C516 0.930 . S
H521 C518 0.929 . S
S522 N523 1.613 1_565 S
S522 N524 1.610 1_565 S
N523 S522 1.613 1_545 S
N523 C526 1.350 . S
N524 S522 1.610 1_545 S
N524 C525 1.351 . S
C525 C519 1.428 . S
C525 N524 1.351 . S
C525 C526 1.434 . S
C526 C517 1.429 . S
C526 N523 1.350 . S
C526 C525 1.434 . S
C527 C528 1.369 . S
C527 C529 1.419 . S
C527 H531 0.930 . S
C528 C527 1.369 . S
C528 C537 1.429 . S
C529 C527 1.419 . S
C529 C530 1.363 . S
C529 H532 0.929 . S
C530 C529 1.363 . S
C530 C536 1.428 . S
H531 C527 0.930 . S
H532 C529 0.929 . S
S533 N534 1.613 . S
S533 N535 1.610 1_545 S
N534 S533 1.613 . S
N534 C537 1.350 1_545 S
N535 S533 1.610 1_565 S
N535 C536 1.351 . S
C536 C530 1.428 . S
C536 N535 1.351 . S
C536 C537 1.434 . S
C537 C528 1.429 . S
C537 N534 1.350 1_565 S
C537 C536 1.434 . S
C538 C539 1.369 . S
C538 C540 1.419 . S
C538 H542 0.930 . S
C539 C538 1.369 . S
C539 C548 1.429 1_455 S
C540 C538 1.419 . S
C540 C541 1.363 . S
C540 H543 0.929 . S
C541 C540 1.363 . S
C541 C547 1.428 1_455 S
H542 C538 0.930 . S
H543 C540 0.929 . S
S544 N545 1.613 . S
S544 N546 1.610 . S
N545 S544 1.613 . S
N545 C548 1.350 . S
N546 S544 1.610 . S
N546 C547 1.351 . S
C547 C541 1.428 1_655 S
C547 N546 1.351 . S
C547 C548 1.434 . S
C548 C539 1.429 1_655 S
C548 N545 1.350 . S
C548 C547 1.434 . S
C549 C550 1.369 . S
C549 C551 1.419 . S
C549 H553 0.930 1_545 S
C550 C549 1.369 . S
C550 C559 1.429 . S
C551 C549 1.419 . S
C551 C552 1.363 . S
C551 H554 0.929 1_545 S
C552 C551 1.363 . S
C552 C558 1.428 . S
H553 C549 0.930 1_565 S
H554 C551 0.929 1_565 S
S555 N556 1.613 . S
S555 N557 1.610 . S
N556 S555 1.613 . S
N556 C559 1.350 . S
N557 S555 1.610 . S
N557 C558 1.351 . S
C558 C552 1.428 . S
C558 N557 1.351 . S
C558 C559 1.434 . S
C559 C550 1.429 . S
C559 N556 1.350 . S
C559 C558 1.434 . S
C560 C561 1.369 . S
C560 C562 1.419 . S
C560 H564 0.930 . S
C561 C560 1.369 . S
C561 C570 1.429 . S
C562 C560 1.419 . S
C562 C563 1.363 . S
C562 H565 0.929 . S
C563 C562 1.363 . S
C563 C569 1.428 1_554 S
H564 C560 0.930 . S
H565 C562 0.929 . S
S566 N567 1.573 1_556 S
S566 N568 1.610 . S
N567 S566 1.573 1_554 S
N567 C570 1.366 . S
N568 S566 1.610 . S
N568 C569 1.351 . S
C569 C563 1.428 1_556 S
C569 N568 1.351 . S
C569 C570 1.434 1_556 S
C570 C561 1.429 . S
C570 N567 1.366 . S
C570 C569 1.434 1_554 S
C571 C572 1.369 1_655 S
C571 C573 1.419 . S
C571 H575 0.930 . S
C572 C571 1.369 1_455 S
C572 C581 1.429 . S
C573 C571 1.419 . S
C573 C574 1.363 1_655 S
C573 H576 0.929 . S
C574 C573 1.363 1_455 S
C574 C580 1.428 . S
H575 C571 0.930 . S
H576 C573 0.929 . S
S577 N578 1.613 . S
S577 N579 1.610 . S
N578 S577 1.613 . S
N578 C581 1.350 . S
N579 S577 1.610 . S
N579 C580 1.351 . S
C580 C574 1.428 . S
C580 N579 1.351 . S
C580 C581 1.434 . S
C581 C572 1.429 . S
C581 N578 1.350 . S
C581 C580 1.434 . S
C453 C163 1.158 . S
C451 C14 1.534 . S
C462 C40 1.557 . S
C464 C277 1.229 . S
C473 C76 1.339 . S
C475 C337 1.068 . S
C484 C3 1.417 . S
C486 C137 1.112 . S
C497 C251 1.125 . S
C495 C38 1.481 . S
C506 C74 1.484 . S
C508 C347 0.914 . S
C519 C233 0.929 . S
C517 C86 1.459 . S
C528 C2 1.446 . S
C530 C365 1.117 1_554 S
C541 C109 1.060 . S
C539 C39 1.331 . S
C552 C223 1.045 . S
C550 C75 1.348 . S
C563 C391 1.187 1_554 S
C561 C4 1.534 . S
C572 C50 1.473 . S
C574 C119 0.858 . S
