# Generated by pormake.
# Topology ctn, (3,4)-cn, num edge types: 1
# Building blocks:
#     Node 0, Type 0, BuildingBlock: VETTIZ_charged_linker_0, # of connection points: 3
#     Node 1, Type 0, BuildingBlock: VETTIZ_charged_linker_0, # of connection points: 3
#     Node 2, Type 0, BuildingBlock: VETTIZ_charged_linker_0, # of connection points: 3
#     Node 3, Type 0, BuildingBlock: VETTIZ_charged_linker_0, # of connection points: 3
#     Node 4, Type 0, BuildingBlock: VETTIZ_charged_linker_0, # of connection points: 3
#     Node 5, Type 0, BuildingBlock: VETTIZ_charged_linker_0, # of connection points: 3
#     Node 6, Type 0, BuildingBlock: VETTIZ_charged_linker_0, # of connection points: 3
#     Node 7, Type 0, BuildingBlock: VETTIZ_charged_linker_0, # of connection points: 3
#     Node 8, Type 0, BuildingBlock: VETTIZ_charged_linker_0, # of connection points: 3
#     Node 9, Type 0, BuildingBlock: VETTIZ_charged_linker_0, # of connection points: 3
#     Node 10, Type 0, BuildingBlock: VETTIZ_charged_linker_0, # of connection points: 3
#     Node 11, Type 0, BuildingBlock: VETTIZ_charged_linker_0, # of connection points: 3
#     Node 12, Type 0, BuildingBlock: VETTIZ_charged_linker_0, # of connection points: 3
#     Node 13, Type 0, BuildingBlock: VETTIZ_charged_linker_0, # of connection points: 3
#     Node 14, Type 0, BuildingBlock: VETTIZ_charged_linker_0, # of connection points: 3
#     Node 15, Type 0, BuildingBlock: VETTIZ_charged_linker_0, # of connection points: 3
#     Node 16, Type 1, BuildingBlock: NAHDIM_clean_sbu_0, # of connection points: 4
#     Node 17, Type 1, BuildingBlock: NAHDIM_clean_sbu_0, # of connection points: 4
#     Node 18, Type 1, BuildingBlock: NAHDIM_clean_sbu_0, # of connection points: 4
#     Node 19, Type 1, BuildingBlock: NAHDIM_clean_sbu_0, # of connection points: 4
#     Node 20, Type 1, BuildingBlock: NAHDIM_clean_sbu_0, # of connection points: 4
#     Node 21, Type 1, BuildingBlock: NAHDIM_clean_sbu_0, # of connection points: 4
#     Node 22, Type 1, BuildingBlock: NAHDIM_clean_sbu_0, # of connection points: 4
#     Node 23, Type 1, BuildingBlock: NAHDIM_clean_sbu_0, # of connection points: 4
#     Node 24, Type 1, BuildingBlock: NAHDIM_clean_sbu_0, # of connection points: 4
#     Node 25, Type 1, BuildingBlock: NAHDIM_clean_sbu_0, # of connection points: 4
#     Node 26, Type 1, BuildingBlock: NAHDIM_clean_sbu_0, # of connection points: 4
#     Node 27, Type 1, BuildingBlock: NAHDIM_clean_sbu_0, # of connection points: 4
#     Edge 28, Type (0, 1), BuildingBlock: KIFKEQ_clean_linker_1, # of connection points: 2
#     Edge 29, Type (0, 1), BuildingBlock: KIFKEQ_clean_linker_1, # of connection points: 2
#     Edge 30, Type (0, 1), BuildingBlock: KIFKEQ_clean_linker_1, # of connection points: 2
#     Edge 31, Type (0, 1), BuildingBlock: KIFKEQ_clean_linker_1, # of connection points: 2
#     Edge 32, Type (0, 1), BuildingBlock: KIFKEQ_clean_linker_1, # of connection points: 2
#     Edge 33, Type (0, 1), BuildingBlock: KIFKEQ_clean_linker_1, # of connection points: 2
#     Edge 34, Type (0, 1), BuildingBlock: KIFKEQ_clean_linker_1, # of connection points: 2
#     Edge 35, Type (0, 1), BuildingBlock: KIFKEQ_clean_linker_1, # of connection points: 2
#     Edge 36, Type (0, 1), BuildingBlock: KIFKEQ_clean_linker_1, # of connection points: 2
#     Edge 37, Type (0, 1), BuildingBlock: KIFKEQ_clean_linker_1, # of connection points: 2
#     Edge 38, Type (0, 1), BuildingBlock: KIFKEQ_clean_linker_1, # of connection points: 2
#     Edge 39, Type (0, 1), BuildingBlock: KIFKEQ_clean_linker_1, # of connection points: 2
#     Edge 40, Type (0, 1), BuildingBlock: KIFKEQ_clean_linker_1, # of connection points: 2
#     Edge 41, Type (0, 1), BuildingBlock: KIFKEQ_clean_linker_1, # of connection points: 2
#     Edge 42, Type (0, 1), BuildingBlock: KIFKEQ_clean_linker_1, # of connection points: 2
#     Edge 43, Type (0, 1), BuildingBlock: KIFKEQ_clean_linker_1, # of connection points: 2
#     Edge 44, Type (0, 1), BuildingBlock: KIFKEQ_clean_linker_1, # of connection points: 2
#     Edge 45, Type (0, 1), BuildingBlock: KIFKEQ_clean_linker_1, # of connection points: 2
#     Edge 46, Type (0, 1), BuildingBlock: KIFKEQ_clean_linker_1, # of connection points: 2
#     Edge 47, Type (0, 1), BuildingBlock: KIFKEQ_clean_linker_1, # of connection points: 2
#     Edge 48, Type (0, 1), BuildingBlock: KIFKEQ_clean_linker_1, # of connection points: 2
#     Edge 49, Type (0, 1), BuildingBlock: KIFKEQ_clean_linker_1, # of connection points: 2
#     Edge 50, Type (0, 1), BuildingBlock: KIFKEQ_clean_linker_1, # of connection points: 2
#     Edge 51, Type (0, 1), BuildingBlock: KIFKEQ_clean_linker_1, # of connection points: 2
#     Edge 52, Type (0, 1), BuildingBlock: KIFKEQ_clean_linker_1, # of connection points: 2
#     Edge 53, Type (0, 1), BuildingBlock: KIFKEQ_clean_linker_1, # of connection points: 2
#     Edge 54, Type (0, 1), BuildingBlock: KIFKEQ_clean_linker_1, # of connection points: 2
#     Edge 55, Type (0, 1), BuildingBlock: KIFKEQ_clean_linker_1, # of connection points: 2
#     Edge 56, Type (0, 1), BuildingBlock: KIFKEQ_clean_linker_1, # of connection points: 2
#     Edge 57, Type (0, 1), BuildingBlock: KIFKEQ_clean_linker_1, # of connection points: 2
#     Edge 58, Type (0, 1), BuildingBlock: KIFKEQ_clean_linker_1, # of connection points: 2
#     Edge 59, Type (0, 1), BuildingBlock: KIFKEQ_clean_linker_1, # of connection points: 2
#     Edge 60, Type (0, 1), BuildingBlock: KIFKEQ_clean_linker_1, # of connection points: 2
#     Edge 61, Type (0, 1), BuildingBlock: KIFKEQ_clean_linker_1, # of connection points: 2
#     Edge 62, Type (0, 1), BuildingBlock: KIFKEQ_clean_linker_1, # of connection points: 2
#     Edge 63, Type (0, 1), BuildingBlock: KIFKEQ_clean_linker_1, # of connection points: 2
#     Edge 64, Type (0, 1), BuildingBlock: KIFKEQ_clean_linker_1, # of connection points: 2
#     Edge 65, Type (0, 1), BuildingBlock: KIFKEQ_clean_linker_1, # of connection points: 2
#     Edge 66, Type (0, 1), BuildingBlock: KIFKEQ_clean_linker_1, # of connection points: 2
#     Edge 67, Type (0, 1), BuildingBlock: KIFKEQ_clean_linker_1, # of connection points: 2
#     Edge 68, Type (0, 1), BuildingBlock: KIFKEQ_clean_linker_1, # of connection points: 2
#     Edge 69, Type (0, 1), BuildingBlock: KIFKEQ_clean_linker_1, # of connection points: 2
#     Edge 70, Type (0, 1), BuildingBlock: KIFKEQ_clean_linker_1, # of connection points: 2
#     Edge 71, Type (0, 1), BuildingBlock: KIFKEQ_clean_linker_1, # of connection points: 2
#     Edge 72, Type (0, 1), BuildingBlock: KIFKEQ_clean_linker_1, # of connection points: 2
#     Edge 73, Type (0, 1), BuildingBlock: KIFKEQ_clean_linker_1, # of connection points: 2
#     Edge 74, Type (0, 1), BuildingBlock: KIFKEQ_clean_linker_1, # of connection points: 2
#     Edge 75, Type (0, 1), BuildingBlock: KIFKEQ_clean_linker_1, # of connection points: 2
# Relax obj value: 0.002
# Max RMSD: 0.034
# Mean RMSD: 0.017
data_MOF--net-ctn--node1-NAHDIM_clean_sbu_0--node2-VETTIZ_charged_linker_0--edge1-KIFKEQ_clean_linker_1
_symmetry_space_group_name_H-M    P1
_symmetry_Int_Tables_number       1
_symmetry_cell_setting            triclinic
loop_
_symmetry_equiv_pos_as_xyz
'x, y, z'
_cell_length_a     68.037817
_cell_length_b     68.378637
_cell_length_c     67.740774
_cell_angle_alpha  91.119824
_cell_angle_beta   90.001953
_cell_angle_gamma 92.05636
loop_
_atom_site_label
_atom_site_type_symbol
_atom_site_fract_x
_atom_site_fract_y
_atom_site_fract_z
_atom_type_partial_charge
C0 C 0.03628 0.099 0.99736 0.0
C1 C 0.02144 0.11264 1.00014 0.0
C2 C 0.00807 0.11003 0.01586 0.0
C3 C 0.02452 0.081 0.02586 0.0
C4 C 0.03754 0.08336 0.01036 0.0
C5 C 0.05246 0.0676 0.00966 0.0
H6 H 0.08848 0.98589 0.04935 0.0
C7 C 0.02991 0.06348 0.03677 0.0
C8 C 0.04628 0.05552 0.02736 0.0
H9 H 0.10939 0.01632 0.99763 0.0
H10 H 0.08431 0.04015 0.00206 0.0
H11 H 0.08216 0.02366 0.07582 0.0
H12 H 0.04244 0.98848 0.03932 0.0
H13 H 0.02981 0.99421 0.06117 0.0
H14 H 0.05175 0.98025 0.06239 0.0
H15 H 0.07269 1.0001 0.08322 0.0
H16 H 0.05968 0.02215 0.08848 0.0
C17 C 0.07316 0.07743 0.01247 0.0
C18 C 0.04971 0.05592 0.98997 0.0
C19 C 0.99077 0.04341 0.09754 0.0
C20 C 0.99261 0.02818 0.11102 0.0
C21 C 0.00772 0.01482 0.10821 0.0
C22 C 0.02078 0.01659 0.09231 0.0
C23 C 0.01881 0.03191 0.07901 0.0
C24 C 0.00402 0.04501 0.08176 0.0
C25 C 0.00437 0.06055 0.06632 0.0
C26 C 0.02178 0.05457 0.05384 0.0
C27 C 0.03013 0.03777 0.06132 0.0
C28 C 0.00821 0.08067 0.07684 0.0
C29 C 0.98478 0.05867 0.05463 0.0
C30 C 0.08755 0.99755 0.03884 0.0
C31 C 0.10092 0.99914 0.02308 0.0
C32 C 0.0994 0.01483 0.01001 0.0
C33 C 0.08474 0.0286 0.01254 0.0
C34 C 0.07144 0.02673 0.02833 0.0
C35 C 0.07303 0.01139 0.04116 0.0
C36 C 0.05776 0.01168 0.05717 0.0
C37 C 0.04661 0.02963 0.05179 0.0
C38 C 0.05466 0.03843 0.0349 0.0
C39 C 0.06847 0.0144 0.0773 0.0
C40 C 0.04476 0.99266 0.05513 0.0
H41 H 0.99889 0.09326 0.04033 0.0
H42 H 0.04688 0.10061 0.98552 0.0
H43 H 0.03386 0.05433 0.98595 0.0
H44 H 0.05473 0.04078 0.99077 0.0
H45 H 0.05747 0.06344 0.97768 0.0
H46 H 0.07271 0.0898 0.02337 0.0
H47 H 0.07886 0.08337 0.99836 0.0
H48 H 0.08396 0.06747 0.0185 0.0
H49 H 0.97948 0.05406 0.0994 0.0
H50 H 0.00931 0.00283 0.11823 0.0
H51 H 0.03192 0.00592 0.09101 0.0
H52 H 0.01826 0.07933 0.08966 0.0
H53 H 0.99431 0.08673 0.08246 0.0
H54 H 0.01568 0.09154 0.06732 0.0
H55 H 0.97971 0.04307 0.05297 0.0
H56 H 0.98616 0.06392 0.03936 0.0
H57 H 0.97297 0.06664 0.0623 0.0
H58 H 0.99626 0.12004 0.01815 0.0
C59 C 0.00953 0.09435 0.02869 0.0
C60 C 0.25194 0.65988 0.23059 0.0
C61 C 0.23452 0.65654 0.21961 0.0
C62 C 0.22996 0.66978 0.20471 0.0
C63 C 0.26012 0.68867 0.21137 0.0
C64 C 0.26445 0.67596 0.22625 0.0
C65 C 0.28356 0.68156 0.23642 0.0
H66 H 0.36461 0.74188 0.24297 0.0
C67 C 0.27644 0.70345 0.21015 0.0
C68 C 0.29023 0.69937 0.2248 0.0
H69 H 0.34819 0.69371 0.28071 0.0
H70 H 0.31862 0.68729 0.26155 0.0
H71 H 0.32109 0.75924 0.24027 0.0
H72 H 0.35348 0.72053 0.20271 0.0
H73 H 0.33941 0.73451 0.18694 0.0
H74 H 0.35787 0.74654 0.20257 0.0
H75 H 0.34241 0.76696 0.22645 0.0
H76 H 0.31819 0.76664 0.21574 0.0
C77 C 0.27904 0.68688 0.25826 0.0
C78 C 0.29769 0.66447 0.23362 0.0
C79 C 0.27527 0.75571 0.15773 0.0
C80 C 0.2892 0.77009 0.15185 0.0
C81 C 0.30731 0.77207 0.16186 0.0
C82 C 0.31144 0.76002 0.17771 0.0
C83 C 0.29741 0.74566 0.18348 0.0
C84 C 0.27978 0.74351 0.17337 0.0
C85 C 0.26724 0.72661 0.18073 0.0
C86 C 0.28005 0.71927 0.19719 0.0
C87 C 0.29759 0.73063 0.19885 0.0
C88 C 0.24778 0.73474 0.18877 0.0
C89 C 0.26459 0.71134 0.16361 0.0
C90 C 0.35475 0.72982 0.24699 0.0
C91 C 0.35876 0.71827 0.26336 0.0
C92 C 0.34534 0.70293 0.26828 0.0
C93 C 0.32821 0.6992 0.2571 0.0
C94 C 0.32436 0.71097 0.24085 0.0
C95 C 0.33753 0.72599 0.23608 0.0
C96 C 0.33091 0.73724 0.21858 0.0
C97 C 0.31146 0.72666 0.21377 0.0
C98 C 0.30775 0.71121 0.22677 0.0
C99 C 0.32807 0.75871 0.22543 0.0
C100 C 0.34618 0.73479 0.20179 0.0
H101 H 0.2383 0.69523 0.18899 0.0
H102 H 0.256 0.64998 0.24207 0.0
H103 H 0.29656 0.65823 0.21835 0.0
H104 H 0.3133 0.66902 0.23553 0.0
H105 H 0.29406 0.6525 0.24402 0.0
H106 H 0.26428 0.69324 0.25978 0.0
H107 H 0.2792 0.67375 0.26765 0.0
H108 H 0.28933 0.69826 0.26447 0.0
H109 H 0.26138 0.75369 0.14999 0.0
H110 H 0.31821 0.78308 0.15748 0.0
H111 H 0.32545 0.76232 0.18481 0.0
H112 H 0.25058 0.74892 0.19679 0.0
H113 H 0.23734 0.73732 0.17656 0.0
H114 H 0.24048 0.7251 0.19963 0.0
H115 H 0.27774 0.71138 0.15385 0.0
H116 H 0.26307 0.69615 0.16879 0.0
H117 H 0.25168 0.71451 0.15431 0.0
H118 H 0.21647 0.66785 0.19628 0.0
C119 C 0.24262 0.68577 0.20054 0.0
C120 C 0.98633 0.41164 0.99998 0.0
C121 C 0.97504 0.40799 0.98283 0.0
C122 C 0.95958 0.42046 0.9786 0.0
C123 C 0.967 0.43984 0.00823 0.0
C124 C 0.98204 0.42751 0.01243 0.0
C125 C 0.99246 0.4332 0.03137 0.0
H126 H 0.00167 0.4936 0.11145 0.0
C127 C 0.96644 0.45492 0.02417 0.0
C128 C 0.98128 0.45105 0.03781 0.0
H129 H 0.03583 0.44332 0.09634 0.0
H130 H 0.01702 0.438 0.06649 0.0
H131 H 0.95937 0.47393 0.09881 0.0
H132 H 0.00117 0.51087 0.06789 0.0
H133 H 0.97762 0.51869 0.06202 0.0
H134 H 0.98594 0.52012 0.08731 0.0
H135 H 0.96351 0.49938 0.10502 0.0
H136 H 0.94614 0.49141 0.08618 0.0
C137 C 0.98955 0.41613 0.04593 0.0
C138 C 0.01422 0.43853 0.02642 0.0
C139 C 0.91669 0.50852 0.02124 0.0
C140 C 0.91266 0.52456 0.03376 0.0
C141 C 0.92387 0.52755 0.05115 0.0
C142 C 0.9388 0.51486 0.05597 0.0
C143 C 0.94265 0.49893 0.0433 0.0
C144 C 0.93165 0.49598 0.02628 0.0
C145 C 0.93777 0.47829 0.01457 0.0
C146 C 0.95433 0.47119 0.0273 0.0
C147 C 0.95711 0.48332 0.04413 0.0
C148 C 0.92007 0.46338 0.01362 0.0
C149 C 0.94526 0.4852 0.99417 0.0
C150 C 0.00497 0.48135 0.10178 0.0
C151 C 0.02029 0.46887 0.10629 0.0
C152 C 0.02429 0.45329 0.09312 0.0
C153 C 0.01325 0.45015 0.07582 0.0
C154 C 0.99801 0.46273 0.07151 0.0
C155 C 0.99412 0.47806 0.08435 0.0
C156 C 0.97754 0.49008 0.07717 0.0
C157 C 0.97201 0.4793 0.05803 0.0
C158 C 0.98405 0.46328 0.05483 0.0
C159 C 0.96072 0.48885 0.09256 0.0
C160 C 0.98581 0.51111 0.07349 0.0
H161 H 0.94365 0.44535 0.98707 0.0
H162 H 0.99812 0.40217 0.00381 0.0
H163 H 0.01542 0.44587 0.01193 0.0
H164 H 0.02111 0.44909 0.03709 0.0
H165 H 0.02313 0.42524 0.02556 0.0
H166 H 0.97479 0.40878 0.044 0.0
H167 H 0.00073 0.40489 0.0435 0.0
H168 H 0.98997 0.42101 0.06157 0.0
H169 H 0.90855 0.50589 0.00766 0.0
H170 H 0.92093 0.53959 0.06121 0.0
H171 H 0.94674 0.51792 0.06943 0.0
H172 H 0.91124 0.464 0.02743 0.0
H173 H 0.91014 0.46645 0.00113 0.0
H174 H 0.92459 0.44805 0.01239 0.0
H175 H 0.95369 0.49941 0.99565 0.0
H176 H 0.95558 0.47508 0.98719 0.0
H177 H 0.93282 0.48731 0.98391 0.0
H178 H 0.95077 0.41808 0.9654 0.0
C179 C 0.95553 0.43636 0.99117 0.0
C180 C 0.65704 0.7926 0.252 0.0
C181 C 0.64375 0.77647 0.24963 0.0
C182 C 0.64633 0.76333 0.23359 0.0
C183 C 0.67505 0.78224 0.22288 0.0
C184 C 0.67251 0.79518 0.23852 0.0
C185 C 0.68806 0.8114 0.23904 0.0
H186 H 0.76952 0.85398 0.19851 0.0
C187 C 0.69268 0.7889 0.21179 0.0
C188 C 0.7004 0.80598 0.2212 0.0
H189 H 0.73808 0.8727 0.25067 0.0
H190 H 0.71487 0.84544 0.24647 0.0
H191 H 0.73134 0.84225 0.17216 0.0
H192 H 0.76885 0.80921 0.20906 0.0
H193 H 0.76259 0.79399 0.18872 0.0
H194 H 0.77622 0.81674 0.18487 0.0
H195 H 0.75619 0.83691 0.16565 0.0
H196 H 0.73593 0.82018 0.15953 0.0
C197 C 0.67783 0.83104 0.23631 0.0
C198 C 0.69973 0.8101 0.25859 0.0
C199 C 0.71468 0.75012 0.15138 0.0
C200 C 0.73076 0.7524 0.13847 0.0
C201 C 0.7442 0.76835 0.14148 0.0
C202 C 0.74166 0.78183 0.15703 0.0
C203 C 0.72555 0.77935 0.16983 0.0
C204 C 0.71242 0.76367 0.16693 0.0
C205 C 0.69641 0.76316 0.18225 0.0
C206 C 0.70206 0.78117 0.19476 0.0
C207 C 0.71908 0.79062 0.18734 0.0
C208 C 0.67647 0.76533 0.1716 0.0
C209 C 0.69798 0.74402 0.19397 0.0
C210 C 0.75778 0.85214 0.20918 0.0
C211 C 0.7557 0.8656 0.22495 0.0
C212 C 0.73993 0.86274 0.23824 0.0
C213 C 0.72651 0.84681 0.23585 0.0
C214 C 0.72885 0.83349 0.22002 0.0
C215 C 0.74432 0.83628 0.20705 0.0
C216 C 0.74471 0.82058 0.19123 0.0
C217 C 0.72685 0.80794 0.19677 0.0
C218 C 0.71758 0.81558 0.21361 0.0
C219 C 0.74205 0.83035 0.171 0.0
C220 C 0.7641 0.80955 0.19336 0.0
H221 H 0.66302 0.75556 0.20843 0.0
H222 H 0.6554 0.80311 0.264 0.0
H223 H 0.70123 0.79458 0.26284 0.0
H224 H 0.71498 0.81604 0.25748 0.0
H225 H 0.69217 0.81774 0.27089 0.0
H226 H 0.66548 0.82926 0.22557 0.0
H227 H 0.67167 0.83648 0.25049 0.0
H228 H 0.68767 0.84255 0.23012 0.0
H229 H 0.70422 0.73789 0.1496 0.0
H230 H 0.75657 0.77056 0.1316 0.0
H231 H 0.75236 0.79369 0.15845 0.0
H232 H 0.67803 0.77578 0.15926 0.0
H233 H 0.67091 0.75108 0.16528 0.0
H234 H 0.66507 0.77144 0.18127 0.0
H235 H 0.71357 0.73985 0.19534 0.0
H236 H 0.69275 0.74545 0.20935 0.0
H237 H 0.68976 0.73166 0.18649 0.0
H238 H 0.63653 0.75062 0.23154 0.0
C239 C 0.66184 0.76614 0.22024 0.0
C240 C 0.03321 0.91963 0.50466 0.0
C241 C 0.01669 0.90666 0.50351 0.0
C242 C 0.00232 0.90956 0.48895 0.0
C243 C 0.02075 0.93803 0.4773 0.0
C244 C 0.0349 0.93517 0.49149 0.0
C245 C 0.05136 0.95046 0.49085 0.0
H246 H 0.09061 0.03295 0.45053 0.0
C247 C 0.02677 0.95558 0.46611 0.0
C248 C 0.0447 0.96296 0.47397 0.0
H249 H 0.11413 0.99934 0.4979 0.0
H250 H 0.08659 0.9762 0.49516 0.0
H251 H 0.04525 0.03011 0.46478 0.0
H252 H 0.07833 0.99615 0.42313 0.0
H253 H 0.05489 0.9987 0.41289 0.0
H254 H 0.07041 0.02022 0.41773 0.0
H255 H 0.05342 0.03945 0.44147 0.0
H256 H 0.03043 0.02574 0.44379 0.0
C257 C 0.05169 0.96191 0.51082 0.0
C258 C 0.07067 0.94008 0.48588 0.0
C259 C 0.9836 0.97806 0.41031 0.0
C260 C 0.98525 0.99375 0.39721 0.0
C261 C 0.00166 0.00689 0.39882 0.0
C262 C 0.01616 0.00444 0.41319 0.0
C263 C 0.0143 0.98866 0.42613 0.0
C264 C 0.99822 0.9758 0.42455 0.0
C265 C 0.99873 0.95982 0.43946 0.0
C266 C 0.01781 0.96516 0.45021 0.0
C267 C 0.02684 0.98208 0.44238 0.0
C268 C 0.98058 0.96165 0.45312 0.0
C269 C 0.99975 0.93996 0.42814 0.0
C270 C 0.08973 0.02069 0.46042 0.0
C271 C 0.10452 0.01802 0.47451 0.0
C272 C 0.10301 0.00165 0.48683 0.0
C273 C 0.08694 0.98828 0.48528 0.0
C274 C 0.07221 0.99122 0.47121 0.0
C275 C 0.07383 0.00715 0.45898 0.0
C276 C 0.05703 0.00771 0.4446 0.0
C277 C 0.04492 0.98964 0.45038 0.0
C278 C 0.05384 0.98008 0.46603 0.0
C279 C 0.04592 0.02676 0.44865 0.0
C280 C 0.06546 0.00574 0.42342 0.0
H281 H 0.99281 0.92647 0.46516 0.0
H282 H 0.04444 0.91793 0.51576 0.0
H283 H 0.06783 0.92738 0.47562 0.0
H284 H 0.08147 0.94958 0.47809 0.0
H285 H 0.07759 0.9345 0.49941 0.0
H286 H 0.03648 0.9641 0.51625 0.0
H287 H 0.05959 0.95384 0.52228 0.0
H288 H 0.05837 0.97679 0.50977 0.0
H289 H 0.97134 0.96753 0.40933 0.0
H290 H 0.00319 0.01922 0.38908 0.0
H291 H 0.02824 0.01496 0.41366 0.0
H292 H 0.97694 0.97726 0.4555 0.0
H293 H 0.96742 0.95392 0.4466 0.0
H294 H 0.98307 0.95614 0.4681 0.0
H295 H 0.0088 0.94148 0.41454 0.0
H296 H 0.00694 0.92864 0.4367 0.0
H297 H 0.98486 0.93438 0.42361 0.0
H298 H 0.98961 0.89963 0.48752 0.0
C299 C 0.00426 0.92512 0.47588 0.0
C300 C 0.25101 0.66665 0.79574 0.0
C301 C 0.24861 0.65238 0.78061 0.0
C302 C 0.23304 0.65392 0.76704 0.0
C303 C 0.22273 0.68355 0.78369 0.0
C304 C 0.23795 0.68199 0.79701 0.0
C305 C 0.23836 0.69822 0.81233 0.0
H306 H 0.19876 0.78041 0.84977 0.0
C307 C 0.21183 0.70117 0.78918 0.0
C308 C 0.22091 0.7098 0.80598 0.0
H309 H 0.2496 0.75083 0.87087 0.0
H310 H 0.24543 0.72635 0.84496 0.0
H311 H 0.17203 0.74188 0.84113 0.0
H312 H 0.20989 0.77712 0.80419 0.0
H313 H 0.18907 0.77039 0.79 0.0
H314 H 0.18627 0.78495 0.81227 0.0
H315 H 0.16555 0.76562 0.83298 0.0
H316 H 0.15996 0.74378 0.81838 0.0
C317 C 0.23506 0.68899 0.83284 0.0
C318 C 0.25805 0.71012 0.81026 0.0
C319 C 0.15281 0.72013 0.74849 0.0
C320 C 0.13973 0.73556 0.75023 0.0
C321 C 0.14244 0.74945 0.76574 0.0
C322 C 0.15779 0.74797 0.77933 0.0
C323 C 0.17066 0.73243 0.77747 0.0
C324 C 0.16808 0.71884 0.76225 0.0
C325 C 0.18312 0.70323 0.76275 0.0
C326 C 0.19517 0.70978 0.78073 0.0
C327 C 0.18778 0.72688 0.78926 0.0
C328 C 0.17218 0.68326 0.76588 0.0
C329 C 0.19533 0.70437 0.74348 0.0
C330 C 0.20912 0.76877 0.84873 0.0
C331 C 0.22454 0.7676 0.86243 0.0
C332 C 0.23745 0.75197 0.86068 0.0
C333 C 0.23508 0.73782 0.84553 0.0
C334 C 0.21964 0.73926 0.83191 0.0
C335 C 0.20698 0.75455 0.83367 0.0
C336 C 0.19147 0.75382 0.81785 0.0
C337 C 0.1969 0.73558 0.80628 0.0
C338 C 0.21339 0.7271 0.81458 0.0
C339 C 0.17111 0.75129 0.82795 0.0
C340 C 0.19408 0.77255 0.80542 0.0
H341 H 0.20863 0.66978 0.75768 0.0
H342 H 0.26265 0.66576 0.80656 0.0
H343 H 0.26256 0.71099 0.79451 0.0
H344 H 0.25709 0.7255 0.81532 0.0
H345 H 0.27005 0.7032 0.81842 0.0
H346 H 0.22452 0.67619 0.83179 0.0
H347 H 0.24905 0.68381 0.83897 0.0
H348 H 0.22841 0.69907 0.84365 0.0
H349 H 0.15101 0.70909 0.73688 0.0
H350 H 0.13276 0.76162 0.76726 0.0
H351 H 0.15902 0.75902 0.79076 0.0
H352 H 0.15917 0.68498 0.77564 0.0
H353 H 0.16685 0.67674 0.75163 0.0
H354 H 0.18127 0.67263 0.77342 0.0
H355 H 0.19796 0.71985 0.73912 0.0
H356 H 0.21014 0.69849 0.74501 0.0
H357 H 0.18755 0.69654 0.73109 0.0
H358 H 0.23098 0.64325 0.75513 0.0
C359 C 0.22013 0.66941 0.76848 0.0
C360 C 0.9087 0.50398 0.48526 0.0
C361 C 0.90499 0.48603 0.47534 0.0
C362 C 0.91779 0.48005 0.46026 0.0
C363 C 0.93764 0.50996 0.46494 0.0
C364 C 0.9252 0.51556 0.48001 0.0
C365 C 0.93202 0.53447 0.48991 0.0
H366 H 0.99856 0.61026 0.4967 0.0
C367 C 0.95349 0.52522 0.46332 0.0
C368 C 0.95041 0.53948 0.47809 0.0
H369 H 0.94809 0.59835 0.534 0.0
H370 H 0.93961 0.56947 0.51448 0.0
H371 H 0.97679 0.59919 0.45568 0.0
H372 H 0.01266 0.56618 0.4943 0.0
H373 H 0.01963 0.56041 0.46997 0.0
H374 H 0.02268 0.58529 0.47911 0.0
H375 H 0.00295 0.60324 0.45737 0.0
H376 H 0.99204 0.5851 0.44062 0.0
C377 C 0.91593 0.54961 0.48703 0.0
C378 C 0.9368 0.53028 0.5118 0.0
C379 C 0.00425 0.5207 0.4084 0.0
C380 C 0.02049 0.53278 0.40308 0.0
C381 C 0.02513 0.54967 0.41466 0.0
C382 C 0.0137 0.55458 0.43111 0.0
C383 C 0.9974 0.54248 0.43613 0.0
C384 C 0.99298 0.52579 0.42493 0.0
C385 C 0.9753 0.51453 0.43268 0.0
C386 C 0.96958 0.52747 0.45009 0.0
C387 C 0.98259 0.54381 0.45202 0.0
C388 C 0.95932 0.51366 0.41639 0.0
C389 C 0.98193 0.49422 0.43934 0.0
C390 C 0.98577 0.60135 0.50077 0.0
C391 C 0.974 0.60666 0.51697 0.0
C392 C 0.95728 0.59479 0.52148 0.0
C393 C 0.95246 0.57789 0.51021 0.0
C394 C 0.96448 0.57269 0.49422 0.0
C395 C 0.98077 0.58439 0.48969 0.0
C396 C 0.99184 0.57656 0.47218 0.0
C397 C 0.97969 0.55807 0.46717 0.0
C398 C 0.96366 0.55592 0.4801 0.0
C399 C 0.99108 0.59176 0.45555 0.0
C400 C 0.01288 0.57195 0.47905 0.0
H401 H 0.94323 0.48671 0.44324 0.0
H402 H 0.89919 0.50867 0.49715 0.0
H403 H 0.94184 0.5151 0.5135 0.0
H404 H 0.94904 0.5397 0.51773 0.0
H405 H 0.92366 0.53195 0.52133 0.0
H406 H 0.90962 0.54828 0.47189 0.0
H407 H 0.90369 0.5473 0.49768 0.0
H408 H 0.92159 0.5649 0.48845 0.0
H409 H 1.00045 0.50747 0.39997 0.0
H410 H 0.03743 0.55934 0.41078 0.0
H411 H 0.01794 0.5677 0.4392 0.0
H412 H 0.95831 0.52814 0.40931 0.0
H413 H 0.96283 0.50274 0.40467 0.0
H414 H 0.94445 0.51015 0.42208 0.0
H415 H 0.99759 0.49486 0.44416 0.0
H416 H 0.9737 0.48884 0.45235 0.0
H417 H 0.98049 0.48316 0.42715 0.0
H418 H 0.91512 0.46617 0.45256 0.0
C419 C 0.93405 0.49198 0.45491 0.0
C420 C 0.79142 0.7443 0.84102 0.0
C421 C 0.77554 0.74528 0.85431 0.0
C422 C 0.76201 0.76028 0.85208 0.0
C423 C 0.7805 0.77308 0.82431 0.0
C424 C 0.79348 0.75815 0.82613 0.0
C425 C 0.80908 0.75869 0.81038 0.0
H426 H 0.85103 0.8039 0.73221 0.0
C427 C 0.78695 0.78518 0.8075 0.0
C428 C 0.8036 0.77673 0.79917 0.0
H429 H 0.86611 0.74893 0.75799 0.0
H430 H 0.8404 0.75224 0.78195 0.0
H431 H 0.84221 0.8272 0.77314 0.0
H432 H 0.80476 0.79422 0.73236 0.0
H433 H 0.79201 0.81493 0.73996 0.0
H434 H 0.81493 0.81806 0.72679 0.0
H435 H 0.8363 0.83591 0.7491 0.0
H436 H 0.82064 0.84022 0.7701 0.0
C437 C 0.82936 0.76154 0.82062 0.0
C438 C 0.80672 0.73972 0.79751 0.0
C439 C 0.75063 0.84659 0.79159 0.0
C440 C 0.75344 0.86106 0.77728 0.0
C441 C 0.76918 0.8595 0.76386 0.0
C442 C 0.78188 0.84383 0.76467 0.0
C443 C 0.77885 0.82948 0.77904 0.0
C444 C 0.76343 0.83103 0.7922 0.0
C445 C 0.76243 0.81446 0.80647 0.0
C446 C 0.77979 0.8027 0.79973 0.0
C447 C 0.78935 0.81156 0.78365 0.0
C448 C 0.76548 0.82321 0.82756 0.0
C449 C 0.74259 0.80293 0.80335 0.0
C450 C 0.84875 0.79246 0.74288 0.0
C451 C 0.86092 0.77621 0.74318 0.0
C452 C 0.85739 0.76185 0.75758 0.0
C453 C 0.84225 0.76366 0.77142 0.0
C454 C 0.83024 0.77991 0.77085 0.0
C455 C 0.83348 0.7939 0.75667 0.0
C456 C 0.81872 0.80976 0.75787 0.0
C457 C 0.80609 0.80292 0.77508 0.0
C458 C 0.81306 0.78553 0.78272 0.0
C459 C 0.82991 0.8294 0.76266 0.0
C460 C 0.807 0.80945 0.73824 0.0
H461 H 0.75367 0.78519 0.83644 0.0
H462 H 0.80218 0.7331 0.8422 0.0
H463 H 0.79134 0.73361 0.79781 0.0
H464 H 0.8097 0.74229 0.7817 0.0
H465 H 0.81642 0.72819 0.8028 0.0
H466 H 0.82868 0.7727 0.83276 0.0
H467 H 0.83403 0.74767 0.82713 0.0
H468 H 0.84103 0.76698 0.81062 0.0
H469 H 0.73854 0.84718 0.80196 0.0
H470 H 0.77185 0.87056 0.75285 0.0
H471 H 0.7936 0.84352 0.75409 0.0
H472 H 0.77699 0.8352 0.82758 0.0
H473 H 0.7517 0.82944 0.83331 0.0
H474 H 0.77073 0.81255 0.83818 0.0
H475 H 0.73772 0.8034 0.78769 0.0
H476 H 0.74358 0.78716 0.80637 0.0
H477 H 0.7308 0.80914 0.81264 0.0
H478 H 0.74932 0.7612 0.86165 0.0
C479 C 0.76445 0.77417 0.83727 0.0
C480 C 0.29062 0.24085 0.34172 0.0
C481 C 0.27487 0.24137 0.35516 0.0
C482 C 0.2613 0.25641 0.35364 0.0
C483 C 0.27914 0.26978 0.32567 0.0
C484 C 0.2924 0.25504 0.32717 0.0
C485 C 0.30807 0.2562 0.31157 0.0
H486 H 0.3472 0.30031 0.23145 0.0
C487 C 0.2852 0.28206 0.30883 0.0
C488 C 0.3021 0.27413 0.30049 0.0
H489 H 0.36669 0.24893 0.261 0.0
H490 H 0.34066 0.25166 0.28474 0.0
H491 H 0.33859 0.32538 0.27172 0.0
H492 H 0.30082 0.2892 0.23392 0.0
H493 H 0.28828 0.31047 0.24022 0.0
H494 H 0.31091 0.31252 0.22647 0.0
H495 H 0.33119 0.333 0.24771 0.0
H496 H 0.31624 0.3372 0.26928 0.0
C497 C 0.32822 0.25958 0.32201 0.0
C498 C 0.30628 0.2373 0.29855 0.0
C499 C 0.24559 0.3409 0.29135 0.0
C500 C 0.24758 0.35511 0.27668 0.0
C501 C 0.26347 0.35414 0.26336 0.0
C502 C 0.27703 0.33922 0.26454 0.0
C503 C 0.27476 0.32508 0.27923 0.0
C504 C 0.25927 0.32613 0.29237 0.0
C505 C 0.25923 0.30999 0.30713 0.0
C506 C 0.27721 0.29903 0.30067 0.0
C507 C 0.28624 0.30789 0.28428 0.0
C508 C 0.26189 0.31941 0.32799 0.0
C509 C 0.24 0.29739 0.30437 0.0
C510 C 0.3459 0.28975 0.24313 0.0
C511 C 0.35893 0.27426 0.24422 0.0
C512 C 0.35664 0.26077 0.25959 0.0
C513 C 0.34155 0.26244 0.27346 0.0
C514 C 0.32846 0.27775 0.27203 0.0
C515 C 0.33076 0.29116 0.25713 0.0
C516 C 0.3153 0.3064 0.258 0.0
C517 C 0.3033 0.29977 0.27576 0.0
C518 C 0.31115 0.283 0.28387 0.0
C519 C 0.32573 0.32664 0.26173 0.0
C520 C 0.30318 0.30478 0.23864 0.0
H521 H 0.25252 0.28159 0.33863 0.0
H522 H 0.30149 0.22971 0.34257 0.0
H523 H 0.29074 0.23171 0.29755 0.0
H524 H 0.3107 0.23967 0.28306 0.0
H525 H 0.31506 0.22547 0.30472 0.0
H526 H 0.32682 0.26923 0.33533 0.0
H527 H 0.33416 0.24555 0.32688 0.0
H528 H 0.33929 0.26721 0.31272 0.0
H529 H 0.23374 0.34136 0.30201 0.0
H530 H 0.26526 0.36478 0.2518 0.0
H531 H 0.28872 0.33924 0.25391 0.0
H532 H 0.27225 0.33236 0.32758 0.0
H533 H 0.24767 0.32442 0.33393 0.0
H534 H 0.26842 0.30952 0.33867 0.0
H535 H 0.23562 0.29644 0.28854 0.0
H536 H 0.24152 0.28204 0.30873 0.0
H537 H 0.22767 0.30377 0.31275 0.0
H538 H 0.24887 0.25707 0.36359 0.0
C539 C 0.26336 0.2706 0.33902 0.0
C540 C 0.48273 0.91292 0.49792 0.0
C541 C 0.47136 0.90935 0.48077 0.0
C542 C 0.45654 0.92244 0.47617 0.0
C543 C 0.46445 0.94199 0.50552 0.0
C544 C 0.47903 0.92923 0.51001 0.0
C545 C 0.48969 0.93508 0.5288 0.0
H546 H 0.4992 0.99626 0.60836 0.0
C547 C 0.46423 0.95732 0.52121 0.0
C548 C 0.47899 0.95335 0.53491 0.0
H549 H 0.53379 0.94621 0.59364 0.0
H550 H 0.51509 0.94065 0.56362 0.0
H551 H 0.4571 0.9766 0.59555 0.0
H552 H 0.49933 0.01344 0.56519 0.0
H553 H 0.47597 0.0211 0.55845 0.0
H554 H 0.48348 0.02286 0.584 0.0
H555 H 0.46129 0.00205 0.60176 0.0
H556 H 0.44398 0.99411 0.58284 0.0
C557 C 0.48641 0.9184 0.54373 0.0
C558 C 0.51155 0.93973 0.52371 0.0
C559 C 0.41452 0.011 0.51834 0.0
C560 C 0.41057 0.02705 0.53087 0.0
C561 C 0.42201 0.03017 0.54809 0.0
C562 C 0.43703 0.01756 0.55277 0.0
C563 C 0.44074 0.00156 0.54014 0.0
C564 C 0.42959 0.99852 0.52324 0.0
C565 C 0.43561 0.98077 0.51157 0.0
C566 C 0.45226 0.97371 0.52423 0.0
C567 C 0.45516 0.98592 0.54095 0.0
C568 C 0.41787 0.96589 0.51084 0.0
C569 C 0.44296 0.98756 0.49108 0.0
C570 C 0.50261 0.98399 0.59875 0.0
C571 C 0.5179 0.97158 0.60343 0.0
C572 C 0.52216 0.95604 0.5903 0.0
C573 C 0.51121 0.95279 0.57293 0.0
C574 C 0.49587 0.96524 0.56853 0.0
C575 C 0.49191 0.98063 0.58128 0.0
C576 C 0.47544 0.99268 0.57399 0.0
C577 C 0.47001 0.98187 0.55487 0.0
C578 C 0.48194 0.96575 0.5518 0.0
C579 C 0.45853 0.99151 0.5893 0.0
C580 C 0.4838 0.01368 0.5703 0.0
H581 H 0.44151 0.94802 0.4841 0.0
H582 H 0.49439 0.90332 0.50178 0.0
H583 H 0.51298 0.94621 0.50881 0.0
H584 H 0.51853 0.95079 0.53382 0.0
H585 H 0.52023 0.92629 0.52371 0.0
H586 H 0.47111 0.91215 0.5427 0.0
H587 H 0.49657 0.90633 0.54077 0.0
H588 H 0.48815 0.92338 0.55924 0.0
H589 H 0.40618 0.00827 0.50488 0.0
H590 H 0.41913 0.04223 0.55816 0.0
H591 H 0.44511 0.0207 0.56613 0.0
H592 H 0.40934 0.96642 0.52485 0.0
H593 H 0.40769 0.96911 0.49861 0.0
H594 H 0.42231 0.95056 0.50936 0.0
H595 H 0.45102 0.00199 0.49234 0.0
H596 H 0.4536 0.97763 0.48431 0.0
H597 H 0.43048 0.98918 0.48074 0.0
H598 H 0.44739 0.91993 0.46322 0.0
C599 C 0.45305 0.9387 0.48841 0.0
C600 C 0.15697 0.29447 0.75538 0.0
C601 C 0.14391 0.27813 0.75316 0.0
C602 C 0.14608 0.26539 0.73675 0.0
C603 C 0.17412 0.28492 0.72544 0.0
C604 C 0.17193 0.29755 0.74141 0.0
C605 C 0.18729 0.31398 0.74163 0.0
H606 H 0.26697 0.35787 0.69879 0.0
C607 C 0.19118 0.29204 0.7138 0.0
C608 C 0.19898 0.30911 0.72317 0.0
H609 H 0.23765 0.37539 0.75263 0.0
H610 H 0.21416 0.34831 0.7486 0.0
H611 H 0.22808 0.34714 0.67376 0.0
H612 H 0.26633 0.31248 0.70825 0.0
H613 H 0.25999 0.29852 0.68704 0.0
H614 H 0.27329 0.32163 0.68451 0.0
H615 H 0.25228 0.34111 0.66565 0.0
H616 H 0.23116 0.32509 0.66058 0.0
C617 C 0.17668 0.33353 0.73979 0.0
C618 C 0.19976 0.31246 0.76064 0.0
C619 C 0.21171 0.25397 0.65246 0.0
C620 C 0.22694 0.25684 0.63866 0.0
C621 C 0.2398 0.27338 0.64087 0.0
C622 C 0.2376 0.28675 0.65659 0.0
C623 C 0.22239 0.2836 0.67033 0.0
C624 C 0.20972 0.26747 0.66808 0.0
C625 C 0.19434 0.26654 0.68401 0.0
C626 C 0.19998 0.28469 0.6963 0.0
C627 C 0.21642 0.29459 0.68823 0.0
C628 C 0.1739 0.26812 0.67417 0.0
C629 C 0.197 0.24749 0.69562 0.0
C630 C 0.25563 0.35581 0.70985 0.0
C631 C 0.25427 0.36884 0.72608 0.0
C632 C 0.23896 0.36575 0.73986 0.0
C633 C 0.22539 0.34992 0.73757 0.0
C634 C 0.2271 0.33695 0.72135 0.0
C635 C 0.24205 0.34005 0.70784 0.0
C636 C 0.24185 0.32472 0.69164 0.0
C637 C 0.22431 0.31187 0.69762 0.0
C638 C 0.21568 0.31909 0.71501 0.0
C639 C 0.2383 0.33491 0.67178 0.0
C640 C 0.26138 0.31376 0.69269 0.0
H641 H 0.16187 0.25843 0.7108 0.0
H642 H 0.15581 0.30446 0.7679 0.0
H643 H 0.20175 0.29689 0.7644 0.0
H644 H 0.21483 0.31875 0.75906 0.0
H645 H 0.19255 0.31966 0.77342 0.0
H646 H 0.16408 0.33185 0.72934 0.0
H647 H 0.17081 0.33845 0.75428 0.0
H648 H 0.18619 0.34536 0.73372 0.0
H649 H 0.20141 0.24157 0.65105 0.0
H650 H 0.25177 0.27585 0.63058 0.0
H651 H 0.24791 0.29897 0.65748 0.0
H652 H 0.1748 0.2777 0.66109 0.0
H653 H 0.16798 0.25353 0.66907 0.0
H654 H 0.16303 0.27497 0.68397 0.0
H655 H 0.21285 0.24422 0.69695 0.0
H656 H 0.19169 0.24849 0.71099 0.0
H657 H 0.18948 0.23476 0.68805 0.0
H658 H 0.13604 0.2529 0.73447 0.0
C659 C 0.16106 0.26869 0.72292 0.0
C660 C 0.75315 0.15438 0.72912 0.0
C661 C 0.73637 0.15003 0.71745 0.0
C662 C 0.73163 0.16287 0.70226 0.0
C663 C 0.76021 0.18367 0.71026 0.0
C664 C 0.76482 0.1712 0.72525 0.0
C665 C 0.78325 0.17796 0.73609 0.0
H666 H 0.85909 0.24443 0.74673 0.0
C667 C 0.77536 0.19969 0.70995 0.0
C668 C 0.78892 0.19647 0.72506 0.0
H669 H 0.84701 0.19272 0.78109 0.0
H670 H 0.81795 0.1851 0.76159 0.0
H671 H 0.81468 0.25807 0.74466 0.0
H672 H 0.84953 0.22394 0.70475 0.0
H673 H 0.83563 0.23937 0.69027 0.0
H674 H 0.85322 0.24995 0.70771 0.0
H675 H 0.83435 0.26867 0.73029 0.0
H676 H 0.8097 0.26575 0.72063 0.0
C677 C 0.77774 0.18241 0.75786 0.0
C678 C 0.7987 0.16203 0.73337 0.0
C679 C 0.77142 0.2526 0.65858 0.0
C680 C 0.78352 0.26907 0.65418 0.0
C681 C 0.80034 0.27324 0.66591 0.0
C682 C 0.80509 0.2612 0.68161 0.0
C683 C 0.79294 0.24471 0.68567 0.0
C684 C 0.77642 0.24067 0.67424 0.0
C685 C 0.76533 0.22243 0.68055 0.0
C686 C 0.77793 0.21616 0.69764 0.0
C687 C 0.79406 0.22927 0.70058 0.0
C688 C 0.74457 0.22823 0.68745 0.0
C689 C 0.76539 0.20742 0.66309 0.0
C690 C 0.85031 0.23135 0.74996 0.0
C691 C 0.85542 0.21917 0.76551 0.0
C692 C 0.84332 0.20248 0.76937 0.0
C693 C 0.82649 0.19802 0.75794 0.0
C694 C 0.82162 0.21035 0.74246 0.0
C695 C 0.83347 0.22669 0.7387 0.0
C696 C 0.82607 0.23816 0.72169 0.0
C697 C 0.80779 0.22607 0.71587 0.0
C698 C 0.80524 0.20977 0.72806 0.0
C699 C 0.82102 0.25882 0.72953 0.0
C700 C 0.84189 0.23807 0.70521 0.0
H701 H 0.73897 0.18874 0.68686 0.0
H702 H 0.7573 0.14477 0.74082 0.0
H703 H 0.79781 0.15537 0.71826 0.0
H704 H 0.81398 0.16787 0.73478 0.0
H705 H 0.79628 0.15009 0.74408 0.0
H706 H 0.76299 0.1889 0.75884 0.0
H707 H 0.77724 0.16886 0.76665 0.0
H708 H 0.78784 0.19334 0.76507 0.0
H709 H 0.75825 0.24905 0.65007 0.0
H710 H 0.8101 0.28564 0.66273 0.0
H711 H 0.81813 0.26513 0.68987 0.0
H712 H 0.74513 0.24291 0.69488 0.0
H713 H 0.73429 0.22887 0.67476 0.0
H714 H 0.73817 0.21828 0.69858 0.0
H715 H 0.77944 0.20862 0.65471 0.0
H716 H 0.76441 0.19208 0.66789 0.0
H717 H 0.75323 0.20991 0.65259 0.0
H718 H 0.71863 0.16009 0.69328 0.0
C719 C 0.74342 0.17961 0.69862 0.0
C720 C 0.53323 0.59914 0.49518 0.0
C721 C 0.51755 0.61189 0.49738 0.0
C722 C 0.50415 0.60897 0.51303 0.0
C723 C 0.52214 0.58119 0.52396 0.0
C724 C 0.5352 0.58395 0.50855 0.0
C725 C 0.55096 0.56906 0.50827 0.0
H726 H 0.59209 0.491 0.54983 0.0
C727 C 0.52843 0.56423 0.53528 0.0
C728 C 0.54529 0.55703 0.52614 0.0
H729 H 0.61104 0.52186 0.49764 0.0
H730 H 0.58397 0.54347 0.50115 0.0
H731 H 0.58235 0.5294 0.57567 0.0
H732 H 0.54624 0.49002 0.53961 0.0
H733 H 0.53253 0.49569 0.56078 0.0
H734 H 0.55536 0.48333 0.56331 0.0
H735 H 0.57562 0.50501 0.58307 0.0
H736 H 0.56011 0.52531 0.58834 0.0
C737 C 0.5711 0.58006 0.51109 0.0
C738 C 0.54899 0.55689 0.48877 0.0
C739 C 0.49012 0.54326 0.59626 0.0
C740 C 0.49251 0.52824 0.60987 0.0
C741 C 0.5083 0.51561 0.60731 0.0
C742 C 0.52144 0.51787 0.59152 0.0
C743 C 0.51886 0.53296 0.57808 0.0
C744 C 0.5034 0.54533 0.58056 0.0
C745 C 0.50296 0.56052 0.56481 0.0
C746 C 0.52072 0.55523 0.5525 0.0
C747 C 0.52998 0.53909 0.56035 0.0
C748 C 0.50573 0.58096 0.57494 0.0
C749 C 0.4835 0.55744 0.55308 0.0
C750 C 0.5905 0.50252 0.53925 0.0
C751 C 0.60376 0.50471 0.52345 0.0
C752 C 0.60093 0.5197 0.50983 0.0
C753 C 0.58525 0.53232 0.51195 0.0
C754 C 0.57217 0.52999 0.52786 0.0
C755 C 0.57488 0.51523 0.54114 0.0
C756 C 0.55942 0.51479 0.55701 0.0
C757 C 0.54703 0.53176 0.55111 0.0
C758 C 0.5546 0.54065 0.53407 0.0
C759 C 0.56977 0.51868 0.57716 0.0
C760 C 0.54777 0.49492 0.55532 0.0
H761 H 0.49572 0.59238 0.53791 0.0
H762 H 0.54364 0.60082 0.48318 0.0
H763 H 0.53331 0.55495 0.48425 0.0
H764 H 0.55418 0.54186 0.49013 0.0
H765 H 0.55703 0.56423 0.47655 0.0
H766 H 0.56987 0.59253 0.52176 0.0
H767 H 0.57659 0.58606 0.49692 0.0
H768 H 0.58243 0.57086 0.5174 0.0
H769 H 0.47804 0.55309 0.59764 0.0
H770 H 0.51068 0.50409 0.6177 0.0
H771 H 0.53315 0.50782 0.59047 0.0
H772 H 0.51613 0.58044 0.58759 0.0
H773 H 0.49155 0.58621 0.58075 0.0
H774 H 0.5123 0.59209 0.56511 0.0
H775 H 0.47918 0.54162 0.55178 0.0
H776 H 0.48467 0.56239 0.53769 0.0
H777 H 0.47127 0.56499 0.56052 0.0
H778 H 0.49209 0.61869 0.51522 0.0
C779 C 0.50636 0.59373 0.52629 0.0
C780 C 0.5345 0.42239 0.0124 0.0
C781 C 0.51805 0.40934 0.01161 0.0
C782 C 0.50401 0.41134 0.99652 0.0
C783 C 0.5229 0.43892 0.98345 0.0
C784 C 0.53661 0.43696 0.99826 0.0
C785 C 0.55331 0.45187 0.99703 0.0
H786 H 0.59627 0.52956 0.95167 0.0
C787 C 0.52964 0.45541 0.97104 0.0
C788 C 0.54748 0.46301 0.97891 0.0
H789 H 0.61578 0.50031 0.00383 0.0
H790 H 0.58818 0.47739 0.00129 0.0
H791 H 0.54929 0.52827 0.96322 0.0
H792 H 0.58514 0.49135 0.92703 0.0
H793 H 0.56201 0.49151 0.9156 0.0
H794 H 0.57649 0.51408 0.91827 0.0
H795 H 0.56044 0.53597 0.9405 0.0
H796 H 0.53689 0.52315 0.94079 0.0
C797 C 0.55311 0.46487 0.01604 0.0
C798 C 0.57259 0.44086 0.99366 0.0
C799 C 0.48885 0.47456 0.91205 0.0
C800 C 0.49203 0.48832 0.89715 0.0
C801 C 0.50931 0.50029 0.89753 0.0
C802 C 0.52317 0.49874 0.91268 0.0
C803 C 0.51982 0.48493 0.92752 0.0
C804 C 0.503 0.47296 0.92691 0.0
C805 C 0.50246 0.45836 0.94325 0.0
C806 C 0.52155 0.46376 0.95395 0.0
C807 C 0.53155 0.47946 0.94479 0.0
C808 C 0.48426 0.46223 0.95629 0.0
C809 C 0.50265 0.43753 0.9338 0.0
C810 C 0.59449 0.5183 0.96262 0.0
C811 C 0.60825 0.51677 0.97798 0.0
C812 C 0.60555 0.50168 0.99172 0.0
C813 C 0.58941 0.48845 0.9903 0.0
C814 C 0.57571 0.49026 0.97498 0.0
C815 C 0.57841 0.50493 0.9614 0.0
C816 C 0.56243 0.50442 0.94601 0.0
C817 C 0.54953 0.48726 0.95285 0.0
C818 C 0.55741 0.47906 0.96981 0.0
C819 C 0.55167 0.52397 0.9475 0.0
C820 C 0.57187 0.50027 0.92559 0.0
H821 H 0.49512 0.42683 0.97142 0.0
H822 H 0.5457 0.42112 0.02363 0.0
H823 H 0.56992 0.42762 0.98409 0.0
H824 H 0.58396 0.44964 0.98583 0.0
H825 H 0.57876 0.43599 0.00786 0.0
H826 H 0.5378 0.46682 0.02134 0.0
H827 H 0.56141 0.4582 0.02815 0.0
H828 H 0.55903 0.4799 0.01372 0.0
H829 H 0.47585 0.46494 0.91188 0.0
H830 H 0.512 0.51098 0.88615 0.0
H831 H 0.53598 0.50833 0.91222 0.0
H832 H 0.48225 0.47822 0.95829 0.0
H833 H 0.47065 0.45574 0.94941 0.0
H834 H 0.48563 0.45661 0.97137 0.0
H835 H 0.5112 0.43749 0.91979 0.0
H836 H 0.50997 0.42693 0.94317 0.0
H837 H 0.48751 0.4319 0.93031 0.0
H838 H 0.49109 0.40163 0.9957 0.0
C839 C 0.50633 0.42605 0.98248 0.0
C840 C 0.75116 0.17222 0.29528 0.0
C841 C 0.74948 0.15896 0.2792 0.0
C842 C 0.73366 0.16055 0.26591 0.0
C843 C 0.722 0.18852 0.28456 0.0
C844 C 0.73739 0.18677 0.29765 0.0
C845 C 0.73745 0.20211 0.31381 0.0
H846 H 0.69669 0.28116 0.35643 0.0
C847 C 0.71047 0.20538 0.29123 0.0
C848 C 0.71947 0.21333 0.30839 0.0
H849 H 0.74973 0.25283 0.37326 0.0
H850 H 0.7449 0.22896 0.34686 0.0
H851 H 0.67024 0.24107 0.34616 0.0
H852 H 0.70588 0.28042 0.31125 0.0
H853 H 0.68535 0.27348 0.29677 0.0
H854 H 0.68188 0.28654 0.31983 0.0
H855 H 0.663 0.2653 0.34043 0.0
H856 H 0.65744 0.2447 0.32406 0.0
C857 C 0.73475 0.19165 0.33377 0.0
C858 C 0.75672 0.21484 0.31215 0.0
C859 C 0.6516 0.2263 0.25136 0.0
C860 C 0.63851 0.24166 0.25385 0.0
C861 C 0.64026 0.25385 0.27084 0.0
C862 C 0.65499 0.25115 0.28484 0.0
C863 C 0.66825 0.2361 0.2819 0.0
C864 C 0.66631 0.22382 0.26551 0.0
C865 C 0.68174 0.20855 0.26497 0.0
C866 C 0.69343 0.21397 0.28353 0.0
C867 C 0.68544 0.23014 0.29334 0.0
C868 C 0.67124 0.18816 0.26641 0.0
C869 C 0.69418 0.21139 0.24604 0.0
C870 C 0.70708 0.26963 0.3545 0.0
C871 C 0.72357 0.26875 0.36688 0.0
C872 C 0.73699 0.2538 0.36378 0.0
C873 C 0.73414 0.23996 0.34845 0.0
C874 C 0.71781 0.24121 0.3359 0.0
C875 C 0.70461 0.25586 0.33901 0.0
C876 C 0.6887 0.25546 0.32355 0.0
C877 C 0.6945 0.2381 0.31075 0.0
C878 C 0.71146 0.22977 0.31816 0.0
C879 C 0.66871 0.25158 0.33396 0.0
C880 C 0.6903 0.27498 0.31226 0.0
H881 H 0.70833 0.17579 0.25783 0.0
H882 H 0.76292 0.17126 0.30596 0.0
H883 H 0.76209 0.2153 0.29664 0.0
H884 H 0.75473 0.23035 0.31633 0.0
H885 H 0.76862 0.20897 0.32129 0.0
H886 H 0.72396 0.17908 0.33228 0.0
H887 H 0.74886 0.18585 0.33894 0.0
H888 H 0.72875 0.20114 0.3455 0.0
H889 H 0.65073 0.21671 0.23846 0.0
H890 H 0.63014 0.26552 0.27336 0.0
H891 H 0.65555 0.261 0.29736 0.0
H892 H 0.6582 0.18878 0.27628 0.0
H893 H 0.66605 0.18273 0.25168 0.0
H894 H 0.6806 0.17714 0.27299 0.0
H895 H 0.69683 0.22723 0.24313 0.0
H896 H 0.70896 0.20537 0.24714 0.0
H897 H 0.68655 0.20467 0.23295 0.0
H898 H 0.73209 0.15063 0.25331 0.0
C899 C 0.71993 0.17524 0.26851 0.0
C900 C 0.4086 0.00317 0.98629 0.0
C901 C 0.40411 0.98558 0.97585 0.0
C902 C 0.4164 0.98017 0.96 0.0
C903 C 0.43727 0.00928 0.96568 0.0
C904 C 0.42522 0.01455 0.98116 0.0
C905 C 0.43247 0.03298 0.99164 0.0
H906 H 0.50065 0.10683 0.00153 0.0
C907 C 0.45362 0.0241 0.96466 0.0
C908 C 0.45096 0.03788 0.97999 0.0
H909 H 0.4484 0.09592 0.03659 0.0
H910 H 0.44004 0.06734 0.01664 0.0
H911 H 0.47971 0.0964 0.95914 0.0
H912 H 0.51375 0.06295 0.99904 0.0
H913 H 0.52049 0.05572 0.97505 0.0
H914 H 0.525 0.0808 0.98315 0.0
H915 H 0.50558 0.10091 0.9631 0.0
H916 H 0.49654 0.08314 0.94501 0.0
C917 C 0.41675 0.04863 0.98923 0.0
C918 C 0.43711 0.02795 0.01334 0.0
C919 C 0.50492 0.02004 0.91017 0.0
C920 C 0.52213 0.03126 0.90616 0.0
C921 C 0.52772 0.04692 0.919 0.0
C922 C 0.51614 0.05164 0.93538 0.0
C923 C 0.49882 0.0405 0.93909 0.0
C924 C 0.49363 0.02478 0.92679 0.0
C925 C 0.47531 0.01396 0.93373 0.0
C926 C 0.47 0.02623 0.95177 0.0
C927 C 0.48377 0.04183 0.95473 0.0
C928 C 0.45954 0.01474 0.91734 0.0
C929 C 0.48083 0.99296 0.93928 0.0
C930 C 0.48749 0.09818 0.00498 0.0
C931 C 0.47515 0.10369 0.02066 0.0
C932 C 0.45802 0.09216 0.02446 0.0
C933 C 0.45325 0.07547 0.01291 0.0
C934 C 0.46571 0.07014 0.99733 0.0
C935 C 0.48247 0.08145 0.99353 0.0
C936 C 0.49381 0.07362 0.97619 0.0
C937 C 0.48115 0.05567 0.97034 0.0
C938 C 0.46476 0.05374 0.9828 0.0
C939 C 0.49413 0.08927 0.95996 0.0
C940 C 0.51441 0.06807 0.98355 0.0
H941 H 0.44166 0.987 0.94269 0.0
H942 H 0.3994 0.00808 0.99832 0.0
H943 H 0.44261 0.01287 0.01435 0.0
H944 H 0.44895 0.03745 0.01991 0.0
H945 H 0.42378 0.02874 0.02275 0.0
H946 H 0.40951 0.04715 0.97451 0.0
H947 H 0.40509 0.04711 0.00063 0.0
H948 H 0.42303 0.06375 0.98978 0.0
H949 H 0.50049 0.00771 0.90069 0.0
H950 H 0.5409 0.05577 0.91612 0.0
H951 H 0.52109 0.06385 0.94448 0.0
H952 H 0.45914 0.02973 0.91127 0.0
H953 H 0.46281 0.00448 0.90495 0.0
H954 H 0.44452 0.01134 0.92269 0.0
H955 H 0.49638 0.99257 0.94431 0.0
H956 H 0.47213 0.98724 0.95183 0.0
H957 H 0.47908 0.98266 0.92646 0.0
H958 H 0.41355 0.96662 0.9518 0.0
C959 C 0.43287 0.99195 0.95483 0.0
C960 C 0.20634 0.89916 0.00898 0.0
O961 O 0.20252 0.88226 0.99996 0.0
O962 O 0.23972 0.86568 0.98886 0.0
Zn963 Zn 0.24578 0.88445 0.0115 0.0
O964 O 0.27055 0.90026 0.00498 0.0
C965 C 0.26507 0.85848 0.03718 0.0
O966 O 0.27826 0.85945 0.02303 0.0
O967 O 0.22362 0.90304 0.01541 0.0
C968 C 0.28333 0.90609 0.01767 0.0
O969 O 0.28063 0.90198 0.03635 0.0
C970 C 0.24431 0.86971 0.97118 0.0
O971 O 0.25285 0.88678 0.96747 0.0
O972 O 0.24961 0.86828 0.03578 0.0
C973 C 0.14948 0.4626 0.26965 0.0
O974 O 0.13405 0.46246 0.28131 0.0
O975 O 0.11703 0.50139 0.28024 0.0
Zn976 Zn 0.13387 0.49913 0.25576 0.0
O977 O 0.15045 0.52404 0.253 0.0
C978 C 0.10119 0.48438 0.23115 0.0
O979 O 0.0957 0.47523 0.24722 0.0
O980 O 0.15215 0.4766 0.25775 0.0
C981 C 0.14496 0.53791 0.24229 0.0
O982 O 0.12801 0.53607 0.23303 0.0
C983 C 0.10176 0.51159 0.28024 0.0
O984 O 0.09701 0.52058 0.26404 0.0
O985 O 0.11686 0.49508 0.23146 0.0
C986 C 0.80396 0.61595 0.00123 0.0
O987 O 0.80794 0.63327 0.99384 0.0
O988 O 0.76843 0.64356 0.97438 0.0
Zn989 Zn 0.76323 0.62772 0.99894 0.0
O990 O 0.73931 0.60972 0.99454 0.0
C991 C 0.75089 0.66211 0.02108 0.0
O992 O 0.7445 0.66732 0.00374 0.0
O993 O 0.78615 0.61072 0.00447 0.0
C994 C 0.72228 0.61304 0.00127 0.0
O995 O 0.71963 0.62903 0.01186 0.0
C996 C 0.75418 0.64878 0.96379 0.0
O997 O 0.73614 0.64339 0.9687 0.0
O998 O 0.75931 0.64589 0.02258 0.0
C999 C 0.84953 0.05349 0.26911 0.0
O1000 O 0.86247 0.05192 0.28333 0.0
O1001 O 0.88534 0.01784 0.27668 0.0
Zn1002 Zn 0.8677 0.0187 0.25268 0.0
O1003 O 0.85093 0.99374 0.2502 0.0
C1004 C 0.90018 0.0119 0.22687 0.0
O1005 O 0.90381 0.99895 0.24035 0.0
O1006 O 0.84935 0.04121 0.25476 0.0
C1007 C 0.85025 0.98271 0.23487 0.0
O1008 O 0.86113 0.98732 0.21952 0.0
C1009 C 0.88328 0.00495 0.28986 0.0
O1010 O 0.86876 0.99182 0.28834 0.0
O1011 O 0.88509 0.02222 0.22879 0.0
C1012 C 0.2994 0.11701 0.50335 0.0
O1013 O 0.30273 0.13422 0.4955 0.0
O1014 O 0.26343 0.1457 0.47969 0.0
Zn1015 Zn 0.25859 0.12842 0.50312 0.0
O1016 O 0.23459 0.11055 0.49901 0.0
C1017 C 0.24443 0.16113 0.525 0.0
O1018 O 0.23699 0.16482 0.50762 0.0
O1019 O 0.28188 0.11167 0.50775 0.0
C1020 C 0.21945 0.11514 0.48937 0.0
O1021 O 0.21898 0.13248 0.48142 0.0
C1022 C 0.26157 0.14016 0.46176 0.0
O1023 O 0.25651 0.12182 0.4576 0.0
O1024 O 0.25439 0.1459 0.52694 0.0
C1025 C 0.34014 0.53946 0.77005 0.0
O1026 O 0.33558 0.52287 0.7787 0.0
O1027 O 0.38928 0.51447 0.78047 0.0
Zn1028 Zn 0.37238 0.51712 0.75616 0.0
O1029 O 0.35418 0.4932 0.75292 0.0
C1030 C 0.40438 0.51016 0.72878 0.0
O1031 O 0.40817 0.49628 0.7412 0.0
O1032 O 0.35565 0.54068 0.7596 0.0
C1033 C 0.35257 0.48292 0.73713 0.0
O1034 O 0.36341 0.48761 0.72177 0.0
C1035 C 0.39485 0.49784 0.78588 0.0
O1036 O 0.38917 0.48208 0.77572 0.0
O1037 O 0.38977 0.52086 0.73208 0.0
C1038 C 0.71968 0.41725 0.50698 0.0
O1039 O 0.73088 0.41882 0.49124 0.0
O1040 O 0.74071 0.37081 0.49022 0.0
Zn1041 Zn 0.74672 0.38748 0.51479 0.0
O1042 O 0.77097 0.405 0.51059 0.0
C1043 C 0.75683 0.35298 0.53646 0.0
O1044 O 0.76066 0.34612 0.51869 0.0
O1045 O 0.72361 0.40456 0.51973 0.0
C1046 C 0.78832 0.39923 0.51325 0.0
O1047 O 0.79087 0.38134 0.51922 0.0
C1048 C 0.75409 0.36474 0.47877 0.0
O1049 O 0.77255 0.36954 0.48268 0.0
O1050 O 0.75062 0.37024 0.53843 0.0
C1051 C 0.66166 0.97382 0.77037 0.0
O1052 O 0.66462 0.98958 0.78154 0.0
O1053 O 0.61361 0.99893 0.78002 0.0
Zn1054 Zn 0.62997 0.9961 0.75524 0.0
O1055 O 0.64735 0.02045 0.75152 0.0
C1056 C 0.59584 0.99785 0.72888 0.0
O1057 O 0.58904 0.00971 0.74252 0.0
O1058 O 0.6475 0.97322 0.7581 0.0
C1059 C 0.64425 0.03293 0.73831 0.0
O1060 O 0.62898 0.03026 0.72658 0.0
C1061 C 0.60625 0.01513 0.78501 0.0
O1062 O 0.60946 0.03046 0.77391 0.0
O1063 O 0.61259 0.99055 0.73127 0.0
C1064 C 0.99912 0.22595 0.91016 0.0
O1065 O 0.98339 0.23627 0.91294 0.0
O1066 O 0.9806 0.24539 0.86232 0.0
Zn1067 Zn 0.00444 0.253 0.87881 0.0
O1068 O 0.99839 0.27659 0.89595 0.0
C1069 C 0.03113 0.24816 0.84623 0.0
O1070 O 0.01968 0.23257 0.84279 0.0
O1071 O 0.01076 0.23042 0.89615 0.0
C1072 C 0.0058 0.29357 0.89272 0.0
O1073 O 0.01784 0.296 0.87775 0.0
C1074 C 0.97524 0.25615 0.84836 0.0
O1075 O 0.98546 0.27238 0.8448 0.0
O1076 O 0.02755 0.25917 0.86102 0.0
C1077 C 0.49959 0.72707 0.40856 0.0
O1078 O 0.48388 0.73755 0.41067 0.0
O1079 O 0.48239 0.74736 0.36153 0.0
Zn1080 Zn 0.5065 0.75449 0.37801 0.0
O1081 O 0.50217 0.77838 0.39543 0.0
C1082 C 0.5338 0.74779 0.34641 0.0
O1083 O 0.52302 0.73155 0.34438 0.0
O1084 O 0.512 0.73162 0.39524 0.0
C1085 C 0.4888 0.79046 0.39221 0.0
O1086 O 0.47705 0.78746 0.37699 0.0
C1087 C 0.47942 0.75506 0.34491 0.0
O1088 O 0.49214 0.76834 0.3384 0.0
O1089 O 0.52966 0.75994 0.36009 0.0
C1090 C 0.99746 0.79056 0.59251 0.0
O1091 O 0.98143 0.77937 0.59063 0.0
O1092 O 0.98049 0.76778 0.63887 0.0
Zn1093 Zn 0.00467 0.76292 0.62236 0.0
O1094 O 0.99959 0.73923 0.60445 0.0
C1095 C 0.02602 0.74978 0.65631 0.0
O1096 O 0.00862 0.74232 0.66093 0.0
O1097 O 0.01009 0.78642 0.60545 0.0
C1098 C 0.00904 0.72357 0.60546 0.0
O1099 O 0.02307 0.72241 0.61865 0.0
C1100 C 0.96896 0.75377 0.64408 0.0
O1101 O 0.97263 0.73582 0.6383 0.0
O1102 O 0.02802 0.75917 0.64036 0.0
C1103 C 0.50376 0.30128 0.1108 0.0
O1104 O 0.49533 0.30441 0.12797 0.0
O1105 O 0.47974 0.26586 0.14056 0.0
Zn1106 Zn 0.50373 0.26118 0.12392 0.0
O1107 O 0.49858 0.23719 0.10667 0.0
C1108 C 0.52988 0.26781 0.15709 0.0
O1109 O 0.51759 0.2817 0.16123 0.0
O1110 O 0.50888 0.28409 0.10617 0.0
C1111 C 0.50592 0.22075 0.11007 0.0
O1112 O 0.51728 0.21902 0.12557 0.0
C1113 C 0.47507 0.25409 0.15421 0.0
O1114 O 0.48602 0.23895 0.15709 0.0
O1115 O 0.52711 0.2573 0.14159 0.0
H1116 H 0.23437 0.76216 0.9011 0.0
H1117 H 0.22074 0.80719 0.85989 0.0
H1118 H 0.2391 0.78697 0.92715 0.0
H1119 H 0.2246 0.83188 0.88614 0.0
H1120 H 0.25485 0.87247 0.93237 0.0
H1121 H 0.25005 0.84782 0.90619 0.0
H1122 H 0.22051 0.80926 0.94736 0.0
H1123 H 0.22572 0.83372 0.97365 0.0
C1124 C 0.2324 0.77735 0.89759 0.0
C1125 C 0.22721 0.78268 0.8784 0.0
C1126 C 0.23487 0.79155 0.91259 0.0
C1127 C 0.23218 0.81142 0.90875 0.0
C1128 C 0.22697 0.81674 0.88956 0.0
C1129 C 0.22453 0.80255 0.87456 0.0
C1130 C 0.24729 0.85875 0.93583 0.0
C1131 C 0.24072 0.85505 0.95511 0.0
C1132 C 0.24444 0.84465 0.92079 0.0
C1133 C 0.23492 0.82654 0.92468 0.0
C1134 C 0.22817 0.82293 0.94393 0.0
C1135 C 0.23105 0.83701 0.95897 0.0
H1136 H 0.06055 0.53453 0.39936 0.0
H1137 H 0.00726 0.52055 0.36661 0.0
H1138 H 0.07997 0.52853 0.36969 0.0
H1139 H 0.02671 0.51412 0.33703 0.0
H1140 H 0.06682 0.52974 0.28416 0.0
H1141 H 0.04714 0.53368 0.31394 0.0
H1142 H 0.0893 0.50164 0.34689 0.0
H1143 H 0.10913 0.49781 0.31711 0.0
C1144 C 0.053 0.53012 0.38583 0.0
C1145 C 0.03237 0.5281 0.38531 0.0
C1146 C 0.06413 0.5265 0.36889 0.0
C1147 C 0.05487 0.52089 0.351 0.0
C1148 C 0.03425 0.51861 0.35055 0.0
C1149 C 0.02313 0.5221 0.36753 0.0
C1150 C 0.07189 0.52349 0.29773 0.0
C1151 C 0.08959 0.51351 0.29826 0.0
C1152 C 0.06053 0.52564 0.31478 0.0
C1153 C 0.06666 0.51797 0.33277 0.0
C1154 C 0.08429 0.50789 0.33329 0.0
C1155 C 0.0956 0.50562 0.3162 0.0
H1156 H 0.78407 0.70617 0.85344 0.0
H1157 H 0.76133 0.75138 0.8918 0.0
H1158 H 0.7798 0.68263 0.87986 0.0
H1159 H 0.75614 0.72747 0.91765 0.0
H1160 H 0.72765 0.67196 0.94658 0.0
H1161 H 0.7334 0.69515 0.92007 0.0
H1162 H 0.79404 0.67898 0.91665 0.0
H1163 H 0.78846 0.65594 0.94356 0.0
C1164 C 0.7783 0.71119 0.86747 0.0
C1165 C 0.773 0.73077 0.87037 0.0
C1166 C 0.77578 0.69763 0.88254 0.0
C1167 C 0.76757 0.70327 0.90068 0.0
C1168 C 0.76229 0.72274 0.90367 0.0
C1169 C 0.76515 0.73638 0.88877 0.0
C1170 C 0.7422 0.67327 0.94015 0.0
C1171 C 0.75762 0.66215 0.94715 0.0
C1172 C 0.74549 0.68661 0.92506 0.0
C1173 C 0.76415 0.68883 0.91641 0.0
C1174 C 0.7795 0.67744 0.92308 0.0
C1175 C 0.77631 0.66435 0.93847 0.0
H1176 H 0.99075 0.00363 0.35859 0.0
H1177 H 0.94527 0.98953 0.40102 0.0
H1178 H 0.96581 0.00703 0.33317 0.0
H1179 H 0.92031 0.99298 0.37561 0.0
H1180 H 0.88402 0.97851 0.3196 0.0
H1181 H 0.90846 0.97639 0.34569 0.0
H1182 H 0.93931 0.02775 0.32355 0.0
H1183 H 0.9151 0.02965 0.2972 0.0
C1184 C 0.97541 0.00148 0.36255 0.0
C1185 C 0.97001 0.99628 0.38183 0.0
C1186 C 0.9611 0.00344 0.34798 0.0
C1187 C 0.94105 1.00026 0.35234 0.0
C1188 C 0.93564 0.99523 0.37167 0.0
C1189 C 0.94995 0.99325 0.38624 0.0
C1190 C 0.89597 0.9894 0.32032 0.0
C1191 C 0.89763 0.00422 0.30626 0.0
C1192 C 0.90993 0.98824 0.33536 0.0
C1193 C 0.92587 0.00188 0.3367 0.0
C1194 C 0.92738 0.01685 0.32278 0.0
C1195 C 0.91342 0.01801 0.30774 0.0
H1196 H 0.23545 0.26472 0.60009 0.0
H1197 H 0.22415 0.21685 0.63969 0.0
H1198 H 0.2399 0.24141 0.5729 0.0
H1199 H 0.22794 0.19354 0.61233 0.0
H1200 H 0.25773 0.1581 0.56295 0.0
H1201 H 0.25357 0.18117 0.59046 0.0
H1202 H 0.22029 0.21803 0.55276 0.0
H1203 H 0.22469 0.19519 0.52522 0.0
C1204 C 0.23395 0.24922 0.603 0.0
C1205 C 0.22946 0.24264 0.62205 0.0
C1206 C 0.23629 0.23587 0.58737 0.0
C1207 C 0.23422 0.21562 0.59044 0.0
C1208 C 0.22979 0.20903 0.60952 0.0
C1209 C 0.2274 0.22239 0.62514 0.0
C1210 C 0.24951 0.17111 0.56054 0.0
C1211 C 0.24158 0.17482 0.54188 0.0
C1212 C 0.24704 0.18428 0.57633 0.0
C1213 C 0.23664 0.20145 0.57378 0.0
C1214 C 0.22862 0.20508 0.55514 0.0
C1215 C 0.23104 0.19191 0.53938 0.0
H1216 H 0.47694 0.5568 0.63345 0.0
H1217 H 0.47687 0.49406 0.6245 0.0
H1218 H 0.45514 0.5526 0.66178 0.0
H1219 H 0.45516 0.48988 0.65282 0.0
H1220 H 0.4361 0.48934 0.71751 0.0
H1221 H 0.4568 0.49396 0.68858 0.0
H1222 H 0.42157 0.54189 0.67078 0.0
H1223 H 0.40095 0.53748 0.69999 0.0
C1224 C 0.4721 0.54212 0.63739 0.0
C1225 C 0.47874 0.52576 0.62676 0.0
C1226 C 0.45961 0.53972 0.65363 0.0
C1227 C 0.45349 0.5209 0.65963 0.0
C1228 C 0.45989 0.50456 0.64881 0.0
C1229 C 0.47235 0.50696 0.63258 0.0
C1230 C 0.43273 0.50087 0.70745 0.0
C1231 C 0.41685 0.51304 0.71108 0.0
C1232 C 0.44454 0.50344 0.69078 0.0
C1233 C 0.4408 0.51824 0.67732 0.0
C1234 C 0.42496 0.53047 0.68096 0.0
C1235 C 0.41309 0.52787 0.69765 0.0
H1236 H 0.76949 0.25741 0.61777 0.0
H1237 H 0.78702 0.30908 0.65206 0.0
H1238 H 0.76202 0.27776 0.58989 0.0
H1239 H 0.7805 0.32938 0.62378 0.0
H1240 H 0.74854 0.36147 0.57524 0.0
H1241 H 0.7542 0.34126 0.60386 0.0
H1242 H 0.77898 0.29712 0.56576 0.0
H1243 H 0.77285 0.31701 0.53721 0.0
C1244 C 0.77169 0.27312 0.61941 0.0
C1245 C 0.77886 0.28159 0.63719 0.0
C1246 C 0.76764 0.28479 0.60331 0.0
C1247 C 0.77075 0.30522 0.60453 0.0
C1248 C 0.77776 0.31372 0.62237 0.0
C1249 C 0.78175 0.30205 0.63851 0.0
C1250 C 0.75515 0.34743 0.57299 0.0
C1251 C 0.76019 0.34084 0.55393 0.0
C1252 C 0.7585 0.33589 0.58941 0.0
C1253 C 0.76702 0.31753 0.58713 0.0
C1254 C 0.77208 0.31101 0.56805 0.0
C1255 C 0.76867 0.32249 0.55166 0.0
H1256 H 0.50383 0.97934 0.64037 0.0
H1257 H 0.55779 0.97119 0.60822 0.0
H1258 H 0.52252 0.98502 0.67076 0.0
H1259 H 0.57661 0.97733 0.6385 0.0
H1260 H 0.60324 0.97086 0.69968 0.0
H1261 H 0.58429 0.96387 0.66967 0.0
H1262 H 0.54396 0.0087 0.68647 0.0
H1263 H 0.56251 0.01518 0.71674 0.0
C1264 C 0.51972 0.97893 0.63979 0.0
C1265 C 0.52935 0.97485 0.62192 0.0
C1266 C 0.53046 0.98224 0.65719 0.0
C1267 C 0.55112 0.98172 0.65712 0.0
C1268 C 0.56072 0.97755 0.6392 0.0
C1269 C 0.54995 0.97408 0.62182 0.0
C1270 C 0.5903 0.97918 0.69698 0.0
C1271 C 0.58437 0.99355 0.71063 0.0
C1272 C 0.57949 0.97526 0.6797 0.0
C1273 C 0.56257 0.98571 0.6756 0.0
C1274 C 0.5567 1.00011 0.68927 0.0
C1275 C 0.56742 0.00392 0.7066 0.0
H1276 H 0.89157 0.23266 0.75293 0.0
H1277 H 0.8596 0.21647 0.80559 0.0
H1278 H 0.92051 0.24132 0.77289 0.0
H1279 H 0.88859 0.22508 0.82556 0.0
H1280 H 0.95056 0.22394 0.8522 0.0
H1281 H 0.9219 0.21453 0.8321 0.0
H1282 H 0.93151 0.26618 0.79717 0.0
H1283 H 0.96035 0.27544 0.81703 0.0
C1284 C 0.89067 0.23107 0.76878 0.0
C1285 C 0.87323 0.22393 0.77766 0.0
C1286 C 0.90726 0.23603 0.78023 0.0
C1287 C 0.90685 0.23395 0.80083 0.0
C1288 C 0.88948 0.22661 0.8097 0.0
C1289 C 0.87287 0.22167 0.79825 0.0
C1290 C 0.94658 0.23329 0.84022 0.0
C1291 C 0.95777 0.25044 0.83622 0.0
C1292 C 0.93008 0.22794 0.82877 0.0
C1293 C 0.92441 0.23959 0.81302 0.0
C1294 C 0.93562 0.25674 0.80902 0.0
C1295 C 0.95209 0.26211 0.8205 0.0
H1296 H 0.47146 0.90736 0.44037 0.0
H1297 H 0.47889 0.87202 0.49184 0.0
H1298 H 0.47603 0.87871 0.41912 0.0
H1299 H 0.48351 0.84336 0.47056 0.0
H1300 H 0.51011 0.80086 0.42534 0.0
H1301 H 0.50654 0.8297 0.44666 0.0
H1302 H 0.45866 0.84798 0.41028 0.0
H1303 H 0.46241 0.81939 0.3888 0.0
C1304 C 0.47395 0.89345 0.44716 0.0
C1305 C 0.47474 0.89198 0.46782 0.0
C1306 C 0.47657 0.87703 0.43498 0.0
C1307 C 0.48006 0.85872 0.44314 0.0
C1308 C 0.4811 0.85729 0.46379 0.0
C1309 C 0.47846 0.87373 0.47599 0.0
C1310 C 0.49883 0.81104 0.42188 0.0
C1311 C 0.48657 0.80782 0.40534 0.0
C1312 C 0.49672 0.82752 0.43416 0.0
C1313 C 0.48234 0.84117 0.43015 0.0
C1314 C 0.47007 0.83791 0.41363 0.0
C1315 C 0.47215 0.82143 0.40138 0.0
H1316 H 0.13244 0.24294 0.76861 0.0
H1317 H 0.1196 0.30435 0.7709 0.0
H1318 H 0.10556 0.23601 0.79143 0.0
H1319 H 0.09258 0.2974 0.79376 0.0
H1320 H 0.05766 0.27919 0.84907 0.0
H1321 H 0.08538 0.28668 0.82729 0.0
H1322 H 0.06992 0.23551 0.79139 0.0
H1323 H 0.04249 0.22781 0.81332 0.0
C1324 C 0.12379 0.25495 0.7739 0.0
C1325 C 0.12807 0.27417 0.76781 0.0
C1326 C 0.10837 0.25098 0.78698 0.0
C1327 C 0.0968 0.26612 0.79431 0.0
C1328 C 0.10132 0.28542 0.78855 0.0
C1329 C 0.1168 0.28941 0.77545 0.0
C1330 C 0.0602 0.26952 0.83654 0.0
C1331 C 0.04789 0.25286 0.83298 0.0
C1332 C 0.07603 0.27388 0.824 0.0
C1333 C 0.07992 0.26166 0.80763 0.0
C1334 C 0.06754 0.24506 0.80404 0.0
C1335 C 0.05173 0.24071 0.81656 0.0
H1336 H 0.48359 0.62395 0.48066 0.0
H1337 H 0.54617 0.63686 0.4829 0.0
H1338 H 0.4795 0.65144 0.45886 0.0
H1339 H 0.54209 0.66449 0.4612 0.0
H1340 H 0.5293 0.70107 0.40688 0.0
H1341 H 0.53372 0.6728 0.42767 0.0
H1342 H 0.48125 0.68672 0.46021 0.0
H1343 H 0.47659 0.71464 0.43919 0.0
C1344 C 0.49646 0.63275 0.47659 0.0
C1345 C 0.51519 0.62827 0.48358 0.0
C1346 C 0.49413 0.64853 0.46411 0.0
C1347 C 0.51045 0.66026 0.45835 0.0
C1348 C 0.52923 0.65562 0.46513 0.0
C1349 C 0.53157 0.63979 0.47759 0.0
C1350 C 0.51872 0.69809 0.41848 0.0
C1351 C 0.50257 0.7101 0.42135 0.0
C1352 C 0.5213 0.68194 0.43046 0.0
C1353 C 0.50781 0.67745 0.44559 0.0
C1354 C 0.49174 0.68955 0.44849 0.0
C1355 C 0.48914 0.70565 0.43651 0.0
H1356 H 0.89712 0.7606 0.74864 0.0
H1357 H 0.86137 0.78676 0.70414 0.0
H1358 H 0.92261 0.75519 0.72409 0.0
H1359 H 0.88747 0.78218 0.67993 0.0
H1360 H 0.95128 0.7884 0.65183 0.0
H1361 H 0.92489 0.79447 0.67556 0.0
H1362 H 0.92362 0.7336 0.69133 0.0
H1363 H 0.94967 0.72739 0.66744 0.0
C1364 C 0.8946 0.76516 0.73366 0.0
C1365 C 0.877 0.77397 0.72842 0.0
C1366 C 0.90929 0.76214 0.71965 0.0
C1367 C 0.90692 0.76821 0.70016 0.0
C1368 C 0.88966 0.77749 0.69493 0.0
C1369 C 0.87478 0.7802 0.70887 0.0
C1370 C 0.94528 0.77631 0.66029 0.0
C1371 C 0.95253 0.75742 0.65779 0.0
C1372 C 0.93017 0.77978 0.67379 0.0
C1373 C 0.92234 0.7645 0.68528 0.0
C1374 C 0.92953 0.74563 0.68272 0.0
C1375 C 0.94435 0.74208 0.66898 0.0
H1376 H 0.04478 0.88193 0.516 0.0
H1377 H 0.98323 0.89413 0.52243 0.0
H1378 H 0.04044 0.85411 0.53783 0.0
H1379 H 0.97891 0.86643 0.54426 0.0
H1380 H 0.97352 0.80287 0.56325 0.0
H1381 H 0.9786 0.83103 0.54221 0.0
H1382 H 0.03349 0.84561 0.57201 0.0
H1383 H 0.0286 0.81713 0.59286 0.0
C1384 C 0.03038 0.8788 0.52224 0.0
C1385 C 0.01432 0.89016 0.51737 0.0
C1386 C 0.02789 0.86287 0.53476 0.0
C1387 C 0.0093 0.85796 0.5427 0.0
C1388 C 0.99334 0.86956 0.53809 0.0
C1389 C 0.99582 0.88545 0.52558 0.0
C1390 C 0.98669 0.81206 0.56534 0.0
C1391 C 0.00064 0.80774 0.57976 0.0
C1392 C 0.98954 0.82829 0.55334 0.0
C1393 C 0.00641 0.84064 0.55547 0.0
C1394 C 0.02043 0.83629 0.56984 0.0
C1395 C 0.01757 0.82002 0.58186 0.0
H1396 H 0.1018 0.7445 0.75856 0.0
H1397 H 0.14025 0.73024 0.71003 0.0
H1398 H 0.07473 0.74792 0.7355 0.0
H1399 H 0.11293 0.73308 0.68694 0.0
H1400 H 0.06438 0.76226 0.651 0.0
H1401 H 0.09204 0.75846 0.67344 0.0
H1402 H 0.05367 0.72734 0.71383 0.0
H1403 H 0.02605 0.73136 0.69165 0.0
C1404 C 0.10447 0.74212 0.74295 0.0
C1405 C 0.12319 0.73716 0.73612 0.0
C1406 C 0.08891 0.74387 0.72975 0.0
C1407 C 0.09167 0.74073 0.70939 0.0
C1408 C 0.11038 0.73575 0.70253 0.0
C1409 C 0.12596 0.73393 0.71576 0.0
C1410 C 0.06187 0.75459 0.66466 0.0
C1411 C 0.04299 0.74719 0.66957 0.0
C1412 C 0.07774 0.75232 0.67746 0.0
C1413 C 0.07503 0.74266 0.69544 0.0
C1414 C 0.05619 0.7351 0.70022 0.0
C1415 C 0.04037 0.73732 0.68744 0.0
H1416 H 0.01065 0.61962 0.52916 0.0
H1417 H 0.94931 0.63359 0.53281 0.0
H1418 H 0.01929 0.64828 0.54971 0.0
H1419 H 0.95786 0.66175 0.55411 0.0
H1420 H 0.98206 0.72161 0.57545 0.0
H1421 H 0.97392 0.69381 0.55351 0.0
H1422 H 0.01638 0.65947 0.58355 0.0
H1423 H 0.02485 0.68738 0.60517 0.0
C1424 C 0.99901 0.62885 0.53428 0.0
C1425 C 0.97928 0.62429 0.52932 0.0
C1426 C 0.00394 0.64515 0.54628 0.0
C1427 C 0.98927 0.65729 0.55364 0.0
C1428 C 0.96956 0.65283 0.54854 0.0
C1429 C 0.96462 0.63654 0.53653 0.0
C1430 C 0.98969 0.70814 0.57735 0.0
C1431 C 0.00412 0.70673 0.59206 0.0
C1432 C 0.98494 0.69216 0.56484 0.0
C1433 C 0.99448 0.67439 0.56677 0.0
C1434 C 0.00894 0.67302 0.58146 0.0
C1435 C 0.01372 0.689 0.59394 0.0
H1436 H 0.74799 0.90328 0.2363 0.0
H1437 H 0.79559 0.86634 0.2192 0.0
H1438 H 0.7712 0.9312 0.23949 0.0
H1439 H 0.81866 0.89436 0.22203 0.0
H1440 H 0.84784 0.95412 0.20612 0.0
H1441 H 0.82521 0.92564 0.20445 0.0
H1442 H 0.7998 0.94301 0.26023 0.0
H1443 H 0.82236 0.97157 0.26191 0.0
C1444 C 0.76341 0.90105 0.23342 0.0
C1445 C 0.76989 0.88255 0.22743 0.0
C1446 C 0.77669 0.91706 0.23521 0.0
C1447 C 0.79673 0.91498 0.23094 0.0
C1448 C 0.80326 0.89648 0.22513 0.0
C1449 C 0.79001 0.88044 0.22347 0.0
C1450 C 0.83747 0.95186 0.21806 0.0
C1451 C 0.83688 0.96514 0.23412 0.0
C1452 C 0.82458 0.93548 0.21714 0.0
C1453 C 0.81073 0.93211 0.2322 0.0
C1454 C 0.81019 0.94534 0.24831 0.0
C1455 C 0.82319 0.96163 0.24931 0.0
H1456 H 0.74313 0.12049 0.26794 0.0
H1457 H 0.78932 0.16279 0.28412 0.0
H1458 H 0.76738 0.09512 0.2649 0.0
H1459 H 0.81347 0.13745 0.28121 0.0
H1460 H 0.84645 0.0826 0.29705 0.0
H1461 H 0.82225 0.108 0.29876 0.0
H1462 H 0.79566 0.08535 0.2447 0.0
H1463 H 0.8197 0.05974 0.2431 0.0
C1464 C 0.75847 0.12443 0.27063 0.0
C1465 C 0.76425 0.14364 0.27641 0.0
C1466 C 0.77236 0.10989 0.26891 0.0
C1467 C 0.79234 0.11425 0.27295 0.0
C1468 C 0.79815 0.13353 0.27836 0.0
C1469 C 0.7843 0.14805 0.28004 0.0
C1470 C 0.83547 0.08303 0.28551 0.0
C1471 C 0.83503 0.06913 0.26994 0.0
C1472 C 0.82166 0.09767 0.28643 0.0
C1473 C 0.80705 0.09872 0.27184 0.0
C1474 C 0.8066 0.08482 0.25628 0.0
C1475 C 0.82045 0.07021 0.25531 0.0
H1476 H 0.39016 0.97899 0.01321 0.0
H1477 H 0.37896 0.96326 0.95201 0.0
H1478 H 0.36109 0.96013 0.02286 0.0
H1479 H 0.35075 0.94291 0.96188 0.0
H1480 H 0.28914 0.92581 0.98339 0.0
H1481 H 0.31842 0.94449 0.97323 0.0
H1482 H 0.34774 0.92881 0.02703 0.0
H1483 H 0.31804 0.91107 0.03757 0.0
C1484 C 0.38154 0.97148 0.00176 0.0
C1485 C 0.38688 0.97292 0.98176 0.0
C1486 C 0.36498 0.9603 0.00737 0.0
C1487 C 0.35345 0.94989 0.9932 0.0
C1488 C 0.35903 0.95096 0.97322 0.0
C1489 C 0.37545 0.96241 0.96756 0.0
C1490 C 0.30186 0.92641 0.99304 0.0
C1491 C 0.30126 0.9171 0.01134 0.0
C1492 C 0.31874 0.93699 0.98714 0.0
C1493 C 0.33556 0.93825 0.99927 0.0
C1494 C 0.33499 0.92859 0.01745 0.0
C1495 C 0.31799 0.9183 0.02349 0.0
H1496 H 0.25493 0.39406 0.26999 0.0
H1497 H 0.20756 0.35175 0.28027 0.0
H1498 H 0.23125 0.41992 0.26822 0.0
H1499 H 0.18386 0.37754 0.27836 0.0
H1500 H 0.14945 0.43176 0.29479 0.0
H1501 H 0.17318 0.40598 0.29645 0.0
H1502 H 0.20528 0.43148 0.24769 0.0
H1503 H 0.18183 0.45752 0.24635 0.0
C1504 C 0.23944 0.39025 0.27167 0.0
C1505 C 0.23314 0.37085 0.2753 0.0
C1506 C 0.22585 0.40507 0.27065 0.0
C1507 C 0.20563 0.40083 0.27317 0.0
C1508 C 0.19934 0.3814 0.27669 0.0
C1509 C 0.21293 0.36659 0.27776 0.0
C1510 C 0.16156 0.43187 0.28442 0.0
C1511 C 0.16374 0.44673 0.27046 0.0
C1512 C 0.17512 0.41701 0.28529 0.0
C1513 C 0.19116 0.41663 0.2722 0.0
C1514 C 0.19328 0.43147 0.25819 0.0
C1515 C 0.17975 0.44635 0.25734 0.0
H1516 H 0.14345 0.01027 0.47835 0.0
H1517 H 0.10372 0.05793 0.47497 0.0
H1518 H 0.17121 0.03368 0.48152 0.0
H1519 H 0.13138 0.0814 0.47856 0.0
H1520 H 0.18709 0.11802 0.46579 0.0
H1521 H 0.15958 0.09448 0.46172 0.0
H1522 H 0.1859 0.05695 0.50418 0.0
H1523 H 0.21368 0.08017 0.50773 0.0
C1524 C 0.14065 0.02577 0.47847 0.0
C1525 C 0.12142 0.03227 0.47642 0.0
C1526 C 0.15655 0.03921 0.48033 0.0
C1527 C 0.15357 0.05947 0.48034 0.0
C1528 C 0.13429 0.06593 0.47828 0.0
C1529 C 0.11841 0.05249 0.47628 0.0
C1530 C 0.187 0.10474 0.47425 0.0
C1531 C 0.2026 0.10097 0.48706 0.0
C1532 C 0.17116 0.09127 0.472 0.0
C1533 C 0.17048 0.07378 0.48262 0.0
C1534 C 0.18607 0.07009 0.4955 0.0
C1535 C 0.20196 0.08348 0.49764 0.0
H1536 H 0.71982 0.1248 0.68989 0.0
H1537 H 0.7244 0.13494 0.75289 0.0
H1538 H 0.6979 0.0965 0.69535 0.0
H1539 H 0.70241 0.10653 0.75837 0.0
H1540 H 0.67745 0.04283 0.75973 0.0
H1541 H 0.70028 0.07071 0.75497 0.0
H1542 H 0.66451 0.08988 0.70685 0.0
H1543 H 0.64191 0.06193 0.71136 0.0
C1544 C 0.71605 0.12105 0.70492 0.0
C1545 C 0.72374 0.13223 0.72095 0.0
C1546 C 0.70348 0.10482 0.70805 0.0
C1547 C 0.69826 0.09934 0.72729 0.0
C1548 C 0.70627 0.11026 0.74337 0.0
C1549 C 0.71888 0.12653 0.74023 0.0
C1550 C 0.67445 0.05301 0.74815 0.0
C1551 C 0.65788 0.0501 0.73588 0.0
C1552 C 0.68749 0.06904 0.74549 0.0
C1553 C 0.68428 0.08247 0.73047 0.0
C1554 C 0.6676 0.07964 0.71835 0.0
C1555 C 0.65457 0.06366 0.72102 0.0
H1556 H 0.3739 0.0172 0.51636 0.0
H1557 H 0.41077 0.06701 0.53479 0.0
H1558 H 0.3474 0.03896 0.50894 0.0
H1559 H 0.38398 0.08869 0.52812 0.0
H1560 H 0.33846 0.12339 0.49503 0.0
H1561 H 0.3654 0.10165 0.50099 0.0
H1562 H 0.32448 0.0594 0.52635 0.0
H1563 H 0.29752 0.0809 0.52004 0.0
C1564 C 0.37639 0.0328 0.51876 0.0
C1565 C 0.39447 0.04035 0.52618 0.0
C1566 C 0.36111 0.04526 0.51473 0.0
C1567 C 0.36353 0.06557 0.51801 0.0
C1568 C 0.38167 0.07314 0.52526 0.0
C1569 C 0.39695 0.06068 0.5293 0.0
C1570 C 0.3352 0.10945 0.50186 0.0
C1571 C 0.31582 0.10389 0.50704 0.0
C1572 C 0.35067 0.09703 0.50537 0.0
C1573 C 0.3471 0.07877 0.51413 0.0
C1574 C 0.32771 0.07323 0.51931 0.0
C1575 C 0.31226 0.08563 0.5158 0.0
H1576 H 0.61726 0.48753 0.4895 0.0
H1577 H 0.62815 0.492 0.55227 0.0
H1578 H 0.645 0.46619 0.48569 0.0
H1579 H 0.65601 0.47077 0.54846 0.0
H1580 H 0.69241 0.41665 0.53675 0.0
H1581 H 0.66413 0.43732 0.54071 0.0
H1582 H 0.68042 0.46753 0.48739 0.0
H1583 H 0.70837 0.44661 0.48318 0.0
C1584 C 0.62569 0.48408 0.50246 0.0
C1585 C 0.62053 0.4915 0.52118 0.0
C1586 C 0.6416 0.47185 0.50028 0.0
C1587 C 0.65279 0.4668 0.51676 0.0
C1588 C 0.64755 0.47413 0.5355 0.0
C1589 C 0.63159 0.48631 0.53768 0.0
C1590 C 0.68995 0.4277 0.52587 0.0
C1591 C 0.70264 0.42995 0.50963 0.0
C1592 C 0.67379 0.43962 0.5282 0.0
C1593 C 0.66997 0.45408 0.51435 0.0
C1594 C 0.68274 0.45635 0.49816 0.0
C1595 C 0.69885 0.44442 0.49582 0.0
H1596 H 0.69869 0.27996 0.39628 0.0
H1597 H 0.75678 0.29124 0.37271 0.0
H1598 H 0.70567 0.30346 0.42324 0.0
H1599 H 0.76355 0.31545 0.39887 0.0
H1600 H 0.77857 0.34046 0.45927 0.0
H1601 H 0.77061 0.31763 0.43235 0.0
H1602 H 0.71058 0.33648 0.43269 0.0
H1603 H 0.71845 0.35865 0.46048 0.0
C1604 C 0.71286 0.28771 0.39678 0.0
C1605 C 0.72728 0.28372 0.38261 0.0
C1606 C 0.71686 0.30126 0.41213 0.0
C1607 C 0.73527 0.31133 0.41341 0.0
C1608 C 0.74942 0.30766 0.39876 0.0
C1609 C 0.74553 0.29388 0.38367 0.0
C1610 C 0.76368 0.33977 0.45356 0.0
C1611 C 0.74914 0.35137 0.46196 0.0
C1612 C 0.75911 0.32674 0.43799 0.0
C1613 C 0.73995 0.32523 0.43013 0.0
C1614 C 0.72542 0.33699 0.43849 0.0
C1615 C 0.72994 0.34981 0.45434 0.0
H1616 H 0.50967 0.02751 0.86802 0.0
H1617 H 0.56158 0.02573 0.90447 0.0
H1618 H 0.52987 0.02277 0.83844 0.0
H1619 H 0.58173 0.02066 0.87493 0.0
H1620 H 0.60498 0.99104 0.81677 0.0
H1621 H 0.58428 0.99377 0.84623 0.0
H1622 H 0.55823 0.04493 0.82255 0.0
H1623 H 0.57913 0.0425 0.7933 0.0
C1624 C 0.52536 0.02585 0.86968 0.0
C1625 C 0.53412 0.02701 0.88846 0.0
C1626 C 0.53689 0.02326 0.8528 0.0
C1627 C 0.55732 0.02139 0.85447 0.0
C1628 C 0.56599 0.02197 0.87329 0.0
C1629 C 0.55452 0.02495 0.89013 0.0
C1630 C 0.59483 0.00285 0.81786 0.0
C1631 C 0.5937 0.01659 0.80276 0.0
C1632 C 0.58306 0.00443 0.83472 0.0
C1633 C 0.56966 0.01952 0.83657 0.0
C1634 C 0.56835 0.03309 0.82138 0.0
C1635 C 0.58039 0.03175 0.80473 0.0
H1636 H 0.28149 0.20214 0.35178 0.0
H1637 H 0.26323 0.24641 0.39362 0.0
H1638 H 0.27907 0.1777 0.37738 0.0
H1639 H 0.25971 0.22175 0.41892 0.0
H1640 H 0.27583 0.1779 0.46513 0.0
H1641 H 0.27921 0.20201 0.43931 0.0
H1642 H 0.25574 0.15947 0.39669 0.0
H1643 H 0.25296 0.13513 0.42247 0.0
C1644 C 0.27695 0.20668 0.36644 0.0
C1645 C 0.27265 0.2263 0.37064 0.0
C1646 C 0.2753 0.19259 0.38107 0.0
C1647 C 0.26921 0.19772 0.40025 0.0
C1648 C 0.26471 0.2173 0.40439 0.0
C1649 C 0.26646 0.23142 0.38979 0.0
C1650 C 0.27146 0.17366 0.45024 0.0
C1651 C 0.26412 0.15458 0.44586 0.0
C1652 C 0.27326 0.18754 0.43544 0.0
C1653 C 0.26763 0.18276 0.41591 0.0
C1654 C 0.26044 0.16361 0.41151 0.0
C1655 C 0.25877 0.14966 0.42631 0.0
H1656 H 0.45268 0.49382 0.90051 0.0
H1657 H 0.49883 0.48638 0.85759 0.0
H1658 H 0.42868 0.49638 0.8737 0.0
H1659 H 0.47479 0.48852 0.83083 0.0
H1660 H 0.4195 0.4683 0.79319 0.0
H1661 H 0.443 0.46624 0.82032 0.0
H1662 H 0.42442 0.52166 0.84386 0.0
H1663 H 0.40115 0.52402 0.81645 0.0
C1664 C 0.45763 0.49268 0.88534 0.0
C1665 C 0.47755 0.48994 0.88104 0.0
C1666 C 0.44396 0.49423 0.87007 0.0
C1667 C 0.44995 0.49261 0.85028 0.0
C1668 C 0.46984 0.48972 0.846 0.0
C1669 C 0.48356 0.4886 0.86125 0.0
C1670 C 0.42037 0.48002 0.80418 0.0
C1671 C 0.40851 0.49633 0.8027 0.0
C1672 C 0.43388 0.47887 0.81961 0.0
C1673 C 0.43547 0.4938 0.83409 0.0
C1674 C 0.42337 0.50994 0.83288 0.0
C1675 C 0.41014 0.51131 0.81719 0.0
H1676 H 0.70291 0.73738 0.11277 0.0
H1677 H 0.76479 0.73567 0.1266 0.0
H1678 H 0.70757 0.71481 0.08489 0.0
H1679 H 0.76951 0.71337 0.09851 0.0
H1680 H 0.76542 0.65801 0.05845 0.0
H1681 H 0.76026 0.6792 0.08733 0.0
H1682 H 0.72437 0.71613 0.05229 0.0
H1683 H 0.72941 0.69499 0.0235 0.0
C1684 C 0.71748 0.73208 0.10992 0.0
C1685 C 0.73349 0.73832 0.12183 0.0
C1686 C 0.72017 0.71931 0.09386 0.0
C1687 C 0.73891 0.71237 0.08949 0.0
C1688 C 0.75487 0.71836 0.10161 0.0
C1689 C 0.7522 0.73126 0.11756 0.0
C1690 C 0.75641 0.67064 0.05693 0.0
C1691 C 0.74784 0.67482 0.03867 0.0
C1692 C 0.75353 0.68281 0.07344 0.0
C1693 C 0.74188 0.6993 0.07207 0.0
C1694 C 0.73323 0.7034 0.05385 0.0
C1695 C 0.73623 0.69135 0.03733 0.0
H1696 H 0.00166 0.02028 0.14926 0.0
H1697 H 0.95267 0.03174 0.11117 0.0
H1698 H 0.97927 0.01664 0.17711 0.0
H1699 H 0.93017 0.02787 0.13899 0.0
H1700 H 0.89839 0.03888 0.19763 0.0
H1701 H 0.92072 0.04323 0.16977 0.0
H1702 H 0.95401 0.9945 0.1892 0.0
H1703 H 0.93203 0.99049 0.21728 0.0
C1704 C 0.98607 0.02185 0.14681 0.0
C1705 C 0.97893 0.02623 0.128 0.0
C1706 C 0.97322 0.01974 0.16277 0.0
C1707 C 0.95289 0.02187 0.16029 0.0
C1708 C 0.94576 0.02639 0.14149 0.0
C1709 C 0.95865 0.02858 0.12553 0.0
C1710 C 0.91048 0.02909 0.19595 0.0
C1711 C 0.91346 0.01436 0.20971 0.0
C1712 C 0.92322 0.03152 0.17991 0.0
C1713 C 0.9392 0.01925 0.17725 0.0
C1714 C 0.94206 0.00443 0.19096 0.0
C1715 C 0.92937 0.00205 0.20702 0.0
H1716 H 0.31038 0.77399 0.11815 0.0
H1717 H 0.2589 0.79467 0.14791 0.0
H1718 H 0.30401 0.79497 0.09039 0.0
H1719 H 0.25304 0.81676 0.12081 0.0
H1720 H 0.23736 0.84158 0.06123 0.0
H1721 H 0.24271 0.81974 0.08857 0.0
H1722 H 0.3056 0.82674 0.08001 0.0
H1723 H 0.30002 0.84744 0.05196 0.0
C1724 C 0.29779 0.78326 0.11875 0.0
C1725 C 0.28512 0.7828 0.13506 0.0
C1726 C 0.29419 0.79544 0.10294 0.0
C1727 C 0.27807 0.80783 0.10329 0.0
C1728 C 0.2654 0.80727 0.11975 0.0
C1729 C 0.26879 0.79472 0.13536 0.0
C1730 C 0.2523 0.8384 0.06526 0.0
C1731 C 0.26827 0.84609 0.05442 0.0
C1732 C 0.25542 0.82596 0.08103 0.0
C1733 C 0.27463 0.82127 0.0866 0.0
C1734 C 0.29058 0.82947 0.07594 0.0
C1735 C 0.28742 0.84152 0.05992 0.0
H1736 H 0.06012 0.46709 0.1105 0.0
H1737 H 0.00709 0.47755 0.14351 0.0
H1738 H 0.07943 0.47098 0.14076 0.0
H1739 H 0.02649 0.48192 0.17374 0.0
H1740 H 0.06561 0.46495 0.22608 0.0
H1741 H 0.04596 0.46176 0.19596 0.0
H1742 H 0.08974 0.49663 0.16497 0.0
H1743 H 0.10949 0.49967 0.19497 0.0
C1744 C 0.05259 0.47022 0.12423 0.0
C1745 C 0.03207 0.47194 0.12462 0.0
C1746 C 0.06368 0.47264 0.14153 0.0
C1747 C 0.05449 0.47675 0.15965 0.0
C1748 C 0.03397 0.47858 0.16004 0.0
C1749 C 0.02289 0.47628 0.1427 0.0
C1750 C 0.07106 0.47193 0.21284 0.0
C1751 C 0.08916 0.48251 0.21293 0.0
C1752 C 0.05972 0.47021 0.19562 0.0
C1753 C 0.0663 0.47893 0.17808 0.0
C1754 C 0.08438 0.48955 0.17819 0.0
C1755 C 0.09565 0.49136 0.19542 0.0
H1756 H 0.39605 0.72671 0.2503 0.0
H1757 H 0.36201 0.71946 0.30362 0.0
H1758 H 0.42527 0.73497 0.26999 0.0
H1759 H 0.39117 0.72796 0.32337 0.0
H1760 H 0.45158 0.72636 0.35274 0.0
H1761 H 0.4228 0.71656 0.33299 0.0
H1762 H 0.43836 0.76112 0.29081 0.0
H1763 H 0.46738 0.77054 0.31026 0.0
C1764 C 0.3948 0.72698 0.26624 0.0
C1765 C 0.37672 0.72249 0.2754 0.0
C1766 C 0.41154 0.73176 0.27754 0.0
C1767 C 0.41057 0.73225 0.29828 0.0
C1768 C 0.39252 0.72748 0.30745 0.0
C1769 C 0.37579 0.72261 0.29613 0.0
C1770 C 0.44886 0.73405 0.33924 0.0
C1771 C 0.4618 0.74922 0.33307 0.0
C1772 C 0.4323 0.7285 0.32796 0.0
C1773 C 0.42825 0.73803 0.31028 0.0
C1774 C 0.44118 0.75324 0.30417 0.0
C1775 C 0.45777 0.75874 0.3154 0.0
H1776 H 0.01101 0.39643 0.97013 0.0
H1777 H 0.9489 0.38176 0.96521 0.0
H1778 H 0.01826 0.3687 0.94843 0.0
H1779 H 0.95613 0.35425 0.94315 0.0
H1780 H 0.97928 0.29434 0.92311 0.0
H1781 H 0.97174 0.32204 0.94474 0.0
H1782 H 0.01386 0.35855 0.9134 0.0
H1783 H 0.02154 0.33088 0.89186 0.0
C1784 C 0.99891 0.38726 0.96443 0.0
C1785 C 0.97938 0.39127 0.9694 0.0
C1786 C 0.00305 0.37149 0.95186 0.0
C1787 C 0.98777 0.3593 0.94406 0.0
C1788 C 0.96824 0.36328 0.94905 0.0
C1789 C 0.96409 0.37914 0.96153 0.0
C1790 C 0.98693 0.30828 0.92082 0.0
C1791 C 0.00103 0.31038 0.90577 0.0
C1792 C 0.98252 0.32417 0.93315 0.0
C1793 C 0.99222 0.34248 0.93079 0.0
C1794 C 0.0063 0.34458 0.91573 0.0
C1795 C 0.01062 0.32873 0.90332 0.0
H1796 H 0.64472 0.78127 0.28989 0.0
H1797 H 0.6058 0.76401 0.24173 0.0
H1798 H 0.61821 0.77472 0.31336 0.0
H1799 H 0.57939 0.75731 0.26521 0.0
H1800 H 0.54476 0.72616 0.31417 0.0
H1801 H 0.57125 0.73356 0.29098 0.0
H1802 H 0.58607 0.7869 0.32372 0.0
H1803 H 0.5597 0.7794 0.34711 0.0
C1804 C 0.63046 0.77629 0.28428 0.0
C1805 C 0.62743 0.7731 0.26392 0.0
C1806 C 0.61528 0.77251 0.29775 0.0
C1807 C 0.59673 0.7654 0.29116 0.0
C1808 C 0.59362 0.76245 0.27079 0.0
C1809 C 0.60877 0.76628 0.25733 0.0
C1810 C 0.55368 0.73945 0.31647 0.0
C1811 C 0.55011 0.75218 0.33251 0.0
C1812 C 0.56879 0.74375 0.30309 0.0
C1813 C 0.58072 0.76085 0.30547 0.0
C1814 C 0.57725 0.77352 0.32159 0.0
C1815 C 0.56208 0.76926 0.33494 0.0
H1816 H 0.01331 0.15038 0.01027 0.0
H1817 H 0.02576 0.11319 0.95985 0.0
H1818 H 0.00863 0.17771 0.98846 0.0
H1819 H 0.0212 0.14067 0.93799 0.0
H1820 H 0.02911 0.20029 0.90741 0.0
H1821 H 0.03557 0.1731 0.92909 0.0
H1822 H 0.98445 0.18683 0.9638 0.0
H1823 H 0.97813 0.21407 0.94238 0.0
C1824 C 0.01496 0.148 0.99452 0.0
C1825 C 0.01972 0.12953 0.98681 0.0
C1826 C 0.01229 0.16369 0.98201 0.0
C1827 C 0.01438 0.16133 0.96148 0.0
C1828 C 0.01965 0.14301 0.95376 0.0
C1829 C 0.02228 0.12727 0.96629 0.0
C1830 C 0.01927 0.19752 0.91969 0.0
C1831 C 0.00312 0.20939 0.92318 0.0
C1832 C 0.02292 0.18187 0.93204 0.0
C1833 C 0.01057 0.17784 0.9482 0.0
C1834 C 0.99442 0.18971 0.95165 0.0
C1835 C 0.99073 0.20527 0.93928 0.0
H1836 H 0.38392 0.30263 0.22926 0.0
H1837 H 0.36995 0.24055 0.22587 0.0
H1838 H 0.41165 0.29812 0.20686 0.0
H1839 H 0.39747 0.23604 0.20348 0.0
H1840 H 0.46149 0.2319 0.18471 0.0
H1841 H 0.43302 0.23735 0.20557 0.0
H1842 H 0.4205 0.28912 0.17294 0.0
H1843 H 0.4493 0.28389 0.15224 0.0
C1844 C 0.38662 0.28808 0.22352 0.0
C1845 C 0.37489 0.27192 0.2295 0.0
C1846 C 0.40249 0.28548 0.2107 0.0
C1847 C 0.40691 0.26668 0.20356 0.0
C1848 C 0.39476 0.25065 0.20906 0.0
C1849 C 0.37897 0.25324 0.22187 0.0
C1850 C 0.45268 0.24445 0.18195 0.0
C1851 C 0.45766 0.25743 0.16678 0.0
C1852 C 0.43627 0.24751 0.19384 0.0
C1853 C 0.42441 0.26361 0.19086 0.0
C1854 C 0.42943 0.27667 0.17574 0.0
C1855 C 0.44587 0.27361 0.16382 0.0
H1856 H 0.50599 0.37114 0.00517 0.0
H1857 H 0.52484 0.41202 0.0514 0.0
H1858 H 0.50249 0.34528 0.02935 0.0
H1859 H 0.52202 0.386 0.07545 0.0
H1860 H 0.49376 0.33946 0.11564 0.0
H1861 H 0.49697 0.3656 0.09175 0.0
H1862 H 0.52322 0.32568 0.05005 0.0
H1863 H 0.51971 0.29946 0.07378 0.0
C1864 C 0.50932 0.37462 0.0205 0.0
C1865 C 0.51568 0.39364 0.02636 0.0
C1866 C 0.50754 0.35975 0.03432 0.0
C1867 C 0.51205 0.36356 0.05432 0.0
C1868 C 0.51827 0.38262 0.06019 0.0
C1869 C 0.52009 0.39748 0.04637 0.0
C1870 C 0.50027 0.33627 0.1014 0.0
C1871 C 0.50644 0.31736 0.09661 0.0
C1872 C 0.50219 0.35127 0.08774 0.0
C1873 C 0.5103 0.34771 0.06897 0.0
C1874 C 0.51664 0.32884 0.06427 0.0
C1875 C 0.51475 0.31384 0.07793 0.0
H1876 H 0.61489 0.21466 0.23375 0.0
H1877 H 0.62769 0.27683 0.23975 0.0
H1878 H 0.58908 0.22091 0.20985 0.0
H1879 H 0.60197 0.28306 0.21593 0.0
H1880 H 0.5398 0.28761 0.19126 0.0
H1881 H 0.56629 0.28097 0.21407 0.0
H1882 H 0.58385 0.23293 0.17647 0.0
H1883 H 0.55708 0.23935 0.15375 0.0
C1884 C 0.61233 0.22964 0.22983 0.0
C1885 C 0.62324 0.24525 0.23879 0.0
C1886 C 0.59755 0.23322 0.21613 0.0
C1887 C 0.59338 0.2525 0.21108 0.0
C1888 C 0.60454 0.26806 0.21978 0.0
C1889 C 0.61928 0.26449 0.23345 0.0
C1890 C 0.54932 0.27565 0.18781 0.0
C1891 C 0.54633 0.26403 0.17066 0.0
C1892 C 0.56458 0.27191 0.20085 0.0
C1893 C 0.57722 0.25645 0.19707 0.0
C1894 C 0.57425 0.24482 0.17991 0.0
C1895 C 0.55898 0.24859 0.16683 0.0
H1896 H 0.51112 0.11571 0.03546 0.0
H1897 H 0.45022 0.13147 0.03401 0.0
H1898 H 0.51895 0.14435 0.0565 0.0
H1899 H 0.45791 0.15969 0.05552 0.0
H1900 H 0.48254 0.21926 0.0772 0.0
H1901 H 0.47567 0.19135 0.05504 0.0
H1902 H 0.51271 0.15584 0.09043 0.0
H1903 H 0.51986 0.18383 0.11245 0.0
C1904 C 0.49943 0.12533 0.03956 0.0
C1905 C 0.48005 0.12131 0.0331 0.0
C1906 C 0.50387 0.14161 0.05179 0.0
C1907 C 0.48904 0.15426 0.05773 0.0
C1908 C 0.46971 0.15034 0.05107 0.0
C1909 C 0.46526 0.13405 0.03892 0.0
C1910 C 0.48925 0.20551 0.08026 0.0
C1911 C 0.50174 0.20378 0.09662 0.0
C1912 C 0.48523 0.18949 0.0676 0.0
C1913 C 0.49362 0.17138 0.07098 0.0
C1914 C 0.5062 0.16966 0.08728 0.0
C1915 C 0.51019 0.18568 0.09997 0.0
H1916 H 0.2477 0.40639 0.73888 0.0
H1917 H 0.29391 0.36897 0.71902 0.0
H1918 H 0.27159 0.43378 0.74211 0.0
H1919 H 0.31762 0.39642 0.72191 0.0
H1920 H 0.34823 0.45557 0.70734 0.0
H1921 H 0.3245 0.428 0.70523 0.0
H1922 H 0.30101 0.44443 0.76216 0.0
H1923 H 0.32466 0.47209 0.76427 0.0
C1924 C 0.26296 0.40394 0.73538 0.0
C1925 C 0.26884 0.38547 0.72859 0.0
C1926 C 0.27663 0.41965 0.7372 0.0
C1927 C 0.29646 0.41727 0.73217 0.0
C1928 C 0.30238 0.39879 0.72559 0.0
C1929 C 0.28876 0.38307 0.72389 0.0
C1930 C 0.33803 0.4533 0.71942 0.0
C1931 C 0.33835 0.46603 0.73597 0.0
C1932 C 0.3245 0.43745 0.71825 0.0
C1933 C 0.3109 0.43404 0.73354 0.0
C1934 C 0.31119 0.44678 0.75007 0.0
C1935 C 0.32482 0.46256 0.75132 0.0
H1936 H 0.23931 0.61372 0.773 0.0
H1937 H 0.28865 0.65379 0.78472 0.0
H1938 H 0.26164 0.58666 0.77038 0.0
H1939 H 0.31093 0.62663 0.78265 0.0
H1940 H 0.34581 0.57624 0.75529 0.0
H1941 H 0.32377 0.60356 0.75782 0.0
H1942 H 0.28296 0.56805 0.79186 0.0
H1943 H 0.30483 0.54067 0.78915 0.0
C1944 C 0.25493 0.61676 0.77496 0.0
C1945 C 0.26221 0.6359 0.77904 0.0
C1946 C 0.2677 0.60122 0.77367 0.0
C1947 C 0.28805 0.60449 0.77636 0.0
C1948 C 0.29535 0.62366 0.78035 0.0
C1949 C 0.28256 0.63918 0.78173 0.0
C1950 C 0.33216 0.57426 0.76335 0.0
C1951 C 0.32707 0.55625 0.77199 0.0
C1952 C 0.31958 0.58995 0.76488 0.0
C1953 C 0.3016 0.58795 0.77501 0.0
C1954 C 0.29659 0.56998 0.78374 0.0
C1955 C 0.30919 0.55432 0.78228 0.0
H1956 H 0.90565 0.4509 0.49313 0.0
H1957 H 0.86632 0.49298 0.47032 0.0
H1958 H 0.87762 0.4303 0.50343 0.0
H1959 H 0.8381 0.47194 0.47924 0.0
H1960 H 0.79044 0.43916 0.51286 0.0
H1961 H 0.81873 0.46025 0.50459 0.0
H1962 H 0.85278 0.40904 0.4928 0.0
H1963 H 0.82486 0.38819 0.50239 0.0
C1964 C 0.8909 0.45553 0.49013 0.0
C1965 C 0.88799 0.47339 0.48098 0.0
C1966 C 0.8748 0.44371 0.49586 0.0
C1967 C 0.85542 0.4493 0.49215 0.0
C1968 C 0.85268 0.46723 0.48277 0.0
C1969 C 0.86881 0.47924 0.47746 0.0
C1970 C 0.80405 0.43249 0.50861 0.0
C1971 C 0.80549 0.41206 0.50835 0.0
C1972 C 0.82027 0.44456 0.50368 0.0
C1973 C 0.8382 0.43647 0.49791 0.0
C1974 C 0.83947 0.41594 0.49757 0.0
C1975 C 0.8234 0.40392 0.50294 0.0
H1976 H 0.73793 0.87734 0.74441 0.0
H1977 H 0.73855 0.8824 0.80808 0.0
H1978 H 0.71596 0.90469 0.74291 0.0
H1979 H 0.71603 0.90929 0.8066 0.0
H1980 H 0.69331 0.97043 0.79482 0.0
H1981 H 0.71554 0.94332 0.79645 0.0
H1982 H 0.68206 0.91228 0.75077 0.0
H1983 H 0.66003 0.93951 0.74888 0.0
C1984 C 0.73341 0.88432 0.75808 0.0
C1985 C 0.74001 0.8777 0.77636 0.0
C1986 C 0.72064 0.89985 0.75723 0.0
C1987 C 0.7142 0.90915 0.77464 0.0
C1988 C 0.72085 0.90257 0.79291 0.0
C1989 C 0.73359 0.88701 0.79377 0.0
C1990 C 0.69067 0.95782 0.78513 0.0
C1991 C 0.6749 0.95716 0.7717 0.0
C1992 C 0.70336 0.94223 0.78614 0.0
C1993 C 0.70059 0.92564 0.77372 0.0
C1994 C 0.68476 0.92496 0.76036 0.0
C1995 C 0.67206 0.94052 0.75937 0.0
H1996 H 0.60837 0.55649 0.97381 0.0
H1997 H 0.64639 0.50913 0.98678 0.0
H1998 H 0.63601 0.57993 0.97835 0.0
H1999 H 0.67384 0.53258 0.99191 0.0
H2000 H 0.72286 0.57832 0.98057 0.0
H2001 H 0.69537 0.55534 0.97374 0.0
H2002 H 0.65644 0.59314 0.00573 0.0
H2003 H 0.68386 0.61628 0.01232 0.0
C2004 C 0.62266 0.55108 0.9775 0.0
C2005 C 0.62519 0.53096 0.97998 0.0
C2006 C 0.63843 0.56452 0.98031 0.0
C2007 C 0.6571 0.55812 0.98557 0.0
C2008 C 0.65969 0.53797 0.98771 0.0
C2009 C 0.64392 0.52455 0.98497 0.0
C2010 C 0.70844 0.58176 0.98612 0.0
C2011 C 0.70557 0.59913 0.99704 0.0
C2012 C 0.6927 0.56854 0.98228 0.0
C2013 C 0.67373 0.57241 0.98921 0.0
C2014 C 0.67083 0.58985 0.99998 0.0
C2015 C 0.68658 0.60305 0.00387 0.0
H2016 H 0.22426 0.64074 0.25529 0.0
H2017 H 0.21491 0.63295 0.19248 0.0
H2018 H 0.20256 0.61225 0.26128 0.0
H2019 H 0.19306 0.60473 0.19852 0.0
H2020 H 0.13901 0.56859 0.21802 0.0
H2021 H 0.16045 0.59739 0.2131 0.0
H2022 H 0.20147 0.57621 0.25567 0.0
H2023 H 0.17993 0.54742 0.26077 0.0
C2024 C 0.21769 0.6329 0.24275 0.0
C2025 C 0.22129 0.63921 0.2234 0.0
C2026 C 0.20524 0.6166 0.2462 0.0
C2027 C 0.19603 0.6063 0.23038 0.0
C2028 C 0.19966 0.61256 0.21105 0.0
C2029 C 0.21217 0.62878 0.20759 0.0
C2030 C 0.15256 0.57008 0.2264 0.0
C2031 C 0.15778 0.55566 0.23975 0.0
C2032 C 0.1649 0.58654 0.22349 0.0
C2033 C 0.18269 0.58904 0.23393 0.0
C2034 C 0.18778 0.57478 0.24752 0.0
C2035 C 0.17548 0.55824 0.25036 0.0
H2036 H 0.87627 0.51517 0.01827 0.0
H2037 H 0.91313 0.56453 0.03788 0.0
H2038 H 0.85039 0.53726 0.00982 0.0
H2039 H 0.88691 0.58656 0.03023 0.0
H2040 H 0.84348 0.62183 0.99496 0.0
H2041 H 0.86976 0.59977 0.0024 0.0
H2042 H 0.82701 0.55809 0.02577 0.0
H2043 H 0.80074 0.5799 0.01793 0.0
C2044 C 0.87887 0.53074 0.02075 0.0
C2045 C 0.8968 0.53806 0.02875 0.0
C2046 C 0.86394 0.5434 0.01612 0.0
C2047 C 0.86653 0.5637 0.01939 0.0
C2048 C 0.88448 0.57103 0.02733 0.0
C2049 C 0.89943 0.55837 0.03196 0.0
C2050 C 0.83969 0.60795 0.00166 0.0
C2051 C 0.81999 0.60263 0.00582 0.0
C2052 C 0.85477 0.59534 0.00604 0.0
C2053 C 0.85052 0.57714 0.01468 0.0
C2054 C 0.83081 0.57186 0.01885 0.0
C2055 C 0.81573 0.58444 0.01445 0.0
H2056 H 0.13962 0.00557 0.01304 0.0
H2057 H 0.09713 0.95945 0.02704 0.0
H2058 H 0.16498 0.98142 0.00918 0.0
H2059 H 0.1226 0.93544 0.02392 0.0
H2060 H 0.16818 0.89572 0.99632 0.0
H2061 H 0.14287 0.91994 0.9991 0.0
H2062 H 0.18395 0.95975 0.02938 0.0
H2063 H 0.2094 0.93567 0.02629 0.0
C2064 C 0.13567 0.99028 0.01522 0.0
C2065 C 0.11635 0.98445 0.02037 0.0
C2066 C 0.15026 0.97647 0.01324 0.0
C2067 C 0.14584 0.9565 0.01631 0.0
C2068 C 0.12648 0.95067 0.02128 0.0
C2069 C 0.11192 0.96447 0.02328 0.0
C2070 C 0.17183 0.90962 0.0036 0.0
C2071 C 0.19083 0.91374 0.01109 0.0
C2072 C 0.15728 0.92348 0.00526 0.0
C2073 C 0.16137 0.9418 0.01445 0.0
C2074 C 0.18037 0.94589 0.02198 0.0
C2075 C 0.19493 0.93202 0.02032 0.0
loop_
_geom_bond_atom_site_label_1
_geom_bond_atom_site_label_2
_geom_bond_distance
_geom_bond_site_symmetry_2
_ccdc_geom_bond_type
C0 C1 1.391 . S
C0 C4 1.391 1_556 S
C0 H42 0.948 . S
C1 C0 1.391 . S
C1 C2 1.391 1_556 S
C2 C1 1.391 1_554 S
C2 H58 0.912 1_455 S
C2 C59 1.392 . S
C3 C4 1.391 . S
C3 C7 1.397 . S
C3 C59 1.419 . S
C4 C0 1.391 1_554 S
C4 C3 1.391 . S
C4 C5 1.399 . S
C5 C4 1.399 . S
C5 C8 1.396 . S
C5 C17 1.453 . S
C5 C18 1.684 1_554 S
H6 C30 0.948 . S
C7 C3 1.397 . S
C7 C8 1.394 . S
C7 C26 1.723 . S
C8 C5 1.396 . S
C8 C7 1.394 . S
C8 C38 1.723 . S
H9 C32 0.947 . S
H10 C33 0.948 . S
H11 C39 0.982 . S
H12 C40 0.979 . S
H13 C40 0.980 . S
H14 C40 0.983 . S
H15 C39 0.977 . S
H16 C39 0.977 . S
C17 C5 1.453 . S
C17 H46 0.982 . S
C17 H47 0.979 1_554 S
C17 H48 0.977 . S
C18 C5 1.684 1_556 S
C18 H43 0.979 . S
C18 H44 0.980 . S
C18 H45 0.983 . S
C19 C20 1.391 . S
C19 C24 1.391 . S
C19 H49 0.948 . S
C20 C19 1.391 . S
C20 C21 1.391 1_655 S
C21 C20 1.391 1_455 S
C21 C22 1.392 . S
C21 H50 0.947 . S
C22 C21 1.392 . S
C22 C23 1.419 . S
C22 H51 0.948 . S
C23 C22 1.419 . S
C23 C24 1.391 1_455 S
C23 C27 1.397 . S
C24 C19 1.391 . S
C24 C23 1.391 1_655 S
C24 C25 1.397 1_655 S
C25 C24 1.397 1_455 S
C25 C26 1.418 . S
C25 C28 1.454 . S
C25 C29 1.664 1_455 S
C26 C7 1.723 . S
C26 C25 1.418 . S
C26 C27 1.394 . S
C27 C23 1.397 . S
C27 C26 1.394 . S
C27 C37 1.723 . S
C28 C25 1.454 . S
C28 H52 0.982 . S
C28 H53 0.979 1_455 S
C28 H54 0.977 . S
C29 C25 1.664 1_655 S
C29 H55 0.979 . S
C29 H56 0.980 . S
C29 H57 0.983 . S
C30 H6 0.948 . S
C30 C31 1.391 . S
C30 C35 1.391 1_565 S
C31 C30 1.391 . S
C31 C32 1.391 1_565 S
C32 H9 0.947 . S
C32 C31 1.391 1_545 S
C32 C33 1.392 . S
C33 H10 0.948 . S
C33 C32 1.392 . S
C33 C34 1.419 . S
C34 C33 1.419 . S
C34 C35 1.391 . S
C34 C38 1.397 . S
C35 C30 1.391 1_545 S
C35 C34 1.391 . S
C35 C36 1.399 . S
C36 C35 1.399 . S
C36 C37 1.396 . S
C36 C39 1.453 . S
C36 C40 1.684 1_545 S
C37 C27 1.723 . S
C37 C36 1.396 . S
C37 C38 1.394 . S
C38 C8 1.723 . S
C38 C34 1.397 . S
C38 C37 1.394 . S
C39 H11 0.982 . S
C39 H15 0.977 . S
C39 H16 0.977 . S
C39 C36 1.453 . S
C40 H12 0.979 . S
C40 H13 0.980 . S
C40 H14 0.983 . S
C40 C36 1.684 1_565 S
H41 C59 0.949 1_655 S
H42 C0 0.948 . S
H43 C18 0.979 . S
H44 C18 0.980 . S
H45 C18 0.983 . S
H46 C17 0.982 . S
H47 C17 0.979 1_556 S
H48 C17 0.977 . S
H49 C19 0.948 . S
H50 C21 0.947 . S
H51 C22 0.948 . S
H52 C28 0.982 . S
H53 C28 0.979 1_655 S
H54 C28 0.977 . S
H55 C29 0.979 . S
H56 C29 0.980 . S
H57 C29 0.983 . S
H58 C2 0.912 1_655 S
C59 C2 1.392 . S
C59 C3 1.419 . S
C59 H41 0.949 1_455 S
C60 C61 1.391 . S
C60 C64 1.391 . S
C60 H102 0.948 . S
C61 C60 1.391 . S
C61 C62 1.391 . S
C62 C61 1.391 . S
C62 H118 0.947 . S
C62 C119 1.392 . S
C63 C64 1.391 . S
C63 C67 1.397 . S
C63 C119 1.419 . S
C64 C60 1.391 . S
C64 C63 1.391 . S
C64 C65 1.399 . S
C65 C64 1.399 . S
C65 C68 1.396 . S
C65 C77 1.453 . S
C65 C78 1.684 . S
H66 C90 0.948 . S
C67 C63 1.397 . S
C67 C68 1.394 . S
C67 C86 1.723 . S
C68 C65 1.396 . S
C68 C67 1.394 . S
C68 C98 1.723 . S
H69 C92 0.947 . S
H70 C93 0.948 . S
H71 C99 0.982 . S
H72 C100 0.979 . S
H73 C100 0.980 . S
H74 C100 0.983 . S
H75 C99 0.979 . S
H76 C99 0.977 . S
C77 C65 1.453 . S
C77 H106 0.982 . S
C77 H107 0.979 . S
C77 H108 0.977 . S
C78 C65 1.684 . S
C78 H103 0.979 . S
C78 H104 0.980 . S
C78 H105 0.983 . S
C79 C80 1.391 . S
C79 C84 1.391 . S
C79 H109 0.948 . S
C80 C79 1.391 . S
C80 C81 1.391 . S
C81 C80 1.391 . S
C81 C82 1.392 . S
C81 H110 0.947 . S
C82 C81 1.392 . S
C82 C83 1.419 . S
C82 H111 0.948 . S
C83 C82 1.419 . S
C83 C84 1.391 . S
C83 C87 1.397 . S
C84 C79 1.391 . S
C84 C83 1.391 . S
C84 C85 1.399 . S
C85 C84 1.399 . S
C85 C86 1.396 . S
C85 C88 1.453 . S
C85 C89 1.684 . S
C86 C67 1.723 . S
C86 C85 1.396 . S
C86 C87 1.394 . S
C87 C83 1.397 . S
C87 C86 1.394 . S
C87 C97 1.723 . S
C88 C85 1.453 . S
C88 H112 0.982 . S
C88 H113 0.979 . S
C88 H114 0.977 . S
C89 C85 1.684 . S
C89 H115 0.979 . S
C89 H116 0.980 . S
C89 H117 0.983 . S
C90 H66 0.948 . S
C90 C91 1.391 . S
C90 C95 1.391 . S
C91 C90 1.391 . S
C91 C92 1.391 . S
C92 H69 0.947 . S
C92 C91 1.391 . S
C92 C93 1.392 . S
C93 H70 0.948 . S
C93 C92 1.392 . S
C93 C94 1.419 . S
C94 C93 1.419 . S
C94 C95 1.391 . S
C94 C98 1.397 . S
C95 C90 1.391 . S
C95 C94 1.391 . S
C95 C96 1.399 . S
C96 C95 1.399 . S
C96 C97 1.396 . S
C96 C99 1.453 . S
C96 C100 1.684 . S
C97 C87 1.723 . S
C97 C96 1.396 . S
C97 C98 1.394 . S
C98 C68 1.723 . S
C98 C94 1.397 . S
C98 C97 1.394 . S
C99 H71 0.982 . S
C99 H75 0.979 . S
C99 H76 0.977 . S
C99 C96 1.453 . S
C100 H72 0.979 . S
C100 H73 0.980 . S
C100 H74 0.983 . S
C100 C96 1.684 . S
H101 C119 0.948 . S
H102 C60 0.948 . S
H103 C78 0.979 . S
H104 C78 0.980 . S
H105 C78 0.983 . S
H106 C77 0.982 . S
H107 C77 0.979 . S
H108 C77 0.977 . S
H109 C79 0.948 . S
H110 C81 0.947 . S
H111 C82 0.948 . S
H112 C88 0.982 . S
H113 C88 0.979 . S
H114 C88 0.977 . S
H115 C89 0.979 . S
H116 C89 0.980 . S
H117 C89 0.983 . S
H118 C62 0.947 . S
C119 C62 1.392 . S
C119 C63 1.419 . S
C119 H101 0.948 . S
C120 C121 1.391 . S
C120 C124 1.391 1_556 S
C120 H162 0.947 1_556 S
C121 C120 1.391 . S
C121 C122 1.391 . S
C122 C121 1.391 . S
C122 H178 0.947 . S
C122 C179 1.392 . S
C123 C124 1.391 . S
C123 C127 1.397 . S
C123 C179 1.419 1_554 S
C124 C120 1.391 1_554 S
C124 C123 1.391 . S
C124 C125 1.399 . S
C125 C124 1.399 . S
C125 C128 1.396 . S
C125 C137 1.453 . S
C125 C138 1.684 1_655 S
H126 C150 0.962 . S
C127 C123 1.397 . S
C127 C128 1.394 . S
C127 C146 1.723 . S
C128 C125 1.396 . S
C128 C127 1.394 . S
C128 C158 1.723 . S
H129 C152 0.947 . S
H130 C153 0.948 . S
H131 C159 0.982 . S
H132 C160 0.979 . S
H133 C160 0.980 . S
H134 C160 0.983 . S
H135 C159 0.979 . S
H136 C159 0.977 . S
C137 C125 1.453 . S
C137 H166 0.982 . S
C137 H167 0.979 1_655 S
C137 H168 0.966 1_655 S
C138 C125 1.684 1_455 S
C138 H163 0.979 . S
C138 H164 0.980 . S
C138 H165 0.983 . S
C139 C140 1.391 . S
C139 C144 1.391 . S
C139 H169 0.948 . S
C140 C139 1.391 . S
C140 C141 1.391 . S
C141 C140 1.391 . S
C141 C142 1.392 . S
C141 H170 0.947 . S
C142 C141 1.392 . S
C142 C143 1.419 . S
C142 H171 0.948 . S
C143 C142 1.419 . S
C143 C144 1.391 . S
C143 C147 1.397 . S
C144 C139 1.391 . S
C144 C143 1.391 . S
C144 C145 1.399 . S
C145 C144 1.399 . S
C145 C146 1.396 . S
C145 C148 1.453 . S
C145 C149 1.684 1_554 S
C146 C127 1.723 . S
C146 C145 1.396 . S
C146 C147 1.394 . S
C147 C143 1.397 . S
C147 C146 1.394 . S
C147 C157 1.723 . S
C148 C145 1.453 . S
C148 H172 0.982 . S
C148 H173 0.979 1_554 S
C148 H174 0.977 1_554 S
C149 C145 1.684 1_556 S
C149 H175 0.979 . S
C149 H176 0.980 . S
C149 H177 0.983 . S
C150 H126 0.962 . S
C150 C151 1.391 . S
C150 C155 1.391 1_455 S
C151 C150 1.391 . S
C151 C152 1.391 . S
C152 H129 0.947 . S
C152 C151 1.391 . S
C152 C153 1.392 . S
C153 H130 0.948 . S
C153 C152 1.392 . S
C153 C154 1.419 1_455 S
C154 C153 1.419 1_655 S
C154 C155 1.391 . S
C154 C158 1.397 . S
C155 C150 1.391 1_655 S
C155 C154 1.391 . S
C155 C156 1.399 . S
C156 C155 1.399 . S
C156 C157 1.396 . S
C156 C159 1.453 . S
C156 C160 1.684 . S
C157 C147 1.723 . S
C157 C156 1.396 . S
C157 C158 1.394 . S
C158 C128 1.723 . S
C158 C154 1.397 . S
C158 C157 1.394 . S
C159 H131 0.982 . S
C159 H135 0.979 . S
C159 H136 0.977 . S
C159 C156 1.453 . S
C160 H132 0.979 . S
C160 H133 0.980 . S
C160 H134 0.983 . S
C160 C156 1.684 . S
H161 C179 0.948 . S
H162 C120 0.947 1_554 S
H163 C138 0.979 . S
H164 C138 0.980 . S
H165 C138 0.983 . S
H166 C137 0.982 . S
H167 C137 0.979 1_455 S
H168 C137 0.966 1_455 S
H169 C139 0.948 . S
H170 C141 0.947 . S
H171 C142 0.948 . S
H172 C148 0.982 . S
H173 C148 0.979 1_556 S
H174 C148 0.977 1_556 S
H175 C149 0.979 . S
H176 C149 0.980 . S
H177 C149 0.983 . S
H178 C122 0.947 . S
C179 C122 1.392 . S
C179 C123 1.419 1_556 S
C179 H161 0.948 . S
C180 C181 1.391 . S
C180 C184 1.391 . S
C180 H222 0.948 . S
C181 C180 1.391 . S
C181 C182 1.391 . S
C182 C181 1.391 . S
C182 H238 0.947 . S
C182 C239 1.392 . S
C183 C184 1.391 . S
C183 C187 1.397 . S
C183 C239 1.419 . S
C184 C180 1.391 . S
C184 C183 1.391 . S
C184 C185 1.399 . S
C185 C184 1.399 . S
C185 C188 1.396 . S
C185 C197 1.453 . S
C185 C198 1.684 . S
H186 C210 0.948 . S
C187 C183 1.397 . S
C187 C188 1.394 . S
C187 C206 1.723 . S
C188 C185 1.396 . S
C188 C187 1.394 . S
C188 C218 1.723 . S
H189 C212 0.947 . S
H190 C213 0.948 . S
H191 C219 0.982 . S
H192 C220 0.979 . S
H193 C220 0.980 . S
H194 C220 0.983 . S
H195 C219 0.979 . S
H196 C219 0.977 . S
C197 C185 1.453 . S
C197 H226 0.982 . S
C197 H227 0.979 . S
C197 H228 0.977 . S
C198 C185 1.684 . S
C198 H223 0.979 . S
C198 H224 0.980 . S
C198 H225 0.983 . S
C199 C200 1.391 . S
C199 C204 1.391 . S
C199 H229 0.948 . S
C200 C199 1.391 . S
C200 C201 1.391 . S
C201 C200 1.391 . S
C201 C202 1.392 . S
C201 H230 0.947 . S
C202 C201 1.392 . S
C202 C203 1.419 . S
C202 H231 0.948 . S
C203 C202 1.419 . S
C203 C204 1.391 . S
C203 C207 1.397 . S
C204 C199 1.391 . S
C204 C203 1.391 . S
C204 C205 1.399 . S
C205 C204 1.399 . S
C205 C206 1.396 . S
C205 C208 1.453 . S
C205 C209 1.684 . S
C206 C187 1.723 . S
C206 C205 1.396 . S
C206 C207 1.394 . S
C207 C203 1.397 . S
C207 C206 1.394 . S
C207 C217 1.723 . S
C208 C205 1.453 . S
C208 H232 0.982 . S
C208 H233 0.979 . S
C208 H234 0.977 . S
C209 C205 1.684 . S
C209 H235 0.979 . S
C209 H236 0.980 . S
C209 H237 0.983 . S
C210 H186 0.948 . S
C210 C211 1.391 . S
C210 C215 1.391 . S
C211 C210 1.391 . S
C211 C212 1.391 . S
C212 H189 0.947 . S
C212 C211 1.391 . S
C212 C213 1.392 . S
C213 H190 0.948 . S
C213 C212 1.392 . S
C213 C214 1.419 . S
C214 C213 1.419 . S
C214 C215 1.391 . S
C214 C218 1.397 . S
C215 C210 1.391 . S
C215 C214 1.391 . S
C215 C216 1.399 . S
C216 C215 1.399 . S
C216 C217 1.396 . S
C216 C219 1.453 . S
C216 C220 1.684 . S
C217 C207 1.723 . S
C217 C216 1.396 . S
C217 C218 1.394 . S
C218 C188 1.723 . S
C218 C214 1.397 . S
C218 C217 1.394 . S
C219 H191 0.982 . S
C219 H195 0.979 . S
C219 H196 0.977 . S
C219 C216 1.453 . S
C220 H192 0.979 . S
C220 H193 0.980 . S
C220 H194 0.983 . S
C220 C216 1.684 . S
H221 C239 0.948 . S
H222 C180 0.948 . S
H223 C198 0.979 . S
H224 C198 0.980 . S
H225 C198 0.983 . S
H226 C197 0.982 . S
H227 C197 0.979 . S
H228 C197 0.977 . S
H229 C199 0.948 . S
H230 C201 0.947 . S
H231 C202 0.948 . S
H232 C208 0.982 . S
H233 C208 0.979 . S
H234 C208 0.977 . S
H235 C209 0.979 . S
H236 C209 0.980 . S
H237 C209 0.983 . S
H238 C182 0.947 . S
C239 C182 1.392 . S
C239 C183 1.419 . S
C239 H221 0.948 . S
C240 C241 1.391 . S
C240 C244 1.391 . S
C240 H282 0.948 . S
C241 C240 1.391 . S
C241 C242 1.391 . S
C242 C241 1.391 . S
C242 H298 0.927 1_455 S
C242 C299 1.392 . S
C243 C244 1.391 . S
C243 C247 1.397 . S
C243 C299 1.419 . S
C244 C240 1.391 . S
C244 C243 1.391 . S
C244 C245 1.399 . S
C245 C244 1.399 . S
C245 C248 1.396 . S
C245 C257 1.453 . S
C245 C258 1.684 . S
H246 C270 0.948 . S
C247 C243 1.397 . S
C247 C248 1.394 . S
C247 C266 1.723 . S
C248 C245 1.396 . S
C248 C247 1.394 . S
C248 C278 1.723 . S
H249 C272 0.947 . S
H250 C273 0.948 . S
H251 C279 0.982 . S
H252 C280 0.988 . S
H253 C280 0.980 . S
H254 C280 0.983 . S
H255 C279 0.979 . S
H256 C279 0.977 . S
C257 C245 1.453 . S
C257 H286 0.982 . S
C257 H287 0.979 . S
C257 H288 0.977 . S
C258 C245 1.684 . S
C258 H283 0.979 . S
C258 H284 0.980 . S
C258 H285 0.983 . S
C259 C260 1.391 . S
C259 C264 1.391 1_655 S
C259 H289 0.948 . S
C260 C259 1.391 . S
C260 C261 1.381 1_665 S
C261 C260 1.381 1_445 S
C261 C262 1.389 1_545 S
C261 H290 0.960 . S
C262 C261 1.389 1_565 S
C262 C263 1.419 . S
C262 H291 0.948 1_565 S
C263 C262 1.419 . S
C263 C264 1.391 . S
C263 C267 1.397 . S
C264 C259 1.391 1_455 S
C264 C263 1.391 . S
C264 C265 1.399 . S
C265 C264 1.399 . S
C265 C266 1.396 . S
C265 C268 1.453 1_455 S
C265 C269 1.677 1_455 S
C266 C247 1.723 . S
C266 C265 1.396 . S
C266 C267 1.394 . S
C267 C263 1.397 . S
C267 C266 1.394 . S
C267 C277 1.723 . S
C268 C265 1.453 1_655 S
C268 H292 0.982 . S
C268 H293 0.979 . S
C268 H294 0.977 . S
C269 C265 1.677 1_655 S
C269 H295 0.942 1_655 S
C269 H296 0.979 . S
C269 H297 1.031 . S
C270 H246 0.948 . S
C270 C271 1.391 . S
C270 C275 1.391 . S
C271 C270 1.391 . S
C271 C272 1.391 . S
C272 H249 0.947 . S
C272 C271 1.391 . S
C272 C273 1.392 1_545 S
C273 H250 0.948 . S
C273 C272 1.392 1_565 S
C273 C274 1.419 . S
C274 C273 1.419 . S
C274 C275 1.391 1_565 S
C274 C278 1.397 . S
C275 C270 1.391 . S
C275 C274 1.391 1_545 S
C275 C276 1.399 . S
C276 C275 1.399 . S
C276 C277 1.396 1_545 S
C276 C279 1.453 . S
C276 C280 1.684 . S
C277 C267 1.723 . S
C277 C276 1.396 1_565 S
C277 C278 1.394 . S
C278 C248 1.723 . S
C278 C274 1.397 . S
C278 C277 1.394 . S
C279 H251 0.982 . S
C279 H255 0.979 . S
C279 H256 0.977 . S
C279 C276 1.453 . S
C280 H252 0.988 . S
C280 H253 0.980 . S
C280 H254 0.983 . S
C280 C276 1.684 . S
H281 C299 0.948 . S
H282 C240 0.948 . S
H283 C258 0.979 . S
H284 C258 0.980 . S
H285 C258 0.983 . S
H286 C257 0.982 . S
H287 C257 0.979 . S
H288 C257 0.977 . S
H289 C259 0.948 . S
H290 C261 0.960 . S
H291 C262 0.948 1_545 S
H292 C268 0.982 . S
H293 C268 0.979 . S
H294 C268 0.977 . S
H295 C269 0.942 1_455 S
H296 C269 0.979 . S
H297 C269 1.031 . S
H298 C242 0.927 1_655 S
C299 C242 1.392 . S
C299 C243 1.419 . S
C299 H281 0.948 . S
C300 C301 1.391 . S
C300 C304 1.391 . S
C300 H342 0.948 . S
C301 C300 1.391 . S
C301 C302 1.391 . S
C302 C301 1.391 . S
C302 H358 0.947 . S
C302 C359 1.392 . S
C303 C304 1.391 . S
C303 C307 1.397 . S
C303 C359 1.419 . S
C304 C300 1.391 . S
C304 C303 1.391 . S
C304 C305 1.399 . S
C305 C304 1.399 . S
C305 C308 1.396 . S
C305 C317 1.453 . S
C305 C318 1.684 . S
H306 C330 0.948 . S
C307 C303 1.397 . S
C307 C308 1.394 . S
C307 C326 1.723 . S
C308 C305 1.396 . S
C308 C307 1.394 . S
C308 C338 1.723 . S
H309 C332 0.947 . S
H310 C333 0.948 . S
H311 C339 0.982 . S
H312 C340 0.979 . S
H313 C340 0.980 . S
H314 C340 0.983 . S
H315 C339 0.979 . S
H316 C339 0.977 . S
C317 C305 1.453 . S
C317 H346 0.982 . S
C317 H347 0.979 . S
C317 H348 0.977 . S
C318 C305 1.684 . S
C318 H343 0.979 . S
C318 H344 0.980 . S
C318 H345 0.983 . S
C319 C320 1.391 . S
C319 C324 1.391 . S
C319 H349 0.948 . S
C320 C319 1.391 . S
C320 C321 1.391 . S
C321 C320 1.391 . S
C321 C322 1.392 . S
C321 H350 0.947 . S
C322 C321 1.392 . S
C322 C323 1.419 . S
C322 H351 0.948 . S
C323 C322 1.419 . S
C323 C324 1.391 . S
C323 C327 1.397 . S
C324 C319 1.391 . S
C324 C323 1.391 . S
C324 C325 1.399 . S
C325 C324 1.399 . S
C325 C326 1.396 . S
C325 C328 1.453 . S
C325 C329 1.684 . S
C326 C307 1.723 . S
C326 C325 1.396 . S
C326 C327 1.394 . S
C327 C323 1.397 . S
C327 C326 1.394 . S
C327 C337 1.723 . S
C328 C325 1.453 . S
C328 H352 0.982 . S
C328 H353 0.979 . S
C328 H354 0.977 . S
C329 C325 1.684 . S
C329 H355 0.979 . S
C329 H356 0.980 . S
C329 H357 0.983 . S
C330 H306 0.948 . S
C330 C331 1.391 . S
C330 C335 1.391 . S
C331 C330 1.391 . S
C331 C332 1.391 . S
C332 H309 0.947 . S
C332 C331 1.391 . S
C332 C333 1.392 . S
C333 H310 0.948 . S
C333 C332 1.392 . S
C333 C334 1.419 . S
C334 C333 1.419 . S
C334 C335 1.391 . S
C334 C338 1.397 . S
C335 C330 1.391 . S
C335 C334 1.391 . S
C335 C336 1.399 . S
C336 C335 1.399 . S
C336 C337 1.396 . S
C336 C339 1.453 . S
C336 C340 1.684 . S
C337 C327 1.723 . S
C337 C336 1.396 . S
C337 C338 1.394 . S
C338 C308 1.723 . S
C338 C334 1.397 . S
C338 C337 1.394 . S
C339 H311 0.982 . S
C339 H315 0.979 . S
C339 H316 0.977 . S
C339 C336 1.453 . S
C340 H312 0.979 . S
C340 H313 0.980 . S
C340 H314 0.983 . S
C340 C336 1.684 . S
H341 C359 0.948 . S
H342 C300 0.948 . S
H343 C318 0.979 . S
H344 C318 0.980 . S
H345 C318 0.983 . S
H346 C317 0.982 . S
H347 C317 0.979 . S
H348 C317 0.977 . S
H349 C319 0.948 . S
H350 C321 0.947 . S
H351 C322 0.948 . S
H352 C328 0.982 . S
H353 C328 0.979 . S
H354 C328 0.977 . S
H355 C329 0.979 . S
H356 C329 0.980 . S
H357 C329 0.983 . S
H358 C302 0.947 . S
C359 C302 1.392 . S
C359 C303 1.419 . S
C359 H341 0.948 . S
C360 C361 1.391 . S
C360 C364 1.391 . S
C360 H402 0.948 . S
C361 C360 1.391 . S
C361 C362 1.391 . S
C362 C361 1.391 . S
C362 H418 0.947 . S
C362 C419 1.392 . S
C363 C364 1.391 . S
C363 C367 1.397 . S
C363 C419 1.419 . S
C364 C360 1.391 . S
C364 C363 1.391 . S
C364 C365 1.399 . S
C365 C364 1.399 . S
C365 C368 1.396 . S
C365 C377 1.453 . S
C365 C378 1.684 . S
H366 C390 0.976 . S
C367 C363 1.397 . S
C367 C368 1.394 . S
C367 C386 1.723 . S
C368 C365 1.396 . S
C368 C367 1.394 . S
C368 C398 1.723 . S
H369 C392 0.947 . S
H370 C393 0.948 . S
H371 C399 0.982 . S
H372 C400 0.979 . S
H373 C400 0.980 . S
H374 C400 0.983 . S
H375 C399 0.979 1_455 S
H376 C399 0.977 1_455 S
C377 C365 1.453 . S
C377 H406 0.982 . S
C377 H407 0.979 . S
C377 H408 0.977 . S
C378 C365 1.684 . S
C378 H403 0.979 . S
C378 H404 0.980 . S
C378 H405 0.983 . S
C379 C380 1.391 . S
C379 C384 1.391 1_455 S
C379 H409 0.948 1_455 S
C380 C379 1.391 . S
C380 C381 1.391 . S
C381 C380 1.391 . S
C381 C382 1.392 . S
C381 H410 0.947 . S
C382 C381 1.392 . S
C382 C383 1.419 1_455 S
C382 H411 0.948 . S
C383 C382 1.419 1_655 S
C383 C384 1.391 . S
C383 C387 1.397 . S
C384 C379 1.391 1_655 S
C384 C383 1.391 . S
C384 C385 1.399 . S
C385 C384 1.399 . S
C385 C386 1.396 . S
C385 C388 1.453 . S
C385 C389 1.684 . S
C386 C367 1.723 . S
C386 C385 1.396 . S
C386 C387 1.394 . S
C387 C383 1.397 . S
C387 C386 1.394 . S
C387 C397 1.723 . S
C388 C385 1.453 . S
C388 H412 0.982 . S
C388 H413 0.979 . S
C388 H414 0.977 . S
C389 C385 1.684 . S
C389 H415 0.979 . S
C389 H416 0.980 . S
C389 H417 0.983 . S
C390 H366 0.976 . S
C390 C391 1.391 . S
C390 C395 1.391 . S
C391 C390 1.391 . S
C391 C392 1.391 . S
C392 H369 0.947 . S
C392 C391 1.391 . S
C392 C393 1.392 . S
C393 H370 0.948 . S
C393 C392 1.392 . S
C393 C394 1.419 . S
C394 C393 1.419 . S
C394 C395 1.391 . S
C394 C398 1.397 . S
C395 C390 1.391 . S
C395 C394 1.391 . S
C395 C396 1.399 . S
C396 C395 1.399 . S
C396 C397 1.396 . S
C396 C399 1.453 . S
C396 C400 1.684 1_655 S
C397 C387 1.723 . S
C397 C396 1.396 . S
C397 C398 1.394 . S
C398 C368 1.723 . S
C398 C394 1.397 . S
C398 C397 1.394 . S
C399 H371 0.982 . S
C399 H375 0.979 1_655 S
C399 H376 0.977 1_655 S
C399 C396 1.453 . S
C400 H372 0.979 . S
C400 H373 0.980 . S
C400 H374 0.983 . S
C400 C396 1.684 1_455 S
H401 C419 0.948 . S
H402 C360 0.948 . S
H403 C378 0.979 . S
H404 C378 0.980 . S
H405 C378 0.983 . S
H406 C377 0.982 . S
H407 C377 0.979 . S
H408 C377 0.977 . S
H409 C379 0.948 1_655 S
H410 C381 0.947 . S
H411 C382 0.948 . S
H412 C388 0.982 . S
H413 C388 0.979 . S
H414 C388 0.977 . S
H415 C389 0.979 . S
H416 C389 0.980 . S
H417 C389 0.983 . S
H418 C362 0.947 . S
C419 C362 1.392 . S
C419 C363 1.419 . S
C419 H401 0.948 . S
C420 C421 1.391 . S
C420 C424 1.391 . S
C420 H462 0.948 . S
C421 C420 1.391 . S
C421 C422 1.391 . S
C422 C421 1.391 . S
C422 H478 0.947 . S
C422 C479 1.392 . S
C423 C424 1.391 . S
C423 C427 1.397 . S
C423 C479 1.419 . S
C424 C420 1.391 . S
C424 C423 1.391 . S
C424 C425 1.399 . S
C425 C424 1.399 . S
C425 C428 1.396 . S
C425 C437 1.453 . S
C425 C438 1.684 . S
H426 C450 0.948 . S
C427 C423 1.397 . S
C427 C428 1.394 . S
C427 C446 1.723 . S
C428 C425 1.396 . S
C428 C427 1.394 . S
C428 C458 1.723 . S
H429 C452 0.947 . S
H430 C453 0.948 . S
H431 C459 0.982 . S
H432 C460 0.979 . S
H433 C460 0.980 . S
H434 C460 0.983 . S
H435 C459 0.979 . S
H436 C459 0.977 . S
C437 C425 1.453 . S
C437 H466 0.982 . S
C437 H467 0.979 . S
C437 H468 0.977 . S
C438 C425 1.684 . S
C438 H463 0.979 . S
C438 H464 0.980 . S
C438 H465 0.983 . S
C439 C440 1.391 . S
C439 C444 1.391 . S
C439 H469 0.948 . S
C440 C439 1.391 . S
C440 C441 1.391 . S
C441 C440 1.391 . S
C441 C442 1.392 . S
C441 H470 0.947 . S
C442 C441 1.392 . S
C442 C443 1.419 . S
C442 H471 0.948 . S
C443 C442 1.419 . S
C443 C444 1.391 . S
C443 C447 1.397 . S
C444 C439 1.391 . S
C444 C443 1.391 . S
C444 C445 1.399 . S
C445 C444 1.399 . S
C445 C446 1.396 . S
C445 C448 1.453 . S
C445 C449 1.684 . S
C446 C427 1.723 . S
C446 C445 1.396 . S
C446 C447 1.394 . S
C447 C443 1.397 . S
C447 C446 1.394 . S
C447 C457 1.723 . S
C448 C445 1.453 . S
C448 H472 0.982 . S
C448 H473 0.979 . S
C448 H474 0.977 . S
C449 C445 1.684 . S
C449 H475 0.979 . S
C449 H476 0.980 . S
C449 H477 0.983 . S
C450 H426 0.948 . S
C450 C451 1.391 . S
C450 C455 1.391 . S
C451 C450 1.391 . S
C451 C452 1.391 . S
C452 H429 0.947 . S
C452 C451 1.391 . S
C452 C453 1.392 . S
C453 H430 0.948 . S
C453 C452 1.392 . S
C453 C454 1.419 . S
C454 C453 1.419 . S
C454 C455 1.391 . S
C454 C458 1.397 . S
C455 C450 1.391 . S
C455 C454 1.391 . S
C455 C456 1.399 . S
C456 C455 1.399 . S
C456 C457 1.396 . S
C456 C459 1.453 . S
C456 C460 1.684 . S
C457 C447 1.723 . S
C457 C456 1.396 . S
C457 C458 1.394 . S
C458 C428 1.723 . S
C458 C454 1.397 . S
C458 C457 1.394 . S
C459 H431 0.982 . S
C459 H435 0.979 . S
C459 H436 0.977 . S
C459 C456 1.453 . S
C460 H432 0.979 . S
C460 H433 0.980 . S
C460 H434 0.983 . S
C460 C456 1.684 . S
H461 C479 0.948 . S
H462 C420 0.948 . S
H463 C438 0.979 . S
H464 C438 0.980 . S
H465 C438 0.983 . S
H466 C437 0.982 . S
H467 C437 0.979 . S
H468 C437 0.977 . S
H469 C439 0.948 . S
H470 C441 0.947 . S
H471 C442 0.948 . S
H472 C448 0.982 . S
H473 C448 0.979 . S
H474 C448 0.977 . S
H475 C449 0.979 . S
H476 C449 0.980 . S
H477 C449 0.983 . S
H478 C422 0.947 . S
C479 C422 1.392 . S
C479 C423 1.419 . S
C479 H461 0.948 . S
C480 C481 1.391 . S
C480 C484 1.391 . S
C480 H522 0.948 . S
C481 C480 1.391 . S
C481 C482 1.391 . S
C482 C481 1.391 . S
C482 H538 0.947 . S
C482 C539 1.392 . S
C483 C484 1.391 . S
C483 C487 1.397 . S
C483 C539 1.419 . S
C484 C480 1.391 . S
C484 C483 1.391 . S
C484 C485 1.399 . S
C485 C484 1.399 . S
C485 C488 1.396 . S
C485 C497 1.453 . S
C485 C498 1.684 . S
H486 C510 0.948 . S
C487 C483 1.397 . S
C487 C488 1.394 . S
C487 C506 1.723 . S
C488 C485 1.396 . S
C488 C487 1.394 . S
C488 C518 1.723 . S
H489 C512 0.947 . S
H490 C513 0.948 . S
H491 C519 0.982 . S
H492 C520 0.979 . S
H493 C520 0.980 . S
H494 C520 0.983 . S
H495 C519 0.979 . S
H496 C519 0.977 . S
C497 C485 1.453 . S
C497 H526 0.982 . S
C497 H527 0.979 . S
C497 H528 0.977 . S
C498 C485 1.684 . S
C498 H523 0.979 . S
C498 H524 0.980 . S
C498 H525 0.983 . S
C499 C500 1.391 . S
C499 C504 1.391 . S
C499 H529 0.948 . S
C500 C499 1.391 . S
C500 C501 1.391 . S
C501 C500 1.391 . S
C501 C502 1.392 . S
C501 H530 0.947 . S
C502 C501 1.392 . S
C502 C503 1.419 . S
C502 H531 0.948 . S
C503 C502 1.419 . S
C503 C504 1.391 . S
C503 C507 1.397 . S
C504 C499 1.391 . S
C504 C503 1.391 . S
C504 C505 1.399 . S
C505 C504 1.399 . S
C505 C506 1.396 . S
C505 C508 1.453 . S
C505 C509 1.684 . S
C506 C487 1.723 . S
C506 C505 1.396 . S
C506 C507 1.394 . S
C507 C503 1.397 . S
C507 C506 1.394 . S
C507 C517 1.723 . S
C508 C505 1.453 . S
C508 H532 0.982 . S
C508 H533 0.979 . S
C508 H534 0.977 . S
C509 C505 1.684 . S
C509 H535 0.979 . S
C509 H536 0.980 . S
C509 H537 0.983 . S
C510 H486 0.948 . S
C510 C511 1.391 . S
C510 C515 1.391 . S
C511 C510 1.391 . S
C511 C512 1.391 . S
C512 H489 0.947 . S
C512 C511 1.391 . S
C512 C513 1.392 . S
C513 H490 0.948 . S
C513 C512 1.392 . S
C513 C514 1.419 . S
C514 C513 1.419 . S
C514 C515 1.391 . S
C514 C518 1.397 . S
C515 C510 1.391 . S
C515 C514 1.391 . S
C515 C516 1.399 . S
C516 C515 1.399 . S
C516 C517 1.396 . S
C516 C519 1.453 . S
C516 C520 1.684 . S
C517 C507 1.723 . S
C517 C516 1.396 . S
C517 C518 1.394 . S
C518 C488 1.723 . S
C518 C514 1.397 . S
C518 C517 1.394 . S
C519 H491 0.982 . S
C519 H495 0.979 . S
C519 H496 0.977 . S
C519 C516 1.453 . S
C520 H492 0.979 . S
C520 H493 0.980 . S
C520 H494 0.983 . S
C520 C516 1.684 . S
H521 C539 0.948 . S
H522 C480 0.948 . S
H523 C498 0.979 . S
H524 C498 0.980 . S
H525 C498 0.983 . S
H526 C497 0.982 . S
H527 C497 0.979 . S
H528 C497 0.977 . S
H529 C499 0.948 . S
H530 C501 0.947 . S
H531 C502 0.948 . S
H532 C508 0.982 . S
H533 C508 0.979 . S
H534 C508 0.977 . S
H535 C509 0.979 . S
H536 C509 0.980 . S
H537 C509 0.983 . S
H538 C482 0.947 . S
C539 C482 1.392 . S
C539 C483 1.419 . S
C539 H521 0.948 . S
C540 C541 1.391 . S
C540 C544 1.391 . S
C540 H582 0.948 . S
C541 C540 1.391 . S
C541 C542 1.391 . S
C542 C541 1.391 . S
C542 H598 0.947 . S
C542 C599 1.392 . S
C543 C544 1.391 . S
C543 C547 1.397 . S
C543 C599 1.419 . S
C544 C540 1.391 . S
C544 C543 1.391 . S
C544 C545 1.399 . S
C545 C544 1.399 . S
C545 C548 1.396 . S
C545 C557 1.453 . S
C545 C558 1.684 . S
H546 C570 0.948 1_545 S
C547 C543 1.397 . S
C547 C548 1.394 . S
C547 C566 1.723 . S
C548 C545 1.396 . S
C548 C547 1.394 . S
C548 C578 1.723 . S
H549 C572 0.947 . S
H550 C573 0.948 . S
H551 C579 0.982 . S
H552 C580 0.979 . S
H553 C580 0.980 . S
H554 C580 0.983 . S
H555 C579 0.979 1_545 S
H556 C579 0.977 1_545 S
C557 C545 1.453 . S
C557 H586 0.982 . S
C557 H587 0.979 . S
C557 H588 0.977 . S
C558 C545 1.684 . S
C558 H583 0.979 . S
C558 H584 0.980 . S
C558 H585 0.983 . S
C559 C560 1.391 . S
C559 C564 1.391 1_545 S
C559 H589 0.948 . S
C560 C559 1.391 . S
C560 C561 1.391 . S
C561 C560 1.391 . S
C561 C562 1.392 . S
C561 H590 0.947 . S
C562 C561 1.392 . S
C562 C563 1.419 1_545 S
C562 H591 0.948 . S
C563 C562 1.419 1_565 S
C563 C564 1.391 . S
C563 C567 1.397 . S
C564 C559 1.391 1_565 S
C564 C563 1.391 . S
C564 C565 1.399 . S
C565 C564 1.399 . S
C565 C566 1.396 . S
C565 C568 1.453 . S
C565 C569 1.684 . S
C566 C547 1.723 . S
C566 C565 1.396 . S
C566 C567 1.394 . S
C567 C563 1.397 . S
C567 C566 1.394 . S
C567 C577 1.723 . S
C568 C565 1.453 . S
C568 H592 0.982 . S
C568 H593 0.979 . S
C568 H594 0.977 . S
C569 C565 1.684 . S
C569 H595 0.979 . S
C569 H596 0.980 . S
C569 H597 0.983 . S
C570 H546 0.948 1_565 S
C570 C571 1.391 . S
C570 C575 1.391 . S
C571 C570 1.391 . S
C571 C572 1.391 . S
C572 H549 0.947 . S
C572 C571 1.391 . S
C572 C573 1.392 . S
C573 H550 0.948 . S
C573 C572 1.392 . S
C573 C574 1.419 . S
C574 C573 1.419 . S
C574 C575 1.391 . S
C574 C578 1.397 . S
C575 C570 1.391 . S
C575 C574 1.391 . S
C575 C576 1.399 . S
C576 C575 1.399 . S
C576 C577 1.396 . S
C576 C579 1.453 . S
C576 C580 1.684 1_565 S
C577 C567 1.723 . S
C577 C576 1.396 . S
C577 C578 1.394 . S
C578 C548 1.723 . S
C578 C574 1.397 . S
C578 C577 1.394 . S
C579 H551 0.982 . S
C579 H555 0.979 1_565 S
C579 H556 0.977 1_565 S
C579 C576 1.453 . S
C580 H552 0.979 . S
C580 H553 0.980 . S
C580 H554 0.983 . S
C580 C576 1.684 1_545 S
H581 C599 0.948 . S
H582 C540 0.948 . S
H583 C558 0.979 . S
H584 C558 0.980 . S
H585 C558 0.983 . S
H586 C557 0.982 . S
H587 C557 0.979 . S
H588 C557 0.977 . S
H589 C559 0.948 . S
H590 C561 0.947 . S
H591 C562 0.948 . S
H592 C568 0.982 . S
H593 C568 0.979 . S
H594 C568 0.977 . S
H595 C569 0.979 . S
H596 C569 0.980 . S
H597 C569 0.983 . S
H598 C542 0.947 . S
C599 C542 1.392 . S
C599 C543 1.419 . S
C599 H581 0.948 . S
C600 C601 1.391 . S
C600 C604 1.391 . S
C600 H642 0.948 . S
C601 C600 1.391 . S
C601 C602 1.391 . S
C602 C601 1.391 . S
C602 H658 0.947 . S
C602 C659 1.392 . S
C603 C604 1.391 . S
C603 C607 1.397 . S
C603 C659 1.419 . S
C604 C600 1.391 . S
C604 C603 1.391 . S
C604 C605 1.399 . S
C605 C604 1.399 . S
C605 C608 1.396 . S
C605 C617 1.453 . S
C605 C618 1.684 . S
H606 C630 0.948 . S
C607 C603 1.397 . S
C607 C608 1.394 . S
C607 C626 1.723 . S
C608 C605 1.396 . S
C608 C607 1.394 . S
C608 C638 1.723 . S
H609 C632 0.947 . S
H610 C633 0.948 . S
H611 C639 0.982 . S
H612 C640 0.979 . S
H613 C640 0.980 . S
H614 C640 0.983 . S
H615 C639 0.979 . S
H616 C639 0.977 . S
C617 C605 1.453 . S
C617 H646 0.982 . S
C617 H647 0.979 . S
C617 H648 0.977 . S
C618 C605 1.684 . S
C618 H643 0.979 . S
C618 H644 0.980 . S
C618 H645 0.983 . S
C619 C620 1.391 . S
C619 C624 1.391 . S
C619 H649 0.948 . S
C620 C619 1.391 . S
C620 C621 1.391 . S
C621 C620 1.391 . S
C621 C622 1.392 . S
C621 H650 0.947 . S
C622 C621 1.392 . S
C622 C623 1.419 . S
C622 H651 0.948 . S
C623 C622 1.419 . S
C623 C624 1.391 . S
C623 C627 1.397 . S
C624 C619 1.391 . S
C624 C623 1.391 . S
C624 C625 1.399 . S
C625 C624 1.399 . S
C625 C626 1.396 . S
C625 C628 1.453 . S
C625 C629 1.684 . S
C626 C607 1.723 . S
C626 C625 1.396 . S
C626 C627 1.394 . S
C627 C623 1.397 . S
C627 C626 1.394 . S
C627 C637 1.723 . S
C628 C625 1.453 . S
C628 H652 0.982 . S
C628 H653 0.979 . S
C628 H654 0.977 . S
C629 C625 1.684 . S
C629 H655 0.979 . S
C629 H656 0.980 . S
C629 H657 0.983 . S
C630 H606 0.948 . S
C630 C631 1.391 . S
C630 C635 1.391 . S
C631 C630 1.391 . S
C631 C632 1.391 . S
C632 H609 0.947 . S
C632 C631 1.391 . S
C632 C633 1.392 . S
C633 H610 0.948 . S
C633 C632 1.392 . S
C633 C634 1.419 . S
C634 C633 1.419 . S
C634 C635 1.391 . S
C634 C638 1.397 . S
C635 C630 1.391 . S
C635 C634 1.391 . S
C635 C636 1.399 . S
C636 C635 1.399 . S
C636 C637 1.396 . S
C636 C639 1.453 . S
C636 C640 1.684 . S
C637 C627 1.723 . S
C637 C636 1.396 . S
C637 C638 1.394 . S
C638 C608 1.723 . S
C638 C634 1.397 . S
C638 C637 1.394 . S
C639 H611 0.982 . S
C639 H615 0.979 . S
C639 H616 0.977 . S
C639 C636 1.453 . S
C640 H612 0.979 . S
C640 H613 0.980 . S
C640 H614 0.983 . S
C640 C636 1.684 . S
H641 C659 0.948 . S
H642 C600 0.948 . S
H643 C618 0.979 . S
H644 C618 0.980 . S
H645 C618 0.983 . S
H646 C617 0.982 . S
H647 C617 0.979 . S
H648 C617 0.977 . S
H649 C619 0.948 . S
H650 C621 0.947 . S
H651 C622 0.948 . S
H652 C628 0.982 . S
H653 C628 0.979 . S
H654 C628 0.977 . S
H655 C629 0.979 . S
H656 C629 0.980 . S
H657 C629 0.983 . S
H658 C602 0.947 . S
C659 C602 1.392 . S
C659 C603 1.419 . S
C659 H641 0.948 . S
C660 C661 1.391 . S
C660 C664 1.391 . S
C660 H702 0.948 . S
C661 C660 1.391 . S
C661 C662 1.391 . S
C662 C661 1.391 . S
C662 H718 0.947 . S
C662 C719 1.392 . S
C663 C664 1.391 . S
C663 C667 1.397 . S
C663 C719 1.419 . S
C664 C660 1.391 . S
C664 C663 1.391 . S
C664 C665 1.399 . S
C665 C664 1.399 . S
C665 C668 1.396 . S
C665 C677 1.453 . S
C665 C678 1.684 . S
H666 C690 0.948 . S
C667 C663 1.397 . S
C667 C668 1.394 . S
C667 C686 1.723 . S
C668 C665 1.396 . S
C668 C667 1.394 . S
C668 C698 1.723 . S
H669 C692 0.947 . S
H670 C693 0.948 . S
H671 C699 0.982 . S
H672 C700 0.979 . S
H673 C700 0.980 . S
H674 C700 0.983 . S
H675 C699 0.979 . S
H676 C699 0.977 . S
C677 C665 1.453 . S
C677 H706 0.982 . S
C677 H707 0.979 . S
C677 H708 0.977 . S
C678 C665 1.684 . S
C678 H703 0.979 . S
C678 H704 0.980 . S
C678 H705 0.983 . S
C679 C680 1.391 . S
C679 C684 1.391 . S
C679 H709 0.948 . S
C680 C679 1.391 . S
C680 C681 1.391 . S
C681 C680 1.391 . S
C681 C682 1.392 . S
C681 H710 0.947 . S
C682 C681 1.392 . S
C682 C683 1.419 . S
C682 H711 0.948 . S
C683 C682 1.419 . S
C683 C684 1.391 . S
C683 C687 1.397 . S
C684 C679 1.391 . S
C684 C683 1.391 . S
C684 C685 1.399 . S
C685 C684 1.399 . S
C685 C686 1.396 . S
C685 C688 1.453 . S
C685 C689 1.684 . S
C686 C667 1.723 . S
C686 C685 1.396 . S
C686 C687 1.394 . S
C687 C683 1.397 . S
C687 C686 1.394 . S
C687 C697 1.723 . S
C688 C685 1.453 . S
C688 H712 0.982 . S
C688 H713 0.979 . S
C688 H714 0.977 . S
C689 C685 1.684 . S
C689 H715 0.979 . S
C689 H716 0.980 . S
C689 H717 0.983 . S
C690 H666 0.948 . S
C690 C691 1.391 . S
C690 C695 1.391 . S
C691 C690 1.391 . S
C691 C692 1.391 . S
C692 H669 0.947 . S
C692 C691 1.391 . S
C692 C693 1.392 . S
C693 H670 0.948 . S
C693 C692 1.392 . S
C693 C694 1.419 . S
C694 C693 1.419 . S
C694 C695 1.391 . S
C694 C698 1.397 . S
C695 C690 1.391 . S
C695 C694 1.391 . S
C695 C696 1.399 . S
C696 C695 1.399 . S
C696 C697 1.396 . S
C696 C699 1.453 . S
C696 C700 1.684 . S
C697 C687 1.723 . S
C697 C696 1.396 . S
C697 C698 1.394 . S
C698 C668 1.723 . S
C698 C694 1.397 . S
C698 C697 1.394 . S
C699 H671 0.982 . S
C699 H675 0.979 . S
C699 H676 0.977 . S
C699 C696 1.453 . S
C700 H672 0.979 . S
C700 H673 0.980 . S
C700 H674 0.983 . S
C700 C696 1.684 . S
H701 C719 0.948 . S
H702 C660 0.948 . S
H703 C678 0.979 . S
H704 C678 0.980 . S
H705 C678 0.983 . S
H706 C677 0.982 . S
H707 C677 0.979 . S
H708 C677 0.977 . S
H709 C679 0.948 . S
H710 C681 0.947 . S
H711 C682 0.948 . S
H712 C688 0.982 . S
H713 C688 0.979 . S
H714 C688 0.977 . S
H715 C689 0.979 . S
H716 C689 0.980 . S
H717 C689 0.983 . S
H718 C662 0.947 . S
C719 C662 1.392 . S
C719 C663 1.419 . S
C719 H701 0.948 . S
C720 C721 1.391 . S
C720 C724 1.391 . S
C720 H762 0.948 . S
C721 C720 1.391 . S
C721 C722 1.391 . S
C722 C721 1.391 . S
C722 H778 0.947 . S
C722 C779 1.392 . S
C723 C724 1.391 . S
C723 C727 1.397 . S
C723 C779 1.419 . S
C724 C720 1.391 . S
C724 C723 1.391 . S
C724 C725 1.399 . S
C725 C724 1.399 . S
C725 C728 1.396 . S
C725 C737 1.453 . S
C725 C738 1.684 . S
H726 C750 0.948 . S
C727 C723 1.397 . S
C727 C728 1.394 . S
C727 C746 1.723 . S
C728 C725 1.396 . S
C728 C727 1.394 . S
C728 C758 1.723 . S
H729 C752 0.947 . S
H730 C753 0.948 . S
H731 C759 0.982 . S
H732 C760 0.979 . S
H733 C760 0.980 . S
H734 C760 0.983 . S
H735 C759 0.979 . S
H736 C759 0.977 . S
C737 C725 1.453 . S
C737 H766 0.982 . S
C737 H767 0.979 . S
C737 H768 0.977 . S
C738 C725 1.684 . S
C738 H763 0.979 . S
C738 H764 0.980 . S
C738 H765 0.983 . S
C739 C740 1.391 . S
C739 C744 1.391 . S
C739 H769 0.948 . S
C740 C739 1.391 . S
C740 C741 1.391 . S
C741 C740 1.391 . S
C741 C742 1.392 . S
C741 H770 0.947 . S
C742 C741 1.392 . S
C742 C743 1.419 . S
C742 H771 0.948 . S
C743 C742 1.419 . S
C743 C744 1.391 . S
C743 C747 1.397 . S
C744 C739 1.391 . S
C744 C743 1.391 . S
C744 C745 1.399 . S
C745 C744 1.399 . S
C745 C746 1.396 . S
C745 C748 1.453 . S
C745 C749 1.684 . S
C746 C727 1.723 . S
C746 C745 1.396 . S
C746 C747 1.394 . S
C747 C743 1.397 . S
C747 C746 1.394 . S
C747 C757 1.723 . S
C748 C745 1.453 . S
C748 H772 0.982 . S
C748 H773 0.979 . S
C748 H774 0.977 . S
C749 C745 1.684 . S
C749 H775 0.979 . S
C749 H776 0.980 . S
C749 H777 0.983 . S
C750 H726 0.948 . S
C750 C751 1.391 . S
C750 C755 1.391 . S
C751 C750 1.391 . S
C751 C752 1.391 . S
C752 H729 0.947 . S
C752 C751 1.391 . S
C752 C753 1.392 . S
C753 H730 0.948 . S
C753 C752 1.392 . S
C753 C754 1.419 . S
C754 C753 1.419 . S
C754 C755 1.391 . S
C754 C758 1.397 . S
C755 C750 1.391 . S
C755 C754 1.391 . S
C755 C756 1.399 . S
C756 C755 1.399 . S
C756 C757 1.396 . S
C756 C759 1.453 . S
C756 C760 1.684 . S
C757 C747 1.723 . S
C757 C756 1.396 . S
C757 C758 1.394 . S
C758 C728 1.723 . S
C758 C754 1.397 . S
C758 C757 1.394 . S
C759 H731 0.982 . S
C759 H735 0.979 . S
C759 H736 0.977 . S
C759 C756 1.453 . S
C760 H732 0.979 . S
C760 H733 0.980 . S
C760 H734 0.983 . S
C760 C756 1.684 . S
H761 C779 0.948 . S
H762 C720 0.948 . S
H763 C738 0.979 . S
H764 C738 0.980 . S
H765 C738 0.983 . S
H766 C737 0.982 . S
H767 C737 0.979 . S
H768 C737 0.977 . S
H769 C739 0.948 . S
H770 C741 0.947 . S
H771 C742 0.948 . S
H772 C748 0.982 . S
H773 C748 0.979 . S
H774 C748 0.977 . S
H775 C749 0.979 . S
H776 C749 0.980 . S
H777 C749 0.983 . S
H778 C722 0.947 . S
C779 C722 1.392 . S
C779 C723 1.419 . S
C779 H761 0.948 . S
C780 C781 1.391 . S
C780 C784 1.391 1_554 S
C780 H822 0.948 . S
C781 C780 1.391 . S
C781 C782 1.391 1_554 S
C782 C781 1.391 1_556 S
C782 H838 0.947 . S
C782 C839 1.392 . S
C783 C784 1.391 . S
C783 C787 1.397 . S
C783 C839 1.419 . S
C784 C780 1.391 1_556 S
C784 C783 1.391 . S
C784 C785 1.399 . S
C785 C784 1.399 . S
C785 C788 1.396 . S
C785 C797 1.453 1_556 S
C785 C798 1.684 . S
H786 C810 0.948 . S
C787 C783 1.397 . S
C787 C788 1.394 . S
C787 C806 1.723 . S
C788 C785 1.396 . S
C788 C787 1.394 . S
C788 C818 1.723 . S
H789 C812 0.947 . S
H790 C813 0.948 . S
H791 C819 0.982 . S
H792 C820 0.979 . S
H793 C820 0.980 . S
H794 C820 0.983 . S
H795 C819 0.979 . S
H796 C819 0.977 . S
C797 C785 1.453 1_554 S
C797 H826 0.982 . S
C797 H827 0.979 . S
C797 H828 0.977 . S
C798 C785 1.684 . S
C798 H823 0.979 . S
C798 H824 0.980 . S
C798 H825 0.983 1_556 S
C799 C800 1.391 . S
C799 C804 1.391 . S
C799 H829 0.948 . S
C800 C799 1.391 . S
C800 C801 1.391 . S
C801 C800 1.391 . S
C801 C802 1.392 . S
C801 H830 0.947 . S
C802 C801 1.392 . S
C802 C803 1.419 . S
C802 H831 0.948 . S
C803 C802 1.419 . S
C803 C804 1.391 . S
C803 C807 1.397 . S
C804 C799 1.391 . S
C804 C803 1.391 . S
C804 C805 1.399 . S
C805 C804 1.399 . S
C805 C806 1.396 . S
C805 C808 1.453 . S
C805 C809 1.684 . S
C806 C787 1.723 . S
C806 C805 1.396 . S
C806 C807 1.394 . S
C807 C803 1.397 . S
C807 C806 1.394 . S
C807 C817 1.723 . S
C808 C805 1.453 . S
C808 H832 0.982 . S
C808 H833 0.979 . S
C808 H834 0.977 . S
C809 C805 1.684 . S
C809 H835 0.979 . S
C809 H836 0.980 . S
C809 H837 0.983 . S
C810 H786 0.948 . S
C810 C811 1.391 . S
C810 C815 1.391 . S
C811 C810 1.391 . S
C811 C812 1.391 . S
C812 H789 0.947 . S
C812 C811 1.391 . S
C812 C813 1.392 . S
C813 H790 0.948 . S
C813 C812 1.392 . S
C813 C814 1.419 . S
C814 C813 1.419 . S
C814 C815 1.391 . S
C814 C818 1.397 . S
C815 C810 1.391 . S
C815 C814 1.391 . S
C815 C816 1.399 . S
C816 C815 1.399 . S
C816 C817 1.396 . S
C816 C819 1.453 . S
C816 C820 1.684 . S
C817 C807 1.723 . S
C817 C816 1.396 . S
C817 C818 1.394 . S
C818 C788 1.723 . S
C818 C814 1.397 . S
C818 C817 1.394 . S
C819 H791 0.982 . S
C819 H795 0.979 . S
C819 H796 0.977 . S
C819 C816 1.453 . S
C820 H792 0.979 . S
C820 H793 0.980 . S
C820 H794 0.983 . S
C820 C816 1.684 . S
H821 C839 0.948 . S
H822 C780 0.948 . S
H823 C798 0.979 . S
H824 C798 0.980 . S
H825 C798 0.983 1_554 S
H826 C797 0.982 . S
H827 C797 0.979 . S
H828 C797 0.977 . S
H829 C799 0.948 . S
H830 C801 0.947 . S
H831 C802 0.948 . S
H832 C808 0.982 . S
H833 C808 0.979 . S
H834 C808 0.977 . S
H835 C809 0.979 . S
H836 C809 0.980 . S
H837 C809 0.983 . S
H838 C782 0.947 . S
C839 C782 1.392 . S
C839 C783 1.419 . S
C839 H821 0.948 . S
C840 C841 1.391 . S
C840 C844 1.391 . S
C840 H882 0.948 . S
C841 C840 1.391 . S
C841 C842 1.391 . S
C842 C841 1.391 . S
C842 H898 0.947 . S
C842 C899 1.392 . S
C843 C844 1.391 . S
C843 C847 1.397 . S
C843 C899 1.419 . S
C844 C840 1.391 . S
C844 C843 1.391 . S
C844 C845 1.399 . S
C845 C844 1.399 . S
C845 C848 1.396 . S
C845 C857 1.453 . S
C845 C858 1.684 . S
H846 C870 0.948 . S
C847 C843 1.397 . S
C847 C848 1.394 . S
C847 C866 1.723 . S
C848 C845 1.396 . S
C848 C847 1.394 . S
C848 C878 1.723 . S
H849 C872 0.947 . S
H850 C873 0.948 . S
H851 C879 0.982 . S
H852 C880 0.979 . S
H853 C880 0.980 . S
H854 C880 0.983 . S
H855 C879 0.979 . S
H856 C879 0.977 . S
C857 C845 1.453 . S
C857 H886 0.982 . S
C857 H887 0.979 . S
C857 H888 0.977 . S
C858 C845 1.684 . S
C858 H883 0.979 . S
C858 H884 0.980 . S
C858 H885 0.983 . S
C859 C860 1.391 . S
C859 C864 1.391 . S
C859 H889 0.948 . S
C860 C859 1.391 . S
C860 C861 1.391 . S
C861 C860 1.391 . S
C861 C862 1.392 . S
C861 H890 0.947 . S
C862 C861 1.392 . S
C862 C863 1.419 . S
C862 H891 0.948 . S
C863 C862 1.419 . S
C863 C864 1.391 . S
C863 C867 1.397 . S
C864 C859 1.391 . S
C864 C863 1.391 . S
C864 C865 1.399 . S
C865 C864 1.399 . S
C865 C866 1.396 . S
C865 C868 1.453 . S
C865 C869 1.684 . S
C866 C847 1.723 . S
C866 C865 1.396 . S
C866 C867 1.394 . S
C867 C863 1.397 . S
C867 C866 1.394 . S
C867 C877 1.723 . S
C868 C865 1.453 . S
C868 H892 0.982 . S
C868 H893 0.979 . S
C868 H894 0.977 . S
C869 C865 1.684 . S
C869 H895 0.979 . S
C869 H896 0.980 . S
C869 H897 0.983 . S
C870 H846 0.948 . S
C870 C871 1.391 . S
C870 C875 1.391 . S
C871 C870 1.391 . S
C871 C872 1.391 . S
C872 H849 0.947 . S
C872 C871 1.391 . S
C872 C873 1.392 . S
C873 H850 0.948 . S
C873 C872 1.392 . S
C873 C874 1.419 . S
C874 C873 1.419 . S
C874 C875 1.391 . S
C874 C878 1.397 . S
C875 C870 1.391 . S
C875 C874 1.391 . S
C875 C876 1.399 . S
C876 C875 1.399 . S
C876 C877 1.396 . S
C876 C879 1.453 . S
C876 C880 1.684 . S
C877 C867 1.723 . S
C877 C876 1.396 . S
C877 C878 1.394 . S
C878 C848 1.723 . S
C878 C874 1.397 . S
C878 C877 1.394 . S
C879 H851 0.982 . S
C879 H855 0.979 . S
C879 H856 0.977 . S
C879 C876 1.453 . S
C880 H852 0.979 . S
C880 H853 0.980 . S
C880 H854 0.983 . S
C880 C876 1.684 . S
H881 C899 0.948 . S
H882 C840 0.948 . S
H883 C858 0.979 . S
H884 C858 0.980 . S
H885 C858 0.983 . S
H886 C857 0.982 . S
H887 C857 0.979 . S
H888 C857 0.977 . S
H889 C859 0.948 . S
H890 C861 0.947 . S
H891 C862 0.948 . S
H892 C868 0.982 . S
H893 C868 0.979 . S
H894 C868 0.977 . S
H895 C869 0.979 . S
H896 C869 0.980 . S
H897 C869 0.983 . S
H898 C842 0.947 . S
C899 C842 1.392 . S
C899 C843 1.419 . S
C899 H881 0.948 . S
C900 C901 1.391 1_545 S
C900 C904 1.391 . S
C900 H942 0.948 1_556 S
C901 C900 1.391 1_565 S
C901 C902 1.391 . S
C902 C901 1.391 . S
C902 H958 0.947 . S
C902 C959 1.392 . S
C903 C904 1.391 . S
C903 C907 1.397 . S
C903 C959 1.419 1_545 S
C904 C900 1.391 . S
C904 C903 1.391 . S
C904 C905 1.399 . S
C905 C904 1.399 . S
C905 C908 1.396 . S
C905 C917 1.453 . S
C905 C918 1.684 1_556 S
H906 C930 0.957 . S
C907 C903 1.397 . S
C907 C908 1.394 . S
C907 C926 1.723 . S
C908 C905 1.396 . S
C908 C907 1.394 . S
C908 C938 1.723 . S
H909 C932 0.947 . S
H910 C933 0.948 . S
H911 C939 0.982 . S
H912 C940 0.979 . S
H913 C940 0.980 . S
H914 C940 0.983 . S
H915 C939 0.979 . S
H916 C939 0.977 . S
C917 C905 1.453 . S
C917 H946 0.982 . S
C917 H947 0.979 1_556 S
C917 H948 0.977 1_556 S
C918 C905 1.684 1_554 S
C918 H943 0.979 . S
C918 H944 0.980 . S
C918 H945 0.983 . S
C919 C920 1.391 . S
C919 C924 1.391 . S
C919 H949 0.948 . S
C920 C919 1.391 . S
C920 C921 1.391 . S
C921 C920 1.391 . S
C921 C922 1.392 . S
C921 H950 0.947 . S
C922 C921 1.392 . S
C922 C923 1.419 . S
C922 H951 0.948 . S
C923 C922 1.419 . S
C923 C924 1.391 . S
C923 C927 1.397 . S
C924 C919 1.391 . S
C924 C923 1.391 . S
C924 C925 1.399 . S
C925 C924 1.399 . S
C925 C926 1.396 . S
C925 C928 1.453 . S
C925 C929 1.684 1_545 S
C926 C907 1.723 . S
C926 C925 1.396 . S
C926 C927 1.394 . S
C927 C923 1.397 . S
C927 C926 1.394 . S
C927 C937 1.723 . S
C928 C925 1.453 . S
C928 H952 0.982 . S
C928 H953 0.979 . S
C928 H954 0.977 . S
C929 C925 1.684 1_565 S
C929 H955 0.979 . S
C929 H956 0.980 . S
C929 H957 0.983 . S
C930 H906 0.957 . S
C930 C931 1.391 . S
C930 C935 1.391 1_554 S
C931 C930 1.391 . S
C931 C932 1.391 . S
C932 H909 0.947 . S
C932 C931 1.391 . S
C932 C933 1.392 . S
C933 H910 0.948 . S
C933 C932 1.392 . S
C933 C934 1.419 1_554 S
C934 C933 1.419 1_556 S
C934 C935 1.391 . S
C934 C938 1.397 . S
C935 C930 1.391 1_556 S
C935 C934 1.391 . S
C935 C936 1.399 . S
C936 C935 1.399 . S
C936 C937 1.396 . S
C936 C939 1.453 . S
C936 C940 1.684 . S
C937 C927 1.723 . S
C937 C936 1.396 . S
C937 C938 1.394 . S
C938 C908 1.723 . S
C938 C934 1.397 . S
C938 C937 1.394 . S
C939 H911 0.982 . S
C939 H915 0.979 . S
C939 H916 0.977 . S
C939 C936 1.453 . S
C940 H912 0.979 . S
C940 H913 0.980 . S
C940 H914 0.983 . S
C940 C936 1.684 . S
H941 C959 0.948 . S
H942 C900 0.948 1_554 S
H943 C918 0.979 . S
H944 C918 0.980 . S
H945 C918 0.983 . S
H946 C917 0.982 . S
H947 C917 0.979 1_554 S
H948 C917 0.977 1_554 S
H949 C919 0.948 . S
H950 C921 0.947 . S
H951 C922 0.948 . S
H952 C928 0.982 . S
H953 C928 0.979 . S
H954 C928 0.977 . S
H955 C929 0.979 . S
H956 C929 0.980 . S
H957 C929 0.983 . S
H958 C902 0.947 . S
C959 C902 1.392 . S
C959 C903 1.419 1_565 S
C959 H941 0.948 . S
C960 O961 1.160 1_554 S
C960 O967 1.185 . S
O961 C960 1.160 1_556 S
O962 Zn963 1.899 1_556 S
O962 C970 1.284 . S
Zn963 O962 1.899 1_554 S
Zn963 O964 2.032 . S
Zn963 O967 2.086 . S
Zn963 O972 1.977 . S
O964 Zn963 2.032 . S
O964 C968 1.278 . S
C965 O966 1.203 . S
C965 O972 1.267 . S
O966 C965 1.203 . S
O967 C960 1.185 . S
O967 Zn963 2.086 . S
C968 O964 1.278 . S
C968 O969 1.211 . S
O969 C968 1.211 . S
C970 O962 1.284 . S
C970 O971 1.273 . S
O971 C970 1.273 . S
O972 Zn963 1.977 . S
O972 C965 1.267 . S
C973 O974 1.160 . S
C973 O980 1.185 . S
O974 C973 1.160 . S
O975 Zn976 1.899 . S
O975 C983 1.284 . S
Zn976 O975 1.899 . S
Zn976 O977 2.032 . S
Zn976 O980 2.086 . S
Zn976 O985 1.977 . S
O977 Zn976 2.032 . S
O977 C981 1.278 . S
C978 O979 1.203 . S
C978 O985 1.267 . S
O979 C978 1.203 . S
O980 C973 1.185 . S
O980 Zn976 2.086 . S
C981 O977 1.278 . S
C981 O982 1.211 . S
O982 C981 1.211 . S
C983 O975 1.284 . S
C983 O984 1.273 . S
O984 C983 1.273 . S
O985 Zn976 1.977 . S
O985 C978 1.267 . S
C986 O987 1.160 1_554 S
C986 O993 1.185 . S
O987 C986 1.160 1_556 S
O988 Zn989 1.899 1_556 S
O988 C996 1.284 . S
Zn989 O988 1.899 1_554 S
Zn989 O990 2.032 1_554 S
Zn989 O993 2.086 . S
Zn989 O998 1.977 . S
O990 Zn989 2.032 1_556 S
O990 C994 1.278 . S
C991 O992 1.203 . S
C991 O998 1.267 . S
O992 C991 1.203 . S
O993 C986 1.185 . S
O993 Zn989 2.086 . S
C994 O990 1.278 . S
C994 O995 1.211 1_556 S
O995 C994 1.211 1_554 S
C996 O988 1.284 . S
C996 O997 1.273 . S
O997 C996 1.273 . S
O998 Zn989 1.977 . S
O998 C991 1.267 . S
C999 O1000 1.160 . S
C999 O1006 1.185 . S
O1000 C999 1.160 . S
O1001 Zn1002 1.899 . S
O1001 C1009 1.284 . S
Zn1002 O1001 1.899 . S
Zn1002 O1003 2.005 1_545 S
Zn1002 O1006 2.086 . S
Zn1002 O1011 1.977 . S
O1003 Zn1002 2.005 1_565 S
O1003 C1007 1.313 . S
C1004 O1005 1.203 . S
C1004 O1011 1.267 . S
O1005 C1004 1.203 . S
O1006 C999 1.185 . S
O1006 Zn1002 2.086 . S
C1007 O1003 1.313 . S
C1007 O1008 1.211 . S
O1008 C1007 1.211 . S
C1009 O1001 1.284 . S
C1009 O1010 1.273 1_545 S
O1010 C1009 1.273 1_565 S
O1011 Zn1002 1.977 . S
O1011 C1004 1.267 . S
C1012 O1013 1.160 . S
C1012 O1019 1.185 . S
O1013 C1012 1.160 . S
O1014 Zn1015 1.899 . S
O1014 C1022 1.284 . S
Zn1015 O1014 1.899 . S
Zn1015 O1016 2.032 . S
Zn1015 O1019 2.086 . S
Zn1015 O1024 1.977 . S
O1016 Zn1015 2.032 . S
O1016 C1020 1.278 . S
C1017 O1018 1.203 . S
C1017 O1024 1.267 . S
O1018 C1017 1.203 . S
O1019 C1012 1.185 . S
O1019 Zn1015 2.086 . S
C1020 O1016 1.278 . S
C1020 O1021 1.211 . S
O1021 C1020 1.211 . S
C1022 O1014 1.284 . S
C1022 O1023 1.273 . S
O1023 C1022 1.273 . S
O1024 Zn1015 1.977 . S
O1024 C1017 1.267 . S
C1025 O1026 1.160 . S
C1025 O1032 1.185 . S
O1026 C1025 1.160 . S
O1027 Zn1028 1.899 . S
O1027 C1035 1.284 . S
Zn1028 O1027 1.899 . S
Zn1028 O1029 2.032 . S
Zn1028 O1032 2.086 . S
Zn1028 O1037 1.977 . S
O1029 Zn1028 2.032 . S
O1029 C1033 1.278 . S
C1030 O1031 1.203 . S
C1030 O1037 1.267 . S
O1031 C1030 1.203 . S
O1032 C1025 1.185 . S
O1032 Zn1028 2.086 . S
C1033 O1029 1.278 . S
C1033 O1034 1.211 . S
O1034 C1033 1.211 . S
C1035 O1027 1.284 . S
C1035 O1036 1.273 . S
O1036 C1035 1.273 . S
O1037 Zn1028 1.977 . S
O1037 C1030 1.267 . S
C1038 O1039 1.160 . S
C1038 O1045 1.185 . S
O1039 C1038 1.160 . S
O1040 Zn1041 1.899 . S
O1040 C1048 1.284 . S
Zn1041 O1040 1.899 . S
Zn1041 O1042 2.032 . S
Zn1041 O1045 2.086 . S
Zn1041 O1050 1.977 . S
O1042 Zn1041 2.032 . S
O1042 C1046 1.278 . S
C1043 O1044 1.203 . S
C1043 O1050 1.267 . S
O1044 C1043 1.203 . S
O1045 C1038 1.185 . S
O1045 Zn1041 2.086 . S
C1046 O1042 1.278 . S
C1046 O1047 1.211 . S
O1047 C1046 1.211 . S
C1048 O1040 1.284 . S
C1048 O1049 1.273 . S
O1049 C1048 1.273 . S
O1050 Zn1041 1.977 . S
O1050 C1043 1.267 . S
C1051 O1052 1.160 . S
C1051 O1058 1.185 . S
O1052 C1051 1.160 . S
O1053 Zn1054 1.899 . S
O1053 C1061 1.284 1_565 S
Zn1054 O1053 1.899 . S
Zn1054 O1055 2.032 1_565 S
Zn1054 O1058 2.086 . S
Zn1054 O1063 1.977 . S
O1055 Zn1054 2.032 1_545 S
O1055 C1059 1.278 . S
C1056 O1057 1.203 1_565 S
C1056 O1063 1.267 . S
O1057 C1056 1.203 1_545 S
O1058 C1051 1.185 . S
O1058 Zn1054 2.086 . S
C1059 O1055 1.278 . S
C1059 O1060 1.211 . S
O1060 C1059 1.211 . S
C1061 O1053 1.284 1_545 S
C1061 O1062 1.273 . S
O1062 C1061 1.273 . S
O1063 Zn1054 1.977 . S
O1063 C1056 1.267 . S
C1064 O1065 1.160 1_455 S
C1064 O1071 1.185 . S
O1065 C1064 1.160 1_655 S
O1066 Zn1067 1.899 1_655 S
O1066 C1074 1.284 . S
Zn1067 O1066 1.899 1_455 S
Zn1067 O1068 2.032 1_455 S
Zn1067 O1071 2.086 . S
Zn1067 O1076 1.977 . S
O1068 Zn1067 2.032 1_655 S
O1068 C1072 1.276 1_655 S
C1069 O1070 1.203 . S
C1069 O1076 1.267 . S
O1070 C1069 1.203 . S
O1071 C1064 1.185 . S
O1071 Zn1067 2.086 . S
C1072 O1068 1.276 1_455 S
C1072 O1073 1.219 . S
O1073 C1072 1.219 . S
C1074 O1066 1.284 . S
C1074 O1075 1.273 . S
O1075 C1074 1.273 . S
O1076 Zn1067 1.977 . S
O1076 C1069 1.267 . S
C1077 O1078 1.160 . S
C1077 O1084 1.185 . S
O1078 C1077 1.160 . S
O1079 Zn1080 1.899 . S
O1079 C1087 1.284 . S
Zn1080 O1079 1.899 . S
Zn1080 O1081 2.032 . S
Zn1080 O1084 2.086 . S
Zn1080 O1089 1.977 . S
O1081 Zn1080 2.032 . S
O1081 C1085 1.278 . S
C1082 O1083 1.203 . S
C1082 O1089 1.267 . S
O1083 C1082 1.203 . S
O1084 C1077 1.185 . S
O1084 Zn1080 2.086 . S
C1085 O1081 1.278 . S
C1085 O1086 1.211 . S
O1086 C1085 1.211 . S
C1087 O1079 1.284 . S
C1087 O1088 1.273 . S
O1088 C1087 1.273 . S
O1089 Zn1080 1.977 . S
O1089 C1082 1.267 . S
C1090 O1091 1.160 1_455 S
C1090 O1097 1.185 . S
O1091 C1090 1.160 1_655 S
O1092 Zn1093 1.899 1_655 S
O1092 C1100 1.284 . S
Zn1093 O1092 1.899 1_455 S
Zn1093 O1094 2.032 1_455 S
Zn1093 O1097 2.086 . S
Zn1093 O1102 1.977 . S
O1094 Zn1093 2.032 1_655 S
O1094 C1098 1.279 . S
C1095 O1096 1.203 . S
C1095 O1102 1.267 . S
O1096 C1095 1.203 . S
O1097 C1090 1.185 . S
O1097 Zn1093 2.086 . S
C1098 O1094 1.279 . S
C1098 O1099 1.209 1_655 S
O1099 C1098 1.209 1_455 S
C1100 O1092 1.284 . S
C1100 O1101 1.273 . S
O1101 C1100 1.273 . S
O1102 Zn1093 1.977 . S
O1102 C1095 1.267 . S
C1103 O1104 1.160 . S
C1103 O1110 1.185 . S
O1104 C1103 1.160 . S
O1105 Zn1106 1.899 . S
O1105 C1113 1.284 . S
Zn1106 O1105 1.899 . S
Zn1106 O1107 2.032 . S
Zn1106 O1110 2.086 . S
Zn1106 O1115 1.977 . S
O1107 Zn1106 2.032 . S
O1107 C1111 1.278 . S
C1108 O1109 1.203 . S
C1108 O1115 1.267 . S
O1109 C1108 1.203 . S
O1110 C1103 1.185 . S
O1110 Zn1106 2.086 . S
C1111 O1107 1.278 . S
C1111 O1112 1.211 . S
O1112 C1111 1.211 . S
C1113 O1105 1.284 . S
C1113 O1114 1.273 . S
O1114 C1113 1.273 . S
O1115 Zn1106 1.977 . S
O1115 C1108 1.267 . S
H1116 C1124 0.950 . S
H1117 C1129 0.950 . S
H1118 C1126 0.950 . S
H1119 C1128 0.950 . S
H1120 C1130 0.950 . S
H1121 C1132 0.950 . S
H1122 C1134 0.950 . S
H1123 C1135 0.950 . S
C1124 H1116 0.950 . S
C1124 C1125 1.386 . S
C1124 C1126 1.391 . S
C1125 C1124 1.386 . S
C1125 C1129 1.393 . S
C1126 H1118 0.950 . S
C1126 C1124 1.391 . S
C1126 C1127 1.400 . S
C1127 C1126 1.400 . S
C1127 C1128 1.398 . S
C1127 C1133 1.491 . S
C1128 H1119 0.950 . S
C1128 C1127 1.398 . S
C1128 C1129 1.391 . S
C1129 H1117 0.950 . S
C1129 C1125 1.393 . S
C1129 C1128 1.391 . S
C1130 H1120 0.950 . S
C1130 C1131 1.386 . S
C1130 C1132 1.391 . S
C1131 C1130 1.386 . S
C1131 C1135 1.393 . S
C1132 H1121 0.950 . S
C1132 C1130 1.391 . S
C1132 C1133 1.400 . S
C1133 C1127 1.491 . S
C1133 C1132 1.400 . S
C1133 C1134 1.398 . S
C1134 H1122 0.950 . S
C1134 C1133 1.398 . S
C1134 C1135 1.391 . S
C1135 H1123 0.950 . S
C1135 C1131 1.393 . S
C1135 C1134 1.391 . S
H1136 C1144 0.950 . S
H1137 C1149 0.950 . S
H1138 C1146 0.950 . S
H1139 C1148 0.950 . S
H1140 C1150 0.950 . S
H1141 C1152 0.950 . S
H1142 C1154 0.950 . S
H1143 C1155 0.950 . S
C1144 H1136 0.950 . S
C1144 C1145 1.386 . S
C1144 C1146 1.391 . S
C1145 C1144 1.386 . S
C1145 C1149 1.393 . S
C1146 H1138 0.950 . S
C1146 C1144 1.391 . S
C1146 C1147 1.400 . S
C1147 C1146 1.400 . S
C1147 C1148 1.398 . S
C1147 C1153 1.491 . S
C1148 H1139 0.950 . S
C1148 C1147 1.398 . S
C1148 C1149 1.391 . S
C1149 H1137 0.950 . S
C1149 C1145 1.393 . S
C1149 C1148 1.391 . S
C1150 H1140 0.950 . S
C1150 C1151 1.386 . S
C1150 C1152 1.391 . S
C1151 C1150 1.386 . S
C1151 C1155 1.393 . S
C1152 H1141 0.950 . S
C1152 C1150 1.391 . S
C1152 C1153 1.400 . S
C1153 C1147 1.491 . S
C1153 C1152 1.400 . S
C1153 C1154 1.398 . S
C1154 H1142 0.950 . S
C1154 C1153 1.398 . S
C1154 C1155 1.391 . S
C1155 H1143 0.950 . S
C1155 C1151 1.393 . S
C1155 C1154 1.391 . S
H1156 C1164 0.950 . S
H1157 C1169 0.950 . S
H1158 C1166 0.950 . S
H1159 C1168 0.950 . S
H1160 C1170 0.950 . S
H1161 C1172 0.950 . S
H1162 C1174 0.950 . S
H1163 C1175 0.950 . S
C1164 H1156 0.950 . S
C1164 C1165 1.386 . S
C1164 C1166 1.391 . S
C1165 C1164 1.386 . S
C1165 C1169 1.393 . S
C1166 H1158 0.950 . S
C1166 C1164 1.391 . S
C1166 C1167 1.400 . S
C1167 C1166 1.400 . S
C1167 C1168 1.398 . S
C1167 C1173 1.491 . S
C1168 H1159 0.950 . S
C1168 C1167 1.398 . S
C1168 C1169 1.391 . S
C1169 H1157 0.950 . S
C1169 C1165 1.393 . S
C1169 C1168 1.391 . S
C1170 H1160 0.950 . S
C1170 C1171 1.386 . S
C1170 C1172 1.391 . S
C1171 C1170 1.386 . S
C1171 C1175 1.393 . S
C1172 H1161 0.950 . S
C1172 C1170 1.391 . S
C1172 C1173 1.400 . S
C1173 C1167 1.491 . S
C1173 C1172 1.400 . S
C1173 C1174 1.398 . S
C1174 H1162 0.950 . S
C1174 C1173 1.398 . S
C1174 C1175 1.391 . S
C1175 H1163 0.950 . S
C1175 C1171 1.393 . S
C1175 C1174 1.391 . S
H1176 C1184 0.950 . S
H1177 C1189 0.950 . S
H1178 C1186 0.950 . S
H1179 C1188 0.950 . S
H1180 C1190 0.950 . S
H1181 C1192 0.950 . S
H1182 C1194 0.954 . S
H1183 C1195 0.950 . S
C1184 H1176 0.950 . S
C1184 C1185 1.386 . S
C1184 C1186 1.391 . S
C1185 C1184 1.386 . S
C1185 C1189 1.393 . S
C1186 H1178 0.950 . S
C1186 C1184 1.391 . S
C1186 C1187 1.400 . S
C1187 C1186 1.400 . S
C1187 C1188 1.398 . S
C1187 C1193 1.491 . S
C1188 H1179 0.950 . S
C1188 C1187 1.398 . S
C1188 C1189 1.391 . S
C1189 H1177 0.950 . S
C1189 C1185 1.393 . S
C1189 C1188 1.391 . S
C1190 H1180 0.950 . S
C1190 C1191 1.386 . S
C1190 C1192 1.391 . S
C1191 C1190 1.386 . S
C1191 C1195 1.393 . S
C1192 H1181 0.950 . S
C1192 C1190 1.391 . S
C1192 C1193 1.400 1_545 S
C1193 C1187 1.491 . S
C1193 C1192 1.400 1_565 S
C1193 C1194 1.400 . S
C1194 H1182 0.954 . S
C1194 C1193 1.400 . S
C1194 C1195 1.386 1_565 S
C1195 H1183 0.950 . S
C1195 C1191 1.393 . S
C1195 C1194 1.386 1_545 S
H1196 C1204 0.950 . S
H1197 C1209 0.950 . S
H1198 C1206 0.950 . S
H1199 C1208 0.950 . S
H1200 C1210 0.950 . S
H1201 C1212 0.950 . S
H1202 C1214 0.950 . S
H1203 C1215 0.950 . S
C1204 H1196 0.950 . S
C1204 C1205 1.386 . S
C1204 C1206 1.391 . S
C1205 C1204 1.386 . S
C1205 C1209 1.393 . S
C1206 H1198 0.950 . S
C1206 C1204 1.391 . S
C1206 C1207 1.400 . S
C1207 C1206 1.400 . S
C1207 C1208 1.398 . S
C1207 C1213 1.491 . S
C1208 H1199 0.950 . S
C1208 C1207 1.398 . S
C1208 C1209 1.391 . S
C1209 H1197 0.950 . S
C1209 C1205 1.393 . S
C1209 C1208 1.391 . S
C1210 H1200 0.950 . S
C1210 C1211 1.386 . S
C1210 C1212 1.391 . S
C1211 C1210 1.386 . S
C1211 C1215 1.393 . S
C1212 H1201 0.950 . S
C1212 C1210 1.391 . S
C1212 C1213 1.400 . S
C1213 C1207 1.491 . S
C1213 C1212 1.400 . S
C1213 C1214 1.398 . S
C1214 H1202 0.950 . S
C1214 C1213 1.398 . S
C1214 C1215 1.391 . S
C1215 H1203 0.950 . S
C1215 C1211 1.393 . S
C1215 C1214 1.391 . S
H1216 C1224 0.950 . S
H1217 C1229 0.950 . S
H1218 C1226 0.950 . S
H1219 C1228 0.950 . S
H1220 C1230 0.950 . S
H1221 C1232 0.950 . S
H1222 C1234 0.950 . S
H1223 C1235 0.950 . S
C1224 H1216 0.950 . S
C1224 C1225 1.386 . S
C1224 C1226 1.391 . S
C1225 C1224 1.386 . S
C1225 C1229 1.393 . S
C1226 H1218 0.950 . S
C1226 C1224 1.391 . S
C1226 C1227 1.400 . S
C1227 C1226 1.400 . S
C1227 C1228 1.398 . S
C1227 C1233 1.491 . S
C1228 H1219 0.950 . S
C1228 C1227 1.398 . S
C1228 C1229 1.391 . S
C1229 H1217 0.950 . S
C1229 C1225 1.393 . S
C1229 C1228 1.391 . S
C1230 H1220 0.950 . S
C1230 C1231 1.386 . S
C1230 C1232 1.391 . S
C1231 C1230 1.386 . S
C1231 C1235 1.393 . S
C1232 H1221 0.950 . S
C1232 C1230 1.391 . S
C1232 C1233 1.400 . S
C1233 C1227 1.491 . S
C1233 C1232 1.400 . S
C1233 C1234 1.398 . S
C1234 H1222 0.950 . S
C1234 C1233 1.398 . S
C1234 C1235 1.391 . S
C1235 H1223 0.950 . S
C1235 C1231 1.393 . S
C1235 C1234 1.391 . S
H1236 C1244 0.950 . S
H1237 C1249 0.950 . S
H1238 C1246 0.950 . S
H1239 C1248 0.950 . S
H1240 C1250 0.950 . S
H1241 C1252 0.950 . S
H1242 C1254 0.950 . S
H1243 C1255 0.950 . S
C1244 H1236 0.950 . S
C1244 C1245 1.386 . S
C1244 C1246 1.391 . S
C1245 C1244 1.386 . S
C1245 C1249 1.393 . S
C1246 H1238 0.950 . S
C1246 C1244 1.391 . S
C1246 C1247 1.400 . S
C1247 C1246 1.400 . S
C1247 C1248 1.398 . S
C1247 C1253 1.491 . S
C1248 H1239 0.950 . S
C1248 C1247 1.398 . S
C1248 C1249 1.391 . S
C1249 H1237 0.950 . S
C1249 C1245 1.393 . S
C1249 C1248 1.391 . S
C1250 H1240 0.950 . S
C1250 C1251 1.386 . S
C1250 C1252 1.391 . S
C1251 C1250 1.386 . S
C1251 C1255 1.393 . S
C1252 H1241 0.950 . S
C1252 C1250 1.391 . S
C1252 C1253 1.400 . S
C1253 C1247 1.491 . S
C1253 C1252 1.400 . S
C1253 C1254 1.398 . S
C1254 H1242 0.950 . S
C1254 C1253 1.398 . S
C1254 C1255 1.391 . S
C1255 H1243 0.950 . S
C1255 C1251 1.393 . S
C1255 C1254 1.391 . S
H1256 C1264 0.950 . S
H1257 C1269 0.950 . S
H1258 C1266 0.950 . S
H1259 C1268 0.950 . S
H1260 C1270 0.950 1_545 S
H1261 C1272 0.950 . S
H1262 C1274 0.950 . S
H1263 C1275 0.950 . S
C1264 H1256 0.950 . S
C1264 C1265 1.386 . S
C1264 C1266 1.391 . S
C1265 C1264 1.386 . S
C1265 C1269 1.393 . S
C1266 H1258 0.950 . S
C1266 C1264 1.391 . S
C1266 C1267 1.400 . S
C1267 C1266 1.400 . S
C1267 C1268 1.398 . S
C1267 C1273 1.491 . S
C1268 H1259 0.950 . S
C1268 C1267 1.398 . S
C1268 C1269 1.391 . S
C1269 H1257 0.950 . S
C1269 C1265 1.393 . S
C1269 C1268 1.391 . S
C1270 H1260 0.950 1_565 S
C1270 C1271 1.386 . S
C1270 C1272 1.391 . S
C1271 C1270 1.386 . S
C1271 C1275 1.393 . S
C1272 H1261 0.950 . S
C1272 C1270 1.391 . S
C1272 C1273 1.400 . S
C1273 C1267 1.491 . S
C1273 C1272 1.400 . S
C1273 C1274 1.398 . S
C1274 H1262 0.950 . S
C1274 C1273 1.398 . S
C1274 C1275 1.391 . S
C1275 H1263 0.950 . S
C1275 C1271 1.393 . S
C1275 C1274 1.391 . S
H1276 C1284 0.950 . S
H1277 C1289 0.950 . S
H1278 C1286 0.950 . S
H1279 C1288 0.950 . S
H1280 C1290 0.950 . S
H1281 C1292 0.950 . S
H1282 C1294 0.950 . S
H1283 C1295 0.950 . S
C1284 H1276 0.950 . S
C1284 C1285 1.386 . S
C1284 C1286 1.391 . S
C1285 C1284 1.386 . S
C1285 C1289 1.393 . S
C1286 H1278 0.950 . S
C1286 C1284 1.391 . S
C1286 C1287 1.400 . S
C1287 C1286 1.400 . S
C1287 C1288 1.398 . S
C1287 C1293 1.491 . S
C1288 H1279 0.950 . S
C1288 C1287 1.398 . S
C1288 C1289 1.391 . S
C1289 H1277 0.950 . S
C1289 C1285 1.393 . S
C1289 C1288 1.391 . S
C1290 H1280 0.950 . S
C1290 C1291 1.386 . S
C1290 C1292 1.391 . S
C1291 C1290 1.386 . S
C1291 C1295 1.393 . S
C1292 H1281 0.950 . S
C1292 C1290 1.391 . S
C1292 C1293 1.400 . S
C1293 C1287 1.491 . S
C1293 C1292 1.400 . S
C1293 C1294 1.398 . S
C1294 H1282 0.950 . S
C1294 C1293 1.398 . S
C1294 C1295 1.391 . S
C1295 H1283 0.950 . S
C1295 C1291 1.393 . S
C1295 C1294 1.391 . S
H1296 C1304 0.950 . S
H1297 C1309 0.950 . S
H1298 C1306 0.950 . S
H1299 C1308 0.950 . S
H1300 C1310 0.950 . S
H1301 C1312 0.950 . S
H1302 C1314 0.950 . S
H1303 C1315 0.950 . S
C1304 H1296 0.950 . S
C1304 C1305 1.386 . S
C1304 C1306 1.391 . S
C1305 C1304 1.386 . S
C1305 C1309 1.393 . S
C1306 H1298 0.950 . S
C1306 C1304 1.391 . S
C1306 C1307 1.400 . S
C1307 C1306 1.400 . S
C1307 C1308 1.398 . S
C1307 C1313 1.491 . S
C1308 H1299 0.950 . S
C1308 C1307 1.398 . S
C1308 C1309 1.391 . S
C1309 H1297 0.950 . S
C1309 C1305 1.393 . S
C1309 C1308 1.391 . S
C1310 H1300 0.950 . S
C1310 C1311 1.386 . S
C1310 C1312 1.391 . S
C1311 C1310 1.386 . S
C1311 C1315 1.393 . S
C1312 H1301 0.950 . S
C1312 C1310 1.391 . S
C1312 C1313 1.400 . S
C1313 C1307 1.491 . S
C1313 C1312 1.400 . S
C1313 C1314 1.398 . S
C1314 H1302 0.950 . S
C1314 C1313 1.398 . S
C1314 C1315 1.391 . S
C1315 H1303 0.950 . S
C1315 C1311 1.393 . S
C1315 C1314 1.391 . S
H1316 C1324 0.950 . S
H1317 C1329 0.950 . S
H1318 C1326 0.950 . S
H1319 C1328 0.950 . S
H1320 C1330 0.950 . S
H1321 C1332 0.950 . S
H1322 C1334 0.950 . S
H1323 C1335 0.950 . S
C1324 H1316 0.950 . S
C1324 C1325 1.386 . S
C1324 C1326 1.391 . S
C1325 C1324 1.386 . S
C1325 C1329 1.393 . S
C1326 H1318 0.950 . S
C1326 C1324 1.391 . S
C1326 C1327 1.400 . S
C1327 C1326 1.400 . S
C1327 C1328 1.398 . S
C1327 C1333 1.491 . S
C1328 H1319 0.950 . S
C1328 C1327 1.398 . S
C1328 C1329 1.391 . S
C1329 H1317 0.950 . S
C1329 C1325 1.393 . S
C1329 C1328 1.391 . S
C1330 H1320 0.950 . S
C1330 C1331 1.386 . S
C1330 C1332 1.391 . S
C1331 C1330 1.386 . S
C1331 C1335 1.393 . S
C1332 H1321 0.950 . S
C1332 C1330 1.391 . S
C1332 C1333 1.400 . S
C1333 C1327 1.491 . S
C1333 C1332 1.400 . S
C1333 C1334 1.398 . S
C1334 H1322 0.950 . S
C1334 C1333 1.398 . S
C1334 C1335 1.391 . S
C1335 H1323 0.950 . S
C1335 C1331 1.393 . S
C1335 C1334 1.391 . S
H1336 C1344 0.950 . S
H1337 C1349 0.950 . S
H1338 C1346 0.950 . S
H1339 C1348 0.950 . S
H1340 C1350 0.950 . S
H1341 C1352 0.950 . S
H1342 C1354 0.950 . S
H1343 C1355 0.950 . S
C1344 H1336 0.950 . S
C1344 C1345 1.386 . S
C1344 C1346 1.391 . S
C1345 C1344 1.386 . S
C1345 C1349 1.393 . S
C1346 H1338 0.950 . S
C1346 C1344 1.391 . S
C1346 C1347 1.400 . S
C1347 C1346 1.400 . S
C1347 C1348 1.398 . S
C1347 C1353 1.491 . S
C1348 H1339 0.950 . S
C1348 C1347 1.398 . S
C1348 C1349 1.391 . S
C1349 H1337 0.950 . S
C1349 C1345 1.393 . S
C1349 C1348 1.391 . S
C1350 H1340 0.950 . S
C1350 C1351 1.386 . S
C1350 C1352 1.391 . S
C1351 C1350 1.386 . S
C1351 C1355 1.393 . S
C1352 H1341 0.950 . S
C1352 C1350 1.391 . S
C1352 C1353 1.400 . S
C1353 C1347 1.491 . S
C1353 C1352 1.400 . S
C1353 C1354 1.398 . S
C1354 H1342 0.950 . S
C1354 C1353 1.398 . S
C1354 C1355 1.391 . S
C1355 H1343 0.950 . S
C1355 C1351 1.393 . S
C1355 C1354 1.391 . S
H1356 C1364 0.950 . S
H1357 C1369 0.950 . S
H1358 C1366 0.950 . S
H1359 C1368 0.950 . S
H1360 C1370 0.950 . S
H1361 C1372 0.950 . S
H1362 C1374 0.950 . S
H1363 C1375 0.950 . S
C1364 H1356 0.950 . S
C1364 C1365 1.386 . S
C1364 C1366 1.391 . S
C1365 C1364 1.386 . S
C1365 C1369 1.393 . S
C1366 H1358 0.950 . S
C1366 C1364 1.391 . S
C1366 C1367 1.400 . S
C1367 C1366 1.400 . S
C1367 C1368 1.398 . S
C1367 C1373 1.491 . S
C1368 H1359 0.950 . S
C1368 C1367 1.398 . S
C1368 C1369 1.391 . S
C1369 H1357 0.950 . S
C1369 C1365 1.393 . S
C1369 C1368 1.391 . S
C1370 H1360 0.950 . S
C1370 C1371 1.386 . S
C1370 C1372 1.391 . S
C1371 C1370 1.386 . S
C1371 C1375 1.393 . S
C1372 H1361 0.950 . S
C1372 C1370 1.391 . S
C1372 C1373 1.400 . S
C1373 C1367 1.491 . S
C1373 C1372 1.400 . S
C1373 C1374 1.398 . S
C1374 H1362 0.950 . S
C1374 C1373 1.398 . S
C1374 C1375 1.391 . S
C1375 H1363 0.950 . S
C1375 C1371 1.393 . S
C1375 C1374 1.391 . S
H1376 C1384 0.950 . S
H1377 C1389 0.950 . S
H1378 C1386 0.950 . S
H1379 C1388 0.950 1_655 S
H1380 C1390 0.950 . S
H1381 C1392 0.950 1_655 S
H1382 C1394 0.950 . S
H1383 C1395 0.950 . S
C1384 H1376 0.950 . S
C1384 C1385 1.386 . S
C1384 C1386 1.391 . S
C1385 C1384 1.386 . S
C1385 C1389 1.393 . S
C1386 H1378 0.950 . S
C1386 C1384 1.391 . S
C1386 C1387 1.400 . S
C1387 C1386 1.400 . S
C1387 C1388 1.398 . S
C1387 C1393 1.491 . S
C1388 H1379 0.950 1_455 S
C1388 C1387 1.398 . S
C1388 C1389 1.391 . S
C1389 H1377 0.950 . S
C1389 C1385 1.393 . S
C1389 C1388 1.391 . S
C1390 H1380 0.950 . S
C1390 C1391 1.386 1_655 S
C1390 C1392 1.391 1_655 S
C1391 C1390 1.386 1_455 S
C1391 C1395 1.393 . S
C1392 H1381 0.950 1_455 S
C1392 C1390 1.391 1_455 S
C1392 C1393 1.400 . S
C1393 C1387 1.491 . S
C1393 C1392 1.400 . S
C1393 C1394 1.398 . S
C1394 H1382 0.950 . S
C1394 C1393 1.398 . S
C1394 C1395 1.391 . S
C1395 H1383 0.950 . S
C1395 C1391 1.393 . S
C1395 C1394 1.391 . S
H1396 C1404 0.950 . S
H1397 C1409 0.950 . S
H1398 C1406 0.950 . S
H1399 C1408 0.950 . S
H1400 C1410 0.950 . S
H1401 C1412 0.950 . S
H1402 C1414 0.950 . S
H1403 C1415 0.950 . S
C1404 H1396 0.950 . S
C1404 C1405 1.386 . S
C1404 C1406 1.391 . S
C1405 C1404 1.386 . S
C1405 C1409 1.393 . S
C1406 H1398 0.950 . S
C1406 C1404 1.391 . S
C1406 C1407 1.400 . S
C1407 C1406 1.400 . S
C1407 C1408 1.398 . S
C1407 C1413 1.491 . S
C1408 H1399 0.950 . S
C1408 C1407 1.398 . S
C1408 C1409 1.391 . S
C1409 H1397 0.950 . S
C1409 C1405 1.393 . S
C1409 C1408 1.391 . S
C1410 H1400 0.950 . S
C1410 C1411 1.386 . S
C1410 C1412 1.391 . S
C1411 C1410 1.386 . S
C1411 C1415 1.393 . S
C1412 H1401 0.950 . S
C1412 C1410 1.391 . S
C1412 C1413 1.400 . S
C1413 C1407 1.491 . S
C1413 C1412 1.400 . S
C1413 C1414 1.398 . S
C1414 H1402 0.950 . S
C1414 C1413 1.398 . S
C1414 C1415 1.391 . S
C1415 H1403 0.950 . S
C1415 C1411 1.393 . S
C1415 C1414 1.391 . S
H1416 C1424 0.950 . S
H1417 C1429 0.950 . S
H1418 C1426 0.950 1_455 S
H1419 C1428 0.950 . S
H1420 C1430 0.950 . S
H1421 C1432 0.950 . S
H1422 C1434 0.929 1_455 S
H1423 C1435 0.950 . S
C1424 H1416 0.950 . S
C1424 C1425 1.386 . S
C1424 C1426 1.391 . S
C1425 C1424 1.386 . S
C1425 C1429 1.393 . S
C1426 H1418 0.950 1_655 S
C1426 C1424 1.391 . S
C1426 C1427 1.400 . S
C1427 C1426 1.400 . S
C1427 C1428 1.398 . S
C1427 C1433 1.491 . S
C1428 H1419 0.950 . S
C1428 C1427 1.398 . S
C1428 C1429 1.391 . S
C1429 H1417 0.950 . S
C1429 C1425 1.393 . S
C1429 C1428 1.391 . S
C1430 H1420 0.950 . S
C1430 C1431 1.386 . S
C1430 C1432 1.391 . S
C1431 C1430 1.386 . S
C1431 C1435 1.393 1_655 S
C1432 H1421 0.950 . S
C1432 C1430 1.391 . S
C1432 C1433 1.400 . S
C1433 C1427 1.491 . S
C1433 C1432 1.400 . S
C1433 C1434 1.427 . S
C1434 H1422 0.929 1_655 S
C1434 C1433 1.427 . S
C1434 C1435 1.386 1_655 S
C1435 H1423 0.950 . S
C1435 C1431 1.393 1_455 S
C1435 C1434 1.386 1_455 S
H1436 C1444 0.950 . S
H1437 C1449 0.950 . S
H1438 C1446 0.950 . S
H1439 C1448 0.950 . S
H1440 C1450 0.950 . S
H1441 C1452 0.950 . S
H1442 C1454 0.950 . S
H1443 C1455 0.950 . S
C1444 H1436 0.950 . S
C1444 C1445 1.386 . S
C1444 C1446 1.391 . S
C1445 C1444 1.386 . S
C1445 C1449 1.393 . S
C1446 H1438 0.950 . S
C1446 C1444 1.391 . S
C1446 C1447 1.400 . S
C1447 C1446 1.400 . S
C1447 C1448 1.398 . S
C1447 C1453 1.491 . S
C1448 H1439 0.950 . S
C1448 C1447 1.398 . S
C1448 C1449 1.391 . S
C1449 H1437 0.950 . S
C1449 C1445 1.393 . S
C1449 C1448 1.391 . S
C1450 H1440 0.950 . S
C1450 C1451 1.386 . S
C1450 C1452 1.391 . S
C1451 C1450 1.386 . S
C1451 C1455 1.393 . S
C1452 H1441 0.950 . S
C1452 C1450 1.391 . S
C1452 C1453 1.400 . S
C1453 C1447 1.491 . S
C1453 C1452 1.400 . S
C1453 C1454 1.398 . S
C1454 H1442 0.950 . S
C1454 C1453 1.398 . S
C1454 C1455 1.391 . S
C1455 H1443 0.950 . S
C1455 C1451 1.393 . S
C1455 C1454 1.391 . S
H1456 C1464 0.950 . S
H1457 C1469 0.950 . S
H1458 C1466 0.950 . S
H1459 C1468 0.950 . S
H1460 C1470 0.950 . S
H1461 C1472 0.950 . S
H1462 C1474 0.950 . S
H1463 C1475 0.950 . S
C1464 H1456 0.950 . S
C1464 C1465 1.386 . S
C1464 C1466 1.391 . S
C1465 C1464 1.386 . S
C1465 C1469 1.393 . S
C1466 H1458 0.950 . S
C1466 C1464 1.391 . S
C1466 C1467 1.400 . S
C1467 C1466 1.400 . S
C1467 C1468 1.398 . S
C1467 C1473 1.491 . S
C1468 H1459 0.950 . S
C1468 C1467 1.398 . S
C1468 C1469 1.391 . S
C1469 H1457 0.950 . S
C1469 C1465 1.393 . S
C1469 C1468 1.391 . S
C1470 H1460 0.950 . S
C1470 C1471 1.386 . S
C1470 C1472 1.391 . S
C1471 C1470 1.386 . S
C1471 C1475 1.393 . S
C1472 H1461 0.950 . S
C1472 C1470 1.391 . S
C1472 C1473 1.400 . S
C1473 C1467 1.491 . S
C1473 C1472 1.400 . S
C1473 C1474 1.398 . S
C1474 H1462 0.950 . S
C1474 C1473 1.398 . S
C1474 C1475 1.391 . S
C1475 H1463 0.950 . S
C1475 C1471 1.393 . S
C1475 C1474 1.391 . S
H1476 C1484 0.950 1_554 S
H1477 C1489 0.950 . S
H1478 C1486 0.930 1_554 S
H1479 C1488 0.950 . S
H1480 C1490 0.950 . S
H1481 C1492 0.950 . S
H1482 C1494 0.950 . S
H1483 C1495 0.950 . S
C1484 H1476 0.950 1_556 S
C1484 C1485 1.386 . S
C1484 C1486 1.397 . S
C1485 C1484 1.386 . S
C1485 C1489 1.393 . S
C1486 H1478 0.930 1_556 S
C1486 C1484 1.397 . S
C1486 C1487 1.415 . S
C1487 C1486 1.415 . S
C1487 C1488 1.398 . S
C1487 C1493 1.491 . S
C1488 H1479 0.950 . S
C1488 C1487 1.398 . S
C1488 C1489 1.391 . S
C1489 H1477 0.950 . S
C1489 C1485 1.393 . S
C1489 C1488 1.391 . S
C1490 H1480 0.950 . S
C1490 C1491 1.372 1_556 S
C1490 C1492 1.391 . S
C1491 C1490 1.372 1_554 S
C1491 C1495 1.402 . S
C1492 H1481 0.950 . S
C1492 C1490 1.391 . S
C1492 C1493 1.400 . S
C1493 C1487 1.491 . S
C1493 C1492 1.400 . S
C1493 C1494 1.398 1_556 S
C1494 H1482 0.950 . S
C1494 C1493 1.398 1_554 S
C1494 C1495 1.391 . S
C1495 H1483 0.950 . S
C1495 C1491 1.402 . S
C1495 C1494 1.391 . S
H1496 C1504 0.950 . S
H1497 C1509 0.950 . S
H1498 C1506 0.950 . S
H1499 C1508 0.950 . S
H1500 C1510 0.950 . S
H1501 C1512 0.950 . S
H1502 C1514 0.950 . S
H1503 C1515 0.950 . S
C1504 H1496 0.950 . S
C1504 C1505 1.386 . S
C1504 C1506 1.391 . S
C1505 C1504 1.386 . S
C1505 C1509 1.393 . S
C1506 H1498 0.950 . S
C1506 C1504 1.391 . S
C1506 C1507 1.400 . S
C1507 C1506 1.400 . S
C1507 C1508 1.398 . S
C1507 C1513 1.491 . S
C1508 H1499 0.950 . S
C1508 C1507 1.398 . S
C1508 C1509 1.391 . S
C1509 H1497 0.950 . S
C1509 C1505 1.393 . S
C1509 C1508 1.391 . S
C1510 H1500 0.950 . S
C1510 C1511 1.386 . S
C1510 C1512 1.391 . S
C1511 C1510 1.386 . S
C1511 C1515 1.393 . S
C1512 H1501 0.950 . S
C1512 C1510 1.391 . S
C1512 C1513 1.400 . S
C1513 C1507 1.491 . S
C1513 C1512 1.400 . S
C1513 C1514 1.398 . S
C1514 H1502 0.950 . S
C1514 C1513 1.398 . S
C1514 C1515 1.391 . S
C1515 H1503 0.950 . S
C1515 C1511 1.393 . S
C1515 C1514 1.391 . S
H1516 C1524 0.950 . S
H1517 C1529 0.950 . S
H1518 C1526 0.950 . S
H1519 C1528 0.950 . S
H1520 C1530 0.950 . S
H1521 C1532 0.950 . S
H1522 C1534 0.950 . S
H1523 C1535 0.950 . S
C1524 H1516 0.950 . S
C1524 C1525 1.386 . S
C1524 C1526 1.391 . S
C1525 C1524 1.386 . S
C1525 C1529 1.393 . S
C1526 H1518 0.950 . S
C1526 C1524 1.391 . S
C1526 C1527 1.400 . S
C1527 C1526 1.400 . S
C1527 C1528 1.398 . S
C1527 C1533 1.491 . S
C1528 H1519 0.950 . S
C1528 C1527 1.398 . S
C1528 C1529 1.391 . S
C1529 H1517 0.950 . S
C1529 C1525 1.393 . S
C1529 C1528 1.391 . S
C1530 H1520 0.950 . S
C1530 C1531 1.386 . S
C1530 C1532 1.391 . S
C1531 C1530 1.386 . S
C1531 C1535 1.393 . S
C1532 H1521 0.950 . S
C1532 C1530 1.391 . S
C1532 C1533 1.400 . S
C1533 C1527 1.491 . S
C1533 C1532 1.400 . S
C1533 C1534 1.398 . S
C1534 H1522 0.950 . S
C1534 C1533 1.398 . S
C1534 C1535 1.391 . S
C1535 H1523 0.950 . S
C1535 C1531 1.393 . S
C1535 C1534 1.391 . S
H1536 C1544 0.950 . S
H1537 C1549 0.950 . S
H1538 C1546 0.950 . S
H1539 C1548 0.950 . S
H1540 C1550 0.950 . S
H1541 C1552 0.950 . S
H1542 C1554 0.950 . S
H1543 C1555 0.950 . S
C1544 H1536 0.950 . S
C1544 C1545 1.386 . S
C1544 C1546 1.391 . S
C1545 C1544 1.386 . S
C1545 C1549 1.393 . S
C1546 H1538 0.950 . S
C1546 C1544 1.391 . S
C1546 C1547 1.400 . S
C1547 C1546 1.400 . S
C1547 C1548 1.398 . S
C1547 C1553 1.491 . S
C1548 H1539 0.950 . S
C1548 C1547 1.398 . S
C1548 C1549 1.391 . S
C1549 H1537 0.950 . S
C1549 C1545 1.393 . S
C1549 C1548 1.391 . S
C1550 H1540 0.950 . S
C1550 C1551 1.386 . S
C1550 C1552 1.391 . S
C1551 C1550 1.386 . S
C1551 C1555 1.393 . S
C1552 H1541 0.950 . S
C1552 C1550 1.391 . S
C1552 C1553 1.400 . S
C1553 C1547 1.491 . S
C1553 C1552 1.400 . S
C1553 C1554 1.398 . S
C1554 H1542 0.950 . S
C1554 C1553 1.398 . S
C1554 C1555 1.391 . S
C1555 H1543 0.950 . S
C1555 C1551 1.393 . S
C1555 C1554 1.391 . S
H1556 C1564 0.950 . S
H1557 C1569 0.950 . S
H1558 C1566 0.950 . S
H1559 C1568 0.950 . S
H1560 C1570 0.950 . S
H1561 C1572 0.950 . S
H1562 C1574 0.950 . S
H1563 C1575 0.950 . S
C1564 H1556 0.950 . S
C1564 C1565 1.386 . S
C1564 C1566 1.391 . S
C1565 C1564 1.386 . S
C1565 C1569 1.393 . S
C1566 H1558 0.950 . S
C1566 C1564 1.391 . S
C1566 C1567 1.400 . S
C1567 C1566 1.400 . S
C1567 C1568 1.398 . S
C1567 C1573 1.491 . S
C1568 H1559 0.950 . S
C1568 C1567 1.398 . S
C1568 C1569 1.391 . S
C1569 H1557 0.950 . S
C1569 C1565 1.393 . S
C1569 C1568 1.391 . S
C1570 H1560 0.950 . S
C1570 C1571 1.386 . S
C1570 C1572 1.391 . S
C1571 C1570 1.386 . S
C1571 C1575 1.393 . S
C1572 H1561 0.950 . S
C1572 C1570 1.391 . S
C1572 C1573 1.400 . S
C1573 C1567 1.491 . S
C1573 C1572 1.400 . S
C1573 C1574 1.398 . S
C1574 H1562 0.950 . S
C1574 C1573 1.398 . S
C1574 C1575 1.391 . S
C1575 H1563 0.950 . S
C1575 C1571 1.393 . S
C1575 C1574 1.391 . S
H1576 C1584 0.950 . S
H1577 C1589 0.950 . S
H1578 C1586 0.950 . S
H1579 C1588 0.950 . S
H1580 C1590 0.950 . S
H1581 C1592 0.950 . S
H1582 C1594 0.950 . S
H1583 C1595 0.950 . S
C1584 H1576 0.950 . S
C1584 C1585 1.386 . S
C1584 C1586 1.391 . S
C1585 C1584 1.386 . S
C1585 C1589 1.393 . S
C1586 H1578 0.950 . S
C1586 C1584 1.391 . S
C1586 C1587 1.400 . S
C1587 C1586 1.400 . S
C1587 C1588 1.398 . S
C1587 C1593 1.491 . S
C1588 H1579 0.950 . S
C1588 C1587 1.398 . S
C1588 C1589 1.391 . S
C1589 H1577 0.950 . S
C1589 C1585 1.393 . S
C1589 C1588 1.391 . S
C1590 H1580 0.950 . S
C1590 C1591 1.386 . S
C1590 C1592 1.391 . S
C1591 C1590 1.386 . S
C1591 C1595 1.393 . S
C1592 H1581 0.950 . S
C1592 C1590 1.391 . S
C1592 C1593 1.400 . S
C1593 C1587 1.491 . S
C1593 C1592 1.400 . S
C1593 C1594 1.398 . S
C1594 H1582 0.950 . S
C1594 C1593 1.398 . S
C1594 C1595 1.391 . S
C1595 H1583 0.950 . S
C1595 C1591 1.393 . S
C1595 C1594 1.391 . S
H1596 C1604 0.950 . S
H1597 C1609 0.950 . S
H1598 C1606 0.950 . S
H1599 C1608 0.950 . S
H1600 C1610 0.950 . S
H1601 C1612 0.950 . S
H1602 C1614 0.950 . S
H1603 C1615 0.950 . S
C1604 H1596 0.950 . S
C1604 C1605 1.386 . S
C1604 C1606 1.391 . S
C1605 C1604 1.386 . S
C1605 C1609 1.393 . S
C1606 H1598 0.950 . S
C1606 C1604 1.391 . S
C1606 C1607 1.400 . S
C1607 C1606 1.400 . S
C1607 C1608 1.398 . S
C1607 C1613 1.491 . S
C1608 H1599 0.950 . S
C1608 C1607 1.398 . S
C1608 C1609 1.391 . S
C1609 H1597 0.950 . S
C1609 C1605 1.393 . S
C1609 C1608 1.391 . S
C1610 H1600 0.950 . S
C1610 C1611 1.386 . S
C1610 C1612 1.391 . S
C1611 C1610 1.386 . S
C1611 C1615 1.393 . S
C1612 H1601 0.950 . S
C1612 C1610 1.391 . S
C1612 C1613 1.400 . S
C1613 C1607 1.491 . S
C1613 C1612 1.400 . S
C1613 C1614 1.398 . S
C1614 H1602 0.950 . S
C1614 C1613 1.398 . S
C1614 C1615 1.391 . S
C1615 H1603 0.950 . S
C1615 C1611 1.393 . S
C1615 C1614 1.391 . S
H1616 C1624 0.950 . S
H1617 C1629 0.950 . S
H1618 C1626 0.950 . S
H1619 C1628 0.950 . S
H1620 C1630 0.950 1_565 S
H1621 C1632 0.950 . S
H1622 C1634 0.950 . S
H1623 C1635 0.950 . S
C1624 H1616 0.950 . S
C1624 C1625 1.386 . S
C1624 C1626 1.391 . S
C1625 C1624 1.386 . S
C1625 C1629 1.393 . S
C1626 H1618 0.950 . S
C1626 C1624 1.391 . S
C1626 C1627 1.400 . S
C1627 C1626 1.400 . S
C1627 C1628 1.398 . S
C1627 C1633 1.491 . S
C1628 H1619 0.950 . S
C1628 C1627 1.398 . S
C1628 C1629 1.391 . S
C1629 H1617 0.950 . S
C1629 C1625 1.393 . S
C1629 C1628 1.391 . S
C1630 H1620 0.950 1_545 S
C1630 C1631 1.386 . S
C1630 C1632 1.391 . S
C1631 C1630 1.386 . S
C1631 C1635 1.393 . S
C1632 H1621 0.950 . S
C1632 C1630 1.391 . S
C1632 C1633 1.400 . S
C1633 C1627 1.491 . S
C1633 C1632 1.400 . S
C1633 C1634 1.398 . S
C1634 H1622 0.950 . S
C1634 C1633 1.398 . S
C1634 C1635 1.391 . S
C1635 H1623 0.950 . S
C1635 C1631 1.393 . S
C1635 C1634 1.391 . S
H1636 C1644 0.950 . S
H1637 C1649 0.950 . S
H1638 C1646 0.950 . S
H1639 C1648 0.950 . S
H1640 C1650 0.950 . S
H1641 C1652 0.950 . S
H1642 C1654 0.950 . S
H1643 C1655 0.950 . S
C1644 H1636 0.950 . S
C1644 C1645 1.386 . S
C1644 C1646 1.391 . S
C1645 C1644 1.386 . S
C1645 C1649 1.393 . S
C1646 H1638 0.950 . S
C1646 C1644 1.391 . S
C1646 C1647 1.400 . S
C1647 C1646 1.400 . S
C1647 C1648 1.398 . S
C1647 C1653 1.491 . S
C1648 H1639 0.950 . S
C1648 C1647 1.398 . S
C1648 C1649 1.391 . S
C1649 H1637 0.950 . S
C1649 C1645 1.393 . S
C1649 C1648 1.391 . S
C1650 H1640 0.950 . S
C1650 C1651 1.386 . S
C1650 C1652 1.391 . S
C1651 C1650 1.386 . S
C1651 C1655 1.393 . S
C1652 H1641 0.950 . S
C1652 C1650 1.391 . S
C1652 C1653 1.400 . S
C1653 C1647 1.491 . S
C1653 C1652 1.400 . S
C1653 C1654 1.398 . S
C1654 H1642 0.950 . S
C1654 C1653 1.398 . S
C1654 C1655 1.391 . S
C1655 H1643 0.950 . S
C1655 C1651 1.393 . S
C1655 C1654 1.391 . S
H1656 C1664 0.950 . S
H1657 C1669 0.950 . S
H1658 C1666 0.950 . S
H1659 C1668 0.950 . S
H1660 C1670 0.950 . S
H1661 C1672 0.950 . S
H1662 C1674 0.950 . S
H1663 C1675 0.950 . S
C1664 H1656 0.950 . S
C1664 C1665 1.386 . S
C1664 C1666 1.391 . S
C1665 C1664 1.386 . S
C1665 C1669 1.393 . S
C1666 H1658 0.950 . S
C1666 C1664 1.391 . S
C1666 C1667 1.400 . S
C1667 C1666 1.400 . S
C1667 C1668 1.398 . S
C1667 C1673 1.491 . S
C1668 H1659 0.950 . S
C1668 C1667 1.398 . S
C1668 C1669 1.391 . S
C1669 H1657 0.950 . S
C1669 C1665 1.393 . S
C1669 C1668 1.391 . S
C1670 H1660 0.950 . S
C1670 C1671 1.386 . S
C1670 C1672 1.391 . S
C1671 C1670 1.386 . S
C1671 C1675 1.393 . S
C1672 H1661 0.950 . S
C1672 C1670 1.391 . S
C1672 C1673 1.400 . S
C1673 C1667 1.491 . S
C1673 C1672 1.400 . S
C1673 C1674 1.398 . S
C1674 H1662 0.950 . S
C1674 C1673 1.398 . S
C1674 C1675 1.391 . S
C1675 H1663 0.950 . S
C1675 C1671 1.393 . S
C1675 C1674 1.391 . S
H1676 C1684 0.950 . S
H1677 C1689 0.950 . S
H1678 C1686 0.950 . S
H1679 C1688 0.950 . S
H1680 C1690 0.950 . S
H1681 C1692 0.950 . S
H1682 C1694 0.950 . S
H1683 C1695 0.950 . S
C1684 H1676 0.950 . S
C1684 C1685 1.386 . S
C1684 C1686 1.391 . S
C1685 C1684 1.386 . S
C1685 C1689 1.393 . S
C1686 H1678 0.950 . S
C1686 C1684 1.391 . S
C1686 C1687 1.400 . S
C1687 C1686 1.400 . S
C1687 C1688 1.398 . S
C1687 C1693 1.491 . S
C1688 H1679 0.950 . S
C1688 C1687 1.398 . S
C1688 C1689 1.391 . S
C1689 H1677 0.950 . S
C1689 C1685 1.393 . S
C1689 C1688 1.391 . S
C1690 H1680 0.950 . S
C1690 C1691 1.386 . S
C1690 C1692 1.391 . S
C1691 C1690 1.386 . S
C1691 C1695 1.393 . S
C1692 H1681 0.950 . S
C1692 C1690 1.391 . S
C1692 C1693 1.400 . S
C1693 C1687 1.491 . S
C1693 C1692 1.400 . S
C1693 C1694 1.398 . S
C1694 H1682 0.950 . S
C1694 C1693 1.398 . S
C1694 C1695 1.391 . S
C1695 H1683 0.950 . S
C1695 C1691 1.393 . S
C1695 C1694 1.391 . S
H1696 C1704 0.950 . S
H1697 C1709 0.950 . S
H1698 C1706 0.950 . S
H1699 C1708 0.950 . S
H1700 C1710 0.950 . S
H1701 C1712 0.950 . S
H1702 C1714 0.950 . S
H1703 C1715 0.950 . S
C1704 H1696 0.950 . S
C1704 C1705 1.386 . S
C1704 C1706 1.391 . S
C1705 C1704 1.386 . S
C1705 C1709 1.393 . S
C1706 H1698 0.950 . S
C1706 C1704 1.391 . S
C1706 C1707 1.400 . S
C1707 C1706 1.400 . S
C1707 C1708 1.398 . S
C1707 C1713 1.491 . S
C1708 H1699 0.950 . S
C1708 C1707 1.398 . S
C1708 C1709 1.391 . S
C1709 H1697 0.950 . S
C1709 C1705 1.393 . S
C1709 C1708 1.391 . S
C1710 H1700 0.950 . S
C1710 C1711 1.386 . S
C1710 C1712 1.391 . S
C1711 C1710 1.386 . S
C1711 C1715 1.393 . S
C1712 H1701 0.950 . S
C1712 C1710 1.391 . S
C1712 C1713 1.400 . S
C1713 C1707 1.491 . S
C1713 C1712 1.400 . S
C1713 C1714 1.398 . S
C1714 H1702 0.950 . S
C1714 C1713 1.398 . S
C1714 C1715 1.391 . S
C1715 H1703 0.950 . S
C1715 C1711 1.393 . S
C1715 C1714 1.391 . S
H1716 C1724 0.950 . S
H1717 C1729 0.950 . S
H1718 C1726 0.950 . S
H1719 C1728 0.950 . S
H1720 C1730 0.950 . S
H1721 C1732 0.950 . S
H1722 C1734 0.950 . S
H1723 C1735 0.950 . S
C1724 H1716 0.950 . S
C1724 C1725 1.386 . S
C1724 C1726 1.391 . S
C1725 C1724 1.386 . S
C1725 C1729 1.393 . S
C1726 H1718 0.950 . S
C1726 C1724 1.391 . S
C1726 C1727 1.400 . S
C1727 C1726 1.400 . S
C1727 C1728 1.398 . S
C1727 C1733 1.491 . S
C1728 H1719 0.950 . S
C1728 C1727 1.398 . S
C1728 C1729 1.391 . S
C1729 H1717 0.950 . S
C1729 C1725 1.393 . S
C1729 C1728 1.391 . S
C1730 H1720 0.950 . S
C1730 C1731 1.386 . S
C1730 C1732 1.391 . S
C1731 C1730 1.386 . S
C1731 C1735 1.393 . S
C1732 H1721 0.950 . S
C1732 C1730 1.391 . S
C1732 C1733 1.400 . S
C1733 C1727 1.491 . S
C1733 C1732 1.400 . S
C1733 C1734 1.398 . S
C1734 H1722 0.950 . S
C1734 C1733 1.398 . S
C1734 C1735 1.391 . S
C1735 H1723 0.950 . S
C1735 C1731 1.393 . S
C1735 C1734 1.391 . S
H1736 C1744 0.950 . S
H1737 C1749 0.950 . S
H1738 C1746 0.950 . S
H1739 C1748 0.950 . S
H1740 C1750 0.950 . S
H1741 C1752 0.950 . S
H1742 C1754 0.950 . S
H1743 C1755 0.950 . S
C1744 H1736 0.950 . S
C1744 C1745 1.386 . S
C1744 C1746 1.391 . S
C1745 C1744 1.386 . S
C1745 C1749 1.393 . S
C1746 H1738 0.950 . S
C1746 C1744 1.391 . S
C1746 C1747 1.400 . S
C1747 C1746 1.400 . S
C1747 C1748 1.398 . S
C1747 C1753 1.491 . S
C1748 H1739 0.950 . S
C1748 C1747 1.398 . S
C1748 C1749 1.391 . S
C1749 H1737 0.950 . S
C1749 C1745 1.393 . S
C1749 C1748 1.391 . S
C1750 H1740 0.950 . S
C1750 C1751 1.386 . S
C1750 C1752 1.391 . S
C1751 C1750 1.386 . S
C1751 C1755 1.393 . S
C1752 H1741 0.950 . S
C1752 C1750 1.391 . S
C1752 C1753 1.400 . S
C1753 C1747 1.491 . S
C1753 C1752 1.400 . S
C1753 C1754 1.398 . S
C1754 H1742 0.950 . S
C1754 C1753 1.398 . S
C1754 C1755 1.391 . S
C1755 H1743 0.950 . S
C1755 C1751 1.393 . S
C1755 C1754 1.391 . S
H1756 C1764 0.950 . S
H1757 C1769 0.950 . S
H1758 C1766 0.950 . S
H1759 C1768 0.950 . S
H1760 C1770 0.950 . S
H1761 C1772 0.950 . S
H1762 C1774 0.950 . S
H1763 C1775 0.950 . S
C1764 H1756 0.950 . S
C1764 C1765 1.386 . S
C1764 C1766 1.391 . S
C1765 C1764 1.386 . S
C1765 C1769 1.393 . S
C1766 H1758 0.950 . S
C1766 C1764 1.391 . S
C1766 C1767 1.400 . S
C1767 C1766 1.400 . S
C1767 C1768 1.398 . S
C1767 C1773 1.491 . S
C1768 H1759 0.950 . S
C1768 C1767 1.398 . S
C1768 C1769 1.391 . S
C1769 H1757 0.950 . S
C1769 C1765 1.393 . S
C1769 C1768 1.391 . S
C1770 H1760 0.950 . S
C1770 C1771 1.386 . S
C1770 C1772 1.391 . S
C1771 C1770 1.386 . S
C1771 C1775 1.393 . S
C1772 H1761 0.950 . S
C1772 C1770 1.391 . S
C1772 C1773 1.400 . S
C1773 C1767 1.491 . S
C1773 C1772 1.400 . S
C1773 C1774 1.398 . S
C1774 H1762 0.950 . S
C1774 C1773 1.398 . S
C1774 C1775 1.391 . S
C1775 H1763 0.950 . S
C1775 C1771 1.393 . S
C1775 C1774 1.391 . S
H1776 C1784 0.950 1_455 S
H1777 C1789 0.950 . S
H1778 C1786 0.911 1_455 S
H1779 C1788 0.950 . S
H1780 C1790 0.950 . S
H1781 C1792 0.950 . S
H1782 C1794 0.950 . S
H1783 C1795 0.950 . S
C1784 H1776 0.950 1_655 S
C1784 C1785 1.386 . S
C1784 C1786 1.401 . S
C1785 C1784 1.386 . S
C1785 C1789 1.393 . S
C1786 H1778 0.911 1_655 S
C1786 C1784 1.401 . S
C1786 C1787 1.431 . S
C1787 C1786 1.431 . S
C1787 C1788 1.398 . S
C1787 C1793 1.491 . S
C1788 H1779 0.950 . S
C1788 C1787 1.398 . S
C1788 C1789 1.391 . S
C1789 H1777 0.950 . S
C1789 C1785 1.393 . S
C1789 C1788 1.391 . S
C1790 H1780 0.950 . S
C1790 C1791 1.386 . S
C1790 C1792 1.391 . S
C1791 C1790 1.386 . S
C1791 C1795 1.393 1_655 S
C1792 H1781 0.950 . S
C1792 C1790 1.391 . S
C1792 C1793 1.400 . S
C1793 C1787 1.491 . S
C1793 C1792 1.400 . S
C1793 C1794 1.398 1_655 S
C1794 H1782 0.950 . S
C1794 C1793 1.398 1_455 S
C1794 C1795 1.391 . S
C1795 H1783 0.950 . S
C1795 C1791 1.393 1_455 S
C1795 C1794 1.391 . S
H1796 C1804 0.950 . S
H1797 C1809 0.950 . S
H1798 C1806 0.950 . S
H1799 C1808 0.950 . S
H1800 C1810 0.950 . S
H1801 C1812 0.950 . S
H1802 C1814 0.950 . S
H1803 C1815 0.950 . S
C1804 H1796 0.950 . S
C1804 C1805 1.386 . S
C1804 C1806 1.391 . S
C1805 C1804 1.386 . S
C1805 C1809 1.393 . S
C1806 H1798 0.950 . S
C1806 C1804 1.391 . S
C1806 C1807 1.400 . S
C1807 C1806 1.400 . S
C1807 C1808 1.398 . S
C1807 C1813 1.491 . S
C1808 H1799 0.950 . S
C1808 C1807 1.398 . S
C1808 C1809 1.391 . S
C1809 H1797 0.950 . S
C1809 C1805 1.393 . S
C1809 C1808 1.391 . S
C1810 H1800 0.950 . S
C1810 C1811 1.386 . S
C1810 C1812 1.391 . S
C1811 C1810 1.386 . S
C1811 C1815 1.393 . S
C1812 H1801 0.950 . S
C1812 C1810 1.391 . S
C1812 C1813 1.400 . S
C1813 C1807 1.491 . S
C1813 C1812 1.400 . S
C1813 C1814 1.398 . S
C1814 H1802 0.950 . S
C1814 C1813 1.398 . S
C1814 C1815 1.391 . S
C1815 H1803 0.950 . S
C1815 C1811 1.393 . S
C1815 C1814 1.391 . S
H1816 C1824 0.977 . S
H1817 C1829 0.950 . S
H1818 C1826 0.950 . S
H1819 C1828 0.950 . S
H1820 C1830 0.950 . S
H1821 C1832 0.950 . S
H1822 C1834 0.950 . S
H1823 C1835 0.947 . S
C1824 H1816 0.977 . S
C1824 C1825 1.386 . S
C1824 C1826 1.391 . S
C1825 C1824 1.386 . S
C1825 C1829 1.393 . S
C1826 H1818 0.950 . S
C1826 C1824 1.391 . S
C1826 C1827 1.400 . S
C1827 C1826 1.400 . S
C1827 C1828 1.398 . S
C1827 C1833 1.491 . S
C1828 H1819 0.950 . S
C1828 C1827 1.398 . S
C1828 C1829 1.391 . S
C1829 H1817 0.950 . S
C1829 C1825 1.393 . S
C1829 C1828 1.391 . S
C1830 H1820 0.950 . S
C1830 C1831 1.386 . S
C1830 C1832 1.391 . S
C1831 C1830 1.386 . S
C1831 C1835 1.393 . S
C1832 H1821 0.950 . S
C1832 C1830 1.391 . S
C1832 C1833 1.400 . S
C1833 C1827 1.491 . S
C1833 C1832 1.400 . S
C1833 C1834 1.398 . S
C1834 H1822 0.950 . S
C1834 C1833 1.398 . S
C1834 C1835 1.391 . S
C1835 H1823 0.947 . S
C1835 C1831 1.393 . S
C1835 C1834 1.391 . S
H1836 C1844 0.950 . S
H1837 C1849 0.950 . S
H1838 C1846 0.950 . S
H1839 C1848 0.950 . S
H1840 C1850 0.950 . S
H1841 C1852 0.950 . S
H1842 C1854 0.950 . S
H1843 C1855 0.950 . S
C1844 H1836 0.950 . S
C1844 C1845 1.386 . S
C1844 C1846 1.391 . S
C1845 C1844 1.386 . S
C1845 C1849 1.393 . S
C1846 H1838 0.950 . S
C1846 C1844 1.391 . S
C1846 C1847 1.400 . S
C1847 C1846 1.400 . S
C1847 C1848 1.398 . S
C1847 C1853 1.491 . S
C1848 H1839 0.950 . S
C1848 C1847 1.398 . S
C1848 C1849 1.391 . S
C1849 H1837 0.950 . S
C1849 C1845 1.393 . S
C1849 C1848 1.391 . S
C1850 H1840 0.950 . S
C1850 C1851 1.386 . S
C1850 C1852 1.391 . S
C1851 C1850 1.386 . S
C1851 C1855 1.393 . S
C1852 H1841 0.950 . S
C1852 C1850 1.391 . S
C1852 C1853 1.400 . S
C1853 C1847 1.491 . S
C1853 C1852 1.400 . S
C1853 C1854 1.398 . S
C1854 H1842 0.950 . S
C1854 C1853 1.398 . S
C1854 C1855 1.391 . S
C1855 H1843 0.950 . S
C1855 C1851 1.393 . S
C1855 C1854 1.391 . S
H1856 C1864 0.950 . S
H1857 C1869 0.950 . S
H1858 C1866 0.950 . S
H1859 C1868 0.950 . S
H1860 C1870 0.950 . S
H1861 C1872 0.950 . S
H1862 C1874 0.950 . S
H1863 C1875 0.950 . S
C1864 H1856 0.950 . S
C1864 C1865 1.386 . S
C1864 C1866 1.391 . S
C1865 C1864 1.386 . S
C1865 C1869 1.393 . S
C1866 H1858 0.950 . S
C1866 C1864 1.391 . S
C1866 C1867 1.400 . S
C1867 C1866 1.400 . S
C1867 C1868 1.398 . S
C1867 C1873 1.491 . S
C1868 H1859 0.950 . S
C1868 C1867 1.398 . S
C1868 C1869 1.391 . S
C1869 H1857 0.950 . S
C1869 C1865 1.393 . S
C1869 C1868 1.391 . S
C1870 H1860 0.950 . S
C1870 C1871 1.386 . S
C1870 C1872 1.391 . S
C1871 C1870 1.386 . S
C1871 C1875 1.393 . S
C1872 H1861 0.950 . S
C1872 C1870 1.391 . S
C1872 C1873 1.400 . S
C1873 C1867 1.491 . S
C1873 C1872 1.400 . S
C1873 C1874 1.398 . S
C1874 H1862 0.950 . S
C1874 C1873 1.398 . S
C1874 C1875 1.391 . S
C1875 H1863 0.950 . S
C1875 C1871 1.393 . S
C1875 C1874 1.391 . S
H1876 C1884 0.950 . S
H1877 C1889 0.950 . S
H1878 C1886 0.950 . S
H1879 C1888 0.950 . S
H1880 C1890 0.950 . S
H1881 C1892 0.950 . S
H1882 C1894 0.950 . S
H1883 C1895 0.950 . S
C1884 H1876 0.950 . S
C1884 C1885 1.386 . S
C1884 C1886 1.391 . S
C1885 C1884 1.386 . S
C1885 C1889 1.393 . S
C1886 H1878 0.950 . S
C1886 C1884 1.391 . S
C1886 C1887 1.400 . S
C1887 C1886 1.400 . S
C1887 C1888 1.398 . S
C1887 C1893 1.491 . S
C1888 H1879 0.950 . S
C1888 C1887 1.398 . S
C1888 C1889 1.391 . S
C1889 H1877 0.950 . S
C1889 C1885 1.393 . S
C1889 C1888 1.391 . S
C1890 H1880 0.950 . S
C1890 C1891 1.386 . S
C1890 C1892 1.391 . S
C1891 C1890 1.386 . S
C1891 C1895 1.393 . S
C1892 H1881 0.950 . S
C1892 C1890 1.391 . S
C1892 C1893 1.400 . S
C1893 C1887 1.491 . S
C1893 C1892 1.400 . S
C1893 C1894 1.398 . S
C1894 H1882 0.950 . S
C1894 C1893 1.398 . S
C1894 C1895 1.391 . S
C1895 H1883 0.950 . S
C1895 C1891 1.393 . S
C1895 C1894 1.391 . S
H1896 C1904 0.950 . S
H1897 C1909 0.950 . S
H1898 C1906 0.950 . S
H1899 C1908 0.950 . S
H1900 C1910 0.950 . S
H1901 C1912 0.950 . S
H1902 C1914 0.950 . S
H1903 C1915 0.950 . S
C1904 H1896 0.950 . S
C1904 C1905 1.386 . S
C1904 C1906 1.391 . S
C1905 C1904 1.386 . S
C1905 C1909 1.393 . S
C1906 H1898 0.950 . S
C1906 C1904 1.391 . S
C1906 C1907 1.400 . S
C1907 C1906 1.400 . S
C1907 C1908 1.398 . S
C1907 C1913 1.491 . S
C1908 H1899 0.950 . S
C1908 C1907 1.398 . S
C1908 C1909 1.391 . S
C1909 H1897 0.950 . S
C1909 C1905 1.393 . S
C1909 C1908 1.391 . S
C1910 H1900 0.950 . S
C1910 C1911 1.386 . S
C1910 C1912 1.391 . S
C1911 C1910 1.386 . S
C1911 C1915 1.393 . S
C1912 H1901 0.950 . S
C1912 C1910 1.391 . S
C1912 C1913 1.400 . S
C1913 C1907 1.491 . S
C1913 C1912 1.400 . S
C1913 C1914 1.398 . S
C1914 H1902 0.950 . S
C1914 C1913 1.398 . S
C1914 C1915 1.391 . S
C1915 H1903 0.950 . S
C1915 C1911 1.393 . S
C1915 C1914 1.391 . S
H1916 C1924 0.950 . S
H1917 C1929 0.950 . S
H1918 C1926 0.950 . S
H1919 C1928 0.950 . S
H1920 C1930 0.950 . S
H1921 C1932 0.950 . S
H1922 C1934 0.950 . S
H1923 C1935 0.950 . S
C1924 H1916 0.950 . S
C1924 C1925 1.386 . S
C1924 C1926 1.391 . S
C1925 C1924 1.386 . S
C1925 C1929 1.393 . S
C1926 H1918 0.950 . S
C1926 C1924 1.391 . S
C1926 C1927 1.400 . S
C1927 C1926 1.400 . S
C1927 C1928 1.398 . S
C1927 C1933 1.491 . S
C1928 H1919 0.950 . S
C1928 C1927 1.398 . S
C1928 C1929 1.391 . S
C1929 H1917 0.950 . S
C1929 C1925 1.393 . S
C1929 C1928 1.391 . S
C1930 H1920 0.950 . S
C1930 C1931 1.386 . S
C1930 C1932 1.391 . S
C1931 C1930 1.386 . S
C1931 C1935 1.393 . S
C1932 H1921 0.950 . S
C1932 C1930 1.391 . S
C1932 C1933 1.400 . S
C1933 C1927 1.491 . S
C1933 C1932 1.400 . S
C1933 C1934 1.398 . S
C1934 H1922 0.950 . S
C1934 C1933 1.398 . S
C1934 C1935 1.391 . S
C1935 H1923 0.950 . S
C1935 C1931 1.393 . S
C1935 C1934 1.391 . S
H1936 C1944 0.950 . S
H1937 C1949 0.950 . S
H1938 C1946 0.950 . S
H1939 C1948 0.950 . S
H1940 C1950 0.950 . S
H1941 C1952 0.950 . S
H1942 C1954 0.950 . S
H1943 C1955 0.950 . S
C1944 H1936 0.950 . S
C1944 C1945 1.386 . S
C1944 C1946 1.391 . S
C1945 C1944 1.386 . S
C1945 C1949 1.393 . S
C1946 H1938 0.950 . S
C1946 C1944 1.391 . S
C1946 C1947 1.400 . S
C1947 C1946 1.400 . S
C1947 C1948 1.398 . S
C1947 C1953 1.491 . S
C1948 H1939 0.950 . S
C1948 C1947 1.398 . S
C1948 C1949 1.391 . S
C1949 H1937 0.950 . S
C1949 C1945 1.393 . S
C1949 C1948 1.391 . S
C1950 H1940 0.950 . S
C1950 C1951 1.386 . S
C1950 C1952 1.391 . S
C1951 C1950 1.386 . S
C1951 C1955 1.393 . S
C1952 H1941 0.950 . S
C1952 C1950 1.391 . S
C1952 C1953 1.400 . S
C1953 C1947 1.491 . S
C1953 C1952 1.400 . S
C1953 C1954 1.398 . S
C1954 H1942 0.950 . S
C1954 C1953 1.398 . S
C1954 C1955 1.391 . S
C1955 H1943 0.950 . S
C1955 C1951 1.393 . S
C1955 C1954 1.391 . S
H1956 C1964 0.950 . S
H1957 C1969 0.950 . S
H1958 C1966 0.950 . S
H1959 C1968 0.950 . S
H1960 C1970 0.950 . S
H1961 C1972 0.950 . S
H1962 C1974 0.950 . S
H1963 C1975 0.950 . S
C1964 H1956 0.950 . S
C1964 C1965 1.386 . S
C1964 C1966 1.391 . S
C1965 C1964 1.386 . S
C1965 C1969 1.393 . S
C1966 H1958 0.950 . S
C1966 C1964 1.391 . S
C1966 C1967 1.400 . S
C1967 C1966 1.400 . S
C1967 C1968 1.398 . S
C1967 C1973 1.491 . S
C1968 H1959 0.950 . S
C1968 C1967 1.398 . S
C1968 C1969 1.391 . S
C1969 H1957 0.950 . S
C1969 C1965 1.393 . S
C1969 C1968 1.391 . S
C1970 H1960 0.950 . S
C1970 C1971 1.386 . S
C1970 C1972 1.391 . S
C1971 C1970 1.386 . S
C1971 C1975 1.393 . S
C1972 H1961 0.950 . S
C1972 C1970 1.391 . S
C1972 C1973 1.400 . S
C1973 C1967 1.491 . S
C1973 C1972 1.400 . S
C1973 C1974 1.398 . S
C1974 H1962 0.950 . S
C1974 C1973 1.398 . S
C1974 C1975 1.391 . S
C1975 H1963 0.950 . S
C1975 C1971 1.393 . S
C1975 C1974 1.391 . S
H1976 C1984 0.950 . S
H1977 C1989 0.950 . S
H1978 C1986 0.950 . S
H1979 C1988 0.950 . S
H1980 C1990 0.950 . S
H1981 C1992 0.950 . S
H1982 C1994 0.950 . S
H1983 C1995 0.950 . S
C1984 H1976 0.950 . S
C1984 C1985 1.386 . S
C1984 C1986 1.391 . S
C1985 C1984 1.386 . S
C1985 C1989 1.393 . S
C1986 H1978 0.950 . S
C1986 C1984 1.391 . S
C1986 C1987 1.400 . S
C1987 C1986 1.400 . S
C1987 C1988 1.398 . S
C1987 C1993 1.491 . S
C1988 H1979 0.950 . S
C1988 C1987 1.398 . S
C1988 C1989 1.391 . S
C1989 H1977 0.950 . S
C1989 C1985 1.393 . S
C1989 C1988 1.391 . S
C1990 H1980 0.950 . S
C1990 C1991 1.386 . S
C1990 C1992 1.391 . S
C1991 C1990 1.386 . S
C1991 C1995 1.393 . S
C1992 H1981 0.950 . S
C1992 C1990 1.391 . S
C1992 C1993 1.400 . S
C1993 C1987 1.491 . S
C1993 C1992 1.400 . S
C1993 C1994 1.398 . S
C1994 H1982 0.950 . S
C1994 C1993 1.398 . S
C1994 C1995 1.391 . S
C1995 H1983 0.950 . S
C1995 C1991 1.393 . S
C1995 C1994 1.391 . S
H1996 C2004 0.950 . S
H1997 C2009 0.950 . S
H1998 C2006 0.950 . S
H1999 C2008 0.950 . S
H2000 C2010 0.950 . S
H2001 C2012 0.950 . S
H2002 C2014 0.950 . S
H2003 C2015 0.962 . S
C2004 H1996 0.950 . S
C2004 C2005 1.386 . S
C2004 C2006 1.391 . S
C2005 C2004 1.386 . S
C2005 C2009 1.393 . S
C2006 H1998 0.950 . S
C2006 C2004 1.391 . S
C2006 C2007 1.400 . S
C2007 C2006 1.400 . S
C2007 C2008 1.398 . S
C2007 C2013 1.491 . S
C2008 H1999 0.950 . S
C2008 C2007 1.398 . S
C2008 C2009 1.391 . S
C2009 H1997 0.950 . S
C2009 C2005 1.393 . S
C2009 C2008 1.391 . S
C2010 H2000 0.950 . S
C2010 C2011 1.386 . S
C2010 C2012 1.391 . S
C2011 C2010 1.386 . S
C2011 C2015 1.393 . S
C2012 H2001 0.950 . S
C2012 C2010 1.391 . S
C2012 C2013 1.400 . S
C2013 C2007 1.491 . S
C2013 C2012 1.400 . S
C2013 C2014 1.398 . S
C2014 H2002 0.950 . S
C2014 C2013 1.398 . S
C2014 C2015 1.391 . S
C2015 H2003 0.962 . S
C2015 C2011 1.393 . S
C2015 C2014 1.391 . S
H2016 C2024 0.950 . S
H2017 C2029 0.950 . S
H2018 C2026 0.950 . S
H2019 C2028 0.950 . S
H2020 C2030 0.950 . S
H2021 C2032 0.950 . S
H2022 C2034 0.950 . S
H2023 C2035 0.950 . S
C2024 H2016 0.950 . S
C2024 C2025 1.386 . S
C2024 C2026 1.391 . S
C2025 C2024 1.386 . S
C2025 C2029 1.393 . S
C2026 H2018 0.950 . S
C2026 C2024 1.391 . S
C2026 C2027 1.400 . S
C2027 C2026 1.400 . S
C2027 C2028 1.398 . S
C2027 C2033 1.491 . S
C2028 H2019 0.950 . S
C2028 C2027 1.398 . S
C2028 C2029 1.391 . S
C2029 H2017 0.950 . S
C2029 C2025 1.393 . S
C2029 C2028 1.391 . S
C2030 H2020 0.950 . S
C2030 C2031 1.386 . S
C2030 C2032 1.391 . S
C2031 C2030 1.386 . S
C2031 C2035 1.393 . S
C2032 H2021 0.950 . S
C2032 C2030 1.391 . S
C2032 C2033 1.400 . S
C2033 C2027 1.491 . S
C2033 C2032 1.400 . S
C2033 C2034 1.398 . S
C2034 H2022 0.950 . S
C2034 C2033 1.398 . S
C2034 C2035 1.391 . S
C2035 H2023 0.950 . S
C2035 C2031 1.393 . S
C2035 C2034 1.391 . S
H2036 C2044 0.950 . S
H2037 C2049 0.950 . S
H2038 C2046 0.950 . S
H2039 C2048 0.950 . S
H2040 C2050 0.928 1_556 S
H2041 C2052 0.939 1_556 S
H2042 C2054 0.950 . S
H2043 C2055 0.950 . S
C2044 H2036 0.950 . S
C2044 C2045 1.386 . S
C2044 C2046 1.391 . S
C2045 C2044 1.386 . S
C2045 C2049 1.393 . S
C2046 H2038 0.950 . S
C2046 C2044 1.391 . S
C2046 C2047 1.400 . S
C2047 C2046 1.400 . S
C2047 C2048 1.398 . S
C2047 C2053 1.491 . S
C2048 H2039 0.950 . S
C2048 C2047 1.398 . S
C2048 C2049 1.391 . S
C2049 H2037 0.950 . S
C2049 C2045 1.393 . S
C2049 C2048 1.391 . S
C2050 H2040 0.928 1_554 S
C2050 C2051 1.402 . S
C2050 C2052 1.399 . S
C2051 C2050 1.402 . S
C2051 C2055 1.393 . S
C2052 H2041 0.939 1_554 S
C2052 C2050 1.399 . S
C2052 C2053 1.400 . S
C2053 C2047 1.491 . S
C2053 C2052 1.400 . S
C2053 C2054 1.398 . S
C2054 H2042 0.950 . S
C2054 C2053 1.398 . S
C2054 C2055 1.391 . S
C2055 H2043 0.950 . S
C2055 C2051 1.393 . S
C2055 C2054 1.391 . S
H2056 C2064 0.950 1_545 S
H2057 C2069 0.950 . S
H2058 C2066 0.950 . S
H2059 C2068 0.950 . S
H2060 C2070 0.950 . S
H2061 C2072 0.950 . S
H2062 C2074 0.950 . S
H2063 C2075 0.950 . S
C2064 H2056 0.950 1_565 S
C2064 C2065 1.386 . S
C2064 C2066 1.391 . S
C2065 C2064 1.386 . S
C2065 C2069 1.393 . S
C2066 H2058 0.950 . S
C2066 C2064 1.391 . S
C2066 C2067 1.400 . S
C2067 C2066 1.400 . S
C2067 C2068 1.398 . S
C2067 C2073 1.491 . S
C2068 H2059 0.950 . S
C2068 C2067 1.398 . S
C2068 C2069 1.391 . S
C2069 H2057 0.950 . S
C2069 C2065 1.393 . S
C2069 C2068 1.391 . S
C2070 H2060 0.950 . S
C2070 C2071 1.386 . S
C2070 C2072 1.391 . S
C2071 C2070 1.386 . S
C2071 C2075 1.393 . S
C2072 H2061 0.950 . S
C2072 C2070 1.391 . S
C2072 C2073 1.400 . S
C2073 C2067 1.491 . S
C2073 C2072 1.400 . S
C2073 C2074 1.398 . S
C2074 H2062 0.950 . S
C2074 C2073 1.398 . S
C2074 C2075 1.391 . S
C2075 H2063 0.950 . S
C2075 C2071 1.393 . S
C2075 C2074 1.391 . S
C1131 C970 1.418 . S
C1125 C331 1.389 . S
C1151 C983 1.597 . S
C1145 C380 1.598 . S
C1165 C421 1.436 . S
C1171 C996 1.440 . S
C1191 C1009 1.529 . S
C1185 C260 1.512 . S
C1211 C1017 1.459 . S
C1205 C620 1.456 . S
C1231 C1030 1.406 . S
C1225 C740 1.417 . S
C1245 C680 1.506 . S
C1251 C1043 1.493 . S
C1271 C1056 1.491 . S
C1265 C571 1.489 . S
C1285 C691 1.424 . S
C1291 C1074 1.435 . S
C1311 C1085 1.520 . S
C1305 C541 1.529 . S
C1325 C601 1.428 . S
C1331 C1069 1.422 . S
C1351 C1077 1.451 . S
C1345 C721 1.464 . S
C1365 C451 1.468 . S
C1371 C1100 1.493 . S
C1385 C241 1.504 . S
C1391 C1090 1.489 . S
C1405 C320 1.475 . S
C1411 C1095 1.477 . S
C1425 C391 1.559 . S
C1431 C1098 1.542 . S
C1445 C211 1.412 . S
C1451 C1007 1.422 . S
C1465 C841 1.393 . S
C1471 C999 1.402 . S
C1491 C968 1.554 . S
C1485 C901 1.565 . S
C1511 C973 1.493 . S
C1505 C500 1.489 . S
C1525 C271 1.514 . S
C1531 C1020 1.506 . S
C1551 C1059 1.505 . S
C1545 C661 1.508 . S
C1571 C1012 1.483 . S
C1565 C560 1.484 . S
C1591 C1038 1.446 . S
C1585 C751 1.454 . S
C1611 C1048 1.414 . S
C1605 C871 1.397 . S
C1625 C920 1.586 . S
C1631 C1061 1.608 . S
C1645 C481 1.441 . S
C1651 C1022 1.438 . S
C1671 C1035 1.517 . S
C1665 C800 1.500 . S
C1685 C200 1.458 . S
C1691 C991 1.463 . S
C1711 C1004 1.408 . S
C1705 C20 1.421 . S
C1731 C965 1.505 . S
C1725 C80 1.499 . S
C1751 C978 1.504 . S
C1745 C151 1.501 . S
C1765 C91 1.422 . S
C1771 C1087 1.435 . S
C1785 C121 1.534 . S
C1791 C1072 1.501 1_655 S
C1805 C181 1.436 . S
C1811 C1082 1.441 . S
C1825 C1 1.470 . S
C1831 C1064 1.452 . S
C1851 C1113 1.484 . S
C1845 C511 1.474 . S
C1871 C1103 1.486 . S
C1865 C781 1.503 . S
C1891 C1108 1.491 . S
C1885 C860 1.487 . S
C1905 C931 1.557 . S
C1911 C1111 1.545 . S
C1925 C631 1.409 . S
C1931 C1033 1.418 . S
C1951 C1025 1.398 . S
C1945 C301 1.390 . S
C1971 C1046 1.554 . S
C1965 C361 1.560 . S
C1991 C1051 1.493 . S
C1985 C440 1.493 . S
C2005 C811 1.507 . S
C2011 C994 1.517 . S
C2031 C981 1.511 . S
C2025 C61 1.513 . S
C2045 C140 1.484 . S
C2051 C986 1.480 . S
C2071 C960 1.444 . S
C2065 C31 1.467 . S
