# Generated by pormake.
# Topology pth, (4,4)-cn, num edge types: 1
# Building blocks:
#     Node 0, Type 0, BuildingBlock: AZAVOO_clean_sbu_0, # of connection points: 4
#     Node 1, Type 0, BuildingBlock: AZAVOO_clean_sbu_0, # of connection points: 4
#     Node 2, Type 0, BuildingBlock: AZAVOO_clean_sbu_0, # of connection points: 4
#     Node 3, Type 1, BuildingBlock: NAHDIM_clean_linker_0, # of connection points: 4
#     Node 4, Type 1, BuildingBlock: NAHDIM_clean_linker_0, # of connection points: 4
#     Node 5, Type 1, BuildingBlock: NAHDIM_clean_linker_0, # of connection points: 4
#     Edge 6, Type (0, 1), None
#     Edge 7, Type (0, 1), None
#     Edge 8, Type (0, 1), None
#     Edge 9, Type (0, 1), None
#     Edge 10, Type (0, 1), None
#     Edge 11, Type (0, 1), None
#     Edge 12, Type (0, 1), None
#     Edge 13, Type (0, 1), None
#     Edge 14, Type (0, 1), None
#     Edge 15, Type (0, 1), None
#     Edge 16, Type (0, 1), None
#     Edge 17, Type (0, 1), None
# Relax obj value: 0.088
# Max RMSD: 0.223
# Mean RMSD: 0.131
data_MOF--net-pth--node1-AZAVOO_clean_sbu_0--node2-NAHDIM_clean_linker_0--edge1-none
_symmetry_space_group_name_H-M    P1
_symmetry_Int_Tables_number       1
_symmetry_cell_setting            triclinic
loop_
_symmetry_equiv_pos_as_xyz
'x, y, z'
_cell_length_a     19.177959
_cell_length_b     19.724095
_cell_length_c     48.90408
_cell_angle_alpha  89.946535
_cell_angle_beta   93.719897
_cell_angle_gamma 122.09049
loop_
_atom_site_label
_atom_site_type_symbol
_atom_site_fract_x
_atom_site_fract_y
_atom_site_fract_z
_atom_type_partial_charge
Mg0 Mg 0.15701 0.1321 0.05983 0.0
O1 O 0.04206 0.00424 0.05455 0.0
O2 O 0.94227 0.01188 0.03113 0.0
Mg3 Mg -0.00763 0.14222 0.02082 0.0
C4 C 0.9681 0.97174 0.0438 0.0
C5 C 0.22388 0.05635 0.11201 0.0
O6 O 0.29272 0.06192 0.12115 0.0
O7 O 0.09911 0.16723 0.09205 0.0
O8 O 0.00232 0.17491 0.06655 0.0
O9 O 0.19694 0.11496 0.01994 0.0
O10 O 0.11668 0.16291 0.02438 0.0
C11 C 0.0409 0.18085 0.0896 0.0
C12 C 0.15171 0.13948 0.00865 0.0
O13 O 0.22593 0.09608 0.09116 0.0
Mg14 Mg 0.95459 0.03576 0.39608 0.0
O15 O 0.03236 0.00339 0.42628 0.0
O16 O 0.14329 0.10343 0.45107 0.0
Mg17 Mg 0.15644 0.21229 0.43084 0.0
C18 C 0.09305 0.02898 0.44464 0.0
C19 C 0.01939 0.97371 0.34877 0.0
O20 O 0.06776 0.98661 0.329 0.0
O21 O 0.05155 0.17258 0.39581 0.0
O22 O 0.14992 0.29797 0.40108 0.0
O23 O 0.89303 0.05144 0.43261 0.0
O24 O 0.0186 0.13878 0.42494 0.0
C25 C 0.08627 0.24353 0.38687 0.0
C26 C 0.96017 0.11579 0.44062 0.0
O27 O 0.02817 0.03401 0.36173 0.0
Mg28 Mg -0.00129 0.02992 0.70744 0.0
O29 O 0.10978 0.12001 0.73642 0.0
O30 O 0.08223 0.20019 0.76027 0.0
Mg31 Mg 0.94409 0.16042 0.76004 0.0
C32 C 0.13237 0.18133 0.75215 0.0
C33 C 0.13223 0.09946 0.66207 0.0
O34 O 0.16743 0.14491 0.6414 0.0
O35 O 0.95923 0.11809 0.71397 0.0
O36 O 0.94891 0.22036 0.71984 0.0
O37 O 0.92466 0.94543 0.74138 0.0
O38 O 0.91942 0.04989 0.73659 0.0
C39 C 0.96091 0.17826 0.7037 0.0
C40 C 0.89664 0.98654 0.7493 0.0
O41 O 0.07268 0.10053 0.67187 0.0
C42 C 0.88537 0.87959 0.37071 0.0
C43 C 0.95753 0.88845 0.35595 0.0
C44 C 0.9538 0.79643 0.32118 0.0
C45 C 0.03418 0.81306 0.32735 0.0
C46 C 0.06127 0.76821 0.31467 0.0
C47 C 0.00615 0.7041 0.29604 0.0
C48 C 0.92462 0.68623 0.29026 0.0
C49 C 0.9003 0.73392 0.30249 0.0
C50 C 0.1489 0.78964 0.32112 0.0
C51 C 0.8627 0.61649 0.27136 0.0
C52 C 0.02909 0.20143 0.33846 0.0
C53 C 0.05003 0.26201 0.36206 0.0
C54 C 0.09128 0.38754 0.33908 0.0
C55 C 0.01192 0.36442 0.32784 0.0
C56 C -4e-05 0.41626 0.31141 0.0
C57 C 0.06852 0.49252 0.30622 0.0
C58 C 0.14804 0.5166 0.31796 0.0
C59 C 0.1583 0.46353 0.3342 0.0
C60 C 0.91441 0.38914 0.29915 0.0
C61 C 0.2223 0.59798 0.31302 0.0
C62 C 0.08417 0.34596 0.13454 0.0
C63 C 0.01119 0.33825 0.14252 0.0
C64 C 0.0124 0.4035 0.15444 0.0
C65 C 0.0884 0.47737 0.15929 0.0
C66 C 0.16205 0.48529 0.15153 0.0
C67 C 0.15879 0.41943 0.13912 0.0
C68 C 0.93231 0.39302 0.16217 0.0
C69 C 0.24419 0.56286 0.15676 0.0
C70 C 0.08887 0.03311 0.12623 0.0
C71 C 0.14684 0.00251 0.12639 0.0
C72 C 0.10376 0.86203 0.1264 0.0
C73 C 0.03049 0.78684 0.12391 0.0
C74 C 0.0242 0.721 0.13729 0.0
C75 C 0.0937 0.7307 0.15301 0.0
C76 C 0.16947 0.80539 0.15418 0.0
C77 C 0.1735 0.87041 0.14105 0.0
C78 C 0.94258 0.64205 0.13556 0.0
C79 C 0.24561 0.81718 0.17003 0.0
C80 C 0.0328 0.65442 0.28306 0.0
C81 C 0.03884 0.59888 0.29912 0.0
C82 C 0.05792 0.54635 0.28775 0.0
C83 C 0.0679 0.54641 0.25939 0.0
C84 C 0.0817 0.49066 0.247 0.0
C85 C 0.08927 0.49 0.21893 0.0
C86 C 0.08513 0.54617 0.2023 0.0
C87 C 0.09054 0.54473 0.17364 0.0
C88 C 0.09248 0.60499 0.15799 0.0
C89 C 0.08594 0.66532 0.17014 0.0
C90 C 0.07406 0.66413 0.19843 0.0
C91 C 0.06164 0.72073 0.21095 0.0
C92 C 0.04867 0.71812 0.2387 0.0
C93 C 0.04841 0.65931 0.25503 0.0
C94 C 0.06382 0.60363 0.24303 0.0
C95 C 0.07462 0.60482 0.21458 0.0
C96 C -0.002 0.15215 0.13771 0.0
C97 C 0.01917 0.20956 0.11417 0.0
O98 O 0.92564 0.83967 0.33234 0.0
O99 O 0.10505 0.92539 0.11486 0.0
O100 O 0.08588 0.28462 0.1226 0.0
O101 O 0.10662 0.33866 0.35435 0.0
H102 H -0.01061 0.86766 0.37021 0.0
H103 H 0.83491 0.81545 0.3705 0.0
H104 H 0.86038 0.91353 0.36052 0.0
H105 H 0.90474 0.89962 0.39253 0.0
H106 H 0.0766 0.86168 0.34166 0.0
H107 H 0.83848 0.72161 0.29787 0.0
H108 H 0.14862 0.74293 0.33387 0.0
H109 H 0.18745 0.84832 0.3325 0.0
H110 H 0.1779 0.7917 0.30195 0.0
H111 H 0.79869 0.60178 0.27316 0.0
H112 H 0.86491 0.56243 0.27583 0.0
H113 H 0.87788 0.63158 0.24981 0.0
H114 H -0.007 0.2578 0.3681 0.0
H115 H 0.98067 0.14026 0.34403 0.0
H116 H 0.08491 0.20142 0.33359 0.0
H117 H 0.00511 0.21655 0.31972 0.0
H118 H 0.95917 0.30588 0.3314 0.0
H119 H 0.21913 0.48091 0.34303 0.0
H120 H 0.91378 0.38888 0.27643 0.0
H121 H 0.8971 0.43192 0.30559 0.0
H122 H 0.86721 0.32829 0.3054 0.0
H123 H 0.27937 0.6089 0.3246 0.0
H124 H 0.2111 0.64545 0.3191 0.0
H125 H 0.23228 0.60321 0.29081 0.0
H126 H 0.9642 0.21242 0.10761 0.0
H127 H 0.95297 0.28164 0.13982 0.0
H128 H 0.21485 0.42483 0.13305 0.0
H129 H 0.93109 0.39249 0.18483 0.0
H130 H 0.8776 0.33625 0.15336 0.0
H131 H 0.92725 0.44383 0.15505 0.0
H132 H 0.29639 0.55802 0.15082 0.0
H133 H 0.25461 0.58137 0.17883 0.0
H134 H 0.24382 0.61076 0.14494 0.0
H135 H 0.16583 0.00263 0.14844 0.0
H136 H 0.1235 0.09635 0.13403 0.0
H137 H 0.03857 -0.0031 0.13984 0.0
H138 H 0.06034 0.02791 0.10534 0.0
H139 H 0.97699 0.78055 0.1125 0.0
H140 H 0.23105 0.92773 0.14252 0.0
H141 H 0.92115 0.6248 0.15645 0.0
H142 H 0.95031 0.59455 0.12698 0.0
H143 H 0.89424 0.64436 0.12255 0.0
H144 H 0.30205 0.87517 0.16585 0.0
H145 H 0.25477 0.76778 0.16481 0.0
H146 H 0.23745 0.81581 0.19233 0.0
H147 H 0.02827 0.59628 0.32073 0.0
H148 H 0.08545 0.44605 0.25877 0.0
H149 H 0.09888 0.44515 0.21045 0.0
H150 H 0.09854 0.60462 0.13609 0.0
H151 H 0.06064 0.76707 0.19939 0.0
H152 H 0.03894 0.76286 0.24721 0.0
H153 H 0.05423 0.15572 0.14698 0.0
H154 H 0.95188 0.08956 0.13035 0.0
H155 H 0.97127 0.16868 0.15397 0.0
C156 C 0.10827 0.9838 0.69209 0.0
C157 C 0.16643 0.05098 0.674 0.0
C158 C 0.26004 0.03497 0.64695 0.0
C159 C 0.3267 0.11445 0.64646 0.0
C160 C 0.40228 0.13207 0.63718 0.0
C161 C 0.41157 0.06868 0.62884 0.0
C162 C 0.34589 -0.01165 0.63107 0.0
C163 C 0.27026 0.9727 0.63943 0.0
C164 C 0.47081 0.21839 0.63508 0.0
C165 C 0.35411 0.91895 0.62341 0.0
C166 C 0.08137 0.26456 0.67734 0.0
C167 C -0.0123 0.20597 0.67556 0.0
C168 C 0.87094 0.21496 0.65621 0.0
C169 C 0.81207 0.13217 0.65417 0.0
C170 C 0.73114 0.10292 0.64304 0.0
C171 C 0.70876 0.15745 0.63392 0.0
C172 C 0.76676 0.24078 0.63733 0.0
C173 C 0.84719 0.26831 0.64831 0.0
C174 C 0.67061 0.01372 0.63976 0.0
C175 C 0.74494 0.30073 0.6281 0.0
C176 C 0.8463 0.17086 0.46903 0.0
C177 C 0.79069 0.09046 0.47499 0.0
C178 C 0.71272 0.06597 0.48372 0.0
C179 C 0.69024 0.12303 0.48672 0.0
C180 C 0.74396 0.20279 0.47916 0.0
C181 C 0.82124 0.22549 0.47022 0.0
C182 C 0.6558 0.97993 0.49096 0.0
C183 C 0.7213 0.26485 0.4818 0.0
C184 C 0.02295 0.88983 0.46265 0.0
C185 C 0.10474 0.96928 0.46012 0.0
C186 C 0.23646 0.98208 0.45646 0.0
C187 C 0.26201 0.92797 0.45961 0.0
C188 C 0.34018 0.95256 0.47225 0.0
C189 C 0.39427 0.03368 0.48114 0.0
C190 C 0.37104 0.08983 0.47588 0.0
C191 C 0.29189 0.06317 0.46387 0.0
C192 C 0.36348 0.89137 0.47728 0.0
C193 C 0.42846 0.17741 0.48401 0.0
C194 C 0.48503 0.08607 0.61443 0.0
C195 C 0.55931 0.11034 0.62986 0.0
C196 C 0.63002 0.1281 0.61701 0.0
C197 C 0.6267 0.12087 0.58811 0.0
C198 C 0.69673 0.13851 0.57458 0.0
C199 C 0.69347 0.13258 0.54619 0.0
C200 C 0.61985 0.10802 0.53009 0.0
C201 C 0.61609 0.10204 0.50114 0.0
C202 C 0.54196 0.07706 0.48567 0.0
C203 C 0.471 0.05827 0.49846 0.0
C204 C 0.47379 0.06464 0.5274 0.0
C205 C 0.40388 0.04745 0.54088 0.0
C206 C 0.40772 0.0556 0.56925 0.0
C207 C 0.48098 0.07901 0.58545 0.0
C208 C 0.55196 0.09616 0.57231 0.0
C209 C 0.54847 0.08942 0.54325 0.0
C210 C 0.05817 0.2249 0.47532 0.0
C211 C 0.96826 0.16125 0.46649 0.0
O212 O 0.18393 0.0165 0.653 0.0
O213 O 0.1575 0.95451 0.44695 0.0
O214 O 0.92454 0.19852 0.46238 0.0
O215 O 0.95123 0.2463 0.66526 0.0
H216 H 0.22372 0.09253 0.68707 0.0
H217 H 0.13041 0.94249 0.69587 0.0
H218 H 0.04471 0.94851 0.682 0.0
H219 H 0.10815 0.00819 0.7124 0.0
H220 H 0.3186 0.16278 0.65209 0.0
H221 H 0.21839 0.9115 0.63999 0.0
H222 H 0.5262 0.23038 0.64804 0.0
H223 H 0.45311 0.26074 0.64172 0.0
H224 H 0.4882 0.2302 0.61358 0.0
H225 H 0.30582 0.86223 0.632 0.0
H226 H 0.4158 0.93093 0.63079 0.0
H227 H 0.34768 0.91064 0.60075 0.0
H228 H 0.97246 0.15459 0.66165 0.0
H229 H 0.11412 0.23881 0.68825 0.0
H230 H 0.09853 0.32095 0.68858 0.0
H231 H 0.10293 0.27935 0.65637 0.0
H232 H 0.82923 0.0901 0.66054 0.0
H233 H 0.89274 0.33204 0.65025 0.0
H234 H 0.65681 -0.00421 0.6176 0.0
H235 H 0.61166 -0.00249 0.64833 0.0
H236 H 0.69473 0.97923 0.65006 0.0
H237 H 0.79358 0.36298 0.635 0.0
H238 H 0.68573 0.28585 0.63612 0.0
H239 H 0.73652 0.29787 0.60536 0.0
H240 H 0.94498 0.11912 0.48353 0.0
H241 H 0.80784 0.04663 0.47331 0.0
H242 H 0.8639 0.287 0.46512 0.0
H243 H 0.65156 0.97673 0.51351 0.0
H244 H 0.67772 0.94092 0.48438 0.0
H245 H 0.59269 0.95629 0.48126 0.0
H246 H 0.76772 0.32311 0.47356 0.0
H247 H 0.71601 0.27454 0.50374 0.0
H248 H 0.66025 0.24312 0.47073 0.0
H249 H 0.13118 -0.00561 0.48134 0.0
H250 H 0.97894 0.90008 0.47279 0.0
H251 H 0.0339 0.8491 0.4753 0.0
H252 H -0.00503 0.86007 0.44213 0.0
H253 H 0.219 0.86564 0.45341 0.0
H254 H 0.27323 0.10561 0.46058 0.0
H255 H 0.37468 0.88798 0.49966 0.0
H256 H 0.42175 0.91005 0.46773 0.0
H257 H 0.3148 0.8308 0.46886 0.0
H258 H 0.40676 0.21493 0.47459 0.0
H259 H 0.49155 0.19922 0.47786 0.0
H260 H 0.43254 0.1854 0.50664 0.0
H261 H 0.56233 0.11616 0.65202 0.0
H262 H 0.75521 0.15744 0.58574 0.0
H263 H 0.74966 0.14752 0.53707 0.0
H264 H 0.53965 0.07281 0.46348 0.0
H265 H 0.34535 0.02809 0.52966 0.0
H266 H 0.35213 0.04293 0.57825 0.0
H267 H 0.0948 0.1967 0.479 0.0
H268 H 0.06116 0.25587 0.49473 0.0
H269 H 0.08587 0.27035 0.45943 0.0
C270 C 0.74835 0.90994 0.75534 0.0
C271 C 0.83492 0.95832 0.77051 0.0
C272 C 0.79995 0.86381 0.80777 0.0
C273 C 0.74344 0.87682 0.81989 0.0
C274 C 0.68386 0.81839 0.83601 0.0
C275 C 0.68336 0.74741 0.84091 0.0
C276 C 0.74611 0.73858 0.8312 0.0
C277 C 0.80368 0.7971 0.81469 0.0
C278 C 0.61856 0.83028 0.84641 0.0
C279 C 0.74931 0.66504 0.83686 0.0
C280 C 0.27746 0.23507 0.73998 0.0
C281 C 0.22244 0.23386 0.76175 0.0
C282 C 0.3009 0.3681 0.78447 0.0
C283 C 0.36314 0.36011 0.79788 0.0
C284 C 0.42408 0.42082 0.81601 0.0
C285 C 0.42154 0.48995 0.82138 0.0
C286 C 0.35964 0.4986 0.8077 0.0
C287 C 0.30053 0.43772 0.78921 0.0
C288 C 0.49051 0.41054 0.82977 0.0
C289 C 0.35504 0.57143 0.813 0.0
C290 C 0.22248 0.2844 0.97105 0.0
C291 C 0.29985 0.29218 0.97468 0.0
C292 C 0.37297 0.36633 0.97184 0.0
C293 C 0.36874 0.43426 0.96579 0.0
C294 C 0.29156 0.42796 0.9645 0.0
C295 C 0.21931 0.35276 0.96674 0.0
C296 C 0.45438 0.37117 0.97375 0.0
C297 C 0.2849 0.49966 0.95901 0.0
C298 C 0.92512 0.84691 0.06965 0.0
C299 C 0.91148 0.88198 0.04343 0.0
C300 C 0.76777 0.80316 0.02378 0.0
C301 C 0.76925 0.73716 0.01379 0.0
C302 C 0.7051 0.6796 -0.00442 0.0
C303 C 0.6381 0.68804 -0.0127 0.0
C304 C 0.63482 0.75258 -0.0018 0.0
C305 C 0.69962 0.80908 0.01646 0.0
C306 C 0.70952 0.61043 0.98477 0.0
C307 C 0.56385 0.76284 -0.00998 0.0
C308 C 0.61108 0.6778 0.85236 0.0
C309 C 0.55061 0.61966 0.83356 0.0
C310 C 0.48124 0.55115 0.84233 0.0
C311 C 0.47061 0.54043 0.87063 0.0
C312 C 0.40075 0.47258 0.88004 0.0
C313 C 0.39152 0.46134 0.90787 0.0
C314 C 0.45115 0.51813 0.92749 0.0
C315 C 0.4418 0.50697 0.95589 0.0
C316 C 0.50295 0.56361 0.9749 0.0
C317 C 0.57373 0.63163 0.9662 0.0
C318 C 0.58352 0.64433 0.93783 0.0
C319 C 0.65355 0.71232 0.92832 0.0
C320 C 0.66286 0.72362 0.90035 0.0
C321 C 0.60245 0.66749 0.88083 0.0
C322 C 0.53157 0.59857 0.88996 0.0
C323 C 0.52194 0.5872 0.91845 0.0
C324 C 0.05175 0.07265 0.96822 0.0
C325 C 0.13918 0.13983 0.97811 0.0
O326 O 0.84941 0.91192 0.78853 0.0
O327 O 0.83019 0.86203 0.04052 0.0
O328 O 0.14976 0.21253 0.97098 0.0
O329 O 0.24056 0.31094 0.76674 0.0
H330 H 0.84266 0.01106 0.78181 0.0
H331 H 0.69918 0.8951 0.76923 0.0
H332 H 0.73743 0.85331 0.74609 0.0
H333 H 0.74197 0.94536 0.73877 0.0
H334 H 0.74347 0.9308 0.81581 0.0
H335 H 0.84918 0.78881 0.80586 0.0
H336 H 0.55685 0.78293 0.83718 0.0
H337 H 0.62875 0.88971 0.84142 0.0
H338 H 0.61781 0.82455 0.86898 0.0
H339 H 0.80924 0.67345 0.8321 0.0
H340 H 0.69926 0.61361 0.82402 0.0
H341 H 0.73917 0.64953 0.85868 0.0
H342 H 0.23219 0.20856 0.7809 0.0
H343 H 0.26761 0.17465 0.73699 0.0
H344 H 0.34366 0.27731 0.74643 0.0
H345 H 0.2634 0.25426 0.72009 0.0
H346 H 0.36495 0.307 0.7943 0.0
H347 H 0.2526 0.44355 0.77867 0.0
H348 H 0.48068 0.40066 0.8519 0.0
H349 H 0.55222 0.46563 0.82813 0.0
H350 H 0.4905 0.3589 0.82071 0.0
H351 H 0.30114 0.56766 0.80148 0.0
H352 H 0.41225 0.62586 0.80698 0.0
H353 H 0.35093 0.57859 0.83526 0.0
H354 H 0.18231 0.12863 0.96778 0.0
H355 H 0.30388 0.24045 0.97877 0.0
H356 H 0.15961 0.34667 0.9645 0.0
H357 H 0.4824 0.38859 0.95376 0.0
H358 H 0.44763 0.31346 0.97931 0.0
H359 H 0.49777 0.4181 -0.01064 0.0
H360 H 0.22437 0.48898 0.96419 0.0
H361 H 0.29163 0.51279 0.93692 0.0
H362 H 0.33503 0.55331 0.97097 0.0
H363 H 0.92674 0.85851 0.02562 0.0
H364 H -0.01182 0.85744 0.07115 0.0
H365 H 0.88011 0.78124 0.06932 0.0
H366 H 0.91715 0.87455 0.08803 0.0
H367 H 0.82007 0.73009 0.02013 0.0
H368 H 0.6984 0.85951 0.02459 0.0
H369 H 0.71399 0.61411 0.96223 0.0
H370 H 0.65221 0.55291 -0.01135 0.0
H371 H 0.76338 0.60987 -0.0057 0.0
H372 H 0.56952 0.81531 0.00079 0.0
H373 H 0.50476 0.70815 -0.00536 0.0
H374 H 0.56106 0.77061 0.96756 0.0
H375 H 0.55821 0.62736 0.81175 0.0
H376 H 0.35242 0.42699 0.866 0.0
H377 H 0.33679 0.4072 0.91369 0.0
H378 H 0.49585 0.55422 -0.00334 0.0
H379 H 0.70205 0.75756 0.9424 0.0
H380 H 0.71802 0.77681 0.89417 0.0
H381 H 0.04073 0.01364 0.97436 0.0
H382 H 0.04371 0.0717 0.94549 0.0
H383 H 0.00496 0.08166 0.97683 0.0
loop_
_geom_bond_atom_site_label_1
_geom_bond_atom_site_label_2
_geom_bond_distance
_geom_bond_site_symmetry_2
_ccdc_geom_bond_type
Mg0 O1 2.028 . S
Mg0 O7 1.986 . S
Mg0 O9 2.114 . S
Mg0 O10 2.251 . S
Mg0 O13 2.010 . S
O1 Mg0 2.028 . S
O1 C4 1.250 1_455 S
O2 Mg3 2.028 1_655 S
O2 C4 1.248 . S
Mg3 O2 2.028 1_455 S
Mg3 O8 2.032 . S
Mg3 O10 2.079 . S
C4 O1 1.250 1_655 S
C4 O2 1.248 . S
C5 O6 1.264 1_565 S
C5 O13 1.249 1_565 S
O6 C5 1.264 1_545 S
O7 Mg0 1.986 . S
O7 C11 1.246 . S
O8 Mg3 2.032 . S
O8 C11 1.259 . S
O9 Mg0 2.114 . S
O9 C12 1.252 . S
O10 Mg0 2.251 . S
O10 Mg3 2.079 . S
O10 C12 1.273 . S
C11 O7 1.246 . S
C11 O8 1.259 . S
C12 O9 1.252 . S
C12 O10 1.273 . S
O13 Mg0 2.010 . S
O13 C5 1.249 1_545 S
Mg14 O15 2.028 1_655 S
Mg14 O21 1.986 1_655 S
Mg14 O23 2.114 1_545 S
Mg14 O24 2.251 . S
Mg14 O27 2.010 1_545 S
O15 Mg14 2.028 1_455 S
O15 C18 1.250 . S
O16 Mg17 2.028 . S
O16 C18 1.248 . S
Mg17 O16 2.028 . S
Mg17 O22 2.032 . S
Mg17 O24 2.079 1_455 S
C18 O15 1.250 . S
C18 O16 1.248 . S
C19 O20 1.264 . S
C19 O27 1.249 . S
O20 C19 1.264 . S
O21 Mg14 1.986 1_455 S
O21 C25 1.246 . S
O22 Mg17 2.032 . S
O22 C25 1.259 . S
O23 Mg14 2.114 1_565 S
O23 C26 1.252 1_565 S
O24 Mg14 2.251 . S
O24 Mg17 2.079 1_655 S
O24 C26 1.273 . S
C25 O21 1.246 . S
C25 O22 1.259 . S
C26 O23 1.252 1_545 S
C26 O24 1.273 . S
O27 Mg14 2.010 1_565 S
O27 C19 1.249 . S
Mg28 O29 2.028 . S
Mg28 O35 1.986 1_455 S
Mg28 O37 2.114 1_545 S
Mg28 O38 2.251 1_455 S
Mg28 O41 2.010 . S
O29 Mg28 2.028 . S
O29 C32 1.250 . S
O30 Mg31 2.028 1_455 S
O30 C32 1.248 . S
Mg31 O30 2.028 1_655 S
Mg31 O36 2.032 . S
Mg31 O38 2.079 . S
C32 O29 1.250 . S
C32 O30 1.248 . S
C33 O34 1.264 1_545 S
C33 O41 1.249 . S
O34 C33 1.264 1_565 S
O35 Mg28 1.986 1_655 S
O35 C39 1.246 . S
O36 Mg31 2.032 . S
O36 C39 1.259 . S
O37 Mg28 2.114 1_565 S
O37 C40 1.252 1_455 S
O38 Mg28 2.251 1_655 S
O38 Mg31 2.079 . S
O38 C40 1.273 1_545 S
C39 O35 1.246 . S
C39 O36 1.259 . S
C40 O37 1.252 1_655 S
C40 O38 1.273 1_565 S
O41 Mg28 2.010 . S
O41 C33 1.249 . S
C42 C43 1.560 . S
C42 H103 0.959 . S
C42 H104 0.959 . S
C42 H105 0.960 . S
C43 C42 1.560 . S
C43 O98 1.426 . S
C43 H102 0.980 1_655 S
C44 C45 1.407 1_655 S
C44 C49 1.418 . S
C44 O98 1.334 . S
C45 C44 1.407 1_455 S
C45 C46 1.360 . S
C45 H106 0.929 . S
C46 C45 1.360 . S
C46 C47 1.401 . S
C46 C50 1.527 . S
C47 C46 1.401 . S
C47 C48 1.405 1_455 S
C47 C80 1.587 . S
C48 C47 1.405 1_655 S
C48 C49 1.332 . S
C48 C51 1.496 . S
C49 C44 1.418 . S
C49 C48 1.332 . S
C49 H107 0.929 . S
C50 C46 1.527 . S
C50 H108 0.959 . S
C50 H109 0.961 . S
C50 H110 0.961 . S
C51 C48 1.496 . S
C51 H111 0.960 . S
C51 H112 0.960 . S
C51 H113 0.961 . S
C52 C53 1.517 . S
C52 H115 0.961 . S
C52 H116 0.960 . S
C52 H117 0.959 . S
C53 C52 1.517 . S
C53 O101 1.468 . S
C53 H114 0.980 . S
C54 C55 1.349 . S
C54 C59 1.367 . S
C54 O101 1.408 . S
C55 C54 1.349 . S
C55 C56 1.407 . S
C55 H118 0.930 . S
C56 C55 1.407 . S
C56 C57 1.449 . S
C56 C60 1.535 1_455 S
C57 C56 1.449 . S
C57 C58 1.384 . S
C57 C82 1.553 . S
C58 C57 1.384 . S
C58 C59 1.364 . S
C58 C61 1.450 . S
C59 C54 1.367 . S
C59 C58 1.364 . S
C59 H119 0.931 . S
C60 C56 1.535 1_655 S
C60 H120 0.959 . S
C60 H121 0.961 . S
C60 H122 0.959 . S
C61 C58 1.450 . S
C61 H123 0.960 . S
C61 H124 0.960 . S
C61 H125 0.960 . S
C62 C63 1.309 . S
C62 C67 1.304 . S
C62 O100 1.435 . S
C63 C62 1.309 . S
C63 C64 1.476 . S
C63 H127 0.930 . S
C64 C63 1.476 . S
C64 C65 1.400 . S
C64 C68 1.567 1_455 S
C65 C64 1.400 . S
C65 C66 1.373 . S
C65 C87 1.432 . S
C66 C65 1.373 . S
C66 C67 1.339 . S
C66 C69 1.530 . S
C67 C62 1.304 . S
C67 C66 1.339 . S
C67 H128 0.930 . S
C68 C64 1.567 1_655 S
C68 H129 0.961 . S
C68 H130 0.960 . S
C68 H131 0.958 . S
C69 C66 1.530 . S
C69 H132 0.961 . S
C69 H133 0.960 . S
C69 H134 0.960 . S
C70 C71 1.530 1_655 S
C70 H136 0.961 1_655 S
C70 H137 0.961 . S
C70 H138 0.959 . S
C71 C70 1.530 1_455 S
C71 O99 1.412 1_455 S
C71 H135 0.980 . S
C72 C73 1.288 1_455 S
C72 C77 1.377 . S
C72 O99 1.393 1_455 S
C73 C72 1.288 1_655 S
C73 C74 1.369 . S
C73 H139 0.932 . S
C74 C73 1.369 . S
C74 C75 1.398 1_655 S
C74 C78 1.527 . S
C75 C74 1.398 1_455 S
C75 C76 1.380 . S
C75 C89 1.497 . S
C76 C75 1.380 . S
C76 C77 1.383 . S
C76 C79 1.603 . S
C77 C72 1.377 . S
C77 C76 1.383 . S
C77 H140 0.929 . S
C78 C74 1.527 . S
C78 H141 0.961 . S
C78 H142 0.959 . S
C78 H143 0.959 . S
C79 C76 1.603 . S
C79 H144 0.960 . S
C79 H145 0.962 . S
C79 H146 0.961 . S
C80 C47 1.587 . S
C80 C81 1.360 . S
C80 C93 1.412 . S
C81 C80 1.360 . S
C81 C82 1.365 . S
C81 H147 0.929 . S
C82 C57 1.553 . S
C82 C81 1.365 . S
C82 C83 1.404 . S
C83 C82 1.404 . S
C83 C84 1.395 . S
C83 C94 1.451 . S
C84 C83 1.395 . S
C84 C85 1.322 . S
C84 H148 0.930 . S
C85 C84 1.322 . S
C85 C86 1.459 . S
C85 H149 0.929 . S
C86 C85 1.459 . S
C86 C87 1.445 . S
C86 C95 1.395 . S
C87 C65 1.432 . S
C87 C86 1.445 . S
C87 C88 1.370 . S
C88 C87 1.370 . S
C88 C89 1.438 . S
C88 H150 0.930 . S
C89 C75 1.497 . S
C89 C88 1.438 . S
C89 C90 1.360 . S
C90 C89 1.360 . S
C90 C91 1.401 . S
C90 C95 1.446 . S
C91 C90 1.401 . S
C91 C92 1.347 . S
C91 H151 0.929 . S
C92 C91 1.347 . S
C92 C93 1.455 . S
C92 H152 0.930 . S
C93 C80 1.412 . S
C93 C92 1.455 . S
C93 C94 1.331 . S
C94 C83 1.451 . S
C94 C93 1.331 . S
C94 C95 1.497 . S
C95 C86 1.395 . S
C95 C90 1.446 . S
C95 C94 1.497 . S
C96 C97 1.582 . S
C96 H153 0.962 . S
C96 H154 0.959 . S
C96 H155 0.958 . S
C97 C96 1.582 . S
C97 O100 1.458 . S
C97 H126 0.980 . S
O98 C43 1.426 . S
O98 C44 1.334 . S
O99 C71 1.412 1_655 S
O99 C72 1.393 1_655 S
O100 C62 1.435 . S
O100 C97 1.458 . S
O101 C53 1.468 . S
O101 C54 1.408 . S
H102 C43 0.980 1_455 S
H103 C42 0.959 . S
H104 C42 0.959 . S
H105 C42 0.960 . S
H106 C45 0.929 . S
H107 C49 0.929 . S
H108 C50 0.959 . S
H109 C50 0.961 . S
H110 C50 0.961 . S
H111 C51 0.960 . S
H112 C51 0.960 . S
H113 C51 0.961 . S
H114 C53 0.980 . S
H115 C52 0.961 . S
H116 C52 0.960 . S
H117 C52 0.959 . S
H118 C55 0.930 . S
H119 C59 0.931 . S
H120 C60 0.959 . S
H121 C60 0.961 . S
H122 C60 0.959 . S
H123 C61 0.960 . S
H124 C61 0.960 . S
H125 C61 0.960 . S
H126 C97 0.980 . S
H127 C63 0.930 . S
H128 C67 0.930 . S
H129 C68 0.961 . S
H130 C68 0.960 . S
H131 C68 0.958 . S
H132 C69 0.961 . S
H133 C69 0.960 . S
H134 C69 0.960 . S
H135 C71 0.980 . S
H136 C70 0.961 1_455 S
H137 C70 0.961 . S
H138 C70 0.959 . S
H139 C73 0.932 . S
H140 C77 0.929 . S
H141 C78 0.961 . S
H142 C78 0.959 . S
H143 C78 0.959 . S
H144 C79 0.960 . S
H145 C79 0.962 . S
H146 C79 0.961 . S
H147 C81 0.929 . S
H148 C84 0.930 . S
H149 C85 0.929 . S
H150 C88 0.930 . S
H151 C91 0.929 . S
H152 C92 0.930 . S
H153 C96 0.962 . S
H154 C96 0.959 . S
H155 C96 0.958 . S
C156 C157 1.560 . S
C156 H217 0.959 1_545 S
C156 H218 0.959 1_545 S
C156 H219 0.960 . S
C157 C156 1.560 . S
C157 O212 1.426 . S
C157 H216 0.980 . S
C158 C159 1.407 . S
C158 C163 1.418 . S
C158 O212 1.334 . S
C159 C158 1.407 . S
C159 C160 1.360 . S
C159 H220 0.929 . S
C160 C159 1.360 . S
C160 C161 1.401 . S
C160 C164 1.527 . S
C161 C160 1.401 . S
C161 C162 1.405 . S
C161 C194 1.587 . S
C162 C161 1.405 . S
C162 C163 1.332 . S
C162 C165 1.496 1_545 S
C163 C158 1.418 . S
C163 C162 1.332 . S
C163 H221 0.929 1_545 S
C164 C160 1.527 . S
C164 H222 0.959 . S
C164 H223 0.961 . S
C164 H224 0.961 . S
C165 C162 1.496 1_565 S
C165 H225 0.960 . S
C165 H226 0.960 . S
C165 H227 0.961 . S
C166 C167 1.517 1_455 S
C166 H229 0.961 . S
C166 H230 0.960 . S
C166 H231 0.959 . S
C167 C166 1.517 1_655 S
C167 O215 1.468 . S
C167 H228 0.980 . S
C168 C169 1.349 . S
C168 C173 1.367 . S
C168 O215 1.408 . S
C169 C168 1.349 . S
C169 C170 1.407 . S
C169 H232 0.930 . S
C170 C169 1.407 . S
C170 C171 1.449 . S
C170 C174 1.535 . S
C171 C170 1.449 . S
C171 C172 1.384 . S
C171 C196 1.553 . S
C172 C171 1.384 . S
C172 C173 1.364 . S
C172 C175 1.450 . S
C173 C168 1.367 . S
C173 C172 1.364 . S
C173 H233 0.931 . S
C174 C170 1.535 . S
C174 H234 0.959 . S
C174 H235 0.961 . S
C174 H236 0.959 . S
C175 C172 1.450 . S
C175 H237 0.960 . S
C175 H238 0.960 . S
C175 H239 0.960 . S
C176 C177 1.309 . S
C176 C181 1.304 . S
C176 O214 1.435 . S
C177 C176 1.309 . S
C177 C178 1.476 . S
C177 H241 0.930 . S
C178 C177 1.476 . S
C178 C179 1.400 . S
C178 C182 1.567 . S
C179 C178 1.400 . S
C179 C180 1.373 . S
C179 C201 1.432 . S
C180 C179 1.373 . S
C180 C181 1.339 . S
C180 C183 1.530 . S
C181 C176 1.304 . S
C181 C180 1.339 . S
C181 H242 0.930 . S
C182 C178 1.567 . S
C182 H243 0.961 . S
C182 H244 0.960 1_545 S
C182 H245 0.958 1_545 S
C183 C180 1.530 . S
C183 H246 0.961 . S
C183 H247 0.960 . S
C183 H248 0.960 . S
C184 C185 1.530 . S
C184 H250 0.961 . S
C184 H251 0.961 . S
C184 H252 0.959 . S
C185 C184 1.530 . S
C185 O213 1.412 . S
C185 H249 0.980 . S
C186 C187 1.288 . S
C186 C191 1.377 . S
C186 O213 1.393 . S
C187 C186 1.288 . S
C187 C188 1.369 . S
C187 H253 0.932 1_545 S
C188 C187 1.369 . S
C188 C189 1.398 . S
C188 C192 1.527 1_545 S
C189 C188 1.398 . S
C189 C190 1.380 . S
C189 C203 1.497 . S
C190 C189 1.380 . S
C190 C191 1.383 . S
C190 C193 1.603 . S
C191 C186 1.377 . S
C191 C190 1.383 . S
C191 H254 0.929 . S
C192 C188 1.527 1_565 S
C192 H255 0.961 . S
C192 H256 0.959 . S
C192 H257 0.959 . S
C193 C190 1.603 . S
C193 H258 0.960 . S
C193 H259 0.962 . S
C193 H260 0.961 . S
C194 C161 1.587 . S
C194 C195 1.360 . S
C194 C207 1.412 . S
C195 C194 1.360 . S
C195 C196 1.365 . S
C195 H261 0.929 . S
C196 C171 1.553 . S
C196 C195 1.365 . S
C196 C197 1.404 . S
C197 C196 1.404 . S
C197 C198 1.395 . S
C197 C208 1.451 . S
C198 C197 1.395 . S
C198 C199 1.322 . S
C198 H262 0.930 . S
C199 C198 1.322 . S
C199 C200 1.459 . S
C199 H263 0.929 . S
C200 C199 1.459 . S
C200 C201 1.445 . S
C200 C209 1.395 . S
C201 C179 1.432 . S
C201 C200 1.445 . S
C201 C202 1.370 . S
C202 C201 1.370 . S
C202 C203 1.438 . S
C202 H264 0.930 . S
C203 C189 1.497 . S
C203 C202 1.438 . S
C203 C204 1.360 . S
C204 C203 1.360 . S
C204 C205 1.401 . S
C204 C209 1.446 . S
C205 C204 1.401 . S
C205 C206 1.347 . S
C205 H265 0.929 . S
C206 C205 1.347 . S
C206 C207 1.455 . S
C206 H266 0.930 . S
C207 C194 1.412 . S
C207 C206 1.455 . S
C207 C208 1.331 . S
C208 C197 1.451 . S
C208 C207 1.331 . S
C208 C209 1.497 . S
C209 C200 1.395 . S
C209 C204 1.446 . S
C209 C208 1.497 . S
C210 C211 1.582 1_455 S
C210 H267 0.962 . S
C210 H268 0.959 . S
C210 H269 0.958 . S
C211 C210 1.582 1_655 S
C211 O214 1.458 . S
C211 H240 0.980 . S
O212 C157 1.426 . S
O212 C158 1.334 . S
O213 C185 1.412 . S
O213 C186 1.393 . S
O214 C176 1.435 . S
O214 C211 1.458 . S
O215 C167 1.468 . S
O215 C168 1.408 . S
H216 C157 0.980 . S
H217 C156 0.959 1_565 S
H218 C156 0.959 1_565 S
H219 C156 0.960 . S
H220 C159 0.929 . S
H221 C163 0.929 1_565 S
H222 C164 0.959 . S
H223 C164 0.961 . S
H224 C164 0.961 . S
H225 C165 0.960 . S
H226 C165 0.960 . S
H227 C165 0.961 . S
H228 C167 0.980 . S
H229 C166 0.961 . S
H230 C166 0.960 . S
H231 C166 0.959 . S
H232 C169 0.930 . S
H233 C173 0.931 . S
H234 C174 0.959 . S
H235 C174 0.961 . S
H236 C174 0.959 . S
H237 C175 0.960 . S
H238 C175 0.960 . S
H239 C175 0.960 . S
H240 C211 0.980 . S
H241 C177 0.930 . S
H242 C181 0.930 . S
H243 C182 0.961 . S
H244 C182 0.960 1_565 S
H245 C182 0.958 1_565 S
H246 C183 0.961 . S
H247 C183 0.960 . S
H248 C183 0.960 . S
H249 C185 0.980 . S
H250 C184 0.961 . S
H251 C184 0.961 . S
H252 C184 0.959 . S
H253 C187 0.932 1_565 S
H254 C191 0.929 . S
H255 C192 0.961 . S
H256 C192 0.959 . S
H257 C192 0.959 . S
H258 C193 0.960 . S
H259 C193 0.962 . S
H260 C193 0.961 . S
H261 C195 0.929 . S
H262 C198 0.930 . S
H263 C199 0.929 . S
H264 C202 0.930 . S
H265 C205 0.929 . S
H266 C206 0.930 . S
H267 C210 0.962 . S
H268 C210 0.959 . S
H269 C210 0.958 . S
C270 C271 1.560 . S
C270 H331 0.959 . S
C270 H332 0.959 1_655 S
C270 H333 0.960 . S
C271 C270 1.560 . S
C271 O326 1.426 . S
C271 H330 0.980 . S
C272 C273 1.407 . S
C272 C277 1.418 . S
C272 O326 1.334 . S
C273 C272 1.407 . S
C273 C274 1.360 . S
C273 H334 0.929 . S
C274 C273 1.360 . S
C274 C275 1.401 . S
C274 C278 1.527 . S
C275 C274 1.401 . S
C275 C276 1.405 . S
C275 C308 1.587 . S
C276 C275 1.405 . S
C276 C277 1.332 . S
C276 C279 1.496 . S
C277 C272 1.418 . S
C277 C276 1.332 . S
C277 H335 0.929 . S
C278 C274 1.527 . S
C278 H336 0.959 . S
C278 H337 0.961 . S
C278 H338 0.961 . S
C279 C276 1.496 . S
C279 H339 0.960 . S
C279 H340 0.960 . S
C279 H341 0.961 . S
C280 C281 1.517 . S
C280 H343 0.961 . S
C280 H344 0.960 . S
C280 H345 0.959 . S
C281 C280 1.517 . S
C281 O329 1.468 . S
C281 H342 0.980 . S
C282 C283 1.349 . S
C282 C287 1.367 . S
C282 O329 1.408 . S
C283 C282 1.349 . S
C283 C284 1.407 . S
C283 H346 0.930 . S
C284 C283 1.407 . S
C284 C285 1.449 . S
C284 C288 1.535 . S
C285 C284 1.449 . S
C285 C286 1.384 . S
C285 C310 1.553 . S
C286 C285 1.384 . S
C286 C287 1.364 . S
C286 C289 1.450 . S
C287 C282 1.367 . S
C287 C286 1.364 . S
C287 H347 0.931 . S
C288 C284 1.535 . S
C288 H348 0.959 . S
C288 H349 0.961 . S
C288 H350 0.959 . S
C289 C286 1.450 . S
C289 H351 0.960 . S
C289 H352 0.960 . S
C289 H353 0.960 . S
C290 C291 1.309 1_554 S
C290 C295 1.304 1_554 S
C290 O328 1.435 . S
C291 C290 1.309 1_556 S
C291 C292 1.476 . S
C291 H355 0.930 . S
C292 C291 1.476 . S
C292 C293 1.400 . S
C292 C296 1.567 . S
C293 C292 1.400 . S
C293 C294 1.373 . S
C293 C315 1.432 . S
C294 C293 1.373 . S
C294 C295 1.339 . S
C294 C297 1.530 . S
C295 C290 1.304 1_556 S
C295 C294 1.339 . S
C295 H356 0.930 1_556 S
C296 C292 1.567 . S
C296 H357 0.961 . S
C296 H358 0.960 . S
C296 H359 0.958 . S
C297 C294 1.530 . S
C297 H360 0.961 . S
C297 H361 0.960 . S
C297 H362 0.960 . S
C298 C299 1.530 1_455 S
C298 H364 0.961 1_565 S
C298 H365 0.961 . S
C298 H366 0.959 . S
C299 C298 1.530 1_655 S
C299 O327 1.412 . S
C299 H363 0.980 . S
C300 C301 1.288 . S
C300 C305 1.377 . S
C300 O327 1.393 . S
C301 C300 1.288 . S
C301 C302 1.369 1_554 S
C301 H367 0.932 . S
C302 C301 1.369 1_556 S
C302 C303 1.398 . S
C302 C306 1.527 . S
C303 C302 1.398 . S
C303 C304 1.380 . S
C303 C317 1.497 . S
C304 C303 1.380 . S
C304 C305 1.383 1_556 S
C304 C307 1.603 . S
C305 C300 1.377 . S
C305 C304 1.383 1_554 S
C305 H368 0.929 . S
C306 C302 1.527 . S
C306 H369 0.961 . S
C306 H370 0.959 . S
C306 H371 0.959 . S
C307 C304 1.603 . S
C307 H372 0.960 . S
C307 H373 0.962 . S
C307 H374 0.961 . S
C308 C275 1.587 . S
C308 C309 1.360 . S
C308 C321 1.412 . S
C309 C308 1.360 . S
C309 C310 1.365 . S
C309 H375 0.929 . S
C310 C285 1.553 . S
C310 C309 1.365 . S
C310 C311 1.404 . S
C311 C310 1.404 . S
C311 C312 1.395 . S
C311 C322 1.451 . S
C312 C311 1.395 . S
C312 C313 1.322 . S
C312 H376 0.930 . S
C313 C312 1.322 . S
C313 C314 1.459 . S
C313 H377 0.929 . S
C314 C313 1.459 . S
C314 C315 1.445 . S
C314 C323 1.395 . S
C315 C293 1.432 . S
C315 C314 1.445 . S
C315 C316 1.370 . S
C316 C315 1.370 . S
C316 C317 1.438 . S
C316 H378 0.930 . S
C317 C303 1.497 . S
C317 C316 1.438 . S
C317 C318 1.360 . S
C318 C317 1.360 . S
C318 C319 1.401 . S
C318 C323 1.446 . S
C319 C318 1.401 . S
C319 C320 1.347 . S
C319 H379 0.929 . S
C320 C319 1.347 . S
C320 C321 1.455 . S
C320 H380 0.930 . S
C321 C308 1.412 . S
C321 C320 1.455 . S
C321 C322 1.331 . S
C322 C311 1.451 . S
C322 C321 1.331 . S
C322 C323 1.497 . S
C323 C314 1.395 . S
C323 C318 1.446 . S
C323 C322 1.497 . S
C324 C325 1.582 . S
C324 H381 0.962 . S
C324 H382 0.959 . S
C324 H383 0.958 . S
C325 C324 1.582 . S
C325 O328 1.458 . S
C325 H354 0.980 . S
O326 C271 1.426 . S
O326 C272 1.334 . S
O327 C299 1.412 . S
O327 C300 1.393 . S
O328 C290 1.435 . S
O328 C325 1.458 . S
O329 C281 1.468 . S
O329 C282 1.408 . S
H330 C271 0.980 . S
H331 C270 0.959 . S
H332 C270 0.959 1_455 S
H333 C270 0.960 . S
H334 C273 0.929 . S
H335 C277 0.929 . S
H336 C278 0.959 . S
H337 C278 0.961 . S
H338 C278 0.961 . S
H339 C279 0.960 . S
H340 C279 0.960 . S
H341 C279 0.961 . S
H342 C281 0.980 . S
H343 C280 0.961 . S
H344 C280 0.960 . S
H345 C280 0.959 . S
H346 C283 0.930 . S
H347 C287 0.931 . S
H348 C288 0.959 . S
H349 C288 0.961 . S
H350 C288 0.959 . S
H351 C289 0.960 . S
H352 C289 0.960 . S
H353 C289 0.960 . S
H354 C325 0.980 . S
H355 C291 0.930 . S
H356 C295 0.930 1_554 S
H357 C296 0.961 . S
H358 C296 0.960 . S
H359 C296 0.958 . S
H360 C297 0.961 . S
H361 C297 0.960 . S
H362 C297 0.960 . S
H363 C299 0.980 . S
H364 C298 0.961 1_545 S
H365 C298 0.961 . S
H366 C298 0.959 . S
H367 C301 0.932 . S
H368 C305 0.929 . S
H369 C306 0.961 . S
H370 C306 0.959 . S
H371 C306 0.959 . S
H372 C307 0.960 . S
H373 C307 0.962 . S
H374 C307 0.961 . S
H375 C309 0.929 . S
H376 C312 0.930 . S
H377 C313 0.929 . S
H378 C316 0.930 . S
H379 C319 0.929 . S
H380 C320 0.930 . S
H381 C324 0.962 . S
H382 C324 0.959 . S
H383 C324 0.958 . S
C97 C11 1.422 . S
C26 C211 1.674 . S
C40 C271 1.083 . S
C5 C71 1.626 . S
C185 C18 1.205 . S
C32 C281 0.612 . S
C167 C39 0.649 . S
C4 C299 1.111 1_545 S
C43 C19 1.334 . S
C157 C33 1.338 . S
C325 C12 1.471 . S
C25 C53 0.433 . S
