# Generated by pormake.
# Topology ftw, (4,12)-cn, num edge types: 1
# Building blocks:
#     Node 0, Type 0, BuildingBlock: NAHDIM_clean_linker_0, # of connection points: 4
#     Node 1, Type 0, BuildingBlock: NAHDIM_clean_linker_0, # of connection points: 4
#     Node 2, Type 0, BuildingBlock: NAHDIM_clean_linker_0, # of connection points: 4
#     Node 3, Type 1, BuildingBlock: EZIPEK_clean_sbu_0, # of connection points: 12
#     Edge 4, Type (0, 1), BuildingBlock: OJICUG_clean_linker_0, # of connection points: 2
#     Edge 5, Type (0, 1), BuildingBlock: OJICUG_clean_linker_0, # of connection points: 2
#     Edge 6, Type (0, 1), BuildingBlock: OJICUG_clean_linker_0, # of connection points: 2
#     Edge 7, Type (0, 1), BuildingBlock: OJICUG_clean_linker_0, # of connection points: 2
#     Edge 8, Type (0, 1), BuildingBlock: OJICUG_clean_linker_0, # of connection points: 2
#     Edge 9, Type (0, 1), BuildingBlock: OJICUG_clean_linker_0, # of connection points: 2
#     Edge 10, Type (0, 1), BuildingBlock: OJICUG_clean_linker_0, # of connection points: 2
#     Edge 11, Type (0, 1), BuildingBlock: OJICUG_clean_linker_0, # of connection points: 2
#     Edge 12, Type (0, 1), BuildingBlock: OJICUG_clean_linker_0, # of connection points: 2
#     Edge 13, Type (0, 1), BuildingBlock: OJICUG_clean_linker_0, # of connection points: 2
#     Edge 14, Type (0, 1), BuildingBlock: OJICUG_clean_linker_0, # of connection points: 2
#     Edge 15, Type (0, 1), BuildingBlock: OJICUG_clean_linker_0, # of connection points: 2
# Relax obj value: 0.006
# Max RMSD: 0.061
# Mean RMSD: 0.048
data_MOF--net-ftw--node1-EZIPEK_clean_sbu_0--node2-NAHDIM_clean_linker_0--edge1-OJICUG_clean_linker_0
_symmetry_space_group_name_H-M    P1
_symmetry_Int_Tables_number       1
_symmetry_cell_setting            triclinic
loop_
_symmetry_equiv_pos_as_xyz
'x, y, z'
_cell_length_a     27.207057
_cell_length_b     26.759459
_cell_length_c     26.318751
_cell_angle_alpha  90.592986
_cell_angle_beta   89.506899
_cell_angle_gamma 89.401009
loop_
_atom_site_label
_atom_site_type_symbol
_atom_site_fract_x
_atom_site_fract_y
_atom_site_fract_z
_atom_type_partial_charge
C0 C 0.13714 0.75547 0.2785 0.0
C1 C 0.09022 0.73596 0.25358 0.0
C2 C 0.04753 0.6835 0.31603 0.0
C3 C 0.00369 0.679 0.34343 0.0
C4 C 0.99348 0.63589 0.37126 0.0
C5 C 0.02888 0.59679 0.37287 0.0
C6 C 0.07349 0.60102 0.34532 0.0
C7 C 0.08227 0.64419 0.31683 0.0
C8 C 0.94488 0.63235 0.39905 0.0
C9 C 0.11212 0.56018 0.34651 0.0
C10 C 0.88563 0.22302 0.31755 0.0
C11 C 0.93418 0.24861 0.30497 0.0
C12 C 0.94097 0.33824 0.32204 0.0
C13 C 0.98875 0.33974 0.34163 0.0
C14 C 0.00468 0.38149 0.36953 0.0
C15 C 0.97198 0.42227 0.37829 0.0
C16 C 0.92405 0.42104 0.35784 0.0
C17 C 0.90945 0.37923 0.32934 0.0
C18 C 0.05664 0.3823 0.38913 0.0
C19 C 0.88824 0.46385 0.36613 0.0
C20 C 0.93868 0.357 0.71674 0.0
C21 C 0.98592 0.35332 0.6951 0.0
C22 C 0.00435 0.39176 0.66467 0.0
C23 C 0.97454 0.43429 0.65516 0.0
C24 C 0.92725 0.43838 0.67779 0.0
C25 C 0.91026 0.3999 0.70897 0.0
C26 C 0.05568 0.38704 0.64283 0.0
C27 C 0.8945 0.48323 0.66874 0.0
C28 C 0.14697 0.80216 0.68446 0.0
C29 C 0.09864 0.77829 0.70098 0.0
C30 C 0.08721 0.68796 0.69332 0.0
C31 C 0.11592 0.64469 0.68772 0.0
C32 C 0.0972 0.60175 0.66416 0.0
C33 C 0.04807 0.60196 0.647 0.0
C34 C 0.01792 0.64481 0.65514 0.0
C35 C 0.0379 0.68754 0.67809 0.0
C36 C 0.13022 0.55659 0.65656 0.0
C37 C 0.96485 0.64563 0.63895 0.0
C38 C 0.0192 0.55198 0.40411 0.0
C39 C 0.00279 0.50878 0.37961 0.0
C40 C 0.98847 0.46693 0.40724 0.0
C41 C 0.9894 0.46848 0.46103 0.0
C42 C 0.97229 0.42843 0.49025 0.0
C43 C 0.97312 0.43059 0.54317 0.0
C44 C 0.99175 0.47258 0.56889 0.0
C45 C 0.99313 0.47512 0.62264 0.0
C46 C 0.01167 0.51762 0.64682 0.0
C47 C 0.02886 0.55803 0.61887 0.0
C48 C 0.02779 0.55625 0.56518 0.0
C49 C 0.04498 0.59624 0.53592 0.0
C50 C 0.0425 0.5948 0.4832 0.0
C51 C 0.02327 0.55307 0.45761 0.0
C52 C 0.00745 0.51155 0.48622 0.0
C53 C 0.00911 0.51339 0.54013 0.0
C54 C 0.87481 0.24512 0.73353 0.0
C55 C 0.92547 0.26927 0.73552 0.0
O56 O 0.05471 0.72657 0.29017 0.0
O57 O 0.10816 0.72908 0.71407 0.0
O58 O 0.91958 0.31995 0.74539 0.0
O59 O 0.92456 0.29851 0.29483 0.0
H60 H 0.09931 0.70102 0.232 0.0
H61 H 0.15288 0.72699 0.30421 0.0
H62 H 0.12934 0.78992 0.30122 0.0
H63 H 0.16518 0.76392 0.24895 0.0
H64 H 0.97714 0.70945 0.34258 0.0
H65 H 0.11655 0.64709 0.29605 0.0
H66 H 0.92774 0.59556 0.39146 0.0
H67 H 0.91875 0.6624 0.38793 0.0
H68 H 0.95106 0.63547 0.44058 0.0
H69 H 0.1465 0.57083 0.32647 0.0
H70 H 0.09761 0.52587 0.32822 0.0
H71 H 0.12099 0.55094 0.38647 0.0
H72 H 0.95799 0.24476 0.33895 0.0
H73 H 0.89221 0.18319 0.32719 0.0
H74 H 0.86015 0.22496 0.28481 0.0
H75 H 0.86781 0.24183 0.35083 0.0
H76 H 0.0139 0.30882 0.33429 0.0
H77 H 0.8729 0.37793 0.31337 0.0
H78 H 0.0752 0.41693 0.37674 0.0
H79 H 0.07866 0.34947 0.37572 0.0
H80 H 0.05596 0.38254 0.43131 0.0
H81 H 0.85079 0.45483 0.35251 0.0
H82 H 0.90145 0.49716 0.34548 0.0
H83 H 0.88601 0.47393 0.40714 0.0
H84 H 0.94265 0.26295 0.69734 0.0
H85 H 0.00858 0.3207 0.70248 0.0
H86 H 0.87406 0.40253 0.72639 0.0
H87 H 0.0538 0.38356 0.60083 0.0
H88 H 0.07576 0.35397 0.65764 0.0
H89 H 0.07694 0.42117 0.6518 0.0
H90 H 0.85703 0.47846 0.68497 0.0
H91 H 0.89142 0.49013 0.62735 0.0
H92 H 0.91106 0.51687 0.68638 0.0
H93 H 0.07346 0.78026 0.66789 0.0
H94 H 0.14059 0.84136 0.67242 0.0
H95 H 0.16306 0.78091 0.65175 0.0
H96 H 0.17379 0.80185 0.71609 0.0
H97 H 0.15368 0.64522 0.70051 0.0
H98 H 0.01495 0.72037 0.68437 0.0
H99 H 0.13211 0.54632 0.61559 0.0
H100 H 0.11463 0.5243 0.67712 0.0
H101 H 0.1681 0.5631 0.67042 0.0
H102 H 0.94494 0.67961 0.65288 0.0
H103 H 0.94574 0.61208 0.65333 0.0
H104 H 0.96303 0.64451 0.59684 0.0
H105 H 0.0004 0.50799 0.33847 0.0
H106 H 0.95769 0.39512 0.47252 0.0
H107 H 0.95911 0.39882 0.56367 0.0
H108 H 0.01256 0.51935 0.68802 0.0
H109 H 0.06018 0.62936 0.55344 0.0
H110 H 0.05595 0.62683 0.4627 0.0
H111 H 0.87862 0.2044 0.72549 0.0
H112 H 0.85277 0.26219 0.70276 0.0
H113 H 0.8547 0.25065 0.77013 0.0
C114 C 0.78605 0.12459 0.68387 0.0
C115 C 0.76429 0.0859 0.72013 0.0
C116 C 0.70357 0.03804 0.67127 0.0
C117 C 0.69246 0.99067 0.65206 0.0
C118 C 0.64721 0.98122 0.62876 0.0
C119 C 0.61241 0.02052 0.62386 0.0
C120 C 0.62338 0.06868 0.64303 0.0
C121 C 0.66866 0.07693 0.66673 0.0
C122 C 0.63672 0.9293 0.60905 0.0
C123 C 0.58727 0.11157 0.63854 0.0
C124 C 0.26414 0.01877 0.81146 0.0
C125 C 0.30835 0.02745 0.77902 0.0
C126 C 0.35311 0.99347 0.70605 0.0
C127 C 0.37289 0.03876 0.68926 0.0
C128 C 0.41213 0.03932 0.65444 0.0
C129 C 0.43334 0.99364 0.6372 0.0
C130 C 0.41335 0.94786 0.65363 0.0
C131 C 0.37271 0.94843 0.68708 0.0
C132 C 0.43134 0.08897 0.63669 0.0
C133 C 0.43545 0.89849 0.63661 0.0
C134 C 0.33821 0.9373 0.30864 0.0
C135 C 0.34056 0.98686 0.32634 0.0
C136 C 0.38221 0.00392 0.35226 0.0
C137 C 0.42176 0.97042 0.36124 0.0
C138 C 0.41961 0.92066 0.34264 0.0
C139 C 0.37807 0.90502 0.31587 0.0
C140 C 0.38417 0.05775 0.36969 0.0
C141 C 0.46119 0.88397 0.35106 0.0
C142 C 0.78549 0.12152 0.3007 0.0
C143 C 0.7628 0.07234 0.28296 0.0
C144 C 0.67453 0.06336 0.29413 0.0
C145 C 0.63499 0.09573 0.304 0.0
C146 C 0.59416 0.07999 0.33225 0.0
C147 C 0.5925 0.03016 0.34966 0.0
C148 C 0.63122 0.99636 0.33711 0.0
C149 C 0.6721 0.01347 0.30969 0.0
C150 C 0.55336 0.11693 0.34455 0.0
C151 C 0.62976 0.94251 0.35341 0.0
C152 C 0.56526 0.01157 0.59725 0.0
C153 C 0.52308 0.00311 0.62651 0.0
C154 C 0.4776 0.99455 0.60369 0.0
C155 C 0.47439 0.99196 0.55008 0.0
C156 C 0.42996 0.98071 0.52575 0.0
C157 C 0.42738 0.97806 0.47294 0.0
C158 C 0.46854 0.9888 0.4424 0.0
C159 C 0.46613 0.98742 0.38868 0.0
C160 C 0.50718 0.00058 0.35965 0.0
C161 C 0.55118 0.01421 0.38268 0.0
C162 C 0.55497 0.01379 0.43624 0.0
C163 C 0.59915 0.02592 0.46059 0.0
C164 C 0.60277 0.02465 0.51322 0.0
C165 C 0.56199 0.01247 0.54367 0.0
C166 C 0.51666 0.00162 0.52002 0.0
C167 C 0.5134 0.00132 0.46618 0.0
C168 C 0.22409 0.88105 0.30708 0.0
C169 C 0.24985 0.9302 0.29532 0.0
O170 O 0.74828 0.04443 0.69325 0.0
O171 O 0.71441 0.08125 0.26937 0.0
O172 O 0.29863 0.91975 0.28336 0.0
O173 O 0.3157 0.9921 0.74066 0.0
H174 H 0.73284 0.1041 0.74064 0.0
H175 H 0.75713 0.13953 0.65855 0.0
H176 H 0.81547 0.1078 0.65949 0.0
H177 H 0.80129 0.15642 0.70585 0.0
H178 H 0.71948 0.96088 0.65557 0.0
H179 H 0.67643 0.11401 0.68096 0.0
H180 H 0.60067 0.91654 0.62384 0.0
H181 H 0.66558 0.90185 0.61994 0.0
H182 H 0.63448 0.9299 0.56697 0.0
H183 H 0.60391 0.14805 0.64859 0.0
H184 H 0.55577 0.10521 0.66462 0.0
H185 H 0.57276 0.11364 0.5993 0.0
H186 H 0.34284 0.03565 0.8001 0.0
H187 H 0.27911 0.0101 0.85018 0.0
H188 H 0.25205 0.97933 0.80337 0.0
H189 H 0.21929 0.08151 0.7977 0.0
H190 H 0.35772 0.07395 0.70289 0.0
H191 H 0.35715 0.91363 0.69999 0.0
H192 H 0.43612 0.08872 0.59475 0.0
H193 H 0.46784 0.09556 0.65379 0.0
H194 H 0.40654 0.12058 0.64771 0.0
H195 H 0.41721 0.86625 0.65484 0.0
H196 H 0.47521 0.89735 0.64579 0.0
H197 H 0.43224 0.89442 0.59477 0.0
H198 H 0.24691 0.95408 0.33018 0.0
H199 H 0.31033 0.01239 0.31909 0.0
H200 H 0.37606 0.86707 0.30132 0.0
H201 H 0.38474 0.0595 0.41183 0.0
H202 H 0.35221 0.07999 0.35627 0.0
H203 H 0.41851 0.07516 0.35562 0.0
H204 H 0.45193 0.84554 0.33823 0.0
H205 H 0.47072 0.88304 0.39199 0.0
H206 H 0.4943 0.89621 0.32983 0.0
H207 H 0.76484 0.04612 0.31552 0.0
H208 H 0.82412 0.11528 0.31269 0.0
H209 H 0.76435 0.1369 0.33371 0.0
H210 H 0.78488 0.14948 0.26976 0.0
H211 H 0.63705 0.13396 0.291 0.0
H212 H 0.70207 0.98795 0.30029 0.0
H213 H 0.54765 0.11941 0.38633 0.0
H214 H 0.51852 0.10379 0.32758 0.0
H215 H 0.56124 0.15487 0.33 0.0
H216 H 0.65977 0.91973 0.33563 0.0
H217 H 0.59389 0.92584 0.34331 0.0
H218 H 0.63341 0.94061 0.39532 0.0
H219 H 0.52543 0.00447 0.66764 0.0
H220 H 0.39686 0.97311 0.54729 0.0
H221 H 0.39245 0.96832 0.45634 0.0
H222 H 0.50487 1.00015 0.3185 0.0
H223 H 0.63165 0.03612 0.43926 0.0
H224 H 0.63786 0.03393 0.52974 0.0
H225 H 0.18506 0.88808 0.31801 0.0
H226 H 0.24263 0.86228 0.33924 0.0
H227 H 0.22541 0.85552 0.27348 0.0
C228 C 0.77914 0.71874 0.87788 0.0
C229 C 0.7576 0.75022 0.92193 0.0
C230 C 0.70197 0.69537 0.96955 0.0
C231 C 0.69409 0.67306 0.0166 0.0
C232 C 0.65069 0.64711 0.02707 0.0
C233 C 0.61466 0.64242 0.9889 0.0
C234 C 0.62234 0.66471 0.94102 0.0
C235 C 0.66575 0.69122 0.93189 0.0
C236 C 0.64339 0.62469 0.07895 0.0
C237 C 0.58481 0.66015 0.89937 0.0
C238 C 0.24592 0.71284 0.10054 0.0
C239 C 0.26842 0.73077 0.05053 0.0
C240 C 0.35593 0.71125 0.04972 0.0
C241 C 0.362 0.68569 0.00329 0.0
C242 C 0.40287 0.65418 0.99458 0.0
C243 C 0.43803 0.64769 0.03345 0.0
C244 C 0.43197 0.6737 0.08026 0.0
C245 C 0.39127 0.70577 0.08746 0.0
C246 C 0.409 0.62867 0.94345 0.0
C247 C 0.46861 0.66785 0.12255 0.0
C248 C 0.35483 0.3167 0.06509 0.0
C249 C 0.35786 0.33809 0.01677 0.0
C250 C 0.39849 0.36704 0.00293 0.0
C251 C 0.43645 0.37516 0.03848 0.0
C252 C 0.43355 0.35316 0.0871 0.0
C253 C 0.39299 0.32355 0.09948 0.0
C254 C 0.40126 0.38829 0.9501 0.0
C255 C 0.47337 0.36079 0.12588 0.0
C256 C 0.80351 0.31528 0.87823 0.0
C257 C 0.77829 0.30306 0.9287 0.0
C258 C 0.68999 0.31699 0.93894 0.0
C259 C 0.64969 0.32517 0.90756 0.0
C260 C 0.60872 0.35289 0.92485 0.0
C261 C 0.60765 0.37155 0.97538 0.0
C262 C 0.6474 0.3612 0.00818 0.0
C263 C 0.68839 0.33424 0.98947 0.0
C264 C 0.56691 0.36286 0.8889 0.0
C265 C 0.64663 0.37886 0.06281 0.0
C266 C 0.56911 0.61394 0.99909 0.0
C267 C 0.52631 0.64076 0.01167 0.0
C268 C 0.48264 0.61631 0.02383 0.0
C269 C 0.4819 0.56343 0.02505 0.0
C270 C 0.4396 0.53748 0.04012 0.0
C271 C 0.43915 0.4854 0.04044 0.0
C272 C 0.48076 0.45729 0.02502 0.0
C273 C 0.48041 0.40438 0.02398 0.0
C274 C 0.52245 0.37776 0.00837 0.0
C275 C 0.56515 0.40237 0.9935 0.0
C276 C 0.56635 0.4552 0.99448 0.0
C277 C 0.6087 0.48119 0.97966 0.0
C278 C 0.60975 0.53312 0.9813 0.0
C279 C 0.56825 0.56115 0.99706 0.0
C280 C 0.52471 0.5358 0.01086 0.0
C281 C 0.52396 0.48272 0.01023 0.0
C282 C 0.24774 0.3204 0.12575 0.0
C283 C 0.26723 0.30199 0.07411 0.0
O284 O 0.745 0.71993 0.96228 0.0
O285 O 0.72952 0.29185 0.91947 0.0
O286 O 0.31619 0.28813 0.07893 0.0
O287 O 0.31726 0.74272 0.05839 0.0
H288 H 0.72441 0.77037 0.90806 0.0
H289 H 0.75122 0.69266 0.86288 0.0
H290 H 0.81122 0.69621 0.89048 0.0
H291 H 0.79087 0.74337 0.84638 0.0
H292 H 0.72212 0.6764 0.04543 0.0
H293 H 0.6711 0.70797 0.8951 0.0
H294 H 0.60684 0.63578 0.09474 0.0
H295 H 0.67223 0.6364 0.10609 0.0
H296 H 0.64432 0.58331 0.07564 0.0
H297 H 0.59802 0.67592 0.8629 0.0
H298 H 0.55055 0.68022 0.91102 0.0
H299 H 0.57542 0.62028 0.89312 0.0
H300 H 0.26534 0.69977 0.02222 0.0
H301 H 0.20687 0.70239 0.09512 0.0
H302 H 0.24786 0.74259 0.13023 0.0
H303 H 0.26635 0.6794 0.11398 0.0
H304 H 0.33551 0.69141 0.97337 0.0
H305 H 0.38647 0.72623 0.12294 0.0
H306 H 0.40582 0.58765 0.94797 0.0
H307 H 0.4461 0.63615 0.92752 0.0
H308 H 0.38094 0.64123 0.91581 0.0
H309 H 0.45527 0.68519 0.15872 0.0
H310 H 0.50363 0.68586 0.11152 0.0
H311 H 0.4766 0.62764 0.12903 0.0
H312 H 0.26322 0.33342 0.04699 0.0
H313 H 0.32899 0.33124 0.98956 0.0
H314 H 0.39046 0.30626 0.13645 0.0
H315 H 0.40011 0.42972 0.95238 0.0
H316 H 0.37054 0.37556 0.9258 0.0
H317 H 0.43661 0.3772 0.93159 0.0
H318 H 0.46321 0.34551 0.16359 0.0
H319 H 0.48122 0.40124 0.13031 0.0
H320 H 0.50772 0.34196 0.11249 0.0
H321 H 0.78115 0.33698 0.95339 0.0
H322 H 0.84252 0.32539 0.88453 0.0
H323 H 0.78461 0.34755 0.86037 0.0
H324 H 0.80218 0.28279 0.85163 0.0
H325 H 0.6511 0.31095 0.86886 0.0
H326 H 0.71891 0.32623 0.01438 0.0
H327 H 0.55901 0.40362 0.88735 0.0
H328 H 0.53321 0.34437 0.90308 0.0
H329 H 0.57499 0.34885 0.8498 0.0
H330 H 0.67789 0.36335 0.08473 0.0
H331 H 0.61167 0.36796 0.08153 0.0
H332 H 0.64853 0.42027 0.06418 0.0
H333 H 0.52695 0.6813 0.01181 0.0
H334 H 0.40645 0.55721 0.05202 0.0
H335 H 0.40563 0.46742 0.05255 0.0
H336 H 0.52178 0.33721 0.00732 0.0
H337 H 0.64167 0.46168 0.96688 0.0
H338 H 0.64346 0.55105 0.96968 0.0
H339 H 0.20867 0.33248 0.1228 0.0
H340 H 0.2695 0.35289 0.13892 0.0
H341 H 0.25065 0.29036 0.15446 0.0
C342 C 0.01437 0.14607 0.88796 0.0
C343 C 0.00511 0.12963 0.13388 0.0
C344 C 0.03437 0.90566 0.86881 0.0
C345 C 0.02518 0.8888 0.11323 0.0
C346 C 0.14003 0.89704 0.0007 0.0
C347 C 0.13651 0.13987 0.02095 0.0
C348 C 0.90234 0.89793 0.98131 0.0
C349 C 0.90058 0.13977 0.99743 0.0
C350 C 0.8952 0.01517 0.11923 0.0
C351 C 0.13179 0.00432 0.12994 0.0
C352 C 0.90738 0.03082 0.8738 0.0
C353 C 0.14564 0.03232 0.88548 0.0
Eu354 Eu 0.01875 0.11242 0.00923 0.0
O355 O 0.06118 0.05997 0.05301 0.0
O356 O 0.9797 0.06371 0.95927 0.0
Eu357 Eu 0.11341 0.01884 0.00628 0.0
Eu358 Eu 0.92704 0.01809 0.99719 0.0
O359 O 0.06593 0.06605 0.96173 0.0
O360 O 0.97345 0.05925 0.04774 0.0
Eu361 Eu 0.0255 0.02421 0.90555 0.0
Eu362 Eu 0.01484 0.0113 0.09668 0.0
O363 O 0.06731 0.97695 0.95504 0.0
O364 O 0.0606 0.97224 0.04294 0.0
O365 O 0.97355 0.96938 0.04126 0.0
O366 O 0.97881 0.97665 0.94992 0.0
Eu367 Eu 0.02096 0.92389 0.99294 0.0
O368 O 0.01359 0.15863 0.93726 0.0
O369 O 0.00747 0.14857 0.08714 0.0
O370 O 0.03146 0.88713 0.91561 0.0
O371 O 0.02415 0.87694 0.06387 0.0
O372 O 0.15507 0.94443 0.00419 0.0
O373 O 0.15255 0.09245 0.02028 0.0
O374 O 0.88686 0.94524 0.98641 0.0
O375 O 0.88586 0.0924 0.99335 0.0
O376 O 0.9409 0.00857 0.13596 0.0
O377 O 0.08436 0.00769 0.14289 0.0
O378 O 0.95481 0.02906 0.85997 0.0
O379 O 0.10016 0.03005 0.86709 0.0
O380 O 0.94912 0.88232 0.9835 0.0
O381 O 0.09358 0.88243 0.99555 0.0
O382 O 0.94657 0.15441 0.00554 0.0
O383 O 0.08987 0.15469 0.01578 0.0
O384 O 0.00903 0.0813 0.14528 0.0
O385 O 0.02049 0.93489 0.13274 0.0
O386 O 0.0208 0.09999 0.86913 0.0
O387 O 0.03137 0.95398 0.85706 0.0
O388 O 0.1582 0.02945 0.93425 0.0
O389 O 0.14991 0.00697 0.08269 0.0
O390 O 0.89022 0.02678 0.9212 0.0
O391 O 0.88233 0.02001 0.07061 0.0
C392 C 0.98754 0.17964 0.26781 0.0
C393 C 0.95871 0.22265 0.25985 0.0
H394 H 0.0254 0.11688 0.23431 0.0
C395 C 0.94859 0.237 0.20968 0.0
H396 H 0.99529 0.16736 0.30603 0.0
C397 C 0.96627 0.20839 0.16848 0.0
C398 C 0.99339 0.16423 0.17665 0.0
H399 H 0.92564 0.26936 0.20227 0.0
H400 H 0.95643 0.21945 0.13038 0.0
C401 C 0.00459 0.15069 0.22673 0.0
C402 C 0.83267 0.01963 0.24786 0.0
C403 C 0.79203 0.05087 0.23857 0.0
H404 H 0.89666 0.98293 0.21722 0.0
C405 C 0.78299 0.06627 0.18854 0.0
H406 H 0.84082 0.00778 0.28614 0.0
C407 C 0.81472 0.05171 0.14887 0.0
C408 C 0.85668 0.0224 0.15869 0.0
H409 H 0.75247 0.09114 0.18038 0.0
H410 H 0.80792 0.06588 0.11115 0.0
C411 C 0.86466 0.00555 0.20839 0.0
C412 C 0.04928 0.81935 0.23543 0.0
C413 C 0.07009 0.77427 0.2171 0.0
H414 H 0.01814 0.89059 0.21721 0.0
C415 C 0.07326 0.76602 0.1644 0.0
H416 H 0.04645 0.82666 0.27591 0.0
C417 C 0.0566 0.80233 0.1307 0.0
C418 C 0.03685 0.848 0.14896 0.0
H419 H 0.08936 0.73176 0.1492 0.0
H420 H 0.06082 0.79516 0.09031 0.0
C421 C 0.03296 0.85585 0.20176 0.0
C422 C 0.18176 0.98487 0.26192 0.0
C423 C 0.22424 0.95607 0.25183 0.0
H424 H 0.11954 0.02332 0.23138 0.0
C425 C 0.23843 0.94714 0.20097 0.0
H426 H 0.16968 0.99177 0.30071 0.0
C427 C 0.21009 0.96579 0.16117 0.0
C428 C 0.16631 0.99252 0.17139 0.0
H429 H 0.27047 0.92432 0.19186 0.0
H430 H 0.2211 0.95691 0.12248 0.0
C431 C 0.15303 0.00277 0.2222 0.0
C432 C 0.08618 0.79423 0.79585 0.0
C433 C 0.0764 0.80744 0.74531 0.0
H434 H 0.07952 0.81436 0.87451 0.0
C435 C 0.04988 0.85172 0.73605 0.0
H436 H 0.10735 0.76091 0.80432 0.0
C437 C 0.03465 0.88284 0.77626 0.0
C438 C 0.04526 0.87012 0.82669 0.0
H439 H 0.04244 0.86308 0.69746 0.0
H440 H 0.01546 0.91739 0.76776 0.0
C441 C 0.07021 0.82493 0.83612 0.0
C442 C 0.22473 0.04005 0.73707 0.0
C443 C 0.28086 0.06925 0.76393 0.0
H444 H 0.14788 0.00134 0.7723 0.0
C445 C 0.28122 0.10225 0.82646 0.0
H446 H 0.22372 0.02546 0.69862 0.0
C447 C 0.23402 0.08307 0.87002 0.0
C448 C 0.18507 0.04296 0.84921 0.0
H449 H 0.31281 0.12281 0.83951 0.0
H450 H 0.23467 0.09635 0.90896 0.0
C451 C 0.17923 0.02312 0.78376 0.0
C452 C 0.94731 0.25432 0.82786 0.0
C453 C 0.95635 0.24468 0.77595 0.0
H454 H 0.95955 0.23116 0.90442 0.0
C455 C 0.99006 0.20681 0.76199 0.0
H456 H 0.92099 0.2829 0.8396 0.0
C457 C 0.01215 0.17726 0.79891 0.0
C458 C 0.00087 0.18478 0.85068 0.0
H459 H 0.99745 0.19839 0.72229 0.0
H460 H 0.03612 0.14679 0.78667 0.0
C461 C 0.9696 0.22481 0.86494 0.0
C462 C 0.84847 0.05135 0.74511 0.0
C463 C 0.80145 0.06934 0.75937 0.0
H464 H 0.91914 0.02567 0.7699 0.0
C465 C 0.78872 0.0709 0.81118 0.0
H466 H 0.85896 0.04814 0.70545 0.0
C467 C 0.82264 0.05681 0.84794 0.0
C468 C 0.87047 0.04118 0.83398 0.0
H469 H 0.75253 0.08357 0.82342 0.0
H470 H 0.81149 0.05934 0.88747 0.0
C471 C 0.88285 0.03811 0.78206 0.0
C472 C 0.19378 0.26793 0.02817 0.0
C473 C 0.23693 0.25844 0.05546 0.0
H474 H 0.12867 0.23803 0.99538 0.0
C475 C 0.24816 0.20894 0.0692 0.0
H476 H 0.18388 0.30576 0.01774 0.0
C477 C 0.21667 0.1699 0.05607 0.0
C478 C 0.17278 0.17978 0.03004 0.0
H479 H 0.28064 0.20056 0.09116 0.0
H480 H 0.22571 0.13235 0.06814 0.0
C481 C 0.16208 0.22913 0.01564 0.0
C482 C 0.19743 0.76779 0.00233 0.0
C483 C 0.23972 0.77557 0.03146 0.0
H484 H 0.13334 0.80002 0.96896 0.0
C485 C 0.25116 0.8246 0.04684 0.0
H486 H 0.18738 0.73038 0.99054 0.0
C487 C 0.22043 0.86477 0.03399 0.0
C488 C 0.177 0.85653 0.00672 0.0
H489 H 0.28299 0.83174 0.07013 0.0
H490 H 0.22943 0.90182 0.04762 0.0
C491 C 0.16643 0.80771 0.99014 0.0
C492 C 0.79351 0.2099 0.94013 0.0
C493 C 0.80447 0.25958 0.95342 0.0
H494 H 0.8145 0.13281 0.94501 0.0
C495 C 0.84447 0.26881 0.98539 0.0
H496 H 0.76345 0.20167 0.91476 0.0
C497 C 0.87403 0.22948 0.00221 0.0
C498 C 0.86425 0.17995 0.98741 0.0
H499 H 0.85409 0.30675 0.99566 0.0
H500 H 0.90565 0.23813 0.02532 0.0
C501 C 0.82278 0.17043 0.95747 0.0
C502 C 0.83962 0.77339 0.96076 0.0
C503 C 0.79446 0.78846 0.9399 0.0
H504 H 0.90926 0.796 0.99007 0.0
C505 C 0.78423 0.83976 0.9353 0.0
H506 H 0.84822 0.7341 0.96538 0.0
C507 C 0.81873 0.87518 0.95017 0.0
C508 C 0.86455 0.86016 0.96953 0.0
H509 H 0.74969 0.85254 0.91962 0.0
H510 H 0.80987 0.91436 0.94513 0.0
C511 C 0.87448 0.80884 0.975 0.0
loop_
_geom_bond_atom_site_label_1
_geom_bond_atom_site_label_2
_geom_bond_distance
_geom_bond_site_symmetry_2
_ccdc_geom_bond_type
C0 C1 1.560 . S
C0 H61 0.959 . S
C0 H62 0.959 . S
C0 H63 0.960 . S
C1 C0 1.560 . S
C1 O56 1.426 . S
C1 H60 0.980 . S
C2 C3 1.407 . S
C2 C7 1.418 . S
C2 O56 1.334 . S
C3 C2 1.407 . S
C3 C4 1.360 1_455 S
C3 H64 0.929 1_455 S
C4 C3 1.360 1_655 S
C4 C5 1.401 1_655 S
C4 C8 1.527 . S
C5 C4 1.401 1_455 S
C5 C6 1.405 . S
C5 C38 1.585 1_455 S
C6 C5 1.405 . S
C6 C7 1.332 . S
C6 C9 1.496 . S
C7 C2 1.418 . S
C7 C6 1.332 . S
C7 H65 0.929 . S
C8 C4 1.527 . S
C8 H66 0.959 . S
C8 H67 0.961 . S
C8 H68 0.961 . S
C9 C6 1.496 . S
C9 H69 0.960 . S
C9 H70 0.960 . S
C9 H71 0.961 . S
C10 C11 1.517 . S
C10 H73 0.961 1_655 S
C10 H74 0.960 . S
C10 H75 0.959 . S
C11 C10 1.517 . S
C11 O59 1.468 . S
C11 H72 0.980 1_655 S
C12 C13 1.349 1_655 S
C12 C17 1.367 . S
C12 O59 1.408 . S
C13 C12 1.349 1_455 S
C13 C14 1.407 . S
C13 H76 0.930 . S
C14 C13 1.407 . S
C14 C15 1.449 1_455 S
C14 C18 1.535 . S
C15 C14 1.449 1_655 S
C15 C16 1.384 . S
C15 C40 1.553 . S
C16 C15 1.384 . S
C16 C17 1.364 . S
C16 C19 1.450 . S
C17 C12 1.367 . S
C17 C16 1.364 . S
C17 H77 0.931 . S
C18 C14 1.535 . S
C18 H78 0.959 . S
C18 H79 0.961 . S
C18 H80 0.959 . S
C19 C16 1.450 . S
C19 H81 0.960 . S
C19 H82 0.960 . S
C19 H83 0.960 . S
C20 C21 1.309 1_655 S
C20 C25 1.304 . S
C20 O58 1.435 . S
C21 C20 1.309 1_455 S
C21 C22 1.476 . S
C21 H85 0.930 . S
C22 C21 1.476 . S
C22 C23 1.400 1_455 S
C22 C26 1.567 . S
C23 C22 1.400 1_655 S
C23 C24 1.373 . S
C23 C45 1.432 . S
C24 C23 1.373 . S
C24 C25 1.339 . S
C24 C27 1.530 . S
C25 C20 1.304 . S
C25 C24 1.339 . S
C25 H86 0.930 . S
C26 C22 1.567 . S
C26 H87 0.961 . S
C26 H88 0.960 . S
C26 H89 0.958 . S
C27 C24 1.530 . S
C27 H90 0.961 . S
C27 H91 0.960 . S
C27 H92 0.960 . S
C28 C29 1.530 . S
C28 H94 0.961 . S
C28 H95 0.961 . S
C28 H96 0.959 . S
C29 C28 1.530 . S
C29 O57 1.412 . S
C29 H93 0.980 . S
C30 C31 1.288 . S
C30 C35 1.377 . S
C30 O57 1.393 . S
C31 C30 1.288 . S
C31 C32 1.369 . S
C31 H97 0.932 . S
C32 C31 1.369 . S
C32 C33 1.398 . S
C32 C36 1.527 . S
C33 C32 1.398 . S
C33 C34 1.380 1_455 S
C33 C47 1.497 . S
C34 C33 1.380 1_655 S
C34 C35 1.383 1_655 S
C34 C37 1.603 . S
C35 C30 1.377 . S
C35 C34 1.383 1_455 S
C35 H98 0.929 1_455 S
C36 C32 1.527 . S
C36 H99 0.961 . S
C36 H100 0.959 . S
C36 H101 0.959 . S
C37 C34 1.603 . S
C37 H102 0.960 . S
C37 H103 0.962 . S
C37 H104 0.961 . S
C38 C5 1.585 1_655 S
C38 C39 1.361 . S
C38 C51 1.412 1_655 S
C39 C38 1.361 . S
C39 C40 1.365 . S
C39 H105 0.929 . S
C40 C15 1.553 . S
C40 C39 1.365 . S
C40 C41 1.404 . S
C41 C40 1.404 . S
C41 C42 1.395 . S
C41 C52 1.451 . S
C42 C41 1.395 . S
C42 C43 1.322 . S
C42 H106 0.930 . S
C43 C42 1.322 . S
C43 C44 1.459 . S
C43 H107 0.929 . S
C44 C43 1.459 . S
C44 C45 1.445 . S
C44 C53 1.395 . S
C45 C23 1.432 . S
C45 C44 1.445 . S
C45 C46 1.370 1_655 S
C46 C45 1.370 1_455 S
C46 C47 1.438 . S
C46 H108 0.930 . S
C47 C33 1.497 . S
C47 C46 1.438 . S
C47 C48 1.360 . S
C48 C47 1.360 . S
C48 C49 1.401 . S
C48 C53 1.446 1_455 S
C49 C48 1.401 . S
C49 C50 1.347 . S
C49 H109 0.929 . S
C50 C49 1.347 . S
C50 C51 1.455 . S
C50 H110 0.930 . S
C51 C38 1.412 1_455 S
C51 C50 1.455 . S
C51 C52 1.331 1_455 S
C52 C41 1.451 . S
C52 C51 1.331 1_655 S
C52 C53 1.497 . S
C53 C44 1.395 . S
C53 C48 1.446 1_655 S
C53 C52 1.497 . S
C54 C55 1.582 1_655 S
C54 H111 0.962 1_655 S
C54 H112 0.959 . S
C54 H113 0.958 . S
C55 C54 1.582 1_455 S
C55 O58 1.458 1_455 S
C55 H84 0.980 . S
O56 C1 1.426 . S
O56 C2 1.334 . S
O57 C29 1.412 . S
O57 C30 1.393 . S
O58 C20 1.435 . S
O58 C55 1.458 1_655 S
O59 C11 1.468 . S
O59 C12 1.408 . S
H60 C1 0.980 . S
H61 C0 0.959 . S
H62 C0 0.959 . S
H63 C0 0.960 . S
H64 C3 0.929 1_655 S
H65 C7 0.929 . S
H66 C8 0.959 . S
H67 C8 0.961 . S
H68 C8 0.961 . S
H69 C9 0.960 . S
H70 C9 0.960 . S
H71 C9 0.961 . S
H72 C11 0.980 1_455 S
H73 C10 0.961 1_455 S
H74 C10 0.960 . S
H75 C10 0.959 . S
H76 C13 0.930 . S
H77 C17 0.931 . S
H78 C18 0.959 . S
H79 C18 0.961 . S
H80 C18 0.959 . S
H81 C19 0.960 . S
H82 C19 0.960 . S
H83 C19 0.960 . S
H84 C55 0.980 . S
H85 C21 0.930 . S
H86 C25 0.930 . S
H87 C26 0.961 . S
H88 C26 0.960 . S
H89 C26 0.958 . S
H90 C27 0.961 . S
H91 C27 0.960 . S
H92 C27 0.960 . S
H93 C29 0.980 . S
H94 C28 0.961 . S
H95 C28 0.961 . S
H96 C28 0.959 . S
H97 C31 0.932 . S
H98 C35 0.929 1_655 S
H99 C36 0.961 . S
H100 C36 0.959 . S
H101 C36 0.959 . S
H102 C37 0.960 . S
H103 C37 0.962 . S
H104 C37 0.961 . S
H105 C39 0.929 . S
H106 C42 0.930 . S
H107 C43 0.929 . S
H108 C46 0.930 . S
H109 C49 0.929 . S
H110 C50 0.930 . S
H111 C54 0.962 1_455 S
H112 C54 0.959 . S
H113 C54 0.958 . S
C114 C115 1.560 . S
C114 H175 0.959 . S
C114 H176 0.959 . S
C114 H177 0.960 . S
C115 C114 1.560 . S
C115 O170 1.426 . S
C115 H174 0.980 . S
C116 C117 1.407 1_545 S
C116 C121 1.418 . S
C116 O170 1.334 . S
C117 C116 1.407 1_565 S
C117 C118 1.360 . S
C117 H178 0.929 . S
C118 C117 1.360 . S
C118 C119 1.401 1_565 S
C118 C122 1.527 . S
C119 C118 1.401 1_545 S
C119 C120 1.405 . S
C119 C152 1.587 1_545 S
C120 C119 1.405 . S
C120 C121 1.332 . S
C120 C123 1.496 . S
C121 C116 1.418 . S
C121 C120 1.332 . S
C121 H179 0.929 . S
C122 C118 1.527 . S
C122 H180 0.959 . S
C122 H181 0.961 . S
C122 H182 0.961 . S
C123 C120 1.496 . S
C123 H183 0.960 . S
C123 H184 0.960 . S
C123 H185 0.961 . S
C124 C125 1.517 . S
C124 H187 0.961 1_565 S
C124 H188 0.960 . S
C124 H189 0.959 . S
C125 C124 1.517 . S
C125 O173 1.468 . S
C125 H186 0.980 1_565 S
C126 C127 1.349 1_565 S
C126 C131 1.367 . S
C126 O173 1.408 . S
C127 C126 1.349 1_545 S
C127 C128 1.407 . S
C127 H190 0.930 . S
C128 C127 1.407 . S
C128 C129 1.449 1_545 S
C128 C132 1.535 . S
C129 C128 1.449 1_565 S
C129 C130 1.384 . S
C129 C154 1.553 . S
C130 C129 1.384 . S
C130 C131 1.364 . S
C130 C133 1.450 . S
C131 C126 1.367 . S
C131 C130 1.364 . S
C131 H191 0.931 . S
C132 C128 1.535 . S
C132 H192 0.959 . S
C132 H193 0.961 . S
C132 H194 0.959 . S
C133 C130 1.450 . S
C133 H195 0.960 . S
C133 H196 0.960 . S
C133 H197 0.960 . S
C134 C135 1.309 1_565 S
C134 C139 1.304 . S
C134 O172 1.435 . S
C135 C134 1.309 1_545 S
C135 C136 1.476 . S
C135 H199 0.930 . S
C136 C135 1.476 . S
C136 C137 1.400 1_545 S
C136 C140 1.567 . S
C137 C136 1.400 1_565 S
C137 C138 1.373 . S
C137 C159 1.432 . S
C138 C137 1.373 . S
C138 C139 1.339 . S
C138 C141 1.530 . S
C139 C134 1.304 . S
C139 C138 1.339 . S
C139 H200 0.930 . S
C140 C136 1.567 . S
C140 H201 0.961 . S
C140 H202 0.960 . S
C140 H203 0.958 . S
C141 C138 1.530 . S
C141 H204 0.961 . S
C141 H205 0.960 . S
C141 H206 0.960 . S
C142 C143 1.530 . S
C142 H208 0.961 . S
C142 H209 0.961 . S
C142 H210 0.959 . S
C143 C142 1.530 . S
C143 O171 1.412 . S
C143 H207 0.980 . S
C144 C145 1.288 . S
C144 C149 1.377 1_545 S
C144 O171 1.393 . S
C145 C144 1.288 . S
C145 C146 1.369 . S
C145 H211 0.932 . S
C146 C145 1.369 . S
C146 C147 1.398 . S
C146 C150 1.527 . S
C147 C146 1.398 . S
C147 C148 1.380 1_545 S
C147 C161 1.497 . S
C148 C147 1.380 1_565 S
C148 C149 1.383 . S
C148 C151 1.603 . S
C149 C144 1.377 1_565 S
C149 C148 1.383 . S
C149 H212 0.929 . S
C150 C146 1.527 . S
C150 H213 0.961 . S
C150 H214 0.959 . S
C150 H215 0.959 . S
C151 C148 1.603 . S
C151 H216 0.960 . S
C151 H217 0.962 . S
C151 H218 0.961 . S
C152 C119 1.587 1_565 S
C152 C153 1.360 . S
C152 C165 1.412 . S
C153 C152 1.360 . S
C153 C154 1.365 . S
C153 H219 0.929 . S
C154 C129 1.553 . S
C154 C153 1.365 . S
C154 C155 1.404 . S
C155 C154 1.404 . S
C155 C156 1.395 . S
C155 C166 1.451 . S
C156 C155 1.395 . S
C156 C157 1.322 . S
C156 H220 0.930 . S
C157 C156 1.322 . S
C157 C158 1.459 . S
C157 H221 0.929 . S
C158 C157 1.459 . S
C158 C159 1.445 . S
C158 C167 1.395 . S
C159 C137 1.432 . S
C159 C158 1.445 . S
C159 C160 1.370 . S
C160 C159 1.370 . S
C160 C161 1.438 1_565 S
C160 H222 0.931 1_565 S
C161 C147 1.497 . S
C161 C160 1.438 1_545 S
C161 C162 1.359 1_545 S
C162 C161 1.359 1_565 S
C162 C163 1.400 1_565 S
C162 C167 1.447 . S
C163 C162 1.400 1_545 S
C163 C164 1.347 . S
C163 H223 0.929 . S
C164 C163 1.347 . S
C164 C165 1.455 1_545 S
C164 H224 0.930 . S
C165 C152 1.412 . S
C165 C164 1.455 1_565 S
C165 C166 1.331 . S
C166 C155 1.451 . S
C166 C165 1.331 . S
C166 C167 1.497 . S
C167 C158 1.395 . S
C167 C162 1.447 . S
C167 C166 1.497 . S
C168 C169 1.582 1_565 S
C168 H225 0.962 . S
C168 H226 0.959 . S
C168 H227 0.958 . S
C169 C168 1.582 1_545 S
C169 O172 1.458 1_545 S
C169 H198 0.980 . S
O170 C115 1.426 . S
O170 C116 1.334 . S
O171 C143 1.412 . S
O171 C144 1.393 . S
O172 C134 1.435 . S
O172 C169 1.458 1_565 S
O173 C125 1.468 . S
O173 C126 1.408 . S
H174 C115 0.980 . S
H175 C114 0.959 . S
H176 C114 0.959 . S
H177 C114 0.960 . S
H178 C117 0.929 . S
H179 C121 0.929 . S
H180 C122 0.959 . S
H181 C122 0.961 . S
H182 C122 0.961 . S
H183 C123 0.960 . S
H184 C123 0.960 . S
H185 C123 0.961 . S
H186 C125 0.980 1_545 S
H187 C124 0.961 1_545 S
H188 C124 0.960 . S
H189 C124 0.959 . S
H190 C127 0.930 . S
H191 C131 0.931 . S
H192 C132 0.959 . S
H193 C132 0.961 . S
H194 C132 0.959 . S
H195 C133 0.960 . S
H196 C133 0.960 . S
H197 C133 0.960 . S
H198 C169 0.980 . S
H199 C135 0.930 . S
H200 C139 0.930 . S
H201 C140 0.961 . S
H202 C140 0.960 . S
H203 C140 0.958 . S
H204 C141 0.961 . S
H205 C141 0.960 . S
H206 C141 0.960 . S
H207 C143 0.980 . S
H208 C142 0.961 . S
H209 C142 0.961 . S
H210 C142 0.959 . S
H211 C145 0.932 . S
H212 C149 0.929 . S
H213 C150 0.961 . S
H214 C150 0.959 . S
H215 C150 0.959 . S
H216 C151 0.960 . S
H217 C151 0.962 . S
H218 C151 0.961 . S
H219 C153 0.929 . S
H220 C156 0.930 . S
H221 C157 0.929 . S
H222 C160 0.931 1_545 S
H223 C163 0.929 . S
H224 C164 0.930 . S
H225 C168 0.962 . S
H226 C168 0.959 . S
H227 C168 0.958 . S
C228 C229 1.560 . S
C228 H289 0.959 . S
C228 H290 0.959 . S
C228 H291 0.960 . S
C229 C228 1.560 . S
C229 O284 1.426 . S
C229 H288 0.980 . S
C230 C231 1.407 1_556 S
C230 C235 1.418 . S
C230 O284 1.334 . S
C231 C230 1.407 1_554 S
C231 C232 1.360 . S
C231 H292 0.929 . S
C232 C231 1.360 . S
C232 C233 1.401 . S
C232 C236 1.527 . S
C233 C232 1.401 . S
C233 C234 1.405 1_554 S
C233 C266 1.587 . S
C234 C233 1.405 1_556 S
C234 C235 1.332 . S
C234 C237 1.496 . S
C235 C230 1.418 . S
C235 C234 1.332 . S
C235 H293 0.929 . S
C236 C232 1.527 . S
C236 H294 0.959 . S
C236 H295 0.961 . S
C236 H296 0.961 . S
C237 C234 1.496 . S
C237 H297 0.960 . S
C237 H298 0.960 . S
C237 H299 0.961 . S
C238 C239 1.517 . S
C238 H301 0.961 . S
C238 H302 0.960 . S
C238 H303 0.959 . S
C239 C238 1.517 . S
C239 O287 1.468 . S
C239 H300 0.980 . S
C240 C241 1.349 . S
C240 C245 1.367 . S
C240 O287 1.408 . S
C241 C240 1.349 . S
C241 C242 1.407 . S
C241 H304 0.930 1_554 S
C242 C241 1.407 . S
C242 C243 1.449 . S
C242 C246 1.535 1_554 S
C243 C242 1.449 . S
C243 C244 1.384 . S
C243 C268 1.553 . S
C244 C243 1.384 . S
C244 C245 1.364 . S
C244 C247 1.450 . S
C245 C240 1.367 . S
C245 C244 1.364 . S
C245 H305 0.931 . S
C246 C242 1.535 1_556 S
C246 H306 0.959 . S
C246 H307 0.961 . S
C246 H308 0.959 . S
C247 C244 1.450 . S
C247 H309 0.960 . S
C247 H310 0.960 . S
C247 H311 0.960 . S
C248 C249 1.288 1_554 S
C248 C253 1.304 . S
C248 O286 1.435 . S
C249 C248 1.288 1_556 S
C249 C250 1.479 . S
C249 H313 0.947 . S
C250 C249 1.479 . S
C250 C251 1.400 1_556 S
C250 C254 1.567 . S
C251 C250 1.400 1_554 S
C251 C252 1.373 . S
C251 C273 1.432 . S
C252 C251 1.373 . S
C252 C253 1.339 . S
C252 C255 1.530 . S
C253 C248 1.304 . S
C253 C252 1.339 . S
C253 H314 0.930 . S
C254 C250 1.567 . S
C254 H315 0.961 . S
C254 H316 0.960 . S
C254 H317 0.958 . S
C255 C252 1.530 . S
C255 H318 0.961 . S
C255 H319 0.960 . S
C255 H320 0.960 . S
C256 C257 1.530 . S
C256 H322 0.961 . S
C256 H323 0.961 . S
C256 H324 0.959 . S
C257 C256 1.530 . S
C257 O285 1.412 . S
C257 H321 0.980 1_556 S
C258 C259 1.288 . S
C258 C263 1.377 1_556 S
C258 O285 1.393 . S
C259 C258 1.288 . S
C259 C260 1.369 . S
C259 H325 0.932 . S
C260 C259 1.369 . S
C260 C261 1.398 . S
C260 C264 1.527 . S
C261 C260 1.398 . S
C261 C262 1.380 1_556 S
C261 C275 1.497 1_556 S
C262 C261 1.380 1_554 S
C262 C263 1.383 . S
C262 C265 1.603 . S
C263 C258 1.377 1_554 S
C263 C262 1.383 . S
C263 H326 0.929 . S
C264 C260 1.527 . S
C264 H327 0.961 . S
C264 H328 0.959 . S
C264 H329 0.959 . S
C265 C262 1.603 . S
C265 H330 0.960 . S
C265 H331 0.962 . S
C265 H332 0.961 . S
C266 C233 1.587 . S
C266 C267 1.360 . S
C266 C279 1.412 . S
C267 C266 1.360 . S
C267 C268 1.365 . S
C267 H333 0.929 . S
C268 C243 1.553 . S
C268 C267 1.365 . S
C268 C269 1.404 . S
C269 C268 1.404 . S
C269 C270 1.395 . S
C269 C280 1.451 . S
C270 C269 1.395 . S
C270 C271 1.322 . S
C270 H334 0.930 . S
C271 C270 1.322 . S
C271 C272 1.459 . S
C271 H335 0.929 . S
C272 C271 1.459 . S
C272 C273 1.445 . S
C272 C281 1.395 . S
C273 C251 1.432 . S
C273 C272 1.445 . S
C273 C274 1.370 . S
C274 C273 1.370 . S
C274 C275 1.438 . S
C274 H336 0.930 . S
C275 C261 1.497 1_554 S
C275 C274 1.438 . S
C275 C276 1.360 . S
C276 C275 1.360 . S
C276 C277 1.401 . S
C276 C281 1.446 . S
C277 C276 1.401 . S
C277 C278 1.347 . S
C277 H337 0.929 . S
C278 C277 1.347 . S
C278 C279 1.455 . S
C278 H338 0.930 . S
C279 C266 1.412 . S
C279 C278 1.455 . S
C279 C280 1.331 . S
C280 C269 1.451 . S
C280 C279 1.331 . S
C280 C281 1.497 . S
C281 C272 1.395 . S
C281 C276 1.446 . S
C281 C280 1.497 . S
C282 C283 1.582 . S
C282 H339 0.962 . S
C282 H340 0.959 . S
C282 H341 0.958 . S
C283 C282 1.582 . S
C283 O286 1.458 . S
C283 H312 0.980 . S
O284 C229 1.426 . S
O284 C230 1.334 . S
O285 C257 1.412 . S
O285 C258 1.393 . S
O286 C248 1.435 . S
O286 C283 1.458 . S
O287 C239 1.468 . S
O287 C240 1.408 . S
H288 C229 0.980 . S
H289 C228 0.959 . S
H290 C228 0.959 . S
H291 C228 0.960 . S
H292 C231 0.929 . S
H293 C235 0.929 . S
H294 C236 0.959 . S
H295 C236 0.961 . S
H296 C236 0.961 . S
H297 C237 0.960 . S
H298 C237 0.960 . S
H299 C237 0.961 . S
H300 C239 0.980 . S
H301 C238 0.961 . S
H302 C238 0.960 . S
H303 C238 0.959 . S
H304 C241 0.930 1_556 S
H305 C245 0.931 . S
H306 C246 0.959 . S
H307 C246 0.961 . S
H308 C246 0.959 . S
H309 C247 0.960 . S
H310 C247 0.960 . S
H311 C247 0.960 . S
H312 C283 0.980 . S
H313 C249 0.947 . S
H314 C253 0.930 . S
H315 C254 0.961 . S
H316 C254 0.960 . S
H317 C254 0.958 . S
H318 C255 0.961 . S
H319 C255 0.960 . S
H320 C255 0.960 . S
H321 C257 0.980 1_554 S
H322 C256 0.961 . S
H323 C256 0.961 . S
H324 C256 0.959 . S
H325 C259 0.932 . S
H326 C263 0.929 . S
H327 C264 0.961 . S
H328 C264 0.959 . S
H329 C264 0.959 . S
H330 C265 0.960 . S
H331 C265 0.962 . S
H332 C265 0.961 . S
H333 C267 0.929 . S
H334 C270 0.930 . S
H335 C271 0.929 . S
H336 C274 0.930 . S
H337 C277 0.929 . S
H338 C278 0.930 . S
H339 C282 0.962 . S
H340 C282 0.959 . S
H341 C282 0.958 . S
C342 O368 1.283 . S
C342 O386 1.283 . S
C343 O369 1.283 . S
C343 O384 1.283 . S
C344 O370 1.283 . S
C344 O387 1.283 . S
C345 O371 1.283 . S
C345 O385 1.283 . S
C346 O372 1.283 . S
C346 O381 1.283 . S
C347 O373 1.283 1_554 S
C347 O383 1.283 . S
C348 O374 1.283 . S
C348 O380 1.283 1_554 S
C349 O375 1.283 . S
C349 O382 1.283 . S
C350 O376 1.283 . S
C350 O391 1.283 . S
C351 O377 1.283 . S
C351 O389 1.283 . S
C352 O378 1.283 . S
C352 O390 1.283 . S
C353 O379 1.283 . S
C353 O388 1.283 . S
Eu354 O355 2.378 . S
Eu354 O356 2.363 1_454 S
Eu354 O359 2.363 1_554 S
Eu354 O360 2.378 1_455 S
Eu354 O368 2.350 1_554 S
Eu354 O369 2.376 . S
Eu354 O382 2.363 1_455 S
Eu354 O383 2.363 . S
O355 Eu354 2.378 . S
O355 Eu357 2.366 1_554 S
O355 Eu362 2.370 . S
O356 Eu354 2.363 1_656 S
O356 Eu358 2.363 1_556 S
O356 Eu361 2.370 1_655 S
Eu357 O355 2.366 1_556 S
Eu357 O359 2.374 . S
Eu357 O363 2.374 1_545 S
Eu357 O364 2.366 1_546 S
Eu357 O372 2.363 1_545 S
Eu357 O373 2.363 . S
Eu357 O388 2.370 . S
Eu357 O389 2.356 1_556 S
Eu358 O356 2.363 1_554 S
Eu358 O360 2.378 . S
Eu358 O365 2.378 1_545 S
Eu358 O366 2.363 1_544 S
Eu358 O374 2.363 1_545 S
Eu358 O375 2.363 . S
Eu358 O390 2.350 1_554 S
Eu358 O391 2.375 . S
O359 Eu354 2.363 1_556 S
O359 Eu357 2.374 . S
O359 Eu361 2.370 . S
O360 Eu354 2.378 1_655 S
O360 Eu358 2.378 . S
O360 Eu362 2.370 1_655 S
Eu361 O356 2.370 1_455 S
Eu361 O359 2.370 . S
Eu361 O363 2.370 1_545 S
Eu361 O366 2.370 1_445 S
Eu361 O378 2.363 1_455 S
Eu361 O379 2.363 . S
Eu361 O386 2.363 . S
Eu361 O387 2.363 1_545 S
Eu362 O355 2.370 . S
Eu362 O360 2.370 1_455 S
Eu362 O364 2.370 1_545 S
Eu362 O365 2.370 1_445 S
Eu362 O376 2.363 1_455 S
Eu362 O377 2.363 . S
Eu362 O384 2.363 . S
Eu362 O385 2.363 1_545 S
O363 Eu357 2.374 1_565 S
O363 Eu361 2.370 1_565 S
O363 Eu367 2.374 . S
O364 Eu357 2.366 1_564 S
O364 Eu362 2.370 1_565 S
O364 Eu367 2.366 1_554 S
O365 Eu358 2.378 1_565 S
O365 Eu362 2.370 1_665 S
O365 Eu367 2.366 1_654 S
O366 Eu358 2.363 1_566 S
O366 Eu361 2.370 1_665 S
O366 Eu367 2.374 1_655 S
Eu367 O363 2.374 . S
Eu367 O364 2.366 1_556 S
Eu367 O365 2.366 1_456 S
Eu367 O366 2.374 1_455 S
Eu367 O370 2.370 . S
Eu367 O371 2.356 1_556 S
Eu367 O380 2.363 1_455 S
Eu367 O381 2.363 . S
O368 C342 1.283 . S
O368 Eu354 2.350 1_556 S
O369 C343 1.283 . S
O369 Eu354 2.376 . S
O370 C344 1.283 . S
O370 Eu367 2.370 . S
O371 C345 1.283 . S
O371 Eu367 2.356 1_554 S
O372 C346 1.283 . S
O372 Eu357 2.363 1_565 S
O373 C347 1.283 1_556 S
O373 Eu357 2.363 . S
O374 C348 1.283 . S
O374 Eu358 2.363 1_565 S
O375 C349 1.283 . S
O375 Eu358 2.363 . S
O376 C350 1.283 . S
O376 Eu362 2.363 1_655 S
O377 C351 1.283 . S
O377 Eu362 2.363 . S
O378 C352 1.283 . S
O378 Eu361 2.363 1_655 S
O379 C353 1.283 . S
O379 Eu361 2.363 . S
O380 C348 1.283 1_556 S
O380 Eu367 2.363 1_655 S
O381 C346 1.283 . S
O381 Eu367 2.363 . S
O382 C349 1.283 . S
O382 Eu354 2.363 1_655 S
O383 C347 1.283 . S
O383 Eu354 2.363 . S
O384 C343 1.283 . S
O384 Eu362 2.363 . S
O385 C345 1.283 . S
O385 Eu362 2.363 1_565 S
O386 C342 1.283 . S
O386 Eu361 2.363 . S
O387 C344 1.283 . S
O387 Eu361 2.363 1_565 S
O388 C353 1.283 . S
O388 Eu357 2.370 . S
O389 C351 1.283 . S
O389 Eu357 2.356 1_554 S
O390 C352 1.283 . S
O390 Eu358 2.350 1_556 S
O391 C350 1.283 . S
O391 Eu358 2.375 . S
C392 C393 1.387 . S
C392 H396 0.950 . S
C392 C401 1.390 . S
C393 C392 1.387 . S
C393 C395 1.387 1_455 S
H394 C401 0.950 . S
C395 C393 1.387 1_655 S
C395 C397 1.390 . S
C395 H399 0.950 . S
H396 C392 0.950 . S
C397 C395 1.390 . S
C397 C398 1.387 1_655 S
C397 H400 0.950 . S
C398 C397 1.387 1_455 S
C398 C401 1.387 . S
H399 C395 0.950 . S
H400 C397 0.950 . S
C401 C392 1.390 . S
C401 H394 0.950 . S
C401 C398 1.387 . S
C402 C403 1.387 . S
C402 H406 0.950 . S
C402 C411 1.390 . S
C403 C402 1.387 . S
C403 C405 1.387 . S
H404 C411 0.950 . S
C405 C403 1.387 . S
C405 C407 1.390 . S
C405 H409 0.950 1_545 S
H406 C402 0.950 . S
C407 C405 1.390 . S
C407 C408 1.387 . S
C407 H410 0.950 . S
C408 C407 1.387 . S
C408 C411 1.387 . S
H409 C405 0.950 1_565 S
H410 C407 0.950 . S
C411 C402 1.390 . S
C411 H404 0.950 . S
C411 C408 1.387 . S
C412 C413 1.387 . S
C412 H416 0.950 . S
C412 C421 1.390 . S
C413 C412 1.387 . S
C413 C415 1.387 1_455 S
H414 C421 0.950 . S
C415 C413 1.387 1_655 S
C415 C417 1.390 . S
C415 H419 0.950 . S
H416 C412 0.950 . S
C417 C415 1.390 . S
C417 C418 1.387 1_655 S
C417 H420 0.950 . S
C418 C417 1.387 1_455 S
C418 C421 1.387 . S
H419 C415 0.950 . S
H420 C417 0.950 . S
C421 C412 1.390 . S
C421 H414 0.950 . S
C421 C418 1.387 . S
C422 C423 1.387 . S
C422 H426 0.950 . S
C422 C431 1.390 . S
C423 C422 1.387 . S
C423 C425 1.387 1_545 S
H424 C431 0.950 . S
C425 C423 1.387 1_565 S
C425 C427 1.390 . S
C425 H429 0.950 . S
H426 C422 0.950 . S
C427 C425 1.390 . S
C427 C428 1.387 1_565 S
C427 H430 0.950 . S
C428 C427 1.387 1_545 S
C428 C431 1.387 . S
H429 C425 0.950 . S
H430 C427 0.950 . S
C431 C422 1.390 . S
C431 H424 0.950 . S
C431 C428 1.387 . S
C432 C433 1.387 . S
C432 H436 0.950 . S
C432 C441 1.390 . S
C433 C432 1.387 . S
C433 C435 1.387 . S
H434 C441 0.950 . S
C435 C433 1.387 . S
C435 C437 1.390 . S
C435 H439 0.950 . S
H436 C432 0.950 . S
C437 C435 1.390 . S
C437 C438 1.387 . S
C437 H440 0.950 . S
C438 C437 1.387 . S
C438 C441 1.387 . S
H439 C435 0.950 . S
H440 C437 0.950 . S
C441 C432 1.390 . S
C441 H434 0.950 . S
C441 C438 1.387 . S
C442 C443 1.387 1_565 S
C442 H446 0.950 . S
C442 C451 1.390 . S
C443 C442 1.387 1_545 S
C443 C445 1.387 . S
H444 C451 0.950 . S
C445 C443 1.387 . S
C445 C447 1.390 . S
C445 H449 0.950 . S
H446 C442 0.950 . S
C447 C445 1.390 . S
C447 C448 1.387 . S
C447 H450 0.950 . S
C448 C447 1.387 . S
C448 C451 1.387 1_545 S
H449 C445 0.950 . S
H450 C447 0.950 . S
C451 C442 1.390 . S
C451 H444 0.950 . S
C451 C448 1.387 1_565 S
C452 C453 1.387 1_655 S
C452 H456 0.950 . S
C452 C461 1.390 . S
C453 C452 1.387 1_455 S
C453 C455 1.387 . S
H454 C461 0.950 . S
C455 C453 1.387 . S
C455 C457 1.390 . S
C455 H459 0.950 . S
H456 C452 0.950 . S
C457 C455 1.390 . S
C457 C458 1.387 . S
C457 H460 0.950 . S
C458 C457 1.387 . S
C458 C461 1.387 1_455 S
H459 C455 0.950 . S
H460 C457 0.950 . S
C461 C452 1.390 . S
C461 H454 0.950 . S
C461 C458 1.387 1_655 S
C462 C463 1.387 . S
C462 H466 0.950 . S
C462 C471 1.390 . S
C463 C462 1.387 . S
C463 C465 1.387 1_545 S
H464 C471 0.950 . S
C465 C463 1.387 1_565 S
C465 C467 1.390 . S
C465 H469 0.950 . S
H466 C462 0.950 . S
C467 C465 1.390 . S
C467 C468 1.387 1_565 S
C467 H470 0.950 . S
C468 C467 1.387 1_545 S
C468 C471 1.387 . S
H469 C465 0.950 . S
H470 C467 0.950 . S
C471 C462 1.390 . S
C471 H464 0.950 . S
C471 C468 1.387 . S
C472 C473 1.387 . S
C472 H476 0.950 . S
C472 C481 1.390 . S
C473 C472 1.387 . S
C473 C475 1.387 1_556 S
H474 C481 0.950 . S
C475 C473 1.387 1_554 S
C475 C477 1.390 . S
C475 H479 0.950 . S
H476 C472 0.950 . S
C477 C475 1.390 . S
C477 C478 1.387 1_554 S
C477 H480 0.950 . S
C478 C477 1.387 1_556 S
C478 C481 1.387 . S
H479 C475 0.950 . S
H480 C477 0.950 . S
C481 C472 1.390 . S
C481 H474 0.950 . S
C481 C478 1.387 . S
C482 C483 1.387 1_556 S
C482 H486 0.950 . S
C482 C491 1.390 . S
C483 C482 1.387 1_554 S
C483 C485 1.387 . S
H484 C491 0.950 . S
C485 C483 1.387 . S
C485 C487 1.390 . S
C485 H489 0.950 . S
H486 C482 0.950 . S
C487 C485 1.390 . S
C487 C488 1.406 . S
C487 H490 0.950 . S
C488 C487 1.406 . S
C488 C491 1.370 1_554 S
H489 C485 0.950 . S
H490 C487 0.950 . S
C491 C482 1.390 . S
C491 H484 0.950 . S
C491 C488 1.370 1_556 S
C492 C493 1.387 1_556 S
C492 H496 0.950 . S
C492 C501 1.390 . S
C493 C492 1.387 1_554 S
C493 C495 1.387 . S
H494 C501 0.950 . S
C495 C493 1.387 . S
C495 C497 1.390 . S
C495 H499 0.950 . S
H496 C492 0.950 . S
C497 C495 1.390 . S
C497 C498 1.387 . S
C497 H500 0.950 . S
C498 C497 1.387 . S
C498 C501 1.387 1_554 S
H499 C495 0.950 . S
H500 C497 0.950 . S
C501 C492 1.390 . S
C501 H494 0.950 . S
C501 C498 1.387 1_556 S
C502 C503 1.387 . S
C502 H506 0.950 . S
C502 C511 1.390 . S
C503 C502 1.387 . S
C503 C505 1.387 1_556 S
H504 C511 0.950 . S
C505 C503 1.387 1_554 S
C505 C507 1.390 . S
C505 H509 0.950 . S
H506 C502 0.950 . S
C507 C505 1.390 . S
C507 C508 1.387 1_554 S
C507 H510 0.950 . S
C508 C507 1.387 1_556 S
C508 C511 1.387 . S
H509 C505 0.950 . S
H510 C507 0.950 . S
C511 C502 1.390 . S
C511 H504 0.950 . S
C511 C508 1.387 . S
C398 C343 1.534 . S
C393 C11 0.841 1_455 S
C408 C350 1.488 . S
C403 C143 1.190 . S
C418 C345 1.301 . S
C413 C1 1.000 . S
C428 C351 1.605 . S
C423 C169 1.209 . S
C433 C29 1.141 . S
C438 C344 1.409 . S
C448 C353 1.602 . S
C443 C125 0.906 1_545 S
C453 C55 1.170 . S
C458 C342 1.534 . S
C463 C115 1.065 . S
C468 C352 1.375 . S
C473 C283 1.290 1_556 S
C478 C347 1.690 1_556 S
C483 C239 0.953 . S
C488 C346 1.689 1_554 S
C498 C349 1.563 . S
C493 C257 1.271 1_554 S
C508 C348 1.453 1_556 S
C503 C229 1.107 . S
