# Generated by pormake.
# Topology wbl, (4,4)-cn, num edge types: 1
# Building blocks:
#     Node 0, Type 0, BuildingBlock: MUDLON_clean_linker_0, # of connection points: 4
#     Node 1, Type 0, BuildingBlock: MUDLON_clean_linker_0, # of connection points: 4
#     Node 2, Type 0, BuildingBlock: MUDLON_clean_linker_0, # of connection points: 4
#     Node 3, Type 0, BuildingBlock: MUDLON_clean_linker_0, # of connection points: 4
#     Node 4, Type 0, BuildingBlock: MUDLON_clean_linker_0, # of connection points: 4
#     Node 5, Type 0, BuildingBlock: MUDLON_clean_linker_0, # of connection points: 4
#     Node 6, Type 0, BuildingBlock: MUDLON_clean_linker_0, # of connection points: 4
#     Node 7, Type 0, BuildingBlock: MUDLON_clean_linker_0, # of connection points: 4
#     Node 8, Type 1, BuildingBlock: CEKHIL_clean_sbu_0, # of connection points: 4
#     Node 9, Type 1, BuildingBlock: CEKHIL_clean_sbu_0, # of connection points: 4
#     Node 10, Type 1, BuildingBlock: CEKHIL_clean_sbu_0, # of connection points: 4
#     Node 11, Type 1, BuildingBlock: CEKHIL_clean_sbu_0, # of connection points: 4
#     Node 12, Type 1, BuildingBlock: CEKHIL_clean_sbu_0, # of connection points: 4
#     Node 13, Type 1, BuildingBlock: CEKHIL_clean_sbu_0, # of connection points: 4
#     Node 14, Type 1, BuildingBlock: CEKHIL_clean_sbu_0, # of connection points: 4
#     Node 15, Type 1, BuildingBlock: CEKHIL_clean_sbu_0, # of connection points: 4
#     Edge 16, Type (0, 1), BuildingBlock: XIVTED_clean_linker_0, # of connection points: 2
#     Edge 17, Type (0, 1), BuildingBlock: XIVTED_clean_linker_0, # of connection points: 2
#     Edge 18, Type (0, 1), BuildingBlock: XIVTED_clean_linker_0, # of connection points: 2
#     Edge 19, Type (0, 1), BuildingBlock: XIVTED_clean_linker_0, # of connection points: 2
#     Edge 20, Type (0, 1), BuildingBlock: XIVTED_clean_linker_0, # of connection points: 2
#     Edge 21, Type (0, 1), BuildingBlock: XIVTED_clean_linker_0, # of connection points: 2
#     Edge 22, Type (0, 1), BuildingBlock: XIVTED_clean_linker_0, # of connection points: 2
#     Edge 23, Type (0, 1), BuildingBlock: XIVTED_clean_linker_0, # of connection points: 2
#     Edge 24, Type (0, 1), BuildingBlock: XIVTED_clean_linker_0, # of connection points: 2
#     Edge 25, Type (0, 1), BuildingBlock: XIVTED_clean_linker_0, # of connection points: 2
#     Edge 26, Type (0, 1), BuildingBlock: XIVTED_clean_linker_0, # of connection points: 2
#     Edge 27, Type (0, 1), BuildingBlock: XIVTED_clean_linker_0, # of connection points: 2
#     Edge 28, Type (0, 1), BuildingBlock: XIVTED_clean_linker_0, # of connection points: 2
#     Edge 29, Type (0, 1), BuildingBlock: XIVTED_clean_linker_0, # of connection points: 2
#     Edge 30, Type (0, 1), BuildingBlock: XIVTED_clean_linker_0, # of connection points: 2
#     Edge 31, Type (0, 1), BuildingBlock: XIVTED_clean_linker_0, # of connection points: 2
#     Edge 32, Type (0, 1), BuildingBlock: XIVTED_clean_linker_0, # of connection points: 2
#     Edge 33, Type (0, 1), BuildingBlock: XIVTED_clean_linker_0, # of connection points: 2
#     Edge 34, Type (0, 1), BuildingBlock: XIVTED_clean_linker_0, # of connection points: 2
#     Edge 35, Type (0, 1), BuildingBlock: XIVTED_clean_linker_0, # of connection points: 2
#     Edge 36, Type (0, 1), BuildingBlock: XIVTED_clean_linker_0, # of connection points: 2
#     Edge 37, Type (0, 1), BuildingBlock: XIVTED_clean_linker_0, # of connection points: 2
#     Edge 38, Type (0, 1), BuildingBlock: XIVTED_clean_linker_0, # of connection points: 2
#     Edge 39, Type (0, 1), BuildingBlock: XIVTED_clean_linker_0, # of connection points: 2
#     Edge 40, Type (0, 1), BuildingBlock: XIVTED_clean_linker_0, # of connection points: 2
#     Edge 41, Type (0, 1), BuildingBlock: XIVTED_clean_linker_0, # of connection points: 2
#     Edge 42, Type (0, 1), BuildingBlock: XIVTED_clean_linker_0, # of connection points: 2
#     Edge 43, Type (0, 1), BuildingBlock: XIVTED_clean_linker_0, # of connection points: 2
#     Edge 44, Type (0, 1), BuildingBlock: XIVTED_clean_linker_0, # of connection points: 2
#     Edge 45, Type (0, 1), BuildingBlock: XIVTED_clean_linker_0, # of connection points: 2
#     Edge 46, Type (0, 1), BuildingBlock: XIVTED_clean_linker_0, # of connection points: 2
#     Edge 47, Type (0, 1), BuildingBlock: XIVTED_clean_linker_0, # of connection points: 2
# Relax obj value: 0.123
# Max RMSD: 0.149
# Mean RMSD: 0.134
data_MOF--net-wbl--node1-CEKHIL_clean_sbu_0--node2-MUDLON_clean_linker_0--edge1-XIVTED_clean_linker_0
_symmetry_space_group_name_H-M    P1
_symmetry_Int_Tables_number       1
_symmetry_cell_setting            triclinic
loop_
_symmetry_equiv_pos_as_xyz
'x, y, z'
_cell_length_a     53.578995
_cell_length_b     53.799988
_cell_length_c     76.984966
_cell_angle_alpha  90.325203
_cell_angle_beta   90.071483
_cell_angle_gamma 89.956448
loop_
_atom_site_label
_atom_site_type_symbol
_atom_site_fract_x
_atom_site_fract_y
_atom_site_fract_z
_atom_type_partial_charge
H0 H 0.11626 0.96867 0.31429 0.0
N1 N 0.07985 0.94846 0.29361 0.0
H2 H 0.12478 0.95831 0.34457 0.0
H3 H 0.05424 0.91765 0.31373 0.0
H4 H 0.06321 0.90658 0.34402 0.0
H5 H 0.09486 0.9031 0.28542 0.0
H6 H 0.13528 0.89074 0.27395 0.0
H7 H 0.11392 0.98018 0.27791 0.0
H8 H 0.15363 0.96802 0.26559 0.0
H9 H 0.09157 0.99736 0.30059 0.0
H10 H 0.03474 0.9493 0.27936 0.0
H11 H 0.06405 0.03279 0.2977 0.0
H12 H 0.0062 0.9847 0.27741 0.0
H13 H 0.95681 0.13463 0.31055 0.0
H14 H 0.94041 0.14275 0.33976 0.0
H15 H 0.9277 0.06405 0.34643 0.0
H16 H 0.94467 0.05612 0.31759 0.0
H17 H 0.92475 0.05444 0.29042 0.0
H18 H 0.88345 0.05981 0.27794 0.0
H19 H 0.90442 0.1329 0.26001 0.0
H20 H 0.94554 0.1277 0.2734 0.0
H21 H 0.99963 0.08159 0.31465 0.0
H22 H 0.02951 0.0481 0.31243 0.0
H23 H 0.99487 0.0234 0.26466 0.0
N24 N 0.96004 0.091 0.29409 0.0
H25 H 0.96414 0.05635 0.26723 0.0
C26 C 0.08426 0.94418 0.31183 0.0
C27 C 0.1041 0.95567 0.32079 0.0
C28 C 0.10907 0.94963 0.33807 0.0
C29 C 0.09464 0.93166 0.34658 0.0
C30 C 0.07467 0.92042 0.3377 0.0
C31 C 0.06945 0.92678 0.3205 0.0
C32 C 0.10117 0.9425 0.28286 0.0
C33 C 0.10742 0.91734 0.28075 0.0
C34 C 0.13062 0.91031 0.27412 0.0
C35 C 0.14812 0.92837 0.26908 0.0
C36 C 0.14103 0.95358 0.26985 0.0
C37 C 0.11796 0.96061 0.27682 0.0
C38 C 0.06537 0.97048 0.28996 0.0
C39 C 0.0733 0.99437 0.29504 0.0
C40 C 0.05727 0.01473 0.29362 0.0
C41 C 0.03265 0.01167 0.28758 0.0
C42 C 0.02506 0.98791 0.28194 0.0
C43 C 0.04132 0.96761 0.28308 0.0
C44 C 0.95207 0.09488 0.31188 0.0
C45 C 0.95074 0.11918 0.31845 0.0
C46 C 0.94114 0.12376 0.33504 0.0
C47 C 0.93264 0.10404 0.34539 0.0
C48 C 0.93432 0.07963 0.33888 0.0
C49 C 0.94388 0.07508 0.32231 0.0
C50 C 0.93825 0.09084 0.28299 0.0
C51 C 0.92066 0.07144 0.28354 0.0
C52 C 0.897 0.0745 0.27624 0.0
C53 C 0.89039 0.09697 0.26815 0.0
C54 C 0.90867 0.11557 0.26646 0.0
C55 C 0.9323 0.11252 0.27387 0.0
C56 C 0.97809 0.07088 0.29191 0.0
C57 C 0.99794 0.06873 0.30384 0.0
C58 C 0.01548 0.04971 0.30237 0.0
C59 C 0.01452 0.03271 0.28846 0.0
C60 C 0.99574 0.03566 0.27585 0.0
C61 C 0.97793 0.05463 0.27742 0.0
H62 H 0.99105 0.40307 0.58094 0.0
N63 N 0.96806 0.42632 0.55471 0.0
H64 H 0.97384 0.39522 0.60993 0.0
H65 H 0.92523 0.44458 0.56739 0.0
H66 H 0.90779 0.43707 0.59634 0.0
H67 H 0.92552 0.42459 0.53638 0.0
H68 H 0.90852 0.38784 0.52153 0.0
H69 H 0.99359 0.385 0.54697 0.0
H70 H 0.97692 0.34809 0.53232 0.0
H71 H 0.01788 0.42879 0.55557 0.0
H72 H 0.9517 0.4704 0.5432 0.0
H73 H 0.04353 0.46574 0.55077 0.0
H74 H 0.97711 0.50761 0.53798 0.0
H75 H 0.11458 0.55516 0.56828 0.0
H76 H 0.12495 0.56524 0.59854 0.0
H77 H 0.06133 0.61451 0.60108 0.0
H78 H 0.05129 0.60456 0.571 0.0
H79 H 0.04139 0.60774 0.54127 0.0
H80 H 0.04914 0.64841 0.52847 0.0
H81 H 0.12543 0.62681 0.51801 0.0
H82 H 0.11777 0.58675 0.53178 0.0
H83 H 0.08662 0.5313 0.53259 0.0
H84 H 0.05904 0.4952 0.52994 0.0
H85 H 0.00059 0.53635 0.55598 0.0
N86 N 0.07759 0.5735 0.54928 0.0
H87 H 0.02796 0.57238 0.55803 0.0
C88 C 0.95934 0.42441 0.57222 0.0
C89 C 0.97307 0.41085 0.58441 0.0
C90 C 0.96321 0.40642 0.6009 0.0
C91 C 0.93938 0.4154 0.60535 0.0
C92 C 0.92603 0.42963 0.5932 0.0
C93 C 0.93599 0.43413 0.57676 0.0
C94 C 0.96076 0.40735 0.54264 0.0
C95 C 0.93703 0.40815 0.535 0.0
C96 C 0.9273 0.38709 0.52672 0.0
C97 C 0.94125 0.36494 0.52592 0.0
C98 C 0.96575 0.36487 0.53256 0.0
C99 C 0.97537 0.38591 0.5409 0.0
C100 C 0.98307 0.44705 0.54968 0.0
C101 C 0.00903 0.44586 0.55142 0.0
C102 C 0.02359 0.46698 0.54859 0.0
C103 C 0.01238 0.48971 0.544 0.0
C104 C 0.98632 0.49051 0.54168 0.0
C105 C 0.97179 0.46931 0.54452 0.0
C106 C 0.08224 0.57898 0.56734 0.0
C107 C 0.10285 0.56801 0.57545 0.0
C108 C 0.10869 0.57378 0.5927 0.0
C109 C 0.094 0.59077 0.60216 0.0
C110 C 0.07322 0.60165 0.59405 0.0
C111 C 0.06733 0.59577 0.57683 0.0
C112 C 0.07926 0.59444 0.53782 0.0
C113 C 0.05965 0.6116 0.53599 0.0
C114 C 0.06409 0.63485 0.52853 0.0
C115 C 0.08812 0.64114 0.52261 0.0
C116 C 0.10692 0.62289 0.52292 0.0
C117 C 0.10253 0.59987 0.53056 0.0
C118 C 0.05951 0.55441 0.54559 0.0
C119 C 0.06765 0.53262 0.53734 0.0
C120 C 0.05194 0.51198 0.53599 0.0
C121 C 0.02771 0.51273 0.54298 0.0
C122 C 0.01907 0.53515 0.55035 0.0
C123 C 0.0348 0.55583 0.55162 0.0
H124 H 0.60663 0.47127 0.81544 0.0
N125 N 0.56573 0.45252 0.79849 0.0
H126 H 0.61861 0.46314 0.84552 0.0
H127 H 0.5392 0.42879 0.82243 0.0
H128 H 0.55095 0.42091 0.85274 0.0
H129 H 0.58052 0.40653 0.79193 0.0
H130 H 0.62042 0.39345 0.77994 0.0
H131 H 0.59763 0.48271 0.77948 0.0
H132 H 0.63691 0.46972 0.7668 0.0
H133 H 0.57779 0.50176 0.80288 0.0
H134 H 0.5193 0.45193 0.7866 0.0
H135 H 0.54966 0.5369 0.80001 0.0
H136 H 0.49018 0.4867 0.78509 0.0
H137 H 0.43208 0.63537 0.81662 0.0
H138 H 0.41707 0.64275 0.84601 0.0
H139 H 0.42563 0.56434 0.85708 0.0
H140 H 0.438 0.55701 0.82722 0.0
H141 H 0.40649 0.55636 0.80238 0.0
H142 H 0.36452 0.56029 0.79048 0.0
H143 H 0.3856 0.62934 0.76606 0.0
H144 H 0.4274 0.6256 0.77869 0.0
H145 H 0.48676 0.58743 0.81798 0.0
H146 H 0.51765 0.55489 0.81493 0.0
H147 H 0.47515 0.52277 0.77264 0.0
N148 N 0.44281 0.59198 0.80155 0.0
H149 H 0.44344 0.55432 0.77647 0.0
C150 C 0.57206 0.45032 0.81665 0.0
C151 C 0.59424 0.46044 0.8235 0.0
C152 C 0.60113 0.45572 0.84066 0.0
C153 C 0.58578 0.44127 0.85137 0.0
C154 C 0.56306 0.43221 0.84477 0.0
C155 C 0.55635 0.43662 0.82751 0.0
C156 C 0.58595 0.44557 0.78698 0.0
C157 C 0.59247 0.42034 0.78603 0.0
C158 C 0.6154 0.4129 0.77913 0.0
C159 C 0.63231 0.43058 0.7727 0.0
C160 C 0.62477 0.45565 0.77216 0.0
C161 C 0.60195 0.46313 0.77932 0.0
C162 C 0.55079 0.47412 0.79457 0.0
C163 C 0.55899 0.49839 0.79834 0.0
C164 C 0.54259 0.51853 0.79703 0.0
C165 C 0.51733 0.51484 0.79255 0.0
C166 C 0.50947 0.49057 0.7883 0.0
C167 C 0.52608 0.47054 0.7892 0.0
C168 C 0.43665 0.59582 0.81971 0.0
C169 C 0.4308 0.61986 0.82548 0.0
C170 C 0.42235 0.62401 0.84242 0.0
C171 C 0.4201 0.60421 0.85423 0.0
C172 C 0.42646 0.58011 0.84845 0.0
C173 C 0.43409 0.57588 0.83135 0.0
C174 C 0.42006 0.59081 0.79146 0.0
C175 C 0.40221 0.57206 0.79418 0.0
C176 C 0.3782 0.57432 0.78726 0.0
C177 C 0.37152 0.59532 0.77746 0.0
C178 C 0.38994 0.61318 0.77383 0.0
C179 C 0.41393 0.61094 0.78082 0.0
C180 C 0.46164 0.57288 0.79834 0.0
C181 C 0.48378 0.57318 0.8082 0.0
C182 C 0.50181 0.55465 0.8062 0.0
C183 C 0.49892 0.53573 0.79367 0.0
C184 C 0.4777 0.53642 0.78287 0.0
C185 C 0.45934 0.55471 0.78512 0.0
H186 H 0.47747 0.93852 0.07218 0.0
N187 N 0.44428 0.9485 0.04602 0.0
H188 H 0.46706 0.92442 0.10139 0.0
H189 H 0.39924 0.94656 0.06036 0.0
H190 H 0.3886 0.93305 0.08974 0.0
H191 H 0.41214 0.93779 0.02069 0.0
H192 H 0.40456 0.89689 0.00746 0.0
H193 H 0.4746 0.90765 0.04895 0.0
H194 H 0.46701 0.86703 0.03617 0.0
H195 H 0.49183 0.94129 0.03214 0.0
H196 H 0.44183 0.99661 0.05338 0.0
H197 H 0.52431 0.97224 0.02968 0.0
H198 H 0.47487 0.02757 0.0517 0.0
H199 H 0.62763 0.07116 0.05902 0.0
H200 H 0.64073 0.08019 0.08894 0.0
H201 H 0.56414 0.09546 0.10282 0.0
H202 H 0.55116 0.086 0.073 0.0
H203 H 0.5534 0.11622 0.05068 0.0
H204 H 0.56085 0.1567 0.03795 0.0
H205 H 0.62011 0.12552 0.00666 0.0
H206 H 0.61252 0.08468 0.01966 0.0
H207 H 0.58551 0.02548 0.04868 0.0
H208 H 0.55223 0.99469 0.04712 0.0
H209 H 0.49968 0.0527 0.03406 0.0
N210 N 0.58194 0.07435 0.04579 0.0
H211 H 0.53258 0.08333 0.0365 0.0
C212 C 0.43902 0.94358 0.06407 0.0
C213 C 0.45805 0.9377 0.07599 0.0
C214 C 0.45206 0.92969 0.09272 0.0
C215 C 0.42698 0.92738 0.09785 0.0
C216 C 0.40808 0.93419 0.08611 0.0
C217 C 0.41409 0.94217 0.0694 0.0
C218 C 0.44396 0.92596 0.03571 0.0
C219 C 0.42464 0.92255 0.02364 0.0
C220 C 0.42017 0.89913 0.01628 0.0
C221 C 0.43505 0.87862 0.02086 0.0
C222 C 0.45535 0.88242 0.03216 0.0
C223 C 0.4597 0.90575 0.03956 0.0
C224 C 0.46404 0.96642 0.04316 0.0
C225 C 0.48763 0.95997 0.03639 0.0
C226 C 0.50648 0.97784 0.03504 0.0
C227 C 0.50244 0.00249 0.04061 0.0
C228 C 0.47871 0.00895 0.04701 0.0
C229 C 0.45979 0.9912 0.04811 0.0
C230 C 0.58855 0.07794 0.06379 0.0
C231 C 0.6137 0.07619 0.0686 0.0
C232 C 0.62111 0.08138 0.08563 0.0
C233 C 0.60345 0.08871 0.09813 0.0
C234 C 0.57817 0.0902 0.09337 0.0
C235 C 0.57073 0.0847 0.07637 0.0
C236 C 0.58232 0.09718 0.03601 0.0
C237 C 0.56752 0.11776 0.04074 0.0
C238 C 0.5718 0.14103 0.03341 0.0
C239 C 0.59116 0.14437 0.02135 0.0
C240 C 0.6052 0.12358 0.01604 0.0
C241 C 0.60074 0.10021 0.0233 0.0
C242 C 0.56188 0.05681 0.04282 0.0
C243 C 0.56682 0.03149 0.04534 0.0
C244 C 0.54773 0.01387 0.04433 0.0
C245 C 0.5231 0.02111 0.04051 0.0
C246 C 0.51827 0.04643 0.03738 0.0
C247 C 0.53734 0.06412 0.03866 0.0
H248 H 0.13388 0.52549 0.92725 0.0
N249 N 0.09558 0.52939 0.94885 0.0
H250 H 0.1398 0.54711 0.89963 0.0
H251 H 0.06116 0.55894 0.93267 0.0
H252 H 0.06674 0.58023 0.90484 0.0
H253 H 0.08797 0.57772 0.95875 0.0
H254 H 0.11771 0.60312 0.97526 0.0
H255 H 0.13257 0.51259 0.96835 0.0
H256 H 0.16232 0.53764 0.98485 0.0
H257 H 0.08503 0.48319 0.93989 0.0
H258 H 0.05477 0.54675 0.96681 0.0
H259 H 0.04634 0.46053 0.94449 0.0
H260 H 0.01612 0.52381 0.97233 0.0
H261 H 0.931 0.3898 0.94089 0.0
H262 H 0.9191 0.3813 0.91064 0.0
H263 H 0.91821 0.46021 0.90054 0.0
H264 H 0.9303 0.46845 0.93039 0.0
H265 H 0.90061 0.46915 0.95402 0.0
H266 H 0.85968 0.46626 0.9673 0.0
H267 H 0.88382 0.40169 0.996 0.0
H268 H 0.92472 0.40427 0.982 0.0
H269 H 0.98263 0.41672 0.96284 0.0
H270 H 0.02148 0.44023 0.96468 0.0
H271 H 0.97998 0.50855 0.95819 0.0
N272 N 0.93744 0.43387 0.95606 0.0
H273 H 0.94121 0.48492 0.95767 0.0
C274 C 0.09705 0.54034 0.93186 0.0
C275 C 0.11907 0.5372 0.9223 0.0
C276 C 0.12249 0.54969 0.90667 0.0
C277 C 0.10377 0.56539 0.9002 0.0
C278 C 0.08139 0.56811 0.90954 0.0
C279 C 0.07815 0.55588 0.92537 0.0
C280 C 0.10825 0.54324 0.96226 0.0
C281 C 0.10371 0.56875 0.96491 0.0
C282 C 0.12084 0.58328 0.97421 0.0
C283 C 0.14255 0.57248 0.98117 0.0
C284 C 0.14572 0.54657 0.9798 0.0
C285 C 0.12874 0.53216 0.97041 0.0
C286 C 0.0729 0.51645 0.9531 0.0
C287 C 0.0701 0.49203 0.94712 0.0
C288 C 0.04798 0.47906 0.94992 0.0
C289 C 0.02803 0.49015 0.959 0.0
C290 C 0.03096 0.51469 0.9652 0.0
C291 C 0.05315 0.5278 0.96219 0.0
C292 C 0.93191 0.42964 0.93793 0.0
C293 C 0.92846 0.40518 0.93204 0.0
C294 C 0.92142 0.4004 0.91484 0.0
C295 C 0.91773 0.4201 0.90319 0.0
C296 C 0.92126 0.44461 0.90911 0.0
C297 C 0.92822 0.44935 0.92628 0.0
C298 C 0.91575 0.43672 0.96693 0.0
C299 C 0.89745 0.4548 0.96353 0.0
C300 C 0.8739 0.45312 0.97121 0.0
C301 C 0.86823 0.43346 0.98252 0.0
C302 C 0.88733 0.41673 0.98705 0.0
C303 C 0.91082 0.41834 0.97925 0.0
C304 C 0.95909 0.44888 0.95978 0.0
C305 C 0.98195 0.43681 0.96223 0.0
C306 C 0.00415 0.45032 0.96305 0.0
C307 C 0.00406 0.47633 0.96108 0.0
C308 C 0.98089 0.48859 0.95975 0.0
C309 C 0.95859 0.47501 0.95926 0.0
H310 H 0.51504 0.36792 0.17459 0.0
N311 N 0.51962 0.40617 0.1963 0.0
H312 H 0.53395 0.36288 0.14597 0.0
H313 H 0.54567 0.44182 0.17838 0.0
H314 H 0.56272 0.4379 0.14946 0.0
H315 H 0.56823 0.41454 0.20501 0.0
H316 H 0.5956 0.38458 0.21958 0.0
H317 H 0.50498 0.36731 0.21451 0.0
H318 H 0.53189 0.33719 0.22884 0.0
H319 H 0.47052 0.40908 0.19897 0.0
H320 H 0.53768 0.45134 0.20713 0.0
H321 H 0.44541 0.44587 0.20494 0.0
H322 H 0.51299 0.48913 0.21117 0.0
H323 H 0.37442 0.57307 0.19089 0.0
H324 H 0.36703 0.59004 0.16189 0.0
H325 H 0.44605 0.58533 0.15106 0.0
H326 H 0.45309 0.56778 0.17989 0.0
H327 H 0.45735 0.59347 0.20564 0.0
H328 H 0.45629 0.63503 0.21819 0.0
H329 H 0.38657 0.61756 0.24358 0.0
H330 H 0.38723 0.57633 0.23007 0.0
H331 H 0.40845 0.51757 0.19023 0.0
H332 H 0.4333 0.48011 0.19041 0.0
H333 H 0.48571 0.51524 0.22561 0.0
N334 N 0.41796 0.56101 0.20518 0.0
H335 H 0.46163 0.55348 0.22425 0.0
C336 C 0.52852 0.40527 0.17863 0.0
C337 C 0.52529 0.3833 0.16904 0.0
C338 C 0.53606 0.38053 0.15262 0.0
C339 C 0.55004 0.39994 0.14526 0.0
C340 C 0.55264 0.42226 0.15475 0.0
C341 C 0.54238 0.42475 0.17133 0.0
C342 C 0.5346 0.39297 0.20869 0.0
C343 C 0.56014 0.39812 0.21078 0.0
C344 C 0.57577 0.38083 0.21892 0.0
C345 C 0.56604 0.35827 0.22517 0.0
C346 C 0.54008 0.35439 0.22436 0.0
C347 C 0.52459 0.37159 0.21619 0.0
C348 C 0.50583 0.42768 0.20199 0.0
C349 C 0.47979 0.42647 0.20196 0.0
C350 C 0.46552 0.4477 0.20513 0.0
C351 C 0.47701 0.47097 0.20785 0.0
C352 C 0.50328 0.47175 0.20903 0.0
C353 C 0.51754 0.45018 0.20644 0.0
C354 C 0.41418 0.56916 0.18752 0.0
C355 C 0.39004 0.57548 0.18214 0.0
C356 C 0.38594 0.58539 0.16566 0.0
C357 C 0.40599 0.58924 0.15422 0.0
C358 C 0.43018 0.58242 0.1595 0.0
C359 C 0.43426 0.57249 0.176 0.0
C360 C 0.42211 0.58185 0.21673 0.0
C361 C 0.44217 0.59833 0.21426 0.0
C362 C 0.44155 0.62218 0.22155 0.0
C363 C 0.42101 0.62997 0.2316 0.0
C364 C 0.40233 0.61249 0.23551 0.0
C365 C 0.40285 0.58874 0.22805 0.0
C366 C 0.43315 0.53879 0.2068 0.0
C367 C 0.42539 0.5173 0.19792 0.0
C368 C 0.43956 0.49561 0.19829 0.0
C369 C 0.46166 0.49426 0.20815 0.0
C370 C 0.46911 0.51555 0.21759 0.0
C371 C 0.45513 0.53761 0.21687 0.0
H372 H 0.38386 1.00031 0.4154 0.0
N373 N 0.41165 0.98594 0.44212 0.0
H374 H 0.38051 0.98051 0.38669 0.0
H375 H 0.43699 0.94447 0.43096 0.0
H376 H 0.43382 0.92478 0.40254 0.0
H377 H 0.41258 0.93976 0.45694 0.0
H378 H 0.37923 0.92155 0.47442 0.0
H379 H 0.37294 0.00939 0.45568 0.0
H380 H 0.33941 0.99145 0.47292 0.0
H381 H 0.42387 0.03361 0.4417 0.0
H382 H 0.45202 0.96154 0.45582 0.0
H383 H 0.46472 0.05193 0.44749 0.0
H384 H 0.49345 0.9789 0.45992 0.0
H385 H 0.58521 0.0922 0.435 0.0
H386 H 0.59873 0.10822 0.40703 0.0
H387 H 0.61534 0.03338 0.38986 0.0
H388 H 0.60139 0.01747 0.418 0.0
H389 H 0.6255 0.01872 0.45564 0.0
H390 H 0.66013 0.03464 0.4729 0.0
H391 H 0.61902 0.10252 0.48245 0.0
H392 H 0.58402 0.08595 0.46524 0.0
H393 H 0.54476 0.06667 0.43044 0.0
H394 H 0.50205 0.05425 0.43354 0.0
H395 H 0.52318 0.00247 0.47377 0.0
N396 N 0.58574 0.04361 0.44534 0.0
H397 H 0.56684 0.01371 0.46953 0.0
C398 C 0.41088 0.9742 0.42526 0.0
C399 C 0.39489 0.98389 0.41258 0.0
C400 C 0.39286 0.97247 0.39628 0.0
C401 C 0.40696 0.95112 0.39235 0.0
C402 C 0.42298 0.9414 0.4051 0.0
C403 C 0.42483 0.95272 0.42142 0.0
C404 C 0.39506 0.97597 0.45496 0.0
C405 C 0.39697 0.9513 0.46074 0.0
C406 C 0.3778 0.94086 0.47065 0.0
C407 C 0.35653 0.95495 0.47499 0.0
C408 C 0.3556 0.98009 0.47006 0.0
C409 C 0.37468 0.99041 0.46015 0.0
C410 C 0.43509 0.99619 0.44778 0.0
C411 C 0.43897 0.02176 0.44604 0.0
C412 C 0.46246 0.0321 0.44917 0.0
C413 C 0.48285 0.0169 0.4537 0.0
C414 C 0.47841 0.99138 0.4565 0.0
C415 C 0.45468 0.98121 0.45381 0.0
C416 C 0.59231 0.05353 0.42857 0.0
C417 C 0.59184 0.07922 0.42528 0.0
C418 C 0.59966 0.08838 0.40926 0.0
C419 C 0.60825 0.0721 0.39623 0.0
C420 C 0.60856 0.0464 0.39954 0.0
C421 C 0.60066 0.03726 0.41558 0.0
C422 C 0.6025 0.05124 0.45898 0.0
C423 C 0.62364 0.03665 0.46198 0.0
C424 C 0.64339 0.04583 0.47188 0.0
C425 C 0.64245 0.07 0.47892 0.0
C426 C 0.6204 0.08397 0.47699 0.0
C427 C 0.60042 0.07454 0.46721 0.0
C428 C 0.55957 0.04092 0.44963 0.0
C429 C 0.54057 0.05288 0.44014 0.0
C430 C 0.51567 0.04583 0.44207 0.0
C431 C 0.50885 0.02701 0.45378 0.0
C432 C 0.52762 0.01651 0.46425 0.0
C433 C 0.55265 0.0232 0.46204 0.0
H434 H 0.01426 0.8771 0.67159 0.0
N435 N 0.01809 0.91548 0.69319 0.0
H436 H 0.03376 0.87186 0.64328 0.0
H437 H 0.0458 0.95051 0.67604 0.0
H438 H 0.0635 0.94652 0.64714 0.0
H439 H 0.06692 0.91919 0.70294 0.0
H440 H 0.09043 0.88733 0.71874 0.0
H441 H 0.99892 0.87843 0.71122 0.0
H442 H 0.02198 0.8464 0.72669 0.0
H443 H 0.96996 0.925 0.68987 0.0
H444 H 0.03888 0.95688 0.70817 0.0
H445 H 0.94834 0.96414 0.69561 0.0
H446 H 0.01737 0.99646 0.71404 0.0
H447 H 0.88752 0.05449 0.67995 0.0
H448 H 0.88047 0.06377 0.64915 0.0
H449 H 0.94543 0.11126 0.64933 0.0
H450 H 0.95247 0.10176 0.67984 0.0
H451 H 0.96044 0.10483 0.70955 0.0
H452 H 0.95389 0.14578 0.72239 0.0
H453 H 0.87633 0.1275 0.73129 0.0
H454 H 0.88284 0.08732 0.7171 0.0
H455 H 0.91011 0.03056 0.71615 0.0
H456 H 0.93458 0.99231 0.71861 0.0
H457 H 0.99793 0.0296 0.6959 0.0
N458 N 0.92333 0.07215 0.70048 0.0
H459 H 0.97347 0.06785 0.69389 0.0
C460 C 0.02819 0.91422 0.67586 0.0
C461 C 0.02494 0.89232 0.66622 0.0
C462 C 0.036 0.88948 0.64994 0.0
C463 C 0.05021 0.90881 0.64267 0.0
C464 C 0.05313 0.93098 0.65231 0.0
C465 C 0.0426 0.93351 0.66884 0.0
C466 C 0.03116 0.90104 0.70596 0.0
C467 C 0.05697 0.90377 0.70866 0.0
C468 C 0.07039 0.88538 0.7175 0.0
C469 C 0.05819 0.86409 0.72382 0.0
C470 C 0.03205 0.86258 0.72221 0.0
C471 C 0.01875 0.88088 0.71338 0.0
C472 C 0.00589 0.93809 0.69855 0.0
C473 C 0.98029 0.94042 0.69543 0.0
C474 C 0.96799 0.96278 0.69881 0.0
C475 C 0.98111 0.98345 0.70535 0.0
C476 C 0.00677 0.98092 0.70892 0.0
C477 C 0.01906 0.95833 0.70565 0.0
C478 C 0.92033 0.07746 0.68227 0.0
C479 C 0.90025 0.0668 0.67328 0.0
C480 C 0.8963 0.07209 0.65573 0.0
C481 C 0.91233 0.08837 0.6469 0.0
C482 C 0.93257 0.09894 0.65589 0.0
C483 C 0.93666 0.09341 0.67337 0.0
C484 C 0.9219 0.09329 0.71198 0.0
C485 C 0.94211 0.10955 0.71441 0.0
C486 C 0.93832 0.13298 0.72195 0.0
C487 C 0.91436 0.14036 0.72753 0.0
C488 C 0.89483 0.12292 0.72661 0.0
C489 C 0.89855 0.09976 0.71876 0.0
C490 C 0.93981 0.05194 0.70475 0.0
C491 C 0.92949 0.03061 0.71217 0.0
C492 C 0.94344 0.00876 0.71342 0.0
C493 C 0.96809 0.00778 0.70718 0.0
C494 C 0.97904 0.02974 0.70089 0.0
C495 C 0.96502 0.05166 0.69968 0.0
Co496 Co 0.34885 0.65873 0.00874 0.0
O497 O 0.32531 0.63196 0.00906 0.0
O498 O 0.31662 0.67011 0.00028 0.0
C499 C 0.3637 0.65158 0.0357 0.0
O500 O 0.36824 0.69126 0.00748 0.0
Co501 Co 0.4054 0.64721 0.01122 0.0
O502 O 0.40876 0.68385 0.01319 0.0
C503 C 0.37862 0.63741 0.97859 0.0
C504 C 0.30888 0.64763 0.0034 0.0
C505 C 0.39078 0.69874 0.01011 0.0
O506 O 0.35957 0.64938 0.98443 0.0
O507 O 0.39772 0.63215 0.98788 0.0
O508 O 0.34345 0.66445 0.03348 0.0
O509 O 0.37312 0.64191 0.02178 0.0
Co510 Co 0.36341 0.85861 0.2426 0.0
O511 O 0.34085 0.8865 0.24307 0.0
O512 O 0.33119 0.84825 0.25114 0.0
C513 C 0.37808 0.86596 0.21566 0.0
O514 O 0.38077 0.82482 0.24329 0.0
Co515 Co 0.42046 0.86496 0.23953 0.0
O516 O 0.42143 0.82836 0.23676 0.0
C517 C 0.39536 0.87695 0.27264 0.0
C518 C 0.32415 0.87112 0.2488 0.0
C519 C 0.40231 0.81519 0.24011 0.0
O520 O 0.37498 0.8673 0.26685 0.0
O521 O 0.41495 0.87941 0.2633 0.0
O522 O 0.35727 0.854 0.21785 0.0
O523 O 0.38852 0.8744 0.22964 0.0
Co524 Co 0.14198 0.85913 0.49354 0.0
O525 O 0.11551 0.83485 0.49324 0.0
O526 O 0.15376 0.82829 0.50317 0.0
C527 C 0.13615 0.87249 0.46618 0.0
O528 O 0.17465 0.87848 0.49522 0.0
Co529 Co 0.13179 0.91544 0.4895 0.0
O530 O 0.16851 0.91863 0.4885 0.0
C531 C 0.12142 0.89133 0.52296 0.0
C532 C 0.13157 0.8196 0.49999 0.0
C533 C 0.18281 0.90058 0.49238 0.0
O534 O 0.13098 0.87092 0.51725 0.0
O535 O 0.1188 0.91079 0.51366 0.0
O536 O 0.14885 0.85237 0.46916 0.0
O537 O 0.12575 0.88273 0.47957 0.0
Co538 Co 0.1433 0.65849 0.75804 0.0
O539 O 0.1147 0.67991 0.75628 0.0
O540 O 0.15313 0.69057 0.74892 0.0
C541 C 0.13438 0.64511 0.78505 0.0
O542 O 0.17767 0.64204 0.75891 0.0
Co543 Co 0.1376 0.60145 0.76307 0.0
O544 O 0.17404 0.6022 0.76724 0.0
C545 C 0.12958 0.6235 0.72834 0.0
C546 C 0.12982 0.6969 0.7507 0.0
C547 C 0.18728 0.62106 0.76341 0.0
O548 O 0.13699 0.64496 0.73382 0.0
O549 O 0.12681 0.60473 0.7383 0.0
O550 O 0.14594 0.66608 0.78288 0.0
O551 O 0.12728 0.63394 0.77104 0.0
Co552 Co 0.86257 0.15586 0.49232 0.0
O553 O 0.89074 0.17782 0.49307 0.0
O554 O 0.85306 0.18732 0.50283 0.0
C555 C 0.86864 0.14407 0.46443 0.0
O556 O 0.82874 0.13841 0.49303 0.0
Co557 Co 0.87018 0.09942 0.48578 0.0
O558 O 0.8333 0.09825 0.4853 0.0
C559 C 0.88094 0.12062 0.52045 0.0
C560 C 0.87596 0.19422 0.49994 0.0
C561 C 0.81975 0.11669 0.48973 0.0
O562 O 0.87195 0.14176 0.51573 0.0
O563 O 0.88364 0.10222 0.51 0.0
O564 O 0.85679 0.16451 0.46804 0.0
O565 O 0.8778 0.13242 0.4776 0.0
Co566 Co 0.84988 0.36643 0.74786 0.0
O567 O 0.82731 0.39425 0.74936 0.0
O568 O 0.8177 0.35552 0.75624 0.0
C569 C 0.86449 0.37525 0.72114 0.0
O570 O 0.86745 0.33275 0.74729 0.0
Co571 Co 0.90723 0.37386 0.74436 0.0
O572 O 0.90823 0.33731 0.74113 0.0
C573 C 0.88211 0.38419 0.77773 0.0
C574 C 0.81061 0.37851 0.75458 0.0
C575 C 0.88922 0.32371 0.74398 0.0
O576 O 0.86208 0.37339 0.7723 0.0
O577 O 0.90094 0.38838 0.76796 0.0
O578 O 0.84345 0.36353 0.72291 0.0
O579 O 0.87478 0.38284 0.73536 0.0
Co580 Co 0.6436 0.36315 0.99492 0.0
O581 O 0.61728 0.33877 0.994 0.0
O582 O 0.65602 0.33135 0.00261 0.0
C583 C 0.63607 0.37922 0.96849 0.0
O584 O 0.67621 0.38255 0.99686 0.0
Co585 Co 0.63358 0.41969 0.9937 0.0
O586 O 0.67011 0.42284 0.99073 0.0
C587 C 0.62426 0.39225 0.02613 0.0
C588 C 0.6337 0.32291 -0.00045 0.0
C589 C 0.6845 0.4046 0.99399 0.0
O590 O 0.63356 0.37237 0.01938 0.0
O591 O 0.62148 0.41257 0.01779 0.0
O592 O 0.64936 0.35914 0.97009 0.0
O593 O 0.62643 0.38796 0.98264 0.0
Co594 Co 0.66116 0.15582 0.25291 0.0
O595 O 0.63241 0.1772 0.25181 0.0
O596 O 0.67068 0.18818 0.24426 0.0
C597 C 0.6532 0.14131 0.27978 0.0
O598 O 0.69564 0.13961 0.25307 0.0
Co599 Co 0.65604 0.09851 0.25679 0.0
O600 O 0.69259 0.09931 0.26038 0.0
C601 C 0.64759 0.12184 0.22256 0.0
C602 C 0.6474 0.19439 0.24632 0.0
C603 C 0.70554 0.11848 0.25686 0.0
O604 O 0.65439 0.14323 0.22854 0.0
O605 O 0.6455 0.10245 0.23201 0.0
O606 O 0.66429 0.16258 0.27781 0.0
O607 O 0.64575 0.13058 0.26567 0.0
H608 H 0.19162 0.95373 0.27597 0.0
H609 H 0.28237 0.84219 0.25184 0.0
H610 H 0.16458 0.88591 0.2522 0.0
H611 H 0.30689 0.91857 0.25254 0.0
H612 H 0.23921 0.85648 0.25569 0.0
H613 H 0.23424 0.94009 0.27051 0.0
C614 C 0.19448 0.93616 0.26936 0.0
C615 C 0.1742 0.92103 0.26453 0.0
C616 C 0.25408 0.87007 0.25498 0.0
C617 C 0.2233 0.90493 0.25885 0.0
C618 C 0.27868 0.86194 0.25291 0.0
C619 C 0.29819 0.87925 0.25188 0.0
C620 C 0.24907 0.89563 0.25634 0.0
C621 C 0.29238 0.90462 0.25323 0.0
C622 C 0.21893 0.9283 0.2664 0.0
C623 C 0.17946 0.89808 0.25646 0.0
N624 N 0.26835 0.91205 0.2555 0.0
N625 N 0.20347 0.89064 0.25402 0.0
H626 H 0.05968 0.67516 0.50449 0.0
H627 H 0.16095 0.7839 0.5147 0.0
H628 H 0.13058 0.66689 0.53058 0.0
H629 H 0.08766 0.79554 0.49285 0.0
H630 H 0.15048 0.74035 0.51945 0.0
H631 H 0.06992 0.71877 0.49885 0.0
C632 C 0.0774 0.68244 0.50898 0.0
C633 C 0.09434 0.6672 0.51792 0.0
C634 C 0.13664 0.75241 0.51364 0.0
C635 C 0.10618 0.71703 0.5115 0.0
C636 C 0.14261 0.77731 0.51094 0.0
C637 C 0.12514 0.79338 0.5034 0.0
C638 C 0.11302 0.74343 0.50872 0.0
C639 C 0.10168 0.78378 0.49875 0.0
C640 C 0.08325 0.70732 0.50573 0.0
C641 C 0.11712 0.67766 0.52332 0.0
N642 N 0.0963 0.75941 0.50147 0.0
N643 N 0.12231 0.70185 0.52004 0.0
H644 H 0.33696 0.56096 0.76622 0.0
H645 H 0.22323 0.65762 0.7626 0.0
H646 H 0.34534 0.63926 0.77742 0.0
H647 H 0.21421 0.57795 0.76498 0.0
H648 H 0.26862 0.65194 0.76384 0.0
H649 H 0.29244 0.56768 0.7613 0.0
C650 C 0.32951 0.57959 0.76759 0.0
C651 C 0.345 0.59951 0.7724 0.0
C652 C 0.25664 0.63574 0.76404 0.0
C653 C 0.29395 0.60737 0.76662 0.0
C654 C 0.23075 0.63896 0.76332 0.0
C655 C 0.21482 0.61825 0.76381 0.0
C656 C 0.26667 0.61165 0.76507 0.0
C657 C 0.22567 0.5945 0.76473 0.0
C658 C 0.30407 0.58342 0.76473 0.0
C659 C 0.33426 0.62334 0.77358 0.0
N660 N 0.25086 0.59187 0.76532 0.0
N661 N 0.3094 0.62658 0.77081 0.0
H662 H 0.46614 0.84063 0.01072 0.0
H663 H 0.35781 0.73801 0.00881 0.0
H664 H 0.38833 0.85793 0.01888 0.0
H665 H 0.43662 0.72109 0.00966 0.0
H666 H 0.36802 0.78239 0.00852 0.0
H667 H 0.45492 0.79713 0.00598 0.0
C668 C 0.44667 0.83532 0.01138 0.0
C669 C 0.4282 0.85296 0.01538 0.0
C670 C 0.38304 0.76891 0.0087 0.0
C671 C 0.41519 0.80311 0.00995 0.0
C672 C 0.37724 0.74357 0.00886 0.0
C673 C 0.39637 0.72572 0.00941 0.0
C674 C 0.40815 0.77646 0.00897 0.0
C675 C 0.42121 0.7341 0.00941 0.0
C676 C 0.44026 0.81048 0.00866 0.0
C677 C 0.4032 0.84505 0.01573 0.0
N678 N 0.42634 0.7588 0.00924 0.0
N679 N 0.39745 0.82068 0.01321 0.0
H680 H 0.17244 0.56423 0.00951 0.0
H681 H 0.27058 0.6713 0.98601 0.0
H682 H 0.16054 0.61603 0.9677 0.0
H683 H 0.28711 0.60662 0.01689 0.0
H684 H 0.22726 0.65657 0.98296 0.0
H685 H 0.2113 0.58561 0.01672 0.0
C686 C 0.17785 0.58029 0.00198 0.0
C687 C 0.16337 0.58811 0.98783 0.0
C688 C 0.24042 0.64575 0.99046 0.0
C689 C 0.20794 0.61265 0.99595 0.0
C690 C 0.26508 0.65412 0.99219 0.0
C691 C 0.28251 0.64 0.00153 0.0
C692 C 0.23321 0.62337 -0.00163 0.0
C693 C 0.27441 0.61795 0.00937 0.0
C694 C 0.20005 0.59249 0.00608 0.0
C695 C 0.17107 0.60938 0.97874 0.0
N696 N 0.25043 0.61034 0.0076 0.0
N697 N 0.19301 0.62074 0.98282 0.0
H698 H 0.37751 0.65698 0.23197 0.0
H699 H 0.44567 0.78808 0.23951 0.0
H700 H 0.45675 0.66456 0.24095 0.0
H701 H 0.3656 0.77962 0.24186 0.0
H702 H 0.45009 0.74294 0.23979 0.0
H703 H 0.37271 0.70162 0.23596 0.0
C704 C 0.39389 0.66787 0.23512 0.0
C705 C 0.41763 0.65678 0.2361 0.0
C706 C 0.43156 0.75095 0.24034 0.0
C707 C 0.41224 0.70836 0.24016 0.0
C708 C 0.42898 0.77676 0.24009 0.0
C709 C 0.40519 0.78776 0.24057 0.0
C710 C 0.41019 0.73589 0.2409 0.0
C711 C 0.38431 0.77204 0.24144 0.0
C712 C 0.39112 0.6935 0.23723 0.0
C713 C 0.43814 0.67222 0.23979 0.0
N714 N 0.3873 0.74692 0.24147 0.0
N715 N 0.435 0.6972 0.24154 0.0
H716 H 0.32487 0.97421 0.49967 0.0
H717 H 0.22174 0.86807 0.48728 0.0
H718 H 0.33675 0.90893 0.46786 0.0
H719 H 0.20544 0.94443 0.5005 0.0
H720 H 0.26648 0.87823 0.48712 0.0
H721 H 0.28372 0.95831 0.5075 0.0
C722 C 0.31899 0.95639 0.4945 0.0
C723 C 0.33412 0.94316 0.48279 0.0
C724 C 0.25305 0.89262 0.49024 0.0
C725 C 0.28711 0.9248 0.49182 0.0
C726 C 0.22758 0.88686 0.49036 0.0
C727 C 0.20988 0.90554 0.49367 0.0
C728 C 0.26075 0.91709 0.49377 0.0
C729 C 0.21844 0.92956 0.49761 0.0
C730 C 0.29551 0.94732 0.499 0.0
C731 C 0.32575 0.91981 0.4769 0.0
N732 N 0.24323 0.93465 0.49751 0.0
N733 N 0.30265 0.91152 0.4813 0.0
H734 H 0.10256 0.84522 0.71152 0.0
H735 H 0.08501 0.7166 0.75998 0.0
H736 H 0.04629 0.83264 0.75059 0.0
H737 H 0.15409 0.73556 0.73453 0.0
H738 H 0.0701 0.75882 0.75544 0.0
H739 H 0.12207 0.80567 0.71924 0.0
C740 C 0.09456 0.83445 0.72196 0.0
C741 C 0.07252 0.84225 0.73029 0.0
C742 C 0.08857 0.75385 0.75089 0.0
C743 C 0.09446 0.79659 0.73882 0.0
C744 C 0.09705 0.72965 0.75336 0.0
C745 C 0.12081 0.72249 0.74754 0.0
C746 C 0.10377 0.77109 0.7423 0.0
C747 C 0.13563 0.7403 0.73918 0.0
C748 C 0.10563 0.81174 0.72625 0.0
C749 C 0.0629 0.82721 0.74354 0.0
N750 N 0.12679 0.76378 0.73668 0.0
N751 N 0.07374 0.80502 0.74723 0.0
H752 H 0.64915 0.38683 0.7577 0.0
H753 H 0.79282 0.42577 0.7583 0.0
H754 H 0.67546 0.45721 0.77789 0.0
H755 H 0.76895 0.3492 0.75729 0.0
H756 H 0.74934 0.43873 0.76171 0.0
H757 H 0.6925 0.37387 0.75349 0.0
C758 C 0.66392 0.39962 0.76122 0.0
C759 C 0.65842 0.4232 0.76823 0.0
C760 C 0.75363 0.41909 0.7608 0.0
C761 C 0.70814 0.4085 0.76316 0.0
C762 C 0.77843 0.41168 0.75886 0.0
C763 C 0.78451 0.38636 0.75758 0.0
C764 C 0.73467 0.4011 0.76121 0.0
C765 C 0.76508 0.3689 0.75835 0.0
C766 C 0.68868 0.39218 0.75878 0.0
C767 C 0.67854 0.43906 0.77217 0.0
N768 N 0.74099 0.3766 0.76 0.0
N769 N 0.70243 0.43142 0.76958 0.0
H770 H 0.63789 0.16446 0.01852 0.0
H771 H 0.58809 0.30083 0.99568 0.0
H772 H 0.55999 0.1824 0.01168 0.0
H773 H 0.66478 0.28462 0.0086 0.0
H774 H 0.57791 0.25691 -0.00075 0.0
H775 H 0.64861 0.20758 0.01211 0.0
C776 C 0.62305 0.17738 0.01539 0.0
C777 C 0.59798 0.1698 0.01566 0.0
C778 C 0.59697 0.26294 0.0013 0.0
C779 C 0.61011 0.21934 0.00862 0.0
C780 C 0.6028 0.28803 -0.00072 0.0
C781 C 0.62731 0.29642 0.00191 0.0
C782 C 0.61581 0.24604 0.00592 0.0
C783 C 0.64562 0.27898 0.00651 0.0
C784 C 0.62918 0.20206 0.01191 0.0
C785 C 0.57953 0.18749 0.0118 0.0
N786 N 0.63949 0.25461 0.00837 0.0
N787 N 0.58596 0.21143 0.0085 0.0
H788 H 0.86389 0.14052 0.27131 0.0
H789 H 0.73278 0.07557 0.25567 0.0
H790 H 0.85622 0.06438 0.25402 0.0
H791 H 0.74111 0.15538 0.25754 0.0
H792 H 0.77802 0.07124 0.25588 0.0
H793 H 0.81932 0.14671 0.26648 0.0
C794 C 0.85301 0.12519 0.26618 0.0
C795 C 0.86395 0.10179 0.26317 0.0
C796 C 0.76999 0.08971 0.25615 0.0
C797 C 0.81263 0.10868 0.2581 0.0
C798 C 0.74411 0.09223 0.25614 0.0
C799 C 0.73307 0.1159 0.25669 0.0
C800 C 0.78509 0.11099 0.25695 0.0
C801 C 0.7488 0.13677 0.25712 0.0
C802 C 0.82746 0.12874 0.26356 0.0
C803 C 0.84861 0.08259 0.25687 0.0
N804 N 0.77404 0.13382 0.25739 0.0
N805 N 0.82373 0.08639 0.25472 0.0
H806 H 0.89408 0.34778 0.53259 0.0
H807 H 0.92163 0.21333 0.49244 0.0
H808 H 0.96206 0.32811 0.5058 0.0
H809 H 0.85054 0.23348 0.51479 0.0
H810 H 0.9362 0.25566 0.49701 0.0
H811 H 0.87696 0.3069 0.52537 0.0
C812 C 0.90526 0.33504 0.52492 0.0
C813 C 0.92962 0.34138 0.51984 0.0
C814 C 0.9174 0.25091 0.50093 0.0
C815 C 0.91029 0.29433 0.51187 0.0
C816 C 0.90907 0.22666 0.4984 0.0
C817 C 0.88485 0.2198 0.50333 0.0
C818 C 0.90147 0.26857 0.50855 0.0
C819 C 0.8694 0.23796 0.51087 0.0
C820 C 0.89553 0.31161 0.52094 0.0
C821 C 0.94336 0.32391 0.5102 0.0
N822 N 0.87801 0.26154 0.5133 0.0
N823 N 0.93356 0.30117 0.50663 0.0
H824 H 0.66124 0.11666 0.47317 0.0
H825 H 0.79704 0.07318 0.49782 0.0
H826 H 0.67686 0.04868 0.50062 0.0
H827 H 0.78087 0.14998 0.48646 0.0
H828 H 0.75254 0.06483 0.4997 0.0
H829 H 0.7037 0.1309 0.47943 0.0
C830 C 0.67334 0.10501 0.48093 0.0
C831 C 0.6656 0.08123 0.48613 0.0
C832 C 0.75862 0.0836 0.49696 0.0
C833 C 0.71435 0.09717 0.49293 0.0
C834 C 0.78407 0.08834 0.49573 0.0
C835 C 0.79267 0.11225 0.49175 0.0
C836 C 0.74144 0.10277 0.49385 0.0
C837 C 0.77499 0.13125 0.48948 0.0
C838 C 0.69766 0.11309 0.48438 0.0
C839 C 0.68221 0.06689 0.496 0.0
N840 N 0.75013 0.12602 0.49029 0.0
N841 N 0.7059 0.07489 0.49882 0.0
H842 H 0.872 0.16782 0.72134 0.0
H843 H 0.93283 0.29737 0.74628 0.0
H844 H 0.94504 0.17357 0.74493 0.0
H845 H 0.85324 0.28765 0.74059 0.0
H846 H 0.9382 0.25235 0.74448 0.0
H847 H 0.86506 0.21166 0.72741 0.0
C848 C 0.88647 0.17807 0.72809 0.0
C849 C 0.90921 0.1667 0.73262 0.0
C850 C 0.91955 0.26006 0.74375 0.0
C851 C 0.90151 0.21748 0.73908 0.0
C852 C 0.91646 0.28578 0.74467 0.0
C853 C 0.89253 0.29636 0.74349 0.0
C854 C 0.89864 0.24474 0.74136 0.0
C855 C 0.87202 0.28034 0.74156 0.0
C856 C 0.8825 0.20327 0.73142 0.0
C857 C 0.92739 0.18145 0.74089 0.0
N858 N 0.87557 0.25535 0.74039 0.0
N859 N 0.92324 0.2061 0.7437 0.0
H860 H 0.84423 0.38865 0.98543 0.0
H861 H 0.70902 0.4493 0.99327 0.0
H862 H 0.83188 0.46759 0.99131 0.0
H863 H 0.72235 0.37023 0.99607 0.0
H864 H 0.75398 0.45632 0.99323 0.0
H865 H 0.8 0.38149 0.99058 0.0
C866 C 0.83237 0.4045 0.98814 0.0
C867 C 0.84193 0.42883 0.98786 0.0
C868 C 0.74708 0.43744 0.99396 0.0
C869 C 0.79088 0.42068 0.9933 0.0
C870 C 0.72137 0.43338 0.99391 0.0
C871 C 0.7118 0.4091 0.99456 0.0
C872 C 0.76347 0.41709 0.99451 0.0
C873 C 0.72881 0.38927 0.99551 0.0
C874 C 0.80699 0.40037 0.99093 0.0
C875 C 0.82535 0.44856 0.9911 0.0
N876 N 0.7538 0.3937 0.99532 0.0
N877 N 0.80063 0.44407 0.99352 0.0
H878 H 0.61037 0.34389 0.21038 0.0
H879 H 0.6731 0.23425 0.23308 0.0
H880 H 0.55942 0.32466 0.25156 0.0
H881 H 0.60124 0.21308 0.25345 0.0
H882 H 0.65756 0.27672 0.22934 0.0
H883 H 0.63354 0.30575 0.2158 0.0
C884 C 0.60444 0.33203 0.22092 0.0
C885 C 0.58277 0.33753 0.23048 0.0
C886 C 0.64508 0.26273 0.2344 0.0
C887 C 0.60924 0.2935 0.2367 0.0
C888 C 0.654 0.23849 0.23662 0.0
C889 C 0.63836 0.22003 0.2434 0.0
C890 C 0.62035 0.26849 0.23906 0.0
C891 C 0.61389 0.22663 0.248 0.0
C892 C 0.61773 0.31011 0.22399 0.0
C893 C 0.57574 0.32104 0.24367 0.0
N894 N 0.60569 0.25028 0.24579 0.0
N895 N 0.58872 0.29966 0.24622 0.0
H896 H 0.10358 0.96108 0.37504 0.0
H897 H 0.1454 0.84857 0.43553 0.0
H898 H 0.10101 0.88443 0.35842 0.0
H899 H 0.11791 0.91788 0.45656 0.0
H900 H 0.13607 0.86346 0.40625 0.0
H901 H 0.11526 0.94738 0.40433 0.0
C902 C 0.1055 0.94139 0.37759 0.0
C903 C 0.1012 0.92382 0.3644 0.0
C904 C 0.13216 0.87542 0.41728 0.0
C905 C 0.1148 0.90812 0.3976 0.0
C906 C 0.1376 0.86701 0.43397 0.0
C907 C 0.13228 0.88199 0.44846 0.0
C908 C 0.12168 0.89911 0.41508 0.0
C909 C 0.12214 0.9057 0.44571 0.0
C910 C 0.11207 0.9336 0.39425 0.0
C911 C 0.10388 0.89853 0.36832 0.0
N912 N 0.11719 0.91358 0.42932 0.0
N913 N 0.11065 0.89142 0.38455 0.0
H914 H 0.09375 0.63644 0.61836 0.0
H915 H 0.12354 0.57924 0.71154 0.0
H916 H 0.10792 0.55871 0.62779 0.0
H917 H 0.12471 0.65835 0.70223 0.0
H918 H 0.11563 0.57203 0.68095 0.0
H919 H 0.10292 0.64542 0.649 0.0
C920 C 0.09875 0.62127 0.62688 0.0
C921 C 0.10006 0.59677 0.62052 0.0
C922 C 0.11763 0.591 0.68552 0.0
C923 C 0.11059 0.60691 0.65547 0.0
C924 C 0.12205 0.59519 0.70308 0.0
C925 C 0.12471 0.6195 0.70957 0.0
C926 C 0.11563 0.61121 0.67419 0.0
C927 C 0.1228 0.63931 0.69782 0.0
C928 C 0.10412 0.62644 0.64431 0.0
C929 C 0.10693 0.57789 0.63206 0.0
N930 N 0.11825 0.63473 0.68067 0.0
N931 N 0.11181 0.58335 0.64895 0.0
H932 H 0.39432 0.57209 0.87576 0.0
H933 H 0.36548 0.66688 0.95144 0.0
H934 H 0.42486 0.64654 0.8746 0.0
H935 H 0.39524 0.5945 0.96353 0.0
H936 H 0.37331 0.65864 0.92044 0.0
H937 H 0.38164 0.57926 0.90582 0.0
C938 C 0.39854 0.58989 0.88167 0.0
C939 C 0.41108 0.60861 0.8724 0.0
C940 C 0.37773 0.6445 0.92992 0.0
C941 C 0.39518 0.61714 0.90658 0.0
C942 C 0.37313 0.64907 0.94751 0.0
C943 C 0.37979 0.63131 0.95994 0.0
C944 C 0.38833 0.62178 0.92482 0.0
C945 C 0.38995 0.60865 0.95427 0.0
C946 C 0.39098 0.59396 0.8988 0.0
C947 C 0.41495 0.63158 0.88086 0.0
N948 N 0.39382 0.60443 0.93705 0.0
N949 N 0.40691 0.63522 0.89742 0.0
H950 H 0.38977 0.89441 0.10567 0.0
H951 H 0.41974 0.89279 0.20757 0.0
H952 H 0.4496 0.93634 0.12935 0.0
H953 H 0.35781 0.8538 0.18411 0.0
H954 H 0.4328 0.90652 0.17878 0.0
H955 H 0.37918 0.87759 0.13408 0.0
C956 C 0.40059 0.90023 0.11687 0.0
C957 C 0.42049 0.917 0.11512 0.0
C958 C 0.41644 0.89485 0.1799 0.0
C959 C 0.40869 0.89744 0.14772 0.0
C960 C 0.40901 0.88694 0.19634 0.0
C961 C 0.38757 0.87225 0.19824 0.0
C962 C 0.40231 0.88805 0.16525 0.0
C963 C 0.37442 0.86518 0.18324 0.0
C964 C 0.39465 0.89045 0.13308 0.0
C965 C 0.43421 0.92336 0.13005 0.0
N966 N 0.38192 0.87326 0.16739 0.0
N967 N 0.428 0.91364 0.14572 0.0
H968 H 0.14413 0.59338 0.89105 0.0
H969 H 0.10197 0.60804 0.79281 0.0
H970 H 0.07264 0.56816 0.87215 0.0
H971 H 0.15557 0.65768 0.8164 0.0
H972 H 0.09371 0.59003 0.82124 0.0
H973 H 0.15131 0.61423 0.86325 0.0
C974 C 0.12996 0.59228 0.88103 0.0
C975 C 0.1078 0.57899 0.8838 0.0
C976 C 0.1072 0.60492 0.82022 0.0
C977 C 0.11595 0.60254 0.85208 0.0
C978 C 0.11204 0.61513 0.80399 0.0
C979 C 0.1295 0.63436 0.80228 0.0
C980 C 0.12022 0.61371 0.83483 0.0
C981 C 0.14192 0.64291 0.81721 0.0
C982 C 0.134 0.60427 0.86525 0.0
C983 C 0.08992 0.57831 0.87051 0.0
N984 N 0.13718 0.63237 0.83289 0.0
N985 N 0.09449 0.58972 0.85514 0.0
H986 H 0.37496 0.62801 0.14614 0.0
H987 H 0.40294 0.62137 0.0441 0.0
H988 H 0.42728 0.57664 0.12293 0.0
H989 H 0.346 0.66784 0.06702 0.0
H990 H 0.41537 0.60803 0.07317 0.0
H991 H 0.36692 0.64558 0.11753 0.0
C992 C 0.3847 0.62035 0.13502 0.0
C993 C 0.40165 0.60063 0.13694 0.0
C994 C 0.40027 0.62128 0.07185 0.0
C995 C 0.39277 0.62094 0.10411 0.0
C996 C 0.39323 0.62896 0.05526 0.0
C997 C 0.37328 0.64558 0.05316 0.0
C998 C 0.38727 0.63028 0.08642 0.0
C999 C 0.36139 0.65488 0.06806 0.0
C1000 C 0.38023 0.63052 0.11869 0.0
C1001 C 0.41417 0.5919 0.12209 0.0
N1002 N 0.36846 0.64698 0.08405 0.0
N1003 N 0.40938 0.60202 0.1063 0.0
H1004 H 0.44505 0.93373 0.37205 0.0
H1005 H 0.35643 0.88439 0.2954 0.0
H1006 H 0.36487 0.94117 0.37315 0.0
H1007 H 0.4366 0.89047 0.29139 0.0
H1008 H 0.35885 0.90147 0.32494 0.0
H1009 H 0.44196 0.91411 0.34346 0.0
C1010 C 0.42677 0.93109 0.36631 0.0
C1011 C 0.40519 0.93911 0.37499 0.0
C1012 C 0.37588 0.89899 0.31757 0.0
C1013 C 0.40149 0.91676 0.34218 0.0
C1014 C 0.37454 0.88915 0.30074 0.0
C1015 C 0.39634 0.88606 0.29083 0.0
C1016 C 0.39919 0.9056 0.32458 0.0
C1017 C 0.41926 0.89264 0.29844 0.0
C1018 C 0.42501 0.92001 0.34994 0.0
C1019 C 0.382 0.93551 0.36682 0.0
N1020 N 0.42007 0.90207 0.31482 0.0
N1021 N 0.38075 0.92455 0.35088 0.0
H1022 H 0.09432 0.92905 0.63068 0.0
H1023 H 0.1 0.85435 0.54204 0.0
H1024 H 0.03351 0.8813 0.61457 0.0
H1025 H 0.12324 0.93102 0.54504 0.0
H1026 H 0.08342 0.85782 0.57174 0.0
H1027 H 0.11272 0.92428 0.60187 0.0
C1028 C 0.08466 0.91769 0.62118 0.0
C1029 C 0.06208 0.90572 0.62524 0.0
C1030 C 0.09229 0.87378 0.56585 0.0
C1031 C 0.08386 0.89941 0.59246 0.0
C1032 C 0.10183 0.87179 0.54903 0.0
C1033 C 0.11281 0.89249 0.54112 0.0
C1034 C 0.09443 0.89638 0.57491 0.0
C1035 C 0.11467 0.91472 0.55066 0.0
C1036 C 0.09538 0.91484 0.60478 0.0
C1037 C 0.0511 0.89058 0.61234 0.0
N1038 N 0.1057 0.91606 0.56713 0.0
N1039 N 0.06217 0.88775 0.59659 0.0
H1040 H 0.55914 0.44403 0.88162 0.0
H1041 H 0.65871 0.36924 0.93738 0.0
H1042 H 0.63104 0.42281 0.86122 0.0
H1043 H 0.60125 0.41452 0.96084 0.0
H1044 H 0.64756 0.38622 0.90894 0.0
H1045 H 0.57268 0.43068 0.91054 0.0
C1046 C 0.57779 0.43663 0.88328 0.0
C1047 C 0.59403 0.43453 0.86908 0.0
C1048 C 0.63754 0.39256 0.92035 0.0
C1049 C 0.60954 0.41908 0.90195 0.0
C1050 C 0.64385 0.38285 0.93655 0.0
C1051 C 0.63083 0.39045 0.95145 0.0
C1052 C 0.61781 0.40966 0.91904 0.0
C1053 C 0.61177 0.40817 0.94967 0.0
C1054 C 0.58555 0.42914 0.89975 0.0
C1055 C 0.61806 0.42494 0.87189 0.0
N1056 N 0.60566 0.417 0.93373 0.0
N1057 N 0.62503 0.41734 0.88798 0.0
H1058 H 0.6347 0.06191 0.11885 0.0
H1059 H 0.63306 0.1573 0.19886 0.0
H1060 H 0.59038 0.12888 0.11822 0.0
H1061 H 0.65081 0.07933 0.2035 0.0
H1062 H 0.62338 0.15041 0.16793 0.0
H1063 H 0.64716 0.07141 0.14872 0.0
C1064 C 0.62772 0.0787 0.12499 0.0
C1065 C 0.6114 0.09457 0.11613 0.0
C1066 C 0.62944 0.1349 0.17579 0.0
C1067 C 0.62558 0.10558 0.15025 0.0
C1068 C 0.63505 0.13883 0.19337 0.0
C1069 C 0.64253 0.11882 0.20378 0.0
C1070 C 0.63183 0.11093 0.16862 0.0
C1071 C 0.64481 0.09525 0.19603 0.0
C1072 C 0.63473 0.08405 0.14204 0.0
C1073 C 0.60277 0.11602 0.12472 0.0
N1074 N 0.63956 0.09199 0.17894 0.0
N1075 N 0.61001 0.12096 0.14133 0.0
H1076 H 0.93964 0.0774 0.37526 0.0
H1077 H 0.8562 0.16786 0.43428 0.0
H1078 H 0.90086 0.14157 0.3553 0.0
H1079 H 0.89456 0.10312 0.45367 0.0
H1080 H 0.87013 0.15722 0.4049 0.0
H1081 H 0.92142 0.08541 0.40377 0.0
C1082 C 0.92717 0.0931 0.37684 0.0
C1083 C 0.92183 0.10886 0.36285 0.0
C1084 C 0.87535 0.14524 0.41557 0.0
C1085 C 0.90103 0.11829 0.39557 0.0
C1086 C 0.86732 0.15126 0.43233 0.0
C1087 C 0.87439 0.13643 0.44643 0.0
C1088 C 0.89056 0.12427 0.41293 0.0
C1089 C 0.8888 0.11514 0.44317 0.0
C1090 C 0.91683 0.09773 0.39315 0.0
C1091 C 0.90581 0.12915 0.36576 0.0
N1092 N 0.89654 0.10979 0.42678 0.0
N1093 N 0.89601 0.13329 0.3818 0.0
H1094 H 0.89153 0.40039 0.61189 0.0
H1095 H 0.91057 0.39447 0.71475 0.0
H1096 H 0.96156 0.41596 0.63745 0.0
H1097 H 0.84472 0.36673 0.68879 0.0
H1098 H 0.92898 0.40376 0.68657 0.0
H1099 H 0.87331 0.38974 0.63998 0.0
C1100 C 0.90303 0.40172 0.62344 0.0
C1101 C 0.92808 0.40917 0.62235 0.0
C1102 C 0.91055 0.39555 0.68701 0.0
C1103 C 0.90743 0.39677 0.6545 0.0
C1104 C 0.90001 0.39024 0.7031 0.0
C1105 C 0.87607 0.37983 0.70409 0.0
C1106 C 0.89699 0.3906 0.67177 0.0
C1107 C 0.86325 0.37473 0.68858 0.0
C1108 C 0.89267 0.39545 0.63944 0.0
C1109 C 0.94223 0.41015 0.63769 0.0
N1110 N 0.87383 0.38029 0.67303 0.0
N1111 N 0.93168 0.4041 0.65313 0.0
H1112 H 0.63613 0.1139 0.38992 0.0
H1113 H 0.63163 0.09664 0.28664 0.0
H1114 H 0.59963 0.05271 0.36377 0.0
H1115 H 0.6646 0.16046 0.31194 0.0
H1116 H 0.62221 0.07911 0.315 0.0
H1117 H 0.64871 0.13031 0.36171 0.0
C1118 C 0.63069 0.10394 0.37825 0.0
C1119 C 0.61669 0.08192 0.37923 0.0
C1120 C 0.63158 0.09691 0.31439 0.0
C1121 C 0.63131 0.10047 0.34691 0.0
C1122 C 0.637 0.10693 0.29819 0.0
C1123 C 0.64882 0.13009 0.29695 0.0
C1124 C 0.63797 0.11015 0.32952 0.0
C1125 C 0.65541 0.14256 0.31233 0.0
C1126 C 0.63801 0.11325 0.36216 0.0
C1127 C 0.61061 0.06958 0.36368 0.0
N1128 N 0.6498 0.13246 0.32801 0.0
N1129 N 0.61789 0.07906 0.34819 0.0
H1130 H 0.91338 0.13385 0.631 0.0
H1131 H 0.89338 0.07684 0.53606 0.0
H1132 H 0.90188 0.05583 0.62054 0.0
H1133 H 0.88269 0.15492 0.54724 0.0
H1134 H 0.90151 0.06959 0.56665 0.0
H1135 H 0.90671 0.14257 0.60008 0.0
C1136 C 0.90953 0.11857 0.62217 0.0
C1137 C 0.90815 0.09407 0.62831 0.0
C1138 C 0.89741 0.08832 0.56244 0.0
C1139 C 0.90061 0.10389 0.59305 0.0
C1140 C 0.89287 0.09256 0.5449 0.0
C1141 C 0.88725 0.11658 0.53898 0.0
C1142 C 0.89655 0.10822 0.57426 0.0
C1143 C 0.88685 0.1361 0.5512 0.0
C1144 C 0.90561 0.12357 0.60458 0.0
C1145 C 0.90287 0.07499 0.61638 0.0
N1146 N 0.89146 0.13149 0.56828 0.0
N1147 N 0.89941 0.0803 0.59933 0.0
H1148 H 0.88354 0.3864 0.8905 0.0
H1149 H 0.91367 0.41857 0.79153 0.0
H1150 H 0.93557 0.44276 0.87408 0.0
H1151 H 0.85607 0.36662 0.80604 0.0
H1152 H 0.92063 0.42816 0.82198 0.0
H1153 H 0.87246 0.37884 0.86 0.0
C1154 C 0.89267 0.39713 0.88049 0.0
C1155 C 0.91054 0.41524 0.88485 0.0
C1156 C 0.90636 0.41474 0.81859 0.0
C1157 C 0.8978 0.40685 0.85003 0.0
C1158 C 0.90237 0.40921 0.80115 0.0
C1159 C 0.8844 0.39157 0.79621 0.0
C1160 C 0.89246 0.40242 0.83134 0.0
C1161 C 0.87014 0.38032 0.80928 0.0
C1162 C 0.8862 0.39293 0.86311 0.0
C1163 C 0.92151 0.42883 0.87138 0.0
N1164 N 0.87465 0.38576 0.8263 0.0
N1165 N 0.91503 0.42429 0.85462 0.0
H1166 H 0.53387 0.37258 0.1169 0.0
H1167 H 0.62733 0.42966 0.04992 0.0
H1168 H 0.59439 0.42003 0.1339 0.0
H1169 H 0.60202 0.35404 0.04361 0.0
H1170 H 0.61084 0.42989 0.07957 0.0
H1171 H 0.55422 0.36837 0.08865 0.0
C1172 C 0.55147 0.38196 0.11486 0.0
C1173 C 0.56223 0.39686 0.12795 0.0
C1174 C 0.60909 0.4132 0.07173 0.0
C1175 C 0.5851 0.3926 0.09538 0.0
C1176 C 0.61838 0.41308 0.05483 0.0
C1177 C 0.61598 0.3918 0.04437 0.0
C1178 C 0.59671 0.39214 0.07801 0.0
C1179 C 0.60432 0.37076 0.05135 0.0
C1180 C 0.56299 0.37958 0.09867 0.0
C1181 C 0.58489 0.40891 0.1242 0.0
N1182 N 0.59473 0.37156 0.0677 0.0
N1183 N 0.59538 0.40676 0.10822 0.0
loop_
_geom_bond_atom_site_label_1
_geom_bond_atom_site_label_2
_geom_bond_distance
_geom_bond_site_symmetry_2
_ccdc_geom_bond_type
H0 C27 0.929 . S
N1 C26 1.433 . S
N1 C32 1.435 . S
N1 C38 1.423 . S
H2 C28 0.930 . S
H3 C31 0.931 . S
H4 C30 0.929 . S
H5 C33 0.930 . S
H6 C34 0.932 . S
H7 C37 0.929 . S
H8 C36 0.931 . S
H9 C39 0.932 . S
H10 C43 0.932 . S
H11 C40 0.931 . S
H12 C42 0.929 . S
H13 C45 0.929 . S
H14 C46 0.930 . S
H15 C48 0.929 . S
H16 C49 0.931 . S
H17 C51 0.930 . S
H18 C52 0.932 . S
H19 C54 0.931 . S
H20 C55 0.929 . S
H21 C57 0.929 . S
H22 C58 0.958 . S
H23 C60 0.929 . S
N24 C44 1.433 . S
N24 C50 1.435 . S
N24 C56 1.423 . S
H25 C61 0.932 . S
C26 N1 1.433 . S
C26 C27 1.363 . S
C26 C31 1.370 . S
C27 H0 0.929 . S
C27 C26 1.363 . S
C27 C28 1.385 . S
C28 H2 0.930 . S
C28 C27 1.385 . S
C28 C29 1.357 . S
C29 C28 1.357 . S
C29 C30 1.406 . S
C30 H4 0.929 . S
C30 C29 1.406 . S
C30 C31 1.391 . S
C31 H3 0.931 . S
C31 C26 1.370 . S
C31 C30 1.391 . S
C32 N1 1.435 . S
C32 C33 1.358 . S
C32 C37 1.371 . S
C33 H5 0.930 . S
C33 C32 1.358 . S
C33 C34 1.405 . S
C34 H6 0.932 . S
C34 C33 1.405 . S
C34 C35 1.383 . S
C35 C34 1.383 . S
C35 C36 1.393 . S
C36 H8 0.931 . S
C36 C35 1.393 . S
C36 C37 1.382 . S
C37 H7 0.929 . S
C37 C32 1.371 . S
C37 C36 1.382 . S
C38 N1 1.423 . S
C38 C39 1.362 . S
C38 C43 1.388 . S
C39 H9 0.932 . S
C39 C38 1.362 . S
C39 C40 1.376 1_565 S
C40 H11 0.931 . S
C40 C39 1.376 1_545 S
C40 C41 1.396 . S
C41 C40 1.396 . S
C41 C42 1.348 1_545 S
C41 C59 1.472 . S
C42 H12 0.929 . S
C42 C41 1.348 1_565 S
C42 C43 1.443 . S
C43 H10 0.932 . S
C43 C38 1.388 . S
C43 C42 1.443 . S
C44 N24 1.433 . S
C44 C45 1.363 . S
C44 C49 1.370 . S
C45 H13 0.929 . S
C45 C44 1.363 . S
C45 C46 1.385 . S
C46 H14 0.930 . S
C46 C45 1.385 . S
C46 C47 1.357 . S
C47 C46 1.357 . S
C47 C48 1.406 . S
C48 H15 0.929 . S
C48 C47 1.406 . S
C48 C49 1.391 . S
C49 H16 0.931 . S
C49 C44 1.370 . S
C49 C48 1.391 . S
C50 N24 1.435 . S
C50 C51 1.358 . S
C50 C55 1.371 . S
C51 H17 0.930 . S
C51 C50 1.358 . S
C51 C52 1.405 . S
C52 H18 0.932 . S
C52 C51 1.405 . S
C52 C53 1.383 . S
C53 C52 1.383 . S
C53 C54 1.393 . S
C54 H19 0.931 . S
C54 C53 1.393 . S
C54 C55 1.382 . S
C55 H20 0.929 . S
C55 C50 1.371 . S
C55 C54 1.382 . S
C56 N24 1.423 . S
C56 C57 1.362 . S
C56 C61 1.388 . S
C57 H21 0.929 . S
C57 C56 1.362 . S
C57 C58 1.347 1_655 S
C58 H22 0.958 . S
C58 C57 1.347 1_455 S
C58 C59 1.400 . S
C59 C41 1.472 . S
C59 C58 1.400 . S
C59 C60 1.348 1_455 S
C60 H23 0.929 . S
C60 C59 1.348 1_655 S
C60 C61 1.443 . S
C61 H25 0.932 . S
C61 C56 1.388 . S
C61 C60 1.443 . S
H62 C89 0.929 . S
N63 C88 1.433 . S
N63 C94 1.435 . S
N63 C100 1.423 . S
H64 C90 0.930 . S
H65 C93 0.931 . S
H66 C92 0.929 . S
H67 C95 0.930 . S
H68 C96 0.932 . S
H69 C99 0.929 . S
H70 C98 0.931 . S
H71 C101 0.929 . S
H72 C105 0.932 . S
H73 C102 0.931 . S
H74 C104 0.929 . S
H75 C107 0.929 . S
H76 C108 0.930 . S
H77 C110 0.929 . S
H78 C111 0.931 . S
H79 C113 0.930 . S
H80 C114 0.932 . S
H81 C116 0.931 . S
H82 C117 0.929 . S
H83 C119 0.929 . S
H84 C120 0.931 . S
H85 C122 0.929 . S
N86 C106 1.433 . S
N86 C112 1.435 . S
N86 C118 1.423 . S
H87 C123 0.932 . S
C88 N63 1.433 . S
C88 C89 1.363 . S
C88 C93 1.370 . S
C89 H62 0.929 . S
C89 C88 1.363 . S
C89 C90 1.385 . S
C90 H64 0.930 . S
C90 C89 1.385 . S
C90 C91 1.357 . S
C91 C90 1.357 . S
C91 C92 1.406 . S
C92 H66 0.929 . S
C92 C91 1.406 . S
C92 C93 1.391 . S
C93 H65 0.931 . S
C93 C88 1.370 . S
C93 C92 1.391 . S
C94 N63 1.435 . S
C94 C95 1.358 . S
C94 C99 1.371 . S
C95 H67 0.930 . S
C95 C94 1.358 . S
C95 C96 1.405 . S
C96 H68 0.932 . S
C96 C95 1.405 . S
C96 C97 1.383 . S
C97 C96 1.383 . S
C97 C98 1.393 . S
C98 H70 0.931 . S
C98 C97 1.393 . S
C98 C99 1.382 . S
C99 H69 0.929 . S
C99 C94 1.371 . S
C99 C98 1.382 . S
C100 N63 1.423 . S
C100 C101 1.362 . S
C100 C105 1.388 . S
C101 H71 0.929 . S
C101 C100 1.362 . S
C101 C102 1.376 1_655 S
C102 H73 0.931 . S
C102 C101 1.376 1_455 S
C102 C103 1.396 . S
C103 C102 1.396 . S
C103 C104 1.348 1_455 S
C103 C121 1.472 . S
C104 H74 0.929 . S
C104 C103 1.348 1_655 S
C104 C105 1.443 . S
C105 H72 0.932 . S
C105 C100 1.388 . S
C105 C104 1.443 . S
C106 N86 1.433 . S
C106 C107 1.363 . S
C106 C111 1.370 . S
C107 H75 0.929 . S
C107 C106 1.363 . S
C107 C108 1.385 . S
C108 H76 0.930 . S
C108 C107 1.385 . S
C108 C109 1.357 . S
C109 C108 1.357 . S
C109 C110 1.406 . S
C110 H77 0.929 . S
C110 C109 1.406 . S
C110 C111 1.391 . S
C111 H78 0.931 . S
C111 C106 1.370 . S
C111 C110 1.391 . S
C112 N86 1.435 . S
C112 C113 1.358 . S
C112 C117 1.371 . S
C113 H79 0.930 . S
C113 C112 1.358 . S
C113 C114 1.405 . S
C114 H80 0.932 . S
C114 C113 1.405 . S
C114 C115 1.383 . S
C115 C114 1.383 . S
C115 C116 1.393 . S
C116 H81 0.931 . S
C116 C115 1.393 . S
C116 C117 1.382 . S
C117 H82 0.929 . S
C117 C112 1.371 . S
C117 C116 1.382 . S
C118 N86 1.423 . S
C118 C119 1.362 . S
C118 C123 1.388 . S
C119 H83 0.929 . S
C119 C118 1.362 . S
C119 C120 1.376 . S
C120 H84 0.931 . S
C120 C119 1.376 . S
C120 C121 1.396 . S
C121 C103 1.472 . S
C121 C120 1.396 . S
C121 C122 1.348 . S
C122 H85 0.929 . S
C122 C121 1.348 . S
C122 C123 1.443 . S
C123 H87 0.932 . S
C123 C118 1.388 . S
C123 C122 1.443 . S
H124 C151 0.929 . S
N125 C150 1.433 . S
N125 C156 1.435 . S
N125 C162 1.423 . S
H126 C152 0.930 . S
H127 C155 0.931 . S
H128 C154 0.929 . S
H129 C157 0.930 . S
H130 C158 0.932 . S
H131 C161 0.929 . S
H132 C160 0.931 . S
H133 C163 0.929 . S
H134 C167 0.932 . S
H135 C164 0.931 . S
H136 C166 0.929 . S
H137 C169 0.929 . S
H138 C170 0.930 . S
H139 C172 0.929 . S
H140 C173 0.931 . S
H141 C175 0.930 . S
H142 C176 0.932 . S
H143 C178 0.931 . S
H144 C179 0.929 . S
H145 C181 0.929 . S
H146 C182 0.931 . S
H147 C184 0.929 . S
N148 C168 1.433 . S
N148 C174 1.435 . S
N148 C180 1.423 . S
H149 C185 0.932 . S
C150 N125 1.433 . S
C150 C151 1.363 . S
C150 C155 1.370 . S
C151 H124 0.929 . S
C151 C150 1.363 . S
C151 C152 1.385 . S
C152 H126 0.930 . S
C152 C151 1.385 . S
C152 C153 1.357 . S
C153 C152 1.357 . S
C153 C154 1.406 . S
C154 H128 0.929 . S
C154 C153 1.406 . S
C154 C155 1.391 . S
C155 H127 0.931 . S
C155 C150 1.370 . S
C155 C154 1.391 . S
C156 N125 1.435 . S
C156 C157 1.358 . S
C156 C161 1.371 . S
C157 H129 0.930 . S
C157 C156 1.358 . S
C157 C158 1.405 . S
C158 H130 0.932 . S
C158 C157 1.405 . S
C158 C159 1.383 . S
C159 C158 1.383 . S
C159 C160 1.393 . S
C160 H132 0.931 . S
C160 C159 1.393 . S
C160 C161 1.382 . S
C161 H131 0.929 . S
C161 C156 1.371 . S
C161 C160 1.382 . S
C162 N125 1.423 . S
C162 C163 1.362 . S
C162 C167 1.388 . S
C163 H133 0.929 . S
C163 C162 1.362 . S
C163 C164 1.376 . S
C164 H135 0.931 . S
C164 C163 1.376 . S
C164 C165 1.396 . S
C165 C164 1.396 . S
C165 C166 1.348 . S
C165 C183 1.472 . S
C166 H136 0.929 . S
C166 C165 1.348 . S
C166 C167 1.443 . S
C167 H134 0.932 . S
C167 C162 1.388 . S
C167 C166 1.443 . S
C168 N148 1.433 . S
C168 C169 1.363 . S
C168 C173 1.370 . S
C169 H137 0.929 . S
C169 C168 1.363 . S
C169 C170 1.385 . S
C170 H138 0.930 . S
C170 C169 1.385 . S
C170 C171 1.357 . S
C171 C170 1.357 . S
C171 C172 1.406 . S
C172 H139 0.929 . S
C172 C171 1.406 . S
C172 C173 1.391 . S
C173 H140 0.931 . S
C173 C168 1.370 . S
C173 C172 1.391 . S
C174 N148 1.435 . S
C174 C175 1.358 . S
C174 C179 1.371 . S
C175 H141 0.930 . S
C175 C174 1.358 . S
C175 C176 1.405 . S
C176 H142 0.932 . S
C176 C175 1.405 . S
C176 C177 1.383 . S
C177 C176 1.383 . S
C177 C178 1.393 . S
C178 H143 0.931 . S
C178 C177 1.393 . S
C178 C179 1.382 . S
C179 H144 0.929 . S
C179 C174 1.371 . S
C179 C178 1.382 . S
C180 N148 1.423 . S
C180 C181 1.362 . S
C180 C185 1.388 . S
C181 H145 0.929 . S
C181 C180 1.362 . S
C181 C182 1.376 . S
C182 H146 0.931 . S
C182 C181 1.376 . S
C182 C183 1.396 . S
C183 C165 1.472 . S
C183 C182 1.396 . S
C183 C184 1.348 . S
C184 H147 0.929 . S
C184 C183 1.348 . S
C184 C185 1.443 . S
C185 H149 0.932 . S
C185 C180 1.388 . S
C185 C184 1.443 . S
H186 C213 0.929 . S
N187 C212 1.433 . S
N187 C218 1.435 . S
N187 C224 1.423 . S
H188 C214 0.930 . S
H189 C217 0.931 . S
H190 C216 0.929 . S
H191 C219 0.930 . S
H192 C220 0.932 . S
H193 C223 0.929 . S
H194 C222 0.931 . S
H195 C225 0.929 . S
H196 C229 0.932 . S
H197 C226 0.931 . S
H198 C228 0.929 . S
H199 C231 0.929 . S
H200 C232 0.930 . S
H201 C234 0.929 . S
H202 C235 0.931 . S
H203 C237 0.930 . S
H204 C238 0.932 . S
H205 C240 0.931 . S
H206 C241 0.929 . S
H207 C243 0.929 . S
H208 C244 0.931 1_565 S
H209 C246 0.929 . S
N210 C230 1.433 . S
N210 C236 1.435 . S
N210 C242 1.423 . S
H211 C247 0.932 . S
C212 N187 1.433 . S
C212 C213 1.363 . S
C212 C217 1.370 . S
C213 H186 0.929 . S
C213 C212 1.363 . S
C213 C214 1.385 . S
C214 H188 0.930 . S
C214 C213 1.385 . S
C214 C215 1.357 . S
C215 C214 1.357 . S
C215 C216 1.406 . S
C216 H190 0.929 . S
C216 C215 1.406 . S
C216 C217 1.391 . S
C217 H189 0.931 . S
C217 C212 1.370 . S
C217 C216 1.391 . S
C218 N187 1.435 . S
C218 C219 1.358 . S
C218 C223 1.371 . S
C219 H191 0.930 . S
C219 C218 1.358 . S
C219 C220 1.405 . S
C220 H192 0.932 . S
C220 C219 1.405 . S
C220 C221 1.383 . S
C221 C220 1.383 . S
C221 C222 1.393 . S
C222 H194 0.931 . S
C222 C221 1.393 . S
C222 C223 1.382 . S
C223 H193 0.929 . S
C223 C218 1.371 . S
C223 C222 1.382 . S
C224 N187 1.423 . S
C224 C225 1.362 . S
C224 C229 1.388 . S
C225 H195 0.929 . S
C225 C224 1.362 . S
C225 C226 1.376 . S
C226 H197 0.931 . S
C226 C225 1.376 . S
C226 C227 1.396 . S
C227 C226 1.396 . S
C227 C228 1.348 . S
C227 C245 1.472 1_565 S
C228 H198 0.929 . S
C228 C227 1.348 . S
C228 C229 1.443 . S
C229 H196 0.932 . S
C229 C224 1.388 . S
C229 C228 1.443 . S
C230 N210 1.433 . S
C230 C231 1.363 . S
C230 C235 1.370 . S
C231 H199 0.929 . S
C231 C230 1.363 . S
C231 C232 1.385 . S
C232 H200 0.930 . S
C232 C231 1.385 . S
C232 C233 1.357 . S
C233 C232 1.357 . S
C233 C234 1.406 . S
C234 H201 0.929 . S
C234 C233 1.406 . S
C234 C235 1.391 . S
C235 H202 0.931 . S
C235 C230 1.370 . S
C235 C234 1.391 . S
C236 N210 1.435 . S
C236 C237 1.358 . S
C236 C241 1.371 . S
C237 H203 0.930 . S
C237 C236 1.358 . S
C237 C238 1.405 . S
C238 H204 0.932 . S
C238 C237 1.405 . S
C238 C239 1.383 . S
C239 C238 1.383 . S
C239 C240 1.393 . S
C240 H205 0.931 . S
C240 C239 1.393 . S
C240 C241 1.382 . S
C241 H206 0.929 . S
C241 C236 1.371 . S
C241 C240 1.382 . S
C242 N210 1.423 . S
C242 C243 1.362 . S
C242 C247 1.388 . S
C243 H207 0.929 . S
C243 C242 1.362 . S
C243 C244 1.376 . S
C244 H208 0.931 1_545 S
C244 C243 1.376 . S
C244 C245 1.396 . S
C245 C227 1.472 1_545 S
C245 C244 1.396 . S
C245 C246 1.348 . S
C246 H209 0.929 . S
C246 C245 1.348 . S
C246 C247 1.443 . S
C247 H211 0.932 . S
C247 C242 1.388 . S
C247 C246 1.443 . S
H248 C275 0.929 . S
N249 C274 1.433 . S
N249 C280 1.435 . S
N249 C286 1.423 . S
H250 C276 0.930 . S
H251 C279 0.931 . S
H252 C278 0.929 . S
H253 C281 0.930 . S
H254 C282 0.932 . S
H255 C285 0.929 . S
H256 C284 0.931 . S
H257 C287 0.929 . S
H258 C291 0.932 . S
H259 C288 0.931 . S
H260 C290 0.929 . S
H261 C293 0.929 . S
H262 C294 0.930 . S
H263 C296 0.929 . S
H264 C297 0.931 . S
H265 C299 0.930 . S
H266 C300 0.932 . S
H267 C302 0.931 . S
H268 C303 0.929 . S
H269 C305 0.929 . S
H270 C306 0.931 1_455 S
H271 C308 0.929 . S
N272 C292 1.433 . S
N272 C298 1.435 . S
N272 C304 1.423 . S
H273 C309 0.932 . S
C274 N249 1.433 . S
C274 C275 1.363 . S
C274 C279 1.370 . S
C275 H248 0.929 . S
C275 C274 1.363 . S
C275 C276 1.385 . S
C276 H250 0.930 . S
C276 C275 1.385 . S
C276 C277 1.357 . S
C277 C276 1.357 . S
C277 C278 1.406 . S
C278 H252 0.929 . S
C278 C277 1.406 . S
C278 C279 1.391 . S
C279 H251 0.931 . S
C279 C274 1.370 . S
C279 C278 1.391 . S
C280 N249 1.435 . S
C280 C281 1.358 . S
C280 C285 1.371 . S
C281 H253 0.930 . S
C281 C280 1.358 . S
C281 C282 1.405 . S
C282 H254 0.932 . S
C282 C281 1.405 . S
C282 C283 1.383 . S
C283 C282 1.383 . S
C283 C284 1.393 . S
C284 H256 0.931 . S
C284 C283 1.393 . S
C284 C285 1.382 . S
C285 H255 0.929 . S
C285 C280 1.371 . S
C285 C284 1.382 . S
C286 N249 1.423 . S
C286 C287 1.362 . S
C286 C291 1.388 . S
C287 H257 0.929 . S
C287 C286 1.362 . S
C287 C288 1.376 . S
C288 H259 0.931 . S
C288 C287 1.376 . S
C288 C289 1.396 . S
C289 C288 1.396 . S
C289 C290 1.348 . S
C289 C307 1.497 . S
C290 H260 0.929 . S
C290 C289 1.348 . S
C290 C291 1.443 . S
C291 H258 0.932 . S
C291 C286 1.388 . S
C291 C290 1.443 . S
C292 N272 1.433 . S
C292 C293 1.363 . S
C292 C297 1.370 . S
C293 H261 0.929 . S
C293 C292 1.363 . S
C293 C294 1.385 . S
C294 H262 0.930 . S
C294 C293 1.385 . S
C294 C295 1.357 . S
C295 C294 1.357 . S
C295 C296 1.406 . S
C296 H263 0.929 . S
C296 C295 1.406 . S
C296 C297 1.391 . S
C297 H264 0.931 . S
C297 C292 1.370 . S
C297 C296 1.391 . S
C298 N272 1.435 . S
C298 C299 1.358 . S
C298 C303 1.371 . S
C299 H265 0.930 . S
C299 C298 1.358 . S
C299 C300 1.405 . S
C300 H266 0.932 . S
C300 C299 1.405 . S
C300 C301 1.383 . S
C301 C300 1.383 . S
C301 C302 1.393 . S
C302 H267 0.931 . S
C302 C301 1.393 . S
C302 C303 1.382 . S
C303 H268 0.929 . S
C303 C298 1.371 . S
C303 C302 1.382 . S
C304 N272 1.423 . S
C304 C305 1.362 . S
C304 C309 1.388 . S
C305 H269 0.929 . S
C305 C304 1.362 . S
C305 C306 1.376 . S
C306 H270 0.931 1_655 S
C306 C305 1.376 . S
C306 C307 1.393 1_655 S
C307 C289 1.497 . S
C307 C306 1.393 1_455 S
C307 C308 1.325 1_455 S
C308 H271 0.929 . S
C308 C307 1.325 1_655 S
C308 C309 1.443 . S
C309 H273 0.932 . S
C309 C304 1.388 . S
C309 C308 1.443 . S
H310 C337 0.929 . S
N311 C336 1.433 . S
N311 C342 1.435 . S
N311 C348 1.423 . S
H312 C338 0.930 . S
H313 C341 0.931 . S
H314 C340 0.929 . S
H315 C343 0.930 . S
H316 C344 0.932 . S
H317 C347 0.929 . S
H318 C346 0.931 . S
H319 C349 0.929 . S
H320 C353 0.932 . S
H321 C350 0.931 . S
H322 C352 0.929 . S
H323 C355 0.929 . S
H324 C356 0.930 . S
H325 C358 0.929 . S
H326 C359 0.931 . S
H327 C361 0.930 . S
H328 C362 0.932 . S
H329 C364 0.931 . S
H330 C365 0.929 . S
H331 C367 0.929 . S
H332 C368 0.931 . S
H333 C370 0.929 . S
N334 C354 1.433 . S
N334 C360 1.435 . S
N334 C366 1.423 . S
H335 C371 0.932 . S
C336 N311 1.433 . S
C336 C337 1.363 . S
C336 C341 1.370 . S
C337 H310 0.929 . S
C337 C336 1.363 . S
C337 C338 1.385 . S
C338 H312 0.930 . S
C338 C337 1.385 . S
C338 C339 1.357 . S
C339 C338 1.357 . S
C339 C340 1.406 . S
C340 H314 0.929 . S
C340 C339 1.406 . S
C340 C341 1.391 . S
C341 H313 0.931 . S
C341 C336 1.370 . S
C341 C340 1.391 . S
C342 N311 1.435 . S
C342 C343 1.358 . S
C342 C347 1.371 . S
C343 H315 0.930 . S
C343 C342 1.358 . S
C343 C344 1.405 . S
C344 H316 0.932 . S
C344 C343 1.405 . S
C344 C345 1.383 . S
C345 C344 1.383 . S
C345 C346 1.393 . S
C346 H318 0.931 . S
C346 C345 1.393 . S
C346 C347 1.382 . S
C347 H317 0.929 . S
C347 C342 1.371 . S
C347 C346 1.382 . S
C348 N311 1.423 . S
C348 C349 1.362 . S
C348 C353 1.388 . S
C349 H319 0.929 . S
C349 C348 1.362 . S
C349 C350 1.376 . S
C350 H321 0.931 . S
C350 C349 1.376 . S
C350 C351 1.396 . S
C351 C350 1.396 . S
C351 C352 1.348 . S
C351 C369 1.472 . S
C352 H322 0.929 . S
C352 C351 1.348 . S
C352 C353 1.443 . S
C353 H320 0.932 . S
C353 C348 1.388 . S
C353 C352 1.443 . S
C354 N334 1.433 . S
C354 C355 1.363 . S
C354 C359 1.370 . S
C355 H323 0.929 . S
C355 C354 1.363 . S
C355 C356 1.385 . S
C356 H324 0.930 . S
C356 C355 1.385 . S
C356 C357 1.357 . S
C357 C356 1.357 . S
C357 C358 1.406 . S
C358 H325 0.929 . S
C358 C357 1.406 . S
C358 C359 1.391 . S
C359 H326 0.931 . S
C359 C354 1.370 . S
C359 C358 1.391 . S
C360 N334 1.435 . S
C360 C361 1.358 . S
C360 C365 1.371 . S
C361 H327 0.930 . S
C361 C360 1.358 . S
C361 C362 1.405 . S
C362 H328 0.932 . S
C362 C361 1.405 . S
C362 C363 1.383 . S
C363 C362 1.383 . S
C363 C364 1.393 . S
C364 H329 0.931 . S
C364 C363 1.393 . S
C364 C365 1.382 . S
C365 H330 0.929 . S
C365 C360 1.371 . S
C365 C364 1.382 . S
C366 N334 1.423 . S
C366 C367 1.362 . S
C366 C371 1.388 . S
C367 H331 0.929 . S
C367 C366 1.362 . S
C367 C368 1.376 . S
C368 H332 0.931 . S
C368 C367 1.376 . S
C368 C369 1.396 . S
C369 C351 1.472 . S
C369 C368 1.396 . S
C369 C370 1.348 . S
C370 H333 0.929 . S
C370 C369 1.348 . S
C370 C371 1.443 . S
C371 H335 0.932 . S
C371 C366 1.388 . S
C371 C370 1.443 . S
H372 C399 0.929 . S
N373 C398 1.433 . S
N373 C404 1.435 . S
N373 C410 1.423 . S
H374 C400 0.930 . S
H375 C403 0.931 . S
H376 C402 0.929 . S
H377 C405 0.930 . S
H378 C406 0.932 . S
H379 C409 0.929 . S
H380 C408 0.931 . S
H381 C411 0.932 . S
H382 C415 0.932 . S
H383 C412 0.931 . S
H384 C414 0.929 . S
H385 C417 0.929 . S
H386 C418 0.930 . S
H387 C420 0.929 . S
H388 C421 0.931 . S
H389 C423 0.930 . S
H390 C424 0.932 . S
H391 C426 0.931 . S
H392 C427 0.929 . S
H393 C429 0.929 . S
H394 C430 0.931 . S
H395 C432 0.929 . S
N396 C416 1.433 . S
N396 C422 1.435 . S
N396 C428 1.423 . S
H397 C433 0.932 . S
C398 N373 1.433 . S
C398 C399 1.363 . S
C398 C403 1.370 . S
C399 H372 0.929 . S
C399 C398 1.363 . S
C399 C400 1.385 . S
C400 H374 0.930 . S
C400 C399 1.385 . S
C400 C401 1.357 . S
C401 C400 1.357 . S
C401 C402 1.406 . S
C402 H376 0.929 . S
C402 C401 1.406 . S
C402 C403 1.391 . S
C403 H375 0.931 . S
C403 C398 1.370 . S
C403 C402 1.391 . S
C404 N373 1.435 . S
C404 C405 1.358 . S
C404 C409 1.371 . S
C405 H377 0.930 . S
C405 C404 1.358 . S
C405 C406 1.405 . S
C406 H378 0.932 . S
C406 C405 1.405 . S
C406 C407 1.383 . S
C407 C406 1.383 . S
C407 C408 1.393 . S
C408 H380 0.931 . S
C408 C407 1.393 . S
C408 C409 1.382 . S
C409 H379 0.929 . S
C409 C404 1.371 . S
C409 C408 1.382 . S
C410 N373 1.423 . S
C410 C411 1.362 . S
C410 C415 1.388 . S
C411 H381 0.932 . S
C411 C410 1.362 . S
C411 C412 1.376 1_565 S
C412 H383 0.931 . S
C412 C411 1.376 1_545 S
C412 C413 1.396 . S
C413 C412 1.396 . S
C413 C414 1.348 1_545 S
C413 C431 1.472 . S
C414 H384 0.929 . S
C414 C413 1.348 1_565 S
C414 C415 1.443 . S
C415 H382 0.932 . S
C415 C410 1.388 . S
C415 C414 1.443 . S
C416 N396 1.433 . S
C416 C417 1.363 . S
C416 C421 1.370 . S
C417 H385 0.929 . S
C417 C416 1.363 . S
C417 C418 1.385 . S
C418 H386 0.930 . S
C418 C417 1.385 . S
C418 C419 1.357 . S
C419 C418 1.357 . S
C419 C420 1.406 . S
C420 H387 0.929 . S
C420 C419 1.406 . S
C420 C421 1.391 . S
C421 H388 0.931 . S
C421 C416 1.370 . S
C421 C420 1.391 . S
C422 N396 1.435 . S
C422 C423 1.358 . S
C422 C427 1.371 . S
C423 H389 0.930 . S
C423 C422 1.358 . S
C423 C424 1.405 . S
C424 H390 0.932 . S
C424 C423 1.405 . S
C424 C425 1.383 . S
C425 C424 1.383 . S
C425 C426 1.393 . S
C426 H391 0.931 . S
C426 C425 1.393 . S
C426 C427 1.382 . S
C427 H392 0.929 . S
C427 C422 1.371 . S
C427 C426 1.382 . S
C428 N396 1.423 . S
C428 C429 1.362 . S
C428 C433 1.388 . S
C429 H393 0.929 . S
C429 C428 1.362 . S
C429 C430 1.376 . S
C430 H394 0.931 . S
C430 C429 1.376 . S
C430 C431 1.396 . S
C431 C413 1.472 . S
C431 C430 1.396 . S
C431 C432 1.348 . S
C432 H395 0.929 . S
C432 C431 1.348 . S
C432 C433 1.443 . S
C433 H397 0.932 . S
C433 C428 1.388 . S
C433 C432 1.443 . S
H434 C461 0.929 . S
N435 C460 1.433 . S
N435 C466 1.435 . S
N435 C472 1.423 . S
H436 C462 0.930 . S
H437 C465 0.931 . S
H438 C464 0.929 . S
H439 C467 0.930 . S
H440 C468 0.932 . S
H441 C471 0.929 . S
H442 C470 0.931 . S
H443 C473 0.929 . S
H444 C477 0.932 . S
H445 C474 0.931 . S
H446 C476 0.929 . S
H447 C479 0.929 . S
H448 C480 0.930 . S
H449 C482 0.929 . S
H450 C483 0.931 . S
H451 C485 0.930 . S
H452 C486 0.932 . S
H453 C488 0.931 . S
H454 C489 0.929 . S
H455 C491 0.929 . S
H456 C492 0.931 . S
H457 C494 0.929 . S
N458 C478 1.433 . S
N458 C484 1.435 . S
N458 C490 1.423 . S
H459 C495 0.932 . S
C460 N435 1.433 . S
C460 C461 1.363 . S
C460 C465 1.370 . S
C461 H434 0.929 . S
C461 C460 1.363 . S
C461 C462 1.385 . S
C462 H436 0.930 . S
C462 C461 1.385 . S
C462 C463 1.357 . S
C463 C462 1.357 . S
C463 C464 1.406 . S
C464 H438 0.929 . S
C464 C463 1.406 . S
C464 C465 1.391 . S
C465 H437 0.931 . S
C465 C460 1.370 . S
C465 C464 1.391 . S
C466 N435 1.435 . S
C466 C467 1.358 . S
C466 C471 1.371 . S
C467 H439 0.930 . S
C467 C466 1.358 . S
C467 C468 1.405 . S
C468 H440 0.932 . S
C468 C467 1.405 . S
C468 C469 1.383 . S
C469 C468 1.383 . S
C469 C470 1.393 . S
C470 H442 0.931 . S
C470 C469 1.393 . S
C470 C471 1.382 . S
C471 H441 0.929 . S
C471 C466 1.371 . S
C471 C470 1.382 . S
C472 N435 1.423 . S
C472 C473 1.362 . S
C472 C477 1.388 . S
C473 H443 0.929 . S
C473 C472 1.362 . S
C473 C474 1.376 1_455 S
C474 H445 0.931 . S
C474 C473 1.376 1_655 S
C474 C475 1.401 . S
C475 C474 1.401 . S
C475 C476 1.313 1_655 S
C475 C493 1.501 1_565 S
C476 H446 0.929 . S
C476 C475 1.313 1_455 S
C476 C477 1.443 . S
C477 H444 0.932 . S
C477 C472 1.388 . S
C477 C476 1.443 . S
C478 N458 1.433 . S
C478 C479 1.363 . S
C478 C483 1.370 . S
C479 H447 0.929 . S
C479 C478 1.363 . S
C479 C480 1.385 . S
C480 H448 0.930 . S
C480 C479 1.385 . S
C480 C481 1.357 . S
C481 C480 1.357 . S
C481 C482 1.406 . S
C482 H449 0.929 . S
C482 C481 1.406 . S
C482 C483 1.391 . S
C483 H450 0.931 . S
C483 C478 1.370 . S
C483 C482 1.391 . S
C484 N458 1.435 . S
C484 C485 1.358 . S
C484 C489 1.371 . S
C485 H451 0.930 . S
C485 C484 1.358 . S
C485 C486 1.405 . S
C486 H452 0.932 . S
C486 C485 1.405 . S
C486 C487 1.383 . S
C487 C486 1.383 . S
C487 C488 1.393 . S
C488 H453 0.931 . S
C488 C487 1.393 . S
C488 C489 1.382 . S
C489 H454 0.929 . S
C489 C484 1.371 . S
C489 C488 1.382 . S
C490 N458 1.423 . S
C490 C491 1.362 . S
C490 C495 1.388 . S
C491 H455 0.929 . S
C491 C490 1.362 . S
C491 C492 1.376 . S
C492 H456 0.931 . S
C492 C491 1.376 . S
C492 C493 1.396 . S
C493 C475 1.501 1_545 S
C493 C492 1.396 . S
C493 C494 1.348 . S
C494 H457 0.929 . S
C494 C493 1.348 . S
C494 C495 1.443 . S
C495 H459 0.932 . S
C495 C490 1.388 . S
C495 C494 1.443 . S
Co496 O497 2.217 . S
Co496 O498 2.092 1_554 S
Co496 O500 2.004 . S
Co496 O506 2.021 1_554 S
Co496 O508 2.137 . S
Co496 O509 2.244 . S
O497 Co496 2.217 . S
O497 C504 1.246 1_554 S
O498 Co496 2.092 1_556 S
O498 C504 1.261 . S
C499 O508 1.247 . S
C499 O509 1.272 . S
O500 Co496 2.004 . S
O500 C505 1.259 . S
Co501 O502 2.061 . S
Co501 O507 2.052 1_554 S
Co501 O509 2.135 . S
O502 Co501 2.061 . S
O502 C505 1.235 . S
C503 O506 1.238 . S
C503 O507 1.241 . S
C504 O497 1.246 1_556 S
C504 O498 1.261 . S
C505 O500 1.259 . S
C505 O502 1.235 . S
O506 Co496 2.021 1_556 S
O506 C503 1.238 . S
O507 Co501 2.052 1_556 S
O507 C503 1.241 . S
O508 Co496 2.137 . S
O508 C499 1.247 . S
O509 Co496 2.244 . S
O509 C499 1.272 . S
O509 Co501 2.135 . S
Co510 O511 2.216 . S
Co510 O512 2.091 . S
Co510 O514 2.004 . S
Co510 O520 2.021 . S
Co510 O522 2.137 . S
Co510 O523 2.244 . S
O511 Co510 2.216 . S
O511 C518 1.247 . S
O512 Co510 2.091 . S
O512 C518 1.261 . S
C513 O522 1.247 . S
C513 O523 1.272 . S
O514 Co510 2.004 . S
O514 C519 1.259 . S
Co515 O516 2.061 . S
Co515 O521 2.052 . S
Co515 O523 2.135 . S
O516 Co515 2.061 . S
O516 C519 1.235 . S
C517 O520 1.238 . S
C517 O521 1.241 . S
C518 O511 1.247 . S
C518 O512 1.261 . S
C519 O514 1.259 . S
C519 O516 1.235 . S
O520 Co510 2.021 . S
O520 C517 1.238 . S
O521 Co515 2.052 . S
O521 C517 1.241 . S
O522 Co510 2.137 . S
O522 C513 1.247 . S
O523 Co510 2.244 . S
O523 C513 1.272 . S
O523 Co515 2.135 . S
Co524 O525 2.216 . S
Co524 O526 2.091 . S
Co524 O528 2.004 . S
Co524 O534 2.021 . S
Co524 O536 2.137 . S
Co524 O537 2.244 . S
O525 Co524 2.216 . S
O525 C532 1.247 . S
O526 Co524 2.091 . S
O526 C532 1.261 . S
C527 O536 1.247 . S
C527 O537 1.272 . S
O528 Co524 2.004 . S
O528 C533 1.259 . S
Co529 O530 2.061 . S
Co529 O535 2.052 . S
Co529 O537 2.135 . S
O530 Co529 2.061 . S
O530 C533 1.235 . S
C531 O534 1.238 . S
C531 O535 1.241 . S
C532 O525 1.247 . S
C532 O526 1.261 . S
C533 O528 1.259 . S
C533 O530 1.235 . S
O534 Co524 2.021 . S
O534 C531 1.238 . S
O535 Co529 2.052 . S
O535 C531 1.241 . S
O536 Co524 2.137 . S
O536 C527 1.247 . S
O537 Co524 2.244 . S
O537 C527 1.272 . S
O537 Co529 2.135 . S
Co538 O539 2.216 . S
Co538 O540 2.091 . S
Co538 O542 2.004 . S
Co538 O548 2.021 . S
Co538 O550 2.137 . S
Co538 O551 2.244 . S
O539 Co538 2.216 . S
O539 C546 1.247 . S
O540 Co538 2.091 . S
O540 C546 1.261 . S
C541 O550 1.247 . S
C541 O551 1.272 . S
O542 Co538 2.004 . S
O542 C547 1.259 . S
Co543 O544 2.061 . S
Co543 O549 2.052 . S
Co543 O551 2.135 . S
O544 Co543 2.061 . S
O544 C547 1.235 . S
C545 O548 1.238 . S
C545 O549 1.241 . S
C546 O539 1.247 . S
C546 O540 1.261 . S
C547 O542 1.259 . S
C547 O544 1.235 . S
O548 Co538 2.021 . S
O548 C545 1.238 . S
O549 Co543 2.052 . S
O549 C545 1.241 . S
O550 Co538 2.137 . S
O550 C541 1.247 . S
O551 Co538 2.244 . S
O551 C541 1.272 . S
O551 Co543 2.135 . S
Co552 O553 2.216 . S
Co552 O554 2.091 . S
Co552 O556 2.004 . S
Co552 O562 2.021 . S
Co552 O564 2.137 . S
Co552 O565 2.244 . S
O553 Co552 2.216 . S
O553 C560 1.247 . S
O554 Co552 2.091 . S
O554 C560 1.261 . S
C555 O564 1.247 . S
C555 O565 1.272 . S
O556 Co552 2.004 . S
O556 C561 1.259 . S
Co557 O558 2.061 . S
Co557 O563 2.052 . S
Co557 O565 2.135 . S
O558 Co557 2.061 . S
O558 C561 1.235 . S
C559 O562 1.238 . S
C559 O563 1.241 . S
C560 O553 1.247 . S
C560 O554 1.261 . S
C561 O556 1.259 . S
C561 O558 1.235 . S
O562 Co552 2.021 . S
O562 C559 1.238 . S
O563 Co557 2.052 . S
O563 C559 1.241 . S
O564 Co552 2.137 . S
O564 C555 1.247 . S
O565 Co552 2.244 . S
O565 C555 1.272 . S
O565 Co557 2.135 . S
Co566 O567 2.216 . S
Co566 O568 2.091 . S
Co566 O570 2.004 . S
Co566 O576 2.021 . S
Co566 O578 2.137 . S
Co566 O579 2.244 . S
O567 Co566 2.216 . S
O567 C574 1.247 . S
O568 Co566 2.091 . S
O568 C574 1.261 . S
C569 O578 1.247 . S
C569 O579 1.272 . S
O570 Co566 2.004 . S
O570 C575 1.259 . S
Co571 O572 2.061 . S
Co571 O577 2.052 . S
Co571 O579 2.135 . S
O572 Co571 2.061 . S
O572 C575 1.235 . S
C573 O576 1.238 . S
C573 O577 1.241 . S
C574 O567 1.247 . S
C574 O568 1.261 . S
C575 O570 1.259 . S
C575 O572 1.235 . S
O576 Co566 2.021 . S
O576 C573 1.238 . S
O577 Co571 2.052 . S
O577 C573 1.241 . S
O578 Co566 2.137 . S
O578 C569 1.247 . S
O579 Co566 2.244 . S
O579 C569 1.272 . S
O579 Co571 2.135 . S
Co580 O581 2.216 1_556 S
Co580 O582 2.091 1_556 S
Co580 O584 2.004 . S
Co580 O590 2.021 1_556 S
Co580 O592 2.137 . S
Co580 O593 2.244 . S
O581 Co580 2.216 1_554 S
O581 C588 1.247 . S
O582 Co580 2.091 1_554 S
O582 C588 1.261 . S
C583 O592 1.247 . S
C583 O593 1.272 . S
O584 Co580 2.004 . S
O584 C589 1.259 . S
Co585 O586 2.061 . S
Co585 O591 2.052 1_556 S
Co585 O593 2.135 . S
O586 Co585 2.061 . S
O586 C589 1.235 . S
C587 O590 1.238 . S
C587 O591 1.241 . S
C588 O581 1.247 . S
C588 O582 1.261 . S
C589 O584 1.259 . S
C589 O586 1.235 . S
O590 Co580 2.021 1_554 S
O590 C587 1.238 . S
O591 Co585 2.052 1_554 S
O591 C587 1.241 . S
O592 Co580 2.137 . S
O592 C583 1.247 . S
O593 Co580 2.244 . S
O593 C583 1.272 . S
O593 Co585 2.135 . S
Co594 O595 2.216 . S
Co594 O596 2.091 . S
Co594 O598 2.004 . S
Co594 O604 2.021 . S
Co594 O606 2.137 . S
Co594 O607 2.244 . S
O595 Co594 2.216 . S
O595 C602 1.247 . S
O596 Co594 2.091 . S
O596 C602 1.261 . S
C597 O606 1.247 . S
C597 O607 1.272 . S
O598 Co594 2.004 . S
O598 C603 1.259 . S
Co599 O600 2.061 . S
Co599 O605 2.052 . S
Co599 O607 2.135 . S
O600 Co599 2.061 . S
O600 C603 1.235 . S
C601 O604 1.238 . S
C601 O605 1.241 . S
C602 O595 1.247 . S
C602 O596 1.261 . S
C603 O598 1.259 . S
C603 O600 1.235 . S
O604 Co594 2.021 . S
O604 C601 1.238 . S
O605 Co599 2.052 . S
O605 C601 1.241 . S
O606 Co594 2.137 . S
O606 C597 1.247 . S
O607 Co594 2.244 . S
O607 C597 1.272 . S
O607 Co599 2.135 . S
H608 C614 0.930 . S
H609 C618 0.930 . S
H610 C623 0.929 . S
H611 C621 0.929 . S
H612 C616 0.929 . S
H613 C622 0.929 . S
C614 H608 0.930 . S
C614 C615 1.367 . S
C614 C622 1.378 . S
C615 C614 1.367 . S
C615 C623 1.433 . S
C616 H612 0.929 . S
C616 C618 1.378 . S
C616 C620 1.350 . S
C617 C620 1.463 . S
C617 C622 1.350 . S
C617 N625 1.427 . S
C618 H609 0.930 . S
C618 C616 1.378 . S
C618 C619 1.367 . S
C619 C618 1.367 . S
C619 C621 1.433 . S
C620 C616 1.350 . S
C620 C617 1.463 . S
C620 N624 1.427 . S
C621 H611 0.929 . S
C621 C619 1.433 . S
C621 N624 1.384 . S
C622 H613 0.929 . S
C622 C614 1.378 . S
C622 C617 1.350 . S
C623 H610 0.929 . S
C623 C615 1.433 . S
C623 N625 1.384 . S
N624 C620 1.427 . S
N624 C621 1.384 . S
N625 C617 1.427 . S
N625 C623 1.384 . S
H626 C632 0.930 . S
H627 C636 0.930 . S
H628 C641 0.929 . S
H629 C639 0.929 . S
H630 C634 0.929 . S
H631 C640 0.929 . S
C632 H626 0.930 . S
C632 C633 1.367 . S
C632 C640 1.378 . S
C633 C632 1.367 . S
C633 C641 1.433 . S
C634 H630 0.929 . S
C634 C636 1.378 . S
C634 C638 1.350 . S
C635 C638 1.463 . S
C635 C640 1.350 . S
C635 N643 1.427 . S
C636 H627 0.930 . S
C636 C634 1.378 . S
C636 C637 1.367 . S
C637 C636 1.367 . S
C637 C639 1.433 . S
C638 C634 1.350 . S
C638 C635 1.463 . S
C638 N642 1.427 . S
C639 H629 0.929 . S
C639 C637 1.433 . S
C639 N642 1.384 . S
C640 H631 0.929 . S
C640 C632 1.378 . S
C640 C635 1.350 . S
C641 H628 0.929 . S
C641 C633 1.433 . S
C641 N643 1.384 . S
N642 C638 1.427 . S
N642 C639 1.384 . S
N643 C635 1.427 . S
N643 C641 1.384 . S
H644 C650 0.930 . S
H645 C654 0.930 . S
H646 C659 0.929 . S
H647 C657 0.929 . S
H648 C652 0.929 . S
H649 C658 0.929 . S
C650 H644 0.930 . S
C650 C651 1.367 . S
C650 C658 1.378 . S
C651 C650 1.367 . S
C651 C659 1.433 . S
C652 H648 0.929 . S
C652 C654 1.378 . S
C652 C656 1.350 . S
C653 C656 1.463 . S
C653 C658 1.350 . S
C653 N661 1.427 . S
C654 H645 0.930 . S
C654 C652 1.378 . S
C654 C655 1.367 . S
C655 C654 1.367 . S
C655 C657 1.433 . S
C656 C652 1.350 . S
C656 C653 1.463 . S
C656 N660 1.427 . S
C657 H647 0.929 . S
C657 C655 1.433 . S
C657 N660 1.384 . S
C658 H649 0.929 . S
C658 C650 1.378 . S
C658 C653 1.350 . S
C659 H646 0.929 . S
C659 C651 1.433 . S
C659 N661 1.384 . S
N660 C656 1.427 . S
N660 C657 1.384 . S
N661 C653 1.427 . S
N661 C659 1.384 . S
H662 C668 0.930 . S
H663 C672 0.930 . S
H664 C677 0.929 . S
H665 C675 0.929 . S
H666 C670 0.929 . S
H667 C676 0.929 . S
C668 H662 0.930 . S
C668 C669 1.367 1_556 S
C668 C676 1.378 . S
C669 C668 1.367 1_554 S
C669 C677 1.433 . S
C670 H666 0.929 . S
C670 C672 1.378 . S
C670 C674 1.350 . S
C671 C674 1.463 . S
C671 C676 1.350 1_554 S
C671 N679 1.427 . S
C672 H663 0.930 . S
C672 C670 1.378 . S
C672 C673 1.367 . S
C673 C672 1.367 . S
C673 C675 1.433 1_554 S
C674 C670 1.350 . S
C674 C671 1.463 . S
C674 N678 1.427 1_554 S
C675 H665 0.929 . S
C675 C673 1.433 1_556 S
C675 N678 1.384 . S
C676 H667 0.929 . S
C676 C668 1.378 . S
C676 C671 1.350 1_556 S
C677 H664 0.929 . S
C677 C669 1.433 . S
C677 N679 1.384 . S
N678 C674 1.427 1_556 S
N678 C675 1.384 . S
N679 C671 1.427 . S
N679 C677 1.384 . S
H680 C686 0.930 . S
H681 C690 0.930 . S
H682 C695 0.929 . S
H683 C693 0.929 . S
H684 C688 0.929 . S
H685 C694 0.929 . S
C686 H680 0.930 . S
C686 C687 1.367 1_554 S
C686 C694 1.378 . S
C687 C686 1.367 1_556 S
C687 C695 1.433 . S
C688 H684 0.929 . S
C688 C690 1.378 . S
C688 C692 1.350 . S
C689 C692 1.463 . S
C689 C694 1.350 1_556 S
C689 N697 1.427 . S
C690 H681 0.930 . S
C690 C688 1.378 . S
C690 C691 1.367 . S
C691 C690 1.367 . S
C691 C693 1.433 1_556 S
C692 C688 1.350 . S
C692 C689 1.463 . S
C692 N696 1.427 1_556 S
C693 H683 0.929 . S
C693 C691 1.433 1_554 S
C693 N696 1.384 . S
C694 H685 0.929 . S
C694 C686 1.378 . S
C694 C689 1.350 1_554 S
C695 H682 0.929 . S
C695 C687 1.433 . S
C695 N697 1.384 . S
N696 C692 1.427 1_554 S
N696 C693 1.384 . S
N697 C689 1.427 . S
N697 C695 1.384 . S
H698 C704 0.930 . S
H699 C708 0.930 . S
H700 C713 0.929 . S
H701 C711 0.929 . S
H702 C706 0.929 . S
H703 C712 0.929 . S
C704 H698 0.930 . S
C704 C705 1.367 . S
C704 C712 1.378 . S
C705 C704 1.367 . S
C705 C713 1.433 . S
C706 H702 0.929 . S
C706 C708 1.378 . S
C706 C710 1.350 . S
C707 C710 1.463 . S
C707 C712 1.350 . S
C707 N715 1.427 . S
C708 H699 0.930 . S
C708 C706 1.378 . S
C708 C709 1.367 . S
C709 C708 1.367 . S
C709 C711 1.433 . S
C710 C706 1.350 . S
C710 C707 1.463 . S
C710 N714 1.427 . S
C711 H701 0.929 . S
C711 C709 1.433 . S
C711 N714 1.384 . S
C712 H703 0.929 . S
C712 C704 1.378 . S
C712 C707 1.350 . S
C713 H700 0.929 . S
C713 C705 1.433 . S
C713 N715 1.384 . S
N714 C710 1.427 . S
N714 C711 1.384 . S
N715 C707 1.427 . S
N715 C713 1.384 . S
H716 C722 0.930 . S
H717 C726 0.930 . S
H718 C731 0.929 . S
H719 C729 0.929 . S
H720 C724 0.929 . S
H721 C730 0.929 . S
C722 H716 0.930 . S
C722 C723 1.367 . S
C722 C730 1.378 . S
C723 C722 1.367 . S
C723 C731 1.433 . S
C724 H720 0.929 . S
C724 C726 1.378 . S
C724 C728 1.350 . S
C725 C728 1.463 . S
C725 C730 1.350 . S
C725 N733 1.427 . S
C726 H717 0.930 . S
C726 C724 1.378 . S
C726 C727 1.367 . S
C727 C726 1.367 . S
C727 C729 1.433 . S
C728 C724 1.350 . S
C728 C725 1.463 . S
C728 N732 1.427 . S
C729 H719 0.929 . S
C729 C727 1.433 . S
C729 N732 1.384 . S
C730 H721 0.929 . S
C730 C722 1.378 . S
C730 C725 1.350 . S
C731 H718 0.929 . S
C731 C723 1.433 . S
C731 N733 1.384 . S
N732 C728 1.427 . S
N732 C729 1.384 . S
N733 C725 1.427 . S
N733 C731 1.384 . S
H734 C740 0.930 . S
H735 C744 0.930 . S
H736 C749 0.929 . S
H737 C747 0.929 . S
H738 C742 0.929 . S
H739 C748 0.929 . S
C740 H734 0.930 . S
C740 C741 1.367 . S
C740 C748 1.378 . S
C741 C740 1.367 . S
C741 C749 1.433 . S
C742 H738 0.929 . S
C742 C744 1.378 . S
C742 C746 1.350 . S
C743 C746 1.463 . S
C743 C748 1.350 . S
C743 N751 1.427 . S
C744 H735 0.930 . S
C744 C742 1.378 . S
C744 C745 1.367 . S
C745 C744 1.367 . S
C745 C747 1.433 . S
C746 C742 1.350 . S
C746 C743 1.463 . S
C746 N750 1.427 . S
C747 H737 0.929 . S
C747 C745 1.433 . S
C747 N750 1.384 . S
C748 H739 0.929 . S
C748 C740 1.378 . S
C748 C743 1.350 . S
C749 H736 0.929 . S
C749 C741 1.433 . S
C749 N751 1.384 . S
N750 C746 1.427 . S
N750 C747 1.384 . S
N751 C743 1.427 . S
N751 C749 1.384 . S
H752 C758 0.930 . S
H753 C762 0.930 . S
H754 C767 0.929 . S
H755 C765 0.929 . S
H756 C760 0.929 . S
H757 C766 0.929 . S
C758 H752 0.930 . S
C758 C759 1.367 . S
C758 C766 1.378 . S
C759 C758 1.367 . S
C759 C767 1.433 . S
C760 H756 0.929 . S
C760 C762 1.378 . S
C760 C764 1.350 . S
C761 C764 1.463 . S
C761 C766 1.350 . S
C761 N769 1.427 . S
C762 H753 0.930 . S
C762 C760 1.378 . S
C762 C763 1.367 . S
C763 C762 1.367 . S
C763 C765 1.433 . S
C764 C760 1.350 . S
C764 C761 1.463 . S
C764 N768 1.427 . S
C765 H755 0.929 . S
C765 C763 1.433 . S
C765 N768 1.384 . S
C766 H757 0.929 . S
C766 C758 1.378 . S
C766 C761 1.350 . S
C767 H754 0.929 . S
C767 C759 1.433 . S
C767 N769 1.384 . S
N768 C764 1.427 . S
N768 C765 1.384 . S
N769 C761 1.427 . S
N769 C767 1.384 . S
H770 C776 0.930 . S
H771 C780 0.930 . S
H772 C785 0.929 . S
H773 C783 0.929 . S
H774 C778 0.929 . S
H775 C784 0.929 . S
C776 H770 0.930 . S
C776 C777 1.367 . S
C776 C784 1.378 . S
C777 C776 1.367 . S
C777 C785 1.433 1_554 S
C778 H774 0.929 . S
C778 C780 1.378 . S
C778 C782 1.350 1_556 S
C779 C782 1.463 . S
C779 C784 1.350 . S
C779 N787 1.427 1_554 S
C780 H771 0.930 . S
C780 C778 1.378 . S
C780 C781 1.367 1_556 S
C781 C780 1.367 1_554 S
C781 C783 1.433 . S
C782 C778 1.350 1_554 S
C782 C779 1.463 . S
C782 N786 1.427 . S
C783 H773 0.929 . S
C783 C781 1.433 . S
C783 N786 1.384 . S
C784 H775 0.929 . S
C784 C776 1.378 . S
C784 C779 1.350 . S
C785 H772 0.929 . S
C785 C777 1.433 1_556 S
C785 N787 1.384 . S
N786 C782 1.427 . S
N786 C783 1.384 . S
N787 C779 1.427 1_556 S
N787 C785 1.384 . S
H788 C794 0.930 . S
H789 C798 0.930 . S
H790 C803 0.929 . S
H791 C801 0.929 . S
H792 C796 0.929 . S
H793 C802 0.929 . S
C794 H788 0.930 . S
C794 C795 1.367 . S
C794 C802 1.378 . S
C795 C794 1.367 . S
C795 C803 1.433 . S
C796 H792 0.929 . S
C796 C798 1.378 . S
C796 C800 1.350 . S
C797 C800 1.463 . S
C797 C802 1.350 . S
C797 N805 1.427 . S
C798 H789 0.930 . S
C798 C796 1.378 . S
C798 C799 1.367 . S
C799 C798 1.367 . S
C799 C801 1.433 . S
C800 C796 1.350 . S
C800 C797 1.463 . S
C800 N804 1.427 . S
C801 H791 0.929 . S
C801 C799 1.433 . S
C801 N804 1.384 . S
C802 H793 0.929 . S
C802 C794 1.378 . S
C802 C797 1.350 . S
C803 H790 0.929 . S
C803 C795 1.433 . S
C803 N805 1.384 . S
N804 C800 1.427 . S
N804 C801 1.384 . S
N805 C797 1.427 . S
N805 C803 1.384 . S
H806 C812 0.930 . S
H807 C816 0.930 . S
H808 C821 0.929 . S
H809 C819 0.929 . S
H810 C814 0.929 . S
H811 C820 0.929 . S
C812 H806 0.930 . S
C812 C813 1.367 . S
C812 C820 1.378 . S
C813 C812 1.367 . S
C813 C821 1.433 . S
C814 H810 0.929 . S
C814 C816 1.378 . S
C814 C818 1.350 . S
C815 C818 1.463 . S
C815 C820 1.350 . S
C815 N823 1.427 . S
C816 H807 0.930 . S
C816 C814 1.378 . S
C816 C817 1.367 . S
C817 C816 1.367 . S
C817 C819 1.433 . S
C818 C814 1.350 . S
C818 C815 1.463 . S
C818 N822 1.427 . S
C819 H809 0.929 . S
C819 C817 1.433 . S
C819 N822 1.384 . S
C820 H811 0.929 . S
C820 C812 1.378 . S
C820 C815 1.350 . S
C821 H808 0.929 . S
C821 C813 1.433 . S
C821 N823 1.384 . S
N822 C818 1.427 . S
N822 C819 1.384 . S
N823 C815 1.427 . S
N823 C821 1.384 . S
H824 C830 0.930 . S
H825 C834 0.930 . S
H826 C839 0.929 . S
H827 C837 0.929 . S
H828 C832 0.929 . S
H829 C838 0.929 . S
C830 H824 0.930 . S
C830 C831 1.367 . S
C830 C838 1.378 . S
C831 C830 1.367 . S
C831 C839 1.433 . S
C832 H828 0.929 . S
C832 C834 1.378 . S
C832 C836 1.350 . S
C833 C836 1.463 . S
C833 C838 1.350 . S
C833 N841 1.427 . S
C834 H825 0.930 . S
C834 C832 1.378 . S
C834 C835 1.367 . S
C835 C834 1.367 . S
C835 C837 1.433 . S
C836 C832 1.350 . S
C836 C833 1.463 . S
C836 N840 1.427 . S
C837 H827 0.929 . S
C837 C835 1.433 . S
C837 N840 1.384 . S
C838 H829 0.929 . S
C838 C830 1.378 . S
C838 C833 1.350 . S
C839 H826 0.929 . S
C839 C831 1.433 . S
C839 N841 1.384 . S
N840 C836 1.427 . S
N840 C837 1.384 . S
N841 C833 1.427 . S
N841 C839 1.384 . S
H842 C848 0.930 . S
H843 C852 0.930 . S
H844 C857 0.929 . S
H845 C855 0.929 . S
H846 C850 0.929 . S
H847 C856 0.929 . S
C848 H842 0.930 . S
C848 C849 1.367 . S
C848 C856 1.378 . S
C849 C848 1.367 . S
C849 C857 1.433 . S
C850 H846 0.929 . S
C850 C852 1.378 . S
C850 C854 1.350 . S
C851 C854 1.463 . S
C851 C856 1.350 . S
C851 N859 1.427 . S
C852 H843 0.930 . S
C852 C850 1.378 . S
C852 C853 1.367 . S
C853 C852 1.367 . S
C853 C855 1.433 . S
C854 C850 1.350 . S
C854 C851 1.463 . S
C854 N858 1.427 . S
C855 H845 0.929 . S
C855 C853 1.433 . S
C855 N858 1.384 . S
C856 H847 0.929 . S
C856 C848 1.378 . S
C856 C851 1.350 . S
C857 H844 0.929 . S
C857 C849 1.433 . S
C857 N859 1.384 . S
N858 C854 1.427 . S
N858 C855 1.384 . S
N859 C851 1.427 . S
N859 C857 1.384 . S
H860 C866 0.940 . S
H861 C870 0.930 . S
H862 C875 0.929 . S
H863 C873 0.929 . S
H864 C868 0.929 . S
H865 C874 0.962 . S
C866 H860 0.940 . S
C866 C867 1.357 1_554 S
C866 C874 1.377 . S
C867 C866 1.357 1_556 S
C867 C875 1.433 . S
C868 H864 0.929 . S
C868 C870 1.378 . S
C868 C872 1.350 . S
C869 C872 1.463 . S
C869 C874 1.321 1_556 S
C869 N877 1.427 . S
C870 H861 0.930 . S
C870 C868 1.378 . S
C870 C871 1.367 . S
C871 C870 1.367 . S
C871 C873 1.433 1_556 S
C872 C868 1.350 . S
C872 C869 1.463 . S
C872 N876 1.427 1_556 S
C873 H863 0.929 . S
C873 C871 1.433 1_554 S
C873 N876 1.384 . S
C874 H865 0.962 . S
C874 C866 1.377 . S
C874 C869 1.321 1_554 S
C875 H862 0.929 . S
C875 C867 1.433 . S
C875 N877 1.384 . S
N876 C872 1.427 1_554 S
N876 C873 1.384 . S
N877 C869 1.427 . S
N877 C875 1.384 . S
H878 C884 0.930 . S
H879 C888 0.930 . S
H880 C893 0.929 . S
H881 C891 0.929 . S
H882 C886 0.929 . S
H883 C892 0.929 . S
C884 H878 0.930 . S
C884 C885 1.367 . S
C884 C892 1.378 . S
C885 C884 1.367 . S
C885 C893 1.433 . S
C886 H882 0.929 . S
C886 C888 1.378 . S
C886 C890 1.350 . S
C887 C890 1.463 . S
C887 C892 1.350 . S
C887 N895 1.427 . S
C888 H879 0.930 . S
C888 C886 1.378 . S
C888 C889 1.367 . S
C889 C888 1.367 . S
C889 C891 1.433 . S
C890 C886 1.350 . S
C890 C887 1.463 . S
C890 N894 1.427 . S
C891 H881 0.929 . S
C891 C889 1.433 . S
C891 N894 1.384 . S
C892 H883 0.929 . S
C892 C884 1.378 . S
C892 C887 1.350 . S
C893 H880 0.929 . S
C893 C885 1.433 . S
C893 N895 1.384 . S
N894 C890 1.427 . S
N894 C891 1.384 . S
N895 C887 1.427 . S
N895 C893 1.384 . S
H896 C902 0.930 . S
H897 C906 0.930 . S
H898 C911 0.929 . S
H899 C909 0.929 . S
H900 C904 0.929 . S
H901 C910 0.929 . S
C902 H896 0.930 . S
C902 C903 1.367 . S
C902 C910 1.378 . S
C903 C902 1.367 . S
C903 C911 1.433 . S
C904 H900 0.929 . S
C904 C906 1.378 . S
C904 C908 1.350 . S
C905 C908 1.463 . S
C905 C910 1.350 . S
C905 N913 1.427 . S
C906 H897 0.930 . S
C906 C904 1.378 . S
C906 C907 1.367 . S
C907 C906 1.367 . S
C907 C909 1.433 . S
C908 C904 1.350 . S
C908 C905 1.463 . S
C908 N912 1.427 . S
C909 H899 0.929 . S
C909 C907 1.433 . S
C909 N912 1.384 . S
C910 H901 0.929 . S
C910 C902 1.378 . S
C910 C905 1.350 . S
C911 H898 0.929 . S
C911 C903 1.433 . S
C911 N913 1.384 . S
N912 C908 1.427 . S
N912 C909 1.384 . S
N913 C905 1.427 . S
N913 C911 1.384 . S
H914 C920 0.930 . S
H915 C924 0.930 . S
H916 C929 0.929 . S
H917 C927 0.929 . S
H918 C922 0.929 . S
H919 C928 0.929 . S
C920 H914 0.930 . S
C920 C921 1.367 . S
C920 C928 1.378 . S
C921 C920 1.367 . S
C921 C929 1.433 . S
C922 H918 0.929 . S
C922 C924 1.378 . S
C922 C926 1.350 . S
C923 C926 1.463 . S
C923 C928 1.350 . S
C923 N931 1.427 . S
C924 H915 0.930 . S
C924 C922 1.378 . S
C924 C925 1.367 . S
C925 C924 1.367 . S
C925 C927 1.433 . S
C926 C922 1.350 . S
C926 C923 1.463 . S
C926 N930 1.427 . S
C927 H917 0.929 . S
C927 C925 1.433 . S
C927 N930 1.384 . S
C928 H919 0.929 . S
C928 C920 1.378 . S
C928 C923 1.350 . S
C929 H916 0.929 . S
C929 C921 1.433 . S
C929 N931 1.384 . S
N930 C926 1.427 . S
N930 C927 1.384 . S
N931 C923 1.427 . S
N931 C929 1.384 . S
H932 C938 0.930 . S
H933 C942 0.930 . S
H934 C947 0.929 . S
H935 C945 0.929 . S
H936 C940 0.929 . S
H937 C946 0.929 . S
C938 H932 0.930 . S
C938 C939 1.367 . S
C938 C946 1.378 . S
C939 C938 1.367 . S
C939 C947 1.433 . S
C940 H936 0.929 . S
C940 C942 1.378 . S
C940 C944 1.350 . S
C941 C944 1.463 . S
C941 C946 1.350 . S
C941 N949 1.427 . S
C942 H933 0.930 . S
C942 C940 1.378 . S
C942 C943 1.367 . S
C943 C942 1.367 . S
C943 C945 1.433 . S
C944 C940 1.350 . S
C944 C941 1.463 . S
C944 N948 1.427 . S
C945 H935 0.929 . S
C945 C943 1.433 . S
C945 N948 1.384 . S
C946 H937 0.929 . S
C946 C938 1.378 . S
C946 C941 1.350 . S
C947 H934 0.929 . S
C947 C939 1.433 . S
C947 N949 1.384 . S
N948 C944 1.427 . S
N948 C945 1.384 . S
N949 C941 1.427 . S
N949 C947 1.384 . S
H950 C956 0.930 . S
H951 C960 0.930 . S
H952 C965 0.929 . S
H953 C963 0.929 . S
H954 C958 0.929 . S
H955 C964 0.929 . S
C956 H950 0.930 . S
C956 C957 1.367 . S
C956 C964 1.378 . S
C957 C956 1.367 . S
C957 C965 1.433 . S
C958 H954 0.929 . S
C958 C960 1.378 . S
C958 C962 1.350 . S
C959 C962 1.463 . S
C959 C964 1.350 . S
C959 N967 1.427 . S
C960 H951 0.930 . S
C960 C958 1.378 . S
C960 C961 1.367 . S
C961 C960 1.367 . S
C961 C963 1.433 . S
C962 C958 1.350 . S
C962 C959 1.463 . S
C962 N966 1.427 . S
C963 H953 0.929 . S
C963 C961 1.433 . S
C963 N966 1.384 . S
C964 H955 0.929 . S
C964 C956 1.378 . S
C964 C959 1.350 . S
C965 H952 0.929 . S
C965 C957 1.433 . S
C965 N967 1.384 . S
N966 C962 1.427 . S
N966 C963 1.384 . S
N967 C959 1.427 . S
N967 C965 1.384 . S
H968 C974 0.930 . S
H969 C978 0.930 . S
H970 C983 0.929 . S
H971 C981 0.929 . S
H972 C976 0.929 . S
H973 C982 0.929 . S
C974 H968 0.930 . S
C974 C975 1.367 . S
C974 C982 1.378 . S
C975 C974 1.367 . S
C975 C983 1.433 . S
C976 H972 0.929 . S
C976 C978 1.378 . S
C976 C980 1.350 . S
C977 C980 1.463 . S
C977 C982 1.350 . S
C977 N985 1.427 . S
C978 H969 0.930 . S
C978 C976 1.378 . S
C978 C979 1.367 . S
C979 C978 1.367 . S
C979 C981 1.433 . S
C980 C976 1.350 . S
C980 C977 1.463 . S
C980 N984 1.427 . S
C981 H971 0.929 . S
C981 C979 1.433 . S
C981 N984 1.384 . S
C982 H973 0.929 . S
C982 C974 1.378 . S
C982 C977 1.350 . S
C983 H970 0.929 . S
C983 C975 1.433 . S
C983 N985 1.384 . S
N984 C980 1.427 . S
N984 C981 1.384 . S
N985 C977 1.427 . S
N985 C983 1.384 . S
H986 C992 0.930 . S
H987 C996 0.930 . S
H988 C1001 0.929 . S
H989 C999 0.929 . S
H990 C994 0.929 . S
H991 C1000 0.929 . S
C992 H986 0.930 . S
C992 C993 1.367 . S
C992 C1000 1.378 . S
C993 C992 1.367 . S
C993 C1001 1.433 . S
C994 H990 0.929 . S
C994 C996 1.378 . S
C994 C998 1.350 . S
C995 C998 1.463 . S
C995 C1000 1.350 . S
C995 N1003 1.427 . S
C996 H987 0.930 . S
C996 C994 1.378 . S
C996 C997 1.367 . S
C997 C996 1.367 . S
C997 C999 1.433 . S
C998 C994 1.350 . S
C998 C995 1.463 . S
C998 N1002 1.427 . S
C999 H989 0.929 . S
C999 C997 1.433 . S
C999 N1002 1.384 . S
C1000 H991 0.929 . S
C1000 C992 1.378 . S
C1000 C995 1.350 . S
C1001 H988 0.929 . S
C1001 C993 1.433 . S
C1001 N1003 1.384 . S
N1002 C998 1.427 . S
N1002 C999 1.384 . S
N1003 C995 1.427 . S
N1003 C1001 1.384 . S
H1004 C1010 0.930 . S
H1005 C1014 0.930 . S
H1006 C1019 0.929 . S
H1007 C1017 0.929 . S
H1008 C1012 0.929 . S
H1009 C1018 0.929 . S
C1010 H1004 0.930 . S
C1010 C1011 1.367 . S
C1010 C1018 1.378 . S
C1011 C1010 1.367 . S
C1011 C1019 1.433 . S
C1012 H1008 0.929 . S
C1012 C1014 1.378 . S
C1012 C1016 1.350 . S
C1013 C1016 1.463 . S
C1013 C1018 1.350 . S
C1013 N1021 1.427 . S
C1014 H1005 0.930 . S
C1014 C1012 1.378 . S
C1014 C1015 1.367 . S
C1015 C1014 1.367 . S
C1015 C1017 1.433 . S
C1016 C1012 1.350 . S
C1016 C1013 1.463 . S
C1016 N1020 1.427 . S
C1017 H1007 0.929 . S
C1017 C1015 1.433 . S
C1017 N1020 1.384 . S
C1018 H1009 0.929 . S
C1018 C1010 1.378 . S
C1018 C1013 1.350 . S
C1019 H1006 0.929 . S
C1019 C1011 1.433 . S
C1019 N1021 1.384 . S
N1020 C1016 1.427 . S
N1020 C1017 1.384 . S
N1021 C1013 1.427 . S
N1021 C1019 1.384 . S
H1022 C1028 0.930 . S
H1023 C1032 0.930 . S
H1024 C1037 0.929 . S
H1025 C1035 0.929 . S
H1026 C1030 0.929 . S
H1027 C1036 0.929 . S
C1028 H1022 0.930 . S
C1028 C1029 1.367 . S
C1028 C1036 1.378 . S
C1029 C1028 1.367 . S
C1029 C1037 1.433 . S
C1030 H1026 0.929 . S
C1030 C1032 1.378 . S
C1030 C1034 1.350 . S
C1031 C1034 1.463 . S
C1031 C1036 1.350 . S
C1031 N1039 1.427 . S
C1032 H1023 0.930 . S
C1032 C1030 1.378 . S
C1032 C1033 1.367 . S
C1033 C1032 1.367 . S
C1033 C1035 1.433 . S
C1034 C1030 1.350 . S
C1034 C1031 1.463 . S
C1034 N1038 1.427 . S
C1035 H1025 0.929 . S
C1035 C1033 1.433 . S
C1035 N1038 1.384 . S
C1036 H1027 0.929 . S
C1036 C1028 1.378 . S
C1036 C1031 1.350 . S
C1037 H1024 0.929 . S
C1037 C1029 1.433 . S
C1037 N1039 1.384 . S
N1038 C1034 1.427 . S
N1038 C1035 1.384 . S
N1039 C1031 1.427 . S
N1039 C1037 1.384 . S
H1040 C1046 0.930 . S
H1041 C1050 0.930 . S
H1042 C1055 0.929 . S
H1043 C1053 0.929 . S
H1044 C1048 0.929 . S
H1045 C1054 0.929 . S
C1046 H1040 0.930 . S
C1046 C1047 1.367 . S
C1046 C1054 1.378 . S
C1047 C1046 1.367 . S
C1047 C1055 1.433 . S
C1048 H1044 0.929 . S
C1048 C1050 1.378 . S
C1048 C1052 1.350 . S
C1049 C1052 1.463 . S
C1049 C1054 1.350 . S
C1049 N1057 1.427 . S
C1050 H1041 0.930 . S
C1050 C1048 1.378 . S
C1050 C1051 1.367 . S
C1051 C1050 1.367 . S
C1051 C1053 1.433 . S
C1052 C1048 1.350 . S
C1052 C1049 1.463 . S
C1052 N1056 1.427 . S
C1053 H1043 0.929 . S
C1053 C1051 1.433 . S
C1053 N1056 1.384 . S
C1054 H1045 0.929 . S
C1054 C1046 1.378 . S
C1054 C1049 1.350 . S
C1055 H1042 0.929 . S
C1055 C1047 1.433 . S
C1055 N1057 1.384 . S
N1056 C1052 1.427 . S
N1056 C1053 1.384 . S
N1057 C1049 1.427 . S
N1057 C1055 1.384 . S
H1058 C1064 0.930 . S
H1059 C1068 0.930 . S
H1060 C1073 0.929 . S
H1061 C1071 0.929 . S
H1062 C1066 0.929 . S
H1063 C1072 0.929 . S
C1064 H1058 0.930 . S
C1064 C1065 1.367 . S
C1064 C1072 1.378 . S
C1065 C1064 1.367 . S
C1065 C1073 1.433 . S
C1066 H1062 0.929 . S
C1066 C1068 1.378 . S
C1066 C1070 1.350 . S
C1067 C1070 1.463 . S
C1067 C1072 1.350 . S
C1067 N1075 1.427 . S
C1068 H1059 0.930 . S
C1068 C1066 1.378 . S
C1068 C1069 1.367 . S
C1069 C1068 1.367 . S
C1069 C1071 1.433 . S
C1070 C1066 1.350 . S
C1070 C1067 1.463 . S
C1070 N1074 1.427 . S
C1071 H1061 0.929 . S
C1071 C1069 1.433 . S
C1071 N1074 1.384 . S
C1072 H1063 0.929 . S
C1072 C1064 1.378 . S
C1072 C1067 1.350 . S
C1073 H1060 0.929 . S
C1073 C1065 1.433 . S
C1073 N1075 1.384 . S
N1074 C1070 1.427 . S
N1074 C1071 1.384 . S
N1075 C1067 1.427 . S
N1075 C1073 1.384 . S
H1076 C1082 0.930 . S
H1077 C1086 0.930 . S
H1078 C1091 0.929 . S
H1079 C1089 0.929 . S
H1080 C1084 0.929 . S
H1081 C1090 0.929 . S
C1082 H1076 0.930 . S
C1082 C1083 1.367 . S
C1082 C1090 1.378 . S
C1083 C1082 1.367 . S
C1083 C1091 1.433 . S
C1084 H1080 0.929 . S
C1084 C1086 1.378 . S
C1084 C1088 1.350 . S
C1085 C1088 1.463 . S
C1085 C1090 1.350 . S
C1085 N1093 1.427 . S
C1086 H1077 0.930 . S
C1086 C1084 1.378 . S
C1086 C1087 1.367 . S
C1087 C1086 1.367 . S
C1087 C1089 1.433 . S
C1088 C1084 1.350 . S
C1088 C1085 1.463 . S
C1088 N1092 1.427 . S
C1089 H1079 0.929 . S
C1089 C1087 1.433 . S
C1089 N1092 1.384 . S
C1090 H1081 0.929 . S
C1090 C1082 1.378 . S
C1090 C1085 1.350 . S
C1091 H1078 0.929 . S
C1091 C1083 1.433 . S
C1091 N1093 1.384 . S
N1092 C1088 1.427 . S
N1092 C1089 1.384 . S
N1093 C1085 1.427 . S
N1093 C1091 1.384 . S
H1094 C1100 0.930 . S
H1095 C1104 0.930 . S
H1096 C1109 0.929 . S
H1097 C1107 0.929 . S
H1098 C1102 0.929 . S
H1099 C1108 0.929 . S
C1100 H1094 0.930 . S
C1100 C1101 1.367 . S
C1100 C1108 1.378 . S
C1101 C1100 1.367 . S
C1101 C1109 1.433 . S
C1102 H1098 0.929 . S
C1102 C1104 1.378 . S
C1102 C1106 1.350 . S
C1103 C1106 1.463 . S
C1103 C1108 1.350 . S
C1103 N1111 1.427 . S
C1104 H1095 0.930 . S
C1104 C1102 1.378 . S
C1104 C1105 1.367 . S
C1105 C1104 1.367 . S
C1105 C1107 1.433 . S
C1106 C1102 1.350 . S
C1106 C1103 1.463 . S
C1106 N1110 1.427 . S
C1107 H1097 0.929 . S
C1107 C1105 1.433 . S
C1107 N1110 1.384 . S
C1108 H1099 0.929 . S
C1108 C1100 1.378 . S
C1108 C1103 1.350 . S
C1109 H1096 0.929 . S
C1109 C1101 1.433 . S
C1109 N1111 1.384 . S
N1110 C1106 1.427 . S
N1110 C1107 1.384 . S
N1111 C1103 1.427 . S
N1111 C1109 1.384 . S
H1112 C1118 0.930 . S
H1113 C1122 0.930 . S
H1114 C1127 0.929 . S
H1115 C1125 0.929 . S
H1116 C1120 0.929 . S
H1117 C1126 0.929 . S
C1118 H1112 0.930 . S
C1118 C1119 1.367 . S
C1118 C1126 1.378 . S
C1119 C1118 1.367 . S
C1119 C1127 1.433 . S
C1120 H1116 0.929 . S
C1120 C1122 1.378 . S
C1120 C1124 1.350 . S
C1121 C1124 1.463 . S
C1121 C1126 1.350 . S
C1121 N1129 1.427 . S
C1122 H1113 0.930 . S
C1122 C1120 1.378 . S
C1122 C1123 1.367 . S
C1123 C1122 1.367 . S
C1123 C1125 1.433 . S
C1124 C1120 1.350 . S
C1124 C1121 1.463 . S
C1124 N1128 1.427 . S
C1125 H1115 0.929 . S
C1125 C1123 1.433 . S
C1125 N1128 1.384 . S
C1126 H1117 0.929 . S
C1126 C1118 1.378 . S
C1126 C1121 1.350 . S
C1127 H1114 0.929 . S
C1127 C1119 1.433 . S
C1127 N1129 1.384 . S
N1128 C1124 1.427 . S
N1128 C1125 1.384 . S
N1129 C1121 1.427 . S
N1129 C1127 1.384 . S
H1130 C1136 0.930 . S
H1131 C1140 0.930 . S
H1132 C1145 0.929 . S
H1133 C1143 0.929 . S
H1134 C1138 0.929 . S
H1135 C1144 0.929 . S
C1136 H1130 0.930 . S
C1136 C1137 1.367 . S
C1136 C1144 1.378 . S
C1137 C1136 1.367 . S
C1137 C1145 1.433 . S
C1138 H1134 0.929 . S
C1138 C1140 1.378 . S
C1138 C1142 1.350 . S
C1139 C1142 1.463 . S
C1139 C1144 1.350 . S
C1139 N1147 1.427 . S
C1140 H1131 0.930 . S
C1140 C1138 1.378 . S
C1140 C1141 1.367 . S
C1141 C1140 1.367 . S
C1141 C1143 1.433 . S
C1142 C1138 1.350 . S
C1142 C1139 1.463 . S
C1142 N1146 1.427 . S
C1143 H1133 0.929 . S
C1143 C1141 1.433 . S
C1143 N1146 1.384 . S
C1144 H1135 0.929 . S
C1144 C1136 1.378 . S
C1144 C1139 1.350 . S
C1145 H1132 0.929 . S
C1145 C1137 1.433 . S
C1145 N1147 1.384 . S
N1146 C1142 1.427 . S
N1146 C1143 1.384 . S
N1147 C1139 1.427 . S
N1147 C1145 1.384 . S
H1148 C1154 0.930 . S
H1149 C1158 0.930 . S
H1150 C1163 0.929 . S
H1151 C1161 0.929 . S
H1152 C1156 0.929 . S
H1153 C1162 0.929 . S
C1154 H1148 0.930 . S
C1154 C1155 1.367 . S
C1154 C1162 1.378 . S
C1155 C1154 1.367 . S
C1155 C1163 1.433 . S
C1156 H1152 0.929 . S
C1156 C1158 1.378 . S
C1156 C1160 1.350 . S
C1157 C1160 1.463 . S
C1157 C1162 1.350 . S
C1157 N1165 1.427 . S
C1158 H1149 0.930 . S
C1158 C1156 1.378 . S
C1158 C1159 1.367 . S
C1159 C1158 1.367 . S
C1159 C1161 1.433 . S
C1160 C1156 1.350 . S
C1160 C1157 1.463 . S
C1160 N1164 1.427 . S
C1161 H1151 0.929 . S
C1161 C1159 1.433 . S
C1161 N1164 1.384 . S
C1162 H1153 0.929 . S
C1162 C1154 1.378 . S
C1162 C1157 1.350 . S
C1163 H1150 0.929 . S
C1163 C1155 1.433 . S
C1163 N1165 1.384 . S
N1164 C1160 1.427 . S
N1164 C1161 1.384 . S
N1165 C1157 1.427 . S
N1165 C1163 1.384 . S
H1166 C1172 0.930 . S
H1167 C1176 0.930 . S
H1168 C1181 0.929 . S
H1169 C1179 0.929 . S
H1170 C1174 0.929 . S
H1171 C1180 0.929 . S
C1172 H1166 0.930 . S
C1172 C1173 1.367 . S
C1172 C1180 1.378 . S
C1173 C1172 1.367 . S
C1173 C1181 1.433 . S
C1174 H1170 0.929 . S
C1174 C1176 1.378 . S
C1174 C1178 1.350 . S
C1175 C1178 1.463 . S
C1175 C1180 1.350 . S
C1175 N1183 1.427 . S
C1176 H1167 0.930 . S
C1176 C1174 1.378 . S
C1176 C1177 1.367 . S
C1177 C1176 1.367 . S
C1177 C1179 1.433 . S
C1178 C1174 1.350 . S
C1178 C1175 1.463 . S
C1178 N1182 1.427 . S
C1179 H1169 0.929 . S
C1179 C1177 1.433 . S
C1179 N1182 1.384 . S
C1180 H1171 0.929 . S
C1180 C1172 1.378 . S
C1180 C1175 1.350 . S
C1181 H1168 0.929 . S
C1181 C1173 1.433 . S
C1181 N1183 1.384 . S
N1182 C1178 1.427 . S
N1182 C1179 1.384 . S
N1183 C1175 1.427 . S
N1183 C1181 1.384 . S
C619 C518 1.462 . S
C615 C35 1.295 . S
C637 C532 1.461 . S
C633 C115 1.323 . S
C655 C547 1.456 . S
C651 C177 1.344 . S
C669 C221 1.318 . S
C673 C505 1.441 . S
C687 C283 1.304 . S
C691 C504 1.452 . S
C705 C363 1.322 . S
C709 C519 1.437 . S
C727 C533 1.490 . S
C723 C407 1.356 . S
C745 C546 1.474 . S
C741 C469 1.311 . S
C759 C159 1.310 . S
C763 C574 1.454 . S
C781 C588 1.490 . S
C777 C239 1.336 . S
C795 C53 1.310 . S
C799 C603 1.443 . S
C817 C560 1.431 . S
C813 C97 1.273 . S
C831 C425 1.323 . S
C835 C561 1.450 . S
C849 C487 1.316 . S
C853 C575 1.450 . S
C871 C589 1.452 . S
C867 C301 1.339 . S
C885 C345 1.317 . S
C889 C602 1.485 . S
C907 C527 1.894 . S
C903 C29 1.876 . S
C925 C545 1.847 . S
C921 C109 1.838 . S
C939 C171 1.844 . S
C943 C503 1.859 . S
C957 C215 1.887 . S
C961 C513 1.902 . S
C975 C277 1.868 . S
C979 C541 1.889 . S
C997 C499 1.898 . S
C993 C357 1.842 . S
C1015 C517 1.853 . S
C1011 C401 1.876 . S
C1033 C531 1.848 . S
C1029 C463 1.873 . S
C1051 C583 1.889 . S
C1047 C153 1.875 . S
C1069 C601 1.844 . S
C1065 C233 1.831 . S
C1083 C47 1.832 . S
C1087 C555 1.888 . S
C1105 C569 1.886 . S
C1101 C91 1.870 . S
C1123 C597 1.903 . S
C1119 C419 1.845 . S
C1137 C481 1.848 . S
C1141 C559 1.862 . S
C1159 C573 1.852 . S
C1155 C295 1.836 . S
C1177 C587 1.849 . S
C1173 C339 1.874 . S
