# Generated by pormake.
# Topology tsx, (6,3)-cn, num edge types: 1
# Building blocks:
#     Node 0, Type 0, BuildingBlock: CIFDUS_clean_sbu_1, # of connection points: 6
#     Node 1, Type 0, BuildingBlock: CIFDUS_clean_sbu_1, # of connection points: 6
#     Node 2, Type 1, BuildingBlock: KAKCAD_clean_linker_0, # of connection points: 3
#     Node 3, Type 1, BuildingBlock: KAKCAD_clean_linker_0, # of connection points: 3
#     Node 4, Type 1, BuildingBlock: KAKCAD_clean_linker_0, # of connection points: 3
#     Node 5, Type 1, BuildingBlock: KAKCAD_clean_linker_0, # of connection points: 3
#     Edge 6, Type (0, 1), BuildingBlock: UVAHIK_clean_linker_0, # of connection points: 2
#     Edge 7, Type (0, 1), BuildingBlock: UVAHIK_clean_linker_0, # of connection points: 2
#     Edge 8, Type (0, 1), BuildingBlock: UVAHIK_clean_linker_0, # of connection points: 2
#     Edge 9, Type (0, 1), BuildingBlock: UVAHIK_clean_linker_0, # of connection points: 2
#     Edge 10, Type (0, 1), BuildingBlock: UVAHIK_clean_linker_0, # of connection points: 2
#     Edge 11, Type (0, 1), BuildingBlock: UVAHIK_clean_linker_0, # of connection points: 2
#     Edge 12, Type (0, 1), BuildingBlock: UVAHIK_clean_linker_0, # of connection points: 2
#     Edge 13, Type (0, 1), BuildingBlock: UVAHIK_clean_linker_0, # of connection points: 2
#     Edge 14, Type (0, 1), BuildingBlock: UVAHIK_clean_linker_0, # of connection points: 2
#     Edge 15, Type (0, 1), BuildingBlock: UVAHIK_clean_linker_0, # of connection points: 2
#     Edge 16, Type (0, 1), BuildingBlock: UVAHIK_clean_linker_0, # of connection points: 2
#     Edge 17, Type (0, 1), BuildingBlock: UVAHIK_clean_linker_0, # of connection points: 2
# Relax obj value: 0.127
# Max RMSD: 0.156
# Mean RMSD: 0.118
data_MOF--net-tsx--node1-CIFDUS_clean_sbu_1--node2-KAKCAD_clean_linker_0--edge1-UVAHIK_clean_linker_0
_symmetry_space_group_name_H-M    P1
_symmetry_Int_Tables_number       1
_symmetry_cell_setting            triclinic
loop_
_symmetry_equiv_pos_as_xyz
'x, y, z'
_cell_length_a     26.979542
_cell_length_b     33.781068
_cell_length_c     55.78178
_cell_angle_alpha  97.066318
_cell_angle_beta   92.605126
_cell_angle_gamma 91.444729
loop_
_atom_site_label
_atom_site_type_symbol
_atom_site_fract_x
_atom_site_fract_y
_atom_site_fract_z
_atom_type_partial_charge
O0 O 1.00877 0.0873 0.01524 0.0
Mn1 Mn 0.05007 0.03526 0.00833 0.0
O2 O 0.93187 0.07223 0.99835 0.0
Mn3 Mn 0.9475 0.0255 0.97975 0.0
O4 O 0.09025 0.98287 0.00068 0.0
O5 O 0.11235 0.0684 0.01805 0.0
Mn6 Mn 0.15346 0.04152 0.03489 0.0
O7 O 0.04281 0.02374 0.04409 0.0
O8 O 0.16907 -0.00273 0.01422 0.0
O9 O 0.05786 0.04586 0.97247 0.0
O10 O 0.98315 0.03228 0.95285 0.0
O11 O 0.18516 0.08997 0.03311 0.0
O12 O 0.12006 0.03044 0.06173 0.0
C13 C 0.9566 0.97325 0.99785 0.0
C14 C 0.96305 0.09587 0.01117 0.0
C15 C 0.13629 0.97402 0.0024 0.0
C16 C 0.1455 0.09705 0.02062 0.0
C17 C 0.0736 0.02262 0.06229 0.0
C18 C 0.02916 0.04229 0.9532 0.0
O19 O 0.98826 0.00247 0.99875 0.0
O20 O 0.91735 0.97711 0.98427 0.0
O21 O 0.51363 0.59719 0.51561 0.0
Mn22 Mn 0.55302 0.54392 0.5098 0.0
O23 O 0.43498 0.5824 0.50124 0.0
Mn24 Mn 0.448 0.53381 0.48406 0.0
O25 O 0.59171 0.49054 0.50344 0.0
O26 O 0.61661 0.57683 0.51639 0.0
Mn27 Mn 0.65828 0.55246 0.53438 0.0
O28 O 0.54941 0.53695 0.54658 0.0
O29 O 0.67109 0.50471 0.51631 0.0
O30 O 0.55712 0.54997 0.47306 0.0
O31 O 0.48043 0.53659 0.45569 0.0
O32 O 0.69104 0.59868 0.52891 0.0
O33 O 0.62708 0.5488 0.56293 0.0
C34 C 0.45672 0.48342 0.50364 0.0
C35 C 0.46793 0.60645 0.51236 0.0
C36 C 0.6375 0.48106 0.50548 0.0
C37 C 0.65043 0.60474 0.51684 0.0
C38 C 0.58105 0.54067 0.56478 0.0
C39 C 0.52654 0.54513 0.45448 0.0
O40 O 0.48969 0.51146 0.50307 0.0
O41 O 0.41643 0.48748 0.49083 0.0
C42 C 0.01531 0.94575 0.32251 0.0
C43 C 1.01154 0.97922 0.30989 0.0
C44 C 0.01908 0.95046 0.34786 0.0
C45 C 0.01944 0.98876 0.36104 0.0
C46 C 0.01673 0.02213 0.34827 0.0
C47 C 1.01258 0.01741 0.32308 0.0
C48 C 0.02189 -0.00552 0.38798 0.0
C49 C 0.05342 0.97203 0.40142 0.0
C50 C 0.05797 0.9799 0.42685 0.0
C51 C 0.03021 0.0104 0.43883 0.0
C52 C 0.99834 0.03281 0.42558 0.0
C53 C 0.99389 0.02415 0.40033 0.0
C54 C 0.97092 0.0667 0.43745 0.0
C55 C 0.94054 0.06224 0.45681 0.0
C56 C 0.97237 0.1033 0.42798 0.0
C57 C 0.94266 0.13429 0.43691 0.0
C58 C 0.91072 0.12963 0.45565 0.0
C59 C 0.09348 0.95734 0.44064 0.0
C60 C 0.09421 0.91553 0.43609 0.0
C61 C 0.1281 0.97751 0.45778 0.0
C62 C 0.16346 0.95632 0.46973 0.0
C63 C 0.16434 0.91451 0.46505 0.0
C64 C 0.12902 0.89432 0.44829 0.0
C65 C 0.9104 0.09342 0.46575 0.0
H66 H 1.01459 0.91592 0.31279 0.0
H67 H 0.0208 0.92413 0.35712 0.0
H68 H 0.01827 0.05214 0.35776 0.0
H69 H 1.01104 0.04383 0.31388 0.0
H70 H 0.07607 0.94958 0.39209 0.0
H71 H 0.96839 0.04091 0.39022 0.0
H72 H 0.03398 0.0171 0.45835 0.0
H73 H 0.93872 0.03424 0.46437 0.0
H74 H 0.99577 0.10765 0.41318 0.0
H75 H 0.94345 0.16147 0.42844 0.0
H76 H 0.06784 0.89924 0.42303 0.0
H77 H 0.12862 0.00976 0.4615 0.0
H78 H 0.88648 0.08904 0.48034 0.0
H79 H 0.12907 0.86213 0.44418 0.0
H80 H 0.19011 0.9726 0.48264 0.0
C81 C 0.07011 0.07861 0.69202 0.0
C82 C 0.07479 0.04258 0.70196 0.0
C83 C 0.066 0.07878 0.66704 0.0
C84 C 0.06637 0.04293 0.65134 0.0
C85 C 0.07052 0.00675 0.66119 0.0
C86 C 0.07504 0.0066 0.68631 0.0
C87 C 0.06334 0.04403 0.6248 0.0
C88 C 0.09221 0.07231 0.61484 0.0
C89 C 0.08728 0.07675 0.59015 0.0
C90 C 0.05326 0.05159 0.57512 0.0
C91 C 0.02488 0.02227 0.58475 0.0
C92 C 0.03038 0.01855 0.60957 0.0
C93 C 0.988 -0.00383 0.56934 0.0
C94 C 0.94981 0.01263 0.55611 0.0
C95 C 0.98874 0.95461 0.56921 0.0
C96 C 0.95149 0.92997 0.55652 0.0
C97 C 0.91221 0.94643 0.54404 0.0
C98 C 0.11808 0.10802 0.5807 0.0
C99 C 0.12648 0.14537 0.59463 0.0
C100 C 0.14242 0.10007 0.55895 0.0
C101 C 0.17623 0.12822 0.55196 0.0
C102 C 0.18647 0.16485 0.5666 0.0
C103 C 0.16047 0.17315 0.58784 0.0
C104 C 0.9119 0.98798 0.54377 0.0
H105 H 0.07025 0.10684 0.70358 0.0
H106 H 0.06234 0.1071 0.65998 0.0
H107 H 0.07109 0.97872 0.64949 0.0
H108 H 0.07823 0.97836 0.6935 0.0
H109 H 0.11905 0.09089 0.6265 0.0
H110 H 1.00749 -0.00313 0.61719 0.0
H111 H 0.04864 0.05486 0.55607 0.0
H112 H 0.94827 0.04464 0.55609 0.0
H113 H 0.01781 0.94124 0.57927 0.0
H114 H 0.95243 0.89808 0.55721 0.0
H115 H 0.10765 0.15282 0.61126 0.0
H116 H 0.13679 0.07157 0.54781 0.0
H117 H 0.8821 0.00139 0.53424 0.0
H118 H 0.1675 0.20063 0.59983 0.0
H119 H 0.1948 0.12102 0.53524 0.0
C120 C 0.51967 0.44114 0.82117 0.0
C121 C 0.53027 0.47522 0.80992 0.0
C122 C 0.51863 0.44389 0.84643 0.0
C123 C 0.52724 0.48089 0.86072 0.0
C124 C 0.53782 0.51482 0.8494 0.0
C125 C 0.53949 0.51199 0.82432 0.0
C126 C 0.52405 0.48504 0.88737 0.0
C127 C 0.55143 0.46094 0.90154 0.0
C128 C 0.55216 0.46812 0.92698 0.0
C129 C 0.52387 0.4991 0.93814 0.0
C130 C 0.49584 0.52301 0.92405 0.0
C131 C 0.49599 0.51552 0.89877 0.0
C132 C 0.46785 0.55718 0.93519 0.0
C133 C 0.43401 0.55262 0.95315 0.0
C134 C 0.4724 0.59422 0.92638 0.0
C135 C 0.44244 0.62555 0.93454 0.0
C136 C 0.40716 0.62081 0.95183 0.0
C137 C 0.58523 0.44497 0.94168 0.0
C138 C 0.58657 0.40324 0.93658 0.0
C139 C 0.61782 0.46466 0.95996 0.0
C140 C 0.65202 0.44316 0.9724 0.0
C141 C 0.65382 0.40148 0.96704 0.0
C142 C 0.62026 0.3817 0.94924 0.0
C143 C 0.40367 0.58414 0.96132 0.0
H144 H 0.5127 0.4124 0.81045 0.0
H145 H 0.51023 0.41735 0.85477 0.0
H146 H 0.54494 0.54365 0.86001 0.0
H147 H 0.54737 0.5388 0.81614 0.0
H148 H 0.57427 0.43804 0.89277 0.0
H149 H 0.47429 0.5338 0.8878 0.0
H150 H 0.52454 0.50514 0.95769 0.0
H151 H 0.42973 0.52431 0.96019 0.0
H152 H 0.49851 0.59869 0.91269 0.0
H153 H 0.4458 0.65311 0.92658 0.0
H154 H 0.5618 0.3873 0.92263 0.0
H155 H 0.61793 0.49684 0.96412 0.0
H156 H 0.37716 0.57968 0.97482 0.0
H157 H 0.62104 0.34964 0.94459 0.0
H158 H 0.67725 0.45914 0.98612 0.0
C159 C 0.57078 0.57325 0.19337 0.0
C160 C 0.57872 0.53681 0.20248 0.0
C161 C 0.56322 0.57455 0.1686 0.0
C162 C 0.56302 0.53943 0.15225 0.0
C163 C 0.56969 0.50278 0.16125 0.0
C164 C 0.57765 0.50149 0.18614 0.0
C165 C 0.55722 0.54175 0.12589 0.0
C166 C 0.58459 0.57073 0.11577 0.0
C167 C 0.5779 0.57564 0.0912 0.0
C168 C 0.54331 0.55045 0.07651 0.0
C169 C 0.51632 0.52054 0.08632 0.0
C170 C 0.52374 0.51626 0.11099 0.0
C171 C 0.47934 0.49406 0.07123 0.0
C172 C 0.43984 0.51005 0.05864 0.0
C173 C 0.48146 0.4525 0.07079 0.0
C174 C 0.44428 0.42738 0.05844 0.0
C175 C 0.40372 0.44332 0.0466 0.0
C176 C 0.60811 0.60693 0.08141 0.0
C177 C 0.61819 0.64395 0.09549 0.0
C178 C 0.63059 0.59912 0.05914 0.0
C179 C 0.66432 0.62695 0.05177 0.0
C180 C 0.6765 0.6631 0.06658 0.0
C181 C 0.6522 0.6714 0.08833 0.0
C182 C 0.40203 0.4849 0.04663 0.0
H183 H 0.56995 0.60091 0.20541 0.0
H184 H 0.55725 0.60315 0.1622 0.0
H185 H 0.56997 0.47529 0.14902 0.0
H186 H 0.58392 0.47293 0.19251 0.0
H187 H 0.61195 0.58922 0.12715 0.0
H188 H 0.50212 0.49397 0.11875 0.0
H189 H 0.53737 0.55401 0.05756 0.0
H190 H 0.43726 0.54205 0.05886 0.0
H191 H 0.51156 0.43948 0.08035 0.0
H192 H 0.44632 0.3955 0.0589 0.0
H193 H 0.60079 0.65134 0.11252 0.0
H194 H 0.62368 0.57089 0.04786 0.0
H195 H 0.37124 0.49792 0.03758 0.0
H196 H 0.66069 0.69852 0.10044 0.0
H197 H 0.6814 0.61979 0.03465 0.0
C198 C 0.11362 0.16552 0.02165 0.0
C199 C 0.14174 0.13489 0.0104 0.0
C200 C 0.12453 0.20539 0.01867 0.0
C201 C 0.18876 0.28071 0.02948 0.0
H202 H 0.26124 0.31401 0.97656 0.0
C203 C 0.37187 0.38123 0.02061 0.0
C204 C 0.36219 0.41646 0.03558 0.0
C205 C 0.33354 0.35344 0.01265 0.0
C206 C 0.24076 0.30528 0.99143 0.0
H207 H 0.20079 0.12103 0.98615 0.0
H208 H 0.2203 0.18979 0.98101 0.0
H209 H 0.20855 0.25343 0.96986 0.0
H210 H 0.30458 0.45087 0.05332 0.0
H211 H 0.23753 0.40183 0.03971 0.0
H212 H 0.22197 0.3321 0.05114 0.0
C213 C 0.18908 0.18384 0.99169 0.0
C214 C 0.21064 0.2705 0.98764 0.0
C215 C 0.17792 0.14421 0.99458 0.0
C216 C 0.31304 0.42407 0.04167 0.0
C217 C 0.27476 0.39594 0.034 0.0
C218 C 0.21829 0.31575 0.03315 0.0
C219 C 0.1644 0.21517 0.00474 0.0
C220 C 0.18596 0.25675 0.0069 0.0
C221 C 0.28479 0.36 0.01977 0.0
C222 C 0.24617 0.32753 0.01444 0.0
H223 H 0.08641 0.15901 0.03443 0.0
H224 H 0.10403 0.22861 0.02862 0.0
H225 H 0.17105 0.2711 0.0449 0.0
H226 H 0.40938 0.37472 0.01556 0.0
H227 H 0.34256 0.32586 0.00191 0.0
C228 C 0.20235 0.93147 0.98465 0.0
C229 C 0.15299 0.93487 0.99139 0.0
C230 C 0.22147 0.89428 0.97734 0.0
C231 C 0.2067 0.7892 0.98563 0.0
H232 H 0.30574 0.77756 0.93719 0.0
C233 C 0.32182 0.64594 0.96059 0.0
C234 C 0.37295 0.65371 0.95875 0.0
C235 C 0.28894 0.67743 0.96382 0.0
C236 C 0.27817 0.78036 0.95078 0.0
H237 H 0.08436 0.90201 0.99506 0.0
H238 H 0.11802 0.83625 0.98213 0.0
H239 H 0.25625 0.83709 0.94148 0.0
H240 H 0.4299 0.70065 0.9607 0.0
H241 H 0.37266 0.75524 0.96596 0.0
H242 H 0.22958 0.73239 0.99506 0.0
C243 C 0.14182 0.86267 0.9826 0.0
C244 C 0.24977 0.8144 0.95322 0.0
C245 C 0.12241 0.90024 0.98975 0.0
C246 C 0.39066 0.69357 0.96145 0.0
C247 C 0.35789 0.72486 0.96445 0.0
C248 C 0.23502 0.75483 0.98304 0.0
C249 C 0.19184 0.85933 0.97664 0.0
C250 C 0.21491 0.81991 0.97121 0.0
C251 C 0.30661 0.71715 0.96507 0.0
C252 C 0.27215 0.75078 0.96612 0.0
H253 H 0.22681 0.95763 0.98567 0.0
H254 H 0.26029 0.89288 0.97323 0.0
H255 H 0.18035 0.79265 -0.00024 0.0
H256 H 0.30693 0.61557 0.95844 0.0
H257 H 0.24956 0.6707 0.96431 0.0
C258 C 0.93623 0.94241 0.03398 0.0
C259 C 0.96021 0.93981 0.01214 0.0
C260 C 0.92063 0.90779 0.04319 0.0
C261 C 0.88226 0.8045 0.01822 0.0
H262 H 0.84302 0.80044 0.08388 0.0
C263 C 0.75829 0.67726 0.04847 0.0
C264 C 0.71578 0.69139 0.06015 0.0
C265 C 0.79648 0.70376 0.0439 0.0
C266 C 0.85404 0.80112 0.0655 0.0
H267 H 0.9907 0.89976 0.98374 0.0
H268 H 0.96684 0.83906 0.00061 0.0
H269 H 0.90243 0.85213 0.07556 0.0
H270 H 0.67983 0.74509 0.07524 0.0
H271 H 0.74725 0.79076 0.0681 0.0
H272 H 0.83373 0.75325 0.00836 0.0
C273 C 0.95826 0.86762 0.01032 0.0
C274 C 0.88791 0.83082 0.06066 0.0
C275 C 0.97296 0.90235 0.00088 0.0
C276 C 0.71236 0.7328 0.0668 0.0
C277 C 0.75093 0.75909 0.06268 0.0
C278 C 0.84921 0.77435 0.02317 0.0
C279 C 0.92905 0.86983 0.03074 0.0
C280 C 0.90119 0.83383 0.0368 0.0
C281 C 0.79342 0.74482 0.05132 0.0
C282 C 0.83359 0.77319 0.0467 0.0
H283 H 0.92514 0.97111 0.04265 0.0
H284 H 0.89807 0.91111 0.05882 0.0
H285 H 0.89057 0.80594 -0.00045 0.0
H286 H 0.76281 0.64564 0.04338 0.0
H287 H 0.82892 0.6921 0.03504 0.0
C288 C 0.89596 0.13906 0.02698 0.0
C289 C 0.94493 0.1358 0.01964 0.0
C290 C 0.87275 0.17564 0.02867 0.0
C291 C 0.87758 0.26748 -0.0001 0.0
H292 H 0.76552 0.29313 0.0395 0.0
C293 C 0.67837 0.34289 0.98808 0.0
C294 C 0.69171 0.37868 0.97927 0.0
C295 C 0.7145 0.32003 0.99813 0.0
C296 C 0.79683 0.28644 0.02837 0.0
H297 H 1.00899 0.16864 0.00962 0.0
H298 H 0.96903 0.23326 0.0133 0.0
H299 H 0.82273 0.24245 0.05006 0.0
H300 H 0.75329 0.41888 0.97438 0.0
H301 H 0.81664 0.37859 0.9917 0.0
H302 H 0.85096 0.31098 0.97796 0.0
C303 C 0.94831 0.20733 0.0175 0.0
C304 C 0.82962 0.25738 0.03438 0.0
C305 C 0.97161 0.17049 0.01583 0.0
C306 C 0.74187 0.39156 0.98117 0.0
C307 C 0.77814 0.3684 0.99094 0.0
C308 C 0.84507 0.29686 0.99405 0.0
C309 C 0.89789 0.21 0.02298 0.0
C310 C 0.86941 0.24645 0.01972 0.0
C311 C 0.76488 0.3322 0.99932 0.0
C312 C 0.80342 0.30569 0.00775 0.0
H313 H 0.87446 0.11268 0.02989 0.0
H314 H 0.83387 0.17616 0.03268 0.0
H315 H 0.9073 0.25964 0.98796 0.0
H316 H 0.63997 0.33237 0.98699 0.0
H317 H 0.70316 0.29208 0.00419 0.0
C318 C 0.61776 0.67265 0.51706 0.0
C319 C 0.64559 0.64181 0.50585 0.0
C320 C 0.62883 0.71241 0.5139 0.0
C321 C 0.69388 0.78703 0.52492 0.0
H322 H 0.76877 0.81968 0.4726 0.0
C323 C 0.87986 0.88471 0.51783 0.0
C324 C 0.87046 0.92018 0.53264 0.0
C325 C 0.8411 0.85755 0.50948 0.0
C326 C 0.7476 0.81113 0.48729 0.0
H327 H 0.7041 0.62744 0.48137 0.0
H328 H 0.724 0.69599 0.47597 0.0
H329 H 0.71465 0.75993 0.46538 0.0
H330 H 0.813 0.95566 0.54971 0.0
H331 H 0.74517 0.90767 0.53546 0.0
H332 H 0.72773 0.83781 0.5469 0.0
C333 C 0.69283 0.69033 0.48675 0.0
C334 C 0.71667 0.77682 0.48322 0.0
C335 C 0.68141 0.65078 0.48977 0.0
C336 C 0.82123 0.92865 0.53819 0.0
C337 C 0.78251 0.90115 0.53015 0.0
C338 C 0.72416 0.82164 0.52886 0.0
C339 C 0.66872 0.72189 0.4999 0.0
C340 C 0.69111 0.76324 0.50227 0.0
C341 C 0.79219 0.86498 0.51606 0.0
C342 C 0.75288 0.83314 0.51037 0.0
H343 H 0.59098 0.66646 0.53011 0.0
H344 H 0.60864 0.73578 0.5239 0.0
H345 H 0.67556 0.77757 0.54021 0.0
H346 H 0.91745 0.87754 0.51322 0.0
H347 H 0.84981 0.82977 0.49887 0.0
C348 C 0.62389 0.40659 0.4965 0.0
C349 C 0.6533 0.44116 0.49538 0.0
C350 C 0.64302 0.36873 0.48992 0.0
C351 C 0.74612 0.31846 0.45742 0.0
H352 H 0.73695 0.24156 0.50339 0.0
C353 C 0.89279 0.20215 0.46488 0.0
C354 C 0.87643 0.16205 0.4634 0.0
C355 C 0.8593 0.23285 0.46832 0.0
C356 C 0.73925 0.26255 0.49026 0.0
H357 H 0.72466 0.46348 0.48559 0.0
H358 H 0.75774 0.39822 0.47415 0.0
H359 H 0.68671 0.30131 0.508 0.0
H360 H 0.81232 0.12295 0.46591 0.0
H361 H 0.75374 0.17713 0.47262 0.0
H362 H 0.80021 0.28084 0.44035 0.0
C363 C 0.71996 0.39985 0.47991 0.0
C364 C 0.71035 0.29661 0.49279 0.0
C365 C 0.70113 0.43734 0.48664 0.0
C366 C 0.82618 0.15353 0.46707 0.0
C367 C 0.79259 0.18445 0.47078 0.0
C368 C 0.77517 0.28479 0.45505 0.0
C369 C 0.69158 0.36503 0.48183 0.0
C370 C 0.71472 0.32556 0.47681 0.0
C371 C 0.80869 0.22429 0.47066 0.0
C372 C 0.77315 0.25714 0.47184 0.0
H373 H 0.58724 0.40877 0.50355 0.0
H374 H 0.62023 0.34243 0.49154 0.0
H375 H 0.74954 0.33971 0.44449 0.0
H376 H 0.93142 0.20983 0.46272 0.0
H377 H 0.87288 0.2634 0.46873 0.0
C378 C 0.43293 0.45121 0.5387 0.0
C379 C 0.46085 0.45023 0.51811 0.0
C380 C 0.41926 0.41586 0.54758 0.0
C381 C 0.39245 0.31115 0.5224 0.0
H382 H 0.34648 0.30551 0.58677 0.0
C383 C 0.26945 0.1805 0.55004 0.0
C384 C 0.22537 0.19379 0.56058 0.0
C385 C 0.30735 0.20778 0.54615 0.0
C386 C 0.35946 0.30659 0.56875 0.0
H387 H 0.49886 0.41233 0.4913 0.0
H388 H 0.47757 0.35036 0.50753 0.0
H389 H 0.40392 0.3595 0.5799 0.0
H390 H 0.18617 0.24674 0.57414 0.0
H391 H 0.25291 0.29378 0.5682 0.0
H392 H 0.34751 0.25814 0.51142 0.0
C393 C 0.4653 0.37827 0.51669 0.0
C394 C 0.39221 0.33756 0.56475 0.0
C395 C 0.47852 0.41378 0.50767 0.0
C396 C 0.21994 0.23512 0.56663 0.0
C397 C 0.25812 0.26219 0.56319 0.0
C398 C 0.36042 0.27975 0.52653 0.0
C399 C 0.43307 0.37867 0.5359 0.0
C400 C 0.40761 0.34123 0.54132 0.0
C401 C 0.3023 0.24879 0.55312 0.0
C402 C 0.34225 0.27806 0.54954 0.0
H403 H 0.41779 0.47899 0.54659 0.0
H404 H 0.39406 0.41772 0.5622 0.0
H405 H 0.4027 0.31302 0.50403 0.0
H406 H 0.2754 0.14897 0.54541 0.0
H407 H 0.34109 0.19679 0.53826 0.0
C408 C 0.40422 0.65288 0.52841 0.0
C409 C 0.45184 0.64743 0.51966 0.0
C410 C 0.38226 0.68994 0.52928 0.0
C411 C 0.38613 0.77782 0.49658 0.0
H412 H 0.28015 0.81064 0.53864 0.0
C413 C 0.18928 0.85737 0.48725 0.0
C414 C 0.20268 0.89187 0.47705 0.0
C415 C 0.2256 0.83457 0.49719 0.0
C416 C 0.30979 0.80194 0.52681 0.0
H417 H 0.51474 0.67687 0.50598 0.0
H418 H 0.47736 0.74239 0.50839 0.0
H419 H 0.33667 0.7597 0.5495 0.0
H420 H 0.26453 0.92989 0.46956 0.0
H421 H 0.32825 0.88955 0.48662 0.0
H422 H 0.35854 0.81968 0.47372 0.0
C423 C 0.45664 0.71783 0.51435 0.0
C424 C 0.34216 0.7727 0.53298 0.0
C425 C 0.47861 0.68051 0.51344 0.0
C426 C 0.25314 0.90355 0.47743 0.0
C427 C 0.28957 0.88039 0.48706 0.0
C428 C 0.35411 0.80741 0.49057 0.0
C429 C 0.40736 0.72258 0.52135 0.0
C430 C 0.37966 0.75917 0.5175 0.0
C431 C 0.27618 0.84547 0.49686 0.0
C432 C 0.3146 0.81881 0.50521 0.0
H433 H 0.38261 0.62774 0.53313 0.0
H434 H 0.34417 0.69202 0.5345 0.0
H435 H 0.414 0.76795 0.484 0.0
H436 H 0.15066 0.84782 0.48734 0.0
H437 H 0.21416 0.80759 0.50437 0.0
C438 C 0.08617 0.98429 0.097 0.0
C439 C 0.0563 0.00962 0.08485 0.0
C440 C 0.07458 0.97514 0.11978 0.0
C441 C 0.9785 0.98208 0.16588 0.0
H442 H 0.09476 0.98243 0.20949 0.0
C443 C 0.97507 -0.00197 0.27081 0.0
C444 C 1.00811 0.97493 0.28304 0.0
C445 C 0.9755 -0.00266 0.24571 0.0
C446 C 0.06193 0.98163 0.19749 0.0
H447 H 0.98935 0.04358 0.08628 0.0
H448 H 0.96979 0.0289 0.12694 0.0
H449 H 0.1049 0.99113 0.16751 0.0
H450 H 0.06608 0.93179 0.27844 0.0
H451 H 0.06686 0.93056 0.23456 0.0
H452 H 0.93566 0.97404 0.19656 0.0
C453 C 1.00181 0.01551 0.11859 0.0
C454 C 0.06767 0.98654 0.17333 0.0
C455 C 1.01299 0.02406 0.09539 0.0
C456 C 0.0401 0.94981 0.26952 0.0
C457 C 0.0408 0.94936 0.24445 0.0
C458 C 0.97273 0.97753 0.19026 0.0
C459 C 0.03343 0.99186 0.13135 0.0
C460 C 0.02615 0.98657 0.15711 0.0
C461 C 1.00926 0.97376 0.23234 0.0
C462 C 1.01448 0.97708 0.20627 0.0
H463 H 0.11924 0.97207 0.08901 0.0
H464 H 0.09879 0.95567 0.12859 0.0
H465 H 0.94573 0.9817 0.1539 0.0
H466 H 0.94957 0.01732 0.28074 0.0
H467 H 0.95094 0.01659 0.23692 0.0
C468 C 0.01965 0.06884 0.9138 0.0
C469 C 0.04927 0.04991 0.93003 0.0
C470 C 0.03485 0.072 0.89057 0.0
C471 C 0.10117 0.01863 0.84322 0.0
H472 H 0.08416 0.1145 0.81237 0.0
C473 C 0.11487 0.02051 0.73954 0.0
C474 C 0.07914 0.04304 0.72862 0.0
C475 C 0.12032 0.02291 0.76478 0.0
C476 C 0.08886 0.0874 0.82066 0.0
H477 H 0.11859 0.02035 0.93508 0.0
H478 H 0.14481 0.02487 0.89375 0.0
H479 H 0.07981 0.11782 0.85613 0.0
H480 H 0.01987 0.08444 0.73552 0.0
H481 H 0.02864 0.0881 0.77928 0.0
H482 H 0.10747 0.9877 0.80764 0.0
C483 C 0.11011 0.03768 0.8993 0.0
C484 C 0.08678 0.08942 0.84573 0.0
C485 C 0.09532 0.0353 0.92288 0.0
C486 C 0.04835 0.06729 0.7434 0.0
C487 C 0.05361 0.06955 0.76852 0.0
C488 C 0.1028 0.0165 0.81804 0.0
C489 C 0.0796 0.05565 0.88288 0.0
C490 C 0.09148 0.05487 0.85717 0.0
C491 C 0.09001 0.04777 0.77957 0.0
C492 C 0.09508 0.05066 0.80641 0.0
H493 H 0.98403 0.08042 0.91892 0.0
H494 H 1.01038 0.08565 0.87823 0.0
H495 H 0.10446 0.99147 0.8516 0.0
H496 H 0.13939 0.00181 0.72858 0.0
H497 H 0.14885 0.00587 0.77269 0.0
C498 C 0.52228 0.5104 0.59203 0.0
C499 C 0.5654 0.53324 0.58901 0.0
C500 C 0.51252 0.49897 0.61478 0.0
C501 C 0.58072 0.48111 0.67066 0.0
H502 H 0.45666 0.49463 0.7027 0.0
C503 C 0.57182 0.49166 0.77314 0.0
C504 C 0.53212 0.47304 0.78326 0.0
C505 C 0.5724 0.49249 0.74824 0.0
C506 C 0.49125 0.48998 0.69379 0.0
H507 H 0.62996 0.56441 0.60789 0.0
H508 H 0.61286 0.54483 0.64709 0.0
H509 H 0.46195 0.50968 0.66092 0.0
H510 H 0.46214 0.44016 0.77524 0.0
H511 H 0.46306 0.4417 0.73134 0.0
H512 H 0.61059 0.46246 0.70345 0.0
C513 C 0.58724 0.53484 0.6319 0.0
C514 C 0.49424 0.49864 0.66993 0.0
C515 C 0.59687 0.54621 0.6094 0.0
C516 C 0.49335 0.4545 0.76786 0.0
C517 C 0.49367 0.45567 0.74282 0.0
C518 C 0.57774 0.47246 0.69435 0.0
C519 C 0.54586 0.51017 0.63474 0.0
C520 C 0.53954 0.49555 0.65847 0.0
C521 C 0.53317 0.47487 0.73279 0.0
C522 C 0.53349 0.47803 0.70647 0.0
H523 H 0.49735 0.49996 0.57668 0.0
H524 H 0.48016 0.48011 0.61654 0.0
H525 H 0.61582 0.47757 0.66207 0.0
H526 H 0.60233 0.50598 0.78457 0.0
H527 H 0.60308 0.50794 0.74113 0.0
C528 C 0.59226 0.53728 0.42389 0.0
C529 C 0.54468 0.54936 0.43033 0.0
C530 C 0.60662 0.53762 0.40007 0.0
C531 C 0.57984 0.58246 0.34453 0.0
H532 H 0.61555 0.48152 0.30959 0.0
C533 C 0.61559 0.56691 0.24302 0.0
C534 C 0.58746 0.53606 0.22896 0.0
C535 C 0.62017 0.56839 0.26815 0.0
C536 C 0.60597 0.50994 0.31918 0.0
H537 H 0.47586 0.57303 0.4174 0.0
H538 H 0.50142 0.57468 0.37621 0.0
H539 H 0.60646 0.48706 0.35343 0.0
H540 H 0.54378 0.48166 0.23041 0.0
H541 H 0.55249 0.48398 0.27431 0.0
H542 H 0.5779 0.60516 0.31036 0.0
C543 C 0.52736 0.56451 0.38937 0.0
C544 C 0.60123 0.51319 0.34423 0.0
C545 C 0.51266 0.56336 0.4129 0.0
C546 C 0.56605 0.50565 0.2406 0.0
C547 C 0.57102 0.50696 0.26577 0.0
C548 C 0.58526 0.57938 0.31961 0.0
C549 C 0.57407 0.55104 0.38261 0.0
C550 C 0.5869 0.54922 0.35699 0.0
C551 C 0.59722 0.53882 0.27981 0.0
C552 C 0.59724 0.54286 0.30659 0.0
H553 H 0.61752 0.52617 0.43699 0.0
H554 H 0.64288 0.52713 0.39523 0.0
H555 H 0.56881 0.61056 0.35399 0.0
H556 H 0.63366 0.59029 0.23462 0.0
H557 H 0.64114 0.59299 0.27851 0.0
loop_
_geom_bond_atom_site_label_1
_geom_bond_atom_site_label_2
_geom_bond_distance
_geom_bond_site_symmetry_2
_ccdc_geom_bond_type
O0 Mn1 2.163 . S
O0 C14 1.244 1_455 S
Mn1 O0 2.163 . S
Mn1 O4 2.160 1_545 S
Mn1 O5 2.221 . S
Mn1 O7 2.163 . S
Mn1 O9 2.160 1_554 S
Mn1 O19 2.221 1_444 S
O2 Mn3 2.087 . S
O2 C14 1.256 1_556 S
Mn3 O2 2.087 . S
Mn3 O10 2.089 . S
Mn3 O19 2.290 1_545 S
Mn3 O20 2.251 1_546 S
O4 Mn1 2.160 1_565 S
O4 C15 1.237 . S
O5 Mn1 2.221 . S
O5 Mn6 2.290 . S
O5 C16 1.278 . S
Mn6 O5 2.290 . S
Mn6 O8 2.089 1_545 S
Mn6 O11 2.251 . S
Mn6 O12 2.087 . S
O7 Mn1 2.163 . S
O7 C17 1.244 . S
O8 Mn6 2.089 1_565 S
O8 C15 1.256 . S
O9 Mn1 2.160 1_556 S
O9 C18 1.239 . S
O10 Mn3 2.089 . S
O10 C18 1.256 1_655 S
O11 Mn6 2.251 . S
O11 C16 1.241 . S
O12 Mn6 2.087 . S
O12 C17 1.256 . S
C13 O19 1.278 1_554 S
C13 O20 1.241 . S
C14 O0 1.244 1_655 S
C14 O2 1.256 1_554 S
C15 O4 1.237 . S
C15 O8 1.256 . S
C16 O5 1.278 . S
C16 O11 1.241 . S
C17 O7 1.244 . S
C17 O12 1.256 . S
C18 O9 1.239 . S
C18 O10 1.256 1_455 S
O19 Mn1 2.221 1_666 S
O19 Mn3 2.290 1_565 S
O19 C13 1.278 1_556 S
O20 Mn3 2.251 1_564 S
O20 C13 1.241 . S
O21 Mn22 2.163 . S
O21 C35 1.244 . S
Mn22 O21 2.163 . S
Mn22 O25 2.160 . S
Mn22 O26 2.221 . S
Mn22 O28 2.163 . S
Mn22 O30 2.160 . S
Mn22 O40 2.221 . S
O23 Mn24 2.087 . S
O23 C35 1.256 . S
Mn24 O23 2.087 . S
Mn24 O31 2.089 . S
Mn24 O40 2.290 . S
Mn24 O41 2.251 . S
O25 Mn22 2.160 . S
O25 C36 1.239 . S
O26 Mn22 2.221 . S
O26 Mn27 2.290 . S
O26 C37 1.278 . S
Mn27 O26 2.290 . S
Mn27 O29 2.089 . S
Mn27 O32 2.251 . S
Mn27 O33 2.087 . S
O28 Mn22 2.163 . S
O28 C38 1.244 . S
O29 Mn27 2.089 . S
O29 C36 1.256 . S
O30 Mn22 2.160 . S
O30 C39 1.239 . S
O31 Mn24 2.089 . S
O31 C39 1.256 . S
O32 Mn27 2.251 . S
O32 C37 1.241 . S
O33 Mn27 2.087 . S
O33 C38 1.256 . S
C34 O40 1.278 . S
C34 O41 1.241 . S
C35 O21 1.244 . S
C35 O23 1.256 . S
C36 O25 1.239 . S
C36 O29 1.256 . S
C37 O26 1.278 . S
C37 O32 1.241 . S
C38 O28 1.244 . S
C38 O33 1.256 . S
C39 O30 1.239 . S
C39 O31 1.256 . S
O40 Mn22 2.221 . S
O40 Mn24 2.290 . S
O40 C34 1.278 . S
O41 Mn24 2.251 . S
O41 C34 1.241 . S
C42 C43 1.386 . S
C42 C44 1.397 . S
C42 H66 0.931 . S
C43 C42 1.386 . S
C43 C47 1.397 1_565 S
C44 C42 1.397 . S
C44 C45 1.405 . S
C44 H67 0.930 . S
C45 C44 1.405 . S
C45 C46 1.353 1_565 S
C45 C48 1.484 1_565 S
C46 C45 1.353 1_545 S
C46 C47 1.389 . S
C46 H68 0.929 . S
C47 C43 1.397 1_545 S
C47 C46 1.389 . S
C47 H69 0.931 . S
C48 C45 1.484 1_545 S
C48 C49 1.381 1_545 S
C48 C53 1.395 . S
C49 C48 1.381 1_565 S
C49 C50 1.401 . S
C49 H70 0.930 . S
C50 C49 1.401 . S
C50 C51 1.376 1_565 S
C50 C59 1.511 . S
C51 C50 1.376 1_545 S
C51 C52 1.392 . S
C51 H72 0.931 . S
C52 C51 1.392 . S
C52 C53 1.361 . S
C52 C54 1.500 1_455 S
C53 C48 1.395 . S
C53 C52 1.361 . S
C53 H71 0.931 1_455 S
C54 C52 1.500 1_655 S
C54 C55 1.371 . S
C54 C56 1.365 . S
C55 C54 1.371 . S
C55 C65 1.386 . S
C55 H73 0.931 . S
C56 C54 1.365 . S
C56 C57 1.409 . S
C56 H74 0.929 . S
C57 C56 1.409 . S
C57 C58 1.380 . S
C57 H75 0.930 . S
C58 C57 1.380 . S
C58 C65 1.357 . S
C59 C50 1.511 . S
C59 C60 1.341 . S
C59 C61 1.371 . S
C60 C59 1.341 . S
C60 C64 1.394 . S
C60 H76 0.930 . S
C61 C59 1.371 . S
C61 C62 1.392 . S
C61 H77 0.931 . S
C62 C61 1.392 . S
C62 C63 1.331 . S
C62 H80 0.932 . S
C63 C62 1.331 . S
C63 C64 1.336 . S
C64 C60 1.394 . S
C64 C63 1.336 . S
C64 H79 0.929 . S
C65 C55 1.386 . S
C65 C58 1.357 . S
C65 H78 0.928 . S
H66 C42 0.931 . S
H67 C44 0.930 . S
H68 C46 0.929 . S
H69 C47 0.931 . S
H70 C49 0.930 . S
H71 C53 0.931 1_655 S
H72 C51 0.931 . S
H73 C55 0.931 . S
H74 C56 0.929 . S
H75 C57 0.930 . S
H76 C60 0.930 . S
H77 C61 0.931 . S
H78 C65 0.928 . S
H79 C64 0.929 . S
H80 C62 0.932 . S
C81 C82 1.386 . S
C81 C83 1.397 . S
C81 H105 0.931 . S
C82 C81 1.386 . S
C82 C86 1.397 . S
C83 C81 1.397 . S
C83 C84 1.384 . S
C83 H106 0.930 . S
C84 C83 1.384 . S
C84 C85 1.377 . S
C84 C87 1.481 . S
C85 C84 1.377 . S
C85 C86 1.389 . S
C85 H107 0.929 . S
C86 C82 1.397 . S
C86 C85 1.389 . S
C86 H108 0.931 . S
C87 C84 1.481 . S
C87 C88 1.387 . S
C87 C92 1.390 1_455 S
C88 C87 1.387 . S
C88 C89 1.401 . S
C88 H109 0.930 . S
C89 C88 1.401 . S
C89 C90 1.376 1_455 S
C89 C98 1.511 . S
C90 C89 1.376 1_655 S
C90 C91 1.392 . S
C90 H111 0.931 . S
C91 C90 1.392 . S
C91 C92 1.361 . S
C91 C93 1.500 . S
C92 C87 1.390 1_655 S
C92 C91 1.361 . S
C92 H110 0.931 . S
C93 C91 1.500 . S
C93 C94 1.371 . S
C93 C95 1.365 1_545 S
C94 C93 1.371 . S
C94 C104 1.386 1_545 S
C94 H112 0.931 . S
C95 C93 1.365 1_565 S
C95 C96 1.409 . S
C95 H113 0.929 . S
C96 C95 1.409 . S
C96 C97 1.380 . S
C96 H114 0.930 . S
C97 C96 1.380 . S
C97 C104 1.357 . S
C98 C89 1.511 . S
C98 C99 1.341 . S
C98 C100 1.371 . S
C99 C98 1.341 . S
C99 C103 1.394 . S
C99 H115 0.930 . S
C100 C98 1.371 . S
C100 C101 1.392 . S
C100 H116 0.931 . S
C101 C100 1.392 . S
C101 C102 1.331 . S
C101 H119 0.932 . S
C102 C101 1.331 . S
C102 C103 1.336 . S
C103 C99 1.394 . S
C103 C102 1.336 . S
C103 H118 0.929 . S
C104 C94 1.386 1_565 S
C104 C97 1.357 . S
C104 H117 0.928 1_565 S
H105 C81 0.931 . S
H106 C83 0.930 . S
H107 C85 0.929 . S
H108 C86 0.931 . S
H109 C88 0.930 . S
H110 C92 0.931 . S
H111 C90 0.931 . S
H112 C94 0.931 . S
H113 C95 0.929 . S
H114 C96 0.930 . S
H115 C99 0.930 . S
H116 C100 0.931 . S
H117 C104 0.928 1_545 S
H118 C103 0.929 . S
H119 C101 0.932 . S
C120 C121 1.386 . S
C120 C122 1.397 . S
C120 H144 0.931 . S
C121 C120 1.386 . S
C121 C125 1.397 . S
C122 C120 1.397 . S
C122 C123 1.384 . S
C122 H145 0.930 . S
C123 C122 1.384 . S
C123 C124 1.377 . S
C123 C126 1.481 . S
C124 C123 1.377 . S
C124 C125 1.389 . S
C124 H146 0.929 . S
C125 C121 1.397 . S
C125 C124 1.389 . S
C125 H147 0.931 . S
C126 C123 1.481 . S
C126 C127 1.387 . S
C126 C131 1.390 . S
C127 C126 1.387 . S
C127 C128 1.401 . S
C127 H148 0.930 . S
C128 C127 1.401 . S
C128 C129 1.376 . S
C128 C137 1.511 . S
C129 C128 1.376 . S
C129 C130 1.392 . S
C129 H150 0.931 . S
C130 C129 1.392 . S
C130 C131 1.361 . S
C130 C132 1.500 . S
C131 C126 1.390 . S
C131 C130 1.361 . S
C131 H149 0.931 . S
C132 C130 1.500 . S
C132 C133 1.371 . S
C132 C134 1.365 . S
C133 C132 1.371 . S
C133 C143 1.386 . S
C133 H151 0.931 . S
C134 C132 1.365 . S
C134 C135 1.409 . S
C134 H152 0.929 . S
C135 C134 1.409 . S
C135 C136 1.380 . S
C135 H153 0.930 . S
C136 C135 1.380 . S
C136 C143 1.357 . S
C137 C128 1.511 . S
C137 C138 1.341 . S
C137 C139 1.371 . S
C138 C137 1.341 . S
C138 C142 1.394 . S
C138 H154 0.930 . S
C139 C137 1.371 . S
C139 C140 1.392 . S
C139 H155 0.931 . S
C140 C139 1.392 . S
C140 C141 1.331 . S
C140 H158 0.932 . S
C141 C140 1.331 . S
C141 C142 1.336 . S
C142 C138 1.394 . S
C142 C141 1.336 . S
C142 H157 0.929 . S
C143 C133 1.386 . S
C143 C136 1.357 . S
C143 H156 0.928 . S
H144 C120 0.931 . S
H145 C122 0.930 . S
H146 C124 0.929 . S
H147 C125 0.931 . S
H148 C127 0.930 . S
H149 C131 0.931 . S
H150 C129 0.931 . S
H151 C133 0.931 . S
H152 C134 0.929 . S
H153 C135 0.930 . S
H154 C138 0.930 . S
H155 C139 0.931 . S
H156 C143 0.928 . S
H157 C142 0.929 . S
H158 C140 0.932 . S
C159 C160 1.386 . S
C159 C161 1.397 . S
C159 H183 0.931 . S
C160 C159 1.386 . S
C160 C164 1.397 . S
C161 C159 1.397 . S
C161 C162 1.384 . S
C161 H184 0.930 . S
C162 C161 1.384 . S
C162 C163 1.377 . S
C162 C165 1.481 . S
C163 C162 1.377 . S
C163 C164 1.389 . S
C163 H185 0.929 . S
C164 C160 1.397 . S
C164 C163 1.389 . S
C164 H186 0.931 . S
C165 C162 1.481 . S
C165 C166 1.387 . S
C165 C170 1.390 . S
C166 C165 1.387 . S
C166 C167 1.401 . S
C166 H187 0.930 . S
C167 C166 1.401 . S
C167 C168 1.376 . S
C167 C176 1.511 . S
C168 C167 1.376 . S
C168 C169 1.392 . S
C168 H189 0.931 . S
C169 C168 1.392 . S
C169 C170 1.361 . S
C169 C171 1.500 . S
C170 C165 1.390 . S
C170 C169 1.361 . S
C170 H188 0.931 . S
C171 C169 1.500 . S
C171 C172 1.371 . S
C171 C173 1.365 . S
C172 C171 1.371 . S
C172 C182 1.386 . S
C172 H190 0.931 . S
C173 C171 1.365 . S
C173 C174 1.409 . S
C173 H191 0.929 . S
C174 C173 1.409 . S
C174 C175 1.380 . S
C174 H192 0.930 . S
C175 C174 1.380 . S
C175 C182 1.357 . S
C176 C167 1.511 . S
C176 C177 1.341 . S
C176 C178 1.371 . S
C177 C176 1.341 . S
C177 C181 1.394 . S
C177 H193 0.930 . S
C178 C176 1.371 . S
C178 C179 1.392 . S
C178 H194 0.931 . S
C179 C178 1.392 . S
C179 C180 1.331 . S
C179 H197 0.932 . S
C180 C179 1.331 . S
C180 C181 1.336 . S
C181 C177 1.394 . S
C181 C180 1.336 . S
C181 H196 0.929 . S
C182 C172 1.386 . S
C182 C175 1.357 . S
C182 H195 0.928 . S
H183 C159 0.931 . S
H184 C161 0.930 . S
H185 C163 0.929 . S
H186 C164 0.931 . S
H187 C166 0.930 . S
H188 C170 0.931 . S
H189 C168 0.931 . S
H190 C172 0.931 . S
H191 C173 0.929 . S
H192 C174 0.930 . S
H193 C177 0.930 . S
H194 C178 0.931 . S
H195 C182 0.928 . S
H196 C181 0.929 . S
H197 C179 0.932 . S
C198 C199 1.349 1_556 S
C198 C200 1.327 1_556 S
C198 H223 0.950 . S
C199 C198 1.349 1_554 S
C199 C215 1.349 . S
C200 C198 1.327 1_554 S
C200 C219 1.425 . S
C200 H224 0.953 1_554 S
C201 C218 1.574 . S
C201 C220 1.368 . S
C201 H225 0.949 . S
H202 C206 0.938 1_556 S
C203 C204 1.349 . S
C203 C205 1.327 . S
C203 H226 0.950 . S
C204 C203 1.349 . S
C204 C216 1.349 . S
C205 C203 1.327 . S
C205 C221 1.429 . S
C205 H227 0.950 . S
C206 H202 0.938 1_554 S
C206 C214 1.574 . S
C206 C222 1.368 . S
H207 C215 0.950 . S
H208 C213 0.950 . S
H209 C214 0.949 1_556 S
H210 C216 0.950 . S
H211 C217 0.950 . S
H212 C218 0.949 . S
C213 H208 0.950 . S
C213 C215 1.327 . S
C213 C219 1.429 . S
C214 C206 1.574 . S
C214 H209 0.949 1_554 S
C214 C220 1.368 . S
C215 C199 1.349 . S
C215 H207 0.950 . S
C215 C213 1.327 . S
C216 C204 1.349 . S
C216 H210 0.950 . S
C216 C217 1.327 . S
C217 H211 0.950 . S
C217 C216 1.327 . S
C217 C221 1.429 . S
C218 C201 1.574 . S
C218 H212 0.949 . S
C218 C222 1.368 . S
C219 C200 1.425 . S
C219 C213 1.429 . S
C219 C220 1.523 . S
C220 C201 1.368 . S
C220 C214 1.368 . S
C220 C219 1.523 . S
C221 C205 1.429 . S
C221 C217 1.429 . S
C221 C222 1.523 . S
C222 C206 1.368 . S
C222 C218 1.368 . S
C222 C221 1.523 . S
H223 C198 0.950 . S
H224 C200 0.953 1_556 S
H225 C201 0.949 . S
H226 C203 0.950 . S
H227 C205 0.950 . S
C228 C229 1.349 1_556 S
C228 C230 1.327 . S
C228 H253 0.950 . S
C229 C228 1.349 1_554 S
C229 C245 1.349 . S
C230 C228 1.327 . S
C230 C249 1.462 . S
C230 H254 0.950 . S
C231 C248 1.574 . S
C231 C250 1.368 1_554 S
C231 H255 0.949 . S
H232 C236 0.949 . S
C233 C234 1.349 . S
C233 C235 1.327 1_556 S
C233 H256 0.950 1_556 S
C234 C233 1.349 . S
C234 C246 1.349 . S
C235 C233 1.327 1_554 S
C235 C251 1.421 1_554 S
C235 H257 0.958 . S
C236 H232 0.949 . S
C236 C244 1.574 . S
C236 C252 1.368 . S
H237 C245 0.950 . S
H238 C243 0.950 . S
H239 C244 0.949 . S
H240 C246 0.950 . S
H241 C247 0.950 . S
H242 C248 0.949 . S
C243 H238 0.950 . S
C243 C245 1.327 . S
C243 C249 1.394 1_554 S
C244 C236 1.574 . S
C244 H239 0.949 . S
C244 C250 1.368 . S
C245 C229 1.349 . S
C245 H237 0.950 . S
C245 C243 1.327 . S
C246 C234 1.349 . S
C246 H240 0.950 . S
C246 C247 1.327 . S
C247 H241 0.950 . S
C247 C246 1.327 . S
C247 C251 1.429 . S
C248 C231 1.574 . S
C248 H242 0.949 . S
C248 C252 1.368 1_554 S
C249 C230 1.462 . S
C249 C243 1.394 1_556 S
C249 C250 1.525 . S
C250 C231 1.368 1_556 S
C250 C244 1.368 . S
C250 C249 1.525 . S
C251 C235 1.421 1_556 S
C251 C247 1.429 . S
C251 C252 1.523 . S
C252 C236 1.368 . S
C252 C248 1.368 1_556 S
C252 C251 1.523 . S
H253 C228 0.950 . S
H254 C230 0.950 . S
H255 C231 0.949 . S
H256 C233 0.950 1_554 S
H257 C235 0.958 . S
C258 C259 1.349 . S
C258 C260 1.327 . S
C258 H283 0.950 . S
C259 C258 1.349 . S
C259 C275 1.349 . S
C260 C258 1.327 . S
C260 C279 1.429 . S
C260 H284 0.950 . S
C261 C278 1.574 . S
C261 C280 1.368 . S
C261 H285 0.949 . S
H262 C266 0.949 . S
C263 C264 1.349 . S
C263 C265 1.327 . S
C263 H286 0.950 . S
C264 C263 1.349 . S
C264 C276 1.349 . S
C265 C263 1.327 . S
C265 C281 1.429 . S
C265 H287 0.950 . S
C266 H262 0.949 . S
C266 C274 1.574 . S
C266 C282 1.368 . S
H267 C275 0.950 1_556 S
H268 C273 0.950 1_556 S
H269 C274 0.949 . S
H270 C276 0.950 . S
H271 C277 0.950 . S
H272 C278 0.949 . S
C273 H268 0.950 1_554 S
C273 C275 1.327 . S
C273 C279 1.429 . S
C274 C266 1.574 . S
C274 H269 0.949 . S
C274 C280 1.368 . S
C275 C259 1.349 . S
C275 H267 0.950 1_554 S
C275 C273 1.327 . S
C276 C264 1.349 . S
C276 H270 0.950 . S
C276 C277 1.327 . S
C277 H271 0.950 . S
C277 C276 1.327 . S
C277 C281 1.429 . S
C278 C261 1.574 . S
C278 H272 0.949 . S
C278 C282 1.368 . S
C279 C260 1.429 . S
C279 C273 1.429 . S
C279 C280 1.523 . S
C280 C261 1.368 . S
C280 C274 1.368 . S
C280 C279 1.523 . S
C281 C265 1.429 . S
C281 C277 1.429 . S
C281 C282 1.523 . S
C282 C266 1.368 . S
C282 C278 1.368 . S
C282 C281 1.523 . S
H283 C258 0.950 . S
H284 C260 0.950 . S
H285 C261 0.949 . S
H286 C263 0.950 . S
H287 C265 0.950 . S
C288 C289 1.349 . S
C288 C290 1.327 . S
C288 H313 0.950 . S
C289 C288 1.349 . S
C289 C305 1.349 1_554 S
C290 C288 1.327 . S
C290 C309 1.429 1_554 S
C290 H314 0.950 . S
C291 C308 1.574 . S
C291 C310 1.368 . S
C291 H315 0.949 . S
H292 C296 0.949 . S
C293 C294 1.349 . S
C293 C295 1.327 . S
C293 H316 0.950 . S
C294 C293 1.349 . S
C294 C306 1.349 . S
C295 C293 1.327 . S
C295 C311 1.429 . S
C295 H317 0.950 . S
C296 H292 0.949 . S
C296 C304 1.574 . S
C296 C312 1.368 1_554 S
H297 C305 0.950 . S
H298 C303 0.950 . S
H299 C304 0.949 . S
H300 C306 0.950 1_554 S
H301 C307 0.950 1_554 S
H302 C308 0.949 . S
C303 H298 0.950 . S
C303 C305 1.327 . S
C303 C309 1.429 . S
C304 C296 1.574 . S
C304 H299 0.949 . S
C304 C310 1.368 1_554 S
C305 C289 1.349 1_556 S
C305 H297 0.950 . S
C305 C303 1.327 . S
C306 C294 1.349 . S
C306 H300 0.950 1_556 S
C306 C307 1.327 . S
C307 H301 0.950 1_556 S
C307 C306 1.327 . S
C307 C311 1.429 . S
C308 C291 1.574 . S
C308 H302 0.949 . S
C308 C312 1.368 . S
C309 C290 1.429 1_556 S
C309 C303 1.429 . S
C309 C310 1.523 . S
C310 C291 1.368 . S
C310 C304 1.368 1_556 S
C310 C309 1.523 . S
C311 C295 1.429 . S
C311 C307 1.429 . S
C311 C312 1.523 . S
C312 C296 1.368 1_556 S
C312 C308 1.368 . S
C312 C311 1.523 . S
H313 C288 0.950 . S
H314 C290 0.950 . S
H315 C291 0.949 . S
H316 C293 0.950 . S
H317 C295 0.950 . S
C318 C319 1.349 . S
C318 C320 1.327 . S
C318 H343 0.950 . S
C319 C318 1.349 . S
C319 C335 1.349 . S
C320 C318 1.327 . S
C320 C339 1.429 . S
C320 H344 0.950 . S
C321 C338 1.574 . S
C321 C340 1.368 . S
C321 H345 0.949 . S
H322 C326 0.949 . S
C323 C324 1.349 . S
C323 C325 1.327 . S
C323 H346 0.950 . S
C324 C323 1.349 . S
C324 C336 1.349 . S
C325 C323 1.327 . S
C325 C341 1.429 . S
C325 H347 0.950 . S
C326 H322 0.949 . S
C326 C334 1.574 . S
C326 C342 1.368 . S
H327 C335 0.950 . S
H328 C333 0.950 . S
H329 C334 0.949 . S
H330 C336 0.950 . S
H331 C337 0.950 . S
H332 C338 0.949 . S
C333 H328 0.950 . S
C333 C335 1.327 . S
C333 C339 1.429 . S
C334 C326 1.574 . S
C334 H329 0.949 . S
C334 C340 1.368 . S
C335 C319 1.349 . S
C335 H327 0.950 . S
C335 C333 1.327 . S
C336 C324 1.349 . S
C336 H330 0.950 . S
C336 C337 1.327 . S
C337 H331 0.950 . S
C337 C336 1.327 . S
C337 C341 1.429 . S
C338 C321 1.574 . S
C338 H332 0.949 . S
C338 C342 1.368 . S
C339 C320 1.429 . S
C339 C333 1.429 . S
C339 C340 1.523 . S
C340 C321 1.368 . S
C340 C334 1.368 . S
C340 C339 1.523 . S
C341 C325 1.429 . S
C341 C337 1.429 . S
C341 C342 1.523 . S
C342 C326 1.368 . S
C342 C338 1.368 . S
C342 C341 1.523 . S
H343 C318 0.950 . S
H344 C320 0.950 . S
H345 C321 0.949 . S
H346 C323 0.950 . S
H347 C325 0.950 . S
C348 C349 1.349 . S
C348 C350 1.327 . S
C348 H373 0.950 . S
C349 C348 1.349 . S
C349 C365 1.349 . S
C350 C348 1.327 . S
C350 C369 1.429 . S
C350 H374 0.950 . S
C351 C368 1.574 . S
C351 C370 1.368 . S
C351 H375 0.949 . S
H352 C356 0.949 . S
C353 C354 1.349 . S
C353 C355 1.327 . S
C353 H376 0.950 . S
C354 C353 1.349 . S
C354 C366 1.349 . S
C355 C353 1.327 . S
C355 C371 1.429 . S
C355 H377 0.950 . S
C356 H352 0.949 . S
C356 C364 1.574 . S
C356 C372 1.368 . S
H357 C365 0.950 . S
H358 C363 0.950 . S
H359 C364 0.949 . S
H360 C366 0.950 . S
H361 C367 0.950 . S
H362 C368 0.949 . S
C363 H358 0.950 . S
C363 C365 1.327 . S
C363 C369 1.429 . S
C364 C356 1.574 . S
C364 H359 0.949 . S
C364 C370 1.368 . S
C365 C349 1.349 . S
C365 H357 0.950 . S
C365 C363 1.327 . S
C366 C354 1.349 . S
C366 H360 0.950 . S
C366 C367 1.327 . S
C367 H361 0.950 . S
C367 C366 1.327 . S
C367 C371 1.429 . S
C368 C351 1.574 . S
C368 H362 0.949 . S
C368 C372 1.368 . S
C369 C350 1.429 . S
C369 C363 1.429 . S
C369 C370 1.523 . S
C370 C351 1.368 . S
C370 C364 1.368 . S
C370 C369 1.523 . S
C371 C355 1.429 . S
C371 C367 1.429 . S
C371 C372 1.523 . S
C372 C356 1.368 . S
C372 C368 1.368 . S
C372 C371 1.523 . S
H373 C348 0.950 . S
H374 C350 0.950 . S
H375 C351 0.949 . S
H376 C353 0.950 . S
H377 C355 0.950 . S
C378 C379 1.349 . S
C378 C380 1.327 . S
C378 H403 0.950 . S
C379 C378 1.349 . S
C379 C395 1.349 . S
C380 C378 1.327 . S
C380 C399 1.429 . S
C380 H404 0.950 . S
C381 C398 1.574 . S
C381 C400 1.368 . S
C381 H405 0.949 . S
H382 C386 0.949 . S
C383 C384 1.349 . S
C383 C385 1.327 . S
C383 H406 0.950 . S
C384 C383 1.349 . S
C384 C396 1.349 . S
C385 C383 1.327 . S
C385 C401 1.429 . S
C385 H407 0.950 . S
C386 H382 0.949 . S
C386 C394 1.574 . S
C386 C402 1.368 . S
H387 C395 0.950 . S
H388 C393 0.950 . S
H389 C394 0.949 . S
H390 C396 0.950 . S
H391 C397 0.950 . S
H392 C398 0.949 . S
C393 H388 0.950 . S
C393 C395 1.327 . S
C393 C399 1.429 . S
C394 C386 1.574 . S
C394 H389 0.949 . S
C394 C400 1.368 . S
C395 C379 1.349 . S
C395 H387 0.950 . S
C395 C393 1.327 . S
C396 C384 1.349 . S
C396 H390 0.950 . S
C396 C397 1.327 . S
C397 H391 0.950 . S
C397 C396 1.327 . S
C397 C401 1.429 . S
C398 C381 1.574 . S
C398 H392 0.949 . S
C398 C402 1.368 . S
C399 C380 1.429 . S
C399 C393 1.429 . S
C399 C400 1.523 . S
C400 C381 1.368 . S
C400 C394 1.368 . S
C400 C399 1.523 . S
C401 C385 1.429 . S
C401 C397 1.429 . S
C401 C402 1.523 . S
C402 C386 1.368 . S
C402 C398 1.368 . S
C402 C401 1.523 . S
H403 C378 0.950 . S
H404 C380 0.950 . S
H405 C381 0.949 . S
H406 C383 0.950 . S
H407 C385 0.950 . S
C408 C409 1.349 . S
C408 C410 1.327 . S
C408 H433 0.950 . S
C409 C408 1.349 . S
C409 C425 1.349 . S
C410 C408 1.327 . S
C410 C429 1.429 . S
C410 H434 0.950 . S
C411 C428 1.574 . S
C411 C430 1.368 . S
C411 H435 0.949 . S
H412 C416 0.949 . S
C413 C414 1.349 . S
C413 C415 1.327 . S
C413 H436 0.950 . S
C414 C413 1.349 . S
C414 C426 1.349 . S
C415 C413 1.327 . S
C415 C431 1.429 . S
C415 H437 0.950 . S
C416 H412 0.949 . S
C416 C424 1.574 . S
C416 C432 1.368 . S
H417 C425 0.950 . S
H418 C423 0.950 . S
H419 C424 0.949 . S
H420 C426 0.950 . S
H421 C427 0.950 . S
H422 C428 0.949 . S
C423 H418 0.950 . S
C423 C425 1.327 . S
C423 C429 1.429 . S
C424 C416 1.574 . S
C424 H419 0.949 . S
C424 C430 1.368 . S
C425 C409 1.349 . S
C425 H417 0.950 . S
C425 C423 1.327 . S
C426 C414 1.349 . S
C426 H420 0.950 . S
C426 C427 1.327 . S
C427 H421 0.950 . S
C427 C426 1.327 . S
C427 C431 1.429 . S
C428 C411 1.574 . S
C428 H422 0.949 . S
C428 C432 1.368 . S
C429 C410 1.429 . S
C429 C423 1.429 . S
C429 C430 1.523 . S
C430 C411 1.368 . S
C430 C424 1.368 . S
C430 C429 1.523 . S
C431 C415 1.429 . S
C431 C427 1.429 . S
C431 C432 1.523 . S
C432 C416 1.368 . S
C432 C428 1.368 . S
C432 C431 1.523 . S
H433 C408 0.950 . S
H434 C410 0.950 . S
H435 C411 0.949 . S
H436 C413 0.950 . S
H437 C415 0.950 . S
C438 C439 1.349 1_565 S
C438 C440 1.327 . S
C438 H463 0.950 . S
C439 C438 1.349 1_545 S
C439 C455 1.349 . S
C440 C438 1.327 . S
C440 C459 1.429 1_565 S
C440 H464 0.950 . S
C441 C458 1.574 . S
C441 C460 1.368 . S
C441 H465 0.949 . S
H442 C446 0.949 . S
C443 C444 1.349 1_545 S
C443 C445 1.327 . S
C443 H466 0.950 . S
C444 C443 1.349 1_565 S
C444 C456 1.349 . S
C445 C443 1.327 . S
C445 C461 1.429 . S
C445 H467 0.950 . S
C446 H442 0.949 . S
C446 C454 1.574 . S
C446 C462 1.368 1_565 S
H447 C455 0.950 . S
H448 C453 0.950 . S
H449 C454 0.949 . S
H450 C456 0.950 . S
H451 C457 0.950 . S
H452 C458 0.949 . S
C453 H448 0.950 . S
C453 C455 1.327 . S
C453 C459 1.429 . S
C454 C446 1.574 . S
C454 H449 0.949 . S
C454 C460 1.368 1_565 S
C455 C439 1.349 . S
C455 H447 0.950 . S
C455 C453 1.327 . S
C456 C444 1.349 . S
C456 H450 0.950 . S
C456 C457 1.327 . S
C457 H451 0.950 . S
C457 C456 1.327 . S
C457 C461 1.429 1_565 S
C458 C441 1.574 . S
C458 H452 0.949 . S
C458 C462 1.368 . S
C459 C440 1.429 1_545 S
C459 C453 1.429 . S
C459 C460 1.523 . S
C460 C441 1.368 . S
C460 C454 1.368 1_545 S
C460 C459 1.523 . S
C461 C445 1.429 . S
C461 C457 1.429 1_545 S
C461 C462 1.523 . S
C462 C446 1.368 1_545 S
C462 C458 1.368 . S
C462 C461 1.523 . S
H463 C438 0.950 . S
H464 C440 0.950 . S
H465 C441 0.949 . S
H466 C443 0.950 . S
H467 C445 0.950 . S
C468 C469 1.349 . S
C468 C470 1.327 . S
C468 H493 0.950 . S
C469 C468 1.349 . S
C469 C485 1.349 . S
C470 C468 1.327 . S
C470 C489 1.429 . S
C470 H494 0.950 . S
C471 C488 1.574 . S
C471 C490 1.368 . S
C471 H495 0.949 . S
H472 C476 0.949 1_655 S
C473 C474 1.349 . S
C473 C475 1.327 . S
C473 H496 0.950 . S
C474 C473 1.349 . S
C474 C486 1.349 1_455 S
C475 C473 1.327 . S
C475 C491 1.429 . S
C475 H497 0.950 . S
C476 H472 0.949 1_455 S
C476 C484 1.574 . S
C476 C492 1.368 . S
H477 C485 0.950 1_565 S
H478 C483 0.950 1_565 S
H479 C484 0.952 . S
H480 C486 0.950 . S
H481 C487 0.950 . S
H482 C488 0.949 . S
C483 H478 0.950 1_545 S
C483 C485 1.327 . S
C483 C489 1.429 . S
C484 C476 1.574 . S
C484 H479 0.952 . S
C484 C490 1.368 . S
C485 C469 1.349 . S
C485 H477 0.950 1_545 S
C485 C483 1.327 . S
C486 C474 1.349 1_655 S
C486 H480 0.950 . S
C486 C487 1.327 . S
C487 H481 0.950 . S
C487 C486 1.327 . S
C487 C491 1.429 1_655 S
C488 C471 1.574 . S
C488 H482 0.949 . S
C488 C492 1.368 . S
C489 C470 1.429 . S
C489 C483 1.429 . S
C489 C490 1.523 . S
C490 C471 1.368 . S
C490 C484 1.368 . S
C490 C489 1.523 . S
C491 C475 1.429 . S
C491 C487 1.429 1_455 S
C491 C492 1.523 . S
C492 C476 1.368 . S
C492 C488 1.368 . S
C492 C491 1.523 . S
H493 C468 0.950 . S
H494 C470 0.950 . S
H495 C471 0.949 . S
H496 C473 0.950 . S
H497 C475 0.950 . S
C498 C499 1.349 . S
C498 C500 1.327 . S
C498 H523 0.950 . S
C499 C498 1.349 . S
C499 C515 1.349 . S
C500 C498 1.327 . S
C500 C519 1.429 . S
C500 H524 0.950 . S
C501 C518 1.574 . S
C501 C520 1.368 . S
C501 H525 0.949 . S
H502 C506 0.949 . S
C503 C504 1.349 . S
C503 C505 1.327 . S
C503 H526 0.950 . S
C504 C503 1.349 . S
C504 C516 1.349 . S
C505 C503 1.327 . S
C505 C521 1.429 . S
C505 H527 0.950 . S
C506 H502 0.949 . S
C506 C514 1.574 . S
C506 C522 1.368 . S
H507 C515 0.950 . S
H508 C513 0.950 . S
H509 C514 0.949 . S
H510 C516 0.950 . S
H511 C517 0.950 . S
H512 C518 0.949 . S
C513 H508 0.950 . S
C513 C515 1.327 . S
C513 C519 1.429 . S
C514 C506 1.574 . S
C514 H509 0.949 . S
C514 C520 1.368 . S
C515 C499 1.349 . S
C515 H507 0.950 . S
C515 C513 1.327 . S
C516 C504 1.349 . S
C516 H510 0.950 . S
C516 C517 1.327 . S
C517 H511 0.950 . S
C517 C516 1.327 . S
C517 C521 1.429 . S
C518 C501 1.574 . S
C518 H512 0.949 . S
C518 C522 1.368 . S
C519 C500 1.429 . S
C519 C513 1.429 . S
C519 C520 1.523 . S
C520 C501 1.368 . S
C520 C514 1.368 . S
C520 C519 1.523 . S
C521 C505 1.429 . S
C521 C517 1.429 . S
C521 C522 1.523 . S
C522 C506 1.368 . S
C522 C518 1.368 . S
C522 C521 1.523 . S
H523 C498 0.950 . S
H524 C500 0.950 . S
H525 C501 0.949 . S
H526 C503 0.950 . S
H527 C505 0.950 . S
C528 C529 1.349 . S
C528 C530 1.327 . S
C528 H553 0.950 . S
C529 C528 1.349 . S
C529 C545 1.349 . S
C530 C528 1.327 . S
C530 C549 1.429 . S
C530 H554 0.950 . S
C531 C548 1.574 . S
C531 C550 1.368 . S
C531 H555 0.949 . S
H532 C536 0.949 . S
C533 C534 1.349 . S
C533 C535 1.327 . S
C533 H556 0.950 . S
C534 C533 1.349 . S
C534 C546 1.349 . S
C535 C533 1.327 . S
C535 C551 1.429 . S
C535 H557 0.950 . S
C536 H532 0.949 . S
C536 C544 1.574 . S
C536 C552 1.368 . S
H537 C545 0.950 . S
H538 C543 0.950 . S
H539 C544 0.949 . S
H540 C546 0.950 . S
H541 C547 0.950 . S
H542 C548 0.949 . S
C543 H538 0.950 . S
C543 C545 1.327 . S
C543 C549 1.429 . S
C544 C536 1.574 . S
C544 H539 0.949 . S
C544 C550 1.368 . S
C545 C529 1.349 . S
C545 H537 0.950 . S
C545 C543 1.327 . S
C546 C534 1.349 . S
C546 H540 0.950 . S
C546 C547 1.327 . S
C547 H541 0.950 . S
C547 C546 1.327 . S
C547 C551 1.429 . S
C548 C531 1.574 . S
C548 H542 0.949 . S
C548 C552 1.368 . S
C549 C530 1.429 . S
C549 C543 1.429 . S
C549 C550 1.523 . S
C550 C531 1.368 . S
C550 C544 1.368 . S
C550 C549 1.523 . S
C551 C535 1.429 . S
C551 C547 1.429 . S
C551 C552 1.523 . S
C552 C536 1.368 . S
C552 C548 1.368 . S
C552 C551 1.523 . S
H553 C528 0.950 . S
H554 C530 0.950 . S
H555 C531 0.949 . S
H556 C533 0.950 . S
H557 C535 0.950 . S
C204 C175 1.396 . S
C199 C16 1.247 . S
C229 C15 1.478 . S
C234 C136 1.469 . S
C259 C13 1.268 . S
C264 C180 1.440 . S
C289 C14 1.274 . S
C294 C141 1.317 . S
C319 C37 1.247 . S
C324 C97 1.397 . S
C349 C36 1.478 . S
C354 C58 1.469 . S
C384 C102 1.440 . S
C379 C34 1.267 . S
C414 C63 1.316 . S
C409 C35 1.274 . S
C439 C17 1.518 . S
C444 C43 1.563 . S
C469 C18 1.367 . S
C474 C82 1.416 . S
C504 C121 1.563 . S
C499 C38 1.518 . S
C529 C39 1.367 . S
C534 C160 1.416 . S
