# Generated by pormake.
# Topology zzz, (3,6)-cn, num edge types: 1
# Building blocks:
#     Node 0, Type 0, BuildingBlock: KAKCAD_clean_linker_0, # of connection points: 3
#     Node 1, Type 0, BuildingBlock: KAKCAD_clean_linker_0, # of connection points: 3
#     Node 2, Type 0, BuildingBlock: KAKCAD_clean_linker_0, # of connection points: 3
#     Node 3, Type 0, BuildingBlock: KAKCAD_clean_linker_0, # of connection points: 3
#     Node 4, Type 0, BuildingBlock: KAKCAD_clean_linker_0, # of connection points: 3
#     Node 5, Type 0, BuildingBlock: KAKCAD_clean_linker_0, # of connection points: 3
#     Node 6, Type 0, BuildingBlock: KAKCAD_clean_linker_0, # of connection points: 3
#     Node 7, Type 0, BuildingBlock: KAKCAD_clean_linker_0, # of connection points: 3
#     Node 8, Type 1, BuildingBlock: PAMTOO_clean_sbu_0, # of connection points: 6
#     Node 9, Type 1, BuildingBlock: PAMTOO_clean_sbu_0, # of connection points: 6
#     Node 10, Type 1, BuildingBlock: PAMTOO_clean_sbu_0, # of connection points: 6
#     Node 11, Type 1, BuildingBlock: PAMTOO_clean_sbu_0, # of connection points: 6
#     Edge 12, Type (0, 1), BuildingBlock: OJICUG_clean_linker_0, # of connection points: 2
#     Edge 13, Type (0, 1), BuildingBlock: OJICUG_clean_linker_0, # of connection points: 2
#     Edge 14, Type (0, 1), BuildingBlock: OJICUG_clean_linker_0, # of connection points: 2
#     Edge 15, Type (0, 1), BuildingBlock: OJICUG_clean_linker_0, # of connection points: 2
#     Edge 16, Type (0, 1), BuildingBlock: OJICUG_clean_linker_0, # of connection points: 2
#     Edge 17, Type (0, 1), BuildingBlock: OJICUG_clean_linker_0, # of connection points: 2
#     Edge 18, Type (0, 1), BuildingBlock: OJICUG_clean_linker_0, # of connection points: 2
#     Edge 19, Type (0, 1), BuildingBlock: OJICUG_clean_linker_0, # of connection points: 2
#     Edge 20, Type (0, 1), BuildingBlock: OJICUG_clean_linker_0, # of connection points: 2
#     Edge 21, Type (0, 1), BuildingBlock: OJICUG_clean_linker_0, # of connection points: 2
#     Edge 22, Type (0, 1), BuildingBlock: OJICUG_clean_linker_0, # of connection points: 2
#     Edge 23, Type (0, 1), BuildingBlock: OJICUG_clean_linker_0, # of connection points: 2
#     Edge 24, Type (0, 1), BuildingBlock: OJICUG_clean_linker_0, # of connection points: 2
#     Edge 25, Type (0, 1), BuildingBlock: OJICUG_clean_linker_0, # of connection points: 2
#     Edge 26, Type (0, 1), BuildingBlock: OJICUG_clean_linker_0, # of connection points: 2
#     Edge 27, Type (0, 1), BuildingBlock: OJICUG_clean_linker_0, # of connection points: 2
#     Edge 28, Type (0, 1), BuildingBlock: OJICUG_clean_linker_0, # of connection points: 2
#     Edge 29, Type (0, 1), BuildingBlock: OJICUG_clean_linker_0, # of connection points: 2
#     Edge 30, Type (0, 1), BuildingBlock: OJICUG_clean_linker_0, # of connection points: 2
#     Edge 31, Type (0, 1), BuildingBlock: OJICUG_clean_linker_0, # of connection points: 2
#     Edge 32, Type (0, 1), BuildingBlock: OJICUG_clean_linker_0, # of connection points: 2
#     Edge 33, Type (0, 1), BuildingBlock: OJICUG_clean_linker_0, # of connection points: 2
#     Edge 34, Type (0, 1), BuildingBlock: OJICUG_clean_linker_0, # of connection points: 2
#     Edge 35, Type (0, 1), BuildingBlock: OJICUG_clean_linker_0, # of connection points: 2
# Relax obj value: 0.384
# Max RMSD: 0.286
# Mean RMSD: 0.222
data_MOF--net-zzz--node1-PAMTOO_clean_sbu_0--node2-KAKCAD_clean_linker_0--edge1-OJICUG_clean_linker_0
_symmetry_space_group_name_H-M    P1
_symmetry_Int_Tables_number       1
_symmetry_cell_setting            triclinic
loop_
_symmetry_equiv_pos_as_xyz
'x, y, z'
_cell_length_a     51.403892
_cell_length_b     43.291483
_cell_length_c     16.415898
_cell_angle_alpha  92.228712
_cell_angle_beta   79.817131
_cell_angle_gamma 84.344533
loop_
_atom_site_label
_atom_site_type_symbol
_atom_site_fract_x
_atom_site_fract_y
_atom_site_fract_z
_atom_type_partial_charge
C0 C 0.81345 0.41195 0.15898 0.0
C1 C 0.83666 0.39294 0.16605 0.0
C2 C 0.79839 0.42903 0.22811 0.0
C3 C 0.80551 0.42656 0.30681 0.0
C4 C 0.8264 0.40411 0.31553 0.0
C5 C 0.84201 0.3878 0.24594 0.0
C6 C 0.79331 0.44962 0.37641 0.0
C7 C 0.7672 0.46331 0.38226 0.0
C8 C 0.75697 0.48876 0.43794 0.0
C9 C 0.77269 0.49962 0.49345 0.0
C10 C 0.79848 0.48447 0.49293 0.0
C11 C 0.80864 0.46033 0.43229 0.0
C12 C 0.81593 0.49306 0.5527 0.0
C13 C 0.8204 0.524 0.56953 0.0
C14 C 0.83089 0.46929 0.58586 0.0
C15 C 0.85093 0.47587 0.62929 0.0
C16 C 0.85654 0.50664 0.643 0.0
C17 C 0.73053 0.50416 0.42942 0.0
C18 C 0.72921 0.53046 0.38228 0.0
C19 C 0.70839 0.48713 0.44354 0.0
C20 C 0.6864 0.49459 0.40555 0.0
C21 C 0.68605 0.51918 0.35192 0.0
C22 C 0.70721 0.53792 0.34402 0.0
C23 C 0.84042 0.53072 0.61422 0.0
H24 H 0.80807 0.41563 0.09897 0.0
H25 H 0.78242 0.44582 0.21793 0.0
H26 H 0.83182 0.40046 0.3755 0.0
H27 H 0.85953 0.37325 0.25475 0.0
H28 H 0.75488 0.45501 0.3407 0.0
H29 H 0.82917 0.45069 0.42681 0.0
H30 H 0.7648 0.51912 0.53709 0.0
H31 H 0.80929 0.54291 0.545 0.0
H32 H 0.82782 0.44517 0.57519 0.0
H33 H 0.8628 0.45641 0.6486 0.0
H34 H 0.7462 0.54358 0.36881 0.0
H35 H 0.70917 0.46629 0.47788 0.0
H36 H 0.84355 0.5548 0.62465 0.0
H37 H 0.70745 0.55742 0.30462 0.0
H38 H 0.67068 0.47946 0.41304 0.0
C39 C 0.11652 0.75454 0.14836 0.0
C40 C 0.12656 0.78124 0.17674 0.0
C41 C 0.10156 0.73675 0.20423 0.0
C42 C 0.09759 0.74416 0.29023 0.0
C43 C 0.11281 0.76632 0.31819 0.0
C44 C 0.12661 0.78516 0.26233 0.0
C45 C 0.07429 0.73386 0.34729 0.0
C46 C 0.06264 0.70722 0.32709 0.0
C47 C 0.03678 0.7024 0.36581 0.0
C48 C 0.02313 0.7234 0.43088 0.0
C49 C 0.03553 0.74868 0.45678 0.0
C50 C 0.0607 0.75385 0.41425 0.0
C51 C 0.02223 0.77222 0.52285 0.0
C52 C 1.00723 0.79863 0.50202 0.0
C53 C 0.03009 0.77232 0.60047 0.0
C54 C 0.02423 0.79893 0.65464 0.0
C55 C 1.01072 0.82625 0.63182 0.0
C56 C 0.02351 0.67798 0.32784 0.0
C57 C 1.0007 0.68636 0.29414 0.0
C58 C 0.03659 0.64777 0.30952 0.0
C59 C 0.02826 0.6272 0.25394 0.0
C60 C 1.00683 0.63652 0.2145 0.0
C61 C 0.99253 0.66591 0.2377 0.0
C62 C 1.00148 0.82533 0.5559 0.0
H63 H 0.1177 0.7492 0.08276 0.0
H64 H 0.09113 0.71935 0.17848 0.0
H65 H 0.11207 0.7713 0.38372 0.0
H66 H 0.1348 0.80463 0.28789 0.0
H67 H 0.07282 0.69117 0.27672 0.0
H68 H 0.06863 0.775 0.43078 0.0
H69 H 1.00301 0.72034 0.46019 0.0
H70 H 1.00162 0.7994 0.44147 0.0
H71 H 0.04217 0.75244 0.61712 0.0
H72 H 0.03124 0.79844 0.71306 0.0
H73 H 0.99041 0.7096 0.30636 0.0
H74 H 0.05435 0.6408 0.33416 0.0
H75 H 0.99132 0.84588 0.53536 0.0
H76 H 0.97572 0.67364 0.20932 0.0
H77 H 0.03981 0.60483 0.23745 0.0
C78 C 0.68966 0.04479 0.1022 0.0
C79 C 0.69027 0.07623 0.08418 0.0
C80 C 0.70561 0.03155 0.15463 0.0
C81 C 0.72272 0.04934 0.18893 0.0
C82 C 0.72475 0.08013 0.16692 0.0
C83 C 0.70842 0.09362 0.11532 0.0
C84 C 0.73603 0.03677 0.25466 0.0
C85 C 0.76366 0.03284 0.24449 0.0
C86 C 0.77636 0.02074 0.30721 0.0
C87 C 0.76066 0.01307 0.38259 0.0
C88 C 0.73247 0.01792 0.39367 0.0
C89 C 0.72065 0.02925 0.32863 0.0
C90 C 0.71394 0.0132 0.47197 0.0
C91 C 0.70463 0.98409 0.48624 0.0
C92 C 0.69968 0.03945 0.51824 0.0
C93 C 0.67588 0.03704 0.57352 0.0
C94 C 0.66547 0.00822 0.58439 0.0
C95 C 0.80601 0.01732 0.28966 0.0
C96 C 0.82038 0.98815 0.26459 0.0
C97 C 0.8192 0.0441 0.27566 0.0
C98 C 0.84548 0.042 0.23272 0.0
C99 C 0.85938 0.01304 0.2022 0.0
C100 C 0.84686 0.98601 0.22174 0.0
C101 C 0.68084 0.98158 0.54212 0.0
H102 H 0.67558 0.03096 0.08023 0.0
H103 H 0.7038 0.00776 0.1712 0.0
H104 H 0.73782 0.09419 0.19335 0.0
H105 H 0.70919 0.11789 0.10241 0.0
H106 H 0.7754 0.03884 0.18674 0.0
H107 H 0.69913 0.03294 0.33639 0.0
H108 H 0.77015 0.00428 0.43215 0.0
H109 H 0.71476 0.96356 0.44996 0.0
H110 H 0.70587 0.06233 0.5067 0.0
H111 H 0.66481 0.05827 0.60328 0.0
H112 H 0.81054 0.96718 0.27251 0.0
H113 H 0.8085 0.06691 0.29292 0.0
H114 H 0.67401 0.95883 0.54957 0.0
H115 H 0.85687 0.96332 0.19905 0.0
H116 H 0.85455 0.06328 0.22025 0.0
C117 C 0.47485 0.698 0.55187 0.0
C118 C 0.49885 0.68542 0.57423 0.0
C119 C 0.47437 0.72208 0.49776 0.0
C120 C 0.49791 0.73383 0.46146 0.0
C121 C 0.52151 0.72369 0.48883 0.0
C122 C 0.52191 0.70015 0.54556 0.0
C123 C 0.49887 0.74659 0.37835 0.0
C124 C 0.50441 0.7771 0.3587 0.0
C125 C 0.50453 0.78653 0.27675 0.0
C126 C 0.49869 0.7655 0.21652 0.0
C127 C 0.49369 0.73534 0.23602 0.0
C128 C 0.4939 0.72614 0.31621 0.0
C129 C 0.48869 0.71236 0.1738 0.0
C130 C 0.46539 0.71596 0.13999 0.0
C131 C 0.50523 0.68426 0.15892 0.0
C132 C 0.49777 0.65936 0.11578 0.0
C133 C 0.47352 0.662 0.08708 0.0
C134 C 0.51109 0.81768 0.24958 0.0
C135 C 0.49408 0.84476 0.27905 0.0
C136 C 0.5314 0.81927 0.1807 0.0
C137 C 0.53323 0.8464 0.13767 0.0
C138 C 0.51489 0.87275 0.16256 0.0
C139 C 0.49603 0.87219 0.23594 0.0
C140 C 0.45784 0.69084 0.0965 0.0
H141 H 0.45644 0.68798 0.57012 0.0
H142 H 0.45594 0.72906 0.47673 0.0
H143 H 0.54005 0.73204 0.46117 0.0
H144 H 0.54071 0.69259 0.56306 0.0
H145 H 0.50868 0.79307 0.40583 0.0
H146 H 0.49001 0.70256 0.3306 0.0
H147 H 0.49851 0.77243 0.15381 0.0
H148 H 0.4523 0.73747 0.15159 0.0
H149 H 0.52333 0.68113 0.18435 0.0
H150 H 0.51056 0.6376 0.10733 0.0
H151 H 0.47806 0.84406 0.33137 0.0
H152 H 0.54475 0.79873 0.15661 0.0
H153 H 0.43916 0.69344 0.07431 0.0
H154 H 0.48159 0.89214 0.25644 0.0
H155 H 0.54816 0.84624 0.082 0.0
C156 C 0.14859 0.46799 0.32264 0.0
C157 C 0.12925 0.45867 0.27886 0.0
C158 C 0.17532 0.46458 0.28515 0.0
C159 C 0.18297 0.4517 0.20356 0.0
C160 C 0.16434 0.43663 0.1675 0.0
C161 C 0.13746 0.44072 0.20414 0.0
C162 C 0.20575 0.46355 0.14949 0.0
C163 C 0.22931 0.46838 0.17773 0.0
C164 C 0.2472 0.48782 0.13651 0.0
C165 C 0.2411 0.50275 0.06569 0.0
C166 C 0.21797 0.49673 0.0351 0.0
C167 C 0.20099 0.47688 0.07664 0.0
C168 C 0.20827 0.51229 0.96547 0.0
C169 C 0.19004 0.53914 0.98456 0.0
C170 C 0.20741 0.49369 0.89407 0.0
C171 C 0.18657 0.49921 0.85003 0.0
C172 C 0.16631 0.5237 0.87584 0.0
C173 C 0.27094 0.49348 0.17327 0.0
C174 C 0.27409 0.52326 0.20484 0.0
C175 C 0.28831 0.4681 0.18863 0.0
C176 C 0.30783 0.47215 0.23661 0.0
C177 C 0.31028 0.50166 0.27173 0.0
C178 C 0.29344 0.52728 0.25405 0.0
C179 C 0.16925 0.54485 0.94001 0.0
H180 H 0.14285 0.48164 0.38094 0.0
H181 H 0.18911 0.47609 0.31544 0.0
H182 H 0.16989 0.42556 0.10568 0.0
H183 H 0.12292 0.43264 0.17023 0.0
H184 H 0.23302 0.45841 0.23473 0.0
H185 H 0.18245 0.47423 0.05543 0.0
H186 H 0.25409 0.51869 0.03512 0.0
H187 H 0.18976 0.55345 0.04042 0.0
H188 H 0.2208 0.47249 0.87887 0.0
H189 H 0.18504 0.4827 0.80024 0.0
H190 H 0.26072 0.54315 0.19505 0.0
H191 H 0.28613 0.44484 0.16586 0.0
H192 H 0.15397 0.56389 0.96159 0.0
H193 H 0.29491 0.55036 0.27953 0.0
H194 H 0.3202 0.45184 0.24942 0.0
C195 C 0.08314 0.22419 0.42921 0.0
C196 C 0.08839 0.1929 0.40031 0.0
C197 C 0.08874 0.24751 0.37475 0.0
C198 C 0.09971 0.23965 0.29079 0.0
C199 C 0.11051 0.20868 0.26815 0.0
C200 C 0.10449 0.18524 0.32247 0.0
C201 C 0.09131 0.26016 0.22719 0.0
C202 C 0.08701 0.29248 0.24284 0.0
C203 C 0.06888 0.31082 0.20497 0.0
C204 C 0.05598 0.29644 0.1466 0.0
C205 C 0.06226 0.26439 0.1245 0.0
C206 C 0.08015 0.24683 0.16406 0.0
C207 C 0.04765 0.24653 0.07189 0.0
C208 C 0.02342 0.23629 0.10841 0.0
C209 C 0.06165 0.23133 0.99754 0.0
C210 C 0.0527 0.20496 0.96387 0.0
C211 C 0.02973 0.19292 1.00462 0.0
C212 C 0.06084 0.3434 0.23938 0.0
C213 C 0.03413 0.35312 0.27406 0.0
C214 C 0.08044 0.3623 0.25455 0.0
C215 C 0.07388 0.38846 0.3098 0.0
C216 C 0.04752 0.39648 0.35071 0.0
C217 C 0.02752 0.37949 0.32914 0.0
C218 C 0.01458 0.20972 0.07527 0.0
H219 H 0.07131 0.23056 0.49007 0.0
H220 H 0.08063 0.27106 0.39591 0.0
H221 H 0.12015 0.20201 0.2049 0.0
H222 H 0.10926 0.16118 0.29944 0.0
H223 H 0.09558 0.30291 0.29165 0.0
H224 H 0.08268 0.2218 0.15203 0.0
H225 H 0.04092 0.30981 0.12013 0.0
H226 H 1.01261 0.24706 0.16692 0.0
H227 H 0.08077 0.2382 0.96952 0.0
H228 H 0.06497 0.19257 0.90976 0.0
H229 H 0.01863 0.3389 0.26433 0.0
H230 H 0.10117 0.35552 0.22829 0.0
H231 H 0.99662 0.20133 0.10761 0.0
H232 H 1.00703 0.38513 0.35964 0.0
H233 H 0.08964 0.40147 0.3239 0.0
C234 C 0.32395 0.88075 0.41337 0.0
C235 C 0.32752 0.89045 0.49304 0.0
C236 C 0.30461 0.89676 0.37627 0.0
C237 C 0.28833 0.92248 0.41859 0.0
C238 C 0.28966 0.92966 0.50175 0.0
C239 C 0.30912 0.91383 0.53864 0.0
C240 C 0.27383 0.94505 0.37259 0.0
C241 C 0.24808 0.95845 0.40592 0.0
C242 C 0.23584 0.98303 0.36807 0.0
C243 C 0.25009 0.99475 0.29566 0.0
C244 C 0.27615 0.98107 0.26108 0.0
C245 C 0.28741 0.95613 0.29988 0.0
C246 C 0.29363 0.99296 0.18882 0.0
C247 C 0.30617 0.97203 0.12246 0.0
C248 C 0.30306 0.02219 0.19507 0.0
C249 C 0.32565 0.02935 0.13989 0.0
C250 C 0.33944 0.00744 0.07706 0.0
C251 C 0.20851 0.99599 0.40903 0.0
C252 C 0.18618 0.98565 0.38226 0.0
C253 C 0.20482 0.01236 0.48652 0.0
C254 C 0.17969 0.01706 0.53776 0.0
C255 C 0.15748 0.00514 0.51352 0.0
C256 C 0.16096 0.99026 0.43368 0.0
C257 C 0.32865 0.97913 0.06744 0.0
H258 H 0.33742 0.86237 0.37732 0.0
H259 H 0.30363 0.89044 0.31246 0.0
H260 H 0.27741 0.94944 0.53577 0.0
H261 H 0.31131 0.92209 0.59993 0.0
H262 H 0.2376 0.94996 0.46252 0.0
H263 H 0.30776 0.94652 0.27597 0.0
H264 H 0.24115 0.01426 0.26721 0.0
H265 H 0.29965 0.94912 0.11667 0.0
H266 H 0.29417 0.03862 0.2462 0.0
H267 H 0.3329 0.05167 0.14865 0.0
H268 H 0.18856 0.97219 0.32389 0.0
H269 H 0.22176 0.02005 0.50947 0.0
H270 H 0.33857 0.96144 0.02084 0.0
H271 H 0.14454 0.98049 0.4127 0.0
H272 H 0.17787 0.02919 0.59776 0.0
C273 C 0.47586 0.34646 0.15794 0.0
C274 C 0.49325 0.34509 0.08101 0.0
C275 C 0.4797 0.32456 0.21669 0.0
C276 C 0.50077 0.3006 0.19944 0.0
C277 C 0.51671 0.29764 0.12021 0.0
C278 C 0.51296 0.31957 0.06154 0.0
C279 C 0.51109 0.28595 0.26918 0.0
C280 C 0.50539 0.25638 0.29615 0.0
C281 C 0.51629 0.24415 0.36304 0.0
C282 C 0.53245 0.26192 0.40263 0.0
C283 C 0.53771 0.29158 0.37714 0.0
C284 C 0.52712 0.30313 0.31002 0.0
C285 C 0.5516 0.31232 0.42521 0.0
C286 C 0.54456 0.31552 0.51203 0.0
C287 C 0.56864 0.33263 0.38432 0.0
C288 C 0.57588 0.35775 0.42812 0.0
C289 C 0.56642 0.36284 0.51369 0.0
C290 C 0.51053 0.21349 0.39569 0.0
C291 C 0.4847 0.20856 0.43388 0.0
C292 C 0.53162 0.19074 0.40026 0.0
C293 C 0.52718 0.16413 0.44429 0.0
C294 C 0.50156 0.15979 0.48616 0.0
C295 C 0.48027 0.18209 0.47917 0.0
C296 C 0.55196 0.34052 0.55589 0.0
H297 H 0.46062 0.36585 0.17547 0.0
H298 H 0.46761 0.32787 0.27813 0.0
H299 H 0.53347 0.27985 0.10604 0.0
H300 H 0.5265 0.31752 1.00254 0.0
H301 H 0.49278 0.24305 0.26546 0.0
H302 H 0.53053 0.32631 0.29077 0.0
H303 H 0.54041 0.25288 0.45492 0.0
H304 H 0.53137 0.30039 0.54544 0.0
H305 H 0.57491 0.33031 0.31761 0.0
H306 H 0.58734 0.37438 0.39422 0.0
H307 H 0.46816 0.22595 0.43231 0.0
H308 H 0.55177 0.19415 0.37214 0.0
H309 H 0.54417 0.34392 0.62175 0.0
H310 H 0.46028 0.17936 0.51013 0.0
H311 H 0.54407 0.14767 0.44887 0.0
Dy312 Dy 0.99267 0.01902 0.78871 0.0
Dy313 Dy 0.02495 0.99479 0.93089 0.0
C314 C 0.05684 0.00632 0.74724 0.0
O315 O 0.98698 0.96872 0.79865 0.0
O316 O 0.02613 0.9541 0.84063 0.0
O317 O 0.98262 0.0135 0.66694 0.0
O318 O 0.96533 0.05363 0.74834 0.0
O319 O 0.98212 0.99151 0.98705 0.0
O320 O 0.96154 0.02363 0.90423 0.0
O321 O 1.01159 0.0454 0.96227 0.0
O322 O 1.01323 0.05862 0.82912 0.0
O323 O 0.03035 0.96373 0.02725 0.0
O324 O 0.05662 0.99961 0.99995 0.0
C325 C 1.0062 0.9472 0.80542 0.0
O326 O 0.03441 0.00781 0.71899 0.0
O327 O 0.05728 0.00482 0.82692 0.0
C328 C 0.9834 0.06307 0.61119 0.0
C329 C 0.01637 0.10508 0.53019 0.0
C330 C 0.02216 0.07295 0.51101 0.0
C331 C 1.00586 0.05214 0.55115 0.0
C332 C 0.97633 0.09524 0.62466 0.0
C333 C 0.99276 0.11602 0.58531 0.0
C334 C 0.97118 0.042 0.67191 0.0
C335 C 0.96078 0.00786 0.97137 0.0
C336 C 0.0134 0.06651 0.90688 0.0
C337 C 0.07471 0.95165 0.03984 0.0
C338 C 0.11074 0.89906 0.04732 0.0
C339 C 0.10336 0.90677 0.97147 0.0
C340 C 0.08541 0.93289 0.9678 0.0
C341 C 0.08377 0.94565 0.11376 0.0
C342 C 0.10175 0.91959 0.11748 0.0
C343 C 0.05194 0.97492 0.04075 0.0
H344 H 0.03977 0.06379 0.46708 0.0
H345 H 1.01185 0.02746 0.53872 0.0
H346 H 0.95917 0.10437 0.67052 0.0
H347 H 0.98767 0.14058 0.60205 0.0
H348 H 0.11008 0.89148 0.91637 0.0
H349 H 0.07866 0.93737 0.91003 0.0
H350 H 0.07567 0.95997 0.16984 0.0
H351 H 0.10676 0.91414 0.17705 0.0
Dy352 Dy 0.49659 0.98823 0.75299 0.0
Dy353 Dy 0.5043 0.04281 0.88723 0.0
C354 C 0.4943 0.05852 0.7096 0.0
O355 O 0.54099 0.98659 0.7395 0.0
O356 O 0.54408 0.03413 0.80228 0.0
O357 O 0.4815 0.97606 0.64327 0.0
O358 O 0.50274 0.94048 0.70329 0.0
O359 O 0.5159 0.99821 0.94412 0.0
O360 O 0.4948 0.96494 0.87218 0.0
O361 O 0.4634 0.03083 0.93624 0.0
O362 O 0.45487 0.00541 0.81955 0.0
O363 O 0.51275 0.06032 1.00395 0.0
O364 O 0.50422 0.0922 0.91187 0.0
C365 C 0.55505 0.00915 0.75577 0.0
O366 O 0.50564 0.03061 0.68401 0.0
O367 O 0.4847 0.06454 0.78859 0.0
C368 C 0.46768 0.92617 0.63975 0.0
C369 C 0.42506 0.8943 0.60799 0.0
C370 C 0.42138 0.91693 0.67418 0.0
C371 C 0.44254 0.93265 0.69005 0.0
C372 C 0.47201 0.90205 0.57799 0.0
C373 C 0.4509 0.88605 0.56251 0.0
C374 C 0.48857 0.94638 0.64613 0.0
C375 C 0.50675 0.97122 0.93426 0.0
C376 C 0.44689 0.01821 0.89546 0.0
C377 C 0.53887 0.10157 0.98276 0.0
C378 C 0.59136 0.11231 0.99196 0.0
C379 C 0.57172 0.11425 0.06421 0.0
C380 C 0.54567 0.10888 0.05956 0.0
C381 C 0.55786 0.10219 0.90999 0.0
C382 C 0.58386 0.10768 0.91456 0.0
C383 C 0.51371 0.08854 0.97971 0.0
H384 H 0.4018 0.92423 0.71003 0.0
H385 H 0.43893 0.9511 0.73847 0.0
H386 H 0.49142 0.89658 0.53917 0.0
H387 H 0.45454 0.86837 0.51212 0.0
H388 H 0.57688 0.1174 0.12495 0.0
H389 H 0.53133 0.10832 0.1163 0.0
H390 H 0.55311 0.09654 0.84982 0.0
H391 H 0.59846 0.10637 0.85785 0.0
Dy392 Dy 0.52081 0.52066 0.8684 0.0
Dy393 Dy 0.47109 0.50356 0.76494 0.0
C394 C 0.49464 0.4568 0.89435 0.0
O395 O 0.54218 0.48595 0.76979 0.0
O396 O 0.50941 0.48135 0.69014 0.0
O397 O 0.55985 0.5315 0.8857 0.0
O398 O 0.52677 0.53736 0.9892 0.0
O399 O 0.48328 0.54757 0.71047 0.0
O400 O 0.51568 0.56019 0.78509 0.0
O401 O 0.45676 0.54631 0.84712 0.0
O402 O 0.47952 0.52635 0.94014 0.0
O403 O 0.42909 0.50009 0.76306 0.0
O404 O 0.45937 0.48324 0.65719 0.0
C405 C 0.53374 0.475 0.70443 0.0
O406 O 0.51618 0.47113 0.89231 0.0
O407 O 0.4739 0.46839 0.86318 0.0
C408 C 0.57045 0.53155 0.02341 0.0
C409 C 0.60737 0.52615 0.1339 0.0
C410 C 0.58102 0.53948 0.16164 0.0
C411 C 0.56289 0.54222 0.10711 0.0
C412 C 0.59654 0.51744 0.99593 0.0
C413 C 0.61472 0.51471 0.05051 0.0
C414 C 0.55209 0.53925 0.9646 0.0
C415 C 0.50055 0.56605 0.72916 0.0
C416 C 0.46233 0.54787 0.92154 0.0
C417 C 0.41603 0.49823 0.62848 0.0
C418 C 0.38171 0.50629 0.51072 0.0
C419 C 0.40931 0.50725 0.4872 0.0
C420 C 0.42623 0.50332 0.54521 0.0
C421 C 0.38837 0.49848 0.65273 0.0
C422 C 0.37141 0.50262 0.59478 0.0
C423 C 0.43397 0.48815 0.68684 0.0
H424 H 0.57463 0.54892 0.22486 0.0
H425 H 0.54311 0.55376 0.12992 0.0
H426 H 0.60317 0.50922 0.93175 0.0
H427 H 0.63467 0.50386 0.02701 0.0
H428 H 0.41794 0.51047 0.42338 0.0
H429 H 0.44742 0.50317 0.52391 0.0
H430 H 0.37992 0.49417 0.716 0.0
H431 H 0.35033 0.50146 0.61518 0.0
Dy432 Dy 1.00891 0.55238 0.72226 0.0
Dy433 Dy 1.00611 0.49031 0.83223 0.0
C434 C 0.0229 0.48357 0.63853 0.0
O435 O 0.96558 0.54795 0.76087 0.0
O436 O 0.96884 0.49566 0.77771 0.0
O437 O 0.98968 0.58821 0.6574 0.0
O438 O 0.03227 0.5829 0.64598 0.0
O439 O 0.99793 0.53059 0.92697 0.0
O440 O 1.00396 0.57392 0.85026 0.0
O441 O 0.04573 0.50403 0.84451 0.0
O442 O 0.05084 0.54031 0.74496 0.0
O443 O 0.99068 0.46794 0.94292 0.0
O444 O 0.01612 0.44096 0.84051 0.0
C445 C 0.95511 0.5215 0.76348 0.0
O446 O 1.00946 0.51071 0.63583 0.0
O447 O 0.02987 0.47489 0.70766 0.0
C448 C 0.01591 0.58646 0.52303 0.0
C449 C 0.04016 0.54723 0.38576 0.0
C450 C 0.01444 0.54323 0.42577 0.0
C451 C 1.00224 0.56286 0.49411 0.0
C452 C 0.03918 0.59405 0.47275 0.0
C453 C 0.05136 0.57436 0.40428 0.0
C454 C 1.01221 0.59375 0.61311 0.0
C455 C 0.99952 0.5607 0.92158 0.0
C456 C 0.06019 0.52268 0.79938 0.0
C457 C 0.98095 0.41748 0.91701 0.0
C458 C 0.93498 0.3867 0.95078 0.0
C459 C 0.94134 0.40087 0.87515 0.0
C460 C 0.96409 0.4164 0.85868 0.0
C461 C 0.97632 0.40046 0.98785 0.0
C462 C 0.95353 0.38507 1.0046 0.0
C463 C 1.00037 0.44021 0.91166 0.0
H464 H 1.00541 0.52259 0.41151 0.0
H465 H 0.98406 0.5566 0.53083 0.0
H466 H 0.05 0.61224 0.49333 0.0
H467 H 0.07125 0.57785 0.3738 0.0
H468 H 0.92762 0.40221 0.83203 0.0
H469 H 0.96744 0.42943 0.80343 0.0
H470 H 0.98917 0.40114 0.03346 0.0
H471 H 0.94921 0.37465 0.06375 0.0
C472 C 0.13108 1.00224 0.65834 0.0
C473 C 0.13148 0.00636 0.57333 0.0
H474 H 0.10774 0.99884 0.7789 0.0
C475 C 0.10689 0.01067 0.54634 0.0
H476 H 0.14947 0.99823 0.68177 0.0
C477 C 0.08277 0.01074 0.60244 0.0
C478 C 0.08248 0.00646 0.68731 0.0
H479 H 0.10621 0.01424 0.4818 0.0
H480 H 0.06433 0.01422 0.57908 0.0
C481 C 0.10702 1.00233 0.71432 0.0
C482 C 0.4823 0.13776 0.62116 0.0
C483 C 0.49762 0.13313 0.54077 0.0
H484 H 0.46933 0.11809 0.7375 0.0
C485 C 0.51055 0.10327 0.51513 0.0
H486 H 0.4723 0.16051 0.64332 0.0
C487 C 0.50876 0.0789 0.56899 0.0
C488 C 0.4942 0.08378 0.65035 0.0
H489 H 0.52233 0.0988 0.45348 0.0
H490 H 0.51939 0.0564 0.54736 0.0
C491 C 0.48073 0.11345 0.67539 0.0
C492 C 0.35502 0.48896 0.313 0.0
C493 C 0.32933 0.50507 0.33001 0.0
H494 H 0.39149 0.47672 0.35587 0.0
C495 C 0.32147 0.52287 0.40558 0.0
H496 H 0.36184 0.47517 0.25531 0.0
C497 C 0.33851 0.52373 0.46357 0.0
C498 C 0.36402 0.50712 0.44718 0.0
H499 H 0.30176 0.53534 0.42119 0.0
H500 H 0.33163 0.53729 0.52157 0.0
C501 C 0.37214 0.49007 0.37052 0.0
C502 C 0.05713 0.41821 0.48465 0.0
C503 C 0.04154 0.41988 0.42228 0.0
H504 H 0.06339 0.43678 0.60169 0.0
C505 C 0.01972 0.44282 0.43151 0.0
H506 H 0.07384 0.4005 0.48002 0.0
C507 C 0.01378 0.46373 0.50139 0.0
C508 C 0.02935 0.4619 0.5638 0.0
H509 H 1.0073 0.4446 0.38469 0.0
H510 H 0.99672 0.481 0.50731 0.0
C511 C 0.05101 0.43881 0.55476 0.0
C512 C 0.88944 0.03244 0.08076 0.0
C513 C 0.88569 0.01152 0.14438 0.0
H514 H 0.91552 0.04758 0.97692 0.0
C515 C 0.90697 0.98913 0.15044 0.0
H516 H 0.87343 0.04968 0.07304 0.0
C517 C 0.93139 0.98802 0.09508 0.0
C518 C 0.93503 0.00892 0.03127 0.0
H519 H 0.90486 0.97268 0.1986 0.0
H520 H 0.94735 0.97057 0.1019 0.0
C521 C 0.91362 0.03107 0.02497 0.0
C522 C 0.51204 0.89168 0.02228 0.0
C523 C 0.51343 0.89864 0.10563 0.0
H524 H 0.50876 0.9089 0.90388 0.0
C525 C 0.51305 0.92996 0.1327 0.0
H526 H 0.512 0.86784 0.99968 0.0
C527 C 0.51162 0.95373 0.07691 0.0
C528 C 0.50984 0.94661 0.99373 0.0
H529 H 0.51408 0.93599 0.19662 0.0
H530 H 0.51132 0.97766 0.09924 0.0
C531 C 0.51005 0.91529 0.9674 0.0
C532 C 0.63877 0.51774 0.32772 0.0
C533 C 0.66531 0.523 0.29813 0.0
H534 H 0.59993 0.51419 0.29979 0.0
C535 C 0.6724 0.5298 0.2144 0.0
H536 H 0.63247 0.5126 0.39178 0.0
C537 C 0.65369 0.53086 0.16166 0.0
C538 C 0.62725 0.52515 0.19083 0.0
H539 H 0.69267 0.5335 0.18864 0.0
H540 H 0.65999 0.53629 0.09783 0.0
C541 C 0.62002 0.51886 0.27492 0.0
C542 C 1.00272 0.5846 0.14492 0.0
C543 C 1.00153 0.61717 0.14313 0.0
H544 H 1.00258 0.54132 0.07725 0.0
C545 C 0.9976 0.63105 0.06951 0.0
H546 H 1.00561 0.57317 0.20068 0.0
C547 C 0.99603 0.61281 0.99853 0.0
C548 C 0.9981 0.5802 0.9994 0.0
H549 H 0.99695 0.65601 0.06546 0.0
H550 H 0.99387 0.62432 0.94231 0.0
C551 C 1.00086 0.56636 0.07411 0.0
C552 C 0.04318 0.17818 0.44793 0.0
C553 C 0.07078 0.17042 0.43819 0.0
H554 H 1.00458 0.16342 0.48072 0.0
C555 C 0.08066 0.14067 0.45655 0.0
H556 H 0.03506 0.20066 0.4314 0.0
C557 C 0.06304 0.11926 0.48625 0.0
C558 C 0.03531 0.12713 0.49614 0.0
H559 H 0.10189 0.13409 0.44824 0.0
H560 H 0.07114 0.09674 0.50234 0.0
C561 C 0.02569 0.15678 0.47596 0.0
C562 C 0.37703 0.8815 0.46468 0.0
C563 C 0.35303 0.88157 0.52117 0.0
H564 H 0.41853 0.88557 0.44776 0.0
C565 C 0.35396 0.87916 0.6058 0.0
H566 H 0.37715 0.88366 0.39912 0.0
C567 C 0.37801 0.88018 0.63406 0.0
C568 C 0.40151 0.88378 0.5782 0.0
H569 H 0.33587 0.87854 0.65071 0.0
H570 H 0.37787 0.88019 0.70011 0.0
C571 C 0.40097 0.88263 0.49283 0.0
C572 C 0.57048 0.39669 0.63784 0.0
C573 C 0.56646 0.39383 0.55547 0.0
H574 H 0.56387 0.42575 0.74992 0.0
C575 C 0.55715 0.42044 0.51833 0.0
H576 H 0.57772 0.37656 0.6678 0.0
C577 C 0.54902 0.44836 0.56533 0.0
C578 C 0.55053 0.45031 0.64979 0.0
H579 H 0.5536 0.41898 0.45524 0.0
H580 H 0.53956 0.46766 0.53736 0.0
C581 C 0.56277 0.42488 0.68456 0.0
C582 C 0.09117 0.49227 0.24272 0.0
C583 C 0.10187 0.47429 0.30121 0.0
H584 H 0.06291 0.53026 0.22384 0.0
C585 C 0.08924 0.4775 0.38441 0.0
H586 H 0.1009 0.49071 0.17831 0.0
C587 C 0.06776 0.50001 0.40984 0.0
C588 C 0.05837 0.51951 0.35263 0.0
H589 H 0.0973 0.46429 0.43069 0.0
H590 H 0.0598 0.50392 0.47544 0.0
C591 C 0.06965 0.51503 0.26848 0.0
C592 C 0.11482 0.81275 0.06069 0.0
C593 C 0.13052 0.80801 0.12235 0.0
H594 H 0.09664 0.84517 0.98807 0.0
C595 C 0.14512 0.83226 0.14238 0.0
H596 H 0.10303 0.7952 0.04268 0.0
C597 C 0.1408 0.86169 0.11161 0.0
C598 C 0.12243 0.86713 0.05841 0.0
H599 H 0.15833 0.82935 0.18664 0.0
H600 H 0.15039 0.88069 0.13393 0.0
C601 C 0.11097 0.84185 0.0289 0.0
C602 C 0.65324 0.11786 0.08295 0.0
C603 C 0.66921 0.09134 0.04391 0.0
H604 H 0.61587 0.14592 0.09575 0.0
C605 C 0.6617 0.07608 0.97612 0.0
H606 H 0.65855 0.13004 0.13553 0.0
C607 C 0.63723 0.08498 0.95383 0.0
C608 C 0.61983 0.10931 0.9991 0.0
H609 H 0.67383 0.05575 0.94451 0.0
H610 H 0.63105 0.07093 0.90612 0.0
C611 C 0.62869 0.12677 0.06075 0.0
C612 C 0.45617 0.63397 0.97451 0.0
C613 C 0.46454 0.63396 0.0514 0.0
H614 H 0.44799 0.60616 0.87316 0.0
C615 C 0.46673 0.60601 0.09154 0.0
H616 H 0.4541 0.65531 0.94277 0.0
C617 C 0.46339 0.5781 0.05188 0.0
C618 C 0.45775 0.57759 0.97134 0.0
H619 H 0.47243 0.60554 0.152 0.0
H620 H 0.46697 0.55669 0.08215 0.0
C621 C 0.45269 0.60588 0.93477 0.0
C622 C 0.87698 0.35864 0.09069 0.0
C623 C 0.85785 0.38437 0.0919 0.0
H624 H 0.91683 0.3386 0.04265 0.0
C625 C 0.86227 0.40572 0.0297 0.0
H626 H 0.87389 0.34109 0.1356 0.0
C627 C 0.88658 0.40396 0.97582 0.0
C628 C 0.90716 0.38096 0.9832 0.0
H629 H 0.84828 0.42596 0.02789 0.0
H630 H 0.89012 0.42284 0.93527 0.0
C631 C 0.90153 0.35706 0.03707 0.0
C632 C 0.01682 0.13969 0.03924 0.0
C633 C 0.02348 0.16133 0.97916 0.0
H634 H 1.00866 0.09302 0.06392 0.0
C635 C 0.026 0.15168 0.89502 0.0
H636 H 0.01514 0.14609 0.10455 0.0
C637 C 0.02226 0.12114 0.87164 0.0
C638 C 0.01624 0.09932 0.93177 0.0
H639 H 0.03102 0.16773 0.84715 0.0
H640 H 0.02456 0.11451 0.80624 0.0
C641 C 0.01335 0.10909 0.01588 0.0
C642 C 0.38447 0.02787 0.06377 0.0
C643 C 0.36609 0.01266 0.02699 0.0
H644 H 0.42378 0.04159 0.05214 0.0
C645 C 0.37426 1.00064 0.94419 0.0
H646 H 0.37938 0.03701 0.12756 0.0
C647 C 0.40012 1.00303 0.90067 0.0
C648 C 0.41865 0.01753 0.93851 0.0
H649 H 0.36073 0.9891 0.91291 0.0
H650 H 0.40568 0.99301 0.83777 0.0
C651 C 0.41023 0.03028 0.02036 0.0
C652 C 0.51727 0.38324 0.99262 0.0
C653 C 0.49314 0.37206 0.02659 0.0
H654 H 0.53661 0.41833 0.92491 0.0
C655 C 0.46927 0.38831 0.01312 0.0
H656 H 0.53604 0.37175 1.00265 0.0
C657 C 0.4696 0.41529 0.96796 0.0
C658 C 0.49378 0.42693 0.93655 0.0
H659 H 0.45033 0.38032 0.03818 0.0
H660 H 0.45089 0.4275 0.95982 0.0
C661 C 0.51758 0.41027 0.94863 0.0
C662 C 0.12668 0.55079 0.82407 0.0
C663 C 0.14026 0.5236 0.84724 0.0
H664 H 0.09089 0.57175 0.78834 0.0
C665 C 0.12771 0.49612 0.8501 0.0
H666 H 0.13575 0.57236 0.8218 0.0
C667 C 0.10205 0.49594 0.83286 0.0
C668 C 0.08827 0.52307 0.81067 0.0
H669 H 0.13736 0.47489 0.86904 0.0
H670 H 0.09283 0.47447 0.83788 0.0
C671 C 0.10107 0.55042 0.80473 0.0
C672 C 0.98593 0.87824 0.68905 0.0
C673 C 1.00835 0.85621 0.68296 0.0
H674 H 0.96754 0.92389 0.73251 0.0
C675 C 0.02938 0.86391 0.72193 0.0
H676 H 0.96918 0.87311 0.66104 0.0
C677 C 0.02833 0.893 0.76371 0.0
C678 C 1.00629 0.91534 0.76741 0.0
H679 H 0.0472 0.84792 0.71769 0.0
H680 H 0.04519 0.89825 0.79108 0.0
C681 C 0.98494 0.90739 0.73055 0.0
C682 C 0.62718 0.02766 0.70191 0.0
C683 C 0.63789 0.00658 0.63365 0.0
H684 H 0.59314 0.04505 0.79345 0.0
C685 C 0.62123 0.98522 0.6095 0.0
H686 H 0.63924 0.04412 0.7241 0.0
C687 C 0.59477 0.98545 0.65054 0.0
C688 C 0.58388 0.00724 0.71664 0.0
H689 H 0.62824 0.96892 0.5567 0.0
H690 H 0.58258 0.96909 0.6285 0.0
C691 C 0.60061 0.0281 0.74231 0.0
C692 C 0.47658 0.64521 0.66408 0.0
C693 C 0.49998 0.65573 0.62017 0.0
H694 H 0.45836 0.60832 0.72747 0.0
C695 C 0.52403 0.63616 0.61573 0.0
H696 H 0.45766 0.65932 0.67339 0.0
C697 C 0.52446 0.60736 0.6526 0.0
C698 C 0.50079 0.59666 0.69175 0.0
H699 H 0.54261 0.64236 0.58196 0.0
H700 H 0.54319 0.59297 0.64796 0.0
C701 C 0.47691 0.61586 0.69689 0.0
C702 C 0.88917 0.49257 0.73909 0.0
C703 C 0.88009 0.51289 0.68228 0.0
H704 H 0.91978 0.47908 0.80832 0.0
C705 C 0.89504 0.53778 0.65882 0.0
H706 H 0.87807 0.47365 0.76128 0.0
C707 C 0.91866 0.54145 0.68844 0.0
C708 C 0.92832 0.52005 0.74126 0.0
H709 H 0.88923 0.55379 0.61462 0.0
H710 H 0.93002 0.56024 0.66664 0.0
C711 C 0.91307 0.49582 0.76707 0.0
loop_
_geom_bond_atom_site_label_1
_geom_bond_atom_site_label_2
_geom_bond_distance
_geom_bond_site_symmetry_2
_ccdc_geom_bond_type
C0 C1 1.386 . S
C0 C2 1.397 . S
C0 H24 0.931 . S
C1 C0 1.386 . S
C1 C5 1.397 . S
C2 C0 1.397 . S
C2 C3 1.384 . S
C2 H25 0.930 . S
C3 C2 1.384 . S
C3 C4 1.377 . S
C3 C6 1.481 . S
C4 C3 1.377 . S
C4 C5 1.389 . S
C4 H26 0.929 . S
C5 C1 1.397 . S
C5 C4 1.389 . S
C5 H27 0.931 . S
C6 C3 1.481 . S
C6 C7 1.387 . S
C6 C11 1.390 . S
C7 C6 1.387 . S
C7 C8 1.401 . S
C7 H28 0.930 . S
C8 C7 1.401 . S
C8 C9 1.376 . S
C8 C17 1.511 . S
C9 C8 1.376 . S
C9 C10 1.392 . S
C9 H30 0.931 . S
C10 C9 1.392 . S
C10 C11 1.361 . S
C10 C12 1.500 . S
C11 C6 1.390 . S
C11 C10 1.361 . S
C11 H29 0.931 . S
C12 C10 1.500 . S
C12 C13 1.371 . S
C12 C14 1.365 . S
C13 C12 1.371 . S
C13 C23 1.386 . S
C13 H31 0.931 . S
C14 C12 1.365 . S
C14 C15 1.409 . S
C14 H32 0.929 . S
C15 C14 1.409 . S
C15 C16 1.380 . S
C15 H33 0.930 . S
C16 C15 1.380 . S
C16 C23 1.357 . S
C17 C8 1.511 . S
C17 C18 1.341 . S
C17 C19 1.371 . S
C18 C17 1.341 . S
C18 C22 1.394 . S
C18 H34 0.930 . S
C19 C17 1.371 . S
C19 C20 1.392 . S
C19 H35 0.931 . S
C20 C19 1.392 . S
C20 C21 1.331 . S
C20 H38 0.932 . S
C21 C20 1.331 . S
C21 C22 1.336 . S
C22 C18 1.394 . S
C22 C21 1.336 . S
C22 H37 0.929 . S
C23 C13 1.386 . S
C23 C16 1.357 . S
C23 H36 0.928 . S
H24 C0 0.931 . S
H25 C2 0.930 . S
H26 C4 0.929 . S
H27 C5 0.931 . S
H28 C7 0.930 . S
H29 C11 0.931 . S
H30 C9 0.931 . S
H31 C13 0.931 . S
H32 C14 0.929 . S
H33 C15 0.930 . S
H34 C18 0.930 . S
H35 C19 0.931 . S
H36 C23 0.928 . S
H37 C22 0.929 . S
H38 C20 0.932 . S
C39 C40 1.396 . S
C39 C41 1.397 . S
C39 H63 0.931 . S
C40 C39 1.396 . S
C40 C44 1.387 1_655 S
C41 C39 1.397 . S
C41 C42 1.390 . S
C41 H64 0.930 . S
C42 C41 1.390 . S
C42 C43 1.372 1_655 S
C42 C45 1.482 . S
C43 C42 1.372 1_455 S
C43 C44 1.389 . S
C43 H65 0.929 . S
C44 C40 1.387 1_455 S
C44 C43 1.389 . S
C44 H66 0.931 . S
C45 C42 1.482 . S
C45 C46 1.393 . S
C45 C50 1.386 . S
C46 C45 1.393 . S
C46 C47 1.404 . S
C46 H67 0.930 . S
C47 C46 1.404 . S
C47 C48 1.370 . S
C47 C56 1.518 . S
C48 C47 1.370 . S
C48 C49 1.393 . S
C48 H69 0.931 . S
C49 C48 1.393 . S
C49 C50 1.361 . S
C49 C51 1.494 1_655 S
C50 C45 1.386 . S
C50 C49 1.361 . S
C50 H68 0.930 . S
C51 C49 1.494 1_455 S
C51 C52 1.363 1_455 S
C51 C53 1.378 . S
C52 C51 1.363 1_655 S
C52 C62 1.386 . S
C52 H70 0.931 . S
C53 C51 1.378 . S
C53 C54 1.409 . S
C53 H71 0.929 . S
C54 C53 1.409 . S
C54 C55 1.380 . S
C54 H72 0.930 . S
C55 C54 1.380 . S
C55 C62 1.358 1_455 S
C56 C47 1.518 . S
C56 C57 1.341 . S
C56 C58 1.371 1_655 S
C57 C56 1.341 . S
C57 C61 1.394 . S
C57 H73 0.930 . S
C58 C56 1.371 1_455 S
C58 C59 1.392 . S
C58 H74 0.931 . S
C59 C58 1.392 . S
C59 C60 1.317 1_455 S
C59 H77 0.932 . S
C60 C59 1.317 1_655 S
C60 C61 1.346 . S
C61 C57 1.394 . S
C61 C60 1.346 . S
C61 H76 0.929 . S
C62 C52 1.386 . S
C62 C55 1.358 1_655 S
C62 H75 0.928 . S
H63 C39 0.931 . S
H64 C41 0.930 . S
H65 C43 0.929 . S
H66 C44 0.931 . S
H67 C46 0.930 . S
H68 C50 0.930 . S
H69 C48 0.931 . S
H70 C52 0.931 . S
H71 C53 0.929 . S
H72 C54 0.930 . S
H73 C57 0.930 . S
H74 C58 0.931 . S
H75 C62 0.928 . S
H76 C61 0.929 . S
H77 C59 0.932 . S
C78 C79 1.393 . S
C78 C80 1.397 . S
C78 H102 0.931 . S
C79 C78 1.393 . S
C79 C83 1.389 1_565 S
C80 C78 1.397 . S
C80 C81 1.388 . S
C80 H103 0.930 . S
C81 C80 1.388 . S
C81 C82 1.373 1_565 S
C81 C84 1.481 . S
C82 C81 1.373 1_545 S
C82 C83 1.389 . S
C82 H104 0.929 . S
C83 C79 1.389 1_545 S
C83 C82 1.389 . S
C83 H105 0.931 . S
C84 C81 1.481 . S
C84 C85 1.384 . S
C84 C89 1.392 . S
C85 C84 1.384 . S
C85 C86 1.403 . S
C85 H106 0.930 . S
C86 C85 1.403 . S
C86 C87 1.380 . S
C86 C95 1.509 . S
C87 C86 1.380 . S
C87 C88 1.392 . S
C87 H108 0.931 . S
C88 C87 1.392 . S
C88 C89 1.361 . S
C88 C90 1.502 1_565 S
C89 C84 1.392 . S
C89 C88 1.361 . S
C89 H107 0.932 . S
C90 C88 1.502 1_545 S
C90 C91 1.361 1_545 S
C90 C92 1.374 . S
C91 C90 1.361 1_565 S
C91 C101 1.386 . S
C91 H109 0.931 . S
C92 C90 1.374 . S
C92 C93 1.409 . S
C92 H110 0.929 . S
C93 C92 1.409 . S
C93 C94 1.380 . S
C93 H111 0.930 . S
C94 C93 1.380 . S
C94 C101 1.357 1_545 S
C95 C86 1.509 . S
C95 C96 1.341 . S
C95 C97 1.371 1_565 S
C96 C95 1.341 . S
C96 C100 1.394 . S
C96 H112 0.930 . S
C97 C95 1.371 1_545 S
C97 C98 1.392 . S
C97 H113 0.931 . S
C98 C97 1.392 . S
C98 C99 1.325 1_545 S
C98 H116 0.932 . S
C99 C98 1.325 1_565 S
C99 C100 1.346 . S
C100 C96 1.394 . S
C100 C99 1.346 . S
C100 H115 0.929 . S
C101 C91 1.386 . S
C101 C94 1.357 1_565 S
C101 H114 0.928 . S
H102 C78 0.931 . S
H103 C80 0.930 . S
H104 C82 0.929 . S
H105 C83 0.931 . S
H106 C85 0.930 . S
H107 C89 0.932 . S
H108 C87 0.931 . S
H109 C91 0.931 . S
H110 C92 0.929 . S
H111 C93 0.930 . S
H112 C96 0.930 . S
H113 C97 0.931 . S
H114 C101 0.928 . S
H115 C100 0.929 . S
H116 C98 0.932 . S
C117 C118 1.386 . S
C117 C119 1.397 . S
C117 H141 0.931 . S
C118 C117 1.386 . S
C118 C122 1.397 . S
C119 C117 1.397 . S
C119 C120 1.384 . S
C119 H142 0.930 . S
C120 C119 1.384 . S
C120 C121 1.377 . S
C120 C123 1.481 . S
C121 C120 1.377 . S
C121 C122 1.389 . S
C121 H143 0.929 . S
C122 C118 1.397 . S
C122 C121 1.389 . S
C122 H144 0.931 . S
C123 C120 1.481 . S
C123 C124 1.387 . S
C123 C128 1.390 . S
C124 C123 1.387 . S
C124 C125 1.401 . S
C124 H145 0.930 . S
C125 C124 1.401 . S
C125 C126 1.376 . S
C125 C134 1.511 . S
C126 C125 1.376 . S
C126 C127 1.392 . S
C126 H147 0.931 . S
C127 C126 1.392 . S
C127 C128 1.361 . S
C127 C129 1.500 . S
C128 C123 1.390 . S
C128 C127 1.361 . S
C128 H146 0.931 . S
C129 C127 1.500 . S
C129 C130 1.371 1_554 S
C129 C131 1.365 . S
C130 C129 1.371 1_556 S
C130 C140 1.386 . S
C130 H148 0.931 . S
C131 C129 1.365 . S
C131 C132 1.409 . S
C131 H149 0.929 . S
C132 C131 1.409 . S
C132 C133 1.380 1_554 S
C132 H150 0.930 . S
C133 C132 1.380 1_556 S
C133 C140 1.357 . S
C134 C125 1.511 . S
C134 C135 1.341 . S
C134 C136 1.371 . S
C135 C134 1.341 . S
C135 C139 1.394 . S
C135 H151 0.930 . S
C136 C134 1.371 . S
C136 C137 1.392 . S
C136 H152 0.931 . S
C137 C136 1.392 . S
C137 C138 1.331 . S
C137 H155 0.932 . S
C138 C137 1.331 . S
C138 C139 1.336 . S
C139 C135 1.394 . S
C139 C138 1.336 . S
C139 H154 0.929 . S
C140 C130 1.386 . S
C140 C133 1.357 . S
C140 H153 0.928 . S
H141 C117 0.931 . S
H142 C119 0.930 . S
H143 C121 0.929 . S
H144 C122 0.931 . S
H145 C124 0.930 . S
H146 C128 0.931 . S
H147 C126 0.931 . S
H148 C130 0.931 . S
H149 C131 0.929 . S
H150 C132 0.930 . S
H151 C135 0.930 . S
H152 C136 0.931 . S
H153 C140 0.928 . S
H154 C139 0.929 . S
H155 C137 0.932 . S
C156 C157 1.386 . S
C156 C158 1.397 . S
C156 H180 0.931 . S
C157 C156 1.386 . S
C157 C161 1.397 . S
C158 C156 1.397 . S
C158 C159 1.384 . S
C158 H181 0.930 . S
C159 C158 1.384 . S
C159 C160 1.377 . S
C159 C162 1.481 . S
C160 C159 1.377 . S
C160 C161 1.389 . S
C160 H182 0.929 . S
C161 C157 1.397 . S
C161 C160 1.389 . S
C161 H183 0.931 . S
C162 C159 1.481 . S
C162 C163 1.387 . S
C162 C167 1.390 1_554 S
C163 C162 1.387 . S
C163 C164 1.401 . S
C163 H184 0.930 . S
C164 C163 1.401 . S
C164 C165 1.376 1_554 S
C164 C173 1.511 . S
C165 C164 1.376 1_556 S
C165 C166 1.392 . S
C165 H186 0.931 . S
C166 C165 1.392 . S
C166 C167 1.361 . S
C166 C168 1.500 . S
C167 C162 1.390 1_556 S
C167 C166 1.361 . S
C167 H185 0.931 . S
C168 C166 1.500 . S
C168 C169 1.371 . S
C168 C170 1.365 . S
C169 C168 1.371 . S
C169 C179 1.386 . S
C169 H187 0.931 . S
C170 C168 1.365 . S
C170 C171 1.409 . S
C170 H188 0.929 . S
C171 C170 1.409 . S
C171 C172 1.380 . S
C171 H189 0.930 . S
C172 C171 1.380 . S
C172 C179 1.357 . S
C173 C164 1.511 . S
C173 C174 1.341 . S
C173 C175 1.371 1_554 S
C174 C173 1.341 . S
C174 C178 1.394 . S
C174 H190 0.930 . S
C175 C173 1.371 1_556 S
C175 C176 1.392 . S
C175 H191 0.931 . S
C176 C175 1.392 . S
C176 C177 1.331 1_556 S
C176 H194 0.932 . S
C177 C176 1.331 1_554 S
C177 C178 1.336 . S
C178 C174 1.394 . S
C178 C177 1.336 . S
C178 H193 0.929 . S
C179 C169 1.386 . S
C179 C172 1.357 . S
C179 H192 0.928 . S
H180 C156 0.931 . S
H181 C158 0.930 . S
H182 C160 0.929 . S
H183 C161 0.931 . S
H184 C163 0.930 . S
H185 C167 0.931 . S
H186 C165 0.931 . S
H187 C169 0.931 . S
H188 C170 0.929 . S
H189 C171 0.930 . S
H190 C174 0.930 . S
H191 C175 0.931 . S
H192 C179 0.928 . S
H193 C178 0.929 . S
H194 C176 0.932 . S
C195 C196 1.388 . S
C195 C197 1.397 . S
C195 H219 0.931 . S
C196 C195 1.388 . S
C196 C200 1.396 1_655 S
C197 C195 1.397 . S
C197 C198 1.383 . S
C197 H220 0.930 . S
C198 C197 1.383 . S
C198 C199 1.378 1_655 S
C198 C201 1.479 . S
C199 C198 1.378 1_455 S
C199 C200 1.389 . S
C199 H221 0.929 . S
C200 C196 1.396 1_455 S
C200 C199 1.389 . S
C200 H222 0.931 . S
C201 C198 1.479 . S
C201 C202 1.385 . S
C201 C206 1.394 . S
C202 C201 1.385 . S
C202 C203 1.401 . S
C202 H223 0.930 . S
C203 C202 1.401 . S
C203 C204 1.373 . S
C203 C212 1.509 . S
C204 C203 1.373 . S
C204 C205 1.396 1_655 S
C204 H225 0.935 . S
C205 C204 1.396 1_455 S
C205 C206 1.361 1_455 S
C205 C207 1.506 1_554 S
C206 C201 1.394 . S
C206 C205 1.361 1_655 S
C206 H224 0.932 . S
C207 C205 1.506 1_556 S
C207 C208 1.355 1_455 S
C207 C209 1.376 . S
C208 C207 1.355 1_655 S
C208 C218 1.386 . S
C208 H226 0.931 . S
C209 C207 1.376 . S
C209 C210 1.409 . S
C209 H227 0.929 . S
C210 C209 1.409 . S
C210 C211 1.385 . S
C210 H228 0.930 . S
C211 C210 1.385 . S
C211 C218 1.354 1_455 S
C212 C203 1.509 . S
C212 C213 1.341 . S
C212 C214 1.371 1_655 S
C213 C212 1.341 . S
C213 C217 1.394 . S
C213 H229 0.930 . S
C214 C212 1.371 1_455 S
C214 C215 1.392 . S
C214 H230 0.931 . S
C215 C214 1.392 . S
C215 C216 1.329 1_455 S
C215 H233 0.932 . S
C216 C215 1.329 1_655 S
C216 C217 1.341 . S
C217 C213 1.394 . S
C217 C216 1.341 . S
C217 H232 0.929 . S
C218 C208 1.386 . S
C218 C211 1.354 1_655 S
C218 H231 0.928 . S
H219 C195 0.931 . S
H220 C197 0.930 . S
H221 C199 0.929 . S
H222 C200 0.931 . S
H223 C202 0.930 . S
H224 C206 0.932 . S
H225 C204 0.935 . S
H226 C208 0.931 . S
H227 C209 0.929 . S
H228 C210 0.930 . S
H229 C213 0.930 . S
H230 C214 0.931 . S
H231 C218 0.928 . S
H232 C217 0.929 . S
H233 C215 0.932 . S
C234 C235 1.390 . S
C234 C236 1.397 . S
C234 H258 0.931 . S
C235 C234 1.390 . S
C235 C239 1.394 1_565 S
C236 C234 1.397 . S
C236 C237 1.383 . S
C236 H259 0.930 . S
C237 C236 1.383 . S
C237 C238 1.378 1_565 S
C237 C240 1.480 . S
C238 C237 1.378 1_545 S
C238 C239 1.389 . S
C238 H260 0.929 . S
C239 C235 1.394 1_545 S
C239 C238 1.389 . S
C239 H261 0.931 . S
C240 C237 1.480 . S
C240 C241 1.391 . S
C240 C245 1.389 . S
C241 C240 1.391 . S
C241 C242 1.401 . S
C241 H262 0.930 . S
C242 C241 1.401 . S
C242 C243 1.377 . S
C242 C251 1.515 . S
C243 C242 1.377 . S
C243 C244 1.386 . S
C243 H264 0.935 . S
C244 C243 1.386 . S
C244 C245 1.361 . S
C244 C246 1.497 1_565 S
C245 C240 1.389 . S
C245 C244 1.361 . S
C245 H263 0.930 . S
C246 C244 1.497 1_545 S
C246 C247 1.356 1_544 S
C246 C248 1.384 . S
C247 C246 1.356 1_566 S
C247 C257 1.386 . S
C247 H265 0.931 1_556 S
C248 C246 1.384 . S
C248 C249 1.409 1_554 S
C248 H266 0.929 . S
C249 C248 1.409 1_556 S
C249 C250 1.385 . S
C249 H267 0.930 . S
C250 C249 1.385 . S
C250 C257 1.352 1_545 S
C251 C242 1.515 . S
C251 C252 1.341 . S
C251 C253 1.371 1_565 S
C252 C251 1.341 . S
C252 C256 1.394 . S
C252 H268 0.930 . S
C253 C251 1.371 1_545 S
C253 C254 1.392 . S
C253 H269 0.931 . S
C254 C253 1.392 . S
C254 C255 1.323 1_545 S
C254 H272 0.932 . S
C255 C254 1.323 1_565 S
C255 C256 1.342 . S
C256 C252 1.394 . S
C256 C255 1.342 . S
C256 H271 0.929 . S
C257 C247 1.386 . S
C257 C250 1.352 1_565 S
C257 H270 0.928 . S
H258 C234 0.931 . S
H259 C236 0.930 . S
H260 C238 0.929 . S
H261 C239 0.931 . S
H262 C241 0.930 . S
H263 C245 0.930 . S
H264 C243 0.935 . S
H265 C247 0.931 1_554 S
H266 C248 0.929 . S
H267 C249 0.930 . S
H268 C252 0.930 . S
H269 C253 0.931 . S
H270 C257 0.928 . S
H271 C256 0.929 . S
H272 C254 0.932 . S
C273 C274 1.386 . S
C273 C275 1.397 . S
C273 H297 0.931 . S
C274 C273 1.386 . S
C274 C278 1.397 . S
C275 C273 1.397 . S
C275 C276 1.384 . S
C275 H298 0.930 . S
C276 C275 1.384 . S
C276 C277 1.377 . S
C276 C279 1.481 . S
C277 C276 1.377 . S
C277 C278 1.389 . S
C277 H299 0.929 . S
C278 C274 1.397 . S
C278 C277 1.389 . S
C278 H300 0.931 . S
C279 C276 1.481 . S
C279 C280 1.387 . S
C279 C284 1.390 . S
C280 C279 1.387 . S
C280 C281 1.401 . S
C280 H301 0.930 . S
C281 C280 1.401 . S
C281 C282 1.376 . S
C281 C290 1.511 . S
C282 C281 1.376 . S
C282 C283 1.392 . S
C282 H303 0.931 . S
C283 C282 1.392 . S
C283 C284 1.361 . S
C283 C285 1.500 . S
C284 C279 1.390 . S
C284 C283 1.361 . S
C284 H302 0.931 . S
C285 C283 1.500 . S
C285 C286 1.371 . S
C285 C287 1.365 . S
C286 C285 1.371 . S
C286 C296 1.386 . S
C286 H304 0.931 . S
C287 C285 1.365 . S
C287 C288 1.409 . S
C287 H305 0.929 . S
C288 C287 1.409 . S
C288 C289 1.380 . S
C288 H306 0.930 . S
C289 C288 1.380 . S
C289 C296 1.357 . S
C290 C281 1.511 . S
C290 C291 1.341 . S
C290 C292 1.371 . S
C291 C290 1.341 . S
C291 C295 1.394 . S
C291 H307 0.930 . S
C292 C290 1.371 . S
C292 C293 1.392 . S
C292 H308 0.931 . S
C293 C292 1.392 . S
C293 C294 1.331 . S
C293 H311 0.932 . S
C294 C293 1.331 . S
C294 C295 1.336 . S
C295 C291 1.394 . S
C295 C294 1.336 . S
C295 H310 0.929 . S
C296 C286 1.386 . S
C296 C289 1.357 . S
C296 H309 0.928 . S
H297 C273 0.931 . S
H298 C275 0.930 . S
H299 C277 0.929 . S
H300 C278 0.931 . S
H301 C280 0.930 . S
H302 C284 0.931 . S
H303 C282 0.931 . S
H304 C286 0.931 . S
H305 C287 0.929 . S
H306 C288 0.930 . S
H307 C291 0.930 . S
H308 C292 0.931 . S
H309 C296 0.928 . S
H310 C295 0.929 . S
H311 C293 0.932 . S
Dy312 O315 2.307 1_545 S
Dy312 O317 2.395 1_655 S
Dy312 O318 2.379 . S
Dy312 O320 2.339 . S
Dy312 O322 2.298 . S
Dy312 O326 2.275 1_655 S
Dy312 C334 2.738 . S
Dy313 O316 2.298 . S
Dy313 O319 2.275 1_455 S
Dy313 O321 2.307 1_565 S
Dy313 O323 2.381 1_455 S
Dy313 O324 2.379 . S
Dy313 O327 2.339 . S
Dy313 C343 2.738 . S
C314 O326 1.254 1_565 S
C314 O327 1.257 . S
O315 Dy312 2.307 1_565 S
O315 C325 1.266 . S
O316 Dy313 2.298 . S
O316 C325 1.236 1_455 S
O317 Dy312 2.395 1_455 S
O317 C334 1.255 1_455 S
O318 Dy312 2.379 . S
O318 C334 1.249 . S
O319 Dy313 2.275 1_655 S
O319 C335 1.254 1_565 S
O320 Dy312 2.339 . S
O320 C335 1.257 . S
O321 Dy313 2.307 1_545 S
O321 C336 1.266 . S
O322 Dy312 2.298 . S
O322 C336 1.236 1_655 S
O323 Dy313 2.381 1_655 S
O323 C343 1.224 1_655 S
O324 Dy313 2.379 . S
O324 C343 1.249 . S
C325 O315 1.266 . S
C325 O316 1.236 1_655 S
O326 Dy312 2.275 1_455 S
O326 C314 1.254 1_545 S
O327 Dy313 2.339 . S
O327 C314 1.257 . S
C328 C331 1.344 . S
C328 C332 1.328 . S
C328 C334 1.516 . S
C329 C330 1.304 . S
C329 C333 1.323 . S
C330 C329 1.304 . S
C330 C331 1.371 . S
C330 H344 0.930 1_655 S
C331 C328 1.344 . S
C331 C330 1.371 . S
C331 H345 0.931 1_655 S
C332 C328 1.328 . S
C332 C333 1.433 . S
C332 H346 0.931 . S
C333 C329 1.323 . S
C333 C332 1.433 . S
C333 H347 0.933 . S
C334 Dy312 2.738 . S
C334 O317 1.255 1_655 S
C334 O318 1.249 . S
C334 C328 1.516 . S
C335 O319 1.254 1_545 S
C335 O320 1.257 . S
C336 O321 1.266 . S
C336 O322 1.236 1_455 S
C337 C340 1.344 1_556 S
C337 C341 1.328 1_556 S
C337 C343 1.516 . S
C338 C339 1.304 . S
C338 C342 1.323 . S
C339 C338 1.304 . S
C339 C340 1.371 . S
C339 H348 0.930 1_455 S
C340 C337 1.344 1_554 S
C340 C339 1.371 . S
C340 H349 0.931 1_455 S
C341 C337 1.328 1_554 S
C341 C342 1.433 . S
C341 H350 0.931 1_554 S
C342 C338 1.323 . S
C342 C341 1.433 . S
C342 H351 0.933 . S
C343 Dy313 2.738 . S
C343 O323 1.224 1_455 S
C343 O324 1.249 . S
C343 C337 1.516 . S
H344 C330 0.930 1_455 S
H345 C331 0.931 1_455 S
H346 C332 0.931 . S
H347 C333 0.933 . S
H348 C339 0.930 1_655 S
H349 C340 0.931 1_655 S
H350 C341 0.931 1_556 S
H351 C342 0.933 . S
Dy352 O355 2.307 . S
Dy352 O357 2.395 1_565 S
Dy352 O358 2.379 . S
Dy352 O360 2.339 . S
Dy352 O362 2.298 . S
Dy352 O366 2.275 1_565 S
Dy352 C374 2.738 . S
Dy353 O356 2.298 . S
Dy353 O359 2.275 1_545 S
Dy353 O361 2.307 . S
Dy353 O363 2.395 1_545 S
Dy353 O364 2.379 . S
Dy353 O367 2.339 . S
Dy353 C383 2.738 . S
C354 O366 1.254 . S
C354 O367 1.257 . S
O355 Dy352 2.307 . S
O355 C365 1.266 . S
O356 Dy353 2.298 . S
O356 C365 1.236 1_545 S
O357 Dy352 2.395 1_545 S
O357 C374 1.255 1_545 S
O358 Dy352 2.379 . S
O358 C374 1.249 . S
O359 Dy353 2.275 1_565 S
O359 C375 1.254 . S
O360 Dy352 2.339 . S
O360 C375 1.257 . S
O361 Dy353 2.307 . S
O361 C376 1.266 . S
O362 Dy352 2.298 . S
O362 C376 1.236 1_565 S
O363 Dy353 2.395 1_565 S
O363 C383 1.255 1_565 S
O364 Dy353 2.379 . S
O364 C383 1.249 . S
C365 O355 1.266 . S
C365 O356 1.236 1_565 S
O366 Dy352 2.275 1_545 S
O366 C354 1.254 . S
O367 Dy353 2.339 . S
O367 C354 1.257 . S
C368 C371 1.344 . S
C368 C372 1.328 . S
C368 C374 1.516 . S
C369 C370 1.304 . S
C369 C373 1.323 . S
C370 C369 1.304 . S
C370 C371 1.371 . S
C370 H384 0.930 1_565 S
C371 C368 1.344 . S
C371 C370 1.371 . S
C371 H385 0.931 1_565 S
C372 C368 1.328 . S
C372 C373 1.433 . S
C372 H386 0.931 . S
C373 C369 1.323 . S
C373 C372 1.433 . S
C373 H387 0.933 . S
C374 Dy352 2.738 . S
C374 O357 1.255 1_565 S
C374 O358 1.249 . S
C374 C368 1.516 . S
C375 O359 1.254 . S
C375 O360 1.257 . S
C376 O361 1.266 . S
C376 O362 1.236 1_545 S
C377 C380 1.344 . S
C377 C381 1.328 1_556 S
C377 C383 1.516 . S
C378 C379 1.304 . S
C378 C382 1.323 . S
C379 C378 1.304 . S
C379 C380 1.371 1_554 S
C379 H388 0.930 1_545 S
C380 C377 1.344 . S
C380 C379 1.371 1_556 S
C380 H389 0.931 1_545 S
C381 C377 1.328 1_554 S
C381 C382 1.433 . S
C381 H390 0.931 . S
C382 C378 1.323 . S
C382 C381 1.433 . S
C382 H391 0.933 . S
C383 Dy353 2.738 . S
C383 O363 1.255 1_545 S
C383 O364 1.249 . S
C383 C377 1.516 . S
H384 C370 0.930 1_545 S
H385 C371 0.931 1_545 S
H386 C372 0.931 . S
H387 C373 0.933 . S
H388 C379 0.930 1_565 S
H389 C380 0.931 1_565 S
H390 C381 0.931 . S
H391 C382 0.933 . S
Dy392 O395 2.307 . S
Dy392 O397 2.395 . S
Dy392 O398 2.379 . S
Dy392 O400 2.339 . S
Dy392 O402 2.298 . S
Dy392 O406 2.275 . S
Dy392 C414 2.738 . S
Dy393 O396 2.298 . S
Dy393 O399 2.275 . S
Dy393 O401 2.307 . S
Dy393 O403 2.395 . S
Dy393 O404 2.379 . S
Dy393 O407 2.339 . S
Dy393 C423 2.738 . S
C394 O406 1.254 . S
C394 O407 1.257 . S
O395 Dy392 2.307 . S
O395 C405 1.266 . S
O396 Dy393 2.298 . S
O396 C405 1.236 . S
O397 Dy392 2.395 . S
O397 C414 1.255 . S
O398 Dy392 2.379 . S
O398 C414 1.249 . S
O399 Dy393 2.275 . S
O399 C415 1.254 . S
O400 Dy392 2.339 . S
O400 C415 1.257 . S
O401 Dy393 2.307 . S
O401 C416 1.266 . S
O402 Dy392 2.298 . S
O402 C416 1.236 . S
O403 Dy393 2.395 . S
O403 C423 1.255 . S
O404 Dy393 2.379 . S
O404 C423 1.249 . S
C405 O395 1.266 . S
C405 O396 1.236 . S
O406 Dy392 2.275 . S
O406 C394 1.254 . S
O407 Dy393 2.339 . S
O407 C394 1.257 . S
C408 C411 1.344 1_556 S
C408 C412 1.328 . S
C408 C414 1.516 . S
C409 C410 1.304 . S
C409 C413 1.323 1_554 S
C410 C409 1.304 . S
C410 C411 1.371 . S
C410 H424 0.930 . S
C411 C408 1.344 1_554 S
C411 C410 1.371 . S
C411 H425 0.931 . S
C412 C408 1.328 . S
C412 C413 1.433 . S
C412 H426 0.931 . S
C413 C409 1.323 1_556 S
C413 C412 1.433 . S
C413 H427 0.933 . S
C414 Dy392 2.738 . S
C414 O397 1.255 . S
C414 O398 1.249 . S
C414 C408 1.516 . S
C415 O399 1.254 . S
C415 O400 1.257 . S
C416 O401 1.266 . S
C416 O402 1.236 . S
C417 C420 1.344 . S
C417 C421 1.328 . S
C417 C423 1.516 . S
C418 C419 1.304 . S
C418 C422 1.323 . S
C419 C418 1.304 . S
C419 C420 1.371 . S
C419 H428 0.930 . S
C420 C417 1.344 . S
C420 C419 1.371 . S
C420 H429 0.931 . S
C421 C417 1.328 . S
C421 C422 1.433 . S
C421 H430 0.931 . S
C422 C418 1.323 . S
C422 C421 1.433 . S
C422 H431 0.933 . S
C423 Dy393 2.738 . S
C423 O403 1.255 . S
C423 O404 1.249 . S
C423 C417 1.516 . S
H424 C410 0.930 . S
H425 C411 0.931 . S
H426 C412 0.931 . S
H427 C413 0.933 . S
H428 C419 0.930 . S
H429 C420 0.931 . S
H430 C421 0.931 . S
H431 C422 0.933 . S
Dy432 O435 2.307 1_455 S
Dy432 O437 2.395 . S
Dy432 O438 2.379 . S
Dy432 O440 2.339 . S
Dy432 O442 2.298 . S
Dy432 O446 2.275 . S
Dy432 C454 2.738 . S
Dy433 O436 2.298 . S
Dy433 O439 2.275 . S
Dy433 O441 2.307 1_655 S
Dy433 O443 2.395 . S
Dy433 O444 2.379 . S
Dy433 O447 2.339 . S
Dy433 C463 2.738 . S
C434 O446 1.254 1_655 S
C434 O447 1.257 . S
O435 Dy432 2.307 1_655 S
O435 C445 1.266 . S
O436 Dy433 2.298 . S
O436 C445 1.236 . S
O437 Dy432 2.395 . S
O437 C454 1.255 . S
O438 Dy432 2.379 . S
O438 C454 1.249 . S
O439 Dy433 2.275 . S
O439 C455 1.254 1_655 S
O440 Dy432 2.339 . S
O440 C455 1.257 . S
O441 Dy433 2.307 1_455 S
O441 C456 1.266 . S
O442 Dy432 2.298 . S
O442 C456 1.236 . S
O443 Dy433 2.395 . S
O443 C463 1.255 . S
O444 Dy433 2.379 . S
O444 C463 1.249 . S
C445 O435 1.266 . S
C445 O436 1.236 . S
O446 Dy432 2.275 . S
O446 C434 1.254 1_455 S
O447 Dy433 2.339 . S
O447 C434 1.257 . S
C448 C451 1.344 . S
C448 C452 1.328 . S
C448 C454 1.516 . S
C449 C450 1.304 . S
C449 C453 1.323 . S
C450 C449 1.304 . S
C450 C451 1.371 . S
C450 H464 0.930 . S
C451 C448 1.344 . S
C451 C450 1.371 . S
C451 H465 0.931 . S
C452 C448 1.328 . S
C452 C453 1.433 . S
C452 H466 0.931 . S
C453 C449 1.323 . S
C453 C452 1.433 . S
C453 H467 0.933 . S
C454 Dy432 2.738 . S
C454 O437 1.255 . S
C454 O438 1.249 . S
C454 C448 1.516 . S
C455 O439 1.254 1_455 S
C455 O440 1.257 . S
C456 O441 1.266 . S
C456 O442 1.236 . S
C457 C460 1.344 . S
C457 C461 1.328 . S
C457 C463 1.516 1_554 S
C458 C459 1.304 . S
C458 C462 1.323 . S
C459 C458 1.304 . S
C459 C460 1.371 . S
C459 H468 0.930 . S
C460 C457 1.344 . S
C460 C459 1.371 . S
C460 H469 0.931 . S
C461 C457 1.328 . S
C461 C462 1.433 . S
C461 H470 0.931 . S
C462 C458 1.323 . S
C462 C461 1.433 . S
C462 H471 0.933 . S
C463 Dy433 2.738 . S
C463 O443 1.255 . S
C463 O444 1.249 . S
C463 C457 1.516 1_556 S
H464 C450 0.930 . S
H465 C451 0.931 . S
H466 C452 0.931 . S
H467 C453 0.933 . S
H468 C459 0.930 . S
H469 C460 0.931 . S
H470 C461 0.931 . S
H471 C462 0.933 . S
C472 C473 1.397 . S
C472 H476 0.950 . S
C472 C481 1.390 . S
C473 C472 1.397 . S
C473 C475 1.377 1_545 S
H474 C481 0.950 . S
C475 C473 1.377 1_565 S
C475 C477 1.390 . S
C475 H479 0.950 . S
H476 C472 0.950 . S
C477 C475 1.390 . S
C477 C478 1.364 1_565 S
C477 H480 0.950 . S
C478 C477 1.364 1_545 S
C478 C481 1.414 . S
H479 C475 0.950 . S
H480 C477 0.950 . S
C481 C472 1.390 . S
C481 H474 0.950 . S
C481 C478 1.414 . S
C482 C483 1.387 . S
C482 H486 0.950 . S
C482 C491 1.390 . S
C483 C482 1.387 . S
C483 C485 1.387 . S
H484 C491 0.950 . S
C485 C483 1.387 . S
C485 C487 1.390 . S
C485 H489 0.950 . S
H486 C482 0.950 . S
C487 C485 1.390 . S
C487 C488 1.387 . S
C487 H490 0.950 . S
C488 C487 1.387 . S
C488 C491 1.387 . S
H489 C485 0.950 . S
H490 C487 0.950 . S
C491 C482 1.390 . S
C491 H484 0.950 . S
C491 C488 1.387 . S
C492 C493 1.387 . S
C492 H496 0.950 . S
C492 C501 1.390 . S
C493 C492 1.387 . S
C493 C495 1.387 . S
H494 C501 0.950 . S
C495 C493 1.387 . S
C495 C497 1.390 . S
C495 H499 0.950 . S
H496 C492 0.950 . S
C497 C495 1.390 . S
C497 C498 1.387 . S
C497 H500 0.950 . S
C498 C497 1.387 . S
C498 C501 1.387 . S
H499 C495 0.950 . S
H500 C497 0.950 . S
C501 C492 1.390 . S
C501 H494 0.950 . S
C501 C498 1.387 . S
C502 C503 1.409 . S
C502 H506 0.950 . S
C502 C511 1.390 . S
C503 C502 1.409 . S
C503 C505 1.372 1_455 S
H504 C511 0.950 . S
C505 C503 1.372 1_655 S
C505 C507 1.390 . S
C505 H509 0.950 . S
H506 C502 0.950 . S
C507 C505 1.390 . S
C507 C508 1.387 1_655 S
C507 H510 0.950 . S
C508 C507 1.387 1_455 S
C508 C511 1.387 . S
H509 C505 0.950 . S
H510 C507 0.950 . S
C511 C502 1.390 . S
C511 H504 0.950 . S
C511 C508 1.387 . S
C512 C513 1.384 1_545 S
C512 H516 0.950 . S
C512 C521 1.390 . S
C513 C512 1.384 1_565 S
C513 C515 1.391 . S
H514 C521 0.950 . S
C515 C513 1.391 . S
C515 C517 1.390 . S
C515 H519 0.950 . S
H516 C512 0.950 . S
C517 C515 1.390 . S
C517 C518 1.404 1_554 S
C517 H520 0.950 . S
C518 C517 1.404 1_556 S
C518 C521 1.372 1_566 S
H519 C515 0.950 . S
H520 C517 0.950 . S
C521 C512 1.390 . S
C521 H514 0.950 . S
C521 C518 1.372 1_544 S
C522 C523 1.387 1_556 S
C522 H526 0.950 . S
C522 C531 1.390 . S
C523 C522 1.387 1_554 S
C523 C525 1.387 . S
H524 C531 0.950 . S
C525 C523 1.387 . S
C525 C527 1.390 1_554 S
C525 H529 0.950 . S
H526 C522 0.950 . S
C527 C525 1.390 1_556 S
C527 C528 1.387 . S
C527 H530 0.950 1_556 S
C528 C527 1.387 . S
C528 C531 1.387 . S
H529 C525 0.950 . S
H530 C527 0.950 1_554 S
C531 C522 1.390 . S
C531 H524 0.950 . S
C531 C528 1.387 . S
C532 C533 1.387 . S
C532 H536 0.950 . S
C532 C541 1.390 . S
C533 C532 1.387 . S
C533 C535 1.387 . S
H534 C541 0.950 . S
C535 C533 1.387 . S
C535 C537 1.390 . S
C535 H539 0.950 . S
H536 C532 0.950 . S
C537 C535 1.390 . S
C537 C538 1.387 . S
C537 H540 0.950 . S
C538 C537 1.387 . S
C538 C541 1.387 . S
H539 C535 0.950 . S
H540 C537 0.950 . S
C541 C532 1.390 . S
C541 H534 0.950 . S
C541 C538 1.387 . S
C542 C543 1.396 . S
C542 H546 0.950 . S
C542 C551 1.390 . S
C543 C542 1.396 . S
C543 C545 1.385 1_655 S
H544 C551 0.950 . S
C545 C543 1.385 1_455 S
C545 C547 1.399 . S
C545 H549 0.950 . S
H546 C542 0.950 . S
C547 C545 1.399 . S
C547 C548 1.375 1_455 S
C547 H550 0.956 . S
C548 C547 1.375 1_655 S
C548 C551 1.387 . S
H549 C545 0.950 . S
H550 C547 0.956 . S
C551 C542 1.390 . S
C551 H544 0.950 . S
C551 C548 1.387 . S
C552 C553 1.387 1_655 S
C552 H556 0.950 1_655 S
C552 C561 1.390 . S
C553 C552 1.387 1_455 S
C553 C555 1.387 1_455 S
H554 C561 0.950 . S
C555 C553 1.387 1_655 S
C555 C557 1.390 . S
C555 H559 0.950 . S
H556 C552 0.950 1_455 S
C557 C555 1.390 . S
C557 C558 1.387 . S
C557 H560 0.950 . S
C558 C557 1.387 . S
C558 C561 1.387 . S
H559 C555 0.950 . S
H560 C557 0.950 . S
C561 C552 1.390 . S
C561 H554 0.950 . S
C561 C558 1.387 . S
C562 C563 1.387 . S
C562 H566 0.950 . S
C562 C571 1.390 . S
C563 C562 1.387 . S
C563 C565 1.387 . S
H564 C571 0.950 . S
C565 C563 1.387 . S
C565 C567 1.390 . S
C565 H569 0.950 1_565 S
H566 C562 0.950 . S
C567 C565 1.390 . S
C567 C568 1.387 . S
C567 H570 0.950 . S
C568 C567 1.387 . S
C568 C571 1.387 . S
H569 C565 0.950 1_545 S
H570 C567 0.950 . S
C571 C562 1.390 . S
C571 H564 0.950 . S
C571 C568 1.387 . S
C572 C573 1.387 . S
C572 H576 0.950 . S
C572 C581 1.390 . S
C573 C572 1.387 . S
C573 C575 1.387 . S
H574 C581 0.950 . S
C575 C573 1.387 . S
C575 C577 1.390 . S
C575 H579 0.950 . S
H576 C572 0.950 . S
C577 C575 1.390 . S
C577 C578 1.387 . S
C577 H580 0.950 . S
C578 C577 1.387 . S
C578 C581 1.387 . S
H579 C575 0.950 . S
H580 C577 0.950 . S
C581 C572 1.390 . S
C581 H574 0.950 . S
C581 C578 1.387 . S
C582 C583 1.387 . S
C582 H586 0.950 . S
C582 C591 1.390 . S
C583 C582 1.387 . S
C583 C585 1.387 . S
H584 C591 0.950 . S
C585 C583 1.387 . S
C585 C587 1.390 . S
C585 H589 0.950 . S
H586 C582 0.950 . S
C587 C585 1.390 . S
C587 C588 1.387 . S
C587 H590 0.950 . S
C588 C587 1.387 . S
C588 C591 1.387 . S
H589 C585 0.950 . S
H590 C587 0.950 . S
C591 C582 1.390 . S
C591 H584 0.950 . S
C591 C588 1.387 . S
C592 C593 1.387 1_455 S
C592 H596 0.950 1_455 S
C592 C601 1.390 . S
C593 C592 1.387 1_655 S
C593 C595 1.387 1_655 S
H594 C601 0.950 . S
C595 C593 1.387 1_455 S
C595 C597 1.390 . S
C595 H599 0.950 . S
H596 C592 0.950 1_655 S
C597 C595 1.390 . S
C597 C598 1.387 . S
C597 H600 0.954 . S
C598 C597 1.387 . S
C598 C601 1.387 . S
H599 C595 0.950 . S
H600 C597 0.954 . S
C601 C592 1.390 . S
C601 H594 0.950 . S
C601 C598 1.387 . S
C602 C603 1.387 . S
C602 H606 0.950 . S
C602 C611 1.390 . S
C603 C602 1.387 . S
C603 C605 1.387 . S
H604 C611 0.950 . S
C605 C603 1.387 . S
C605 C607 1.390 . S
C605 H609 0.950 1_544 S
H606 C602 0.950 . S
C607 C605 1.390 . S
C607 C608 1.387 . S
C607 H610 0.950 1_554 S
C608 C607 1.387 . S
C608 C611 1.387 . S
H609 C605 0.950 1_566 S
H610 C607 0.950 1_556 S
C611 C602 1.390 . S
C611 H604 0.950 . S
C611 C608 1.387 . S
C612 C613 1.387 . S
C612 H616 0.950 . S
C612 C621 1.390 . S
C613 C612 1.387 . S
C613 C615 1.387 . S
H614 C621 0.950 . S
C615 C613 1.387 . S
C615 C617 1.390 1_556 S
C615 H619 0.950 1_556 S
H616 C612 0.950 . S
C617 C615 1.390 1_554 S
C617 C618 1.387 1_554 S
C617 H620 0.950 . S
C618 C617 1.387 1_556 S
C618 C621 1.387 . S
H619 C615 0.950 1_554 S
H620 C617 0.950 . S
C621 C612 1.390 . S
C621 H614 0.950 . S
C621 C618 1.387 . S
C622 C623 1.387 . S
C622 H626 0.950 . S
C622 C631 1.390 . S
C623 C622 1.387 . S
C623 C625 1.387 . S
H624 C631 0.950 . S
C625 C623 1.387 . S
C625 C627 1.390 . S
C625 H629 0.950 . S
H626 C622 0.950 . S
C627 C625 1.390 . S
C627 C628 1.387 . S
C627 H630 0.950 . S
C628 C627 1.387 . S
C628 C631 1.387 . S
H629 C625 0.950 . S
H630 C627 0.950 . S
C631 C622 1.390 . S
C631 H624 0.950 . S
C631 C628 1.387 . S
C632 C633 1.387 . S
C632 H636 0.950 . S
C632 C641 1.390 . S
C633 C632 1.387 . S
C633 C635 1.387 1_455 S
H634 C641 0.950 . S
C635 C633 1.387 1_655 S
C635 C637 1.390 . S
C635 H639 0.950 . S
H636 C632 0.950 . S
C637 C635 1.390 . S
C637 C638 1.387 1_655 S
C637 H640 0.950 . S
C638 C637 1.387 1_455 S
C638 C641 1.387 . S
H639 C635 0.950 . S
H640 C637 0.950 . S
C641 C632 1.390 . S
C641 H634 0.950 . S
C641 C638 1.387 . S
C642 C643 1.387 . S
C642 H646 0.950 . S
C642 C651 1.390 . S
C643 C642 1.387 . S
C643 C645 1.387 1_545 S
H644 C651 0.950 . S
C645 C643 1.387 1_565 S
C645 C647 1.390 . S
C645 H649 0.950 . S
H646 C642 0.950 . S
C647 C645 1.390 . S
C647 C648 1.387 1_565 S
C647 H650 0.950 . S
C648 C647 1.387 1_545 S
C648 C651 1.387 . S
H649 C645 0.950 . S
H650 C647 0.950 . S
C651 C642 1.390 . S
C651 H644 0.950 . S
C651 C648 1.387 . S
C652 C653 1.387 . S
C652 H656 0.950 . S
C652 C661 1.390 . S
C653 C652 1.387 . S
C653 C655 1.387 1_554 S
H654 C661 0.950 . S
C655 C653 1.387 1_556 S
C655 C657 1.390 . S
C655 H659 0.950 . S
H656 C652 0.950 . S
C657 C655 1.390 . S
C657 C658 1.387 . S
C657 H660 0.950 . S
C658 C657 1.387 . S
C658 C661 1.387 1_556 S
H659 C655 0.950 . S
H660 C657 0.950 . S
C661 C652 1.390 . S
C661 H654 0.950 . S
C661 C658 1.387 1_554 S
C662 C663 1.387 . S
C662 H666 0.950 . S
C662 C671 1.390 . S
C663 C662 1.387 . S
C663 C665 1.387 . S
H664 C671 0.950 . S
C665 C663 1.387 . S
C665 C667 1.390 . S
C665 H669 0.950 . S
H666 C662 0.950 . S
C667 C665 1.390 . S
C667 C668 1.387 . S
C667 H670 0.950 . S
C668 C667 1.387 . S
C668 C671 1.387 . S
H669 C665 0.950 . S
H670 C667 0.950 . S
C671 C662 1.390 . S
C671 H664 0.950 . S
C671 C668 1.387 . S
C672 C673 1.387 . S
C672 H676 0.950 . S
C672 C681 1.390 . S
C673 C672 1.387 . S
C673 C675 1.387 1_655 S
H674 C681 0.950 . S
C675 C673 1.387 1_455 S
C675 C677 1.390 . S
C675 H679 0.950 . S
H676 C672 0.950 . S
C677 C675 1.390 . S
C677 C678 1.387 1_455 S
C677 H680 0.950 . S
C678 C677 1.387 1_655 S
C678 C681 1.387 . S
H679 C675 0.950 . S
H680 C677 0.950 . S
C681 C672 1.390 . S
C681 H674 0.950 . S
C681 C678 1.387 . S
C682 C683 1.387 . S
C682 H686 0.950 . S
C682 C691 1.390 . S
C683 C682 1.387 . S
C683 C685 1.387 . S
H684 C691 0.950 . S
C685 C683 1.387 . S
C685 C687 1.390 . S
C685 H689 0.950 . S
H686 C682 0.950 . S
C687 C685 1.390 . S
C687 C688 1.387 . S
C687 H690 0.950 . S
C688 C687 1.387 . S
C688 C691 1.387 . S
H689 C685 0.950 . S
H690 C687 0.950 . S
C691 C682 1.390 . S
C691 H684 0.950 . S
C691 C688 1.387 . S
C692 C693 1.387 . S
C692 H696 0.950 . S
C692 C701 1.390 . S
C693 C692 1.387 . S
C693 C695 1.387 . S
H694 C701 0.950 . S
C695 C693 1.387 . S
C695 C697 1.390 . S
C695 H699 0.950 . S
H696 C692 0.950 . S
C697 C695 1.390 . S
C697 C698 1.387 . S
C697 H700 0.950 . S
C698 C697 1.387 . S
C698 C701 1.387 . S
H699 C695 0.950 . S
H700 C697 0.950 . S
C701 C692 1.390 . S
C701 H694 0.950 . S
C701 C698 1.387 . S
C702 C703 1.387 . S
C702 H706 0.950 . S
C702 C711 1.390 . S
C703 C702 1.387 . S
C703 C705 1.387 . S
H704 C711 0.950 . S
C705 C703 1.387 . S
C705 C707 1.390 . S
C705 H709 0.950 . S
H706 C702 0.950 . S
C707 C705 1.390 . S
C707 C708 1.387 . S
C707 H710 0.950 . S
C708 C707 1.387 . S
C708 C711 1.387 . S
H709 C705 0.950 . S
H710 C707 0.950 . S
C711 C702 1.390 . S
C711 H704 0.950 . S
C711 C708 1.387 . S
C473 C255 2.338 1_545 S
C478 C314 2.498 1_545 S
C488 C354 2.301 . S
C483 C294 2.166 . S
C498 C418 2.893 . S
C493 C177 2.766 . S
C508 C434 2.785 1_455 S
C503 C216 2.430 1_455 S
C518 C335 2.501 1_565 S
C513 C99 2.335 . S
C523 C138 2.160 . S
C528 C375 2.304 . S
C533 C21 2.779 . S
C538 C409 2.892 . S
C543 C60 2.441 . S
C548 C455 2.784 1_654 S
C558 C329 0.666 . S
C553 C196 0.630 1_455 S
C568 C369 0.851 . S
C563 C235 0.859 . S
C578 C405 0.871 . S
C573 C289 0.886 . S
C583 C157 1.093 . S
C588 C449 0.999 . S
C593 C40 0.641 . S
C598 C338 0.675 . S
C608 C378 0.856 . S
C603 C79 0.864 1_545 S
C618 C416 0.867 . S
C613 C133 0.886 . S
C623 C1 1.108 . S
C628 C458 1.006 . S
C633 C211 2.893 . S
C638 C336 3.359 . S
C643 C250 2.785 . S
C648 C376 3.196 . S
C658 C394 2.233 . S
C653 C274 2.154 . S
C668 C456 3.825 . S
C663 C172 3.291 . S
C673 C55 2.891 1_655 S
C678 C325 3.367 . S
C688 C365 3.195 . S
C683 C94 2.782 1_565 S
C698 C415 2.233 . S
C693 C118 2.150 . S
C703 C16 3.297 . S
C708 C445 3.831 . S
