# Generated by pormake.
# Topology ctn, (3,4)-cn, num edge types: 1
# Building blocks:
#     Node 0, Type 0, BuildingBlock: KAKCAD_clean_linker_0, # of connection points: 3
#     Node 1, Type 0, BuildingBlock: KAKCAD_clean_linker_0, # of connection points: 3
#     Node 2, Type 0, BuildingBlock: KAKCAD_clean_linker_0, # of connection points: 3
#     Node 3, Type 0, BuildingBlock: KAKCAD_clean_linker_0, # of connection points: 3
#     Node 4, Type 0, BuildingBlock: KAKCAD_clean_linker_0, # of connection points: 3
#     Node 5, Type 0, BuildingBlock: KAKCAD_clean_linker_0, # of connection points: 3
#     Node 6, Type 0, BuildingBlock: KAKCAD_clean_linker_0, # of connection points: 3
#     Node 7, Type 0, BuildingBlock: KAKCAD_clean_linker_0, # of connection points: 3
#     Node 8, Type 0, BuildingBlock: KAKCAD_clean_linker_0, # of connection points: 3
#     Node 9, Type 0, BuildingBlock: KAKCAD_clean_linker_0, # of connection points: 3
#     Node 10, Type 0, BuildingBlock: KAKCAD_clean_linker_0, # of connection points: 3
#     Node 11, Type 0, BuildingBlock: KAKCAD_clean_linker_0, # of connection points: 3
#     Node 12, Type 0, BuildingBlock: KAKCAD_clean_linker_0, # of connection points: 3
#     Node 13, Type 0, BuildingBlock: KAKCAD_clean_linker_0, # of connection points: 3
#     Node 14, Type 0, BuildingBlock: KAKCAD_clean_linker_0, # of connection points: 3
#     Node 15, Type 0, BuildingBlock: KAKCAD_clean_linker_0, # of connection points: 3
#     Node 16, Type 1, BuildingBlock: AZAVOO_clean_sbu_0, # of connection points: 4
#     Node 17, Type 1, BuildingBlock: AZAVOO_clean_sbu_0, # of connection points: 4
#     Node 18, Type 1, BuildingBlock: AZAVOO_clean_sbu_0, # of connection points: 4
#     Node 19, Type 1, BuildingBlock: AZAVOO_clean_sbu_0, # of connection points: 4
#     Node 20, Type 1, BuildingBlock: AZAVOO_clean_sbu_0, # of connection points: 4
#     Node 21, Type 1, BuildingBlock: AZAVOO_clean_sbu_0, # of connection points: 4
#     Node 22, Type 1, BuildingBlock: AZAVOO_clean_sbu_0, # of connection points: 4
#     Node 23, Type 1, BuildingBlock: AZAVOO_clean_sbu_0, # of connection points: 4
#     Node 24, Type 1, BuildingBlock: AZAVOO_clean_sbu_0, # of connection points: 4
#     Node 25, Type 1, BuildingBlock: AZAVOO_clean_sbu_0, # of connection points: 4
#     Node 26, Type 1, BuildingBlock: AZAVOO_clean_sbu_0, # of connection points: 4
#     Node 27, Type 1, BuildingBlock: AZAVOO_clean_sbu_0, # of connection points: 4
#     Edge 28, Type (0, 1), BuildingBlock: XIVTED_clean_linker_0, # of connection points: 2
#     Edge 29, Type (0, 1), BuildingBlock: XIVTED_clean_linker_0, # of connection points: 2
#     Edge 30, Type (0, 1), BuildingBlock: XIVTED_clean_linker_0, # of connection points: 2
#     Edge 31, Type (0, 1), BuildingBlock: XIVTED_clean_linker_0, # of connection points: 2
#     Edge 32, Type (0, 1), BuildingBlock: XIVTED_clean_linker_0, # of connection points: 2
#     Edge 33, Type (0, 1), BuildingBlock: XIVTED_clean_linker_0, # of connection points: 2
#     Edge 34, Type (0, 1), BuildingBlock: XIVTED_clean_linker_0, # of connection points: 2
#     Edge 35, Type (0, 1), BuildingBlock: XIVTED_clean_linker_0, # of connection points: 2
#     Edge 36, Type (0, 1), BuildingBlock: XIVTED_clean_linker_0, # of connection points: 2
#     Edge 37, Type (0, 1), BuildingBlock: XIVTED_clean_linker_0, # of connection points: 2
#     Edge 38, Type (0, 1), BuildingBlock: XIVTED_clean_linker_0, # of connection points: 2
#     Edge 39, Type (0, 1), BuildingBlock: XIVTED_clean_linker_0, # of connection points: 2
#     Edge 40, Type (0, 1), BuildingBlock: XIVTED_clean_linker_0, # of connection points: 2
#     Edge 41, Type (0, 1), BuildingBlock: XIVTED_clean_linker_0, # of connection points: 2
#     Edge 42, Type (0, 1), BuildingBlock: XIVTED_clean_linker_0, # of connection points: 2
#     Edge 43, Type (0, 1), BuildingBlock: XIVTED_clean_linker_0, # of connection points: 2
#     Edge 44, Type (0, 1), BuildingBlock: XIVTED_clean_linker_0, # of connection points: 2
#     Edge 45, Type (0, 1), BuildingBlock: XIVTED_clean_linker_0, # of connection points: 2
#     Edge 46, Type (0, 1), BuildingBlock: XIVTED_clean_linker_0, # of connection points: 2
#     Edge 47, Type (0, 1), BuildingBlock: XIVTED_clean_linker_0, # of connection points: 2
#     Edge 48, Type (0, 1), BuildingBlock: XIVTED_clean_linker_0, # of connection points: 2
#     Edge 49, Type (0, 1), BuildingBlock: XIVTED_clean_linker_0, # of connection points: 2
#     Edge 50, Type (0, 1), BuildingBlock: XIVTED_clean_linker_0, # of connection points: 2
#     Edge 51, Type (0, 1), BuildingBlock: XIVTED_clean_linker_0, # of connection points: 2
#     Edge 52, Type (0, 1), BuildingBlock: XIVTED_clean_linker_0, # of connection points: 2
#     Edge 53, Type (0, 1), BuildingBlock: XIVTED_clean_linker_0, # of connection points: 2
#     Edge 54, Type (0, 1), BuildingBlock: XIVTED_clean_linker_0, # of connection points: 2
#     Edge 55, Type (0, 1), BuildingBlock: XIVTED_clean_linker_0, # of connection points: 2
#     Edge 56, Type (0, 1), BuildingBlock: XIVTED_clean_linker_0, # of connection points: 2
#     Edge 57, Type (0, 1), BuildingBlock: XIVTED_clean_linker_0, # of connection points: 2
#     Edge 58, Type (0, 1), BuildingBlock: XIVTED_clean_linker_0, # of connection points: 2
#     Edge 59, Type (0, 1), BuildingBlock: XIVTED_clean_linker_0, # of connection points: 2
#     Edge 60, Type (0, 1), BuildingBlock: XIVTED_clean_linker_0, # of connection points: 2
#     Edge 61, Type (0, 1), BuildingBlock: XIVTED_clean_linker_0, # of connection points: 2
#     Edge 62, Type (0, 1), BuildingBlock: XIVTED_clean_linker_0, # of connection points: 2
#     Edge 63, Type (0, 1), BuildingBlock: XIVTED_clean_linker_0, # of connection points: 2
#     Edge 64, Type (0, 1), BuildingBlock: XIVTED_clean_linker_0, # of connection points: 2
#     Edge 65, Type (0, 1), BuildingBlock: XIVTED_clean_linker_0, # of connection points: 2
#     Edge 66, Type (0, 1), BuildingBlock: XIVTED_clean_linker_0, # of connection points: 2
#     Edge 67, Type (0, 1), BuildingBlock: XIVTED_clean_linker_0, # of connection points: 2
#     Edge 68, Type (0, 1), BuildingBlock: XIVTED_clean_linker_0, # of connection points: 2
#     Edge 69, Type (0, 1), BuildingBlock: XIVTED_clean_linker_0, # of connection points: 2
#     Edge 70, Type (0, 1), BuildingBlock: XIVTED_clean_linker_0, # of connection points: 2
#     Edge 71, Type (0, 1), BuildingBlock: XIVTED_clean_linker_0, # of connection points: 2
#     Edge 72, Type (0, 1), BuildingBlock: XIVTED_clean_linker_0, # of connection points: 2
#     Edge 73, Type (0, 1), BuildingBlock: XIVTED_clean_linker_0, # of connection points: 2
#     Edge 74, Type (0, 1), BuildingBlock: XIVTED_clean_linker_0, # of connection points: 2
#     Edge 75, Type (0, 1), BuildingBlock: XIVTED_clean_linker_0, # of connection points: 2
# Relax obj value: 0.001
# Max RMSD: 0.042
# Mean RMSD: 0.022
data_MOF--net-ctn--node1-AZAVOO_clean_sbu_0--node2-KAKCAD_clean_linker_0--edge1-XIVTED_clean_linker_0
_symmetry_space_group_name_H-M    P1
_symmetry_Int_Tables_number       1
_symmetry_cell_setting            triclinic
loop_
_symmetry_equiv_pos_as_xyz
'x, y, z'
_cell_length_a     66.962349
_cell_length_b     67.952512
_cell_length_c     67.871355
_cell_angle_alpha  90.17288
_cell_angle_beta   92.987502
_cell_angle_gamma 93.09646
loop_
_atom_site_label
_atom_site_type_symbol
_atom_site_fract_x
_atom_site_fract_y
_atom_site_fract_z
_atom_type_partial_charge
C0 C 0.02327 0.06661 0.95266 0.0
C1 C 0.01882 0.0844 0.96172 0.0
C2 C 0.02492 0.0494 0.96384 0.0
C3 C 0.02218 0.04975 0.98424 0.0
C4 C 0.01808 0.06764 0.99323 0.0
C5 C 0.01638 0.08469 0.98213 0.0
C6 C 0.02384 0.03181 0.99653 0.0
C7 C 0.03967 0.01931 0.99469 0.0
C8 C 0.04266 0.00399 0.00825 0.0
C9 C 0.02958 0.0013 0.02373 0.0
C10 C 0.01363 0.01364 0.0257 0.0
C11 C 0.01052 0.02834 0.01159 0.0
C12 C 0.00124 0.01248 0.04332 0.0
C13 C 0.99573 0.99431 0.05196 0.0
C14 C 0.99532 0.02992 0.05202 0.0
C15 C 0.98403 0.02925 0.06868 0.0
C16 C 0.97863 0.01116 0.07734 0.0
C17 C 0.06015 0.99155 0.00701 0.0
C18 C 0.06559 0.98422 0.98877 0.0
C19 C 0.07152 0.9869 0.02419 0.0
C20 C 0.08763 0.97482 0.02324 0.0
C21 C 0.09282 0.9671 0.00508 0.0
C22 C 0.08178 0.97211 0.98781 0.0
C23 C 0.98464 0.99367 0.06891 0.0
H24 H 0.02523 0.06596 0.93694 0.0
H25 H 0.0281 0.03582 0.95653 0.0
H26 H 0.01647 0.06857 0.009 0.0
H27 H 0.01354 0.09825 0.98967 0.0
H28 H 0.0503 0.02218 0.9834 0.0
H29 H 0.99794 0.0376 0.01262 0.0
H30 H 0.03218 0.98992 0.03456 0.0
H31 H 0.9999 0.98058 0.04559 0.0
H32 H 0.99977 0.04424 0.04624 0.0
H33 H 0.97998 0.04299 0.07513 0.0
H34 H 0.05706 0.98748 0.97528 0.0
H35 H 0.06805 0.99271 0.03842 0.0
H36 H 0.98062 0.97952 0.07534 0.0
H37 H 0.08531 0.96627 0.97362 0.0
H38 H 0.0961 0.97157 0.03676 0.0
C39 C 0.3751 0.74712 0.26685 0.0
C40 C 0.38359 0.73081 0.27601 0.0
C41 C 0.35981 0.74438 0.25209 0.0
C42 C 0.35282 0.72527 0.24613 0.0
C43 C 0.36186 0.70902 0.25486 0.0
C44 C 0.377 0.71175 0.26968 0.0
C45 C 0.3358 0.72219 0.23129 0.0
C46 C 0.3342 0.73424 0.21455 0.0
C47 C 0.3182 0.73116 0.20045 0.0
C48 C 0.30367 0.71585 0.20327 0.0
C49 C 0.30507 0.70361 0.21984 0.0
C50 C 0.32108 0.70699 0.23382 0.0
C51 C 0.29015 0.68694 0.22231 0.0
C52 C 0.26956 0.68932 0.21859 0.0
C53 C 0.29651 0.6684 0.22823 0.0
C54 C 0.28264 0.65256 0.2303 0.0
C55 C 0.26206 0.65487 0.22653 0.0
C56 C 0.31672 0.74371 0.18262 0.0
C57 C 0.32051 0.76424 0.18401 0.0
C58 C 0.3111 0.73526 0.1641 0.0
C59 C 0.30883 0.74707 0.14745 0.0
C60 C 0.3122 0.76764 0.14887 0.0
C61 C 0.31825 0.77608 0.16731 0.0
C62 C 0.25565 0.67345 0.22075 0.0
H63 H 0.37979 0.76198 0.27156 0.0
H64 H 0.35306 0.75722 0.24578 0.0
H65 H 0.35718 0.69411 0.2503 0.0
H66 H 0.38352 0.69892 0.27624 0.0
H67 H 0.34574 0.74567 0.2122 0.0
H68 H 0.32189 0.69791 0.24692 0.0
H69 H 0.29131 0.71333 0.19245 0.0
H70 H 0.2642 0.70348 0.21416 0.0
H71 H 0.31228 0.66604 0.23101 0.0
H72 H 0.28805 0.63851 0.23504 0.0
H73 H 0.32477 0.7712 0.19809 0.0
H74 H 0.30837 0.71947 0.16248 0.0
H75 H 0.2399 0.67567 0.21764 0.0
H76 H 0.32115 0.79185 0.16888 0.0
H77 H 0.30391 0.74009 0.13354 0.0
C78 C 0.01129 0.49586 0.11673 0.0
C79 C 0.03187 0.49464 0.11397 0.0
C80 C 0.99717 0.49225 0.101 0.0
C81 C 0.00331 0.48729 0.0822 0.0
C82 C 0.02389 0.4863 0.07943 0.0
C83 C 0.03796 0.48986 0.0951 0.0
C84 C 0.9884 0.48267 0.06558 0.0
C85 C 0.97156 0.494 0.06238 0.0
C86 C 0.95761 0.48973 0.04648 0.0
C87 C 0.9605 0.47371 0.03398 0.0
C88 C 0.9773 0.46241 0.03691 0.0
C89 C 0.99114 0.46695 0.05267 0.0
C90 C 0.9805 0.44584 0.02346 0.0
C91 C 0.96561 0.43072 0.02015 0.0
C92 C 0.99865 0.4449 0.01416 0.0
C93 C 0.0019 0.42905 0.00177 0.0
C94 C 0.9872 0.41357 0.99872 0.0
C95 C 0.94047 0.50242 0.04246 0.0
C96 C 0.92945 0.50923 0.05794 0.0
C97 C 0.93524 0.50812 0.02305 0.0
C98 C 0.91954 0.52052 0.01923 0.0
C99 C 0.90866 0.52752 0.03471 0.0
C100 C 0.91369 0.52161 0.0541 0.0
C101 C 0.96898 0.41467 0.00807 0.0
H102 H 0.00609 0.49968 0.13101 0.0
H103 H 0.98142 0.493 0.10366 0.0
H104 H 0.02917 0.48277 0.06509 0.0
H105 H 0.05364 0.48852 0.09247 0.0
H106 H 0.96969 0.50656 0.07184 0.0
H107 H 0.00387 0.45789 0.0551 0.0
H108 H 0.9498 0.47012 0.02179 0.0
H109 H 0.95156 0.43107 0.02733 0.0
H110 H 0.01028 0.45653 0.01636 0.0
H111 H 0.01593 0.42903 0.99454 0.0
H112 H 0.933 0.50497 0.07303 0.0
H113 H 0.94355 0.50331 0.01081 0.0
H114 H 0.95743 0.40292 0.00649 0.0
H115 H 0.90573 0.52689 0.06638 0.0
H116 H 0.91593 0.52463 0.0041 0.0
C117 C 0.71345 0.76511 0.18232 0.0
C118 C 0.73277 0.76133 0.17678 0.0
C119 C 0.71067 0.77999 0.19607 0.0
C120 C 0.72722 0.79116 0.20467 0.0
C121 C 0.7466 0.78649 0.19982 0.0
C122 C 0.74932 0.7719 0.18587 0.0
C123 C 0.72441 0.80818 0.21795 0.0
C124 C 0.70929 0.80747 0.23158 0.0
C125 C 0.70677 0.82359 0.24413 0.0
C126 C 0.71972 0.84051 0.243 0.0
C127 C 0.73513 0.8413 0.22976 0.0
C128 C 0.7371 0.82527 0.21708 0.0
C129 C 0.7499 0.85838 0.22972 0.0
C130 C 0.74379 0.87784 0.23009 0.0
C131 C 0.77041 0.85515 0.22938 0.0
C132 C 0.78452 0.87098 0.22917 0.0
C133 C 0.7785 0.89048 0.22917 0.0
C134 C 0.6912 0.82237 0.25901 0.0
C135 C 0.67227 0.81302 0.25443 0.0
C136 C 0.69535 0.83011 0.27811 0.0
C137 C 0.68107 0.82828 0.29235 0.0
C138 C 0.66233 0.81848 0.28794 0.0
C139 C 0.65803 0.81104 0.26874 0.0
C140 C 0.75796 0.89375 0.22978 0.0
H141 H 0.70047 0.75718 0.17535 0.0
H142 H 0.69554 0.78324 0.19934 0.0
H143 H 0.75974 0.79433 0.20656 0.0
H144 H 0.76438 0.76907 0.18193 0.0
H145 H 0.69991 0.79409 0.23287 0.0
H146 H 0.74854 0.82626 0.20635 0.0
H147 H 0.71809 0.85296 0.25268 0.0
H148 H 0.72806 0.88074 0.23026 0.0
H149 H 0.7756 0.84032 0.22952 0.0
H150 H 0.80023 0.86789 0.22923 0.0
H151 H 0.66847 0.80712 0.23979 0.0
H152 H 0.70983 0.83721 0.28226 0.0
H153 H 0.75281 0.90859 0.22965 0.0
H154 H 0.64384 0.80323 0.26485 0.0
H155 H 0.68481 0.83446 0.30689 0.0
C156 C 0.98725 0.9991 0.42936 0.0
C157 C 0.99579 0.00757 0.41273 0.0
C158 C 0.99908 0.99599 0.44654 0.0
C159 C 0.01983 0.0009 0.44733 0.0
C160 C 0.02828 0.00948 0.43061 0.0
C161 C 0.01636 0.01294 0.41358 0.0
C162 C 0.0326 0.99677 0.46539 0.0
C163 C 0.02846 0.97988 0.47673 0.0
C164 C 0.04017 0.97586 0.49393 0.0
C165 C 0.05661 0.98882 0.49947 0.0
C166 C 0.06145 0.00537 0.48795 0.0
C167 C 0.0492 0.0094 0.47117 0.0
C168 C 0.07964 0.01818 0.49303 0.0
C169 C 0.08393 0.02498 0.51244 0.0
C170 C 0.09289 0.02366 0.47837 0.0
C171 C 0.11 0.03581 0.48296 0.0
C172 C 0.11414 0.0429 0.50229 0.0
C173 C 0.03558 0.95769 0.50551 0.0
C174 C 0.01562 0.95051 0.50724 0.0
C175 C 0.05106 0.94684 0.51417 0.0
C176 C 0.04671 0.92901 0.5237 0.0
C177 C 0.02684 0.92151 0.5245 0.0
C178 C 0.01132 0.93253 0.51643 0.0
C179 C 0.10095 0.03733 0.517 0.0
H180 H 0.97138 0.99499 0.4291 0.0
H181 H 0.9919 0.98977 0.4592 0.0
H182 H 0.04421 0.01313 0.43044 0.0
H183 H 0.02333 0.01927 0.40084 0.0
H184 H 0.01643 0.96947 0.47177 0.0
H185 H 0.05255 0.0226 0.46279 0.0
H186 H 0.0659 0.98592 0.51257 0.0
H187 H 0.07394 0.02102 0.52402 0.0
H188 H 0.09005 0.01847 0.46332 0.0
H189 H 0.11976 0.04001 0.47128 0.0
H190 H 0.00326 0.95865 0.50125 0.0
H191 H 0.06662 0.95167 0.51294 0.0
H192 H 0.10383 0.04251 0.53205 0.0
H193 H 0.99586 0.92708 0.51703 0.0
H194 H 0.05894 0.92065 0.52966 0.0
C195 C 0.14225 0.69737 0.71115 0.0
C196 C 0.13928 0.71581 0.70248 0.0
C197 C 0.15708 0.69544 0.72622 0.0
C198 C 0.16892 0.71198 0.7331 0.0
C199 C 0.16607 0.73037 0.72428 0.0
C200 C 0.1515 0.73224 0.70901 0.0
C201 C 0.18364 0.71027 0.74997 0.0
C202 C 0.19795 0.69585 0.75 0.0
C203 C 0.2121 0.69447 0.76595 0.0
C204 C 0.21113 0.70711 0.78226 0.0
C205 C 0.197 0.72158 0.78234 0.0
C206 C 0.18346 0.72327 0.76608 0.0
C207 C 0.19703 0.73534 0.79921 0.0
C208 C 0.19548 0.72806 0.81843 0.0
C209 C 0.19996 0.75572 0.79633 0.0
C210 C 0.20221 0.76856 0.81253 0.0
C211 C 0.20111 0.76122 0.83179 0.0
C212 C 0.22868 0.68081 0.76523 0.0
C213 C 0.22533 0.66147 0.7579 0.0
C214 C 0.24821 0.68728 0.77176 0.0
C215 C 0.264 0.67478 0.77101 0.0
C216 C 0.26075 0.65549 0.7636 0.0
C217 C 0.2412 0.6489 0.75715 0.0
C218 C 0.1973 0.74092 0.83458 0.0
H219 H 0.1331 0.68446 0.70629 0.0
H220 H 0.15894 0.68113 0.73285 0.0
H221 H 0.1751 0.74332 0.72927 0.0
H222 H 0.14943 0.74663 0.70265 0.0
H223 H 0.19856 0.6863 0.73725 0.0
H224 H 0.17251 0.73445 0.76617 0.0
H225 H 0.2217 0.70602 0.79481 0.0
H226 H 0.19321 0.71238 0.82094 0.0
H227 H 0.20131 0.7616 0.78161 0.0
H228 H 0.20514 0.78417 0.81005 0.0
H229 H 0.21044 0.65601 0.75285 0.0
H230 H 0.2514 0.70217 0.77723 0.0
H231 H 0.1966 0.73491 0.84931 0.0
H232 H 0.23823 0.63416 0.75121 0.0
H233 H 0.27879 0.68027 0.77634 0.0
C234 C 0.97777 0.58315 0.48217 0.0
C235 C 0.9719 0.58369 0.50175 0.0
C236 C 0.97537 0.56578 0.47109 0.0
C237 C 0.96742 0.54829 0.47938 0.0
C238 C 0.96182 0.54872 0.49907 0.0
C239 C 0.96391 0.56622 0.51007 0.0
C240 C 0.96494 0.5298 0.46743 0.0
C241 C 0.97896 0.52557 0.45357 0.0
C242 C 0.97629 0.50884 0.44131 0.0
C243 C 0.95984 0.49551 0.44386 0.0
C244 C 0.94582 0.49918 0.45804 0.0
C245 C 0.94835 0.51656 0.46944 0.0
C246 C 0.92837 0.48511 0.46095 0.0
C247 C 0.91816 0.47523 0.44485 0.0
C248 C 0.92161 0.48165 0.48 0.0
C249 C 0.90495 0.46893 0.48284 0.0
C250 C 0.89479 0.45911 0.46676 0.0
C251 C 0.99068 0.50583 0.42571 0.0
C252 C 0.99819 0.52211 0.41509 0.0
C253 C 0.99761 0.4871 0.42174 0.0
C254 C 0.01234 0.48491 0.40805 0.0
C255 C 0.02047 0.50145 0.39827 0.0
C256 C 0.01298 0.51997 0.40167 0.0
C257 C 0.90162 0.46229 0.44774 0.0
H258 H 0.98433 0.59614 0.4753 0.0
H259 H 0.97958 0.56618 0.4559 0.0
H260 H 0.95589 0.53551 0.50606 0.0
H261 H 0.95899 0.56606 0.52501 0.0
H262 H 0.99218 0.53532 0.45238 0.0
H263 H 0.93706 0.52004 0.47957 0.0
H264 H 0.95791 0.48237 0.43475 0.0
H265 H 0.92272 0.47774 0.42995 0.0
H266 H 0.92932 0.48864 0.49282 0.0
H267 H 0.90023 0.46649 0.4977 0.0
H268 H 0.99279 0.53665 0.41732 0.0
H269 H 0.9922 0.47426 0.42969 0.0
H270 H 0.89397 0.45499 0.43506 0.0
H271 H 0.01873 0.53289 0.39404 0.0
H272 H 0.01792 0.47047 0.40569 0.0
C273 C 0.81589 0.73322 0.85062 0.0
C274 C 0.79791 0.72343 0.85578 0.0
C275 C 0.81708 0.74274 0.83247 0.0
C276 C 0.80021 0.74292 0.81929 0.0
C277 C 0.78238 0.7327 0.82422 0.0
C278 C 0.78129 0.72289 0.84225 0.0
C279 C 0.80098 0.75461 0.80093 0.0
C280 C 0.8169 0.75304 0.78845 0.0
C281 C 0.81821 0.76474 0.77149 0.0
C282 C 0.80333 0.77813 0.76718 0.0
C283 C 0.78744 0.78019 0.77968 0.0
C284 C 0.7863 0.76815 0.79643 0.0
C285 C 0.77272 0.79559 0.77572 0.0
C286 C 0.77909 0.81403 0.76824 0.0
C287 C 0.75235 0.79219 0.77957 0.0
C288 C 0.73873 0.80687 0.77594 0.0
C289 C 0.74516 0.82511 0.76814 0.0
C290 C 0.83538 0.7635 0.75856 0.0
C291 C 0.85496 0.76187 0.76673 0.0
C292 C 0.83239 0.76453 0.73793 0.0
C293 C 0.8486 0.76428 0.72581 0.0
C294 C 0.86818 0.76288 0.73399 0.0
C295 C 0.87118 0.76151 0.75458 0.0
C296 C 0.76547 0.82853 0.76438 0.0
H297 H 0.82893 0.7338 0.8608 0.0
H298 H 0.83097 0.75061 0.82907 0.0
H299 H 0.7692 0.73254 0.81424 0.0
H300 H 0.7672 0.7156 0.84596 0.0
H301 H 0.82816 0.74251 0.79188 0.0
H302 H 0.7745 0.76991 0.80653 0.0
H303 H 0.80434 0.78728 0.75419 0.0
H304 H 0.7947 0.81746 0.76562 0.0
H305 H 0.74686 0.77812 0.78516 0.0
H306 H 0.72313 0.80386 0.77891 0.0
H307 H 0.85784 0.76134 0.78257 0.0
H308 H 0.81748 0.76542 0.73112 0.0
H309 H 0.77092 0.8426 0.75873 0.0
H310 H 0.88611 0.76058 0.76132 0.0
H311 H 0.84576 0.76497 0.70997 0.0
C312 C 0.30732 0.22617 0.33418 0.0
C313 C 0.28847 0.22153 0.34177 0.0
C314 C 0.30922 0.23907 0.31826 0.0
C315 C 0.29228 0.24743 0.30931 0.0
C316 C 0.27334 0.24188 0.31616 0.0
C317 C 0.27148 0.22932 0.33226 0.0
C318 C 0.29436 0.26275 0.29373 0.0
C319 C 0.30902 0.26181 0.27964 0.0
C320 C 0.31133 0.27669 0.26539 0.0
C321 C 0.29882 0.29266 0.26546 0.0
C322 C 0.28389 0.29355 0.27907 0.0
C323 C 0.28179 0.2787 0.29317 0.0
C324 C 0.27016 0.30985 0.27832 0.0
C325 C 0.27768 0.32945 0.28046 0.0
C326 C 0.24944 0.30584 0.27514 0.0
C327 C 0.23646 0.32127 0.2737 0.0
C328 C 0.24397 0.34088 0.27592 0.0
C329 C 0.32628 0.27533 0.25002 0.0
C330 C 0.34545 0.26858 0.25463 0.0
C331 C 0.32137 0.28079 0.23047 0.0
C332 C 0.33522 0.27956 0.21592 0.0
C333 C 0.35433 0.27264 0.22043 0.0
C334 C 0.35933 0.26726 0.23999 0.0
C335 C 0.26465 0.34485 0.2795 0.0
H336 H 0.32074 0.22017 0.34075 0.0
H337 H 0.32407 0.243 0.31347 0.0
H338 H 0.25987 0.24758 0.30935 0.0
H339 H 0.25669 0.2264 0.33765 0.0
H340 H 0.31828 0.24923 0.27942 0.0
H341 H 0.2706 0.27997 0.30401 0.0
H342 H 0.30049 0.30436 0.25476 0.0
H343 H 0.29361 0.33282 0.28296 0.0
H344 H 0.24338 0.2908 0.27338 0.0
H345 H 0.22056 0.31791 0.27094 0.0
H346 H 0.3498 0.26444 0.26957 0.0
H347 H 0.30667 0.2858 0.22629 0.0
H348 H 0.27076 0.3599 0.2811 0.0
H349 H 0.37385 0.26172 0.24396 0.0
H350 H 0.33092 0.28411 0.20109 0.0
C351 C 0.5136 0.98906 0.62125 0.0
C352 C 0.53396 0.99081 0.61689 0.0
C353 C 0.49862 0.98708 0.60609 0.0
C354 C 0.50368 0.98657 0.58629 0.0
C355 C 0.5239 0.98891 0.58187 0.0
C356 C 0.53884 0.99118 0.59696 0.0
C357 C 0.48809 0.98228 0.57032 0.0
C358 C 0.47073 0.99303 0.5687 0.0
C359 C 0.45586 0.98866 0.55363 0.0
C360 C 0.45831 0.97289 0.54064 0.0
C361 C 0.47561 0.96213 0.54209 0.0
C362 C 0.49053 0.96705 0.55679 0.0
C363 C 0.47798 0.94546 0.5285 0.0
C364 C 0.46316 0.9301 0.52655 0.0
C365 C 0.49528 0.94458 0.5178 0.0
C366 C 0.49775 0.92855 0.50537 0.0
C367 C 0.48315 0.91283 0.50369 0.0
C368 C 0.43805 0.00078 0.55103 0.0
C369 C 0.42827 0.00749 0.5674 0.0
C370 C 0.43078 0.00585 0.532 0.0
C371 C 0.41416 0.01731 0.52939 0.0
C372 C 0.40442 0.02413 0.54574 0.0
C373 C 0.41165 0.01904 0.56479 0.0
C374 C 0.46579 0.91388 0.51443 0.0
H375 H 0.50922 0.9885 0.63638 0.0
H376 H 0.48312 0.98515 0.60988 0.0
H377 H 0.52817 0.98881 0.56669 0.0
H378 H 0.55426 0.99305 0.59295 0.0
H379 H 0.46915 0.00516 0.57881 0.0
H380 H 0.50377 0.95854 0.55811 0.0
H381 H 0.44679 0.96898 0.52927 0.0
H382 H 0.44978 0.93038 0.53484 0.0
H383 H 0.50683 0.95639 0.51895 0.0
H384 H 0.51112 0.92856 0.49706 0.0
H385 H 0.43335 0.00372 0.58225 0.0
H386 H 0.43809 0.00117 0.51905 0.0
H387 H 0.45437 0.90196 0.51393 0.0
H388 H 0.40466 0.02421 0.57773 0.0
H389 H 0.40889 0.02073 0.51451 0.0
C390 C 0.20415 0.27254 0.65922 0.0
C391 C 0.22311 0.26508 0.65713 0.0
C392 C 0.2016 0.28738 0.67309 0.0
C393 C 0.21804 0.29521 0.68484 0.0
C394 C 0.23692 0.2876 0.68285 0.0
C395 C 0.23942 0.27266 0.66921 0.0
C396 C 0.21576 0.31142 0.69906 0.0
C397 C 0.2007 0.3101 0.71269 0.0
C398 C 0.19957 0.32477 0.72722 0.0
C399 C 0.21353 0.34103 0.72764 0.0
C400 C 0.22871 0.34256 0.71411 0.0
C401 C 0.22951 0.32777 0.69972 0.0
C402 C 0.24452 0.35882 0.71583 0.0
C403 C 0.23991 0.37806 0.72099 0.0
C404 C 0.2646 0.35497 0.71302 0.0
C405 C 0.27968 0.36987 0.7155 0.0
C406 C 0.27518 0.389 0.72112 0.0
C407 C 0.18483 0.32239 0.74282 0.0
C408 C 0.16522 0.3146 0.73836 0.0
C409 C 0.19055 0.3273 0.76253 0.0
C410 C 0.17714 0.3243 0.77741 0.0
C411 C 0.15769 0.31608 0.77306 0.0
C412 C 0.1518 0.31147 0.75331 0.0
C413 C 0.25507 0.39297 0.72365 0.0
H414 H 0.19131 0.26689 0.65016 0.0
H415 H 0.18689 0.29302 0.67434 0.0
H416 H 0.24981 0.29323 0.69188 0.0
H417 H 0.25425 0.26735 0.66779 0.0
H418 H 0.19053 0.29714 0.71261 0.0
H419 H 0.24095 0.32888 0.689 0.0
H420 H 0.21292 0.35226 0.73892 0.0
H421 H 0.22458 0.3816 0.72306 0.0
H422 H 0.2688 0.3403 0.70932 0.0
H423 H 0.29494 0.36633 0.71306 0.0
H424 H 0.16026 0.31083 0.72331 0.0
H425 H 0.20561 0.33305 0.7666 0.0
H426 H 0.25105 0.40749 0.7281 0.0
H427 H 0.13699 0.30497 0.74944 0.0
H428 H 0.1821 0.32831 0.7924 0.0
C429 C 0.86555 0.24882 0.77297 0.0
C430 C 0.87928 0.23456 0.77823 0.0
C431 C 0.84946 0.24423 0.75951 0.0
C432 C 0.84664 0.22522 0.75129 0.0
C433 C 0.86046 0.21102 0.75642 0.0
C434 C 0.8767 0.21569 0.76967 0.0
C435 C 0.82918 0.22014 0.73758 0.0
C436 C 0.82437 0.23263 0.72177 0.0
C437 C 0.80814 0.2276 0.7085 0.0
C438 C 0.79618 0.2104 0.71151 0.0
C439 C 0.80064 0.19799 0.72739 0.0
C440 C 0.81733 0.20273 0.7402 0.0
C441 C 0.78779 0.18007 0.73053 0.0
C442 C 0.76745 0.18155 0.73389 0.0
C443 C 0.79572 0.16144 0.72991 0.0
C444 C 0.7834 0.14445 0.73235 0.0
C445 C 0.76296 0.14577 0.73595 0.0
C446 C 0.8042 0.23968 0.69086 0.0
C447 C 0.80023 0.25965 0.69261 0.0
C448 C 0.80425 0.23108 0.67208 0.0
C449 C 0.80017 0.24218 0.65526 0.0
C450 C 0.79548 0.26206 0.65684 0.0
C451 C 0.79572 0.27071 0.67575 0.0
C452 C 0.75521 0.16461 0.7368 0.0
H453 H 0.86726 0.26351 0.77929 0.0
H454 H 0.83896 0.25541 0.75586 0.0
H455 H 0.8587 0.19631 0.75015 0.0
H456 H 0.88696 0.20438 0.77361 0.0
H457 H 0.83369 0.24586 0.71934 0.0
H458 H 0.82075 0.19311 0.7525 0.0
H459 H 0.78352 0.20656 0.70135 0.0
H460 H 0.7611 0.19585 0.73454 0.0
H461 H 0.81137 0.16002 0.72713 0.0
H462 H 0.78992 0.1303 0.73112 0.0
H463 H 0.80011 0.26652 0.70702 0.0
H464 H 0.80758 0.21575 0.67044 0.0
H465 H 0.73973 0.16637 0.73995 0.0
H466 H 0.79197 0.28587 0.67762 0.0
H467 H 0.80074 0.2351 0.641 0.0
C468 C 0.52049 0.56576 0.45551 0.0
C469 C 0.51465 0.58339 0.46388 0.0
C470 C 0.52294 0.54902 0.46723 0.0
C471 C 0.51966 0.54967 0.48753 0.0
C472 C 0.51384 0.56736 0.49576 0.0
C473 C 0.51131 0.58392 0.48411 0.0
C474 C 0.52316 0.53257 0.50065 0.0
C475 C 0.54009 0.52146 0.49904 0.0
C476 C 0.54515 0.50764 0.51359 0.0
C477 C 0.53326 0.50529 0.53003 0.0
C478 C 0.51612 0.51612 0.53177 0.0
C479 C 0.51075 0.52893 0.51641 0.0
C480 C 0.50493 0.51568 0.55028 0.0
C481 C 0.50332 0.49865 0.56199 0.0
C482 C 0.49645 0.53287 0.55686 0.0
C483 C 0.48667 0.53306 0.57446 0.0
C484 C 0.48566 0.51632 0.58655 0.0
C485 C 0.56343 0.49638 0.5122 0.0
C486 C 0.56784 0.48747 0.49433 0.0
C487 C 0.57639 0.49413 0.5289 0.0
C488 C 0.59297 0.48264 0.52795 0.0
C489 C 0.59699 0.4731 0.5103 0.0
C490 C 0.58445 0.47592 0.49339 0.0
C491 C 0.49397 0.49902 0.57999 0.0
H492 H 0.52316 0.56493 0.43993 0.0
H493 H 0.52739 0.53561 0.46045 0.0
H494 H 0.51179 0.56865 0.51143 0.0
H495 H 0.50737 0.59739 0.49116 0.0
H496 H 0.54997 0.52431 0.4871 0.0
H497 H 0.49716 0.5368 0.51705 0.0
H498 H 0.5377 0.49533 0.54168 0.0
H499 H 0.50938 0.48503 0.55739 0.0
H500 H 0.49768 0.5465 0.54871 0.0
H501 H 0.48001 0.54655 0.57855 0.0
H502 H 0.55808 0.48891 0.48124 0.0
H503 H 0.57368 0.50121 0.54275 0.0
H504 H 0.49364 0.48582 0.58887 0.0
H505 H 0.58705 0.46864 0.47961 0.0
H506 H 0.60258 0.48111 0.54114 0.0
C507 C 0.48303 0.49779 0.93617 0.0
C508 C 0.48992 0.50778 0.91957 0.0
C509 C 0.49585 0.49546 0.95285 0.0
C510 C 0.51599 0.5027 0.95311 0.0
C511 C 0.52273 0.51282 0.93642 0.0
C512 C 0.5098 0.51549 0.91995 0.0
C513 C 0.53013 0.49913 0.97031 0.0
C514 C 0.5286 0.4814 0.98089 0.0
C515 C 0.54241 0.47749 0.99652 0.0
C516 C 0.55829 0.49137 0.00123 0.0
C517 C 0.56023 0.50915 0.99076 0.0
C518 C 0.54578 0.51305 0.97569 0.0
C519 C 0.57767 0.52339 0.99501 0.0
C520 C 0.5855 0.52688 0.01443 0.0
C521 C 0.58679 0.5335 0.97948 0.0
C522 C 0.60308 0.54692 0.98328 0.0
C523 C 0.61083 0.55041 0.00266 0.0
C524 C 0.54048 0.45857 0.00742 0.0
C525 C 0.52156 0.45078 0.01247 0.0
C526 C 0.55741 0.44786 0.01234 0.0
C527 C 0.55539 0.4296 0.02167 0.0
C528 C 0.5364 0.42158 0.02628 0.0
C529 C 0.51954 0.43251 0.02177 0.0
C530 C 0.60197 0.54017 0.0182 0.0
H531 H 0.4677 0.49182 0.93625 0.0
H532 H 0.48995 0.48793 0.9655 0.0
H533 H 0.53818 0.51824 0.93577 0.0
H534 H 0.51555 0.523 0.9072 0.0
H535 H 0.51707 0.47022 0.97652 0.0
H536 H 0.54673 0.52706 0.96814 0.0
H537 H 0.56926 0.48821 0.01292 0.0
H538 H 0.57873 0.51957 0.02678 0.0
H539 H 0.58154 0.53087 0.96429 0.0
H540 H 0.6098 0.55438 0.97098 0.0
H541 H 0.50824 0.45876 0.0091 0.0
H542 H 0.57219 0.45335 0.00854 0.0
H543 H 0.60755 0.54272 0.03331 0.0
H544 H 0.50466 0.42672 0.02491 0.0
H545 H 0.56873 0.42169 0.02515 0.0
C546 C 0.64126 0.19384 0.21286 0.0
C547 C 0.6333 0.21222 0.20887 0.0
C548 C 0.65679 0.19214 0.22725 0.0
C549 C 0.6648 0.2088 0.23787 0.0
C550 C 0.6568 0.22718 0.23383 0.0
C551 C 0.64119 0.22884 0.21956 0.0
C552 C 0.6815 0.20712 0.25303 0.0
C553 C 0.69726 0.19473 0.24985 0.0
C554 C 0.71335 0.1936 0.26386 0.0
C555 C 0.71347 0.20482 0.28125 0.0
C556 C 0.69787 0.21716 0.28478 0.0
C557 C 0.68195 0.21822 0.27062 0.0
C558 C 0.69874 0.22921 0.30313 0.0
C559 C 0.70525 0.221 0.32116 0.0
C560 C 0.69446 0.24925 0.30259 0.0
C561 C 0.69769 0.26106 0.31952 0.0
C562 C 0.70534 0.25301 0.33721 0.0
C563 C 0.73035 0.18105 0.26042 0.0
C564 C 0.72698 0.16155 0.25357 0.0
C565 C 0.75013 0.18836 0.26474 0.0
C566 C 0.76616 0.17636 0.26267 0.0
C567 C 0.76285 0.15674 0.25619 0.0
C568 C 0.74308 0.14948 0.25156 0.0
C569 C 0.70857 0.23277 0.33797 0.0
H570 H 0.63533 0.18073 0.20501 0.0
H571 H 0.66237 0.17772 0.23018 0.0
H572 H 0.66284 0.24039 0.24144 0.0
H573 H 0.63559 0.24326 0.2166 0.0
H574 H 0.69739 0.18648 0.23617 0.0
H575 H 0.66972 0.22747 0.27348 0.0
H576 H 0.7259 0.20407 0.29205 0.0
H577 H 0.70822 0.20551 0.32217 0.0
H578 H 0.6895 0.25601 0.28888 0.0
H579 H 0.69513 0.27664 0.31855 0.0
H580 H 0.71189 0.15548 0.25022 0.0
H581 H 0.75323 0.20339 0.26983 0.0
H582 H 0.71408 0.22611 0.35154 0.0
H583 H 0.74004 0.13449 0.24633 0.0
H584 H 0.78116 0.18239 0.26655 0.0
C585 C 0.48013 0.0867 0.97332 0.0
C586 C 0.47306 0.08767 0.99244 0.0
C587 C 0.4771 0.06949 0.96203 0.0
C588 C 0.46725 0.05259 0.96966 0.0
C589 C 0.4605 0.05342 0.98892 0.0
C590 C 0.46323 0.07076 0.0001 0.0
C591 C 0.4639 0.03429 0.95748 0.0
C592 C 0.47826 0.02885 0.94441 0.0
C593 C 0.47498 0.01209 0.93222 0.0
C594 C 0.45737 0.00011 0.93394 0.0
C595 C 0.44299 0.00499 0.94729 0.0
C596 C 0.44625 0.0223 0.95867 0.0
C597 C 0.42466 0.99196 0.94963 0.0
C598 C 0.41451 0.98257 0.93323 0.0
C599 C 0.41732 0.98864 0.96846 0.0
C600 C 0.40036 0.97618 0.97085 0.0
C601 C 0.39041 0.96657 0.9545 0.0
C602 C 0.49004 0.00737 0.91774 0.0
C603 C 0.50009 0.02266 0.90763 0.0
C604 C 0.49486 0.9878 0.91416 0.0
C605 C 0.50976 0.98373 0.90122 0.0
C606 C 0.52026 -0.00084 0.8918 0.0
C607 C 0.5151 0.01862 0.89495 0.0
C608 C 0.39762 0.96995 0.93565 0.0
H609 H 0.48808 0.09924 0.96699 0.0
H610 H 0.48227 0.06958 0.94718 0.0
H611 H 0.45314 0.04065 0.99545 0.0
H612 H 0.45732 0.07094 0.01464 0.0
H613 H 0.49225 0.03756 0.94392 0.0
H614 H 0.43477 0.02663 0.96823 0.0
H615 H 0.45487 0.98697 0.92489 0.0
H616 H 0.41952 0.98504 0.91848 0.0
H617 H 0.42495 0.99533 0.98147 0.0
H618 H 0.39537 0.97361 0.9856 0.0
H619 H 0.49642 0.03785 0.90955 0.0
H620 H 0.48757 0.97567 0.92179 0.0
H621 H 0.39013 0.96289 0.92276 0.0
H622 H 0.52274 0.03076 0.88761 0.0
H623 H 0.51356 0.9686 0.8991 0.0
Mg624 Mg 0.23869 0.84931 0.00106 0.0
O625 O 0.26643 0.86807 0.99167 0.0
O626 O 0.29056 0.8469 0.98842 0.0
Mg627 Mg 0.27913 0.81584 0.996 0.0
C628 C 0.28426 0.8643 0.98752 0.0
C629 C 0.2033 0.87272 0.00658 0.0
O630 O 0.20286 0.85817 0.0193 0.0
O631 O 0.23345 0.83723 0.9698 0.0
O632 O 0.25816 0.81648 0.96805 0.0
O633 O 0.24832 0.85335 0.03274 0.0
O634 O 0.25704 0.82883 0.01415 0.0
C635 C 0.24282 0.82461 0.96044 0.0
C636 C 0.25843 0.83779 0.03097 0.0
O637 O 0.21769 0.87414 0.99507 0.0
Mg638 Mg 0.15648 0.50538 0.26936 0.0
O639 O 0.13702 0.50387 0.24019 0.0
O640 O 0.15823 0.50509 0.21579 0.0
Mg641 Mg 0.19037 0.50641 0.22869 0.0
C642 C 0.14047 0.50417 0.22183 0.0
C643 C 0.13185 0.50314 0.30515 0.0
O644 O 0.14888 0.5125 0.31082 0.0
O645 O 0.16418 0.47331 0.26601 0.0
O646 O 0.18539 0.47534 0.24159 0.0
O647 O 0.15787 0.53835 0.2686 0.0
O648 O 0.17987 0.51996 0.25537 0.0
C649 C 0.17593 0.46541 0.25445 0.0
C650 C 0.17366 0.53723 0.25851 0.0
O651 O 0.12947 0.49717 0.28738 0.0
Mg652 Mg 0.77593 0.65794 0.0342 0.0
O653 O 0.74439 0.64329 0.02864 0.0
O654 O 0.72343 0.66769 0.02471 0.0
Mg655 Mg 0.74084 0.69743 0.02958 0.0
C656 C 0.72682 0.64937 0.02517 0.0
C657 C 0.80748 0.63044 0.02062 0.0
O658 O 0.81425 0.6478 0.01464 0.0
O659 O 0.77661 0.66689 0.00162 0.0
O660 O 0.75735 0.69283 0.00131 0.0
O661 O 0.77188 0.65856 0.06691 0.0
O662 O 0.76411 0.68242 0.04645 0.0
C663 C 0.76902 0.68158 0.99287 0.0
C664 C 0.76447 0.67559 0.06407 0.0
O665 O 0.79077 0.6291 0.02874 0.0
Mg666 Mg 0.90863 0.04044 0.24108 0.0
O667 O 0.88884 0.01166 0.238 0.0
O668 O 0.90899 0.98741 0.23187 0.0
Mg669 Mg 0.94124 -7e-05 0.23282 0.0
C670 C 0.89161 0.99358 0.23427 0.0
C671 C 0.88245 0.0747 0.24618 0.0
O672 O 0.89776 0.08184 0.23659 0.0
O673 O 0.91935 0.03193 0.27224 0.0
O674 O 0.93912 0.00744 0.26574 0.0
O675 O 0.90588 0.04442 0.20861 0.0
O676 O 0.93003 0.02848 0.22385 0.0
C677 C 0.93118 0.01868 0.27791 0.0
C678 C 0.92128 0.03383 0.20752 0.0
O679 O 0.8823 0.05681 0.25164 0.0
Mg680 Mg 0.27672 0.15871 0.52107 0.0
O681 O 0.24651 0.14045 0.51856 0.0
O682 O 0.22254 0.16205 0.51485 0.0
Mg683 Mg 0.23682 0.19312 0.5133 0.0
C684 C 0.22805 0.14442 0.51663 0.0
C685 C 0.29388 0.11781 0.53107 0.0
O686 O 0.28183 0.11932 0.5456 0.0
O687 O 0.27533 0.16375 0.48787 0.0
O688 O 0.25101 0.18498 0.48431 0.0
O689 O 0.27404 0.16224 0.55348 0.0
O690 O 0.26244 0.18301 0.53129 0.0
C691 C 0.26427 0.1746 0.47713 0.0
C692 C 0.26422 0.17775 0.54949 0.0
O693 O 0.29438 0.13116 0.518 0.0
Mg694 Mg 0.40539 0.53807 0.74722 0.0
O695 O 0.38557 0.50959 0.74206 0.0
O696 O 0.40607 0.48518 0.73778 0.0
Mg697 Mg 0.43837 0.49778 0.73927 0.0
C698 C 0.38853 0.49143 0.73899 0.0
C699 C 0.37963 0.5725 0.75374 0.0
O700 O 0.39569 0.58023 0.74577 0.0
O701 O 0.41457 0.52821 0.77832 0.0
O702 O 0.43548 0.50457 0.77225 0.0
O703 O 0.40456 0.54411 0.71509 0.0
O704 O 0.42734 0.5265 0.7305 0.0
C705 C 0.42663 0.51527 0.78424 0.0
C706 C 0.41983 0.53331 0.71419 0.0
O707 O 0.37877 0.55417 0.75748 0.0
Mg708 Mg 0.73611 0.34819 0.50397 0.0
O709 O 0.76609 0.36479 0.49759 0.0
O710 O 0.78887 0.34187 0.49725 0.0
Mg711 Mg 0.77437 0.31165 0.50387 0.0
C712 C 0.78399 0.35971 0.49548 0.0
C713 C 0.70337 0.37458 0.50813 0.0
O714 O 0.70181 0.36016 0.52092 0.0
O715 O 0.73336 0.33622 0.47226 0.0
O716 O 0.75635 0.31352 0.47439 0.0
O717 O 0.74285 0.35139 0.53657 0.0
O718 O 0.75107 0.32622 0.51867 0.0
C719 C 0.74278 0.32246 0.46463 0.0
C720 C 0.75143 0.33484 0.53557 0.0
O721 O 0.71772 0.37474 0.49657 0.0
Mg722 Mg 0.66044 0.99075 0.76973 0.0
O723 O 0.64184 0.99163 0.74019 0.0
O724 O 0.66369 0.99324 0.71635 0.0
Mg725 Mg 0.69556 0.99394 0.73013 0.0
C726 C 0.64575 0.99245 0.72196 0.0
C727 C 0.63528 0.98789 0.80468 0.0
O728 O 0.6529 0.99574 0.81077 0.0
O729 O 0.66721 0.9585 0.76432 0.0
O730 O 0.6895 0.96234 0.741 0.0
O731 O 0.66271 0.02373 0.771 0.0
O732 O 0.68473 0.00558 0.75746 0.0
C733 C 0.67939 0.95142 0.75261 0.0
C734 C 0.67889 0.02278 0.76149 0.0
O735 O 0.63264 0.98269 0.78668 0.0
Mg736 Mg 0.03405 0.2574 0.90299 0.0
O737 O 0.0049 0.25388 0.88338 0.0
O738 O 0.98082 0.24268 0.90281 0.0
Mg739 Mg 0.99426 0.23846 0.9339 0.0
C740 C 0.98668 0.24837 0.88605 0.0
C741 C 0.06855 0.27666 0.88212 0.0
O742 O 0.07666 0.26927 0.89833 0.0
O743 O 0.023 0.28497 0.91724 0.0
O744 O 0.99936 0.27215 0.93628 0.0
O745 O 0.04102 0.2266 0.8962 0.0
O746 O 0.02351 0.23508 0.92131 0.0
C747 C 0.0096 0.28689 0.92971 0.0
C748 C 0.03046 0.22133 0.91093 0.0
O749 O 0.04962 0.27509 0.8793 0.0
Mg750 Mg 0.53112 0.75708 0.40833 0.0
O751 O 0.50225 0.75328 0.3883 0.0
O752 O 0.47837 0.74067 0.40719 0.0
Mg753 Mg 0.49122 0.73747 0.43864 0.0
C754 C 0.48424 0.74675 0.39056 0.0
C755 C 0.56488 0.78057 0.38994 0.0
O756 O 0.57215 0.77615 0.40764 0.0
O757 O 0.51959 0.78428 0.42252 0.0
O758 O 0.49568 0.77132 0.44112 0.0
O759 O 0.53859 0.7265 0.40134 0.0
O760 O 0.52067 0.73443 0.42635 0.0
C761 C 0.50596 0.78614 0.43475 0.0
C762 C 0.52784 0.7209 0.41583 0.0
O763 O 0.54677 0.77535 0.38516 0.0
Mg764 Mg 0.98146 0.74621 0.59073 0.0
O765 O 0.01213 0.74012 0.60536 0.0
O766 O 0.03272 0.73444 0.58132 0.0
Mg767 Mg 0.01484 0.73526 0.55158 0.0
C768 C 0.02934 0.73625 0.59957 0.0
C769 C 0.97112 0.7474 0.63481 0.0
O770 O 0.97967 0.73047 0.63417 0.0
O771 O 0.99351 0.77665 0.58103 0.0
O772 O 0.01126 0.76849 0.55545 0.0
O773 O 0.97242 0.71411 0.59153 0.0
O774 O 0.98714 0.72871 0.56669 0.0
C775 C 0.00398 0.78138 0.56638 0.0
C776 C 0.98015 0.71273 0.57453 0.0
O777 O 0.97065 0.75813 0.61949 0.0
Mg778 Mg 0.4822 0.24692 0.08714 0.0
O779 O 0.51071 0.23909 0.10521 0.0
O780 O 0.53324 0.23135 0.08367 0.0
Mg781 Mg 0.51975 0.23497 0.05234 0.0
C782 C 0.52803 0.23355 0.10134 0.0
C783 C 0.44907 0.2578 0.11191 0.0
O784 O 0.44103 0.25217 0.09459 0.0
O785 O 0.49684 0.27699 0.07983 0.0
O786 O 0.51856 0.26837 0.05782 0.0
O787 O 0.47157 0.21524 0.0861 0.0
O788 O 0.48989 0.22967 0.06357 0.0
C789 C 0.51033 0.28148 0.06771 0.0
C790 C 0.4812 0.21384 0.07016 0.0
O791 O 0.46803 0.25837 0.11448 0.0
H792 H 0.23379 0.78631 0.83868 0.0
H793 H 0.20425 0.82248 0.94469 0.0
H794 H 0.17896 0.76547 0.86418 0.0
H795 H 0.26511 0.8133 0.93041 0.0
H796 H 0.19268 0.8098 0.91183 0.0
H797 H 0.2432 0.80491 0.86908 0.0
C798 C 0.22358 0.78598 0.85056 0.0
C799 C 0.20563 0.77434 0.84904 0.0
C800 C 0.20856 0.81077 0.91592 0.0
C801 C 0.21623 0.79551 0.88363 0.0
C802 C 0.21516 0.81806 0.93455 0.0
C803 C 0.23563 0.81875 0.94026 0.0
C804 C 0.22259 0.80466 0.90285 0.0
C805 C 0.24918 0.81279 0.92663 0.0
C806 C 0.22901 0.79645 0.86788 0.0
C807 C 0.19299 0.7742 0.8649 0.0
N808 N 0.24242 0.80603 0.90852 0.0
N809 N 0.19854 0.78464 0.88161 0.0
H810 H 0.05545 0.52361 0.39993 0.0
H811 H 0.09509 0.48299 0.29966 0.0
H812 H 0.0241 0.47581 0.36733 0.0
H813 H 0.13167 0.51776 0.34253 0.0
H814 H 0.06818 0.48078 0.32297 0.0
H815 H 0.08285 0.5225 0.37775 0.0
C816 C 0.05438 0.51286 0.38805 0.0
C817 C 0.03747 0.49987 0.38534 0.0
C818 C 0.08218 0.48876 0.32726 0.0
C819 C 0.06879 0.49851 0.35979 0.0
C820 C 0.0975 0.49007 0.31397 0.0
C821 C 0.11563 0.50067 0.3191 0.0
C822 C 0.08498 0.4983 0.34567 0.0
C823 C 0.11796 0.5095 0.33786 0.0
C824 C 0.07006 0.51216 0.37544 0.0
C825 C 0.03693 0.48605 0.36989 0.0
N826 N 0.10279 0.50823 0.35036 0.0
N827 N 0.05232 0.48584 0.35752 0.0
H828 H 0.78276 0.68686 0.86656 0.0
H829 H 0.77151 0.71806 0.97694 0.0
H830 H 0.80819 0.74202 0.89061 0.0
H831 H 0.77931 0.65703 0.96298 0.0
H832 H 0.78039 0.72711 0.94368 0.0
H833 H 0.77731 0.67531 0.90034 0.0
C834 C 0.78732 0.69643 0.87896 0.0
C835 C 0.79595 0.71539 0.87587 0.0
C836 C 0.78024 0.71174 0.9479 0.0
C837 C 0.78948 0.7025 0.91417 0.0
C838 C 0.77503 0.70653 0.96682 0.0
C839 C 0.77462 0.68675 0.97269 0.0
C840 C 0.78465 0.69706 0.93451 0.0
C841 C 0.77951 0.67246 0.95901 0.0
C842 C 0.7843 0.68982 0.89814 0.0
C843 C 0.80164 0.72725 0.89237 0.0
N844 N 0.78412 0.67787 0.94039 0.0
N845 N 0.79806 0.72071 0.91079 0.0
H846 H 0.99271 0.04078 0.39031 0.0
H847 H 0.94114 0.98542 0.29752 0.0
H848 H 0.97123 0.97993 0.39308 0.0
H849 H 0.9348 0.04763 0.30628 0.0
H850 H 0.95431 0.98299 0.33167 0.0
H851 H 0.97387 0.04382 0.35852 0.0
C852 C 0.98393 0.02812 0.38424 0.0
C853 C 0.9835 0.01007 0.39423 0.0
C854 C 0.94981 0.99712 0.32619 0.0
C855 C 0.96224 0.01336 0.35797 0.0
C856 C 0.94236 0.99853 0.30671 0.0
C857 C 0.93693 0.01676 0.29909 0.0
C858 C 0.95234 0.01415 0.33799 0.0
C859 C 0.93875 0.03328 0.31164 0.0
C860 C 0.97312 0.02988 0.36622 0.0
C861 C 0.97184 0.99412 0.38585 0.0
N862 N 0.94662 0.03166 0.33043 0.0
N863 N 0.96188 0.99605 0.36806 0.0
H864 H 0.2442 0.23181 0.66121 0.0
H865 H 0.2421 0.21046 0.5457 0.0
H866 H 0.2094 0.26424 0.61842 0.0
H867 H 0.26637 0.17087 0.58924 0.0
H868 H 0.22945 0.22995 0.57208 0.0
H869 H 0.252 0.20894 0.63516 0.0
C870 C 0.23811 0.23403 0.64633 0.0
C871 C 0.22625 0.25001 0.64192 0.0
C872 C 0.23737 0.21689 0.57587 0.0
C873 C 0.23517 0.22397 0.61203 0.0
C874 C 0.24459 0.20571 0.56078 0.0
C875 C 0.25531 0.18897 0.56523 0.0
C876 C 0.24111 0.21146 0.5956 0.0
C877 C 0.25821 0.18368 0.58511 0.0
C878 C 0.2425 0.22094 0.63149 0.0
C879 C 0.21853 0.25206 0.62246 0.0
N880 N 0.25129 0.19498 0.59957 0.0
N881 N 0.2233 0.23932 0.60819 0.0
H882 H 0.46476 0.48675 0.60629 0.0
H883 H 0.42047 0.55743 0.68253 0.0
H884 H 0.48526 0.54809 0.6117 0.0
H885 H 0.43884 0.50065 0.70252 0.0
H886 H 0.43664 0.55228 0.65154 0.0
H887 H 0.44864 0.48963 0.63775 0.0
C888 C 0.46603 0.50076 0.614 0.0
C889 C 0.47625 0.51728 0.60598 0.0
C890 C 0.43702 0.54094 0.66272 0.0
C891 C 0.45722 0.52066 0.64151 0.0
C892 C 0.42775 0.5438 0.68031 0.0
C893 C 0.42851 0.52951 0.69513 0.0
C894 C 0.44666 0.52346 0.65973 0.0
C895 C 0.43818 0.51212 0.69154 0.0
C896 C 0.45671 0.50236 0.63188 0.0
C897 C 0.47704 0.53509 0.61672 0.0
N898 N 0.44682 0.50948 0.67407 0.0
N899 N 0.46744 0.53635 0.63374 0.0
H900 H 0.77458 0.24848 0.62323 0.0
H901 H 0.76086 0.35139 0.57212 0.0
H902 H 0.80314 0.30165 0.64925 0.0
H903 H 0.76235 0.29703 0.53928 0.0
H904 H 0.77299 0.33425 0.6019 0.0
H905 H 0.76609 0.26682 0.59358 0.0
C906 C 0.77931 0.26395 0.62271 0.0
C907 C 0.78988 0.2734 0.63882 0.0
C908 C 0.77084 0.32621 0.58808 0.0
C909 C 0.77952 0.29465 0.60491 0.0
C910 C 0.76391 0.33594 0.57114 0.0
C911 C 0.76058 0.32559 0.55323 0.0
C912 C 0.77398 0.30599 0.5871 0.0
C913 C 0.76476 0.3056 0.55274 0.0
C914 C 0.77432 0.27443 0.60575 0.0
C915 C 0.79484 0.29372 0.63735 0.0
N916 N 0.77101 0.2964 0.56947 0.0
N917 N 0.78953 0.30372 0.6207 0.0
H918 H 0.5343 0.00844 0.6537 0.0
H919 H 0.64745 0.98501 0.68254 0.0
H920 H 0.57051 0.97434 0.61696 0.0
H921 H 0.60611 -0.00045 0.72642 0.0
H922 H 0.62015 0.98481 0.65736 0.0
H923 H 0.56106 0.00867 0.67973 0.0
C924 C 0.54778 0.00094 0.65107 0.0
C925 C 0.55009 0.99145 0.63294 0.0
C926 C 0.61702 0.98801 0.6725 0.0
C927 C 0.5809 0.99201 0.66261 0.0
C928 C 0.63263 0.98821 0.68691 0.0
C929 C 0.6291 0.99229 0.70668 0.0
C930 C 0.59769 0.99216 0.67776 0.0
C931 C 0.60951 0.99624 0.71139 0.0
C932 C 0.56307 0.00116 0.66594 0.0
C933 C 0.56811 0.98226 0.63041 0.0
N934 N 0.59454 0.99618 0.69701 0.0
N935 N 0.58278 0.98285 0.645 0.0
H936 H 0.87687 0.25239 0.81401 0.0
H937 H 0.99293 0.24697 0.84638 0.0
H938 H 0.91892 0.22674 0.77674 0.0
H939 H 0.94623 0.24997 0.88764 0.0
H940 H 0.96722 0.24548 0.81916 0.0
H941 H 0.90365 0.25784 0.83967 0.0
C942 C 0.89181 0.24812 0.81116 0.0
C943 C 0.89571 0.23904 0.79329 0.0
C944 C 0.96269 0.24654 0.83419 0.0
C945 C 0.92634 0.24517 0.82254 0.0
C946 C 0.97732 0.24747 0.8497 0.0
C947 C 0.97168 0.24845 0.86929 0.0
C948 C 0.94239 0.24696 0.83836 0.0
C949 C 0.95124 0.24902 0.87277 0.0
C950 C 0.90703 0.25111 0.82583 0.0
C951 C 0.91528 0.23361 0.79042 0.0
N952 N 0.93735 0.2483 0.85746 0.0
N953 N 0.92992 0.23676 0.80491 0.0
H954 H 0.45482 0.88943 0.48225 0.0
H955 H 0.53205 0.81861 0.43732 0.0
H956 H 0.51853 0.89573 0.49659 0.0
H957 H 0.47175 0.79867 0.44981 0.0
H958 H 0.52641 0.85056 0.4524 0.0
H959 H 0.46008 0.85935 0.46391 0.0
C960 C 0.46991 0.88456 0.48164 0.0
C961 C 0.48622 0.89519 0.49127 0.0
C962 C 0.51441 0.83919 0.45171 0.0
C963 C 0.49229 0.86102 0.46967 0.0
C964 C 0.51757 0.82102 0.44303 0.0
C965 C 0.50237 0.80594 0.44244 0.0
C966 C 0.49582 0.84238 0.45945 0.0
C967 C 0.48392 0.80984 0.45013 0.0
C968 C 0.47286 0.86744 0.47103 0.0
C969 C 0.50547 0.88831 0.48929 0.0
N970 N 0.48114 0.8277 0.45828 0.0
N971 N 0.50796 0.87168 0.47872 0.0
H972 H 0.11695 0.32025 0.77317 0.0
H973 H 0.10931 0.28112 0.88382 0.0
H974 H 0.16708 0.30168 0.80981 0.0
H975 H 0.05732 0.2907 0.84542 0.0
H976 H 0.13073 0.29203 0.85764 0.0
H977 H 0.09487 0.31224 0.80002 0.0
C978 C 0.12333 0.31447 0.78681 0.0
C979 C 0.14396 0.3117 0.78921 0.0
C980 C 0.11464 0.29182 0.85491 0.0
C981 C 0.11881 0.30276 0.82005 0.0
C982 C 0.10237 0.28564 0.8699 0.0
C983 C 0.08147 0.28487 0.86678 0.0
C984 C 0.10601 0.29731 0.83659 0.0
C985 C 0.07337 0.291 0.84844 0.0
C986 C 0.11072 0.31001 0.80216 0.0
C987 C 0.15138 0.30442 0.80734 0.0
N988 N 0.08567 0.29689 0.83398 0.0
N989 N 0.13883 0.30021 0.822 0.0
H990 H 0.4859 0.61041 0.46495 0.0
H991 H 0.54352 0.68931 0.39824 0.0
H992 H 0.54002 0.59825 0.43636 0.0
H993 H 0.5027 0.70417 0.44247 0.0
H994 H 0.53776 0.65442 0.4063 0.0
H995 H 0.48692 0.64321 0.45038 0.0
C996 C 0.4979 0.61458 0.45544 0.0
C997 C 0.51312 0.60171 0.45218 0.0
C998 C 0.52995 0.66536 0.41408 0.0
C999 C 0.5143 0.63921 0.43539 0.0
C1000 C 0.5332 0.68526 0.4095 0.0
C1001 C 0.52361 0.69974 0.41974 0.0
C1002 C 0.51687 0.6599 0.42884 0.0
C1003 C 0.51041 0.69361 0.43417 0.0
C1004 C 0.49846 0.63329 0.44713 0.0
C1005 C 0.52801 0.6077 0.4393 0.0
N1006 N 0.50746 0.67417 0.4383 0.0
N1007 N 0.52836 0.62614 0.43154 0.0
H1008 H 0.87528 0.78635 0.70212 0.0
H1009 H 0.96837 0.72754 0.66971 0.0
H1010 H 0.9002 0.73927 0.73631 0.0
H1011 H 0.94672 0.77817 0.63867 0.0
H1012 H 0.94522 0.73309 0.69557 0.0
H1013 H 0.90261 0.78478 0.67979 0.0
C1014 C 0.88652 0.77567 0.70493 0.0
C1015 C 0.88535 0.76279 0.721 0.0
C1016 C 0.94568 0.74311 0.68321 0.0
C1017 C 0.91679 0.76098 0.69554 0.0
C1018 C 0.95893 0.73997 0.66844 0.0
C1019 C 0.95935 0.75228 0.65187 0.0
C1020 C 0.93264 0.75859 0.68135 0.0
C1021 C 0.94684 0.76822 0.65109 0.0
C1022 C 0.9022 0.77488 0.69225 0.0
C1023 C 0.90055 0.74953 0.72414 0.0
N1024 N 0.93385 0.77078 0.6655 0.0
N1025 N 0.91554 0.74885 0.71143 0.0
H1026 H 0.03822 0.90641 0.56059 0.0
H1027 H 0.00917 0.79624 0.52982 0.0
H1028 H 0.00574 0.89119 0.50566 0.0
H1029 H 0.00572 0.81416 0.59055 0.0
H1030 H 0.01386 0.83078 0.52051 0.0
H1031 H 0.03186 0.87232 0.57197 0.0
C1032 C 0.02969 0.8959 0.55102 0.0
C1033 C 0.0224 0.90151 0.53222 0.0
C1034 C 0.01206 0.82714 0.53587 0.0
C1035 C 0.01552 0.86279 0.54486 0.0
C1036 C 0.00951 0.80745 0.54123 0.0
C1037 C 0.00706 0.80234 0.561 0.0
C1038 C 0.01261 0.84187 0.55042 0.0
C1039 C 0.00747 0.81752 0.57514 0.0
C1040 C 0.02602 0.87658 0.55751 0.0
C1041 C 0.01145 0.88743 0.52031 0.0
N1042 N 0.0104 0.83667 0.5696 0.0
N1043 N 0.00855 0.86865 0.52673 0.0
H1044 H 0.10007 0.70258 0.70319 0.0
H1045 H 0.06969 0.73779 0.59429 0.0
H1046 H 0.14168 0.73437 0.66688 0.0
H1047 H 0.02657 0.72809 0.63887 0.0
H1048 H 0.09664 0.73251 0.61917 0.0
H1049 H 0.07321 0.70748 0.67803 0.0
C1050 C 0.10355 0.71045 0.68984 0.0
C1051 C 0.12308 0.71809 0.68707 0.0
C1052 C 0.08127 0.73159 0.62348 0.0
C1053 C 0.09253 0.72372 0.65831 0.0
C1054 C 0.06588 0.73453 0.6093 0.0
C1055 C 0.04583 0.73341 0.61451 0.0
C1056 C 0.07658 0.72716 0.64294 0.0
C1057 C 0.0418 0.7292 0.63421 0.0
C1058 C 0.08822 0.71337 0.67558 0.0
C1059 C 0.12677 0.72837 0.66961 0.0
N1060 N 0.05703 0.7261 0.64768 0.0
N1061 N 0.11165 0.73081 0.65583 0.0
H1062 H 0.98113 0.58914 0.5416 0.0
H1063 H 0.98749 0.70629 0.53599 0.0
H1064 H 0.9671 0.62132 0.48826 0.0
H1065 H 0.97426 0.67565 0.58979 0.0
H1066 H 0.98638 0.67468 0.51864 0.0
H1067 H 0.98409 0.62034 0.5599 0.0
C1068 C 0.97857 0.60267 0.5337 0.0
C1069 C 0.97389 0.60248 0.51325 0.0
C1070 C 0.98379 0.67488 0.53426 0.0
C1071 C 0.97782 0.63822 0.53411 0.0
C1072 C 0.98454 0.69289 0.5442 0.0
C1073 C 0.98088 0.69358 0.56434 0.0
C1074 C 0.97962 0.6574 0.54457 0.0
C1075 C 0.97705 0.67576 0.57422 0.0
C1076 C 0.9804 0.62047 0.54418 0.0
C1077 C 0.97116 0.62063 0.50387 0.0
N1078 N 0.97655 0.65834 0.56423 0.0
N1079 N 0.97326 0.63772 0.51434 0.0
H1080 H 0.77976 0.92598 0.24909 0.0
H1081 H 0.89028 0.95663 0.21829 0.0
H1082 H 0.81205 0.89311 0.20777 0.0
H1083 H 0.85328 0.99765 0.24603 0.0
H1084 H 0.86194 0.93264 0.21586 0.0
H1085 H 0.80641 0.95217 0.24926 0.0
C1086 C 0.79232 0.92433 0.23991 0.0
C1087 C 0.79375 0.90717 0.22858 0.0
C1088 C 0.85995 0.94691 0.22241 0.0
C1089 C 0.82438 0.93692 0.22895 0.0
C1090 C 0.87618 0.96061 0.2239 0.0
C1091 C 0.8742 0.97919 0.23246 0.0
C1092 C 0.84157 0.95164 0.22972 0.0
C1093 C 0.85548 0.98351 0.23931 0.0
C1094 C 0.80756 0.93925 0.24009 0.0
C1095 C 0.81049 0.90581 0.21711 0.0
N1096 N 0.83989 0.96977 0.23792 0.0
N1097 N 0.82518 0.92039 0.21772 0.0
H1098 H 0.76541 0.11789 0.26683 0.0
H1099 H 0.87928 0.11348 0.23702 0.0
H1100 H 0.79957 0.16651 0.24191 0.0
H1101 H 0.84614 0.06384 0.26137 0.0
H1102 H 0.85018 0.13313 0.23949 0.0
H1103 H 0.7945 0.09769 0.26511 0.0
C1104 C 0.77896 0.12427 0.26085 0.0
C1105 C 0.78004 0.14396 0.25455 0.0
C1106 C 0.84923 0.11796 0.24436 0.0
C1107 C 0.81346 0.12101 0.25278 0.0
C1108 C 0.8659 0.10671 0.24299 0.0
C1109 C 0.86517 0.08694 0.24896 0.0
C1110 C 0.83158 0.10944 0.25172 0.0
C1111 C 0.84738 0.07903 0.25661 0.0
C1112 C 0.79561 0.11278 0.26002 0.0
C1113 C 0.7981 0.15152 0.24721 0.0
N1114 N 0.83126 0.09029 0.25771 0.0
N1115 N 0.81405 0.14006 0.24654 0.0
H1116 H 0.38331 0.93001 0.93793 0.0
H1117 H 0.28227 0.90435 0.99291 0.0
H1118 H 0.35841 0.97076 0.9776 0.0
H1119 H 0.31829 0.86084 0.96775 0.0
H1120 H 0.30689 0.93024 0.98334 0.0
H1121 H 0.35609 0.90589 0.94436 0.0
C1122 C 0.37197 0.93397 0.94782 0.0
C1123 C 0.37317 0.95239 0.95731 0.0
C1124 C 0.3093 0.915 0.9799 0.0
C1125 C 0.34204 0.92478 0.96488 0.0
C1126 C 0.29525 0.90025 0.98529 0.0
C1127 C 0.2983 0.88039 0.98127 0.0
C1128 C 0.32631 0.90983 0.97018 0.0
C1129 C 0.3154 0.87592 0.97136 0.0
C1130 C 0.35652 0.92014 0.9516 0.0
C1131 C 0.35817 0.95663 0.97017 0.0
N1132 N 0.32871 0.8905 0.96616 0.0
N1133 N 0.34321 0.94291 0.9736 0.0
H1134 H 0.2392 0.37039 0.30232 0.0
H1135 H 0.18597 0.43925 0.22655 0.0
H1136 H 0.21828 0.34861 0.24478 0.0
H1137 H 0.17738 0.44461 0.28885 0.0
H1138 H 0.19921 0.40674 0.23234 0.0
H1139 H 0.21839 0.39883 0.29755 0.0
C1140 C 0.23009 0.37158 0.28876 0.0
C1141 C 0.23041 0.35727 0.27388 0.0
C1142 C 0.1941 0.4149 0.24468 0.0
C1143 C 0.20694 0.38969 0.26822 0.0
C1144 C 0.18658 0.43342 0.2414 0.0
C1145 C 0.18063 0.4446 0.25726 0.0
C1146 C 0.19621 0.40779 0.26402 0.0
C1147 C 0.18173 0.4364 0.27621 0.0
C1148 C 0.21816 0.38769 0.28609 0.0
C1149 C 0.21834 0.35936 0.25659 0.0
N1150 N 0.18977 0.41862 0.27914 0.0
N1151 N 0.20731 0.37547 0.25407 0.0
H1152 H 0.11553 0.07709 0.52373 0.0
H1153 H 0.23154 0.10492 0.50918 0.0
H1154 H 0.15267 0.04023 0.49098 0.0
H1155 H 0.1886 0.14714 0.52371 0.0
H1156 H 0.20442 0.07902 0.50748 0.0
H1157 H 0.14403 0.10085 0.52919 0.0
C1158 C 0.12976 0.07389 0.51789 0.0
C1159 C 0.13172 0.05671 0.50681 0.0
C1160 C 0.20103 0.09397 0.5111 0.0
C1161 C 0.16437 0.08389 0.5129 0.0
C1162 C 0.21647 0.10872 0.51214 0.0
C1163 C 0.2123 0.12825 0.51643 0.0
C1164 C 0.18138 0.09878 0.51469 0.0
C1165 C 0.1925 0.13234 0.52013 0.0
C1166 C 0.14597 0.08752 0.52089 0.0
C1167 C 0.15047 0.05342 0.49941 0.0
N1168 N 0.17782 0.11775 0.51919 0.0
N1169 N 0.16609 0.0669 0.50257 0.0
H1170 H 0.72262 0.13924 0.72575 0.0
H1171 H 0.71785 0.0256 0.75183 0.0
H1172 H 0.77317 0.11061 0.75284 0.0
H1173 H 0.66675 0.06067 0.75849 0.0
H1174 H 0.73805 0.05558 0.74487 0.0
H1175 H 0.70155 0.10947 0.73125 0.0
C1176 C 0.72936 0.12685 0.73294 0.0
C1177 C 0.74986 0.12763 0.73885 0.0
C1178 C 0.72239 0.05667 0.74777 0.0
C1179 C 0.7258 0.09329 0.74446 0.0
C1180 C 0.71082 0.03959 0.75161 0.0
C1181 C 0.69062 0.04069 0.7558 0.0
C1182 C 0.71361 0.07493 0.74773 0.0
C1183 C 0.68231 0.05922 0.75543 0.0
C1184 C 0.71728 0.10982 0.73593 0.0
C1185 C 0.75764 0.11074 0.74761 0.0
N1186 N 0.69384 0.07567 0.75137 0.0
N1187 N 0.74565 0.09426 0.75003 0.0
H1188 H 0.36998 0.02346 0.5662 0.0
H1189 H 0.32341 0.11248 0.50537 0.0
H1190 H 0.39908 0.05363 0.51873 0.0
H1191 H 0.2978 0.08758 0.55743 0.0
H1192 H 0.34939 0.08861 0.50799 0.0
H1193 H 0.34191 0.04484 0.56154 0.0
C1194 C 0.37053 0.03461 0.55484 0.0
C1195 C 0.387 0.03674 0.54288 0.0
C1196 C 0.33802 0.08829 0.51879 0.0
C1197 C 0.35473 0.06111 0.53729 0.0
C1198 C 0.32312 0.10188 0.51726 0.0
C1199 C 0.30845 0.10215 0.53128 0.0
C1200 C 0.33829 0.07482 0.53444 0.0
C1201 C 0.30885 0.08801 0.54634 0.0
C1202 C 0.35442 0.04673 0.55211 0.0
C1203 C 0.38664 0.05123 0.52815 0.0
N1204 N 0.32359 0.07499 0.54757 0.0
N1205 N 0.37081 0.06286 0.52581 0.0
H1206 H 0.60733 0.44618 0.53819 0.0
H1207 H 0.69862 0.40495 0.48155 0.0
H1208 H 0.62408 0.4685 0.48156 0.0
H1209 H 0.67448 0.37944 0.53404 0.0
H1210 H 0.67324 0.42983 0.48179 0.0
H1211 H 0.63391 0.42327 0.53759 0.0
C1212 C 0.61675 0.4464 0.52568 0.0
C1213 C 0.61351 0.45938 0.50995 0.0
C1214 C 0.67358 0.41875 0.49322 0.0
C1215 C 0.64397 0.4328 0.50899 0.0
C1216 C 0.68805 0.4046 0.49311 0.0
C1217 C 0.68864 0.39006 0.50776 0.0
C1218 C 0.65977 0.41836 0.50816 0.0
C1219 C 0.67459 0.39028 0.52238 0.0
C1220 C 0.63187 0.43317 0.52527 0.0
C1221 C 0.62596 0.45864 0.49394 0.0
N1222 N 0.66081 0.40417 0.5222 0.0
N1223 N 0.64069 0.44557 0.49387 0.0
H1224 H 0.74046 0.25339 0.35899 0.0
H1225 H 0.70883 0.32875 0.44105 0.0
H1226 H 0.68428 0.28168 0.35446 0.0
H1227 H 0.76539 0.30106 0.44136 0.0
H1228 H 0.70001 0.31411 0.40835 0.0
H1229 H 0.75025 0.27291 0.38831 0.0
C1230 C 0.73014 0.26372 0.36426 0.0
C1231 C 0.71142 0.26571 0.3545 0.0
C1232 C 0.7144 0.31144 0.41556 0.0
C1233 C 0.72255 0.28831 0.38816 0.0
C1234 C 0.71947 0.31982 0.43417 0.0
C1235 C 0.73776 0.3159 0.44408 0.0
C1236 C 0.72778 0.29916 0.40689 0.0
C1237 C 0.75098 0.30426 0.43447 0.0
C1238 C 0.73577 0.27498 0.38096 0.0
C1239 C 0.69883 0.27967 0.36166 0.0
N1240 N 0.74568 0.29624 0.41655 0.0
N1241 N 0.70454 0.29034 0.37823 0.0
H1242 H 0.52145 0.97242 0.86143 0.0
H1243 H 0.63623 0.00111 0.84263 0.0
H1244 H 0.55758 0.01708 0.89412 0.0
H1245 H 0.59648 0.97259 0.79784 0.0
H1246 H 0.60851 0.00196 0.86433 0.0
H1247 H 0.54973 0.96756 0.84045 0.0
C1248 C 0.53537 0.98108 0.86424 0.0
C1249 C 0.53719 0.99528 0.87939 0.0
C1250 C 0.60583 0.99545 0.84978 0.0
C1251 C 0.56943 0.98971 0.85574 0.0
C1252 C 0.62168 0.99489 0.83736 0.0
C1253 C 0.61866 0.98691 0.81828 0.0
C1254 C 0.58673 0.98787 0.84321 0.0
C1255 C 0.59944 0.97899 0.81239 0.0
C1256 C 0.55141 0.97837 0.85225 0.0
C1257 C 0.55548 0.00617 0.88243 0.0
N1258 N 0.58415 0.97971 0.82481 0.0
N1259 N 0.57087 0.00313 0.87075 0.0
H1260 H 0.31524 0.2204 0.374 0.0
H1261 H 0.23686 0.18148 0.44714 0.0
H1262 H 0.25721 0.1961 0.35225 0.0
H1263 H 0.29963 0.17254 0.45897 0.0
H1264 H 0.24358 0.18872 0.41271 0.0
H1265 H 0.31003 0.20449 0.40557 0.0
C1266 C 0.30156 0.21146 0.3756 0.0
C1267 C 0.28655 0.2099 0.36029 0.0
C1268 C 0.25582 0.18487 0.42278 0.0
C1269 C 0.28031 0.19218 0.39684 0.0
C1270 C 0.25202 0.18082 0.44241 0.0
C1271 C 0.26774 0.17648 0.45589 0.0
C1272 C 0.27556 0.18513 0.41674 0.0
C1273 C 0.28709 0.17576 0.44901 0.0
C1274 C 0.29859 0.20246 0.39375 0.0
C1275 C 0.269 0.19833 0.36368 0.0
N1276 N 0.29055 0.18044 0.42996 0.0
N1277 N 0.26621 0.19022 0.38168 0.0
H1278 H 0.48217 0.54087 0.89832 0.0
H1279 H 0.43899 0.48269 0.80378 0.0
H1280 H 0.46842 0.47818 0.8995 0.0
H1281 H 0.42626 0.54349 0.81312 0.0
H1282 H 0.45114 0.48074 0.8383 0.0
H1283 H 0.46314 0.54253 0.86653 0.0
C1284 C 0.47496 0.52751 0.89193 0.0
C1285 C 0.47685 0.50936 0.90144 0.0
C1286 C 0.44544 0.49442 0.83286 0.0
C1287 C 0.45541 0.51108 0.86512 0.0
C1288 C 0.43858 0.49557 0.81316 0.0
C1289 C 0.4317 0.51331 0.80557 0.0
C1290 C 0.44589 0.51126 0.84493 0.0
C1291 C 0.43139 0.52953 0.8184 0.0
C1292 C 0.46406 0.52847 0.87389 0.0
C1293 C 0.46721 0.49246 0.89264 0.0
N1294 N 0.43873 0.52822 0.8374 0.0
N1295 N 0.45714 0.49368 0.87481 0.0
H1296 H 0.72094 0.72208 0.17318 0.0
H1297 H 0.75613 0.71425 0.0634 0.0
H1298 H 0.75125 0.76985 0.14312 0.0
H1299 H 0.75639 0.66369 0.10177 0.0
H1300 H 0.7467 0.73443 0.09076 0.0
H1301 H 0.72696 0.69997 0.14541 0.0
C1302 C 0.72877 0.72786 0.1607 0.0
C1303 C 0.73575 0.74769 0.16035 0.0
C1304 C 0.74871 0.71889 0.09317 0.0
C1305 C 0.74227 0.72288 0.12876 0.0
C1306 C 0.75397 0.70731 0.07753 0.0
C1307 C 0.75713 0.68726 0.08034 0.0
C1308 C 0.74634 0.71038 0.11174 0.0
C1309 C 0.7542 0.67913 0.09904 0.0
C1310 C 0.73224 0.71531 0.14499 0.0
C1311 C 0.74581 0.75459 0.14395 0.0
N1312 N 0.74894 0.69075 0.11411 0.0
N1313 N 0.74867 0.74224 0.12875 0.0
H1314 H 0.9451 0.03058 0.08434 0.0
H1315 H 0.95326 0.01179 0.20013 0.0
H1316 H 0.98688 0.99162 0.11178 0.0
H1317 H 0.90501 0.04188 0.17086 0.0
H1318 H 0.96511 0.00315 0.16797 0.0
H1319 H 0.92932 0.03369 0.11577 0.0
C1320 C 0.95081 0.02253 0.09699 0.0
C1321 C 0.96739 0.01095 0.09556 0.0
C1322 C 0.95182 0.01147 0.16858 0.0
C1323 C 0.94957 0.01456 0.13162 0.0
C1324 C 0.94502 0.01641 0.18696 0.0
C1325 C 0.92811 0.0276 0.18822 0.0
C1326 C 0.94176 0.01794 0.15132 0.0
C1327 C 0.91815 0.0333 0.17062 0.0
C1328 C 0.9418 0.02427 0.11492 0.0
C1329 C 0.97409 0.00065 0.11229 0.0
N1330 N 0.92521 0.02854 0.15292 0.0
N1331 N 0.96531 0.00289 0.12973 0.0
H1332 H 0.32114 0.76077 0.11051 0.0
H1333 H 0.26325 0.85293 0.0684 0.0
H1334 H 0.29444 0.80309 0.14719 0.0
H1335 H 0.28064 0.80506 0.0322 0.0
H1336 H 0.2798 0.83793 0.0971 0.0
H1337 H 0.31139 0.77982 0.08144 0.0
C1338 C 0.3133 0.77411 0.11247 0.0
C1339 C 0.30839 0.78019 0.13133 0.0
C1340 C 0.28016 0.83082 0.08283 0.0
C1341 C 0.29735 0.80218 0.0981 0.0
C1342 C 0.27076 0.8394 0.06642 0.0
C1343 C 0.27043 0.83016 0.04788 0.0
C1344 C 0.28931 0.81288 0.08068 0.0
C1345 C 0.28047 0.81268 0.04619 0.0
C1346 C 0.30781 0.78502 0.09587 0.0
C1347 C 0.29864 0.79786 0.13299 0.0
N1348 N 0.28937 0.80453 0.06242 0.0
N1349 N 0.29329 0.80814 0.11658 0.0
H1350 H 0.06878 0.51402 0.11331 0.0
H1351 H 0.10037 0.49524 0.22684 0.0
H1352 H 0.02958 0.48303 0.1527 0.0
H1353 H 0.1419 0.51229 0.18256 0.0
H1354 H 0.07303 0.49427 0.20124 0.0
H1355 H 0.0945 0.5173 0.14003 0.0
C1356 C 0.06557 0.50785 0.12757 0.0
C1357 C 0.04703 0.49801 0.13064 0.0
C1358 C 0.08815 0.49824 0.1972 0.0
C1359 C 0.07645 0.50195 0.16149 0.0
C1360 C 0.10375 0.49883 0.2118 0.0
C1361 C 0.12351 0.50375 0.20685 0.0
C1362 C 0.09233 0.50282 0.17761 0.0
C1363 C 0.12697 0.50827 0.1871 0.0
C1364 C 0.08026 0.5098 0.14286 0.0
C1365 C 0.04359 0.49082 0.14965 0.0
N1366 N 0.11157 0.50772 0.17327 0.0
N1367 N 0.0582 0.49285 0.16434 0.0
H1368 H 0.38442 0.71124 0.31097 0.0
H1369 H 0.4883 0.76205 0.35331 0.0
H1370 H 0.41671 0.7566 0.27926 0.0
H1371 H 0.4469 0.72841 0.38852 0.0
H1372 H 0.46389 0.75874 0.32509 0.0
H1373 H 0.40903 0.71557 0.33859 0.0
C1374 C 0.39679 0.72204 0.30979 0.0
C1375 C 0.39859 0.73352 0.29277 0.0
C1376 C 0.46019 0.75217 0.33905 0.0
C1377 C 0.4268 0.73868 0.32445 0.0
C1378 C 0.47411 0.75401 0.35514 0.0
C1379 C 0.46968 0.74549 0.37334 0.0
C1380 C 0.44184 0.74156 0.34115 0.0
C1381 C 0.45102 0.73528 0.37484 0.0
C1382 C 0.41076 0.72462 0.32562 0.0
C1383 C 0.41474 0.74754 0.29218 0.0
N1384 N 0.43788 0.73353 0.35896 0.0
N1385 N 0.42832 0.74968 0.30777 0.0
H1386 H 0.02292 0.39609 0.99408 0.0
H1387 H 0.97475 0.29963 0.94285 0.0
H1388 H 0.96025 0.39095 0.97492 0.0
H1389 H 0.03604 0.31905 0.93403 0.0
H1390 H 0.96931 0.33167 0.95758 0.0
H1391 H 0.02844 0.36672 0.97477 0.0
C1392 C 0.01033 0.38903 0.98567 0.0
C1393 C 0.99101 0.39613 0.9863 0.0
C1394 C 0.98389 0.32897 0.95226 0.0
C1395 C 0.99728 0.36205 0.96463 0.0
C1396 C 0.98704 0.31069 0.94394 0.0
C1397 C 0.00589 0.30669 0.93728 0.0
C1398 C 0.99983 0.3432 0.95435 0.0
C1399 C 0.02126 0.32158 0.93894 0.0
C1400 C 0.01353 0.37217 0.97472 0.0
C1401 C 0.9753 0.38588 0.97536 0.0
N1402 N 0.01798 0.33913 0.94759 0.0
N1403 N 0.97874 0.36926 0.96517 0.0
H1404 H 0.6701 0.80991 0.32693 0.0
H1405 H 0.55556 0.79015 0.35135 0.0
H1406 H 0.62119 0.81947 0.28462 0.0
H1407 H 0.60478 0.7908 0.39509 0.0
H1408 H 0.57895 0.80158 0.32672 0.0
H1409 H 0.64609 0.8035 0.35212 0.0
C1410 C 0.65432 0.81092 0.32295 0.0
C1411 C 0.64772 0.81528 0.30355 0.0
C1412 C 0.58457 0.79938 0.34175 0.0
C1413 C 0.61999 0.80749 0.3324 0.0
C1414 C 0.57123 0.79287 0.35582 0.0
C1415 C 0.57825 0.78936 0.37528 0.0
C1416 C 0.60506 0.80226 0.34718 0.0
C1417 C 0.5987 0.79318 0.38025 0.0
C1418 C 0.64058 0.80713 0.33736 0.0
C1419 C 0.62699 0.81589 0.29928 0.0
N1420 N 0.61138 0.79926 0.36627 0.0
N1421 N 0.61386 0.81194 0.31356 0.0
H1422 H 0.99123 0.11229 0.96477 0.0
H1423 H 0.04544 0.18928 0.89347 0.0
H1424 H 0.04296 0.09878 0.93291 0.0
H1425 H 0.00641 0.20533 0.93886 0.0
H1426 H 0.04019 0.15463 0.90269 0.0
H1427 H 0.99186 0.1449 0.94983 0.0
C1428 C 0.00266 0.11615 0.95452 0.0
C1429 C 0.01731 0.10293 0.95037 0.0
C1430 C 0.03266 0.16577 0.91048 0.0
C1431 C 0.01801 0.14022 0.93311 0.0
C1432 C 0.03561 0.18553 0.90523 0.0
C1433 C 0.02637 0.20027 0.91544 0.0
C1434 C 0.02026 0.16072 0.92593 0.0
C1435 C 0.01381 0.19455 0.93055 0.0
C1436 C 0.00298 0.13475 0.94598 0.0
C1437 C 0.03141 0.10853 0.93656 0.0
N1438 N 0.01116 0.17524 0.93535 0.0
N1439 N 0.03156 0.12687 0.92856 0.0
H1440 H 0.34619 0.26009 0.18237 0.0
H1441 H 0.45979 0.26765 0.15067 0.0
H1442 H 0.39526 0.28059 0.22232 0.0
H1443 H 0.40833 0.2567 0.11036 0.0
H1444 H 0.43711 0.27179 0.17751 0.0
H1445 H 0.36943 0.25779 0.15623 0.0
C1446 C 0.36185 0.26427 0.18564 0.0
C1447 C 0.36869 0.27072 0.20459 0.0
C1448 C 0.43084 0.26858 0.16275 0.0
C1449 C 0.39563 0.26779 0.17461 0.0
C1450 C 0.44377 0.26624 0.14743 0.0
C1451 C 0.43597 0.26174 0.12824 0.0
C1452 C 0.41002 0.26629 0.15881 0.0
C1453 C 0.41508 0.26008 0.1249 0.0
C1454 C 0.37517 0.26285 0.17069 0.0
C1455 C 0.38931 0.2754 0.20799 0.0
N1456 N 0.4029 0.26226 0.14001 0.0
N1457 N 0.40206 0.27385 0.19314 0.0
H1458 H 0.51115 0.40854 0.05482 0.0
H1459 H 0.54052 0.29641 0.04557 0.0
H1460 H 0.55611 0.38872 0.01715 0.0
H1461 H 0.49332 0.31457 0.08147 0.0
H1462 H 0.54826 0.33072 0.03747 0.0
H1463 H 0.50604 0.37483 0.06689 0.0
C1464 C 0.51998 0.39713 0.0491 0.0
C1465 C 0.53404 0.40151 0.03486 0.0
C1466 C 0.53627 0.32726 0.0472 0.0
C1467 C 0.52836 0.36291 0.04875 0.0
C1468 C 0.53182 0.30761 0.05186 0.0
C1469 C 0.5161 0.3025 0.06412 0.0
C1470 C 0.52491 0.34205 0.05475 0.0
C1471 C 0.50551 0.31778 0.07191 0.0
C1472 C 0.51711 0.3779 0.05608 0.0
C1473 C 0.54527 0.38616 0.02827 0.0
N1474 N 0.51002 0.33685 0.06698 0.0
N1475 N 0.54211 0.36757 0.03518 0.0
H1476 H 0.63027 0.19579 0.17189 0.0
H1477 H 0.52591 0.24225 0.14075 0.0
H1478 H 0.59951 0.23314 0.21044 0.0
H1479 H 0.56366 0.21585 0.09947 0.0
H1480 H 0.5509 0.23622 0.16737 0.0
H1481 H 0.60401 0.20001 0.1461 0.0
C1482 C 0.61789 0.20475 0.17498 0.0
C1483 C 0.6171 0.21416 0.19333 0.0
C1484 C 0.55367 0.23174 0.15248 0.0
C1485 C 0.58703 0.21917 0.16383 0.0
C1486 C 0.53939 0.23513 0.13728 0.0
C1487 C 0.5427 0.22963 0.1178 0.0
C1488 C 0.5713 0.22263 0.14821 0.0
C1489 C 0.56048 0.22047 0.11421 0.0
C1490 C 0.60298 0.20727 0.16021 0.0
C1491 C 0.60083 0.22581 0.19643 0.0
N1492 N 0.57407 0.21725 0.12925 0.0
N1493 N 0.58643 0.22797 0.18184 0.0
H1494 H 0.47209 0.12578 0.97896 0.0
H1495 H 0.47219 0.17675 0.08402 0.0
H1496 H 0.47958 0.09243 0.03273 0.0
H1497 H 0.49193 0.20773 0.0325 0.0
H1498 H 0.47156 0.14567 0.06546 0.0
H1499 H 0.47609 0.15612 0.99826 0.0
C1500 C 0.47479 0.12474 0.99478 0.0
C1501 C 0.47557 0.10635 0.00413 0.0
C1502 C 0.47618 0.15928 0.05831 0.0
C1503 C 0.47958 0.14125 0.0264 0.0
C1504 C 0.4765 0.17699 0.06885 0.0
C1505 C 0.48209 0.19482 0.05976 0.0
C1506 C 0.4811 0.1595 0.03846 0.0
C1507 C 0.48757 0.19431 0.0401 0.0
C1508 C 0.47696 0.14214 0.00579 0.0
C1509 C 0.47852 0.10616 0.02482 0.0
N1510 N 0.48673 0.17695 0.03003 0.0
N1511 N 0.48029 0.12333 0.03526 0.0
H1512 H 0.31259 0.38487 0.73843 0.0
H1513 H 0.34865 0.49856 0.73259 0.0
H1514 H 0.27508 0.42859 0.71227 0.0
H1515 H 0.38888 0.45131 0.74068 0.0
H1516 H 0.32046 0.474 0.72887 0.0
H1517 H 0.33972 0.41001 0.74315 0.0
C1518 C 0.31006 0.39972 0.73354 0.0
C1519 C 0.29153 0.40451 0.72469 0.0
C1520 C 0.33549 0.46908 0.73145 0.0
C1521 C 0.32256 0.43355 0.73048 0.0
C1522 C 0.35156 0.48306 0.73364 0.0
C1523 C 0.37118 0.47699 0.7369 0.0
C1524 C 0.33906 0.44894 0.73279 0.0
C1525 C 0.37406 0.45671 0.73807 0.0
C1526 C 0.32556 0.41411 0.73635 0.0
C1527 C 0.28904 0.42421 0.71925 0.0
N1528 N 0.35819 0.44344 0.73608 0.0
N1529 N 0.3044 0.43802 0.72221 0.0
H1530 H 0.26209 0.61593 0.77208 0.0
H1531 H 0.3777 0.61205 0.74801 0.0
H1532 H 0.29849 0.66559 0.75219 0.0
H1533 H 0.34222 0.56092 0.76597 0.0
H1534 H 0.3488 0.63191 0.75072 0.0
H1535 H 0.29101 0.59542 0.77056 0.0
C1536 C 0.27611 0.6225 0.7673 0.0
C1537 C 0.27787 0.64256 0.76235 0.0
C1538 C 0.34729 0.61636 0.75414 0.0
C1539 C 0.31104 0.61925 0.76079 0.0
C1540 C 0.36384 0.60499 0.75262 0.0
C1541 C 0.36239 0.58475 0.75671 0.0
C1542 C 0.32903 0.6075 0.75975 0.0
C1543 C 0.34401 0.57647 0.76268 0.0
C1544 C 0.29264 0.61082 0.76656 0.0
C1545 C 0.29648 0.65031 0.75647 0.0
N1546 N 0.32801 0.58787 0.76395 0.0
N1547 N 0.31228 0.63867 0.75587 0.0
H1548 H 0.86272 0.46486 0.48917 0.0
H1549 H 0.81981 0.35358 0.47975 0.0
H1550 H 0.88737 0.42191 0.45175 0.0
H1551 H 0.78406 0.40007 0.49957 0.0
H1552 H 0.84596 0.37816 0.47182 0.0
H1553 H 0.8349 0.44113 0.49546 0.0
C1554 C 0.86224 0.45044 0.48227 0.0
C1555 C 0.87737 0.4453 0.46995 0.0
C1556 C 0.83237 0.38301 0.47783 0.0
C1557 C 0.84573 0.41813 0.47715 0.0
C1558 C 0.81745 0.36897 0.48248 0.0
C1559 C 0.79971 0.37475 0.49041 0.0
C1560 C 0.82974 0.40303 0.48137 0.0
C1561 C 0.79748 0.39495 0.49345 0.0
C1562 C 0.84633 0.43697 0.48577 0.0
C1563 C 0.87594 0.42651 0.46122 0.0
N1564 N 0.81241 0.40838 0.48906 0.0
N1565 N 0.86051 0.41354 0.46513 0.0
H1566 H 0.74098 0.84675 0.73464 0.0
H1567 H 0.67214 0.92463 0.78218 0.0
H1568 H 0.71731 0.83915 0.79217 0.0
H1569 H 0.69614 0.92992 0.72451 0.0
H1570 H 0.6843 0.89123 0.78465 0.0
H1571 H 0.72063 0.8751 0.72921 0.0
C1572 C 0.73136 0.85102 0.74609 0.0
C1573 C 0.73101 0.84079 0.76397 0.0
C1574 C 0.68663 0.89963 0.77136 0.0
C1575 C 0.70769 0.87338 0.75796 0.0
C1576 C 0.67962 0.91866 0.76991 0.0
C1577 C 0.6834 0.93021 0.75325 0.0
C1578 C 0.69742 0.89217 0.75602 0.0
C1579 C 0.69317 0.92171 0.73779 0.0
C1580 C 0.71968 0.86718 0.74298 0.0
C1581 C 0.71801 0.84671 0.77818 0.0
N1582 N 0.69998 0.90335 0.73964 0.0
N1583 N 0.70705 0.86282 0.77499 0.0
H1584 H 0.6447 0.54606 0.0264 0.0
H1585 H 0.68921 0.65584 0.00968 0.0
H1586 H 0.61606 0.58752 0.98773 0.0
H1587 H 0.72535 0.60964 0.03288 0.0
H1588 H 0.66101 0.63178 0.00448 0.0
H1589 H 0.67317 0.57004 0.03204 0.0
C1590 C 0.64438 0.56025 0.01919 0.0
C1591 C 0.62804 0.56482 0.00655 0.0
C1592 C 0.67513 0.6269 0.01067 0.0
C1593 C 0.66045 0.59225 0.01292 0.0
C1594 C 0.69123 0.64064 0.01371 0.0
C1595 C 0.70972 0.63477 0.02173 0.0
C1596 C 0.67738 0.60714 0.0159 0.0
C1597 C 0.71142 0.61482 0.02659 0.0
C1598 C 0.66066 0.57386 0.02231 0.0
C1599 C 0.62845 0.58334 0.99743 0.0
N1600 N 0.69542 0.60173 0.02368 0.0
N1601 N 0.64434 0.59639 0.00086 0.0
H1602 H 0.26533 0.61676 0.21462 0.0
H1603 H 0.16471 0.57592 0.26283 0.0
H1604 H 0.22554 0.65426 0.24331 0.0
H1605 H 0.20763 0.53917 0.23782 0.0
H1606 H 0.18476 0.60513 0.25294 0.0
H1607 H 0.24237 0.5885 0.22021 0.0
C1608 C 0.25175 0.61905 0.22213 0.0
C1609 C 0.24747 0.63788 0.22871 0.0
C1610 C 0.18966 0.59066 0.24948 0.0
C1611 C 0.22096 0.60553 0.23506 0.0
C1612 C 0.17821 0.57398 0.25507 0.0
C1613 C 0.18449 0.55505 0.25116 0.0
C1614 C 0.20751 0.58835 0.23991 0.0
C1615 C 0.20212 0.55342 0.2411 0.0
C1616 C 0.23858 0.60291 0.22523 0.0
C1617 C 0.22941 0.64002 0.23793 0.0
N1618 N 0.21302 0.56983 0.23592 0.0
N1619 N 0.21687 0.624 0.24097 0.0
H1620 H 0.90888 0.55886 0.00943 0.0
H1621 H 0.80183 0.59419 0.03795 0.0
H1622 H 0.87186 0.52807 0.05086 0.0
H1623 H 0.84263 0.62799 0.00231 0.0
H1624 H 0.82537 0.56782 0.0398 0.0
H1625 H 0.8829 0.58231 0.00374 0.0
C1626 C 0.89519 0.5569 0.0172 0.0
C1627 C 0.89259 0.54147 0.03069 0.0
C1628 C 0.82909 0.58096 0.03146 0.0
C1629 C 0.86279 0.56849 0.02438 0.0
C1630 C 0.81561 0.59598 0.03032 0.0
C1631 C 0.82033 0.61341 0.02009 0.0
C1632 C 0.84736 0.58335 0.02223 0.0
C1633 C 0.83842 0.6149 0.0105 0.0
C1634 C 0.8804 0.57039 0.01402 0.0
C1635 C 0.87463 0.53989 0.04053 0.0
N1636 N 0.8513 0.60013 0.01189 0.0
N1637 N 0.86043 0.55325 0.03721 0.0
H1638 H 0.12231 0.9659 0.97834 0.0
H1639 H 0.17213 0.87373 0.03063 0.0
H1640 H 0.10077 0.93691 0.03023 0.0
H1641 H 0.1977 0.90381 0.98116 0.0
H1642 H 0.14546 0.89658 0.02977 0.0
H1643 H 0.14945 0.94303 0.97807 0.0
C1644 C 0.12325 0.95469 0.98962 0.0
C1645 C 0.10932 0.95339 0.0044 0.0
C1646 C 0.15688 0.89826 0.01908 0.0
C1647 C 0.1403 0.92731 0.00423 0.0
C1648 C 0.17216 0.88517 0.01955 0.0
C1649 C 0.18722 0.88684 0.00594 0.0
C1650 C 0.1565 0.91321 0.00487 0.0
C1651 C 0.1864 0.902 0.99195 0.0
C1652 C 0.13878 0.94173 0.98951 0.0
C1653 C 0.11134 0.9387 0.01874 0.0
N1654 N 0.17126 0.91462 0.99175 0.0
N1655 N 0.12649 0.92627 0.01828 0.0
loop_
_geom_bond_atom_site_label_1
_geom_bond_atom_site_label_2
_geom_bond_distance
_geom_bond_site_symmetry_2
_ccdc_geom_bond_type
C0 C1 1.386 . S
C0 C2 1.397 . S
C0 H24 0.931 . S
C1 C0 1.386 . S
C1 C5 1.397 . S
C2 C0 1.397 . S
C2 C3 1.384 1_556 S
C2 H25 0.930 . S
C3 C2 1.384 1_554 S
C3 C4 1.377 . S
C3 C6 1.481 . S
C4 C3 1.377 . S
C4 C5 1.389 1_554 S
C4 H26 0.929 . S
C5 C1 1.397 . S
C5 C4 1.389 1_556 S
C5 H27 0.931 1_556 S
C6 C3 1.481 . S
C6 C7 1.387 . S
C6 C11 1.390 . S
C7 C6 1.387 . S
C7 C8 1.401 . S
C7 H28 0.930 . S
C8 C7 1.401 . S
C8 C9 1.376 . S
C8 C17 1.511 . S
C9 C8 1.376 . S
C9 C10 1.392 . S
C9 H30 0.931 . S
C10 C9 1.392 . S
C10 C11 1.361 . S
C10 C12 1.500 . S
C11 C6 1.390 . S
C11 C10 1.361 . S
C11 H29 0.931 . S
C12 C10 1.500 . S
C12 C13 1.371 . S
C12 C14 1.365 . S
C13 C12 1.371 . S
C13 C23 1.386 1_455 S
C13 H31 0.931 . S
C14 C12 1.365 . S
C14 C15 1.409 1_455 S
C14 H32 0.929 . S
C15 C14 1.409 1_655 S
C15 C16 1.380 . S
C15 H33 0.930 . S
C16 C15 1.380 . S
C16 C23 1.357 . S
C17 C8 1.511 . S
C17 C18 1.341 . S
C17 C19 1.371 1_545 S
C18 C17 1.341 . S
C18 C22 1.394 1_545 S
C18 H34 0.930 1_554 S
C19 C17 1.371 1_565 S
C19 C20 1.392 . S
C19 H35 0.931 . S
C20 C19 1.392 . S
C20 C21 1.331 . S
C20 H38 0.932 . S
C21 C20 1.331 . S
C21 C22 1.336 . S
C22 C18 1.394 1_565 S
C22 C21 1.336 . S
C22 H37 0.929 1_554 S
C23 C13 1.386 1_655 S
C23 C16 1.357 . S
C23 H36 0.892 1_545 S
H24 C0 0.931 . S
H25 C2 0.930 . S
H26 C4 0.929 . S
H27 C5 0.931 1_554 S
H28 C7 0.930 . S
H29 C11 0.931 . S
H30 C9 0.931 . S
H31 C13 0.931 . S
H32 C14 0.929 . S
H33 C15 0.930 . S
H34 C18 0.930 1_556 S
H35 C19 0.931 . S
H36 C23 0.892 1_565 S
H37 C22 0.929 1_556 S
H38 C20 0.932 . S
C39 C40 1.386 . S
C39 C41 1.397 . S
C39 H63 0.931 . S
C40 C39 1.386 . S
C40 C44 1.397 . S
C41 C39 1.397 . S
C41 C42 1.384 . S
C41 H64 0.930 . S
C42 C41 1.384 . S
C42 C43 1.377 . S
C42 C45 1.481 . S
C43 C42 1.377 . S
C43 C44 1.389 . S
C43 H65 0.929 . S
C44 C40 1.397 . S
C44 C43 1.389 . S
C44 H66 0.931 . S
C45 C42 1.481 . S
C45 C46 1.387 . S
C45 C50 1.390 . S
C46 C45 1.387 . S
C46 C47 1.401 . S
C46 H67 0.930 . S
C47 C46 1.401 . S
C47 C48 1.376 . S
C47 C56 1.511 . S
C48 C47 1.376 . S
C48 C49 1.392 . S
C48 H69 0.931 . S
C49 C48 1.392 . S
C49 C50 1.361 . S
C49 C51 1.500 . S
C50 C45 1.390 . S
C50 C49 1.361 . S
C50 H68 0.931 . S
C51 C49 1.500 . S
C51 C52 1.371 . S
C51 C53 1.365 . S
C52 C51 1.371 . S
C52 C62 1.386 . S
C52 H70 0.931 . S
C53 C51 1.365 . S
C53 C54 1.409 . S
C53 H71 0.929 . S
C54 C53 1.409 . S
C54 C55 1.380 . S
C54 H72 0.930 . S
C55 C54 1.380 . S
C55 C62 1.357 . S
C56 C47 1.511 . S
C56 C57 1.341 . S
C56 C58 1.371 . S
C57 C56 1.341 . S
C57 C61 1.394 . S
C57 H73 0.930 . S
C58 C56 1.371 . S
C58 C59 1.392 . S
C58 H74 0.931 . S
C59 C58 1.392 . S
C59 C60 1.331 . S
C59 H77 0.932 . S
C60 C59 1.331 . S
C60 C61 1.336 . S
C61 C57 1.394 . S
C61 C60 1.336 . S
C61 H76 0.929 . S
C62 C52 1.386 . S
C62 C55 1.357 . S
C62 H75 0.928 . S
H63 C39 0.931 . S
H64 C41 0.930 . S
H65 C43 0.929 . S
H66 C44 0.931 . S
H67 C46 0.930 . S
H68 C50 0.931 . S
H69 C48 0.931 . S
H70 C52 0.931 . S
H71 C53 0.929 . S
H72 C54 0.930 . S
H73 C57 0.930 . S
H74 C58 0.931 . S
H75 C62 0.928 . S
H76 C61 0.929 . S
H77 C59 0.932 . S
C78 C79 1.386 . S
C78 C80 1.397 1_455 S
C78 H102 0.931 . S
C79 C78 1.386 . S
C79 C83 1.397 . S
C80 C78 1.397 1_655 S
C80 C81 1.384 1_655 S
C80 H103 0.930 . S
C81 C80 1.384 1_455 S
C81 C82 1.377 . S
C81 C84 1.481 1_455 S
C82 C81 1.377 . S
C82 C83 1.389 . S
C82 H104 0.929 . S
C83 C79 1.397 . S
C83 C82 1.389 . S
C83 H105 0.931 . S
C84 C81 1.481 1_655 S
C84 C85 1.387 . S
C84 C89 1.390 . S
C85 C84 1.387 . S
C85 C86 1.401 . S
C85 H106 0.930 . S
C86 C85 1.401 . S
C86 C87 1.376 . S
C86 C95 1.511 . S
C87 C86 1.376 . S
C87 C88 1.392 . S
C87 H108 0.931 . S
C88 C87 1.392 . S
C88 C89 1.361 . S
C88 C90 1.500 . S
C89 C84 1.390 . S
C89 C88 1.361 . S
C89 H107 0.931 1_655 S
C90 C88 1.500 . S
C90 C91 1.371 . S
C90 C92 1.365 1_655 S
C91 C90 1.371 . S
C91 C101 1.386 1_554 S
C91 H109 0.931 . S
C92 C90 1.365 1_455 S
C92 C93 1.409 . S
C92 H110 0.929 . S
C93 C92 1.409 . S
C93 C94 1.380 1_454 S
C93 H111 0.930 . S
C94 C93 1.380 1_656 S
C94 C101 1.357 . S
C95 C86 1.511 . S
C95 C96 1.341 . S
C95 C97 1.371 . S
C96 C95 1.341 . S
C96 C100 1.394 . S
C96 H112 0.930 . S
C97 C95 1.371 . S
C97 C98 1.392 . S
C97 H113 0.931 . S
C98 C97 1.392 . S
C98 C99 1.331 . S
C98 H116 0.932 . S
C99 C98 1.331 . S
C99 C100 1.336 . S
C100 C96 1.394 . S
C100 C99 1.336 . S
C100 H115 0.929 . S
C101 C91 1.386 1_556 S
C101 C94 1.357 . S
C101 H114 0.928 . S
H102 C78 0.931 . S
H103 C80 0.930 . S
H104 C82 0.929 . S
H105 C83 0.931 . S
H106 C85 0.930 . S
H107 C89 0.931 1_455 S
H108 C87 0.931 . S
H109 C91 0.931 . S
H110 C92 0.929 . S
H111 C93 0.930 . S
H112 C96 0.930 . S
H113 C97 0.931 . S
H114 C101 0.928 . S
H115 C100 0.929 . S
H116 C98 0.932 . S
C117 C118 1.386 . S
C117 C119 1.397 . S
C117 H141 0.931 . S
C118 C117 1.386 . S
C118 C122 1.397 . S
C119 C117 1.397 . S
C119 C120 1.384 . S
C119 H142 0.930 . S
C120 C119 1.384 . S
C120 C121 1.377 . S
C120 C123 1.481 . S
C121 C120 1.377 . S
C121 C122 1.389 . S
C121 H143 0.929 . S
C122 C118 1.397 . S
C122 C121 1.389 . S
C122 H144 0.931 . S
C123 C120 1.481 . S
C123 C124 1.387 . S
C123 C128 1.390 . S
C124 C123 1.387 . S
C124 C125 1.401 . S
C124 H145 0.930 . S
C125 C124 1.401 . S
C125 C126 1.376 . S
C125 C134 1.511 . S
C126 C125 1.376 . S
C126 C127 1.392 . S
C126 H147 0.931 . S
C127 C126 1.392 . S
C127 C128 1.361 . S
C127 C129 1.500 . S
C128 C123 1.390 . S
C128 C127 1.361 . S
C128 H146 0.931 . S
C129 C127 1.500 . S
C129 C130 1.371 . S
C129 C131 1.365 . S
C130 C129 1.371 . S
C130 C140 1.386 . S
C130 H148 0.931 . S
C131 C129 1.365 . S
C131 C132 1.409 . S
C131 H149 0.929 . S
C132 C131 1.409 . S
C132 C133 1.380 . S
C132 H150 0.930 . S
C133 C132 1.380 . S
C133 C140 1.357 . S
C134 C125 1.511 . S
C134 C135 1.341 . S
C134 C136 1.371 . S
C135 C134 1.341 . S
C135 C139 1.394 . S
C135 H151 0.930 . S
C136 C134 1.371 . S
C136 C137 1.392 . S
C136 H152 0.931 . S
C137 C136 1.392 . S
C137 C138 1.331 . S
C137 H155 0.932 . S
C138 C137 1.331 . S
C138 C139 1.336 . S
C139 C135 1.394 . S
C139 C138 1.336 . S
C139 H154 0.929 . S
C140 C130 1.386 . S
C140 C133 1.357 . S
C140 H153 0.928 . S
H141 C117 0.931 . S
H142 C119 0.930 . S
H143 C121 0.929 . S
H144 C122 0.931 . S
H145 C124 0.930 . S
H146 C128 0.931 . S
H147 C126 0.931 . S
H148 C130 0.931 . S
H149 C131 0.929 . S
H150 C132 0.930 . S
H151 C135 0.930 . S
H152 C136 0.931 . S
H153 C140 0.928 . S
H154 C139 0.929 . S
H155 C137 0.932 . S
C156 C157 1.387 . S
C156 C158 1.397 1_655 S
C156 H180 0.931 . S
C157 C156 1.387 . S
C157 C161 1.393 1_655 S
C158 C156 1.397 1_455 S
C158 C159 1.384 . S
C158 H181 0.919 1_455 S
C159 C158 1.384 . S
C159 C160 1.377 . S
C159 C162 1.481 . S
C160 C159 1.377 . S
C160 C161 1.389 . S
C160 H182 0.929 . S
C161 C157 1.393 1_455 S
C161 C160 1.389 . S
C161 H183 0.931 . S
C162 C159 1.481 . S
C162 C163 1.387 . S
C162 C167 1.390 . S
C163 C162 1.387 . S
C163 C164 1.401 . S
C163 H184 0.930 . S
C164 C163 1.401 . S
C164 C165 1.376 . S
C164 C173 1.511 . S
C165 C164 1.376 . S
C165 C166 1.392 . S
C165 H186 0.931 . S
C166 C165 1.392 . S
C166 C167 1.361 . S
C166 C168 1.500 . S
C167 C162 1.390 . S
C167 C166 1.361 . S
C167 H185 0.931 . S
C168 C166 1.500 . S
C168 C169 1.371 1_565 S
C168 C170 1.365 1_565 S
C169 C168 1.371 1_545 S
C169 C179 1.386 . S
C169 H187 0.931 1_545 S
C170 C168 1.365 1_545 S
C170 C171 1.409 . S
C170 H188 0.929 . S
C171 C170 1.409 . S
C171 C172 1.380 . S
C171 H189 0.930 . S
C172 C171 1.380 . S
C172 C179 1.357 . S
C173 C164 1.511 . S
C173 C174 1.341 . S
C173 C175 1.371 . S
C174 C173 1.341 . S
C174 C178 1.394 . S
C174 H190 0.930 . S
C175 C173 1.371 . S
C175 C176 1.392 . S
C175 H191 0.931 . S
C176 C175 1.392 . S
C176 C177 1.331 . S
C176 H194 0.932 . S
C177 C176 1.331 . S
C177 C178 1.336 . S
C178 C174 1.394 . S
C178 C177 1.336 . S
C178 H193 0.929 . S
C179 C169 1.386 . S
C179 C172 1.357 . S
C179 H192 0.928 . S
H180 C156 0.931 . S
H181 C158 0.919 1_655 S
H182 C160 0.929 . S
H183 C161 0.931 . S
H184 C163 0.930 . S
H185 C167 0.931 . S
H186 C165 0.931 . S
H187 C169 0.931 1_565 S
H188 C170 0.929 . S
H189 C171 0.930 . S
H190 C174 0.930 . S
H191 C175 0.931 . S
H192 C179 0.928 . S
H193 C178 0.929 . S
H194 C176 0.932 . S
C195 C196 1.386 . S
C195 C197 1.397 . S
C195 H219 0.931 . S
C196 C195 1.386 . S
C196 C200 1.397 . S
C197 C195 1.397 . S
C197 C198 1.384 . S
C197 H220 0.930 . S
C198 C197 1.384 . S
C198 C199 1.377 . S
C198 C201 1.481 . S
C199 C198 1.377 . S
C199 C200 1.389 . S
C199 H221 0.929 . S
C200 C196 1.397 . S
C200 C199 1.389 . S
C200 H222 0.931 . S
C201 C198 1.481 . S
C201 C202 1.387 . S
C201 C206 1.390 . S
C202 C201 1.387 . S
C202 C203 1.401 . S
C202 H223 0.930 . S
C203 C202 1.401 . S
C203 C204 1.376 . S
C203 C212 1.511 . S
C204 C203 1.376 . S
C204 C205 1.392 . S
C204 H225 0.931 . S
C205 C204 1.392 . S
C205 C206 1.361 . S
C205 C207 1.500 . S
C206 C201 1.390 . S
C206 C205 1.361 . S
C206 H224 0.931 . S
C207 C205 1.500 . S
C207 C208 1.371 . S
C207 C209 1.365 . S
C208 C207 1.371 . S
C208 C218 1.386 . S
C208 H226 0.931 . S
C209 C207 1.365 . S
C209 C210 1.409 . S
C209 H227 0.929 . S
C210 C209 1.409 . S
C210 C211 1.380 . S
C210 H228 0.930 . S
C211 C210 1.380 . S
C211 C218 1.357 . S
C212 C203 1.511 . S
C212 C213 1.341 . S
C212 C214 1.371 . S
C213 C212 1.341 . S
C213 C217 1.394 . S
C213 H229 0.930 . S
C214 C212 1.371 . S
C214 C215 1.392 . S
C214 H230 0.931 . S
C215 C214 1.392 . S
C215 C216 1.331 . S
C215 H233 0.932 . S
C216 C215 1.331 . S
C216 C217 1.336 . S
C217 C213 1.394 . S
C217 C216 1.336 . S
C217 H232 0.929 . S
C218 C208 1.386 . S
C218 C211 1.357 . S
C218 H231 0.928 . S
H219 C195 0.931 . S
H220 C197 0.930 . S
H221 C199 0.929 . S
H222 C200 0.931 . S
H223 C202 0.930 . S
H224 C206 0.931 . S
H225 C204 0.931 . S
H226 C208 0.931 . S
H227 C209 0.929 . S
H228 C210 0.930 . S
H229 C213 0.930 . S
H230 C214 0.931 . S
H231 C218 0.928 . S
H232 C217 0.929 . S
H233 C215 0.932 . S
C234 C235 1.386 . S
C234 C236 1.397 . S
C234 H258 0.931 . S
C235 C234 1.386 . S
C235 C239 1.397 . S
C236 C234 1.397 . S
C236 C237 1.384 . S
C236 H259 0.930 . S
C237 C236 1.384 . S
C237 C238 1.377 . S
C237 C240 1.481 . S
C238 C237 1.377 . S
C238 C239 1.389 . S
C238 H260 0.929 . S
C239 C235 1.397 . S
C239 C238 1.389 . S
C239 H261 0.931 . S
C240 C237 1.481 . S
C240 C241 1.387 . S
C240 C245 1.390 . S
C241 C240 1.387 . S
C241 C242 1.401 . S
C241 H262 0.930 . S
C242 C241 1.401 . S
C242 C243 1.376 . S
C242 C251 1.511 . S
C243 C242 1.376 . S
C243 C244 1.392 . S
C243 H264 0.931 . S
C244 C243 1.392 . S
C244 C245 1.361 . S
C244 C246 1.500 . S
C245 C240 1.390 . S
C245 C244 1.361 . S
C245 H263 0.931 . S
C246 C244 1.500 . S
C246 C247 1.371 . S
C246 C248 1.365 . S
C247 C246 1.371 . S
C247 C257 1.386 . S
C247 H265 0.931 . S
C248 C246 1.365 . S
C248 C249 1.409 . S
C248 H266 0.929 . S
C249 C248 1.409 . S
C249 C250 1.380 . S
C249 H267 0.930 . S
C250 C249 1.380 . S
C250 C257 1.357 . S
C251 C242 1.511 . S
C251 C252 1.341 1_655 S
C251 C253 1.371 . S
C252 C251 1.341 1_455 S
C252 C256 1.394 . S
C252 H268 0.930 . S
C253 C251 1.371 . S
C253 C254 1.392 1_655 S
C253 H269 0.931 . S
C254 C253 1.392 1_455 S
C254 C255 1.331 . S
C254 H272 0.932 . S
C255 C254 1.331 . S
C255 C256 1.336 . S
C256 C252 1.394 . S
C256 C255 1.336 . S
C256 H271 0.929 . S
C257 C247 1.386 . S
C257 C250 1.357 . S
C257 H270 0.928 . S
H258 C234 0.931 . S
H259 C236 0.930 . S
H260 C238 0.929 . S
H261 C239 0.931 . S
H262 C241 0.930 . S
H263 C245 0.931 . S
H264 C243 0.931 . S
H265 C247 0.931 . S
H266 C248 0.929 . S
H267 C249 0.930 . S
H268 C252 0.930 . S
H269 C253 0.931 . S
H270 C257 0.928 . S
H271 C256 0.929 . S
H272 C254 0.932 . S
C273 C274 1.386 . S
C273 C275 1.397 . S
C273 H297 0.931 . S
C274 C273 1.386 . S
C274 C278 1.397 . S
C275 C273 1.397 . S
C275 C276 1.384 . S
C275 H298 0.930 . S
C276 C275 1.384 . S
C276 C277 1.377 . S
C276 C279 1.481 . S
C277 C276 1.377 . S
C277 C278 1.389 . S
C277 H299 0.929 . S
C278 C274 1.397 . S
C278 C277 1.389 . S
C278 H300 0.931 . S
C279 C276 1.481 . S
C279 C280 1.387 . S
C279 C284 1.390 . S
C280 C279 1.387 . S
C280 C281 1.401 . S
C280 H301 0.930 . S
C281 C280 1.401 . S
C281 C282 1.376 . S
C281 C290 1.511 . S
C282 C281 1.376 . S
C282 C283 1.392 . S
C282 H303 0.931 . S
C283 C282 1.392 . S
C283 C284 1.361 . S
C283 C285 1.500 . S
C284 C279 1.390 . S
C284 C283 1.361 . S
C284 H302 0.931 . S
C285 C283 1.500 . S
C285 C286 1.371 . S
C285 C287 1.365 . S
C286 C285 1.371 . S
C286 C296 1.386 . S
C286 H304 0.931 . S
C287 C285 1.365 . S
C287 C288 1.409 . S
C287 H305 0.929 . S
C288 C287 1.409 . S
C288 C289 1.380 . S
C288 H306 0.930 . S
C289 C288 1.380 . S
C289 C296 1.357 . S
C290 C281 1.511 . S
C290 C291 1.341 . S
C290 C292 1.371 . S
C291 C290 1.341 . S
C291 C295 1.394 . S
C291 H307 0.930 . S
C292 C290 1.371 . S
C292 C293 1.392 . S
C292 H308 0.931 . S
C293 C292 1.392 . S
C293 C294 1.331 . S
C293 H311 0.932 . S
C294 C293 1.331 . S
C294 C295 1.336 . S
C295 C291 1.394 . S
C295 C294 1.336 . S
C295 H310 0.929 . S
C296 C286 1.386 . S
C296 C289 1.357 . S
C296 H309 0.928 . S
H297 C273 0.931 . S
H298 C275 0.930 . S
H299 C277 0.929 . S
H300 C278 0.931 . S
H301 C280 0.930 . S
H302 C284 0.931 . S
H303 C282 0.931 . S
H304 C286 0.931 . S
H305 C287 0.929 . S
H306 C288 0.930 . S
H307 C291 0.930 . S
H308 C292 0.931 . S
H309 C296 0.928 . S
H310 C295 0.929 . S
H311 C293 0.932 . S
C312 C313 1.386 . S
C312 C314 1.397 . S
C312 H336 0.931 . S
C313 C312 1.386 . S
C313 C317 1.397 . S
C314 C312 1.397 . S
C314 C315 1.384 . S
C314 H337 0.930 . S
C315 C314 1.384 . S
C315 C316 1.377 . S
C315 C318 1.481 . S
C316 C315 1.377 . S
C316 C317 1.389 . S
C316 H338 0.929 . S
C317 C313 1.397 . S
C317 C316 1.389 . S
C317 H339 0.931 . S
C318 C315 1.481 . S
C318 C319 1.387 . S
C318 C323 1.390 . S
C319 C318 1.387 . S
C319 C320 1.401 . S
C319 H340 0.930 . S
C320 C319 1.401 . S
C320 C321 1.376 . S
C320 C329 1.511 . S
C321 C320 1.376 . S
C321 C322 1.392 . S
C321 H342 0.931 . S
C322 C321 1.392 . S
C322 C323 1.361 . S
C322 C324 1.500 . S
C323 C318 1.390 . S
C323 C322 1.361 . S
C323 H341 0.931 . S
C324 C322 1.500 . S
C324 C325 1.371 . S
C324 C326 1.365 . S
C325 C324 1.371 . S
C325 C335 1.386 . S
C325 H343 0.931 . S
C326 C324 1.365 . S
C326 C327 1.409 . S
C326 H344 0.929 . S
C327 C326 1.409 . S
C327 C328 1.380 . S
C327 H345 0.930 . S
C328 C327 1.380 . S
C328 C335 1.357 . S
C329 C320 1.511 . S
C329 C330 1.341 . S
C329 C331 1.371 . S
C330 C329 1.341 . S
C330 C334 1.394 . S
C330 H346 0.930 . S
C331 C329 1.371 . S
C331 C332 1.392 . S
C331 H347 0.931 . S
C332 C331 1.392 . S
C332 C333 1.331 . S
C332 H350 0.932 . S
C333 C332 1.331 . S
C333 C334 1.336 . S
C334 C330 1.394 . S
C334 C333 1.336 . S
C334 H349 0.929 . S
C335 C325 1.386 . S
C335 C328 1.357 . S
C335 H348 0.928 . S
H336 C312 0.931 . S
H337 C314 0.930 . S
H338 C316 0.929 . S
H339 C317 0.931 . S
H340 C319 0.930 . S
H341 C323 0.931 . S
H342 C321 0.931 . S
H343 C325 0.931 . S
H344 C326 0.929 . S
H345 C327 0.930 . S
H346 C330 0.930 . S
H347 C331 0.931 . S
H348 C335 0.928 . S
H349 C334 0.929 . S
H350 C332 0.932 . S
C351 C352 1.386 . S
C351 C353 1.397 . S
C351 H375 0.931 . S
C352 C351 1.386 . S
C352 C356 1.397 . S
C353 C351 1.397 . S
C353 C354 1.384 . S
C353 H376 0.930 . S
C354 C353 1.384 . S
C354 C355 1.377 . S
C354 C357 1.481 . S
C355 C354 1.377 . S
C355 C356 1.389 . S
C355 H377 0.929 . S
C356 C352 1.397 . S
C356 C355 1.389 . S
C356 H378 0.931 . S
C357 C354 1.481 . S
C357 C358 1.387 . S
C357 C362 1.390 . S
C358 C357 1.387 . S
C358 C359 1.401 . S
C358 H379 0.930 . S
C359 C358 1.401 . S
C359 C360 1.376 . S
C359 C368 1.511 . S
C360 C359 1.376 . S
C360 C361 1.392 . S
C360 H381 0.931 . S
C361 C360 1.392 . S
C361 C362 1.361 . S
C361 C363 1.500 . S
C362 C357 1.390 . S
C362 C361 1.361 . S
C362 H380 0.931 . S
C363 C361 1.500 . S
C363 C364 1.371 . S
C363 C365 1.365 . S
C364 C363 1.371 . S
C364 C374 1.386 . S
C364 H382 0.931 . S
C365 C363 1.365 . S
C365 C366 1.409 . S
C365 H383 0.929 . S
C366 C365 1.409 . S
C366 C367 1.380 . S
C366 H384 0.930 . S
C367 C366 1.380 . S
C367 C374 1.357 . S
C368 C359 1.511 . S
C368 C369 1.341 1_565 S
C368 C370 1.371 . S
C369 C368 1.341 1_545 S
C369 C373 1.394 . S
C369 H385 0.930 . S
C370 C368 1.371 . S
C370 C371 1.392 1_565 S
C370 H386 0.931 . S
C371 C370 1.392 1_545 S
C371 C372 1.331 . S
C371 H389 0.932 . S
C372 C371 1.331 . S
C372 C373 1.336 . S
C373 C369 1.394 . S
C373 C372 1.336 . S
C373 H388 0.929 . S
C374 C364 1.386 . S
C374 C367 1.357 . S
C374 H387 0.928 . S
H375 C351 0.931 . S
H376 C353 0.930 . S
H377 C355 0.929 . S
H378 C356 0.931 . S
H379 C358 0.930 . S
H380 C362 0.931 . S
H381 C360 0.931 . S
H382 C364 0.931 . S
H383 C365 0.929 . S
H384 C366 0.930 . S
H385 C369 0.930 . S
H386 C370 0.931 . S
H387 C374 0.928 . S
H388 C373 0.929 . S
H389 C371 0.932 . S
C390 C391 1.386 . S
C390 C392 1.397 . S
C390 H414 0.931 . S
C391 C390 1.386 . S
C391 C395 1.397 . S
C392 C390 1.397 . S
C392 C393 1.384 . S
C392 H415 0.930 . S
C393 C392 1.384 . S
C393 C394 1.377 . S
C393 C396 1.481 . S
C394 C393 1.377 . S
C394 C395 1.389 . S
C394 H416 0.929 . S
C395 C391 1.397 . S
C395 C394 1.389 . S
C395 H417 0.931 . S
C396 C393 1.481 . S
C396 C397 1.387 . S
C396 C401 1.390 . S
C397 C396 1.387 . S
C397 C398 1.401 . S
C397 H418 0.930 . S
C398 C397 1.401 . S
C398 C399 1.376 . S
C398 C407 1.511 . S
C399 C398 1.376 . S
C399 C400 1.392 . S
C399 H420 0.931 . S
C400 C399 1.392 . S
C400 C401 1.361 . S
C400 C402 1.500 . S
C401 C396 1.390 . S
C401 C400 1.361 . S
C401 H419 0.931 . S
C402 C400 1.500 . S
C402 C403 1.371 . S
C402 C404 1.365 . S
C403 C402 1.371 . S
C403 C413 1.386 . S
C403 H421 0.931 . S
C404 C402 1.365 . S
C404 C405 1.409 . S
C404 H422 0.929 . S
C405 C404 1.409 . S
C405 C406 1.380 . S
C405 H423 0.930 . S
C406 C405 1.380 . S
C406 C413 1.357 . S
C407 C398 1.511 . S
C407 C408 1.341 . S
C407 C409 1.371 . S
C408 C407 1.341 . S
C408 C412 1.394 . S
C408 H424 0.930 . S
C409 C407 1.371 . S
C409 C410 1.392 . S
C409 H425 0.931 . S
C410 C409 1.392 . S
C410 C411 1.331 . S
C410 H428 0.932 . S
C411 C410 1.331 . S
C411 C412 1.336 . S
C412 C408 1.394 . S
C412 C411 1.336 . S
C412 H427 0.929 . S
C413 C403 1.386 . S
C413 C406 1.357 . S
C413 H426 0.928 . S
H414 C390 0.931 . S
H415 C392 0.930 . S
H416 C394 0.929 . S
H417 C395 0.931 . S
H418 C397 0.930 . S
H419 C401 0.931 . S
H420 C399 0.931 . S
H421 C403 0.931 . S
H422 C404 0.929 . S
H423 C405 0.930 . S
H424 C408 0.930 . S
H425 C409 0.931 . S
H426 C413 0.928 . S
H427 C412 0.929 . S
H428 C410 0.932 . S
C429 C430 1.386 . S
C429 C431 1.397 . S
C429 H453 0.931 . S
C430 C429 1.386 . S
C430 C434 1.397 . S
C431 C429 1.397 . S
C431 C432 1.384 . S
C431 H454 0.930 . S
C432 C431 1.384 . S
C432 C433 1.377 . S
C432 C435 1.481 . S
C433 C432 1.377 . S
C433 C434 1.389 . S
C433 H455 0.929 . S
C434 C430 1.397 . S
C434 C433 1.389 . S
C434 H456 0.931 . S
C435 C432 1.481 . S
C435 C436 1.387 . S
C435 C440 1.390 . S
C436 C435 1.387 . S
C436 C437 1.401 . S
C436 H457 0.930 . S
C437 C436 1.401 . S
C437 C438 1.376 . S
C437 C446 1.511 . S
C438 C437 1.376 . S
C438 C439 1.392 . S
C438 H459 0.931 . S
C439 C438 1.392 . S
C439 C440 1.361 . S
C439 C441 1.500 . S
C440 C435 1.390 . S
C440 C439 1.361 . S
C440 H458 0.931 . S
C441 C439 1.500 . S
C441 C442 1.371 . S
C441 C443 1.365 . S
C442 C441 1.371 . S
C442 C452 1.386 . S
C442 H460 0.931 . S
C443 C441 1.365 . S
C443 C444 1.409 . S
C443 H461 0.929 . S
C444 C443 1.409 . S
C444 C445 1.380 . S
C444 H462 0.930 . S
C445 C444 1.380 . S
C445 C452 1.357 . S
C446 C437 1.511 . S
C446 C447 1.341 . S
C446 C448 1.371 . S
C447 C446 1.341 . S
C447 C451 1.394 . S
C447 H463 0.930 . S
C448 C446 1.371 . S
C448 C449 1.392 . S
C448 H464 0.931 . S
C449 C448 1.392 . S
C449 C450 1.331 . S
C449 H467 0.932 . S
C450 C449 1.331 . S
C450 C451 1.336 . S
C451 C447 1.394 . S
C451 C450 1.336 . S
C451 H466 0.929 . S
C452 C442 1.386 . S
C452 C445 1.357 . S
C452 H465 0.928 . S
H453 C429 0.931 . S
H454 C431 0.930 . S
H455 C433 0.929 . S
H456 C434 0.931 . S
H457 C436 0.930 . S
H458 C440 0.931 . S
H459 C438 0.931 . S
H460 C442 0.931 . S
H461 C443 0.929 . S
H462 C444 0.930 . S
H463 C447 0.930 . S
H464 C448 0.931 . S
H465 C452 0.928 . S
H466 C451 0.929 . S
H467 C449 0.932 . S
C468 C469 1.386 . S
C468 C470 1.397 . S
C468 H492 0.931 . S
C469 C468 1.386 . S
C469 C473 1.397 . S
C470 C468 1.397 . S
C470 C471 1.384 . S
C470 H493 0.930 . S
C471 C470 1.384 . S
C471 C472 1.377 . S
C471 C474 1.481 . S
C472 C471 1.377 . S
C472 C473 1.389 . S
C472 H494 0.929 . S
C473 C469 1.397 . S
C473 C472 1.389 . S
C473 H495 0.931 . S
C474 C471 1.481 . S
C474 C475 1.387 . S
C474 C479 1.390 . S
C475 C474 1.387 . S
C475 C476 1.401 . S
C475 H496 0.930 . S
C476 C475 1.401 . S
C476 C477 1.376 . S
C476 C485 1.511 . S
C477 C476 1.376 . S
C477 C478 1.392 . S
C477 H498 0.931 . S
C478 C477 1.392 . S
C478 C479 1.361 . S
C478 C480 1.500 . S
C479 C474 1.390 . S
C479 C478 1.361 . S
C479 H497 0.931 . S
C480 C478 1.500 . S
C480 C481 1.371 . S
C480 C482 1.365 . S
C481 C480 1.371 . S
C481 C491 1.386 . S
C481 H499 0.931 . S
C482 C480 1.365 . S
C482 C483 1.409 . S
C482 H500 0.929 . S
C483 C482 1.409 . S
C483 C484 1.380 . S
C483 H501 0.930 . S
C484 C483 1.380 . S
C484 C491 1.357 . S
C485 C476 1.511 . S
C485 C486 1.341 . S
C485 C487 1.371 . S
C486 C485 1.341 . S
C486 C490 1.394 . S
C486 H502 0.930 . S
C487 C485 1.371 . S
C487 C488 1.392 . S
C487 H503 0.931 . S
C488 C487 1.392 . S
C488 C489 1.331 . S
C488 H506 0.932 . S
C489 C488 1.331 . S
C489 C490 1.336 . S
C490 C486 1.394 . S
C490 C489 1.336 . S
C490 H505 0.929 . S
C491 C481 1.386 . S
C491 C484 1.357 . S
C491 H504 0.928 . S
H492 C468 0.931 . S
H493 C470 0.930 . S
H494 C472 0.929 . S
H495 C473 0.931 . S
H496 C475 0.930 . S
H497 C479 0.931 . S
H498 C477 0.931 . S
H499 C481 0.931 . S
H500 C482 0.929 . S
H501 C483 0.930 . S
H502 C486 0.930 . S
H503 C487 0.931 . S
H504 C491 0.928 . S
H505 C490 0.929 . S
H506 C488 0.932 . S
C507 C508 1.386 . S
C507 C509 1.397 . S
C507 H531 0.931 . S
C508 C507 1.386 . S
C508 C512 1.397 . S
C509 C507 1.397 . S
C509 C510 1.384 . S
C509 H532 0.930 . S
C510 C509 1.384 . S
C510 C511 1.377 . S
C510 C513 1.481 . S
C511 C510 1.377 . S
C511 C512 1.389 . S
C511 H533 0.929 . S
C512 C508 1.397 . S
C512 C511 1.389 . S
C512 H534 0.931 . S
C513 C510 1.481 . S
C513 C514 1.387 . S
C513 C518 1.390 . S
C514 C513 1.387 . S
C514 C515 1.401 . S
C514 H535 0.930 . S
C515 C514 1.401 . S
C515 C516 1.376 . S
C515 C524 1.511 . S
C516 C515 1.376 . S
C516 C517 1.392 . S
C516 H537 0.931 . S
C517 C516 1.392 . S
C517 C518 1.361 . S
C517 C519 1.500 . S
C518 C513 1.390 . S
C518 C517 1.361 . S
C518 H536 0.931 . S
C519 C517 1.500 . S
C519 C520 1.371 . S
C519 C521 1.365 . S
C520 C519 1.371 . S
C520 C530 1.386 . S
C520 H538 0.931 1_556 S
C521 C519 1.365 . S
C521 C522 1.409 . S
C521 H539 0.929 . S
C522 C521 1.409 . S
C522 C523 1.380 . S
C522 H540 0.930 . S
C523 C522 1.380 . S
C523 C530 1.357 . S
C524 C515 1.511 . S
C524 C525 1.341 . S
C524 C526 1.371 1_556 S
C525 C524 1.341 . S
C525 C529 1.394 1_556 S
C525 H541 0.930 . S
C526 C524 1.371 1_554 S
C526 C527 1.392 . S
C526 H542 0.931 . S
C527 C526 1.392 . S
C527 C528 1.331 . S
C527 H545 0.932 . S
C528 C527 1.331 . S
C528 C529 1.336 . S
C529 C525 1.394 1_554 S
C529 C528 1.336 . S
C529 H544 0.929 . S
C530 C520 1.386 . S
C530 C523 1.357 . S
C530 H543 0.928 1_556 S
H531 C507 0.931 . S
H532 C509 0.930 . S
H533 C511 0.929 . S
H534 C512 0.931 . S
H535 C514 0.930 . S
H536 C518 0.931 . S
H537 C516 0.931 . S
H538 C520 0.931 1_554 S
H539 C521 0.929 . S
H540 C522 0.930 . S
H541 C525 0.930 . S
H542 C526 0.931 . S
H543 C530 0.928 1_554 S
H544 C529 0.929 . S
H545 C527 0.932 . S
C546 C547 1.386 . S
C546 C548 1.397 . S
C546 H570 0.931 . S
C547 C546 1.386 . S
C547 C551 1.397 . S
C548 C546 1.397 . S
C548 C549 1.384 . S
C548 H571 0.930 . S
C549 C548 1.384 . S
C549 C550 1.377 . S
C549 C552 1.481 . S
C550 C549 1.377 . S
C550 C551 1.389 . S
C550 H572 0.929 . S
C551 C547 1.397 . S
C551 C550 1.389 . S
C551 H573 0.931 . S
C552 C549 1.481 . S
C552 C553 1.387 . S
C552 C557 1.390 . S
C553 C552 1.387 . S
C553 C554 1.401 . S
C553 H574 0.930 . S
C554 C553 1.401 . S
C554 C555 1.376 . S
C554 C563 1.511 . S
C555 C554 1.376 . S
C555 C556 1.392 . S
C555 H576 0.931 . S
C556 C555 1.392 . S
C556 C557 1.361 . S
C556 C558 1.500 . S
C557 C552 1.390 . S
C557 C556 1.361 . S
C557 H575 0.931 . S
C558 C556 1.500 . S
C558 C559 1.371 . S
C558 C560 1.365 . S
C559 C558 1.371 . S
C559 C569 1.386 . S
C559 H577 0.931 . S
C560 C558 1.365 . S
C560 C561 1.409 . S
C560 H578 0.929 . S
C561 C560 1.409 . S
C561 C562 1.380 . S
C561 H579 0.930 . S
C562 C561 1.380 . S
C562 C569 1.357 . S
C563 C554 1.511 . S
C563 C564 1.341 . S
C563 C565 1.371 . S
C564 C563 1.341 . S
C564 C568 1.394 . S
C564 H580 0.930 . S
C565 C563 1.371 . S
C565 C566 1.392 . S
C565 H581 0.931 . S
C566 C565 1.392 . S
C566 C567 1.331 . S
C566 H584 0.932 . S
C567 C566 1.331 . S
C567 C568 1.336 . S
C568 C564 1.394 . S
C568 C567 1.336 . S
C568 H583 0.929 . S
C569 C559 1.386 . S
C569 C562 1.357 . S
C569 H582 0.928 . S
H570 C546 0.931 . S
H571 C548 0.930 . S
H572 C550 0.929 . S
H573 C551 0.931 . S
H574 C553 0.930 . S
H575 C557 0.931 . S
H576 C555 0.931 . S
H577 C559 0.931 . S
H578 C560 0.929 . S
H579 C561 0.930 . S
H580 C564 0.930 . S
H581 C565 0.931 . S
H582 C569 0.928 . S
H583 C568 0.929 . S
H584 C566 0.932 . S
C585 C586 1.386 . S
C585 C587 1.397 1_554 S
C585 H609 0.931 1_554 S
C586 C585 1.386 . S
C586 C590 1.397 . S
C587 C585 1.397 1_556 S
C587 C588 1.384 . S
C587 H610 0.930 . S
C588 C587 1.384 . S
C588 C589 1.377 1_556 S
C588 C591 1.481 . S
C589 C588 1.377 1_554 S
C589 C590 1.389 . S
C589 H611 0.929 . S
C590 C586 1.397 . S
C590 C589 1.389 . S
C590 H612 0.931 . S
C591 C588 1.481 . S
C591 C592 1.387 . S
C591 C596 1.390 . S
C592 C591 1.387 . S
C592 C593 1.401 . S
C592 H613 0.930 . S
C593 C592 1.401 . S
C593 C594 1.376 . S
C593 C602 1.511 . S
C594 C593 1.376 . S
C594 C595 1.392 . S
C594 H615 0.931 . S
C595 C594 1.392 . S
C595 C596 1.361 . S
C595 C597 1.500 . S
C596 C591 1.390 . S
C596 C595 1.361 . S
C596 H614 0.931 . S
C597 C595 1.500 . S
C597 C598 1.371 1_545 S
C597 C599 1.365 . S
C598 C597 1.371 1_565 S
C598 C608 1.386 . S
C598 H616 0.931 . S
C599 C597 1.365 . S
C599 C600 1.414 1_545 S
C599 H617 0.929 1_556 S
C600 C599 1.414 1_565 S
C600 C601 1.398 . S
C600 H618 0.908 1_556 S
C601 C600 1.398 . S
C601 C608 1.357 . S
C602 C593 1.511 . S
C602 C603 1.341 . S
C602 C604 1.371 . S
C603 C602 1.341 . S
C603 C607 1.394 . S
C603 H619 0.930 . S
C604 C602 1.371 . S
C604 C605 1.392 . S
C604 H620 0.931 1_545 S
C605 C604 1.392 . S
C605 C606 1.331 . S
C605 H623 0.932 1_545 S
C606 C605 1.331 . S
C606 C607 1.336 . S
C607 C603 1.394 . S
C607 C606 1.336 . S
C607 H622 0.929 . S
C608 C598 1.386 . S
C608 C601 1.357 . S
C608 H621 0.928 . S
H609 C585 0.931 1_556 S
H610 C587 0.930 . S
H611 C589 0.929 . S
H612 C590 0.931 . S
H613 C592 0.930 . S
H614 C596 0.931 . S
H615 C594 0.931 . S
H616 C598 0.931 . S
H617 C599 0.929 1_554 S
H618 C600 0.908 1_554 S
H619 C603 0.930 . S
H620 C604 0.931 1_565 S
H621 C608 0.928 . S
H622 C607 0.929 . S
H623 C605 0.932 1_565 S
Mg624 O625 2.035 . S
Mg624 O631 1.986 1_554 S
Mg624 O633 2.114 . S
Mg624 O634 2.251 . S
Mg624 O637 2.010 . S
O625 Mg624 2.035 . S
O625 C628 1.245 1_554 S
O626 Mg627 2.028 . S
O626 C628 1.248 . S
Mg627 O626 2.028 . S
Mg627 O632 2.032 . S
Mg627 O634 2.079 1_556 S
C628 O625 1.245 1_556 S
C628 O626 1.248 . S
C629 O630 1.264 . S
C629 O637 1.249 . S
O630 C629 1.264 . S
O631 Mg624 1.986 1_556 S
O631 C635 1.246 . S
O632 Mg627 2.032 . S
O632 C635 1.259 . S
O633 Mg624 2.114 . S
O633 C636 1.252 . S
O634 Mg624 2.251 . S
O634 Mg627 2.079 1_554 S
O634 C636 1.273 . S
C635 O631 1.246 . S
C635 O632 1.259 . S
C636 O633 1.252 . S
C636 O634 1.273 . S
O637 Mg624 2.010 . S
O637 C629 1.249 . S
Mg638 O639 2.028 . S
Mg638 O645 1.986 . S
Mg638 O647 2.114 . S
Mg638 O648 2.251 . S
Mg638 O651 2.010 . S
O639 Mg638 2.028 . S
O639 C642 1.250 . S
O640 Mg641 2.028 . S
O640 C642 1.248 . S
Mg641 O640 2.028 . S
Mg641 O646 2.032 . S
Mg641 O648 2.079 . S
C642 O639 1.250 . S
C642 O640 1.248 . S
C643 O644 1.264 . S
C643 O651 1.249 . S
O644 C643 1.264 . S
O645 Mg638 1.986 . S
O645 C649 1.246 . S
O646 Mg641 2.032 . S
O646 C649 1.259 . S
O647 Mg638 2.114 . S
O647 C650 1.252 . S
O648 Mg638 2.251 . S
O648 Mg641 2.079 . S
O648 C650 1.273 . S
C649 O645 1.246 . S
C649 O646 1.259 . S
C650 O647 1.252 . S
C650 O648 1.273 . S
O651 Mg638 2.010 . S
O651 C643 1.249 . S
Mg652 O653 2.028 . S
Mg652 O659 1.986 1_554 S
Mg652 O661 2.114 . S
Mg652 O662 2.251 . S
Mg652 O665 2.010 . S
O653 Mg652 2.028 . S
O653 C656 1.257 . S
O654 Mg655 2.028 . S
O654 C656 1.245 1_556 S
Mg655 O654 2.028 . S
Mg655 O660 2.032 . S
Mg655 O662 2.079 1_556 S
C656 O653 1.257 . S
C656 O654 1.245 1_554 S
C657 O658 1.264 . S
C657 O665 1.249 . S
O658 C657 1.264 . S
O659 Mg652 1.986 1_556 S
O659 C663 1.246 . S
O660 Mg655 2.032 . S
O660 C663 1.259 . S
O661 Mg652 2.114 . S
O661 C664 1.252 . S
O662 Mg652 2.251 . S
O662 Mg655 2.079 1_554 S
O662 C664 1.273 . S
C663 O659 1.246 . S
C663 O660 1.259 . S
C664 O661 1.252 . S
C664 O662 1.273 . S
O665 Mg652 2.010 . S
O665 C657 1.249 . S
Mg666 O667 2.028 . S
Mg666 O673 1.986 . S
Mg666 O675 2.114 . S
Mg666 O676 2.251 . S
Mg666 O679 2.010 . S
O667 Mg666 2.028 . S
O667 C670 1.250 1_545 S
O668 Mg669 2.028 . S
O668 C670 1.248 . S
Mg669 O668 2.028 . S
Mg669 O674 2.032 . S
Mg669 O676 2.079 1_565 S
C670 O667 1.250 1_565 S
C670 O668 1.248 . S
C671 O672 1.264 . S
C671 O679 1.249 . S
O672 C671 1.264 . S
O673 Mg666 1.986 . S
O673 C677 1.246 . S
O674 Mg669 2.032 . S
O674 C677 1.259 1_565 S
O675 Mg666 2.114 . S
O675 C678 1.252 . S
O676 Mg666 2.251 . S
O676 Mg669 2.079 1_545 S
O676 C678 1.273 . S
C677 O673 1.246 . S
C677 O674 1.259 1_545 S
C678 O675 1.252 . S
C678 O676 1.273 . S
O679 Mg666 2.010 . S
O679 C671 1.249 . S
Mg680 O681 2.028 . S
Mg680 O687 1.986 . S
Mg680 O689 2.114 . S
Mg680 O690 2.251 . S
Mg680 O693 2.010 . S
O681 Mg680 2.028 . S
O681 C684 1.250 . S
O682 Mg683 2.028 . S
O682 C684 1.248 . S
Mg683 O682 2.028 . S
Mg683 O688 2.032 . S
Mg683 O690 2.079 . S
C684 O681 1.250 . S
C684 O682 1.248 . S
C685 O686 1.264 . S
C685 O693 1.249 . S
O686 C685 1.264 . S
O687 Mg680 1.986 . S
O687 C691 1.246 . S
O688 Mg683 2.032 . S
O688 C691 1.259 . S
O689 Mg680 2.114 . S
O689 C692 1.252 . S
O690 Mg680 2.251 . S
O690 Mg683 2.079 . S
O690 C692 1.273 . S
C691 O687 1.246 . S
C691 O688 1.259 . S
C692 O689 1.252 . S
C692 O690 1.273 . S
O693 Mg680 2.010 . S
O693 C685 1.249 . S
Mg694 O695 2.028 . S
Mg694 O701 1.986 . S
Mg694 O703 2.114 . S
Mg694 O704 2.251 . S
Mg694 O707 2.010 . S
O695 Mg694 2.028 . S
O695 C698 1.250 . S
O696 Mg697 2.028 . S
O696 C698 1.248 . S
Mg697 O696 2.028 . S
Mg697 O702 2.032 . S
Mg697 O704 2.079 . S
C698 O695 1.250 . S
C698 O696 1.248 . S
C699 O700 1.264 . S
C699 O707 1.249 . S
O700 C699 1.264 . S
O701 Mg694 1.986 . S
O701 C705 1.246 . S
O702 Mg697 2.032 . S
O702 C705 1.259 . S
O703 Mg694 2.114 . S
O703 C706 1.252 . S
O704 Mg694 2.251 . S
O704 Mg697 2.079 . S
O704 C706 1.273 . S
C705 O701 1.246 . S
C705 O702 1.259 . S
C706 O703 1.252 . S
C706 O704 1.273 . S
O707 Mg694 2.010 . S
O707 C699 1.249 . S
Mg708 O709 2.028 . S
Mg708 O715 1.986 . S
Mg708 O717 2.114 . S
Mg708 O718 2.251 . S
Mg708 O721 2.010 . S
O709 Mg708 2.028 . S
O709 C712 1.250 . S
O710 Mg711 2.028 . S
O710 C712 1.248 . S
Mg711 O710 2.028 . S
Mg711 O716 2.032 . S
Mg711 O718 2.079 . S
C712 O709 1.250 . S
C712 O710 1.248 . S
C713 O714 1.264 . S
C713 O721 1.249 . S
O714 C713 1.264 . S
O715 Mg708 1.986 . S
O715 C719 1.246 . S
O716 Mg711 2.032 . S
O716 C719 1.259 . S
O717 Mg708 2.114 . S
O717 C720 1.252 . S
O718 Mg708 2.251 . S
O718 Mg711 2.079 . S
O718 C720 1.273 . S
C719 O715 1.246 . S
C719 O716 1.259 . S
C720 O717 1.252 . S
C720 O718 1.273 . S
O721 Mg708 2.010 . S
O721 C713 1.249 . S
Mg722 O723 2.028 1_545 S
Mg722 O729 1.986 1_545 S
Mg722 O731 2.114 . S
Mg722 O732 2.251 . S
Mg722 O735 2.010 . S
O723 Mg722 2.028 1_565 S
O723 C726 1.250 . S
O724 Mg725 2.028 . S
O724 C726 1.248 . S
Mg725 O724 2.028 . S
Mg725 O730 2.032 . S
Mg725 O732 2.079 1_565 S
C726 O723 1.250 . S
C726 O724 1.248 . S
C727 O728 1.264 . S
C727 O735 1.249 . S
O728 C727 1.264 . S
O729 Mg722 1.986 1_565 S
O729 C733 1.246 . S
O730 Mg725 2.032 . S
O730 C733 1.259 . S
O731 Mg722 2.114 . S
O731 C734 1.252 . S
O732 Mg722 2.251 . S
O732 Mg725 2.079 1_545 S
O732 C734 1.273 . S
C733 O729 1.246 . S
C733 O730 1.259 . S
C734 O731 1.252 . S
C734 O732 1.273 . S
O735 Mg722 2.010 . S
O735 C727 1.249 . S
Mg736 O737 2.028 . S
Mg736 O743 1.986 . S
Mg736 O745 2.114 . S
Mg736 O746 2.251 . S
Mg736 O749 2.010 . S
O737 Mg736 2.028 . S
O737 C740 1.250 1_455 S
O738 Mg739 2.028 . S
O738 C740 1.248 . S
Mg739 O738 2.028 . S
Mg739 O744 2.032 . S
Mg739 O746 2.079 1_655 S
C740 O737 1.250 1_655 S
C740 O738 1.248 . S
C741 O742 1.264 . S
C741 O749 1.249 . S
O742 C741 1.264 . S
O743 Mg736 1.986 . S
O743 C747 1.246 . S
O744 Mg739 2.032 . S
O744 C747 1.259 1_655 S
O745 Mg736 2.114 . S
O745 C748 1.252 . S
O746 Mg736 2.251 . S
O746 Mg739 2.079 1_455 S
O746 C748 1.273 . S
C747 O743 1.246 . S
C747 O744 1.259 1_455 S
C748 O745 1.252 . S
C748 O746 1.273 . S
O749 Mg736 2.010 . S
O749 C741 1.249 . S
Mg750 O751 2.028 . S
Mg750 O757 1.986 . S
Mg750 O759 2.114 . S
Mg750 O760 2.251 . S
Mg750 O763 2.010 . S
O751 Mg750 2.028 . S
O751 C754 1.250 . S
O752 Mg753 2.028 . S
O752 C754 1.248 . S
Mg753 O752 2.028 . S
Mg753 O758 2.032 . S
Mg753 O760 2.079 . S
C754 O751 1.250 . S
C754 O752 1.248 . S
C755 O756 1.264 . S
C755 O763 1.249 . S
O756 C755 1.264 . S
O757 Mg750 1.986 . S
O757 C761 1.246 . S
O758 Mg753 2.032 . S
O758 C761 1.259 . S
O759 Mg750 2.114 . S
O759 C762 1.252 . S
O760 Mg750 2.251 . S
O760 Mg753 2.079 . S
O760 C762 1.273 . S
C761 O757 1.246 . S
C761 O758 1.259 . S
C762 O759 1.252 . S
C762 O760 1.273 . S
O763 Mg750 2.010 . S
O763 C755 1.249 . S
Mg764 O765 2.028 1_655 S
Mg764 O771 2.001 . S
Mg764 O773 2.114 . S
Mg764 O774 2.251 1_655 S
Mg764 O777 2.010 . S
O765 Mg764 2.028 1_455 S
O765 C768 1.250 . S
O766 Mg767 2.028 . S
O766 C768 1.248 . S
Mg767 O766 2.028 . S
Mg767 O772 2.032 . S
Mg767 O774 2.079 . S
C768 O765 1.250 . S
C768 O766 1.248 . S
C769 O770 1.264 . S
C769 O777 1.249 . S
O770 C769 1.264 . S
O771 Mg764 2.001 . S
O771 C775 1.206 1_655 S
O772 Mg767 2.032 . S
O772 C775 1.259 . S
O773 Mg764 2.114 . S
O773 C776 1.252 . S
O774 Mg764 2.251 1_455 S
O774 Mg767 2.079 . S
O774 C776 1.273 1_455 S
C775 O771 1.206 1_455 S
C775 O772 1.259 . S
C776 O773 1.252 . S
C776 O774 1.273 1_655 S
O777 Mg764 2.010 . S
O777 C769 1.249 . S
Mg778 O779 2.028 . S
Mg778 O785 1.986 . S
Mg778 O787 2.114 . S
Mg778 O788 2.251 . S
Mg778 O791 2.010 . S
O779 Mg778 2.028 . S
O779 C782 1.250 . S
O780 Mg781 2.028 . S
O780 C782 1.248 . S
Mg781 O780 2.028 . S
Mg781 O786 2.032 . S
Mg781 O788 2.079 . S
C782 O779 1.250 . S
C782 O780 1.248 . S
C783 O784 1.264 . S
C783 O791 1.249 . S
O784 C783 1.264 . S
O785 Mg778 1.986 . S
O785 C789 1.246 . S
O786 Mg781 2.032 . S
O786 C789 1.259 . S
O787 Mg778 2.114 . S
O787 C790 1.252 . S
O788 Mg778 2.251 . S
O788 Mg781 2.079 . S
O788 C790 1.273 . S
C789 O785 1.246 . S
C789 O786 1.259 . S
C790 O787 1.252 . S
C790 O788 1.273 . S
O791 Mg778 2.010 . S
O791 C783 1.249 . S
H792 C798 0.930 . S
H793 C802 0.930 . S
H794 C807 0.929 . S
H795 C805 0.929 . S
H796 C800 0.929 . S
H797 C806 0.929 . S
C798 H792 0.930 . S
C798 C799 1.367 . S
C798 C806 1.378 . S
C799 C798 1.367 . S
C799 C807 1.433 . S
C800 H796 0.929 . S
C800 C802 1.378 . S
C800 C804 1.350 . S
C801 C804 1.463 . S
C801 C806 1.350 . S
C801 N809 1.427 . S
C802 H793 0.930 . S
C802 C800 1.378 . S
C802 C803 1.367 . S
C803 C802 1.367 . S
C803 C805 1.433 . S
C804 C800 1.350 . S
C804 C801 1.463 . S
C804 N808 1.427 . S
C805 H795 0.929 . S
C805 C803 1.433 . S
C805 N808 1.384 . S
C806 H797 0.929 . S
C806 C798 1.378 . S
C806 C801 1.350 . S
C807 H794 0.929 . S
C807 C799 1.433 . S
C807 N809 1.384 . S
N808 C804 1.427 . S
N808 C805 1.384 . S
N809 C801 1.427 . S
N809 C807 1.384 . S
H810 C816 0.930 . S
H811 C820 0.930 . S
H812 C825 0.929 . S
H813 C823 0.929 . S
H814 C818 0.929 . S
H815 C824 0.929 . S
C816 H810 0.930 . S
C816 C817 1.367 . S
C816 C824 1.378 . S
C817 C816 1.367 . S
C817 C825 1.433 . S
C818 H814 0.929 . S
C818 C820 1.378 . S
C818 C822 1.350 . S
C819 C822 1.463 . S
C819 C824 1.350 . S
C819 N827 1.427 . S
C820 H811 0.930 . S
C820 C818 1.378 . S
C820 C821 1.367 . S
C821 C820 1.367 . S
C821 C823 1.433 . S
C822 C818 1.350 . S
C822 C819 1.463 . S
C822 N826 1.427 . S
C823 H813 0.929 . S
C823 C821 1.433 . S
C823 N826 1.384 . S
C824 H815 0.929 . S
C824 C816 1.378 . S
C824 C819 1.350 . S
C825 H812 0.929 . S
C825 C817 1.433 . S
C825 N827 1.384 . S
N826 C822 1.427 . S
N826 C823 1.384 . S
N827 C819 1.427 . S
N827 C825 1.384 . S
H828 C834 0.930 . S
H829 C838 0.930 . S
H830 C843 0.929 . S
H831 C841 0.929 . S
H832 C836 0.929 . S
H833 C842 0.929 . S
C834 H828 0.930 . S
C834 C835 1.367 . S
C834 C842 1.378 . S
C835 C834 1.367 . S
C835 C843 1.433 . S
C836 H832 0.929 . S
C836 C838 1.378 . S
C836 C840 1.350 . S
C837 C840 1.463 . S
C837 C842 1.350 . S
C837 N845 1.427 . S
C838 H829 0.930 . S
C838 C836 1.378 . S
C838 C839 1.367 . S
C839 C838 1.367 . S
C839 C841 1.433 . S
C840 C836 1.350 . S
C840 C837 1.463 . S
C840 N844 1.427 . S
C841 H831 0.929 . S
C841 C839 1.433 . S
C841 N844 1.384 . S
C842 H833 0.929 . S
C842 C834 1.378 . S
C842 C837 1.350 . S
C843 H830 0.929 . S
C843 C835 1.433 . S
C843 N845 1.384 . S
N844 C840 1.427 . S
N844 C841 1.384 . S
N845 C837 1.427 . S
N845 C843 1.384 . S
H846 C852 0.930 1_455 S
H847 C856 0.930 . S
H848 C861 0.929 . S
H849 C859 0.929 . S
H850 C854 0.929 . S
H851 C860 0.929 . S
C852 H846 0.930 1_655 S
C852 C853 1.367 1_545 S
C852 C860 1.378 . S
C853 C852 1.367 1_565 S
C853 C861 1.433 . S
C854 H850 0.929 . S
C854 C856 1.378 . S
C854 C858 1.348 . S
C855 C858 1.461 . S
C855 C860 1.350 1_565 S
C855 N863 1.427 . S
C856 H847 0.930 . S
C856 C854 1.378 . S
C856 C857 1.367 1_565 S
C857 C856 1.367 1_545 S
C857 C859 1.433 . S
C858 C854 1.348 . S
C858 C855 1.461 . S
C858 N862 1.431 1_565 S
C859 H849 0.929 . S
C859 C857 1.433 . S
C859 N862 1.384 . S
C860 H851 0.929 . S
C860 C852 1.378 . S
C860 C855 1.350 1_545 S
C861 H848 0.929 . S
C861 C853 1.433 . S
C861 N863 1.384 . S
N862 C858 1.431 1_545 S
N862 C859 1.384 . S
N863 C855 1.427 . S
N863 C861 1.384 . S
H864 C870 0.930 . S
H865 C874 0.930 . S
H866 C879 0.929 . S
H867 C877 0.929 . S
H868 C872 0.929 . S
H869 C878 0.929 . S
C870 H864 0.930 . S
C870 C871 1.367 . S
C870 C878 1.378 . S
C871 C870 1.367 . S
C871 C879 1.433 . S
C872 H868 0.929 . S
C872 C874 1.378 . S
C872 C876 1.350 . S
C873 C876 1.463 . S
C873 C878 1.350 . S
C873 N881 1.427 . S
C874 H865 0.930 . S
C874 C872 1.378 . S
C874 C875 1.367 . S
C875 C874 1.367 . S
C875 C877 1.433 . S
C876 C872 1.350 . S
C876 C873 1.463 . S
C876 N880 1.427 . S
C877 H867 0.929 . S
C877 C875 1.433 . S
C877 N880 1.384 . S
C878 H869 0.929 . S
C878 C870 1.378 . S
C878 C873 1.350 . S
C879 H866 0.929 . S
C879 C871 1.433 . S
C879 N881 1.384 . S
N880 C876 1.427 . S
N880 C877 1.384 . S
N881 C873 1.427 . S
N881 C879 1.384 . S
H882 C888 0.930 . S
H883 C892 0.930 . S
H884 C897 0.929 . S
H885 C895 0.929 . S
H886 C890 0.929 . S
H887 C896 0.929 . S
C888 H882 0.930 . S
C888 C889 1.367 . S
C888 C896 1.378 . S
C889 C888 1.367 . S
C889 C897 1.433 . S
C890 H886 0.929 . S
C890 C892 1.378 . S
C890 C894 1.350 . S
C891 C894 1.463 . S
C891 C896 1.350 . S
C891 N899 1.427 . S
C892 H883 0.930 . S
C892 C890 1.378 . S
C892 C893 1.367 . S
C893 C892 1.367 . S
C893 C895 1.433 . S
C894 C890 1.350 . S
C894 C891 1.463 . S
C894 N898 1.427 . S
C895 H885 0.929 . S
C895 C893 1.433 . S
C895 N898 1.384 . S
C896 H887 0.929 . S
C896 C888 1.378 . S
C896 C891 1.350 . S
C897 H884 0.929 . S
C897 C889 1.433 . S
C897 N899 1.384 . S
N898 C894 1.427 . S
N898 C895 1.384 . S
N899 C891 1.427 . S
N899 C897 1.384 . S
H900 C906 0.930 . S
H901 C910 0.930 . S
H902 C915 0.929 . S
H903 C913 0.929 . S
H904 C908 0.929 . S
H905 C914 0.929 . S
C906 H900 0.930 . S
C906 C907 1.367 . S
C906 C914 1.378 . S
C907 C906 1.367 . S
C907 C915 1.433 . S
C908 H904 0.929 . S
C908 C910 1.378 . S
C908 C912 1.350 . S
C909 C912 1.463 . S
C909 C914 1.350 . S
C909 N917 1.427 . S
C910 H901 0.930 . S
C910 C908 1.378 . S
C910 C911 1.367 . S
C911 C910 1.367 . S
C911 C913 1.433 . S
C912 C908 1.350 . S
C912 C909 1.463 . S
C912 N916 1.427 . S
C913 H903 0.929 . S
C913 C911 1.433 . S
C913 N916 1.384 . S
C914 H905 0.929 . S
C914 C906 1.378 . S
C914 C909 1.350 . S
C915 H902 0.929 . S
C915 C907 1.433 . S
C915 N917 1.384 . S
N916 C912 1.427 . S
N916 C913 1.384 . S
N917 C909 1.427 . S
N917 C915 1.384 . S
H918 C924 0.930 1_545 S
H919 C928 0.930 . S
H920 C933 0.929 . S
H921 C931 0.929 . S
H922 C926 0.929 . S
H923 C932 0.955 . S
C924 H918 0.930 1_565 S
C924 C925 1.367 . S
C924 C932 1.375 1_565 S
C925 C924 1.367 . S
C925 C933 1.433 . S
C926 H922 0.929 . S
C926 C928 1.378 . S
C926 C930 1.350 . S
C927 C930 1.463 . S
C927 C932 1.326 1_565 S
C927 N935 1.427 . S
C928 H919 0.930 . S
C928 C926 1.378 . S
C928 C929 1.367 . S
C929 C928 1.367 . S
C929 C931 1.433 1_565 S
C930 C926 1.350 . S
C930 C927 1.463 . S
C930 N934 1.427 1_565 S
C931 H921 0.929 . S
C931 C929 1.433 1_545 S
C931 N934 1.384 . S
C932 H923 0.955 . S
C932 C924 1.375 1_545 S
C932 C927 1.326 1_545 S
C933 H920 0.929 . S
C933 C925 1.433 . S
C933 N935 1.384 . S
N934 C930 1.427 1_545 S
N934 C931 1.384 . S
N935 C927 1.427 . S
N935 C933 1.384 . S
H936 C942 0.930 . S
H937 C946 0.930 . S
H938 C951 0.929 . S
H939 C949 0.929 . S
H940 C944 0.929 . S
H941 C950 0.929 . S
C942 H936 0.930 . S
C942 C943 1.367 . S
C942 C950 1.378 . S
C943 C942 1.367 . S
C943 C951 1.433 . S
C944 H940 0.929 . S
C944 C946 1.378 . S
C944 C948 1.350 . S
C945 C948 1.463 . S
C945 C950 1.350 . S
C945 N953 1.427 . S
C946 H937 0.930 . S
C946 C944 1.378 . S
C946 C947 1.367 . S
C947 C946 1.367 . S
C947 C949 1.433 . S
C948 C944 1.350 . S
C948 C945 1.463 . S
C948 N952 1.427 . S
C949 H939 0.929 . S
C949 C947 1.433 . S
C949 N952 1.384 . S
C950 H941 0.929 . S
C950 C942 1.378 . S
C950 C945 1.350 . S
C951 H938 0.929 . S
C951 C943 1.433 . S
C951 N953 1.384 . S
N952 C948 1.427 . S
N952 C949 1.384 . S
N953 C945 1.427 . S
N953 C951 1.384 . S
H954 C960 0.930 . S
H955 C964 0.930 . S
H956 C969 0.929 . S
H957 C967 0.929 . S
H958 C962 0.929 . S
H959 C968 0.929 . S
C960 H954 0.930 . S
C960 C961 1.367 . S
C960 C968 1.378 . S
C961 C960 1.367 . S
C961 C969 1.433 . S
C962 H958 0.929 . S
C962 C964 1.378 . S
C962 C966 1.350 . S
C963 C966 1.463 . S
C963 C968 1.350 . S
C963 N971 1.427 . S
C964 H955 0.930 . S
C964 C962 1.378 . S
C964 C965 1.367 . S
C965 C964 1.367 . S
C965 C967 1.433 . S
C966 C962 1.350 . S
C966 C963 1.463 . S
C966 N970 1.427 . S
C967 H957 0.929 . S
C967 C965 1.433 . S
C967 N970 1.384 . S
C968 H959 0.929 . S
C968 C960 1.378 . S
C968 C963 1.350 . S
C969 H956 0.929 . S
C969 C961 1.433 . S
C969 N971 1.384 . S
N970 C966 1.427 . S
N970 C967 1.384 . S
N971 C963 1.427 . S
N971 C969 1.384 . S
H972 C978 0.930 . S
H973 C982 0.930 . S
H974 C987 0.929 . S
H975 C985 0.929 . S
H976 C980 0.929 . S
H977 C986 0.929 . S
C978 H972 0.930 . S
C978 C979 1.367 . S
C978 C986 1.378 . S
C979 C978 1.367 . S
C979 C987 1.433 . S
C980 H976 0.929 . S
C980 C982 1.378 . S
C980 C984 1.350 . S
C981 C984 1.463 . S
C981 C986 1.350 . S
C981 N989 1.427 . S
C982 H973 0.930 . S
C982 C980 1.378 . S
C982 C983 1.367 . S
C983 C982 1.367 . S
C983 C985 1.433 . S
C984 C980 1.350 . S
C984 C981 1.463 . S
C984 N988 1.427 . S
C985 H975 0.929 . S
C985 C983 1.433 . S
C985 N988 1.384 . S
C986 H977 0.929 . S
C986 C978 1.378 . S
C986 C981 1.350 . S
C987 H974 0.929 . S
C987 C979 1.433 . S
C987 N989 1.384 . S
N988 C984 1.427 . S
N988 C985 1.384 . S
N989 C981 1.427 . S
N989 C987 1.384 . S
H990 C996 0.930 . S
H991 C1000 0.930 . S
H992 C1005 0.929 . S
H993 C1003 0.929 . S
H994 C998 0.929 . S
H995 C1004 0.929 . S
C996 H990 0.930 . S
C996 C997 1.367 . S
C996 C1004 1.378 . S
C997 C996 1.367 . S
C997 C1005 1.433 . S
C998 H994 0.929 . S
C998 C1000 1.378 . S
C998 C1002 1.350 . S
C999 C1002 1.463 . S
C999 C1004 1.350 . S
C999 N1007 1.427 . S
C1000 H991 0.930 . S
C1000 C998 1.378 . S
C1000 C1001 1.367 . S
C1001 C1000 1.367 . S
C1001 C1003 1.433 . S
C1002 C998 1.350 . S
C1002 C999 1.463 . S
C1002 N1006 1.427 . S
C1003 H993 0.929 . S
C1003 C1001 1.433 . S
C1003 N1006 1.384 . S
C1004 H995 0.929 . S
C1004 C996 1.378 . S
C1004 C999 1.350 . S
C1005 H992 0.929 . S
C1005 C997 1.433 . S
C1005 N1007 1.384 . S
N1006 C1002 1.427 . S
N1006 C1003 1.384 . S
N1007 C999 1.427 . S
N1007 C1005 1.384 . S
H1008 C1014 0.930 . S
H1009 C1018 0.930 . S
H1010 C1023 0.929 . S
H1011 C1021 0.929 . S
H1012 C1016 0.929 . S
H1013 C1022 0.929 . S
C1014 H1008 0.930 . S
C1014 C1015 1.367 . S
C1014 C1022 1.378 . S
C1015 C1014 1.367 . S
C1015 C1023 1.433 . S
C1016 H1012 0.929 . S
C1016 C1018 1.378 . S
C1016 C1020 1.350 . S
C1017 C1020 1.463 . S
C1017 C1022 1.350 . S
C1017 N1025 1.427 . S
C1018 H1009 0.930 . S
C1018 C1016 1.378 . S
C1018 C1019 1.367 . S
C1019 C1018 1.367 . S
C1019 C1021 1.433 . S
C1020 C1016 1.350 . S
C1020 C1017 1.463 . S
C1020 N1024 1.427 . S
C1021 H1011 0.929 . S
C1021 C1019 1.433 . S
C1021 N1024 1.384 . S
C1022 H1013 0.929 . S
C1022 C1014 1.378 . S
C1022 C1017 1.350 . S
C1023 H1010 0.929 . S
C1023 C1015 1.433 . S
C1023 N1025 1.384 . S
N1024 C1020 1.427 . S
N1024 C1021 1.384 . S
N1025 C1017 1.427 . S
N1025 C1023 1.384 . S
H1026 C1032 0.930 . S
H1027 C1036 0.930 . S
H1028 C1041 0.929 . S
H1029 C1039 0.929 . S
H1030 C1034 0.929 . S
H1031 C1040 0.929 . S
C1032 H1026 0.930 . S
C1032 C1033 1.367 . S
C1032 C1040 1.378 . S
C1033 C1032 1.367 . S
C1033 C1041 1.433 . S
C1034 H1030 0.929 . S
C1034 C1036 1.378 . S
C1034 C1038 1.350 . S
C1035 C1038 1.463 . S
C1035 C1040 1.350 . S
C1035 N1043 1.427 . S
C1036 H1027 0.930 . S
C1036 C1034 1.378 . S
C1036 C1037 1.367 . S
C1037 C1036 1.367 . S
C1037 C1039 1.433 . S
C1038 C1034 1.350 . S
C1038 C1035 1.463 . S
C1038 N1042 1.427 . S
C1039 H1029 0.929 . S
C1039 C1037 1.433 . S
C1039 N1042 1.384 . S
C1040 H1031 0.929 . S
C1040 C1032 1.378 . S
C1040 C1035 1.350 . S
C1041 H1028 0.929 . S
C1041 C1033 1.433 . S
C1041 N1043 1.384 . S
N1042 C1038 1.427 . S
N1042 C1039 1.384 . S
N1043 C1035 1.427 . S
N1043 C1041 1.384 . S
H1044 C1050 0.930 . S
H1045 C1054 0.930 . S
H1046 C1059 0.929 . S
H1047 C1057 0.929 . S
H1048 C1052 0.929 . S
H1049 C1058 0.929 . S
C1050 H1044 0.930 . S
C1050 C1051 1.367 . S
C1050 C1058 1.378 . S
C1051 C1050 1.367 . S
C1051 C1059 1.433 . S
C1052 H1048 0.929 . S
C1052 C1054 1.378 . S
C1052 C1056 1.350 . S
C1053 C1056 1.463 . S
C1053 C1058 1.350 . S
C1053 N1061 1.427 . S
C1054 H1045 0.930 . S
C1054 C1052 1.378 . S
C1054 C1055 1.367 . S
C1055 C1054 1.367 . S
C1055 C1057 1.433 . S
C1056 C1052 1.350 . S
C1056 C1053 1.463 . S
C1056 N1060 1.427 . S
C1057 H1047 0.929 . S
C1057 C1055 1.433 . S
C1057 N1060 1.384 . S
C1058 H1049 0.929 . S
C1058 C1050 1.378 . S
C1058 C1053 1.350 . S
C1059 H1046 0.929 . S
C1059 C1051 1.433 . S
C1059 N1061 1.384 . S
N1060 C1056 1.427 . S
N1060 C1057 1.384 . S
N1061 C1053 1.427 . S
N1061 C1059 1.384 . S
H1062 C1068 0.930 1_455 S
H1063 C1072 0.930 . S
H1064 C1077 0.929 . S
H1065 C1075 0.929 . S
H1066 C1070 0.929 . S
H1067 C1076 0.918 1_455 S
C1068 H1062 0.930 1_655 S
C1068 C1069 1.367 . S
C1068 C1076 1.378 . S
C1069 C1068 1.367 . S
C1069 C1077 1.433 . S
C1070 H1066 0.929 . S
C1070 C1072 1.378 . S
C1070 C1074 1.350 . S
C1071 C1074 1.463 . S
C1071 C1076 1.360 . S
C1071 N1079 1.427 . S
C1072 H1063 0.930 . S
C1072 C1070 1.378 . S
C1072 C1073 1.367 . S
C1073 C1072 1.367 . S
C1073 C1075 1.433 1_655 S
C1074 C1070 1.350 . S
C1074 C1071 1.463 . S
C1074 N1078 1.427 1_655 S
C1075 H1065 0.929 . S
C1075 C1073 1.433 1_455 S
C1075 N1078 1.384 . S
C1076 H1067 0.918 1_655 S
C1076 C1068 1.378 . S
C1076 C1071 1.360 . S
C1077 H1064 0.929 . S
C1077 C1069 1.433 . S
C1077 N1079 1.384 . S
N1078 C1074 1.427 1_455 S
N1078 C1075 1.384 . S
N1079 C1071 1.427 . S
N1079 C1077 1.384 . S
H1080 C1086 0.930 . S
H1081 C1090 0.930 . S
H1082 C1095 0.929 . S
H1083 C1093 0.929 . S
H1084 C1088 0.929 . S
H1085 C1094 0.929 . S
C1086 H1080 0.930 . S
C1086 C1087 1.367 . S
C1086 C1094 1.378 . S
C1087 C1086 1.367 . S
C1087 C1095 1.433 . S
C1088 H1084 0.929 . S
C1088 C1090 1.378 . S
C1088 C1092 1.350 . S
C1089 C1092 1.463 . S
C1089 C1094 1.350 . S
C1089 N1097 1.427 . S
C1090 H1081 0.930 . S
C1090 C1088 1.378 . S
C1090 C1091 1.367 . S
C1091 C1090 1.367 . S
C1091 C1093 1.433 . S
C1092 C1088 1.350 . S
C1092 C1089 1.463 . S
C1092 N1096 1.427 . S
C1093 H1083 0.929 . S
C1093 C1091 1.433 . S
C1093 N1096 1.384 . S
C1094 H1085 0.929 . S
C1094 C1086 1.378 . S
C1094 C1089 1.350 . S
C1095 H1082 0.929 . S
C1095 C1087 1.433 . S
C1095 N1097 1.384 . S
N1096 C1092 1.427 . S
N1096 C1093 1.384 . S
N1097 C1089 1.427 . S
N1097 C1095 1.384 . S
H1098 C1104 0.930 . S
H1099 C1108 0.930 . S
H1100 C1113 0.929 . S
H1101 C1111 0.929 . S
H1102 C1106 0.929 . S
H1103 C1112 0.929 . S
C1104 H1098 0.930 . S
C1104 C1105 1.367 . S
C1104 C1112 1.378 . S
C1105 C1104 1.367 . S
C1105 C1113 1.433 . S
C1106 H1102 0.929 . S
C1106 C1108 1.378 . S
C1106 C1110 1.350 . S
C1107 C1110 1.463 . S
C1107 C1112 1.350 . S
C1107 N1115 1.427 . S
C1108 H1099 0.930 . S
C1108 C1106 1.378 . S
C1108 C1109 1.367 . S
C1109 C1108 1.367 . S
C1109 C1111 1.433 . S
C1110 C1106 1.350 . S
C1110 C1107 1.463 . S
C1110 N1114 1.427 . S
C1111 H1101 0.929 . S
C1111 C1109 1.433 . S
C1111 N1114 1.384 . S
C1112 H1103 0.929 . S
C1112 C1104 1.378 . S
C1112 C1107 1.350 . S
C1113 H1100 0.929 . S
C1113 C1105 1.433 . S
C1113 N1115 1.384 . S
N1114 C1110 1.427 . S
N1114 C1111 1.384 . S
N1115 C1107 1.427 . S
N1115 C1113 1.384 . S
H1116 C1122 0.930 . S
H1117 C1126 0.930 . S
H1118 C1131 0.913 1_554 S
H1119 C1129 0.929 . S
H1120 C1124 0.929 . S
H1121 C1130 0.929 . S
C1122 H1116 0.930 . S
C1122 C1123 1.367 . S
C1122 C1130 1.378 . S
C1123 C1122 1.367 . S
C1123 C1131 1.455 . S
C1124 H1120 0.929 . S
C1124 C1126 1.378 . S
C1124 C1128 1.350 1_554 S
C1125 C1128 1.463 . S
C1125 C1130 1.350 . S
C1125 N1133 1.427 1_556 S
C1126 H1117 0.930 . S
C1126 C1124 1.378 . S
C1126 C1127 1.367 1_554 S
C1127 C1126 1.367 1_556 S
C1127 C1129 1.433 . S
C1128 C1124 1.350 1_556 S
C1128 C1125 1.463 . S
C1128 N1132 1.427 . S
C1129 H1119 0.929 . S
C1129 C1127 1.433 . S
C1129 N1132 1.384 . S
C1130 H1121 0.929 . S
C1130 C1122 1.378 . S
C1130 C1125 1.350 . S
C1131 H1118 0.913 1_556 S
C1131 C1123 1.455 . S
C1131 N1133 1.379 1_556 S
N1132 C1128 1.427 . S
N1132 C1129 1.384 . S
N1133 C1125 1.427 1_554 S
N1133 C1131 1.379 1_554 S
H1134 C1140 0.930 . S
H1135 C1144 0.930 . S
H1136 C1149 0.929 . S
H1137 C1147 0.929 . S
H1138 C1142 0.929 . S
H1139 C1148 0.929 . S
C1140 H1134 0.930 . S
C1140 C1141 1.367 . S
C1140 C1148 1.378 . S
C1141 C1140 1.367 . S
C1141 C1149 1.433 . S
C1142 H1138 0.929 . S
C1142 C1144 1.378 . S
C1142 C1146 1.350 . S
C1143 C1146 1.463 . S
C1143 C1148 1.350 . S
C1143 N1151 1.427 . S
C1144 H1135 0.930 . S
C1144 C1142 1.378 . S
C1144 C1145 1.367 . S
C1145 C1144 1.367 . S
C1145 C1147 1.433 . S
C1146 C1142 1.350 . S
C1146 C1143 1.463 . S
C1146 N1150 1.427 . S
C1147 H1137 0.929 . S
C1147 C1145 1.433 . S
C1147 N1150 1.384 . S
C1148 H1139 0.929 . S
C1148 C1140 1.378 . S
C1148 C1143 1.350 . S
C1149 H1136 0.929 . S
C1149 C1141 1.433 . S
C1149 N1151 1.384 . S
N1150 C1146 1.427 . S
N1150 C1147 1.384 . S
N1151 C1143 1.427 . S
N1151 C1149 1.384 . S
H1152 C1158 0.930 . S
H1153 C1162 0.930 . S
H1154 C1167 0.929 . S
H1155 C1165 0.929 . S
H1156 C1160 0.929 . S
H1157 C1166 0.929 . S
C1158 H1152 0.930 . S
C1158 C1159 1.367 . S
C1158 C1166 1.378 . S
C1159 C1158 1.367 . S
C1159 C1167 1.433 . S
C1160 H1156 0.929 . S
C1160 C1162 1.378 . S
C1160 C1164 1.350 . S
C1161 C1164 1.463 . S
C1161 C1166 1.350 . S
C1161 N1169 1.427 . S
C1162 H1153 0.930 . S
C1162 C1160 1.378 . S
C1162 C1163 1.367 . S
C1163 C1162 1.367 . S
C1163 C1165 1.433 . S
C1164 C1160 1.350 . S
C1164 C1161 1.463 . S
C1164 N1168 1.427 . S
C1165 H1155 0.929 . S
C1165 C1163 1.433 . S
C1165 N1168 1.384 . S
C1166 H1157 0.929 . S
C1166 C1158 1.378 . S
C1166 C1161 1.350 . S
C1167 H1154 0.929 . S
C1167 C1159 1.433 . S
C1167 N1169 1.384 . S
N1168 C1164 1.427 . S
N1168 C1165 1.384 . S
N1169 C1161 1.427 . S
N1169 C1167 1.384 . S
H1170 C1176 0.930 . S
H1171 C1180 0.930 . S
H1172 C1185 0.929 . S
H1173 C1183 0.929 . S
H1174 C1178 0.929 . S
H1175 C1184 0.929 . S
C1176 H1170 0.930 . S
C1176 C1177 1.367 . S
C1176 C1184 1.378 . S
C1177 C1176 1.367 . S
C1177 C1185 1.433 . S
C1178 H1174 0.929 . S
C1178 C1180 1.378 . S
C1178 C1182 1.350 . S
C1179 C1182 1.463 . S
C1179 C1184 1.350 . S
C1179 N1187 1.427 . S
C1180 H1171 0.930 . S
C1180 C1178 1.378 . S
C1180 C1181 1.367 . S
C1181 C1180 1.367 . S
C1181 C1183 1.433 . S
C1182 C1178 1.350 . S
C1182 C1179 1.463 . S
C1182 N1186 1.427 . S
C1183 H1173 0.929 . S
C1183 C1181 1.433 . S
C1183 N1186 1.384 . S
C1184 H1175 0.929 . S
C1184 C1176 1.378 . S
C1184 C1179 1.350 . S
C1185 H1172 0.929 . S
C1185 C1177 1.433 . S
C1185 N1187 1.384 . S
N1186 C1182 1.427 . S
N1186 C1183 1.384 . S
N1187 C1179 1.427 . S
N1187 C1185 1.384 . S
H1188 C1194 0.930 . S
H1189 C1198 0.930 . S
H1190 C1203 0.929 . S
H1191 C1201 0.929 . S
H1192 C1196 0.929 . S
H1193 C1202 0.929 . S
C1194 H1188 0.930 . S
C1194 C1195 1.367 . S
C1194 C1202 1.378 . S
C1195 C1194 1.367 . S
C1195 C1203 1.433 . S
C1196 H1192 0.929 . S
C1196 C1198 1.378 . S
C1196 C1200 1.350 . S
C1197 C1200 1.463 . S
C1197 C1202 1.350 . S
C1197 N1205 1.427 . S
C1198 H1189 0.930 . S
C1198 C1196 1.378 . S
C1198 C1199 1.367 . S
C1199 C1198 1.367 . S
C1199 C1201 1.433 . S
C1200 C1196 1.350 . S
C1200 C1197 1.463 . S
C1200 N1204 1.427 . S
C1201 H1191 0.929 . S
C1201 C1199 1.433 . S
C1201 N1204 1.384 . S
C1202 H1193 0.929 . S
C1202 C1194 1.378 . S
C1202 C1197 1.350 . S
C1203 H1190 0.929 . S
C1203 C1195 1.433 . S
C1203 N1205 1.384 . S
N1204 C1200 1.427 . S
N1204 C1201 1.384 . S
N1205 C1197 1.427 . S
N1205 C1203 1.384 . S
H1206 C1212 0.930 . S
H1207 C1216 0.930 . S
H1208 C1221 0.929 . S
H1209 C1219 0.929 . S
H1210 C1214 0.929 . S
H1211 C1220 0.929 . S
C1212 H1206 0.930 . S
C1212 C1213 1.367 . S
C1212 C1220 1.378 . S
C1213 C1212 1.367 . S
C1213 C1221 1.433 . S
C1214 H1210 0.929 . S
C1214 C1216 1.378 . S
C1214 C1218 1.350 . S
C1215 C1218 1.463 . S
C1215 C1220 1.350 . S
C1215 N1223 1.427 . S
C1216 H1207 0.930 . S
C1216 C1214 1.378 . S
C1216 C1217 1.367 . S
C1217 C1216 1.367 . S
C1217 C1219 1.433 . S
C1218 C1214 1.350 . S
C1218 C1215 1.463 . S
C1218 N1222 1.427 . S
C1219 H1209 0.929 . S
C1219 C1217 1.433 . S
C1219 N1222 1.384 . S
C1220 H1211 0.929 . S
C1220 C1212 1.378 . S
C1220 C1215 1.350 . S
C1221 H1208 0.929 . S
C1221 C1213 1.433 . S
C1221 N1223 1.384 . S
N1222 C1218 1.427 . S
N1222 C1219 1.384 . S
N1223 C1215 1.427 . S
N1223 C1221 1.384 . S
H1224 C1230 0.930 . S
H1225 C1234 0.930 . S
H1226 C1239 0.929 . S
H1227 C1237 0.929 . S
H1228 C1232 0.929 . S
H1229 C1238 0.929 . S
C1230 H1224 0.930 . S
C1230 C1231 1.367 . S
C1230 C1238 1.378 . S
C1231 C1230 1.367 . S
C1231 C1239 1.433 . S
C1232 H1228 0.929 . S
C1232 C1234 1.378 . S
C1232 C1236 1.350 . S
C1233 C1236 1.463 . S
C1233 C1238 1.350 . S
C1233 N1241 1.427 . S
C1234 H1225 0.930 . S
C1234 C1232 1.378 . S
C1234 C1235 1.367 . S
C1235 C1234 1.367 . S
C1235 C1237 1.433 . S
C1236 C1232 1.350 . S
C1236 C1233 1.463 . S
C1236 N1240 1.427 . S
C1237 H1227 0.929 . S
C1237 C1235 1.433 . S
C1237 N1240 1.384 . S
C1238 H1229 0.929 . S
C1238 C1230 1.378 . S
C1238 C1233 1.350 . S
C1239 H1226 0.929 . S
C1239 C1231 1.433 . S
C1239 N1241 1.384 . S
N1240 C1236 1.427 . S
N1240 C1237 1.384 . S
N1241 C1233 1.427 . S
N1241 C1239 1.384 . S
H1242 C1248 0.930 1_565 S
H1243 C1252 0.930 . S
H1244 C1257 0.929 . S
H1245 C1255 0.929 . S
H1246 C1250 0.929 . S
H1247 C1256 0.959 . S
C1248 H1242 0.930 1_545 S
C1248 C1249 1.367 . S
C1248 C1256 1.374 1_545 S
C1249 C1248 1.367 . S
C1249 C1257 1.433 . S
C1250 H1246 0.929 . S
C1250 C1252 1.378 . S
C1250 C1254 1.350 . S
C1251 C1254 1.463 . S
C1251 C1256 1.325 1_545 S
C1251 N1259 1.427 . S
C1252 H1243 0.930 . S
C1252 C1250 1.378 . S
C1252 C1253 1.367 . S
C1253 C1252 1.367 . S
C1253 C1255 1.433 1_545 S
C1254 C1250 1.350 . S
C1254 C1251 1.463 . S
C1254 N1258 1.427 1_545 S
C1255 H1245 0.929 . S
C1255 C1253 1.433 1_565 S
C1255 N1258 1.384 . S
C1256 H1247 0.959 . S
C1256 C1248 1.374 1_565 S
C1256 C1251 1.325 1_565 S
C1257 H1244 0.929 . S
C1257 C1249 1.433 . S
C1257 N1259 1.384 . S
N1258 C1254 1.427 1_565 S
N1258 C1255 1.384 . S
N1259 C1251 1.427 . S
N1259 C1257 1.384 . S
H1260 C1266 0.930 . S
H1261 C1270 0.930 . S
H1262 C1275 0.929 . S
H1263 C1273 0.929 . S
H1264 C1268 0.929 . S
H1265 C1274 0.929 . S
C1266 H1260 0.930 . S
C1266 C1267 1.367 . S
C1266 C1274 1.378 . S
C1267 C1266 1.367 . S
C1267 C1275 1.433 . S
C1268 H1264 0.929 . S
C1268 C1270 1.378 . S
C1268 C1272 1.350 . S
C1269 C1272 1.463 . S
C1269 C1274 1.350 . S
C1269 N1277 1.427 . S
C1270 H1261 0.930 . S
C1270 C1268 1.378 . S
C1270 C1271 1.367 . S
C1271 C1270 1.367 . S
C1271 C1273 1.433 . S
C1272 C1268 1.350 . S
C1272 C1269 1.463 . S
C1272 N1276 1.427 . S
C1273 H1263 0.929 . S
C1273 C1271 1.433 . S
C1273 N1276 1.384 . S
C1274 H1265 0.929 . S
C1274 C1266 1.378 . S
C1274 C1269 1.350 . S
C1275 H1262 0.929 . S
C1275 C1267 1.433 . S
C1275 N1277 1.384 . S
N1276 C1272 1.427 . S
N1276 C1273 1.384 . S
N1277 C1269 1.427 . S
N1277 C1275 1.384 . S
H1278 C1284 0.930 . S
H1279 C1288 0.930 . S
H1280 C1293 0.929 . S
H1281 C1291 0.929 . S
H1282 C1286 0.929 . S
H1283 C1292 0.929 . S
C1284 H1278 0.930 . S
C1284 C1285 1.367 . S
C1284 C1292 1.378 . S
C1285 C1284 1.367 . S
C1285 C1293 1.433 . S
C1286 H1282 0.929 . S
C1286 C1288 1.378 . S
C1286 C1290 1.350 . S
C1287 C1290 1.463 . S
C1287 C1292 1.350 . S
C1287 N1295 1.427 . S
C1288 H1279 0.930 . S
C1288 C1286 1.378 . S
C1288 C1289 1.367 . S
C1289 C1288 1.367 . S
C1289 C1291 1.433 . S
C1290 C1286 1.350 . S
C1290 C1287 1.463 . S
C1290 N1294 1.427 . S
C1291 H1281 0.929 . S
C1291 C1289 1.433 . S
C1291 N1294 1.384 . S
C1292 H1283 0.929 . S
C1292 C1284 1.378 . S
C1292 C1287 1.350 . S
C1293 H1280 0.929 . S
C1293 C1285 1.433 . S
C1293 N1295 1.384 . S
N1294 C1290 1.427 . S
N1294 C1291 1.384 . S
N1295 C1287 1.427 . S
N1295 C1293 1.384 . S
H1296 C1302 0.930 . S
H1297 C1306 0.930 . S
H1298 C1311 0.929 . S
H1299 C1309 0.929 . S
H1300 C1304 0.929 . S
H1301 C1310 0.929 . S
C1302 H1296 0.930 . S
C1302 C1303 1.367 . S
C1302 C1310 1.378 . S
C1303 C1302 1.367 . S
C1303 C1311 1.433 . S
C1304 H1300 0.929 . S
C1304 C1306 1.378 . S
C1304 C1308 1.350 . S
C1305 C1308 1.463 . S
C1305 C1310 1.350 . S
C1305 N1313 1.427 . S
C1306 H1297 0.930 . S
C1306 C1304 1.378 . S
C1306 C1307 1.367 . S
C1307 C1306 1.367 . S
C1307 C1309 1.433 . S
C1308 C1304 1.350 . S
C1308 C1305 1.463 . S
C1308 N1312 1.427 . S
C1309 H1299 0.929 . S
C1309 C1307 1.433 . S
C1309 N1312 1.384 . S
C1310 H1301 0.929 . S
C1310 C1302 1.378 . S
C1310 C1305 1.350 . S
C1311 H1298 0.929 . S
C1311 C1303 1.433 . S
C1311 N1313 1.384 . S
N1312 C1308 1.427 . S
N1312 C1309 1.384 . S
N1313 C1305 1.427 . S
N1313 C1311 1.384 . S
H1314 C1320 0.930 . S
H1315 C1324 0.930 . S
H1316 C1329 0.929 . S
H1317 C1327 0.929 . S
H1318 C1322 0.929 . S
H1319 C1328 0.929 . S
C1320 H1314 0.930 . S
C1320 C1321 1.367 . S
C1320 C1328 1.378 . S
C1321 C1320 1.367 . S
C1321 C1329 1.433 . S
C1322 H1318 0.929 . S
C1322 C1324 1.378 . S
C1322 C1326 1.350 . S
C1323 C1326 1.463 . S
C1323 C1328 1.350 . S
C1323 N1331 1.427 . S
C1324 H1315 0.930 . S
C1324 C1322 1.378 . S
C1324 C1325 1.367 . S
C1325 C1324 1.367 . S
C1325 C1327 1.433 . S
C1326 C1322 1.350 . S
C1326 C1323 1.463 . S
C1326 N1330 1.427 . S
C1327 H1317 0.929 . S
C1327 C1325 1.433 . S
C1327 N1330 1.384 . S
C1328 H1319 0.929 . S
C1328 C1320 1.378 . S
C1328 C1323 1.350 . S
C1329 H1316 0.929 . S
C1329 C1321 1.433 . S
C1329 N1331 1.384 . S
N1330 C1326 1.427 . S
N1330 C1327 1.384 . S
N1331 C1323 1.427 . S
N1331 C1329 1.384 . S
H1332 C1338 0.930 . S
H1333 C1342 0.930 . S
H1334 C1347 0.929 . S
H1335 C1345 0.929 . S
H1336 C1340 0.929 . S
H1337 C1346 0.929 . S
C1338 H1332 0.930 . S
C1338 C1339 1.367 . S
C1338 C1346 1.378 . S
C1339 C1338 1.367 . S
C1339 C1347 1.433 . S
C1340 H1336 0.929 . S
C1340 C1342 1.378 . S
C1340 C1344 1.350 . S
C1341 C1344 1.463 . S
C1341 C1346 1.350 . S
C1341 N1349 1.427 . S
C1342 H1333 0.930 . S
C1342 C1340 1.378 . S
C1342 C1343 1.367 . S
C1343 C1342 1.367 . S
C1343 C1345 1.433 . S
C1344 C1340 1.350 . S
C1344 C1341 1.463 . S
C1344 N1348 1.427 . S
C1345 H1335 0.929 . S
C1345 C1343 1.433 . S
C1345 N1348 1.384 . S
C1346 H1337 0.929 . S
C1346 C1338 1.378 . S
C1346 C1341 1.350 . S
C1347 H1334 0.929 . S
C1347 C1339 1.433 . S
C1347 N1349 1.384 . S
N1348 C1344 1.427 . S
N1348 C1345 1.384 . S
N1349 C1341 1.427 . S
N1349 C1347 1.384 . S
H1350 C1356 0.930 . S
H1351 C1360 0.930 . S
H1352 C1365 0.929 . S
H1353 C1363 0.929 . S
H1354 C1358 0.929 . S
H1355 C1364 0.929 . S
C1356 H1350 0.930 . S
C1356 C1357 1.367 . S
C1356 C1364 1.378 . S
C1357 C1356 1.367 . S
C1357 C1365 1.433 . S
C1358 H1354 0.929 . S
C1358 C1360 1.378 . S
C1358 C1362 1.350 . S
C1359 C1362 1.463 . S
C1359 C1364 1.350 . S
C1359 N1367 1.427 . S
C1360 H1351 0.930 . S
C1360 C1358 1.378 . S
C1360 C1361 1.367 . S
C1361 C1360 1.367 . S
C1361 C1363 1.433 . S
C1362 C1358 1.350 . S
C1362 C1359 1.463 . S
C1362 N1366 1.427 . S
C1363 H1353 0.929 . S
C1363 C1361 1.433 . S
C1363 N1366 1.384 . S
C1364 H1355 0.929 . S
C1364 C1356 1.378 . S
C1364 C1359 1.350 . S
C1365 H1352 0.929 . S
C1365 C1357 1.433 . S
C1365 N1367 1.384 . S
N1366 C1362 1.427 . S
N1366 C1363 1.384 . S
N1367 C1359 1.427 . S
N1367 C1365 1.384 . S
H1368 C1374 0.930 . S
H1369 C1378 0.930 . S
H1370 C1383 0.929 . S
H1371 C1381 0.929 . S
H1372 C1376 0.929 . S
H1373 C1382 0.929 . S
C1374 H1368 0.930 . S
C1374 C1375 1.367 . S
C1374 C1382 1.378 . S
C1375 C1374 1.367 . S
C1375 C1383 1.433 . S
C1376 H1372 0.929 . S
C1376 C1378 1.378 . S
C1376 C1380 1.350 . S
C1377 C1380 1.463 . S
C1377 C1382 1.350 . S
C1377 N1385 1.427 . S
C1378 H1369 0.930 . S
C1378 C1376 1.378 . S
C1378 C1379 1.367 . S
C1379 C1378 1.367 . S
C1379 C1381 1.433 . S
C1380 C1376 1.350 . S
C1380 C1377 1.463 . S
C1380 N1384 1.427 . S
C1381 H1371 0.929 . S
C1381 C1379 1.433 . S
C1381 N1384 1.384 . S
C1382 H1373 0.929 . S
C1382 C1374 1.378 . S
C1382 C1377 1.350 . S
C1383 H1370 0.929 . S
C1383 C1375 1.433 . S
C1383 N1385 1.384 . S
N1384 C1380 1.427 . S
N1384 C1381 1.384 . S
N1385 C1377 1.427 . S
N1385 C1383 1.384 . S
H1386 C1392 0.930 . S
H1387 C1396 0.930 . S
H1388 C1401 0.929 . S
H1389 C1399 0.929 . S
H1390 C1394 0.929 . S
H1391 C1400 0.929 . S
C1392 H1386 0.930 . S
C1392 C1393 1.367 1_455 S
C1392 C1400 1.378 . S
C1393 C1392 1.367 1_655 S
C1393 C1401 1.433 . S
C1394 H1390 0.929 . S
C1394 C1396 1.378 . S
C1394 C1398 1.350 1_655 S
C1395 C1398 1.464 . S
C1395 C1400 1.355 . S
C1395 N1403 1.420 1_455 S
C1396 H1387 0.930 . S
C1396 C1394 1.378 . S
C1396 C1397 1.367 1_655 S
C1397 C1396 1.367 1_455 S
C1397 C1399 1.433 . S
C1398 C1394 1.350 1_455 S
C1398 C1395 1.464 . S
C1398 N1402 1.427 . S
C1399 H1389 0.929 . S
C1399 C1397 1.433 . S
C1399 N1402 1.384 . S
C1400 H1391 0.929 . S
C1400 C1392 1.378 . S
C1400 C1395 1.355 . S
C1401 H1388 0.929 . S
C1401 C1393 1.433 . S
C1401 N1403 1.384 . S
N1402 C1398 1.427 . S
N1402 C1399 1.384 . S
N1403 C1395 1.420 1_655 S
N1403 C1401 1.384 . S
H1404 C1410 0.930 . S
H1405 C1414 0.930 . S
H1406 C1419 0.929 . S
H1407 C1417 0.929 . S
H1408 C1412 0.929 . S
H1409 C1418 0.929 . S
C1410 H1404 0.930 . S
C1410 C1411 1.367 . S
C1410 C1418 1.378 . S
C1411 C1410 1.367 . S
C1411 C1419 1.433 . S
C1412 H1408 0.929 . S
C1412 C1414 1.378 . S
C1412 C1416 1.350 . S
C1413 C1416 1.463 . S
C1413 C1418 1.350 . S
C1413 N1421 1.427 . S
C1414 H1405 0.930 . S
C1414 C1412 1.378 . S
C1414 C1415 1.367 . S
C1415 C1414 1.367 . S
C1415 C1417 1.433 . S
C1416 C1412 1.350 . S
C1416 C1413 1.463 . S
C1416 N1420 1.427 . S
C1417 H1407 0.929 . S
C1417 C1415 1.433 . S
C1417 N1420 1.384 . S
C1418 H1409 0.929 . S
C1418 C1410 1.378 . S
C1418 C1413 1.350 . S
C1419 H1406 0.929 . S
C1419 C1411 1.433 . S
C1419 N1421 1.384 . S
N1420 C1416 1.427 . S
N1420 C1417 1.384 . S
N1421 C1413 1.427 . S
N1421 C1419 1.384 . S
H1422 C1428 0.930 1_655 S
H1423 C1432 0.930 . S
H1424 C1437 0.929 . S
H1425 C1435 0.929 1_655 S
H1426 C1430 0.929 . S
H1427 C1436 0.929 1_655 S
C1428 H1422 0.930 1_455 S
C1428 C1429 1.367 . S
C1428 C1436 1.378 . S
C1429 C1428 1.367 . S
C1429 C1437 1.433 . S
C1430 H1426 0.929 . S
C1430 C1432 1.378 . S
C1430 C1434 1.350 . S
C1431 C1434 1.463 . S
C1431 C1436 1.350 . S
C1431 N1439 1.427 . S
C1432 H1423 0.930 . S
C1432 C1430 1.378 . S
C1432 C1433 1.367 . S
C1433 C1432 1.367 . S
C1433 C1435 1.433 . S
C1434 C1430 1.350 . S
C1434 C1431 1.463 . S
C1434 N1438 1.427 . S
C1435 H1425 0.929 1_455 S
C1435 C1433 1.433 . S
C1435 N1438 1.384 . S
C1436 H1427 0.929 1_455 S
C1436 C1428 1.378 . S
C1436 C1431 1.350 . S
C1437 H1424 0.929 . S
C1437 C1429 1.433 . S
C1437 N1439 1.384 . S
N1438 C1434 1.427 . S
N1438 C1435 1.384 . S
N1439 C1431 1.427 . S
N1439 C1437 1.384 . S
H1440 C1446 0.930 . S
H1441 C1450 0.930 . S
H1442 C1455 0.929 . S
H1443 C1453 0.929 . S
H1444 C1448 0.929 . S
H1445 C1454 0.929 . S
C1446 H1440 0.930 . S
C1446 C1447 1.367 . S
C1446 C1454 1.378 . S
C1447 C1446 1.367 . S
C1447 C1455 1.433 . S
C1448 H1444 0.929 . S
C1448 C1450 1.378 . S
C1448 C1452 1.350 . S
C1449 C1452 1.463 . S
C1449 C1454 1.350 . S
C1449 N1457 1.427 . S
C1450 H1441 0.930 . S
C1450 C1448 1.378 . S
C1450 C1451 1.367 . S
C1451 C1450 1.367 . S
C1451 C1453 1.433 . S
C1452 C1448 1.350 . S
C1452 C1449 1.463 . S
C1452 N1456 1.427 . S
C1453 H1443 0.929 . S
C1453 C1451 1.433 . S
C1453 N1456 1.384 . S
C1454 H1445 0.929 . S
C1454 C1446 1.378 . S
C1454 C1449 1.350 . S
C1455 H1442 0.929 . S
C1455 C1447 1.433 . S
C1455 N1457 1.384 . S
N1456 C1452 1.427 . S
N1456 C1453 1.384 . S
N1457 C1449 1.427 . S
N1457 C1455 1.384 . S
H1458 C1464 0.930 . S
H1459 C1468 0.930 . S
H1460 C1473 0.929 . S
H1461 C1471 0.929 . S
H1462 C1466 0.929 . S
H1463 C1472 0.929 . S
C1464 H1458 0.930 . S
C1464 C1465 1.367 . S
C1464 C1472 1.378 . S
C1465 C1464 1.367 . S
C1465 C1473 1.433 . S
C1466 H1462 0.929 . S
C1466 C1468 1.378 . S
C1466 C1470 1.350 . S
C1467 C1470 1.463 . S
C1467 C1472 1.350 . S
C1467 N1475 1.427 . S
C1468 H1459 0.930 . S
C1468 C1466 1.378 . S
C1468 C1469 1.367 . S
C1469 C1468 1.367 . S
C1469 C1471 1.433 . S
C1470 C1466 1.350 . S
C1470 C1467 1.463 . S
C1470 N1474 1.427 . S
C1471 H1461 0.929 . S
C1471 C1469 1.433 . S
C1471 N1474 1.384 . S
C1472 H1463 0.929 . S
C1472 C1464 1.378 . S
C1472 C1467 1.350 . S
C1473 H1460 0.929 . S
C1473 C1465 1.433 . S
C1473 N1475 1.384 . S
N1474 C1470 1.427 . S
N1474 C1471 1.384 . S
N1475 C1467 1.427 . S
N1475 C1473 1.384 . S
H1476 C1482 0.930 . S
H1477 C1486 0.930 . S
H1478 C1491 0.929 . S
H1479 C1489 0.929 . S
H1480 C1484 0.929 . S
H1481 C1490 0.929 . S
C1482 H1476 0.930 . S
C1482 C1483 1.367 . S
C1482 C1490 1.378 . S
C1483 C1482 1.367 . S
C1483 C1491 1.433 . S
C1484 H1480 0.929 . S
C1484 C1486 1.378 . S
C1484 C1488 1.350 . S
C1485 C1488 1.463 . S
C1485 C1490 1.350 . S
C1485 N1493 1.427 . S
C1486 H1477 0.930 . S
C1486 C1484 1.378 . S
C1486 C1487 1.367 . S
C1487 C1486 1.367 . S
C1487 C1489 1.433 . S
C1488 C1484 1.350 . S
C1488 C1485 1.463 . S
C1488 N1492 1.427 . S
C1489 H1479 0.929 . S
C1489 C1487 1.433 . S
C1489 N1492 1.384 . S
C1490 H1481 0.929 . S
C1490 C1482 1.378 . S
C1490 C1485 1.350 . S
C1491 H1478 0.929 . S
C1491 C1483 1.433 . S
C1491 N1493 1.384 . S
N1492 C1488 1.427 . S
N1492 C1489 1.384 . S
N1493 C1485 1.427 . S
N1493 C1491 1.384 . S
H1494 C1500 0.930 . S
H1495 C1504 0.930 . S
H1496 C1509 0.929 . S
H1497 C1507 0.929 . S
H1498 C1502 0.929 . S
H1499 C1508 0.929 . S
C1500 H1494 0.930 . S
C1500 C1501 1.367 . S
C1500 C1508 1.378 . S
C1501 C1500 1.367 . S
C1501 C1509 1.433 . S
C1502 H1498 0.929 . S
C1502 C1504 1.378 . S
C1502 C1506 1.350 . S
C1503 C1506 1.463 . S
C1503 C1508 1.350 . S
C1503 N1511 1.427 . S
C1504 H1495 0.930 . S
C1504 C1502 1.378 . S
C1504 C1505 1.367 . S
C1505 C1504 1.367 . S
C1505 C1507 1.433 . S
C1506 C1502 1.350 . S
C1506 C1503 1.463 . S
C1506 N1510 1.427 . S
C1507 H1497 0.929 . S
C1507 C1505 1.433 . S
C1507 N1510 1.384 . S
C1508 H1499 0.929 . S
C1508 C1500 1.378 . S
C1508 C1503 1.350 . S
C1509 H1496 0.929 . S
C1509 C1501 1.433 . S
C1509 N1511 1.384 . S
N1510 C1506 1.427 . S
N1510 C1507 1.384 . S
N1511 C1503 1.427 . S
N1511 C1509 1.384 . S
H1512 C1518 0.930 . S
H1513 C1522 0.930 . S
H1514 C1527 0.929 . S
H1515 C1525 0.929 . S
H1516 C1520 0.929 . S
H1517 C1526 0.929 . S
C1518 H1512 0.930 . S
C1518 C1519 1.367 . S
C1518 C1526 1.378 . S
C1519 C1518 1.367 . S
C1519 C1527 1.433 . S
C1520 H1516 0.929 . S
C1520 C1522 1.378 . S
C1520 C1524 1.350 . S
C1521 C1524 1.463 . S
C1521 C1526 1.350 . S
C1521 N1529 1.427 . S
C1522 H1513 0.930 . S
C1522 C1520 1.378 . S
C1522 C1523 1.367 . S
C1523 C1522 1.367 . S
C1523 C1525 1.433 . S
C1524 C1520 1.350 . S
C1524 C1521 1.463 . S
C1524 N1528 1.427 . S
C1525 H1515 0.929 . S
C1525 C1523 1.433 . S
C1525 N1528 1.384 . S
C1526 H1517 0.929 . S
C1526 C1518 1.378 . S
C1526 C1521 1.350 . S
C1527 H1514 0.929 . S
C1527 C1519 1.433 . S
C1527 N1529 1.384 . S
N1528 C1524 1.427 . S
N1528 C1525 1.384 . S
N1529 C1521 1.427 . S
N1529 C1527 1.384 . S
H1530 C1536 0.930 . S
H1531 C1540 0.930 . S
H1532 C1545 0.929 . S
H1533 C1543 0.929 . S
H1534 C1538 0.929 . S
H1535 C1544 0.929 . S
C1536 H1530 0.930 . S
C1536 C1537 1.367 . S
C1536 C1544 1.378 . S
C1537 C1536 1.367 . S
C1537 C1545 1.433 . S
C1538 H1534 0.929 . S
C1538 C1540 1.378 . S
C1538 C1542 1.350 . S
C1539 C1542 1.463 . S
C1539 C1544 1.350 . S
C1539 N1547 1.427 . S
C1540 H1531 0.930 . S
C1540 C1538 1.378 . S
C1540 C1541 1.367 . S
C1541 C1540 1.367 . S
C1541 C1543 1.433 . S
C1542 C1538 1.350 . S
C1542 C1539 1.463 . S
C1542 N1546 1.427 . S
C1543 H1533 0.929 . S
C1543 C1541 1.433 . S
C1543 N1546 1.384 . S
C1544 H1535 0.929 . S
C1544 C1536 1.378 . S
C1544 C1539 1.350 . S
C1545 H1532 0.929 . S
C1545 C1537 1.433 . S
C1545 N1547 1.384 . S
N1546 C1542 1.427 . S
N1546 C1543 1.384 . S
N1547 C1539 1.427 . S
N1547 C1545 1.384 . S
H1548 C1554 0.930 . S
H1549 C1558 0.930 . S
H1550 C1563 0.929 . S
H1551 C1561 0.929 . S
H1552 C1556 0.929 . S
H1553 C1562 0.929 . S
C1554 H1548 0.930 . S
C1554 C1555 1.367 . S
C1554 C1562 1.378 . S
C1555 C1554 1.367 . S
C1555 C1563 1.433 . S
C1556 H1552 0.929 . S
C1556 C1558 1.378 . S
C1556 C1560 1.350 . S
C1557 C1560 1.463 . S
C1557 C1562 1.350 . S
C1557 N1565 1.427 . S
C1558 H1549 0.930 . S
C1558 C1556 1.378 . S
C1558 C1559 1.367 . S
C1559 C1558 1.367 . S
C1559 C1561 1.433 . S
C1560 C1556 1.350 . S
C1560 C1557 1.463 . S
C1560 N1564 1.427 . S
C1561 H1551 0.929 . S
C1561 C1559 1.433 . S
C1561 N1564 1.384 . S
C1562 H1553 0.929 . S
C1562 C1554 1.378 . S
C1562 C1557 1.350 . S
C1563 H1550 0.929 . S
C1563 C1555 1.433 . S
C1563 N1565 1.384 . S
N1564 C1560 1.427 . S
N1564 C1561 1.384 . S
N1565 C1557 1.427 . S
N1565 C1563 1.384 . S
H1566 C1572 0.930 . S
H1567 C1576 0.930 . S
H1568 C1581 0.929 . S
H1569 C1579 0.929 . S
H1570 C1574 0.929 . S
H1571 C1580 0.929 . S
C1572 H1566 0.930 . S
C1572 C1573 1.367 . S
C1572 C1580 1.378 . S
C1573 C1572 1.367 . S
C1573 C1581 1.433 . S
C1574 H1570 0.929 . S
C1574 C1576 1.378 . S
C1574 C1578 1.350 . S
C1575 C1578 1.463 . S
C1575 C1580 1.350 . S
C1575 N1583 1.427 . S
C1576 H1567 0.930 . S
C1576 C1574 1.378 . S
C1576 C1577 1.367 . S
C1577 C1576 1.367 . S
C1577 C1579 1.433 . S
C1578 C1574 1.350 . S
C1578 C1575 1.463 . S
C1578 N1582 1.427 . S
C1579 H1569 0.929 . S
C1579 C1577 1.433 . S
C1579 N1582 1.384 . S
C1580 H1571 0.929 . S
C1580 C1572 1.378 . S
C1580 C1575 1.350 . S
C1581 H1568 0.929 . S
C1581 C1573 1.433 . S
C1581 N1583 1.384 . S
N1582 C1578 1.427 . S
N1582 C1579 1.384 . S
N1583 C1575 1.427 . S
N1583 C1581 1.384 . S
H1584 C1590 0.930 1_554 S
H1585 C1594 0.930 . S
H1586 C1599 0.929 . S
H1587 C1597 0.929 . S
H1588 C1592 0.929 . S
H1589 C1598 0.929 . S
C1590 H1584 0.930 1_556 S
C1590 C1591 1.367 . S
C1590 C1598 1.378 1_556 S
C1591 C1590 1.367 . S
C1591 C1599 1.433 . S
C1592 H1588 0.929 . S
C1592 C1594 1.378 . S
C1592 C1596 1.350 . S
C1593 C1596 1.463 . S
C1593 C1598 1.350 1_556 S
C1593 N1601 1.427 . S
C1594 H1585 0.930 . S
C1594 C1592 1.378 . S
C1594 C1595 1.367 . S
C1595 C1594 1.367 . S
C1595 C1597 1.433 1_556 S
C1596 C1592 1.350 . S
C1596 C1593 1.463 . S
C1596 N1600 1.427 1_556 S
C1597 H1587 0.929 . S
C1597 C1595 1.433 1_554 S
C1597 N1600 1.384 . S
C1598 H1589 0.929 . S
C1598 C1590 1.378 1_554 S
C1598 C1593 1.350 1_554 S
C1599 H1586 0.929 . S
C1599 C1591 1.433 . S
C1599 N1601 1.384 . S
N1600 C1596 1.427 1_554 S
N1600 C1597 1.384 . S
N1601 C1593 1.427 . S
N1601 C1599 1.384 . S
H1602 C1608 0.930 . S
H1603 C1612 0.930 . S
H1604 C1617 0.929 . S
H1605 C1615 0.929 . S
H1606 C1610 0.929 . S
H1607 C1616 0.929 . S
C1608 H1602 0.930 . S
C1608 C1609 1.367 . S
C1608 C1616 1.378 . S
C1609 C1608 1.367 . S
C1609 C1617 1.433 . S
C1610 H1606 0.929 . S
C1610 C1612 1.378 . S
C1610 C1614 1.350 . S
C1611 C1614 1.463 . S
C1611 C1616 1.350 . S
C1611 N1619 1.427 . S
C1612 H1603 0.930 . S
C1612 C1610 1.378 . S
C1612 C1613 1.367 . S
C1613 C1612 1.367 . S
C1613 C1615 1.433 . S
C1614 C1610 1.350 . S
C1614 C1611 1.463 . S
C1614 N1618 1.427 . S
C1615 H1605 0.929 . S
C1615 C1613 1.433 . S
C1615 N1618 1.384 . S
C1616 H1607 0.929 . S
C1616 C1608 1.378 . S
C1616 C1611 1.350 . S
C1617 H1604 0.929 . S
C1617 C1609 1.433 . S
C1617 N1619 1.384 . S
N1618 C1614 1.427 . S
N1618 C1615 1.384 . S
N1619 C1611 1.427 . S
N1619 C1617 1.384 . S
H1620 C1626 0.930 . S
H1621 C1630 0.930 . S
H1622 C1635 0.929 . S
H1623 C1633 0.929 . S
H1624 C1628 0.929 . S
H1625 C1634 0.929 . S
C1626 H1620 0.930 . S
C1626 C1627 1.367 . S
C1626 C1634 1.378 . S
C1627 C1626 1.367 . S
C1627 C1635 1.433 . S
C1628 H1624 0.929 . S
C1628 C1630 1.378 . S
C1628 C1632 1.350 . S
C1629 C1632 1.463 . S
C1629 C1634 1.350 . S
C1629 N1637 1.427 . S
C1630 H1621 0.930 . S
C1630 C1628 1.378 . S
C1630 C1631 1.367 . S
C1631 C1630 1.367 . S
C1631 C1633 1.433 . S
C1632 C1628 1.350 . S
C1632 C1629 1.463 . S
C1632 N1636 1.427 . S
C1633 H1623 0.929 . S
C1633 C1631 1.433 . S
C1633 N1636 1.384 . S
C1634 H1625 0.929 . S
C1634 C1626 1.378 . S
C1634 C1629 1.350 . S
C1635 H1622 0.929 . S
C1635 C1627 1.433 . S
C1635 N1637 1.384 . S
N1636 C1632 1.427 . S
N1636 C1633 1.384 . S
N1637 C1629 1.427 . S
N1637 C1635 1.384 . S
H1638 C1644 0.930 . S
H1639 C1648 0.930 . S
H1640 C1653 0.929 . S
H1641 C1651 0.929 1_556 S
H1642 C1646 0.929 . S
H1643 C1652 0.912 1_556 S
C1644 H1638 0.930 . S
C1644 C1645 1.367 . S
C1644 C1652 1.378 . S
C1645 C1644 1.367 . S
C1645 C1653 1.433 . S
C1646 H1642 0.929 . S
C1646 C1648 1.378 . S
C1646 C1650 1.350 . S
C1647 C1650 1.463 . S
C1647 C1652 1.350 . S
C1647 N1655 1.427 . S
C1648 H1639 0.930 . S
C1648 C1646 1.378 . S
C1648 C1649 1.367 . S
C1649 C1648 1.367 . S
C1649 C1651 1.433 . S
C1650 C1646 1.350 . S
C1650 C1647 1.463 . S
C1650 N1654 1.427 . S
C1651 H1641 0.929 1_554 S
C1651 C1649 1.433 . S
C1651 N1654 1.384 . S
C1652 H1643 0.912 1_554 S
C1652 C1644 1.378 . S
C1652 C1647 1.350 . S
C1653 H1640 0.929 . S
C1653 C1645 1.433 . S
C1653 N1655 1.384 . S
N1654 C1650 1.427 . S
N1654 C1651 1.384 . S
N1655 C1647 1.427 . S
N1655 C1653 1.384 . S
C803 C635 1.441 . S
C799 C211 1.460 . S
C821 C643 1.292 . S
C817 C255 1.539 . S
C835 C274 1.440 . S
C839 C663 1.415 . S
C857 C677 1.504 . S
C853 C157 1.528 . S
C875 C692 1.535 . S
C871 C391 1.537 . S
C893 C706 1.516 . S
C889 C484 1.514 . S
C907 C450 1.562 . S
C911 C720 1.563 . S
C929 C726 1.440 . S
C925 C352 1.485 . S
C943 C430 1.521 . S
C947 C740 1.485 . S
C965 C761 1.542 . S
C961 C367 1.564 . S
C979 C411 1.481 . S
C983 C741 1.241 . S
C1001 C762 1.537 . S
C997 C469 1.535 . S
C1015 C294 1.475 . S
C1019 C769 1.218 . S
C1033 C177 1.515 . S
C1037 C775 1.493 . S
C1051 C196 1.506 . S
C1055 C768 1.458 . S
C1069 C235 1.478 . S
C1073 C776 1.479 . S
C1087 C133 1.501 . S
C1091 C670 1.459 . S
C1105 C567 1.489 . S
C1109 C671 1.236 . S
C1127 C628 1.515 . S
C1123 C601 1.558 . S
C1145 C649 1.439 . S
C1141 C328 1.464 . S
C1159 C172 1.490 . S
C1163 C684 1.451 . S
C1181 C734 1.530 . S
C1177 C445 1.530 . S
C1199 C685 1.229 . S
C1195 C372 1.465 . S
C1217 C713 1.279 . S
C1213 C489 1.547 . S
C1235 C719 1.443 . S
C1231 C562 1.459 . S
C1249 C606 1.538 . S
C1253 C727 1.270 . S
C1267 C313 1.436 . S
C1271 C691 1.415 . S
C1289 C705 1.501 . S
C1285 C508 1.526 . S
C1303 C118 1.536 . S
C1307 C664 1.535 . S
C1325 C678 1.517 . S
C1321 C16 1.513 . S
C1343 C636 1.562 . S
C1339 C60 1.562 . S
C1361 C642 1.444 . S
C1357 C79 1.486 . S
C1375 C40 1.520 . S
C1379 C754 1.484 . S
C1393 C94 1.564 . S
C1397 C747 1.537 . S
C1411 C138 1.484 . S
C1415 C755 1.257 . S
C1429 C1 1.537 . S
C1433 C748 1.538 . S
C1451 C783 1.229 . S
C1447 C333 1.479 . S
C1469 C789 1.492 . S
C1465 C528 1.515 . S
C1487 C782 1.471 . S
C1483 C547 1.509 . S
C1501 C586 1.475 . S
C1505 C790 1.478 . S
C1519 C406 1.501 . S
C1523 C698 1.464 . S
C1541 C699 1.237 . S
C1537 C216 1.489 . S
C1559 C712 1.507 . S
C1555 C250 1.558 . S
C1577 C733 1.444 . S
C1573 C289 1.466 . S
C1591 C523 1.489 . S
C1595 C656 1.444 1_556 S
C1613 C650 1.530 . S
C1609 C55 1.529 . S
C1627 C99 1.467 . S
C1631 C657 1.245 . S
C1649 C629 1.255 . S
C1645 C21 1.548 . S
