# Generated by pormake.
# Topology llj, (12,3)-cn, num edge types: 1
# Building blocks:
#     Node 0, Type 0, BuildingBlock: QEWDON_clean_sbu_0, # of connection points: 12
#     Node 1, Type 0, BuildingBlock: QEWDON_clean_sbu_0, # of connection points: 12
#     Node 2, Type 1, BuildingBlock: BETDAH_clean_linker_0, # of connection points: 3
#     Node 3, Type 1, BuildingBlock: BETDAH_clean_linker_0, # of connection points: 3
#     Node 4, Type 1, BuildingBlock: BETDAH_clean_linker_0, # of connection points: 3
#     Node 5, Type 1, BuildingBlock: BETDAH_clean_linker_0, # of connection points: 3
#     Node 6, Type 1, BuildingBlock: BETDAH_clean_linker_0, # of connection points: 3
#     Node 7, Type 1, BuildingBlock: BETDAH_clean_linker_0, # of connection points: 3
#     Node 8, Type 1, BuildingBlock: BETDAH_clean_linker_0, # of connection points: 3
#     Node 9, Type 1, BuildingBlock: BETDAH_clean_linker_0, # of connection points: 3
#     Edge 10, Type (0, 1), BuildingBlock: TEMPAE_clean_linker_10, # of connection points: 2
#     Edge 11, Type (0, 1), BuildingBlock: TEMPAE_clean_linker_10, # of connection points: 2
#     Edge 12, Type (0, 1), BuildingBlock: TEMPAE_clean_linker_10, # of connection points: 2
#     Edge 13, Type (0, 1), BuildingBlock: TEMPAE_clean_linker_10, # of connection points: 2
#     Edge 14, Type (0, 1), BuildingBlock: TEMPAE_clean_linker_10, # of connection points: 2
#     Edge 15, Type (0, 1), BuildingBlock: TEMPAE_clean_linker_10, # of connection points: 2
#     Edge 16, Type (0, 1), BuildingBlock: TEMPAE_clean_linker_10, # of connection points: 2
#     Edge 17, Type (0, 1), BuildingBlock: TEMPAE_clean_linker_10, # of connection points: 2
#     Edge 18, Type (0, 1), BuildingBlock: TEMPAE_clean_linker_10, # of connection points: 2
#     Edge 19, Type (0, 1), BuildingBlock: TEMPAE_clean_linker_10, # of connection points: 2
#     Edge 20, Type (0, 1), BuildingBlock: TEMPAE_clean_linker_10, # of connection points: 2
#     Edge 21, Type (0, 1), BuildingBlock: TEMPAE_clean_linker_10, # of connection points: 2
#     Edge 22, Type (0, 1), BuildingBlock: TEMPAE_clean_linker_10, # of connection points: 2
#     Edge 23, Type (0, 1), BuildingBlock: TEMPAE_clean_linker_10, # of connection points: 2
#     Edge 24, Type (0, 1), BuildingBlock: TEMPAE_clean_linker_10, # of connection points: 2
#     Edge 25, Type (0, 1), BuildingBlock: TEMPAE_clean_linker_10, # of connection points: 2
#     Edge 26, Type (0, 1), BuildingBlock: TEMPAE_clean_linker_10, # of connection points: 2
#     Edge 27, Type (0, 1), BuildingBlock: TEMPAE_clean_linker_10, # of connection points: 2
#     Edge 28, Type (0, 1), BuildingBlock: TEMPAE_clean_linker_10, # of connection points: 2
#     Edge 29, Type (0, 1), BuildingBlock: TEMPAE_clean_linker_10, # of connection points: 2
#     Edge 30, Type (0, 1), BuildingBlock: TEMPAE_clean_linker_10, # of connection points: 2
#     Edge 31, Type (0, 1), BuildingBlock: TEMPAE_clean_linker_10, # of connection points: 2
#     Edge 32, Type (0, 1), BuildingBlock: TEMPAE_clean_linker_10, # of connection points: 2
#     Edge 33, Type (0, 1), BuildingBlock: TEMPAE_clean_linker_10, # of connection points: 2
# Relax obj value: 0.009
# Max RMSD: 0.100
# Mean RMSD: 0.085
data_MOF--net-llj--node1-QEWDON_clean_sbu_0--node2-BETDAH_clean_linker_0--edge1-TEMPAE_clean_linker_10
_symmetry_space_group_name_H-M    P1
_symmetry_Int_Tables_number       1
_symmetry_cell_setting            triclinic
loop_
_symmetry_equiv_pos_as_xyz
'x, y, z'
_cell_length_a     39.767149
_cell_length_b     39.766895
_cell_length_c     24.722972
_cell_angle_alpha  91.284518
_cell_angle_beta   90.279008
_cell_angle_gamma 90.239251
loop_
_atom_site_label
_atom_site_type_symbol
_atom_site_fract_x
_atom_site_fract_y
_atom_site_fract_z
_atom_type_partial_charge
Zn0 Zn 0.94272 0.07097 0.99736 0.0
Zn1 Zn 0.95518 0.07485 0.12012 0.0
O2 O 0.98052 0.06911 0.05136 0.0
H3 H 0.99959 0.05474 0.04443 0.0
C4 C 0.87208 0.03803 0.94156 0.0
O5 O 0.85056 0.04259 0.9812 0.0
Zn6 Zn 0.04633 0.9258 0.12168 0.0
Zn7 Zn 0.0545 0.93326 0.00439 0.0
O8 O 0.01687 0.92423 0.05686 0.0
H9 H 0.99894 0.90814 0.05038 0.0
Zn10 Zn 0.89858 0.98717 0.01496 0.0
O11 O 0.94342 0.98448 0.05345 0.0
Zn12 Zn 0.93189 0.95642 0.11681 0.0
H13 H 0.96383 0.99704 0.04709 0.0
Zn14 Zn 0.10406 0.0147 0.00152 0.0
O15 O 0.06043 0.01543 0.04349 0.0
H16 H 0.0393 0.0045 0.03471 0.0
Zn17 Zn 0.07191 0.04563 0.10683 0.0
C18 C 0.13047 0.96144 0.92991 0.0
O19 O 0.15034 0.95717 0.9718 0.0
O20 O 0.90381 0.10021 0.02415 0.0
O21 O 0.91736 0.10892 0.1108 0.0
O22 O 0.09498 0.90335 0.02197 0.0
O23 O 0.08483 0.89306 0.10849 0.0
O24 O 0.87028 0.94385 0.02176 0.0
O25 O 0.89572 0.92166 0.0929 0.0
C26 C 0.01841 0.08131 0.17539 0.0
O27 O 0.13114 0.05899 0.009 0.0
O28 O 0.10704 0.08074 0.08281 0.0
O29 O 0.03653 0.93388 0.92591 0.0
C30 C 0.89846 0.1144 0.07 0.0
O31 O 0.96081 0.07923 0.92123 0.0
C32 C 0.98656 0.92217 0.18339 0.0
O33 O 0.89492 0.01604 0.94629 0.0
C34 C 0.10216 0.8883 0.06557 0.0
O35 O 0.10835 0.98439 0.93231 0.0
C36 C 0.92209 0.0178 0.17632 0.0
O37 O 0.98744 0.0887 0.18024 0.0
O38 O 0.02806 0.06694 0.13165 0.0
C39 C 0.87331 0.92027 0.0556 0.0
O40 O 0.01756 0.91446 0.18647 0.0
O41 O 0.97604 0.93565 0.14027 0.0
C42 C 0.08126 0.9859 0.16771 0.0
O43 O 0.9156 0.98655 0.1785 0.0
O44 O 0.93684 0.02882 0.13493 0.0
C45 C 0.12837 0.08264 0.0444 0.0
O46 O 0.08915 0.01692 0.16772 0.0
O47 O 0.06387 0.97348 0.12891 0.0
C48 C 0.00758 0.94712 0.92299 0.0
O49 O 0.99468 0.96088 0.96692 0.0
C50 C 0.97464 0.05451 0.89704 0.0
O51 O 0.97405 0.02496 0.91954 0.0
Zn52 Zn 0.45411 0.57727 0.40108 0.0
Zn53 Zn 0.44971 0.54861 0.5211 0.0
O54 O 0.47583 0.54477 0.45233 0.0
H55 H 0.49114 0.52682 0.44252 0.0
C56 C 0.36856 0.49908 0.34952 0.0
O57 O 0.3787 0.51431 0.39447 0.0
Zn58 Zn 0.54844 0.44494 0.5283 0.0
Zn59 Zn 0.52677 0.39263 0.43989 0.0
O60 O 0.52158 0.44193 0.46028 0.0
H61 H 0.51606 0.46022 0.43679 0.0
Zn62 Zn 0.38161 0.44353 0.41768 0.0
O63 O 0.42657 0.45668 0.4489 0.0
Zn64 Zn 0.42645 0.43143 0.51737 0.0
H65 H 0.44597 0.46465 0.42951 0.0
Zn66 Zn 0.59423 0.56605 0.38408 0.0
O67 O 0.57301 0.53639 0.43901 0.0
H68 H 0.56045 0.516 0.43127 0.0
Zn69 Zn 0.57226 0.56367 0.50728 0.0
C70 C 0.64052 0.5294 0.31451 0.0
O71 O 0.6593 0.53203 0.35829 0.0
O72 O 0.41158 0.60076 0.43064 0.0
O73 O 0.40949 0.58016 0.51365 0.0
O74 O 0.57245 0.37282 0.46463 0.0
O75 O 0.5884 0.4129 0.5239 0.0
O76 O 0.36468 0.39684 0.43991 0.0
O77 O 0.39955 0.38734 0.50873 0.0
C78 C 0.51143 0.57004 0.57389 0.0
O79 O 0.61726 0.60831 0.41627 0.0
O80 O 0.59768 0.6087 0.50051 0.0
O81 O 0.50192 0.3762 0.36965 0.0
C82 C 0.39746 0.59874 0.47673 0.0
O83 O 0.48053 0.59442 0.33433 0.0
C84 C 0.48775 0.42659 0.58464 0.0
O85 O 0.36642 0.46717 0.34814 0.0
C86 C 0.59397 0.38525 0.49811 0.0
O87 O 0.61166 0.54294 0.31441 0.0
C88 C 0.41492 0.49162 0.57484 0.0
O89 O 0.48031 0.56473 0.58162 0.0
O90 O 0.52319 0.56755 0.52634 0.0
C91 C 0.37555 0.37788 0.47704 0.0
O92 O 0.51894 0.4325 0.59132 0.0
O93 O 0.47542 0.42687 0.53712 0.0
C94 C 0.58595 0.50568 0.56784 0.0
O95 O 0.40614 0.46091 0.57533 0.0
O96 O 0.43326 0.50177 0.5365 0.0
C97 C 0.615 0.62215 0.46308 0.0
O98 O 0.59461 0.53631 0.56413 0.0
O99 O 0.56405 0.4934 0.53534 0.0
C100 C 0.47006 0.37894 0.36872 0.0
O101 O 0.45472 0.38998 0.41255 0.0
C102 C 0.51141 0.60224 0.33994 0.0
O103 O 0.52541 0.60001 0.38799 0.0
H104 H 0.39199 0.3776 0.9731 0.0
H105 H 0.30677 0.32206 0.03177 0.0
H106 H 0.31395 0.34479 0.86306 0.0
C107 C 0.36813 0.36498 0.96582 0.0
C108 C 0.35513 0.36297 0.91297 0.0
C109 C 0.35072 0.3507 0.0092 0.0
C110 C 0.32038 0.3332 -0.00122 0.0
C111 C 0.30706 0.33124 0.94593 0.0
C112 C 0.32422 0.34667 0.90373 0.0
N113 N 0.27626 0.31453 0.93345 0.0
C114 C 0.26111 0.29012 0.96472 0.0
H115 H 0.67061 0.42862 0.93971 0.0
H116 H 0.73254 0.35428 0.01357 0.0
H117 H 0.71604 0.35039 0.84173 0.0
C118 C 0.68665 0.40677 0.93549 0.0
C119 C 0.69151 0.39155 0.88433 0.0
C120 C 0.70193 0.39398 0.98191 0.0
C121 C 0.72094 0.36437 0.97771 0.0
C122 C 0.72548 0.34845 0.92688 0.0
C123 C 0.7112 0.36237 0.88068 0.0
N124 N 0.74456 0.31866 0.92004 0.0
C125 C 0.7606 0.30186 0.96136 0.0
H126 H 0.60552 0.62143 0.96464 0.0
H127 H 0.67985 0.66394 0.86043 0.0
H128 H 0.68343 0.68558 0.03178 0.0
C129 C 0.62782 0.63678 0.9592 0.0
C130 C 0.64323 0.65253 0.00434 0.0
C131 C 0.64066 0.64094 0.90711 0.0
C132 C 0.6697 0.66049 0.90056 0.0
C133 C 0.68511 0.67693 0.94491 0.0
C134 C 0.67162 0.67322 0.99707 0.0
N135 N 0.71419 0.69658 0.93473 0.0
C136 C 0.72967 0.71927 0.9706 0.0
H137 H 0.36209 0.58729 0.96415 0.0
H138 H 0.31237 0.65744 0.86083 0.0
H139 H 0.29727 0.66329 0.03249 0.0
C140 C 0.34571 0.60868 0.95888 0.0
C141 C 0.33038 0.62375 0.00443 0.0
C142 C 0.33942 0.62047 0.90664 0.0
C143 C 0.31815 0.64823 0.90072 0.0
C144 C 0.30311 0.66388 0.94556 0.0
C145 C 0.309 0.65146 0.99755 0.0
N146 N 0.28199 0.69179 0.93612 0.0
C147 C 0.2636 0.70912 0.97523 0.0
H148 H 0.88914 0.90889 0.54732 0.0
H149 H 0.8143 0.87532 0.65893 0.0
H150 H 0.79995 0.85855 0.48772 0.0
C151 C 0.86497 0.89724 0.55507 0.0
C152 C 0.84549 0.88501 0.51148 0.0
C153 C 0.85433 0.89331 0.60838 0.0
C154 C 0.82322 0.87787 0.61785 0.0
C155 C 0.8036 0.86503 0.5749 0.0
C156 C 0.81501 0.86813 0.52133 0.0
N157 N 0.77214 0.8503 0.5875 0.0
C158 C 0.75611 0.82522 0.55694 0.0
H159 H 0.14134 0.87968 0.53632 0.0
H160 H 0.16286 0.7825 0.602 0.0
H161 H 0.14051 0.79132 0.43293 0.0
C162 C 0.14525 0.85286 0.53078 0.0
C163 C 0.14097 0.83813 0.47907 0.0
C164 C 0.15272 0.83309 0.57572 0.0
C165 C 0.15697 0.79818 0.56798 0.0
C166 C 0.15258 0.78326 0.51642 0.0
C167 C 0.14402 0.80314 0.47249 0.0
N168 N 0.15476 0.748 0.50858 0.0
C169 C 0.18428 0.73052 0.51799 0.0
H170 H 0.11288 0.08389 0.5345 0.0
H171 H 0.19947 0.14424 0.49867 0.0
H172 H 0.17333 0.12592 0.66415 0.0
C173 C 0.13451 0.09841 0.54847 0.0
C174 C 0.14 0.10341 0.60404 0.0
C175 C 0.15563 0.11314 0.51042 0.0
C176 C 0.18332 0.1326 0.52809 0.0
C177 C 0.19021 0.13631 0.58389 0.0
C178 C 0.16855 0.12166 0.62135 0.0
N179 N 0.21836 0.15476 0.60418 0.0
C180 C 0.23636 0.17834 0.57529 0.0
H181 H 0.86822 0.12273 0.54967 0.0
H182 H 0.8464 0.21733 0.63017 0.0
H183 H 0.86121 0.21323 0.45821 0.0
C184 C 0.86334 0.1495 0.54808 0.0
C185 C 0.86499 0.16559 0.4982 0.0
C186 C 0.85703 0.1679 0.59612 0.0
C187 C 0.85148 0.20273 0.5936 0.0
C188 C 0.85258 0.21891 0.54384 0.0
C189 C 0.85988 0.20046 0.49642 0.0
N190 N 0.84807 0.2541 0.54174 0.0
C191 C 0.81619 0.2681 0.53898 0.0
C192 C 0.1501 0.13837 0.08059 0.0
C193 C 0.14963 0.11331 0.03963 0.0
C194 C 0.16918 0.168 0.07514 0.0
C195 C 0.18792 0.1729 0.02734 0.0
C196 C 0.18796 0.14746 0.98632 0.0
C197 C 0.169 0.11801 0.99305 0.0
C198 C 0.16873 0.19434 0.12004 0.0
C199 C 0.20737 0.15171 0.93451 0.0
C200 C 0.20777 0.26026 0.97686 0.0
C201 C 0.24219 0.26294 0.98789 0.0
C202 C 0.18944 0.2317 0.9918 0.0
C203 C 0.20606 0.20524 0.01838 0.0
C204 C 0.24067 0.20866 0.03173 0.0
C205 C 0.25843 0.23752 0.01599 0.0
C206 C 0.15268 0.22911 0.97656 0.0
C207 C 0.25926 0.1812 0.06037 0.0
H208 H 0.13536 0.13499 0.11685 0.0
H209 H 0.16885 0.09892 0.96108 0.0
H210 H 0.19479 0.20141 0.13196 0.0
H211 H 0.15628 0.2174 0.10557 0.0
H212 H 0.15518 0.18558 0.15636 0.0
H213 H 0.2057 0.12912 0.90734 0.0
H214 H 0.19752 0.17361 0.91248 0.0
H215 H 0.23425 0.15686 0.94374 0.0
H216 H 0.19541 0.27997 0.95467 0.0
H217 H 0.28519 0.23969 0.02408 0.0
H218 H 0.13745 0.22257 0.01231 0.0
H219 H 0.14907 0.20867 0.94576 0.0
H220 H 0.14292 0.25287 0.95982 0.0
H221 H 0.24509 0.1733 0.09652 0.0
H222 H 0.28492 0.18926 0.0732 0.0
H223 H 0.26148 0.15885 0.03297 0.0
C224 C 0.84691 0.14035 0.03285 0.0
C225 C 0.87171 0.14003 0.07326 0.0
C226 C 0.82574 0.16802 0.02714 0.0
C227 C 0.82948 0.19617 0.06277 0.0
C228 C 0.85212 0.1946 0.10705 0.0
C229 C 0.8731 0.16642 0.11183 0.0
C230 C 0.80167 0.16821 0.97967 0.0
C231 C 0.85621 0.22369 0.14675 0.0
C232 C 0.81338 0.27519 0.98572 0.0
C233 C 0.77941 0.28054 0.9965 0.0
C234 C 0.8309 0.24933 0.01088 0.0
C235 C 0.81381 0.2285 0.04766 0.0
C236 C 0.78012 0.23577 0.06198 0.0
C237 C 0.76309 0.2617 0.03566 0.0
C238 C 0.86681 0.24252 0.99443 0.0
C239 C 0.76126 0.21452 0.10161 0.0
H240 H 0.84523 0.11968 0.00362 0.0
H241 H 0.89199 0.16613 0.14358 0.0
H242 H 0.77714 0.17924 0.99138 0.0
H243 H 0.81244 0.1838 0.94728 0.0
H244 H 0.79714 0.14247 0.96278 0.0
H245 H 0.86818 0.21569 0.18504 0.0
H246 H 0.87242 0.24319 0.12867 0.0
H247 H 0.83159 0.23542 0.15617 0.0
H248 H 0.82574 0.28992 0.95513 0.0
H249 H 0.73664 0.26603 0.04362 0.0
H250 H 0.86784 0.21883 0.96989 0.0
H251 H 0.88291 0.23921 0.03066 0.0
H252 H 0.87749 0.26313 0.97014 0.0
H253 H 0.75351 0.19053 0.08135 0.0
H254 H 0.73832 0.2274 0.1168 0.0
H255 H 0.7775 0.20823 0.13653 0.0
C256 C 0.83127 0.88521 0.00365 0.0
C257 C 0.85079 0.89042 0.05056 0.0
C258 C 0.81079 0.85659 0.99694 0.0
C259 C 0.80935 0.83263 0.03842 0.0
C260 C 0.82829 0.83811 0.08652 0.0
C261 C 0.849 0.8668 0.09185 0.0
C262 C 0.79133 0.85159 0.94472 0.0
C263 C 0.8271 0.81342 0.13196 0.0
C264 C 0.73517 0.77216 0.02443 0.0
C265 C 0.75004 0.74507 0.99676 0.0
C266 C 0.7546 0.80017 0.04142 0.0
C267 C 0.78946 0.80106 0.02954 0.0
C268 C 0.80466 0.77285 0.00375 0.0
C269 C 0.7847 0.74516 0.98771 0.0
C270 C 0.73751 0.82953 0.06935 0.0
C271 C 0.84161 0.77275 0.98996 0.0
H272 H 0.8325 0.9032 0.97142 0.0
H273 H 0.86384 0.87065 0.12836 0.0
H274 H 0.79984 0.82827 0.92353 0.0
H275 H 0.76416 0.84849 0.95332 0.0
H276 H 0.7945 0.87299 0.91703 0.0
H277 H 0.84108 0.82268 0.1684 0.0
H278 H 0.80065 0.80834 0.14338 0.0
H279 H 0.83817 0.78914 0.11829 0.0
H280 H 0.70821 0.77204 0.03088 0.0
H281 H 0.79598 0.72419 0.96571 0.0
H282 H 0.73632 0.85099 0.0415 0.0
H283 H 0.75214 0.83799 0.10551 0.0
H284 H 0.71151 0.8232 0.08198 0.0
H285 H 0.84661 0.79175 0.95875 0.0
H286 H 0.8501 0.74783 0.97423 0.0
H287 H 0.85694 0.77979 0.02608 0.0
C288 C 0.13495 0.84172 0.10794 0.0
C289 C 0.12961 0.86321 0.06447 0.0
C290 C 0.15865 0.81562 0.10434 0.0
C291 C 0.17694 0.81067 0.05583 0.0
C292 C 0.17251 0.83308 0.01271 0.0
C293 C 0.14914 0.85915 0.01771 0.0
C294 C 0.16302 0.79257 0.15149 0.0
C295 C 0.19144 0.82873 0.96018 0.0
C296 C 0.2553 0.75837 0.03539 0.0
C297 C 0.24196 0.73054 0.0071 0.0
C298 C 0.23404 0.78358 0.05623 0.0
C299 C 0.19887 0.78082 0.04758 0.0
C300 C 0.18534 0.75132 0.02248 0.0
C301 C 0.20718 0.72648 0.0024 0.0
C302 C 0.24938 0.81434 0.08352 0.0
C303 C 0.14804 0.74735 0.01242 0.0
H304 H 0.11991 0.84459 0.14417 0.0
H305 H 0.14546 0.87576 0.98403 0.0
H306 H 0.15098 0.76795 0.14174 0.0
H307 H 0.19007 0.78785 0.15934 0.0
H308 H 0.15145 0.80308 0.189 0.0
H309 H 0.18544 0.84874 0.93116 0.0
H310 H 0.21893 0.82905 0.96799 0.0
H311 H 0.18506 0.80404 0.9409 0.0
H312 H 0.28237 0.76136 0.03859 0.0
H313 H 0.1971 0.70487 0.98007 0.0
H314 H 0.23467 0.82203 0.11972 0.0
H315 H 0.24892 0.83557 0.05516 0.0
H316 H 0.27587 0.81 0.09589 0.0
H317 H 0.13371 0.7537 0.04961 0.0
H318 H 0.14126 0.72138 -0.00123 0.0
H319 H 0.14002 0.76501 0.98074 0.0
C320 C 0.65152 0.66944 0.43228 0.0
C321 C 0.63408 0.6538 0.47422 0.0
C322 C 0.67128 0.69826 0.4422 0.0
C323 C 0.67373 0.71192 0.49538 0.0
C324 C 0.65571 0.69672 0.53778 0.0
C325 C 0.63613 0.66783 0.5267 0.0
C326 C 0.69005 0.7137 0.39588 0.0
C327 C 0.65763 0.71064 0.59503 0.0
C328 C 0.75002 0.76487 0.53588 0.0
C329 C 0.73682 0.79735 0.53475 0.0
C330 C 0.72993 0.73682 0.522 0.0
C331 C 0.69585 0.74158 0.50698 0.0
C332 C 0.68279 0.77462 0.50442 0.0
C333 C 0.7035 0.80219 0.51855 0.0
C334 C 0.74484 0.70206 0.52507 0.0
C335 C 0.64668 0.78075 0.48845 0.0
H336 H 0.65011 0.65896 0.39152 0.0
H337 H 0.62292 0.65589 0.55937 0.0
H338 H 0.68345 0.74066 0.3927 0.0
H339 H 0.71753 0.71243 0.40357 0.0
H340 H 0.68448 0.70079 0.35652 0.0
H341 H 0.64126 0.69665 0.62306 0.0
H342 H 0.68393 0.70946 0.61005 0.0
H343 H 0.65011 0.73748 0.59612 0.0
H344 H 0.77577 0.76134 0.54919 0.0
H345 H 0.69335 0.82746 0.51851 0.0
H346 H 0.74138 0.68828 0.4859 0.0
H347 H 0.73156 0.68753 0.55633 0.0
H348 H 0.77209 0.70275 0.53518 0.0
H349 H 0.64108 0.76837 0.44875 0.0
H350 H 0.64091 0.80798 0.48582 0.0
H351 H 0.62964 0.76949 0.51856 0.0
C352 C 0.35201 0.63747 0.44628 0.0
C353 C 0.36624 0.61815 0.48725 0.0
C354 C 0.32233 0.6557 0.45498 0.0
C355 C 0.30638 0.65471 0.506 0.0
C356 C 0.32055 0.63533 0.54764 0.0
C357 C 0.35033 0.61729 0.53784 0.0
C358 C 0.30791 0.67583 0.40932 0.0
C359 C 0.30428 0.6337 0.60256 0.0
C360 C 0.24512 0.72594 0.53551 0.0
C361 C 0.21454 0.71079 0.52094 0.0
C362 C 0.27524 0.70758 0.5329 0.0
C363 C 0.27447 0.67347 0.51493 0.0
C364 C 0.24326 0.65792 0.50187 0.0
C365 C 0.2136 0.67687 0.50498 0.0
C366 C 0.30796 0.72498 0.54741 0.0
C367 C 0.24133 0.62164 0.48272 0.0
H368 H 0.36398 0.6383 0.40703 0.0
H369 H 0.36107 0.60248 0.56983 0.0
H370 H 0.28215 0.66677 0.39929 0.0
H371 H 0.30591 0.70269 0.42199 0.0
H372 H 0.32346 0.67407 0.37215 0.0
H373 H 0.31682 0.61533 0.62898 0.0
H374 H 0.30538 0.65886 0.62282 0.0
H375 H 0.27736 0.62663 0.59838 0.0
H376 H 0.24559 0.75233 0.5476 0.0
H377 H 0.18974 0.66539 0.49352 0.0
H378 H 0.32389 0.72666 0.51085 0.0
H379 H 0.32207 0.71018 0.57744 0.0
H380 H 0.30402 0.75078 0.56431 0.0
H381 H 0.25448 0.61862 0.44343 0.0
H382 H 0.21497 0.61274 0.47747 0.0
H383 H 0.25423 0.60525 0.51197 0.0
C384 C 0.36425 0.32695 0.53235 0.0
C385 C 0.35847 0.34512 0.48526 0.0
C386 C 0.34547 0.29791 0.54333 0.0
C387 C 0.32049 0.28658 0.50607 0.0
C388 C 0.31574 0.30378 0.45715 0.0
C389 C 0.33469 0.33288 0.44741 0.0
C390 C 0.35127 0.28034 0.59605 0.0
C391 C 0.28971 0.29225 0.41604 0.0
C392 C 0.28522 0.19832 0.5238 0.0
C393 C 0.25594 0.20523 0.55297 0.0
C394 C 0.30623 0.22461 0.50701 0.0
C395 C 0.29764 0.25836 0.52025 0.0
C396 C 0.26754 0.26525 0.54881 0.0
C397 C 0.24703 0.23851 0.56484 0.0
C398 C 0.33802 0.21628 0.47653 0.0
C399 C 0.25748 0.30082 0.56378 0.0
H400 H 0.38266 0.33607 0.56158 0.0
H401 H 0.33029 0.34646 0.41052 0.0
H402 H 0.32949 0.28482 0.62312 0.0
H403 H 0.35333 0.25277 0.5891 0.0
H404 H 0.37438 0.28945 0.61718 0.0
H405 H 0.29137 0.30637 0.37787 0.0
H406 H 0.29267 0.26503 0.40646 0.0
H407 H 0.26419 0.29578 0.43311 0.0
H408 H 0.29206 0.17238 0.51519 0.0
H409 H 0.22439 0.24358 0.58789 0.0
H410 H 0.36023 0.22407 0.50118 0.0
H411 H 0.33899 0.23045 0.43842 0.0
H412 H 0.34005 0.18898 0.4666 0.0
H413 H 0.2768 0.31245 0.59089 0.0
H414 H 0.23279 0.30193 0.58457 0.0
H415 H 0.25608 0.31623 0.527 0.0
C416 C 0.63034 0.33416 0.48779 0.0
C417 C 0.62628 0.36745 0.50662 0.0
C418 C 0.66094 0.31721 0.49452 0.0
C419 C 0.68839 0.33408 0.51989 0.0
C420 C 0.6845 0.36768 0.53898 0.0
C421 C 0.65337 0.38379 0.53284 0.0
C422 C 0.66397 0.28129 0.47406 0.0
C423 C 0.71309 0.38679 0.566 0.0
C424 C 0.76041 0.28226 0.57602 0.0
C425 C 0.78385 0.28412 0.53423 0.0
C426 C 0.72914 0.29845 0.57201 0.0
C427 C 0.72141 0.31679 0.52506 0.0
C428 C 0.74531 0.31871 0.48289 0.0
C429 C 0.7763 0.30226 0.48799 0.0
C430 C 0.70448 0.29614 0.618 0.0
C431 C 0.73834 0.33861 0.43279 0.0
H432 H 0.60951 0.32122 0.46786 0.0
H433 H 0.65051 0.40946 0.54777 0.0
H434 H 0.68355 0.2796 0.44231 0.0
H435 H 0.672 0.26492 0.50748 0.0
H436 H 0.63995 0.27135 0.45689 0.0
H437 H 0.70907 0.41436 0.56488 0.0
H438 H 0.71488 0.37942 0.60893 0.0
H439 H 0.73751 0.38104 0.54647 0.0
H440 H 0.76659 0.26828 0.61187 0.0
H441 H 0.79475 0.30374 0.45595 0.0
H442 H 0.68019 0.28568 0.60292 0.0
H443 H 0.6994 0.32166 0.63501 0.0
H444 H 0.71391 0.28012 0.651 0.0
H445 H 0.71537 0.32882 0.4121 0.0
H446 H 0.75955 0.33762 0.40373 0.0
H447 H 0.73357 0.3653 0.44431 0.0
C448 C 0.02971 0.0905 0.27407 0.0
C449 C 0.04188 0.08773 0.22106 0.0
C450 C 0.05177 0.09594 0.31789 0.0
C451 C 0.0868 0.09861 0.30834 0.0
C452 C 0.09911 0.09627 0.2549 0.0
C453 C 0.07639 0.09122 0.212 0.0
C454 C 0.03765 0.0983 0.37444 0.0
C455 C 0.13623 0.09899 0.24297 0.0
C456 C 0.13674 0.13834 0.4243 0.0
C457 C 0.14607 0.1098 0.45279 0.0
C458 C 0.11886 0.13514 0.37533 0.0
C459 C 0.11043 0.10265 0.3547 0.0
C460 C 0.12216 0.0738 0.3813 0.0
C461 C 0.13984 0.07775 0.43017 0.0
C462 C 0.10677 0.16646 0.34801 0.0
C463 C 0.11414 0.03877 0.36002 0.0
H464 H 0.00298 0.0879 0.28143 0.0
H465 H 0.08564 0.09033 0.17129 0.0
H466 H 0.0481 0.07788 0.39927 0.0
H467 H 0.04519 0.12255 0.39409 0.0
H468 H 0.00979 0.09636 0.37483 0.0
H469 H 0.14183 0.09429 0.19948 0.0
H470 H 0.14548 0.12449 0.25468 0.0
H471 H 0.15054 0.08072 0.26721 0.0
H472 H 0.14124 0.16309 0.44226 0.0
H473 H 0.14711 0.05573 0.45247 0.0
H474 H 0.07912 0.1686 0.35276 0.0
H475 H 0.11205 0.16503 0.30402 0.0
H476 H 0.11872 0.18959 0.36544 0.0
H477 H 0.08653 0.0346 0.36004 0.0
H478 H 0.12608 0.01911 0.38471 0.0
H479 H 0.12274 0.03571 0.31757 0.0
C480 C 0.89337 0.06811 0.21476 0.0
C481 C 0.91421 0.04038 0.22218 0.0
C482 C 0.88534 0.08978 0.25831 0.0
C483 C 0.89894 0.08361 0.31022 0.0
C484 C 0.92045 0.05572 0.31756 0.0
C485 C 0.92743 0.03409 0.27346 0.0
C486 C 0.86189 0.11887 0.24894 0.0
C487 C 0.93597 0.04865 0.37197 0.0
C488 C 0.89963 0.15488 0.41538 0.0
C489 C 0.87274 0.14573 0.44846 0.0
C490 C 0.90855 0.13486 0.37018 0.0
C491 C 0.88961 0.10549 0.35731 0.0
C492 C 0.86194 0.09662 0.38997 0.0
C493 C 0.85404 0.1167 0.43547 0.0
C494 C 0.93861 0.14472 0.33689 0.0
C495 C 0.84077 0.06584 0.37699 0.0
H496 H 0.88256 0.07223 0.17517 0.0
H497 H 0.94358 0.01248 0.27882 0.0
H498 H 0.84003 0.1174 0.27654 0.0
H499 H 0.87504 0.14298 0.25818 0.0
H500 H 0.85247 0.11932 0.20658 0.0
H501 H 0.95431 0.02767 0.36979 0.0
H502 H 0.94896 0.07146 0.38835 0.0
H503 H 0.91597 0.04206 0.40106 0.0
H504 H 0.91428 0.17717 0.42582 0.0
H505 H 0.83313 0.10978 0.46097 0.0
H506 H 0.93064 0.14954 0.29473 0.0
H507 H 0.95694 0.12378 0.33514 0.0
H508 H 0.95148 0.16757 0.35353 0.0
H509 H 0.83056 0.06722 0.33524 0.0
H510 H 0.81947 0.06307 0.40547 0.0
H511 H 0.85651 0.04293 0.37862 0.0
C512 C 0.9291 0.91313 0.22082 0.0
C513 C 0.96377 0.91627 0.22939 0.0
C514 C 0.90692 0.90793 0.26366 0.0
C515 C 0.91995 0.90476 0.31655 0.0
C516 C 0.95512 0.90724 0.32563 0.0
C517 C 0.97661 0.91319 0.28192 0.0
C518 C 0.86963 0.90565 0.25209 0.0
C519 C 0.97 0.90388 0.38153 0.0
C520 C 0.86591 0.9224 0.43951 0.0
C521 C 0.85846 0.88981 0.45637 0.0
C522 C 0.88477 0.92765 0.39271 0.0
C523 C 0.89681 0.89955 0.36262 0.0
C524 C 0.88792 0.86657 0.37804 0.0
C525 C 0.86863 0.86208 0.42481 0.0
C526 C 0.89299 0.96321 0.37677 0.0
C527 C 0.90037 0.83604 0.34691 0.0
H528 H 0.91924 0.91431 0.18044 0.0
H529 H 0.00343 0.91575 0.28892 0.0
H530 H 0.86084 0.87946 0.25773 0.0
H531 H 0.85544 0.92207 0.28069 0.0
H532 H 0.86337 0.913 0.21015 0.0
H533 H 0.96146 0.88004 0.39959 0.0
H534 H 0.99792 0.90427 0.3812 0.0
H535 H 0.96111 0.9248 0.40817 0.0
H536 H 0.85806 0.94378 0.4643 0.0
H537 H 0.8632 0.83692 0.43847 0.0
H538 H 0.88589 0.96709 0.3339 0.0
H539 H 0.92049 0.96764 0.38031 0.0
H540 H 0.87989 0.98224 0.40249 0.0
H541 H 0.89387 0.83792 0.30341 0.0
H542 H 0.88963 0.81228 0.3623 0.0
H543 H 0.92819 0.83482 0.34993 0.0
C544 C 0.11377 0.93859 0.20511 0.0
C545 C 0.09102 0.9649 0.2131 0.0
C546 C 0.12261 0.91768 0.24781 0.0
C547 C 0.10784 0.92305 0.2993 0.0
C548 C 0.08479 0.94978 0.30737 0.0
C549 C 0.07695 0.9707 0.26415 0.0
C550 C 0.14763 0.88979 0.23779 0.0
C551 C 0.06833 0.95616 0.3615 0.0
C552 C 0.1065 0.85053 0.39683 0.0
C553 C 0.13284 0.85941 0.43229 0.0
C554 C 0.0981 0.87098 0.35325 0.0
C555 C 0.11667 0.90087 0.34483 0.0
C556 C 0.1436 0.90967 0.3801 0.0
C557 C 0.15126 0.88891 0.42357 0.0
C558 C 0.06901 0.86093 0.31683 0.0
C559 C 0.16451 0.94088 0.37169 0.0
H560 H 0.12492 0.93468 0.16556 0.0
H561 H 0.05932 0.99121 0.2699 0.0
H562 H 0.15849 0.89046 0.19651 0.0
H563 H 0.16846 0.89162 0.26775 0.0
H564 H 0.13519 0.86507 0.24299 0.0
H565 H 0.04967 0.97685 0.36026 0.0
H566 H 0.05548 0.93302 0.37494 0.0
H567 H 0.08776 0.96276 0.39233 0.0
H568 H 0.09201 0.8279 0.40383 0.0
H569 H 0.17192 0.89557 0.45055 0.0
H570 H 0.07711 0.85998 0.27395 0.0
H571 H 0.04892 0.88008 0.32035 0.0
H572 H 0.05823 0.83608 0.32715 0.0
H573 H 0.17736 0.939 0.33201 0.0
H574 H 0.18379 0.94483 0.40389 0.0
H575 H 0.1481 0.9633 0.37075 0.0
C576 C 0.11168 0.94331 0.83688 0.0
C577 C 0.13453 0.94055 0.87997 0.0
C578 C 0.11572 0.92431 0.78883 0.0
C579 C 0.14352 0.90236 0.7834 0.0
C580 C 0.16661 0.89938 0.82675 0.0
C581 C 0.16166 0.91828 0.87471 0.0
C582 C 0.09066 0.92843 0.74342 0.0
C583 C 0.19664 0.87638 0.82235 0.0
C584 C 0.13656 0.83417 0.67367 0.0
C585 C 0.15371 0.84896 0.63075 0.0
C586 C 0.13385 0.85085 0.72414 0.0
C587 C 0.14866 0.88305 0.73184 0.0
C588 C 0.16704 0.89756 0.68932 0.0
C589 C 0.16938 0.88032 0.63934 0.0
C590 C 0.11383 0.83472 0.76842 0.0
C591 C 0.18342 0.93173 0.6961 0.0
H592 H 0.09062 0.96043 0.84052 0.0
H593 H 0.17941 0.91593 0.90781 0.0
H594 H 0.10234 0.94318 0.71086 0.0
H595 H 0.08317 0.90365 0.72563 0.0
H596 H 0.06768 0.94173 0.75724 0.0
H597 H 0.21432 0.87989 0.85696 0.0
H598 H 0.18796 0.84982 0.82103 0.0
H599 H 0.21053 0.88082 0.78434 0.0
H600 H 0.12401 0.81016 0.66713 0.0
H601 H 0.18304 0.89168 0.60654 0.0
H602 H 0.0912 0.85007 0.77737 0.0
H603 H 0.12898 0.8339 0.80617 0.0
H604 H 0.10563 0.80874 0.75718 0.0
H605 H 0.16382 0.95115 0.70277 0.0
H606 H 0.19846 0.93861 0.66022 0.0
H607 H 0.20009 0.9323 0.73224 0.0
C608 C 0.0035 0.03276 0.81405 0.0
C609 C 0.99498 0.05988 0.84837 0.0
C610 C 0.02561 0.03717 0.77072 0.0
C611 C 0.04002 0.06925 0.76261 0.0
C612 C 0.03071 0.09689 0.7963 0.0
C613 C 0.00795 0.09193 0.83839 0.0
C614 C 0.03384 0.00752 0.73407 0.0
C615 C 0.04572 0.13146 0.78915 0.0
C616 C 0.1242 0.07884 0.69331 0.0
C617 C 0.11449 0.09176 0.64331 0.0
C618 C 0.10009 0.07013 0.73189 0.0
C619 C 0.06549 0.07414 0.71988 0.0
C620 C 0.05546 0.08574 0.6687 0.0
C621 C 0.08006 0.09478 0.63133 0.0
C622 C 0.11165 0.05776 0.78621 0.0
C623 C 0.01878 0.08992 0.65418 0.0
H624 H 0.99297 0.00811 0.82116 0.0
H625 H 0.00144 0.11295 0.86494 0.0
H626 H 0.02696 0.01321 0.69172 0.0
H627 H 0.06128 0.00271 0.73489 0.0
H628 H 0.02035 0.98431 0.74581 0.0
H629 H 0.03546 0.15034 0.81842 0.0
H630 H 0.07341 0.1304 0.79459 0.0
H631 H 0.04079 0.1402 0.74759 0.0
H632 H 0.15068 0.07589 0.70254 0.0
H633 H 0.07219 0.10529 0.59326 0.0
H634 H 0.09966 0.03322 0.79473 0.0
H635 H 0.10379 0.07581 0.81859 0.0
H636 H 0.13939 0.05478 0.7884 0.0
H637 H 0.00419 0.06716 0.66466 0.0
H638 H 0.01511 0.09475 0.61046 0.0
H639 H 0.00815 0.11138 0.6778 0.0
C640 C 0.84454 0.08246 0.88661 0.0
C641 C 0.86972 0.05813 0.89192 0.0
C642 C 0.84176 0.10134 0.8395 0.0
C643 C 0.86512 0.09622 0.7971 0.0
C644 C 0.89086 0.07202 0.80247 0.0
C645 C 0.89255 0.05296 0.84947 0.0
C646 C 0.81388 0.12684 0.83536 0.0
C647 C 0.91646 0.06607 0.7584 0.0
C648 C 0.84087 0.11976 0.6542 0.0
C649 C 0.85751 0.15064 0.64874 0.0
C650 C 0.84281 0.10202 0.70251 0.0
C651 C 0.86204 0.1154 0.74634 0.0
C652 C 0.87855 0.14678 0.74137 0.0
C653 C 0.87598 0.16412 0.69264 0.0
C654 C 0.82441 0.06889 0.70661 0.0
C655 C 0.89952 0.16165 0.7871 0.0
H656 H 0.82673 0.08659 0.91908 0.0
H657 H 0.91179 0.03391 0.85282 0.0
H658 H 0.82459 0.15252 0.84048 0.0
H659 H 0.80154 0.12524 0.79503 0.0
H660 H 0.79438 0.12336 0.86676 0.0
H661 H 0.93619 0.04803 0.77047 0.0
H662 H 0.90376 0.05605 0.72134 0.0
H663 H 0.92882 0.0901 0.74787 0.0
H664 H 0.82629 0.10944 0.62052 0.0
H665 H 0.88922 0.18778 0.68833 0.0
H666 H 0.80685 0.0699 0.74135 0.0
H667 H 0.84261 0.04843 0.71418 0.0
H668 H 0.80988 0.06236 0.66931 0.0
H669 H 0.88388 0.16494 0.82386 0.0
H670 H 0.9106 0.18639 0.7769 0.0
H671 H 0.9202 0.1442 0.79727 0.0
C672 C 0.95291 0.95293 0.87448 0.0
C673 C 0.98683 0.94335 0.8735 0.0
C674 C 0.93191 0.94697 0.82967 0.0
C675 C 0.94508 0.93087 0.78289 0.0
C676 C 0.97947 0.92188 0.78102 0.0
C677 C 1.00003 0.92838 0.82638 0.0
C678 C 0.89539 0.95715 0.8328 0.0
C679 C 0.99444 0.90491 0.73154 0.0
C680 C 0.88235 0.88175 0.69644 0.0
C681 C 0.87669 0.90372 0.65388 0.0
C682 C 0.90493 0.89016 0.73826 0.0
C683 C 0.92211 0.92141 0.73761 0.0
C684 C 0.91637 0.94385 0.69499 0.0
C685 C 0.89378 0.93467 0.65342 0.0
C686 C 0.91054 0.86556 0.78307 0.0
C687 C 0.9343 0.97734 0.69307 0.0
H688 H 0.94242 0.96434 0.91081 0.0
H689 H 0.02623 0.92102 0.82537 0.0
H690 H 0.8901 0.97643 0.80216 0.0
H691 H 0.87883 0.93523 0.82351 0.0
H692 H 0.88855 0.96749 0.87329 0.0
H693 H 0.02005 0.89511 0.73947 0.0
H694 H 0.97829 0.88371 0.71704 0.0
H695 H 0.996 0.92325 0.69848 0.0
H696 H 0.86966 0.85756 0.69639 0.0
H697 H 0.88938 0.95175 0.6206 0.0
H698 H 0.9035 0.87729 0.82253 0.0
H699 H 0.93759 0.85895 0.7855 0.0
H700 H 0.89568 0.84204 0.77701 0.0
H701 H 0.93264 0.9908 0.73271 0.0
H702 H 0.92385 0.99369 0.66129 0.0
H703 H 0.96136 0.97316 0.68467 0.0
C704 C 0.53347 0.55498 0.66414 0.0
C705 C 0.53364 0.57669 0.62042 0.0
C706 C 0.55253 0.56236 0.7108 0.0
C707 C 0.57121 0.59276 0.71421 0.0
C708 C 0.57169 0.61454 0.66957 0.0
C709 C 0.55338 0.60583 0.62265 0.0
C710 C 0.55169 0.53818 0.75695 0.0
C711 C 0.5906 0.64755 0.67192 0.0
C712 C 0.58818 0.6323 0.85274 0.0
C713 C 0.62268 0.62648 0.85926 0.0
C714 C 0.57102 0.62096 0.80608 0.0
C715 C 0.5887 0.60285 0.76536 0.0
C716 C 0.62333 0.59595 0.77247 0.0
C717 C 0.64002 0.60817 0.81917 0.0
C718 C 0.5343 0.6296 0.79933 0.0
C719 C 0.64285 0.57629 0.73026 0.0
H720 H 0.51835 0.53224 0.66179 0.0
H721 H 0.55322 0.62257 0.58863 0.0
H722 H 0.57725 0.53466 0.77393 0.0
H723 H 0.53568 0.5486 0.78982 0.0
H724 H 0.54126 0.51326 0.74421 0.0
H725 H 0.61802 0.64265 0.67107 0.0
H726 H 0.58412 0.66377 0.63742 0.0
H727 H 0.58509 0.66163 0.71008 0.0
H728 H 0.57484 0.6468 0.88341 0.0
H729 H 0.66666 0.60346 0.82437 0.0
H730 H 0.51918 0.60639 0.7925 0.0
H731 H 0.53098 0.64535 0.7632 0.0
H732 H 0.52412 0.64346 0.83513 0.0
H733 H 0.62881 0.55327 0.71734 0.0
H734 H 0.66811 0.56898 0.7452 0.0
H735 H 0.64619 0.59179 0.69393 0.0
C736 C 0.37145 0.52123 0.62913 0.0
C737 C 0.40532 0.51418 0.61969 0.0
C738 C 0.36173 0.54022 0.67486 0.0
C739 C 0.38652 0.55144 0.71261 0.0
C740 C 0.42086 0.54425 0.70301 0.0
C741 C 0.42985 0.52578 0.65633 0.0
C742 C 0.32482 0.5471 0.68354 0.0
C743 C 0.4479 0.55506 0.74289 0.0
C744 C 0.36389 0.62127 0.81302 0.0
C745 C 0.35359 0.60296 0.85803 0.0
C746 C 0.3748 0.60486 0.76545 0.0
C747 C 0.37632 0.56933 0.7633 0.0
C748 C 0.36707 0.55074 0.8091 0.0
C749 C 0.35544 0.56772 0.85559 0.0
C750 C 0.38409 0.62552 0.71719 0.0
C751 C 0.36845 0.51282 0.8086 0.0
H752 H 0.35256 0.5116 0.60096 0.0
H753 H 0.45593 0.51919 0.64953 0.0
H754 H 0.31465 0.52879 0.71251 0.0
H755 H 0.32075 0.57271 0.70092 0.0
H756 H 0.31024 0.54444 0.64521 0.0
H757 H 0.47297 0.54503 0.73167 0.0
H758 H 0.44951 0.5829 0.74509 0.0
H759 H 0.44159 0.54634 0.78397 0.0
H760 H 0.36318 0.6485 0.81475 0.0
H761 H 0.34695 0.55322 0.88954 0.0
H762 H 0.37048 0.61612 0.68057 0.0
H763 H 0.41137 0.623 0.70901 0.0
H764 H 0.37828 0.65262 0.72353 0.0
H765 H 0.34719 0.50261 0.78405 0.0
H766 H 0.36661 0.50256 0.84991 0.0
H767 H 0.39209 0.50374 0.78983 0.0
C768 C 0.4703 0.44111 0.67897 0.0
C769 C 0.46624 0.42117 0.63198 0.0
C770 C 0.45143 0.43477 0.72554 0.0
C771 C 0.42906 0.40689 0.72571 0.0
C772 C 0.42505 0.38665 0.6781 0.0
C773 C 0.44316 0.39455 0.63146 0.0
C774 C 0.45652 0.45741 0.77472 0.0
C775 C 0.40225 0.35617 0.67588 0.0
C776 C 0.40833 0.36729 0.86007 0.0
C777 C 0.37459 0.37638 0.86699 0.0
C778 C 0.42652 0.37752 0.81473 0.0
C779 C 0.41081 0.39801 0.77595 0.0
C780 C 0.37702 0.40813 0.78357 0.0
C781 C 0.35919 0.39691 0.82875 0.0
C782 C 0.46202 0.36508 0.80699 0.0
C783 C 0.35943 0.42993 0.74314 0.0
H784 H 0.48821 0.46177 0.67926 0.0
H785 H 0.44042 0.37887 0.59527 0.0
H786 H 0.43345 0.45936 0.79961 0.0
H787 H 0.47685 0.44704 0.8002 0.0
H788 H 0.46437 0.48305 0.763 0.0
H789 H 0.41262 0.33647 0.64821 0.0
H790 H 0.39852 0.34491 0.71604 0.0
H791 H 0.37733 0.36359 0.65979 0.0
H792 H 0.42015 0.35105 0.88917 0.0
H793 H 0.33313 0.4041 0.83413 0.0
H794 H 0.47961 0.3867 0.80466 0.0
H795 H 0.46379 0.35061 0.76817 0.0
H796 H 0.47038 0.34875 0.84032 0.0
H797 H 0.37594 0.45106 0.73118 0.0
H798 H 0.33549 0.44028 0.75924 0.0
H799 H 0.35364 0.41474 0.70605 0.0
C800 C 0.58099 0.47157 0.64984 0.0
C801 C 0.60115 0.48513 0.60961 0.0
C802 C 0.59544 0.45455 0.69312 0.0
C803 C 0.63084 0.45092 0.69555 0.0
C804 C 0.65119 0.46403 0.6541 0.0
C805 C 0.63605 0.48142 0.61182 0.0
C806 C 0.57301 0.44197 0.73749 0.0
C807 C 0.68898 0.46061 0.65526 0.0
C808 C 0.67276 0.44157 0.8321 0.0
C809 C 0.67645 0.40655 0.83509 0.0
C810 C 0.65735 0.45618 0.78745 0.0
C811 C 0.64675 0.43549 0.74329 0.0
C812 C 0.65145 0.4003 0.7448 0.0
C813 C 0.66562 0.38616 0.79113 0.0
C814 C 0.65251 0.49382 0.78765 0.0
C815 C 0.6416 0.37765 0.69741 0.0
H816 H 0.55408 0.47568 0.64874 0.0
H817 H 0.65146 0.49235 0.58065 0.0
H818 H 0.57794 0.41502 0.74476 0.0
H819 H 0.57867 0.45608 0.77573 0.0
H820 H 0.54589 0.44503 0.72784 0.0
H821 H 0.70064 0.46823 0.61666 0.0
H822 H 0.69961 0.47671 0.68833 0.0
H823 H 0.69617 0.43429 0.66357 0.0
H824 H 0.68203 0.45783 0.86464 0.0
H825 H 0.66788 0.35908 0.79291 0.0
H826 H 0.62615 0.49989 0.77705 0.0
H827 H 0.6689 0.50506 0.75671 0.0
H828 H 0.6586 0.50584 0.82752 0.0
H829 H 0.65416 0.38622 0.66014 0.0
H830 H 0.61409 0.37909 0.69026 0.0
H831 H 0.64844 0.35097 0.70388 0.0
C832 C 0.68474 0.49676 0.2647 0.0
C833 C 0.65183 0.50921 0.26713 0.0
C834 C 0.69543 0.47695 0.22038 0.0
C835 C 0.67258 0.46937 0.17773 0.0
C836 C 0.63931 0.4818 0.18004 0.0
C837 C 0.62934 0.50156 0.22471 0.0
C838 C 0.73119 0.46437 0.21894 0.0
C839 C 0.61421 0.47428 0.13527 0.0
C840 C 0.70309 0.44728 0.03673 0.0
C841 C 0.69799 0.41236 0.03419 0.0
C842 C 0.69609 0.46598 0.08395 0.0
C843 C 0.68357 0.44933 0.12968 0.0
C844 C 0.6796 0.41388 0.12809 0.0
C845 C 0.68703 0.39574 0.08026 0.0
C846 C 0.7009 0.50369 0.0842 0.0
C847 C 0.66613 0.39535 0.17605 0.0
H848 H 0.70224 0.50256 0.29738 0.0
H849 H 0.60377 0.51083 0.22651 0.0
H850 H 0.73139 0.43653 0.21505 0.0
H851 H 0.74423 0.47425 0.183 0.0
H852 H 0.74566 0.47205 0.25576 0.0
H853 H 0.58917 0.48547 0.1437 0.0
H854 H 0.62358 0.48427 0.09658 0.0
H855 H 0.61115 0.44669 0.12954 0.0
H856 H 0.71199 0.46007 0.00123 0.0
H857 H 0.68294 0.36877 0.07816 0.0
H858 H 0.71638 0.51195 0.11954 0.0
H859 H 0.67614 0.51628 0.08803 0.0
H860 H 0.71319 0.51241 0.04675 0.0
H861 H 0.68084 0.40208 0.21299 0.0
H862 H 0.66684 0.36762 0.16966 0.0
H863 H 0.63972 0.40296 0.1836 0.0
C864 C 0.5175 0.61299 0.24076 0.0
C865 C 0.53181 0.61214 0.29269 0.0
C866 C 0.53705 0.62101 0.19559 0.0
C867 C 0.57182 0.62798 0.20238 0.0
C868 C 0.58633 0.62737 0.25471 0.0
C869 C 0.56604 0.61994 0.2992 0.0
C870 C 0.52058 0.62152 0.14045 0.0
C871 C 0.62334 0.63422 0.26373 0.0
C872 C 0.62521 0.61419 0.07706 0.0
C873 C 0.62888 0.64703 0.05853 0.0
C874 C 0.60781 0.60779 0.12497 0.0
C875 C 0.5931 0.63487 0.15441 0.0
C876 C 0.59767 0.66824 0.13672 0.0
C877 C 0.61578 0.67396 0.08905 0.0
C878 C 0.60448 0.57198 0.14334 0.0
C879 C 0.58229 0.69772 0.16691 0.0
H880 H 0.49104 0.60713 0.23525 0.0
H881 H 0.57713 0.61993 0.33915 0.0
H882 H 0.52499 0.6462 0.12158 0.0
H883 H 0.53197 0.60199 0.11363 0.0
H884 H 0.49303 0.61689 0.1423 0.0
H885 H 0.63136 0.62905 0.3058 0.0
H886 H 0.63866 0.61855 0.2356 0.0
H887 H 0.62895 0.66093 0.25529 0.0
H888 H 0.6355 0.59341 0.05338 0.0
H889 H 0.61842 0.6993 0.07431 0.0
H890 H 0.57775 0.56395 0.14099 0.0
H891 H 0.61255 0.57024 0.18619 0.0
H892 H 0.61971 0.55419 0.11843 0.0
H893 H 0.55448 0.69533 0.16612 0.0
H894 H 0.58938 0.72217 0.14922 0.0
H895 H 0.5903 0.69785 0.20995 0.0
C896 C 0.36181 0.55405 0.30358 0.0
C897 C 0.36141 0.51876 0.30072 0.0
C898 C 0.35631 0.57309 0.25728 0.0
C899 C 0.35038 0.55643 0.20692 0.0
C900 C 0.34966 0.52082 0.20386 0.0
C901 C 0.35512 0.50241 0.25083 0.0
C902 C 0.35722 0.61101 0.26217 0.0
C903 C 0.34359 0.50211 0.15083 0.0
C904 C 0.30831 0.60234 0.09189 0.0
C905 C 0.33579 0.60936 0.05862 0.0
C906 C 0.31276 0.58574 0.14092 0.0
C907 C 0.34549 0.57615 0.15711 0.0
C908 C 0.37346 0.58424 0.12458 0.0
C909 C 0.36824 0.60065 0.07562 0.0
C910 C 0.28234 0.57746 0.17449 0.0
C911 C 0.4088 0.57484 0.14082 0.0
H912 H 0.36661 0.56688 0.34202 0.0
H913 H 0.35491 0.47516 0.24825 0.0
H914 H 0.37763 0.62103 0.2366 0.0
H915 H 0.33324 0.62161 0.24723 0.0
H916 H 0.36138 0.62007 0.30451 0.0
H917 H 0.34236 0.47443 0.15578 0.0
H918 H 0.31971 0.51053 0.13221 0.0
H919 H 0.36411 0.50782 0.12216 0.0
H920 H 0.28317 0.60875 0.07861 0.0
H921 H 0.38957 0.60641 0.05023 0.0
H922 H 0.2858 0.58713 0.2166 0.0
H923 H 0.2793 0.54976 0.17636 0.0
H924 H 0.25886 0.58823 0.15774 0.0
H925 H 0.41462 0.58499 0.18199 0.0
H926 H 0.42794 0.58442 0.11235 0.0
H927 H 0.411 0.54707 0.14219 0.0
C928 C 0.41581 0.37762 0.31676 0.0
C929 C 0.45066 0.3722 0.31816 0.0
C930 C 0.3973 0.37326 0.26857 0.0
C931 C 0.41406 0.36333 0.22046 0.0
C932 C 0.44913 0.35723 0.22178 0.0
C933 C 0.46699 0.36169 0.27059 0.0
C934 C 0.35997 0.38006 0.26898 0.0
C935 C 0.46795 0.34674 0.17129 0.0
C936 C 0.36595 0.32665 0.09923 0.0
C937 C 0.36458 0.3543 0.06506 0.0
C938 C 0.38119 0.32941 0.15059 0.0
C939 C 0.39533 0.36057 0.16817 0.0
C940 C 0.39295 0.38885 0.1346 0.0
C941 C 0.37763 0.38536 0.08353 0.0
C942 C 0.38295 0.29879 0.18546 0.0
C943 C 0.40731 0.42264 0.15205 0.0
H944 H 0.40299 0.38585 0.35319 0.0
H945 H 0.4939 0.35745 0.27122 0.0
H946 H 0.35447 0.40234 0.24428 0.0
H947 H 0.34602 0.35843 0.25056 0.0
H948 H 0.3503 0.38485 0.31052 0.0
H949 H 0.49498 0.34189 0.17944 0.0
H950 H 0.4565 0.32362 0.15309 0.0
H951 H 0.46605 0.36674 0.14085 0.0
H952 H 0.35603 0.30256 0.08513 0.0
H953 H 0.37605 0.40699 0.05773 0.0
H954 H 0.37256 0.30462 0.22615 0.0
H955 H 0.40959 0.2914 0.19113 0.0
H956 H 0.36894 0.27703 0.16744 0.0
H957 H 0.39644 0.43084 0.19139 0.0
H958 H 0.40235 0.4424 0.12199 0.0
H959 H 0.4349 0.42057 0.15792 0.0
loop_
_geom_bond_atom_site_label_1
_geom_bond_atom_site_label_2
_geom_bond_distance
_geom_bond_site_symmetry_2
_ccdc_geom_bond_type
Zn0 O2 1.933 1_556 S
Zn0 O20 1.985 . S
Zn0 O31 1.955 . S
Zn1 O2 1.911 . S
Zn1 O21 1.970 . S
Zn1 O37 1.945 . S
Zn1 O44 1.981 . S
O2 Zn0 1.933 1_554 S
O2 Zn1 1.911 . S
O2 H3 0.841 1_655 S
H3 O2 0.841 1_455 S
C4 O5 1.246 . S
C4 O33 1.276 1_545 S
O5 C4 1.246 . S
Zn6 O8 1.911 . S
Zn6 O23 1.970 . S
Zn6 O40 1.945 . S
Zn6 O47 1.981 . S
Zn7 O8 1.933 1_556 S
Zn7 O22 1.985 . S
Zn7 O29 1.955 . S
O8 Zn6 1.911 . S
O8 Zn7 1.933 1_554 S
O8 H9 0.841 1_455 S
H9 O8 0.841 1_655 S
Zn10 O11 1.933 1_556 S
Zn10 O24 1.985 . S
Zn10 O33 1.955 . S
O11 Zn10 1.933 1_554 S
O11 Zn12 1.911 . S
O11 H13 0.841 1_565 S
Zn12 O11 1.911 . S
Zn12 O25 1.970 . S
Zn12 O41 1.981 . S
Zn12 O43 1.945 . S
H13 O11 0.841 1_545 S
Zn14 O15 1.933 1_556 S
Zn14 O27 1.985 . S
Zn14 O35 1.955 . S
O15 Zn14 1.933 1_554 S
O15 H16 0.841 1_545 S
O15 Zn17 1.911 . S
H16 O15 0.841 1_565 S
Zn17 O15 1.911 . S
Zn17 O28 1.970 . S
Zn17 O38 1.981 . S
Zn17 O46 1.945 . S
C18 O19 1.246 . S
C18 O35 1.276 1_565 S
O19 C18 1.246 . S
O20 Zn0 1.985 . S
O20 C30 1.245 1_556 S
O21 Zn1 1.970 . S
O21 C30 1.263 . S
O22 Zn7 1.985 . S
O22 C34 1.245 1_556 S
O23 Zn6 1.970 . S
O23 C34 1.263 . S
O24 Zn10 1.985 . S
O24 C39 1.245 1_556 S
O25 Zn12 1.970 . S
O25 C39 1.263 . S
C26 O37 1.262 1_455 S
C26 O38 1.245 . S
O27 Zn14 1.985 . S
O27 C45 1.245 1_556 S
O28 Zn17 1.970 . S
O28 C45 1.263 . S
O29 Zn7 1.955 . S
O29 C48 1.276 1_455 S
C30 O20 1.245 1_554 S
C30 O21 1.263 . S
O31 Zn0 1.955 . S
O31 C50 1.276 1_655 S
C32 O40 1.262 1_655 S
C32 O41 1.245 . S
O33 C4 1.276 1_565 S
O33 Zn10 1.955 . S
C34 O22 1.245 1_554 S
C34 O23 1.263 . S
O35 Zn14 1.955 . S
O35 C18 1.276 1_545 S
C36 O43 1.262 1_545 S
C36 O44 1.245 . S
O37 Zn1 1.945 . S
O37 C26 1.262 1_655 S
O38 Zn17 1.981 . S
O38 C26 1.245 . S
C39 O24 1.245 1_554 S
C39 O25 1.263 . S
O40 Zn6 1.945 . S
O40 C32 1.262 1_455 S
O41 Zn12 1.981 . S
O41 C32 1.245 . S
C42 O46 1.262 1_565 S
C42 O47 1.245 . S
O43 Zn12 1.945 . S
O43 C36 1.262 1_565 S
O44 Zn1 1.981 . S
O44 C36 1.245 . S
C45 O27 1.245 1_554 S
C45 O28 1.263 . S
O46 Zn17 1.945 . S
O46 C42 1.262 1_545 S
O47 Zn6 1.981 . S
O47 C42 1.245 . S
C48 O29 1.276 1_655 S
C48 O49 1.246 . S
O49 C48 1.246 . S
C50 O31 1.276 1_455 S
C50 O51 1.246 . S
O51 C50 1.246 . S
Zn52 O54 1.933 . S
Zn52 O72 1.985 . S
Zn52 O83 1.955 . S
Zn53 O54 1.911 . S
Zn53 O73 1.970 . S
Zn53 O89 1.945 . S
Zn53 O96 1.981 . S
O54 Zn52 1.933 . S
O54 Zn53 1.911 . S
O54 H55 0.841 . S
H55 O54 0.841 . S
C56 O57 1.246 . S
C56 O85 1.276 . S
O57 C56 1.246 . S
Zn58 O60 1.911 . S
Zn58 O75 1.970 . S
Zn58 O92 1.945 . S
Zn58 O99 1.981 . S
Zn59 O60 1.933 . S
Zn59 O74 1.985 . S
Zn59 O81 1.955 . S
O60 Zn58 1.911 . S
O60 Zn59 1.933 . S
O60 H61 0.841 . S
H61 O60 0.841 . S
Zn62 O63 1.933 . S
Zn62 O76 1.985 . S
Zn62 O85 1.955 . S
O63 Zn62 1.933 . S
O63 Zn64 1.911 . S
O63 H65 0.841 . S
Zn64 O63 1.911 . S
Zn64 O77 1.970 . S
Zn64 O93 1.981 . S
Zn64 O95 1.945 . S
H65 O63 0.841 . S
Zn66 O67 1.933 . S
Zn66 O79 1.985 . S
Zn66 O87 1.955 . S
O67 Zn66 1.933 . S
O67 H68 0.841 . S
O67 Zn69 1.911 . S
H68 O67 0.841 . S
Zn69 O67 1.911 . S
Zn69 O80 1.970 . S
Zn69 O90 1.981 . S
Zn69 O98 1.945 . S
C70 O71 1.246 . S
C70 O87 1.276 . S
O71 C70 1.246 . S
O72 Zn52 1.985 . S
O72 C82 1.245 . S
O73 Zn53 1.970 . S
O73 C82 1.263 . S
O74 Zn59 1.985 . S
O74 C86 1.245 . S
O75 Zn58 1.970 . S
O75 C86 1.263 . S
O76 Zn62 1.985 . S
O76 C91 1.245 . S
O77 Zn64 1.970 . S
O77 C91 1.263 . S
C78 O89 1.262 . S
C78 O90 1.245 . S
O79 Zn66 1.985 . S
O79 C97 1.245 . S
O80 Zn69 1.970 . S
O80 C97 1.263 . S
O81 Zn59 1.955 . S
O81 C100 1.276 . S
C82 O72 1.245 . S
C82 O73 1.263 . S
O83 Zn52 1.955 . S
O83 C102 1.276 . S
C84 O92 1.262 . S
C84 O93 1.245 . S
O85 C56 1.276 . S
O85 Zn62 1.955 . S
C86 O74 1.245 . S
C86 O75 1.263 . S
O87 Zn66 1.955 . S
O87 C70 1.276 . S
C88 O95 1.262 . S
C88 O96 1.245 . S
O89 Zn53 1.945 . S
O89 C78 1.262 . S
O90 Zn69 1.981 . S
O90 C78 1.245 . S
C91 O76 1.245 . S
C91 O77 1.263 . S
O92 Zn58 1.945 . S
O92 C84 1.262 . S
O93 Zn64 1.981 . S
O93 C84 1.245 . S
C94 O98 1.262 . S
C94 O99 1.245 . S
O95 Zn64 1.945 . S
O95 C88 1.262 . S
O96 Zn53 1.981 . S
O96 C88 1.245 . S
C97 O79 1.245 . S
C97 O80 1.263 . S
O98 Zn69 1.945 . S
O98 C94 1.262 . S
O99 Zn58 1.981 . S
O99 C94 1.245 . S
C100 O81 1.276 . S
C100 O101 1.246 . S
O101 C100 1.246 . S
C102 O83 1.276 . S
C102 O103 1.246 . S
O103 C102 1.246 . S
H104 C107 0.929 . S
H105 C110 0.929 . S
H106 C112 0.930 . S
C107 H104 0.929 . S
C107 C108 1.398 1_554 S
C107 C109 1.396 . S
C108 C107 1.398 1_556 S
C108 C112 1.407 . S
C109 C107 1.396 . S
C109 C110 1.394 . S
C110 H105 0.929 . S
C110 C109 1.394 . S
C110 C111 1.382 1_554 S
C111 C110 1.382 1_556 S
C111 C112 1.392 . S
C111 N113 1.420 . S
C112 H106 0.930 . S
C112 C108 1.407 . S
C112 C111 1.392 . S
N113 C111 1.420 . S
N113 C114 1.244 1_556 S
C114 N113 1.244 1_554 S
H115 C118 0.929 . S
H116 C121 0.929 . S
H117 C123 0.930 . S
C118 H115 0.929 . S
C118 C119 1.398 1_554 S
C118 C120 1.396 . S
C119 C118 1.398 1_556 S
C119 C123 1.407 . S
C120 C118 1.396 . S
C120 C121 1.394 . S
C121 H116 0.929 . S
C121 C120 1.394 . S
C121 C122 1.382 . S
C122 C121 1.382 . S
C122 C123 1.392 1_554 S
C122 N124 1.420 1_554 S
C123 H117 0.930 . S
C123 C119 1.407 . S
C123 C122 1.392 1_556 S
N124 C122 1.420 1_556 S
N124 C125 1.244 1_556 S
C125 N124 1.244 1_554 S
H126 C129 0.929 . S
H127 C132 0.929 . S
H128 C134 0.930 . S
C129 H126 0.929 . S
C129 C130 1.398 . S
C129 C131 1.396 1_554 S
C130 C129 1.398 . S
C130 C134 1.407 . S
C131 C129 1.396 1_556 S
C131 C132 1.394 . S
C132 H127 0.929 . S
C132 C131 1.394 . S
C132 C133 1.382 1_556 S
C133 C132 1.382 1_554 S
C133 C134 1.392 . S
C133 N135 1.420 . S
C134 H128 0.930 . S
C134 C130 1.407 . S
C134 C133 1.392 . S
N135 C133 1.420 . S
N135 C136 1.244 . S
C136 N135 1.244 . S
H137 C140 0.929 . S
H138 C143 0.929 . S
H139 C145 0.930 . S
C140 H137 0.929 . S
C140 C141 1.398 . S
C140 C142 1.396 1_554 S
C141 C140 1.398 . S
C141 C145 1.407 . S
C142 C140 1.396 1_556 S
C142 C143 1.394 . S
C143 H138 0.929 . S
C143 C142 1.394 . S
C143 C144 1.382 1_556 S
C144 C143 1.382 1_554 S
C144 C145 1.392 . S
C144 N146 1.420 . S
C145 H139 0.930 . S
C145 C141 1.407 . S
C145 C144 1.392 . S
N146 C144 1.420 . S
N146 C147 1.244 1_554 S
C147 N146 1.244 1_556 S
H148 C151 0.929 . S
H149 C154 0.929 . S
H150 C156 0.930 . S
C151 H148 0.929 . S
C151 C152 1.398 . S
C151 C153 1.396 . S
C152 C151 1.398 . S
C152 C156 1.407 . S
C153 C151 1.396 . S
C153 C154 1.394 . S
C154 H149 0.929 . S
C154 C153 1.394 . S
C154 C155 1.382 . S
C155 C154 1.382 . S
C155 C156 1.392 . S
C155 N157 1.420 . S
C156 H150 0.930 . S
C156 C152 1.407 . S
C156 C155 1.392 . S
N157 C155 1.420 . S
N157 C158 1.244 . S
C158 N157 1.244 . S
H159 C162 0.929 . S
H160 C165 0.929 . S
H161 C167 0.930 . S
C162 H159 0.929 . S
C162 C163 1.398 . S
C162 C164 1.396 . S
C163 C162 1.398 . S
C163 C167 1.407 . S
C164 C162 1.396 . S
C164 C165 1.394 . S
C165 H160 0.929 . S
C165 C164 1.394 . S
C165 C166 1.382 . S
C166 C165 1.382 . S
C166 C167 1.392 . S
C166 N168 1.420 . S
C167 H161 0.930 . S
C167 C163 1.407 . S
C167 C166 1.392 . S
N168 C166 1.420 . S
N168 C169 1.244 . S
C169 N168 1.244 . S
H170 C173 0.929 . S
H171 C176 0.929 . S
H172 C178 0.930 . S
C173 H170 0.929 . S
C173 C174 1.398 . S
C173 C175 1.396 . S
C174 C173 1.398 . S
C174 C178 1.407 . S
C175 C173 1.396 . S
C175 C176 1.394 . S
C176 H171 0.929 . S
C176 C175 1.394 . S
C176 C177 1.382 . S
C177 C176 1.382 . S
C177 C178 1.392 . S
C177 N179 1.420 . S
C178 H172 0.930 . S
C178 C174 1.407 . S
C178 C177 1.392 . S
N179 C177 1.420 . S
N179 C180 1.244 . S
C180 N179 1.244 . S
H181 C184 0.929 . S
H182 C187 0.929 . S
H183 C189 0.930 . S
C184 H181 0.929 . S
C184 C185 1.398 . S
C184 C186 1.396 . S
C185 C184 1.398 . S
C185 C189 1.407 . S
C186 C184 1.396 . S
C186 C187 1.394 . S
C187 H182 0.929 . S
C187 C186 1.394 . S
C187 C188 1.382 . S
C188 C187 1.382 . S
C188 C189 1.392 . S
C188 N190 1.420 . S
C189 H183 0.930 . S
C189 C185 1.407 . S
C189 C188 1.392 . S
N190 C188 1.420 . S
N190 C191 1.244 . S
C191 N190 1.244 . S
C192 C193 1.391 . S
C192 C194 1.394 . S
C192 H208 0.931 . S
C193 C192 1.391 . S
C193 C197 1.376 . S
C194 C192 1.394 . S
C194 C195 1.369 . S
C194 C198 1.531 . S
C195 C194 1.369 . S
C195 C196 1.410 . S
C195 C203 1.503 . S
C196 C195 1.410 . S
C196 C197 1.392 . S
C196 C199 1.511 . S
C197 C193 1.376 . S
C197 C196 1.392 . S
C197 H209 0.929 . S
C198 C194 1.531 . S
C198 H210 0.960 . S
C198 H211 0.962 1_554 S
C198 H212 0.960 . S
C199 C196 1.511 . S
C199 H213 0.961 . S
C199 H214 0.961 . S
C199 H215 0.961 . S
C200 C201 1.370 1_556 S
C200 C202 1.363 . S
C200 H216 0.931 . S
C201 C200 1.370 1_554 S
C201 C205 1.408 . S
C202 C200 1.363 . S
C202 C203 1.370 1_556 S
C202 C206 1.524 . S
C203 C195 1.503 . S
C203 C202 1.370 1_554 S
C203 C204 1.403 . S
C204 C203 1.403 . S
C204 C205 1.404 . S
C204 C207 1.539 . S
C205 C201 1.408 . S
C205 C204 1.404 . S
C205 H217 0.930 . S
C206 C202 1.524 . S
C206 H218 0.956 . S
C206 H219 0.961 . S
C206 H220 0.961 . S
C207 C204 1.539 . S
C207 H221 0.958 . S
C207 H222 0.961 . S
C207 H223 0.960 . S
H208 C192 0.931 . S
H209 C197 0.929 . S
H210 C198 0.960 . S
H211 C198 0.962 1_556 S
H212 C198 0.960 . S
H213 C199 0.961 . S
H214 C199 0.961 . S
H215 C199 0.961 . S
H216 C200 0.931 . S
H217 C205 0.930 . S
H218 C206 0.956 . S
H219 C206 0.961 . S
H220 C206 0.961 . S
H221 C207 0.958 . S
H222 C207 0.961 . S
H223 C207 0.960 . S
C224 C225 1.391 1_556 S
C224 C226 1.394 . S
C224 H240 0.931 . S
C225 C224 1.391 1_554 S
C225 C229 1.376 . S
C226 C224 1.394 . S
C226 C227 1.369 1_556 S
C226 C230 1.531 . S
C227 C226 1.369 1_554 S
C227 C228 1.410 . S
C227 C235 1.503 . S
C228 C227 1.410 . S
C228 C229 1.392 . S
C228 C231 1.511 . S
C229 C225 1.376 . S
C229 C228 1.392 . S
C229 H241 0.929 . S
C230 C226 1.531 . S
C230 H242 0.960 . S
C230 H243 0.962 . S
C230 H244 0.960 . S
C231 C228 1.511 . S
C231 H245 0.961 . S
C231 H246 0.961 . S
C231 H247 0.961 . S
C232 C233 1.361 1_556 S
C232 C234 1.363 . S
C232 H248 0.941 . S
C233 C232 1.361 1_554 S
C233 C237 1.408 . S
C234 C232 1.363 . S
C234 C235 1.366 1_556 S
C234 C238 1.528 . S
C235 C227 1.503 . S
C235 C234 1.366 1_554 S
C235 C236 1.403 . S
C236 C235 1.403 . S
C236 C237 1.404 . S
C236 C239 1.539 . S
C237 C233 1.408 . S
C237 C236 1.404 . S
C237 H249 0.930 . S
C238 C234 1.528 . S
C238 H250 0.956 . S
C238 H251 0.956 1_556 S
C238 H252 0.961 . S
C239 C236 1.539 . S
C239 H253 0.958 . S
C239 H254 0.961 . S
C239 H255 0.960 . S
H240 C224 0.931 . S
H241 C229 0.929 . S
H242 C230 0.960 . S
H243 C230 0.962 . S
H244 C230 0.960 . S
H245 C231 0.961 . S
H246 C231 0.961 . S
H247 C231 0.961 . S
H248 C232 0.941 . S
H249 C237 0.930 . S
H250 C238 0.956 . S
H251 C238 0.956 1_554 S
H252 C238 0.961 . S
H253 C239 0.958 . S
H254 C239 0.961 . S
H255 C239 0.960 . S
C256 C257 1.391 . S
C256 C258 1.393 1_554 S
C256 H272 0.931 . S
C257 C256 1.391 . S
C257 C261 1.376 1_554 S
C258 C256 1.393 1_556 S
C258 C259 1.369 . S
C258 C262 1.531 . S
C259 C258 1.369 . S
C259 C260 1.410 . S
C259 C267 1.503 . S
C260 C259 1.410 . S
C260 C261 1.392 . S
C260 C263 1.511 . S
C261 C257 1.376 1_556 S
C261 C260 1.392 . S
C261 H273 0.929 . S
C262 C258 1.531 . S
C262 H274 0.960 . S
C262 H275 0.962 1_556 S
C262 H276 0.960 . S
C263 C260 1.511 . S
C263 H277 0.961 1_556 S
C263 H278 0.961 1_556 S
C263 H279 0.961 . S
C264 C265 1.370 . S
C264 C266 1.363 . S
C264 H280 0.931 . S
C265 C264 1.370 . S
C265 C269 1.408 1_554 S
C266 C264 1.363 . S
C266 C267 1.370 1_554 S
C266 C270 1.524 . S
C267 C259 1.503 . S
C267 C266 1.370 1_556 S
C267 C268 1.403 . S
C268 C267 1.403 . S
C268 C269 1.404 . S
C268 C271 1.539 . S
C269 C265 1.408 1_556 S
C269 C268 1.404 . S
C269 H281 0.930 . S
C270 C266 1.524 . S
C270 H282 0.956 . S
C270 H283 0.961 . S
C270 H284 0.961 . S
C271 C268 1.539 . S
C271 H285 0.958 . S
C271 H286 0.961 . S
C271 H287 0.960 . S
H272 C256 0.931 . S
H273 C261 0.929 . S
H274 C262 0.960 . S
H275 C262 0.962 1_554 S
H276 C262 0.960 . S
H277 C263 0.961 1_554 S
H278 C263 0.961 1_554 S
H279 C263 0.961 . S
H280 C264 0.931 . S
H281 C269 0.930 . S
H282 C270 0.956 . S
H283 C270 0.961 . S
H284 C270 0.961 . S
H285 C271 0.958 . S
H286 C271 0.961 . S
H287 C271 0.960 . S
C288 C289 1.391 . S
C288 C290 1.394 . S
C288 H304 0.931 . S
C289 C288 1.391 . S
C289 C293 1.376 1_554 S
C290 C288 1.394 . S
C290 C291 1.369 . S
C290 C294 1.531 . S
C291 C290 1.369 . S
C291 C292 1.410 1_554 S
C291 C299 1.503 . S
C292 C291 1.410 1_556 S
C292 C293 1.392 . S
C292 C295 1.511 . S
C293 C289 1.376 1_556 S
C293 C292 1.392 . S
C293 H305 0.929 . S
C294 C290 1.531 . S
C294 H306 0.960 . S
C294 H307 0.962 . S
C294 H308 0.960 . S
C295 C292 1.511 . S
C295 H309 0.961 . S
C295 H310 0.961 . S
C295 H311 0.961 1_556 S
C296 C297 1.370 1_556 S
C296 C298 1.363 . S
C296 H312 0.931 . S
C297 C296 1.370 1_554 S
C297 C301 1.408 . S
C298 C296 1.363 . S
C298 C299 1.370 1_556 S
C298 C302 1.524 . S
C299 C291 1.503 . S
C299 C298 1.370 1_554 S
C299 C300 1.403 . S
C300 C299 1.403 . S
C300 C301 1.404 . S
C300 C303 1.539 . S
C301 C297 1.408 . S
C301 C300 1.404 . S
C301 H313 0.930 . S
C302 C298 1.524 . S
C302 H314 0.956 . S
C302 H315 0.961 . S
C302 H316 0.961 . S
C303 C300 1.539 . S
C303 H317 0.958 . S
C303 H318 0.961 . S
C303 H319 0.960 . S
H304 C288 0.931 . S
H305 C293 0.929 . S
H306 C294 0.960 . S
H307 C294 0.962 . S
H308 C294 0.960 . S
H309 C295 0.961 . S
H310 C295 0.961 . S
H311 C295 0.961 1_554 S
H312 C296 0.931 . S
H313 C301 0.930 . S
H314 C302 0.956 . S
H315 C302 0.961 . S
H316 C302 0.961 . S
H317 C303 0.958 . S
H318 C303 0.961 . S
H319 C303 0.960 . S
C320 C321 1.391 . S
C320 C322 1.394 . S
C320 H336 0.931 . S
C321 C320 1.391 . S
C321 C325 1.376 . S
C322 C320 1.394 . S
C322 C323 1.369 . S
C322 C326 1.531 . S
C323 C322 1.369 . S
C323 C324 1.410 . S
C323 C331 1.503 . S
C324 C323 1.410 . S
C324 C325 1.392 . S
C324 C327 1.511 . S
C325 C321 1.376 . S
C325 C324 1.392 . S
C325 H337 0.929 . S
C326 C322 1.531 . S
C326 H338 0.960 . S
C326 H339 0.962 . S
C326 H340 0.960 . S
C327 C324 1.511 . S
C327 H341 0.961 . S
C327 H342 0.961 . S
C327 H343 0.961 . S
C328 C329 1.370 . S
C328 C330 1.363 . S
C328 H344 0.931 . S
C329 C328 1.370 . S
C329 C333 1.408 . S
C330 C328 1.363 . S
C330 C331 1.370 . S
C330 C334 1.524 . S
C331 C323 1.503 . S
C331 C330 1.370 . S
C331 C332 1.403 . S
C332 C331 1.403 . S
C332 C333 1.404 . S
C332 C335 1.539 . S
C333 C329 1.408 . S
C333 C332 1.404 . S
C333 H345 0.930 . S
C334 C330 1.524 . S
C334 H346 0.956 . S
C334 H347 0.961 . S
C334 H348 0.961 . S
C335 C332 1.539 . S
C335 H349 0.958 . S
C335 H350 0.961 . S
C335 H351 0.960 . S
H336 C320 0.931 . S
H337 C325 0.929 . S
H338 C326 0.960 . S
H339 C326 0.962 . S
H340 C326 0.960 . S
H341 C327 0.961 . S
H342 C327 0.961 . S
H343 C327 0.961 . S
H344 C328 0.931 . S
H345 C333 0.930 . S
H346 C334 0.956 . S
H347 C334 0.961 . S
H348 C334 0.961 . S
H349 C335 0.958 . S
H350 C335 0.961 . S
H351 C335 0.960 . S
C352 C353 1.391 . S
C352 C354 1.394 . S
C352 H368 0.931 . S
C353 C352 1.391 . S
C353 C357 1.376 . S
C354 C352 1.394 . S
C354 C355 1.369 . S
C354 C358 1.531 . S
C355 C354 1.369 . S
C355 C356 1.410 . S
C355 C363 1.503 . S
C356 C355 1.410 . S
C356 C357 1.392 . S
C356 C359 1.511 . S
C357 C353 1.376 . S
C357 C356 1.392 . S
C357 H369 0.929 . S
C358 C354 1.531 . S
C358 H370 0.960 . S
C358 H371 0.962 . S
C358 H372 0.960 . S
C359 C356 1.511 . S
C359 H373 0.961 . S
C359 H374 0.961 . S
C359 H375 0.961 . S
C360 C361 1.370 . S
C360 C362 1.363 . S
C360 H376 0.931 . S
C361 C360 1.370 . S
C361 C365 1.408 . S
C362 C360 1.363 . S
C362 C363 1.370 . S
C362 C366 1.524 . S
C363 C355 1.503 . S
C363 C362 1.370 . S
C363 C364 1.403 . S
C364 C363 1.403 . S
C364 C365 1.404 . S
C364 C367 1.539 . S
C365 C361 1.408 . S
C365 C364 1.404 . S
C365 H377 0.930 . S
C366 C362 1.524 . S
C366 H378 0.956 . S
C366 H379 0.961 . S
C366 H380 0.961 . S
C367 C364 1.539 . S
C367 H381 0.958 . S
C367 H382 0.961 . S
C367 H383 0.960 . S
H368 C352 0.931 . S
H369 C357 0.929 . S
H370 C358 0.960 . S
H371 C358 0.962 . S
H372 C358 0.960 . S
H373 C359 0.961 . S
H374 C359 0.961 . S
H375 C359 0.961 . S
H376 C360 0.931 . S
H377 C365 0.930 . S
H378 C366 0.956 . S
H379 C366 0.961 . S
H380 C366 0.961 . S
H381 C367 0.958 . S
H382 C367 0.961 . S
H383 C367 0.960 . S
C384 C385 1.391 . S
C384 C386 1.394 . S
C384 H400 0.931 . S
C385 C384 1.391 . S
C385 C389 1.376 . S
C386 C384 1.394 . S
C386 C387 1.369 . S
C386 C390 1.531 . S
C387 C386 1.369 . S
C387 C388 1.410 . S
C387 C395 1.503 . S
C388 C387 1.410 . S
C388 C389 1.392 . S
C388 C391 1.511 . S
C389 C385 1.376 . S
C389 C388 1.392 . S
C389 H401 0.929 . S
C390 C386 1.531 . S
C390 H402 0.960 . S
C390 H403 0.962 . S
C390 H404 0.960 . S
C391 C388 1.511 . S
C391 H405 0.961 . S
C391 H406 0.961 . S
C391 H407 0.961 . S
C392 C393 1.370 . S
C392 C394 1.363 . S
C392 H408 0.931 . S
C393 C392 1.370 . S
C393 C397 1.408 . S
C394 C392 1.363 . S
C394 C395 1.370 . S
C394 C398 1.524 . S
C395 C387 1.503 . S
C395 C394 1.370 . S
C395 C396 1.403 . S
C396 C395 1.403 . S
C396 C397 1.404 . S
C396 C399 1.539 . S
C397 C393 1.408 . S
C397 C396 1.404 . S
C397 H409 0.930 . S
C398 C394 1.524 . S
C398 H410 0.956 . S
C398 H411 0.961 . S
C398 H412 0.961 . S
C399 C396 1.539 . S
C399 H413 0.958 . S
C399 H414 0.961 . S
C399 H415 0.960 . S
H400 C384 0.931 . S
H401 C389 0.929 . S
H402 C390 0.960 . S
H403 C390 0.962 . S
H404 C390 0.960 . S
H405 C391 0.961 . S
H406 C391 0.961 . S
H407 C391 0.961 . S
H408 C392 0.931 . S
H409 C397 0.930 . S
H410 C398 0.956 . S
H411 C398 0.961 . S
H412 C398 0.961 . S
H413 C399 0.958 . S
H414 C399 0.961 . S
H415 C399 0.960 . S
C416 C417 1.391 . S
C416 C418 1.394 . S
C416 H432 0.931 . S
C417 C416 1.391 . S
C417 C421 1.376 . S
C418 C416 1.394 . S
C418 C419 1.369 . S
C418 C422 1.531 . S
C419 C418 1.369 . S
C419 C420 1.410 . S
C419 C427 1.503 . S
C420 C419 1.410 . S
C420 C421 1.392 . S
C420 C423 1.511 . S
C421 C417 1.376 . S
C421 C420 1.392 . S
C421 H433 0.929 . S
C422 C418 1.531 . S
C422 H434 0.960 . S
C422 H435 0.962 . S
C422 H436 0.960 . S
C423 C420 1.511 . S
C423 H437 0.961 . S
C423 H438 0.961 . S
C423 H439 0.961 . S
C424 C425 1.370 . S
C424 C426 1.363 . S
C424 H440 0.931 . S
C425 C424 1.370 . S
C425 C429 1.408 . S
C426 C424 1.363 . S
C426 C427 1.370 . S
C426 C430 1.524 . S
C427 C419 1.503 . S
C427 C426 1.370 . S
C427 C428 1.403 . S
C428 C427 1.403 . S
C428 C429 1.404 . S
C428 C431 1.539 . S
C429 C425 1.408 . S
C429 C428 1.404 . S
C429 H441 0.930 . S
C430 C426 1.524 . S
C430 H442 0.956 . S
C430 H443 0.961 . S
C430 H444 0.961 . S
C431 C428 1.539 . S
C431 H445 0.958 . S
C431 H446 0.961 . S
C431 H447 0.960 . S
H432 C416 0.931 . S
H433 C421 0.929 . S
H434 C422 0.960 . S
H435 C422 0.962 . S
H436 C422 0.960 . S
H437 C423 0.961 . S
H438 C423 0.961 . S
H439 C423 0.961 . S
H440 C424 0.931 . S
H441 C429 0.930 . S
H442 C430 0.956 . S
H443 C430 0.961 . S
H444 C430 0.961 . S
H445 C431 0.958 . S
H446 C431 0.961 . S
H447 C431 0.960 . S
C448 C449 1.391 . S
C448 C450 1.394 . S
C448 H464 0.931 . S
C449 C448 1.391 . S
C449 C453 1.376 . S
C450 C448 1.394 . S
C450 C451 1.369 . S
C450 C454 1.531 . S
C451 C450 1.369 . S
C451 C452 1.410 . S
C451 C459 1.503 . S
C452 C451 1.410 . S
C452 C453 1.392 . S
C452 C455 1.511 . S
C453 C449 1.376 . S
C453 C452 1.392 . S
C453 H465 0.929 . S
C454 C450 1.531 . S
C454 H466 0.960 . S
C454 H467 0.962 . S
C454 H468 0.960 . S
C455 C452 1.511 . S
C455 H469 0.961 . S
C455 H470 0.961 . S
C455 H471 0.961 . S
C456 C457 1.370 . S
C456 C458 1.363 . S
C456 H472 0.931 . S
C457 C456 1.370 . S
C457 C461 1.408 . S
C458 C456 1.363 . S
C458 C459 1.370 . S
C458 C462 1.524 . S
C459 C451 1.503 . S
C459 C458 1.370 . S
C459 C460 1.403 . S
C460 C459 1.403 . S
C460 C461 1.404 . S
C460 C463 1.539 . S
C461 C457 1.408 . S
C461 C460 1.404 . S
C461 H473 0.930 . S
C462 C458 1.524 . S
C462 H474 0.956 . S
C462 H475 0.961 . S
C462 H476 0.961 . S
C463 C460 1.539 . S
C463 H477 0.958 . S
C463 H478 0.961 . S
C463 H479 0.960 . S
H464 C448 0.931 . S
H465 C453 0.929 . S
H466 C454 0.960 . S
H467 C454 0.962 . S
H468 C454 0.960 . S
H469 C455 0.961 . S
H470 C455 0.961 . S
H471 C455 0.961 . S
H472 C456 0.931 . S
H473 C461 0.930 . S
H474 C462 0.956 . S
H475 C462 0.961 . S
H476 C462 0.961 . S
H477 C463 0.958 . S
H478 C463 0.961 . S
H479 C463 0.960 . S
C480 C481 1.391 . S
C480 C482 1.394 . S
C480 H496 0.931 . S
C481 C480 1.391 . S
C481 C485 1.376 . S
C482 C480 1.394 . S
C482 C483 1.369 . S
C482 C486 1.531 . S
C483 C482 1.369 . S
C483 C484 1.410 . S
C483 C491 1.503 . S
C484 C483 1.410 . S
C484 C485 1.392 . S
C484 C487 1.511 . S
C485 C481 1.376 . S
C485 C484 1.392 . S
C485 H497 0.929 . S
C486 C482 1.531 . S
C486 H498 0.960 . S
C486 H499 0.962 . S
C486 H500 0.960 1_545 S
C487 C484 1.511 . S
C487 H501 0.961 . S
C487 H502 0.961 . S
C487 H503 0.961 . S
C488 C489 1.370 . S
C488 C490 1.363 . S
C488 H504 0.931 . S
C489 C488 1.370 . S
C489 C493 1.408 . S
C490 C488 1.363 . S
C490 C491 1.370 . S
C490 C494 1.524 . S
C491 C483 1.503 . S
C491 C490 1.370 . S
C491 C492 1.403 . S
C492 C491 1.403 . S
C492 C493 1.404 . S
C492 C495 1.539 . S
C493 C489 1.408 . S
C493 C492 1.404 . S
C493 H505 0.930 . S
C494 C490 1.524 . S
C494 H506 0.956 . S
C494 H507 0.961 . S
C494 H508 0.961 . S
C495 C492 1.539 . S
C495 H509 0.958 1_545 S
C495 H510 0.961 . S
C495 H511 0.960 . S
H496 C480 0.931 . S
H497 C485 0.929 . S
H498 C486 0.960 . S
H499 C486 0.962 . S
H500 C486 0.960 1_565 S
H501 C487 0.961 . S
H502 C487 0.961 . S
H503 C487 0.961 . S
H504 C488 0.931 . S
H505 C493 0.930 . S
H506 C494 0.956 . S
H507 C494 0.961 . S
H508 C494 0.961 . S
H509 C495 0.958 1_565 S
H510 C495 0.961 . S
H511 C495 0.960 . S
C512 C513 1.391 . S
C512 C514 1.394 . S
C512 H528 0.931 . S
C513 C512 1.391 . S
C513 C517 1.376 . S
C514 C512 1.394 . S
C514 C515 1.369 . S
C514 C518 1.531 . S
C515 C514 1.369 . S
C515 C516 1.410 . S
C515 C523 1.503 . S
C516 C515 1.410 . S
C516 C517 1.392 . S
C516 C519 1.511 1_655 S
C517 C513 1.376 . S
C517 C516 1.392 . S
C517 H529 0.929 1_655 S
C518 C514 1.531 . S
C518 H530 0.960 . S
C518 H531 0.962 . S
C518 H532 0.960 . S
C519 C516 1.511 1_455 S
C519 H533 0.961 . S
C519 H534 0.971 . S
C519 H535 0.961 . S
C520 C521 1.370 . S
C520 C522 1.363 . S
C520 H536 0.931 . S
C521 C520 1.370 . S
C521 C525 1.408 . S
C522 C520 1.363 . S
C522 C523 1.370 . S
C522 C526 1.524 . S
C523 C515 1.503 . S
C523 C522 1.370 . S
C523 C524 1.403 . S
C524 C523 1.403 . S
C524 C525 1.404 . S
C524 C527 1.539 . S
C525 C521 1.408 . S
C525 C524 1.404 . S
C525 H537 0.930 . S
C526 C522 1.524 . S
C526 H538 0.956 . S
C526 H539 0.961 . S
C526 H540 0.961 . S
C527 C524 1.539 . S
C527 H541 0.958 . S
C527 H542 0.961 . S
C527 H543 0.960 . S
H528 C512 0.931 . S
H529 C517 0.929 1_455 S
H530 C518 0.960 . S
H531 C518 0.962 . S
H532 C518 0.960 . S
H533 C519 0.961 . S
H534 C519 0.971 . S
H535 C519 0.961 . S
H536 C520 0.931 . S
H537 C525 0.930 . S
H538 C526 0.956 . S
H539 C526 0.961 . S
H540 C526 0.961 . S
H541 C527 0.958 . S
H542 C527 0.961 . S
H543 C527 0.960 . S
C544 C545 1.391 . S
C544 C546 1.394 . S
C544 H560 0.931 . S
C545 C544 1.391 . S
C545 C549 1.376 . S
C546 C544 1.394 . S
C546 C547 1.369 . S
C546 C550 1.531 . S
C547 C546 1.369 . S
C547 C548 1.410 . S
C547 C555 1.503 . S
C548 C547 1.410 . S
C548 C549 1.392 . S
C548 C551 1.511 . S
C549 C545 1.376 . S
C549 C548 1.392 . S
C549 H561 0.929 . S
C550 C546 1.531 . S
C550 H562 0.960 . S
C550 H563 0.962 . S
C550 H564 0.960 . S
C551 C548 1.511 . S
C551 H565 0.953 1_565 S
C551 H566 0.961 . S
C551 H567 0.961 1_565 S
C552 C553 1.370 . S
C552 C554 1.363 . S
C552 H568 0.931 . S
C553 C552 1.370 . S
C553 C557 1.408 . S
C554 C552 1.363 . S
C554 C555 1.370 . S
C554 C558 1.524 . S
C555 C547 1.503 . S
C555 C554 1.370 . S
C555 C556 1.403 . S
C556 C555 1.403 . S
C556 C557 1.404 . S
C556 C559 1.539 . S
C557 C553 1.408 . S
C557 C556 1.404 . S
C557 H569 0.930 . S
C558 C554 1.524 . S
C558 H570 0.956 . S
C558 H571 0.961 . S
C558 H572 0.961 . S
C559 C556 1.539 . S
C559 H573 0.958 . S
C559 H574 0.961 1_565 S
C559 H575 0.967 . S
H560 C544 0.931 . S
H561 C549 0.929 . S
H562 C550 0.960 . S
H563 C550 0.962 . S
H564 C550 0.960 . S
H565 C551 0.953 1_545 S
H566 C551 0.961 . S
H567 C551 0.961 1_545 S
H568 C552 0.931 . S
H569 C557 0.930 . S
H570 C558 0.956 . S
H571 C558 0.961 . S
H572 C558 0.961 . S
H573 C559 0.958 . S
H574 C559 0.961 1_545 S
H575 C559 0.967 . S
C576 C577 1.391 . S
C576 C578 1.394 . S
C576 H592 0.931 . S
C577 C576 1.391 . S
C577 C581 1.376 . S
C578 C576 1.394 . S
C578 C579 1.369 . S
C578 C582 1.531 . S
C579 C578 1.369 . S
C579 C580 1.410 . S
C579 C587 1.503 . S
C580 C579 1.410 . S
C580 C581 1.392 . S
C580 C583 1.511 . S
C581 C577 1.376 . S
C581 C580 1.392 . S
C581 H593 0.929 . S
C582 C578 1.531 . S
C582 H594 0.960 . S
C582 H595 0.962 . S
C582 H596 0.960 . S
C583 C580 1.511 . S
C583 H597 0.961 . S
C583 H598 0.961 . S
C583 H599 0.961 . S
C584 C585 1.370 . S
C584 C586 1.363 . S
C584 H600 0.931 . S
C585 C584 1.370 . S
C585 C589 1.408 . S
C586 C584 1.363 . S
C586 C587 1.370 . S
C586 C590 1.524 . S
C587 C579 1.503 . S
C587 C586 1.370 . S
C587 C588 1.403 . S
C588 C587 1.403 . S
C588 C589 1.404 . S
C588 C591 1.526 1_565 S
C589 C585 1.408 . S
C589 C588 1.404 . S
C589 H601 0.930 . S
C590 C586 1.524 . S
C590 H602 0.956 . S
C590 H603 0.961 . S
C590 H604 0.961 . S
C591 C588 1.526 1_545 S
C591 H605 0.964 . S
C591 H606 0.968 . S
C591 H607 0.961 . S
H592 C576 0.931 . S
H593 C581 0.929 . S
H594 C582 0.960 . S
H595 C582 0.962 . S
H596 C582 0.960 . S
H597 C583 0.961 . S
H598 C583 0.961 . S
H599 C583 0.961 . S
H600 C584 0.931 . S
H601 C589 0.930 . S
H602 C590 0.956 . S
H603 C590 0.961 . S
H604 C590 0.961 . S
H605 C591 0.964 . S
H606 C591 0.968 . S
H607 C591 0.961 . S
C608 C609 1.391 . S
C608 C610 1.394 . S
C608 H624 0.931 . S
C609 C608 1.391 . S
C609 C613 1.376 . S
C610 C608 1.394 . S
C610 C611 1.369 . S
C610 C614 1.531 . S
C611 C610 1.369 . S
C611 C612 1.410 . S
C611 C619 1.503 . S
C612 C611 1.410 . S
C612 C613 1.392 . S
C612 C615 1.511 1_455 S
C613 C609 1.376 . S
C613 C612 1.392 . S
C613 H625 0.929 1_455 S
C614 C610 1.531 . S
C614 H626 0.960 . S
C614 H627 0.962 . S
C614 H628 0.960 . S
C615 C612 1.511 1_655 S
C615 H629 0.961 . S
C615 H630 0.961 1_655 S
C615 H631 0.961 . S
C616 C617 1.370 . S
C616 C618 1.363 . S
C616 H632 0.931 . S
C617 C616 1.370 . S
C617 C621 1.408 . S
C618 C616 1.363 . S
C618 C619 1.370 . S
C618 C622 1.524 . S
C619 C611 1.503 . S
C619 C618 1.370 . S
C619 C620 1.403 . S
C620 C619 1.403 . S
C620 C621 1.404 . S
C620 C623 1.539 . S
C621 C617 1.408 . S
C621 C620 1.404 . S
C621 H633 0.930 . S
C622 C618 1.524 . S
C622 H634 0.956 . S
C622 H635 0.961 . S
C622 H636 0.961 . S
C623 C620 1.539 . S
C623 H637 0.958 . S
C623 H638 0.961 . S
C623 H639 0.960 . S
H624 C608 0.931 . S
H625 C613 0.929 1_655 S
H626 C614 0.960 . S
H627 C614 0.962 . S
H628 C614 0.960 . S
H629 C615 0.961 . S
H630 C615 0.961 1_455 S
H631 C615 0.961 . S
H632 C616 0.931 . S
H633 C621 0.930 . S
H634 C622 0.956 . S
H635 C622 0.961 . S
H636 C622 0.961 . S
H637 C623 0.958 . S
H638 C623 0.961 . S
H639 C623 0.960 . S
C640 C641 1.391 . S
C640 C642 1.394 . S
C640 H656 0.931 . S
C641 C640 1.391 . S
C641 C645 1.376 . S
C642 C640 1.394 . S
C642 C643 1.369 . S
C642 C646 1.531 . S
C643 C642 1.369 . S
C643 C644 1.410 . S
C643 C651 1.503 . S
C644 C643 1.410 . S
C644 C645 1.392 . S
C644 C647 1.511 . S
C645 C641 1.376 . S
C645 C644 1.392 . S
C645 H657 0.929 . S
C646 C642 1.531 . S
C646 H658 0.960 . S
C646 H659 0.962 . S
C646 H660 0.960 . S
C647 C644 1.511 . S
C647 H661 0.961 1_545 S
C647 H662 0.961 . S
C647 H663 0.961 . S
C648 C649 1.370 . S
C648 C650 1.363 . S
C648 H664 0.931 . S
C649 C648 1.370 . S
C649 C653 1.408 . S
C650 C648 1.363 . S
C650 C651 1.370 . S
C650 C654 1.524 . S
C651 C643 1.503 . S
C651 C650 1.370 . S
C651 C652 1.403 . S
C652 C651 1.403 . S
C652 C653 1.404 . S
C652 C655 1.539 . S
C653 C649 1.408 . S
C653 C652 1.404 . S
C653 H665 0.930 . S
C654 C650 1.524 . S
C654 H666 0.956 . S
C654 H667 0.961 . S
C654 H668 0.961 . S
C655 C652 1.539 . S
C655 H669 0.958 . S
C655 H670 0.961 . S
C655 H671 0.960 . S
H656 C640 0.931 . S
H657 C645 0.929 . S
H658 C646 0.960 . S
H659 C646 0.962 . S
H660 C646 0.960 . S
H661 C647 0.961 1_565 S
H662 C647 0.961 . S
H663 C647 0.961 . S
H664 C648 0.931 . S
H665 C653 0.930 . S
H666 C654 0.956 . S
H667 C654 0.961 . S
H668 C654 0.961 . S
H669 C655 0.958 . S
H670 C655 0.961 . S
H671 C655 0.960 . S
C672 C673 1.391 . S
C672 C674 1.394 . S
C672 H688 0.931 . S
C673 C672 1.391 . S
C673 C677 1.376 . S
C674 C672 1.394 . S
C674 C675 1.369 . S
C674 C678 1.531 . S
C675 C674 1.369 . S
C675 C676 1.410 . S
C675 C683 1.503 . S
C676 C675 1.410 . S
C676 C677 1.392 . S
C676 C679 1.511 1_655 S
C677 C673 1.376 . S
C677 C676 1.392 . S
C677 H689 0.929 1_655 S
C678 C674 1.531 . S
C678 H690 0.960 . S
C678 H691 0.962 . S
C678 H692 0.960 . S
C679 C676 1.511 1_455 S
C679 H693 0.961 . S
C679 H694 0.961 1_455 S
C679 H695 0.961 . S
C680 C681 1.370 . S
C680 C682 1.363 . S
C680 H696 0.931 . S
C681 C680 1.370 . S
C681 C685 1.408 . S
C682 C680 1.363 . S
C682 C683 1.370 . S
C682 C686 1.524 . S
C683 C675 1.503 . S
C683 C682 1.370 . S
C683 C684 1.403 . S
C684 C683 1.403 . S
C684 C685 1.404 . S
C684 C687 1.539 . S
C685 C681 1.408 . S
C685 C684 1.404 . S
C685 H697 0.930 . S
C686 C682 1.524 . S
C686 H698 0.956 . S
C686 H699 0.961 . S
C686 H700 0.961 . S
C687 C684 1.539 . S
C687 H701 0.958 . S
C687 H702 0.961 . S
C687 H703 0.960 . S
H688 C672 0.931 . S
H689 C677 0.929 1_455 S
H690 C678 0.960 . S
H691 C678 0.962 . S
H692 C678 0.960 . S
H693 C679 0.961 . S
H694 C679 0.961 1_655 S
H695 C679 0.961 . S
H696 C680 0.931 . S
H697 C685 0.930 . S
H698 C686 0.956 . S
H699 C686 0.961 . S
H700 C686 0.961 . S
H701 C687 0.958 . S
H702 C687 0.961 . S
H703 C687 0.960 . S
C704 C705 1.391 . S
C704 C706 1.394 . S
C704 H720 0.931 . S
C705 C704 1.391 . S
C705 C709 1.376 . S
C706 C704 1.394 . S
C706 C707 1.369 . S
C706 C710 1.531 . S
C707 C706 1.369 . S
C707 C708 1.410 . S
C707 C715 1.503 . S
C708 C707 1.410 . S
C708 C709 1.392 . S
C708 C711 1.511 . S
C709 C705 1.376 . S
C709 C708 1.392 . S
C709 H721 0.929 . S
C710 C706 1.531 . S
C710 H722 0.960 . S
C710 H723 0.962 . S
C710 H724 0.960 . S
C711 C708 1.511 . S
C711 H725 0.961 . S
C711 H726 0.961 . S
C711 H727 0.961 . S
C712 C713 1.370 . S
C712 C714 1.363 . S
C712 H728 0.931 . S
C713 C712 1.370 . S
C713 C717 1.408 . S
C714 C712 1.363 . S
C714 C715 1.370 . S
C714 C718 1.524 . S
C715 C707 1.503 . S
C715 C714 1.370 . S
C715 C716 1.403 . S
C716 C715 1.403 . S
C716 C717 1.404 . S
C716 C719 1.539 . S
C717 C713 1.408 . S
C717 C716 1.404 . S
C717 H729 0.930 . S
C718 C714 1.524 . S
C718 H730 0.956 . S
C718 H731 0.961 . S
C718 H732 0.961 . S
C719 C716 1.539 . S
C719 H733 0.958 . S
C719 H734 0.961 . S
C719 H735 0.960 . S
H720 C704 0.931 . S
H721 C709 0.929 . S
H722 C710 0.960 . S
H723 C710 0.962 . S
H724 C710 0.960 . S
H725 C711 0.961 . S
H726 C711 0.961 . S
H727 C711 0.961 . S
H728 C712 0.931 . S
H729 C717 0.930 . S
H730 C718 0.956 . S
H731 C718 0.961 . S
H732 C718 0.961 . S
H733 C719 0.958 . S
H734 C719 0.961 . S
H735 C719 0.960 . S
C736 C737 1.391 . S
C736 C738 1.394 . S
C736 H752 0.931 . S
C737 C736 1.391 . S
C737 C741 1.376 . S
C738 C736 1.394 . S
C738 C739 1.369 . S
C738 C742 1.531 . S
C739 C738 1.369 . S
C739 C740 1.410 . S
C739 C747 1.503 . S
C740 C739 1.410 . S
C740 C741 1.392 . S
C740 C743 1.511 . S
C741 C737 1.376 . S
C741 C740 1.392 . S
C741 H753 0.929 . S
C742 C738 1.531 . S
C742 H754 0.960 . S
C742 H755 0.962 . S
C742 H756 0.960 . S
C743 C740 1.511 . S
C743 H757 0.961 . S
C743 H758 0.961 . S
C743 H759 0.961 . S
C744 C745 1.370 . S
C744 C746 1.363 . S
C744 H760 0.931 . S
C745 C744 1.370 . S
C745 C749 1.408 . S
C746 C744 1.363 . S
C746 C747 1.370 . S
C746 C750 1.524 . S
C747 C739 1.503 . S
C747 C746 1.370 . S
C747 C748 1.403 . S
C748 C747 1.403 . S
C748 C749 1.404 . S
C748 C751 1.539 . S
C749 C745 1.408 . S
C749 C748 1.404 . S
C749 H761 0.930 . S
C750 C746 1.524 . S
C750 H762 0.956 . S
C750 H763 0.961 . S
C750 H764 0.961 . S
C751 C748 1.539 . S
C751 H765 0.958 . S
C751 H766 0.961 . S
C751 H767 0.960 . S
H752 C736 0.931 . S
H753 C741 0.929 . S
H754 C742 0.960 . S
H755 C742 0.962 . S
H756 C742 0.960 . S
H757 C743 0.961 . S
H758 C743 0.961 . S
H759 C743 0.961 . S
H760 C744 0.931 . S
H761 C749 0.930 . S
H762 C750 0.956 . S
H763 C750 0.961 . S
H764 C750 0.961 . S
H765 C751 0.958 . S
H766 C751 0.961 . S
H767 C751 0.960 . S
C768 C769 1.391 . S
C768 C770 1.394 . S
C768 H784 0.931 . S
C769 C768 1.391 . S
C769 C773 1.376 . S
C770 C768 1.394 . S
C770 C771 1.369 . S
C770 C774 1.531 . S
C771 C770 1.369 . S
C771 C772 1.410 . S
C771 C779 1.503 . S
C772 C771 1.410 . S
C772 C773 1.392 . S
C772 C775 1.511 . S
C773 C769 1.376 . S
C773 C772 1.392 . S
C773 H785 0.929 . S
C774 C770 1.531 . S
C774 H786 0.960 . S
C774 H787 0.962 . S
C774 H788 0.960 . S
C775 C772 1.511 . S
C775 H789 0.961 . S
C775 H790 0.961 . S
C775 H791 0.961 . S
C776 C777 1.370 . S
C776 C778 1.363 . S
C776 H792 0.931 . S
C777 C776 1.370 . S
C777 C781 1.408 . S
C778 C776 1.363 . S
C778 C779 1.370 . S
C778 C782 1.524 . S
C779 C771 1.503 . S
C779 C778 1.370 . S
C779 C780 1.403 . S
C780 C779 1.403 . S
C780 C781 1.404 . S
C780 C783 1.539 . S
C781 C777 1.408 . S
C781 C780 1.404 . S
C781 H793 0.930 . S
C782 C778 1.524 . S
C782 H794 0.956 . S
C782 H795 0.961 . S
C782 H796 0.961 . S
C783 C780 1.539 . S
C783 H797 0.958 . S
C783 H798 0.961 . S
C783 H799 0.960 . S
H784 C768 0.931 . S
H785 C773 0.929 . S
H786 C774 0.960 . S
H787 C774 0.962 . S
H788 C774 0.960 . S
H789 C775 0.961 . S
H790 C775 0.961 . S
H791 C775 0.961 . S
H792 C776 0.931 . S
H793 C781 0.930 . S
H794 C782 0.956 . S
H795 C782 0.961 . S
H796 C782 0.961 . S
H797 C783 0.958 . S
H798 C783 0.961 . S
H799 C783 0.960 . S
C800 C801 1.391 . S
C800 C802 1.394 . S
C800 H816 0.931 . S
C801 C800 1.391 . S
C801 C805 1.376 . S
C802 C800 1.394 . S
C802 C803 1.369 . S
C802 C806 1.531 . S
C803 C802 1.369 . S
C803 C804 1.410 . S
C803 C811 1.503 . S
C804 C803 1.410 . S
C804 C805 1.392 . S
C804 C807 1.511 . S
C805 C801 1.376 . S
C805 C804 1.392 . S
C805 H817 0.929 . S
C806 C802 1.531 . S
C806 H818 0.960 . S
C806 H819 0.962 . S
C806 H820 0.960 . S
C807 C804 1.511 . S
C807 H821 0.961 . S
C807 H822 0.961 . S
C807 H823 0.961 . S
C808 C809 1.370 . S
C808 C810 1.363 . S
C808 H824 0.931 . S
C809 C808 1.370 . S
C809 C813 1.408 . S
C810 C808 1.363 . S
C810 C811 1.370 . S
C810 C814 1.524 . S
C811 C803 1.503 . S
C811 C810 1.370 . S
C811 C812 1.403 . S
C812 C811 1.403 . S
C812 C813 1.404 . S
C812 C815 1.539 . S
C813 C809 1.408 . S
C813 C812 1.404 . S
C813 H825 0.930 . S
C814 C810 1.524 . S
C814 H826 0.956 . S
C814 H827 0.961 . S
C814 H828 0.961 . S
C815 C812 1.539 . S
C815 H829 0.958 . S
C815 H830 0.961 . S
C815 H831 0.960 . S
H816 C800 0.931 . S
H817 C805 0.929 . S
H818 C806 0.960 . S
H819 C806 0.962 . S
H820 C806 0.960 . S
H821 C807 0.961 . S
H822 C807 0.961 . S
H823 C807 0.961 . S
H824 C808 0.931 . S
H825 C813 0.930 . S
H826 C814 0.956 . S
H827 C814 0.961 . S
H828 C814 0.961 . S
H829 C815 0.958 . S
H830 C815 0.961 . S
H831 C815 0.960 . S
C832 C833 1.391 . S
C832 C834 1.394 . S
C832 H848 0.931 . S
C833 C832 1.391 . S
C833 C837 1.376 . S
C834 C832 1.394 . S
C834 C835 1.369 . S
C834 C838 1.531 . S
C835 C834 1.369 . S
C835 C836 1.410 . S
C835 C843 1.503 . S
C836 C835 1.410 . S
C836 C837 1.392 . S
C836 C839 1.511 . S
C837 C833 1.376 . S
C837 C836 1.392 . S
C837 H849 0.929 . S
C838 C834 1.531 . S
C838 H850 0.960 . S
C838 H851 0.962 . S
C838 H852 0.960 . S
C839 C836 1.511 . S
C839 H853 0.961 . S
C839 H854 0.961 . S
C839 H855 0.961 . S
C840 C841 1.370 . S
C840 C842 1.363 . S
C840 H856 0.931 . S
C841 C840 1.370 . S
C841 C845 1.408 . S
C842 C840 1.363 . S
C842 C843 1.370 . S
C842 C846 1.524 . S
C843 C835 1.503 . S
C843 C842 1.370 . S
C843 C844 1.403 . S
C844 C843 1.403 . S
C844 C845 1.404 . S
C844 C847 1.539 . S
C845 C841 1.408 . S
C845 C844 1.404 . S
C845 H857 0.930 . S
C846 C842 1.524 . S
C846 H858 0.956 . S
C846 H859 0.961 . S
C846 H860 0.961 . S
C847 C844 1.539 . S
C847 H861 0.958 . S
C847 H862 0.961 . S
C847 H863 0.960 . S
H848 C832 0.931 . S
H849 C837 0.929 . S
H850 C838 0.960 . S
H851 C838 0.962 . S
H852 C838 0.960 . S
H853 C839 0.961 . S
H854 C839 0.961 . S
H855 C839 0.961 . S
H856 C840 0.931 . S
H857 C845 0.930 . S
H858 C846 0.956 . S
H859 C846 0.961 . S
H860 C846 0.961 . S
H861 C847 0.958 . S
H862 C847 0.961 . S
H863 C847 0.960 . S
C864 C865 1.391 . S
C864 C866 1.394 . S
C864 H880 0.931 . S
C865 C864 1.391 . S
C865 C869 1.376 . S
C866 C864 1.394 . S
C866 C867 1.369 . S
C866 C870 1.531 . S
C867 C866 1.369 . S
C867 C868 1.410 . S
C867 C875 1.503 . S
C868 C867 1.410 . S
C868 C869 1.392 . S
C868 C871 1.511 . S
C869 C865 1.376 . S
C869 C868 1.392 . S
C869 H881 0.929 . S
C870 C866 1.531 . S
C870 H882 0.960 . S
C870 H883 0.962 . S
C870 H884 0.960 . S
C871 C868 1.511 . S
C871 H885 0.961 . S
C871 H886 0.961 . S
C871 H887 0.961 . S
C872 C873 1.370 . S
C872 C874 1.363 . S
C872 H888 0.931 . S
C873 C872 1.370 . S
C873 C877 1.408 . S
C874 C872 1.363 . S
C874 C875 1.370 . S
C874 C878 1.524 . S
C875 C867 1.503 . S
C875 C874 1.370 . S
C875 C876 1.403 . S
C876 C875 1.403 . S
C876 C877 1.404 . S
C876 C879 1.539 . S
C877 C873 1.408 . S
C877 C876 1.404 . S
C877 H889 0.930 . S
C878 C874 1.524 . S
C878 H890 0.956 . S
C878 H891 0.961 . S
C878 H892 0.961 . S
C879 C876 1.539 . S
C879 H893 0.958 . S
C879 H894 0.961 . S
C879 H895 0.960 . S
H880 C864 0.931 . S
H881 C869 0.929 . S
H882 C870 0.960 . S
H883 C870 0.962 . S
H884 C870 0.960 . S
H885 C871 0.961 . S
H886 C871 0.961 . S
H887 C871 0.961 . S
H888 C872 0.931 . S
H889 C877 0.930 . S
H890 C878 0.956 . S
H891 C878 0.961 . S
H892 C878 0.961 . S
H893 C879 0.958 . S
H894 C879 0.961 . S
H895 C879 0.960 . S
C896 C897 1.391 . S
C896 C898 1.394 . S
C896 H912 0.931 . S
C897 C896 1.391 . S
C897 C901 1.376 . S
C898 C896 1.394 . S
C898 C899 1.369 . S
C898 C902 1.531 . S
C899 C898 1.369 . S
C899 C900 1.410 . S
C899 C907 1.503 . S
C900 C899 1.410 . S
C900 C901 1.392 . S
C900 C903 1.511 . S
C901 C897 1.376 . S
C901 C900 1.392 . S
C901 H913 0.929 . S
C902 C898 1.531 . S
C902 H914 0.960 . S
C902 H915 0.962 . S
C902 H916 0.960 . S
C903 C900 1.511 . S
C903 H917 0.961 . S
C903 H918 0.961 . S
C903 H919 0.961 . S
C904 C905 1.370 . S
C904 C906 1.363 . S
C904 H920 0.931 . S
C905 C904 1.370 . S
C905 C909 1.408 . S
C906 C904 1.363 . S
C906 C907 1.370 . S
C906 C910 1.524 . S
C907 C899 1.503 . S
C907 C906 1.370 . S
C907 C908 1.403 . S
C908 C907 1.403 . S
C908 C909 1.404 . S
C908 C911 1.539 . S
C909 C905 1.408 . S
C909 C908 1.404 . S
C909 H921 0.930 . S
C910 C906 1.524 . S
C910 H922 0.956 . S
C910 H923 0.961 . S
C910 H924 0.961 . S
C911 C908 1.539 . S
C911 H925 0.958 . S
C911 H926 0.961 . S
C911 H927 0.960 . S
H912 C896 0.931 . S
H913 C901 0.929 . S
H914 C902 0.960 . S
H915 C902 0.962 . S
H916 C902 0.960 . S
H917 C903 0.961 . S
H918 C903 0.961 . S
H919 C903 0.961 . S
H920 C904 0.931 . S
H921 C909 0.930 . S
H922 C910 0.956 . S
H923 C910 0.961 . S
H924 C910 0.961 . S
H925 C911 0.958 . S
H926 C911 0.961 . S
H927 C911 0.960 . S
C928 C929 1.391 . S
C928 C930 1.394 . S
C928 H944 0.931 . S
C929 C928 1.391 . S
C929 C933 1.376 . S
C930 C928 1.394 . S
C930 C931 1.369 . S
C930 C934 1.531 . S
C931 C930 1.369 . S
C931 C932 1.410 . S
C931 C939 1.503 . S
C932 C931 1.410 . S
C932 C933 1.392 . S
C932 C935 1.511 . S
C933 C929 1.376 . S
C933 C932 1.392 . S
C933 H945 0.929 . S
C934 C930 1.531 . S
C934 H946 0.960 . S
C934 H947 0.962 . S
C934 H948 0.960 . S
C935 C932 1.511 . S
C935 H949 0.961 . S
C935 H950 0.961 . S
C935 H951 0.961 . S
C936 C937 1.370 . S
C936 C938 1.363 . S
C936 H952 0.931 . S
C937 C936 1.370 . S
C937 C941 1.408 . S
C938 C936 1.363 . S
C938 C939 1.370 . S
C938 C942 1.524 . S
C939 C931 1.503 . S
C939 C938 1.370 . S
C939 C940 1.403 . S
C940 C939 1.403 . S
C940 C941 1.404 . S
C940 C943 1.539 . S
C941 C937 1.408 . S
C941 C940 1.404 . S
C941 H953 0.930 . S
C942 C938 1.524 . S
C942 H954 0.956 . S
C942 H955 0.961 . S
C942 H956 0.961 . S
C943 C940 1.539 . S
C943 H957 0.958 . S
C943 H958 0.961 . S
C943 H959 0.960 . S
H944 C928 0.931 . S
H945 C933 0.929 . S
H946 C934 0.960 . S
H947 C934 0.962 . S
H948 C934 0.960 . S
H949 C935 0.961 . S
H950 C935 0.961 . S
H951 C935 0.961 . S
H952 C936 0.931 . S
H953 C941 0.930 . S
H954 C942 0.956 . S
H955 C942 0.961 . S
H956 C942 0.961 . S
H957 C943 0.958 . S
H958 C943 0.961 . S
H959 C943 0.960 . S
C193 C45 1.559 . S
C201 C114 1.571 . S
C225 C30 1.575 . S
C233 C125 1.568 . S
C257 C39 1.559 . S
C265 C136 1.561 . S
C297 C147 1.571 1_554 S
C289 C34 1.552 . S
C321 C97 1.563 . S
C329 C158 1.572 . S
C361 C169 1.572 . S
C353 C82 1.563 . S
C393 C180 1.564 . S
C385 C91 1.553 . S
C425 C191 1.575 . S
C417 C86 1.567 . S
C457 C175 1.549 . S
C449 C26 1.542 . S
C489 C185 1.462 . S
C481 C36 1.427 . S
C521 C152 1.553 . S
C513 C32 1.478 . S
C553 C163 1.517 . S
C545 C42 1.439 . S
C577 C18 1.568 . S
C585 C164 1.642 . S
C617 C174 1.610 . S
C609 C50 1.556 . S
C641 C4 1.666 . S
C649 C186 1.672 . S
C673 C48 1.577 . S
C681 C153 1.589 . S
C713 C131 1.526 . S
C705 C78 1.521 . S
C737 C88 1.493 . S
C745 C142 1.553 . S
C777 C108 1.510 . S
C769 C84 1.505 . S
C809 C119 1.495 . S
C801 C94 1.463 . S
C841 C120 1.654 . S
C833 C70 1.591 . S
C873 C130 1.638 . S
C865 C102 1.527 . S
C897 C56 1.566 . S
C905 C141 1.605 . S
C929 C100 1.597 . S
C937 C109 1.620 . S
