# Generated by pormake.
# Topology ctn, (3,4)-cn, num edge types: 1
# Building blocks:
#     Node 0, Type 0, BuildingBlock: BELTOD_clean_linker_0, # of connection points: 3
#     Node 1, Type 0, BuildingBlock: BELTOD_clean_linker_0, # of connection points: 3
#     Node 2, Type 0, BuildingBlock: BELTOD_clean_linker_0, # of connection points: 3
#     Node 3, Type 0, BuildingBlock: BELTOD_clean_linker_0, # of connection points: 3
#     Node 4, Type 0, BuildingBlock: BELTOD_clean_linker_0, # of connection points: 3
#     Node 5, Type 0, BuildingBlock: BELTOD_clean_linker_0, # of connection points: 3
#     Node 6, Type 0, BuildingBlock: BELTOD_clean_linker_0, # of connection points: 3
#     Node 7, Type 0, BuildingBlock: BELTOD_clean_linker_0, # of connection points: 3
#     Node 8, Type 0, BuildingBlock: BELTOD_clean_linker_0, # of connection points: 3
#     Node 9, Type 0, BuildingBlock: BELTOD_clean_linker_0, # of connection points: 3
#     Node 10, Type 0, BuildingBlock: BELTOD_clean_linker_0, # of connection points: 3
#     Node 11, Type 0, BuildingBlock: BELTOD_clean_linker_0, # of connection points: 3
#     Node 12, Type 0, BuildingBlock: BELTOD_clean_linker_0, # of connection points: 3
#     Node 13, Type 0, BuildingBlock: BELTOD_clean_linker_0, # of connection points: 3
#     Node 14, Type 0, BuildingBlock: BELTOD_clean_linker_0, # of connection points: 3
#     Node 15, Type 0, BuildingBlock: BELTOD_clean_linker_0, # of connection points: 3
#     Node 16, Type 1, BuildingBlock: QUQFOY_clean_sbu_1, # of connection points: 4
#     Node 17, Type 1, BuildingBlock: QUQFOY_clean_sbu_1, # of connection points: 4
#     Node 18, Type 1, BuildingBlock: QUQFOY_clean_sbu_1, # of connection points: 4
#     Node 19, Type 1, BuildingBlock: QUQFOY_clean_sbu_1, # of connection points: 4
#     Node 20, Type 1, BuildingBlock: QUQFOY_clean_sbu_1, # of connection points: 4
#     Node 21, Type 1, BuildingBlock: QUQFOY_clean_sbu_1, # of connection points: 4
#     Node 22, Type 1, BuildingBlock: QUQFOY_clean_sbu_1, # of connection points: 4
#     Node 23, Type 1, BuildingBlock: QUQFOY_clean_sbu_1, # of connection points: 4
#     Node 24, Type 1, BuildingBlock: QUQFOY_clean_sbu_1, # of connection points: 4
#     Node 25, Type 1, BuildingBlock: QUQFOY_clean_sbu_1, # of connection points: 4
#     Node 26, Type 1, BuildingBlock: QUQFOY_clean_sbu_1, # of connection points: 4
#     Node 27, Type 1, BuildingBlock: QUQFOY_clean_sbu_1, # of connection points: 4
#     Edge 28, Type (0, 1), BuildingBlock: AJUNOK_clean_linker_0, # of connection points: 2
#     Edge 29, Type (0, 1), BuildingBlock: AJUNOK_clean_linker_0, # of connection points: 2
#     Edge 30, Type (0, 1), BuildingBlock: AJUNOK_clean_linker_0, # of connection points: 2
#     Edge 31, Type (0, 1), BuildingBlock: AJUNOK_clean_linker_0, # of connection points: 2
#     Edge 32, Type (0, 1), BuildingBlock: AJUNOK_clean_linker_0, # of connection points: 2
#     Edge 33, Type (0, 1), BuildingBlock: AJUNOK_clean_linker_0, # of connection points: 2
#     Edge 34, Type (0, 1), BuildingBlock: AJUNOK_clean_linker_0, # of connection points: 2
#     Edge 35, Type (0, 1), BuildingBlock: AJUNOK_clean_linker_0, # of connection points: 2
#     Edge 36, Type (0, 1), BuildingBlock: AJUNOK_clean_linker_0, # of connection points: 2
#     Edge 37, Type (0, 1), BuildingBlock: AJUNOK_clean_linker_0, # of connection points: 2
#     Edge 38, Type (0, 1), BuildingBlock: AJUNOK_clean_linker_0, # of connection points: 2
#     Edge 39, Type (0, 1), BuildingBlock: AJUNOK_clean_linker_0, # of connection points: 2
#     Edge 40, Type (0, 1), BuildingBlock: AJUNOK_clean_linker_0, # of connection points: 2
#     Edge 41, Type (0, 1), BuildingBlock: AJUNOK_clean_linker_0, # of connection points: 2
#     Edge 42, Type (0, 1), BuildingBlock: AJUNOK_clean_linker_0, # of connection points: 2
#     Edge 43, Type (0, 1), BuildingBlock: AJUNOK_clean_linker_0, # of connection points: 2
#     Edge 44, Type (0, 1), BuildingBlock: AJUNOK_clean_linker_0, # of connection points: 2
#     Edge 45, Type (0, 1), BuildingBlock: AJUNOK_clean_linker_0, # of connection points: 2
#     Edge 46, Type (0, 1), BuildingBlock: AJUNOK_clean_linker_0, # of connection points: 2
#     Edge 47, Type (0, 1), BuildingBlock: AJUNOK_clean_linker_0, # of connection points: 2
#     Edge 48, Type (0, 1), BuildingBlock: AJUNOK_clean_linker_0, # of connection points: 2
#     Edge 49, Type (0, 1), BuildingBlock: AJUNOK_clean_linker_0, # of connection points: 2
#     Edge 50, Type (0, 1), BuildingBlock: AJUNOK_clean_linker_0, # of connection points: 2
#     Edge 51, Type (0, 1), BuildingBlock: AJUNOK_clean_linker_0, # of connection points: 2
#     Edge 52, Type (0, 1), BuildingBlock: AJUNOK_clean_linker_0, # of connection points: 2
#     Edge 53, Type (0, 1), BuildingBlock: AJUNOK_clean_linker_0, # of connection points: 2
#     Edge 54, Type (0, 1), BuildingBlock: AJUNOK_clean_linker_0, # of connection points: 2
#     Edge 55, Type (0, 1), BuildingBlock: AJUNOK_clean_linker_0, # of connection points: 2
#     Edge 56, Type (0, 1), BuildingBlock: AJUNOK_clean_linker_0, # of connection points: 2
#     Edge 57, Type (0, 1), BuildingBlock: AJUNOK_clean_linker_0, # of connection points: 2
#     Edge 58, Type (0, 1), BuildingBlock: AJUNOK_clean_linker_0, # of connection points: 2
#     Edge 59, Type (0, 1), BuildingBlock: AJUNOK_clean_linker_0, # of connection points: 2
#     Edge 60, Type (0, 1), BuildingBlock: AJUNOK_clean_linker_0, # of connection points: 2
#     Edge 61, Type (0, 1), BuildingBlock: AJUNOK_clean_linker_0, # of connection points: 2
#     Edge 62, Type (0, 1), BuildingBlock: AJUNOK_clean_linker_0, # of connection points: 2
#     Edge 63, Type (0, 1), BuildingBlock: AJUNOK_clean_linker_0, # of connection points: 2
#     Edge 64, Type (0, 1), BuildingBlock: AJUNOK_clean_linker_0, # of connection points: 2
#     Edge 65, Type (0, 1), BuildingBlock: AJUNOK_clean_linker_0, # of connection points: 2
#     Edge 66, Type (0, 1), BuildingBlock: AJUNOK_clean_linker_0, # of connection points: 2
#     Edge 67, Type (0, 1), BuildingBlock: AJUNOK_clean_linker_0, # of connection points: 2
#     Edge 68, Type (0, 1), BuildingBlock: AJUNOK_clean_linker_0, # of connection points: 2
#     Edge 69, Type (0, 1), BuildingBlock: AJUNOK_clean_linker_0, # of connection points: 2
#     Edge 70, Type (0, 1), BuildingBlock: AJUNOK_clean_linker_0, # of connection points: 2
#     Edge 71, Type (0, 1), BuildingBlock: AJUNOK_clean_linker_0, # of connection points: 2
#     Edge 72, Type (0, 1), BuildingBlock: AJUNOK_clean_linker_0, # of connection points: 2
#     Edge 73, Type (0, 1), BuildingBlock: AJUNOK_clean_linker_0, # of connection points: 2
#     Edge 74, Type (0, 1), BuildingBlock: AJUNOK_clean_linker_0, # of connection points: 2
#     Edge 75, Type (0, 1), BuildingBlock: AJUNOK_clean_linker_0, # of connection points: 2
# Relax obj value: 0.038
# Max RMSD: 0.153
# Mean RMSD: 0.068
data_MOF--net-ctn--node1-QUQFOY_clean_sbu_1--node2-BELTOD_clean_linker_0--edge1-AJUNOK_clean_linker_0
_symmetry_space_group_name_H-M    P1
_symmetry_Int_Tables_number       1
_symmetry_cell_setting            triclinic
loop_
_symmetry_equiv_pos_as_xyz
'x, y, z'
_cell_length_a     47.785376
_cell_length_b     48.172966
_cell_length_c     47.780187
_cell_angle_alpha  92.304263
_cell_angle_beta   90.182012
_cell_angle_gamma 95.83636
loop_
_atom_site_label
_atom_site_type_symbol
_atom_site_fract_x
_atom_site_fract_y
_atom_site_fract_z
_atom_type_partial_charge
P0 P 0.07346 0.11206 0.08406 0.0
H1 H 0.07287 0.07637 0.13161 0.0
H2 H 0.03575 0.0588 0.16346 0.0
H3 H 0.97667 0.10521 0.1213 0.0
H4 H 0.01387 0.12299 0.08964 0.0
H5 H 0.12819 0.10824 0.05878 0.0
H6 H 0.15107 0.06923 0.03787 0.0
H7 H 0.07737 0.01299 0.05454 0.0
H8 H 0.05433 0.05216 0.0751 0.0
H9 H 0.07923 0.17132 0.0714 0.0
H10 H 0.03769 0.09426 0.03566 0.0
O11 O 0.09773 0.13283 0.10219 0.0
H12 H 0.05861 0.19727 0.03491 0.0
H13 H 0.01705 0.1202 -0.00104 0.0
C14 C 0.04601 0.10042 0.10787 0.0
C15 C 0.05193 0.08274 0.1292 0.0
C16 C 0.03073 0.07266 0.14728 0.0
C17 C 0.00328 0.08029 0.14442 0.0
C18 C 0.99764 0.09891 0.12376 0.0
C19 C 0.01887 0.10891 0.10557 0.0
C20 C 0.08987 0.08298 0.06905 0.0
C21 C 0.11698 0.08752 0.058 0.0
C22 C 0.12993 0.0653 0.04592 0.0
C23 C 0.1159 0.03819 0.0446 0.0
C24 C 0.08864 0.03369 0.0555 0.0
C25 C 0.07555 0.05603 0.06732 0.0
C26 C 0.06007 0.13089 0.05608 0.0
C27 C 0.06594 0.15995 0.05552 0.0
C28 C 0.05423 0.17474 0.03465 0.0
C29 C 0.03619 0.16071 0.01425 0.0
C30 C 0.03069 0.13151 0.01462 0.0
C31 C 0.04256 0.11671 0.03543 0.0
P32 P 0.2997 0.70541 0.19715 0.0
H33 H 0.31852 0.72674 0.14366 0.0
H34 H 0.30189 0.76153 0.11375 0.0
H35 H 0.23997 0.77968 0.17585 0.0
H36 H 0.25824 0.74622 0.20657 0.0
H37 H 0.35028 0.6825 0.21611 0.0
H38 H 0.38401 0.69692 0.25387 0.0
H39 H 0.34171 0.77065 0.2713 0.0
H40 H 0.30779 0.75604 0.23361 0.0
H41 H 0.23828 0.69743 0.18772 0.0
H42 H 0.29828 0.67208 0.24679 0.0
O43 O 0.31208 0.68173 0.17533 0.0
H44 H 0.19995 0.6737 0.21399 0.0
H45 H 0.26048 0.6462 0.27149 0.0
C46 C 0.28891 0.73319 0.17684 0.0
C47 C 0.30155 0.7384 0.15096 0.0
C48 C 0.29189 0.75819 0.13382 0.0
C49 C 0.26924 0.77306 0.14216 0.0
C50 C 0.25754 0.76877 0.16881 0.0
C51 C 0.2677 0.74934 0.18623 0.0
C52 C 0.32691 0.71851 0.2217 0.0
C53 C 0.3486 0.70207 0.22763 0.0
C54 C 0.36769 0.71017 0.24931 0.0
C55 C 0.36546 0.73492 0.26529 0.0
C56 C 0.34406 0.75168 0.25897 0.0
C57 C 0.32476 0.74338 0.23744 0.0
C58 C 0.2711 0.68789 0.21615 0.0
C59 C 0.24324 0.68726 0.20662 0.0
C60 C 0.22132 0.6733 0.22146 0.0
C61 C 0.22699 0.65876 0.24545 0.0
C62 C 0.25512 0.65838 0.25406 0.0
C63 C 0.27689 0.67296 0.23968 0.0
P64 P 0.99208 0.51086 0.05884 0.0
H65 H 0.00796 0.49703 0.00161 0.0
H66 H 0.00454 0.45337 0.97347 0.0
H67 H 0.96509 0.40979 0.04258 0.0
H68 H 0.96759 0.45391 0.07034 0.0
H69 H 0.98191 0.56946 0.05547 0.0
H70 H 0.93951 0.5921 0.04528 0.0
H71 H 0.89019 0.51187 0.04355 0.0
H72 H 0.93244 0.48932 0.05394 0.0
H73 H 0.01973 0.4681 0.0876 0.0
H74 H 0.98368 0.5445 0.10961 0.0
O75 O 0.01899 0.53147 0.04641 0.0
H76 H 0.03397 0.46421 0.13617 0.0
H77 H -3e-05 0.54201 0.15773 0.0
C78 C 0.989 0.47848 0.03839 0.0
C79 C 0.99875 0.47808 0.0108 0.0
C80 C 0.99689 0.45309 0.99478 0.0
C81 C 0.98532 0.42804 0.00615 0.0
C82 C 0.9744 0.42873 0.03342 0.0
C83 C 0.97605 0.45384 0.04935 0.0
C84 C 0.96044 0.52764 0.05469 0.0
C85 C 0.96194 0.55676 0.05311 0.0
C86 C 0.93775 0.5697 0.04747 0.0
C87 C 0.9118 0.55361 0.04324 0.0
C88 C 0.91011 0.52462 0.0463 0.0
C89 C 0.93424 0.51174 0.05218 0.0
C90 C -0.00027 0.5061 0.09511 0.0
C91 C 0.01441 0.48381 0.10294 0.0
C92 C 0.02311 0.48191 0.13068 0.0
C93 C 0.01846 0.50298 0.15083 0.0
C94 C 0.00356 0.52519 0.14288 0.0
C95 C 0.99428 0.5267 0.11529 0.0
P96 P 0.67591 0.82982 0.19714 0.0
H97 H 0.70938 0.87289 0.16747 0.0
H98 H 0.7482 0.90753 0.18212 0.0
H99 H 0.74873 0.87192 0.26362 0.0
H100 H 0.70963 0.83754 0.249 0.0
H101 H 0.65201 0.7997 0.14742 0.0
H102 H 0.66584 0.76031 0.11926 0.0
H103 H 0.73408 0.75242 0.1771 0.0
H104 H 0.72082 0.79318 0.20459 0.0
H105 H 0.63219 0.85688 0.2258 0.0
H106 H 0.67501 0.78321 0.23565 0.0
O107 O 0.6563 0.84712 0.17625 0.0
H108 H 0.60453 0.84617 0.26741 0.0
H109 H 0.64775 0.77275 0.27809 0.0
C110 C 0.70634 0.85304 0.20732 0.0
C111 C 0.718 0.87242 0.18842 0.0
C112 C 0.74029 0.89205 0.19673 0.0
C113 C 0.75145 0.89235 0.22399 0.0
C114 C 0.74033 0.87225 0.24257 0.0
C115 C 0.71803 0.85261 0.23422 0.0
C116 C 0.6857 0.79963 0.17776 0.0
C117 C 0.67004 0.78964 0.15403 0.0
C118 C 0.67782 0.76689 0.13808 0.0
C119 C 0.7012 0.7533 0.14581 0.0
C120 C 0.71636 0.7628 0.17023 0.0
C121 C 0.70872 0.78594 0.18604 0.0
C122 C 0.65527 0.8206 0.22737 0.0
C123 C 0.63564 0.83837 0.23693 0.0
C124 C 0.62012 0.83243 0.26097 0.0
C125 C 0.62439 0.8089 0.2763 0.0
C126 C 0.64412 0.79105 0.26669 0.0
C127 C 0.65961 0.79697 0.24243 0.0
P128 P 0.05915 0.92716 0.43952 0.0
H129 H 0.11027 0.94638 0.40969 0.0
H130 H 0.14582 0.98613 0.41784 0.0
H131 H 0.10131 0.01132 0.49169 0.0
H132 H 0.06521 0.9722 0.48269 0.0
H133 H 0.00716 0.89404 0.45425 0.0
H134 H 0.99279 0.86855 0.49593 0.0
H135 H 0.07159 0.89918 0.53636 0.0
H136 H 0.0865 0.923 0.49405 0.0
H137 H 0.04057 0.92195 0.38117 0.0
H138 H 0.0163 0.96323 0.45775 0.0
O139 O 0.07246 0.90283 0.4192 0.0
H140 H 0.00543 0.94415 0.3553 0.0
H141 H 0.98136 0.98623 0.43166 0.0
C142 C 0.08567 0.95588 0.44613 0.0
C143 C 0.10832 0.96032 0.42777 0.0
C144 C 0.12868 0.98296 0.43252 0.0
C145 C 0.12671 0.00145 0.4558 0.0
C146 C 0.10348 0.99734 0.47368 0.0
C147 C 0.08298 0.97488 0.4687 0.0
C148 C 0.04754 0.91105 0.47133 0.0
C149 C 0.02122 0.89543 0.47219 0.0
C150 C 0.01304 0.88091 0.49604 0.0
C151 C 0.03111 0.88171 0.51944 0.0
C152 C 0.0574 0.89765 0.51854 0.0
C153 C 0.06573 0.91174 0.49449 0.0
C154 C 0.03087 0.94082 0.42138 0.0
C155 C 0.02751 0.93562 0.39247 0.0
C156 C 0.00763 0.94857 0.37765 0.0
C157 C 0.99108 0.96735 0.39141 0.0
C158 C 0.99391 0.97192 0.42056 0.0
C159 C 0.01381 0.95882 0.43543 0.0
P160 P 0.25814 0.7628 0.77297 0.0
H161 H 0.29388 0.7946 0.81517 0.0
H162 H 0.28371 0.81723 0.86045 0.0
H163 H 0.19554 0.78933 0.8494 0.0
H164 H 0.20568 0.76619 0.8047 0.0
H165 H 0.27095 0.71876 0.73277 0.0
H166 H 0.29034 0.67401 0.73787 0.0
H167 H 0.29398 0.68896 0.82761 0.0
H168 H 0.27393 0.73304 0.8225 0.0
H169 H 0.23251 0.80425 0.7418 0.0
H170 H 0.21323 0.71761 0.76059 0.0
O171 O 0.28317 0.78312 0.7572 0.0
H172 H 0.18484 0.8053 0.72322 0.0
H173 H 0.16579 0.71838 0.74142 0.0
C174 C 0.25055 0.77916 0.80629 0.0
C175 C 0.27238 0.79335 0.8225 0.0
C176 C 0.26659 0.80613 0.84832 0.0
C177 C 0.23884 0.80499 0.85818 0.0
C178 C 0.21704 0.79061 0.84206 0.0
C179 C 0.2229 0.77746 0.81647 0.0
C180 C 0.27079 0.72918 0.7772 0.0
C181 C 0.27577 0.71228 0.75354 0.0
C182 C 0.28713 0.68688 0.75647 0.0
C183 C 0.29405 0.67814 0.78314 0.0
C184 C 0.2888 0.69508 0.8068 0.0
C185 C 0.27734 0.72038 0.80386 0.0
C186 C 0.22652 0.76075 0.75216 0.0
C187 C 0.21834 0.78519 0.74099 0.0
C188 C 0.1911 0.78582 0.73048 0.0
C189 C 0.17155 0.76206 0.7313 0.0
C190 C 0.18034 0.73713 0.74099 0.0
C191 C 0.20756 0.73655 0.75158 0.0
P192 P 0.9777 0.52443 0.55107 0.0
H193 H 0.03529 0.54323 0.53659 0.0
H194 H 0.06 0.54693 0.49181 0.0
H195 H 0.98378 0.51357 0.44831 0.0
H196 H 0.95907 0.51072 0.49276 0.0
H197 H 0.96927 0.54266 0.60884 0.0
H198 H 0.96561 0.5887 0.63142 0.0
H199 H 0.97986 0.62682 0.5517 0.0
H200 H 0.98264 0.58078 0.52917 0.0
H201 H 0.95361 0.46648 0.54682 0.0
H202 H 0.92417 0.54802 0.54305 0.0
O203 O 0.99496 0.50488 0.57188 0.0
H204 H 0.90578 0.44475 0.53741 0.0
H205 H 0.87626 0.52645 0.53457 0.0
C206 C 0.99546 0.52662 0.51804 0.0
C207 C 0.02394 0.5368 0.51737 0.0
C208 C 0.03799 0.53887 0.49185 0.0
C209 C 0.0237 0.53077 0.4666 0.0
C210 C 0.99514 0.52052 0.46738 0.0
C211 C 0.98108 0.51861 0.49289 0.0
C212 C 0.97694 0.55846 0.56755 0.0
C213 C 0.97176 0.56098 0.59631 0.0
C214 C 0.96955 0.58721 0.60912 0.0
C215 C 0.97225 0.61126 0.59326 0.0
C216 C 0.97719 0.60858 0.56434 0.0
C217 C 0.97926 0.58233 0.55154 0.0
C218 C 0.94225 0.50877 0.54628 0.0
C219 C 0.93678 0.47967 0.54439 0.0
C220 C 0.90952 0.46732 0.53897 0.0
C221 C 0.88739 0.48395 0.53517 0.0
C222 C 0.893 0.51315 0.537 0.0
C223 C 0.92031 0.52547 0.54224 0.0
P224 P 0.82908 0.86628 0.8621 0.0
H225 H 0.86911 0.89644 0.82545 0.0
H226 H 0.89874 0.88067 0.78722 0.0
H227 H 0.85885 0.79666 0.79326 0.0
H228 H 0.82912 0.81239 0.83098 0.0
H229 H 0.80783 0.91584 0.88732 0.0
H230 H 0.76715 0.94049 0.87725 0.0
H231 H 0.74443 0.88207 0.80795 0.0
H232 H 0.78625 0.85806 0.81747 0.0
H233 H 0.85925 0.83176 0.8976 0.0
H234 H 0.77389 0.83359 0.86855 0.0
O235 O 0.85176 0.88709 0.88208 0.0
H236 H 0.84521 0.78854 0.92145 0.0
H237 H 0.75992 0.79024 0.89192 0.0
C238 C 0.84747 0.85547 0.83147 0.0
C239 C 0.86653 0.87471 0.81828 0.0
C240 C 0.88336 0.86574 0.7965 0.0
C241 C 0.88132 0.83742 0.78784 0.0
C242 C 0.86109 0.81852 0.80002 0.0
C243 C 0.84413 0.82753 0.82157 0.0
C244 C 0.80011 0.88528 0.85302 0.0
C245 C 0.79432 0.90846 0.86977 0.0
C246 C 0.77081 0.92231 0.86422 0.0
C247 C 0.7522 0.91278 0.84223 0.0
C248 C 0.75835 0.8898 0.82509 0.0
C249 C 0.78218 0.87612 0.83048 0.0
C250 C 0.81758 0.83614 0.88169 0.0
C251 C 0.83746 0.823 0.89656 0.0
C252 C 0.82951 0.79816 0.90985 0.0
C253 C 0.80155 0.78591 0.90821 0.0
C254 C 0.78159 0.7993 0.89354 0.0
C255 C 0.78958 0.82413 0.88022 0.0
P256 P 0.32744 0.3636 0.35989 0.0
H257 H 0.38758 0.37649 0.34996 0.0
H258 H 0.41808 0.36383 0.31156 0.0
H259 H 0.34604 0.322 0.26695 0.0
H260 H 0.31545 0.33516 0.30535 0.0
H261 H 0.27597 0.37113 0.38985 0.0
H262 H 0.237 0.39893 0.38133 0.0
H263 H 0.27485 0.42475 0.30341 0.0
H264 H 0.31384 0.39671 0.31193 0.0
H265 H 0.35049 0.3323 0.40406 0.0
H266 H 0.28 0.3217 0.34667 0.0
O267 O 0.34624 0.38352 0.38402 0.0
H268 H 0.3343 0.28789 0.42485 0.0
H269 H 0.26382 0.27716 0.36729 0.0
C270 C 0.34924 0.35698 0.33031 0.0
C271 C 0.37823 0.36501 0.33174 0.0
C272 C 0.39567 0.35767 0.30987 0.0
C273 C 0.38438 0.34212 0.28624 0.0
C274 C 0.35521 0.33446 0.28468 0.0
C275 C 0.33777 0.34181 0.30662 0.0
C276 C 0.29748 0.38141 0.35127 0.0
C277 C 0.2756 0.38228 0.37063 0.0
C278 C 0.25341 0.39821 0.36581 0.0
C279 C 0.25283 0.41373 0.3416 0.0
C280 C 0.27453 0.41249 0.32194 0.0
C281 C 0.29684 0.39656 0.32685 0.0
C282 C 0.31598 0.33058 0.37442 0.0
C283 C 0.33151 0.32044 0.39599 0.0
C284 C 0.32237 0.29503 0.40771 0.0
C285 C 0.2976 0.27939 0.39792 0.0
C286 C 0.28265 0.28914 0.37558 0.0
C287 C 0.29189 0.3145 0.3638 0.0
P288 P 0.4835 0.00355 0.54702 0.0
H289 H 0.45362 0.97849 0.4973 0.0
H290 H 0.4505 0.93149 0.47518 0.0
H291 H 0.50157 0.90462 0.54156 0.0
H292 H 0.50436 0.95139 0.5639 0.0
H293 H 0.47488 0.06198 0.54047 0.0
H294 H 0.43271 0.08552 0.53175 0.0
H295 H 0.38113 0.00718 0.53831 0.0
H296 H 0.42327 0.98376 0.54744 0.0
H297 H 0.53828 0.01272 0.57467 0.0
H298 H 0.45174 0.99343 0.5986 0.0
O299 O 0.50908 0.02074 0.52895 0.0
H300 H 0.55287 0.01283 0.62374 0.0
H301 H 0.46632 0.99323 0.64788 0.0
C302 C 0.47864 0.9683 0.5326 0.0
C303 C 0.46356 0.96233 0.50749 0.0
C304 C 0.46178 0.93555 0.49487 0.0
C305 C 0.4757 0.91459 0.50682 0.0
C306 C 0.49062 0.92051 0.53206 0.0
C307 C 0.49212 0.94721 0.54484 0.0
C308 C 0.45221 0.02101 0.54361 0.0
C309 C 0.45448 0.04991 0.54022 0.0
C310 C 0.43044 0.06336 0.53544 0.0
C311 C 0.40387 0.048 0.53396 0.0
C312 C 0.40151 0.01932 0.53894 0.0
C313 C 0.42553 0.00596 0.54403 0.0
C314 C 0.49387 0.00388 0.58318 0.0
C315 C 0.5224 0.00866 0.59051 0.0
C316 C 0.53075 0.00842 0.61849 0.0
C317 C 0.51068 0.00329 0.63956 0.0
C318 C 0.48214 0.99771 0.63206 0.0
C319 C 0.47381 0.99788 0.60399 0.0
P320 P 0.17061 0.33009 0.68694 0.0
H321 H 0.20383 0.37641 0.6615 0.0
H322 H 0.24117 0.41095 0.67979 0.0
H323 H 0.24166 0.36777 0.75723 0.0
H324 H 0.20412 0.33348 0.73902 0.0
H325 H 0.1443 0.29803 0.63972 0.0
H326 H 0.1568 0.25775 0.61206 0.0
H327 H 0.22923 0.25312 0.66543 0.0
H328 H 0.21704 0.29461 0.69264 0.0
H329 H 0.1225 0.35473 0.71039 0.0
H330 H 0.17037 0.2862 0.72816 0.0
O331 O 0.15261 0.348 0.66511 0.0
H332 H 0.09352 0.34491 0.7513 0.0
H333 H 0.14207 0.27695 0.77016 0.0
C334 C 0.20073 0.3528 0.69914 0.0
C335 C 0.21205 0.37428 0.68236 0.0
C336 C 0.23341 0.39396 0.69279 0.0
C337 C 0.2438 0.39235 0.72015 0.0
C338 C 0.23345 0.36991 0.73636 0.0
C339 C 0.2121 0.35022 0.72589 0.0
C340 C 0.17998 0.29952 0.66791 0.0
C341 C 0.16287 0.2884 0.64555 0.0
C342 C 0.16983 0.26506 0.62999 0.0
C343 C 0.19372 0.25188 0.63689 0.0
C344 C 0.21067 0.26281 0.65968 0.0
C345 C 0.20375 0.28646 0.67519 0.0
C346 C 0.14822 0.32089 0.71598 0.0
C347 C 0.12663 0.33739 0.72299 0.0
C348 C 0.11026 0.33192 0.74658 0.0
C349 C 0.11549 0.31014 0.76398 0.0
C350 C 0.13719 0.29354 0.7569 0.0
C351 C 0.15341 0.29886 0.73297 0.0
P352 P 0.79791 0.20343 0.70035 0.0
H353 H 0.81726 0.2236 0.64656 0.0
H354 H 0.80045 0.25699 0.61518 0.0
H355 H 0.73661 0.27526 0.67514 0.0
H356 H 0.7549 0.24307 0.70733 0.0
H357 H 0.84847 0.18362 0.72323 0.0
H358 H 0.88023 0.20113 0.76166 0.0
H359 H 0.83354 0.27271 0.77407 0.0
H360 H 0.80154 0.25499 0.73572 0.0
H361 H 0.73656 0.19448 0.68989 0.0
H362 H 0.79671 0.1671 0.74757 0.0
O363 O 0.81317 0.18063 0.67977 0.0
H364 H 0.69855 0.168 0.71403 0.0
H365 H 0.75926 0.13827 0.7699 0.0
C366 C 0.78667 0.23011 0.67881 0.0
C367 C 0.79979 0.23492 0.65308 0.0
C368 C 0.79004 0.25394 0.63509 0.0
C369 C 0.76684 0.26844 0.64242 0.0
C370 C 0.75459 0.26458 0.66888 0.0
C371 C 0.7648 0.2459 0.68715 0.0
C372 C 0.82302 0.21831 0.72625 0.0
C373 C 0.8453 0.20331 0.73388 0.0
C374 C 0.86328 0.21317 0.75595 0.0
C375 C 0.85932 0.23828 0.77061 0.0
C376 C 0.83718 0.25347 0.76278 0.0
C377 C 0.81897 0.2434 0.74086 0.0
C378 C 0.76939 0.18411 0.71788 0.0
C379 C 0.74162 0.1833 0.70809 0.0
C380 C 0.71988 0.16769 0.72166 0.0
C381 C 0.72567 0.15157 0.74449 0.0
C382 C 0.75374 0.1515 0.75338 0.0
C383 C 0.77531 0.16779 0.74036 0.0
P384 P 0.5712 0.60307 0.58719 0.0
H385 H 0.56248 0.55934 0.62757 0.0
H386 H 0.52333 0.54484 0.65822 0.0
H387 H 0.47674 0.60947 0.62684 0.0
H388 H 0.51637 0.6245 0.59685 0.0
H389 H 0.62972 0.58992 0.58882 0.0
H390 H 0.65263 0.54936 0.57165 0.0
H391 H 0.57265 0.50964 0.54141 0.0
H392 H 0.54958 0.54987 0.55932 0.0
H393 H 0.58947 0.6573 0.56394 0.0
H394 H 0.52678 0.58803 0.5454 0.0
O395 O 0.59399 0.62473 0.6062 0.0
H396 H 0.57081 0.68299 0.52619 0.0
H397 H 0.50873 0.61319 0.50695 0.0
C398 C 0.54201 0.59243 0.60933 0.0
C399 C 0.54381 0.57032 0.62717 0.0
C400 C 0.52143 0.56206 0.64466 0.0
C401 C 0.49693 0.57595 0.64482 0.0
C402 C 0.49543 0.59854 0.62735 0.0
C403 C 0.51795 0.60689 0.60994 0.0
C404 C 0.58798 0.57303 0.5751 0.0
C405 C 0.61704 0.57246 0.57868 0.0
C406 C 0.6301 0.54928 0.56898 0.0
C407 C 0.61433 0.52655 0.55519 0.0
C408 C 0.58521 0.52705 0.55181 0.0
C409 C 0.5721 0.55008 0.56188 0.0
C410 C 0.55949 0.62076 0.55751 0.0
C411 C 0.57205 0.64738 0.55143 0.0
C412 C 0.56155 0.66195 0.52965 0.0
C413 C 0.53848 0.64997 0.51344 0.0
C414 C 0.52653 0.62292 0.5191 0.0
C415 C 0.53696 0.60845 0.54094 0.0
P416 P 0.56367 0.43558 0.9383 0.0
H417 H 0.6076 0.44398 0.98133 0.0
H418 H 0.64438 0.48218 0.992 0.0
H419 H 0.61464 0.52812 0.92413 0.0
H420 H 0.57821 0.48969 0.91307 0.0
H421 H 0.57623 0.3822 0.95977 0.0
H422 H 0.56286 0.35824 0.00258 0.0
H423 H 0.51569 0.42636 0.02911 0.0
H424 H 0.52904 0.45027 0.98613 0.0
H425 H 0.53 0.41252 0.89025 0.0
H426 H 0.53066 0.48337 0.94852 0.0
O427 O 0.57879 0.41378 0.91645 0.0
H428 H 0.49209 0.42991 0.8637 0.0
H429 H 0.49252 0.50084 0.92187 0.0
C430 C 0.58956 0.46439 0.947 0.0
C431 C 0.60877 0.46236 0.9689 0.0
C432 C 0.62989 0.48403 0.97485 0.0
C433 C 0.63214 0.50798 0.95889 0.0
C434 C 0.61305 0.50991 0.93686 0.0
C435 C 0.59217 0.48806 0.93067 0.0
C436 C 0.55313 0.41775 0.9695 0.0
C437 C 0.56294 0.39198 0.97471 0.0
C438 C 0.55559 0.37845 -0.00066 0.0
C439 C 0.53847 0.3906 0.01922 0.0
C440 C 0.52888 0.41655 0.01406 0.0
C441 C 0.53636 0.43013 0.98946 0.0
C442 C 0.53355 0.44696 0.92099 0.0
C443 C 0.5219 0.43172 0.89745 0.0
C444 C 0.50026 0.44165 0.88229 0.0
C445 C 0.48981 0.46693 0.89053 0.0
C446 C 0.50033 0.48135 0.91508 0.0
C447 C 0.5221 0.47141 0.93023 0.0
P448 P 0.75721 0.26318 0.26889 0.0
H449 H 0.79126 0.29777 0.31047 0.0
H450 H 0.77978 0.32021 0.35542 0.0
H451 H 0.69286 0.2873 0.34463 0.0
H452 H 0.70437 0.26438 0.30017 0.0
H453 H 0.769 0.21723 0.23034 0.0
H454 H 0.78775 0.1724 0.23734 0.0
H455 H 0.79248 0.19134 0.32644 0.0
H456 H 0.77318 0.23541 0.3195 0.0
H457 H 0.73285 0.30538 0.2379 0.0
H458 H 0.71239 0.21838 0.25443 0.0
O459 O 0.78312 0.28294 0.25375 0.0
H460 H 0.68599 0.30715 0.2179 0.0
H461 H 0.66578 0.21974 0.23357 0.0
C462 C 0.74861 0.27996 0.30166 0.0
C463 C 0.76973 0.29551 0.3177 0.0
C464 C 0.76319 0.30821 0.34333 0.0
C465 C 0.73539 0.30569 0.35312 0.0
C466 C 0.71433 0.28988 0.3372 0.0
C467 C 0.72095 0.27682 0.3118 0.0
C468 C 0.76914 0.22945 0.27438 0.0
C469 C 0.77371 0.21149 0.2514 0.0
C470 C 0.7846 0.18602 0.2554 0.0
C471 C 0.79123 0.17818 0.28249 0.0
C472 C 0.7869 0.19643 0.30541 0.0
C473 C 0.77594 0.22178 0.30139 0.0
C474 C 0.72631 0.26162 0.24708 0.0
C475 C 0.71867 0.28636 0.23613 0.0
C476 C 0.69187 0.28735 0.22467 0.0
C477 C 0.67226 0.26353 0.224 0.0
C478 C 0.68048 0.23841 0.23384 0.0
C479 C 0.70723 0.23751 0.24546 0.0
P480 P 0.47739 0.03029 0.04382 0.0
H481 H 0.51003 0.07329 0.01143 0.0
H482 H 0.53158 0.07126 0.96501 0.0
H483 H 0.50072 0.98403 0.95495 0.0
H484 H 0.47923 0.98607 0.00132 0.0
H485 H 0.5053 0.05775 0.0937 0.0
H486 H 0.50482 0.10453 0.11535 0.0
H487 H 0.44842 0.12543 0.05036 0.0
H488 H 0.45033 0.07944 0.02799 0.0
H489 H 0.44395 0.98708 0.07423 0.0
H490 H 0.43242 0.03939 0.00481 0.0
O491 O 0.49516 0.01079 0.06424 0.0
H492 H 0.39569 0.96569 0.06834 0.0
H493 H 0.38335 0.02047 0.00081 0.0
C494 C 0.49292 0.02983 0.00968 0.0
C495 C 0.50769 0.05379 -0.00081 0.0
C496 C 0.51993 0.05266 0.97269 0.0
C497 C 0.51784 0.02747 0.95661 0.0
C498 C 0.50283 0.00361 0.96712 0.0
C499 C 0.49054 0.00479 0.9935 0.0
C500 C 0.47764 0.06495 0.05934 0.0
C501 C 0.49299 0.07245 0.08399 0.0
C502 C 0.49257 0.09913 0.09645 0.0
C503 C 0.47668 0.11869 0.08449 0.0
C504 C 0.4613 0.11104 0.0598 0.0
C505 C 0.46204 0.08451 0.04719 0.0
C506 C 0.44162 0.01513 0.04025 0.0
C507 C 0.43084 0.99442 0.05815 0.0
C508 C 0.40306 0.98253 0.05503 0.0
C509 C 0.38534 0.99187 0.03456 0.0
C510 C 0.39634 0.01279 0.0168 0.0
C511 C 0.42432 0.02398 0.01937 0.0
O512 O 0.23174 0.86156 0.98462 0.0
Cd513 Cd 0.23689 0.88066 0.02414 0.0
Cd514 Cd 0.21721 0.92287 0.99024 0.0
O515 O 0.21217 0.89181 0.95945 0.0
O516 O 0.25666 0.85076 0.04046 0.0
O517 O 0.21779 0.86445 0.05876 0.0
C518 C 0.23788 0.84855 0.05955 0.0
C519 C 0.18189 0.95113 0.00203 0.0
C520 C 0.22155 0.86824 0.96153 0.0
C521 C 0.27372 0.9348 0.01661 0.0
O522 O 0.25749 0.94111 0.99733 0.0
O523 O 0.26773 0.91326 0.03067 0.0
O524 O 0.19572 0.95387 0.97901 0.0
O525 O 0.1873 0.93119 0.01791 0.0
O526 O 0.15689 0.56591 0.31569 0.0
Cd527 Cd 0.14002 0.52879 0.33124 0.0
Cd528 Cd 0.0928 0.54195 0.29996 0.0
O529 O 0.12074 0.57546 0.29012 0.0
O530 O 0.17268 0.51499 0.35002 0.0
O531 O 0.15076 0.49253 0.31377 0.0
C532 C 0.17059 0.49398 0.33236 0.0
C533 C 0.0682 0.52141 0.26123 0.0
C534 C 0.14581 0.58143 0.29889 0.0
C535 C 0.08558 0.5342 0.36194 0.0
O536 O 0.07443 0.53987 0.33896 0.0
O537 O 0.11107 0.529 0.36281 0.0
O538 O 0.06079 0.54366 0.27375 0.0
O539 O 0.08903 0.50991 0.27152 0.0
O540 O 0.74818 0.68461 0.98399 0.0
Cd541 Cd 0.73521 0.65599 0.01327 0.0
Cd542 Cd 0.77715 0.62752 0.98809 0.0
O543 O 0.78384 0.66404 0.96674 0.0
O544 O 0.70936 0.67582 0.03737 0.0
O545 O 0.75007 0.6639 0.05268 0.0
C546 C 0.72748 0.6759 0.05737 0.0
C547 C 0.81626 0.6076 0.00438 0.0
C548 C 0.76914 0.68459 0.96769 0.0
C549 C 0.71773 0.59949 0.98636 0.0
O550 O 0.743 0.59902 0.97839 0.0
O551 O 0.71051 0.62009 0.00101 0.0
O552 O 0.80939 0.6062 0.97824 0.0
O553 O 0.80128 0.62127 0.02148 0.0
O554 O 0.91524 0.01006 0.29418 0.0
Cd555 Cd 0.89174 0.01671 0.25936 0.0
Cd556 Cd 0.85608 0.02963 0.30125 0.0
O557 O 0.88768 0.0219 0.32865 0.0
O558 O 0.91883 0.00899 0.22928 0.0
O559 O 0.90356 0.0503 0.23641 0.0
C560 C 0.91944 0.0346 0.22254 0.0
C561 C 0.83952 0.07324 0.29815 0.0
C562 C 0.91067 0.01348 0.3202 0.0
C563 C 0.83538 0.98218 0.26216 0.0
O564 O 0.83082 0.99575 0.28475 0.0
O565 O 0.85779 0.98827 0.24851 0.0
O566 O 0.83152 0.0568 0.31794 0.0
O567 O 0.85791 0.06516 0.2806 0.0
O568 O 0.24003 0.18036 0.47501 0.0
Cd569 Cd 0.22755 0.15281 0.5055 0.0
Cd570 Cd 0.27002 0.12409 0.48094 0.0
O571 O 0.27653 0.16022 0.459 0.0
O572 O 0.20139 0.1729 0.52906 0.0
O573 O 0.24246 0.16222 0.54472 0.0
C574 C 0.2195 0.17367 0.54914 0.0
C575 C 0.30906 0.10385 0.49681 0.0
C576 C 0.26118 0.18028 0.45899 0.0
C577 C 0.21078 0.09552 0.48011 0.0
O578 O 0.23595 0.0954 0.47177 0.0
O579 O 0.20337 0.11617 0.49456 0.0
O580 O 0.30189 0.10242 0.47075 0.0
O581 O 0.29458 0.11792 0.51404 0.0
O582 O 0.40898 0.50324 0.79137 0.0
Cd583 Cd 0.3845 0.51277 0.75832 0.0
Cd584 Cd 0.35212 0.52644 0.8017 0.0
O585 O 0.38494 0.51786 0.82731 0.0
O586 O 0.40973 0.50663 0.72616 0.0
O587 O 0.39629 0.54795 0.73791 0.0
C588 C 0.41101 0.53293 0.72192 0.0
C589 C 0.33889 0.57127 0.79746 0.0
C590 C 0.40649 0.50745 0.8176 0.0
C591 C 0.3275 0.48043 0.76274 0.0
O592 O 0.3249 0.49336 0.78616 0.0
O593 O 0.34911 0.48633 0.74786 0.0
O594 O 0.33021 0.55616 0.81808 0.0
O595 O 0.35578 0.561 0.77967 0.0
O596 O 0.7292 0.35488 0.48124 0.0
Cd597 Cd 0.73761 0.37292 0.5206 0.0
Cd598 Cd 0.71734 0.41746 0.49248 0.0
O599 O 0.71155 0.38866 0.45941 0.0
O600 O 0.75482 0.34116 0.53648 0.0
O601 O 0.71877 0.35916 0.5563 0.0
C602 C 0.73709 0.34128 0.55656 0.0
C603 C 0.68136 0.4426 0.50888 0.0
C604 C 0.71902 0.3641 0.45929 0.0
C605 C 0.77595 0.42674 0.51435 0.0
O606 O 0.75747 0.43634 0.49937 0.0
O607 O 0.77109 0.40301 0.52494 0.0
O608 O 0.6934 0.44781 0.48527 0.0
O609 O 0.68915 0.42225 0.52288 0.0
O610 O 0.65129 0.05422 0.8077 0.0
Cd611 Cd 0.63207 0.01683 0.82077 0.0
Cd612 Cd 0.58544 0.03685 0.79018 0.0
O613 O 0.61703 0.06755 0.78177 0.0
O614 O 0.66231 0.00267 0.84305 0.0
O615 O 0.6451 0.98101 0.80412 0.0
C616 C 0.66227 0.98205 0.82512 0.0
C617 C 0.55801 0.02135 0.75119 0.0
C618 C 0.642 0.07128 0.79129 0.0
C619 C 0.57712 0.02497 0.8509 0.0
O620 O 0.56723 0.03502 0.82924 0.0
O621 O 0.60133 0.01635 0.85063 0.0
O622 O 0.55455 0.04445 0.76463 0.0
O623 O 0.5767 0.00639 0.76053 0.0
O624 O 0.96228 0.30558 0.94019 0.0
Cd625 Cd 0.96261 0.26785 0.91823 0.0
Cd626 Cd 0.9948 0.2979 0.88119 0.0
O627 O 0.99641 0.32587 0.915 0.0
O628 O 0.9568 0.2376 0.94525 0.0
O629 O 0.9968 0.24762 0.92271 0.0
C630 C 0.98252 0.23277 0.94074 0.0
C631 C 0.03521 0.29905 0.8538 0.0
C632 C 0.9803 0.32622 0.93605 0.0
C633 C 0.93753 0.27163 0.86193 0.0
O634 O 0.95834 0.28952 0.85775 0.0
O635 O 0.93585 0.25863 0.88456 0.0
O636 O 0.01968 0.31934 0.85485 0.0
O637 O 0.02824 0.27787 0.86894 0.0
O638 O 0.45909 0.79223 0.43988 0.0
Cd639 Cd 0.4628 0.75559 0.41706 0.0
Cd640 Cd 0.49738 0.78707 0.38432 0.0
O641 O 0.49604 0.81331 0.41929 0.0
O642 O 0.45829 0.72415 0.44275 0.0
O643 O 0.49849 0.738 0.4221 0.0
C644 C 0.48473 0.72163 0.43921 0.0
C645 C 0.54011 0.79083 0.36067 0.0
C646 C 0.47765 0.81291 0.43841 0.0
C647 C 0.44198 0.76101 0.35967 0.0
O648 O 0.46285 0.7794 0.35786 0.0
O649 O 0.43874 0.74683 0.38148 0.0
O650 O 0.52395 0.8106 0.3613 0.0
O651 O 0.53222 0.76846 0.37372 0.0
O652 O 0.97872 0.78367 0.71276 0.0
Cd653 Cd 0.00692 0.76479 0.68766 0.0
Cd654 Cd 0.97461 0.78418 0.64635 0.0
O655 O 0.95267 0.79911 0.67975 0.0
O656 O 0.03449 0.75313 0.71492 0.0
O657 O 0.04663 0.782 0.68133 0.0
C658 C 0.05397 0.76806 0.70221 0.0
C659 C 0.99267 0.81473 0.61309 0.0
C660 C 0.95795 0.79632 0.70549 0.0
C661 C 0.97815 0.7228 0.64524 0.0
O662 O 0.96756 0.74266 0.63375 0.0
O663 O 0.99394 0.72769 0.66666 0.0
O664 O 0.96618 0.80632 0.61379 0.0
O665 O 0.00897 0.80611 0.63184 0.0
O666 O 0.47921 0.28737 0.21028 0.0
Cd667 Cd 0.50654 0.26697 0.18563 0.0
Cd668 Cd 0.48037 0.29071 0.14344 0.0
O669 O 0.45575 0.30375 0.1759 0.0
O670 O 0.5357 0.25569 0.2113 0.0
O671 O 0.54545 0.28408 0.17663 0.0
C672 C 0.55424 0.27029 0.19699 0.0
C673 C 0.49852 0.3233 0.11189 0.0
C674 C 0.45934 0.3007 0.20192 0.0
C675 C 0.48091 0.22844 0.13995 0.0
O676 O 0.47499 0.25005 0.12776 0.0
O677 O 0.49207 0.23054 0.16417 0.0
O678 O 0.47233 0.31366 0.11136 0.0
O679 O 0.51443 0.31485 0.13105 0.0
C680 C 0.21456 0.84033 0.88601 0.0
C681 C 0.23266 0.81909 0.88516 0.0
C682 C 0.21023 0.85549 0.91103 0.0
C683 C 0.22355 0.84966 0.93618 0.0
H684 H 0.20444 0.84589 0.86699 0.0
H685 H 0.19684 0.8723 0.91048 0.0
S686 S 0.27087 0.79383 0.94507 0.0
N687 N 0.2625 0.79158 0.91146 0.0
N688 N 0.25425 0.81954 0.95867 0.0
C689 C 0.24071 0.82744 0.93569 0.0
C690 C 0.24533 0.81233 0.91013 0.0
C691 C 0.0649 0.52107 0.43717 0.0
C692 C 0.0389 0.53213 0.43964 0.0
C693 C 0.07968 0.52178 0.41196 0.0
C694 C 0.06902 0.53356 0.38813 0.0
H695 H 0.07379 0.51146 0.45482 0.0
H696 H 0.09957 0.51284 0.41118 0.0
S697 S 0.00228 0.56663 0.38418 0.0
N698 N 0.00347 0.55618 0.41661 0.0
N699 N 0.03103 0.55726 0.36895 0.0
C700 C 0.04301 0.54482 0.39035 0.0
C701 C 0.028 0.54416 0.41615 0.0
C702 C 0.76971 0.75743 0.93986 0.0
C703 C 0.7931 0.7594 0.92206 0.0
C704 C 0.76189 0.733 0.95403 0.0
C705 C 0.77707 0.70947 0.95091 0.0
H706 H 0.75772 0.77515 0.94335 0.0
H707 H 0.74397 0.73282 0.96791 0.0
S708 S 0.83873 0.7034 0.90465 0.0
N709 N 0.8304 0.73542 0.90057 0.0
N710 N 0.81591 0.68944 0.92727 0.0
C711 C 0.80014 0.71097 0.9325 0.0
C712 C 0.80809 0.73595 0.91812 0.0
C713 C 0.94299 0.98225 0.38284 0.0
C714 C 0.97138 0.98237 0.37502 0.0
C715 C 0.92353 0.99379 0.36576 0.0
C716 C 0.93187 0.00568 0.34029 0.0
H717 H 0.93554 0.97214 0.40165 0.0
H718 H 0.90163 0.99214 0.37186 0.0
S719 S 0.00466 0.01544 0.31295 0.0
N720 N 0.00748 0.99864 0.3421 0.0
N721 N 0.97099 0.01982 0.30984 0.0
C722 C 0.96051 0.00742 0.33319 0.0
C723 C 0.98025 0.99588 0.35059 0.0
C724 C 0.22907 0.22807 0.60844 0.0
C725 C 0.20154 0.228 0.61894 0.0
C726 C 0.23546 0.20879 0.58716 0.0
C727 C 0.21444 0.18913 0.57555 0.0
H728 H 0.24535 0.24418 0.61542 0.0
H729 H 0.25644 0.21058 0.57842 0.0
S730 S 0.14072 0.17665 0.59941 0.0
N731 N 0.15443 0.20351 0.61924 0.0
N732 N 0.16621 0.1682 0.57846 0.0
C733 C 0.18749 0.18747 0.58728 0.0
C734 C 0.18111 0.20667 0.60921 0.0
C735 C 0.46397 0.53758 0.6632 0.0
C736 C 0.473 0.56625 0.6629 0.0
C737 C 0.4431 0.52728 0.68159 0.0
C738 C 0.43031 0.54521 0.70046 0.0
H739 H 0.47344 0.52287 0.64934 0.0
H740 H 0.43742 0.50492 0.68136 0.0
S741 S 0.44559 0.62231 0.70723 0.0
N742 N 0.46704 0.61265 0.68246 0.0
N743 N 0.4274 0.59331 0.7169 0.0
C744 C 0.43834 0.57411 0.69967 0.0
C745 C 0.45977 0.58462 0.68092 0.0
C746 C 0.75268 0.27712 0.59347 0.0
C747 C 0.75524 0.28656 0.62172 0.0
C748 C 0.74514 0.29462 0.5727 0.0
C749 C 0.73918 0.32201 0.57941 0.0
H750 H 0.75734 0.25624 0.58718 0.0
H751 H 0.74479 0.2869 0.55107 0.0
S752 S 0.74117 0.35664 0.6501 0.0
N753 N 0.75028 0.32507 0.65535 0.0
N754 N 0.73497 0.3576 0.61614 0.0
C755 C 0.73998 0.33133 0.60763 0.0
C756 C 0.74824 0.31366 0.62886 0.0
C757 C 0.54222 0.99068 0.67792 0.0
C758 C 0.51973 0.00509 0.66931 0.0
C759 C 0.55346 0.9948 0.70509 0.0
C760 C 0.54282 0.01377 0.72447 0.0
H761 H 0.55168 0.97667 0.66331 0.0
H762 H 0.57143 0.98402 0.71044 0.0
S763 S 0.48263 0.05511 0.71272 0.0
N764 N 0.48618 0.03782 0.68263 0.0
N765 N 0.50712 0.04556 0.7337 0.0
C766 C 0.51945 0.02731 0.71647 0.0
C767 C 0.50794 0.02296 0.68888 0.0
C768 C 0.88129 0.23038 0.81667 0.0
C769 C 0.87802 0.24808 0.79447 0.0
C770 C 0.89986 0.2386 0.8389 0.0
C771 C 0.91618 0.26465 0.83951 0.0
H772 H 0.86951 0.20994 0.81674 0.0
H773 H 0.90201 0.22405 0.8553 0.0
S774 S 0.9146 0.31886 0.78655 0.0
N775 N 0.89184 0.29297 0.77463 0.0
N776 N 0.92704 0.30849 0.81624 0.0
C777 C 0.91268 0.28274 0.8176 0.0
C778 C 0.8935 0.27445 0.79514 0.0
C779 C 0.45151 0.87076 0.48432 0.0
C780 C 0.47656 0.88737 0.49166 0.0
C781 C 0.45203 0.84588 0.46808 0.0
C782 C 0.47758 0.83726 0.45815 0.0
H783 H 0.43141 0.87724 0.49089 0.0
H784 H 0.43226 0.83393 0.46237 0.0
S785 S 0.54896 0.87308 0.47249 0.0
N786 N 0.52753 0.89312 0.48871 0.0
N787 N 0.52858 0.84669 0.45785 0.0
C788 C 0.50278 0.85345 0.4659 0.0
C789 C 0.50225 0.87845 0.48275 0.0
C790 C 0.09264 0.32884 0.80662 0.0
C791 C 0.09838 0.30561 0.7896 0.0
C792 C 0.07327 0.32614 0.82842 0.0
C793 C 0.05921 0.30004 0.83442 0.0
H794 H 0.1025 0.34951 0.80244 0.0
H795 H 0.06859 0.34484 0.84012 0.0
S796 S 0.06819 0.23232 0.7977 0.0
N797 N 0.08945 0.25532 0.78118 0.0
N798 N 0.05354 0.25019 0.82293 0.0
C799 C 0.06603 0.27632 0.81887 0.0
C800 C 0.08554 0.27911 0.79627 0.0
C801 C 0.49608 0.66804 0.493 0.0
C802 C 0.5253 0.66652 0.49241 0.0
C803 C 0.48316 0.68522 0.47507 0.0
C804 C 0.49891 0.70164 0.45579 0.0
H805 H 0.48315 0.65655 0.50809 0.0
H806 H 0.46068 0.68611 0.47694 0.0
S807 S 0.57587 0.7031 0.44416 0.0
N808 N 0.56943 0.68124 0.46965 0.0
N809 N 0.54525 0.71386 0.43602 0.0
C810 C 0.52807 0.69955 0.45427 0.0
C811 C 0.54123 0.68198 0.4726 0.0
C812 C 0.90328 0.83793 0.74038 0.0
C813 C 0.90131 0.82721 0.76728 0.0
C814 C 0.92174 0.82789 0.72053 0.0
C815 C 0.93923 0.80716 0.72709 0.0
H816 H 0.89013 0.85384 0.73454 0.0
H817 H 0.92235 0.8365 0.69992 0.0
S818 S 0.94256 0.77332 0.79537 0.0
N819 N 0.91863 0.79547 0.79989 0.0
N820 N 0.95356 0.77671 0.76285 0.0
C821 C 0.93774 0.79671 0.75422 0.0
C822 C 0.9187 0.8067 0.77423 0.0
C823 C 0.995 0.86586 0.5548 0.0
C824 C 0.02251 0.86562 0.54446 0.0
C825 C 0.98578 0.84977 0.57737 0.0
C826 C 0.0038 0.83305 0.59075 0.0
H827 H 0.98037 0.87851 0.54527 0.0
H828 H 0.96428 0.85036 0.58431 0.0
S829 S 0.07763 0.8244 0.57151 0.0
N830 N 0.06751 0.84656 0.54897 0.0
N831 N 0.05039 0.81704 0.59205 0.0
C832 C 0.03152 0.83297 0.58106 0.0
C833 C 0.04083 0.84908 0.55777 0.0
C834 C 0.13392 0.77545 0.69911 0.0
C835 C 0.14155 0.76394 0.72429 0.0
C836 C 0.10557 0.77736 0.69236 0.0
C837 C 0.08387 0.76789 0.71059 0.0
H838 H 0.14995 0.78261 0.68434 0.0
H839 H 0.10064 0.78579 0.67246 0.0
S840 S 0.09316 0.73905 0.7806 0.0
N841 N 0.12542 0.74515 0.76852 0.0
N842 N 0.07227 0.74843 0.75587 0.0
C843 C 0.09137 0.75713 0.73623 0.0
C844 C 0.12016 0.75522 0.74306 0.0
C845 C 0.98796 0.64644 0.63118 0.0
C846 C 0.97143 0.6392 0.60714 0.0
C847 C 0.98923 0.67324 0.64374 0.0
C848 C 0.97404 0.69397 0.63275 0.0
H849 H 0.00073 0.63152 0.6399 0.0
H850 H 0.00287 0.67785 0.66183 0.0
S851 S 0.92528 0.68449 0.57162 0.0
N852 N 0.9378 0.65395 0.57397 0.0
N853 N 0.94034 0.70462 0.59736 0.0
C854 C 0.95659 0.68666 0.60923 0.0
C855 C 0.95529 0.65924 0.59646 0.0
C856 C 0.76999 0.93016 0.25846 0.0
C857 C 0.77362 0.9145 0.23352 0.0
C858 C 0.79001 0.95197 0.26745 0.0
C859 C 0.81456 0.95894 0.25191 0.0
H860 H 0.75125 0.92585 0.27091 0.0
H861 H 0.78608 0.96349 0.28673 0.0
S862 S 0.83448 0.92311 0.18562 0.0
N863 N 0.80386 0.90655 0.19388 0.0
N864 N 0.84157 0.94761 0.21051 0.0
C865 C 0.81856 0.94311 0.22702 0.0
C866 C 0.79808 0.92092 0.21788 0.0
C867 C 0.82577 0.14368 0.27047 0.0
C868 C 0.80313 0.1513 0.28683 0.0
C869 C 0.8376 0.11862 0.2745 0.0
C870 C 0.82724 0.10014 0.29504 0.0
H871 H 0.83464 0.15735 0.2546 0.0
H872 H 0.855 0.11373 0.26134 0.0
S873 S 0.76716 0.10984 0.34246 0.0
N874 N 0.77004 0.13793 0.32359 0.0
N875 N 0.79234 0.09109 0.3315 0.0
C876 C 0.80447 0.10751 0.31147 0.0
C877 C 0.79242 0.13299 0.30729 0.0
C878 C 0.34507 0.9728 0.00342 0.0
C879 C 0.35592 0.97899 0.03068 0.0
C880 C 0.31788 0.95956 -0.00097 0.0
C881 C 0.30084 0.95147 0.02173 0.0
H882 H 0.35792 0.97748 0.98525 0.0
H883 H 0.31061 0.95459 0.97774 0.0
S884 S 0.31767 0.96521 0.09705 0.0
N885 N 0.34605 0.9784 0.08067 0.0
N886 N 0.29553 0.95194 0.07224 0.0
C887 C 0.31098 0.958 0.04903 0.0
C888 C 0.33839 0.97211 0.05355 0.0
C889 C 0.22693 0.45255 0.36048 0.0
C890 C 0.23107 0.43322 0.33848 0.0
C891 C 0.20719 0.47185 0.35821 0.0
C892 C 0.19057 0.4725 0.33392 0.0
H893 H 0.23942 0.45308 0.37951 0.0
H894 H 0.20503 0.48642 0.37575 0.0
S895 S 0.19282 0.42562 0.27055 0.0
N896 N 0.21676 0.41537 0.29178 0.0
N897 N 0.17933 0.45168 0.28745 0.0
C898 C 0.19422 0.453 0.31182 0.0
C899 C 0.21461 0.43342 0.31408 0.0
C900 C 0.14075 0.05194 0.4682 0.0
C901 C 0.14863 0.02515 0.46139 0.0
C902 C 0.16099 0.07455 0.47411 0.0
C903 C 0.18991 0.07131 0.47324 0.0
H904 H 0.11874 0.05551 0.46881 0.0
H905 H 0.15386 0.09477 0.47923 0.0
S906 S 0.22154 0.00509 0.45803 0.0
N907 N 0.1873 0.99636 0.45535 0.0
N908 N 0.2254 0.03896 0.46582 0.0
C909 C 0.1981 0.04461 0.46644 0.0
C910 C 0.17746 0.02153 0.46067 0.0
C911 C 0.6821 0.11801 0.74053 0.0
C912 C 0.70281 0.1333 0.75759 0.0
C913 C 0.66164 0.09894 0.75191 0.0
C914 C 0.66149 0.09398 0.78067 0.0
H915 H 0.68223 0.11998 0.71803 0.0
H916 H 0.64664 0.08704 0.73788 0.0
S917 S 0.70857 0.1307 0.83499 0.0
N918 N 0.71967 0.14432 0.80534 0.0
N919 N 0.68212 0.10709 0.82636 0.0
C920 C 0.68137 0.10961 0.79815 0.0
C921 C 0.70181 0.12959 0.7867 0.0
C922 C 0.37081 0.08498 0.54001 0.0
C923 C 0.37904 0.06146 0.52504 0.0
C924 C 0.34781 0.09841 0.53106 0.0
C925 C 0.33277 0.08911 0.5065 0.0
H926 H 0.3822 0.09298 0.55876 0.0
H927 H 0.34212 0.11647 0.54315 0.0
S928 S 0.34621 0.02832 0.45998 0.0
N929 N 0.37047 0.02932 0.48478 0.0
N930 N 0.32757 0.0546 0.46768 0.0
C931 C 0.34088 0.06556 0.49143 0.0
C932 C 0.36393 0.05171 0.50078 0.0
C933 C 0.64458 0.48768 0.56083 0.0
C934 C 0.62865 0.50296 0.54338 0.0
C935 C 0.66031 0.46687 0.54961 0.0
C936 C 0.66113 0.46117 0.52053 0.0
H937 H 0.64527 0.49222 0.58323 0.0
H938 H 0.67296 0.45616 0.5637 0.0
S939 S 0.62186 0.49451 0.46617 0.0
N940 N 0.61343 0.51011 0.49592 0.0
N941 N 0.64347 0.47149 0.4747 0.0
C942 C 0.6446 0.47578 0.50299 0.0
C943 C 0.62822 0.49656 0.51446 0.0
C944 C 0.7427 0.3126 0.40461 0.0
C945 C 0.72868 0.31912 0.38028 0.0
C946 C 0.73817 0.32626 0.43034 0.0
C947 C 0.7198 0.34736 0.43262 0.0
H948 H 0.75759 0.29707 0.40366 0.0
H949 H 0.7501 0.32095 0.44832 0.0
S950 S 0.67688 0.37095 0.37496 0.0
N951 N 0.69468 0.34681 0.35996 0.0
N952 N 0.68641 0.37301 0.40831 0.0
C953 C 0.70499 0.35346 0.40848 0.0
C954 C 0.70935 0.3392 0.38231 0.0
C955 C 0.52708 0.04428 0.90832 0.0
C956 C 0.53221 0.02581 0.92935 0.0
C957 C 0.54103 0.04331 0.88258 0.0
C958 C 0.56093 0.02417 0.87723 0.0
H959 H 0.51218 0.05956 0.91183 0.0
H960 H 0.53672 0.05815 0.86707 0.0
S961 S 0.58147 0.97111 0.92556 0.0
N962 N 0.55809 0.98766 0.94318 0.0
N963 N 0.58444 0.98582 0.89496 0.0
C964 C 0.56597 0.00539 0.89807 0.0
C965 C 0.55156 0.00621 0.92409 0.0
C966 C 0.30519 0.23256 0.41564 0.0
C967 C 0.28713 0.25335 0.41163 0.0
C968 C 0.29628 0.20856 0.43013 0.0
C969 C 0.26906 0.2046 0.44149 0.0
H970 H 0.32648 0.235 0.4077 0.0
H971 H 0.31117 0.19339 0.43308 0.0
S972 S 0.2135 0.25282 0.43602 0.0
N973 N 0.2407 0.26837 0.41956 0.0
N974 N 0.22378 0.22331 0.44678 0.0
C975 C 0.25059 0.22506 0.43707 0.0
C976 C 0.25965 0.24939 0.42213 0.0
C977 C 0.4434 0.48588 0.88294 0.0
C978 C 0.46934 0.47893 0.87239 0.0
C979 C 0.42334 0.4958 0.8653 0.0
C980 C 0.42864 0.49919 0.83657 0.0
H981 H 0.43831 0.48293 0.90477 0.0
H982 H 0.40331 0.50014 0.87411 0.0
S983 S 0.49517 0.48737 0.79986 0.0
N984 N 0.50038 0.47851 0.83232 0.0
N985 N 0.46307 0.49714 0.79918 0.0
C986 C 0.45512 0.49342 0.82619 0.0
C987 C 0.47536 0.48329 0.84409 0.0
C988 C 0.68898 0.7101 0.11572 0.0
C989 C 0.70978 0.73001 0.12746 0.0
C990 C 0.69533 0.69134 0.09414 0.0
C991 C 0.72284 0.69129 0.08393 0.0
H992 H 0.6673 0.70987 0.12235 0.0
H993 H 0.67834 0.67748 0.08461 0.0
S994 S 0.78551 0.73726 0.10896 0.0
N995 N 0.75945 0.7474 0.12819 0.0
N996 N 0.77149 0.71117 0.08831 0.0
C997 C 0.74428 0.70951 0.09682 0.0
C998 C 0.73774 0.72909 0.11849 0.0
C999 C 0.96401 0.0858 0.17827 0.0
C1000 C 0.98057 0.06831 0.16271 0.0
C1001 C 0.94364 0.07472 0.19701 0.0
C1002 C 0.93905 0.04575 0.20071 0.0
H1003 H 0.9674 0.10824 0.17655 0.0
H1004 H 0.93196 0.08903 0.20918 0.0
S1005 S 0.97482 0.99098 0.16214 0.0
N1006 N 0.98951 0.02068 0.15031 0.0
N1007 N 0.9514 -0.00029 0.18534 0.0
C1008 C 0.95474 0.02802 0.18429 0.0
C1009 C 0.97547 0.03933 0.16536 0.0
C1010 C 0.25417 0.78328 0.09389 0.0
C1011 C 0.25748 0.79194 0.12232 0.0
C1012 C 0.24618 0.80141 0.07391 0.0
C1013 C 0.24044 0.82863 0.08165 0.0
H1014 H 0.25853 0.76252 0.08684 0.0
H1015 H 0.24526 0.79433 0.05208 0.0
S1016 S 0.24467 0.86149 0.15311 0.0
N1017 N 0.25373 0.82969 0.15716 0.0
N1018 N 0.2375 0.86336 0.11943 0.0
C1019 C 0.24212 0.83723 0.11004 0.0
C1020 C 0.25087 0.81894 0.13046 0.0
C1021 C 0.01445 0.51122 0.20271 0.0
C1022 C 0.03041 0.50306 0.17965 0.0
C1023 C 0.02646 0.51559 0.2295 0.0
C1024 C 0.05471 0.51142 0.23437 0.0
H1025 H 0.99273 0.51518 0.19989 0.0
H1026 H 0.01376 0.52314 0.24636 0.0
S1027 S 0.10542 0.48899 0.18166 0.0
N1028 N 0.07602 0.49045 0.16378 0.0
N1029 N 0.09809 0.4975 0.21444 0.0
C1030 C 0.0705 0.50171 0.21197 0.0
C1031 C 0.05847 0.49779 0.18452 0.0
C1032 C 0.38692 0.72328 0.31045 0.0
C1033 C 0.38468 0.74244 0.28934 0.0
C1034 C 0.40507 0.72972 0.33339 0.0
C1035 C 0.42199 0.7554 0.33584 0.0
H1036 H 0.37441 0.7032 0.30928 0.0
H1037 H 0.40619 0.7142 0.34904 0.0
S1038 S 0.42367 0.81271 0.28591 0.0
N1039 N 0.4005 0.78809 0.27221 0.0
N1040 N 0.43493 0.80028 0.31514 0.0
C1041 C 0.41981 0.77479 0.31482 0.0
C1042 C 0.40105 0.76831 0.29164 0.0
C1043 C 0.95996 0.38295 0.98729 0.0
C1044 C 0.9848 0.40131 0.98953 0.0
C1045 C 0.9588 0.35826 0.97052 0.0
C1046 C 0.98239 0.3512 0.95528 0.0
H1047 H 0.94109 0.38803 0.99801 0.0
H1048 H 0.93907 0.34505 0.96886 0.0
S1049 S 0.05343 0.39046 0.95696 0.0
N1050 N 0.03424 0.40935 0.97737 0.0
N1051 N 0.03196 0.36337 0.94543 0.0
C1052 C 0.00761 0.36892 0.95815 0.0
C1053 C 0.00884 0.39386 0.97537 0.0
C1054 C 0.59233 0.77627 0.30423 0.0
C1055 C 0.60725 0.80278 0.30155 0.0
C1056 C 0.57195 0.7717 0.32512 0.0
C1057 C 0.56578 0.79359 0.34368 0.0
H1058 H 0.59515 0.75947 0.28908 0.0
H1059 H 0.55962 0.75156 0.32545 0.0
S1060 S 0.60283 0.86503 0.34898 0.0
N1061 N 0.61763 0.84972 0.32212 0.0
N1062 N 0.5787 0.84137 0.36065 0.0
C1063 C 0.58208 0.81944 0.34261 0.0
C1064 C 0.60301 0.82398 0.32171 0.0
C1065 C 0.03824 0.19652 0.97758 0.0
C1066 C 0.02222 0.17687 0.99352 0.0
C1067 C 0.02525 0.21368 0.95957 0.0
C1068 C 0.99575 0.21211 0.95722 0.0
H1069 H 0.06097 0.19891 0.97934 0.0
H1070 H 0.03843 0.22896 0.94821 0.0
S1071 S 0.94446 0.16323 0.99383 0.0
N1072 N 0.97548 0.15612 0.00523 0.0
N1073 N 0.95097 0.18834 0.97151 0.0
C1074 C 0.97955 0.19196 0.97252 0.0
C1075 C 0.99281 0.17434 0.99063 0.0
C1076 C 0.42677 0.31899 0.27181 0.0
C1077 C 0.40333 0.33249 0.26419 0.0
C1078 C 0.44474 0.30901 0.25154 0.0
C1079 C 0.4401 0.31221 0.22277 0.0
H1080 H 0.43102 0.31568 0.29365 0.0
H1081 H 0.46233 0.29855 0.25861 0.0
S1082 S 0.38217 0.34744 0.19207 0.0
N1083 N 0.37681 0.34952 0.22618 0.0
N1084 N 0.41046 0.33072 0.18785 0.0
C1085 C 0.41685 0.32607 0.2149 0.0
C1086 C 0.39848 0.33616 0.23563 0.0
C1087 C 0.50049 0.37092 0.05056 0.0
C1088 C 0.52929 0.37544 0.04452 0.0
C1089 C 0.4909 0.35466 0.07288 0.0
C1090 C 0.50976 0.34248 0.09021 0.0
H1091 H 0.48513 0.37925 0.03736 0.0
H1092 H 0.46842 0.35124 0.07623 0.0
S1093 S 0.58761 0.35004 0.08446 0.0
N1094 N 0.57681 0.36799 0.05848 0.0
N1095 N 0.55886 0.33739 0.1006 0.0
C1096 C 0.53876 0.34774 0.08503 0.0
C1097 C 0.5485 0.36417 0.0621 0.0
C1098 C 0.62095 0.25488 0.23383 0.0
C1099 C 0.64247 0.26557 0.21607 0.0
C1100 C 0.59265 0.25701 0.22763 0.0
C1101 C 0.5846 0.27 0.20342 0.0
H1102 H 0.62601 0.24504 0.25294 0.0
H1103 H 0.57697 0.24831 0.24203 0.0
S1104 S 0.6329 0.301 0.14969 0.0
N1105 N 0.65394 0.28928 0.173 0.0
N1106 N 0.60062 0.29359 0.16138 0.0
C1107 C 0.60593 0.28097 0.18549 0.0
C1108 C 0.63486 0.27871 0.19181 0.0
C1109 C 0.47262 0.15 0.12703 0.0
C1110 C 0.47615 0.14695 0.09788 0.0
C1111 C 0.47333 0.17647 0.14039 0.0
C1112 C 0.47723 0.20085 0.12506 0.0
H1113 H 0.46947 0.13178 0.13966 0.0
H1114 H 0.47105 0.17784 0.16295 0.0
S1115 S 0.48836 0.20434 0.0484 0.0
N1116 N 0.4845 0.17062 0.0542 0.0
N1117 N 0.48496 0.22035 0.07922 0.0
C1118 C 0.48023 0.19813 0.09584 0.0
C1119 C 0.47991 0.17118 0.08227 0.0
C1120 C 0.2892 0.42263 0.71642 0.0
C1121 C 0.26498 0.41445 0.7318 0.0
C1122 C 0.30918 0.44393 0.72664 0.0
C1123 C 0.30568 0.45805 0.75264 0.0
H1124 H 0.29284 0.41236 0.69636 0.0
H1125 H 0.32751 0.4493 0.71396 0.0
S1126 S 0.24499 0.44503 0.80045 0.0
N1127 N 0.23797 0.42245 0.77384 0.0
N1128 N 0.27554 0.4624 0.79329 0.0
C1129 C 0.28137 0.45009 0.76817 0.0
C1130 C 0.26105 0.42831 0.75774 0.0
C1131 C 0.29533 0.63273 0.80669 0.0
C1132 C 0.30632 0.65126 0.78652 0.0
C1133 C 0.30629 0.6072 0.81029 0.0
C1134 C 0.3287 0.59906 0.79384 0.0
H1135 H 0.27778 0.6378 0.81956 0.0
H1136 H 0.29677 0.59357 0.82588 0.0
S1137 S 0.36634 0.64101 0.7394 0.0
N1138 N 0.34191 0.66045 0.75089 0.0
N1139 N 0.36229 0.6123 0.75732 0.0
C1140 C 0.34019 0.6176 0.77384 0.0
C1141 C 0.32905 0.64369 0.77024 0.0
C1142 C 0.84746 0.44908 0.54674 0.0
C1143 C 0.85848 0.47065 0.52981 0.0
C1144 C 0.82061 0.43541 0.54175 0.0
C1145 C 0.80364 0.44282 0.51966 0.0
H1146 H 0.8597 0.44269 0.56404 0.0
H1147 H 0.81317 0.41882 0.55537 0.0
S1148 S 0.82307 0.49774 0.4689 0.0
N1149 N 0.85075 0.49866 0.48982 0.0
N1150 N 0.79991 0.4732 0.48061 0.0
C1151 C 0.81426 0.46466 0.50275 0.0
C1152 C 0.84177 0.47852 0.50779 0.0
C1153 C 0.71989 0.93515 0.81033 0.0
C1154 C 0.72662 0.9271 0.83737 0.0
C1155 C 0.69779 0.9517 0.80606 0.0
C1156 C 0.68201 0.9609 0.82875 0.0
H1157 H 0.73256 0.9297 0.79257 0.0
H1158 H 0.69404 0.95855 0.78518 0.0
S1159 S 0.68785 0.94157 0.90268 0.0
N1160 N 0.71296 0.92631 0.88638 0.0
N1161 N 0.67229 0.95822 0.87846 0.0
C1162 C 0.68742 0.95165 0.85552 0.0
C1163 C 0.70951 0.93453 0.85981 0.0
C1164 C 0.64703 0.55797 0.97183 0.0
C1165 C 0.65436 0.53099 0.96527 0.0
C1166 C 0.66769 0.57997 0.97866 0.0
C1167 C 0.69645 0.57586 0.9787 0.0
H1168 H 0.62513 0.56199 0.97209 0.0
H1169 H 0.66104 0.6004 0.9838 0.0
S1170 S 0.7264 0.50899 0.96212 0.0
N1171 N 0.69207 0.50122 0.95873 0.0
N1172 N 0.73109 0.54259 0.97121 0.0
C1173 C 0.70403 0.54895 0.97174 0.0
C1174 C 0.68292 0.5265 0.96516 0.0
C1175 C 0.18285 0.62588 0.24447 0.0
C1176 C 0.20398 0.6422 0.26014 0.0
C1177 C 0.16287 0.60751 0.2575 0.0
C1178 C 0.16363 0.60442 0.28658 0.0
H1179 H 0.18248 0.62625 0.22183 0.0
H1180 H 0.14776 0.59447 0.24452 0.0
S1181 S 0.21158 0.64513 0.33763 0.0
N1182 N 0.22181 0.65672 0.30686 0.0
N1183 N 0.18515 0.62087 0.33106 0.0
C1184 C 0.18363 0.62147 0.30269 0.0
C1185 C 0.20359 0.64068 0.28954 0.0
C1186 C 0.87708 0.58908 0.04921 0.0
C1187 C 0.88701 0.56678 0.03361 0.0
C1188 C 0.8539 0.602 0.03986 0.0
C1189 C 0.84031 0.59343 0.01431 0.0
H1190 H 0.8872 0.59644 0.06882 0.0
H1191 H 0.84687 0.61909 0.05252 0.0
S1192 S 0.85872 0.53607 0.96565 0.0
N1193 N 0.88178 0.53671 0.99152 0.0
N1194 N 0.83853 0.56101 0.97373 0.0
C1195 C 0.85021 0.57116 0.99853 0.0
C1196 C 0.87348 0.55782 0.00824 0.0
C1197 C 0.13366 0.99129 0.04794 0.0
C1198 C 0.13004 0.0147 0.03218 0.0
C1199 C 0.14955 0.97021 0.03758 0.0
C1200 C 0.1622 0.9717 0.01101 0.0
H1201 H 0.12507 0.9898 0.06884 0.0
H1202 H 0.15263 0.9531 0.05091 0.0
S1203 S 0.15577 0.02731 0.96028 0.0
N1204 N 0.13808 0.03712 0.98795 0.0
N1205 N 0.16773 0.99762 0.96823 0.0
C1206 C 0.1574 0.99441 0.99451 0.0
C1207 C 0.1414 0.01588 0.00517 0.0
loop_
_geom_bond_atom_site_label_1
_geom_bond_atom_site_label_2
_geom_bond_distance
_geom_bond_site_symmetry_2
_ccdc_geom_bond_type
P0 O11 1.490 . S
P0 C14 1.812 . S
P0 C20 1.803 . S
P0 C26 1.819 . S
H1 C15 0.941 . S
H2 C16 0.939 . S
H3 C18 0.940 . S
H4 C19 0.940 . S
H5 C21 0.939 . S
H6 C22 0.942 . S
H7 C24 0.940 . S
H8 C25 0.939 . S
H9 C27 0.941 . S
H10 C31 0.939 . S
O11 P0 1.490 . S
H12 C28 0.939 . S
H13 C30 0.940 . S
C14 P0 1.812 . S
C14 C15 1.389 . S
C14 C19 1.391 . S
C15 H1 0.941 . S
C15 C14 1.389 . S
C15 C16 1.397 . S
C16 H2 0.939 . S
C16 C15 1.397 . S
C16 C17 1.378 . S
C17 C16 1.378 . S
C17 C18 1.378 . S
C18 H3 0.940 . S
C18 C17 1.378 . S
C18 C19 1.396 . S
C19 H4 0.940 . S
C19 C14 1.391 . S
C19 C18 1.396 . S
C20 P0 1.803 . S
C20 C21 1.378 . S
C20 C25 1.400 . S
C21 H5 0.939 . S
C21 C20 1.378 . S
C21 C22 1.361 . S
C22 H6 0.942 . S
C22 C21 1.361 . S
C22 C23 1.369 . S
C23 C22 1.369 . S
C23 C24 1.404 . S
C24 H7 0.940 . S
C24 C23 1.404 . S
C24 C25 1.389 . S
C25 H8 0.939 . S
C25 C20 1.400 . S
C25 C24 1.389 . S
C26 P0 1.819 . S
C26 C27 1.391 . S
C26 C31 1.391 . S
C27 H9 0.941 . S
C27 C26 1.391 . S
C27 C28 1.396 . S
C28 H12 0.939 . S
C28 C27 1.396 . S
C28 C29 1.397 . S
C29 C28 1.397 . S
C29 C30 1.385 . S
C30 H13 0.940 . S
C30 C29 1.385 . S
C30 C31 1.388 . S
C31 H10 0.939 . S
C31 C26 1.391 . S
C31 C30 1.388 . S
P32 O43 1.490 . S
P32 C46 1.812 . S
P32 C52 1.803 . S
P32 C58 1.819 . S
H33 C47 0.941 . S
H34 C48 0.939 . S
H35 C50 0.940 . S
H36 C51 0.940 . S
H37 C53 0.939 . S
H38 C54 0.942 . S
H39 C56 0.940 . S
H40 C57 0.939 . S
H41 C59 0.941 . S
H42 C63 0.939 . S
O43 P32 1.490 . S
H44 C60 0.939 . S
H45 C62 0.940 . S
C46 P32 1.812 . S
C46 C47 1.389 . S
C46 C51 1.391 . S
C47 H33 0.941 . S
C47 C46 1.389 . S
C47 C48 1.397 . S
C48 H34 0.939 . S
C48 C47 1.397 . S
C48 C49 1.378 . S
C49 C48 1.378 . S
C49 C50 1.378 . S
C50 H35 0.940 . S
C50 C49 1.378 . S
C50 C51 1.396 . S
C51 H36 0.940 . S
C51 C46 1.391 . S
C51 C50 1.396 . S
C52 P32 1.803 . S
C52 C53 1.378 . S
C52 C57 1.400 . S
C53 H37 0.939 . S
C53 C52 1.378 . S
C53 C54 1.361 . S
C54 H38 0.942 . S
C54 C53 1.361 . S
C54 C55 1.369 . S
C55 C54 1.369 . S
C55 C56 1.404 . S
C56 H39 0.940 . S
C56 C55 1.404 . S
C56 C57 1.389 . S
C57 H40 0.939 . S
C57 C52 1.400 . S
C57 C56 1.389 . S
C58 P32 1.819 . S
C58 C59 1.391 . S
C58 C63 1.391 . S
C59 H41 0.941 . S
C59 C58 1.391 . S
C59 C60 1.396 . S
C60 H44 0.939 . S
C60 C59 1.396 . S
C60 C61 1.397 . S
C61 C60 1.397 . S
C61 C62 1.385 . S
C62 H45 0.940 . S
C62 C61 1.385 . S
C62 C63 1.388 . S
C63 H42 0.939 . S
C63 C58 1.391 . S
C63 C62 1.388 . S
P64 O75 1.490 . S
P64 C78 1.812 . S
P64 C84 1.803 . S
P64 C90 1.819 . S
H65 C79 0.941 . S
H66 C80 0.939 1_556 S
H67 C82 0.940 . S
H68 C83 0.940 . S
H69 C85 0.939 . S
H70 C86 0.942 . S
H71 C88 0.940 . S
H72 C89 0.939 . S
H73 C91 0.941 . S
H74 C95 0.939 . S
O75 P64 1.490 . S
H76 C92 0.939 . S
H77 C94 0.940 . S
C78 P64 1.812 . S
C78 C79 1.389 . S
C78 C83 1.391 . S
C79 H65 0.941 . S
C79 C78 1.389 . S
C79 C80 1.397 . S
C80 H66 0.939 1_554 S
C80 C79 1.397 . S
C80 C81 1.378 . S
C81 C80 1.378 . S
C81 C82 1.378 . S
C82 H67 0.940 . S
C82 C81 1.378 . S
C82 C83 1.396 . S
C83 H68 0.940 . S
C83 C78 1.391 . S
C83 C82 1.396 . S
C84 P64 1.803 . S
C84 C85 1.378 . S
C84 C89 1.400 . S
C85 H69 0.939 . S
C85 C84 1.378 . S
C85 C86 1.361 . S
C86 H70 0.942 . S
C86 C85 1.361 . S
C86 C87 1.369 . S
C87 C86 1.369 . S
C87 C88 1.404 . S
C88 H71 0.940 . S
C88 C87 1.404 . S
C88 C89 1.389 . S
C89 H72 0.939 . S
C89 C84 1.400 . S
C89 C88 1.389 . S
C90 P64 1.819 . S
C90 C91 1.391 . S
C90 C95 1.391 . S
C91 H73 0.941 . S
C91 C90 1.391 . S
C91 C92 1.396 . S
C92 H76 0.939 . S
C92 C91 1.396 . S
C92 C93 1.397 . S
C93 C92 1.397 . S
C93 C94 1.385 . S
C94 H77 0.940 . S
C94 C93 1.385 . S
C94 C95 1.388 . S
C95 H74 0.939 . S
C95 C90 1.391 . S
C95 C94 1.388 . S
P96 O107 1.490 . S
P96 C110 1.812 . S
P96 C116 1.803 . S
P96 C122 1.819 . S
H97 C111 0.941 . S
H98 C112 0.939 . S
H99 C114 0.940 . S
H100 C115 0.940 . S
H101 C117 0.939 . S
H102 C118 0.942 . S
H103 C120 0.940 . S
H104 C121 0.939 . S
H105 C123 0.941 . S
H106 C127 0.939 . S
O107 P96 1.490 . S
H108 C124 0.939 . S
H109 C126 0.940 . S
C110 P96 1.812 . S
C110 C111 1.389 . S
C110 C115 1.391 . S
C111 H97 0.941 . S
C111 C110 1.389 . S
C111 C112 1.397 . S
C112 H98 0.939 . S
C112 C111 1.397 . S
C112 C113 1.378 . S
C113 C112 1.378 . S
C113 C114 1.378 . S
C114 H99 0.940 . S
C114 C113 1.378 . S
C114 C115 1.396 . S
C115 H100 0.940 . S
C115 C110 1.391 . S
C115 C114 1.396 . S
C116 P96 1.803 . S
C116 C117 1.378 . S
C116 C121 1.400 . S
C117 H101 0.939 . S
C117 C116 1.378 . S
C117 C118 1.361 . S
C118 H102 0.942 . S
C118 C117 1.361 . S
C118 C119 1.369 . S
C119 C118 1.369 . S
C119 C120 1.404 . S
C120 H103 0.940 . S
C120 C119 1.404 . S
C120 C121 1.389 . S
C121 H104 0.939 . S
C121 C116 1.400 . S
C121 C120 1.389 . S
C122 P96 1.819 . S
C122 C123 1.391 . S
C122 C127 1.391 . S
C123 H105 0.941 . S
C123 C122 1.391 . S
C123 C124 1.396 . S
C124 H108 0.939 . S
C124 C123 1.396 . S
C124 C125 1.397 . S
C125 C124 1.397 . S
C125 C126 1.385 . S
C126 H109 0.940 . S
C126 C125 1.385 . S
C126 C127 1.388 . S
C127 H106 0.939 . S
C127 C122 1.391 . S
C127 C126 1.388 . S
P128 O139 1.490 . S
P128 C142 1.812 . S
P128 C148 1.803 . S
P128 C154 1.819 . S
H129 C143 0.941 . S
H130 C144 0.939 . S
H131 C146 0.940 . S
H132 C147 0.940 . S
H133 C149 0.939 . S
H134 C150 0.942 . S
H135 C152 0.940 . S
H136 C153 0.939 . S
H137 C155 0.941 . S
H138 C159 0.939 . S
O139 P128 1.490 . S
H140 C156 0.939 . S
H141 C158 0.942 1_655 S
C142 P128 1.812 . S
C142 C143 1.389 . S
C142 C147 1.391 . S
C143 H129 0.941 . S
C143 C142 1.389 . S
C143 C144 1.397 . S
C144 H130 0.939 . S
C144 C143 1.397 . S
C144 C145 1.378 1_565 S
C145 C144 1.378 1_545 S
C145 C146 1.378 . S
C146 H131 0.940 . S
C146 C145 1.378 . S
C146 C147 1.396 1_545 S
C147 H132 0.940 . S
C147 C142 1.391 . S
C147 C146 1.396 1_565 S
C148 P128 1.803 . S
C148 C149 1.378 . S
C148 C153 1.400 . S
C149 H133 0.939 . S
C149 C148 1.378 . S
C149 C150 1.361 . S
C150 H134 0.942 . S
C150 C149 1.361 . S
C150 C151 1.369 . S
C151 C150 1.369 . S
C151 C152 1.404 . S
C152 H135 0.940 . S
C152 C151 1.404 . S
C152 C153 1.389 . S
C153 H136 0.939 . S
C153 C148 1.400 . S
C153 C152 1.389 . S
C154 P128 1.819 . S
C154 C155 1.391 . S
C154 C159 1.391 . S
C155 H137 0.941 . S
C155 C154 1.391 . S
C155 C156 1.396 . S
C156 H140 0.939 . S
C156 C155 1.396 . S
C156 C157 1.397 . S
C157 C156 1.397 . S
C157 C158 1.385 . S
C158 H141 0.942 1_455 S
C158 C157 1.385 . S
C158 C159 1.388 . S
C159 H138 0.939 . S
C159 C154 1.391 . S
C159 C158 1.388 . S
P160 O171 1.490 . S
P160 C174 1.812 . S
P160 C180 1.803 . S
P160 C186 1.819 . S
H161 C175 0.941 . S
H162 C176 0.939 . S
H163 C178 0.940 . S
H164 C179 0.940 . S
H165 C181 0.939 . S
H166 C182 0.942 . S
H167 C184 0.940 . S
H168 C185 0.939 . S
H169 C187 0.941 . S
H170 C191 0.939 . S
O171 P160 1.490 . S
H172 C188 0.939 . S
H173 C190 0.940 . S
C174 P160 1.812 . S
C174 C175 1.389 . S
C174 C179 1.391 . S
C175 H161 0.941 . S
C175 C174 1.389 . S
C175 C176 1.397 . S
C176 H162 0.939 . S
C176 C175 1.397 . S
C176 C177 1.378 . S
C177 C176 1.378 . S
C177 C178 1.378 . S
C178 H163 0.940 . S
C178 C177 1.378 . S
C178 C179 1.396 . S
C179 H164 0.940 . S
C179 C174 1.391 . S
C179 C178 1.396 . S
C180 P160 1.803 . S
C180 C181 1.378 . S
C180 C185 1.400 . S
C181 H165 0.939 . S
C181 C180 1.378 . S
C181 C182 1.361 . S
C182 H166 0.942 . S
C182 C181 1.361 . S
C182 C183 1.369 . S
C183 C182 1.369 . S
C183 C184 1.404 . S
C184 H167 0.940 . S
C184 C183 1.404 . S
C184 C185 1.389 . S
C185 H168 0.939 . S
C185 C180 1.400 . S
C185 C184 1.389 . S
C186 P160 1.819 . S
C186 C187 1.391 . S
C186 C191 1.391 . S
C187 H169 0.941 . S
C187 C186 1.391 . S
C187 C188 1.396 . S
C188 H172 0.939 . S
C188 C187 1.396 . S
C188 C189 1.397 . S
C189 C188 1.397 . S
C189 C190 1.385 . S
C190 H173 0.940 . S
C190 C189 1.385 . S
C190 C191 1.388 . S
C191 H170 0.939 . S
C191 C186 1.391 . S
C191 C190 1.388 . S
P192 O203 1.490 . S
P192 C206 1.812 . S
P192 C212 1.803 . S
P192 C218 1.819 . S
H193 C207 0.941 . S
H194 C208 0.939 1_455 S
H195 C210 0.940 . S
H196 C211 0.940 . S
H197 C213 0.939 . S
H198 C214 0.942 . S
H199 C216 0.940 . S
H200 C217 0.939 . S
H201 C219 0.941 . S
H202 C223 0.939 . S
O203 P192 1.490 . S
H204 C220 0.939 . S
H205 C222 0.940 . S
C206 P192 1.812 . S
C206 C207 1.389 . S
C206 C211 1.391 . S
C207 H193 0.941 . S
C207 C206 1.389 . S
C207 C208 1.397 . S
C208 H194 0.939 1_655 S
C208 C207 1.397 . S
C208 C209 1.378 . S
C209 C208 1.378 . S
C209 C210 1.378 . S
C210 H195 0.940 . S
C210 C209 1.378 . S
C210 C211 1.396 . S
C211 H196 0.940 . S
C211 C206 1.391 . S
C211 C210 1.396 . S
C212 P192 1.803 . S
C212 C213 1.378 . S
C212 C217 1.400 . S
C213 H197 0.939 . S
C213 C212 1.378 . S
C213 C214 1.361 . S
C214 H198 0.942 . S
C214 C213 1.361 . S
C214 C215 1.369 . S
C215 C214 1.369 . S
C215 C216 1.404 . S
C216 H199 0.940 . S
C216 C215 1.404 . S
C216 C217 1.389 . S
C217 H200 0.939 . S
C217 C212 1.400 . S
C217 C216 1.389 . S
C218 P192 1.819 . S
C218 C219 1.391 . S
C218 C223 1.391 . S
C219 H201 0.941 . S
C219 C218 1.391 . S
C219 C220 1.396 . S
C220 H204 0.939 . S
C220 C219 1.396 . S
C220 C221 1.397 . S
C221 C220 1.397 . S
C221 C222 1.385 . S
C222 H205 0.940 . S
C222 C221 1.385 . S
C222 C223 1.388 . S
C223 H202 0.939 . S
C223 C218 1.391 . S
C223 C222 1.388 . S
P224 O235 1.490 . S
P224 C238 1.812 . S
P224 C244 1.803 . S
P224 C250 1.819 . S
H225 C239 0.941 . S
H226 C240 0.939 . S
H227 C242 0.940 . S
H228 C243 0.940 . S
H229 C245 0.939 . S
H230 C246 0.942 . S
H231 C248 0.940 . S
H232 C249 0.939 . S
H233 C251 0.941 . S
H234 C255 0.939 . S
O235 P224 1.490 . S
H236 C252 0.939 . S
H237 C254 0.940 . S
C238 P224 1.812 . S
C238 C239 1.389 . S
C238 C243 1.391 . S
C239 H225 0.941 . S
C239 C238 1.389 . S
C239 C240 1.397 . S
C240 H226 0.939 . S
C240 C239 1.397 . S
C240 C241 1.378 . S
C241 C240 1.378 . S
C241 C242 1.378 . S
C242 H227 0.940 . S
C242 C241 1.378 . S
C242 C243 1.396 . S
C243 H228 0.940 . S
C243 C238 1.391 . S
C243 C242 1.396 . S
C244 P224 1.803 . S
C244 C245 1.378 . S
C244 C249 1.400 . S
C245 H229 0.939 . S
C245 C244 1.378 . S
C245 C246 1.361 . S
C246 H230 0.942 . S
C246 C245 1.361 . S
C246 C247 1.369 . S
C247 C246 1.369 . S
C247 C248 1.404 . S
C248 H231 0.940 . S
C248 C247 1.404 . S
C248 C249 1.389 . S
C249 H232 0.939 . S
C249 C244 1.400 . S
C249 C248 1.389 . S
C250 P224 1.819 . S
C250 C251 1.391 . S
C250 C255 1.391 . S
C251 H233 0.941 . S
C251 C250 1.391 . S
C251 C252 1.396 . S
C252 H236 0.939 . S
C252 C251 1.396 . S
C252 C253 1.397 . S
C253 C252 1.397 . S
C253 C254 1.385 . S
C254 H237 0.940 . S
C254 C253 1.385 . S
C254 C255 1.388 . S
C255 H234 0.939 . S
C255 C250 1.391 . S
C255 C254 1.388 . S
P256 O267 1.490 . S
P256 C270 1.812 . S
P256 C276 1.803 . S
P256 C282 1.819 . S
H257 C271 0.941 . S
H258 C272 0.939 . S
H259 C274 0.940 . S
H260 C275 0.940 . S
H261 C277 0.939 . S
H262 C278 0.942 . S
H263 C280 0.940 . S
H264 C281 0.939 . S
H265 C283 0.941 . S
H266 C287 0.939 . S
O267 P256 1.490 . S
H268 C284 0.939 . S
H269 C286 0.940 . S
C270 P256 1.812 . S
C270 C271 1.389 . S
C270 C275 1.391 . S
C271 H257 0.941 . S
C271 C270 1.389 . S
C271 C272 1.397 . S
C272 H258 0.939 . S
C272 C271 1.397 . S
C272 C273 1.378 . S
C273 C272 1.378 . S
C273 C274 1.378 . S
C274 H259 0.940 . S
C274 C273 1.378 . S
C274 C275 1.396 . S
C275 H260 0.940 . S
C275 C270 1.391 . S
C275 C274 1.396 . S
C276 P256 1.803 . S
C276 C277 1.378 . S
C276 C281 1.400 . S
C277 H261 0.939 . S
C277 C276 1.378 . S
C277 C278 1.361 . S
C278 H262 0.942 . S
C278 C277 1.361 . S
C278 C279 1.369 . S
C279 C278 1.369 . S
C279 C280 1.404 . S
C280 H263 0.940 . S
C280 C279 1.404 . S
C280 C281 1.389 . S
C281 H264 0.939 . S
C281 C276 1.400 . S
C281 C280 1.389 . S
C282 P256 1.819 . S
C282 C283 1.391 . S
C282 C287 1.391 . S
C283 H265 0.941 . S
C283 C282 1.391 . S
C283 C284 1.396 . S
C284 H268 0.939 . S
C284 C283 1.396 . S
C284 C285 1.397 . S
C285 C284 1.397 . S
C285 C286 1.385 . S
C286 H269 0.940 . S
C286 C285 1.385 . S
C286 C287 1.388 . S
C287 H266 0.939 . S
C287 C282 1.391 . S
C287 C286 1.388 . S
P288 O299 1.490 . S
P288 C302 1.812 . S
P288 C308 1.803 . S
P288 C314 1.819 . S
H289 C303 0.941 . S
H290 C304 0.939 . S
H291 C306 0.940 . S
H292 C307 0.940 . S
H293 C309 0.939 1_545 S
H294 C310 0.942 . S
H295 C312 0.940 . S
H296 C313 0.939 . S
H297 C315 0.941 . S
H298 C319 0.939 . S
O299 P288 1.490 . S
H300 C316 0.939 . S
H301 C318 0.940 . S
C302 P288 1.812 . S
C302 C303 1.389 . S
C302 C307 1.391 . S
C303 H289 0.941 . S
C303 C302 1.389 . S
C303 C304 1.397 . S
C304 H290 0.939 . S
C304 C303 1.397 . S
C304 C305 1.378 . S
C305 C304 1.378 . S
C305 C306 1.378 . S
C306 H291 0.940 . S
C306 C305 1.378 . S
C306 C307 1.396 . S
C307 H292 0.940 . S
C307 C302 1.391 . S
C307 C306 1.396 . S
C308 P288 1.803 . S
C308 C309 1.378 . S
C308 C313 1.400 . S
C309 H293 0.939 1_565 S
C309 C308 1.378 . S
C309 C310 1.361 1_565 S
C310 H294 0.942 . S
C310 C309 1.361 1_545 S
C310 C311 1.369 1_545 S
C311 C310 1.369 1_565 S
C311 C312 1.404 . S
C312 H295 0.940 . S
C312 C311 1.404 . S
C312 C313 1.389 . S
C313 H296 0.939 . S
C313 C308 1.400 . S
C313 C312 1.389 . S
C314 P288 1.819 . S
C314 C315 1.391 . S
C314 C319 1.391 . S
C315 H297 0.941 . S
C315 C314 1.391 . S
C315 C316 1.396 . S
C316 H300 0.939 . S
C316 C315 1.396 . S
C316 C317 1.397 . S
C317 C316 1.397 . S
C317 C318 1.385 . S
C318 H301 0.940 . S
C318 C317 1.385 . S
C318 C319 1.388 . S
C319 H298 0.939 . S
C319 C314 1.391 . S
C319 C318 1.388 . S
P320 O331 1.490 . S
P320 C334 1.812 . S
P320 C340 1.803 . S
P320 C346 1.819 . S
H321 C335 0.941 . S
H322 C336 0.939 . S
H323 C338 0.940 . S
H324 C339 0.940 . S
H325 C341 0.939 . S
H326 C342 0.942 . S
H327 C344 0.940 . S
H328 C345 0.939 . S
H329 C347 0.941 . S
H330 C351 0.939 . S
O331 P320 1.490 . S
H332 C348 0.939 . S
H333 C350 0.940 . S
C334 P320 1.812 . S
C334 C335 1.389 . S
C334 C339 1.391 . S
C335 H321 0.941 . S
C335 C334 1.389 . S
C335 C336 1.397 . S
C336 H322 0.939 . S
C336 C335 1.397 . S
C336 C337 1.378 . S
C337 C336 1.378 . S
C337 C338 1.378 . S
C338 H323 0.940 . S
C338 C337 1.378 . S
C338 C339 1.396 . S
C339 H324 0.940 . S
C339 C334 1.391 . S
C339 C338 1.396 . S
C340 P320 1.803 . S
C340 C341 1.378 . S
C340 C345 1.400 . S
C341 H325 0.939 . S
C341 C340 1.378 . S
C341 C342 1.361 . S
C342 H326 0.942 . S
C342 C341 1.361 . S
C342 C343 1.369 . S
C343 C342 1.369 . S
C343 C344 1.404 . S
C344 H327 0.940 . S
C344 C343 1.404 . S
C344 C345 1.389 . S
C345 H328 0.939 . S
C345 C340 1.400 . S
C345 C344 1.389 . S
C346 P320 1.819 . S
C346 C347 1.391 . S
C346 C351 1.391 . S
C347 H329 0.941 . S
C347 C346 1.391 . S
C347 C348 1.396 . S
C348 H332 0.939 . S
C348 C347 1.396 . S
C348 C349 1.397 . S
C349 C348 1.397 . S
C349 C350 1.385 . S
C350 H333 0.940 . S
C350 C349 1.385 . S
C350 C351 1.388 . S
C351 H330 0.939 . S
C351 C346 1.391 . S
C351 C350 1.388 . S
P352 O363 1.490 . S
P352 C366 1.812 . S
P352 C372 1.803 . S
P352 C378 1.819 . S
H353 C367 0.941 . S
H354 C368 0.939 . S
H355 C370 0.940 . S
H356 C371 0.940 . S
H357 C373 0.939 . S
H358 C374 0.942 . S
H359 C376 0.940 . S
H360 C377 0.939 . S
H361 C379 0.941 . S
H362 C383 0.939 . S
O363 P352 1.490 . S
H364 C380 0.939 . S
H365 C382 0.940 . S
C366 P352 1.812 . S
C366 C367 1.389 . S
C366 C371 1.391 . S
C367 H353 0.941 . S
C367 C366 1.389 . S
C367 C368 1.397 . S
C368 H354 0.939 . S
C368 C367 1.397 . S
C368 C369 1.378 . S
C369 C368 1.378 . S
C369 C370 1.378 . S
C370 H355 0.940 . S
C370 C369 1.378 . S
C370 C371 1.396 . S
C371 H356 0.940 . S
C371 C366 1.391 . S
C371 C370 1.396 . S
C372 P352 1.803 . S
C372 C373 1.378 . S
C372 C377 1.400 . S
C373 H357 0.939 . S
C373 C372 1.378 . S
C373 C374 1.361 . S
C374 H358 0.942 . S
C374 C373 1.361 . S
C374 C375 1.369 . S
C375 C374 1.369 . S
C375 C376 1.404 . S
C376 H359 0.940 . S
C376 C375 1.404 . S
C376 C377 1.389 . S
C377 H360 0.939 . S
C377 C372 1.400 . S
C377 C376 1.389 . S
C378 P352 1.819 . S
C378 C379 1.391 . S
C378 C383 1.391 . S
C379 H361 0.941 . S
C379 C378 1.391 . S
C379 C380 1.396 . S
C380 H364 0.939 . S
C380 C379 1.396 . S
C380 C381 1.397 . S
C381 C380 1.397 . S
C381 C382 1.385 . S
C382 H365 0.940 . S
C382 C381 1.385 . S
C382 C383 1.388 . S
C383 H362 0.939 . S
C383 C378 1.391 . S
C383 C382 1.388 . S
P384 O395 1.490 . S
P384 C398 1.812 . S
P384 C404 1.803 . S
P384 C410 1.819 . S
H385 C399 0.941 . S
H386 C400 0.939 . S
H387 C402 0.940 . S
H388 C403 0.940 . S
H389 C405 0.939 . S
H390 C406 0.942 . S
H391 C408 0.940 . S
H392 C409 0.939 . S
H393 C411 0.941 . S
H394 C415 0.939 . S
O395 P384 1.490 . S
H396 C412 0.939 . S
H397 C414 0.940 . S
C398 P384 1.812 . S
C398 C399 1.389 . S
C398 C403 1.391 . S
C399 H385 0.941 . S
C399 C398 1.389 . S
C399 C400 1.397 . S
C400 H386 0.939 . S
C400 C399 1.397 . S
C400 C401 1.378 . S
C401 C400 1.378 . S
C401 C402 1.378 . S
C402 H387 0.940 . S
C402 C401 1.378 . S
C402 C403 1.396 . S
C403 H388 0.940 . S
C403 C398 1.391 . S
C403 C402 1.396 . S
C404 P384 1.803 . S
C404 C405 1.378 . S
C404 C409 1.400 . S
C405 H389 0.939 . S
C405 C404 1.378 . S
C405 C406 1.361 . S
C406 H390 0.942 . S
C406 C405 1.361 . S
C406 C407 1.369 . S
C407 C406 1.369 . S
C407 C408 1.404 . S
C408 H391 0.940 . S
C408 C407 1.404 . S
C408 C409 1.389 . S
C409 H392 0.939 . S
C409 C404 1.400 . S
C409 C408 1.389 . S
C410 P384 1.819 . S
C410 C411 1.391 . S
C410 C415 1.391 . S
C411 H393 0.941 . S
C411 C410 1.391 . S
C411 C412 1.396 . S
C412 H396 0.939 . S
C412 C411 1.396 . S
C412 C413 1.397 . S
C413 C412 1.397 . S
C413 C414 1.385 . S
C414 H397 0.940 . S
C414 C413 1.385 . S
C414 C415 1.388 . S
C415 H394 0.939 . S
C415 C410 1.391 . S
C415 C414 1.388 . S
P416 O427 1.490 . S
P416 C430 1.812 . S
P416 C436 1.803 . S
P416 C442 1.819 . S
H417 C431 0.941 . S
H418 C432 0.939 . S
H419 C434 0.940 . S
H420 C435 0.940 . S
H421 C437 0.939 . S
H422 C438 0.942 . S
H423 C440 0.940 . S
H424 C441 0.939 . S
H425 C443 0.941 . S
H426 C447 0.939 . S
O427 P416 1.490 . S
H428 C444 0.939 . S
H429 C446 0.940 . S
C430 P416 1.812 . S
C430 C431 1.389 . S
C430 C435 1.391 . S
C431 H417 0.941 . S
C431 C430 1.389 . S
C431 C432 1.397 . S
C432 H418 0.939 . S
C432 C431 1.397 . S
C432 C433 1.378 . S
C433 C432 1.378 . S
C433 C434 1.378 . S
C434 H419 0.940 . S
C434 C433 1.378 . S
C434 C435 1.396 . S
C435 H420 0.940 . S
C435 C430 1.391 . S
C435 C434 1.396 . S
C436 P416 1.803 . S
C436 C437 1.378 . S
C436 C441 1.400 . S
C437 H421 0.939 . S
C437 C436 1.378 . S
C437 C438 1.361 . S
C438 H422 0.942 . S
C438 C437 1.361 . S
C438 C439 1.369 . S
C439 C438 1.369 . S
C439 C440 1.404 . S
C440 H423 0.940 . S
C440 C439 1.404 . S
C440 C441 1.389 . S
C441 H424 0.939 . S
C441 C436 1.400 . S
C441 C440 1.389 . S
C442 P416 1.819 . S
C442 C443 1.391 . S
C442 C447 1.391 . S
C443 H425 0.941 . S
C443 C442 1.391 . S
C443 C444 1.396 . S
C444 H428 0.939 . S
C444 C443 1.396 . S
C444 C445 1.397 . S
C445 C444 1.397 . S
C445 C446 1.385 . S
C446 H429 0.940 . S
C446 C445 1.385 . S
C446 C447 1.388 . S
C447 H426 0.939 . S
C447 C442 1.391 . S
C447 C446 1.388 . S
P448 O459 1.490 . S
P448 C462 1.812 . S
P448 C468 1.803 . S
P448 C474 1.819 . S
H449 C463 0.941 . S
H450 C464 0.939 . S
H451 C466 0.940 . S
H452 C467 0.940 . S
H453 C469 0.939 . S
H454 C470 0.942 . S
H455 C472 0.940 . S
H456 C473 0.939 . S
H457 C475 0.941 . S
H458 C479 0.939 . S
O459 P448 1.490 . S
H460 C476 0.939 . S
H461 C478 0.940 . S
C462 P448 1.812 . S
C462 C463 1.389 . S
C462 C467 1.391 . S
C463 H449 0.941 . S
C463 C462 1.389 . S
C463 C464 1.397 . S
C464 H450 0.939 . S
C464 C463 1.397 . S
C464 C465 1.378 . S
C465 C464 1.378 . S
C465 C466 1.378 . S
C466 H451 0.940 . S
C466 C465 1.378 . S
C466 C467 1.396 . S
C467 H452 0.940 . S
C467 C462 1.391 . S
C467 C466 1.396 . S
C468 P448 1.803 . S
C468 C469 1.378 . S
C468 C473 1.400 . S
C469 H453 0.939 . S
C469 C468 1.378 . S
C469 C470 1.361 . S
C470 H454 0.942 . S
C470 C469 1.361 . S
C470 C471 1.369 . S
C471 C470 1.369 . S
C471 C472 1.404 . S
C472 H455 0.940 . S
C472 C471 1.404 . S
C472 C473 1.389 . S
C473 H456 0.939 . S
C473 C468 1.400 . S
C473 C472 1.389 . S
C474 P448 1.819 . S
C474 C475 1.391 . S
C474 C479 1.391 . S
C475 H457 0.941 . S
C475 C474 1.391 . S
C475 C476 1.396 . S
C476 H460 0.939 . S
C476 C475 1.396 . S
C476 C477 1.397 . S
C477 C476 1.397 . S
C477 C478 1.385 . S
C478 H461 0.940 . S
C478 C477 1.385 . S
C478 C479 1.388 . S
C479 H458 0.939 . S
C479 C474 1.391 . S
C479 C478 1.388 . S
P480 O491 1.490 . S
P480 C494 1.812 . S
P480 C500 1.803 . S
P480 C506 1.819 . S
H481 C495 0.941 . S
H482 C496 0.939 . S
H483 C498 0.940 . S
H484 C499 0.940 . S
H485 C501 0.939 . S
H486 C502 0.942 . S
H487 C504 0.940 . S
H488 C505 0.939 . S
H489 C507 0.941 . S
H490 C511 0.939 . S
O491 P480 1.490 . S
H492 C508 0.939 1_565 S
H493 C510 0.940 . S
C494 P480 1.812 . S
C494 C495 1.389 . S
C494 C499 1.391 . S
C495 H481 0.941 . S
C495 C494 1.389 . S
C495 C496 1.397 . S
C496 H482 0.939 . S
C496 C495 1.397 . S
C496 C497 1.378 . S
C497 C496 1.378 . S
C497 C498 1.378 . S
C498 H483 0.940 . S
C498 C497 1.378 . S
C498 C499 1.396 . S
C499 H484 0.940 . S
C499 C494 1.391 . S
C499 C498 1.396 . S
C500 P480 1.803 . S
C500 C501 1.378 1_556 S
C500 C505 1.400 . S
C501 H485 0.939 . S
C501 C500 1.378 1_554 S
C501 C502 1.361 . S
C502 H486 0.942 . S
C502 C501 1.361 . S
C502 C503 1.369 . S
C503 C502 1.369 . S
C503 C504 1.404 1_554 S
C504 H487 0.940 . S
C504 C503 1.404 1_556 S
C504 C505 1.389 . S
C505 H488 0.939 . S
C505 C500 1.400 . S
C505 C504 1.389 . S
C506 P480 1.819 . S
C506 C507 1.391 . S
C506 C511 1.391 . S
C507 H489 0.941 . S
C507 C506 1.391 . S
C507 C508 1.396 . S
C508 H492 0.939 1_545 S
C508 C507 1.396 . S
C508 C509 1.397 . S
C509 C508 1.397 . S
C509 C510 1.385 . S
C510 H493 0.940 . S
C510 C509 1.385 . S
C510 C511 1.388 . S
C511 H490 0.939 . S
C511 C506 1.391 . S
C511 C510 1.388 . S
O512 Cd513 2.223 . S
O512 C520 1.315 . S
Cd513 O512 2.223 . S
Cd513 O516 2.297 . S
Cd513 O517 2.439 . S
Cd513 O523 2.240 . S
Cd514 O515 2.240 . S
Cd514 O522 2.223 . S
Cd514 O524 2.297 . S
Cd514 O525 2.439 . S
O515 Cd514 2.240 . S
O515 C520 1.279 . S
O516 Cd513 2.297 . S
O516 C518 1.247 . S
O517 Cd513 2.439 . S
O517 C518 1.208 . S
C518 O516 1.247 . S
C518 O517 1.208 . S
C519 O524 1.247 . S
C519 O525 1.208 . S
C520 O512 1.315 . S
C520 O515 1.279 . S
C521 O522 1.315 . S
C521 O523 1.279 . S
O522 Cd514 2.223 . S
O522 C521 1.315 . S
O523 Cd513 2.240 . S
O523 C521 1.279 . S
O524 Cd514 2.297 . S
O524 C519 1.247 . S
O525 Cd514 2.439 . S
O525 C519 1.208 . S
O526 Cd527 2.223 . S
O526 C534 1.315 . S
Cd527 O526 2.223 . S
Cd527 O530 2.297 . S
Cd527 O531 2.439 . S
Cd527 O537 2.240 . S
Cd528 O529 2.240 . S
Cd528 O536 2.223 . S
Cd528 O538 2.297 . S
Cd528 O539 2.439 . S
O529 Cd528 2.240 . S
O529 C534 1.279 . S
O530 Cd527 2.297 . S
O530 C532 1.247 . S
O531 Cd527 2.439 . S
O531 C532 1.208 . S
C532 O530 1.247 . S
C532 O531 1.208 . S
C533 O538 1.247 . S
C533 O539 1.208 . S
C534 O526 1.315 . S
C534 O529 1.279 . S
C535 O536 1.315 . S
C535 O537 1.279 . S
O536 Cd528 2.223 . S
O536 C535 1.315 . S
O537 Cd527 2.240 . S
O537 C535 1.279 . S
O538 Cd528 2.297 . S
O538 C533 1.247 . S
O539 Cd528 2.439 . S
O539 C533 1.208 . S
O540 Cd541 2.223 1_556 S
O540 C548 1.315 . S
Cd541 O540 2.223 1_554 S
Cd541 O544 2.297 . S
Cd541 O545 2.439 . S
Cd541 O551 2.240 . S
Cd542 O543 2.240 . S
Cd542 O550 2.223 . S
Cd542 O552 2.297 1_556 S
Cd542 O553 2.439 1_556 S
O543 Cd542 2.240 . S
O543 C548 1.279 . S
O544 Cd541 2.297 . S
O544 C546 1.247 . S
O545 Cd541 2.439 . S
O545 C546 1.208 . S
C546 O544 1.247 . S
C546 O545 1.208 . S
C547 O552 1.247 . S
C547 O553 1.208 . S
C548 O540 1.315 . S
C548 O543 1.279 . S
C549 O550 1.315 . S
C549 O551 1.279 1_556 S
O550 Cd542 2.223 . S
O550 C549 1.315 . S
O551 Cd541 2.240 . S
O551 C549 1.279 1_554 S
O552 Cd542 2.297 1_554 S
O552 C547 1.247 . S
O553 Cd542 2.439 1_554 S
O553 C547 1.208 . S
O554 Cd555 2.223 . S
O554 C562 1.315 . S
Cd555 O554 2.223 . S
Cd555 O558 2.297 . S
Cd555 O559 2.439 . S
Cd555 O565 2.240 . S
Cd556 O557 2.240 . S
Cd556 O564 2.223 . S
Cd556 O566 2.297 . S
Cd556 O567 2.439 . S
O557 Cd556 2.240 . S
O557 C562 1.279 . S
O558 Cd555 2.297 . S
O558 C560 1.247 . S
O559 Cd555 2.439 . S
O559 C560 1.208 . S
C560 O558 1.247 . S
C560 O559 1.208 . S
C561 O566 1.247 . S
C561 O567 1.208 . S
C562 O554 1.315 . S
C562 O557 1.279 . S
C563 O564 1.315 . S
C563 O565 1.279 . S
O564 Cd556 2.223 . S
O564 C563 1.315 . S
O565 Cd555 2.240 . S
O565 C563 1.279 . S
O566 Cd556 2.297 . S
O566 C561 1.247 . S
O567 Cd556 2.439 . S
O567 C561 1.208 . S
O568 Cd569 2.223 . S
O568 C576 1.315 . S
Cd569 O568 2.223 . S
Cd569 O572 2.297 . S
Cd569 O573 2.439 . S
Cd569 O579 2.240 . S
Cd570 O571 2.240 . S
Cd570 O578 2.223 . S
Cd570 O580 2.297 . S
Cd570 O581 2.439 . S
O571 Cd570 2.240 . S
O571 C576 1.279 . S
O572 Cd569 2.297 . S
O572 C574 1.247 . S
O573 Cd569 2.439 . S
O573 C574 1.208 . S
C574 O572 1.247 . S
C574 O573 1.208 . S
C575 O580 1.247 . S
C575 O581 1.208 . S
C576 O568 1.315 . S
C576 O571 1.279 . S
C577 O578 1.315 . S
C577 O579 1.279 . S
O578 Cd570 2.223 . S
O578 C577 1.315 . S
O579 Cd569 2.240 . S
O579 C577 1.279 . S
O580 Cd570 2.297 . S
O580 C575 1.247 . S
O581 Cd570 2.439 . S
O581 C575 1.208 . S
O582 Cd583 2.223 . S
O582 C590 1.315 . S
Cd583 O582 2.223 . S
Cd583 O586 2.297 . S
Cd583 O587 2.439 . S
Cd583 O593 2.240 . S
Cd584 O585 2.240 . S
Cd584 O592 2.223 . S
Cd584 O594 2.297 . S
Cd584 O595 2.439 . S
O585 Cd584 2.240 . S
O585 C590 1.279 . S
O586 Cd583 2.297 . S
O586 C588 1.247 . S
O587 Cd583 2.439 . S
O587 C588 1.208 . S
C588 O586 1.247 . S
C588 O587 1.208 . S
C589 O594 1.247 . S
C589 O595 1.208 . S
C590 O582 1.315 . S
C590 O585 1.279 . S
C591 O592 1.315 . S
C591 O593 1.279 . S
O592 Cd584 2.223 . S
O592 C591 1.315 . S
O593 Cd583 2.240 . S
O593 C591 1.279 . S
O594 Cd584 2.297 . S
O594 C589 1.247 . S
O595 Cd584 2.439 . S
O595 C589 1.208 . S
O596 Cd597 2.223 . S
O596 C604 1.315 . S
Cd597 O596 2.223 . S
Cd597 O600 2.297 . S
Cd597 O601 2.439 . S
Cd597 O607 2.240 . S
Cd598 O599 2.240 . S
Cd598 O606 2.223 . S
Cd598 O608 2.297 . S
Cd598 O609 2.439 . S
O599 Cd598 2.240 . S
O599 C604 1.279 . S
O600 Cd597 2.297 . S
O600 C602 1.247 . S
O601 Cd597 2.439 . S
O601 C602 1.208 . S
C602 O600 1.247 . S
C602 O601 1.208 . S
C603 O608 1.247 . S
C603 O609 1.208 . S
C604 O596 1.315 . S
C604 O599 1.279 . S
C605 O606 1.315 . S
C605 O607 1.279 . S
O606 Cd598 2.223 . S
O606 C605 1.315 . S
O607 Cd597 2.240 . S
O607 C605 1.279 . S
O608 Cd598 2.297 . S
O608 C603 1.247 . S
O609 Cd598 2.439 . S
O609 C603 1.208 . S
O610 Cd611 2.223 1_545 S
O610 C618 1.315 . S
Cd611 O610 2.223 1_565 S
Cd611 O614 2.297 . S
Cd611 O615 2.439 . S
Cd611 O621 2.240 1_565 S
Cd612 O613 2.240 . S
Cd612 O620 2.223 . S
Cd612 O622 2.297 . S
Cd612 O623 2.439 1_545 S
O613 Cd612 2.240 . S
O613 C618 1.279 . S
O614 Cd611 2.297 . S
O614 C616 1.247 . S
O615 Cd611 2.439 . S
O615 C616 1.208 . S
C616 O614 1.247 . S
C616 O615 1.208 . S
C617 O622 1.247 1_565 S
C617 O623 1.208 . S
C618 O610 1.315 . S
C618 O613 1.279 . S
C619 O620 1.315 . S
C619 O621 1.279 . S
O620 Cd612 2.223 . S
O620 C619 1.315 . S
O621 Cd611 2.240 1_545 S
O621 C619 1.279 . S
O622 Cd612 2.297 . S
O622 C617 1.247 1_545 S
O623 Cd612 2.439 1_565 S
O623 C617 1.208 . S
O624 Cd625 2.223 . S
O624 C632 1.315 . S
Cd625 O624 2.223 . S
Cd625 O628 2.297 1_655 S
Cd625 O629 2.439 1_655 S
Cd625 O635 2.240 . S
Cd626 O627 2.240 . S
Cd626 O634 2.223 1_455 S
Cd626 O636 2.297 . S
Cd626 O637 2.439 . S
O627 Cd626 2.240 . S
O627 C632 1.279 1_455 S
O628 Cd625 2.297 1_455 S
O628 C630 1.247 . S
O629 Cd625 2.439 1_455 S
O629 C630 1.208 . S
C630 O628 1.247 . S
C630 O629 1.208 . S
C631 O636 1.247 . S
C631 O637 1.208 . S
C632 O624 1.315 . S
C632 O627 1.279 1_655 S
C633 O634 1.315 . S
C633 O635 1.279 . S
O634 Cd626 2.223 1_655 S
O634 C633 1.315 . S
O635 Cd625 2.240 . S
O635 C633 1.279 . S
O636 Cd626 2.297 . S
O636 C631 1.247 . S
O637 Cd626 2.439 . S
O637 C631 1.208 . S
O638 Cd639 2.223 . S
O638 C646 1.315 . S
Cd639 O638 2.223 . S
Cd639 O642 2.297 . S
Cd639 O643 2.439 . S
Cd639 O649 2.240 . S
Cd640 O641 2.240 . S
Cd640 O648 2.223 . S
Cd640 O650 2.297 . S
Cd640 O651 2.439 . S
O641 Cd640 2.240 . S
O641 C646 1.279 . S
O642 Cd639 2.297 . S
O642 C644 1.247 . S
O643 Cd639 2.439 . S
O643 C644 1.208 . S
C644 O642 1.247 . S
C644 O643 1.208 . S
C645 O650 1.247 . S
C645 O651 1.208 . S
C646 O638 1.315 . S
C646 O641 1.279 . S
C647 O648 1.315 . S
C647 O649 1.279 . S
O648 Cd640 2.223 . S
O648 C647 1.315 . S
O649 Cd639 2.240 . S
O649 C647 1.279 . S
O650 Cd640 2.297 . S
O650 C645 1.247 . S
O651 Cd640 2.439 . S
O651 C645 1.208 . S
O652 Cd653 2.223 1_655 S
O652 C660 1.315 . S
Cd653 O652 2.223 1_455 S
Cd653 O656 2.297 . S
Cd653 O657 2.439 . S
Cd653 O663 2.240 . S
Cd654 O655 2.240 . S
Cd654 O662 2.223 . S
Cd654 O664 2.297 . S
Cd654 O665 2.439 1_655 S
O655 Cd654 2.240 . S
O655 C660 1.279 . S
O656 Cd653 2.297 . S
O656 C658 1.247 . S
O657 Cd653 2.439 . S
O657 C658 1.208 . S
C658 O656 1.247 . S
C658 O657 1.208 . S
C659 O664 1.247 1_455 S
C659 O665 1.208 . S
C660 O652 1.315 . S
C660 O655 1.279 . S
C661 O662 1.315 . S
C661 O663 1.279 1_655 S
O662 Cd654 2.223 . S
O662 C661 1.315 . S
O663 Cd653 2.240 . S
O663 C661 1.279 1_455 S
O664 Cd654 2.297 . S
O664 C659 1.247 1_655 S
O665 Cd654 2.439 1_455 S
O665 C659 1.208 . S
O666 Cd667 2.223 . S
O666 C674 1.315 . S
Cd667 O666 2.223 . S
Cd667 O670 2.297 . S
Cd667 O671 2.439 . S
Cd667 O677 2.240 . S
Cd668 O669 2.240 . S
Cd668 O676 2.223 . S
Cd668 O678 2.297 . S
Cd668 O679 2.439 . S
O669 Cd668 2.240 . S
O669 C674 1.279 . S
O670 Cd667 2.297 . S
O670 C672 1.247 . S
O671 Cd667 2.439 . S
O671 C672 1.208 . S
C672 O670 1.247 . S
C672 O671 1.208 . S
C673 O678 1.247 . S
C673 O679 1.208 . S
C674 O666 1.315 . S
C674 O669 1.279 . S
C675 O676 1.315 . S
C675 O677 1.279 . S
O676 Cd668 2.223 . S
O676 C675 1.315 . S
O677 Cd667 2.240 . S
O677 C675 1.279 . S
O678 Cd668 2.297 . S
O678 C673 1.247 . S
O679 Cd668 2.439 . S
O679 C673 1.208 . S
C680 C681 1.369 . S
C680 C682 1.419 . S
C680 H684 0.930 . S
C681 C680 1.369 . S
C681 C690 1.429 . S
C682 C680 1.419 . S
C682 C683 1.363 . S
C682 H685 0.929 . S
C683 C682 1.363 . S
C683 C689 1.428 . S
H684 C680 0.930 . S
H685 C682 0.929 . S
S686 N687 1.613 . S
S686 N688 1.610 . S
N687 S686 1.613 . S
N687 C690 1.350 . S
N688 S686 1.610 . S
N688 C689 1.351 . S
C689 C683 1.428 . S
C689 N688 1.351 . S
C689 C690 1.434 . S
C690 C681 1.429 . S
C690 N687 1.350 . S
C690 C689 1.434 . S
C691 C692 1.369 . S
C691 C693 1.419 1_655 S
C691 H695 0.930 . S
C692 C691 1.369 . S
C692 C701 1.429 1_655 S
C693 C691 1.419 1_455 S
C693 C694 1.363 . S
C693 H696 0.929 . S
C694 C693 1.363 . S
C694 C700 1.428 . S
H695 C691 0.930 . S
H696 C693 0.929 . S
S697 N698 1.613 . S
S697 N699 1.610 . S
N698 S697 1.613 . S
N698 C701 1.350 . S
N699 S697 1.610 . S
N699 C700 1.351 . S
C700 C694 1.428 . S
C700 N699 1.351 . S
C700 C701 1.434 . S
C701 C692 1.429 1_455 S
C701 N698 1.350 . S
C701 C700 1.434 . S
C702 C703 1.369 . S
C702 C704 1.419 . S
C702 H706 0.930 . S
C703 C702 1.369 . S
C703 C712 1.429 . S
C704 C702 1.419 . S
C704 C705 1.363 . S
C704 H707 0.929 . S
C705 C704 1.363 . S
C705 C711 1.428 . S
H706 C702 0.930 . S
H707 C704 0.929 . S
S708 N709 1.613 . S
S708 N710 1.610 . S
N709 S708 1.613 . S
N709 C712 1.350 . S
N710 S708 1.610 . S
N710 C711 1.351 . S
C711 C705 1.428 . S
C711 N710 1.351 . S
C711 C712 1.434 . S
C712 C703 1.429 . S
C712 N709 1.350 . S
C712 C711 1.434 . S
C713 C714 1.369 . S
C713 C715 1.419 . S
C713 H717 0.930 . S
C714 C713 1.369 . S
C714 C723 1.429 1_565 S
C715 C713 1.419 . S
C715 C716 1.363 1_565 S
C715 H718 0.929 . S
C716 C715 1.363 1_545 S
C716 C722 1.428 . S
H717 C713 0.930 . S
H718 C715 0.929 . S
S719 N720 1.613 . S
S719 N721 1.610 1_455 S
N720 S719 1.613 . S
N720 C723 1.350 1_455 S
N721 S719 1.610 1_655 S
N721 C722 1.351 . S
C722 C716 1.428 . S
C722 N721 1.351 . S
C722 C723 1.434 . S
C723 C714 1.429 1_545 S
C723 N720 1.350 1_655 S
C723 C722 1.434 . S
C724 C725 1.369 . S
C724 C726 1.419 . S
C724 H728 0.930 . S
C725 C724 1.369 . S
C725 C734 1.429 . S
C726 C724 1.419 . S
C726 C727 1.363 . S
C726 H729 0.929 . S
C727 C726 1.363 . S
C727 C733 1.428 . S
H728 C724 0.930 . S
H729 C726 0.929 . S
S730 N731 1.613 . S
S730 N732 1.610 . S
N731 S730 1.613 . S
N731 C734 1.350 . S
N732 S730 1.610 . S
N732 C733 1.351 . S
C733 C727 1.428 . S
C733 N732 1.351 . S
C733 C734 1.434 . S
C734 C725 1.429 . S
C734 N731 1.350 . S
C734 C733 1.434 . S
C735 C736 1.369 . S
C735 C737 1.419 . S
C735 H739 0.930 . S
C736 C735 1.369 . S
C736 C745 1.429 . S
C737 C735 1.419 . S
C737 C738 1.363 . S
C737 H740 0.929 . S
C738 C737 1.363 . S
C738 C744 1.428 . S
H739 C735 0.930 . S
H740 C737 0.929 . S
S741 N742 1.613 . S
S741 N743 1.610 . S
N742 S741 1.613 . S
N742 C745 1.350 . S
N743 S741 1.610 . S
N743 C744 1.351 . S
C744 C738 1.428 . S
C744 N743 1.351 . S
C744 C745 1.434 . S
C745 C736 1.429 . S
C745 N742 1.350 . S
C745 C744 1.434 . S
C746 C747 1.369 . S
C746 C748 1.419 . S
C746 H750 0.930 . S
C747 C746 1.369 . S
C747 C756 1.429 . S
C748 C746 1.419 . S
C748 C749 1.363 . S
C748 H751 0.929 . S
C749 C748 1.363 . S
C749 C755 1.428 . S
H750 C746 0.930 . S
H751 C748 0.929 . S
S752 N753 1.613 . S
S752 N754 1.610 . S
N753 S752 1.613 . S
N753 C756 1.350 . S
N754 S752 1.610 . S
N754 C755 1.351 . S
C755 C749 1.428 . S
C755 N754 1.351 . S
C755 C756 1.434 . S
C756 C747 1.429 . S
C756 N753 1.350 . S
C756 C755 1.434 . S
C757 C758 1.369 . S
C757 C759 1.419 . S
C757 H761 0.930 . S
C758 C757 1.369 . S
C758 C767 1.429 . S
C759 C757 1.419 . S
C759 C760 1.363 . S
C759 H762 0.929 . S
C760 C759 1.363 . S
C760 C766 1.428 . S
H761 C757 0.930 . S
H762 C759 0.929 . S
S763 N764 1.613 . S
S763 N765 1.610 . S
N764 S763 1.613 . S
N764 C767 1.350 . S
N765 S763 1.610 . S
N765 C766 1.351 . S
C766 C760 1.428 . S
C766 N765 1.351 . S
C766 C767 1.434 . S
C767 C758 1.429 . S
C767 N764 1.350 . S
C767 C766 1.434 . S
C768 C769 1.369 . S
C768 C770 1.419 . S
C768 H772 0.930 . S
C769 C768 1.369 . S
C769 C778 1.429 . S
C770 C768 1.419 . S
C770 C771 1.363 . S
C770 H773 0.929 . S
C771 C770 1.363 . S
C771 C777 1.428 . S
H772 C768 0.930 . S
H773 C770 0.929 . S
S774 N775 1.613 . S
S774 N776 1.610 . S
N775 S774 1.613 . S
N775 C778 1.350 . S
N776 S774 1.610 . S
N776 C777 1.351 . S
C777 C771 1.428 . S
C777 N776 1.351 . S
C777 C778 1.434 . S
C778 C769 1.429 . S
C778 N775 1.350 . S
C778 C777 1.434 . S
C779 C780 1.369 . S
C779 C781 1.419 . S
C779 H783 0.930 . S
C780 C779 1.369 . S
C780 C789 1.429 . S
C781 C779 1.419 . S
C781 C782 1.363 . S
C781 H784 0.929 . S
C782 C781 1.363 . S
C782 C788 1.428 . S
H783 C779 0.930 . S
H784 C781 0.929 . S
S785 N786 1.613 . S
S785 N787 1.610 . S
N786 S785 1.613 . S
N786 C789 1.350 . S
N787 S785 1.610 . S
N787 C788 1.351 . S
C788 C782 1.428 . S
C788 N787 1.351 . S
C788 C789 1.434 . S
C789 C780 1.429 . S
C789 N786 1.350 . S
C789 C788 1.434 . S
C790 C791 1.369 . S
C790 C792 1.419 . S
C790 H794 0.930 . S
C791 C790 1.369 . S
C791 C800 1.429 . S
C792 C790 1.419 . S
C792 C793 1.363 . S
C792 H795 0.929 . S
C793 C792 1.363 . S
C793 C799 1.428 . S
H794 C790 0.930 . S
H795 C792 0.929 . S
S796 N797 1.613 . S
S796 N798 1.610 . S
N797 S796 1.613 . S
N797 C800 1.350 . S
N798 S796 1.610 . S
N798 C799 1.351 . S
C799 C793 1.428 . S
C799 N798 1.351 . S
C799 C800 1.434 . S
C800 C791 1.429 . S
C800 N797 1.350 . S
C800 C799 1.434 . S
C801 C802 1.369 . S
C801 C803 1.419 . S
C801 H805 0.930 . S
C802 C801 1.369 . S
C802 C811 1.429 . S
C803 C801 1.419 . S
C803 C804 1.363 . S
C803 H806 0.929 . S
C804 C803 1.363 . S
C804 C810 1.428 . S
H805 C801 0.930 . S
H806 C803 0.929 . S
S807 N808 1.613 . S
S807 N809 1.610 . S
N808 S807 1.613 . S
N808 C811 1.350 . S
N809 S807 1.610 . S
N809 C810 1.351 . S
C810 C804 1.428 . S
C810 N809 1.351 . S
C810 C811 1.434 . S
C811 C802 1.429 . S
C811 N808 1.350 . S
C811 C810 1.434 . S
C812 C813 1.369 . S
C812 C814 1.419 . S
C812 H816 0.930 . S
C813 C812 1.369 . S
C813 C822 1.429 . S
C814 C812 1.419 . S
C814 C815 1.363 . S
C814 H817 0.929 . S
C815 C814 1.363 . S
C815 C821 1.428 . S
H816 C812 0.930 . S
H817 C814 0.929 . S
S818 N819 1.613 . S
S818 N820 1.610 . S
N819 S818 1.613 . S
N819 C822 1.350 . S
N820 S818 1.610 . S
N820 C821 1.351 . S
C821 C815 1.428 . S
C821 N820 1.351 . S
C821 C822 1.434 . S
C822 C813 1.429 . S
C822 N819 1.350 . S
C822 C821 1.434 . S
C823 C824 1.369 . S
C823 C825 1.419 . S
C823 H827 0.930 . S
C824 C823 1.369 . S
C824 C833 1.429 . S
C825 C823 1.419 . S
C825 C826 1.363 . S
C825 H828 0.929 . S
C826 C825 1.363 . S
C826 C832 1.428 . S
H827 C823 0.930 . S
H828 C825 0.929 . S
S829 N830 1.613 . S
S829 N831 1.610 . S
N830 S829 1.613 . S
N830 C833 1.350 . S
N831 S829 1.610 . S
N831 C832 1.351 . S
C832 C826 1.428 . S
C832 N831 1.351 . S
C832 C833 1.434 . S
C833 C824 1.429 . S
C833 N830 1.350 . S
C833 C832 1.434 . S
C834 C835 1.369 . S
C834 C836 1.419 . S
C834 H838 0.930 . S
C835 C834 1.369 . S
C835 C844 1.429 . S
C836 C834 1.419 . S
C836 C837 1.363 . S
C836 H839 0.929 . S
C837 C836 1.363 . S
C837 C843 1.428 . S
H838 C834 0.930 . S
H839 C836 0.929 . S
S840 N841 1.613 . S
S840 N842 1.610 . S
N841 S840 1.613 . S
N841 C844 1.350 . S
N842 S840 1.610 . S
N842 C843 1.351 . S
C843 C837 1.428 . S
C843 N842 1.351 . S
C843 C844 1.434 . S
C844 C835 1.429 . S
C844 N841 1.350 . S
C844 C843 1.434 . S
C845 C846 1.369 . S
C845 C847 1.419 . S
C845 H849 0.930 . S
C846 C845 1.369 . S
C846 C855 1.429 . S
C847 C845 1.419 . S
C847 C848 1.363 . S
C847 H850 0.929 . S
C848 C847 1.363 . S
C848 C854 1.428 . S
H849 C845 0.930 . S
H850 C847 0.929 . S
S851 N852 1.613 . S
S851 N853 1.610 . S
N852 S851 1.613 . S
N852 C855 1.350 . S
N853 S851 1.610 . S
N853 C854 1.351 . S
C854 C848 1.428 . S
C854 N853 1.351 . S
C854 C855 1.434 . S
C855 C846 1.429 . S
C855 N852 1.350 . S
C855 C854 1.434 . S
C856 C857 1.369 . S
C856 C858 1.419 . S
C856 H860 0.930 . S
C857 C856 1.369 . S
C857 C866 1.429 . S
C858 C856 1.419 . S
C858 C859 1.363 . S
C858 H861 0.929 . S
C859 C858 1.363 . S
C859 C865 1.428 . S
H860 C856 0.930 . S
H861 C858 0.929 . S
S862 N863 1.613 . S
S862 N864 1.610 . S
N863 S862 1.613 . S
N863 C866 1.350 . S
N864 S862 1.610 . S
N864 C865 1.351 . S
C865 C859 1.428 . S
C865 N864 1.351 . S
C865 C866 1.434 . S
C866 C857 1.429 . S
C866 N863 1.350 . S
C866 C865 1.434 . S
C867 C868 1.369 . S
C867 C869 1.419 . S
C867 H871 0.930 . S
C868 C867 1.369 . S
C868 C877 1.429 . S
C869 C867 1.419 . S
C869 C870 1.363 . S
C869 H872 0.929 . S
C870 C869 1.363 . S
C870 C876 1.428 . S
H871 C867 0.930 . S
H872 C869 0.929 . S
S873 N874 1.613 . S
S873 N875 1.610 . S
N874 S873 1.613 . S
N874 C877 1.350 . S
N875 S873 1.610 . S
N875 C876 1.351 . S
C876 C870 1.428 . S
C876 N875 1.351 . S
C876 C877 1.434 . S
C877 C868 1.429 . S
C877 N874 1.350 . S
C877 C876 1.434 . S
C878 C879 1.369 1_565 S
C878 C880 1.419 . S
C878 H882 0.930 . S
C879 C878 1.369 1_545 S
C879 C888 1.429 1_556 S
C880 C878 1.419 . S
C880 C881 1.363 1_556 S
C880 H883 0.929 . S
C881 C880 1.363 1_554 S
C881 C887 1.428 . S
H882 C878 0.930 . S
H883 C880 0.929 . S
S884 N885 1.613 . S
S884 N886 1.620 . S
N885 S884 1.613 . S
N885 C888 1.350 . S
N886 S884 1.620 . S
N886 C887 1.349 1_545 S
C887 C881 1.428 . S
C887 N886 1.349 1_565 S
C887 C888 1.434 1_565 S
C888 C879 1.429 1_554 S
C888 N885 1.350 . S
C888 C887 1.434 1_545 S
C889 C890 1.369 . S
C889 C891 1.419 . S
C889 H893 0.930 . S
C890 C889 1.369 . S
C890 C899 1.429 . S
C891 C889 1.419 . S
C891 C892 1.363 . S
C891 H894 0.929 . S
C892 C891 1.363 . S
C892 C898 1.428 . S
H893 C889 0.930 . S
H894 C891 0.929 . S
S895 N896 1.613 . S
S895 N897 1.610 . S
N896 S895 1.613 . S
N896 C899 1.350 . S
N897 S895 1.610 . S
N897 C898 1.351 . S
C898 C892 1.428 . S
C898 N897 1.351 . S
C898 C899 1.434 . S
C899 C890 1.429 . S
C899 N896 1.350 . S
C899 C898 1.434 . S
C900 C901 1.369 . S
C900 C902 1.419 . S
C900 H904 0.930 . S
C901 C900 1.369 . S
C901 C910 1.429 . S
C902 C900 1.419 . S
C902 C903 1.363 . S
C902 H905 0.929 . S
C903 C902 1.363 . S
C903 C909 1.428 . S
H904 C900 0.930 . S
H905 C902 0.929 . S
S906 N907 1.613 . S
S906 N908 1.610 . S
N907 S906 1.613 . S
N907 C910 1.350 . S
N908 S906 1.610 . S
N908 C909 1.351 . S
C909 C903 1.428 . S
C909 N908 1.351 . S
C909 C910 1.434 . S
C910 C901 1.429 . S
C910 N907 1.350 . S
C910 C909 1.434 . S
C911 C912 1.369 . S
C911 C913 1.419 . S
C911 H915 0.930 . S
C912 C911 1.369 . S
C912 C921 1.429 . S
C913 C911 1.419 . S
C913 C914 1.363 . S
C913 H916 0.929 . S
C914 C913 1.363 . S
C914 C920 1.428 . S
H915 C911 0.930 . S
H916 C913 0.929 . S
S917 N918 1.613 . S
S917 N919 1.610 . S
N918 S917 1.613 . S
N918 C921 1.350 . S
N919 S917 1.610 . S
N919 C920 1.351 . S
C920 C914 1.428 . S
C920 N919 1.351 . S
C920 C921 1.434 . S
C921 C912 1.429 . S
C921 N918 1.350 . S
C921 C920 1.434 . S
C922 C923 1.369 . S
C922 C924 1.419 . S
C922 H926 0.930 . S
C923 C922 1.369 . S
C923 C932 1.429 . S
C924 C922 1.419 . S
C924 C925 1.363 . S
C924 H927 0.929 . S
C925 C924 1.363 . S
C925 C931 1.428 . S
H926 C922 0.930 . S
H927 C924 0.929 . S
S928 N929 1.613 1_545 S
S928 N930 1.610 . S
N929 S928 1.613 1_565 S
N929 C932 1.350 1_565 S
N930 S928 1.610 . S
N930 C931 1.351 . S
C931 C925 1.428 . S
C931 N930 1.351 . S
C931 C932 1.434 . S
C932 C923 1.429 . S
C932 N929 1.350 1_545 S
C932 C931 1.434 . S
C933 C934 1.369 . S
C933 C935 1.419 . S
C933 H937 0.930 . S
C934 C933 1.369 . S
C934 C943 1.429 . S
C935 C933 1.419 . S
C935 C936 1.363 . S
C935 H938 0.929 . S
C936 C935 1.363 . S
C936 C942 1.428 . S
H937 C933 0.930 . S
H938 C935 0.929 . S
S939 N940 1.613 . S
S939 N941 1.610 . S
N940 S939 1.613 . S
N940 C943 1.350 . S
N941 S939 1.610 . S
N941 C942 1.351 . S
C942 C936 1.428 . S
C942 N941 1.351 . S
C942 C943 1.434 . S
C943 C934 1.429 . S
C943 N940 1.350 . S
C943 C942 1.434 . S
C944 C945 1.369 . S
C944 C946 1.419 . S
C944 H948 0.930 . S
C945 C944 1.369 . S
C945 C954 1.429 . S
C946 C944 1.419 . S
C946 C947 1.363 . S
C946 H949 0.929 . S
C947 C946 1.363 . S
C947 C953 1.428 . S
H948 C944 0.930 . S
H949 C946 0.929 . S
S950 N951 1.613 . S
S950 N952 1.610 . S
N951 S950 1.613 . S
N951 C954 1.350 . S
N952 S950 1.610 . S
N952 C953 1.351 . S
C953 C947 1.428 . S
C953 N952 1.351 . S
C953 C954 1.434 . S
C954 C945 1.429 . S
C954 N951 1.350 . S
C954 C953 1.434 . S
C955 C956 1.369 . S
C955 C957 1.419 . S
C955 H959 0.930 . S
C956 C955 1.369 . S
C956 C965 1.429 . S
C957 C955 1.419 . S
C957 C958 1.363 . S
C957 H960 0.929 . S
C958 C957 1.363 . S
C958 C964 1.428 . S
H959 C955 0.930 . S
H960 C957 0.929 . S
S961 N962 1.613 1_565 S
S961 N963 1.610 . S
N962 S961 1.613 1_545 S
N962 C965 1.350 . S
N963 S961 1.610 . S
N963 C964 1.351 1_565 S
C964 C958 1.428 . S
C964 N963 1.351 1_545 S
C964 C965 1.434 . S
C965 C956 1.429 . S
C965 N962 1.350 . S
C965 C964 1.434 . S
C966 C967 1.369 . S
C966 C968 1.419 . S
C966 H970 0.930 . S
C967 C966 1.369 . S
C967 C976 1.429 . S
C968 C966 1.419 . S
C968 C969 1.363 . S
C968 H971 0.929 . S
C969 C968 1.363 . S
C969 C975 1.428 . S
H970 C966 0.930 . S
H971 C968 0.929 . S
S972 N973 1.613 . S
S972 N974 1.610 . S
N973 S972 1.613 . S
N973 C976 1.350 . S
N974 S972 1.610 . S
N974 C975 1.351 . S
C975 C969 1.428 . S
C975 N974 1.351 . S
C975 C976 1.434 . S
C976 C967 1.429 . S
C976 N973 1.350 . S
C976 C975 1.434 . S
C977 C978 1.369 . S
C977 C979 1.419 . S
C977 H981 0.930 . S
C978 C977 1.369 . S
C978 C987 1.429 . S
C979 C977 1.419 . S
C979 C980 1.363 . S
C979 H982 0.929 . S
C980 C979 1.363 . S
C980 C986 1.428 . S
H981 C977 0.930 . S
H982 C979 0.929 . S
S983 N984 1.613 . S
S983 N985 1.610 . S
N984 S983 1.613 . S
N984 C987 1.350 . S
N985 S983 1.610 . S
N985 C986 1.351 . S
C986 C980 1.428 . S
C986 N985 1.351 . S
C986 C987 1.434 . S
C987 C978 1.429 . S
C987 N984 1.350 . S
C987 C986 1.434 . S
C988 C989 1.369 . S
C988 C990 1.419 . S
C988 H992 0.930 . S
C989 C988 1.369 . S
C989 C998 1.429 . S
C990 C988 1.419 . S
C990 C991 1.363 . S
C990 H993 0.929 . S
C991 C990 1.363 . S
C991 C997 1.428 . S
H992 C988 0.930 . S
H993 C990 0.929 . S
S994 N995 1.613 . S
S994 N996 1.610 . S
N995 S994 1.613 . S
N995 C998 1.350 . S
N996 S994 1.610 . S
N996 C997 1.351 . S
C997 C991 1.428 . S
C997 N996 1.351 . S
C997 C998 1.434 . S
C998 C989 1.429 . S
C998 N995 1.350 . S
C998 C997 1.434 . S
C999 C1000 1.369 1_655 S
C999 C1001 1.419 . S
C999 H1003 0.930 . S
C1000 C999 1.369 1_455 S
C1000 C1009 1.429 . S
C1001 C999 1.419 . S
C1001 C1002 1.363 . S
C1001 H1004 0.929 . S
C1002 C1001 1.363 . S
C1002 C1008 1.428 . S
H1003 C999 0.930 . S
H1004 C1001 0.929 . S
S1005 N1006 1.613 . S
S1005 N1007 1.608 1_455 S
N1006 S1005 1.613 . S
N1006 C1009 1.350 . S
N1007 S1005 1.608 1_655 S
N1007 C1008 1.351 . S
C1008 C1002 1.428 . S
C1008 N1007 1.351 . S
C1008 C1009 1.434 1_655 S
C1009 C1000 1.429 . S
C1009 N1006 1.350 . S
C1009 C1008 1.434 1_455 S
C1010 C1011 1.369 . S
C1010 C1012 1.419 . S
C1010 H1014 0.930 . S
C1011 C1010 1.369 . S
C1011 C1020 1.429 . S
C1012 C1010 1.419 . S
C1012 C1013 1.363 . S
C1012 H1015 0.929 . S
C1013 C1012 1.363 . S
C1013 C1019 1.428 . S
H1014 C1010 0.930 . S
H1015 C1012 0.929 . S
S1016 N1017 1.613 . S
S1016 N1018 1.610 . S
N1017 S1016 1.613 . S
N1017 C1020 1.350 . S
N1018 S1016 1.610 . S
N1018 C1019 1.351 . S
C1019 C1013 1.428 . S
C1019 N1018 1.351 . S
C1019 C1020 1.434 . S
C1020 C1011 1.429 . S
C1020 N1017 1.350 . S
C1020 C1019 1.434 . S
C1021 C1022 1.369 . S
C1021 C1023 1.451 . S
C1021 H1025 0.930 . S
C1022 C1021 1.369 . S
C1022 C1031 1.429 1_655 S
C1023 C1021 1.451 . S
C1023 C1024 1.326 1_655 S
C1023 H1026 0.935 . S
C1024 C1023 1.326 1_455 S
C1024 C1030 1.428 . S
H1025 C1021 0.930 . S
H1026 C1023 0.935 . S
S1027 N1028 1.613 . S
S1027 N1029 1.610 . S
N1028 S1027 1.613 . S
N1028 C1031 1.350 . S
N1029 S1027 1.610 . S
N1029 C1030 1.351 . S
C1030 C1024 1.428 . S
C1030 N1029 1.351 . S
C1030 C1031 1.434 . S
C1031 C1022 1.429 1_455 S
C1031 N1028 1.350 . S
C1031 C1030 1.434 . S
C1032 C1033 1.369 . S
C1032 C1034 1.419 . S
C1032 H1036 0.930 . S
C1033 C1032 1.369 . S
C1033 C1042 1.429 . S
C1034 C1032 1.419 . S
C1034 C1035 1.363 . S
C1034 H1037 0.929 . S
C1035 C1034 1.363 . S
C1035 C1041 1.428 . S
H1036 C1032 0.930 . S
H1037 C1034 0.929 . S
S1038 N1039 1.613 . S
S1038 N1040 1.610 . S
N1039 S1038 1.613 . S
N1039 C1042 1.350 . S
N1040 S1038 1.610 . S
N1040 C1041 1.351 . S
C1041 C1035 1.428 . S
C1041 N1040 1.351 . S
C1041 C1042 1.434 . S
C1042 C1033 1.429 . S
C1042 N1039 1.350 . S
C1042 C1041 1.434 . S
C1043 C1044 1.369 . S
C1043 C1045 1.419 1_554 S
C1043 H1047 0.930 . S
C1044 C1043 1.369 . S
C1044 C1053 1.429 1_554 S
C1045 C1043 1.419 1_556 S
C1045 C1046 1.363 . S
C1045 H1048 0.929 . S
C1046 C1045 1.363 . S
C1046 C1052 1.428 . S
H1047 C1043 0.930 . S
H1048 C1045 0.929 . S
S1049 N1050 1.613 . S
S1049 N1051 1.610 . S
N1050 S1049 1.613 . S
N1050 C1053 1.350 . S
N1051 S1049 1.610 . S
N1051 C1052 1.351 . S
C1052 C1046 1.428 . S
C1052 N1051 1.351 . S
C1052 C1053 1.434 . S
C1053 C1044 1.429 1_556 S
C1053 N1050 1.350 . S
C1053 C1052 1.434 . S
C1054 C1055 1.369 . S
C1054 C1056 1.419 . S
C1054 H1058 0.930 . S
C1055 C1054 1.369 . S
C1055 C1064 1.429 . S
C1056 C1054 1.419 . S
C1056 C1057 1.363 . S
C1056 H1059 0.929 . S
C1057 C1056 1.363 . S
C1057 C1063 1.428 . S
H1058 C1054 0.930 . S
H1059 C1056 0.929 . S
S1060 N1061 1.613 . S
S1060 N1062 1.610 . S
N1061 S1060 1.613 . S
N1061 C1064 1.350 . S
N1062 S1060 1.610 . S
N1062 C1063 1.351 . S
C1063 C1057 1.428 . S
C1063 N1062 1.351 . S
C1063 C1064 1.434 . S
C1064 C1055 1.429 . S
C1064 N1061 1.350 . S
C1064 C1063 1.434 . S
C1065 C1066 1.369 . S
C1065 C1067 1.419 . S
C1065 H1069 0.930 . S
C1066 C1065 1.369 . S
C1066 C1075 1.429 . S
C1067 C1065 1.419 . S
C1067 C1068 1.363 1_554 S
C1067 H1070 0.929 . S
C1068 C1067 1.363 1_556 S
C1068 C1074 1.428 . S
H1069 C1065 0.930 . S
H1070 C1067 0.929 . S
S1071 N1072 1.613 1_556 S
S1071 N1073 1.610 . S
N1072 S1071 1.613 1_554 S
N1072 C1075 1.350 . S
N1073 S1071 1.610 . S
N1073 C1074 1.351 . S
C1074 C1068 1.428 . S
C1074 N1073 1.351 . S
C1074 C1075 1.434 1_556 S
C1075 C1066 1.429 . S
C1075 N1072 1.350 . S
C1075 C1074 1.434 1_554 S
C1076 C1077 1.369 . S
C1076 C1078 1.419 . S
C1076 H1080 0.930 . S
C1077 C1076 1.369 . S
C1077 C1086 1.429 . S
C1078 C1076 1.419 . S
C1078 C1079 1.363 . S
C1078 H1081 0.929 . S
C1079 C1078 1.363 . S
C1079 C1085 1.428 . S
H1080 C1076 0.930 . S
H1081 C1078 0.929 . S
S1082 N1083 1.613 . S
S1082 N1084 1.610 . S
N1083 S1082 1.613 . S
N1083 C1086 1.350 . S
N1084 S1082 1.610 . S
N1084 C1085 1.351 . S
C1085 C1079 1.428 . S
C1085 N1084 1.351 . S
C1085 C1086 1.434 . S
C1086 C1077 1.429 . S
C1086 N1083 1.350 . S
C1086 C1085 1.434 . S
C1087 C1088 1.369 1_554 S
C1087 C1089 1.419 . S
C1087 H1091 0.930 . S
C1088 C1087 1.369 1_556 S
C1088 C1097 1.429 1_556 S
C1089 C1087 1.419 . S
C1089 C1090 1.363 . S
C1089 H1092 0.929 . S
C1090 C1089 1.363 . S
C1090 C1096 1.428 . S
H1091 C1087 0.930 . S
H1092 C1089 0.929 . S
S1093 N1094 1.613 1_554 S
S1093 N1095 1.610 . S
N1094 S1093 1.613 1_556 S
N1094 C1097 1.350 1_556 S
N1095 S1093 1.610 . S
N1095 C1096 1.351 . S
C1096 C1090 1.428 . S
C1096 N1095 1.351 . S
C1096 C1097 1.434 . S
C1097 C1088 1.429 1_554 S
C1097 N1094 1.350 1_554 S
C1097 C1096 1.434 . S
C1098 C1099 1.369 . S
C1098 C1100 1.419 . S
C1098 H1102 0.930 . S
C1099 C1098 1.369 . S
C1099 C1108 1.429 . S
C1100 C1098 1.419 . S
C1100 C1101 1.363 . S
C1100 H1103 0.929 . S
C1101 C1100 1.363 . S
C1101 C1107 1.428 . S
H1102 C1098 0.930 . S
H1103 C1100 0.929 . S
S1104 N1105 1.613 . S
S1104 N1106 1.610 . S
N1105 S1104 1.613 . S
N1105 C1108 1.350 . S
N1106 S1104 1.610 . S
N1106 C1107 1.351 . S
C1107 C1101 1.428 . S
C1107 N1106 1.351 . S
C1107 C1108 1.434 . S
C1108 C1099 1.429 . S
C1108 N1105 1.350 . S
C1108 C1107 1.434 . S
C1109 C1110 1.369 . S
C1109 C1111 1.419 . S
C1109 H1113 0.930 . S
C1110 C1109 1.369 . S
C1110 C1119 1.429 . S
C1111 C1109 1.419 . S
C1111 C1112 1.363 . S
C1111 H1114 0.929 . S
C1112 C1111 1.363 . S
C1112 C1118 1.428 . S
H1113 C1109 0.930 . S
H1114 C1111 0.929 . S
S1115 N1116 1.624 . S
S1115 N1117 1.610 . S
N1116 S1115 1.624 . S
N1116 C1119 1.381 . S
N1117 S1115 1.610 . S
N1117 C1118 1.351 . S
C1118 C1112 1.428 . S
C1118 N1117 1.351 . S
C1118 C1119 1.434 . S
C1119 C1110 1.429 . S
C1119 N1116 1.381 . S
C1119 C1118 1.434 . S
C1120 C1121 1.369 . S
C1120 C1122 1.419 . S
C1120 H1124 0.930 . S
C1121 C1120 1.369 . S
C1121 C1130 1.429 . S
C1122 C1120 1.419 . S
C1122 C1123 1.363 . S
C1122 H1125 0.929 . S
C1123 C1122 1.363 . S
C1123 C1129 1.428 . S
H1124 C1120 0.930 . S
H1125 C1122 0.929 . S
S1126 N1127 1.613 . S
S1126 N1128 1.610 . S
N1127 S1126 1.613 . S
N1127 C1130 1.350 . S
N1128 S1126 1.610 . S
N1128 C1129 1.351 . S
C1129 C1123 1.428 . S
C1129 N1128 1.351 . S
C1129 C1130 1.434 . S
C1130 C1121 1.429 . S
C1130 N1127 1.350 . S
C1130 C1129 1.434 . S
C1131 C1132 1.369 . S
C1131 C1133 1.419 . S
C1131 H1135 0.930 . S
C1132 C1131 1.369 . S
C1132 C1141 1.429 . S
C1133 C1131 1.419 . S
C1133 C1134 1.363 . S
C1133 H1136 0.929 . S
C1134 C1133 1.363 . S
C1134 C1140 1.428 . S
H1135 C1131 0.930 . S
H1136 C1133 0.929 . S
S1137 N1138 1.613 . S
S1137 N1139 1.610 . S
N1138 S1137 1.613 . S
N1138 C1141 1.350 . S
N1139 S1137 1.610 . S
N1139 C1140 1.351 . S
C1140 C1134 1.428 . S
C1140 N1139 1.351 . S
C1140 C1141 1.434 . S
C1141 C1132 1.429 . S
C1141 N1138 1.350 . S
C1141 C1140 1.434 . S
C1142 C1143 1.369 . S
C1142 C1144 1.419 . S
C1142 H1146 0.930 . S
C1143 C1142 1.369 . S
C1143 C1152 1.429 . S
C1144 C1142 1.419 . S
C1144 C1145 1.363 . S
C1144 H1147 0.929 . S
C1145 C1144 1.363 . S
C1145 C1151 1.428 . S
H1146 C1142 0.930 . S
H1147 C1144 0.929 . S
S1148 N1149 1.613 . S
S1148 N1150 1.610 . S
N1149 S1148 1.613 . S
N1149 C1152 1.350 . S
N1150 S1148 1.610 . S
N1150 C1151 1.351 . S
C1151 C1145 1.428 . S
C1151 N1150 1.351 . S
C1151 C1152 1.434 . S
C1152 C1143 1.429 . S
C1152 N1149 1.350 . S
C1152 C1151 1.434 . S
C1153 C1154 1.369 . S
C1153 C1155 1.419 . S
C1153 H1157 0.930 . S
C1154 C1153 1.369 . S
C1154 C1163 1.429 . S
C1155 C1153 1.419 . S
C1155 C1156 1.363 . S
C1155 H1158 0.929 . S
C1156 C1155 1.363 . S
C1156 C1162 1.428 . S
H1157 C1153 0.930 . S
H1158 C1155 0.929 . S
S1159 N1160 1.613 . S
S1159 N1161 1.610 . S
N1160 S1159 1.613 . S
N1160 C1163 1.350 . S
N1161 S1159 1.610 . S
N1161 C1162 1.351 . S
C1162 C1156 1.428 . S
C1162 N1161 1.351 . S
C1162 C1163 1.434 . S
C1163 C1154 1.429 . S
C1163 N1160 1.350 . S
C1163 C1162 1.434 . S
C1164 C1165 1.369 . S
C1164 C1166 1.419 . S
C1164 H1168 0.930 . S
C1165 C1164 1.369 . S
C1165 C1174 1.429 . S
C1166 C1164 1.419 . S
C1166 C1167 1.363 . S
C1166 H1169 0.929 . S
C1167 C1166 1.363 . S
C1167 C1173 1.428 . S
H1168 C1164 0.930 . S
H1169 C1166 0.929 . S
S1170 N1171 1.613 . S
S1170 N1172 1.610 . S
N1171 S1170 1.613 . S
N1171 C1174 1.350 . S
N1172 S1170 1.610 . S
N1172 C1173 1.351 . S
C1173 C1167 1.428 . S
C1173 N1172 1.351 . S
C1173 C1174 1.434 . S
C1174 C1165 1.429 . S
C1174 N1171 1.350 . S
C1174 C1173 1.434 . S
C1175 C1176 1.369 . S
C1175 C1177 1.419 . S
C1175 H1179 0.930 . S
C1176 C1175 1.369 . S
C1176 C1185 1.429 . S
C1177 C1175 1.419 . S
C1177 C1178 1.363 . S
C1177 H1180 0.929 . S
C1178 C1177 1.363 . S
C1178 C1184 1.428 . S
H1179 C1175 0.930 . S
H1180 C1177 0.929 . S
S1181 N1182 1.613 . S
S1181 N1183 1.610 . S
N1182 S1181 1.613 . S
N1182 C1185 1.350 . S
N1183 S1181 1.610 . S
N1183 C1184 1.351 . S
C1184 C1178 1.428 . S
C1184 N1183 1.351 . S
C1184 C1185 1.434 . S
C1185 C1176 1.429 . S
C1185 N1182 1.350 . S
C1185 C1184 1.434 . S
C1186 C1187 1.369 . S
C1186 C1188 1.419 . S
C1186 H1190 0.930 . S
C1187 C1186 1.369 . S
C1187 C1196 1.429 . S
C1188 C1186 1.419 . S
C1188 C1189 1.363 . S
C1188 H1191 0.929 . S
C1189 C1188 1.363 . S
C1189 C1195 1.428 . S
H1190 C1186 0.930 . S
H1191 C1188 0.929 . S
S1192 N1193 1.613 . S
S1192 N1194 1.610 . S
N1193 S1192 1.613 . S
N1193 C1196 1.350 . S
N1194 S1192 1.610 . S
N1194 C1195 1.351 . S
C1195 C1189 1.428 . S
C1195 N1194 1.351 . S
C1195 C1196 1.434 . S
C1196 C1187 1.429 . S
C1196 N1193 1.350 . S
C1196 C1195 1.434 . S
C1197 C1198 1.369 . S
C1197 C1199 1.419 . S
C1197 H1201 0.930 . S
C1198 C1197 1.369 . S
C1198 C1207 1.429 . S
C1199 C1197 1.419 . S
C1199 C1200 1.363 1_545 S
C1199 H1202 0.929 1_545 S
C1200 C1199 1.363 1_565 S
C1200 C1206 1.428 1_565 S
H1201 C1197 0.930 . S
H1202 C1199 0.929 1_565 S
S1203 N1204 1.613 . S
S1203 N1205 1.610 . S
N1204 S1203 1.613 . S
N1204 C1207 1.350 . S
N1205 S1203 1.610 . S
N1205 C1206 1.351 . S
C1206 C1200 1.428 1_545 S
C1206 N1205 1.351 . S
C1206 C1207 1.434 . S
C1207 C1198 1.429 . S
C1207 N1204 1.350 . S
C1207 C1206 1.434 . S
C683 C520 1.563 1_556 S
C681 C177 1.522 . S
C694 C535 1.716 . S
C692 C209 1.657 . S
C703 C253 1.571 . S
C705 C548 1.629 . S
C716 C562 1.571 . S
C714 C157 1.680 1_655 S
C727 C574 1.590 . S
C725 C343 1.653 . S
C738 C588 1.443 . S
C736 C401 1.451 . S
C747 C369 1.676 . S
C749 C602 1.683 . S
C760 C617 1.523 . S
C758 C317 1.403 . S
C769 C375 1.582 . S
C771 C633 1.633 . S
C782 C646 1.587 . S
C780 C305 1.494 . S
C791 C349 1.563 . S
C793 C631 1.538 . S
C804 C644 1.617 . S
C802 C413 1.629 . S
C813 C241 1.717 . S
C815 C660 1.760 . S
C824 C151 1.630 . S
C826 C659 1.594 . S
C835 C189 1.658 . S
C837 C658 1.628 . S
C846 C215 1.568 . S
C848 C661 1.611 . S
C857 C113 1.668 . S
C859 C563 1.658 1_565 S
C868 C471 1.466 . S
C870 C561 1.460 . S
C881 C521 1.555 . S
C879 C509 1.476 . S
C892 C532 1.695 . S
C890 C279 1.648 . S
C901 C145 1.642 . S
C903 C577 1.587 . S
C914 C618 1.835 . S
C912 C381 1.788 . S
C925 C575 1.590 . S
C923 C311 1.459 1_545 S
C936 C603 1.602 . S
C934 C407 1.621 . S
C947 C604 1.565 . S
C945 C465 1.523 . S
C956 C497 1.655 . S
C958 C619 1.716 . S
C967 C285 1.561 . S
C969 C576 1.628 . S
C980 C590 1.570 . S
C978 C445 1.681 . S
C989 C119 1.650 . S
C991 C546 1.596 . S
C1002 C560 1.438 . S
C1000 C17 1.450 . S
C1013 C518 1.683 . S
C1011 C49 1.676 . S
C1024 C533 1.526 . S
C1022 C93 1.399 . S
C1033 C55 1.582 . S
C1035 C647 1.633 . S
C1044 C81 1.493 . S
C1046 C632 1.589 . S
C1055 C125 1.568 . S
C1057 C645 1.536 . S
C1066 C29 1.626 . S
C1068 C630 1.620 . S
C1079 C674 1.760 . S
C1077 C273 1.724 . S
C1090 C673 1.591 . S
C1088 C439 1.633 . S
C1101 C672 1.631 . S
C1099 C477 1.652 . S
C1110 C503 1.565 . S
C1112 C675 1.611 . S
C1121 C337 1.668 . S
C1123 C591 1.658 . S
C1134 C589 1.463 . S
C1132 C183 1.461 . S
C1145 C605 1.556 . S
C1143 C221 1.483 . S
C1156 C616 1.694 . S
C1154 C247 1.647 . S
C1165 C433 1.644 . S
C1167 C549 1.587 . S
C1178 C534 1.834 . S
C1176 C61 1.787 . S
C1187 C87 1.463 . S
C1189 C547 1.590 . S
C1200 C519 1.598 . S
C1198 C23 1.624 . S
