# Generated by pormake.
# Topology zzz, (3,6)-cn, num edge types: 1
# Building blocks:
#     Node 0, Type 0, BuildingBlock: ESEHIV_clean_linker_0, # of connection points: 3
#     Node 1, Type 0, BuildingBlock: ESEHIV_clean_linker_0, # of connection points: 3
#     Node 2, Type 0, BuildingBlock: ESEHIV_clean_linker_0, # of connection points: 3
#     Node 3, Type 0, BuildingBlock: ESEHIV_clean_linker_0, # of connection points: 3
#     Node 4, Type 0, BuildingBlock: ESEHIV_clean_linker_0, # of connection points: 3
#     Node 5, Type 0, BuildingBlock: ESEHIV_clean_linker_0, # of connection points: 3
#     Node 6, Type 0, BuildingBlock: ESEHIV_clean_linker_0, # of connection points: 3
#     Node 7, Type 0, BuildingBlock: ESEHIV_clean_linker_0, # of connection points: 3
#     Node 8, Type 1, BuildingBlock: NUHQIS_clean_sbu_0, # of connection points: 6
#     Node 9, Type 1, BuildingBlock: NUHQIS_clean_sbu_0, # of connection points: 6
#     Node 10, Type 1, BuildingBlock: NUHQIS_clean_sbu_0, # of connection points: 6
#     Node 11, Type 1, BuildingBlock: NUHQIS_clean_sbu_0, # of connection points: 6
#     Edge 12, Type (0, 1), BuildingBlock: CIFDUS_clean_linker_0, # of connection points: 2
#     Edge 13, Type (0, 1), BuildingBlock: CIFDUS_clean_linker_0, # of connection points: 2
#     Edge 14, Type (0, 1), BuildingBlock: CIFDUS_clean_linker_0, # of connection points: 2
#     Edge 15, Type (0, 1), BuildingBlock: CIFDUS_clean_linker_0, # of connection points: 2
#     Edge 16, Type (0, 1), BuildingBlock: CIFDUS_clean_linker_0, # of connection points: 2
#     Edge 17, Type (0, 1), BuildingBlock: CIFDUS_clean_linker_0, # of connection points: 2
#     Edge 18, Type (0, 1), BuildingBlock: CIFDUS_clean_linker_0, # of connection points: 2
#     Edge 19, Type (0, 1), BuildingBlock: CIFDUS_clean_linker_0, # of connection points: 2
#     Edge 20, Type (0, 1), BuildingBlock: CIFDUS_clean_linker_0, # of connection points: 2
#     Edge 21, Type (0, 1), BuildingBlock: CIFDUS_clean_linker_0, # of connection points: 2
#     Edge 22, Type (0, 1), BuildingBlock: CIFDUS_clean_linker_0, # of connection points: 2
#     Edge 23, Type (0, 1), BuildingBlock: CIFDUS_clean_linker_0, # of connection points: 2
#     Edge 24, Type (0, 1), BuildingBlock: CIFDUS_clean_linker_0, # of connection points: 2
#     Edge 25, Type (0, 1), BuildingBlock: CIFDUS_clean_linker_0, # of connection points: 2
#     Edge 26, Type (0, 1), BuildingBlock: CIFDUS_clean_linker_0, # of connection points: 2
#     Edge 27, Type (0, 1), BuildingBlock: CIFDUS_clean_linker_0, # of connection points: 2
#     Edge 28, Type (0, 1), BuildingBlock: CIFDUS_clean_linker_0, # of connection points: 2
#     Edge 29, Type (0, 1), BuildingBlock: CIFDUS_clean_linker_0, # of connection points: 2
#     Edge 30, Type (0, 1), BuildingBlock: CIFDUS_clean_linker_0, # of connection points: 2
#     Edge 31, Type (0, 1), BuildingBlock: CIFDUS_clean_linker_0, # of connection points: 2
#     Edge 32, Type (0, 1), BuildingBlock: CIFDUS_clean_linker_0, # of connection points: 2
#     Edge 33, Type (0, 1), BuildingBlock: CIFDUS_clean_linker_0, # of connection points: 2
#     Edge 34, Type (0, 1), BuildingBlock: CIFDUS_clean_linker_0, # of connection points: 2
#     Edge 35, Type (0, 1), BuildingBlock: CIFDUS_clean_linker_0, # of connection points: 2
# Relax obj value: 0.522
# Max RMSD: 0.244
# Mean RMSD: 0.233
data_MOF--net-zzz--node1-NUHQIS_clean_sbu_0--node2-ESEHIV_clean_linker_0--edge1-CIFDUS_clean_linker_0
_symmetry_space_group_name_H-M    P1
_symmetry_Int_Tables_number       1
_symmetry_cell_setting            triclinic
loop_
_symmetry_equiv_pos_as_xyz
'x, y, z'
_cell_length_a     39.466867
_cell_length_b     39.465568
_cell_length_c     13.133695
_cell_angle_alpha  89.857542
_cell_angle_beta   89.947056
_cell_angle_gamma 89.771938
loop_
_atom_site_label
_atom_site_type_symbol
_atom_site_fract_x
_atom_site_fract_y
_atom_site_fract_z
_atom_type_partial_charge
H0 H 0.80362 0.43993 0.40159 0.0
H1 H 0.72034 0.44058 0.19244 0.0
H2 H 0.75309 0.53378 0.33051 0.0
C3 C 0.78253 0.4532 0.36644 0.0
C4 C 0.77999 0.48836 0.38005 0.0
C5 C 0.76193 0.43586 0.29706 0.0
C6 C 0.73599 0.45369 0.24748 0.0
C7 C 0.73184 0.48878 0.25999 0.0
C8 C 0.75455 0.50644 0.32507 0.0
H9 H 0.08149 0.80802 0.32244 0.0
H10 H 0.07872 0.71625 0.14931 0.0
H11 H 1.00014 0.73706 0.36989 0.0
C12 C 0.07001 0.78362 0.30713 0.0
C13 C 0.04034 0.7747 0.35956 0.0
C14 C 0.08348 0.76303 0.23007 0.0
C15 C 0.068 0.73214 0.2086 0.0
C16 C 0.03765 0.72246 0.25591 0.0
C17 C 0.02373 0.74384 0.33313 0.0
H18 H 0.73274 0.08255 0.41514 0.0
H19 H 0.81816 0.08282 0.21373 0.0
H20 H 0.78684 0.98973 0.35717 0.0
C21 C 0.75452 0.06961 0.38287 0.0
C22 C 0.75794 0.03465 0.39965 0.0
C23 C 0.77536 0.08702 0.31404 0.0
C24 C 0.80225 0.06962 0.26798 0.0
C25 C 0.80721 0.03473 0.28343 0.0
C26 C 0.7845 0.01693 0.34863 0.0
H27 H 0.44277 0.72414 0.3736 0.0
H28 H 0.5319 0.78677 0.38267 0.0
H29 H 0.44788 0.81302 0.18717 0.0
C30 C 0.4557 0.7473 0.35237 0.0
C31 C 0.44142 0.76813 0.27701 0.0
C32 C 0.48808 0.75347 0.39256 0.0
C33 C 0.5064 0.78213 0.35591 0.0
C34 C 0.49161 0.80412 0.28184 0.0
C35 C 0.45901 0.79692 0.24538 0.0
H36 H 0.22708 0.58978 0.15603 0.0
H37 H 0.31188 0.58517 0.35933 0.0
H38 H 0.29117 0.5013 0.15839 0.0
C39 C 0.24971 0.577 0.18319 0.0
C40 C 0.25752 0.54497 0.14337 0.0
C41 C 0.26857 0.59133 0.2626 0.0
C42 C 0.2969 0.57381 0.29934 0.0
C43 C 0.3052 0.54109 0.26519 0.0
C44 C 0.28543 0.52657 0.18546 0.0
H45 H 0.92999 0.23556 0.09466 0.0
H46 H 0.9342 0.32389 0.2836 0.0
H47 H 0.02386 0.28942 0.12555 0.0
C48 C 0.94362 0.25742 0.12268 0.0
C49 C 0.97783 0.26078 0.09553 0.0
C50 C 0.92797 0.27924 0.19301 0.0
C51 C 0.94637 0.30671 0.23049 0.0
C52 C 0.98112 0.31041 0.2102 0.0
C53 C 0.99695 0.28753 0.14043 0.0
H54 H 0.30611 0.93827 0.17059 0.0
H55 H 0.21835 0.94554 0.36279 0.0
H56 H 0.24299 0.0273 0.15696 0.0
C57 C 0.28324 0.95152 0.19371 0.0
C58 C 0.27644 0.98331 0.15041 0.0
C59 C 0.26298 0.93803 0.27173 0.0
C60 C 0.23411 0.95593 0.30273 0.0
C61 C 0.22655 0.98817 0.26332 0.0
C62 C 0.24814 1.00225 0.18711 0.0
H63 H 0.59795 0.30249 0.15472 0.0
H64 H 0.51198 0.23594 0.1459 0.0
H65 H 0.59713 0.21321 0.34113 0.0
C66 C 0.5863 0.27873 0.17672 0.0
C67 C 0.6011 0.25893 0.25384 0.0
C68 C 0.55472 0.27055 0.13476 0.0
C69 C 0.53732 0.24147 0.17244 0.0
C70 C 0.55266 0.22059 0.24851 0.0
C71 C 0.58524 0.22886 0.28317 0.0
Tb72 Tb 0.02796 1.00378 0.8042 0.0
Eu73 Eu 0.97663 0.03173 0.62724 0.0
C74 C 0.0562 0.01919 0.58228 0.0
C75 C 1.0024 0.08127 0.80834 0.0
C76 C 0.10056 0.96594 0.95118 0.0
C77 C 0.1393 0.92299 0.88768 0.0
C78 C 0.11495 0.94822 0.86928 0.0
C79 C 0.1129 0.96071 0.04938 0.0
C80 C 0.13649 0.9352 0.06809 0.0
C81 C 0.14867 0.91468 0.98836 0.0
C82 C 0.06969 0.98619 0.93979 0.0
O83 O 0.9772 0.99645 0.87362 0.0
O84 O 0.94401 0.02895 0.76713 0.0
O85 O 0.97668 0.97428 0.61279 0.0
O86 O 0.02405 0.9592 0.70395 0.0
C87 C 0.94805 1.01139 0.85139 0.0
O88 O 0.92813 0.02763 0.54917 0.0
O89 O 0.96623 0.06263 0.49256 0.0
O90 O 0.02522 0.018 0.54685 0.0
O91 O 0.06184 0.02126 0.68085 0.0
O92 O 1.0114 0.05356 0.85734 0.0
O93 O 0.99336 0.08 0.7115 0.0
C94 C 0.99998 0.95175 0.63816 0.0
O95 O 0.07204 0.01423 0.88785 0.0
O96 O 0.04233 0.96931 0.91764 0.0
C97 C 0.90907 0.07383 0.44813 0.0
C98 C 0.86381 0.12438 0.37984 0.0
C99 C 0.8648 0.11509 0.48356 0.0
C100 C 0.88745 0.09006 0.51762 0.0
C101 C 0.90614 0.08098 0.34425 0.0
C102 C 0.88373 0.10585 0.31028 0.0
C103 C 0.93582 0.05026 0.48049 0.0
H104 H 0.14841 0.90802 0.82425 0.0
H105 H 0.10576 0.95228 0.79248 0.0
H106 H 0.10205 0.97439 0.11297 0.0
H107 H 0.14196 0.92913 0.1467 0.0
H108 H 0.84959 0.12856 0.53904 0.0
H109 H 0.88909 0.08444 0.59825 0.0
H110 H 0.92243 0.0684 0.28948 0.0
H111 H 0.88424 0.1123 0.23013 0.0
Tb112 Tb 0.52871 0.03838 0.87156 0.0
Eu113 Eu 0.50498 0.99177 0.67879 0.0
C114 C 0.517 0.07225 0.65153 0.0
C115 C 0.45153 0.01637 0.85281 0.0
C116 C 0.57068 0.10403 0.02912 0.0
C117 C 0.61313 0.14188 0.95886 0.0
C118 C 0.58476 0.12122 0.94558 0.0
C119 C 0.58336 0.10993 0.12672 0.0
C120 C 0.61172 0.13036 0.14008 0.0
C121 C 0.62822 0.14505 0.05551 0.0
C122 C 0.54518 0.07751 0.01504 0.0
O123 O 0.51975 0.98833 0.94188 0.0
O124 O 0.52339 0.95528 0.79909 0.0
O125 O 0.55973 1.00531 0.64403 0.0
O126 O 0.57711 0.02319 0.80209 0.0
C127 C 0.52256 0.95833 0.89867 0.0
O128 O 0.51498 0.94845 0.58026 0.0
O129 O 0.47073 0.98003 0.55378 0.0
O130 O 0.49997 0.0457 0.62014 0.0
O131 O 0.53343 0.0719 0.73889 0.0
O132 O 0.47345 0.04026 0.87431 0.0
O133 O 0.45919 0.99239 0.78677 0.0
C134 C 0.58392 0.01418 0.70742 0.0
O135 O 0.52122 0.08408 0.94978 0.0
O136 O 0.55703 0.04682 1.00444 0.0
C137 C 0.46726 0.92286 0.50478 0.0
C138 C 0.41879 0.87312 0.45888 0.0
C139 C 0.4349 0.89151 0.38063 0.0
C140 C 0.4585 0.91644 0.40372 0.0
C141 C 0.45407 0.9024 0.5827 0.0
C142 C 0.43001 0.87755 0.5598 0.0
C143 C 0.48754 0.95295 0.52676 0.0
H144 H 0.62471 0.15325 0.89234 0.0
H145 H 0.57508 0.11716 0.86945 0.0
H146 H 0.57267 0.09696 0.19203 0.0
H147 H 0.62244 0.13175 0.21577 0.0
H148 H 0.42685 0.88932 0.30213 0.0
H149 H 0.46834 0.93217 0.34285 0.0
H150 H 0.46079 0.90701 0.66141 0.0
H151 H 0.41822 0.86374 0.62169 0.0
Tb152 Tb 0.48571 0.52662 0.88714 0.0
Eu153 Eu 0.53662 0.50547 0.69985 0.0
C154 C 0.45491 0.50973 0.66677 0.0
C155 C 0.51363 0.45013 0.87275 0.0
C156 C 0.41627 0.5628 0.0517 0.0
C157 C 0.37348 0.60291 0.99462 0.0
C158 C 0.39725 0.57745 0.97273 0.0
C159 C 0.4093 0.57157 0.15249 0.0
C160 C 0.38543 0.59652 0.17455 0.0
C161 C 0.36881 0.61416 0.09554 0.0
C162 C 0.44627 0.54187 0.0318 0.0
O163 O 0.53658 0.53594 0.94886 0.0
O164 O 0.57041 0.50581 0.83893 0.0
O165 O 0.53217 0.56311 0.69174 0.0
O166 O 0.48449 0.57143 0.78864 0.0
C167 C 0.56594 0.52196 0.92526 0.0
O168 O 0.58391 0.51516 0.61933 0.0
O169 O 0.54931 0.47694 0.56295 0.0
O170 O 0.48502 0.5114 0.62407 0.0
O171 O 0.45139 0.50967 0.76662 0.0
O172 O 0.50224 0.47563 0.92738 0.0
O173 O 0.52459 0.45473 0.77851 0.0
C174 C 0.50714 0.58263 0.72309 0.0
O175 O 0.44244 0.5153 0.97438 0.0
O176 O 0.47374 0.55849 1.00932 0.0
C177 C 0.60738 0.46918 0.52861 0.0
C178 C 0.65434 0.41833 0.47559 0.0
C179 C 0.6481 0.42603 0.57872 0.0
C180 C 0.62454 0.45115 0.60507 0.0
C181 C 0.6159 0.4639 0.42665 0.0
C182 C 0.63928 0.43892 0.40019 0.0
C183 C 0.57873 0.49155 0.55196 0.0
H184 H 0.36093 0.61573 0.93206 0.0
H185 H 0.40239 0.57089 0.89414 0.0
H186 H 0.42406 0.56076 0.21413 0.0
H187 H 0.38301 0.60438 0.25315 0.0
H188 H 0.65963 0.41111 0.63881 0.0
H189 H 0.61844 0.45526 0.68456 0.0
H190 H 0.60283 0.47762 0.36689 0.0
H191 H 0.6429 0.43384 0.31994 0.0
Tb192 Tb 1.00749 0.48375 0.85953 0.0
Eu193 Eu 0.03117 0.53087 0.66741 0.0
C194 C 0.01871 0.45061 0.6379 0.0
C195 C 0.08456 0.50688 0.84221 0.0
C196 C 0.96626 0.41729 0.01889 0.0
C197 C 0.92467 0.37805 0.95163 0.0
C198 C 0.95276 0.39903 0.93689 0.0
C199 C 0.95331 0.41213 0.11673 0.0
C200 C 0.9252 0.39141 0.1315 0.0
C201 C 0.90922 0.37565 0.04812 0.0
C202 C 0.9915 0.44403 1.00295 0.0
O203 O 0.01488 0.53402 0.9303 0.0
O204 O 1.01201 0.56714 0.78699 0.0
O205 O 0.97661 0.51715 0.6325 0.0
O206 O 0.95896 0.49865 0.78998 0.0
C207 C 1.01191 0.56405 0.8867 0.0
O208 O 0.02027 0.57356 0.56694 0.0
O209 O 0.06581 0.54354 0.54368 0.0
O210 O 0.03624 0.47708 0.6079 0.0
O211 O 1.00242 0.45072 0.72572 0.0
O212 O 0.06284 0.48272 0.86365 0.0
O213 O 0.07672 0.53081 0.77589 0.0
C214 C 0.95232 0.50802 0.69539 0.0
O215 O 0.01523 0.43773 0.93663 0.0
O216 O 0.97942 0.47466 0.99286 0.0
C217 C 0.06695 0.60046 0.48906 0.0
C218 C 0.11179 0.65304 0.43753 0.0
C219 C 0.09825 0.63179 0.36187 0.0
C220 C 0.07648 0.60552 0.38782 0.0
C221 C 0.07763 0.62334 0.56397 0.0
C222 C 0.09994 0.64957 0.53827 0.0
C223 C 0.04801 0.56975 0.51432 0.0
H224 H 0.91351 0.36583 0.88606 0.0
H225 H 0.96266 0.40246 0.86063 0.0
H226 H 0.9636 0.42584 0.181 0.0
H227 H 0.91423 0.39059 0.20703 0.0
H228 H 0.10701 0.63311 0.2838 0.0
H229 H 0.06859 0.58793 0.3293 0.0
H230 H 0.07029 0.61979 0.64277 0.0
H231 H 0.10994 0.66543 0.59825 0.0
H232 H 0.16018 0.97433 0.23896 0.0
H233 H 0.22734 0.03915 0.40476 0.0
H234 H 0.18091 0.05503 0.52044 0.0
H235 H 0.12161 0.04586 0.5845 0.0
H236 H 0.05539 0.98066 0.41296 0.0
H237 H 0.10071 0.96876 0.29274 0.0
C238 C 0.16424 0.99284 0.29803 0.0
C239 C 0.197 1.00614 0.31099 0.0
C240 C 0.13757 1.00107 0.36555 0.0
C241 C 0.20219 0.02934 0.39061 0.0
C242 C 0.17569 0.03793 0.45803 0.0
C243 C 0.11707 0.02937 0.52011 0.0
C244 C 0.08485 0.0142 0.50845 0.0
C245 C 0.14337 0.02323 0.44808 0.0
C246 C 0.0796 0.99299 0.42397 0.0
C247 C 0.10558 0.98621 0.35443 0.0
H248 H 0.54286 0.21592 0.45113 0.0
H249 H 0.52509 0.16098 0.17371 0.0
H250 H 0.50989 0.11029 0.27364 0.0
H251 H 0.5079 0.07983 0.44216 0.0
H252 H 0.53062 0.13603 0.71532 0.0
H253 H 0.53803 0.1874 0.61538 0.0
C254 C 0.535 0.19302 0.41227 0.0
C255 C 0.53507 0.19242 0.30471 0.0
C256 C 0.52789 0.16378 0.47007 0.0
C257 C 0.52487 0.16245 0.25604 0.0
C258 C 0.51664 0.13329 0.31352 0.0
C259 C 0.51408 0.10341 0.47983 0.0
C260 C 0.51884 0.1037 0.58697 0.0
C261 C 0.51904 0.13331 0.42085 0.0
C262 C 0.52708 0.13464 0.63365 0.0
C263 C 0.53123 0.16424 0.57637 0.0
H264 H 0.30983 0.53053 0.46842 0.0
H265 H 0.36485 0.51331 0.19026 0.0
H266 H 0.41635 0.50031 0.28916 0.0
H267 H 0.44753 0.50141 0.4563 0.0
H268 H 0.39002 0.51894 0.73152 0.0
H269 H 0.33846 0.5248 0.6326 0.0
C270 C 0.33292 0.5232 0.42919 0.0
C271 C 0.33341 0.52331 0.32156 0.0
C272 C 0.36249 0.51675 0.4865 0.0
C273 C 0.36355 0.51344 0.27262 0.0
C274 C 0.39318 0.50646 0.32949 0.0
C275 C 0.42368 0.50615 0.49478 0.0
C276 C 0.42324 0.50998 0.60232 0.0
C277 C 0.39334 0.50935 0.43665 0.0
C278 C 0.39172 0.51587 0.64974 0.0
C279 C 0.36194 0.51929 0.59295 0.0
H280 H 0.98308 0.3126 0.41563 0.0
H281 H 0.01819 0.36686 0.15147 0.0
H282 H 0.0349 0.41472 0.26041 0.0
H283 H 0.03405 0.44347 0.43125 0.0
H284 H 0.99559 0.3881 0.6906 0.0
H285 H 0.98556 0.33898 0.58371 0.0
C286 C 0.99514 0.33461 0.3819 0.0
C287 C 0.99953 0.33587 0.27507 0.0
C288 C 1.0035 0.36234 0.44461 0.0
C289 C 0.01498 0.36477 0.23315 0.0
C290 C 0.0241 0.39239 0.29568 0.0
C291 C 0.02384 0.42054 0.46466 0.0
C292 C 0.01546 0.41999 0.56995 0.0
C293 C 0.01764 0.39189 0.40154 0.0
C294 C 1.0021 0.38982 0.61063 0.0
C295 C 0.99639 0.36146 0.54928 0.0
H296 H 0.80751 0.0275 0.07945 0.0
H297 H 0.8688 1.00841 0.34409 0.0
H298 H 0.91814 0.99685 0.23452 0.0
H299 H 0.94542 0.99869 0.06123 0.0
H300 H 0.88214 0.0201 0.80052 0.0
H301 H 0.83268 0.02406 0.90957 0.0
C302 C 0.83142 0.01967 0.11303 0.0
C303 C 0.83419 0.01819 0.21993 0.0
C304 C 0.85978 0.01415 0.04961 0.0
C305 C 0.86563 1.00888 0.26218 0.0
C306 C 0.89402 1.00277 0.19924 0.0
C307 C 0.92073 1.00365 0.02821 0.0
C308 C 0.91798 1.00939 0.92187 0.0
C309 C 0.89172 1.0063 0.09252 0.0
C310 C 0.88553 0.01597 0.88146 0.0
C311 C 0.85696 0.01818 0.94399 0.0
H312 H 0.50704 0.8107 0.08292 0.0
H313 H 0.51339 0.86415 0.3672 0.0
H314 H 0.52571 0.91713 0.27477 0.0
H315 H 0.52645 0.94968 0.10994 0.0
H316 H 0.51893 0.89373 0.82833 0.0
H317 H 0.51455 0.8411 0.92238 0.0
C318 C 0.51204 0.83379 0.12493 0.0
C319 C 0.50937 0.83335 0.23203 0.0
C320 C 0.5177 0.86421 0.07117 0.0
C321 C 0.51565 0.86358 0.28504 0.0
C322 C 0.52207 0.89403 0.23183 0.0
C323 C 0.52419 0.92597 0.06914 0.0
C324 C 0.5227 0.92626 0.9612 0.0
C325 C 0.52177 0.89498 0.12443 0.0
C326 C 0.52002 0.8949 0.91064 0.0
C327 C 0.51752 0.86447 0.96456 0.0
H328 H 0.66713 0.51148 0.30189 0.0
H329 H 0.73957 0.50015 0.0589 0.0
H330 H 0.69511 0.51014 0.93282 0.0
H331 H 0.63438 0.51584 0.89038 0.0
H332 H 0.56183 0.53025 0.13218 0.0
H333 H 0.60721 0.52635 0.25839 0.0
C334 C 0.67335 0.51257 0.22153 0.0
C335 C 0.70691 0.50564 0.19017 0.0
C336 C 0.64734 0.51818 0.14862 0.0
C337 C 0.71422 0.50614 0.08528 0.0
C338 C 0.68863 0.51137 0.01294 0.0
C339 C 0.62847 0.51834 0.97067 0.0
C340 C 0.59442 0.52287 1.00112 0.0
C341 C 0.65488 0.51635 0.04344 0.0
C342 C 0.58759 0.52658 0.10583 0.0
C343 C 0.61362 0.52411 0.17852 0.0
H344 H 0.01676 0.71339 0.06277 0.0
H345 H 0.02382 0.66093 0.3494 0.0
H346 H 0.01375 0.60658 0.26216 0.0
H347 H 1.01214 0.5732 0.09886 0.0
H348 H 1.00698 0.6285 0.81463 0.0
H349 H 1.00828 0.68166 0.90575 0.0
C350 C 0.01525 0.69013 0.10678 0.0
C351 C 0.02098 0.69142 0.21281 0.0
C352 C 1.01128 0.65902 0.05556 0.0
C353 C 0.01918 0.66092 0.26814 0.0
C354 C 0.01415 0.62972 0.21771 0.0
C355 C 1.01095 0.59685 0.05689 0.0
C356 C 1.0099 0.5962 0.94877 0.0
C357 C 1.0117 0.62823 0.11057 0.0
C358 C 1.00813 0.62751 0.89697 0.0
C359 C 1.0088 0.65828 0.94925 0.0
H360 H 0.87221 0.24709 0.11374 0.0
H361 H 0.9128 0.28495 0.39652 0.0
H362 H 0.88181 0.24262 0.49054 0.0
H363 H 0.86453 0.18365 0.48389 0.0
H364 H 0.83164 0.1407 0.19913 0.0
H365 H 0.83755 0.19546 0.11635 0.0
C366 C 0.87338 0.24672 0.19625 0.0
C367 C 0.89671 0.2677 0.24673 0.0
C368 C 0.8577 0.22028 0.24996 0.0
C369 C 0.89613 0.2685 0.35407 0.0
C370 C 0.87867 0.24377 0.4086 0.0
C371 C 0.85689 0.18644 0.40503 0.0
C372 C 0.84943 0.15758 0.34669 0.0
C373 C 0.86258 0.21752 0.35626 0.0
C374 C 0.83871 0.16217 0.24529 0.0
C375 C 0.84242 0.19356 0.19738 0.0
H376 H 0.29455 0.87995 0.20694 0.0
H377 H 0.26213 0.93208 0.47896 0.0
H378 H 0.30434 0.90203 0.57798 0.0
H379 H 0.3617 0.87979 0.57125 0.0
H380 H 0.39905 0.83396 0.2955 0.0
H381 H 0.34382 0.84145 0.21576 0.0
C382 C 0.29601 0.88381 0.28858 0.0
C383 C 0.27637 0.90948 0.3342 0.0
C384 C 0.32203 0.86809 0.34432 0.0
C385 C 0.27733 0.91307 0.44078 0.0
C386 C 0.30189 0.89611 0.49776 0.0
C387 C 0.35742 0.86968 0.49566 0.0
C388 C 0.38502 0.85822 0.43711 0.0
C389 C 0.32631 0.87627 0.44824 0.0
C390 C 0.37853 0.84415 0.34075 0.0
C391 C 0.34699 0.84889 0.29456 0.0
H392 H 0.65637 0.29696 0.1992 0.0
H393 H 0.60446 0.25601 0.4615 0.0
H394 H 0.62887 0.29913 0.56848 0.0
H395 H 0.64647 0.3579 0.57237 0.0
H396 H 0.6937 0.40255 0.30875 0.0
H397 H 0.69045 0.34878 0.21918 0.0
C398 C 0.65136 0.29684 0.28042 0.0
C399 C 0.62733 0.27422 0.32074 0.0
C400 C 0.66392 0.32313 0.3413 0.0
C401 C 0.6223 0.27336 0.427 0.0
C402 C 0.63597 0.29845 0.48874 0.0
C403 C 0.6577 0.3557 0.49732 0.0
C404 C 0.66866 0.38485 0.44521 0.0
C405 C 0.6541 0.32511 0.44466 0.0
C406 C 0.68391 0.38088 0.34907 0.0
C407 C 0.68175 0.35009 0.29738 0.0
H408 H 0.23556 0.64771 0.18873 0.0
H409 H 0.26891 0.60088 0.46913 0.0
H410 H 0.22626 0.63177 0.56304 0.0
H411 H 0.16835 0.65218 0.55304 0.0
H412 H 0.1295 0.69171 0.27011 0.0
H413 H 0.18513 0.68486 0.19141 0.0
C414 C 0.23409 0.64505 0.27083 0.0
C415 C 0.25424 0.62053 0.32045 0.0
C416 C 0.20768 0.66109 0.32408 0.0
C417 C 0.25337 0.61883 0.42759 0.0
C418 C 0.22854 0.63631 0.48187 0.0
C419 C 0.17236 0.66113 0.47583 0.0
C420 C 0.1444 0.67025 0.4153 0.0
C421 C 0.20365 0.65465 0.42931 0.0
C422 C 0.15043 0.68314 0.31692 0.0
C423 C 0.18217 0.6787 0.27139 0.0
H424 H 0.1416 0.7979 0.27376 0.0
H425 H 0.0817 0.76046 0.02346 0.0
H426 H 0.10924 0.79958 0.90801 0.0
H427 H 0.13446 0.85522 0.89415 0.0
H428 H 0.19237 0.8958 0.14375 0.0
H429 H 0.18269 0.84407 0.24159 0.0
C430 C 0.13549 0.79759 0.19326 0.0
C431 C 0.10881 0.77718 0.15818 0.0
C432 C 0.1506 0.82118 0.12727 0.0
C433 C 0.10184 0.77616 0.05314 0.0
C434 C 0.11741 0.79881 0.98677 0.0
C435 C 0.1466 0.85232 0.96767 0.0
C436 C 0.16187 0.88034 0.01475 0.0
C437 C 0.13964 0.82321 0.02496 0.0
C438 C 0.17877 0.8752 0.10805 0.0
C439 C 0.17292 0.84574 0.16464 0.0
H440 H 0.77203 0.10473 0.11511 0.0
H441 H 0.74936 0.14255 0.41528 0.0
H442 H 0.70331 0.17706 0.34574 0.0
H443 H 0.65909 0.17865 0.21335 0.0
H444 H 0.6799 0.13369 0.92027 0.0
H445 H 0.73765 0.12225 0.97085 0.0
C446 C 0.75831 0.12184 0.16494 0.0
C447 C 0.76274 0.11962 0.271 0.0
C448 C 0.73079 0.14006 0.12527 0.0
C449 C 0.74538 0.14278 0.33367 0.0
C450 C 0.71885 0.16231 0.29399 0.0
C451 C 0.67663 0.16736 0.15944 0.0
C452 C 0.66442 0.15516 0.06565 0.0
C453 C 0.70936 0.15837 0.19179 0.0
C454 C 0.68795 0.14253 0.99431 0.0
C455 C 0.72115 0.13544 0.02373 0.0
H456 H 0.38308 0.73836 0.34542 0.0
H457 H 0.43503 0.76828 0.0704 0.0
H458 H 0.40334 0.72699 0.97358 0.0
H459 H 0.37864 0.67083 0.98227 0.0
H460 H 0.331 0.63677 0.25944 0.0
H461 H 0.34196 0.69139 0.33846 0.0
C462 C 0.38646 0.73664 0.26361 0.0
C463 C 0.41245 0.75526 0.21628 0.0
C464 C 0.36945 0.71138 0.20888 0.0
C465 C 0.41569 0.75386 0.10963 0.0
C466 C 0.39778 0.72986 0.05396 0.0
C467 C 0.36892 0.67575 0.05807 0.0
C468 C 0.35601 0.64896 0.1172 0.0
C469 C 0.37712 0.70652 0.10475 0.0
C470 C 0.34242 0.65648 0.21376 0.0
C471 C 0.34909 0.68767 0.25955 0.0
H472 H 0.76533 0.416 0.09977 0.0
H473 H 0.78678 0.38073 0.40403 0.0
H474 H 0.83305 0.34562 0.33899 0.0
H475 H 0.87788 0.3434 0.2085 0.0
H476 H 0.85802 0.38523 0.91024 0.0
H477 H 0.80008 0.39701 0.95814 0.0
C478 C 0.77878 0.39931 0.15168 0.0
C479 C 0.77406 0.4026 0.25741 0.0
C480 C 0.80641 0.3807 0.11446 0.0
C481 C 0.79105 0.37982 0.32258 0.0
C482 C 0.81773 0.35994 0.28548 0.0
C483 C 0.86053 0.35395 0.15282 0.0
C484 C 0.87307 0.3653 0.05819 0.0
C485 C 0.82762 0.36305 0.18328 0.0
C486 C 0.84974 0.37708 0.98494 0.0
C487 C 0.81642 0.38437 0.01275 0.0
H488 H 0.98713 0.19511 0.14861 0.0
H489 H 0.99685 0.26256 0.89286 0.0
H490 H 1.00483 0.21373 0.77862 0.0
H491 H 1.00486 0.15034 0.74982 0.0
H492 H 0.99392 0.08499 0.01216 0.0
H493 H 0.99027 0.13378 0.12286 0.0
C494 C 0.99211 0.19923 0.06827 0.0
C495 C 0.99232 0.23275 0.0304 0.0
C496 C 0.99565 0.17096 1.00287 0.0
C497 C 0.99763 0.2373 0.92518 0.0
C498 C 1.00161 0.20919 0.85942 0.0
C499 C 1.0017 0.14679 0.83111 0.0
C500 C 0.99975 0.11337 0.87123 0.0
C501 C 0.9999 0.17565 0.89685 0.0
C502 C 0.99582 0.10986 0.97759 0.0
C503 C 0.99371 0.13797 0.04191 0.0
H504 H 0.33102 0.0249 0.17582 0.0
H505 H 0.27998 0.96468 0.95127 0.0
H506 H 0.329 0.96915 0.83716 0.0
H507 H 0.38934 0.98589 0.80731 0.0
H508 H 0.43922 0.04687 0.03422 0.0
H509 H 0.38858 0.04621 0.1394 0.0
C510 C 0.3301 1.01394 0.10024 0.0
C511 C 0.30121 0.99537 0.07128 0.0
C512 C 0.35889 0.01599 0.03564 0.0
C513 C 0.30129 0.98005 0.97449 0.0
C514 C 0.32967 0.98214 0.90971 0.0
C515 C 0.38905 0.99925 0.87932 0.0
C516 C 0.41861 0.01634 0.9118 0.0
C517 C 0.35913 0.99929 0.94036 0.0
C518 C 0.41722 0.03359 1.00577 0.0
C519 C 0.38806 0.03325 0.06675 0.0
H520 H 0.51319 0.32391 0.17633 0.0
H521 H 0.56797 0.27677 0.93136 0.0
H522 H 0.55947 0.32728 0.82466 0.0
H523 H 0.54126 0.38802 0.80733 0.0
H524 H 0.48757 0.43412 0.05859 0.0
H525 H 0.49087 0.38175 0.15416 0.0
C526 C 0.52204 0.32416 0.09811 0.0
C527 C 0.54019 0.29592 0.06107 0.0
C528 C 0.51801 0.35387 0.03831 0.0
C529 C 0.55288 0.29752 0.96087 0.0
C530 C 0.54848 0.32676 0.90028 0.0
C531 C 0.52996 0.38655 0.88244 0.0
C532 C 0.51448 0.4158 0.92474 0.0
C533 C 0.53187 0.35564 0.93901 0.0
C534 C 0.50004 0.41274 0.02285 0.0
C535 C 0.50176 0.38248 0.07839 0.0
H536 H 0.20571 0.4993 0.16341 0.0
H537 H 0.25318 0.56564 0.94619 0.0
H538 H 0.20456 0.56004 0.83163 0.0
H539 H 0.14524 0.54073 0.80018 0.0
H540 H 0.09878 0.47356 0.01885 0.0
H541 H 0.14944 0.47514 0.12375 0.0
C542 C 0.20604 0.51136 0.08914 0.0
C543 C 0.23377 0.53209 0.06267 0.0
C544 C 0.17739 0.50862 0.02416 0.0
C545 C 0.23283 0.54869 0.96754 0.0
C546 C 0.20464 0.54594 0.90252 0.0
C547 C 0.14628 0.52619 0.87023 0.0
C548 C 0.11761 0.50717 0.90062 0.0
C549 C 0.1762 0.52675 0.93107 0.0
C550 C 0.12002 0.48843 0.99209 0.0
C551 C 0.14921 0.48929 0.05292 0.0
H552 H 0.99403 0.826 0.33329 0.0
H553 H 0.06201 0.78277 0.55448 0.0
H554 H 0.05545 0.83298 0.66242 0.0
H555 H 0.03459 0.89216 0.68663 0.0
H556 H 0.9659 0.93469 0.46462 0.0
H557 H 0.96852 0.88253 0.36611 0.0
C558 C 1.00631 0.82699 0.40704 0.0
C559 C 0.02768 0.79991 0.43682 0.0
C560 C 1.00292 0.85651 0.46816 0.0
C561 C 0.04455 0.80254 0.5309 0.0
C562 C 0.0412 0.83162 0.59207 0.0
C563 C 0.01988 0.88995 0.61732 0.0
C564 C 1.00014 0.91793 0.5839 0.0
C565 C 0.02115 0.85927 0.56043 0.0
C566 C 0.98129 0.91402 0.49349 0.0
C567 C 0.98278 0.88398 0.43643 0.0
H568 H 0.73638 0.04911 0.59208 0.0
H569 H 0.71381 0.98566 0.33501 0.0
H570 H 0.65809 0.97261 0.40817 0.0
H571 H 0.61295 0.98468 0.53658 0.0
H572 H 0.63671 0.04831 0.79348 0.0
H573 H 0.69415 0.05589 0.72916 0.0
C574 C 0.71971 0.03149 0.55368 0.0
C575 C 0.72968 0.01809 0.45837 0.0
C576 C 0.68732 0.0248 0.59521 0.0
C577 C 0.70736 0.99578 0.40916 0.0
C578 C 0.67514 0.98879 0.45037 0.0
C579 C 0.63076 0.99997 0.57907 0.0
C580 C 0.61998 0.0161 0.66993 0.0
C581 C 0.66434 1.00405 0.54183 0.0
C582 C 0.64385 0.03552 0.72374 0.0
C583 C 0.6769 0.03993 0.68682 0.0
H584 H 0.45874 0.7271 0.56287 0.0
H585 H 0.54814 0.71779 0.3768 0.0
H586 H 0.56317 0.66478 0.46483 0.0
H587 H 0.54739 0.61757 0.58341 0.0
H588 H 0.45674 0.62807 0.76548 0.0
H589 H 0.44584 0.68335 0.69025 0.0
C590 C 0.482 0.71392 0.54311 0.0
C591 C 0.50232 0.72677 0.46318 0.0
C592 C 0.48994 0.68297 0.59222 0.0
C593 C 0.53225 0.70905 0.43872 0.0
C594 C 0.54057 0.67835 0.48826 0.0
C595 C 0.52541 0.63204 0.60744 0.0
C596 C 0.50284 0.61795 0.68022 0.0
C597 C 0.51907 0.66445 0.56327 0.0
C598 C 0.47462 0.63761 0.70984 0.0
C599 C 0.46828 0.6695 0.66669 0.0
H600 H 0.80035 0.47385 0.57388 0.0
H601 H 0.82494 0.53693 0.3165 0.0
H602 H 0.88022 0.54978 0.3924 0.0
H603 H 0.92438 0.53761 0.52329 0.0
H604 H 0.89883 0.47424 0.78026 0.0
H605 H 0.84171 0.46691 0.71326 0.0
C606 C 0.81738 0.4913 0.53587 0.0
C607 C 0.80813 0.50464 0.43964 0.0
C608 C 0.84953 0.49786 0.57898 0.0
C609 C 0.83086 0.52682 0.39117 0.0
C610 C 0.86282 0.5337 0.434 0.0
C611 C 0.90626 0.52244 0.56524 0.0
C612 C 0.91642 0.50628 0.65687 0.0
C613 C 0.87293 0.51847 0.52636 0.0
C614 C 0.89215 0.48701 0.70996 0.0
C615 C 0.8593 0.48275 0.67147 0.0
loop_
_geom_bond_atom_site_label_1
_geom_bond_atom_site_label_2
_geom_bond_distance
_geom_bond_site_symmetry_2
_ccdc_geom_bond_type
H0 C3 0.931 . S
H1 C6 0.928 . S
H2 C8 0.930 . S
C3 H0 0.931 . S
C3 C4 1.413 . S
C3 C5 1.360 . S
C4 C3 1.413 . S
C4 C8 1.429 . S
C5 C3 1.360 . S
C5 C6 1.372 . S
C6 H1 0.928 . S
C6 C5 1.372 . S
C6 C7 1.404 . S
C7 C6 1.404 . S
C7 C8 1.391 . S
C8 H2 0.930 . S
C8 C4 1.429 . S
C8 C7 1.391 . S
H9 C12 0.931 . S
H10 C15 0.928 . S
H11 C17 0.930 . S
C12 H9 0.931 . S
C12 C13 1.413 . S
C12 C14 1.360 . S
C13 C12 1.413 . S
C13 C17 1.429 1_655 S
C14 C12 1.360 . S
C14 C15 1.372 . S
C15 H10 0.928 . S
C15 C14 1.372 . S
C15 C16 1.404 . S
C16 C15 1.404 . S
C16 C17 1.390 1_655 S
C17 H11 0.930 . S
C17 C13 1.429 1_455 S
C17 C16 1.390 1_455 S
H18 C21 0.931 . S
H19 C24 0.928 . S
H20 C26 0.930 . S
C21 H18 0.931 . S
C21 C22 1.413 . S
C21 C23 1.360 . S
C22 C21 1.413 . S
C22 C26 1.429 1_565 S
C23 C21 1.360 . S
C23 C24 1.372 . S
C24 H19 0.928 . S
C24 C23 1.372 . S
C24 C25 1.404 . S
C25 C24 1.404 . S
C25 C26 1.390 1_565 S
C26 H20 0.930 . S
C26 C22 1.429 1_545 S
C26 C25 1.390 1_545 S
H27 C30 0.931 . S
H28 C33 0.928 . S
H29 C35 0.930 . S
C30 H27 0.931 . S
C30 C31 1.413 . S
C30 C32 1.360 . S
C31 C30 1.413 . S
C31 C35 1.429 . S
C32 C30 1.360 . S
C32 C33 1.372 . S
C33 H28 0.928 . S
C33 C32 1.372 . S
C33 C34 1.404 . S
C34 C33 1.404 . S
C34 C35 1.391 . S
C35 H29 0.930 . S
C35 C31 1.429 . S
C35 C34 1.391 . S
H36 C39 0.931 . S
H37 C42 0.928 . S
H38 C44 0.930 . S
C39 H36 0.931 . S
C39 C40 1.413 1_554 S
C39 C41 1.360 . S
C40 C39 1.413 1_556 S
C40 C44 1.429 . S
C41 C39 1.360 . S
C41 C42 1.372 . S
C42 H37 0.928 . S
C42 C41 1.372 . S
C42 C43 1.404 . S
C43 C42 1.404 . S
C43 C44 1.391 1_554 S
C44 H38 0.930 . S
C44 C40 1.429 . S
C44 C43 1.391 1_556 S
H45 C48 0.931 . S
H46 C51 0.928 . S
H47 C53 0.930 . S
C48 H45 0.931 . S
C48 C49 1.413 1_554 S
C48 C50 1.360 . S
C49 C48 1.413 1_556 S
C49 C53 1.429 1_655 S
C50 C48 1.360 . S
C50 C51 1.372 . S
C51 H46 0.928 . S
C51 C50 1.372 . S
C51 C52 1.404 . S
C52 C51 1.404 . S
C52 C53 1.391 1_654 S
C53 H47 0.930 . S
C53 C49 1.429 1_455 S
C53 C52 1.391 1_456 S
H54 C57 0.931 . S
H55 C60 0.928 . S
H56 C62 0.930 . S
C57 H54 0.931 . S
C57 C58 1.413 1_554 S
C57 C59 1.360 . S
C58 C57 1.413 1_556 S
C58 C62 1.429 1_565 S
C59 C57 1.360 . S
C59 C60 1.372 . S
C60 H55 0.928 . S
C60 C59 1.372 . S
C60 C61 1.404 . S
C61 C60 1.404 . S
C61 C62 1.391 1_564 S
C62 H56 0.930 . S
C62 C58 1.429 1_545 S
C62 C61 1.391 1_546 S
H63 C66 0.931 . S
H64 C69 0.928 . S
H65 C71 0.930 . S
C66 H63 0.931 . S
C66 C67 1.413 . S
C66 C68 1.360 1_554 S
C67 C66 1.413 . S
C67 C71 1.429 . S
C68 C66 1.360 1_556 S
C68 C69 1.372 . S
C69 H64 0.928 . S
C69 C68 1.372 . S
C69 C70 1.404 1_556 S
C70 C69 1.404 1_554 S
C70 C71 1.391 . S
C71 H65 0.930 . S
C71 C67 1.429 . S
C71 C70 1.391 . S
Tb72 C82 2.825 . S
Tb72 O83 2.347 1_455 S
Tb72 O86 2.366 . S
Tb72 O91 2.418 . S
Tb72 O92 2.384 1_565 S
Tb72 O95 2.479 . S
Tb72 O96 2.471 . S
Eu73 O84 2.418 . S
Eu73 O85 2.384 1_545 S
Eu73 O88 2.479 . S
Eu73 O89 2.471 . S
Eu73 O90 2.347 1_655 S
Eu73 O93 2.366 . S
Eu73 C103 2.825 . S
C74 O90 1.259 1_565 S
C74 O91 1.265 . S
C75 O92 1.255 . S
C75 O93 1.265 1_455 S
C76 C78 1.380 . S
C76 C79 1.374 . S
C76 C82 1.507 1_554 S
C77 C78 1.384 . S
C77 C81 1.387 . S
C77 H104 0.930 . S
C78 C76 1.380 . S
C78 C77 1.384 . S
C78 H105 0.931 1_554 S
C79 C76 1.374 . S
C79 C80 1.390 . S
C79 H106 0.930 1_455 S
C80 C79 1.390 . S
C80 C81 1.391 . S
C80 H107 0.930 . S
C81 C77 1.387 . S
C81 C80 1.391 . S
C82 Tb72 2.825 . S
C82 C76 1.507 1_556 S
C82 O95 1.238 . S
C82 O96 1.247 . S
O83 Tb72 2.347 1_655 S
O83 C87 1.259 1_565 S
O84 Eu73 2.418 . S
O84 C87 1.265 . S
O85 Eu73 2.384 1_565 S
O85 C94 1.255 . S
O86 Tb72 2.366 . S
O86 C94 1.265 1_455 S
C87 O83 1.259 1_545 S
C87 O84 1.265 . S
O88 Eu73 2.479 . S
O88 C103 1.238 . S
O89 Eu73 2.471 . S
O89 C103 1.247 . S
O90 Eu73 2.347 1_455 S
O90 C74 1.259 1_545 S
O91 Tb72 2.418 . S
O91 C74 1.265 . S
O92 Tb72 2.384 1_545 S
O92 C75 1.255 . S
O93 Eu73 2.366 . S
O93 C75 1.265 1_655 S
C94 O85 1.255 . S
C94 O86 1.265 1_655 S
O95 Tb72 2.479 . S
O95 C82 1.238 . S
O96 Tb72 2.471 . S
O96 C82 1.247 . S
C97 C100 1.380 . S
C97 C101 1.374 . S
C97 C103 1.507 . S
C98 C99 1.387 . S
C98 C102 1.391 . S
C99 C98 1.387 . S
C99 C100 1.384 . S
C99 H108 0.930 . S
C100 C97 1.380 . S
C100 C99 1.384 . S
C100 H109 0.931 . S
C101 C97 1.374 . S
C101 C102 1.390 . S
C101 H110 0.930 1_655 S
C102 C98 1.391 . S
C102 C101 1.390 . S
C102 H111 0.930 . S
C103 Eu73 2.825 . S
C103 O88 1.238 . S
C103 O89 1.247 . S
C103 C97 1.507 . S
H104 C77 0.930 . S
H105 C78 0.931 1_556 S
H106 C79 0.930 1_655 S
H107 C80 0.930 . S
H108 C99 0.930 . S
H109 C100 0.931 . S
H110 C101 0.930 1_455 S
H111 C102 0.930 . S
Tb112 C122 2.825 . S
Tb112 O123 2.347 1_545 S
Tb112 O126 2.366 . S
Tb112 O131 2.418 . S
Tb112 O132 2.384 . S
Tb112 O135 2.479 . S
Tb112 O136 2.471 . S
Eu113 O124 2.418 . S
Eu113 O125 2.384 . S
Eu113 O128 2.479 . S
Eu113 O129 2.471 . S
Eu113 O130 2.347 1_565 S
Eu113 O133 2.366 . S
Eu113 C143 2.825 . S
C114 O130 1.259 . S
C114 O131 1.265 . S
C115 O132 1.255 . S
C115 O133 1.265 1_545 S
C116 C118 1.380 . S
C116 C119 1.374 . S
C116 C122 1.507 1_554 S
C117 C118 1.384 . S
C117 C121 1.387 . S
C117 H144 0.930 . S
C118 C116 1.380 . S
C118 C117 1.384 . S
C118 H145 0.931 1_554 S
C119 C116 1.374 . S
C119 C120 1.390 . S
C119 H146 0.930 1_545 S
C120 C119 1.390 . S
C120 C121 1.391 . S
C120 H147 0.920 1_545 S
C121 C117 1.387 . S
C121 C120 1.391 . S
C122 Tb112 2.825 . S
C122 C116 1.507 1_556 S
C122 O135 1.238 . S
C122 O136 1.247 . S
O123 Tb112 2.347 1_565 S
O123 C127 1.259 . S
O124 Eu113 2.418 . S
O124 C127 1.265 . S
O125 Eu113 2.384 . S
O125 C134 1.255 . S
O126 Tb112 2.366 . S
O126 C134 1.265 1_545 S
C127 O123 1.259 . S
C127 O124 1.265 . S
O128 Eu113 2.479 . S
O128 C143 1.238 . S
O129 Eu113 2.471 . S
O129 C143 1.247 . S
O130 Eu113 2.347 1_545 S
O130 C114 1.259 . S
O131 Tb112 2.418 . S
O131 C114 1.265 . S
O132 Tb112 2.384 . S
O132 C115 1.255 . S
O133 Eu113 2.366 . S
O133 C115 1.265 1_565 S
C134 O125 1.255 . S
C134 O126 1.265 1_565 S
O135 Tb112 2.479 . S
O135 C122 1.238 . S
O136 Tb112 2.471 . S
O136 C122 1.247 . S
C137 C140 1.380 . S
C137 C141 1.374 . S
C137 C143 1.507 . S
C138 C139 1.387 . S
C138 C142 1.391 . S
C139 C138 1.387 . S
C139 C140 1.384 . S
C139 H148 0.930 . S
C140 C137 1.380 . S
C140 C139 1.384 . S
C140 H149 0.931 . S
C141 C137 1.374 . S
C141 C142 1.390 . S
C141 H150 0.930 1_565 S
C142 C138 1.391 . S
C142 C141 1.390 . S
C142 H151 0.914 1_565 S
C143 Eu113 2.825 . S
C143 O128 1.238 . S
C143 O129 1.247 . S
C143 C137 1.507 . S
H144 C117 0.930 . S
H145 C118 0.931 1_556 S
H146 C119 0.930 1_565 S
H147 C120 0.920 1_565 S
H148 C139 0.930 . S
H149 C140 0.931 . S
H150 C141 0.930 1_545 S
H151 C142 0.914 1_545 S
Tb152 C162 2.825 . S
Tb152 O163 2.347 . S
Tb152 O166 2.366 . S
Tb152 O171 2.418 . S
Tb152 O172 2.384 . S
Tb152 O175 2.479 . S
Tb152 O176 2.471 . S
Eu153 O164 2.418 . S
Eu153 O165 2.384 . S
Eu153 O168 2.479 . S
Eu153 O169 2.471 . S
Eu153 O170 2.347 . S
Eu153 O173 2.366 . S
Eu153 C183 2.825 . S
C154 O170 1.259 . S
C154 O171 1.265 . S
C155 O172 1.255 . S
C155 O173 1.265 . S
C156 C158 1.380 . S
C156 C159 1.374 . S
C156 C162 1.507 1_554 S
C157 C158 1.384 . S
C157 C161 1.387 . S
C157 H184 0.930 . S
C158 C156 1.380 . S
C158 C157 1.384 . S
C158 H185 0.931 1_554 S
C159 C156 1.374 . S
C159 C160 1.390 . S
C159 H186 0.930 . S
C160 C159 1.390 . S
C160 C161 1.391 . S
C160 H187 0.930 . S
C161 C157 1.387 . S
C161 C160 1.391 . S
C162 Tb152 2.825 . S
C162 C156 1.507 1_556 S
C162 O175 1.238 . S
C162 O176 1.247 . S
O163 Tb152 2.347 . S
O163 C167 1.259 . S
O164 Eu153 2.418 . S
O164 C167 1.265 . S
O165 Eu153 2.384 . S
O165 C174 1.255 . S
O166 Tb152 2.366 . S
O166 C174 1.265 . S
C167 O163 1.259 . S
C167 O164 1.265 . S
O168 Eu153 2.479 . S
O168 C183 1.238 . S
O169 Eu153 2.471 . S
O169 C183 1.247 . S
O170 Eu153 2.347 . S
O170 C154 1.259 . S
O171 Tb152 2.418 . S
O171 C154 1.265 . S
O172 Tb152 2.384 . S
O172 C155 1.255 . S
O173 Eu153 2.366 . S
O173 C155 1.265 . S
C174 O165 1.255 . S
C174 O166 1.265 . S
O175 Tb152 2.479 . S
O175 C162 1.238 . S
O176 Tb152 2.471 . S
O176 C162 1.247 . S
C177 C180 1.380 . S
C177 C181 1.374 . S
C177 C183 1.507 . S
C178 C179 1.387 . S
C178 C182 1.391 . S
C179 C178 1.387 . S
C179 C180 1.384 . S
C179 H188 0.930 . S
C180 C177 1.380 . S
C180 C179 1.384 . S
C180 H189 0.931 . S
C181 C177 1.374 . S
C181 C182 1.390 . S
C181 H190 0.930 . S
C182 C178 1.391 . S
C182 C181 1.390 . S
C182 H191 0.930 . S
C183 Eu153 2.825 . S
C183 O168 1.238 . S
C183 O169 1.247 . S
C183 C177 1.507 . S
H184 C157 0.930 . S
H185 C158 0.931 1_556 S
H186 C159 0.930 . S
H187 C160 0.930 . S
H188 C179 0.930 . S
H189 C180 0.931 . S
H190 C181 0.930 . S
H191 C182 0.930 . S
Tb192 C202 2.825 . S
Tb192 O203 2.347 . S
Tb192 O206 2.366 . S
Tb192 O211 2.418 . S
Tb192 O212 2.384 1_655 S
Tb192 O215 2.479 . S
Tb192 O216 2.471 . S
Eu193 O204 2.418 . S
Eu193 O205 2.384 1_455 S
Eu193 O208 2.479 . S
Eu193 O209 2.471 . S
Eu193 O210 2.347 . S
Eu193 O213 2.366 . S
Eu193 C223 2.825 . S
C194 O210 1.259 1_655 S
C194 O211 1.265 . S
C195 O212 1.255 . S
C195 O213 1.265 . S
C196 C198 1.380 . S
C196 C199 1.374 . S
C196 C202 1.507 1_554 S
C197 C198 1.384 . S
C197 C201 1.387 . S
C197 H224 0.930 . S
C198 C196 1.380 . S
C198 C197 1.384 . S
C198 H225 0.931 1_554 S
C199 C196 1.374 . S
C199 C200 1.390 . S
C199 H226 0.930 . S
C200 C199 1.390 . S
C200 C201 1.391 . S
C200 H227 0.930 . S
C201 C197 1.387 . S
C201 C200 1.391 . S
C202 Tb192 2.825 . S
C202 C196 1.507 1_556 S
C202 O215 1.238 . S
C202 O216 1.247 . S
O203 Tb192 2.347 . S
O203 C207 1.259 1_655 S
O204 Eu193 2.418 . S
O204 C207 1.265 . S
O205 Eu193 2.384 1_655 S
O205 C214 1.255 . S
O206 Tb192 2.366 . S
O206 C214 1.265 . S
C207 O203 1.259 1_455 S
C207 O204 1.265 . S
O208 Eu193 2.479 . S
O208 C223 1.238 . S
O209 Eu193 2.471 . S
O209 C223 1.247 . S
O210 Eu193 2.347 . S
O210 C194 1.259 1_455 S
O211 Tb192 2.418 . S
O211 C194 1.265 . S
O212 Tb192 2.384 1_455 S
O212 C195 1.255 . S
O213 Eu193 2.366 . S
O213 C195 1.265 . S
C214 O205 1.255 . S
C214 O206 1.265 . S
O215 Tb192 2.479 . S
O215 C202 1.238 . S
O216 Tb192 2.471 . S
O216 C202 1.247 . S
C217 C220 1.380 . S
C217 C221 1.374 . S
C217 C223 1.507 . S
C218 C219 1.387 . S
C218 C222 1.391 . S
C219 C218 1.387 . S
C219 C220 1.384 . S
C219 H228 0.930 . S
C220 C217 1.380 . S
C220 C219 1.384 . S
C220 H229 0.931 . S
C221 C217 1.374 . S
C221 C222 1.390 . S
C221 H230 0.930 . S
C222 C218 1.391 . S
C222 C221 1.390 . S
C222 H231 0.930 . S
C223 Eu193 2.825 . S
C223 O208 1.238 . S
C223 O209 1.247 . S
C223 C217 1.507 . S
H224 C197 0.930 . S
H225 C198 0.931 1_556 S
H226 C199 0.930 . S
H227 C200 0.930 . S
H228 C219 0.930 . S
H229 C220 0.931 . S
H230 C221 0.930 . S
H231 C222 0.930 . S
H232 C238 0.930 . S
H233 C241 0.930 . S
H234 C242 0.930 . S
H235 C243 0.930 . S
H236 C246 0.930 . S
H237 C247 0.930 . S
C238 H232 0.930 . S
C238 C239 1.355 1_565 S
C238 C240 1.415 . S
C239 C238 1.355 1_545 S
C239 C241 1.419 . S
C240 C238 1.415 . S
C240 C245 1.425 1_565 S
C240 C247 1.409 . S
C241 H233 0.930 . S
C241 C239 1.419 . S
C241 C242 1.362 . S
C242 H234 0.930 . S
C242 C241 1.362 . S
C242 C245 1.409 . S
C243 H235 0.930 . S
C243 C244 1.355 1_545 S
C243 C245 1.415 . S
C244 C243 1.355 1_565 S
C244 C246 1.419 . S
C245 C240 1.425 1_545 S
C245 C242 1.409 . S
C245 C243 1.415 . S
C246 H236 0.930 . S
C246 C244 1.419 . S
C246 C247 1.362 . S
C247 H237 0.930 . S
C247 C240 1.409 . S
C247 C246 1.362 . S
H248 C254 0.930 . S
H249 C257 0.930 . S
H250 C258 0.930 . S
H251 C259 0.930 . S
H252 C262 0.930 . S
H253 C263 0.930 . S
C254 H248 0.930 . S
C254 C255 1.355 . S
C254 C256 1.415 . S
C255 C254 1.355 . S
C255 C257 1.419 . S
C256 C254 1.415 . S
C256 C261 1.425 . S
C256 C263 1.409 . S
C257 H249 0.930 . S
C257 C255 1.419 . S
C257 C258 1.362 . S
C258 H250 0.930 . S
C258 C257 1.362 . S
C258 C261 1.409 . S
C259 H251 0.930 . S
C259 C260 1.355 . S
C259 C261 1.415 . S
C260 C259 1.355 . S
C260 C262 1.419 . S
C261 C256 1.425 . S
C261 C258 1.409 . S
C261 C259 1.415 . S
C262 H252 0.930 . S
C262 C260 1.419 . S
C262 C263 1.362 . S
C263 H253 0.930 . S
C263 C256 1.409 . S
C263 C262 1.362 . S
H264 C270 0.930 . S
H265 C273 0.930 . S
H266 C274 0.930 . S
H267 C275 0.930 . S
H268 C278 0.930 . S
H269 C279 0.930 . S
C270 H264 0.930 . S
C270 C271 1.355 . S
C270 C272 1.415 . S
C271 C270 1.355 . S
C271 C273 1.419 . S
C272 C270 1.415 . S
C272 C277 1.425 . S
C272 C279 1.409 . S
C273 H265 0.930 . S
C273 C271 1.419 . S
C273 C274 1.362 . S
C274 H266 0.930 . S
C274 C273 1.362 . S
C274 C277 1.409 . S
C275 H267 0.930 . S
C275 C276 1.355 . S
C275 C277 1.415 . S
C276 C275 1.355 . S
C276 C278 1.419 . S
C277 C272 1.425 . S
C277 C274 1.409 . S
C277 C275 1.415 . S
C278 H268 0.930 . S
C278 C276 1.419 . S
C278 C279 1.362 . S
C279 H269 0.930 . S
C279 C272 1.409 . S
C279 C278 1.362 . S
H280 C286 0.930 . S
H281 C289 0.930 . S
H282 C290 0.930 . S
H283 C291 0.930 . S
H284 C294 0.930 . S
H285 C295 0.930 . S
C286 H280 0.930 . S
C286 C287 1.355 1_455 S
C286 C288 1.415 . S
C287 C286 1.355 1_655 S
C287 C289 1.419 . S
C288 C286 1.415 . S
C288 C293 1.425 1_455 S
C288 C295 1.409 . S
C289 H281 0.930 . S
C289 C287 1.419 . S
C289 C290 1.362 . S
C290 H282 0.930 . S
C290 C289 1.362 . S
C290 C293 1.409 . S
C291 H283 0.930 . S
C291 C292 1.355 1_655 S
C291 C293 1.415 . S
C292 C291 1.355 1_455 S
C292 C294 1.419 . S
C293 C288 1.425 1_655 S
C293 C290 1.409 . S
C293 C291 1.415 . S
C294 H284 0.930 . S
C294 C292 1.419 . S
C294 C295 1.362 . S
C295 H285 0.930 . S
C295 C288 1.409 . S
C295 C294 1.362 . S
H296 C302 0.930 . S
H297 C305 0.930 . S
H298 C306 0.930 . S
H299 C307 0.930 1_556 S
H300 C310 0.930 . S
H301 C311 0.930 . S
C302 H296 0.930 . S
C302 C303 1.355 1_565 S
C302 C304 1.415 . S
C303 C302 1.355 1_545 S
C303 C305 1.419 . S
C304 C302 1.415 . S
C304 C309 1.425 1_565 S
C304 C311 1.409 . S
C305 H297 0.930 . S
C305 C303 1.419 . S
C305 C306 1.362 . S
C306 H298 0.930 . S
C306 C305 1.362 . S
C306 C309 1.409 . S
C307 H299 0.930 1_554 S
C307 C308 1.355 1_544 S
C307 C309 1.415 . S
C308 C307 1.355 1_566 S
C308 C310 1.419 1_556 S
C309 C304 1.425 1_545 S
C309 C306 1.409 . S
C309 C307 1.415 . S
C310 H300 0.930 . S
C310 C308 1.419 1_554 S
C310 C311 1.362 . S
C311 H301 0.930 . S
C311 C304 1.409 . S
C311 C310 1.362 . S
H312 C318 0.930 . S
H313 C321 0.930 . S
H314 C322 0.930 . S
H315 C323 0.930 1_556 S
H316 C326 0.930 . S
H317 C327 0.930 . S
C318 H312 0.930 . S
C318 C319 1.355 . S
C318 C320 1.415 . S
C319 C318 1.355 . S
C319 C321 1.419 . S
C320 C318 1.415 . S
C320 C325 1.425 . S
C320 C327 1.409 . S
C321 H313 0.930 . S
C321 C319 1.419 . S
C321 C322 1.362 . S
C322 H314 0.930 . S
C322 C321 1.362 . S
C322 C325 1.409 . S
C323 H315 0.930 1_554 S
C323 C324 1.355 1_554 S
C323 C325 1.415 . S
C324 C323 1.355 1_556 S
C324 C326 1.419 1_556 S
C325 C320 1.425 . S
C325 C322 1.409 . S
C325 C323 1.415 . S
C326 H316 0.930 . S
C326 C324 1.419 1_554 S
C326 C327 1.362 . S
C327 H317 0.930 . S
C327 C320 1.409 . S
C327 C326 1.362 . S
H328 C334 0.930 . S
H329 C337 0.930 . S
H330 C338 0.930 . S
H331 C339 0.930 . S
H332 C342 0.930 1_556 S
H333 C343 0.930 . S
C334 H328 0.930 . S
C334 C335 1.355 . S
C334 C336 1.415 . S
C335 C334 1.355 . S
C335 C337 1.419 . S
C336 C334 1.415 . S
C336 C341 1.425 . S
C336 C343 1.409 . S
C337 H329 0.930 . S
C337 C335 1.419 . S
C337 C338 1.362 . S
C338 H330 0.930 . S
C338 C337 1.362 . S
C338 C341 1.409 . S
C339 H331 0.930 . S
C339 C340 1.355 1_554 S
C339 C341 1.415 . S
C340 C339 1.355 1_556 S
C340 C342 1.419 1_556 S
C341 C336 1.425 . S
C341 C338 1.409 . S
C341 C339 1.415 . S
C342 H332 0.930 1_554 S
C342 C340 1.419 1_554 S
C342 C343 1.362 . S
C343 H333 0.930 . S
C343 C336 1.409 . S
C343 C342 1.362 . S
H344 C350 0.930 . S
H345 C353 0.930 . S
H346 C354 0.930 . S
H347 C355 0.930 1_556 S
H348 C358 0.930 . S
H349 C359 0.930 . S
C350 H344 0.930 . S
C350 C351 1.355 1_655 S
C350 C352 1.415 . S
C351 C350 1.355 1_455 S
C351 C353 1.419 . S
C352 C350 1.415 . S
C352 C357 1.425 1_655 S
C352 C359 1.409 . S
C353 H345 0.930 . S
C353 C351 1.419 . S
C353 C354 1.362 . S
C354 H346 0.930 . S
C354 C353 1.362 . S
C354 C357 1.409 . S
C355 H347 0.930 1_554 S
C355 C356 1.355 1_454 S
C355 C357 1.415 . S
C356 C355 1.355 1_656 S
C356 C358 1.419 1_556 S
C357 C352 1.425 1_455 S
C357 C354 1.409 . S
C357 C355 1.415 . S
C358 H348 0.930 . S
C358 C356 1.419 1_554 S
C358 C359 1.362 . S
C359 H349 0.930 . S
C359 C352 1.409 . S
C359 C358 1.362 . S
H360 C366 0.930 . S
H361 C369 0.930 . S
H362 C370 0.930 . S
H363 C371 0.930 . S
H364 C374 0.930 . S
H365 C375 0.930 . S
C366 H360 0.930 . S
C366 C367 1.355 1_655 S
C366 C368 1.415 . S
C367 C366 1.355 1_455 S
C367 C369 1.419 . S
C368 C366 1.415 . S
C368 C373 1.425 . S
C368 C375 1.409 . S
C369 H361 0.930 . S
C369 C367 1.419 . S
C369 C370 1.362 1_455 S
C370 H362 0.930 . S
C370 C369 1.362 1_655 S
C370 C373 1.409 . S
C371 H363 0.930 . S
C371 C372 1.355 . S
C371 C373 1.415 . S
C372 C371 1.355 . S
C372 C374 1.419 . S
C373 C368 1.425 . S
C373 C370 1.409 . S
C373 C371 1.415 . S
C374 H364 0.930 . S
C374 C372 1.419 . S
C374 C375 1.362 . S
C375 H365 0.930 . S
C375 C368 1.409 . S
C375 C374 1.362 . S
H376 C382 0.930 . S
H377 C385 0.933 . S
H378 C386 0.930 . S
H379 C387 0.930 . S
H380 C390 0.930 . S
H381 C391 0.930 . S
C382 H376 0.930 . S
C382 C383 1.355 1_565 S
C382 C384 1.415 . S
C383 C382 1.355 1_545 S
C383 C385 1.420 . S
C384 C382 1.415 . S
C384 C389 1.425 . S
C384 C391 1.409 . S
C385 H377 0.933 . S
C385 C383 1.420 . S
C385 C386 1.359 1_545 S
C386 H378 0.930 . S
C386 C385 1.359 1_565 S
C386 C389 1.409 . S
C387 H379 0.930 . S
C387 C388 1.355 . S
C387 C389 1.415 . S
C388 C387 1.355 . S
C388 C390 1.419 . S
C389 C384 1.425 . S
C389 C386 1.409 . S
C389 C387 1.415 . S
C390 H380 0.930 . S
C390 C388 1.419 . S
C390 C391 1.362 . S
C391 H381 0.930 . S
C391 C384 1.409 . S
C391 C390 1.362 . S
H392 C398 0.930 . S
H393 C401 0.930 . S
H394 C402 0.930 . S
H395 C403 0.930 . S
H396 C406 0.930 . S
H397 C407 0.930 . S
C398 H392 0.930 . S
C398 C399 1.355 . S
C398 C400 1.415 . S
C399 C398 1.355 . S
C399 C401 1.419 . S
C400 C398 1.415 . S
C400 C405 1.425 . S
C400 C407 1.409 . S
C401 H393 0.930 . S
C401 C399 1.419 . S
C401 C402 1.362 . S
C402 H394 0.930 . S
C402 C401 1.362 . S
C402 C405 1.409 . S
C403 H395 0.930 . S
C403 C404 1.355 . S
C403 C405 1.415 . S
C404 C403 1.355 . S
C404 C406 1.419 . S
C405 C400 1.425 . S
C405 C402 1.409 . S
C405 C403 1.415 . S
C406 H396 0.930 . S
C406 C404 1.419 . S
C406 C407 1.362 . S
C407 H397 0.930 . S
C407 C400 1.409 . S
C407 C406 1.362 . S
H408 C414 0.930 . S
H409 C417 0.930 . S
H410 C418 0.930 . S
H411 C419 0.930 . S
H412 C422 0.930 . S
H413 C423 0.930 . S
C414 H408 0.930 . S
C414 C415 1.355 . S
C414 C416 1.415 . S
C415 C414 1.355 . S
C415 C417 1.419 . S
C416 C414 1.415 . S
C416 C421 1.425 . S
C416 C423 1.409 . S
C417 H409 0.930 . S
C417 C415 1.419 . S
C417 C418 1.362 . S
C418 H410 0.930 . S
C418 C417 1.362 . S
C418 C421 1.409 . S
C419 H411 0.930 . S
C419 C420 1.355 . S
C419 C421 1.415 . S
C420 C419 1.355 . S
C420 C422 1.419 . S
C421 C416 1.425 . S
C421 C418 1.409 . S
C421 C419 1.415 . S
C422 H412 0.930 . S
C422 C420 1.419 . S
C422 C423 1.362 . S
C423 H413 0.930 . S
C423 C416 1.409 . S
C423 C422 1.362 . S
H424 C430 0.930 . S
H425 C433 0.930 . S
H426 C434 0.930 . S
H427 C435 0.930 . S
H428 C438 0.930 . S
H429 C439 0.930 . S
C430 H424 0.930 . S
C430 C431 1.355 1_455 S
C430 C432 1.415 . S
C431 C430 1.355 1_655 S
C431 C433 1.419 . S
C432 C430 1.415 . S
C432 C437 1.425 . S
C432 C439 1.409 . S
C433 H425 0.930 . S
C433 C431 1.419 . S
C433 C434 1.362 . S
C434 H426 0.930 . S
C434 C433 1.362 . S
C434 C437 1.409 1_655 S
C435 H427 0.930 . S
C435 C436 1.355 . S
C435 C437 1.415 . S
C436 C435 1.355 . S
C436 C438 1.419 . S
C437 C432 1.425 . S
C437 C434 1.409 1_455 S
C437 C435 1.415 . S
C438 H428 0.930 . S
C438 C436 1.419 . S
C438 C439 1.362 . S
C439 H429 0.930 . S
C439 C432 1.409 . S
C439 C438 1.362 . S
H440 C446 0.930 . S
H441 C449 0.930 . S
H442 C450 0.930 . S
H443 C451 0.930 . S
H444 C454 0.930 1_556 S
H445 C455 0.930 1_565 S
C446 H440 0.930 . S
C446 C447 1.351 1_565 S
C446 C448 1.415 1_565 S
C447 C446 1.351 1_545 S
C447 C449 1.435 . S
C448 C446 1.415 1_545 S
C448 C453 1.425 . S
C448 C455 1.409 . S
C449 H441 0.930 . S
C449 C447 1.435 . S
C449 C450 1.362 . S
C450 H442 0.930 . S
C450 C449 1.362 . S
C450 C453 1.409 . S
C451 H443 0.930 . S
C451 C452 1.355 . S
C451 C453 1.415 . S
C452 C451 1.355 . S
C452 C454 1.419 . S
C453 C448 1.425 . S
C453 C450 1.409 . S
C453 C451 1.415 . S
C454 H444 0.930 1_554 S
C454 C452 1.419 . S
C454 C455 1.362 . S
C455 H445 0.930 1_545 S
C455 C448 1.409 . S
C455 C454 1.362 . S
H456 C462 0.930 . S
H457 C465 0.930 . S
H458 C466 0.930 . S
H459 C467 0.930 . S
H460 C470 0.930 . S
H461 C471 0.930 . S
C462 H456 0.930 . S
C462 C463 1.355 . S
C462 C464 1.415 . S
C463 C462 1.355 . S
C463 C465 1.419 . S
C464 C462 1.415 . S
C464 C469 1.425 . S
C464 C471 1.409 . S
C465 H457 0.930 . S
C465 C463 1.419 . S
C465 C466 1.362 . S
C466 H458 0.930 . S
C466 C465 1.362 . S
C466 C469 1.409 . S
C467 H459 0.930 . S
C467 C468 1.355 . S
C467 C469 1.415 . S
C468 C467 1.355 . S
C468 C470 1.419 . S
C469 C464 1.425 . S
C469 C466 1.409 . S
C469 C467 1.415 . S
C470 H460 0.930 . S
C470 C468 1.419 . S
C470 C471 1.362 . S
C471 H461 0.930 . S
C471 C464 1.409 . S
C471 C470 1.362 . S
H472 C478 0.930 . S
H473 C481 0.930 . S
H474 C482 0.930 . S
H475 C483 0.930 . S
H476 C486 0.930 . S
H477 C487 0.930 . S
C478 H472 0.930 . S
C478 C479 1.355 . S
C478 C480 1.415 . S
C479 C478 1.355 . S
C479 C481 1.419 . S
C480 C478 1.415 . S
C480 C485 1.425 . S
C480 C487 1.409 . S
C481 H473 0.930 . S
C481 C479 1.419 . S
C481 C482 1.362 . S
C482 H474 0.930 . S
C482 C481 1.362 . S
C482 C485 1.409 . S
C483 H475 0.930 . S
C483 C484 1.355 . S
C483 C485 1.415 . S
C484 C483 1.355 . S
C484 C486 1.419 . S
C485 C480 1.425 . S
C485 C482 1.409 . S
C485 C483 1.415 . S
C486 H476 0.930 . S
C486 C484 1.419 . S
C486 C487 1.362 . S
C487 H477 0.930 . S
C487 C480 1.409 . S
C487 C486 1.362 . S
H488 C494 0.930 . S
H489 C497 0.930 . S
H490 C498 0.930 . S
H491 C499 0.930 . S
H492 C502 0.930 . S
H493 C503 0.930 . S
C494 H488 0.930 . S
C494 C495 1.355 . S
C494 C496 1.415 . S
C495 C494 1.355 . S
C495 C497 1.419 1_455 S
C496 C494 1.415 . S
C496 C501 1.425 1_455 S
C496 C503 1.409 . S
C497 H489 0.930 . S
C497 C495 1.419 1_655 S
C497 C498 1.362 . S
C498 H490 0.930 . S
C498 C497 1.362 . S
C498 C501 1.409 . S
C499 H491 0.930 . S
C499 C500 1.355 1_655 S
C499 C501 1.415 . S
C500 C499 1.355 1_455 S
C500 C502 1.419 . S
C501 C496 1.425 1_655 S
C501 C498 1.409 . S
C501 C499 1.415 . S
C502 H492 0.930 . S
C502 C500 1.419 . S
C502 C503 1.362 . S
C503 H493 0.930 . S
C503 C496 1.409 . S
C503 C502 1.362 . S
H504 C510 0.947 . S
H505 C513 0.930 . S
H506 C514 0.930 . S
H507 C515 0.930 . S
H508 C518 0.927 1_565 S
H509 C519 0.930 1_554 S
C510 H504 0.947 . S
C510 C511 1.350 1_565 S
C510 C512 1.412 1_565 S
C511 C510 1.350 1_545 S
C511 C513 1.419 . S
C512 C510 1.412 1_545 S
C512 C517 1.425 . S
C512 C519 1.409 1_545 S
C513 H505 0.930 . S
C513 C511 1.419 . S
C513 C514 1.362 . S
C514 H506 0.930 . S
C514 C513 1.362 . S
C514 C517 1.409 . S
C515 H507 0.930 . S
C515 C516 1.355 . S
C515 C517 1.415 . S
C516 C515 1.355 . S
C516 C518 1.424 . S
C517 C512 1.425 . S
C517 C514 1.409 . S
C517 C515 1.415 . S
C518 H508 0.927 1_545 S
C518 C516 1.424 . S
C518 C519 1.360 1_545 S
C519 H509 0.930 1_556 S
C519 C512 1.409 1_565 S
C519 C518 1.360 1_565 S
H520 C526 0.930 . S
H521 C529 0.930 . S
H522 C530 0.930 . S
H523 C531 0.930 . S
H524 C534 0.930 . S
H525 C535 0.930 . S
C526 H520 0.930 . S
C526 C527 1.355 . S
C526 C528 1.415 . S
C527 C526 1.355 . S
C527 C529 1.419 . S
C528 C526 1.415 . S
C528 C533 1.425 . S
C528 C535 1.409 . S
C529 H521 0.930 . S
C529 C527 1.419 . S
C529 C530 1.362 . S
C530 H522 0.930 . S
C530 C529 1.362 . S
C530 C533 1.409 . S
C531 H523 0.930 . S
C531 C532 1.355 . S
C531 C533 1.415 . S
C532 C531 1.355 . S
C532 C534 1.419 . S
C533 C528 1.425 . S
C533 C530 1.409 . S
C533 C531 1.415 . S
C534 H524 0.930 . S
C534 C532 1.419 . S
C534 C535 1.362 . S
C535 H525 0.930 . S
C535 C528 1.409 . S
C535 C534 1.362 . S
H536 C542 0.930 . S
H537 C545 0.930 . S
H538 C546 0.930 . S
H539 C547 0.930 . S
H540 C550 0.930 . S
H541 C551 0.930 1_554 S
C542 H536 0.930 . S
C542 C543 1.355 . S
C542 C544 1.415 . S
C543 C542 1.355 . S
C543 C545 1.419 . S
C544 C542 1.415 . S
C544 C549 1.425 . S
C544 C551 1.409 . S
C545 H537 0.930 . S
C545 C543 1.419 . S
C545 C546 1.362 . S
C546 H538 0.930 . S
C546 C545 1.362 . S
C546 C549 1.409 . S
C547 H539 0.930 . S
C547 C548 1.355 . S
C547 C549 1.415 . S
C548 C547 1.355 . S
C548 C550 1.419 . S
C549 C544 1.425 . S
C549 C546 1.409 . S
C549 C547 1.415 . S
C550 H540 0.930 . S
C550 C548 1.419 . S
C550 C551 1.362 . S
C551 H541 0.930 1_556 S
C551 C544 1.409 . S
C551 C550 1.362 . S
H552 C558 0.930 . S
H553 C561 0.930 . S
H554 C562 0.930 . S
H555 C563 0.930 . S
H556 C566 0.930 . S
H557 C567 0.930 . S
C558 H552 0.930 . S
C558 C559 1.354 . S
C558 C560 1.415 . S
C559 C558 1.354 . S
C559 C561 1.420 1_655 S
C560 C558 1.415 . S
C560 C565 1.425 1_655 S
C560 C567 1.409 . S
C561 H553 0.930 . S
C561 C559 1.420 1_455 S
C561 C562 1.362 . S
C562 H554 0.930 . S
C562 C561 1.362 . S
C562 C565 1.409 . S
C563 H555 0.930 . S
C563 C564 1.355 1_455 S
C563 C565 1.415 . S
C564 C563 1.355 1_655 S
C564 C566 1.419 . S
C565 C560 1.425 1_455 S
C565 C562 1.409 . S
C565 C563 1.415 . S
C566 H556 0.930 . S
C566 C564 1.419 . S
C566 C567 1.362 . S
C567 H557 0.930 . S
C567 C560 1.409 . S
C567 C566 1.362 . S
H568 C574 0.930 . S
H569 C577 0.930 . S
H570 C578 0.930 . S
H571 C579 0.930 . S
H572 C582 0.930 . S
H573 C583 0.930 . S
C574 H568 0.930 . S
C574 C575 1.355 1_545 S
C574 C576 1.415 . S
C575 C574 1.355 1_565 S
C575 C577 1.419 . S
C576 C574 1.415 . S
C576 C581 1.425 1_545 S
C576 C583 1.409 . S
C577 H569 0.930 . S
C577 C575 1.419 . S
C577 C578 1.362 . S
C578 H570 0.930 . S
C578 C577 1.362 . S
C578 C581 1.409 . S
C579 H571 0.930 . S
C579 C580 1.355 . S
C579 C581 1.415 . S
C580 C579 1.355 . S
C580 C582 1.419 1_565 S
C581 C576 1.425 1_565 S
C581 C578 1.409 . S
C581 C579 1.415 . S
C582 H572 0.930 . S
C582 C580 1.419 1_545 S
C582 C583 1.362 . S
C583 H573 0.930 . S
C583 C576 1.409 . S
C583 C582 1.362 . S
H584 C590 0.930 . S
H585 C593 0.930 . S
H586 C594 0.930 . S
H587 C595 0.930 . S
H588 C598 0.930 . S
H589 C599 0.930 . S
C590 H584 0.930 . S
C590 C591 1.355 . S
C590 C592 1.415 . S
C591 C590 1.355 . S
C591 C593 1.419 . S
C592 C590 1.415 . S
C592 C597 1.425 . S
C592 C599 1.409 . S
C593 H585 0.930 . S
C593 C591 1.419 . S
C593 C594 1.362 . S
C594 H586 0.930 . S
C594 C593 1.362 . S
C594 C597 1.409 . S
C595 H587 0.930 . S
C595 C596 1.355 . S
C595 C597 1.415 . S
C596 C595 1.355 . S
C596 C598 1.419 . S
C597 C592 1.425 . S
C597 C594 1.409 . S
C597 C595 1.415 . S
C598 H588 0.930 . S
C598 C596 1.419 . S
C598 C599 1.362 . S
C599 H589 0.930 . S
C599 C592 1.409 . S
C599 C598 1.362 . S
H600 C606 0.930 . S
H601 C609 0.930 . S
H602 C610 0.930 . S
H603 C611 0.930 . S
H604 C614 0.930 . S
H605 C615 0.930 . S
C606 H600 0.930 . S
C606 C607 1.355 . S
C606 C608 1.415 . S
C607 C606 1.355 . S
C607 C609 1.419 . S
C608 C606 1.415 . S
C608 C613 1.425 . S
C608 C615 1.409 . S
C609 H601 0.930 . S
C609 C607 1.419 . S
C609 C610 1.362 . S
C610 H602 0.930 . S
C610 C609 1.362 . S
C610 C613 1.409 . S
C611 H603 0.930 . S
C611 C612 1.355 . S
C611 C613 1.415 . S
C612 C611 1.355 . S
C612 C614 1.419 . S
C613 C608 1.425 . S
C613 C610 1.409 . S
C613 C611 1.415 . S
C614 H604 0.930 . S
C614 C612 1.419 . S
C614 C615 1.362 . S
C615 H605 0.930 . S
C615 C608 1.409 . S
C615 C614 1.362 . S
C239 C61 1.836 1_545 S
C244 C74 2.052 . S
C260 C114 2.094 . S
C255 C70 1.921 . S
C276 C154 2.104 . S
C271 C43 1.918 . S
C292 C194 2.083 1_455 S
C287 C52 1.883 . S
C308 C87 2.061 1_565 S
C303 C25 1.839 1_545 S
C319 C34 1.899 . S
C324 C127 2.092 . S
C335 C7 1.878 . S
C340 C167 2.082 . S
C351 C16 1.874 1_455 S
C356 C207 2.083 1_655 S
C372 C98 0.562 . S
C367 C50 0.604 1_455 S
C388 C138 0.671 . S
C383 C59 0.611 1_545 S
C404 C178 0.577 . S
C399 C67 0.612 . S
C415 C41 0.633 . S
C420 C218 0.685 . S
C431 C14 0.672 . S
C436 C81 0.700 . S
C452 C121 0.550 . S
C447 C23 0.517 1_545 S
C468 C161 0.656 . S
C463 C31 0.654 . S
C479 C5 0.521 . S
C484 C201 0.511 . S
C495 C49 2.174 1_455 S
C500 C75 2.436 . S
C511 C58 2.123 1_545 S
C516 C115 2.370 . S
C532 C155 2.368 . S
C527 C68 2.059 . S
C548 C195 2.411 . S
C543 C40 2.162 . S
C559 C13 2.147 . S
C564 C94 2.445 . S
C580 C134 2.369 . S
C575 C22 2.120 . S
C596 C174 2.345 . S
C591 C32 2.081 . S
C607 C4 2.163 . S
C612 C214 2.416 . S
