# Generated by pormake.
# Topology pyr, (3,6)-cn, num edge types: 1
# Building blocks:
#     Node 0, Type 0, BuildingBlock: BETDIP_clean_linker_0, # of connection points: 3
#     Node 1, Type 0, BuildingBlock: BETDIP_clean_linker_0, # of connection points: 3
#     Node 2, Type 0, BuildingBlock: BETDIP_clean_linker_0, # of connection points: 3
#     Node 3, Type 0, BuildingBlock: BETDIP_clean_linker_0, # of connection points: 3
#     Node 4, Type 0, BuildingBlock: BETDIP_clean_linker_0, # of connection points: 3
#     Node 5, Type 0, BuildingBlock: BETDIP_clean_linker_0, # of connection points: 3
#     Node 6, Type 0, BuildingBlock: BETDIP_clean_linker_0, # of connection points: 3
#     Node 7, Type 0, BuildingBlock: BETDIP_clean_linker_0, # of connection points: 3
#     Node 8, Type 1, BuildingBlock: VOLQOD_clean_sbu_1, # of connection points: 6
#     Node 9, Type 1, BuildingBlock: VOLQOD_clean_sbu_1, # of connection points: 6
#     Node 10, Type 1, BuildingBlock: VOLQOD_clean_sbu_1, # of connection points: 6
#     Node 11, Type 1, BuildingBlock: VOLQOD_clean_sbu_1, # of connection points: 6
#     Edge 12, Type (0, 1), BuildingBlock: AJUNOK_clean_linker_0, # of connection points: 2
#     Edge 13, Type (0, 1), BuildingBlock: AJUNOK_clean_linker_0, # of connection points: 2
#     Edge 14, Type (0, 1), BuildingBlock: AJUNOK_clean_linker_0, # of connection points: 2
#     Edge 15, Type (0, 1), BuildingBlock: AJUNOK_clean_linker_0, # of connection points: 2
#     Edge 16, Type (0, 1), BuildingBlock: AJUNOK_clean_linker_0, # of connection points: 2
#     Edge 17, Type (0, 1), BuildingBlock: AJUNOK_clean_linker_0, # of connection points: 2
#     Edge 18, Type (0, 1), BuildingBlock: AJUNOK_clean_linker_0, # of connection points: 2
#     Edge 19, Type (0, 1), BuildingBlock: AJUNOK_clean_linker_0, # of connection points: 2
#     Edge 20, Type (0, 1), BuildingBlock: AJUNOK_clean_linker_0, # of connection points: 2
#     Edge 21, Type (0, 1), BuildingBlock: AJUNOK_clean_linker_0, # of connection points: 2
#     Edge 22, Type (0, 1), BuildingBlock: AJUNOK_clean_linker_0, # of connection points: 2
#     Edge 23, Type (0, 1), BuildingBlock: AJUNOK_clean_linker_0, # of connection points: 2
#     Edge 24, Type (0, 1), BuildingBlock: AJUNOK_clean_linker_0, # of connection points: 2
#     Edge 25, Type (0, 1), BuildingBlock: AJUNOK_clean_linker_0, # of connection points: 2
#     Edge 26, Type (0, 1), BuildingBlock: AJUNOK_clean_linker_0, # of connection points: 2
#     Edge 27, Type (0, 1), BuildingBlock: AJUNOK_clean_linker_0, # of connection points: 2
#     Edge 28, Type (0, 1), BuildingBlock: AJUNOK_clean_linker_0, # of connection points: 2
#     Edge 29, Type (0, 1), BuildingBlock: AJUNOK_clean_linker_0, # of connection points: 2
#     Edge 30, Type (0, 1), BuildingBlock: AJUNOK_clean_linker_0, # of connection points: 2
#     Edge 31, Type (0, 1), BuildingBlock: AJUNOK_clean_linker_0, # of connection points: 2
#     Edge 32, Type (0, 1), BuildingBlock: AJUNOK_clean_linker_0, # of connection points: 2
#     Edge 33, Type (0, 1), BuildingBlock: AJUNOK_clean_linker_0, # of connection points: 2
#     Edge 34, Type (0, 1), BuildingBlock: AJUNOK_clean_linker_0, # of connection points: 2
#     Edge 35, Type (0, 1), BuildingBlock: AJUNOK_clean_linker_0, # of connection points: 2
# Relax obj value: 0.111
# Max RMSD: 0.182
# Mean RMSD: 0.148
data_MOF--net-pry--node1-VOLQOD_clean_sbu_1--node2-BETDIP_clean_linker_0--edge1-AJUNOK_clean_linker_0
_symmetry_space_group_name_H-M    P1
_symmetry_Int_Tables_number       1
_symmetry_cell_setting            triclinic
loop_
_symmetry_equiv_pos_as_xyz
'x, y, z'
_cell_length_a     27.447424
_cell_length_b     26.909676
_cell_length_c     28.590562
_cell_angle_alpha  93.729935
_cell_angle_beta   85.242221
_cell_angle_gamma 96.76389
loop_
_atom_site_label
_atom_site_type_symbol
_atom_site_fract_x
_atom_site_fract_y
_atom_site_fract_z
_atom_type_partial_charge
H0 H 0.06393 0.14173 0.20989 0.0
H1 H 0.16784 0.14092 0.08883 0.0
H2 H 0.19045 0.06129 0.20921 0.0
H3 H 0.11443 0.17626 0.05394 0.0
C4 C 0.09206 0.19582 0.08046 0.0
C5 C 0.09716 0.12939 0.19202 0.0
C6 C 0.12495 0.09894 0.21477 0.0
C7 C 0.11238 0.14529 0.14684 0.0
C8 C 0.15591 0.12975 0.12388 0.0
C9 C 0.18477 0.09983 0.14618 0.0
C10 C 0.16872 0.08443 0.19162 0.0
N11 N 0.08461 0.17922 0.1271 0.0
H12 H 0.36806 0.94519 0.70565 0.0
H13 H 0.38396 0.83726 0.59015 0.0
H14 H 0.46053 0.82783 0.71406 0.0
H15 H 0.3063 0.85225 0.58163 0.0
C16 C 0.30504 0.89196 0.59046 0.0
C17 C 0.38522 0.91327 0.68982 0.0
C18 C 0.41781 0.89045 0.71467 0.0
C19 C 0.37202 0.89383 0.64561 0.0
C20 C 0.39257 0.85141 0.62515 0.0
C21 C 0.4244 0.82689 0.64957 0.0
C22 C 0.43682 0.84676 0.69447 0.0
N23 N 0.3367 0.91699 0.62352 0.0
H24 H 0.68841 0.45215 0.88129 0.0
H25 H 0.55808 0.3468 0.88866 0.0
H26 H 0.67083 0.33791 0.98184 0.0
H27 H 0.55567 0.36145 0.81527 0.0
C28 C 0.57153 0.39968 0.80982 0.0
C29 C 0.6665 0.42116 0.89807 0.0
C30 C 0.68401 0.39921 0.93591 0.0
C31 C 0.62181 0.40193 0.8799 0.0
C32 C 0.59368 0.36089 0.90064 0.0
C33 C 0.61143 0.33697 0.93683 0.0
C34 C 0.65649 0.35656 0.9544 0.0
N35 N 0.60702 0.42367 0.83997 0.0
H36 H 0.8613 0.52956 0.40813 0.0
H37 H 0.97738 0.65173 0.39766 0.0
H38 H 0.84389 0.67131 0.48209 0.0
H39 H 0.01922 0.59704 0.35287 0.0
C40 C 0.99021 0.57202 0.33735 0.0
C41 C 0.87629 0.56733 0.4187 0.0
C42 C 0.84727 0.5982 0.44755 0.0
C43 C 0.92306 0.586 0.40017 0.0
C44 C 0.94178 0.63582 0.41224 0.0
C45 C 0.91376 0.66597 0.44304 0.0
C46 C 0.86664 0.64698 0.46056 0.0
N47 N 0.94717 0.55548 0.36545 0.0
H48 H 0.82584 0.89532 0.96326 0.0
H49 H 0.94291 0.89529 0.85411 0.0
H50 H 0.81907 0.97647 0.83979 0.0
H51 H 0.98525 0.86825 0.9154 0.0
C52 C 0.95527 0.84239 0.92991 0.0
C53 C 0.84252 0.90837 0.92988 0.0
C54 C 0.81792 0.9389 0.90424 0.0
C55 C 0.88747 0.89272 0.91236 0.0
C56 C 0.90853 0.90814 0.86841 0.0
C57 C 0.88395 0.93819 0.84165 0.0
C58 C 0.83902 0.95439 0.86039 0.0
N59 N 0.90707 0.85683 0.93744 0.0
H60 H 0.63639 0.06582 0.33739 0.0
H61 H 0.63146 0.17839 0.4511 0.0
H62 H 0.54299 0.18277 0.33446 0.0
H63 H 0.68243 0.13571 0.48373 0.0
C64 C 0.69713 0.10837 0.45853 0.0
C65 C 0.62139 0.09874 0.35389 0.0
C66 C 0.58779 0.1219 0.33092 0.0
C67 C 0.63721 0.11821 0.39724 0.0
C68 C 0.61842 0.16152 0.41846 0.0
C69 C 0.58401 0.18487 0.39609 0.0
C70 C 0.56866 0.16452 0.35243 0.0
N71 N 0.67436 0.09457 0.41607 0.0
H72 H 0.33525 0.54427 0.13245 0.0
H73 H 0.45673 0.6588 0.15162 0.0
H74 H 0.34759 0.67972 0.05826 0.0
H75 H 0.49284 0.5896 0.17634 0.0
C76 C 0.46044 0.57678 0.19873 0.0
C77 C 0.35575 0.57954 0.12286 0.0
C78 C 0.33672 0.60955 0.09206 0.0
C79 C 0.39953 0.59643 0.14394 0.0
C80 C 0.42448 0.64376 0.13375 0.0
C81 C 0.40548 0.67368 0.10305 0.0
C82 C 0.36243 0.65602 0.08156 0.0
N83 N 0.41387 0.56824 0.17969 0.0
H84 H 0.03585 0.37518 0.62775 0.0
H85 H 0.15614 0.4899 0.60157 0.0
H86 H 0.16333 0.34227 0.53824 0.0
H87 H 0.12996 0.52246 0.66921 0.0
C88 C 0.09436 0.50409 0.68142 0.0
C89 C 0.0706 0.3875 0.60888 0.0
C90 C 0.0964 0.35289 0.581 0.0
C91 C 0.09184 0.43693 0.61681 0.0
C92 C 0.13859 0.45225 0.59515 0.0
C93 C 0.16457 0.41789 0.56739 0.0
C94 C 0.14281 0.36883 0.55944 0.0
N95 N 0.06835 0.46764 0.65182 0.0
O96 O 0.99464 0.11923 0.57349 0.0
Zn97 Zn 0.96227 0.0489 0.56673 0.0
O98 O 0.00468 0.0082 0.52545 0.0
Zn99 Zn 0.97248 0.98545 0.46751 0.0
Zn100 Zn 0.06878 0.0457 0.5092 0.0
Zn101 Zn 0.0157 0.95161 0.56002 0.0
O102 O 0.96209 0.90922 0.46115 0.0
O103 O 0.98838 0.88884 0.52797 0.0
O104 O 0.89864 0.05331 0.53824 0.0
O105 O 0.90573 0.01146 0.46903 0.0
O106 O 0.01324 0.01169 0.40957 0.0
O107 O 0.07986 0.05251 0.4389 0.0
O108 O 0.12602 0.01323 0.53027 0.0
O109 O 0.94633 0.0222 0.63195 0.0
O110 O 0.08708 0.94577 0.5631 0.0
O111 O 0.98386 0.95336 0.62566 0.0
C112 C 0.03749 0.13977 0.56112 0.0
C113 C 0.9693 0.87646 0.48939 0.0
C114 C 0.05505 0.03772 0.40384 0.0
C115 C 0.88134 0.03756 0.49934 0.0
C116 C 0.12668 0.97256 0.55055 0.0
C117 C 0.95739 0.98306 0.64955 0.0
O118 O 0.06973 0.11544 0.53833 0.0
O119 O 0.49216 0.11473 0.97517 0.0
Zn120 Zn 0.45772 0.04528 0.98649 0.0
O121 O 0.49719 0.00885 0.0241 0.0
Zn122 Zn 0.51429 0.94847 0.98854 0.0
Zn123 Zn 0.55822 0.05015 0.03857 0.0
Zn124 Zn 0.45989 0.99007 0.0829 0.0
O125 O 0.49413 0.88735 0.02439 0.0
O126 O 0.45285 0.91522 0.08892 0.0
O127 O 0.44731 0.00835 0.92263 0.0
O128 O 0.4827 0.93891 0.92753 0.0
O129 O 0.5866 0.95128 0.97236 0.0
O130 O 0.61895 0.02259 0.00624 0.0
O131 O 0.56471 0.05853 0.1082 0.0
O132 O 0.39153 0.05461 0.0222 0.0
O133 O 0.49357 0.02252 0.13926 0.0
O134 O 0.3924 0.01284 0.08675 0.0
C135 C 0.5303 0.13907 0.99155 0.0
C136 C 0.4696 0.87953 0.0634 0.0
C137 C 0.62374 0.98228 0.98121 0.0
C138 C 0.45883 0.96604 0.9051 0.0
C139 C 0.53555 0.04731 0.14388 0.0
C140 C 0.37093 0.03908 0.06109 0.0
O141 O 0.55756 0.11906 0.017 0.0
O142 O 0.54915 0.51596 0.61824 0.0
Zn143 Zn 0.54776 0.55142 0.55832 0.0
O144 O 0.50665 0.5096 0.51422 0.0
Zn145 Zn 0.54518 0.4906 0.45728 0.0
Zn146 Zn 0.47735 0.44758 0.5427 0.0
Zn147 Zn 0.45633 0.54868 0.49655 0.0
O148 O 0.5217 0.51508 0.39945 0.0
O149 O 0.46093 0.55884 0.42693 0.0
O150 O 0.61793 0.56331 0.53002 0.0
O151 O 0.61399 0.51985 0.46144 0.0
O152 O 0.54635 0.41642 0.44729 0.0
O153 O 0.49986 0.38484 0.50759 0.0
O154 O 0.40335 0.44284 0.54385 0.0
O155 O 0.52155 0.61861 0.57638 0.0
O156 O 0.39031 0.51228 0.51131 0.0
O157 O 0.45756 0.61525 0.53325 0.0
C158 C 0.52692 0.47532 0.63365 0.0
C159 C 0.48815 0.54202 0.39273 0.0
C160 C 0.5274 0.37892 0.47 0.0
C161 C 0.63827 0.54762 0.49099 0.0
C162 C 0.37419 0.47129 0.52974 0.0
C163 C 0.48492 0.63805 0.56359 0.0
O164 O 0.49756 0.44674 0.60876 0.0
O165 O 0.96837 0.50076 0.11689 0.0
Zn166 Zn 0.96828 0.47055 0.04991 0.0
O167 O 0.01036 0.51499 0.0077 0.0
Zn168 Zn 0.97177 0.5342 0.95932 0.0
Zn169 Zn 0.03521 0.57679 0.04099 0.0
Zn170 Zn 0.06663 0.48111 0.98024 0.0
O171 O 0.00279 0.51601 0.89602 0.0
O172 O 0.07132 0.48425 0.90956 0.0
O173 O 0.89847 0.45618 0.02843 0.0
O174 O 0.90294 0.50123 0.96532 0.0
O175 O 0.96796 0.60837 0.96067 0.0
O176 O 0.01755 0.63971 0.01519 0.0
O177 O 0.10763 0.58275 0.04134 0.0
O178 O 0.99601 0.40438 0.05118 0.0
O179 O 0.13112 0.51421 0.0037 0.0
O180 O 0.06086 0.40915 0.99922 0.0
C181 C 0.98866 0.54216 0.13439 0.0
C182 C 0.0427 0.49845 0.88142 0.0
C183 C 0.98931 0.64568 0.98344 0.0
C184 C 0.87878 0.47173 0.99402 0.0
C185 C 0.14114 0.55544 0.02725 0.0
C186 C 0.03209 0.3849 0.0293 0.0
O187 O 0.0129 0.57454 0.10855 0.0
C188 C 0.06034 0.05954 0.27274 0.0
C189 C 0.1084 0.08289 0.26301 0.0
C190 C 0.04378 0.04438 0.318 0.0
C191 C 0.07441 0.05246 0.35567 0.0
H192 H 0.03538 0.05264 0.24501 0.0
H193 H 0.00638 0.0267 0.32351 0.0
S194 S 0.20346 0.1135 0.34852 0.0
N195 N 0.18628 0.11418 0.29461 0.0
N196 N 0.1556 0.08596 0.37956 0.0
C197 C 0.12269 0.07596 0.34624 0.0
C198 C 0.13956 0.09103 0.30003 0.0
C199 C 0.4284 0.87814 0.79953 0.0
C200 C 0.42928 0.91079 0.76287 0.0
C201 C 0.43725 0.89647 0.84548 0.0
C202 C 0.44654 0.94823 0.85687 0.0
H203 H 0.42017 0.83807 0.79289 0.0
H204 H 0.43646 0.86981 0.87242 0.0
S205 S 0.45652 0.04949 0.77348 0.0
N206 N 0.44352 0.9975 0.74079 0.0
N207 N 0.45817 0.0318 0.8275 0.0
C208 C 0.44763 0.98135 0.82071 0.0
C209 C 0.43953 0.96268 0.77369 0.0
C210 C 0.5272 0.39393 0.73724 0.0
C211 C 0.55964 0.42233 0.76683 0.0
C212 C 0.51613 0.41192 0.69501 0.0
C213 C 0.5371 0.45923 0.68038 0.0
H214 H 0.51064 0.35694 0.74647 0.0
H215 H 0.4915 0.38791 0.67333 0.0
S216 S 0.62232 0.54994 0.74682 0.0
N217 N 0.61111 0.50122 0.77988 0.0
N218 N 0.59048 0.53528 0.70038 0.0
C219 C 0.56877 0.48873 0.71034 0.0
C220 C 0.58001 0.47026 0.75356 0.0
C221 C 0.95462 0.53003 0.2649 0.0
C222 C 0.99115 0.56341 0.28572 0.0
C223 C 0.95366 0.52367 0.21593 0.0
C224 C 0.98882 0.55091 0.18605 0.0
H225 H 0.92642 0.5086 0.28644 0.0
H226 H 0.92502 0.49742 0.20144 0.0
S227 S 0.09317 0.6418 0.22352 0.0
N228 N 0.0639 0.62294 0.27314 0.0
N229 N 0.06233 0.61153 0.1812 0.0
C230 C 0.02577 0.58422 0.20662 0.0
C231 C 0.02692 0.59023 0.25642 0.0
C232 C 0.24362 0.03547 0.12474 0.0
C233 C 0.23178 0.08475 0.12224 0.0
C234 C 0.28819 0.02072 0.10396 0.0
C235 C 0.32232 0.05427 0.07894 0.0
H236 H 0.21829 0.00798 0.14304 0.0
H237 H 0.29605 0.98269 0.1076 0.0
S238 S 0.31093 0.18806 0.06376 0.0
N239 N 0.25972 0.16783 0.09459 0.0
N240 N 0.34214 0.13914 0.05367 0.0
C241 C 0.31088 0.10336 0.07549 0.0
C242 C 0.266 0.11881 0.09754 0.0
C243 C 0.21977 0.88285 0.56584 0.0
C244 C 0.26169 0.91467 0.57783 0.0
C245 C 0.17656 0.90217 0.55684 0.0
C246 C 0.17391 0.95417 0.55839 0.0
H247 H 0.2199 0.84252 0.56461 0.0
H248 H 0.1449 0.87603 0.54858 0.0
S249 S 0.27464 0.05374 0.58518 0.0
N250 N 0.29873 0.00087 0.5892 0.0
N251 N 0.21759 0.03732 0.57101 0.0
C252 C 0.21612 0.98658 0.56875 0.0
C253 C 0.25999 0.9668 0.57886 0.0
C254 C 0.76518 0.38522 0.9651 0.0
C255 C 0.73231 0.41876 0.95441 0.0
C256 C 0.81165 0.40262 0.98066 0.0
C257 C 0.82731 0.45411 0.98517 0.0
H258 H 0.7557 0.34513 0.96002 0.0
H259 H 0.83632 0.37559 0.98701 0.0
S260 S 0.75445 0.55767 0.96665 0.0
N261 N 0.71764 0.50625 0.95426 0.0
N262 N 0.80605 0.53858 0.9808 0.0
C263 C 0.7947 0.48806 0.9759 0.0
C264 C 0.747 0.4705 0.96113 0.0
C265 C 0.77368 0.58738 0.50508 0.0
C266 C 0.79457 0.58252 0.45867 0.0
C267 C 0.72291 0.5765 0.51539 0.0
C268 C 0.69148 0.5606 0.47954 0.0
H269 H 0.79677 0.59983 0.5335 0.0
H270 H 0.70831 0.58021 0.55167 0.0
S271 S 0.72823 0.54634 0.35168 0.0
N272 N 0.78021 0.56379 0.37637 0.0
N273 N 0.68496 0.54304 0.39537 0.0
C274 C 0.71212 0.55627 0.43285 0.0
C275 C 0.76364 0.56727 0.42251 0.0
C276 C 0.09121 0.26338 0.02498 0.0
C277 C 0.07289 0.24211 0.06747 0.0
C278 C 0.07694 0.30879 0.0124 0.0
C279 C 0.04317 0.3346 0.04155 0.0
H280 H 0.11785 0.24536 1.00167 0.0
H281 H 0.09307 0.32404 0.97977 0.0
S282 S 0.98179 0.29302 0.15555 0.0
N283 N 0.01746 0.24909 0.13791 0.0
N284 N 0.99022 0.33403 0.11433 0.0
C285 C 0.02325 0.31277 0.08354 0.0
C286 C 0.03822 0.2667 0.09653 0.0
C287 C 0.56708 0.25181 0.91936 0.0
C288 C 0.58522 0.28874 0.95286 0.0
C289 C 0.54686 0.20406 0.93251 0.0
C290 C 0.54502 0.19124 0.97943 0.0
H291 H 0.57029 0.25907 0.88235 0.0
H292 H 0.53489 0.17627 0.90546 0.0
S293 S 0.58094 0.27545 0.0816 0.0
N294 N 0.59413 0.31054 0.03595 0.0
N295 N 0.55856 0.21974 0.06012 0.0
C296 C 0.56104 0.22806 0.01356 0.0
C297 C 0.58058 0.27706 1.0004 0.0
C298 C 0.94184 0.753 0.41941 0.0
C299 C 0.93156 0.71868 0.45489 0.0
C300 C 0.95348 0.80429 0.4307 0.0
C301 C 0.95576 0.82259 0.4778 0.0
H302 H 0.93958 0.74026 0.38283 0.0
H303 H 0.96097 0.82966 0.40241 0.0
S304 S 0.93234 0.74695 0.58333 0.0
N305 N 0.92477 0.70575 0.53846 0.0
N306 N 0.94673 0.80183 0.56011 0.0
C307 C 0.9461 0.7882 0.51349 0.0
C308 C 0.93397 0.73629 0.50192 0.0
C309 C 0.40813 0.74285 0.60698 0.0
C310 C 0.44166 0.77897 0.62874 0.0
C311 C 0.42276 0.69799 0.58589 0.0
C312 C 0.47153 0.68664 0.58602 0.0
H313 H 0.3699 0.74906 0.60648 0.0
H314 H 0.39519 0.67164 0.56987 0.0
S315 S 0.57437 0.76877 0.63715 0.0
N316 N 0.52651 0.80081 0.6479 0.0
N317 N 0.55372 0.71564 0.60945 0.0
C318 C 0.50553 0.7221 0.60797 0.0
C319 C 0.49069 0.76832 0.62907 0.0
C320 C 0.90628 0.99817 0.77723 0.0
C321 C 0.90306 0.94919 0.79267 0.0
C322 C 0.92367 0.00891 0.73092 0.0
C323 C 0.93865 0.97108 0.69833 0.0
H324 H 0.89565 0.02851 0.80125 0.0
H325 H 0.92588 0.04724 0.72078 0.0
S326 S 0.93262 0.8357 0.71996 0.0
N327 N 0.91275 0.8619 0.77067 0.0
N328 N 0.94614 0.88197 0.68426 0.0
C329 C 0.93477 0.92176 0.71322 0.0
C330 C 0.91683 0.91086 0.76017 0.0
C331 C 0.52584 0.08827 0.27391 0.0
C332 C 0.57507 0.10299 0.28317 0.0
C333 C 0.51348 0.06937 0.22899 0.0
C334 C 0.54987 0.0653 0.19155 0.0
H335 H 0.49678 0.09095 0.3017 0.0
H336 H 0.47502 0.0586 0.22346 0.0
S337 S 0.68431 0.10007 0.19802 0.0
N338 N 0.66035 0.11294 0.2517 0.0
N339 N 0.63743 0.07785 0.16725 0.0
C340 C 0.5993 0.08026 0.20054 0.0
C341 C 0.61181 0.09898 0.24633 0.0
C342 C 0.51233 0.5606 0.26212 0.0
C343 C 0.46581 0.56773 0.24843 0.0
C344 C 0.51922 0.55247 0.30891 0.0
C345 C 0.48003 0.55238 0.34395 0.0
H346 H 0.5436 0.5608 0.23634 0.0
H347 H 0.55567 0.54657 0.31773 0.0
S348 S 0.35107 0.5711 0.32658 0.0
N349 N 0.37992 0.57513 0.27372 0.0
N350 N 0.39306 0.56069 0.36178 0.0
C351 C 0.43341 0.56033 0.33084 0.0
C352 C 0.42621 0.56775 0.28302 0.0
C353 C 0.03278 0.49178 0.75003 0.0
C354 C 0.08171 0.50426 0.73248 0.0
C355 C 0.02058 0.48933 0.79839 0.0
C356 C 0.05708 0.49802 0.83064 0.0
H357 H 0.00367 0.4842 0.7263 0.0
H358 H 0.98231 0.48031 0.81061 0.0
S359 S 0.19069 0.53177 0.80216 0.0
N360 N 0.1668 0.52577 0.75066 0.0
N361 N 0.14406 0.5199 0.84169 0.0
C362 C 0.10621 0.51007 0.81345 0.0
C363 C 0.11846 0.51366 0.76428 0.0
C364 C 0.75801 -0.00044 0.93341 0.0
C365 C 0.76794 0.95003 0.92183 0.0
C366 C 0.71143 0.00984 0.95329 0.0
C367 C 0.67314 0.97092 0.96146 0.0
H368 H 0.78667 0.03037 0.9279 0.0
H369 H 0.70526 0.04851 0.96187 0.0
S370 S 0.68105 0.83477 0.93621 0.0
N371 N 0.73622 0.86189 0.91926 0.0
N372 N 0.64883 0.88081 0.95616 0.0
C373 C 0.68279 0.92125 0.94939 0.0
C374 C 0.73015 0.91091 0.92967 0.0
C375 C 0.76536 0.10364 0.5097 0.0
C376 C 0.74256 0.08706 0.46844 0.0
C377 C 0.80951 0.08665 0.5197 0.0
C378 C 0.83293 0.05229 0.48875 0.0
H379 H 0.74929 0.13064 0.53429 0.0
H380 H 0.82574 0.1014 0.55172 0.0
S381 S 0.78687 0.99497 0.37672 0.0
N382 N 0.74565 0.03255 0.397 0.0
N383 N 0.82854 0.00072 0.41571 0.0
C384 C 0.80989 0.03448 0.44771 0.0
C385 C 0.76478 0.05179 0.43756 0.0
C386 C 0.27531 0.55032 0.04975 0.0
C387 C 0.28712 0.59589 0.07531 0.0
C388 C 0.22842 0.53795 0.03313 0.0
C389 C 0.19169 0.57062 0.04188 0.0
H390 H 0.30258 0.52429 0.04233 0.0
H391 H 0.22078 0.50225 0.01386 0.0
S392 S 0.20467 0.69407 0.10911 0.0
N393 N 0.25862 0.67306 0.10999 0.0
N394 N 0.17107 0.65075 0.07857 0.0
C395 C 0.20347 0.61643 0.06761 0.0
C396 C 0.25098 0.62878 0.08442 0.0
C397 C 0.25136 0.40051 0.56776 0.0
C398 C 0.2173 0.43054 0.55357 0.0
C399 C 0.30191 0.41352 0.55911 0.0
C400 C 0.32036 0.45711 0.53591 0.0
H401 H 0.23885 0.3674 0.58701 0.0
H402 H 0.32659 0.38961 0.5716 0.0
S403 S 0.24548 0.54617 0.48844 0.0
N404 N 0.2046 0.5039 0.51316 0.0
N405 N 0.29982 0.52892 0.49644 0.0
C406 C 0.28637 0.48674 0.52025 0.0
C407 C 0.2348 0.47337 0.52929 0.0
C408 C 0.92668 0.75329 0.94653 0.0
C409 C 0.96479 0.79311 0.94496 0.0
C410 C 0.935 0.70579 0.95923 0.0
C411 C 0.9814 0.6967 0.97194 0.0
H412 H 0.89032 0.75845 0.93693 0.0
H413 H 0.90478 0.67599 0.95929 0.0
S414 S 0.09323 0.78858 0.9739 0.0
N415 N 0.05061 0.82044 0.95673 0.0
N416 N 0.06597 0.73142 0.98227 0.0
C417 C 0.01965 0.73639 0.97123 0.0
C418 C 0.01143 0.78451 0.95718 0.0
C419 C 0.39887 0.76464 0.11584 0.0
C420 C 0.42634 0.72602 0.09749 0.0
C421 C 0.41443 0.8146 0.10644 0.0
C422 C 0.45755 0.82744 0.07763 0.0
H423 H 0.36439 0.75591 0.13658 0.0
H424 H 0.39133 0.843 0.12016 0.0
S425 S 0.54417 0.73975 0.02422 0.0
N426 N 0.49983 0.70344 0.05207 0.0
N427 N 0.52928 0.79749 0.03354 0.0
C428 C 0.48631 0.7891 0.06055 0.0
C429 C 0.47065 0.73828 0.07073 0.0
C430 C 0.11174 0.26403 0.58548 0.0
C431 C 0.07862 0.29877 0.57906 0.0
C432 C 0.09764 0.21255 0.58082 0.0
C433 C 0.04959 0.19388 0.5707 0.0
H434 H 0.14918 0.2767 0.59367 0.0
H435 H 0.1247 0.18717 0.5848 0.0
S436 S 0.94828 0.26858 0.5521 0.0
N437 N 0.99542 0.31079 0.56261 0.0
N438 N 0.96824 0.21347 0.55555 0.0
C439 C 0.01539 0.22793 0.56605 0.0
C440 C 0.03005 0.28056 0.56993 0.0
C441 C 0.57224 0.27442 0.38762 0.0
C442 C 0.56739 0.23307 0.41592 0.0
C443 C 0.55856 0.32092 0.40537 0.0
C444 C 0.53896 0.32807 0.45215 0.0
H445 H 0.58771 0.2711 0.35158 0.0
H446 H 0.56368 0.35161 0.38209 0.0
S447 S 0.51705 0.2308 0.54029 0.0
N448 N 0.54052 0.20152 0.4926 0.0
N449 N 0.51447 0.28896 0.52621 0.0
C450 C 0.53303 0.28665 0.48066 0.0
C451 C 0.54746 0.23925 0.46256 0.0
loop_
_geom_bond_atom_site_label_1
_geom_bond_atom_site_label_2
_geom_bond_distance
_geom_bond_site_symmetry_2
_ccdc_geom_bond_type
H0 C5 0.930 . S
H1 C8 0.930 . S
H2 C10 0.930 . S
H3 C4 1.016 . S
C4 H3 1.016 . S
C4 N11 1.286 . S
C5 H0 0.930 . S
C5 C6 1.397 . S
C5 C7 1.361 . S
C6 C5 1.397 . S
C6 C10 1.390 . S
C7 C5 1.361 . S
C7 C8 1.393 . S
C7 N11 1.413 . S
C8 H1 0.930 . S
C8 C7 1.393 . S
C8 C9 1.399 . S
C9 C8 1.399 . S
C9 C10 1.381 . S
C10 H2 0.930 . S
C10 C6 1.390 . S
C10 C9 1.381 . S
N11 C4 1.286 . S
N11 C7 1.413 . S
H12 C17 0.930 . S
H13 C20 0.930 . S
H14 C22 0.930 . S
H15 C16 1.016 . S
C16 H15 1.016 . S
C16 N23 1.286 . S
C17 H12 0.930 . S
C17 C18 1.397 . S
C17 C19 1.361 . S
C18 C17 1.397 . S
C18 C22 1.390 . S
C19 C17 1.361 . S
C19 C20 1.393 . S
C19 N23 1.413 . S
C20 H13 0.930 . S
C20 C19 1.393 . S
C20 C21 1.399 . S
C21 C20 1.399 . S
C21 C22 1.381 . S
C22 H14 0.930 . S
C22 C18 1.390 . S
C22 C21 1.381 . S
N23 C16 1.286 . S
N23 C19 1.413 . S
H24 C29 0.930 . S
H25 C32 0.930 . S
H26 C34 0.930 . S
H27 C28 1.016 . S
C28 H27 1.016 . S
C28 N35 1.286 . S
C29 H24 0.930 . S
C29 C30 1.397 . S
C29 C31 1.361 . S
C30 C29 1.397 . S
C30 C34 1.390 . S
C31 C29 1.361 . S
C31 C32 1.393 . S
C31 N35 1.413 . S
C32 H25 0.930 . S
C32 C31 1.393 . S
C32 C33 1.399 . S
C33 C32 1.399 . S
C33 C34 1.381 . S
C34 H26 0.930 . S
C34 C30 1.390 . S
C34 C33 1.381 . S
N35 C28 1.286 . S
N35 C31 1.413 . S
H36 C41 0.930 . S
H37 C44 0.930 . S
H38 C46 0.930 . S
H39 C40 1.016 . S
C40 H39 1.016 . S
C40 N47 1.286 . S
C41 H36 0.930 . S
C41 C42 1.397 . S
C41 C43 1.361 . S
C42 C41 1.397 . S
C42 C46 1.390 . S
C43 C41 1.361 . S
C43 C44 1.393 . S
C43 N47 1.413 . S
C44 H37 0.930 . S
C44 C43 1.393 . S
C44 C45 1.399 . S
C45 C44 1.399 . S
C45 C46 1.381 . S
C46 H38 0.930 . S
C46 C42 1.390 . S
C46 C45 1.381 . S
N47 C40 1.286 . S
N47 C43 1.413 . S
H48 C53 0.930 . S
H49 C56 0.930 . S
H50 C58 0.930 1_545 S
H51 C52 1.016 . S
C52 H51 1.016 . S
C52 N59 1.286 . S
C53 H48 0.930 . S
C53 C54 1.397 . S
C53 C55 1.361 . S
C54 C53 1.397 . S
C54 C58 1.390 . S
C55 C53 1.361 . S
C55 C56 1.393 . S
C55 N59 1.413 . S
C56 H49 0.930 . S
C56 C55 1.393 . S
C56 C57 1.399 . S
C57 C56 1.399 . S
C57 C58 1.381 . S
C58 H50 0.930 1_565 S
C58 C54 1.390 . S
C58 C57 1.381 . S
N59 C52 1.286 . S
N59 C55 1.413 . S
H60 C65 0.930 . S
H61 C68 0.930 . S
H62 C70 0.930 . S
H63 C64 1.016 . S
C64 H63 1.016 . S
C64 N71 1.286 . S
C65 H60 0.930 . S
C65 C66 1.397 . S
C65 C67 1.361 . S
C66 C65 1.397 . S
C66 C70 1.390 . S
C67 C65 1.361 . S
C67 C68 1.393 . S
C67 N71 1.413 . S
C68 H61 0.930 . S
C68 C67 1.393 . S
C68 C69 1.399 . S
C69 C68 1.399 . S
C69 C70 1.381 . S
C70 H62 0.930 . S
C70 C66 1.390 . S
C70 C69 1.381 . S
N71 C64 1.286 . S
N71 C67 1.413 . S
H72 C77 0.930 . S
H73 C80 0.930 . S
H74 C82 0.930 . S
H75 C76 1.016 . S
C76 H75 1.016 . S
C76 N83 1.286 . S
C77 H72 0.930 . S
C77 C78 1.397 . S
C77 C79 1.361 . S
C78 C77 1.397 . S
C78 C82 1.390 . S
C79 C77 1.361 . S
C79 C80 1.393 . S
C79 N83 1.413 . S
C80 H73 0.930 . S
C80 C79 1.393 . S
C80 C81 1.399 . S
C81 C80 1.399 . S
C81 C82 1.381 . S
C82 H74 0.930 . S
C82 C78 1.390 . S
C82 C81 1.381 . S
N83 C76 1.286 . S
N83 C79 1.413 . S
H84 C89 0.930 . S
H85 C92 0.930 . S
H86 C94 0.930 . S
H87 C88 1.016 . S
C88 H87 1.016 . S
C88 N95 1.286 . S
C89 H84 0.930 . S
C89 C90 1.397 . S
C89 C91 1.361 . S
C90 C89 1.397 . S
C90 C94 1.390 . S
C91 C89 1.361 . S
C91 C92 1.393 . S
C91 N95 1.413 . S
C92 H85 0.930 . S
C92 C91 1.393 . S
C92 C93 1.399 . S
C93 C92 1.399 . S
C93 C94 1.381 . S
C94 H86 0.930 . S
C94 C90 1.390 . S
C94 C93 1.381 . S
N95 C88 1.286 . S
N95 C91 1.413 . S
O96 Zn97 1.953 . S
O96 C112 1.225 1_655 S
Zn97 O96 1.953 . S
Zn97 O98 1.949 1_655 S
Zn97 O104 1.919 . S
Zn97 O109 1.924 . S
O98 Zn97 1.949 1_455 S
O98 Zn99 1.923 1_445 S
O98 Zn100 1.950 . S
O98 Zn101 1.945 1_545 S
Zn99 O98 1.923 1_665 S
Zn99 O102 1.933 . S
Zn99 O105 1.941 1_565 S
Zn99 O106 1.965 1_665 S
Zn100 O98 1.950 . S
Zn100 O107 1.938 . S
Zn100 O108 1.906 1_545 S
Zn100 O118 1.953 . S
Zn101 O98 1.945 1_565 S
Zn101 O103 1.932 1_455 S
Zn101 O110 1.977 . S
Zn101 O111 1.910 1_455 S
O102 Zn99 1.933 . S
O102 C113 1.226 . S
O103 Zn101 1.932 1_655 S
O103 C113 1.307 . S
O104 Zn97 1.919 . S
O104 C115 1.253 . S
O105 Zn99 1.941 1_545 S
O105 C115 1.283 . S
O106 Zn99 1.965 1_445 S
O106 C114 1.303 . S
O107 Zn100 1.938 . S
O107 C114 1.247 . S
O108 Zn100 1.906 1_565 S
O108 C116 1.304 . S
O109 Zn97 1.924 . S
O109 C117 1.311 1_545 S
O110 Zn101 1.977 . S
O110 C116 1.272 . S
O111 Zn101 1.910 1_655 S
O111 C117 1.231 . S
C112 O96 1.225 1_455 S
C112 O118 1.298 . S
C113 O102 1.226 . S
C113 O103 1.307 . S
C114 O106 1.303 . S
C114 O107 1.247 . S
C115 O104 1.253 . S
C115 O105 1.283 . S
C116 O108 1.304 . S
C116 O110 1.272 . S
C117 O109 1.311 1_565 S
C117 O111 1.231 . S
O118 Zn100 1.953 . S
O118 C112 1.298 . S
O119 Zn120 1.953 . S
O119 C135 1.225 . S
Zn120 O119 1.953 . S
Zn120 O121 1.949 1_556 S
Zn120 O127 1.919 . S
Zn120 O132 1.924 1_556 S
O121 Zn120 1.949 1_554 S
O121 Zn122 1.923 1_544 S
O121 Zn123 1.950 . S
O121 Zn124 1.945 1_545 S
Zn122 O121 1.923 1_566 S
Zn122 O125 1.933 1_556 S
Zn122 O128 1.941 . S
Zn122 O129 1.965 . S
Zn123 O121 1.950 . S
Zn123 O130 1.938 . S
Zn123 O131 1.906 . S
Zn123 O141 1.953 . S
Zn124 O121 1.945 1_565 S
Zn124 O126 1.932 . S
Zn124 O133 1.977 1_565 S
Zn124 O134 1.910 1_565 S
O125 Zn122 1.933 1_554 S
O125 C136 1.226 . S
O126 Zn124 1.932 . S
O126 C136 1.307 . S
O127 Zn120 1.919 . S
O127 C138 1.253 1_545 S
O128 Zn122 1.941 . S
O128 C138 1.283 . S
O129 Zn122 1.965 . S
O129 C137 1.303 1_565 S
O130 Zn123 1.938 . S
O130 C137 1.247 1_554 S
O131 Zn123 1.906 . S
O131 C139 1.304 . S
O132 Zn120 1.924 1_554 S
O132 C140 1.311 . S
O133 Zn124 1.977 1_545 S
O133 C139 1.272 . S
O134 Zn124 1.910 1_545 S
O134 C140 1.231 . S
C135 O119 1.225 . S
C135 O141 1.298 1_556 S
C136 O125 1.226 . S
C136 O126 1.307 . S
C137 O129 1.303 1_545 S
C137 O130 1.247 1_556 S
C138 O127 1.253 1_565 S
C138 O128 1.283 . S
C139 O131 1.304 . S
C139 O133 1.272 . S
C140 O132 1.311 . S
C140 O134 1.231 . S
O141 Zn123 1.953 . S
O141 C135 1.298 1_554 S
O142 Zn143 1.953 . S
O142 C158 1.225 . S
Zn143 O142 1.953 . S
Zn143 O144 1.949 . S
Zn143 O150 1.919 . S
Zn143 O155 1.924 . S
O144 Zn143 1.949 . S
O144 Zn145 1.923 . S
O144 Zn146 1.950 . S
O144 Zn147 1.945 . S
Zn145 O144 1.923 . S
Zn145 O148 1.933 . S
Zn145 O151 1.941 . S
Zn145 O152 1.965 . S
Zn146 O144 1.950 . S
Zn146 O153 1.938 . S
Zn146 O154 1.906 . S
Zn146 O164 1.953 . S
Zn147 O144 1.945 . S
Zn147 O149 1.932 . S
Zn147 O156 1.977 . S
Zn147 O157 1.910 . S
O148 Zn145 1.933 . S
O148 C159 1.226 . S
O149 Zn147 1.932 . S
O149 C159 1.307 . S
O150 Zn143 1.919 . S
O150 C161 1.253 . S
O151 Zn145 1.941 . S
O151 C161 1.283 . S
O152 Zn145 1.965 . S
O152 C160 1.303 . S
O153 Zn146 1.938 . S
O153 C160 1.247 . S
O154 Zn146 1.906 . S
O154 C162 1.304 . S
O155 Zn143 1.924 . S
O155 C163 1.311 . S
O156 Zn147 1.977 . S
O156 C162 1.272 . S
O157 Zn147 1.910 . S
O157 C163 1.231 . S
C158 O142 1.225 . S
C158 O164 1.298 . S
C159 O148 1.226 . S
C159 O149 1.307 . S
C160 O152 1.303 . S
C160 O153 1.247 . S
C161 O150 1.253 . S
C161 O151 1.283 . S
C162 O154 1.304 . S
C162 O156 1.272 . S
C163 O155 1.311 . S
C163 O157 1.231 . S
O164 Zn146 1.953 . S
O164 C158 1.298 . S
O165 Zn166 1.953 . S
O165 C181 1.225 . S
Zn166 O165 1.953 . S
Zn166 O167 1.949 1_655 S
Zn166 O173 1.919 . S
Zn166 O178 1.924 . S
O167 Zn166 1.949 1_455 S
O167 Zn168 1.923 1_554 S
O167 Zn169 1.950 . S
O167 Zn170 1.945 1_554 S
Zn168 O167 1.923 1_556 S
Zn168 O171 1.933 . S
Zn168 O174 1.941 1_455 S
Zn168 O175 1.965 . S
Zn169 O167 1.950 . S
Zn169 O176 1.938 . S
Zn169 O177 1.906 . S
Zn169 O187 1.953 . S
Zn170 O167 1.945 1_556 S
Zn170 O172 1.932 . S
Zn170 O179 1.977 1_556 S
Zn170 O180 1.910 1_556 S
O171 Zn168 1.933 . S
O171 C182 1.226 . S
O172 Zn170 1.932 . S
O172 C182 1.307 . S
O173 Zn166 1.919 . S
O173 C184 1.253 1_554 S
O174 Zn168 1.941 1_655 S
O174 C184 1.283 . S
O175 Zn168 1.965 . S
O175 C183 1.303 . S
O176 Zn169 1.938 . S
O176 C183 1.247 1_554 S
O177 Zn169 1.906 . S
O177 C185 1.304 . S
O178 Zn166 1.924 . S
O178 C186 1.311 1_655 S
O179 Zn170 1.977 1_554 S
O179 C185 1.272 . S
O180 Zn170 1.910 1_554 S
O180 C186 1.231 . S
C181 O165 1.225 . S
C181 O187 1.298 1_655 S
C182 O171 1.226 . S
C182 O172 1.307 . S
C183 O175 1.303 . S
C183 O176 1.247 1_556 S
C184 O173 1.253 1_556 S
C184 O174 1.283 . S
C185 O177 1.304 . S
C185 O179 1.272 . S
C186 O178 1.311 1_455 S
C186 O180 1.231 . S
O187 Zn169 1.953 . S
O187 C181 1.298 1_455 S
C188 C189 1.369 . S
C188 C190 1.419 . S
C188 H192 0.930 . S
C189 C188 1.369 . S
C189 C198 1.429 . S
C190 C188 1.419 . S
C190 C191 1.363 . S
C190 H193 0.929 . S
C191 C190 1.363 . S
C191 C197 1.428 . S
H192 C188 0.930 . S
H193 C190 0.929 . S
S194 N195 1.613 . S
S194 N196 1.610 . S
N195 S194 1.613 . S
N195 C198 1.350 . S
N196 S194 1.610 . S
N196 C197 1.351 . S
C197 C191 1.428 . S
C197 N196 1.351 . S
C197 C198 1.434 . S
C198 C189 1.429 . S
C198 N195 1.350 . S
C198 C197 1.434 . S
C199 C200 1.369 . S
C199 C201 1.419 . S
C199 H203 0.930 . S
C200 C199 1.369 . S
C200 C209 1.429 . S
C201 C199 1.419 . S
C201 C202 1.363 . S
C201 H204 0.929 . S
C202 C201 1.363 . S
C202 C208 1.428 . S
H203 C199 0.930 . S
H204 C201 0.929 . S
S205 N206 1.613 . S
S205 N207 1.610 . S
N206 S205 1.613 . S
N206 C209 1.350 . S
N207 S205 1.610 . S
N207 C208 1.351 . S
C208 C202 1.428 . S
C208 N207 1.351 . S
C208 C209 1.434 . S
C209 C200 1.429 . S
C209 N206 1.350 . S
C209 C208 1.434 . S
C210 C211 1.369 . S
C210 C212 1.419 . S
C210 H214 0.930 . S
C211 C210 1.369 . S
C211 C220 1.429 . S
C212 C210 1.419 . S
C212 C213 1.363 . S
C212 H215 0.929 . S
C213 C212 1.363 . S
C213 C219 1.428 . S
H214 C210 0.930 . S
H215 C212 0.929 . S
S216 N217 1.613 . S
S216 N218 1.610 . S
N217 S216 1.613 . S
N217 C220 1.350 . S
N218 S216 1.610 . S
N218 C219 1.351 . S
C219 C213 1.428 . S
C219 N218 1.351 . S
C219 C220 1.434 . S
C220 C211 1.429 . S
C220 N217 1.350 . S
C220 C219 1.434 . S
C221 C222 1.369 . S
C221 C223 1.419 . S
C221 H225 0.930 . S
C222 C221 1.369 . S
C222 C231 1.429 . S
C223 C221 1.419 . S
C223 C224 1.363 . S
C223 H226 0.929 . S
C224 C223 1.363 . S
C224 C230 1.428 . S
H225 C221 0.930 . S
H226 C223 0.929 . S
S227 N228 1.613 1_455 S
S227 N229 1.610 . S
N228 S227 1.613 1_655 S
N228 C231 1.350 . S
N229 S227 1.610 . S
N229 C230 1.351 1_455 S
C230 C224 1.428 . S
C230 N229 1.351 1_655 S
C230 C231 1.434 . S
C231 C222 1.429 . S
C231 N228 1.350 . S
C231 C230 1.434 . S
C232 C233 1.369 . S
C232 C234 1.419 . S
C232 H236 0.930 . S
C233 C232 1.369 . S
C233 C242 1.429 . S
C234 C232 1.419 . S
C234 C235 1.363 . S
C234 H237 0.929 . S
C235 C234 1.363 . S
C235 C241 1.428 . S
H236 C232 0.930 . S
H237 C234 0.929 . S
S238 N239 1.613 . S
S238 N240 1.610 . S
N239 S238 1.613 . S
N239 C242 1.350 . S
N240 S238 1.610 . S
N240 C241 1.351 . S
C241 C235 1.428 . S
C241 N240 1.351 . S
C241 C242 1.434 . S
C242 C233 1.429 . S
C242 N239 1.350 . S
C242 C241 1.434 . S
C243 C244 1.369 . S
C243 C245 1.419 . S
C243 H247 0.930 . S
C244 C243 1.369 . S
C244 C253 1.429 . S
C245 C243 1.419 . S
C245 C246 1.363 . S
C245 H248 0.929 . S
C246 C245 1.363 . S
C246 C252 1.428 . S
H247 C243 0.930 . S
H248 C245 0.929 . S
S249 N250 1.613 . S
S249 N251 1.610 . S
N250 S249 1.613 . S
N250 C253 1.350 1_545 S
N251 S249 1.610 . S
N251 C252 1.351 1_545 S
C252 C246 1.428 . S
C252 N251 1.351 1_565 S
C252 C253 1.434 . S
C253 C244 1.429 . S
C253 N250 1.350 1_565 S
C253 C252 1.434 . S
C254 C255 1.369 . S
C254 C256 1.419 . S
C254 H258 0.930 . S
C255 C254 1.369 . S
C255 C264 1.429 . S
C256 C254 1.419 . S
C256 C257 1.363 . S
C256 H259 0.929 . S
C257 C256 1.363 . S
C257 C263 1.428 . S
H258 C254 0.930 . S
H259 C256 0.929 . S
S260 N261 1.613 1_554 S
S260 N262 1.610 1_554 S
N261 S260 1.613 1_556 S
N261 C264 1.350 . S
N262 S260 1.610 1_556 S
N262 C263 1.351 . S
C263 C257 1.428 . S
C263 N262 1.351 . S
C263 C264 1.434 . S
C264 C255 1.429 . S
C264 N261 1.350 . S
C264 C263 1.434 . S
C265 C266 1.369 . S
C265 C267 1.419 . S
C265 H269 0.930 . S
C266 C265 1.369 . S
C266 C275 1.429 . S
C267 C265 1.419 . S
C267 C268 1.363 . S
C267 H270 0.929 . S
C268 C267 1.363 . S
C268 C274 1.428 . S
H269 C265 0.930 . S
H270 C267 0.929 . S
S271 N272 1.613 . S
S271 N273 1.610 . S
N272 S271 1.613 . S
N272 C275 1.350 . S
N273 S271 1.610 . S
N273 C274 1.351 . S
C274 C268 1.428 . S
C274 N273 1.351 . S
C274 C275 1.434 . S
C275 C266 1.429 . S
C275 N272 1.350 . S
C275 C274 1.434 . S
C276 C277 1.369 . S
C276 C278 1.419 . S
C276 H280 0.930 . S
C277 C276 1.369 . S
C277 C286 1.429 . S
C278 C276 1.419 . S
C278 C279 1.363 . S
C278 H281 0.929 . S
C279 C278 1.363 . S
C279 C285 1.428 . S
H280 C276 0.930 . S
H281 C278 0.929 . S
S282 N283 1.613 . S
S282 N284 1.610 . S
N283 S282 1.613 . S
N283 C286 1.350 . S
N284 S282 1.610 . S
N284 C285 1.351 . S
C285 C279 1.428 . S
C285 N284 1.351 . S
C285 C286 1.434 . S
C286 C277 1.429 . S
C286 N283 1.350 . S
C286 C285 1.434 . S
C287 C288 1.369 . S
C287 C289 1.419 . S
C287 H291 0.930 . S
C288 C287 1.369 . S
C288 C297 1.429 . S
C289 C287 1.419 . S
C289 C290 1.363 . S
C289 H292 0.929 . S
C290 C289 1.363 . S
C290 C296 1.428 . S
H291 C287 0.930 . S
H292 C289 0.929 . S
S293 N294 1.613 . S
S293 N295 1.610 . S
N294 S293 1.613 . S
N294 C297 1.350 1_554 S
N295 S293 1.610 . S
N295 C296 1.351 1_554 S
C296 C290 1.428 . S
C296 N295 1.351 1_556 S
C296 C297 1.434 . S
C297 C288 1.429 . S
C297 N294 1.350 1_556 S
C297 C296 1.434 . S
C298 C299 1.369 . S
C298 C300 1.419 . S
C298 H302 0.930 . S
C299 C298 1.369 . S
C299 C308 1.429 . S
C300 C298 1.419 . S
C300 C301 1.363 . S
C300 H303 0.929 . S
C301 C300 1.363 . S
C301 C307 1.428 . S
H302 C298 0.930 . S
H303 C300 0.929 . S
S304 N305 1.613 . S
S304 N306 1.610 . S
N305 S304 1.613 . S
N305 C308 1.350 . S
N306 S304 1.610 . S
N306 C307 1.351 . S
C307 C301 1.428 . S
C307 N306 1.351 . S
C307 C308 1.434 . S
C308 C299 1.429 . S
C308 N305 1.350 . S
C308 C307 1.434 . S
C309 C310 1.369 . S
C309 C311 1.419 . S
C309 H313 0.930 . S
C310 C309 1.369 . S
C310 C319 1.429 . S
C311 C309 1.419 . S
C311 C312 1.363 . S
C311 H314 0.929 . S
C312 C311 1.363 . S
C312 C318 1.428 . S
H313 C309 0.930 . S
H314 C311 0.929 . S
S315 N316 1.613 . S
S315 N317 1.610 . S
N316 S315 1.613 . S
N316 C319 1.350 . S
N317 S315 1.610 . S
N317 C318 1.351 . S
C318 C312 1.428 . S
C318 N317 1.351 . S
C318 C319 1.434 . S
C319 C310 1.429 . S
C319 N316 1.350 . S
C319 C318 1.434 . S
C320 C321 1.369 1_545 S
C320 C322 1.419 . S
C320 H324 0.930 . S
C321 C320 1.369 1_565 S
C321 C330 1.429 . S
C322 C320 1.419 . S
C322 C323 1.363 1_545 S
C322 H325 0.929 . S
C323 C322 1.363 1_565 S
C323 C329 1.428 . S
H324 C320 0.930 . S
H325 C322 0.929 . S
S326 N327 1.613 . S
S326 N328 1.610 . S
N327 S326 1.613 . S
N327 C330 1.350 . S
N328 S326 1.610 . S
N328 C329 1.351 . S
C329 C323 1.428 . S
C329 N328 1.351 . S
C329 C330 1.434 . S
C330 C321 1.429 . S
C330 N327 1.350 . S
C330 C329 1.434 . S
C331 C332 1.369 . S
C331 C333 1.419 . S
C331 H335 0.930 . S
C332 C331 1.369 . S
C332 C341 1.429 . S
C333 C331 1.419 . S
C333 C334 1.363 . S
C333 H336 0.929 . S
C334 C333 1.363 . S
C334 C340 1.428 . S
H335 C331 0.930 . S
H336 C333 0.929 . S
S337 N338 1.613 . S
S337 N339 1.610 . S
N338 S337 1.613 . S
N338 C341 1.350 1_565 S
N339 S337 1.610 . S
N339 C340 1.351 1_565 S
C340 C334 1.428 . S
C340 N339 1.351 1_545 S
C340 C341 1.434 . S
C341 C332 1.429 . S
C341 N338 1.350 1_545 S
C341 C340 1.434 . S
C342 C343 1.369 . S
C342 C344 1.419 . S
C342 H346 0.930 . S
C343 C342 1.369 . S
C343 C352 1.429 . S
C344 C342 1.419 . S
C344 C345 1.363 . S
C344 H347 0.929 . S
C345 C344 1.363 . S
C345 C351 1.428 . S
H346 C342 0.930 . S
H347 C344 0.929 . S
S348 N349 1.613 . S
S348 N350 1.610 . S
N349 S348 1.613 . S
N349 C352 1.350 . S
N350 S348 1.610 . S
N350 C351 1.351 . S
C351 C345 1.428 . S
C351 N350 1.351 . S
C351 C352 1.434 . S
C352 C343 1.429 . S
C352 N349 1.350 . S
C352 C351 1.434 . S
C353 C354 1.369 . S
C353 C355 1.419 . S
C353 H357 0.930 . S
C354 C353 1.369 . S
C354 C363 1.429 . S
C355 C353 1.419 . S
C355 C356 1.363 . S
C355 H358 0.929 . S
C356 C355 1.363 . S
C356 C362 1.428 . S
H357 C353 0.930 . S
H358 C355 0.929 . S
S359 N360 1.613 . S
S359 N361 1.610 . S
N360 S359 1.613 . S
N360 C363 1.350 . S
N361 S359 1.610 . S
N361 C362 1.351 . S
C362 C356 1.428 . S
C362 N361 1.351 . S
C362 C363 1.434 . S
C363 C354 1.429 . S
C363 N360 1.350 . S
C363 C362 1.434 . S
C364 C365 1.369 1_545 S
C364 C366 1.419 . S
C364 H368 0.930 . S
C365 C364 1.369 1_565 S
C365 C374 1.429 . S
C366 C364 1.419 . S
C366 C367 1.363 . S
C366 H369 0.929 . S
C367 C366 1.363 . S
C367 C373 1.428 1_545 S
H368 C364 0.930 . S
H369 C366 0.929 . S
S370 N371 1.613 . S
S370 N372 1.610 . S
N371 S370 1.613 . S
N371 C374 1.350 1_554 S
N372 S370 1.610 . S
N372 C373 1.351 1_554 S
C373 C367 1.428 1_565 S
C373 N372 1.351 1_556 S
C373 C374 1.434 . S
C374 C365 1.429 . S
C374 N371 1.350 1_556 S
C374 C373 1.434 . S
C375 C376 1.369 . S
C375 C377 1.419 . S
C375 H379 0.930 . S
C376 C375 1.369 . S
C376 C385 1.429 1_545 S
C377 C375 1.419 . S
C377 C378 1.363 . S
C377 H380 0.929 . S
C378 C377 1.363 . S
C378 C384 1.428 1_545 S
H379 C375 0.930 . S
H380 C377 0.929 . S
S381 N382 1.613 . S
S381 N383 1.610 . S
N382 S381 1.613 . S
N382 C385 1.350 . S
N383 S381 1.610 . S
N383 C384 1.351 . S
C384 C378 1.428 1_565 S
C384 N383 1.351 . S
C384 C385 1.434 . S
C385 C376 1.429 1_565 S
C385 N382 1.350 . S
C385 C384 1.434 . S
C386 C387 1.369 . S
C386 C388 1.419 . S
C386 H390 0.930 . S
C387 C386 1.369 . S
C387 C396 1.429 . S
C388 C386 1.419 . S
C388 C389 1.363 . S
C388 H391 0.929 . S
C389 C388 1.363 . S
C389 C395 1.428 . S
H390 C386 0.930 . S
H391 C388 0.929 . S
S392 N393 1.613 . S
S392 N394 1.610 . S
N393 S392 1.613 . S
N393 C396 1.350 . S
N394 S392 1.610 . S
N394 C395 1.351 . S
C395 C389 1.428 . S
C395 N394 1.351 . S
C395 C396 1.434 . S
C396 C387 1.429 . S
C396 N393 1.350 . S
C396 C395 1.434 . S
C397 C398 1.369 . S
C397 C399 1.419 . S
C397 H401 0.930 . S
C398 C397 1.369 . S
C398 C407 1.429 . S
C399 C397 1.419 . S
C399 C400 1.363 . S
C399 H402 0.929 . S
C400 C399 1.363 . S
C400 C406 1.428 . S
H401 C397 0.930 . S
H402 C399 0.929 . S
S403 N404 1.613 . S
S403 N405 1.610 . S
N404 S403 1.613 . S
N404 C407 1.350 . S
N405 S403 1.610 . S
N405 C406 1.351 . S
C406 C400 1.428 . S
C406 N405 1.351 . S
C406 C407 1.434 . S
C407 C398 1.429 . S
C407 N404 1.350 . S
C407 C406 1.434 . S
C408 C409 1.369 . S
C408 C410 1.421 . S
C408 H412 0.930 1_556 S
C409 C408 1.369 . S
C409 C418 1.429 1_655 S
C410 C408 1.421 . S
C410 C411 1.366 . S
C410 H413 0.923 1_556 S
C411 C410 1.366 . S
C411 C417 1.428 1_655 S
H412 C408 0.930 1_554 S
H413 C410 0.923 1_554 S
S414 N415 1.613 . S
S414 N416 1.610 . S
N415 S414 1.613 . S
N415 C418 1.350 . S
N416 S414 1.610 . S
N416 C417 1.351 . S
C417 C411 1.428 1_455 S
C417 N416 1.351 . S
C417 C418 1.434 . S
C418 C409 1.429 1_455 S
C418 N415 1.350 . S
C418 C417 1.434 . S
C419 C420 1.369 . S
C419 C421 1.419 . S
C419 H423 0.930 . S
C420 C419 1.369 . S
C420 C429 1.429 . S
C421 C419 1.419 . S
C421 C422 1.363 . S
C421 H424 0.929 . S
C422 C421 1.363 . S
C422 C428 1.428 . S
H423 C419 0.930 . S
H424 C421 0.929 . S
S425 N426 1.613 . S
S425 N427 1.610 . S
N426 S425 1.613 . S
N426 C429 1.350 . S
N427 S425 1.610 . S
N427 C428 1.351 . S
C428 C422 1.428 . S
C428 N427 1.351 . S
C428 C429 1.434 . S
C429 C420 1.429 . S
C429 N426 1.350 . S
C429 C428 1.434 . S
C430 C431 1.369 . S
C430 C432 1.419 . S
C430 H434 0.930 . S
C431 C430 1.369 . S
C431 C440 1.429 . S
C432 C430 1.419 . S
C432 C433 1.363 . S
C432 H435 0.929 . S
C433 C432 1.363 . S
C433 C439 1.428 . S
H434 C430 0.930 . S
H435 C432 0.929 . S
S436 N437 1.613 1_655 S
S436 N438 1.609 1_655 S
N437 S436 1.613 1_455 S
N437 C440 1.350 . S
N438 S436 1.609 1_455 S
N438 C439 1.353 . S
C439 C433 1.428 . S
C439 N438 1.353 . S
C439 C440 1.434 . S
C440 C431 1.429 . S
C440 N437 1.350 . S
C440 C439 1.434 . S
C441 C442 1.369 . S
C441 C443 1.419 . S
C441 H445 0.930 . S
C442 C441 1.369 . S
C442 C451 1.429 . S
C443 C441 1.419 . S
C443 C444 1.363 . S
C443 H446 0.929 . S
C444 C443 1.363 . S
C444 C450 1.428 . S
H445 C441 0.930 . S
H446 C443 0.929 . S
S447 N448 1.613 . S
S447 N449 1.610 . S
N448 S447 1.613 . S
N448 C451 1.350 . S
N449 S447 1.610 . S
N449 C450 1.351 . S
C450 C444 1.428 . S
C450 N449 1.351 . S
C450 C451 1.434 . S
C451 C442 1.429 . S
C451 N448 1.350 . S
C451 C450 1.434 . S
C189 C6 1.731 . S
C191 C114 1.697 . S
C200 C18 1.804 . S
C202 C138 1.780 . S
C213 C158 1.460 . S
C211 C28 1.439 . S
C222 C40 1.086 . S
C224 C181 1.116 . S
C235 C140 1.843 . S
C233 C9 1.892 . S
C246 C116 1.567 . S
C244 C16 1.621 . S
C257 C184 1.567 . S
C255 C30 1.632 . S
C268 C161 1.341 . S
C266 C42 1.387 . S
C277 C4 1.483 . S
C279 C186 1.441 . S
C290 C135 1.635 . S
C288 C33 1.627 . S
C299 C45 1.410 . S
C301 C113 1.419 . S
C310 C21 1.668 . S
C312 C163 1.630 . S
C323 C117 1.821 . S
C321 C57 1.797 . S
C332 C66 1.787 . S
C334 C139 1.773 . S
C343 C76 1.703 . S
C345 C159 1.725 . S
C354 C88 1.256 . S
C356 C182 1.308 . S
C365 C54 1.735 . S
C367 C137 1.708 . S
C378 C115 1.566 . S
C376 C64 1.549 . S
C389 C185 1.425 . S
C387 C78 1.461 . S
C400 C162 1.315 . S
C398 C93 1.333 . S
C409 C52 1.633 . S
C411 C183 1.633 1_655 S
C422 C136 1.580 . S
C420 C81 1.540 . S
C433 C112 1.434 . S
C431 C90 1.418 . S
C442 C69 1.921 . S
C444 C160 1.882 . S
