# Generated by pormake.
# Topology the, (3,8)-cn, num edge types: 1
# Building blocks:
#     Node 0, Type 0, BuildingBlock: BETDAH_clean_linker_0, # of connection points: 3
#     Node 1, Type 0, BuildingBlock: BETDAH_clean_linker_0, # of connection points: 3
#     Node 2, Type 0, BuildingBlock: BETDAH_clean_linker_0, # of connection points: 3
#     Node 3, Type 0, BuildingBlock: BETDAH_clean_linker_0, # of connection points: 3
#     Node 4, Type 0, BuildingBlock: BETDAH_clean_linker_0, # of connection points: 3
#     Node 5, Type 0, BuildingBlock: BETDAH_clean_linker_0, # of connection points: 3
#     Node 6, Type 0, BuildingBlock: BETDAH_clean_linker_0, # of connection points: 3
#     Node 7, Type 0, BuildingBlock: BETDAH_clean_linker_0, # of connection points: 3
#     Node 8, Type 1, BuildingBlock: GIZVER_clean_sbu_0, # of connection points: 8
#     Node 9, Type 1, BuildingBlock: GIZVER_clean_sbu_0, # of connection points: 8
#     Node 10, Type 1, BuildingBlock: GIZVER_clean_sbu_0, # of connection points: 8
#     Edge 11, Type (0, 1), BuildingBlock: KIFKEQ_clean_linker_1, # of connection points: 2
#     Edge 12, Type (0, 1), BuildingBlock: KIFKEQ_clean_linker_1, # of connection points: 2
#     Edge 13, Type (0, 1), BuildingBlock: KIFKEQ_clean_linker_1, # of connection points: 2
#     Edge 14, Type (0, 1), BuildingBlock: KIFKEQ_clean_linker_1, # of connection points: 2
#     Edge 15, Type (0, 1), BuildingBlock: KIFKEQ_clean_linker_1, # of connection points: 2
#     Edge 16, Type (0, 1), BuildingBlock: KIFKEQ_clean_linker_1, # of connection points: 2
#     Edge 17, Type (0, 1), BuildingBlock: KIFKEQ_clean_linker_1, # of connection points: 2
#     Edge 18, Type (0, 1), BuildingBlock: KIFKEQ_clean_linker_1, # of connection points: 2
#     Edge 19, Type (0, 1), BuildingBlock: KIFKEQ_clean_linker_1, # of connection points: 2
#     Edge 20, Type (0, 1), BuildingBlock: KIFKEQ_clean_linker_1, # of connection points: 2
#     Edge 21, Type (0, 1), BuildingBlock: KIFKEQ_clean_linker_1, # of connection points: 2
#     Edge 22, Type (0, 1), BuildingBlock: KIFKEQ_clean_linker_1, # of connection points: 2
#     Edge 23, Type (0, 1), BuildingBlock: KIFKEQ_clean_linker_1, # of connection points: 2
#     Edge 24, Type (0, 1), BuildingBlock: KIFKEQ_clean_linker_1, # of connection points: 2
#     Edge 25, Type (0, 1), BuildingBlock: KIFKEQ_clean_linker_1, # of connection points: 2
#     Edge 26, Type (0, 1), BuildingBlock: KIFKEQ_clean_linker_1, # of connection points: 2
#     Edge 27, Type (0, 1), BuildingBlock: KIFKEQ_clean_linker_1, # of connection points: 2
#     Edge 28, Type (0, 1), BuildingBlock: KIFKEQ_clean_linker_1, # of connection points: 2
#     Edge 29, Type (0, 1), BuildingBlock: KIFKEQ_clean_linker_1, # of connection points: 2
#     Edge 30, Type (0, 1), BuildingBlock: KIFKEQ_clean_linker_1, # of connection points: 2
#     Edge 31, Type (0, 1), BuildingBlock: KIFKEQ_clean_linker_1, # of connection points: 2
#     Edge 32, Type (0, 1), BuildingBlock: KIFKEQ_clean_linker_1, # of connection points: 2
#     Edge 33, Type (0, 1), BuildingBlock: KIFKEQ_clean_linker_1, # of connection points: 2
#     Edge 34, Type (0, 1), BuildingBlock: KIFKEQ_clean_linker_1, # of connection points: 2
# Relax obj value: 0.072
# Max RMSD: 0.196
# Mean RMSD: 0.131
data_MOF--net-the--node1-GIZVER_clean_sbu_0--node2-BETDAH_clean_linker_0--edge1-KIFKEQ_clean_linker_1
_symmetry_space_group_name_H-M    P1
_symmetry_Int_Tables_number       1
_symmetry_cell_setting            triclinic
loop_
_symmetry_equiv_pos_as_xyz
'x, y, z'
_cell_length_a     41.432987
_cell_length_b     39.128278
_cell_length_c     36.704593
_cell_angle_alpha  86.291013
_cell_angle_beta   95.742573
_cell_angle_gamma 109.72087
loop_
_atom_site_label
_atom_site_type_symbol
_atom_site_fract_x
_atom_site_fract_y
_atom_site_fract_z
_atom_type_partial_charge
H0 H 0.41292 0.30897 0.36154 0.0
H1 H 0.37176 0.30221 0.46572 0.0
H2 H 0.35721 0.37977 0.38316 0.0
C3 C 0.39853 0.31799 0.37968 0.0
C4 C 0.38573 0.34634 0.368 0.0
C5 C 0.39362 0.30183 0.41486 0.0
C6 C 0.37579 0.31433 0.43841 0.0
C7 C 0.36221 0.3418 0.42714 0.0
C8 C 0.36679 0.35768 0.39165 0.0
N9 N 0.34567 0.35362 0.45328 0.0
C10 C 0.32206 0.37166 0.44542 0.0
H11 H 0.75892 0.27867 0.37471 0.0
H12 H 0.79343 0.3488 0.28146 0.0
H13 H 0.69997 0.25834 0.26943 0.0
C14 C 0.75528 0.28521 0.34581 0.0
C15 C 0.72613 0.2638 0.32428 0.0
C16 C 0.7796 0.31588 0.33069 0.0
C17 C 0.77455 0.32559 0.29366 0.0
C18 C 0.74546 0.30544 0.27197 0.0
C19 C 0.7214 0.27456 0.28714 0.0
N20 N 0.74281 0.31449 0.23404 0.0
C21 C 0.71608 0.32507 0.21672 0.0
H22 H 0.76642 0.65487 0.30128 0.0
H23 H 0.79935 0.73486 0.38451 0.0
H24 H 0.71706 0.73567 0.30416 0.0
C25 C 0.76408 0.67815 0.31381 0.0
C26 C 0.73909 0.69336 0.29863 0.0
C27 C 0.78593 0.6926 0.34502 0.0
C28 C 0.78287 0.72313 0.3605 0.0
C29 C 0.75804 0.73844 0.34636 0.0
C30 C 0.73576 0.7233 0.31564 0.0
N31 N 0.75844 0.77072 0.36232 0.0
C32 C 0.73006 0.78103 0.36671 0.0
H33 H 0.30208 0.71917 0.39174 0.0
H34 H 0.39958 0.71841 0.36225 0.0
H35 H 0.30786 0.63326 0.32684 0.0
C36 C 0.31669 0.70722 0.37687 0.0
C37 C 0.30002 0.67425 0.35881 0.0
C38 C 0.35263 0.72348 0.37823 0.0
C39 C 0.37179 0.70659 0.36117 0.0
C40 C 0.35584 0.6745 0.34256 0.0
C41 C 0.31993 0.65859 0.34075 0.0
N42 N 0.37721 0.65703 0.3298 0.0
C43 C 0.37105 0.63883 0.29724 0.0
H44 H 0.34151 0.74382 0.67601 0.0
H45 H 0.3034 0.66044 0.75812 0.0
H46 H 0.40285 0.74191 0.77792 0.0
C47 C 0.34502 0.73147 0.70277 0.0
C48 C 0.37507 0.74731 0.72579 0.0
C49 C 0.31919 0.70008 0.71415 0.0
C50 C 0.32343 0.68449 0.74893 0.0
C51 C 0.3538 0.69868 0.7716 0.0
C52 C 0.37987 0.73006 0.75992 0.0
N53 N 0.35595 0.68171 0.80672 0.0
C54 C 0.3859 0.67981 0.82624 0.0
H55 H 0.42431 0.27785 0.75856 0.0
H56 H 0.37018 0.35354 0.72517 0.0
H57 H 0.37132 0.27392 0.65147 0.0
C58 C 0.40884 0.28845 0.73849 0.0
C59 C 0.3989 0.27205 0.70424 0.0
C60 C 0.39905 0.31828 0.7468 0.0
C61 C 0.37741 0.3302 0.72038 0.0
C62 C 0.36702 0.31353 0.68634 0.0
C63 C 0.37825 0.2852 0.6785 0.0
N64 N 0.34791 0.32629 0.65768 0.0
C65 C 0.32373 0.34297 0.66161 0.0
H66 H 0.79889 0.29255 0.68094 0.0
H67 H 0.82148 0.35736 0.77694 0.0
H68 H 0.73043 0.26361 0.76724 0.0
C69 C 0.79245 0.29753 0.70755 0.0
C70 C 0.76173 0.27467 0.72131 0.0
C71 C 0.81423 0.32763 0.72725 0.0
C72 C 0.80478 0.33476 0.76103 0.0
C73 C 0.7746 0.31157 0.77535 0.0
C74 C 0.75344 0.2816 0.75565 0.0
N75 N 0.76687 0.31588 0.81111 0.0
C76 C 0.75782 0.34507 0.82056 0.0
H77 H 0.78124 0.62853 0.69747 0.0
H78 H 0.76304 0.66745 0.58763 0.0
H79 H 0.69909 0.67256 0.67053 0.0
C80 C 0.76704 0.64107 0.67774 0.0
C81 C 0.73922 0.64985 0.68857 0.0
C82 C 0.77602 0.64746 0.64141 0.0
C83 C 0.75668 0.66247 0.61586 0.0
C84 C 0.72953 0.67208 0.62626 0.0
C85 C 0.72098 0.66629 0.6628 0.0
N86 N 0.70992 0.68506 0.59853 0.0
C87 C 0.69662 0.71242 0.60316 0.0
Co88 Co 0.11596 0.4859 0.544 0.0
Co89 Co 0.07512 0.46257 0.48417 0.0
Co90 Co 0.04569 0.51252 0.52428 0.0
O91 O 0.06696 0.47335 0.5308 0.0
H92 H 0.05316 0.45193 0.54371 0.0
O93 O 0.02542 0.55244 0.51766 0.0
Co94 Co 0.97754 0.54249 0.50244 0.0
Co95 Co 0.01638 0.56311 0.56374 0.0
H96 H 0.04017 0.57394 0.50568 0.0
O97 O 0.08792 0.42249 0.47448 0.0
O98 O 0.12276 0.47692 0.4935 0.0
O99 O 0.06718 0.49388 0.44383 0.0
O100 O 0.07408 0.53756 0.48229 0.0
O101 O 1.00842 0.48139 0.4893 0.0
O102 O 0.93422 0.53746 0.48683 0.0
O103 O 0.98063 0.5882 0.48606 0.0
O104 O 0.96826 0.49319 0.51584 0.0
O105 O 0.01712 0.4871 0.56604 0.0
O106 O 0.01992 0.52994 0.60416 0.0
O107 O 0.96945 0.55249 0.55213 0.0
O108 O 1.00691 0.60512 0.57289 0.0
C109 C 0.14813 0.45845 0.56621 0.0
C110 C 0.11409 0.55298 0.55348 0.0
C111 C 0.07704 0.52736 0.45074 0.0
C112 C 0.11874 0.44525 0.48125 0.0
C113 C 0.94773 0.57179 0.47817 0.0
C114 C 0.97665 0.4744 0.49393 0.0
C115 C 0.01222 0.49668 0.59713 0.0
C116 C 0.97544 0.58447 0.56477 0.0
O117 O 0.15997 0.49297 0.55768 0.0
O118 O 0.1153 0.44068 0.55957 0.0
O119 O 0.08248 0.54345 0.55957 0.0
O120 O 0.12347 0.53537 0.53124 0.0
Co121 Co 0.57686 0.94454 0.50983 0.0
Co122 Co 0.60156 0.97539 0.57331 0.0
Co123 Co 0.54996 0.01317 0.534 0.0
O124 O 0.58733 0.99276 0.5276 0.0
H125 H 0.6067 0.01032 0.51666 0.0
O126 O 0.51247 0.0333 0.54102 0.0
Co127 Co 0.52347 0.0815 0.55846 0.0
Co128 Co 0.49786 0.05062 0.49647 0.0
H129 H 0.49329 0.01581 0.55231 0.0
O130 O 0.64204 0.96328 0.58226 0.0
O131 O 0.59039 0.92789 0.55891 0.0
O132 O 0.57328 0.97151 0.6132 0.0
O133 O 0.5301 0.97722 0.57514 0.0
O134 O 0.58269 0.04829 0.5695 0.0
O135 O 0.53037 0.12464 0.57638 0.0
O136 O 0.48247 0.07547 0.57647 0.0
O137 O 0.56812 0.09377 0.54353 0.0
O138 O 0.56965 0.0487 0.49224 0.0
O139 O 0.52521 0.0545 0.45618 0.0
O140 O 0.50722 0.09807 0.51011 0.0
O141 O 0.45626 0.05913 0.4883 0.0
C142 C 0.60304 0.91732 0.48472 0.0
C143 C 0.5107 0.94439 0.50232 0.0
C144 C 0.54141 0.96596 0.60566 0.0
C145 C 0.62165 0.93166 0.57181 0.0
C146 C 0.49909 0.10906 0.58552 0.0
C147 C 0.58877 0.08244 0.56473 0.0
C148 C 0.55711 0.05948 0.46212 0.0
C149 C 0.47538 0.09177 0.49727 0.0
O150 O 0.57123 0.9014 0.49204 0.0
O151 O 0.61889 0.95085 0.49438 0.0
O152 O 0.51725 0.97857 0.49834 0.0
O153 O 0.5312 0.9318 0.52224 0.0
Co154 Co 0.51199 0.51843 0.09911 0.0
Co155 Co 0.49323 0.45314 0.07461 0.0
Co156 Co 0.55304 0.50919 0.02704 0.0
O157 O 0.50955 0.49923 0.05207 0.0
H158 H 0.49149 0.50346 0.03557 0.0
O159 O 0.59618 0.519 1.00191 0.0
Co160 Co 0.59485 0.49942 0.95518 0.0
Co161 Co 0.61209 0.56471 0.979 0.0
H162 H 0.61439 0.51544 1.01867 0.0
O163 O 0.44854 0.4316 0.09152 0.0
O164 O 0.49513 0.46938 0.12156 0.0
O165 O 0.52489 0.42663 0.07756 0.0
O166 O 0.56974 0.47277 0.05902 0.0
O167 O 0.52606 0.46967 0.99211 0.0
O168 O 0.59782 0.48 0.91348 0.0
O169 O 0.6376 0.49663 0.96132 0.0
O170 O 0.54937 0.49925 0.94296 0.0
O171 O 0.53615 0.54546 0.99492 0.0
O172 O 0.58066 0.59123 0.97539 0.0
O173 O 0.61168 0.54861 0.93231 0.0
O174 O 0.6569 0.58709 0.96413 0.0
C175 C 0.48051 0.5363 0.12663 0.0
C176 C 0.58037 0.5435 0.09686 0.0
C177 C 0.55692 0.44107 0.07409 0.0
C178 C 0.46356 0.4478 0.12143 0.0
C179 C 0.628 0.48211 0.92929 0.0
C180 C 0.52502 0.47475 0.95736 0.0
C181 C 0.54873 0.57687 0.97918 0.0
C182 C 0.64298 0.57122 0.93372 0.0
O183 O 0.51085 0.53764 0.14114 0.0
O184 O 0.46935 0.52208 0.09464 0.0
O185 O 0.58044 0.54882 0.06215 0.0
O186 O 0.55658 0.51719 0.10958 0.0
H187 H 0.31875 0.4185 0.49347 0.0
H188 H 0.26488 0.35846 0.39866 0.0
H189 H 0.26951 0.43763 0.5008 0.0
H190 H 0.21557 0.3783 0.40508 0.0
H191 H 0.12055 0.38047 0.45913 0.0
H192 H 0.17104 0.36551 0.44731 0.0
H193 H 0.23621 0.47432 0.47463 0.0
H194 H 0.18595 0.48903 0.48714 0.0
C195 C 0.29657 0.4103 0.47363 0.0
C196 C 0.2954 0.38751 0.44532 0.0
C197 C 0.2684 0.4212 0.47776 0.0
C198 C 0.23853 0.40941 0.45359 0.0
C199 C 0.238 0.38745 0.42444 0.0
C200 C 0.26625 0.37646 0.42043 0.0
C201 C 0.14565 0.40119 0.46259 0.0
C202 C 0.14922 0.43588 0.47418 0.0
C203 C 0.17458 0.39272 0.45552 0.0
C204 C 0.20767 0.41878 0.45984 0.0
C205 C 0.21116 0.4535 0.47136 0.0
C206 C 0.18229 0.46194 0.47846 0.0
H207 H 0.65613 0.23313 0.30639 0.0
H208 H 0.73896 0.21743 0.37939 0.0
H209 H 0.61595 0.17981 0.33366 0.0
H210 H 0.69824 0.16702 0.40962 0.0
H211 H 0.62263 0.06334 0.44985 0.0
H212 H 0.66269 0.10856 0.41221 0.0
H213 H 0.58551 0.15973 0.3829 0.0
H214 H 0.54525 0.11313 0.4179 0.0
C215 C 0.66597 0.21851 0.32826 0.0
C216 C 0.70112 0.23037 0.34069 0.0
C217 C 0.64259 0.18804 0.34457 0.0
C218 C 0.65333 0.16891 0.37455 0.0
C219 C 0.68859 0.18039 0.38648 0.0
C220 C 0.71209 0.2102 0.36952 0.0
C221 C 0.6142 0.08392 0.43468 0.0
C222 C 0.58071 0.08444 0.43668 0.0
C223 C 0.63729 0.11025 0.41337 0.0
C224 C 0.62782 0.13847 0.39439 0.0
C225 C 0.59396 0.13833 0.3961 0.0
C226 C 0.5707 0.11151 0.41651 0.0
H227 H 0.77827 0.62003 0.35313 0.0
H228 H 0.85145 0.72643 0.37623 0.0
H229 H 0.81837 0.59224 0.38401 0.0
H230 H 0.89058 0.69861 0.4093 0.0
H231 H 0.96664 0.63669 0.43894 0.0
H232 H 0.92875 0.66604 0.40496 0.0
H233 H 0.84026 0.58111 0.44347 0.0
H234 H 0.87797 0.55133 0.47598 0.0
C235 C 0.80296 0.63758 0.36459 0.0
C236 C 0.81137 0.67557 0.36222 0.0
C237 C 0.82583 0.62159 0.38293 0.0
C238 C 0.8577 0.64307 0.39974 0.0
C239 C 0.86645 0.68108 0.39661 0.0
C240 C 0.84371 0.69708 0.37799 0.0
C241 C 0.93909 0.62446 0.44019 0.0
C242 C 0.92533 0.59152 0.45986 0.0
C243 C 0.9173 0.64131 0.42079 0.0
C244 C 0.88125 0.62581 0.42097 0.0
C245 C 0.86773 0.59342 0.44171 0.0
C246 C 0.88943 0.57643 0.46067 0.0
H247 H 0.33586 0.7859 0.3786 0.0
H248 H 0.41074 0.73702 0.42455 0.0
H249 H 0.37085 0.84359 0.4068 0.0
H250 H 0.44561 0.7943 0.45153 0.0
H251 H 0.52007 0.90796 0.44705 0.0
H252 H 0.4778 0.85569 0.41709 0.0
H253 H 0.39801 0.87031 0.47512 0.0
H254 H 0.44098 0.92288 0.50574 0.0
C255 C 0.35946 0.78732 0.39504 0.0
C256 C 0.37093 0.75714 0.39868 0.0
C257 C 0.37944 0.82027 0.41103 0.0
C258 C 0.41119 0.82346 0.43061 0.0
C259 C 0.42159 0.79276 0.43584 0.0
C260 C 0.40165 0.76 0.42028 0.0
C261 C 0.49342 0.90037 0.45292 0.0
C262 C 0.48366 0.91904 0.47874 0.0
C263 C 0.46927 0.87051 0.43586 0.0
C264 C 0.43482 0.85872 0.44427 0.0
C265 C 0.42445 0.87896 0.46821 0.0
C266 C 0.44887 0.90896 0.48554 0.0
H267 H 0.31652 0.67314 0.64724 0.0
H268 H 0.25211 0.68789 0.72577 0.0
H269 H 0.26579 0.64068 0.60824 0.0
H270 H 0.20089 0.65774 0.68573 0.0
H271 H 0.11622 0.56509 0.62628 0.0
H272 H 0.16505 0.603 0.66456 0.0
H273 H 0.22079 0.64199 0.56813 0.0
H274 H 0.17288 0.60185 0.53079 0.0
C275 C 0.29132 0.67001 0.65568 0.0
C276 C 0.28811 0.6829 0.6894 0.0
C277 C 0.26207 0.65164 0.63319 0.0
C278 C 0.22875 0.64644 0.64343 0.0
C279 C 0.22581 0.66036 0.67699 0.0
C280 C 0.25515 0.67797 0.69989 0.0
C281 C 0.13883 0.5822 0.61339 0.0
C282 C 0.14093 0.58045 0.5757 0.0
C283 C 0.16693 0.60413 0.63529 0.0
C284 C 0.19749 0.6255 0.6198 0.0
C285 C 0.19844 0.62519 0.58154 0.0
C286 C 0.17076 0.60252 0.55991 0.0
H287 H 0.36345 0.21088 0.66573 0.0
H288 H 0.4638 0.26781 0.7181 0.0
H289 H 0.38681 0.16955 0.63938 0.0
H290 H 0.48685 0.22539 0.69319 0.0
H291 H 0.52567 0.18073 0.60119 0.0
H292 H 0.50069 0.21628 0.63375 0.0
H293 H 0.41118 0.12142 0.64833 0.0
H294 H 0.4361 0.08569 0.61463 0.0
C295 C 0.39043 0.21425 0.67209 0.0
C296 C 0.41183 0.24307 0.69365 0.0
C297 C 0.40376 0.19027 0.65723 0.0
C298 C 0.43887 0.19435 0.66365 0.0
C299 C 0.45983 0.22186 0.68699 0.0
C300 C 0.44651 0.24593 0.70176 0.0
C301 C 0.50068 0.16726 0.61136 0.0
C302 C 0.48295 0.13022 0.60533 0.0
C303 C 0.48644 0.18769 0.63041 0.0
C304 C 0.45405 0.17174 0.64419 0.0
C305 C 0.43612 0.13468 0.63799 0.0
C306 C 0.45041 0.11415 0.61874 0.0
H307 H 0.83992 0.40191 0.72425 0.0
H308 H 0.86212 0.307 0.6968 0.0
H309 H 0.89166 0.44081 0.69705 0.0
H310 H 0.9144 0.34579 0.67036 0.0
H311 H 0.99722 0.5054 0.66637 0.0
H312 H 0.9528 0.46329 0.70171 0.0
H313 H 0.93092 0.38395 0.61799 0.0
H314 H 0.97597 0.42543 0.58341 0.0
C315 C 0.85619 0.38939 0.7129 0.0
C316 C 0.84679 0.3514 0.71243 0.0
C317 C 0.88601 0.41168 0.69743 0.0
C318 C 0.90737 0.39654 0.68138 0.0
C319 C 0.89835 0.35847 0.68184 0.0
C320 C 0.86838 0.3362 0.69703 0.0
C321 C 0.98343 0.47867 0.65588 0.0
C322 C 0.9901 0.46897 0.62188 0.0
C323 C 0.95767 0.45462 0.67599 0.0
C324 C 0.93775 0.42035 0.66251 0.0
C325 C 0.9458 0.40993 0.6295 0.0
C326 C 0.97172 0.43384 0.60955 0.0
H327 H 0.65553 0.72732 0.54842 0.0
H328 H 0.71047 0.7654 0.65205 0.0
H329 H 0.63791 0.78111 0.54044 0.0
H330 H 0.69224 0.81921 0.64479 0.0
H331 H 0.68518 0.92879 0.59752 0.0
H332 H 0.70277 0.87497 0.60625 0.0
H333 H 0.6009 0.80812 0.56566 0.0
H334 H 0.58353 0.86162 0.55645 0.0
C335 C 0.66326 0.74708 0.56976 0.0
C336 C 0.68388 0.74245 0.60097 0.0
C337 C 0.65319 0.7778 0.56528 0.0
C338 C 0.66363 0.80442 0.59202 0.0
C339 C 0.6841 0.79939 0.62354 0.0
C340 C 0.69422 0.76856 0.62794 0.0
C341 C 0.66661 0.9026 0.59036 0.0
C342 C 0.633 0.89952 0.57622 0.0
C343 C 0.6766 0.87176 0.59562 0.0
C344 C 0.65319 0.83727 0.58676 0.0
C345 C 0.61968 0.83432 0.57238 0.0
C346 C 0.6097 0.86505 0.56719 0.0
H347 H 0.42707 0.2934 0.48111 0.0
H348 H 0.39019 0.24266 0.37695 0.0
H349 H 0.44565 0.24232 0.50321 0.0
H350 H 0.40978 0.19206 0.39866 0.0
H351 H 0.41328 0.08967 0.46248 0.0
H352 H 0.39395 0.14087 0.44341 0.0
H353 H 0.48876 0.21458 0.49298 0.0
H354 H 0.50798 0.16337 0.51252 0.0
C355 C 0.42302 0.27135 0.46291 0.0
C356 C 0.407 0.27193 0.42735 0.0
C357 C 0.43393 0.24226 0.47547 0.0
C358 C 0.429 0.21306 0.45277 0.0
C359 C 0.41347 0.21392 0.41699 0.0
C360 C 0.40265 0.24308 0.40439 0.0
C361 C 0.42989 0.11674 0.46964 0.0
C362 C 0.46228 0.12244 0.48882 0.0
C363 C 0.41892 0.14611 0.45842 0.0
C364 C 0.44 0.18179 0.46628 0.0
C365 C 0.47187 0.18739 0.4866 0.0
C366 C 0.48292 0.15803 0.4977 0.0
H367 H 0.82587 0.2926 0.37485 0.0
H368 H 0.80211 0.38915 0.33831 0.0
H369 H 0.87555 0.32951 0.41385 0.0
H370 H 0.85124 0.42578 0.37763 0.0
H371 H 0.90786 0.46275 0.4911 0.0
H372 H 0.86219 0.42397 0.45054 0.0
H373 H 0.93554 0.38662 0.40435 0.0
H374 H 0.98222 0.42666 0.44458 0.0
C375 C 0.83132 0.32168 0.37518 0.0
C376 C 0.81014 0.33806 0.35368 0.0
C377 C 0.85981 0.34274 0.39722 0.0
C378 C 0.86713 0.38041 0.39868 0.0
C379 C 0.84608 0.39676 0.37701 0.0
C380 C 0.81807 0.37586 0.35449 0.0
C381 C 0.91456 0.44643 0.47236 0.0
C382 C 0.94893 0.44822 0.47086 0.0
C383 C 0.88826 0.42423 0.44908 0.0
C384 C 0.89541 0.40262 0.42415 0.0
C385 C 0.92945 0.40314 0.42337 0.0
C386 C 0.95609 0.42604 0.44633 0.0
H387 H 0.68417 0.75414 0.41735 0.0
H388 H 0.72539 0.84629 0.34459 0.0
H389 H 0.65271 0.78697 0.44563 0.0
H390 H 0.6936 0.87919 0.37222 0.0
H391 H 0.66812 0.94189 0.461 0.0
H392 H 0.69641 0.90761 0.43017 0.0
H393 H 0.60621 0.81186 0.43592 0.0
H394 H 0.57824 0.84583 0.46711 0.0
C395 C 0.68565 0.78109 0.40678 0.0
C396 C 0.70662 0.79758 0.3785 0.0
C397 C 0.66776 0.79999 0.423 0.0
C398 C 0.67075 0.83591 0.4114 0.0
C399 C 0.69107 0.85184 0.38223 0.0
C400 C 0.70888 0.83286 0.36601 0.0
C401 C 0.65436 0.91353 0.45571 0.0
C402 C 0.62085 0.89673 0.46644 0.0
C403 C 0.67047 0.8939 0.43777 0.0
C404 C 0.65354 0.85694 0.43029 0.0
C405 C 0.62016 0.84014 0.44142 0.0
C406 C 0.60404 0.85976 0.45918 0.0
H407 H 0.2681 0.60091 0.36803 0.0
H408 H 0.24725 0.70236 0.35892 0.0
H409 H 0.20903 0.56882 0.38092 0.0
H410 H 0.18796 0.66994 0.37312 0.0
H411 H 0.09762 0.51386 0.38606 0.0
H412 H 0.14773 0.55175 0.35559 0.0
H413 H 0.16222 0.63742 0.43037 0.0
H414 H 0.11203 0.59974 0.46087 0.0
C415 C 0.25079 0.61637 0.3678 0.0
C416 C 0.26269 0.65438 0.36239 0.0
C417 C 0.21679 0.59787 0.37533 0.0
C418 C 0.19379 0.61683 0.37801 0.0
C419 C 0.20519 0.65464 0.37148 0.0
C420 C 0.23921 0.67319 0.36351 0.0
C421 C 0.11084 0.54114 0.39545 0.0
C422 C 0.10106 0.55346 0.42639 0.0
C423 C 0.13971 0.56276 0.37807 0.0
C424 C 0.15927 0.59728 0.391 0.0
C425 C 0.14765 0.61096 0.4197 0.0
C426 C 0.11885 0.58927 0.43724 0.0
H427 H 0.44522 0.76587 0.72573 0.0
H428 H 0.36187 0.8083 0.69963 0.0
H429 H 0.48533 0.82189 0.70081 0.0
H430 H 0.40176 0.8646 0.67593 0.0
H431 H 0.55466 0.93538 0.67262 0.0
H432 H 0.51503 0.88543 0.70608 0.0
H433 H 0.43258 0.88522 0.62398 0.0
H434 H 0.47171 0.93567 0.59139 0.0
C435 C 0.43563 0.78745 0.71525 0.0
C436 C 0.40037 0.78251 0.71417 0.0
C437 C 0.4586 0.81968 0.70107 0.0
C438 C 0.44684 0.84785 0.68589 0.0
C439 C 0.41173 0.84331 0.68645 0.0
C440 C 0.38883 0.81105 0.7002 0.0
C441 C 0.52791 0.92514 0.6621 0.0
C442 C 0.51649 0.93968 0.62922 0.0
C443 C 0.50522 0.89616 0.68112 0.0
C444 C 0.47054 0.88086 0.6677 0.0
C445 C 0.4589 0.89643 0.63559 0.0
C446 C 0.48148 0.92549 0.61674 0.0
H447 H 0.25982 0.30845 0.63301 0.0
H448 H 0.32606 0.41112 0.675 0.0
H449 H 0.21572 0.33545 0.61199 0.0
H450 H 0.28161 0.43832 0.65509 0.0
H451 H 0.21811 0.48512 0.57039 0.0
H452 H 0.25864 0.45635 0.59772 0.0
H453 H 0.17414 0.36138 0.62699 0.0
H454 H 0.13331 0.39004 0.59848 0.0
C455 C 0.26442 0.33663 0.63863 0.0
C456 C 0.29599 0.35776 0.65578 0.0
C457 C 0.23918 0.35214 0.62663 0.0
C458 C 0.2451 0.38921 0.63151 0.0
C459 C 0.27636 0.40987 0.65026 0.0
C460 C 0.30167 0.39431 0.6621 0.0
C461 C 0.20806 0.45812 0.58273 0.0
C462 C 0.17239 0.43996 0.58239 0.0
C463 C 0.2314 0.4417 0.59873 0.0
C464 C 0.2198 0.40668 0.61512 0.0
C465 C 0.18406 0.38831 0.6145 0.0
C466 C 0.16061 0.40473 0.59821 0.0
H467 H 0.77652 0.22351 0.68443 0.0
H468 H 0.69238 0.2577 0.70854 0.0
H469 H 0.73624 0.17516 0.6466 0.0
H470 H 0.65243 0.20964 0.67109 0.0
H471 H 0.60285 0.15558 0.564 0.0
H472 H 0.64559 0.19996 0.60235 0.0
H473 H 0.68209 0.11588 0.65345 0.0
H474 H 0.63855 0.0706 0.61494 0.0
C475 C 0.74947 0.22063 0.68171 0.0
C476 C 0.73759 0.24442 0.6994 0.0
C477 C 0.72645 0.19284 0.66035 0.0
C478 C 0.69128 0.18877 0.65583 0.0
C479 C 0.67945 0.21231 0.67387 0.0
C480 C 0.70228 0.23967 0.69551 0.0
C481 C 0.61991 0.14627 0.58327 0.0
C482 C 0.61694 0.10931 0.58661 0.0
C483 C 0.64438 0.17183 0.60536 0.0
C484 C 0.66688 0.16132 0.63116 0.0
C485 C 0.665 0.12467 0.63373 0.0
C486 C 0.64006 0.0988 0.61178 0.0
H487 H 0.77845 0.61522 0.57837 0.0
H488 H 0.83949 0.65867 0.67786 0.0
H489 H 0.8271 0.60271 0.55746 0.0
H490 H 0.88778 0.64449 0.65769 0.0
H491 H 0.97793 0.64783 0.59446 0.0
H492 H 0.92968 0.66385 0.61193 0.0
H493 H 0.8591 0.56182 0.57181 0.0
H494 H 0.90701 0.54617 0.55371 0.0
C495 C 0.80228 0.62209 0.5958 0.0
C496 C 0.80518 0.63811 0.62971 0.0
C497 C 0.83005 0.61457 0.58397 0.0
C498 C 0.86133 0.62266 0.60588 0.0
C499 C 0.86417 0.6384 0.63995 0.0
C500 C 0.83638 0.64604 0.65174 0.0
C501 C 0.95208 0.62899 0.58908 0.0
C502 C 0.94633 0.59568 0.57283 0.0
C503 C 0.92448 0.63804 0.59935 0.0
C504 C 0.89059 0.61398 0.59353 0.0
C505 C 0.88484 0.58112 0.57638 0.0
C506 C 0.91238 0.57209 0.56614 0.0
H507 H 0.44875 0.37269 0.34203 0.0
H508 H 0.34246 0.36255 0.31294 0.0
H509 H 0.46379 0.4007 0.2822 0.0
H510 H 0.35764 0.39108 0.25242 0.0
H511 H 0.48866 0.47818 0.18757 0.0
H512 H 0.46666 0.45769 0.24688 0.0
H513 H 0.37968 0.3749 0.19518 0.0
H514 H 0.40151 0.39585 0.13515 0.0
C515 C 0.42859 0.37659 0.32278 0.0
C516 C 0.39441 0.36524 0.33205 0.0
C517 C 0.43725 0.39294 0.2886 0.0
C518 C 0.41192 0.39826 0.26261 0.0
C519 C 0.37767 0.38722 0.27187 0.0
C520 C 0.36903 0.37115 0.30648 0.0
C521 C 0.46453 0.456 0.18856 0.0
C522 C 0.44712 0.43835 0.15653 0.0
C523 C 0.452 0.44416 0.22268 0.0
C524 C 0.42175 0.4143 0.22579 0.0
C525 C 0.40306 0.39803 0.19364 0.0
C526 C 0.41565 0.40994 0.15929 0.0
H527 H 0.38027 0.65705 0.89638 0.0
H528 H 0.44868 0.6805 0.81011 0.0
H529 H 0.42023 0.63462 0.93633 0.0
H530 H 0.48881 0.65773 0.84981 0.0
H531 H 0.56612 0.64211 0.9409 0.0
H532 H 0.52804 0.67004 0.90583 0.0
H533 H 0.43986 0.58191 0.93975 0.0
H534 H 0.47798 0.55391 0.97525 0.0
C535 C 0.40419 0.65781 0.88624 0.0
C536 C 0.41174 0.6707 0.85049 0.0
C537 C 0.4269 0.64466 0.90894 0.0
C538 C 0.45767 0.64417 0.89628 0.0
C539 C 0.46553 0.65806 0.8606 0.0
C540 C 0.44265 0.67108 0.83783 0.0
C541 C 0.53861 0.62874 0.94128 0.0
C542 C 0.52521 0.59558 0.96097 0.0
C543 C 0.51677 0.64472 0.92087 0.0
C544 C 0.48089 0.62815 0.9197 0.0
C545 C 0.46739 0.5956 0.94028 0.0
C546 C 0.48927 0.57947 0.9606 0.0
H547 H 0.46142 0.32688 0.78664 0.0
H548 H 0.36945 0.35594 0.78705 0.0
H549 H 0.48512 0.36053 0.84195 0.0
H550 H 0.39495 0.392 0.84105 0.0
H551 H 0.4915 0.49245 0.89573 0.0
H552 H 0.45611 0.45162 0.84827 0.0
H553 H 0.46627 0.35952 0.91348 0.0
H554 H 0.50069 0.40042 0.96177 0.0
C555 C 0.44579 0.33974 0.79857 0.0
C556 C 0.41311 0.33813 0.78185 0.0
C557 C 0.45968 0.35933 0.83032 0.0
C558 C 0.44182 0.3787 0.84586 0.0
C559 C 0.40925 0.37726 0.82957 0.0
C560 C 0.39486 0.35683 0.7983 0.0
C561 C 0.48528 0.46339 0.90038 0.0
C562 C 0.49856 0.44954 0.93252 0.0
C563 C 0.46507 0.44008 0.87325 0.0
C564 C 0.45854 0.40247 0.8772 0.0
C565 C 0.47089 0.38843 0.90984 0.0
C566 C 0.49033 0.41175 0.93753 0.0
H567 H 0.75737 0.35831 0.89114 0.0
H568 H 0.72841 0.3895 0.78131 0.0
H569 H 0.72915 0.39624 0.91597 0.0
H570 H 0.70075 0.42853 0.80586 0.0
H571 H 0.69338 0.48368 0.95298 0.0
H572 H 0.72922 0.45631 0.92471 0.0
H573 H 0.64993 0.42018 0.83619 0.0
H574 H 0.61465 0.44836 0.86386 0.0
C575 C 0.74554 0.37406 0.87239 0.0
C576 C 0.74502 0.3713 0.83448 0.0
C577 C 0.72949 0.39593 0.88653 0.0
C578 C 0.71253 0.41549 0.86297 0.0
C579 C 0.71314 0.41351 0.82483 0.0
C580 C 0.72918 0.39148 0.81072 0.0
C581 C 0.68375 0.4702 0.9273 0.0
C582 C 0.65098 0.46792 0.91091 0.0
C583 C 0.70424 0.45434 0.91115 0.0
C584 C 0.69243 0.43572 0.87825 0.0
C585 C 0.66012 0.4346 0.86126 0.0
C586 C 0.63971 0.45055 0.87734 0.0
H587 H 0.72873 0.58427 0.72399 0.0
H588 H 0.72372 0.69115 0.73732 0.0
H589 H 0.70859 0.56543 0.78476 0.0
H590 H 0.70351 0.67219 0.79848 0.0
H591 H 0.62538 0.53683 0.86871 0.0
H592 H 0.65123 0.55638 0.811 0.0
H593 H 0.72534 0.6504 0.8623 0.0
H594 H 0.69986 0.63039 0.92077 0.0
C595 C 0.72365 0.60385 0.74012 0.0
C596 C 0.72784 0.6392 0.72598 0.0
C597 C 0.71195 0.59299 0.77478 0.0
C598 C 0.70455 0.61736 0.7963 0.0
C599 C 0.70933 0.65297 0.78254 0.0
C600 C 0.72059 0.66371 0.74752 0.0
C601 C 0.64752 0.56135 0.86802 0.0
C602 C 0.66066 0.5819 0.8995 0.0
C603 C 0.66231 0.57256 0.83487 0.0
C604 C 0.69022 0.60494 0.83217 0.0
C605 C 0.70368 0.62543 0.86362 0.0
C606 C 0.68924 0.61383 0.89709 0.0
H607 H 0.66942 0.67815 0.28534 0.0
H608 H 0.7578 0.67235 0.23631 0.0
H609 H 0.63195 0.64643 0.23358 0.0
H610 H 0.72024 0.64012 0.18478 0.0
H611 H 0.63889 0.60258 0.08414 0.0
H612 H 0.67788 0.64354 0.13008 0.0
H613 H 0.61577 0.58252 0.21538 0.0
H614 H 0.57768 0.54211 0.17058 0.0
C615 C 0.68092 0.6706 0.26329 0.0
C616 C 0.71658 0.67744 0.26526 0.0
C617 C 0.65944 0.65219 0.2337 0.0
C618 C 0.67306 0.64041 0.20514 0.0
C619 C 0.7089 0.64889 0.20618 0.0
C620 C 0.73036 0.66703 0.23594 0.0
C621 C 0.63365 0.59805 0.1127 0.0
C622 C 0.605 0.56901 0.12344 0.0
C623 C 0.65596 0.62144 0.139 0.0
C624 C 0.64968 0.61658 0.1764 0.0
C625 C 0.62106 0.5876 0.18685 0.0
C626 C 0.59926 0.56416 0.16093 0.0
H627 H 0.35026 0.56738 0.28201 0.0
H628 H 0.40384 0.6752 0.24038 0.0
H629 H 0.37177 0.54137 0.23427 0.0
H630 H 0.42562 0.64947 0.19314 0.0
H631 H 0.50331 0.58899 0.17634 0.0
H632 H 0.4695 0.61327 0.21127 0.0
H633 H 0.37578 0.54029 0.1592 0.0
H634 H 0.40995 0.51622 0.12316 0.0
C635 C 0.36551 0.58534 0.26174 0.0
C636 C 0.37529 0.62313 0.26437 0.0
C637 C 0.37783 0.57054 0.23456 0.0
C638 C 0.40048 0.5935 0.21028 0.0
C639 C 0.40824 0.63125 0.2116 0.0
C640 C 0.39566 0.64594 0.23841 0.0
C641 C 0.47551 0.57819 0.17211 0.0
C642 C 0.45924 0.55083 0.14695 0.0
C643 C 0.45618 0.59226 0.19195 0.0
C644 C 0.4201 0.57886 0.18762 0.0
C645 C 0.40361 0.55115 0.16279 0.0
C646 C 0.42309 0.53754 0.14219 0.0
H647 H 0.65464 0.32619 0.23511 0.0
H648 H 0.72437 0.3569 0.14984 0.0
H649 H 0.61592 0.35339 0.19879 0.0
H650 H 0.68572 0.38359 0.11309 0.0
H651 H 0.62768 0.4643 0.07883 0.0
H652 H 0.66565 0.43517 0.1127 0.0
H653 H 0.57727 0.34532 0.14324 0.0
H654 H 0.53933 0.37452 0.10998 0.0
C655 C 0.66141 0.33852 0.20842 0.0
C656 C 0.69222 0.33951 0.19505 0.0
C657 C 0.63928 0.35396 0.18752 0.0
C658 C 0.64768 0.37076 0.15293 0.0
C659 C 0.6786 0.37135 0.13971 0.0
C660 C 0.70061 0.35587 0.16058 0.0
C661 C 0.6163 0.43818 0.09247 0.0
C662 C 0.58034 0.42192 0.09166 0.0
C663 C 0.63812 0.4214 0.11186 0.0
C664 C 0.62455 0.38796 0.13098 0.0
C665 C 0.58863 0.37133 0.12941 0.0
C666 C 0.56685 0.38803 0.11001 0.0
loop_
_geom_bond_atom_site_label_1
_geom_bond_atom_site_label_2
_geom_bond_distance
_geom_bond_site_symmetry_2
_ccdc_geom_bond_type
H0 C3 0.929 . S
H1 C6 0.929 . S
H2 C8 0.930 . S
C3 H0 0.929 . S
C3 C4 1.398 . S
C3 C5 1.396 . S
C4 C3 1.398 . S
C4 C8 1.407 . S
C5 C3 1.396 . S
C5 C6 1.394 . S
C6 H1 0.929 . S
C6 C5 1.394 . S
C6 C7 1.382 . S
C7 C6 1.382 . S
C7 C8 1.392 . S
C7 N9 1.420 . S
C8 H2 0.930 . S
C8 C4 1.407 . S
C8 C7 1.392 . S
N9 C7 1.420 . S
N9 C10 1.244 . S
C10 N9 1.244 . S
H11 C14 0.929 . S
H12 C17 0.929 . S
H13 C19 0.930 . S
C14 H11 0.929 . S
C14 C15 1.398 . S
C14 C16 1.396 . S
C15 C14 1.398 . S
C15 C19 1.407 . S
C16 C14 1.396 . S
C16 C17 1.394 . S
C17 H12 0.929 . S
C17 C16 1.394 . S
C17 C18 1.382 . S
C18 C17 1.382 . S
C18 C19 1.392 . S
C18 N20 1.420 . S
C19 H13 0.930 . S
C19 C15 1.407 . S
C19 C18 1.392 . S
N20 C18 1.420 . S
N20 C21 1.244 . S
C21 N20 1.244 . S
H22 C25 0.929 . S
H23 C28 0.929 . S
H24 C30 0.930 . S
C25 H22 0.929 . S
C25 C26 1.398 . S
C25 C27 1.396 . S
C26 C25 1.398 . S
C26 C30 1.407 . S
C27 C25 1.396 . S
C27 C28 1.394 . S
C28 H23 0.929 . S
C28 C27 1.394 . S
C28 C29 1.382 . S
C29 C28 1.382 . S
C29 C30 1.392 . S
C29 N31 1.420 . S
C30 H24 0.930 . S
C30 C26 1.407 . S
C30 C29 1.392 . S
N31 C29 1.420 . S
N31 C32 1.244 . S
C32 N31 1.244 . S
H33 C36 0.929 . S
H34 C39 0.929 . S
H35 C41 0.930 . S
C36 H33 0.929 . S
C36 C37 1.398 . S
C36 C38 1.396 . S
C37 C36 1.398 . S
C37 C41 1.407 . S
C38 C36 1.396 . S
C38 C39 1.394 . S
C39 H34 0.929 . S
C39 C38 1.394 . S
C39 C40 1.382 . S
C40 C39 1.382 . S
C40 C41 1.392 . S
C40 N42 1.420 . S
C41 H35 0.930 . S
C41 C37 1.407 . S
C41 C40 1.392 . S
N42 C40 1.420 . S
N42 C43 1.244 . S
C43 N42 1.244 . S
H44 C47 0.929 . S
H45 C50 0.929 . S
H46 C52 0.930 . S
C47 H44 0.929 . S
C47 C48 1.398 . S
C47 C49 1.396 . S
C48 C47 1.398 . S
C48 C52 1.407 . S
C49 C47 1.396 . S
C49 C50 1.394 . S
C50 H45 0.929 . S
C50 C49 1.394 . S
C50 C51 1.382 . S
C51 C50 1.382 . S
C51 C52 1.392 . S
C51 N53 1.420 . S
C52 H46 0.930 . S
C52 C48 1.407 . S
C52 C51 1.392 . S
N53 C51 1.420 . S
N53 C54 1.244 . S
C54 N53 1.244 . S
H55 C58 0.929 . S
H56 C61 0.929 . S
H57 C63 0.930 . S
C58 H55 0.929 . S
C58 C59 1.398 . S
C58 C60 1.396 . S
C59 C58 1.398 . S
C59 C63 1.407 . S
C60 C58 1.396 . S
C60 C61 1.394 . S
C61 H56 0.929 . S
C61 C60 1.394 . S
C61 C62 1.382 . S
C62 C61 1.382 . S
C62 C63 1.392 . S
C62 N64 1.420 . S
C63 H57 0.930 . S
C63 C59 1.407 . S
C63 C62 1.392 . S
N64 C62 1.420 . S
N64 C65 1.244 . S
C65 N64 1.244 . S
H66 C69 0.929 . S
H67 C72 0.929 . S
H68 C74 0.930 . S
C69 H66 0.929 . S
C69 C70 1.398 . S
C69 C71 1.396 . S
C70 C69 1.398 . S
C70 C74 1.407 . S
C71 C69 1.396 . S
C71 C72 1.394 . S
C72 H67 0.929 . S
C72 C71 1.394 . S
C72 C73 1.382 . S
C73 C72 1.382 . S
C73 C74 1.392 . S
C73 N75 1.420 . S
C74 H68 0.930 . S
C74 C70 1.407 . S
C74 C73 1.392 . S
N75 C73 1.420 . S
N75 C76 1.244 . S
C76 N75 1.244 . S
H77 C80 0.929 . S
H78 C83 0.929 . S
H79 C85 0.930 . S
C80 H77 0.929 . S
C80 C81 1.398 . S
C80 C82 1.396 . S
C81 C80 1.398 . S
C81 C85 1.407 . S
C82 C80 1.396 . S
C82 C83 1.394 . S
C83 H78 0.929 . S
C83 C82 1.394 . S
C83 C84 1.382 . S
C84 C83 1.382 . S
C84 C85 1.392 . S
C84 N86 1.420 . S
C85 H79 0.930 . S
C85 C81 1.407 . S
C85 C84 1.392 . S
N86 C84 1.420 . S
N86 C87 1.244 . S
C87 N86 1.244 . S
Co88 O91 2.042 . S
Co88 O98 2.264 . S
Co88 O117 2.286 . S
Co88 O118 2.069 . S
Co88 O120 2.015 . S
Co89 O91 2.122 . S
Co89 O97 2.073 . S
Co89 O98 2.327 . S
Co89 O99 1.976 . S
Co90 O91 2.087 . S
Co90 O93 2.087 . S
Co90 O100 2.111 . S
Co90 O101 2.143 1_455 S
Co90 O105 2.111 . S
Co90 O119 2.143 . S
O91 Co88 2.042 . S
O91 Co89 2.122 . S
O91 Co90 2.087 . S
O91 H92 0.980 . S
H92 O91 0.980 . S
O93 Co90 2.087 . S
O93 Co94 2.042 1_455 S
O93 Co95 2.122 1_455 S
O93 H96 0.980 . S
Co94 O93 2.042 1_655 S
Co94 O102 2.286 . S
Co94 O103 2.069 . S
Co94 O104 2.015 . S
Co94 O107 2.264 . S
Co95 O93 2.122 1_655 S
Co95 O106 1.976 . S
Co95 O107 2.327 . S
Co95 O108 2.073 . S
H96 O93 0.980 . S
O97 Co89 2.073 . S
O97 C112 1.245 . S
O98 Co88 2.264 . S
O98 Co89 2.327 . S
O98 C112 1.257 . S
O99 Co89 1.976 . S
O99 C111 1.251 . S
O100 Co90 2.111 . S
O100 C111 1.274 . S
O101 Co90 2.143 1_655 S
O101 C114 1.246 . S
O102 Co94 2.286 . S
O102 C113 1.259 . S
O103 Co94 2.069 . S
O103 C113 1.289 . S
O104 Co94 2.015 . S
O104 C114 1.257 . S
O105 Co90 2.111 . S
O105 C115 1.274 1_455 S
O106 Co95 1.976 . S
O106 C115 1.251 . S
O107 Co94 2.264 . S
O107 Co95 2.327 . S
O107 C116 1.257 . S
O108 Co95 2.073 . S
O108 C116 1.245 . S
C109 O117 1.259 . S
C109 O118 1.289 . S
C110 O119 1.246 . S
C110 O120 1.257 . S
C111 O99 1.251 . S
C111 O100 1.274 . S
C112 O97 1.245 . S
C112 O98 1.257 . S
C113 O102 1.259 . S
C113 O103 1.289 . S
C114 O101 1.246 . S
C114 O104 1.257 . S
C115 O105 1.274 1_655 S
C115 O106 1.251 . S
C116 O107 1.257 . S
C116 O108 1.245 . S
O117 Co88 2.286 . S
O117 C109 1.259 . S
O118 Co88 2.069 . S
O118 C109 1.289 . S
O119 Co90 2.143 . S
O119 C110 1.246 . S
O120 Co88 2.015 . S
O120 C110 1.257 . S
Co121 O124 2.042 . S
Co121 O131 2.264 . S
Co121 O150 2.286 . S
Co121 O151 2.069 . S
Co121 O153 2.015 . S
Co122 O124 2.122 . S
Co122 O130 2.073 . S
Co122 O131 2.327 . S
Co122 O132 1.976 . S
Co123 O124 2.087 1_545 S
Co123 O126 2.087 . S
Co123 O133 2.111 1_545 S
Co123 O134 2.143 . S
Co123 O138 2.111 . S
Co123 O152 2.143 1_545 S
O124 Co121 2.042 . S
O124 Co122 2.122 . S
O124 Co123 2.087 1_565 S
O124 H125 0.980 1_565 S
H125 O124 0.980 1_545 S
O126 Co123 2.087 . S
O126 Co127 2.042 . S
O126 Co128 2.122 . S
O126 H129 0.980 . S
Co127 O126 2.042 . S
Co127 O135 2.286 . S
Co127 O136 2.069 . S
Co127 O137 2.015 . S
Co127 O140 2.264 . S
Co128 O126 2.122 . S
Co128 O139 1.976 . S
Co128 O140 2.327 . S
Co128 O141 2.073 . S
H129 O126 0.980 . S
O130 Co122 2.073 . S
O130 C145 1.245 . S
O131 Co121 2.264 . S
O131 Co122 2.327 . S
O131 C145 1.257 . S
O132 Co122 1.976 . S
O132 C144 1.251 . S
O133 Co123 2.111 1_565 S
O133 C144 1.274 . S
O134 Co123 2.143 . S
O134 C147 1.246 . S
O135 Co127 2.286 . S
O135 C146 1.259 . S
O136 Co127 2.069 . S
O136 C146 1.289 . S
O137 Co127 2.015 . S
O137 C147 1.257 . S
O138 Co123 2.111 . S
O138 C148 1.274 . S
O139 Co128 1.976 . S
O139 C148 1.251 . S
O140 Co127 2.264 . S
O140 Co128 2.327 . S
O140 C149 1.257 . S
O141 Co128 2.073 . S
O141 C149 1.245 . S
C142 O150 1.259 . S
C142 O151 1.289 . S
C143 O152 1.246 . S
C143 O153 1.257 . S
C144 O132 1.251 . S
C144 O133 1.274 . S
C145 O130 1.245 . S
C145 O131 1.257 . S
C146 O135 1.259 . S
C146 O136 1.289 . S
C147 O134 1.246 . S
C147 O137 1.257 . S
C148 O138 1.274 . S
C148 O139 1.251 . S
C149 O140 1.257 . S
C149 O141 1.245 . S
O150 Co121 2.286 . S
O150 C142 1.259 . S
O151 Co121 2.069 . S
O151 C142 1.289 . S
O152 Co123 2.143 1_565 S
O152 C143 1.246 . S
O153 Co121 2.015 . S
O153 C143 1.257 . S
Co154 O157 2.042 . S
Co154 O164 2.264 . S
Co154 O183 2.286 . S
Co154 O184 2.069 . S
Co154 O186 2.015 . S
Co155 O157 2.122 . S
Co155 O163 2.073 . S
Co155 O164 2.327 . S
Co155 O165 1.976 . S
Co156 O157 2.087 . S
Co156 O159 2.087 1_554 S
Co156 O166 2.111 . S
Co156 O167 2.143 1_554 S
Co156 O171 2.111 1_554 S
Co156 O185 2.143 . S
O157 Co154 2.042 . S
O157 Co155 2.122 . S
O157 Co156 2.087 . S
O157 H158 0.980 . S
H158 O157 0.980 . S
O159 Co156 2.087 1_556 S
O159 Co160 2.042 . S
O159 Co161 2.122 . S
O159 H162 0.980 . S
Co160 O159 2.042 . S
Co160 O168 2.286 . S
Co160 O169 2.069 . S
Co160 O170 2.015 . S
Co160 O173 2.264 . S
Co161 O159 2.122 . S
Co161 O172 1.976 . S
Co161 O173 2.327 . S
Co161 O174 2.073 . S
H162 O159 0.980 . S
O163 Co155 2.073 . S
O163 C178 1.245 . S
O164 Co154 2.264 . S
O164 Co155 2.327 . S
O164 C178 1.257 . S
O165 Co155 1.976 . S
O165 C177 1.251 . S
O166 Co156 2.111 . S
O166 C177 1.274 . S
O167 Co156 2.143 1_556 S
O167 C180 1.246 . S
O168 Co160 2.286 . S
O168 C179 1.259 . S
O169 Co160 2.069 . S
O169 C179 1.289 . S
O170 Co160 2.015 . S
O170 C180 1.257 . S
O171 Co156 2.111 1_556 S
O171 C181 1.274 . S
O172 Co161 1.976 . S
O172 C181 1.251 . S
O173 Co160 2.264 . S
O173 Co161 2.327 . S
O173 C182 1.257 . S
O174 Co161 2.073 . S
O174 C182 1.245 . S
C175 O183 1.259 . S
C175 O184 1.289 . S
C176 O185 1.246 . S
C176 O186 1.257 . S
C177 O165 1.251 . S
C177 O166 1.274 . S
C178 O163 1.245 . S
C178 O164 1.257 . S
C179 O168 1.259 . S
C179 O169 1.289 . S
C180 O167 1.246 . S
C180 O170 1.257 . S
C181 O171 1.274 . S
C181 O172 1.251 . S
C182 O173 1.257 . S
C182 O174 1.245 . S
O183 Co154 2.286 . S
O183 C175 1.259 . S
O184 Co154 2.069 . S
O184 C175 1.289 . S
O185 Co156 2.143 . S
O185 C176 1.246 . S
O186 Co154 2.015 . S
O186 C176 1.257 . S
H187 C195 0.950 . S
H188 C200 0.950 . S
H189 C197 0.950 . S
H190 C199 0.950 . S
H191 C201 0.950 . S
H192 C203 0.950 . S
H193 C205 0.950 . S
H194 C206 0.950 . S
C195 H187 0.950 . S
C195 C196 1.386 . S
C195 C197 1.391 . S
C196 C195 1.386 . S
C196 C200 1.393 . S
C197 H189 0.950 . S
C197 C195 1.391 . S
C197 C198 1.400 . S
C198 C197 1.400 . S
C198 C199 1.398 . S
C198 C204 1.491 . S
C199 H190 0.950 . S
C199 C198 1.398 . S
C199 C200 1.391 . S
C200 H188 0.950 . S
C200 C196 1.393 . S
C200 C199 1.391 . S
C201 H191 0.950 . S
C201 C202 1.386 . S
C201 C203 1.391 . S
C202 C201 1.386 . S
C202 C206 1.393 . S
C203 H192 0.950 . S
C203 C201 1.391 . S
C203 C204 1.400 . S
C204 C198 1.491 . S
C204 C203 1.400 . S
C204 C205 1.398 . S
C205 H193 0.950 . S
C205 C204 1.398 . S
C205 C206 1.391 . S
C206 H194 0.950 . S
C206 C202 1.393 . S
C206 C205 1.391 . S
H207 C215 0.950 . S
H208 C220 0.950 . S
H209 C217 0.950 . S
H210 C219 0.950 . S
H211 C221 0.950 . S
H212 C223 0.950 . S
H213 C225 0.950 . S
H214 C226 0.950 . S
C215 H207 0.950 . S
C215 C216 1.386 . S
C215 C217 1.391 . S
C216 C215 1.386 . S
C216 C220 1.393 . S
C217 H209 0.950 . S
C217 C215 1.391 . S
C217 C218 1.400 . S
C218 C217 1.400 . S
C218 C219 1.398 . S
C218 C224 1.491 . S
C219 H210 0.950 . S
C219 C218 1.398 . S
C219 C220 1.391 . S
C220 H208 0.950 . S
C220 C216 1.393 . S
C220 C219 1.391 . S
C221 H211 0.950 . S
C221 C222 1.386 . S
C221 C223 1.391 . S
C222 C221 1.386 . S
C222 C226 1.393 . S
C223 H212 0.950 . S
C223 C221 1.391 . S
C223 C224 1.400 . S
C224 C218 1.491 . S
C224 C223 1.400 . S
C224 C225 1.398 . S
C225 H213 0.950 . S
C225 C224 1.398 . S
C225 C226 1.391 . S
C226 H214 0.950 . S
C226 C222 1.393 . S
C226 C225 1.391 . S
H227 C235 0.950 . S
H228 C240 0.950 . S
H229 C237 0.950 . S
H230 C239 0.950 . S
H231 C241 0.950 . S
H232 C243 0.950 . S
H233 C245 0.950 . S
H234 C246 0.950 . S
C235 H227 0.950 . S
C235 C236 1.386 . S
C235 C237 1.391 . S
C236 C235 1.386 . S
C236 C240 1.393 . S
C237 H229 0.950 . S
C237 C235 1.391 . S
C237 C238 1.400 . S
C238 C237 1.400 . S
C238 C239 1.398 . S
C238 C244 1.491 . S
C239 H230 0.950 . S
C239 C238 1.398 . S
C239 C240 1.391 . S
C240 H228 0.950 . S
C240 C236 1.393 . S
C240 C239 1.391 . S
C241 H231 0.950 . S
C241 C242 1.386 . S
C241 C243 1.391 . S
C242 C241 1.386 . S
C242 C246 1.393 . S
C243 H232 0.950 . S
C243 C241 1.391 . S
C243 C244 1.400 . S
C244 C238 1.491 . S
C244 C243 1.400 . S
C244 C245 1.398 . S
C245 H233 0.950 . S
C245 C244 1.398 . S
C245 C246 1.391 . S
C246 H234 0.950 . S
C246 C242 1.393 . S
C246 C245 1.391 . S
H247 C255 0.950 . S
H248 C260 0.950 . S
H249 C257 0.950 . S
H250 C259 0.950 . S
H251 C261 0.950 . S
H252 C263 0.950 . S
H253 C265 0.950 . S
H254 C266 0.950 . S
C255 H247 0.950 . S
C255 C256 1.386 . S
C255 C257 1.391 . S
C256 C255 1.386 . S
C256 C260 1.393 . S
C257 H249 0.950 . S
C257 C255 1.391 . S
C257 C258 1.400 . S
C258 C257 1.400 . S
C258 C259 1.398 . S
C258 C264 1.491 . S
C259 H250 0.950 . S
C259 C258 1.398 . S
C259 C260 1.391 . S
C260 H248 0.950 . S
C260 C256 1.393 . S
C260 C259 1.391 . S
C261 H251 0.950 . S
C261 C262 1.386 . S
C261 C263 1.391 . S
C262 C261 1.386 . S
C262 C266 1.393 . S
C263 H252 0.950 . S
C263 C261 1.391 . S
C263 C264 1.400 . S
C264 C258 1.491 . S
C264 C263 1.400 . S
C264 C265 1.398 . S
C265 H253 0.950 . S
C265 C264 1.398 . S
C265 C266 1.391 . S
C266 H254 0.950 . S
C266 C262 1.393 . S
C266 C265 1.391 . S
H267 C275 0.950 . S
H268 C280 0.950 . S
H269 C277 0.950 . S
H270 C279 0.950 . S
H271 C281 0.950 . S
H272 C283 0.950 . S
H273 C285 0.950 . S
H274 C286 0.950 . S
C275 H267 0.950 . S
C275 C276 1.386 . S
C275 C277 1.391 . S
C276 C275 1.386 . S
C276 C280 1.393 . S
C277 H269 0.950 . S
C277 C275 1.391 . S
C277 C278 1.400 . S
C278 C277 1.400 . S
C278 C279 1.398 . S
C278 C284 1.491 . S
C279 H270 0.950 . S
C279 C278 1.398 . S
C279 C280 1.391 . S
C280 H268 0.950 . S
C280 C276 1.393 . S
C280 C279 1.391 . S
C281 H271 0.950 . S
C281 C282 1.386 . S
C281 C283 1.391 . S
C282 C281 1.386 . S
C282 C286 1.393 . S
C283 H272 0.950 . S
C283 C281 1.391 . S
C283 C284 1.400 . S
C284 C278 1.491 . S
C284 C283 1.400 . S
C284 C285 1.398 . S
C285 H273 0.950 . S
C285 C284 1.398 . S
C285 C286 1.391 . S
C286 H274 0.950 . S
C286 C282 1.393 . S
C286 C285 1.391 . S
H287 C295 0.950 . S
H288 C300 0.950 . S
H289 C297 0.950 . S
H290 C299 0.950 . S
H291 C301 0.950 . S
H292 C303 0.950 . S
H293 C305 0.950 . S
H294 C306 0.950 . S
C295 H287 0.950 . S
C295 C296 1.386 . S
C295 C297 1.391 . S
C296 C295 1.386 . S
C296 C300 1.393 . S
C297 H289 0.950 . S
C297 C295 1.391 . S
C297 C298 1.400 . S
C298 C297 1.400 . S
C298 C299 1.398 . S
C298 C304 1.491 . S
C299 H290 0.950 . S
C299 C298 1.398 . S
C299 C300 1.391 . S
C300 H288 0.950 . S
C300 C296 1.393 . S
C300 C299 1.391 . S
C301 H291 0.950 . S
C301 C302 1.386 . S
C301 C303 1.391 . S
C302 C301 1.386 . S
C302 C306 1.393 . S
C303 H292 0.950 . S
C303 C301 1.391 . S
C303 C304 1.400 . S
C304 C298 1.491 . S
C304 C303 1.400 . S
C304 C305 1.398 . S
C305 H293 0.950 . S
C305 C304 1.398 . S
C305 C306 1.391 . S
C306 H294 0.950 . S
C306 C302 1.393 . S
C306 C305 1.391 . S
H307 C315 0.950 . S
H308 C320 0.950 . S
H309 C317 0.950 . S
H310 C319 0.950 . S
H311 C321 0.950 . S
H312 C323 0.950 . S
H313 C325 0.950 . S
H314 C326 0.950 . S
C315 H307 0.950 . S
C315 C316 1.386 . S
C315 C317 1.391 . S
C316 C315 1.386 . S
C316 C320 1.393 . S
C317 H309 0.950 . S
C317 C315 1.391 . S
C317 C318 1.400 . S
C318 C317 1.400 . S
C318 C319 1.398 . S
C318 C324 1.491 . S
C319 H310 0.950 . S
C319 C318 1.398 . S
C319 C320 1.391 . S
C320 H308 0.950 . S
C320 C316 1.393 . S
C320 C319 1.391 . S
C321 H311 0.950 . S
C321 C322 1.386 . S
C321 C323 1.391 . S
C322 C321 1.386 . S
C322 C326 1.393 . S
C323 H312 0.950 . S
C323 C321 1.391 . S
C323 C324 1.400 . S
C324 C318 1.491 . S
C324 C323 1.400 . S
C324 C325 1.398 . S
C325 H313 0.950 . S
C325 C324 1.398 . S
C325 C326 1.391 . S
C326 H314 0.950 . S
C326 C322 1.393 . S
C326 C325 1.391 . S
H327 C335 0.950 . S
H328 C340 0.950 . S
H329 C337 0.950 . S
H330 C339 0.950 . S
H331 C341 0.950 . S
H332 C343 0.950 . S
H333 C345 0.950 . S
H334 C346 0.950 . S
C335 H327 0.950 . S
C335 C336 1.386 . S
C335 C337 1.391 . S
C336 C335 1.386 . S
C336 C340 1.393 . S
C337 H329 0.950 . S
C337 C335 1.391 . S
C337 C338 1.400 . S
C338 C337 1.400 . S
C338 C339 1.398 . S
C338 C344 1.491 . S
C339 H330 0.950 . S
C339 C338 1.398 . S
C339 C340 1.391 . S
C340 H328 0.950 . S
C340 C336 1.393 . S
C340 C339 1.391 . S
C341 H331 0.950 . S
C341 C342 1.386 . S
C341 C343 1.391 . S
C342 C341 1.386 . S
C342 C346 1.393 . S
C343 H332 0.950 . S
C343 C341 1.391 . S
C343 C344 1.400 . S
C344 C338 1.491 . S
C344 C343 1.400 . S
C344 C345 1.398 . S
C345 H333 0.950 . S
C345 C344 1.398 . S
C345 C346 1.391 . S
C346 H334 0.950 . S
C346 C342 1.393 . S
C346 C345 1.391 . S
H347 C355 0.950 . S
H348 C360 0.950 . S
H349 C357 0.950 . S
H350 C359 0.950 . S
H351 C361 0.950 . S
H352 C363 0.950 . S
H353 C365 0.950 . S
H354 C366 0.950 . S
C355 H347 0.950 . S
C355 C356 1.386 . S
C355 C357 1.391 . S
C356 C355 1.386 . S
C356 C360 1.393 . S
C357 H349 0.950 . S
C357 C355 1.391 . S
C357 C358 1.400 . S
C358 C357 1.400 . S
C358 C359 1.398 . S
C358 C364 1.491 . S
C359 H350 0.950 . S
C359 C358 1.398 . S
C359 C360 1.391 . S
C360 H348 0.950 . S
C360 C356 1.393 . S
C360 C359 1.391 . S
C361 H351 0.950 . S
C361 C362 1.386 . S
C361 C363 1.391 . S
C362 C361 1.386 . S
C362 C366 1.393 . S
C363 H352 0.950 . S
C363 C361 1.391 . S
C363 C364 1.400 . S
C364 C358 1.491 . S
C364 C363 1.400 . S
C364 C365 1.398 . S
C365 H353 0.950 . S
C365 C364 1.398 . S
C365 C366 1.391 . S
C366 H354 0.950 . S
C366 C362 1.393 . S
C366 C365 1.391 . S
H367 C375 0.950 . S
H368 C380 0.950 . S
H369 C377 0.950 . S
H370 C379 0.950 . S
H371 C381 0.950 . S
H372 C383 0.950 . S
H373 C385 0.950 . S
H374 C386 0.950 . S
C375 H367 0.950 . S
C375 C376 1.386 . S
C375 C377 1.391 . S
C376 C375 1.386 . S
C376 C380 1.393 . S
C377 H369 0.950 . S
C377 C375 1.391 . S
C377 C378 1.400 . S
C378 C377 1.400 . S
C378 C379 1.398 . S
C378 C384 1.491 . S
C379 H370 0.950 . S
C379 C378 1.398 . S
C379 C380 1.391 . S
C380 H368 0.950 . S
C380 C376 1.393 . S
C380 C379 1.391 . S
C381 H371 0.950 . S
C381 C382 1.386 . S
C381 C383 1.391 . S
C382 C381 1.386 . S
C382 C386 1.393 . S
C383 H372 0.950 . S
C383 C381 1.391 . S
C383 C384 1.400 . S
C384 C378 1.491 . S
C384 C383 1.400 . S
C384 C385 1.398 . S
C385 H373 0.950 . S
C385 C384 1.398 . S
C385 C386 1.391 . S
C386 H374 0.950 . S
C386 C382 1.393 . S
C386 C385 1.391 . S
H387 C395 0.950 . S
H388 C400 0.950 . S
H389 C397 0.950 . S
H390 C399 0.950 . S
H391 C401 0.950 . S
H392 C403 0.950 . S
H393 C405 0.950 . S
H394 C406 0.950 . S
C395 H387 0.950 . S
C395 C396 1.386 . S
C395 C397 1.391 . S
C396 C395 1.386 . S
C396 C400 1.393 . S
C397 H389 0.950 . S
C397 C395 1.391 . S
C397 C398 1.400 . S
C398 C397 1.400 . S
C398 C399 1.398 . S
C398 C404 1.491 . S
C399 H390 0.950 . S
C399 C398 1.398 . S
C399 C400 1.391 . S
C400 H388 0.950 . S
C400 C396 1.393 . S
C400 C399 1.391 . S
C401 H391 0.950 . S
C401 C402 1.386 . S
C401 C403 1.391 . S
C402 C401 1.386 . S
C402 C406 1.393 . S
C403 H392 0.950 . S
C403 C401 1.391 . S
C403 C404 1.400 . S
C404 C398 1.491 . S
C404 C403 1.400 . S
C404 C405 1.398 . S
C405 H393 0.950 . S
C405 C404 1.398 . S
C405 C406 1.391 . S
C406 H394 0.950 . S
C406 C402 1.393 . S
C406 C405 1.391 . S
H407 C415 0.950 . S
H408 C420 0.950 . S
H409 C417 0.950 . S
H410 C419 0.950 . S
H411 C421 0.950 . S
H412 C423 0.950 . S
H413 C425 0.950 . S
H414 C426 0.950 . S
C415 H407 0.950 . S
C415 C416 1.386 . S
C415 C417 1.391 . S
C416 C415 1.386 . S
C416 C420 1.393 . S
C417 H409 0.950 . S
C417 C415 1.391 . S
C417 C418 1.400 . S
C418 C417 1.400 . S
C418 C419 1.398 . S
C418 C424 1.491 . S
C419 H410 0.950 . S
C419 C418 1.398 . S
C419 C420 1.391 . S
C420 H408 0.950 . S
C420 C416 1.393 . S
C420 C419 1.391 . S
C421 H411 0.950 . S
C421 C422 1.386 . S
C421 C423 1.391 . S
C422 C421 1.386 . S
C422 C426 1.393 . S
C423 H412 0.950 . S
C423 C421 1.391 . S
C423 C424 1.400 . S
C424 C418 1.491 . S
C424 C423 1.400 . S
C424 C425 1.398 . S
C425 H413 0.950 . S
C425 C424 1.398 . S
C425 C426 1.391 . S
C426 H414 0.950 . S
C426 C422 1.393 . S
C426 C425 1.391 . S
H427 C435 0.950 . S
H428 C440 0.950 . S
H429 C437 0.950 . S
H430 C439 0.950 . S
H431 C441 0.950 . S
H432 C443 0.950 . S
H433 C445 0.950 . S
H434 C446 0.950 . S
C435 H427 0.950 . S
C435 C436 1.386 . S
C435 C437 1.391 . S
C436 C435 1.386 . S
C436 C440 1.393 . S
C437 H429 0.950 . S
C437 C435 1.391 . S
C437 C438 1.400 . S
C438 C437 1.400 . S
C438 C439 1.398 . S
C438 C444 1.491 . S
C439 H430 0.950 . S
C439 C438 1.398 . S
C439 C440 1.391 . S
C440 H428 0.950 . S
C440 C436 1.393 . S
C440 C439 1.391 . S
C441 H431 0.950 . S
C441 C442 1.386 . S
C441 C443 1.391 . S
C442 C441 1.386 . S
C442 C446 1.393 . S
C443 H432 0.950 . S
C443 C441 1.391 . S
C443 C444 1.400 . S
C444 C438 1.491 . S
C444 C443 1.400 . S
C444 C445 1.398 . S
C445 H433 0.950 . S
C445 C444 1.398 . S
C445 C446 1.391 . S
C446 H434 0.950 . S
C446 C442 1.393 . S
C446 C445 1.391 . S
H447 C455 0.950 . S
H448 C460 0.950 . S
H449 C457 0.950 . S
H450 C459 0.950 . S
H451 C461 0.950 . S
H452 C463 0.950 . S
H453 C465 0.950 . S
H454 C466 0.950 . S
C455 H447 0.950 . S
C455 C456 1.386 . S
C455 C457 1.391 . S
C456 C455 1.386 . S
C456 C460 1.393 . S
C457 H449 0.950 . S
C457 C455 1.391 . S
C457 C458 1.400 . S
C458 C457 1.400 . S
C458 C459 1.398 . S
C458 C464 1.491 . S
C459 H450 0.950 . S
C459 C458 1.398 . S
C459 C460 1.391 . S
C460 H448 0.950 . S
C460 C456 1.393 . S
C460 C459 1.391 . S
C461 H451 0.950 . S
C461 C462 1.386 . S
C461 C463 1.391 . S
C462 C461 1.386 . S
C462 C466 1.393 . S
C463 H452 0.950 . S
C463 C461 1.391 . S
C463 C464 1.400 . S
C464 C458 1.491 . S
C464 C463 1.400 . S
C464 C465 1.398 . S
C465 H453 0.950 . S
C465 C464 1.398 . S
C465 C466 1.391 . S
C466 H454 0.950 . S
C466 C462 1.393 . S
C466 C465 1.391 . S
H467 C475 0.950 . S
H468 C480 0.950 . S
H469 C477 0.950 . S
H470 C479 0.950 . S
H471 C481 0.950 . S
H472 C483 0.950 . S
H473 C485 0.950 . S
H474 C486 0.950 . S
C475 H467 0.950 . S
C475 C476 1.386 . S
C475 C477 1.391 . S
C476 C475 1.386 . S
C476 C480 1.393 . S
C477 H469 0.950 . S
C477 C475 1.391 . S
C477 C478 1.400 . S
C478 C477 1.400 . S
C478 C479 1.398 . S
C478 C484 1.491 . S
C479 H470 0.950 . S
C479 C478 1.398 . S
C479 C480 1.391 . S
C480 H468 0.950 . S
C480 C476 1.393 . S
C480 C479 1.391 . S
C481 H471 0.950 . S
C481 C482 1.386 . S
C481 C483 1.391 . S
C482 C481 1.386 . S
C482 C486 1.393 . S
C483 H472 0.950 . S
C483 C481 1.391 . S
C483 C484 1.400 . S
C484 C478 1.491 . S
C484 C483 1.400 . S
C484 C485 1.398 . S
C485 H473 0.950 . S
C485 C484 1.398 . S
C485 C486 1.391 . S
C486 H474 0.950 . S
C486 C482 1.393 . S
C486 C485 1.391 . S
H487 C495 0.950 . S
H488 C500 0.950 . S
H489 C497 0.950 . S
H490 C499 0.950 . S
H491 C501 0.950 . S
H492 C503 0.950 . S
H493 C505 0.950 . S
H494 C506 0.950 . S
C495 H487 0.950 . S
C495 C496 1.386 . S
C495 C497 1.391 . S
C496 C495 1.386 . S
C496 C500 1.393 . S
C497 H489 0.950 . S
C497 C495 1.391 . S
C497 C498 1.400 . S
C498 C497 1.400 . S
C498 C499 1.398 . S
C498 C504 1.491 . S
C499 H490 0.950 . S
C499 C498 1.398 . S
C499 C500 1.391 . S
C500 H488 0.950 . S
C500 C496 1.393 . S
C500 C499 1.391 . S
C501 H491 0.950 . S
C501 C502 1.386 . S
C501 C503 1.391 . S
C502 C501 1.386 . S
C502 C506 1.393 . S
C503 H492 0.950 . S
C503 C501 1.391 . S
C503 C504 1.400 . S
C504 C498 1.491 . S
C504 C503 1.400 . S
C504 C505 1.398 . S
C505 H493 0.950 . S
C505 C504 1.398 . S
C505 C506 1.391 . S
C506 H494 0.950 . S
C506 C502 1.393 . S
C506 C505 1.391 . S
H507 C515 0.950 . S
H508 C520 0.950 . S
H509 C517 0.950 . S
H510 C519 0.950 . S
H511 C521 0.950 . S
H512 C523 0.950 . S
H513 C525 0.950 . S
H514 C526 0.950 . S
C515 H507 0.950 . S
C515 C516 1.386 . S
C515 C517 1.391 . S
C516 C515 1.386 . S
C516 C520 1.393 . S
C517 H509 0.950 . S
C517 C515 1.391 . S
C517 C518 1.400 . S
C518 C517 1.400 . S
C518 C519 1.398 . S
C518 C524 1.491 . S
C519 H510 0.950 . S
C519 C518 1.398 . S
C519 C520 1.391 . S
C520 H508 0.950 . S
C520 C516 1.393 . S
C520 C519 1.391 . S
C521 H511 0.950 . S
C521 C522 1.386 . S
C521 C523 1.391 . S
C522 C521 1.386 . S
C522 C526 1.393 . S
C523 H512 0.950 . S
C523 C521 1.391 . S
C523 C524 1.400 . S
C524 C518 1.491 . S
C524 C523 1.400 . S
C524 C525 1.398 . S
C525 H513 0.950 . S
C525 C524 1.398 . S
C525 C526 1.391 . S
C526 H514 0.950 . S
C526 C522 1.393 . S
C526 C525 1.391 . S
H527 C535 0.950 . S
H528 C540 0.950 . S
H529 C537 0.950 . S
H530 C539 0.950 . S
H531 C541 0.950 . S
H532 C543 0.950 . S
H533 C545 0.950 . S
H534 C546 0.950 . S
C535 H527 0.950 . S
C535 C536 1.386 . S
C535 C537 1.391 . S
C536 C535 1.386 . S
C536 C540 1.393 . S
C537 H529 0.950 . S
C537 C535 1.391 . S
C537 C538 1.400 . S
C538 C537 1.400 . S
C538 C539 1.398 . S
C538 C544 1.491 . S
C539 H530 0.950 . S
C539 C538 1.398 . S
C539 C540 1.391 . S
C540 H528 0.950 . S
C540 C536 1.393 . S
C540 C539 1.391 . S
C541 H531 0.950 . S
C541 C542 1.386 . S
C541 C543 1.391 . S
C542 C541 1.386 . S
C542 C546 1.393 . S
C543 H532 0.950 . S
C543 C541 1.391 . S
C543 C544 1.400 . S
C544 C538 1.491 . S
C544 C543 1.400 . S
C544 C545 1.398 . S
C545 H533 0.950 . S
C545 C544 1.398 . S
C545 C546 1.391 . S
C546 H534 0.950 . S
C546 C542 1.393 . S
C546 C545 1.391 . S
H547 C555 0.950 . S
H548 C560 0.950 . S
H549 C557 0.950 . S
H550 C559 0.950 . S
H551 C561 0.950 . S
H552 C563 0.950 . S
H553 C565 0.950 . S
H554 C566 0.950 . S
C555 H547 0.950 . S
C555 C556 1.386 . S
C555 C557 1.391 . S
C556 C555 1.386 . S
C556 C560 1.393 . S
C557 H549 0.950 . S
C557 C555 1.391 . S
C557 C558 1.400 . S
C558 C557 1.400 . S
C558 C559 1.398 . S
C558 C564 1.491 . S
C559 H550 0.950 . S
C559 C558 1.398 . S
C559 C560 1.391 . S
C560 H548 0.950 . S
C560 C556 1.393 . S
C560 C559 1.391 . S
C561 H551 0.950 . S
C561 C562 1.386 . S
C561 C563 1.391 . S
C562 C561 1.386 . S
C562 C566 1.393 . S
C563 H552 0.950 . S
C563 C561 1.391 . S
C563 C564 1.400 . S
C564 C558 1.491 . S
C564 C563 1.400 . S
C564 C565 1.398 . S
C565 H553 0.950 . S
C565 C564 1.398 . S
C565 C566 1.391 . S
C566 H554 0.950 . S
C566 C562 1.393 . S
C566 C565 1.391 . S
H567 C575 0.950 . S
H568 C580 0.950 . S
H569 C577 0.950 . S
H570 C579 0.950 . S
H571 C581 0.950 . S
H572 C583 0.950 . S
H573 C585 0.950 . S
H574 C586 0.950 . S
C575 H567 0.950 . S
C575 C576 1.386 . S
C575 C577 1.391 . S
C576 C575 1.386 . S
C576 C580 1.393 . S
C577 H569 0.950 . S
C577 C575 1.391 . S
C577 C578 1.400 . S
C578 C577 1.400 . S
C578 C579 1.398 . S
C578 C584 1.491 . S
C579 H570 0.950 . S
C579 C578 1.398 . S
C579 C580 1.391 . S
C580 H568 0.950 . S
C580 C576 1.393 . S
C580 C579 1.391 . S
C581 H571 0.950 . S
C581 C582 1.386 . S
C581 C583 1.391 . S
C582 C581 1.386 . S
C582 C586 1.393 . S
C583 H572 0.950 . S
C583 C581 1.391 . S
C583 C584 1.400 . S
C584 C578 1.491 . S
C584 C583 1.400 . S
C584 C585 1.398 . S
C585 H573 0.950 . S
C585 C584 1.398 . S
C585 C586 1.391 . S
C586 H574 0.950 . S
C586 C582 1.393 . S
C586 C585 1.391 . S
H587 C595 0.950 . S
H588 C600 0.950 . S
H589 C597 0.950 . S
H590 C599 0.950 . S
H591 C601 0.950 . S
H592 C603 0.950 . S
H593 C605 0.950 . S
H594 C606 0.950 . S
C595 H587 0.950 . S
C595 C596 1.386 . S
C595 C597 1.391 . S
C596 C595 1.386 . S
C596 C600 1.393 . S
C597 H589 0.950 . S
C597 C595 1.391 . S
C597 C598 1.400 . S
C598 C597 1.400 . S
C598 C599 1.398 . S
C598 C604 1.491 . S
C599 H590 0.950 . S
C599 C598 1.398 . S
C599 C600 1.391 . S
C600 H588 0.950 . S
C600 C596 1.393 . S
C600 C599 1.391 . S
C601 H591 0.950 . S
C601 C602 1.386 . S
C601 C603 1.391 . S
C602 C601 1.386 . S
C602 C606 1.393 . S
C603 H592 0.950 . S
C603 C601 1.391 . S
C603 C604 1.400 . S
C604 C598 1.491 . S
C604 C603 1.400 . S
C604 C605 1.398 . S
C605 H593 0.950 . S
C605 C604 1.398 . S
C605 C606 1.391 . S
C606 H594 0.950 . S
C606 C602 1.393 . S
C606 C605 1.391 . S
H607 C615 0.950 . S
H608 C620 0.950 . S
H609 C617 0.950 . S
H610 C619 0.950 . S
H611 C621 0.950 . S
H612 C623 0.950 . S
H613 C625 0.950 . S
H614 C626 0.950 . S
C615 H607 0.950 . S
C615 C616 1.386 . S
C615 C617 1.391 . S
C616 C615 1.386 . S
C616 C620 1.393 . S
C617 H609 0.950 . S
C617 C615 1.391 . S
C617 C618 1.400 . S
C618 C617 1.400 . S
C618 C619 1.398 . S
C618 C624 1.491 . S
C619 H610 0.950 . S
C619 C618 1.398 . S
C619 C620 1.391 . S
C620 H608 0.950 . S
C620 C616 1.393 . S
C620 C619 1.391 . S
C621 H611 0.950 . S
C621 C622 1.386 . S
C621 C623 1.391 . S
C622 C621 1.386 . S
C622 C626 1.393 . S
C623 H612 0.950 . S
C623 C621 1.391 . S
C623 C624 1.400 . S
C624 C618 1.491 . S
C624 C623 1.400 . S
C624 C625 1.398 . S
C625 H613 0.950 . S
C625 C624 1.398 . S
C625 C626 1.391 . S
C626 H614 0.950 . S
C626 C622 1.393 . S
C626 C625 1.391 . S
H627 C635 0.950 . S
H628 C640 0.950 . S
H629 C637 0.950 . S
H630 C639 0.950 . S
H631 C641 0.950 . S
H632 C643 0.950 . S
H633 C645 0.950 . S
H634 C646 0.950 . S
C635 H627 0.950 . S
C635 C636 1.386 . S
C635 C637 1.391 . S
C636 C635 1.386 . S
C636 C640 1.393 . S
C637 H629 0.950 . S
C637 C635 1.391 . S
C637 C638 1.400 . S
C638 C637 1.400 . S
C638 C639 1.398 . S
C638 C644 1.491 . S
C639 H630 0.950 . S
C639 C638 1.398 . S
C639 C640 1.391 . S
C640 H628 0.950 . S
C640 C636 1.393 . S
C640 C639 1.391 . S
C641 H631 0.950 . S
C641 C642 1.386 . S
C641 C643 1.391 . S
C642 C641 1.386 . S
C642 C646 1.393 . S
C643 H632 0.950 . S
C643 C641 1.391 . S
C643 C644 1.400 . S
C644 C638 1.491 . S
C644 C643 1.400 . S
C644 C645 1.398 . S
C645 H633 0.950 . S
C645 C644 1.398 . S
C645 C646 1.391 . S
C646 H634 0.950 . S
C646 C642 1.393 . S
C646 C645 1.391 . S
H647 C655 0.950 . S
H648 C660 0.950 . S
H649 C657 0.950 . S
H650 C659 0.950 . S
H651 C661 0.950 . S
H652 C663 0.950 . S
H653 C665 0.950 . S
H654 C666 0.950 . S
C655 H647 0.950 . S
C655 C656 1.386 . S
C655 C657 1.391 . S
C656 C655 1.386 . S
C656 C660 1.393 . S
C657 H649 0.950 . S
C657 C655 1.391 . S
C657 C658 1.400 . S
C658 C657 1.400 . S
C658 C659 1.398 . S
C658 C664 1.491 . S
C659 H650 0.950 . S
C659 C658 1.398 . S
C659 C660 1.391 . S
C660 H648 0.950 . S
C660 C656 1.393 . S
C660 C659 1.391 . S
C661 H651 0.950 . S
C661 C662 1.386 . S
C661 C663 1.391 . S
C662 C661 1.386 . S
C662 C666 1.393 . S
C663 H652 0.950 . S
C663 C661 1.391 . S
C663 C664 1.400 . S
C664 C658 1.491 . S
C664 C663 1.400 . S
C664 C665 1.398 . S
C665 H653 0.950 . S
C665 C664 1.398 . S
C665 C666 1.391 . S
C666 H654 0.950 . S
C666 C662 1.393 . S
C666 C665 1.391 . S
C202 C112 1.392 . S
C196 C10 1.457 . S
C222 C148 1.332 . S
C216 C15 1.409 . S
C242 C113 1.642 . S
C236 C27 1.657 . S
C262 C143 1.546 . S
C256 C38 1.599 . S
C282 C110 1.439 . S
C276 C49 1.487 . S
C296 C59 1.866 . S
C302 C146 1.875 . S
C316 C71 0.776 . S
C322 C115 0.798 . S
C342 C145 1.484 . S
C336 C87 1.515 . S
C362 C149 1.750 . S
C356 C5 1.794 . S
C382 C114 1.155 . S
C376 C16 1.191 . S
C402 C142 1.600 . S
C396 C32 1.593 . S
C422 C111 1.135 . S
C416 C37 1.278 . S
C442 C144 1.663 . S
C436 C48 1.799 . S
C456 C65 1.320 . S
C462 C109 1.294 . S
C476 C70 1.151 . S
C482 C147 1.147 . S
C502 C116 1.454 . S
C496 C82 1.549 . S
C522 C178 1.857 . S
C516 C4 1.954 . S
C536 C54 1.928 . S
C542 C181 1.796 . S
C562 C180 1.932 . S
C556 C60 1.987 . S
C576 C76 1.303 . S
C582 C179 1.282 . S
C602 C182 1.920 . S
C596 C81 2.045 . S
C616 C26 1.894 . S
C622 C176 1.813 . S
C642 C175 1.956 . S
C636 C43 1.976 . S
C656 C21 1.173 . S
C662 C177 1.101 . S
