# Generated by pormake.
# Topology pyr, (3,6)-cn, num edge types: 1
# Building blocks:
#     Node 0, Type 0, BuildingBlock: INOVEN_clean_linker_0, # of connection points: 3
#     Node 1, Type 0, BuildingBlock: INOVEN_clean_linker_0, # of connection points: 3
#     Node 2, Type 0, BuildingBlock: INOVEN_clean_linker_0, # of connection points: 3
#     Node 3, Type 0, BuildingBlock: INOVEN_clean_linker_0, # of connection points: 3
#     Node 4, Type 0, BuildingBlock: INOVEN_clean_linker_0, # of connection points: 3
#     Node 5, Type 0, BuildingBlock: INOVEN_clean_linker_0, # of connection points: 3
#     Node 6, Type 0, BuildingBlock: INOVEN_clean_linker_0, # of connection points: 3
#     Node 7, Type 0, BuildingBlock: INOVEN_clean_linker_0, # of connection points: 3
#     Node 8, Type 1, BuildingBlock: LEVNOQ01_clean_sbu_1, # of connection points: 6
#     Node 9, Type 1, BuildingBlock: LEVNOQ01_clean_sbu_1, # of connection points: 6
#     Node 10, Type 1, BuildingBlock: LEVNOQ01_clean_sbu_1, # of connection points: 6
#     Node 11, Type 1, BuildingBlock: LEVNOQ01_clean_sbu_1, # of connection points: 6
#     Edge 12, Type (0, 1), BuildingBlock: EZIPEK_clean_linker_0, # of connection points: 2
#     Edge 13, Type (0, 1), BuildingBlock: EZIPEK_clean_linker_0, # of connection points: 2
#     Edge 14, Type (0, 1), BuildingBlock: EZIPEK_clean_linker_0, # of connection points: 2
#     Edge 15, Type (0, 1), BuildingBlock: EZIPEK_clean_linker_0, # of connection points: 2
#     Edge 16, Type (0, 1), BuildingBlock: EZIPEK_clean_linker_0, # of connection points: 2
#     Edge 17, Type (0, 1), BuildingBlock: EZIPEK_clean_linker_0, # of connection points: 2
#     Edge 18, Type (0, 1), BuildingBlock: EZIPEK_clean_linker_0, # of connection points: 2
#     Edge 19, Type (0, 1), BuildingBlock: EZIPEK_clean_linker_0, # of connection points: 2
#     Edge 20, Type (0, 1), BuildingBlock: EZIPEK_clean_linker_0, # of connection points: 2
#     Edge 21, Type (0, 1), BuildingBlock: EZIPEK_clean_linker_0, # of connection points: 2
#     Edge 22, Type (0, 1), BuildingBlock: EZIPEK_clean_linker_0, # of connection points: 2
#     Edge 23, Type (0, 1), BuildingBlock: EZIPEK_clean_linker_0, # of connection points: 2
#     Edge 24, Type (0, 1), BuildingBlock: EZIPEK_clean_linker_0, # of connection points: 2
#     Edge 25, Type (0, 1), BuildingBlock: EZIPEK_clean_linker_0, # of connection points: 2
#     Edge 26, Type (0, 1), BuildingBlock: EZIPEK_clean_linker_0, # of connection points: 2
#     Edge 27, Type (0, 1), BuildingBlock: EZIPEK_clean_linker_0, # of connection points: 2
#     Edge 28, Type (0, 1), BuildingBlock: EZIPEK_clean_linker_0, # of connection points: 2
#     Edge 29, Type (0, 1), BuildingBlock: EZIPEK_clean_linker_0, # of connection points: 2
#     Edge 30, Type (0, 1), BuildingBlock: EZIPEK_clean_linker_0, # of connection points: 2
#     Edge 31, Type (0, 1), BuildingBlock: EZIPEK_clean_linker_0, # of connection points: 2
#     Edge 32, Type (0, 1), BuildingBlock: EZIPEK_clean_linker_0, # of connection points: 2
#     Edge 33, Type (0, 1), BuildingBlock: EZIPEK_clean_linker_0, # of connection points: 2
#     Edge 34, Type (0, 1), BuildingBlock: EZIPEK_clean_linker_0, # of connection points: 2
#     Edge 35, Type (0, 1), BuildingBlock: EZIPEK_clean_linker_0, # of connection points: 2
# Relax obj value: 0.081
# Max RMSD: 0.167
# Mean RMSD: 0.130
data_MOF--net-pry--node1-LEVNOQ01_clean_sbu_1--node2-INOVEN_clean_linker_0--edge1-EZIPEK_clean_linker_0
_symmetry_space_group_name_H-M    P1
_symmetry_Int_Tables_number       1
_symmetry_cell_setting            triclinic
loop_
_symmetry_equiv_pos_as_xyz
'x, y, z'
_cell_length_a     26.277286
_cell_length_b     25.733375
_cell_length_c     26.523229
_cell_angle_alpha  92.910152
_cell_angle_beta   92.097883
_cell_angle_gamma 100.21867
loop_
_atom_site_label
_atom_site_type_symbol
_atom_site_fract_x
_atom_site_fract_y
_atom_site_fract_z
_atom_type_partial_charge
H0 H 0.06746 0.17293 0.20469 0.0
H1 H 0.19412 0.08764 0.20799 0.0
H2 H 0.17148 0.18387 0.08306 0.0
N3 N 0.09293 0.22488 0.12414 0.0
N4 N 0.11605 0.26131 0.09955 0.0
C5 C 0.10076 0.16146 0.18719 0.0
C6 C 0.12777 0.12638 0.21101 0.0
C7 C 0.11736 0.18378 0.14221 0.0
C8 C 0.15973 0.1679 0.11871 0.0
C9 C 0.18832 0.13325 0.1421 0.0
C10 C 0.17235 0.11354 0.18896 0.0
H11 H 0.36972 0.84031 0.59805 0.0
H12 H 0.50019 0.92074 0.69351 0.0
H13 H 0.34908 0.96003 0.70799 0.0
N14 N 0.30708 0.90558 0.62406 0.0
N15 N 0.29168 0.94865 0.62334 0.0
C16 C 0.38686 0.86946 0.62758 0.0
C17 C 0.43941 0.87374 0.64406 0.0
C18 C 0.35644 0.90427 0.64695 0.0
C19 C 0.37503 0.93792 0.6892 0.0
C20 C 0.42596 0.9419 0.70834 0.0
C21 C 0.45947 0.91358 0.68211 0.0
H22 H 0.56801 0.33673 0.87086 0.0
H23 H 0.70425 0.33446 0.9641 0.0
H24 H 0.68538 0.47403 0.89381 0.0
N25 N 0.59973 0.43115 0.84008 0.0
N26 N 0.627 0.46353 0.81439 0.0
C27 C 0.60168 0.35683 0.89293 0.0
C28 C 0.62622 0.33183 0.93098 0.0
C29 C 0.623 0.40767 0.87952 0.0
C30 C 0.66899 0.43422 0.90337 0.0
C31 C 0.6974 0.40724 0.93431 0.0
C32 C 0.67764 0.35567 0.9457 0.0
H33 H 0.79801 0.58839 0.42203 0.0
H34 H 0.89676 0.66577 0.54556 0.0
H35 H 0.93741 0.6914 0.39197 0.0
N36 N 0.8624 0.61578 0.3506 0.0
N37 N 0.89411 0.63313 0.31896 0.0
C38 C 0.83304 0.61451 0.43651 0.0
C39 C 0.84083 0.62858 0.48863 0.0
C40 C 0.86951 0.63449 0.4023 0.0
C41 C 0.91258 0.6725 0.41977 0.0
C42 C 0.92215 0.68743 0.47183 0.0
C43 C 0.88769 0.66105 0.50583 0.0
H44 H 0.83609 0.95665 0.82026 0.0
H45 H 0.93332 0.83794 0.82063 0.0
H46 H 0.84565 0.8648 0.95006 0.0
N47 N 0.79472 0.93598 0.90716 0.0
N48 N 0.77874 0.92689 0.95015 0.0
C49 C 0.85193 0.9261 0.83885 0.0
C50 C 0.88698 0.8994 0.81382 0.0
C51 C 0.83551 0.91283 0.88696 0.0
C52 C 0.85732 0.87476 0.91247 0.0
C53 C 0.89349 0.8484 0.8892 0.0
C54 C 0.90675 0.85951 0.83923 0.0
H55 H 0.55739 0.15124 0.35733 0.0
H56 H 0.67761 0.05715 0.36809 0.0
H57 H 0.68579 0.19708 0.46365 0.0
N58 N 0.59515 0.22223 0.42578 0.0
N59 N 0.61121 0.25575 0.46107 0.0
C60 C 0.59188 0.14144 0.37525 0.0
C61 C 0.61091 0.0959 0.35832 0.0
C62 C 0.61722 0.17685 0.41374 0.0
C63 C 0.66465 0.16877 0.43533 0.0
C64 C 0.68581 0.12484 0.41833 0.0
C65 C 0.65892 0.08902 0.3803 0.0
H66 H 0.44703 0.7294 0.2424 0.0
H67 H 0.36625 0.74662 0.10261 0.0
H68 H 0.29612 0.63583 0.20687 0.0
N69 N 0.37593 0.66141 0.27812 0.0
N70 N 0.33823 0.64248 0.30271 0.0
C71 C 0.41448 0.7163 0.21565 0.0
C72 C 0.41126 0.74198 0.17124 0.0
C73 C 0.37299 0.67855 0.22887 0.0
C74 C 0.32916 0.66378 0.19589 0.0
C75 C 0.32767 0.68745 0.14937 0.0
C76 C 0.36905 0.72589 0.13697 0.0
H77 H 0.03645 0.3848 0.62747 0.0
H78 H 0.14352 0.37968 0.50958 0.0
H79 H 0.17893 0.49616 0.63357 0.0
N80 N 0.09433 0.45844 0.6846 0.0
N81 N 0.13009 0.47482 0.71685 0.0
C82 C 0.07023 0.40337 0.60847 0.0
C83 C 0.08585 0.37743 0.56561 0.0
C84 C 0.10421 0.44522 0.63386 0.0
C85 C 0.15158 0.46523 0.61287 0.0
C86 C 0.16545 0.44279 0.56707 0.0
C87 C 0.13115 0.4001 0.54242 0.0
O88 O 0.99699 0.02501 0.64271 0.0
Mg89 Mg 0.03498 0.06889 0.58735 0.0
O90 O 0.94447 0.98617 0.58108 0.0
Mg91 Mg 0.98741 0.02208 0.50719 0.0
O92 O 0.01174 0.11431 0.53401 0.0
O93 O 0.03518 0.14253 0.61441 0.0
O94 O 0.0292 0.04935 0.43156 0.0
O95 O 0.91038 0.0532 0.48392 0.0
Mg96 Mg 0.92466 0.96358 0.41228 0.0
O97 O 0.96173 0.93722 0.47291 0.0
O98 O 0.97952 0.00776 0.36713 0.0
O99 O 0.85975 -0.00272 0.42969 0.0
O100 O 0.91916 0.88283 0.41109 0.0
C101 C 0.10776 0.01383 0.55606 0.0
C102 C 0.95789 0.99135 0.62825 0.0
C103 C 0.02469 0.15267 0.56858 0.0
C104 C 0.01984 0.03973 0.38376 0.0
C105 C 0.86746 0.03892 0.45843 0.0
C106 C 0.94677 0.88966 0.45292 0.0
O107 O 0.11019 0.05921 0.577 0.0
O108 O 0.06547 0.99102 0.53279 0.0
O109 O 0.41709 0.13397 0.09582 0.0
Mg110 Mg 0.49815 0.15261 0.09862 0.0
O111 O 0.40375 0.05478 0.05417 0.0
Mg112 Mg 0.48873 0.03474 0.03893 0.0
O113 O 0.51946 0.11957 0.03397 0.0
O114 O 0.53853 0.20551 0.05112 0.0
O115 O 0.57003 0.01473 0.02325 0.0
O116 O 0.47574 0.0354 0.949 0.0
Mg117 Mg 0.46646 0.92909 0.97351 0.0
O118 O 0.45953 0.94683 0.04663 0.0
O119 O 0.54996 0.94057 0.9734 0.0
O120 O 0.41825 0.96566 0.9269 0.0
O121 O 0.43029 0.86658 0.01053 0.0
C122 C 0.52927 0.0715 0.16307 0.0
C123 C 0.3865 0.09345 0.07651 0.0
C124 C 0.54086 0.16519 0.02086 0.0
C125 C 0.58332 0.97694 0.99644 0.0
C126 C 0.44434 0.00889 0.91527 0.0
C127 C 0.44294 0.89699 0.0509 0.0
O128 O 0.53431 0.12084 0.15821 0.0
O129 O 0.51023 0.03745 0.12716 0.0
O130 O 0.44497 0.65544 0.59489 0.0
Mg131 Mg 0.45755 0.58013 0.60921 0.0
O132 O 0.51127 0.65413 0.54834 0.0
Mg133 Mg 0.50767 0.56087 0.53349 0.0
O134 O 0.52096 0.5436 0.61823 0.0
O135 O 0.4934 0.59451 0.67837 0.0
O136 O 0.51257 0.47139 0.51276 0.0
O137 O 0.59791 0.58001 0.53408 0.0
Mg138 Mg 0.56027 0.55209 0.41911 0.0
O139 O 0.50056 0.57417 0.45334 0.0
O140 O 0.55126 0.4725 0.43925 0.0
O141 O 0.62704 0.59666 0.45752 0.0
O142 O 0.50514 0.58064 0.37183 0.0
C143 C 0.37931 0.52113 0.55886 0.0
C144 C 0.4802 0.67986 0.57008 0.0
C145 C 0.52195 0.56104 0.66505 0.0
C146 C 0.53196 0.44754 0.47643 0.0
C147 C 0.63479 0.59447 0.50488 0.0
C148 C 0.48 0.58543 0.412 0.0
O149 O 0.38979 0.52643 0.60577 0.0
O150 O 0.41444 0.53624 0.52778 0.0
O151 O 0.06116 0.48227 0.10967 0.0
Mg152 Mg 0.0497 0.56002 0.11203 0.0
O153 O 0.03663 0.48123 0.02971 0.0
Mg154 Mg 0.01375 0.56658 0.01664 0.0
O155 O 0.97724 0.57763 0.09786 0.0
O156 O 0.01369 0.57012 0.17495 0.0
O157 O 0.98416 0.65114 1.00259 0.0
O158 O 0.9339 0.51912 0.99813 0.0
Mg159 Mg 0.9911 0.59199 0.92602 0.0
O160 O 0.04699 0.54743 0.93644 0.0
O161 O 0.01174 0.67343 0.92865 0.0
O162 O 0.91257 0.55765 0.93036 0.0
O163 O 0.01426 0.56555 0.86066 0.0
C164 C 0.12819 0.63053 0.07091 0.0
C165 C 0.05256 0.45783 0.06706 0.0
C166 C 0.9751 0.57836 0.14709 0.0
C167 C 0.99088 0.68521 0.96842 0.0
C168 C 0.90083 0.5255 0.96425 0.0
C169 C 0.04649 0.54472 0.88721 0.0
O170 O 0.11465 0.61763 0.11413 0.0
O171 O 0.09831 0.61473 0.03223 0.0
C172 C 0.08566 0.04876 0.25893 0.0
C173 C 0.10824 0.10304 0.25894 0.0
C174 C 0.07825 0.11692 0.34491 0.0
C175 C 0.05726 0.06198 0.34535 0.0
N176 N 0.05866 0.9741 0.3095 0.0
N177 N 0.13829 0.18543 0.30696 0.0
C178 C 0.06668 0.02748 0.30444 0.0
C179 C 0.10858 0.13601 0.3037 0.0
N180 N 0.07969 0.0178 0.21496 0.0
N181 N 0.06697 0.1515 0.38184 0.0
H182 H 0.16106 0.2002 0.27767 0.0
H183 H 0.14429 0.20943 0.34023 0.0
H184 H 0.04435 0.13979 0.41208 0.0
H185 H 0.07665 0.19242 0.38032 0.0
H186 H 0.05812 0.97957 0.21195 0.0
H187 H 0.092 0.03182 0.18046 0.0
H188 H 0.06881 0.94746 0.28241 0.0
H189 H 0.04782 0.95718 0.3433 0.0
C190 C 0.46473 0.94366 0.79694 0.0
C191 C 0.44103 0.96971 0.75934 0.0
C192 C 0.42789 0.03586 0.82589 0.0
C193 C 0.45636 0.01121 0.86089 0.0
N194 N 0.52397 0.9603 0.86921 0.0
N195 N 0.41411 0.05125 0.73716 0.0
C196 C 0.4831 0.97208 0.8423 0.0
C197 C 0.42725 0.01964 0.77335 0.0
N198 N 0.46309 0.89044 0.79327 0.0
N199 N 0.40047 0.07298 0.84264 0.0
H200 H 0.41594 0.04143 0.69869 0.0
H201 H 0.40686 0.08919 0.74566 0.0
H202 H 0.40135 0.08549 0.88078 0.0
H203 H 0.3753 0.08881 0.81902 0.0
H204 H 0.47841 0.87065 0.82197 0.0
H205 H 0.43917 0.86599 0.76619 0.0
H206 H 0.54435 0.93118 0.85657 0.0
H207 H 0.54115 0.98607 0.89903 0.0
C208 C 0.56474 0.51882 0.79211 0.0
C209 C 0.6042 0.49138 0.77813 0.0
C210 C 0.5987 0.5209 0.69288 0.0
C211 C 0.55167 0.53849 0.70428 0.0
N212 N 0.48311 0.53824 0.76407 0.0
N213 N 0.65704 0.46151 0.71489 0.0
C214 C 0.53277 0.5336 0.75385 0.0
C215 C 0.62082 0.49099 0.72831 0.0
N216 N 0.55807 0.53099 0.84182 0.0
N217 N 0.62381 0.53512 0.65017 0.0
H218 H 0.67442 0.44018 0.74092 0.0
H219 H 0.66657 0.45517 0.67754 0.0
H220 H 0.61249 0.56253 0.62661 0.0
H221 H 0.6596 0.52545 0.64197 0.0
H222 H 0.53221 0.55517 0.85336 0.0
H223 H 0.58266 0.52216 0.87071 0.0
H224 H 0.46823 0.53209 0.79963 0.0
H225 H 0.45452 0.53976 0.73625 0.0
C226 C 0.89647 0.55924 0.25602 0.0
C227 C 0.89174 0.61263 0.26788 0.0
C228 C 0.9175 0.63656 0.18294 0.0
C229 C 0.92821 0.58517 0.17393 0.0
N230 N 0.90843 0.49344 0.19048 0.0
N231 N 0.88202 0.69722 0.23944 0.0
C232 C 0.90975 0.54494 0.20646 0.0
C233 C 0.8964 0.64944 0.2297 0.0
N234 N 0.89379 0.52371 0.29282 0.0
N235 N 0.93108 0.67354 0.14846 0.0
H236 H 0.86686 0.70672 0.27388 0.0
H237 H 0.88122 0.72527 0.21266 0.0
H238 H 0.9447 0.66366 0.11341 0.0
H239 H 0.92959 0.71348 0.15461 0.0
H240 H 0.90335 0.48632 0.2873 0.0
H241 H 0.88526 0.53231 0.32995 0.0
H242 H 0.89215 0.46147 0.21074 0.0
H243 H 0.9193 0.48329 0.15429 0.0
C244 C 0.27439 0.15991 0.10096 0.0
C245 C 0.23614 0.11949 0.11853 0.0
C246 C 0.29384 0.05536 0.10032 0.0
C247 C 0.32996 0.0957 0.07979 0.0
N248 N 0.34238 0.18022 0.04242 0.0
N249 N 0.20393 0.02537 0.11851 0.0
C250 C 0.31562 0.14568 0.0736 0.0
C251 C 0.24408 0.06603 0.11313 0.0
N252 N 0.27432 0.21202 0.11364 0.0
N253 N 0.30723 0.00785 0.10982 0.0
H254 H 0.16638 0.03145 0.12445 0.0
H255 H 0.20673 0.98582 0.11119 0.0
H256 H 0.34245 -0.00203 0.1001 0.0
H257 H 0.28445 0.97967 0.13023 0.0
H258 H 0.30407 0.24216 0.1046 0.0
H259 H 0.24864 0.22463 0.13856 0.0
H260 H 0.33111 0.21583 0.03411 0.0
H261 H 0.37194 0.17017 0.02068 0.0
C262 C 0.20949 0.97308 0.64071 0.0
C263 C 0.24128 0.95348 0.60552 0.0
C264 C 0.18029 0.96406 0.53578 0.0
C265 C 0.14886 0.98434 0.57157 0.0
N266 N 0.12619 0.99455 0.65862 0.0
N267 N 0.25642 0.92431 0.52068 0.0
C268 C 0.16116 0.98427 0.62422 0.0
C269 C 0.22611 0.94628 0.55331 0.0
N270 N 0.22693 0.98323 0.69006 0.0
N271 N 0.1679 0.96477 0.48536 0.0
H272 H 0.29157 0.91421 0.53218 0.0
H273 H 0.24595 0.91371 0.48286 0.0
H274 H 0.13439 0.97693 0.47184 0.0
H275 H 0.19128 0.95524 0.45677 0.0
H276 H 0.20925 0.00465 0.71644 0.0
H277 H 0.26127 0.97312 0.704 0.0
H278 H 0.13056 0.98953 0.69715 0.0
H279 H 0.09025 0.00334 0.64823 0.0
C280 C 0.76501 0.46133 0.99249 0.0
C281 C 0.75162 0.43029 0.94677 0.0
C282 C 0.83935 0.45356 0.91858 0.0
C283 C 0.8506 0.49058 0.96056 0.0
N284 N 0.82589 0.53194 0.03737 0.0
N285 N 0.7736 0.39698 0.86514 0.0
C286 C 0.8142 0.49465 0.99806 0.0
C287 C 0.78825 0.42596 0.90966 0.0
N288 N 0.73058 0.45885 0.03011 0.0
N289 N 0.87795 0.44376 0.88816 0.0
H290 H 0.73715 0.37342 0.85819 0.0
H291 H 0.79653 0.39843 0.83388 0.0
H292 H 0.91621 0.46324 0.89368 0.0
H293 H 0.87325 0.41313 0.86026 0.0
H294 H 0.73956 0.47678 0.06616 0.0
H295 H 0.69389 0.43519 0.02646 0.0
H296 H 0.79926 0.54057 0.06318 0.0
H297 H 0.8618 0.5569 0.04263 0.0
C298 C 0.77292 0.65254 0.54589 0.0
C299 C 0.79677 0.61266 0.52256 0.0
C300 C 0.71279 0.553 0.51623 0.0
C301 C 0.68881 0.59792 0.52373 0.0
N302 N 0.69424 0.68895 0.55218 0.0
N303 N 0.79329 0.52022 0.50317 0.0
C304 C 0.71828 0.64708 0.54147 0.0
C305 C 0.76775 0.56073 0.51484 0.0
N306 N 0.80167 0.69392 0.57414 0.0
N307 N 0.68269 0.50394 0.50838 0.0
H308 H 0.8337 0.52638 0.50363 0.0
H309 H 0.77543 0.4814 0.4937 0.0
H310 H 0.64247 0.49786 0.51004 0.0
H311 H 0.69701 0.46905 0.50277 0.0
H312 H 0.78543 0.72194 0.59464 0.0
H313 H 0.84049 0.69573 0.584 0.0
H314 H 0.71415 0.72754 0.55933 0.0
H315 H 0.65399 0.68512 0.55158 0.0
C316 C 0.11013 0.33279 0.04274 0.0
C317 C 0.0936 0.30614 0.08653 0.0
C318 C 0.03471 0.36876 0.1012 0.0
C319 C 0.05842 0.40106 0.06388 0.0
N320 N 0.12028 0.41453 0.99883 0.0
N321 N 0.0503 0.31052 0.16573 0.0
C322 C 0.09605 0.38292 0.03383 0.0
C323 C 0.05794 0.32657 0.11783 0.0
N324 N 0.13966 0.31003 0.00989 0.0
N325 N 0.99063 0.37952 0.12192 0.0
H326 H 0.07253 0.28663 0.18363 0.0
H327 H 0.02736 0.32758 0.19065 0.0
H328 H 0.97255 0.41007 0.10997 0.0
H329 H 0.96938 0.35458 0.14642 0.0
H330 H 0.14918 0.32458 0.97486 0.0
H331 H 0.15122 0.27404 0.01623 0.0
H332 H 0.15218 0.40631 0.97986 0.0
H333 H 0.11004 0.45058 0.99056 0.0
C334 C 0.55223 0.25122 0.93276 0.0
C335 C 0.60248 0.27869 0.95003 0.0
C336 C 0.6194 0.19721 0.98514 0.0
C337 C 0.56806 0.17349 0.97392 0.0
N338 N 0.49727 0.16591 0.91381 0.0
N339 N 0.66002 0.28022 0.02393 0.0
C340 C 0.53967 0.19605 0.93799 0.0
C341 C 0.63149 0.25259 0.98409 0.0
N342 N 0.51317 0.2782 0.92264 0.0
N343 N 0.65222 0.1691 0.00759 0.0
H344 H 0.65847 0.31989 0.03286 0.0
H345 H 0.6782 0.26188 0.05186 0.0
H346 H 0.64062 0.12887 0.01306 0.0
H347 H 0.69085 0.18552 0.01703 0.0
H348 H 0.47526 0.25946 0.9131 0.0
H349 H 0.51671 0.31845 0.93271 0.0
H350 H 0.47615 0.17973 0.88491 0.0
H351 H 0.48714 0.12593 0.92028 0.0
C352 C 0.94979 0.77005 0.52879 0.0
C353 C 0.96133 0.73657 0.48857 0.0
C354 C 0.9947 0.81457 0.44323 0.0
C355 C 0.9645 0.84338 0.47358 0.0
N356 N 0.91944 0.85113 0.55072 0.0
N357 N 0.0263 0.7316 0.42871 0.0
C358 C 0.94493 0.82253 0.51886 0.0
C359 C 0.99512 0.76077 0.45295 0.0
N360 N 0.94908 0.75353 0.5767 0.0
N361 N 0.02005 0.83779 0.40385 0.0
H362 H 0.02574 0.69219 0.43687 0.0
H363 H 0.05417 0.74693 0.40392 0.0
H364 H 0.02199 0.87786 0.39783 0.0
H365 H 0.03831 0.81748 0.3771 0.0
H366 H 0.94438 0.77802 0.60809 0.0
H367 H 0.96064 0.71797 0.58488 0.0
H368 H 0.90053 0.83514 0.58181 0.0
H369 H 0.91502 0.88971 0.54428 0.0
C370 C 0.46051 0.8216 0.56751 0.0
C371 C 0.47069 0.8357 0.61991 0.0
C372 C 0.51652 0.76018 0.62305 0.0
C373 C 0.49024 0.73818 0.57747 0.0
N374 N 0.42922 0.7466 0.50975 0.0
N375 N 0.51011 0.81275 0.69886 0.0
C376 C 0.46087 0.76887 0.5498 0.0
C377 C 0.50059 0.80447 0.64801 0.0
N378 N 0.44765 0.85754 0.53554 0.0
N379 N 0.55422 0.7367 0.64406 0.0
H380 H 0.50051 0.84384 0.72006 0.0
H381 H 0.52508 0.78607 0.72088 0.0
H382 H 0.56556 0.70357 0.62661 0.0
H383 H 0.57754 0.75347 0.67546 0.0
H384 H 0.44186 0.84913 0.49663 0.0
H385 H 0.44817 0.89686 0.54778 0.0
H386 H 0.40341 0.76674 0.49153 0.0
H387 H 0.42518 0.70661 0.49872 0.0
C388 C 0.95619 0.92476 0.75003 0.0
C389 C 0.90308 0.91443 0.7615 0.0
C390 C 0.88171 0.94724 0.67848 0.0
C391 C 0.93464 0.95467 0.66696 0.0
N392 N 0.01574 0.92601 0.68281 0.0
N393 N 0.81454 0.89931 0.72756 0.0
C394 C 0.9696 0.93507 0.69982 0.0
C395 C 0.86544 0.9205 0.72284 0.0
N396 N 0.99437 0.92895 0.78713 0.0
N397 N 0.84732 0.96703 0.64854 0.0
H398 H 0.80177 0.87657 0.75762 0.0
H399 H 0.78629 0.8992 0.69891 0.0
H400 H 0.85781 0.98564 0.61552 0.0
H401 H 0.80938 0.9677 0.65834 0.0
H402 H 0.03343 0.94049 0.78008 0.0
H403 H 0.98707 0.92765 0.82542 0.0
H404 H 0.04139 0.90875 0.70456 0.0
H405 H 0.02455 0.9295 0.64491 0.0
C406 C 0.52876 0.06128 0.30449 0.0
C407 C 0.58219 0.06118 0.31417 0.0
C408 C 0.59185 0.04192 0.22417 0.0
C409 C 0.54253 0.05485 0.21368 0.0
N410 N 0.46045 0.07017 0.24294 0.0
N411 N 0.64328 0.00731 0.28679 0.0
C412 C 0.50927 0.06109 0.25366 0.0
C413 C 0.60869 0.03896 0.27524 0.0
N414 N 0.49712 0.0603 0.34421 0.0
N415 N 0.62315 0.03376 0.18572 0.0
H416 H 0.64444 0.99177 0.32227 0.0
H417 H 0.6619 0.98804 0.25946 0.0
H418 H 0.61113 0.03347 0.14773 0.0
H419 H 0.66168 0.02993 0.19202 0.0
H420 H 0.45707 0.05676 0.3403 0.0
H421 H 0.51137 0.05817 0.3812 0.0
H422 H 0.43648 0.08165 0.27018 0.0
H423 H 0.44456 0.06787 0.20605 0.0
C424 C 0.34475 0.57938 0.36595 0.0
C425 C 0.34985 0.63237 0.35342 0.0
C426 C 0.42961 0.65712 0.40451 0.0
C427 C 0.42989 0.60276 0.40915 0.0
N428 N 0.38233 0.51391 0.41064 0.0
N429 N 0.38051 0.72337 0.37796 0.0
C430 C 0.38479 0.56448 0.39645 0.0
C431 C 0.38569 0.67186 0.38099 0.0
N432 N 0.30501 0.54331 0.34369 0.0
N433 N 0.47303 0.69363 0.41787 0.0
H434 H 0.34896 0.73336 0.35792 0.0
H435 H 0.40471 0.75482 0.39774 0.0
H436 H 0.50514 0.68362 0.43684 0.0
H437 H 0.47738 0.73327 0.40966 0.0
H438 H 0.30086 0.50267 0.34701 0.0
H439 H 0.27632 0.5553 0.32104 0.0
H440 H 0.34949 0.48466 0.4049 0.0
H441 H 0.4126 0.50254 0.43145 0.0
C442 C 0.08124 0.44831 0.79174 0.0
C443 C 0.11935 0.48404 0.76834 0.0
C444 C 0.12735 0.54569 0.84252 0.0
C445 C 0.0812 0.51612 0.85935 0.0
N446 N 0.0178 0.43636 0.85645 0.0
N447 N 0.18624 0.56082 0.77376 0.0
C448 C 0.05992 0.46579 0.83648 0.0
C449 C 0.14573 0.5304 0.79522 0.0
N450 N 0.06695 0.39762 0.77176 0.0
N451 N 0.1519 0.58909 0.87123 0.0
H452 H 0.2003 0.54922 0.73943 0.0
H453 H 0.20535 0.5974 0.78904 0.0
H454 H 0.1384 0.59985 0.90611 0.0
H455 H 0.18687 0.61203 0.86265 0.0
H456 H 0.04143 0.36854 0.78845 0.0
H457 H 0.08497 0.38327 0.74093 0.0
H458 H 0.99594 0.40234 0.83844 0.0
H459 H 0.00426 0.44726 0.89125 0.0
C460 C 0.70301 0.915 1.00158 0.0
C461 C 0.73531 0.94674 0.96928 0.0
C462 C 0.67168 0.00553 0.96219 0.0
C463 C 0.6387 0.97264 0.99334 0.0
N464 N 0.62936 0.90672 0.05506 0.0
N465 N 0.7595 0.03269 0.93608 0.0
C466 C 0.65653 0.93072 0.01708 0.0
C467 C 0.72248 0.99534 0.95458 0.0
N468 N 0.71577 0.86836 0.01541 0.0
N469 N 0.65396 0.04518 0.9385 0.0
H470 H 0.79811 0.02821 0.93474 0.0
H471 H 0.75347 0.07048 0.92837 0.0
H472 H 0.61743 0.05444 0.94415 0.0
H473 H 0.67426 0.06667 0.91105 0.0
H474 H 0.69094 0.84008 0.03382 0.0
H475 H 0.75035 0.85663 0.00566 0.0
H476 H 0.64226 0.87857 0.07669 0.0
H477 H 0.59624 0.91905 0.06827 0.0
C478 C 0.74718 0.09688 0.48363 0.0
C479 C 0.73869 0.11741 0.43589 0.0
C480 C 0.82218 0.09869 0.40876 0.0
C481 C 0.82897 0.07475 0.45502 0.0
N482 N 0.80706 0.0647 0.54158 0.0
N483 N 0.77424 0.15302 0.36001 0.0
C484 C 0.79458 0.07879 0.49437 0.0
C485 C 0.77847 0.12339 0.40081 0.0
N486 N 0.70881 0.0918 0.51738 0.0
N487 N 0.85677 0.09621 0.3718 0.0
H488 H 0.74285 0.17209 0.35383 0.0
H489 H 0.80358 0.16281 0.33501 0.0
H490 H 0.89122 0.08202 0.37767 0.0
H491 H 0.8506 0.10625 0.33483 0.0
H492 H 0.71005 0.07191 0.55047 0.0
H493 H 0.67417 0.1054 0.51106 0.0
H494 H 0.78619 0.07102 0.57322 0.0
H495 H 0.8412 0.05083 0.54991 0.0
C496 C 0.26908 0.6356 0.08081 0.0
C497 C 0.2797 0.67901 0.11705 0.0
C498 C 0.19759 0.70521 0.09336 0.0
C499 C 0.18237 0.65581 0.06687 0.0
N500 N 0.20379 0.57673 0.02764 0.0
N501 N 0.2563 0.75767 0.15662 0.0
C502 C 0.2188 0.62252 0.05692 0.0
C503 C 0.24509 0.71537 0.12218 0.0
N504 N 0.30686 0.60705 0.0698 0.0
N505 N 0.16517 0.74114 0.09194 0.0
H506 H 0.29075 0.76653 0.17865 0.0
H507 H 0.23029 0.78245 0.16567 0.0
H508 H 0.13008 0.73302 0.07072 0.0
H509 H 0.17486 0.77979 0.10741 0.0
H510 H 0.30311 0.57759 0.04085 0.0
H511 H 0.34373 0.61545 0.08755 0.0
H512 H 0.22586 0.54708 0.02375 0.0
H513 H 0.16811 0.56807 0.00762 0.0
C514 C 0.25588 0.42508 0.55124 0.0
C515 C 0.21913 0.45982 0.5498 0.0
C516 C 0.28931 0.53453 0.53835 0.0
C517 C 0.32537 0.49987 0.54168 0.0
N518 N 0.34306 0.41174 0.53468 0.0
N519 N 0.19926 0.544 0.52793 0.0
C520 C 0.3084 0.44488 0.54206 0.0
C521 C 0.23543 0.51346 0.53847 0.0
N522 N 0.24203 0.37443 0.56535 0.0
N523 N 0.30684 0.58775 0.53763 0.0
H524 H 0.15958 0.52922 0.52719 0.0
H525 H 0.20837 0.58213 0.51553 0.0
H526 H 0.34597 0.60377 0.53497 0.0
H527 H 0.28313 0.61595 0.54169 0.0
H528 H 0.26861 0.35021 0.57383 0.0
H529 H 0.20443 0.35731 0.57212 0.0
H530 H 0.33239 0.37078 0.52977 0.0
H531 H 0.38189 0.42587 0.52817 0.0
C532 C 0.96747 0.82235 0.94037 0.0
C533 C 0.91678 0.80846 0.91739 0.0
C534 C 0.90926 0.71998 0.95085 0.0
C535 C 0.96272 0.73081 0.96596 0.0
N536 N 0.04294 0.79237 0.97665 0.0
N537 N 0.84002 0.74296 0.89803 0.0
C538 C 0.99166 0.78238 0.96171 0.0
C539 C 0.88758 0.75712 0.92246 0.0
N540 N 0.99218 0.87389 0.94228 0.0
N541 N 0.87924 0.67388 0.96334 0.0
H542 H 0.82276 0.76898 0.87714 0.0
H543 H 0.81932 0.70441 0.89503 0.0
H544 H 0.89355 0.64654 0.98495 0.0
H545 H 0.83921 0.66528 0.95718 0.0
H546 H 0.02697 0.88781 0.96262 0.0
H547 H 0.97585 0.90383 0.92654 0.0
H548 H 0.06832 0.82675 0.96928 0.0
H549 H 0.06044 0.76483 0.99521 0.0
C550 C 0.4814 0.79096 0.12521 0.0
C551 C 0.44597 0.79191 0.16347 0.0
C552 C 0.43071 0.87905 0.14233 0.0
C553 C 0.45526 0.87135 0.09683 0.0
N554 N 0.5178 0.83416 0.05134 0.0
N555 N 0.40392 0.8423 0.22206 0.0
C556 C 0.48645 0.83205 0.09127 0.0
C557 C 0.42749 0.83881 0.17732 0.0
N558 N 0.50561 0.7484 0.11953 0.0
N559 N 0.40829 0.92254 0.15013 0.0
H560 H 0.40201 0.81259 0.24764 0.0
H561 H 0.38923 0.87511 0.23527 0.0
H562 H 0.41175 0.95264 0.12496 0.0
H563 H 0.38708 0.92946 0.18132 0.0
H564 H 0.5299 0.74226 0.09061 0.0
H565 H 0.50133 0.71892 0.14553 0.0
H566 H 0.54253 0.8077 0.04315 0.0
H567 H 0.54253 0.8077 0.04315 0.0
C568 C 0.02522 0.29427 0.52986 0.0
C569 C 0.06948 0.31915 0.56012 0.0
C570 C 0.0904 0.23332 0.5764 0.0
C571 C 0.04157 0.20811 0.55542 0.0
N572 N 0.961 0.21396 0.51169 0.0
N573 N 0.13473 0.30983 0.62478 0.0
C574 C 0.00851 0.23824 0.53126 0.0
C575 C 0.09945 0.28805 0.58697 0.0
N576 N -0.00064 0.32402 0.5005 0.0
N577 N 0.12844 0.20482 0.58632 0.0
H578 H 0.14271 0.34997 0.63565 0.0
H579 H 0.15294 0.28685 0.64843 0.0
H580 H 0.12399 0.16445 0.57649 0.0
H581 H 0.166 0.22263 0.59846 0.0
H582 H 0.9695 0.30778 0.47439 0.0
H583 H 0.01044 0.365 0.50004 0.0
H584 H 0.93318 0.23442 0.4978 0.0
H585 H 0.94856 0.17315 0.51169 0.0
C586 C 0.5766 0.32862 0.42405 0.0
C587 C 0.58809 0.30181 0.46699 0.0
C588 C 0.55045 0.36503 0.52057 0.0
C589 C 0.53728 0.39022 0.47629 0.0
N590 N 0.51705 0.37806 0.38644 0.0
N591 N 0.57848 0.28797 0.55503 0.0
C592 C 0.54319 0.36562 0.42827 0.0
C593 C 0.57282 0.31818 0.51507 0.0
N594 N 0.60028 0.3215 0.37991 0.0
N595 N 0.54271 0.38557 0.56754 0.0
H596 H 0.59575 0.25447 0.55172 0.0
H597 H 0.56309 0.29383 0.59005 0.0
H598 H 0.52019 0.41436 0.57398 0.0
H599 H 0.55859 0.37361 0.60061 0.0
H600 H 0.59609 0.34388 0.34882 0.0
H601 H 0.62906 0.29847 0.37678 0.0
H602 H 0.51816 0.35883 0.35102 0.0
H603 H 0.48978 0.40298 0.38886 0.0
loop_
_geom_bond_atom_site_label_1
_geom_bond_atom_site_label_2
_geom_bond_distance
_geom_bond_site_symmetry_2
_ccdc_geom_bond_type
H0 C5 0.929 . S
H1 C10 0.931 . S
H2 C8 0.930 . S
N3 N4 1.234 . S
N3 C7 1.453 . S
N4 N3 1.234 . S
C5 H0 0.929 . S
C5 C6 1.373 . S
C5 C7 1.368 . S
C6 C5 1.373 . S
C6 C10 1.397 . S
C7 N3 1.453 . S
C7 C5 1.368 . S
C7 C8 1.373 . S
C8 H2 0.930 . S
C8 C7 1.373 . S
C8 C9 1.371 . S
C9 C8 1.371 . S
C9 C10 1.383 . S
C10 H1 0.931 . S
C10 C6 1.397 . S
C10 C9 1.383 . S
H11 C16 0.929 . S
H12 C21 0.931 . S
H13 C19 0.930 . S
N14 N15 1.234 . S
N14 C18 1.453 . S
N15 N14 1.234 . S
C16 H11 0.929 . S
C16 C17 1.373 . S
C16 C18 1.368 . S
C17 C16 1.373 . S
C17 C21 1.397 . S
C18 N14 1.453 . S
C18 C16 1.368 . S
C18 C19 1.373 . S
C19 H13 0.930 . S
C19 C18 1.373 . S
C19 C20 1.371 . S
C20 C19 1.371 . S
C20 C21 1.383 . S
C21 H12 0.931 . S
C21 C17 1.397 . S
C21 C20 1.383 . S
H22 C27 0.929 . S
H23 C32 0.931 . S
H24 C30 0.930 . S
N25 N26 1.234 . S
N25 C29 1.453 . S
N26 N25 1.234 . S
C27 H22 0.929 . S
C27 C28 1.373 . S
C27 C29 1.368 . S
C28 C27 1.373 . S
C28 C32 1.397 . S
C29 N25 1.453 . S
C29 C27 1.368 . S
C29 C30 1.373 . S
C30 H24 0.930 . S
C30 C29 1.373 . S
C30 C31 1.371 . S
C31 C30 1.371 . S
C31 C32 1.383 . S
C32 H23 0.931 . S
C32 C28 1.397 . S
C32 C31 1.383 . S
H33 C38 0.929 . S
H34 C43 0.931 . S
H35 C41 0.930 . S
N36 N37 1.234 . S
N36 C40 1.453 . S
N37 N36 1.234 . S
C38 H33 0.929 . S
C38 C39 1.373 . S
C38 C40 1.368 . S
C39 C38 1.373 . S
C39 C43 1.397 . S
C40 N36 1.453 . S
C40 C38 1.368 . S
C40 C41 1.373 . S
C41 H35 0.930 . S
C41 C40 1.373 . S
C41 C42 1.371 . S
C42 C41 1.371 . S
C42 C43 1.383 . S
C43 H34 0.931 . S
C43 C39 1.397 . S
C43 C42 1.383 . S
H44 C49 0.929 . S
H45 C54 0.931 . S
H46 C52 0.930 . S
N47 N48 1.234 . S
N47 C51 1.453 . S
N48 N47 1.234 . S
C49 H44 0.929 . S
C49 C50 1.373 . S
C49 C51 1.368 . S
C50 C49 1.373 . S
C50 C54 1.397 . S
C51 N47 1.453 . S
C51 C49 1.368 . S
C51 C52 1.373 . S
C52 H46 0.930 . S
C52 C51 1.373 . S
C52 C53 1.371 . S
C53 C52 1.371 . S
C53 C54 1.383 . S
C54 H45 0.931 . S
C54 C50 1.397 . S
C54 C53 1.383 . S
H55 C60 0.929 . S
H56 C65 0.931 . S
H57 C63 0.930 . S
N58 N59 1.234 . S
N58 C62 1.453 . S
N59 N58 1.234 . S
C60 H55 0.929 . S
C60 C61 1.373 . S
C60 C62 1.368 . S
C61 C60 1.373 . S
C61 C65 1.397 . S
C62 N58 1.453 . S
C62 C60 1.368 . S
C62 C63 1.373 . S
C63 H57 0.930 . S
C63 C62 1.373 . S
C63 C64 1.371 . S
C64 C63 1.371 . S
C64 C65 1.383 . S
C65 H56 0.931 . S
C65 C61 1.397 . S
C65 C64 1.383 . S
H66 C71 0.929 . S
H67 C76 0.931 . S
H68 C74 0.930 . S
N69 N70 1.234 . S
N69 C73 1.453 . S
N70 N69 1.234 . S
C71 H66 0.929 . S
C71 C72 1.373 . S
C71 C73 1.368 . S
C72 C71 1.373 . S
C72 C76 1.397 . S
C73 N69 1.453 . S
C73 C71 1.368 . S
C73 C74 1.373 . S
C74 H68 0.930 . S
C74 C73 1.373 . S
C74 C75 1.371 . S
C75 C74 1.371 . S
C75 C76 1.383 . S
C76 H67 0.931 . S
C76 C72 1.397 . S
C76 C75 1.383 . S
H77 C82 0.929 . S
H78 C87 0.931 . S
H79 C85 0.930 . S
N80 N81 1.234 . S
N80 C84 1.453 . S
N81 N80 1.234 . S
C82 H77 0.929 . S
C82 C83 1.373 . S
C82 C84 1.368 . S
C83 C82 1.373 . S
C83 C87 1.397 . S
C84 N80 1.453 . S
C84 C82 1.368 . S
C84 C85 1.373 . S
C85 H79 0.930 . S
C85 C84 1.373 . S
C85 C86 1.371 . S
C86 C85 1.371 . S
C86 C87 1.383 . S
C87 H78 0.931 . S
C87 C83 1.397 . S
C87 C86 1.383 . S
O88 Mg89 1.990 . S
O88 C102 1.253 1_445 S
Mg89 O88 1.990 . S
Mg89 O92 2.180 . S
Mg89 O93 2.117 . S
Mg89 O107 2.030 . S
O90 Mg91 2.072 1_665 S
O90 C102 1.260 . S
Mg91 O90 2.072 1_445 S
Mg91 O92 2.099 . S
Mg91 O94 2.079 . S
Mg91 O95 2.072 1_455 S
Mg91 O97 2.099 1_445 S
Mg91 O108 2.079 . S
O92 Mg89 2.180 . S
O92 Mg91 2.099 . S
O92 C103 1.279 . S
O93 Mg89 2.117 . S
O93 C103 1.250 . S
O94 Mg91 2.079 . S
O94 C104 1.264 . S
O95 Mg91 2.072 1_655 S
O95 C105 1.260 . S
Mg96 O97 2.180 . S
Mg96 O98 2.030 1_565 S
Mg96 O99 1.990 1_565 S
Mg96 O100 2.117 . S
O97 Mg91 2.099 1_665 S
O97 Mg96 2.180 . S
O97 C106 1.279 . S
O98 Mg96 2.030 1_545 S
O98 C104 1.248 1_655 S
O99 Mg96 1.990 1_545 S
O99 C105 1.253 . S
O100 Mg96 2.117 . S
O100 C106 1.250 . S
C101 O107 1.248 1_565 S
C101 O108 1.264 1_565 S
C102 O88 1.253 1_665 S
C102 O90 1.260 . S
C103 O92 1.279 . S
C103 O93 1.250 . S
C104 O94 1.264 . S
C104 O98 1.248 1_455 S
C105 O95 1.260 . S
C105 O99 1.253 . S
C106 O97 1.279 . S
C106 O100 1.250 . S
O107 Mg89 2.030 . S
O107 C101 1.248 1_545 S
O108 Mg91 2.079 . S
O108 C101 1.264 1_545 S
O109 Mg110 1.990 . S
O109 C123 1.253 . S
Mg110 O109 1.990 . S
Mg110 O113 2.180 . S
Mg110 O114 2.117 . S
Mg110 O128 2.030 . S
O111 Mg112 2.072 . S
O111 C123 1.260 . S
Mg112 O111 2.072 . S
Mg112 O113 2.099 . S
Mg112 O115 2.079 . S
Mg112 O116 2.072 1_554 S
Mg112 O118 2.099 1_545 S
Mg112 O129 2.079 . S
O113 Mg110 2.180 . S
O113 Mg112 2.099 . S
O113 C124 1.279 1_554 S
O114 Mg110 2.117 . S
O114 C124 1.250 1_554 S
O115 Mg112 2.079 . S
O115 C125 1.264 1_544 S
O116 Mg112 2.072 1_556 S
O116 C126 1.260 1_545 S
Mg117 O118 2.180 1_556 S
Mg117 O119 2.030 . S
Mg117 O120 1.990 . S
Mg117 O121 2.117 1_556 S
O118 Mg112 2.099 1_565 S
O118 Mg117 2.180 1_554 S
O118 C127 1.279 . S
O119 Mg117 2.030 . S
O119 C125 1.248 . S
O120 Mg117 1.990 . S
O120 C126 1.253 . S
O121 Mg117 2.117 1_554 S
O121 C127 1.250 . S
C122 O128 1.248 . S
C122 O129 1.264 . S
C123 O109 1.253 . S
C123 O111 1.260 . S
C124 O113 1.279 1_556 S
C124 O114 1.250 1_556 S
C125 O115 1.264 1_566 S
C125 O119 1.248 . S
C126 O116 1.260 1_565 S
C126 O120 1.253 . S
C127 O118 1.279 . S
C127 O121 1.250 . S
O128 Mg110 2.030 . S
O128 C122 1.248 . S
O129 Mg112 2.079 . S
O129 C122 1.264 . S
O130 Mg131 1.990 . S
O130 C144 1.253 . S
Mg131 O130 1.990 . S
Mg131 O134 2.180 . S
Mg131 O135 2.117 . S
Mg131 O149 2.030 . S
O132 Mg133 2.072 . S
O132 C144 1.260 . S
Mg133 O132 2.072 . S
Mg133 O134 2.099 . S
Mg133 O136 2.079 . S
Mg133 O137 2.072 . S
Mg133 O139 2.099 . S
Mg133 O150 2.079 . S
O134 Mg131 2.180 . S
O134 Mg133 2.099 . S
O134 C145 1.279 . S
O135 Mg131 2.117 . S
O135 C145 1.250 . S
O136 Mg133 2.079 . S
O136 C146 1.264 . S
O137 Mg133 2.072 . S
O137 C147 1.260 . S
Mg138 O139 2.180 . S
Mg138 O140 2.030 . S
Mg138 O141 1.990 . S
Mg138 O142 2.117 . S
O139 Mg133 2.099 . S
O139 Mg138 2.180 . S
O139 C148 1.279 . S
O140 Mg138 2.030 . S
O140 C146 1.248 . S
O141 Mg138 1.990 . S
O141 C147 1.253 . S
O142 Mg138 2.117 . S
O142 C148 1.250 . S
C143 O149 1.248 . S
C143 O150 1.264 . S
C144 O130 1.253 . S
C144 O132 1.260 . S
C145 O134 1.279 . S
C145 O135 1.250 . S
C146 O136 1.264 . S
C146 O140 1.248 . S
C147 O137 1.260 . S
C147 O141 1.253 . S
C148 O139 1.279 . S
C148 O142 1.250 . S
O149 Mg131 2.030 . S
O149 C143 1.248 . S
O150 Mg133 2.079 . S
O150 C143 1.264 . S
O151 Mg152 1.990 . S
O151 C165 1.253 . S
Mg152 O151 1.990 . S
Mg152 O155 2.180 . S
Mg152 O156 2.117 1_455 S
Mg152 O170 2.030 . S
O153 Mg154 2.072 . S
O153 C165 1.260 . S
Mg154 O153 2.072 . S
Mg154 O155 2.099 . S
Mg154 O157 2.079 1_554 S
Mg154 O158 2.072 1_454 S
Mg154 O160 2.099 1_554 S
Mg154 O171 2.079 . S
O155 Mg152 2.180 . S
O155 Mg154 2.099 . S
O155 C166 1.279 1_455 S
O156 Mg152 2.117 1_655 S
O156 C166 1.250 . S
O157 Mg154 2.079 1_556 S
O157 C167 1.264 1_455 S
O158 Mg154 2.072 1_656 S
O158 C168 1.263 . S
Mg159 O160 2.180 1_655 S
Mg159 O161 2.030 . S
Mg159 O162 1.990 . S
Mg159 O163 2.117 1_655 S
O160 Mg154 2.099 1_556 S
O160 Mg159 2.180 1_455 S
O160 C169 1.279 . S
O161 Mg159 2.030 . S
O161 C167 1.248 . S
O162 Mg159 1.990 . S
O162 C168 1.253 . S
O163 Mg159 2.117 1_455 S
O163 C169 1.250 . S
C164 O170 1.248 . S
C164 O171 1.264 . S
C165 O151 1.253 . S
C165 O153 1.260 . S
C166 O155 1.279 1_655 S
C166 O156 1.250 . S
C167 O157 1.264 1_655 S
C167 O161 1.248 . S
C168 O158 1.263 . S
C168 O162 1.253 . S
C169 O160 1.279 . S
C169 O163 1.250 . S
O170 Mg152 2.030 . S
O170 C164 1.248 . S
O171 Mg154 2.079 . S
O171 C164 1.264 . S
C172 C173 1.363 . S
C172 C178 1.379 . S
C172 N180 1.356 . S
C173 C172 1.363 . S
C173 C179 1.363 . S
C174 C175 1.363 . S
C174 C179 1.379 . S
C174 N181 1.356 . S
C175 C174 1.363 . S
C175 C178 1.363 . S
N176 C178 1.356 . S
N176 H188 0.984 1_445 S
N176 H189 0.985 1_455 S
N177 C179 1.356 . S
N177 H182 0.984 . S
N177 H183 0.985 . S
C178 C172 1.379 . S
C178 C175 1.363 . S
C178 N176 1.356 . S
C179 C173 1.363 . S
C179 C174 1.379 . S
C179 N177 1.356 . S
N180 C172 1.356 . S
N180 H186 0.984 . S
N180 H187 0.984 . S
N181 C174 1.356 . S
N181 H184 0.984 . S
N181 H185 0.985 . S
H182 N177 0.984 . S
H183 N177 0.985 . S
H184 N181 0.984 . S
H185 N181 0.985 . S
H186 N180 0.984 . S
H187 N180 0.984 . S
H188 N176 0.984 1_665 S
H189 N176 0.985 1_655 S
C190 C191 1.363 . S
C190 C196 1.379 . S
C190 N198 1.356 . S
C191 C190 1.363 . S
C191 C197 1.370 . S
C192 C193 1.363 1_545 S
C192 C197 1.377 1_545 S
C192 N199 1.356 . S
C193 C192 1.363 1_565 S
C193 C196 1.363 . S
N194 C196 1.356 . S
N194 H206 0.984 . S
N194 H207 0.985 . S
N195 C197 1.353 1_545 S
N195 H200 0.984 1_545 S
N195 H201 0.985 . S
C196 C190 1.379 . S
C196 C193 1.363 . S
C196 N194 1.356 . S
C197 C191 1.370 . S
C197 C192 1.377 1_565 S
C197 N195 1.353 1_565 S
N198 C190 1.356 . S
N198 H204 0.984 . S
N198 H205 0.984 . S
N199 C192 1.356 . S
N199 H202 0.984 . S
N199 H203 0.985 . S
H200 N195 0.984 1_565 S
H201 N195 0.985 . S
H202 N199 0.984 . S
H203 N199 0.985 . S
H204 N198 0.984 . S
H205 N198 0.984 . S
H206 N194 0.984 . S
H207 N194 0.985 . S
C208 C209 1.363 . S
C208 C214 1.379 . S
C208 N216 1.356 . S
C209 C208 1.363 . S
C209 C215 1.363 . S
C210 C211 1.363 . S
C210 C215 1.379 . S
C210 N217 1.356 . S
C211 C210 1.363 . S
C211 C214 1.363 . S
N212 C214 1.356 . S
N212 H224 0.984 . S
N212 H225 0.985 . S
N213 C215 1.356 . S
N213 H218 0.984 . S
N213 H219 0.985 . S
C214 C208 1.379 . S
C214 C211 1.363 . S
C214 N212 1.356 . S
C215 C209 1.363 . S
C215 C210 1.379 . S
C215 N213 1.356 . S
N216 C208 1.356 . S
N216 H222 0.984 . S
N216 H223 0.984 . S
N217 C210 1.356 . S
N217 H220 0.984 . S
N217 H221 0.985 . S
H218 N213 0.984 . S
H219 N213 0.985 . S
H220 N217 0.984 . S
H221 N217 0.985 . S
H222 N216 0.984 . S
H223 N216 0.984 . S
H224 N212 0.984 . S
H225 N212 0.985 . S
C226 C227 1.363 . S
C226 C232 1.379 . S
C226 N234 1.356 . S
C227 C226 1.363 . S
C227 C233 1.363 . S
C228 C229 1.363 . S
C228 C233 1.379 . S
C228 N235 1.356 . S
C229 C228 1.363 . S
C229 C232 1.363 . S
N230 C232 1.356 . S
N230 H242 0.984 1_655 S
N230 H243 0.985 . S
N231 C233 1.356 . S
N231 H236 0.984 . S
N231 H237 0.985 . S
C232 C226 1.379 . S
C232 C229 1.363 . S
C232 N230 1.356 . S
C233 C227 1.363 . S
C233 C228 1.379 . S
C233 N231 1.356 . S
N234 C226 1.356 . S
N234 H240 0.984 . S
N234 H241 0.984 . S
N235 C228 1.356 . S
N235 H238 0.984 . S
N235 H239 0.985 . S
H236 N231 0.984 . S
H237 N231 0.985 . S
H238 N235 0.984 . S
H239 N235 0.985 . S
H240 N234 0.984 . S
H241 N234 0.984 . S
H242 N230 0.984 1_455 S
H243 N230 0.985 . S
C244 C245 1.363 . S
C244 C250 1.379 . S
C244 N252 1.356 . S
C245 C244 1.363 . S
C245 C251 1.363 . S
C246 C247 1.363 . S
C246 C251 1.379 . S
C246 N253 1.356 . S
C247 C246 1.363 . S
C247 C250 1.363 . S
N248 C250 1.356 . S
N248 H260 0.984 . S
N248 H261 0.985 . S
N249 C251 1.356 . S
N249 H254 0.984 . S
N249 H255 0.985 . S
C250 C244 1.379 . S
C250 C247 1.363 . S
C250 N248 1.356 . S
C251 C245 1.363 . S
C251 C246 1.379 . S
C251 N249 1.356 . S
N252 C244 1.356 . S
N252 H258 0.984 . S
N252 H259 0.984 . S
N253 C246 1.356 . S
N253 H256 0.984 . S
N253 H257 0.985 1_545 S
H254 N249 0.984 . S
H255 N249 0.985 . S
H256 N253 0.984 . S
H257 N253 0.985 1_565 S
H258 N252 0.984 . S
H259 N252 0.984 . S
H260 N248 0.984 . S
H261 N248 0.985 . S
C262 C263 1.363 . S
C262 C268 1.379 . S
C262 N270 1.356 1_565 S
C263 C262 1.363 . S
C263 C269 1.363 . S
C264 C265 1.363 . S
C264 C269 1.379 . S
C264 N271 1.356 . S
C265 C264 1.363 . S
C265 C268 1.363 . S
N266 C268 1.356 1_545 S
N266 H278 0.984 . S
N266 H279 0.985 . S
N267 C269 1.356 . S
N267 H272 0.984 . S
N267 H273 0.985 . S
C268 C262 1.379 . S
C268 C265 1.363 . S
C268 N266 1.356 1_565 S
C269 C263 1.363 . S
C269 C264 1.379 . S
C269 N267 1.356 . S
N270 C262 1.356 1_545 S
N270 H276 0.984 . S
N270 H277 0.984 1_545 S
N271 C264 1.356 . S
N271 H274 0.984 . S
N271 H275 0.985 . S
H272 N267 0.984 . S
H273 N267 0.985 . S
H274 N271 0.984 . S
H275 N271 0.985 . S
H276 N270 0.984 . S
H277 N270 0.984 1_565 S
H278 N266 0.984 . S
H279 N266 0.985 . S
C280 C281 1.363 . S
C280 C286 1.377 1_556 S
C280 N288 1.356 1_556 S
C281 C280 1.363 . S
C281 C287 1.363 . S
C282 C283 1.363 . S
C282 C287 1.379 . S
C282 N289 1.356 . S
C283 C282 1.363 . S
C283 C286 1.355 1_556 S
N284 C286 1.365 . S
N284 H296 0.984 . S
N284 H297 0.985 . S
N285 C287 1.356 . S
N285 H290 0.984 . S
N285 H291 0.985 . S
C286 C280 1.377 1_554 S
C286 C283 1.355 1_554 S
C286 N284 1.365 . S
C287 C281 1.363 . S
C287 C282 1.379 . S
C287 N285 1.356 . S
N288 C280 1.356 1_554 S
N288 H294 0.984 . S
N288 H295 0.984 1_554 S
N289 C282 1.356 . S
N289 H292 0.984 . S
N289 H293 0.985 . S
H290 N285 0.984 . S
H291 N285 0.985 . S
H292 N289 0.984 . S
H293 N289 0.985 . S
H294 N288 0.984 . S
H295 N288 0.984 1_556 S
H296 N284 0.984 . S
H297 N284 0.985 . S
C298 C299 1.363 . S
C298 C304 1.379 . S
C298 N306 1.356 . S
C299 C298 1.363 . S
C299 C305 1.363 . S
C300 C301 1.363 . S
C300 C305 1.379 . S
C300 N307 1.356 . S
C301 C300 1.363 . S
C301 C304 1.363 . S
N302 C304 1.356 . S
N302 H314 0.984 . S
N302 H315 0.985 . S
N303 C305 1.356 . S
N303 H308 0.984 . S
N303 H309 0.985 . S
C304 C298 1.379 . S
C304 C301 1.363 . S
C304 N302 1.356 . S
C305 C299 1.363 . S
C305 C300 1.379 . S
C305 N303 1.356 . S
N306 C298 1.356 . S
N306 H312 0.984 . S
N306 H313 0.984 . S
N307 C300 1.356 . S
N307 H310 0.984 . S
N307 H311 0.985 . S
H308 N303 0.984 . S
H309 N303 0.985 . S
H310 N307 0.984 . S
H311 N307 0.985 . S
H312 N306 0.984 . S
H313 N306 0.984 . S
H314 N302 0.984 . S
H315 N302 0.985 . S
C316 C317 1.363 . S
C316 C322 1.379 . S
C316 N324 1.356 . S
C317 C316 1.363 . S
C317 C323 1.363 . S
C318 C319 1.363 . S
C318 C323 1.379 . S
C318 N325 1.356 . S
C319 C318 1.363 . S
C319 C322 1.363 . S
N320 C322 1.356 1_556 S
N320 H332 0.984 . S
N320 H333 0.985 . S
N321 C323 1.356 . S
N321 H326 0.984 . S
N321 H327 0.985 . S
C322 C316 1.379 . S
C322 C319 1.363 . S
C322 N320 1.356 1_554 S
C323 C317 1.363 . S
C323 C318 1.379 . S
C323 N321 1.356 . S
N324 C316 1.356 . S
N324 H330 0.984 1_554 S
N324 H331 0.984 . S
N325 C318 1.356 . S
N325 H328 0.984 . S
N325 H329 0.985 . S
H326 N321 0.984 . S
H327 N321 0.985 . S
H328 N325 0.984 . S
H329 N325 0.985 . S
H330 N324 0.984 1_556 S
H331 N324 0.984 . S
H332 N320 0.984 . S
H333 N320 0.985 . S
C334 C335 1.363 . S
C334 C340 1.379 . S
C334 N342 1.356 . S
C335 C334 1.363 . S
C335 C341 1.363 . S
C336 C337 1.363 . S
C336 C341 1.379 . S
C336 N343 1.356 1_556 S
C337 C336 1.363 . S
C337 C340 1.363 . S
N338 C340 1.356 . S
N338 H350 0.984 . S
N338 H351 0.985 . S
N339 C341 1.356 1_554 S
N339 H344 0.984 1_554 S
N339 H345 0.985 . S
C340 C334 1.379 . S
C340 C337 1.363 . S
C340 N338 1.356 . S
C341 C335 1.363 . S
C341 C336 1.379 . S
C341 N339 1.356 1_556 S
N342 C334 1.356 . S
N342 H348 0.984 . S
N342 H349 0.984 . S
N343 C336 1.356 1_554 S
N343 H346 0.984 . S
N343 H347 0.985 . S
H344 N339 0.984 1_556 S
H345 N339 0.985 . S
H346 N343 0.984 . S
H347 N343 0.985 . S
H348 N342 0.984 . S
H349 N342 0.984 . S
H350 N338 0.984 . S
H351 N338 0.985 . S
C352 C353 1.363 . S
C352 C358 1.379 . S
C352 N360 1.356 . S
C353 C352 1.363 . S
C353 C359 1.363 . S
C354 C355 1.363 . S
C354 C359 1.379 . S
C354 N361 1.356 . S
C355 C354 1.363 . S
C355 C358 1.363 . S
N356 C358 1.356 . S
N356 H368 0.984 . S
N356 H369 0.985 . S
N357 C359 1.356 . S
N357 H362 0.984 . S
N357 H363 0.985 . S
C358 C352 1.379 . S
C358 C355 1.363 . S
C358 N356 1.356 . S
C359 C353 1.363 . S
C359 C354 1.379 . S
C359 N357 1.356 . S
N360 C352 1.356 . S
N360 H366 0.984 . S
N360 H367 0.984 . S
N361 C354 1.356 . S
N361 H364 0.984 1_655 S
N361 H365 0.985 1_655 S
H362 N357 0.984 . S
H363 N357 0.985 . S
H364 N361 0.984 1_455 S
H365 N361 0.985 1_455 S
H366 N360 0.984 . S
H367 N360 0.984 . S
H368 N356 0.984 . S
H369 N356 0.985 . S
C370 C371 1.363 . S
C370 C376 1.379 . S
C370 N378 1.356 . S
C371 C370 1.363 . S
C371 C377 1.363 . S
C372 C373 1.363 . S
C372 C377 1.379 . S
C372 N379 1.356 . S
C373 C372 1.363 . S
C373 C376 1.363 . S
N374 C376 1.356 . S
N374 H386 0.984 . S
N374 H387 0.985 . S
N375 C377 1.356 . S
N375 H380 0.984 . S
N375 H381 0.985 . S
C376 C370 1.379 . S
C376 C373 1.363 . S
C376 N374 1.356 . S
C377 C371 1.363 . S
C377 C372 1.379 . S
C377 N375 1.356 . S
N378 C370 1.356 . S
N378 H384 0.984 . S
N378 H385 0.984 . S
N379 C372 1.356 . S
N379 H382 0.984 . S
N379 H383 0.985 . S
H380 N375 0.984 . S
H381 N375 0.985 . S
H382 N379 0.984 . S
H383 N379 0.985 . S
H384 N378 0.984 . S
H385 N378 0.984 . S
H386 N374 0.984 . S
H387 N374 0.985 . S
C388 C389 1.363 . S
C388 C394 1.383 . S
C388 N396 1.356 1_655 S
C389 C388 1.363 . S
C389 C395 1.363 . S
C390 C391 1.363 . S
C390 C395 1.379 . S
C390 N397 1.356 . S
C391 C390 1.363 . S
C391 C394 1.379 . S
N392 C394 1.339 1_455 S
N392 H404 0.984 . S
N392 H405 0.985 . S
N393 C395 1.356 . S
N393 H398 0.984 . S
N393 H399 0.985 . S
C394 C388 1.383 . S
C394 C391 1.379 . S
C394 N392 1.339 1_655 S
C395 C389 1.363 . S
C395 C390 1.379 . S
C395 N393 1.356 . S
N396 C388 1.356 1_455 S
N396 H402 0.984 . S
N396 H403 0.984 . S
N397 C390 1.356 . S
N397 H400 0.984 . S
N397 H401 0.985 . S
H398 N393 0.984 . S
H399 N393 0.985 . S
H400 N397 0.984 . S
H401 N397 0.985 . S
H402 N396 0.984 . S
H403 N396 0.984 . S
H404 N392 0.984 . S
H405 N392 0.985 . S
C406 C407 1.363 . S
C406 C412 1.379 . S
C406 N414 1.356 . S
C407 C406 1.363 . S
C407 C413 1.363 . S
C408 C409 1.363 . S
C408 C413 1.379 . S
C408 N415 1.356 . S
C409 C408 1.363 . S
C409 C412 1.363 . S
N410 C412 1.356 . S
N410 H422 0.984 . S
N410 H423 0.985 . S
N411 C413 1.356 . S
N411 H416 0.984 . S
N411 H417 0.985 . S
C412 C406 1.379 . S
C412 C409 1.363 . S
C412 N410 1.356 . S
C413 C407 1.363 . S
C413 C408 1.379 . S
C413 N411 1.356 . S
N414 C406 1.356 . S
N414 H420 0.984 . S
N414 H421 0.984 . S
N415 C408 1.356 . S
N415 H418 0.984 . S
N415 H419 0.985 1_545 S
H416 N411 0.984 . S
H417 N411 0.985 . S
H418 N415 0.984 . S
H419 N415 0.985 1_565 S
H420 N414 0.984 . S
H421 N414 0.984 . S
H422 N410 0.984 . S
H423 N410 0.985 . S
C424 C425 1.363 . S
C424 C430 1.379 . S
C424 N432 1.356 . S
C425 C424 1.363 . S
C425 C431 1.363 . S
C426 C427 1.363 . S
C426 C431 1.379 . S
C426 N433 1.356 . S
C427 C426 1.363 . S
C427 C430 1.363 . S
N428 C430 1.356 . S
N428 H440 0.984 . S
N428 H441 0.985 . S
N429 C431 1.356 . S
N429 H434 0.984 . S
N429 H435 0.985 . S
C430 C424 1.379 . S
C430 C427 1.363 . S
C430 N428 1.356 . S
C431 C425 1.363 . S
C431 C426 1.379 . S
C431 N429 1.356 . S
N432 C424 1.356 . S
N432 H438 0.984 . S
N432 H439 0.984 . S
N433 C426 1.356 . S
N433 H436 0.984 . S
N433 H437 0.985 . S
H434 N429 0.984 . S
H435 N429 0.985 . S
H436 N433 0.984 . S
H437 N433 0.985 . S
H438 N432 0.984 . S
H439 N432 0.984 . S
H440 N428 0.984 . S
H441 N428 0.985 . S
C442 C443 1.363 . S
C442 C448 1.379 . S
C442 N450 1.356 . S
C443 C442 1.363 . S
C443 C449 1.363 . S
C444 C445 1.363 . S
C444 C449 1.379 . S
C444 N451 1.356 . S
C445 C444 1.363 . S
C445 C448 1.363 . S
N446 C448 1.356 . S
N446 H458 0.984 1_455 S
N446 H459 0.985 . S
N447 C449 1.356 . S
N447 H452 0.984 . S
N447 H453 0.985 . S
C448 C442 1.379 . S
C448 C445 1.363 . S
C448 N446 1.356 . S
C449 C443 1.363 . S
C449 C444 1.379 . S
C449 N447 1.356 . S
N450 C442 1.356 . S
N450 H456 0.984 1_455 S
N450 H457 0.984 . S
N451 C444 1.356 . S
N451 H454 0.984 . S
N451 H455 0.985 . S
H452 N447 0.984 . S
H453 N447 0.985 . S
H454 N451 0.984 . S
H455 N451 0.985 . S
H456 N450 0.984 1_655 S
H457 N450 0.984 . S
H458 N446 0.984 1_655 S
H459 N446 0.985 . S
C460 C461 1.363 . S
C460 C466 1.379 . S
C460 N468 1.356 . S
C461 C460 1.363 . S
C461 C467 1.363 1_565 S
C462 C463 1.363 1_545 S
C462 C467 1.379 . S
C462 N469 1.356 . S
C463 C462 1.363 1_565 S
C463 C466 1.363 . S
N464 C466 1.356 1_554 S
N464 H476 0.984 . S
N464 H477 0.985 . S
N465 C467 1.356 . S
N465 H470 0.984 . S
N465 H471 0.985 . S
C466 C460 1.379 . S
C466 C463 1.363 . S
C466 N464 1.356 1_556 S
C467 C461 1.363 1_545 S
C467 C462 1.379 . S
C467 N465 1.356 . S
N468 C460 1.356 . S
N468 H474 0.984 . S
N468 H475 0.984 . S
N469 C462 1.356 . S
N469 H472 0.984 . S
N469 H473 0.985 . S
H470 N465 0.984 . S
H471 N465 0.985 . S
H472 N469 0.984 . S
H473 N469 0.985 . S
H474 N468 0.984 . S
H475 N468 0.984 . S
H476 N464 0.984 . S
H477 N464 0.985 . S
C478 C479 1.363 . S
C478 C484 1.379 . S
C478 N486 1.356 . S
C479 C478 1.363 . S
C479 C485 1.363 . S
C480 C481 1.363 . S
C480 C485 1.379 . S
C480 N487 1.356 . S
C481 C480 1.363 . S
C481 C484 1.363 . S
N482 C484 1.356 . S
N482 H494 0.984 . S
N482 H495 0.985 . S
N483 C485 1.356 . S
N483 H488 0.984 . S
N483 H489 0.985 . S
C484 C478 1.379 . S
C484 C481 1.363 . S
C484 N482 1.356 . S
C485 C479 1.363 . S
C485 C480 1.379 . S
C485 N483 1.356 . S
N486 C478 1.356 . S
N486 H492 0.984 . S
N486 H493 0.984 . S
N487 C480 1.356 . S
N487 H490 0.984 . S
N487 H491 0.985 . S
H488 N483 0.984 . S
H489 N483 0.985 . S
H490 N487 0.984 . S
H491 N487 0.985 . S
H492 N486 0.984 . S
H493 N486 0.984 . S
H494 N482 0.984 . S
H495 N482 0.985 . S
C496 C497 1.363 . S
C496 C502 1.379 . S
C496 N504 1.356 . S
C497 C496 1.363 . S
C497 C503 1.363 . S
C498 C499 1.363 . S
C498 C503 1.379 . S
C498 N505 1.356 . S
C499 C498 1.363 . S
C499 C502 1.363 . S
N500 C502 1.356 . S
N500 H512 0.984 . S
N500 H513 0.985 . S
N501 C503 1.356 . S
N501 H506 0.984 . S
N501 H507 0.985 . S
C502 C496 1.379 . S
C502 C499 1.363 . S
C502 N500 1.356 . S
C503 C497 1.363 . S
C503 C498 1.379 . S
C503 N501 1.356 . S
N504 C496 1.356 . S
N504 H510 0.984 . S
N504 H511 0.984 . S
N505 C498 1.356 . S
N505 H508 0.984 . S
N505 H509 0.985 . S
H506 N501 0.984 . S
H507 N501 0.985 . S
H508 N505 0.984 . S
H509 N505 0.985 . S
H510 N504 0.984 . S
H511 N504 0.984 . S
H512 N500 0.984 . S
H513 N500 0.985 . S
C514 C515 1.363 . S
C514 C520 1.379 . S
C514 N522 1.356 . S
C515 C514 1.363 . S
C515 C521 1.363 . S
C516 C517 1.363 . S
C516 C521 1.379 . S
C516 N523 1.356 . S
C517 C516 1.363 . S
C517 C520 1.363 . S
N518 C520 1.356 . S
N518 H530 0.984 . S
N518 H531 0.985 . S
N519 C521 1.356 . S
N519 H524 0.984 . S
N519 H525 0.985 . S
C520 C514 1.379 . S
C520 C517 1.363 . S
C520 N518 1.356 . S
C521 C515 1.363 . S
C521 C516 1.379 . S
C521 N519 1.356 . S
N522 C514 1.356 . S
N522 H528 0.984 . S
N522 H529 0.984 . S
N523 C516 1.356 . S
N523 H526 0.984 . S
N523 H527 0.985 . S
H524 N519 0.984 . S
H525 N519 0.985 . S
H526 N523 0.984 . S
H527 N523 0.985 . S
H528 N522 0.984 . S
H529 N522 0.984 . S
H530 N518 0.984 . S
H531 N518 0.985 . S
C532 C533 1.363 . S
C532 C538 1.379 . S
C532 N540 1.356 . S
C533 C532 1.363 . S
C533 C539 1.363 . S
C534 C535 1.363 . S
C534 C539 1.379 . S
C534 N541 1.356 . S
C535 C534 1.363 . S
C535 C538 1.363 . S
N536 C538 1.356 1_454 S
N536 H548 0.984 . S
N536 H549 0.985 . S
N537 C539 1.356 . S
N537 H542 0.984 . S
N537 H543 0.985 . S
C538 C532 1.379 . S
C538 C535 1.363 . S
C538 N536 1.356 1_656 S
C539 C533 1.363 . S
C539 C534 1.379 . S
C539 N537 1.356 . S
N540 C532 1.356 . S
N540 H546 0.984 1_655 S
N540 H547 0.984 . S
N541 C534 1.356 . S
N541 H544 0.984 . S
N541 H545 0.985 . S
H542 N537 0.984 . S
H543 N537 0.985 . S
H544 N541 0.984 . S
H545 N541 0.985 . S
H546 N540 0.984 1_455 S
H547 N540 0.984 . S
H548 N536 0.984 . S
H549 N536 0.985 . S
C550 C551 1.363 . S
C550 C556 1.379 . S
C550 N558 1.356 . S
C551 C550 1.363 . S
C551 C557 1.363 . S
C552 C553 1.363 . S
C552 C557 1.379 . S
C552 N559 1.356 . S
C553 C552 1.363 . S
C553 C556 1.363 . S
N554 C556 1.356 . S
N554 H566 0.984 1_554 S
N554 H567 0.985 . S
N555 C557 1.356 . S
N555 H560 0.984 . S
N555 H561 0.985 . S
C556 C550 1.379 . S
C556 C553 1.363 . S
C556 N554 1.356 . S
C557 C551 1.363 . S
C557 C552 1.379 . S
C557 N555 1.356 . S
N558 C550 1.356 . S
N558 H564 0.984 . S
N558 H565 0.984 . S
N559 C552 1.356 . S
N559 H562 0.984 . S
N559 H563 0.985 . S
H560 N555 0.984 . S
H561 N555 0.985 . S
H562 N559 0.984 . S
H563 N559 0.985 . S
H564 N558 0.984 . S
H565 N558 0.984 . S
H566 N554 0.984 1_556 S
H567 N554 0.985 . S
C568 C569 1.363 . S
C568 C574 1.379 . S
C568 N576 1.356 . S
C569 C568 1.363 . S
C569 C575 1.363 . S
C570 C571 1.363 . S
C570 C575 1.379 . S
C570 N577 1.356 . S
C571 C570 1.363 . S
C571 C574 1.363 . S
N572 C574 1.356 . S
N572 H584 0.990 . S
N572 H585 0.985 . S
N573 C575 1.356 . S
N573 H578 0.984 . S
N573 H579 0.985 . S
C574 C568 1.379 . S
C574 C571 1.363 . S
C574 N572 1.356 . S
C575 C569 1.363 . S
C575 C570 1.379 . S
C575 N573 1.356 . S
N576 C568 1.356 . S
N576 H582 0.984 . S
N576 H583 0.984 . S
N577 C570 1.356 . S
N577 H580 0.984 . S
N577 H581 0.985 . S
H578 N573 0.984 . S
H579 N573 0.985 . S
H580 N577 0.984 . S
H581 N577 0.985 . S
H582 N576 0.984 . S
H583 N576 0.984 . S
H584 N572 0.990 . S
H585 N572 0.985 . S
C586 C587 1.363 . S
C586 C592 1.379 . S
C586 N594 1.356 . S
C587 C586 1.363 . S
C587 C593 1.363 . S
C588 C589 1.363 . S
C588 C593 1.379 . S
C588 N595 1.356 . S
C589 C588 1.363 . S
C589 C592 1.363 . S
N590 C592 1.356 . S
N590 H602 0.984 . S
N590 H603 0.985 . S
N591 C593 1.356 . S
N591 H596 0.984 . S
N591 H597 0.985 . S
C592 C586 1.379 . S
C592 C589 1.363 . S
C592 N590 1.356 . S
C593 C587 1.363 . S
C593 C588 1.379 . S
C593 N591 1.356 . S
N594 C586 1.356 . S
N594 H600 0.984 . S
N594 H601 0.984 . S
N595 C588 1.356 . S
N595 H598 0.984 . S
N595 H599 0.985 . S
H596 N591 0.984 . S
H597 N591 0.985 . S
H598 N595 0.984 . S
H599 N595 0.985 . S
H600 N594 0.984 . S
H601 N594 0.984 . S
H602 N590 0.984 . S
H603 N590 0.985 . S
C173 C6 1.711 . S
C175 C104 1.664 . S
C191 C20 1.708 . S
C193 C126 1.651 . S
C211 C145 1.019 . S
C209 N26 1.217 . S
C227 N37 1.605 . S
C229 C166 1.284 . S
C247 C123 1.960 . S
C245 C9 2.036 . S
C265 C101 1.384 . S
C263 N15 1.440 . S
C283 C168 1.283 . S
C281 C31 1.318 . S
C301 C147 1.328 . S
C299 C39 1.423 . S
C317 N4 1.657 . S
C319 C165 1.623 . S
C337 C124 1.349 . S
C335 C28 1.657 . S
C353 C42 1.470 . S
C355 C106 1.323 . S
C371 C17 1.602 . S
C373 C144 1.560 . S
C391 C102 1.706 . S
C389 C50 1.809 . S
C407 C61 1.448 . S
C409 C122 1.444 . S
C425 N70 1.438 . S
C427 C148 1.196 . S
C443 N81 1.424 . S
C445 C169 1.136 . S
C461 N48 1.511 . S
C463 C125 1.483 . S
C481 C105 1.929 . S
C479 C64 1.956 . S
C499 C164 1.175 . S
C497 C75 1.261 . S
C517 C143 1.422 . S
C515 C86 1.439 . S
C533 C53 1.741 . S
C535 C167 1.673 . S
C553 C127 1.084 . S
C551 C72 1.305 . S
C571 C103 1.380 . S
C569 C83 1.554 . S
C587 N59 1.509 . S
C589 C146 1.478 . S
