# Generated by pormake.
# Topology dag, (6,3)-cn, num edge types: 1
# Building blocks:
#     Node 0, Type 0, BuildingBlock: IZENUY_clean_sbu_0, # of connection points: 6
#     Node 1, Type 0, BuildingBlock: IZENUY_clean_sbu_0, # of connection points: 6
#     Node 2, Type 0, BuildingBlock: IZENUY_clean_sbu_0, # of connection points: 6
#     Node 3, Type 0, BuildingBlock: IZENUY_clean_sbu_0, # of connection points: 6
#     Node 4, Type 1, BuildingBlock: ESEHIV_clean_linker_0, # of connection points: 3
#     Node 5, Type 1, BuildingBlock: ESEHIV_clean_linker_0, # of connection points: 3
#     Node 6, Type 1, BuildingBlock: ESEHIV_clean_linker_0, # of connection points: 3
#     Node 7, Type 1, BuildingBlock: ESEHIV_clean_linker_0, # of connection points: 3
#     Node 8, Type 1, BuildingBlock: ESEHIV_clean_linker_0, # of connection points: 3
#     Node 9, Type 1, BuildingBlock: ESEHIV_clean_linker_0, # of connection points: 3
#     Node 10, Type 1, BuildingBlock: ESEHIV_clean_linker_0, # of connection points: 3
#     Node 11, Type 1, BuildingBlock: ESEHIV_clean_linker_0, # of connection points: 3
#     Edge 12, Type (0, 1), BuildingBlock: KIFKEQ_clean_linker_1, # of connection points: 2
#     Edge 13, Type (0, 1), BuildingBlock: KIFKEQ_clean_linker_1, # of connection points: 2
#     Edge 14, Type (0, 1), BuildingBlock: KIFKEQ_clean_linker_1, # of connection points: 2
#     Edge 15, Type (0, 1), BuildingBlock: KIFKEQ_clean_linker_1, # of connection points: 2
#     Edge 16, Type (0, 1), BuildingBlock: KIFKEQ_clean_linker_1, # of connection points: 2
#     Edge 17, Type (0, 1), BuildingBlock: KIFKEQ_clean_linker_1, # of connection points: 2
#     Edge 18, Type (0, 1), BuildingBlock: KIFKEQ_clean_linker_1, # of connection points: 2
#     Edge 19, Type (0, 1), BuildingBlock: KIFKEQ_clean_linker_1, # of connection points: 2
#     Edge 20, Type (0, 1), BuildingBlock: KIFKEQ_clean_linker_1, # of connection points: 2
#     Edge 21, Type (0, 1), BuildingBlock: KIFKEQ_clean_linker_1, # of connection points: 2
#     Edge 22, Type (0, 1), BuildingBlock: KIFKEQ_clean_linker_1, # of connection points: 2
#     Edge 23, Type (0, 1), BuildingBlock: KIFKEQ_clean_linker_1, # of connection points: 2
#     Edge 24, Type (0, 1), BuildingBlock: KIFKEQ_clean_linker_1, # of connection points: 2
#     Edge 25, Type (0, 1), BuildingBlock: KIFKEQ_clean_linker_1, # of connection points: 2
#     Edge 26, Type (0, 1), BuildingBlock: KIFKEQ_clean_linker_1, # of connection points: 2
#     Edge 27, Type (0, 1), BuildingBlock: KIFKEQ_clean_linker_1, # of connection points: 2
#     Edge 28, Type (0, 1), BuildingBlock: KIFKEQ_clean_linker_1, # of connection points: 2
#     Edge 29, Type (0, 1), BuildingBlock: KIFKEQ_clean_linker_1, # of connection points: 2
#     Edge 30, Type (0, 1), BuildingBlock: KIFKEQ_clean_linker_1, # of connection points: 2
#     Edge 31, Type (0, 1), BuildingBlock: KIFKEQ_clean_linker_1, # of connection points: 2
#     Edge 32, Type (0, 1), BuildingBlock: KIFKEQ_clean_linker_1, # of connection points: 2
#     Edge 33, Type (0, 1), BuildingBlock: KIFKEQ_clean_linker_1, # of connection points: 2
#     Edge 34, Type (0, 1), BuildingBlock: KIFKEQ_clean_linker_1, # of connection points: 2
#     Edge 35, Type (0, 1), BuildingBlock: KIFKEQ_clean_linker_1, # of connection points: 2
# Relax obj value: 0.255
# Max RMSD: 0.192
# Mean RMSD: 0.159
data_MOF--net-dag--node1-IZENUY_clean_sbu_0--node2-ESEHIV_clean_linker_0--edge1-KIFKEQ_clean_linker_1
_symmetry_space_group_name_H-M    P1
_symmetry_Int_Tables_number       1
_symmetry_cell_setting            triclinic
loop_
_symmetry_equiv_pos_as_xyz
'x, y, z'
_cell_length_a     36.703245
_cell_length_b     38.22697
_cell_length_c     32.342686
_cell_angle_alpha  95.220621
_cell_angle_beta   90.081026
_cell_angle_gamma 90.010309
loop_
_atom_site_label
_atom_site_type_symbol
_atom_site_fract_x
_atom_site_fract_y
_atom_site_fract_z
_atom_type_partial_charge
Fe0 Fe 0.20097 0.84806 0.09625 0.0
Fe1 Fe 0.12988 0.86974 0.05676 0.0
O2 O 0.15892 0.83633 0.07186 0.0
Fe3 Fe 0.14605 0.79149 0.06261 0.0
O4 O 0.14853 0.7853 0.11755 0.0
O5 O 0.20161 0.81105 0.12834 0.0
O6 O 0.17817 0.87318 0.13916 0.0
C7 C 0.15702 0.89849 0.13438 0.0
C8 C 0.22161 0.79149 0.04377 0.0
O9 O 0.1432 0.90238 0.09923 0.0
C10 C 0.12361 0.81693 0.99034 0.0
O11 O 0.20827 0.8874 0.06835 0.0
O12 O 0.16416 0.88484 0.02243 0.0
O13 O 0.19291 0.77555 0.05333 0.0
O14 O 0.22614 0.82365 0.05513 0.0
C15 C 0.07998 0.82605 0.08757 0.0
O16 O 0.11131 0.84361 0.01169 0.0
O17 O 0.14239 0.79429 0.00681 0.0
C18 C 0.19532 0.89542 0.03412 0.0
O19 O 0.09366 0.85646 0.08976 0.0
O20 O 0.09703 0.7998 0.07031 0.0
C21 C 0.17612 0.79205 0.14014 0.0
Fe22 Fe 0.6924 0.64711 0.48884 0.0
Fe23 Fe 0.63984 0.70628 0.52002 0.0
O24 O 0.64983 0.66093 0.51024 0.0
Fe25 Fe 0.6172 0.62936 0.52178 0.0
O26 O 0.64789 0.61076 0.55797 0.0
O27 O 0.69484 0.60693 0.5158 0.0
O28 O 0.71668 0.66921 0.53255 0.0
C29 C 0.71377 0.70151 0.54408 0.0
C30 C 0.64639 0.60111 0.44537 0.0
O31 O 0.68711 0.71921 0.53226 0.0
C32 C 0.5729 0.67699 0.48931 0.0
O33 O 0.69748 0.6847 0.45808 0.0
O34 O 0.6455 0.71312 0.46557 0.0
O35 O 0.63042 0.597 0.47924 0.0
O36 O 0.67076 0.62418 0.44362 0.0
C37 C 0.6109 0.68162 0.58913 0.0
O38 O 0.59054 0.70141 0.50961 0.0
O39 O 0.58466 0.64591 0.4863 0.0
C40 C 0.67385 0.70506 0.44479 0.0
O41 O 0.63359 0.7023 0.57518 0.0
O42 O 0.59774 0.65614 0.5662 0.0
C43 C 0.67903 0.59865 0.54831 0.0
Fe44 Fe 0.86007 0.20596 0.02243 0.0
Fe45 Fe 0.87949 0.1288 0.03124 0.0
O46 O 0.84896 0.16059 0.01503 0.0
Fe47 Fe 0.80709 0.14679 0.99155 0.0
O48 O 0.80451 0.18284 0.95833 0.0
O49 O 0.85661 0.2108 0.96718 0.0
O50 O 0.90946 0.19938 0.01449 0.0
C51 C 0.92743 0.17327 0.9983 0.0
C52 C 0.78489 0.20372 0.04255 0.0
O53 O 0.91482 0.14254 0.99751 0.0
C54 C 0.81515 0.10124 0.05501 0.0
O55 O 0.86425 0.20473 0.07834 0.0
O56 O 0.89741 0.15669 0.07545 0.0
O57 O 0.78144 0.17122 0.03238 0.0
O58 O 0.81273 0.22032 0.03173 0.0
C59 C 0.85351 0.09787 0.9542 0.0
O60 O 0.84604 0.11297 0.06633 0.0
O61 O 0.80182 0.10811 0.02059 0.0
C62 C 0.88435 0.18362 0.09554 0.0
O63 O 0.86748 0.09508 0.98956 0.0
O64 O 0.83029 0.12146 0.94913 0.0
C65 C 0.82874 0.20274 0.94553 0.0
Fe66 Fe 0.3759 0.37241 0.55469 0.0
Fe67 Fe 0.30465 0.35248 0.5952 0.0
O68 O 0.34488 0.33988 0.56756 0.0
Fe69 Fe 0.3544 0.29508 0.5526 0.0
O70 O 0.39709 0.29682 0.58144 0.0
O71 O 0.41632 0.34456 0.55577 0.0
O72 O 0.38415 0.38596 0.6089 0.0
C73 C 0.35953 0.3965 0.63425 0.0
C74 C 0.37589 0.33015 0.4825 0.0
O75 O 0.32619 0.38993 0.62613 0.0
C76 C 0.28127 0.29748 0.53629 0.0
O77 O 0.34171 0.40678 0.55127 0.0
O78 O 0.28939 0.37981 0.55526 0.0
O79 O 0.37735 0.30376 0.5037 0.0
O80 O 0.36916 0.36038 0.49987 0.0
C81 C 0.32384 0.29423 0.63335 0.0
O82 O 0.27643 0.31693 0.5697 0.0
O83 O 0.3128 0.29034 0.52273 0.0
C84 C 0.30778 0.40536 0.54476 0.0
O85 O 0.31679 0.32657 0.63684 0.0
O86 O 0.33288 0.27856 0.59861 0.0
C87 C 0.42258 0.31756 0.57444 0.0
H88 H 0.03658 0.09577 0.29362 0.0
H89 H 0.12885 0.11194 0.37467 0.0
H90 H 0.04832 0.19325 0.37024 0.0
C91 C 0.05053 0.11168 0.31821 0.0
C92 C 0.03774 0.14569 0.33074 0.0
C93 C 0.0833 0.09935 0.3339 0.0
C94 C 0.10289 0.12088 0.36354 0.0
C95 C 0.0903 0.15474 0.37682 0.0
C96 C 0.05766 0.16688 0.3605 0.0
H97 H 0.47513 0.59934 0.79715 0.0
H98 H 0.3811 0.60683 0.87605 0.0
H99 H 0.45263 0.69582 0.87139 0.0
C100 C 0.45926 0.61392 0.82117 0.0
C101 C 0.46816 0.64908 0.83329 0.0
C102 C 0.42785 0.59857 0.8363 0.0
C103 C 0.40593 0.61834 0.86523 0.0
C104 C 0.41473 0.65342 0.87839 0.0
C105 C 0.44597 0.66859 0.86223 0.0
H106 H 0.81891 0.87618 0.12489 0.0
H107 H 0.80588 0.78754 0.19624 0.0
H108 H 0.72511 0.86992 0.2025 0.0
C109 C 0.80271 0.86136 0.14523 0.0
C110 C 0.77011 0.87589 0.16122 0.0
C111 C 0.81605 0.82961 0.15775 0.0
C112 C 0.79554 0.81184 0.1859 0.0
C113 C 0.76252 0.82603 0.20211 0.0
C114 C 0.75014 0.85835 0.18983 0.0
H115 H 0.67694 0.36629 0.62129 0.0
H116 H 0.6896 0.28579 0.70417 0.0
H117 H 0.76401 0.37354 0.71069 0.0
C118 C 0.69245 0.35478 0.64521 0.0
C119 C 0.72257 0.37293 0.66322 0.0
C120 C 0.68011 0.32369 0.66028 0.0
C121 C 0.69905 0.30999 0.69271 0.0
C122 C 0.72967 0.32752 0.71083 0.0
C123 C 0.74127 0.35916 0.69602 0.0
H124 H 0.53091 0.40388 0.27978 0.0
H125 H 0.6268 0.39016 0.2041 0.0
H126 H 0.5522 0.30393 0.21279 0.0
C127 C 0.54728 0.3879 0.25745 0.0
C128 C 0.53731 0.35282 0.24696 0.0
C129 C 0.5797 0.40153 0.24255 0.0
C130 C 0.6015 0.37991 0.21533 0.0
C131 C 0.5917 0.34472 0.20399 0.0
C132 C 0.55969 0.33119 0.22044 0.0
H133 H 0.18613 0.12091 0.95605 0.0
H134 H 0.19918 0.20545 0.87825 0.0
H135 H 0.27742 0.12117 0.87324 0.0
C136 C 0.20197 0.13416 0.93388 0.0
C137 C 0.23392 0.11821 0.91763 0.0
C138 C 0.18883 0.16539 0.91965 0.0
C139 C 0.20893 0.1813 0.88958 0.0
C140 C 0.24094 0.16553 0.87288 0.0
C141 C 0.25306 0.13367 0.88651 0.0
H142 H 0.30885 0.62871 0.46912 0.0
H143 H 0.29678 0.70809 0.38451 0.0
H144 H 0.20997 0.63403 0.39844 0.0
C145 C 0.29219 0.64192 0.44758 0.0
C146 C 0.25742 0.62869 0.43685 0.0
C147 C 0.30677 0.67018 0.42841 0.0
C148 C 0.28551 0.68633 0.39961 0.0
C149 C 0.25031 0.67387 0.38909 0.0
C150 C 0.23664 0.64445 0.40716 0.0
H151 H 0.96813 0.88744 0.79845 0.0
H152 H 0.94379 0.79083 0.72562 0.0
H153 H 0.87114 0.87932 0.72353 0.0
C154 C 0.95093 0.87277 0.77574 0.0
C155 C 0.91872 0.88792 0.7622 0.0
C156 C 0.96001 0.83788 0.76268 0.0
C157 C 0.93684 0.81788 0.73536 0.0
C158 C 0.90498 0.83291 0.72043 0.0
C159 C 0.89614 0.86791 0.73406 0.0
H160 H 0.14857 0.96811 0.12772 0.0
H161 H 0.1521 0.89136 0.21774 0.0
H162 H 0.13563 0.01424 0.18298 0.0
H163 H 0.13786 0.93784 0.27324 0.0
H164 H 0.05189 0.03428 0.32305 0.0
H165 H 0.07479 0.9828 0.27984 0.0
H166 H 0.17269 0.03974 0.25519 0.0
H167 H 0.15029 0.09081 0.29897 0.0
C168 C 0.14667 0.96116 0.15939 0.0
C169 C 0.15129 0.92622 0.16854 0.0
C170 C 0.13947 0.98756 0.19094 0.0
C171 C 0.13591 0.97945 0.23217 0.0
C172 C 0.14063 0.94458 0.24158 0.0
C173 C 0.14884 0.91817 0.20999 0.0
C174 C 0.07872 0.03533 0.30929 0.0
C175 C 0.0994 0.06638 0.31435 0.0
C176 C 0.09182 0.00596 0.2848 0.0
C177 C 0.12543 0.00751 0.26437 0.0
C178 C 0.14677 0.03798 0.27087 0.0
C179 C 0.13403 0.06706 0.29598 0.0
H180 H 0.53962 0.68909 0.60645 0.0
H181 H 0.64579 0.69133 0.66398 0.0
H182 H 0.51088 0.69271 0.67453 0.0
H183 H 0.61687 0.69414 0.73292 0.0
H184 H 0.53738 0.62566 0.81612 0.0
H185 H 0.57762 0.64514 0.76261 0.0
H186 H 0.50366 0.73008 0.74395 0.0
H187 H 0.46332 0.71052 0.79721 0.0
C188 C 0.55673 0.69115 0.63392 0.0
C189 C 0.59475 0.68989 0.63032 0.0
C190 C 0.54035 0.69347 0.67287 0.0
C191 C 0.56168 0.69383 0.709 0.0
C192 C 0.59988 0.69405 0.7055 0.0
C193 C 0.61636 0.69254 0.66629 0.0
C194 C 0.53039 0.64918 0.80152 0.0
C195 C 0.49704 0.6663 0.81038 0.0
C196 C 0.55353 0.66048 0.77114 0.0
C197 C 0.54348 0.68887 0.74888 0.0
C198 C 0.51188 0.70799 0.76054 0.0
C199 C 0.48891 0.6969 0.79118 0.0
H200 H 0.83802 0.07568 0.12713 0.0
H201 H 0.75196 0.06571 0.03535 0.0
H202 H 0.81438 0.02455 0.15805 0.0
H203 H 0.72823 0.01477 0.06663 0.0
H204 H 0.75646 0.89585 0.08454 0.0
H205 H 0.75682 0.95576 0.06448 0.0
H206 H 0.76343 0.99564 0.19366 0.0
H207 H 0.76304 0.93525 0.21358 0.0
C208 C 0.81364 0.06307 0.11408 0.0
C209 C 0.79741 0.07428 0.07819 0.0
C210 C 0.79986 0.03395 0.13206 0.0
C211 C 0.76964 0.01548 0.11449 0.0
C212 C 0.75182 0.02827 0.0805 0.0
C213 C 0.76549 0.05744 0.06261 0.0
C214 C 0.75659 0.91752 0.10861 0.0
C215 C 0.75978 0.9112 0.15048 0.0
C216 C 0.75673 0.95182 0.09723 0.0
C217 C 0.76051 0.98038 0.12754 0.0
C218 C 0.76079 0.97407 0.1697 0.0
C219 C 0.76022 0.93965 0.18111 0.0
H220 H 0.44887 0.2694 0.62559 0.0
H221 H 0.48303 0.3469 0.54428 0.0
H222 H 0.5129 0.25946 0.64342 0.0
H223 H 0.54587 0.33746 0.56226 0.0
H224 H 0.65807 0.30825 0.58014 0.0
H225 H 0.59588 0.29619 0.55601 0.0
H226 H 0.56013 0.29469 0.68308 0.0
H227 H 0.62248 0.30586 0.70698 0.0
C228 C 0.46996 0.28398 0.61124 0.0
C229 C 0.46086 0.30912 0.58381 0.0
C230 C 0.50653 0.27836 0.62148 0.0
C231 C 0.53449 0.29748 0.60401 0.0
C232 C 0.5252 0.32173 0.57566 0.0
C233 C 0.48897 0.32748 0.56574 0.0
C234 C 0.63703 0.30439 0.60274 0.0
C235 C 0.64488 0.30845 0.64537 0.0
C236 C 0.60145 0.2976 0.58902 0.0
C237 C 0.57296 0.29524 0.61771 0.0
C238 C 0.58144 0.2962 0.66018 0.0
C239 C 0.61715 0.30268 0.6739 0.0
H240 H 0.68811 0.58413 0.3758 0.0
H241 H 0.58442 0.5634 0.4318 0.0
H242 H 0.6736 0.54077 0.31732 0.0
H243 H 0.57008 0.52064 0.37392 0.0
H244 H 0.53989 0.46203 0.25538 0.0
H245 H 0.55733 0.51566 0.29755 0.0
H246 H 0.66559 0.47414 0.31149 0.0
H247 H 0.64814 0.42039 0.26975 0.0
C248 C 0.66216 0.57061 0.37541 0.0
C249 C 0.63757 0.57682 0.40856 0.0
C250 C 0.6539 0.54584 0.34205 0.0
C251 C 0.62064 0.5275 0.341 0.0
C252 C 0.59569 0.5347 0.37352 0.0
C253 C 0.6041 0.55893 0.40694 0.0
C254 C 0.5676 0.46463 0.26683 0.0
C255 C 0.59245 0.43677 0.25977 0.0
C256 C 0.57757 0.49531 0.2909 0.0
C257 C 0.61265 0.49881 0.30826 0.0
C258 C 0.63844 0.47225 0.29831 0.0
C259 C 0.62841 0.44146 0.27433 0.0
H260 H 0.96307 0.23461 0.98504 0.0
H261 H 0.97853 0.12223 0.98236 0.0
H262 H 0.02763 0.24134 0.96678 0.0
H263 H 0.04249 0.12937 0.96517 0.0
H264 H 0.16015 0.1695 0.99802 0.0
H265 H 0.09604 0.17742 0.01691 0.0
H266 H 0.07054 0.19959 0.89184 0.0
H267 H 0.13446 0.19041 0.87212 0.0
C268 C 0.98009 0.21144 0.98049 0.0
C269 C 0.96565 0.1779 0.98522 0.0
C270 C 0.01686 0.21535 0.97008 0.0
C271 C 0.03966 0.18585 0.96498 0.0
C272 C 0.02525 0.15245 0.96924 0.0
C273 C 0.98861 0.14844 0.97893 0.0
C274 C 0.14106 0.17665 0.97465 0.0
C275 C 0.15232 0.17871 0.93338 0.0
C276 C 0.10451 0.18142 0.9856 0.0
C277 C 0.07872 0.18902 0.95571 0.0
C278 C 0.09022 0.19405 0.91537 0.0
C279 C 0.12679 0.18889 0.90422 0.0
H280 H 0.24429 0.41031 0.49989 0.0
H281 H 0.33036 0.47218 0.56149 0.0
H282 H 0.21774 0.4643 0.47608 0.0
H283 H 0.30411 0.52512 0.53852 0.0
H284 H 0.24821 0.61927 0.51817 0.0
H285 H 0.24811 0.56295 0.54823 0.0
H286 H 0.24218 0.50874 0.42532 0.0
H287 H 0.2415 0.56535 0.39535 0.0
C288 C 0.25716 0.43538 0.50874 0.0
C289 C 0.28953 0.43709 0.53214 0.0
C290 C 0.24204 0.46613 0.49518 0.0
C291 C 0.25862 0.49891 0.5059 0.0
C292 C 0.29027 0.5004 0.5304 0.0
C293 C 0.30559 0.46994 0.54314 0.0
C294 C 0.2453 0.59532 0.49778 0.0
C295 C 0.24527 0.59642 0.45457 0.0
C296 C 0.24536 0.56314 0.51489 0.0
C297 C 0.24591 0.53154 0.48902 0.0
C298 C 0.24167 0.5327 0.44597 0.0
C299 C 0.24132 0.56504 0.42881 0.0
H300 H 0.117 0.86689 0.93772 0.0
H301 H 0.10321 0.75554 0.94507 0.0
H302 H 0.0855 0.86278 0.87176 0.0
H303 H 0.07154 0.751 0.87774 0.0
H304 H 0.03066 0.85727 0.75546 0.0
H305 H 0.0811 0.84274 0.80017 0.0
H306 H 0.01104 0.77106 0.85893 0.0
H307 H 0.96132 0.78456 0.81269 0.0
C308 C 0.10802 0.84126 0.92446 0.0
C309 C 0.1121 0.81162 0.94658 0.0
C310 C 0.09021 0.83877 0.88633 0.0
C311 C 0.07575 0.80654 0.86936 0.0
C312 C 0.0821 0.77626 0.89015 0.0
C313 C 0.10042 0.77875 0.92845 0.0
C314 C 0.02666 0.83741 0.77688 0.0
C315 C 0.99226 0.82221 0.78108 0.0
C316 C 0.05537 0.82922 0.80266 0.0
C317 C 0.04988 0.80638 0.83386 0.0
C318 C 0.01635 0.78862 0.83518 0.0
C319 C 0.98778 0.79641 0.80884 0.0
H320 H 0.81453 0.07854 0.88296 0.0
H321 H 0.91387 0.05699 0.94785 0.0
H322 H 0.82952 0.03141 0.82893 0.0
H323 H 0.92869 0.01046 0.8943 0.0
H324 H 0.96142 0.94636 0.77844 0.0
H325 H 0.94515 0.0011 0.81896 0.0
H326 H 0.83437 0.96466 0.82797 0.0
H327 H 0.85065 0.90965 0.7881 0.0
C328 C 0.83966 0.06402 0.88546 0.0
C329 C 0.86286 0.07122 0.91981 0.0
C330 C 0.84816 0.03705 0.85467 0.0
C331 C 0.88033 0.01737 0.85736 0.0
C332 C 0.90395 0.02543 0.89106 0.0
C333 C 0.89525 0.05189 0.92197 0.0
C334 C 0.93351 0.95014 0.78874 0.0
C335 C 0.90748 0.92341 0.7805 0.0
C336 C 0.92419 0.98151 0.81183 0.0
C337 C 0.88858 0.98697 0.82697 0.0
C338 C 0.86195 0.96129 0.81643 0.0
C339 C 0.87132 0.92978 0.79352 0.0
H340 H 0.40123 0.27131 0.43627 0.0
H341 H 0.38162 0.38226 0.43056 0.0
H342 H 0.43244 0.26895 0.36946 0.0
H343 H 0.4137 0.38023 0.36519 0.0
H344 H 0.46699 0.37502 0.24555 0.0
H345 H 0.41891 0.36236 0.29412 0.0
H346 H 0.49021 0.28852 0.3478 0.0
H347 H 0.53729 0.30011 0.29777 0.0
C348 C 0.40311 0.29508 0.42055 0.0
C349 C 0.38943 0.3271 0.43915 0.0
C350 C 0.42119 0.29376 0.38234 0.0
C351 C 0.42603 0.32444 0.36197 0.0
C352 C 0.41023 0.35591 0.37945 0.0
C353 C 0.39204 0.35717 0.41738 0.0
C354 C 0.47169 0.35517 0.26684 0.0
C355 C 0.50572 0.33862 0.26822 0.0
C356 C 0.44438 0.34815 0.29495 0.0
C357 C 0.4509 0.32504 0.32565 0.0
C358 C 0.48399 0.3063 0.32455 0.0
C359 C 0.51108 0.31293 0.29592 0.0
H360 H 0.25402 0.93647 0.05895 0.0
H361 H 0.1775 0.91577 0.95795 0.0
H362 H 0.2768 0.98749 0.02672 0.0
H363 H 0.19984 0.96685 0.92627 0.0
H364 H 0.24677 0.05691 0.86983 0.0
H365 H 0.24945 0.99804 0.89396 0.0
H366 H 0.24616 0.04392 0.02107 0.0
H367 H 0.24402 0.10234 0.99687 0.0
C368 C 0.24253 0.94238 0.02952 0.0
C369 C 0.21344 0.92249 0.01144 0.0
C370 C 0.25555 0.97164 0.01112 0.0
C371 C 0.2399 0.98141 0.97417 0.0
C372 C 0.21274 0.95991 0.95453 0.0
C373 C 0.19964 0.9308 0.97296 0.0
C374 C 0.24797 0.05429 0.90288 0.0
C375 C 0.24482 0.08396 0.93157 0.0
C376 C 0.24919 0.02067 0.91669 0.0
C377 C 0.24755 0.01631 0.9594 0.0
C378 C 0.24775 0.04628 0.988 0.0
C379 C 0.24628 0.07976 0.9742 0.0
H380 H 0.52583 0.72864 0.51932 0.0
H381 H 0.53483 0.63889 0.42855 0.0
H382 H 0.46108 0.73374 0.50248 0.0
H383 H 0.47039 0.64429 0.41152 0.0
H384 H 0.34177 0.68373 0.50274 0.0
H385 H 0.40728 0.69191 0.51423 0.0
H386 H 0.42447 0.68623 0.38177 0.0
H387 H 0.35897 0.67816 0.3703 0.0
C388 C 0.51418 0.7105 0.49518 0.0
C389 C 0.53531 0.68327 0.47534 0.0
C390 C 0.47713 0.71331 0.48576 0.0
C391 C 0.46079 0.68939 0.45577 0.0
C392 C 0.48237 0.66328 0.43451 0.0
C393 C 0.51918 0.66008 0.44441 0.0
C394 C 0.35954 0.68486 0.47618 0.0
C395 C 0.3454 0.68025 0.43567 0.0
C396 C 0.39692 0.68975 0.48272 0.0
C397 C 0.42088 0.68958 0.44885 0.0
C398 C 0.40657 0.68632 0.40838 0.0
C399 C 0.36913 0.68196 0.40185 0.0
H400 H 0.42617 0.42551 0.65327 0.0
H401 H 0.31534 0.42289 0.69788 0.0
H402 H 0.44124 0.46999 0.7089 0.0
H403 H 0.33083 0.46673 0.75477 0.0
H404 H 0.36071 0.58105 0.80515 0.0
H405 H 0.34364 0.52798 0.7623 0.0
H406 H 0.45053 0.48447 0.78093 0.0
H407 H 0.46782 0.53829 0.82288 0.0
C408 C 0.40512 0.43399 0.67538 0.0
C409 C 0.3694 0.42093 0.67075 0.0
C410 C 0.41387 0.45936 0.70764 0.0
C411 C 0.38724 0.47212 0.7364 0.0
C412 C 0.35187 0.45794 0.7328 0.0
C413 C 0.34302 0.4327 0.70028 0.0
C414 C 0.38022 0.55976 0.80096 0.0
C415 C 0.41565 0.56383 0.81714 0.0
C416 C 0.37045 0.52925 0.77639 0.0
C417 C 0.39583 0.50201 0.76769 0.0
C418 C 0.43056 0.50523 0.78619 0.0
C419 C 0.44043 0.53591 0.81043 0.0
H420 H 0.04534 0.76646 0.10786 0.0
H421 H 0.02754 0.8765 0.09357 0.0
H422 H 0.98031 0.75977 0.12368 0.0
H423 H 0.96295 0.8694 0.10823 0.0
H424 H 0.84685 0.83022 0.08088 0.0
H425 H 0.91154 0.82483 0.06402 0.0
H426 H 0.93427 0.79627 0.18737 0.0
H427 H 0.86971 0.80312 0.20521 0.0
C428 C 0.02761 0.78913 0.10817 0.0
C429 C 0.04149 0.82201 0.09952 0.0
C430 C 0.99059 0.78526 0.11719 0.0
C431 C 0.96691 0.81401 0.11666 0.0
C432 C 0.9808 0.84683 0.1084 0.0
C433 C 0.01776 0.85089 0.10032 0.0
C434 C 0.8655 0.82235 0.10431 0.0
C435 C 0.8532 0.81778 0.14464 0.0
C436 C 0.90241 0.81912 0.09454 0.0
C437 C 0.9276 0.81051 0.12461 0.0
C438 C 0.91514 0.80284 0.16374 0.0
C439 C 0.87818 0.8066 0.17379 0.0
H440 H 0.65297 0.57312 0.61902 0.0
H441 H 0.74047 0.55999 0.52956 0.0
H442 H 0.67415 0.52148 0.65098 0.0
H443 H 0.76168 0.50851 0.56184 0.0
H444 H 0.7354 0.39067 0.58513 0.0
H445 H 0.73328 0.44954 0.56184 0.0
H446 H 0.72427 0.49378 0.68918 0.0
H447 H 0.72624 0.43455 0.71237 0.0
C448 C 0.67706 0.5596 0.60658 0.0
C449 C 0.69461 0.57035 0.57127 0.0
C450 C 0.6894 0.53017 0.62515 0.0
C451 C 0.71946 0.51083 0.60873 0.0
C452 C 0.73822 0.52271 0.57488 0.0
C453 C 0.72603 0.55223 0.55645 0.0
C454 C 0.73412 0.41309 0.60813 0.0
C455 C 0.73088 0.40821 0.65044 0.0
C456 C 0.733 0.4468 0.59488 0.0
C457 C 0.72824 0.47626 0.6237 0.0
C458 C 0.7276 0.4715 0.6663 0.0
C459 C 0.72911 0.43771 0.67959 0.0
H460 H 0.85192 0.17068 0.16786 0.0
H461 H 0.94875 0.21352 0.11666 0.0
H462 H 0.8823 0.17027 0.23543 0.0
H463 H 0.97952 0.21261 0.18328 0.0
H464 H 0.0316 0.2113 0.30381 0.0
H465 H 0.98666 0.23113 0.25577 0.0
H466 H 0.92995 0.13211 0.25643 0.0
H467 H 0.97382 0.11302 0.30614 0.0
C468 C 0.87925 0.18124 0.17169 0.0
C469 C 0.89805 0.19256 0.13766 0.0
C470 C 0.89678 0.18066 0.21008 0.0
C471 C 0.93346 0.19113 0.21474 0.0
C472 C 0.95115 0.20485 0.18115 0.0
C473 C 0.93363 0.20538 0.14292 0.0
C474 C 0.00881 0.19424 0.29496 0.0
C475 C 0.00661 0.16031 0.30837 0.0
C476 C 0.98323 0.2055 0.26702 0.0
C477 C 0.95505 0.18302 0.25163 0.0
C478 C 0.95117 0.15024 0.2677 0.0
C479 C 0.97662 0.13906 0.29583 0.0
H480 H 0.13498 0.7396 0.17005 0.0
H481 H 0.22766 0.80724 0.19932 0.0
H482 H 0.14521 0.71137 0.23418 0.0
H483 H 0.238 0.77899 0.26231 0.0
H484 H 0.23666 0.7435 0.38749 0.0
H485 H 0.21146 0.77301 0.33013 0.0
H486 H 0.19234 0.67233 0.2615 0.0
H487 H 0.21701 0.64281 0.31951 0.0
C488 C 0.15735 0.74855 0.19019 0.0
C489 C 0.18065 0.77551 0.17945 0.0
C490 C 0.16325 0.73233 0.22677 0.0
C491 C 0.19226 0.74309 0.25341 0.0
C492 C 0.215 0.77047 0.2429 0.0
C493 C 0.20928 0.78645 0.20646 0.0
C494 C 0.22646 0.72772 0.36041 0.0
C495 C 0.2292 0.69097 0.35757 0.0
C496 C 0.21214 0.74456 0.32756 0.0
C497 C 0.20057 0.725 0.291 0.0
C498 C 0.20091 0.6881 0.28933 0.0
C499 C 0.21506 0.6712 0.32245 0.0
H500 H 0.71681 0.77076 0.57299 0.0
H501 H 0.77732 0.67361 0.57154 0.0
H502 H 0.76474 0.80105 0.61389 0.0
H503 H 0.82578 0.70429 0.61195 0.0
H504 H 0.88165 0.76548 0.72574 0.0
H505 H 0.83689 0.73269 0.68176 0.0
H506 H 0.82721 0.82023 0.60682 0.0
H507 H 0.87172 0.85301 0.65093 0.0
C508 C 0.74044 0.75586 0.58116 0.0
C509 C 0.74323 0.71974 0.56885 0.0
C510 C 0.76806 0.77333 0.60441 0.0
C511 C 0.7992 0.75514 0.61593 0.0
C512 C 0.802 0.71898 0.60382 0.0
C513 C 0.7743 0.70145 0.5805 0.0
C514 C 0.87033 0.77747 0.6995 0.0
C515 C 0.87998 0.8119 0.69193 0.0
C516 C 0.8447 0.75871 0.6743 0.0
C517 C 0.82826 0.77398 0.64101 0.0
C518 C 0.83882 0.808 0.63273 0.0
C519 C 0.86434 0.82675 0.65793 0.0
H520 H 0.78159 0.27409 0.06602 0.0
H521 H 0.72022 0.17782 0.06936 0.0
H522 H 0.73273 0.30651 0.10281 0.0
H523 H 0.67091 0.21058 0.10565 0.0
H524 H 0.61362 0.27763 0.21428 0.0
H525 H 0.6586 0.24244 0.17348 0.0
H526 H 0.6704 0.3253 0.09209 0.0
H527 H 0.6256 0.36047 0.13299 0.0
C528 C 0.75759 0.25983 0.07436 0.0
C529 C 0.75484 0.22334 0.06463 0.0
C530 C 0.72944 0.2785 0.09523 0.0
C531 C 0.69782 0.26116 0.10693 0.0
C532 C 0.69504 0.22465 0.09732 0.0
C533 C 0.72323 0.20593 0.07635 0.0
C534 C 0.62537 0.28804 0.18725 0.0
C535 C 0.61628 0.32191 0.17699 0.0
C536 C 0.65115 0.2679 0.16389 0.0
C537 C 0.66833 0.28122 0.12979 0.0
C538 C 0.65822 0.31458 0.11869 0.0
C539 C 0.63252 0.33469 0.14204 0.0
H540 H 0.28983 0.31742 0.70525 0.0
H541 H 0.34244 0.22581 0.64386 0.0
H542 H 0.2751 0.28486 0.76345 0.0
H543 H 0.329 0.19319 0.70374 0.0
H544 H 0.25454 0.13729 0.79416 0.0
H545 H 0.27947 0.16732 0.7369 0.0
H546 H 0.29784 0.26017 0.82125 0.0
H547 H 0.27094 0.23055 0.8775 0.0
C548 C 0.29884 0.29038 0.70443 0.0
C549 C 0.31724 0.2742 0.66972 0.0
C550 C 0.29064 0.2717 0.7382 0.0
C551 C 0.30107 0.23636 0.73867 0.0
C552 C 0.32017 0.22025 0.70428 0.0
C553 C 0.32804 0.23895 0.67004 0.0
C554 C 0.26438 0.16399 0.80027 0.0
C555 C 0.26058 0.18188 0.83985 0.0
C556 C 0.27885 0.18117 0.76761 0.0
C557 C 0.29024 0.21642 0.77419 0.0
C558 C 0.2884 0.2334 0.81466 0.0
C559 C 0.27329 0.21646 0.847 0.0
H560 H 0.7272 0.68737 0.38861 0.0
H561 H 0.63811 0.76019 0.41359 0.0
H562 H 0.74291 0.71604 0.32719 0.0
H563 H 0.65376 0.78879 0.35124 0.0
H564 H 0.7323 0.85559 0.2742 0.0
H565 H 0.70527 0.8254 0.32992 0.0
H566 H 0.7207 0.72578 0.2577 0.0
H567 H 0.74774 0.75599 0.20193 0.0
C568 C 0.71078 0.70939 0.38085 0.0
C569 C 0.68161 0.72172 0.40626 0.0
C570 C 0.71959 0.72561 0.34534 0.0
C571 C 0.69951 0.75461 0.33432 0.0
C572 C 0.66985 0.76662 0.35918 0.0
C573 C 0.66084 0.75019 0.39475 0.0
C574 C 0.7292 0.82732 0.26985 0.0
C575 C 0.74247 0.8081 0.23388 0.0
C576 C 0.71367 0.81004 0.30175 0.0
C577 C 0.71117 0.77321 0.29831 0.0
C578 C 0.72286 0.75416 0.2615 0.0
C579 C 0.73837 0.77142 0.22963 0.0
H580 H 0.86044 0.2623 0.91935 0.0
H581 H 0.77923 0.18272 0.88595 0.0
H582 H 0.83986 0.29507 0.86169 0.0
H583 H 0.75912 0.21513 0.829 0.0
H584 H 0.69748 0.30323 0.77808 0.0
H585 H 0.72618 0.27367 0.83305 0.0
H586 H 0.83204 0.29047 0.78026 0.0
H587 H 0.80305 0.32008 0.7244 0.0
C588 C 0.83871 0.25154 0.89937 0.0
C589 C 0.82096 0.2203 0.90765 0.0
C590 C 0.827 0.27025 0.86646 0.0
C591 C 0.79742 0.25793 0.84161 0.0
C592 C 0.7814 0.22563 0.84836 0.0
C593 C 0.79301 0.20705 0.88094 0.0
C594 C 0.72688 0.30062 0.77809 0.0
C595 C 0.74799 0.31327 0.74651 0.0
C596 C 0.74329 0.28375 0.80957 0.0
C597 C 0.78123 0.27922 0.81035 0.0
C598 C 0.80271 0.29358 0.78019 0.0
C599 C 0.78616 0.31048 0.74838 0.0
H600 H 0.27593 0.27662 0.45406 0.0
H601 H 0.21623 0.27889 0.56931 0.0
H602 H 0.22578 0.24485 0.4179 0.0
H603 H 0.16623 0.24625 0.533 0.0
H604 H 0.12118 0.14278 0.45117 0.0
H605 H 0.16433 0.1808 0.49228 0.0
H606 H 0.15572 0.25803 0.40338 0.0
H607 H 0.11232 0.2204 0.3627 0.0
C608 C 0.25201 0.27042 0.47159 0.0
C609 C 0.24992 0.28016 0.51445 0.0
C610 C 0.22331 0.25243 0.45088 0.0
C611 C 0.19229 0.24321 0.47277 0.0
C612 C 0.18998 0.25309 0.51558 0.0
C613 C 0.21842 0.27184 0.5362 0.0
C614 C 0.12818 0.16812 0.44087 0.0
C615 C 0.11348 0.17877 0.40392 0.0
C616 C 0.15261 0.18986 0.4644 0.0
C617 C 0.16322 0.2222 0.45083 0.0
C618 C 0.14791 0.23316 0.41438 0.0
C619 C 0.12301 0.21176 0.3913 0.0
H620 H 0.28722 0.8165 0.01909 0.0
H621 H 0.22343 0.72131 0.01806 0.0
H622 H 0.33599 0.78371 0.98215 0.0
H623 H 0.27197 0.68875 0.9805 0.0
H624 H 0.37975 0.63453 0.94764 0.0
H625 H 0.33446 0.66826 0.98967 0.0
H626 H 0.34681 0.7543 0.91296 0.0
H627 H 0.39194 0.72063 0.87099 0.0
C628 C 0.28356 0.7886 0.01101 0.0
C629 C 0.25138 0.77155 0.02157 0.0
C630 C 0.31147 0.76985 0.98967 0.0
C631 C 0.30786 0.73363 0.97844 0.0
C632 C 0.27581 0.71654 0.98924 0.0
C633 C 0.24787 0.73527 0.01052 0.0
C634 C 0.37282 0.66068 0.93985 0.0
C635 C 0.38943 0.6749 0.90601 0.0
C636 C 0.34685 0.67996 0.96385 0.0
C637 C 0.33694 0.71389 0.95453 0.0
C638 C 0.3542 0.72842 0.9213 0.0
C639 C 0.38013 0.70914 0.89729 0.0
loop_
_geom_bond_atom_site_label_1
_geom_bond_atom_site_label_2
_geom_bond_distance
_geom_bond_site_symmetry_2
_ccdc_geom_bond_type
Fe0 O2 1.918 . S
Fe0 O5 1.997 . S
Fe0 O6 2.002 . S
Fe0 O11 1.976 . S
Fe0 O14 1.996 . S
Fe1 O2 1.918 . S
Fe1 O9 1.997 . S
Fe1 O12 1.996 . S
Fe1 O16 1.976 . S
Fe1 O19 2.002 . S
O2 Fe0 1.918 . S
O2 Fe1 1.918 . S
O2 Fe3 1.918 . S
Fe3 O2 1.918 . S
Fe3 O4 2.002 . S
Fe3 O13 1.976 . S
Fe3 O17 2.004 . S
Fe3 O20 1.997 . S
O4 Fe3 2.002 . S
O4 C21 1.295 . S
O5 Fe0 1.997 . S
O5 C21 1.235 . S
O6 Fe0 2.002 . S
O6 C7 1.295 . S
C7 O6 1.295 . S
C7 O9 1.235 . S
C8 O13 1.287 . S
C8 O14 1.255 . S
O9 Fe1 1.997 . S
O9 C7 1.235 . S
C10 O16 1.287 1_556 S
C10 O17 1.251 1_556 S
O11 Fe0 1.976 . S
O11 C18 1.287 . S
O12 Fe1 1.996 . S
O12 C18 1.255 . S
O13 Fe3 1.976 . S
O13 C8 1.287 . S
O14 Fe0 1.996 . S
O14 C8 1.255 . S
C15 O19 1.295 . S
C15 O20 1.235 . S
O16 Fe1 1.976 . S
O16 C10 1.287 1_554 S
O17 Fe3 2.004 . S
O17 C10 1.251 1_554 S
C18 O11 1.287 . S
C18 O12 1.255 . S
O19 Fe1 2.002 . S
O19 C15 1.295 . S
O20 Fe3 1.997 . S
O20 C15 1.235 . S
C21 O4 1.295 . S
C21 O5 1.235 . S
Fe22 O24 1.918 . S
Fe22 O27 1.997 . S
Fe22 O28 2.002 . S
Fe22 O33 1.976 . S
Fe22 O36 1.996 . S
Fe23 O24 1.918 . S
Fe23 O31 1.997 . S
Fe23 O34 1.996 . S
Fe23 O38 1.976 . S
Fe23 O41 2.002 . S
O24 Fe22 1.918 . S
O24 Fe23 1.918 . S
O24 Fe25 1.918 . S
Fe25 O24 1.918 . S
Fe25 O26 2.002 . S
Fe25 O35 1.976 . S
Fe25 O39 1.996 . S
Fe25 O42 1.997 . S
O26 Fe25 2.002 . S
O26 C43 1.295 . S
O27 Fe22 1.997 . S
O27 C43 1.235 . S
O28 Fe22 2.002 . S
O28 C29 1.295 . S
C29 O28 1.295 . S
C29 O31 1.235 . S
C30 O35 1.287 . S
C30 O36 1.255 . S
O31 Fe23 1.997 . S
O31 C29 1.235 . S
C32 O38 1.287 . S
C32 O39 1.255 . S
O33 Fe22 1.976 . S
O33 C40 1.287 . S
O34 Fe23 1.996 . S
O34 C40 1.255 . S
O35 Fe25 1.976 . S
O35 C30 1.287 . S
O36 Fe22 1.996 . S
O36 C30 1.255 . S
C37 O41 1.295 . S
C37 O42 1.235 . S
O38 Fe23 1.976 . S
O38 C32 1.287 . S
O39 Fe25 1.996 . S
O39 C32 1.255 . S
C40 O33 1.287 . S
C40 O34 1.255 . S
O41 Fe23 2.002 . S
O41 C37 1.295 . S
O42 Fe25 1.997 . S
O42 C37 1.235 . S
C43 O26 1.295 . S
C43 O27 1.235 . S
Fe44 O46 1.918 . S
Fe44 O49 1.997 1_554 S
Fe44 O50 2.002 . S
Fe44 O55 1.976 . S
Fe44 O58 1.996 . S
Fe45 O46 1.918 . S
Fe45 O53 1.997 . S
Fe45 O56 1.996 . S
Fe45 O60 1.976 . S
Fe45 O63 2.002 1_554 S
O46 Fe44 1.918 . S
O46 Fe45 1.918 . S
O46 Fe47 1.918 1_554 S
Fe47 O46 1.918 1_556 S
Fe47 O48 2.002 . S
Fe47 O57 1.976 1_556 S
Fe47 O61 1.996 1_556 S
Fe47 O64 1.997 . S
O48 Fe47 2.002 . S
O48 C65 1.295 . S
O49 Fe44 1.997 1_556 S
O49 C65 1.235 . S
O50 Fe44 2.002 . S
O50 C51 1.295 1_554 S
C51 O50 1.295 1_556 S
C51 O53 1.235 1_556 S
C52 O57 1.287 . S
C52 O58 1.255 . S
O53 Fe45 1.997 . S
O53 C51 1.235 1_554 S
C54 O60 1.287 . S
C54 O61 1.255 . S
O55 Fe44 1.976 . S
O55 C62 1.287 . S
O56 Fe45 1.996 . S
O56 C62 1.255 . S
O57 Fe47 1.976 1_554 S
O57 C52 1.287 . S
O58 Fe44 1.996 . S
O58 C52 1.255 . S
C59 O63 1.295 . S
C59 O64 1.235 . S
O60 Fe45 1.976 . S
O60 C54 1.287 . S
O61 Fe47 1.996 1_554 S
O61 C54 1.255 . S
C62 O55 1.287 . S
C62 O56 1.255 . S
O63 Fe45 2.002 1_556 S
O63 C59 1.295 . S
O64 Fe47 1.997 . S
O64 C59 1.235 . S
C65 O48 1.295 . S
C65 O49 1.235 . S
Fe66 O68 1.918 . S
Fe66 O71 1.997 . S
Fe66 O72 2.002 . S
Fe66 O77 1.976 . S
Fe66 O80 1.996 . S
Fe67 O68 1.918 . S
Fe67 O75 1.997 . S
Fe67 O78 1.996 . S
Fe67 O82 1.976 . S
Fe67 O85 2.002 . S
O68 Fe66 1.918 . S
O68 Fe67 1.918 . S
O68 Fe69 1.918 . S
Fe69 O68 1.918 . S
Fe69 O70 2.002 . S
Fe69 O79 1.976 . S
Fe69 O83 1.996 . S
Fe69 O86 1.997 . S
O70 Fe69 2.002 . S
O70 C87 1.295 . S
O71 Fe66 1.997 . S
O71 C87 1.235 . S
O72 Fe66 2.002 . S
O72 C73 1.295 . S
C73 O72 1.295 . S
C73 O75 1.235 . S
C74 O79 1.287 . S
C74 O80 1.255 . S
O75 Fe67 1.997 . S
O75 C73 1.235 . S
C76 O82 1.287 . S
C76 O83 1.255 . S
O77 Fe66 1.976 . S
O77 C84 1.287 . S
O78 Fe67 1.996 . S
O78 C84 1.255 . S
O79 Fe69 1.976 . S
O79 C74 1.287 . S
O80 Fe66 1.996 . S
O80 C74 1.255 . S
C81 O85 1.295 . S
C81 O86 1.235 . S
O82 Fe67 1.976 . S
O82 C76 1.287 . S
O83 Fe69 1.996 . S
O83 C76 1.255 . S
C84 O77 1.287 . S
C84 O78 1.255 . S
O85 Fe67 2.002 . S
O85 C81 1.295 . S
O86 Fe69 1.997 . S
O86 C81 1.235 . S
C87 O70 1.295 . S
C87 O71 1.235 . S
H88 C91 0.931 . S
H89 C94 0.928 . S
H90 C96 0.930 . S
C91 H88 0.931 . S
C91 C92 1.413 . S
C91 C93 1.360 . S
C92 C91 1.413 . S
C92 C96 1.429 . S
C93 C91 1.360 . S
C93 C94 1.372 . S
C94 H89 0.928 . S
C94 C93 1.372 . S
C94 C95 1.404 . S
C95 C94 1.404 . S
C95 C96 1.391 . S
C96 H90 0.930 . S
C96 C92 1.429 . S
C96 C95 1.391 . S
H97 C100 0.931 . S
H98 C103 0.928 . S
H99 C105 0.930 . S
C100 H97 0.931 . S
C100 C101 1.413 . S
C100 C102 1.360 . S
C101 C100 1.413 . S
C101 C105 1.429 . S
C102 C100 1.360 . S
C102 C103 1.372 . S
C103 H98 0.928 . S
C103 C102 1.372 . S
C103 C104 1.404 . S
C104 C103 1.404 . S
C104 C105 1.391 . S
C105 H99 0.930 . S
C105 C101 1.429 . S
C105 C104 1.391 . S
H106 C109 0.931 . S
H107 C112 0.928 . S
H108 C114 0.930 . S
C109 H106 0.931 . S
C109 C110 1.413 . S
C109 C111 1.360 . S
C110 C109 1.413 . S
C110 C114 1.429 . S
C111 C109 1.360 . S
C111 C112 1.372 . S
C112 H107 0.928 . S
C112 C111 1.372 . S
C112 C113 1.404 . S
C113 C112 1.404 . S
C113 C114 1.391 . S
C114 H108 0.930 . S
C114 C110 1.429 . S
C114 C113 1.391 . S
H115 C118 0.931 . S
H116 C121 0.928 . S
H117 C123 0.930 . S
C118 H115 0.931 . S
C118 C119 1.413 . S
C118 C120 1.360 . S
C119 C118 1.413 . S
C119 C123 1.429 . S
C120 C118 1.360 . S
C120 C121 1.372 . S
C121 H116 0.928 . S
C121 C120 1.372 . S
C121 C122 1.404 . S
C122 C121 1.404 . S
C122 C123 1.391 . S
C123 H117 0.930 . S
C123 C119 1.429 . S
C123 C122 1.391 . S
H124 C127 0.931 . S
H125 C130 0.928 . S
H126 C132 0.930 . S
C127 H124 0.931 . S
C127 C128 1.413 . S
C127 C129 1.360 . S
C128 C127 1.413 . S
C128 C132 1.429 . S
C129 C127 1.360 . S
C129 C130 1.372 . S
C130 H125 0.928 . S
C130 C129 1.372 . S
C130 C131 1.404 . S
C131 C130 1.404 . S
C131 C132 1.391 . S
C132 H126 0.930 . S
C132 C128 1.429 . S
C132 C131 1.391 . S
H133 C136 0.931 . S
H134 C139 0.928 . S
H135 C141 0.930 . S
C136 H133 0.931 . S
C136 C137 1.413 . S
C136 C138 1.360 . S
C137 C136 1.413 . S
C137 C141 1.429 . S
C138 C136 1.360 . S
C138 C139 1.372 . S
C139 H134 0.928 . S
C139 C138 1.372 . S
C139 C140 1.404 . S
C140 C139 1.404 . S
C140 C141 1.391 . S
C141 H135 0.930 . S
C141 C137 1.429 . S
C141 C140 1.391 . S
H142 C145 0.931 . S
H143 C148 0.928 . S
H144 C150 0.930 . S
C145 H142 0.931 . S
C145 C146 1.413 . S
C145 C147 1.360 . S
C146 C145 1.413 . S
C146 C150 1.429 . S
C147 C145 1.360 . S
C147 C148 1.372 . S
C148 H143 0.928 . S
C148 C147 1.372 . S
C148 C149 1.404 . S
C149 C148 1.404 . S
C149 C150 1.391 . S
C150 H144 0.930 . S
C150 C146 1.429 . S
C150 C149 1.391 . S
H151 C154 0.931 . S
H152 C157 0.928 . S
H153 C159 0.930 . S
C154 H151 0.931 . S
C154 C155 1.413 . S
C154 C156 1.360 . S
C155 C154 1.413 . S
C155 C159 1.429 . S
C156 C154 1.360 . S
C156 C157 1.372 . S
C157 H152 0.928 . S
C157 C156 1.372 . S
C157 C158 1.404 . S
C158 C157 1.404 . S
C158 C159 1.391 . S
C159 H153 0.930 . S
C159 C155 1.429 . S
C159 C158 1.391 . S
H160 C168 0.950 . S
H161 C173 0.950 . S
H162 C170 0.950 1_545 S
H163 C172 0.950 . S
H164 C174 0.950 . S
H165 C176 0.950 1_565 S
H166 C178 0.950 . S
H167 C179 0.950 . S
C168 H160 0.950 . S
C168 C169 1.386 . S
C168 C170 1.391 . S
C169 C168 1.386 . S
C169 C173 1.393 . S
C170 H162 0.950 1_565 S
C170 C168 1.391 . S
C170 C171 1.400 . S
C171 C170 1.400 . S
C171 C172 1.398 . S
C171 C177 1.491 1_565 S
C172 H163 0.950 . S
C172 C171 1.398 . S
C172 C173 1.391 . S
C173 H161 0.950 . S
C173 C169 1.393 . S
C173 C172 1.391 . S
C174 H164 0.950 . S
C174 C175 1.386 . S
C174 C176 1.391 . S
C175 C174 1.386 . S
C175 C179 1.393 . S
C176 H165 0.950 1_545 S
C176 C174 1.391 . S
C176 C177 1.400 . S
C177 C171 1.491 1_545 S
C177 C176 1.400 . S
C177 C178 1.398 . S
C178 H166 0.950 . S
C178 C177 1.398 . S
C178 C179 1.391 . S
C179 H167 0.950 . S
C179 C175 1.393 . S
C179 C178 1.391 . S
H180 C188 0.950 . S
H181 C193 0.950 . S
H182 C190 0.950 . S
H183 C192 0.950 . S
H184 C194 0.950 . S
H185 C196 0.950 . S
H186 C198 0.950 . S
H187 C199 0.950 . S
C188 H180 0.950 . S
C188 C189 1.386 . S
C188 C190 1.391 . S
C189 C188 1.386 . S
C189 C193 1.393 . S
C190 H182 0.950 . S
C190 C188 1.391 . S
C190 C191 1.400 . S
C191 C190 1.400 . S
C191 C192 1.398 . S
C191 C197 1.491 . S
C192 H183 0.950 . S
C192 C191 1.398 . S
C192 C193 1.391 . S
C193 H181 0.950 . S
C193 C189 1.393 . S
C193 C192 1.391 . S
C194 H184 0.950 . S
C194 C195 1.386 . S
C194 C196 1.391 . S
C195 C194 1.386 . S
C195 C199 1.393 . S
C196 H185 0.950 . S
C196 C194 1.391 . S
C196 C197 1.400 . S
C197 C191 1.491 . S
C197 C196 1.400 . S
C197 C198 1.398 . S
C198 H186 0.950 . S
C198 C197 1.398 . S
C198 C199 1.391 . S
C199 H187 0.950 . S
C199 C195 1.393 . S
C199 C198 1.391 . S
H200 C208 0.950 . S
H201 C213 0.950 . S
H202 C210 0.950 . S
H203 C212 0.950 1_565 S
H204 C214 0.950 . S
H205 C216 0.950 . S
H206 C218 0.950 . S
H207 C219 0.950 . S
C208 H200 0.950 . S
C208 C209 1.386 . S
C208 C210 1.391 . S
C209 C208 1.386 . S
C209 C213 1.393 . S
C210 H202 0.950 . S
C210 C208 1.391 . S
C210 C211 1.400 1_545 S
C211 C210 1.400 1_565 S
C211 C212 1.398 1_565 S
C211 C217 1.491 . S
C212 H203 0.950 1_545 S
C212 C211 1.398 1_545 S
C212 C213 1.391 . S
C213 H201 0.950 . S
C213 C209 1.393 . S
C213 C212 1.391 . S
C214 H204 0.950 . S
C214 C215 1.386 . S
C214 C216 1.391 . S
C215 C214 1.386 . S
C215 C219 1.393 . S
C216 H205 0.950 . S
C216 C214 1.391 . S
C216 C217 1.400 . S
C217 C211 1.491 . S
C217 C216 1.400 . S
C217 C218 1.398 . S
C218 H206 0.950 . S
C218 C217 1.398 . S
C218 C219 1.391 . S
C219 H207 0.950 . S
C219 C215 1.393 . S
C219 C218 1.391 . S
H220 C228 0.950 . S
H221 C233 0.950 . S
H222 C230 0.950 . S
H223 C232 0.950 . S
H224 C234 0.950 . S
H225 C236 0.950 . S
H226 C238 0.950 . S
H227 C239 0.950 . S
C228 H220 0.950 . S
C228 C229 1.386 . S
C228 C230 1.391 . S
C229 C228 1.386 . S
C229 C233 1.393 . S
C230 H222 0.950 . S
C230 C228 1.391 . S
C230 C231 1.400 . S
C231 C230 1.400 . S
C231 C232 1.398 . S
C231 C237 1.491 . S
C232 H223 0.950 . S
C232 C231 1.398 . S
C232 C233 1.391 . S
C233 H221 0.950 . S
C233 C229 1.393 . S
C233 C232 1.391 . S
C234 H224 0.950 . S
C234 C235 1.386 . S
C234 C236 1.391 . S
C235 C234 1.386 . S
C235 C239 1.393 . S
C236 H225 0.950 . S
C236 C234 1.391 . S
C236 C237 1.400 . S
C237 C231 1.491 . S
C237 C236 1.400 . S
C237 C238 1.398 . S
C238 H226 0.950 . S
C238 C237 1.398 . S
C238 C239 1.391 . S
C239 H227 0.950 . S
C239 C235 1.393 . S
C239 C238 1.391 . S
H240 C248 0.950 . S
H241 C253 0.950 . S
H242 C250 0.950 . S
H243 C252 0.950 . S
H244 C254 0.950 . S
H245 C256 0.950 . S
H246 C258 0.950 . S
H247 C259 0.950 . S
C248 H240 0.950 . S
C248 C249 1.386 . S
C248 C250 1.391 . S
C249 C248 1.386 . S
C249 C253 1.393 . S
C250 H242 0.950 . S
C250 C248 1.391 . S
C250 C251 1.400 . S
C251 C250 1.400 . S
C251 C252 1.398 . S
C251 C257 1.491 . S
C252 H243 0.950 . S
C252 C251 1.398 . S
C252 C253 1.391 . S
C253 H241 0.950 . S
C253 C249 1.393 . S
C253 C252 1.391 . S
C254 H244 0.950 . S
C254 C255 1.386 . S
C254 C256 1.391 . S
C255 C254 1.386 . S
C255 C259 1.393 . S
C256 H245 0.950 . S
C256 C254 1.391 . S
C256 C257 1.400 . S
C257 C251 1.491 . S
C257 C256 1.400 . S
C257 C258 1.398 . S
C258 H246 0.950 . S
C258 C257 1.398 . S
C258 C259 1.391 . S
C259 H247 0.950 . S
C259 C255 1.393 . S
C259 C258 1.391 . S
H260 C268 0.950 . S
H261 C273 0.950 1_554 S
H262 C270 0.950 . S
H263 C272 0.950 1_554 S
H264 C274 0.950 . S
H265 C276 0.950 . S
H266 C278 0.950 . S
H267 C279 0.950 . S
C268 H260 0.950 . S
C268 C269 1.386 . S
C268 C270 1.391 1_655 S
C269 C268 1.386 . S
C269 C273 1.393 . S
C270 H262 0.950 . S
C270 C268 1.391 1_455 S
C270 C271 1.400 . S
C271 C270 1.400 . S
C271 C272 1.398 . S
C271 C277 1.491 . S
C272 H263 0.950 1_556 S
C272 C271 1.398 . S
C272 C273 1.391 1_455 S
C273 H261 0.950 1_556 S
C273 C269 1.393 . S
C273 C272 1.391 1_655 S
C274 H264 0.950 . S
C274 C275 1.386 . S
C274 C276 1.391 . S
C275 C274 1.386 . S
C275 C279 1.393 . S
C276 H265 0.950 . S
C276 C274 1.391 . S
C276 C277 1.400 . S
C277 C271 1.491 . S
C277 C276 1.400 . S
C277 C278 1.398 . S
C278 H266 0.950 . S
C278 C277 1.398 . S
C278 C279 1.391 . S
C279 H267 0.950 . S
C279 C275 1.393 . S
C279 C278 1.391 . S
H280 C288 0.950 . S
H281 C293 0.950 . S
H282 C290 0.950 . S
H283 C292 0.950 . S
H284 C294 0.950 . S
H285 C296 0.950 . S
H286 C298 0.950 . S
H287 C299 0.950 . S
C288 H280 0.950 . S
C288 C289 1.386 . S
C288 C290 1.391 . S
C289 C288 1.386 . S
C289 C293 1.393 . S
C290 H282 0.950 . S
C290 C288 1.391 . S
C290 C291 1.400 . S
C291 C290 1.400 . S
C291 C292 1.398 . S
C291 C297 1.491 . S
C292 H283 0.950 . S
C292 C291 1.398 . S
C292 C293 1.391 . S
C293 H281 0.950 . S
C293 C289 1.393 . S
C293 C292 1.391 . S
C294 H284 0.950 . S
C294 C295 1.386 . S
C294 C296 1.391 . S
C295 C294 1.386 . S
C295 C299 1.393 . S
C296 H285 0.950 . S
C296 C294 1.391 . S
C296 C297 1.400 . S
C297 C291 1.491 . S
C297 C296 1.400 . S
C297 C298 1.398 . S
C298 H286 0.950 . S
C298 C297 1.398 . S
C298 C299 1.391 . S
C299 H287 0.950 . S
C299 C295 1.393 . S
C299 C298 1.391 . S
H300 C308 0.950 . S
H301 C313 0.950 . S
H302 C310 0.950 . S
H303 C312 0.950 . S
H304 C314 0.950 . S
H305 C316 0.950 . S
H306 C318 0.950 . S
H307 C319 0.950 . S
C308 H300 0.950 . S
C308 C309 1.386 . S
C308 C310 1.391 . S
C309 C308 1.386 . S
C309 C313 1.393 . S
C310 H302 0.950 . S
C310 C308 1.391 . S
C310 C311 1.400 . S
C311 C310 1.400 . S
C311 C312 1.398 . S
C311 C317 1.491 . S
C312 H303 0.950 . S
C312 C311 1.398 . S
C312 C313 1.391 . S
C313 H301 0.950 . S
C313 C309 1.393 . S
C313 C312 1.391 . S
C314 H304 0.950 . S
C314 C315 1.386 . S
C314 C316 1.391 1_655 S
C315 C314 1.386 . S
C315 C319 1.393 . S
C316 H305 0.950 . S
C316 C314 1.391 1_455 S
C316 C317 1.400 . S
C317 C311 1.491 . S
C317 C316 1.400 . S
C317 C318 1.398 . S
C318 H306 0.950 . S
C318 C317 1.398 . S
C318 C319 1.391 1_455 S
C319 H307 0.950 . S
C319 C315 1.393 . S
C319 C318 1.391 1_655 S
H320 C328 0.950 . S
H321 C333 0.950 . S
H322 C330 0.950 . S
H323 C332 0.950 . S
H324 C334 0.950 . S
H325 C336 0.950 . S
H326 C338 0.950 . S
H327 C339 0.950 . S
C328 H320 0.950 . S
C328 C329 1.386 . S
C328 C330 1.391 . S
C329 C328 1.386 . S
C329 C333 1.393 . S
C330 H322 0.950 . S
C330 C328 1.391 . S
C330 C331 1.400 . S
C331 C330 1.400 . S
C331 C332 1.398 . S
C331 C337 1.491 1_545 S
C332 H323 0.950 . S
C332 C331 1.398 . S
C332 C333 1.391 . S
C333 H321 0.950 . S
C333 C329 1.393 . S
C333 C332 1.391 . S
C334 H324 0.950 . S
C334 C335 1.386 . S
C334 C336 1.391 . S
C335 C334 1.386 . S
C335 C339 1.393 . S
C336 H325 0.950 . S
C336 C334 1.391 . S
C336 C337 1.400 . S
C337 C331 1.491 1_565 S
C337 C336 1.400 . S
C337 C338 1.398 . S
C338 H326 0.950 . S
C338 C337 1.398 . S
C338 C339 1.391 . S
C339 H327 0.950 . S
C339 C335 1.393 . S
C339 C338 1.391 . S
H340 C348 0.950 . S
H341 C353 0.950 . S
H342 C350 0.950 . S
H343 C352 0.950 . S
H344 C354 0.950 . S
H345 C356 0.950 . S
H346 C358 0.950 . S
H347 C359 0.950 . S
C348 H340 0.950 . S
C348 C349 1.386 . S
C348 C350 1.391 . S
C349 C348 1.386 . S
C349 C353 1.393 . S
C350 H342 0.950 . S
C350 C348 1.391 . S
C350 C351 1.400 . S
C351 C350 1.400 . S
C351 C352 1.398 . S
C351 C357 1.491 . S
C352 H343 0.950 . S
C352 C351 1.398 . S
C352 C353 1.391 . S
C353 H341 0.950 . S
C353 C349 1.393 . S
C353 C352 1.391 . S
C354 H344 0.950 . S
C354 C355 1.386 . S
C354 C356 1.391 . S
C355 C354 1.386 . S
C355 C359 1.393 . S
C356 H345 0.950 . S
C356 C354 1.391 . S
C356 C357 1.400 . S
C357 C351 1.491 . S
C357 C356 1.400 . S
C357 C358 1.398 . S
C358 H346 0.950 . S
C358 C357 1.398 . S
C358 C359 1.391 . S
C359 H347 0.950 . S
C359 C355 1.393 . S
C359 C358 1.391 . S
H360 C368 0.950 . S
H361 C373 0.950 . S
H362 C370 0.950 . S
H363 C372 0.950 1_545 S
H364 C374 0.950 . S
H365 C376 0.950 . S
H366 C378 0.950 . S
H367 C379 0.950 . S
C368 H360 0.950 . S
C368 C369 1.386 . S
C368 C370 1.391 1_554 S
C369 C368 1.386 . S
C369 C373 1.393 . S
C370 H362 0.950 . S
C370 C368 1.391 1_556 S
C370 C371 1.400 1_565 S
C371 C370 1.400 1_545 S
C371 C372 1.398 1_546 S
C371 C377 1.491 . S
C372 H363 0.950 1_565 S
C372 C371 1.398 1_564 S
C372 C373 1.391 . S
C373 H361 0.950 . S
C373 C369 1.393 . S
C373 C372 1.391 . S
C374 H364 0.950 . S
C374 C375 1.386 . S
C374 C376 1.391 . S
C375 C374 1.386 . S
C375 C379 1.393 . S
C376 H365 0.950 . S
C376 C374 1.391 . S
C376 C377 1.400 . S
C377 C371 1.491 . S
C377 C376 1.400 . S
C377 C378 1.398 . S
C378 H366 0.950 . S
C378 C377 1.398 . S
C378 C379 1.391 . S
C379 H367 0.950 . S
C379 C375 1.393 . S
C379 C378 1.391 . S
H380 C388 0.950 . S
H381 C393 0.950 . S
H382 C390 0.950 . S
H383 C392 0.950 . S
H384 C394 0.950 . S
H385 C396 0.950 . S
H386 C398 0.950 . S
H387 C399 0.950 . S
C388 H380 0.950 . S
C388 C389 1.386 . S
C388 C390 1.391 . S
C389 C388 1.386 . S
C389 C393 1.393 . S
C390 H382 0.950 . S
C390 C388 1.391 . S
C390 C391 1.400 . S
C391 C390 1.400 . S
C391 C392 1.398 . S
C391 C397 1.491 . S
C392 H383 0.950 . S
C392 C391 1.398 . S
C392 C393 1.391 . S
C393 H381 0.950 . S
C393 C389 1.393 . S
C393 C392 1.391 . S
C394 H384 0.950 . S
C394 C395 1.386 . S
C394 C396 1.391 . S
C395 C394 1.386 . S
C395 C399 1.393 . S
C396 H385 0.950 . S
C396 C394 1.391 . S
C396 C397 1.400 . S
C397 C391 1.491 . S
C397 C396 1.400 . S
C397 C398 1.398 . S
C398 H386 0.950 . S
C398 C397 1.398 . S
C398 C399 1.391 . S
C399 H387 0.950 . S
C399 C395 1.393 . S
C399 C398 1.391 . S
H400 C408 0.950 . S
H401 C413 0.950 . S
H402 C410 0.950 . S
H403 C412 0.950 . S
H404 C414 0.950 . S
H405 C416 0.950 . S
H406 C418 0.950 . S
H407 C419 0.950 . S
C408 H400 0.950 . S
C408 C409 1.386 . S
C408 C410 1.391 . S
C409 C408 1.386 . S
C409 C413 1.393 . S
C410 H402 0.950 . S
C410 C408 1.391 . S
C410 C411 1.400 . S
C411 C410 1.400 . S
C411 C412 1.398 . S
C411 C417 1.491 . S
C412 H403 0.950 . S
C412 C411 1.398 . S
C412 C413 1.391 . S
C413 H401 0.950 . S
C413 C409 1.393 . S
C413 C412 1.391 . S
C414 H404 0.950 . S
C414 C415 1.386 . S
C414 C416 1.391 . S
C415 C414 1.386 . S
C415 C419 1.393 . S
C416 H405 0.950 . S
C416 C414 1.391 . S
C416 C417 1.400 . S
C417 C411 1.491 . S
C417 C416 1.400 . S
C417 C418 1.398 . S
C418 H406 0.950 . S
C418 C417 1.398 . S
C418 C419 1.391 . S
C419 H407 0.950 . S
C419 C415 1.393 . S
C419 C418 1.391 . S
H420 C428 0.950 . S
H421 C433 0.950 . S
H422 C430 0.950 . S
H423 C432 0.950 . S
H424 C434 0.950 . S
H425 C436 0.950 . S
H426 C438 0.950 . S
H427 C439 0.950 . S
C428 H420 0.950 . S
C428 C429 1.386 . S
C428 C430 1.391 1_455 S
C429 C428 1.386 . S
C429 C433 1.393 . S
C430 H422 0.950 . S
C430 C428 1.391 1_655 S
C430 C431 1.400 . S
C431 C430 1.400 . S
C431 C432 1.398 . S
C431 C437 1.491 . S
C432 H423 0.950 . S
C432 C431 1.398 . S
C432 C433 1.391 1_655 S
C433 H421 0.950 . S
C433 C429 1.393 . S
C433 C432 1.391 1_455 S
C434 H424 0.950 . S
C434 C435 1.386 . S
C434 C436 1.391 . S
C435 C434 1.386 . S
C435 C439 1.393 . S
C436 H425 0.950 . S
C436 C434 1.391 . S
C436 C437 1.400 . S
C437 C431 1.491 . S
C437 C436 1.400 . S
C437 C438 1.398 . S
C438 H426 0.950 . S
C438 C437 1.398 . S
C438 C439 1.391 . S
C439 H427 0.950 . S
C439 C435 1.393 . S
C439 C438 1.391 . S
H440 C448 0.950 . S
H441 C453 0.950 . S
H442 C450 0.950 . S
H443 C452 0.950 . S
H444 C454 0.950 . S
H445 C456 0.950 . S
H446 C458 0.950 . S
H447 C459 0.950 . S
C448 H440 0.950 . S
C448 C449 1.386 . S
C448 C450 1.391 . S
C449 C448 1.386 . S
C449 C453 1.393 . S
C450 H442 0.950 . S
C450 C448 1.391 . S
C450 C451 1.400 . S
C451 C450 1.400 . S
C451 C452 1.398 . S
C451 C457 1.491 . S
C452 H443 0.950 . S
C452 C451 1.398 . S
C452 C453 1.391 . S
C453 H441 0.950 . S
C453 C449 1.393 . S
C453 C452 1.391 . S
C454 H444 0.950 . S
C454 C455 1.386 . S
C454 C456 1.391 . S
C455 C454 1.386 . S
C455 C459 1.393 . S
C456 H445 0.950 . S
C456 C454 1.391 . S
C456 C457 1.400 . S
C457 C451 1.491 . S
C457 C456 1.400 . S
C457 C458 1.398 . S
C458 H446 0.950 . S
C458 C457 1.398 . S
C458 C459 1.391 . S
C459 H447 0.950 . S
C459 C455 1.393 . S
C459 C458 1.391 . S
H460 C468 0.950 . S
H461 C473 0.950 . S
H462 C470 0.950 . S
H463 C472 0.950 . S
H464 C474 0.950 . S
H465 C476 0.950 . S
H466 C478 0.950 . S
H467 C479 0.950 . S
C468 H460 0.950 . S
C468 C469 1.386 . S
C468 C470 1.391 . S
C469 C468 1.386 . S
C469 C473 1.393 . S
C470 H462 0.950 . S
C470 C468 1.391 . S
C470 C471 1.400 . S
C471 C470 1.400 . S
C471 C472 1.398 . S
C471 C477 1.491 . S
C472 H463 0.950 . S
C472 C471 1.398 . S
C472 C473 1.391 . S
C473 H461 0.950 . S
C473 C469 1.393 . S
C473 C472 1.391 . S
C474 H464 0.950 . S
C474 C475 1.386 . S
C474 C476 1.391 . S
C475 C474 1.386 . S
C475 C479 1.393 1_455 S
C476 H465 0.950 . S
C476 C474 1.391 . S
C476 C477 1.400 1_455 S
C477 C471 1.491 . S
C477 C476 1.400 1_655 S
C477 C478 1.398 . S
C478 H466 0.950 . S
C478 C477 1.398 . S
C478 C479 1.391 . S
C479 H467 0.950 . S
C479 C475 1.393 1_655 S
C479 C478 1.391 . S
H480 C488 0.950 . S
H481 C493 0.950 . S
H482 C490 0.950 . S
H483 C492 0.950 . S
H484 C494 0.950 . S
H485 C496 0.950 . S
H486 C498 0.950 . S
H487 C499 0.950 . S
C488 H480 0.950 . S
C488 C489 1.386 . S
C488 C490 1.391 . S
C489 C488 1.386 . S
C489 C493 1.393 . S
C490 H482 0.950 . S
C490 C488 1.391 . S
C490 C491 1.400 . S
C491 C490 1.400 . S
C491 C492 1.398 . S
C491 C497 1.491 . S
C492 H483 0.950 . S
C492 C491 1.398 . S
C492 C493 1.391 . S
C493 H481 0.950 . S
C493 C489 1.393 . S
C493 C492 1.391 . S
C494 H484 0.950 . S
C494 C495 1.386 . S
C494 C496 1.391 . S
C495 C494 1.386 . S
C495 C499 1.393 . S
C496 H485 0.950 . S
C496 C494 1.391 . S
C496 C497 1.400 . S
C497 C491 1.491 . S
C497 C496 1.400 . S
C497 C498 1.398 . S
C498 H486 0.950 . S
C498 C497 1.398 . S
C498 C499 1.391 . S
C499 H487 0.950 . S
C499 C495 1.393 . S
C499 C498 1.391 . S
H500 C508 0.950 . S
H501 C513 0.950 . S
H502 C510 0.950 . S
H503 C512 0.950 . S
H504 C514 0.950 . S
H505 C516 0.950 . S
H506 C518 0.950 . S
H507 C519 0.950 . S
C508 H500 0.950 . S
C508 C509 1.386 . S
C508 C510 1.391 . S
C509 C508 1.386 . S
C509 C513 1.393 . S
C510 H502 0.950 . S
C510 C508 1.391 . S
C510 C511 1.400 . S
C511 C510 1.400 . S
C511 C512 1.398 . S
C511 C517 1.491 . S
C512 H503 0.950 . S
C512 C511 1.398 . S
C512 C513 1.391 . S
C513 H501 0.950 . S
C513 C509 1.393 . S
C513 C512 1.391 . S
C514 H504 0.950 . S
C514 C515 1.386 . S
C514 C516 1.391 . S
C515 C514 1.386 . S
C515 C519 1.393 . S
C516 H505 0.950 . S
C516 C514 1.391 . S
C516 C517 1.400 . S
C517 C511 1.491 . S
C517 C516 1.400 . S
C517 C518 1.398 . S
C518 H506 0.950 . S
C518 C517 1.398 . S
C518 C519 1.391 . S
C519 H507 0.950 . S
C519 C515 1.393 . S
C519 C518 1.391 . S
H520 C528 0.950 . S
H521 C533 0.950 . S
H522 C530 0.950 . S
H523 C532 0.950 . S
H524 C534 0.950 . S
H525 C536 0.950 . S
H526 C538 0.950 . S
H527 C539 0.950 . S
C528 H520 0.950 . S
C528 C529 1.386 . S
C528 C530 1.391 . S
C529 C528 1.386 . S
C529 C533 1.393 . S
C530 H522 0.950 . S
C530 C528 1.391 . S
C530 C531 1.400 . S
C531 C530 1.400 . S
C531 C532 1.398 . S
C531 C537 1.491 . S
C532 H523 0.950 . S
C532 C531 1.398 . S
C532 C533 1.391 . S
C533 H521 0.950 . S
C533 C529 1.393 . S
C533 C532 1.391 . S
C534 H524 0.950 . S
C534 C535 1.386 . S
C534 C536 1.391 . S
C535 C534 1.386 . S
C535 C539 1.393 . S
C536 H525 0.950 . S
C536 C534 1.391 . S
C536 C537 1.400 . S
C537 C531 1.491 . S
C537 C536 1.400 . S
C537 C538 1.398 . S
C538 H526 0.950 . S
C538 C537 1.398 . S
C538 C539 1.391 . S
C539 H527 0.950 . S
C539 C535 1.393 . S
C539 C538 1.391 . S
H540 C548 0.950 . S
H541 C553 0.950 . S
H542 C550 0.950 . S
H543 C552 0.950 . S
H544 C554 0.950 . S
H545 C556 0.950 . S
H546 C558 0.950 . S
H547 C559 0.950 . S
C548 H540 0.950 . S
C548 C549 1.386 . S
C548 C550 1.391 . S
C549 C548 1.386 . S
C549 C553 1.393 . S
C550 H542 0.950 . S
C550 C548 1.391 . S
C550 C551 1.400 . S
C551 C550 1.400 . S
C551 C552 1.398 . S
C551 C557 1.491 . S
C552 H543 0.950 . S
C552 C551 1.398 . S
C552 C553 1.391 . S
C553 H541 0.950 . S
C553 C549 1.393 . S
C553 C552 1.391 . S
C554 H544 0.950 . S
C554 C555 1.386 . S
C554 C556 1.391 . S
C555 C554 1.386 . S
C555 C559 1.393 . S
C556 H545 0.950 . S
C556 C554 1.391 . S
C556 C557 1.400 . S
C557 C551 1.491 . S
C557 C556 1.400 . S
C557 C558 1.398 . S
C558 H546 0.950 . S
C558 C557 1.398 . S
C558 C559 1.391 . S
C559 H547 0.950 . S
C559 C555 1.393 . S
C559 C558 1.391 . S
H560 C568 0.950 . S
H561 C573 0.950 . S
H562 C570 0.950 . S
H563 C572 0.950 . S
H564 C574 0.950 . S
H565 C576 0.950 . S
H566 C578 0.950 . S
H567 C579 0.950 . S
C568 H560 0.950 . S
C568 C569 1.386 . S
C568 C570 1.391 . S
C569 C568 1.386 . S
C569 C573 1.393 . S
C570 H562 0.950 . S
C570 C568 1.391 . S
C570 C571 1.400 . S
C571 C570 1.400 . S
C571 C572 1.398 . S
C571 C577 1.491 . S
C572 H563 0.950 . S
C572 C571 1.398 . S
C572 C573 1.391 . S
C573 H561 0.950 . S
C573 C569 1.393 . S
C573 C572 1.391 . S
C574 H564 0.950 . S
C574 C575 1.386 . S
C574 C576 1.391 . S
C575 C574 1.386 . S
C575 C579 1.393 . S
C576 H565 0.950 . S
C576 C574 1.391 . S
C576 C577 1.400 . S
C577 C571 1.491 . S
C577 C576 1.400 . S
C577 C578 1.398 . S
C578 H566 0.950 . S
C578 C577 1.398 . S
C578 C579 1.391 . S
C579 H567 0.950 . S
C579 C575 1.393 . S
C579 C578 1.391 . S
H580 C588 0.950 . S
H581 C593 0.950 . S
H582 C590 0.950 . S
H583 C592 0.950 . S
H584 C594 0.950 . S
H585 C596 0.950 . S
H586 C598 0.950 . S
H587 C599 0.950 . S
C588 H580 0.950 . S
C588 C589 1.386 . S
C588 C590 1.391 . S
C589 C588 1.386 . S
C589 C593 1.393 . S
C590 H582 0.950 . S
C590 C588 1.391 . S
C590 C591 1.400 . S
C591 C590 1.400 . S
C591 C592 1.398 . S
C591 C597 1.491 . S
C592 H583 0.950 . S
C592 C591 1.398 . S
C592 C593 1.391 . S
C593 H581 0.950 . S
C593 C589 1.393 . S
C593 C592 1.391 . S
C594 H584 0.950 . S
C594 C595 1.386 . S
C594 C596 1.391 . S
C595 C594 1.386 . S
C595 C599 1.393 . S
C596 H585 0.950 . S
C596 C594 1.391 . S
C596 C597 1.400 . S
C597 C591 1.491 . S
C597 C596 1.400 . S
C597 C598 1.398 . S
C598 H586 0.950 . S
C598 C597 1.398 . S
C598 C599 1.391 . S
C599 H587 0.950 . S
C599 C595 1.393 . S
C599 C598 1.391 . S
H600 C608 0.950 . S
H601 C613 0.950 . S
H602 C610 0.950 . S
H603 C612 0.950 . S
H604 C614 0.950 . S
H605 C616 0.950 . S
H606 C618 0.950 . S
H607 C619 0.950 . S
C608 H600 0.950 . S
C608 C609 1.386 . S
C608 C610 1.391 . S
C609 C608 1.386 . S
C609 C613 1.393 . S
C610 H602 0.950 . S
C610 C608 1.391 . S
C610 C611 1.400 . S
C611 C610 1.400 . S
C611 C612 1.398 . S
C611 C617 1.491 . S
C612 H603 0.950 . S
C612 C611 1.398 . S
C612 C613 1.391 . S
C613 H601 0.950 . S
C613 C609 1.393 . S
C613 C612 1.391 . S
C614 H604 0.950 . S
C614 C615 1.386 . S
C614 C616 1.391 . S
C615 C614 1.386 . S
C615 C619 1.393 . S
C616 H605 0.950 . S
C616 C614 1.391 . S
C616 C617 1.400 . S
C617 C611 1.491 . S
C617 C616 1.400 . S
C617 C618 1.398 . S
C618 H606 0.950 . S
C618 C617 1.398 . S
C618 C619 1.391 . S
C619 H607 0.950 . S
C619 C615 1.393 . S
C619 C618 1.391 . S
H620 C628 0.950 . S
H621 C633 0.950 . S
H622 C630 0.950 . S
H623 C632 0.950 . S
H624 C634 0.950 . S
H625 C636 0.950 . S
H626 C638 0.950 . S
H627 C639 0.950 . S
C628 H620 0.950 . S
C628 C629 1.386 1_556 S
C628 C630 1.391 . S
C629 C628 1.386 1_554 S
C629 C633 1.393 . S
C630 H622 0.950 . S
C630 C628 1.391 . S
C630 C631 1.400 . S
C631 C630 1.400 . S
C631 C632 1.398 1_556 S
C631 C637 1.491 . S
C632 H623 0.950 . S
C632 C631 1.398 1_554 S
C632 C633 1.391 . S
C633 H621 0.950 . S
C633 C629 1.393 . S
C633 C632 1.391 . S
C634 H624 0.950 . S
C634 C635 1.386 . S
C634 C636 1.391 . S
C635 C634 1.386 . S
C635 C639 1.393 . S
C636 H625 0.950 . S
C636 C634 1.391 . S
C636 C637 1.400 . S
C637 C631 1.491 . S
C637 C636 1.400 . S
C637 C638 1.398 . S
C638 H626 0.950 . S
C638 C637 1.398 . S
C638 C639 1.391 . S
C639 H627 0.950 . S
C639 C635 1.393 . S
C639 C638 1.391 . S
C169 C7 1.383 . S
C175 C93 1.368 . S
C189 C37 1.231 . S
C195 C101 1.218 . S
C209 C54 1.352 . S
C215 C110 1.298 . S
C235 C120 1.370 . S
C229 C87 1.370 . S
C255 C129 1.345 . S
C249 C30 1.345 . S
C269 C51 1.376 . S
C275 C138 1.381 . S
C289 C84 1.377 . S
C295 C146 1.325 . S
C309 C10 1.212 . S
C315 C156 1.177 . S
C329 C59 1.401 . S
C335 C155 1.380 . S
C355 C128 1.167 . S
C349 C74 1.210 . S
C375 C137 1.350 . S
C369 C18 1.380 . S
C389 C32 1.362 . S
C395 C147 1.371 . S
C415 C102 1.389 . S
C409 C73 1.381 . S
C429 C15 1.361 . S
C435 C111 1.392 . S
C455 C119 1.360 . S
C449 C43 1.382 . S
C475 C92 1.200 . S
C469 C62 1.194 . S
C495 C149 1.392 . S
C489 C21 1.410 . S
C515 C158 1.284 . S
C509 C29 1.286 . S
C529 C52 1.253 . S
C535 C131 1.230 . S
C555 C140 1.380 . S
C549 C81 1.397 . S
C575 C113 1.346 . S
C569 C40 1.376 . S
C589 C65 1.387 . S
C595 C122 1.359 . S
C615 C95 1.248 . S
C609 C76 1.258 . S
C635 C104 1.261 . S
C629 C8 1.288 . S
