# Generated by pormake.
# Topology zzz, (3,6)-cn, num edge types: 1
# Building blocks:
#     Node 0, Type 0, BuildingBlock: CUQRIR_clean_linker_1, # of connection points: 3
#     Node 1, Type 0, BuildingBlock: CUQRIR_clean_linker_1, # of connection points: 3
#     Node 2, Type 0, BuildingBlock: CUQRIR_clean_linker_1, # of connection points: 3
#     Node 3, Type 0, BuildingBlock: CUQRIR_clean_linker_1, # of connection points: 3
#     Node 4, Type 0, BuildingBlock: CUQRIR_clean_linker_1, # of connection points: 3
#     Node 5, Type 0, BuildingBlock: CUQRIR_clean_linker_1, # of connection points: 3
#     Node 6, Type 0, BuildingBlock: CUQRIR_clean_linker_1, # of connection points: 3
#     Node 7, Type 0, BuildingBlock: CUQRIR_clean_linker_1, # of connection points: 3
#     Node 8, Type 1, BuildingBlock: FUNLAD_clean_sbu_0, # of connection points: 6
#     Node 9, Type 1, BuildingBlock: FUNLAD_clean_sbu_0, # of connection points: 6
#     Node 10, Type 1, BuildingBlock: FUNLAD_clean_sbu_0, # of connection points: 6
#     Node 11, Type 1, BuildingBlock: FUNLAD_clean_sbu_0, # of connection points: 6
#     Edge 12, Type (0, 1), BuildingBlock: CIFDUS_clean_linker_0, # of connection points: 2
#     Edge 13, Type (0, 1), BuildingBlock: CIFDUS_clean_linker_0, # of connection points: 2
#     Edge 14, Type (0, 1), BuildingBlock: CIFDUS_clean_linker_0, # of connection points: 2
#     Edge 15, Type (0, 1), BuildingBlock: CIFDUS_clean_linker_0, # of connection points: 2
#     Edge 16, Type (0, 1), BuildingBlock: CIFDUS_clean_linker_0, # of connection points: 2
#     Edge 17, Type (0, 1), BuildingBlock: CIFDUS_clean_linker_0, # of connection points: 2
#     Edge 18, Type (0, 1), BuildingBlock: CIFDUS_clean_linker_0, # of connection points: 2
#     Edge 19, Type (0, 1), BuildingBlock: CIFDUS_clean_linker_0, # of connection points: 2
#     Edge 20, Type (0, 1), BuildingBlock: CIFDUS_clean_linker_0, # of connection points: 2
#     Edge 21, Type (0, 1), BuildingBlock: CIFDUS_clean_linker_0, # of connection points: 2
#     Edge 22, Type (0, 1), BuildingBlock: CIFDUS_clean_linker_0, # of connection points: 2
#     Edge 23, Type (0, 1), BuildingBlock: CIFDUS_clean_linker_0, # of connection points: 2
#     Edge 24, Type (0, 1), BuildingBlock: CIFDUS_clean_linker_0, # of connection points: 2
#     Edge 25, Type (0, 1), BuildingBlock: CIFDUS_clean_linker_0, # of connection points: 2
#     Edge 26, Type (0, 1), BuildingBlock: CIFDUS_clean_linker_0, # of connection points: 2
#     Edge 27, Type (0, 1), BuildingBlock: CIFDUS_clean_linker_0, # of connection points: 2
#     Edge 28, Type (0, 1), BuildingBlock: CIFDUS_clean_linker_0, # of connection points: 2
#     Edge 29, Type (0, 1), BuildingBlock: CIFDUS_clean_linker_0, # of connection points: 2
#     Edge 30, Type (0, 1), BuildingBlock: CIFDUS_clean_linker_0, # of connection points: 2
#     Edge 31, Type (0, 1), BuildingBlock: CIFDUS_clean_linker_0, # of connection points: 2
#     Edge 32, Type (0, 1), BuildingBlock: CIFDUS_clean_linker_0, # of connection points: 2
#     Edge 33, Type (0, 1), BuildingBlock: CIFDUS_clean_linker_0, # of connection points: 2
#     Edge 34, Type (0, 1), BuildingBlock: CIFDUS_clean_linker_0, # of connection points: 2
#     Edge 35, Type (0, 1), BuildingBlock: CIFDUS_clean_linker_0, # of connection points: 2
# Relax obj value: 0.128
# Max RMSD: 0.181
# Mean RMSD: 0.101
data_MOF--net-zzz--node1-FUNLAD_clean_sbu_0--node2-CUQRIR_clean_linker_1--edge1-CIFDUS_clean_linker_0
_symmetry_space_group_name_H-M    P1
_symmetry_Int_Tables_number       1
_symmetry_cell_setting            triclinic
loop_
_symmetry_equiv_pos_as_xyz
'x, y, z'
_cell_length_a     41.83957
_cell_length_b     48.019022
_cell_length_c     13.580266
_cell_angle_alpha  83.722454
_cell_angle_beta   82.937222
_cell_angle_gamma 89.495794
loop_
_atom_site_label
_atom_site_type_symbol
_atom_site_fract_x
_atom_site_fract_y
_atom_site_fract_z
_atom_type_partial_charge
C0 C 0.78966 0.48033 0.35205 0.0
N1 N 0.82171 0.47776 0.35701 0.0
N2 N 0.78323 0.47922 0.25677 0.0
C3 C 0.76493 0.48454 0.43885 0.0
C4 C 0.81247 0.47551 0.20505 0.0
N5 N 0.83568 0.47463 0.26595 0.0
C6 C 0.81853 0.47353 0.09431 0.0
H7 H 0.75505 0.46382 0.47245 0.0
H8 H 0.74479 0.49756 0.4138 0.0
H9 H 0.77584 0.49451 0.4968 0.0
H10 H 0.82354 0.49482 0.05496 0.0
H11 H 0.79732 0.4647 0.06678 0.0
H12 H 0.83966 0.46023 0.07524 0.0
C13 C 0.94641 0.76792 0.17672 0.0
N14 N 0.9567 0.79461 0.17431 0.0
N15 N 0.94771 0.76045 0.08298 0.0
C16 C 0.93892 0.74817 0.27021 0.0
C17 C 0.95943 0.7835 0.02385 0.0
N18 N 0.96526 0.80425 0.0792 0.0
C19 C 0.96633 0.785 0.91201 0.0
H20 H 0.96181 0.74171 0.29933 0.0
H21 H 0.92608 0.72924 0.25532 0.0
H22 H 0.92408 0.75879 0.32832 0.0
H23 H 0.94786 0.77305 0.88187 0.0
H24 H 0.99005 0.77525 0.89188 0.0
H25 H 0.96671 0.807 0.87702 0.0
C26 C 0.76741 0.00873 0.21854 0.0
N27 N 0.73515 0.01248 0.22036 0.0
N28 N 0.78245 0.01263 0.12307 0.0
C29 C 0.78402 0.00103 0.30943 0.0
C30 C 0.75801 0.01929 0.06772 0.0
N31 N 0.72952 0.01928 0.12681 0.0
C32 C 0.76196 0.02558 0.95575 0.0
H33 H 0.79104 0.02051 0.33847 0.0
H34 H 0.80609 0.98873 0.29075 0.0
H35 H 0.76765 0.98884 0.36889 0.0
H36 H 0.76068 0.00566 0.92202 0.0
H37 H 0.7856 0.03568 0.92825 0.0
H38 H 0.74268 0.03945 0.93004 0.0
C39 C 0.54999 0.70145 0.21693 0.0
N40 N 0.54467 0.67344 0.22547 0.0
N41 N 0.54501 0.71332 0.12477 0.0
C42 C 0.55955 0.71722 0.29832 0.0
C43 C 0.53628 0.69164 0.07796 0.0
N44 N 0.53584 0.66749 0.13932 0.0
C45 C 0.5288 0.69396 0.97182 0.0
H46 H 0.54843 0.70755 0.37243 0.0
H47 H 0.55246 0.73955 0.28728 0.0
H48 H 0.5861 0.71622 0.29694 0.0
H49 H 0.53851 0.67564 0.93482 0.0
H50 H 0.53878 0.71349 0.92825 0.0
H51 H 0.50228 0.69407 0.97198 0.0
C52 C 0.25386 0.50228 0.14484 0.0
N53 N 0.22228 0.50473 0.13173 0.0
N54 N 0.25858 0.50952 0.23599 0.0
C55 C 0.27997 0.4938 0.06824 0.0
C56 C 0.22882 0.5161 0.27766 0.0
N57 N 0.20698 0.5137 0.21383 0.0
C58 C 0.22068 0.52219 0.38448 0.0
H59 H 0.28209 0.47064 0.07746 0.0
H60 H 0.30346 0.50298 0.07823 0.0
H61 H 0.27401 0.50037 0.99175 0.0
H62 H 0.22073 0.5452 0.38712 0.0
H63 H 0.23853 0.51271 0.43204 0.0
H64 H 0.19643 0.51398 0.41593 0.0
C65 C 0.07622 0.23599 0.32748 0.0
N66 N 0.06759 0.2088 0.33355 0.0
N67 N 0.07886 0.24346 0.41948 0.0
C68 C 0.07912 0.25581 0.23335 0.0
C69 C 0.07115 0.21983 0.48158 0.0
N70 N 0.06408 0.19872 0.42933 0.0
C71 C 0.06892 0.21802 0.59349 0.0
H72 H 0.09395 0.27436 0.24053 0.0
H73 H 0.05469 0.26298 0.2187 0.0
H74 H 0.08987 0.24504 0.16902 0.0
H75 H 0.04543 0.22664 0.62315 0.0
H76 H 0.08822 0.23073 0.61608 0.0
H77 H 0.07092 0.19604 0.62693 0.0
C78 C 0.28468 0.0097 0.31775 0.0
N79 N 0.31635 0.00262 0.31228 0.0
N80 N 0.2693 0.00205 0.41088 0.0
C81 C 0.26846 0.02292 0.23176 0.0
C82 C 0.29279 0.99033 0.46186 0.0
N83 N 0.3212 0.99042 0.40204 0.0
C84 C 0.2886 0.98149 0.57262 0.0
H85 H 0.27043 0.04603 0.22867 0.0
H86 H 0.24254 0.01717 0.24148 0.0
H87 H 0.28028 0.01644 0.16017 0.0
H88 H 0.28371 0.95863 0.58578 0.0
H89 H 0.26813 0.99251 0.61119 0.0
H90 H 0.31073 0.98583 0.60585 0.0
C91 C 0.53032 0.28717 0.2888 0.0
N92 N 0.53567 0.31491 0.28981 0.0
N93 N 0.53625 0.27275 0.37629 0.0
C94 C 0.52077 0.27403 0.20133 0.0
C95 C 0.54573 0.2927 0.42996 0.0
N96 N 0.54571 0.31824 0.37694 0.0
C97 C 0.55555 0.28728 0.5334 0.0
H98 H 0.50865 0.25355 0.22589 0.0
H99 H 0.54277 0.27054 0.14972 0.0
H100 H 0.50463 0.28808 0.15992 0.0
H101 H 0.58222 0.28716 0.52779 0.0
H102 H 0.54665 0.26687 0.57235 0.0
H103 H 0.54657 0.30418 0.57901 0.0
C104 C 0.02848 0.95517 0.90047 0.0
N105 N 0.01018 0.95563 0.60767 0.0
C106 C 0.03094 0.93364 0.61108 0.0
C107 C 0.02739 0.91122 0.55676 0.0
C108 C 1.00217 0.91116 0.4979 0.0
C109 C 0.9808 0.93395 0.49578 0.0
C110 C 0.98532 0.95619 0.55158 0.0
Zn111 Zn 0.0182 0.98578 0.69746 0.0
C112 C 0.95853 0.00091 0.82633 0.0
N113 N 0.03878 0.04162 0.90323 0.0
C114 C 0.06488 0.04039 0.95412 0.0
C115 C 0.01914 0.06435 0.90136 0.0
C116 C 0.02593 0.08741 0.94905 0.0
C117 C 0.05307 0.08712 1.0004 0.0
C118 C 0.07246 0.06301 1.00387 0.0
Zn119 Zn 0.03001 0.01186 0.81385 0.0
O120 O 0.02205 0.95358 0.81246 0.0
C121 C 0.08951 0.99609 0.68532 0.0
O122 O 0.03431 0.97885 0.92806 0.0
H123 H 0.99868 0.06508 0.85965 0.0
H124 H 0.05025 0.9332 0.65723 0.0
H125 H 0.08024 0.02215 0.95409 0.0
O126 O 0.06816 0.98344 0.64829 0.0
O127 O 0.08106 0.01023 0.75825 0.0
H128 H 0.96896 0.97376 0.55057 0.0
O129 O 0.02474 0.04416 0.70095 0.0
O130 O 0.01484 0.019 0.58223 0.0
O131 O 0.97963 0.01306 0.86669 0.0
O132 O 0.96757 0.98826 0.74987 0.0
C133 C 0.01905 0.04273 0.61213 0.0
H134 H 0.04404 0.89388 0.56198 0.0
H135 H 0.96111 0.9347 0.45074 0.0
H136 H 0.01057 0.10563 0.94294 0.0
H137 H 0.09334 0.0617 0.04394 0.0
C138 C 0.48564 0.98743 0.6255 0.0
N139 N 0.52474 0.05953 0.70916 0.0
C140 C 0.52881 0.0673 0.60892 0.0
C141 C 0.5273 0.09542 0.57119 0.0
C142 C 0.52171 0.11605 0.6369 0.0
C143 C 0.51787 0.10751 0.74026 0.0
C144 C 0.51944 0.079 0.77494 0.0
Zn145 Zn 0.52566 0.01727 0.7549 0.0
C146 C 0.47149 0.99687 0.90742 0.0
N147 N 0.52703 0.92816 0.82742 0.0
C148 C 0.53331 0.90772 0.76568 0.0
C149 C 0.52108 0.9216 0.92817 0.0
C150 C 0.52034 0.89383 0.97032 0.0
C151 C 0.52639 0.87231 0.90891 0.0
C152 C 0.53337 0.87944 0.80529 0.0
Zn153 Zn 0.52632 0.97045 0.77905 0.0
O154 O 0.49558 0.01064 0.64713 0.0
C155 C 0.58065 0.98988 0.62789 0.0
O156 O 0.49468 0.96465 0.67088 0.0
H157 H 0.51685 0.93798 0.97673 0.0
H158 H 0.53286 0.05157 0.55759 0.0
H159 H 0.53822 0.91332 0.68592 0.0
O160 O 0.56809 0.01318 0.64835 0.0
O161 O 0.56752 0.96722 0.67126 0.0
H162 H 0.51628 0.07242 0.8543 0.0
O163 O 0.5576 0.97731 0.88579 0.0
O164 O 0.55619 0.02325 0.8631 0.0
O165 O 0.48543 0.97446 0.88469 0.0
O166 O 0.48292 0.02022 0.86405 0.0
C167 C 0.56667 0.0009 0.90698 0.0
H168 H 0.52987 0.10083 0.49108 0.0
H169 H 0.51391 0.12267 0.79389 0.0
H170 H 0.51534 0.88922 0.05063 0.0
H171 H 0.53818 0.86332 0.75559 0.0
C172 C 0.53166 0.45805 0.62962 0.0
N173 N 0.44289 0.49166 0.72203 0.0
C174 C 0.4299 0.46665 0.70907 0.0
C175 C 0.40511 0.46558 0.64905 0.0
C176 C 0.39433 0.49041 0.59787 0.0
C177 C 0.407 0.51598 0.61867 0.0
C178 C 0.43061 0.51611 0.68276 0.0
Zn179 Zn 0.48784 0.49284 0.76859 0.0
C180 C 0.50315 0.44715 0.91024 0.0
N181 N 0.58553 0.49568 0.82416 0.0
C182 C 0.61462 0.49939 0.76719 0.0
C183 C 0.58346 0.4925 0.92572 0.0
C184 C 0.61079 0.49299 0.97389 0.0
C185 C 0.64116 0.49656 0.91805 0.0
C186 C 0.64297 0.49993 0.81299 0.0
Zn187 Zn 0.54103 0.49484 0.77325 0.0
O188 O 0.50351 0.46563 0.66206 0.0
C189 C 0.52595 0.53991 0.62948 0.0
O190 O 0.55593 0.46731 0.66433 0.0
H191 H 0.56034 0.48974 0.97076 0.0
H192 H 0.44006 0.44735 0.74018 0.0
H193 H 0.61586 0.50196 0.68667 0.0
O194 O 0.4994 0.52739 0.66013 0.0
O195 O 0.55135 0.5309 0.66515 0.0
H196 H 0.44087 0.53588 0.69456 0.0
O197 O 0.52491 0.52231 0.87932 0.0
O198 O 0.47277 0.52112 0.87465 0.0
O199 O 0.53 0.45898 0.87803 0.0
O200 O 0.47769 0.45746 0.87865 0.0
C201 C 0.49688 0.53061 0.90914 0.0
H202 H 0.39558 0.44526 0.64058 0.0
H203 H 0.40048 0.53596 0.58218 0.0
H204 H 0.60797 0.49101 0.05471 0.0
H205 H 0.66598 0.50266 0.76689 0.0
C206 C 0.05078 0.52866 0.54811 0.0
N207 N 0.03545 0.4456 0.66758 0.0
C208 C 0.0271 0.44267 0.57553 0.0
C209 C 0.03082 0.41709 0.5364 0.0
C210 C 0.04326 0.39415 0.59233 0.0
C211 C 0.05233 0.39779 0.68641 0.0
C212 C 0.04812 0.42388 0.723 0.0
Zn213 Zn 0.02737 0.4838 0.71813 0.0
C214 C 0.0821 0.50663 0.80068 0.0
N215 N 1.00903 0.56603 0.79726 0.0
C216 C 0.99542 0.58775 0.74454 0.0
C217 C 0.01691 0.56829 0.89036 0.0
C218 C 0.01139 0.59306 0.93386 0.0
C219 C 0.99752 0.61588 0.88147 0.0
C220 C 0.98932 0.61305 0.78569 0.0
Zn221 Zn 0.01746 0.52803 0.74506 0.0
O222 O 0.04817 0.50277 0.57909 0.0
C223 C 0.96262 0.50623 0.66263 0.0
O224 O 0.03951 0.54665 0.60503 0.0
H225 H 0.02734 0.55073 0.93175 0.0
H226 H 0.01725 0.4602 0.53231 0.0
H227 H 0.98923 0.58544 0.67083 0.0
O228 O 0.98071 0.48478 0.66657 0.0
O229 O 0.97219 0.52876 0.69087 0.0
H230 H 0.05459 0.42671 0.79598 0.0
O231 O 0.99565 0.50863 0.88444 0.0
O232 O 1.00636 0.46519 0.85696 0.0
O233 O 0.06276 0.52712 0.7971 0.0
O234 O 0.07397 0.48362 0.77194 0.0
C235 C 0.99389 0.48259 0.91412 0.0
H236 H 0.02401 0.4153 0.46293 0.0
H237 H 0.06183 0.38052 0.73212 0.0
H238 H 0.01759 0.59421 0.00844 0.0
H239 H 0.97876 0.63029 0.74267 0.0
H240 H 0.22762 0.96177 0.49424 0.0
H241 H 0.2369 0.05086 0.41873 0.0
H242 H 0.18238 0.05759 0.50356 0.0
H243 H 0.13203 0.03767 0.60261 0.0
H244 H 0.12252 0.9481 0.66873 0.0
H245 H 0.17711 0.94184 0.58658 0.0
C246 C 0.21744 0.98258 0.49587 0.0
C247 C 0.23601 0.0058 0.45022 0.0
C248 C 0.18625 0.98615 0.54486 0.0
C249 C 0.22278 0.03272 0.45245 0.0
C250 C 0.19179 0.03653 0.50177 0.0
C251 C 0.14223 0.01688 0.60007 0.0
C252 C 0.12365 0.99336 0.64358 0.0
C253 C 0.17336 0.01339 0.54927 0.0
C254 C 0.13663 0.96647 0.63715 0.0
C255 C 0.16774 0.96289 0.58962 0.0
H256 H 0.49635 0.24534 0.5234 0.0
H257 H 0.57383 0.23394 0.29263 0.0
H258 H 0.57603 0.18381 0.35181 0.0
H259 H 0.55794 0.14417 0.47593 0.0
H260 H 0.48033 0.15578 0.70827 0.0
H261 H 0.47669 0.20507 0.64403 0.0
C262 C 0.51344 0.23165 0.4861 0.0
C263 C 0.53502 0.24298 0.40444 0.0
C264 C 0.5149 0.20315 0.52203 0.0
C265 C 0.55705 0.22538 0.35554 0.0
C266 C 0.5584 0.19689 0.38986 0.0
C267 C 0.53994 0.15734 0.51194 0.0
C268 C 0.51954 0.14616 0.59732 0.0
C269 C 0.53777 0.18565 0.47405 0.0
C270 C 0.49674 0.16382 0.64367 0.0
C271 C 0.49443 0.19199 0.60642 0.0
H272 H 0.30032 0.46804 0.27833 0.0
H273 H 0.28098 0.55551 0.29825 0.0
H274 H 0.32062 0.55725 0.41533 0.0
H275 H 0.35522 0.53269 0.52558 0.0
H276 H 0.38139 0.44655 0.48998 0.0
H277 H 0.34343 0.44523 0.36945 0.0
C278 C 0.30572 0.48759 0.30603 0.0
C279 C 0.28775 0.5116 0.28087 0.0
C280 C 0.32871 0.48842 0.37342 0.0
C281 C 0.29462 0.53684 0.31732 0.0
C282 C 0.31698 0.53773 0.38492 0.0
C283 C 0.35385 0.51368 0.49039 0.0
C284 C 0.37143 0.48966 0.52058 0.0
C285 C 0.33341 0.51341 0.41592 0.0
C286 C 0.36767 0.46527 0.47333 0.0
C287 C 0.34622 0.46453 0.40217 0.0
H288 H 0.0317 0.28041 0.40582 0.0
H289 H 0.12557 0.26781 0.50016 0.0
H290 H 0.1232 0.314 0.56333 0.0
H291 H 0.09332 0.3574 0.59452 0.0
H292 H 0.99857 0.36891 0.50205 0.0
H293 H 1.00225 0.32385 0.43448 0.0
C294 C 0.05168 0.28816 0.43905 0.0
C295 C 0.07883 0.27129 0.44821 0.0
C296 C 0.04983 0.31434 0.47575 0.0
C297 C 0.1046 0.28087 0.49243 0.0
C298 C 0.10313 0.30708 0.52862 0.0
C299 C 0.07346 0.34992 0.5601 0.0
C300 C 0.04577 0.36649 0.55306 0.0
C301 C 0.07568 0.32389 0.52156 0.0
C302 C 0.02032 0.35671 0.50725 0.0
C303 C 0.02233 0.33091 0.46892 0.0
H304 H 0.80963 0.98301 0.97733 0.0
H305 H 0.83165 0.03924 0.18587 0.0
H306 H 0.8884 0.0404 0.1136 0.0
H307 H 0.93128 0.02704 0.98557 0.0
H308 H 0.90818 0.97274 0.7708 0.0
H309 H 0.85231 0.96988 0.84872 0.0
C310 C 0.82689 0.99557 0.00659 0.0
C311 C 0.81642 0.01108 0.0868 0.0
C312 C 0.85921 0.99682 0.96235 0.0
C313 C 0.83916 0.02687 0.12516 0.0
C314 C 0.87152 0.02776 0.08302 0.0
C315 C 0.91404 0.01463 0.95545 0.0
C316 C 0.92411 0.00024 0.87173 0.0
C317 C 0.88177 0.01311 1.00064 0.0
C318 C 0.90127 0.98421 0.83444 0.0
C319 C 0.86926 0.98245 0.87934 0.0
H320 H 0.5006 0.75282 0.15151 0.0
H321 H 0.59494 0.73756 1.00421 0.0
H322 H 0.59748 0.78559 0.91943 0.0
H323 H 0.57195 0.83181 0.88574 0.0
H324 H 0.4776 0.84694 0.03633 0.0
H325 H 0.47557 0.79924 0.12081 0.0
C326 C 0.52176 0.76038 0.10184 0.0
C327 C 0.54773 0.74222 0.08437 0.0
C328 C 0.52277 0.78781 0.05325 0.0
C329 C 0.57499 0.75163 0.01903 0.0
C330 C 0.57626 0.7789 0.97031 0.0
C331 C 0.5509 0.82449 0.9364 0.0
C332 C 0.5249 0.84275 0.95449 0.0
C333 C 0.55014 0.79713 0.98614 0.0
C334 C 0.49791 0.83322 0.02142 0.0
C335 C 0.49675 0.80599 0.06986 0.0
H336 H 0.76932 0.51611 0.10566 0.0
H337 H 0.72997 0.44771 0.31537 0.0
H338 H 0.68199 0.44694 0.22816 0.0
H339 H 0.65365 0.46342 0.0849 0.0
H340 H 0.69393 0.5311 0.8714 0.0
H341 H 0.74015 0.53356 0.96436 0.0
C342 C 0.75003 0.50122 0.13226 0.0
C343 C 0.75299 0.4819 0.21626 0.0
C344 C 0.72332 0.50028 0.07945 0.0
C345 C 0.72789 0.46288 0.2514 0.0
C346 C 0.70078 0.46224 0.20075 0.0
C347 C 0.67236 0.47893 0.05904 0.0
C348 C 0.67025 0.49708 0.97107 0.0
C349 C 0.6986 0.48045 0.11349 0.0
C350 C 0.69511 0.51662 0.93784 0.0
C351 C 0.72136 0.51825 0.99162 0.0
H352 H 0.99691 0.72588 0.09695 0.0
H353 H 0.9032 0.73425 0.99902 0.0
H354 H 0.90997 0.6894 0.92686 0.0
H355 H 0.94413 0.64896 0.886 0.0
H356 H 0.03904 0.64226 0.97992 0.0
H357 H 0.03048 0.68525 0.0596 0.0
C358 C 0.97788 0.71738 0.06145 0.0
C359 C 0.94947 0.73264 0.05403 0.0
C360 C 0.98241 0.69219 0.01863 0.0
C361 C 0.92498 0.72226 0.00631 0.0
C362 C 0.92903 0.69689 0.96459 0.0
C363 C 0.96296 0.65705 0.9234 0.0
C364 C 0.99216 0.64245 0.92713 0.0
C365 C 0.95791 0.68189 0.96895 0.0
C366 C 0.01623 0.65296 0.97692 0.0
C367 C 0.0114 0.67756 0.02232 0.0
H368 H 0.08354 0.14859 0.37424 0.0
H369 H 0.01257 0.18856 0.56856 0.0
H370 H 0.98853 0.14296 0.63378 0.0
H371 H 0.99051 0.09161 0.64279 0.0
H372 H 0.05783 0.05198 0.43628 0.0
H373 H 0.07893 0.09796 0.3612 0.0
C374 C 0.06234 0.14734 0.42895 0.0
C375 C 0.05022 0.17175 0.46818 0.0
C376 C 0.04751 0.12132 0.46125 0.0
C377 C 0.02301 0.16988 0.5402 0.0
C378 C 1.00894 0.14393 0.57599 0.0
C379 C 1.00893 0.0932 0.57871 0.0
C380 C 0.02258 0.06871 0.54436 0.0
C381 C 0.02124 0.11952 0.53778 0.0
C382 C 0.04665 0.0707 0.46235 0.0
C383 C 0.05914 0.09691 0.42104 0.0
H384 H 0.3736 0.023 0.37624 0.0
H385 H 0.33771 0.9413 0.49944 0.0
H386 H 0.38816 0.93097 0.57114 0.0
H387 H 0.44019 0.94773 0.61293 0.0
H388 H 0.4756 0.02946 0.48338 0.0
H389 H 0.42834 0.03676 0.396 0.0
C390 C 0.37726 0.00267 0.41637 0.0
C391 C 0.35211 0.98301 0.43365 0.0
C392 C 0.40629 0.99689 0.45581 0.0
C393 C 0.35676 0.95685 0.48695 0.0
C394 C 0.38558 0.95095 0.52738 0.0
C395 C 0.43792 0.96677 0.56344 0.0
C396 C 0.4611 0.98817 0.55586 0.0
C397 C 0.41025 0.97113 0.5144 0.0
C398 C 0.45786 0.01279 0.49155 0.0
C399 C 0.43077 0.01709 0.44181 0.0
H400 H 0.50565 0.3615 0.37804 0.0
H401 H 0.59854 0.33426 0.45422 0.0
H402 H 0.60474 0.3774 0.53206 0.0
H403 H 0.58064 0.42087 0.5921 0.0
H404 H 0.48827 0.44786 0.50644 0.0
H405 H 0.48563 0.40754 0.41427 0.0
C406 C 0.52762 0.36545 0.40906 0.0
C407 C 0.55137 0.34479 0.41198 0.0
C408 C 0.53113 0.39031 0.45153 0.0
C409 C 0.57961 0.34975 0.45369 0.0
C410 C 0.58322 0.37444 0.49737 0.0
C411 C 0.56039 0.41822 0.55119 0.0
C412 C 0.53447 0.43703 0.55756 0.0
C413 C 0.55872 0.39462 0.49891 0.0
C414 C 0.50833 0.43341 0.50407 0.0
C415 C 0.50669 0.41032 0.45149 0.0
H416 H 0.17631 0.55927 0.2727 0.0
H417 H 0.16153 0.47506 0.20663 0.0
H418 H 0.10545 0.47636 0.28075 0.0
H419 H 0.06604 0.49685 0.39853 0.0
H420 H 0.08367 0.57805 0.48953 0.0
H421 H 0.13258 0.58316 0.36997 0.0
C422 C 0.16036 0.54159 0.27283 0.0
C423 C 0.17276 0.51702 0.23563 0.0
C424 C 0.12882 0.54193 0.32135 0.0
C425 C 0.15224 0.4942 0.2343 0.0
C426 C 0.12034 0.49486 0.27768 0.0
C427 C 0.0801 0.51604 0.39008 0.0
C428 C 0.07191 0.53669 0.45448 0.0
C429 C 0.10907 0.51796 0.32649 0.0
C430 C 0.08973 0.56174 0.44137 0.0
C431 C 0.11791 0.56449 0.37395 0.0
H432 H 0.94933 0.856 0.12678 0.0
H433 H 0.02189 0.80972 0.96027 0.0
H434 H 0.05181 0.85295 0.90043 0.0
H435 H 0.05443 0.90439 0.88493 0.0
H436 H 0.98566 0.95003 0.06731 0.0
H437 H 0.95845 0.90618 0.13908 0.0
C438 C 0.97197 0.85539 0.07883 0.0
C439 C 0.98285 0.82991 0.04508 0.0
C440 C 0.99018 0.87998 0.05062 0.0
C441 C 0.0123 0.8293 0.98336 0.0
C442 C 0.02974 0.85388 0.95091 0.0
C443 C 0.03437 0.9045 0.94375 0.0
C444 C 0.02205 0.93013 0.97152 0.0
C445 C 0.01863 0.87938 0.98294 0.0
C446 C 0.99583 0.93036 0.04654 0.0
C447 C 0.97987 0.90539 0.08572 0.0
H448 H 0.68589 0.97877 0.14221 0.0
H449 H 0.7032 0.06592 0.04193 0.0
H450 H 0.65132 0.06917 0.97376 0.0
H451 H 0.60379 0.04559 0.9295 0.0
H452 H 0.58726 0.95788 0.03061 0.0
H453 H 0.63557 0.95653 0.11458 0.0
C454 C 0.67783 -0.00152 0.10677 0.0
C455 C 0.69808 0.02195 0.09491 0.0
C456 C 0.64823 2e-05 0.06837 0.0
C457 C 0.68787 0.04756 0.04959 0.0
C458 C 0.65833 0.04937 0.01119 0.0
C459 C 0.61041 0.02634 0.97159 0.0
C460 C 0.59218 0.0018 0.97273 0.0
C461 C 0.63864 0.02552 0.01812 0.0
C462 C 0.60106 0.97701 0.02767 0.0
C463 C 0.62875 0.97615 0.07546 0.0
H464 H 0.48305 0.64779 0.07465 0.0
H465 H 0.57785 0.62529 0.14726 0.0
H466 H 0.57129 0.57828 0.09889 0.0
H467 H 0.54101 0.54567 0.02117 0.0
H468 H 0.44753 0.56839 0.93537 0.0
H469 H 0.45052 0.61304 0.0062 0.0
C470 C 0.5021 0.63245 0.07943 0.0
C471 C 0.53101 0.63975 0.11316 0.0
C472 C 0.49825 0.60564 0.04998 0.0
C473 C 0.5555 0.61985 0.12128 0.0
C474 C 0.55172 0.59311 0.09373 0.0
C475 C 0.521 0.56018 0.01926 0.0
C476 C 0.49425 0.55392 0.9721 0.0
C477 C 0.5235 0.58601 0.05614 0.0
C478 C 0.46835 0.57272 0.97151 0.0
C479 C 0.47025 0.59837 0.01086 0.0
H480 H 0.87505 0.43487 0.19867 0.0
H481 H 0.8711 0.52074 0.26138 0.0
H482 H 0.92575 0.52899 0.17649 0.0
H483 H 0.96893 0.51428 0.05654 0.0
H484 H 0.9706 0.42964 0.97688 0.0
H485 H 0.92319 0.41793 0.09801 0.0
C486 C 0.88675 0.45508 0.1952 0.0
C487 C 0.86954 0.47733 0.2343 0.0
C488 C 0.9175 0.45985 0.1424 0.0
C489 C 0.88436 0.50349 0.23124 0.0
C490 C 0.91537 0.50818 0.18226 0.0
C491 C 0.95941 0.49307 0.06737 0.0
C492 C 0.9726 0.47308 0.00604 0.0
C493 C 0.93141 0.48691 0.13329 0.0
C494 C 0.96055 0.44551 0.02241 0.0
C495 C 0.93328 0.43887 0.09099 0.0
H496 H 0.10881 0.18607 0.20043 0.0
H497 H 1.00821 0.1964 0.29791 0.0
H498 H 0.99431 0.15973 0.19795 0.0
H499 H 0.01159 0.121 0.10142 0.0
H500 H 0.11274 0.1094 0.00708 0.0
H501 H 0.12594 0.14975 0.08974 0.0
C502 C 0.0839 0.18084 0.19607 0.0
C503 C 0.05942 0.19375 0.25461 0.0
C504 C 0.0764 0.15894 0.14228 0.0
C505 C 0.02715 0.18672 0.25167 0.0
C506 C 0.01936 0.16556 0.19602 0.0
C507 C 0.0365 0.12757 0.09716 0.0
C508 C 0.06113 0.11203 0.04866 0.0
C509 C 0.04389 0.15088 0.14395 0.0
C510 C 0.09333 0.1206 0.04565 0.0
C511 C 0.10089 0.14387 0.09191 0.0
H512 H 0.35485 0.96289 0.24123 0.0
H513 H 0.33364 0.05071 0.19345 0.0
H514 H 0.3798 0.05745 0.06205 0.0
H515 H 0.42829 0.03817 0.96557 0.0
H516 H 0.44874 0.94988 0.02223 0.0
H517 H 0.40164 0.94374 0.14541 0.0
C518 C 0.36027 0.98344 0.20128 0.0
C519 C 0.34084 0.00621 0.22644 0.0
C520 C 0.38719 0.98717 0.12808 0.0
C521 C 0.34797 0.03278 0.17418 0.0
C522 C 0.3746 0.03665 0.09993 0.0
C523 C 0.42242 0.01764 0.00496 0.0
C524 C 0.44238 0.9946 0.98384 0.0
C525 C 0.39476 0.01402 0.07697 0.0
C526 C 0.43411 0.96811 0.0359 0.0
C527 C 0.407 0.96445 0.10678 0.0
H528 H 0.48298 0.33624 0.21357 0.0
H529 H 0.58602 0.34384 0.19154 0.0
H530 H 0.58494 0.38562 0.0711 0.0
H531 H 0.5547 0.42074 0.97856 0.0
H532 H 0.45115 0.41477 1.00012 0.0
H533 H 0.45219 0.37162 0.11482 0.0
C534 C 0.50509 0.34684 0.18018 0.0
C535 C 0.53467 0.33696 0.2093 0.0
C536 C 0.50407 0.37123 0.11259 0.0
C537 C 0.5632 0.35106 0.16849 0.0
C538 C 0.56249 0.37497 0.10053 0.0
C539 C 0.53222 0.4101 0.00799 0.0
C540 C 0.50283 0.42115 0.98083 0.0
C541 C 0.53306 0.38543 0.07313 0.0
C542 C 0.47409 0.40685 0.01994 0.0
C543 C 0.4747 0.38213 0.08531 0.0
H544 H 0.19538 0.54444 0.01933 0.0
H545 H 0.21275 0.45594 0.0573 0.0
H546 H 0.17198 0.44806 0.9469 0.0
H547 H 0.12552 0.46643 0.86072 0.0
H548 H 0.10853 0.55569 0.83074 0.0
H549 H 0.15478 0.56326 0.91593 0.0
C550 C 0.19095 0.52361 0.99995 0.0
C551 C 0.20686 0.50083 0.04516 0.0
C552 C 0.16691 0.51936 0.93983 0.0
C553 C 0.20095 0.47376 0.0216 0.0
C554 C 0.1773 0.46929 0.95994 0.0
C555 C 0.13232 0.48752 0.87141 0.0
C556 C 0.11308 0.51035 0.84083 0.0
C557 C 0.15915 0.49188 0.92186 0.0
C558 C 0.12241 0.5376 0.85485 0.0
C559 C 0.14901 0.54206 0.90342 0.0
H560 H 0.01188 0.81237 0.22548 0.0
H561 H 0.90924 0.81195 0.30458 0.0
H562 H 0.91402 0.84794 0.41735 0.0
H563 H 0.94732 0.88304 0.4785 0.0
H564 H 0.04977 0.88578 0.38557 0.0
H565 H 0.0453 0.84595 0.29112 0.0
C566 C 0.9908 0.81979 0.26969 0.0
C567 C 0.96032 0.80977 0.25779 0.0
C568 C 0.99369 0.84145 0.32927 0.0
C569 C 0.93291 0.81934 0.31422 0.0
C570 C 0.93565 0.84018 0.37703 0.0
C571 C 0.96859 0.87494 0.43723 0.0
C572 C 0.9988 0.88735 0.43899 0.0
C573 C 0.96584 0.85209 0.38237 0.0
C574 C 0.02627 0.87643 0.38616 0.0
C575 C 0.02377 0.85365 0.33218 0.0
H576 H 0.70489 0.96754 0.32647 0.0
H577 H 0.70919 0.05745 0.29821 0.0
H578 H 0.66171 0.05873 0.4233 0.0
H579 H 0.61732 0.03425 0.53432 0.0
H580 H 0.61193 0.94399 0.55975 0.0
H581 H 0.66104 0.94275 0.44246 0.0
C582 C 0.69572 0.98725 0.34998 0.0
C583 C 0.71077 0.01239 0.30551 0.0
C584 C 0.66787 0.98774 0.42012 0.0
C585 C 0.69827 0.03794 0.33359 0.0
C586 C 0.67099 0.03862 0.40416 0.0
C587 C 0.62686 0.01426 0.51446 0.0
C588 C 0.61067 0.98926 0.55598 0.0
C589 C 0.65526 0.01367 0.44691 0.0
C590 C 0.62366 0.96361 0.52915 0.0
C591 C 0.65187 0.96285 0.46204 0.0
H592 H 0.49708 0.63949 0.31031 0.0
H593 H 0.59518 0.66148 0.33047 0.0
H594 H 0.59885 0.62187 0.46009 0.0
H595 H 0.57428 0.57894 0.56089 0.0
H596 H 0.47636 0.55717 0.52821 0.0
H597 H 0.47276 0.59805 0.40939 0.0
C598 C 0.51911 0.63565 0.3441 0.0
C599 C 0.54573 0.65321 0.31179 0.0
C600 C 0.52123 0.61249 0.41514 0.0
C601 C 0.57424 0.64833 0.35567 0.0
C602 C 0.57641 0.62551 0.42864 0.0
C603 C 0.55226 0.58316 0.5275 0.0
C604 C 0.52569 0.56482 0.55415 0.0
C605 C 0.55016 0.60706 0.45781 0.0
C606 C 0.49725 0.57077 0.51012 0.0
C607 C 0.49502 0.59427 0.44188 0.0
H608 H 0.83806 0.52233 0.44273 0.0
H609 H 0.84718 0.43298 0.45111 0.0
H610 H 0.89089 0.43342 0.55561 0.0
H611 H 0.9311 0.46007 0.62415 0.0
H612 H 0.9237 0.55008 0.61013 0.0
H613 H 0.87491 0.54875 0.5285 0.0
C614 C 0.84887 0.50298 0.47133 0.0
C615 C 0.83926 0.47757 0.44162 0.0
C616 C 0.87486 0.50367 0.52779 0.0
C617 C 0.85392 0.45259 0.47561 0.0
C618 C 0.87918 0.45295 0.53378 0.0
C619 C 0.91865 0.47939 0.60423 0.0
C620 C 0.93134 0.50516 0.62206 0.0
C621 C 0.89065 0.47849 0.55705 0.0
C622 C 0.91462 0.52995 0.59674 0.0
C623 C 0.88668 0.52922 0.55003 0.0
loop_
_geom_bond_atom_site_label_1
_geom_bond_atom_site_label_2
_geom_bond_distance
_geom_bond_site_symmetry_2
_ccdc_geom_bond_type
C0 N1 1.317 . S
C0 N2 1.348 . S
C0 C3 1.485 . S
N1 C0 1.317 . S
N1 N5 1.370 . S
N2 C0 1.348 . S
N2 C4 1.346 . S
C3 C0 1.485 . S
C3 H7 0.960 . S
C3 H8 0.961 . S
C3 H9 0.960 . S
C4 N2 1.346 . S
C4 N5 1.307 . S
C4 C6 1.486 1_554 S
N5 N1 1.370 . S
N5 C4 1.307 . S
C6 C4 1.486 1_556 S
C6 H10 0.960 . S
C6 H11 0.960 . S
C6 H12 0.959 . S
H7 C3 0.960 . S
H8 C3 0.961 . S
H9 C3 0.960 . S
H10 C6 0.960 . S
H11 C6 0.960 . S
H12 C6 0.959 . S
C13 N14 1.317 . S
C13 N15 1.348 1_554 S
C13 C16 1.485 . S
N14 C13 1.317 . S
N14 N18 1.370 1_554 S
N15 C13 1.348 1_556 S
N15 C17 1.346 . S
C16 C13 1.485 . S
C16 H20 0.960 . S
C16 H21 0.961 . S
C16 H22 0.960 . S
C17 N15 1.346 . S
C17 N18 1.307 . S
C17 C19 1.486 . S
N18 N14 1.370 1_556 S
N18 C17 1.307 . S
C19 C17 1.486 . S
C19 H23 0.960 . S
C19 H24 0.960 . S
C19 H25 0.959 . S
H20 C16 0.960 . S
H21 C16 0.961 . S
H22 C16 0.960 . S
H23 C19 0.960 . S
H24 C19 0.960 . S
H25 C19 0.959 . S
C26 N27 1.317 . S
C26 N28 1.347 . S
C26 C29 1.485 . S
N27 C26 1.317 . S
N27 N31 1.370 . S
N28 C26 1.347 . S
N28 C30 1.348 1_565 S
C29 C26 1.485 . S
C29 H33 0.960 1_565 S
C29 H34 0.961 . S
C29 H35 0.960 . S
C30 N28 1.348 1_545 S
C30 N31 1.307 1_545 S
C30 C32 1.486 1_554 S
N31 N27 1.370 . S
N31 C30 1.307 1_565 S
C32 C30 1.486 1_556 S
C32 H36 0.960 1_545 S
C32 H37 0.960 . S
C32 H38 0.959 . S
H33 C29 0.960 1_545 S
H34 C29 0.961 . S
H35 C29 0.960 . S
H36 C32 0.960 1_565 S
H37 C32 0.960 . S
H38 C32 0.959 . S
C39 N40 1.317 . S
C39 N41 1.348 . S
C39 C42 1.485 . S
N40 C39 1.317 . S
N40 N44 1.370 . S
N41 C39 1.348 . S
N41 C43 1.346 . S
C42 C39 1.485 . S
C42 H46 0.960 . S
C42 H47 0.961 . S
C42 H48 0.960 . S
C43 N41 1.346 . S
C43 N44 1.307 . S
C43 C45 1.486 1_554 S
N44 N40 1.370 . S
N44 C43 1.307 . S
C45 C43 1.486 1_556 S
C45 H49 0.960 . S
C45 H50 0.960 . S
C45 H51 0.959 . S
H46 C42 0.960 . S
H47 C42 0.961 . S
H48 C42 0.960 . S
H49 C45 0.960 . S
H50 C45 0.960 . S
H51 C45 0.959 . S
C52 N53 1.317 . S
C52 N54 1.348 . S
C52 C55 1.485 . S
N53 C52 1.317 . S
N53 N57 1.370 . S
N54 C52 1.348 . S
N54 C56 1.346 . S
C55 C52 1.485 . S
C55 H59 0.960 . S
C55 H60 0.961 . S
C55 H61 0.960 . S
C56 N54 1.346 . S
C56 N57 1.307 . S
C56 C58 1.486 . S
N57 N53 1.370 . S
N57 C56 1.307 . S
C58 C56 1.486 . S
C58 H62 0.960 . S
C58 H63 0.960 . S
C58 H64 0.959 . S
H59 C55 0.960 . S
H60 C55 0.961 . S
H61 C55 0.960 . S
H62 C58 0.960 . S
H63 C58 0.960 . S
H64 C58 0.959 . S
C65 N66 1.317 . S
C65 N67 1.348 . S
C65 C68 1.485 . S
N66 C65 1.317 . S
N66 N70 1.370 . S
N67 C65 1.348 . S
N67 C69 1.346 . S
C68 C65 1.485 . S
C68 H72 0.960 . S
C68 H73 0.961 . S
C68 H74 0.960 . S
C69 N67 1.346 . S
C69 N70 1.307 . S
C69 C71 1.486 . S
N70 N66 1.370 . S
N70 C69 1.307 . S
C71 C69 1.486 . S
C71 H75 0.960 . S
C71 H76 0.960 . S
C71 H77 0.959 . S
H72 C68 0.960 . S
H73 C68 0.961 . S
H74 C68 0.960 . S
H75 C71 0.960 . S
H76 C71 0.960 . S
H77 C71 0.959 . S
C78 N79 1.317 . S
C78 N80 1.352 . S
C78 C81 1.485 . S
N79 C78 1.317 . S
N79 N83 1.371 . S
N80 C78 1.352 . S
N80 C82 1.343 1_565 S
C81 C78 1.485 . S
C81 H85 0.960 1_565 S
C81 H86 0.961 . S
C81 H87 0.960 . S
C82 N80 1.343 1_545 S
C82 N83 1.306 1_545 S
C82 C84 1.488 . S
N83 N79 1.371 . S
N83 C82 1.306 1_565 S
C84 C82 1.488 . S
C84 H88 0.960 1_545 S
C84 H89 0.960 . S
C84 H90 0.959 . S
H85 C81 0.960 1_545 S
H86 C81 0.961 . S
H87 C81 0.960 . S
H88 C84 0.960 1_565 S
H89 C84 0.960 . S
H90 C84 0.959 . S
C91 N92 1.317 . S
C91 N93 1.348 . S
C91 C94 1.485 . S
N92 C91 1.317 . S
N92 N96 1.370 . S
N93 C91 1.348 . S
N93 C95 1.346 . S
C94 C91 1.485 . S
C94 H98 0.960 . S
C94 H99 0.961 . S
C94 H100 0.960 . S
C95 N93 1.346 . S
C95 N96 1.307 . S
C95 C97 1.486 . S
N96 N92 1.370 . S
N96 C95 1.307 . S
C97 C95 1.486 . S
C97 H101 0.960 . S
C97 H102 0.960 . S
C97 H103 0.959 . S
H98 C94 0.960 . S
H99 C94 0.961 . S
H100 C94 0.960 . S
H101 C97 0.960 . S
H102 C97 0.960 . S
H103 C97 0.959 . S
C104 O120 1.251 . S
C104 O122 1.254 . S
N105 C106 1.327 1_655 S
N105 C110 1.325 . S
N105 Zn111 2.013 1_655 S
C106 N105 1.327 1_455 S
C106 C107 1.379 . S
C106 H124 0.952 . S
C107 C106 1.379 . S
C107 C108 1.390 1_455 S
C107 H134 0.949 . S
C108 C107 1.390 1_655 S
C108 C109 1.357 . S
C109 C108 1.357 . S
C109 C110 1.370 . S
C109 H135 0.950 . S
C110 N105 1.325 . S
C110 C109 1.370 . S
C110 H128 0.942 1_565 S
Zn111 N105 2.013 1_455 S
Zn111 O120 2.039 . S
Zn111 O126 2.034 . S
Zn111 O130 2.025 1_565 S
Zn111 O132 2.024 1_455 S
C112 O131 1.246 . S
C112 O132 1.249 1_545 S
N113 C114 1.307 1_556 S
N113 C115 1.333 . S
N113 Zn119 2.020 . S
C114 N113 1.307 1_554 S
C114 C118 1.370 . S
C114 H125 0.951 1_545 S
C115 N113 1.333 . S
C115 C116 1.379 1_556 S
C115 H123 0.952 . S
C116 C115 1.379 1_554 S
C116 C117 1.390 . S
C116 H136 0.949 . S
C117 C116 1.390 . S
C117 C118 1.357 . S
C118 C114 1.370 . S
C118 C117 1.357 . S
C118 H137 0.950 . S
Zn119 N113 2.020 . S
Zn119 O122 2.025 1_545 S
Zn119 O127 2.024 . S
Zn119 O129 2.039 . S
Zn119 O131 2.034 1_455 S
O120 C104 1.251 . S
O120 Zn111 2.039 . S
C121 O126 1.246 . S
C121 O127 1.249 1_565 S
O122 C104 1.254 . S
O122 Zn119 2.025 1_565 S
H123 C115 0.952 . S
H124 C106 0.952 . S
H125 C114 0.951 1_565 S
O126 Zn111 2.034 . S
O126 C121 1.246 . S
O127 Zn119 2.024 . S
O127 C121 1.249 1_545 S
H128 C110 0.942 1_545 S
O129 Zn119 2.039 . S
O129 C133 1.251 . S
O130 Zn111 2.025 1_545 S
O130 C133 1.254 . S
O131 C112 1.246 . S
O131 Zn119 2.034 1_655 S
O132 Zn111 2.024 1_655 S
O132 C112 1.249 1_565 S
C133 O129 1.251 . S
C133 O130 1.254 . S
H134 C107 0.949 . S
H135 C109 0.950 . S
H136 C116 0.949 . S
H137 C118 0.950 . S
C138 O154 1.251 1_565 S
C138 O156 1.254 . S
N139 C140 1.333 . S
N139 C144 1.307 . S
N139 Zn145 2.020 . S
C140 N139 1.333 . S
C140 C141 1.379 . S
C140 H158 0.952 . S
C141 C140 1.379 . S
C141 C142 1.390 . S
C141 H168 0.949 . S
C142 C141 1.390 . S
C142 C143 1.357 . S
C143 C142 1.357 . S
C143 C144 1.370 . S
C143 H169 0.950 . S
C144 N139 1.307 . S
C144 C143 1.370 . S
C144 H162 0.948 . S
Zn145 N139 2.020 . S
Zn145 O154 2.039 . S
Zn145 O160 2.034 . S
Zn145 O164 2.025 . S
Zn145 O166 2.024 . S
C146 O165 1.246 1_545 S
C146 O166 1.249 . S
N147 C148 1.307 . S
N147 C149 1.333 . S
N147 Zn153 2.020 . S
C148 N147 1.307 . S
C148 C152 1.370 . S
C148 H159 0.948 . S
C149 N147 1.333 . S
C149 C150 1.379 . S
C149 H157 0.952 . S
C150 C149 1.379 . S
C150 C151 1.390 . S
C150 H170 0.949 . S
C151 C150 1.390 . S
C151 C152 1.357 . S
C152 C148 1.370 . S
C152 C151 1.357 . S
C152 H171 0.950 . S
Zn153 N147 2.020 . S
Zn153 O156 2.025 . S
Zn153 O161 2.024 . S
Zn153 O163 2.039 . S
Zn153 O165 2.034 . S
O154 C138 1.251 1_545 S
O154 Zn145 2.039 . S
C155 O160 1.246 1_565 S
C155 O161 1.249 . S
O156 C138 1.254 . S
O156 Zn153 2.025 . S
H157 C149 0.952 . S
H158 C140 0.952 . S
H159 C148 0.948 . S
O160 Zn145 2.034 . S
O160 C155 1.246 1_545 S
O161 Zn153 2.024 . S
O161 C155 1.249 . S
H162 C144 0.948 . S
O163 Zn153 2.039 . S
O163 C167 1.251 1_565 S
O164 Zn145 2.025 . S
O164 C167 1.254 . S
O165 C146 1.246 1_565 S
O165 Zn153 2.034 . S
O166 Zn145 2.024 . S
O166 C146 1.249 . S
C167 O163 1.251 1_545 S
C167 O164 1.254 . S
H168 C141 0.949 . S
H169 C143 0.950 . S
H170 C150 0.949 . S
H171 C152 0.950 . S
C172 O188 1.251 . S
C172 O190 1.254 . S
N173 C174 1.333 . S
N173 C178 1.307 . S
N173 Zn179 2.020 . S
C174 N173 1.333 . S
C174 C175 1.379 . S
C174 H192 0.952 . S
C175 C174 1.379 . S
C175 C176 1.390 . S
C175 H202 0.949 . S
C176 C175 1.390 . S
C176 C177 1.357 . S
C177 C176 1.357 . S
C177 C178 1.370 . S
C177 H203 0.950 . S
C178 N173 1.307 . S
C178 C177 1.370 . S
C178 H196 0.948 . S
Zn179 N173 2.020 . S
Zn179 O188 2.039 . S
Zn179 O194 2.034 . S
Zn179 O198 2.025 . S
Zn179 O200 2.024 . S
C180 O199 1.246 . S
C180 O200 1.249 . S
N181 C182 1.307 . S
N181 C183 1.333 . S
N181 Zn187 2.020 . S
C182 N181 1.307 . S
C182 C186 1.370 . S
C182 H193 0.948 . S
C183 N181 1.333 . S
C183 C184 1.379 . S
C183 H191 0.952 . S
C184 C183 1.379 . S
C184 C185 1.390 . S
C184 H204 0.949 . S
C185 C184 1.390 . S
C185 C186 1.357 . S
C186 C182 1.370 . S
C186 C185 1.357 . S
C186 H205 0.950 . S
Zn187 N181 2.020 . S
Zn187 O190 2.025 . S
Zn187 O195 2.024 . S
Zn187 O197 2.039 . S
Zn187 O199 2.034 . S
O188 C172 1.251 . S
O188 Zn179 2.039 . S
C189 O194 1.246 . S
C189 O195 1.249 . S
O190 C172 1.254 . S
O190 Zn187 2.025 . S
H191 C183 0.952 . S
H192 C174 0.952 . S
H193 C182 0.948 . S
O194 Zn179 2.034 . S
O194 C189 1.246 . S
O195 Zn187 2.024 . S
O195 C189 1.249 . S
H196 C178 0.948 . S
O197 Zn187 2.039 . S
O197 C201 1.251 . S
O198 Zn179 2.025 . S
O198 C201 1.254 . S
O199 C180 1.246 . S
O199 Zn187 2.034 . S
O200 Zn179 2.024 . S
O200 C180 1.249 . S
C201 O197 1.251 . S
C201 O198 1.254 . S
H202 C175 0.949 . S
H203 C177 0.950 . S
H204 C184 0.949 . S
H205 C186 0.950 . S
C206 O222 1.251 . S
C206 O224 1.254 . S
N207 C208 1.333 . S
N207 C212 1.307 . S
N207 Zn213 2.020 . S
C208 N207 1.333 . S
C208 C209 1.379 . S
C208 H226 0.952 . S
C209 C208 1.379 . S
C209 C210 1.390 . S
C209 H236 0.949 . S
C210 C209 1.390 . S
C210 C211 1.357 . S
C211 C210 1.357 . S
C211 C212 1.370 . S
C211 H237 0.950 . S
C212 N207 1.307 . S
C212 C211 1.370 . S
C212 H230 0.948 . S
Zn213 N207 2.020 . S
Zn213 O222 2.039 . S
Zn213 O228 2.034 1_455 S
Zn213 O232 2.025 1_455 S
Zn213 O234 2.024 . S
C214 O233 1.246 . S
C214 O234 1.249 . S
N215 C216 1.307 . S
N215 C217 1.333 1_455 S
N215 Zn221 2.020 . S
C216 N215 1.307 . S
C216 C220 1.370 . S
C216 H227 0.948 . S
C217 N215 1.333 1_655 S
C217 C218 1.379 . S
C217 H225 0.952 . S
C218 C217 1.379 . S
C218 C219 1.390 1_655 S
C218 H238 0.949 . S
C219 C218 1.390 1_455 S
C219 C220 1.357 . S
C220 C216 1.370 . S
C220 C219 1.357 . S
C220 H239 0.950 . S
Zn221 N215 2.020 . S
Zn221 O224 2.025 . S
Zn221 O229 2.024 1_455 S
Zn221 O231 2.039 1_455 S
Zn221 O233 2.034 . S
O222 C206 1.251 . S
O222 Zn213 2.039 . S
C223 O228 1.246 . S
C223 O229 1.249 . S
O224 C206 1.254 . S
O224 Zn221 2.025 . S
H225 C217 0.952 . S
H226 C208 0.952 . S
H227 C216 0.948 . S
O228 Zn213 2.034 1_655 S
O228 C223 1.246 . S
O229 Zn221 2.024 1_655 S
O229 C223 1.249 . S
H230 C212 0.948 . S
O231 Zn221 2.039 1_655 S
O231 C235 1.251 . S
O232 Zn213 2.025 1_655 S
O232 C235 1.254 . S
O233 C214 1.246 . S
O233 Zn221 2.034 . S
O234 Zn213 2.024 . S
O234 C214 1.249 . S
C235 O231 1.251 . S
C235 O232 1.254 . S
H236 C209 0.949 . S
H237 C211 0.950 . S
H238 C218 0.949 . S
H239 C220 0.950 . S
H240 C246 0.930 . S
H241 C249 0.930 . S
H242 C250 0.930 . S
H243 C251 0.930 . S
H244 C254 0.930 . S
H245 C255 0.930 . S
C246 H240 0.930 . S
C246 C247 1.356 . S
C246 C248 1.415 . S
C247 C246 1.356 . S
C247 C249 1.418 1_565 S
C248 C246 1.415 . S
C248 C253 1.425 1_565 S
C248 C255 1.409 . S
C249 H241 0.930 . S
C249 C247 1.418 1_545 S
C249 C250 1.362 . S
C250 H242 0.930 . S
C250 C249 1.362 . S
C250 C253 1.409 . S
C251 H243 0.930 . S
C251 C252 1.355 1_545 S
C251 C253 1.415 . S
C252 C251 1.355 1_565 S
C252 C254 1.419 . S
C253 C248 1.425 1_545 S
C253 C250 1.409 . S
C253 C251 1.415 . S
C254 H244 0.930 . S
C254 C252 1.419 . S
C254 C255 1.362 . S
C255 H245 0.930 . S
C255 C248 1.409 . S
C255 C254 1.362 . S
H256 C262 0.930 . S
H257 C265 0.930 . S
H258 C266 0.930 . S
H259 C267 0.930 . S
H260 C270 0.930 . S
H261 C271 0.930 . S
C262 H256 0.930 . S
C262 C263 1.355 . S
C262 C264 1.415 . S
C263 C262 1.355 . S
C263 C265 1.419 . S
C264 C262 1.415 . S
C264 C269 1.425 . S
C264 C271 1.409 . S
C265 H257 0.930 . S
C265 C263 1.419 . S
C265 C266 1.362 . S
C266 H258 0.930 . S
C266 C265 1.362 . S
C266 C269 1.409 . S
C267 H259 0.930 . S
C267 C268 1.355 . S
C267 C269 1.415 . S
C268 C267 1.355 . S
C268 C270 1.419 . S
C269 C264 1.425 . S
C269 C266 1.409 . S
C269 C267 1.415 . S
C270 H260 0.930 . S
C270 C268 1.419 . S
C270 C271 1.362 . S
C271 H261 0.930 . S
C271 C264 1.409 . S
C271 C270 1.362 . S
H272 C278 0.930 . S
H273 C281 0.930 . S
H274 C282 0.930 . S
H275 C283 0.930 . S
H276 C286 0.930 . S
H277 C287 0.930 . S
C278 H272 0.930 . S
C278 C279 1.355 . S
C278 C280 1.415 . S
C279 C278 1.355 . S
C279 C281 1.419 . S
C280 C278 1.415 . S
C280 C285 1.425 . S
C280 C287 1.409 . S
C281 H273 0.930 . S
C281 C279 1.419 . S
C281 C282 1.362 . S
C282 H274 0.930 . S
C282 C281 1.362 . S
C282 C285 1.409 . S
C283 H275 0.930 . S
C283 C284 1.355 . S
C283 C285 1.415 . S
C284 C283 1.355 . S
C284 C286 1.419 . S
C285 C280 1.425 . S
C285 C282 1.409 . S
C285 C283 1.415 . S
C286 H276 0.930 . S
C286 C284 1.419 . S
C286 C287 1.362 . S
C287 H277 0.930 . S
C287 C280 1.409 . S
C287 C286 1.362 . S
H288 C294 0.930 . S
H289 C297 0.930 . S
H290 C298 0.930 . S
H291 C299 0.930 . S
H292 C302 0.930 . S
H293 C303 0.930 . S
C294 H288 0.930 . S
C294 C295 1.355 . S
C294 C296 1.415 . S
C295 C294 1.355 . S
C295 C297 1.419 . S
C296 C294 1.415 . S
C296 C301 1.425 . S
C296 C303 1.409 . S
C297 H289 0.930 . S
C297 C295 1.419 . S
C297 C298 1.362 . S
C298 H290 0.930 . S
C298 C297 1.362 . S
C298 C301 1.409 . S
C299 H291 0.930 . S
C299 C300 1.355 . S
C299 C301 1.415 . S
C300 C299 1.355 . S
C300 C302 1.419 . S
C301 C296 1.425 . S
C301 C298 1.409 . S
C301 C299 1.415 . S
C302 H292 0.930 . S
C302 C300 1.419 . S
C302 C303 1.362 . S
C303 H293 0.930 . S
C303 C296 1.409 . S
C303 C302 1.362 . S
H304 C310 0.930 . S
H305 C313 0.930 . S
H306 C314 0.930 . S
H307 C315 0.930 . S
H308 C318 0.930 . S
H309 C319 0.930 . S
C310 H304 0.930 . S
C310 C311 1.355 1_566 S
C310 C312 1.415 . S
C311 C310 1.355 1_544 S
C311 C313 1.419 . S
C312 C310 1.415 . S
C312 C317 1.425 1_565 S
C312 C319 1.409 . S
C313 H305 0.930 . S
C313 C311 1.419 . S
C313 C314 1.362 . S
C314 H306 0.930 . S
C314 C313 1.362 . S
C314 C317 1.409 1_554 S
C315 H307 0.930 . S
C315 C316 1.355 . S
C315 C317 1.415 . S
C316 C315 1.355 . S
C316 C318 1.419 1_545 S
C317 C312 1.425 1_545 S
C317 C314 1.409 1_556 S
C317 C315 1.415 . S
C318 H308 0.930 . S
C318 C316 1.419 1_565 S
C318 C319 1.362 . S
C319 H309 0.930 . S
C319 C312 1.409 . S
C319 C318 1.362 . S
H320 C326 0.930 . S
H321 C329 0.930 . S
H322 C330 0.930 . S
H323 C331 0.930 . S
H324 C334 0.930 1_554 S
H325 C335 0.930 . S
C326 H320 0.930 . S
C326 C327 1.355 . S
C326 C328 1.415 . S
C327 C326 1.355 . S
C327 C329 1.419 1_554 S
C328 C326 1.415 . S
C328 C333 1.425 1_554 S
C328 C335 1.409 . S
C329 H321 0.930 . S
C329 C327 1.419 1_556 S
C329 C330 1.362 . S
C330 H322 0.930 . S
C330 C329 1.362 . S
C330 C333 1.409 . S
C331 H323 0.930 . S
C331 C332 1.355 . S
C331 C333 1.415 . S
C332 C331 1.355 . S
C332 C334 1.419 . S
C333 C328 1.425 1_556 S
C333 C330 1.409 . S
C333 C331 1.415 . S
C334 H324 0.930 1_556 S
C334 C332 1.419 . S
C334 C335 1.362 1_556 S
C335 H325 0.930 . S
C335 C328 1.409 . S
C335 C334 1.362 1_554 S
H336 C342 0.930 . S
H337 C345 0.930 . S
H338 C346 0.930 . S
H339 C347 0.930 . S
H340 C350 0.930 . S
H341 C351 0.930 . S
C342 H336 0.930 . S
C342 C343 1.355 . S
C342 C344 1.415 1_554 S
C343 C342 1.355 . S
C343 C345 1.419 . S
C344 C342 1.415 1_556 S
C344 C349 1.425 1_556 S
C344 C351 1.409 . S
C345 H337 0.930 . S
C345 C343 1.419 . S
C345 C346 1.362 . S
C346 H338 0.930 . S
C346 C345 1.362 . S
C346 C349 1.409 . S
C347 H339 0.930 . S
C347 C348 1.355 . S
C347 C349 1.415 1_556 S
C348 C347 1.355 . S
C348 C350 1.419 . S
C349 C344 1.425 1_554 S
C349 C346 1.409 . S
C349 C347 1.415 1_554 S
C350 H340 0.930 . S
C350 C348 1.419 . S
C350 C351 1.362 . S
C351 H341 0.930 . S
C351 C344 1.409 . S
C351 C350 1.362 . S
H352 C358 0.930 1_455 S
H353 C361 0.930 . S
H354 C362 0.930 . S
H355 C363 0.930 . S
H356 C366 0.930 . S
H357 C367 0.930 . S
C358 H352 0.930 1_655 S
C358 C359 1.355 . S
C358 C360 1.415 . S
C359 C358 1.355 . S
C359 C361 1.419 . S
C360 C358 1.415 . S
C360 C365 1.425 . S
C360 C367 1.409 1_655 S
C361 H353 0.930 . S
C361 C359 1.419 . S
C361 C362 1.362 . S
C362 H354 0.930 . S
C362 C361 1.362 . S
C362 C365 1.409 . S
C363 H355 0.930 . S
C363 C364 1.355 . S
C363 C365 1.415 . S
C364 C363 1.355 . S
C364 C366 1.419 1_655 S
C365 C360 1.425 . S
C365 C362 1.409 . S
C365 C363 1.415 . S
C366 H356 0.930 . S
C366 C364 1.419 1_455 S
C366 C367 1.362 . S
C367 H357 0.930 . S
C367 C360 1.409 1_455 S
C367 C366 1.362 . S
H368 C374 0.930 . S
H369 C377 0.930 . S
H370 C378 0.930 . S
H371 C379 0.930 . S
H372 C382 0.930 . S
H373 C383 0.930 . S
C374 H368 0.930 . S
C374 C375 1.355 . S
C374 C376 1.415 . S
C375 C374 1.355 . S
C375 C377 1.419 . S
C376 C374 1.415 . S
C376 C381 1.425 . S
C376 C383 1.409 . S
C377 H369 0.930 . S
C377 C375 1.419 . S
C377 C378 1.362 . S
C378 H370 0.930 . S
C378 C377 1.362 . S
C378 C381 1.409 . S
C379 H371 0.930 . S
C379 C380 1.355 . S
C379 C381 1.415 . S
C380 C379 1.355 . S
C380 C382 1.419 . S
C381 C376 1.425 . S
C381 C378 1.409 . S
C381 C379 1.415 . S
C382 H372 0.930 . S
C382 C380 1.419 . S
C382 C383 1.362 . S
C383 H373 0.930 . S
C383 C376 1.409 . S
C383 C382 1.362 . S
H384 C390 0.930 . S
H385 C393 0.930 . S
H386 C394 0.930 . S
H387 C395 0.930 . S
H388 C398 0.930 . S
H389 C399 0.930 . S
C390 H384 0.930 . S
C390 C391 1.355 1_545 S
C390 C392 1.415 . S
C391 C390 1.355 1_565 S
C391 C393 1.419 . S
C392 C390 1.415 . S
C392 C397 1.425 1_545 S
C392 C399 1.409 . S
C393 H385 0.930 . S
C393 C391 1.419 . S
C393 C394 1.362 . S
C394 H386 0.930 . S
C394 C393 1.362 . S
C394 C397 1.409 . S
C395 H387 0.930 . S
C395 C396 1.355 . S
C395 C397 1.415 . S
C396 C395 1.355 . S
C396 C398 1.419 1_565 S
C397 C392 1.425 1_565 S
C397 C394 1.409 . S
C397 C395 1.415 . S
C398 H388 0.930 . S
C398 C396 1.419 1_545 S
C398 C399 1.362 . S
C399 H389 0.930 . S
C399 C392 1.409 . S
C399 C398 1.362 . S
H400 C406 0.930 . S
H401 C409 0.930 . S
H402 C410 0.930 . S
H403 C411 0.930 . S
H404 C414 0.930 . S
H405 C415 0.930 . S
C406 H400 0.930 . S
C406 C407 1.355 . S
C406 C408 1.415 . S
C407 C406 1.355 . S
C407 C409 1.419 . S
C408 C406 1.415 . S
C408 C413 1.425 . S
C408 C415 1.409 . S
C409 H401 0.930 . S
C409 C407 1.419 . S
C409 C410 1.362 . S
C410 H402 0.930 . S
C410 C409 1.362 . S
C410 C413 1.409 . S
C411 H403 0.930 . S
C411 C412 1.355 . S
C411 C413 1.415 . S
C412 C411 1.355 . S
C412 C414 1.419 . S
C413 C408 1.425 . S
C413 C410 1.409 . S
C413 C411 1.415 . S
C414 H404 0.930 . S
C414 C412 1.419 . S
C414 C415 1.362 . S
C415 H405 0.930 . S
C415 C408 1.409 . S
C415 C414 1.362 . S
H416 C422 0.930 . S
H417 C425 0.930 . S
H418 C426 0.930 . S
H419 C427 0.930 . S
H420 C430 0.930 . S
H421 C431 0.930 . S
C422 H416 0.930 . S
C422 C423 1.355 . S
C422 C424 1.415 . S
C423 C422 1.355 . S
C423 C425 1.419 . S
C424 C422 1.415 . S
C424 C429 1.425 . S
C424 C431 1.409 . S
C425 H417 0.930 . S
C425 C423 1.419 . S
C425 C426 1.362 . S
C426 H418 0.930 . S
C426 C425 1.362 . S
C426 C429 1.409 . S
C427 H419 0.930 . S
C427 C428 1.355 . S
C427 C429 1.415 . S
C428 C427 1.355 . S
C428 C430 1.419 . S
C429 C424 1.425 . S
C429 C426 1.409 . S
C429 C427 1.415 . S
C430 H420 0.930 . S
C430 C428 1.419 . S
C430 C431 1.362 . S
C431 H421 0.930 . S
C431 C424 1.409 . S
C431 C430 1.362 . S
H432 C438 0.930 . S
H433 C441 0.930 . S
H434 C442 0.930 1_455 S
H435 C443 0.921 1_554 S
H436 C446 0.930 . S
H437 C447 0.930 . S
C438 H432 0.930 . S
C438 C439 1.355 . S
C438 C440 1.415 . S
C439 C438 1.355 . S
C439 C441 1.419 1_556 S
C440 C438 1.415 . S
C440 C445 1.425 . S
C440 C447 1.409 . S
C441 H433 0.930 . S
C441 C439 1.419 1_554 S
C441 C442 1.362 . S
C442 H434 0.930 1_655 S
C442 C441 1.362 . S
C442 C445 1.409 1_554 S
C443 H435 0.921 1_556 S
C443 C444 1.355 . S
C443 C445 1.415 1_455 S
C444 C443 1.355 . S
C444 C446 1.419 1_455 S
C445 C440 1.425 . S
C445 C442 1.409 1_556 S
C445 C443 1.415 1_655 S
C446 H436 0.930 . S
C446 C444 1.419 1_655 S
C446 C447 1.362 . S
C447 H437 0.930 . S
C447 C440 1.409 . S
C447 C446 1.362 . S
H448 C454 0.930 . S
H449 C457 0.930 . S
H450 C458 0.930 . S
H451 C459 0.930 . S
H452 C462 0.930 1_554 S
H453 C463 0.930 . S
C454 H448 0.930 . S
C454 C455 1.355 1_565 S
C454 C456 1.415 . S
C455 C454 1.355 1_545 S
C455 C457 1.419 1_554 S
C456 C454 1.415 . S
C456 C461 1.425 1_564 S
C456 C463 1.409 . S
C457 H449 0.930 . S
C457 C455 1.419 1_556 S
C457 C458 1.362 . S
C458 H450 0.930 . S
C458 C457 1.362 . S
C458 C461 1.409 . S
C459 H451 0.930 . S
C459 C460 1.355 . S
C459 C461 1.415 . S
C460 C459 1.355 . S
C460 C462 1.419 1_545 S
C461 C456 1.425 1_546 S
C461 C458 1.409 . S
C461 C459 1.415 . S
C462 H452 0.930 1_556 S
C462 C460 1.419 1_565 S
C462 C463 1.362 1_556 S
C463 H453 0.930 . S
C463 C456 1.409 . S
C463 C462 1.362 1_554 S
H464 C470 0.930 . S
H465 C473 0.930 . S
H466 C474 0.930 . S
H467 C475 0.930 . S
H468 C478 0.930 . S
H469 C479 0.930 . S
C470 H464 0.930 . S
C470 C471 1.355 . S
C470 C472 1.415 . S
C471 C470 1.355 . S
C471 C473 1.419 1_554 S
C472 C470 1.415 . S
C472 C477 1.425 1_554 S
C472 C479 1.409 . S
C473 H465 0.930 . S
C473 C471 1.419 1_556 S
C473 C474 1.362 . S
C474 H466 0.930 . S
C474 C473 1.362 . S
C474 C477 1.409 . S
C475 H467 0.930 . S
C475 C476 1.355 . S
C475 C477 1.415 . S
C476 C475 1.355 . S
C476 C478 1.419 . S
C477 C472 1.425 1_556 S
C477 C474 1.409 . S
C477 C475 1.415 . S
C478 H468 0.930 . S
C478 C476 1.419 . S
C478 C479 1.362 1_556 S
C479 H469 0.930 . S
C479 C472 1.409 . S
C479 C478 1.362 1_554 S
H480 C486 0.930 . S
H481 C489 0.930 . S
H482 C490 0.930 . S
H483 C491 0.930 . S
H484 C494 0.930 . S
H485 C495 0.930 . S
C486 H480 0.930 . S
C486 C487 1.355 . S
C486 C488 1.415 . S
C487 C486 1.355 . S
C487 C489 1.419 . S
C488 C486 1.415 . S
C488 C493 1.425 . S
C488 C495 1.409 1_554 S
C489 H481 0.930 . S
C489 C487 1.419 . S
C489 C490 1.362 . S
C490 H482 0.930 . S
C490 C489 1.362 . S
C490 C493 1.409 . S
C491 H483 0.930 . S
C491 C492 1.355 . S
C491 C493 1.415 1_556 S
C492 C491 1.355 . S
C492 C494 1.419 . S
C493 C488 1.425 . S
C493 C490 1.409 . S
C493 C491 1.415 1_554 S
C494 H484 0.930 . S
C494 C492 1.419 . S
C494 C495 1.362 . S
C495 H485 0.930 . S
C495 C488 1.409 1_556 S
C495 C494 1.362 . S
H496 C502 0.930 . S
H497 C505 0.930 . S
H498 C506 0.930 1_655 S
H499 C507 0.930 . S
H500 C510 0.930 . S
H501 C511 0.930 . S
C502 H496 0.930 . S
C502 C503 1.355 . S
C502 C504 1.415 . S
C503 C502 1.355 . S
C503 C505 1.419 . S
C504 C502 1.415 . S
C504 C509 1.425 . S
C504 C511 1.409 . S
C505 H497 0.930 . S
C505 C503 1.419 . S
C505 C506 1.362 . S
C506 H498 0.930 1_455 S
C506 C505 1.362 . S
C506 C509 1.409 . S
C507 H499 0.930 . S
C507 C508 1.355 . S
C507 C509 1.415 . S
C508 C507 1.355 . S
C508 C510 1.419 . S
C509 C504 1.425 . S
C509 C506 1.409 . S
C509 C507 1.415 . S
C510 H500 0.930 . S
C510 C508 1.419 . S
C510 C511 1.362 . S
C511 H501 0.930 . S
C511 C504 1.409 . S
C511 C510 1.362 . S
H512 C518 0.930 . S
H513 C521 0.930 . S
H514 C522 0.930 1_556 S
H515 C523 0.934 . S
H516 C526 0.930 . S
H517 C527 0.930 . S
C518 H512 0.930 . S
C518 C519 1.355 . S
C518 C520 1.415 . S
C519 C518 1.355 . S
C519 C521 1.419 1_545 S
C520 C518 1.415 . S
C520 C525 1.427 . S
C520 C527 1.409 . S
C521 H513 0.930 . S
C521 C519 1.419 1_565 S
C521 C522 1.362 . S
C522 H514 0.930 1_554 S
C522 C521 1.362 . S
C522 C525 1.408 1_565 S
C523 H515 0.934 . S
C523 C524 1.352 1_565 S
C523 C525 1.412 1_566 S
C524 C523 1.352 1_545 S
C524 C526 1.419 1_556 S
C525 C520 1.427 . S
C525 C522 1.408 1_545 S
C525 C523 1.412 1_544 S
C526 H516 0.930 . S
C526 C524 1.419 1_554 S
C526 C527 1.362 . S
C527 H517 0.930 . S
C527 C520 1.409 . S
C527 C526 1.362 . S
H528 C534 0.930 . S
H529 C537 0.930 . S
H530 C538 0.930 . S
H531 C539 0.930 . S
H532 C542 0.924 1_556 S
H533 C543 0.930 . S
C534 H528 0.930 . S
C534 C535 1.355 . S
C534 C536 1.415 . S
C535 C534 1.355 . S
C535 C537 1.419 . S
C536 C534 1.415 . S
C536 C541 1.425 . S
C536 C543 1.409 . S
C537 H529 0.930 . S
C537 C535 1.419 . S
C537 C538 1.362 . S
C538 H530 0.930 . S
C538 C537 1.362 . S
C538 C541 1.409 . S
C539 H531 0.930 . S
C539 C540 1.355 1_554 S
C539 C541 1.415 . S
C540 C539 1.355 1_556 S
C540 C542 1.419 1_556 S
C541 C536 1.425 . S
C541 C538 1.409 . S
C541 C539 1.415 . S
C542 H532 0.924 1_554 S
C542 C540 1.419 1_554 S
C542 C543 1.369 . S
C543 H533 0.930 . S
C543 C536 1.409 . S
C543 C542 1.369 . S
H544 C550 0.930 . S
H545 C553 0.930 . S
H546 C554 0.930 . S
H547 C555 0.930 . S
H548 C558 0.930 . S
H549 C559 0.930 . S
C550 H544 0.930 . S
C550 C551 1.355 . S
C550 C552 1.415 . S
C551 C550 1.355 . S
C551 C553 1.419 . S
C552 C550 1.415 . S
C552 C557 1.425 . S
C552 C559 1.409 1_554 S
C553 H545 0.930 . S
C553 C551 1.419 . S
C553 C554 1.362 . S
C554 H546 0.930 . S
C554 C553 1.362 . S
C554 C557 1.409 . S
C555 H547 0.930 . S
C555 C556 1.355 1_554 S
C555 C557 1.415 . S
C556 C555 1.355 1_556 S
C556 C558 1.419 . S
C557 C552 1.425 . S
C557 C554 1.409 . S
C557 C555 1.415 . S
C558 H548 0.930 . S
C558 C556 1.419 . S
C558 C559 1.362 . S
C559 H549 0.930 . S
C559 C552 1.409 1_556 S
C559 C558 1.362 . S
H560 C566 0.930 1_455 S
H561 C569 0.930 . S
H562 C570 0.930 . S
H563 C571 0.930 . S
H564 C574 0.930 . S
H565 C575 0.930 . S
C566 H560 0.930 1_655 S
C566 C567 1.355 . S
C566 C568 1.415 . S
C567 C566 1.355 . S
C567 C569 1.419 . S
C568 C566 1.415 . S
C568 C573 1.425 . S
C568 C575 1.409 1_655 S
C569 H561 0.930 . S
C569 C567 1.419 . S
C569 C570 1.362 . S
C570 H562 0.930 . S
C570 C569 1.362 . S
C570 C573 1.409 . S
C571 H563 0.930 . S
C571 C572 1.355 . S
C571 C573 1.415 . S
C572 C571 1.355 . S
C572 C574 1.419 1_655 S
C573 C568 1.425 . S
C573 C570 1.409 . S
C573 C571 1.415 . S
C574 H564 0.930 . S
C574 C572 1.419 1_455 S
C574 C575 1.362 . S
C575 H565 0.930 . S
C575 C568 1.409 1_455 S
C575 C574 1.362 . S
H576 C582 0.930 . S
H577 C585 0.930 . S
H578 C586 0.930 . S
H579 C587 0.930 . S
H580 C590 0.930 . S
H581 C591 0.930 . S
C582 H576 0.930 . S
C582 C583 1.355 1_565 S
C582 C584 1.415 . S
C583 C582 1.355 1_545 S
C583 C585 1.419 . S
C584 C582 1.415 . S
C584 C589 1.425 1_565 S
C584 C591 1.409 . S
C585 H577 0.930 . S
C585 C583 1.419 . S
C585 C586 1.362 . S
C586 H578 0.930 . S
C586 C585 1.362 . S
C586 C589 1.409 . S
C587 H579 0.930 . S
C587 C588 1.355 1_545 S
C587 C589 1.415 . S
C588 C587 1.355 1_565 S
C588 C590 1.419 . S
C589 C584 1.425 1_545 S
C589 C586 1.409 . S
C589 C587 1.415 . S
C590 H580 0.930 . S
C590 C588 1.419 . S
C590 C591 1.362 . S
C591 H581 0.930 . S
C591 C584 1.409 . S
C591 C590 1.362 . S
H592 C598 0.930 . S
H593 C601 0.930 . S
H594 C602 0.930 . S
H595 C603 0.930 . S
H596 C606 0.930 . S
H597 C607 0.930 . S
C598 H592 0.930 . S
C598 C599 1.355 . S
C598 C600 1.415 . S
C599 C598 1.355 . S
C599 C601 1.419 . S
C600 C598 1.415 . S
C600 C605 1.425 . S
C600 C607 1.409 . S
C601 H593 0.930 . S
C601 C599 1.419 . S
C601 C602 1.362 . S
C602 H594 0.930 . S
C602 C601 1.362 . S
C602 C605 1.409 . S
C603 H595 0.930 . S
C603 C604 1.355 . S
C603 C605 1.415 . S
C604 C603 1.355 . S
C604 C606 1.419 . S
C605 C600 1.425 . S
C605 C602 1.409 . S
C605 C603 1.415 . S
C606 H596 0.930 . S
C606 C604 1.419 . S
C606 C607 1.362 . S
C607 H597 0.930 . S
C607 C600 1.409 . S
C607 C606 1.362 . S
H608 C614 0.930 . S
H609 C617 0.930 . S
H610 C618 0.930 . S
H611 C619 0.930 . S
H612 C622 0.930 . S
H613 C623 0.930 . S
C614 H608 0.930 . S
C614 C615 1.355 . S
C614 C616 1.415 . S
C615 C614 1.355 . S
C615 C617 1.419 . S
C616 C614 1.415 . S
C616 C621 1.425 . S
C616 C623 1.409 . S
C617 H609 0.930 . S
C617 C615 1.419 . S
C617 C618 1.362 . S
C618 H610 0.930 . S
C618 C617 1.362 . S
C618 C621 1.409 . S
C619 H611 0.930 . S
C619 C620 1.355 . S
C619 C621 1.415 . S
C620 C619 1.355 . S
C620 C622 1.419 . S
C621 C616 1.425 . S
C621 C618 1.409 . S
C621 C619 1.415 . S
C622 H612 0.930 . S
C622 C620 1.419 . S
C622 C623 1.362 . S
C623 H613 0.930 . S
C623 C616 1.409 . S
C623 C622 1.362 . S
C247 N80 1.893 . S
C252 C121 1.896 . S
C268 C142 1.543 . S
C263 N93 1.525 . S
C284 C176 1.381 . S
C279 N54 1.372 . S
C300 C210 1.523 . S
C295 N67 1.527 . S
C316 C112 1.895 . S
C311 N28 1.893 1_545 S
C327 N41 1.523 . S
C332 C151 1.531 . S
C343 N2 1.431 . S
C348 C185 1.436 . S
C359 N15 1.533 . S
C364 C219 1.525 1_655 S
C380 C133 0.683 . S
C375 N70 0.667 . S
C396 C138 1.121 . S
C391 N83 1.118 . S
C412 C172 1.023 . S
C407 N96 1.017 . S
C423 N57 0.507 . S
C428 C206 0.549 . S
C439 N18 0.574 . S
C444 C104 0.580 . S
C460 C167 1.129 . S
C455 N31 1.121 1_545 S
C476 C201 1.062 . S
C471 N44 1.057 . S
C487 N5 0.575 . S
C492 C235 0.544 . S
C503 N66 1.360 . S
C508 C117 1.374 . S
C519 N79 1.755 1_545 S
C524 C146 1.754 . S
C540 C180 1.556 . S
C535 N92 1.539 . S
C556 C214 1.601 . S
C551 N53 1.590 . S
C567 N14 1.382 . S
C572 C108 1.374 . S
C588 C155 1.752 . S
C583 N27 1.753 1_545 S
C604 C189 1.543 . S
C599 N40 1.540 . S
C615 N1 1.579 . S
C620 C223 1.602 . S
