# Generated by pormake.
# Topology ptr, (4,4)-cn, num edge types: 1
# Building blocks:
#     Node 0, Type 0, BuildingBlock: KUFVIS_clean_sbu_0, # of connection points: 4
#     Node 1, Type 0, BuildingBlock: KUFVIS_clean_sbu_0, # of connection points: 4
#     Node 2, Type 0, BuildingBlock: KUFVIS_clean_sbu_0, # of connection points: 4
#     Node 3, Type 0, BuildingBlock: KUFVIS_clean_sbu_0, # of connection points: 4
#     Node 4, Type 0, BuildingBlock: KUFVIS_clean_sbu_0, # of connection points: 4
#     Node 5, Type 0, BuildingBlock: KUFVIS_clean_sbu_0, # of connection points: 4
#     Node 6, Type 0, BuildingBlock: KUFVIS_clean_sbu_0, # of connection points: 4
#     Node 7, Type 0, BuildingBlock: KUFVIS_clean_sbu_0, # of connection points: 4
#     Node 8, Type 0, BuildingBlock: KUFVIS_clean_sbu_0, # of connection points: 4
#     Node 9, Type 0, BuildingBlock: KUFVIS_clean_sbu_0, # of connection points: 4
#     Node 10, Type 0, BuildingBlock: KUFVIS_clean_sbu_0, # of connection points: 4
#     Node 11, Type 0, BuildingBlock: KUFVIS_clean_sbu_0, # of connection points: 4
#     Node 12, Type 0, BuildingBlock: KUFVIS_clean_sbu_0, # of connection points: 4
#     Node 13, Type 0, BuildingBlock: KUFVIS_clean_sbu_0, # of connection points: 4
#     Node 14, Type 0, BuildingBlock: KUFVIS_clean_sbu_0, # of connection points: 4
#     Node 15, Type 0, BuildingBlock: KUFVIS_clean_sbu_0, # of connection points: 4
#     Node 16, Type 0, BuildingBlock: KUFVIS_clean_sbu_0, # of connection points: 4
#     Node 17, Type 0, BuildingBlock: KUFVIS_clean_sbu_0, # of connection points: 4
#     Node 18, Type 1, BuildingBlock: AZAVOO_clean_linker_0, # of connection points: 4
#     Node 19, Type 1, BuildingBlock: AZAVOO_clean_linker_0, # of connection points: 4
#     Node 20, Type 1, BuildingBlock: AZAVOO_clean_linker_0, # of connection points: 4
#     Node 21, Type 1, BuildingBlock: AZAVOO_clean_linker_0, # of connection points: 4
#     Node 22, Type 1, BuildingBlock: AZAVOO_clean_linker_0, # of connection points: 4
#     Node 23, Type 1, BuildingBlock: AZAVOO_clean_linker_0, # of connection points: 4
#     Node 24, Type 1, BuildingBlock: AZAVOO_clean_linker_0, # of connection points: 4
#     Node 25, Type 1, BuildingBlock: AZAVOO_clean_linker_0, # of connection points: 4
#     Node 26, Type 1, BuildingBlock: AZAVOO_clean_linker_0, # of connection points: 4
#     Node 27, Type 1, BuildingBlock: AZAVOO_clean_linker_0, # of connection points: 4
#     Node 28, Type 1, BuildingBlock: AZAVOO_clean_linker_0, # of connection points: 4
#     Node 29, Type 1, BuildingBlock: AZAVOO_clean_linker_0, # of connection points: 4
#     Node 30, Type 1, BuildingBlock: AZAVOO_clean_linker_0, # of connection points: 4
#     Node 31, Type 1, BuildingBlock: AZAVOO_clean_linker_0, # of connection points: 4
#     Node 32, Type 1, BuildingBlock: AZAVOO_clean_linker_0, # of connection points: 4
#     Node 33, Type 1, BuildingBlock: AZAVOO_clean_linker_0, # of connection points: 4
#     Node 34, Type 1, BuildingBlock: AZAVOO_clean_linker_0, # of connection points: 4
#     Node 35, Type 1, BuildingBlock: AZAVOO_clean_linker_0, # of connection points: 4
#     Edge 36, Type (0, 1), None
#     Edge 37, Type (0, 1), None
#     Edge 38, Type (0, 1), None
#     Edge 39, Type (0, 1), None
#     Edge 40, Type (0, 1), None
#     Edge 41, Type (0, 1), None
#     Edge 42, Type (0, 1), None
#     Edge 43, Type (0, 1), None
#     Edge 44, Type (0, 1), None
#     Edge 45, Type (0, 1), None
#     Edge 46, Type (0, 1), None
#     Edge 47, Type (0, 1), None
#     Edge 48, Type (0, 1), None
#     Edge 49, Type (0, 1), None
#     Edge 50, Type (0, 1), None
#     Edge 51, Type (0, 1), None
#     Edge 52, Type (0, 1), None
#     Edge 53, Type (0, 1), None
#     Edge 54, Type (0, 1), None
#     Edge 55, Type (0, 1), None
#     Edge 56, Type (0, 1), None
#     Edge 57, Type (0, 1), None
#     Edge 58, Type (0, 1), None
#     Edge 59, Type (0, 1), None
#     Edge 60, Type (0, 1), None
#     Edge 61, Type (0, 1), None
#     Edge 62, Type (0, 1), None
#     Edge 63, Type (0, 1), None
#     Edge 64, Type (0, 1), None
#     Edge 65, Type (0, 1), None
#     Edge 66, Type (0, 1), None
#     Edge 67, Type (0, 1), None
#     Edge 68, Type (0, 1), None
#     Edge 69, Type (0, 1), None
#     Edge 70, Type (0, 1), None
#     Edge 71, Type (0, 1), None
#     Edge 72, Type (0, 1), None
#     Edge 73, Type (0, 1), None
#     Edge 74, Type (0, 1), None
#     Edge 75, Type (0, 1), None
#     Edge 76, Type (0, 1), None
#     Edge 77, Type (0, 1), None
#     Edge 78, Type (0, 1), None
#     Edge 79, Type (0, 1), None
#     Edge 80, Type (0, 1), None
#     Edge 81, Type (0, 1), None
#     Edge 82, Type (0, 1), None
#     Edge 83, Type (0, 1), None
#     Edge 84, Type (0, 1), None
#     Edge 85, Type (0, 1), None
#     Edge 86, Type (0, 1), None
#     Edge 87, Type (0, 1), None
#     Edge 88, Type (0, 1), None
#     Edge 89, Type (0, 1), None
#     Edge 90, Type (0, 1), None
#     Edge 91, Type (0, 1), None
#     Edge 92, Type (0, 1), None
#     Edge 93, Type (0, 1), None
#     Edge 94, Type (0, 1), None
#     Edge 95, Type (0, 1), None
#     Edge 96, Type (0, 1), None
#     Edge 97, Type (0, 1), None
#     Edge 98, Type (0, 1), None
#     Edge 99, Type (0, 1), None
#     Edge 100, Type (0, 1), None
#     Edge 101, Type (0, 1), None
#     Edge 102, Type (0, 1), None
#     Edge 103, Type (0, 1), None
#     Edge 104, Type (0, 1), None
#     Edge 105, Type (0, 1), None
#     Edge 106, Type (0, 1), None
#     Edge 107, Type (0, 1), None
# Relax obj value: 0.071
# Max RMSD: 0.209
# Mean RMSD: 0.130
data_MOF--net-ptr--node1-KUFVIS_clean_sbu_0--node2-AZAVOO_clean_linker_0--edge1-none
_symmetry_space_group_name_H-M    P1
_symmetry_Int_Tables_number       1
_symmetry_cell_setting            triclinic
loop_
_symmetry_equiv_pos_as_xyz
'x, y, z'
_cell_length_a     44.158428
_cell_length_b     43.312473
_cell_length_c     36.63071
_cell_angle_alpha  93.041259
_cell_angle_beta   93.648442
_cell_angle_gamma 119.2348
loop_
_atom_site_label
_atom_site_type_symbol
_atom_site_fract_x
_atom_site_fract_y
_atom_site_fract_z
_atom_type_partial_charge
Mn0 Mn 1.00076 0.36219 0.01275 0.0
Mn1 Mn 0.07814 0.4387 0.02249 0.0
C2 C 0.01203 0.40198 0.96921 0.0
C3 C 0.96443 0.30286 0.99414 0.0
C4 C 0.01799 0.42679 0.06562 0.0
O5 O 0.02952 0.35211 0.05065 0.0
O6 O 0.08039 0.40328 0.05322 0.0
C7 C 0.12175 0.41298 0.98816 0.0
N8 N 0.10955 0.43636 0.99036 0.0
C9 C 0.14761 0.47156 0.94676 0.0
C10 C 0.1607 0.44795 0.94411 0.0
C11 C 0.14768 0.41853 0.96483 0.0
C12 C 0.12202 0.46483 0.97064 0.0
H13 H 0.11192 0.39051 0.00433 0.0
C14 C 0.06121 0.3723 0.06338 0.0
O15 O 0.95828 0.31874 0.0212 0.0
O16 O 0.99293 0.32092 0.97869 0.0
N17 N 0.0807 0.4759 0.99524 0.0
C18 C 0.06192 0.493 0.99735 0.0
C19 C 0.0699 0.52166 0.97648 0.0
C20 C 0.0976 0.53304 0.9543 0.0
C21 C 0.11645 0.51483 0.95247 0.0
C22 C 0.10701 0.4861 0.97361 0.0
H23 H 0.04108 0.48484 0.0149 0.0
O24 O 0.98049 0.37792 0.97357 0.0
O25 O 0.03721 0.40162 0.98995 0.0
O26 O 0.99682 0.39568 0.05079 0.0
O27 O 0.04901 0.44523 0.05714 0.0
C28 C 0.14296 0.52284 0.92913 0.0
C29 C 0.15852 0.50119 0.92625 0.0
H30 H 0.18059 0.45202 0.92608 0.0
H31 H 0.15788 0.40041 0.96289 0.0
H32 H 0.05555 0.53565 0.97897 0.0
H33 H 0.10395 0.55546 0.93851 0.0
H34 H 0.15087 0.54498 0.91252 0.0
H35 H 0.17839 0.50715 0.90766 0.0
Mn36 Mn 0.63896 0.62902 0.09129 0.0
Mn37 Mn 0.63468 0.5491 0.0852 0.0
C38 C 0.60558 0.58823 0.13027 0.0
C39 C 0.66479 0.68821 0.11138 0.0
C40 C 0.59224 0.56776 0.03257 0.0
O41 O 0.67936 0.63772 0.06232 0.0
O42 O 0.6738 0.58328 0.05842 0.0
C43 C 0.70128 0.56998 0.12981 0.0
N44 N 0.66616 0.5483 0.12287 0.0
C45 C 0.66583 0.51176 0.17026 0.0
C46 C 0.70206 0.53358 0.17783 0.0
C47 C 0.71983 0.56288 0.1576 0.0
C48 C 0.64883 0.52005 0.14212 0.0
H49 H 0.71499 0.59239 0.11417 0.0
C50 C 0.68877 0.61578 0.05117 0.0
O51 O 0.64455 0.67534 0.08092 0.0
O52 O 0.67096 0.6669 0.13018 0.0
N53 N 0.59887 0.51285 0.1089 0.0
C54 C 0.56376 0.49844 0.10211 0.0
C55 C 0.54186 0.47054 0.12185 0.0
C56 C 0.55618 0.45713 0.14775 0.0
C57 C 0.59254 0.47281 0.15461 0.0
C58 C 0.6131 0.50089 0.13433 0.0
H59 H 0.55262 0.50829 0.08184 0.0
O60 O 0.60075 0.61449 0.12269 0.0
O61 O 0.63128 0.5868 0.11529 0.0
O62 O 0.60426 0.59944 0.04693 0.0
O63 O 0.60119 0.54617 0.0451 0.0
C64 C 0.60915 0.46313 0.18218 0.0
C65 C 0.64579 0.48261 0.19002 0.0
H66 H 0.71643 0.52831 0.19936 0.0
H67 H 0.74776 0.57991 0.16337 0.0
H68 H 0.51409 0.45875 0.11583 0.0
H69 H 0.53914 0.43537 0.16276 0.0
H70 H 0.59392 0.44145 0.19827 0.0
H71 H 0.65821 0.47545 0.21185 0.0
Mn72 Mn 0.36992 0.99002 0.04607 0.0
Mn73 Mn 0.44275 0.06918 0.04664 0.0
C74 C 0.41906 0.00188 0.08446 0.0
C75 C 0.31661 0.95832 0.07106 0.0
C76 C 0.41733 0.01009 0.98383 0.0
O77 O 0.35271 0.02004 0.02124 0.0
O78 O 0.40141 0.07363 0.02964 0.0
C79 C 0.43159 0.11145 0.10492 0.0
N80 N 0.45174 0.09885 0.09096 0.0
C81 C 0.49681 0.12994 0.14098 0.0
C82 C 0.47664 0.14346 0.15579 0.0
C83 C 0.44386 0.13409 0.13772 0.0
C84 C 0.48342 0.10785 0.10797 0.0
H85 H 0.4063 0.10416 0.09117 0.0
C86 C 0.3688 0.0535 0.01924 0.0
O87 O 0.32159 0.94721 0.03949 0.0
O88 O 0.34221 0.98724 0.08768 0.0
N89 N 0.48434 0.0684 0.06294 0.0
C90 C 0.49827 0.04943 0.04765 0.0
C91 C 0.53011 0.054 0.06365 0.0
C92 C 0.54739 0.07823 0.09486 0.0
C93 C 0.53223 0.09693 0.11051 0.0
C94 C 0.5006 0.09151 0.09324 0.0
H95 H 0.48517 0.03095 0.02349 0.0
O96 O 0.39447 0.96951 0.0748 0.0
O97 O 0.41409 0.02653 0.07098 0.0
O98 O 0.39183 0.9857 0.99854 0.0
O99 O 0.43667 0.04141 0.99973 0.0
C100 C 0.54679 0.12001 0.1431 0.0
C101 C 0.52906 0.13645 0.15837 0.0
H102 H 0.48582 0.16058 0.18132 0.0
H103 H 0.42802 0.14418 0.14914 0.0
H104 H 0.54136 0.03893 0.05205 0.0
H105 H 0.57221 0.08217 0.10668 0.0
H106 H 0.57121 0.12465 0.1571 0.0
H107 H 0.54009 0.15344 0.18391 0.0
Mn108 Mn 0.00187 0.63651 0.04408 0.0
Mn109 Mn 0.08111 0.64337 0.0627 0.0
C110 C 0.01694 0.6005 0.00931 0.0
C111 C 0.96439 0.65225 0.0136 0.0
C112 C 0.01982 0.60152 0.10591 0.0
O113 O 0.02764 0.68363 0.07653 0.0
O114 O 0.07839 0.6839 0.08443 0.0
C115 C 0.11907 0.70406 0.01894 0.0
N116 N 0.11175 0.67138 0.02858 0.0
C117 C 0.15564 0.67112 0.99321 0.0
C118 C 0.1637 0.70478 0.98276 0.0
C119 C 0.14506 0.72114 0.99536 0.0
C120 C 0.12853 0.65483 0.01548 0.0
H121 H 0.10527 0.71696 0.02931 0.0
C122 C 0.05928 0.69771 0.09009 0.0
O123 O 0.9572 0.63687 0.04377 0.0
O124 O 0.99432 0.66042 0.002 0.0
N125 N 0.09012 0.60661 0.04518 0.0
C126 C 0.08142 0.57587 0.06087 0.0
C127 C 0.10133 0.559 0.05636 0.0
C128 C 0.12932 0.57311 0.03467 0.0
C129 C 0.13734 0.60421 0.01798 0.0
C130 C 0.11793 0.62105 0.02538 0.0
H131 H 0.06061 0.56523 0.07843 0.0
O132 O 0.9848 0.5925 0.01144 0.0
O133 O 0.04047 0.63055 0.02704 0.0
O134 O 0.99819 0.60843 0.08862 0.0
O135 O 0.05127 0.61374 0.09852 0.0
C136 C 0.1651 0.62022 0.996 0.0
C137 C 0.17374 0.65331 0.98292 0.0
H138 H 0.18422 0.71835 0.96522 0.0
H139 H 0.15108 0.74705 0.98733 0.0
H140 H 0.0951 0.53511 0.06957 0.0
H141 H 0.14437 0.55975 0.03092 0.0
H142 H 0.18016 0.60746 0.98929 0.0
H143 H 0.19502 0.66531 0.9659 0.0
Mn144 Mn 0.36011 0.36879 0.02867 0.0
Mn145 Mn 0.42953 0.35608 0.02302 0.0
C146 C 0.40965 0.40114 0.07068 0.0
C147 C 0.30619 0.35119 0.05172 0.0
C148 C 0.41454 0.40269 0.97402 0.0
O149 O 0.33919 0.32316 0.99384 0.0
O150 O 0.38673 0.31717 0.99738 0.0
C151 C 0.40432 0.29494 0.06787 0.0
N152 N 0.43032 0.32686 0.05977 0.0
C153 C 0.4723 0.32354 0.10199 0.0
C154 C 0.44604 0.29061 0.11095 0.0
C155 C 0.4118 0.27644 0.0941 0.0
C156 C 0.46291 0.34138 0.07685 0.0
H157 H 0.37821 0.28371 0.05426 0.0
C158 C 0.3551 0.30632 0.9858 0.0
O159 O 0.31493 0.3697 0.02359 0.0
O160 O 0.32821 0.34241 0.06574 0.0
N161 N 0.47478 0.3908 0.04525 0.0
C162 C 0.49746 0.42113 0.03091 0.0
C163 C 0.53349 0.43574 0.03989 0.0
C164 C 0.54598 0.41977 0.06449 0.0
C165 C 0.52227 0.38923 0.07984 0.0
C166 C 0.48678 0.37467 0.06812 0.0
H167 H 0.48831 0.43306 0.01109 0.0
O168 O 0.38638 0.41081 0.06503 0.0
O169 O 0.40281 0.3714 0.05255 0.0
O170 O 0.38697 0.39903 0.98747 0.0
O171 O 0.43086 0.38678 0.98492 0.0
C172 C 0.53262 0.37158 0.10474 0.0
C173 C 0.50749 0.33915 0.1165 0.0
H174 H 0.45189 0.27592 0.13055 0.0
H175 H 0.3914 0.25107 0.10088 0.0
H176 H 0.55162 0.45927 0.02779 0.0
H177 H 0.57382 0.43136 0.07163 0.0
H178 H 0.55985 0.38259 0.11479 0.0
H179 H 0.51568 0.32591 0.13581 0.0
Mn180 Mn 0.6239 0.01102 0.0487 0.0
Mn181 Mn 0.55035 0.93167 0.04684 0.0
C182 C 0.57448 0.00049 0.01228 0.0
C183 C 0.67671 0.04536 0.02477 0.0
C184 C 0.57739 0.98883 0.1113 0.0
O185 O 0.64116 0.97923 0.06903 0.0
O186 O 0.59143 0.92638 0.0615 0.0
C187 C 0.55964 0.88981 0.98647 0.0
N188 N 0.54012 0.90253 0.00182 0.0
C189 C 0.49369 0.87202 0.95295 0.0
C190 C 0.51321 0.85842 0.93672 0.0
C191 C 0.54635 0.86744 0.95351 0.0
C192 C 0.50803 0.89375 0.98612 0.0
H193 H 0.5852 0.89684 0.9992 0.0
C194 C 0.62444 0.94559 0.06986 0.0
O195 O 0.67195 0.05347 0.05778 0.0
O196 O 0.65126 0.01759 0.00612 0.0
N197 N 0.50896 0.93346 0.03218 0.0
C198 C 0.4964 0.95353 0.04794 0.0
C199 C 0.46474 0.95001 0.03275 0.0
C200 C 0.44618 0.9256 0.002 0.0
C201 C 0.46007 0.90594 0.98568 0.0
C202 C 0.49167 0.91045 0.00203 0.0
H203 H 0.51057 0.97224 0.07171 0.0
O204 O 0.59878 0.03274 0.02331 0.0
O205 O 0.57955 0.97525 0.02378 0.0
O206 O 0.60317 0.01313 0.09719 0.0
O207 O 0.55714 0.95811 0.09468 0.0
C208 C 0.44446 0.88306 0.95309 0.0
C209 C 0.46128 0.86613 0.93671 0.0
H210 H 0.50329 0.84158 0.91101 0.0
H211 H 0.56169 0.85731 0.94096 0.0
H212 H 0.45466 0.96612 0.04448 0.0
H213 H 0.4215 0.92252 0.9909 0.0
H214 H 0.42002 0.87909 0.93983 0.0
H215 H 0.44953 0.84941 0.91109 0.0
Mn216 Mn 0.66651 0.69576 0.34641 0.0
Mn217 Mn 0.74401 0.77212 0.35665 0.0
C218 C 0.67817 0.73574 0.30297 0.0
C219 C 0.63018 0.63649 0.32756 0.0
C220 C 0.68364 0.76021 0.39945 0.0
O221 O 0.695 0.68545 0.38445 0.0
O222 O 0.74598 0.73653 0.38724 0.0
C223 C 0.78747 0.74622 0.32229 0.0
N224 N 0.77553 0.76981 0.32467 0.0
C225 C 0.814 0.80522 0.28148 0.0
C226 C 0.82687 0.78142 0.27867 0.0
C227 C 0.81348 0.75177 0.29906 0.0
C228 C 0.7883 0.79846 0.30521 0.0
H229 H 0.77733 0.72358 0.3382 0.0
C230 C 0.72667 0.70553 0.39729 0.0
O231 O 0.62388 0.65232 0.35455 0.0
O232 O 0.6588 0.65458 0.31231 0.0
N233 N 0.74686 0.8095 0.32953 0.0
C234 C 0.72812 0.82664 0.33156 0.0
C235 C 0.73642 0.85551 0.31093 0.0
C236 C 0.76432 0.867 0.28903 0.0
C237 C 0.7831 0.84871 0.28725 0.0
C238 C 0.77338 0.81981 0.30817 0.0
H239 H 0.70712 0.81839 0.34889 0.0
O240 O 0.64655 0.71173 0.30713 0.0
O241 O 0.70317 0.73522 0.32386 0.0
O242 O 0.66245 0.72919 0.38444 0.0
O243 O 0.71474 0.77861 0.39118 0.0
C244 C 0.80978 0.8568 0.26412 0.0
C245 C 0.82522 0.83503 0.26121 0.0
H246 H 0.84681 0.78549 0.26072 0.0
H247 H 0.82345 0.73346 0.29694 0.0
H248 H 0.72214 0.86956 0.31343 0.0
H249 H 0.77092 0.88957 0.27341 0.0
H250 H 0.81792 0.87908 0.24768 0.0
H251 H 0.84519 0.84103 0.24275 0.0
Mn252 Mn 0.306 0.96156 0.42483 0.0
Mn253 Mn 0.30116 0.88139 0.41878 0.0
C254 C 0.27235 0.92086 0.46374 0.0
C255 C 0.332 0.02075 0.44497 0.0
C256 C 0.25908 0.90039 0.36609 0.0
O257 O 0.34645 0.97005 0.39604 0.0
O258 O 0.34039 0.9154 0.39194 0.0
C259 C 0.36769 0.90189 0.46335 0.0
N260 N 0.33254 0.88041 0.45646 0.0
C261 C 0.33196 0.84382 0.50388 0.0
C262 C 0.36822 0.86543 0.51141 0.0
C263 C 0.38614 0.89467 0.49113 0.0
C264 C 0.31508 0.85222 0.47574 0.0
H265 H 0.38151 0.92426 0.44767 0.0
C266 C 0.35561 0.94793 0.38479 0.0
O267 O 0.31191 0.008 0.41441 0.0
O268 O 0.33795 -0.00066 0.46383 0.0
N269 N 0.26524 0.84531 0.44252 0.0
C270 C 0.23014 0.83113 0.43578 0.0
C271 C 0.20813 0.80335 0.45558 0.0
C272 C 0.22231 0.78981 0.48149 0.0
C273 C 0.25865 0.80527 0.48831 0.0
C274 C 0.27934 0.83325 0.46798 0.0
H275 H 0.21911 0.84108 0.41551 0.0
O276 O 0.26769 0.9472 0.45606 0.0
O277 O 0.29801 0.91926 0.44886 0.0
O278 O 0.27137 0.93213 0.38037 0.0
O279 O 0.26776 0.87863 0.37869 0.0
C280 C 0.27514 0.79547 0.51589 0.0
C281 C 0.31179 0.81475 0.52369 0.0
H282 H 0.38251 0.86006 0.53294 0.0
H283 H 0.41409 0.91154 0.49687 0.0
H284 H 0.18037 0.79174 0.4496 0.0
H285 H 0.20518 0.76815 0.49654 0.0
H286 H 0.25982 0.77386 0.53201 0.0
H287 H 0.32412 0.8075 0.54553 0.0
Mn288 Mn 0.03735 0.32439 0.37937 0.0
Mn289 Mn 0.11047 0.40332 0.37999 0.0
C290 C 0.0864 0.33594 0.41775 0.0
C291 C 0.98397 0.29285 0.40429 0.0
C292 C 0.08474 0.34426 0.31712 0.0
O293 O 0.02042 0.35466 0.35459 0.0
O294 O 0.06931 0.4081 0.36302 0.0
C295 C 0.09966 0.44581 0.43835 0.0
N296 N 0.11965 0.43301 0.42435 0.0
C297 C 0.16478 0.46385 0.47436 0.0
C298 C 0.14479 0.47757 0.48921 0.0
C299 C 0.11205 0.46843 0.47117 0.0
C300 C 0.15128 0.44179 0.44134 0.0
H301 H 0.07442 0.43869 0.42461 0.0
C302 C 0.03668 0.38812 0.35259 0.0
O303 O 0.98893 0.28176 0.3727 0.0
O304 O 0.00964 0.32168 0.42097 0.0
N305 N 0.15191 0.40222 0.39624 0.0
C306 C 0.16564 0.38308 0.38091 0.0
C307 C 0.1974 0.38742 0.39688 0.0
C308 C 0.21479 0.41159 0.4281 0.0
C309 C 0.19982 0.43047 0.4438 0.0
C310 C 0.16827 0.42528 0.42656 0.0
H311 H 0.15244 0.36464 0.35673 0.0
O312 O 0.06168 0.30364 0.40805 0.0
O313 O 0.08161 0.36072 0.4043 0.0
O314 O 0.05919 0.31996 0.33183 0.0
O315 O 0.10422 0.37554 0.33304 0.0
C316 C 0.2145 0.4535 0.47641 0.0
C317 C 0.19695 0.47012 0.49172 0.0
H318 H 0.15406 0.49467 0.51476 0.0
H319 H 0.09636 0.47868 0.48262 0.0
H320 H 0.20849 0.37222 0.38523 0.0
H321 H 0.23955 0.41535 0.43989 0.0
H322 H 0.23887 0.45796 0.49038 0.0
H323 H 0.20807 0.48709 0.51728 0.0
Mn324 Mn 0.6689 0.97004 0.3783 0.0
Mn325 Mn 0.74787 0.97644 0.39745 0.0
C326 C 0.68392 0.93384 0.34376 0.0
C327 C 0.6316 0.98575 0.34746 0.0
C328 C 0.68631 0.935 0.44044 0.0
O329 O 0.69479 0.0173 0.41055 0.0
O330 O 0.74531 0.01714 0.41889 0.0
C331 C 0.78655 0.03707 0.35387 0.0
N332 N 0.77885 0.00428 0.3635 0.0
C333 C 0.82294 0.00373 0.3287 0.0
C334 C 0.83137 0.03748 0.31825 0.0
C335 C 0.81283 0.05406 0.33059 0.0
C336 C 0.79556 0.98755 0.35068 0.0
H337 H 0.77284 0.05015 0.36406 0.0
C338 C 0.72638 0.03124 0.42423 0.0
O339 O 0.62431 0.97056 0.37773 0.0
O340 O 0.66155 0.99381 0.33599 0.0
N341 N 0.75666 0.93945 0.38018 0.0
C342 C 0.74758 0.90863 0.39586 0.0
C343 C 0.7673 0.89152 0.39162 0.0
C344 C 0.79552 0.90549 0.37023 0.0
C345 C 0.80393 0.93668 0.35354 0.0
C346 C 0.78464 0.95372 0.36062 0.0
H347 H 0.72659 0.8981 0.41322 0.0
O348 O 0.65179 0.92589 0.34586 0.0
O349 O 0.70747 0.96386 0.36153 0.0
O350 O 0.6649 0.94209 0.423 0.0
O351 O 0.71776 0.94698 0.43318 0.0
C352 C 0.83194 0.95256 0.33185 0.0
C353 C 0.84094 0.98572 0.31873 0.0
H354 H 0.85212 0.05097 0.30095 0.0
H355 H 0.81916 0.08006 0.32259 0.0
H356 H 0.76074 0.86755 0.40481 0.0
H357 H 0.81043 0.89196 0.36669 0.0
H358 H 0.84692 0.93965 0.32539 0.0
H359 H 0.86242 -0.00237 0.30195 0.0
Mn360 Mn 0.02603 0.70237 0.36232 0.0
Mn361 Mn 0.09522 0.68925 0.35681 0.0
C362 C 0.07549 0.73444 0.40452 0.0
C363 C 0.972 0.6847 0.38519 0.0
C364 C 0.08056 0.7361 0.30778 0.0
O365 O 0.00517 0.65696 0.32715 0.0
O366 O 0.05237 0.65033 0.33124 0.0
C367 C 0.06991 0.62843 0.40213 0.0
N368 N 0.09599 0.66015 0.3937 0.0
C369 C 0.13799 0.65683 0.43588 0.0
C370 C 0.11166 0.62409 0.44515 0.0
C371 C 0.07737 0.61004 0.42851 0.0
C372 C 0.12862 0.6746 0.41064 0.0
H373 H 0.04375 0.61731 0.38867 0.0
C374 C 0.0209 0.63989 0.31931 0.0
O375 O 0.9809 0.7034 0.3572 0.0
O376 O 0.99393 0.67579 0.39917 0.0
N377 N 0.14053 0.72395 0.37891 0.0
C378 C 0.16322 0.7542 0.36446 0.0
C379 C 0.19926 0.76869 0.37326 0.0
C380 C 0.21176 0.75267 0.39781 0.0
C381 C 0.18805 0.72225 0.4133 0.0
C382 C 0.15253 0.7078 0.40175 0.0
H383 H 0.15406 0.76617 0.34469 0.0
O384 O 0.05227 0.74419 0.39897 0.0
O385 O 0.06859 0.70476 0.38624 0.0
O386 O 0.05317 0.73279 0.32136 0.0
O387 O 0.09659 0.71986 0.31857 0.0
C388 C 0.19839 0.70462 0.43824 0.0
C389 C 0.17322 0.67233 0.45023 0.0
H390 H 0.11748 0.60947 0.46488 0.0
H391 H 0.05691 0.58487 0.43562 0.0
H392 H 0.21739 0.79215 0.36107 0.0
H393 H 0.2396 0.76417 0.40481 0.0
H394 H 0.22563 0.71554 0.44816 0.0
H395 H 0.1814 0.65913 0.4696 0.0
Mn396 Mn 0.29035 0.34357 0.38169 0.0
Mn397 Mn 0.21654 0.26443 0.37978 0.0
C398 C 0.24103 0.33334 0.3453 0.0
C399 C 0.3432 0.37782 0.35784 0.0
C400 C 0.24385 0.32154 0.4443 0.0
O401 O 0.30737 0.31154 0.40193 0.0
O402 O 0.25746 0.25886 0.39444 0.0
C403 C 0.22558 0.22242 0.31936 0.0
N404 N 0.20619 0.23528 0.33473 0.0
C405 C 0.15973 0.20497 0.28586 0.0
C406 C 0.17911 0.19122 0.26961 0.0
C407 C 0.21221 0.20006 0.28639 0.0
C408 C 0.17414 0.22667 0.31904 0.0
H409 H 0.2511 0.22931 0.33209 0.0
C410 C 0.29049 0.27792 0.40278 0.0
O411 O 0.33847 0.38586 0.39088 0.0
O412 O 0.31771 0.35013 0.33912 0.0
N413 N 0.1753 0.26649 0.36513 0.0
C414 C 0.16289 0.2867 0.3809 0.0
C415 C 0.13131 0.28336 0.36572 0.0
C416 C 0.11267 0.259 0.33496 0.0
C417 C 0.1264 0.23919 0.31863 0.0
C418 C 0.15792 0.24352 0.33497 0.0
H419 H 0.17713 0.30538 0.40467 0.0
O420 O 0.26544 0.36553 0.35641 0.0
O421 O 0.24592 0.30797 0.35673 0.0
O422 O 0.2697 0.34574 0.4302 0.0
O423 O 0.22344 0.29087 0.42763 0.0
C424 C 0.11071 0.21634 0.28603 0.0
C425 C 0.12738 0.19926 0.26963 0.0
H426 H 0.16913 0.17439 0.24389 0.0
H427 H 0.22745 0.18981 0.27383 0.0
H428 H 0.12135 0.29959 0.37746 0.0
H429 H 0.08805 0.25606 0.32386 0.0
H430 H 0.08632 0.21251 0.27277 0.0
H431 H 0.11557 0.18257 0.24401 0.0
Mn432 Mn 0.33366 0.02851 0.67996 0.0
Mn433 Mn 0.41101 0.10507 0.69006 0.0
C434 C 0.34508 0.06843 0.63653 0.0
C435 C 0.29735 0.96921 0.66118 0.0
C436 C 0.35067 0.09293 0.73299 0.0
O437 O 0.36235 0.01834 0.71789 0.0
O438 O 0.4132 0.06958 0.72065 0.0
C439 C 0.455 0.07972 0.65591 0.0
N440 N 0.44262 0.10296 0.65805 0.0
C441 C 0.48093 0.13852 0.61481 0.0
C442 C 0.49417 0.11504 0.61218 0.0
C443 C 0.48112 0.08552 0.63275 0.0
C444 C 0.45515 0.13155 0.6385 0.0
H445 H 0.44521 0.0572 0.672 0.0
C446 C 0.39403 0.03854 0.73068 0.0
O447 O 0.29115 0.98503 0.68826 0.0
O448 O 0.3259 0.98731 0.64582 0.0
N449 N 0.41359 0.14233 0.66291 0.0
C450 C 0.39469 0.15931 0.66497 0.0
C451 C 0.40276 0.1881 0.64429 0.0
C452 C 0.43062 0.19969 0.6223 0.0
C453 C 0.44955 0.18157 0.6205 0.0
C454 C 0.44004 0.15272 0.64145 0.0
H455 H 0.37372 0.15097 0.68236 0.0
O456 O 0.31352 0.04437 0.64078 0.0
O457 O 0.3702 0.06802 0.65733 0.0
O458 O 0.32957 0.06186 0.71805 0.0
O459 O 0.38171 0.11143 0.72464 0.0
C460 C 0.47624 0.18982 0.59735 0.0
C461 C 0.49192 0.16827 0.59449 0.0
H462 H 0.51422 0.1193 0.5943 0.0
H463 H 0.49146 0.06753 0.63084 0.0
H464 H 0.38835 0.20201 0.64678 0.0
H465 H 0.43707 0.22222 0.60666 0.0
H466 H 0.48423 0.21207 0.58088 0.0
H467 H 0.51195 0.17443 0.57606 0.0
Mn468 Mn 0.97307 0.29508 0.75783 0.0
Mn469 Mn 0.96816 0.2149 0.75168 0.0
C470 C 0.93935 0.25435 0.79666 0.0
C471 C 0.999 0.35425 0.77798 0.0
C472 C 0.92615 0.23399 0.69902 0.0
O473 O 0.01357 0.30361 0.72916 0.0
O474 O 0.00736 0.2489 0.72484 0.0
C475 C 0.03471 0.23535 0.7962 0.0
N476 N 0.99955 0.21388 0.78932 0.0
C477 C 0.99899 0.17723 0.83668 0.0
C478 C 0.03525 0.19884 0.84419 0.0
C479 C 0.05316 0.22809 0.82394 0.0
C480 C 0.98209 0.18567 0.80858 0.0
H481 H 0.04852 0.25773 0.78053 0.0
C482 C 0.02266 0.28146 0.71781 0.0
O483 O 0.97899 0.34151 0.74737 0.0
O484 O 0.0049 0.33283 0.79689 0.0
N485 N 0.93224 0.17881 0.77543 0.0
C486 C 0.89715 0.16466 0.76871 0.0
C487 C 0.87515 0.13683 0.78848 0.0
C488 C 0.88934 0.12326 0.81435 0.0
C489 C 0.92567 0.13872 0.82115 0.0
C490 C 0.94635 0.16672 0.80084 0.0
H491 H 0.88612 0.17463 0.74848 0.0
O492 O 0.93468 0.28068 0.78896 0.0
O493 O 0.96503 0.25276 0.78182 0.0
O494 O 0.93852 0.26573 0.71331 0.0
O495 O 0.93473 0.21215 0.71162 0.0
C496 C 0.94217 0.12888 0.84869 0.0
C497 C 0.97882 0.14815 0.85647 0.0
H498 H 0.04954 0.19344 0.86569 0.0
H499 H 0.08111 0.24496 0.82966 0.0
H500 H 0.8474 0.12524 0.7825 0.0
H501 H 0.8722 0.10158 0.82937 0.0
H502 H 0.92685 0.10726 0.86479 0.0
H503 H 0.99116 0.14087 0.87827 0.0
Mn504 Mn 0.70313 0.65774 0.71279 0.0
Mn505 Mn 0.77592 0.73694 0.71331 0.0
C506 C 0.75228 0.66966 0.75119 0.0
C507 C 0.64982 0.62597 0.7377 0.0
C508 C 0.75051 0.67781 0.65054 0.0
O509 O 0.68588 0.68772 0.68795 0.0
O510 O 0.73454 0.74134 0.69633 0.0
C511 C 0.76476 0.77922 0.77158 0.0
N512 N 0.78493 0.76664 0.75761 0.0
C513 C 0.83002 0.79778 0.8076 0.0
C514 C 0.80985 0.81129 0.82241 0.0
C515 C 0.77704 0.80189 0.80436 0.0
C516 C 0.81663 0.77567 0.7746 0.0
H517 H 0.73947 0.7719 0.75785 0.0
C518 C 0.70194 0.72118 0.68594 0.0
O519 O 0.65486 0.61491 0.70614 0.0
O520 O 0.67537 0.65489 0.75437 0.0
N521 N 0.81755 0.73622 0.72958 0.0
C522 C 0.83153 0.71731 0.71425 0.0
C523 C 0.86339 0.72191 0.73024 0.0
C524 C 0.88064 0.74611 0.76148 0.0
C525 C 0.86546 0.76479 0.77713 0.0
C526 C 0.83381 0.75935 0.75987 0.0
H527 H 0.81845 0.69886 0.69007 0.0
O528 O 0.72771 0.63728 0.74154 0.0
O529 O 0.7473 0.69429 0.7377 0.0
O530 O 0.72504 0.65343 0.66529 0.0
O531 O 0.76983 0.70914 0.66641 0.0
C532 C 0.88002 0.78788 0.80971 0.0
C533 C 0.86228 0.80431 0.82498 0.0
H534 H 0.81903 0.82843 0.84794 0.0
H535 H 0.7612 0.81197 0.81579 0.0
H536 H 0.87467 0.70689 0.71859 0.0
H537 H 0.90546 0.75004 0.77332 0.0
H538 H 0.90446 0.79254 0.8237 0.0
H539 H 0.87331 0.82132 0.85051 0.0
Mn540 Mn 0.33534 0.30255 0.71177 0.0
Mn541 Mn 0.41432 0.30898 0.73083 0.0
C542 C 0.3503 0.26633 0.67719 0.0
C543 C 0.29811 0.31835 0.68089 0.0
C544 C 0.35281 0.26755 0.77391 0.0
O545 O 0.36125 0.3498 0.74402 0.0
O546 O 0.41182 0.34973 0.75227 0.0
C547 C 0.45292 0.36954 0.68715 0.0
N548 N 0.44523 0.33676 0.6968 0.0
C549 C 0.48924 0.33614 0.66191 0.0
C550 C 0.49766 0.36988 0.65143 0.0
C551 C 0.47915 0.38649 0.6638 0.0
C552 C 0.4619 0.32 0.68395 0.0
H553 H 0.43924 0.38264 0.69736 0.0
C554 C 0.39286 0.36378 0.75766 0.0
O555 O 0.29076 0.30313 0.71115 0.0
O556 O 0.32806 0.32637 0.66946 0.0
N557 N 0.42307 0.27196 0.71357 0.0
C558 C 0.41403 0.24118 0.72931 0.0
C559 C 0.43375 0.22406 0.72505 0.0
C560 C 0.46192 0.23799 0.7036 0.0
C561 C 0.47029 0.26914 0.68685 0.0
C562 C 0.451 0.28619 0.69393 0.0
H563 H 0.39309 0.23069 0.74672 0.0
O564 O 0.31819 0.25841 0.67932 0.0
O565 O 0.37387 0.29634 0.69496 0.0
O566 O 0.33135 0.27458 0.75647 0.0
O567 O 0.38426 0.27958 0.76662 0.0
C568 C 0.49825 0.28498 0.66509 0.0
C569 C 0.50722 0.31812 0.65193 0.0
H570 H 0.51838 0.38335 0.63409 0.0
H571 H 0.48548 0.41249 0.65579 0.0
H572 H 0.42723 0.20013 0.73829 0.0
H573 H 0.47683 0.22446 0.70006 0.0
H574 H 0.51322 0.27206 0.65862 0.0
H575 H 0.52866 0.32999 0.6351 0.0
Mn576 Mn 0.69348 0.03622 0.69524 0.0
Mn577 Mn 0.7627 0.02323 0.68945 0.0
C578 C 0.74306 0.06839 0.73726 0.0
C579 C 0.6396 0.01866 0.71844 0.0
C580 C 0.74792 0.07007 0.64057 0.0
O581 O 0.67241 0.99065 0.66029 0.0
O582 O 0.71983 0.98445 0.66379 0.0
C583 C 0.7373 0.96202 0.73421 0.0
N584 N 0.76337 0.9939 0.72612 0.0
C585 C 0.80527 0.99031 0.76821 0.0
C586 C 0.77893 0.95742 0.77715 0.0
C587 C 0.7447 0.9434 0.76036 0.0
C588 C 0.79597 0.00828 0.74317 0.0
H589 H 0.71119 0.95091 0.72064 0.0
C590 C 0.68823 0.97373 0.65221 0.0
O591 O 0.64833 0.03725 0.69036 0.0
O592 O 0.66161 0.0098 0.73231 0.0
N593 N 0.80801 0.0578 0.71166 0.0
C594 C 0.83078 0.08807 0.69729 0.0
C595 C 0.86679 0.10248 0.70614 0.0
C596 C 0.87921 0.08637 0.73066 0.0
C597 C 0.85542 0.0559 0.74605 0.0
C598 C 0.81993 0.04154 0.73445 0.0
H599 H 0.82169 0.1001 0.67753 0.0
O600 O 0.71986 0.07816 0.73169 0.0
O601 O 0.73612 0.03866 0.71904 0.0
O602 O 0.7204 0.06652 0.65406 0.0
O603 O 0.76413 0.05403 0.65142 0.0
C604 C 0.86569 0.03812 0.77086 0.0
C605 C 0.84048 0.00574 0.78263 0.0
H606 H 0.78472 0.94262 0.79668 0.0
H607 H 0.72423 0.91806 0.76712 0.0
H608 H 0.88499 0.12596 0.69402 0.0
H609 H 0.90704 0.09781 0.73771 0.0
H610 H 0.89292 0.04897 0.78081 0.0
H611 H 0.84861 0.99239 0.80186 0.0
Mn612 Mn 0.9564 0.6774 0.71522 0.0
Mn613 Mn 0.88235 0.59847 0.71346 0.0
C614 C 0.90715 0.66731 0.67879 0.0
C615 C 0.00932 0.71143 0.69136 0.0
C616 C 0.90997 0.6557 0.77789 0.0
O617 O 0.97318 0.64519 0.73552 0.0
O618 O 0.92312 0.59263 0.728 0.0
C619 C 0.89089 0.55606 0.65306 0.0
N620 N 0.87173 0.56921 0.66845 0.0
C621 C 0.82511 0.53904 0.61971 0.0
C622 C 0.84426 0.52502 0.60342 0.0
C623 C 0.87732 0.53365 0.62013 0.0
C624 C 0.83971 0.5608 0.65283 0.0
H625 H 0.91638 0.56278 0.66573 0.0
C626 C 0.95617 0.61155 0.73633 0.0
O627 O 0.00461 0.71956 0.72438 0.0
O628 O 0.98377 0.68378 0.67266 0.0
N629 N 0.84126 0.60084 0.69891 0.0
C630 C 0.8291 0.62127 0.71469 0.0
C631 C 0.79759 0.61815 0.69959 0.0
C632 C 0.77876 0.59377 0.6689 0.0
C633 C 0.79225 0.57374 0.65254 0.0
C634 C 0.82372 0.57787 0.66879 0.0
H635 H 0.84348 0.63997 0.73841 0.0
O636 O 0.93165 0.69948 0.68983 0.0
O637 O 0.9119 0.6419 0.69032 0.0
O638 O 0.93583 0.67981 0.76371 0.0
O639 O 0.88949 0.62502 0.76132 0.0
C640 C 0.77638 0.55086 0.61999 0.0
C641 C 0.79281 0.53354 0.60356 0.0
H642 H 0.83412 0.50814 0.57775 0.0
H643 H 0.89238 0.52318 0.60755 0.0
H644 H 0.78783 0.63455 0.71134 0.0
H645 H 0.75419 0.59098 0.6579 0.0
H646 H 0.75203 0.54718 0.6068 0.0
H647 H 0.78085 0.51682 0.57797 0.0
H648 H 0.11455 0.32701 0.92582 0.0
H649 H 0.33576 0.2882 0.26654 0.0
H650 H 0.15006 0.39301 0.15155 0.0
H651 H 0.11753 0.41283 0.11269 0.0
H652 H 0.04108 0.30345 0.07725 0.0
H653 H 0.07412 0.28376 0.11689 0.0
H654 H 0.17114 0.37492 0.07997 0.0
H655 H 0.15235 0.36562 0.01414 0.0
H656 H 0.11022 0.25243 0.01725 0.0
H657 H 0.12937 0.26212 0.08303 0.0
H658 H 0.23292 0.38408 0.10627 0.0
H659 H 0.28013 0.39522 0.06778 0.0
H660 H 0.26072 0.28828 0.07636 0.0
H661 H 0.21182 0.27638 0.11252 0.0
H662 H 0.25933 0.38026 0.21125 0.0
H663 H 0.30904 0.37911 0.24365 0.0
H664 H 0.26221 0.26704 0.20839 0.0
H665 H 0.21289 0.26856 0.17629 0.0
H666 H 0.19277 0.37499 0.25889 0.0
H667 H 0.21826 0.37791 0.321 0.0
H668 H 0.21888 0.28126 0.29001 0.0
H669 H 0.18209 0.27154 0.23398 0.0
H670 H 0.14625 0.38522 0.21622 0.0
H671 H 0.12036 0.39293 0.27 0.0
H672 H 0.07 0.2801 0.27966 0.0
H673 H 0.09762 0.27269 0.22597 0.0
O674 O 0.12227 0.3302 0.95176 0.0
O675 O 0.10298 0.27251 0.95462 0.0
O676 O 0.34273 0.34829 0.26612 0.0
O677 O 0.3172 0.28979 0.2528 0.0
C678 C 0.13992 0.32689 0.1515 0.0
C679 C 0.16176 0.32406 0.12629 0.0
C680 C 0.19269 0.32437 0.13895 0.0
C681 C 0.19997 0.32385 0.17691 0.0
C682 C 0.17649 0.32352 0.20207 0.0
C683 C 0.14666 0.32575 0.18955 0.0
C684 C 0.11411 0.33697 0.13763 0.0
C685 C 0.12542 0.37326 0.13683 0.0
C686 C 0.10717 0.38453 0.11391 0.0
C687 C 0.0772 0.35969 0.09125 0.0
C688 C 0.06424 0.3232 0.09425 0.0
C689 C 0.08278 0.31189 0.11717 0.0
C690 C 0.15142 0.31915 0.08619 0.0
C691 C 0.15784 0.34817 0.06635 0.0
C692 C 0.14699 0.34276 0.02875 0.0
C693 C 0.1295 0.30826 0.01042 0.0
C694 C 0.12351 0.27933 0.03048 0.0
C695 C 0.13445 0.28478 0.06802 0.0
C696 C 0.2193 0.32962 0.11304 0.0
C697 C 0.23828 0.36275 0.09915 0.0
C698 C 0.26515 0.36908 0.07708 0.0
C699 C 0.2741 0.34265 0.0693 0.0
C700 C 0.2544 0.30915 0.08216 0.0
C701 C 0.22679 0.30247 0.10322 0.0
C702 C 0.23275 0.32464 0.19092 0.0
C703 C 0.26031 0.35572 0.20984 0.0
C704 C 0.28847 0.35489 0.2286 0.0
C705 C 0.28934 0.32285 0.22894 0.0
C706 C 0.26227 0.29209 0.20885 0.0
C707 C 0.23434 0.29303 0.18989 0.0
C708 C 0.18481 0.32263 0.24184 0.0
C709 C 0.19468 0.35234 0.2671 0.0
C710 C 0.20988 0.35426 0.30246 0.0
C711 C 0.21758 0.32768 0.31208 0.0
C712 C 0.20865 0.29898 0.2861 0.0
C713 C 0.18946 0.29471 0.25291 0.0
C714 C 0.12397 0.32843 0.21681 0.0
C715 C 0.12888 0.36189 0.22909 0.0
C716 C 0.11435 0.36627 0.2604 0.0
C717 C 0.09408 0.33723 0.28023 0.0
C718 C 0.08639 0.30313 0.26591 0.0
C719 C 0.10177 0.29884 0.23488 0.0
C720 C 0.11745 0.30245 0.97061 0.0
C721 C 0.31803 0.32122 0.2505 0.0
H722 H 0.67583 0.77468 0.9387 0.0
H723 H 0.66722 0.04471 0.24196 0.0
H724 H 0.63435 0.76845 0.15676 0.0
H725 H 0.62137 0.70822 0.13644 0.0
H726 H 0.7293 0.74754 0.1186 0.0
H727 H 0.74233 0.80863 0.13863 0.0
H728 H 0.64317 0.79722 0.08661 0.0
H729 H 0.6465 0.78019 0.0229 0.0
H730 H 0.75292 0.8664 0.02949 0.0
H731 H 0.74935 0.88286 0.09344 0.0
H732 H 0.62726 0.84665 0.10636 0.0
H733 H 0.5982 0.87478 0.07569 0.0
H734 H 0.6945 0.97555 0.09179 0.0
H735 H 0.72363 0.94646 0.12175 0.0
H736 H 0.62514 0.87733 0.19019 0.0
H737 H 0.60743 0.92075 0.20902 0.0
H738 H 0.71486 0.00469 0.21513 0.0
H739 H 0.73214 0.96091 0.19601 0.0
H740 H 0.64079 0.84383 0.25267 0.0
H741 H 0.63933 0.86809 0.31253 0.0
H742 H 0.74019 0.95814 0.30355 0.0
H743 H 0.74586 0.92799 0.24841 0.0
H744 H 0.63787 0.79578 0.2329 0.0
H745 H 0.63289 0.75742 0.28075 0.0
H746 H 0.72989 0.76443 0.25624 0.0
H747 H 0.73937 0.81144 0.21581 0.0
O748 O 0.67487 0.7823 0.96372 0.0
O749 O 0.72896 0.82796 0.96796 0.0
O750 O 0.61859 0.98312 0.22883 0.0
O751 O 0.67353 0.02715 0.23385 0.0
C752 C 0.69559 0.82847 0.16094 0.0
C753 C 0.69498 0.85031 0.13403 0.0
C754 C 0.69052 0.87948 0.1442 0.0
C755 C 0.69018 0.88893 0.18156 0.0
C756 C 0.69406 0.86898 0.20893 0.0
C757 C 0.69495 0.83738 0.1985 0.0
C758 C 0.6892 0.79258 0.14908 0.0
C759 C 0.65526 0.76407 0.14873 0.0
C760 C 0.64795 0.7299 0.13735 0.0
C761 C 0.67455 0.7238 0.12665 0.0
C762 C 0.70872 0.75207 0.12741 0.0
C763 C 0.71604 0.78665 0.13843 0.0
C764 C 0.69617 0.84101 0.09474 0.0
C765 C 0.66721 0.81232 0.07429 0.0
C766 C 0.66916 0.8027 0.03786 0.0
C767 C 0.70005 0.8218 0.02115 0.0
C768 C 0.72878 0.85104 0.04156 0.0
C769 C 0.72681 0.86055 0.07804 0.0
C770 C 0.67748 0.89457 0.11619 0.0
C771 C 0.64246 0.87446 0.10181 0.0
C772 C 0.62576 0.8908 0.08486 0.0
C773 C 0.64376 0.92767 0.08236 0.0
C774 C 0.67974 0.9472 0.09389 0.0
C775 C 0.69655 0.93064 0.11062 0.0
C776 C 0.67988 0.91602 0.19179 0.0
C777 C 0.64476 0.90515 0.19546 0.0
C778 C 0.63474 0.92998 0.20626 0.0
C779 C 0.65976 0.9662 0.2137 0.0
C780 C 0.69495 0.97702 0.20967 0.0
C781 C 0.70491 0.95212 0.19872 0.0
C782 C 0.695 0.8813 0.24781 0.0
C783 C 0.66469 0.86577 0.26587 0.0
C784 C 0.66341 0.88091 0.29971 0.0
C785 C 0.69091 0.91424 0.31446 0.0
C786 C 0.7205 0.93102 0.2954 0.0
C787 C 0.72312 0.91411 0.26311 0.0
C788 C 0.69141 0.81134 0.22541 0.0
C789 C 0.66016 0.79299 0.24138 0.0
C790 C 0.65667 0.76943 0.26732 0.0
C791 C 0.68305 0.76086 0.27518 0.0
C792 C 0.71133 0.77388 0.25396 0.0
C793 C 0.7163 0.80012 0.23037 0.0
C794 C 0.70228 0.81103 0.98268 0.0
C795 C 0.64925 0.99255 0.22586 0.0
H796 H 0.11296 0.84386 0.94319 0.0
H797 H 0.3758 0.01567 0.31499 0.0
H798 H 0.08221 0.81241 0.129 0.0
H799 H 0.04451 0.75335 0.09451 0.0
H800 H 0.1136 0.71775 0.14048 0.0
H801 H 0.15173 0.77598 0.17014 0.0
H802 H 0.14844 0.89301 0.09995 0.0
H803 H 0.13174 0.88078 0.03353 0.0
H804 H 0.15205 0.79269 0.03236 0.0
H805 H 0.16915 0.80549 0.09848 0.0
H806 H 0.23305 0.95615 0.14319 0.0
H807 H 0.28132 0.98615 0.10508 0.0
H808 H 0.27996 0.88731 0.07855 0.0
H809 H 0.23271 0.85763 0.11768 0.0
H810 H 0.22149 0.95953 0.21998 0.0
H811 H 0.2718 0.00596 0.25936 0.0
H812 H 0.32288 0.94267 0.25263 0.0
H813 H 0.27262 0.89676 0.21252 0.0
H814 H 0.18512 0.91242 0.27872 0.0
H815 H 0.21639 0.9257 0.34053 0.0
H816 H 0.25198 0.8515 0.31194 0.0
H817 H 0.2228 0.84032 0.25018 0.0
H818 H 0.09547 0.82933 0.23728 0.0
H819 H 0.06302 0.78452 0.27959 0.0
H820 H 0.1366 0.7461 0.27269 0.0
H821 H 0.16841 0.79054 0.23243 0.0
O822 O 0.1199 0.8484 0.96938 0.0
O823 O 0.13026 0.80308 0.9704 0.0
O824 O 0.33088 0.03174 0.29734 0.0
O825 O 0.35634 -0.00163 0.29813 0.0
C826 C 0.1463 0.83412 0.16859 0.0
C827 C 0.16904 0.85726 0.14451 0.0
C828 C 0.20174 0.88639 0.15862 0.0
C829 C 0.21015 0.89406 0.19709 0.0
C830 C 0.18754 0.87089 0.22117 0.0
C831 C 0.15555 0.84089 0.20709 0.0
C832 C 0.1191 0.79806 0.15322 0.0
C833 C 0.08843 0.79133 0.13197 0.0
C834 C 0.06698 0.75776 0.11247 0.0
C835 C 0.07625 0.73106 0.11452 0.0
C836 C 0.10573 0.7377 0.13783 0.0
C837 C 0.1273 0.77092 0.15589 0.0
C838 C 0.15953 0.84987 0.10411 0.0
C839 C 0.14928 0.87111 0.08525 0.0
C840 C 0.13973 0.86403 0.04734 0.0
C841 C 0.14037 0.83561 0.02764 0.0
C842 C 0.15107 0.81464 0.04666 0.0
C843 C 0.16071 0.82181 0.0845 0.0
C844 C 0.22919 0.90463 0.13335 0.0
C845 C 0.24298 0.94089 0.12906 0.0
C846 C 0.2704 0.95791 0.1072 0.0
C847 C 0.28417 0.93893 0.08887 0.0
C848 C 0.26944 0.90239 0.0919 0.0
C849 C 0.24251 0.88551 0.11433 0.0
C850 C 0.2436 0.92501 0.21317 0.0
C851 C 0.24404 0.95627 0.22611 0.0
C852 C 0.27261 0.98251 0.24899 0.0
C853 C 0.30109 0.97772 0.25963 0.0
C854 C 0.30123 0.94704 0.2452 0.0
C855 C 0.27278 0.92099 0.22193 0.0
C856 C 0.20092 0.87468 0.26032 0.0
C857 C 0.19905 0.89853 0.28623 0.0
C858 C 0.21698 0.90613 0.32135 0.0
C859 C 0.23638 0.88939 0.33111 0.0
C860 C 0.23679 0.86434 0.30552 0.0
C861 C 0.21981 0.85763 0.27028 0.0
C862 C 0.1347 0.81363 0.23205 0.0
C863 C 0.10438 0.81111 0.24513 0.0
C864 C 0.08576 0.78537 0.26907 0.0
C865 C 0.09708 0.76159 0.27985 0.0
C866 C 0.1269 0.76386 0.26554 0.0
C867 C 0.14547 0.78959 0.24241 0.0
C868 C 0.12992 0.82795 0.98744 0.0
C869 C 0.33026 0.0043 0.28615 0.0
H870 H 0.24359 0.15925 0.12637 0.0
H871 H 0.38273 0.9862 0.85298 0.0
H872 H 0.26199 0.19476 0.94029 0.0
H873 H 0.28475 0.25495 0.97228 0.0
H874 H 0.38821 0.28163 0.94519 0.0
H875 H 0.36663 0.22225 0.91867 0.0
H876 H 0.24111 0.10971 0.97381 0.0
H877 H 0.23211 0.12215 0.03698 0.0
H878 H 0.33891 0.20785 0.05487 0.0
H879 H 0.34769 0.1949 0.99201 0.0
H880 H 0.27322 0.04657 0.94988 0.0
H881 H 0.30113 0.02006 0.98683 0.0
H882 H 0.39257 0.12385 0.01242 0.0
H883 H 0.36495 0.14951 0.97494 0.0
H884 H 0.26536 0.04103 0.85851 0.0
H885 H 0.27994 0.99497 0.84023 0.0
H886 H 0.38591 0.0632 0.88914 0.0
H887 H 0.37112 0.10907 0.90672 0.0
H888 H 0.2671 0.09355 0.80358 0.0
H889 H 0.28466 0.07779 0.74622 0.0
H890 H 0.39263 0.13688 0.79183 0.0
H891 H 0.37478 0.1506 0.84914 0.0
H892 H 0.26657 0.18086 0.83651 0.0
H893 H 0.28588 0.22732 0.79363 0.0
H894 H 0.39212 0.24914 0.81787 0.0
H895 H 0.37269 0.20337 0.85945 0.0
O896 O 0.24775 0.15462 0.10158 0.0
O897 O 0.30316 0.19769 0.10963 0.0
O898 O 0.32151 0.96987 0.83478 0.0
O899 O 0.37615 0.00377 0.86007 0.0
C900 C 0.30248 0.16749 0.91283 0.0
C901 C 0.29967 0.14398 0.93953 0.0
C902 C 0.3051 0.11507 0.93051 0.0
C903 C 0.30867 0.10683 0.89375 0.0
C904 C 0.30942 0.12906 0.86661 0.0
C905 C 0.30744 0.16 0.87624 0.0
C906 C 0.31253 0.20451 0.92584 0.0
C907 C 0.28939 0.21415 0.94081 0.0
C908 C 0.30231 0.24839 0.95884 0.0
C909 C 0.33826 0.27289 0.96148 0.0
C910 C 0.36041 0.26346 0.94409 0.0
C911 C 0.34795 0.22954 0.92778 0.0
C912 C 0.29486 0.15164 0.97813 0.0
C913 C 0.26252 0.13114 0.99145 0.0
C914 C 0.25745 0.13833 0.02752 0.0
C915 C 0.28475 0.16611 0.05094 0.0
C916 C 0.3173 0.18635 0.03757 0.0
C917 C 0.32234 0.17907 0.00156 0.0
C918 C 0.31685 0.10002 0.96008 0.0
C919 C 0.29879 0.0636 0.96449 0.0
C920 C 0.31496 0.04854 0.98538 0.0
C921 C 0.3494 0.06976 0.00208 0.0
C922 C 0.36622 0.10662 0.99972 0.0
C923 C 0.35018 0.12151 0.97878 0.0
C924 C 0.31702 0.07813 0.88438 0.0
C925 C 0.29161 0.04582 0.86546 0.0
C926 C 0.30005 0.01963 0.85499 0.0
C927 C 0.33411 0.0254 0.86327 0.0
C928 C 0.35944 0.05783 0.88239 0.0
C929 C 0.351 0.084 0.89268 0.0
C930 C 0.31974 0.12372 0.83014 0.0
C931 C 0.29452 0.10358 0.80073 0.0
C932 C 0.30458 0.09463 0.76817 0.0
C933 C 0.34002 0.1064 0.76457 0.0
C934 C 0.36522 0.12797 0.79355 0.0
C935 C 0.35509 0.13595 0.82627 0.0
C936 C 0.31806 0.18801 0.85032 0.0
C937 C 0.29393 0.19574 0.83227 0.0
C938 C 0.30507 0.22244 0.80808 0.0
C939 C 0.34056 0.24189 0.80206 0.0
C940 C 0.36456 0.23464 0.82134 0.0
C941 C 0.35341 0.20803 0.84493 0.0
C942 C 0.27925 0.17386 0.08915 0.0
C943 C 0.34339 -0.00208 0.8518 0.0
H944 H 0.84263 0.21827 0.15327 0.0
H945 H 0.64812 0.93112 0.8136 0.0
H946 H 0.85054 0.22832 0.94787 0.0
H947 H 0.89857 0.2858 0.97447 0.0
H948 H 0.96821 0.24237 0.97804 0.0
H949 H 0.91906 0.18369 0.9534 0.0
H950 H 0.79686 0.17905 0.99616 0.0
H951 H 0.80882 0.19882 0.0619 0.0
H952 H 0.88348 0.16159 0.07207 0.0
H953 H 0.87104 0.14169 0.00633 0.0
H954 H 0.73415 0.12147 0.9385 0.0
H955 H 0.68453 0.0911 0.97452 0.0
H956 H 0.73926 0.04709 0.03461 0.0
H957 H 0.78893 0.07704 0.99786 0.0
H958 H 0.73239 0.10553 0.86399 0.0
H959 H 0.68273 0.05324 0.82995 0.0
H960 H 0.72156 0.98671 0.87309 0.0
H961 H 0.77083 0.03917 0.90733 0.0
H962 H 0.79311 0.15864 0.82798 0.0
H963 H 0.76852 0.13566 0.7657 0.0
H964 H 0.77166 0.04001 0.7844 0.0
H965 H 0.80648 0.06804 0.84319 0.0
H966 H 0.83774 0.20577 0.85353 0.0
H967 H 0.8746 0.24116 0.80851 0.0
H968 H 0.95486 0.21938 0.84996 0.0
H969 H 0.91324 0.17489 0.88715 0.0
O970 O 0.83805 0.20995 0.12741 0.0
O971 O 0.87606 0.19025 0.13118 0.0
O972 O 0.64687 0.98705 0.80821 0.0
O973 O 0.66712 0.95209 0.82736 0.0
C974 C 0.85165 0.16773 0.93309 0.0
C975 C 0.8263 0.14752 0.95656 0.0
C976 C 0.79405 0.11846 0.94168 0.0
C977 C 0.78821 0.10816 0.90358 0.0
C978 C 0.81366 0.12815 0.87985 0.0
C979 C 0.84531 0.15887 0.89457 0.0
C980 C 0.88157 0.20218 0.94837 0.0
C981 C 0.8761 0.23114 0.95449 0.0
C982 C 0.90342 0.26376 0.96961 0.0
C983 C 0.93678 0.26812 0.97792 0.0
C984 C 0.9426 0.23936 0.97139 0.0
C985 C 0.91477 0.20616 0.95734 0.0
C986 C 0.83286 0.15866 0.99663 0.0
C987 C 0.81555 0.17491 0.01273 0.0
C988 C 0.82254 0.1863 0.05024 0.0
C989 C 0.84709 0.18176 0.07227 0.0
C990 C 0.86439 0.16545 0.05593 0.0
C991 C 0.85733 0.15404 0.01842 0.0
C992 C 0.765 0.1011 0.96519 0.0
C993 C 0.73559 0.10542 0.95952 0.0
C994 C 0.70752 0.08853 0.98036 0.0
C995 C 0.70859 0.06745 0.00758 0.0
C996 C 0.73833 0.06384 0.01414 0.0
C997 C 0.76644 0.08061 0.99303 0.0
C998 C 0.75517 0.07609 0.88806 0.0
C999 C 0.72975 0.07955 0.86654 0.0
C1000 C 0.70163 0.0497 0.84687 0.0
C1001 C 0.69852 0.01588 0.84836 0.0
C1002 C 0.72341 0.01241 0.87102 0.0
C1003 C 0.75132 0.04224 0.89098 0.0
C1004 C 0.80505 0.11707 0.83961 0.0
C1005 C 0.79348 0.13524 0.81718 0.0
C1006 C 0.77782 0.12104 0.78167 0.0
C1007 C 0.76982 0.0865 0.76889 0.0
C1008 C 0.78053 0.06774 0.7915 0.0
C1009 C 0.79941 0.08349 0.82585 0.0
C1010 C 0.87043 0.18371 0.87016 0.0
C1011 C 0.86152 0.20516 0.84993 0.0
C1012 C 0.88348 0.22668 0.82524 0.0
C1013 C 0.91668 0.23022 0.82278 0.0
C1014 C 0.92812 0.21381 0.84792 0.0
C1015 C 0.90464 0.18934 0.87008 0.0
C1016 C 0.85469 0.19417 0.11205 0.0
C1017 C 0.6693 0.98426 0.82666 0.0
H1018 H 0.88377 0.66742 0.16661 0.0
H1019 H 0.63868 0.68095 0.83474 0.0
H1020 H 0.92361 0.71627 0.94828 0.0
H1021 H 0.97126 0.71013 0.97978 0.0
H1022 H 0.89757 0.60183 0.9965 0.0
H1023 H 0.85096 0.60716 0.96309 0.0
H1024 H 0.87705 0.71182 0.01959 0.0
H1025 H 0.88777 0.70345 0.08374 0.0
H1026 H 0.80549 0.59383 0.06481 0.0
H1027 H 0.79547 0.60239 0.00064 0.0
H1028 H 0.7936 0.70207 0.01394 0.0
H1029 H 0.74731 0.68112 0.05556 0.0
H1030 H 0.69396 0.57877 0.99187 0.0
H1031 H 0.7397 0.60015 0.94996 0.0
H1032 H 0.78575 0.72768 0.94033 0.0
H1033 H 0.74066 0.74098 0.9172 0.0
H1034 H 0.68936 0.64074 0.84926 0.0
H1035 H 0.73484 0.62777 0.87263 0.0
H1036 H 0.80975 0.72877 0.86485 0.0
H1037 H 0.77493 0.72176 0.80767 0.0
H1038 H 0.77785 0.62702 0.7729 0.0
H1039 H 0.80464 0.62885 0.83354 0.0
H1040 H 0.89289 0.72626 0.86518 0.0
H1041 H 0.92098 0.71917 0.81178 0.0
H1042 H 0.87915 0.60813 0.82724 0.0
H1043 H 0.85286 0.61559 0.88107 0.0
O1044 O 0.87916 0.67014 0.14114 0.0
O1045 O 0.83615 0.61418 0.13013 0.0
O1046 O 0.68707 0.72928 0.87537 0.0
O1047 O 0.65698 0.67622 0.8436 0.0
C1048 C 0.85368 0.66718 0.94153 0.0
C1049 C 0.82911 0.66318 0.96661 0.0
C1050 C 0.79855 0.66397 0.9547 0.0
C1051 C 0.79381 0.67181 0.91867 0.0
C1052 C 0.81826 0.67594 0.8932 0.0
C1053 C 0.84802 0.67294 0.90459 0.0
C1054 C 0.88369 0.66234 0.95403 0.0
C1055 C 0.91803 0.69098 0.95788 0.0
C1056 C 0.94505 0.68759 0.9761 0.0
C1057 C 0.93762 0.65587 0.99136 0.0
C1058 C 0.90367 0.62682 0.9857 0.0
C1059 C 0.87713 0.62979 0.9665 0.0
C1060 C 0.83526 0.65785 0.00559 0.0
C1061 C 0.86138 0.68604 0.02939 0.0
C1062 C 0.86742 0.68118 0.066 0.0
C1063 C 0.84739 0.648 0.07945 0.0
C1064 C 0.8213 0.61975 0.0554 0.0
C1065 C 0.81538 0.62463 0.01879 0.0
C1066 C 0.7698 0.65272 0.9788 0.0
C1067 C 0.77174 0.67528 0.00886 0.0
C1068 C 0.7455 0.6632 0.03268 0.0
C1069 C 0.71732 0.62819 0.02711 0.0
C1070 C 0.71561 0.60568 0.99707 0.0
C1071 C 0.74144 0.61798 0.97291 0.0
C1072 C 0.76358 0.67684 0.90807 0.0
C1073 C 0.76448 0.70839 0.92085 0.0
C1074 C 0.73893 0.71611 0.90727 0.0
C1075 C 0.71166 0.69211 0.88104 0.0
C1076 C 0.71014 0.65988 0.86926 0.0
C1077 C 0.73588 0.65225 0.88276 0.0
C1078 C 0.80999 0.67932 0.85386 0.0
C1079 C 0.80378 0.70693 0.84459 0.0
C1080 C 0.78522 0.70397 0.81103 0.0
C1081 C 0.77687 0.67616 0.78394 0.0
C1082 C 0.78577 0.65007 0.79216 0.0
C1083 C 0.80148 0.65123 0.82694 0.0
C1084 C 0.87054 0.67133 0.87685 0.0
C1085 C 0.89068 0.70068 0.85755 0.0
C1086 C 0.90647 0.6966 0.82696 0.0
C1087 C 0.90122 0.66291 0.81462 0.0
C1088 C 0.88314 0.63432 0.83566 0.0
C1089 C 0.86826 0.63857 0.86661 0.0
C1090 C 0.85378 0.64295 0.11838 0.0
C1091 C 0.68466 0.70049 0.86645 0.0
H1092 H 0.77828 0.65975 0.25974 0.0
H1093 H 0.00163 0.62201 0.60032 0.0
H1094 H 0.81547 0.72607 0.48537 0.0
H1095 H 0.7828 0.74593 0.44682 0.0
H1096 H 0.70661 0.6366 0.41082 0.0
H1097 H 0.73976 0.61685 0.45024 0.0
H1098 H 0.83648 0.70794 0.4134 0.0
H1099 H 0.8172 0.69852 0.3477 0.0
H1100 H 0.77511 0.58535 0.35092 0.0
H1101 H 0.79481 0.59517 0.41657 0.0
H1102 H 0.89835 0.7173 0.43939 0.0
H1103 H 0.94563 0.72854 0.40097 0.0
H1104 H 0.92664 0.62178 0.40992 0.0
H1105 H 0.87769 0.60979 0.44602 0.0
H1106 H 0.9252 0.71386 0.54437 0.0
H1107 H 0.97493 0.71282 0.57686 0.0
H1108 H 0.92809 0.60067 0.54205 0.0
H1109 H 0.87875 0.60207 0.50985 0.0
H1110 H 0.85895 0.70883 0.59213 0.0
H1111 H 0.88451 0.71192 0.65427 0.0
H1112 H 0.88493 0.6151 0.62364 0.0
H1113 H 0.84808 0.60525 0.56763 0.0
H1114 H 0.8125 0.71876 0.54995 0.0
H1115 H 0.7866 0.72655 0.60367 0.0
H1116 H 0.73545 0.6136 0.61286 0.0
H1117 H 0.76312 0.60612 0.55926 0.0
O1118 O 0.7863 0.66299 0.2856 0.0
O1119 O 0.76729 0.60534 0.28839 0.0
O1120 O 0.00861 0.68209 0.59957 0.0
O1121 O 0.98307 0.62355 0.58651 0.0
C1122 C 0.80553 0.66003 0.48499 0.0
C1123 C 0.82733 0.6572 0.45972 0.0
C1124 C 0.85837 0.65766 0.47233 0.0
C1125 C 0.86579 0.65732 0.51029 0.0
C1126 C 0.84239 0.65707 0.53552 0.0
C1127 C 0.81246 0.65913 0.52305 0.0
C1128 C 0.77965 0.67004 0.47119 0.0
C1129 C 0.79085 0.70633 0.47062 0.0
C1130 C 0.77251 0.71762 0.44788 0.0
C1131 C 0.74258 0.69282 0.42513 0.0
C1132 C 0.72972 0.65631 0.4279 0.0
C1133 C 0.74834 0.64497 0.45067 0.0
C1134 C 0.81687 0.65221 0.41965 0.0
C1135 C 0.82313 0.68117 0.39982 0.0
C1136 C 0.81197 0.67569 0.3623 0.0
C1137 C 0.79431 0.64116 0.34405 0.0
C1138 C 0.78853 0.61228 0.36409 0.0
C1139 C 0.79979 0.6178 0.40155 0.0
C1140 C 0.88493 0.66293 0.44634 0.0
C1141 C 0.90381 0.69603 0.43236 0.0
C1142 C 0.93072 0.70241 0.41032 0.0
C1143 C 0.93983 0.67608 0.40268 0.0
C1144 C 0.92021 0.64259 0.41561 0.0
C1145 C 0.89256 0.63586 0.43663 0.0
C1146 C 0.89861 0.65819 0.52425 0.0
C1147 C 0.92618 0.68933 0.54307 0.0
C1148 C 0.95435 0.68857 0.56189 0.0
C1149 C 0.95522 0.65653 0.56239 0.0
C1150 C 0.92815 0.62572 0.54239 0.0
C1151 C 0.90021 0.62659 0.52337 0.0
C1152 C 0.85085 0.65637 0.5753 0.0
C1153 C 0.86083 0.68619 0.60044 0.0
C1154 C 0.87608 0.68822 0.63581 0.0
C1155 C 0.88373 0.66163 0.64554 0.0
C1156 C 0.87475 0.63284 0.61966 0.0
C1157 C 0.85551 0.62849 0.58647 0.0
C1158 C 0.78986 0.66191 0.55035 0.0
C1159 C 0.79498 0.69543 0.56272 0.0
C1160 C 0.78044 0.69985 0.594 0.0
C1161 C 0.75995 0.67079 0.6137 0.0
C1162 C 0.75205 0.63665 0.59926 0.0
C1163 C 0.76746 0.63232 0.56827 0.0
C1164 C 0.78182 0.63529 0.30435 0.0
C1165 C 0.98391 0.65497 0.58404 0.0
H1166 H 0.33896 0.10475 0.27228 0.0
H1167 H 0.33347 0.37724 0.57481 0.0
H1168 H 0.30082 0.09987 0.49184 0.0
H1169 H 0.28857 0.03983 0.47181 0.0
H1170 H 0.39592 0.08076 0.45059 0.0
H1171 H 0.40827 0.14162 0.4706 0.0
H1172 H 0.3083 0.12835 0.42086 0.0
H1173 H 0.31082 0.11078 0.35706 0.0
H1174 H 0.41671 0.1977 0.36163 0.0
H1175 H 0.41396 0.21471 0.42566 0.0
H1176 H 0.29267 0.17879 0.43977 0.0
H1177 H 0.26386 0.20709 0.40895 0.0
H1178 H 0.36052 0.30752 0.42463 0.0
H1179 H 0.38938 0.27827 0.45477 0.0
H1180 H 0.291 0.20964 0.52368 0.0
H1181 H 0.27345 0.25319 0.54243 0.0
H1182 H 0.38091 0.33698 0.54804 0.0
H1183 H 0.39803 0.29305 0.52899 0.0
H1184 H 0.3069 0.17627 0.58614 0.0
H1185 H 0.30564 0.20058 0.64607 0.0
H1186 H 0.40648 0.29058 0.63682 0.0
H1187 H 0.41193 0.26039 0.58154 0.0
H1188 H 0.30424 0.12822 0.56685 0.0
H1189 H 0.29965 0.09001 0.6147 0.0
H1190 H 0.39658 0.0972 0.58955 0.0
H1191 H 0.40566 0.14403 0.54901 0.0
O1192 O 0.3383 0.11258 0.29732 0.0
O1193 O 0.39215 0.15855 0.30055 0.0
O1194 O 0.28476 0.31565 0.56206 0.0
O1195 O 0.33972 0.35963 0.56675 0.0
C1196 C 0.36136 0.16056 0.49433 0.0
C1197 C 0.3604 0.18218 0.46732 0.0
C1198 C 0.35604 0.21142 0.47745 0.0
C1199 C 0.35596 0.22107 0.51482 0.0
C1200 C 0.36001 0.20127 0.54224 0.0
C1201 C 0.36095 0.16968 0.5319 0.0
C1202 C 0.35537 0.12479 0.48265 0.0
C1203 C 0.3218 0.09589 0.48322 0.0
C1204 C 0.3149 0.06183 0.47201 0.0
C1205 C 0.34153 0.05623 0.46039 0.0
C1206 C 0.37535 0.08491 0.46015 0.0
C1207 C 0.38226 0.11935 0.47115 0.0
C1208 C 0.36111 0.17255 0.42798 0.0
C1209 C 0.33204 0.14349 0.40807 0.0
C1210 C 0.33354 0.13356 0.37159 0.0
C1211 C 0.36405 0.1527 0.35429 0.0
C1212 C 0.39286 0.1823 0.37416 0.0
C1213 C 0.39135 0.19213 0.41069 0.0
C1214 C 0.34303 0.22654 0.44943 0.0
C1215 C 0.30799 0.20655 0.43512 0.0
C1216 C 0.29143 0.22299 0.41806 0.0
C1217 C 0.30962 0.25983 0.41538 0.0
C1218 C 0.34562 0.27921 0.42687 0.0
C1219 C 0.36227 0.26255 0.44371 0.0
C1220 C 0.34575 0.24823 0.52503 0.0
C1221 C 0.31066 0.23745 0.52882 0.0
C1222 C 0.30074 0.26236 0.53958 0.0
C1223 C 0.3258 0.29858 0.54686 0.0
C1224 C 0.36096 0.30931 0.54271 0.0
C1225 C 0.37082 0.28433 0.5318 0.0
C1226 C 0.36108 0.21371 0.58111 0.0
C1227 C 0.33084 0.19822 0.59928 0.0
C1228 C 0.32968 0.21339 0.63316 0.0
C1229 C 0.35722 0.24671 0.64786 0.0
C1230 C 0.38675 0.26346 0.62868 0.0
C1231 C 0.38924 0.24654 0.59633 0.0
C1232 C 0.35772 0.14385 0.55894 0.0
C1233 C 0.32661 0.12552 0.57517 0.0
C1234 C 0.32333 0.10203 0.60111 0.0
C1235 C 0.34979 0.09352 0.60877 0.0
C1236 C 0.37795 0.10657 0.58737 0.0
C1237 C 0.3827 0.13272 0.56375 0.0
C1238 C 0.3658 0.14161 0.31578 0.0
C1239 C 0.31539 0.32502 0.55895 0.0
H1240 H 0.78021 0.17884 0.27624 0.0
H1241 H 0.04305 0.34944 0.64814 0.0
H1242 H 0.74904 0.14604 0.46244 0.0
H1243 H 0.71127 0.08666 0.42859 0.0
H1244 H 0.78169 0.05225 0.47363 0.0
H1245 H 0.81977 0.11075 0.50265 0.0
H1246 H 0.81556 0.22744 0.43312 0.0
H1247 H 0.79889 0.21543 0.3667 0.0
H1248 H 0.8193 0.12739 0.36508 0.0
H1249 H 0.8364 0.14 0.43121 0.0
H1250 H 0.90044 0.29063 0.47652 0.0
H1251 H 0.94881 0.32072 0.43854 0.0
H1252 H 0.94713 0.2218 0.41146 0.0
H1253 H 0.89981 0.19204 0.45048 0.0
H1254 H 0.88873 0.29375 0.55336 0.0
H1255 H 0.93909 0.34004 0.59281 0.0
H1256 H 0.99009 0.27671 0.5855 0.0
H1257 H 0.93979 0.23096 0.54531 0.0
H1258 H 0.85225 0.24635 0.61192 0.0
H1259 H 0.88343 0.25933 0.67373 0.0
H1260 H 0.91915 0.18535 0.64463 0.0
H1261 H 0.89005 0.17446 0.58286 0.0
H1262 H 0.76269 0.16345 0.57037 0.0
H1263 H 0.7303 0.11853 0.6126 0.0
H1264 H 0.80386 0.08013 0.60528 0.0
H1265 H 0.83561 0.12467 0.56509 0.0
O1266 O 0.78712 0.18328 0.30244 0.0
O1267 O 0.79757 0.138 0.30323 0.0
O1268 O 0.99821 0.36566 0.63069 0.0
O1269 O 0.02358 0.33222 0.63124 0.0
C1270 C 0.81353 0.16839 0.50152 0.0
C1271 C 0.83625 0.19162 0.47748 0.0
C1272 C 0.86893 0.22075 0.49163 0.0
C1273 C 0.87733 0.22833 0.53011 0.0
C1274 C 0.85473 0.2051 0.55414 0.0
C1275 C 0.82274 0.17512 0.54002 0.0
C1276 C 0.78655 0.13227 0.48614 0.0
C1277 C 0.75557 0.12516 0.4653 0.0
C1278 C 0.73407 0.09141 0.44618 0.0
C1279 C 0.74362 0.0649 0.44819 0.0
C1280 C 0.77354 0.072 0.47101 0.0
C1281 C 0.79512 0.10538 0.48868 0.0
C1282 C 0.8267 0.18431 0.43707 0.0
C1283 C 0.81642 0.20559 0.41833 0.0
C1284 C 0.80689 0.19864 0.38041 0.0
C1285 C 0.80757 0.1703 0.36059 0.0
C1286 C 0.81829 0.14928 0.37949 0.0
C1287 C 0.82791 0.15633 0.41734 0.0
C1288 C 0.8964 0.23906 0.46639 0.0
C1289 C 0.91032 0.27537 0.46229 0.0
C1290 C 0.93779 0.29245 0.44051 0.0
C1291 C 0.95151 0.27347 0.42206 0.0
C1292 C 0.93666 0.23688 0.4249 0.0
C1293 C 0.90968 0.21995 0.44726 0.0
C1294 C 0.91081 0.25924 0.54625 0.0
C1295 C 0.91127 0.29046 0.55937 0.0
C1296 C 0.93987 0.31662 0.58229 0.0
C1297 C 0.96834 0.31177 0.59279 0.0
C1298 C 0.96844 0.28112 0.57818 0.0
C1299 C 0.93997 0.25516 0.55486 0.0
C1300 C 0.86812 0.20875 0.59325 0.0
C1301 C 0.86619 0.23245 0.61931 0.0
C1302 C 0.88407 0.23987 0.65443 0.0
C1303 C 0.90347 0.2231 0.66405 0.0
C1304 C 0.90394 0.1982 0.63831 0.0
C1305 C 0.88702 0.19166 0.60307 0.0
C1306 C 0.80191 0.14777 0.56492 0.0
C1307 C 0.77161 0.14521 0.5781 0.0
C1308 C 0.75301 0.1194 0.602 0.0
C1309 C 0.76436 0.0956 0.61265 0.0
C1310 C 0.79415 0.09791 0.59823 0.0
C1311 C 0.81268 0.12369 0.57514 0.0
C1312 C 0.79716 0.16278 0.32038 0.0
C1313 C 0.99753 0.33824 0.61936 0.0
H1314 H 0.91514 0.49632 0.46033 0.0
H1315 H 0.05044 0.32034 0.18625 0.0
H1316 H 0.92908 0.52767 0.27401 0.0
H1317 H 0.9509 0.58745 0.30657 0.0
H1318 H 0.05419 0.61745 0.2764 0.0
H1319 H 0.03379 0.55839 0.24957 0.0
H1320 H 0.91033 0.44481 0.30787 0.0
H1321 H 0.90233 0.45799 0.37123 0.0
H1322 H 0.00891 0.54428 0.38677 0.0
H1323 H 0.01668 0.53064 0.32372 0.0
H1324 H 0.94141 0.38163 0.28308 0.0
H1325 H 0.96902 0.35499 0.32024 0.0
H1326 H 0.06089 0.45851 0.34546 0.0
H1327 H 0.03354 0.48432 0.30778 0.0
H1328 H 0.93349 0.37573 0.19157 0.0
H1329 H 0.94788 0.32952 0.17339 0.0
H1330 H 0.05392 0.39755 0.22222 0.0
H1331 H 0.03931 0.44359 0.2397 0.0
H1332 H 0.93489 0.42805 0.13652 0.0
H1333 H 0.95213 0.412 0.07907 0.0
H1334 H 0.06023 0.47066 0.12433 0.0
H1335 H 0.0427 0.48467 0.18172 0.0
H1336 H 0.9342 0.51523 0.16947 0.0
H1337 H 0.95313 0.56146 0.12634 0.0
H1338 H 0.0594 0.58295 0.14924 0.0
H1339 H 0.04036 0.53748 0.19115 0.0
O1340 O 0.91889 0.49138 0.43545 0.0
O1341 O 0.97423 0.53465 0.44232 0.0
O1342 O 0.9893 0.30423 0.16797 0.0
O1343 O 0.04394 0.33799 0.1933 0.0
C1344 C 0.9705 0.50212 0.24541 0.0
C1345 C 0.96814 0.47894 0.27234 0.0
C1346 C 0.97358 0.45002 0.26344 0.0
C1347 C 0.97694 0.44154 0.22668 0.0
C1348 C 0.97749 0.46356 0.1994 0.0
C1349 C 0.97538 0.49446 0.20883 0.0
C1350 C 0.97965 0.539 0.25808 0.0
C1351 C 0.9562 0.54769 0.27392 0.0
C1352 C 0.96857 0.5817 0.29227 0.0
C1353 C 0.00425 0.60695 0.29428 0.0
C1354 C 0.02659 0.5986 0.27578 0.0
C1355 C 0.01475 0.56488 0.25924 0.0
C1356 C 0.96389 0.487 0.31102 0.0
C1357 C 0.9319 0.46653 0.32504 0.0
C1358 C 0.92741 0.47415 0.36121 0.0
C1359 C 0.95495 0.50231 0.38403 0.0
C1360 C 0.98713 0.52251 0.36995 0.0
C1361 C 0.99159 0.51482 0.33384 0.0
C1362 C 0.98526 0.43497 0.29306 0.0
C1363 C 0.96702 0.39859 0.29764 0.0
C1364 C 0.98301 0.38345 0.31866 0.0
C1365 C 0.01748 0.40454 0.33533 0.0
C1366 C 0.03451 0.44138 0.3328 0.0
C1367 C 0.01863 0.45635 0.31172 0.0
C1368 C 0.98519 0.41275 0.21741 0.0
C1369 C 0.95971 0.38044 0.19853 0.0
C1370 C 0.96804 0.35417 0.18812 0.0
C1371 C 0.00207 0.35983 0.1964 0.0
C1372 C 0.02747 0.39226 0.21548 0.0
C1373 C 0.01913 0.41852 0.22571 0.0
C1374 C 0.98761 0.45799 0.16291 0.0
C1375 C 0.96227 0.4379 0.13358 0.0
C1376 C 0.97215 0.4288 0.10097 0.0
C1377 C 0.00753 0.44038 0.09724 0.0
C1378 C 0.03286 0.46189 0.12615 0.0
C1379 C 0.02291 0.47002 0.15891 0.0
C1380 C 0.98572 0.52224 0.18266 0.0
C1381 C 0.96148 0.52997 0.16487 0.0
C1382 C 0.97241 0.55653 0.14053 0.0
C1383 C 0.00779 0.57585 0.13407 0.0
C1384 C 0.0319 0.56856 0.15303 0.0
C1385 C 0.02097 0.54208 0.17678 0.0
C1386 C 0.95008 0.51052 0.42236 0.0
C1387 C 0.01124 0.33226 0.18499 0.0
H1388 H 0.50848 0.55187 0.48631 0.0
H1389 H 0.31556 0.26329 0.14766 0.0
H1390 H 0.51645 0.56142 0.28111 0.0
H1391 H 0.56422 0.61904 0.30777 0.0
H1392 H 0.6344 0.57625 0.31152 0.0
H1393 H 0.5855 0.51743 0.28686 0.0
H1394 H 0.46282 0.51191 0.32924 0.0
H1395 H 0.47465 0.53188 0.39493 0.0
H1396 H 0.54993 0.49547 0.40553 0.0
H1397 H 0.5376 0.47536 0.33983 0.0
H1398 H 0.40042 0.45396 0.27153 0.0
H1399 H 0.35077 0.42332 0.30744 0.0
H1400 H 0.40598 0.38003 0.36793 0.0
H1401 H 0.4557 0.41025 0.33129 0.0
H1402 H 0.39883 0.43789 0.19698 0.0
H1403 H 0.34942 0.38527 0.16307 0.0
H1404 H 0.3889 0.31955 0.20695 0.0
H1405 H 0.43794 0.37233 0.24102 0.0
H1406 H 0.45945 0.49154 0.16124 0.0
H1407 H 0.43486 0.46841 0.09899 0.0
H1408 H 0.43852 0.37307 0.11789 0.0
H1409 H 0.47342 0.40132 0.17659 0.0
H1410 H 0.50382 0.53884 0.18683 0.0
H1411 H 0.54064 0.57448 0.14192 0.0
H1412 H 0.62133 0.5534 0.18354 0.0
H1413 H 0.57982 0.50867 0.22061 0.0
O1414 O 0.50393 0.54345 0.46047 0.0
O1415 O 0.54225 0.52415 0.46447 0.0
O1416 O 0.31399 0.31899 0.1416 0.0
O1417 O 0.33447 0.2844 0.16134 0.0
C1418 C 0.51799 0.50104 0.26643 0.0
C1419 C 0.49269 0.48072 0.28987 0.0
C1420 C 0.46058 0.45147 0.27498 0.0
C1421 C 0.45483 0.44114 0.23689 0.0
C1422 C 0.48023 0.46128 0.21318 0.0
C1423 C 0.51173 0.49216 0.22791 0.0
C1424 C 0.54776 0.5356 0.28171 0.0
C1425 C 0.54207 0.56442 0.28779 0.0
C1426 C 0.56924 0.59712 0.30294 0.0
C1427 C 0.60268 0.60169 0.31131 0.0
C1428 C 0.60872 0.57308 0.30483 0.0
C1429 C 0.58104 0.53979 0.29075 0.0
C1430 C 0.49913 0.49191 0.32993 0.0
C1431 C 0.48161 0.50799 0.34589 0.0
C1432 C 0.48853 0.5195 0.38338 0.0
C1433 C 0.51322 0.51525 0.4055 0.0
C1434 C 0.53073 0.4991 0.3893 0.0
C1435 C 0.52374 0.48757 0.35182 0.0
C1436 C 0.43151 0.43397 0.29843 0.0
C1437 C 0.40195 0.43801 0.29261 0.0
C1438 C 0.37386 0.42095 0.31337 0.0
C1439 C 0.37506 0.39999 0.34067 0.0
C1440 C 0.40494 0.39668 0.34739 0.0
C1441 C 0.43308 0.41361 0.32635 0.0
C1442 C 0.42194 0.40887 0.22138 0.0
C1443 C 0.3964 0.41201 0.1997 0.0
C1444 C 0.36842 0.38198 0.18011 0.0
C1445 C 0.36555 0.34829 0.18186 0.0
C1446 C 0.39056 0.34514 0.20468 0.0
C1447 C 0.41834 0.37516 0.22454 0.0
C1448 C 0.47169 0.45018 0.17294 0.0
C1449 C 0.45996 0.46821 0.15047 0.0
C1450 C 0.44428 0.45391 0.11498 0.0
C1451 C 0.43643 0.4194 0.10228 0.0
C1452 C 0.44731 0.40079 0.12492 0.0
C1453 C 0.46622 0.41667 0.15922 0.0
C1454 C 0.53679 0.51711 0.20352 0.0
C1455 C 0.5277 0.53843 0.18328 0.0
C1456 C 0.54964 0.5601 0.15866 0.0
C1457 C 0.58295 0.56391 0.15628 0.0
C1458 C 0.59452 0.54762 0.18143 0.0
C1459 C 0.5711 0.52301 0.20352 0.0
C1460 C 0.52076 0.52781 0.44525 0.0
C1461 C 0.33647 0.31646 0.16028 0.0
H1462 H 0.54999 -0.00275 0.49949 0.0
H1463 H 0.30545 0.01338 0.1684 0.0
H1464 H 0.59013 0.04915 0.28208 0.0
H1465 H 0.63801 0.04359 0.31389 0.0
H1466 H 0.56521 0.93469 0.32946 0.0
H1467 H 0.51839 0.9395 0.29578 0.0
H1468 H 0.54346 0.0433 0.35328 0.0
H1469 H 0.55406 0.03425 0.41721 0.0
H1470 H 0.47203 0.92459 0.39707 0.0
H1471 H 0.46213 0.93385 0.33313 0.0
H1472 H 0.46056 0.03387 0.34747 0.0
H1473 H 0.41443 0.01304 0.38925 0.0
H1474 H 0.36048 0.91084 0.32531 0.0
H1475 H 0.4061 0.93211 0.28325 0.0
H1476 H 0.45243 0.05961 0.27391 0.0
H1477 H 0.40741 0.07306 0.25093 0.0
H1478 H 0.35601 0.97299 0.18268 0.0
H1479 H 0.40143 0.95988 0.2059 0.0
H1480 H 0.47625 0.06084 0.19825 0.0
H1481 H 0.44156 0.05391 0.141 0.0
H1482 H 0.44474 0.95933 0.10611 0.0
H1483 H 0.47145 0.96108 0.16679 0.0
H1484 H 0.55973 0.05882 0.1988 0.0
H1485 H 0.5882 0.05213 0.14556 0.0
H1486 H 0.54636 0.94095 0.16034 0.0
H1487 H 0.51977 0.94804 0.21406 0.0
O1488 O 0.54542 0.00025 0.4741 0.0
O1489 O 0.50253 0.94429 0.46248 0.0
O1490 O 0.35385 0.06154 0.20917 0.0
O1491 O 0.32373 0.00859 0.17721 0.0
C1492 C 0.52043 -0.00063 0.27477 0.0
C1493 C 0.49576 0.99506 0.29983 0.0
C1494 C 0.46516 0.99581 0.28799 0.0
C1495 C 0.46041 0.00376 0.252 0.0
C1496 C 0.4849 0.00804 0.22651 0.0
C1497 C 0.51476 0.0052 0.23787 0.0
C1498 C 0.55065 0.99489 0.28725 0.0
C1499 C 0.58482 0.02386 0.29148 0.0
C1500 C 0.61196 0.02079 0.30986 0.0
C1501 C 0.6048 0.98905 0.3249 0.0
C1502 C 0.57107 0.95968 0.31882 0.0
C1503 C 0.54442 0.96235 0.29946 0.0
C1504 C 0.50181 0.98937 0.3387 0.0
C1505 C 0.52781 0.01737 0.36277 0.0
C1506 C 0.53379 0.01211 0.39925 0.0
C1507 C 0.5138 0.97872 0.4123 0.0
C1508 C 0.4878 0.95067 0.38798 0.0
C1509 C 0.48195 0.95594 0.3515 0.0
C1510 C 0.43648 0.9846 0.31218 0.0
C1511 C 0.43862 0.00713 0.34238 0.0
C1512 C 0.41245 0.99512 0.36629 0.0
C1513 C 0.38413 0.96019 0.36069 0.0
C1514 C 0.38224 0.93768 0.33054 0.0
C1515 C 0.40799 0.94993 0.30628 0.0
C1516 C 0.43021 0.00885 0.2415 0.0
C1517 C 0.43115 0.04039 0.2544 0.0
C1518 C 0.40564 0.04819 0.24089 0.0
C1519 C 0.37836 0.02429 0.21463 0.0
C1520 C 0.3768 0.99206 0.20272 0.0
C1521 C 0.4025 0.98435 0.21614 0.0
C1522 C 0.47662 0.01146 0.18719 0.0
C1523 C 0.47035 0.03904 0.17796 0.0
C1524 C 0.45187 0.03612 0.14437 0.0
C1525 C 0.44361 0.00838 0.11723 0.0
C1526 C 0.45256 0.98231 0.12542 0.0
C1527 C 0.46823 0.98344 0.16022 0.0
C1528 C 0.53737 0.0038 0.21013 0.0
C1529 C 0.55758 0.03329 0.19104 0.0
C1530 C 0.57358 0.02943 0.16053 0.0
C1531 C 0.56843 0.99582 0.14801 0.0
C1532 C 0.55027 0.96709 0.16886 0.0
C1533 C 0.53521 0.97112 0.19976 0.0
C1534 C 0.52013 0.97324 0.45109 0.0
C1535 C 0.35141 0.03277 0.20012 0.0
H1536 H 0.45358 0.995 0.59159 0.0
H1537 H 0.66951 0.95545 0.9333 0.0
H1538 H 0.48312 0.05931 0.81849 0.0
H1539 H 0.45037 0.07907 0.77992 0.0
H1540 H 0.37405 0.96967 0.74437 0.0
H1541 H 0.4073 0.95003 0.78379 0.0
H1542 H 0.50524 0.04185 0.74705 0.0
H1543 H 0.48782 0.03294 0.68092 0.0
H1544 H 0.44455 0.91957 0.6838 0.0
H1545 H 0.46239 0.92889 0.74987 0.0
H1546 H 0.56679 0.05147 0.77418 0.0
H1547 H 0.61395 0.06284 0.7355 0.0
H1548 H 0.59388 0.95549 0.74239 0.0
H1549 H 0.5451 0.94342 0.77884 0.0
H1550 H 0.59247 0.04715 0.87874 0.0
H1551 H 0.64222 0.04609 0.91115 0.0
H1552 H 0.59607 0.9343 0.87496 0.0
H1553 H 0.54672 0.93573 0.84281 0.0
H1554 H 0.5256 0.04149 0.92583 0.0
H1555 H 0.55121 0.04464 0.98794 0.0
H1556 H 0.55269 0.94842 0.95703 0.0
H1557 H 0.51586 0.93845 0.90096 0.0
H1558 H 0.47888 0.05135 0.88304 0.0
H1559 H 0.45271 0.05882 0.93668 0.0
H1560 H 0.40308 0.94604 0.94647 0.0
H1561 H 0.43096 0.93888 0.8929 0.0
O1562 O 0.46043 -0.00199 0.61773 0.0
O1563 O 0.43867 0.94 0.621 0.0
O1564 O 0.67619 0.01545 0.93327 0.0
O1565 O 0.65092 0.95701 0.91958 0.0
C1566 C 0.47309 0.99327 0.81842 0.0
C1567 C 0.4951 0.99074 0.79325 0.0
C1568 C 0.52615 0.9913 0.80597 0.0
C1569 C 0.53339 0.99074 0.84392 0.0
C1570 C 0.50976 0.99015 0.86904 0.0
C1571 C 0.47981 0.99212 0.85647 0.0
C1572 C 0.44723 0.00326 0.80454 0.0
C1573 C 0.45846 0.03954 0.80381 0.0
C1574 C 0.44008 0.05078 0.78107 0.0
C1575 C 0.41007 0.02592 0.75846 0.0
C1576 C 0.39722 0.98942 0.76135 0.0
C1577 C 0.41589 0.97814 0.78412 0.0
C1578 C 0.48493 0.98598 0.75314 0.0
C1579 C 0.49195 0.01514 0.73331 0.0
C1580 C 0.48192 0.00995 0.69553 0.0
C1581 C 0.4646 0.97553 0.67702 0.0
C1582 C 0.45777 0.94642 0.69715 0.0
C1583 C 0.46794 0.95166 0.73485 0.0
C1584 C 0.55286 -0.0032 0.78011 0.0
C1585 C 0.57201 0.03012 0.76666 0.0
C1586 C 0.59883 0.03657 0.74447 0.0
C1587 C 0.60755 0.01007 0.73612 0.0
C1588 C 0.5877 0.9764 0.74859 0.0
C1589 C 0.56016 0.96962 0.7698 0.0
C1590 C 0.56623 0.99167 0.85794 0.0
C1591 C 0.59361 0.0227 0.87714 0.0
C1592 C 0.62179 0.02192 0.8959 0.0
C1593 C 0.62286 0.98997 0.89598 0.0
C1594 C 0.59597 0.95927 0.87563 0.0
C1595 C 0.56802 0.96017 0.85665 0.0
C1596 C 0.51809 0.98931 0.90881 0.0
C1597 C 0.52772 0.01896 0.93406 0.0
C1598 C 0.54299 0.02102 0.96941 0.0
C1599 C 0.55097 0.99463 0.97906 0.0
C1600 C 0.54226 0.96598 0.9531 0.0
C1601 C 0.52303 0.96156 0.91989 0.0
C1602 C 0.45697 0.9946 0.88369 0.0
C1603 C 0.46161 0.02797 0.89589 0.0
C1604 C 0.44692 0.03221 0.92713 0.0
C1605 C 0.42678 0.00313 0.94698 0.0
C1606 C 0.41937 0.9691 0.93272 0.0
C1607 C 0.4349 0.96495 0.90175 0.0
C1608 C 0.45375 0.96998 0.63693 0.0
C1609 C 0.65159 0.98838 0.91751 0.0
H1610 H 1.00059 0.43595 0.60487 0.0
H1611 H 0.99942 0.71035 0.90796 0.0
H1612 H 0.96721 0.4325 0.82578 0.0
H1613 H 0.9556 0.3726 0.80616 0.0
H1614 H 0.06236 0.41479 0.78212 0.0
H1615 H 0.07412 0.47547 0.80193 0.0
H1616 H 0.97302 0.4607 0.75455 0.0
H1617 H 0.97428 0.44258 0.69054 0.0
H1618 H 0.0797 0.52988 0.69258 0.0
H1619 H 0.07822 0.54744 0.75684 0.0
H1620 H 0.9579 0.51209 0.77299 0.0
H1621 H 0.92916 0.5407 0.74261 0.0
H1622 H 0.02625 0.64073 0.75758 0.0
H1623 H 0.055 0.61117 0.78727 0.0
H1624 H 0.95695 0.5427 0.85706 0.0
H1625 H 0.93945 0.58623 0.87607 0.0
H1626 H 0.04676 0.67014 0.88068 0.0
H1627 H 0.06385 0.62624 0.86139 0.0
H1628 H 0.97348 0.50963 0.91931 0.0
H1629 H 0.97249 0.53438 0.97907 0.0
H1630 H 0.07295 0.62446 0.9687 0.0
H1631 H 0.07832 0.59379 0.91377 0.0
H1632 H 0.97075 0.46161 0.89994 0.0
H1633 H 0.96654 0.42358 0.94782 0.0
H1634 H 0.06322 0.43068 0.92185 0.0
H1635 H 0.07197 0.47737 0.88123 0.0
O1636 O 1.00044 0.44398 0.62999 0.0
O1637 O 0.05406 0.49012 0.63194 0.0
O1638 O 0.95076 0.6487 0.89565 0.0
O1639 O 0.00565 0.69274 0.89983 0.0
C1640 C 0.02713 0.49368 0.82689 0.0
C1641 C 0.02574 0.5151 0.79986 0.0
C1642 C 0.02153 0.54442 0.81011 0.0
C1643 C 0.02182 0.55421 0.84753 0.0
C1644 C 0.02618 0.53454 0.8749 0.0
C1645 C 0.02711 0.50296 0.86451 0.0
C1646 C 0.02146 0.45802 0.81529 0.0
C1647 C 0.98822 0.42882 0.81668 0.0
C1648 C 0.98169 0.39484 0.80573 0.0
C1649 C 0.00834 0.38965 0.79343 0.0
C1650 C 0.04181 0.41863 0.79227 0.0
C1651 C 0.04837 0.45297 0.80313 0.0
C1652 C 0.0257 0.50511 0.76043 0.0
C1653 C 0.9964 0.4758 0.74116 0.0
C1654 C 0.99716 0.46556 0.70457 0.0
C1655 C 0.02717 0.48465 0.68649 0.0
C1656 C 0.05622 0.5145 0.70572 0.0
C1657 C 0.05544 0.52464 0.74237 0.0
C1658 C 0.00845 0.55961 0.78226 0.0
C1659 C 0.9733 0.53982 0.76827 0.0
C1660 C 0.9568 0.55644 0.75148 0.0
C1661 C 0.97516 0.59327 0.74873 0.0
C1662 C 0.01123 0.61244 0.75988 0.0
C1663 C 0.02782 0.5956 0.77645 0.0
C1664 C 0.01163 0.58136 0.8579 0.0
C1665 C 0.9766 0.57053 0.86204 0.0
C1666 C 0.96669 0.59543 0.87294 0.0
C1667 C 0.99173 0.63168 0.88001 0.0
C1668 C 0.02683 0.64245 0.87551 0.0
C1669 C 0.03668 0.61748 0.86446 0.0
C1670 C 0.02755 0.54711 0.91381 0.0
C1671 C 0.99746 0.53169 0.93222 0.0
C1672 C 0.99644 0.54712 0.966 0.0
C1673 C 0.02391 0.58063 0.98028 0.0
C1674 C 0.05332 0.59724 0.96092 0.0
C1675 C 0.05574 0.58003 0.92874 0.0
C1676 C 0.02415 0.47725 0.89161 0.0
C1677 C 0.99319 0.45897 0.9081 0.0
C1678 C 0.9901 0.43557 0.93406 0.0
C1679 C 0.0166 0.42707 0.94148 0.0
C1680 C 0.04459 0.44005 0.91985 0.0
C1681 C 0.04915 0.46613 0.89619 0.0
C1682 C 0.02815 0.47324 0.64784 0.0
C1683 C 0.98135 0.6581 0.89224 0.0
H1684 H 0.44579 0.51007 0.60956 0.0
H1685 H 0.7088 0.68367 0.9812 0.0
H1686 H 0.41514 0.47842 0.79598 0.0
H1687 H 0.37753 0.41904 0.7621 0.0
H1688 H 0.44828 0.38497 0.80697 0.0
H1689 H 0.48618 0.44347 0.83612 0.0
H1690 H 0.48111 0.55949 0.76627 0.0
H1691 H 0.46437 0.54709 0.69986 0.0
H1692 H 0.48589 0.45979 0.6988 0.0
H1693 H 0.50304 0.47279 0.76491 0.0
H1694 H 0.56588 0.62331 0.80955 0.0
H1695 H 0.61422 0.65353 0.77156 0.0
H1696 H 0.61347 0.55497 0.7452 0.0
H1697 H 0.56619 0.52509 0.78423 0.0
H1698 H 0.55426 0.62664 0.88632 0.0
H1699 H 0.60451 0.67331 0.92557 0.0
H1700 H 0.6561 0.61051 0.91894 0.0
H1701 H 0.6059 0.56437 0.87896 0.0
H1702 H 0.51807 0.57939 0.9451 0.0
H1703 H 0.54928 0.59275 0.00695 0.0
H1704 H 0.58544 0.51901 0.97841 0.0
H1705 H 0.55631 0.50775 0.91662 0.0
H1706 H 0.42878 0.49585 0.90379 0.0
H1707 H 0.39656 0.45085 0.94601 0.0
H1708 H 0.47062 0.41308 0.9388 0.0
H1709 H 0.50218 0.45769 0.89858 0.0
O1710 O 0.45275 0.51469 0.63575 0.0
O1711 O 0.46378 0.46982 0.63683 0.0
O1712 O 0.66373 0.69949 0.96337 0.0
O1713 O 0.68936 0.66629 0.96438 0.0
C1714 C 0.47969 0.501 0.83497 0.0
C1715 C 0.50232 0.52425 0.8109 0.0
C1716 C 0.53489 0.55356 0.82501 0.0
C1717 C 0.54326 0.56127 0.86349 0.0
C1718 C 0.52076 0.53801 0.88757 0.0
C1719 C 0.4889 0.50784 0.87347 0.0
C1720 C 0.4528 0.46482 0.81964 0.0
C1721 C 0.42177 0.45761 0.79882 0.0
C1722 C 0.40037 0.42385 0.77966 0.0
C1723 C 0.41006 0.39745 0.78161 0.0
C1724 C 0.44003 0.40464 0.8044 0.0
C1725 C 0.4615 0.43802 0.82214 0.0
C1726 C 0.49281 0.51677 0.77049 0.0
C1727 C 0.48221 0.53773 0.75159 0.0
C1728 C 0.47264 0.53055 0.71369 0.0
C1729 C 0.4736 0.5023 0.69403 0.0
C1730 C 0.48466 0.48161 0.71308 0.0
C1731 C 0.49431 0.48889 0.75091 0.0
C1732 C 0.56233 0.57192 0.79977 0.0
C1733 C 0.57596 0.60816 0.79547 0.0
C1734 C 0.60341 0.62531 0.77369 0.0
C1735 C 0.61737 0.60647 0.75545 0.0
C1736 C 0.6028 0.56994 0.75848 0.0
C1737 C 0.57585 0.55294 0.78085 0.0
C1738 C 0.57663 0.59235 0.87957 0.0
C1739 C 0.5769 0.62354 0.89244 0.0
C1740 C 0.60544 0.64992 0.91525 0.0
C1741 C 0.63406 0.64534 0.92587 0.0
C1742 C 0.63435 0.61472 0.91152 0.0
C1743 C 0.60593 0.58853 0.88832 0.0
C1744 C 0.53415 0.54187 0.92672 0.0
C1745 C 0.53211 0.56562 0.95263 0.0
C1746 C 0.55001 0.57327 0.98778 0.0
C1747 C 0.56954 0.55668 0.99757 0.0
C1748 C 0.57013 0.53174 0.97197 0.0
C1749 C 0.55319 0.52498 0.93671 0.0
C1750 C 0.46822 0.48048 0.8984 0.0
C1751 C 0.43784 0.47773 0.91155 0.0
C1752 C 0.41935 0.45188 0.93544 0.0
C1753 C 0.43089 0.42823 0.9461 0.0
C1754 C 0.46076 0.43073 0.93172 0.0
C1755 C 0.47919 0.45656 0.90862 0.0
C1756 C 0.46313 0.49452 0.65383 0.0
C1757 C 0.6632 0.67207 0.95231 0.0
H1758 H 0.57592 0.82694 0.79238 0.0
H1759 H 0.71597 0.6537 0.51988 0.0
H1760 H 0.59505 0.8622 0.60674 0.0
H1761 H 0.61785 0.92239 0.63875 0.0
H1762 H 0.72124 0.94911 0.61137 0.0
H1763 H 0.69965 0.88971 0.58493 0.0
H1764 H 0.574 0.77714 0.64009 0.0
H1765 H 0.56477 0.78967 0.70313 0.0
H1766 H 0.67152 0.87545 0.72127 0.0
H1767 H 0.68053 0.86242 0.65852 0.0
H1768 H 0.60631 0.71406 0.6165 0.0
H1769 H 0.63428 0.68764 0.65351 0.0
H1770 H 0.72559 0.79152 0.67914 0.0
H1771 H 0.69791 0.81709 0.64161 0.0
H1772 H 0.59854 0.70848 0.52497 0.0
H1773 H 0.61318 0.66246 0.50675 0.0
H1774 H 0.71902 0.73062 0.55608 0.0
H1775 H 0.70416 0.77646 0.57359 0.0
H1776 H 0.60019 0.76116 0.47002 0.0
H1777 H 0.6177 0.74539 0.41263 0.0
H1778 H 0.72565 0.80389 0.45841 0.0
H1779 H 0.70784 0.81762 0.51575 0.0
H1780 H 0.59987 0.84851 0.50301 0.0
H1781 H 0.61937 0.89501 0.46018 0.0
H1782 H 0.72543 0.91627 0.48428 0.0
H1783 H 0.70583 0.87048 0.52584 0.0
O1784 O 0.58017 0.82226 0.76765 0.0
O1785 O 0.63557 0.86536 0.77584 0.0
O1786 O 0.6548 0.6374 0.50142 0.0
O1787 O 0.70936 0.67125 0.52697 0.0
C1788 C 0.63553 0.83491 0.57924 0.0
C1789 C 0.63267 0.81143 0.60599 0.0
C1790 C 0.63814 0.78254 0.59707 0.0
C1791 C 0.64175 0.77424 0.56033 0.0
C1792 C 0.64251 0.79643 0.53313 0.0
C1793 C 0.64054 0.82738 0.54268 0.0
C1794 C 0.64556 0.87196 0.59219 0.0
C1795 C 0.62244 0.8816 0.6072 0.0
C1796 C 0.63538 0.91584 0.62524 0.0
C1797 C 0.67132 0.94034 0.62781 0.0
C1798 C 0.69344 0.93092 0.61033 0.0
C1799 C 0.68097 0.897 0.59406 0.0
C1800 C 0.62775 0.8191 0.64454 0.0
C1801 C 0.59535 0.7986 0.65776 0.0
C1802 C 0.59015 0.80584 0.69376 0.0
C1803 C 0.61738 0.83367 0.71721 0.0
C1804 C 0.64998 0.85391 0.70393 0.0
C1805 C 0.65514 0.84658 0.668 0.0
C1806 C 0.64987 0.76755 0.62671 0.0
C1807 C 0.63186 0.73113 0.63114 0.0
C1808 C 0.64806 0.71612 0.65206 0.0
C1809 C 0.68249 0.73739 0.66878 0.0
C1810 C 0.69925 0.77425 0.66643 0.0
C1811 C 0.68318 0.78909 0.64545 0.0
C1812 C 0.65012 0.74554 0.55106 0.0
C1813 C 0.62477 0.71325 0.53203 0.0
C1814 C 0.63325 0.68709 0.5216 0.0
C1815 C 0.66729 0.69286 0.53001 0.0
C1816 C 0.69256 0.72526 0.54924 0.0
C1817 C 0.68408 0.7514 0.55949 0.0
C1818 C 0.65282 0.79101 0.49668 0.0
C1819 C 0.6276 0.77104 0.46721 0.0
C1820 C 0.63763 0.7621 0.43462 0.0
C1821 C 0.67305 0.7737 0.43106 0.0
C1822 C 0.69826 0.7951 0.4601 0.0
C1823 C 0.68815 0.80308 0.49284 0.0
C1824 C 0.65126 0.85538 0.51675 0.0
C1825 C 0.62723 0.86327 0.49874 0.0
C1826 C 0.63848 0.88999 0.47458 0.0
C1827 C 0.67398 0.9093 0.46854 0.0
C1828 C 0.69787 0.90189 0.48777 0.0
C1829 C 0.68662 0.87525 0.51133 0.0
C1830 C 0.61173 0.84149 0.75533 0.0
C1831 C 0.67662 0.66541 0.51856 0.0
H1832 H 0.17519 0.88562 0.81981 0.0
H1833 H 0.98096 0.59712 0.48129 0.0
H1834 H 0.18355 0.89493 0.61447 0.0
H1835 H 0.23163 0.95238 0.64106 0.0
H1836 H 0.30097 0.90859 0.64533 0.0
H1837 H 0.25176 0.84996 0.62066 0.0
H1838 H 0.12953 0.84561 0.66274 0.0
H1839 H 0.14141 0.86567 0.72842 0.0
H1840 H 0.2161 0.82851 0.73922 0.0
H1841 H 0.20373 0.80832 0.67354 0.0
H1842 H 0.06689 0.78774 0.60528 0.0
H1843 H 0.01715 0.75715 0.6411 0.0
H1844 H 0.07195 0.7133 0.70136 0.0
H1845 H 0.12176 0.74349 0.66481 0.0
H1846 H 0.06524 0.77172 0.53069 0.0
H1847 H 0.01565 0.7193 0.49674 0.0
H1848 H 0.05454 0.65303 0.54045 0.0
H1849 H 0.10377 0.70562 0.57456 0.0
H1850 H 0.12594 0.825 0.49488 0.0
H1851 H 0.10109 0.80181 0.4327 0.0
H1852 H 0.10422 0.70622 0.45167 0.0
H1853 H 0.13938 0.73447 0.51023 0.0
H1854 H 0.17059 0.87212 0.52032 0.0
H1855 H 0.20752 0.90753 0.47537 0.0
H1856 H 0.28781 0.88592 0.51713 0.0
H1857 H 0.24615 0.84144 0.55428 0.0
O1858 O 0.17062 0.87715 0.79398 0.0
O1859 O 0.20862 0.85746 0.79809 0.0
O1860 O 0.9799 0.65307 0.47517 0.0
O1861 O 0.99998 0.61816 0.49494 0.0
C1862 C 0.18446 0.83419 0.60004 0.0
C1863 C 0.15908 0.81401 0.62349 0.0
C1864 C 0.12687 0.78489 0.60861 0.0
C1865 C 0.12107 0.77456 0.57051 0.0
C1866 C 0.14652 0.79457 0.5468 0.0
C1867 C 0.17815 0.82531 0.56152 0.0
C1868 C 0.21441 0.86862 0.61531 0.0
C1869 C 0.20905 0.89767 0.62123 0.0
C1870 C 0.2364 0.93027 0.63634 0.0
C1871 C 0.2697 0.93452 0.64485 0.0
C1872 C 0.27542 0.90567 0.63852 0.0
C1873 C 0.24755 0.87249 0.62446 0.0
C1874 C 0.16555 0.82524 0.66354 0.0
C1875 C 0.1482 0.84155 0.67944 0.0
C1876 C 0.15515 0.8531 0.71691 0.0
C1877 C 0.17969 0.84867 0.73909 0.0
C1878 C 0.19701 0.83229 0.72295 0.0
C1879 C 0.19 0.82071 0.68548 0.0
C1880 C 0.09779 0.76749 0.63208 0.0
C1881 C 0.06832 0.77169 0.6263 0.0
C1882 C 0.04018 0.75464 0.647 0.0
C1883 C 0.04122 0.73352 0.67419 0.0
C1884 C 0.07102 0.73006 0.68088 0.0
C1885 C 0.09921 0.74698 0.65991 0.0
C1886 C 0.08807 0.74242 0.55501 0.0
C1887 C 0.06264 0.74577 0.53337 0.0
C1888 C 0.03456 0.71585 0.51376 0.0
C1889 C 0.03147 0.68206 0.51544 0.0
C1890 C 0.05636 0.6787 0.53823 0.0
C1891 C 0.08425 0.70861 0.55811 0.0
C1892 C 0.13793 0.78347 0.50657 0.0
C1893 C 0.12628 0.80158 0.48411 0.0
C1894 C 0.11046 0.78725 0.44868 0.0
C1895 C 0.10239 0.75267 0.43602 0.0
C1896 C 0.1132 0.73399 0.45864 0.0
C1897 C 0.13226 0.74987 0.49286 0.0
C1898 C 0.20331 0.85015 0.53712 0.0
C1899 C 0.19439 0.87154 0.5168 0.0
C1900 C 0.2164 0.89308 0.49215 0.0
C1901 C 0.24964 0.89669 0.48981 0.0
C1902 C 0.26106 0.88031 0.51501 0.0
C1903 C 0.23755 0.85584 0.53715 0.0
C1904 C 0.18726 0.86129 0.77882 0.0
C1905 C 0.00225 0.65034 0.49386 0.0
H1906 H 0.21702 0.33053 0.83264 0.0
H1907 H 0.97303 0.34781 0.50184 0.0
H1908 H 0.25719 0.38209 0.61531 0.0
H1909 H 0.30485 0.37627 0.64727 0.0
H1910 H 0.23163 0.2675 0.66282 0.0
H1911 H 0.18502 0.27254 0.62897 0.0
H1912 H 0.21061 0.37658 0.68642 0.0
H1913 H 0.22117 0.36752 0.75035 0.0
H1914 H 0.13883 0.258 0.73031 0.0
H1915 H 0.12896 0.26727 0.66637 0.0
H1916 H 0.12773 0.36737 0.68069 0.0
H1917 H 0.08155 0.34653 0.72242 0.0
H1918 H 0.02747 0.24444 0.65824 0.0
H1919 H 0.07314 0.26572 0.61624 0.0
H1920 H 0.11989 0.39333 0.60724 0.0
H1921 H 0.07502 0.40704 0.58437 0.0
H1922 H 0.02334 0.30712 0.51588 0.0
H1923 H 0.0686 0.29374 0.539 0.0
H1924 H 0.1438 0.39458 0.53158 0.0
H1925 H 0.10918 0.38794 0.47436 0.0
H1926 H 0.11175 0.29308 0.43923 0.0
H1927 H 0.13837 0.29458 0.49987 0.0
H1928 H 0.22701 0.39194 0.53204 0.0
H1929 H 0.25521 0.38498 0.47867 0.0
H1930 H 0.21261 0.27368 0.4933 0.0
H1931 H 0.18631 0.28103 0.54716 0.0
O1932 O 0.21246 0.33353 0.80726 0.0
O1933 O 0.16939 0.27765 0.7957 0.0
O1934 O 0.02149 0.39578 0.54271 0.0
O1935 O 0.99126 0.34292 0.51059 0.0
C1936 C 0.18741 0.33258 0.60795 0.0
C1937 C 0.16279 0.32842 0.633 0.0
C1938 C 0.13228 0.32933 0.62116 0.0
C1939 C 0.12761 0.33735 0.58519 0.0
C1940 C 0.15206 0.34152 0.5597 0.0
C1941 C 0.18179 0.33846 0.57105 0.0
C1942 C 0.21751 0.3279 0.62044 0.0
C1943 C 0.25174 0.35676 0.62473 0.0
C1944 C 0.27875 0.35356 0.64322 0.0
C1945 C 0.27141 0.32179 0.6583 0.0
C1946 C 0.23763 0.29251 0.65216 0.0
C1947 C 0.2111 0.29531 0.63269 0.0
C1948 C 0.16879 0.32272 0.67189 0.0
C1949 C 0.19488 0.35068 0.69593 0.0
C1950 C 0.20084 0.34542 0.73242 0.0
C1951 C 0.18075 0.31206 0.74549 0.0
C1952 C 0.15467 0.28405 0.7212 0.0
C1953 C 0.14884 0.28932 0.68471 0.0
C1954 C 0.10357 0.31815 0.6453 0.0
C1955 C 0.10574 0.34065 0.67553 0.0
C1956 C 0.07955 0.32863 0.69941 0.0
C1957 C 0.05119 0.29373 0.69374 0.0
C1958 C 0.04926 0.27126 0.66353 0.0
C1959 C 0.07504 0.28351 0.63931 0.0
C1960 C 0.09751 0.34262 0.5747 0.0
C1961 C 0.09858 0.3742 0.5877 0.0
C1962 C 0.07316 0.38216 0.57426 0.0
C1963 C 0.04584 0.35836 0.54796 0.0
C1964 C 0.04416 0.3261 0.53594 0.0
C1965 C 0.06977 0.31824 0.5493 0.0
C1966 C 0.14386 0.34506 0.5204 0.0
C1967 C 0.13778 0.37279 0.51124 0.0
C1968 C 0.11934 0.37002 0.47767 0.0
C1969 C 0.11092 0.34227 0.45048 0.0
C1970 C 0.11969 0.31606 0.45859 0.0
C1971 C 0.13531 0.31704 0.49337 0.0
C1972 C 0.2043 0.33687 0.5433 0.0
C1973 C 0.22465 0.36632 0.52423 0.0
C1974 C 0.24048 0.36231 0.49364 0.0
C1975 C 0.23502 0.3286 0.48104 0.0
C1976 C 0.21674 0.29989 0.50188 0.0
C1977 C 0.20185 0.30408 0.53286 0.0
C1978 C 0.18708 0.30657 0.78427 0.0
C1979 C 0.01897 0.36699 0.53354 0.0
loop_
_geom_bond_atom_site_label_1
_geom_bond_atom_site_label_2
_geom_bond_distance
_geom_bond_site_symmetry_2
_ccdc_geom_bond_type
Mn0 O5 2.095 1_655 S
Mn0 O15 2.162 . S
Mn0 O16 2.297 1_554 S
Mn0 O24 2.385 1_554 S
Mn0 O25 2.209 1_655 S
Mn0 O26 2.094 . S
Mn1 O6 2.121 . S
Mn1 N8 2.257 . S
Mn1 N17 2.282 . S
Mn1 O25 2.215 . S
Mn1 O27 2.117 . S
C2 O24 1.234 1_455 S
C2 O25 1.283 1_556 S
C3 O15 1.281 1_556 S
C3 O16 1.236 . S
C4 O26 1.241 . S
C4 O27 1.261 1_655 S
O5 Mn0 2.095 1_455 S
O5 C14 1.250 . S
O6 Mn1 2.121 . S
O6 C14 1.258 . S
C7 N8 1.326 . S
C7 C11 1.460 1_554 S
C7 H13 0.929 . S
N8 Mn1 2.257 . S
N8 C7 1.326 . S
N8 C12 1.362 . S
C9 C10 1.258 . S
C9 C12 1.431 1_556 S
C9 C29 1.449 . S
C10 C9 1.258 . S
C10 C11 1.477 . S
C10 H30 0.931 . S
C11 C7 1.460 1_556 S
C11 C10 1.477 . S
C11 H31 0.930 . S
C12 N8 1.362 . S
C12 C9 1.431 1_554 S
C12 C22 1.476 . S
H13 C7 0.929 . S
C14 O5 1.250 . S
C14 O6 1.258 . S
O15 Mn0 2.162 . S
O15 C3 1.281 1_554 S
O16 Mn0 2.297 1_556 S
O16 C3 1.236 . S
N17 Mn1 2.282 . S
N17 C18 1.328 . S
N17 C22 1.318 . S
C18 N17 1.328 . S
C18 C19 1.457 . S
C18 H23 0.929 . S
C19 C18 1.457 . S
C19 C20 1.291 . S
C19 H32 0.931 . S
C20 C19 1.291 . S
C20 C21 1.373 1_554 S
C20 H33 0.929 1_554 S
C21 C20 1.373 1_556 S
C21 C22 1.396 1_556 S
C21 C28 1.403 . S
C22 C12 1.476 . S
C22 N17 1.318 . S
C22 C21 1.396 1_554 S
H23 C18 0.929 . S
O24 Mn0 2.385 1_556 S
O24 C2 1.234 1_655 S
O25 Mn0 2.209 1_455 S
O25 Mn1 2.215 . S
O25 C2 1.283 1_554 S
O26 Mn0 2.094 . S
O26 C4 1.241 . S
O27 Mn1 2.117 . S
O27 C4 1.261 1_455 S
C28 C21 1.403 . S
C28 C29 1.399 . S
C28 H34 0.929 . S
C29 C9 1.449 . S
C29 C28 1.399 . S
C29 H35 0.930 . S
H30 C10 0.931 . S
H31 C11 0.930 . S
H32 C19 0.931 . S
H33 C20 0.929 1_556 S
H34 C28 0.929 . S
H35 C29 0.930 . S
Mn36 O41 2.095 . S
Mn36 O51 2.162 . S
Mn36 O52 2.297 . S
Mn36 O60 2.385 . S
Mn36 O61 2.209 . S
Mn36 O62 2.094 . S
Mn37 O42 2.121 . S
Mn37 N44 2.257 . S
Mn37 N53 2.282 . S
Mn37 O61 2.215 . S
Mn37 O63 2.117 . S
C38 O60 1.234 . S
C38 O61 1.283 . S
C39 O51 1.281 . S
C39 O52 1.236 . S
C40 O62 1.240 . S
C40 O63 1.264 . S
O41 Mn36 2.095 . S
O41 C50 1.250 . S
O42 Mn37 2.121 . S
O42 C50 1.258 . S
C43 N44 1.326 . S
C43 C47 1.460 . S
C43 H49 0.929 . S
N44 Mn37 2.257 . S
N44 C43 1.326 . S
N44 C48 1.362 . S
C45 C46 1.258 . S
C45 C48 1.431 . S
C45 C65 1.449 . S
C46 C45 1.258 . S
C46 C47 1.477 . S
C46 H66 0.931 . S
C47 C43 1.460 . S
C47 C46 1.477 . S
C47 H67 0.930 . S
C48 N44 1.362 . S
C48 C45 1.431 . S
C48 C58 1.476 . S
H49 C43 0.929 . S
C50 O41 1.250 . S
C50 O42 1.258 . S
O51 Mn36 2.162 . S
O51 C39 1.281 . S
O52 Mn36 2.297 . S
O52 C39 1.236 . S
N53 Mn37 2.282 . S
N53 C54 1.328 . S
N53 C58 1.318 . S
C54 N53 1.328 . S
C54 C55 1.457 . S
C54 H59 0.929 . S
C55 C54 1.457 . S
C55 C56 1.291 . S
C55 H68 0.931 . S
C56 C55 1.291 . S
C56 C57 1.373 . S
C56 H69 0.929 . S
C57 C56 1.373 . S
C57 C58 1.396 . S
C57 C64 1.403 . S
C58 C48 1.476 . S
C58 N53 1.318 . S
C58 C57 1.396 . S
H59 C54 0.929 . S
O60 Mn36 2.385 . S
O60 C38 1.234 . S
O61 Mn36 2.209 . S
O61 Mn37 2.215 . S
O61 C38 1.283 . S
O62 Mn36 2.094 . S
O62 C40 1.240 . S
O63 Mn37 2.117 . S
O63 C40 1.264 . S
C64 C57 1.403 . S
C64 C65 1.399 . S
C64 H70 0.929 . S
C65 C45 1.449 . S
C65 C64 1.399 . S
C65 H71 0.930 . S
H66 C46 0.931 . S
H67 C47 0.930 . S
H68 C55 0.931 . S
H69 C56 0.929 . S
H70 C64 0.929 . S
H71 C65 0.930 . S
Mn72 O77 2.113 1_565 S
Mn72 O87 2.162 . S
Mn72 O88 2.297 . S
Mn72 O96 2.385 . S
Mn72 O97 2.209 1_565 S
Mn72 O98 2.094 1_554 S
Mn73 O78 2.121 . S
Mn73 N80 2.257 . S
Mn73 N89 2.282 . S
Mn73 O97 2.215 . S
Mn73 O99 2.117 1_554 S
C74 O96 1.234 1_545 S
C74 O97 1.283 . S
C75 O87 1.281 . S
C75 O88 1.236 . S
C76 O98 1.240 . S
C76 O99 1.264 1_565 S
O77 Mn72 2.113 1_545 S
O77 C86 1.252 . S
O78 Mn73 2.121 . S
O78 C86 1.258 . S
C79 N80 1.326 . S
C79 C83 1.460 . S
C79 H85 0.929 . S
N80 Mn73 2.257 . S
N80 C79 1.326 . S
N80 C84 1.362 . S
C81 C82 1.258 . S
C81 C84 1.431 . S
C81 C101 1.449 . S
C82 C81 1.258 . S
C82 C83 1.477 . S
C82 H102 0.931 . S
C83 C79 1.460 . S
C83 C82 1.477 . S
C83 H103 0.930 . S
C84 N80 1.362 . S
C84 C81 1.431 . S
C84 C94 1.476 . S
H85 C79 0.929 . S
C86 O77 1.252 . S
C86 O78 1.258 . S
O87 Mn72 2.162 . S
O87 C75 1.281 . S
O88 Mn72 2.297 . S
O88 C75 1.236 . S
N89 Mn73 2.282 . S
N89 C90 1.328 . S
N89 C94 1.318 . S
C90 N89 1.328 . S
C90 C91 1.457 . S
C90 H95 0.929 . S
C91 C90 1.457 . S
C91 C92 1.291 . S
C91 H104 0.931 . S
C92 C91 1.291 . S
C92 C93 1.373 . S
C92 H105 0.929 . S
C93 C92 1.373 . S
C93 C94 1.396 . S
C93 C100 1.403 . S
C94 C84 1.476 . S
C94 N89 1.318 . S
C94 C93 1.396 . S
H95 C90 0.929 . S
O96 Mn72 2.385 . S
O96 C74 1.234 1_565 S
O97 Mn72 2.209 1_545 S
O97 Mn73 2.215 . S
O97 C74 1.283 . S
O98 Mn72 2.094 1_556 S
O98 C76 1.240 . S
O99 Mn73 2.117 1_556 S
O99 C76 1.264 1_545 S
C100 C93 1.403 . S
C100 C101 1.399 . S
C100 H106 0.929 . S
C101 C81 1.449 . S
C101 C100 1.399 . S
C101 H107 0.930 . S
H102 C82 0.931 . S
H103 C83 0.930 . S
H104 C91 0.931 . S
H105 C92 0.929 . S
H106 C100 0.929 . S
H107 C101 0.930 . S
Mn108 O113 2.095 1_655 S
Mn108 O123 2.162 . S
Mn108 O124 2.297 . S
Mn108 O132 2.385 . S
Mn108 O133 2.209 1_655 S
Mn108 O134 2.094 . S
Mn109 O114 2.121 . S
Mn109 N116 2.257 . S
Mn109 N125 2.282 . S
Mn109 O133 2.215 . S
Mn109 O135 2.117 . S
C110 O132 1.234 1_455 S
C110 O133 1.283 . S
C111 O123 1.281 . S
C111 O124 1.236 . S
C112 O134 1.240 . S
C112 O135 1.264 1_655 S
O113 Mn108 2.095 1_455 S
O113 C122 1.250 . S
O114 Mn109 2.121 . S
O114 C122 1.258 . S
C115 N116 1.326 . S
C115 C119 1.460 . S
C115 H121 0.929 . S
N116 Mn109 2.257 . S
N116 C115 1.326 . S
N116 C120 1.362 . S
C117 C118 1.251 1_554 S
C117 C120 1.431 . S
C117 C137 1.449 1_554 S
C118 C117 1.251 1_556 S
C118 C119 1.468 1_556 S
C118 H138 0.947 . S
C119 C115 1.460 . S
C119 C118 1.468 1_554 S
C119 H139 0.930 . S
C120 N116 1.362 . S
C120 C117 1.431 . S
C120 C130 1.476 . S
H121 C115 0.929 . S
C122 O113 1.250 . S
C122 O114 1.258 . S
O123 Mn108 2.162 . S
O123 C111 1.281 . S
O124 Mn108 2.297 . S
O124 C111 1.236 . S
N125 Mn109 2.282 . S
N125 C126 1.328 . S
N125 C130 1.318 . S
C126 N125 1.328 . S
C126 C127 1.457 . S
C126 H131 0.929 . S
C127 C126 1.457 . S
C127 C128 1.291 . S
C127 H140 0.931 . S
C128 C127 1.291 . S
C128 C129 1.373 . S
C128 H141 0.929 . S
C129 C128 1.373 . S
C129 C130 1.396 . S
C129 C136 1.403 1_554 S
C130 C120 1.476 . S
C130 N125 1.318 . S
C130 C129 1.396 . S
H131 C126 0.929 . S
O132 Mn108 2.385 . S
O132 C110 1.234 1_655 S
O133 Mn108 2.209 1_455 S
O133 Mn109 2.215 . S
O133 C110 1.283 . S
O134 Mn108 2.094 . S
O134 C112 1.240 . S
O135 Mn109 2.117 . S
O135 C112 1.264 1_455 S
C136 C129 1.403 1_556 S
C136 C137 1.399 . S
C136 H142 0.929 . S
C137 C117 1.449 1_556 S
C137 C136 1.399 . S
C137 H143 0.930 . S
H138 C118 0.947 . S
H139 C119 0.930 . S
H140 C127 0.931 . S
H141 C128 0.929 . S
H142 C136 0.929 . S
H143 C137 0.930 . S
Mn144 O149 2.095 1_554 S
Mn144 O159 2.162 . S
Mn144 O160 2.297 . S
Mn144 O168 2.385 . S
Mn144 O169 2.209 . S
Mn144 O170 2.094 1_554 S
Mn145 O150 2.121 . S
Mn145 N152 2.257 1_556 S
Mn145 N161 2.282 1_556 S
Mn145 O169 2.215 1_556 S
Mn145 O171 2.117 . S
C146 O168 1.234 . S
C146 O169 1.283 . S
C147 O159 1.281 . S
C147 O160 1.236 . S
C148 O170 1.240 . S
C148 O171 1.264 . S
O149 Mn144 2.095 1_556 S
O149 C158 1.250 . S
O150 Mn145 2.121 . S
O150 C158 1.258 . S
C151 N152 1.326 . S
C151 C155 1.460 . S
C151 H157 0.929 . S
N152 Mn145 2.257 1_554 S
N152 C151 1.326 . S
N152 C156 1.362 . S
C153 C154 1.258 . S
C153 C156 1.431 . S
C153 C173 1.449 . S
C154 C153 1.258 . S
C154 C155 1.477 . S
C154 H174 0.931 . S
C155 C151 1.460 . S
C155 C154 1.477 . S
C155 H175 0.930 . S
C156 N152 1.362 . S
C156 C153 1.431 . S
C156 C166 1.476 . S
H157 C151 0.929 . S
C158 O149 1.250 . S
C158 O150 1.258 . S
O159 Mn144 2.162 . S
O159 C147 1.281 . S
O160 Mn144 2.297 . S
O160 C147 1.236 . S
N161 Mn145 2.282 1_554 S
N161 C162 1.328 . S
N161 C166 1.318 . S
C162 N161 1.328 . S
C162 C163 1.457 . S
C162 H167 0.929 . S
C163 C162 1.457 . S
C163 C164 1.291 . S
C163 H176 0.931 . S
C164 C163 1.291 . S
C164 C165 1.373 . S
C164 H177 0.929 . S
C165 C164 1.373 . S
C165 C166 1.396 . S
C165 C172 1.403 . S
C166 C156 1.476 . S
C166 N161 1.318 . S
C166 C165 1.396 . S
H167 C162 0.929 . S
O168 Mn144 2.385 . S
O168 C146 1.234 . S
O169 Mn144 2.209 . S
O169 Mn145 2.215 1_554 S
O169 C146 1.283 . S
O170 Mn144 2.094 1_556 S
O170 C148 1.240 . S
O171 Mn145 2.117 . S
O171 C148 1.264 . S
C172 C165 1.403 . S
C172 C173 1.399 . S
C172 H178 0.929 . S
C173 C153 1.449 . S
C173 C172 1.399 . S
C173 H179 0.930 . S
H174 C154 0.931 . S
H175 C155 0.930 . S
H176 C163 0.931 . S
H177 C164 0.929 . S
H178 C172 0.929 . S
H179 C173 0.930 . S
Mn180 O185 2.095 1_545 S
Mn180 O195 2.162 . S
Mn180 O196 2.297 . S
Mn180 O204 2.385 . S
Mn180 O205 2.209 1_545 S
Mn180 O206 2.094 . S
Mn181 O186 2.121 . S
Mn181 N188 2.257 . S
Mn181 N197 2.282 . S
Mn181 O205 2.215 . S
Mn181 O207 2.117 . S
C182 O204 1.262 . S
C182 O205 1.256 1_545 S
C183 O195 1.281 . S
C183 O196 1.236 . S
C184 O206 1.240 . S
C184 O207 1.264 1_545 S
O185 Mn180 2.095 1_565 S
O185 C194 1.250 . S
O186 Mn181 2.121 . S
O186 C194 1.258 . S
C187 N188 1.326 . S
C187 C191 1.460 1_554 S
C187 H193 0.929 . S
N188 Mn181 2.257 . S
N188 C187 1.326 . S
N188 C192 1.362 . S
C189 C190 1.258 . S
C189 C192 1.431 1_556 S
C189 C209 1.449 . S
C190 C189 1.258 . S
C190 C191 1.477 . S
C190 H210 0.931 . S
C191 C187 1.460 1_556 S
C191 C190 1.477 . S
C191 H211 0.930 . S
C192 N188 1.362 . S
C192 C189 1.431 1_554 S
C192 C202 1.476 . S
H193 C187 0.929 . S
C194 O185 1.250 . S
C194 O186 1.258 . S
O195 Mn180 2.162 . S
O195 C183 1.281 . S
O196 Mn180 2.297 . S
O196 C183 1.236 . S
N197 Mn181 2.282 . S
N197 C198 1.328 . S
N197 C202 1.318 . S
C198 N197 1.328 . S
C198 C199 1.457 . S
C198 H203 0.929 . S
C199 C198 1.457 . S
C199 C200 1.291 . S
C199 H212 0.931 . S
C200 C199 1.291 . S
C200 C201 1.373 1_554 S
C200 H213 0.929 1_554 S
C201 C200 1.373 1_556 S
C201 C202 1.396 1_556 S
C201 C208 1.403 . S
C202 C192 1.476 . S
C202 N197 1.318 . S
C202 C201 1.396 1_554 S
H203 C198 0.929 . S
O204 Mn180 2.385 . S
O204 C182 1.262 . S
O205 Mn180 2.209 1_565 S
O205 Mn181 2.215 . S
O205 C182 1.256 1_565 S
O206 Mn180 2.094 . S
O206 C184 1.240 . S
O207 Mn181 2.117 . S
O207 C184 1.264 1_565 S
C208 C201 1.403 . S
C208 C209 1.399 . S
C208 H214 0.929 . S
C209 C189 1.449 . S
C209 C208 1.399 . S
C209 H215 0.930 . S
H210 C190 0.931 . S
H211 C191 0.930 . S
H212 C199 0.931 . S
H213 C200 0.929 1_556 S
H214 C208 0.929 . S
H215 C209 0.930 . S
Mn216 O221 2.095 . S
Mn216 O231 2.162 . S
Mn216 O232 2.297 . S
Mn216 O240 2.385 . S
Mn216 O241 2.209 . S
Mn216 O242 2.094 . S
Mn217 O222 2.121 . S
Mn217 N224 2.257 . S
Mn217 N233 2.282 . S
Mn217 O241 2.215 . S
Mn217 O243 2.117 . S
C218 O240 1.234 . S
C218 O241 1.283 . S
C219 O231 1.281 . S
C219 O232 1.236 . S
C220 O242 1.240 . S
C220 O243 1.264 . S
O221 Mn216 2.095 . S
O221 C230 1.250 . S
O222 Mn217 2.121 . S
O222 C230 1.258 . S
C223 N224 1.326 . S
C223 C227 1.460 . S
C223 H229 0.929 . S
N224 Mn217 2.257 . S
N224 C223 1.326 . S
N224 C228 1.362 . S
C225 C226 1.258 . S
C225 C228 1.431 . S
C225 C245 1.449 . S
C226 C225 1.258 . S
C226 C227 1.477 . S
C226 H246 0.931 . S
C227 C223 1.460 . S
C227 C226 1.477 . S
C227 H247 0.930 . S
C228 N224 1.362 . S
C228 C225 1.431 . S
C228 C238 1.476 . S
H229 C223 0.929 . S
C230 O221 1.250 . S
C230 O222 1.258 . S
O231 Mn216 2.162 . S
O231 C219 1.281 . S
O232 Mn216 2.297 . S
O232 C219 1.236 . S
N233 Mn217 2.282 . S
N233 C234 1.328 . S
N233 C238 1.318 . S
C234 N233 1.328 . S
C234 C235 1.457 . S
C234 H239 0.929 . S
C235 C234 1.457 . S
C235 C236 1.291 . S
C235 H248 0.931 . S
C236 C235 1.291 . S
C236 C237 1.373 . S
C236 H249 0.929 . S
C237 C236 1.373 . S
C237 C238 1.396 . S
C237 C244 1.403 . S
C238 C228 1.476 . S
C238 N233 1.318 . S
C238 C237 1.396 . S
H239 C234 0.929 . S
O240 Mn216 2.385 . S
O240 C218 1.234 . S
O241 Mn216 2.209 . S
O241 Mn217 2.215 . S
O241 C218 1.283 . S
O242 Mn216 2.094 . S
O242 C220 1.240 . S
O243 Mn217 2.117 . S
O243 C220 1.264 . S
C244 C237 1.403 . S
C244 C245 1.399 . S
C244 H250 0.929 . S
C245 C225 1.449 . S
C245 C244 1.399 . S
C245 H251 0.930 . S
H246 C226 0.931 . S
H247 C227 0.930 . S
H248 C235 0.931 . S
H249 C236 0.929 . S
H250 C244 0.929 . S
H251 C245 0.930 . S
Mn252 O257 2.095 . S
Mn252 O267 2.162 1_565 S
Mn252 O268 2.297 1_565 S
Mn252 O276 2.385 . S
Mn252 O277 2.209 . S
Mn252 O278 2.094 . S
Mn253 O258 2.121 . S
Mn253 N260 2.257 . S
Mn253 N269 2.282 . S
Mn253 O277 2.215 . S
Mn253 O279 2.117 . S
C254 O276 1.234 . S
C254 O277 1.283 . S
C255 O267 1.281 . S
C255 O268 1.236 . S
C256 O278 1.240 . S
C256 O279 1.264 . S
O257 Mn252 2.095 . S
O257 C266 1.250 . S
O258 Mn253 2.121 . S
O258 C266 1.258 . S
C259 N260 1.326 . S
C259 C263 1.460 . S
C259 H265 0.929 . S
N260 Mn253 2.257 . S
N260 C259 1.326 . S
N260 C264 1.362 . S
C261 C262 1.258 . S
C261 C264 1.431 . S
C261 C281 1.449 . S
C262 C261 1.258 . S
C262 C263 1.477 . S
C262 H282 0.931 . S
C263 C259 1.460 . S
C263 C262 1.477 . S
C263 H283 0.930 . S
C264 N260 1.362 . S
C264 C261 1.431 . S
C264 C274 1.476 . S
H265 C259 0.929 . S
C266 O257 1.250 . S
C266 O258 1.258 . S
O267 Mn252 2.162 1_545 S
O267 C255 1.281 . S
O268 Mn252 2.297 1_545 S
O268 C255 1.236 . S
N269 Mn253 2.282 . S
N269 C270 1.328 . S
N269 C274 1.318 . S
C270 N269 1.328 . S
C270 C271 1.457 . S
C270 H275 0.929 . S
C271 C270 1.457 . S
C271 C272 1.291 . S
C271 H284 0.931 . S
C272 C271 1.291 . S
C272 C273 1.373 . S
C272 H285 0.929 . S
C273 C272 1.373 . S
C273 C274 1.396 . S
C273 C280 1.403 . S
C274 C264 1.476 . S
C274 N269 1.318 . S
C274 C273 1.396 . S
H275 C270 0.929 . S
O276 Mn252 2.385 . S
O276 C254 1.234 . S
O277 Mn252 2.209 . S
O277 Mn253 2.215 . S
O277 C254 1.283 . S
O278 Mn252 2.094 . S
O278 C256 1.240 . S
O279 Mn253 2.117 . S
O279 C256 1.264 . S
C280 C273 1.403 . S
C280 C281 1.399 . S
C280 H286 0.929 . S
C281 C261 1.449 . S
C281 C280 1.399 . S
C281 H287 0.930 . S
H282 C262 0.931 . S
H283 C263 0.930 . S
H284 C271 0.931 . S
H285 C272 0.929 . S
H286 C280 0.929 . S
H287 C281 0.930 . S
Mn288 O293 2.095 . S
Mn288 O303 2.162 1_455 S
Mn288 O304 2.297 . S
Mn288 O312 2.385 . S
Mn288 O313 2.209 . S
Mn288 O314 2.094 . S
Mn289 O294 2.121 . S
Mn289 N296 2.257 . S
Mn289 N305 2.282 . S
Mn289 O313 2.215 . S
Mn289 O315 2.117 . S
C290 O312 1.234 . S
C290 O313 1.283 . S
C291 O303 1.281 . S
C291 O304 1.236 1_655 S
C292 O314 1.240 . S
C292 O315 1.264 . S
O293 Mn288 2.095 . S
O293 C302 1.250 . S
O294 Mn289 2.121 . S
O294 C302 1.258 . S
C295 N296 1.326 . S
C295 C299 1.460 . S
C295 H301 0.929 . S
N296 Mn289 2.257 . S
N296 C295 1.326 . S
N296 C300 1.362 . S
C297 C298 1.258 . S
C297 C300 1.431 . S
C297 C317 1.449 . S
C298 C297 1.258 . S
C298 C299 1.477 . S
C298 H318 0.931 . S
C299 C295 1.460 . S
C299 C298 1.477 . S
C299 H319 0.930 . S
C300 N296 1.362 . S
C300 C297 1.431 . S
C300 C310 1.476 . S
H301 C295 0.929 . S
C302 O293 1.250 . S
C302 O294 1.258 . S
O303 Mn288 2.162 1_655 S
O303 C291 1.281 . S
O304 Mn288 2.297 . S
O304 C291 1.236 1_455 S
N305 Mn289 2.282 . S
N305 C306 1.328 . S
N305 C310 1.318 . S
C306 N305 1.328 . S
C306 C307 1.457 . S
C306 H311 0.929 . S
C307 C306 1.457 . S
C307 C308 1.291 . S
C307 H320 0.931 . S
C308 C307 1.291 . S
C308 C309 1.373 . S
C308 H321 0.929 . S
C309 C308 1.373 . S
C309 C310 1.396 . S
C309 C316 1.403 . S
C310 C300 1.476 . S
C310 N305 1.318 . S
C310 C309 1.396 . S
H311 C306 0.929 . S
O312 Mn288 2.385 . S
O312 C290 1.234 . S
O313 Mn288 2.209 . S
O313 Mn289 2.215 . S
O313 C290 1.283 . S
O314 Mn288 2.094 . S
O314 C292 1.240 . S
O315 Mn289 2.117 . S
O315 C292 1.264 . S
C316 C309 1.403 . S
C316 C317 1.399 . S
C316 H322 0.929 . S
C317 C297 1.449 . S
C317 C316 1.399 . S
C317 H323 0.930 . S
H318 C298 0.931 . S
H319 C299 0.930 . S
H320 C307 0.931 . S
H321 C308 0.929 . S
H322 C316 0.929 . S
H323 C317 0.930 . S
Mn324 O329 2.079 1_565 S
Mn324 O339 2.162 . S
Mn324 O340 2.297 . S
Mn324 O348 2.385 . S
Mn324 O349 2.209 . S
Mn324 O350 2.094 . S
Mn325 O330 2.121 1_565 S
Mn325 N332 2.257 . S
Mn325 N341 2.282 . S
Mn325 O349 2.215 . S
Mn325 O351 2.117 . S
C326 O348 1.234 . S
C326 O349 1.283 . S
C327 O339 1.281 . S
C327 O340 1.236 . S
C328 O350 1.240 . S
C328 O351 1.264 . S
O329 Mn324 2.079 1_545 S
O329 C338 1.256 . S
O330 Mn325 2.121 1_545 S
O330 C338 1.258 . S
C331 N332 1.326 1_545 S
C331 C335 1.460 . S
C331 H337 0.929 . S
N332 Mn325 2.257 . S
N332 C331 1.326 1_565 S
N332 C336 1.362 . S
C333 C334 1.258 . S
C333 C336 1.431 . S
C333 C353 1.449 . S
C334 C333 1.258 . S
C334 C335 1.477 1_565 S
C334 H354 0.931 1_565 S
C335 C331 1.460 . S
C335 C334 1.477 1_545 S
C335 H355 0.930 . S
C336 N332 1.362 . S
C336 C333 1.431 . S
C336 C346 1.476 . S
H337 C331 0.929 . S
C338 O329 1.256 . S
C338 O330 1.258 . S
O339 Mn324 2.162 . S
O339 C327 1.281 . S
O340 Mn324 2.297 . S
O340 C327 1.236 . S
N341 Mn325 2.282 . S
N341 C342 1.328 . S
N341 C346 1.318 . S
C342 N341 1.328 . S
C342 C343 1.457 . S
C342 H347 0.929 . S
C343 C342 1.457 . S
C343 C344 1.291 . S
C343 H356 0.931 . S
C344 C343 1.291 . S
C344 C345 1.373 . S
C344 H357 0.929 . S
C345 C344 1.373 . S
C345 C346 1.396 . S
C345 C352 1.403 . S
C346 C336 1.476 . S
C346 N341 1.318 . S
C346 C345 1.396 . S
H347 C342 0.929 . S
O348 Mn324 2.385 . S
O348 C326 1.234 . S
O349 Mn324 2.209 . S
O349 Mn325 2.215 . S
O349 C326 1.283 . S
O350 Mn324 2.094 . S
O350 C328 1.240 . S
O351 Mn325 2.117 . S
O351 C328 1.264 . S
C352 C345 1.403 . S
C352 C353 1.399 . S
C352 H358 0.929 . S
C353 C333 1.449 . S
C353 C352 1.399 . S
C353 H359 0.930 . S
H354 C334 0.931 1_545 S
H355 C335 0.930 . S
H356 C343 0.931 . S
H357 C344 0.929 . S
H358 C352 0.929 . S
H359 C353 0.930 . S
Mn360 O365 2.095 . S
Mn360 O375 2.162 1_455 S
Mn360 O376 2.297 . S
Mn360 O384 2.385 . S
Mn360 O385 2.209 . S
Mn360 O386 2.094 . S
Mn361 O366 2.121 . S
Mn361 N368 2.257 . S
Mn361 N377 2.282 . S
Mn361 O385 2.215 . S
Mn361 O387 2.117 . S
C362 O384 1.234 . S
C362 O385 1.283 . S
C363 O375 1.281 . S
C363 O376 1.236 1_655 S
C364 O386 1.240 . S
C364 O387 1.264 . S
O365 Mn360 2.095 . S
O365 C374 1.250 . S
O366 Mn361 2.121 . S
O366 C374 1.258 . S
C367 N368 1.326 . S
C367 C371 1.460 . S
C367 H373 0.929 . S
N368 Mn361 2.257 . S
N368 C367 1.326 . S
N368 C372 1.362 . S
C369 C370 1.258 . S
C369 C372 1.431 . S
C369 C389 1.449 . S
C370 C369 1.258 . S
C370 C371 1.477 . S
C370 H390 0.931 . S
C371 C367 1.460 . S
C371 C370 1.477 . S
C371 H391 0.930 . S
C372 N368 1.362 . S
C372 C369 1.431 . S
C372 C382 1.476 . S
H373 C367 0.929 . S
C374 O365 1.250 . S
C374 O366 1.258 . S
O375 Mn360 2.162 1_655 S
O375 C363 1.281 . S
O376 Mn360 2.297 . S
O376 C363 1.236 1_455 S
N377 Mn361 2.282 . S
N377 C378 1.328 . S
N377 C382 1.318 . S
C378 N377 1.328 . S
C378 C379 1.457 . S
C378 H383 0.929 . S
C379 C378 1.457 . S
C379 C380 1.291 . S
C379 H392 0.931 . S
C380 C379 1.291 . S
C380 C381 1.373 . S
C380 H393 0.929 . S
C381 C380 1.373 . S
C381 C382 1.396 . S
C381 C388 1.403 . S
C382 C372 1.476 . S
C382 N377 1.318 . S
C382 C381 1.396 . S
H383 C378 0.929 . S
O384 Mn360 2.385 . S
O384 C362 1.234 . S
O385 Mn360 2.209 . S
O385 Mn361 2.215 . S
O385 C362 1.283 . S
O386 Mn360 2.094 . S
O386 C364 1.240 . S
O387 Mn361 2.117 . S
O387 C364 1.264 . S
C388 C381 1.403 . S
C388 C389 1.399 . S
C388 H394 0.929 . S
C389 C369 1.449 . S
C389 C388 1.399 . S
C389 H395 0.930 . S
H390 C370 0.931 . S
H391 C371 0.930 . S
H392 C379 0.931 . S
H393 C380 0.929 . S
H394 C388 0.929 . S
H395 C389 0.930 . S
Mn396 O401 2.095 . S
Mn396 O411 2.162 . S
Mn396 O412 2.297 . S
Mn396 O420 2.385 . S
Mn396 O421 2.209 . S
Mn396 O422 2.094 . S
Mn397 O402 2.121 . S
Mn397 N404 2.257 . S
Mn397 N413 2.282 . S
Mn397 O421 2.215 . S
Mn397 O423 2.117 . S
C398 O420 1.234 . S
C398 O421 1.283 . S
C399 O411 1.281 . S
C399 O412 1.236 . S
C400 O422 1.240 . S
C400 O423 1.264 . S
O401 Mn396 2.095 . S
O401 C410 1.250 . S
O402 Mn397 2.121 . S
O402 C410 1.258 . S
C403 N404 1.326 . S
C403 C407 1.460 . S
C403 H409 0.929 . S
N404 Mn397 2.257 . S
N404 C403 1.326 . S
N404 C408 1.362 . S
C405 C406 1.258 . S
C405 C408 1.431 . S
C405 C425 1.449 . S
C406 C405 1.258 . S
C406 C407 1.477 . S
C406 H426 0.931 . S
C407 C403 1.460 . S
C407 C406 1.477 . S
C407 H427 0.930 . S
C408 N404 1.362 . S
C408 C405 1.431 . S
C408 C418 1.476 . S
H409 C403 0.929 . S
C410 O401 1.250 . S
C410 O402 1.258 . S
O411 Mn396 2.162 . S
O411 C399 1.281 . S
O412 Mn396 2.297 . S
O412 C399 1.236 . S
N413 Mn397 2.282 . S
N413 C414 1.328 . S
N413 C418 1.318 . S
C414 N413 1.328 . S
C414 C415 1.457 . S
C414 H419 0.929 . S
C415 C414 1.457 . S
C415 C416 1.291 . S
C415 H428 0.931 . S
C416 C415 1.291 . S
C416 C417 1.373 . S
C416 H429 0.929 . S
C417 C416 1.373 . S
C417 C418 1.396 . S
C417 C424 1.403 . S
C418 C408 1.476 . S
C418 N413 1.318 . S
C418 C417 1.396 . S
H419 C414 0.929 . S
O420 Mn396 2.385 . S
O420 C398 1.234 . S
O421 Mn396 2.209 . S
O421 Mn397 2.215 . S
O421 C398 1.283 . S
O422 Mn396 2.094 . S
O422 C400 1.240 . S
O423 Mn397 2.117 . S
O423 C400 1.264 . S
C424 C417 1.403 . S
C424 C425 1.399 . S
C424 H430 0.929 . S
C425 C405 1.449 . S
C425 C424 1.399 . S
C425 H431 0.930 . S
H426 C406 0.931 . S
H427 C407 0.930 . S
H428 C415 0.931 . S
H429 C416 0.929 . S
H430 C424 0.929 . S
H431 C425 0.930 . S
Mn432 O437 2.095 . S
Mn432 O447 2.162 1_545 S
Mn432 O448 2.297 1_545 S
Mn432 O456 2.385 . S
Mn432 O457 2.209 . S
Mn432 O458 2.094 . S
Mn433 O438 2.121 . S
Mn433 N440 2.257 . S
Mn433 N449 2.282 . S
Mn433 O457 2.215 . S
Mn433 O459 2.117 . S
C434 O456 1.234 . S
C434 O457 1.283 . S
C435 O447 1.281 . S
C435 O448 1.236 . S
C436 O458 1.240 . S
C436 O459 1.264 . S
O437 Mn432 2.095 . S
O437 C446 1.250 . S
O438 Mn433 2.121 . S
O438 C446 1.258 . S
C439 N440 1.326 . S
C439 C443 1.460 . S
C439 H445 0.929 . S
N440 Mn433 2.257 . S
N440 C439 1.326 . S
N440 C444 1.362 . S
C441 C442 1.258 . S
C441 C444 1.431 . S
C441 C461 1.449 . S
C442 C441 1.258 . S
C442 C443 1.477 . S
C442 H462 0.931 . S
C443 C439 1.460 . S
C443 C442 1.477 . S
C443 H463 0.930 . S
C444 N440 1.362 . S
C444 C441 1.431 . S
C444 C454 1.476 . S
H445 C439 0.929 . S
C446 O437 1.250 . S
C446 O438 1.258 . S
O447 Mn432 2.162 1_565 S
O447 C435 1.281 . S
O448 Mn432 2.297 1_565 S
O448 C435 1.236 . S
N449 Mn433 2.282 . S
N449 C450 1.328 . S
N449 C454 1.318 . S
C450 N449 1.328 . S
C450 C451 1.457 . S
C450 H455 0.929 . S
C451 C450 1.457 . S
C451 C452 1.291 . S
C451 H464 0.931 . S
C452 C451 1.291 . S
C452 C453 1.373 . S
C452 H465 0.929 . S
C453 C452 1.373 . S
C453 C454 1.396 . S
C453 C460 1.403 . S
C454 C444 1.476 . S
C454 N449 1.318 . S
C454 C453 1.396 . S
H455 C450 0.929 . S
O456 Mn432 2.385 . S
O456 C434 1.234 . S
O457 Mn432 2.209 . S
O457 Mn433 2.215 . S
O457 C434 1.283 . S
O458 Mn432 2.094 . S
O458 C436 1.240 . S
O459 Mn433 2.117 . S
O459 C436 1.264 . S
C460 C453 1.403 . S
C460 C461 1.399 . S
C460 H466 0.929 . S
C461 C441 1.449 . S
C461 C460 1.399 . S
C461 H467 0.930 . S
H462 C442 0.931 . S
H463 C443 0.930 . S
H464 C451 0.931 . S
H465 C452 0.929 . S
H466 C460 0.929 . S
H467 C461 0.930 . S
Mn468 O473 2.095 . S
Mn468 O483 2.162 . S
Mn468 O484 2.297 . S
Mn468 O492 2.385 . S
Mn468 O493 2.209 . S
Mn468 O494 2.094 . S
Mn469 O474 2.134 . S
Mn469 N476 2.257 . S
Mn469 N485 2.282 . S
Mn469 O493 2.215 . S
Mn469 O495 2.117 . S
C470 O492 1.234 . S
C470 O493 1.283 . S
C471 O483 1.281 . S
C471 O484 1.236 . S
C472 O494 1.240 . S
C472 O495 1.264 . S
O473 Mn468 2.095 . S
O473 C482 1.250 1_655 S
O474 Mn469 2.134 . S
O474 C482 1.264 1_655 S
C475 N476 1.326 1_455 S
C475 C479 1.460 . S
C475 H481 0.929 . S
N476 Mn469 2.257 . S
N476 C475 1.326 1_655 S
N476 C480 1.362 . S
C477 C478 1.258 . S
C477 C480 1.431 . S
C477 C497 1.449 . S
C478 C477 1.258 . S
C478 C479 1.477 1_655 S
C478 H498 0.931 . S
C479 C475 1.460 . S
C479 C478 1.477 1_455 S
C479 H499 0.930 . S
C480 N476 1.362 . S
C480 C477 1.431 . S
C480 C490 1.476 . S
H481 C475 0.929 . S
C482 O473 1.250 1_455 S
C482 O474 1.264 1_455 S
O483 Mn468 2.162 . S
O483 C471 1.281 . S
O484 Mn468 2.297 . S
O484 C471 1.236 . S
N485 Mn469 2.282 . S
N485 C486 1.328 . S
N485 C490 1.318 . S
C486 N485 1.328 . S
C486 C487 1.457 . S
C486 H491 0.929 . S
C487 C486 1.457 . S
C487 C488 1.291 . S
C487 H500 0.931 . S
C488 C487 1.291 . S
C488 C489 1.373 . S
C488 H501 0.929 . S
C489 C488 1.373 . S
C489 C490 1.396 . S
C489 C496 1.403 . S
C490 C480 1.476 . S
C490 N485 1.318 . S
C490 C489 1.396 . S
H491 C486 0.929 . S
O492 Mn468 2.385 . S
O492 C470 1.234 . S
O493 Mn468 2.209 . S
O493 Mn469 2.215 . S
O493 C470 1.283 . S
O494 Mn468 2.094 . S
O494 C472 1.240 . S
O495 Mn469 2.117 . S
O495 C472 1.264 . S
C496 C489 1.403 . S
C496 C497 1.399 . S
C496 H502 0.929 . S
C497 C477 1.449 . S
C497 C496 1.399 . S
C497 H503 0.930 . S
H498 C478 0.931 . S
H499 C479 0.930 . S
H500 C487 0.931 . S
H501 C488 0.929 . S
H502 C496 0.929 . S
H503 C497 0.930 . S
Mn504 O509 2.095 . S
Mn504 O519 2.162 . S
Mn504 O520 2.297 . S
Mn504 O528 2.385 . S
Mn504 O529 2.209 . S
Mn504 O530 2.094 . S
Mn505 O510 2.121 . S
Mn505 N512 2.257 . S
Mn505 N521 2.282 . S
Mn505 O529 2.215 . S
Mn505 O531 2.117 . S
C506 O528 1.234 . S
C506 O529 1.283 . S
C507 O519 1.281 . S
C507 O520 1.236 . S
C508 O530 1.240 . S
C508 O531 1.264 . S
O509 Mn504 2.095 . S
O509 C518 1.250 . S
O510 Mn505 2.121 . S
O510 C518 1.258 . S
C511 N512 1.326 . S
C511 C515 1.460 . S
C511 H517 0.929 . S
N512 Mn505 2.257 . S
N512 C511 1.326 . S
N512 C516 1.362 . S
C513 C514 1.258 . S
C513 C516 1.431 . S
C513 C533 1.449 . S
C514 C513 1.258 . S
C514 C515 1.477 . S
C514 H534 0.931 . S
C515 C511 1.460 . S
C515 C514 1.477 . S
C515 H535 0.930 . S
C516 N512 1.362 . S
C516 C513 1.431 . S
C516 C526 1.476 . S
H517 C511 0.929 . S
C518 O509 1.250 . S
C518 O510 1.258 . S
O519 Mn504 2.162 . S
O519 C507 1.281 . S
O520 Mn504 2.297 . S
O520 C507 1.236 . S
N521 Mn505 2.282 . S
N521 C522 1.328 . S
N521 C526 1.318 . S
C522 N521 1.328 . S
C522 C523 1.457 . S
C522 H527 0.929 . S
C523 C522 1.457 . S
C523 C524 1.291 . S
C523 H536 0.931 . S
C524 C523 1.291 . S
C524 C525 1.373 . S
C524 H537 0.929 . S
C525 C524 1.373 . S
C525 C526 1.396 . S
C525 C532 1.403 . S
C526 C516 1.476 . S
C526 N521 1.318 . S
C526 C525 1.396 . S
H527 C522 0.929 . S
O528 Mn504 2.385 . S
O528 C506 1.234 . S
O529 Mn504 2.209 . S
O529 Mn505 2.215 . S
O529 C506 1.283 . S
O530 Mn504 2.094 . S
O530 C508 1.240 . S
O531 Mn505 2.117 . S
O531 C508 1.264 . S
C532 C525 1.403 . S
C532 C533 1.399 . S
C532 H538 0.929 . S
C533 C513 1.449 . S
C533 C532 1.399 . S
C533 H539 0.930 . S
H534 C514 0.931 . S
H535 C515 0.930 . S
H536 C523 0.931 . S
H537 C524 0.929 . S
H538 C532 0.929 . S
H539 C533 0.930 . S
Mn540 O545 2.095 . S
Mn540 O555 2.162 . S
Mn540 O556 2.297 . S
Mn540 O564 2.385 . S
Mn540 O565 2.209 . S
Mn540 O566 2.094 . S
Mn541 O546 2.121 . S
Mn541 N548 2.257 . S
Mn541 N557 2.282 . S
Mn541 O565 2.215 . S
Mn541 O567 2.117 . S
C542 O564 1.234 . S
C542 O565 1.283 . S
C543 O555 1.281 . S
C543 O556 1.236 . S
C544 O566 1.240 . S
C544 O567 1.264 . S
O545 Mn540 2.095 . S
O545 C554 1.250 . S
O546 Mn541 2.121 . S
O546 C554 1.258 . S
C547 N548 1.326 . S
C547 C551 1.460 . S
C547 H553 0.929 . S
N548 Mn541 2.257 . S
N548 C547 1.326 . S
N548 C552 1.362 . S
C549 C550 1.258 . S
C549 C552 1.431 . S
C549 C569 1.449 . S
C550 C549 1.258 . S
C550 C551 1.477 . S
C550 H570 0.931 . S
C551 C547 1.460 . S
C551 C550 1.477 . S
C551 H571 0.930 . S
C552 N548 1.362 . S
C552 C549 1.431 . S
C552 C562 1.476 . S
H553 C547 0.929 . S
C554 O545 1.250 . S
C554 O546 1.258 . S
O555 Mn540 2.162 . S
O555 C543 1.281 . S
O556 Mn540 2.297 . S
O556 C543 1.236 . S
N557 Mn541 2.282 . S
N557 C558 1.328 . S
N557 C562 1.318 . S
C558 N557 1.328 . S
C558 C559 1.457 . S
C558 H563 0.929 . S
C559 C558 1.457 . S
C559 C560 1.291 . S
C559 H572 0.931 . S
C560 C559 1.291 . S
C560 C561 1.373 . S
C560 H573 0.929 . S
C561 C560 1.373 . S
C561 C562 1.396 . S
C561 C568 1.403 . S
C562 C552 1.476 . S
C562 N557 1.318 . S
C562 C561 1.396 . S
H563 C558 0.929 . S
O564 Mn540 2.385 . S
O564 C542 1.234 . S
O565 Mn540 2.209 . S
O565 Mn541 2.215 . S
O565 C542 1.283 . S
O566 Mn540 2.094 . S
O566 C544 1.240 . S
O567 Mn541 2.117 . S
O567 C544 1.264 . S
C568 C561 1.403 . S
C568 C569 1.399 . S
C568 H574 0.929 . S
C569 C549 1.449 . S
C569 C568 1.399 . S
C569 H575 0.930 . S
H570 C550 0.931 . S
H571 C551 0.930 . S
H572 C559 0.931 . S
H573 C560 0.929 . S
H574 C568 0.929 . S
H575 C569 0.930 . S
Mn576 O581 2.095 . S
Mn576 O591 2.162 . S
Mn576 O592 2.297 . S
Mn576 O600 2.385 . S
Mn576 O601 2.209 . S
Mn576 O602 2.094 . S
Mn577 O582 2.121 1_545 S
Mn577 N584 2.257 . S
Mn577 N593 2.282 . S
Mn577 O601 2.215 . S
Mn577 O603 2.117 . S
C578 O600 1.234 . S
C578 O601 1.283 . S
C579 O591 1.281 . S
C579 O592 1.236 . S
C580 O602 1.240 . S
C580 O603 1.264 . S
O581 Mn576 2.095 . S
O581 C590 1.250 1_545 S
O582 Mn577 2.121 1_565 S
O582 C590 1.258 . S
C583 N584 1.326 1_565 S
C583 C587 1.460 . S
C583 H589 0.929 . S
N584 Mn577 2.257 . S
N584 C583 1.326 1_545 S
N584 C588 1.362 . S
C585 C586 1.258 . S
C585 C588 1.431 . S
C585 C605 1.449 . S
C586 C585 1.258 . S
C586 C587 1.477 1_545 S
C586 H606 0.931 . S
C587 C583 1.460 . S
C587 C586 1.477 1_565 S
C587 H607 0.930 . S
C588 N584 1.362 . S
C588 C585 1.431 . S
C588 C598 1.476 . S
H589 C583 0.929 . S
C590 O581 1.250 1_565 S
C590 O582 1.258 . S
O591 Mn576 2.162 . S
O591 C579 1.281 . S
O592 Mn576 2.297 . S
O592 C579 1.236 . S
N593 Mn577 2.282 . S
N593 C594 1.328 . S
N593 C598 1.318 . S
C594 N593 1.328 . S
C594 C595 1.457 . S
C594 H599 0.929 . S
C595 C594 1.457 . S
C595 C596 1.291 . S
C595 H608 0.931 . S
C596 C595 1.291 . S
C596 C597 1.373 . S
C596 H609 0.929 . S
C597 C596 1.373 . S
C597 C598 1.396 . S
C597 C604 1.403 . S
C598 C588 1.476 . S
C598 N593 1.318 . S
C598 C597 1.396 . S
H599 C594 0.929 . S
O600 Mn576 2.385 . S
O600 C578 1.234 . S
O601 Mn576 2.209 . S
O601 Mn577 2.215 . S
O601 C578 1.283 . S
O602 Mn576 2.094 . S
O602 C580 1.240 . S
O603 Mn577 2.117 . S
O603 C580 1.264 . S
C604 C597 1.403 . S
C604 C605 1.399 . S
C604 H610 0.929 . S
C605 C585 1.449 . S
C605 C604 1.399 . S
C605 H611 0.930 . S
H606 C586 0.931 . S
H607 C587 0.930 . S
H608 C595 0.931 . S
H609 C596 0.929 . S
H610 C604 0.929 . S
H611 C605 0.930 . S
Mn612 O617 2.095 . S
Mn612 O627 2.162 1_655 S
Mn612 O628 2.297 . S
Mn612 O636 2.385 . S
Mn612 O637 2.209 . S
Mn612 O638 2.094 . S
Mn613 O618 2.121 . S
Mn613 N620 2.257 . S
Mn613 N629 2.282 . S
Mn613 O637 2.215 . S
Mn613 O639 2.117 . S
C614 O636 1.234 . S
C614 O637 1.283 . S
C615 O627 1.281 . S
C615 O628 1.236 1_455 S
C616 O638 1.240 . S
C616 O639 1.264 . S
O617 Mn612 2.095 . S
O617 C626 1.250 . S
O618 Mn613 2.121 . S
O618 C626 1.258 . S
C619 N620 1.326 . S
C619 C623 1.460 . S
C619 H625 0.929 . S
N620 Mn613 2.257 . S
N620 C619 1.326 . S
N620 C624 1.362 . S
C621 C622 1.258 . S
C621 C624 1.431 . S
C621 C641 1.449 . S
C622 C621 1.258 . S
C622 C623 1.477 . S
C622 H642 0.931 . S
C623 C619 1.460 . S
C623 C622 1.477 . S
C623 H643 0.930 . S
C624 N620 1.362 . S
C624 C621 1.431 . S
C624 C634 1.476 . S
H625 C619 0.929 . S
C626 O617 1.250 . S
C626 O618 1.258 . S
O627 Mn612 2.162 1_455 S
O627 C615 1.281 . S
O628 Mn612 2.297 . S
O628 C615 1.236 1_655 S
N629 Mn613 2.282 . S
N629 C630 1.328 . S
N629 C634 1.318 . S
C630 N629 1.328 . S
C630 C631 1.457 . S
C630 H635 0.929 . S
C631 C630 1.457 . S
C631 C632 1.291 . S
C631 H644 0.931 . S
C632 C631 1.291 . S
C632 C633 1.373 . S
C632 H645 0.929 . S
C633 C632 1.373 . S
C633 C634 1.396 . S
C633 C640 1.403 . S
C634 C624 1.476 . S
C634 N629 1.318 . S
C634 C633 1.396 . S
H635 C630 0.929 . S
O636 Mn612 2.385 . S
O636 C614 1.234 . S
O637 Mn612 2.209 . S
O637 Mn613 2.215 . S
O637 C614 1.283 . S
O638 Mn612 2.094 . S
O638 C616 1.240 . S
O639 Mn613 2.117 . S
O639 C616 1.264 . S
C640 C633 1.403 . S
C640 C641 1.399 . S
C640 H646 0.929 . S
C641 C621 1.449 . S
C641 C640 1.399 . S
C641 H647 0.930 . S
H642 C622 0.931 . S
H643 C623 0.930 . S
H644 C631 0.931 . S
H645 C632 0.929 . S
H646 C640 0.929 . S
H647 C641 0.930 . S
H648 O674 0.856 . S
H649 O677 0.854 . S
H650 C685 0.930 . S
H651 C686 0.930 . S
H652 C688 0.930 . S
H653 C689 0.930 . S
H654 C691 0.931 . S
H655 C692 0.930 . S
H656 C694 0.930 . S
H657 C695 0.929 . S
H658 C697 0.930 . S
H659 C698 0.931 . S
H660 C700 0.930 . S
H661 C701 0.929 . S
H662 C703 0.931 . S
H663 C704 0.930 . S
H664 C706 0.930 . S
H665 C707 0.932 . S
H666 C709 0.930 . S
H667 C710 0.929 . S
H668 C712 0.931 . S
H669 C713 0.930 . S
H670 C715 0.929 . S
H671 C716 0.931 . S
H672 C718 0.930 . S
H673 C719 0.929 . S
O674 H648 0.856 . S
O674 C720 1.300 . S
O675 C720 1.209 . S
O676 C721 1.199 . S
O677 H649 0.854 . S
O677 C721 1.297 . S
C678 C679 1.404 . S
C678 C683 1.397 . S
C678 C684 1.492 . S
C679 C678 1.404 . S
C679 C680 1.396 . S
C679 C690 1.492 . S
C680 C679 1.396 . S
C680 C681 1.397 . S
C680 C696 1.509 . S
C681 C680 1.397 . S
C681 C682 1.412 . S
C681 C702 1.485 . S
C682 C681 1.412 . S
C682 C683 1.388 . S
C682 C708 1.490 . S
C683 C678 1.397 . S
C683 C682 1.388 . S
C683 C714 1.519 . S
C684 C678 1.492 . S
C684 C685 1.363 . S
C684 C689 1.390 . S
C685 H650 0.930 . S
C685 C684 1.363 . S
C685 C686 1.372 . S
C686 H651 0.930 . S
C686 C685 1.372 . S
C686 C687 1.383 . S
C687 C686 1.383 . S
C687 C688 1.395 . S
C688 H652 0.930 . S
C688 C687 1.395 . S
C688 C689 1.362 . S
C689 H653 0.930 . S
C689 C684 1.390 . S
C689 C688 1.362 . S
C690 C679 1.492 . S
C690 C691 1.377 . S
C690 C695 1.397 . S
C691 H654 0.931 . S
C691 C690 1.377 . S
C691 C692 1.376 . S
C692 H655 0.930 . S
C692 C691 1.376 . S
C692 C693 1.376 . S
C693 C692 1.376 . S
C693 C694 1.378 . S
C693 C720 1.486 1_554 S
C694 H656 0.930 . S
C694 C693 1.378 . S
C694 C695 1.376 . S
C695 H657 0.929 . S
C695 C690 1.397 . S
C695 C694 1.376 . S
C696 C680 1.509 . S
C696 C697 1.391 . S
C696 C701 1.386 . S
C697 H658 0.930 . S
C697 C696 1.391 . S
C697 C698 1.375 . S
C698 H659 0.931 . S
C698 C697 1.375 . S
C698 C699 1.375 . S
C699 C698 1.375 . S
C699 C700 1.361 . S
C700 H660 0.930 . S
C700 C699 1.361 . S
C700 C701 1.399 . S
C701 H661 0.929 . S
C701 C696 1.386 . S
C701 C700 1.399 . S
C702 C681 1.485 . S
C702 C703 1.394 . S
C702 C707 1.360 . S
C703 H662 0.931 . S
C703 C702 1.394 . S
C703 C704 1.372 . S
C704 H663 0.930 . S
C704 C703 1.372 . S
C704 C705 1.397 . S
C705 C704 1.397 . S
C705 C706 1.390 . S
C705 C721 1.476 . S
C706 H664 0.930 . S
C706 C705 1.390 . S
C706 C707 1.366 . S
C707 H665 0.932 . S
C707 C702 1.360 . S
C707 C706 1.366 . S
C708 C682 1.490 . S
C708 C709 1.380 . S
C708 C713 1.386 . S
C709 H666 0.930 . S
C709 C708 1.380 . S
C709 C710 1.381 . S
C710 H667 0.929 . S
C710 C709 1.381 . S
C710 C711 1.371 . S
C711 C710 1.371 . S
C711 C712 1.380 . S
C712 H668 0.931 . S
C712 C711 1.380 . S
C712 C713 1.387 . S
C713 H669 0.930 . S
C713 C708 1.386 . S
C713 C712 1.387 . S
C714 C683 1.519 . S
C714 C715 1.377 . S
C714 C719 1.361 . S
C715 H670 0.929 . S
C715 C714 1.377 . S
C715 C716 1.386 . S
C716 H671 0.931 . S
C716 C715 1.386 . S
C716 C717 1.363 . S
C717 C716 1.363 . S
C717 C718 1.385 . S
C718 H672 0.930 . S
C718 C717 1.385 . S
C718 C719 1.396 . S
C719 H673 0.929 . S
C719 C714 1.361 . S
C719 C718 1.396 . S
C720 O674 1.300 . S
C720 O675 1.209 . S
C720 C693 1.486 1_556 S
C721 O676 1.199 . S
C721 O677 1.297 . S
C721 C705 1.476 . S
H722 O748 0.856 . S
H723 O751 0.854 . S
H724 C759 0.930 . S
H725 C760 0.930 . S
H726 C762 0.930 . S
H727 C763 0.930 . S
H728 C765 0.931 . S
H729 C766 0.930 . S
H730 C768 0.930 . S
H731 C769 0.929 . S
H732 C771 0.930 . S
H733 C772 0.931 . S
H734 C774 0.930 . S
H735 C775 0.929 . S
H736 C777 0.931 . S
H737 C778 0.930 . S
H738 C780 0.930 . S
H739 C781 0.932 . S
H740 C783 0.930 . S
H741 C784 0.929 . S
H742 C786 0.931 . S
H743 C787 0.930 . S
H744 C789 0.929 . S
H745 C790 0.931 . S
H746 C792 0.930 . S
H747 C793 0.929 . S
O748 H722 0.856 . S
O748 C794 1.300 . S
O749 C794 1.209 . S
O750 C795 1.199 . S
O751 H723 0.854 . S
O751 C795 1.297 . S
C752 C753 1.404 . S
C752 C757 1.397 . S
C752 C758 1.492 . S
C753 C752 1.404 . S
C753 C754 1.396 . S
C753 C764 1.492 . S
C754 C753 1.396 . S
C754 C755 1.397 . S
C754 C770 1.509 . S
C755 C754 1.397 . S
C755 C756 1.412 . S
C755 C776 1.485 . S
C756 C755 1.412 . S
C756 C757 1.388 . S
C756 C782 1.490 . S
C757 C752 1.397 . S
C757 C756 1.388 . S
C757 C788 1.519 . S
C758 C752 1.492 . S
C758 C759 1.363 . S
C758 C763 1.390 . S
C759 H724 0.930 . S
C759 C758 1.363 . S
C759 C760 1.372 . S
C760 H725 0.930 . S
C760 C759 1.372 . S
C760 C761 1.383 . S
C761 C760 1.383 . S
C761 C762 1.395 . S
C762 H726 0.930 . S
C762 C761 1.395 . S
C762 C763 1.362 . S
C763 H727 0.930 . S
C763 C758 1.390 . S
C763 C762 1.362 . S
C764 C753 1.492 . S
C764 C765 1.377 . S
C764 C769 1.397 . S
C765 H728 0.931 . S
C765 C764 1.377 . S
C765 C766 1.376 . S
C766 H729 0.930 . S
C766 C765 1.376 . S
C766 C767 1.376 . S
C767 C766 1.376 . S
C767 C768 1.378 . S
C767 C794 1.486 1_554 S
C768 H730 0.930 . S
C768 C767 1.378 . S
C768 C769 1.376 . S
C769 H731 0.929 . S
C769 C764 1.397 . S
C769 C768 1.376 . S
C770 C754 1.509 . S
C770 C771 1.391 . S
C770 C775 1.386 . S
C771 H732 0.930 . S
C771 C770 1.391 . S
C771 C772 1.375 . S
C772 H733 0.931 . S
C772 C771 1.375 . S
C772 C773 1.375 . S
C773 C772 1.375 . S
C773 C774 1.361 . S
C774 H734 0.930 . S
C774 C773 1.361 . S
C774 C775 1.399 . S
C775 H735 0.929 . S
C775 C770 1.386 . S
C775 C774 1.399 . S
C776 C755 1.485 . S
C776 C777 1.394 . S
C776 C781 1.360 . S
C777 H736 0.931 . S
C777 C776 1.394 . S
C777 C778 1.372 . S
C778 H737 0.930 . S
C778 C777 1.372 . S
C778 C779 1.397 1_565 S
C779 C778 1.397 1_545 S
C779 C780 1.390 . S
C779 C795 1.476 . S
C780 H738 0.930 . S
C780 C779 1.390 . S
C780 C781 1.366 1_545 S
C781 H739 0.932 . S
C781 C776 1.360 . S
C781 C780 1.366 1_565 S
C782 C756 1.490 . S
C782 C783 1.380 . S
C782 C787 1.386 . S
C783 H740 0.930 . S
C783 C782 1.380 . S
C783 C784 1.381 . S
C784 H741 0.929 . S
C784 C783 1.381 . S
C784 C785 1.371 . S
C785 C784 1.371 . S
C785 C786 1.380 . S
C786 H742 0.931 . S
C786 C785 1.380 . S
C786 C787 1.387 . S
C787 H743 0.930 . S
C787 C782 1.386 . S
C787 C786 1.387 . S
C788 C757 1.519 . S
C788 C789 1.377 . S
C788 C793 1.361 . S
C789 H744 0.929 . S
C789 C788 1.377 . S
C789 C790 1.386 . S
C790 H745 0.931 . S
C790 C789 1.386 . S
C790 C791 1.363 . S
C791 C790 1.363 . S
C791 C792 1.385 . S
C792 H746 0.930 . S
C792 C791 1.385 . S
C792 C793 1.396 . S
C793 H747 0.929 . S
C793 C788 1.361 . S
C793 C792 1.396 . S
C794 O748 1.300 . S
C794 O749 1.209 . S
C794 C767 1.486 1_556 S
C795 O750 1.199 . S
C795 O751 1.297 . S
C795 C779 1.476 . S
H796 O822 0.856 . S
H797 O825 0.854 . S
H798 C833 0.930 . S
H799 C834 0.930 . S
H800 C836 0.930 . S
H801 C837 0.930 . S
H802 C839 0.931 . S
H803 C840 0.930 . S
H804 C842 0.930 . S
H805 C843 0.929 . S
H806 C845 0.930 . S
H807 C846 0.931 . S
H808 C848 0.930 . S
H809 C849 0.929 . S
H810 C851 0.931 . S
H811 C852 0.930 1_545 S
H812 C854 0.930 . S
H813 C855 0.932 . S
H814 C857 0.930 . S
H815 C858 0.929 . S
H816 C860 0.931 . S
H817 C861 0.930 . S
H818 C863 0.929 . S
H819 C864 0.931 . S
H820 C866 0.930 . S
H821 C867 0.929 . S
O822 H796 0.856 . S
O822 C868 1.300 . S
O823 C868 1.209 . S
O824 C869 1.199 . S
O825 H797 0.854 . S
O825 C869 1.297 . S
C826 C827 1.404 . S
C826 C831 1.397 . S
C826 C832 1.492 . S
C827 C826 1.404 . S
C827 C828 1.396 . S
C827 C838 1.492 . S
C828 C827 1.396 . S
C828 C829 1.397 . S
C828 C844 1.509 . S
C829 C828 1.397 . S
C829 C830 1.412 . S
C829 C850 1.485 . S
C830 C829 1.412 . S
C830 C831 1.388 . S
C830 C856 1.490 . S
C831 C826 1.397 . S
C831 C830 1.388 . S
C831 C862 1.519 . S
C832 C826 1.492 . S
C832 C833 1.363 . S
C832 C837 1.390 . S
C833 H798 0.930 . S
C833 C832 1.363 . S
C833 C834 1.372 . S
C834 H799 0.930 . S
C834 C833 1.372 . S
C834 C835 1.383 . S
C835 C834 1.383 . S
C835 C836 1.395 . S
C836 H800 0.930 . S
C836 C835 1.395 . S
C836 C837 1.362 . S
C837 H801 0.930 . S
C837 C832 1.390 . S
C837 C836 1.362 . S
C838 C827 1.492 . S
C838 C839 1.377 . S
C838 C843 1.397 . S
C839 H802 0.931 . S
C839 C838 1.377 . S
C839 C840 1.376 . S
C840 H803 0.930 . S
C840 C839 1.376 . S
C840 C841 1.376 . S
C841 C840 1.376 . S
C841 C842 1.378 . S
C841 C868 1.486 1_554 S
C842 H804 0.930 . S
C842 C841 1.378 . S
C842 C843 1.376 . S
C843 H805 0.929 . S
C843 C838 1.397 . S
C843 C842 1.376 . S
C844 C828 1.509 . S
C844 C845 1.391 . S
C844 C849 1.386 . S
C845 H806 0.930 . S
C845 C844 1.391 . S
C845 C846 1.375 . S
C846 H807 0.931 . S
C846 C845 1.375 . S
C846 C847 1.375 . S
C847 C846 1.375 . S
C847 C848 1.361 . S
C848 H808 0.930 . S
C848 C847 1.361 . S
C848 C849 1.399 . S
C849 H809 0.929 . S
C849 C844 1.386 . S
C849 C848 1.399 . S
C850 C829 1.485 . S
C850 C851 1.394 . S
C850 C855 1.360 . S
C851 H810 0.931 . S
C851 C850 1.394 . S
C851 C852 1.372 . S
C852 H811 0.930 1_565 S
C852 C851 1.372 . S
C852 C853 1.397 . S
C853 C852 1.397 . S
C853 C854 1.390 . S
C853 C869 1.476 1_565 S
C854 H812 0.930 . S
C854 C853 1.390 . S
C854 C855 1.366 . S
C855 H813 0.932 . S
C855 C850 1.360 . S
C855 C854 1.366 . S
C856 C830 1.490 . S
C856 C857 1.380 . S
C856 C861 1.386 . S
C857 H814 0.930 . S
C857 C856 1.380 . S
C857 C858 1.381 . S
C858 H815 0.929 . S
C858 C857 1.381 . S
C858 C859 1.371 . S
C859 C858 1.371 . S
C859 C860 1.380 . S
C860 H816 0.931 . S
C860 C859 1.380 . S
C860 C861 1.387 . S
C861 H817 0.930 . S
C861 C856 1.386 . S
C861 C860 1.387 . S
C862 C831 1.519 . S
C862 C863 1.377 . S
C862 C867 1.361 . S
C863 H818 0.929 . S
C863 C862 1.377 . S
C863 C864 1.386 . S
C864 H819 0.931 . S
C864 C863 1.386 . S
C864 C865 1.363 . S
C865 C864 1.363 . S
C865 C866 1.385 . S
C866 H820 0.930 . S
C866 C865 1.385 . S
C866 C867 1.396 . S
C867 H821 0.929 . S
C867 C862 1.361 . S
C867 C866 1.396 . S
C868 O822 1.300 . S
C868 O823 1.209 . S
C868 C841 1.486 1_556 S
C869 O824 1.199 . S
C869 O825 1.297 . S
C869 C853 1.476 1_545 S
H870 O896 0.856 . S
H871 O899 0.854 . S
H872 C907 0.930 . S
H873 C908 0.930 . S
H874 C910 0.930 . S
H875 C911 0.930 . S
H876 C913 0.931 . S
H877 C914 0.930 . S
H878 C916 0.930 . S
H879 C917 0.929 1_556 S
H880 C919 0.930 . S
H881 C920 0.931 . S
H882 C922 0.930 . S
H883 C923 0.929 . S
H884 C925 0.931 . S
H885 C926 0.930 1_565 S
H886 C928 0.930 . S
H887 C929 0.932 . S
H888 C931 0.930 . S
H889 C932 0.929 . S
H890 C934 0.931 . S
H891 C935 0.930 . S
H892 C937 0.929 . S
H893 C938 0.931 . S
H894 C940 0.930 . S
H895 C941 0.929 . S
O896 H870 0.856 . S
O896 C942 1.300 . S
O897 C942 1.209 . S
O898 C943 1.199 . S
O899 H871 0.854 . S
O899 C943 1.297 . S
C900 C901 1.404 . S
C900 C905 1.397 . S
C900 C906 1.492 . S
C901 C900 1.404 . S
C901 C902 1.396 . S
C901 C912 1.492 . S
C902 C901 1.396 . S
C902 C903 1.397 . S
C902 C918 1.509 . S
C903 C902 1.397 . S
C903 C904 1.412 . S
C903 C924 1.485 . S
C904 C903 1.412 . S
C904 C905 1.388 . S
C904 C930 1.490 . S
C905 C900 1.397 . S
C905 C904 1.388 . S
C905 C936 1.519 . S
C906 C900 1.492 . S
C906 C907 1.363 . S
C906 C911 1.390 . S
C907 H872 0.930 . S
C907 C906 1.363 . S
C907 C908 1.372 . S
C908 H873 0.930 . S
C908 C907 1.372 . S
C908 C909 1.383 . S
C909 C908 1.383 . S
C909 C910 1.395 . S
C910 H874 0.930 . S
C910 C909 1.395 . S
C910 C911 1.362 . S
C911 H875 0.930 . S
C911 C906 1.390 . S
C911 C910 1.362 . S
C912 C901 1.492 . S
C912 C913 1.377 1_556 S
C912 C917 1.397 1_556 S
C913 H876 0.931 . S
C913 C912 1.377 1_554 S
C913 C914 1.376 . S
C914 H877 0.930 . S
C914 C913 1.376 . S
C914 C915 1.376 . S
C915 C914 1.376 . S
C915 C916 1.378 . S
C915 C942 1.486 . S
C916 H878 0.930 . S
C916 C915 1.378 . S
C916 C917 1.376 . S
C917 H879 0.929 1_554 S
C917 C912 1.397 1_554 S
C917 C916 1.376 . S
C918 C902 1.509 . S
C918 C919 1.391 . S
C918 C923 1.386 . S
C919 H880 0.930 . S
C919 C918 1.391 . S
C919 C920 1.375 1_556 S
C920 H881 0.931 . S
C920 C919 1.375 1_554 S
C920 C921 1.375 . S
C921 C920 1.375 . S
C921 C922 1.361 . S
C922 H882 0.930 . S
C922 C921 1.361 . S
C922 C923 1.399 1_554 S
C923 H883 0.929 . S
C923 C918 1.386 . S
C923 C922 1.399 1_556 S
C924 C903 1.485 . S
C924 C925 1.394 . S
C924 C929 1.360 . S
C925 H884 0.931 . S
C925 C924 1.394 . S
C925 C926 1.372 . S
C926 H885 0.930 1_545 S
C926 C925 1.372 . S
C926 C927 1.397 . S
C927 C926 1.397 . S
C927 C928 1.390 . S
C927 C943 1.476 1_545 S
C928 H886 0.930 . S
C928 C927 1.390 . S
C928 C929 1.366 . S
C929 H887 0.932 . S
C929 C924 1.360 . S
C929 C928 1.366 . S
C930 C904 1.490 . S
C930 C931 1.380 . S
C930 C935 1.386 . S
C931 H888 0.930 . S
C931 C930 1.380 . S
C931 C932 1.381 . S
C932 H889 0.929 . S
C932 C931 1.381 . S
C932 C933 1.371 . S
C933 C932 1.371 . S
C933 C934 1.380 . S
C934 H890 0.931 . S
C934 C933 1.380 . S
C934 C935 1.387 . S
C935 H891 0.930 . S
C935 C930 1.386 . S
C935 C934 1.387 . S
C936 C905 1.519 . S
C936 C937 1.377 . S
C936 C941 1.361 . S
C937 H892 0.929 . S
C937 C936 1.377 . S
C937 C938 1.386 . S
C938 H893 0.931 . S
C938 C937 1.386 . S
C938 C939 1.363 . S
C939 C938 1.363 . S
C939 C940 1.385 . S
C940 H894 0.930 . S
C940 C939 1.385 . S
C940 C941 1.396 . S
C941 H895 0.929 . S
C941 C936 1.361 . S
C941 C940 1.396 . S
C942 O896 1.300 . S
C942 O897 1.209 . S
C942 C915 1.486 . S
C943 O898 1.199 . S
C943 O899 1.297 . S
C943 C927 1.476 1_565 S
H944 O970 0.856 . S
H945 O973 0.854 . S
H946 C981 0.930 . S
H947 C982 0.930 . S
H948 C984 0.930 . S
H949 C985 0.930 . S
H950 C987 0.931 . S
H951 C988 0.930 . S
H952 C990 0.930 . S
H953 C991 0.941 . S
H954 C993 0.930 . S
H955 C994 0.931 . S
H956 C996 0.930 . S
H957 C997 0.929 . S
H958 C999 0.931 . S
H959 C1000 0.930 . S
H960 C1002 0.930 . S
H961 C1003 0.932 . S
H962 C1005 0.930 . S
H963 C1006 0.929 . S
H964 C1008 0.931 . S
H965 C1009 0.930 . S
H966 C1011 0.929 . S
H967 C1012 0.931 . S
H968 C1014 0.930 . S
H969 C1015 0.929 . S
O970 H944 0.856 . S
O970 C1016 1.300 . S
O971 C1016 1.209 . S
O972 C1017 1.199 . S
O973 H945 0.854 . S
O973 C1017 1.297 . S
C974 C975 1.404 . S
C974 C979 1.397 . S
C974 C980 1.492 . S
C975 C974 1.404 . S
C975 C976 1.396 . S
C975 C986 1.492 . S
C976 C975 1.396 . S
C976 C977 1.397 . S
C976 C992 1.509 . S
C977 C976 1.397 . S
C977 C978 1.412 . S
C977 C998 1.485 . S
C978 C977 1.412 . S
C978 C979 1.388 . S
C978 C1004 1.490 . S
C979 C974 1.397 . S
C979 C978 1.388 . S
C979 C1010 1.519 . S
C980 C974 1.492 . S
C980 C981 1.363 . S
C980 C985 1.390 . S
C981 H946 0.930 . S
C981 C980 1.363 . S
C981 C982 1.372 . S
C982 H947 0.930 . S
C982 C981 1.372 . S
C982 C983 1.383 . S
C983 C982 1.383 . S
C983 C984 1.395 . S
C984 H948 0.930 . S
C984 C983 1.395 . S
C984 C985 1.362 . S
C985 H949 0.930 . S
C985 C980 1.390 . S
C985 C984 1.362 . S
C986 C975 1.492 . S
C986 C987 1.377 1_556 S
C986 C991 1.397 1_556 S
C987 H950 0.931 . S
C987 C986 1.377 1_554 S
C987 C988 1.376 . S
C988 H951 0.930 . S
C988 C987 1.376 . S
C988 C989 1.376 . S
C989 C988 1.376 . S
C989 C990 1.378 . S
C989 C1016 1.486 . S
C990 H952 0.930 . S
C990 C989 1.378 . S
C990 C991 1.376 . S
C991 H953 0.941 . S
C991 C986 1.397 1_554 S
C991 C990 1.376 . S
C992 C976 1.509 . S
C992 C993 1.391 . S
C992 C997 1.386 . S
C993 H954 0.930 . S
C993 C992 1.391 . S
C993 C994 1.375 . S
C994 H955 0.931 . S
C994 C993 1.375 . S
C994 C995 1.375 1_556 S
C995 C994 1.375 1_554 S
C995 C996 1.361 . S
C996 H956 0.930 . S
C996 C995 1.361 . S
C996 C997 1.399 1_554 S
C997 H957 0.929 . S
C997 C992 1.386 . S
C997 C996 1.399 1_556 S
C998 C977 1.485 . S
C998 C999 1.394 . S
C998 C1003 1.360 . S
C999 H958 0.931 . S
C999 C998 1.394 . S
C999 C1000 1.372 . S
C1000 H959 0.930 . S
C1000 C999 1.372 . S
C1000 C1001 1.397 1_545 S
C1001 C1000 1.397 1_565 S
C1001 C1002 1.390 . S
C1001 C1017 1.476 . S
C1002 H960 0.930 . S
C1002 C1001 1.390 . S
C1002 C1003 1.366 1_565 S
C1003 H961 0.932 . S
C1003 C998 1.360 . S
C1003 C1002 1.366 1_545 S
C1004 C978 1.490 . S
C1004 C1005 1.380 . S
C1004 C1009 1.386 . S
C1005 H962 0.930 . S
C1005 C1004 1.380 . S
C1005 C1006 1.381 . S
C1006 H963 0.929 . S
C1006 C1005 1.381 . S
C1006 C1007 1.371 . S
C1007 C1006 1.371 . S
C1007 C1008 1.380 . S
C1008 H964 0.931 . S
C1008 C1007 1.380 . S
C1008 C1009 1.387 . S
C1009 H965 0.930 . S
C1009 C1004 1.386 . S
C1009 C1008 1.387 . S
C1010 C979 1.519 . S
C1010 C1011 1.377 . S
C1010 C1015 1.361 . S
C1011 H966 0.929 . S
C1011 C1010 1.377 . S
C1011 C1012 1.386 . S
C1012 H967 0.931 . S
C1012 C1011 1.386 . S
C1012 C1013 1.363 . S
C1013 C1012 1.363 . S
C1013 C1014 1.385 . S
C1014 H968 0.930 . S
C1014 C1013 1.385 . S
C1014 C1015 1.396 . S
C1015 H969 0.929 . S
C1015 C1010 1.361 . S
C1015 C1014 1.396 . S
C1016 O970 1.300 . S
C1016 O971 1.209 . S
C1016 C989 1.486 . S
C1017 O972 1.199 . S
C1017 O973 1.297 . S
C1017 C1001 1.476 . S
H1018 O1044 0.856 . S
H1019 O1047 0.854 . S
H1020 C1055 0.930 . S
H1021 C1056 0.930 1_554 S
H1022 C1058 0.930 . S
H1023 C1059 0.930 . S
H1024 C1061 0.931 . S
H1025 C1062 0.930 . S
H1026 C1064 0.930 . S
H1027 C1065 0.926 1_556 S
H1028 C1067 0.930 1_556 S
H1029 C1068 0.931 . S
H1030 C1070 0.930 . S
H1031 C1071 0.935 . S
H1032 C1073 0.931 . S
H1033 C1074 0.930 . S
H1034 C1076 0.930 . S
H1035 C1077 0.932 . S
H1036 C1079 0.930 . S
H1037 C1080 0.929 . S
H1038 C1082 0.931 . S
H1039 C1083 0.930 . S
H1040 C1085 0.929 . S
H1041 C1086 0.931 . S
H1042 C1088 0.930 . S
H1043 C1089 0.929 . S
O1044 H1018 0.856 . S
O1044 C1090 1.300 . S
O1045 C1090 1.209 . S
O1046 C1091 1.199 . S
O1047 H1019 0.854 . S
O1047 C1091 1.297 . S
C1048 C1049 1.404 . S
C1048 C1053 1.397 . S
C1048 C1054 1.492 . S
C1049 C1048 1.404 . S
C1049 C1050 1.396 . S
C1049 C1060 1.492 1_556 S
C1050 C1049 1.396 . S
C1050 C1051 1.397 . S
C1050 C1066 1.509 . S
C1051 C1050 1.397 . S
C1051 C1052 1.412 . S
C1051 C1072 1.485 . S
C1052 C1051 1.412 . S
C1052 C1053 1.388 . S
C1052 C1078 1.490 . S
C1053 C1048 1.397 . S
C1053 C1052 1.388 . S
C1053 C1084 1.519 . S
C1054 C1048 1.492 . S
C1054 C1055 1.363 . S
C1054 C1059 1.390 . S
C1055 H1020 0.930 . S
C1055 C1054 1.363 . S
C1055 C1056 1.372 . S
C1056 H1021 0.930 1_556 S
C1056 C1055 1.372 . S
C1056 C1057 1.383 . S
C1057 C1056 1.383 . S
C1057 C1058 1.395 . S
C1058 H1022 0.930 . S
C1058 C1057 1.395 . S
C1058 C1059 1.362 . S
C1059 H1023 0.930 . S
C1059 C1054 1.390 . S
C1059 C1058 1.362 . S
C1060 C1049 1.492 1_554 S
C1060 C1061 1.377 . S
C1060 C1065 1.397 . S
C1061 H1024 0.931 . S
C1061 C1060 1.377 . S
C1061 C1062 1.376 . S
C1062 H1025 0.930 . S
C1062 C1061 1.376 . S
C1062 C1063 1.376 . S
C1063 C1062 1.376 . S
C1063 C1064 1.378 . S
C1063 C1090 1.486 . S
C1064 H1026 0.930 . S
C1064 C1063 1.378 . S
C1064 C1065 1.376 . S
C1065 H1027 0.926 1_554 S
C1065 C1060 1.397 . S
C1065 C1064 1.376 . S
C1066 C1050 1.509 . S
C1066 C1067 1.391 1_556 S
C1066 C1071 1.395 . S
C1067 H1028 0.930 1_554 S
C1067 C1066 1.391 1_554 S
C1067 C1068 1.375 . S
C1068 H1029 0.931 . S
C1068 C1067 1.375 . S
C1068 C1069 1.375 . S
C1069 C1068 1.375 . S
C1069 C1070 1.361 . S
C1070 H1030 0.930 . S
C1070 C1069 1.361 . S
C1070 C1071 1.385 1_554 S
C1071 H1031 0.935 . S
C1071 C1066 1.395 . S
C1071 C1070 1.385 1_556 S
C1072 C1051 1.485 . S
C1072 C1073 1.394 . S
C1072 C1077 1.360 . S
C1073 H1032 0.931 . S
C1073 C1072 1.394 . S
C1073 C1074 1.372 . S
C1074 H1033 0.930 . S
C1074 C1073 1.372 . S
C1074 C1075 1.397 . S
C1075 C1074 1.397 . S
C1075 C1076 1.390 . S
C1075 C1091 1.476 . S
C1076 H1034 0.930 . S
C1076 C1075 1.390 . S
C1076 C1077 1.366 . S
C1077 H1035 0.932 . S
C1077 C1072 1.360 . S
C1077 C1076 1.366 . S
C1078 C1052 1.490 . S
C1078 C1079 1.380 . S
C1078 C1083 1.386 . S
C1079 H1036 0.930 . S
C1079 C1078 1.380 . S
C1079 C1080 1.381 . S
C1080 H1037 0.929 . S
C1080 C1079 1.381 . S
C1080 C1081 1.371 . S
C1081 C1080 1.371 . S
C1081 C1082 1.380 . S
C1082 H1038 0.931 . S
C1082 C1081 1.380 . S
C1082 C1083 1.387 . S
C1083 H1039 0.930 . S
C1083 C1078 1.386 . S
C1083 C1082 1.387 . S
C1084 C1053 1.519 . S
C1084 C1085 1.377 . S
C1084 C1089 1.361 . S
C1085 H1040 0.929 . S
C1085 C1084 1.377 . S
C1085 C1086 1.386 . S
C1086 H1041 0.931 . S
C1086 C1085 1.386 . S
C1086 C1087 1.363 . S
C1087 C1086 1.363 . S
C1087 C1088 1.385 . S
C1088 H1042 0.930 . S
C1088 C1087 1.385 . S
C1088 C1089 1.396 . S
C1089 H1043 0.929 . S
C1089 C1084 1.361 . S
C1089 C1088 1.396 . S
C1090 O1044 1.300 . S
C1090 O1045 1.209 . S
C1090 C1063 1.486 . S
C1091 O1046 1.199 . S
C1091 O1047 1.297 . S
C1091 C1075 1.476 . S
H1092 O1118 0.856 . S
H1093 O1121 0.854 1_455 S
H1094 C1129 0.930 . S
H1095 C1130 0.930 . S
H1096 C1132 0.930 . S
H1097 C1133 0.930 . S
H1098 C1135 0.931 . S
H1099 C1136 0.930 . S
H1100 C1138 0.930 . S
H1101 C1139 0.929 . S
H1102 C1141 0.930 . S
H1103 C1142 0.931 . S
H1104 C1144 0.930 . S
H1105 C1145 0.929 . S
H1106 C1147 0.931 . S
H1107 C1148 0.930 . S
H1108 C1150 0.930 . S
H1109 C1151 0.932 . S
H1110 C1153 0.930 . S
H1111 C1154 0.929 . S
H1112 C1156 0.931 . S
H1113 C1157 0.930 . S
H1114 C1159 0.929 . S
H1115 C1160 0.931 . S
H1116 C1162 0.930 . S
H1117 C1163 0.929 . S
O1118 H1092 0.856 . S
O1118 C1164 1.300 . S
O1119 C1164 1.209 . S
O1120 C1165 1.199 1_455 S
O1121 H1093 0.854 1_655 S
O1121 C1165 1.297 . S
C1122 C1123 1.404 . S
C1122 C1127 1.397 . S
C1122 C1128 1.492 . S
C1123 C1122 1.404 . S
C1123 C1124 1.396 . S
C1123 C1134 1.492 . S
C1124 C1123 1.396 . S
C1124 C1125 1.397 . S
C1124 C1140 1.509 . S
C1125 C1124 1.397 . S
C1125 C1126 1.412 . S
C1125 C1146 1.485 . S
C1126 C1125 1.412 . S
C1126 C1127 1.388 . S
C1126 C1152 1.490 . S
C1127 C1122 1.397 . S
C1127 C1126 1.388 . S
C1127 C1158 1.519 . S
C1128 C1122 1.492 . S
C1128 C1129 1.363 . S
C1128 C1133 1.390 . S
C1129 H1094 0.930 . S
C1129 C1128 1.363 . S
C1129 C1130 1.372 . S
C1130 H1095 0.930 . S
C1130 C1129 1.372 . S
C1130 C1131 1.383 . S
C1131 C1130 1.383 . S
C1131 C1132 1.395 . S
C1132 H1096 0.930 . S
C1132 C1131 1.395 . S
C1132 C1133 1.362 . S
C1133 H1097 0.930 . S
C1133 C1128 1.390 . S
C1133 C1132 1.362 . S
C1134 C1123 1.492 . S
C1134 C1135 1.377 . S
C1134 C1139 1.397 . S
C1135 H1098 0.931 . S
C1135 C1134 1.377 . S
C1135 C1136 1.376 . S
C1136 H1099 0.930 . S
C1136 C1135 1.376 . S
C1136 C1137 1.376 . S
C1137 C1136 1.376 . S
C1137 C1138 1.378 . S
C1137 C1164 1.486 . S
C1138 H1100 0.930 . S
C1138 C1137 1.378 . S
C1138 C1139 1.376 . S
C1139 H1101 0.929 . S
C1139 C1134 1.397 . S
C1139 C1138 1.376 . S
C1140 C1124 1.509 . S
C1140 C1141 1.391 . S
C1140 C1145 1.386 . S
C1141 H1102 0.930 . S
C1141 C1140 1.391 . S
C1141 C1142 1.375 . S
C1142 H1103 0.931 . S
C1142 C1141 1.375 . S
C1142 C1143 1.375 . S
C1143 C1142 1.375 . S
C1143 C1144 1.361 . S
C1144 H1104 0.930 . S
C1144 C1143 1.361 . S
C1144 C1145 1.399 . S
C1145 H1105 0.929 . S
C1145 C1140 1.386 . S
C1145 C1144 1.399 . S
C1146 C1125 1.485 . S
C1146 C1147 1.394 . S
C1146 C1151 1.360 . S
C1147 H1106 0.931 . S
C1147 C1146 1.394 . S
C1147 C1148 1.372 . S
C1148 H1107 0.930 . S
C1148 C1147 1.372 . S
C1148 C1149 1.397 . S
C1149 C1148 1.397 . S
C1149 C1150 1.390 . S
C1149 C1165 1.476 . S
C1150 H1108 0.930 . S
C1150 C1149 1.390 . S
C1150 C1151 1.366 . S
C1151 H1109 0.932 . S
C1151 C1146 1.360 . S
C1151 C1150 1.366 . S
C1152 C1126 1.490 . S
C1152 C1153 1.380 . S
C1152 C1157 1.386 . S
C1153 H1110 0.930 . S
C1153 C1152 1.380 . S
C1153 C1154 1.381 . S
C1154 H1111 0.929 . S
C1154 C1153 1.381 . S
C1154 C1155 1.371 . S
C1155 C1154 1.371 . S
C1155 C1156 1.380 . S
C1156 H1112 0.931 . S
C1156 C1155 1.380 . S
C1156 C1157 1.387 . S
C1157 H1113 0.930 . S
C1157 C1152 1.386 . S
C1157 C1156 1.387 . S
C1158 C1127 1.519 . S
C1158 C1159 1.377 . S
C1158 C1163 1.361 . S
C1159 H1114 0.929 . S
C1159 C1158 1.377 . S
C1159 C1160 1.386 . S
C1160 H1115 0.931 . S
C1160 C1159 1.386 . S
C1160 C1161 1.363 . S
C1161 C1160 1.363 . S
C1161 C1162 1.385 . S
C1162 H1116 0.930 . S
C1162 C1161 1.385 . S
C1162 C1163 1.396 . S
C1163 H1117 0.929 . S
C1163 C1158 1.361 . S
C1163 C1162 1.396 . S
C1164 O1118 1.300 . S
C1164 O1119 1.209 . S
C1164 C1137 1.486 . S
C1165 O1120 1.199 1_655 S
C1165 O1121 1.297 . S
C1165 C1149 1.476 . S
H1166 O1192 0.856 . S
H1167 O1195 0.854 . S
H1168 C1203 0.930 . S
H1169 C1204 0.930 . S
H1170 C1206 0.930 . S
H1171 C1207 0.930 . S
H1172 C1209 0.931 . S
H1173 C1210 0.930 . S
H1174 C1212 0.930 . S
H1175 C1213 0.929 . S
H1176 C1215 0.930 . S
H1177 C1216 0.931 . S
H1178 C1218 0.930 . S
H1179 C1219 0.929 . S
H1180 C1221 0.931 . S
H1181 C1222 0.930 . S
H1182 C1224 0.930 . S
H1183 C1225 0.932 . S
H1184 C1227 0.930 . S
H1185 C1228 0.929 . S
H1186 C1230 0.931 . S
H1187 C1231 0.930 . S
H1188 C1233 0.929 . S
H1189 C1234 0.931 . S
H1190 C1236 0.930 . S
H1191 C1237 0.929 . S
O1192 H1166 0.856 . S
O1192 C1238 1.300 . S
O1193 C1238 1.209 . S
O1194 C1239 1.199 . S
O1195 H1167 0.854 . S
O1195 C1239 1.297 . S
C1196 C1197 1.404 . S
C1196 C1201 1.397 . S
C1196 C1202 1.492 . S
C1197 C1196 1.404 . S
C1197 C1198 1.396 . S
C1197 C1208 1.492 . S
C1198 C1197 1.396 . S
C1198 C1199 1.397 . S
C1198 C1214 1.509 . S
C1199 C1198 1.397 . S
C1199 C1200 1.412 . S
C1199 C1220 1.485 . S
C1200 C1199 1.412 . S
C1200 C1201 1.388 . S
C1200 C1226 1.490 . S
C1201 C1196 1.397 . S
C1201 C1200 1.388 . S
C1201 C1232 1.519 . S
C1202 C1196 1.492 . S
C1202 C1203 1.363 . S
C1202 C1207 1.390 . S
C1203 H1168 0.930 . S
C1203 C1202 1.363 . S
C1203 C1204 1.372 . S
C1204 H1169 0.930 . S
C1204 C1203 1.372 . S
C1204 C1205 1.383 . S
C1205 C1204 1.383 . S
C1205 C1206 1.395 . S
C1206 H1170 0.930 . S
C1206 C1205 1.395 . S
C1206 C1207 1.362 . S
C1207 H1171 0.930 . S
C1207 C1202 1.390 . S
C1207 C1206 1.362 . S
C1208 C1197 1.492 . S
C1208 C1209 1.377 . S
C1208 C1213 1.397 . S
C1209 H1172 0.931 . S
C1209 C1208 1.377 . S
C1209 C1210 1.376 . S
C1210 H1173 0.930 . S
C1210 C1209 1.376 . S
C1210 C1211 1.376 . S
C1211 C1210 1.376 . S
C1211 C1212 1.378 . S
C1211 C1238 1.486 . S
C1212 H1174 0.930 . S
C1212 C1211 1.378 . S
C1212 C1213 1.376 . S
C1213 H1175 0.929 . S
C1213 C1208 1.397 . S
C1213 C1212 1.376 . S
C1214 C1198 1.509 . S
C1214 C1215 1.391 . S
C1214 C1219 1.386 . S
C1215 H1176 0.930 . S
C1215 C1214 1.391 . S
C1215 C1216 1.375 . S
C1216 H1177 0.931 . S
C1216 C1215 1.375 . S
C1216 C1217 1.375 . S
C1217 C1216 1.375 . S
C1217 C1218 1.361 . S
C1218 H1178 0.930 . S
C1218 C1217 1.361 . S
C1218 C1219 1.399 . S
C1219 H1179 0.929 . S
C1219 C1214 1.386 . S
C1219 C1218 1.399 . S
C1220 C1199 1.485 . S
C1220 C1221 1.394 . S
C1220 C1225 1.360 . S
C1221 H1180 0.931 . S
C1221 C1220 1.394 . S
C1221 C1222 1.372 . S
C1222 H1181 0.930 . S
C1222 C1221 1.372 . S
C1222 C1223 1.397 . S
C1223 C1222 1.397 . S
C1223 C1224 1.390 . S
C1223 C1239 1.476 . S
C1224 H1182 0.930 . S
C1224 C1223 1.390 . S
C1224 C1225 1.366 . S
C1225 H1183 0.932 . S
C1225 C1220 1.360 . S
C1225 C1224 1.366 . S
C1226 C1200 1.490 . S
C1226 C1227 1.380 . S
C1226 C1231 1.386 . S
C1227 H1184 0.930 . S
C1227 C1226 1.380 . S
C1227 C1228 1.381 . S
C1228 H1185 0.929 . S
C1228 C1227 1.381 . S
C1228 C1229 1.371 . S
C1229 C1228 1.371 . S
C1229 C1230 1.380 . S
C1230 H1186 0.931 . S
C1230 C1229 1.380 . S
C1230 C1231 1.387 . S
C1231 H1187 0.930 . S
C1231 C1226 1.386 . S
C1231 C1230 1.387 . S
C1232 C1201 1.519 . S
C1232 C1233 1.377 . S
C1232 C1237 1.361 . S
C1233 H1188 0.929 . S
C1233 C1232 1.377 . S
C1233 C1234 1.386 . S
C1234 H1189 0.931 . S
C1234 C1233 1.386 . S
C1234 C1235 1.363 . S
C1235 C1234 1.363 . S
C1235 C1236 1.385 . S
C1236 H1190 0.930 . S
C1236 C1235 1.385 . S
C1236 C1237 1.396 . S
C1237 H1191 0.929 . S
C1237 C1232 1.361 . S
C1237 C1236 1.396 . S
C1238 O1192 1.300 . S
C1238 O1193 1.209 . S
C1238 C1211 1.486 . S
C1239 O1194 1.199 . S
C1239 O1195 1.297 . S
C1239 C1223 1.476 . S
H1240 O1266 0.856 . S
H1241 O1269 0.854 . S
H1242 C1277 0.930 . S
H1243 C1278 0.930 . S
H1244 C1280 0.930 . S
H1245 C1281 0.930 . S
H1246 C1283 0.931 . S
H1247 C1284 0.930 . S
H1248 C1286 0.930 . S
H1249 C1287 0.929 . S
H1250 C1289 0.930 . S
H1251 C1290 0.931 . S
H1252 C1292 0.930 . S
H1253 C1293 0.929 . S
H1254 C1295 0.931 . S
H1255 C1296 0.930 . S
H1256 C1298 0.930 . S
H1257 C1299 0.932 . S
H1258 C1301 0.930 . S
H1259 C1302 0.929 . S
H1260 C1304 0.931 . S
H1261 C1305 0.930 . S
H1262 C1307 0.929 . S
H1263 C1308 0.931 . S
H1264 C1310 0.930 . S
H1265 C1311 0.929 . S
O1266 H1240 0.856 . S
O1266 C1312 1.300 . S
O1267 C1312 1.209 . S
O1268 C1313 1.199 . S
O1269 H1241 0.854 . S
O1269 C1313 1.297 1_455 S
C1270 C1271 1.404 . S
C1270 C1275 1.397 . S
C1270 C1276 1.492 . S
C1271 C1270 1.404 . S
C1271 C1272 1.396 . S
C1271 C1282 1.492 . S
C1272 C1271 1.396 . S
C1272 C1273 1.397 . S
C1272 C1288 1.509 . S
C1273 C1272 1.397 . S
C1273 C1274 1.412 . S
C1273 C1294 1.485 . S
C1274 C1273 1.412 . S
C1274 C1275 1.388 . S
C1274 C1300 1.490 . S
C1275 C1270 1.397 . S
C1275 C1274 1.388 . S
C1275 C1306 1.519 . S
C1276 C1270 1.492 . S
C1276 C1277 1.363 . S
C1276 C1281 1.390 . S
C1277 H1242 0.930 . S
C1277 C1276 1.363 . S
C1277 C1278 1.372 . S
C1278 H1243 0.930 . S
C1278 C1277 1.372 . S
C1278 C1279 1.383 . S
C1279 C1278 1.383 . S
C1279 C1280 1.395 . S
C1280 H1244 0.930 . S
C1280 C1279 1.395 . S
C1280 C1281 1.362 . S
C1281 H1245 0.930 . S
C1281 C1276 1.390 . S
C1281 C1280 1.362 . S
C1282 C1271 1.492 . S
C1282 C1283 1.377 . S
C1282 C1287 1.397 . S
C1283 H1246 0.931 . S
C1283 C1282 1.377 . S
C1283 C1284 1.376 . S
C1284 H1247 0.930 . S
C1284 C1283 1.376 . S
C1284 C1285 1.376 . S
C1285 C1284 1.376 . S
C1285 C1286 1.378 . S
C1285 C1312 1.486 . S
C1286 H1248 0.930 . S
C1286 C1285 1.378 . S
C1286 C1287 1.376 . S
C1287 H1249 0.929 . S
C1287 C1282 1.397 . S
C1287 C1286 1.376 . S
C1288 C1272 1.509 . S
C1288 C1289 1.391 . S
C1288 C1293 1.386 . S
C1289 H1250 0.930 . S
C1289 C1288 1.391 . S
C1289 C1290 1.375 . S
C1290 H1251 0.931 . S
C1290 C1289 1.375 . S
C1290 C1291 1.375 . S
C1291 C1290 1.375 . S
C1291 C1292 1.361 . S
C1292 H1252 0.930 . S
C1292 C1291 1.361 . S
C1292 C1293 1.399 . S
C1293 H1253 0.929 . S
C1293 C1288 1.386 . S
C1293 C1292 1.399 . S
C1294 C1273 1.485 . S
C1294 C1295 1.394 . S
C1294 C1299 1.360 . S
C1295 H1254 0.931 . S
C1295 C1294 1.394 . S
C1295 C1296 1.372 . S
C1296 H1255 0.930 . S
C1296 C1295 1.372 . S
C1296 C1297 1.397 . S
C1297 C1296 1.397 . S
C1297 C1298 1.390 . S
C1297 C1313 1.476 . S
C1298 H1256 0.930 . S
C1298 C1297 1.390 . S
C1298 C1299 1.366 . S
C1299 H1257 0.932 . S
C1299 C1294 1.360 . S
C1299 C1298 1.366 . S
C1300 C1274 1.490 . S
C1300 C1301 1.380 . S
C1300 C1305 1.386 . S
C1301 H1258 0.930 . S
C1301 C1300 1.380 . S
C1301 C1302 1.381 . S
C1302 H1259 0.929 . S
C1302 C1301 1.381 . S
C1302 C1303 1.371 . S
C1303 C1302 1.371 . S
C1303 C1304 1.380 . S
C1304 H1260 0.931 . S
C1304 C1303 1.380 . S
C1304 C1305 1.387 . S
C1305 H1261 0.930 . S
C1305 C1300 1.386 . S
C1305 C1304 1.387 . S
C1306 C1275 1.519 . S
C1306 C1307 1.377 . S
C1306 C1311 1.361 . S
C1307 H1262 0.929 . S
C1307 C1306 1.377 . S
C1307 C1308 1.386 . S
C1308 H1263 0.931 . S
C1308 C1307 1.386 . S
C1308 C1309 1.363 . S
C1309 C1308 1.363 . S
C1309 C1310 1.385 . S
C1310 H1264 0.930 . S
C1310 C1309 1.385 . S
C1310 C1311 1.396 . S
C1311 H1265 0.929 . S
C1311 C1306 1.361 . S
C1311 C1310 1.396 . S
C1312 O1266 1.300 . S
C1312 O1267 1.209 . S
C1312 C1285 1.486 . S
C1313 O1268 1.199 . S
C1313 O1269 1.297 1_655 S
C1313 C1297 1.476 . S
H1314 O1340 0.856 . S
H1315 O1343 0.854 . S
H1316 C1351 0.930 . S
H1317 C1352 0.930 . S
H1318 C1354 0.930 . S
H1319 C1355 0.930 . S
H1320 C1357 0.931 . S
H1321 C1358 0.930 1_655 S
H1322 C1360 0.930 . S
H1323 C1361 0.929 . S
H1324 C1363 0.930 . S
H1325 C1364 0.931 1_655 S
H1326 C1366 0.930 . S
H1327 C1367 0.929 . S
H1328 C1369 0.931 . S
H1329 C1370 0.930 . S
H1330 C1372 0.930 . S
H1331 C1373 0.932 . S
H1332 C1375 0.930 . S
H1333 C1376 0.929 . S
H1334 C1378 0.931 . S
H1335 C1379 0.930 . S
H1336 C1381 0.929 . S
H1337 C1382 0.931 . S
H1338 C1384 0.930 . S
H1339 C1385 0.929 . S
O1340 H1314 0.856 . S
O1340 C1386 1.300 . S
O1341 C1386 1.209 . S
O1342 C1387 1.199 1_655 S
O1343 H1315 0.854 . S
O1343 C1387 1.297 . S
C1344 C1345 1.404 . S
C1344 C1349 1.397 . S
C1344 C1350 1.492 . S
C1345 C1344 1.404 . S
C1345 C1346 1.396 . S
C1345 C1356 1.492 . S
C1346 C1345 1.396 . S
C1346 C1347 1.397 . S
C1346 C1362 1.509 . S
C1347 C1346 1.397 . S
C1347 C1348 1.415 . S
C1347 C1368 1.485 . S
C1348 C1347 1.415 . S
C1348 C1349 1.385 . S
C1348 C1374 1.491 1_455 S
C1349 C1344 1.397 . S
C1349 C1348 1.385 . S
C1349 C1380 1.519 1_455 S
C1350 C1344 1.492 . S
C1350 C1351 1.363 1_455 S
C1350 C1355 1.390 . S
C1351 H1316 0.930 . S
C1351 C1350 1.363 1_655 S
C1351 C1352 1.372 . S
C1352 H1317 0.930 . S
C1352 C1351 1.372 . S
C1352 C1353 1.383 . S
C1353 C1352 1.383 . S
C1353 C1354 1.395 1_655 S
C1354 H1318 0.930 . S
C1354 C1353 1.395 1_455 S
C1354 C1355 1.362 . S
C1355 H1319 0.930 . S
C1355 C1350 1.390 . S
C1355 C1354 1.362 . S
C1356 C1345 1.492 . S
C1356 C1357 1.377 1_455 S
C1356 C1361 1.397 . S
C1357 H1320 0.931 . S
C1357 C1356 1.377 1_655 S
C1357 C1358 1.376 1_655 S
C1358 H1321 0.930 1_455 S
C1358 C1357 1.376 1_455 S
C1358 C1359 1.376 . S
C1359 C1358 1.376 . S
C1359 C1360 1.378 . S
C1359 C1386 1.486 . S
C1360 H1322 0.930 . S
C1360 C1359 1.378 . S
C1360 C1361 1.376 . S
C1361 H1323 0.929 . S
C1361 C1356 1.397 . S
C1361 C1360 1.376 . S
C1362 C1346 1.509 . S
C1362 C1363 1.391 1_455 S
C1362 C1367 1.386 . S
C1363 H1324 0.930 . S
C1363 C1362 1.391 1_655 S
C1363 C1364 1.375 1_655 S
C1364 H1325 0.931 1_455 S
C1364 C1363 1.375 1_455 S
C1364 C1365 1.375 . S
C1365 C1364 1.375 . S
C1365 C1366 1.361 . S
C1366 H1326 0.930 . S
C1366 C1365 1.361 . S
C1366 C1367 1.399 . S
C1367 H1327 0.929 . S
C1367 C1362 1.386 . S
C1367 C1366 1.399 . S
C1368 C1347 1.485 . S
C1368 C1369 1.394 1_455 S
C1368 C1373 1.360 . S
C1369 H1328 0.931 . S
C1369 C1368 1.394 1_655 S
C1369 C1370 1.372 . S
C1370 H1329 0.930 . S
C1370 C1369 1.372 . S
C1370 C1371 1.397 1_655 S
C1371 C1370 1.397 1_455 S
C1371 C1372 1.390 . S
C1371 C1387 1.476 . S
C1372 H1330 0.930 . S
C1372 C1371 1.390 . S
C1372 C1373 1.366 . S
C1373 H1331 0.932 . S
C1373 C1368 1.360 . S
C1373 C1372 1.366 . S
C1374 C1348 1.491 1_655 S
C1374 C1375 1.380 . S
C1374 C1379 1.386 1_655 S
C1375 H1332 0.930 . S
C1375 C1374 1.380 . S
C1375 C1376 1.381 . S
C1376 H1333 0.929 . S
C1376 C1375 1.381 . S
C1376 C1377 1.371 . S
C1377 C1376 1.371 . S
C1377 C1378 1.380 1_655 S
C1378 H1334 0.931 . S
C1378 C1377 1.380 1_455 S
C1378 C1379 1.387 . S
C1379 H1335 0.930 . S
C1379 C1374 1.386 1_455 S
C1379 C1378 1.387 . S
C1380 C1349 1.519 1_655 S
C1380 C1381 1.377 . S
C1380 C1385 1.361 1_655 S
C1381 H1336 0.929 . S
C1381 C1380 1.377 . S
C1381 C1382 1.386 . S
C1382 H1337 0.931 . S
C1382 C1381 1.386 . S
C1382 C1383 1.363 . S
C1383 C1382 1.363 . S
C1383 C1384 1.385 1_655 S
C1384 H1338 0.930 . S
C1384 C1383 1.385 1_455 S
C1384 C1385 1.396 . S
C1385 H1339 0.929 . S
C1385 C1380 1.361 1_455 S
C1385 C1384 1.396 . S
C1386 O1340 1.300 . S
C1386 O1341 1.209 . S
C1386 C1359 1.486 . S
C1387 O1342 1.199 1_455 S
C1387 O1343 1.297 . S
C1387 C1371 1.476 . S
H1388 O1414 0.856 . S
H1389 O1417 0.854 . S
H1390 C1425 0.930 . S
H1391 C1426 0.930 . S
H1392 C1428 0.930 . S
H1393 C1429 0.930 . S
H1394 C1431 0.931 . S
H1395 C1432 0.930 . S
H1396 C1434 0.930 . S
H1397 C1435 0.929 . S
H1398 C1437 0.930 . S
H1399 C1438 0.931 . S
H1400 C1440 0.930 . S
H1401 C1441 0.929 . S
H1402 C1443 0.931 . S
H1403 C1444 0.930 . S
H1404 C1446 0.930 . S
H1405 C1447 0.932 . S
H1406 C1449 0.930 . S
H1407 C1450 0.929 . S
H1408 C1452 0.931 . S
H1409 C1453 0.930 . S
H1410 C1455 0.929 . S
H1411 C1456 0.931 . S
H1412 C1458 0.930 . S
H1413 C1459 0.929 . S
O1414 H1388 0.856 . S
O1414 C1460 1.300 . S
O1415 C1460 1.209 . S
O1416 C1461 1.199 . S
O1417 H1389 0.854 . S
O1417 C1461 1.297 . S
C1418 C1419 1.404 . S
C1418 C1423 1.397 . S
C1418 C1424 1.492 . S
C1419 C1418 1.404 . S
C1419 C1420 1.396 . S
C1419 C1430 1.492 . S
C1420 C1419 1.396 . S
C1420 C1421 1.397 . S
C1420 C1436 1.509 . S
C1421 C1420 1.397 . S
C1421 C1422 1.412 . S
C1421 C1442 1.485 . S
C1422 C1421 1.412 . S
C1422 C1423 1.388 . S
C1422 C1448 1.490 . S
C1423 C1418 1.397 . S
C1423 C1422 1.388 . S
C1423 C1454 1.519 . S
C1424 C1418 1.492 . S
C1424 C1425 1.363 . S
C1424 C1429 1.390 . S
C1425 H1390 0.930 . S
C1425 C1424 1.363 . S
C1425 C1426 1.372 . S
C1426 H1391 0.930 . S
C1426 C1425 1.372 . S
C1426 C1427 1.383 . S
C1427 C1426 1.383 . S
C1427 C1428 1.395 . S
C1428 H1392 0.930 . S
C1428 C1427 1.395 . S
C1428 C1429 1.362 . S
C1429 H1393 0.930 . S
C1429 C1424 1.390 . S
C1429 C1428 1.362 . S
C1430 C1419 1.492 . S
C1430 C1431 1.377 . S
C1430 C1435 1.397 . S
C1431 H1394 0.931 . S
C1431 C1430 1.377 . S
C1431 C1432 1.376 . S
C1432 H1395 0.930 . S
C1432 C1431 1.376 . S
C1432 C1433 1.376 . S
C1433 C1432 1.376 . S
C1433 C1434 1.378 . S
C1433 C1460 1.486 . S
C1434 H1396 0.930 . S
C1434 C1433 1.378 . S
C1434 C1435 1.376 . S
C1435 H1397 0.929 . S
C1435 C1430 1.397 . S
C1435 C1434 1.376 . S
C1436 C1420 1.509 . S
C1436 C1437 1.391 . S
C1436 C1441 1.386 . S
C1437 H1398 0.930 . S
C1437 C1436 1.391 . S
C1437 C1438 1.375 . S
C1438 H1399 0.931 . S
C1438 C1437 1.375 . S
C1438 C1439 1.375 . S
C1439 C1438 1.375 . S
C1439 C1440 1.361 . S
C1440 H1400 0.930 . S
C1440 C1439 1.361 . S
C1440 C1441 1.399 . S
C1441 H1401 0.929 . S
C1441 C1436 1.386 . S
C1441 C1440 1.399 . S
C1442 C1421 1.485 . S
C1442 C1443 1.394 . S
C1442 C1447 1.360 . S
C1443 H1402 0.931 . S
C1443 C1442 1.394 . S
C1443 C1444 1.372 . S
C1444 H1403 0.930 . S
C1444 C1443 1.372 . S
C1444 C1445 1.397 . S
C1445 C1444 1.397 . S
C1445 C1446 1.390 . S
C1445 C1461 1.476 . S
C1446 H1404 0.930 . S
C1446 C1445 1.390 . S
C1446 C1447 1.366 . S
C1447 H1405 0.932 . S
C1447 C1442 1.360 . S
C1447 C1446 1.366 . S
C1448 C1422 1.490 . S
C1448 C1449 1.380 . S
C1448 C1453 1.386 . S
C1449 H1406 0.930 . S
C1449 C1448 1.380 . S
C1449 C1450 1.381 . S
C1450 H1407 0.929 . S
C1450 C1449 1.381 . S
C1450 C1451 1.371 . S
C1451 C1450 1.371 . S
C1451 C1452 1.380 . S
C1452 H1408 0.931 . S
C1452 C1451 1.380 . S
C1452 C1453 1.387 . S
C1453 H1409 0.930 . S
C1453 C1448 1.386 . S
C1453 C1452 1.387 . S
C1454 C1423 1.519 . S
C1454 C1455 1.377 . S
C1454 C1459 1.361 . S
C1455 H1410 0.929 . S
C1455 C1454 1.377 . S
C1455 C1456 1.386 . S
C1456 H1411 0.931 . S
C1456 C1455 1.386 . S
C1456 C1457 1.363 . S
C1457 C1456 1.363 . S
C1457 C1458 1.385 . S
C1458 H1412 0.930 . S
C1458 C1457 1.385 . S
C1458 C1459 1.396 . S
C1459 H1413 0.929 . S
C1459 C1454 1.361 . S
C1459 C1458 1.396 . S
C1460 O1414 1.300 . S
C1460 O1415 1.209 . S
C1460 C1433 1.486 . S
C1461 O1416 1.199 . S
C1461 O1417 1.297 . S
C1461 C1445 1.476 . S
H1462 O1488 0.856 . S
H1463 O1491 0.854 . S
H1464 C1499 0.930 . S
H1465 C1500 0.930 . S
H1466 C1502 0.930 . S
H1467 C1503 0.930 . S
H1468 C1505 0.931 . S
H1469 C1506 0.930 1_545 S
H1470 C1508 0.930 . S
H1471 C1509 0.929 . S
H1472 C1511 0.930 . S
H1473 C1512 0.919 1_545 S
H1474 C1514 0.930 . S
H1475 C1515 0.929 . S
H1476 C1517 0.931 . S
H1477 C1518 0.930 . S
H1478 C1520 0.930 . S
H1479 C1521 0.932 . S
H1480 C1523 0.930 . S
H1481 C1524 0.929 . S
H1482 C1526 0.931 . S
H1483 C1527 0.930 . S
H1484 C1529 0.929 . S
H1485 C1530 0.931 . S
H1486 C1532 0.930 . S
H1487 C1533 0.929 . S
O1488 H1462 0.856 . S
O1488 C1534 1.300 . S
O1489 C1534 1.209 . S
O1490 C1535 1.199 1_545 S
O1491 H1463 0.854 . S
O1491 C1535 1.297 . S
C1492 C1493 1.404 . S
C1492 C1497 1.397 . S
C1492 C1498 1.492 . S
C1493 C1492 1.404 . S
C1493 C1494 1.396 . S
C1493 C1504 1.492 . S
C1494 C1493 1.396 . S
C1494 C1495 1.397 . S
C1494 C1510 1.509 . S
C1495 C1494 1.397 . S
C1495 C1496 1.409 . S
C1495 C1516 1.485 . S
C1496 C1495 1.409 . S
C1496 C1497 1.399 . S
C1496 C1522 1.483 1_565 S
C1497 C1492 1.397 . S
C1497 C1496 1.399 . S
C1497 C1528 1.527 1_565 S
C1498 C1492 1.492 . S
C1498 C1499 1.363 1_565 S
C1498 C1503 1.390 . S
C1499 H1464 0.930 . S
C1499 C1498 1.363 1_545 S
C1499 C1500 1.372 . S
C1500 H1465 0.930 . S
C1500 C1499 1.372 . S
C1500 C1501 1.383 . S
C1501 C1500 1.383 . S
C1501 C1502 1.395 1_545 S
C1502 H1466 0.930 . S
C1502 C1501 1.395 1_565 S
C1502 C1503 1.362 . S
C1503 H1467 0.930 . S
C1503 C1498 1.390 . S
C1503 C1502 1.362 . S
C1504 C1493 1.492 . S
C1504 C1505 1.377 1_565 S
C1504 C1509 1.397 . S
C1505 H1468 0.931 . S
C1505 C1504 1.377 1_545 S
C1505 C1506 1.376 1_545 S
C1506 H1469 0.930 1_565 S
C1506 C1505 1.376 1_565 S
C1506 C1507 1.376 . S
C1507 C1506 1.376 . S
C1507 C1508 1.378 . S
C1507 C1534 1.486 . S
C1508 H1470 0.930 . S
C1508 C1507 1.378 . S
C1508 C1509 1.376 . S
C1509 H1471 0.929 . S
C1509 C1504 1.397 . S
C1509 C1508 1.376 . S
C1510 C1494 1.509 . S
C1510 C1511 1.391 1_565 S
C1510 C1515 1.386 . S
C1511 H1472 0.930 . S
C1511 C1510 1.391 1_545 S
C1511 C1512 1.376 1_545 S
C1512 H1473 0.919 1_565 S
C1512 C1511 1.376 1_565 S
C1512 C1513 1.385 . S
C1513 C1512 1.385 . S
C1513 C1514 1.361 . S
C1514 H1474 0.930 . S
C1514 C1513 1.361 . S
C1514 C1515 1.399 . S
C1515 H1475 0.929 . S
C1515 C1510 1.386 . S
C1515 C1514 1.399 . S
C1516 C1495 1.485 . S
C1516 C1517 1.394 1_565 S
C1516 C1521 1.360 . S
C1517 H1476 0.931 . S
C1517 C1516 1.394 1_545 S
C1517 C1518 1.372 . S
C1518 H1477 0.930 . S
C1518 C1517 1.372 . S
C1518 C1519 1.397 1_545 S
C1519 C1518 1.397 1_565 S
C1519 C1520 1.390 . S
C1519 C1535 1.476 . S
C1520 H1478 0.930 . S
C1520 C1519 1.390 . S
C1520 C1521 1.366 . S
C1521 H1479 0.932 . S
C1521 C1516 1.360 . S
C1521 C1520 1.366 . S
C1522 C1496 1.483 1_545 S
C1522 C1523 1.380 . S
C1522 C1527 1.386 1_545 S
C1523 H1480 0.930 . S
C1523 C1522 1.380 . S
C1523 C1524 1.381 . S
C1524 H1481 0.929 . S
C1524 C1523 1.381 . S
C1524 C1525 1.371 . S
C1525 C1524 1.371 . S
C1525 C1526 1.380 1_545 S
C1526 H1482 0.931 . S
C1526 C1525 1.380 1_565 S
C1526 C1527 1.387 . S
C1527 H1483 0.930 . S
C1527 C1522 1.386 1_565 S
C1527 C1526 1.387 . S
C1528 C1497 1.527 1_545 S
C1528 C1529 1.389 . S
C1528 C1533 1.340 1_545 S
C1529 H1484 0.929 . S
C1529 C1528 1.389 . S
C1529 C1530 1.386 . S
C1530 H1485 0.931 . S
C1530 C1529 1.386 . S
C1530 C1531 1.369 . S
C1531 C1530 1.369 . S
C1531 C1532 1.382 1_545 S
C1532 H1486 0.930 . S
C1532 C1531 1.382 1_565 S
C1532 C1533 1.396 . S
C1533 H1487 0.929 . S
C1533 C1528 1.340 1_565 S
C1533 C1532 1.396 . S
C1534 O1488 1.300 . S
C1534 O1489 1.209 . S
C1534 C1507 1.486 . S
C1535 O1490 1.199 1_565 S
C1535 O1491 1.297 . S
C1535 C1519 1.476 . S
H1536 O1562 0.856 . S
H1537 O1565 0.854 . S
H1538 C1573 0.930 . S
H1539 C1574 0.930 . S
H1540 C1576 0.930 . S
H1541 C1577 0.930 . S
H1542 C1579 0.931 . S
H1543 C1580 0.930 . S
H1544 C1582 0.930 . S
H1545 C1583 0.929 . S
H1546 C1585 0.930 . S
H1547 C1586 0.931 . S
H1548 C1588 0.930 . S
H1549 C1589 0.929 . S
H1550 C1591 0.931 . S
H1551 C1592 0.930 . S
H1552 C1594 0.930 . S
H1553 C1595 0.932 . S
H1554 C1597 0.930 . S
H1555 C1598 0.929 . S
H1556 C1600 0.931 . S
H1557 C1601 0.930 . S
H1558 C1603 0.929 . S
H1559 C1604 0.931 . S
H1560 C1606 0.930 . S
H1561 C1607 0.929 . S
O1562 H1536 0.856 . S
O1562 C1608 1.300 . S
O1563 C1608 1.209 1_565 S
O1564 C1609 1.199 1_545 S
O1565 H1537 0.854 . S
O1565 C1609 1.297 . S
C1566 C1567 1.404 . S
C1566 C1571 1.396 1_545 S
C1566 C1572 1.492 . S
C1567 C1566 1.404 . S
C1567 C1568 1.396 . S
C1567 C1578 1.492 . S
C1568 C1567 1.396 . S
C1568 C1569 1.396 . S
C1568 C1584 1.509 . S
C1569 C1568 1.396 . S
C1569 C1570 1.420 1_545 S
C1569 C1590 1.487 1_545 S
C1570 C1569 1.420 1_565 S
C1570 C1571 1.375 . S
C1570 C1596 1.497 . S
C1571 C1566 1.396 1_565 S
C1571 C1570 1.375 . S
C1571 C1602 1.518 . S
C1572 C1566 1.492 . S
C1572 C1573 1.363 . S
C1572 C1577 1.390 1_545 S
C1573 H1538 0.930 . S
C1573 C1572 1.363 . S
C1573 C1574 1.372 . S
C1574 H1539 0.930 . S
C1574 C1573 1.372 . S
C1574 C1575 1.383 . S
C1575 C1574 1.383 . S
C1575 C1576 1.395 1_545 S
C1576 H1540 0.930 . S
C1576 C1575 1.395 1_565 S
C1576 C1577 1.362 . S
C1577 H1541 0.930 . S
C1577 C1572 1.390 1_565 S
C1577 C1576 1.362 . S
C1578 C1567 1.492 . S
C1578 C1579 1.377 . S
C1578 C1583 1.397 1_545 S
C1579 H1542 0.931 . S
C1579 C1578 1.377 . S
C1579 C1580 1.376 . S
C1580 H1543 0.930 . S
C1580 C1579 1.376 . S
C1580 C1581 1.376 . S
C1581 C1580 1.376 . S
C1581 C1582 1.378 1_545 S
C1581 C1608 1.486 . S
C1582 H1544 0.930 . S
C1582 C1581 1.378 1_565 S
C1582 C1583 1.376 . S
C1583 H1545 0.929 . S
C1583 C1578 1.397 1_565 S
C1583 C1582 1.376 . S
C1584 C1568 1.509 . S
C1584 C1585 1.391 . S
C1584 C1589 1.386 1_545 S
C1585 H1546 0.930 . S
C1585 C1584 1.391 . S
C1585 C1586 1.375 . S
C1586 H1547 0.931 . S
C1586 C1585 1.375 . S
C1586 C1587 1.375 . S
C1587 C1586 1.375 . S
C1587 C1588 1.361 1_545 S
C1588 H1548 0.930 . S
C1588 C1587 1.361 1_565 S
C1588 C1589 1.399 . S
C1589 H1549 0.929 . S
C1589 C1584 1.386 1_565 S
C1589 C1588 1.399 . S
C1590 C1569 1.487 1_565 S
C1590 C1591 1.394 1_565 S
C1590 C1595 1.360 . S
C1591 H1550 0.931 . S
C1591 C1590 1.394 1_545 S
C1591 C1592 1.372 . S
C1592 H1551 0.930 . S
C1592 C1591 1.372 . S
C1592 C1593 1.397 1_545 S
C1593 C1592 1.397 1_565 S
C1593 C1594 1.390 . S
C1593 C1609 1.476 . S
C1594 H1552 0.930 . S
C1594 C1593 1.390 . S
C1594 C1595 1.366 . S
C1595 H1553 0.932 . S
C1595 C1590 1.360 . S
C1595 C1594 1.366 . S
C1596 C1570 1.497 . S
C1596 C1597 1.380 1_565 S
C1596 C1601 1.386 . S
C1597 H1554 0.930 . S
C1597 C1596 1.380 1_545 S
C1597 C1598 1.381 . S
C1598 H1555 0.929 . S
C1598 C1597 1.381 . S
C1598 C1599 1.379 . S
C1599 C1598 1.379 . S
C1599 C1600 1.373 1_545 S
C1600 H1556 0.931 . S
C1600 C1599 1.373 1_565 S
C1600 C1601 1.387 . S
C1601 H1557 0.930 . S
C1601 C1596 1.386 . S
C1601 C1600 1.387 . S
C1602 C1571 1.518 . S
C1602 C1603 1.377 1_565 S
C1602 C1607 1.361 . S
C1603 H1558 0.929 . S
C1603 C1602 1.377 1_545 S
C1603 C1604 1.386 . S
C1604 H1559 0.931 . S
C1604 C1603 1.386 . S
C1604 C1605 1.363 1_545 S
C1605 C1604 1.363 1_565 S
C1605 C1606 1.385 . S
C1606 H1560 0.930 . S
C1606 C1605 1.385 . S
C1606 C1607 1.396 . S
C1607 H1561 0.929 . S
C1607 C1602 1.361 . S
C1607 C1606 1.396 . S
C1608 O1562 1.300 . S
C1608 O1563 1.209 1_545 S
C1608 C1581 1.486 . S
C1609 O1564 1.199 1_565 S
C1609 O1565 1.297 . S
C1609 C1593 1.476 . S
H1610 O1636 0.856 . S
H1611 O1639 0.854 . S
H1612 C1647 0.930 . S
H1613 C1648 0.930 . S
H1614 C1650 0.930 . S
H1615 C1651 0.930 . S
H1616 C1653 0.931 . S
H1617 C1654 0.930 . S
H1618 C1656 0.930 . S
H1619 C1657 0.929 . S
H1620 C1659 0.930 . S
H1621 C1660 0.931 . S
H1622 C1662 0.930 . S
H1623 C1663 0.929 . S
H1624 C1665 0.931 . S
H1625 C1666 0.930 . S
H1626 C1668 0.930 . S
H1627 C1669 0.932 . S
H1628 C1671 0.930 . S
H1629 C1672 0.929 . S
H1630 C1674 0.931 . S
H1631 C1675 0.930 . S
H1632 C1677 0.929 . S
H1633 C1678 0.931 . S
H1634 C1680 0.930 . S
H1635 C1681 0.929 . S
O1636 H1610 0.856 . S
O1636 C1682 1.300 . S
O1637 C1682 1.209 . S
O1638 C1683 1.199 1_655 S
O1639 H1611 0.854 . S
O1639 C1683 1.297 . S
C1640 C1641 1.404 . S
C1640 C1645 1.397 . S
C1640 C1646 1.492 . S
C1641 C1640 1.404 . S
C1641 C1642 1.396 . S
C1641 C1652 1.492 . S
C1642 C1641 1.396 . S
C1642 C1643 1.395 . S
C1642 C1658 1.509 . S
C1643 C1642 1.395 . S
C1643 C1644 1.402 1_655 S
C1643 C1664 1.499 1_655 S
C1644 C1643 1.402 1_455 S
C1644 C1645 1.387 1_455 S
C1644 C1670 1.490 . S
C1645 C1640 1.397 . S
C1645 C1644 1.387 1_655 S
C1645 C1676 1.520 1_655 S
C1646 C1640 1.492 . S
C1646 C1647 1.363 . S
C1646 C1651 1.390 1_655 S
C1647 H1612 0.930 . S
C1647 C1646 1.363 . S
C1647 C1648 1.372 . S
C1648 H1613 0.930 . S
C1648 C1647 1.372 . S
C1648 C1649 1.383 . S
C1649 C1648 1.383 . S
C1649 C1650 1.395 1_655 S
C1650 H1614 0.930 . S
C1650 C1649 1.395 1_455 S
C1650 C1651 1.362 . S
C1651 H1615 0.930 . S
C1651 C1646 1.390 1_455 S
C1651 C1650 1.362 . S
C1652 C1641 1.492 . S
C1652 C1653 1.377 . S
C1652 C1657 1.397 1_655 S
C1653 H1616 0.931 . S
C1653 C1652 1.377 . S
C1653 C1654 1.376 . S
C1654 H1617 0.930 . S
C1654 C1653 1.376 . S
C1654 C1655 1.376 . S
C1655 C1654 1.376 . S
C1655 C1656 1.378 1_655 S
C1655 C1682 1.486 . S
C1656 H1618 0.930 . S
C1656 C1655 1.378 1_455 S
C1656 C1657 1.376 . S
C1657 H1619 0.929 . S
C1657 C1652 1.397 1_455 S
C1657 C1656 1.376 . S
C1658 C1642 1.509 . S
C1658 C1659 1.391 . S
C1658 C1663 1.386 1_655 S
C1659 H1620 0.930 . S
C1659 C1658 1.391 . S
C1659 C1660 1.375 . S
C1660 H1621 0.931 . S
C1660 C1659 1.375 . S
C1660 C1661 1.375 . S
C1661 C1660 1.375 . S
C1661 C1662 1.361 1_655 S
C1662 H1622 0.930 . S
C1662 C1661 1.361 1_455 S
C1662 C1663 1.399 . S
C1663 H1623 0.929 . S
C1663 C1658 1.386 1_455 S
C1663 C1662 1.399 . S
C1664 C1643 1.499 1_455 S
C1664 C1665 1.394 1_455 S
C1664 C1669 1.360 . S
C1665 H1624 0.931 . S
C1665 C1664 1.394 1_655 S
C1665 C1666 1.372 . S
C1666 H1625 0.930 . S
C1666 C1665 1.372 . S
C1666 C1667 1.397 1_655 S
C1667 C1666 1.397 1_455 S
C1667 C1668 1.390 . S
C1667 C1683 1.476 . S
C1668 H1626 0.930 . S
C1668 C1667 1.390 . S
C1668 C1669 1.366 . S
C1669 H1627 0.932 . S
C1669 C1664 1.360 . S
C1669 C1668 1.366 . S
C1670 C1644 1.490 . S
C1670 C1671 1.380 1_455 S
C1670 C1675 1.386 . S
C1671 H1628 0.930 . S
C1671 C1670 1.380 1_655 S
C1671 C1672 1.381 . S
C1672 H1629 0.929 . S
C1672 C1671 1.381 . S
C1672 C1673 1.371 1_656 S
C1673 C1672 1.371 1_454 S
C1673 C1674 1.380 1_554 S
C1674 H1630 0.931 . S
C1674 C1673 1.380 1_556 S
C1674 C1675 1.387 . S
C1675 H1631 0.930 . S
C1675 C1670 1.386 . S
C1675 C1674 1.387 . S
C1676 C1645 1.520 1_455 S
C1676 C1677 1.377 1_455 S
C1676 C1681 1.361 . S
C1677 H1632 0.929 . S
C1677 C1676 1.377 1_655 S
C1677 C1678 1.386 . S
C1678 H1633 0.931 . S
C1678 C1677 1.386 . S
C1678 C1679 1.363 1_655 S
C1679 C1678 1.363 1_455 S
C1679 C1680 1.385 . S
C1680 H1634 0.930 . S
C1680 C1679 1.385 . S
C1680 C1681 1.396 . S
C1681 H1635 0.929 . S
C1681 C1676 1.361 . S
C1681 C1680 1.396 . S
C1682 O1636 1.300 . S
C1682 O1637 1.209 . S
C1682 C1655 1.486 . S
C1683 O1638 1.199 1_455 S
C1683 O1639 1.297 . S
C1683 C1667 1.476 . S
H1684 O1710 0.856 . S
H1685 O1713 0.854 . S
H1686 C1721 0.930 . S
H1687 C1722 0.930 . S
H1688 C1724 0.930 . S
H1689 C1725 0.930 . S
H1690 C1727 0.931 . S
H1691 C1728 0.930 . S
H1692 C1730 0.930 . S
H1693 C1731 0.929 . S
H1694 C1733 0.930 . S
H1695 C1734 0.931 . S
H1696 C1736 0.930 . S
H1697 C1737 0.929 . S
H1698 C1739 0.931 . S
H1699 C1740 0.930 . S
H1700 C1742 0.930 . S
H1701 C1743 0.932 . S
H1702 C1745 0.930 . S
H1703 C1746 0.929 . S
H1704 C1748 0.931 . S
H1705 C1749 0.930 . S
H1706 C1751 0.929 . S
H1707 C1752 0.931 . S
H1708 C1754 0.930 . S
H1709 C1755 0.929 . S
O1710 H1684 0.856 . S
O1710 C1756 1.300 . S
O1711 C1756 1.209 . S
O1712 C1757 1.199 . S
O1713 H1685 0.854 . S
O1713 C1757 1.297 . S
C1714 C1715 1.404 . S
C1714 C1719 1.397 . S
C1714 C1720 1.492 . S
C1715 C1714 1.404 . S
C1715 C1716 1.396 . S
C1715 C1726 1.492 . S
C1716 C1715 1.396 . S
C1716 C1717 1.397 . S
C1716 C1732 1.509 . S
C1717 C1716 1.397 . S
C1717 C1718 1.412 . S
C1717 C1738 1.485 . S
C1718 C1717 1.412 . S
C1718 C1719 1.388 . S
C1718 C1744 1.490 . S
C1719 C1714 1.397 . S
C1719 C1718 1.388 . S
C1719 C1750 1.519 . S
C1720 C1714 1.492 . S
C1720 C1721 1.363 . S
C1720 C1725 1.390 . S
C1721 H1686 0.930 . S
C1721 C1720 1.363 . S
C1721 C1722 1.372 . S
C1722 H1687 0.930 . S
C1722 C1721 1.372 . S
C1722 C1723 1.383 . S
C1723 C1722 1.383 . S
C1723 C1724 1.395 . S
C1724 H1688 0.930 . S
C1724 C1723 1.395 . S
C1724 C1725 1.362 . S
C1725 H1689 0.930 . S
C1725 C1720 1.390 . S
C1725 C1724 1.362 . S
C1726 C1715 1.492 . S
C1726 C1727 1.377 . S
C1726 C1731 1.397 . S
C1727 H1690 0.931 . S
C1727 C1726 1.377 . S
C1727 C1728 1.376 . S
C1728 H1691 0.930 . S
C1728 C1727 1.376 . S
C1728 C1729 1.376 . S
C1729 C1728 1.376 . S
C1729 C1730 1.378 . S
C1729 C1756 1.486 . S
C1730 H1692 0.930 . S
C1730 C1729 1.378 . S
C1730 C1731 1.376 . S
C1731 H1693 0.929 . S
C1731 C1726 1.397 . S
C1731 C1730 1.376 . S
C1732 C1716 1.509 . S
C1732 C1733 1.391 . S
C1732 C1737 1.386 . S
C1733 H1694 0.930 . S
C1733 C1732 1.391 . S
C1733 C1734 1.375 . S
C1734 H1695 0.931 . S
C1734 C1733 1.375 . S
C1734 C1735 1.375 . S
C1735 C1734 1.375 . S
C1735 C1736 1.361 . S
C1736 H1696 0.930 . S
C1736 C1735 1.361 . S
C1736 C1737 1.399 . S
C1737 H1697 0.929 . S
C1737 C1732 1.386 . S
C1737 C1736 1.399 . S
C1738 C1717 1.485 . S
C1738 C1739 1.394 . S
C1738 C1743 1.360 . S
C1739 H1698 0.931 . S
C1739 C1738 1.394 . S
C1739 C1740 1.372 . S
C1740 H1699 0.930 . S
C1740 C1739 1.372 . S
C1740 C1741 1.397 . S
C1741 C1740 1.397 . S
C1741 C1742 1.390 . S
C1741 C1757 1.476 . S
C1742 H1700 0.930 . S
C1742 C1741 1.390 . S
C1742 C1743 1.366 . S
C1743 H1701 0.932 . S
C1743 C1738 1.360 . S
C1743 C1742 1.366 . S
C1744 C1718 1.490 . S
C1744 C1745 1.380 . S
C1744 C1749 1.386 . S
C1745 H1702 0.930 . S
C1745 C1744 1.380 . S
C1745 C1746 1.381 . S
C1746 H1703 0.929 . S
C1746 C1745 1.381 . S
C1746 C1747 1.371 . S
C1747 C1746 1.371 . S
C1747 C1748 1.380 . S
C1748 H1704 0.931 . S
C1748 C1747 1.380 . S
C1748 C1749 1.387 . S
C1749 H1705 0.930 . S
C1749 C1744 1.386 . S
C1749 C1748 1.387 . S
C1750 C1719 1.519 . S
C1750 C1751 1.377 . S
C1750 C1755 1.361 . S
C1751 H1706 0.929 . S
C1751 C1750 1.377 . S
C1751 C1752 1.386 . S
C1752 H1707 0.931 . S
C1752 C1751 1.386 . S
C1752 C1753 1.363 . S
C1753 C1752 1.363 . S
C1753 C1754 1.385 . S
C1754 H1708 0.930 . S
C1754 C1753 1.385 . S
C1754 C1755 1.396 . S
C1755 H1709 0.929 . S
C1755 C1750 1.361 . S
C1755 C1754 1.396 . S
C1756 O1710 1.300 . S
C1756 O1711 1.209 . S
C1756 C1729 1.486 . S
C1757 O1712 1.199 . S
C1757 O1713 1.297 . S
C1757 C1741 1.476 . S
H1758 O1784 0.856 . S
H1759 O1787 0.854 . S
H1760 C1795 0.930 . S
H1761 C1796 0.930 . S
H1762 C1798 0.930 . S
H1763 C1799 0.930 . S
H1764 C1801 0.931 . S
H1765 C1802 0.930 . S
H1766 C1804 0.930 . S
H1767 C1805 0.929 . S
H1768 C1807 0.930 . S
H1769 C1808 0.931 . S
H1770 C1810 0.930 . S
H1771 C1811 0.929 . S
H1772 C1813 0.931 . S
H1773 C1814 0.930 . S
H1774 C1816 0.930 . S
H1775 C1817 0.932 . S
H1776 C1819 0.930 . S
H1777 C1820 0.929 . S
H1778 C1822 0.931 . S
H1779 C1823 0.930 . S
H1780 C1825 0.929 . S
H1781 C1826 0.931 . S
H1782 C1828 0.930 . S
H1783 C1829 0.929 . S
O1784 H1758 0.856 . S
O1784 C1830 1.300 . S
O1785 C1830 1.209 . S
O1786 C1831 1.199 . S
O1787 H1759 0.854 . S
O1787 C1831 1.297 . S
C1788 C1789 1.404 . S
C1788 C1793 1.397 . S
C1788 C1794 1.492 . S
C1789 C1788 1.404 . S
C1789 C1790 1.396 . S
C1789 C1800 1.492 . S
C1790 C1789 1.396 . S
C1790 C1791 1.397 . S
C1790 C1806 1.509 . S
C1791 C1790 1.397 . S
C1791 C1792 1.412 . S
C1791 C1812 1.485 . S
C1792 C1791 1.412 . S
C1792 C1793 1.388 . S
C1792 C1818 1.490 . S
C1793 C1788 1.397 . S
C1793 C1792 1.388 . S
C1793 C1824 1.519 . S
C1794 C1788 1.492 . S
C1794 C1795 1.363 . S
C1794 C1799 1.390 . S
C1795 H1760 0.930 . S
C1795 C1794 1.363 . S
C1795 C1796 1.372 . S
C1796 H1761 0.930 . S
C1796 C1795 1.372 . S
C1796 C1797 1.383 . S
C1797 C1796 1.383 . S
C1797 C1798 1.395 . S
C1798 H1762 0.930 . S
C1798 C1797 1.395 . S
C1798 C1799 1.362 . S
C1799 H1763 0.930 . S
C1799 C1794 1.390 . S
C1799 C1798 1.362 . S
C1800 C1789 1.492 . S
C1800 C1801 1.377 . S
C1800 C1805 1.397 . S
C1801 H1764 0.931 . S
C1801 C1800 1.377 . S
C1801 C1802 1.376 . S
C1802 H1765 0.930 . S
C1802 C1801 1.376 . S
C1802 C1803 1.376 . S
C1803 C1802 1.376 . S
C1803 C1804 1.378 . S
C1803 C1830 1.486 . S
C1804 H1766 0.930 . S
C1804 C1803 1.378 . S
C1804 C1805 1.376 . S
C1805 H1767 0.929 . S
C1805 C1800 1.397 . S
C1805 C1804 1.376 . S
C1806 C1790 1.509 . S
C1806 C1807 1.391 . S
C1806 C1811 1.386 . S
C1807 H1768 0.930 . S
C1807 C1806 1.391 . S
C1807 C1808 1.375 . S
C1808 H1769 0.931 . S
C1808 C1807 1.375 . S
C1808 C1809 1.375 . S
C1809 C1808 1.375 . S
C1809 C1810 1.361 . S
C1810 H1770 0.930 . S
C1810 C1809 1.361 . S
C1810 C1811 1.399 . S
C1811 H1771 0.929 . S
C1811 C1806 1.386 . S
C1811 C1810 1.399 . S
C1812 C1791 1.485 . S
C1812 C1813 1.394 . S
C1812 C1817 1.360 . S
C1813 H1772 0.931 . S
C1813 C1812 1.394 . S
C1813 C1814 1.372 . S
C1814 H1773 0.930 . S
C1814 C1813 1.372 . S
C1814 C1815 1.397 . S
C1815 C1814 1.397 . S
C1815 C1816 1.390 . S
C1815 C1831 1.476 . S
C1816 H1774 0.930 . S
C1816 C1815 1.390 . S
C1816 C1817 1.366 . S
C1817 H1775 0.932 . S
C1817 C1812 1.360 . S
C1817 C1816 1.366 . S
C1818 C1792 1.490 . S
C1818 C1819 1.380 . S
C1818 C1823 1.386 . S
C1819 H1776 0.930 . S
C1819 C1818 1.380 . S
C1819 C1820 1.381 . S
C1820 H1777 0.929 . S
C1820 C1819 1.381 . S
C1820 C1821 1.371 . S
C1821 C1820 1.371 . S
C1821 C1822 1.380 . S
C1822 H1778 0.931 . S
C1822 C1821 1.380 . S
C1822 C1823 1.387 . S
C1823 H1779 0.930 . S
C1823 C1818 1.386 . S
C1823 C1822 1.387 . S
C1824 C1793 1.519 . S
C1824 C1825 1.377 . S
C1824 C1829 1.361 . S
C1825 H1780 0.929 . S
C1825 C1824 1.377 . S
C1825 C1826 1.386 . S
C1826 H1781 0.931 . S
C1826 C1825 1.386 . S
C1826 C1827 1.363 . S
C1827 C1826 1.363 . S
C1827 C1828 1.385 . S
C1828 H1782 0.930 . S
C1828 C1827 1.385 . S
C1828 C1829 1.396 . S
C1829 H1783 0.929 . S
C1829 C1824 1.361 . S
C1829 C1828 1.396 . S
C1830 O1784 1.300 . S
C1830 O1785 1.209 . S
C1830 C1803 1.486 . S
C1831 O1786 1.199 . S
C1831 O1787 1.297 . S
C1831 C1815 1.476 . S
H1832 O1858 0.856 . S
H1833 O1861 0.854 . S
H1834 C1869 0.930 . S
H1835 C1870 0.930 . S
H1836 C1872 0.930 . S
H1837 C1873 0.930 . S
H1838 C1875 0.931 . S
H1839 C1876 0.930 . S
H1840 C1878 0.930 . S
H1841 C1879 0.929 . S
H1842 C1881 0.930 . S
H1843 C1882 0.931 . S
H1844 C1884 0.930 . S
H1845 C1885 0.929 . S
H1846 C1887 0.931 . S
H1847 C1888 0.930 . S
H1848 C1890 0.930 . S
H1849 C1891 0.932 . S
H1850 C1893 0.930 . S
H1851 C1894 0.929 . S
H1852 C1896 0.931 . S
H1853 C1897 0.930 . S
H1854 C1899 0.929 . S
H1855 C1900 0.931 . S
H1856 C1902 0.930 . S
H1857 C1903 0.929 . S
O1858 H1832 0.856 . S
O1858 C1904 1.300 . S
O1859 C1904 1.209 . S
O1860 C1905 1.199 1_655 S
O1861 H1833 0.854 . S
O1861 C1905 1.297 1_655 S
C1862 C1863 1.404 . S
C1862 C1867 1.397 . S
C1862 C1868 1.492 . S
C1863 C1862 1.404 . S
C1863 C1864 1.396 . S
C1863 C1874 1.492 . S
C1864 C1863 1.396 . S
C1864 C1865 1.397 . S
C1864 C1880 1.509 . S
C1865 C1864 1.397 . S
C1865 C1866 1.412 . S
C1865 C1886 1.485 . S
C1866 C1865 1.412 . S
C1866 C1867 1.388 . S
C1866 C1892 1.490 . S
C1867 C1862 1.397 . S
C1867 C1866 1.388 . S
C1867 C1898 1.519 . S
C1868 C1862 1.492 . S
C1868 C1869 1.363 . S
C1868 C1873 1.390 . S
C1869 H1834 0.930 . S
C1869 C1868 1.363 . S
C1869 C1870 1.372 . S
C1870 H1835 0.930 . S
C1870 C1869 1.372 . S
C1870 C1871 1.383 . S
C1871 C1870 1.383 . S
C1871 C1872 1.395 . S
C1872 H1836 0.930 . S
C1872 C1871 1.395 . S
C1872 C1873 1.362 . S
C1873 H1837 0.930 . S
C1873 C1868 1.390 . S
C1873 C1872 1.362 . S
C1874 C1863 1.492 . S
C1874 C1875 1.377 . S
C1874 C1879 1.397 . S
C1875 H1838 0.931 . S
C1875 C1874 1.377 . S
C1875 C1876 1.376 . S
C1876 H1839 0.930 . S
C1876 C1875 1.376 . S
C1876 C1877 1.376 . S
C1877 C1876 1.376 . S
C1877 C1878 1.378 . S
C1877 C1904 1.486 . S
C1878 H1840 0.930 . S
C1878 C1877 1.378 . S
C1878 C1879 1.376 . S
C1879 H1841 0.929 . S
C1879 C1874 1.397 . S
C1879 C1878 1.376 . S
C1880 C1864 1.509 . S
C1880 C1881 1.391 . S
C1880 C1885 1.386 . S
C1881 H1842 0.930 . S
C1881 C1880 1.391 . S
C1881 C1882 1.375 . S
C1882 H1843 0.931 . S
C1882 C1881 1.375 . S
C1882 C1883 1.375 . S
C1883 C1882 1.375 . S
C1883 C1884 1.361 . S
C1884 H1844 0.930 . S
C1884 C1883 1.361 . S
C1884 C1885 1.399 . S
C1885 H1845 0.929 . S
C1885 C1880 1.386 . S
C1885 C1884 1.399 . S
C1886 C1865 1.485 . S
C1886 C1887 1.394 . S
C1886 C1891 1.360 . S
C1887 H1846 0.931 . S
C1887 C1886 1.394 . S
C1887 C1888 1.372 . S
C1888 H1847 0.930 . S
C1888 C1887 1.372 . S
C1888 C1889 1.397 . S
C1889 C1888 1.397 . S
C1889 C1890 1.390 . S
C1889 C1905 1.476 . S
C1890 H1848 0.930 . S
C1890 C1889 1.390 . S
C1890 C1891 1.366 . S
C1891 H1849 0.932 . S
C1891 C1886 1.360 . S
C1891 C1890 1.366 . S
C1892 C1866 1.490 . S
C1892 C1893 1.380 . S
C1892 C1897 1.386 . S
C1893 H1850 0.930 . S
C1893 C1892 1.380 . S
C1893 C1894 1.381 . S
C1894 H1851 0.929 . S
C1894 C1893 1.381 . S
C1894 C1895 1.371 . S
C1895 C1894 1.371 . S
C1895 C1896 1.380 . S
C1896 H1852 0.931 . S
C1896 C1895 1.380 . S
C1896 C1897 1.387 . S
C1897 H1853 0.930 . S
C1897 C1892 1.386 . S
C1897 C1896 1.387 . S
C1898 C1867 1.519 . S
C1898 C1899 1.377 . S
C1898 C1903 1.361 . S
C1899 H1854 0.929 . S
C1899 C1898 1.377 . S
C1899 C1900 1.386 . S
C1900 H1855 0.931 . S
C1900 C1899 1.386 . S
C1900 C1901 1.363 . S
C1901 C1900 1.363 . S
C1901 C1902 1.385 . S
C1902 H1856 0.930 . S
C1902 C1901 1.385 . S
C1902 C1903 1.396 . S
C1903 H1857 0.929 . S
C1903 C1898 1.361 . S
C1903 C1902 1.396 . S
C1904 O1858 1.300 . S
C1904 O1859 1.209 . S
C1904 C1877 1.486 . S
C1905 O1860 1.199 1_455 S
C1905 O1861 1.297 1_455 S
C1905 C1889 1.476 . S
H1906 O1932 0.856 . S
H1907 O1935 0.854 . S
H1908 C1943 0.930 . S
H1909 C1944 0.930 . S
H1910 C1946 0.930 . S
H1911 C1947 0.930 . S
H1912 C1949 0.931 . S
H1913 C1950 0.930 . S
H1914 C1952 0.930 . S
H1915 C1953 0.929 . S
H1916 C1955 0.930 . S
H1917 C1956 0.931 . S
H1918 C1958 0.930 . S
H1919 C1959 0.929 . S
H1920 C1961 0.931 . S
H1921 C1962 0.930 . S
H1922 C1964 0.930 . S
H1923 C1965 0.932 . S
H1924 C1967 0.930 . S
H1925 C1968 0.929 . S
H1926 C1970 0.931 . S
H1927 C1971 0.930 . S
H1928 C1973 0.929 . S
H1929 C1974 0.931 . S
H1930 C1976 0.930 . S
H1931 C1977 0.929 . S
O1932 H1906 0.856 . S
O1932 C1978 1.300 . S
O1933 C1978 1.209 . S
O1934 C1979 1.199 . S
O1935 H1907 0.854 . S
O1935 C1979 1.297 . S
C1936 C1937 1.404 . S
C1936 C1941 1.397 . S
C1936 C1942 1.492 . S
C1937 C1936 1.404 . S
C1937 C1938 1.396 . S
C1937 C1948 1.492 . S
C1938 C1937 1.396 . S
C1938 C1939 1.397 . S
C1938 C1954 1.509 . S
C1939 C1938 1.397 . S
C1939 C1940 1.412 . S
C1939 C1960 1.485 . S
C1940 C1939 1.412 . S
C1940 C1941 1.388 . S
C1940 C1966 1.490 . S
C1941 C1936 1.397 . S
C1941 C1940 1.388 . S
C1941 C1972 1.519 . S
C1942 C1936 1.492 . S
C1942 C1943 1.363 . S
C1942 C1947 1.390 . S
C1943 H1908 0.930 . S
C1943 C1942 1.363 . S
C1943 C1944 1.372 . S
C1944 H1909 0.930 . S
C1944 C1943 1.372 . S
C1944 C1945 1.383 . S
C1945 C1944 1.383 . S
C1945 C1946 1.395 . S
C1946 H1910 0.930 . S
C1946 C1945 1.395 . S
C1946 C1947 1.362 . S
C1947 H1911 0.930 . S
C1947 C1942 1.390 . S
C1947 C1946 1.362 . S
C1948 C1937 1.492 . S
C1948 C1949 1.377 . S
C1948 C1953 1.397 . S
C1949 H1912 0.931 . S
C1949 C1948 1.377 . S
C1949 C1950 1.376 . S
C1950 H1913 0.930 . S
C1950 C1949 1.376 . S
C1950 C1951 1.376 . S
C1951 C1950 1.376 . S
C1951 C1952 1.378 . S
C1951 C1978 1.486 . S
C1952 H1914 0.930 . S
C1952 C1951 1.378 . S
C1952 C1953 1.376 . S
C1953 H1915 0.929 . S
C1953 C1948 1.397 . S
C1953 C1952 1.376 . S
C1954 C1938 1.509 . S
C1954 C1955 1.391 . S
C1954 C1959 1.386 . S
C1955 H1916 0.930 . S
C1955 C1954 1.391 . S
C1955 C1956 1.375 . S
C1956 H1917 0.931 . S
C1956 C1955 1.375 . S
C1956 C1957 1.375 . S
C1957 C1956 1.375 . S
C1957 C1958 1.361 . S
C1958 H1918 0.930 . S
C1958 C1957 1.361 . S
C1958 C1959 1.399 . S
C1959 H1919 0.929 . S
C1959 C1954 1.386 . S
C1959 C1958 1.399 . S
C1960 C1939 1.485 . S
C1960 C1961 1.394 . S
C1960 C1965 1.360 . S
C1961 H1920 0.931 . S
C1961 C1960 1.394 . S
C1961 C1962 1.372 . S
C1962 H1921 0.930 . S
C1962 C1961 1.372 . S
C1962 C1963 1.397 . S
C1963 C1962 1.397 . S
C1963 C1964 1.390 . S
C1963 C1979 1.476 1_455 S
C1964 H1922 0.930 . S
C1964 C1963 1.390 . S
C1964 C1965 1.366 . S
C1965 H1923 0.932 . S
C1965 C1960 1.360 . S
C1965 C1964 1.366 . S
C1966 C1940 1.490 . S
C1966 C1967 1.380 . S
C1966 C1971 1.386 . S
C1967 H1924 0.930 . S
C1967 C1966 1.380 . S
C1967 C1968 1.381 . S
C1968 H1925 0.929 . S
C1968 C1967 1.381 . S
C1968 C1969 1.371 . S
C1969 C1968 1.371 . S
C1969 C1970 1.380 . S
C1970 H1926 0.931 . S
C1970 C1969 1.380 . S
C1970 C1971 1.387 . S
C1971 H1927 0.930 . S
C1971 C1966 1.386 . S
C1971 C1970 1.387 . S
C1972 C1941 1.519 . S
C1972 C1973 1.377 . S
C1972 C1977 1.361 . S
C1973 H1928 0.929 . S
C1973 C1972 1.377 . S
C1973 C1974 1.386 . S
C1974 H1929 0.931 . S
C1974 C1973 1.386 . S
C1974 C1975 1.363 . S
C1975 C1974 1.363 . S
C1975 C1976 1.385 . S
C1976 H1930 0.930 . S
C1976 C1975 1.385 . S
C1976 C1977 1.396 . S
C1977 H1931 0.929 . S
C1977 C1972 1.361 . S
C1977 C1976 1.396 . S
C1978 O1932 1.300 . S
C1978 O1933 1.209 . S
C1978 C1951 1.486 . S
C1979 O1934 1.199 . S
C1979 O1935 1.297 . S
C1979 C1963 1.476 1_655 S
C4 C1377 1.706 . S
C38 C1457 2.276 . S
C1525 C74 1.431 . S
C76 C1605 1.918 . S
C2 C1679 1.717 . S
C40 C1747 2.125 1_554 S
C110 C1673 1.567 . S
C1753 C148 1.507 . S
C1599 C182 1.342 1_556 S
C184 C1531 2.004 . S
C1383 C112 1.409 . S
C146 C1451 1.653 . S
C220 C1821 2.337 . S
C254 C1901 2.437 . S
C1969 C290 2.408 . S
C292 C717 2.383 . S
C218 C791 2.313 . S
C256 C859 2.236 . S
C326 C785 1.786 . S
C364 C865 1.653 . S
C711 C398 1.674 . S
C1975 C400 2.119 . S
C1827 C328 1.623 . S
C1895 C362 1.765 . S
C436 C933 2.231 . S
C470 C1013 2.410 . S
C506 C1081 2.348 . S
C508 C1161 2.472 . S
C1235 C434 2.352 . S
C1303 C472 2.326 . S
C1229 C542 1.926 . S
C1309 C580 1.670 . S
C614 C1155 1.664 . S
C1087 C616 2.042 . S
C544 C939 1.609 . S
C1007 C578 1.686 . S
C687 C14 2.795 . S
C39 C761 1.789 . S
C847 C75 1.882 . S
C921 C86 2.074 . S
C983 C3 1.882 . S
C1069 C50 2.039 . S
C111 C1057 2.870 1_554 S
C158 C909 2.719 . S
C183 C995 2.825 . S
C194 C773 2.970 . S
C835 C122 2.849 . S
C147 C699 2.503 . S
C1131 C230 2.616 . S
C255 C1205 1.857 . S
C291 C1291 1.908 . S
C1365 C302 1.765 . S
C219 C1427 1.728 . S
C266 C1513 1.488 . S
C327 C1501 2.097 1_565 S
C374 C1353 1.943 1_455 S
C1439 C399 2.640 . S
C410 C1217 3.011 . S
C338 C1279 2.703 . S
C1143 C363 2.505 . S
C1575 C446 2.165 . S
C471 C1649 1.289 . S
C507 C1735 1.773 . S
C1809 C518 2.202 . S
C1871 C435 1.856 . S
C482 C1957 2.046 . S
C543 C1945 2.773 . S
C590 C1797 2.718 . S
C1883 C615 2.731 . S
C1661 C626 2.184 . S
C1723 C554 2.617 . S
C579 C1587 1.825 . S
