# Generated by pormake.
# Topology the, (3,8)-cn, num edge types: 1
# Building blocks:
#     Node 0, Type 0, BuildingBlock: KAKCAD_clean_linker_0, # of connection points: 3
#     Node 1, Type 0, BuildingBlock: KAKCAD_clean_linker_0, # of connection points: 3
#     Node 2, Type 0, BuildingBlock: KAKCAD_clean_linker_0, # of connection points: 3
#     Node 3, Type 0, BuildingBlock: KAKCAD_clean_linker_0, # of connection points: 3
#     Node 4, Type 0, BuildingBlock: KAKCAD_clean_linker_0, # of connection points: 3
#     Node 5, Type 0, BuildingBlock: KAKCAD_clean_linker_0, # of connection points: 3
#     Node 6, Type 0, BuildingBlock: KAKCAD_clean_linker_0, # of connection points: 3
#     Node 7, Type 0, BuildingBlock: KAKCAD_clean_linker_0, # of connection points: 3
#     Node 8, Type 1, BuildingBlock: GIZVER_clean_sbu_0, # of connection points: 8
#     Node 9, Type 1, BuildingBlock: GIZVER_clean_sbu_0, # of connection points: 8
#     Node 10, Type 1, BuildingBlock: GIZVER_clean_sbu_0, # of connection points: 8
#     Edge 11, Type (0, 1), None
#     Edge 12, Type (0, 1), None
#     Edge 13, Type (0, 1), None
#     Edge 14, Type (0, 1), None
#     Edge 15, Type (0, 1), None
#     Edge 16, Type (0, 1), None
#     Edge 17, Type (0, 1), None
#     Edge 18, Type (0, 1), None
#     Edge 19, Type (0, 1), None
#     Edge 20, Type (0, 1), None
#     Edge 21, Type (0, 1), None
#     Edge 22, Type (0, 1), None
#     Edge 23, Type (0, 1), None
#     Edge 24, Type (0, 1), None
#     Edge 25, Type (0, 1), None
#     Edge 26, Type (0, 1), None
#     Edge 27, Type (0, 1), None
#     Edge 28, Type (0, 1), None
#     Edge 29, Type (0, 1), None
#     Edge 30, Type (0, 1), None
#     Edge 31, Type (0, 1), None
#     Edge 32, Type (0, 1), None
#     Edge 33, Type (0, 1), None
#     Edge 34, Type (0, 1), None
# Relax obj value: 0.056
# Max RMSD: 0.138
# Mean RMSD: 0.085
data_MOF--net-the--node1-GIZVER_clean_sbu_0--node2-KAKCAD_clean_linker_0--edge1-none
_symmetry_space_group_name_H-M    P1
_symmetry_Int_Tables_number       1
_symmetry_cell_setting            triclinic
loop_
_symmetry_equiv_pos_as_xyz
'x, y, z'
_cell_length_a     28.527567
_cell_length_b     27.190143
_cell_length_c     24.780298
_cell_angle_alpha  86.643967
_cell_angle_beta   99.208392
_cell_angle_gamma 109.97564
loop_
_atom_site_label
_atom_site_type_symbol
_atom_site_fract_x
_atom_site_fract_y
_atom_site_fract_z
_atom_type_partial_charge
C0 C 0.3447 0.36891 0.20106 0.0
C1 C 0.38181 0.41887 0.2044 0.0
C2 C 0.32389 0.34558 0.24722 0.0
C3 C 0.33904 0.37223 0.29707 0.0
C4 C 0.37437 0.42299 0.30025 0.0
C5 C 0.39607 0.44603 0.25425 0.0
C6 C 0.31918 0.3458 0.34602 0.0
C7 C 0.33207 0.30273 0.36762 0.0
C8 C 0.31137 0.27559 0.41273 0.0
C9 C 0.27655 0.29063 0.43558 0.0
C10 C 0.26395 0.33413 0.41414 0.0
C11 C 0.2858 0.362 0.36983 0.0
C12 C 0.22667 0.35028 0.4359 0.0
C13 C 0.17605 0.31769 0.42995 0.0
C14 C 0.24038 0.40129 0.45543 0.0
C15 C 0.20356 0.42057 0.46621 0.0
C16 C 0.15237 0.38929 0.45688 0.0
C17 C 0.32849 0.23294 0.43624 0.0
C18 C 0.30237 0.18145 0.41862 0.0
C19 C 0.37581 0.24524 0.46868 0.0
C20 C 0.39835 0.20709 0.48068 0.0
C21 C 0.37388 0.15606 0.46018 0.0
C22 C 0.32486 0.14304 0.43075 0.0
C23 C 0.13896 0.3372 0.44013 0.0
H24 H 0.33309 0.34688 0.16334 0.0
H25 H 0.29644 0.30639 0.24425 0.0
H26 H 0.38631 0.44398 0.33864 0.0
H27 H 0.42457 0.48456 0.25799 0.0
H28 H 0.35851 0.2905 0.34952 0.0
H29 H 0.27544 0.39514 0.35263 0.0
H30 H 0.26013 0.26933 0.4702 0.0
H31 H 0.16498 0.27825 0.41451 0.0
H32 H 0.27938 0.42688 0.46016 0.0
H33 H 0.21512 0.46076 0.47955 0.0
H34 H 0.26597 0.17171 0.39293 0.0
H35 H 0.39655 0.28509 0.48204 0.0
H36 H 0.09982 0.31212 0.43326 0.0
H37 H 0.30497 0.104 0.41469 0.0
H38 H 0.43603 0.21844 0.50361 0.0
C39 C 0.84828 0.48058 0.40496 0.0
C40 C 0.88508 0.45925 0.42934 0.0
C41 C 0.8046 0.4503 0.37192 0.0
C42 C 0.79584 0.39725 0.36251 0.0
C43 C 0.83311 0.3758 0.38598 0.0
C44 C 0.87759 0.40668 0.4186 0.0
C45 C 0.74673 0.36459 0.33071 0.0
C46 C 0.72489 0.38496 0.2832 0.0
C47 C 0.6763 0.35699 0.25607 0.0
C48 C 0.65047 0.30757 0.27665 0.0
C49 C 0.67031 0.2869 0.32468 0.0
C50 C 0.71905 0.31534 0.35091 0.0
C51 C 0.63743 0.23802 0.34909 0.0
C52 C 0.58515 0.22828 0.34442 0.0
C53 C 0.65704 0.20106 0.3772 0.0
C54 C 0.6251 0.15586 0.40002 0.0
C55 C 0.57281 0.14622 0.39422 0.0
C56 C 0.6493 0.38051 0.21018 0.0
C57 C 0.65572 0.43429 0.2095 0.0
C58 C 0.61209 0.3483 0.17036 0.0
C59 C 0.57934 0.36807 0.13481 0.0
C60 C 0.58436 0.42108 0.13624 0.0
C61 C 0.62406 0.45439 0.17248 0.0
C62 C 0.55337 0.18285 0.36572 0.0
H63 H 0.85293 0.52091 0.41159 0.0
H64 H 0.77678 0.46821 0.35521 0.0
H65 H 0.82769 0.33506 0.37944 0.0
H66 H 0.90511 0.389 0.43701 0.0
H67 H 0.74569 0.42293 0.26774 0.0
H68 H 0.73421 0.30079 0.38892 0.0
H69 H 0.61314 0.28575 0.25654 0.0
H70 H 0.56841 0.25642 0.32535 0.0
H71 H 0.69697 0.20698 0.38161 0.0
H72 H 0.64131 0.12866 0.42248 0.0
H73 H 0.68332 0.46057 0.23942 0.0
H74 H 0.60692 0.30715 0.16767 0.0
H75 H 0.51361 0.17772 0.36186 0.0
H76 H 0.6288 0.49554 0.17443 0.0
H77 H 0.54963 0.34172 0.10662 0.0
C78 C 0.63216 0.61294 0.21323 0.0
C79 C 0.61446 0.62856 0.16116 0.0
C80 C 0.66659 0.64949 0.25019 0.0
C81 C 0.6837 0.70287 0.23651 0.0
C82 C 0.66645 0.71883 0.18433 0.0
C83 C 0.63251 0.6818 0.14659 0.0
C84 C 0.7189 0.74091 0.27779 0.0
C85 C 0.76216 0.73136 0.30431 0.0
C86 C 0.79152 0.76079 0.34975 0.0
C87 C 0.77875 0.80181 0.36774 0.0
C88 C 0.73463 0.81173 0.34287 0.0
C89 C 0.70538 0.78114 0.29703 0.0
C90 C 0.71567 0.84864 0.36884 0.0
C91 C 0.72779 0.85831 0.42571 0.0
C92 C 0.68204 0.87136 0.33825 0.0
C93 C 0.65847 0.89894 0.36419 0.0
C94 C 0.6696 0.90654 0.42089 0.0
C95 C 0.82634 0.73933 0.38579 0.0
C96 C 0.80551 0.69785 0.42053 0.0
C97 C 0.87795 0.75477 0.38172 0.0
C98 C 0.90782 0.72713 0.41051 0.0
C99 C 0.88588 0.68334 0.44255 0.0
C100 C 0.8348 0.66999 0.4483 0.0
C101 C 0.70573 0.88766 0.45103 0.0
H102 H 0.61886 0.57228 0.22578 0.0
H103 H 0.67893 0.63612 0.29024 0.0
H104 H 0.67917 0.7598 0.17286 0.0
H105 H 0.61903 0.69497 0.10695 0.0
H106 H 0.77111 0.69837 0.29191 0.0
H107 H 0.66988 0.78536 0.27872 0.0
H108 H 0.80202 0.82367 0.40317 0.0
H109 H 0.75229 0.84117 0.45186 0.0
H110 H 0.67252 0.86669 0.29438 0.0
H111 H 0.63046 0.91311 0.34009 0.0
H112 H 0.76573 0.6853 0.42404 0.0
H113 H 0.89449 0.78657 0.35471 0.0
H114 H 0.71495 0.89297 0.49473 0.0
H115 H 0.81676 0.63656 0.47272 0.0
H116 H 0.94702 0.73799 0.40516 0.0
C117 C 0.35254 0.59513 0.18277 0.0
C118 C 0.40067 0.5936 0.20486 0.0
C119 C 0.32842 0.62093 0.21067 0.0
C120 C 0.3523 0.64606 0.26076 0.0
C121 C 0.39946 0.64273 0.2835 0.0
C122 C 0.4232 0.61684 0.2561 0.0
C123 C 0.32957 0.677 0.28941 0.0
C124 C 0.28003 0.65528 0.30126 0.0
C125 C 0.26072 0.68227 0.33429 0.0
C126 C 0.29189 0.73254 0.35394 0.0
C127 C 0.34194 0.75404 0.34364 0.0
C128 C 0.35982 0.72652 0.31029 0.0
C129 C 0.37844 0.80033 0.37466 0.0
C130 C 0.36941 0.84794 0.37691 0.0
C131 C 0.42326 0.79591 0.40362 0.0
C132 C 0.4584 0.8377 0.4337 0.0
C133 C 0.45034 0.8858 0.43566 0.0
C134 C 0.21102 0.65506 0.35391 0.0
C135 C 0.17166 0.61665 0.3219 0.0
C136 C 0.20417 0.66378 0.40716 0.0
C137 C 0.1608 0.63351 0.42856 0.0
C138 C 0.1234 0.59261 0.39802 0.0
C139 C 0.1287 0.58541 0.3439 0.0
C140 C 0.40539 0.89063 0.40677 0.0
H141 H 0.33406 0.57751 0.14349 0.0
H142 H 0.29192 0.62267 0.19231 0.0
H143 H 0.41837 0.66064 0.32257 0.0
H144 H 0.45996 0.61612 0.27487 0.0
H145 H 0.25807 0.61577 0.28786 0.0
H146 H 0.39846 0.74299 0.30234 0.0
H147 H 0.27846 0.75386 0.37992 0.0
H148 H 0.33496 0.85228 0.35514 0.0
H149 H 0.43098 0.75955 0.40362 0.0
H150 H 0.49225 0.83201 0.45545 0.0
H151 H 0.17461 0.60944 0.28029 0.0
H152 H 0.23346 0.69194 0.43395 0.0
H153 H 0.39787 0.92699 0.40767 0.0
H154 H 0.10045 0.55448 0.31911 0.0
H155 H 0.15831 0.64009 0.47055 0.0
C156 C 0.17763 0.61002 0.67491 0.0
C157 C 0.17733 0.60377 0.61882 0.0
C158 C 0.22255 0.6386 0.70846 0.0
C159 C 0.26743 0.66233 0.68611 0.0
C160 C 0.26649 0.65694 0.62989 0.0
C161 C 0.22231 0.62771 0.5969 0.0
C162 C 0.31549 0.69411 0.71966 0.0
C163 C 0.34032 0.67162 0.76284 0.0
C164 C 0.38974 0.70002 0.78783 0.0
C165 C 0.41289 0.75163 0.77004 0.0
C166 C 0.38935 0.77451 0.72658 0.0
C167 C 0.33999 0.74561 0.70275 0.0
C168 C 0.41886 0.82539 0.70212 0.0
C169 C 0.45906 0.86332 0.73394 0.0
C170 C 0.41045 0.83417 0.64534 0.0
C171 C 0.4421 0.87801 0.62109 0.0
C172 C 0.484 0.91366 0.65251 0.0
C173 C 0.42028 0.67565 0.82866 0.0
C174 C 0.39967 0.64213 0.87086 0.0
C175 C 0.47199 0.68771 0.82617 0.0
C176 C 0.50267 0.66952 0.86581 0.0
C177 C 0.48271 0.63715 0.90873 0.0
C178 C 0.43056 0.6227 0.91031 0.0
C179 C 0.49182 0.90634 0.70928 0.0
H180 H 0.14374 0.59137 0.69309 0.0
H181 H 0.2222 0.64241 0.75164 0.0
H182 H 0.30042 0.67473 0.61148 0.0
H183 H 0.2235 0.62343 0.55398 0.0
H184 H 0.32259 0.63122 0.77435 0.0
H185 H 0.32067 0.76242 0.66952 0.0
H186 H 0.4509 0.77316 0.78861 0.0
H187 H 0.46621 0.85932 0.77791 0.0
H188 H 0.38102 0.80597 0.61872 0.0
H189 H 0.43535 0.88227 0.57705 0.0
H190 H 0.36002 0.63172 0.87398 0.0
H191 H 0.48918 0.71138 0.79322 0.0
H192 H 0.52358 0.93352 0.73452 0.0
H193 H 0.41386 0.59708 0.94236 0.0
H194 H 0.54222 0.6801 0.86194 0.0
C195 C 0.39699 0.4043 0.90247 0.0
C196 C 0.44858 0.42152 0.89793 0.0
C197 C 0.36202 0.3667 0.866 0.0
C198 C 0.37841 0.34506 0.82535 0.0
C199 C 0.43038 0.36087 0.82301 0.0
C200 C 0.46482 0.39857 0.85868 0.0
C201 C 0.34235 0.31052 0.78146 0.0
C202 C 0.30251 0.32495 0.75275 0.0
C203 C 0.27652 0.30126 0.70266 0.0
C204 C 0.29029 0.26221 0.68124 0.0
C205 C 0.33009 0.24711 0.70966 0.0
C206 C 0.35395 0.26968 0.76093 0.0
C207 C 0.35411 0.21674 0.68202 0.0
C208 C 0.32607 0.17083 0.65204 0.0
C209 C 0.40677 0.23576 0.68432 0.0
C210 C 0.43095 0.20979 0.65804 0.0
C211 C 0.40345 0.16387 0.62825 0.0
C212 C 0.244 0.32651 0.66795 0.0
C213 C 0.19114 0.30433 0.65998 0.0
C214 C 0.26677 0.37626 0.64654 0.0
C215 C 0.23748 0.40461 0.61979 0.0
C216 C 0.1845 0.38406 0.61397 0.0
C217 C 0.16146 0.33298 0.63298 0.0
C218 C 0.35065 0.14429 0.62565 0.0
H219 H 0.38356 0.4215 0.9325 0.0
H220 H 0.32222 0.35535 0.86881 0.0
H221 H 0.44452 0.34591 0.79184 0.0
H222 H 0.50427 0.41017 0.85488 0.0
H223 H 0.2946 0.35798 0.76668 0.0
H224 H 0.38484 0.25848 0.78286 0.0
H225 H 0.27328 0.24733 0.6405 0.0
H226 H 0.28538 0.15549 0.64919 0.0
H227 H 0.42958 0.27169 0.70567 0.0
H228 H 0.47163 0.22624 0.66092 0.0
H229 H 0.17296 0.26591 0.67636 0.0
H230 H 0.30751 0.39391 0.65205 0.0
H231 H 0.32843 0.1093 0.60246 0.0
H232 H 0.12076 0.316 0.62881 0.0
H233 H 0.25665 0.44343 0.60492 0.0
C234 C 0.655 0.1667 0.64383 0.0
C235 C 0.61183 0.1725 0.61153 0.0
C236 C 0.69001 0.20894 0.67508 0.0
C237 C 0.68167 0.25707 0.67547 0.0
C238 C 0.63856 0.26249 0.64334 0.0
C239 C 0.60451 0.22115 0.61157 0.0
C240 C 0.71764 0.30298 0.70741 0.0
C241 C 0.76794 0.32438 0.69806 0.0
C242 C 0.79907 0.37437 0.71842 0.0
C243 C 0.77957 0.40092 0.75171 0.0
C244 C 0.72975 0.37924 0.7628 0.0
C245 C 0.69931 0.33022 0.74056 0.0
C246 C 0.70719 0.40984 0.79226 0.0
C247 C 0.73151 0.43484 0.84236 0.0
C248 C 0.65997 0.41332 0.77014 0.0
C249 C 0.63666 0.43926 0.79805 0.0
C250 C 0.65966 0.4625 0.84922 0.0
C251 C 0.8489 0.40175 0.69916 0.0
C252 C 0.85588 0.39349 0.64582 0.0
C253 C 0.88824 0.43984 0.73154 0.0
C254 C 0.93137 0.47114 0.70986 0.0
C255 C 0.93684 0.46432 0.6557 0.0
C256 C 0.89937 0.42383 0.62472 0.0
C257 C 0.70781 0.46074 0.87078 0.0
H258 H 0.66195 0.12991 0.64448 0.0
H259 H 0.7232 0.20389 0.6993 0.0
H260 H 0.63153 0.29931 0.64202 0.0
H261 H 0.57219 0.22765 0.58698 0.0
H262 H 0.78164 0.30324 0.67215 0.0
H263 H 0.66039 0.31381 0.74756 0.0
H264 H 0.80166 0.44016 0.76589 0.0
H265 H 0.76808 0.433 0.86028 0.0
H266 H 0.64071 0.3956 0.73109 0.0
H267 H 0.59982 0.44005 0.77967 0.0
H268 H 0.82659 0.36564 0.61872 0.0
H269 H 0.88516 0.44674 0.7732 0.0
H270 H 0.72663 0.47828 0.91 0.0
H271 H 0.9019 0.41765 0.58263 0.0
H272 H 0.95966 0.5018 0.73495 0.0
C273 C 0.64521 0.62768 0.79403 0.0
C274 C 0.67518 0.63044 0.84535 0.0
C275 C 0.66709 0.65176 0.74865 0.0
C276 C 0.71928 0.67778 0.75379 0.0
C277 C 0.74965 0.6779 0.80425 0.0
C278 C 0.72767 0.65478 0.84993 0.0
C279 C 0.74173 0.7078 0.70757 0.0
C280 C 0.72486 0.74772 0.68362 0.0
C281 C 0.74788 0.77848 0.64148 0.0
C282 C 0.78758 0.76871 0.62245 0.0
C283 C 0.80321 0.72738 0.6452 0.0
C284 C 0.78082 0.69768 0.68826 0.0
C285 C 0.84081 0.71209 0.62306 0.0
C286 C 0.82612 0.66226 0.60021 0.0
C287 C 0.89192 0.74304 0.63193 0.0
C288 C 0.92836 0.72289 0.6208 0.0
C289 C 0.91377 0.67176 0.60053 0.0
C290 C 0.72905 0.82017 0.61797 0.0
C291 C 0.67899 0.80684 0.59224 0.0
C292 C 0.75787 0.8728 0.62861 0.0
C293 C 0.73578 0.91157 0.61638 0.0
C294 C 0.68479 0.89795 0.59296 0.0
C295 C 0.65708 0.84539 0.57956 0.0
C296 C 0.86225 0.64227 0.58897 0.0
H297 H 0.60461 0.60919 0.78944 0.0
H298 H 0.64321 0.65108 0.70982 0.0
H299 H 0.79005 0.69788 0.80882 0.0
H300 H 0.75155 0.65709 0.88903 0.0
H301 H 0.69454 0.75575 0.6987 0.0
H302 H 0.79339 0.66612 0.70624 0.0
H303 H 0.80485 0.79174 0.58912 0.0
H304 H 0.78671 0.63789 0.59333 0.0
H305 H 0.90371 0.78146 0.65009 0.0
H306 H 0.96783 0.74657 0.62969 0.0
H307 H 0.65622 0.76625 0.58408 0.0
H308 H 0.79648 0.88352 0.64905 0.0
H309 H 0.84972 0.60284 0.57314 0.0
H310 H 0.61783 0.8336 0.56114 0.0
H311 H 0.7581 0.95181 0.62671 0.0
Co312 Co 0.11836 0.46882 0.5591 0.0
Co313 Co 0.06038 0.45192 0.46173 0.0
Co314 Co 0.03074 0.52848 0.52747 0.0
O315 O 0.04956 0.46401 0.53216 0.0
H316 H 1.02474 0.43393 0.54583 0.0
O317 O 1.01286 0.59347 0.52275 0.0
Co318 Co 0.94575 0.5928 0.49515 0.0
Co319 Co 1.00247 0.60565 0.59334 0.0
H320 H 0.03863 0.62336 0.51017 0.0
O321 O 0.06659 0.38859 0.44304 0.0
O322 O 0.12709 0.45791 0.48447 0.0
O323 O 0.06487 0.50733 0.40738 0.0
O324 O 0.07777 0.56447 0.47301 0.0
O325 O 0.97385 0.49468 0.46679 0.0
O326 O 0.8865 0.59822 0.47013 0.0
O327 O 0.96169 0.66301 0.48071 0.0
O328 O 0.91964 0.51942 0.50275 0.0
O329 O 0.98317 0.49253 0.58128 0.0
O330 O 0.99581 0.54947 0.64704 0.0
O331 O 0.93665 0.60243 0.57023 0.0
O332 O 0.99863 0.6697 0.61333 0.0
C333 C 0.15506 0.41801 0.59085 0.0
C334 C 0.13298 0.56807 0.58353 0.0
C335 C 0.08366 0.55374 0.42554 0.0
C336 C 0.11361 0.41233 0.46218 0.0
C337 C 0.9129 0.64721 0.465 0.0
C338 C 0.92835 0.4915 0.46879 0.0
C339 C 0.97688 0.50319 0.62859 0.0
C340 C 0.95141 0.64756 0.59389 0.0
O341 O 0.17916 0.46751 0.58441 0.0
O342 O 0.10615 0.39963 0.57592 0.0
O343 O 0.08746 0.56204 0.5886 0.0
O344 O 0.14113 0.54148 0.54802 0.0
Co345 Co 0.59056 0.94964 0.48795 0.0
Co346 Co 0.61495 0.98593 0.5885 0.0
Co347 Co 0.53125 0.02911 0.52392 0.0
O348 O 0.59386 1.01256 0.52114 0.0
H349 H 0.62085 0.04263 0.51087 0.0
O350 O 0.46876 0.04586 0.5282 0.0
Co351 Co 0.47477 0.11108 0.55932 0.0
Co352 Co 0.44589 0.07024 0.46107 0.0
H353 H 0.44222 1.0166 0.54053 0.0
O354 O 0.68024 0.98287 0.60772 0.0
O355 O 0.6133 0.92384 0.55975 0.0
O356 O 0.56776 0.96518 0.64114 0.0
O357 O 0.50496 0.97298 0.57933 0.0
O358 O 0.57172 0.08175 0.5829 0.0
O359 O 0.47614 0.16835 0.58957 0.0
O360 O 0.41226 0.09147 0.58086 0.0
O361 O 0.54056 0.14037 0.54329 0.0
O362 O 0.55726 0.08515 0.46765 0.0
O363 O 0.49168 0.08994 0.4082 0.0
O364 O 0.44839 0.13349 0.48761 0.0
O365 O 0.38036 0.07236 0.44377 0.0
C366 C 0.63766 0.92577 0.44929 0.0
C367 C 0.48949 0.92899 0.46866 0.0
C368 C 0.52101 0.9551 0.6246 0.0
C369 C 0.65928 0.93724 0.58491 0.0
C370 C 0.43133 0.13969 0.59869 0.0
C371 C 0.57394 0.12946 0.57714 0.0
C372 C 0.53892 0.10229 0.42302 0.0
C373 C 0.40134 0.11848 0.46549 0.0
O374 O 0.59271 0.89427 0.45477 0.0
O375 O 0.65422 0.97252 0.47063 0.0
O376 O 0.49067 0.97647 0.4648 0.0
O377 O 0.52387 0.9178 0.50047 0.0
Co378 Co 0.47472 0.54703 0.13281 0.0
Co379 Co 0.45281 0.45322 0.09554 0.0
Co380 Co 0.52987 0.52902 0.02733 0.0
O381 O 0.46906 0.51847 0.06244 0.0
H382 H 0.44075 0.52155 0.03699 0.0
O383 O 0.5907 0.53796 0.99218 0.0
Co384 Co 0.58513 0.50834 0.92174 0.0
Co385 Co 0.60982 0.60274 0.95942 0.0
H386 H 0.61866 0.53415 1.01768 0.0
O387 O 0.38876 0.4188 0.10955 0.0
O388 O 0.45307 0.47532 0.16495 0.0
O389 O 0.50006 0.41491 0.10154 0.0
O390 O 0.56096 0.48736 0.08367 0.0
O391 O 0.49024 0.46486 0.9827 0.0
O392 O 0.58533 0.48142 0.85878 0.0
O393 O 0.64967 0.50699 0.9279 0.0
O394 O 0.51639 0.50196 0.90636 0.0
O395 O 0.4996 0.57146 0.97022 0.0
O396 O 0.56383 0.64122 0.95269 0.0
O397 O 0.60534 0.57934 0.88958 0.0
O398 O 0.67376 0.63392 0.94123 0.0
C399 C 0.42955 0.57112 0.17447 0.0
C400 C 0.57391 0.58946 0.12542 0.0
C401 C 0.5465 0.44108 0.10319 0.0
C402 C 0.40801 0.44023 0.1572 0.0
C403 C 0.63102 0.48502 0.87996 0.0
C404 C 0.4856 0.46559 0.93066 0.0
C405 C 0.51677 0.61672 0.94846 0.0
C406 C 0.65121 0.61234 0.89442 0.0
O407 O 0.47521 0.57447 0.19588 0.0
O408 O 0.41086 0.54925 0.12653 0.0
O409 O 0.56908 0.59298 0.07325 0.0
O410 O 0.54292 0.55176 0.14801 0.0
loop_
_geom_bond_atom_site_label_1
_geom_bond_atom_site_label_2
_geom_bond_distance
_geom_bond_site_symmetry_2
_ccdc_geom_bond_type
C0 C1 1.386 . S
C0 C2 1.397 . S
C0 H24 0.931 . S
C1 C0 1.386 . S
C1 C5 1.397 . S
C2 C0 1.397 . S
C2 C3 1.384 . S
C2 H25 0.930 . S
C3 C2 1.384 . S
C3 C4 1.377 . S
C3 C6 1.481 . S
C4 C3 1.377 . S
C4 C5 1.389 . S
C4 H26 0.929 . S
C5 C1 1.397 . S
C5 C4 1.389 . S
C5 H27 0.931 . S
C6 C3 1.481 . S
C6 C7 1.387 . S
C6 C11 1.390 . S
C7 C6 1.387 . S
C7 C8 1.401 . S
C7 H28 0.930 . S
C8 C7 1.401 . S
C8 C9 1.376 . S
C8 C17 1.511 . S
C9 C8 1.376 . S
C9 C10 1.392 . S
C9 H30 0.931 . S
C10 C9 1.392 . S
C10 C11 1.361 . S
C10 C12 1.500 . S
C11 C6 1.390 . S
C11 C10 1.361 . S
C11 H29 0.931 . S
C12 C10 1.500 . S
C12 C13 1.371 . S
C12 C14 1.365 . S
C13 C12 1.371 . S
C13 C23 1.386 . S
C13 H31 0.931 . S
C14 C12 1.365 . S
C14 C15 1.409 . S
C14 H32 0.929 . S
C15 C14 1.409 . S
C15 C16 1.380 . S
C15 H33 0.930 . S
C16 C15 1.380 . S
C16 C23 1.357 . S
C17 C8 1.511 . S
C17 C18 1.341 . S
C17 C19 1.371 . S
C18 C17 1.341 . S
C18 C22 1.394 . S
C18 H34 0.930 . S
C19 C17 1.371 . S
C19 C20 1.392 . S
C19 H35 0.931 . S
C20 C19 1.392 . S
C20 C21 1.331 . S
C20 H38 0.932 . S
C21 C20 1.331 . S
C21 C22 1.336 . S
C22 C18 1.394 . S
C22 C21 1.336 . S
C22 H37 0.929 . S
C23 C13 1.386 . S
C23 C16 1.357 . S
C23 H36 0.928 . S
H24 C0 0.931 . S
H25 C2 0.930 . S
H26 C4 0.929 . S
H27 C5 0.931 . S
H28 C7 0.930 . S
H29 C11 0.931 . S
H30 C9 0.931 . S
H31 C13 0.931 . S
H32 C14 0.929 . S
H33 C15 0.930 . S
H34 C18 0.930 . S
H35 C19 0.931 . S
H36 C23 0.928 . S
H37 C22 0.929 . S
H38 C20 0.932 . S
C39 C40 1.386 . S
C39 C41 1.397 . S
C39 H63 0.931 . S
C40 C39 1.386 . S
C40 C44 1.397 . S
C41 C39 1.397 . S
C41 C42 1.384 . S
C41 H64 0.930 . S
C42 C41 1.384 . S
C42 C43 1.377 . S
C42 C45 1.481 . S
C43 C42 1.377 . S
C43 C44 1.389 . S
C43 H65 0.929 . S
C44 C40 1.397 . S
C44 C43 1.389 . S
C44 H66 0.931 . S
C45 C42 1.481 . S
C45 C46 1.387 . S
C45 C50 1.390 . S
C46 C45 1.387 . S
C46 C47 1.401 . S
C46 H67 0.930 . S
C47 C46 1.401 . S
C47 C48 1.376 . S
C47 C56 1.511 . S
C48 C47 1.376 . S
C48 C49 1.392 . S
C48 H69 0.931 . S
C49 C48 1.392 . S
C49 C50 1.361 . S
C49 C51 1.500 . S
C50 C45 1.390 . S
C50 C49 1.361 . S
C50 H68 0.931 . S
C51 C49 1.500 . S
C51 C52 1.371 . S
C51 C53 1.365 . S
C52 C51 1.371 . S
C52 C62 1.386 . S
C52 H70 0.931 . S
C53 C51 1.365 . S
C53 C54 1.409 . S
C53 H71 0.929 . S
C54 C53 1.409 . S
C54 C55 1.380 . S
C54 H72 0.930 . S
C55 C54 1.380 . S
C55 C62 1.357 . S
C56 C47 1.511 . S
C56 C57 1.341 . S
C56 C58 1.371 . S
C57 C56 1.341 . S
C57 C61 1.394 . S
C57 H73 0.930 . S
C58 C56 1.371 . S
C58 C59 1.392 . S
C58 H74 0.931 . S
C59 C58 1.392 . S
C59 C60 1.331 . S
C59 H77 0.932 . S
C60 C59 1.331 . S
C60 C61 1.336 . S
C61 C57 1.394 . S
C61 C60 1.336 . S
C61 H76 0.929 . S
C62 C52 1.386 . S
C62 C55 1.357 . S
C62 H75 0.928 . S
H63 C39 0.931 . S
H64 C41 0.930 . S
H65 C43 0.929 . S
H66 C44 0.931 . S
H67 C46 0.930 . S
H68 C50 0.931 . S
H69 C48 0.931 . S
H70 C52 0.931 . S
H71 C53 0.929 . S
H72 C54 0.930 . S
H73 C57 0.930 . S
H74 C58 0.931 . S
H75 C62 0.928 . S
H76 C61 0.929 . S
H77 C59 0.932 . S
C78 C79 1.386 . S
C78 C80 1.397 . S
C78 H102 0.931 . S
C79 C78 1.386 . S
C79 C83 1.397 . S
C80 C78 1.397 . S
C80 C81 1.384 . S
C80 H103 0.930 . S
C81 C80 1.384 . S
C81 C82 1.377 . S
C81 C84 1.481 . S
C82 C81 1.377 . S
C82 C83 1.389 . S
C82 H104 0.929 . S
C83 C79 1.397 . S
C83 C82 1.389 . S
C83 H105 0.931 . S
C84 C81 1.481 . S
C84 C85 1.387 . S
C84 C89 1.390 . S
C85 C84 1.387 . S
C85 C86 1.401 . S
C85 H106 0.930 . S
C86 C85 1.401 . S
C86 C87 1.376 . S
C86 C95 1.511 . S
C87 C86 1.376 . S
C87 C88 1.392 . S
C87 H108 0.931 . S
C88 C87 1.392 . S
C88 C89 1.361 . S
C88 C90 1.500 . S
C89 C84 1.390 . S
C89 C88 1.361 . S
C89 H107 0.931 . S
C90 C88 1.500 . S
C90 C91 1.371 . S
C90 C92 1.365 . S
C91 C90 1.371 . S
C91 C101 1.386 . S
C91 H109 0.931 . S
C92 C90 1.365 . S
C92 C93 1.409 . S
C92 H110 0.929 . S
C93 C92 1.409 . S
C93 C94 1.380 . S
C93 H111 0.930 . S
C94 C93 1.380 . S
C94 C101 1.357 . S
C95 C86 1.511 . S
C95 C96 1.341 . S
C95 C97 1.371 . S
C96 C95 1.341 . S
C96 C100 1.394 . S
C96 H112 0.930 . S
C97 C95 1.371 . S
C97 C98 1.392 . S
C97 H113 0.931 . S
C98 C97 1.392 . S
C98 C99 1.331 . S
C98 H116 0.932 . S
C99 C98 1.331 . S
C99 C100 1.336 . S
C100 C96 1.394 . S
C100 C99 1.336 . S
C100 H115 0.929 . S
C101 C91 1.386 . S
C101 C94 1.357 . S
C101 H114 0.928 . S
H102 C78 0.931 . S
H103 C80 0.930 . S
H104 C82 0.929 . S
H105 C83 0.931 . S
H106 C85 0.930 . S
H107 C89 0.931 . S
H108 C87 0.931 . S
H109 C91 0.931 . S
H110 C92 0.929 . S
H111 C93 0.930 . S
H112 C96 0.930 . S
H113 C97 0.931 . S
H114 C101 0.928 . S
H115 C100 0.929 . S
H116 C98 0.932 . S
C117 C118 1.386 . S
C117 C119 1.397 . S
C117 H141 0.931 . S
C118 C117 1.386 . S
C118 C122 1.397 . S
C119 C117 1.397 . S
C119 C120 1.384 . S
C119 H142 0.930 . S
C120 C119 1.384 . S
C120 C121 1.377 . S
C120 C123 1.481 . S
C121 C120 1.377 . S
C121 C122 1.389 . S
C121 H143 0.929 . S
C122 C118 1.397 . S
C122 C121 1.389 . S
C122 H144 0.931 . S
C123 C120 1.481 . S
C123 C124 1.387 . S
C123 C128 1.390 . S
C124 C123 1.387 . S
C124 C125 1.401 . S
C124 H145 0.930 . S
C125 C124 1.401 . S
C125 C126 1.376 . S
C125 C134 1.511 . S
C126 C125 1.376 . S
C126 C127 1.392 . S
C126 H147 0.931 . S
C127 C126 1.392 . S
C127 C128 1.361 . S
C127 C129 1.500 . S
C128 C123 1.390 . S
C128 C127 1.361 . S
C128 H146 0.931 . S
C129 C127 1.500 . S
C129 C130 1.371 . S
C129 C131 1.365 . S
C130 C129 1.371 . S
C130 C140 1.386 . S
C130 H148 0.931 . S
C131 C129 1.365 . S
C131 C132 1.409 . S
C131 H149 0.929 . S
C132 C131 1.409 . S
C132 C133 1.380 . S
C132 H150 0.930 . S
C133 C132 1.380 . S
C133 C140 1.357 . S
C134 C125 1.511 . S
C134 C135 1.341 . S
C134 C136 1.371 . S
C135 C134 1.341 . S
C135 C139 1.394 . S
C135 H151 0.930 . S
C136 C134 1.371 . S
C136 C137 1.392 . S
C136 H152 0.931 . S
C137 C136 1.392 . S
C137 C138 1.331 . S
C137 H155 0.932 . S
C138 C137 1.331 . S
C138 C139 1.336 . S
C139 C135 1.394 . S
C139 C138 1.336 . S
C139 H154 0.929 . S
C140 C130 1.386 . S
C140 C133 1.357 . S
C140 H153 0.928 . S
H141 C117 0.931 . S
H142 C119 0.930 . S
H143 C121 0.929 . S
H144 C122 0.931 . S
H145 C124 0.930 . S
H146 C128 0.931 . S
H147 C126 0.931 . S
H148 C130 0.931 . S
H149 C131 0.929 . S
H150 C132 0.930 . S
H151 C135 0.930 . S
H152 C136 0.931 . S
H153 C140 0.928 . S
H154 C139 0.929 . S
H155 C137 0.932 . S
C156 C157 1.386 . S
C156 C158 1.397 . S
C156 H180 0.931 . S
C157 C156 1.386 . S
C157 C161 1.397 . S
C158 C156 1.397 . S
C158 C159 1.384 . S
C158 H181 0.930 . S
C159 C158 1.384 . S
C159 C160 1.377 . S
C159 C162 1.481 . S
C160 C159 1.377 . S
C160 C161 1.389 . S
C160 H182 0.929 . S
C161 C157 1.397 . S
C161 C160 1.389 . S
C161 H183 0.931 . S
C162 C159 1.481 . S
C162 C163 1.387 . S
C162 C167 1.390 . S
C163 C162 1.387 . S
C163 C164 1.401 . S
C163 H184 0.930 . S
C164 C163 1.401 . S
C164 C165 1.376 . S
C164 C173 1.511 . S
C165 C164 1.376 . S
C165 C166 1.392 . S
C165 H186 0.931 . S
C166 C165 1.392 . S
C166 C167 1.361 . S
C166 C168 1.500 . S
C167 C162 1.390 . S
C167 C166 1.361 . S
C167 H185 0.931 . S
C168 C166 1.500 . S
C168 C169 1.371 . S
C168 C170 1.365 . S
C169 C168 1.371 . S
C169 C179 1.386 . S
C169 H187 0.931 . S
C170 C168 1.365 . S
C170 C171 1.409 . S
C170 H188 0.929 . S
C171 C170 1.409 . S
C171 C172 1.380 . S
C171 H189 0.930 . S
C172 C171 1.380 . S
C172 C179 1.357 . S
C173 C164 1.511 . S
C173 C174 1.341 . S
C173 C175 1.371 . S
C174 C173 1.341 . S
C174 C178 1.394 . S
C174 H190 0.930 . S
C175 C173 1.371 . S
C175 C176 1.392 . S
C175 H191 0.931 . S
C176 C175 1.392 . S
C176 C177 1.331 . S
C176 H194 0.932 . S
C177 C176 1.331 . S
C177 C178 1.336 . S
C178 C174 1.394 . S
C178 C177 1.336 . S
C178 H193 0.929 . S
C179 C169 1.386 . S
C179 C172 1.357 . S
C179 H192 0.928 . S
H180 C156 0.931 . S
H181 C158 0.930 . S
H182 C160 0.929 . S
H183 C161 0.931 . S
H184 C163 0.930 . S
H185 C167 0.931 . S
H186 C165 0.931 . S
H187 C169 0.931 . S
H188 C170 0.929 . S
H189 C171 0.930 . S
H190 C174 0.930 . S
H191 C175 0.931 . S
H192 C179 0.928 . S
H193 C178 0.929 . S
H194 C176 0.932 . S
C195 C196 1.386 . S
C195 C197 1.397 . S
C195 H219 0.931 . S
C196 C195 1.386 . S
C196 C200 1.397 . S
C197 C195 1.397 . S
C197 C198 1.384 . S
C197 H220 0.930 . S
C198 C197 1.384 . S
C198 C199 1.377 . S
C198 C201 1.481 . S
C199 C198 1.377 . S
C199 C200 1.389 . S
C199 H221 0.929 . S
C200 C196 1.397 . S
C200 C199 1.389 . S
C200 H222 0.931 . S
C201 C198 1.481 . S
C201 C202 1.387 . S
C201 C206 1.390 . S
C202 C201 1.387 . S
C202 C203 1.401 . S
C202 H223 0.930 . S
C203 C202 1.401 . S
C203 C204 1.376 . S
C203 C212 1.511 . S
C204 C203 1.376 . S
C204 C205 1.392 . S
C204 H225 0.931 . S
C205 C204 1.392 . S
C205 C206 1.361 . S
C205 C207 1.500 . S
C206 C201 1.390 . S
C206 C205 1.361 . S
C206 H224 0.931 . S
C207 C205 1.500 . S
C207 C208 1.371 . S
C207 C209 1.365 . S
C208 C207 1.371 . S
C208 C218 1.386 . S
C208 H226 0.931 . S
C209 C207 1.365 . S
C209 C210 1.409 . S
C209 H227 0.929 . S
C210 C209 1.409 . S
C210 C211 1.380 . S
C210 H228 0.930 . S
C211 C210 1.380 . S
C211 C218 1.357 . S
C212 C203 1.511 . S
C212 C213 1.341 . S
C212 C214 1.371 . S
C213 C212 1.341 . S
C213 C217 1.394 . S
C213 H229 0.930 . S
C214 C212 1.371 . S
C214 C215 1.392 . S
C214 H230 0.931 . S
C215 C214 1.392 . S
C215 C216 1.331 . S
C215 H233 0.932 . S
C216 C215 1.331 . S
C216 C217 1.336 . S
C217 C213 1.394 . S
C217 C216 1.336 . S
C217 H232 0.929 . S
C218 C208 1.386 . S
C218 C211 1.357 . S
C218 H231 0.928 . S
H219 C195 0.931 . S
H220 C197 0.930 . S
H221 C199 0.929 . S
H222 C200 0.931 . S
H223 C202 0.930 . S
H224 C206 0.931 . S
H225 C204 0.931 . S
H226 C208 0.931 . S
H227 C209 0.929 . S
H228 C210 0.930 . S
H229 C213 0.930 . S
H230 C214 0.931 . S
H231 C218 0.928 . S
H232 C217 0.929 . S
H233 C215 0.932 . S
C234 C235 1.386 . S
C234 C236 1.397 . S
C234 H258 0.931 . S
C235 C234 1.386 . S
C235 C239 1.397 . S
C236 C234 1.397 . S
C236 C237 1.384 . S
C236 H259 0.930 . S
C237 C236 1.384 . S
C237 C238 1.377 . S
C237 C240 1.481 . S
C238 C237 1.377 . S
C238 C239 1.389 . S
C238 H260 0.929 . S
C239 C235 1.397 . S
C239 C238 1.389 . S
C239 H261 0.931 . S
C240 C237 1.481 . S
C240 C241 1.387 . S
C240 C245 1.390 . S
C241 C240 1.387 . S
C241 C242 1.401 . S
C241 H262 0.930 . S
C242 C241 1.401 . S
C242 C243 1.376 . S
C242 C251 1.511 . S
C243 C242 1.376 . S
C243 C244 1.392 . S
C243 H264 0.931 . S
C244 C243 1.392 . S
C244 C245 1.361 . S
C244 C246 1.500 . S
C245 C240 1.390 . S
C245 C244 1.361 . S
C245 H263 0.931 . S
C246 C244 1.500 . S
C246 C247 1.371 . S
C246 C248 1.365 . S
C247 C246 1.371 . S
C247 C257 1.386 . S
C247 H265 0.931 . S
C248 C246 1.365 . S
C248 C249 1.409 . S
C248 H266 0.929 . S
C249 C248 1.409 . S
C249 C250 1.380 . S
C249 H267 0.930 . S
C250 C249 1.380 . S
C250 C257 1.357 . S
C251 C242 1.511 . S
C251 C252 1.341 . S
C251 C253 1.371 . S
C252 C251 1.341 . S
C252 C256 1.394 . S
C252 H268 0.930 . S
C253 C251 1.371 . S
C253 C254 1.392 . S
C253 H269 0.931 . S
C254 C253 1.392 . S
C254 C255 1.331 . S
C254 H272 0.932 . S
C255 C254 1.331 . S
C255 C256 1.336 . S
C256 C252 1.394 . S
C256 C255 1.336 . S
C256 H271 0.929 . S
C257 C247 1.386 . S
C257 C250 1.357 . S
C257 H270 0.928 . S
H258 C234 0.931 . S
H259 C236 0.930 . S
H260 C238 0.929 . S
H261 C239 0.931 . S
H262 C241 0.930 . S
H263 C245 0.931 . S
H264 C243 0.931 . S
H265 C247 0.931 . S
H266 C248 0.929 . S
H267 C249 0.930 . S
H268 C252 0.930 . S
H269 C253 0.931 . S
H270 C257 0.928 . S
H271 C256 0.929 . S
H272 C254 0.932 . S
C273 C274 1.386 . S
C273 C275 1.397 . S
C273 H297 0.931 . S
C274 C273 1.386 . S
C274 C278 1.397 . S
C275 C273 1.397 . S
C275 C276 1.384 . S
C275 H298 0.930 . S
C276 C275 1.384 . S
C276 C277 1.377 . S
C276 C279 1.481 . S
C277 C276 1.377 . S
C277 C278 1.389 . S
C277 H299 0.929 . S
C278 C274 1.397 . S
C278 C277 1.389 . S
C278 H300 0.931 . S
C279 C276 1.481 . S
C279 C280 1.387 . S
C279 C284 1.390 . S
C280 C279 1.387 . S
C280 C281 1.401 . S
C280 H301 0.930 . S
C281 C280 1.401 . S
C281 C282 1.376 . S
C281 C290 1.511 . S
C282 C281 1.376 . S
C282 C283 1.392 . S
C282 H303 0.931 . S
C283 C282 1.392 . S
C283 C284 1.361 . S
C283 C285 1.500 . S
C284 C279 1.390 . S
C284 C283 1.361 . S
C284 H302 0.931 . S
C285 C283 1.500 . S
C285 C286 1.371 . S
C285 C287 1.365 . S
C286 C285 1.371 . S
C286 C296 1.386 . S
C286 H304 0.931 . S
C287 C285 1.365 . S
C287 C288 1.409 . S
C287 H305 0.929 . S
C288 C287 1.409 . S
C288 C289 1.380 . S
C288 H306 0.930 . S
C289 C288 1.380 . S
C289 C296 1.357 . S
C290 C281 1.511 . S
C290 C291 1.341 . S
C290 C292 1.371 . S
C291 C290 1.341 . S
C291 C295 1.394 . S
C291 H307 0.930 . S
C292 C290 1.371 . S
C292 C293 1.392 . S
C292 H308 0.931 . S
C293 C292 1.392 . S
C293 C294 1.331 . S
C293 H311 0.932 . S
C294 C293 1.331 . S
C294 C295 1.336 . S
C295 C291 1.394 . S
C295 C294 1.336 . S
C295 H310 0.929 . S
C296 C286 1.386 . S
C296 C289 1.357 . S
C296 H309 0.928 . S
H297 C273 0.931 . S
H298 C275 0.930 . S
H299 C277 0.929 . S
H300 C278 0.931 . S
H301 C280 0.930 . S
H302 C284 0.931 . S
H303 C282 0.931 . S
H304 C286 0.931 . S
H305 C287 0.929 . S
H306 C288 0.930 . S
H307 C291 0.930 . S
H308 C292 0.931 . S
H309 C296 0.928 . S
H310 C295 0.929 . S
H311 C293 0.932 . S
Co312 O315 2.042 . S
Co312 O322 2.264 . S
Co312 O341 2.286 . S
Co312 O342 2.069 . S
Co312 O344 2.015 . S
Co313 O315 2.122 . S
Co313 O321 2.073 . S
Co313 O322 2.327 . S
Co313 O323 1.976 . S
Co314 O315 2.087 . S
Co314 O317 2.087 1_455 S
Co314 O324 2.111 . S
Co314 O325 2.143 1_455 S
Co314 O329 2.111 1_455 S
Co314 O343 2.143 . S
O315 Co312 2.042 . S
O315 Co313 2.122 . S
O315 Co314 2.087 . S
O315 H316 0.980 . S
H316 O315 0.980 . S
O317 Co314 2.087 1_655 S
O317 Co318 2.042 . S
O317 Co319 2.122 . S
O317 H320 0.980 . S
Co318 O317 2.042 . S
Co318 O326 2.286 . S
Co318 O327 2.069 . S
Co318 O328 2.015 . S
Co318 O331 2.264 . S
Co319 O317 2.122 . S
Co319 O330 1.976 . S
Co319 O331 2.327 . S
Co319 O332 2.073 . S
H320 O317 0.980 . S
O321 Co313 2.073 . S
O321 C336 1.245 . S
O322 Co312 2.264 . S
O322 Co313 2.327 . S
O322 C336 1.257 . S
O323 Co313 1.976 . S
O323 C335 1.251 . S
O324 Co314 2.111 . S
O324 C335 1.274 . S
O325 Co314 2.143 1_655 S
O325 C338 1.246 . S
O326 Co318 2.286 . S
O326 C337 1.259 . S
O327 Co318 2.069 . S
O327 C337 1.289 . S
O328 Co318 2.015 . S
O328 C338 1.257 . S
O329 Co314 2.111 1_655 S
O329 C339 1.274 . S
O330 Co319 1.976 . S
O330 C339 1.251 . S
O331 Co318 2.264 . S
O331 Co319 2.327 . S
O331 C340 1.257 . S
O332 Co319 2.073 . S
O332 C340 1.245 . S
C333 O341 1.259 . S
C333 O342 1.289 . S
C334 O343 1.246 . S
C334 O344 1.257 . S
C335 O323 1.251 . S
C335 O324 1.274 . S
C336 O321 1.245 . S
C336 O322 1.257 . S
C337 O326 1.259 . S
C337 O327 1.289 . S
C338 O325 1.246 . S
C338 O328 1.257 . S
C339 O329 1.274 . S
C339 O330 1.251 . S
C340 O331 1.257 . S
C340 O332 1.245 . S
O341 Co312 2.286 . S
O341 C333 1.259 . S
O342 Co312 2.069 . S
O342 C333 1.289 . S
O343 Co314 2.143 . S
O343 C334 1.246 . S
O344 Co312 2.015 . S
O344 C334 1.257 . S
Co345 O348 2.042 . S
Co345 O355 2.264 . S
Co345 O374 2.286 . S
Co345 O375 2.069 . S
Co345 O377 2.015 . S
Co346 O348 2.122 . S
Co346 O354 2.073 . S
Co346 O355 2.327 . S
Co346 O356 1.976 . S
Co347 O348 2.087 1_545 S
Co347 O350 2.087 . S
Co347 O357 2.111 1_545 S
Co347 O358 2.143 . S
Co347 O362 2.111 . S
Co347 O376 2.143 1_545 S
O348 Co345 2.042 . S
O348 Co346 2.122 . S
O348 Co347 2.087 1_565 S
O348 H349 0.980 . S
H349 O348 0.980 . S
O350 Co347 2.087 . S
O350 Co351 2.042 . S
O350 Co352 2.122 . S
O350 H353 0.980 . S
Co351 O350 2.042 . S
Co351 O359 2.286 . S
Co351 O360 2.069 . S
Co351 O361 2.015 . S
Co351 O364 2.264 . S
Co352 O350 2.122 . S
Co352 O363 1.976 . S
Co352 O364 2.327 . S
Co352 O365 2.073 . S
H353 O350 0.980 . S
O354 Co346 2.073 . S
O354 C369 1.245 . S
O355 Co345 2.264 . S
O355 Co346 2.327 . S
O355 C369 1.257 . S
O356 Co346 1.976 . S
O356 C368 1.251 . S
O357 Co347 2.111 1_565 S
O357 C368 1.274 . S
O358 Co347 2.143 . S
O358 C371 1.246 . S
O359 Co351 2.286 . S
O359 C370 1.259 . S
O360 Co351 2.069 . S
O360 C370 1.289 . S
O361 Co351 2.015 . S
O361 C371 1.257 . S
O362 Co347 2.111 . S
O362 C372 1.274 . S
O363 Co352 1.976 . S
O363 C372 1.251 . S
O364 Co351 2.264 . S
O364 Co352 2.327 . S
O364 C373 1.257 . S
O365 Co352 2.073 . S
O365 C373 1.245 . S
C366 O374 1.259 . S
C366 O375 1.289 . S
C367 O376 1.246 . S
C367 O377 1.257 . S
C368 O356 1.251 . S
C368 O357 1.274 . S
C369 O354 1.245 . S
C369 O355 1.257 . S
C370 O359 1.259 . S
C370 O360 1.289 . S
C371 O358 1.246 . S
C371 O361 1.257 . S
C372 O362 1.274 . S
C372 O363 1.251 . S
C373 O364 1.257 . S
C373 O365 1.245 . S
O374 Co345 2.286 . S
O374 C366 1.259 . S
O375 Co345 2.069 . S
O375 C366 1.289 . S
O376 Co347 2.143 1_565 S
O376 C367 1.246 . S
O377 Co345 2.015 . S
O377 C367 1.257 . S
Co378 O381 2.042 . S
Co378 O388 2.264 . S
Co378 O407 2.286 . S
Co378 O408 2.069 . S
Co378 O410 2.015 . S
Co379 O381 2.122 . S
Co379 O387 2.073 . S
Co379 O388 2.327 . S
Co379 O389 1.976 . S
Co380 O381 2.087 . S
Co380 O383 2.087 1_554 S
Co380 O390 2.111 . S
Co380 O391 2.143 1_554 S
Co380 O395 2.111 1_554 S
Co380 O409 2.143 . S
O381 Co378 2.042 . S
O381 Co379 2.122 . S
O381 Co380 2.087 . S
O381 H382 0.980 . S
H382 O381 0.980 . S
O383 Co380 2.087 1_556 S
O383 Co384 2.042 . S
O383 Co385 2.122 . S
O383 H386 0.980 . S
Co384 O383 2.042 . S
Co384 O392 2.286 . S
Co384 O393 2.069 . S
Co384 O394 2.015 . S
Co384 O397 2.264 . S
Co385 O383 2.122 . S
Co385 O396 1.976 . S
Co385 O397 2.327 . S
Co385 O398 2.073 . S
H386 O383 0.980 . S
O387 Co379 2.073 . S
O387 C402 1.245 . S
O388 Co378 2.264 . S
O388 Co379 2.327 . S
O388 C402 1.257 . S
O389 Co379 1.976 . S
O389 C401 1.251 . S
O390 Co380 2.111 . S
O390 C401 1.274 . S
O391 Co380 2.143 1_556 S
O391 C404 1.246 . S
O392 Co384 2.286 . S
O392 C403 1.259 . S
O393 Co384 2.069 . S
O393 C403 1.289 . S
O394 Co384 2.015 . S
O394 C404 1.257 . S
O395 Co380 2.111 1_556 S
O395 C405 1.274 . S
O396 Co385 1.976 . S
O396 C405 1.251 . S
O397 Co384 2.264 . S
O397 Co385 2.327 . S
O397 C406 1.257 . S
O398 Co385 2.073 . S
O398 C406 1.245 . S
C399 O407 1.259 . S
C399 O408 1.289 . S
C400 O409 1.246 . S
C400 O410 1.257 . S
C401 O389 1.251 . S
C401 O390 1.274 . S
C402 O387 1.245 . S
C402 O388 1.257 . S
C403 O392 1.259 . S
C403 O393 1.289 . S
C404 O391 1.246 . S
C404 O394 1.257 . S
C405 O395 1.274 . S
C405 O396 1.251 . S
C406 O397 1.257 . S
C406 O398 1.245 . S
O407 Co378 2.286 . S
O407 C399 1.259 . S
O408 Co378 2.069 . S
O408 C399 1.289 . S
O409 Co380 2.143 . S
O409 C400 1.246 . S
O410 Co378 2.015 . S
O410 C400 1.257 . S
C336 C16 1.228 . S
C372 C55 2.054 . S
C337 C99 1.693 . S
C367 C133 1.878 . S
C334 C157 1.932 . S
C211 C370 2.275 . S
C255 C339 1.159 . S
C369 C294 2.103 . S
C373 C21 2.123 . S
C338 C40 1.903 . S
C366 C94 2.286 . S
C335 C138 1.160 . S
C368 C172 2.050 . S
C216 C333 1.741 . S
C235 C371 1.907 . S
C340 C289 1.239 . S
C402 C1 1.698 . S
C177 C405 2.533 . S
C404 C196 2.513 . S
C250 C403 2.554 . S
C406 C274 1.692 . S
C79 C400 2.489 . S
C399 C118 2.576 . S
C60 C401 2.501 . S
