# Generated by pormake.
# Topology pyr, (3,6)-cn, num edge types: 1
# Building blocks:
#     Node 0, Type 0, BuildingBlock: BELTOD_clean_linker_0, # of connection points: 3
#     Node 1, Type 0, BuildingBlock: BELTOD_clean_linker_0, # of connection points: 3
#     Node 2, Type 0, BuildingBlock: BELTOD_clean_linker_0, # of connection points: 3
#     Node 3, Type 0, BuildingBlock: BELTOD_clean_linker_0, # of connection points: 3
#     Node 4, Type 0, BuildingBlock: BELTOD_clean_linker_0, # of connection points: 3
#     Node 5, Type 0, BuildingBlock: BELTOD_clean_linker_0, # of connection points: 3
#     Node 6, Type 0, BuildingBlock: BELTOD_clean_linker_0, # of connection points: 3
#     Node 7, Type 0, BuildingBlock: BELTOD_clean_linker_0, # of connection points: 3
#     Node 8, Type 1, BuildingBlock: PAMTUU_clean_sbu_0, # of connection points: 6
#     Node 9, Type 1, BuildingBlock: PAMTUU_clean_sbu_0, # of connection points: 6
#     Node 10, Type 1, BuildingBlock: PAMTUU_clean_sbu_0, # of connection points: 6
#     Node 11, Type 1, BuildingBlock: PAMTUU_clean_sbu_0, # of connection points: 6
#     Edge 12, Type (0, 1), BuildingBlock: OJICUG_clean_linker_0, # of connection points: 2
#     Edge 13, Type (0, 1), BuildingBlock: OJICUG_clean_linker_0, # of connection points: 2
#     Edge 14, Type (0, 1), BuildingBlock: OJICUG_clean_linker_0, # of connection points: 2
#     Edge 15, Type (0, 1), BuildingBlock: OJICUG_clean_linker_0, # of connection points: 2
#     Edge 16, Type (0, 1), BuildingBlock: OJICUG_clean_linker_0, # of connection points: 2
#     Edge 17, Type (0, 1), BuildingBlock: OJICUG_clean_linker_0, # of connection points: 2
#     Edge 18, Type (0, 1), BuildingBlock: OJICUG_clean_linker_0, # of connection points: 2
#     Edge 19, Type (0, 1), BuildingBlock: OJICUG_clean_linker_0, # of connection points: 2
#     Edge 20, Type (0, 1), BuildingBlock: OJICUG_clean_linker_0, # of connection points: 2
#     Edge 21, Type (0, 1), BuildingBlock: OJICUG_clean_linker_0, # of connection points: 2
#     Edge 22, Type (0, 1), BuildingBlock: OJICUG_clean_linker_0, # of connection points: 2
#     Edge 23, Type (0, 1), BuildingBlock: OJICUG_clean_linker_0, # of connection points: 2
#     Edge 24, Type (0, 1), BuildingBlock: OJICUG_clean_linker_0, # of connection points: 2
#     Edge 25, Type (0, 1), BuildingBlock: OJICUG_clean_linker_0, # of connection points: 2
#     Edge 26, Type (0, 1), BuildingBlock: OJICUG_clean_linker_0, # of connection points: 2
#     Edge 27, Type (0, 1), BuildingBlock: OJICUG_clean_linker_0, # of connection points: 2
#     Edge 28, Type (0, 1), BuildingBlock: OJICUG_clean_linker_0, # of connection points: 2
#     Edge 29, Type (0, 1), BuildingBlock: OJICUG_clean_linker_0, # of connection points: 2
#     Edge 30, Type (0, 1), BuildingBlock: OJICUG_clean_linker_0, # of connection points: 2
#     Edge 31, Type (0, 1), BuildingBlock: OJICUG_clean_linker_0, # of connection points: 2
#     Edge 32, Type (0, 1), BuildingBlock: OJICUG_clean_linker_0, # of connection points: 2
#     Edge 33, Type (0, 1), BuildingBlock: OJICUG_clean_linker_0, # of connection points: 2
#     Edge 34, Type (0, 1), BuildingBlock: OJICUG_clean_linker_0, # of connection points: 2
#     Edge 35, Type (0, 1), BuildingBlock: OJICUG_clean_linker_0, # of connection points: 2
# Relax obj value: 0.149
# Max RMSD: 0.149
# Mean RMSD: 0.062
data_MOF--net-pyr--node1-PAMTUU_clean_sbu_0--node2-BELTOD_clean_linker_0--edge1-OJICUG_clean_linker_0
_symmetry_space_group_name_H-M    P1
_symmetry_Int_Tables_number       1
_symmetry_cell_setting            triclinic
loop_
_symmetry_equiv_pos_as_xyz
'x, y, z'
_cell_length_a     32.893502
_cell_length_b     34.835004
_cell_length_c     33.110671
_cell_angle_alpha  90.190096
_cell_angle_beta   89.458104
_cell_angle_gamma 101.77951
loop_
_atom_site_label
_atom_site_type_symbol
_atom_site_fract_x
_atom_site_fract_y
_atom_site_fract_z
_atom_type_partial_charge
P0 P 0.4135 0.33484 0.25411 0.0
H1 H 0.48403 0.32653 0.20165 0.0
H2 H 0.50388 0.26922 0.1698 0.0
H3 H 0.39875 0.19398 0.2276 0.0
H4 H 0.37815 0.25086 0.25709 0.0
H5 H 0.38734 0.40972 0.24674 0.0
H6 H 0.3267 0.42691 0.21458 0.0
H7 H 0.29841 0.31248 0.15858 0.0
H8 H 0.35873 0.29572 0.19029 0.0
H9 H 0.43765 0.29693 0.32608 0.0
H10 H 0.32853 0.33517 0.28395 0.0
O11 O 0.45433 0.37068 0.2636 0.0
H12 H 0.39457 0.25415 0.37551 0.0
H13 H 0.28625 0.29309 0.3329 0.0
C14 C 0.43016 0.29297 0.23242 0.0
C15 C 0.46553 0.29761 0.20755 0.0
C16 C 0.47694 0.2648 0.18959 0.0
C17 C 0.45292 0.22692 0.19613 0.0
C18 C 0.41771 0.22264 0.2214 0.0
C19 C 0.4062 0.25528 0.23885 0.0
C20 C 0.37801 0.35167 0.22055 0.0
C21 C 0.36893 0.38892 0.22634 0.0
C22 C 0.33395 0.39849 0.20841 0.0
C23 C 0.30754 0.3709 0.18434 0.0
C24 C 0.31828 0.33453 0.17661 0.0
C25 C 0.35301 0.32493 0.19476 0.0
C26 C 0.38634 0.31852 0.3005 0.0
C27 C 0.40494 0.29756 0.32861 0.0
C28 C 0.38036 0.27312 0.35681 0.0
C29 C 0.3371 0.26985 0.35718 0.0
C30 C 0.31951 0.29475 0.33264 0.0
C31 C 0.34392 0.31891 0.3045 0.0
P32 P 0.19952 0.82339 0.72872 0.0
H33 H 0.25718 0.80425 0.7867 0.0
H34 H 0.26292 0.81649 0.85882 0.0
H35 H 0.13887 0.83993 0.8614 0.0
H36 H 0.13309 0.82702 0.78894 0.0
H37 H 0.23835 0.8186 0.65059 0.0
H38 H 0.27835 0.77255 0.62381 0.0
H39 H 0.23551 0.69366 0.72294 0.0
H40 H 0.19621 0.7406 0.75004 0.0
H41 H 0.16575 0.89224 0.74294 0.0
H42 H 0.13637 0.78845 0.66883 0.0
O43 O 0.23877 0.86174 0.72258 0.0
H44 H 0.11413 0.92033 0.70801 0.0
H45 H 0.08369 0.81624 0.63374 0.0
C46 C 0.19522 0.81571 0.78232 0.0
C47 C 0.23045 0.81021 0.80306 0.0
C48 C 0.23357 0.81704 0.84449 0.0
C49 C 0.20161 0.82999 0.86566 0.0
C50 C 0.16421 0.83058 0.84567 0.0
C51 C 0.16102 0.82341 0.80415 0.0
C52 C 0.21528 0.78341 0.70274 0.0
C53 C 0.23661 0.79087 0.66591 0.0
C54 C 0.2594 0.76434 0.65054 0.0
C55 C 0.26096 0.72974 0.67175 0.0
C56 C 0.23584 0.72053 0.70647 0.0
C57 C 0.21311 0.74722 0.72186 0.0
C58 C 0.15505 0.83853 0.70814 0.0
C59 C 0.14726 0.87505 0.71977 0.0
C60 C 0.11739 0.89094 0.69999 0.0
C61 C 0.09489 0.87064 0.6679 0.0
C62 C 0.10088 0.83276 0.65808 0.0
C63 C 0.13088 0.81681 0.67809 0.0
P64 P 0.67993 0.34661 0.83911 0.0
H65 H 0.76877 0.34363 0.84068 0.0
H66 H 0.82779 0.37668 0.87962 0.0
H67 H 0.75095 0.4473 0.93808 0.0
H68 H 0.69086 0.41338 0.89859 0.0
H69 H 0.59327 0.29817 0.83749 0.0
H70 H 0.55836 0.24148 0.87723 0.0
H71 H 0.6634 0.25751 0.95711 0.0
H72 H 0.6982 0.31314 0.91696 0.0
H73 H 0.623 0.32078 0.77182 0.0
H74 H 0.68017 0.43205 0.82338 0.0
O75 O 0.70043 0.31739 0.8084 0.0
H76 H 0.596 0.35418 0.71657 0.0
H77 H 0.65339 0.46594 0.76772 0.0
C78 C 0.72478 0.37608 0.86579 0.0
C79 C 0.76415 0.36647 0.86138 0.0
C80 C 0.79827 0.38531 0.88423 0.0
C81 C 0.79462 0.41471 0.91255 0.0
C82 C 0.75534 0.42506 0.9165 0.0
C83 C 0.7208 0.40568 0.89376 0.0
C84 C 0.64839 0.31125 0.87425 0.0
C85 C 0.60852 0.29019 0.86405 0.0
C86 C 0.58845 0.25736 0.887 0.0
C87 C 0.60784 0.24397 0.92064 0.0
C88 C 0.64731 0.2659 0.93126 0.0
C89 C 0.66718 0.2986 0.90843 0.0
C90 C 0.65313 0.37341 0.80301 0.0
C91 C 0.62904 0.35252 0.772 0.0
C92 C 0.61407 0.37188 0.73963 0.0
C93 C 0.62249 0.41319 0.73671 0.0
C94 C 0.64567 0.43422 0.76851 0.0
C95 C 0.66101 0.4147 0.80085 0.0
P96 P 0.85324 0.69645 0.32712 0.0
H97 H 0.90169 0.7712 0.29579 0.0
H98 H 0.93414 0.83302 0.32808 0.0
H99 H 0.90851 0.7787 0.44513 0.0
H100 H 0.87564 0.71722 0.41252 0.0
H101 H 0.82498 0.61952 0.28782 0.0
H102 H 0.85509 0.58358 0.23572 0.0
H103 H 0.96911 0.67043 0.24044 0.0
H104 H 0.9387 0.7061 0.2927 0.0
H105 H 0.78519 0.7211 0.36996 0.0
H106 H 0.83517 0.61617 0.36462 0.0
O107 O 0.82555 0.71576 0.29365 0.0
H108 H 0.72919 0.68836 0.41434 0.0
H109 H 0.77892 0.58289 0.40929 0.0
C110 C 0.88595 0.73914 0.35145 0.0
C111 C 0.90376 0.77229 0.32842 0.0
C112 C 0.9224 0.8079 0.34709 0.0
C113 C 0.92374 0.81162 0.38955 0.0
C114 C 0.90747 0.77769 0.41247 0.0
C115 C 0.88895 0.74206 0.39373 0.0
C116 C 0.87977 0.66513 0.29574 0.0
C117 C 0.857 0.63022 0.2788 0.0
C118 C 0.87431 0.60965 0.2485 0.0
C119 C 0.91479 0.62377 0.23322 0.0
C120 C 0.93776 0.6585 0.25075 0.0
C121 C 0.9205 0.67885 0.28132 0.0
C122 C 0.81428 0.67112 0.36315 0.0
C123 C 0.7843 0.69096 0.37853 0.0
C124 C 0.75223 0.67215 0.4043 0.0
C125 C 0.74894 0.63267 0.41559 0.0
C126 C 0.77978 0.61307 0.40093 0.0
C127 C 0.8122 0.63214 0.3753 0.0
P128 P 0.70391 0.84431 0.89624 0.0
H129 H 0.66429 0.83675 0.97467 0.0
H130 H 0.60083 0.85586 0.99685 0.0
H131 H 0.5621 0.85902 0.87269 0.0
H132 H 0.62588 0.83955 0.85073 0.0
H133 H 0.77952 0.85409 0.94338 0.0
H134 H 0.8221 0.80848 0.96419 0.0
H135 H 0.73062 0.71187 0.91784 0.0
H136 H 0.68713 0.75813 0.89759 0.0
H137 H 0.68927 0.90085 0.83754 0.0
H138 H 0.73466 0.793 0.83623 0.0
O139 O 0.72622 0.8887 0.9133 0.0
H140 H 0.70676 0.91037 0.76622 0.0
H141 H 0.75209 0.80234 0.76473 0.0
C142 C 0.65035 0.8377 0.91113 0.0
C143 C 0.64125 0.83961 0.95231 0.0
C144 C 0.60471 0.8506 0.96493 0.0
C145 C 0.5768 0.86001 0.93639 0.0
C146 C 0.58347 0.85287 0.89531 0.0
C147 C 0.62006 0.84171 0.88276 0.0
C148 C 0.7302 0.80945 0.91882 0.0
C149 C 0.76787 0.82306 0.9386 0.0
C150 C 0.79224 0.79691 0.95063 0.0
C151 C 0.7797 0.75669 0.94251 0.0
C152 C 0.741 0.7428 0.9243 0.0
C153 C 0.71614 0.76907 0.91293 0.0
C154 C 0.71077 0.84639 0.84234 0.0
C155 C 0.7021 0.87874 0.82167 0.0
C156 C 0.71175 0.88393 0.78077 0.0
C157 C 0.73072 0.85701 0.75988 0.0
C158 C 0.73757 0.82356 0.78017 0.0
C159 C 0.72757 0.81824 0.82116 0.0
P160 P 0.91666 0.31872 0.32257 0.0
H161 H 0.89116 0.3942 0.33312 0.0
H162 H 0.82752 0.41121 0.3602 0.0
H163 H 0.78145 0.28997 0.39243 0.0
H164 H 0.84481 0.2732 0.36525 0.0
H165 H 0.98347 0.27871 0.30314 0.0
H166 H 1.00838 0.22581 0.33714 0.0
H167 H 0.93433 0.24079 0.44219 0.0
H168 H 0.91005 0.29396 0.40838 0.0
H169 H 0.8971 0.33567 0.23885 0.0
H170 H 0.88382 0.23485 0.31686 0.0
O171 O 0.94988 0.35803 0.30518 0.0
H172 H 0.85893 0.29414 0.18579 0.0
H173 H 0.84573 0.19387 0.26504 0.0
C174 C 0.87316 0.33259 0.34799 0.0
C175 C 0.86772 0.37143 0.34669 0.0
C176 C 0.83119 0.38105 0.36184 0.0
C177 C 0.79956 0.35191 0.37853 0.0
C178 C 0.8055 0.31316 0.38035 0.0
C179 C 0.84176 0.30355 0.36485 0.0
C180 C 0.94415 0.28962 0.35282 0.0
C181 C 0.97359 0.2714 0.33397 0.0
C182 C 0.98772 0.2411 0.35335 0.0
C183 C 0.97251 0.22862 0.39192 0.0
C184 C 0.94574 0.24922 0.41204 0.0
C185 C 0.93187 0.27969 0.39271 0.0
C186 C 0.89425 0.28817 0.28135 0.0
C187 C 0.88681 0.30454 0.24422 0.0
C188 C 0.86479 0.28086 0.21411 0.0
C189 C 0.84975 0.24058 0.22099 0.0
C190 C 0.85786 0.22446 0.25818 0.0
C191 C 0.87964 0.24802 0.28804 0.0
P192 P 0.38011 0.67816 0.2092 0.0
H193 H 0.35404 0.6706 0.12497 0.0
H194 H 0.28949 0.64231 0.09071 0.0
H195 H 0.2291 0.61439 0.20637 0.0
H196 H 0.2945 0.64251 0.24048 0.0
H197 H 0.46 0.73522 0.20737 0.0
H198 H 0.48037 0.80338 0.18519 0.0
H199 H 0.35121 0.80802 0.17029 0.0
H200 H 0.33125 0.73962 0.19202 0.0
H201 H 0.35236 0.60081 0.24863 0.0
H202 H 0.43161 0.71077 0.27985 0.0
O203 O 0.41426 0.66109 0.18023 0.0
H204 H 0.3734 0.57092 0.30953 0.0
H205 H 0.45441 0.68092 0.33993 0.0
C206 C 0.32982 0.65819 0.1855 0.0
C207 C 0.32696 0.65837 0.14312 0.0
C208 C 0.2896 0.64233 0.12339 0.0
C209 C 0.25342 0.62554 0.14534 0.0
C210 C 0.25615 0.62622 0.18804 0.0
C211 C 0.29371 0.64252 0.20781 0.0
C212 C 0.39394 0.73171 0.2018 0.0
C213 C 0.4359 0.75108 0.20023 0.0
C214 C 0.4476 0.79043 0.18733 0.0
C215 C 0.4177 0.81193 0.17527 0.0
C216 C 0.3755 0.79276 0.17839 0.0
C217 C 0.36386 0.75341 0.19143 0.0
C218 C 0.38885 0.65882 0.25972 0.0
C219 C 0.37356 0.61901 0.26907 0.0
C220 C 0.38651 0.60154 0.30394 0.0
C221 C 0.41612 0.62292 0.33069 0.0
C222 C 0.43108 0.66303 0.32128 0.0
C223 C 0.41786 0.68048 0.28649 0.0
P224 P 0.18656 0.34104 0.73254 0.0
H225 H 0.20688 0.31022 0.65356 0.0
H226 H 0.17478 0.25409 0.613 0.0
H227 H 0.07026 0.23152 0.69552 0.0
H228 H 0.10232 0.28876 0.73558 0.0
H229 H 0.27658 0.34419 0.73234 0.0
H230 H 0.33443 0.37907 0.69202 0.0
H231 H 0.25209 0.44071 0.63047 0.0
H232 H 0.19325 0.40478 0.67107 0.0
H233 H 0.1293 0.31532 0.80035 0.0
H234 H 0.18376 0.42594 0.74543 0.0
O235 O 0.20805 0.31322 0.76345 0.0
H236 H 0.10059 0.34945 0.85471 0.0
H237 H 0.15551 0.46049 0.80014 0.0
C238 C 0.15686 0.30504 0.69753 0.0
C239 C 0.17648 0.29411 0.66257 0.0
C240 C 0.15824 0.26116 0.63952 0.0
C241 C 0.11981 0.23738 0.65077 0.0
C242 C 0.09961 0.24896 0.68527 0.0
C243 C 0.11799 0.28207 0.7084 0.0
C244 C 0.23012 0.37198 0.70547 0.0
C245 C 0.27055 0.36544 0.71064 0.0
C246 C 0.30391 0.38532 0.68713 0.0
C247 C 0.29818 0.41266 0.65763 0.0
C248 C 0.25784 0.42007 0.65303 0.0
C249 C 0.22411 0.3996 0.67635 0.0
C250 C 0.1582 0.36759 0.76768 0.0
C251 C 0.13433 0.347 0.79925 0.0
C252 C 0.11842 0.36678 0.83105 0.0
C253 C 0.12577 0.40811 0.83266 0.0
C254 C 0.14864 0.42875 0.80025 0.0
C255 C 0.16482 0.40884 0.7685 0.0
Tb256 Tb 0.06356 0.03193 0.49062 0.0
Tb257 Tb 0.97298 0.0284 0.53266 0.0
C258 C 0.98625 0.96393 0.46921 0.0
C259 C 0.16902 0.06888 0.44973 0.0
C260 C 0.23053 0.13336 0.42598 0.0
C261 C 0.22628 0.09731 0.40561 0.0
C262 C 0.19578 0.06527 0.41749 0.0
C263 C 0.17407 0.10442 0.47112 0.0
C264 C 0.2049 0.13643 0.45947 0.0
C265 C 0.13414 0.03646 0.45865 0.0
O266 O 0.04379 0.08409 0.47002 0.0
O267 O 0.97419 0.06015 0.47618 0.0
O268 O 1.00988 0.08492 0.55219 0.0
O269 O 0.07512 0.07229 0.5427 0.0
O270 O 0.90872 1.01961 0.52398 0.0
O271 O 0.93544 0.03564 0.58251 0.0
O272 O 1.00593 0.99668 0.57363 0.0
O273 O 0.05258 0.98029 0.52813 0.0
O274 O 0.01924 0.98873 0.45523 0.0
O275 O 0.96793 0.97148 0.50296 0.0
C276 C 1.00545 0.08657 0.46255 0.0
O277 O 0.12617 0.02881 0.49679 0.0
O278 O 0.10047 0.03658 0.43815 0.0
C279 C 0.05021 0.09391 0.55836 0.0
C280 C 0.87076 0.9928 0.58083 0.0
C281 C 0.81573 0.93435 0.62347 0.0
C282 C 0.80846 0.97273 0.62121 0.0
C283 C 0.83582 1.00173 0.60003 0.0
C284 C 0.87729 0.95426 0.58136 0.0
C285 C 0.84988 0.92517 0.60247 0.0
C286 C 0.90132 1.02421 0.56221 0.0
C287 C 0.03274 0.97522 0.56278 0.0
H288 H 0.24585 0.09427 0.37977 0.0
H289 H 0.19219 0.03807 0.40067 0.0
H290 H 0.15335 0.10779 0.49593 0.0
H291 H 0.20733 0.16405 0.47531 0.0
H292 H 0.78291 0.98098 0.63763 0.0
H293 H 0.8305 0.03142 0.59984 0.0
H294 H 0.90422 0.94698 0.56647 0.0
H295 H 0.8561 0.89583 0.60344 0.0
Tb296 Tb 0.54745 0.03843 0.07887 0.0
Tb297 Tb 0.45546 0.03579 0.04183 0.0
C298 C 0.51167 0.97998 1.00928 0.0
C299 C 0.65465 0.07531 0.11504 0.0
C300 C 0.7238 0.13464 0.13424 0.0
C301 C 0.72911 0.10049 0.11379 0.0
C302 C 0.69482 0.07103 0.10448 0.0
C303 C 0.64899 0.1101 0.13372 0.0
C304 C 0.68323 0.13935 0.14345 0.0
C305 C 0.61917 0.04315 0.10682 0.0
O306 O 0.55764 0.07801 1.02634 0.0
O307 O 0.4928 0.09213 1.02052 0.0
O308 O 0.45888 0.06465 0.10013 0.0
O309 O 0.52811 0.09027 0.10212 0.0
O310 O 0.41499 0.04041 0.99425 0.0
O311 O 0.39233 0.03148 0.05557 0.0
O312 O 0.4501 0.97856 0.07127 0.0
O313 O 0.50488 0.99375 0.11494 0.0
O314 O 0.53433 0.98636 0.04184 0.0
O315 O 0.48471 1.00137 0.99959 0.0
C316 C 0.53303 0.10043 1.01243 0.0
O317 O 0.58601 0.04184 0.12924 0.0
O318 O 0.61016 0.03644 0.06883 0.0
C319 C 0.49 0.09156 0.11255 0.0
C320 C 0.34978 0.99899 1.00502 0.0
C321 C 0.28734 0.9359 0.97984 0.0
C322 C 0.27692 0.97043 0.99517 0.0
C323 C 0.30798 1.00178 1.00756 0.0
C324 C 0.36026 0.96403 0.99164 0.0
C325 C 0.32937 0.93287 0.97893 0.0
C326 C 0.38229 0.03197 1.0177 0.0
C327 C 0.47062 0.96974 0.10278 0.0
H328 H 0.75981 0.09617 0.10559 0.0
H329 H 0.69973 0.04459 0.08956 0.0
H330 H 0.61819 0.11434 0.14172 0.0
H331 H 0.67785 0.16491 0.15968 0.0
H332 H 0.24486 0.97356 0.99678 0.0
H333 H 0.2994 0.02836 1.01867 0.0
H334 H 0.39243 0.96113 0.9902 0.0
H335 H 0.33876 0.90711 0.9667 0.0
Tb336 Tb 0.5227 0.48124 0.50764 0.0
Tb337 Tb 0.52126 0.55991 0.56014 0.0
C338 C 0.4831 0.54981 0.47118 0.0
C339 C 0.56699 0.40668 0.45514 0.0
C340 C 0.64204 0.38594 0.43068 0.0
C341 C 0.60913 0.38365 0.40336 0.0
C342 C 0.57188 0.39386 0.41554 0.0
C343 C 0.59961 0.40842 0.48265 0.0
C344 C 0.63665 0.3979 0.4706 0.0
C345 C 0.52978 0.42194 0.46625 0.0
O346 O 0.57775 0.52322 0.48766 0.0
O347 O 0.58542 0.57073 0.53697 0.0
O348 O 0.54196 0.51966 0.60294 0.0
O349 O 0.56325 0.47642 0.55931 0.0
O350 O 0.52236 0.62051 0.56323 0.0
O351 O 0.5159 0.58539 0.61696 0.0
O352 O 0.45747 0.52571 0.5638 0.0
O353 O 0.46907 0.46476 0.54805 0.0
O354 O 0.48096 0.51156 0.47355 0.0
O355 O 0.50236 0.57342 0.49922 0.0
C356 C 0.59932 0.55498 0.50469 0.0
O357 O 0.51938 0.42039 0.50436 0.0
O358 O 0.52814 0.45581 0.45066 0.0
C359 C 0.56079 0.49027 0.59622 0.0
C360 C 0.47467 0.63356 0.61279 0.0
C361 C 0.40054 0.65943 0.63084 0.0
C362 C 0.40999 0.62698 0.651 0.0
C363 C 0.4466 0.61415 0.64207 0.0
C364 C 0.46547 0.66634 0.59303 0.0
C365 C 0.42871 0.67905 0.60183 0.0
C366 C 0.51232 0.61875 0.60138 0.0
C367 C 0.44575 0.48726 0.56435 0.0
H368 H 0.6123 0.37421 0.37249 0.0
H369 H 0.54726 0.39268 0.39377 0.0
H370 H 0.59694 0.41888 0.51321 0.0
H371 H 0.66161 0.4004 0.49217 0.0
H372 H 0.38878 0.61117 0.67334 0.0
H373 H 0.45258 0.58872 0.65786 0.0
H374 H 0.48655 0.68196 0.57047 0.0
H375 H 0.42259 0.70456 0.58629 0.0
Tb376 Tb 0.02279 0.55719 1.00633 0.0
Tb377 Tb 0.0214 0.47903 0.0588 0.0
C378 C 0.06186 0.48776 0.97064 0.0
C379 C 0.98219 0.63835 0.96544 0.0
C380 C 0.91194 0.67248 0.95985 0.0
C381 C 0.94094 0.67598 0.92785 0.0
C382 C 0.97585 0.65905 0.93068 0.0
C383 C 0.95332 0.63479 0.99743 0.0
C384 C 0.91864 0.65194 0.99477 0.0
C385 C 1.01672 0.61757 0.96698 0.0
O386 O 0.95804 0.52443 1.00406 0.0
O387 O 0.9679 0.46286 1.01874 0.0
O388 O 0.97857 0.50944 0.09189 0.0
O389 O 1.00399 0.57108 0.06743 0.0
O390 O 0.0192 0.41833 0.06168 0.0
O391 O 0.02566 0.45344 0.11566 0.0
O392 O 0.07415 0.52231 0.08115 0.0
O393 O 0.0872 0.56477 1.02781 0.0
O394 O 0.04311 0.51687 0.96327 0.0
O395 O 0.06389 0.47487 1.00781 0.0
C396 C 0.94524 0.48603 1.00301 0.0
O397 O 0.03565 0.61862 1.00146 0.0
O398 O 1.00852 0.58231 0.95202 0.0
C399 C 0.98269 0.54787 0.09484 0.0
C400 C 0.06795 0.40728 0.10981 0.0
C401 C 0.14576 0.39275 0.13308 0.0
C402 C 0.11126 0.38412 0.15945 0.0
C403 C 0.07266 0.39134 0.14788 0.0
C404 C 0.10216 0.41517 0.08318 0.0
C405 C 0.14057 0.40783 0.09461 0.0
C406 C 0.02929 0.42013 0.0997 0.0
C407 C 0.09848 0.55159 0.06243 0.0
H408 H 0.93675 0.69204 0.90077 0.0
H409 H 0.99757 0.66165 0.90554 0.0
H410 H 0.95725 0.61823 1.02425 0.0
H411 H 0.89662 0.64848 1.01969 0.0
H412 H 0.1142 0.37211 0.18916 0.0
H413 H 0.04682 0.3855 0.16904 0.0
H414 H 0.09961 0.42816 0.05391 0.0
H415 H 0.16658 0.41531 0.07382 0.0
C416 C 0.28075 0.21095 0.35217 0.0
C417 C 0.30974 0.23579 0.37632 0.0
H418 H 0.23331 0.15911 0.34912 0.0
C419 C 0.31314 0.2267 0.41726 0.0
H420 H 0.27803 0.21701 0.32033 0.0
C421 C 0.28717 0.19344 0.4339 0.0
C422 C 0.25844 0.16852 0.40943 0.0
H423 H 0.33553 0.24539 0.43629 0.0
H424 H 0.28987 0.18688 0.4656 0.0
C425 C 0.25552 0.17762 0.36849 0.0
C426 C 0.20438 0.89012 0.90689 0.0
C427 C 0.2118 0.85188 0.90389 0.0
H428 H 0.22288 0.94688 0.93296 0.0
C429 C 0.23731 0.8392 0.93261 0.0
H430 H 0.18516 0.90098 0.88505 0.0
C431 C 0.25899 0.86571 0.96051 0.0
C432 C 0.25574 0.90537 0.95985 0.0
H433 H 0.24308 0.80969 0.93137 0.0
H434 H 0.28053 0.85581 0.98058 0.0
C435 C 0.22624 0.91665 0.93448 0.0
C436 C 0.60677 0.41753 0.6611 0.0
C437 C 0.60784 0.43374 0.70043 0.0
H438 H 0.59218 0.42212 0.5982 0.0
C439 C 0.59437 0.46959 0.70448 0.0
H440 H 0.6173 0.39042 0.65598 0.0
C441 C 0.57975 0.4879 0.67097 0.0
C442 C 0.57841 0.47148 0.63176 0.0
H443 H 0.59418 0.48325 0.73388 0.0
H444 H 0.56917 0.515 0.676 0.0
C445 C 0.59256 0.43604 0.62753 0.0
C446 C 0.95673 0.62582 0.16778 0.0
C447 C 0.9321 0.60366 0.19801 0.0
H448 H 0.99104 0.62627 0.11236 0.0
C449 C 0.92371 0.56238 0.19353 0.0
H450 H 0.96351 0.65754 0.16925 0.0
C451 C 0.93974 0.54413 0.16039 0.0
C452 C 0.96438 0.56648 0.13025 0.0
H453 H 0.90515 0.544 0.21601 0.0
H454 H 0.93282 0.51243 0.15847 0.0
C455 C 0.97237 0.60767 0.13463 0.0
C456 C 0.43103 0.16242 0.16076 0.0
C457 C 0.46312 0.19196 0.17558 0.0
H458 H 0.41425 0.10768 0.13002 0.0
C459 C 0.50448 0.18768 0.17045 0.0
H460 H 0.39886 0.16504 0.16333 0.0
C461 C 0.51343 0.15466 0.15076 0.0
C462 C 0.48116 0.12525 0.13595 0.0
H463 H 0.52992 0.20969 0.18186 0.0
H464 H 0.54558 0.15235 0.14689 0.0
C465 C 0.4399 0.12946 0.14145 0.0
C466 C 0.07612 0.88957 0.5991 0.0
C467 C 0.0709 0.89174 0.64111 0.0
H468 H 0.06788 0.91404 0.54161 0.0
C469 C 0.04805 0.91854 0.65688 0.0
H470 H 0.09384 0.86963 0.58588 0.0
C471 C 0.03341 0.94456 0.6313 0.0
C472 C 0.04167 0.94429 0.58965 0.0
H473 H 0.04308 0.92054 0.68914 0.0
H474 H 0.01764 0.96614 0.64436 0.0
C475 C 0.0617 0.91553 0.57371 0.0
C476 C 0.85847 0.41034 0.95367 0.0
C477 C 0.83164 0.43334 0.93797 0.0
H478 H 0.91399 0.40825 0.98634 0.0
C479 C 0.84163 0.47405 0.94572 0.0
H480 H 0.85185 0.37889 0.94908 0.0
C481 C 0.87786 0.49116 0.96722 0.0
C482 C 0.90502 0.46807 0.98224 0.0
H483 H 0.82208 0.49293 0.93413 0.0
H484 H 0.88482 0.52263 0.97162 0.0
C485 C 0.89425 0.42729 0.97545 0.0
C486 C 0.69316 0.57282 0.4327 0.0
C487 C 0.7126 0.61192 0.44098 0.0
H488 H 0.64309 0.52454 0.4459 0.0
C489 C 0.6956 0.6314 0.47244 0.0
H490 H 0.70472 0.55674 0.40862 0.0
C491 C 0.65989 0.61276 0.49412 0.0
C492 C 0.63976 0.5741 0.48483 0.0
H493 H 0.70977 0.66131 0.48026 0.0
H494 H 0.64746 0.62907 0.51745 0.0
C495 C 0.65738 0.55434 0.45409 0.0
C496 C 0.25259 0.36706 0.13136 0.0
C497 C 0.2671 0.37839 0.17028 0.0
H498 H 0.20277 0.36228 0.08926 0.0
C499 C 0.24149 0.39464 0.19677 0.0
H500 H 0.27164 0.35455 0.11024 0.0
C501 C 0.20207 0.39905 0.18479 0.0
C502 C 0.18741 0.38745 0.14599 0.0
H503 H 0.25149 0.40312 0.22717 0.0
H504 H 0.18318 0.41183 0.20585 0.0
C505 C 0.21323 0.37165 0.11931 0.0
C506 C 0.54473 0.19574 0.94993 0.0
C507 C 0.58812 0.20688 0.94372 0.0
H508 H 0.49353 0.15447 0.97607 0.0
C509 C 0.61274 0.1819 0.95991 0.0
H510 H 0.52439 0.21392 0.9385 0.0
C511 C 0.59494 0.14765 0.98155 0.0
C512 C 0.55167 0.13673 0.98811 0.0
H513 H 0.64608 0.18848 0.95547 0.0
H514 H 0.61539 0.12972 0.99334 0.0
C515 C 0.5269 0.16146 0.9718 0.0
C516 C 0.92179 0.86162 0.44551 0.0
C517 C 0.94029 0.85081 0.40976 0.0
H518 H 0.92105 0.90486 0.4916 0.0
C519 C 0.97404 0.87824 0.39337 0.0
H520 H 0.89535 0.84207 0.45896 0.0
C521 C 0.98881 0.91484 0.4122 0.0
C522 C 0.97024 0.92545 0.44797 0.0
H523 H 0.98958 0.87126 0.36618 0.0
H524 H 1.015 0.93475 0.39873 0.0
C525 C 0.93642 0.89814 0.46419 0.0
C526 C 0.31608 0.69336 0.69125 0.0
C527 C 0.2928 0.70663 0.66079 0.0
H528 H 0.36847 0.66851 0.70567 0.0
C529 C 0.30353 0.70156 0.62017 0.0
H530 H 0.30931 0.69746 0.72286 0.0
C531 C 0.33789 0.68533 0.61036 0.0
C532 C 0.36208 0.6736 0.64093 0.0
H533 H 0.28594 0.71096 0.59596 0.0
H534 H 0.34586 0.68242 0.57884 0.0
C535 C 0.35023 0.67695 0.68143 0.0
C536 C 0.72736 0.88527 0.69086 0.0
C537 C 0.74883 0.86737 0.71935 0.0
H538 H 0.73162 0.91982 0.63707 0.0
C539 C 0.79046 0.86556 0.7117 0.0
H540 H 0.69504 0.8865 0.69574 0.0
C541 C 0.8114 0.88474 0.67837 0.0
C542 C 0.79105 0.906 0.65202 0.0
H543 H 0.80793 0.85228 0.73329 0.0
H544 H 0.84439 0.88562 0.67529 0.0
C545 C 0.7483 0.90438 0.65741 0.0
C546 C 0.8252 0.17623 0.18619 0.0
C547 C 0.82244 0.21564 0.1916 0.0
H548 H 0.79605 0.11969 0.16458 0.0
C549 C 0.79009 0.22946 0.17281 0.0
H550 H 0.85021 0.16486 0.19965 0.0
C551 C 0.75936 0.20365 0.15179 0.0
C552 C 0.76018 0.16347 0.14942 0.0
H553 H 0.78703 0.25965 0.17641 0.0
H554 H 0.73403 0.2149 0.13885 0.0
C555 C 0.79432 0.15038 0.16558 0.0
C556 C 0.43366 0.56316 0.36766 0.0
C557 C 0.43201 0.60352 0.36727 0.0
H558 H 0.45033 0.51476 0.39957 0.0
C559 C 0.44647 0.62523 0.4023 0.0
H560 H 0.42372 0.54495 0.34161 0.0
C561 C 0.46232 0.60776 0.43557 0.0
C562 C 0.46427 0.56761 0.43574 0.0
H563 H 0.44534 0.65599 0.40442 0.0
H564 H 0.47315 0.62604 0.46138 0.0
C565 C 0.4493 0.5456 0.40116 0.0
C566 C 0.11002 0.41449 0.90803 0.0
C567 C 0.11045 0.42926 0.86826 0.0
H568 H 0.09533 0.42096 0.97086 0.0
C569 C 0.09588 0.46432 0.86308 0.0
H570 H 0.12145 0.38804 0.91386 0.0
C571 C 0.08083 0.48336 0.89607 0.0
C572 C 0.08008 0.46837 0.93573 0.0
H573 H 0.0952 0.47676 0.83323 0.0
H574 H 0.06939 0.50983 0.89031 0.0
C575 C 0.09527 0.4337 0.94108 0.0
C576 C 0.52761 0.87913 0.98711 0.0
C577 C 0.5471 0.88473 0.94905 0.0
H578 H 0.50083 0.90585 1.03618 0.0
C579 C 0.54558 0.91917 0.92731 0.0
H580 H 0.52752 0.85268 1.00424 0.0
C581 C 0.52956 0.94934 0.9454 0.0
C582 C 0.51521 0.94539 0.98537 0.0
H583 H 0.56052 0.9246 0.89801 0.0
H584 H 0.53222 0.97699 0.92969 0.0
C585 C 0.51225 0.90945 1.00531 0.0
C586 C 0.9489 0.16387 0.42585 0.0
C587 C 0.98146 0.1922 0.40954 0.0
H588 H 0.93074 0.10813 0.45456 0.0
C589 C 0.02184 0.18471 0.40897 0.0
H590 H 0.91731 0.1685 0.42597 0.0
C591 C 0.02962 0.14995 0.42533 0.0
C592 C 0.99705 0.12181 0.44208 0.0
H593 H 0.04749 0.20603 0.39649 0.0
H594 H 0.06121 0.14534 0.42523 0.0
C595 C 0.95655 0.12904 0.44178 0.0
C596 C 0.20207 0.6219 0.08685 0.0
C597 C 0.21364 0.60689 0.12375 0.0
H598 H 0.15756 0.61686 0.03874 0.0
C599 C 0.18703 0.57321 0.13939 0.0
H600 H 0.22113 0.64796 0.07371 0.0
C601 C 0.15047 0.55539 0.11923 0.0
C602 C 0.13876 0.57047 0.08253 0.0
H603 H 0.1947 0.56002 0.16712 0.0
H604 H 0.13126 0.52956 0.1327 0.0
C605 C 0.16532 0.60406 0.06665 0.0
C606 C 0.34262 0.47269 0.62366 0.0
C607 C 0.33422 0.43204 0.6314 0.0
H608 H 0.3842 0.52212 0.59706 0.0
C609 C 0.36171 0.40983 0.615 0.0
H610 H 0.32234 0.49082 0.63589 0.0
C611 C 0.39684 0.42761 0.59242 0.0
C612 C 0.40612 0.46839 0.58567 0.0
H613 H 0.35614 0.37844 0.61978 0.0
H614 H 0.41729 0.40927 0.58098 0.0
C615 C 0.37824 0.49066 0.60142 0.0
C616 C 0.81882 0.70679 0.91771 0.0
C617 C 0.80923 0.73057 0.94927 0.0
H618 H 0.85908 0.66979 0.89632 0.0
C619 C 0.83166 0.73283 0.98539 0.0
H620 H 0.80229 0.70488 0.8894 0.0
C621 C 0.8642 0.71292 0.98929 0.0
C622 C 0.87515 0.6907 0.95698 0.0
H623 H 0.82479 0.75093 1.01017 0.0
H624 H 0.88185 0.7162 1.01698 0.0
C625 C 0.85163 0.68718 0.92146 0.0
C626 C 0.40768 0.86637 0.12692 0.0
C627 C 0.43048 0.85324 0.15811 0.0
H628 H 0.40195 0.91224 0.08548 0.0
C629 C 0.4662 0.87977 0.1717 0.0
H630 H 0.38046 0.84714 0.11481 0.0
C631 C 0.47874 0.91753 0.15457 0.0
C632 C 0.45614 0.93032 0.12308 0.0
H633 H 0.48461 0.87147 0.19584 0.0
H634 H 0.50656 0.93657 0.16581 0.0
C635 C 0.42026 0.90401 0.10977 0.0
C636 C 0.05859 0.18773 0.62216 0.0
C637 C 0.1018 0.20032 0.62732 0.0
H638 H 1.0087 0.14522 0.5968 0.0
C639 C 0.12774 0.17694 0.6098 0.0
H640 H 0.03734 0.20475 0.63457 0.0
C641 C 0.1112 0.14258 0.58789 0.0
C642 C 0.06805 0.13019 0.58257 0.0
H643 H 0.16107 0.18484 0.61341 0.0
H644 H 0.13243 0.12575 0.57501 0.0
C645 C 0.04207 0.15342 0.60015 0.0
C646 C 0.73922 0.38467 0.36854 0.0
C647 C 0.75972 0.3614 0.39244 0.0
H648 H 0.68588 0.41047 0.36182 0.0
C649 C 0.74122 0.34621 0.42901 0.0
H650 H 0.75251 0.39642 0.34 0.0
C651 C 0.70304 0.35416 0.44145 0.0
C652 C 0.68236 0.37712 0.41735 0.0
H653 H 0.7564 0.32834 0.44814 0.0
H654 H 0.68945 0.34195 0.4697 0.0
C655 C 0.70086 0.3923 0.38078 0.0
loop_
_geom_bond_atom_site_label_1
_geom_bond_atom_site_label_2
_geom_bond_distance
_geom_bond_site_symmetry_2
_ccdc_geom_bond_type
P0 O11 1.490 . S
P0 C14 1.812 . S
P0 C20 1.803 . S
P0 C26 1.819 . S
H1 C15 0.941 . S
H2 C16 0.939 . S
H3 C18 0.940 . S
H4 C19 0.940 . S
H5 C21 0.939 . S
H6 C22 0.942 . S
H7 C24 0.940 . S
H8 C25 0.939 . S
H9 C27 0.941 . S
H10 C31 0.939 . S
O11 P0 1.490 . S
H12 C28 0.939 . S
H13 C30 0.940 . S
C14 P0 1.812 . S
C14 C15 1.389 . S
C14 C19 1.391 . S
C15 H1 0.941 . S
C15 C14 1.389 . S
C15 C16 1.397 . S
C16 H2 0.939 . S
C16 C15 1.397 . S
C16 C17 1.378 . S
C17 C16 1.378 . S
C17 C18 1.378 . S
C18 H3 0.940 . S
C18 C17 1.378 . S
C18 C19 1.396 . S
C19 H4 0.940 . S
C19 C14 1.391 . S
C19 C18 1.396 . S
C20 P0 1.803 . S
C20 C21 1.378 . S
C20 C25 1.400 . S
C21 H5 0.939 . S
C21 C20 1.378 . S
C21 C22 1.361 . S
C22 H6 0.942 . S
C22 C21 1.361 . S
C22 C23 1.369 . S
C23 C22 1.369 . S
C23 C24 1.404 . S
C24 H7 0.940 . S
C24 C23 1.404 . S
C24 C25 1.389 . S
C25 H8 0.939 . S
C25 C20 1.400 . S
C25 C24 1.389 . S
C26 P0 1.819 . S
C26 C27 1.391 . S
C26 C31 1.391 . S
C27 H9 0.941 . S
C27 C26 1.391 . S
C27 C28 1.396 . S
C28 H12 0.939 . S
C28 C27 1.396 . S
C28 C29 1.397 . S
C29 C28 1.397 . S
C29 C30 1.385 . S
C30 H13 0.940 . S
C30 C29 1.385 . S
C30 C31 1.388 . S
C31 H10 0.939 . S
C31 C26 1.391 . S
C31 C30 1.388 . S
P32 O43 1.490 . S
P32 C46 1.812 . S
P32 C52 1.803 . S
P32 C58 1.819 . S
H33 C47 0.941 . S
H34 C48 0.939 . S
H35 C50 0.940 . S
H36 C51 0.940 . S
H37 C53 0.939 . S
H38 C54 0.942 . S
H39 C56 0.940 . S
H40 C57 0.939 . S
H41 C59 0.941 . S
H42 C63 0.939 . S
O43 P32 1.490 . S
H44 C60 0.939 . S
H45 C62 0.940 . S
C46 P32 1.812 . S
C46 C47 1.389 . S
C46 C51 1.391 . S
C47 H33 0.941 . S
C47 C46 1.389 . S
C47 C48 1.397 . S
C48 H34 0.939 . S
C48 C47 1.397 . S
C48 C49 1.378 . S
C49 C48 1.378 . S
C49 C50 1.378 . S
C50 H35 0.940 . S
C50 C49 1.378 . S
C50 C51 1.396 . S
C51 H36 0.940 . S
C51 C46 1.391 . S
C51 C50 1.396 . S
C52 P32 1.803 . S
C52 C53 1.378 . S
C52 C57 1.400 . S
C53 H37 0.939 . S
C53 C52 1.378 . S
C53 C54 1.361 . S
C54 H38 0.942 . S
C54 C53 1.361 . S
C54 C55 1.369 . S
C55 C54 1.369 . S
C55 C56 1.404 . S
C56 H39 0.940 . S
C56 C55 1.404 . S
C56 C57 1.389 . S
C57 H40 0.939 . S
C57 C52 1.400 . S
C57 C56 1.389 . S
C58 P32 1.819 . S
C58 C59 1.391 . S
C58 C63 1.391 . S
C59 H41 0.941 . S
C59 C58 1.391 . S
C59 C60 1.396 . S
C60 H44 0.939 . S
C60 C59 1.396 . S
C60 C61 1.397 . S
C61 C60 1.397 . S
C61 C62 1.385 . S
C62 H45 0.940 . S
C62 C61 1.385 . S
C62 C63 1.388 . S
C63 H42 0.939 . S
C63 C58 1.391 . S
C63 C62 1.388 . S
P64 O75 1.490 . S
P64 C78 1.812 . S
P64 C84 1.803 . S
P64 C90 1.819 . S
H65 C79 0.941 . S
H66 C80 0.939 . S
H67 C82 0.940 . S
H68 C83 0.940 . S
H69 C85 0.939 . S
H70 C86 0.942 . S
H71 C88 0.940 . S
H72 C89 0.939 . S
H73 C91 0.941 . S
H74 C95 0.939 . S
O75 P64 1.490 . S
H76 C92 0.939 . S
H77 C94 0.940 . S
C78 P64 1.812 . S
C78 C79 1.389 . S
C78 C83 1.391 . S
C79 H65 0.941 . S
C79 C78 1.389 . S
C79 C80 1.397 . S
C80 H66 0.939 . S
C80 C79 1.397 . S
C80 C81 1.378 . S
C81 C80 1.378 . S
C81 C82 1.378 . S
C82 H67 0.940 . S
C82 C81 1.378 . S
C82 C83 1.396 . S
C83 H68 0.940 . S
C83 C78 1.391 . S
C83 C82 1.396 . S
C84 P64 1.803 . S
C84 C85 1.378 . S
C84 C89 1.400 . S
C85 H69 0.939 . S
C85 C84 1.378 . S
C85 C86 1.361 . S
C86 H70 0.942 . S
C86 C85 1.361 . S
C86 C87 1.369 . S
C87 C86 1.369 . S
C87 C88 1.404 . S
C88 H71 0.940 . S
C88 C87 1.404 . S
C88 C89 1.389 . S
C89 H72 0.939 . S
C89 C84 1.400 . S
C89 C88 1.389 . S
C90 P64 1.819 . S
C90 C91 1.391 . S
C90 C95 1.391 . S
C91 H73 0.941 . S
C91 C90 1.391 . S
C91 C92 1.396 . S
C92 H76 0.939 . S
C92 C91 1.396 . S
C92 C93 1.397 . S
C93 C92 1.397 . S
C93 C94 1.385 . S
C94 H77 0.940 . S
C94 C93 1.385 . S
C94 C95 1.388 . S
C95 H74 0.939 . S
C95 C90 1.391 . S
C95 C94 1.388 . S
P96 O107 1.490 . S
P96 C110 1.812 . S
P96 C116 1.803 . S
P96 C122 1.819 . S
H97 C111 0.941 . S
H98 C112 0.939 . S
H99 C114 0.940 . S
H100 C115 0.940 . S
H101 C117 0.939 . S
H102 C118 0.942 . S
H103 C120 0.940 . S
H104 C121 0.939 . S
H105 C123 0.941 . S
H106 C127 0.939 . S
O107 P96 1.490 . S
H108 C124 0.939 . S
H109 C126 0.940 . S
C110 P96 1.812 . S
C110 C111 1.389 . S
C110 C115 1.391 . S
C111 H97 0.941 . S
C111 C110 1.389 . S
C111 C112 1.397 . S
C112 H98 0.939 . S
C112 C111 1.397 . S
C112 C113 1.378 . S
C113 C112 1.378 . S
C113 C114 1.378 . S
C114 H99 0.940 . S
C114 C113 1.378 . S
C114 C115 1.396 . S
C115 H100 0.940 . S
C115 C110 1.391 . S
C115 C114 1.396 . S
C116 P96 1.803 . S
C116 C117 1.378 . S
C116 C121 1.400 . S
C117 H101 0.939 . S
C117 C116 1.378 . S
C117 C118 1.361 . S
C118 H102 0.942 . S
C118 C117 1.361 . S
C118 C119 1.369 . S
C119 C118 1.369 . S
C119 C120 1.404 . S
C120 H103 0.940 . S
C120 C119 1.404 . S
C120 C121 1.389 . S
C121 H104 0.939 . S
C121 C116 1.400 . S
C121 C120 1.389 . S
C122 P96 1.819 . S
C122 C123 1.391 . S
C122 C127 1.391 . S
C123 H105 0.941 . S
C123 C122 1.391 . S
C123 C124 1.396 . S
C124 H108 0.939 . S
C124 C123 1.396 . S
C124 C125 1.397 . S
C125 C124 1.397 . S
C125 C126 1.385 . S
C126 H109 0.940 . S
C126 C125 1.385 . S
C126 C127 1.388 . S
C127 H106 0.939 . S
C127 C122 1.391 . S
C127 C126 1.388 . S
P128 O139 1.490 . S
P128 C142 1.812 . S
P128 C148 1.803 . S
P128 C154 1.819 . S
H129 C143 0.941 . S
H130 C144 0.939 . S
H131 C146 0.940 . S
H132 C147 0.940 . S
H133 C149 0.939 . S
H134 C150 0.942 . S
H135 C152 0.940 . S
H136 C153 0.939 . S
H137 C155 0.941 . S
H138 C159 0.939 . S
O139 P128 1.490 . S
H140 C156 0.939 . S
H141 C158 0.940 . S
C142 P128 1.812 . S
C142 C143 1.389 . S
C142 C147 1.391 . S
C143 H129 0.941 . S
C143 C142 1.389 . S
C143 C144 1.397 . S
C144 H130 0.939 . S
C144 C143 1.397 . S
C144 C145 1.378 . S
C145 C144 1.378 . S
C145 C146 1.378 . S
C146 H131 0.940 . S
C146 C145 1.378 . S
C146 C147 1.396 . S
C147 H132 0.940 . S
C147 C142 1.391 . S
C147 C146 1.396 . S
C148 P128 1.803 . S
C148 C149 1.378 . S
C148 C153 1.400 . S
C149 H133 0.939 . S
C149 C148 1.378 . S
C149 C150 1.361 . S
C150 H134 0.942 . S
C150 C149 1.361 . S
C150 C151 1.369 . S
C151 C150 1.369 . S
C151 C152 1.404 . S
C152 H135 0.940 . S
C152 C151 1.404 . S
C152 C153 1.389 . S
C153 H136 0.939 . S
C153 C148 1.400 . S
C153 C152 1.389 . S
C154 P128 1.819 . S
C154 C155 1.391 . S
C154 C159 1.391 . S
C155 H137 0.941 . S
C155 C154 1.391 . S
C155 C156 1.396 . S
C156 H140 0.939 . S
C156 C155 1.396 . S
C156 C157 1.397 . S
C157 C156 1.397 . S
C157 C158 1.385 . S
C158 H141 0.940 . S
C158 C157 1.385 . S
C158 C159 1.388 . S
C159 H138 0.939 . S
C159 C154 1.391 . S
C159 C158 1.388 . S
P160 O171 1.490 . S
P160 C174 1.812 . S
P160 C180 1.803 . S
P160 C186 1.819 . S
H161 C175 0.941 . S
H162 C176 0.939 . S
H163 C178 0.940 . S
H164 C179 0.940 . S
H165 C181 0.939 . S
H166 C182 0.942 1_455 S
H167 C184 0.940 . S
H168 C185 0.939 . S
H169 C187 0.941 . S
H170 C191 0.939 . S
O171 P160 1.490 . S
H172 C188 0.939 . S
H173 C190 0.940 . S
C174 P160 1.812 . S
C174 C175 1.389 . S
C174 C179 1.391 . S
C175 H161 0.941 . S
C175 C174 1.389 . S
C175 C176 1.397 . S
C176 H162 0.939 . S
C176 C175 1.397 . S
C176 C177 1.378 . S
C177 C176 1.378 . S
C177 C178 1.378 . S
C178 H163 0.940 . S
C178 C177 1.378 . S
C178 C179 1.396 . S
C179 H164 0.940 . S
C179 C174 1.391 . S
C179 C178 1.396 . S
C180 P160 1.803 . S
C180 C181 1.378 . S
C180 C185 1.400 . S
C181 H165 0.939 . S
C181 C180 1.378 . S
C181 C182 1.361 . S
C182 H166 0.942 1_655 S
C182 C181 1.361 . S
C182 C183 1.369 . S
C183 C182 1.369 . S
C183 C184 1.404 . S
C184 H167 0.940 . S
C184 C183 1.404 . S
C184 C185 1.389 . S
C185 H168 0.939 . S
C185 C180 1.400 . S
C185 C184 1.389 . S
C186 P160 1.819 . S
C186 C187 1.391 . S
C186 C191 1.391 . S
C187 H169 0.941 . S
C187 C186 1.391 . S
C187 C188 1.396 . S
C188 H172 0.939 . S
C188 C187 1.396 . S
C188 C189 1.397 . S
C189 C188 1.397 . S
C189 C190 1.385 . S
C190 H173 0.940 . S
C190 C189 1.385 . S
C190 C191 1.388 . S
C191 H170 0.939 . S
C191 C186 1.391 . S
C191 C190 1.388 . S
P192 O203 1.490 . S
P192 C206 1.812 . S
P192 C212 1.803 . S
P192 C218 1.819 . S
H193 C207 0.941 . S
H194 C208 0.939 . S
H195 C210 0.940 . S
H196 C211 0.940 . S
H197 C213 0.939 . S
H198 C214 0.942 . S
H199 C216 0.940 . S
H200 C217 0.939 . S
H201 C219 0.941 . S
H202 C223 0.939 . S
O203 P192 1.490 . S
H204 C220 0.939 . S
H205 C222 0.940 . S
C206 P192 1.812 . S
C206 C207 1.389 . S
C206 C211 1.391 . S
C207 H193 0.941 . S
C207 C206 1.389 . S
C207 C208 1.397 . S
C208 H194 0.939 . S
C208 C207 1.397 . S
C208 C209 1.378 . S
C209 C208 1.378 . S
C209 C210 1.378 . S
C210 H195 0.940 . S
C210 C209 1.378 . S
C210 C211 1.396 . S
C211 H196 0.940 . S
C211 C206 1.391 . S
C211 C210 1.396 . S
C212 P192 1.803 . S
C212 C213 1.378 . S
C212 C217 1.400 . S
C213 H197 0.939 . S
C213 C212 1.378 . S
C213 C214 1.361 . S
C214 H198 0.942 . S
C214 C213 1.361 . S
C214 C215 1.369 . S
C215 C214 1.369 . S
C215 C216 1.404 . S
C216 H199 0.940 . S
C216 C215 1.404 . S
C216 C217 1.389 . S
C217 H200 0.939 . S
C217 C212 1.400 . S
C217 C216 1.389 . S
C218 P192 1.819 . S
C218 C219 1.391 . S
C218 C223 1.391 . S
C219 H201 0.941 . S
C219 C218 1.391 . S
C219 C220 1.396 . S
C220 H204 0.939 . S
C220 C219 1.396 . S
C220 C221 1.397 . S
C221 C220 1.397 . S
C221 C222 1.385 . S
C222 H205 0.940 . S
C222 C221 1.385 . S
C222 C223 1.388 . S
C223 H202 0.939 . S
C223 C218 1.391 . S
C223 C222 1.388 . S
P224 O235 1.490 . S
P224 C238 1.812 . S
P224 C244 1.803 . S
P224 C250 1.819 . S
H225 C239 0.941 . S
H226 C240 0.939 . S
H227 C242 0.940 . S
H228 C243 0.940 . S
H229 C245 0.939 . S
H230 C246 0.942 . S
H231 C248 0.940 . S
H232 C249 0.939 . S
H233 C251 0.941 . S
H234 C255 0.939 . S
O235 P224 1.490 . S
H236 C252 0.939 . S
H237 C254 0.940 . S
C238 P224 1.812 . S
C238 C239 1.389 . S
C238 C243 1.391 . S
C239 H225 0.941 . S
C239 C238 1.389 . S
C239 C240 1.397 . S
C240 H226 0.939 . S
C240 C239 1.397 . S
C240 C241 1.378 . S
C241 C240 1.378 . S
C241 C242 1.378 . S
C242 H227 0.940 . S
C242 C241 1.378 . S
C242 C243 1.396 . S
C243 H228 0.940 . S
C243 C238 1.391 . S
C243 C242 1.396 . S
C244 P224 1.803 . S
C244 C245 1.378 . S
C244 C249 1.400 . S
C245 H229 0.939 . S
C245 C244 1.378 . S
C245 C246 1.361 . S
C246 H230 0.942 . S
C246 C245 1.361 . S
C246 C247 1.369 . S
C247 C246 1.369 . S
C247 C248 1.404 . S
C248 H231 0.940 . S
C248 C247 1.404 . S
C248 C249 1.389 . S
C249 H232 0.939 . S
C249 C244 1.400 . S
C249 C248 1.389 . S
C250 P224 1.819 . S
C250 C251 1.391 . S
C250 C255 1.391 . S
C251 H233 0.941 . S
C251 C250 1.391 . S
C251 C252 1.396 . S
C252 H236 0.939 . S
C252 C251 1.396 . S
C252 C253 1.397 . S
C253 C252 1.397 . S
C253 C254 1.385 . S
C254 H237 0.940 . S
C254 C253 1.385 . S
C254 C255 1.388 . S
C255 H234 0.939 . S
C255 C250 1.391 . S
C255 C254 1.388 . S
Tb256 C265 2.764 . S
Tb256 O266 2.325 . S
Tb256 O269 2.303 . S
Tb256 O273 2.322 1_545 S
Tb256 O274 2.349 1_545 S
Tb256 O277 2.415 . S
Tb256 O278 2.399 . S
Tb257 O267 2.322 . S
Tb257 O268 2.349 . S
Tb257 O270 2.415 1_545 S
Tb257 O271 2.399 1_545 S
Tb257 O272 2.325 1_645 S
Tb257 O275 2.303 1_545 S
Tb257 C286 2.764 1_545 S
C258 O274 1.261 1_655 S
C258 O275 1.257 . S
C259 C262 1.358 . S
C259 C263 1.332 . S
C259 C265 1.504 . S
C260 C261 1.373 . S
C260 C264 1.308 . S
C261 C260 1.373 . S
C261 C262 1.429 . S
C261 H288 0.932 . S
C262 C259 1.358 . S
C262 C261 1.429 . S
C262 H289 0.930 . S
C263 C259 1.332 . S
C263 C264 1.394 . S
C263 H290 0.932 . S
C264 C260 1.308 . S
C264 C263 1.394 . S
C264 H291 0.929 . S
C265 Tb256 2.764 . S
C265 C259 1.504 . S
C265 O277 1.239 . S
C265 O278 1.263 . S
O266 Tb256 2.325 . S
O266 C276 1.236 1_455 S
O267 Tb257 2.322 . S
O267 C276 1.257 . S
O268 Tb257 2.349 . S
O268 C279 1.261 1_655 S
O269 Tb256 2.303 . S
O269 C279 1.257 . S
O270 Tb257 2.415 1_565 S
O270 C286 1.239 . S
O271 Tb257 2.399 1_565 S
O271 C286 1.263 . S
O272 Tb257 2.325 1_465 S
O272 C287 1.236 . S
O273 Tb256 2.322 1_565 S
O273 C287 1.257 . S
O274 Tb256 2.349 1_565 S
O274 C258 1.261 1_455 S
O275 Tb257 2.303 1_565 S
O275 C258 1.257 . S
C276 O266 1.236 1_655 S
C276 O267 1.257 . S
O277 Tb256 2.415 . S
O277 C265 1.239 . S
O278 Tb256 2.399 . S
O278 C265 1.263 . S
C279 O268 1.261 1_455 S
C279 O269 1.257 . S
C280 C283 1.358 . S
C280 C284 1.332 . S
C280 C286 1.504 . S
C281 C282 1.373 . S
C281 C285 1.308 . S
C282 C281 1.373 . S
C282 C283 1.429 . S
C282 H292 0.932 . S
C283 C280 1.358 . S
C283 C282 1.429 . S
C283 H293 0.930 . S
C284 C280 1.332 . S
C284 C285 1.394 . S
C284 H294 0.932 . S
C285 C281 1.308 . S
C285 C284 1.394 . S
C285 H295 0.929 . S
C286 Tb257 2.764 1_565 S
C286 O270 1.239 . S
C286 O271 1.263 . S
C286 C280 1.504 . S
C287 O272 1.236 . S
C287 O273 1.257 . S
H288 C261 0.932 . S
H289 C262 0.930 . S
H290 C263 0.932 . S
H291 C264 0.929 . S
H292 C282 0.932 . S
H293 C283 0.930 . S
H294 C284 0.932 . S
H295 C285 0.929 . S
Tb296 C305 2.764 . S
Tb296 O306 2.325 1_554 S
Tb296 O309 2.303 . S
Tb296 O313 2.322 1_545 S
Tb296 O314 2.364 1_545 S
Tb296 O317 2.415 . S
Tb296 O318 2.399 . S
Tb297 O307 2.322 . S
Tb297 O308 2.349 1_556 S
Tb297 O310 2.415 1_545 S
Tb297 O311 2.399 1_545 S
Tb297 O312 2.325 1_546 S
Tb297 O315 2.303 1_545 S
Tb297 C326 2.764 1_545 S
C298 O314 1.244 1_556 S
C298 O315 1.257 . S
C299 C302 1.358 . S
C299 C303 1.332 . S
C299 C305 1.504 . S
C300 C301 1.373 . S
C300 C304 1.308 . S
C301 C300 1.373 . S
C301 C302 1.429 . S
C301 H328 0.932 . S
C302 C299 1.358 . S
C302 C301 1.429 . S
C302 H329 0.930 . S
C303 C299 1.332 . S
C303 C304 1.394 . S
C303 H330 0.932 . S
C304 C300 1.308 . S
C304 C303 1.394 . S
C304 H331 0.929 . S
C305 Tb296 2.764 . S
C305 C299 1.504 . S
C305 O317 1.239 . S
C305 O318 1.263 . S
O306 Tb296 2.325 1_556 S
O306 C316 1.236 . S
O307 Tb297 2.322 . S
O307 C316 1.257 . S
O308 Tb297 2.349 1_554 S
O308 C319 1.261 . S
O309 Tb296 2.303 . S
O309 C319 1.257 . S
O310 Tb297 2.415 1_565 S
O310 C326 1.239 . S
O311 Tb297 2.399 1_565 S
O311 C326 1.263 . S
O312 Tb297 2.325 1_564 S
O312 C327 1.236 . S
O313 Tb296 2.322 1_565 S
O313 C327 1.257 . S
O314 Tb296 2.364 1_565 S
O314 C298 1.244 1_554 S
O315 Tb297 2.303 1_565 S
O315 C298 1.257 . S
C316 O306 1.236 . S
C316 O307 1.257 . S
O317 Tb296 2.415 . S
O317 C305 1.239 . S
O318 Tb296 2.399 . S
O318 C305 1.263 . S
C319 O308 1.261 . S
C319 O309 1.257 . S
C320 C323 1.358 . S
C320 C324 1.332 . S
C320 C326 1.504 . S
C321 C322 1.373 . S
C321 C325 1.308 . S
C322 C321 1.373 . S
C322 C323 1.429 . S
C322 H332 0.932 . S
C323 C320 1.358 . S
C323 C322 1.429 . S
C323 H333 0.930 . S
C324 C320 1.332 . S
C324 C325 1.394 . S
C324 H334 0.932 . S
C325 C321 1.308 . S
C325 C324 1.394 . S
C325 H335 0.929 . S
C326 Tb297 2.764 1_565 S
C326 O310 1.239 . S
C326 O311 1.263 . S
C326 C320 1.504 . S
C327 O312 1.236 . S
C327 O313 1.257 . S
H328 C301 0.932 . S
H329 C302 0.930 . S
H330 C303 0.932 . S
H331 C304 0.929 . S
H332 C322 0.932 . S
H333 C323 0.930 . S
H334 C324 0.932 . S
H335 C325 0.929 . S
Tb336 C345 2.764 . S
Tb336 O346 2.325 . S
Tb336 O349 2.303 . S
Tb336 O353 2.322 . S
Tb336 O354 2.349 . S
Tb336 O357 2.415 . S
Tb336 O358 2.399 . S
Tb337 O347 2.322 . S
Tb337 O348 2.349 . S
Tb337 O350 2.415 . S
Tb337 O351 2.399 . S
Tb337 O352 2.325 . S
Tb337 O355 2.303 . S
Tb337 C366 2.764 . S
C338 O354 1.261 . S
C338 O355 1.257 . S
C339 C342 1.358 . S
C339 C343 1.332 . S
C339 C345 1.504 . S
C340 C341 1.373 . S
C340 C344 1.308 . S
C341 C340 1.373 . S
C341 C342 1.429 . S
C341 H368 0.932 . S
C342 C339 1.358 . S
C342 C341 1.429 . S
C342 H369 0.930 . S
C343 C339 1.332 . S
C343 C344 1.394 . S
C343 H370 0.932 . S
C344 C340 1.308 . S
C344 C343 1.394 . S
C344 H371 0.929 . S
C345 Tb336 2.764 . S
C345 C339 1.504 . S
C345 O357 1.239 . S
C345 O358 1.263 . S
O346 Tb336 2.325 . S
O346 C356 1.236 . S
O347 Tb337 2.322 . S
O347 C356 1.257 . S
O348 Tb337 2.349 . S
O348 C359 1.261 . S
O349 Tb336 2.303 . S
O349 C359 1.257 . S
O350 Tb337 2.415 . S
O350 C366 1.239 . S
O351 Tb337 2.399 . S
O351 C366 1.263 . S
O352 Tb337 2.325 . S
O352 C367 1.236 . S
O353 Tb336 2.322 . S
O353 C367 1.257 . S
O354 Tb336 2.349 . S
O354 C338 1.261 . S
O355 Tb337 2.303 . S
O355 C338 1.257 . S
C356 O346 1.236 . S
C356 O347 1.257 . S
O357 Tb336 2.415 . S
O357 C345 1.239 . S
O358 Tb336 2.399 . S
O358 C345 1.263 . S
C359 O348 1.261 . S
C359 O349 1.257 . S
C360 C363 1.358 . S
C360 C364 1.332 . S
C360 C366 1.504 . S
C361 C362 1.373 . S
C361 C365 1.308 . S
C362 C361 1.373 . S
C362 C363 1.429 . S
C362 H372 0.932 . S
C363 C360 1.358 . S
C363 C362 1.429 . S
C363 H373 0.930 . S
C364 C360 1.332 . S
C364 C365 1.394 . S
C364 H374 0.932 . S
C365 C361 1.308 . S
C365 C364 1.394 . S
C365 H375 0.929 . S
C366 Tb337 2.764 . S
C366 O350 1.239 . S
C366 O351 1.263 . S
C366 C360 1.504 . S
C367 O352 1.236 . S
C367 O353 1.257 . S
H368 C341 0.932 . S
H369 C342 0.930 . S
H370 C343 0.932 . S
H371 C344 0.929 . S
H372 C362 0.932 . S
H373 C363 0.930 . S
H374 C364 0.932 . S
H375 C365 0.929 . S
Tb376 C385 2.764 . S
Tb376 O386 2.325 . S
Tb376 O389 2.303 1_556 S
Tb376 O393 2.323 1_655 S
Tb376 O394 2.349 1_655 S
Tb376 O397 2.415 . S
Tb376 O398 2.399 . S
Tb377 O387 2.322 1_455 S
Tb377 O388 2.349 1_455 S
Tb377 O390 2.415 . S
Tb377 O391 2.399 . S
Tb377 O392 2.325 . S
Tb377 O395 2.303 1_554 S
Tb377 C406 2.764 . S
C378 O394 1.261 . S
C378 O395 1.257 . S
C379 C382 1.358 . S
C379 C383 1.332 . S
C379 C385 1.504 . S
C380 C381 1.373 . S
C380 C384 1.308 . S
C381 C380 1.373 . S
C381 C382 1.429 . S
C381 H408 0.932 . S
C382 C379 1.358 . S
C382 C381 1.429 . S
C382 H409 0.930 . S
C383 C379 1.332 . S
C383 C384 1.394 . S
C383 H410 0.932 . S
C384 C380 1.308 . S
C384 C383 1.394 . S
C384 H411 0.929 . S
C385 Tb376 2.764 . S
C385 C379 1.504 . S
C385 O397 1.239 . S
C385 O398 1.263 . S
O386 Tb376 2.325 . S
O386 C396 1.236 . S
O387 Tb377 2.322 1_655 S
O387 C396 1.257 1_554 S
O388 Tb377 2.349 1_655 S
O388 C399 1.261 . S
O389 Tb376 2.303 1_554 S
O389 C399 1.257 . S
O390 Tb377 2.415 . S
O390 C406 1.239 . S
O391 Tb377 2.399 . S
O391 C406 1.263 . S
O392 Tb377 2.325 . S
O392 C407 1.236 . S
O393 Tb376 2.323 1_455 S
O393 C407 1.256 1_556 S
O394 Tb376 2.349 1_455 S
O394 C378 1.261 . S
O395 Tb377 2.303 1_556 S
O395 C378 1.257 . S
C396 O386 1.236 . S
C396 O387 1.257 1_556 S
O397 Tb376 2.415 . S
O397 C385 1.239 . S
O398 Tb376 2.399 . S
O398 C385 1.263 . S
C399 O388 1.261 . S
C399 O389 1.257 . S
C400 C403 1.358 . S
C400 C404 1.332 . S
C400 C406 1.504 . S
C401 C402 1.373 . S
C401 C405 1.308 . S
C402 C401 1.373 . S
C402 C403 1.429 . S
C402 H412 0.932 . S
C403 C400 1.358 . S
C403 C402 1.429 . S
C403 H413 0.930 . S
C404 C400 1.332 . S
C404 C405 1.394 . S
C404 H414 0.932 . S
C405 C401 1.308 . S
C405 C404 1.394 . S
C405 H415 0.929 . S
C406 Tb377 2.764 . S
C406 O390 1.239 . S
C406 O391 1.263 . S
C406 C400 1.504 . S
C407 O392 1.236 . S
C407 O393 1.256 1_554 S
H408 C381 0.932 . S
H409 C382 0.930 . S
H410 C383 0.932 . S
H411 C384 0.929 . S
H412 C402 0.932 . S
H413 C403 0.930 . S
H414 C404 0.932 . S
H415 C405 0.929 . S
C416 C417 1.387 . S
C416 H420 0.950 . S
C416 C425 1.390 . S
C417 C416 1.387 . S
C417 C419 1.387 . S
H418 C425 0.950 . S
C419 C417 1.387 . S
C419 C421 1.390 . S
C419 H423 0.950 . S
H420 C416 0.950 . S
C421 C419 1.390 . S
C421 C422 1.387 . S
C421 H424 0.950 . S
C422 C421 1.387 . S
C422 C425 1.387 . S
H423 C419 0.950 . S
H424 C421 0.950 . S
C425 C416 1.390 . S
C425 H418 0.950 . S
C425 C422 1.387 . S
C426 C427 1.387 . S
C426 H430 0.950 . S
C426 C435 1.390 . S
C427 C426 1.387 . S
C427 C429 1.387 . S
H428 C435 0.950 . S
C429 C427 1.387 . S
C429 C431 1.390 . S
C429 H433 0.950 . S
H430 C426 0.950 . S
C431 C429 1.390 . S
C431 C432 1.387 . S
C431 H434 0.950 . S
C432 C431 1.387 . S
C432 C435 1.387 . S
H433 C429 0.950 . S
H434 C431 0.950 . S
C435 C426 1.390 . S
C435 H428 0.950 . S
C435 C432 1.387 . S
C436 C437 1.387 . S
C436 H440 0.950 . S
C436 C445 1.390 . S
C437 C436 1.387 . S
C437 C439 1.387 . S
H438 C445 0.950 . S
C439 C437 1.387 . S
C439 C441 1.390 . S
C439 H443 0.950 . S
H440 C436 0.950 . S
C441 C439 1.390 . S
C441 C442 1.387 . S
C441 H444 0.950 . S
C442 C441 1.387 . S
C442 C445 1.387 . S
H443 C439 0.950 . S
H444 C441 0.950 . S
C445 C436 1.390 . S
C445 H438 0.950 . S
C445 C442 1.387 . S
C446 C447 1.387 . S
C446 H450 0.950 . S
C446 C455 1.390 . S
C447 C446 1.387 . S
C447 C449 1.387 . S
H448 C455 0.950 . S
C449 C447 1.387 . S
C449 C451 1.390 . S
C449 H453 0.950 . S
H450 C446 0.950 . S
C451 C449 1.390 . S
C451 C452 1.387 . S
C451 H454 0.950 . S
C452 C451 1.387 . S
C452 C455 1.387 . S
H453 C449 0.950 . S
H454 C451 0.950 . S
C455 C446 1.390 . S
C455 H448 0.950 . S
C455 C452 1.387 . S
C456 C457 1.387 . S
C456 H460 0.950 . S
C456 C465 1.390 . S
C457 C456 1.387 . S
C457 C459 1.387 . S
H458 C465 0.950 . S
C459 C457 1.387 . S
C459 C461 1.390 . S
C459 H463 0.950 . S
H460 C456 0.950 . S
C461 C459 1.390 . S
C461 C462 1.387 . S
C461 H464 0.950 . S
C462 C461 1.387 . S
C462 C465 1.387 . S
H463 C459 0.950 . S
H464 C461 0.950 . S
C465 C456 1.390 . S
C465 H458 0.950 . S
C465 C462 1.387 . S
C466 C467 1.387 . S
C466 H470 0.950 . S
C466 C475 1.390 . S
C467 C466 1.387 . S
C467 C469 1.387 1_455 S
H468 C475 0.950 . S
C469 C467 1.387 1_655 S
C469 C471 1.390 . S
C469 H473 0.950 . S
H470 C466 0.950 . S
C471 C469 1.390 . S
C471 C472 1.387 1_655 S
C471 H474 0.950 . S
C472 C471 1.387 1_455 S
C472 C475 1.387 . S
H473 C469 0.950 . S
H474 C471 0.950 . S
C475 C466 1.390 . S
C475 H468 0.950 . S
C475 C472 1.387 . S
C476 C477 1.387 . S
C476 H480 0.950 . S
C476 C485 1.390 . S
C477 C476 1.387 . S
C477 C479 1.387 . S
H478 C485 0.950 . S
C479 C477 1.387 . S
C479 C481 1.390 . S
C479 H483 0.950 . S
H480 C476 0.950 . S
C481 C479 1.390 . S
C481 C482 1.387 . S
C481 H484 0.950 . S
C482 C481 1.387 . S
C482 C485 1.387 . S
H483 C479 0.950 . S
H484 C481 0.950 . S
C485 C476 1.390 . S
C485 H478 0.950 . S
C485 C482 1.387 . S
C486 C487 1.387 . S
C486 H490 0.950 . S
C486 C495 1.390 . S
C487 C486 1.387 . S
C487 C489 1.387 . S
H488 C495 0.950 . S
C489 C487 1.387 . S
C489 C491 1.390 . S
C489 H493 0.950 . S
H490 C486 0.950 . S
C491 C489 1.390 . S
C491 C492 1.387 . S
C491 H494 0.950 . S
C492 C491 1.387 . S
C492 C495 1.387 . S
H493 C489 0.950 . S
H494 C491 0.950 . S
C495 C486 1.390 . S
C495 H488 0.950 . S
C495 C492 1.387 . S
C496 C497 1.387 . S
C496 H500 0.950 . S
C496 C505 1.390 . S
C497 C496 1.387 . S
C497 C499 1.387 . S
H498 C505 0.950 . S
C499 C497 1.387 . S
C499 C501 1.390 . S
C499 H503 0.950 . S
H500 C496 0.950 . S
C501 C499 1.390 . S
C501 C502 1.387 . S
C501 H504 0.950 . S
C502 C501 1.387 . S
C502 C505 1.387 . S
H503 C499 0.950 . S
H504 C501 0.950 . S
C505 C496 1.390 . S
C505 H498 0.950 . S
C505 C502 1.387 . S
C506 C507 1.387 . S
C506 H510 0.950 . S
C506 C515 1.390 . S
C507 C506 1.387 . S
C507 C509 1.387 . S
H508 C515 0.950 . S
C509 C507 1.387 . S
C509 C511 1.390 . S
C509 H513 0.950 . S
H510 C506 0.950 . S
C511 C509 1.390 . S
C511 C512 1.387 . S
C511 H514 0.950 . S
C512 C511 1.387 . S
C512 C515 1.387 . S
H513 C509 0.950 . S
H514 C511 0.950 . S
C515 C506 1.390 . S
C515 H508 0.950 . S
C515 C512 1.387 . S
C516 C517 1.387 . S
C516 H520 0.950 . S
C516 C525 1.390 . S
C517 C516 1.387 . S
C517 C519 1.387 . S
H518 C525 0.950 . S
C519 C517 1.387 . S
C519 C521 1.390 . S
C519 H523 0.950 . S
H520 C516 0.950 . S
C521 C519 1.390 . S
C521 C522 1.387 . S
C521 H524 0.950 1_655 S
C522 C521 1.387 . S
C522 C525 1.387 . S
H523 C519 0.950 . S
H524 C521 0.950 1_455 S
C525 C516 1.390 . S
C525 H518 0.950 . S
C525 C522 1.387 . S
C526 C527 1.387 . S
C526 H530 0.950 . S
C526 C535 1.390 . S
C527 C526 1.387 . S
C527 C529 1.387 . S
H528 C535 0.950 . S
C529 C527 1.387 . S
C529 C531 1.390 . S
C529 H533 0.950 . S
H530 C526 0.950 . S
C531 C529 1.390 . S
C531 C532 1.387 . S
C531 H534 0.950 . S
C532 C531 1.387 . S
C532 C535 1.387 . S
H533 C529 0.950 . S
H534 C531 0.950 . S
C535 C526 1.390 . S
C535 H528 0.950 . S
C535 C532 1.387 . S
C536 C537 1.387 . S
C536 H540 0.950 . S
C536 C545 1.390 . S
C537 C536 1.387 . S
C537 C539 1.387 . S
H538 C545 0.950 . S
C539 C537 1.387 . S
C539 C541 1.390 . S
C539 H543 0.950 . S
H540 C536 0.950 . S
C541 C539 1.390 . S
C541 C542 1.387 . S
C541 H544 0.950 . S
C542 C541 1.387 . S
C542 C545 1.387 . S
H543 C539 0.950 . S
H544 C541 0.950 . S
C545 C536 1.390 . S
C545 H538 0.950 . S
C545 C542 1.387 . S
C546 C547 1.387 . S
C546 H550 0.950 . S
C546 C555 1.390 . S
C547 C546 1.387 . S
C547 C549 1.387 . S
H548 C555 0.950 . S
C549 C547 1.387 . S
C549 C551 1.390 . S
C549 H553 0.950 . S
H550 C546 0.950 . S
C551 C549 1.390 . S
C551 C552 1.387 . S
C551 H554 0.950 . S
C552 C551 1.387 . S
C552 C555 1.387 . S
H553 C549 0.950 . S
H554 C551 0.950 . S
C555 C546 1.390 . S
C555 H548 0.950 . S
C555 C552 1.387 . S
C556 C557 1.387 . S
C556 H560 0.950 . S
C556 C565 1.390 . S
C557 C556 1.387 . S
C557 C559 1.387 . S
H558 C565 0.950 . S
C559 C557 1.387 . S
C559 C561 1.390 . S
C559 H563 0.950 . S
H560 C556 0.950 . S
C561 C559 1.390 . S
C561 C562 1.387 . S
C561 H564 0.950 . S
C562 C561 1.387 . S
C562 C565 1.387 . S
H563 C559 0.950 . S
H564 C561 0.950 . S
C565 C556 1.390 . S
C565 H558 0.950 . S
C565 C562 1.387 . S
C566 C567 1.387 . S
C566 H570 0.950 . S
C566 C575 1.390 . S
C567 C566 1.387 . S
C567 C569 1.387 . S
H568 C575 0.950 . S
C569 C567 1.387 . S
C569 C571 1.390 . S
C569 H573 0.950 . S
H570 C566 0.950 . S
C571 C569 1.390 . S
C571 C572 1.387 . S
C571 H574 0.950 . S
C572 C571 1.387 . S
C572 C575 1.387 . S
H573 C569 0.950 . S
H574 C571 0.950 . S
C575 C566 1.390 . S
C575 H568 0.950 . S
C575 C572 1.387 . S
C576 C577 1.387 . S
C576 H580 0.950 . S
C576 C585 1.390 . S
C577 C576 1.387 . S
C577 C579 1.387 . S
H578 C585 0.950 . S
C579 C577 1.387 . S
C579 C581 1.390 . S
C579 H583 0.950 . S
H580 C576 0.950 . S
C581 C579 1.390 . S
C581 C582 1.387 . S
C581 H584 0.950 . S
C582 C581 1.387 . S
C582 C585 1.387 . S
H583 C579 0.950 . S
H584 C581 0.950 . S
C585 C576 1.390 . S
C585 H578 0.950 . S
C585 C582 1.387 . S
C586 C587 1.387 . S
C586 H590 0.950 . S
C586 C595 1.390 . S
C587 C586 1.387 . S
C587 C589 1.387 1_655 S
H588 C595 0.950 . S
C589 C587 1.387 1_455 S
C589 C591 1.390 . S
C589 H593 0.950 . S
H590 C586 0.950 . S
C591 C589 1.390 . S
C591 C592 1.387 1_455 S
C591 H594 0.950 . S
C592 C591 1.387 1_655 S
C592 C595 1.387 . S
H593 C589 0.950 . S
H594 C591 0.950 . S
C595 C586 1.390 . S
C595 H588 0.950 . S
C595 C592 1.387 . S
C596 C597 1.387 . S
C596 H600 0.950 . S
C596 C605 1.390 . S
C597 C596 1.387 . S
C597 C599 1.387 . S
H598 C605 0.950 . S
C599 C597 1.387 . S
C599 C601 1.390 . S
C599 H603 0.950 . S
H600 C596 0.950 . S
C601 C599 1.390 . S
C601 C602 1.387 . S
C601 H604 0.950 . S
C602 C601 1.387 . S
C602 C605 1.387 . S
H603 C599 0.950 . S
H604 C601 0.950 . S
C605 C596 1.390 . S
C605 H598 0.950 . S
C605 C602 1.387 . S
C606 C607 1.387 . S
C606 H610 0.950 . S
C606 C615 1.390 . S
C607 C606 1.387 . S
C607 C609 1.387 . S
H608 C615 0.950 . S
C609 C607 1.387 . S
C609 C611 1.390 . S
C609 H613 0.950 . S
H610 C606 0.950 . S
C611 C609 1.390 . S
C611 C612 1.387 . S
C611 H614 0.950 . S
C612 C611 1.387 . S
C612 C615 1.387 . S
H613 C609 0.950 . S
H614 C611 0.950 . S
C615 C606 1.390 . S
C615 H608 0.950 . S
C615 C612 1.387 . S
C616 C617 1.387 . S
C616 H620 0.950 . S
C616 C625 1.390 . S
C617 C616 1.387 . S
C617 C619 1.387 . S
H618 C625 0.950 . S
C619 C617 1.387 . S
C619 C621 1.390 . S
C619 H623 0.950 . S
H620 C616 0.950 . S
C621 C619 1.390 . S
C621 C622 1.387 . S
C621 H624 0.950 . S
C622 C621 1.387 . S
C622 C625 1.387 . S
H623 C619 0.950 . S
H624 C621 0.950 . S
C625 C616 1.390 . S
C625 H618 0.950 . S
C625 C622 1.387 . S
C626 C627 1.387 . S
C626 H630 0.950 . S
C626 C635 1.390 . S
C627 C626 1.387 . S
C627 C629 1.387 . S
H628 C635 0.950 . S
C629 C627 1.387 . S
C629 C631 1.390 . S
C629 H633 0.950 . S
H630 C626 0.950 . S
C631 C629 1.390 . S
C631 C632 1.387 . S
C631 H634 0.950 . S
C632 C631 1.387 . S
C632 C635 1.387 . S
H633 C629 0.950 . S
H634 C631 0.950 . S
C635 C626 1.390 . S
C635 H628 0.950 . S
C635 C632 1.387 . S
C636 C637 1.387 . S
C636 H640 0.950 . S
C636 C645 1.390 . S
C637 C636 1.387 . S
C637 C639 1.387 . S
H638 C645 0.950 . S
C639 C637 1.387 . S
C639 C641 1.390 . S
C639 H643 0.950 . S
H640 C636 0.950 . S
C641 C639 1.390 . S
C641 C642 1.387 . S
C641 H644 0.950 . S
C642 C641 1.387 . S
C642 C645 1.387 . S
H643 C639 0.950 . S
H644 C641 0.950 . S
C645 C636 1.390 . S
C645 H638 0.950 . S
C645 C642 1.387 . S
C646 C647 1.387 . S
C646 H650 0.950 . S
C646 C655 1.390 . S
C647 C646 1.387 . S
C647 C649 1.387 . S
H648 C655 0.950 . S
C649 C647 1.387 . S
C649 C651 1.390 . S
C649 H653 0.950 . S
H650 C646 0.950 . S
C651 C649 1.390 . S
C651 C652 1.387 . S
C651 H654 0.950 . S
C652 C651 1.387 . S
C652 C655 1.387 . S
H653 C649 0.950 . S
H654 C651 0.950 . S
C655 C646 1.390 . S
C655 H648 0.950 . S
C655 C652 1.387 . S
C417 C29 1.058 . S
C422 C260 1.064 . S
C427 C49 1.028 . S
C432 C321 1.168 . S
C442 C359 2.572 . S
C437 C93 2.565 . S
C447 C119 2.336 . S
C452 C399 2.336 . S
C462 C319 1.373 . S
C457 C17 1.351 . S
C472 C287 2.131 . S
C467 C61 1.771 . S
C482 C396 1.823 . S
C477 C81 1.794 . S
C492 C356 1.956 . S
C487 C125 1.942 . S
C497 C23 1.313 . S
C502 C401 1.299 . S
C512 C316 2.379 . S
C507 C87 2.306 . S
C517 C113 2.242 . S
C522 C258 2.247 . S
C527 C55 1.381 . S
C532 C361 1.635 . S
C542 C281 1.074 . S
C537 C157 0.944 . S
C547 C189 1.197 . S
C552 C300 1.204 . S
C557 C221 2.595 . S
C562 C338 2.544 . S
C567 C253 2.391 . S
C572 C378 2.415 . S
C577 C145 1.249 . S
C582 C298 1.462 . S
C592 C276 2.120 . S
C587 C183 2.080 . S
C602 C407 1.855 . S
C597 C209 1.840 . S
C612 C367 1.916 . S
C607 C247 1.900 . S
C617 C151 1.229 . S
C622 C380 1.336 . S
C632 C327 2.377 . S
C627 C215 2.361 . S
C642 C279 2.223 . S
C637 C241 2.205 . S
C647 C177 1.640 . S
C652 C340 1.622 . S
