# Generated by pormake.
# Topology apo, (3,6)-cn, num edge types: 1
# Building blocks:
#     Node 0, Type 0, BuildingBlock: ESEHIV_clean_linker_0, # of connection points: 3
#     Node 1, Type 0, BuildingBlock: ESEHIV_clean_linker_0, # of connection points: 3
#     Node 2, Type 0, BuildingBlock: ESEHIV_clean_linker_0, # of connection points: 3
#     Node 3, Type 0, BuildingBlock: ESEHIV_clean_linker_0, # of connection points: 3
#     Node 4, Type 0, BuildingBlock: ESEHIV_clean_linker_0, # of connection points: 3
#     Node 5, Type 0, BuildingBlock: ESEHIV_clean_linker_0, # of connection points: 3
#     Node 6, Type 0, BuildingBlock: ESEHIV_clean_linker_0, # of connection points: 3
#     Node 7, Type 0, BuildingBlock: ESEHIV_clean_linker_0, # of connection points: 3
#     Node 8, Type 1, BuildingBlock: MIDCAF_clean_sbu_0, # of connection points: 6
#     Node 9, Type 1, BuildingBlock: MIDCAF_clean_sbu_0, # of connection points: 6
#     Node 10, Type 1, BuildingBlock: MIDCAF_clean_sbu_0, # of connection points: 6
#     Node 11, Type 1, BuildingBlock: MIDCAF_clean_sbu_0, # of connection points: 6
#     Edge 12, Type (0, 1), BuildingBlock: OJICUG_clean_linker_0, # of connection points: 2
#     Edge 13, Type (0, 1), BuildingBlock: OJICUG_clean_linker_0, # of connection points: 2
#     Edge 14, Type (0, 1), BuildingBlock: OJICUG_clean_linker_0, # of connection points: 2
#     Edge 15, Type (0, 1), BuildingBlock: OJICUG_clean_linker_0, # of connection points: 2
#     Edge 16, Type (0, 1), BuildingBlock: OJICUG_clean_linker_0, # of connection points: 2
#     Edge 17, Type (0, 1), BuildingBlock: OJICUG_clean_linker_0, # of connection points: 2
#     Edge 18, Type (0, 1), BuildingBlock: OJICUG_clean_linker_0, # of connection points: 2
#     Edge 19, Type (0, 1), BuildingBlock: OJICUG_clean_linker_0, # of connection points: 2
#     Edge 20, Type (0, 1), BuildingBlock: OJICUG_clean_linker_0, # of connection points: 2
#     Edge 21, Type (0, 1), BuildingBlock: OJICUG_clean_linker_0, # of connection points: 2
#     Edge 22, Type (0, 1), BuildingBlock: OJICUG_clean_linker_0, # of connection points: 2
#     Edge 23, Type (0, 1), BuildingBlock: OJICUG_clean_linker_0, # of connection points: 2
#     Edge 24, Type (0, 1), BuildingBlock: OJICUG_clean_linker_0, # of connection points: 2
#     Edge 25, Type (0, 1), BuildingBlock: OJICUG_clean_linker_0, # of connection points: 2
#     Edge 26, Type (0, 1), BuildingBlock: OJICUG_clean_linker_0, # of connection points: 2
#     Edge 27, Type (0, 1), BuildingBlock: OJICUG_clean_linker_0, # of connection points: 2
#     Edge 28, Type (0, 1), BuildingBlock: OJICUG_clean_linker_0, # of connection points: 2
#     Edge 29, Type (0, 1), BuildingBlock: OJICUG_clean_linker_0, # of connection points: 2
#     Edge 30, Type (0, 1), BuildingBlock: OJICUG_clean_linker_0, # of connection points: 2
#     Edge 31, Type (0, 1), BuildingBlock: OJICUG_clean_linker_0, # of connection points: 2
#     Edge 32, Type (0, 1), BuildingBlock: OJICUG_clean_linker_0, # of connection points: 2
#     Edge 33, Type (0, 1), BuildingBlock: OJICUG_clean_linker_0, # of connection points: 2
#     Edge 34, Type (0, 1), BuildingBlock: OJICUG_clean_linker_0, # of connection points: 2
#     Edge 35, Type (0, 1), BuildingBlock: OJICUG_clean_linker_0, # of connection points: 2
# Relax obj value: 0.086
# Max RMSD: 0.099
# Mean RMSD: 0.090
data_MOF--net-apo--node1-MIDCAF_clean_sbu_0--node2-ESEHIV_clean_linker_0--edge1-OJICUG_clean_linker_0
_symmetry_space_group_name_H-M    P1
_symmetry_Int_Tables_number       1
_symmetry_cell_setting            triclinic
loop_
_symmetry_equiv_pos_as_xyz
'x, y, z'
_cell_length_a     22.979715
_cell_length_b     27.985248
_cell_length_c     24.307932
_cell_angle_alpha  90.38523
_cell_angle_beta   90.055554
_cell_angle_gamma 90.619088
loop_
_atom_site_label
_atom_site_type_symbol
_atom_site_fract_x
_atom_site_fract_y
_atom_site_fract_z
_atom_type_partial_charge
H0 H 0.42264 0.37826 0.45252 0.0
H1 H 0.33675 0.35957 0.29602 0.0
H2 H 0.32015 0.25196 0.421 0.0
C3 C 0.395 0.35742 0.42505 0.0
C4 C 0.37245 0.31329 0.44286 0.0
C5 C 0.38351 0.37416 0.37169 0.0
C6 C 0.34781 0.34642 0.33649 0.0
C7 C 0.32496 0.30225 0.35379 0.0
C8 C 0.33826 0.28563 0.40683 0.0
H9 H 0.10935 0.11324 0.9708 0.0
H10 H 0.19522 0.12257 0.81333 0.0
H11 H 0.22833 0.22824 0.94012 0.0
C12 C 0.1398 0.13058 0.94313 0.0
C13 C 0.16902 0.17178 0.96147 0.0
C14 C 0.14889 0.11189 0.88995 0.0
C15 C 0.18714 0.13644 0.85428 0.0
C16 C 0.21541 0.17892 0.87176 0.0
C17 C 0.20603 0.1962 0.92562 0.0
H18 H 0.88992 0.11294 0.56049 0.0
H19 H 0.81014 0.12479 0.7206 0.0
H20 H 0.77032 0.22527 0.59215 0.0
C21 C 0.85965 0.12978 0.58854 0.0
C22 C 0.82898 0.16939 0.56992 0.0
C23 C 0.85306 0.11252 0.64252 0.0
C24 C 0.81612 0.13733 0.67891 0.0
C25 C 0.78685 0.17862 0.66135 0.0
C26 C 0.79337 0.19414 0.60656 0.0
H27 H 0.59904 0.38071 0.09099 0.0
H28 H 0.69878 0.36541 0.23981 0.0
H29 H 0.69563 0.25259 0.1181 0.0
C30 C 0.62703 0.35963 0.11709 0.0
C31 C 0.64487 0.31447 0.09872 0.0
C32 C 0.64532 0.37811 0.16838 0.0
C33 C 0.68223 0.35076 0.2014 0.0
C34 C 0.70025 0.30542 0.18346 0.0
C35 C 0.68068 0.28709 0.13255 0.0
H36 H 0.599 0.57275 0.57296 0.0
H37 H 0.7015 0.70158 0.56755 0.0
H38 H 0.69753 0.61644 0.71524 0.0
C39 C 0.62805 0.5983 0.59299 0.0
C40 C 0.64555 0.59027 0.64726 0.0
C41 C 0.64837 0.63776 0.56368 0.0
C42 C 0.68531 0.67098 0.59022 0.0
C43 C 0.70318 0.66383 0.64532 0.0
C44 C 0.68225 0.62355 0.67393 0.0
H45 H 0.90194 0.86296 0.05871 0.0
H46 H 0.80477 0.88478 0.20863 0.0
H47 H 0.73554 0.79544 0.07901 0.0
C48 C 0.86361 0.85746 0.08383 0.0
C49 C 0.81849 0.82874 0.06238 0.0
C50 C 0.85943 0.87912 0.13622 0.0
C51 C 0.81001 0.86851 0.16846 0.0
C52 C 0.76549 0.83807 0.1486 0.0
C53 C 0.76955 0.81887 0.09492 0.0
H54 H 0.10871 0.86126 0.47127 0.0
H55 H 0.26876 0.78524 0.45746 0.0
H56 H 0.22529 0.89274 0.3378 0.0
C57 C 0.1491 0.85512 0.44941 0.0
C58 C 0.16209 0.88146 0.40201 0.0
C59 C 0.18799 0.82156 0.47018 0.0
C60 C 0.2399 0.81239 0.44195 0.0
C61 C 0.25318 0.83706 0.39288 0.0
C62 C 0.21422 0.872 0.37384 0.0
H63 H 0.41552 0.61172 0.9355 0.0
H64 H 0.32425 0.6211 0.78135 0.0
H65 H 0.30609 0.73118 0.90554 0.0
C66 C 0.38707 0.63082 0.90778 0.0
C67 C 0.36156 0.67286 0.92619 0.0
C68 C 0.37287 0.61094 0.85648 0.0
C69 C 0.33676 0.63658 0.82065 0.0
C70 C 0.31403 0.68111 0.83729 0.0
C71 C 0.32646 0.69883 0.89059 0.0
Zn72 Zn 0.05227 0.15389 0.3628 0.0
Zn73 Zn 0.96285 0.1446 0.18274 0.0
Zn74 Zn 0.00959 0.14189 0.27031 0.0
C75 C 0.05902 0.19406 0.16106 0.0
C76 C 0.9829 0.04916 0.19789 0.0
O77 O 0.94622 0.17576 0.32946 0.0
O78 O 0.99701 0.19206 0.40439 0.0
C79 C 0.13395 0.19313 0.29719 0.0
O80 O 0.0693 0.17533 0.20845 0.0
O81 O 0.00798 0.19298 0.14222 0.0
O82 O 0.97448 0.07823 0.15938 0.0
O83 O 0.99475 0.06535 0.24645 0.0
O84 O 0.1261 0.1846 0.34737 0.0
O85 O 0.09517 0.18069 0.26136 0.0
O86 O 0.02588 0.06776 0.29768 0.0
O87 O 0.05696 0.08561 0.38126 0.0
C88 C 0.0454 0.05459 0.34482 0.0
O89 O 0.92588 0.18271 0.27406 0.0
O90 O 0.88212 0.16178 0.19668 0.0
C91 C 0.94931 0.1927 0.37897 0.0
C92 C 0.88142 0.18419 0.24167 0.0
Zn93 Zn 0.61192 0.30932 0.64834 0.0
Zn94 Zn 0.39991 0.31502 0.88163 0.0
Zn95 Zn 0.50386 0.32451 0.77299 0.0
C96 C 0.44028 0.41407 0.82946 0.0
C97 C 0.39331 0.29182 0.77006 0.0
O98 O 0.5795 0.28682 0.805 0.0
O99 O 0.59422 0.31739 0.72607 0.0
C100 C 0.56437 0.40578 0.71866 0.0
O101 O 0.47786 0.39845 0.79435 0.0
O102 O 0.41139 0.38578 0.86044 0.0
O103 O 0.40529 0.32539 0.80229 0.0
O104 O 0.43338 0.28122 0.73661 0.0
O105 O 0.5824 0.36945 0.69205 0.0
O106 O 0.52615 0.39897 0.75622 0.0
O107 O 0.47757 0.29354 0.68951 0.0
O108 O 0.53923 0.27686 0.6193 0.0
C109 C 0.48811 0.27766 0.6401 0.0
O110 O 0.53929 0.29358 0.85014 0.0
O111 O 0.47205 0.28716 0.91697 0.0
C112 C 0.61244 0.29087 0.76346 0.0
C113 C 0.52408 0.28277 0.89985 0.0
Zn114 Zn 0.04189 0.82698 0.85293 0.0
Zn115 Zn 0.96309 0.84285 0.67567 0.0
Zn116 Zn 0.99821 0.84206 0.76352 0.0
C117 C 0.9725 0.93613 0.69421 0.0
C118 C 0.87464 0.79988 0.72274 0.0
O119 O 0.08473 0.80455 0.75579 0.0
O120 O 0.10449 0.78248 0.84082 0.0
C121 C 0.04735 0.92703 0.83415 0.0
O122 O 0.97868 0.91889 0.74296 0.0
O123 O 0.97852 0.90859 0.65348 0.0
O124 O 0.88008 0.8294 0.68428 0.0
O125 O 0.91534 0.79748 0.7593 0.0
O126 O 0.06563 0.89432 0.86502 0.0
O127 O 0.01517 0.91611 0.79247 0.0
O128 O 0.93034 0.80743 0.81818 0.0
O129 O 0.97798 0.80314 0.89677 0.0
C130 C 0.93149 0.79757 0.87001 0.0
O131 O 0.06215 0.81115 0.7025 0.0
O132 O 1.00488 0.79418 0.63253 0.0
C133 C 0.11704 0.78228 0.79051 0.0
C134 C 0.05479 0.79321 0.65381 0.0
Zn135 Zn 0.56415 0.66573 0.1832 0.0
Zn136 Zn 0.42213 0.65399 0.29832 0.0
Zn137 Zn 0.4989 0.65718 0.2458 0.0
C138 C 0.53091 0.64487 0.35609 0.0
C139 C 0.4418 0.56257 0.2953 0.0
O140 O 0.44656 0.65112 0.17448 0.0
O141 O 0.50628 0.70343 0.13829 0.0
C142 C 0.59728 0.73085 0.25274 0.0
O143 O 0.53879 0.61868 0.31273 0.0
O144 O 0.4844 0.66879 0.35915 0.0
O145 O 0.39536 0.58622 0.2929 0.0
O146 O 0.4909 0.58401 0.28645 0.0
O147 O 0.62328 0.69548 0.23276 0.0
O148 O 0.54186 0.7278 0.25798 0.0
O149 O 0.55196 0.59049 0.25572 0.0
O150 O 0.57479 0.59789 0.16829 0.0
C151 C 0.57422 0.57268 0.21117 0.0
O152 O 0.47581 0.72848 0.27985 0.0
O153 O 0.388 0.70728 0.25459 0.0
C154 C 0.45727 0.68232 0.13772 0.0
C155 C 0.42253 0.73984 0.2709 0.0
C156 C 0.09868 0.95061 0.42606 0.0
C157 C 0.12353 0.92144 0.38529 0.0
H158 H 0.05237 0.01415 0.4448 0.0
C159 C 0.11378 0.93278 0.3296 0.0
H160 H 0.10559 0.94371 0.46934 0.0
C161 C 0.08319 0.97417 0.31535 0.0
C162 C 0.06212 0.00479 0.35666 0.0
H163 H 0.13138 0.91058 0.29712 0.0
H164 H 0.07949 0.98375 0.2724 0.0
C165 C 0.06813 0.99136 0.41193 0.0
C166 C 0.38319 0.52789 0.88933 0.0
C167 C 0.38945 0.5606 0.84612 0.0
H168 H 0.39705 0.45772 0.9186 0.0
C169 C 0.41324 0.54487 0.79594 0.0
H170 H 0.36359 0.53829 0.92808 0.0
C171 C 0.4314 0.49724 0.78992 0.0
C172 C 0.42647 0.46531 0.83423 0.0
H173 H 0.41825 0.56932 0.76189 0.0
H174 H 0.44816 0.48526 0.75063 0.0
C175 C 0.40216 0.48138 0.88378 0.0
C176 C 0.64394 0.50227 0.64131 0.0
C177 C 0.63062 0.54354 0.67153 0.0
H178 H 0.63269 0.42728 0.63189 0.0
C179 C 0.59821 0.53941 0.72025 0.0
H180 H 0.66937 0.50455 0.60385 0.0
C181 C 0.57716 0.49445 0.73691 0.0
C182 C 0.58782 0.45355 0.70459 0.0
H183 H 0.58755 0.57092 0.74417 0.0
H184 H 0.55236 0.49177 0.77456 0.0
C185 C 0.62267 0.45798 0.65742 0.0
C186 C 0.91236 0.92741 0.2109 0.0
C187 C 0.90356 0.91595 0.15469 0.0
H188 H 0.94554 0.97887 0.26957 0.0
C189 C 0.93345 0.9436 0.11537 0.0
H190 H 0.89241 0.90615 0.24289 0.0
C191 C 0.96619 0.98349 0.13106 0.0
C192 C 0.96854 -0.00164 0.18631 0.0
H193 H 0.92838 0.93724 0.07173 0.0
H194 H 0.98522 0.00534 0.09897 0.0
C195 C 0.94411 0.96855 0.22656 0.0
C196 C 0.90605 0.06032 0.71213 0.0
C197 C 0.88408 0.06795 0.65862 0.0
H198 H 0.95102 0.01236 0.76636 0.0
C199 C 0.89302 0.03242 0.61858 0.0
H200 H 0.90006 0.08683 0.74419 0.0
C201 C 0.92477 0.99195 0.63028 0.0
C202 C 0.94668 0.98371 0.68341 0.0
H203 H 0.87483 0.03528 0.57765 0.0
H204 H 0.9299 0.96602 0.59739 0.0
C205 C 0.93634 0.01813 0.72464 0.0
C206 C 0.60679 0.44048 0.23518 0.0
C207 C 0.63067 0.42803 0.18364 0.0
H208 H 0.57007 0.49659 0.28536 0.0
C209 C 0.63975 0.46384 0.14468 0.0
H210 H 0.5997 0.41338 0.26613 0.0
C211 C 0.62324 0.51047 0.15548 0.0
C212 C 0.59661 0.52319 0.20565 0.0
H213 H 0.65926 0.45567 0.10518 0.0
H214 H 0.63051 0.53649 0.12335 0.0
C215 C 0.58975 0.48791 0.24615 0.0
C216 C 0.40425 0.46118 0.38947 0.0
C217 C 0.40635 0.42157 0.35365 0.0
H218 H 0.41489 0.53701 0.39859 0.0
C219 C 0.42745 0.42831 0.29979 0.0
H220 H 0.38779 0.45745 0.43098 0.0
C221 C 0.44324 0.47404 0.28142 0.0
C222 C 0.43834 0.51361 0.31667 0.0
H223 H 0.43035 0.39842 0.27144 0.0
H224 H 0.45659 0.47879 0.23906 0.0
C225 C 0.41978 0.50672 0.37102 0.0
C226 C 0.11333 0.02984 0.91378 0.0
C227 C 0.12017 0.06564 0.87399 0.0
H228 H 0.08293 0.95994 0.93291 0.0
C229 C 0.09931 0.05643 0.82027 0.0
H230 H 0.12996 0.03464 0.95517 0.0
C231 C 0.07301 0.01212 0.8069 0.0
C232 C 0.06676 0.97658 0.84717 0.0
H233 H 0.10352 0.08325 0.7886 0.0
H234 H 0.05958 0.00515 0.7649 0.0
C235 C 0.08655 0.98648 0.9008 0.0
C236 C 0.1741 0.1605 0.06291 0.0
C237 C 0.15852 0.18908 0.01809 0.0
H238 H 0.15655 0.14211 0.14662 0.0
C239 C 0.1226 0.22855 0.02689 0.0
H240 H 0.20177 0.12982 0.05679 0.0
C241 C 0.09627 0.23538 0.07816 0.0
C242 C 0.10601 0.203 0.12115 0.0
H243 H 0.11001 0.25093 0.99278 0.0
H244 H 0.06325 0.26253 0.08222 0.0
C245 C 0.1487 0.16792 0.11448 0.0
C246 C 0.41809 0.25321 0.50458 0.0
C247 C 0.38692 0.29571 0.49855 0.0
H248 H 0.47436 0.21286 0.55662 0.0
C249 C 0.37654 0.3243 0.54514 0.0
H250 H 0.42625 0.23042 0.46928 0.0
C251 C 0.40227 0.31331 0.59564 0.0
C252 C 0.44025 0.27445 0.59966 0.0
H253 H 0.35191 0.35694 0.54153 0.0
H254 H 0.39819 0.33858 0.62937 0.0
C255 C 0.44504 0.24286 0.5547 0.0
C256 C 0.64045 0.3237 0.99655 0.0
C257 C 0.62634 0.29711 0.0436 0.0
H258 H 0.6208 0.33773 0.9121 0.0
C259 C 0.58795 0.25799 0.03854 0.0
H260 H 0.67014 0.35396 0.99952 0.0
C261 C 0.55896 0.24911 0.98869 0.0
C262 C 0.56913 0.27847 0.94289 0.0
H263 H 0.57659 0.23695 0.07428 0.0
H264 H 0.52518 0.22183 0.98722 0.0
C265 C 0.61273 0.31399 0.94636 0.0
C266 C 0.82993 0.15391 0.46869 0.0
C267 C 0.83877 0.18584 0.51288 0.0
H268 H 0.8564 0.13335 0.38758 0.0
C269 C 0.86963 0.22855 0.50383 0.0
H270 H 0.80611 0.12074 0.47484 0.0
C271 C 0.89892 0.23554 0.45405 0.0
C272 C 0.89702 0.20014 0.41273 0.0
H273 H 0.87699 0.25364 0.53732 0.0
H274 H 0.92888 0.26553 0.45065 0.0
C275 C 0.85818 0.16144 0.41848 0.0
C276 C 0.81563 0.84007 0.96068 0.0
C277 C 0.82471 0.80969 1.00563 0.0
H278 H 0.84036 0.85758 0.87814 0.0
C279 C 0.85416 0.76668 0.99704 0.0
H280 H 0.79365 0.87377 0.96661 0.0
C281 C 0.88071 0.75731 0.9463 0.0
C282 C 0.87863 0.79104 0.90365 0.0
H283 H 0.86227 0.743 0.03122 0.0
H284 H 0.90958 0.72706 0.94311 0.0
C285 C 0.84179 0.83046 0.90971 0.0
C286 C 0.60291 0.68501 0.48829 0.0
C287 C 0.62971 0.64296 0.50553 0.0
H288 H 0.55042 0.71819 0.42697 0.0
C289 C 0.63079 0.60332 0.46935 0.0
H290 H 0.60141 0.71599 0.51519 0.0
C291 C 0.60177 0.60452 0.41869 0.0
C292 C 0.57065 0.6452 0.40384 0.0
H293 H 0.65174 0.57054 0.48153 0.0
H294 H 0.60067 0.57279 0.3929 0.0
C295 C 0.57332 0.68599 0.43806 0.0
C296 C 0.35153 0.6527 0.02471 0.0
C297 C 0.36921 0.68573 0.98454 0.0
H298 H 0.36542 0.62597 0.10585 0.0
C299 C 0.40611 0.72374 0.99932 0.0
H300 H 0.32298 0.62302 0.01381 0.0
C301 C 0.4307 0.72531 0.05187 0.0
C302 C 0.41868 0.68876 0.08994 0.0
H303 H 0.42028 0.74941 0.96883 0.0
H304 H 0.4627 0.75294 0.06105 0.0
C305 C 0.37598 0.65426 0.07722 0.0
C306 C 0.18806 0.82006 0.57238 0.0
C307 C 0.17252 0.79789 0.52238 0.0
H308 H 0.16317 0.83416 0.65584 0.0
C309 C 0.12808 0.76318 0.52204 0.0
H310 H 0.22177 0.84742 0.57329 0.0
C311 C 0.09442 0.75565 0.5691 0.0
C312 C 0.10441 0.78313 0.61694 0.0
H313 H 0.11507 0.746 0.48382 0.0
H314 H 0.05633 0.73263 0.56594 0.0
C315 C 0.15446 0.81238 0.61968 0.0
C316 C 0.28763 0.22516 0.31416 0.0
C317 C 0.28288 0.27497 0.31916 0.0
H318 H 0.24259 0.15909 0.29903 0.0
C319 C 0.23261 0.2972 0.29907 0.0
H320 H 0.32617 0.2072 0.32875 0.0
C321 C 0.18493 0.26952 0.28133 0.0
C322 C 0.18727 0.21949 0.28336 0.0
H323 H 0.22776 0.33556 0.30261 0.0
H324 H 0.14411 0.28709 0.2729 0.0
C325 C 0.2402 0.19765 0.29619 0.0
C326 C 0.25121 0.25573 0.8327 0.0
C327 C 0.25544 0.20585 0.83504 0.0
H328 H 0.29135 0.32143 0.80904 0.0
C329 C 0.30149 0.18331 0.80713 0.0
H330 H 0.21579 0.27406 0.85297 0.0
C331 C 0.34515 0.21075 0.78127 0.0
C332 C 0.34287 0.26087 0.78319 0.0
H333 H 0.30574 0.14483 0.80836 0.0
H334 H 0.38235 0.19303 0.76338 0.0
C335 C 0.29434 0.28282 0.80721 0.0
C336 C 0.70479 0.18398 0.73017 0.0
C337 C 0.74901 0.20629 0.69914 0.0
H338 H 0.62594 0.19384 0.77665 0.0
C339 C 0.75308 0.25636 0.69939 0.0
H340 H 0.70065 0.1454 0.73056 0.0
C341 C 0.71094 0.28361 0.72555 0.0
C342 C 0.66399 0.26158 0.75255 0.0
H343 H 0.78719 0.27455 0.67668 0.0
H344 H 0.71293 0.32216 0.72152 0.0
C345 C 0.66233 0.21157 0.75681 0.0
C346 C 0.80274 0.29606 0.21383 0.0
C347 C 0.74504 0.27919 0.21408 0.0
H348 H 0.8924 0.27835 0.22508 0.0
C349 C 0.73244 0.23393 0.23579 0.0
H350 H 0.8134 0.33048 0.19607 0.0
C351 C 0.77757 0.20428 0.25281 0.0
C352 C 0.83563 0.2197 0.24841 0.0
H353 H 0.68813 0.22032 0.23601 0.0
H354 H 0.76749 0.16791 0.26481 0.0
C355 C 0.84779 0.26649 0.231 0.0
C356 C 0.74368 0.7155 0.72317 0.0
C357 C 0.74898 0.69529 0.67002 0.0
H358 H 0.78004 0.76515 0.78292 0.0
C359 C 0.79908 0.7054 0.63929 0.0
H360 H 0.70558 0.70787 0.74792 0.0
C361 C 0.84136 0.73674 0.65953 0.0
C362 C 0.8348 0.75937 0.71093 0.0
H363 H 0.80524 0.68958 0.59893 0.0
H364 H 0.87851 0.74499 0.63365 0.0
C365 C 0.78629 0.74779 0.74344 0.0
C366 C 0.72816 0.8049 0.23736 0.0
C367 C 0.71652 0.82397 0.1852 0.0
H368 H 0.6962 0.76125 0.30301 0.0
C369 C 0.65873 0.8244 0.16631 0.0
H370 H 0.7723 0.80415 0.25301 0.0
C371 C 0.61458 0.80156 0.19631 0.0
C372 C 0.62802 0.77652 0.24459 0.0
H373 H 0.64845 0.83949 0.12659 0.0
H374 H 0.57192 0.79769 0.17764 0.0
C375 C 0.68431 0.78117 0.26668 0.0
C376 C 0.30141 0.82142 0.30194 0.0
C377 C 0.30548 0.82422 0.35963 0.0
H378 H 0.33831 0.7942 0.22749 0.0
C379 C 0.35776 0.81014 0.38487 0.0
H380 H 0.26195 0.83156 0.28084 0.0
C381 C 0.40212 0.78902 0.35375 0.0
C382 C 0.3947 0.78138 0.29699 0.0
H383 H 0.36301 0.8128 0.42906 0.0
H384 H 0.43903 0.77394 0.37502 0.0
C385 C 0.34558 0.80039 0.27104 0.0
C386 C 0.27291 0.7562 0.79893 0.0
C387 C 0.27009 0.70621 0.80378 0.0
H388 H 0.22476 0.82045 0.78731 0.0
C389 C 0.21923 0.68192 0.78688 0.0
H390 H 0.3117 0.77572 0.81156 0.0
C391 C 0.16957 0.70763 0.77274 0.0
C392 C 0.17051 0.75776 0.77474 0.0
H393 H 0.21571 0.64345 0.79063 0.0
H394 H 0.12881 0.68845 0.76676 0.0
C395 C 0.22342 0.78179 0.78432 0.0
loop_
_geom_bond_atom_site_label_1
_geom_bond_atom_site_label_2
_geom_bond_distance
_geom_bond_site_symmetry_2
_ccdc_geom_bond_type
H0 C3 0.931 . S
H1 C6 0.928 . S
H2 C8 0.930 . S
C3 H0 0.931 . S
C3 C4 1.413 . S
C3 C5 1.360 . S
C4 C3 1.413 . S
C4 C8 1.429 . S
C5 C3 1.360 . S
C5 C6 1.372 . S
C6 H1 0.928 . S
C6 C5 1.372 . S
C6 C7 1.404 . S
C7 C6 1.404 . S
C7 C8 1.391 . S
C8 H2 0.930 . S
C8 C4 1.429 . S
C8 C7 1.391 . S
H9 C12 0.931 . S
H10 C15 0.928 . S
H11 C17 0.930 . S
C12 H9 0.931 . S
C12 C13 1.413 . S
C12 C14 1.360 . S
C13 C12 1.413 . S
C13 C17 1.429 . S
C14 C12 1.360 . S
C14 C15 1.372 . S
C15 H10 0.928 . S
C15 C14 1.372 . S
C15 C16 1.404 . S
C16 C15 1.404 . S
C16 C17 1.391 . S
C17 H11 0.930 . S
C17 C13 1.429 . S
C17 C16 1.391 . S
H18 C21 0.931 . S
H19 C24 0.928 . S
H20 C26 0.930 . S
C21 H18 0.931 . S
C21 C22 1.413 . S
C21 C23 1.360 . S
C22 C21 1.413 . S
C22 C26 1.429 . S
C23 C21 1.360 . S
C23 C24 1.372 . S
C24 H19 0.928 . S
C24 C23 1.372 . S
C24 C25 1.404 . S
C25 C24 1.404 . S
C25 C26 1.391 . S
C26 H20 0.930 . S
C26 C22 1.429 . S
C26 C25 1.391 . S
H27 C30 0.931 . S
H28 C33 0.928 . S
H29 C35 0.930 . S
C30 H27 0.931 . S
C30 C31 1.413 . S
C30 C32 1.360 . S
C31 C30 1.413 . S
C31 C35 1.429 . S
C32 C30 1.360 . S
C32 C33 1.372 . S
C33 H28 0.928 . S
C33 C32 1.372 . S
C33 C34 1.404 . S
C34 C33 1.404 . S
C34 C35 1.391 . S
C35 H29 0.930 . S
C35 C31 1.429 . S
C35 C34 1.391 . S
H36 C39 0.931 . S
H37 C42 0.928 . S
H38 C44 0.930 . S
C39 H36 0.931 . S
C39 C40 1.413 . S
C39 C41 1.360 . S
C40 C39 1.413 . S
C40 C44 1.429 . S
C41 C39 1.360 . S
C41 C42 1.372 . S
C42 H37 0.928 . S
C42 C41 1.372 . S
C42 C43 1.404 . S
C43 C42 1.404 . S
C43 C44 1.391 . S
C44 H38 0.930 . S
C44 C40 1.429 . S
C44 C43 1.391 . S
H45 C48 0.931 . S
H46 C51 0.928 . S
H47 C53 0.930 . S
C48 H45 0.931 . S
C48 C49 1.413 . S
C48 C50 1.360 . S
C49 C48 1.413 . S
C49 C53 1.429 . S
C50 C48 1.360 . S
C50 C51 1.372 . S
C51 H46 0.928 . S
C51 C50 1.372 . S
C51 C52 1.404 . S
C52 C51 1.404 . S
C52 C53 1.391 . S
C53 H47 0.930 . S
C53 C49 1.429 . S
C53 C52 1.391 . S
H54 C57 0.931 . S
H55 C60 0.928 . S
H56 C62 0.930 . S
C57 H54 0.931 . S
C57 C58 1.413 . S
C57 C59 1.360 . S
C58 C57 1.413 . S
C58 C62 1.429 . S
C59 C57 1.360 . S
C59 C60 1.372 . S
C60 H55 0.928 . S
C60 C59 1.372 . S
C60 C61 1.404 . S
C61 C60 1.404 . S
C61 C62 1.391 . S
C62 H56 0.930 . S
C62 C58 1.429 . S
C62 C61 1.391 . S
H63 C66 0.931 . S
H64 C69 0.928 . S
H65 C71 0.930 . S
C66 H63 0.931 . S
C66 C67 1.413 . S
C66 C68 1.360 . S
C67 C66 1.413 . S
C67 C71 1.429 . S
C68 C66 1.360 . S
C68 C69 1.372 . S
C69 H64 0.928 . S
C69 C68 1.372 . S
C69 C70 1.404 . S
C70 C69 1.404 . S
C70 C71 1.391 . S
C71 H65 0.930 . S
C71 C67 1.429 . S
C71 C70 1.391 . S
Zn72 O78 1.920 1_455 S
Zn72 O84 1.898 . S
Zn72 O87 1.905 . S
Zn73 O81 1.905 1_655 S
Zn73 O82 1.898 . S
Zn73 O90 1.920 . S
Zn74 O77 2.080 1_455 S
Zn74 O80 2.114 . S
Zn74 O83 2.120 1_455 S
Zn74 O85 2.120 . S
Zn74 O86 2.114 . S
Zn74 O89 2.080 1_455 S
C75 O80 1.166 . S
C75 O81 1.182 . S
C76 O82 1.167 . S
C76 O83 1.299 . S
O77 Zn74 2.080 1_655 S
O77 C91 1.305 . S
O78 Zn72 1.920 1_655 S
O78 C91 1.234 . S
C79 O84 1.167 . S
C79 O85 1.299 . S
O80 Zn74 2.114 . S
O80 C75 1.166 . S
O81 Zn73 1.905 1_455 S
O81 C75 1.182 . S
O82 Zn73 1.898 . S
O82 C76 1.167 . S
O83 Zn74 2.120 1_655 S
O83 C76 1.299 . S
O84 Zn72 1.898 . S
O84 C79 1.167 . S
O85 Zn74 2.120 . S
O85 C79 1.299 . S
O86 Zn74 2.114 . S
O86 C88 1.166 . S
O87 Zn72 1.905 . S
O87 C88 1.182 . S
C88 O86 1.166 . S
C88 O87 1.182 . S
O89 Zn74 2.080 1_655 S
O89 C92 1.305 . S
O90 Zn73 1.920 . S
O90 C92 1.234 . S
C91 O77 1.305 . S
C91 O78 1.234 . S
C92 O89 1.305 . S
C92 O90 1.234 . S
Zn93 O99 1.920 . S
Zn93 O105 1.898 . S
Zn93 O108 1.905 . S
Zn94 O102 1.905 . S
Zn94 O103 1.898 . S
Zn94 O111 1.920 . S
Zn95 O98 2.080 . S
Zn95 O101 2.114 . S
Zn95 O104 2.120 . S
Zn95 O106 2.120 . S
Zn95 O107 2.114 . S
Zn95 O110 2.080 . S
C96 O101 1.166 . S
C96 O102 1.182 . S
C97 O103 1.167 . S
C97 O104 1.299 . S
O98 Zn95 2.080 . S
O98 C112 1.305 . S
O99 Zn93 1.920 . S
O99 C112 1.234 . S
C100 O105 1.167 . S
C100 O106 1.299 . S
O101 Zn95 2.114 . S
O101 C96 1.166 . S
O102 Zn94 1.905 . S
O102 C96 1.182 . S
O103 Zn94 1.898 . S
O103 C97 1.167 . S
O104 Zn95 2.120 . S
O104 C97 1.299 . S
O105 Zn93 1.898 . S
O105 C100 1.167 . S
O106 Zn95 2.120 . S
O106 C100 1.299 . S
O107 Zn95 2.114 . S
O107 C109 1.166 . S
O108 Zn93 1.905 . S
O108 C109 1.182 . S
C109 O107 1.166 . S
C109 O108 1.182 . S
O110 Zn95 2.080 . S
O110 C113 1.305 . S
O111 Zn94 1.920 . S
O111 C113 1.234 . S
C112 O98 1.305 . S
C112 O99 1.234 . S
C113 O110 1.305 . S
C113 O111 1.234 . S
Zn114 O120 1.920 . S
Zn114 O126 1.898 . S
Zn114 O129 1.905 1_455 S
Zn115 O123 1.905 . S
Zn115 O124 1.898 . S
Zn115 O132 1.920 1_655 S
Zn116 O119 2.085 . S
Zn116 O122 2.109 1_455 S
Zn116 O125 2.115 1_455 S
Zn116 O127 2.125 . S
Zn116 O128 2.110 1_455 S
Zn116 O131 2.084 . S
C117 O122 1.166 . S
C117 O123 1.182 . S
C118 O124 1.167 . S
C118 O125 1.299 . S
O119 Zn116 2.085 . S
O119 C133 1.305 . S
O120 Zn114 1.920 . S
O120 C133 1.234 . S
C121 O126 1.167 . S
C121 O127 1.299 . S
O122 Zn116 2.109 1_655 S
O122 C117 1.166 . S
O123 Zn115 1.905 . S
O123 C117 1.182 . S
O124 Zn115 1.898 . S
O124 C118 1.167 . S
O125 Zn116 2.115 1_655 S
O125 C118 1.299 . S
O126 Zn114 1.898 . S
O126 C121 1.167 . S
O127 Zn116 2.125 . S
O127 C121 1.299 . S
O128 Zn116 2.110 1_655 S
O128 C130 1.166 . S
O129 Zn114 1.905 1_655 S
O129 C130 1.182 . S
C130 O128 1.166 . S
C130 O129 1.182 . S
O131 Zn116 2.084 . S
O131 C134 1.305 . S
O132 Zn115 1.920 1_455 S
O132 C134 1.234 . S
C133 O119 1.305 . S
C133 O120 1.234 . S
C134 O131 1.305 . S
C134 O132 1.234 . S
Zn135 O141 1.920 . S
Zn135 O147 1.898 . S
Zn135 O150 1.905 . S
Zn136 O144 1.905 . S
Zn136 O145 1.898 . S
Zn136 O153 1.920 . S
Zn137 O140 2.080 . S
Zn137 O143 2.114 . S
Zn137 O146 2.120 . S
Zn137 O148 2.120 . S
Zn137 O149 2.114 . S
Zn137 O152 2.080 . S
C138 O143 1.166 . S
C138 O144 1.182 . S
C139 O145 1.167 . S
C139 O146 1.299 . S
O140 Zn137 2.080 . S
O140 C154 1.305 . S
O141 Zn135 1.920 . S
O141 C154 1.234 . S
C142 O147 1.167 . S
C142 O148 1.299 . S
O143 Zn137 2.114 . S
O143 C138 1.166 . S
O144 Zn136 1.905 . S
O144 C138 1.182 . S
O145 Zn136 1.898 . S
O145 C139 1.167 . S
O146 Zn137 2.120 . S
O146 C139 1.299 . S
O147 Zn135 1.898 . S
O147 C142 1.167 . S
O148 Zn137 2.120 . S
O148 C142 1.299 . S
O149 Zn137 2.114 . S
O149 C151 1.166 . S
O150 Zn135 1.905 . S
O150 C151 1.182 . S
C151 O149 1.166 . S
C151 O150 1.182 . S
O152 Zn137 2.080 . S
O152 C155 1.305 . S
O153 Zn136 1.920 . S
O153 C155 1.234 . S
C154 O140 1.305 . S
C154 O141 1.234 . S
C155 O152 1.305 . S
C155 O153 1.234 . S
C156 C157 1.387 . S
C156 H160 0.950 . S
C156 C165 1.390 1_565 S
C157 C156 1.387 . S
C157 C159 1.387 . S
H158 C165 0.950 . S
C159 C157 1.387 . S
C159 C161 1.390 . S
C159 H163 0.950 . S
H160 C156 0.950 . S
C161 C159 1.390 . S
C161 C162 1.387 1_565 S
C161 H164 0.950 . S
C162 C161 1.387 1_545 S
C162 C165 1.387 . S
H163 C159 0.950 . S
H164 C161 0.950 . S
C165 C156 1.390 1_545 S
C165 H158 0.950 . S
C165 C162 1.387 . S
C166 C167 1.387 . S
C166 H170 0.950 . S
C166 C175 1.390 . S
C167 C166 1.387 . S
C167 C169 1.387 . S
H168 C175 0.950 . S
C169 C167 1.387 . S
C169 C171 1.390 . S
C169 H173 0.950 . S
H170 C166 0.950 . S
C171 C169 1.390 . S
C171 C172 1.387 . S
C171 H174 0.950 . S
C172 C171 1.387 . S
C172 C175 1.387 . S
H173 C169 0.950 . S
H174 C171 0.950 . S
C175 C166 1.390 . S
C175 H168 0.950 . S
C175 C172 1.387 . S
C176 C177 1.387 . S
C176 H180 0.950 . S
C176 C185 1.390 . S
C177 C176 1.387 . S
C177 C179 1.387 . S
H178 C185 0.950 . S
C179 C177 1.387 . S
C179 C181 1.390 . S
C179 H183 0.950 . S
H180 C176 0.950 . S
C181 C179 1.390 . S
C181 C182 1.387 . S
C181 H184 0.950 . S
C182 C181 1.387 . S
C182 C185 1.387 . S
H183 C179 0.950 . S
H184 C181 0.950 . S
C185 C176 1.390 . S
C185 H178 0.950 . S
C185 C182 1.387 . S
C186 C187 1.387 . S
C186 H190 0.950 . S
C186 C195 1.390 . S
C187 C186 1.387 . S
C187 C189 1.387 . S
H188 C195 0.950 . S
C189 C187 1.387 . S
C189 C191 1.390 1_565 S
C189 H193 0.950 . S
H190 C186 0.950 . S
C191 C189 1.390 1_545 S
C191 C192 1.387 . S
C191 H194 0.950 . S
C192 C191 1.387 . S
C192 C195 1.387 1_545 S
H193 C189 0.950 . S
H194 C191 0.950 . S
C195 C186 1.390 . S
C195 H188 0.950 . S
C195 C192 1.387 1_565 S
C196 C197 1.387 . S
C196 H200 0.950 . S
C196 C205 1.390 . S
C197 C196 1.387 . S
C197 C199 1.387 . S
H198 C205 0.950 . S
C199 C197 1.387 . S
C199 C201 1.390 1_545 S
C199 H203 0.950 . S
H200 C196 0.950 . S
C201 C199 1.390 1_565 S
C201 C202 1.387 . S
C201 H204 0.950 . S
C202 C201 1.387 . S
C202 C205 1.387 1_565 S
H203 C199 0.950 . S
H204 C201 0.950 . S
C205 C196 1.390 . S
C205 H198 0.950 . S
C205 C202 1.387 1_545 S
C206 C207 1.387 . S
C206 H210 0.950 . S
C206 C215 1.390 . S
C207 C206 1.387 . S
C207 C209 1.387 . S
H208 C215 0.950 . S
C209 C207 1.387 . S
C209 C211 1.390 . S
C209 H213 0.950 . S
H210 C206 0.950 . S
C211 C209 1.390 . S
C211 C212 1.387 . S
C211 H214 0.950 . S
C212 C211 1.387 . S
C212 C215 1.387 . S
H213 C209 0.950 . S
H214 C211 0.950 . S
C215 C206 1.390 . S
C215 H208 0.950 . S
C215 C212 1.387 . S
C216 C217 1.387 . S
C216 H220 0.950 . S
C216 C225 1.390 . S
C217 C216 1.387 . S
C217 C219 1.387 . S
H218 C225 0.950 . S
C219 C217 1.387 . S
C219 C221 1.390 . S
C219 H223 0.950 . S
H220 C216 0.950 . S
C221 C219 1.390 . S
C221 C222 1.387 . S
C221 H224 0.950 . S
C222 C221 1.387 . S
C222 C225 1.387 . S
H223 C219 0.950 . S
H224 C221 0.950 . S
C225 C216 1.390 . S
C225 H218 0.950 . S
C225 C222 1.387 . S
C226 C227 1.387 . S
C226 H230 0.950 . S
C226 C235 1.390 1_545 S
C227 C226 1.387 . S
C227 C229 1.387 . S
H228 C235 0.950 . S
C229 C227 1.387 . S
C229 C231 1.390 . S
C229 H233 0.950 . S
H230 C226 0.950 . S
C231 C229 1.390 . S
C231 C232 1.387 1_545 S
C231 H234 0.950 . S
C232 C231 1.387 1_565 S
C232 C235 1.387 . S
H233 C229 0.950 . S
H234 C231 0.950 . S
C235 C226 1.390 1_565 S
C235 H228 0.950 . S
C235 C232 1.387 . S
C236 C237 1.387 1_554 S
C236 H240 0.950 . S
C236 C245 1.390 . S
C237 C236 1.387 1_556 S
C237 C239 1.387 1_556 S
H238 C245 0.950 . S
C239 C237 1.387 1_554 S
C239 C241 1.390 . S
C239 H243 0.950 . S
H240 C236 0.950 . S
C241 C239 1.390 . S
C241 C242 1.387 . S
C241 H244 0.950 . S
C242 C241 1.387 . S
C242 C245 1.387 . S
H243 C239 0.950 . S
H244 C241 0.950 . S
C245 C236 1.390 . S
C245 H238 0.950 . S
C245 C242 1.387 . S
C246 C247 1.387 . S
C246 H250 0.950 . S
C246 C255 1.390 . S
C247 C246 1.387 . S
C247 C249 1.387 . S
H248 C255 0.950 . S
C249 C247 1.387 . S
C249 C251 1.390 . S
C249 H253 0.950 . S
H250 C246 0.950 . S
C251 C249 1.390 . S
C251 C252 1.387 . S
C251 H254 0.950 . S
C252 C251 1.387 . S
C252 C255 1.387 . S
H253 C249 0.950 . S
H254 C251 0.950 . S
C255 C246 1.390 . S
C255 H248 0.950 . S
C255 C252 1.387 . S
C256 C257 1.387 1_556 S
C256 H260 0.950 . S
C256 C265 1.390 . S
C257 C256 1.387 1_554 S
C257 C259 1.387 1_554 S
H258 C265 0.950 . S
C259 C257 1.387 1_556 S
C259 C261 1.390 . S
C259 H263 0.950 1_556 S
H260 C256 0.950 . S
C261 C259 1.390 . S
C261 C262 1.387 . S
C261 H264 0.950 . S
C262 C261 1.387 . S
C262 C265 1.387 . S
H263 C259 0.950 1_554 S
H264 C261 0.950 . S
C265 C256 1.390 . S
C265 H258 0.950 . S
C265 C262 1.387 . S
C266 C267 1.387 . S
C266 H270 0.950 . S
C266 C275 1.390 . S
C267 C266 1.387 . S
C267 C269 1.387 . S
H268 C275 0.950 . S
C269 C267 1.387 . S
C269 C271 1.390 . S
C269 H273 0.950 . S
H270 C266 0.950 . S
C271 C269 1.390 . S
C271 C272 1.387 . S
C271 H274 0.950 . S
C272 C271 1.387 . S
C272 C275 1.387 . S
H273 C269 0.950 . S
H274 C271 0.950 . S
C275 C266 1.390 . S
C275 H268 0.950 . S
C275 C272 1.387 . S
C276 C277 1.387 1_556 S
C276 H280 0.950 . S
C276 C285 1.390 . S
C277 C276 1.387 1_554 S
C277 C279 1.387 1_554 S
H278 C285 0.950 . S
C279 C277 1.387 1_556 S
C279 C281 1.390 . S
C279 H283 0.950 . S
H280 C276 0.950 . S
C281 C279 1.390 . S
C281 C282 1.387 . S
C281 H284 0.950 . S
C282 C281 1.387 . S
C282 C285 1.387 . S
H283 C279 0.950 . S
H284 C281 0.950 . S
C285 C276 1.390 . S
C285 H278 0.950 . S
C285 C282 1.387 . S
C286 C287 1.387 . S
C286 H290 0.950 . S
C286 C295 1.390 . S
C287 C286 1.387 . S
C287 C289 1.387 . S
H288 C295 0.950 . S
C289 C287 1.387 . S
C289 C291 1.390 . S
C289 H293 0.950 . S
H290 C286 0.950 . S
C291 C289 1.390 . S
C291 C292 1.387 . S
C291 H294 0.950 . S
C292 C291 1.387 . S
C292 C295 1.387 . S
H293 C289 0.950 . S
H294 C291 0.950 . S
C295 C286 1.390 . S
C295 H288 0.950 . S
C295 C292 1.387 . S
C296 C297 1.387 1_554 S
C296 H300 0.950 . S
C296 C305 1.390 . S
C297 C296 1.387 1_556 S
C297 C299 1.387 1_556 S
H298 C305 0.950 . S
C299 C297 1.387 1_554 S
C299 C301 1.390 . S
C299 H303 0.950 1_554 S
H300 C296 0.950 . S
C301 C299 1.390 . S
C301 C302 1.387 . S
C301 H304 0.950 . S
C302 C301 1.387 . S
C302 C305 1.387 . S
H303 C299 0.950 1_556 S
H304 C301 0.950 . S
C305 C296 1.390 . S
C305 H298 0.950 . S
C305 C302 1.387 . S
C306 C307 1.387 . S
C306 H310 0.950 . S
C306 C315 1.390 . S
C307 C306 1.387 . S
C307 C309 1.387 . S
H308 C315 0.950 . S
C309 C307 1.387 . S
C309 C311 1.390 . S
C309 H313 0.950 . S
H310 C306 0.950 . S
C311 C309 1.390 . S
C311 C312 1.387 . S
C311 H314 0.950 . S
C312 C311 1.387 . S
C312 C315 1.387 . S
H313 C309 0.950 . S
H314 C311 0.950 . S
C315 C306 1.390 . S
C315 H308 0.950 . S
C315 C312 1.387 . S
C316 C317 1.387 . S
C316 H320 0.950 . S
C316 C325 1.390 . S
C317 C316 1.387 . S
C317 C319 1.387 . S
H318 C325 0.950 . S
C319 C317 1.387 . S
C319 C321 1.390 . S
C319 H323 0.950 . S
H320 C316 0.950 . S
C321 C319 1.390 . S
C321 C322 1.387 . S
C321 H324 0.950 . S
C322 C321 1.387 . S
C322 C325 1.387 . S
H323 C319 0.950 . S
H324 C321 0.950 . S
C325 C316 1.390 . S
C325 H318 0.950 . S
C325 C322 1.387 . S
C326 C327 1.387 . S
C326 H330 0.950 . S
C326 C335 1.390 . S
C327 C326 1.387 . S
C327 C329 1.387 . S
H328 C335 0.950 . S
C329 C327 1.387 . S
C329 C331 1.390 . S
C329 H333 0.950 . S
H330 C326 0.950 . S
C331 C329 1.390 . S
C331 C332 1.387 . S
C331 H334 0.950 . S
C332 C331 1.387 . S
C332 C335 1.387 . S
H333 C329 0.950 . S
H334 C331 0.950 . S
C335 C326 1.390 . S
C335 H328 0.950 . S
C335 C332 1.387 . S
C336 C337 1.387 . S
C336 H340 0.950 . S
C336 C345 1.390 . S
C337 C336 1.387 . S
C337 C339 1.387 . S
H338 C345 0.950 . S
C339 C337 1.387 . S
C339 C341 1.390 . S
C339 H343 0.950 . S
H340 C336 0.950 . S
C341 C339 1.390 . S
C341 C342 1.387 . S
C341 H344 0.950 . S
C342 C341 1.387 . S
C342 C345 1.387 . S
H343 C339 0.950 . S
H344 C341 0.950 . S
C345 C336 1.390 . S
C345 H338 0.950 . S
C345 C342 1.387 . S
C346 C347 1.387 . S
C346 H350 0.950 . S
C346 C355 1.390 . S
C347 C346 1.387 . S
C347 C349 1.387 . S
H348 C355 0.950 . S
C349 C347 1.387 . S
C349 C351 1.390 . S
C349 H353 0.950 . S
H350 C346 0.950 . S
C351 C349 1.390 . S
C351 C352 1.387 . S
C351 H354 0.950 . S
C352 C351 1.387 . S
C352 C355 1.387 . S
H353 C349 0.950 . S
H354 C351 0.950 . S
C355 C346 1.390 . S
C355 H348 0.950 . S
C355 C352 1.387 . S
C356 C357 1.387 . S
C356 H360 0.950 . S
C356 C365 1.390 . S
C357 C356 1.387 . S
C357 C359 1.387 . S
H358 C365 0.950 . S
C359 C357 1.387 . S
C359 C361 1.390 . S
C359 H363 0.950 . S
H360 C356 0.950 . S
C361 C359 1.390 . S
C361 C362 1.387 . S
C361 H364 0.950 . S
C362 C361 1.387 . S
C362 C365 1.387 . S
H363 C359 0.950 . S
H364 C361 0.950 . S
C365 C356 1.390 . S
C365 H358 0.950 . S
C365 C362 1.387 . S
C366 C367 1.387 . S
C366 H370 0.950 . S
C366 C375 1.390 . S
C367 C366 1.387 . S
C367 C369 1.387 . S
H368 C375 0.950 . S
C369 C367 1.387 . S
C369 C371 1.390 . S
C369 H373 0.950 . S
H370 C366 0.950 . S
C371 C369 1.390 . S
C371 C372 1.387 . S
C371 H374 0.950 . S
C372 C371 1.387 . S
C372 C375 1.387 . S
H373 C369 0.950 . S
H374 C371 0.950 . S
C375 C366 1.390 . S
C375 H368 0.950 . S
C375 C372 1.387 . S
C376 C377 1.387 . S
C376 H380 0.950 . S
C376 C385 1.390 . S
C377 C376 1.387 . S
C377 C379 1.387 . S
H378 C385 0.950 . S
C379 C377 1.387 . S
C379 C381 1.390 . S
C379 H383 0.950 . S
H380 C376 0.950 . S
C381 C379 1.390 . S
C381 C382 1.387 . S
C381 H384 0.950 . S
C382 C381 1.387 . S
C382 C385 1.387 . S
H383 C379 0.950 . S
H384 C381 0.950 . S
C385 C376 1.390 . S
C385 H378 0.950 . S
C385 C382 1.387 . S
C386 C387 1.387 . S
C386 H390 0.950 . S
C386 C395 1.390 . S
C387 C386 1.387 . S
C387 C389 1.387 . S
H388 C395 0.950 . S
C389 C387 1.387 . S
C389 C391 1.390 . S
C389 H393 0.950 . S
H390 C386 0.950 . S
C391 C389 1.390 . S
C391 C392 1.387 . S
C391 H394 0.950 . S
C392 C391 1.387 . S
C392 C395 1.387 . S
H393 C389 0.950 . S
H394 C391 0.950 . S
C395 C386 1.390 . S
C395 H388 0.950 . S
C395 C392 1.387 . S
C157 C58 1.423 . S
C162 C88 1.370 . S
C172 C96 1.372 . S
C167 C68 1.428 . S
C182 C100 1.359 . S
C177 C40 1.421 . S
C187 C50 1.426 . S
C192 C76 1.364 . S
C202 C117 1.372 . S
C197 C23 1.425 . S
C212 C151 1.372 . S
C207 C32 1.425 . S
C217 C5 1.422 . S
C222 C139 1.363 . S
C227 C14 1.422 . S
C232 C121 1.363 . S
C242 C75 1.294 . S
C237 C13 1.479 . S
C252 C109 1.289 . S
C247 C4 1.478 . S
C262 C113 1.297 . S
C257 C31 1.484 . S
C272 C91 1.298 . S
C267 C22 1.483 . S
C282 C130 1.290 . S
C277 C49 1.481 . S
C287 C41 1.480 . S
C292 C138 1.295 . S
C302 C154 1.293 . S
C297 C67 1.485 . S
C307 C59 1.485 . S
C312 C134 1.294 . S
C322 C79 1.299 . S
C317 C7 1.510 . S
C332 C97 1.301 . S
C327 C16 1.509 . S
C337 C25 1.503 . S
C342 C112 1.306 . S
C352 C92 1.304 . S
C347 C34 1.502 . S
C362 C118 1.302 . S
C357 C43 1.511 . S
C367 C52 1.512 . S
C372 C142 1.303 . S
C377 C61 1.504 . S
C382 C155 1.304 . S
C387 C70 1.505 . S
C392 C133 1.308 . S
