# Generated by pormake.
# Topology apo, (3,6)-cn, num edge types: 1
# Building blocks:
#     Node 0, Type 0, BuildingBlock: VETTIZ_charged_linker_0, # of connection points: 3
#     Node 1, Type 0, BuildingBlock: VETTIZ_charged_linker_0, # of connection points: 3
#     Node 2, Type 0, BuildingBlock: VETTIZ_charged_linker_0, # of connection points: 3
#     Node 3, Type 0, BuildingBlock: VETTIZ_charged_linker_0, # of connection points: 3
#     Node 4, Type 0, BuildingBlock: VETTIZ_charged_linker_0, # of connection points: 3
#     Node 5, Type 0, BuildingBlock: VETTIZ_charged_linker_0, # of connection points: 3
#     Node 6, Type 0, BuildingBlock: VETTIZ_charged_linker_0, # of connection points: 3
#     Node 7, Type 0, BuildingBlock: VETTIZ_charged_linker_0, # of connection points: 3
#     Node 8, Type 1, BuildingBlock: MIDCAF_clean_sbu_0, # of connection points: 6
#     Node 9, Type 1, BuildingBlock: MIDCAF_clean_sbu_0, # of connection points: 6
#     Node 10, Type 1, BuildingBlock: MIDCAF_clean_sbu_0, # of connection points: 6
#     Node 11, Type 1, BuildingBlock: MIDCAF_clean_sbu_0, # of connection points: 6
#     Edge 12, Type (0, 1), BuildingBlock: ZUJKAS_clean_linker_0, # of connection points: 2
#     Edge 13, Type (0, 1), BuildingBlock: ZUJKAS_clean_linker_0, # of connection points: 2
#     Edge 14, Type (0, 1), BuildingBlock: ZUJKAS_clean_linker_0, # of connection points: 2
#     Edge 15, Type (0, 1), BuildingBlock: ZUJKAS_clean_linker_0, # of connection points: 2
#     Edge 16, Type (0, 1), BuildingBlock: ZUJKAS_clean_linker_0, # of connection points: 2
#     Edge 17, Type (0, 1), BuildingBlock: ZUJKAS_clean_linker_0, # of connection points: 2
#     Edge 18, Type (0, 1), BuildingBlock: ZUJKAS_clean_linker_0, # of connection points: 2
#     Edge 19, Type (0, 1), BuildingBlock: ZUJKAS_clean_linker_0, # of connection points: 2
#     Edge 20, Type (0, 1), BuildingBlock: ZUJKAS_clean_linker_0, # of connection points: 2
#     Edge 21, Type (0, 1), BuildingBlock: ZUJKAS_clean_linker_0, # of connection points: 2
#     Edge 22, Type (0, 1), BuildingBlock: ZUJKAS_clean_linker_0, # of connection points: 2
#     Edge 23, Type (0, 1), BuildingBlock: ZUJKAS_clean_linker_0, # of connection points: 2
#     Edge 24, Type (0, 1), BuildingBlock: ZUJKAS_clean_linker_0, # of connection points: 2
#     Edge 25, Type (0, 1), BuildingBlock: ZUJKAS_clean_linker_0, # of connection points: 2
#     Edge 26, Type (0, 1), BuildingBlock: ZUJKAS_clean_linker_0, # of connection points: 2
#     Edge 27, Type (0, 1), BuildingBlock: ZUJKAS_clean_linker_0, # of connection points: 2
#     Edge 28, Type (0, 1), BuildingBlock: ZUJKAS_clean_linker_0, # of connection points: 2
#     Edge 29, Type (0, 1), BuildingBlock: ZUJKAS_clean_linker_0, # of connection points: 2
#     Edge 30, Type (0, 1), BuildingBlock: ZUJKAS_clean_linker_0, # of connection points: 2
#     Edge 31, Type (0, 1), BuildingBlock: ZUJKAS_clean_linker_0, # of connection points: 2
#     Edge 32, Type (0, 1), BuildingBlock: ZUJKAS_clean_linker_0, # of connection points: 2
#     Edge 33, Type (0, 1), BuildingBlock: ZUJKAS_clean_linker_0, # of connection points: 2
#     Edge 34, Type (0, 1), BuildingBlock: ZUJKAS_clean_linker_0, # of connection points: 2
#     Edge 35, Type (0, 1), BuildingBlock: ZUJKAS_clean_linker_0, # of connection points: 2
# Relax obj value: 0.090
# Max RMSD: 0.101
# Mean RMSD: 0.093
data_MOF--net-apo--node1-MIDCAF_clean_sbu_0--node2-VETTIZ_charged_linker_0--edge1-ZUJKAS_clean_linker_0
_symmetry_space_group_name_H-M    P1
_symmetry_Int_Tables_number       1
_symmetry_cell_setting            triclinic
loop_
_symmetry_equiv_pos_as_xyz
'x, y, z'
_cell_length_a     52.888718
_cell_length_b     63.349528
_cell_length_c     56.959232
_cell_angle_alpha  90.004715
_cell_angle_beta   90.017885
_cell_angle_gamma 90.343809
loop_
_atom_site_label
_atom_site_type_symbol
_atom_site_fract_x
_atom_site_fract_y
_atom_site_fract_z
_atom_type_partial_charge
C0 C 0.33403 0.31886 0.47571 0.0
C1 C 0.35193 0.33079 0.48857 0.0
C2 C 0.36466 0.3475 0.47711 0.0
C3 C 0.34282 0.33971 0.44069 0.0
C4 C 0.32983 0.32358 0.45184 0.0
C5 C 0.31172 0.3125 0.43534 0.0
H6 H 0.26177 0.30374 0.32548 0.0
C7 C 0.33467 0.34035 0.41584 0.0
C8 C 0.31639 0.32444 0.41249 0.0
H9 H 0.2427 0.26687 0.38693 0.0
H10 H 0.27327 0.28651 0.40984 0.0
H11 H 0.26499 0.3485 0.35182 0.0
H12 H 0.32139 0.30271 0.33338 0.0
H13 H 0.33509 0.32769 0.32889 0.0
H14 H 0.30765 0.31999 0.312 0.0
H15 H 0.2747 0.34379 0.32209 0.0
H16 H 0.29126 0.36231 0.34063 0.0
C17 C 0.28454 0.31579 0.44464 0.0
C18 C 0.31964 0.28909 0.43346 0.0
C19 C 0.37384 0.3946 0.36054 0.0
C20 C 0.37075 0.39883 0.33644 0.0
C21 C 0.35395 0.3861 0.32332 0.0
C22 C 0.34021 0.36971 0.33403 0.0
C23 C 0.34328 0.36585 0.35818 0.0
C24 C 0.36007 0.37808 0.37095 0.0
C25 C 0.36134 0.37143 0.39629 0.0
C26 C 0.34233 0.35334 0.39671 0.0
C27 C 0.33172 0.35021 0.37438 0.0
C28 C 0.35262 0.39025 0.41162 0.0
C29 C 0.3886 0.3638 0.40137 0.0
C30 C 0.26429 0.29971 0.34381 0.0
C31 C 0.24963 0.28368 0.35431 0.0
C32 C 0.2534 0.2793 0.37838 0.0
C33 C 0.27129 0.29067 0.39167 0.0
C34 C 0.28566 0.3067 0.3809 0.0
C35 C 0.28202 0.31093 0.35732 0.0
C36 C 0.29882 0.32852 0.3487 0.0
C37 C 0.31305 0.33428 0.37097 0.0
C38 C 0.30535 0.32145 0.38987 0.0
C39 C 0.28174 0.34677 0.34017 0.0
C40 C 0.31662 0.31946 0.32962 0.0
H41 H 0.37072 0.36485 0.44589 0.0
H42 H 0.32388 0.30591 0.48387 0.0
H43 H 0.34059 0.28773 0.43269 0.0
H44 H 0.31266 0.28138 0.41732 0.0
H45 H 0.31295 0.27993 0.44891 0.0
H46 H 0.28237 0.33193 0.45206 0.0
H47 H 0.27994 0.30429 0.45875 0.0
H48 H 0.27006 0.31464 0.43073 0.0
H49 H 0.38684 0.40386 0.37109 0.0
H50 H 0.35102 0.38912 0.3048 0.0
H51 H 0.32756 0.36077 0.32309 0.0
H52 H 0.33744 0.39931 0.40267 0.0
H53 H 0.36851 0.40134 0.41516 0.0
H54 H 0.34416 0.38526 0.42847 0.0
H55 H 0.39682 0.35586 0.38573 0.0
H56 H 0.38947 0.35182 0.41542 0.0
H57 H 0.40122 0.37724 0.40601 0.0
H58 H 0.37802 0.35735 0.48656 0.0
C59 C 0.36027 0.35197 0.4534 0.0
C60 C 0.23488 0.18436 0.83834 0.0
C61 C 0.24918 0.20082 0.84852 0.0
C62 C 0.24457 0.206 0.87229 0.0
C63 C 0.21253 0.17844 0.87516 0.0
C64 C 0.21678 0.17353 0.85183 0.0
C65 C 0.20001 0.15582 0.84343 0.0
H66 H 0.11048 0.08176 0.86649 0.0
C67 C 0.19265 0.16391 0.88424 0.0
C68 C 0.18525 0.15066 0.86558 0.0
H69 H 0.14719 0.09483 0.80022 0.0
H70 H 0.17112 0.12314 0.81815 0.0
H71 H 0.15944 0.08583 0.89805 0.0
H72 H 0.1014 0.13021 0.88026 0.0
H73 H 0.10831 0.13401 0.91011 0.0
H74 H 0.0963 0.10878 0.90034 0.0
H75 H 0.12864 0.08493 0.91119 0.0
H76 H 0.15391 0.10071 0.92347 0.0
C77 C 0.21708 0.13726 0.83578 0.0
C78 C 0.18269 0.16448 0.82373 0.0
C79 C 0.16432 0.16697 0.97024 0.0
C80 C 0.14723 0.15453 0.98342 0.0
C81 C 0.13403 0.13808 0.97198 0.0
C82 C 0.13777 0.13392 0.94811 0.0
C83 C 0.155 0.14625 0.93523 0.0
C84 C 0.16805 0.16243 0.94625 0.0
C85 C 0.18604 0.17345 0.92959 0.0
C86 C 0.18139 0.16131 0.90685 0.0
C87 C 0.16308 0.14545 0.91035 0.0
C88 C 0.21327 0.17036 0.93887 0.0
C89 C 0.17797 0.19681 0.92749 0.0
C90 C 0.12379 0.09063 0.85586 0.0
C91 C 0.12696 0.08595 0.83188 0.0
C92 C 0.14419 0.09818 0.81865 0.0
C93 C 0.15818 0.11458 0.82915 0.0
C94 C 0.15491 0.11895 0.85318 0.0
C95 C 0.13779 0.10713 0.86604 0.0
C96 C 0.13642 0.11418 0.89123 0.0
C97 C 0.15559 0.13215 0.89143 0.0
C98 C 0.16647 0.13482 0.86915 0.0
C99 C 0.14483 0.09551 0.90697 0.0
C100 C 0.10921 0.1221 0.89598 0.0
H101 H 0.22388 0.19969 0.90351 0.0
H102 H 0.23792 0.17971 0.82027 0.0
H103 H 0.17812 0.18139 0.82678 0.0
H104 H 0.16411 0.15644 0.82303 0.0
H105 H 0.19196 0.16331 0.80629 0.0
H106 H 0.23329 0.13548 0.84806 0.0
H107 H 0.22491 0.13997 0.81793 0.0
H108 H 0.20724 0.12186 0.83605 0.0
H109 H 0.17486 0.17967 0.9785 0.0
H110 H 0.12047 0.12848 0.98151 0.0
H111 H 0.12703 0.12118 0.94063 0.0
H112 H 0.21569 0.15414 0.94597 0.0
H113 H 0.21761 0.18169 0.95323 0.0
H114 H 0.22776 0.17196 0.92506 0.0
H115 H 0.157 0.1981 0.92708 0.0
H116 H 0.18453 0.2043 0.91108 0.0
H117 H 0.18496 0.20619 0.94266 0.0
H118 H 0.25481 0.21882 0.88062 0.0
C119 C 0.22643 0.19493 0.88559 0.0
C120 C 0.83315 0.16807 0.52134 0.0
C121 C 0.85125 0.15683 0.50815 0.0
C122 C 0.86388 0.13985 0.51897 0.0
C123 C 0.84132 0.14584 0.55536 0.0
C124 C 0.82855 0.16233 0.54488 0.0
C125 C 0.81025 0.17256 0.56173 0.0
H126 H 0.7567 0.1749 0.67051 0.0
C127 C 0.83249 0.14385 0.57992 0.0
C128 C 0.81417 0.15942 0.58386 0.0
H129 H 0.7421 0.21655 0.61191 0.0
H130 H 0.77246 0.19774 0.5884 0.0
H131 H 0.75937 0.13216 0.64091 0.0
H132 H 0.81774 0.17514 0.66401 0.0
H133 H 0.82857 0.1493 0.66862 0.0
H134 H 0.80079 0.15826 0.68392 0.0
H135 H 0.76895 0.13398 0.67108 0.0
H136 H 0.78503 0.11698 0.65061 0.0
C137 C 0.78324 0.16984 0.55169 0.0
C138 C 0.81853 0.19581 0.56529 0.0
C139 C 0.87037 0.08707 0.63211 0.0
C140 C 0.86584 0.08064 0.65538 0.0
C141 C 0.84742 0.09144 0.66861 0.0
C142 C 0.83388 0.10834 0.65886 0.0
C143 C 0.83863 0.11454 0.63553 0.0
C144 C 0.85659 0.10387 0.6226 0.0
C145 C 0.85878 0.11217 0.59795 0.0
C146 C 0.83937 0.12975 0.59823 0.0
C147 C 0.82765 0.13114 0.62028 0.0
C148 C 0.85127 0.09416 0.5808 0.0
C149 C 0.88602 0.12085 0.59463 0.0
C150 C 0.76015 0.18017 0.65271 0.0
C151 C 0.74668 0.19729 0.64319 0.0
C152 C 0.75172 0.20324 0.61972 0.0
C153 C 0.76956 0.19237 0.60607 0.0
C154 C 0.78273 0.17529 0.61585 0.0
C155 C 0.77799 0.16953 0.63886 0.0
C156 C 0.79393 0.15117 0.64651 0.0
C157 C 0.80898 0.14681 0.62434 0.0
C158 C 0.80233 0.16095 0.60631 0.0
C159 C 0.77606 0.13255 0.65281 0.0
C160 C 0.81112 0.15864 0.66694 0.0
H161 H 0.86947 0.12132 0.54933 0.0
H162 H 0.82311 0.18123 0.51366 0.0
H163 H 0.8395 0.19721 0.56566 0.0
H164 H 0.81218 0.20241 0.58221 0.0
H165 H 0.81152 0.20595 0.55079 0.0
H166 H 0.78074 0.15384 0.54395 0.0
H167 H 0.77951 0.18159 0.53765 0.0
H168 H 0.76839 0.17111 0.56521 0.0
H169 H 0.88401 0.0789 0.62128 0.0
H170 H 0.84363 0.08692 0.68661 0.0
H171 H 0.82017 0.11589 0.66986 0.0
H172 H 0.83717 0.08327 0.58889 0.0
H173 H 0.86795 0.0846 0.57576 0.0
H174 H 0.84187 0.09999 0.56474 0.0
H175 H 0.89284 0.12875 0.61092 0.0
H176 H 0.88741 0.13309 0.58089 0.0
H177 H 0.89941 0.10794 0.59047 0.0
H178 H 0.87743 0.13056 0.50924 0.0
C179 C 0.85908 0.13437 0.54233 0.0
C180 C 0.73142 0.30419 0.15525 0.0
C181 C 0.74572 0.28769 0.14546 0.0
C182 C 0.74217 0.28274 0.12149 0.0
C183 C 0.71087 0.31041 0.11763 0.0
C184 C 0.71424 0.31526 0.14111 0.0
C185 C 0.69774 0.33326 0.14881 0.0
H186 H 0.61141 0.40811 0.12186 0.0
C187 C 0.69189 0.32514 0.10781 0.0
C188 C 0.68417 0.33859 0.12607 0.0
H189 H 0.64543 0.39541 0.18941 0.0
H190 H 0.66939 0.3669 0.17253 0.0
H191 H 0.66041 0.40383 0.09229 0.0
H192 H 0.60206 0.35842 0.10792 0.0
H193 H 0.60936 0.35611 0.07793 0.0
H194 H 0.59733 0.38072 0.08902 0.0
H195 H 0.6306 0.40388 0.07725 0.0
H196 H 0.65687 0.3883 0.067 0.0
C197 C 0.71514 0.35155 0.15712 0.0
C198 C 0.67925 0.3249 0.1678 0.0
C199 C 0.66604 0.32055 0.02141 0.0
C200 C 0.64999 0.33297 0.00736 0.0
C201 C 0.6375 0.35022 0.01771 0.0
C202 C 0.64067 0.35498 0.04155 0.0
C203 C 0.65668 0.34247 0.05539 0.0
C204 C 0.66929 0.32572 0.04527 0.0
C205 C 0.68641 0.31485 0.06263 0.0
C206 C 0.68155 0.32758 0.08485 0.0
C207 C 0.66394 0.34363 0.08048 0.0
C208 C 0.71403 0.31734 0.05394 0.0
C209 C 0.67741 0.29168 0.06519 0.0
C210 C 0.62374 0.39903 0.13312 0.0
C211 C 0.62644 0.40412 0.15707 0.0
C212 C 0.64316 0.39205 0.17088 0.0
C213 C 0.657 0.3754 0.16105 0.0
C214 C 0.65423 0.37065 0.13706 0.0
C215 C 0.63772 0.38235 0.12357 0.0
C216 C 0.63724 0.37517 0.09839 0.0
C217 C 0.65608 0.35716 0.09899 0.0
C218 C 0.66603 0.3546 0.12167 0.0
C219 C 0.64656 0.39369 0.08275 0.0
C220 C 0.61011 0.36728 0.09278 0.0
H221 H 0.72317 0.28938 0.08953 0.0
H222 H 0.73333 0.30831 0.17362 0.0
H223 H 0.6736 0.30828 0.16413 0.0
H224 H 0.66128 0.33367 0.16831 0.0
H225 H 0.68809 0.3253 0.18549 0.0
H226 H 0.73226 0.35276 0.14583 0.0
H227 H 0.72158 0.34901 0.17546 0.0
H228 H 0.7061 0.36717 0.15587 0.0
H229 H 0.67612 0.30733 0.01391 0.0
H230 H 0.62486 0.3599 0.00737 0.0
H231 H 0.63046 0.36824 0.04827 0.0
H232 H 0.71687 0.3328 0.04502 0.0
H233 H 0.71895 0.30474 0.0412 0.0
H234 H 0.72794 0.31735 0.06839 0.0
H235 H 0.6564 0.29079 0.06566 0.0
H236 H 0.68375 0.28428 0.08169 0.0
H237 H 0.68395 0.28195 0.05017 0.0
H238 H 0.75311 0.27037 0.11328 0.0
C239 C 0.72488 0.29393 0.1076 0.0
C240 C 0.63902 0.60136 0.6552 0.0
C241 C 0.61962 0.58852 0.6458 0.0
C242 C 0.61189 0.59202 0.62242 0.0
C243 C 0.64237 0.62053 0.6183 0.0
C244 C 0.65003 0.61723 0.6412 0.0
C245 C 0.67081 0.63233 0.64836 0.0
H246 H 0.74999 0.7133 0.62017 0.0
C247 C 0.6576 0.63812 0.60845 0.0
C248 C 0.67429 0.64517 0.62599 0.0
H249 H 0.74421 0.67994 0.68623 0.0
H250 H 0.71101 0.65795 0.67039 0.0
H251 H 0.74497 0.67208 0.5871 0.0
H252 H 0.68949 0.7167 0.61126 0.0
H253 H 0.6833 0.71129 0.58154 0.0
H254 H 0.71293 0.72348 0.58971 0.0
H255 H 0.74403 0.69882 0.5767 0.0
H256 H 0.72511 0.67831 0.56337 0.0
C257 C 0.69461 0.61924 0.65432 0.0
C258 C 0.66091 0.64601 0.66889 0.0
C259 C 0.6431 0.66107 0.52396 0.0
C260 C 0.65375 0.67695 0.50967 0.0
C261 C 0.67287 0.68999 0.51928 0.0
C262 C 0.68112 0.68731 0.54256 0.0
C263 C 0.67017 0.6714 0.55657 0.0
C264 C 0.65146 0.65866 0.54716 0.0
C265 C 0.64173 0.64268 0.56454 0.0
C266 C 0.65772 0.64786 0.58595 0.0
C267 C 0.67443 0.66466 0.58123 0.0
C268 C 0.64747 0.62036 0.55481 0.0
C269 C 0.61329 0.64708 0.56883 0.0
C270 C 0.74142 0.7014 0.63132 0.0
C271 C 0.74993 0.69841 0.65454 0.0
C272 C 0.73839 0.68246 0.66822 0.0
C273 C 0.71895 0.66974 0.65902 0.0
C274 C 0.71079 0.67286 0.63579 0.0
C275 C 0.72199 0.68851 0.62236 0.0
C276 C 0.71096 0.68947 0.59798 0.0
C277 C 0.69134 0.67186 0.599 0.0
C278 C 0.69129 0.66217 0.62124 0.0
C279 C 0.73228 0.68458 0.5802 0.0
C280 C 0.69862 0.71138 0.5947 0.0
H281 H 0.61633 0.60955 0.59105 0.0
H282 H 0.64537 0.59924 0.67312 0.0
H283 H 0.64057 0.6498 0.66639 0.0
H284 H 0.67052 0.66149 0.67015 0.0
H285 H 0.66278 0.63762 0.68592 0.0
H286 H 0.69634 0.60549 0.64229 0.0
H287 H 0.6937 0.61306 0.67255 0.0
H288 H 0.71239 0.62822 0.65204 0.0
H289 H 0.62868 0.65049 0.5172 0.0
H290 H 0.68126 0.70253 0.50891 0.0
H291 H 0.69565 0.69779 0.54879 0.0
H292 H 0.66593 0.6202 0.54546 0.0
H293 H 0.63269 0.61517 0.54217 0.0
H294 H 0.64934 0.60833 0.56872 0.0
H295 H 0.60924 0.66427 0.56767 0.0
H296 H 0.60696 0.6425 0.5866 0.0
H297 H 0.60129 0.63893 0.5556 0.0
H298 H 0.5974 0.58219 0.61448 0.0
C299 C 0.62308 0.60787 0.6087 0.0
C300 C 0.76033 0.80126 0.15901 0.0
C301 C 0.74604 0.7849 0.14863 0.0
C302 C 0.75013 0.78027 0.12466 0.0
C303 C 0.78179 0.80811 0.12194 0.0
C304 C 0.77797 0.81255 0.14545 0.0
C305 C 0.79454 0.83038 0.15391 0.0
H306 H 0.8829 0.90533 0.13055 0.0
C307 C 0.80125 0.82297 0.11285 0.0
C308 C 0.80878 0.83604 0.13161 0.0
H309 H 0.84699 0.89169 0.19709 0.0
H310 H 0.82284 0.86357 0.17908 0.0
H311 H 0.89216 0.8566 0.11625 0.0
H312 H 0.83435 0.90159 0.09982 0.0
H313 H 0.83886 0.88672 0.07421 0.0
H314 H 0.86475 0.90219 0.08588 0.0
H315 H 0.8972 0.87844 0.0967 0.0
H316 H 0.88506 0.85345 0.08634 0.0
C317 C 0.81239 0.82166 0.17315 0.0
C318 C 0.77726 0.84858 0.16218 0.0
C319 C 0.82881 0.82071 0.0267 0.0
C320 C 0.84579 0.83326 0.01355 0.0
C321 C 0.85882 0.84981 0.02497 0.0
C322 C 0.8551 0.85389 0.04885 0.0
C323 C 0.83811 0.84135 0.06174 0.0
C324 C 0.82514 0.82514 0.0507 0.0
C325 C 0.80741 0.81388 0.06737 0.0
C326 C 0.81217 0.82588 0.09017 0.0
C327 C 0.83028 0.84188 0.08667 0.0
C328 C 0.81575 0.79057 0.06917 0.0
C329 C 0.78006 0.81687 0.05834 0.0
C330 C 0.87013 0.89612 0.14138 0.0
C331 C 0.86699 0.90081 0.16535 0.0
C332 C 0.84966 0.88862 0.17855 0.0
C333 C 0.83571 0.8722 0.16807 0.0
C334 C 0.83901 0.86782 0.14405 0.0
C335 C 0.85607 0.87968 0.13119 0.0
C336 C 0.85712 0.87293 0.1059 0.0
C337 C 0.83795 0.85499 0.10568 0.0
C338 C 0.82734 0.85206 0.12804 0.0
C339 C 0.88427 0.86505 0.10078 0.0
C340 C 0.84854 0.89176 0.09049 0.0
H341 H 0.77003 0.78739 0.09324 0.0
H342 H 0.75761 0.80547 0.17726 0.0
H343 H 0.76047 0.85002 0.15053 0.0
H344 H 0.78662 0.86418 0.16146 0.0
H345 H 0.7703 0.84576 0.18032 0.0
H346 H 0.81788 0.8051 0.16923 0.0
H347 H 0.80307 0.82175 0.19062 0.0
H348 H 0.83047 0.8304 0.17429 0.0
H349 H 0.81842 0.80793 0.01844 0.0
H350 H 0.87232 0.85949 0.01547 0.0
H351 H 0.86573 0.86668 0.05634 0.0
H352 H 0.83673 0.78942 0.06941 0.0
H353 H 0.80873 0.78126 0.05395 0.0
H354 H 0.80941 0.78287 0.08554 0.0
H355 H 0.77753 0.83301 0.05104 0.0
H356 H 0.76575 0.81545 0.07234 0.0
H357 H 0.77553 0.80539 0.04418 0.0
H358 H 0.73979 0.76757 0.11621 0.0
C359 C 0.76784 0.79174 0.11133 0.0
C360 C 0.1358 0.89429 0.34412 0.0
C361 C 0.11775 0.90794 0.35398 0.0
C362 C 0.11014 0.90471 0.37743 0.0
C363 C 0.13869 0.87509 0.38101 0.0
C364 C 0.14611 0.87811 0.35798 0.0
C365 C 0.16617 0.86262 0.3507 0.0
H366 H 0.24207 0.78004 0.37759 0.0
C367 C 0.15328 0.85724 0.39076 0.0
C368 C 0.16952 0.84988 0.37315 0.0
H369 H 0.237 0.8145 0.31216 0.0
H370 H 0.20501 0.8368 0.32861 0.0
H371 H 0.23974 0.822 0.41128 0.0
H372 H 0.18098 0.77887 0.38861 0.0
H373 H 0.17799 0.78355 0.41898 0.0
H374 H 0.206 0.77093 0.40798 0.0
H375 H 0.2381 0.79524 0.4216 0.0
H376 H 0.22009 0.81593 0.43531 0.0
C377 C 0.19039 0.87526 0.34429 0.0
C378 C 0.15535 0.84897 0.33045 0.0
C379 C 0.13702 0.83438 0.47481 0.0
C380 C 0.14731 0.81878 0.48946 0.0
C381 C 0.16677 0.80591 0.48049 0.0
C382 C 0.17546 0.80836 0.45724 0.0
C383 C 0.16474 0.82396 0.44277 0.0
C384 C 0.14595 0.8367 0.4518 0.0
C385 C 0.13696 0.85278 0.43439 0.0
C386 C 0.15316 0.84754 0.41324 0.0
C387 C 0.16942 0.8306 0.41807 0.0
C388 C 0.14306 0.87506 0.44432 0.0
C389 C 0.10851 0.84855 0.42962 0.0
C390 C 0.23421 0.79247 0.36685 0.0
C391 C 0.24211 0.79525 0.34335 0.0
C392 C 0.23106 0.8116 0.33007 0.0
C393 C 0.21252 0.8247 0.33974 0.0
C394 C 0.20476 0.82166 0.36308 0.0
C395 C 0.21558 0.8058 0.37631 0.0
C396 C 0.20497 0.80512 0.40092 0.0
C397 C 0.18599 0.82309 0.40019 0.0
C398 C 0.18599 0.8327 0.37789 0.0
C399 C 0.22677 0.80966 0.41836 0.0
C400 C 0.19187 0.78347 0.40454 0.0
H401 H 0.11378 0.8869 0.40863 0.0
H402 H 0.14221 0.89647 0.32622 0.0
H403 H 0.13496 0.84542 0.3334 0.0
H404 H 0.16443 0.83338 0.32904 0.0
H405 H 0.15703 0.85729 0.31335 0.0
H406 H 0.19236 0.88956 0.3555 0.0
H407 H 0.18993 0.88057 0.32571 0.0
H408 H 0.20793 0.8663 0.34739 0.0
H409 H 0.12243 0.84484 0.4812 0.0
H410 H 0.17501 0.79371 0.49134 0.0
H411 H 0.19015 0.79799 0.4514 0.0
H412 H 0.1603 0.87482 0.45553 0.0
H413 H 0.12727 0.88106 0.45525 0.0
H414 H 0.14747 0.88672 0.43046 0.0
H415 H 0.10437 0.83131 0.4295 0.0
H416 H 0.10224 0.8542 0.41225 0.0
H417 H 0.09652 0.85584 0.4434 0.0
H418 H 0.09605 0.9148 0.38536 0.0
C419 C 0.12043 0.88841 0.39092 0.0
C420 C 0.26584 0.68365 0.84808 0.0
C421 C 0.25164 0.69995 0.85839 0.0
C422 C 0.25511 0.70424 0.88252 0.0
C423 C 0.28632 0.67639 0.88548 0.0
C424 C 0.28295 0.67218 0.86185 0.0
C425 C 0.29954 0.6545 0.85348 0.0
H426 H 0.3872 0.57992 0.8772 0.0
C427 C 0.30551 0.66154 0.89472 0.0
C428 C 0.3133 0.64868 0.87596 0.0
H429 H 0.35201 0.59391 0.81047 0.0
H430 H 0.32783 0.62167 0.82852 0.0
H431 H 0.39637 0.62877 0.89208 0.0
H432 H 0.33798 0.58344 0.90784 0.0
H433 H 0.34313 0.59797 0.93365 0.0
H434 H 0.36854 0.58254 0.92146 0.0
H435 H 0.40121 0.60679 0.91141 0.0
H436 H 0.38902 0.63156 0.92198 0.0
C437 C 0.31783 0.66345 0.83465 0.0
C438 C 0.28223 0.63632 0.84472 0.0
C439 C 0.33208 0.66408 0.98104 0.0
C440 C 0.34946 0.65217 0.99431 0.0
C441 C 0.36247 0.6356 0.98309 0.0
C442 C 0.35876 0.63121 0.95924 0.0
C443 C 0.34176 0.64342 0.94616 0.0
C444 C 0.32857 0.65944 0.95707 0.0
C445 C 0.31105 0.67053 0.94023 0.0
C446 C 0.31611 0.65861 0.9175 0.0
C447 C 0.33419 0.64278 0.92114 0.0
C448 C 0.31939 0.69394 0.93856 0.0
C449 C 0.28358 0.66722 0.94895 0.0
C450 C 0.37453 0.58911 0.86637 0.0
C451 C 0.3716 0.58459 0.8423 0.0
C452 C 0.35448 0.59679 0.82907 0.0
C453 C 0.3405 0.61302 0.83958 0.0
C454 C 0.34356 0.61722 0.86367 0.0
C455 C 0.36043 0.60538 0.8766 0.0
C456 C 0.36124 0.61204 0.90196 0.0
C457 C 0.34209 0.62983 0.90213 0.0
C458 C 0.33176 0.63279 0.87967 0.0
C459 C 0.38835 0.62011 0.90739 0.0
C460 C 0.35248 0.59308 0.91719 0.0
H461 H 0.27398 0.69664 0.91429 0.0
H462 H 0.26397 0.68006 0.82957 0.0
H463 H 0.26512 0.6348 0.85597 0.0
H464 H 0.29135 0.62071 0.84558 0.0
H465 H 0.27577 0.63921 0.82645 0.0
H466 H 0.32336 0.68001 0.83881 0.0
H467 H 0.30888 0.66344 0.817 0.0
H468 H 0.33588 0.65481 0.83375 0.0
H469 H 0.32177 0.67695 0.98899 0.0
H470 H 0.37548 0.62579 0.99285 0.0
H471 H 0.36936 0.61842 0.95192 0.0
H472 H 0.34037 0.69533 0.93875 0.0
H473 H 0.31201 0.7032 0.95362 0.0
H474 H 0.31344 0.70155 0.92205 0.0
H475 H 0.28103 0.6511 0.95637 0.0
H476 H 0.26947 0.6683 0.93473 0.0
H477 H 0.27877 0.67874 0.96293 0.0
H478 H 0.24425 0.71647 0.89106 0.0
C479 C 0.2723 0.69259 0.89606 0.0
Zn480 Zn 0.01727 0.14195 0.28807 0.0
Zn481 Zn 0.97605 0.13952 0.2056 0.0
Zn482 Zn 0.9967 0.1416 0.24648 0.0
C483 C 0.02135 0.16094 0.19854 0.0
C484 C 0.98114 0.09809 0.21866 0.0
O485 O 0.96954 0.15728 0.27141 0.0
O486 O 0.9905 0.15713 0.30502 0.0
C487 C 0.05044 0.16406 0.25903 0.0
O488 O 0.02346 0.15693 0.2207 0.0
O489 O 0.00144 0.15576 0.18772 0.0
O490 O 0.97473 0.10866 0.20089 0.0
O491 O 0.9897 0.10765 0.23709 0.0
O492 O 0.04815 0.15785 0.27996 0.0
O493 O 0.03329 0.1596 0.24364 0.0
O494 O 0.00442 0.10835 0.25763 0.0
O495 O 0.02045 0.11119 0.29336 0.0
C496 C 0.01378 0.09979 0.27626 0.0
O497 O 0.95973 0.15899 0.24839 0.0
O498 O 0.94387 0.15346 0.21296 0.0
C499 C 0.97088 0.16169 0.29353 0.0
C500 C 0.94182 0.16135 0.23319 0.0
Zn501 Zn 0.51765 0.35054 0.70444 0.0
Zn502 Zn 0.48549 0.34986 0.78954 0.0
Zn503 Zn 0.50128 0.34925 0.74678 0.0
C504 C 0.48829 0.39174 0.77725 0.0
C505 C 0.44806 0.32852 0.76444 0.0
O506 O 0.53827 0.33154 0.74583 0.0
O507 O 0.55012 0.33617 0.70898 0.0
C508 C 0.5149 0.39223 0.71694 0.0
O509 O 0.49504 0.38285 0.75783 0.0
O510 O 0.48402 0.38058 0.79517 0.0
O511 O 0.45294 0.33537 0.78474 0.0
O512 O 0.46391 0.33176 0.74752 0.0
O513 O 0.51926 0.38127 0.69892 0.0
O514 O 0.50794 0.38308 0.73619 0.0
O515 O 0.47196 0.33351 0.72392 0.0
O516 O 0.49042 0.33433 0.68911 0.0
C517 C 0.4718 0.32919 0.70175 0.0
O518 O 0.53054 0.33358 0.76949 0.0
O519 O 0.51284 0.33398 0.80469 0.0
C520 C 0.55438 0.32864 0.72908 0.0
C521 C 0.53115 0.32916 0.79163 0.0
Zn522 Zn 0.01989 0.85458 0.79304 0.0
Zn523 Zn 0.97663 0.84462 0.68465 0.0
Zn524 Zn 0.00287 0.8474 0.75342 0.0
C525 C 0.98395 0.88579 0.71204 0.0
C526 C 0.95983 0.82622 0.7345 0.0
O527 O 0.04105 0.83152 0.75563 0.0
O528 O 0.05382 0.84178 0.79073 0.0
C529 C 0.01135 0.89401 0.7721 0.0
O530 O 0.9918 0.87656 0.73125 0.0
O531 O 0.97816 0.87583 0.69311 0.0
O532 O 0.97298 0.8354 0.71893 0.0
O533 O 0.96806 0.82828 0.75543 0.0
O534 O 0.01758 0.88571 0.79139 0.0
O535 O 0.00507 0.8822 0.75464 0.0
O536 O 0.97474 0.83316 0.77864 0.0
O537 O 0.99454 0.83923 0.81214 0.0
C538 C 0.97585 0.83163 0.80121 0.0
O539 O 0.03158 0.83019 0.7331 0.0
O540 O 0.00052 0.83533 0.70991 0.0
C541 C 0.05788 0.83158 0.77209 0.0
C542 C 0.02303 0.82918 0.71222 0.0
Zn543 Zn 0.51158 0.64323 0.21044 0.0
Zn544 Zn 0.47673 0.6324 0.29472 0.0
Zn545 Zn 0.49357 0.63915 0.25289 0.0
C546 C 0.52377 0.65164 0.30043 0.0
C547 C 0.47888 0.59299 0.2759 0.0
O548 O 0.46366 0.65516 0.23138 0.0
O549 O 0.48178 0.65665 0.19639 0.0
C550 C 0.54453 0.66568 0.23906 0.0
O551 O 0.52195 0.65319 0.27789 0.0
O552 O 0.5065 0.64267 0.31205 0.0
O553 O 0.47172 0.60167 0.29464 0.0
O554 O 0.48803 0.60432 0.25901 0.0
O555 O 0.54064 0.66167 0.21768 0.0
O556 O 0.52955 0.65827 0.25501 0.0
O557 O 0.50223 0.60711 0.23857 0.0
O558 O 0.5181 0.61305 0.20327 0.0
C559 C 0.51216 0.60023 0.21934 0.0
O560 O 0.45631 0.65596 0.25529 0.0
O561 O 0.44638 0.65029 0.29247 0.0
C562 C 0.46297 0.66017 0.2094 0.0
C563 C 0.44128 0.65865 0.27292 0.0
H564 H 0.11182 0.94862 0.3684 0.0
H565 H 0.09208 0.97773 0.34716 0.0
H566 H 0.07971 0.93713 0.28749 0.0
H567 H 0.09952 0.9077 0.30876 0.0
H568 H 0.10678 0.99347 0.29748 0.0
H569 H 0.00795 0.96416 0.30913 0.0
H570 H 0.03283 0.9566 0.32912 0.0
H571 H 0.03234 0.94619 0.29988 0.0
C572 C 0.10488 0.94584 0.35077 0.0
C573 C 0.10705 0.92581 0.34032 0.0
C574 C 0.09372 0.96251 0.33863 0.0
C575 C 0.0843 0.95952 0.31586 0.0
C576 C 0.08678 0.93969 0.30511 0.0
H577 H 0.02893 0.07298 0.24119 0.0
H578 H 0.0439 0.03651 0.24596 0.0
C579 C 0.0982 0.92297 0.31722 0.0
C580 C 0.0716 0.97729 0.30381 0.0
H581 H 0.01326 -0.00155 0.29398 0.0
C582 C 0.08636 -0.00558 0.29618 0.0
C583 C 0.04496 0.97845 0.30235 0.0
C584 C 0.0284 0.96046 0.31056 0.0
C585 C 0.07513 0.01308 0.28799 0.0
C586 C 0.04846 0.01459 0.28743 0.0
C587 C 0.03369 -0.00286 0.29422 0.0
C588 C 0.03587 0.03511 0.28318 0.0
C589 C 0.09181 0.03152 0.28128 0.0
C590 C 0.0256 0.04603 0.3023 0.0
C591 C 0.01714 0.06672 0.29963 0.0
C592 C 0.01847 0.07683 0.27771 0.0
C593 C 0.0274 0.06547 0.25822 0.0
C594 C 0.0361 0.04473 0.26095 0.0
H595 H 0.11214 0.02837 0.28462 0.0
H596 H 0.08938 0.03502 0.26233 0.0
H597 H 0.08624 0.04581 0.29127 0.0
H598 H 0.02528 0.0389 0.31959 0.0
H599 H 0.01036 0.0751 0.31495 0.0
H600 H 0.42099 0.57314 0.84977 0.0
H601 H 0.44343 0.54294 0.83325 0.0
H602 H 0.37741 0.52618 0.79277 0.0
H603 H 0.35454 0.55589 0.80979 0.0
H604 H 0.39624 0.49287 0.81696 0.0
H605 H 0.47401 0.53262 0.76868 0.0
H606 H 0.47173 0.54079 0.79878 0.0
H607 H 0.44634 0.54652 0.77879 0.0
C608 C 0.41122 0.56305 0.83733 0.0
C609 C 0.3859 0.56698 0.83116 0.0
C610 C 0.42423 0.54595 0.82762 0.0
C611 C 0.41229 0.53247 0.81143 0.0
C612 C 0.38712 0.53649 0.80503 0.0
H613 H 0.47093 0.41827 0.74271 0.0
H614 H 0.45433 0.45412 0.74825 0.0
C615 C 0.3741 0.55357 0.81471 0.0
C616 C 0.42523 0.51319 0.80275 0.0
H617 H 0.4787 0.49543 0.77543 0.0
C618 C 0.4141 0.49349 0.80762 0.0
C619 C 0.4485 0.51394 0.79043 0.0
C620 C 0.46075 0.53461 0.78364 0.0
C621 C 0.42599 0.47459 0.80129 0.0
C622 C 0.44972 0.47534 0.7899 0.0
C623 C 0.46056 0.49495 0.78429 0.0
C624 C 0.46387 0.45568 0.78514 0.0
C625 C 0.41337 0.45384 0.80723 0.0
C626 C 0.47552 0.44512 0.80381 0.0
C627 C 0.48506 0.42482 0.80069 0.0
C628 C 0.48322 0.41467 0.77879 0.0
C629 C 0.47297 0.4258 0.75968 0.0
C630 C 0.46338 0.44622 0.76285 0.0
H631 H 0.39334 0.45591 0.81259 0.0
H632 H 0.41405 0.44296 0.79196 0.0
H633 H 0.42369 0.44627 0.82193 0.0
H634 H 0.47609 0.45219 0.82113 0.0
H635 H 0.49286 0.41667 0.81573 0.0
H636 H 0.56964 0.57679 0.64733 0.0
H637 H 0.55102 0.54602 0.66661 0.0
H638 H 0.62372 0.53026 0.6958 0.0
H639 H 0.64274 0.56067 0.67582 0.0
H640 H 0.60233 0.49708 0.67413 0.0
H641 H 0.53141 0.53233 0.73344 0.0
H642 H 0.52804 0.54151 0.70383 0.0
H643 H 0.55637 0.54772 0.72001 0.0
C644 C 0.5817 0.56686 0.65795 0.0
C645 C 0.60777 0.57117 0.65984 0.0
C646 C 0.5709 0.54941 0.66928 0.0
C647 C 0.58583 0.53593 0.683 0.0
C648 C 0.61174 0.54052 0.6855 0.0
H649 H 0.53214 0.41875 0.75181 0.0
H650 H 0.54843 0.45494 0.7467 0.0
C651 C 0.62258 0.55799 0.67414 0.0
C652 C 0.57497 0.51592 0.69253 0.0
H653 H 0.52547 0.49543 0.72409 0.0
C654 C 0.58578 0.49679 0.68537 0.0
C655 C 0.55343 0.51543 0.70736 0.0
C656 C 0.5418 0.53536 0.71681 0.0
C657 C 0.57503 0.47729 0.69167 0.0
C658 C 0.55268 0.47682 0.70529 0.0
C659 C 0.54245 0.49585 0.71342 0.0
C660 C 0.53912 0.45663 0.70977 0.0
C661 C 0.58738 0.45724 0.68326 0.0
C662 C 0.52757 0.44602 0.69098 0.0
C663 C 0.51819 0.42555 0.69387 0.0
C664 C 0.52 0.41525 0.71567 0.0
C665 C 0.53014 0.42638 0.73491 0.0
C666 C 0.53958 0.44699 0.73198 0.0
H667 H 0.60724 0.46001 0.67766 0.0
H668 H 0.58716 0.44504 0.69726 0.0
H669 H 0.57668 0.45094 0.668 0.0
H670 H 0.52684 0.45325 0.67376 0.0
H671 H 0.51044 0.41742 0.67873 0.0
H672 H 0.91644 0.91248 0.15804 0.0
H673 H 0.93854 0.94356 0.17332 0.0
H674 H 0.87231 0.9605 0.21306 0.0
H675 H 0.84975 0.92986 0.1972 0.0
H676 H 0.89014 0.99305 0.18718 0.0
H677 H 0.9694 0.95771 0.23674 0.0
H678 H 0.96727 0.94808 0.20716 0.0
H679 H 0.94209 0.94256 0.22754 0.0
C680 C 0.90657 0.92277 0.1701 0.0
C681 C 0.88124 0.91867 0.1763 0.0
C682 C 0.91939 0.94038 0.17911 0.0
C683 C 0.90726 0.95421 0.19466 0.0
C684 C 0.88216 0.94994 0.20127 0.0
H685 H 0.96748 0.07221 0.25528 0.0
H686 H 0.95149 0.03576 0.25226 0.0
C687 C 0.86931 0.93233 0.19226 0.0
C688 C 0.91983 0.97419 0.20212 0.0
H689 H 0.97357 -0.00543 0.2271 0.0
C690 C 0.90821 0.99332 0.1962 0.0
C691 C 0.94337 0.97462 0.21403 0.0
C692 C 0.95616 0.95464 0.22196 0.0
C693 C 0.91987 0.01279 0.20101 0.0
C694 C 0.94392 0.01319 0.21184 0.0
C695 C 0.95521 0.99416 0.21861 0.0
C696 C 0.95787 0.03336 0.21485 0.0
C697 C 0.90661 0.03287 0.19406 0.0
C698 C 0.96763 0.04364 0.19502 0.0
C699 C 0.97682 0.06428 0.19671 0.0
C700 C 0.97656 0.07502 0.21831 0.0
C701 C 0.96828 0.06422 0.23849 0.0
C702 C 0.95903 0.04346 0.23677 0.0
H703 H 0.88627 0.03011 0.19015 0.0
H704 H 0.9082 0.04486 0.20821 0.0
H705 H 0.91572 0.03946 0.17809 0.0
H706 H 0.96696 0.03606 0.17798 0.0
H707 H 0.9831 0.07218 0.18087 0.0
H708 H 0.91635 0.07184 0.65148 0.0
H709 H 0.9387 0.04054 0.66564 0.0
H710 H 0.86964 0.017 0.69638 0.0
H711 H 0.84705 0.04814 0.6821 0.0
H712 H 0.94189 0.02201 0.71476 0.0
H713 H 0.89506 0.9709 0.64791 0.0
H714 H 0.89657 -0.00072 0.64509 0.0
H715 H 0.87484 0.98737 0.6654 0.0
C716 C 0.90591 0.06003 0.6613 0.0
C717 C 0.87985 0.06243 0.6655 0.0
C718 C 0.91876 0.04224 0.66953 0.0
C719 C 0.90579 0.02642 0.68194 0.0
C720 C 0.87997 0.02901 0.68677 0.0
H721 H 0.96168 0.90998 0.74615 0.0
H722 H 0.94476 0.94577 0.74114 0.0
C723 C 0.86713 0.04687 0.67868 0.0
C724 C 0.91892 0.00664 0.68856 0.0
H725 H 0.92262 0.95435 0.67451 0.0
C726 C 0.93766 0.00718 0.70605 0.0
C727 C 0.91348 0.98738 0.67703 0.0
C728 C 0.89403 0.98605 0.65769 0.0
C729 C 0.95101 0.98885 0.71236 0.0
C730 C 0.94548 0.9696 0.70085 0.0
C731 C 0.92677 0.96913 0.68337 0.0
C732 C 0.95935 0.94978 0.7059 0.0
C733 C 0.97109 0.99012 0.73106 0.0
C734 C 0.97373 0.94043 0.68808 0.0
C735 C 0.98345 0.92016 0.69096 0.0
C736 C 0.97902 0.90876 0.71174 0.0
C737 C 0.96584 0.91856 0.73015 0.0
C738 C 0.95608 0.93896 0.72725 0.0
H739 H 0.97574 0.00669 0.7359 0.0
H740 H 0.96414 0.9818 0.74694 0.0
H741 H 0.9886 0.98211 0.72517 0.0
H742 H 0.97647 0.94848 0.67147 0.0
H743 H 0.99342 0.91296 0.67643 0.0
H744 H 0.64386 0.43364 0.18843 0.0
H745 H 0.62157 0.46436 0.20384 0.0
H746 H 0.55539 0.44703 0.16388 0.0
H747 H 0.5773 0.41589 0.14891 0.0
H748 H 0.60353 0.49687 0.17729 0.0
H749 H 0.52519 0.46071 0.22824 0.0
H750 H 0.55266 0.44601 0.2191 0.0
H751 H 0.52745 0.451 0.19869 0.0
C752 C 0.62438 0.43607 0.1833 0.0
C753 C 0.6124 0.42224 0.16741 0.0
C754 C 0.6117 0.45372 0.19205 0.0
C755 C 0.58668 0.45788 0.18529 0.0
C756 C 0.5745 0.44395 0.16974 0.0
H757 H 0.51428 0.57862 0.17822 0.0
H758 H 0.53076 0.54314 0.1717 0.0
C759 C 0.58719 0.42629 0.16093 0.0
C760 C 0.57421 0.47775 0.19284 0.0
H761 H 0.52169 0.49763 0.2199 0.0
C762 C 0.58575 0.49699 0.18677 0.0
C763 C 0.5511 0.47795 0.20543 0.0
C764 C 0.53846 0.45782 0.21347 0.0
C765 C 0.57451 0.51637 0.19229 0.0
C766 C 0.55087 0.51658 0.20391 0.0
C767 C 0.53966 0.4974 0.21072 0.0
C768 C 0.53751 0.53671 0.20845 0.0
C769 C 0.58803 0.53654 0.18556 0.0
C770 C 0.53486 0.54452 0.23139 0.0
C771 C 0.52544 0.56489 0.23518 0.0
C772 C 0.51826 0.57761 0.21609 0.0
C773 C 0.51972 0.56923 0.19328 0.0
C774 C 0.52914 0.54897 0.18952 0.0
H775 H 0.60841 0.53385 0.182 0.0
H776 H 0.57933 0.54302 0.16938 0.0
H777 H 0.5863 0.54857 0.19965 0.0
H778 H 0.54123 0.53529 0.24624 0.0
H779 H 0.52508 0.57107 0.2529 0.0
H780 H 0.37758 0.43872 0.35364 0.0
H781 H 0.39928 0.46848 0.33491 0.0
H782 H 0.41646 0.42957 0.275 0.0
H783 H 0.39489 0.39953 0.29374 0.0
H784 H 0.45872 0.45564 0.29417 0.0
H785 H 0.37145 0.50097 0.27597 0.0
H786 H 0.37378 0.49123 0.30553 0.0
H787 H 0.37115 0.47289 0.28157 0.0
C788 C 0.38613 0.43641 0.33656 0.0
C789 C 0.38446 0.41676 0.32517 0.0
C790 C 0.39835 0.45348 0.3258 0.0
C791 C 0.40922 0.45127 0.30347 0.0
C792 C 0.40804 0.43161 0.29218 0.0
H793 H 0.46075 0.57033 0.23843 0.0
H794 H 0.44681 0.53314 0.2391 0.0
C795 C 0.39561 0.41453 0.30286 0.0
C796 C 0.42178 0.46966 0.29217 0.0
H797 H 0.41047 0.52021 0.27451 0.0
C798 C 0.44817 0.46964 0.28945 0.0
C799 C 0.40795 0.48776 0.28561 0.0
C800 C 0.37948 0.48824 0.28708 0.0
C801 C 0.46121 0.48784 0.2819 0.0
C802 C 0.44749 0.50644 0.27711 0.0
C803 C 0.42099 0.50595 0.27825 0.0
C804 C 0.46013 0.52727 0.27442 0.0
C805 C 0.48962 0.48729 0.2798 0.0
C806 C 0.47266 0.53609 0.29381 0.0
C807 C 0.48021 0.55722 0.29357 0.0
C808 C 0.47567 0.56991 0.27382 0.0
C809 C 0.46465 0.56078 0.25377 0.0
C810 C 0.45666 0.53961 0.25417 0.0
H811 H 0.49652 0.47093 0.27719 0.0
H812 H 0.49626 0.49728 0.26498 0.0
H813 H 0.49815 0.49352 0.29622 0.0
H814 H 0.47517 0.52699 0.30975 0.0
H815 H 0.4886 0.56392 0.30926 0.0
H816 H 0.11833 0.04648 0.84976 0.0
H817 H 0.09455 0.01736 0.83183 0.0
H818 H 0.07941 0.05587 0.77116 0.0
H819 H 0.10315 0.08524 0.789 0.0
H820 H 0.0351 0.02951 0.80054 0.0
H821 H 0.11769 0.98651 0.76399 0.0
H822 H 0.12086 -0.00171 0.79267 0.0
H823 H 0.11755 0.01489 0.76739 0.0
C824 C 0.10984 0.04884 0.83266 0.0
C825 C 0.11262 0.06822 0.82083 0.0
C826 C 0.09639 0.03215 0.8224 0.0
C827 C 0.08533 0.03449 0.80018 0.0
C828 C 0.08791 0.05377 0.7883 0.0
H829 H 0.02842 0.91793 0.73489 0.0
H830 H 0.04198 0.95511 0.73667 0.0
C831 C 0.10157 0.07046 0.79847 0.0
C832 C 0.07084 0.01673 0.78974 0.0
H833 H 0.07858 0.96827 0.76474 0.0
C834 C 0.04449 0.01624 0.79234 0.0
C835 C 0.08312 -0.0004 0.77886 0.0
C836 C 0.11137 -0.00029 0.77536 0.0
C837 C 0.03019 -0.0015 0.78546 0.0
C838 C 0.04264 0.98071 0.77582 0.0
C839 C 0.06889 0.98182 0.772 0.0
C840 C 0.02971 0.95991 0.77256 0.0
C841 C 0.00201 -0.00099 0.7893 0.0
C842 C 0.01752 0.9504 0.79174 0.0
C843 C 0.00944 0.92943 0.79057 0.0
C844 C 0.01363 0.91727 0.77032 0.0
C845 C 0.0245 0.92702 0.75056 0.0
C846 C 0.03249 0.9482 0.75168 0.0
H847 H 0.99441 0.01483 0.78485 0.0
H848 H 0.99186 0.98697 0.77877 0.0
H849 H -0.00202 -0.00385 0.80816 0.0
H850 H 0.01562 0.95875 0.80823 0.0
H851 H 0.00129 0.9223 0.80615 0.0
H852 H 0.13866 0.19228 0.00591 0.0
H853 H 0.12496 0.19743 0.0467 0.0
H854 H 0.13144 0.13054 0.05916 0.0
H855 H 0.14486 0.12533 0.01857 0.0
H856 H 0.08542 0.14512 0.07089 0.0
H857 H 0.15877 0.19655 0.11112 0.0
H858 H 0.14604 0.20655 0.0841 0.0
H859 H 0.16384 0.18246 0.08396 0.0
C860 C 0.13775 0.17877 0.01754 0.0
C861 C 0.14262 0.15837 0.00892 0.0
C862 C 0.12998 0.18173 0.0409 0.0
C863 C 0.12728 0.16438 0.05616 0.0
C864 C 0.13333 0.14418 0.04781 0.0
H865 H 0.07119 0.14922 0.19981 0.0
H866 H 0.10093 0.15259 0.16674 0.0
C867 C 0.14092 0.14121 0.02453 0.0
C868 C 0.1155 0.16672 0.07984 0.0
H869 H 0.12052 0.19176 0.13301 0.0
C870 C 0.09329 0.1552 0.08448 0.0
C871 C 0.12571 0.17983 0.0977 0.0
C872 C 0.15003 0.19192 0.09413 0.0
C873 C 0.08084 0.15665 0.10617 0.0
C874 C 0.09061 0.17015 0.12379 0.0
C875 C 0.11303 0.18148 0.11944 0.0
C876 C 0.07673 0.17295 0.14627 0.0
C877 C 0.05704 0.14383 0.11006 0.0
C878 C 0.054 0.18422 0.14627 0.0
C879 C 0.03707 0.18223 0.16497 0.0
C880 C 0.04261 0.16908 0.18417 0.0
C881 C 0.06658 0.15966 0.18539 0.0
C882 C 0.08351 0.16149 0.16644 0.0
H883 H 0.05433 0.13156 0.09633 0.0
H884 H 0.0575 0.13602 0.1275 0.0
H885 H 0.04045 0.15447 0.10972 0.0
H886 H 0.04841 0.19315 0.13092 0.0
H887 H 0.0187 0.1896 0.16352 0.0
H888 H 0.31913 0.31937 0.52424 0.0
H889 H 0.32916 0.31459 0.56609 0.0
H890 H 0.40776 0.32719 0.55166 0.0
H891 H 0.39819 0.3314 0.51005 0.0
H892 H 0.37075 0.28595 0.58893 0.0
H893 H 0.38164 0.37228 0.60274 0.0
H894 H 0.3631 0.36123 0.57902 0.0
H895 H 0.39698 0.36205 0.57698 0.0
C896 C 0.33861 0.32079 0.52992 0.0
C897 C 0.35778 0.3261 0.51373 0.0
C898 C 0.34427 0.31814 0.55386 0.0
C899 C 0.36915 0.32083 0.562 0.0
C900 C 0.38838 0.32533 0.5458 0.0
H901 H 0.47154 0.29909 0.66827 0.0
H902 H 0.43928 0.29412 0.63828 0.0
C903 C 0.38281 0.32786 0.52199 0.0
C904 C 0.37543 0.31969 0.58741 0.0
H905 H 0.39979 0.34986 0.63172 0.0
C906 C 0.37661 0.29994 0.59851 0.0
C907 C 0.3827 0.33797 0.60003 0.0
C908 C 0.38089 0.35964 0.58922 0.0
C909 C 0.38654 0.29788 0.62136 0.0
C910 C 0.39576 0.31601 0.63326 0.0
C911 C 0.39281 0.33591 0.62272 0.0
C912 C 0.41189 0.31464 0.6547 0.0
C913 C 0.38772 0.27623 0.63226 0.0
C914 C 0.40707 0.32723 0.67457 0.0
C915 C 0.42563 0.32996 0.69201 0.0
C916 C 0.4494 0.32044 0.68952 0.0
C917 C 0.45329 0.30645 0.67074 0.0
C918 C 0.43476 0.30356 0.65355 0.0
H919 H 0.37206 0.26602 0.62576 0.0
H920 H 0.40579 0.26864 0.62724 0.0
H921 H 0.38673 0.27704 0.65171 0.0
H922 H 0.38964 0.33605 0.67581 0.0
H923 H 0.42229 0.34107 0.70612 0.0
H924 H 0.6379 0.2948 0.98753 0.0
H925 H 0.62557 0.28791 0.9466 0.0
H926 H 0.63961 0.35319 0.92943 0.0
H927 H 0.65171 0.3602 0.97022 0.0
H928 H 0.58371 0.31268 0.9248 0.0
H929 H 0.67372 0.31767 0.87484 0.0
H930 H 0.67255 0.31096 0.90568 0.0
H931 H 0.66855 0.33784 0.89656 0.0
C932 C 0.63887 0.30756 0.9749 0.0
C933 C 0.64568 0.32806 0.9821 0.0
C934 C 0.63179 0.30362 0.95155 0.0
C935 C 0.63193 0.31999 0.93491 0.0
C936 C 0.6397 0.34026 0.94187 0.0
H937 H 0.57441 0.35094 0.79944 0.0
H938 H 0.60235 0.34519 0.8331 0.0
C939 C 0.64643 0.34427 0.96522 0.0
C940 C 0.62124 0.31663 0.91104 0.0
H941 H 0.63568 0.31826 0.85254 0.0
C942 C 0.59508 0.31354 0.90898 0.0
C943 C 0.63611 0.31811 0.89048 0.0
C944 C 0.66435 0.32119 0.89184 0.0
C945 C 0.58317 0.31275 0.88694 0.0
C946 C 0.59798 0.31424 0.8662 0.0
C947 C 0.62432 0.31687 0.86831 0.0
C948 C 0.58604 0.3149 0.84244 0.0
C949 C 0.55463 0.31159 0.88626 0.0
C950 C 0.56898 0.29906 0.83524 0.0
C951 C 0.55279 0.3025 0.81617 0.0
C952 C 0.55408 0.32145 0.80344 0.0
C953 C 0.57338 0.33601 0.80869 0.0
C954 C 0.58919 0.33281 0.82812 0.0
H955 H 0.54609 0.31611 0.90334 0.0
H956 H 0.54689 0.3221 0.87245 0.0
H957 H 0.54863 0.29515 0.88236 0.0
H958 H 0.56674 0.28479 0.84549 0.0
H959 H 0.53784 0.29116 0.81265 0.0
H960 H 0.8187 0.16831 0.47246 0.0
H961 H 0.82912 0.17386 0.43078 0.0
H962 H 0.90779 0.16299 0.44587 0.0
H963 H 0.8978 0.15798 0.48732 0.0
H964 H 0.87241 0.20376 0.40889 0.0
H965 H 0.8807 0.11739 0.39399 0.0
H966 H 0.86158 0.1284 0.41722 0.0
H967 H 0.89533 0.12741 0.42031 0.0
C968 C 0.83827 0.16749 0.46697 0.0
C969 C 0.85735 0.16239 0.48325 0.0
C970 C 0.84416 0.17057 0.44313 0.0
C971 C 0.86919 0.16858 0.43522 0.0
C972 C 0.88832 0.16436 0.45156 0.0
H973 H 0.97239 0.19025 0.32871 0.0
H974 H 0.94088 0.19477 0.35941 0.0
C975 C 0.88252 0.16138 0.47526 0.0
C976 C 0.8757 0.16993 0.40988 0.0
H977 H 0.89908 0.1399 0.3652 0.0
C978 C 0.87776 0.18979 0.39911 0.0
C979 C 0.88235 0.1517 0.39704 0.0
C980 C 0.87974 0.12995 0.40758 0.0
C981 C 0.88786 0.19195 0.37633 0.0
C982 C 0.89636 0.17381 0.36417 0.0
C983 C 0.89262 0.15385 0.3744 0.0
C984 C 0.91244 0.17518 0.34269 0.0
C985 C 0.88997 0.21371 0.36578 0.0
C986 C 0.90684 0.16319 0.32249 0.0
C987 C 0.92496 0.16072 0.30465 0.0
C988 C 0.9491 0.16986 0.30703 0.0
C989 C 0.95387 0.18315 0.32632 0.0
C990 C 0.93578 0.18579 0.34391 0.0
H991 H 0.87486 0.2242 0.37254 0.0
H992 H 0.90843 0.22081 0.37078 0.0
H993 H 0.88878 0.21318 0.34632 0.0
H994 H 0.88904 0.15472 0.3212 0.0
H995 H 0.9209 0.15015 0.29016 0.0
H996 H 0.85408 0.79526 0.99158 0.0
H997 H 0.86922 0.78972 0.95124 0.0
H998 H 0.86448 0.85656 0.93813 0.0
H999 H 0.84919 0.8622 0.97813 0.0
H1000 H 0.84966 0.80636 0.90143 0.0
H1001 H 0.94233 0.83653 0.93398 0.0
H1002 H 0.91847 0.82597 0.95345 0.0
H1003 H 0.9149 0.85188 0.94123 0.0
C1004 C 0.85561 0.80869 0.97989 0.0
C1005 C 0.85078 0.82921 0.98818 0.0
C1006 C 0.86427 0.8055 0.95687 0.0
C1007 C 0.8681 0.82276 0.94178 0.0
C1008 C 0.86173 0.84305 0.94952 0.0
H1009 H 0.92557 0.8416 0.80054 0.0
H1010 H 0.89602 0.83591 0.83328 0.0
C1011 C 0.85316 0.84625 0.97245 0.0
C1012 C 0.88169 0.82015 0.91915 0.0
H1013 H 0.93866 0.83044 0.89341 0.0
C1014 C 0.86916 0.81148 0.89961 0.0
C1015 C 0.90715 0.82673 0.91691 0.0
C1016 C 0.92168 0.83568 0.93749 0.0
C1017 C 0.88145 0.80956 0.87772 0.0
C1018 C 0.90679 0.8166 0.8754 0.0
C1019 C 0.91926 0.82499 0.89512 0.0
C1020 C 0.9212 0.81566 0.85294 0.0
C1021 C 0.86738 0.79986 0.85735 0.0
C1022 C 0.94475 0.80556 0.85258 0.0
C1023 C 0.96162 0.80901 0.83411 0.0
C1024 C 0.95522 0.82241 0.81543 0.0
C1025 C 0.93075 0.83089 0.81454 0.0
C1026 C 0.91388 0.82766 0.83329 0.0
H1027 H 0.85076 0.7905 0.86331 0.0
H1028 H 0.86051 0.81262 0.84567 0.0
H1029 H 0.87998 0.78951 0.8469 0.0
H1030 H 0.95085 0.79623 0.86746 0.0
H1031 H 0.98045 0.80244 0.8353 0.0
H1032 H 0.68192 0.68696 0.47047 0.0
H1033 H 0.66726 0.69039 0.42987 0.0
H1034 H 0.59123 0.67564 0.452 0.0
H1035 H 0.60539 0.67325 0.49258 0.0
H1036 H 0.64734 0.6615 0.40199 0.0
H1037 H 0.5777 0.72531 0.41071 0.0
H1038 H 0.60024 0.71944 0.43358 0.0
H1039 H 0.57094 0.70484 0.43152 0.0
C1040 C 0.66197 0.68492 0.46679 0.0
C1041 C 0.64488 0.67982 0.48493 0.0
C1042 C 0.65364 0.68676 0.4435 0.0
C1043 C 0.62802 0.68368 0.43781 0.0
C1044 C 0.61095 0.67868 0.4559 0.0
H1045 H 0.54984 0.62743 0.3301 0.0
H1046 H 0.58085 0.63859 0.35909 0.0
C1047 C 0.61921 0.67694 0.47914 0.0
C1048 C 0.61927 0.684 0.4129 0.0
H1049 H 0.57083 0.70098 0.37811 0.0
C1050 C 0.63095 0.67052 0.39665 0.0
C1051 C 0.59832 0.69617 0.4055 0.0
C1052 C 0.5863 0.71243 0.42121 0.0
C1053 C 0.62094 0.66752 0.37401 0.0
C1054 C 0.59833 0.67789 0.36758 0.0
C1055 C 0.58796 0.69277 0.38305 0.0
C1056 C 0.58298 0.67095 0.34701 0.0
C1057 C 0.63425 0.65267 0.35749 0.0
C1058 C 0.57385 0.68535 0.33019 0.0
C1059 C 0.55597 0.67886 0.31329 0.0
C1060 C 0.54672 0.65803 0.31345 0.0
C1061 C 0.55682 0.64355 0.32953 0.0
C1062 C 0.57469 0.6499 0.34606 0.0
H1063 H 0.65498 0.65288 0.36063 0.0
H1064 H 0.62741 0.63632 0.36068 0.0
H1065 H 0.63062 0.65678 0.33884 0.0
H1066 H 0.5798 0.70173 0.33071 0.0
H1067 H 0.54821 0.69035 0.30125 0.0
H1068 H 0.3949 0.65176 0.01724 0.0
H1069 H 0.40299 0.65624 0.0591 0.0
H1070 H 0.32392 0.66824 0.07101 0.0
H1071 H 0.31542 0.66327 0.02891 0.0
H1072 H 0.36109 0.69691 0.09541 0.0
H1073 H 0.37896 0.61172 0.10945 0.0
H1074 H 0.39572 0.62276 0.08486 0.0
H1075 H 0.36175 0.62158 0.08436 0.0
C1076 C 0.37911 0.65518 0.0287 0.0
C1077 C 0.35441 0.65678 0.01966 0.0
C1078 C 0.38382 0.65784 0.05265 0.0
C1079 C 0.36401 0.66224 0.06823 0.0
C1080 C 0.33946 0.66474 0.05929 0.0
H1081 H 0.41487 0.6443 0.21295 0.0
H1082 H 0.38241 0.64735 0.18225 0.0
C1083 C 0.33467 0.66198 0.03521 0.0
C1084 C 0.36934 0.6637 0.09383 0.0
H1085 H 0.39493 0.63532 0.13876 0.0
C1086 C 0.36802 0.68338 0.10509 0.0
C1087 C 0.37789 0.64599 0.10662 0.0
C1088 C 0.37847 0.62425 0.09581 0.0
C1089 C 0.3768 0.68607 0.12827 0.0
C1090 C 0.38742 0.66869 0.14035 0.0
C1091 C 0.38691 0.64872 0.12962 0.0
C1092 C 0.40256 0.6712 0.1623 0.0
C1093 C 0.37522 0.70764 0.13933 0.0
C1094 C 0.42402 0.68434 0.16204 0.0
C1095 C 0.44241 0.68262 0.17952 0.0
C1096 C 0.43981 0.66772 0.19765 0.0
C1097 C 0.41717 0.65613 0.19938 0.0
C1098 C 0.39874 0.65773 0.18169 0.0
H1099 H 0.3586 0.71641 0.13258 0.0
H1100 H 0.37389 0.70663 0.15876 0.0
H1101 H 0.39239 0.71688 0.13469 0.0
H1102 H 0.42781 0.69453 0.14718 0.0
H1103 H 0.45982 0.69158 0.17764 0.0
H1104 H 0.09809 0.81897 0.50408 0.0
H1105 H 0.08192 0.81709 0.54424 0.0
H1106 H 0.15791 0.81045 0.57048 0.0
H1107 H 0.17434 0.81262 0.53019 0.0
H1108 H 0.08851 0.78435 0.57911 0.0
H1109 H 0.12873 0.86174 0.60728 0.0
H1110 H 0.12558 0.85458 0.57673 0.0
H1111 H 0.15015 0.84316 0.59424 0.0
C1112 C 0.11142 0.81718 0.51838 0.0
C1113 C 0.13756 0.81614 0.5139 0.0
C1114 C 0.10212 0.81599 0.54133 0.0
C1115 C 0.1187 0.8139 0.56041 0.0
C1116 C 0.14477 0.81234 0.55605 0.0
H1117 H 0.0748 0.8248 0.70983 0.0
H1118 H 0.10045 0.81857 0.6745 0.0
C1119 C 0.15412 0.8134 0.533 0.0
C1120 C 0.10841 0.81364 0.58476 0.0
H1121 H 0.10388 0.84331 0.63474 0.0
C1122 C 0.09206 0.79714 0.59136 0.0
C1123 C 0.11319 0.83024 0.60083 0.0
C1124 C 0.13023 0.84855 0.59451 0.0
C1125 C 0.07995 0.79701 0.61334 0.0
C1126 C 0.08376 0.81413 0.629 0.0
C1127 C 0.1009 0.83021 0.62277 0.0
C1128 C 0.06848 0.81657 0.65084 0.0
C1129 C 0.06307 0.77855 0.61951 0.0
C1130 C 0.04203 0.81757 0.64938 0.0
C1131 C 0.02743 0.82105 0.66943 0.0
C1132 C 0.03888 0.82389 0.69151 0.0
C1133 C 0.06538 0.82262 0.69311 0.0
C1134 C 0.08006 0.81912 0.67292 0.0
H1135 H 0.06888 0.76404 0.61002 0.0
H1136 H 0.06332 0.77529 0.63867 0.0
H1137 H 0.04337 0.78216 0.61422 0.0
H1138 H 0.03261 0.81612 0.63257 0.0
H1139 H 0.0071 0.82174 0.66751 0.0
H1140 H 0.20211 0.27095 0.36779 0.0
H1141 H 0.17087 0.25113 0.34492 0.0
H1142 H 0.22196 0.2497 0.28602 0.0
H1143 H 0.25346 0.26943 0.30883 0.0
H1144 H 0.17211 0.25944 0.27307 0.0
H1145 H 0.17496 0.18822 0.32947 0.0
H1146 H 0.16855 0.212 0.34548 0.0
H1147 H 0.19859 0.20884 0.33113 0.0
C1148 C 0.20687 0.26624 0.35007 0.0
C1149 C 0.23045 0.27168 0.34028 0.0
C1150 C 0.18893 0.25493 0.33698 0.0
C1151 C 0.19417 0.24865 0.31384 0.0
C1152 C 0.21749 0.25435 0.30383 0.0
H1153 H 0.09854 0.1512 0.25237 0.0
H1154 H 0.1363 0.17263 0.26026 0.0
C1155 C 0.23546 0.26569 0.31691 0.0
C1156 C 0.17538 0.23598 0.30025 0.0
H1157 H 0.14114 0.19017 0.30204 0.0
C1158 C 0.16547 0.2442 0.27927 0.0
C1159 C 0.16704 0.21592 0.30806 0.0
C1160 C 0.178 0.20559 0.32964 0.0
C1161 C 0.14678 0.23324 0.2664 0.0
C1162 C 0.13752 0.21366 0.27489 0.0
C1163 C 0.1481 0.20518 0.29546 0.0
C1164 C 0.116 0.20204 0.26375 0.0
C1165 C 0.13724 0.24272 0.24382 0.0
C1166 C 0.09214 0.21155 0.2617 0.0
C1167 C 0.07063 0.19933 0.25664 0.0
C1168 C 0.0726 0.1774 0.25374 0.0
C1169 C 0.09664 0.16816 0.25391 0.0
C1170 C 0.11817 0.18038 0.25874 0.0
H1171 H 0.15158 0.2534 0.23582 0.0
H1172 H 0.13212 0.2303 0.23087 0.0
H1173 H 0.12014 0.25222 0.24756 0.0
H1174 H 0.08974 0.22807 0.26598 0.0
H1175 H 0.0522 0.20668 0.25737 0.0
H1176 H 0.24775 0.21213 0.80179 0.0
H1177 H 0.28012 0.23067 0.77898 0.0
H1178 H 0.32687 0.23561 0.84078 0.0
H1179 H 0.2953 0.21614 0.86338 0.0
H1180 H 0.29843 0.26937 0.78271 0.0
H1181 H 0.37775 0.21424 0.79467 0.0
H1182 H 0.34568 0.20731 0.80243 0.0
H1183 H 0.3652 0.22221 0.82249 0.0
C1184 C 0.26511 0.21677 0.81048 0.0
C1185 C 0.26882 0.21244 0.83452 0.0
C1186 C 0.28358 0.22754 0.7974 0.0
C1187 C 0.30628 0.23422 0.80795 0.0
C1188 C 0.3099 0.23016 0.83198 0.0
H1189 H 0.40361 0.33652 0.78549 0.0
H1190 H 0.36774 0.31276 0.78992 0.0
C1191 C 0.29154 0.21929 0.84504 0.0
C1192 C 0.3256 0.24638 0.79428 0.0
H1193 H 0.38912 0.24993 0.78365 0.0
C1194 C 0.31819 0.26489 0.78261 0.0
C1195 C 0.35137 0.24039 0.79344 0.0
C1196 C 0.36041 0.21982 0.80371 0.0
C1197 C 0.33599 0.27822 0.77163 0.0
C1198 C 0.36203 0.27322 0.77274 0.0
C1199 C 0.36924 0.25399 0.78297 0.0
C1200 C 0.38215 0.28885 0.76641 0.0
C1201 C 0.32667 0.29775 0.75929 0.0
C1202 C 0.40238 0.2836 0.7514 0.0
C1203 C 0.42319 0.29739 0.74879 0.0
C1204 C 0.42421 0.31639 0.7615 0.0
C1205 C 0.40333 0.32202 0.77539 0.0
C1206 C 0.38266 0.30844 0.77786 0.0
H1207 H 0.3074 0.29519 0.75201 0.0
H1208 H 0.32553 0.3109 0.77211 0.0
H1209 H 0.33952 0.30255 0.7448 0.0
H1210 H 0.40252 0.26851 0.74248 0.0
H1211 H 0.43913 0.29253 0.7382 0.0
H1212 H 0.74841 0.2072 0.69031 0.0
H1213 H 0.71698 0.22615 0.71356 0.0
H1214 H 0.67072 0.23369 0.65183 0.0
H1215 H 0.70132 0.21391 0.62875 0.0
H1216 H 0.70087 0.26562 0.71046 0.0
H1217 H 0.61863 0.2129 0.69756 0.0
H1218 H 0.65033 0.20516 0.68977 0.0
H1219 H 0.6317 0.22083 0.66988 0.0
C1220 C 0.73133 0.21251 0.68172 0.0
C1221 C 0.72749 0.20886 0.65756 0.0
C1222 C 0.71341 0.2235 0.69506 0.0
C1223 C 0.69114 0.23105 0.68464 0.0
C1224 C 0.68736 0.22758 0.66052 0.0
H1225 H 0.59934 0.33567 0.70818 0.0
H1226 H 0.63395 0.31101 0.70357 0.0
C1227 C 0.70517 0.21653 0.6472 0.0
C1228 C 0.67249 0.24353 0.69854 0.0
H1229 H 0.60918 0.24877 0.70904 0.0
C1230 C 0.68088 0.2617 0.71046 0.0
C1231 C 0.64641 0.23827 0.69923 0.0
C1232 C 0.63629 0.21809 0.68864 0.0
C1233 C 0.66378 0.27542 0.72155 0.0
C1234 C 0.63749 0.27117 0.7203 0.0
C1235 C 0.62927 0.25225 0.70983 0.0
C1236 C 0.61821 0.28729 0.72677 0.0
C1237 C 0.67411 0.29457 0.73413 0.0
C1238 C 0.59768 0.28245 0.74167 0.0
C1239 C 0.57761 0.29676 0.7444 0.0
C1240 C 0.57761 0.31589 0.7319 0.0
C1241 C 0.59881 0.32109 0.71812 0.0
C1242 C 0.61877 0.30699 0.71555 0.0
H1243 H 0.69321 0.29142 0.74141 0.0
H1244 H 0.67598 0.3078 0.72147 0.0
H1245 H 0.6615 0.29958 0.74866 0.0
H1246 H 0.59672 0.26729 0.75042 0.0
H1247 H 0.56139 0.29222 0.7549 0.0
H1248 H 0.75591 0.24526 0.14445 0.0
H1249 H 0.788 0.2261 0.16658 0.0
H1250 H 0.80993 0.2836 0.20175 0.0
H1251 H 0.77808 0.30305 0.17939 0.0
H1252 H 0.84034 0.23484 0.16538 0.0
H1253 H 0.8026 0.24068 0.25629 0.0
H1254 H 0.78323 0.24524 0.23067 0.0
H1255 H 0.80536 0.26503 0.24023 0.0
C1256 C 0.76755 0.25391 0.15683 0.0
C1257 C 0.7644 0.27578 0.15998 0.0
C1258 C 0.78579 0.24287 0.16962 0.0
C1259 C 0.80121 0.25334 0.18603 0.0
C1260 C 0.79792 0.27509 0.18954 0.0
H1261 H 0.93973 0.20204 0.24934 0.0
H1262 H 0.9045 0.22648 0.24206 0.0
C1263 C 0.77968 0.28619 0.1767 0.0
C1264 C 0.82179 0.24162 0.19812 0.0
H1265 H 0.84211 0.22375 0.25164 0.0
C1266 C 0.84076 0.23254 0.18425 0.0
C1267 C 0.82244 0.2387 0.22278 0.0
C1268 C 0.80226 0.24777 0.23845 0.0
C1269 C 0.86008 0.22041 0.19425 0.0
C1270 C 0.86039 0.217 0.21879 0.0
C1271 C 0.84183 0.22645 0.23284 0.0
C1272 C 0.87892 0.20226 0.22936 0.0
C1273 C 0.87989 0.21092 0.17844 0.0
C1274 C 0.87569 0.18052 0.22585 0.0
C1275 C 0.89567 0.16669 0.22987 0.0
C1276 C 0.91921 0.17429 0.23773 0.0
C1277 C 0.92166 0.19575 0.24363 0.0
C1278 C 0.90161 0.20972 0.23933 0.0
H1279 H 0.87953 0.21788 0.16054 0.0
H1280 H 0.89905 0.21323 0.18603 0.0
H1281 H 0.87645 0.19367 0.17687 0.0
H1282 H 0.85836 0.17446 0.21816 0.0
H1283 H 0.89338 0.15025 0.225 0.0
H1284 H 0.78926 0.6859 0.68263 0.0
H1285 H 0.82333 0.70763 0.69904 0.0
H1286 H 0.79272 0.76251 0.66478 0.0
H1287 H 0.75815 0.74101 0.64882 0.0
H1288 H 0.85959 0.73073 0.67537 0.0
H1289 H 0.80265 0.78323 0.73224 0.0
H1290 H 0.79019 0.75903 0.71997 0.0
H1291 H 0.79221 0.78246 0.70224 0.0
C1292 C 0.78952 0.70266 0.67885 0.0
C1293 C 0.7708 0.71169 0.66447 0.0
C1294 C 0.80913 0.71504 0.68815 0.0
C1295 C 0.81042 0.73678 0.68347 0.0
C1296 C 0.79188 0.74586 0.66904 0.0
H1297 H 0.94022 0.81947 0.69089 0.0
H1298 H 0.9039 0.79768 0.68 0.0
C1299 C 0.77228 0.73347 0.65967 0.0
C1300 C 0.83175 0.74974 0.69288 0.0
H1301 H 0.84579 0.79313 0.72635 0.0
C1302 C 0.85655 0.7443 0.68662 0.0
C1303 C 0.82788 0.76729 0.70785 0.0
C1304 C 0.80182 0.77328 0.71619 0.0
C1305 C 0.87746 0.75624 0.69433 0.0
C1306 C 0.87351 0.7743 0.70847 0.0
C1307 C 0.8488 0.7794 0.71534 0.0
C1308 C 0.89481 0.7884 0.71556 0.0
C1309 C 0.90366 0.74936 0.68731 0.0
C1310 C 0.90137 0.79104 0.73931 0.0
C1311 C 0.92223 0.80363 0.74567 0.0
C1312 C 0.93673 0.81394 0.72836 0.0
C1313 C 0.92958 0.81173 0.70469 0.0
C1314 C 0.90886 0.79915 0.69838 0.0
H1315 H 0.90398 0.73249 0.68198 0.0
H1316 H 0.91012 0.75896 0.67214 0.0
H1317 H 0.91729 0.75173 0.70192 0.0
H1318 H 0.89069 0.78299 0.75288 0.0
H1319 H 0.92721 0.80504 0.76405 0.0
H1320 H 0.74916 0.77175 0.19464 0.0
H1321 H 0.71774 0.75176 0.21727 0.0
H1322 H 0.66825 0.75054 0.15716 0.0
H1323 H 0.69925 0.77077 0.13454 0.0
H1324 H 0.66631 0.76107 0.22802 0.0
H1325 H 0.67479 0.68787 0.17537 0.0
H1326 H 0.6979 0.70893 0.17405 0.0
H1327 H 0.66871 0.71096 0.15803 0.0
C1328 C 0.73151 0.7674 0.18625 0.0
C1329 C 0.7269 0.77279 0.16263 0.0
C1330 C 0.7136 0.75589 0.19922 0.0
C1331 C 0.69079 0.74937 0.18883 0.0
C1332 C 0.68594 0.75501 0.16542 0.0
H1333 H 0.54657 0.70811 0.23634 0.0
H1334 H 0.58485 0.72903 0.22955 0.0
C1335 C 0.70377 0.76654 0.15247 0.0
C1336 C 0.67199 0.73664 0.2023 0.0
H1337 H 0.63929 0.69002 0.20098 0.0
C1338 C 0.66057 0.74543 0.22229 0.0
C1339 C 0.66482 0.71608 0.19511 0.0
C1340 C 0.67735 0.70528 0.17461 0.0
C1341 C 0.64135 0.7346 0.23458 0.0
C1342 C 0.63317 0.71454 0.22654 0.0
C1343 C 0.64543 0.7054 0.20719 0.0
C1344 C 0.61067 0.70338 0.23647 0.0
C1345 C 0.6299 0.74481 0.25596 0.0
C1346 C 0.61228 0.68212 0.24343 0.0
C1347 C 0.5903 0.67017 0.24745 0.0
C1348 C 0.56639 0.6793 0.24457 0.0
C1349 C 0.56482 0.70091 0.23939 0.0
C1350 C 0.58675 0.71286 0.2354 0.0
H1351 H 0.64337 0.75605 0.26431 0.0
H1352 H 0.61293 0.75383 0.25062 0.0
H1353 H 0.62408 0.73283 0.26916 0.0
H1354 H 0.63048 0.67439 0.24423 0.0
H1355 H 0.59195 0.65339 0.25076 0.0
H1356 H 0.28518 0.77923 0.36374 0.0
H1357 H 0.31759 0.75723 0.34555 0.0
H1358 H 0.2767 0.75842 0.28009 0.0
H1359 H 0.24369 0.77962 0.29836 0.0
H1360 H 0.29287 0.71945 0.28952 0.0
H1361 H 0.37282 0.7752 0.30074 0.0
H1362 H 0.35748 0.76934 0.32807 0.0
H1363 H 0.34038 0.78287 0.30531 0.0
C1364 C 0.28292 0.77469 0.34553 0.0
C1365 C 0.26179 0.78141 0.33254 0.0
C1366 C 0.30172 0.76234 0.33502 0.0
C1367 C 0.29999 0.75655 0.31123 0.0
C1368 C 0.2787 0.76288 0.29836 0.0
H1369 H 0.43191 0.69388 0.24556 0.0
H1370 H 0.39608 0.71836 0.24987 0.0
C1371 C 0.25987 0.77515 0.30885 0.0
C1372 C 0.31985 0.74325 0.30003 0.0
H1373 H 0.38369 0.73935 0.29159 0.0
C1374 C 0.31268 0.72396 0.28973 0.0
C1375 C 0.34571 0.74925 0.2997 0.0
C1376 C 0.35455 0.7704 0.30881 0.0
C1377 C 0.33072 0.71007 0.28036 0.0
C1378 C 0.35673 0.71538 0.28163 0.0
C1379 C 0.3638 0.73516 0.29073 0.0
C1380 C 0.37687 0.6997 0.27635 0.0
C1381 C 0.32172 0.68967 0.26945 0.0
C1382 C 0.37781 0.681 0.28945 0.0
C1383 C 0.39807 0.66719 0.28705 0.0
C1384 C 0.41808 0.67168 0.27152 0.0
C1385 C 0.41668 0.68991 0.2575 0.0
C1386 C 0.39632 0.70394 0.26009 0.0
H1387 H 0.30224 0.6912 0.26238 0.0
H1388 H 0.33445 0.68456 0.25505 0.0
H1389 H 0.32136 0.67715 0.28308 0.0
H1390 H 0.36339 0.67749 0.30241 0.0
H1391 H 0.39852 0.65328 0.29811 0.0
H1392 H 0.21887 0.68568 0.82434 0.0
H1393 H 0.18858 0.70624 0.80133 0.0
H1394 H 0.21195 0.7628 0.83763 0.0
H1395 H 0.24273 0.74254 0.86014 0.0
H1396 H 0.14832 0.72939 0.81738 0.0
H1397 H 0.21458 0.78167 0.76944 0.0
H1398 H 0.2248 0.75807 0.7844 0.0
H1399 H 0.21989 0.78213 0.80055 0.0
C1400 C 0.21787 0.70255 0.82717 0.0
C1401 C 0.23334 0.71243 0.8441 0.0
C1402 C 0.20044 0.71427 0.81407 0.0
C1403 C 0.19825 0.73615 0.81742 0.0
C1404 C 0.21364 0.74604 0.83431 0.0
H1405 H 0.102 0.83861 0.79503 0.0
H1406 H 0.13662 0.81399 0.80078 0.0
C1407 C 0.23102 0.73435 0.84744 0.0
C1408 C 0.17897 0.74853 0.80432 0.0
H1409 H 0.17132 0.79314 0.77136 0.0
C1410 C 0.15334 0.7431 0.80693 0.0
C1411 C 0.18553 0.76634 0.79054 0.0
C1412 C 0.21272 0.77229 0.78584 0.0
C1413 C 0.13408 0.75574 0.79745 0.0
C1414 C 0.14062 0.77416 0.78467 0.0
C1415 C 0.16629 0.77903 0.78112 0.0
C1416 C 0.12127 0.78998 0.77776 0.0
C1417 C 0.10687 0.74998 0.80239 0.0
C1418 C 0.10158 0.78512 0.76198 0.0
C1419 C 0.08163 0.79936 0.75851 0.0
C1420 C 0.08108 0.81856 0.77091 0.0
C1421 C 0.10174 0.82388 0.78536 0.0
C1422 C 0.1216 0.80981 0.78867 0.0
H1423 H 0.10513 0.73709 0.81553 0.0
H1424 H 0.09638 0.76393 0.80894 0.0
H1425 H 0.09768 0.74464 0.7859 0.0
H1426 H 0.10117 0.77004 0.75304 0.0
H1427 H 0.06598 0.79481 0.7473 0.0
loop_
_geom_bond_atom_site_label_1
_geom_bond_atom_site_label_2
_geom_bond_distance
_geom_bond_site_symmetry_2
_ccdc_geom_bond_type
C0 C1 1.391 . S
C0 C4 1.391 . S
C0 H42 0.948 . S
C1 C0 1.391 . S
C1 C2 1.391 . S
C2 C1 1.391 . S
C2 H58 0.947 . S
C2 C59 1.392 . S
C3 C4 1.391 . S
C3 C7 1.397 . S
C3 C59 1.419 . S
C4 C0 1.391 . S
C4 C3 1.391 . S
C4 C5 1.399 . S
C5 C4 1.399 . S
C5 C8 1.396 . S
C5 C17 1.453 . S
C5 C18 1.684 . S
H6 C30 0.948 . S
C7 C3 1.397 . S
C7 C8 1.394 . S
C7 C26 1.723 . S
C8 C5 1.396 . S
C8 C7 1.394 . S
C8 C38 1.723 . S
H9 C32 0.947 . S
H10 C33 0.948 . S
H11 C39 0.982 . S
H12 C40 0.979 . S
H13 C40 0.980 . S
H14 C40 0.983 . S
H15 C39 0.979 . S
H16 C39 0.977 . S
C17 C5 1.453 . S
C17 H46 0.982 . S
C17 H47 0.979 . S
C17 H48 0.977 . S
C18 C5 1.684 . S
C18 H43 0.979 . S
C18 H44 0.980 . S
C18 H45 0.983 . S
C19 C20 1.391 . S
C19 C24 1.391 . S
C19 H49 0.948 . S
C20 C19 1.391 . S
C20 C21 1.391 . S
C21 C20 1.391 . S
C21 C22 1.392 . S
C21 H50 0.947 . S
C22 C21 1.392 . S
C22 C23 1.419 . S
C22 H51 0.948 . S
C23 C22 1.419 . S
C23 C24 1.391 . S
C23 C27 1.397 . S
C24 C19 1.391 . S
C24 C23 1.391 . S
C24 C25 1.399 . S
C25 C24 1.399 . S
C25 C26 1.396 . S
C25 C28 1.453 . S
C25 C29 1.684 . S
C26 C7 1.723 . S
C26 C25 1.396 . S
C26 C27 1.394 . S
C27 C23 1.397 . S
C27 C26 1.394 . S
C27 C37 1.723 . S
C28 C25 1.453 . S
C28 H52 0.982 . S
C28 H53 0.979 . S
C28 H54 0.977 . S
C29 C25 1.684 . S
C29 H55 0.979 . S
C29 H56 0.980 . S
C29 H57 0.983 . S
C30 H6 0.948 . S
C30 C31 1.391 . S
C30 C35 1.391 . S
C31 C30 1.391 . S
C31 C32 1.391 . S
C32 H9 0.947 . S
C32 C31 1.391 . S
C32 C33 1.392 . S
C33 H10 0.948 . S
C33 C32 1.392 . S
C33 C34 1.419 . S
C34 C33 1.419 . S
C34 C35 1.391 . S
C34 C38 1.397 . S
C35 C30 1.391 . S
C35 C34 1.391 . S
C35 C36 1.399 . S
C36 C35 1.399 . S
C36 C37 1.396 . S
C36 C39 1.453 . S
C36 C40 1.684 . S
C37 C27 1.723 . S
C37 C36 1.396 . S
C37 C38 1.394 . S
C38 C8 1.723 . S
C38 C34 1.397 . S
C38 C37 1.394 . S
C39 H11 0.982 . S
C39 H15 0.979 . S
C39 H16 0.977 . S
C39 C36 1.453 . S
C40 H12 0.979 . S
C40 H13 0.980 . S
C40 H14 0.983 . S
C40 C36 1.684 . S
H41 C59 0.948 . S
H42 C0 0.948 . S
H43 C18 0.979 . S
H44 C18 0.980 . S
H45 C18 0.983 . S
H46 C17 0.982 . S
H47 C17 0.979 . S
H48 C17 0.977 . S
H49 C19 0.948 . S
H50 C21 0.947 . S
H51 C22 0.948 . S
H52 C28 0.982 . S
H53 C28 0.979 . S
H54 C28 0.977 . S
H55 C29 0.979 . S
H56 C29 0.980 . S
H57 C29 0.983 . S
H58 C2 0.947 . S
C59 C2 1.392 . S
C59 C3 1.419 . S
C59 H41 0.948 . S
C60 C61 1.391 . S
C60 C64 1.391 . S
C60 H102 0.948 . S
C61 C60 1.391 . S
C61 C62 1.391 . S
C62 C61 1.391 . S
C62 H118 0.947 . S
C62 C119 1.392 . S
C63 C64 1.391 . S
C63 C67 1.397 . S
C63 C119 1.419 . S
C64 C60 1.391 . S
C64 C63 1.391 . S
C64 C65 1.399 . S
C65 C64 1.399 . S
C65 C68 1.396 . S
C65 C77 1.453 . S
C65 C78 1.684 . S
H66 C90 0.948 . S
C67 C63 1.397 . S
C67 C68 1.394 . S
C67 C86 1.723 . S
C68 C65 1.396 . S
C68 C67 1.394 . S
C68 C98 1.723 . S
H69 C92 0.947 . S
H70 C93 0.948 . S
H71 C99 0.982 . S
H72 C100 0.979 . S
H73 C100 0.980 . S
H74 C100 0.983 . S
H75 C99 0.979 . S
H76 C99 0.977 . S
C77 C65 1.453 . S
C77 H106 0.982 . S
C77 H107 0.979 . S
C77 H108 0.977 . S
C78 C65 1.684 . S
C78 H103 0.979 . S
C78 H104 0.980 . S
C78 H105 0.983 . S
C79 C80 1.391 . S
C79 C84 1.391 . S
C79 H109 0.948 . S
C80 C79 1.391 . S
C80 C81 1.391 . S
C81 C80 1.391 . S
C81 C82 1.392 . S
C81 H110 0.947 . S
C82 C81 1.392 . S
C82 C83 1.419 . S
C82 H111 0.948 . S
C83 C82 1.419 . S
C83 C84 1.391 . S
C83 C87 1.397 . S
C84 C79 1.391 . S
C84 C83 1.391 . S
C84 C85 1.399 . S
C85 C84 1.399 . S
C85 C86 1.396 . S
C85 C88 1.453 . S
C85 C89 1.684 . S
C86 C67 1.723 . S
C86 C85 1.396 . S
C86 C87 1.394 . S
C87 C83 1.397 . S
C87 C86 1.394 . S
C87 C97 1.723 . S
C88 C85 1.453 . S
C88 H112 0.982 . S
C88 H113 0.979 . S
C88 H114 0.977 . S
C89 C85 1.684 . S
C89 H115 0.979 . S
C89 H116 0.980 . S
C89 H117 0.983 . S
C90 H66 0.948 . S
C90 C91 1.391 . S
C90 C95 1.391 . S
C91 C90 1.391 . S
C91 C92 1.391 . S
C92 H69 0.947 . S
C92 C91 1.391 . S
C92 C93 1.392 . S
C93 H70 0.948 . S
C93 C92 1.392 . S
C93 C94 1.419 . S
C94 C93 1.419 . S
C94 C95 1.391 . S
C94 C98 1.397 . S
C95 C90 1.391 . S
C95 C94 1.391 . S
C95 C96 1.399 . S
C96 C95 1.399 . S
C96 C97 1.396 . S
C96 C99 1.453 . S
C96 C100 1.684 . S
C97 C87 1.723 . S
C97 C96 1.396 . S
C97 C98 1.394 . S
C98 C68 1.723 . S
C98 C94 1.397 . S
C98 C97 1.394 . S
C99 H71 0.982 . S
C99 H75 0.979 . S
C99 H76 0.977 . S
C99 C96 1.453 . S
C100 H72 0.979 . S
C100 H73 0.980 . S
C100 H74 0.983 . S
C100 C96 1.684 . S
H101 C119 0.948 . S
H102 C60 0.948 . S
H103 C78 0.979 . S
H104 C78 0.980 . S
H105 C78 0.983 . S
H106 C77 0.982 . S
H107 C77 0.979 . S
H108 C77 0.977 . S
H109 C79 0.948 . S
H110 C81 0.947 . S
H111 C82 0.948 . S
H112 C88 0.982 . S
H113 C88 0.979 . S
H114 C88 0.977 . S
H115 C89 0.979 . S
H116 C89 0.980 . S
H117 C89 0.983 . S
H118 C62 0.947 . S
C119 C62 1.392 . S
C119 C63 1.419 . S
C119 H101 0.948 . S
C120 C121 1.391 . S
C120 C124 1.391 . S
C120 H162 0.948 . S
C121 C120 1.391 . S
C121 C122 1.391 . S
C122 C121 1.391 . S
C122 H178 0.947 . S
C122 C179 1.392 . S
C123 C124 1.391 . S
C123 C127 1.397 . S
C123 C179 1.419 . S
C124 C120 1.391 . S
C124 C123 1.391 . S
C124 C125 1.399 . S
C125 C124 1.399 . S
C125 C128 1.396 . S
C125 C137 1.453 . S
C125 C138 1.684 . S
H126 C150 0.948 . S
C127 C123 1.397 . S
C127 C128 1.394 . S
C127 C146 1.723 . S
C128 C125 1.396 . S
C128 C127 1.394 . S
C128 C158 1.723 . S
H129 C152 0.947 . S
H130 C153 0.948 . S
H131 C159 0.982 . S
H132 C160 0.979 . S
H133 C160 0.980 . S
H134 C160 0.983 . S
H135 C159 0.979 . S
H136 C159 0.977 . S
C137 C125 1.453 . S
C137 H166 0.982 . S
C137 H167 0.979 . S
C137 H168 0.977 . S
C138 C125 1.684 . S
C138 H163 0.979 . S
C138 H164 0.980 . S
C138 H165 0.983 . S
C139 C140 1.391 . S
C139 C144 1.391 . S
C139 H169 0.948 . S
C140 C139 1.391 . S
C140 C141 1.391 . S
C141 C140 1.391 . S
C141 C142 1.392 . S
C141 H170 0.947 . S
C142 C141 1.392 . S
C142 C143 1.419 . S
C142 H171 0.948 . S
C143 C142 1.419 . S
C143 C144 1.391 . S
C143 C147 1.397 . S
C144 C139 1.391 . S
C144 C143 1.391 . S
C144 C145 1.399 . S
C145 C144 1.399 . S
C145 C146 1.396 . S
C145 C148 1.453 . S
C145 C149 1.684 . S
C146 C127 1.723 . S
C146 C145 1.396 . S
C146 C147 1.394 . S
C147 C143 1.397 . S
C147 C146 1.394 . S
C147 C157 1.723 . S
C148 C145 1.453 . S
C148 H172 0.982 . S
C148 H173 0.979 . S
C148 H174 0.977 . S
C149 C145 1.684 . S
C149 H175 0.979 . S
C149 H176 0.980 . S
C149 H177 0.983 . S
C150 H126 0.948 . S
C150 C151 1.391 . S
C150 C155 1.391 . S
C151 C150 1.391 . S
C151 C152 1.391 . S
C152 H129 0.947 . S
C152 C151 1.391 . S
C152 C153 1.392 . S
C153 H130 0.948 . S
C153 C152 1.392 . S
C153 C154 1.419 . S
C154 C153 1.419 . S
C154 C155 1.391 . S
C154 C158 1.397 . S
C155 C150 1.391 . S
C155 C154 1.391 . S
C155 C156 1.399 . S
C156 C155 1.399 . S
C156 C157 1.396 . S
C156 C159 1.453 . S
C156 C160 1.684 . S
C157 C147 1.723 . S
C157 C156 1.396 . S
C157 C158 1.394 . S
C158 C128 1.723 . S
C158 C154 1.397 . S
C158 C157 1.394 . S
C159 H131 0.982 . S
C159 H135 0.979 . S
C159 H136 0.977 . S
C159 C156 1.453 . S
C160 H132 0.979 . S
C160 H133 0.980 . S
C160 H134 0.983 . S
C160 C156 1.684 . S
H161 C179 0.948 . S
H162 C120 0.948 . S
H163 C138 0.979 . S
H164 C138 0.980 . S
H165 C138 0.983 . S
H166 C137 0.982 . S
H167 C137 0.979 . S
H168 C137 0.977 . S
H169 C139 0.948 . S
H170 C141 0.947 . S
H171 C142 0.948 . S
H172 C148 0.982 . S
H173 C148 0.979 . S
H174 C148 0.977 . S
H175 C149 0.979 . S
H176 C149 0.980 . S
H177 C149 0.983 . S
H178 C122 0.947 . S
C179 C122 1.392 . S
C179 C123 1.419 . S
C179 H161 0.948 . S
C180 C181 1.391 . S
C180 C184 1.391 . S
C180 H222 0.948 . S
C181 C180 1.391 . S
C181 C182 1.391 . S
C182 C181 1.391 . S
C182 H238 0.947 . S
C182 C239 1.392 . S
C183 C184 1.391 . S
C183 C187 1.397 . S
C183 C239 1.419 . S
C184 C180 1.391 . S
C184 C183 1.391 . S
C184 C185 1.399 . S
C185 C184 1.399 . S
C185 C188 1.396 . S
C185 C197 1.453 . S
C185 C198 1.684 . S
H186 C210 0.948 . S
C187 C183 1.397 . S
C187 C188 1.394 . S
C187 C206 1.723 . S
C188 C185 1.396 . S
C188 C187 1.394 . S
C188 C218 1.723 . S
H189 C212 0.947 . S
H190 C213 0.948 . S
H191 C219 0.982 . S
H192 C220 0.979 . S
H193 C220 0.980 . S
H194 C220 0.983 . S
H195 C219 0.979 . S
H196 C219 0.977 . S
C197 C185 1.453 . S
C197 H226 0.982 . S
C197 H227 0.979 . S
C197 H228 0.977 . S
C198 C185 1.684 . S
C198 H223 0.979 . S
C198 H224 0.980 . S
C198 H225 0.983 . S
C199 C200 1.391 . S
C199 C204 1.391 . S
C199 H229 0.948 . S
C200 C199 1.391 . S
C200 C201 1.391 . S
C201 C200 1.391 . S
C201 C202 1.392 . S
C201 H230 0.947 . S
C202 C201 1.392 . S
C202 C203 1.419 . S
C202 H231 0.948 . S
C203 C202 1.419 . S
C203 C204 1.391 . S
C203 C207 1.397 . S
C204 C199 1.391 . S
C204 C203 1.391 . S
C204 C205 1.399 . S
C205 C204 1.399 . S
C205 C206 1.396 . S
C205 C208 1.453 . S
C205 C209 1.684 . S
C206 C187 1.723 . S
C206 C205 1.396 . S
C206 C207 1.394 . S
C207 C203 1.397 . S
C207 C206 1.394 . S
C207 C217 1.723 . S
C208 C205 1.453 . S
C208 H232 0.982 . S
C208 H233 0.979 . S
C208 H234 0.977 . S
C209 C205 1.684 . S
C209 H235 0.979 . S
C209 H236 0.980 . S
C209 H237 0.983 . S
C210 H186 0.948 . S
C210 C211 1.391 . S
C210 C215 1.391 . S
C211 C210 1.391 . S
C211 C212 1.391 . S
C212 H189 0.947 . S
C212 C211 1.391 . S
C212 C213 1.392 . S
C213 H190 0.948 . S
C213 C212 1.392 . S
C213 C214 1.419 . S
C214 C213 1.419 . S
C214 C215 1.391 . S
C214 C218 1.397 . S
C215 C210 1.391 . S
C215 C214 1.391 . S
C215 C216 1.399 . S
C216 C215 1.399 . S
C216 C217 1.396 . S
C216 C219 1.453 . S
C216 C220 1.684 . S
C217 C207 1.723 . S
C217 C216 1.396 . S
C217 C218 1.394 . S
C218 C188 1.723 . S
C218 C214 1.397 . S
C218 C217 1.394 . S
C219 H191 0.982 . S
C219 H195 0.979 . S
C219 H196 0.977 . S
C219 C216 1.453 . S
C220 H192 0.979 . S
C220 H193 0.980 . S
C220 H194 0.983 . S
C220 C216 1.684 . S
H221 C239 0.948 . S
H222 C180 0.948 . S
H223 C198 0.979 . S
H224 C198 0.980 . S
H225 C198 0.983 . S
H226 C197 0.982 . S
H227 C197 0.979 . S
H228 C197 0.977 . S
H229 C199 0.948 . S
H230 C201 0.947 . S
H231 C202 0.948 . S
H232 C208 0.982 . S
H233 C208 0.979 . S
H234 C208 0.977 . S
H235 C209 0.979 . S
H236 C209 0.980 . S
H237 C209 0.983 . S
H238 C182 0.947 . S
C239 C182 1.392 . S
C239 C183 1.419 . S
C239 H221 0.948 . S
C240 C241 1.391 . S
C240 C244 1.391 . S
C240 H282 0.948 . S
C241 C240 1.391 . S
C241 C242 1.391 . S
C242 C241 1.391 . S
C242 H298 0.947 . S
C242 C299 1.392 . S
C243 C244 1.391 . S
C243 C247 1.397 . S
C243 C299 1.419 . S
C244 C240 1.391 . S
C244 C243 1.391 . S
C244 C245 1.399 . S
C245 C244 1.399 . S
C245 C248 1.396 . S
C245 C257 1.453 . S
C245 C258 1.684 . S
H246 C270 0.948 . S
C247 C243 1.397 . S
C247 C248 1.394 . S
C247 C266 1.723 . S
C248 C245 1.396 . S
C248 C247 1.394 . S
C248 C278 1.723 . S
H249 C272 0.947 . S
H250 C273 0.948 . S
H251 C279 0.982 . S
H252 C280 0.979 . S
H253 C280 0.980 . S
H254 C280 0.983 . S
H255 C279 0.979 . S
H256 C279 0.977 . S
C257 C245 1.453 . S
C257 H286 0.982 . S
C257 H287 0.979 . S
C257 H288 0.977 . S
C258 C245 1.684 . S
C258 H283 0.979 . S
C258 H284 0.980 . S
C258 H285 0.983 . S
C259 C260 1.391 . S
C259 C264 1.391 . S
C259 H289 0.948 . S
C260 C259 1.391 . S
C260 C261 1.391 . S
C261 C260 1.391 . S
C261 C262 1.392 . S
C261 H290 0.947 . S
C262 C261 1.392 . S
C262 C263 1.419 . S
C262 H291 0.948 . S
C263 C262 1.419 . S
C263 C264 1.391 . S
C263 C267 1.397 . S
C264 C259 1.391 . S
C264 C263 1.391 . S
C264 C265 1.399 . S
C265 C264 1.399 . S
C265 C266 1.396 . S
C265 C268 1.453 . S
C265 C269 1.684 . S
C266 C247 1.723 . S
C266 C265 1.396 . S
C266 C267 1.394 . S
C267 C263 1.397 . S
C267 C266 1.394 . S
C267 C277 1.723 . S
C268 C265 1.453 . S
C268 H292 0.982 . S
C268 H293 0.979 . S
C268 H294 0.977 . S
C269 C265 1.684 . S
C269 H295 0.979 . S
C269 H296 0.980 . S
C269 H297 0.983 . S
C270 H246 0.948 . S
C270 C271 1.391 . S
C270 C275 1.391 . S
C271 C270 1.391 . S
C271 C272 1.391 . S
C272 H249 0.947 . S
C272 C271 1.391 . S
C272 C273 1.392 . S
C273 H250 0.948 . S
C273 C272 1.392 . S
C273 C274 1.419 . S
C274 C273 1.419 . S
C274 C275 1.391 . S
C274 C278 1.397 . S
C275 C270 1.391 . S
C275 C274 1.391 . S
C275 C276 1.399 . S
C276 C275 1.399 . S
C276 C277 1.396 . S
C276 C279 1.453 . S
C276 C280 1.684 . S
C277 C267 1.723 . S
C277 C276 1.396 . S
C277 C278 1.394 . S
C278 C248 1.723 . S
C278 C274 1.397 . S
C278 C277 1.394 . S
C279 H251 0.982 . S
C279 H255 0.979 . S
C279 H256 0.977 . S
C279 C276 1.453 . S
C280 H252 0.979 . S
C280 H253 0.980 . S
C280 H254 0.983 . S
C280 C276 1.684 . S
H281 C299 0.948 . S
H282 C240 0.948 . S
H283 C258 0.979 . S
H284 C258 0.980 . S
H285 C258 0.983 . S
H286 C257 0.982 . S
H287 C257 0.979 . S
H288 C257 0.977 . S
H289 C259 0.948 . S
H290 C261 0.947 . S
H291 C262 0.948 . S
H292 C268 0.982 . S
H293 C268 0.979 . S
H294 C268 0.977 . S
H295 C269 0.979 . S
H296 C269 0.980 . S
H297 C269 0.983 . S
H298 C242 0.947 . S
C299 C242 1.392 . S
C299 C243 1.419 . S
C299 H281 0.948 . S
C300 C301 1.391 . S
C300 C304 1.391 . S
C300 H342 0.948 . S
C301 C300 1.391 . S
C301 C302 1.391 . S
C302 C301 1.391 . S
C302 H358 0.947 . S
C302 C359 1.392 . S
C303 C304 1.391 . S
C303 C307 1.397 . S
C303 C359 1.419 . S
C304 C300 1.391 . S
C304 C303 1.391 . S
C304 C305 1.399 . S
C305 C304 1.399 . S
C305 C308 1.396 . S
C305 C317 1.453 . S
C305 C318 1.684 . S
H306 C330 0.948 . S
C307 C303 1.397 . S
C307 C308 1.394 . S
C307 C326 1.723 . S
C308 C305 1.396 . S
C308 C307 1.394 . S
C308 C338 1.723 . S
H309 C332 0.947 . S
H310 C333 0.948 . S
H311 C339 0.982 . S
H312 C340 0.979 . S
H313 C340 0.980 . S
H314 C340 0.983 . S
H315 C339 0.979 . S
H316 C339 0.977 . S
C317 C305 1.453 . S
C317 H346 0.982 . S
C317 H347 0.979 . S
C317 H348 0.977 . S
C318 C305 1.684 . S
C318 H343 0.979 . S
C318 H344 0.980 . S
C318 H345 0.983 . S
C319 C320 1.391 . S
C319 C324 1.391 . S
C319 H349 0.948 . S
C320 C319 1.391 . S
C320 C321 1.391 . S
C321 C320 1.391 . S
C321 C322 1.392 . S
C321 H350 0.947 . S
C322 C321 1.392 . S
C322 C323 1.419 . S
C322 H351 0.948 . S
C323 C322 1.419 . S
C323 C324 1.391 . S
C323 C327 1.397 . S
C324 C319 1.391 . S
C324 C323 1.391 . S
C324 C325 1.399 . S
C325 C324 1.399 . S
C325 C326 1.396 . S
C325 C328 1.453 . S
C325 C329 1.684 . S
C326 C307 1.723 . S
C326 C325 1.396 . S
C326 C327 1.394 . S
C327 C323 1.397 . S
C327 C326 1.394 . S
C327 C337 1.723 . S
C328 C325 1.453 . S
C328 H352 0.982 . S
C328 H353 0.979 . S
C328 H354 0.977 . S
C329 C325 1.684 . S
C329 H355 0.979 . S
C329 H356 0.980 . S
C329 H357 0.983 . S
C330 H306 0.948 . S
C330 C331 1.391 . S
C330 C335 1.391 . S
C331 C330 1.391 . S
C331 C332 1.391 . S
C332 H309 0.947 . S
C332 C331 1.391 . S
C332 C333 1.392 . S
C333 H310 0.948 . S
C333 C332 1.392 . S
C333 C334 1.419 . S
C334 C333 1.419 . S
C334 C335 1.391 . S
C334 C338 1.397 . S
C335 C330 1.391 . S
C335 C334 1.391 . S
C335 C336 1.399 . S
C336 C335 1.399 . S
C336 C337 1.396 . S
C336 C339 1.453 . S
C336 C340 1.684 . S
C337 C327 1.723 . S
C337 C336 1.396 . S
C337 C338 1.394 . S
C338 C308 1.723 . S
C338 C334 1.397 . S
C338 C337 1.394 . S
C339 H311 0.982 . S
C339 H315 0.979 . S
C339 H316 0.977 . S
C339 C336 1.453 . S
C340 H312 0.979 . S
C340 H313 0.980 . S
C340 H314 0.983 . S
C340 C336 1.684 . S
H341 C359 0.948 . S
H342 C300 0.948 . S
H343 C318 0.979 . S
H344 C318 0.980 . S
H345 C318 0.983 . S
H346 C317 0.982 . S
H347 C317 0.979 . S
H348 C317 0.977 . S
H349 C319 0.948 . S
H350 C321 0.947 . S
H351 C322 0.948 . S
H352 C328 0.982 . S
H353 C328 0.979 . S
H354 C328 0.977 . S
H355 C329 0.979 . S
H356 C329 0.980 . S
H357 C329 0.983 . S
H358 C302 0.947 . S
C359 C302 1.392 . S
C359 C303 1.419 . S
C359 H341 0.948 . S
C360 C361 1.391 . S
C360 C364 1.391 . S
C360 H402 0.948 . S
C361 C360 1.391 . S
C361 C362 1.391 . S
C362 C361 1.391 . S
C362 H418 0.947 . S
C362 C419 1.392 . S
C363 C364 1.391 . S
C363 C367 1.397 . S
C363 C419 1.419 . S
C364 C360 1.391 . S
C364 C363 1.391 . S
C364 C365 1.399 . S
C365 C364 1.399 . S
C365 C368 1.396 . S
C365 C377 1.453 . S
C365 C378 1.684 . S
H366 C390 0.948 . S
C367 C363 1.397 . S
C367 C368 1.394 . S
C367 C386 1.723 . S
C368 C365 1.396 . S
C368 C367 1.394 . S
C368 C398 1.723 . S
H369 C392 0.947 . S
H370 C393 0.948 . S
H371 C399 0.982 . S
H372 C400 0.979 . S
H373 C400 0.980 . S
H374 C400 0.983 . S
H375 C399 0.979 . S
H376 C399 0.977 . S
C377 C365 1.453 . S
C377 H406 0.982 . S
C377 H407 0.979 . S
C377 H408 0.977 . S
C378 C365 1.684 . S
C378 H403 0.979 . S
C378 H404 0.980 . S
C378 H405 0.983 . S
C379 C380 1.391 . S
C379 C384 1.391 . S
C379 H409 0.948 . S
C380 C379 1.391 . S
C380 C381 1.391 . S
C381 C380 1.391 . S
C381 C382 1.392 . S
C381 H410 0.947 . S
C382 C381 1.392 . S
C382 C383 1.419 . S
C382 H411 0.948 . S
C383 C382 1.419 . S
C383 C384 1.391 . S
C383 C387 1.397 . S
C384 C379 1.391 . S
C384 C383 1.391 . S
C384 C385 1.399 . S
C385 C384 1.399 . S
C385 C386 1.396 . S
C385 C388 1.453 . S
C385 C389 1.684 . S
C386 C367 1.723 . S
C386 C385 1.396 . S
C386 C387 1.394 . S
C387 C383 1.397 . S
C387 C386 1.394 . S
C387 C397 1.723 . S
C388 C385 1.453 . S
C388 H412 0.982 . S
C388 H413 0.979 . S
C388 H414 0.977 . S
C389 C385 1.684 . S
C389 H415 0.979 . S
C389 H416 0.980 . S
C389 H417 0.983 . S
C390 H366 0.948 . S
C390 C391 1.391 . S
C390 C395 1.391 . S
C391 C390 1.391 . S
C391 C392 1.391 . S
C392 H369 0.947 . S
C392 C391 1.391 . S
C392 C393 1.392 . S
C393 H370 0.948 . S
C393 C392 1.392 . S
C393 C394 1.419 . S
C394 C393 1.419 . S
C394 C395 1.391 . S
C394 C398 1.397 . S
C395 C390 1.391 . S
C395 C394 1.391 . S
C395 C396 1.399 . S
C396 C395 1.399 . S
C396 C397 1.396 . S
C396 C399 1.453 . S
C396 C400 1.684 . S
C397 C387 1.723 . S
C397 C396 1.396 . S
C397 C398 1.394 . S
C398 C368 1.723 . S
C398 C394 1.397 . S
C398 C397 1.394 . S
C399 H371 0.982 . S
C399 H375 0.979 . S
C399 H376 0.977 . S
C399 C396 1.453 . S
C400 H372 0.979 . S
C400 H373 0.980 . S
C400 H374 0.983 . S
C400 C396 1.684 . S
H401 C419 0.948 . S
H402 C360 0.948 . S
H403 C378 0.979 . S
H404 C378 0.980 . S
H405 C378 0.983 . S
H406 C377 0.982 . S
H407 C377 0.979 . S
H408 C377 0.977 . S
H409 C379 0.948 . S
H410 C381 0.947 . S
H411 C382 0.948 . S
H412 C388 0.982 . S
H413 C388 0.979 . S
H414 C388 0.977 . S
H415 C389 0.979 . S
H416 C389 0.980 . S
H417 C389 0.983 . S
H418 C362 0.947 . S
C419 C362 1.392 . S
C419 C363 1.419 . S
C419 H401 0.948 . S
C420 C421 1.391 . S
C420 C424 1.391 . S
C420 H462 0.948 . S
C421 C420 1.391 . S
C421 C422 1.391 . S
C422 C421 1.391 . S
C422 H478 0.947 . S
C422 C479 1.392 . S
C423 C424 1.391 . S
C423 C427 1.397 . S
C423 C479 1.419 . S
C424 C420 1.391 . S
C424 C423 1.391 . S
C424 C425 1.399 . S
C425 C424 1.399 . S
C425 C428 1.396 . S
C425 C437 1.453 . S
C425 C438 1.684 . S
H426 C450 0.948 . S
C427 C423 1.397 . S
C427 C428 1.394 . S
C427 C446 1.723 . S
C428 C425 1.396 . S
C428 C427 1.394 . S
C428 C458 1.723 . S
H429 C452 0.947 . S
H430 C453 0.948 . S
H431 C459 0.982 . S
H432 C460 0.979 . S
H433 C460 0.980 . S
H434 C460 0.983 . S
H435 C459 0.979 . S
H436 C459 0.977 . S
C437 C425 1.453 . S
C437 H466 0.982 . S
C437 H467 0.979 . S
C437 H468 0.977 . S
C438 C425 1.684 . S
C438 H463 0.979 . S
C438 H464 0.980 . S
C438 H465 0.983 . S
C439 C440 1.391 . S
C439 C444 1.391 . S
C439 H469 0.948 . S
C440 C439 1.391 . S
C440 C441 1.391 . S
C441 C440 1.391 . S
C441 C442 1.392 . S
C441 H470 0.947 . S
C442 C441 1.392 . S
C442 C443 1.419 . S
C442 H471 0.948 . S
C443 C442 1.419 . S
C443 C444 1.391 . S
C443 C447 1.397 . S
C444 C439 1.391 . S
C444 C443 1.391 . S
C444 C445 1.399 . S
C445 C444 1.399 . S
C445 C446 1.396 . S
C445 C448 1.453 . S
C445 C449 1.684 . S
C446 C427 1.723 . S
C446 C445 1.396 . S
C446 C447 1.394 . S
C447 C443 1.397 . S
C447 C446 1.394 . S
C447 C457 1.723 . S
C448 C445 1.453 . S
C448 H472 0.982 . S
C448 H473 0.979 . S
C448 H474 0.977 . S
C449 C445 1.684 . S
C449 H475 0.979 . S
C449 H476 0.980 . S
C449 H477 0.983 . S
C450 H426 0.948 . S
C450 C451 1.391 . S
C450 C455 1.391 . S
C451 C450 1.391 . S
C451 C452 1.391 . S
C452 H429 0.947 . S
C452 C451 1.391 . S
C452 C453 1.392 . S
C453 H430 0.948 . S
C453 C452 1.392 . S
C453 C454 1.419 . S
C454 C453 1.419 . S
C454 C455 1.391 . S
C454 C458 1.397 . S
C455 C450 1.391 . S
C455 C454 1.391 . S
C455 C456 1.399 . S
C456 C455 1.399 . S
C456 C457 1.396 . S
C456 C459 1.453 . S
C456 C460 1.684 . S
C457 C447 1.723 . S
C457 C456 1.396 . S
C457 C458 1.394 . S
C458 C428 1.723 . S
C458 C454 1.397 . S
C458 C457 1.394 . S
C459 H431 0.982 . S
C459 H435 0.979 . S
C459 H436 0.977 . S
C459 C456 1.453 . S
C460 H432 0.979 . S
C460 H433 0.980 . S
C460 H434 0.983 . S
C460 C456 1.684 . S
H461 C479 0.948 . S
H462 C420 0.948 . S
H463 C438 0.979 . S
H464 C438 0.980 . S
H465 C438 0.983 . S
H466 C437 0.982 . S
H467 C437 0.979 . S
H468 C437 0.977 . S
H469 C439 0.948 . S
H470 C441 0.947 . S
H471 C442 0.948 . S
H472 C448 0.982 . S
H473 C448 0.979 . S
H474 C448 0.977 . S
H475 C449 0.979 . S
H476 C449 0.980 . S
H477 C449 0.983 . S
H478 C422 0.947 . S
C479 C422 1.392 . S
C479 C423 1.419 . S
C479 H461 0.948 . S
Zn480 O486 1.920 1_455 S
Zn480 O492 1.898 . S
Zn480 O495 1.905 . S
Zn481 O489 1.905 1_655 S
Zn481 O490 1.898 . S
Zn481 O498 1.920 . S
Zn482 O485 2.080 1_455 S
Zn482 O488 2.114 . S
Zn482 O491 2.120 1_455 S
Zn482 O493 2.120 . S
Zn482 O494 2.114 . S
Zn482 O497 2.080 1_455 S
C483 O488 1.166 . S
C483 O489 1.182 . S
C484 O490 1.167 . S
C484 O491 1.299 . S
O485 Zn482 2.080 1_655 S
O485 C499 1.305 . S
O486 Zn480 1.920 1_655 S
O486 C499 1.234 . S
C487 O492 1.167 . S
C487 O493 1.299 . S
O488 Zn482 2.114 . S
O488 C483 1.166 . S
O489 Zn481 1.905 1_455 S
O489 C483 1.182 . S
O490 Zn481 1.898 . S
O490 C484 1.167 . S
O491 Zn482 2.120 1_655 S
O491 C484 1.299 . S
O492 Zn480 1.898 . S
O492 C487 1.167 . S
O493 Zn482 2.120 . S
O493 C487 1.299 . S
O494 Zn482 2.114 . S
O494 C496 1.166 . S
O495 Zn480 1.905 . S
O495 C496 1.182 . S
C496 O494 1.166 . S
C496 O495 1.182 . S
O497 Zn482 2.080 1_655 S
O497 C500 1.305 . S
O498 Zn481 1.920 . S
O498 C500 1.234 . S
C499 O485 1.305 . S
C499 O486 1.234 . S
C500 O497 1.305 . S
C500 O498 1.234 . S
Zn501 O507 1.920 . S
Zn501 O513 1.898 . S
Zn501 O516 1.905 . S
Zn502 O510 1.905 . S
Zn502 O511 1.898 . S
Zn502 O519 1.920 . S
Zn503 O506 2.080 . S
Zn503 O509 2.114 . S
Zn503 O512 2.120 . S
Zn503 O514 2.120 . S
Zn503 O515 2.114 . S
Zn503 O518 2.080 . S
C504 O509 1.166 . S
C504 O510 1.182 . S
C505 O511 1.167 . S
C505 O512 1.299 . S
O506 Zn503 2.080 . S
O506 C520 1.305 . S
O507 Zn501 1.920 . S
O507 C520 1.234 . S
C508 O513 1.167 . S
C508 O514 1.299 . S
O509 Zn503 2.114 . S
O509 C504 1.166 . S
O510 Zn502 1.905 . S
O510 C504 1.182 . S
O511 Zn502 1.898 . S
O511 C505 1.167 . S
O512 Zn503 2.120 . S
O512 C505 1.299 . S
O513 Zn501 1.898 . S
O513 C508 1.167 . S
O514 Zn503 2.120 . S
O514 C508 1.299 . S
O515 Zn503 2.114 . S
O515 C517 1.166 . S
O516 Zn501 1.905 . S
O516 C517 1.182 . S
C517 O515 1.166 . S
C517 O516 1.182 . S
O518 Zn503 2.080 . S
O518 C521 1.305 . S
O519 Zn502 1.920 . S
O519 C521 1.234 . S
C520 O506 1.305 . S
C520 O507 1.234 . S
C521 O518 1.305 . S
C521 O519 1.234 . S
Zn522 O528 1.920 . S
Zn522 O534 1.898 . S
Zn522 O537 1.905 1_455 S
Zn523 O531 1.905 . S
Zn523 O532 1.898 . S
Zn523 O540 1.920 1_655 S
Zn524 O527 2.080 . S
Zn524 O530 2.114 1_455 S
Zn524 O533 2.120 1_455 S
Zn524 O535 2.120 . S
Zn524 O536 2.114 1_455 S
Zn524 O539 2.080 . S
C525 O530 1.166 . S
C525 O531 1.182 . S
C526 O532 1.167 . S
C526 O533 1.299 . S
O527 Zn524 2.080 . S
O527 C541 1.305 . S
O528 Zn522 1.920 . S
O528 C541 1.234 . S
C529 O534 1.167 . S
C529 O535 1.299 . S
O530 Zn524 2.114 1_655 S
O530 C525 1.166 . S
O531 Zn523 1.905 . S
O531 C525 1.182 . S
O532 Zn523 1.898 . S
O532 C526 1.167 . S
O533 Zn524 2.120 1_655 S
O533 C526 1.299 . S
O534 Zn522 1.898 . S
O534 C529 1.167 . S
O535 Zn524 2.120 . S
O535 C529 1.299 . S
O536 Zn524 2.114 1_655 S
O536 C538 1.166 . S
O537 Zn522 1.905 1_655 S
O537 C538 1.182 . S
C538 O536 1.166 . S
C538 O537 1.182 . S
O539 Zn524 2.080 . S
O539 C542 1.305 . S
O540 Zn523 1.920 1_455 S
O540 C542 1.234 . S
C541 O527 1.305 . S
C541 O528 1.234 . S
C542 O539 1.305 . S
C542 O540 1.234 . S
Zn543 O549 1.920 . S
Zn543 O555 1.898 . S
Zn543 O558 1.905 . S
Zn544 O552 1.905 . S
Zn544 O553 1.898 . S
Zn544 O561 1.920 . S
Zn545 O548 2.080 . S
Zn545 O551 2.114 . S
Zn545 O554 2.120 . S
Zn545 O556 2.120 . S
Zn545 O557 2.114 . S
Zn545 O560 2.080 . S
C546 O551 1.166 . S
C546 O552 1.182 . S
C547 O553 1.167 . S
C547 O554 1.299 . S
O548 Zn545 2.080 . S
O548 C562 1.305 . S
O549 Zn543 1.920 . S
O549 C562 1.234 . S
C550 O555 1.167 . S
C550 O556 1.299 . S
O551 Zn545 2.114 . S
O551 C546 1.166 . S
O552 Zn544 1.905 . S
O552 C546 1.182 . S
O553 Zn544 1.898 . S
O553 C547 1.167 . S
O554 Zn545 2.120 . S
O554 C547 1.299 . S
O555 Zn543 1.898 . S
O555 C550 1.167 . S
O556 Zn545 2.120 . S
O556 C550 1.299 . S
O557 Zn545 2.114 . S
O557 C559 1.166 . S
O558 Zn543 1.905 . S
O558 C559 1.182 . S
C559 O557 1.166 . S
C559 O558 1.182 . S
O560 Zn545 2.080 . S
O560 C563 1.305 . S
O561 Zn544 1.920 . S
O561 C563 1.234 . S
C562 O548 1.305 . S
C562 O549 1.234 . S
C563 O560 1.305 . S
C563 O561 1.234 . S
H564 C572 0.929 . S
H565 C574 0.930 . S
H566 C576 0.930 . S
H567 C579 0.929 . S
H568 C582 0.930 . S
H569 C584 0.960 . S
H570 C584 0.960 . S
H571 C584 0.960 . S
C572 H564 0.929 . S
C572 C573 1.377 . S
C572 C574 1.384 . S
C573 C572 1.377 . S
C573 C579 1.390 . S
C574 H565 0.930 . S
C574 C572 1.384 . S
C574 C575 1.372 . S
C575 C574 1.372 . S
C575 C576 1.400 . S
C575 C580 1.490 . S
C576 H566 0.930 . S
C576 C575 1.400 . S
C576 C579 1.386 . S
H577 C593 0.930 . S
H578 C594 0.931 . S
C579 H567 0.929 . S
C579 C573 1.390 . S
C579 C576 1.386 . S
C580 C575 1.490 . S
C580 C582 1.395 1_565 S
C580 C583 1.403 . S
H581 C587 0.930 . S
C582 H568 0.930 . S
C582 C580 1.395 1_545 S
C582 C585 1.403 . S
C583 C580 1.403 . S
C583 C584 1.524 . S
C583 C587 1.400 1_565 S
C584 H569 0.960 . S
C584 H570 0.960 . S
C584 H571 0.960 . S
C584 C583 1.524 . S
C585 C582 1.403 . S
C585 C586 1.392 . S
C585 C589 1.495 . S
C586 C585 1.392 . S
C586 C587 1.385 . S
C586 C588 1.478 . S
C587 H581 0.930 . S
C587 C583 1.400 1_545 S
C587 C586 1.385 . S
C588 C586 1.478 . S
C588 C590 1.381 . S
C588 C594 1.383 . S
C589 C585 1.495 . S
C589 H595 0.959 . S
C589 H596 0.961 . S
C589 H597 0.960 . S
C590 C588 1.381 . S
C590 C591 1.394 . S
C590 H598 0.930 . S
C591 C590 1.394 . S
C591 C592 1.383 . S
C591 H599 0.929 . S
C592 C591 1.383 . S
C592 C593 1.377 . S
C593 H577 0.930 . S
C593 C592 1.377 . S
C593 C594 1.379 . S
C594 H578 0.931 . S
C594 C588 1.383 . S
C594 C593 1.379 . S
H595 C589 0.959 . S
H596 C589 0.961 . S
H597 C589 0.960 . S
H598 C590 0.930 . S
H599 C591 0.929 . S
H600 C608 0.929 . S
H601 C610 0.930 . S
H602 C612 0.930 . S
H603 C615 0.929 . S
H604 C618 0.930 . S
H605 C620 0.960 . S
H606 C620 0.960 . S
H607 C620 0.960 . S
C608 H600 0.929 . S
C608 C609 1.377 . S
C608 C610 1.384 . S
C609 C608 1.377 . S
C609 C615 1.390 . S
C610 H601 0.930 . S
C610 C608 1.384 . S
C610 C611 1.372 . S
C611 C610 1.372 . S
C611 C612 1.400 . S
C611 C616 1.490 . S
C612 H602 0.930 . S
C612 C611 1.400 . S
C612 C615 1.386 . S
H613 C629 0.930 . S
H614 C630 0.931 . S
C615 H603 0.929 . S
C615 C609 1.390 . S
C615 C612 1.386 . S
C616 C611 1.490 . S
C616 C618 1.395 . S
C616 C619 1.403 . S
H617 C623 0.930 . S
C618 H604 0.930 . S
C618 C616 1.395 . S
C618 C621 1.403 . S
C619 C616 1.403 . S
C619 C620 1.524 . S
C619 C623 1.400 . S
C620 H605 0.960 . S
C620 H606 0.960 . S
C620 H607 0.960 . S
C620 C619 1.524 . S
C621 C618 1.403 . S
C621 C622 1.392 . S
C621 C625 1.495 . S
C622 C621 1.392 . S
C622 C623 1.385 . S
C622 C624 1.478 . S
C623 H617 0.930 . S
C623 C619 1.400 . S
C623 C622 1.385 . S
C624 C622 1.478 . S
C624 C626 1.381 . S
C624 C630 1.383 . S
C625 C621 1.495 . S
C625 H631 0.959 . S
C625 H632 0.961 . S
C625 H633 0.960 . S
C626 C624 1.381 . S
C626 C627 1.394 . S
C626 H634 0.930 . S
C627 C626 1.394 . S
C627 C628 1.383 . S
C627 H635 0.929 . S
C628 C627 1.383 . S
C628 C629 1.377 . S
C629 H613 0.930 . S
C629 C628 1.377 . S
C629 C630 1.379 . S
C630 H614 0.931 . S
C630 C624 1.383 . S
C630 C629 1.379 . S
H631 C625 0.959 . S
H632 C625 0.961 . S
H633 C625 0.960 . S
H634 C626 0.930 . S
H635 C627 0.929 . S
H636 C644 0.929 . S
H637 C646 0.930 . S
H638 C648 0.930 . S
H639 C651 0.929 . S
H640 C654 0.930 . S
H641 C656 0.960 . S
H642 C656 0.960 . S
H643 C656 0.960 . S
C644 H636 0.929 . S
C644 C645 1.377 . S
C644 C646 1.384 . S
C645 C644 1.377 . S
C645 C651 1.390 . S
C646 H637 0.930 . S
C646 C644 1.384 . S
C646 C647 1.372 . S
C647 C646 1.372 . S
C647 C648 1.400 . S
C647 C652 1.490 . S
C648 H638 0.930 . S
C648 C647 1.400 . S
C648 C651 1.386 . S
H649 C665 0.930 . S
H650 C666 0.931 . S
C651 H639 0.929 . S
C651 C645 1.390 . S
C651 C648 1.386 . S
C652 C647 1.490 . S
C652 C654 1.395 . S
C652 C655 1.403 . S
H653 C659 0.930 . S
C654 H640 0.930 . S
C654 C652 1.395 . S
C654 C657 1.403 . S
C655 C652 1.403 . S
C655 C656 1.524 . S
C655 C659 1.400 . S
C656 H641 0.960 . S
C656 H642 0.960 . S
C656 H643 0.960 . S
C656 C655 1.524 . S
C657 C654 1.403 . S
C657 C658 1.392 . S
C657 C661 1.495 . S
C658 C657 1.392 . S
C658 C659 1.385 . S
C658 C660 1.478 . S
C659 H653 0.930 . S
C659 C655 1.400 . S
C659 C658 1.385 . S
C660 C658 1.478 . S
C660 C662 1.381 . S
C660 C666 1.383 . S
C661 C657 1.495 . S
C661 H667 0.959 . S
C661 H668 0.961 . S
C661 H669 0.960 . S
C662 C660 1.381 . S
C662 C663 1.394 . S
C662 H670 0.930 . S
C663 C662 1.394 . S
C663 C664 1.383 . S
C663 H671 0.929 . S
C664 C663 1.383 . S
C664 C665 1.377 . S
C665 H649 0.930 . S
C665 C664 1.377 . S
C665 C666 1.379 . S
C666 H650 0.931 . S
C666 C660 1.383 . S
C666 C665 1.379 . S
H667 C661 0.959 . S
H668 C661 0.961 . S
H669 C661 0.960 . S
H670 C662 0.930 . S
H671 C663 0.929 . S
H672 C680 0.929 . S
H673 C682 0.930 . S
H674 C684 0.930 . S
H675 C687 0.929 . S
H676 C690 0.930 1_565 S
H677 C692 0.960 . S
H678 C692 0.960 . S
H679 C692 0.960 . S
C680 H672 0.929 . S
C680 C681 1.377 . S
C680 C682 1.384 . S
C681 C680 1.377 . S
C681 C687 1.390 . S
C682 H673 0.930 . S
C682 C680 1.384 . S
C682 C683 1.372 . S
C683 C682 1.372 . S
C683 C684 1.400 . S
C683 C688 1.490 . S
C684 H674 0.930 . S
C684 C683 1.400 . S
C684 C687 1.386 . S
H685 C701 0.930 . S
H686 C702 0.931 . S
C687 H675 0.929 . S
C687 C681 1.390 . S
C687 C684 1.386 . S
C688 C683 1.490 . S
C688 C690 1.395 1_565 S
C688 C691 1.403 1_565 S
H689 C695 0.930 . S
C690 H676 0.930 1_545 S
C690 C688 1.395 1_545 S
C690 C693 1.403 . S
C691 C688 1.403 1_545 S
C691 C692 1.524 1_545 S
C691 C695 1.400 . S
C692 H677 0.960 . S
C692 H678 0.960 . S
C692 H679 0.960 . S
C692 C691 1.524 1_565 S
C693 C690 1.403 . S
C693 C694 1.392 . S
C693 C697 1.495 . S
C694 C693 1.392 . S
C694 C695 1.385 . S
C694 C696 1.478 . S
C695 H689 0.930 . S
C695 C691 1.400 . S
C695 C694 1.385 . S
C696 C694 1.478 . S
C696 C698 1.381 . S
C696 C702 1.383 . S
C697 C693 1.495 . S
C697 H703 0.959 . S
C697 H704 0.961 . S
C697 H705 0.960 . S
C698 C696 1.381 . S
C698 C699 1.394 . S
C698 H706 0.930 . S
C699 C698 1.394 . S
C699 C700 1.383 . S
C699 H707 0.948 . S
C700 C699 1.383 . S
C700 C701 1.377 . S
C701 H685 0.930 . S
C701 C700 1.377 . S
C701 C702 1.379 . S
C702 H686 0.931 . S
C702 C696 1.383 . S
C702 C701 1.379 . S
H703 C697 0.959 . S
H704 C697 0.961 . S
H705 C697 0.960 . S
H706 C698 0.930 . S
H707 C699 0.948 . S
H708 C716 0.929 . S
H709 C718 0.930 . S
H710 C720 0.930 . S
H711 C723 0.929 . S
H712 C726 0.930 . S
H713 C728 0.960 . S
H714 C728 0.960 1_545 S
H715 C728 0.960 . S
C716 H708 0.929 . S
C716 C717 1.377 . S
C716 C718 1.384 . S
C717 C716 1.377 . S
C717 C723 1.390 . S
C718 H709 0.930 . S
C718 C716 1.384 . S
C718 C719 1.372 . S
C719 C718 1.372 . S
C719 C720 1.400 . S
C719 C724 1.490 . S
C720 H710 0.930 . S
C720 C719 1.400 . S
C720 C723 1.386 . S
H721 C737 0.930 . S
H722 C738 0.931 . S
C723 H711 0.929 . S
C723 C717 1.390 . S
C723 C720 1.386 . S
C724 C719 1.490 . S
C724 C726 1.395 . S
C724 C727 1.403 1_545 S
H725 C731 0.930 . S
C726 H712 0.930 . S
C726 C724 1.395 . S
C726 C729 1.403 1_545 S
C727 C724 1.403 1_565 S
C727 C728 1.524 . S
C727 C731 1.400 . S
C728 H713 0.960 . S
C728 H714 0.960 1_565 S
C728 H715 0.960 . S
C728 C727 1.524 . S
C729 C726 1.403 1_565 S
C729 C730 1.392 . S
C729 C733 1.495 . S
C730 C729 1.392 . S
C730 C731 1.385 . S
C730 C732 1.478 . S
C731 H725 0.930 . S
C731 C727 1.400 . S
C731 C730 1.385 . S
C732 C730 1.478 . S
C732 C734 1.381 . S
C732 C738 1.383 . S
C733 C729 1.495 . S
C733 H739 0.959 . S
C733 H740 0.961 . S
C733 H741 0.960 . S
C734 C732 1.381 . S
C734 C735 1.394 . S
C734 H742 0.930 . S
C735 C734 1.394 . S
C735 C736 1.383 . S
C735 H743 0.929 . S
C736 C735 1.383 . S
C736 C737 1.377 . S
C737 H721 0.930 . S
C737 C736 1.377 . S
C737 C738 1.379 . S
C738 H722 0.931 . S
C738 C732 1.383 . S
C738 C737 1.379 . S
H739 C733 0.959 . S
H740 C733 0.961 . S
H741 C733 0.960 . S
H742 C734 0.930 . S
H743 C735 0.929 . S
H744 C752 0.929 . S
H745 C754 0.930 . S
H746 C756 0.930 . S
H747 C759 0.929 . S
H748 C762 0.930 . S
H749 C764 0.960 . S
H750 C764 0.960 . S
H751 C764 0.960 . S
C752 H744 0.929 . S
C752 C753 1.377 . S
C752 C754 1.384 . S
C753 C752 1.377 . S
C753 C759 1.390 . S
C754 H745 0.930 . S
C754 C752 1.384 . S
C754 C755 1.372 . S
C755 C754 1.372 . S
C755 C756 1.400 . S
C755 C760 1.490 . S
C756 H746 0.930 . S
C756 C755 1.400 . S
C756 C759 1.386 . S
H757 C773 0.930 . S
H758 C774 0.931 . S
C759 H747 0.929 . S
C759 C753 1.390 . S
C759 C756 1.386 . S
C760 C755 1.490 . S
C760 C762 1.395 . S
C760 C763 1.403 . S
H761 C767 0.930 . S
C762 H748 0.930 . S
C762 C760 1.395 . S
C762 C765 1.403 . S
C763 C760 1.403 . S
C763 C764 1.524 . S
C763 C767 1.400 . S
C764 H749 0.960 . S
C764 H750 0.960 . S
C764 H751 0.960 . S
C764 C763 1.524 . S
C765 C762 1.403 . S
C765 C766 1.392 . S
C765 C769 1.495 . S
C766 C765 1.392 . S
C766 C767 1.385 . S
C766 C768 1.478 . S
C767 H761 0.930 . S
C767 C763 1.400 . S
C767 C766 1.385 . S
C768 C766 1.478 . S
C768 C770 1.381 . S
C768 C774 1.383 . S
C769 C765 1.495 . S
C769 H775 0.959 . S
C769 H776 0.961 . S
C769 H777 0.960 . S
C770 C768 1.381 . S
C770 C771 1.394 . S
C770 H778 0.930 . S
C771 C770 1.394 . S
C771 C772 1.383 . S
C771 H779 0.929 . S
C772 C771 1.383 . S
C772 C773 1.377 . S
C773 H757 0.930 . S
C773 C772 1.377 . S
C773 C774 1.379 . S
C774 H758 0.931 . S
C774 C768 1.383 . S
C774 C773 1.379 . S
H775 C769 0.959 . S
H776 C769 0.961 . S
H777 C769 0.960 . S
H778 C770 0.930 . S
H779 C771 0.929 . S
H780 C788 0.929 . S
H781 C790 0.930 . S
H782 C792 0.930 . S
H783 C795 0.929 . S
H784 C798 0.930 . S
H785 C800 0.960 . S
H786 C800 0.960 . S
H787 C800 0.960 . S
C788 H780 0.929 . S
C788 C789 1.377 . S
C788 C790 1.384 . S
C789 C788 1.377 . S
C789 C795 1.390 . S
C790 H781 0.930 . S
C790 C788 1.384 . S
C790 C791 1.372 . S
C791 C790 1.372 . S
C791 C792 1.400 . S
C791 C796 1.490 . S
C792 H782 0.930 . S
C792 C791 1.400 . S
C792 C795 1.386 . S
H793 C809 0.930 . S
H794 C810 0.931 . S
C795 H783 0.929 . S
C795 C789 1.390 . S
C795 C792 1.386 . S
C796 C791 1.490 . S
C796 C798 1.395 . S
C796 C799 1.403 . S
H797 C803 0.930 . S
C798 H784 0.930 . S
C798 C796 1.395 . S
C798 C801 1.403 . S
C799 C796 1.403 . S
C799 C800 1.524 . S
C799 C803 1.400 . S
C800 H785 0.960 . S
C800 H786 0.960 . S
C800 H787 0.960 . S
C800 C799 1.524 . S
C801 C798 1.403 . S
C801 C802 1.392 . S
C801 C805 1.495 . S
C802 C801 1.392 . S
C802 C803 1.385 . S
C802 C804 1.478 . S
C803 H797 0.930 . S
C803 C799 1.400 . S
C803 C802 1.385 . S
C804 C802 1.478 . S
C804 C806 1.381 . S
C804 C810 1.383 . S
C805 C801 1.495 . S
C805 H811 0.959 . S
C805 H812 0.961 . S
C805 H813 0.960 . S
C806 C804 1.381 . S
C806 C807 1.394 . S
C806 H814 0.930 . S
C807 C806 1.394 . S
C807 C808 1.383 . S
C807 H815 0.929 . S
C808 C807 1.383 . S
C808 C809 1.377 . S
C809 H793 0.930 . S
C809 C808 1.377 . S
C809 C810 1.379 . S
C810 H794 0.931 . S
C810 C804 1.383 . S
C810 C809 1.379 . S
H811 C805 0.959 . S
H812 C805 0.961 . S
H813 C805 0.960 . S
H814 C806 0.930 . S
H815 C807 0.929 . S
H816 C824 0.929 . S
H817 C826 0.930 . S
H818 C828 0.930 . S
H819 C831 0.929 . S
H820 C834 0.929 . S
H821 C836 0.960 . S
H822 C836 0.960 . S
H823 C836 0.960 1_545 S
C824 H816 0.929 . S
C824 C825 1.377 . S
C824 C826 1.384 . S
C825 C824 1.377 . S
C825 C831 1.390 . S
C826 H817 0.930 . S
C826 C824 1.384 . S
C826 C827 1.372 . S
C827 C826 1.372 . S
C827 C828 1.400 . S
C827 C832 1.490 . S
C828 H818 0.930 . S
C828 C827 1.400 . S
C828 C831 1.386 . S
H829 C845 0.930 . S
H830 C846 0.931 . S
C831 H819 0.929 . S
C831 C825 1.390 . S
C831 C828 1.386 . S
C832 C827 1.490 . S
C832 C834 1.394 . S
C832 C835 1.403 1_545 S
H833 C839 0.930 . S
C834 H820 0.929 . S
C834 C832 1.394 . S
C834 C837 1.405 1_545 S
C835 C832 1.403 1_565 S
C835 C836 1.524 . S
C835 C839 1.400 . S
C836 H821 0.960 . S
C836 H822 0.960 . S
C836 H823 0.960 1_565 S
C836 C835 1.524 . S
C837 C834 1.405 1_565 S
C837 C838 1.392 . S
C837 C841 1.495 . S
C838 C837 1.392 . S
C838 C839 1.385 . S
C838 C840 1.478 . S
C839 H833 0.930 . S
C839 C835 1.400 . S
C839 C838 1.385 . S
C840 C838 1.478 . S
C840 C842 1.381 . S
C840 C846 1.383 . S
C841 C837 1.495 . S
C841 H847 0.959 . S
C841 H848 0.961 . S
C841 H849 0.960 . S
C842 C840 1.381 . S
C842 C843 1.394 . S
C842 H850 0.930 . S
C843 C842 1.394 . S
C843 C844 1.383 . S
C843 H851 0.929 . S
C844 C843 1.383 . S
C844 C845 1.377 . S
C845 H829 0.930 . S
C845 C844 1.377 . S
C845 C846 1.379 . S
C846 H830 0.931 . S
C846 C840 1.383 . S
C846 C845 1.379 . S
H847 C841 0.959 . S
H848 C841 0.961 . S
H849 C841 0.960 . S
H850 C842 0.930 . S
H851 C843 0.929 . S
H852 C860 0.929 . S
H853 C862 0.930 . S
H854 C864 0.930 . S
H855 C867 0.929 . S
H856 C870 0.930 . S
H857 C872 0.960 . S
H858 C872 0.960 . S
H859 C872 0.960 . S
C860 H852 0.929 . S
C860 C861 1.377 . S
C860 C862 1.384 . S
C861 C860 1.377 . S
C861 C867 1.390 . S
C862 H853 0.930 . S
C862 C860 1.384 . S
C862 C863 1.372 . S
C863 C862 1.372 . S
C863 C864 1.400 . S
C863 C868 1.490 . S
C864 H854 0.930 . S
C864 C863 1.400 . S
C864 C867 1.386 . S
H865 C881 0.930 . S
H866 C882 0.931 . S
C867 H855 0.929 . S
C867 C861 1.390 . S
C867 C864 1.386 . S
C868 C863 1.490 . S
C868 C870 1.395 . S
C868 C871 1.403 . S
H869 C875 0.930 . S
C870 H856 0.930 . S
C870 C868 1.395 . S
C870 C873 1.403 . S
C871 C868 1.403 . S
C871 C872 1.524 . S
C871 C875 1.400 . S
C872 H857 0.960 . S
C872 H858 0.960 . S
C872 H859 0.960 . S
C872 C871 1.524 . S
C873 C870 1.403 . S
C873 C874 1.392 . S
C873 C877 1.495 . S
C874 C873 1.392 . S
C874 C875 1.385 . S
C874 C876 1.478 . S
C875 H869 0.930 . S
C875 C871 1.400 . S
C875 C874 1.385 . S
C876 C874 1.478 . S
C876 C878 1.381 . S
C876 C882 1.383 . S
C877 C873 1.495 . S
C877 H883 0.959 . S
C877 H884 0.961 . S
C877 H885 0.960 . S
C878 C876 1.381 . S
C878 C879 1.394 . S
C878 H886 0.930 . S
C879 C878 1.394 . S
C879 C880 1.383 . S
C879 H887 0.929 . S
C880 C879 1.383 . S
C880 C881 1.377 . S
C881 H865 0.930 . S
C881 C880 1.377 . S
C881 C882 1.379 . S
C882 H866 0.931 . S
C882 C876 1.383 . S
C882 C881 1.379 . S
H883 C877 0.959 . S
H884 C877 0.961 . S
H885 C877 0.960 . S
H886 C878 0.930 . S
H887 C879 0.929 . S
H888 C896 0.929 . S
H889 C898 0.930 . S
H890 C900 0.930 . S
H891 C903 0.929 . S
H892 C906 0.930 . S
H893 C908 0.960 . S
H894 C908 0.960 . S
H895 C908 0.960 . S
C896 H888 0.929 . S
C896 C897 1.377 . S
C896 C898 1.384 . S
C897 C896 1.377 . S
C897 C903 1.390 . S
C898 H889 0.930 . S
C898 C896 1.384 . S
C898 C899 1.372 . S
C899 C898 1.372 . S
C899 C900 1.400 . S
C899 C904 1.490 . S
C900 H890 0.930 . S
C900 C899 1.400 . S
C900 C903 1.386 . S
H901 C917 0.930 . S
H902 C918 0.931 . S
C903 H891 0.929 . S
C903 C897 1.390 . S
C903 C900 1.386 . S
C904 C899 1.490 . S
C904 C906 1.395 . S
C904 C907 1.403 . S
H905 C911 0.930 . S
C906 H892 0.930 . S
C906 C904 1.395 . S
C906 C909 1.403 . S
C907 C904 1.403 . S
C907 C908 1.524 . S
C907 C911 1.400 . S
C908 H893 0.960 . S
C908 H894 0.960 . S
C908 H895 0.960 . S
C908 C907 1.524 . S
C909 C906 1.403 . S
C909 C910 1.392 . S
C909 C913 1.495 . S
C910 C909 1.392 . S
C910 C911 1.385 . S
C910 C912 1.478 . S
C911 H905 0.930 . S
C911 C907 1.400 . S
C911 C910 1.385 . S
C912 C910 1.478 . S
C912 C914 1.381 . S
C912 C918 1.383 . S
C913 C909 1.495 . S
C913 H919 0.959 . S
C913 H920 0.961 . S
C913 H921 0.960 . S
C914 C912 1.381 . S
C914 C915 1.394 . S
C914 H922 0.930 . S
C915 C914 1.394 . S
C915 C916 1.383 . S
C915 H923 0.929 . S
C916 C915 1.383 . S
C916 C917 1.377 . S
C917 H901 0.930 . S
C917 C916 1.377 . S
C917 C918 1.379 . S
C918 H902 0.931 . S
C918 C912 1.383 . S
C918 C917 1.379 . S
H919 C913 0.959 . S
H920 C913 0.961 . S
H921 C913 0.960 . S
H922 C914 0.930 . S
H923 C915 0.929 . S
H924 C932 0.929 . S
H925 C934 0.930 . S
H926 C936 0.930 . S
H927 C939 0.929 . S
H928 C942 0.930 . S
H929 C944 0.960 . S
H930 C944 0.960 . S
H931 C944 0.960 . S
C932 H924 0.929 . S
C932 C933 1.377 . S
C932 C934 1.384 . S
C933 C932 1.377 . S
C933 C939 1.390 . S
C934 H925 0.930 . S
C934 C932 1.384 . S
C934 C935 1.372 . S
C935 C934 1.372 . S
C935 C936 1.400 . S
C935 C940 1.490 . S
C936 H926 0.930 . S
C936 C935 1.400 . S
C936 C939 1.386 . S
H937 C953 0.930 . S
H938 C954 0.931 . S
C939 H927 0.929 . S
C939 C933 1.390 . S
C939 C936 1.386 . S
C940 C935 1.490 . S
C940 C942 1.395 . S
C940 C943 1.403 . S
H941 C947 0.930 . S
C942 H928 0.930 . S
C942 C940 1.395 . S
C942 C945 1.403 . S
C943 C940 1.403 . S
C943 C944 1.524 . S
C943 C947 1.400 . S
C944 H929 0.960 . S
C944 H930 0.960 . S
C944 H931 0.960 . S
C944 C943 1.524 . S
C945 C942 1.403 . S
C945 C946 1.392 . S
C945 C949 1.495 . S
C946 C945 1.392 . S
C946 C947 1.385 . S
C946 C948 1.478 . S
C947 H941 0.930 . S
C947 C943 1.400 . S
C947 C946 1.385 . S
C948 C946 1.478 . S
C948 C950 1.381 . S
C948 C954 1.383 . S
C949 C945 1.495 . S
C949 H955 0.959 . S
C949 H956 0.961 . S
C949 H957 0.960 . S
C950 C948 1.381 . S
C950 C951 1.394 . S
C950 H958 0.930 . S
C951 C950 1.394 . S
C951 C952 1.383 . S
C951 H959 0.929 . S
C952 C951 1.383 . S
C952 C953 1.377 . S
C953 H937 0.930 . S
C953 C952 1.377 . S
C953 C954 1.379 . S
C954 H938 0.931 . S
C954 C948 1.383 . S
C954 C953 1.379 . S
H955 C949 0.959 . S
H956 C949 0.961 . S
H957 C949 0.960 . S
H958 C950 0.930 . S
H959 C951 0.929 . S
H960 C968 0.929 . S
H961 C970 0.930 . S
H962 C972 0.930 . S
H963 C975 0.929 . S
H964 C978 0.930 . S
H965 C980 0.960 . S
H966 C980 0.960 . S
H967 C980 0.960 . S
C968 H960 0.929 . S
C968 C969 1.377 . S
C968 C970 1.384 . S
C969 C968 1.377 . S
C969 C975 1.390 . S
C970 H961 0.930 . S
C970 C968 1.384 . S
C970 C971 1.372 . S
C971 C970 1.372 . S
C971 C972 1.400 . S
C971 C976 1.490 . S
C972 H962 0.930 . S
C972 C971 1.400 . S
C972 C975 1.386 . S
H973 C989 0.930 . S
H974 C990 0.931 . S
C975 H963 0.929 . S
C975 C969 1.390 . S
C975 C972 1.386 . S
C976 C971 1.490 . S
C976 C978 1.395 . S
C976 C979 1.403 . S
H977 C983 0.930 . S
C978 H964 0.930 . S
C978 C976 1.395 . S
C978 C981 1.403 . S
C979 C976 1.403 . S
C979 C980 1.524 . S
C979 C983 1.400 . S
C980 H965 0.960 . S
C980 H966 0.960 . S
C980 H967 0.960 . S
C980 C979 1.524 . S
C981 C978 1.403 . S
C981 C982 1.392 . S
C981 C985 1.495 . S
C982 C981 1.392 . S
C982 C983 1.385 . S
C982 C984 1.478 . S
C983 H977 0.930 . S
C983 C979 1.400 . S
C983 C982 1.385 . S
C984 C982 1.478 . S
C984 C986 1.381 . S
C984 C990 1.383 . S
C985 C981 1.495 . S
C985 H991 0.959 . S
C985 H992 0.961 . S
C985 H993 0.960 . S
C986 C984 1.381 . S
C986 C987 1.394 . S
C986 H994 0.930 . S
C987 C986 1.394 . S
C987 C988 1.383 . S
C987 H995 0.929 . S
C988 C987 1.383 . S
C988 C989 1.377 . S
C989 H973 0.930 . S
C989 C988 1.377 . S
C989 C990 1.379 . S
C990 H974 0.931 . S
C990 C984 1.383 . S
C990 C989 1.379 . S
H991 C985 0.959 . S
H992 C985 0.961 . S
H993 C985 0.960 . S
H994 C986 0.930 . S
H995 C987 0.929 . S
H996 C1004 0.929 . S
H997 C1006 0.930 . S
H998 C1008 0.930 . S
H999 C1011 0.929 . S
H1000 C1014 0.930 . S
H1001 C1016 0.960 . S
H1002 C1016 0.960 . S
H1003 C1016 0.960 . S
C1004 H996 0.929 . S
C1004 C1005 1.377 . S
C1004 C1006 1.384 . S
C1005 C1004 1.377 . S
C1005 C1011 1.390 . S
C1006 H997 0.930 . S
C1006 C1004 1.384 . S
C1006 C1007 1.372 . S
C1007 C1006 1.372 . S
C1007 C1008 1.400 . S
C1007 C1012 1.490 . S
C1008 H998 0.930 . S
C1008 C1007 1.400 . S
C1008 C1011 1.386 . S
H1009 C1025 0.930 . S
H1010 C1026 0.931 . S
C1011 H999 0.929 . S
C1011 C1005 1.390 . S
C1011 C1008 1.386 . S
C1012 C1007 1.490 . S
C1012 C1014 1.395 . S
C1012 C1015 1.403 . S
H1013 C1019 0.930 . S
C1014 H1000 0.930 . S
C1014 C1012 1.395 . S
C1014 C1017 1.403 . S
C1015 C1012 1.403 . S
C1015 C1016 1.524 . S
C1015 C1019 1.400 . S
C1016 H1001 0.960 . S
C1016 H1002 0.960 . S
C1016 H1003 0.960 . S
C1016 C1015 1.524 . S
C1017 C1014 1.403 . S
C1017 C1018 1.392 . S
C1017 C1021 1.495 . S
C1018 C1017 1.392 . S
C1018 C1019 1.385 . S
C1018 C1020 1.478 . S
C1019 H1013 0.930 . S
C1019 C1015 1.400 . S
C1019 C1018 1.385 . S
C1020 C1018 1.478 . S
C1020 C1022 1.381 . S
C1020 C1026 1.383 . S
C1021 C1017 1.495 . S
C1021 H1027 0.959 . S
C1021 H1028 0.961 . S
C1021 H1029 0.960 . S
C1022 C1020 1.381 . S
C1022 C1023 1.394 . S
C1022 H1030 0.930 . S
C1023 C1022 1.394 . S
C1023 C1024 1.383 . S
C1023 H1031 0.929 . S
C1024 C1023 1.383 . S
C1024 C1025 1.377 . S
C1025 H1009 0.930 . S
C1025 C1024 1.377 . S
C1025 C1026 1.379 . S
C1026 H1010 0.931 . S
C1026 C1020 1.383 . S
C1026 C1025 1.379 . S
H1027 C1021 0.959 . S
H1028 C1021 0.961 . S
H1029 C1021 0.960 . S
H1030 C1022 0.930 . S
H1031 C1023 0.929 . S
H1032 C1040 0.929 . S
H1033 C1042 0.930 . S
H1034 C1044 0.930 . S
H1035 C1047 0.929 . S
H1036 C1050 0.930 . S
H1037 C1052 0.960 . S
H1038 C1052 0.960 . S
H1039 C1052 0.960 . S
C1040 H1032 0.929 . S
C1040 C1041 1.377 . S
C1040 C1042 1.384 . S
C1041 C1040 1.377 . S
C1041 C1047 1.390 . S
C1042 H1033 0.930 . S
C1042 C1040 1.384 . S
C1042 C1043 1.372 . S
C1043 C1042 1.372 . S
C1043 C1044 1.400 . S
C1043 C1048 1.490 . S
C1044 H1034 0.930 . S
C1044 C1043 1.400 . S
C1044 C1047 1.386 . S
H1045 C1061 0.930 . S
H1046 C1062 0.931 . S
C1047 H1035 0.929 . S
C1047 C1041 1.390 . S
C1047 C1044 1.386 . S
C1048 C1043 1.490 . S
C1048 C1050 1.395 . S
C1048 C1051 1.403 . S
H1049 C1055 0.930 . S
C1050 H1036 0.930 . S
C1050 C1048 1.395 . S
C1050 C1053 1.403 . S
C1051 C1048 1.403 . S
C1051 C1052 1.524 . S
C1051 C1055 1.400 . S
C1052 H1037 0.960 . S
C1052 H1038 0.960 . S
C1052 H1039 0.960 . S
C1052 C1051 1.524 . S
C1053 C1050 1.403 . S
C1053 C1054 1.392 . S
C1053 C1057 1.495 . S
C1054 C1053 1.392 . S
C1054 C1055 1.385 . S
C1054 C1056 1.478 . S
C1055 H1049 0.930 . S
C1055 C1051 1.400 . S
C1055 C1054 1.385 . S
C1056 C1054 1.478 . S
C1056 C1058 1.381 . S
C1056 C1062 1.383 . S
C1057 C1053 1.495 . S
C1057 H1063 0.959 . S
C1057 H1064 0.961 . S
C1057 H1065 0.960 . S
C1058 C1056 1.381 . S
C1058 C1059 1.394 . S
C1058 H1066 0.930 . S
C1059 C1058 1.394 . S
C1059 C1060 1.383 . S
C1059 H1067 0.929 . S
C1060 C1059 1.383 . S
C1060 C1061 1.377 . S
C1061 H1045 0.930 . S
C1061 C1060 1.377 . S
C1061 C1062 1.379 . S
C1062 H1046 0.931 . S
C1062 C1056 1.383 . S
C1062 C1061 1.379 . S
H1063 C1057 0.959 . S
H1064 C1057 0.961 . S
H1065 C1057 0.960 . S
H1066 C1058 0.930 . S
H1067 C1059 0.929 . S
H1068 C1076 0.929 1_556 S
H1069 C1078 0.930 . S
H1070 C1080 0.930 . S
H1071 C1083 0.929 . S
H1072 C1086 0.930 . S
H1073 C1088 0.960 . S
H1074 C1088 0.960 . S
H1075 C1088 0.960 . S
C1076 H1068 0.929 1_554 S
C1076 C1077 1.377 . S
C1076 C1078 1.384 . S
C1077 C1076 1.377 . S
C1077 C1083 1.390 . S
C1078 H1069 0.930 . S
C1078 C1076 1.384 . S
C1078 C1079 1.372 . S
C1079 C1078 1.372 . S
C1079 C1080 1.400 . S
C1079 C1084 1.490 . S
C1080 H1070 0.930 . S
C1080 C1079 1.400 . S
C1080 C1083 1.386 . S
H1081 C1097 0.930 . S
H1082 C1098 0.931 . S
C1083 H1071 0.929 . S
C1083 C1077 1.390 . S
C1083 C1080 1.386 . S
C1084 C1079 1.490 . S
C1084 C1086 1.395 . S
C1084 C1087 1.403 . S
H1085 C1091 0.930 . S
C1086 H1072 0.930 . S
C1086 C1084 1.395 . S
C1086 C1089 1.403 . S
C1087 C1084 1.403 . S
C1087 C1088 1.524 . S
C1087 C1091 1.400 . S
C1088 H1073 0.960 . S
C1088 H1074 0.960 . S
C1088 H1075 0.960 . S
C1088 C1087 1.524 . S
C1089 C1086 1.403 . S
C1089 C1090 1.392 . S
C1089 C1093 1.495 . S
C1090 C1089 1.392 . S
C1090 C1091 1.385 . S
C1090 C1092 1.478 . S
C1091 H1085 0.930 . S
C1091 C1087 1.400 . S
C1091 C1090 1.385 . S
C1092 C1090 1.478 . S
C1092 C1094 1.381 . S
C1092 C1098 1.383 . S
C1093 C1089 1.495 . S
C1093 H1099 0.959 . S
C1093 H1100 0.961 . S
C1093 H1101 0.960 . S
C1094 C1092 1.381 . S
C1094 C1095 1.394 . S
C1094 H1102 0.930 . S
C1095 C1094 1.394 . S
C1095 C1096 1.383 . S
C1095 H1103 0.929 . S
C1096 C1095 1.383 . S
C1096 C1097 1.377 . S
C1097 H1081 0.930 . S
C1097 C1096 1.377 . S
C1097 C1098 1.379 . S
C1098 H1082 0.931 . S
C1098 C1092 1.383 . S
C1098 C1097 1.379 . S
H1099 C1093 0.959 . S
H1100 C1093 0.961 . S
H1101 C1093 0.960 . S
H1102 C1094 0.930 . S
H1103 C1095 0.929 . S
H1104 C1112 0.929 . S
H1105 C1114 0.930 . S
H1106 C1116 0.930 . S
H1107 C1119 0.929 . S
H1108 C1122 0.930 . S
H1109 C1124 0.960 . S
H1110 C1124 0.960 . S
H1111 C1124 0.960 . S
C1112 H1104 0.929 . S
C1112 C1113 1.377 . S
C1112 C1114 1.384 . S
C1113 C1112 1.377 . S
C1113 C1119 1.390 . S
C1114 H1105 0.930 . S
C1114 C1112 1.384 . S
C1114 C1115 1.372 . S
C1115 C1114 1.372 . S
C1115 C1116 1.400 . S
C1115 C1120 1.490 . S
C1116 H1106 0.930 . S
C1116 C1115 1.400 . S
C1116 C1119 1.386 . S
H1117 C1133 0.930 . S
H1118 C1134 0.931 . S
C1119 H1107 0.929 . S
C1119 C1113 1.390 . S
C1119 C1116 1.386 . S
C1120 C1115 1.490 . S
C1120 C1122 1.395 . S
C1120 C1123 1.403 . S
H1121 C1127 0.930 . S
C1122 H1108 0.930 . S
C1122 C1120 1.395 . S
C1122 C1125 1.403 . S
C1123 C1120 1.403 . S
C1123 C1124 1.524 . S
C1123 C1127 1.400 . S
C1124 H1109 0.960 . S
C1124 H1110 0.960 . S
C1124 H1111 0.960 . S
C1124 C1123 1.524 . S
C1125 C1122 1.403 . S
C1125 C1126 1.392 . S
C1125 C1129 1.495 . S
C1126 C1125 1.392 . S
C1126 C1127 1.385 . S
C1126 C1128 1.478 . S
C1127 H1121 0.930 . S
C1127 C1123 1.400 . S
C1127 C1126 1.385 . S
C1128 C1126 1.478 . S
C1128 C1130 1.381 . S
C1128 C1134 1.383 . S
C1129 C1125 1.495 . S
C1129 H1135 0.959 . S
C1129 H1136 0.961 . S
C1129 H1137 0.960 . S
C1130 C1128 1.381 . S
C1130 C1131 1.394 . S
C1130 H1138 0.930 . S
C1131 C1130 1.394 . S
C1131 C1132 1.383 . S
C1131 H1139 0.929 . S
C1132 C1131 1.383 . S
C1132 C1133 1.377 . S
C1133 H1117 0.930 . S
C1133 C1132 1.377 . S
C1133 C1134 1.379 . S
C1134 H1118 0.931 . S
C1134 C1128 1.383 . S
C1134 C1133 1.379 . S
H1135 C1129 0.959 . S
H1136 C1129 0.961 . S
H1137 C1129 0.960 . S
H1138 C1130 0.930 . S
H1139 C1131 0.929 . S
H1140 C1148 0.929 . S
H1141 C1150 0.930 . S
H1142 C1152 0.930 . S
H1143 C1155 0.929 . S
H1144 C1158 0.930 . S
H1145 C1160 0.960 . S
H1146 C1160 0.960 . S
H1147 C1160 0.960 . S
C1148 H1140 0.929 . S
C1148 C1149 1.377 . S
C1148 C1150 1.384 . S
C1149 C1148 1.377 . S
C1149 C1155 1.390 . S
C1150 H1141 0.930 . S
C1150 C1148 1.384 . S
C1150 C1151 1.372 . S
C1151 C1150 1.372 . S
C1151 C1152 1.400 . S
C1151 C1156 1.490 . S
C1152 H1142 0.930 . S
C1152 C1151 1.400 . S
C1152 C1155 1.386 . S
H1153 C1169 0.930 . S
H1154 C1170 0.931 . S
C1155 H1143 0.929 . S
C1155 C1149 1.390 . S
C1155 C1152 1.386 . S
C1156 C1151 1.490 . S
C1156 C1158 1.395 . S
C1156 C1159 1.403 . S
H1157 C1163 0.930 . S
C1158 H1144 0.930 . S
C1158 C1156 1.395 . S
C1158 C1161 1.403 . S
C1159 C1156 1.403 . S
C1159 C1160 1.524 . S
C1159 C1163 1.400 . S
C1160 H1145 0.960 . S
C1160 H1146 0.960 . S
C1160 H1147 0.960 . S
C1160 C1159 1.524 . S
C1161 C1158 1.403 . S
C1161 C1162 1.392 . S
C1161 C1165 1.495 . S
C1162 C1161 1.392 . S
C1162 C1163 1.385 . S
C1162 C1164 1.478 . S
C1163 H1157 0.930 . S
C1163 C1159 1.400 . S
C1163 C1162 1.385 . S
C1164 C1162 1.478 . S
C1164 C1166 1.381 . S
C1164 C1170 1.383 . S
C1165 C1161 1.495 . S
C1165 H1171 0.959 . S
C1165 H1172 0.961 . S
C1165 H1173 0.960 . S
C1166 C1164 1.381 . S
C1166 C1167 1.394 . S
C1166 H1174 0.930 . S
C1167 C1166 1.394 . S
C1167 C1168 1.383 . S
C1167 H1175 0.929 . S
C1168 C1167 1.383 . S
C1168 C1169 1.377 . S
C1169 H1153 0.930 . S
C1169 C1168 1.377 . S
C1169 C1170 1.379 . S
C1170 H1154 0.931 . S
C1170 C1164 1.383 . S
C1170 C1169 1.379 . S
H1171 C1165 0.959 . S
H1172 C1165 0.961 . S
H1173 C1165 0.960 . S
H1174 C1166 0.930 . S
H1175 C1167 0.929 . S
H1176 C1184 0.929 . S
H1177 C1186 0.930 . S
H1178 C1188 0.930 . S
H1179 C1191 0.929 . S
H1180 C1194 0.930 . S
H1181 C1196 0.960 . S
H1182 C1196 0.960 . S
H1183 C1196 0.960 . S
C1184 H1176 0.929 . S
C1184 C1185 1.377 . S
C1184 C1186 1.384 . S
C1185 C1184 1.377 . S
C1185 C1191 1.390 . S
C1186 H1177 0.930 . S
C1186 C1184 1.384 . S
C1186 C1187 1.372 . S
C1187 C1186 1.372 . S
C1187 C1188 1.400 . S
C1187 C1192 1.490 . S
C1188 H1178 0.930 . S
C1188 C1187 1.400 . S
C1188 C1191 1.386 . S
H1189 C1205 0.930 . S
H1190 C1206 0.931 . S
C1191 H1179 0.929 . S
C1191 C1185 1.390 . S
C1191 C1188 1.386 . S
C1192 C1187 1.490 . S
C1192 C1194 1.395 . S
C1192 C1195 1.403 . S
H1193 C1199 0.930 . S
C1194 H1180 0.930 . S
C1194 C1192 1.395 . S
C1194 C1197 1.403 . S
C1195 C1192 1.403 . S
C1195 C1196 1.524 . S
C1195 C1199 1.400 . S
C1196 H1181 0.960 . S
C1196 H1182 0.960 . S
C1196 H1183 0.960 . S
C1196 C1195 1.524 . S
C1197 C1194 1.403 . S
C1197 C1198 1.392 . S
C1197 C1201 1.495 . S
C1198 C1197 1.392 . S
C1198 C1199 1.385 . S
C1198 C1200 1.478 . S
C1199 H1193 0.930 . S
C1199 C1195 1.400 . S
C1199 C1198 1.385 . S
C1200 C1198 1.478 . S
C1200 C1202 1.381 . S
C1200 C1206 1.383 . S
C1201 C1197 1.495 . S
C1201 H1207 0.959 . S
C1201 H1208 0.961 . S
C1201 H1209 0.960 . S
C1202 C1200 1.381 . S
C1202 C1203 1.394 . S
C1202 H1210 0.930 . S
C1203 C1202 1.394 . S
C1203 C1204 1.383 . S
C1203 H1211 0.929 . S
C1204 C1203 1.383 . S
C1204 C1205 1.377 . S
C1205 H1189 0.930 . S
C1205 C1204 1.377 . S
C1205 C1206 1.379 . S
C1206 H1190 0.931 . S
C1206 C1200 1.383 . S
C1206 C1205 1.379 . S
H1207 C1201 0.959 . S
H1208 C1201 0.961 . S
H1209 C1201 0.960 . S
H1210 C1202 0.930 . S
H1211 C1203 0.929 . S
H1212 C1220 0.929 . S
H1213 C1222 0.930 . S
H1214 C1224 0.930 . S
H1215 C1227 0.929 . S
H1216 C1230 0.930 . S
H1217 C1232 0.960 . S
H1218 C1232 0.960 . S
H1219 C1232 0.960 . S
C1220 H1212 0.929 . S
C1220 C1221 1.377 . S
C1220 C1222 1.384 . S
C1221 C1220 1.377 . S
C1221 C1227 1.390 . S
C1222 H1213 0.930 . S
C1222 C1220 1.384 . S
C1222 C1223 1.372 . S
C1223 C1222 1.372 . S
C1223 C1224 1.400 . S
C1223 C1228 1.490 . S
C1224 H1214 0.930 . S
C1224 C1223 1.400 . S
C1224 C1227 1.386 . S
H1225 C1241 0.930 . S
H1226 C1242 0.931 . S
C1227 H1215 0.929 . S
C1227 C1221 1.390 . S
C1227 C1224 1.386 . S
C1228 C1223 1.490 . S
C1228 C1230 1.395 . S
C1228 C1231 1.403 . S
H1229 C1235 0.930 . S
C1230 H1216 0.930 . S
C1230 C1228 1.395 . S
C1230 C1233 1.403 . S
C1231 C1228 1.403 . S
C1231 C1232 1.524 . S
C1231 C1235 1.400 . S
C1232 H1217 0.960 . S
C1232 H1218 0.960 . S
C1232 H1219 0.960 . S
C1232 C1231 1.524 . S
C1233 C1230 1.403 . S
C1233 C1234 1.392 . S
C1233 C1237 1.495 . S
C1234 C1233 1.392 . S
C1234 C1235 1.385 . S
C1234 C1236 1.478 . S
C1235 H1229 0.930 . S
C1235 C1231 1.400 . S
C1235 C1234 1.385 . S
C1236 C1234 1.478 . S
C1236 C1238 1.381 . S
C1236 C1242 1.383 . S
C1237 C1233 1.495 . S
C1237 H1243 0.959 . S
C1237 H1244 0.961 . S
C1237 H1245 0.960 . S
C1238 C1236 1.381 . S
C1238 C1239 1.394 . S
C1238 H1246 0.930 . S
C1239 C1238 1.394 . S
C1239 C1240 1.383 . S
C1239 H1247 0.929 . S
C1240 C1239 1.383 . S
C1240 C1241 1.377 . S
C1241 H1225 0.930 . S
C1241 C1240 1.377 . S
C1241 C1242 1.379 . S
C1242 H1226 0.931 . S
C1242 C1236 1.383 . S
C1242 C1241 1.379 . S
H1243 C1237 0.959 . S
H1244 C1237 0.961 . S
H1245 C1237 0.960 . S
H1246 C1238 0.930 . S
H1247 C1239 0.929 . S
H1248 C1256 0.929 . S
H1249 C1258 0.930 . S
H1250 C1260 0.930 . S
H1251 C1263 0.929 . S
H1252 C1266 0.930 . S
H1253 C1268 0.960 . S
H1254 C1268 0.960 . S
H1255 C1268 0.960 . S
C1256 H1248 0.929 . S
C1256 C1257 1.377 . S
C1256 C1258 1.384 . S
C1257 C1256 1.377 . S
C1257 C1263 1.390 . S
C1258 H1249 0.930 . S
C1258 C1256 1.384 . S
C1258 C1259 1.372 . S
C1259 C1258 1.372 . S
C1259 C1260 1.400 . S
C1259 C1264 1.490 . S
C1260 H1250 0.930 . S
C1260 C1259 1.400 . S
C1260 C1263 1.386 . S
H1261 C1277 0.930 . S
H1262 C1278 0.931 . S
C1263 H1251 0.929 . S
C1263 C1257 1.390 . S
C1263 C1260 1.386 . S
C1264 C1259 1.490 . S
C1264 C1266 1.395 . S
C1264 C1267 1.403 . S
H1265 C1271 0.930 . S
C1266 H1252 0.930 . S
C1266 C1264 1.395 . S
C1266 C1269 1.403 . S
C1267 C1264 1.403 . S
C1267 C1268 1.524 . S
C1267 C1271 1.400 . S
C1268 H1253 0.960 . S
C1268 H1254 0.960 . S
C1268 H1255 0.960 . S
C1268 C1267 1.524 . S
C1269 C1266 1.403 . S
C1269 C1270 1.392 . S
C1269 C1273 1.495 . S
C1270 C1269 1.392 . S
C1270 C1271 1.385 . S
C1270 C1272 1.478 . S
C1271 H1265 0.930 . S
C1271 C1267 1.400 . S
C1271 C1270 1.385 . S
C1272 C1270 1.478 . S
C1272 C1274 1.381 . S
C1272 C1278 1.383 . S
C1273 C1269 1.495 . S
C1273 H1279 0.959 . S
C1273 H1280 0.961 . S
C1273 H1281 0.960 . S
C1274 C1272 1.381 . S
C1274 C1275 1.394 . S
C1274 H1282 0.930 . S
C1275 C1274 1.394 . S
C1275 C1276 1.383 . S
C1275 H1283 0.929 . S
C1276 C1275 1.383 . S
C1276 C1277 1.377 . S
C1277 H1261 0.930 . S
C1277 C1276 1.377 . S
C1277 C1278 1.379 . S
C1278 H1262 0.931 . S
C1278 C1272 1.383 . S
C1278 C1277 1.379 . S
H1279 C1273 0.959 . S
H1280 C1273 0.961 . S
H1281 C1273 0.960 . S
H1282 C1274 0.930 . S
H1283 C1275 0.929 . S
H1284 C1292 0.929 . S
H1285 C1294 0.930 . S
H1286 C1296 0.930 . S
H1287 C1299 0.929 . S
H1288 C1302 0.930 . S
H1289 C1304 0.960 . S
H1290 C1304 0.960 . S
H1291 C1304 0.960 . S
C1292 H1284 0.929 . S
C1292 C1293 1.377 . S
C1292 C1294 1.384 . S
C1293 C1292 1.377 . S
C1293 C1299 1.390 . S
C1294 H1285 0.930 . S
C1294 C1292 1.384 . S
C1294 C1295 1.372 . S
C1295 C1294 1.372 . S
C1295 C1296 1.400 . S
C1295 C1300 1.490 . S
C1296 H1286 0.930 . S
C1296 C1295 1.400 . S
C1296 C1299 1.386 . S
H1297 C1313 0.930 . S
H1298 C1314 0.931 . S
C1299 H1287 0.929 . S
C1299 C1293 1.390 . S
C1299 C1296 1.386 . S
C1300 C1295 1.490 . S
C1300 C1302 1.395 . S
C1300 C1303 1.403 . S
H1301 C1307 0.930 . S
C1302 H1288 0.930 . S
C1302 C1300 1.395 . S
C1302 C1305 1.403 . S
C1303 C1300 1.403 . S
C1303 C1304 1.524 . S
C1303 C1307 1.400 . S
C1304 H1289 0.960 . S
C1304 H1290 0.960 . S
C1304 H1291 0.960 . S
C1304 C1303 1.524 . S
C1305 C1302 1.403 . S
C1305 C1306 1.392 . S
C1305 C1309 1.495 . S
C1306 C1305 1.392 . S
C1306 C1307 1.385 . S
C1306 C1308 1.478 . S
C1307 H1301 0.930 . S
C1307 C1303 1.400 . S
C1307 C1306 1.385 . S
C1308 C1306 1.478 . S
C1308 C1310 1.381 . S
C1308 C1314 1.383 . S
C1309 C1305 1.495 . S
C1309 H1315 0.959 . S
C1309 H1316 0.961 . S
C1309 H1317 0.960 . S
C1310 C1308 1.381 . S
C1310 C1311 1.394 . S
C1310 H1318 0.930 . S
C1311 C1310 1.394 . S
C1311 C1312 1.383 . S
C1311 H1319 0.929 . S
C1312 C1311 1.383 . S
C1312 C1313 1.377 . S
C1313 H1297 0.930 . S
C1313 C1312 1.377 . S
C1313 C1314 1.379 . S
C1314 H1298 0.931 . S
C1314 C1308 1.383 . S
C1314 C1313 1.379 . S
H1315 C1309 0.959 . S
H1316 C1309 0.961 . S
H1317 C1309 0.960 . S
H1318 C1310 0.930 . S
H1319 C1311 0.929 . S
H1320 C1328 0.929 . S
H1321 C1330 0.930 . S
H1322 C1332 0.930 . S
H1323 C1335 0.929 . S
H1324 C1338 0.930 . S
H1325 C1340 0.960 . S
H1326 C1340 0.960 . S
H1327 C1340 0.960 . S
C1328 H1320 0.929 . S
C1328 C1329 1.377 . S
C1328 C1330 1.384 . S
C1329 C1328 1.377 . S
C1329 C1335 1.390 . S
C1330 H1321 0.930 . S
C1330 C1328 1.384 . S
C1330 C1331 1.372 . S
C1331 C1330 1.372 . S
C1331 C1332 1.400 . S
C1331 C1336 1.490 . S
C1332 H1322 0.930 . S
C1332 C1331 1.400 . S
C1332 C1335 1.386 . S
H1333 C1349 0.930 . S
H1334 C1350 0.931 . S
C1335 H1323 0.929 . S
C1335 C1329 1.390 . S
C1335 C1332 1.386 . S
C1336 C1331 1.490 . S
C1336 C1338 1.395 . S
C1336 C1339 1.403 . S
H1337 C1343 0.930 . S
C1338 H1324 0.930 . S
C1338 C1336 1.395 . S
C1338 C1341 1.403 . S
C1339 C1336 1.403 . S
C1339 C1340 1.524 . S
C1339 C1343 1.400 . S
C1340 H1325 0.960 . S
C1340 H1326 0.960 . S
C1340 H1327 0.960 . S
C1340 C1339 1.524 . S
C1341 C1338 1.403 . S
C1341 C1342 1.392 . S
C1341 C1345 1.495 . S
C1342 C1341 1.392 . S
C1342 C1343 1.385 . S
C1342 C1344 1.478 . S
C1343 H1337 0.930 . S
C1343 C1339 1.400 . S
C1343 C1342 1.385 . S
C1344 C1342 1.478 . S
C1344 C1346 1.381 . S
C1344 C1350 1.383 . S
C1345 C1341 1.495 . S
C1345 H1351 0.959 . S
C1345 H1352 0.961 . S
C1345 H1353 0.960 . S
C1346 C1344 1.381 . S
C1346 C1347 1.394 . S
C1346 H1354 0.930 . S
C1347 C1346 1.394 . S
C1347 C1348 1.383 . S
C1347 H1355 0.929 . S
C1348 C1347 1.383 . S
C1348 C1349 1.377 . S
C1349 H1333 0.930 . S
C1349 C1348 1.377 . S
C1349 C1350 1.379 . S
C1350 H1334 0.931 . S
C1350 C1344 1.383 . S
C1350 C1349 1.379 . S
H1351 C1345 0.959 . S
H1352 C1345 0.961 . S
H1353 C1345 0.960 . S
H1354 C1346 0.930 . S
H1355 C1347 0.929 . S
H1356 C1364 0.929 . S
H1357 C1366 0.930 . S
H1358 C1368 0.930 . S
H1359 C1371 0.929 . S
H1360 C1374 0.930 . S
H1361 C1376 0.960 . S
H1362 C1376 0.960 . S
H1363 C1376 0.960 . S
C1364 H1356 0.929 . S
C1364 C1365 1.377 . S
C1364 C1366 1.384 . S
C1365 C1364 1.377 . S
C1365 C1371 1.390 . S
C1366 H1357 0.930 . S
C1366 C1364 1.384 . S
C1366 C1367 1.372 . S
C1367 C1366 1.372 . S
C1367 C1368 1.400 . S
C1367 C1372 1.490 . S
C1368 H1358 0.930 . S
C1368 C1367 1.400 . S
C1368 C1371 1.386 . S
H1369 C1385 0.930 . S
H1370 C1386 0.931 . S
C1371 H1359 0.929 . S
C1371 C1365 1.390 . S
C1371 C1368 1.386 . S
C1372 C1367 1.490 . S
C1372 C1374 1.395 . S
C1372 C1375 1.403 . S
H1373 C1379 0.930 . S
C1374 H1360 0.930 . S
C1374 C1372 1.395 . S
C1374 C1377 1.403 . S
C1375 C1372 1.403 . S
C1375 C1376 1.524 . S
C1375 C1379 1.400 . S
C1376 H1361 0.960 . S
C1376 H1362 0.960 . S
C1376 H1363 0.960 . S
C1376 C1375 1.524 . S
C1377 C1374 1.403 . S
C1377 C1378 1.392 . S
C1377 C1381 1.495 . S
C1378 C1377 1.392 . S
C1378 C1379 1.385 . S
C1378 C1380 1.478 . S
C1379 H1373 0.930 . S
C1379 C1375 1.400 . S
C1379 C1378 1.385 . S
C1380 C1378 1.478 . S
C1380 C1382 1.381 . S
C1380 C1386 1.383 . S
C1381 C1377 1.495 . S
C1381 H1387 0.959 . S
C1381 H1388 0.961 . S
C1381 H1389 0.960 . S
C1382 C1380 1.381 . S
C1382 C1383 1.394 . S
C1382 H1390 0.930 . S
C1383 C1382 1.394 . S
C1383 C1384 1.383 . S
C1383 H1391 0.929 . S
C1384 C1383 1.383 . S
C1384 C1385 1.377 . S
C1385 H1369 0.930 . S
C1385 C1384 1.377 . S
C1385 C1386 1.379 . S
C1386 H1370 0.931 . S
C1386 C1380 1.383 . S
C1386 C1385 1.379 . S
H1387 C1381 0.959 . S
H1388 C1381 0.961 . S
H1389 C1381 0.960 . S
H1390 C1382 0.930 . S
H1391 C1383 0.929 . S
H1392 C1400 0.929 . S
H1393 C1402 0.930 . S
H1394 C1404 0.930 . S
H1395 C1407 0.929 . S
H1396 C1410 0.930 . S
H1397 C1412 0.960 . S
H1398 C1412 0.960 . S
H1399 C1412 0.960 . S
C1400 H1392 0.929 . S
C1400 C1401 1.377 . S
C1400 C1402 1.384 . S
C1401 C1400 1.377 . S
C1401 C1407 1.390 . S
C1402 H1393 0.930 . S
C1402 C1400 1.384 . S
C1402 C1403 1.372 . S
C1403 C1402 1.372 . S
C1403 C1404 1.400 . S
C1403 C1408 1.490 . S
C1404 H1394 0.930 . S
C1404 C1403 1.400 . S
C1404 C1407 1.386 . S
H1405 C1421 0.930 . S
H1406 C1422 0.931 . S
C1407 H1395 0.929 . S
C1407 C1401 1.390 . S
C1407 C1404 1.386 . S
C1408 C1403 1.490 . S
C1408 C1410 1.395 . S
C1408 C1411 1.403 . S
H1409 C1415 0.930 . S
C1410 H1396 0.930 . S
C1410 C1408 1.395 . S
C1410 C1413 1.403 . S
C1411 C1408 1.403 . S
C1411 C1412 1.524 . S
C1411 C1415 1.400 . S
C1412 H1397 0.960 . S
C1412 H1398 0.960 . S
C1412 H1399 0.960 . S
C1412 C1411 1.524 . S
C1413 C1410 1.403 . S
C1413 C1414 1.392 . S
C1413 C1417 1.495 . S
C1414 C1413 1.392 . S
C1414 C1415 1.385 . S
C1414 C1416 1.478 . S
C1415 H1409 0.930 . S
C1415 C1411 1.400 . S
C1415 C1414 1.385 . S
C1416 C1414 1.478 . S
C1416 C1418 1.381 . S
C1416 C1422 1.383 . S
C1417 C1413 1.495 . S
C1417 H1423 0.959 . S
C1417 H1424 0.961 . S
C1417 H1425 0.960 . S
C1418 C1416 1.381 . S
C1418 C1419 1.394 . S
C1418 H1426 0.930 . S
C1419 C1418 1.394 . S
C1419 C1420 1.383 . S
C1419 H1427 0.929 . S
C1420 C1419 1.383 . S
C1420 C1421 1.377 . S
C1421 H1405 0.930 . S
C1421 C1420 1.377 . S
C1421 C1422 1.379 . S
C1422 H1406 0.931 . S
C1422 C1416 1.383 . S
C1422 C1421 1.379 . S
H1423 C1417 0.959 . S
H1424 C1417 0.961 . S
H1425 C1417 0.960 . S
H1426 C1418 0.930 . S
H1427 C1419 0.929 . S
C573 C361 1.311 . S
C592 C496 1.280 . S
C628 C504 1.270 . S
C609 C451 1.368 . S
C664 C508 1.251 . S
C645 C241 1.309 . S
C681 C331 1.355 . S
C700 C484 1.255 . S
C736 C525 1.332 . S
C717 C140 1.378 . S
C772 C559 1.266 . S
C753 C211 1.379 . S
C789 C20 1.367 . S
C808 C547 1.281 . S
C825 C91 1.367 . S
C844 C529 1.278 . S
C880 C483 1.220 . S
C861 C80 1.381 1_554 S
C916 C517 1.305 . S
C897 C1 1.373 . S
C952 C521 1.228 . S
C933 C200 1.384 1_556 S
C988 C499 1.309 . S
C969 C121 1.376 . S
C1024 C538 1.305 . S
C1005 C320 1.362 1_556 S
C1041 C260 1.420 . S
C1060 C546 1.292 . S
C1096 C562 1.275 . S
C1077 C440 1.363 1_554 S
C1113 C380 1.426 . S
C1132 C542 1.251 . S
C1168 C487 1.331 . S
C1149 C31 1.476 . S
C1204 C505 1.321 . S
C1185 C61 1.482 . S
C1221 C151 1.464 . S
C1240 C520 1.326 . S
C1276 C500 1.252 . S
C1257 C181 1.461 . S
C1312 C526 1.285 . S
C1293 C271 1.468 . S
C1329 C301 1.466 . S
C1348 C550 1.356 . S
C1365 C391 1.459 . S
C1384 C563 1.280 . S
C1401 C421 1.453 . S
C1420 C541 1.272 . S
