# Generated by pormake.
# Topology sqc, (4,8)-cn, num edge types: 1
# Building blocks:
#     Node 0, Type 0, BuildingBlock: GIZVER_clean_linker_0, # of connection points: 4
#     Node 1, Type 0, BuildingBlock: GIZVER_clean_linker_0, # of connection points: 4
#     Node 2, Type 0, BuildingBlock: GIZVER_clean_linker_0, # of connection points: 4
#     Node 3, Type 0, BuildingBlock: GIZVER_clean_linker_0, # of connection points: 4
#     Node 4, Type 0, BuildingBlock: GIZVER_clean_linker_0, # of connection points: 4
#     Node 5, Type 0, BuildingBlock: GIZVER_clean_linker_0, # of connection points: 4
#     Node 6, Type 0, BuildingBlock: GIZVER_clean_linker_0, # of connection points: 4
#     Node 7, Type 0, BuildingBlock: GIZVER_clean_linker_0, # of connection points: 4
#     Node 8, Type 1, BuildingBlock: VETTIZ_charged_sbu_0, # of connection points: 8
#     Node 9, Type 1, BuildingBlock: VETTIZ_charged_sbu_0, # of connection points: 8
#     Node 10, Type 1, BuildingBlock: VETTIZ_charged_sbu_0, # of connection points: 8
#     Node 11, Type 1, BuildingBlock: VETTIZ_charged_sbu_0, # of connection points: 8
#     Edge 12, Type (0, 1), BuildingBlock: TEMPAE_clean_linker_10, # of connection points: 2
#     Edge 13, Type (0, 1), BuildingBlock: TEMPAE_clean_linker_10, # of connection points: 2
#     Edge 14, Type (0, 1), BuildingBlock: TEMPAE_clean_linker_10, # of connection points: 2
#     Edge 15, Type (0, 1), BuildingBlock: TEMPAE_clean_linker_10, # of connection points: 2
#     Edge 16, Type (0, 1), BuildingBlock: TEMPAE_clean_linker_10, # of connection points: 2
#     Edge 17, Type (0, 1), BuildingBlock: TEMPAE_clean_linker_10, # of connection points: 2
#     Edge 18, Type (0, 1), BuildingBlock: TEMPAE_clean_linker_10, # of connection points: 2
#     Edge 19, Type (0, 1), BuildingBlock: TEMPAE_clean_linker_10, # of connection points: 2
#     Edge 20, Type (0, 1), BuildingBlock: TEMPAE_clean_linker_10, # of connection points: 2
#     Edge 21, Type (0, 1), BuildingBlock: TEMPAE_clean_linker_10, # of connection points: 2
#     Edge 22, Type (0, 1), BuildingBlock: TEMPAE_clean_linker_10, # of connection points: 2
#     Edge 23, Type (0, 1), BuildingBlock: TEMPAE_clean_linker_10, # of connection points: 2
#     Edge 24, Type (0, 1), BuildingBlock: TEMPAE_clean_linker_10, # of connection points: 2
#     Edge 25, Type (0, 1), BuildingBlock: TEMPAE_clean_linker_10, # of connection points: 2
#     Edge 26, Type (0, 1), BuildingBlock: TEMPAE_clean_linker_10, # of connection points: 2
#     Edge 27, Type (0, 1), BuildingBlock: TEMPAE_clean_linker_10, # of connection points: 2
#     Edge 28, Type (0, 1), BuildingBlock: TEMPAE_clean_linker_10, # of connection points: 2
#     Edge 29, Type (0, 1), BuildingBlock: TEMPAE_clean_linker_10, # of connection points: 2
#     Edge 30, Type (0, 1), BuildingBlock: TEMPAE_clean_linker_10, # of connection points: 2
#     Edge 31, Type (0, 1), BuildingBlock: TEMPAE_clean_linker_10, # of connection points: 2
#     Edge 32, Type (0, 1), BuildingBlock: TEMPAE_clean_linker_10, # of connection points: 2
#     Edge 33, Type (0, 1), BuildingBlock: TEMPAE_clean_linker_10, # of connection points: 2
#     Edge 34, Type (0, 1), BuildingBlock: TEMPAE_clean_linker_10, # of connection points: 2
#     Edge 35, Type (0, 1), BuildingBlock: TEMPAE_clean_linker_10, # of connection points: 2
#     Edge 36, Type (0, 1), BuildingBlock: TEMPAE_clean_linker_10, # of connection points: 2
#     Edge 37, Type (0, 1), BuildingBlock: TEMPAE_clean_linker_10, # of connection points: 2
#     Edge 38, Type (0, 1), BuildingBlock: TEMPAE_clean_linker_10, # of connection points: 2
#     Edge 39, Type (0, 1), BuildingBlock: TEMPAE_clean_linker_10, # of connection points: 2
#     Edge 40, Type (0, 1), BuildingBlock: TEMPAE_clean_linker_10, # of connection points: 2
#     Edge 41, Type (0, 1), BuildingBlock: TEMPAE_clean_linker_10, # of connection points: 2
#     Edge 42, Type (0, 1), BuildingBlock: TEMPAE_clean_linker_10, # of connection points: 2
#     Edge 43, Type (0, 1), BuildingBlock: TEMPAE_clean_linker_10, # of connection points: 2
# Relax obj value: 0.167
# Max RMSD: 0.279
# Mean RMSD: 0.219
data_MOF--net-sqc--node1-VETTIZ_charged_sbu_0--node2-GIZVER_clean_linker_0--edge1-TEMPAE_clean_linker_10
_symmetry_space_group_name_H-M    P1
_symmetry_Int_Tables_number       1
_symmetry_cell_setting            triclinic
loop_
_symmetry_equiv_pos_as_xyz
'x, y, z'
_cell_length_a     25.190876
_cell_length_b     25.209344
_cell_length_c     69.083876
_cell_angle_alpha  89.719197
_cell_angle_beta   89.686748
_cell_angle_gamma 90.643943
loop_
_atom_site_label
_atom_site_type_symbol
_atom_site_fract_x
_atom_site_fract_y
_atom_site_fract_z
_atom_type_partial_charge
H0 H 0.98197 0.05673 0.45989 0.0
H1 H 0.96589 0.14592 0.51287 0.0
H2 H 0.8318 0.06239 0.4894 0.0
H3 H 0.04442 0.13415 0.46906 0.0
H4 H 0.04391 0.15838 0.49318 0.0
H5 H 0.07704 0.04172 0.46192 0.0
H6 H 0.19853 0.98784 0.50013 0.0
H7 H 0.10166 0.12007 0.51644 0.0
C8 C 0.95874 0.06883 0.47231 0.0
C9 C 0.90466 0.05493 0.47337 0.0
C10 C 0.98191 0.10078 0.48683 0.0
C11 C 0.94953 0.11928 0.50212 0.0
C12 C 0.89542 0.10509 0.50306 0.0
C13 C 0.87388 0.07226 0.4889 0.0
C14 C 0.03826 0.12186 0.48441 0.0
C15 C 0.08061 0.08183 0.48957 0.0
C16 C 0.0962 0.04356 0.4759 0.0
C17 C 0.13882 0.00987 0.4798 0.0
C18 C 0.16548 0.01401 0.49742 0.0
C19 C 0.15462 0.05514 0.51038 0.0
C20 C 0.11049 0.0877 0.50673 0.0
H21 H 0.34059 0.81073 0.74199 0.0
H22 H 0.2231 0.83661 0.78624 0.0
H23 H 0.22897 0.93649 0.7356 0.0
H24 H 0.34877 0.77473 0.77567 0.0
H25 H 0.29584 0.78012 0.79255 0.0
H26 H 0.3364 0.71131 0.74637 0.0
H27 H 0.26995 0.56257 0.76536 0.0
H28 H 0.24461 0.70216 0.79938 0.0
C29 C 0.3049 0.83031 0.74688 0.0
C30 C 0.28635 0.87465 0.73656 0.0
C31 C 0.27974 0.81391 0.76431 0.0
C32 C 0.23839 0.84527 0.77187 0.0
C33 C 0.22132 0.89109 0.76199 0.0
C34 C 0.24239 0.902 0.74357 0.0
C35 C 0.30482 0.77174 0.77709 0.0
C36 C 0.28853 0.71485 0.77251 0.0
C37 C 0.31094 0.68932 0.75631 0.0
C38 C 0.30367 0.63451 0.75376 0.0
C39 C 0.27385 0.60522 0.76718 0.0
C40 C 0.25315 0.62876 0.78378 0.0
C41 C 0.25927 0.68401 0.78624 0.0
H42 H 0.56083 0.03479 0.05962 0.0
H43 H 0.57466 0.11314 0.00412 0.0
H44 H 0.69534 1.00584 0.02306 0.0
H45 H 0.51504 0.11933 0.05265 0.0
H46 H 0.51378 0.14587 0.02877 0.0
H47 H 0.45884 0.03818 0.06152 0.0
H48 H 0.31607 0.02431 0.02827 0.0
H49 H 0.44564 0.12021 0.00677 0.0
C50 C 0.58069 0.03981 0.04576 0.0
C51 C 0.62914 0.01463 0.04248 0.0
C52 C 0.55976 0.07441 0.03179 0.0
C53 C 0.58859 0.08396 0.01443 0.0
C54 C 0.63788 0.05941 0.01128 0.0
C55 C 0.65664 0.02356 0.02512 0.0
C56 C 0.51249 0.10801 0.03713 0.0
C57 C 0.45973 0.08005 0.03396 0.0
C58 C 0.43726 0.04632 0.04833 0.0
C59 C 0.38563 0.02547 0.04602 0.0
C60 C 0.35684 0.03829 0.02946 0.0
C61 C 0.37778 0.07284 0.0154 0.0
C62 C 0.42963 0.0928 0.01751 0.0
H63 H 0.20114 0.20279 0.23292 0.0
H64 H 0.27207 0.21804 0.2891 0.0
H65 H 0.31592 0.08937 0.25208 0.0
H66 H 0.15927 0.25656 0.25778 0.0
H67 H 0.18635 0.26004 0.28159 0.0
H68 H 0.18506 0.32053 0.23346 0.0
H69 H 0.28068 0.45415 0.25099 0.0
H70 H 0.26627 0.31743 0.28802 0.0
C71 C 0.22949 0.18932 0.24357 0.0
C72 C 0.25936 0.14358 0.24003 0.0
C73 C 0.23379 0.21608 0.26128 0.0
C74 C 0.26953 0.19804 0.27528 0.0
C75 C 0.30018 0.15297 0.27187 0.0
C76 C 0.29518 0.12637 0.25416 0.0
C77 C 0.19705 0.2609 0.26594 0.0
C78 C 0.22315 0.3133 0.26117 0.0
C79 C 0.2117 0.33925 0.2437 0.0
C80 C 0.23232 0.39021 0.23985 0.0
C81 C 0.2667 0.41379 0.25334 0.0
C82 C 0.27946 0.38781 0.2707 0.0
C83 C 0.25755 0.33742 0.2745 0.0
H84 H 0.69548 0.34267 0.28792 0.0
H85 H 0.76479 0.32068 0.23153 0.0
H86 H 0.82002 0.44727 0.26782 0.0
H87 H 0.65378 0.2841 0.26567 0.0
H88 H 0.67449 0.28442 0.24103 0.0
H89 H 0.69283 0.22027 0.28933 0.0
H90 H 0.75139 0.07699 0.26387 0.0
H91 H 0.73036 0.21499 0.22829 0.0
C92 C 0.72589 0.35294 0.27736 0.0
C93 C 0.75741 0.39875 0.28001 0.0
C94 C 0.72953 0.32335 0.26014 0.0
C95 C 0.76479 0.34052 0.24541 0.0
C96 C 0.79752 0.38535 0.24816 0.0
C97 C 0.79551 0.41209 0.26588 0.0
C98 C 0.68917 0.27994 0.25611 0.0
C99 C 0.71145 0.22492 0.2587 0.0
C100 C 0.70867 0.19941 0.27693 0.0
C101 C 0.72394 0.14616 0.27892 0.0
C102 C 0.74179 0.11875 0.26262 0.0
C103 C 0.74371 0.14308 0.2444 0.0
C104 C 0.72976 0.19651 0.24249 0.0
H105 H 0.67683 0.70773 0.73939 0.0
H106 H 0.78245 0.67832 0.78682 0.0
H107 H 0.79184 0.58423 0.73526 0.0
H108 H 0.65904 0.73962 0.773 0.0
H109 H 0.70758 0.73351 0.79138 0.0
H110 H 0.67816 0.80547 0.74458 0.0
H111 H 0.74021 0.95288 0.76609 0.0
H112 H 0.75718 0.81101 0.79994 0.0
C113 C 0.71148 0.68817 0.74512 0.0
C114 C 0.73341 0.64532 0.73493 0.0
C115 C 0.7315 0.70276 0.76345 0.0
C116 C 0.77123 0.67125 0.77193 0.0
C117 C 0.79163 0.62697 0.76211 0.0
C118 C 0.77592 0.61793 0.74298 0.0
C119 C 0.7024 0.74311 0.77577 0.0
C120 C 0.719 0.80041 0.77205 0.0
C121 C 0.70072 0.82693 0.75537 0.0
C122 C 0.7092 0.88177 0.75311 0.0
C123 C 0.73553 0.91016 0.76754 0.0
C124 C 0.75238 0.88535 0.78449 0.0
C125 C 0.74529 0.83012 0.78659 0.0
H126 H 0.44046 0.4979 0.05079 0.0
H127 H 0.43318 0.39454 0.00137 0.0
H128 H 0.31434 0.51307 0.00973 0.0
H129 H 0.48348 0.40763 0.05038 0.0
H130 H 0.49191 0.37419 0.02794 0.0
H131 H 0.52978 0.50044 0.05488 0.0
H132 H 0.68282 0.5095 0.02778 0.0
H133 H 0.57256 0.38681 0.01115 0.0
C134 C 0.42275 0.48673 0.03715 0.0
C135 C 0.37631 0.51195 0.03114 0.0
C136 C 0.44456 0.44519 0.02634 0.0
C137 C 0.4186 0.42841 0.00931 0.0
C138 C 0.37185 0.45344 0.00323 0.0
C139 C 0.35171 0.49561 0.01399 0.0
C140 C 0.4904 0.41421 0.03463 0.0
C141 C 0.54338 0.44266 0.0322 0.0
C142 C 0.55712 0.48633 0.04399 0.0
C143 C 0.60717 0.51094 0.04211 0.0
C144 C 0.64394 0.49076 0.02893 0.0
C145 C 0.63278 0.44498 0.01823 0.0
C146 C 0.58169 0.42217 0.0194 0.0
H147 H 0.07893 0.48838 0.53061 0.0
H148 H 0.04944 0.58824 0.48116 0.0
H149 H 0.19185 0.49724 0.48392 0.0
H150 H 0.01521 0.56023 0.53197 0.0
H151 H 1.0021 0.60089 0.51149 0.0
H152 H 0.93965 0.51469 0.54292 0.0
H153 H 0.81003 0.47942 0.50521 0.0
H154 H 0.9547 0.54622 0.48167 0.0
C155 C 0.08924 0.50111 0.51605 0.0
C156 C 0.13933 0.48828 0.50831 0.0
C157 C 0.05513 0.53565 0.50594 0.0
C158 C 0.07237 0.55747 0.4881 0.0
C159 C 0.12157 0.54329 0.4801 0.0
C160 C 0.15292 0.50639 0.48976 0.0
C161 C 0.00729 0.55897 0.51614 0.0
C162 C 0.95524 0.52986 0.51246 0.0
C163 C 0.92429 0.51182 0.52833 0.0
C164 C 0.8722 0.49327 0.5256 0.0
C165 C 0.85119 0.49158 0.50696 0.0
C166 C 0.88043 0.51035 0.49095 0.0
C167 C 0.93269 0.52939 0.49378 0.0
Fe168 Fe 1.00559 0.78954 0.1864 0.0
O169 O 1.00541 0.80131 0.15822 0.0
Fe170 Fe 0.93972 0.77552 0.1425 0.0
Fe171 Fe 0.06146 0.77379 0.14049 0.0
O172 O 1.00071 0.80119 0.15832 0.0
O173 O 0.99556 0.74637 0.12492 0.0
O174 O 1.00068 0.7464 0.12482 0.0
Fe175 Fe 0.99602 0.75808 0.0967 0.0
C176 C 0.11148 0.83911 0.17389 0.0
O177 O 0.0614 0.73043 0.18554 0.0
O178 O 0.06356 0.70272 0.15502 0.0
O179 O 0.93047 0.70722 0.09853 0.0
O180 O 0.88251 0.74425 0.12361 0.0
O181 O 0.93757 0.70402 0.1571 0.0
O182 O 0.94626 0.73214 0.18744 0.0
O183 O 0.11244 0.7404 0.11997 0.0
O184 O 0.05715 0.7039 0.09683 0.0
C185 C 0.93358 0.69651 0.17526 0.0
O186 O 0.94017 0.81703 0.09747 0.0
O187 O 0.93931 0.84613 0.12779 0.0
O188 O 0.06886 0.84158 0.1845 0.0
O189 O 0.11809 0.8084 0.15895 0.0
C190 C 0.07215 0.69546 0.17292 0.0
C191 C 0.10305 0.70969 0.10522 0.0
C192 C 0.07566 0.84691 0.1078 0.0
O193 O 0.06296 0.8442 0.12559 0.0
O194 O 0.0572 0.81391 0.09559 0.0
C195 C 0.8868 0.7141 0.10841 0.0
O196 O 0.88901 0.81222 0.16276 0.0
O197 O 0.94545 0.8438 0.1865 0.0
C198 C 0.92623 0.85056 0.11015 0.0
C199 C 0.90053 0.84292 0.17737 0.0
Fe200 Fe 0.53981 0.76677 0.4324 0.0
O201 O 0.551 0.76323 0.40412 0.0
Fe202 Fe 0.52514 0.82712 0.38733 0.0
Fe203 Fe 0.52105 0.70518 0.38773 0.0
O204 O 0.5511 0.76815 0.40409 0.0
O205 O 0.49388 0.76923 0.37128 0.0
O206 O 0.49372 0.76423 0.37132 0.0
Fe207 Fe 0.5015 0.76618 0.3431 0.0
C208 C 0.58738 0.65946 0.42175 0.0
O209 O 0.47875 0.71091 0.43316 0.0
O210 O 0.45065 0.70606 0.40275 0.0
O211 O 0.45164 0.83073 0.34462 0.0
O212 O 0.49267 0.88182 0.36797 0.0
O213 O 0.45477 0.82961 0.40229 0.0
O214 O 0.48329 0.82618 0.4326 0.0
O215 O 0.48452 0.65178 0.36854 0.0
O216 O 0.44639 0.70494 0.34517 0.0
C217 C 0.4473 0.83618 0.42027 0.0
O218 O 0.56127 0.82263 0.34189 0.0
O219 O 0.59459 0.82803 0.37157 0.0
O220 O 0.59038 0.70333 0.43151 0.0
O221 O 0.55602 0.65079 0.40707 0.0
C222 C 0.44271 0.70109 0.4208 0.0
C223 C 0.45239 0.65975 0.35408 0.0
C224 C 0.59036 0.68833 0.35424 0.0
O225 O 0.59051 0.70146 0.37198 0.0
O226 O 0.55596 0.70604 0.34249 0.0
C227 C 0.46046 0.87549 0.35345 0.0
O228 O 0.56381 0.87995 0.40625 0.0
O229 O 0.59607 0.8266 0.43079 0.0
C230 C 0.59642 0.83943 0.35361 0.0
C231 C 0.59624 0.86969 0.42042 0.0
Fe232 Fe 0.50685 0.26011 0.65755 0.0
O233 O 0.55094 0.23625 0.63534 0.0
Fe234 Fe 0.38551 0.28555 0.63713 0.0
Fe235 Fe 0.62832 0.24342 0.63636 0.0
O236 O 0.46286 0.29314 0.63703 0.0
O237 O 0.46303 0.2938 0.63507 0.0
O238 O 0.55083 0.23641 0.63321 0.0
Fe239 Fe 0.50837 0.27223 0.6125 0.0
C240 C 0.59854 0.33355 0.66267 0.0
O241 O 0.55764 0.21846 0.67634 0.0
O242 O 0.61873 0.18206 0.65557 0.0
O243 O 0.4633 0.2036 0.60806 0.0
O244 O 0.38147 0.23253 0.61501 0.0
O245 O 0.38295 0.22249 0.65698 0.0
O246 O 0.46456 0.19071 0.65604 0.0
O247 O 0.6256 0.19997 0.61129 0.0
O248 O 0.56564 0.24495 0.59209 0.0
C249 C 0.41546 0.18459 0.65941 0.0
O250 O 0.4547 0.31363 0.59442 0.0
O251 O 0.38947 0.34251 0.61563 0.0
O252 O 0.54939 0.32952 0.65923 0.0
O253 O 0.62941 0.29452 0.66004 0.0
C254 C 0.59091 0.18161 0.67139 0.0
C255 C 0.60785 0.21573 0.59463 0.0
C256 C 0.60383 0.34591 0.61397 0.0
O257 O 0.63451 0.3085 0.61881 0.0
O258 O 0.55319 0.34176 0.61459 0.0
C259 C 0.41269 0.2005 0.6067 0.0
O260 O 0.39286 0.3355 0.66026 0.0
O261 O 0.45597 0.29307 0.6785 0.0
C262 C 0.4129 0.34183 0.59879 0.0
C263 C 0.42054 0.3296 0.67583 0.0
Fe264 Fe 1.00237 0.25604 0.91246 0.0
O265 O 0.03042 0.21212 0.89098 0.0
Fe266 Fe 0.97587 0.37617 0.89125 0.0
Fe267 Fe 0.0259 0.13475 0.8921 0.0
O268 O 0.97034 0.29854 0.89127 0.0
O269 O 0.96992 0.2983 0.88925 0.0
O270 O 0.03088 0.21232 0.88905 0.0
Fe271 Fe 0.99961 0.25502 0.86745 0.0
C272 C 0.08052 0.17393 0.92822 0.0
O273 O 0.9344 0.21147 0.91395 0.0
O274 O 0.97002 0.13163 0.9147 0.0
O275 O 0.9624 0.30854 0.84826 0.0
O276 O 0.92354 0.37057 0.86848 0.0
O277 O 0.92309 0.36788 0.9137 0.0
O278 O 0.96591 0.30645 0.93262 0.0
O279 O 0.96505 0.12686 0.87308 0.0
O280 O 0.9314 0.20723 0.8668 0.0
C281 C 0.92974 0.34217 0.92977 0.0
O282 O 0.06796 0.3026 0.86563 0.0
O283 O 0.03308 0.38285 0.8705 0.0
O284 O 0.04282 0.20718 0.93219 0.0
O285 O 0.08317 0.14585 0.91261 0.0
C286 C 0.93133 0.16258 0.91813 0.0
C287 C 0.92865 0.15644 0.86663 0.0
C288 C 0.06641 0.16081 0.85123 0.0
O289 O 0.07451 0.13878 0.86801 0.0
O290 O 0.03544 0.20128 0.84799 0.0
C291 C 0.93128 0.3488 0.85166 0.0
O292 O 0.03528 0.38038 0.91228 0.0
O293 O 0.07046 0.30041 0.9113 0.0
C294 C 0.06994 0.35329 0.86444 0.0
C295 C 0.0742 0.34935 0.91506 0.0
C296 C 0.17117 0.92365 0.46738 0.0
C297 C 0.16458 0.97817 0.46455 0.0
C298 C 0.21122 0.89627 0.45752 0.0
C299 C 0.24619 0.92439 0.44495 0.0
C300 C 0.2364 0.97845 0.44071 0.0
C301 C 0.19537 1.00465 0.4505 0.0
C302 C 0.21894 0.83833 0.46188 0.0
C303 C 0.27258 0.01007 0.42741 0.0
C304 C 0.39073 0.88227 0.44482 0.0
C305 C 0.3955 0.85732 0.42682 0.0
C306 C 0.34229 0.90401 0.45083 0.0
C307 C 0.29714 0.89993 0.43871 0.0
C308 C 0.30133 0.8735 0.42075 0.0
C309 C 0.35053 0.85292 0.41496 0.0
C310 C 0.33963 0.93204 0.47009 0.0
C311 C 0.25396 0.86712 0.40765 0.0
H312 H 0.14769 0.9034 0.47842 0.0
H313 H 0.19087 0.04709 0.44859 0.0
H314 H 0.22573 0.81613 0.4483 0.0
H315 H 0.25451 0.83339 0.47109 0.0
H316 H 0.18409 0.82071 0.46957 0.0
H317 H 0.25535 0.049 0.42346 0.0
H318 H 0.31106 0.01734 0.43475 0.0
H319 H 0.28095 0.98774 0.41397 0.0
H320 H 0.42522 0.88581 0.45406 0.0
H321 H 0.35369 0.83301 0.40113 0.0
H322 H 0.30949 0.91249 0.47956 0.0
H323 H 0.32716 0.97372 0.46791 0.0
H324 H 0.37834 0.93218 0.47772 0.0
H325 H 0.2215 0.84569 0.41541 0.0
H326 H 0.2637 0.84496 0.39425 0.0
H327 H 0.23858 0.90663 0.40352 0.0
C328 C 0.35932 0.93686 0.72803 0.0
C329 C 0.3188 0.90271 0.72168 0.0
C330 C 0.37783 0.97906 0.71636 0.0
C331 C 0.35622 0.98653 0.69765 0.0
C332 C 0.31873 0.94916 0.69053 0.0
C333 C 0.29969 0.90825 0.70277 0.0
C334 C 0.41665 0.01855 0.72482 0.0
C335 C 0.29584 0.95463 0.67049 0.0
C336 C 0.35125 0.12937 0.67923 0.0
C337 C 0.39738 0.13298 0.66784 0.0
C338 C 0.33703 0.08171 0.68875 0.0
C339 C 0.36903 0.03613 0.68649 0.0
C340 C 0.4146 0.03908 0.67443 0.0
C341 C 0.42842 0.08745 0.66541 0.0
C342 C 0.28876 0.08071 0.70181 0.0
C343 C 0.44915 0.99133 0.67127 0.0
H344 H 0.37293 0.93362 0.74285 0.0
H345 H 0.26745 0.8827 0.69802 0.0
H346 H 0.44881 0.02831 0.71433 0.0
H347 H 0.39566 0.05597 0.72807 0.0
H348 H 0.43466 1.00369 0.73842 0.0
H349 H 0.27404 0.91819 0.66601 0.0
H350 H 0.26789 0.98831 0.67019 0.0
H351 H 0.32772 0.96331 0.65975 0.0
H352 H 0.3273 0.16436 0.6813 0.0
H353 H 0.46396 0.08968 0.6565 0.0
H354 H 0.30073 0.07104 0.71685 0.0
H355 H 0.26054 0.0493 0.69712 0.0
H356 H 0.26779 0.11924 0.70189 0.0
H357 H 0.42544 0.95912 0.66449 0.0
H358 H 0.46355 0.97593 0.68532 0.0
H359 H 0.48402 1.00048 0.66186 0.0
C360 C 0.30875 0.05763 0.99026 0.0
C361 C 0.34191 0.09299 0.00022 0.0
C362 C 0.26746 0.07619 0.97864 0.0
C363 C 0.25932 0.1315 0.97689 0.0
C364 C 0.29423 0.16747 0.98622 0.0
C365 C 0.33511 0.14773 -0.00216 0.0
C366 C 0.23155 0.03651 0.96872 0.0
C367 C 0.28701 0.22665 0.98484 0.0
C368 C 0.17719 0.16687 0.93329 0.0
C369 C 0.12613 0.17003 0.94136 0.0
C370 C 0.22149 0.15792 0.94491 0.0
C371 C 0.2144 0.1509 0.96506 0.0
C372 C 0.16335 0.15721 0.97345 0.0
C373 C 0.1196 0.16725 0.96146 0.0
C374 C 0.27558 0.15384 0.93553 0.0
C375 C 0.15464 0.15084 0.99496 0.0
H376 H 0.31411 0.01529 0.99209 0.0
H377 H 0.36003 0.17517 0.00584 0.0
H378 H 0.19006 0.04149 0.97383 0.0
H379 H 0.23201 0.04363 0.95286 0.0
H380 H 0.24347 0.99488 0.97151 0.0
H381 H 0.32435 0.24861 0.98813 0.0
H382 H 0.27321 0.23863 0.97029 0.0
H383 H 0.25649 0.23864 0.99554 0.0
H384 H 0.18239 0.17062 0.91775 0.0
H385 H 0.08015 0.17034 0.96766 0.0
H386 H 0.29012 0.11261 0.93689 0.0
H387 H 0.30443 0.18014 0.94302 0.0
H388 H 0.27495 0.16481 0.91994 0.0
H389 H 0.16312 0.10938 -0.00067 0.0
H390 H 0.11335 0.16028 -0.00063 0.0
H391 H 0.18244 0.17706 0.00297 0.0
C392 C 0.28741 0.07975 0.21419 0.0
C393 C 0.24702 0.1082 0.22347 0.0
C394 C 0.27526 0.03666 0.20213 0.0
C395 C 0.22153 0.02195 0.19932 0.0
C396 C 0.18068 0.0538 0.20708 0.0
C397 C 0.19393 0.09645 0.21908 0.0
C398 C 0.31995 1.00436 0.19385 0.0
C399 C 0.12273 0.0399 0.20425 0.0
C400 C 0.1653 0.91876 0.16545 0.0
C401 C 0.15323 0.87785 0.17857 0.0
C402 C 0.19263 0.96453 0.17149 0.0
C403 C 0.20724 0.96934 0.19116 0.0
C404 C 0.19915 0.92593 0.20401 0.0
C405 C 0.1718 0.88077 0.19755 0.0
C406 C 0.2013 0.00951 0.1573 0.0
C407 C 0.21461 0.92915 0.22506 0.0
H408 H 0.32859 0.08927 0.21725 0.0
H409 H 0.1624 0.11784 0.22625 0.0
H410 H 0.32617 0.969 0.20316 0.0
H411 H 0.31036 0.99011 0.1791 0.0
H412 H 0.35772 0.02751 0.19325 0.0
H413 H 0.09616 0.07204 0.20921 0.0
H414 H 0.11446 0.03182 0.18879 0.0
H415 H 0.11273 1.00332 0.21257 0.0
H416 H 0.14912 0.91728 0.15099 0.0
H417 H 0.16181 0.84916 0.20769 0.0
H418 H 0.24254 0.0251 0.15828 0.0
H419 H 0.17426 0.04253 0.16088 0.0
H420 H 0.19356 0.99701 0.14217 0.0
H421 H 0.25577 0.94464 0.2265 0.0
H422 H 0.21176 0.88994 0.23244 0.0
H423 H 0.18792 0.95703 0.23266 0.0
C424 C 0.1791 0.08846 0.5438 0.0
C425 C 0.19438 0.06801 0.52578 0.0
C426 C 0.21735 0.10362 0.5576 0.0
C427 C 0.27216 0.09758 0.55339 0.0
C428 C 0.28769 0.0752 0.53557 0.0
C429 C 0.24894 0.0617 0.52193 0.0
C430 C 0.19922 0.1283 0.57632 0.0
C431 C 0.34554 0.0678 0.53046 0.0
C432 C 0.36797 0.19693 0.57541 0.0
C433 C 0.38798 0.16897 0.59128 0.0
C434 C 0.33057 0.17396 0.56302 0.0
C435 C 0.31336 0.12106 0.56632 0.0
C436 C 0.33555 0.0915 0.58178 0.0
C437 C 0.37218 0.11618 0.59433 0.0
C438 C 0.30764 0.20735 0.54695 0.0
C439 C 0.319 0.03467 0.5855 0.0
H440 H 0.13731 0.09332 0.54704 0.0
H441 H 0.26197 0.04781 0.5079 0.0
H442 H 0.21797 0.10823 0.58882 0.0
H443 H 0.21193 0.17059 0.57665 0.0
H444 H 0.15541 0.12623 0.57815 0.0
H445 H 0.35076 0.0431 0.51732 0.0
H446 H 0.36459 0.10705 0.52776 0.0
H447 H 0.36682 0.04887 0.54265 0.0
H448 H 0.37919 0.23822 0.57345 0.0
H449 H 0.38646 0.09517 0.60697 0.0
H450 H 0.2639 0.2097 0.54864 0.0
H451 H 0.31581 0.18889 0.53272 0.0
H452 H 0.32427 0.24826 0.54681 0.0
H453 H 0.27669 0.03303 0.59001 0.0
H454 H 0.34321 0.01583 0.59698 0.0
H455 H 0.32267 0.01116 0.57203 0.0
C456 C 0.15011 0.92081 0.78552 0.0
C457 C 0.19036 0.93324 0.77207 0.0
C458 C 0.12558 0.96089 0.79642 0.0
C459 C 0.14141 0.01463 0.79371 0.0
C460 C 0.17991 0.02761 0.77949 0.0
C461 C 0.2044 0.98696 0.76914 0.0
C462 C 0.0847 0.94551 0.81154 0.0
C463 C 0.19775 0.0843 0.77598 0.0
C464 C 0.06123 0.12427 0.81761 0.0
C465 C 0.08996 0.13216 0.83471 0.0
C466 C 0.07768 0.08659 0.80389 0.0
C467 C 0.12373 0.05628 0.80747 0.0
C468 C 0.15408 0.06609 0.82428 0.0
C469 C 0.13696 0.10397 0.8376 0.0
C470 C 0.04467 0.0777 0.78602 0.0
C471 C 0.20367 0.03508 0.82862 0.0
H472 H 0.1386 0.87972 0.78784 0.0
H473 H 0.23653 0.99759 0.75933 0.0
H474 H 0.10105 0.95303 0.82617 0.0
H475 H 0.04872 0.97011 0.81 0.0
H476 H 0.07293 0.903 0.81061 0.0
H477 H 0.22207 0.08855 0.76259 0.0
H478 H 0.16301 0.11077 0.77484 0.0
H479 H 0.2219 0.09816 0.78839 0.0
H480 H 0.02436 0.14525 0.81547 0.0
H481 H 0.1593 0.10997 0.8508 0.0
H482 H 0.02546 0.03793 0.78679 0.0
H483 H 0.07021 0.07857 0.77288 0.0
H484 H 0.0132 0.10793 0.78442 0.0
H485 H 0.19378 0.99216 0.82972 0.0
H486 H 0.22277 0.04771 0.84233 0.0
H487 H 0.23289 0.04007 0.81667 0.0
C488 C 0.32712 0.02585 0.07492 0.0
C489 C 0.35652 0.99657 0.06152 0.0
C490 C 0.28421 1.0026 0.08506 0.0
C491 C 0.27078 0.94865 0.08181 0.0
C492 C 0.30346 0.91777 0.06957 0.0
C493 C 0.34557 0.94233 0.05936 0.0
C494 C 0.25062 0.0369 0.09799 0.0
C495 C 0.2914 0.85983 0.06604 0.0
C496 C 0.16881 0.87672 0.11366 0.0
C497 C 0.12319 0.87845 0.10212 0.0
C498 C 0.21677 0.90058 0.10756 0.0
C499 C 0.21944 0.92622 0.08931 0.0
C500 C 0.17318 0.92869 0.07769 0.0
C501 C 0.12575 0.90431 0.08417 0.0
C502 C 0.26504 0.89625 0.1203 0.0
C503 C 0.17411 0.95598 0.05819 0.0
H504 H 0.33482 0.0681 0.0762 0.0
H505 H 0.36759 0.92002 0.04867 0.0
H506 H 0.21083 0.04188 0.09145 0.0
H507 H 0.24474 0.01754 0.11229 0.0
H508 H 0.2687 0.07679 0.10022 0.0
H509 H 0.32451 0.83979 0.05843 0.0
H510 H 0.28335 0.83876 0.0799 0.0
H511 H 0.2552 0.85608 0.05704 0.0
H512 H 0.16772 0.85434 0.12708 0.0
H513 H 0.09081 0.90478 0.07508 0.0
H514 H 0.2845 0.93561 0.12204 0.0
H515 H 0.29433 0.86971 0.11338 0.0
H516 H 0.25501 0.88011 0.13488 0.0
H517 H 0.18921 0.99728 0.05966 0.0
H518 H 0.13421 0.95701 0.05143 0.0
H519 H 0.20154 0.93503 0.04828 0.0
C520 C 0.30875 0.12083 0.30597 0.0
C521 C 0.33149 0.12839 0.28756 0.0
C522 C 0.3322 0.08695 0.31953 0.0
C523 C 0.37905 0.05984 0.31442 0.0
C524 C 0.40471 0.07119 0.29657 0.0
C525 C 0.38065 0.10554 0.28336 0.0
C526 C 0.30416 0.07652 0.33856 0.0
C527 C 0.4549 0.04333 0.29059 0.0
C528 C 0.45462 0.9743 0.34999 0.0
C529 C 0.4356 0.92342 0.34521 0.0
C530 C 0.43552 0.01957 0.34052 0.0
C531 C 0.39638 0.0137 0.32607 0.0
C532 C 0.37555 0.96275 0.32176 0.0
C533 C 0.39536 0.91829 0.3314 0.0
C534 C 0.45808 0.07342 0.34561 0.0
C535 C 0.33368 0.95487 0.30641 0.0
H536 H 0.27062 0.1382 0.30929 0.0
H537 H 0.39874 0.11206 0.26926 0.0
H538 H 0.28318 0.03763 0.33792 0.0
H539 H 0.33299 0.07457 0.35061 0.0
H540 H 0.27449 0.10754 0.34184 0.0
H541 H 0.47534 0.064 0.27837 0.0
H542 H 0.48279 0.04031 0.30288 0.0
H543 H 0.44479 1.00237 0.28595 0.0
H544 H 0.48575 0.97873 0.36065 0.0
H545 H 0.38004 0.87928 0.32774 0.0
H546 H 0.4263 0.09836 0.35182 0.0
H547 H 0.47309 0.09398 0.33241 0.0
H548 H 0.49091 0.07084 0.35624 0.0
H549 H 0.2987 0.97978 0.30958 0.0
H550 H 0.32022 0.91287 0.30536 0.0
H551 H 0.34971 0.96754 0.29211 0.0
C552 C 0.83511 0.09485 0.53146 0.0
C553 C 0.85839 0.1278 0.51736 0.0
C554 C 0.79204 0.11222 0.54265 0.0
C555 C 0.77108 0.16343 0.53936 0.0
C556 C 0.79477 0.19695 0.52514 0.0
C557 C 0.83833 0.17874 0.51434 0.0
C558 C 0.76866 0.07557 0.55789 0.0
C559 C 0.77353 0.25164 0.52115 0.0
C560 C 0.63298 0.18653 0.56082 0.0
C561 C 0.64639 0.20909 0.57862 0.0
C562 C 0.67311 0.17336 0.54735 0.0
C563 C 0.7273 0.18317 0.55194 0.0
C564 C 0.74027 0.20878 0.56945 0.0
C565 C 0.69977 0.22159 0.58245 0.0
C566 C 0.65781 0.14667 0.52868 0.0
C567 C 0.79721 0.21944 0.57518 0.0
H568 H 0.84988 0.05493 0.53336 0.0
H569 H 0.85539 0.20345 0.50296 0.0
H570 H 0.77144 0.09442 0.57233 0.0
H571 H 0.72595 0.06829 0.55495 0.0
H572 H 0.78914 0.0368 0.55846 0.0
H573 H 0.79678 0.27306 0.50979 0.0
H574 H 0.73156 0.24858 0.51646 0.0
H575 H 0.77414 0.27553 0.53457 0.0
H576 H 0.59178 0.17696 0.55785 0.0
H577 H 0.71019 0.23988 0.59611 0.0
H578 H 0.67107 0.10485 0.52895 0.0
H579 H 0.67793 0.16649 0.51624 0.0
H580 H 0.61423 0.14703 0.5263 0.0
H581 H 0.81594 0.18153 0.57944 0.0
H582 H 0.80015 0.24721 0.58758 0.0
H583 H 0.82049 0.23612 0.56287 0.0
C584 C 0.75484 0.08407 0.30465 0.0
C585 C 0.7142 0.11513 0.2969 0.0
C586 C 0.74331 0.04231 0.3176 0.0
C587 C 0.6898 0.03076 0.32252 0.0
C588 C 0.64924 0.06517 0.31614 0.0
C589 C 0.66203 0.10723 0.30346 0.0
C590 C 0.78789 0.00779 0.3246 0.0
C591 C 0.59167 0.0545 0.32111 0.0
C592 C 0.64359 0.88757 0.32694 0.0
C593 C 0.63137 0.88333 0.3467 0.0
C594 C 0.66497 0.93463 0.31909 0.0
C595 C 0.67512 0.97848 0.33136 0.0
C596 C 0.66653 0.97315 0.35155 0.0
C597 C 0.64387 0.92594 0.35893 0.0
C598 C 0.67333 0.93848 0.29745 0.0
C599 C 0.67791 0.01828 0.36524 0.0
H600 H 0.79525 0.09021 0.29956 0.0
H601 H 0.63053 0.13087 0.29732 0.0
H602 H 0.78225 0.99719 0.34009 0.0
H603 H 0.78806 0.97034 0.31623 0.0
H604 H 0.8272 0.02764 0.32273 0.0
H605 H 0.56583 0.08783 0.31672 0.0
H606 H 0.57795 0.01803 0.31361 0.0
H607 H 0.58672 0.04755 0.33688 0.0
H608 H 0.63366 0.85494 0.3174 0.0
H609 H 0.63238 0.92404 0.37402 0.0
H610 H 0.71444 0.95196 0.29412 0.0
H611 H 0.646 0.96831 0.29129 0.0
H612 H 0.66608 0.90001 0.29009 0.0
H613 H 0.71542 0.03918 0.36124 0.0
H614 H 0.68077 1.00422 0.38046 0.0
H615 H 0.64536 0.04745 0.36441 0.0
C616 C 0.67727 0.01766 0.0736 0.0
C617 C 0.65729 0.9875 0.05825 0.0
C618 C 0.71732 0.9977 0.08552 0.0
C619 C 0.73699 0.94623 0.08206 0.0
C620 C 0.71297 0.91374 0.06782 0.0
C621 C 0.67383 0.93515 0.05584 0.0
C622 C 0.74173 0.0333 0.10064 0.0
C623 C 0.73156 0.8579 0.06419 0.0
C624 C 0.88242 0.91494 0.08837 0.0
C625 C 0.88124 0.8844 0.10528 0.0
C626 C 0.83597 0.93808 0.08132 0.0
C627 C 0.78717 0.92908 0.09121 0.0
C628 C 0.78632 0.89998 0.10877 0.0
C629 C 0.83352 0.87786 0.11557 0.0
C630 C 0.83865 0.96964 0.06269 0.0
C631 C 0.73525 0.88859 0.11961 0.0
H632 H 0.66477 0.05843 0.07523 0.0
H633 H 0.65836 0.91212 0.04387 0.0
H634 H 0.74604 0.01167 0.11454 0.0
H635 H 0.78209 0.04587 0.09583 0.0
H636 H 0.71776 0.06936 0.10317 0.0
H637 H 0.70417 0.83566 0.05454 0.0
H638 H 0.77146 0.85923 0.05731 0.0
H639 H 0.73512 0.83577 0.07804 0.0
H640 H 0.91929 0.91899 0.08028 0.0
H641 H 0.83231 0.8522 0.12821 0.0
H642 H 0.81846 0.00822 0.06448 0.0
H643 H 0.81766 0.94761 0.0511 0.0
H644 H 0.88019 0.97732 0.05787 0.0
H645 H 0.709 0.92362 0.11963 0.0
H646 H 0.74279 0.87653 0.13484 0.0
H647 H 0.71366 0.85568 0.11237 0.0
C648 C 0.73717 0.95846 0.80779 0.0
C649 C 0.77149 0.92002 0.80034 0.0
C650 C 0.75603 0.99958 0.81963 0.0
C651 C 0.81069 1.00252 0.82412 0.0
C652 C 0.84523 0.96247 0.81728 0.0
C653 C 0.82515 0.9216 0.80544 0.0
C654 C 0.71784 0.04118 0.8266 0.0
C655 C 0.90379 0.96405 0.8218 0.0
C656 C 0.87808 0.13392 0.83693 0.0
C657 C 0.88501 0.12792 0.8569 0.0
C658 C 0.85179 0.0944 0.82613 0.0
C659 C 0.83203 0.04805 0.8356 0.0
C660 C 0.83541 0.04405 0.856 0.0
C661 C 0.86202 0.08391 0.86636 0.0
C662 C 0.84872 0.10046 0.80442 0.0
C663 C 0.81452 0.99581 0.86674 0.0
H664 H 0.69572 0.95753 0.80363 0.0
H665 H 0.8518 0.89247 0.79939 0.0
H666 H 0.72067 0.04572 0.84252 0.0
H667 H 0.72848 0.0801 0.81999 0.0
H668 H 0.67604 0.03139 0.82284 0.0
H669 H 0.9248 0.92869 0.81624 0.0
H670 H 0.92229 1.00009 0.81525 0.0
H671 H 0.9098 0.96643 0.83768 0.0
H672 H 0.89709 0.16714 0.82953 0.0
H673 H 0.86822 0.07887 0.88179 0.0
H674 H 0.8079 0.09169 0.79931 0.0
H675 H 0.87561 0.07158 0.79745 0.0
H676 H 0.86042 0.141 0.79953 0.0
H677 H 0.77331 0.98631 0.86224 0.0
H678 H 0.81503 1.0014 0.88269 0.0
H679 H 0.8393 0.96107 0.86315 0.0
C680 C 0.86711 0.9723 0.45961 0.0
C681 C 0.87655 0.02685 0.45777 0.0
C682 C 0.82456 0.94797 0.4499 0.0
C683 C 0.79044 0.97935 0.43841 0.0
C684 C 0.80307 0.03348 0.43508 0.0
C685 C 0.8461 0.05665 0.44485 0.0
C686 C 0.81314 0.88984 0.45348 0.0
C687 C 0.7681 0.06816 0.42281 0.0
C688 C 0.68412 0.90494 0.41037 0.0
C689 C 0.64149 0.90581 0.42345 0.0
C690 C 0.73216 0.93111 0.4145 0.0
C691 C 0.73796 0.95746 0.43241 0.0
C692 C 0.69424 0.9597 0.44543 0.0
C693 C 0.64655 0.93341 0.44083 0.0
C694 C 0.77747 0.92774 0.40019 0.0
C695 C 0.69863 0.98778 0.46463 0.0
H696 H 0.89013 0.94964 0.4699 0.0
H697 H 0.85294 0.09912 0.44379 0.0
H698 H 0.77799 0.88553 0.46314 0.0
H699 H 0.8037 0.86945 0.43971 0.0
H700 H 0.84716 0.86962 0.4604 0.0
H701 H 0.78791 0.10646 0.41903 0.0
H702 H 0.75669 0.04765 0.40925 0.0
H703 H 0.73102 0.07675 0.4309 0.0
H704 H 0.68099 0.88111 0.39741 0.0
H705 H 0.61384 0.93281 0.4511 0.0
H706 H 0.80671 0.89857 0.40551 0.0
H707 H 0.79833 0.96653 0.39868 0.0
H708 H 0.76365 0.91494 0.38567 0.0
H709 H 0.72763 0.96704 0.47394 0.0
H710 H 0.65999 0.98916 0.47243 0.0
H711 H 0.71351 0.02897 0.46243 0.0
C712 C 0.80646 0.10955 0.21947 0.0
C713 C 0.75547 0.10953 0.22752 0.0
C714 C 0.8228 0.0676 0.2076 0.0
C715 C 0.78721 0.02483 0.20391 0.0
C716 C 0.73405 0.02758 0.2105 0.0
C717 C 0.71889 0.06986 0.22235 0.0
C718 C 0.87968 0.06649 0.20066 0.0
C719 C 0.69468 0.9833 0.20675 0.0
C720 C 0.83767 0.91654 0.17046 0.0
C721 C 0.86165 0.88248 0.18381 0.0
C722 C 0.81091 0.96213 0.1767 0.0
C723 C 0.80836 0.97357 0.19675 0.0
C724 C 0.82958 0.93723 0.21029 0.0
C725 C 0.85617 0.89235 0.20363 0.0
C726 C 0.78852 0.99954 0.1618 0.0
C727 C 0.82698 0.94724 0.23183 0.0
H728 H 0.83472 0.1401 0.22366 0.0
H729 H 0.67946 0.06994 0.22874 0.0
H730 H 0.90198 0.03719 0.20937 0.0
H731 H 0.88176 0.05392 0.18531 0.0
H732 H 0.89961 0.10581 0.20207 0.0
H733 H 0.65319 0.99602 0.20939 0.0
H734 H 0.69817 0.96883 0.19167 0.0
H735 H 0.70312 0.94946 0.21656 0.0
H736 H 0.84302 0.90968 0.15514 0.0
H737 H 0.87482 0.86598 0.21395 0.0
H738 H 0.81482 0.03498 0.16048 0.0
H739 H 0.74868 0.01343 0.16626 0.0
H740 H 0.78547 0.98069 0.14734 0.0
H741 H 0.85081 0.98316 0.23538 0.0
H742 H 0.84232 0.91339 0.24042 0.0
H743 H 0.78546 0.95469 0.23641 0.0
C744 C 0.72491 0.09712 0.0007 0.0
C745 C 0.67496 0.07671 0.99559 0.0
C746 C 0.76387 0.10869 0.98671 0.0
C747 C 0.75294 0.09944 0.96689 0.0
C748 C 0.70226 0.07911 0.96158 0.0
C749 C 0.66358 0.06844 0.97601 0.0
C750 C 0.81703 0.12896 0.99374 0.0
C751 C 0.68952 0.0671 0.94074 0.0
C752 C 0.84018 0.17778 0.93164 0.0
C753 C 0.883 0.14333 0.92874 0.0
C754 C 0.7963 0.16307 0.94318 0.0
C755 C 0.79444 0.11217 0.95192 0.0
C756 C 0.83604 0.07606 0.94818 0.0
C757 C 0.87986 0.09206 0.93669 0.0
C758 C 0.75267 0.20285 0.94621 0.0
C759 C 0.8354 0.02126 0.95705 0.0
H760 H 0.73399 0.10328 0.01587 0.0
H761 H 0.62525 0.05192 0.97207 0.0
H762 H 0.83812 0.09593 0.00095 0.0
H763 H 0.84303 0.14512 0.9821 0.0
H764 H 0.81119 0.16028 0.00479 0.0
H765 H 0.6505 0.04664 0.93918 0.0
H766 H 0.68879 0.10448 0.93224 0.0
H767 H 0.72082 0.04182 0.93435 0.0
H768 H 0.8414 0.21717 0.92528 0.0
H769 H 0.91231 0.06488 0.93442 0.0
H770 H 0.7376 0.20207 0.96132 0.0
H771 H 0.71897 0.193 0.93657 0.0
H772 H 0.76625 0.24383 0.94265 0.0
H773 H 0.84327 0.02434 0.9728 0.0
H774 H 0.8659 0.99531 0.95049 0.0
H775 H 0.79574 1.00227 0.95531 0.0
C776 C 0.63024 0.91708 0.73603 0.0
C777 C 0.6855 0.9126 0.73719 0.0
C778 C 0.60726 0.95753 0.7249 0.0
C779 C 0.64052 0.99404 0.71478 0.0
C780 C 0.69626 0.98726 0.71493 0.0
C781 C 0.71805 0.94665 0.72617 0.0
C782 C 0.54776 0.96322 0.72501 0.0
C783 C 0.73316 0.02478 0.70412 0.0
C784 C 0.59615 0.08401 0.67424 0.0
C785 C 0.59521 0.13347 0.68344 0.0
C786 C 0.60693 0.03751 0.68458 0.0
C787 C 0.61798 0.0407 0.70457 0.0
C788 C 0.61372 0.09014 0.7142 0.0
C789 C 0.60185 0.13613 0.70349 0.0
C790 C 0.60959 0.98552 0.67387 0.0
C791 C 0.62493 0.09499 0.73555 0.0
H792 H 0.60518 0.89132 0.74487 0.0
H793 H 0.76082 0.94333 0.72727 0.0
H794 H 0.53695 0.99811 0.73386 0.0
H795 H 0.53294 0.97027 0.71016 0.0
H796 H 0.52727 0.92764 0.73115 0.0
H797 H 0.77528 0.01241 0.70497 0.0
H798 H 0.72174 0.02713 0.68866 0.0
H799 H 0.72988 0.06525 0.71023 0.0
H800 H 0.58972 0.08189 0.65875 0.0
H801 H 0.60071 0.17437 0.71058 0.0
H802 H 0.5865 0.95435 0.6817 0.0
H803 H 0.6514 0.97226 0.67311 0.0
H804 H 0.59412 0.98882 0.65889 0.0
H805 H 0.60213 0.06451 0.74384 0.0
H806 H 0.61484 0.13481 0.74122 0.0
H807 H 0.6677 0.0879 0.73818 0.0
C808 C 0.66722 0.39927 0.98847 0.0
C809 C 0.67622 0.42007 0.00695 0.0
C810 C 0.70957 0.38058 0.97719 0.0
C811 C 0.76202 0.38367 0.98446 0.0
C812 C 0.77093 0.4021 0.00345 0.0
C813 C 0.72785 0.41922 0.01456 0.0
C814 C 0.69851 0.35941 0.9572 0.0
C815 C 0.82624 0.40669 0.01166 0.0
C816 C 0.8733 0.31319 0.95787 0.0
C817 C 0.89169 0.35358 0.94545 0.0
C818 C 0.83113 0.32228 0.97081 0.0
C819 C 0.80788 0.37313 0.97151 0.0
C820 C 0.82815 0.41459 0.95963 0.0
C821 C 0.86946 0.40416 0.94664 0.0
C822 C 0.81113 0.27733 0.98346 0.0
C823 C 0.80549 0.46981 0.96035 0.0
H824 H 0.62749 0.39941 0.98254 0.0
H825 H 0.73493 0.43339 0.02911 0.0
H826 H 0.7167 0.38613 0.94615 0.0
H827 H 0.71677 0.31988 0.95551 0.0
H828 H 0.65531 0.35577 0.95427 0.0
H829 H 0.82604 0.41891 0.02709 0.0
H830 H 0.84708 0.36836 0.01044 0.0
H831 H 0.84957 0.43646 0.0032 0.0
H832 H 0.89025 0.27394 0.95688 0.0
H833 H 0.88395 0.43558 0.93715 0.0
H834 H 0.76709 0.27559 0.98362 0.0
H835 H 0.82439 0.28368 -0.00145 0.0
H836 H 0.82645 0.23858 0.97854 0.0
H837 H 0.76345 0.46879 0.95566 0.0
H838 H 0.82774 0.49823 0.95092 0.0
H839 H 0.80619 0.48488 0.97542 0.0
C840 C 0.87684 0.4326 0.23441 0.0
C841 C 0.82531 0.41243 0.23181 0.0
C842 C 0.89707 0.47338 0.22251 0.0
C843 C 0.86505 0.49443 0.20759 0.0
C844 C 0.81515 0.47044 0.20367 0.0
C845 C 0.79588 0.42956 0.21582 0.0
C846 C 0.95037 0.49744 0.22738 0.0
C847 C 0.7797 0.49156 0.18794 0.0
C848 C 0.88355 0.64273 0.19981 0.0
C849 C 0.91337 0.64487 0.18264 0.0
C850 C 0.86614 0.59407 0.20763 0.0
C851 C 0.88002 0.54613 0.19834 0.0
C852 C 0.91015 0.54803 0.18097 0.0
C853 C 0.92588 0.59749 0.17317 0.0
C854 C 0.83377 0.59399 0.22611 0.0
C855 C 0.92764 0.49785 0.17111 0.0
H856 H 0.89966 0.41953 0.24679 0.0
H857 H 0.75576 0.41457 0.21388 0.0
H858 H 0.97018 0.51477 0.21443 0.0
H859 H 0.94469 0.52968 0.23805 0.0
H860 H 0.97681 0.46751 0.23402 0.0
H861 H 0.74626 0.46389 0.18477 0.0
H862 H 0.76299 0.53003 0.1926 0.0
H863 H 0.80263 0.49892 0.17442 0.0
H864 H 0.87371 0.67931 0.20713 0.0
H865 H 0.94968 0.59903 0.16005 0.0
H866 H 0.85641 0.57466 0.23787 0.0
H867 H 0.79652 0.57077 0.22414 0.0
H868 H 0.8234 0.63468 0.23081 0.0
H869 H 0.95509 0.47605 0.18074 0.0
H870 H 0.94824 0.50598 0.15713 0.0
H871 H 0.89298 0.47141 0.16844 0.0
C872 C 0.85031 0.569 0.46401 0.0
C873 C 0.85152 0.51837 0.47245 0.0
C874 C 0.8097 0.58277 0.45112 0.0
C875 C 0.76936 0.54511 0.44673 0.0
C876 C 0.77472 0.49205 0.4531 0.0
C877 C 0.81585 0.47925 0.46589 0.0
C878 C 0.80652 0.63939 0.44407 0.0
C879 C 0.73369 0.45023 0.44825 0.0
C880 C 0.63499 0.61018 0.44721 0.0
C881 C 0.62562 0.61847 0.42749 0.0
C882 C 0.67992 0.58302 0.45351 0.0
C883 C 0.71697 0.56417 0.43971 0.0
C884 C 0.70556 0.56873 0.41969 0.0
C885 C 0.65975 0.59591 0.41379 0.0
C886 C 0.68953 0.57801 0.47502 0.0
C887 C 0.74326 0.54875 0.40443 0.0
H888 H 0.87778 0.59942 0.46891 0.0
H889 H 0.81729 0.43969 0.47209 0.0
H890 H 0.79538 0.64066 0.42856 0.0
H891 H 0.77535 0.66032 0.45239 0.0
H892 H 0.84474 0.66114 0.44595 0.0
H893 H 0.74902 0.40957 0.45063 0.0
H894 H 0.69827 0.45546 0.45764 0.0
H895 H 0.72072 0.4541 0.43299 0.0
H896 H 0.60846 0.62757 0.45778 0.0
H897 H 0.65288 0.60283 0.3985 0.0
H898 H 0.72434 0.60284 0.47909 0.0
H899 H 0.69859 0.53636 0.47891 0.0
H900 H 0.65483 0.59081 0.48374 0.0
H901 H 0.77269 0.58047 0.4009 0.0
H902 H 0.72174 0.53856 0.39093 0.0
H903 H 0.76523 0.51341 0.40945 0.0
C904 C 0.6564 0.59255 0.72357 0.0
C905 C 0.70463 0.61804 0.71908 0.0
C906 C 0.63757 0.55004 0.71237 0.0
C907 C 0.66708 0.53336 0.69601 0.0
C908 C 0.71298 0.56256 0.6903 0.0
C909 C 0.73165 0.60414 0.70206 0.0
C910 C 0.58887 0.51985 0.71918 0.0
C911 C 0.74477 0.54731 0.67264 0.0
C912 C 0.65894 0.38582 0.68434 0.0
C913 C 0.61916 0.38456 0.67028 0.0
C914 C 0.6754 0.43413 0.69264 0.0
C915 C 0.65276 0.48242 0.68625 0.0
C916 C 0.61439 0.48141 0.67137 0.0
C917 C 0.59743 0.43247 0.66379 0.0
C918 C 0.71575 0.43329 0.70873 0.0
C919 C 0.59106 0.53202 0.66357 0.0
H920 H 0.6361 0.60232 0.73695 0.0
H921 H 0.76939 0.62326 0.69873 0.0
H922 H 0.56176 0.51162 0.70695 0.0
H923 H 0.60094 0.48105 0.7253 0.0
H924 H 0.56686 0.54182 0.73051 0.0
H925 H 0.77278 0.57944 0.66811 0.0
H926 H 0.76813 0.51135 0.67592 0.0
H927 H 0.71824 0.53769 0.66035 0.0
H928 H 0.67568 0.34886 0.68939 0.0
H929 H 0.56721 0.43165 0.65267 0.0
H930 H 0.69811 0.44994 0.72211 0.0
H931 H 0.75051 0.45859 0.7048 0.0
H932 H 0.72985 0.3926 0.71193 0.0
H933 H 0.57136 0.55414 0.67539 0.0
H934 H 0.56175 0.52451 0.65191 0.0
H935 H 0.62324 0.55801 0.65772 0.0
C936 C 0.63593 0.54089 0.07467 0.0
C937 C 0.62585 0.55328 0.05527 0.0
C938 C 0.67108 0.57222 0.08562 0.0
C939 C 0.69637 0.61687 0.07688 0.0
C940 C 0.68145 0.63275 0.05801 0.0
C941 C 0.64655 0.60052 0.04737 0.0
C942 C 0.68536 0.55426 0.10577 0.0
C943 C 0.70662 0.68053 0.04823 0.0
C944 C 0.78748 0.70799 0.1059 0.0
C945 C 0.83773 0.68782 0.10124 0.0
C946 C 0.74088 0.68515 0.09832 0.0
C947 C 0.74458 0.64086 0.08589 0.0
C948 C 0.79513 0.61981 0.08142 0.0
C949 C 0.84098 0.64367 0.08906 0.0
C950 C 0.68793 0.70929 0.10319 0.0
C951 C 0.80094 0.57245 0.06827 0.0
H952 H 0.6204 0.50403 0.0807 0.0
H953 H 0.6389 0.60988 0.03231 0.0
H954 H 0.72492 0.53532 0.10542 0.0
H955 H 0.68794 0.58852 0.11575 0.0
H956 H 0.65605 0.52505 0.11167 0.0
H957 H 0.68426 0.69284 0.03517 0.0
H958 H 0.70904 0.71455 0.05832 0.0
H959 H 0.74773 0.67083 0.04374 0.0
H960 H 0.78457 0.74257 0.11511 0.0
H961 H 0.87954 0.62768 0.08544 0.0
H962 H 0.65949 0.6782 0.10823 0.0
H963 H 0.67094 0.72764 0.09001 0.0
H964 H 0.69134 0.74025 0.11452 0.0
H965 H 0.77734 0.5384 0.07403 0.0
H966 H 0.8429 0.56 0.06669 0.0
H967 H 0.78529 0.582 0.0537 0.0
C968 C 0.74349 0.49253 0.29029 0.0
C969 C 0.74401 0.43837 0.29523 0.0
C970 C 0.72549 0.53076 0.30327 0.0
C971 C 0.70619 0.51476 0.32166 0.0
C972 C 0.70881 0.46065 0.32723 0.0
C973 C 0.72762 0.42297 0.31391 0.0
C974 C 0.72326 0.58792 0.29661 0.0
C975 C 0.68878 0.44211 0.34676 0.0
C976 C 0.67255 0.63219 0.35373 0.0
C977 C 0.62015 0.64124 0.34802 0.0
C978 C 0.70078 0.58879 0.34624 0.0
C979 C 0.67529 0.55344 0.33323 0.0
C980 C 0.62105 0.56038 0.32879 0.0
C981 C 0.59449 0.60439 0.33605 0.0
C982 C 0.75851 0.58253 0.35133 0.0
C983 C 0.59171 0.52326 0.31534 0.0
H984 H 0.75444 0.50518 0.27578 0.0
H985 H 0.72818 0.38138 0.31794 0.0
H986 H 0.68134 0.59891 0.29402 0.0
H987 H 0.73916 0.61479 0.30789 0.0
H988 H 0.74607 0.59486 0.283 0.0
H989 H 0.70298 0.40171 0.35037 0.0
H990 H 0.70148 0.46988 0.3583 0.0
H991 H 0.64474 0.44116 0.34673 0.0
H992 H 0.69204 0.66015 0.3633 0.0
H993 H 0.55337 0.61035 0.33209 0.0
H994 H 0.78349 0.59256 0.33852 0.0
H995 H 0.7668 0.54076 0.35531 0.0
H996 H 0.77052 0.60872 0.36346 0.0
H997 H 0.60722 0.52843 0.30037 0.0
H998 H 0.54832 0.53071 0.31522 0.0
H999 H 0.59806 0.48138 0.31963 0.0
C1000 C 0.80542 0.5224 0.54989 0.0
C1001 C 0.83622 0.4817 0.54208 0.0
C1002 C 0.76402 0.51108 0.56307 0.0
C1003 C 0.75331 0.45777 0.5685 0.0
C1004 C 0.78573 0.41679 0.56109 0.0
C1005 C 0.82649 0.42925 0.54781 0.0
C1006 C 0.73045 0.55582 0.57056 0.0
C1007 C 0.77619 0.35946 0.56663 0.0
C1008 C 0.67663 0.41215 0.61287 0.0
C1009 C 0.63028 0.39153 0.60447 0.0
C1010 C 0.7153 0.43847 0.60159 0.0
C1011 C 0.70747 0.44389 0.58141 0.0
C1012 C 0.65809 0.42833 0.5733 0.0
C1013 C 0.61986 0.40234 0.58498 0.0
C1014 C 0.76685 0.45495 0.61097 0.0
C1015 C 0.64774 0.43406 0.5519 0.0
H1016 H 0.81245 0.56289 0.54507 0.0
H1017 H 0.84974 0.39784 0.54142 0.0
H1018 H 0.68967 0.55197 0.56471 0.0
H1019 H 0.72719 0.55379 0.58657 0.0
H1020 H 0.74683 0.59534 0.56635 0.0
H1021 H 0.8083 0.33353 0.56123 0.0
H1022 H 0.77347 0.35503 0.58259 0.0
H1023 H 0.73791 0.34549 0.5605 0.0
H1024 H 0.68478 0.40341 0.62795 0.0
H1025 H 0.58445 0.38567 0.57841 0.0
H1026 H 0.78093 0.4939 0.6053 0.0
H1027 H 0.7977 0.42531 0.60752 0.0
H1028 H 0.7629 0.45745 0.62696 0.0
H1029 H 0.66108 0.47361 0.54657 0.0
H1030 H 0.60501 0.42857 0.54845 0.0
H1031 H 0.67065 0.40375 0.54391 0.0
C1032 C 0.80524 0.53058 0.76917 0.0
C1033 C 0.81961 0.5838 0.7727 0.0
C1034 C 0.82702 0.48883 0.77979 0.0
C1035 C 0.86315 0.50022 0.79479 0.0
C1036 C 0.87914 0.5535 0.79819 0.0
C1037 C 0.85719 0.59474 0.78708 0.0
C1038 C 0.80902 0.43268 0.77559 0.0
C1039 C 0.91766 0.5671 0.81412 0.0
C1040 C 0.86194 0.40671 0.83788 0.0
C1041 C 0.90902 0.37851 0.83518 0.0
C1042 C 0.84642 0.44583 0.82469 0.0
C1043 C 0.87876 0.45709 0.80832 0.0
C1044 C 0.92503 0.42692 0.80497 0.0
C1045 C 0.93962 0.38779 0.81847 0.0
C1046 C 0.79647 0.47663 0.82872 0.0
C1047 C 0.96032 0.43757 0.78763 0.0
H1048 H 0.77501 0.52127 0.75858 0.0
H1049 H 0.8687 0.63552 0.78989 0.0
H1050 H 0.84365 0.40601 0.77455 0.0
H1051 H 0.78351 0.41785 0.78764 0.0
H1052 H 0.78609 0.42991 0.76193 0.0
H1053 H 0.9296 0.60965 0.81385 0.0
H1054 H 0.89913 0.55796 0.82838 0.0
H1055 H 0.95381 0.54259 0.81287 0.0
H1056 H 0.83833 0.39974 0.85084 0.0
H1057 H 0.97665 0.36687 0.81654 0.0
H1058 H 0.76896 0.47349 0.81628 0.0
H1059 H 0.80648 0.51928 0.83057 0.0
H1060 H 0.77536 0.46235 0.84195 0.0
H1061 H 0.93653 0.43776 0.77416 0.0
H1062 H 0.99216 0.40767 0.7862 0.0
H1063 H 0.97916 0.47736 0.78898 0.0
C1064 C 0.34084 0.53727 0.06357 0.0
C1065 C 0.34884 0.54987 0.04396 0.0
C1066 C 0.30657 0.56723 0.07509 0.0
C1067 C 0.27966 0.61059 0.06675 0.0
C1068 C 0.29062 0.62587 0.04738 0.0
C1069 C 0.32512 0.59521 0.03619 0.0
C1070 C 0.29611 0.54998 0.09574 0.0
C1071 C 0.26307 0.67225 0.03806 0.0
C1072 C 0.14062 0.63789 0.0848 0.0
C1073 C 0.14876 0.68258 0.09641 0.0
C1074 C 0.18316 0.61378 0.07531 0.0
C1075 C 0.23503 0.63521 0.07736 0.0
C1076 C 0.2437 0.67999 0.08923 0.0
C1077 C 0.2004 0.70305 0.09871 0.0
C1078 C 0.17244 0.56578 0.06284 0.0
C1079 C 0.29837 0.7042 0.09156 0.0
H1080 H 0.35867 0.50198 0.06961 0.0
H1081 H 0.33183 0.60537 0.0211 0.0
H1082 H 0.29734 0.58458 0.10559 0.0
H1083 H 0.25578 0.53202 0.09686 0.0
H1084 H 0.32531 0.52033 0.1008 0.0
H1085 H 0.28105 0.68313 0.02385 0.0
H1086 H 0.22063 0.66195 0.03577 0.0
H1087 H 0.26451 0.70743 0.04763 0.0
H1088 H 0.10085 0.62181 0.08306 0.0
H1089 H 0.20685 0.73806 0.10748 0.0
H1090 H 0.19658 0.5319 0.06787 0.0
H1091 H 0.18422 0.57445 0.04764 0.0
H1092 H 0.12994 0.55352 0.06308 0.0
H1093 H 0.32672 0.67365 0.09646 0.0
H1094 H 0.29875 0.73741 0.10208 0.0
H1095 H 0.31295 0.71947 0.07739 0.0
C1096 C 0.26484 0.55208 0.80609 0.0
C1097 C 0.2321 0.59263 0.79915 0.0
C1098 C 0.24437 0.5103 0.81747 0.0
C1099 C 0.18969 0.50896 0.8222 0.0
C1100 C 0.15677 0.55111 0.81597 0.0
C1101 C 0.17841 0.59253 0.80447 0.0
C1102 C 0.2809 0.46639 0.82372 0.0
C1103 C 0.09829 0.5514 0.82085 0.0
C1104 C 0.1188 0.37814 0.83432 0.0
C1105 C 0.11367 0.3817 0.85445 0.0
C1106 C 0.14528 0.41834 0.82365 0.0
C1107 C 0.16685 0.46306 0.8334 0.0
C1108 C 0.16481 0.46475 0.85387 0.0
C1109 C 0.13815 0.42416 0.86411 0.0
C1110 C 0.14696 0.41466 0.80186 0.0
C1111 C 0.18739 0.51128 0.8649 0.0
H1112 H 0.30638 0.55199 0.80187 0.0
H1113 H 0.15294 0.62337 0.7989 0.0
H1114 H 0.2786 0.46068 0.83963 0.0
H1115 H 0.26815 0.42853 0.81696 0.0
H1116 H 0.3229 0.47455 0.81959 0.0
H1117 H 0.07871 0.58824 0.81584 0.0
H1118 H 0.07824 0.51692 0.81399 0.0
H1119 H 0.0924 0.5474 0.83672 0.0
H1120 H 0.09845 0.34628 0.82679 0.0
H1121 H 0.13309 0.4275 0.87966 0.0
H1122 H 0.18777 0.42271 0.79638 0.0
H1123 H 0.1207 0.44516 0.79553 0.0
H1124 H 0.13369 0.37508 0.79665 0.0
H1125 H 0.22879 0.51988 0.86022 0.0
H1126 H 0.18698 0.50423 0.8808 0.0
H1127 H 0.16372 0.54715 0.86177 0.0
C1128 C 0.17485 0.42006 0.53169 0.0
C1129 C 0.18227 0.46614 0.52056 0.0
C1130 C 0.21657 0.39977 0.54294 0.0
C1131 C 0.26645 0.42662 0.54319 0.0
C1132 C 0.27402 0.47299 0.53191 0.0
C1133 C 0.23189 0.49228 0.52089 0.0
C1134 C 0.20715 0.35007 0.55479 0.0
C1135 C 0.32611 0.50332 0.5319 0.0
C1136 C 0.34811 0.41024 0.58866 0.0
C1137 C 0.38426 0.37077 0.58333 0.0
C1138 C 0.31044 0.42934 0.57562 0.0
C1139 C 0.30908 0.40912 0.55658 0.0
C1140 C 0.34792 0.37226 0.55059 0.0
C1141 C 0.38525 0.35352 0.56405 0.0
C1142 C 0.27047 0.46938 0.58255 0.0
C1143 C 0.34878 0.35137 0.53016 0.0
H1144 H 0.13668 0.39978 0.53146 0.0
H1145 H 0.23761 0.52867 0.51267 0.0
H1146 H 0.23784 0.32026 0.55135 0.0
H1147 H 0.21066 0.35939 0.57042 0.0
H1148 H 0.16733 0.33219 0.55219 0.0
H1149 H 0.32733 0.53525 0.52076 0.0
H1150 H 0.33237 0.5216 0.54629 0.0
H1151 H 0.3597 0.47618 0.52926 0.0
H1152 H 0.34754 0.42457 0.60343 0.0
H1153 H 0.41316 0.32332 0.55975 0.0
H1154 H 0.22997 0.45166 0.58211 0.0
H1155 H 0.2707 0.50458 0.57286 0.0
H1156 H 0.27841 0.48283 0.59756 0.0
H1157 H 0.31001 0.33243 0.52671 0.0
H1158 H 0.38073 0.322 0.52786 0.0
H1159 H 0.35473 0.38465 0.51978 0.0
C1160 C 0.35612 0.44598 0.28001 0.0
C1161 C 0.31115 0.41622 0.28552 0.0
C1162 C 0.38146 0.47994 0.29313 0.0
C1163 C 0.36131 0.48416 0.31223 0.0
C1164 C 0.31818 0.45152 0.31826 0.0
C1165 C 0.29349 0.41795 0.3048 0.0
C1166 C 0.42769 0.51377 0.28618 0.0
C1167 C 0.29584 0.45465 0.33854 0.0
C1168 C 0.44621 0.56225 0.34762 0.0
C1169 C 0.4249 0.61321 0.34567 0.0
C1170 C 0.42495 0.51917 0.3373 0.0
C1171 C 0.38112 0.52731 0.32495 0.0
C1172 C 0.35788 0.57808 0.3237 0.0
C1173 C 0.38015 0.62041 0.33403 0.0
C1174 C 0.45085 0.46564 0.33894 0.0
C1175 C 0.31086 0.58832 0.31078 0.0
H1176 H 0.37035 0.44409 0.26519 0.0
H1177 H 0.25852 0.39531 0.30912 0.0
H1178 H 0.41559 0.55593 0.28554 0.0
H1179 H 0.46124 0.51112 0.29645 0.0
H1180 H 0.44184 0.50192 0.27159 0.0
H1181 H 0.26755 0.42159 0.34174 0.0
H1182 H 0.3282 0.4539 0.34936 0.0
H1183 H 0.27466 0.49268 0.34032 0.0
H1184 H 0.48109 0.55647 0.35647 0.0
H1185 H 0.36324 0.65958 0.33259 0.0
H1186 H 0.46998 0.45552 0.32496 0.0
H1187 H 0.42059 0.43441 0.34208 0.0
H1188 H 0.48151 0.46478 0.35044 0.0
H1189 H 0.32242 0.58225 0.29543 0.0
H1190 H 0.29559 0.62927 0.31232 0.0
H1191 H 0.27817 0.55985 0.31416 0.0
C1192 C 0.29687 0.39649 0.99254 0.0
C1193 C 0.33828 0.4316 0.98761 0.0
C1194 C 0.25694 0.3838 0.97919 0.0
C1195 C 0.25863 0.40658 0.96039 0.0
C1196 C 0.30182 0.44024 0.95508 0.0
C1197 C 0.34094 0.45287 0.96887 0.0
C1198 C 0.21161 0.34786 0.98547 0.0
C1199 C 0.30558 0.46438 0.93509 0.0
C1200 C 0.16948 0.33741 0.92391 0.0
C1201 C 0.12344 0.36833 0.92469 0.0
C1202 C 0.21468 0.35066 0.93474 0.0
C1203 C 0.21407 0.39607 0.9467 0.0
C1204 C 0.16863 0.42885 0.94687 0.0
C1205 C 0.12394 0.41474 0.93579 0.0
C1206 C 0.26274 0.31555 0.93341 0.0
C1207 C 0.16627 0.47755 0.95946 0.0
H1208 H 0.29441 0.38097 0.00719 0.0
H1209 H 0.37251 0.48083 0.96524 0.0
H1210 H 0.17406 0.37043 0.98551 0.0
H1211 H 0.20669 0.31476 0.97508 0.0
H1212 H 0.21765 0.33105 0.00018 0.0
H1213 H 0.34291 0.48759 0.93292 0.0
H1214 H 0.30353 0.43274 0.92401 0.0
H1215 H 0.27142 0.49094 0.93264 0.0
H1216 H 0.16991 0.30198 0.91508 0.0
H1217 H 0.08865 0.43887 0.93646 0.0
H1218 H 0.28158 0.31002 0.94772 0.0
H1219 H 0.29261 0.33471 0.92372 0.0
H1220 H 0.25267 0.27592 0.92739 0.0
H1221 H 0.16709 0.46554 0.97493 0.0
H1222 H 0.12986 0.50096 0.95689 0.0
H1223 H 0.20147 0.50343 0.95676 0.0
C1224 C 0.30697 0.58381 0.72314 0.0
C1225 C 0.33346 0.60397 0.73929 0.0
C1226 C 0.32755 0.5407 0.71285 0.0
C1227 C 0.37513 0.51673 0.71917 0.0
C1228 C 0.40346 0.53902 0.73485 0.0
C1229 C 0.38228 0.58256 0.7447 0.0
C1230 C 0.29653 0.51863 0.69601 0.0
C1231 C 0.45362 0.51441 0.7424 0.0
C1232 C 0.38628 0.37075 0.70615 0.0
C1233 C 0.41779 0.37388 0.68948 0.0
C1234 C 0.37413 0.41691 0.71659 0.0
C1235 C 0.39345 0.46691 0.70992 0.0
C1236 C 0.42757 0.4695 0.69362 0.0
C1237 C 0.43936 0.42287 0.68361 0.0
C1238 C 0.3385 0.41256 0.73417 0.0
C1239 C 0.44929 0.52182 0.68618 0.0
H1240 H 0.26849 0.59956 0.71936 0.0
H1241 H 0.40177 0.59716 0.75762 0.0
H1242 H 0.32283 0.51402 0.68321 0.0
H1243 H 0.28063 0.47868 0.69984 0.0
H1244 H 0.2628 0.54434 0.69195 0.0
H1245 H 0.47848 0.54399 0.75019 0.0
H1246 H 0.44284 0.48224 0.75277 0.0
H1247 H 0.47749 0.49671 0.73062 0.0
H1248 H 0.36912 0.33283 0.71045 0.0
H1249 H 0.46342 0.42498 0.67054 0.0
H1250 H 0.30033 0.43254 0.73122 0.0
H1251 H 0.35713 0.43299 0.74664 0.0
H1252 H 0.32998 0.37065 0.73828 0.0
H1253 H 0.41611 0.54754 0.68162 0.0
H1254 H 0.47654 0.51674 0.67367 0.0
H1255 H 0.47079 0.54287 0.69789 0.0
C1256 C 0.16532 0.6275 0.47071 0.0
C1257 C 0.14885 0.57646 0.46533 0.0
C1258 C 0.20899 0.65228 0.46164 0.0
C1259 C 0.23592 0.62588 0.44651 0.0
C1260 C 0.2157 0.57684 0.43963 0.0
C1261 C 0.17258 0.55242 0.44927 0.0
C1262 C 0.22972 0.70365 0.46991 0.0
C1263 C 0.24294 0.54755 0.42345 0.0
C1264 C 0.34405 0.698 0.41764 0.0
C1265 C 0.3899 0.68253 0.42753 0.0
C1266 C 0.29349 0.68064 0.42379 0.0
C1267 C 0.28892 0.64567 0.43982 0.0
C1268 C 0.33522 0.62995 0.44983 0.0
C1269 C 0.3851 0.64917 0.44371 0.0
C1270 C 0.24499 0.70041 0.4134 0.0
C1271 C 0.3321 0.59263 0.467 0.0
H1272 H 0.14792 0.64558 0.48344 0.0
H1273 H 0.1604 0.51252 0.44534 0.0
H1274 H 0.25958 0.69477 0.48118 0.0
H1275 H 0.24933 0.7286 0.45867 0.0
H1276 H 0.19733 0.72637 0.47686 0.0
H1277 H 0.21839 0.51388 0.41808 0.0
H1278 H 0.25203 0.57478 0.41118 0.0
H1279 H 0.28118 0.53173 0.42874 0.0
H1280 H 0.34769 0.72452 0.40529 0.0
H1281 H 0.42055 0.63715 0.45133 0.0
H1282 H 0.21934 0.72223 0.42369 0.0
H1283 H 0.22135 0.66638 0.40786 0.0
H1284 H 0.25534 0.72722 0.4011 0.0
H1285 H 0.30811 0.61058 0.47872 0.0
H1286 H 0.37189 0.58312 0.47284 0.0
H1287 H 0.31197 0.55507 0.4628 0.0
C1288 C 0.15759 0.42283 0.21952 0.0
C1289 C 0.21218 0.42236 0.22342 0.0
C1290 C 0.13587 0.4618 0.20751 0.0
C1291 C 0.16942 0.50147 0.19939 0.0
C1292 C 0.22508 0.49794 0.20161 0.0
C1293 C 0.24586 0.45824 0.21358 0.0
C1294 C 0.07641 0.46416 0.20542 0.0
C1295 C 0.2623 0.53903 0.19294 0.0
C1296 C 0.10837 0.60483 0.16619 0.0
C1297 C 0.09722 0.64556 0.17937 0.0
C1298 C 0.13257 0.55773 0.17234 0.0
C1299 C 0.14579 0.55138 0.19209 0.0
C1300 C 0.13484 0.59244 0.20539 0.0
C1301 C 0.11065 0.63884 0.19888 0.0
C1302 C 0.14344 0.51467 0.15779 0.0
C1303 C 0.14829 0.58727 0.22662 0.0
H1304 H 0.1311 0.39553 0.22708 0.0
H1305 H 0.28825 0.45727 0.21617 0.0
H1306 H 0.06159 0.4975 0.21424 0.0
H1307 H 0.0653 0.472 0.19017 0.0
H1308 H 0.05636 0.427 0.21038 0.0
H1309 H 0.30409 0.5254 0.19285 0.0
H1310 H 0.2506 0.54903 0.17791 0.0
H1311 H 0.26022 0.57595 0.20158 0.0
H1312 H 0.09808 0.60961 0.15107 0.0
H1313 H 0.10235 0.66999 0.20919 0.0
H1314 H 0.11861 0.47921 0.16124 0.0
H1315 H 0.18553 0.50238 0.15858 0.0
H1316 H 0.1348 0.52751 0.14274 0.0
H1317 H 0.12636 0.55304 0.23307 0.0
H1318 H 0.13825 0.6234 0.23496 0.0
H1319 H 0.19131 0.57962 0.22833 0.0
loop_
_geom_bond_atom_site_label_1
_geom_bond_atom_site_label_2
_geom_bond_distance
_geom_bond_site_symmetry_2
_ccdc_geom_bond_type
H0 C8 0.930 . S
H1 C11 0.930 . S
H2 C13 0.930 1_565 S
H3 C14 0.970 . S
H4 C14 0.970 . S
H5 C16 0.930 . S
H6 C18 0.930 1_565 S
H7 C20 0.930 . S
C8 H0 0.930 . S
C8 C9 1.382 . S
C8 C10 1.426 . S
C9 C8 1.382 . S
C9 C13 1.389 . S
C10 C8 1.426 . S
C10 C11 1.375 . S
C10 C14 1.532 1_655 S
C11 H1 0.930 . S
C11 C10 1.375 . S
C11 C12 1.416 . S
C12 C11 1.416 . S
C12 C13 1.371 . S
C13 H2 0.930 1_545 S
C13 C9 1.389 . S
C13 C12 1.371 . S
C14 H3 0.970 . S
C14 H4 0.970 . S
C14 C10 1.532 1_455 S
C14 C15 1.499 . S
C15 C14 1.499 . S
C15 C16 1.370 . S
C15 C20 1.415 . S
C16 H5 0.930 . S
C16 C15 1.370 . S
C16 C17 1.407 1_545 S
C17 C16 1.407 1_565 S
C17 C18 1.365 1_565 S
C18 H6 0.930 1_545 S
C18 C17 1.365 1_545 S
C18 C19 1.393 . S
C19 C18 1.393 . S
C19 C20 1.387 . S
C20 H7 0.930 . S
C20 C15 1.415 . S
C20 C19 1.387 . S
H21 C29 0.930 . S
H22 C32 0.930 . S
H23 C34 0.930 . S
H24 C35 0.970 . S
H25 C35 0.970 . S
H26 C37 0.930 . S
H27 C39 0.930 . S
H28 C41 0.930 . S
C29 H21 0.930 . S
C29 C30 1.382 . S
C29 C31 1.426 . S
C30 C29 1.382 . S
C30 C34 1.389 . S
C31 C29 1.426 . S
C31 C32 1.375 . S
C31 C35 1.532 . S
C32 H22 0.930 . S
C32 C31 1.375 . S
C32 C33 1.416 . S
C33 C32 1.416 . S
C33 C34 1.371 . S
C34 H23 0.930 . S
C34 C30 1.389 . S
C34 C33 1.371 . S
C35 H24 0.970 . S
C35 H25 0.970 . S
C35 C31 1.532 . S
C35 C36 1.499 . S
C36 C35 1.499 . S
C36 C37 1.370 . S
C36 C41 1.415 . S
C37 H26 0.930 . S
C37 C36 1.370 . S
C37 C38 1.407 . S
C38 C37 1.407 . S
C38 C39 1.365 . S
C39 H27 0.930 . S
C39 C38 1.365 . S
C39 C40 1.393 . S
C40 C39 1.393 . S
C40 C41 1.387 . S
C41 H28 0.930 . S
C41 C36 1.415 . S
C41 C40 1.387 . S
H42 C50 0.930 1_565 S
H43 C53 0.918 1_556 S
H44 C55 0.930 . S
H45 C56 0.970 . S
H46 C56 0.970 . S
H47 C58 0.930 1_565 S
H48 C60 0.930 . S
H49 C62 0.930 . S
C50 H42 0.930 1_545 S
C50 C51 1.382 1_545 S
C50 C52 1.426 . S
C51 C50 1.382 1_565 S
C51 C55 1.389 . S
C52 C50 1.426 . S
C52 C53 1.375 . S
C52 C56 1.532 . S
C53 H43 0.918 1_554 S
C53 C52 1.375 . S
C53 C54 1.435 . S
C54 C53 1.435 . S
C54 C55 1.406 1_545 S
C55 H44 0.930 . S
C55 C51 1.389 . S
C55 C54 1.406 1_565 S
C56 H45 0.970 . S
C56 H46 0.970 . S
C56 C52 1.532 . S
C56 C57 1.499 . S
C57 C56 1.499 . S
C57 C58 1.370 . S
C57 C62 1.415 . S
C58 H47 0.930 1_545 S
C58 C57 1.370 . S
C58 C59 1.407 1_545 S
C59 C58 1.407 1_565 S
C59 C60 1.365 . S
C60 H48 0.930 . S
C60 C59 1.365 . S
C60 C61 1.393 1_565 S
C61 C60 1.393 1_545 S
C61 C62 1.387 . S
C62 H49 0.930 . S
C62 C57 1.415 . S
C62 C61 1.387 . S
H63 C71 0.930 . S
H64 C74 0.930 . S
H65 C76 0.930 . S
H66 C77 0.970 . S
H67 C77 0.970 . S
H68 C79 0.930 . S
H69 C81 0.930 . S
H70 C83 0.930 . S
C71 H63 0.930 . S
C71 C72 1.382 . S
C71 C73 1.426 . S
C72 C71 1.382 . S
C72 C76 1.389 . S
C73 C71 1.426 . S
C73 C74 1.375 . S
C73 C77 1.532 . S
C74 H64 0.930 . S
C74 C73 1.375 . S
C74 C75 1.416 . S
C75 C74 1.416 . S
C75 C76 1.371 . S
C76 H65 0.930 . S
C76 C72 1.389 . S
C76 C75 1.371 . S
C77 H66 0.970 . S
C77 H67 0.970 . S
C77 C73 1.532 . S
C77 C78 1.499 . S
C78 C77 1.499 . S
C78 C79 1.370 . S
C78 C83 1.415 . S
C79 H68 0.930 . S
C79 C78 1.370 . S
C79 C80 1.407 . S
C80 C79 1.407 . S
C80 C81 1.365 . S
C81 H69 0.930 . S
C81 C80 1.365 . S
C81 C82 1.393 . S
C82 C81 1.393 . S
C82 C83 1.387 . S
C83 H70 0.930 . S
C83 C78 1.415 . S
C83 C82 1.387 . S
H84 C92 0.930 . S
H85 C95 0.930 . S
H86 C97 0.930 . S
H87 C98 0.970 . S
H88 C98 0.970 . S
H89 C100 0.930 . S
H90 C102 0.930 . S
H91 C104 0.930 . S
C92 H84 0.930 . S
C92 C93 1.382 . S
C92 C94 1.426 . S
C93 C92 1.382 . S
C93 C97 1.389 . S
C94 C92 1.426 . S
C94 C95 1.375 . S
C94 C98 1.532 . S
C95 H85 0.930 . S
C95 C94 1.375 . S
C95 C96 1.416 . S
C96 C95 1.416 . S
C96 C97 1.371 . S
C97 H86 0.930 . S
C97 C93 1.389 . S
C97 C96 1.371 . S
C98 H87 0.970 . S
C98 H88 0.970 . S
C98 C94 1.532 . S
C98 C99 1.499 . S
C99 C98 1.499 . S
C99 C100 1.370 . S
C99 C104 1.415 . S
C100 H89 0.930 . S
C100 C99 1.370 . S
C100 C101 1.407 . S
C101 C100 1.407 . S
C101 C102 1.365 . S
C102 H90 0.930 . S
C102 C101 1.365 . S
C102 C103 1.393 . S
C103 C102 1.393 . S
C103 C104 1.387 . S
C104 H91 0.930 . S
C104 C99 1.415 . S
C104 C103 1.387 . S
H105 C113 0.930 . S
H106 C116 0.930 . S
H107 C118 0.930 . S
H108 C119 0.970 . S
H109 C119 0.970 . S
H110 C121 0.930 . S
H111 C123 0.930 . S
H112 C125 0.930 . S
C113 H105 0.930 . S
C113 C114 1.382 . S
C113 C115 1.426 . S
C114 C113 1.382 . S
C114 C118 1.389 . S
C115 C113 1.426 . S
C115 C116 1.375 . S
C115 C119 1.532 . S
C116 H106 0.930 . S
C116 C115 1.375 . S
C116 C117 1.416 . S
C117 C116 1.416 . S
C117 C118 1.371 . S
C118 H107 0.930 . S
C118 C114 1.389 . S
C118 C117 1.371 . S
C119 H108 0.970 . S
C119 H109 0.970 . S
C119 C115 1.532 . S
C119 C120 1.499 . S
C120 C119 1.499 . S
C120 C121 1.370 . S
C120 C125 1.415 . S
C121 H110 0.930 . S
C121 C120 1.370 . S
C121 C122 1.407 . S
C122 C121 1.407 . S
C122 C123 1.365 . S
C123 H111 0.930 . S
C123 C122 1.365 . S
C123 C124 1.393 . S
C124 C123 1.393 . S
C124 C125 1.387 . S
C125 H112 0.930 . S
C125 C120 1.415 . S
C125 C124 1.387 . S
H126 C134 0.930 . S
H127 C137 0.934 . S
H128 C139 0.930 . S
H129 C140 0.970 . S
H130 C140 0.970 . S
H131 C142 0.930 . S
H132 C144 0.930 . S
H133 C146 0.930 . S
C134 H126 0.930 . S
C134 C135 1.382 . S
C134 C136 1.426 . S
C135 C134 1.382 . S
C135 C139 1.389 . S
C136 C134 1.426 . S
C136 C137 1.375 . S
C136 C140 1.532 . S
C137 H127 0.934 . S
C137 C136 1.375 . S
C137 C138 1.416 . S
C138 C137 1.416 . S
C138 C139 1.371 . S
C139 H128 0.930 . S
C139 C135 1.389 . S
C139 C138 1.371 . S
C140 H129 0.970 . S
C140 H130 0.970 . S
C140 C136 1.532 . S
C140 C141 1.499 . S
C141 C140 1.499 . S
C141 C142 1.370 . S
C141 C146 1.415 . S
C142 H131 0.930 . S
C142 C141 1.370 . S
C142 C143 1.407 . S
C143 C142 1.407 . S
C143 C144 1.365 . S
C144 H132 0.930 . S
C144 C143 1.365 . S
C144 C145 1.393 . S
C145 C144 1.393 . S
C145 C146 1.387 . S
C146 H133 0.930 . S
C146 C141 1.415 . S
C146 C145 1.387 . S
H147 C155 0.930 . S
H148 C158 0.930 . S
H149 C160 0.930 . S
H150 C161 0.970 . S
H151 C161 0.970 . S
H152 C163 0.930 . S
H153 C165 0.930 . S
H154 C167 0.930 . S
C155 H147 0.930 . S
C155 C156 1.382 . S
C155 C157 1.426 . S
C156 C155 1.382 . S
C156 C160 1.389 . S
C157 C155 1.426 . S
C157 C158 1.375 . S
C157 C161 1.532 . S
C158 H148 0.930 . S
C158 C157 1.375 . S
C158 C159 1.416 . S
C159 C158 1.416 . S
C159 C160 1.371 . S
C160 H149 0.930 . S
C160 C156 1.389 . S
C160 C159 1.371 . S
C161 H150 0.970 . S
C161 H151 0.970 . S
C161 C157 1.532 . S
C161 C162 1.499 1_455 S
C162 C161 1.499 1_655 S
C162 C163 1.370 . S
C162 C167 1.415 . S
C163 H152 0.930 . S
C163 C162 1.370 . S
C163 C164 1.407 . S
C164 C163 1.407 . S
C164 C165 1.365 . S
C165 H153 0.930 . S
C165 C164 1.365 . S
C165 C166 1.393 . S
C166 C165 1.393 . S
C166 C167 1.387 . S
C167 H154 0.930 . S
C167 C162 1.415 . S
C167 C166 1.387 . S
Fe168 O169 1.886 . S
Fe168 O172 1.715 1_455 S
Fe168 O177 2.077 . S
Fe168 O182 1.935 1_455 S
Fe168 O188 2.077 . S
Fe168 O197 1.935 1_455 S
O169 Fe168 1.886 . S
O169 Fe171 1.715 . S
Fe170 O172 1.886 . S
Fe170 O173 1.715 . S
Fe170 O180 1.935 . S
Fe170 O181 2.077 . S
Fe170 O187 1.935 . S
Fe170 O196 2.077 . S
Fe171 O169 1.715 . S
Fe171 O174 1.886 . S
Fe171 O178 1.935 . S
Fe171 O183 2.077 . S
Fe171 O189 1.935 . S
Fe171 O193 2.077 . S
O172 Fe168 1.715 1_655 S
O172 Fe170 1.886 . S
O173 Fe170 1.715 . S
O173 Fe175 1.876 1_655 S
O174 Fe171 1.886 . S
O174 Fe175 1.725 . S
Fe175 O173 1.876 1_455 S
Fe175 O174 1.725 . S
Fe175 O179 2.068 1_455 S
Fe175 O184 1.943 . S
Fe175 O186 2.068 1_455 S
Fe175 O194 1.943 . S
C176 O188 1.381 . S
C176 O189 1.421 . S
O177 Fe168 2.077 . S
O177 C190 1.381 . S
O178 Fe171 1.935 . S
O178 C190 1.421 . S
O179 Fe175 2.068 1_655 S
O179 C195 1.381 . S
O180 Fe170 1.935 . S
O180 C195 1.421 . S
O181 Fe170 2.077 . S
O181 C185 1.381 . S
O182 Fe168 1.935 1_655 S
O182 C185 1.421 . S
O183 Fe171 2.077 . S
O183 C191 1.381 . S
O184 Fe175 1.943 . S
O184 C191 1.421 . S
C185 O181 1.381 . S
C185 O182 1.421 . S
O186 Fe175 2.068 1_655 S
O186 C198 1.381 . S
O187 Fe170 1.935 . S
O187 C198 1.421 . S
O188 Fe168 2.077 . S
O188 C176 1.381 . S
O189 Fe171 1.935 . S
O189 C176 1.421 . S
C190 O177 1.381 . S
C190 O178 1.421 . S
C191 O183 1.381 . S
C191 O184 1.421 . S
C192 O193 1.381 . S
C192 O194 1.421 . S
O193 Fe171 2.077 . S
O193 C192 1.381 . S
O194 Fe175 1.943 . S
O194 C192 1.421 . S
C195 O179 1.381 . S
C195 O180 1.421 . S
O196 Fe170 2.077 . S
O196 C199 1.381 . S
O197 Fe168 1.935 1_655 S
O197 C199 1.421 . S
C198 O186 1.381 . S
C198 O187 1.421 . S
C199 O196 1.381 . S
C199 O197 1.421 . S
Fe200 O201 1.886 . S
Fe200 O204 1.715 . S
Fe200 O209 2.077 . S
Fe200 O214 1.935 . S
Fe200 O220 2.077 . S
Fe200 O229 1.935 . S
O201 Fe200 1.886 . S
O201 Fe203 1.715 . S
Fe202 O204 1.886 . S
Fe202 O205 1.715 . S
Fe202 O212 1.935 . S
Fe202 O213 2.077 . S
Fe202 O219 1.935 . S
Fe202 O228 2.077 . S
Fe203 O201 1.715 . S
Fe203 O206 1.886 . S
Fe203 O210 1.935 . S
Fe203 O215 2.077 . S
Fe203 O221 1.935 . S
Fe203 O225 2.077 . S
O204 Fe200 1.715 . S
O204 Fe202 1.886 . S
O205 Fe202 1.715 . S
O205 Fe207 1.886 . S
O206 Fe203 1.886 . S
O206 Fe207 1.715 . S
Fe207 O205 1.886 . S
Fe207 O206 1.715 . S
Fe207 O211 2.077 . S
Fe207 O216 1.935 . S
Fe207 O218 2.077 . S
Fe207 O226 1.935 . S
C208 O220 1.381 . S
C208 O221 1.421 . S
O209 Fe200 2.077 . S
O209 C222 1.381 . S
O210 Fe203 1.935 . S
O210 C222 1.421 . S
O211 Fe207 2.077 . S
O211 C227 1.381 . S
O212 Fe202 1.935 . S
O212 C227 1.421 . S
O213 Fe202 2.077 . S
O213 C217 1.381 . S
O214 Fe200 1.935 . S
O214 C217 1.421 . S
O215 Fe203 2.077 . S
O215 C223 1.381 . S
O216 Fe207 1.935 . S
O216 C223 1.421 . S
C217 O213 1.381 . S
C217 O214 1.421 . S
O218 Fe207 2.077 . S
O218 C230 1.381 . S
O219 Fe202 1.935 . S
O219 C230 1.421 . S
O220 Fe200 2.077 . S
O220 C208 1.381 . S
O221 Fe203 1.935 . S
O221 C208 1.421 . S
C222 O209 1.381 . S
C222 O210 1.421 . S
C223 O215 1.381 . S
C223 O216 1.421 . S
C224 O225 1.381 . S
C224 O226 1.421 . S
O225 Fe203 2.077 . S
O225 C224 1.381 . S
O226 Fe207 1.935 . S
O226 C224 1.421 . S
C227 O211 1.381 . S
C227 O212 1.421 . S
O228 Fe202 2.077 . S
O228 C231 1.381 . S
O229 Fe200 1.935 . S
O229 C231 1.421 . S
C230 O218 1.381 . S
C230 O219 1.421 . S
C231 O228 1.381 . S
C231 O229 1.421 . S
Fe232 O233 1.886 . S
Fe232 O236 1.715 . S
Fe232 O241 2.077 . S
Fe232 O246 1.935 . S
Fe232 O252 2.077 . S
Fe232 O261 1.935 . S
O233 Fe232 1.886 . S
O233 Fe235 1.715 . S
Fe234 O236 1.886 . S
Fe234 O237 1.715 . S
Fe234 O244 1.935 . S
Fe234 O245 2.077 . S
Fe234 O251 1.935 . S
Fe234 O260 2.077 . S
Fe235 O233 1.715 . S
Fe235 O238 1.886 . S
Fe235 O242 1.935 . S
Fe235 O247 2.077 . S
Fe235 O253 1.935 . S
Fe235 O257 2.077 . S
O236 Fe232 1.715 . S
O236 Fe234 1.886 . S
O237 Fe234 1.715 . S
O237 Fe239 1.886 . S
O238 Fe235 1.886 . S
O238 Fe239 1.715 . S
Fe239 O237 1.886 . S
Fe239 O238 1.715 . S
Fe239 O243 2.077 . S
Fe239 O248 1.935 . S
Fe239 O250 2.077 . S
Fe239 O258 1.935 . S
C240 O252 1.381 . S
C240 O253 1.421 . S
O241 Fe232 2.077 . S
O241 C254 1.381 . S
O242 Fe235 1.935 . S
O242 C254 1.421 . S
O243 Fe239 2.077 . S
O243 C259 1.381 . S
O244 Fe234 1.935 . S
O244 C259 1.421 . S
O245 Fe234 2.077 . S
O245 C249 1.381 . S
O246 Fe232 1.935 . S
O246 C249 1.421 . S
O247 Fe235 2.077 . S
O247 C255 1.381 . S
O248 Fe239 1.935 . S
O248 C255 1.421 . S
C249 O245 1.381 . S
C249 O246 1.421 . S
O250 Fe239 2.077 . S
O250 C262 1.381 . S
O251 Fe234 1.935 . S
O251 C262 1.421 . S
O252 Fe232 2.077 . S
O252 C240 1.381 . S
O253 Fe235 1.935 . S
O253 C240 1.421 . S
C254 O241 1.381 . S
C254 O242 1.421 . S
C255 O247 1.381 . S
C255 O248 1.421 . S
C256 O257 1.381 . S
C256 O258 1.421 . S
O257 Fe235 2.077 . S
O257 C256 1.381 . S
O258 Fe239 1.935 . S
O258 C256 1.421 . S
C259 O243 1.381 . S
C259 O244 1.421 . S
O260 Fe234 2.077 . S
O260 C263 1.381 . S
O261 Fe232 1.935 . S
O261 C263 1.421 . S
C262 O250 1.381 . S
C262 O251 1.421 . S
C263 O260 1.381 . S
C263 O261 1.421 . S
Fe264 O265 1.886 . S
Fe264 O268 1.715 . S
Fe264 O273 2.077 1_455 S
Fe264 O278 1.935 1_455 S
Fe264 O284 2.077 . S
Fe264 O293 1.935 . S
O265 Fe264 1.886 . S
O265 Fe267 1.715 . S
Fe266 O268 1.886 . S
Fe266 O269 1.715 . S
Fe266 O276 1.935 1_455 S
Fe266 O277 2.077 1_455 S
Fe266 O283 1.935 . S
Fe266 O292 2.077 . S
Fe267 O265 1.715 . S
Fe267 O270 1.886 . S
Fe267 O274 1.935 1_455 S
Fe267 O279 2.077 1_455 S
Fe267 O285 1.935 . S
Fe267 O289 2.077 . S
O268 Fe264 1.715 . S
O268 Fe266 1.886 . S
O269 Fe266 1.715 . S
O269 Fe271 1.886 . S
O270 Fe267 1.886 . S
O270 Fe271 1.715 . S
Fe271 O269 1.886 . S
Fe271 O270 1.715 . S
Fe271 O275 2.077 1_455 S
Fe271 O280 1.935 1_455 S
Fe271 O282 2.077 . S
Fe271 O290 1.935 . S
C272 O284 1.381 . S
C272 O285 1.421 . S
O273 Fe264 2.077 1_655 S
O273 C286 1.381 . S
O274 Fe267 1.935 1_655 S
O274 C286 1.421 . S
O275 Fe271 2.077 1_655 S
O275 C291 1.381 . S
O276 Fe266 1.935 1_655 S
O276 C291 1.421 . S
O277 Fe266 2.077 1_655 S
O277 C281 1.381 . S
O278 Fe264 1.935 1_655 S
O278 C281 1.421 . S
O279 Fe267 2.077 1_655 S
O279 C287 1.381 . S
O280 Fe271 1.935 1_655 S
O280 C287 1.421 . S
C281 O277 1.381 . S
C281 O278 1.421 . S
O282 Fe271 2.077 . S
O282 C294 1.381 . S
O283 Fe266 1.935 . S
O283 C294 1.421 . S
O284 Fe264 2.077 . S
O284 C272 1.381 . S
O285 Fe267 1.935 . S
O285 C272 1.421 . S
C286 O273 1.381 . S
C286 O274 1.421 . S
C287 O279 1.381 . S
C287 O280 1.421 . S
C288 O289 1.381 . S
C288 O290 1.421 . S
O289 Fe267 2.077 . S
O289 C288 1.381 . S
O290 Fe271 1.935 . S
O290 C288 1.421 . S
C291 O275 1.381 . S
C291 O276 1.421 . S
O292 Fe266 2.077 . S
O292 C295 1.381 . S
O293 Fe264 1.935 . S
O293 C295 1.421 . S
C294 O282 1.381 . S
C294 O283 1.421 . S
C295 O292 1.381 . S
C295 O293 1.421 . S
C296 C297 1.391 . S
C296 C298 1.394 . S
C296 H312 0.931 . S
C297 C296 1.391 . S
C297 C301 1.376 . S
C298 C296 1.394 . S
C298 C299 1.369 . S
C298 C302 1.531 . S
C299 C298 1.369 . S
C299 C300 1.410 . S
C299 C307 1.503 . S
C300 C299 1.410 . S
C300 C301 1.392 . S
C300 C303 1.511 1_565 S
C301 C297 1.376 . S
C301 C300 1.392 . S
C301 H313 0.929 1_565 S
C302 C298 1.531 . S
C302 H314 0.960 . S
C302 H315 0.962 . S
C302 H316 0.960 . S
C303 C300 1.511 1_545 S
C303 H317 0.961 . S
C303 H318 0.961 1_545 S
C303 H319 0.961 . S
C304 C305 1.370 . S
C304 C306 1.363 . S
C304 H320 0.931 . S
C305 C304 1.370 . S
C305 C309 1.408 . S
C306 C304 1.363 . S
C306 C307 1.370 . S
C306 C310 1.524 . S
C307 C299 1.503 . S
C307 C306 1.370 . S
C307 C308 1.403 . S
C308 C307 1.403 . S
C308 C309 1.404 . S
C308 C311 1.539 . S
C309 C305 1.408 . S
C309 C308 1.404 . S
C309 H321 0.930 . S
C310 C306 1.524 . S
C310 H322 0.956 . S
C310 H323 0.961 . S
C310 H324 0.961 . S
C311 C308 1.539 . S
C311 H325 0.958 . S
C311 H326 0.961 . S
C311 H327 0.960 . S
H312 C296 0.931 . S
H313 C301 0.929 1_545 S
H314 C302 0.960 . S
H315 C302 0.962 . S
H316 C302 0.960 . S
H317 C303 0.961 . S
H318 C303 0.961 1_565 S
H319 C303 0.961 . S
H320 C304 0.931 . S
H321 C309 0.930 . S
H322 C310 0.956 . S
H323 C310 0.961 . S
H324 C310 0.961 . S
H325 C311 0.958 . S
H326 C311 0.961 . S
H327 C311 0.960 . S
C328 C329 1.391 . S
C328 C330 1.394 1_565 S
C328 H344 0.931 . S
C329 C328 1.391 . S
C329 C333 1.376 . S
C330 C328 1.394 1_545 S
C330 C331 1.369 . S
C330 C334 1.531 . S
C331 C330 1.369 . S
C331 C332 1.410 1_545 S
C331 C339 1.503 . S
C332 C331 1.410 1_565 S
C332 C333 1.392 . S
C332 C335 1.511 . S
C333 C329 1.376 . S
C333 C332 1.392 . S
C333 H345 0.929 . S
C334 C330 1.531 . S
C334 H346 0.960 . S
C334 H347 0.962 . S
C334 H348 0.960 . S
C335 C332 1.511 . S
C335 H349 0.961 . S
C335 H350 0.961 . S
C335 H351 0.961 . S
C336 C337 1.370 . S
C336 C338 1.363 . S
C336 H352 0.931 . S
C337 C336 1.370 . S
C337 C341 1.408 . S
C338 C336 1.363 . S
C338 C339 1.370 . S
C338 C342 1.524 . S
C339 C331 1.503 . S
C339 C338 1.370 . S
C339 C340 1.403 . S
C340 C339 1.403 . S
C340 C341 1.404 . S
C340 C343 1.539 . S
C341 C337 1.408 . S
C341 C340 1.404 . S
C341 H353 0.930 . S
C342 C338 1.524 . S
C342 H354 0.956 . S
C342 H355 0.961 1_545 S
C342 H356 0.961 . S
C343 C340 1.539 . S
C343 H357 0.958 . S
C343 H358 0.961 . S
C343 H359 0.960 . S
H344 C328 0.931 . S
H345 C333 0.929 . S
H346 C334 0.960 . S
H347 C334 0.962 . S
H348 C334 0.960 . S
H349 C335 0.961 . S
H350 C335 0.961 . S
H351 C335 0.961 . S
H352 C336 0.931 . S
H353 C341 0.930 . S
H354 C342 0.956 . S
H355 C342 0.961 1_565 S
H356 C342 0.961 . S
H357 C343 0.958 . S
H358 C343 0.961 . S
H359 C343 0.960 . S
C360 C361 1.391 . S
C360 C362 1.394 . S
C360 H376 0.931 . S
C361 C360 1.391 . S
C361 C365 1.376 . S
C362 C360 1.394 . S
C362 C363 1.369 . S
C362 C366 1.531 . S
C363 C362 1.369 . S
C363 C364 1.410 . S
C363 C371 1.503 . S
C364 C363 1.410 . S
C364 C365 1.392 . S
C364 C367 1.511 . S
C365 C361 1.376 . S
C365 C364 1.392 . S
C365 H377 0.929 1_556 S
C366 C362 1.531 . S
C366 H378 0.960 . S
C366 H379 0.962 . S
C366 H380 0.960 1_545 S
C367 C364 1.511 . S
C367 H381 0.961 1_556 S
C367 H382 0.961 . S
C367 H383 0.961 1_556 S
C368 C369 1.370 . S
C368 C370 1.363 . S
C368 H384 0.931 . S
C369 C368 1.370 . S
C369 C373 1.408 . S
C370 C368 1.363 . S
C370 C371 1.370 . S
C370 C374 1.524 . S
C371 C363 1.503 . S
C371 C370 1.370 . S
C371 C372 1.403 . S
C372 C371 1.403 . S
C372 C373 1.404 . S
C372 C375 1.539 . S
C373 C369 1.408 . S
C373 C372 1.404 . S
C373 H385 0.930 . S
C374 C370 1.524 . S
C374 H386 0.956 . S
C374 H387 0.961 . S
C374 H388 0.961 . S
C375 C372 1.539 . S
C375 H389 0.954 1_545 S
C375 H390 0.961 . S
C375 H391 0.960 . S
H376 C360 0.931 . S
H377 C365 0.929 1_554 S
H378 C366 0.960 . S
H379 C366 0.962 . S
H380 C366 0.960 1_565 S
H381 C367 0.961 1_554 S
H382 C367 0.961 . S
H383 C367 0.961 1_554 S
H384 C368 0.931 . S
H385 C373 0.930 . S
H386 C374 0.956 . S
H387 C374 0.961 . S
H388 C374 0.961 . S
H389 C375 0.954 1_565 S
H390 C375 0.961 . S
H391 C375 0.960 . S
C392 C393 1.391 . S
C392 C394 1.394 . S
C392 H408 0.931 . S
C393 C392 1.391 . S
C393 C397 1.376 . S
C394 C392 1.394 . S
C394 C395 1.369 . S
C394 C398 1.531 . S
C395 C394 1.369 . S
C395 C396 1.410 . S
C395 C403 1.503 1_545 S
C396 C395 1.410 . S
C396 C397 1.392 . S
C396 C399 1.511 1_545 S
C397 C393 1.376 . S
C397 C396 1.392 . S
C397 H409 0.929 . S
C398 C394 1.531 . S
C398 H410 0.960 . S
C398 H411 0.962 . S
C398 H412 0.960 . S
C399 C396 1.511 1_565 S
C399 H413 0.961 . S
C399 H414 0.961 . S
C399 H415 0.961 . S
C400 C401 1.370 . S
C400 C402 1.363 . S
C400 H416 0.931 . S
C401 C400 1.370 . S
C401 C405 1.408 . S
C402 C400 1.363 . S
C402 C403 1.370 . S
C402 C406 1.524 1_565 S
C403 C395 1.503 1_565 S
C403 C402 1.370 . S
C403 C404 1.403 . S
C404 C403 1.403 . S
C404 C405 1.404 . S
C404 C407 1.539 . S
C405 C401 1.408 . S
C405 C404 1.404 . S
C405 H417 0.930 . S
C406 C402 1.524 1_545 S
C406 H418 0.956 . S
C406 H419 0.961 . S
C406 H420 0.961 1_545 S
C407 C404 1.539 . S
C407 H421 0.958 . S
C407 H422 0.961 . S
C407 H423 0.960 . S
H408 C392 0.931 . S
H409 C397 0.929 . S
H410 C398 0.960 . S
H411 C398 0.962 . S
H412 C398 0.960 . S
H413 C399 0.961 . S
H414 C399 0.961 . S
H415 C399 0.961 . S
H416 C400 0.931 . S
H417 C405 0.930 . S
H418 C406 0.956 . S
H419 C406 0.961 . S
H420 C406 0.961 1_565 S
H421 C407 0.958 . S
H422 C407 0.961 . S
H423 C407 0.960 . S
C424 C425 1.391 . S
C424 C426 1.394 . S
C424 H440 0.931 . S
C425 C424 1.391 . S
C425 C429 1.376 . S
C426 C424 1.394 . S
C426 C427 1.369 . S
C426 C430 1.531 . S
C427 C426 1.369 . S
C427 C428 1.410 . S
C427 C435 1.503 . S
C428 C427 1.410 . S
C428 C429 1.392 . S
C428 C431 1.511 . S
C429 C425 1.376 . S
C429 C428 1.392 . S
C429 H441 0.929 . S
C430 C426 1.531 . S
C430 H442 0.960 . S
C430 H443 0.962 . S
C430 H444 0.960 . S
C431 C428 1.511 . S
C431 H445 0.961 . S
C431 H446 0.961 . S
C431 H447 0.961 . S
C432 C433 1.370 . S
C432 C434 1.363 . S
C432 H448 0.931 . S
C433 C432 1.370 . S
C433 C437 1.408 . S
C434 C432 1.363 . S
C434 C435 1.370 . S
C434 C438 1.524 . S
C435 C427 1.503 . S
C435 C434 1.370 . S
C435 C436 1.403 . S
C436 C435 1.403 . S
C436 C437 1.404 . S
C436 C439 1.539 . S
C437 C433 1.408 . S
C437 C436 1.404 . S
C437 H449 0.930 . S
C438 C434 1.524 . S
C438 H450 0.956 . S
C438 H451 0.961 . S
C438 H452 0.961 . S
C439 C436 1.539 . S
C439 H453 0.958 . S
C439 H454 0.960 1_545 S
C439 H455 0.960 . S
H440 C424 0.931 . S
H441 C429 0.929 . S
H442 C430 0.960 . S
H443 C430 0.962 . S
H444 C430 0.960 . S
H445 C431 0.961 . S
H446 C431 0.961 . S
H447 C431 0.961 . S
H448 C432 0.931 . S
H449 C437 0.930 . S
H450 C438 0.956 . S
H451 C438 0.961 . S
H452 C438 0.961 . S
H453 C439 0.958 . S
H454 C439 0.960 1_565 S
H455 C439 0.960 . S
C456 C457 1.391 . S
C456 C458 1.394 . S
C456 H472 0.931 . S
C457 C456 1.391 . S
C457 C461 1.376 . S
C458 C456 1.394 . S
C458 C459 1.369 . S
C458 C462 1.531 . S
C459 C458 1.369 . S
C459 C460 1.410 . S
C459 C467 1.503 1_565 S
C460 C459 1.410 . S
C460 C461 1.392 . S
C460 C463 1.511 1_565 S
C461 C457 1.376 . S
C461 C460 1.392 . S
C461 H473 0.929 . S
C462 C458 1.531 . S
C462 H474 0.960 . S
C462 H475 0.962 . S
C462 H476 0.960 . S
C463 C460 1.511 1_545 S
C463 H477 0.961 . S
C463 H478 0.961 . S
C463 H479 0.961 . S
C464 C465 1.370 . S
C464 C466 1.363 . S
C464 H480 0.931 . S
C465 C464 1.370 . S
C465 C469 1.408 . S
C466 C464 1.363 . S
C466 C467 1.370 . S
C466 C470 1.524 . S
C467 C459 1.503 1_545 S
C467 C466 1.370 . S
C467 C468 1.403 . S
C468 C467 1.403 . S
C468 C469 1.404 . S
C468 C471 1.539 . S
C469 C465 1.408 . S
C469 C468 1.404 . S
C469 H481 0.930 . S
C470 C466 1.524 . S
C470 H482 0.956 . S
C470 H483 0.961 . S
C470 H484 0.961 . S
C471 C468 1.539 . S
C471 H485 0.958 1_545 S
C471 H486 0.961 . S
C471 H487 0.960 1_545 S
H472 C456 0.931 . S
H473 C461 0.929 . S
H474 C462 0.960 . S
H475 C462 0.962 . S
H476 C462 0.960 . S
H477 C463 0.961 . S
H478 C463 0.961 . S
H479 C463 0.961 . S
H480 C464 0.931 . S
H481 C469 0.930 . S
H482 C470 0.956 . S
H483 C470 0.961 . S
H484 C470 0.961 . S
H485 C471 0.958 1_565 S
H486 C471 0.961 . S
H487 C471 0.960 1_565 S
C488 C489 1.391 . S
C488 C490 1.394 . S
C488 H504 0.931 1_565 S
C489 C488 1.391 . S
C489 C493 1.376 . S
C490 C488 1.394 . S
C490 C491 1.369 . S
C490 C494 1.531 1_565 S
C491 C490 1.369 . S
C491 C492 1.410 . S
C491 C499 1.503 . S
C492 C491 1.410 . S
C492 C493 1.392 . S
C492 C495 1.511 . S
C493 C489 1.376 . S
C493 C492 1.392 . S
C493 H505 0.929 . S
C494 C490 1.531 1_545 S
C494 H506 0.960 1_545 S
C494 H507 0.962 . S
C494 H508 0.960 . S
C495 C492 1.511 . S
C495 H509 0.961 . S
C495 H510 0.961 . S
C495 H511 0.961 . S
C496 C497 1.370 . S
C496 C498 1.363 . S
C496 H512 0.931 . S
C497 C496 1.370 . S
C497 C501 1.408 . S
C498 C496 1.363 . S
C498 C499 1.370 . S
C498 C502 1.524 . S
C499 C491 1.503 . S
C499 C498 1.370 . S
C499 C500 1.403 . S
C500 C499 1.403 . S
C500 C501 1.404 . S
C500 C503 1.539 . S
C501 C497 1.408 . S
C501 C500 1.404 . S
C501 H513 0.930 . S
C502 C498 1.524 . S
C502 H514 0.956 . S
C502 H515 0.961 . S
C502 H516 0.961 . S
C503 C500 1.539 . S
C503 H517 0.958 . S
C503 H518 0.961 . S
C503 H519 0.960 . S
H504 C488 0.931 1_545 S
H505 C493 0.929 . S
H506 C494 0.960 1_565 S
H507 C494 0.962 . S
H508 C494 0.960 . S
H509 C495 0.961 . S
H510 C495 0.961 . S
H511 C495 0.961 . S
H512 C496 0.931 . S
H513 C501 0.930 . S
H514 C502 0.956 . S
H515 C502 0.961 . S
H516 C502 0.961 . S
H517 C503 0.958 . S
H518 C503 0.961 . S
H519 C503 0.960 . S
C520 C521 1.391 . S
C520 C522 1.394 . S
C520 H536 0.931 . S
C521 C520 1.391 . S
C521 C525 1.376 . S
C522 C520 1.394 . S
C522 C523 1.369 . S
C522 C526 1.531 . S
C523 C522 1.369 . S
C523 C524 1.410 . S
C523 C531 1.503 1_545 S
C524 C523 1.410 . S
C524 C525 1.392 . S
C524 C527 1.511 . S
C525 C521 1.376 . S
C525 C524 1.392 . S
C525 H537 0.929 . S
C526 C522 1.531 . S
C526 H538 0.960 1_545 S
C526 H539 0.962 . S
C526 H540 0.960 . S
C527 C524 1.511 . S
C527 H541 0.961 . S
C527 H542 0.961 1_545 S
C527 H543 0.961 1_545 S
C528 C529 1.370 . S
C528 C530 1.363 . S
C528 H544 0.931 . S
C529 C528 1.370 . S
C529 C533 1.408 . S
C530 C528 1.363 . S
C530 C531 1.370 . S
C530 C534 1.524 1_565 S
C531 C523 1.503 1_565 S
C531 C530 1.370 . S
C531 C532 1.403 . S
C532 C531 1.403 . S
C532 C533 1.404 . S
C532 C535 1.539 . S
C533 C529 1.408 . S
C533 C532 1.404 . S
C533 H545 0.930 . S
C534 C530 1.524 1_545 S
C534 H546 0.956 . S
C534 H547 0.961 . S
C534 H548 0.961 . S
C535 C532 1.539 . S
C535 H549 0.958 . S
C535 H550 0.961 . S
C535 H551 0.960 . S
H536 C520 0.931 . S
H537 C525 0.929 . S
H538 C526 0.960 1_565 S
H539 C526 0.962 . S
H540 C526 0.960 . S
H541 C527 0.961 . S
H542 C527 0.961 1_565 S
H543 C527 0.961 1_565 S
H544 C528 0.931 . S
H545 C533 0.930 . S
H546 C534 0.956 . S
H547 C534 0.961 . S
H548 C534 0.961 . S
H549 C535 0.958 . S
H550 C535 0.961 . S
H551 C535 0.960 . S
C552 C553 1.391 . S
C552 C554 1.394 . S
C552 H568 0.931 . S
C553 C552 1.391 . S
C553 C557 1.376 . S
C554 C552 1.394 . S
C554 C555 1.369 . S
C554 C558 1.531 . S
C555 C554 1.369 . S
C555 C556 1.410 . S
C555 C563 1.503 . S
C556 C555 1.410 . S
C556 C557 1.392 . S
C556 C559 1.511 . S
C557 C553 1.376 . S
C557 C556 1.392 . S
C557 H569 0.929 . S
C558 C554 1.531 . S
C558 H570 0.960 . S
C558 H571 0.962 . S
C558 H572 0.960 . S
C559 C556 1.511 . S
C559 H573 0.961 . S
C559 H574 0.961 . S
C559 H575 0.961 . S
C560 C561 1.370 . S
C560 C562 1.363 . S
C560 H576 0.931 . S
C561 C560 1.370 . S
C561 C565 1.408 . S
C562 C560 1.363 . S
C562 C563 1.370 . S
C562 C566 1.524 . S
C563 C555 1.503 . S
C563 C562 1.370 . S
C563 C564 1.403 . S
C564 C563 1.403 . S
C564 C565 1.404 . S
C564 C567 1.539 . S
C565 C561 1.408 . S
C565 C564 1.404 . S
C565 H577 0.930 . S
C566 C562 1.524 . S
C566 H578 0.956 . S
C566 H579 0.961 . S
C566 H580 0.961 . S
C567 C564 1.539 . S
C567 H581 0.958 . S
C567 H582 0.961 . S
C567 H583 0.960 . S
H568 C552 0.931 . S
H569 C557 0.929 . S
H570 C558 0.960 . S
H571 C558 0.962 . S
H572 C558 0.960 . S
H573 C559 0.961 . S
H574 C559 0.961 . S
H575 C559 0.961 . S
H576 C560 0.931 . S
H577 C565 0.930 . S
H578 C566 0.956 . S
H579 C566 0.961 . S
H580 C566 0.961 . S
H581 C567 0.958 . S
H582 C567 0.961 . S
H583 C567 0.960 . S
C584 C585 1.391 . S
C584 C586 1.394 . S
C584 H600 0.931 . S
C585 C584 1.391 . S
C585 C589 1.376 . S
C586 C584 1.394 . S
C586 C587 1.369 . S
C586 C590 1.531 . S
C587 C586 1.369 . S
C587 C588 1.410 . S
C587 C595 1.503 1_545 S
C588 C587 1.410 . S
C588 C589 1.392 . S
C588 C591 1.511 1_545 S
C589 C585 1.376 . S
C589 C588 1.392 . S
C589 H601 0.929 . S
C590 C586 1.531 . S
C590 H602 0.960 . S
C590 H603 0.962 . S
C590 H604 0.960 . S
C591 C588 1.511 1_565 S
C591 H605 0.961 . S
C591 H606 0.961 . S
C591 H607 0.961 . S
C592 C593 1.370 . S
C592 C594 1.363 . S
C592 H608 0.931 . S
C593 C592 1.370 . S
C593 C597 1.408 . S
C594 C592 1.363 . S
C594 C595 1.370 . S
C594 C598 1.524 . S
C595 C587 1.503 1_565 S
C595 C594 1.370 . S
C595 C596 1.403 . S
C596 C595 1.403 . S
C596 C597 1.404 . S
C596 C599 1.539 1_565 S
C597 C593 1.408 . S
C597 C596 1.404 . S
C597 H609 0.930 . S
C598 C594 1.524 . S
C598 H610 0.956 . S
C598 H611 0.961 . S
C598 H612 0.961 . S
C599 C596 1.539 1_545 S
C599 H613 0.958 . S
C599 H614 0.969 . S
C599 H615 0.960 . S
H600 C584 0.931 . S
H601 C589 0.929 . S
H602 C590 0.960 . S
H603 C590 0.962 . S
H604 C590 0.960 . S
H605 C591 0.961 . S
H606 C591 0.961 . S
H607 C591 0.961 . S
H608 C592 0.931 . S
H609 C597 0.930 . S
H610 C598 0.956 . S
H611 C598 0.961 . S
H612 C598 0.961 . S
H613 C599 0.958 . S
H614 C599 0.969 . S
H615 C599 0.960 . S
C616 C617 1.391 . S
C616 C618 1.394 . S
C616 H632 0.931 . S
C617 C616 1.391 . S
C617 C621 1.376 . S
C618 C616 1.394 . S
C618 C619 1.369 . S
C618 C622 1.531 . S
C619 C618 1.369 . S
C619 C620 1.410 . S
C619 C627 1.503 . S
C620 C619 1.410 . S
C620 C621 1.392 . S
C620 C623 1.511 . S
C621 C617 1.376 . S
C621 C620 1.392 . S
C621 H633 0.929 . S
C622 C618 1.531 . S
C622 H634 0.960 . S
C622 H635 0.962 . S
C622 H636 0.960 . S
C623 C620 1.511 . S
C623 H637 0.961 . S
C623 H638 0.961 . S
C623 H639 0.961 . S
C624 C625 1.370 . S
C624 C626 1.363 . S
C624 H640 0.931 . S
C625 C624 1.370 . S
C625 C629 1.408 . S
C626 C624 1.363 . S
C626 C627 1.370 . S
C626 C630 1.524 . S
C627 C619 1.503 . S
C627 C626 1.370 . S
C627 C628 1.403 . S
C628 C627 1.403 . S
C628 C629 1.404 . S
C628 C631 1.539 . S
C629 C625 1.408 . S
C629 C628 1.404 . S
C629 H641 0.930 . S
C630 C626 1.524 . S
C630 H642 0.956 1_565 S
C630 H643 0.961 . S
C630 H644 0.961 . S
C631 C628 1.539 . S
C631 H645 0.958 . S
C631 H646 0.961 . S
C631 H647 0.960 . S
H632 C616 0.931 . S
H633 C621 0.929 . S
H634 C622 0.960 . S
H635 C622 0.962 . S
H636 C622 0.960 . S
H637 C623 0.961 . S
H638 C623 0.961 . S
H639 C623 0.961 . S
H640 C624 0.931 . S
H641 C629 0.930 . S
H642 C630 0.956 1_545 S
H643 C630 0.961 . S
H644 C630 0.961 . S
H645 C631 0.958 . S
H646 C631 0.961 . S
H647 C631 0.960 . S
C648 C649 1.391 . S
C648 C650 1.394 1_565 S
C648 H664 0.931 . S
C649 C648 1.391 . S
C649 C653 1.376 . S
C650 C648 1.394 1_545 S
C650 C651 1.369 1_545 S
C650 C654 1.531 . S
C651 C650 1.369 1_565 S
C651 C652 1.410 . S
C651 C659 1.503 1_565 S
C652 C651 1.410 . S
C652 C653 1.392 . S
C652 C655 1.511 . S
C653 C649 1.376 . S
C653 C652 1.392 . S
C653 H665 0.929 . S
C654 C650 1.531 . S
C654 H666 0.960 . S
C654 H667 0.962 . S
C654 H668 0.960 . S
C655 C652 1.511 . S
C655 H669 0.961 . S
C655 H670 0.961 . S
C655 H671 0.961 . S
C656 C657 1.370 . S
C656 C658 1.363 . S
C656 H672 0.931 . S
C657 C656 1.370 . S
C657 C661 1.408 . S
C658 C656 1.363 . S
C658 C659 1.370 . S
C658 C662 1.524 . S
C659 C651 1.503 1_545 S
C659 C658 1.370 . S
C659 C660 1.403 . S
C660 C659 1.403 . S
C660 C661 1.404 . S
C660 C663 1.539 . S
C661 C657 1.408 . S
C661 C660 1.404 . S
C661 H673 0.930 . S
C662 C658 1.524 . S
C662 H674 0.956 . S
C662 H675 0.961 . S
C662 H676 0.961 . S
C663 C660 1.539 . S
C663 H677 0.958 . S
C663 H678 0.961 . S
C663 H679 0.960 1_545 S
H664 C648 0.931 . S
H665 C653 0.929 . S
H666 C654 0.960 . S
H667 C654 0.962 . S
H668 C654 0.960 . S
H669 C655 0.961 . S
H670 C655 0.961 . S
H671 C655 0.961 . S
H672 C656 0.931 . S
H673 C661 0.930 . S
H674 C662 0.956 . S
H675 C662 0.961 . S
H676 C662 0.961 . S
H677 C663 0.958 . S
H678 C663 0.961 . S
H679 C663 0.960 1_565 S
C680 C681 1.391 . S
C680 C682 1.394 . S
C680 H696 0.931 . S
C681 C680 1.391 . S
C681 C685 1.369 1_565 S
C682 C680 1.394 . S
C682 C683 1.369 . S
C682 C686 1.531 . S
C683 C682 1.369 . S
C683 C684 1.410 . S
C683 C691 1.503 . S
C684 C683 1.410 . S
C684 C685 1.389 1_565 S
C684 C687 1.511 1_565 S
C685 C681 1.369 1_545 S
C685 C684 1.389 1_545 S
C685 H697 0.940 . S
C686 C682 1.531 . S
C686 H698 0.960 . S
C686 H699 0.962 . S
C686 H700 0.960 . S
C687 C684 1.511 1_545 S
C687 H701 0.961 . S
C687 H702 0.961 1_545 S
C687 H703 0.961 . S
C688 C689 1.370 . S
C688 C690 1.363 . S
C688 H704 0.931 . S
C689 C688 1.370 . S
C689 C693 1.408 . S
C690 C688 1.363 . S
C690 C691 1.370 . S
C690 C694 1.524 . S
C691 C683 1.503 . S
C691 C690 1.370 . S
C691 C692 1.403 . S
C692 C691 1.403 . S
C692 C693 1.404 . S
C692 C695 1.539 . S
C693 C689 1.408 . S
C693 C692 1.404 . S
C693 H705 0.930 . S
C694 C690 1.524 . S
C694 H706 0.956 . S
C694 H707 0.961 . S
C694 H708 0.961 . S
C695 C692 1.539 . S
C695 H709 0.958 . S
C695 H710 0.961 . S
C695 H711 0.960 . S
H696 C680 0.931 . S
H697 C685 0.940 . S
H698 C686 0.960 . S
H699 C686 0.962 . S
H700 C686 0.960 . S
H701 C687 0.961 . S
H702 C687 0.961 1_565 S
H703 C687 0.961 . S
H704 C688 0.931 . S
H705 C693 0.930 . S
H706 C694 0.956 . S
H707 C694 0.961 . S
H708 C694 0.961 . S
H709 C695 0.958 . S
H710 C695 0.961 . S
H711 C695 0.960 . S
C712 C713 1.391 . S
C712 C714 1.394 . S
C712 H728 0.931 . S
C713 C712 1.391 . S
C713 C717 1.376 . S
C714 C712 1.394 . S
C714 C715 1.369 . S
C714 C718 1.531 . S
C715 C714 1.369 . S
C715 C716 1.410 . S
C715 C723 1.503 1_545 S
C716 C715 1.410 . S
C716 C717 1.392 . S
C716 C719 1.511 1_545 S
C717 C713 1.376 . S
C717 C716 1.392 . S
C717 H729 0.929 . S
C718 C714 1.531 . S
C718 H730 0.960 . S
C718 H731 0.962 . S
C718 H732 0.960 . S
C719 C716 1.511 1_565 S
C719 H733 0.961 . S
C719 H734 0.961 . S
C719 H735 0.961 . S
C720 C721 1.370 . S
C720 C722 1.363 . S
C720 H736 0.931 . S
C721 C720 1.370 . S
C721 C725 1.408 . S
C722 C720 1.363 . S
C722 C723 1.370 . S
C722 C726 1.524 . S
C723 C715 1.503 1_565 S
C723 C722 1.370 . S
C723 C724 1.403 . S
C724 C723 1.403 . S
C724 C725 1.404 . S
C724 C727 1.539 . S
C725 C721 1.408 . S
C725 C724 1.404 . S
C725 H737 0.930 . S
C726 C722 1.524 . S
C726 H738 0.956 . S
C726 H739 0.961 . S
C726 H740 0.961 . S
C727 C724 1.539 . S
C727 H741 0.958 1_565 S
C727 H742 0.961 . S
C727 H743 0.960 1_565 S
H728 C712 0.931 . S
H729 C717 0.929 . S
H730 C718 0.960 . S
H731 C718 0.962 . S
H732 C718 0.960 . S
H733 C719 0.961 . S
H734 C719 0.961 . S
H735 C719 0.961 . S
H736 C720 0.931 . S
H737 C725 0.930 . S
H738 C726 0.956 . S
H739 C726 0.961 . S
H740 C726 0.961 . S
H741 C727 0.958 1_545 S
H742 C727 0.961 . S
H743 C727 0.960 1_545 S
C744 C745 1.391 . S
C744 C746 1.394 . S
C744 H760 0.931 1_556 S
C745 C744 1.391 . S
C745 C749 1.376 . S
C746 C744 1.394 . S
C746 C747 1.369 . S
C746 C750 1.531 . S
C747 C746 1.369 . S
C747 C748 1.410 . S
C747 C755 1.503 . S
C748 C747 1.410 . S
C748 C749 1.392 . S
C748 C751 1.511 . S
C749 C745 1.376 . S
C749 C748 1.392 . S
C749 H761 0.929 . S
C750 C746 1.531 . S
C750 H762 0.960 . S
C750 H763 0.962 . S
C750 H764 0.960 1_556 S
C751 C748 1.511 . S
C751 H765 0.961 . S
C751 H766 0.961 . S
C751 H767 0.961 1_545 S
C752 C753 1.370 . S
C752 C754 1.363 . S
C752 H768 0.931 . S
C753 C752 1.370 . S
C753 C757 1.408 . S
C754 C752 1.363 . S
C754 C755 1.370 . S
C754 C758 1.524 . S
C755 C747 1.503 . S
C755 C754 1.370 . S
C755 C756 1.403 . S
C756 C755 1.403 . S
C756 C757 1.404 . S
C756 C759 1.539 . S
C757 C753 1.408 . S
C757 C756 1.404 . S
C757 H769 0.930 . S
C758 C754 1.524 . S
C758 H770 0.956 . S
C758 H771 0.961 . S
C758 H772 0.961 . S
C759 C756 1.539 . S
C759 H773 0.958 . S
C759 H774 0.966 . S
C759 H775 0.960 . S
H760 C744 0.931 1_554 S
H761 C749 0.929 . S
H762 C750 0.960 . S
H763 C750 0.962 . S
H764 C750 0.960 1_554 S
H765 C751 0.961 . S
H766 C751 0.961 . S
H767 C751 0.961 1_565 S
H768 C752 0.931 . S
H769 C757 0.930 . S
H770 C758 0.956 . S
H771 C758 0.961 . S
H772 C758 0.961 . S
H773 C759 0.958 . S
H774 C759 0.966 . S
H775 C759 0.960 . S
C776 C777 1.391 . S
C776 C778 1.394 . S
C776 H792 0.931 . S
C777 C776 1.391 . S
C777 C781 1.376 . S
C778 C776 1.394 . S
C778 C779 1.369 1_565 S
C778 C782 1.531 . S
C779 C778 1.369 1_545 S
C779 C780 1.410 1_545 S
C779 C787 1.503 . S
C780 C779 1.410 1_565 S
C780 C781 1.392 . S
C780 C783 1.511 1_565 S
C781 C777 1.376 . S
C781 C780 1.392 . S
C781 H793 0.929 . S
C782 C778 1.531 . S
C782 H794 0.960 1_565 S
C782 H795 0.962 . S
C782 H796 0.960 . S
C783 C780 1.511 1_545 S
C783 H797 0.961 . S
C783 H798 0.961 . S
C783 H799 0.961 . S
C784 C785 1.370 . S
C784 C786 1.363 . S
C784 H800 0.931 . S
C785 C784 1.370 . S
C785 C789 1.408 . S
C786 C784 1.363 . S
C786 C787 1.370 . S
C786 C790 1.524 1_545 S
C787 C779 1.503 . S
C787 C786 1.370 . S
C787 C788 1.403 . S
C788 C787 1.403 . S
C788 C789 1.404 . S
C788 C791 1.539 . S
C789 C785 1.408 . S
C789 C788 1.404 . S
C789 H801 0.930 . S
C790 C786 1.524 1_565 S
C790 H802 0.956 . S
C790 H803 0.961 . S
C790 H804 0.961 . S
C791 C788 1.539 . S
C791 H805 0.958 . S
C791 H806 0.961 . S
C791 H807 0.960 . S
H792 C776 0.931 . S
H793 C781 0.929 . S
H794 C782 0.960 1_545 S
H795 C782 0.962 . S
H796 C782 0.960 . S
H797 C783 0.961 . S
H798 C783 0.961 . S
H799 C783 0.961 . S
H800 C784 0.931 . S
H801 C789 0.930 . S
H802 C790 0.956 . S
H803 C790 0.961 . S
H804 C790 0.961 . S
H805 C791 0.958 . S
H806 C791 0.961 . S
H807 C791 0.960 . S
C808 C809 1.391 . S
C808 C810 1.394 . S
C808 H824 0.931 . S
C809 C808 1.391 . S
C809 C813 1.376 . S
C810 C808 1.394 . S
C810 C811 1.369 . S
C810 C814 1.531 . S
C811 C810 1.369 . S
C811 C812 1.410 . S
C811 C819 1.503 . S
C812 C811 1.410 . S
C812 C813 1.392 . S
C812 C815 1.511 . S
C813 C809 1.376 . S
C813 C812 1.392 . S
C813 H825 0.929 1_556 S
C814 C810 1.531 . S
C814 H826 0.960 . S
C814 H827 0.962 . S
C814 H828 0.960 . S
C815 C812 1.511 . S
C815 H829 0.961 1_556 S
C815 H830 0.961 . S
C815 H831 0.958 1_556 S
C816 C817 1.370 . S
C816 C818 1.363 . S
C816 H832 0.931 . S
C817 C816 1.370 . S
C817 C821 1.408 . S
C818 C816 1.363 . S
C818 C819 1.370 . S
C818 C822 1.524 . S
C819 C811 1.503 . S
C819 C818 1.370 . S
C819 C820 1.403 . S
C820 C819 1.403 . S
C820 C821 1.404 . S
C820 C823 1.539 . S
C821 C817 1.408 . S
C821 C820 1.404 . S
C821 H833 0.930 . S
C822 C818 1.524 . S
C822 H834 0.956 . S
C822 H835 0.961 . S
C822 H836 0.961 . S
C823 C820 1.539 . S
C823 H837 0.958 . S
C823 H838 0.961 . S
C823 H839 0.960 . S
H824 C808 0.931 . S
H825 C813 0.929 1_554 S
H826 C814 0.960 . S
H827 C814 0.962 . S
H828 C814 0.960 . S
H829 C815 0.961 1_554 S
H830 C815 0.961 . S
H831 C815 0.958 1_554 S
H832 C816 0.931 . S
H833 C821 0.930 . S
H834 C822 0.956 . S
H835 C822 0.961 . S
H836 C822 0.961 . S
H837 C823 0.958 . S
H838 C823 0.961 . S
H839 C823 0.960 . S
C840 C841 1.391 . S
C840 C842 1.394 . S
C840 H856 0.931 . S
C841 C840 1.391 . S
C841 C845 1.376 . S
C842 C840 1.394 . S
C842 C843 1.369 . S
C842 C846 1.531 . S
C843 C842 1.369 . S
C843 C844 1.410 . S
C843 C851 1.503 . S
C844 C843 1.410 . S
C844 C845 1.392 . S
C844 C847 1.511 . S
C845 C841 1.376 . S
C845 C844 1.392 . S
C845 H857 0.929 . S
C846 C842 1.531 . S
C846 H858 0.960 . S
C846 H859 0.962 . S
C846 H860 0.960 . S
C847 C844 1.511 . S
C847 H861 0.961 . S
C847 H862 0.961 . S
C847 H863 0.961 . S
C848 C849 1.370 . S
C848 C850 1.363 . S
C848 H864 0.931 . S
C849 C848 1.370 . S
C849 C853 1.408 . S
C850 C848 1.363 . S
C850 C851 1.370 . S
C850 C854 1.524 . S
C851 C843 1.503 . S
C851 C850 1.370 . S
C851 C852 1.403 . S
C852 C851 1.403 . S
C852 C853 1.404 . S
C852 C855 1.539 . S
C853 C849 1.408 . S
C853 C852 1.404 . S
C853 H865 0.930 . S
C854 C850 1.524 . S
C854 H866 0.956 . S
C854 H867 0.961 . S
C854 H868 0.961 . S
C855 C852 1.539 . S
C855 H869 0.958 . S
C855 H870 0.961 . S
C855 H871 0.960 . S
H856 C840 0.931 . S
H857 C845 0.929 . S
H858 C846 0.960 . S
H859 C846 0.962 . S
H860 C846 0.960 . S
H861 C847 0.961 . S
H862 C847 0.961 . S
H863 C847 0.961 . S
H864 C848 0.931 . S
H865 C853 0.930 . S
H866 C854 0.956 . S
H867 C854 0.961 . S
H868 C854 0.961 . S
H869 C855 0.958 . S
H870 C855 0.961 . S
H871 C855 0.960 . S
C872 C873 1.391 . S
C872 C874 1.394 . S
C872 H888 0.931 . S
C873 C872 1.391 . S
C873 C877 1.376 . S
C874 C872 1.394 . S
C874 C875 1.369 . S
C874 C878 1.531 . S
C875 C874 1.369 . S
C875 C876 1.410 . S
C875 C883 1.503 . S
C876 C875 1.410 . S
C876 C877 1.392 . S
C876 C879 1.511 . S
C877 C873 1.376 . S
C877 C876 1.392 . S
C877 H889 0.929 . S
C878 C874 1.531 . S
C878 H890 0.960 . S
C878 H891 0.962 . S
C878 H892 0.960 . S
C879 C876 1.511 . S
C879 H893 0.961 . S
C879 H894 0.961 . S
C879 H895 0.961 . S
C880 C881 1.370 . S
C880 C882 1.363 . S
C880 H896 0.931 . S
C881 C880 1.370 . S
C881 C885 1.408 . S
C882 C880 1.363 . S
C882 C883 1.370 . S
C882 C886 1.524 . S
C883 C875 1.503 . S
C883 C882 1.370 . S
C883 C884 1.403 . S
C884 C883 1.403 . S
C884 C885 1.404 . S
C884 C887 1.539 . S
C885 C881 1.408 . S
C885 C884 1.404 . S
C885 H897 0.930 . S
C886 C882 1.524 . S
C886 H898 0.956 . S
C886 H899 0.961 . S
C886 H900 0.961 . S
C887 C884 1.539 . S
C887 H901 0.958 . S
C887 H902 0.961 . S
C887 H903 0.960 . S
H888 C872 0.931 . S
H889 C877 0.929 . S
H890 C878 0.960 . S
H891 C878 0.962 . S
H892 C878 0.960 . S
H893 C879 0.961 . S
H894 C879 0.961 . S
H895 C879 0.961 . S
H896 C880 0.931 . S
H897 C885 0.930 . S
H898 C886 0.956 . S
H899 C886 0.961 . S
H900 C886 0.961 . S
H901 C887 0.958 . S
H902 C887 0.961 . S
H903 C887 0.960 . S
C904 C905 1.391 . S
C904 C906 1.394 . S
C904 H920 0.931 . S
C905 C904 1.391 . S
C905 C909 1.376 . S
C906 C904 1.394 . S
C906 C907 1.369 . S
C906 C910 1.531 . S
C907 C906 1.369 . S
C907 C908 1.410 . S
C907 C915 1.503 . S
C908 C907 1.410 . S
C908 C909 1.392 . S
C908 C911 1.511 . S
C909 C905 1.376 . S
C909 C908 1.392 . S
C909 H921 0.929 . S
C910 C906 1.531 . S
C910 H922 0.960 . S
C910 H923 0.962 . S
C910 H924 0.960 . S
C911 C908 1.511 . S
C911 H925 0.961 . S
C911 H926 0.961 . S
C911 H927 0.961 . S
C912 C913 1.370 . S
C912 C914 1.363 . S
C912 H928 0.931 . S
C913 C912 1.370 . S
C913 C917 1.408 . S
C914 C912 1.363 . S
C914 C915 1.370 . S
C914 C918 1.524 . S
C915 C907 1.503 . S
C915 C914 1.370 . S
C915 C916 1.403 . S
C916 C915 1.403 . S
C916 C917 1.404 . S
C916 C919 1.539 . S
C917 C913 1.408 . S
C917 C916 1.404 . S
C917 H929 0.930 . S
C918 C914 1.524 . S
C918 H930 0.956 . S
C918 H931 0.961 . S
C918 H932 0.961 . S
C919 C916 1.539 . S
C919 H933 0.958 . S
C919 H934 0.961 . S
C919 H935 0.960 . S
H920 C904 0.931 . S
H921 C909 0.929 . S
H922 C910 0.960 . S
H923 C910 0.962 . S
H924 C910 0.960 . S
H925 C911 0.961 . S
H926 C911 0.961 . S
H927 C911 0.961 . S
H928 C912 0.931 . S
H929 C917 0.930 . S
H930 C918 0.956 . S
H931 C918 0.961 . S
H932 C918 0.961 . S
H933 C919 0.958 . S
H934 C919 0.961 . S
H935 C919 0.960 . S
C936 C937 1.391 . S
C936 C938 1.394 . S
C936 H952 0.931 . S
C937 C936 1.391 . S
C937 C941 1.376 . S
C938 C936 1.394 . S
C938 C939 1.369 . S
C938 C942 1.531 . S
C939 C938 1.369 . S
C939 C940 1.410 . S
C939 C947 1.503 . S
C940 C939 1.410 . S
C940 C941 1.392 . S
C940 C943 1.511 . S
C941 C937 1.376 . S
C941 C940 1.392 . S
C941 H953 0.929 . S
C942 C938 1.531 . S
C942 H954 0.960 . S
C942 H955 0.962 . S
C942 H956 0.960 . S
C943 C940 1.511 . S
C943 H957 0.961 . S
C943 H958 0.961 . S
C943 H959 0.961 . S
C944 C945 1.370 . S
C944 C946 1.363 . S
C944 H960 0.931 . S
C945 C944 1.370 . S
C945 C949 1.408 . S
C946 C944 1.363 . S
C946 C947 1.370 . S
C946 C950 1.524 . S
C947 C939 1.503 . S
C947 C946 1.370 . S
C947 C948 1.403 . S
C948 C947 1.403 . S
C948 C949 1.404 . S
C948 C951 1.539 . S
C949 C945 1.408 . S
C949 C948 1.404 . S
C949 H961 0.930 . S
C950 C946 1.524 . S
C950 H962 0.956 . S
C950 H963 0.961 . S
C950 H964 0.961 . S
C951 C948 1.539 . S
C951 H965 0.958 . S
C951 H966 0.961 . S
C951 H967 0.960 . S
H952 C936 0.931 . S
H953 C941 0.929 . S
H954 C942 0.960 . S
H955 C942 0.962 . S
H956 C942 0.960 . S
H957 C943 0.961 . S
H958 C943 0.961 . S
H959 C943 0.961 . S
H960 C944 0.931 . S
H961 C949 0.930 . S
H962 C950 0.956 . S
H963 C950 0.961 . S
H964 C950 0.961 . S
H965 C951 0.958 . S
H966 C951 0.961 . S
H967 C951 0.960 . S
C968 C969 1.391 . S
C968 C970 1.394 . S
C968 H984 0.931 . S
C969 C968 1.391 . S
C969 C973 1.376 . S
C970 C968 1.394 . S
C970 C971 1.369 . S
C970 C974 1.531 . S
C971 C970 1.369 . S
C971 C972 1.410 . S
C971 C979 1.503 . S
C972 C971 1.410 . S
C972 C973 1.392 . S
C972 C975 1.511 . S
C973 C969 1.376 . S
C973 C972 1.392 . S
C973 H985 0.929 . S
C974 C970 1.531 . S
C974 H986 0.960 . S
C974 H987 0.962 . S
C974 H988 0.960 . S
C975 C972 1.511 . S
C975 H989 0.961 . S
C975 H990 0.961 . S
C975 H991 0.961 . S
C976 C977 1.370 . S
C976 C978 1.363 . S
C976 H992 0.931 . S
C977 C976 1.370 . S
C977 C981 1.408 . S
C978 C976 1.363 . S
C978 C979 1.370 . S
C978 C982 1.524 . S
C979 C971 1.503 . S
C979 C978 1.370 . S
C979 C980 1.403 . S
C980 C979 1.403 . S
C980 C981 1.404 . S
C980 C983 1.539 . S
C981 C977 1.408 . S
C981 C980 1.404 . S
C981 H993 0.930 . S
C982 C978 1.524 . S
C982 H994 0.956 . S
C982 H995 0.961 . S
C982 H996 0.961 . S
C983 C980 1.539 . S
C983 H997 0.958 . S
C983 H998 0.961 . S
C983 H999 0.960 . S
H984 C968 0.931 . S
H985 C973 0.929 . S
H986 C974 0.960 . S
H987 C974 0.962 . S
H988 C974 0.960 . S
H989 C975 0.961 . S
H990 C975 0.961 . S
H991 C975 0.961 . S
H992 C976 0.931 . S
H993 C981 0.930 . S
H994 C982 0.956 . S
H995 C982 0.961 . S
H996 C982 0.961 . S
H997 C983 0.958 . S
H998 C983 0.961 . S
H999 C983 0.960 . S
C1000 C1001 1.391 . S
C1000 C1002 1.394 . S
C1000 H1016 0.931 . S
C1001 C1000 1.391 . S
C1001 C1005 1.376 . S
C1002 C1000 1.394 . S
C1002 C1003 1.369 . S
C1002 C1006 1.531 . S
C1003 C1002 1.369 . S
C1003 C1004 1.410 . S
C1003 C1011 1.503 . S
C1004 C1003 1.410 . S
C1004 C1005 1.392 . S
C1004 C1007 1.511 . S
C1005 C1001 1.376 . S
C1005 C1004 1.392 . S
C1005 H1017 0.929 . S
C1006 C1002 1.531 . S
C1006 H1018 0.960 . S
C1006 H1019 0.962 . S
C1006 H1020 0.960 . S
C1007 C1004 1.511 . S
C1007 H1021 0.961 . S
C1007 H1022 0.961 . S
C1007 H1023 0.961 . S
C1008 C1009 1.370 . S
C1008 C1010 1.363 . S
C1008 H1024 0.931 . S
C1009 C1008 1.370 . S
C1009 C1013 1.408 . S
C1010 C1008 1.363 . S
C1010 C1011 1.370 . S
C1010 C1014 1.524 . S
C1011 C1003 1.503 . S
C1011 C1010 1.370 . S
C1011 C1012 1.403 . S
C1012 C1011 1.403 . S
C1012 C1013 1.404 . S
C1012 C1015 1.539 . S
C1013 C1009 1.408 . S
C1013 C1012 1.404 . S
C1013 H1025 0.930 . S
C1014 C1010 1.524 . S
C1014 H1026 0.956 . S
C1014 H1027 0.961 . S
C1014 H1028 0.961 . S
C1015 C1012 1.539 . S
C1015 H1029 0.958 . S
C1015 H1030 0.961 . S
C1015 H1031 0.960 . S
H1016 C1000 0.931 . S
H1017 C1005 0.929 . S
H1018 C1006 0.960 . S
H1019 C1006 0.962 . S
H1020 C1006 0.960 . S
H1021 C1007 0.961 . S
H1022 C1007 0.961 . S
H1023 C1007 0.961 . S
H1024 C1008 0.931 . S
H1025 C1013 0.930 . S
H1026 C1014 0.956 . S
H1027 C1014 0.961 . S
H1028 C1014 0.961 . S
H1029 C1015 0.958 . S
H1030 C1015 0.961 . S
H1031 C1015 0.960 . S
C1032 C1033 1.391 . S
C1032 C1034 1.394 . S
C1032 H1048 0.931 . S
C1033 C1032 1.391 . S
C1033 C1037 1.376 . S
C1034 C1032 1.394 . S
C1034 C1035 1.369 . S
C1034 C1038 1.531 . S
C1035 C1034 1.369 . S
C1035 C1036 1.410 . S
C1035 C1043 1.503 . S
C1036 C1035 1.410 . S
C1036 C1037 1.392 . S
C1036 C1039 1.511 . S
C1037 C1033 1.376 . S
C1037 C1036 1.392 . S
C1037 H1049 0.929 . S
C1038 C1034 1.531 . S
C1038 H1050 0.960 . S
C1038 H1051 0.962 . S
C1038 H1052 0.960 . S
C1039 C1036 1.511 . S
C1039 H1053 0.961 . S
C1039 H1054 0.961 . S
C1039 H1055 0.961 . S
C1040 C1041 1.370 . S
C1040 C1042 1.363 . S
C1040 H1056 0.931 . S
C1041 C1040 1.370 . S
C1041 C1045 1.408 . S
C1042 C1040 1.363 . S
C1042 C1043 1.370 . S
C1042 C1046 1.524 . S
C1043 C1035 1.503 . S
C1043 C1042 1.370 . S
C1043 C1044 1.403 . S
C1044 C1043 1.403 . S
C1044 C1045 1.404 . S
C1044 C1047 1.539 . S
C1045 C1041 1.408 . S
C1045 C1044 1.404 . S
C1045 H1057 0.930 . S
C1046 C1042 1.524 . S
C1046 H1058 0.956 . S
C1046 H1059 0.961 . S
C1046 H1060 0.961 . S
C1047 C1044 1.539 . S
C1047 H1061 0.958 . S
C1047 H1062 0.961 . S
C1047 H1063 0.960 . S
H1048 C1032 0.931 . S
H1049 C1037 0.929 . S
H1050 C1038 0.960 . S
H1051 C1038 0.962 . S
H1052 C1038 0.960 . S
H1053 C1039 0.961 . S
H1054 C1039 0.961 . S
H1055 C1039 0.961 . S
H1056 C1040 0.931 . S
H1057 C1045 0.930 . S
H1058 C1046 0.956 . S
H1059 C1046 0.961 . S
H1060 C1046 0.961 . S
H1061 C1047 0.958 . S
H1062 C1047 0.961 . S
H1063 C1047 0.960 . S
C1064 C1065 1.391 . S
C1064 C1066 1.394 . S
C1064 H1080 0.931 . S
C1065 C1064 1.391 . S
C1065 C1069 1.376 . S
C1066 C1064 1.394 . S
C1066 C1067 1.369 . S
C1066 C1070 1.531 . S
C1067 C1066 1.369 . S
C1067 C1068 1.410 . S
C1067 C1075 1.503 . S
C1068 C1067 1.410 . S
C1068 C1069 1.392 . S
C1068 C1071 1.511 . S
C1069 C1065 1.376 . S
C1069 C1068 1.392 . S
C1069 H1081 0.929 . S
C1070 C1066 1.531 . S
C1070 H1082 0.960 . S
C1070 H1083 0.962 . S
C1070 H1084 0.960 . S
C1071 C1068 1.511 . S
C1071 H1085 0.961 . S
C1071 H1086 0.961 . S
C1071 H1087 0.961 . S
C1072 C1073 1.370 . S
C1072 C1074 1.363 . S
C1072 H1088 0.931 . S
C1073 C1072 1.370 . S
C1073 C1077 1.408 . S
C1074 C1072 1.363 . S
C1074 C1075 1.370 . S
C1074 C1078 1.524 . S
C1075 C1067 1.503 . S
C1075 C1074 1.370 . S
C1075 C1076 1.403 . S
C1076 C1075 1.403 . S
C1076 C1077 1.404 . S
C1076 C1079 1.539 . S
C1077 C1073 1.408 . S
C1077 C1076 1.404 . S
C1077 H1089 0.930 . S
C1078 C1074 1.524 . S
C1078 H1090 0.956 . S
C1078 H1091 0.961 . S
C1078 H1092 0.961 . S
C1079 C1076 1.539 . S
C1079 H1093 0.958 . S
C1079 H1094 0.961 . S
C1079 H1095 0.960 . S
H1080 C1064 0.931 . S
H1081 C1069 0.929 . S
H1082 C1070 0.960 . S
H1083 C1070 0.962 . S
H1084 C1070 0.960 . S
H1085 C1071 0.961 . S
H1086 C1071 0.961 . S
H1087 C1071 0.961 . S
H1088 C1072 0.931 . S
H1089 C1077 0.930 . S
H1090 C1078 0.956 . S
H1091 C1078 0.961 . S
H1092 C1078 0.961 . S
H1093 C1079 0.958 . S
H1094 C1079 0.961 . S
H1095 C1079 0.960 . S
C1096 C1097 1.391 . S
C1096 C1098 1.394 . S
C1096 H1112 0.931 . S
C1097 C1096 1.391 . S
C1097 C1101 1.376 . S
C1098 C1096 1.394 . S
C1098 C1099 1.369 . S
C1098 C1102 1.531 . S
C1099 C1098 1.369 . S
C1099 C1100 1.410 . S
C1099 C1107 1.503 . S
C1100 C1099 1.410 . S
C1100 C1101 1.392 . S
C1100 C1103 1.511 . S
C1101 C1097 1.376 . S
C1101 C1100 1.392 . S
C1101 H1113 0.929 . S
C1102 C1098 1.531 . S
C1102 H1114 0.960 . S
C1102 H1115 0.962 . S
C1102 H1116 0.960 . S
C1103 C1100 1.511 . S
C1103 H1117 0.961 . S
C1103 H1118 0.961 . S
C1103 H1119 0.961 . S
C1104 C1105 1.370 . S
C1104 C1106 1.363 . S
C1104 H1120 0.931 . S
C1105 C1104 1.370 . S
C1105 C1109 1.408 . S
C1106 C1104 1.363 . S
C1106 C1107 1.370 . S
C1106 C1110 1.524 . S
C1107 C1099 1.503 . S
C1107 C1106 1.370 . S
C1107 C1108 1.403 . S
C1108 C1107 1.403 . S
C1108 C1109 1.404 . S
C1108 C1111 1.539 . S
C1109 C1105 1.408 . S
C1109 C1108 1.404 . S
C1109 H1121 0.930 . S
C1110 C1106 1.524 . S
C1110 H1122 0.956 . S
C1110 H1123 0.961 . S
C1110 H1124 0.961 . S
C1111 C1108 1.539 . S
C1111 H1125 0.958 . S
C1111 H1126 0.961 . S
C1111 H1127 0.960 . S
H1112 C1096 0.931 . S
H1113 C1101 0.929 . S
H1114 C1102 0.960 . S
H1115 C1102 0.962 . S
H1116 C1102 0.960 . S
H1117 C1103 0.961 . S
H1118 C1103 0.961 . S
H1119 C1103 0.961 . S
H1120 C1104 0.931 . S
H1121 C1109 0.930 . S
H1122 C1110 0.956 . S
H1123 C1110 0.961 . S
H1124 C1110 0.961 . S
H1125 C1111 0.958 . S
H1126 C1111 0.961 . S
H1127 C1111 0.960 . S
C1128 C1129 1.391 . S
C1128 C1130 1.394 . S
C1128 H1144 0.931 . S
C1129 C1128 1.391 . S
C1129 C1133 1.376 . S
C1130 C1128 1.394 . S
C1130 C1131 1.369 . S
C1130 C1134 1.531 . S
C1131 C1130 1.369 . S
C1131 C1132 1.410 . S
C1131 C1139 1.503 . S
C1132 C1131 1.410 . S
C1132 C1133 1.392 . S
C1132 C1135 1.511 . S
C1133 C1129 1.376 . S
C1133 C1132 1.392 . S
C1133 H1145 0.929 . S
C1134 C1130 1.531 . S
C1134 H1146 0.960 . S
C1134 H1147 0.962 . S
C1134 H1148 0.960 . S
C1135 C1132 1.511 . S
C1135 H1149 0.961 . S
C1135 H1150 0.961 . S
C1135 H1151 0.961 . S
C1136 C1137 1.370 . S
C1136 C1138 1.363 . S
C1136 H1152 0.931 . S
C1137 C1136 1.370 . S
C1137 C1141 1.408 . S
C1138 C1136 1.363 . S
C1138 C1139 1.370 . S
C1138 C1142 1.524 . S
C1139 C1131 1.503 . S
C1139 C1138 1.370 . S
C1139 C1140 1.403 . S
C1140 C1139 1.403 . S
C1140 C1141 1.404 . S
C1140 C1143 1.539 . S
C1141 C1137 1.408 . S
C1141 C1140 1.404 . S
C1141 H1153 0.930 . S
C1142 C1138 1.524 . S
C1142 H1154 0.956 . S
C1142 H1155 0.961 . S
C1142 H1156 0.961 . S
C1143 C1140 1.539 . S
C1143 H1157 0.958 . S
C1143 H1158 0.961 . S
C1143 H1159 0.960 . S
H1144 C1128 0.931 . S
H1145 C1133 0.929 . S
H1146 C1134 0.960 . S
H1147 C1134 0.962 . S
H1148 C1134 0.960 . S
H1149 C1135 0.961 . S
H1150 C1135 0.961 . S
H1151 C1135 0.961 . S
H1152 C1136 0.931 . S
H1153 C1141 0.930 . S
H1154 C1142 0.956 . S
H1155 C1142 0.961 . S
H1156 C1142 0.961 . S
H1157 C1143 0.958 . S
H1158 C1143 0.961 . S
H1159 C1143 0.960 . S
C1160 C1161 1.391 . S
C1160 C1162 1.394 . S
C1160 H1176 0.931 . S
C1161 C1160 1.391 . S
C1161 C1165 1.376 . S
C1162 C1160 1.394 . S
C1162 C1163 1.369 . S
C1162 C1166 1.531 . S
C1163 C1162 1.369 . S
C1163 C1164 1.410 . S
C1163 C1171 1.503 . S
C1164 C1163 1.410 . S
C1164 C1165 1.392 . S
C1164 C1167 1.511 . S
C1165 C1161 1.376 . S
C1165 C1164 1.392 . S
C1165 H1177 0.929 . S
C1166 C1162 1.531 . S
C1166 H1178 0.960 . S
C1166 H1179 0.962 . S
C1166 H1180 0.960 . S
C1167 C1164 1.511 . S
C1167 H1181 0.961 . S
C1167 H1182 0.961 . S
C1167 H1183 0.961 . S
C1168 C1169 1.370 . S
C1168 C1170 1.363 . S
C1168 H1184 0.931 . S
C1169 C1168 1.370 . S
C1169 C1173 1.408 . S
C1170 C1168 1.363 . S
C1170 C1171 1.370 . S
C1170 C1174 1.524 . S
C1171 C1163 1.503 . S
C1171 C1170 1.370 . S
C1171 C1172 1.403 . S
C1172 C1171 1.403 . S
C1172 C1173 1.404 . S
C1172 C1175 1.539 . S
C1173 C1169 1.408 . S
C1173 C1172 1.404 . S
C1173 H1185 0.930 . S
C1174 C1170 1.524 . S
C1174 H1186 0.956 . S
C1174 H1187 0.961 . S
C1174 H1188 0.961 . S
C1175 C1172 1.539 . S
C1175 H1189 0.958 . S
C1175 H1190 0.961 . S
C1175 H1191 0.960 . S
H1176 C1160 0.931 . S
H1177 C1165 0.929 . S
H1178 C1166 0.960 . S
H1179 C1166 0.962 . S
H1180 C1166 0.960 . S
H1181 C1167 0.961 . S
H1182 C1167 0.961 . S
H1183 C1167 0.961 . S
H1184 C1168 0.931 . S
H1185 C1173 0.930 . S
H1186 C1174 0.956 . S
H1187 C1174 0.961 . S
H1188 C1174 0.961 . S
H1189 C1175 0.958 . S
H1190 C1175 0.961 . S
H1191 C1175 0.960 . S
C1192 C1193 1.391 . S
C1192 C1194 1.394 . S
C1192 H1208 0.932 1_556 S
C1193 C1192 1.391 . S
C1193 C1197 1.376 . S
C1194 C1192 1.394 . S
C1194 C1195 1.369 . S
C1194 C1198 1.531 . S
C1195 C1194 1.369 . S
C1195 C1196 1.410 . S
C1195 C1203 1.503 . S
C1196 C1195 1.410 . S
C1196 C1197 1.392 . S
C1196 C1199 1.511 . S
C1197 C1193 1.376 . S
C1197 C1196 1.392 . S
C1197 H1209 0.929 . S
C1198 C1194 1.531 . S
C1198 H1210 0.960 . S
C1198 H1211 0.962 . S
C1198 H1212 0.993 . S
C1199 C1196 1.511 . S
C1199 H1213 0.961 . S
C1199 H1214 0.961 . S
C1199 H1215 0.961 . S
C1200 C1201 1.370 . S
C1200 C1202 1.363 . S
C1200 H1216 0.931 . S
C1201 C1200 1.370 . S
C1201 C1205 1.408 . S
C1202 C1200 1.363 . S
C1202 C1203 1.370 . S
C1202 C1206 1.524 . S
C1203 C1195 1.503 . S
C1203 C1202 1.370 . S
C1203 C1204 1.403 . S
C1204 C1203 1.403 . S
C1204 C1205 1.404 . S
C1204 C1207 1.539 . S
C1205 C1201 1.408 . S
C1205 C1204 1.404 . S
C1205 H1217 0.930 . S
C1206 C1202 1.524 . S
C1206 H1218 0.956 . S
C1206 H1219 0.961 . S
C1206 H1220 0.961 . S
C1207 C1204 1.539 . S
C1207 H1221 0.958 . S
C1207 H1222 0.961 . S
C1207 H1223 0.960 . S
H1208 C1192 0.932 1_554 S
H1209 C1197 0.929 . S
H1210 C1198 0.960 . S
H1211 C1198 0.962 . S
H1212 C1198 0.993 . S
H1213 C1199 0.961 . S
H1214 C1199 0.961 . S
H1215 C1199 0.961 . S
H1216 C1200 0.931 . S
H1217 C1205 0.930 . S
H1218 C1206 0.956 . S
H1219 C1206 0.961 . S
H1220 C1206 0.961 . S
H1221 C1207 0.958 . S
H1222 C1207 0.961 . S
H1223 C1207 0.960 . S
C1224 C1225 1.391 . S
C1224 C1226 1.394 . S
C1224 H1240 0.931 . S
C1225 C1224 1.391 . S
C1225 C1229 1.376 . S
C1226 C1224 1.394 . S
C1226 C1227 1.369 . S
C1226 C1230 1.531 . S
C1227 C1226 1.369 . S
C1227 C1228 1.410 . S
C1227 C1235 1.503 . S
C1228 C1227 1.410 . S
C1228 C1229 1.392 . S
C1228 C1231 1.511 . S
C1229 C1225 1.376 . S
C1229 C1228 1.392 . S
C1229 H1241 0.929 . S
C1230 C1226 1.531 . S
C1230 H1242 0.960 . S
C1230 H1243 0.962 . S
C1230 H1244 0.960 . S
C1231 C1228 1.511 . S
C1231 H1245 0.961 . S
C1231 H1246 0.961 . S
C1231 H1247 0.961 . S
C1232 C1233 1.370 . S
C1232 C1234 1.363 . S
C1232 H1248 0.931 . S
C1233 C1232 1.370 . S
C1233 C1237 1.408 . S
C1234 C1232 1.363 . S
C1234 C1235 1.370 . S
C1234 C1238 1.524 . S
C1235 C1227 1.503 . S
C1235 C1234 1.370 . S
C1235 C1236 1.403 . S
C1236 C1235 1.403 . S
C1236 C1237 1.404 . S
C1236 C1239 1.539 . S
C1237 C1233 1.408 . S
C1237 C1236 1.404 . S
C1237 H1249 0.930 . S
C1238 C1234 1.524 . S
C1238 H1250 0.956 . S
C1238 H1251 0.961 . S
C1238 H1252 0.961 . S
C1239 C1236 1.539 . S
C1239 H1253 0.958 . S
C1239 H1254 0.961 . S
C1239 H1255 0.960 . S
H1240 C1224 0.931 . S
H1241 C1229 0.929 . S
H1242 C1230 0.960 . S
H1243 C1230 0.962 . S
H1244 C1230 0.960 . S
H1245 C1231 0.961 . S
H1246 C1231 0.961 . S
H1247 C1231 0.961 . S
H1248 C1232 0.931 . S
H1249 C1237 0.930 . S
H1250 C1238 0.956 . S
H1251 C1238 0.961 . S
H1252 C1238 0.961 . S
H1253 C1239 0.958 . S
H1254 C1239 0.961 . S
H1255 C1239 0.960 . S
C1256 C1257 1.391 . S
C1256 C1258 1.394 . S
C1256 H1272 0.931 . S
C1257 C1256 1.391 . S
C1257 C1261 1.376 . S
C1258 C1256 1.394 . S
C1258 C1259 1.369 . S
C1258 C1262 1.531 . S
C1259 C1258 1.369 . S
C1259 C1260 1.410 . S
C1259 C1267 1.503 . S
C1260 C1259 1.410 . S
C1260 C1261 1.392 . S
C1260 C1263 1.511 . S
C1261 C1257 1.376 . S
C1261 C1260 1.392 . S
C1261 H1273 0.929 . S
C1262 C1258 1.531 . S
C1262 H1274 0.960 . S
C1262 H1275 0.962 . S
C1262 H1276 0.960 . S
C1263 C1260 1.511 . S
C1263 H1277 0.961 . S
C1263 H1278 0.961 . S
C1263 H1279 0.961 . S
C1264 C1265 1.370 . S
C1264 C1266 1.363 . S
C1264 H1280 0.931 . S
C1265 C1264 1.370 . S
C1265 C1269 1.408 . S
C1266 C1264 1.363 . S
C1266 C1267 1.370 . S
C1266 C1270 1.524 . S
C1267 C1259 1.503 . S
C1267 C1266 1.370 . S
C1267 C1268 1.403 . S
C1268 C1267 1.403 . S
C1268 C1269 1.404 . S
C1268 C1271 1.539 . S
C1269 C1265 1.408 . S
C1269 C1268 1.404 . S
C1269 H1281 0.930 . S
C1270 C1266 1.524 . S
C1270 H1282 0.956 . S
C1270 H1283 0.961 . S
C1270 H1284 0.961 . S
C1271 C1268 1.539 . S
C1271 H1285 0.958 . S
C1271 H1286 0.961 . S
C1271 H1287 0.960 . S
H1272 C1256 0.931 . S
H1273 C1261 0.929 . S
H1274 C1262 0.960 . S
H1275 C1262 0.962 . S
H1276 C1262 0.960 . S
H1277 C1263 0.961 . S
H1278 C1263 0.961 . S
H1279 C1263 0.961 . S
H1280 C1264 0.931 . S
H1281 C1269 0.930 . S
H1282 C1270 0.956 . S
H1283 C1270 0.961 . S
H1284 C1270 0.961 . S
H1285 C1271 0.958 . S
H1286 C1271 0.961 . S
H1287 C1271 0.960 . S
C1288 C1289 1.391 . S
C1288 C1290 1.394 . S
C1288 H1304 0.931 . S
C1289 C1288 1.391 . S
C1289 C1293 1.376 . S
C1290 C1288 1.394 . S
C1290 C1291 1.369 . S
C1290 C1294 1.531 . S
C1291 C1290 1.369 . S
C1291 C1292 1.410 . S
C1291 C1299 1.503 . S
C1292 C1291 1.410 . S
C1292 C1293 1.392 . S
C1292 C1295 1.511 . S
C1293 C1289 1.376 . S
C1293 C1292 1.392 . S
C1293 H1305 0.929 . S
C1294 C1290 1.531 . S
C1294 H1306 0.960 . S
C1294 H1307 0.962 . S
C1294 H1308 0.960 . S
C1295 C1292 1.511 . S
C1295 H1309 0.961 . S
C1295 H1310 0.961 . S
C1295 H1311 0.961 . S
C1296 C1297 1.370 . S
C1296 C1298 1.363 . S
C1296 H1312 0.931 . S
C1297 C1296 1.370 . S
C1297 C1301 1.408 . S
C1298 C1296 1.363 . S
C1298 C1299 1.370 . S
C1298 C1302 1.524 . S
C1299 C1291 1.503 . S
C1299 C1298 1.370 . S
C1299 C1300 1.403 . S
C1300 C1299 1.403 . S
C1300 C1301 1.404 . S
C1300 C1303 1.539 . S
C1301 C1297 1.408 . S
C1301 C1300 1.404 . S
C1301 H1313 0.930 . S
C1302 C1298 1.524 . S
C1302 H1314 0.956 . S
C1302 H1315 0.961 . S
C1302 H1316 0.961 . S
C1303 C1300 1.539 . S
C1303 H1317 0.958 . S
C1303 H1318 0.961 . S
C1303 H1319 0.960 . S
H1304 C1288 0.931 . S
H1305 C1293 0.929 . S
H1306 C1294 0.960 . S
H1307 C1294 0.962 . S
H1308 C1294 0.960 . S
H1309 C1295 0.961 . S
H1310 C1295 0.961 . S
H1311 C1295 0.961 . S
H1312 C1296 0.931 . S
H1313 C1301 0.930 . S
H1314 C1302 0.956 . S
H1315 C1302 0.961 . S
H1316 C1302 0.961 . S
H1317 C1303 0.958 . S
H1318 C1303 0.961 . S
H1319 C1303 0.960 . S
C305 C217 1.568 . S
C297 C17 1.485 . S
C329 C30 1.460 . S
C337 C249 1.520 . S
C361 C61 1.461 1_556 S
C369 C272 1.518 . S
C401 C176 1.565 . S
C393 C72 1.512 . S
C433 C259 1.415 . S
C425 C19 1.489 . S
C465 C288 1.454 . S
C457 C33 1.458 . S
C497 C192 1.440 . S
C489 C59 1.473 . S
C529 C227 1.409 . S
C521 C75 1.418 . S
C553 C12 1.456 . S
C561 C255 1.396 . S
C585 C101 1.480 . S
C593 C230 1.381 . S
C617 C51 1.465 . S
C625 C198 1.349 . S
C657 C287 1.388 . S
C649 C124 1.426 . S
C689 C231 1.550 . S
C681 C9 1.473 1_565 S
C713 C103 1.524 . S
C721 C199 1.539 . S
C745 C54 1.460 1_556 S
C753 C286 1.588 . S
C785 C254 1.593 . S
C777 C122 1.497 . S
C809 C145 1.477 1_556 S
C817 C281 1.517 . S
C841 C96 1.443 . S
C849 C185 1.554 . S
C873 C166 1.540 . S
C881 C208 1.560 . S
C905 C114 1.476 . S
C913 C240 1.539 . S
C945 C195 1.416 . S
C937 C143 1.501 . S
C969 C93 1.467 . S
C977 C224 1.397 . S
C1001 C164 1.417 . S
C1009 C256 1.435 . S
C1041 C291 1.428 . S
C1033 C117 1.475 . S
C1065 C135 1.444 . S
C1073 C191 1.388 . S
C1097 C40 1.406 . S
C1105 C294 1.377 . S
C1129 C156 1.473 . S
C1137 C262 1.387 . S
C1169 C223 1.410 . S
C1161 C82 1.453 . S
C1201 C295 1.581 . S
C1193 C138 1.490 1_556 S
C1233 C263 1.579 . S
C1225 C38 1.508 . S
C1265 C222 1.557 . S
C1257 C159 1.484 . S
C1297 C190 1.564 . S
C1289 C80 1.471 . S
