# Generated by pormake.
# Topology nom, (4,4)-cn, num edge types: 1
# Building blocks:
#     Node 0, Type 0, BuildingBlock: NAWXER_clean_linker_0, # of connection points: 4
#     Node 1, Type 0, BuildingBlock: NAWXER_clean_linker_0, # of connection points: 4
#     Node 2, Type 0, BuildingBlock: NAWXER_clean_linker_0, # of connection points: 4
#     Node 3, Type 0, BuildingBlock: NAWXER_clean_linker_0, # of connection points: 4
#     Node 4, Type 0, BuildingBlock: NAWXER_clean_linker_0, # of connection points: 4
#     Node 5, Type 0, BuildingBlock: NAWXER_clean_linker_0, # of connection points: 4
#     Node 6, Type 1, BuildingBlock: KUFVIS_clean_sbu_0, # of connection points: 4
#     Node 7, Type 1, BuildingBlock: KUFVIS_clean_sbu_0, # of connection points: 4
#     Node 8, Type 1, BuildingBlock: KUFVIS_clean_sbu_0, # of connection points: 4
#     Node 9, Type 1, BuildingBlock: KUFVIS_clean_sbu_0, # of connection points: 4
#     Node 10, Type 1, BuildingBlock: KUFVIS_clean_sbu_0, # of connection points: 4
#     Node 11, Type 1, BuildingBlock: KUFVIS_clean_sbu_0, # of connection points: 4
#     Edge 12, Type (0, 1), BuildingBlock: AJUNOK_clean_linker_0, # of connection points: 2
#     Edge 13, Type (0, 1), BuildingBlock: AJUNOK_clean_linker_0, # of connection points: 2
#     Edge 14, Type (0, 1), BuildingBlock: AJUNOK_clean_linker_0, # of connection points: 2
#     Edge 15, Type (0, 1), BuildingBlock: AJUNOK_clean_linker_0, # of connection points: 2
#     Edge 16, Type (0, 1), BuildingBlock: AJUNOK_clean_linker_0, # of connection points: 2
#     Edge 17, Type (0, 1), BuildingBlock: AJUNOK_clean_linker_0, # of connection points: 2
#     Edge 18, Type (0, 1), BuildingBlock: AJUNOK_clean_linker_0, # of connection points: 2
#     Edge 19, Type (0, 1), BuildingBlock: AJUNOK_clean_linker_0, # of connection points: 2
#     Edge 20, Type (0, 1), BuildingBlock: AJUNOK_clean_linker_0, # of connection points: 2
#     Edge 21, Type (0, 1), BuildingBlock: AJUNOK_clean_linker_0, # of connection points: 2
#     Edge 22, Type (0, 1), BuildingBlock: AJUNOK_clean_linker_0, # of connection points: 2
#     Edge 23, Type (0, 1), BuildingBlock: AJUNOK_clean_linker_0, # of connection points: 2
#     Edge 24, Type (0, 1), BuildingBlock: AJUNOK_clean_linker_0, # of connection points: 2
#     Edge 25, Type (0, 1), BuildingBlock: AJUNOK_clean_linker_0, # of connection points: 2
#     Edge 26, Type (0, 1), BuildingBlock: AJUNOK_clean_linker_0, # of connection points: 2
#     Edge 27, Type (0, 1), BuildingBlock: AJUNOK_clean_linker_0, # of connection points: 2
#     Edge 28, Type (0, 1), BuildingBlock: AJUNOK_clean_linker_0, # of connection points: 2
#     Edge 29, Type (0, 1), BuildingBlock: AJUNOK_clean_linker_0, # of connection points: 2
#     Edge 30, Type (0, 1), BuildingBlock: AJUNOK_clean_linker_0, # of connection points: 2
#     Edge 31, Type (0, 1), BuildingBlock: AJUNOK_clean_linker_0, # of connection points: 2
#     Edge 32, Type (0, 1), BuildingBlock: AJUNOK_clean_linker_0, # of connection points: 2
#     Edge 33, Type (0, 1), BuildingBlock: AJUNOK_clean_linker_0, # of connection points: 2
#     Edge 34, Type (0, 1), BuildingBlock: AJUNOK_clean_linker_0, # of connection points: 2
#     Edge 35, Type (0, 1), BuildingBlock: AJUNOK_clean_linker_0, # of connection points: 2
# Relax obj value: 0.005
# Max RMSD: 0.111
# Mean RMSD: 0.070
data_MOF--net-nom--node1-KUFVIS_clean_sbu_0--node2-NAWXER_clean_linker_0--edge1-AJUNOK_clean_linker_0
_symmetry_space_group_name_H-M    P1
_symmetry_Int_Tables_number       1
_symmetry_cell_setting            triclinic
loop_
_symmetry_equiv_pos_as_xyz
'x, y, z'
_cell_length_a     40.280079
_cell_length_b     40.792996
_cell_length_c     44.775496
_cell_angle_alpha  90.592112
_cell_angle_beta   90.735729
_cell_angle_gamma 119.98719
loop_
_atom_site_label
_atom_site_type_symbol
_atom_site_fract_x
_atom_site_fract_y
_atom_site_fract_z
_atom_type_partial_charge
C0 C 0.86748 0.49705 0.3372 0.0
C1 C 0.85482 0.47257 0.36145 0.0
C2 C 0.90504 0.51212 0.32733 0.0
C3 C 0.93034 0.50219 0.34107 0.0
C4 C 0.87963 0.46209 0.37496 0.0
C5 C 0.91701 0.47664 0.36478 0.0
C6 C 0.97171 0.52174 0.33369 0.0
C7 C 0.91637 0.46549 0.2449 0.0
C8 C 0.91626 0.49125 0.22424 0.0
C9 C 0.93812 0.47842 0.27138 0.0
C10 C 0.96052 0.51733 0.27754 0.0
C11 C 0.93798 0.53025 0.23106 0.0
C12 C 0.96051 0.54316 0.25717 0.0
C13 C 0.98553 0.53116 0.30441 0.0
C14 C 0.15595 0.59602 0.31769 0.0
C15 C 0.16853 0.62767 0.2993 0.0
C16 C 0.11747 0.5752 0.32588 0.0
C17 C 0.09102 0.58585 0.31596 0.0
C18 C 0.1418 0.6378 0.2891 0.0
C19 C 0.10347 0.61701 0.29721 0.0
C20 C 0.04994 0.56384 0.32347 0.0
C21 C 0.11533 0.61228 0.41016 0.0
C22 C 0.10649 0.58597 0.43294 0.0
C23 C 0.09252 0.60231 0.38417 0.0
C24 C 0.0613 0.56537 0.38006 0.0
C25 C 0.07436 0.54971 0.42953 0.0
C26 C 0.05214 0.53942 0.40325 0.0
C27 C 0.03628 0.55389 0.35286 0.0
H28 H 0.84898 0.50617 0.32699 0.0
H29 H 0.91468 0.5331 0.31007 0.0
H30 H 0.87047 0.44363 0.394 0.0
H31 H 0.93594 0.46886 0.37609 0.0
H32 H 0.90003 0.4353 0.24048 0.0
H33 H 0.93813 0.45808 0.28674 0.0
H34 H 0.9374 0.55091 0.21642 0.0
H35 H 0.97754 0.57333 0.26171 0.0
H36 H 0.1757 0.58704 0.32537 0.0
H37 H 0.10831 0.55062 0.33969 0.0
H38 H 0.15065 0.66213 0.27503 0.0
H39 H 0.08352 0.62554 0.28906 0.0
H40 H 0.13955 0.64073 0.4127 0.0
H41 H 0.09913 0.62366 0.36753 0.0
H42 H 0.06673 0.5292 0.44705 0.0
H43 H 0.02779 0.51101 0.401 0.0
N44 N 0.99773 0.53327 0.35666 0.0
N45 N 0.02394 0.55208 0.30048 0.0
C46 C 0.3825 0.88547 0.51616 0.0
C47 C 0.39899 0.86845 0.53331 0.0
C48 C 0.40516 0.92244 0.5061 0.0
C49 C 0.4445 0.94285 0.5133 0.0
C50 C 0.43825 0.88892 0.54059 0.0
C51 C 0.46075 0.92607 0.531 0.0
C52 C 0.46838 0.98243 0.50418 0.0
C53 C 0.44453 0.90934 0.42063 0.0
C54 C 0.44475 0.92514 0.39275 0.0
C55 C 0.45543 0.93141 0.4469 0.0
C56 C 0.46387 0.96936 0.4467 0.0
C57 C 0.45606 0.96379 0.39224 0.0
C58 C 0.46421 0.98508 0.4187 0.0
C59 C 0.47549 0.99459 0.47414 0.0
C60 C 0.58108 0.16387 0.48425 0.0
C61 C 0.56185 0.17483 0.46371 0.0
C62 C 0.564 0.12633 0.49376 0.0
C63 C 0.52718 0.09934 0.48318 0.0
C64 C 0.52509 0.14765 0.45321 0.0
C65 C 0.50814 0.11031 0.46263 0.0
C66 C 0.50836 0.05921 0.49204 0.0
C67 C 0.52342 0.12712 0.57696 0.0
C68 C 0.53761 0.11673 0.6017 0.0
C69 C 0.51169 0.1046 0.55089 0.0
C70 C 0.51566 0.07227 0.5487 0.0
C71 C 0.54023 0.08381 0.6 0.0
C72 C 0.52968 0.06199 0.5737 0.0
C73 C 0.50252 0.04686 0.52186 0.0
H74 H 0.3522 0.87 0.51034 0.0
H75 H 0.39203 0.93519 0.49289 0.0
H76 H 0.45138 0.87623 0.55388 0.0
H77 H 0.49096 0.94161 0.5371 0.0
H78 H 0.43639 0.87984 0.4224 0.0
H79 H 0.45802 0.91827 0.46682 0.0
H80 H 0.45951 0.97826 0.37144 0.0
H81 H 0.4717 0.01443 0.41691 0.0
H82 H 0.60945 0.18424 0.49272 0.0
H83 H 0.57954 0.11835 0.5092 0.0
H84 H 0.5091 0.15537 0.43801 0.0
H85 H 0.47975 0.08998 0.45412 0.0
H86 H 0.5207 0.15221 0.57806 0.0
H87 H 0.499 0.11225 0.53278 0.0
H88 H 0.55077 0.07515 0.61893 0.0
H89 H 0.53241 0.03689 0.57295 0.0
N90 N 0.48273 0.00898 0.52652 0.0
N91 N 0.49484 0.03262 0.46973 0.0
C92 C 0.57132 0.48144 0.58159 0.0
C93 C 0.54493 0.45717 0.55957 0.0
C94 C 0.55884 0.49227 0.60681 0.0
C95 C 0.51974 0.47952 0.61043 0.0
C96 C 0.50578 0.44486 0.56313 0.0
C97 C 0.49337 0.45623 0.58818 0.0
C98 C 0.50658 0.49175 0.63679 0.0
C99 C 0.53782 0.40792 0.67158 0.0
C100 C 0.56569 0.42077 0.69463 0.0
C101 C 0.5226 0.43026 0.662 0.0
C102 C 0.53562 0.46642 0.67475 0.0
C103 C 0.57871 0.45682 0.70749 0.0
C104 C 0.56373 0.47939 0.69768 0.0
C105 C 0.51727 0.48897 0.66643 0.0
C106 C 0.4295 0.53786 0.74377 0.0
C107 C 0.45895 0.56284 0.76357 0.0
C108 C 0.43819 0.52513 0.71746 0.0
C109 C 0.47651 0.53755 0.71041 0.0
C110 C 0.49726 0.57587 0.75604 0.0
C111 C 0.50591 0.56304 0.72987 0.0
C112 C 0.48635 0.52228 0.68402 0.0
C113 C 0.43184 0.58857 0.64908 0.0
C114 C 0.40161 0.56834 0.62842 0.0
C115 C 0.45567 0.57428 0.65774 0.0
C116 C 0.4488 0.53899 0.64654 0.0
C117 C 0.39505 0.53339 0.61704 0.0
C118 C 0.41838 0.51889 0.626 0.0
C119 C 0.47376 0.52312 0.65455 0.0
H120 H 0.60177 0.49255 0.57923 0.0
H121 H 0.57984 0.51111 0.62331 0.0
H122 H 0.48463 0.4261 0.5467 0.0
H123 H 0.46307 0.44634 0.59042 0.0
H124 H 0.52689 0.38 0.66159 0.0
H125 H 0.49975 0.4186 0.64529 0.0
H126 H 0.6004 0.46749 0.72516 0.0
H127 H 0.57391 0.50691 0.70819 0.0
H128 H 0.39972 0.52719 0.74913 0.0
H129 H 0.41501 0.5049 0.70304 0.0
H130 H 0.52055 0.59566 0.7706 0.0
H131 H 0.53565 0.5729 0.72485 0.0
H132 H 0.43755 0.61576 0.6579 0.0
H133 H 0.47972 0.59113 0.67276 0.0
H134 H 0.37173 0.51721 0.60121 0.0
H135 H 0.41254 0.49177 0.61686 0.0
N136 N 0.48472 0.50807 0.6321 0.0
N137 N 0.50734 0.50502 0.68878 0.0
C138 C 0.87401 0.39776 0.82002 0.0
C139 C 0.8555 0.40838 0.79869 0.0
C140 C 0.91206 0.42243 0.82846 0.0
C141 C 0.93241 0.45863 0.81615 0.0
C142 C 0.87561 0.4447 0.78648 0.0
C143 C 0.91389 0.46956 0.79503 0.0
C144 C 0.97389 0.48302 0.82317 0.0
C145 C 0.91654 0.47962 0.90988 0.0
C146 C 0.91879 0.45508 0.93066 0.0
C147 C 0.93888 0.48998 0.88425 0.0
C148 C 0.96451 0.47672 0.87924 0.0
C149 C 0.94438 0.4417 0.92529 0.0
C150 C 0.96735 0.45282 0.9001 0.0
C151 C 0.98892 0.48814 0.85257 0.0
C152 C 0.16115 0.57586 0.83685 0.0
C153 C 0.17055 0.55457 0.85615 0.0
C154 C 0.12277 0.56378 0.8295 0.0
C155 C 0.09323 0.52981 0.84087 0.0
C156 C 0.14087 0.52097 0.86779 0.0
C157 C 0.1027 0.50881 0.86029 0.0
C158 C 0.05225 0.51587 0.83364 0.0
C159 C 0.10846 0.5202 0.74599 0.0
C160 C 0.10607 0.54471 0.72533 0.0
C161 C 0.08624 0.50975 0.77165 0.0
C162 C 0.06164 0.52412 0.77741 0.0
C163 C 0.08131 0.5589 0.73107 0.0
C164 C 0.05909 0.54844 0.75674 0.0
C165 C 0.03744 0.51283 0.80425 0.0
H166 H 0.85927 0.36988 0.82965 0.0
H167 H 0.92594 0.41251 0.84383 0.0
H168 H 0.86223 0.4533 0.76954 0.0
H169 H 0.92922 0.49705 0.78481 0.0
H170 H 0.89819 0.49152 0.91367 0.0
H171 H 0.9367 0.50896 0.86863 0.0
H172 H 0.94667 0.42248 0.94057 0.0
H173 H 0.9869 0.44221 0.89662 0.0
H174 H 0.18343 0.60169 0.8273 0.0
H175 H 0.11624 0.58102 0.81505 0.0
H176 H 0.14715 0.5042 0.883 0.0
H177 H 0.08047 0.48269 0.86956 0.0
H178 H 0.1276 0.50915 0.74235 0.0
H179 H 0.08813 0.4903 0.7869 0.0
H180 H 0.07869 0.5776 0.71544 0.0
H181 H 0.04001 0.55954 0.76057 0.0
N182 N 0.99875 0.49625 0.80016 0.0
N183 N 0.02737 0.50368 0.85662 0.0
C184 C 0.48244 0.88037 0.98674 0.0
C185 C 0.45358 0.86381 0.96451 0.0
C186 C 0.498 0.91844 0.9948 0.0
C187 C 0.48438 0.94054 0.98131 0.0
C188 C 0.4408 0.8861 0.95024 0.0
C189 C 0.45608 0.9242 0.9586 0.0
C190 C 0.5016 0.98122 0.98939 0.0
C191 C 0.44679 0.9169 0.07277 0.0
C192 C 0.47127 0.9264 0.0979 0.0
C193 C 0.45893 0.93921 0.04723 0.0
C194 C 0.4963 0.97066 0.046 0.0
C195 C 0.5082 0.95815 0.09697 0.0
C196 C 0.5206 0.97998 0.0713 0.0
C197 C 0.51 0.99515 0.01926 0.0
C198 C 0.59479 0.16604 1.00541 0.0
C199 C 0.6252 0.17461 0.02564 0.0
C200 C 0.56831 0.12834 0.99762 0.0
C201 C 0.57232 0.09867 0.00946 0.0
C202 C 0.62841 0.14479 0.038 0.0
C203 C 0.60226 0.10731 0.03005 0.0
C204 C 0.5456 0.05841 1.00137 0.0
C205 C 0.59903 0.11615 0.91481 0.0
C206 C 0.57188 0.11522 0.89424 0.0
C207 C 0.58723 0.09339 0.94007 0.0
C208 C 0.54804 0.06932 0.94525 0.0
C209 C 0.53271 0.09066 0.89925 0.0
C210 C 0.52094 0.06779 0.92442 0.0
C211 C 0.53502 0.04463 0.97164 0.0
H212 H 0.49351 0.86401 0.99746 0.0
H213 H 0.52104 0.93069 0.01138 0.0
H214 H 0.41885 0.87396 0.9328 0.0
H215 H 0.44571 0.94088 0.94743 0.0
H216 H 0.41802 0.89276 0.07316 0.0
H217 H 0.43891 0.93204 0.02863 0.0
H218 H 0.52758 0.96596 0.11611 0.0
H219 H 0.54938 1.00414 0.07122 0.0
H220 H 0.59175 0.18843 0.99532 0.0
H221 H 0.54486 0.12246 0.98233 0.0
H222 H 0.6512 0.15044 0.05395 0.0
H223 H 0.6058 0.08499 0.03975 0.0
H224 H 0.6294 0.1346 0.9114 0.0
H225 H 0.60872 0.09443 0.95546 0.0
H226 H 0.51118 0.08868 0.88343 0.0
H227 H 0.4906 0.04902 0.92774 0.0
N228 N 0.51364 0.00655 0.96684 0.0
N229 N 0.53229 0.03313 0.02388 0.0
C230 C 0.51778 0.65755 0.18408 0.0
C231 C 0.48236 0.64463 0.19809 0.0
C232 C 0.52992 0.6322 0.17557 0.0
C233 C 0.50719 0.59351 0.18132 0.0
C234 C 0.45955 0.60562 0.20347 0.0
C235 C 0.47229 0.58047 0.19582 0.0
C236 C 0.51989 0.56675 0.17225 0.0
C237 C 0.47226 0.5932 0.08959 0.0
C238 C 0.48817 0.59312 0.06179 0.0
C239 C 0.4828 0.58133 0.11538 0.0
C240 C 0.51212 0.57205 0.11497 0.0
C241 C 0.51537 0.58111 0.06092 0.0
C242 C 0.52795 0.57194 0.08708 0.0
C243 C 0.52481 0.55929 0.14205 0.0
C244 C 0.5856 0.45093 0.15024 0.0
C245 C 0.61688 0.46961 0.13111 0.0
C246 C 0.56533 0.46863 0.15981 0.0
C247 C 0.57598 0.50523 0.15031 0.0
C248 C 0.62693 0.50596 0.12132 0.0
C249 C 0.60657 0.52345 0.13068 0.0
C250 C 0.55471 0.52452 0.1592 0.0
C251 C 0.60897 0.51275 0.24483 0.0
C252 C 0.58206 0.49179 0.26664 0.0
C253 C 0.59788 0.52474 0.21931 0.0
C254 C 0.55964 0.51599 0.21513 0.0
C255 C 0.5439 0.48329 0.26248 0.0
C256 C 0.53289 0.49547 0.23707 0.0
C257 C 0.54768 0.53011 0.18908 0.0
H258 H 0.53635 0.68735 0.17988 0.0
H259 H 0.55715 0.64279 0.16464 0.0
H260 H 0.43154 0.59427 0.21318 0.0
H261 H 0.4543 0.55063 0.20027 0.0
H262 H 0.45103 0.6019 0.09164 0.0
H263 H 0.46669 0.57863 0.13507 0.0
H264 H 0.52664 0.57784 0.04002 0.0
H265 H 0.54966 0.56382 0.08514 0.0
H266 H 0.57659 0.42254 0.1576 0.0
H267 H 0.54115 0.45361 0.17429 0.0
H268 H 0.65101 0.52119 0.10677 0.0
H269 H 0.61509 0.55158 0.12287 0.0
H270 H 0.63862 0.51992 0.24759 0.0
H271 H 0.61932 0.54143 0.20313 0.0
H272 H 0.52273 0.46791 0.27921 0.0
H273 H 0.50339 0.4889 0.23457 0.0
N274 N 0.53072 0.55121 0.19439 0.0
N275 N 0.54262 0.5389 0.13714 0.0
Mn276 Mn 0.62488 0.39097 0.42041 0.0
Mn277 Mn 0.67129 0.48427 0.43706 0.0
C278 C 0.59872 0.41518 0.45382 0.0
C279 C 0.61487 0.33044 0.42983 0.0
C280 C 0.62768 0.45071 0.37832 0.0
O281 O 0.67895 0.4094 0.40535 0.0
O282 O 0.70888 0.4697 0.42283 0.0
C283 C 0.71635 0.48323 0.48946 0.0
N284 N 0.69109 0.49246 0.47716 0.0
C285 C 0.6855 0.51868 0.52395 0.0
C286 C 0.71247 0.51061 0.53685 0.0
C287 C 0.7277 0.4925 0.51958 0.0
C288 C 0.67544 0.50891 0.49379 0.0
H289 H 0.72726 0.4684 0.47649 0.0
C290 C 0.7091 0.44156 0.40998 0.0
O291 O 0.60643 0.33889 0.40399 0.0
O292 O 0.63009 0.35747 0.44979 0.0
N293 N 0.63848 0.50218 0.45134 0.0
C294 C 0.61167 0.50661 0.43586 0.0
C295 C 0.59254 0.52298 0.45025 0.0
C296 C 0.60139 0.53492 0.48028 0.0
C297 C 0.62944 0.53051 0.49563 0.0
C298 C 0.64774 0.51427 0.48007 0.0
H299 H 0.60486 0.4977 0.41274 0.0
O300 O 0.57714 0.38258 0.44073 0.0
O301 O 0.63469 0.4321 0.44708 0.0
O302 O 0.61405 0.41607 0.38512 0.0
O303 O 0.65066 0.47823 0.39559 0.0
C304 C 0.63969 0.5413 0.52583 0.0
C305 C 0.66764 0.5353 0.54 0.0
H306 H 0.72107 0.51747 0.56014 0.0
H307 H 0.74788 0.48542 0.52953 0.0
H308 H 0.57099 0.52635 0.43823 0.0
H309 H 0.58638 0.54727 0.49137 0.0
H310 H 0.62591 0.55379 0.53847 0.0
H311 H 0.67485 0.54317 0.56336 0.0
Mn312 Mn 0.25022 0.65116 0.57577 0.0
Mn313 Mn 0.20847 0.55866 0.5569 0.0
C314 C 0.20078 0.62544 0.54053 0.0
C315 C 0.29902 0.71304 0.56772 0.0
C316 C 0.19445 0.58805 0.6156 0.0
O317 O 0.28774 0.63561 0.59221 0.0
O318 O 0.26176 0.57659 0.57206 0.0
C319 C 0.25577 0.56205 0.50565 0.0
N320 N 0.22091 0.5523 0.51695 0.0
C321 C 0.18967 0.52613 0.46941 0.0
C322 C 0.22526 0.53554 0.45739 0.0
C323 C 0.25848 0.55374 0.47558 0.0
C324 C 0.18879 0.53509 0.49957 0.0
H325 H 0.28123 0.57612 0.51949 0.0
C326 C 0.28844 0.60523 0.58648 0.0
O327 O 0.28123 0.70361 0.59294 0.0
O328 O 0.28909 0.68642 0.54773 0.0
N329 N 0.15709 0.53823 0.54162 0.0
C330 C 0.12502 0.53148 0.55649 0.0
C331 C 0.08937 0.51392 0.54132 0.0
C332 C 0.08699 0.50318 0.51111 0.0
C333 C 0.12028 0.51001 0.49636 0.0
C334 C 0.15497 0.52747 0.51267 0.0
H335 H 0.12656 0.53947 0.57973 0.0
O336 O 0.20979 0.65713 0.55408 0.0
O337 O 0.22132 0.61025 0.54778 0.0
O338 O 0.21338 0.62325 0.60966 0.0
O339 O 0.19284 0.56231 0.59807 0.0
C340 C 0.12042 0.50034 0.46608 0.0
C341 C 0.15512 0.50856 0.45258 0.0
H342 H 0.22745 0.52929 0.43417 0.0
H343 H 0.28612 0.5614 0.46644 0.0
H344 H 0.0638 0.50869 0.55288 0.0
H345 H 0.05947 0.48982 0.49945 0.0
H346 H 0.09403 0.48667 0.45292 0.0
H347 H 0.15491 0.50132 0.42921 0.0
Mn348 Mn 0.62013 0.26128 0.74249 0.0
Mn349 Mn 0.66465 0.21168 0.72785 0.0
C350 C 0.59291 0.21079 0.70883 0.0
C351 C 0.61106 0.31236 0.73215 0.0
C352 C 0.62067 0.20279 0.78474 0.0
O353 O 0.67448 0.29623 0.75836 0.0
O354 O 0.70221 0.26243 0.74467 0.0
C355 C 0.71393 0.25855 0.67911 0.0
N356 N 0.68649 0.22433 0.68912 0.0
C357 C 0.68207 0.19442 0.64148 0.0
C358 C 0.71045 0.2293 0.63071 0.0
C359 C 0.72636 0.26152 0.64959 0.0
C360 C 0.67077 0.19322 0.67108 0.0
H361 H 0.72619 0.2834 0.69353 0.0
C362 C 0.70376 0.29212 0.75612 0.0
O363 O 0.60267 0.29617 0.75796 0.0
O364 O 0.62547 0.29937 0.7128 0.0
N365 N 0.63183 0.16215 0.71113 0.0
C366 C 0.60414 0.13085 0.72476 0.0
C367 C 0.58516 0.09623 0.70885 0.0
C368 C 0.59506 0.09408 0.67923 0.0
C369 C 0.62397 0.12657 0.66579 0.0
C370 C 0.64207 0.16021 0.68282 0.0
H371 H 0.59653 0.13227 0.74758 0.0
O372 O 0.57188 0.2226 0.72143 0.0
O373 O 0.62907 0.22898 0.71625 0.0
O374 O 0.60935 0.22605 0.77803 0.0
O375 O 0.64208 0.19616 0.76782 0.0
C376 C 0.63543 0.12695 0.63613 0.0
C377 C 0.66427 0.1609 0.62392 0.0
H378 H 0.72009 0.23171 0.60794 0.0
H379 H 0.74816 0.28857 0.6414 0.0
H380 H 0.56292 0.07127 0.71939 0.0
H381 H 0.58025 0.06735 0.66702 0.0
H382 H 0.62209 0.10135 0.62243 0.0
H383 H 0.67248 0.16092 0.60098 0.0
Mn384 Mn 0.40367 0.65081 0.91941 0.0
Mn385 Mn 0.36437 0.55684 0.92984 0.0
C386 C 0.43104 0.62885 0.95356 0.0
C387 C 0.40911 0.70927 0.93079 0.0
C388 C 0.41368 0.59667 0.87717 0.0
O389 O 0.35038 0.63021 0.90168 0.0
O390 O 0.32762 0.56794 0.9079 0.0
C391 C 0.3035 0.54773 0.97108 0.0
N392 N 0.33419 0.54346 0.96502 0.0
C393 C 0.32927 0.51385 0.01225 0.0
C394 C 0.29742 0.51766 0.01886 0.0
C395 C 0.28455 0.53476 0.99821 0.0
C396 C 0.34678 0.527 0.98473 0.0
H397 H 0.29353 0.56095 0.95535 0.0
C398 C 0.32398 0.59576 0.89883 0.0
O399 O 0.41947 0.70259 0.90513 0.0
O400 O 0.39461 0.68159 0.94937 0.0
N401 N 0.39574 0.54157 0.95127 0.0
C402 C 0.42897 0.54342 0.94288 0.0
C403 C 0.4468 0.52926 0.96171 0.0
C404 C 0.43011 0.51306 0.98896 0.0
C405 C 0.3958 0.51132 0.99715 0.0
C406 C 0.37926 0.52577 0.97735 0.0
H407 H 0.44203 0.55625 0.92225 0.0
O408 O 0.45127 0.6618 0.9417 0.0
O409 O 0.3952 0.60933 0.94488 0.0
O410 O 0.41826 0.62926 0.88345 0.0
O411 O 0.3953 0.56772 0.89345 0.0
C412 C 0.3781 0.49707 0.02464 0.0
C413 C 0.34486 0.49834 0.03219 0.0
H414 H 0.2829 0.50795 0.03986 0.0
H415 H 0.26012 0.53801 1.00323 0.0
H416 H 0.47349 0.53108 0.95534 0.0
H417 H 0.4442 0.50259 1.00363 0.0
H418 H 0.39028 0.48581 0.04042 0.0
H419 H 0.33192 0.48793 0.05363 0.0
Mn420 Mn 0.77105 0.40668 0.08267 0.0
Mn421 Mn 0.82238 0.36364 0.09663 0.0
C422 C 0.82232 0.43361 0.11601 0.0
C423 C 0.71982 0.41584 0.09435 0.0
C424 C 0.83219 0.4089 0.04092 0.0
O425 O 0.73565 0.35339 0.06674 0.0
O426 O 0.77251 0.32755 0.07658 0.0
C427 C 0.77082 0.31056 0.14167 0.0
N428 N 0.80626 0.33865 0.13397 0.0
C429 C 0.8321 0.33947 0.18292 0.0
C430 C 0.79594 0.31037 0.19129 0.0
C431 C 0.76515 0.29593 0.17058 0.0
C432 C 0.83602 0.35292 0.15379 0.0
H433 H 0.74701 0.29945 0.12589 0.0
C434 C 0.74166 0.32554 0.0663 0.0
O435 O 0.73531 0.42411 0.06818 0.0
O436 O 0.73327 0.40112 0.11298 0.0
N437 N 0.87099 0.39467 0.11637 0.0
C438 C 0.90381 0.42337 0.1051 0.0
C439 C 0.93729 0.44103 0.12303 0.0
C440 C 0.93675 0.42896 0.15236 0.0
C441 C 0.90277 0.39909 0.16339 0.0
C442 C 0.8704 0.3823 0.14436 0.0
H443 H 0.90426 0.43314 0.08279 0.0
O444 O 0.81028 0.4543 0.10338 0.0
O445 O 0.804 0.39783 0.10873 0.0
O446 O 0.80619 0.41721 0.04666 0.0
O447 O 0.84117 0.38974 0.05834 0.0
C448 C 0.89968 0.38554 0.19262 0.0
C449 C 0.86432 0.35589 0.20244 0.0
H450 H 0.79143 0.29906 0.21359 0.0
H451 H 0.7371 0.27361 0.17692 0.0
H452 H 0.96337 0.46414 0.11436 0.0
H453 H 0.9625 0.44295 0.16625 0.0
H454 H 0.92423 0.39799 0.20783 0.0
H455 H 0.86218 0.34605 0.22509 0.0
Mn456 Mn 0.38469 0.78106 0.25127 0.0
Mn457 Mn 0.48048 0.83697 0.26123 0.0
C458 C 0.40889 0.83235 0.28394 0.0
C459 C 0.3255 0.72948 0.26384 0.0
C460 C 0.43724 0.84237 0.2076 0.0
O461 O 0.40463 0.74745 0.23572 0.0
O462 O 0.46825 0.78818 0.24091 0.0
C463 C 0.49252 0.78916 0.30445 0.0
N464 N 0.4959 0.82307 0.29732 0.0
C465 C 0.52689 0.85064 0.34466 0.0
C466 C 0.52388 0.81606 0.35241 0.0
C467 C 0.50657 0.78518 0.33222 0.0
C468 C 0.51267 0.85302 0.31654 0.0
H469 H 0.47923 0.76531 0.28909 0.0
C470 C 0.43951 0.75609 0.23295 0.0
O471 O 0.33132 0.74428 0.23754 0.0
O472 O 0.35459 0.7437 0.28235 0.0
N473 N 0.49672 0.88454 0.2812 0.0
C474 C 0.4951 0.91513 0.27124 0.0
C475 C 0.50962 0.9479 0.28935 0.0
C476 C 0.52618 0.94909 0.31741 0.0
C477 C 0.52815 0.9175 0.32704 0.0
C478 C 0.51325 0.88565 0.30795 0.0
H479 H 0.4826 0.91437 0.24974 0.0
O480 O 0.37503 0.81887 0.27178 0.0
O481 O 0.4281 0.8158 0.27622 0.0
O482 O 0.40462 0.81454 0.21419 0.0
O483 O 0.46738 0.85409 0.22399 0.0
C484 C 0.54331 0.91599 0.35519 0.0
C485 C 0.54268 0.88258 0.36399 0.0
H486 H 0.53443 0.81279 0.37391 0.0
H487 H 0.50399 0.75834 0.33809 0.0
H488 H 0.50797 0.97214 0.28173 0.0
H489 H 0.53702 0.97427 0.33147 0.0
H490 H 0.55491 0.94013 0.37046 0.0
H491 H 0.55387 0.88157 0.38587 0.0
C492 C 0.21824 0.6608 0.26055 0.0
C493 C 0.20931 0.65043 0.29051 0.0
C494 C 0.25606 0.68513 0.25199 0.0
C495 C 0.28659 0.70015 0.27304 0.0
H496 H 0.19566 0.65047 0.24359 0.0
H497 H 0.26121 0.69291 0.22875 0.0
S498 S 0.27859 0.68085 0.35436 0.0
N499 N 0.23411 0.65637 0.34124 0.0
N500 N 0.30531 0.70167 0.32522 0.0
C501 C 0.27822 0.68895 0.30298 0.0
C502 C 0.23959 0.6642 0.31168 0.0
C503 C 0.59418 0.24442 0.47543 0.0
C504 C 0.57911 0.21476 0.45404 0.0
C505 C 0.60689 0.28189 0.46719 0.0
C506 C 0.60498 0.2912 0.43723 0.0
H507 H 0.59484 0.23847 0.49888 0.0
H508 H 0.61713 0.3035 0.48466 0.0
S509 S 0.5724 0.22448 0.37218 0.0
N510 N 0.56648 0.19766 0.40126 0.0
N511 N 0.5898 0.2679 0.38579 0.0
C512 C 0.59156 0.26202 0.41544 0.0
C513 C 0.57875 0.22388 0.42384 0.0
C514 C 0.35388 0.58936 0.63829 0.0
C515 C 0.37691 0.58342 0.61808 0.0
C516 C 0.3264 0.5985 0.62803 0.0
C517 C 0.32141 0.60211 0.59734 0.0
H518 H 0.35588 0.58517 0.66195 0.0
H519 H 0.30781 0.60105 0.64402 0.0
S520 S 0.3788 0.59535 0.53609 0.0
N521 N 0.39573 0.58574 0.5665 0.0
N522 N 0.34473 0.60359 0.5474 0.0
C523 C 0.34591 0.5986 0.57724 0.0
C524 C 0.37357 0.5891 0.58758 0.0
C525 C 0.80935 0.34403 0.77843 0.0
C526 C 0.81652 0.38006 0.7876 0.0
C527 C 0.77296 0.31614 0.76837 0.0
C528 C 0.7419 0.3229 0.7671 0.0
H529 H 0.83222 0.33734 0.77886 0.0
H530 H 0.7693 0.28892 0.76164 0.0
S531 S 0.74585 0.41302 0.78878 0.0
N532 N 0.78995 0.42138 0.79496 0.0
N533 N 0.72119 0.36898 0.77588 0.0
C534 C 0.74874 0.35904 0.77615 0.0
C535 C 0.78611 0.3876 0.78634 0.0
C536 C 0.44031 0.81366 0.92599 0.0
C537 C 0.43805 0.8236 0.95572 0.0
C538 C 0.42975 0.77632 0.91792 0.0
C539 C 0.41618 0.74753 0.93925 0.0
H540 H 0.45171 0.83518 0.90908 0.0
H541 H 0.43312 0.77022 0.89491 0.0
S542 S 0.40147 0.75877 0.01965 0.0
N543 N 0.41892 0.80166 1.00614 0.0
N544 N 0.3987 0.73143 0.99116 0.0
C545 C 0.41215 0.75694 0.96884 0.0
C546 C 0.42323 0.795 0.97703 0.0
C547 C 0.65055 0.45355 0.09171 0.0
C548 C 0.63991 0.45208 0.12172 0.0
C549 C 0.67534 0.44059 0.08281 0.0
C550 C 0.69042 0.42555 0.10357 0.0
H551 H 0.64011 0.4654 0.07499 0.0
H552 H 0.68335 0.44314 0.05959 0.0
S553 S 0.67087 0.41482 0.1849 0.0
N554 N 0.64608 0.43412 0.17216 0.0
N555 N 0.69187 0.40899 0.15554 0.0
C556 C 0.679 0.42281 0.13353 0.0
C557 C 0.65394 0.43622 0.14258 0.0
C558 C 0.34756 0.82013 0.56508 0.0
C559 C 0.37533 0.82905 0.54318 0.0
C560 C 0.3241 0.7826 0.57401 0.0
C561 C 0.32715 0.75276 0.56082 0.0
H562 H 0.34383 0.84229 0.5752 0.0
H563 H 0.30252 0.77679 0.59054 0.0
S564 S 0.39653 0.76198 0.50312 0.0
N565 N 0.40574 0.80575 0.50934 0.0
N566 N 0.36114 0.73509 0.52543 0.0
C567 C 0.35533 0.7616 0.53921 0.0
C568 C 0.37957 0.79981 0.53056 0.0
C569 C 0.59386 0.37935 0.68485 0.0
C570 C 0.58021 0.39586 0.70541 0.0
C571 C 0.60494 0.35341 0.69399 0.0
C572 C 0.60237 0.34254 0.72403 0.0
H573 H 0.59557 0.38624 0.66141 0.0
H574 H 0.61464 0.34106 0.67713 0.0
S575 S 0.5693 0.37847 0.78679 0.0
N576 N 0.56551 0.40037 0.75723 0.0
N577 N 0.58619 0.35145 0.77451 0.0
C578 C 0.58955 0.35953 0.74496 0.0
C579 C 0.57855 0.38624 0.73564 0.0
C580 C 0.22385 0.54065 0.86424 0.0
C581 C 0.21101 0.56701 0.86464 0.0
C582 C 0.26069 0.55049 0.87461 0.0
C583 C 0.28637 0.58721 0.88568 0.0
H584 H 0.20505 0.51193 0.85617 0.0
H585 H 0.2689 0.52894 0.87423 0.0
S586 S 0.26668 0.66685 0.89151 0.0
N587 N 0.22678 0.63141 0.87703 0.0
N588 N 0.2963 0.65028 0.89606 0.0
C589 C 0.27423 0.6142 0.88547 0.0
C590 C 0.23654 0.60403 0.87505 0.0
C591 C 0.69332 0.22546 0.03419 0.0
C592 C 0.65415 0.21435 0.03386 0.0
C593 C 0.72129 0.26166 0.04411 0.0
C594 C 0.71136 0.28846 0.05394 0.0
H595 H 0.70246 0.20582 0.02699 0.0
H596 H 0.75098 0.26854 0.04425 0.0
S597 S 0.61269 0.27359 0.05738 0.0
N598 N 0.60674 0.23301 0.04417 0.0
N599 N 0.65939 0.30144 0.06235 0.0
C600 C 0.67233 0.2781 0.05299 0.0
C601 C 0.64374 0.241 0.04305 0.0
C602 C 0.47624 0.70208 0.18799 0.0
C603 C 0.46947 0.67191 0.20687 0.0
C604 C 0.46592 0.72905 0.19625 0.0
C605 C 0.44752 0.72623 0.22326 0.0
H606 H 0.48976 0.70504 0.16667 0.0
H607 H 0.4724 0.75226 0.18145 0.0
S608 S 0.42437 0.6544 0.28131 0.0
N609 N 0.4448 0.64259 0.25481 0.0
N610 N 0.42326 0.69188 0.26909 0.0
C611 C 0.43994 0.69616 0.24211 0.0
C612 C 0.45134 0.66929 0.2342 0.0
C613 C 0.78292 0.43625 0.36098 0.0
C614 C 0.81778 0.46236 0.37508 0.0
C615 C 0.74771 0.42854 0.37302 0.0
C616 C 0.74634 0.44745 0.39911 0.0
H617 H 0.78294 0.42206 0.3404 0.0
H618 H 0.72147 0.40862 0.36125 0.0
S619 S 0.83035 0.51798 0.4444 0.0
N620 N 0.84918 0.50622 0.41665 0.0
N621 N 0.78348 0.49293 0.43884 0.0
C622 C 0.78128 0.47339 0.41343 0.0
C623 C 0.81689 0.48054 0.40152 0.0
C624 C 0.1152 0.59484 0.48841 0.0
C625 C 0.13087 0.59619 0.46024 0.0
C626 C 0.13803 0.60453 0.51454 0.0
C627 C 0.17669 0.6143 0.51328 0.0
H628 H 0.08525 0.58665 0.49019 0.0
H629 H 0.12527 0.60376 0.53586 0.0
S630 S 0.23181 0.62456 0.44499 0.0
N631 N 0.18776 0.61009 0.43255 0.0
N632 N 0.23041 0.62747 0.48173 0.0
C633 C 0.1928 0.61636 0.48527 0.0
C634 C 0.16986 0.6073 0.4587 0.0
C635 C 0.58234 0.17714 0.62853 0.0
C636 C 0.55035 0.1405 0.62918 0.0
C637 C 0.59615 0.19952 0.65464 0.0
C638 C 0.57829 0.186 0.68212 0.0
H639 H 0.59718 0.18824 0.60783 0.0
H640 H 0.621 0.2276 0.65334 0.0
S641 S 0.49202 0.09319 0.69512 0.0
N642 N 0.50034 0.09219 0.65917 0.0
N643 N 0.52565 0.13498 0.70814 0.0
C644 C 0.54546 0.15006 0.68284 0.0
C645 C 0.5318 0.12697 0.65639 0.0
C646 C 0.42344 0.58705 0.794 0.0
C647 C 0.44962 0.57375 0.79268 0.0
C648 C 0.41312 0.59593 0.82149 0.0
C649 C 0.42824 0.59128 0.84855 0.0
H650 H 0.4107 0.59042 0.77364 0.0
H651 H 0.39231 0.60537 0.82165 0.0
S652 S 0.49873 0.55874 0.85735 0.0
N653 N 0.49092 0.55714 0.82094 0.0
N654 N 0.47187 0.57434 0.87234 0.0
C655 C 0.45495 0.57881 0.84752 0.0
C656 C 0.46561 0.56996 0.81964 0.0
C657 C 0.91299 0.44277 0.98563 0.0
C658 C 0.89586 0.44437 0.95849 0.0
C659 C 0.8922 0.43144 0.01199 0.0
C660 C 0.85356 0.42211 0.0127 0.0
H661 H 0.94288 0.45034 0.98663 0.0
H662 H 0.90677 0.43013 0.03199 0.0
S663 S 0.7944 0.42012 0.94779 0.0
N664 N 0.83704 0.43391 0.9338 0.0
N665 N 0.79855 0.41444 0.98385 0.0
C666 C 0.83604 0.42404 0.98592 0.0
C667 C 0.85702 0.43479 0.95877 0.0
C668 C 0.4493 0.86572 0.12525 0.0
C669 C 0.45842 0.90384 0.12545 0.0
C670 C 0.44082 0.84526 0.15189 0.0
C671 C 0.44089 0.86225 0.1794 0.0
H672 H 0.45014 0.85213 0.10458 0.0
H673 H 0.43552 0.81648 0.15113 0.0
S674 S 0.45729 0.95936 0.19105 0.0
N675 N 0.46362 0.95653 0.15494 0.0
N676 N 0.44651 0.91778 0.20465 0.0
C677 C 0.44786 0.89957 0.17954 0.0
C678 C 0.45691 0.92047 0.15262 0.0
C679 C 0.62514 0.50714 0.31178 0.0
C680 C 0.59401 0.48014 0.29427 0.0
C681 C 0.63583 0.49729 0.3387 0.0
C682 C 0.6161 0.45988 0.34916 0.0
H683 H 0.6409 0.53635 0.30492 0.0
H684 H 0.65978 0.51936 0.35143 0.0
S685 S 0.53347 0.37814 0.31048 0.0
N686 N 0.54435 0.41424 0.2885 0.0
N687 N 0.56421 0.39545 0.33897 0.0
C688 C 0.58527 0.43242 0.33143 0.0
C689 C 0.57427 0.44262 0.3041 0.0
C690 C 0.44287 0.87185 0.36223 0.0
C691 C 0.43488 0.90176 0.36445 0.0
C692 C 0.43403 0.84946 0.33623 0.0
C693 C 0.4192 0.8574 0.31058 0.0
H694 H 0.45646 0.86558 0.38053 0.0
H695 H 0.439 0.82571 0.3362 0.0
S696 S 0.38818 0.9286 0.3047 0.0
N697 N 0.40567 0.93417 0.33909 0.0
N698 N 0.39345 0.89461 0.28927 0.0
C699 C 0.4101 0.88632 0.31235 0.0
C700 C 0.41734 0.90815 0.33931 0.0
C701 C 0.54234 0.444 0.50421 0.0
C702 C 0.55823 0.44525 0.53278 0.0
C703 C 0.55516 0.43381 0.47861 0.0
C704 C 0.58515 0.42579 0.48058 0.0
H705 H 0.52032 0.45162 0.50148 0.0
H706 H 0.54229 0.4332 0.45707 0.0
S707 S 0.63199 0.41853 0.54991 0.0
N708 N 0.60206 0.43232 0.56147 0.0
N709 N 0.62722 0.4151 0.51315 0.0
C710 C 0.60025 0.42542 0.50888 0.0
C711 C 0.58671 0.43491 0.535 0.0
C712 C 0.15076 0.59323 0.68949 0.0
C713 C 0.12889 0.55509 0.69759 0.0
C714 C 0.17215 0.6036 0.66325 0.0
C715 C 0.17239 0.57624 0.64386 0.0
H716 H 0.15155 0.6153 0.70366 0.0
H717 H 0.18843 0.6334 0.65813 0.0
S718 S 0.11834 0.47204 0.65468 0.0
N719 N 0.10775 0.48973 0.68395 0.0
N720 N 0.1479 0.50881 0.63488 0.0
C721 C 0.15041 0.53784 0.65182 0.0
C722 C 0.12875 0.5274 0.67858 0.0
C723 C 0.61192 0.13783 0.84853 0.0
C724 C 0.58447 0.13874 0.86702 0.0
C725 C 0.62342 0.15871 0.82223 0.0
C726 C 0.60823 0.18174 0.81332 0.0
H727 H 0.62414 0.12025 0.85414 0.0
H728 H 0.64439 0.15653 0.80874 0.0
S729 S 0.53667 0.19532 0.85513 0.0
N730 N 0.54328 0.16544 0.87545 0.0
N731 N 0.56469 0.20475 0.82609 0.0
C732 C 0.5811 0.18334 0.83201 0.0
C733 C 0.56925 0.16183 0.85876 0.0
C734 C 0.43679 0.5964 0.03132 0.0
C735 C 0.47486 0.60361 0.03388 0.0
C736 C 0.42321 0.60525 1.00547 0.0
C737 C 0.44614 0.61944 0.98032 0.0
H738 H 0.41672 0.58317 0.04912 0.0
H739 H 0.39427 0.60055 1.0051 0.0
S740 S 0.54901 0.64891 0.97582 0.0
N741 N 0.53693 0.63176 0.00967 0.0
N742 N 0.50957 0.64423 0.96006 0.0
C743 C 0.48443 0.62812 0.98256 0.0
C744 C 0.49903 0.62076 0.00939 0.0
C745 C 0.85621 0.44486 0.19633 0.0
C746 C 0.89304 0.4772 0.196 0.0
C747 C 0.83384 0.43063 0.17015 0.0
C748 C 0.84733 0.44829 0.14272 0.0
H749 H 0.8443 0.43052 0.21702 0.0
H750 H 0.80559 0.4058 0.17143 0.0
S751 S 0.94103 0.53338 0.12908 0.0
N752 N 0.9421 0.52578 0.16515 0.0
N753 N 0.89856 0.50012 0.11643 0.0
C754 C 0.88335 0.48108 0.14197 0.0
C755 C 0.90667 0.49516 0.16846 0.0
loop_
_geom_bond_atom_site_label_1
_geom_bond_atom_site_label_2
_geom_bond_distance
_geom_bond_site_symmetry_2
_ccdc_geom_bond_type
C0 C1 1.384 . S
C0 C2 1.384 . S
C0 H28 0.931 . S
C1 C0 1.384 . S
C1 C4 1.382 . S
C2 C0 1.384 . S
C2 C3 1.381 . S
C2 H29 0.930 . S
C3 C2 1.381 . S
C3 C5 1.381 . S
C3 C6 1.487 . S
C4 C1 1.382 . S
C4 C5 1.387 . S
C4 H30 0.930 . S
C5 C3 1.381 . S
C5 C4 1.387 . S
C5 H31 0.931 . S
C6 C3 1.487 . S
C6 C13 1.399 . S
C6 N44 1.343 . S
C7 C8 1.384 . S
C7 C9 1.384 . S
C7 H32 0.931 . S
C8 C7 1.384 . S
C8 C11 1.382 . S
C9 C7 1.384 . S
C9 C10 1.381 . S
C9 H33 0.930 . S
C10 C9 1.381 . S
C10 C12 1.381 . S
C10 C13 1.487 . S
C11 C8 1.382 . S
C11 C12 1.387 . S
C11 H34 0.930 . S
C12 C10 1.381 . S
C12 C11 1.387 . S
C12 H35 0.931 . S
C13 C6 1.399 . S
C13 C10 1.487 . S
C13 N45 1.343 1_655 S
C14 C15 1.384 . S
C14 C16 1.384 . S
C14 H36 0.931 . S
C15 C14 1.384 . S
C15 C18 1.382 . S
C16 C14 1.384 . S
C16 C17 1.381 . S
C16 H37 0.930 . S
C17 C16 1.381 . S
C17 C19 1.381 . S
C17 C20 1.487 . S
C18 C15 1.382 . S
C18 C19 1.387 . S
C18 H38 0.930 . S
C19 C17 1.381 . S
C19 C18 1.387 . S
C19 H39 0.931 . S
C20 C17 1.487 . S
C20 C27 1.399 . S
C20 N45 1.343 . S
C21 C22 1.384 . S
C21 C23 1.384 . S
C21 H40 0.931 . S
C22 C21 1.384 . S
C22 C25 1.382 . S
C23 C21 1.384 . S
C23 C24 1.381 . S
C23 H41 0.930 . S
C24 C23 1.381 . S
C24 C26 1.381 . S
C24 C27 1.487 . S
C25 C22 1.382 . S
C25 C26 1.387 . S
C25 H42 0.930 . S
C26 C24 1.381 . S
C26 C25 1.387 . S
C26 H43 0.931 . S
C27 C20 1.399 . S
C27 C24 1.487 . S
C27 N44 1.343 1_455 S
H28 C0 0.931 . S
H29 C2 0.930 . S
H30 C4 0.930 . S
H31 C5 0.931 . S
H32 C7 0.931 . S
H33 C9 0.930 . S
H34 C11 0.930 . S
H35 C12 0.931 . S
H36 C14 0.931 . S
H37 C16 0.930 . S
H38 C18 0.930 . S
H39 C19 0.931 . S
H40 C21 0.931 . S
H41 C23 0.930 . S
H42 C25 0.930 . S
H43 C26 0.931 . S
N44 C6 1.343 . S
N44 C27 1.343 1_655 S
N45 C13 1.343 1_455 S
N45 C20 1.343 . S
C46 C47 1.384 . S
C46 C48 1.384 . S
C46 H74 0.931 . S
C47 C46 1.384 . S
C47 C50 1.382 . S
C48 C46 1.384 . S
C48 C49 1.381 . S
C48 H75 0.930 . S
C49 C48 1.381 . S
C49 C51 1.381 . S
C49 C52 1.487 . S
C50 C47 1.382 . S
C50 C51 1.387 . S
C50 H76 0.930 . S
C51 C49 1.381 . S
C51 C50 1.387 . S
C51 H77 0.931 . S
C52 C49 1.487 . S
C52 C59 1.399 . S
C52 N90 1.343 1_565 S
C53 C54 1.384 . S
C53 C55 1.384 . S
C53 H78 0.931 . S
C54 C53 1.384 . S
C54 C57 1.382 . S
C55 C53 1.384 . S
C55 C56 1.381 . S
C55 H79 0.930 . S
C56 C55 1.381 . S
C56 C58 1.381 . S
C56 C59 1.487 . S
C57 C54 1.382 . S
C57 C58 1.387 . S
C57 H80 0.930 . S
C58 C56 1.381 . S
C58 C57 1.387 . S
C58 H81 0.931 . S
C59 C52 1.399 . S
C59 C56 1.487 . S
C59 N91 1.343 1_565 S
C60 C61 1.384 . S
C60 C62 1.384 . S
C60 H82 0.931 . S
C61 C60 1.384 . S
C61 C64 1.382 . S
C62 C60 1.384 . S
C62 C63 1.381 . S
C62 H83 0.930 . S
C63 C62 1.381 . S
C63 C65 1.381 . S
C63 C66 1.487 . S
C64 C61 1.382 . S
C64 C65 1.387 . S
C64 H84 0.930 . S
C65 C63 1.381 . S
C65 C64 1.387 . S
C65 H85 0.931 . S
C66 C63 1.487 . S
C66 C73 1.399 . S
C66 N91 1.343 . S
C67 C68 1.384 . S
C67 C69 1.384 . S
C67 H86 0.931 . S
C68 C67 1.384 . S
C68 C71 1.382 . S
C69 C67 1.384 . S
C69 C70 1.381 . S
C69 H87 0.930 . S
C70 C69 1.381 . S
C70 C72 1.381 . S
C70 C73 1.487 . S
C71 C68 1.382 . S
C71 C72 1.387 . S
C71 H88 0.930 . S
C72 C70 1.381 . S
C72 C71 1.387 . S
C72 H89 0.931 . S
C73 C66 1.399 . S
C73 C70 1.487 . S
C73 N90 1.343 . S
H74 C46 0.931 . S
H75 C48 0.930 . S
H76 C50 0.930 . S
H77 C51 0.931 . S
H78 C53 0.931 . S
H79 C55 0.930 . S
H80 C57 0.930 . S
H81 C58 0.931 . S
H82 C60 0.931 . S
H83 C62 0.930 . S
H84 C64 0.930 . S
H85 C65 0.931 . S
H86 C67 0.931 . S
H87 C69 0.930 . S
H88 C71 0.930 . S
H89 C72 0.931 . S
N90 C52 1.343 1_545 S
N90 C73 1.343 . S
N91 C59 1.343 1_545 S
N91 C66 1.343 . S
C92 C93 1.384 . S
C92 C94 1.384 . S
C92 H120 0.931 . S
C93 C92 1.384 . S
C93 C96 1.382 . S
C94 C92 1.384 . S
C94 C95 1.381 . S
C94 H121 0.930 . S
C95 C94 1.381 . S
C95 C97 1.381 . S
C95 C98 1.487 . S
C96 C93 1.382 . S
C96 C97 1.387 . S
C96 H122 0.930 . S
C97 C95 1.381 . S
C97 C96 1.387 . S
C97 H123 0.931 . S
C98 C95 1.487 . S
C98 C105 1.399 . S
C98 N136 1.343 . S
C99 C100 1.384 . S
C99 C101 1.384 . S
C99 H124 0.931 . S
C100 C99 1.384 . S
C100 C103 1.382 . S
C101 C99 1.384 . S
C101 C102 1.381 . S
C101 H125 0.930 . S
C102 C101 1.381 . S
C102 C104 1.381 . S
C102 C105 1.487 . S
C103 C100 1.382 . S
C103 C104 1.387 . S
C103 H126 0.930 . S
C104 C102 1.381 . S
C104 C103 1.387 . S
C104 H127 0.931 . S
C105 C98 1.399 . S
C105 C102 1.487 . S
C105 N137 1.343 . S
C106 C107 1.384 . S
C106 C108 1.384 . S
C106 H128 0.931 . S
C107 C106 1.384 . S
C107 C110 1.382 . S
C108 C106 1.384 . S
C108 C109 1.381 . S
C108 H129 0.930 . S
C109 C108 1.381 . S
C109 C111 1.381 . S
C109 C112 1.487 . S
C110 C107 1.382 . S
C110 C111 1.387 . S
C110 H130 0.930 . S
C111 C109 1.381 . S
C111 C110 1.387 . S
C111 H131 0.931 . S
C112 C109 1.487 . S
C112 C119 1.399 . S
C112 N137 1.343 . S
C113 C114 1.384 . S
C113 C115 1.384 . S
C113 H132 0.931 . S
C114 C113 1.384 . S
C114 C117 1.382 . S
C115 C113 1.384 . S
C115 C116 1.381 . S
C115 H133 0.930 . S
C116 C115 1.381 . S
C116 C118 1.381 . S
C116 C119 1.487 . S
C117 C114 1.382 . S
C117 C118 1.387 . S
C117 H134 0.930 . S
C118 C116 1.381 . S
C118 C117 1.387 . S
C118 H135 0.931 . S
C119 C112 1.399 . S
C119 C116 1.487 . S
C119 N136 1.343 . S
H120 C92 0.931 . S
H121 C94 0.930 . S
H122 C96 0.930 . S
H123 C97 0.931 . S
H124 C99 0.931 . S
H125 C101 0.930 . S
H126 C103 0.930 . S
H127 C104 0.931 . S
H128 C106 0.931 . S
H129 C108 0.930 . S
H130 C110 0.930 . S
H131 C111 0.931 . S
H132 C113 0.931 . S
H133 C115 0.930 . S
H134 C117 0.930 . S
H135 C118 0.931 . S
N136 C98 1.343 . S
N136 C119 1.343 . S
N137 C105 1.343 . S
N137 C112 1.343 . S
C138 C139 1.384 . S
C138 C140 1.384 . S
C138 H166 0.931 . S
C139 C138 1.384 . S
C139 C142 1.382 . S
C140 C138 1.384 . S
C140 C141 1.381 . S
C140 H167 0.930 . S
C141 C140 1.381 . S
C141 C143 1.381 . S
C141 C144 1.487 . S
C142 C139 1.382 . S
C142 C143 1.387 . S
C142 H168 0.930 . S
C143 C141 1.381 . S
C143 C142 1.387 . S
C143 H169 0.931 . S
C144 C141 1.487 . S
C144 C151 1.399 . S
C144 N182 1.343 . S
C145 C146 1.384 . S
C145 C147 1.384 . S
C145 H170 0.931 . S
C146 C145 1.384 . S
C146 C149 1.382 . S
C147 C145 1.384 . S
C147 C148 1.381 . S
C147 H171 0.930 . S
C148 C147 1.381 . S
C148 C150 1.381 . S
C148 C151 1.487 . S
C149 C146 1.382 . S
C149 C150 1.387 . S
C149 H172 0.930 . S
C150 C148 1.381 . S
C150 C149 1.387 . S
C150 H173 0.931 . S
C151 C144 1.399 . S
C151 C148 1.487 . S
C151 N183 1.343 1_655 S
C152 C153 1.384 . S
C152 C154 1.384 . S
C152 H174 0.931 . S
C153 C152 1.384 . S
C153 C156 1.382 . S
C154 C152 1.384 . S
C154 C155 1.381 . S
C154 H175 0.930 . S
C155 C154 1.381 . S
C155 C157 1.381 . S
C155 C158 1.487 . S
C156 C153 1.382 . S
C156 C157 1.387 . S
C156 H176 0.930 . S
C157 C155 1.381 . S
C157 C156 1.387 . S
C157 H177 0.931 . S
C158 C155 1.487 . S
C158 C165 1.399 . S
C158 N183 1.343 . S
C159 C160 1.384 . S
C159 C161 1.384 . S
C159 H178 0.931 . S
C160 C159 1.384 . S
C160 C163 1.382 . S
C161 C159 1.384 . S
C161 C162 1.381 . S
C161 H179 0.930 . S
C162 C161 1.381 . S
C162 C164 1.381 . S
C162 C165 1.487 . S
C163 C160 1.382 . S
C163 C164 1.387 . S
C163 H180 0.930 . S
C164 C162 1.381 . S
C164 C163 1.387 . S
C164 H181 0.931 . S
C165 C158 1.399 . S
C165 C162 1.487 . S
C165 N182 1.343 1_455 S
H166 C138 0.931 . S
H167 C140 0.930 . S
H168 C142 0.930 . S
H169 C143 0.931 . S
H170 C145 0.931 . S
H171 C147 0.930 . S
H172 C149 0.930 . S
H173 C150 0.931 . S
H174 C152 0.931 . S
H175 C154 0.930 . S
H176 C156 0.930 . S
H177 C157 0.931 . S
H178 C159 0.931 . S
H179 C161 0.930 . S
H180 C163 0.930 . S
H181 C164 0.931 . S
N182 C144 1.343 . S
N182 C165 1.343 1_655 S
N183 C151 1.343 1_455 S
N183 C158 1.343 . S
C184 C185 1.384 . S
C184 C186 1.384 . S
C184 H212 0.931 . S
C185 C184 1.384 . S
C185 C188 1.382 . S
C186 C184 1.384 . S
C186 C187 1.381 . S
C186 H213 0.930 1_556 S
C187 C186 1.381 . S
C187 C189 1.381 . S
C187 C190 1.487 . S
C188 C185 1.382 . S
C188 C189 1.387 . S
C188 H214 0.930 . S
C189 C187 1.381 . S
C189 C188 1.387 . S
C189 H215 0.931 . S
C190 C187 1.487 . S
C190 C197 1.399 1_556 S
C190 N228 1.343 1_565 S
C191 C192 1.384 . S
C191 C193 1.384 . S
C191 H216 0.931 . S
C192 C191 1.384 . S
C192 C195 1.382 . S
C193 C191 1.384 . S
C193 C194 1.381 . S
C193 H217 0.930 . S
C194 C193 1.381 . S
C194 C196 1.381 . S
C194 C197 1.487 . S
C195 C192 1.382 . S
C195 C196 1.387 . S
C195 H218 0.930 . S
C196 C194 1.381 . S
C196 C195 1.387 . S
C196 H219 0.931 1_565 S
C197 C190 1.399 1_554 S
C197 C194 1.487 . S
C197 N229 1.343 1_565 S
C198 C199 1.384 . S
C198 C200 1.384 1_554 S
C198 H220 0.931 . S
C199 C198 1.384 . S
C199 C202 1.382 . S
C200 C198 1.384 1_556 S
C200 C201 1.381 1_556 S
C200 H221 0.930 . S
C201 C200 1.381 1_554 S
C201 C203 1.381 . S
C201 C204 1.495 . S
C202 C199 1.382 . S
C202 C203 1.387 . S
C202 H222 0.930 . S
C203 C201 1.381 . S
C203 C202 1.387 . S
C203 H223 0.931 . S
C204 C201 1.495 . S
C204 C211 1.372 1_554 S
C204 N229 1.365 . S
C205 C206 1.384 . S
C205 C207 1.384 . S
C205 H224 0.931 . S
C206 C205 1.384 . S
C206 C209 1.382 . S
C207 C205 1.384 . S
C207 C208 1.381 . S
C207 H225 0.930 . S
C208 C207 1.381 . S
C208 C210 1.381 . S
C208 C211 1.487 . S
C209 C206 1.382 . S
C209 C210 1.387 . S
C209 H226 0.930 . S
C210 C208 1.381 . S
C210 C209 1.387 . S
C210 H227 0.931 . S
C211 C204 1.372 1_556 S
C211 C208 1.487 . S
C211 N228 1.343 . S
H212 C184 0.931 . S
H213 C186 0.930 1_554 S
H214 C188 0.930 . S
H215 C189 0.931 . S
H216 C191 0.931 . S
H217 C193 0.930 . S
H218 C195 0.930 . S
H219 C196 0.931 1_545 S
H220 C198 0.931 . S
H221 C200 0.930 . S
H222 C202 0.930 . S
H223 C203 0.931 . S
H224 C205 0.931 . S
H225 C207 0.930 . S
H226 C209 0.930 . S
H227 C210 0.931 . S
N228 C190 1.343 1_545 S
N228 C211 1.343 . S
N229 C197 1.343 1_545 S
N229 C204 1.365 . S
C230 C231 1.384 . S
C230 C232 1.384 . S
C230 H258 0.931 . S
C231 C230 1.384 . S
C231 C234 1.382 . S
C232 C230 1.384 . S
C232 C233 1.381 . S
C232 H259 0.930 . S
C233 C232 1.381 . S
C233 C235 1.381 . S
C233 C236 1.487 . S
C234 C231 1.382 . S
C234 C235 1.387 . S
C234 H260 0.930 . S
C235 C233 1.381 . S
C235 C234 1.387 . S
C235 H261 0.931 . S
C236 C233 1.487 . S
C236 C243 1.399 . S
C236 N274 1.343 . S
C237 C238 1.384 . S
C237 C239 1.384 . S
C237 H262 0.931 . S
C238 C237 1.384 . S
C238 C241 1.382 . S
C239 C237 1.384 . S
C239 C240 1.381 . S
C239 H263 0.930 . S
C240 C239 1.381 . S
C240 C242 1.381 . S
C240 C243 1.487 . S
C241 C238 1.382 . S
C241 C242 1.387 . S
C241 H264 0.930 . S
C242 C240 1.381 . S
C242 C241 1.387 . S
C242 H265 0.931 . S
C243 C236 1.399 . S
C243 C240 1.487 . S
C243 N275 1.343 . S
C244 C245 1.384 . S
C244 C246 1.384 . S
C244 H266 0.931 . S
C245 C244 1.384 . S
C245 C248 1.382 . S
C246 C244 1.384 . S
C246 C247 1.381 . S
C246 H267 0.930 . S
C247 C246 1.381 . S
C247 C249 1.381 . S
C247 C250 1.487 . S
C248 C245 1.382 . S
C248 C249 1.387 . S
C248 H268 0.930 . S
C249 C247 1.381 . S
C249 C248 1.387 . S
C249 H269 0.931 . S
C250 C247 1.487 . S
C250 C257 1.399 . S
C250 N275 1.343 . S
C251 C252 1.384 . S
C251 C253 1.384 . S
C251 H270 0.931 . S
C252 C251 1.384 . S
C252 C255 1.382 . S
C253 C251 1.384 . S
C253 C254 1.381 . S
C253 H271 0.930 . S
C254 C253 1.381 . S
C254 C256 1.381 . S
C254 C257 1.487 . S
C255 C252 1.382 . S
C255 C256 1.387 . S
C255 H272 0.930 . S
C256 C254 1.381 . S
C256 C255 1.387 . S
C256 H273 0.931 . S
C257 C250 1.399 . S
C257 C254 1.487 . S
C257 N274 1.343 . S
H258 C230 0.931 . S
H259 C232 0.930 . S
H260 C234 0.930 . S
H261 C235 0.931 . S
H262 C237 0.931 . S
H263 C239 0.930 . S
H264 C241 0.930 . S
H265 C242 0.931 . S
H266 C244 0.931 . S
H267 C246 0.930 . S
H268 C248 0.930 . S
H269 C249 0.931 . S
H270 C251 0.931 . S
H271 C253 0.930 . S
H272 C255 0.930 . S
H273 C256 0.931 . S
N274 C236 1.343 . S
N274 C257 1.343 . S
N275 C243 1.343 . S
N275 C250 1.343 . S
Mn276 O281 2.095 . S
Mn276 O291 2.162 . S
Mn276 O292 2.297 . S
Mn276 O300 2.385 . S
Mn276 O301 2.209 . S
Mn276 O302 2.094 . S
Mn277 O282 2.121 . S
Mn277 N284 2.257 . S
Mn277 N293 2.282 . S
Mn277 O301 2.215 . S
Mn277 O303 2.117 . S
C278 O300 1.234 . S
C278 O301 1.283 . S
C279 O291 1.281 . S
C279 O292 1.236 . S
C280 O302 1.240 . S
C280 O303 1.264 . S
O281 Mn276 2.095 . S
O281 C290 1.250 . S
O282 Mn277 2.121 . S
O282 C290 1.258 . S
C283 N284 1.326 . S
C283 C287 1.460 . S
C283 H289 0.929 . S
N284 Mn277 2.257 . S
N284 C283 1.326 . S
N284 C288 1.362 . S
C285 C286 1.258 . S
C285 C288 1.431 . S
C285 C305 1.449 . S
C286 C285 1.258 . S
C286 C287 1.477 . S
C286 H306 0.931 . S
C287 C283 1.460 . S
C287 C286 1.477 . S
C287 H307 0.930 . S
C288 N284 1.362 . S
C288 C285 1.431 . S
C288 C298 1.476 . S
H289 C283 0.929 . S
C290 O281 1.250 . S
C290 O282 1.258 . S
O291 Mn276 2.162 . S
O291 C279 1.281 . S
O292 Mn276 2.297 . S
O292 C279 1.236 . S
N293 Mn277 2.282 . S
N293 C294 1.328 . S
N293 C298 1.318 . S
C294 N293 1.328 . S
C294 C295 1.457 . S
C294 H299 0.929 . S
C295 C294 1.457 . S
C295 C296 1.291 . S
C295 H308 0.931 . S
C296 C295 1.291 . S
C296 C297 1.373 . S
C296 H309 0.929 . S
C297 C296 1.373 . S
C297 C298 1.396 . S
C297 C304 1.403 . S
C298 C288 1.476 . S
C298 N293 1.318 . S
C298 C297 1.396 . S
H299 C294 0.929 . S
O300 Mn276 2.385 . S
O300 C278 1.234 . S
O301 Mn276 2.209 . S
O301 Mn277 2.215 . S
O301 C278 1.283 . S
O302 Mn276 2.094 . S
O302 C280 1.240 . S
O303 Mn277 2.117 . S
O303 C280 1.264 . S
C304 C297 1.403 . S
C304 C305 1.399 . S
C304 H310 0.929 . S
C305 C285 1.449 . S
C305 C304 1.399 . S
C305 H311 0.930 . S
H306 C286 0.931 . S
H307 C287 0.930 . S
H308 C295 0.931 . S
H309 C296 0.929 . S
H310 C304 0.929 . S
H311 C305 0.930 . S
Mn312 O317 2.095 . S
Mn312 O327 2.162 . S
Mn312 O328 2.297 . S
Mn312 O336 2.385 . S
Mn312 O337 2.209 . S
Mn312 O338 2.094 . S
Mn313 O318 2.121 . S
Mn313 N320 2.257 . S
Mn313 N329 2.282 . S
Mn313 O337 2.215 . S
Mn313 O339 2.117 . S
C314 O336 1.234 . S
C314 O337 1.283 . S
C315 O327 1.281 . S
C315 O328 1.236 . S
C316 O338 1.240 . S
C316 O339 1.264 . S
O317 Mn312 2.095 . S
O317 C326 1.250 . S
O318 Mn313 2.121 . S
O318 C326 1.258 . S
C319 N320 1.326 . S
C319 C323 1.460 . S
C319 H325 0.929 . S
N320 Mn313 2.257 . S
N320 C319 1.326 . S
N320 C324 1.362 . S
C321 C322 1.258 . S
C321 C324 1.431 . S
C321 C341 1.449 . S
C322 C321 1.258 . S
C322 C323 1.477 . S
C322 H342 0.931 . S
C323 C319 1.460 . S
C323 C322 1.477 . S
C323 H343 0.930 . S
C324 N320 1.362 . S
C324 C321 1.431 . S
C324 C334 1.476 . S
H325 C319 0.929 . S
C326 O317 1.250 . S
C326 O318 1.258 . S
O327 Mn312 2.162 . S
O327 C315 1.281 . S
O328 Mn312 2.297 . S
O328 C315 1.236 . S
N329 Mn313 2.282 . S
N329 C330 1.328 . S
N329 C334 1.318 . S
C330 N329 1.328 . S
C330 C331 1.457 . S
C330 H335 0.929 . S
C331 C330 1.457 . S
C331 C332 1.291 . S
C331 H344 0.931 . S
C332 C331 1.291 . S
C332 C333 1.373 . S
C332 H345 0.929 . S
C333 C332 1.373 . S
C333 C334 1.396 . S
C333 C340 1.403 . S
C334 C324 1.476 . S
C334 N329 1.318 . S
C334 C333 1.396 . S
H335 C330 0.929 . S
O336 Mn312 2.385 . S
O336 C314 1.234 . S
O337 Mn312 2.209 . S
O337 Mn313 2.215 . S
O337 C314 1.283 . S
O338 Mn312 2.094 . S
O338 C316 1.240 . S
O339 Mn313 2.117 . S
O339 C316 1.264 . S
C340 C333 1.403 . S
C340 C341 1.399 . S
C340 H346 0.929 . S
C341 C321 1.449 . S
C341 C340 1.399 . S
C341 H347 0.930 . S
H342 C322 0.931 . S
H343 C323 0.930 . S
H344 C331 0.931 . S
H345 C332 0.929 . S
H346 C340 0.929 . S
H347 C341 0.930 . S
Mn348 O353 2.095 . S
Mn348 O363 2.162 . S
Mn348 O364 2.297 . S
Mn348 O372 2.385 . S
Mn348 O373 2.209 . S
Mn348 O374 2.094 . S
Mn349 O354 2.121 . S
Mn349 N356 2.257 . S
Mn349 N365 2.282 . S
Mn349 O373 2.215 . S
Mn349 O375 2.117 . S
C350 O372 1.234 . S
C350 O373 1.283 . S
C351 O363 1.281 . S
C351 O364 1.236 . S
C352 O374 1.240 . S
C352 O375 1.264 . S
O353 Mn348 2.095 . S
O353 C362 1.250 . S
O354 Mn349 2.121 . S
O354 C362 1.258 . S
C355 N356 1.326 . S
C355 C359 1.460 . S
C355 H361 0.929 . S
N356 Mn349 2.257 . S
N356 C355 1.326 . S
N356 C360 1.362 . S
C357 C358 1.258 . S
C357 C360 1.431 . S
C357 C377 1.449 . S
C358 C357 1.258 . S
C358 C359 1.477 . S
C358 H378 0.931 . S
C359 C355 1.460 . S
C359 C358 1.477 . S
C359 H379 0.930 . S
C360 N356 1.362 . S
C360 C357 1.431 . S
C360 C370 1.476 . S
H361 C355 0.929 . S
C362 O353 1.250 . S
C362 O354 1.258 . S
O363 Mn348 2.162 . S
O363 C351 1.281 . S
O364 Mn348 2.297 . S
O364 C351 1.236 . S
N365 Mn349 2.282 . S
N365 C366 1.328 . S
N365 C370 1.318 . S
C366 N365 1.328 . S
C366 C367 1.457 . S
C366 H371 0.929 . S
C367 C366 1.457 . S
C367 C368 1.291 . S
C367 H380 0.931 . S
C368 C367 1.291 . S
C368 C369 1.373 . S
C368 H381 0.929 . S
C369 C368 1.373 . S
C369 C370 1.396 . S
C369 C376 1.403 . S
C370 C360 1.476 . S
C370 N365 1.318 . S
C370 C369 1.396 . S
H371 C366 0.929 . S
O372 Mn348 2.385 . S
O372 C350 1.234 . S
O373 Mn348 2.209 . S
O373 Mn349 2.215 . S
O373 C350 1.283 . S
O374 Mn348 2.094 . S
O374 C352 1.240 . S
O375 Mn349 2.117 . S
O375 C352 1.264 . S
C376 C369 1.403 . S
C376 C377 1.399 . S
C376 H382 0.929 . S
C377 C357 1.449 . S
C377 C376 1.399 . S
C377 H383 0.930 . S
H378 C358 0.931 . S
H379 C359 0.930 . S
H380 C367 0.931 . S
H381 C368 0.929 . S
H382 C376 0.929 . S
H383 C377 0.930 . S
Mn384 O389 2.095 . S
Mn384 O399 2.162 . S
Mn384 O400 2.297 . S
Mn384 O408 2.385 . S
Mn384 O409 2.209 . S
Mn384 O410 2.094 . S
Mn385 O390 2.121 . S
Mn385 N392 2.257 . S
Mn385 N401 2.282 . S
Mn385 O409 2.215 . S
Mn385 O411 2.117 . S
C386 O408 1.234 . S
C386 O409 1.283 . S
C387 O399 1.281 . S
C387 O400 1.236 . S
C388 O410 1.240 . S
C388 O411 1.264 . S
O389 Mn384 2.095 . S
O389 C398 1.250 . S
O390 Mn385 2.121 . S
O390 C398 1.258 . S
C391 N392 1.326 . S
C391 C395 1.460 . S
C391 H397 0.929 . S
N392 Mn385 2.257 . S
N392 C391 1.326 . S
N392 C396 1.362 . S
C393 C394 1.258 . S
C393 C396 1.431 . S
C393 C413 1.449 . S
C394 C393 1.258 . S
C394 C395 1.477 . S
C394 H414 0.931 1_556 S
C395 C391 1.460 . S
C395 C394 1.477 . S
C395 H415 0.930 . S
C396 N392 1.362 . S
C396 C393 1.431 . S
C396 C406 1.476 . S
H397 C391 0.929 . S
C398 O389 1.250 . S
C398 O390 1.258 . S
O399 Mn384 2.162 . S
O399 C387 1.281 . S
O400 Mn384 2.297 . S
O400 C387 1.236 . S
N401 Mn385 2.282 . S
N401 C402 1.328 . S
N401 C406 1.318 . S
C402 N401 1.328 . S
C402 C403 1.457 . S
C402 H407 0.929 . S
C403 C402 1.457 . S
C403 C404 1.291 . S
C403 H416 0.931 . S
C404 C403 1.291 . S
C404 C405 1.373 . S
C404 H417 0.929 . S
C405 C404 1.373 . S
C405 C406 1.396 . S
C405 C412 1.403 . S
C406 C396 1.476 . S
C406 N401 1.318 . S
C406 C405 1.396 . S
H407 C402 0.929 . S
O408 Mn384 2.385 . S
O408 C386 1.234 . S
O409 Mn384 2.209 . S
O409 Mn385 2.215 . S
O409 C386 1.283 . S
O410 Mn384 2.094 . S
O410 C388 1.240 . S
O411 Mn385 2.117 . S
O411 C388 1.264 . S
C412 C405 1.403 . S
C412 C413 1.399 . S
C412 H418 0.929 . S
C413 C393 1.449 . S
C413 C412 1.399 . S
C413 H419 0.930 1_556 S
H414 C394 0.931 1_554 S
H415 C395 0.930 . S
H416 C403 0.931 . S
H417 C404 0.929 . S
H418 C412 0.929 . S
H419 C413 0.930 1_554 S
Mn420 O425 2.095 . S
Mn420 O435 2.162 . S
Mn420 O436 2.297 . S
Mn420 O444 2.385 . S
Mn420 O445 2.209 . S
Mn420 O446 2.094 . S
Mn421 O426 2.121 . S
Mn421 N428 2.257 . S
Mn421 N437 2.282 . S
Mn421 O445 2.215 . S
Mn421 O447 2.117 . S
C422 O444 1.234 . S
C422 O445 1.283 . S
C423 O435 1.281 . S
C423 O436 1.236 . S
C424 O446 1.240 . S
C424 O447 1.264 . S
O425 Mn420 2.095 . S
O425 C434 1.250 . S
O426 Mn421 2.121 . S
O426 C434 1.258 . S
C427 N428 1.326 . S
C427 C431 1.460 . S
C427 H433 0.929 . S
N428 Mn421 2.257 . S
N428 C427 1.326 . S
N428 C432 1.362 . S
C429 C430 1.258 . S
C429 C432 1.431 . S
C429 C449 1.449 . S
C430 C429 1.258 . S
C430 C431 1.477 . S
C430 H450 0.931 . S
C431 C427 1.460 . S
C431 C430 1.477 . S
C431 H451 0.930 . S
C432 N428 1.362 . S
C432 C429 1.431 . S
C432 C442 1.476 . S
H433 C427 0.929 . S
C434 O425 1.250 . S
C434 O426 1.258 . S
O435 Mn420 2.162 . S
O435 C423 1.281 . S
O436 Mn420 2.297 . S
O436 C423 1.236 . S
N437 Mn421 2.282 . S
N437 C438 1.328 . S
N437 C442 1.318 . S
C438 N437 1.328 . S
C438 C439 1.457 . S
C438 H443 0.929 . S
C439 C438 1.457 . S
C439 C440 1.291 . S
C439 H452 0.931 . S
C440 C439 1.291 . S
C440 C441 1.373 . S
C440 H453 0.929 . S
C441 C440 1.373 . S
C441 C442 1.396 . S
C441 C448 1.403 . S
C442 C432 1.476 . S
C442 N437 1.318 . S
C442 C441 1.396 . S
H443 C438 0.929 . S
O444 Mn420 2.385 . S
O444 C422 1.234 . S
O445 Mn420 2.209 . S
O445 Mn421 2.215 . S
O445 C422 1.283 . S
O446 Mn420 2.094 . S
O446 C424 1.240 . S
O447 Mn421 2.117 . S
O447 C424 1.264 . S
C448 C441 1.403 . S
C448 C449 1.399 . S
C448 H454 0.929 . S
C449 C429 1.449 . S
C449 C448 1.399 . S
C449 H455 0.930 . S
H450 C430 0.931 . S
H451 C431 0.930 . S
H452 C439 0.931 . S
H453 C440 0.929 . S
H454 C448 0.929 . S
H455 C449 0.930 . S
Mn456 O461 2.095 . S
Mn456 O471 2.162 . S
Mn456 O472 2.297 . S
Mn456 O480 2.385 . S
Mn456 O481 2.209 . S
Mn456 O482 2.094 . S
Mn457 O462 2.121 . S
Mn457 N464 2.257 . S
Mn457 N473 2.282 . S
Mn457 O481 2.215 . S
Mn457 O483 2.117 . S
C458 O480 1.234 . S
C458 O481 1.283 . S
C459 O471 1.281 . S
C459 O472 1.236 . S
C460 O482 1.240 . S
C460 O483 1.264 . S
O461 Mn456 2.095 . S
O461 C470 1.250 . S
O462 Mn457 2.121 . S
O462 C470 1.258 . S
C463 N464 1.326 . S
C463 C467 1.460 . S
C463 H469 0.929 . S
N464 Mn457 2.257 . S
N464 C463 1.326 . S
N464 C468 1.362 . S
C465 C466 1.258 . S
C465 C468 1.431 . S
C465 C485 1.449 . S
C466 C465 1.258 . S
C466 C467 1.477 . S
C466 H486 0.931 . S
C467 C463 1.460 . S
C467 C466 1.477 . S
C467 H487 0.930 . S
C468 N464 1.362 . S
C468 C465 1.431 . S
C468 C478 1.476 . S
H469 C463 0.929 . S
C470 O461 1.250 . S
C470 O462 1.258 . S
O471 Mn456 2.162 . S
O471 C459 1.281 . S
O472 Mn456 2.297 . S
O472 C459 1.236 . S
N473 Mn457 2.282 . S
N473 C474 1.328 . S
N473 C478 1.318 . S
C474 N473 1.328 . S
C474 C475 1.457 . S
C474 H479 0.929 . S
C475 C474 1.457 . S
C475 C476 1.291 . S
C475 H488 0.931 . S
C476 C475 1.291 . S
C476 C477 1.373 . S
C476 H489 0.929 . S
C477 C476 1.373 . S
C477 C478 1.396 . S
C477 C484 1.403 . S
C478 C468 1.476 . S
C478 N473 1.318 . S
C478 C477 1.396 . S
H479 C474 0.929 . S
O480 Mn456 2.385 . S
O480 C458 1.234 . S
O481 Mn456 2.209 . S
O481 Mn457 2.215 . S
O481 C458 1.283 . S
O482 Mn456 2.094 . S
O482 C460 1.240 . S
O483 Mn457 2.117 . S
O483 C460 1.264 . S
C484 C477 1.403 . S
C484 C485 1.399 . S
C484 H490 0.929 . S
C485 C465 1.449 . S
C485 C484 1.399 . S
C485 H491 0.930 . S
H486 C466 0.931 . S
H487 C467 0.930 . S
H488 C475 0.931 . S
H489 C476 0.929 . S
H490 C484 0.929 . S
H491 C485 0.930 . S
C492 C493 1.369 . S
C492 C494 1.419 . S
C492 H496 0.930 . S
C493 C492 1.369 . S
C493 C502 1.429 . S
C494 C492 1.419 . S
C494 C495 1.363 . S
C494 H497 0.929 . S
C495 C494 1.363 . S
C495 C501 1.428 . S
H496 C492 0.930 . S
H497 C494 0.929 . S
S498 N499 1.613 . S
S498 N500 1.610 . S
N499 S498 1.613 . S
N499 C502 1.350 . S
N500 S498 1.610 . S
N500 C501 1.351 . S
C501 C495 1.428 . S
C501 N500 1.351 . S
C501 C502 1.434 . S
C502 C493 1.429 . S
C502 N499 1.350 . S
C502 C501 1.434 . S
C503 C504 1.369 . S
C503 C505 1.419 . S
C503 H507 0.930 . S
C504 C503 1.369 . S
C504 C513 1.429 . S
C505 C503 1.419 . S
C505 C506 1.363 . S
C505 H508 0.929 . S
C506 C505 1.363 . S
C506 C512 1.428 . S
H507 C503 0.930 . S
H508 C505 0.929 . S
S509 N510 1.613 . S
S509 N511 1.610 . S
N510 S509 1.613 . S
N510 C513 1.350 . S
N511 S509 1.610 . S
N511 C512 1.351 . S
C512 C506 1.428 . S
C512 N511 1.351 . S
C512 C513 1.434 . S
C513 C504 1.429 . S
C513 N510 1.350 . S
C513 C512 1.434 . S
C514 C515 1.369 . S
C514 C516 1.419 . S
C514 H518 0.930 . S
C515 C514 1.369 . S
C515 C524 1.429 . S
C516 C514 1.419 . S
C516 C517 1.363 . S
C516 H519 0.929 . S
C517 C516 1.363 . S
C517 C523 1.428 . S
H518 C514 0.930 . S
H519 C516 0.929 . S
S520 N521 1.613 . S
S520 N522 1.610 . S
N521 S520 1.613 . S
N521 C524 1.350 . S
N522 S520 1.610 . S
N522 C523 1.351 . S
C523 C517 1.428 . S
C523 N522 1.351 . S
C523 C524 1.434 . S
C524 C515 1.429 . S
C524 N521 1.350 . S
C524 C523 1.434 . S
C525 C526 1.369 . S
C525 C527 1.419 . S
C525 H529 0.930 . S
C526 C525 1.369 . S
C526 C535 1.429 . S
C527 C525 1.419 . S
C527 C528 1.363 . S
C527 H530 0.929 . S
C528 C527 1.363 . S
C528 C534 1.428 . S
H529 C525 0.930 . S
H530 C527 0.929 . S
S531 N532 1.613 . S
S531 N533 1.610 . S
N532 S531 1.613 . S
N532 C535 1.350 . S
N533 S531 1.610 . S
N533 C534 1.351 . S
C534 C528 1.428 . S
C534 N533 1.351 . S
C534 C535 1.434 . S
C535 C526 1.429 . S
C535 N532 1.350 . S
C535 C534 1.434 . S
C536 C537 1.369 . S
C536 C538 1.419 . S
C536 H540 0.930 . S
C537 C536 1.369 . S
C537 C546 1.429 . S
C538 C536 1.419 . S
C538 C539 1.363 . S
C538 H541 0.929 . S
C539 C538 1.363 . S
C539 C545 1.428 . S
H540 C536 0.930 . S
H541 C538 0.929 . S
S542 N543 1.597 1_554 S
S542 N544 1.610 1_554 S
N543 S542 1.597 1_556 S
N543 C546 1.385 . S
N544 S542 1.610 1_556 S
N544 C545 1.351 . S
C545 C539 1.428 . S
C545 N544 1.351 . S
C545 C546 1.434 . S
C546 C537 1.429 . S
C546 N543 1.385 . S
C546 C545 1.434 . S
C547 C548 1.369 . S
C547 C549 1.419 . S
C547 H551 0.930 . S
C548 C547 1.369 . S
C548 C557 1.429 . S
C549 C547 1.419 . S
C549 C550 1.363 . S
C549 H552 0.929 . S
C550 C549 1.363 . S
C550 C556 1.428 . S
H551 C547 0.930 . S
H552 C549 0.929 . S
S553 N554 1.613 . S
S553 N555 1.610 . S
N554 S553 1.613 . S
N554 C557 1.350 . S
N555 S553 1.610 . S
N555 C556 1.351 . S
C556 C550 1.428 . S
C556 N555 1.351 . S
C556 C557 1.434 . S
C557 C548 1.429 . S
C557 N554 1.350 . S
C557 C556 1.434 . S
C558 C559 1.369 . S
C558 C560 1.419 . S
C558 H562 0.930 . S
C559 C558 1.369 . S
C559 C568 1.429 . S
C560 C558 1.419 . S
C560 C561 1.363 . S
C560 H563 0.929 . S
C561 C560 1.363 . S
C561 C567 1.428 . S
H562 C558 0.930 . S
H563 C560 0.929 . S
S564 N565 1.613 . S
S564 N566 1.610 . S
N565 S564 1.613 . S
N565 C568 1.350 . S
N566 S564 1.610 . S
N566 C567 1.351 . S
C567 C561 1.428 . S
C567 N566 1.351 . S
C567 C568 1.434 . S
C568 C559 1.429 . S
C568 N565 1.350 . S
C568 C567 1.434 . S
C569 C570 1.369 . S
C569 C571 1.419 . S
C569 H573 0.930 . S
C570 C569 1.369 . S
C570 C579 1.429 . S
C571 C569 1.419 . S
C571 C572 1.363 . S
C571 H574 0.929 . S
C572 C571 1.363 . S
C572 C578 1.428 . S
H573 C569 0.930 . S
H574 C571 0.929 . S
S575 N576 1.613 . S
S575 N577 1.610 . S
N576 S575 1.613 . S
N576 C579 1.350 . S
N577 S575 1.610 . S
N577 C578 1.351 . S
C578 C572 1.428 . S
C578 N577 1.351 . S
C578 C579 1.434 . S
C579 C570 1.429 . S
C579 N576 1.350 . S
C579 C578 1.434 . S
C580 C581 1.369 . S
C580 C582 1.419 . S
C580 H584 0.930 . S
C581 C580 1.369 . S
C581 C590 1.429 . S
C582 C580 1.419 . S
C582 C583 1.363 . S
C582 H585 0.929 . S
C583 C582 1.363 . S
C583 C589 1.428 . S
H584 C580 0.930 . S
H585 C582 0.929 . S
S586 N587 1.613 . S
S586 N588 1.610 . S
N587 S586 1.613 . S
N587 C590 1.350 . S
N588 S586 1.610 . S
N588 C589 1.351 . S
C589 C583 1.428 . S
C589 N588 1.351 . S
C589 C590 1.434 . S
C590 C581 1.429 . S
C590 N587 1.350 . S
C590 C589 1.434 . S
C591 C592 1.369 . S
C591 C593 1.419 . S
C591 H595 0.964 . S
C592 C591 1.369 . S
C592 C601 1.429 . S
C593 C591 1.419 . S
C593 C594 1.363 . S
C593 H596 0.929 . S
C594 C593 1.363 . S
C594 C600 1.428 . S
H595 C591 0.964 . S
H596 C593 0.929 . S
S597 N598 1.613 . S
S597 N599 1.610 . S
N598 S597 1.613 . S
N598 C601 1.350 . S
N599 S597 1.610 . S
N599 C600 1.351 . S
C600 C594 1.428 . S
C600 N599 1.351 . S
C600 C601 1.434 . S
C601 C592 1.429 . S
C601 N598 1.350 . S
C601 C600 1.434 . S
C602 C603 1.369 . S
C602 C604 1.419 . S
C602 H606 0.930 . S
C603 C602 1.369 . S
C603 C612 1.429 . S
C604 C602 1.419 . S
C604 C605 1.363 . S
C604 H607 0.929 . S
C605 C604 1.363 . S
C605 C611 1.428 . S
H606 C602 0.930 . S
H607 C604 0.929 . S
S608 N609 1.613 . S
S608 N610 1.610 . S
N609 S608 1.613 . S
N609 C612 1.350 . S
N610 S608 1.610 . S
N610 C611 1.351 . S
C611 C605 1.428 . S
C611 N610 1.351 . S
C611 C612 1.434 . S
C612 C603 1.429 . S
C612 N609 1.350 . S
C612 C611 1.434 . S
C613 C614 1.369 . S
C613 C615 1.419 . S
C613 H617 0.930 . S
C614 C613 1.369 . S
C614 C623 1.429 . S
C615 C613 1.419 . S
C615 C616 1.363 . S
C615 H618 0.929 . S
C616 C615 1.363 . S
C616 C622 1.428 . S
H617 C613 0.930 . S
H618 C615 0.929 . S
S619 N620 1.613 . S
S619 N621 1.610 . S
N620 S619 1.613 . S
N620 C623 1.350 . S
N621 S619 1.610 . S
N621 C622 1.351 . S
C622 C616 1.428 . S
C622 N621 1.351 . S
C622 C623 1.434 . S
C623 C614 1.429 . S
C623 N620 1.350 . S
C623 C622 1.434 . S
C624 C625 1.369 . S
C624 C626 1.419 . S
C624 H628 0.930 . S
C625 C624 1.369 . S
C625 C634 1.429 . S
C626 C624 1.419 . S
C626 C627 1.363 . S
C626 H629 0.929 . S
C627 C626 1.363 . S
C627 C633 1.428 . S
H628 C624 0.930 . S
H629 C626 0.929 . S
S630 N631 1.613 . S
S630 N632 1.610 . S
N631 S630 1.613 . S
N631 C634 1.350 . S
N632 S630 1.610 . S
N632 C633 1.351 . S
C633 C627 1.428 . S
C633 N632 1.351 . S
C633 C634 1.434 . S
C634 C625 1.429 . S
C634 N631 1.350 . S
C634 C633 1.434 . S
C635 C636 1.369 . S
C635 C637 1.419 . S
C635 H639 0.930 . S
C636 C635 1.369 . S
C636 C645 1.429 . S
C637 C635 1.419 . S
C637 C638 1.363 . S
C637 H640 0.929 . S
C638 C637 1.363 . S
C638 C644 1.428 . S
H639 C635 0.930 . S
H640 C637 0.929 . S
S641 N642 1.613 . S
S641 N643 1.610 . S
N642 S641 1.613 . S
N642 C645 1.350 . S
N643 S641 1.610 . S
N643 C644 1.351 . S
C644 C638 1.428 . S
C644 N643 1.351 . S
C644 C645 1.434 . S
C645 C636 1.429 . S
C645 N642 1.350 . S
C645 C644 1.434 . S
C646 C647 1.369 . S
C646 C648 1.419 . S
C646 H650 0.930 . S
C647 C646 1.369 . S
C647 C656 1.429 . S
C648 C646 1.419 . S
C648 C649 1.363 . S
C648 H651 0.929 . S
C649 C648 1.363 . S
C649 C655 1.428 . S
H650 C646 0.930 . S
H651 C648 0.929 . S
S652 N653 1.613 . S
S652 N654 1.610 . S
N653 S652 1.613 . S
N653 C656 1.350 . S
N654 S652 1.610 . S
N654 C655 1.351 . S
C655 C649 1.428 . S
C655 N654 1.351 . S
C655 C656 1.434 . S
C656 C647 1.429 . S
C656 N653 1.350 . S
C656 C655 1.434 . S
C657 C658 1.369 . S
C657 C659 1.419 1_556 S
C657 H661 0.930 . S
C658 C657 1.369 . S
C658 C667 1.429 . S
C659 C657 1.419 1_554 S
C659 C660 1.363 . S
C659 H662 0.929 . S
C660 C659 1.363 . S
C660 C666 1.428 1_554 S
H661 C657 0.930 . S
H662 C659 0.929 . S
S663 N664 1.613 . S
S663 N665 1.610 . S
N664 S663 1.613 . S
N664 C667 1.350 . S
N665 S663 1.610 . S
N665 C666 1.351 . S
C666 C660 1.428 1_556 S
C666 N665 1.351 . S
C666 C667 1.434 . S
C667 C658 1.429 . S
C667 N664 1.350 . S
C667 C666 1.434 . S
C668 C669 1.369 . S
C668 C670 1.419 . S
C668 H672 0.930 . S
C669 C668 1.369 . S
C669 C678 1.429 . S
C670 C668 1.419 . S
C670 C671 1.363 . S
C670 H673 0.929 . S
C671 C670 1.363 . S
C671 C677 1.428 . S
H672 C668 0.930 . S
H673 C670 0.929 . S
S674 N675 1.613 . S
S674 N676 1.610 . S
N675 S674 1.613 . S
N675 C678 1.350 . S
N676 S674 1.610 . S
N676 C677 1.351 . S
C677 C671 1.428 . S
C677 N676 1.351 . S
C677 C678 1.434 . S
C678 C669 1.429 . S
C678 N675 1.350 . S
C678 C677 1.434 . S
C679 C680 1.369 . S
C679 C681 1.419 . S
C679 H683 0.930 . S
C680 C679 1.369 . S
C680 C689 1.429 . S
C681 C679 1.419 . S
C681 C682 1.363 . S
C681 H684 0.929 . S
C682 C681 1.363 . S
C682 C688 1.428 . S
H683 C679 0.930 . S
H684 C681 0.929 . S
S685 N686 1.613 . S
S685 N687 1.610 . S
N686 S685 1.613 . S
N686 C689 1.350 . S
N687 S685 1.610 . S
N687 C688 1.351 . S
C688 C682 1.428 . S
C688 N687 1.351 . S
C688 C689 1.434 . S
C689 C680 1.429 . S
C689 N686 1.350 . S
C689 C688 1.434 . S
C690 C691 1.369 . S
C690 C692 1.419 . S
C690 H694 0.930 . S
C691 C690 1.369 . S
C691 C700 1.429 . S
C692 C690 1.419 . S
C692 C693 1.363 . S
C692 H695 0.929 . S
C693 C692 1.363 . S
C693 C699 1.428 . S
H694 C690 0.930 . S
H695 C692 0.929 . S
S696 N697 1.613 . S
S696 N698 1.610 . S
N697 S696 1.613 . S
N697 C700 1.350 . S
N698 S696 1.610 . S
N698 C699 1.351 . S
C699 C693 1.428 . S
C699 N698 1.351 . S
C699 C700 1.434 . S
C700 C691 1.429 . S
C700 N697 1.350 . S
C700 C699 1.434 . S
C701 C702 1.369 . S
C701 C703 1.419 . S
C701 H705 0.930 . S
C702 C701 1.369 . S
C702 C711 1.429 . S
C703 C701 1.419 . S
C703 C704 1.363 . S
C703 H706 0.929 . S
C704 C703 1.363 . S
C704 C710 1.428 . S
H705 C701 0.930 . S
H706 C703 0.929 . S
S707 N708 1.613 . S
S707 N709 1.610 . S
N708 S707 1.613 . S
N708 C711 1.350 . S
N709 S707 1.610 . S
N709 C710 1.351 . S
C710 C704 1.428 . S
C710 N709 1.351 . S
C710 C711 1.434 . S
C711 C702 1.429 . S
C711 N708 1.350 . S
C711 C710 1.434 . S
C712 C713 1.369 . S
C712 C714 1.419 . S
C712 H716 0.930 . S
C713 C712 1.369 . S
C713 C722 1.429 . S
C714 C712 1.419 . S
C714 C715 1.363 . S
C714 H717 0.929 . S
C715 C714 1.363 . S
C715 C721 1.428 . S
H716 C712 0.930 . S
H717 C714 0.929 . S
S718 N719 1.613 . S
S718 N720 1.610 . S
N719 S718 1.613 . S
N719 C722 1.350 . S
N720 S718 1.610 . S
N720 C721 1.351 . S
C721 C715 1.428 . S
C721 N720 1.351 . S
C721 C722 1.434 . S
C722 C713 1.429 . S
C722 N719 1.350 . S
C722 C721 1.434 . S
C723 C724 1.369 . S
C723 C725 1.419 . S
C723 H727 0.930 . S
C724 C723 1.369 . S
C724 C733 1.429 . S
C725 C723 1.419 . S
C725 C726 1.363 . S
C725 H728 0.929 . S
C726 C725 1.363 . S
C726 C732 1.428 . S
H727 C723 0.930 . S
H728 C725 0.929 . S
S729 N730 1.613 . S
S729 N731 1.610 . S
N730 S729 1.613 . S
N730 C733 1.350 . S
N731 S729 1.610 . S
N731 C732 1.351 . S
C732 C726 1.428 . S
C732 N731 1.351 . S
C732 C733 1.434 . S
C733 C724 1.429 . S
C733 N730 1.350 . S
C733 C732 1.434 . S
C734 C735 1.369 . S
C734 C736 1.419 1_554 S
C734 H738 0.930 . S
C735 C734 1.369 . S
C735 C744 1.429 . S
C736 C734 1.419 1_556 S
C736 C737 1.363 . S
C736 H739 0.929 . S
C737 C736 1.363 . S
C737 C743 1.428 . S
H738 C734 0.930 . S
H739 C736 0.929 . S
S740 N741 1.613 . S
S740 N742 1.610 1_554 S
N741 S740 1.613 . S
N741 C744 1.350 . S
N742 S740 1.610 1_556 S
N742 C743 1.351 . S
C743 C737 1.428 . S
C743 N742 1.351 . S
C743 C744 1.434 1_556 S
C744 C735 1.429 . S
C744 N741 1.350 . S
C744 C743 1.434 1_554 S
C745 C746 1.369 . S
C745 C747 1.419 . S
C745 H749 0.930 . S
C746 C745 1.369 . S
C746 C755 1.429 . S
C747 C745 1.419 . S
C747 C748 1.363 . S
C747 H750 0.929 . S
C748 C747 1.363 . S
C748 C754 1.428 . S
H749 C745 0.930 . S
H750 C747 0.929 . S
S751 N752 1.613 . S
S751 N753 1.610 . S
N752 S751 1.613 . S
N752 C755 1.350 . S
N753 S751 1.610 . S
N753 C754 1.351 . S
C754 C748 1.428 . S
C754 N753 1.351 . S
C754 C755 1.434 . S
C755 C746 1.429 . S
C755 N752 1.350 . S
C755 C754 1.434 . S
C495 C459 1.625 . S
C493 C15 1.588 . S
C504 C61 1.625 . S
C506 C279 1.660 . S
C515 C114 1.609 . S
C517 C326 1.655 . S
C526 C139 1.570 . S
C528 C362 1.588 . S
C539 C387 1.604 . S
C537 C185 1.586 . S
C548 C245 1.570 . S
C550 C423 1.606 . S
C559 C47 1.636 . S
C561 C315 1.650 . S
C570 C100 1.592 . S
C572 C351 1.607 . S
C581 C153 1.545 . S
C583 C398 1.577 . S
C594 C434 1.635 . S
C592 C199 1.591 . S
C605 C470 1.643 . S
C603 C231 1.618 . S
C616 C290 1.659 . S
C614 C1 1.632 . S
C625 C22 1.479 . S
C627 C314 1.471 . S
C636 C68 1.493 . S
C638 C350 1.481 . S
C649 C388 1.490 . S
C647 C107 1.494 . S
C658 C146 1.496 . S
C660 C424 1.492 . S
C671 C460 1.460 . S
C669 C192 1.468 . S
C682 C280 1.452 . S
C680 C252 1.456 . S
C693 C458 1.463 . S
C691 C54 1.477 . S
C702 C93 1.477 . S
C704 C278 1.465 . S
C715 C316 1.474 . S
C713 C160 1.480 . S
C724 C206 1.488 . S
C726 C352 1.486 . S
C735 C238 1.517 . S
C737 C386 1.505 . S
C746 C8 1.506 . S
C748 C422 1.491 . S
