# Generated by pormake.
# Topology csq, (4,8)-cn, num edge types: 1
# Building blocks:
#     Node 0, Type 0, BuildingBlock: NAHDIM_clean_linker_0, # of connection points: 4
#     Node 1, Type 0, BuildingBlock: NAHDIM_clean_linker_0, # of connection points: 4
#     Node 2, Type 0, BuildingBlock: NAHDIM_clean_linker_0, # of connection points: 4
#     Node 3, Type 0, BuildingBlock: NAHDIM_clean_linker_0, # of connection points: 4
#     Node 4, Type 0, BuildingBlock: NAHDIM_clean_linker_0, # of connection points: 4
#     Node 5, Type 0, BuildingBlock: NAHDIM_clean_linker_0, # of connection points: 4
#     Node 6, Type 1, BuildingBlock: TAGTUT_clean_sbu_3, # of connection points: 8
#     Node 7, Type 1, BuildingBlock: TAGTUT_clean_sbu_3, # of connection points: 8
#     Node 8, Type 1, BuildingBlock: TAGTUT_clean_sbu_3, # of connection points: 8
#     Edge 9, Type (0, 1), BuildingBlock: EZIPEK_clean_linker_0, # of connection points: 2
#     Edge 10, Type (0, 1), BuildingBlock: EZIPEK_clean_linker_0, # of connection points: 2
#     Edge 11, Type (0, 1), BuildingBlock: EZIPEK_clean_linker_0, # of connection points: 2
#     Edge 12, Type (0, 1), BuildingBlock: EZIPEK_clean_linker_0, # of connection points: 2
#     Edge 13, Type (0, 1), BuildingBlock: EZIPEK_clean_linker_0, # of connection points: 2
#     Edge 14, Type (0, 1), BuildingBlock: EZIPEK_clean_linker_0, # of connection points: 2
#     Edge 15, Type (0, 1), BuildingBlock: EZIPEK_clean_linker_0, # of connection points: 2
#     Edge 16, Type (0, 1), BuildingBlock: EZIPEK_clean_linker_0, # of connection points: 2
#     Edge 17, Type (0, 1), BuildingBlock: EZIPEK_clean_linker_0, # of connection points: 2
#     Edge 18, Type (0, 1), BuildingBlock: EZIPEK_clean_linker_0, # of connection points: 2
#     Edge 19, Type (0, 1), BuildingBlock: EZIPEK_clean_linker_0, # of connection points: 2
#     Edge 20, Type (0, 1), BuildingBlock: EZIPEK_clean_linker_0, # of connection points: 2
#     Edge 21, Type (0, 1), BuildingBlock: EZIPEK_clean_linker_0, # of connection points: 2
#     Edge 22, Type (0, 1), BuildingBlock: EZIPEK_clean_linker_0, # of connection points: 2
#     Edge 23, Type (0, 1), BuildingBlock: EZIPEK_clean_linker_0, # of connection points: 2
#     Edge 24, Type (0, 1), BuildingBlock: EZIPEK_clean_linker_0, # of connection points: 2
#     Edge 25, Type (0, 1), BuildingBlock: EZIPEK_clean_linker_0, # of connection points: 2
#     Edge 26, Type (0, 1), BuildingBlock: EZIPEK_clean_linker_0, # of connection points: 2
#     Edge 27, Type (0, 1), BuildingBlock: EZIPEK_clean_linker_0, # of connection points: 2
#     Edge 28, Type (0, 1), BuildingBlock: EZIPEK_clean_linker_0, # of connection points: 2
#     Edge 29, Type (0, 1), BuildingBlock: EZIPEK_clean_linker_0, # of connection points: 2
#     Edge 30, Type (0, 1), BuildingBlock: EZIPEK_clean_linker_0, # of connection points: 2
#     Edge 31, Type (0, 1), BuildingBlock: EZIPEK_clean_linker_0, # of connection points: 2
#     Edge 32, Type (0, 1), BuildingBlock: EZIPEK_clean_linker_0, # of connection points: 2
# Relax obj value: 0.052
# Max RMSD: 0.122
# Mean RMSD: 0.092
data_MOF--net-csq--node1-TAGTUT_clean_sbu_3--node2-NAHDIM_clean_linker_0--edge1-EZIPEK_clean_linker_0
_symmetry_space_group_name_H-M    P1
_symmetry_Int_Tables_number       1
_symmetry_cell_setting            triclinic
loop_
_symmetry_equiv_pos_as_xyz
'x, y, z'
_cell_length_a     55.690465
_cell_length_b     54.923755
_cell_length_c     21.52374
_cell_angle_alpha  92.518125
_cell_angle_beta   92.577087
_cell_angle_gamma 120.01574
loop_
_atom_site_label
_atom_site_type_symbol
_atom_site_fract_x
_atom_site_fract_y
_atom_site_fract_z
_atom_type_partial_charge
C0 C 0.4427 0.5624 0.34386 0.0
C1 C 0.41365 0.53978 0.35982 0.0
C2 C 0.36825 0.51924 0.30309 0.0
C3 C 0.35037 0.49479 0.33161 0.0
C4 C 0.32138 0.48267 0.32226 0.0
C5 C 0.31022 0.49515 0.28291 0.0
C6 C 0.32835 0.52034 0.25562 0.0
C7 C 0.35719 0.53187 0.26555 0.0
C8 C 0.30267 0.45568 0.35146 0.0
C9 C 0.31726 0.53426 0.21334 0.0
C10 C 0.19866 0.5472 0.48119 0.0
C11 C 0.17313 0.53105 0.43337 0.0
C12 C 0.18512 0.49753 0.38372 0.0
C13 C 0.20329 0.51575 0.34211 0.0
C14 C 0.21886 0.50769 0.30604 0.0
C15 C 0.21677 0.4812 0.31287 0.0
C16 C 0.19861 0.46287 0.35494 0.0
C17 C 0.18267 0.47114 0.38904 0.0
C18 C 0.23783 0.52772 0.2612 0.0
C19 C 0.19629 0.43473 0.36444 0.0
C20 C 0.11066 0.36831 0.95943 0.0
C21 C 0.13163 0.39518 0.94655 0.0
C22 C 0.15812 0.40773 0.97808 0.0
C23 C 0.16412 0.39246 0.02132 0.0
C24 C 0.14316 0.36503 0.03343 0.0
C25 C 0.11661 0.35327 0.00214 0.0
C26 C 0.17987 0.43696 0.96348 0.0
C27 C 0.149 0.34803 0.07852 0.0
C28 C 0.36299 0.43532 0.00336 0.0
C29 C 0.35153 0.42071 0.93722 0.0
C30 C 0.30616 0.41814 0.93598 0.0
C31 C 0.2944 0.43457 0.92122 0.0
C32 C 0.27105 0.43135 0.94983 0.0
C33 C 0.2588 0.41053 0.99289 0.0
C34 C 0.2689 0.39186 0.00304 0.0
C35 C 0.29278 0.39605 0.9749 0.0
C36 C 0.26043 0.45121 0.93656 0.0
C37 C 0.25563 0.36881 0.04694 0.0
C38 C 0.28004 0.47989 0.26277 0.0
C39 C 0.26212 0.48499 0.29706 0.0
C40 C 0.23399 0.47302 0.27664 0.0
C41 C 0.22324 0.45517 0.22087 0.0
C42 C 0.19522 0.44326 0.19812 0.0
C43 C 0.18508 0.42618 0.14247 0.0
C44 C 0.20266 0.42063 0.10708 0.0
C45 C 0.19297 0.4042 0.04928 0.0
C46 C 0.21135 0.40006 0.01424 0.0
C47 C 0.23929 0.412 0.03523 0.0
C48 C 0.24924 0.42794 0.09336 0.0
C49 C 0.27734 0.4402 0.11557 0.0
C50 C 0.28726 0.45664 0.17156 0.0
C51 C 0.26965 0.46196 0.20727 0.0
C52 C 0.24119 0.44961 0.18619 0.0
C53 C 0.23093 0.43242 0.12922 0.0
C54 C 0.03701 0.34237 0.91826 0.0
C55 C 0.06724 0.36662 0.92948 0.0
O56 O 0.39602 0.52941 0.30599 0.0
O57 O 0.3306 0.42477 0.91224 0.0
O58 O 0.08507 0.35588 0.92866 0.0
O59 O 0.16989 0.50454 0.42032 0.0
H60 H 0.40718 0.55204 0.38987 0.0
H61 H 0.44166 0.58034 0.32477 0.0
H62 H 0.45123 0.5542 0.30837 0.0
H63 H 0.45729 0.57056 0.3865 0.0
H64 H 0.35897 0.48449 0.35894 0.0
H65 H 0.37127 0.55054 0.24304 0.0
H66 H 0.28665 0.45778 0.37617 0.0
H67 H 0.31442 0.44989 0.38494 0.0
H68 H 0.29166 0.43826 0.31428 0.0
H69 H 0.33388 0.55529 0.20147 0.0
H70 H 0.301 0.53674 0.23589 0.0
H71 H 0.30747 0.52067 0.16943 0.0
H72 H 0.17659 0.54258 0.39058 0.0
H73 H 0.2079 0.57032 0.48157 0.0
H74 H 0.21556 0.54311 0.46904 0.0
H75 H 0.19312 0.54031 0.52882 0.0
H76 H 0.20554 0.53627 0.33725 0.0
H77 H 0.16862 0.45726 0.42131 0.0
H78 H 0.23542 0.51634 0.21533 0.0
H79 H 0.25975 0.53693 0.28013 0.0
H80 H 0.23373 0.54525 0.25388 0.0
H81 H 0.18332 0.42422 0.4033 0.0
H82 H 0.21729 0.4375 0.3744 0.0
H83 H 0.18686 0.42063 0.32111 0.0
H84 H 0.06772 0.3748 0.97773 0.0
H85 H 0.12768 0.40619 0.9108 0.0
H86 H 0.10039 0.33223 0.01073 0.0
H87 H 0.19156 0.45006 0.00691 0.0
H88 H 0.1706 0.44783 0.93803 0.0
H89 H 0.1949 0.43538 0.93392 0.0
H90 H 0.13026 0.32729 0.08407 0.0
H91 H 0.1567 0.36001 0.12485 0.0
H92 H 0.16562 0.34441 0.06182 0.0
H93 H 0.34281 0.39817 0.94463 0.0
H94 H 0.38013 0.43184 0.02007 0.0
H95 H 0.37107 0.45829 0.0063 0.0
H96 H 0.34651 0.42602 0.03644 0.0
H97 H 0.30461 0.45107 0.88978 0.0
H98 H 0.30118 0.38249 0.9846 0.0
H99 H 0.26064 0.46269 0.98054 0.0
H100 H 0.23861 0.43884 0.91628 0.0
H101 H 0.27297 0.46689 0.90344 0.0
H102 H 0.2623 0.35294 0.04069 0.0
H103 H 0.2326 0.35802 0.0397 0.0
H104 H 0.26167 0.37823 0.09578 0.0
H105 H 0.27032 0.49909 0.33918 0.0
H106 H 0.18082 0.44712 0.22295 0.0
H107 H 0.16339 0.41763 0.12713 0.0
H108 H 0.20405 0.38822 0.96907 0.0
H109 H 0.29217 0.43743 0.08991 0.0
H110 H 0.30907 0.4654 0.18598 0.0
H111 H 0.02257 0.35081 0.9178 0.0
H112 H 0.03193 0.32804 0.95659 0.0
H113 H 0.0332 0.32956 0.87385 0.0
C114 C 0.92416 0.3374 0.50083 0.0
C115 C 0.92202 0.35428 0.44788 0.0
C116 C 0.87696 0.32475 0.38645 0.0
C117 C 0.88329 0.30541 0.35732 0.0
C118 C 0.86412 0.28409 0.31311 0.0
C119 C 0.83804 0.28183 0.29836 0.0
C120 C 0.83157 0.30112 0.32792 0.0
C121 C 0.85118 0.32237 0.37137 0.0
C122 C 0.87159 0.26373 0.28269 0.0
C123 C 0.80373 0.29903 0.31438 0.0
C124 C 0.70723 0.0692 0.40784 0.0
C125 C 0.70545 0.0948 0.38821 0.0
C126 C 0.73131 0.12816 0.31239 0.0
C127 C 0.72278 0.14808 0.32007 0.0
C128 C 0.73861 0.17519 0.29956 0.0
C129 C 0.76311 0.18215 0.26962 0.0
C130 C 0.77158 0.16193 0.2613 0.0
C131 C 0.75537 0.13505 0.28243 0.0
C132 C 0.72875 0.1961 0.30807 0.0
C133 C 0.79744 0.16858 0.22902 0.0
C134 C 0.67712 0.15709 0.90435 0.0
C135 C 0.6763 0.17647 0.94762 0.0
C136 C 0.70099 0.19994 0.97444 0.0
C137 C 0.72705 0.20372 0.95876 0.0
C138 C 0.72785 0.18488 0.91302 0.0
C139 C 0.70281 0.16207 0.88566 0.0
C140 C 0.69918 0.2202 0.02105 0.0
C141 C 0.75512 0.18816 0.89487 0.0
C142 C 0.91093 0.38194 0.81038 0.0
C143 C 0.88093 0.36085 0.81533 0.0
C144 C 0.85323 0.34157 0.90388 0.0
C145 C 0.83218 0.34299 0.93395 0.0
C146 C 0.81304 0.32033 0.9661 0.0
C147 C 0.81538 0.2959 0.96892 0.0
C148 C 0.83725 0.29478 0.9404 0.0
C149 C 0.85606 0.31769 0.90858 0.0
C150 C 0.79028 0.32241 0.99692 0.0
C151 C 0.84076 0.26931 0.94356 0.0
C152 C 0.81678 0.25832 0.25497 0.0
C153 C 0.80043 0.23224 0.27919 0.0
C154 C 0.77872 0.20971 0.24248 0.0
C155 C 0.77242 0.21335 0.1805 0.0
C156 C 0.74984 0.19147 0.14345 0.0
C157 C 0.74348 0.19535 0.08291 0.0
C158 C 0.75973 0.22112 0.05656 0.0
C159 C 0.75307 0.22535 0.99526 0.0
C160 C 0.77113 0.2503 0.96854 0.0
C161 C 0.79531 0.27155 0.00227 0.0
C162 C 0.80091 0.26856 0.06542 0.0
C163 C 0.82383 0.29028 0.10224 0.0
C164 C 0.82897 0.28713 0.16452 0.0
C165 C 0.81186 0.26186 0.19178 0.0
C166 C 0.78919 0.23944 0.15489 0.0
C167 C 0.78324 0.24308 0.09228 0.0
C168 C 0.63774 0.09711 0.9468 0.0
C169 C 0.63025 0.11607 0.90946 0.0
O170 O 0.89457 0.34568 0.42986 0.0
O171 O 0.87046 0.3635 0.87105 0.0
O172 O 0.6537 0.13364 0.87899 0.0
O173 O 0.71611 0.1017 0.33066 0.0
H174 H 0.93185 0.34935 0.40945 0.0
H175 H 0.91216 0.3371 0.54056 0.0
H176 H 0.91595 0.31514 0.48315 0.0
H177 H 0.94627 0.34627 0.51813 0.0
H178 H 0.90285 0.30643 0.36914 0.0
H179 H 0.84639 0.33722 0.39432 0.0
H180 H 0.85812 0.24237 0.29851 0.0
H181 H 0.89367 0.26997 0.29421 0.0
H182 H 0.86775 0.26235 0.23122 0.0
H183 H 0.80146 0.31486 0.34347 0.0
H184 H 0.78672 0.27763 0.32291 0.0
H185 H 0.80117 0.30224 0.2645 0.0
H186 H 0.71978 0.11166 0.42378 0.0
H187 H 0.69855 0.06309 0.45382 0.0
H188 H 0.72933 0.07455 0.41224 0.0
H189 H 0.69581 0.05081 0.37312 0.0
H190 H 0.70333 0.14221 0.34002 0.0
H191 H 0.76146 0.11925 0.27586 0.0
H192 H 0.74566 0.2161 0.33214 0.0
H193 H 0.71016 0.188 0.33547 0.0
H194 H 0.72349 0.20104 0.2617 0.0
H195 H 0.80188 0.15097 0.22879 0.0
H196 H 0.81562 0.1878 0.25252 0.0
H197 H 0.79497 0.17303 0.18005 0.0
H198 H 0.62468 0.12841 0.94189 0.0
H199 H 0.65651 0.17357 0.9603 0.0
H200 H 0.70319 0.14727 0.85128 0.0
H201 H 0.70369 0.21601 0.06889 0.0
H202 H 0.67818 0.21793 0.0183 0.0
H203 H 0.71482 0.24233 0.01343 0.0
H204 H 0.75215 0.1709 0.86081 0.0
H205 H 0.76758 0.18846 0.93698 0.0
H206 H 0.76731 0.20857 0.87393 0.0
H207 H 0.87447 0.33859 0.80008 0.0
H208 H 0.92168 0.36925 0.8082 0.0
H209 H 0.91987 0.39196 0.85882 0.0
H210 H 0.90956 0.40422 0.73932 0.0
H211 H 0.83042 0.36169 0.93097 0.0
H212 H 0.87308 0.31698 0.88789 0.0
H213 H 0.79171 0.31971 0.04753 0.0
H214 H 0.76968 0.30515 0.97681 0.0
H215 H 0.7914 0.34295 0.99103 0.0
H216 H 0.85842 0.27139 0.91766 0.0
H217 H 0.82142 0.25013 0.92393 0.0
H218 H 0.84436 0.26621 0.99301 0.0
H219 H 0.8046 0.22947 0.32732 0.0
H220 H 0.73658 0.17114 0.161 0.0
H221 H 0.72575 0.17773 0.05691 0.0
H222 H 0.76652 0.25306 0.92073 0.0
H223 H 0.8378 0.31011 0.08357 0.0
H224 H 0.84669 0.30462 0.1909 0.0
H225 H 0.63937 0.08166 0.91474 0.0
H226 H 0.62267 0.0857 0.98136 0.0
H227 H 0.65815 0.11016 0.97391 0.0
C228 C 0.53812 0.84114 0.44254 0.0
C229 C 0.54941 0.86345 0.39443 0.0
C230 C 0.54008 0.83741 0.29233 0.0
C231 C 0.56721 0.84498 0.27826 0.0
C232 C 0.57193 0.82858 0.2341 0.0
C233 C 0.54906 0.80399 0.20362 0.0
C234 C 0.52166 0.79713 0.21525 0.0
C235 C 0.51754 0.8142 0.25897 0.0
C236 C 0.60144 0.83705 0.22137 0.0
C237 C 0.49683 0.77123 0.18313 0.0
C238 C 0.59211 0.63701 0.33276 0.0
C239 C 0.57022 0.64358 0.30605 0.0
C240 C 0.57571 0.68906 0.28232 0.0
C241 C 0.55134 0.67919 0.24316 0.0
C242 C 0.54746 0.69758 0.20634 0.0
C243 C 0.56859 0.72627 0.20824 0.0
C244 C 0.59307 0.73625 0.2482 0.0
C245 C 0.59607 0.71752 0.28546 0.0
C246 C 0.52068 0.68643 0.16593 0.0
C247 C 0.61599 0.76672 0.25195 0.0
C248 C 0.60966 0.70098 0.81701 0.0
C249 C 0.58131 0.69135 0.82172 0.0
C250 C 0.5726 0.70819 0.85293 0.0
C251 C 0.59269 0.73539 0.87928 0.0
C252 C 0.62128 0.7455 0.87295 0.0
C253 C 0.62938 0.72818 0.84132 0.0
C254 C 0.54192 0.69699 0.85764 0.0
C255 C 0.64321 0.7745 0.89997 0.0
C256 C 0.54429 0.88884 0.84585 0.0
C257 C 0.55529 0.88757 0.78201 0.0
C258 C 0.55526 0.84366 0.79592 0.0
C259 C 0.53588 0.81488 0.79352 0.0
C260 C 0.54045 0.79687 0.83016 0.0
C261 C 0.56547 0.80793 0.86872 0.0
C262 C 0.58583 0.83682 0.86888 0.0
C263 C 0.58041 0.85446 0.83285 0.0
C264 C 0.5184 0.76611 0.82818 0.0
C265 C 0.61325 0.84907 0.90731 0.0
C266 C 0.5541 0.78378 0.16645 0.0
C267 C 0.55718 0.76397 0.19907 0.0
C268 C 0.56488 0.74603 0.16969 0.0
C269 C 0.56976 0.74779 0.10576 0.0
C270 C 0.57875 0.7309 0.07544 0.0
C271 C 0.58344 0.73272 0.01245 0.0
C272 C 0.57925 0.75145 0.97733 0.0
C273 C 0.58375 0.75327 0.91316 0.0
C274 C 0.57932 0.77202 0.87952 0.0
C275 C 0.57043 0.78915 0.90815 0.0
C276 C 0.56604 0.78786 0.97251 0.0
C277 C 0.55738 0.80501 0.00316 0.0
C278 C 0.55365 0.80391 0.0668 0.0
C279 C 0.55773 0.7851 0.1018 0.0
C280 C 0.56583 0.76716 0.07151 0.0
C281 C 0.57039 0.76884 0.00708 0.0
C282 C 0.63466 0.65198 0.78224 0.0
C283 C 0.61175 0.65799 0.8011 0.0
O284 O 0.53484 0.85223 0.3366 0.0
O285 O 0.5488 0.86039 0.76287 0.0
O286 O 0.61846 0.68497 0.78706 0.0
O287 O 0.58 0.67198 0.3191 0.0
H288 H 0.5711 0.86813 0.39329 0.0
H289 H 0.54286 0.82423 0.43002 0.0
H290 H 0.51531 0.8309 0.44468 0.0
H291 H 0.54834 0.85084 0.4897 0.0
H292 H 0.58483 0.86364 0.30133 0.0
H293 H 0.49664 0.80886 0.2691 0.0
H294 H 0.60643 0.82122 0.23861 0.0
H295 H 0.6168 0.85808 0.24437 0.0
H296 H 0.60368 0.83746 0.17037 0.0
H297 H 0.47689 0.76996 0.19348 0.0
H298 H 0.4966 0.75209 0.19854 0.0
H299 H 0.49839 0.77117 0.13188 0.0
H300 H 0.56914 0.6394 0.25476 0.0
H301 H 0.58548 0.61446 0.32171 0.0
H302 H 0.59546 0.64165 0.38421 0.0
H303 H 0.6122 0.65014 0.31215 0.0
H304 H 0.5351 0.65736 0.24236 0.0
H305 H 0.61461 0.72494 0.31663 0.0
H306 H 0.52508 0.68723 0.11605 0.0
H307 H 0.51133 0.69987 0.17479 0.0
H308 H 0.50527 0.66432 0.17432 0.0
H309 H 0.63534 0.77004 0.27734 0.0
H310 H 0.60898 0.77988 0.2769 0.0
H311 H 0.62081 0.77415 0.2045 0.0
H312 H 0.61336 0.65773 0.85246 0.0
H313 H 0.56587 0.67094 0.80016 0.0
H314 H 0.6512 0.73563 0.83629 0.0
H315 H 0.53738 0.69605 0.90746 0.0
H316 H 0.52888 0.6756 0.83361 0.0
H317 H 0.5359 0.71151 0.83691 0.0
H318 H 0.6646 0.77904 0.89215 0.0
H319 H 0.64143 0.77648 0.9509 0.0
H320 H 0.63981 0.79066 0.87852 0.0
H321 H 0.57817 0.90099 0.78969 0.0
H322 H 0.54748 0.91024 0.85736 0.0
H323 H 0.55581 0.88459 0.88321 0.0
H324 H 0.52189 0.87315 0.84683 0.0
H325 H 0.51669 0.80672 0.76428 0.0
H326 H 0.59591 0.87659 0.83353 0.0
H327 H 0.51329 0.75969 0.87624 0.0
H328 H 0.52647 0.7531 0.80694 0.0
H329 H 0.49903 0.76143 0.8006 0.0
H330 H 0.62804 0.8711 0.89706 0.0
H331 H 0.62299 0.83598 0.89842 0.0
H332 H 0.60965 0.84888 0.95762 0.0
H333 H 0.5542 0.76296 0.2486 0.0
H334 H 0.58233 0.71611 0.1001 0.0
H335 H 0.59035 0.7192 0.99163 0.0
H336 H 0.58266 0.77315 0.83018 0.0
H337 H 0.55363 0.81967 0.97839 0.0
H338 H 0.54727 0.81777 0.08821 0.0
H339 H 0.63788 0.65369 0.73188 0.0
H340 H 0.62942 0.63045 0.79398 0.0
H341 H 0.6547 0.66734 0.80843 0.0
C342 C 0.89663 0.5642 0.44354 0.0
C343 C 0.90687 0.56003 0.38098 0.0
C344 C 0.88257 0.57478 0.3064 0.0
C345 C 0.85689 0.54935 0.29939 0.0
C346 C 0.83427 0.54721 0.26303 0.0
C347 C 0.83714 0.5711 0.23431 0.0
C348 C 0.86251 0.59702 0.2435 0.0
C349 C 0.88503 0.59835 0.2786 0.0
C350 C 0.80751 0.51919 0.25386 0.0
C351 C 0.86603 0.62312 0.21501 0.0
C352 C 0.65138 0.57577 0.35031 0.0
C353 C 0.67603 0.5858 0.31321 0.0
C354 C 0.70014 0.56515 0.2588 0.0
C355 C 0.72396 0.59088 0.24923 0.0
C356 C 0.74681 0.59133 0.22309 0.0
C357 C 0.74587 0.56559 0.207 0.0
C358 C 0.72203 0.5397 0.21741 0.0
C359 C 0.69934 0.53986 0.24255 0.0
C360 C 0.77184 0.61925 0.21196 0.0
C361 C 0.72045 0.51186 0.20164 0.0
C362 C 0.69601 0.5347 0.80856 0.0
C363 C 0.71755 0.56219 0.82677 0.0
C364 C 0.74224 0.56687 0.85826 0.0
C365 C 0.74504 0.54348 0.87278 0.0
C366 C 0.72415 0.51589 0.85042 0.0
C367 C 0.70004 0.51194 0.81738 0.0
C368 C 0.76484 0.5967 0.87807 0.0
C369 C 0.72674 0.49051 0.86364 0.0
C370 C 0.93883 0.56246 0.9331 0.0
C371 C 0.91931 0.53524 0.89152 0.0
C372 C 0.88078 0.54253 0.86436 0.0
C373 C 0.87961 0.567 0.85629 0.0
C374 C 0.85706 0.56933 0.87544 0.0
C375 C 0.83493 0.54618 0.90129 0.0
C376 C 0.83509 0.5206 0.90498 0.0
C377 C 0.85826 0.51917 0.88713 0.0
C378 C 0.85742 0.59682 0.87055 0.0
C379 C 0.81126 0.4951 0.92978 0.0
C380 C 0.81431 0.56836 0.19097 0.0
C381 C 0.79198 0.56919 0.21599 0.0
C382 C 0.76942 0.56565 0.1774 0.0
C383 C 0.7691 0.56141 0.11203 0.0
C384 C 0.74669 0.55773 0.07197 0.0
C385 C 0.74632 0.55301 0.00786 0.0
C386 C 0.76856 0.55225 0.98112 0.0
C387 C 0.7685 0.54765 0.91587 0.0
C388 C 0.79058 0.5463 0.89098 0.0
C389 C 0.81289 0.54944 0.92972 0.0
C390 C 0.81365 0.55466 0.9949 0.0
C391 C 0.83608 0.55837 0.03498 0.0
C392 C 0.83629 0.56272 0.09912 0.0
C393 C 0.8143 0.56399 0.12573 0.0
C394 C 0.79163 0.56057 0.08617 0.0
C395 C 0.79134 0.55595 0.02066 0.0
C396 C 0.63318 0.53795 0.7642 0.0
C397 C 0.65619 0.54124 0.80764 0.0
O398 O 0.90558 0.57755 0.33825 0.0
O399 O 0.90403 0.54208 0.85054 0.0
O400 O 0.67112 0.52958 0.78297 0.0
O401 O 0.67764 0.56368 0.2842 0.0
H402 H 0.89233 0.53774 0.36498 0.0
H403 H 0.87416 0.55731 0.43733 0.0
H404 H 0.90782 0.58652 0.46252 0.0
H405 H 0.89923 0.5512 0.47838 0.0
H406 H 0.85427 0.5308 0.32056 0.0
H407 H 0.90479 0.61792 0.28456 0.0
H408 H 0.79036 0.52131 0.27269 0.0
H409 H 0.80893 0.50228 0.27732 0.0
H410 H 0.80197 0.51264 0.20328 0.0
H411 H 0.88555 0.64238 0.23363 0.0
H412 H 0.84812 0.62605 0.22397 0.0
H413 H 0.86651 0.62063 0.16371 0.0
H414 H 0.67896 0.60228 0.28103 0.0
H415 H 0.66853 0.58941 0.44114 0.0
H416 H 0.63689 0.55284 0.33489 0.0
H417 H 0.63806 0.58323 0.32655 0.0
H418 H 0.72473 0.61059 0.26151 0.0
H419 H 0.68088 0.52016 0.25043 0.0
H420 H 0.77609 0.61964 0.16197 0.0
H421 H 0.79042 0.62187 0.23959 0.0
H422 H 0.76897 0.63738 0.22498 0.0
H423 H 0.70155 0.4938 0.21797 0.0
H424 H 0.73911 0.51211 0.22301 0.0
H425 H 0.72021 0.50848 0.15034 0.0
H426 H 0.66944 0.56284 0.83095 0.0
H427 H 0.71507 0.57998 0.81673 0.0
H428 H 0.6837 0.49091 0.80091 0.0
H429 H 0.76463 0.601 0.92884 0.0
H430 H 0.76192 0.61241 0.85306 0.0
H431 H 0.7856 0.5996 0.86948 0.0
H432 H 0.70799 0.47039 0.8456 0.0
H433 H 0.73018 0.49001 0.91469 0.0
H434 H 0.74506 0.49204 0.84167 0.0
H435 H 0.90557 0.51852 0.92139 0.0
H436 H 0.94871 0.55863 0.97434 0.0
H437 H 0.92685 0.57198 0.95168 0.0
H438 H 0.95527 0.57819 0.90566 0.0
H439 H 0.89705 0.58473 0.83772 0.0
H440 H 0.85883 0.49988 0.89125 0.0
H441 H 0.85638 0.60526 0.91758 0.0
H442 H 0.83885 0.59319 0.84121 0.0
H443 H 0.87638 0.61294 0.85003 0.0
H444 H 0.81244 0.47571 0.92002 0.0
H445 H 0.79106 0.49159 0.90891 0.0
H446 H 0.81167 0.49876 0.98104 0.0
H447 H 0.79199 0.57225 0.26614 0.0
H448 H 0.72907 0.55827 0.0897 0.0
H449 H 0.72831 0.54995 0.97962 0.0
H450 H 0.79021 0.54238 0.84099 0.0
H451 H 0.85372 0.55783 0.01734 0.0
H452 H 0.85398 0.56508 0.1275 0.0
H453 H 0.63895 0.56007 0.75395 0.0
H454 H 0.59788 0.51189 0.80853 0.0
H455 H 0.63711 0.53215 0.71639 0.0
C456 C 0.28963 0.83573 0.68567 0.0
C457 C 0.29783 0.86 0.73614 0.0
C458 C 0.28794 0.8361 0.83375 0.0
C459 C 0.26714 0.84087 0.8555 0.0
C460 C 0.25164 0.8262 0.90468 0.0
C461 C 0.25649 0.80575 0.93129 0.0
C462 C 0.27655 0.8 0.90721 0.0
C463 C 0.29256 0.81589 0.86007 0.0
C464 C 0.23052 0.83302 0.92906 0.0
C465 C 0.28143 0.77732 0.93145 0.0
C466 C 0.04814 0.64468 0.86764 0.0
C467 C 0.07932 0.65568 0.88099 0.0
C468 C 0.11433 0.6882 0.96093 0.0
C469 C 0.13637 0.68285 0.95817 0.0
C470 C 0.16362 0.70378 0.97852 0.0
C471 C 0.16881 0.7305 0.00265 0.0
C472 C 0.14645 0.73566 0.00724 0.0
C473 C 0.11936 0.71424 0.98689 0.0
C474 C 0.18692 0.69741 0.97385 0.0
C475 C 0.15128 0.7639 0.03274 0.0
C476 C 0.20868 0.72356 0.41704 0.0
C477 C 0.22068 0.71379 0.37427 0.0
C478 C 0.23411 0.72938 0.32412 0.0
C479 C 0.23548 0.75548 0.31639 0.0
C480 C 0.22359 0.76569 0.3597 0.0
C481 C 0.21047 0.74976 0.40985 0.0
C482 C 0.24697 0.71804 0.27954 0.0
C483 C 0.22488 0.79355 0.35302 0.0
C484 C 0.44457 0.92085 0.1868 0.0
C485 C 0.42245 0.91246 0.23403 0.0
C486 C 0.3817 0.86581 0.24396 0.0
C487 C 0.37094 0.83724 0.22673 0.0
C488 C 0.34225 0.81811 0.22409 0.0
C489 C 0.32394 0.82788 0.23975 0.0
C490 C 0.33485 0.85642 0.26132 0.0
C491 C 0.36369 0.87514 0.26349 0.0
C492 C 0.3314 0.78769 0.20198 0.0
C493 C 0.31591 0.86732 0.27965 0.0
C494 C 0.24095 0.79068 0.9848 0.0
C495 C 0.21322 0.76937 0.97278 0.0
C496 C 0.19779 0.75338 0.02021 0.0
C497 C 0.21031 0.75851 0.08167 0.0
C498 C 0.19553 0.74259 0.13039 0.0
C499 C 0.20832 0.74738 0.19038 0.0
C500 C 0.23646 0.76806 0.20378 0.0
C501 C 0.25001 0.77243 0.26398 0.0
C502 C 0.27829 0.79257 0.27488 0.0
C503 C 0.29344 0.80882 0.22746 0.0
C504 C 0.28002 0.80542 0.16771 0.0
C505 C 0.29445 0.82214 0.11964 0.0
C506 C 0.28147 0.81791 0.06027 0.0
C507 C 0.25374 0.79636 0.04615 0.0
C508 C 0.23848 0.77994 0.09449 0.0
C509 C 0.2516 0.78461 0.1555 0.0
C510 C 0.19744 0.72822 0.56647 0.0
C511 C 0.17977 0.7101 0.50752 0.0
O512 O 0.30512 0.85167 0.79045 0.0
O513 O 0.40936 0.88363 0.23986 0.0
O514 O 0.19611 0.70714 0.46442 0.0
O515 O 0.0879 0.66822 0.94124 0.0
H516 H 0.27971 0.86298 0.7415 0.0
H517 H 0.27694 0.81506 0.7054 0.0
H518 H 0.3084 0.83627 0.66846 0.0
H519 H 0.27642 0.83595 0.64603 0.0
H520 H 0.26368 0.8568 0.83618 0.0
H521 H 0.30867 0.81236 0.84295 0.0
H522 H 0.20928 0.81476 0.91739 0.0
H523 H 0.23167 0.8518 0.90877 0.0
H524 H 0.23366 0.8369 0.98065 0.0
H525 H 0.29233 0.7709 0.89824 0.0
H526 H 0.26148 0.75839 0.94036 0.0
H527 H 0.29456 0.7854 0.97612 0.0
H528 H 0.08886 0.67241 0.84817 0.0
H529 H 0.04144 0.63549 0.81864 0.0
H530 H 0.04398 0.66239 0.87388 0.0
H531 H 0.03519 0.62838 0.89897 0.0
H532 H 0.13238 0.6623 0.94085 0.0
H533 H 0.10204 0.71792 0.9899 0.0
H534 H 0.19864 0.702 0.02005 0.0
H535 H 0.20168 0.71126 0.94086 0.0
H536 H 0.17923 0.67509 0.95743 0.0
H537 H 0.13168 0.76457 0.03322 0.0
H538 H 0.16581 0.78068 0.00405 0.0
H539 H 0.16119 0.76875 0.08103 0.0
H540 H 0.17067 0.72243 0.48909 0.0
H541 H 0.21948 0.69373 0.3804 0.0
H542 H 0.20205 0.75817 0.44323 0.0
H543 H 0.23718 0.71506 0.23163 0.0
H544 H 0.24451 0.69761 0.29255 0.0
H545 H 0.26949 0.73351 0.27854 0.0
H546 H 0.2137 0.79812 0.38903 0.0
H547 H 0.21567 0.79353 0.30616 0.0
H548 H 0.24694 0.81081 0.35682 0.0
H549 H 0.4066 0.91682 0.2129 0.0
H550 H 0.45359 0.94346 0.17815 0.0
H551 H 0.43494 0.90813 0.14177 0.0
H552 H 0.4618 0.91754 0.2032 0.0
H553 H 0.38505 0.83015 0.21291 0.0
H554 H 0.37196 0.89703 0.27953 0.0
H555 H 0.31921 0.78281 0.15632 0.0
H556 H 0.31721 0.77358 0.2355 0.0
H557 H 0.34842 0.78295 0.19651 0.0
H558 H 0.32767 0.88965 0.29905 0.0
H559 H 0.30209 0.85417 0.31487 0.0
H560 H 0.30244 0.86566 0.23816 0.0
H561 H 0.20361 0.76483 0.92553 0.0
H562 H 0.17393 0.72615 0.12257 0.0
H563 H 0.19595 0.73443 0.22597 0.0
H564 H 0.28878 0.79525 0.32052 0.0
H565 H 0.316 0.8387 0.12726 0.0
H566 H 0.29363 0.83151 0.02532 0.0
H567 H 0.21042 0.72046 0.58839 0.0
H568 H 0.18374 0.72907 0.60144 0.0
H569 H 0.21171 0.75012 0.5545 0.0
C570 C 0.41573 0.32332 0.52378 0.0
C571 C 0.43928 0.32806 0.4826 0.0
C572 C 0.4414 0.30384 0.38632 0.0
C573 C 0.47049 0.31692 0.38706 0.0
C574 C 0.48309 0.30545 0.35026 0.0
C575 C 0.46625 0.28029 0.31217 0.0
C576 C 0.43696 0.26802 0.30829 0.0
C577 C 0.42494 0.28023 0.34497 0.0
C578 C 0.51439 0.31952 0.35421 0.0
C579 C 0.41832 0.24113 0.2682 0.0
C580 C 0.49901 0.11273 0.49404 0.0
C581 C 0.49223 0.13518 0.48633 0.0
C582 C 0.50291 0.17195 0.41468 0.0
C583 C 0.47631 0.16821 0.40133 0.0
C584 C 0.47275 0.18734 0.36648 0.0
C585 C 0.49641 0.2114 0.34729 0.0
C586 C 0.52335 0.2165 0.36591 0.0
C587 C 0.52617 0.19616 0.39743 0.0
C588 C 0.44362 0.1811 0.34796 0.0
C589 C 0.54924 0.24279 0.35035 0.0
C590 C 0.51314 0.15102 0.97567 0.0
C591 C 0.48848 0.14821 0.99742 0.0
C592 C 0.48673 0.17185 0.01676 0.0
C593 C 0.51073 0.19895 0.019 0.0
C594 C 0.53582 0.20199 0.9985 0.0
C595 C 0.53656 0.17794 0.97616 0.0
C596 C 0.45911 0.16753 0.03565 0.0
C597 C 0.56185 0.23052 0.00104 0.0
C598 C 0.48223 0.3042 0.73766 0.0
C599 C 0.47778 0.32152 0.78927 0.0
C600 C 0.49559 0.31203 0.88764 0.0
C601 C 0.4734 0.28452 0.89267 0.0
C602 C 0.47406 0.26847 0.94112 0.0
C603 C 0.49762 0.27983 0.98464 0.0
C604 C 0.51984 0.30758 0.98001 0.0
C605 C 0.51833 0.32337 0.932 0.0
C606 C 0.44982 0.23904 0.94484 0.0
C607 C 0.5456 0.32024 0.0245 0.0
C608 C 0.47882 0.26435 0.28526 0.0
C609 C 0.48357 0.2475 0.32512 0.0
C610 C 0.49293 0.22969 0.30317 0.0
C611 C 0.49784 0.22864 0.23951 0.0
C612 C 0.50596 0.20992 0.21515 0.0
C613 C 0.51069 0.20891 0.15271 0.0
C614 C 0.50686 0.22608 0.11163 0.0
C615 C 0.50957 0.22347 0.04719 0.0
C616 C 0.50702 0.24169 0.00778 0.0
C617 C 0.50031 0.26166 0.03045 0.0
C618 C 0.49552 0.26319 0.09432 0.0
C619 C 0.48668 0.28141 0.11831 0.0
C620 C 0.48128 0.28198 0.18096 0.0
C621 C 0.48476 0.26453 0.22197 0.0
C622 C 0.49417 0.24644 0.19902 0.0
C623 C 0.49914 0.24547 0.13508 0.0
C624 C 0.49558 0.08137 0.90106 0.0
C625 C 0.49276 0.10076 0.94705 0.0
O626 O 0.42845 0.313 0.42508 0.0
O627 O 0.49638 0.32837 0.84106 0.0
O628 O 0.51467 0.12842 0.95206 0.0
O629 O 0.50685 0.1519 0.4399 0.0
H630 H 0.44915 0.31785 0.50737 0.0
H631 H 0.40162 0.30036 0.5271 0.0
H632 H 0.40315 0.33234 0.50578 0.0
H633 H 0.42459 0.33321 0.57163 0.0
H634 H 0.48357 0.33588 0.41653 0.0
H635 H 0.40252 0.27057 0.34377 0.0
H636 H 0.52098 0.3068 0.3812 0.0
H637 H 0.52456 0.34117 0.3775 0.0
H638 H 0.52182 0.32059 0.30682 0.0
H639 H 0.39601 0.23481 0.26865 0.0
H640 H 0.42106 0.2238 0.28513 0.0
H641 H 0.42423 0.24379 0.21935 0.0
H642 H 0.49383 0.1478 0.52997 0.0
H643 H 0.46213 0.07572 0.4751 0.0
H644 H 0.5155 0.11864 0.53283 0.0
H645 H 0.5155 0.11864 0.53283 0.0
H646 H 0.45813 0.14967 0.41475 0.0
H647 H 0.54665 0.19905 0.4086 0.0
H648 H 0.44101 0.18235 0.29695 0.0
H649 H 0.43996 0.19711 0.37206 0.0
H650 H 0.4275 0.15991 0.3603 0.0
H651 H 0.56744 0.24743 0.38251 0.0
H652 H 0.54623 0.26132 0.35273 0.0
H653 H 0.55412 0.23972 0.30222 0.0
H654 H 0.48666 0.09258 0.99375 0.0
H655 H 0.47024 0.12763 0.9991 0.0
H656 H 0.55551 0.18002 0.9594 0.0
H657 H 0.45897 0.16774 0.0872 0.0
H658 H 0.44147 0.14697 0.01567 0.0
H659 H 0.45555 0.18461 0.02038 0.0
H660 H 0.58016 0.22909 0.98761 0.0
H661 H 0.56644 0.24101 0.04886 0.0
H662 H 0.55858 0.24406 0.96895 0.0
H663 H 0.4565 0.30708 0.80173 0.0
H664 H 0.46696 0.29903 0.69711 0.0
H665 H 0.47876 0.28405 0.7551 0.0
H666 H 0.50334 0.31519 0.72098 0.0
H667 H 0.45559 0.27515 0.85895 0.0
H668 H 0.53535 0.34458 0.92789 0.0
H669 H 0.44424 0.23528 0.99379 0.0
H670 H 0.45577 0.22346 0.92866 0.0
H671 H 0.43119 0.23523 0.91536 0.0
H672 H 0.56167 0.34152 0.01254 0.0
H673 H 0.55469 0.30627 0.02414 0.0
H674 H 0.54001 0.32197 0.07267 0.0
H675 H 0.47931 0.2478 0.37378 0.0
H676 H 0.50855 0.19559 0.24382 0.0
H677 H 0.51711 0.1942 0.13688 0.0
H678 H 0.50923 0.23957 0.9583 0.0
H679 H 0.4835 0.29514 0.08867 0.0
H680 H 0.47431 0.29621 0.19697 0.0
H681 H 0.46279 0.07009 0.83441 0.0
H682 H 0.49723 0.06554 0.92969 0.0
H683 H 0.51802 0.09248 0.88984 0.0
C684 C 0.07677 0.50265 0.57067 0.0
C685 C 0.05931 0.44327 0.7727 0.0
C686 C 0.97909 0.43929 0.75296 0.0
Mg687 Mg 0.04531 0.53705 0.52204 0.0
Mg688 Mg 0.02834 0.5709 0.6261 0.0
O689 O 0.02604 0.53696 0.59875 0.0
Mg690 Mg 0.03661 0.51509 0.65485 0.0
O691 O 0.04719 0.49125 0.7051 0.0
Mg692 Mg 0.02803 0.45529 0.64927 0.0
Mg693 Mg 0.03889 0.48661 0.78884 0.0
C694 C 0.99668 0.53147 0.73427 0.0
O695 O 0.06617 0.55292 0.7253 0.0
O696 O 0.01834 0.55283 0.47086 0.0
O697 O 0.06079 0.53187 0.81526 0.0
O698 O 0.0803 0.58345 0.54398 0.0
O699 O 0.00453 0.572 0.54597 0.0
O700 O 0.07103 0.60463 0.62271 0.0
O701 O 0.0079 0.47565 0.59283 0.0
O702 O 0.00966 0.49157 0.49943 0.0
C703 C -8e-05 0.47124 0.53486 0.0
C704 C 0.00385 0.56378 0.48896 0.0
O705 O 0.00296 0.51261 0.7179 0.0
O706 O 0.0497 0.43824 0.71536 0.0
O707 O 0.00631 0.55529 0.70994 0.0
O708 O 0.98897 0.43527 0.70389 0.0
O709 O 0.05714 0.46111 0.80902 0.0
O710 O 0.99422 0.4601 0.79236 0.0
O711 O 0.06831 0.51981 0.58605 0.0
O712 O 0.06655 0.47833 0.59271 0.0
C713 C 0.08689 0.60505 0.58109 0.0
C714 C 0.07093 0.55419 0.78502 0.0
C715 C 0.50067 0.04604 0.51584 0.0
C716 C 0.59597 0.04864 0.45938 0.0
C717 C 0.54992 0.96306 0.50136 0.0
Mg718 Mg 0.45422 0.00217 0.60763 0.0
Mg719 Mg 0.46927 0.97038 0.71831 0.0
O720 O 0.47197 0.98015 0.6353 0.0
Mg721 Mg 0.50837 0.00173 0.59775 0.0
O722 O 0.54323 0.0228 0.55383 0.0
Mg723 Mg 0.52684 0.00759 0.46641 0.0
Mg724 Mg 0.57345 0.01866 0.58015 0.0
C725 C 0.51215 0.95221 0.67678 0.0
O726 O 0.53424 0.02923 0.6873 0.0
O727 O 0.41334 0.96793 0.64688 0.0
O728 O 0.57741 0.03645 0.6749 0.0
O729 O 0.46734 0.02716 0.70587 0.0
O730 O 0.42456 0.94488 0.71586 0.0
O731 O 0.48273 0.00832 0.77606 0.0
O732 O 0.48523 0.9778 0.50673 0.0
O733 O 0.44437 0.97623 0.51304 0.0
C734 C 0.46084 0.9708 0.48324 0.0
C735 C 0.40652 0.94843 0.68474 0.0
O736 O 0.51838 0.96759 0.63006 0.0
O737 O 0.57106 0.03811 0.43412 0.0
O738 O 0.49526 0.95146 0.71635 0.0
O739 O 0.53785 0.97245 0.46603 0.0
O740 O 0.60134 0.04439 0.51494 0.0
O741 O 0.56327 0.97607 0.55313 0.0
O742 O 0.49615 0.03356 0.56696 0.0
O743 O 0.5142 0.04156 0.47467 0.0
C744 C 0.47805 0.0277 0.76021 0.0
C745 C 0.55999 0.03963 0.70641 0.0
C746 C 0.52373 0.55322 0.69689 0.0
C747 C 0.44081 0.45727 0.771 0.0
C748 C 0.48112 0.41994 0.68517 0.0
Mg749 Mg 0.55964 0.56004 0.57687 0.0
Mg750 Mg 0.53816 0.51295 0.45444 0.0
O751 O 0.5424 0.52 0.54126 0.0
Mg752 Mg 0.51111 0.5019 0.59602 0.0
O753 O 0.48187 0.4854 0.65624 0.0
Mg754 Mg 0.50621 0.48904 0.73194 0.0
Mg755 Mg 0.45199 0.44909 0.63258 0.0
C756 C 0.50245 0.4503 0.49218 0.0
O757 O 0.47735 0.50025 0.52808 0.0
O758 O 0.59628 0.57064 0.51464 0.0
O759 O 0.43821 0.46019 0.54696 0.0
O760 O 0.53739 0.57031 0.49614 0.0
O761 O 0.58154 0.53555 0.43866 0.0
O762 O 0.51966 0.53616 0.41933 0.0
O763 O 0.54282 0.50327 0.66834 0.0
O764 O 0.57875 0.54633 0.65454 0.0
C765 C 0.56773 0.52357 0.6829 0.0
C766 C 0.60053 0.5586 0.46739 0.0
O767 O 0.50039 0.45899 0.54708 0.0
O768 O 0.46687 0.47381 0.78638 0.0
O769 O 0.51515 0.46707 0.45011 0.0
O770 O 0.49481 0.44235 0.72164 0.0
O771 O 0.43102 0.44579 0.71571 0.0
O772 O 0.46616 0.419 0.63739 0.0
O773 O 0.52281 0.54523 0.63937 0.0
O774 O 0.51738 0.53545 0.73875 0.0
C775 C 0.52342 0.55958 0.44331 0.0
C776 C 0.45127 0.48243 0.51714 0.0
C777 C 0.14601 0.54699 0.50193 0.0
C778 C 0.14596 0.52727 0.45758 0.0
C779 C 0.09721 0.49426 0.47498 0.0
C780 C 0.09988 0.51157 0.52919 0.0
N781 N 0.12977 0.5525 0.59996 0.0
N782 N 0.11667 0.49048 0.37863 0.0
C783 C 0.1249 0.53764 0.54383 0.0
C784 C 0.11999 0.50324 0.43684 0.0
N785 N 0.16463 0.57499 0.5004 0.0
N786 N 0.07347 0.46886 0.46105 0.0
H787 H 0.1323 0.49858 0.34769 0.0
H788 H 0.09772 0.47435 0.35804 0.0
H789 H 0.05592 0.46184 0.486 0.0
H790 H 0.07167 0.45385 0.42704 0.0
H791 H 0.1643 0.59039 0.5298 0.0
H792 H 0.17711 0.58271 0.4632 0.0
H793 H 0.14932 0.56958 0.61474 0.0
H794 H 0.11564 0.54604 0.63429 0.0
C795 C 0.6682 0.1042 0.43187 0.0
C796 C 0.6753 0.08885 0.38823 0.0
C797 C 0.62643 0.05097 0.37498 0.0
C798 C 0.62018 0.0649 0.42295 0.0
N799 N 0.63154 0.10801 0.48092 0.0
N800 N 0.65829 0.05438 0.29888 0.0
C801 C 0.63999 0.09271 0.44584 0.0
C802 C 0.65342 0.06464 0.3529 0.0
N803 N 0.68828 0.12922 0.46161 0.0
N804 N 0.60742 0.02383 0.35377 0.0
H805 H 0.67754 0.06337 0.28035 0.0
H806 H 0.64242 0.03858 0.26878 0.0
H807 H 0.58719 0.01314 0.36755 0.0
H808 H 0.61229 0.01125 0.32554 0.0
H809 H 0.6851 0.1386 0.50103 0.0
H810 H 0.70829 0.14095 0.44728 0.0
H811 H 0.64415 0.12935 0.49479 0.0
H812 H 0.61083 0.0998 0.49098 0.0
C813 C 0.52526 0.59714 0.30196 0.0
C814 C 0.54229 0.62433 0.33308 0.0
C815 C 0.52325 0.60439 0.43063 0.0
C816 C 0.51721 0.57789 0.40394 0.0
N817 N 0.49943 0.54647 0.31076 0.0
N818 N 0.54847 0.65489 0.42465 0.0
C819 C 0.51359 0.57329 0.33805 0.0
C820 C 0.538 0.62846 0.39657 0.0
N821 N 0.52054 0.59449 0.2386 0.0
N822 N 0.51413 0.60597 0.48751 0.0
H823 H 0.55478 0.6726 0.39966 0.0
H824 H 0.54976 0.65896 0.47278 0.0
H825 H 0.50172 0.58768 0.50969 0.0
H826 H 0.51616 0.6244 0.50867 0.0
H827 H 0.50756 0.57547 0.21269 0.0
H828 H 0.52758 0.61202 0.21246 0.0
H829 H 0.4987 0.54127 0.26339 0.0
H830 H 0.48749 0.52938 0.33643 0.0
C831 C 0.94049 0.54149 0.37657 0.0
C832 C 0.93646 0.56472 0.38914 0.0
C833 C 0.98382 0.59083 0.44014 0.0
C834 C 0.98355 0.565 0.44409 0.0
N835 N 0.96 0.51453 0.41766 0.0
N836 N 0.95745 0.61435 0.4226 0.0
C837 C 0.96175 0.54003 0.41176 0.0
C838 C 0.95928 0.59048 0.41701 0.0
N839 N 0.92453 0.52123 0.33004 0.0
N840 N 0.00777 0.61559 0.45752 0.0
H841 H 0.94129 0.61602 0.40108 0.0
H842 H 0.97166 0.63243 0.45017 0.0
H843 H 0.02611 0.61607 0.47215 0.0
H844 H 0.01034 0.63541 0.4512 0.0
H845 H 0.92802 0.50485 0.31663 0.0
H846 H 0.91067 0.52317 0.29924 0.0
H847 H 0.94266 0.49554 0.40016 0.0
H848 H 0.97448 0.5119 0.44435 0.0
C849 C 0.44635 0.91928 0.34395 0.0
C850 C 0.43519 0.92938 0.29732 0.0
C851 C 0.4451 0.96957 0.37122 0.0
C852 C 0.45178 0.95667 0.41944 0.0
N853 N 0.45396 0.91665 0.45424 0.0
N854 N 0.42648 0.96636 0.26562 0.0
C855 C 0.45116 0.93088 0.40646 0.0
C856 C 0.43537 0.95522 0.31068 0.0
N857 N 0.45359 0.89949 0.32879 0.0
N858 N 0.44938 0.99622 0.38243 0.0
H859 H 0.42421 0.96038 0.21821 0.0
H860 H 0.42106 0.98165 0.27526 0.0
H861 H 0.45633 0.0074 0.42595 0.0
H862 H 0.44811 0.00829 0.34788 0.0
H863 H 0.46454 0.89398 0.36021 0.0
H864 H 0.45192 0.89096 0.28365 0.0
H865 H 0.45031 0.89612 0.44789 0.0
H866 H 0.45707 0.92408 0.50103 0.0
C867 C 0.48554 0.37487 0.50992 0.0
C868 C 0.45871 0.35979 0.47598 0.0
C869 C 0.46757 0.40435 0.43412 0.0
C870 C 0.49043 0.41949 0.47872 0.0
N871 N 0.52341 0.41995 0.5552 0.0
N872 N 0.4237 0.36214 0.40779 0.0
C873 C 0.5 0.40491 0.51559 0.0
C874 C 0.44968 0.37502 0.43825 0.0
N875 N 0.49802 0.36094 0.53433 0.0
N876 N 0.46308 0.4177 0.38675 0.0
H877 H 0.40939 0.3407 0.40573 0.0
H878 H 0.41519 0.3734 0.38803 0.0
H879 H 0.47642 0.4388 0.37999 0.0
H880 H 0.44831 0.40703 0.34931 0.0
H881 H 0.51835 0.37101 0.55428 0.0
H882 H 0.4903 0.33939 0.52812 0.0
H883 H 0.53019 0.41103 0.58821 0.0
H884 H 0.53593 0.44182 0.55614 0.0
C885 C 0.5147 0.88761 0.71848 0.0
C886 C 0.54387 0.89939 0.73288 0.0
C887 C 0.55271 0.94413 0.69457 0.0
C888 C 0.52369 0.93329 0.68503 0.0
N889 N 0.47822 0.89234 0.66408 0.0
N890 N 0.58917 0.93247 0.70062 0.0
C891 C 0.50503 0.90415 0.6891 0.0
C892 C 0.56246 0.92559 0.70967 0.0
N893 N 0.49615 0.86124 0.73464 0.0
N894 N 0.57099 0.97227 0.69328 0.0
H895 H 0.59609 0.91811 0.7054 0.0
H896 H 0.60294 0.95063 0.67987 0.0
H897 H 0.56463 0.98664 0.68368 0.0
H898 H 0.59214 0.98145 0.70663 0.0
H899 H 0.4748 0.85344 0.73341 0.0
H900 H 0.50194 0.84734 0.75159 0.0
H901 H 0.46422 0.87072 0.66013 0.0
H902 H 0.47091 0.904 0.64113 0.0
C903 C 0.62073 0.5463 0.86095 0.0
C904 C 0.63445 0.52235 0.84233 0.0
C905 C 0.59282 0.49313 0.72611 0.0
C906 C 0.58448 0.5211 0.73337 0.0
N907 N 0.58936 0.56628 0.80497 0.0
N908 N 0.62185 0.47007 0.78334 0.0
C909 C 0.59725 0.54673 0.80054 0.0
C910 C 0.61604 0.49114 0.78464 0.0
N911 N 0.63115 0.56508 0.91125 0.0
N912 N 0.58306 0.47488 0.67488 0.0
H913 H 0.63566 0.47012 0.81778 0.0
H914 H 0.61207 0.45313 0.74965 0.0
H915 H 0.57053 0.47649 0.63974 0.0
H916 H 0.58838 0.4593 0.66859 0.0
H917 H 0.62455 0.57956 0.91974 0.0
H918 H 0.64601 0.56513 0.94266 0.0
H919 H 0.59644 0.58127 0.84287 0.0
H920 H 0.57611 0.56686 0.77012 0.0
C921 C 0.07522 0.60789 0.90413 0.0
C922 C 0.08606 0.63203 0.86858 0.0
C923 C 0.09956 0.60771 0.79142 0.0
C924 C 0.08443 0.58249 0.82137 0.0
N925 N 0.07668 0.56566 0.92437 0.0
N926 N 0.12167 0.65872 0.79913 0.0
C927 C 0.07811 0.58464 0.88368 0.0
C928 C 0.10238 0.63325 0.81835 0.0
N929 N 0.06197 0.60669 0.95675 0.0
N930 N 0.1119 0.60733 0.73849 0.0
H931 H 0.12684 0.67788 0.82273 0.0
H932 H 0.13534 0.66105 0.76542 0.0
H933 H 0.11393 0.59011 0.72399 0.0
H934 H 0.12003 0.62394 0.70976 0.0
H935 H 0.05074 0.58812 0.97874 0.0
H936 H 0.06096 0.62361 0.97725 0.0
H937 H 0.07388 0.56742 0.97156 0.0
H938 H 0.08283 0.55101 0.91334 0.0
C939 C 0.48968 0.10978 0.83274 0.0
C940 C 0.47088 0.09651 0.90419 0.0
C941 C 0.45583 0.0351 0.86871 0.0
C942 C 0.47994 0.04849 0.80799 0.0
N943 N 0.51397 0.09386 0.74364 0.0
N944 N 0.43063 0.04964 0.96031 0.0
C945 C 0.4962 0.08501 0.78909 0.0
C946 C 0.44831 0.05846 0.91467 0.0
N947 N 0.5004 0.13687 0.81925 0.0
N948 N 0.443 0.00745 0.87886 0.0
H949 H 0.42834 0.06431 0.98803 0.0
H950 H 0.41898 0.02838 0.9684 0.0
H951 H 0.4476 0.99371 0.85436 0.0
H952 H 0.42881 0.99931 0.91279 0.0
H953 H 0.51186 0.14436 0.78054 0.0
H954 H 0.49674 0.15056 0.84697 0.0
H955 H 0.52367 0.11472 0.73196 0.0
H956 H 0.51947 0.08023 0.72172 0.0
C957 C 0.39015 0.45983 0.87832 0.0
C958 C 0.37446 0.43078 0.89175 0.0
C959 C 0.40586 0.42104 0.83304 0.0
C960 C 0.42078 0.44954 0.81903 0.0
N961 N 0.42783 0.49661 0.82818 0.0
N962 N 0.36138 0.38286 0.8556 0.0
C963 C 0.41328 0.46905 0.84206 0.0
C964 C 0.38064 0.41103 0.86209 0.0
N965 N 0.38276 0.47922 0.89541 0.0
N966 N 0.41596 0.40351 0.81891 0.0
H967 H 0.34077 0.37461 0.86598 0.0
H968 H 0.36439 0.36814 0.83023 0.0
H969 H 0.43471 0.41038 0.79835 0.0
H970 H 0.40737 0.38319 0.83373 0.0
H971 H 0.36492 0.475 0.91735 0.0
H972 H 0.36492 0.475 0.91735 0.0
H973 H 0.42294 0.5117 0.84426 0.0
H974 H 0.44492 0.50446 0.80127 0.0
C975 C 0.89206 0.4114 0.80751 0.0
C976 C 0.87582 0.37516 0.76821 0.0
C977 C 0.93054 0.38718 0.7095 0.0
C978 C 0.94901 0.42027 0.76022 0.0
N979 N 0.9432 0.45773 0.84151 0.0
N980 N 0.87834 0.34098 0.67117 0.0
C981 C 0.92984 0.43266 0.80744 0.0
C982 C 0.89284 0.3653 0.70752 0.0
N983 N 0.87686 0.41984 0.83946 0.0
N984 N 0.94461 0.37786 0.67548 0.0
H985 H 0.85697 0.32835 0.67449 0.0
H986 H 0.88789 0.3345 0.63915 0.0
H987 H 0.96614 0.38735 0.6798 0.0
H988 H 0.93401 0.35918 0.64701 0.0
H989 H 0.88593 0.43976 0.86304 0.0
H990 H 0.85547 0.40633 0.84022 0.0
H991 H 0.93218 0.46448 0.86816 0.0
H992 H 0.96461 0.47083 0.84365 0.0
C993 C 0.92673 0.51296 0.79179 0.0
C994 C 0.93538 0.52425 0.85457 0.0
C995 C 0.98072 0.52894 0.84246 0.0
C996 C 0.97445 0.52435 0.77696 0.0
N997 N 0.94061 0.50868 0.68854 0.0
N998 N 0.96172 0.52197 0.94333 0.0
C999 C 0.94697 0.51481 0.75142 0.0
C1000 C 0.95975 0.52581 0.88157 0.0
N1001 N 0.89909 0.49872 0.77258 0.0
N1002 N 0.00686 0.53737 0.86718 0.0
H1003 H 0.94492 0.51624 0.97063 0.0
H1004 H 0.97814 0.52065 0.96473 0.0
H1005 H 0.02243 0.53945 0.83944 0.0
H1006 H 0.01329 0.54384 0.91416 0.0
H1007 H 0.89115 0.48819 0.72863 0.0
H1008 H 0.88388 0.49433 0.80379 0.0
H1009 H 0.92201 0.50508 0.66627 0.0
H1010 H 0.95457 0.50844 0.65807 0.0
C1011 C 0.34066 0.90845 0.76979 0.0
C1012 C 0.32272 0.88843 0.72096 0.0
C1013 C 0.35676 0.91361 0.64583 0.0
C1014 C 0.37672 0.93014 0.69588 0.0
N1015 N 0.38666 0.94745 0.80423 0.0
N1016 N 0.30767 0.88714 0.61374 0.0
C1017 C 0.36825 0.92897 0.7576 0.0
C1018 C 0.32879 0.89546 0.65885 0.0
N1019 N 0.33045 0.90906 0.826 0.0
N1020 N 0.36452 0.91398 0.58643 0.0
H1021 H 0.28705 0.87814 0.62498 0.0
H1022 H 0.3109 0.8933 0.56832 0.0
H1023 H 0.38491 0.92642 0.57458 0.0
H1024 H 0.35098 0.90005 0.54995 0.0
H1025 H 0.34164 0.92382 0.86326 0.0
H1026 H 0.30943 0.89653 0.83287 0.0
H1027 H 0.38345 0.94575 0.85145 0.0
H1028 H 0.40567 0.96464 0.79525 0.0
C1029 C 0.4559 0.35145 0.76138 0.0
C1030 C 0.47995 0.3486 0.76572 0.0
C1031 C 0.50574 0.39425 0.71932 0.0
C1032 C 0.48041 0.39389 0.70471 0.0
N1033 N 0.43008 0.36891 0.70481 0.0
N1034 N 0.52913 0.36919 0.74987 0.0
C1035 C 0.45507 0.37122 0.72239 0.0
C1036 C 0.50527 0.37054 0.74491 0.0
N1037 N 0.43484 0.33756 0.79935 0.0
N1038 N 0.53051 0.41777 0.71082 0.0
H1039 H 0.53161 0.35496 0.77577 0.0
H1040 H 0.54655 0.38187 0.72617 0.0
H1041 H 0.53183 0.43461 0.68768 0.0
H1042 H 0.54963 0.42124 0.72953 0.0
H1043 H 0.41795 0.34077 0.80109 0.0
H1044 H 0.43631 0.32674 0.83654 0.0
H1045 H 0.41115 0.3509 0.71091 0.0
H1046 H 0.42786 0.38362 0.6802 0.0
C1047 C 0.06859 0.38151 0.81709 0.0
C1048 C 0.07417 0.38918 0.88249 0.0
C1049 C 0.08666 0.43732 0.85993 0.0
C1050 C 0.07145 0.42687 0.8011 0.0
N1051 N 0.05521 0.39047 0.71606 0.0
N1052 N 0.09493 0.42756 0.9642 0.0
C1053 C 0.06488 0.39951 0.77687 0.0
C1054 C 0.08536 0.41811 0.90338 0.0
N1055 N 0.06822 0.35788 0.79297 0.0
N1056 N 0.10351 0.46574 0.8727 0.0
H1057 H 0.09906 0.41619 0.99612 0.0
H1058 H 0.0989 0.44716 0.98302 0.0
H1059 H 0.10649 0.47999 0.83919 0.0
H1060 H 0.11705 0.47474 0.91271 0.0
H1061 H 0.06694 0.35274 0.74532 0.0
H1062 H 0.07231 0.34497 0.82011 0.0
H1063 H 0.04503 0.36928 0.69969 0.0
H1064 H 0.05837 0.40413 0.68134 0.0
C1065 C 0.58232 0.07249 0.87314 0.0
C1066 C 0.60529 0.09889 0.86096 0.0
C1067 C 0.5891 0.08951 0.75041 0.0
C1068 C 0.57167 0.06061 0.76081 0.0
N1069 N 0.54911 0.02465 0.83236 0.0
N1070 N 0.61703 0.13751 0.7968 0.0
C1071 C 0.56702 0.05216 0.8224 0.0
C1072 C 0.60462 0.10912 0.80199 0.0
N1073 N 0.57376 0.068 0.932 0.0
N1074 N 0.5914 0.098 0.69112 0.0
H1075 H 0.62571 0.15198 0.83577 0.0
H1076 H 0.61561 0.14646 0.75616 0.0
H1077 H 0.57888 0.08464 0.65276 0.0
H1078 H 0.60639 0.11792 0.6796 0.0
H1079 H 0.55589 0.04993 0.943 0.0
H1080 H 0.58251 0.08421 0.9676 0.0
H1081 H 0.54728 0.01678 0.87614 0.0
H1082 H 0.53722 0.00943 0.79609 0.0
C1083 C 0.56165 0.61761 0.80947 0.0
C1084 C 0.58299 0.63534 0.77103 0.0
C1085 C 0.55376 0.60509 0.679 0.0
C1086 C 0.53793 0.58394 0.71871 0.0
N1087 N 0.51575 0.57641 0.81453 0.0
N1088 N 0.59562 0.64903 0.66616 0.0
C1089 C 0.53849 0.59207 0.78224 0.0
C1090 C 0.5777 0.63029 0.70472 0.0
N1091 N 0.56342 0.62503 0.87166 0.0
N1092 N 0.54432 0.60215 0.61811 0.0
H1093 H 0.61173 0.66909 0.68153 0.0
H1094 H 0.59506 0.64428 0.61855 0.0
H1095 H 0.5247 0.58569 0.60164 0.0
H1096 H 0.55366 0.6177 0.58707 0.0
H1097 H 0.55162 0.61101 0.90375 0.0
H1098 H 0.57619 0.64553 0.89143 0.0
H1099 H 0.51357 0.58178 0.86001 0.0
H1100 H 0.49747 0.55954 0.79272 0.0
C1101 C 0.45844 0.0971 0.54424 0.0
C1102 C 0.4654 0.11191 0.46686 0.0
C1103 C 0.48791 0.07372 0.41976 0.0
C1104 C 0.48878 0.06434 0.50067 0.0
N1105 N 0.47567 0.06992 0.62123 0.0
N1106 N 0.47053 0.10178 0.34073 0.0
C1107 C 0.47356 0.07546 0.56168 0.0
C1108 C 0.47307 0.09534 0.39955 0.0
N1109 N 0.44747 0.10628 0.58771 0.0
N1110 N 0.49677 0.06362 0.37295 0.0
H1111 H 0.46273 0.11518 0.33227 0.0
H1112 H 0.47569 0.09332 0.30287 0.0
H1113 H 0.50356 0.04932 0.3782 0.0
H1114 H 0.49621 0.06935 0.32768 0.0
H1115 H 0.44497 0.09926 0.63244 0.0
H1116 H 0.44095 0.12045 0.57636 0.0
H1117 H 0.467 0.07603 0.65618 0.0
H1118 H 0.48861 0.0623 0.63445 0.0
C1119 C 0.42766 0.50166 0.36789 0.0
C1120 C 0.41496 0.51639 0.39405 0.0
C1121 C 0.41819 0.49985 0.4965 0.0
C1122 C 0.43523 0.48982 0.47292 0.0
N1123 N 0.45436 0.47821 0.38654 0.0
N1124 N 0.38844 0.51862 0.47916 0.0
C1125 C 0.43905 0.48946 0.40836 0.0
C1126 C 0.40706 0.51198 0.45639 0.0
N1127 N 0.42832 0.49889 0.30467 0.0
N1128 N 0.41311 0.49875 0.5582 0.0
H1129 H 0.37702 0.5253 0.45249 0.0
H1130 H 0.37702 0.5253 0.45249 0.0
H1131 H 0.42105 0.49049 0.59053 0.0
H1132 H 0.40111 0.50652 0.5772 0.0
H1133 H 0.43533 0.48674 0.2822 0.0
H1134 H 0.41969 0.50682 0.27339 0.0
H1135 H 0.46021 0.47901 0.34115 0.0
H1136 H 0.46219 0.46865 0.4154 0.0
C1137 C 0.95872 0.40413 0.42584 0.0
C1138 C 0.93821 0.38625 0.46492 0.0
C1139 C 0.95363 0.42701 0.54103 0.0
C1140 C 0.97801 0.44253 0.50888 0.0
N1141 N 0.00418 0.4446 0.42002 0.0
N1142 N 0.91051 0.38518 0.55048 0.0
C1143 C 0.98056 0.4309 0.45079 0.0
C1144 C 0.934 0.39877 0.51968 0.0
N1145 N 0.95625 0.39648 0.36355 0.0
N1146 N 0.94834 0.43937 0.59105 0.0
H1147 H 0.89347 0.36551 0.53568 0.0
H1148 H 0.89347 0.36551 0.53568 0.0
H1149 H 0.96024 0.4608 0.60515 0.0
H1150 H 0.93103 0.42839 0.61657 0.0
H1151 H 0.96933 0.40986 0.33195 0.0
H1152 H 0.93877 0.37865 0.34194 0.0
H1153 H 0.00822 0.43512 0.38202 0.0
H1154 H 0.02086 0.46438 0.43491 0.0
C1155 C 0.57338 0.91742 0.41628 0.0
C1156 C 0.54879 0.89034 0.41508 0.0
C1157 C 0.52613 0.91126 0.47479 0.0
C1158 C 0.55062 0.93789 0.47715 0.0
N1159 N 0.59608 0.96802 0.44231 0.0
N1160 N 0.49868 0.86572 0.41845 0.0
C1161 C 0.57395 0.94143 0.44607 0.0
C1162 C 0.52418 0.88843 0.43705 0.0
N1163 N 0.59596 0.92047 0.38734 0.0
N1164 N 0.50475 0.90763 0.50939 0.0
H1165 H 0.49589 0.84975 0.38594 0.0
H1166 H 0.48006 0.86455 0.42891 0.0
H1167 H 0.50544 0.92402 0.5373 0.0
H1168 H 0.4876 0.8879 0.51487 0.0
H1169 H 0.61591 0.93778 0.39616 0.0
H1170 H 0.59466 0.90593 0.35276 0.0
H1171 H 0.61237 0.97281 0.41424 0.0
H1172 H 0.59761 0.98598 0.465 0.0
C1173 C 0.67997 0.62174 0.39262 0.0
C1174 C 0.69103 0.59567 0.37225 0.0
C1175 C 0.64423 0.54881 0.44135 0.0
C1176 C 0.62854 0.5709 0.44646 0.0
N1177 N 0.63447 0.62318 0.43284 0.0
N1178 N 0.69086 0.54683 0.40721 0.0
C1179 C 0.64643 0.60721 0.42523 0.0
C1180 C 0.67766 0.56177 0.40953 0.0
N1181 N 0.69385 0.64826 0.37465 0.0
N1182 N 0.63112 0.52283 0.46265 0.0
H1183 H 0.70982 0.55498 0.38704 0.0
H1184 H 0.68276 0.52737 0.42622 0.0
H1185 H 0.6122 0.51533 0.48265 0.0
H1186 H 0.6397 0.50979 0.46007 0.0
H1187 H 0.68675 0.66234 0.38291 0.0
H1188 H 0.71214 0.65499 0.35229 0.0
H1189 H 0.64428 0.64397 0.42064 0.0
H1190 H 0.61501 0.61495 0.45056 0.0
C1191 C 0.16149 0.66179 0.55532 0.0
C1192 C 0.1562 0.68079 0.52194 0.0
C1193 C 0.10628 0.65117 0.53338 0.0
C1194 C 0.11122 0.6323 0.56704 0.0
N1195 N 0.14266 0.61751 0.60538 0.0
N1196 N 0.12235 0.68392 0.45349 0.0
C1197 C 0.13867 0.63702 0.57658 0.0
C1198 C 0.12825 0.67279 0.50357 0.0
N1199 N 0.18806 0.66666 0.56381 0.0
N1200 N 0.08046 0.6484 0.52898 0.0
H1201 H 0.13736 0.69663 0.42413 0.0
H1202 H 0.10214 0.677 0.43514 0.0
H1203 H 0.06345 0.63259 0.549 0.0
H1204 H 0.07666 0.66346 0.51038 0.0
H1205 H 0.19424 0.65581 0.59267 0.0
H1206 H 0.20443 0.68149 0.54047 0.0
H1207 H 0.1618 0.61901 0.61499 0.0
H1208 H 0.12625 0.59913 0.61998 0.0
loop_
_geom_bond_atom_site_label_1
_geom_bond_atom_site_label_2
_geom_bond_distance
_geom_bond_site_symmetry_2
_ccdc_geom_bond_type
C0 C1 1.560 . S
C0 H61 0.959 . S
C0 H62 0.959 . S
C0 H63 0.960 . S
C1 C0 1.560 . S
C1 O56 1.426 . S
C1 H60 0.980 . S
C2 C3 1.407 . S
C2 C7 1.418 . S
C2 O56 1.334 . S
C3 C2 1.407 . S
C3 C4 1.360 . S
C3 H64 0.929 . S
C4 C3 1.360 . S
C4 C5 1.401 . S
C4 C8 1.527 . S
C5 C4 1.401 . S
C5 C6 1.405 . S
C5 C38 1.587 . S
C6 C5 1.405 . S
C6 C7 1.332 . S
C6 C9 1.496 . S
C7 C2 1.418 . S
C7 C6 1.332 . S
C7 H65 0.929 . S
C8 C4 1.527 . S
C8 H66 0.959 . S
C8 H67 0.961 . S
C8 H68 0.961 . S
C9 C6 1.496 . S
C9 H69 0.960 . S
C9 H70 0.960 . S
C9 H71 0.961 . S
C10 C11 1.517 . S
C10 H73 0.961 . S
C10 H74 0.960 . S
C10 H75 0.959 . S
C11 C10 1.517 . S
C11 O59 1.468 . S
C11 H72 0.980 . S
C12 C13 1.349 . S
C12 C17 1.367 . S
C12 O59 1.408 . S
C13 C12 1.349 . S
C13 C14 1.407 . S
C13 H76 0.930 . S
C14 C13 1.407 . S
C14 C15 1.449 . S
C14 C18 1.535 . S
C15 C14 1.449 . S
C15 C16 1.384 . S
C15 C40 1.553 . S
C16 C15 1.384 . S
C16 C17 1.364 . S
C16 C19 1.450 . S
C17 C12 1.367 . S
C17 C16 1.364 . S
C17 H77 0.931 . S
C18 C14 1.535 . S
C18 H78 0.959 . S
C18 H79 0.961 . S
C18 H80 0.959 . S
C19 C16 1.450 . S
C19 H81 0.960 . S
C19 H82 0.960 . S
C19 H83 0.960 . S
C20 C21 1.309 . S
C20 C25 1.304 . S
C20 O58 1.435 . S
C21 C20 1.309 . S
C21 C22 1.476 1_556 S
C21 H85 0.930 . S
C22 C21 1.476 1_554 S
C22 C23 1.400 . S
C22 C26 1.567 . S
C23 C22 1.400 . S
C23 C24 1.373 . S
C23 C45 1.432 . S
C24 C23 1.373 . S
C24 C25 1.339 1_554 S
C24 C27 1.530 . S
C25 C20 1.304 . S
C25 C24 1.339 1_556 S
C25 H86 0.930 . S
C26 C22 1.567 . S
C26 H87 0.961 . S
C26 H88 0.960 . S
C26 H89 0.958 . S
C27 C24 1.530 . S
C27 H90 0.966 . S
C27 H91 0.960 . S
C27 H92 0.968 . S
C28 C29 1.530 . S
C28 H94 0.961 . S
C28 H95 0.961 . S
C28 H96 0.959 . S
C29 C28 1.530 . S
C29 O57 1.412 . S
C29 H93 0.980 . S
C30 C31 1.288 . S
C30 C35 1.377 . S
C30 O57 1.393 . S
C31 C30 1.288 . S
C31 C32 1.369 1_556 S
C31 H97 0.932 . S
C32 C31 1.369 1_554 S
C32 C33 1.398 . S
C32 C36 1.527 . S
C33 C32 1.398 . S
C33 C34 1.380 . S
C33 C47 1.497 . S
C34 C33 1.380 . S
C34 C35 1.383 1_554 S
C34 C37 1.603 . S
C35 C30 1.377 . S
C35 C34 1.383 1_556 S
C35 H98 0.929 . S
C36 C32 1.527 . S
C36 H99 0.961 . S
C36 H100 0.959 . S
C36 H101 0.959 . S
C37 C34 1.603 . S
C37 H102 0.960 1_554 S
C37 H103 0.962 . S
C37 H104 0.961 . S
C38 C5 1.587 . S
C38 C39 1.360 . S
C38 C51 1.412 . S
C39 C38 1.360 . S
C39 C40 1.365 . S
C39 H105 0.929 . S
C40 C15 1.553 . S
C40 C39 1.365 . S
C40 C41 1.404 . S
C41 C40 1.404 . S
C41 C42 1.395 . S
C41 C52 1.451 . S
C42 C41 1.395 . S
C42 C43 1.322 . S
C42 H106 0.930 . S
C43 C42 1.322 . S
C43 C44 1.459 . S
C43 H107 0.929 . S
C44 C43 1.459 . S
C44 C45 1.445 . S
C44 C53 1.395 . S
C45 C23 1.432 . S
C45 C44 1.445 . S
C45 C46 1.370 . S
C46 C45 1.370 . S
C46 C47 1.438 . S
C46 H108 0.939 . S
C47 C33 1.497 . S
C47 C46 1.438 . S
C47 C48 1.360 . S
C48 C47 1.360 . S
C48 C49 1.401 . S
C48 C53 1.446 . S
C49 C48 1.401 . S
C49 C50 1.347 . S
C49 H109 0.929 . S
C50 C49 1.347 . S
C50 C51 1.455 . S
C50 H110 0.930 . S
C51 C38 1.412 . S
C51 C50 1.455 . S
C51 C52 1.331 . S
C52 C41 1.451 . S
C52 C51 1.331 . S
C52 C53 1.497 . S
C53 C44 1.395 . S
C53 C48 1.446 . S
C53 C52 1.497 . S
C54 C55 1.582 . S
C54 H111 0.962 . S
C54 H112 0.959 . S
C54 H113 0.958 . S
C55 C54 1.582 . S
C55 O58 1.458 . S
C55 H84 0.980 . S
O56 C1 1.426 . S
O56 C2 1.334 . S
O57 C29 1.412 . S
O57 C30 1.393 . S
O58 C20 1.435 . S
O58 C55 1.458 . S
O59 C11 1.468 . S
O59 C12 1.408 . S
H60 C1 0.980 . S
H61 C0 0.959 . S
H62 C0 0.959 . S
H63 C0 0.960 . S
H64 C3 0.929 . S
H65 C7 0.929 . S
H66 C8 0.959 . S
H67 C8 0.961 . S
H68 C8 0.961 . S
H69 C9 0.960 . S
H70 C9 0.960 . S
H71 C9 0.961 . S
H72 C11 0.980 . S
H73 C10 0.961 . S
H74 C10 0.960 . S
H75 C10 0.959 . S
H76 C13 0.930 . S
H77 C17 0.931 . S
H78 C18 0.959 . S
H79 C18 0.961 . S
H80 C18 0.959 . S
H81 C19 0.960 . S
H82 C19 0.960 . S
H83 C19 0.960 . S
H84 C55 0.980 . S
H85 C21 0.930 . S
H86 C25 0.930 . S
H87 C26 0.961 . S
H88 C26 0.960 . S
H89 C26 0.958 . S
H90 C27 0.966 . S
H91 C27 0.960 . S
H92 C27 0.968 . S
H93 C29 0.980 . S
H94 C28 0.961 . S
H95 C28 0.961 . S
H96 C28 0.959 . S
H97 C31 0.932 . S
H98 C35 0.929 . S
H99 C36 0.961 . S
H100 C36 0.959 . S
H101 C36 0.959 . S
H102 C37 0.960 1_556 S
H103 C37 0.962 . S
H104 C37 0.961 . S
H105 C39 0.929 . S
H106 C42 0.930 . S
H107 C43 0.929 . S
H108 C46 0.939 . S
H109 C49 0.929 . S
H110 C50 0.930 . S
H111 C54 0.962 . S
H112 C54 0.959 . S
H113 C54 0.958 . S
C114 C115 1.560 . S
C114 H175 0.959 . S
C114 H176 0.959 . S
C114 H177 0.960 . S
C115 C114 1.560 . S
C115 O170 1.426 . S
C115 H174 0.980 . S
C116 C117 1.407 . S
C116 C121 1.418 . S
C116 O170 1.334 . S
C117 C116 1.407 . S
C117 C118 1.360 . S
C117 H178 0.929 . S
C118 C117 1.360 . S
C118 C119 1.401 . S
C118 C122 1.527 . S
C119 C118 1.401 . S
C119 C120 1.405 . S
C119 C152 1.587 . S
C120 C119 1.405 . S
C120 C121 1.332 . S
C120 C123 1.496 . S
C121 C116 1.418 . S
C121 C120 1.332 . S
C121 H179 0.929 . S
C122 C118 1.527 . S
C122 H180 0.959 . S
C122 H181 0.961 . S
C122 H182 0.961 . S
C123 C120 1.496 . S
C123 H183 0.960 . S
C123 H184 0.960 . S
C123 H185 0.961 . S
C124 C125 1.517 . S
C124 H187 0.961 . S
C124 H188 0.960 . S
C124 H189 0.959 . S
C125 C124 1.517 . S
C125 O173 1.468 . S
C125 H186 0.980 . S
C126 C127 1.349 . S
C126 C131 1.367 . S
C126 O173 1.408 . S
C127 C126 1.349 . S
C127 C128 1.407 . S
C127 H190 0.930 . S
C128 C127 1.407 . S
C128 C129 1.449 . S
C128 C132 1.535 . S
C129 C128 1.449 . S
C129 C130 1.384 . S
C129 C154 1.553 . S
C130 C129 1.384 . S
C130 C131 1.364 . S
C130 C133 1.450 . S
C131 C126 1.367 . S
C131 C130 1.364 . S
C131 H191 0.931 . S
C132 C128 1.535 . S
C132 H192 0.959 . S
C132 H193 0.961 . S
C132 H194 0.959 . S
C133 C130 1.450 . S
C133 H195 0.960 . S
C133 H196 0.960 . S
C133 H197 0.960 . S
C134 C135 1.309 . S
C134 C139 1.304 . S
C134 O172 1.435 . S
C135 C134 1.309 . S
C135 C136 1.476 . S
C135 H199 0.930 . S
C136 C135 1.476 . S
C136 C137 1.400 . S
C136 C140 1.567 . S
C137 C136 1.400 . S
C137 C138 1.373 . S
C137 C159 1.432 . S
C138 C137 1.373 . S
C138 C139 1.339 . S
C138 C141 1.530 . S
C139 C134 1.304 . S
C139 C138 1.339 . S
C139 H200 0.930 . S
C140 C136 1.567 . S
C140 H201 0.971 . S
C140 H202 0.960 . S
C140 H203 0.958 . S
C141 C138 1.530 . S
C141 H204 0.961 . S
C141 H205 0.960 . S
C141 H206 0.960 . S
C142 C143 1.530 . S
C142 H208 0.961 . S
C142 H209 0.961 . S
C142 H210 0.959 . S
C143 C142 1.530 . S
C143 O171 1.412 . S
C143 H207 0.980 . S
C144 C145 1.288 . S
C144 C149 1.377 . S
C144 O171 1.393 . S
C145 C144 1.288 . S
C145 C146 1.369 . S
C145 H211 0.932 . S
C146 C145 1.369 . S
C146 C147 1.398 . S
C146 C150 1.527 . S
C147 C146 1.398 . S
C147 C148 1.380 . S
C147 C161 1.497 . S
C148 C147 1.380 . S
C148 C149 1.383 . S
C148 C151 1.603 . S
C149 C144 1.377 . S
C149 C148 1.383 . S
C149 H212 0.929 . S
C150 C146 1.527 . S
C150 H213 0.961 . S
C150 H214 0.959 . S
C150 H215 0.959 . S
C151 C148 1.603 . S
C151 H216 0.960 . S
C151 H217 0.962 . S
C151 H218 0.961 . S
C152 C119 1.587 . S
C152 C153 1.360 . S
C152 C165 1.412 . S
C153 C152 1.360 . S
C153 C154 1.365 . S
C153 H219 0.929 . S
C154 C129 1.553 . S
C154 C153 1.365 . S
C154 C155 1.404 . S
C155 C154 1.404 . S
C155 C156 1.395 . S
C155 C166 1.451 . S
C156 C155 1.395 . S
C156 C157 1.322 . S
C156 H220 0.930 . S
C157 C156 1.322 . S
C157 C158 1.459 . S
C157 H221 0.929 . S
C158 C157 1.459 . S
C158 C159 1.445 1_554 S
C158 C167 1.395 . S
C159 C137 1.432 . S
C159 C158 1.445 1_556 S
C159 C160 1.370 . S
C160 C159 1.370 . S
C160 C161 1.438 . S
C160 H222 0.930 . S
C161 C147 1.497 . S
C161 C160 1.438 . S
C161 C162 1.360 1_556 S
C162 C161 1.360 1_554 S
C162 C163 1.401 . S
C162 C167 1.446 . S
C163 C162 1.401 . S
C163 C164 1.347 . S
C163 H223 0.929 . S
C164 C163 1.347 . S
C164 C165 1.455 . S
C164 H224 0.930 . S
C165 C152 1.412 . S
C165 C164 1.455 . S
C165 C166 1.331 . S
C166 C155 1.451 . S
C166 C165 1.331 . S
C166 C167 1.497 . S
C167 C158 1.395 . S
C167 C162 1.446 . S
C167 C166 1.497 . S
C168 C169 1.582 . S
C168 H225 0.962 . S
C168 H226 0.959 . S
C168 H227 0.958 . S
C169 C168 1.582 . S
C169 O172 1.458 . S
C169 H198 0.980 . S
O170 C115 1.426 . S
O170 C116 1.334 . S
O171 C143 1.412 . S
O171 C144 1.393 . S
O172 C134 1.435 . S
O172 C169 1.458 . S
O173 C125 1.468 . S
O173 C126 1.408 . S
H174 C115 0.980 . S
H175 C114 0.959 . S
H176 C114 0.959 . S
H177 C114 0.960 . S
H178 C117 0.929 . S
H179 C121 0.929 . S
H180 C122 0.959 . S
H181 C122 0.961 . S
H182 C122 0.961 . S
H183 C123 0.960 . S
H184 C123 0.960 . S
H185 C123 0.961 . S
H186 C125 0.980 . S
H187 C124 0.961 . S
H188 C124 0.960 . S
H189 C124 0.959 . S
H190 C127 0.930 . S
H191 C131 0.931 . S
H192 C132 0.959 . S
H193 C132 0.961 . S
H194 C132 0.959 . S
H195 C133 0.960 . S
H196 C133 0.960 . S
H197 C133 0.960 . S
H198 C169 0.980 . S
H199 C135 0.930 . S
H200 C139 0.930 . S
H201 C140 0.971 . S
H202 C140 0.960 . S
H203 C140 0.958 . S
H204 C141 0.961 . S
H205 C141 0.960 . S
H206 C141 0.960 . S
H207 C143 0.980 . S
H208 C142 0.961 . S
H209 C142 0.961 . S
H210 C142 0.959 . S
H211 C145 0.932 . S
H212 C149 0.929 . S
H213 C150 0.961 . S
H214 C150 0.959 . S
H215 C150 0.959 . S
H216 C151 0.960 . S
H217 C151 0.962 . S
H218 C151 0.961 . S
H219 C153 0.929 . S
H220 C156 0.930 . S
H221 C157 0.929 . S
H222 C160 0.930 . S
H223 C163 0.929 . S
H224 C164 0.930 . S
H225 C168 0.962 . S
H226 C168 0.959 . S
H227 C168 0.958 . S
C228 C229 1.560 . S
C228 H289 0.959 . S
C228 H290 0.959 . S
C228 H291 0.960 . S
C229 C228 1.560 . S
C229 O284 1.426 . S
C229 H288 0.980 . S
C230 C231 1.407 . S
C230 C235 1.418 . S
C230 O284 1.334 . S
C231 C230 1.407 . S
C231 C232 1.360 . S
C231 H292 0.929 . S
C232 C231 1.360 . S
C232 C233 1.401 . S
C232 C236 1.527 . S
C233 C232 1.401 . S
C233 C234 1.405 . S
C233 C266 1.587 . S
C234 C233 1.405 . S
C234 C235 1.332 . S
C234 C237 1.496 . S
C235 C230 1.418 . S
C235 C234 1.332 . S
C235 H293 0.929 . S
C236 C232 1.527 . S
C236 H294 0.959 . S
C236 H295 0.961 . S
C236 H296 0.961 . S
C237 C234 1.496 . S
C237 H297 0.960 . S
C237 H298 0.960 . S
C237 H299 0.961 . S
C238 C239 1.517 . S
C238 H301 0.961 . S
C238 H302 0.960 . S
C238 H303 0.959 . S
C239 C238 1.517 . S
C239 O287 1.468 . S
C239 H300 0.980 . S
C240 C241 1.349 . S
C240 C245 1.367 . S
C240 O287 1.408 . S
C241 C240 1.349 . S
C241 C242 1.407 . S
C241 H304 0.930 . S
C242 C241 1.407 . S
C242 C243 1.449 . S
C242 C246 1.535 . S
C243 C242 1.449 . S
C243 C244 1.384 . S
C243 C268 1.553 . S
C244 C243 1.384 . S
C244 C245 1.364 . S
C244 C247 1.450 . S
C245 C240 1.367 . S
C245 C244 1.364 . S
C245 H305 0.931 . S
C246 C242 1.535 . S
C246 H306 0.959 . S
C246 H307 0.961 . S
C246 H308 0.959 . S
C247 C244 1.450 . S
C247 H309 0.960 . S
C247 H310 0.960 . S
C247 H311 0.960 . S
C248 C249 1.309 . S
C248 C253 1.304 . S
C248 O286 1.435 . S
C249 C248 1.309 . S
C249 C250 1.476 . S
C249 H313 0.930 . S
C250 C249 1.476 . S
C250 C251 1.400 . S
C250 C254 1.567 . S
C251 C250 1.400 . S
C251 C252 1.373 . S
C251 C273 1.432 . S
C252 C251 1.373 . S
C252 C253 1.339 . S
C252 C255 1.530 . S
C253 C248 1.304 . S
C253 C252 1.339 . S
C253 H314 0.930 . S
C254 C250 1.567 . S
C254 H315 0.961 . S
C254 H316 0.960 . S
C254 H317 0.958 . S
C255 C252 1.530 . S
C255 H318 0.961 . S
C255 H319 0.960 . S
C255 H320 0.960 . S
C256 C257 1.530 . S
C256 H322 0.961 . S
C256 H323 0.961 . S
C256 H324 0.959 . S
C257 C256 1.530 . S
C257 O285 1.412 . S
C257 H321 0.980 . S
C258 C259 1.288 . S
C258 C263 1.377 . S
C258 O285 1.393 . S
C259 C258 1.288 . S
C259 C260 1.369 . S
C259 H325 0.932 . S
C260 C259 1.369 . S
C260 C261 1.398 . S
C260 C264 1.527 . S
C261 C260 1.398 . S
C261 C262 1.380 . S
C261 C275 1.497 . S
C262 C261 1.380 . S
C262 C263 1.383 . S
C262 C265 1.603 . S
C263 C258 1.377 . S
C263 C262 1.383 . S
C263 H326 0.929 . S
C264 C260 1.527 . S
C264 H327 0.961 . S
C264 H328 0.959 . S
C264 H329 0.959 . S
C265 C262 1.603 . S
C265 H330 0.960 . S
C265 H331 0.962 . S
C265 H332 0.961 . S
C266 C233 1.587 . S
C266 C267 1.360 . S
C266 C279 1.412 . S
C267 C266 1.360 . S
C267 C268 1.365 . S
C267 H333 0.929 . S
C268 C243 1.553 . S
C268 C267 1.365 . S
C268 C269 1.404 . S
C269 C268 1.404 . S
C269 C270 1.395 . S
C269 C280 1.451 . S
C270 C269 1.395 . S
C270 C271 1.322 . S
C270 H334 0.930 . S
C271 C270 1.322 . S
C271 C272 1.459 1_554 S
C271 H335 0.929 . S
C272 C271 1.459 1_556 S
C272 C273 1.445 . S
C272 C281 1.395 1_556 S
C273 C251 1.432 . S
C273 C272 1.445 . S
C273 C274 1.370 . S
C274 C273 1.370 . S
C274 C275 1.438 . S
C274 H336 0.930 . S
C275 C261 1.497 . S
C275 C274 1.438 . S
C275 C276 1.360 . S
C276 C275 1.360 . S
C276 C277 1.401 1_556 S
C276 C281 1.446 1_556 S
C277 C276 1.401 1_554 S
C277 C278 1.347 . S
C277 H337 0.929 1_554 S
C278 C277 1.347 . S
C278 C279 1.455 . S
C278 H338 0.930 . S
C279 C266 1.412 . S
C279 C278 1.455 . S
C279 C280 1.331 . S
C280 C269 1.451 . S
C280 C279 1.331 . S
C280 C281 1.497 . S
C281 C272 1.395 1_554 S
C281 C276 1.446 1_554 S
C281 C280 1.497 . S
C282 C283 1.582 . S
C282 H339 0.962 . S
C282 H340 0.959 . S
C282 H341 0.958 . S
C283 C282 1.582 . S
C283 O286 1.458 . S
C283 H312 0.980 . S
O284 C229 1.426 . S
O284 C230 1.334 . S
O285 C257 1.412 . S
O285 C258 1.393 . S
O286 C248 1.435 . S
O286 C283 1.458 . S
O287 C239 1.468 . S
O287 C240 1.408 . S
H288 C229 0.980 . S
H289 C228 0.959 . S
H290 C228 0.959 . S
H291 C228 0.960 . S
H292 C231 0.929 . S
H293 C235 0.929 . S
H294 C236 0.959 . S
H295 C236 0.961 . S
H296 C236 0.961 . S
H297 C237 0.960 . S
H298 C237 0.960 . S
H299 C237 0.961 . S
H300 C239 0.980 . S
H301 C238 0.961 . S
H302 C238 0.960 . S
H303 C238 0.959 . S
H304 C241 0.930 . S
H305 C245 0.931 . S
H306 C246 0.959 . S
H307 C246 0.961 . S
H308 C246 0.959 . S
H309 C247 0.960 . S
H310 C247 0.960 . S
H311 C247 0.960 . S
H312 C283 0.980 . S
H313 C249 0.930 . S
H314 C253 0.930 . S
H315 C254 0.961 . S
H316 C254 0.960 . S
H317 C254 0.958 . S
H318 C255 0.961 . S
H319 C255 0.960 . S
H320 C255 0.960 . S
H321 C257 0.980 . S
H322 C256 0.961 . S
H323 C256 0.961 . S
H324 C256 0.959 . S
H325 C259 0.932 . S
H326 C263 0.929 . S
H327 C264 0.961 . S
H328 C264 0.959 . S
H329 C264 0.959 . S
H330 C265 0.960 . S
H331 C265 0.962 . S
H332 C265 0.961 . S
H333 C267 0.929 . S
H334 C270 0.930 . S
H335 C271 0.929 . S
H336 C274 0.930 . S
H337 C277 0.929 1_556 S
H338 C278 0.930 . S
H339 C282 0.962 . S
H340 C282 0.959 . S
H341 C282 0.958 . S
C342 C343 1.560 . S
C342 H403 0.959 . S
C342 H404 0.959 . S
C342 H405 0.960 . S
C343 C342 1.560 . S
C343 O398 1.426 . S
C343 H402 0.980 . S
C344 C345 1.407 . S
C344 C349 1.418 . S
C344 O398 1.334 . S
C345 C344 1.407 . S
C345 C346 1.360 . S
C345 H406 0.929 . S
C346 C345 1.360 . S
C346 C347 1.401 . S
C346 C350 1.527 . S
C347 C346 1.401 . S
C347 C348 1.405 . S
C347 C380 1.587 . S
C348 C347 1.405 . S
C348 C349 1.332 . S
C348 C351 1.496 . S
C349 C344 1.418 . S
C349 C348 1.332 . S
C349 H407 0.929 . S
C350 C346 1.527 . S
C350 H408 0.959 . S
C350 H409 0.961 . S
C350 H410 0.961 . S
C351 C348 1.496 . S
C351 H411 0.960 . S
C351 H412 0.960 . S
C351 H413 0.961 . S
C352 C353 1.517 . S
C352 H415 0.961 . S
C352 H416 0.960 . S
C352 H417 0.959 . S
C353 C352 1.517 . S
C353 O401 1.468 . S
C353 H414 0.980 . S
C354 C355 1.349 . S
C354 C359 1.367 . S
C354 O401 1.408 . S
C355 C354 1.349 . S
C355 C356 1.407 . S
C355 H418 0.930 . S
C356 C355 1.407 . S
C356 C357 1.449 . S
C356 C360 1.535 . S
C357 C356 1.449 . S
C357 C358 1.384 . S
C357 C382 1.553 . S
C358 C357 1.384 . S
C358 C359 1.364 . S
C358 C361 1.450 . S
C359 C354 1.367 . S
C359 C358 1.364 . S
C359 H419 0.931 . S
C360 C356 1.535 . S
C360 H420 0.959 . S
C360 H421 0.961 . S
C360 H422 0.959 . S
C361 C358 1.450 . S
C361 H423 0.960 . S
C361 H424 0.960 . S
C361 H425 0.960 . S
C362 C363 1.309 . S
C362 C367 1.304 . S
C362 O400 1.435 . S
C363 C362 1.309 . S
C363 C364 1.476 . S
C363 H427 0.930 . S
C364 C363 1.476 . S
C364 C365 1.400 . S
C364 C368 1.567 . S
C365 C364 1.400 . S
C365 C366 1.373 . S
C365 C387 1.432 . S
C366 C365 1.373 . S
C366 C367 1.339 . S
C366 C369 1.530 . S
C367 C362 1.304 . S
C367 C366 1.339 . S
C367 H428 0.930 . S
C368 C364 1.567 . S
C368 H429 0.961 . S
C368 H430 0.960 . S
C368 H431 0.958 . S
C369 C366 1.530 . S
C369 H432 0.961 . S
C369 H433 0.960 . S
C369 H434 0.960 . S
C370 C371 1.530 . S
C370 H436 0.961 . S
C370 H437 0.961 . S
C370 H438 0.959 . S
C371 C370 1.530 . S
C371 O399 1.412 . S
C371 H435 0.980 . S
C372 C373 1.288 . S
C372 C377 1.377 . S
C372 O399 1.393 . S
C373 C372 1.288 . S
C373 C374 1.369 . S
C373 H439 0.932 . S
C374 C373 1.369 . S
C374 C375 1.398 . S
C374 C378 1.527 . S
C375 C374 1.398 . S
C375 C376 1.380 . S
C375 C389 1.497 . S
C376 C375 1.380 . S
C376 C377 1.383 . S
C376 C379 1.603 . S
C377 C372 1.377 . S
C377 C376 1.383 . S
C377 H440 0.929 . S
C378 C374 1.527 . S
C378 H441 0.961 . S
C378 H442 0.959 . S
C378 H443 0.959 . S
C379 C376 1.603 . S
C379 H444 0.960 . S
C379 H445 0.962 . S
C379 H446 0.961 . S
C380 C347 1.587 . S
C380 C381 1.360 . S
C380 C393 1.412 . S
C381 C380 1.360 . S
C381 C382 1.365 . S
C381 H447 0.929 . S
C382 C357 1.553 . S
C382 C381 1.365 . S
C382 C383 1.404 . S
C383 C382 1.404 . S
C383 C384 1.395 . S
C383 C394 1.451 . S
C384 C383 1.395 . S
C384 C385 1.322 . S
C384 H448 0.930 . S
C385 C384 1.322 . S
C385 C386 1.459 1_554 S
C385 H449 0.929 1_554 S
C386 C385 1.459 1_556 S
C386 C387 1.445 . S
C386 C395 1.395 1_556 S
C387 C365 1.432 . S
C387 C386 1.445 . S
C387 C388 1.370 . S
C388 C387 1.370 . S
C388 C389 1.438 . S
C388 H450 0.930 . S
C389 C375 1.497 . S
C389 C388 1.438 . S
C389 C390 1.360 . S
C390 C389 1.360 . S
C390 C391 1.401 1_556 S
C390 C395 1.446 1_556 S
C391 C390 1.401 1_554 S
C391 C392 1.347 . S
C391 H451 0.929 1_554 S
C392 C391 1.347 . S
C392 C393 1.455 . S
C392 H452 0.930 . S
C393 C380 1.412 . S
C393 C392 1.455 . S
C393 C394 1.331 . S
C394 C383 1.451 . S
C394 C393 1.331 . S
C394 C395 1.497 . S
C395 C386 1.395 1_554 S
C395 C390 1.446 1_554 S
C395 C394 1.497 . S
C396 C397 1.582 . S
C396 H453 0.962 . S
C396 H454 0.959 . S
C396 H455 0.958 . S
C397 C396 1.582 . S
C397 O400 1.458 . S
C397 H426 0.980 . S
O398 C343 1.426 . S
O398 C344 1.334 . S
O399 C371 1.412 . S
O399 C372 1.393 . S
O400 C362 1.435 . S
O400 C397 1.458 . S
O401 C353 1.468 . S
O401 C354 1.408 . S
H402 C343 0.980 . S
H403 C342 0.959 . S
H404 C342 0.959 . S
H405 C342 0.960 . S
H406 C345 0.929 . S
H407 C349 0.929 . S
H408 C350 0.959 . S
H409 C350 0.961 . S
H410 C350 0.961 . S
H411 C351 0.960 . S
H412 C351 0.960 . S
H413 C351 0.961 . S
H414 C353 0.980 . S
H415 C352 0.961 . S
H416 C352 0.960 . S
H417 C352 0.959 . S
H418 C355 0.930 . S
H419 C359 0.931 . S
H420 C360 0.959 . S
H421 C360 0.961 . S
H422 C360 0.959 . S
H423 C361 0.960 . S
H424 C361 0.960 . S
H425 C361 0.960 . S
H426 C397 0.980 . S
H427 C363 0.930 . S
H428 C367 0.930 . S
H429 C368 0.961 . S
H430 C368 0.960 . S
H431 C368 0.958 . S
H432 C369 0.961 . S
H433 C369 0.960 . S
H434 C369 0.960 . S
H435 C371 0.980 . S
H436 C370 0.961 . S
H437 C370 0.961 . S
H438 C370 0.959 . S
H439 C373 0.932 . S
H440 C377 0.929 . S
H441 C378 0.961 . S
H442 C378 0.959 . S
H443 C378 0.959 . S
H444 C379 0.960 . S
H445 C379 0.962 . S
H446 C379 0.961 . S
H447 C381 0.929 . S
H448 C384 0.930 . S
H449 C385 0.929 1_556 S
H450 C388 0.930 . S
H451 C391 0.929 1_556 S
H452 C392 0.930 . S
H453 C396 0.962 . S
H454 C396 0.959 . S
H455 C396 0.958 . S
C456 C457 1.560 . S
C456 H517 0.959 . S
C456 H518 0.959 . S
C456 H519 0.960 . S
C457 C456 1.560 . S
C457 O512 1.426 . S
C457 H516 0.980 . S
C458 C459 1.407 . S
C458 C463 1.418 . S
C458 O512 1.334 . S
C459 C458 1.407 . S
C459 C460 1.360 . S
C459 H520 0.929 . S
C460 C459 1.360 . S
C460 C461 1.401 . S
C460 C464 1.527 . S
C461 C460 1.401 . S
C461 C462 1.405 . S
C461 C494 1.587 . S
C462 C461 1.405 . S
C462 C463 1.332 . S
C462 C465 1.496 . S
C463 C458 1.418 . S
C463 C462 1.332 . S
C463 H521 0.929 . S
C464 C460 1.527 . S
C464 H522 0.959 . S
C464 H523 0.961 . S
C464 H524 0.961 . S
C465 C462 1.496 . S
C465 H525 0.960 . S
C465 H526 0.960 . S
C465 H527 0.961 1_556 S
C466 C467 1.517 . S
C466 H529 0.961 . S
C466 H530 0.960 . S
C466 H531 0.959 . S
C467 C466 1.517 . S
C467 O515 1.468 . S
C467 H528 0.980 . S
C468 C469 1.349 . S
C468 C473 1.367 . S
C468 O515 1.408 . S
C469 C468 1.349 . S
C469 C470 1.407 . S
C469 H532 0.930 . S
C470 C469 1.407 . S
C470 C471 1.449 . S
C470 C474 1.535 . S
C471 C470 1.449 . S
C471 C472 1.384 . S
C471 C496 1.553 . S
C472 C471 1.384 . S
C472 C473 1.364 . S
C472 C475 1.450 . S
C473 C468 1.367 . S
C473 C472 1.364 . S
C473 H533 0.931 . S
C474 C470 1.535 . S
C474 H534 0.959 . S
C474 H535 0.961 . S
C474 H536 0.959 . S
C475 C472 1.450 . S
C475 H537 0.960 . S
C475 H538 0.960 . S
C475 H539 0.955 1_556 S
C476 C477 1.309 . S
C476 C481 1.304 . S
C476 O514 1.435 . S
C477 C476 1.309 . S
C477 C478 1.476 . S
C477 H541 0.930 . S
C478 C477 1.476 . S
C478 C479 1.400 . S
C478 C482 1.567 . S
C479 C478 1.400 . S
C479 C480 1.373 . S
C479 C501 1.432 . S
C480 C479 1.373 . S
C480 C481 1.339 . S
C480 C483 1.530 . S
C481 C476 1.304 . S
C481 C480 1.339 . S
C481 H542 0.930 . S
C482 C478 1.567 . S
C482 H543 0.961 . S
C482 H544 0.960 . S
C482 H545 0.958 . S
C483 C480 1.530 . S
C483 H546 0.961 . S
C483 H547 0.960 . S
C483 H548 0.960 . S
C484 C485 1.530 . S
C484 H550 0.961 . S
C484 H551 0.961 . S
C484 H552 0.959 . S
C485 C484 1.530 . S
C485 O513 1.412 . S
C485 H549 0.980 . S
C486 C487 1.288 . S
C486 C491 1.377 . S
C486 O513 1.393 . S
C487 C486 1.288 . S
C487 C488 1.369 . S
C487 H553 0.932 . S
C488 C487 1.369 . S
C488 C489 1.398 . S
C488 C492 1.527 . S
C489 C488 1.398 . S
C489 C490 1.380 . S
C489 C503 1.497 . S
C490 C489 1.380 . S
C490 C491 1.383 . S
C490 C493 1.603 . S
C491 C486 1.377 . S
C491 C490 1.383 . S
C491 H554 0.929 . S
C492 C488 1.527 . S
C492 H555 0.961 . S
C492 H556 0.959 . S
C492 H557 0.959 . S
C493 C490 1.603 . S
C493 H558 0.960 . S
C493 H559 0.962 . S
C493 H560 0.961 . S
C494 C461 1.587 . S
C494 C495 1.360 . S
C494 C507 1.412 1_556 S
C495 C494 1.360 . S
C495 C496 1.365 . S
C495 H561 0.929 . S
C496 C471 1.553 . S
C496 C495 1.365 . S
C496 C497 1.404 1_556 S
C497 C496 1.404 1_554 S
C497 C498 1.395 . S
C497 C508 1.451 . S
C498 C497 1.395 . S
C498 C499 1.322 . S
C498 H562 0.930 . S
C499 C498 1.322 . S
C499 C500 1.459 . S
C499 H563 0.929 . S
C500 C499 1.459 . S
C500 C501 1.445 . S
C500 C509 1.395 . S
C501 C479 1.432 . S
C501 C500 1.445 . S
C501 C502 1.370 . S
C502 C501 1.370 . S
C502 C503 1.438 . S
C502 H564 0.930 . S
C503 C489 1.497 . S
C503 C502 1.438 . S
C503 C504 1.360 . S
C504 C503 1.360 . S
C504 C505 1.401 . S
C504 C509 1.446 . S
C505 C504 1.401 . S
C505 C506 1.347 . S
C505 H565 0.929 . S
C506 C505 1.347 . S
C506 C507 1.455 . S
C506 H566 0.930 . S
C507 C494 1.412 1_554 S
C507 C506 1.455 . S
C507 C508 1.331 . S
C508 C497 1.451 . S
C508 C507 1.331 . S
C508 C509 1.497 . S
C509 C500 1.395 . S
C509 C504 1.446 . S
C509 C508 1.497 . S
C510 C511 1.582 . S
C510 H567 0.962 . S
C510 H568 0.959 . S
C510 H569 0.958 . S
C511 C510 1.582 . S
C511 O514 1.458 . S
C511 H540 0.980 . S
O512 C457 1.426 . S
O512 C458 1.334 . S
O513 C485 1.412 . S
O513 C486 1.393 . S
O514 C476 1.435 . S
O514 C511 1.458 . S
O515 C467 1.468 . S
O515 C468 1.408 . S
H516 C457 0.980 . S
H517 C456 0.959 . S
H518 C456 0.959 . S
H519 C456 0.960 . S
H520 C459 0.929 . S
H521 C463 0.929 . S
H522 C464 0.959 . S
H523 C464 0.961 . S
H524 C464 0.961 . S
H525 C465 0.960 . S
H526 C465 0.960 . S
H527 C465 0.961 1_554 S
H528 C467 0.980 . S
H529 C466 0.961 . S
H530 C466 0.960 . S
H531 C466 0.959 . S
H532 C469 0.930 . S
H533 C473 0.931 . S
H534 C474 0.959 . S
H535 C474 0.961 . S
H536 C474 0.959 . S
H537 C475 0.960 . S
H538 C475 0.960 . S
H539 C475 0.955 1_554 S
H540 C511 0.980 . S
H541 C477 0.930 . S
H542 C481 0.930 . S
H543 C482 0.961 . S
H544 C482 0.960 . S
H545 C482 0.958 . S
H546 C483 0.961 . S
H547 C483 0.960 . S
H548 C483 0.960 . S
H549 C485 0.980 . S
H550 C484 0.961 . S
H551 C484 0.961 . S
H552 C484 0.959 . S
H553 C487 0.932 . S
H554 C491 0.929 . S
H555 C492 0.961 . S
H556 C492 0.959 . S
H557 C492 0.959 . S
H558 C493 0.960 . S
H559 C493 0.962 . S
H560 C493 0.961 . S
H561 C495 0.929 . S
H562 C498 0.930 . S
H563 C499 0.929 . S
H564 C502 0.930 . S
H565 C505 0.929 . S
H566 C506 0.930 . S
H567 C510 0.962 . S
H568 C510 0.959 . S
H569 C510 0.958 . S
C570 C571 1.560 . S
C570 H631 0.959 . S
C570 H632 0.959 . S
C570 H633 0.960 . S
C571 C570 1.560 . S
C571 O626 1.426 . S
C571 H630 0.980 . S
C572 C573 1.407 . S
C572 C577 1.418 . S
C572 O626 1.334 . S
C573 C572 1.407 . S
C573 C574 1.360 . S
C573 H634 0.929 . S
C574 C573 1.360 . S
C574 C575 1.401 . S
C574 C578 1.527 . S
C575 C574 1.401 . S
C575 C576 1.405 . S
C575 C608 1.587 . S
C576 C575 1.405 . S
C576 C577 1.332 . S
C576 C579 1.496 . S
C577 C572 1.418 . S
C577 C576 1.332 . S
C577 H635 0.929 . S
C578 C574 1.527 . S
C578 H636 0.959 . S
C578 H637 0.961 . S
C578 H638 0.961 . S
C579 C576 1.496 . S
C579 H639 0.960 . S
C579 H640 0.960 . S
C579 H641 0.961 . S
C580 C581 1.517 . S
C580 H643 0.961 . S
C580 H644 0.960 . S
C580 H645 0.959 . S
C581 C580 1.517 . S
C581 O629 1.468 . S
C581 H642 0.980 . S
C582 C583 1.349 . S
C582 C587 1.367 . S
C582 O629 1.408 . S
C583 C582 1.349 . S
C583 C584 1.407 . S
C583 H646 0.930 . S
C584 C583 1.407 . S
C584 C585 1.449 . S
C584 C588 1.535 . S
C585 C584 1.449 . S
C585 C586 1.384 . S
C585 C610 1.553 . S
C586 C585 1.384 . S
C586 C587 1.364 . S
C586 C589 1.450 . S
C587 C582 1.367 . S
C587 C586 1.364 . S
C587 H647 0.931 . S
C588 C584 1.535 . S
C588 H648 0.959 . S
C588 H649 0.961 . S
C588 H650 0.959 . S
C589 C586 1.450 . S
C589 H651 0.960 . S
C589 H652 0.960 . S
C589 H653 0.960 . S
C590 C591 1.309 . S
C590 C595 1.304 . S
C590 O628 1.435 . S
C591 C590 1.309 . S
C591 C592 1.476 1_556 S
C591 H655 0.930 . S
C592 C591 1.476 1_554 S
C592 C593 1.400 . S
C592 C596 1.567 . S
C593 C592 1.400 . S
C593 C594 1.373 . S
C593 C615 1.432 . S
C594 C593 1.373 . S
C594 C595 1.339 1_554 S
C594 C597 1.530 . S
C595 C590 1.304 . S
C595 C594 1.339 1_556 S
C595 H656 0.930 . S
C596 C592 1.567 . S
C596 H657 0.961 . S
C596 H658 0.960 . S
C596 H659 0.957 . S
C597 C594 1.530 . S
C597 H660 0.961 . S
C597 H661 0.960 . S
C597 H662 0.960 . S
C598 C599 1.530 . S
C598 H664 0.961 . S
C598 H665 0.961 . S
C598 H666 0.959 . S
C599 C598 1.530 . S
C599 O627 1.412 . S
C599 H663 0.980 . S
C600 C601 1.288 . S
C600 C605 1.377 . S
C600 O627 1.393 . S
C601 C600 1.288 . S
C601 C602 1.363 1_556 S
C601 H667 0.932 . S
C602 C601 1.363 1_554 S
C602 C603 1.401 . S
C602 C606 1.530 . S
C603 C602 1.401 . S
C603 C604 1.380 . S
C603 C617 1.497 . S
C604 C603 1.380 . S
C604 C605 1.383 1_554 S
C604 C607 1.603 . S
C605 C600 1.377 . S
C605 C604 1.383 1_556 S
C605 H668 0.929 . S
C606 C602 1.530 . S
C606 H669 0.961 . S
C606 H670 0.959 1_554 S
C606 H671 0.959 . S
C607 C604 1.603 . S
C607 H672 0.960 1_554 S
C607 H673 0.962 . S
C607 H674 0.961 . S
C608 C575 1.587 . S
C608 C609 1.360 . S
C608 C621 1.412 . S
C609 C608 1.360 . S
C609 C610 1.365 . S
C609 H675 0.929 . S
C610 C585 1.553 . S
C610 C609 1.365 . S
C610 C611 1.404 . S
C611 C610 1.404 . S
C611 C612 1.395 . S
C611 C622 1.451 . S
C612 C611 1.395 . S
C612 C613 1.322 . S
C612 H676 0.930 . S
C613 C612 1.322 . S
C613 C614 1.459 . S
C613 H677 0.929 . S
C614 C613 1.459 . S
C614 C615 1.445 . S
C614 C623 1.395 . S
C615 C593 1.432 . S
C615 C614 1.445 . S
C615 C616 1.370 . S
C616 C615 1.370 . S
C616 C617 1.438 . S
C616 H678 0.930 1_554 S
C617 C603 1.497 . S
C617 C616 1.438 . S
C617 C618 1.360 . S
C618 C617 1.360 . S
C618 C619 1.401 . S
C618 C623 1.446 . S
C619 C618 1.401 . S
C619 C620 1.347 . S
C619 H679 0.929 . S
C620 C619 1.347 . S
C620 C621 1.455 . S
C620 H680 0.930 . S
C621 C608 1.412 . S
C621 C620 1.455 . S
C621 C622 1.331 . S
C622 C611 1.451 . S
C622 C621 1.331 . S
C622 C623 1.497 . S
C623 C614 1.395 . S
C623 C618 1.446 . S
C623 C622 1.497 . S
C624 C625 1.582 . S
C624 H681 0.962 . S
C624 H682 0.959 . S
C624 H683 0.958 . S
C625 C624 1.582 . S
C625 O628 1.458 . S
C625 H654 0.980 . S
O626 C571 1.426 . S
O626 C572 1.334 . S
O627 C599 1.412 . S
O627 C600 1.393 . S
O628 C590 1.435 . S
O628 C625 1.458 . S
O629 C581 1.468 . S
O629 C582 1.408 . S
H630 C571 0.980 . S
H631 C570 0.959 . S
H632 C570 0.959 . S
H633 C570 0.960 . S
H634 C573 0.929 . S
H635 C577 0.929 . S
H636 C578 0.959 . S
H637 C578 0.961 . S
H638 C578 0.961 . S
H639 C579 0.960 . S
H640 C579 0.960 . S
H641 C579 0.961 . S
H642 C581 0.980 . S
H643 C580 0.961 . S
H644 C580 0.960 . S
H645 C580 0.959 . S
H646 C583 0.930 . S
H647 C587 0.931 . S
H648 C588 0.959 . S
H649 C588 0.961 . S
H650 C588 0.959 . S
H651 C589 0.960 . S
H652 C589 0.960 . S
H653 C589 0.960 . S
H654 C625 0.980 . S
H655 C591 0.930 . S
H656 C595 0.930 . S
H657 C596 0.961 . S
H658 C596 0.960 . S
H659 C596 0.957 . S
H660 C597 0.961 . S
H661 C597 0.960 . S
H662 C597 0.960 . S
H663 C599 0.980 . S
H664 C598 0.961 . S
H665 C598 0.961 . S
H666 C598 0.959 . S
H667 C601 0.932 . S
H668 C605 0.929 . S
H669 C606 0.961 . S
H670 C606 0.959 1_556 S
H671 C606 0.959 . S
H672 C607 0.960 1_556 S
H673 C607 0.962 . S
H674 C607 0.961 . S
H675 C609 0.929 . S
H676 C612 0.930 . S
H677 C613 0.929 . S
H678 C616 0.930 1_556 S
H679 C619 0.929 . S
H680 C620 0.930 . S
H681 C624 0.962 . S
H682 C624 0.959 . S
H683 C624 0.958 . S
C684 O711 1.312 . S
C684 O712 1.208 . S
C685 O706 1.331 . S
C685 O709 1.244 . S
C686 O708 1.264 . S
C686 O710 1.273 . S
Mg687 O689 1.936 . S
Mg687 O696 2.081 1_455 S
Mg687 O698 2.023 . S
Mg687 O702 2.031 1_455 S
Mg687 O711 2.291 . S
Mg688 O689 1.963 . S
Mg688 O699 1.942 1_455 S
Mg688 O700 1.955 . S
Mg688 O707 1.986 1_455 S
O689 Mg687 1.936 . S
O689 Mg688 1.963 . S
O689 Mg690 1.915 . S
Mg690 O689 1.915 . S
Mg690 O691 1.915 . S
Mg690 O695 2.013 . S
Mg690 O701 2.114 1_455 S
Mg690 O705 2.013 1_455 S
Mg690 O711 2.114 . S
O691 Mg690 1.915 . S
O691 Mg692 1.936 . S
O691 Mg693 1.963 . S
Mg692 O691 1.936 . S
Mg692 O701 2.291 1_455 S
Mg692 O706 2.081 . S
Mg692 O708 2.023 1_455 S
Mg692 O712 2.031 . S
Mg693 O691 1.963 . S
Mg693 O697 1.986 . S
Mg693 O709 1.942 . S
Mg693 O710 1.955 1_455 S
C694 O705 1.191 . S
C694 O707 1.307 . S
O695 Mg690 2.013 . S
O695 C714 1.191 . S
O696 Mg687 2.081 1_655 S
O696 C704 1.331 . S
O697 Mg693 1.986 . S
O697 C714 1.307 . S
O698 Mg687 2.023 . S
O698 C713 1.264 . S
O699 Mg688 1.942 1_655 S
O699 C704 1.244 . S
O700 Mg688 1.955 . S
O700 C713 1.273 . S
O701 Mg690 2.114 1_655 S
O701 Mg692 2.291 1_655 S
O701 C703 1.312 . S
O702 Mg687 2.031 1_655 S
O702 C703 1.208 . S
C703 O701 1.312 . S
C703 O702 1.208 . S
C704 O696 1.331 . S
C704 O699 1.244 . S
O705 Mg690 2.013 1_655 S
O705 C694 1.191 . S
O706 C685 1.331 . S
O706 Mg692 2.081 . S
O707 Mg688 1.986 1_655 S
O707 C694 1.307 . S
O708 C686 1.264 . S
O708 Mg692 2.023 1_655 S
O709 C685 1.244 . S
O709 Mg693 1.942 . S
O710 C686 1.273 . S
O710 Mg693 1.955 1_655 S
O711 C684 1.312 . S
O711 Mg687 2.291 . S
O711 Mg690 2.114 . S
O712 C684 1.208 . S
O712 Mg692 2.031 . S
C713 O698 1.264 . S
C713 O700 1.273 . S
C714 O695 1.191 . S
C714 O697 1.307 . S
C715 O742 1.312 . S
C715 O743 1.208 . S
C716 O737 1.331 . S
C716 O740 1.244 . S
C717 O739 1.264 . S
C717 O741 1.273 . S
Mg718 O720 1.936 1_545 S
Mg718 O727 2.081 1_545 S
Mg718 O729 2.023 . S
Mg718 O733 2.031 1_545 S
Mg718 O742 2.291 . S
Mg719 O720 1.963 . S
Mg719 O730 1.942 . S
Mg719 O731 1.955 1_565 S
Mg719 O738 1.986 . S
O720 Mg718 1.936 1_565 S
O720 Mg719 1.963 . S
O720 Mg721 1.915 1_565 S
Mg721 O720 1.915 1_545 S
Mg721 O722 1.915 . S
Mg721 O726 2.013 . S
Mg721 O732 2.114 1_545 S
Mg721 O736 2.013 1_545 S
Mg721 O742 2.114 . S
O722 Mg721 1.915 . S
O722 Mg723 1.936 . S
O722 Mg724 1.963 . S
Mg723 O722 1.936 . S
Mg723 O732 2.291 1_545 S
Mg723 O737 2.081 . S
Mg723 O739 2.023 1_545 S
Mg723 O743 2.031 . S
Mg724 O722 1.963 . S
Mg724 O728 1.986 . S
Mg724 O740 1.942 . S
Mg724 O741 1.955 1_545 S
C725 O736 1.191 . S
C725 O738 1.307 . S
O726 Mg721 2.013 . S
O726 C745 1.191 . S
O727 Mg718 2.081 1_565 S
O727 C735 1.331 . S
O728 Mg724 1.986 . S
O728 C745 1.307 . S
O729 Mg718 2.023 . S
O729 C744 1.264 . S
O730 Mg719 1.942 . S
O730 C735 1.244 . S
O731 Mg719 1.955 1_545 S
O731 C744 1.273 . S
O732 Mg721 2.114 1_565 S
O732 Mg723 2.291 1_565 S
O732 C734 1.312 . S
O733 Mg718 2.031 1_565 S
O733 C734 1.208 . S
C734 O732 1.312 . S
C734 O733 1.208 . S
C735 O727 1.331 . S
C735 O730 1.244 . S
O736 Mg721 2.013 1_565 S
O736 C725 1.191 . S
O737 C716 1.331 . S
O737 Mg723 2.081 . S
O738 Mg719 1.986 . S
O738 C725 1.307 . S
O739 C717 1.264 . S
O739 Mg723 2.023 1_565 S
O740 C716 1.244 . S
O740 Mg724 1.942 . S
O741 C717 1.273 . S
O741 Mg724 1.955 1_565 S
O742 C715 1.312 . S
O742 Mg718 2.291 . S
O742 Mg721 2.114 . S
O743 C715 1.208 . S
O743 Mg723 2.031 . S
C744 O729 1.264 . S
C744 O731 1.273 . S
C745 O726 1.191 . S
C745 O728 1.307 . S
C746 O773 1.312 . S
C746 O774 1.208 . S
C747 O768 1.331 . S
C747 O771 1.244 . S
C748 O770 1.264 . S
C748 O772 1.273 . S
Mg749 O751 1.936 . S
Mg749 O758 2.081 . S
Mg749 O760 2.023 . S
Mg749 O764 2.031 . S
Mg749 O773 2.291 . S
Mg750 O751 1.963 . S
Mg750 O761 1.942 . S
Mg750 O762 1.955 . S
Mg750 O769 1.986 . S
O751 Mg749 1.936 . S
O751 Mg750 1.963 . S
O751 Mg752 1.915 . S
Mg752 O751 1.915 . S
Mg752 O753 1.915 . S
Mg752 O757 2.013 . S
Mg752 O763 2.114 . S
Mg752 O767 2.013 . S
Mg752 O773 2.114 . S
O753 Mg752 1.915 . S
O753 Mg754 1.936 . S
O753 Mg755 1.963 . S
Mg754 O753 1.936 . S
Mg754 O763 2.291 . S
Mg754 O768 2.081 . S
Mg754 O770 2.023 . S
Mg754 O774 2.031 . S
Mg755 O753 1.963 . S
Mg755 O759 1.986 . S
Mg755 O771 1.942 . S
Mg755 O772 1.955 . S
C756 O767 1.191 . S
C756 O769 1.307 . S
O757 Mg752 2.013 . S
O757 C776 1.191 . S
O758 Mg749 2.081 . S
O758 C766 1.331 . S
O759 Mg755 1.986 . S
O759 C776 1.307 . S
O760 Mg749 2.023 . S
O760 C775 1.264 . S
O761 Mg750 1.942 . S
O761 C766 1.244 . S
O762 Mg750 1.955 . S
O762 C775 1.273 . S
O763 Mg752 2.114 . S
O763 Mg754 2.291 . S
O763 C765 1.312 . S
O764 Mg749 2.031 . S
O764 C765 1.208 . S
C765 O763 1.312 . S
C765 O764 1.208 . S
C766 O758 1.331 . S
C766 O761 1.244 . S
O767 Mg752 2.013 . S
O767 C756 1.191 . S
O768 C747 1.331 . S
O768 Mg754 2.081 . S
O769 Mg750 1.986 . S
O769 C756 1.307 . S
O770 C748 1.264 . S
O770 Mg754 2.023 . S
O771 C747 1.244 . S
O771 Mg755 1.942 . S
O772 C748 1.273 . S
O772 Mg755 1.955 . S
O773 C746 1.312 . S
O773 Mg749 2.291 . S
O773 Mg752 2.114 . S
O774 C746 1.208 . S
O774 Mg754 2.031 . S
C775 O760 1.264 . S
C775 O762 1.273 . S
C776 O757 1.191 . S
C776 O759 1.307 . S
C777 C778 1.363 . S
C777 C783 1.379 . S
C777 N785 1.356 . S
C778 C777 1.363 . S
C778 C784 1.363 . S
C779 C780 1.363 . S
C779 C784 1.379 . S
C779 N786 1.356 . S
C780 C779 1.363 . S
C780 C783 1.363 . S
N781 C783 1.356 . S
N781 H793 0.984 . S
N781 H794 0.985 . S
N782 C784 1.356 . S
N782 H787 0.984 . S
N782 H788 0.985 . S
C783 C777 1.379 . S
C783 C780 1.363 . S
C783 N781 1.356 . S
C784 C778 1.363 . S
C784 C779 1.379 . S
C784 N782 1.356 . S
N785 C777 1.356 . S
N785 H791 0.984 . S
N785 H792 0.984 . S
N786 C779 1.356 . S
N786 H789 0.984 . S
N786 H790 0.985 . S
H787 N782 0.984 . S
H788 N782 0.985 . S
H789 N786 0.984 . S
H790 N786 0.985 . S
H791 N785 0.984 . S
H792 N785 0.984 . S
H793 N781 0.984 . S
H794 N781 0.985 . S
C795 C796 1.363 . S
C795 C801 1.379 . S
C795 N803 1.356 . S
C796 C795 1.363 . S
C796 C802 1.363 . S
C797 C798 1.363 . S
C797 C802 1.379 . S
C797 N804 1.356 . S
C798 C797 1.363 . S
C798 C801 1.363 . S
N799 C801 1.356 . S
N799 H811 0.984 . S
N799 H812 0.985 . S
N800 C802 1.356 . S
N800 H805 0.984 . S
N800 H806 0.985 . S
C801 C795 1.379 . S
C801 C798 1.363 . S
C801 N799 1.356 . S
C802 C796 1.363 . S
C802 C797 1.379 . S
C802 N800 1.356 . S
N803 C795 1.356 . S
N803 H809 0.984 . S
N803 H810 0.984 . S
N804 C797 1.356 . S
N804 H807 0.984 . S
N804 H808 0.985 . S
H805 N800 0.984 . S
H806 N800 0.985 . S
H807 N804 0.984 . S
H808 N804 0.985 . S
H809 N803 0.984 . S
H810 N803 0.984 . S
H811 N799 0.984 . S
H812 N799 0.985 . S
C813 C814 1.363 . S
C813 C819 1.379 . S
C813 N821 1.356 . S
C814 C813 1.363 . S
C814 C820 1.363 . S
C815 C816 1.363 . S
C815 C820 1.379 . S
C815 N822 1.356 . S
C816 C815 1.363 . S
C816 C819 1.363 . S
N817 C819 1.356 . S
N817 H829 0.984 . S
N817 H830 0.985 . S
N818 C820 1.356 . S
N818 H823 0.984 . S
N818 H824 0.985 . S
C819 C813 1.379 . S
C819 C816 1.363 . S
C819 N817 1.356 . S
C820 C814 1.363 . S
C820 C815 1.379 . S
C820 N818 1.356 . S
N821 C813 1.356 . S
N821 H827 0.984 . S
N821 H828 0.984 . S
N822 C815 1.356 . S
N822 H825 0.984 . S
N822 H826 0.985 . S
H823 N818 0.984 . S
H824 N818 0.985 . S
H825 N822 0.984 . S
H826 N822 0.985 . S
H827 N821 0.984 . S
H828 N821 0.984 . S
H829 N817 0.984 . S
H830 N817 0.985 . S
C831 C832 1.363 . S
C831 C837 1.379 . S
C831 N839 1.356 . S
C832 C831 1.363 . S
C832 C838 1.363 . S
C833 C834 1.363 . S
C833 C838 1.379 . S
C833 N840 1.356 . S
C834 C833 1.363 . S
C834 C837 1.363 . S
N835 C837 1.356 . S
N835 H847 0.984 . S
N835 H848 0.985 . S
N836 C838 1.356 . S
N836 H841 0.984 . S
N836 H842 0.985 . S
C837 C831 1.379 . S
C837 C834 1.363 . S
C837 N835 1.356 . S
C838 C832 1.363 . S
C838 C833 1.379 . S
C838 N836 1.356 . S
N839 C831 1.356 . S
N839 H845 0.984 . S
N839 H846 0.984 . S
N840 C833 1.356 . S
N840 H843 0.984 . S
N840 H844 0.988 . S
H841 N836 0.984 . S
H842 N836 0.985 . S
H843 N840 0.984 . S
H844 N840 0.988 . S
H845 N839 0.984 . S
H846 N839 0.984 . S
H847 N835 0.984 . S
H848 N835 0.985 . S
C849 C850 1.363 . S
C849 C855 1.379 . S
C849 N857 1.356 . S
C850 C849 1.363 . S
C850 C856 1.363 . S
C851 C852 1.363 . S
C851 C856 1.379 . S
C851 N858 1.356 . S
C852 C851 1.363 . S
C852 C855 1.363 . S
N853 C855 1.356 . S
N853 H865 0.984 . S
N853 H866 0.985 . S
N854 C856 1.356 . S
N854 H859 0.984 . S
N854 H860 0.985 . S
C855 C849 1.379 . S
C855 C852 1.363 . S
C855 N853 1.356 . S
C856 C850 1.363 . S
C856 C851 1.379 . S
C856 N854 1.356 . S
N857 C849 1.356 . S
N857 H863 0.984 . S
N857 H864 0.984 . S
N858 C851 1.356 . S
N858 H861 0.984 . S
N858 H862 0.985 1_565 S
H859 N854 0.984 . S
H860 N854 0.985 . S
H861 N858 0.984 . S
H862 N858 0.985 1_545 S
H863 N857 0.984 . S
H864 N857 0.984 . S
H865 N853 0.984 . S
H866 N853 0.985 . S
C867 C868 1.363 . S
C867 C873 1.379 . S
C867 N875 1.356 . S
C868 C867 1.363 . S
C868 C874 1.363 . S
C869 C870 1.363 . S
C869 C874 1.379 . S
C869 N876 1.356 . S
C870 C869 1.363 . S
C870 C873 1.363 . S
N871 C873 1.356 . S
N871 H883 0.984 . S
N871 H884 0.985 . S
N872 C874 1.356 . S
N872 H877 0.984 . S
N872 H878 0.985 . S
C873 C867 1.379 . S
C873 C870 1.363 . S
C873 N871 1.356 . S
C874 C868 1.363 . S
C874 C869 1.379 . S
C874 N872 1.356 . S
N875 C867 1.356 . S
N875 H881 0.984 . S
N875 H882 0.984 . S
N876 C869 1.356 . S
N876 H879 0.984 . S
N876 H880 0.985 . S
H877 N872 0.984 . S
H878 N872 0.985 . S
H879 N876 0.984 . S
H880 N876 0.985 . S
H881 N875 0.984 . S
H882 N875 0.984 . S
H883 N871 0.984 . S
H884 N871 0.985 . S
C885 C886 1.363 . S
C885 C891 1.379 . S
C885 N893 1.356 . S
C886 C885 1.363 . S
C886 C892 1.363 . S
C887 C888 1.363 . S
C887 C892 1.379 . S
C887 N894 1.356 . S
C888 C887 1.363 . S
C888 C891 1.363 . S
N889 C891 1.356 . S
N889 H901 0.984 . S
N889 H902 0.985 . S
N890 C892 1.356 . S
N890 H895 0.984 . S
N890 H896 0.985 . S
C891 C885 1.379 . S
C891 C888 1.363 . S
C891 N889 1.356 . S
C892 C886 1.363 . S
C892 C887 1.379 . S
C892 N890 1.356 . S
N893 C885 1.356 . S
N893 H899 0.984 . S
N893 H900 0.984 . S
N894 C887 1.356 . S
N894 H897 0.984 . S
N894 H898 0.985 . S
H895 N890 0.984 . S
H896 N890 0.985 . S
H897 N894 0.984 . S
H898 N894 0.985 . S
H899 N893 0.984 . S
H900 N893 0.984 . S
H901 N889 0.984 . S
H902 N889 0.985 . S
C903 C904 1.363 . S
C903 C909 1.379 . S
C903 N911 1.356 . S
C904 C903 1.363 . S
C904 C910 1.363 . S
C905 C906 1.363 . S
C905 C910 1.379 . S
C905 N912 1.356 . S
C906 C905 1.363 . S
C906 C909 1.363 . S
N907 C909 1.356 . S
N907 H919 0.984 . S
N907 H920 0.985 . S
N908 C910 1.356 . S
N908 H913 0.984 . S
N908 H914 0.985 . S
C909 C903 1.379 . S
C909 C906 1.363 . S
C909 N907 1.356 . S
C910 C904 1.363 . S
C910 C905 1.379 . S
C910 N908 1.356 . S
N911 C903 1.356 . S
N911 H917 0.984 . S
N911 H918 0.984 . S
N912 C905 1.356 . S
N912 H915 0.984 . S
N912 H916 0.985 . S
H913 N908 0.984 . S
H914 N908 0.985 . S
H915 N912 0.984 . S
H916 N912 0.985 . S
H917 N911 0.984 . S
H918 N911 0.984 . S
H919 N907 0.984 . S
H920 N907 0.985 . S
C921 C922 1.363 . S
C921 C927 1.379 . S
C921 N929 1.356 . S
C922 C921 1.363 . S
C922 C928 1.363 . S
C923 C924 1.363 . S
C923 C928 1.379 . S
C923 N930 1.356 . S
C924 C923 1.363 . S
C924 C927 1.363 . S
N925 C927 1.356 . S
N925 H937 0.984 . S
N925 H938 0.985 . S
N926 C928 1.356 . S
N926 H931 0.984 . S
N926 H932 0.985 . S
C927 C921 1.379 . S
C927 C924 1.363 . S
C927 N925 1.356 . S
C928 C922 1.363 . S
C928 C923 1.379 . S
C928 N926 1.356 . S
N929 C921 1.356 . S
N929 H935 0.984 . S
N929 H936 0.984 . S
N930 C923 1.356 . S
N930 H933 0.984 . S
N930 H934 0.985 . S
H931 N926 0.984 . S
H932 N926 0.985 . S
H933 N930 0.984 . S
H934 N930 0.985 . S
H935 N929 0.984 . S
H936 N929 0.984 . S
H937 N925 0.984 . S
H938 N925 0.985 . S
C939 C940 1.363 . S
C939 C945 1.379 . S
C939 N947 1.356 . S
C940 C939 1.363 . S
C940 C946 1.363 . S
C941 C942 1.363 . S
C941 C946 1.379 . S
C941 N948 1.356 . S
C942 C941 1.363 . S
C942 C945 1.363 . S
N943 C945 1.356 . S
N943 H955 0.984 . S
N943 H956 0.985 . S
N944 C946 1.356 . S
N944 H949 0.984 . S
N944 H950 0.985 . S
C945 C939 1.379 . S
C945 C942 1.363 . S
C945 N943 1.356 . S
C946 C940 1.363 . S
C946 C941 1.379 . S
C946 N944 1.356 . S
N947 C939 1.356 . S
N947 H953 0.984 . S
N947 H954 0.984 . S
N948 C941 1.356 . S
N948 H951 0.984 . S
N948 H952 0.985 . S
H949 N944 0.984 . S
H950 N944 0.985 . S
H951 N948 0.984 . S
H952 N948 0.985 . S
H953 N947 0.984 . S
H954 N947 0.984 . S
H955 N943 0.984 . S
H956 N943 0.985 . S
C957 C958 1.363 . S
C957 C963 1.379 . S
C957 N965 1.356 . S
C958 C957 1.363 . S
C958 C964 1.363 . S
C959 C960 1.363 . S
C959 C964 1.379 . S
C959 N966 1.356 . S
C960 C959 1.363 . S
C960 C963 1.363 . S
N961 C963 1.356 . S
N961 H973 0.984 . S
N961 H974 0.985 . S
N962 C964 1.356 . S
N962 H967 0.984 . S
N962 H968 0.985 . S
C963 C957 1.379 . S
C963 C960 1.363 . S
C963 N961 1.356 . S
C964 C958 1.363 . S
C964 C959 1.379 . S
C964 N962 1.356 . S
N965 C957 1.356 . S
N965 H971 0.984 . S
N965 H972 0.984 . S
N966 C959 1.356 . S
N966 H969 0.984 . S
N966 H970 0.985 . S
H967 N962 0.984 . S
H968 N962 0.985 . S
H969 N966 0.984 . S
H970 N966 0.985 . S
H971 N965 0.984 . S
H972 N965 0.984 . S
H973 N961 0.984 . S
H974 N961 0.985 . S
C975 C976 1.363 . S
C975 C981 1.379 . S
C975 N983 1.356 . S
C976 C975 1.363 . S
C976 C982 1.363 . S
C977 C978 1.363 . S
C977 C982 1.379 . S
C977 N984 1.356 . S
C978 C977 1.363 . S
C978 C981 1.363 . S
N979 C981 1.356 . S
N979 H991 0.984 . S
N979 H992 0.985 . S
N980 C982 1.356 . S
N980 H985 0.984 . S
N980 H986 0.985 . S
C981 C975 1.379 . S
C981 C978 1.363 . S
C981 N979 1.356 . S
C982 C976 1.363 . S
C982 C977 1.379 . S
C982 N980 1.356 . S
N983 C975 1.356 . S
N983 H989 0.984 . S
N983 H990 0.984 . S
N984 C977 1.356 . S
N984 H987 0.984 . S
N984 H988 0.985 . S
H985 N980 0.984 . S
H986 N980 0.985 . S
H987 N984 0.984 . S
H988 N984 0.985 . S
H989 N983 0.984 . S
H990 N983 0.984 . S
H991 N979 0.984 . S
H992 N979 0.985 . S
C993 C994 1.363 . S
C993 C999 1.379 . S
C993 N1001 1.356 . S
C994 C993 1.363 . S
C994 C1000 1.363 . S
C995 C996 1.363 . S
C995 C1000 1.379 . S
C995 N1002 1.356 . S
C996 C995 1.363 . S
C996 C999 1.363 . S
N997 C999 1.356 . S
N997 H1009 0.984 . S
N997 H1010 0.985 . S
N998 C1000 1.356 . S
N998 H1003 0.984 . S
N998 H1004 0.985 . S
C999 C993 1.379 . S
C999 C996 1.363 . S
C999 N997 1.356 . S
C1000 C994 1.363 . S
C1000 C995 1.379 . S
C1000 N998 1.356 . S
N1001 C993 1.356 . S
N1001 H1007 0.984 . S
N1001 H1008 0.984 . S
N1002 C995 1.356 . S
N1002 H1005 0.984 . S
N1002 H1006 0.985 . S
H1003 N998 0.984 . S
H1004 N998 0.985 . S
H1005 N1002 0.984 . S
H1006 N1002 0.985 . S
H1007 N1001 0.984 . S
H1008 N1001 0.984 . S
H1009 N997 0.984 . S
H1010 N997 0.985 . S
C1011 C1012 1.363 . S
C1011 C1017 1.379 . S
C1011 N1019 1.356 . S
C1012 C1011 1.363 . S
C1012 C1018 1.363 . S
C1013 C1014 1.363 . S
C1013 C1018 1.379 . S
C1013 N1020 1.356 . S
C1014 C1013 1.363 . S
C1014 C1017 1.363 . S
N1015 C1017 1.356 . S
N1015 H1027 0.984 . S
N1015 H1028 0.985 . S
N1016 C1018 1.356 . S
N1016 H1021 0.984 . S
N1016 H1022 0.985 . S
C1017 C1011 1.379 . S
C1017 C1014 1.363 . S
C1017 N1015 1.356 . S
C1018 C1012 1.363 . S
C1018 C1013 1.379 . S
C1018 N1016 1.356 . S
N1019 C1011 1.356 . S
N1019 H1025 0.984 . S
N1019 H1026 0.984 . S
N1020 C1013 1.356 . S
N1020 H1023 0.984 . S
N1020 H1024 0.985 . S
H1021 N1016 0.984 . S
H1022 N1016 0.985 . S
H1023 N1020 0.984 . S
H1024 N1020 0.985 . S
H1025 N1019 0.984 . S
H1026 N1019 0.984 . S
H1027 N1015 0.984 . S
H1028 N1015 0.985 . S
C1029 C1030 1.363 . S
C1029 C1035 1.379 . S
C1029 N1037 1.356 . S
C1030 C1029 1.363 . S
C1030 C1036 1.363 . S
C1031 C1032 1.363 . S
C1031 C1036 1.379 . S
C1031 N1038 1.356 . S
C1032 C1031 1.363 . S
C1032 C1035 1.363 . S
N1033 C1035 1.356 . S
N1033 H1045 0.984 . S
N1033 H1046 0.985 . S
N1034 C1036 1.356 . S
N1034 H1039 0.984 . S
N1034 H1040 0.985 . S
C1035 C1029 1.379 . S
C1035 C1032 1.363 . S
C1035 N1033 1.356 . S
C1036 C1030 1.363 . S
C1036 C1031 1.379 . S
C1036 N1034 1.356 . S
N1037 C1029 1.356 . S
N1037 H1043 0.984 . S
N1037 H1044 0.984 . S
N1038 C1031 1.356 . S
N1038 H1041 0.984 . S
N1038 H1042 0.985 . S
H1039 N1034 0.984 . S
H1040 N1034 0.985 . S
H1041 N1038 0.984 . S
H1042 N1038 0.985 . S
H1043 N1037 0.984 . S
H1044 N1037 0.984 . S
H1045 N1033 0.984 . S
H1046 N1033 0.985 . S
C1047 C1048 1.363 . S
C1047 C1053 1.379 . S
C1047 N1055 1.356 . S
C1048 C1047 1.363 . S
C1048 C1054 1.363 . S
C1049 C1050 1.363 . S
C1049 C1054 1.379 . S
C1049 N1056 1.356 . S
C1050 C1049 1.363 . S
C1050 C1053 1.363 . S
N1051 C1053 1.356 . S
N1051 H1063 0.984 . S
N1051 H1064 0.985 . S
N1052 C1054 1.356 . S
N1052 H1057 0.984 . S
N1052 H1058 0.985 . S
C1053 C1047 1.379 . S
C1053 C1050 1.363 . S
C1053 N1051 1.356 . S
C1054 C1048 1.363 . S
C1054 C1049 1.379 . S
C1054 N1052 1.356 . S
N1055 C1047 1.356 . S
N1055 H1061 0.984 . S
N1055 H1062 0.984 . S
N1056 C1049 1.356 . S
N1056 H1059 0.984 . S
N1056 H1060 0.985 . S
H1057 N1052 0.984 . S
H1058 N1052 0.985 . S
H1059 N1056 0.984 . S
H1060 N1056 0.985 . S
H1061 N1055 0.984 . S
H1062 N1055 0.984 . S
H1063 N1051 0.984 . S
H1064 N1051 0.985 . S
C1065 C1066 1.363 . S
C1065 C1071 1.379 . S
C1065 N1073 1.356 . S
C1066 C1065 1.363 . S
C1066 C1072 1.363 . S
C1067 C1068 1.363 . S
C1067 C1072 1.379 . S
C1067 N1074 1.356 . S
C1068 C1067 1.363 . S
C1068 C1071 1.363 . S
N1069 C1071 1.356 . S
N1069 H1081 0.984 . S
N1069 H1082 0.985 . S
N1070 C1072 1.356 . S
N1070 H1075 0.984 . S
N1070 H1076 0.985 . S
C1071 C1065 1.379 . S
C1071 C1068 1.363 . S
C1071 N1069 1.356 . S
C1072 C1066 1.363 . S
C1072 C1067 1.379 . S
C1072 N1070 1.356 . S
N1073 C1065 1.356 . S
N1073 H1079 0.984 . S
N1073 H1080 0.984 . S
N1074 C1067 1.356 . S
N1074 H1077 0.984 . S
N1074 H1078 0.985 . S
H1075 N1070 0.984 . S
H1076 N1070 0.985 . S
H1077 N1074 0.984 . S
H1078 N1074 0.985 . S
H1079 N1073 0.984 . S
H1080 N1073 0.984 . S
H1081 N1069 0.984 . S
H1082 N1069 0.985 . S
C1083 C1084 1.363 . S
C1083 C1089 1.379 . S
C1083 N1091 1.356 . S
C1084 C1083 1.363 . S
C1084 C1090 1.363 . S
C1085 C1086 1.363 . S
C1085 C1090 1.379 . S
C1085 N1092 1.356 . S
C1086 C1085 1.363 . S
C1086 C1089 1.363 . S
N1087 C1089 1.356 . S
N1087 H1099 0.984 . S
N1087 H1100 0.985 . S
N1088 C1090 1.356 . S
N1088 H1093 0.984 . S
N1088 H1094 0.985 . S
C1089 C1083 1.379 . S
C1089 C1086 1.363 . S
C1089 N1087 1.356 . S
C1090 C1084 1.363 . S
C1090 C1085 1.379 . S
C1090 N1088 1.356 . S
N1091 C1083 1.356 . S
N1091 H1097 0.984 . S
N1091 H1098 0.984 . S
N1092 C1085 1.356 . S
N1092 H1095 0.984 . S
N1092 H1096 0.985 . S
H1093 N1088 0.984 . S
H1094 N1088 0.985 . S
H1095 N1092 0.984 . S
H1096 N1092 0.985 . S
H1097 N1091 0.984 . S
H1098 N1091 0.984 . S
H1099 N1087 0.984 . S
H1100 N1087 0.985 . S
C1101 C1102 1.363 . S
C1101 C1107 1.379 . S
C1101 N1109 1.356 . S
C1102 C1101 1.363 . S
C1102 C1108 1.363 . S
C1103 C1104 1.363 . S
C1103 C1108 1.379 . S
C1103 N1110 1.356 . S
C1104 C1103 1.363 . S
C1104 C1107 1.363 . S
N1105 C1107 1.356 . S
N1105 H1117 0.984 . S
N1105 H1118 0.985 . S
N1106 C1108 1.356 . S
N1106 H1111 0.984 . S
N1106 H1112 0.985 . S
C1107 C1101 1.379 . S
C1107 C1104 1.363 . S
C1107 N1105 1.356 . S
C1108 C1102 1.363 . S
C1108 C1103 1.379 . S
C1108 N1106 1.356 . S
N1109 C1101 1.356 . S
N1109 H1115 0.984 . S
N1109 H1116 0.984 . S
N1110 C1103 1.356 . S
N1110 H1113 0.984 . S
N1110 H1114 0.985 . S
H1111 N1106 0.984 . S
H1112 N1106 0.985 . S
H1113 N1110 0.984 . S
H1114 N1110 0.985 . S
H1115 N1109 0.984 . S
H1116 N1109 0.984 . S
H1117 N1105 0.984 . S
H1118 N1105 0.985 . S
C1119 C1120 1.363 . S
C1119 C1125 1.379 . S
C1119 N1127 1.356 . S
C1120 C1119 1.363 . S
C1120 C1126 1.363 . S
C1121 C1122 1.363 . S
C1121 C1126 1.379 . S
C1121 N1128 1.356 . S
C1122 C1121 1.363 . S
C1122 C1125 1.363 . S
N1123 C1125 1.356 . S
N1123 H1135 0.984 . S
N1123 H1136 0.985 . S
N1124 C1126 1.356 . S
N1124 H1129 0.984 . S
N1124 H1130 0.985 . S
C1125 C1119 1.379 . S
C1125 C1122 1.363 . S
C1125 N1123 1.356 . S
C1126 C1120 1.363 . S
C1126 C1121 1.379 . S
C1126 N1124 1.356 . S
N1127 C1119 1.356 . S
N1127 H1133 0.984 . S
N1127 H1134 0.984 . S
N1128 C1121 1.356 . S
N1128 H1131 0.984 . S
N1128 H1132 0.985 . S
H1129 N1124 0.984 . S
H1130 N1124 0.985 . S
H1131 N1128 0.984 . S
H1132 N1128 0.985 . S
H1133 N1127 0.984 . S
H1134 N1127 0.984 . S
H1135 N1123 0.984 . S
H1136 N1123 0.985 . S
C1137 C1138 1.363 . S
C1137 C1143 1.379 . S
C1137 N1145 1.356 . S
C1138 C1137 1.363 . S
C1138 C1144 1.363 . S
C1139 C1140 1.363 . S
C1139 C1144 1.379 . S
C1139 N1146 1.356 . S
C1140 C1139 1.363 . S
C1140 C1143 1.363 . S
N1141 C1143 1.356 1_455 S
N1141 H1153 0.984 . S
N1141 H1154 0.985 . S
N1142 C1144 1.356 . S
N1142 H1147 0.984 . S
N1142 H1148 0.985 . S
C1143 C1137 1.379 . S
C1143 C1140 1.363 . S
C1143 N1141 1.356 1_655 S
C1144 C1138 1.363 . S
C1144 C1139 1.379 . S
C1144 N1142 1.356 . S
N1145 C1137 1.356 . S
N1145 H1151 0.984 . S
N1145 H1152 0.984 . S
N1146 C1139 1.356 . S
N1146 H1149 0.984 . S
N1146 H1150 0.985 . S
H1147 N1142 0.984 . S
H1148 N1142 0.985 . S
H1149 N1146 0.984 . S
H1150 N1146 0.985 . S
H1151 N1145 0.984 . S
H1152 N1145 0.984 . S
H1153 N1141 0.984 . S
H1154 N1141 0.985 . S
C1155 C1156 1.363 . S
C1155 C1161 1.379 . S
C1155 N1163 1.356 . S
C1156 C1155 1.363 . S
C1156 C1162 1.363 . S
C1157 C1158 1.363 . S
C1157 C1162 1.379 . S
C1157 N1164 1.356 . S
C1158 C1157 1.363 . S
C1158 C1161 1.363 . S
N1159 C1161 1.356 . S
N1159 H1171 0.984 . S
N1159 H1172 0.985 . S
N1160 C1162 1.356 . S
N1160 H1165 0.984 . S
N1160 H1166 0.985 . S
C1161 C1155 1.379 . S
C1161 C1158 1.363 . S
C1161 N1159 1.356 . S
C1162 C1156 1.363 . S
C1162 C1157 1.379 . S
C1162 N1160 1.356 . S
N1163 C1155 1.356 . S
N1163 H1169 0.984 . S
N1163 H1170 0.984 . S
N1164 C1157 1.356 . S
N1164 H1167 0.984 . S
N1164 H1168 0.985 . S
H1165 N1160 0.984 . S
H1166 N1160 0.985 . S
H1167 N1164 0.984 . S
H1168 N1164 0.985 . S
H1169 N1163 0.984 . S
H1170 N1163 0.984 . S
H1171 N1159 0.984 . S
H1172 N1159 0.985 . S
C1173 C1174 1.363 . S
C1173 C1179 1.379 . S
C1173 N1181 1.356 . S
C1174 C1173 1.363 . S
C1174 C1180 1.363 . S
C1175 C1176 1.363 . S
C1175 C1180 1.379 . S
C1175 N1182 1.356 . S
C1176 C1175 1.363 . S
C1176 C1179 1.363 . S
N1177 C1179 1.356 . S
N1177 H1189 0.984 . S
N1177 H1190 0.985 . S
N1178 C1180 1.356 . S
N1178 H1183 0.984 . S
N1178 H1184 0.985 . S
C1179 C1173 1.379 . S
C1179 C1176 1.363 . S
C1179 N1177 1.356 . S
C1180 C1174 1.363 . S
C1180 C1175 1.379 . S
C1180 N1178 1.356 . S
N1181 C1173 1.356 . S
N1181 H1187 0.984 . S
N1181 H1188 0.984 . S
N1182 C1175 1.356 . S
N1182 H1185 0.984 . S
N1182 H1186 0.985 . S
H1183 N1178 0.984 . S
H1184 N1178 0.985 . S
H1185 N1182 0.984 . S
H1186 N1182 0.985 . S
H1187 N1181 0.984 . S
H1188 N1181 0.984 . S
H1189 N1177 0.984 . S
H1190 N1177 0.985 . S
C1191 C1192 1.363 . S
C1191 C1197 1.379 . S
C1191 N1199 1.356 . S
C1192 C1191 1.363 . S
C1192 C1198 1.363 . S
C1193 C1194 1.363 . S
C1193 C1198 1.379 . S
C1193 N1200 1.356 . S
C1194 C1193 1.363 . S
C1194 C1197 1.363 . S
N1195 C1197 1.356 . S
N1195 H1207 0.984 . S
N1195 H1208 0.985 . S
N1196 C1198 1.356 . S
N1196 H1201 0.984 . S
N1196 H1202 0.985 . S
C1197 C1191 1.379 . S
C1197 C1194 1.363 . S
C1197 N1195 1.356 . S
C1198 C1192 1.363 . S
C1198 C1193 1.379 . S
C1198 N1196 1.356 . S
N1199 C1191 1.356 . S
N1199 H1205 0.984 . S
N1199 H1206 0.984 . S
N1200 C1193 1.356 . S
N1200 H1203 0.984 . S
N1200 H1204 0.985 . S
H1201 N1196 0.984 . S
H1202 N1196 0.985 . S
H1203 N1200 0.984 . S
H1204 N1200 0.985 . S
H1205 N1199 0.984 . S
H1206 N1199 0.984 . S
H1207 N1195 0.984 . S
H1208 N1195 0.985 . S
C778 C11 1.739 . S
C780 C684 1.854 . S
C796 C125 1.359 . S
C798 C716 1.627 . S
C816 C775 1.989 . S
C814 C239 1.531 . S
C834 C704 1.384 . S
C832 C343 1.300 . S
C850 C485 1.297 . S
C852 C734 1.809 . S
C870 C756 1.444 . S
C868 C571 1.428 . S
C888 C725 2.002 . S
C886 C257 1.264 . S
C904 C397 0.760 . S
C906 C765 1.486 . S
C924 C714 1.903 . S
C922 C467 1.597 . S
C940 C625 1.047 . S
C942 C744 1.601 . S
C958 C29 1.425 . S
C960 C747 1.907 . S
C978 C686 1.752 . S
C976 C143 1.143 . S
C996 C694 1.760 . S
C994 C371 1.562 . S
C1014 C735 1.401 . S
C1012 C457 1.090 . S
C1032 C748 1.875 . S
C1030 C599 1.676 . S
C1050 C685 1.472 . S
C1048 C55 1.280 . S
C1068 C745 1.670 . S
C1066 C169 1.539 . S
C1084 C283 1.154 . S
C1086 C746 1.357 . S
C1104 C715 1.700 . S
C1102 C581 1.068 . S
C1122 C776 1.235 . S
C1120 C1 1.096 . S
C1140 C703 1.544 . S
C1138 C115 1.159 . S
C1158 C717 1.347 . S
C1156 C229 1.007 . S
C1174 C353 1.020 . S
C1176 C766 1.843 . S
C1192 C511 1.379 . S
C1194 C713 1.630 . S
