# Generated by pormake.
# Topology cml, (3,6)-cn, num edge types: 1
# Building blocks:
#     Node 0, Type 0, BuildingBlock: BETDIP_clean_linker_0, # of connection points: 3
#     Node 1, Type 0, BuildingBlock: BETDIP_clean_linker_0, # of connection points: 3
#     Node 2, Type 0, BuildingBlock: BETDIP_clean_linker_0, # of connection points: 3
#     Node 3, Type 0, BuildingBlock: BETDIP_clean_linker_0, # of connection points: 3
#     Node 4, Type 0, BuildingBlock: BETDIP_clean_linker_0, # of connection points: 3
#     Node 5, Type 0, BuildingBlock: BETDIP_clean_linker_0, # of connection points: 3
#     Node 6, Type 0, BuildingBlock: BETDIP_clean_linker_0, # of connection points: 3
#     Node 7, Type 0, BuildingBlock: BETDIP_clean_linker_0, # of connection points: 3
#     Node 8, Type 1, BuildingBlock: OJICUG_clean_sbu_0, # of connection points: 6
#     Node 9, Type 1, BuildingBlock: OJICUG_clean_sbu_0, # of connection points: 6
#     Node 10, Type 1, BuildingBlock: OJICUG_clean_sbu_0, # of connection points: 6
#     Node 11, Type 1, BuildingBlock: OJICUG_clean_sbu_0, # of connection points: 6
#     Edge 12, Type (0, 1), BuildingBlock: KIFKEQ_clean_linker_1, # of connection points: 2
#     Edge 13, Type (0, 1), BuildingBlock: KIFKEQ_clean_linker_1, # of connection points: 2
#     Edge 14, Type (0, 1), BuildingBlock: KIFKEQ_clean_linker_1, # of connection points: 2
#     Edge 15, Type (0, 1), BuildingBlock: KIFKEQ_clean_linker_1, # of connection points: 2
#     Edge 16, Type (0, 1), BuildingBlock: KIFKEQ_clean_linker_1, # of connection points: 2
#     Edge 17, Type (0, 1), BuildingBlock: KIFKEQ_clean_linker_1, # of connection points: 2
#     Edge 18, Type (0, 1), BuildingBlock: KIFKEQ_clean_linker_1, # of connection points: 2
#     Edge 19, Type (0, 1), BuildingBlock: KIFKEQ_clean_linker_1, # of connection points: 2
#     Edge 20, Type (0, 1), BuildingBlock: KIFKEQ_clean_linker_1, # of connection points: 2
#     Edge 21, Type (0, 1), BuildingBlock: KIFKEQ_clean_linker_1, # of connection points: 2
#     Edge 22, Type (0, 1), BuildingBlock: KIFKEQ_clean_linker_1, # of connection points: 2
#     Edge 23, Type (0, 1), BuildingBlock: KIFKEQ_clean_linker_1, # of connection points: 2
#     Edge 24, Type (0, 1), BuildingBlock: KIFKEQ_clean_linker_1, # of connection points: 2
#     Edge 25, Type (0, 1), BuildingBlock: KIFKEQ_clean_linker_1, # of connection points: 2
#     Edge 26, Type (0, 1), BuildingBlock: KIFKEQ_clean_linker_1, # of connection points: 2
#     Edge 27, Type (0, 1), BuildingBlock: KIFKEQ_clean_linker_1, # of connection points: 2
#     Edge 28, Type (0, 1), BuildingBlock: KIFKEQ_clean_linker_1, # of connection points: 2
#     Edge 29, Type (0, 1), BuildingBlock: KIFKEQ_clean_linker_1, # of connection points: 2
#     Edge 30, Type (0, 1), BuildingBlock: KIFKEQ_clean_linker_1, # of connection points: 2
#     Edge 31, Type (0, 1), BuildingBlock: KIFKEQ_clean_linker_1, # of connection points: 2
#     Edge 32, Type (0, 1), BuildingBlock: KIFKEQ_clean_linker_1, # of connection points: 2
#     Edge 33, Type (0, 1), BuildingBlock: KIFKEQ_clean_linker_1, # of connection points: 2
#     Edge 34, Type (0, 1), BuildingBlock: KIFKEQ_clean_linker_1, # of connection points: 2
#     Edge 35, Type (0, 1), BuildingBlock: KIFKEQ_clean_linker_1, # of connection points: 2
# Relax obj value: 0.006
# Max RMSD: 0.051
# Mean RMSD: 0.044
data_MOF--net-cml--node1-OJICUG_clean_sbu_0--node2-BETDIP_clean_linker_0--edge1-KIFKEQ_clean_linker_1
_symmetry_space_group_name_H-M    P1
_symmetry_Int_Tables_number       1
_symmetry_cell_setting            triclinic
loop_
_symmetry_equiv_pos_as_xyz
'x, y, z'
_cell_length_a     41.558984
_cell_length_b     40.100489
_cell_length_c     36.202498
_cell_angle_alpha  89.973879
_cell_angle_beta   90.037459
_cell_angle_gamma 90.058976
loop_
_atom_site_label
_atom_site_type_symbol
_atom_site_fract_x
_atom_site_fract_y
_atom_site_fract_z
_atom_type_partial_charge
H0 H 0.25829 0.35889 0.06009 0.0
H1 H 0.25848 0.42234 0.96382 0.0
H2 H 0.34093 0.41921 0.03496 0.0
H3 H 0.20705 0.40772 0.95808 0.0
C4 C 0.20426 0.38381 0.97176 0.0
C5 C 0.2701 0.3773 0.04283 0.0
C6 C 0.30143 0.38769 0.05127 0.0
C7 C 0.25432 0.38935 0.01132 0.0
C8 C 0.26984 0.413 0.98861 0.0
C9 C 0.30115 0.42369 -0.00287 0.0
C10 C 0.31679 0.41081 0.02829 0.0
N11 N 0.22412 0.37497 0.00215 0.0
H12 H 0.72865 0.65108 0.54289 0.0
H13 H 0.72625 0.5883 0.44632 0.0
H14 H 0.66628 0.56556 0.53935 0.0
H15 H 0.77627 0.60775 0.43783 0.0
C16 C 0.7764 0.63304 0.4485 0.0
C17 C 0.71963 0.62923 0.5286 0.0
C18 C 0.69647 0.6089 0.54548 0.0
C19 C 0.73157 0.62131 0.49348 0.0
C20 C 0.71876 0.59376 0.47428 0.0
C21 C 0.69545 0.57341 0.49096 0.0
C22 C 0.68496 0.58072 0.5268 0.0
N23 N 0.75568 0.64216 0.47802 0.0
H24 H 0.72767 0.35489 0.05153 0.0
H25 H 0.72642 0.41435 0.95243 0.0
H26 H 0.665 0.43977 0.04345 0.0
H27 H 0.74532 0.36653 0.92692 0.0
C28 C 0.76073 0.35574 0.94798 0.0
C29 C 0.71862 0.37612 0.03616 0.0
C30 C 0.69529 0.39689 0.0519 0.0
C31 C 0.7299 0.38202 0.00035 0.0
C32 C 0.71779 0.40922 0.98005 0.0
C33 C 0.69465 0.43041 0.99575 0.0
C34 C 0.68381 0.42428 0.03179 0.0
N35 N 0.7536 0.36016 0.98599 0.0
H36 H 0.25673 0.6357 0.55091 0.0
H37 H 0.25877 0.57479 0.45302 0.0
H38 H 0.32292 0.55349 0.54252 0.0
H39 H 0.24111 0.62268 0.42648 0.0
C40 C 0.225 0.63347 0.44682 0.0
C41 C 0.26658 0.61474 0.53581 0.0
C42 C 0.29108 0.59522 0.55155 0.0
C43 C 0.25518 0.60804 0.50013 0.0
C44 C 0.2677 0.58078 0.48031 0.0
C45 C 0.29161 0.56065 0.49608 0.0
C46 C 0.30319 0.56807 0.53145 0.0
N47 N 0.23114 0.62923 0.48515 0.0
H48 H 0.76901 0.84533 0.04059 0.0
H49 H 0.77177 0.90712 0.94317 0.0
H50 H 0.83125 0.93088 0.03644 0.0
H51 H 0.72137 0.88784 0.93522 0.0
C52 C 0.72103 0.86269 0.94633 0.0
C53 C 0.77811 0.867 0.02603 0.0
C54 C 0.80114 0.88755 0.04282 0.0
C55 C 0.76631 0.87456 0.99074 0.0
C56 C 0.77919 0.90193 0.97123 0.0
C57 C 0.80242 0.92248 0.98784 0.0
C58 C 0.81273 0.91553 0.02387 0.0
N59 N 0.74209 0.85363 0.97557 0.0
H60 H 0.23361 0.1457 0.55393 0.0
H61 H 0.23533 0.0768 0.46265 0.0
H62 H 0.15715 0.07486 0.5402 0.0
H63 H 0.28511 0.09506 0.45366 0.0
C64 C 0.2866 0.11994 0.4653 0.0
C65 C 0.22302 0.12498 0.53898 0.0
C66 C 0.1938 0.11137 0.55084 0.0
C67 C 0.23816 0.11294 0.50714 0.0
C68 C 0.22412 0.08632 0.4874 0.0
C69 C 0.19509 0.07198 0.49957 0.0
C70 C 0.18 0.08501 0.53108 0.0
N71 N 0.26633 0.12969 0.49495 0.0
H72 H 0.23585 0.85848 0.05046 0.0
H73 H 0.23666 0.92297 0.95522 0.0
H74 H 0.17544 0.94533 0.04737 0.0
H75 H 0.25392 0.87581 0.92678 0.0
C76 C 0.26928 0.86375 0.94703 0.0
C77 C 0.22752 0.88075 0.03641 0.0
C78 C 0.20468 0.90138 0.05332 0.0
C79 C 0.23918 0.88818 0.00107 0.0
C80 C 0.22782 0.91671 0.98246 0.0
C81 C 0.20508 0.93765 -0.00069 0.0
C82 C 0.19398 0.93002 0.03488 0.0
N83 N 0.26236 0.86646 0.98533 0.0
H84 H 0.76808 0.14245 0.55491 0.0
H85 H 0.7671 0.08042 0.45784 0.0
H86 H 0.8298 0.0567 0.54821 0.0
H87 H 0.71787 0.10181 0.44993 0.0
C88 C 0.71887 0.12697 0.46091 0.0
C89 C 0.77646 0.12058 0.54018 0.0
C90 C 0.80001 0.10006 0.556 0.0
C91 C 0.76355 0.11313 0.50542 0.0
C92 C 0.77543 0.08556 0.48557 0.0
C93 C 0.79906 0.0649 0.50116 0.0
C94 C 0.81074 0.07193 0.53664 0.0
N95 N 0.73978 0.1348 0.49072 0.0
Sc96 Sc 3e-05 0.81065 0.29914 0.0
Sc97 Sc 0.99743 0.89807 0.30925 0.0
Sc98 Sc 0.00074 0.84687 0.38804 0.0
O99 O -0.0006 0.85181 0.33214 0.0
C100 C 0.95279 0.78835 0.36423 0.0
C101 C 0.95054 0.85735 0.25593 0.0
C102 C 0.95012 0.90627 0.37757 0.0
C103 C 0.04712 0.86062 0.25652 0.0
C104 C 0.04916 0.78948 0.36277 0.0
C105 C 0.04672 0.90941 0.37594 0.0
O106 O 0.96351 0.78594 0.33141 0.0
O107 O 0.96122 0.88416 0.26998 0.0
O108 O 0.96341 0.88347 0.39665 0.0
O109 O 0.03688 0.83139 0.26373 0.0
O110 O 0.03814 0.80991 0.38638 0.0
O111 O 0.0336 0.91798 0.34568 0.0
O112 O 0.03789 0.78699 0.33024 0.0
O113 O 0.03518 0.88675 0.27088 0.0
O114 O 0.03798 0.88385 0.39413 0.0
O115 O 0.96195 0.82884 0.2639 0.0
O116 O 0.96383 0.80914 0.38757 0.0
O117 O 0.95925 0.91386 0.34516 0.0
Sc118 Sc -0.00235 0.19378 0.80886 0.0
Sc119 Sc 0.0049 0.10656 0.81548 0.0
Sc120 Sc -0.00209 0.15463 0.89636 0.0
O121 O 0.00021 0.1517 0.84027 0.0
C122 C 0.04175 0.21776 0.87571 0.0
C123 C 0.05065 0.1514 0.76555 0.0
C124 C 0.05178 0.09903 0.88493 0.0
C125 C 0.95452 0.14324 0.76254 0.0
C126 C 0.94622 0.20904 0.87229 0.0
C127 C 0.95542 0.08976 0.8801 0.0
O128 O 0.03305 0.21925 0.84204 0.0
O129 O 0.04277 0.12366 0.77988 0.0
O130 O 0.03869 0.12192 0.90403 0.0
O131 O 0.96163 0.17267 0.7728 0.0
O132 O 0.95691 0.1875 0.89496 0.0
O133 O 0.96729 0.08445 0.8483 0.0
O134 O 0.95908 0.21438 0.84101 0.0
O135 O 0.96882 0.11752 0.77481 0.0
O136 O 0.96471 0.11348 0.90083 0.0
O137 O 0.03596 0.17847 0.77248 0.0
O138 O 0.03062 0.19633 0.89828 0.0
O139 O 0.04172 0.09061 0.85314 0.0
Sc140 Sc 0.50063 0.30508 0.30729 0.0
Sc141 Sc 0.49412 0.39236 0.31428 0.0
Sc142 Sc 0.49866 0.34375 0.39504 0.0
O143 O 0.49779 0.34701 0.3389 0.0
C144 C 0.45437 0.28165 0.37267 0.0
C145 C 0.44855 0.34823 0.26329 0.0
C146 C 0.4462 0.40063 0.38242 0.0
C147 C 0.54484 0.35551 0.26216 0.0
C148 C 0.55008 0.28844 0.37237 0.0
C149 C 0.5428 0.40763 0.38025 0.0
O150 O 0.46457 0.2796 0.33961 0.0
O151 O 0.45675 0.37585 0.27767 0.0
O152 O 0.45872 0.37761 0.40183 0.0
O153 O 0.53725 0.32606 0.27192 0.0
O154 O 0.5385 0.30942 0.39506 0.0
O155 O 0.53132 0.41359 0.34837 0.0
O156 O 0.53868 0.28413 0.34014 0.0
O157 O 0.53074 0.38126 0.27452 0.0
O158 O 0.53294 0.38381 0.40052 0.0
O159 O 0.46277 0.32091 0.27043 0.0
O160 O 0.46469 0.30325 0.39553 0.0
O161 O 0.45676 0.40878 0.3508 0.0
Sc162 Sc 0.49498 0.68845 0.79853 0.0
Sc163 Sc 0.49573 0.60101 0.8068 0.0
Sc164 Sc 0.49351 0.65049 0.88676 0.0
O165 O 0.49477 0.64673 0.83073 0.0
C166 C 0.54208 0.70903 0.86455 0.0
C167 C 0.54317 0.64197 0.75403 0.0
C168 C 0.54375 0.59091 0.87404 0.0
C169 C 0.44628 0.64022 0.75581 0.0
C170 C 0.44562 0.7088 0.86217 0.0
C171 C 0.44735 0.5883 0.874 0.0
O172 O 0.53111 0.71233 0.83195 0.0
O173 O 0.5309 0.61522 0.76641 0.0
O174 O 0.53028 0.61295 0.89406 0.0
O175 O 0.4587 0.66879 0.76158 0.0
O176 O 0.45667 0.68818 0.88566 0.0
O177 O 0.46071 0.58036 0.84376 0.0
O178 O 0.4568 0.7115 0.82961 0.0
O179 O 0.45653 0.61363 0.77084 0.0
O180 O 0.45563 0.61387 0.89247 0.0
O181 O 0.53349 0.67066 0.76384 0.0
O182 O 0.53113 0.68765 0.88732 0.0
O183 O 0.53481 0.58453 0.84119 0.0
H184 H 0.19328 0.31989 0.9953 0.0
H185 H 0.16015 0.39399 0.9175 0.0
H186 H 0.15421 0.28037 0.97141 0.0
H187 H 0.12006 0.35452 0.89409 0.0
H188 H 0.07722 0.26283 0.8357 0.0
H189 H 0.11599 0.30337 0.85896 0.0
H190 H 0.09764 0.26995 0.97048 0.0
H191 H 0.05969 0.22891 0.9473 0.0
C192 C 0.17739 0.32789 0.97331 0.0
C193 C 0.17965 0.36011 0.95829 0.0
C194 C 0.15484 0.30522 0.95971 0.0
C195 C 0.13388 0.31427 0.93091 0.0
C196 C 0.13609 0.34661 0.91599 0.0
C197 C 0.15883 0.36928 0.92953 0.0
C198 C 0.08148 0.2641 0.86518 0.0
C199 C 0.06541 0.24245 0.88958 0.0
C200 C 0.10356 0.28751 0.87853 0.0
C201 C 0.10997 0.2899 0.91659 0.0
C202 C 0.09371 0.26842 0.94095 0.0
C203 C 0.07181 0.24493 0.92763 0.0
H204 H 0.82382 0.62025 0.39928 0.0
H205 H 0.78453 0.69882 0.46715 0.0
H206 H 0.86626 0.65794 0.37823 0.0
H207 H 0.82634 0.73668 0.44554 0.0
H208 H 0.92661 0.78182 0.4332 0.0
H209 H 0.88362 0.74459 0.45255 0.0
H210 H 0.87526 0.70732 0.34099 0.0
H211 H 0.91885 0.74403 0.32166 0.0
C212 C 0.82417 0.64567 0.40944 0.0
C213 C 0.80108 0.65655 0.43496 0.0
C214 C 0.84832 0.66729 0.39726 0.0
C215 C 0.84975 0.70029 0.41031 0.0
C216 C 0.82624 0.71127 0.43544 0.0
C217 C 0.80218 0.68961 0.44768 0.0
C218 C 0.91564 0.76574 0.41272 0.0
C219 C 0.9263 0.76592 0.37586 0.0
C220 C 0.89082 0.74451 0.4238 0.0
C221 C 0.87595 0.72303 0.3983 0.0
C222 C 0.8865 0.72326 0.36142 0.0
C223 C 0.9114 0.74444 0.35032 0.0
H224 H 0.77482 0.33457 0.87877 0.0
H225 H 0.80658 0.327 0.99207 0.0
H226 H 0.81834 0.29739 0.85975 0.0
H227 H 0.85047 0.29079 0.97313 0.0
H228 H 0.92112 0.26267 0.83563 0.0
H229 H 0.87591 0.2973 0.85377 0.0
H230 H 0.86121 0.23565 0.95025 0.0
H231 H 0.90712 0.20143 0.93269 0.0
C232 C 0.79121 0.32503 0.89951 0.0
C233 C 0.7873 0.33355 0.93679 0.0
C234 C 0.81619 0.3039 0.88867 0.0
C235 C 0.83787 0.29106 0.91495 0.0
C236 C 0.83389 0.29974 0.95228 0.0
C237 C 0.80883 0.32069 0.9631 0.0
C238 C 0.90824 0.25636 0.86069 0.0
C239 C 0.9179 0.22931 0.8828 0.0
C240 C 0.88214 0.27615 0.87095 0.0
C241 C 0.86494 0.26928 0.90347 0.0
C242 C 0.87428 0.24193 0.92532 0.0
C243 C 0.90051 0.22221 0.91516 0.0
H244 H 0.17766 0.66272 0.4883 0.0
H245 H 0.21392 0.65473 0.37691 0.0
H246 H 0.13556 0.70024 0.46704 0.0
H247 H 0.17227 0.69321 0.3556 0.0
H248 H 0.07289 0.7352 0.32576 0.0
H249 H 0.11518 0.69726 0.34578 0.0
H250 H 0.1288 0.75596 0.44466 0.0
H251 H 0.08597 0.7933 0.42525 0.0
C252 C 0.17674 0.66917 0.45926 0.0
C253 C 0.19911 0.65595 0.43419 0.0
C254 C 0.15271 0.69085 0.44709 0.0
C255 C 0.15064 0.69995 0.40963 0.0
C256 C 0.17295 0.68646 0.38455 0.0
C257 C 0.19688 0.66459 0.39673 0.0
C258 C 0.08496 0.74008 0.35173 0.0
C259 C 0.07586 0.76721 0.37399 0.0
C260 C 0.10933 0.71839 0.36313 0.0
C261 C 0.12529 0.72344 0.39693 0.0
C262 C 0.11658 0.75093 0.41882 0.0
C263 C 0.09211 0.77248 0.40756 0.0
H264 H 0.71199 0.7973 0.96639 0.0
H265 H 0.67291 0.87571 0.89804 0.0
H266 H 0.66931 0.75985 0.94605 0.0
H267 H 0.62962 0.83852 0.87831 0.0
H268 H 0.56864 0.71487 0.93361 0.0
H269 H 0.61204 0.75178 0.95299 0.0
H270 H 0.6201 0.78943 0.84152 0.0
H271 H 0.57624 0.75321 0.82227 0.0
C272 C 0.6942 0.80657 0.9471 0.0
C273 C 0.69567 0.83945 0.93378 0.0
C274 C 0.66961 0.78516 0.93561 0.0
C275 C 0.64597 0.79619 0.91064 0.0
C276 C 0.64767 0.82907 0.89719 0.0
C277 C 0.67232 0.85043 0.9086 0.0
C278 C 0.57965 0.731 0.9132 0.0
C279 C 0.56881 0.7311 0.87639 0.0
C280 C 0.60468 0.75204 0.92428 0.0
C281 C 0.61955 0.77359 0.89881 0.0
C282 C 0.60885 0.77353 0.86198 0.0
C283 C 0.58377 0.7526 0.85092 0.0
H284 H 0.33299 0.1076 0.41425 0.0
H285 H 0.29497 0.18551 0.48402 0.0
H286 H 0.37396 0.14623 0.39107 0.0
H287 H 0.33501 0.2241 0.46035 0.0
H288 H 0.43179 0.27321 0.4429 0.0
H289 H 0.39189 0.23354 0.46449 0.0
H290 H 0.38046 0.1961 0.35335 0.0
H291 H 0.42118 0.23537 0.33169 0.0
C292 C 0.33337 0.13299 0.42448 0.0
C293 C 0.31104 0.14344 0.4511 0.0
C294 C 0.35663 0.15514 0.41108 0.0
C295 C 0.35785 0.1882 0.42402 0.0
C296 C 0.33515 0.19865 0.45033 0.0
C297 C 0.31207 0.17652 0.46379 0.0
C298 C 0.42081 0.2566 0.42295 0.0
C299 C 0.42969 0.2576 0.38549 0.0
C300 C 0.39777 0.23392 0.43535 0.0
C301 C 0.38285 0.21176 0.41062 0.0
C302 C 0.39177 0.21259 0.37318 0.0
C303 C 0.41497 0.23525 0.36074 0.0
H304 H 0.3156 0.83285 0.98856 0.0
H305 H 0.28134 0.84429 0.87665 0.0
H306 H 0.35778 0.79563 0.9671 0.0
H307 H 0.32306 0.80602 0.85508 0.0
H308 H 0.4226 0.76399 0.8262 0.0
H309 H 0.3801 0.80159 0.84633 0.0
H310 H 0.36492 0.7407 0.94333 0.0
H311 H 0.40801 0.70375 0.92385 0.0
C312 C 0.31695 0.8272 0.95935 0.0
C313 C 0.29513 0.84132 0.93421 0.0
C314 C 0.34103 0.80567 0.94705 0.0
C315 C 0.34371 0.79759 0.90938 0.0
C316 C 0.32193 0.81196 0.88422 0.0
C317 C 0.29795 0.83371 0.89654 0.0
C318 C 0.41014 0.75856 0.85178 0.0
C319 C 0.41888 0.73094 0.87351 0.0
C320 C 0.38564 0.78006 0.86323 0.0
C321 C 0.36917 0.77429 0.89655 0.0
C322 C 0.37753 0.7463 0.91789 0.0
C323 C 0.40215 0.72497 0.9066 0.0
H324 H 0.71412 0.19301 0.48006 0.0
H325 H 0.67189 0.11738 0.41027 0.0
H326 H 0.67523 0.23356 0.4573 0.0
H327 H 0.63239 0.15773 0.38807 0.0
H328 H 0.58522 0.245 0.33038 0.0
H329 H 0.62765 0.20752 0.35078 0.0
H330 H 0.61827 0.24519 0.46205 0.0
H331 H 0.57634 0.28329 0.44157 0.0
C332 C 0.69645 0.18502 0.45992 0.0
C333 C 0.69587 0.15201 0.44696 0.0
C334 C 0.67408 0.20823 0.447 0.0
C335 C 0.65067 0.19888 0.42093 0.0
C336 C 0.65038 0.16588 0.40777 0.0
C337 C 0.67282 0.14271 0.42061 0.0
C338 C 0.5923 0.24547 0.35917 0.0
C339 C 0.5772 0.26708 0.38437 0.0
C340 C 0.61652 0.22382 0.37089 0.0
C341 C 0.62618 0.22318 0.40808 0.0
C342 C 0.61163 0.24531 0.43312 0.0
C343 C 0.58746 0.26706 0.42139 0.0
H344 H 0.28288 0.48685 0.97828 0.0
H345 H 0.35868 0.41461 0.96377 0.0
H346 H 0.31527 0.52867 0.94525 0.0
H347 H 0.39081 0.45595 0.93075 0.0
H348 H 0.40848 0.59759 0.93464 0.0
H349 H 0.36923 0.55835 0.96023 0.0
H350 H 0.38922 0.4895 0.87159 0.0
H351 H 0.42825 0.52827 0.84598 0.0
C352 C 0.30619 0.47986 0.9674 0.0
C353 C 0.31843 0.44769 0.9734 0.0
C354 C 0.32476 0.50374 0.94886 0.0
C355 C 0.35551 0.4955 0.93554 0.0
C356 C 0.36708 0.46289 0.94043 0.0
C357 C 0.3488 0.4393 0.95937 0.0
C358 C 0.40432 0.57421 0.92044 0.0
C359 C 0.42184 0.56598 0.88849 0.0
C360 C 0.38168 0.5519 0.93494 0.0
C361 C 0.37638 0.52087 0.91794 0.0
C362 C 0.39309 0.51312 0.88542 0.0
C363 C 0.41544 0.53544 0.87078 0.0
H364 H 0.66515 0.57749 0.42464 0.0
H365 H 0.6894 0.50847 0.51167 0.0
H366 H 0.63091 0.53542 0.39601 0.0
H367 H 0.65649 0.46558 0.48229 0.0
H368 H 0.56078 0.41683 0.45203 0.0
H369 H 0.60145 0.45463 0.47587 0.0
H370 H 0.62513 0.48469 0.36438 0.0
H371 H 0.58325 0.4479 0.3407 0.0
C372 C 0.66386 0.55289 0.43695 0.0
C373 C 0.67969 0.54614 0.47033 0.0
C374 C 0.6443 0.5287 0.42056 0.0
C375 C 0.64054 0.49711 0.43703 0.0
C376 C 0.65809 0.48986 0.46932 0.0
C377 C 0.6772 0.51424 0.48599 0.0
C378 C 0.57477 0.4314 0.4326 0.0
C379 C 0.56862 0.42954 0.39451 0.0
C380 C 0.59835 0.45293 0.44624 0.0
C381 C 0.61677 0.47277 0.42209 0.0
C382 C 0.6111 0.47026 0.38387 0.0
C383 C 0.58715 0.44907 0.37026 0.0
H384 H 0.66756 0.42568 0.92756 0.0
H385 H 0.68696 0.49549 0.01542 0.0
H386 H 0.63458 0.46725 0.89634 0.0
H387 H 0.65511 0.5378 0.98362 0.0
H388 H 0.55926 0.58355 0.94691 0.0
H389 H 0.60004 0.54753 0.97358 0.0
H390 H 0.63019 0.51809 0.86404 0.0
H391 H 0.58834 0.55317 0.83741 0.0
C392 C 0.66549 0.45032 0.93959 0.0
C393 C 0.67956 0.4574 0.97393 0.0
C394 C 0.64663 0.47423 0.92171 0.0
C395 C 0.6418 0.50587 0.93763 0.0
C396 C 0.65761 0.51347 0.97098 0.0
C397 C 0.67607 0.4894 0.98908 0.0
C398 C 0.57475 0.56961 0.92848 0.0
C399 C 0.57033 0.57102 0.89005 0.0
C400 C 0.59837 0.54908 0.94378 0.0
C401 C 0.6185 0.52977 0.92101 0.0
C402 C 0.61478 0.5321 0.88247 0.0
C403 C 0.59086 0.55234 0.86718 0.0
H404 H 0.29877 0.4961 0.51759 0.0
H405 H 0.31918 0.56394 0.42813 0.0
H406 H 0.33124 0.45319 0.48774 0.0
H407 H 0.35286 0.52185 0.39891 0.0
H408 H 0.40137 0.43602 0.34383 0.0
H409 H 0.35819 0.47045 0.36837 0.0
H410 H 0.38656 0.44357 0.47943 0.0
H411 H 0.42874 0.40801 0.45472 0.0
C412 C 0.30997 0.50158 0.49125 0.0
C413 C 0.30664 0.5332 0.4751 0.0
C414 C 0.3288 0.47718 0.47431 0.0
C415 C 0.34515 0.48413 0.44116 0.0
C416 C 0.34039 0.51536 0.42416 0.0
C417 C 0.32114 0.53957 0.44087 0.0
C418 C 0.39816 0.43726 0.3735 0.0
C419 C 0.41862 0.41953 0.39738 0.0
C420 C 0.37347 0.45711 0.38758 0.0
C421 C 0.36896 0.4601 0.42592 0.0
C422 C 0.38889 0.44153 0.44974 0.0
C423 C 0.41329 0.42128 0.43561 0.0
H424 H 0.83396 0.91813 0.92229 0.0
H425 H 0.80724 0.98767 0.0077 0.0
H426 H 0.86849 0.96029 0.89419 0.0
H427 H 0.84041 0.03061 0.97883 0.0
H428 H 0.93608 0.08029 0.95137 0.0
H429 H 0.89547 0.04195 0.97418 0.0
H430 H 0.87485 0.01091 0.86223 0.0
H431 H 0.91667 0.04833 0.83959 0.0
C432 C 0.83477 0.94285 0.93432 0.0
C433 C 0.81816 0.94974 0.96715 0.0
C434 C 0.85451 0.96709 0.91825 0.0
C435 C 0.85768 -0.00115 0.93448 0.0
C436 C 0.83931 0.00621 0.9661 0.0
C437 C 0.82003 0.98181 0.98246 0.0
C438 C 0.9228 0.06539 0.93159 0.0
C439 C 0.92977 0.06723 0.8937 0.0
C440 C 0.89924 0.04353 0.94464 0.0
C441 C 0.88163 0.0233 0.92008 0.0
C442 C 0.8882 0.02567 0.88205 0.0
C443 C 0.91213 0.04722 0.86903 0.0
H444 H 0.18855 0.06457 0.42457 0.0
H445 H 0.16623 0.01668 0.52837 0.0
H446 H 0.15763 0.02206 0.39188 0.0
H447 H 0.13383 0.97558 0.49617 0.0
H448 H 0.09063 0.89344 0.42945 0.0
H449 H 0.1319 0.9293 0.45608 0.0
H450 H 0.10222 0.0095 0.38385 0.0
H451 H 0.06195 0.97329 0.35631 0.0
C452 C 0.17738 0.04475 0.44037 0.0
C453 C 0.17952 0.04423 0.4791 0.0
C454 C 0.15929 0.02063 0.42169 0.0
C455 C 0.14285 0.99558 0.44138 0.0
C456 C 0.14631 0.99425 0.47998 0.0
C457 C 0.16456 0.01814 0.49855 0.0
C458 C 0.09309 0.91867 0.4191 0.0
C459 C 0.0728 0.93059 0.39098 0.0
C460 C 0.1167 0.93928 0.43443 0.0
C461 C 0.12031 0.97242 0.42233 0.0
C462 C 0.10054 0.984 0.39351 0.0
C463 C 0.0772 0.96328 0.37789 0.0
H464 H 0.17872 0.93619 0.93063 0.0
H465 H 0.19702 0.00178 0.02271 0.0
H466 H 0.14561 0.97885 0.90173 0.0
H467 H 0.16491 0.04528 0.99325 0.0
H468 H 0.06781 0.09092 0.95766 0.0
H469 H 0.10978 0.05534 0.98306 0.0
H470 H 0.14104 0.03079 0.87244 0.0
H471 H 0.09811 0.06516 0.8472 0.0
C472 C 0.17644 0.9602 0.94409 0.0
C473 C 0.19025 0.9657 0.97892 0.0
C474 C 0.15748 0.98476 0.92754 0.0
C475 C 0.15224 0.01553 0.94529 0.0
C476 C 0.16776 0.02165 0.97917 0.0
C477 C 0.18638 0.9969 0.99593 0.0
C478 C 0.08388 0.07818 0.93882 0.0
C479 C 0.07939 0.08048 0.90047 0.0
C480 C 0.10814 0.05791 0.95335 0.0
C481 C 0.12877 0.03989 0.92983 0.0
C482 C 0.12519 0.04362 0.89142 0.0
C483 C 0.10065 0.06345 0.87693 0.0
H484 H 0.80795 0.00011 0.52153 0.0
H485 H 0.82508 0.06943 0.43253 0.0
H486 H 0.83977 0.95793 0.4895 0.0
H487 H 0.85803 0.0281 0.40113 0.0
H488 H 0.90441 0.94311 0.34181 0.0
H489 H 0.8624 0.9774 0.36917 0.0
H490 H 0.89462 0.94842 0.47818 0.0
H491 H 0.93554 0.91304 0.45072 0.0
C492 C 0.81833 0.00611 0.49489 0.0
C493 C 0.81416 0.03792 0.47944 0.0
C494 C 0.83677 0.98212 0.47667 0.0
C495 C 0.85191 0.98967 0.4429 0.0
C496 C 0.84646 0.02113 0.42678 0.0
C497 C 0.82762 0.04491 0.44477 0.0
C498 C 0.9023 0.94387 0.37162 0.0
C499 C 0.92345 0.92554 0.39412 0.0
C500 C 0.87829 0.96365 0.38734 0.0
C501 C 0.87514 0.96595 0.42594 0.0
C502 C 0.89585 0.9469 0.44835 0.0
C503 C 0.91955 0.92675 0.43262 0.0
H504 H 0.28098 0.38664 0.12284 0.0
H505 H 0.36074 0.35952 0.05276 0.0
H506 H 0.31269 0.37143 0.1775 0.0
H507 H 0.39233 0.3443 0.10708 0.0
H508 H 0.40259 0.39595 0.25345 0.0
H509 H 0.36278 0.3993 0.20417 0.0
H510 H 0.39492 0.30443 0.16166 0.0
H511 H 0.4349 0.30092 0.21106 0.0
C512 C 0.30503 0.37679 0.11919 0.0
C513 C 0.31863 0.37445 0.08381 0.0
C514 C 0.32317 0.36827 0.15034 0.0
C515 C 0.35494 0.35679 0.14644 0.0
C516 C 0.36781 0.35278 0.11087 0.0
C517 C 0.34988 0.36172 0.07986 0.0
C518 C 0.40095 0.37559 0.23387 0.0
C519 C 0.42216 0.34836 0.23588 0.0
C520 C 0.37793 0.37738 0.20588 0.0
C521 C 0.37587 0.35216 0.1791 0.0
C522 C 0.39618 0.32429 0.18189 0.0
C523 C 0.41897 0.32227 0.2102 0.0
H524 H 0.66652 0.66685 0.56364 0.0
H525 H 0.69324 0.5707 0.6073 0.0
H526 H 0.63292 0.67697 0.61781 0.0
H527 H 0.66092 0.58117 0.66232 0.0
H528 H 0.56291 0.58607 0.7179 0.0
H529 H 0.60476 0.58098 0.67191 0.0
H530 H 0.62636 0.68601 0.68281 0.0
H531 H 0.58332 0.6914 0.72839 0.0
C532 C 0.66598 0.64841 0.58551 0.0
C533 C 0.6821 0.61792 0.58136 0.0
C534 C 0.6468 0.65416 0.61657 0.0
C535 C 0.64372 0.62961 0.64415 0.0
C536 C 0.66202 0.60022 0.64114 0.0
C537 C 0.68075 0.59429 0.60988 0.0
C538 C 0.57662 0.60813 0.71076 0.0
C539 C 0.56961 0.63919 0.7268 0.0
C540 C 0.60094 0.60513 0.68453 0.0
C541 C 0.61923 0.63302 0.67383 0.0
C542 C 0.61257 0.66408 0.6902 0.0
C543 C 0.58794 0.66715 0.71636 0.0
H544 H 0.68716 0.43758 0.11136 0.0
H545 H 0.66943 0.33751 0.07259 0.0
H546 H 0.65558 0.42614 0.16675 0.0
H547 H 0.63672 0.32628 0.12705 0.0
H548 H 0.58959 0.31003 0.23811 0.0
H549 H 0.63173 0.31876 0.19209 0.0
H550 H 0.59993 0.42058 0.17772 0.0
H551 H 0.55897 0.41229 0.22425 0.0
C552 C 0.67672 0.41303 0.11499 0.0
C553 C 0.68049 0.38848 0.08778 0.0
C554 C 0.65846 0.40649 0.14651 0.0
C555 C 0.6431 0.37546 0.15108 0.0
C556 C 0.6484 0.35033 0.12468 0.0
C557 C 0.66706 0.35675 0.09341 0.0
C558 C 0.59179 0.33431 0.22522 0.0
C559 C 0.57086 0.36042 0.23481 0.0
C560 C 0.61589 0.3393 0.19881 0.0
C561 C 0.61936 0.37043 0.18127 0.0
C562 C 0.59855 0.39652 0.19121 0.0
C563 C 0.57477 0.39164 0.21774 0.0
H564 H 0.30517 0.65773 0.57792 0.0
H565 H 0.31148 0.55326 0.60629 0.0
H566 H 0.33706 0.67177 0.63215 0.0
H567 H 0.34544 0.56688 0.65843 0.0
H568 H 0.3964 0.59663 0.76015 0.0
H569 H 0.35247 0.58929 0.71648 0.0
H570 H 0.39114 0.66916 0.64936 0.0
H571 H 0.43385 0.67771 0.69451 0.0
C572 C 0.31295 0.63777 0.59599 0.0
C573 C 0.30613 0.6043 0.58743 0.0
C574 C 0.33174 0.64579 0.6268 0.0
C575 C 0.34445 0.6205 0.64948 0.0
C576 C 0.33601 0.58718 0.64198 0.0
C577 C 0.31685 0.57925 0.61161 0.0
C578 C 0.39524 0.6128 0.73619 0.0
C579 C 0.41867 0.63747 0.7304 0.0
C580 C 0.37014 0.60852 0.71103 0.0
C581 C 0.36835 0.62826 0.67894 0.0
C582 C 0.39132 0.65374 0.6739 0.0
C583 C 0.41602 0.65852 0.6996 0.0
H584 H 0.80231 0.92601 0.10448 0.0
H585 H 0.83218 0.83051 0.06198 0.0
H586 H 0.83334 0.91627 0.16069 0.0
H587 H 0.86467 0.82121 0.11725 0.0
H588 H 0.91222 0.8072 0.22856 0.0
H589 H 0.87005 0.81193 0.18181 0.0
H590 H 0.8886 0.9178 0.17358 0.0
H591 H 0.92945 0.91331 0.22088 0.0
C592 C 0.81526 0.90273 0.10754 0.0
C593 C 0.8151 0.87905 0.07909 0.0
C594 C 0.83328 0.89723 0.13949 0.0
C595 C 0.85211 0.86825 0.14323 0.0
C596 C 0.85033 0.84368 0.11553 0.0
C597 C 0.83181 0.84898 0.08382 0.0
C598 C 0.90705 0.83149 0.2169 0.0
C599 C 0.92427 0.85985 0.22843 0.0
C600 C 0.88295 0.8342 0.19004 0.0
C601 C 0.87575 0.86527 0.17394 0.0
C602 C 0.89282 0.89358 0.18588 0.0
C603 C 0.91657 0.89095 0.21289 0.0
H604 H 0.13314 0.13584 0.55369 0.0
H605 H 0.21659 0.11627 0.62123 0.0
H606 H 0.10266 0.15161 0.60866 0.0
H607 H 0.18593 0.13174 0.67662 0.0
H608 H 0.06221 0.19801 0.71201 0.0
H609 H 0.10117 0.19444 0.66162 0.0
H610 H 0.13709 0.10184 0.70628 0.0
H611 H 0.09814 0.10515 0.75651 0.0
C612 C 0.145 0.13544 0.58035 0.0
C613 C 0.17702 0.12476 0.58349 0.0
C614 C 0.12771 0.14464 0.6117 0.0
C615 C 0.142 0.14285 0.6468 0.0
C616 C 0.17441 0.13325 0.64982 0.0
C617 C 0.19192 0.12456 0.61828 0.0
C618 C 0.0788 0.1772 0.71146 0.0
C619 C 0.07686 0.15165 0.73797 0.0
C620 C 0.10099 0.17515 0.68258 0.0
C621 C 0.12199 0.14783 0.68008 0.0
C622 C 0.12133 0.1233 0.70775 0.0
C623 C 0.09885 0.12508 0.7363 0.0
H624 H 0.17503 0.84273 0.06935 0.0
H625 H 0.19874 0.93877 0.11562 0.0
H626 H 0.14021 0.83104 0.122 0.0
H627 H 0.16513 0.92671 0.16924 0.0
H628 H 0.06638 0.91795 0.22274 0.0
H629 H 0.10901 0.92524 0.17798 0.0
H630 H 0.13238 0.82044 0.1861 0.0
H631 H 0.08856 0.81286 0.23026 0.0
C632 C 0.17356 0.86084 0.09149 0.0
C633 C 0.18926 0.89172 0.08847 0.0
C634 C 0.15366 0.85417 0.1217 0.0
C635 C 0.1494 0.87817 0.14963 0.0
C636 C 0.16714 0.90805 0.14776 0.0
C637 C 0.18661 0.91489 0.1173 0.0
C638 C 0.08066 0.89642 0.21521 0.0
C639 C 0.07393 0.86478 0.23001 0.0
C640 C 0.10541 0.90067 0.18971 0.0
C641 C 0.12441 0.87349 0.17857 0.0
C642 C 0.11802 0.84186 0.19377 0.0
C643 C 0.09295 0.83752 0.21912 0.0
H644 H 0.82703 0.15964 0.57427 0.0
H645 H 0.80903 0.06068 0.61633 0.0
H646 H 0.86131 0.17151 0.6274 0.0
H647 H 0.84228 0.07276 0.67027 0.0
H648 H 0.94012 0.08635 0.72485 0.0
H649 H 0.89858 0.07792 0.67892 0.0
H650 H 0.86747 0.18002 0.69256 0.0
H651 H 0.91008 0.18886 0.73803 0.0
C652 C 0.82969 0.14081 0.59552 0.0
C653 C 0.81571 0.10917 0.59119 0.0
C654 C 0.84928 0.14758 0.626 0.0
C655 C 0.85497 0.1229 0.65285 0.0
C656 C 0.83909 0.09203 0.64962 0.0
C657 C 0.81988 0.08514 0.61894 0.0
C658 C 0.9244 0.10704 0.71827 0.0
C659 C 0.92855 0.13834 0.73507 0.0
C660 C 0.90029 0.1021 0.69209 0.0
C661 C 0.87943 0.1282 0.68222 0.0
C662 C 0.88331 0.15946 0.69928 0.0
C663 C 0.90769 0.16451 0.72538 0.0
loop_
_geom_bond_atom_site_label_1
_geom_bond_atom_site_label_2
_geom_bond_distance
_geom_bond_site_symmetry_2
_ccdc_geom_bond_type
H0 C5 0.930 . S
H1 C8 0.930 . S
H2 C10 0.930 . S
H3 C4 1.016 . S
C4 H3 1.016 . S
C4 N11 1.286 . S
C5 H0 0.930 . S
C5 C6 1.397 . S
C5 C7 1.361 . S
C6 C5 1.397 . S
C6 C10 1.390 . S
C7 C5 1.361 . S
C7 C8 1.393 1_554 S
C7 N11 1.413 1_554 S
C8 H1 0.930 . S
C8 C7 1.393 1_556 S
C8 C9 1.399 . S
C9 C8 1.399 . S
C9 C10 1.381 1_556 S
C10 H2 0.930 . S
C10 C6 1.390 . S
C10 C9 1.381 1_554 S
N11 C4 1.286 . S
N11 C7 1.413 1_556 S
H12 C17 0.930 . S
H13 C20 0.930 . S
H14 C22 0.930 . S
H15 C16 1.016 . S
C16 H15 1.016 . S
C16 N23 1.286 . S
C17 H12 0.930 . S
C17 C18 1.397 . S
C17 C19 1.361 . S
C18 C17 1.397 . S
C18 C22 1.390 . S
C19 C17 1.361 . S
C19 C20 1.393 . S
C19 N23 1.413 . S
C20 H13 0.930 . S
C20 C19 1.393 . S
C20 C21 1.399 . S
C21 C20 1.399 . S
C21 C22 1.381 . S
C22 H14 0.930 . S
C22 C18 1.390 . S
C22 C21 1.381 . S
N23 C16 1.286 . S
N23 C19 1.413 . S
H24 C29 0.930 . S
H25 C32 0.930 . S
H26 C34 0.930 . S
H27 C28 1.016 . S
C28 H27 1.016 . S
C28 N35 1.286 1_556 S
C29 H24 0.930 . S
C29 C30 1.397 . S
C29 C31 1.361 . S
C30 C29 1.397 . S
C30 C34 1.390 . S
C31 C29 1.361 . S
C31 C32 1.393 1_554 S
C31 N35 1.413 . S
C32 H25 0.930 . S
C32 C31 1.393 1_556 S
C32 C33 1.399 . S
C33 C32 1.399 . S
C33 C34 1.381 1_556 S
C34 H26 0.930 . S
C34 C30 1.390 . S
C34 C33 1.381 1_554 S
N35 C28 1.286 1_554 S
N35 C31 1.413 . S
H36 C41 0.930 . S
H37 C44 0.930 . S
H38 C46 0.930 . S
H39 C40 1.016 . S
C40 H39 1.016 . S
C40 N47 1.286 . S
C41 H36 0.930 . S
C41 C42 1.397 . S
C41 C43 1.361 . S
C42 C41 1.397 . S
C42 C46 1.390 . S
C43 C41 1.361 . S
C43 C44 1.393 . S
C43 N47 1.413 . S
C44 H37 0.930 . S
C44 C43 1.393 . S
C44 C45 1.399 . S
C45 C44 1.399 . S
C45 C46 1.381 . S
C46 H38 0.930 . S
C46 C42 1.390 . S
C46 C45 1.381 . S
N47 C40 1.286 . S
N47 C43 1.413 . S
H48 C53 0.930 . S
H49 C56 0.930 . S
H50 C58 0.930 . S
H51 C52 1.016 . S
C52 H51 1.016 . S
C52 N59 1.286 . S
C53 H48 0.930 . S
C53 C54 1.397 . S
C53 C55 1.361 . S
C54 C53 1.397 . S
C54 C58 1.390 . S
C55 C53 1.361 . S
C55 C56 1.393 1_554 S
C55 N59 1.413 1_554 S
C56 H49 0.930 . S
C56 C55 1.393 1_556 S
C56 C57 1.399 . S
C57 C56 1.399 . S
C57 C58 1.381 1_556 S
C58 H50 0.930 . S
C58 C54 1.390 . S
C58 C57 1.381 1_554 S
N59 C52 1.286 . S
N59 C55 1.413 1_556 S
H60 C65 0.930 . S
H61 C68 0.930 . S
H62 C70 0.930 . S
H63 C64 1.016 . S
C64 H63 1.016 . S
C64 N71 1.286 . S
C65 H60 0.930 . S
C65 C66 1.397 . S
C65 C67 1.361 . S
C66 C65 1.397 . S
C66 C70 1.390 . S
C67 C65 1.361 . S
C67 C68 1.393 . S
C67 N71 1.413 . S
C68 H61 0.930 . S
C68 C67 1.393 . S
C68 C69 1.399 . S
C69 C68 1.399 . S
C69 C70 1.381 . S
C70 H62 0.930 . S
C70 C66 1.390 . S
C70 C69 1.381 . S
N71 C64 1.286 . S
N71 C67 1.413 . S
H72 C77 0.930 . S
H73 C80 0.930 . S
H74 C82 0.930 . S
H75 C76 1.016 . S
C76 H75 1.016 . S
C76 N83 1.286 1_556 S
C77 H72 0.930 . S
C77 C78 1.397 . S
C77 C79 1.361 . S
C78 C77 1.397 . S
C78 C82 1.390 . S
C79 C77 1.361 . S
C79 C80 1.393 1_554 S
C79 N83 1.413 . S
C80 H73 0.930 . S
C80 C79 1.393 1_556 S
C80 C81 1.399 . S
C81 C80 1.399 . S
C81 C82 1.381 1_556 S
C82 H74 0.930 . S
C82 C78 1.390 . S
C82 C81 1.381 1_554 S
N83 C76 1.286 1_554 S
N83 C79 1.413 . S
H84 C89 0.930 . S
H85 C92 0.930 . S
H86 C94 0.930 . S
H87 C88 1.016 . S
C88 H87 1.016 . S
C88 N95 1.286 . S
C89 H84 0.930 . S
C89 C90 1.397 . S
C89 C91 1.361 . S
C90 C89 1.397 . S
C90 C94 1.390 . S
C91 C89 1.361 . S
C91 C92 1.393 . S
C91 N95 1.413 . S
C92 H85 0.930 . S
C92 C91 1.393 . S
C92 C93 1.399 . S
C93 C92 1.399 . S
C93 C94 1.381 . S
C94 H86 0.930 . S
C94 C90 1.390 . S
C94 C93 1.381 . S
N95 C88 1.286 . S
N95 C91 1.413 . S
Sc96 O99 2.025 . S
Sc96 O106 2.105 1_455 S
Sc96 O109 2.105 . S
Sc96 O112 2.105 . S
Sc96 O115 2.105 1_455 S
Sc97 O99 2.025 . S
Sc97 O107 2.105 1_455 S
Sc97 O111 2.105 . S
Sc97 O113 2.105 . S
Sc97 O117 2.105 1_455 S
Sc98 O99 2.025 . S
Sc98 O108 2.105 1_455 S
Sc98 O110 2.105 . S
Sc98 O114 2.105 . S
Sc98 O116 2.105 1_455 S
O99 Sc96 2.025 . S
O99 Sc97 2.025 . S
O99 Sc98 2.025 . S
C100 O106 1.268 . S
C100 O116 1.268 . S
C101 O107 1.268 . S
C101 O115 1.268 . S
C102 O108 1.268 . S
C102 O117 1.268 . S
C103 O109 1.268 . S
C103 O113 1.268 . S
C104 O110 1.268 . S
C104 O112 1.268 . S
C105 O111 1.268 . S
C105 O114 1.268 . S
O106 Sc96 2.105 1_655 S
O106 C100 1.268 . S
O107 Sc97 2.105 1_655 S
O107 C101 1.268 . S
O108 Sc98 2.105 1_655 S
O108 C102 1.268 . S
O109 Sc96 2.105 . S
O109 C103 1.268 . S
O110 Sc98 2.105 . S
O110 C104 1.268 . S
O111 Sc97 2.105 . S
O111 C105 1.268 . S
O112 Sc96 2.105 . S
O112 C104 1.268 . S
O113 Sc97 2.105 . S
O113 C103 1.268 . S
O114 Sc98 2.105 . S
O114 C105 1.268 . S
O115 Sc96 2.105 1_655 S
O115 C101 1.268 . S
O116 Sc98 2.105 1_655 S
O116 C100 1.268 . S
O117 Sc97 2.105 1_655 S
O117 C102 1.268 . S
Sc118 O121 2.025 . S
Sc118 O128 2.105 . S
Sc118 O131 2.105 1_455 S
Sc118 O134 2.105 1_455 S
Sc118 O137 2.105 . S
Sc119 O121 2.025 . S
Sc119 O129 2.105 . S
Sc119 O133 2.105 1_455 S
Sc119 O135 2.105 1_455 S
Sc119 O139 2.105 . S
Sc120 O121 2.025 . S
Sc120 O130 2.105 . S
Sc120 O132 2.105 1_455 S
Sc120 O136 2.105 1_455 S
Sc120 O138 2.105 . S
O121 Sc118 2.025 . S
O121 Sc119 2.025 . S
O121 Sc120 2.025 . S
C122 O128 1.268 . S
C122 O138 1.268 . S
C123 O129 1.268 . S
C123 O137 1.268 . S
C124 O130 1.268 . S
C124 O139 1.268 . S
C125 O131 1.268 . S
C125 O135 1.268 . S
C126 O132 1.268 . S
C126 O134 1.268 . S
C127 O133 1.268 . S
C127 O136 1.268 . S
O128 Sc118 2.105 . S
O128 C122 1.268 . S
O129 Sc119 2.105 . S
O129 C123 1.268 . S
O130 Sc120 2.105 . S
O130 C124 1.268 . S
O131 Sc118 2.105 1_655 S
O131 C125 1.268 . S
O132 Sc120 2.105 1_655 S
O132 C126 1.268 . S
O133 Sc119 2.105 1_655 S
O133 C127 1.268 . S
O134 Sc118 2.105 1_655 S
O134 C126 1.268 . S
O135 Sc119 2.105 1_655 S
O135 C125 1.268 . S
O136 Sc120 2.105 1_655 S
O136 C127 1.268 . S
O137 Sc118 2.105 . S
O137 C123 1.268 . S
O138 Sc120 2.105 . S
O138 C122 1.268 . S
O139 Sc119 2.105 . S
O139 C124 1.268 . S
Sc140 O143 2.025 . S
Sc140 O150 2.105 . S
Sc140 O153 2.105 . S
Sc140 O156 2.105 . S
Sc140 O159 2.105 . S
Sc141 O143 2.025 . S
Sc141 O151 2.105 . S
Sc141 O155 2.105 . S
Sc141 O157 2.105 . S
Sc141 O161 2.105 . S
Sc142 O143 2.025 . S
Sc142 O152 2.105 . S
Sc142 O154 2.105 . S
Sc142 O158 2.105 . S
Sc142 O160 2.105 . S
O143 Sc140 2.025 . S
O143 Sc141 2.025 . S
O143 Sc142 2.025 . S
C144 O150 1.268 . S
C144 O160 1.268 . S
C145 O151 1.268 . S
C145 O159 1.268 . S
C146 O152 1.268 . S
C146 O161 1.268 . S
C147 O153 1.268 . S
C147 O157 1.268 . S
C148 O154 1.268 . S
C148 O156 1.268 . S
C149 O155 1.268 . S
C149 O158 1.268 . S
O150 Sc140 2.105 . S
O150 C144 1.268 . S
O151 Sc141 2.105 . S
O151 C145 1.268 . S
O152 Sc142 2.105 . S
O152 C146 1.268 . S
O153 Sc140 2.105 . S
O153 C147 1.268 . S
O154 Sc142 2.105 . S
O154 C148 1.268 . S
O155 Sc141 2.105 . S
O155 C149 1.268 . S
O156 Sc140 2.105 . S
O156 C148 1.268 . S
O157 Sc141 2.105 . S
O157 C147 1.268 . S
O158 Sc142 2.105 . S
O158 C149 1.268 . S
O159 Sc140 2.105 . S
O159 C145 1.268 . S
O160 Sc142 2.105 . S
O160 C144 1.268 . S
O161 Sc141 2.105 . S
O161 C146 1.268 . S
Sc162 O165 2.025 . S
Sc162 O172 2.105 . S
Sc162 O175 2.105 . S
Sc162 O178 2.105 . S
Sc162 O181 2.105 . S
Sc163 O165 2.025 . S
Sc163 O173 2.105 . S
Sc163 O177 2.105 . S
Sc163 O179 2.105 . S
Sc163 O183 2.105 . S
Sc164 O165 2.025 . S
Sc164 O174 2.105 . S
Sc164 O176 2.105 . S
Sc164 O180 2.105 . S
Sc164 O182 2.105 . S
O165 Sc162 2.025 . S
O165 Sc163 2.025 . S
O165 Sc164 2.025 . S
C166 O172 1.268 . S
C166 O182 1.268 . S
C167 O173 1.268 . S
C167 O181 1.268 . S
C168 O174 1.268 . S
C168 O183 1.268 . S
C169 O175 1.268 . S
C169 O179 1.268 . S
C170 O176 1.268 . S
C170 O178 1.268 . S
C171 O177 1.268 . S
C171 O180 1.268 . S
O172 Sc162 2.105 . S
O172 C166 1.268 . S
O173 Sc163 2.105 . S
O173 C167 1.268 . S
O174 Sc164 2.105 . S
O174 C168 1.268 . S
O175 Sc162 2.105 . S
O175 C169 1.268 . S
O176 Sc164 2.105 . S
O176 C170 1.268 . S
O177 Sc163 2.105 . S
O177 C171 1.268 . S
O178 Sc162 2.105 . S
O178 C170 1.268 . S
O179 Sc163 2.105 . S
O179 C169 1.268 . S
O180 Sc164 2.105 . S
O180 C171 1.268 . S
O181 Sc162 2.105 . S
O181 C167 1.268 . S
O182 Sc164 2.105 . S
O182 C166 1.268 . S
O183 Sc163 2.105 . S
O183 C168 1.268 . S
H184 C192 0.950 . S
H185 C197 0.950 . S
H186 C194 0.950 . S
H187 C196 0.950 . S
H188 C198 0.950 . S
H189 C200 0.950 . S
H190 C202 0.950 . S
H191 C203 0.950 . S
C192 H184 0.950 . S
C192 C193 1.386 . S
C192 C194 1.391 . S
C193 C192 1.386 . S
C193 C197 1.393 . S
C194 H186 0.950 . S
C194 C192 1.391 . S
C194 C195 1.400 . S
C195 C194 1.400 . S
C195 C196 1.398 . S
C195 C201 1.491 . S
C196 H187 0.950 . S
C196 C195 1.398 . S
C196 C197 1.391 . S
C197 H185 0.950 . S
C197 C193 1.393 . S
C197 C196 1.391 . S
C198 H188 0.950 . S
C198 C199 1.386 . S
C198 C200 1.391 . S
C199 C198 1.386 . S
C199 C203 1.393 . S
C200 H189 0.950 . S
C200 C198 1.391 . S
C200 C201 1.400 . S
C201 C195 1.491 . S
C201 C200 1.400 . S
C201 C202 1.398 . S
C202 H190 0.950 . S
C202 C201 1.398 . S
C202 C203 1.391 . S
C203 H191 0.950 . S
C203 C199 1.393 . S
C203 C202 1.391 . S
H204 C212 0.950 . S
H205 C217 0.950 . S
H206 C214 0.950 . S
H207 C216 0.950 . S
H208 C218 0.950 . S
H209 C220 0.950 . S
H210 C222 0.950 . S
H211 C223 0.950 . S
C212 H204 0.950 . S
C212 C213 1.386 . S
C212 C214 1.391 . S
C213 C212 1.386 . S
C213 C217 1.393 . S
C214 H206 0.950 . S
C214 C212 1.391 . S
C214 C215 1.400 . S
C215 C214 1.400 . S
C215 C216 1.398 . S
C215 C221 1.491 . S
C216 H207 0.950 . S
C216 C215 1.398 . S
C216 C217 1.391 . S
C217 H205 0.950 . S
C217 C213 1.393 . S
C217 C216 1.391 . S
C218 H208 0.950 . S
C218 C219 1.386 . S
C218 C220 1.391 . S
C219 C218 1.386 . S
C219 C223 1.393 . S
C220 H209 0.950 . S
C220 C218 1.391 . S
C220 C221 1.400 . S
C221 C215 1.491 . S
C221 C220 1.400 . S
C221 C222 1.398 . S
C222 H210 0.950 . S
C222 C221 1.398 . S
C222 C223 1.391 . S
C223 H211 0.950 . S
C223 C219 1.393 . S
C223 C222 1.391 . S
H224 C232 0.950 . S
H225 C237 0.950 . S
H226 C234 0.950 . S
H227 C236 0.950 . S
H228 C238 0.950 . S
H229 C240 0.950 . S
H230 C242 0.950 . S
H231 C243 0.950 . S
C232 H224 0.950 . S
C232 C233 1.386 . S
C232 C234 1.391 . S
C233 C232 1.386 . S
C233 C237 1.393 . S
C234 H226 0.950 . S
C234 C232 1.391 . S
C234 C235 1.400 . S
C235 C234 1.400 . S
C235 C236 1.398 . S
C235 C241 1.491 . S
C236 H227 0.950 . S
C236 C235 1.398 . S
C236 C237 1.391 . S
C237 H225 0.950 . S
C237 C233 1.393 . S
C237 C236 1.391 . S
C238 H228 0.950 . S
C238 C239 1.386 . S
C238 C240 1.391 . S
C239 C238 1.386 . S
C239 C243 1.393 . S
C240 H229 0.950 . S
C240 C238 1.391 . S
C240 C241 1.400 . S
C241 C235 1.491 . S
C241 C240 1.400 . S
C241 C242 1.398 . S
C242 H230 0.950 . S
C242 C241 1.398 . S
C242 C243 1.391 . S
C243 H231 0.950 . S
C243 C239 1.393 . S
C243 C242 1.391 . S
H244 C252 0.950 . S
H245 C257 0.950 . S
H246 C254 0.950 . S
H247 C256 0.950 . S
H248 C258 0.950 . S
H249 C260 0.950 . S
H250 C262 0.950 . S
H251 C263 0.950 . S
C252 H244 0.950 . S
C252 C253 1.386 . S
C252 C254 1.391 . S
C253 C252 1.386 . S
C253 C257 1.393 . S
C254 H246 0.950 . S
C254 C252 1.391 . S
C254 C255 1.400 . S
C255 C254 1.400 . S
C255 C256 1.398 . S
C255 C261 1.491 . S
C256 H247 0.950 . S
C256 C255 1.398 . S
C256 C257 1.391 . S
C257 H245 0.950 . S
C257 C253 1.393 . S
C257 C256 1.391 . S
C258 H248 0.950 . S
C258 C259 1.386 . S
C258 C260 1.391 . S
C259 C258 1.386 . S
C259 C263 1.393 . S
C260 H249 0.950 . S
C260 C258 1.391 . S
C260 C261 1.400 . S
C261 C255 1.491 . S
C261 C260 1.400 . S
C261 C262 1.398 . S
C262 H250 0.950 . S
C262 C261 1.398 . S
C262 C263 1.391 . S
C263 H251 0.950 . S
C263 C259 1.393 . S
C263 C262 1.391 . S
H264 C272 0.950 . S
H265 C277 0.950 . S
H266 C274 0.950 . S
H267 C276 0.950 . S
H268 C278 0.950 . S
H269 C280 0.950 . S
H270 C282 0.950 . S
H271 C283 0.950 . S
C272 H264 0.950 . S
C272 C273 1.386 . S
C272 C274 1.391 . S
C273 C272 1.386 . S
C273 C277 1.393 . S
C274 H266 0.950 . S
C274 C272 1.391 . S
C274 C275 1.400 . S
C275 C274 1.400 . S
C275 C276 1.398 . S
C275 C281 1.491 . S
C276 H267 0.950 . S
C276 C275 1.398 . S
C276 C277 1.391 . S
C277 H265 0.950 . S
C277 C273 1.393 . S
C277 C276 1.391 . S
C278 H268 0.950 . S
C278 C279 1.386 . S
C278 C280 1.391 . S
C279 C278 1.386 . S
C279 C283 1.393 . S
C280 H269 0.950 . S
C280 C278 1.391 . S
C280 C281 1.400 . S
C281 C275 1.491 . S
C281 C280 1.400 . S
C281 C282 1.398 . S
C282 H270 0.950 . S
C282 C281 1.398 . S
C282 C283 1.391 . S
C283 H271 0.950 . S
C283 C279 1.393 . S
C283 C282 1.391 . S
H284 C292 0.950 . S
H285 C297 0.950 . S
H286 C294 0.950 . S
H287 C296 0.950 . S
H288 C298 0.950 . S
H289 C300 0.950 . S
H290 C302 0.950 . S
H291 C303 0.950 . S
C292 H284 0.950 . S
C292 C293 1.386 . S
C292 C294 1.391 . S
C293 C292 1.386 . S
C293 C297 1.393 . S
C294 H286 0.950 . S
C294 C292 1.391 . S
C294 C295 1.400 . S
C295 C294 1.400 . S
C295 C296 1.398 . S
C295 C301 1.491 . S
C296 H287 0.950 . S
C296 C295 1.398 . S
C296 C297 1.391 . S
C297 H285 0.950 . S
C297 C293 1.393 . S
C297 C296 1.391 . S
C298 H288 0.950 . S
C298 C299 1.386 . S
C298 C300 1.391 . S
C299 C298 1.386 . S
C299 C303 1.393 . S
C300 H289 0.950 . S
C300 C298 1.391 . S
C300 C301 1.400 . S
C301 C295 1.491 . S
C301 C300 1.400 . S
C301 C302 1.398 . S
C302 H290 0.950 . S
C302 C301 1.398 . S
C302 C303 1.391 . S
C303 H291 0.950 . S
C303 C299 1.393 . S
C303 C302 1.391 . S
H304 C312 0.950 . S
H305 C317 0.950 . S
H306 C314 0.950 . S
H307 C316 0.950 . S
H308 C318 0.950 . S
H309 C320 0.950 . S
H310 C322 0.950 . S
H311 C323 0.950 . S
C312 H304 0.950 . S
C312 C313 1.386 . S
C312 C314 1.391 . S
C313 C312 1.386 . S
C313 C317 1.393 . S
C314 H306 0.950 . S
C314 C312 1.391 . S
C314 C315 1.400 . S
C315 C314 1.400 . S
C315 C316 1.398 . S
C315 C321 1.491 . S
C316 H307 0.950 . S
C316 C315 1.398 . S
C316 C317 1.391 . S
C317 H305 0.950 . S
C317 C313 1.393 . S
C317 C316 1.391 . S
C318 H308 0.950 . S
C318 C319 1.386 . S
C318 C320 1.391 . S
C319 C318 1.386 . S
C319 C323 1.393 . S
C320 H309 0.950 . S
C320 C318 1.391 . S
C320 C321 1.400 . S
C321 C315 1.491 . S
C321 C320 1.400 . S
C321 C322 1.398 . S
C322 H310 0.950 . S
C322 C321 1.398 . S
C322 C323 1.391 . S
C323 H311 0.950 . S
C323 C319 1.393 . S
C323 C322 1.391 . S
H324 C332 0.950 . S
H325 C337 0.950 . S
H326 C334 0.950 . S
H327 C336 0.950 . S
H328 C338 0.950 . S
H329 C340 0.950 . S
H330 C342 0.950 . S
H331 C343 0.950 . S
C332 H324 0.950 . S
C332 C333 1.386 . S
C332 C334 1.391 . S
C333 C332 1.386 . S
C333 C337 1.393 . S
C334 H326 0.950 . S
C334 C332 1.391 . S
C334 C335 1.400 . S
C335 C334 1.400 . S
C335 C336 1.398 . S
C335 C341 1.491 . S
C336 H327 0.950 . S
C336 C335 1.398 . S
C336 C337 1.391 . S
C337 H325 0.950 . S
C337 C333 1.393 . S
C337 C336 1.391 . S
C338 H328 0.950 . S
C338 C339 1.386 . S
C338 C340 1.391 . S
C339 C338 1.386 . S
C339 C343 1.393 . S
C340 H329 0.950 . S
C340 C338 1.391 . S
C340 C341 1.400 . S
C341 C335 1.491 . S
C341 C340 1.400 . S
C341 C342 1.398 . S
C342 H330 0.950 . S
C342 C341 1.398 . S
C342 C343 1.391 . S
C343 H331 0.950 . S
C343 C339 1.393 . S
C343 C342 1.391 . S
H344 C352 0.950 . S
H345 C357 0.950 1_554 S
H346 C354 0.950 . S
H347 C356 0.950 . S
H348 C358 0.950 . S
H349 C360 0.950 . S
H350 C362 0.950 . S
H351 C363 0.950 . S
C352 H344 0.950 . S
C352 C353 1.386 . S
C352 C354 1.391 . S
C353 C352 1.386 . S
C353 C357 1.393 . S
C354 H346 0.950 . S
C354 C352 1.391 . S
C354 C355 1.400 . S
C355 C354 1.400 . S
C355 C356 1.398 . S
C355 C361 1.491 . S
C356 H347 0.950 . S
C356 C355 1.398 . S
C356 C357 1.391 . S
C357 H345 0.950 1_556 S
C357 C353 1.393 . S
C357 C356 1.391 . S
C358 H348 0.950 . S
C358 C359 1.386 . S
C358 C360 1.391 . S
C359 C358 1.386 . S
C359 C363 1.393 . S
C360 H349 0.950 . S
C360 C358 1.391 . S
C360 C361 1.400 . S
C361 C355 1.491 . S
C361 C360 1.400 . S
C361 C362 1.398 . S
C362 H350 0.950 . S
C362 C361 1.398 . S
C362 C363 1.391 . S
C363 H351 0.950 . S
C363 C359 1.393 . S
C363 C362 1.391 . S
H364 C372 0.950 . S
H365 C377 0.950 . S
H366 C374 0.950 . S
H367 C376 0.950 . S
H368 C378 0.950 . S
H369 C380 0.950 . S
H370 C382 0.950 . S
H371 C383 0.950 . S
C372 H364 0.950 . S
C372 C373 1.386 . S
C372 C374 1.391 . S
C373 C372 1.386 . S
C373 C377 1.393 . S
C374 H366 0.950 . S
C374 C372 1.391 . S
C374 C375 1.400 . S
C375 C374 1.400 . S
C375 C376 1.398 . S
C375 C381 1.491 . S
C376 H367 0.950 . S
C376 C375 1.398 . S
C376 C377 1.391 . S
C377 H365 0.950 . S
C377 C373 1.393 . S
C377 C376 1.391 . S
C378 H368 0.950 . S
C378 C379 1.386 . S
C378 C380 1.391 . S
C379 C378 1.386 . S
C379 C383 1.393 . S
C380 H369 0.950 . S
C380 C378 1.391 . S
C380 C381 1.400 . S
C381 C375 1.491 . S
C381 C380 1.400 . S
C381 C382 1.398 . S
C382 H370 0.950 . S
C382 C381 1.398 . S
C382 C383 1.391 . S
C383 H371 0.950 . S
C383 C379 1.393 . S
C383 C382 1.391 . S
H384 C392 0.950 . S
H385 C397 0.950 1_554 S
H386 C394 0.950 . S
H387 C396 0.950 . S
H388 C398 0.950 . S
H389 C400 0.950 . S
H390 C402 0.950 . S
H391 C403 0.950 . S
C392 H384 0.950 . S
C392 C393 1.386 . S
C392 C394 1.391 . S
C393 C392 1.386 . S
C393 C397 1.393 . S
C394 H386 0.950 . S
C394 C392 1.391 . S
C394 C395 1.400 . S
C395 C394 1.400 . S
C395 C396 1.398 . S
C395 C401 1.491 . S
C396 H387 0.950 . S
C396 C395 1.398 . S
C396 C397 1.391 . S
C397 H385 0.950 1_556 S
C397 C393 1.393 . S
C397 C396 1.391 . S
C398 H388 0.950 . S
C398 C399 1.386 . S
C398 C400 1.391 . S
C399 C398 1.386 . S
C399 C403 1.393 . S
C400 H389 0.950 . S
C400 C398 1.391 . S
C400 C401 1.400 . S
C401 C395 1.491 . S
C401 C400 1.400 . S
C401 C402 1.398 . S
C402 H390 0.950 . S
C402 C401 1.398 . S
C402 C403 1.391 . S
C403 H391 0.950 . S
C403 C399 1.393 . S
C403 C402 1.391 . S
H404 C412 0.950 . S
H405 C417 0.950 . S
H406 C414 0.950 . S
H407 C416 0.950 . S
H408 C418 0.950 . S
H409 C420 0.950 . S
H410 C422 0.950 . S
H411 C423 0.950 . S
C412 H404 0.950 . S
C412 C413 1.386 . S
C412 C414 1.391 . S
C413 C412 1.386 . S
C413 C417 1.393 . S
C414 H406 0.950 . S
C414 C412 1.391 . S
C414 C415 1.400 . S
C415 C414 1.400 . S
C415 C416 1.398 . S
C415 C421 1.491 . S
C416 H407 0.950 . S
C416 C415 1.398 . S
C416 C417 1.391 . S
C417 H405 0.950 . S
C417 C413 1.393 . S
C417 C416 1.391 . S
C418 H408 0.950 . S
C418 C419 1.386 . S
C418 C420 1.391 . S
C419 C418 1.386 . S
C419 C423 1.393 . S
C420 H409 0.950 . S
C420 C418 1.391 . S
C420 C421 1.400 . S
C421 C415 1.491 . S
C421 C420 1.400 . S
C421 C422 1.398 . S
C422 H410 0.950 . S
C422 C421 1.398 . S
C422 C423 1.391 . S
C423 H411 0.950 . S
C423 C419 1.393 . S
C423 C422 1.391 . S
H424 C432 0.950 . S
H425 C437 0.950 1_554 S
H426 C434 0.950 . S
H427 C436 0.950 1_545 S
H428 C438 0.950 . S
H429 C440 0.950 . S
H430 C442 0.950 1_565 S
H431 C443 0.950 . S
C432 H424 0.950 . S
C432 C433 1.386 . S
C432 C434 1.391 . S
C433 C432 1.386 . S
C433 C437 1.393 . S
C434 H426 0.950 . S
C434 C432 1.391 . S
C434 C435 1.400 . S
C435 C434 1.400 . S
C435 C436 1.398 . S
C435 C441 1.491 1_565 S
C436 H427 0.950 1_565 S
C436 C435 1.398 . S
C436 C437 1.391 . S
C437 H425 0.950 1_556 S
C437 C433 1.393 . S
C437 C436 1.391 . S
C438 H428 0.950 . S
C438 C439 1.386 . S
C438 C440 1.391 . S
C439 C438 1.386 . S
C439 C443 1.393 . S
C440 H429 0.950 . S
C440 C438 1.391 . S
C440 C441 1.400 . S
C441 C435 1.491 1_545 S
C441 C440 1.400 . S
C441 C442 1.398 . S
C442 H430 0.950 1_545 S
C442 C441 1.398 . S
C442 C443 1.391 . S
C443 H431 0.950 . S
C443 C439 1.393 . S
C443 C442 1.391 . S
H444 C452 0.950 . S
H445 C457 0.950 . S
H446 C454 0.950 . S
H447 C456 0.950 1_565 S
H448 C458 0.950 . S
H449 C460 0.950 . S
H450 C462 0.947 . S
H451 C463 0.950 . S
C452 H444 0.950 . S
C452 C453 1.386 . S
C452 C454 1.391 . S
C453 C452 1.386 . S
C453 C457 1.393 . S
C454 H446 0.950 . S
C454 C452 1.391 . S
C454 C455 1.400 . S
C455 C454 1.400 . S
C455 C456 1.398 . S
C455 C461 1.491 1_545 S
C456 H447 0.950 1_545 S
C456 C455 1.398 . S
C456 C457 1.391 . S
C457 H445 0.950 . S
C457 C453 1.393 . S
C457 C456 1.391 . S
C458 H448 0.950 . S
C458 C459 1.386 . S
C458 C460 1.391 . S
C459 C458 1.386 . S
C459 C463 1.393 . S
C460 H449 0.950 . S
C460 C458 1.391 . S
C460 C461 1.400 . S
C461 C455 1.491 1_565 S
C461 C460 1.400 . S
C461 C462 1.399 1_565 S
C462 H450 0.947 . S
C462 C461 1.399 1_545 S
C462 C463 1.393 1_545 S
C463 H451 0.950 . S
C463 C459 1.393 . S
C463 C462 1.393 1_565 S
H464 C472 0.950 . S
H465 C477 0.956 . S
H466 C474 0.950 . S
H467 C476 0.950 1_545 S
H468 C478 0.950 . S
H469 C480 0.950 . S
H470 C482 0.950 . S
H471 C483 0.950 . S
C472 H464 0.950 . S
C472 C473 1.386 . S
C472 C474 1.391 . S
C473 C472 1.386 . S
C473 C477 1.393 . S
C474 H466 0.950 . S
C474 C472 1.391 . S
C474 C475 1.400 . S
C475 C474 1.400 . S
C475 C476 1.398 . S
C475 C481 1.491 1_565 S
C476 H467 0.950 1_565 S
C476 C475 1.398 . S
C476 C477 1.391 . S
C477 H465 0.956 . S
C477 C473 1.393 . S
C477 C476 1.391 . S
C478 H468 0.950 . S
C478 C479 1.386 . S
C478 C480 1.391 . S
C479 C478 1.386 . S
C479 C483 1.393 . S
C480 H469 0.950 . S
C480 C478 1.391 . S
C480 C481 1.400 . S
C481 C475 1.491 1_545 S
C481 C480 1.400 . S
C481 C482 1.398 1_545 S
C482 H470 0.950 . S
C482 C481 1.398 1_565 S
C482 C483 1.391 1_565 S
C483 H471 0.950 . S
C483 C479 1.393 . S
C483 C482 1.391 1_545 S
H484 C492 0.950 . S
H485 C497 0.950 . S
H486 C494 0.950 . S
H487 C496 0.950 . S
H488 C498 0.950 . S
H489 C500 0.950 . S
H490 C502 0.950 . S
H491 C503 0.950 . S
C492 H484 0.950 . S
C492 C493 1.386 . S
C492 C494 1.391 . S
C493 C492 1.386 . S
C493 C497 1.393 . S
C494 H486 0.950 . S
C494 C492 1.391 . S
C494 C495 1.400 . S
C495 C494 1.400 . S
C495 C496 1.398 . S
C495 C501 1.491 1_545 S
C496 H487 0.950 . S
C496 C495 1.398 . S
C496 C497 1.391 . S
C497 H485 0.950 . S
C497 C493 1.393 . S
C497 C496 1.391 . S
C498 H488 0.950 . S
C498 C499 1.386 . S
C498 C500 1.391 . S
C499 C498 1.386 . S
C499 C503 1.393 . S
C500 H489 0.950 . S
C500 C498 1.391 . S
C500 C501 1.400 . S
C501 C495 1.491 1_565 S
C501 C500 1.400 . S
C501 C502 1.398 . S
C502 H490 0.950 . S
C502 C501 1.398 . S
C502 C503 1.391 . S
C503 H491 0.950 . S
C503 C499 1.393 . S
C503 C502 1.391 . S
H504 C512 0.950 . S
H505 C517 0.950 . S
H506 C514 0.950 . S
H507 C516 0.950 . S
H508 C518 0.950 . S
H509 C520 0.950 . S
H510 C522 0.950 . S
H511 C523 0.950 . S
C512 H504 0.950 . S
C512 C513 1.386 . S
C512 C514 1.391 . S
C513 C512 1.386 . S
C513 C517 1.393 . S
C514 H506 0.950 . S
C514 C512 1.391 . S
C514 C515 1.400 . S
C515 C514 1.400 . S
C515 C516 1.398 . S
C515 C521 1.491 . S
C516 H507 0.950 . S
C516 C515 1.398 . S
C516 C517 1.391 . S
C517 H505 0.950 . S
C517 C513 1.393 . S
C517 C516 1.391 . S
C518 H508 0.950 . S
C518 C519 1.386 . S
C518 C520 1.391 . S
C519 C518 1.386 . S
C519 C523 1.393 . S
C520 H509 0.950 . S
C520 C518 1.391 . S
C520 C521 1.400 . S
C521 C515 1.491 . S
C521 C520 1.400 . S
C521 C522 1.398 . S
C522 H510 0.950 . S
C522 C521 1.398 . S
C522 C523 1.391 . S
C523 H511 0.950 . S
C523 C519 1.393 . S
C523 C522 1.391 . S
H524 C532 0.950 . S
H525 C537 0.950 . S
H526 C534 0.950 . S
H527 C536 0.950 . S
H528 C538 0.950 . S
H529 C540 0.950 . S
H530 C542 0.950 . S
H531 C543 0.950 . S
C532 H524 0.950 . S
C532 C533 1.386 . S
C532 C534 1.391 . S
C533 C532 1.386 . S
C533 C537 1.393 . S
C534 H526 0.950 . S
C534 C532 1.391 . S
C534 C535 1.400 . S
C535 C534 1.400 . S
C535 C536 1.398 . S
C535 C541 1.491 . S
C536 H527 0.950 . S
C536 C535 1.398 . S
C536 C537 1.391 . S
C537 H525 0.950 . S
C537 C533 1.393 . S
C537 C536 1.391 . S
C538 H528 0.950 . S
C538 C539 1.386 . S
C538 C540 1.391 . S
C539 C538 1.386 . S
C539 C543 1.393 . S
C540 H529 0.950 . S
C540 C538 1.391 . S
C540 C541 1.400 . S
C541 C535 1.491 . S
C541 C540 1.400 . S
C541 C542 1.398 . S
C542 H530 0.950 . S
C542 C541 1.398 . S
C542 C543 1.391 . S
C543 H531 0.950 . S
C543 C539 1.393 . S
C543 C542 1.391 . S
H544 C552 0.950 . S
H545 C557 0.950 . S
H546 C554 0.950 . S
H547 C556 0.950 . S
H548 C558 0.950 . S
H549 C560 0.950 . S
H550 C562 0.950 . S
H551 C563 0.950 . S
C552 H544 0.950 . S
C552 C553 1.386 . S
C552 C554 1.391 . S
C553 C552 1.386 . S
C553 C557 1.393 . S
C554 H546 0.950 . S
C554 C552 1.391 . S
C554 C555 1.400 . S
C555 C554 1.400 . S
C555 C556 1.398 . S
C555 C561 1.491 . S
C556 H547 0.950 . S
C556 C555 1.398 . S
C556 C557 1.391 . S
C557 H545 0.950 . S
C557 C553 1.393 . S
C557 C556 1.391 . S
C558 H548 0.950 . S
C558 C559 1.386 . S
C558 C560 1.391 . S
C559 C558 1.386 . S
C559 C563 1.393 . S
C560 H549 0.950 . S
C560 C558 1.391 . S
C560 C561 1.400 . S
C561 C555 1.491 . S
C561 C560 1.400 . S
C561 C562 1.398 . S
C562 H550 0.950 . S
C562 C561 1.398 . S
C562 C563 1.391 . S
C563 H551 0.950 . S
C563 C559 1.393 . S
C563 C562 1.391 . S
H564 C572 0.950 . S
H565 C577 0.950 . S
H566 C574 0.950 . S
H567 C576 0.950 . S
H568 C578 0.950 . S
H569 C580 0.950 . S
H570 C582 0.950 . S
H571 C583 0.950 . S
C572 H564 0.950 . S
C572 C573 1.386 . S
C572 C574 1.391 . S
C573 C572 1.386 . S
C573 C577 1.393 . S
C574 H566 0.950 . S
C574 C572 1.391 . S
C574 C575 1.400 . S
C575 C574 1.400 . S
C575 C576 1.398 . S
C575 C581 1.491 . S
C576 H567 0.950 . S
C576 C575 1.398 . S
C576 C577 1.391 . S
C577 H565 0.950 . S
C577 C573 1.393 . S
C577 C576 1.391 . S
C578 H568 0.950 . S
C578 C579 1.386 . S
C578 C580 1.391 . S
C579 C578 1.386 . S
C579 C583 1.393 . S
C580 H569 0.950 . S
C580 C578 1.391 . S
C580 C581 1.400 . S
C581 C575 1.491 . S
C581 C580 1.400 . S
C581 C582 1.398 . S
C582 H570 0.950 . S
C582 C581 1.398 . S
C582 C583 1.391 . S
C583 H571 0.950 . S
C583 C579 1.393 . S
C583 C582 1.391 . S
H584 C592 0.950 . S
H585 C597 0.950 . S
H586 C594 0.950 . S
H587 C596 0.950 . S
H588 C598 0.950 . S
H589 C600 0.950 . S
H590 C602 0.950 . S
H591 C603 0.950 . S
C592 H584 0.950 . S
C592 C593 1.386 . S
C592 C594 1.391 . S
C593 C592 1.386 . S
C593 C597 1.393 . S
C594 H586 0.950 . S
C594 C592 1.391 . S
C594 C595 1.400 . S
C595 C594 1.400 . S
C595 C596 1.398 . S
C595 C601 1.491 . S
C596 H587 0.950 . S
C596 C595 1.398 . S
C596 C597 1.391 . S
C597 H585 0.950 . S
C597 C593 1.393 . S
C597 C596 1.391 . S
C598 H588 0.950 . S
C598 C599 1.386 . S
C598 C600 1.391 . S
C599 C598 1.386 . S
C599 C603 1.393 . S
C600 H589 0.950 . S
C600 C598 1.391 . S
C600 C601 1.400 . S
C601 C595 1.491 . S
C601 C600 1.400 . S
C601 C602 1.398 . S
C602 H590 0.950 . S
C602 C601 1.398 . S
C602 C603 1.391 . S
C603 H591 0.950 . S
C603 C599 1.393 . S
C603 C602 1.391 . S
H604 C612 0.950 . S
H605 C617 0.950 . S
H606 C614 0.950 . S
H607 C616 0.950 . S
H608 C618 0.950 . S
H609 C620 0.950 . S
H610 C622 0.950 . S
H611 C623 0.950 . S
C612 H604 0.950 . S
C612 C613 1.386 . S
C612 C614 1.391 . S
C613 C612 1.386 . S
C613 C617 1.393 . S
C614 H606 0.950 . S
C614 C612 1.391 . S
C614 C615 1.400 . S
C615 C614 1.400 . S
C615 C616 1.398 . S
C615 C621 1.491 . S
C616 H607 0.950 . S
C616 C615 1.398 . S
C616 C617 1.391 . S
C617 H605 0.950 . S
C617 C613 1.393 . S
C617 C616 1.391 . S
C618 H608 0.950 . S
C618 C619 1.386 . S
C618 C620 1.391 . S
C619 C618 1.386 . S
C619 C623 1.393 . S
C620 H609 0.950 . S
C620 C618 1.391 . S
C620 C621 1.400 . S
C621 C615 1.491 . S
C621 C620 1.400 . S
C621 C622 1.398 . S
C622 H610 0.950 . S
C622 C621 1.398 . S
C622 C623 1.391 . S
C623 H611 0.950 . S
C623 C619 1.393 . S
C623 C622 1.391 . S
H624 C632 0.950 . S
H625 C637 0.950 . S
H626 C634 0.950 . S
H627 C636 0.950 . S
H628 C638 0.950 . S
H629 C640 0.950 . S
H630 C642 0.950 . S
H631 C643 0.950 . S
C632 H624 0.950 . S
C632 C633 1.386 . S
C632 C634 1.391 . S
C633 C632 1.386 . S
C633 C637 1.393 . S
C634 H626 0.950 . S
C634 C632 1.391 . S
C634 C635 1.400 . S
C635 C634 1.400 . S
C635 C636 1.398 . S
C635 C641 1.491 . S
C636 H627 0.950 . S
C636 C635 1.398 . S
C636 C637 1.391 . S
C637 H625 0.950 . S
C637 C633 1.393 . S
C637 C636 1.391 . S
C638 H628 0.950 . S
C638 C639 1.386 . S
C638 C640 1.391 . S
C639 C638 1.386 . S
C639 C643 1.393 . S
C640 H629 0.950 . S
C640 C638 1.391 . S
C640 C641 1.400 . S
C641 C635 1.491 . S
C641 C640 1.400 . S
C641 C642 1.398 . S
C642 H630 0.950 . S
C642 C641 1.398 . S
C642 C643 1.391 . S
C643 H631 0.950 . S
C643 C639 1.393 . S
C643 C642 1.391 . S
H644 C652 0.950 . S
H645 C657 0.950 . S
H646 C654 0.950 . S
H647 C656 0.950 . S
H648 C658 0.950 . S
H649 C660 0.950 . S
H650 C662 0.950 . S
H651 C663 0.950 . S
C652 H644 0.950 . S
C652 C653 1.386 . S
C652 C654 1.391 . S
C653 C652 1.386 . S
C653 C657 1.393 . S
C654 H646 0.950 . S
C654 C652 1.391 . S
C654 C655 1.400 . S
C655 C654 1.400 . S
C655 C656 1.398 . S
C655 C661 1.491 . S
C656 H647 0.950 . S
C656 C655 1.398 . S
C656 C657 1.391 . S
C657 H645 0.950 . S
C657 C653 1.393 . S
C657 C656 1.391 . S
C658 H648 0.950 . S
C658 C659 1.386 . S
C658 C660 1.391 . S
C659 C658 1.386 . S
C659 C663 1.393 . S
C660 H649 0.950 . S
C660 C658 1.391 . S
C660 C661 1.400 . S
C661 C655 1.491 . S
C661 C660 1.400 . S
C661 C662 1.398 . S
C662 H650 0.950 . S
C662 C661 1.398 . S
C662 C663 1.391 . S
C663 H651 0.950 . S
C663 C659 1.393 . S
C663 C662 1.391 . S
C193 C4 1.545 . S
C199 C122 1.527 . S
C219 C100 1.515 . S
C213 C16 1.536 . S
C239 C126 1.517 . S
C233 C28 1.527 . S
C259 C104 1.513 . S
C253 C40 1.524 . S
C279 C166 1.524 . S
C273 C52 1.544 . S
C299 C144 1.513 . S
C293 C64 1.537 . S
C313 C76 1.532 . S
C319 C170 1.517 . S
C339 C148 1.514 . S
C333 C88 1.524 . S
C353 C9 1.492 . S
C359 C171 1.513 . S
C379 C149 1.508 . S
C373 C21 1.501 . S
C393 C33 1.494 . S
C399 C168 1.519 . S
C413 C45 1.508 . S
C419 C146 1.506 . S
C439 C127 1.506 . S
C433 C57 1.504 . S
C453 C69 1.499 . S
C459 C105 1.508 . S
C479 C124 1.520 . S
C473 C81 1.489 . S
C499 C102 1.508 . S
C493 C93 1.506 . S
C519 C145 1.476 . S
C513 C6 1.474 . S
C539 C167 1.484 . S
C533 C18 1.468 . S
C553 C30 1.483 . S
C559 C147 1.483 . S
C579 C169 1.471 . S
C573 C42 1.492 . S
C599 C101 1.468 . S
C593 C54 1.485 . S
C613 C66 1.483 . S
C619 C123 1.468 . S
C633 C78 1.490 . S
C639 C103 1.469 . S
C653 C90 1.489 . S
C659 C125 1.475 . S
