# Generated by pormake.
# Topology ctn, (3,4)-cn, num edge types: 1
# Building blocks:
#     Node 0, Type 0, BuildingBlock: KAKCAD_clean_linker_0, # of connection points: 3
#     Node 1, Type 0, BuildingBlock: KAKCAD_clean_linker_0, # of connection points: 3
#     Node 2, Type 0, BuildingBlock: KAKCAD_clean_linker_0, # of connection points: 3
#     Node 3, Type 0, BuildingBlock: KAKCAD_clean_linker_0, # of connection points: 3
#     Node 4, Type 0, BuildingBlock: KAKCAD_clean_linker_0, # of connection points: 3
#     Node 5, Type 0, BuildingBlock: KAKCAD_clean_linker_0, # of connection points: 3
#     Node 6, Type 0, BuildingBlock: KAKCAD_clean_linker_0, # of connection points: 3
#     Node 7, Type 0, BuildingBlock: KAKCAD_clean_linker_0, # of connection points: 3
#     Node 8, Type 0, BuildingBlock: KAKCAD_clean_linker_0, # of connection points: 3
#     Node 9, Type 0, BuildingBlock: KAKCAD_clean_linker_0, # of connection points: 3
#     Node 10, Type 0, BuildingBlock: KAKCAD_clean_linker_0, # of connection points: 3
#     Node 11, Type 0, BuildingBlock: KAKCAD_clean_linker_0, # of connection points: 3
#     Node 12, Type 0, BuildingBlock: KAKCAD_clean_linker_0, # of connection points: 3
#     Node 13, Type 0, BuildingBlock: KAKCAD_clean_linker_0, # of connection points: 3
#     Node 14, Type 0, BuildingBlock: KAKCAD_clean_linker_0, # of connection points: 3
#     Node 15, Type 0, BuildingBlock: KAKCAD_clean_linker_0, # of connection points: 3
#     Node 16, Type 1, BuildingBlock: AZAVOO_clean_sbu_0, # of connection points: 4
#     Node 17, Type 1, BuildingBlock: AZAVOO_clean_sbu_0, # of connection points: 4
#     Node 18, Type 1, BuildingBlock: AZAVOO_clean_sbu_0, # of connection points: 4
#     Node 19, Type 1, BuildingBlock: AZAVOO_clean_sbu_0, # of connection points: 4
#     Node 20, Type 1, BuildingBlock: AZAVOO_clean_sbu_0, # of connection points: 4
#     Node 21, Type 1, BuildingBlock: AZAVOO_clean_sbu_0, # of connection points: 4
#     Node 22, Type 1, BuildingBlock: AZAVOO_clean_sbu_0, # of connection points: 4
#     Node 23, Type 1, BuildingBlock: AZAVOO_clean_sbu_0, # of connection points: 4
#     Node 24, Type 1, BuildingBlock: AZAVOO_clean_sbu_0, # of connection points: 4
#     Node 25, Type 1, BuildingBlock: AZAVOO_clean_sbu_0, # of connection points: 4
#     Node 26, Type 1, BuildingBlock: AZAVOO_clean_sbu_0, # of connection points: 4
#     Node 27, Type 1, BuildingBlock: AZAVOO_clean_sbu_0, # of connection points: 4
#     Edge 28, Type (0, 1), None
#     Edge 29, Type (0, 1), None
#     Edge 30, Type (0, 1), None
#     Edge 31, Type (0, 1), None
#     Edge 32, Type (0, 1), None
#     Edge 33, Type (0, 1), None
#     Edge 34, Type (0, 1), None
#     Edge 35, Type (0, 1), None
#     Edge 36, Type (0, 1), None
#     Edge 37, Type (0, 1), None
#     Edge 38, Type (0, 1), None
#     Edge 39, Type (0, 1), None
#     Edge 40, Type (0, 1), None
#     Edge 41, Type (0, 1), None
#     Edge 42, Type (0, 1), None
#     Edge 43, Type (0, 1), None
#     Edge 44, Type (0, 1), None
#     Edge 45, Type (0, 1), None
#     Edge 46, Type (0, 1), None
#     Edge 47, Type (0, 1), None
#     Edge 48, Type (0, 1), None
#     Edge 49, Type (0, 1), None
#     Edge 50, Type (0, 1), None
#     Edge 51, Type (0, 1), None
#     Edge 52, Type (0, 1), None
#     Edge 53, Type (0, 1), None
#     Edge 54, Type (0, 1), None
#     Edge 55, Type (0, 1), None
#     Edge 56, Type (0, 1), None
#     Edge 57, Type (0, 1), None
#     Edge 58, Type (0, 1), None
#     Edge 59, Type (0, 1), None
#     Edge 60, Type (0, 1), None
#     Edge 61, Type (0, 1), None
#     Edge 62, Type (0, 1), None
#     Edge 63, Type (0, 1), None
#     Edge 64, Type (0, 1), None
#     Edge 65, Type (0, 1), None
#     Edge 66, Type (0, 1), None
#     Edge 67, Type (0, 1), None
#     Edge 68, Type (0, 1), None
#     Edge 69, Type (0, 1), None
#     Edge 70, Type (0, 1), None
#     Edge 71, Type (0, 1), None
#     Edge 72, Type (0, 1), None
#     Edge 73, Type (0, 1), None
#     Edge 74, Type (0, 1), None
#     Edge 75, Type (0, 1), None
# Relax obj value: 0.002
# Max RMSD: 0.038
# Mean RMSD: 0.022
data_MOF--net-ctn--node1-AZAVOO_clean_sbu_0--node2-KAKCAD_clean_linker_0--edge1-none
_symmetry_space_group_name_H-M    P1
_symmetry_Int_Tables_number       1
_symmetry_cell_setting            triclinic
loop_
_symmetry_equiv_pos_as_xyz
'x, y, z'
_cell_length_a     36.054696
_cell_length_b     36.793269
_cell_length_c     36.730108
_cell_angle_alpha  90.053403
_cell_angle_beta   94.037189
_cell_angle_gamma 94.054667
loop_
_atom_site_label
_atom_site_type_symbol
_atom_site_fract_x
_atom_site_fract_y
_atom_site_fract_z
_atom_type_partial_charge
C0 C 0.04797 0.14016 0.91846 0.0
C1 C 0.0367 0.1704 0.93722 0.0
C2 C 0.04686 0.10563 0.93474 0.0
C3 C 0.0346 0.10089 0.97009 0.0
C4 C 0.02271 0.13126 0.98822 0.0
C5 C 0.02348 0.16533 0.97196 0.0
C6 C 0.03702 0.06584 0.99013 0.0
C7 C 0.06804 0.04499 0.98823 0.0
C8 C 0.07477 0.01775 0.01413 0.0
C9 C 0.05108 0.0123 0.04276 0.0
C10 C 0.01937 0.03223 0.04448 0.0
C11 C 0.01128 0.05672 0.0162 0.0
C12 C 0.99756 0.03144 0.07771 0.0
C13 C 0.99463 0.00044 0.10018 0.0
C14 C 0.98154 0.06321 0.08871 0.0
C15 C 0.96325 0.06399 0.12078 0.0
C16 C 0.96162 0.03361 0.14361 0.0
C17 C 0.10821 0.99681 0.01326 0.0
C18 C 0.11376 0.97537 0.98274 0.0
C19 C 0.13367 0.99659 0.04392 0.0
C20 C 0.16342 0.97426 0.04468 0.0
C21 C 0.16795 0.95119 0.01501 0.0
C22 C 0.14323 0.95247 0.98372 0.0
C23 C 0.97732 0.00172 0.13313 0.0
H24 H 0.05833 0.1433 0.89159 0.0
H25 H 0.05611 0.08288 0.91993 0.0
H26 H 0.01423 0.1293 0.0159 0.0
H27 H 0.0151 0.18803 0.98746 0.0
H28 H 0.08831 0.0514 0.96835 0.0
H29 H 0.98599 0.07096 0.01586 0.0
H30 H 0.05826 0.9933 0.06416 0.0
H31 H 0.00595 0.97526 0.09263 0.0
H32 H 0.98415 0.08827 0.07345 0.0
H33 H 0.95182 0.08911 0.12855 0.0
H34 H 0.09441 0.9752 0.95879 0.0
H35 H 0.1301 0.01321 0.06762 0.0
H36 H 0.97606 0.97779 0.15025 0.0
H37 H 0.14606 0.93508 0.9604 0.0
H38 H 0.18192 0.974 0.06921 0.0
C39 C 0.41488 0.77971 0.32596 0.0
C40 C 0.42823 0.74832 0.34236 0.0
C41 C 0.38415 0.77681 0.3003 0.0
C42 C 0.36679 0.7424 0.29038 0.0
C43 C 0.38205 0.71104 0.30542 0.0
C44 C 0.41199 0.71403 0.33161 0.0
C45 C 0.33199 0.73875 0.26588 0.0
C46 C 0.32638 0.76163 0.23553 0.0
C47 C 0.29455 0.75551 0.21134 0.0
C48 C 0.26804 0.72684 0.21771 0.0
C49 C 0.27326 0.70418 0.2478 0.0
C50 C 0.30467 0.71066 0.27207 0.0
C51 C 0.24923 0.67053 0.25132 0.0
C52 C 0.21169 0.67133 0.25896 0.0
C53 C 0.26483 0.637 0.24809 0.0
C54 C 0.24357 0.60462 0.25312 0.0
C55 C 0.20632 0.60507 0.26197 0.0
C56 C 0.2903 0.77611 0.17713 0.0
C57 C 0.28218 0.81283 0.17728 0.0
C58 C 0.29052 0.75757 0.14383 0.0
C59 C 0.28098 0.77485 0.11114 0.0
C60 C 0.2706 0.81096 0.11113 0.0
C61 C 0.27219 0.83015 0.14443 0.0
C62 C 0.19038 0.6387 0.26462 0.0
H63 H 0.42711 0.80645 0.33422 0.0
H64 H 0.37317 0.80151 0.28939 0.0
H65 H 0.37047 0.68401 0.29749 0.0
H66 H 0.42222 0.68952 0.34382 0.0
H67 H 0.34744 0.78286 0.22958 0.0
H68 H 0.30805 0.69295 0.29545 0.0
H69 H 0.24422 0.72117 0.19831 0.0
H70 H 0.19928 0.69709 0.26151 0.0
H71 H 0.29372 0.63591 0.24203 0.0
H72 H 0.2568 0.57924 0.25111 0.0
H73 H 0.28176 0.82746 0.20284 0.0
H74 H 0.29676 0.72919 0.14324 0.0
H75 H 0.16173 0.63978 0.2714 0.0
H76 H 0.26437 0.85801 0.14524 0.0
H77 H 0.27995 0.75919 0.08609 0.0
C78 C 0.06171 0.50809 0.1719 0.0
C79 C 0.09923 0.50955 0.16338 0.0
C80 C 0.03294 0.50504 0.14418 0.0
C81 C 0.04107 0.50308 0.10738 0.0
C82 C 0.07852 0.50517 0.09884 0.0
C83 C 0.10725 0.50849 0.12646 0.0
C84 C 0.01072 0.49677 0.07809 0.0
C85 C 0.9785 0.51619 0.07747 0.0
C86 C 0.94905 0.5089 0.05059 0.0
C87 C 0.95212 0.48155 0.0244 0.0
C88 C 0.98418 0.46194 0.02474 0.0
C89 C 0.01342 0.46999 0.05139 0.0
C90 C 0.98603 0.4306 -0.00025 0.0
C91 C 0.95678 0.40327 0.99696 0.0
C92 C 0.01848 0.4258 0.9817 0.0
C93 C 0.02235 0.39343 0.96276 0.0
C94 C 0.99406 0.36509 0.96212 0.0
C95 C 0.91496 0.52949 0.05024 0.0
C96 C 0.89937 0.53751 0.08306 0.0
C97 C 0.89808 0.5418 0.01724 0.0
C98 C 0.86704 0.56261 0.01721 0.0
C99 C 0.8522 0.57155 0.05018 0.0
C100 C 0.8684 0.55827 0.08303 0.0
C101 C 0.96084 0.37076 0.97853 0.0
H102 H 0.0545 0.509 0.20001 0.0
H103 H 0.00432 0.50315 0.1516 0.0
H104 H 0.08563 0.50404 0.07071 0.0
H105 H 0.13577 0.50969 0.11881 0.0
H106 H 0.97664 0.53737 0.09765 0.0
H107 H 0.03759 0.45398 0.0525 0.0
H108 H 0.92928 0.47497 0.00416 0.0
H109 H 0.93158 0.40614 0.0108 0.0
H110 H 0.04135 0.44662 0.9833 0.0
H111 H 0.04826 0.38984 0.9504 0.0
H112 H 0.9112 0.52784 0.10888 0.0
H113 H 0.90953 0.53627 0.99149 0.0
H114 H 0.93843 0.34951 0.97826 0.0
H115 H 0.85758 0.56444 0.10894 0.0
H116 H 0.85531 0.57249 0.99143 0.0
C117 C 0.72052 0.75102 0.09508 0.0
C118 C 0.7327 0.7168 0.10545 0.0
C119 C 0.71485 0.77698 0.12143 0.0
C120 C 0.72055 0.76898 0.15859 0.0
C121 C 0.73004 0.73399 0.16916 0.0
C122 C 0.7363 0.70808 0.14273 0.0
C123 C 0.72244 0.79868 0.18574 0.0
C124 C 0.69784 0.79845 0.21361 0.0
C125 C 0.70147 0.8262 0.24028 0.0
C126 C 0.73042 0.85379 0.23902 0.0
C127 C 0.75559 0.85384 0.21152 0.0
C128 C 0.75088 0.82653 0.18461 0.0
C129 C 0.7882 0.88085 0.21215 0.0
C130 C 0.78462 0.91771 0.22022 0.0
C131 C 0.82354 0.8695 0.20557 0.0
C132 C 0.85469 0.89433 0.20736 0.0
C133 C 0.8513 0.93114 0.21588 0.0
C134 C 0.67643 0.82522 0.27064 0.0
C135 C 0.63785 0.81736 0.26393 0.0
C136 C 0.69123 0.83088 0.30678 0.0
C137 C 0.66816 0.8274 0.33571 0.0
C138 C 0.62977 0.81831 0.32914 0.0
C139 C 0.61469 0.81411 0.2929 0.0
C140 C 0.81584 0.94263 0.22201 0.0
H141 H 0.71754 0.75868 0.06663 0.0
H142 H 0.70772 0.80393 0.11282 0.0
H143 H 0.73491 0.7275 0.19778 0.0
H144 H 0.7456 0.68194 0.15152 0.0
H145 H 0.6764 0.77638 0.21484 0.0
H146 H 0.77001 0.82634 0.16312 0.0
H147 H 0.73391 0.87471 0.26001 0.0
H148 H 0.75768 0.9273 0.22511 0.0
H149 H 0.82735 0.84117 0.19985 0.0
H150 H 0.88153 0.88444 0.20258 0.0
H151 H 0.62565 0.8133 0.2363 0.0
H152 H 0.7209 0.83668 0.31283 0.0
H153 H 0.8122 0.9708 0.22861 0.0
H154 H 0.58521 0.80704 0.28692 0.0
H155 H 0.68065 0.8308 0.36331 0.0
C156 C 0.96695 0.01483 0.37085 0.0
C157 C 0.96898 0.98752 0.34442 0.0
C158 C 0.98245 0.01046 0.40648 0.0
C159 C 0.99969 0.97847 0.41647 0.0
C160 C 0.99955 0.95027 0.39068 0.0
C161 C 0.98457 0.95483 0.355 0.0
C162 C 0.02143 0.97599 0.45212 0.0
C163 C 0.0187 0.94427 0.47321 0.0
C164 C 0.04268 0.9404 0.50464 0.0
C165 C 0.06983 0.96865 0.51489 0.0
C166 C 0.07206 0.00107 0.49458 0.0
C167 C 0.04772 0.00439 0.46336 0.0
C168 C 0.10006 0.03163 0.50468 0.0
C169 C 0.08903 0.06746 0.5044 0.0
C170 C 0.13807 0.02587 0.51137 0.0
C171 C 0.16468 0.05558 0.51598 0.0
C172 C 0.15366 0.09155 0.51415 0.0
C173 C 0.04013 0.90581 0.52524 0.0
C174 C 0.00614 0.89274 0.53857 0.0
C175 C 0.0705 0.88391 0.52831 0.0
C176 C 0.06627 0.84864 0.5424 0.0
C177 C 0.03181 0.8349 0.55439 0.0
C178 C 0.00214 0.85777 0.55345 0.0
C179 C 0.1154 0.09698 0.5091 0.0
H180 H 0.95514 0.04032 0.36359 0.0
H181 H 0.98201 0.03254 0.42593 0.0
H182 H 0.01288 0.92545 0.39752 0.0
H183 H 0.98632 0.93314 0.33535 0.0
H184 H 0.99855 0.92211 0.46461 0.0
H185 H 0.05049 0.0286 0.44668 0.0
H186 H 0.08864 0.96564 0.53887 0.0
H187 H 0.05989 0.07272 0.49973 0.0
H188 H 0.14736 0.9985 0.51152 0.0
H189 H 0.19386 0.05037 0.52003 0.0
H190 H 0.98234 0.90921 0.53644 0.0
H191 H 0.0969 0.89334 0.51801 0.0
H192 H 0.10566 0.12416 0.50795 0.0
H193 H 0.97521 0.84793 0.56224 0.0
H194 H 0.08967 0.83168 0.54286 0.0
C195 C 0.11361 0.67936 0.66517 0.0
C196 C 0.09184 0.70941 0.66214 0.0
C197 C 0.14104 0.67731 0.69378 0.0
C198 C 0.14849 0.70603 0.71933 0.0
C199 C 0.12607 0.73597 0.71629 0.0
C200 C 0.09771 0.73734 0.68833 0.0
C201 C 0.1801 0.70515 0.74809 0.0
C202 C 0.21195 0.68637 0.74166 0.0
C203 C 0.24177 0.68558 0.7682 0.0
C204 C 0.24024 0.70396 0.8012 0.0
C205 C 0.20891 0.72239 0.80865 0.0
C206 C 0.17896 0.72309 0.78207 0.0
C207 C 0.20813 0.73958 0.84505 0.0
C208 C 0.21823 0.71945 0.87614 0.0
C209 C 0.20207 0.77669 0.84896 0.0
C210 C 0.20866 0.79386 0.88324 0.0
C211 C 0.22163 0.77407 0.91372 0.0
C212 C 0.27458 0.66492 0.76243 0.0
C213 C 0.27058 0.62697 0.75763 0.0
C214 C 0.3104 0.68271 0.76491 0.0
C215 C 0.34179 0.6629 0.76242 0.0
C216 C 0.33798 0.62483 0.75826 0.0
C217 C 0.30206 0.60701 0.75591 0.0
C218 C 0.22508 0.73649 0.90997 0.0
H219 H 0.10928 0.65731 0.6454 0.0
H220 H 0.15643 0.6531 0.69558 0.0
H221 H 0.131 0.759 0.73476 0.0
H222 H 0.08141 0.76099 0.68627 0.0
H223 H 0.21431 0.67297 0.71576 0.0
H224 H 0.15454 0.73666 0.78851 0.0
H225 H 0.26351 0.70339 0.82156 0.0
H226 H 0.22244 0.69068 0.87399 0.0
H227 H 0.1943 0.79275 0.8253 0.0
H228 H 0.20554 0.82283 0.88548 0.0
H229 H 0.24317 0.6127 0.75613 0.0
H230 H 0.31407 0.71196 0.76889 0.0
H231 H 0.23415 0.72028 0.9331 0.0
H232 H 0.29826 0.57773 0.75229 0.0
H233 H 0.36909 0.67738 0.76418 0.0
C234 C 0.98725 0.63443 0.50961 0.0
C235 C 0.98117 0.63287 0.54691 0.0
C236 C 0.98223 0.603 0.48797 0.0
C237 C 0.9718 0.569 0.50323 0.0
C238 C 0.96725 0.56734 0.54098 0.0
C239 C 0.97151 0.59898 0.56249 0.0
C240 C 0.96493 0.53577 0.47962 0.0
C241 C 0.98578 0.53151 0.44919 0.0
C242 C 0.97879 0.50114 0.42598 0.0
C243 C 0.9514 0.47388 0.43389 0.0
C244 C 0.92998 0.4776 0.46409 0.0
C245 C 0.93682 0.50867 0.48663 0.0
C246 C 0.90008 0.44938 0.47194 0.0
C247 C 0.86491 0.45944 0.48087 0.0
C248 C 0.90669 0.41224 0.47117 0.0
C249 C 0.87898 0.38575 0.47982 0.0
C250 C 0.84386 0.39578 0.4891 0.0
C251 C 0.99968 0.49919 0.39287 0.0
C252 C 0.99982 0.52833 0.36826 0.0
C253 C 0.02192 0.47018 0.38721 0.0
C254 C 0.04581 0.47152 0.35864 0.0
C255 C 0.04737 0.50169 0.3351 0.0
C256 C 0.02317 0.52944 0.33952 0.0
C257 C 0.83707 0.43296 0.48921 0.0
H258 H 0.99424 0.66023 0.4967 0.0
H259 H 0.98533 0.60576 0.45898 0.0
H260 H 0.96011 0.54165 0.55399 0.0
H261 H 0.96674 0.59697 0.59123 0.0
H262 H 0.00793 0.55171 0.44347 0.0
H263 H 0.91997 0.51172 0.50956 0.0
H264 H 0.94588 0.45052 0.41581 0.0
H265 H 0.85884 0.48785 0.48125 0.0
H266 H 0.93359 0.40368 0.46461 0.0
H267 H 0.88519 0.35739 0.47932 0.0
H268 H 0.98261 0.55085 0.37196 0.0
H269 H 0.02222 0.44745 0.40592 0.0
H270 H 0.81037 0.4417 0.49616 0.0
H271 H 0.02346 0.553 0.32186 0.0
H272 H 0.06401 0.44964 0.35587 0.0
C273 C 0.78887 0.69683 0.89458 0.0
C274 C 0.75254 0.69482 0.90643 0.0
C275 C 0.79612 0.71229 0.86067 0.0
C276 C 0.76708 0.72571 0.83805 0.0
C277 C 0.7304 0.72067 0.84874 0.0
C278 C 0.72326 0.70566 0.88258 0.0
C279 C 0.7748 0.74774 0.80512 0.0
C280 C 0.80102 0.7379 0.78086 0.0
C281 C 0.80691 0.75876 0.74951 0.0
C282 C 0.7869 0.7896 0.74269 0.0
C283 C 0.76221 0.80108 0.76753 0.0
C284 C 0.75615 0.77975 0.79851 0.0
C285 C 0.74485 0.83647 0.76214 0.0
C286 C 0.76525 0.86612 0.74726 0.0
C287 C 0.70868 0.84153 0.77264 0.0
C288 C 0.69366 0.87559 0.76876 0.0
C289 C 0.71431 0.90504 0.75381 0.0
C290 C 0.83408 0.74932 0.72336 0.0
C291 C 0.87242 0.75109 0.7337 0.0
C292 C 0.82194 0.74267 0.68672 0.0
C293 C 0.84762 0.73817 0.66069 0.0
C294 C 0.8861 0.74086 0.67062 0.0
C295 C 0.89832 0.74715 0.70745 0.0
C296 C 0.7501 0.89969 0.74282 0.0
H297 H 0.81202 0.68884 0.91248 0.0
H298 H 0.82468 0.71573 0.85322 0.0
H299 H 0.70725 0.72976 0.83151 0.0
H300 H 0.69489 0.70401 0.89075 0.0
H301 H 0.81607 0.7137 0.78576 0.0
H302 H 0.73788 0.78878 0.81835 0.0
H303 H 0.79134 0.80514 0.71813 0.0
H304 H 0.79353 0.86386 0.73983 0.0
H305 H 0.69195 0.81922 0.78384 0.0
H306 H 0.666 0.87886 0.77749 0.0
H307 H 0.88235 0.75674 0.76181 0.0
H308 H 0.7925 0.74154 0.67813 0.0
H309 H 0.76715 0.92183 0.73171 0.0
H310 H 0.92777 0.74904 0.71594 0.0
H311 H 0.83725 0.73328 0.63259 0.0
C312 C 0.28887 0.19683 0.39458 0.0
C313 C 0.25254 0.19482 0.40643 0.0
C314 C 0.29612 0.21229 0.36067 0.0
C315 C 0.26707 0.22571 0.33805 0.0
C316 C 0.23039 0.22067 0.34874 0.0
C317 C 0.22326 0.20566 0.38258 0.0
C318 C 0.2748 0.24773 0.30512 0.0
C319 C 0.30102 0.2379 0.28086 0.0
C320 C 0.30691 0.25876 0.24951 0.0
C321 C 0.2869 0.2896 0.2427 0.0
C322 C 0.26221 0.30108 0.26753 0.0
C323 C 0.25615 0.27975 0.29851 0.0
C324 C 0.24485 0.33647 0.26214 0.0
C325 C 0.26525 0.36612 0.24726 0.0
C326 C 0.20868 0.34153 0.27264 0.0
C327 C 0.19366 0.37559 0.26876 0.0
C328 C 0.21431 0.40504 0.25381 0.0
C329 C 0.33408 0.24932 0.22336 0.0
C330 C 0.37242 0.25109 0.2337 0.0
C331 C 0.32194 0.24267 0.18672 0.0
C332 C 0.34762 0.23817 0.16069 0.0
C333 C 0.3861 0.24085 0.17062 0.0
C334 C 0.39832 0.24715 0.20745 0.0
C335 C 0.2501 0.39969 0.24282 0.0
H336 H 0.31202 0.18884 0.41248 0.0
H337 H 0.32468 0.21573 0.35322 0.0
H338 H 0.20725 0.22976 0.33151 0.0
H339 H 0.19489 0.20401 0.39075 0.0
H340 H 0.31607 0.2137 0.28576 0.0
H341 H 0.23788 0.28878 0.31835 0.0
H342 H 0.29134 0.30514 0.21813 0.0
H343 H 0.29353 0.36386 0.23983 0.0
H344 H 0.19195 0.31922 0.28384 0.0
H345 H 0.166 0.37886 0.27749 0.0
H346 H 0.38235 0.25674 0.26181 0.0
H347 H 0.2925 0.24154 0.17813 0.0
H348 H 0.26715 0.42183 0.23172 0.0
H349 H 0.42777 0.24904 0.21594 0.0
H350 H 0.33725 0.23328 0.13259 0.0
C351 C 0.56171 0.00809 0.6719 0.0
C352 C 0.59923 0.00955 0.66338 0.0
C353 C 0.53294 0.00504 0.64418 0.0
C354 C 0.54107 0.00308 0.60738 0.0
C355 C 0.57852 0.00517 0.59884 0.0
C356 C 0.60725 0.00849 0.62646 0.0
C357 C 0.51072 0.99677 0.57809 0.0
C358 C 0.4785 0.01619 0.57747 0.0
C359 C 0.44905 0.0089 0.55059 0.0
C360 C 0.45212 0.98155 0.5244 0.0
C361 C 0.48418 0.96194 0.52474 0.0
C362 C 0.51342 0.96999 0.55139 0.0
C363 C 0.48603 0.9306 0.49975 0.0
C364 C 0.45678 0.90327 0.49696 0.0
C365 C 0.51848 0.9258 0.4817 0.0
C366 C 0.52235 0.89343 0.46276 0.0
C367 C 0.49406 0.86509 0.46212 0.0
C368 C 0.41495 0.02949 0.55024 0.0
C369 C 0.39937 0.03751 0.58306 0.0
C370 C 0.39808 0.0418 0.51724 0.0
C371 C 0.36704 0.06261 0.51721 0.0
C372 C 0.3522 0.07155 0.55019 0.0
C373 C 0.3684 0.05827 0.58303 0.0
C374 C 0.46084 0.87076 0.47853 0.0
H375 H 0.5545 0.009 0.70001 0.0
H376 H 0.50432 0.00315 0.6516 0.0
H377 H 0.58563 0.00404 0.57071 0.0
H378 H 0.63577 0.00969 0.61881 0.0
H379 H 0.47664 0.03737 0.59766 0.0
H380 H 0.53759 0.95398 0.5525 0.0
H381 H 0.42928 0.97497 0.50416 0.0
H382 H 0.43158 0.90614 0.5108 0.0
H383 H 0.54135 0.94662 0.4833 0.0
H384 H 0.54826 0.88984 0.4504 0.0
H385 H 0.4112 0.02784 0.60888 0.0
H386 H 0.40953 0.03627 0.49149 0.0
H387 H 0.43843 0.84951 0.47826 0.0
H388 H 0.35758 0.06444 0.60894 0.0
H389 H 0.3553 0.07249 0.49143 0.0
C390 C 0.22052 0.25103 0.59508 0.0
C391 C 0.2327 0.2168 0.60545 0.0
C392 C 0.21485 0.27698 0.62143 0.0
C393 C 0.22055 0.26898 0.65859 0.0
C394 C 0.23004 0.23399 0.66916 0.0
C395 C 0.2363 0.20808 0.64273 0.0
C396 C 0.22244 0.29868 0.68574 0.0
C397 C 0.19784 0.29845 0.71361 0.0
C398 C 0.20147 0.32621 0.74028 0.0
C399 C 0.23042 0.35379 0.73902 0.0
C400 C 0.25559 0.35384 0.71152 0.0
C401 C 0.25088 0.32653 0.68461 0.0
C402 C 0.2882 0.38085 0.71215 0.0
C403 C 0.28462 0.41771 0.72022 0.0
C404 C 0.32354 0.36951 0.70557 0.0
C405 C 0.35469 0.39433 0.70736 0.0
C406 C 0.3513 0.43114 0.71588 0.0
C407 C 0.17643 0.32522 0.77064 0.0
C408 C 0.13785 0.31736 0.76393 0.0
C409 C 0.19123 0.33088 0.80678 0.0
C410 C 0.16816 0.3274 0.83571 0.0
C411 C 0.12977 0.31831 0.82914 0.0
C412 C 0.11469 0.31411 0.7929 0.0
C413 C 0.31584 0.44263 0.72201 0.0
H414 H 0.21754 0.25868 0.56663 0.0
H415 H 0.20772 0.30393 0.61282 0.0
H416 H 0.23491 0.2275 0.69778 0.0
H417 H 0.2456 0.18194 0.65152 0.0
H418 H 0.1764 0.27638 0.71484 0.0
H419 H 0.27001 0.32634 0.66312 0.0
H420 H 0.23391 0.37472 0.76001 0.0
H421 H 0.25768 0.4273 0.72511 0.0
H422 H 0.32735 0.34117 0.69985 0.0
H423 H 0.38153 0.38444 0.70258 0.0
H424 H 0.12565 0.3133 0.7363 0.0
H425 H 0.2209 0.33669 0.81283 0.0
H426 H 0.3122 0.4708 0.72861 0.0
H427 H 0.08521 0.30704 0.78692 0.0
H428 H 0.18065 0.3308 0.86331 0.0
C429 C 0.91488 0.27971 0.82596 0.0
C430 C 0.92823 0.24832 0.84236 0.0
C431 C 0.88415 0.27681 0.8003 0.0
C432 C 0.86679 0.2424 0.79038 0.0
C433 C 0.88205 0.21104 0.80542 0.0
C434 C 0.91199 0.21403 0.83161 0.0
C435 C 0.83199 0.23875 0.76588 0.0
C436 C 0.82638 0.26163 0.73553 0.0
C437 C 0.79455 0.25551 0.71134 0.0
C438 C 0.76804 0.22684 0.71771 0.0
C439 C 0.77326 0.20418 0.7478 0.0
C440 C 0.80467 0.21066 0.77207 0.0
C441 C 0.74923 0.17053 0.75132 0.0
C442 C 0.71169 0.17133 0.75896 0.0
C443 C 0.76483 0.137 0.74809 0.0
C444 C 0.74357 0.10462 0.75312 0.0
C445 C 0.70632 0.10507 0.76197 0.0
C446 C 0.7903 0.27611 0.67713 0.0
C447 C 0.78218 0.31283 0.67728 0.0
C448 C 0.79052 0.25757 0.64383 0.0
C449 C 0.78098 0.27485 0.61114 0.0
C450 C 0.7706 0.31096 0.61113 0.0
C451 C 0.77219 0.33015 0.64443 0.0
C452 C 0.69038 0.1387 0.76462 0.0
H453 H 0.92711 0.30645 0.83422 0.0
H454 H 0.87317 0.30151 0.78939 0.0
H455 H 0.87047 0.18401 0.79749 0.0
H456 H 0.92222 0.18952 0.84383 0.0
H457 H 0.84744 0.28286 0.72958 0.0
H458 H 0.80805 0.19295 0.79545 0.0
H459 H 0.74422 0.22117 0.69831 0.0
H460 H 0.69928 0.19709 0.76151 0.0
H461 H 0.79372 0.13591 0.74203 0.0
H462 H 0.7568 0.07924 0.75111 0.0
H463 H 0.78176 0.32746 0.70284 0.0
H464 H 0.79676 0.22919 0.64325 0.0
H465 H 0.66173 0.13978 0.7714 0.0
H466 H 0.76437 0.35801 0.64525 0.0
H467 H 0.77995 0.25919 0.58609 0.0
C468 C 0.54797 0.64016 0.41846 0.0
C469 C 0.5367 0.6704 0.43722 0.0
C470 C 0.54686 0.60563 0.43474 0.0
C471 C 0.5346 0.60089 0.47009 0.0
C472 C 0.52271 0.63126 0.48823 0.0
C473 C 0.52348 0.66533 0.47196 0.0
C474 C 0.53702 0.56584 0.49014 0.0
C475 C 0.56804 0.54499 0.48823 0.0
C476 C 0.57477 0.51775 0.51413 0.0
C477 C 0.55108 0.5123 0.54276 0.0
C478 C 0.51937 0.53223 0.54448 0.0
C479 C 0.51128 0.55672 0.5162 0.0
C480 C 0.49756 0.53144 0.57771 0.0
C481 C 0.49463 0.50044 0.60018 0.0
C482 C 0.48154 0.56321 0.58872 0.0
C483 C 0.46325 0.56399 0.62078 0.0
C484 C 0.46163 0.53361 0.64361 0.0
C485 C 0.60821 0.49681 0.51326 0.0
C486 C 0.61376 0.47537 0.48274 0.0
C487 C 0.63367 0.49659 0.54392 0.0
C488 C 0.66342 0.47426 0.54468 0.0
C489 C 0.66795 0.45119 0.51501 0.0
C490 C 0.64323 0.45247 0.48372 0.0
C491 C 0.47732 0.50172 0.63313 0.0
H492 H 0.55833 0.6433 0.39159 0.0
H493 H 0.55611 0.58288 0.41994 0.0
H494 H 0.51423 0.6293 0.5159 0.0
H495 H 0.5151 0.68804 0.48746 0.0
H496 H 0.58831 0.5514 0.46835 0.0
H497 H 0.48599 0.57096 0.51586 0.0
H498 H 0.55827 0.4933 0.56417 0.0
H499 H 0.50595 0.47526 0.59263 0.0
H500 H 0.48415 0.58827 0.57345 0.0
H501 H 0.45182 0.58911 0.62855 0.0
H502 H 0.59441 0.4752 0.45879 0.0
H503 H 0.6301 0.51321 0.56763 0.0
H504 H 0.47606 0.47779 0.65025 0.0
H505 H 0.64606 0.43508 0.46041 0.0
H506 H 0.68192 0.474 0.56921 0.0
C507 C 0.46695 0.51483 0.87086 0.0
C508 C 0.46898 0.48752 0.84443 0.0
C509 C 0.48245 0.51046 0.90648 0.0
C510 C 0.49969 0.47847 0.91647 0.0
C511 C 0.49955 0.45027 0.89068 0.0
C512 C 0.48457 0.45483 0.855 0.0
C513 C 0.52143 0.47599 0.95212 0.0
C514 C 0.5187 0.44427 0.97321 0.0
C515 C 0.54268 0.4404 0.00464 0.0
C516 C 0.56983 0.46865 0.01489 0.0
C517 C 0.57206 0.50107 0.99458 0.0
C518 C 0.54772 0.50439 0.96336 0.0
C519 C 0.60006 0.53163 0.00468 0.0
C520 C 0.58903 0.56746 0.0044 0.0
C521 C 0.63807 0.52587 0.01137 0.0
C522 C 0.66468 0.55558 0.01598 0.0
C523 C 0.65366 0.59155 0.01415 0.0
C524 C 0.54013 0.40581 0.02524 0.0
C525 C 0.50615 0.39274 0.03857 0.0
C526 C 0.5705 0.38391 0.02831 0.0
C527 C 0.56627 0.34863 0.0424 0.0
C528 C 0.53181 0.3349 0.05439 0.0
C529 C 0.50214 0.35777 0.05345 0.0
C530 C 0.6154 0.59698 0.0091 0.0
H531 H 0.45514 0.54032 0.86359 0.0
H532 H 0.48201 0.53254 0.92593 0.0
H533 H 0.51288 0.42545 0.89752 0.0
H534 H 0.48631 0.43314 0.83535 0.0
H535 H 0.49855 0.42211 0.96461 0.0
H536 H 0.55049 0.5286 0.94668 0.0
H537 H 0.58864 0.46564 0.03887 0.0
H538 H 0.55989 0.57272 -0.00027 0.0
H539 H 0.64736 0.4985 0.01152 0.0
H540 H 0.69386 0.55037 0.02003 0.0
H541 H 0.48234 0.40921 0.03644 0.0
H542 H 0.5969 0.39334 0.01801 0.0
H543 H 0.60566 0.62416 0.00795 0.0
H544 H 0.47521 0.34793 0.06224 0.0
H545 H 0.58967 0.33167 0.04286 0.0
C546 C 0.61361 0.17935 0.16517 0.0
C547 C 0.59184 0.20941 0.16214 0.0
C548 C 0.64104 0.17731 0.19378 0.0
C549 C 0.64849 0.20603 0.21933 0.0
C550 C 0.62607 0.23597 0.2163 0.0
C551 C 0.59771 0.23734 0.18833 0.0
C552 C 0.6801 0.20515 0.24809 0.0
C553 C 0.71195 0.18637 0.24166 0.0
C554 C 0.74177 0.18558 0.2682 0.0
C555 C 0.74024 0.20396 0.3012 0.0
C556 C 0.70891 0.22239 0.30865 0.0
C557 C 0.67896 0.22309 0.28207 0.0
C558 C 0.70813 0.23958 0.34505 0.0
C559 C 0.71823 0.21945 0.37614 0.0
C560 C 0.70207 0.27669 0.34896 0.0
C561 C 0.70866 0.29386 0.38324 0.0
C562 C 0.72163 0.27407 0.41372 0.0
C563 C 0.77458 0.16492 0.26243 0.0
C564 C 0.77058 0.12697 0.25763 0.0
C565 C 0.8104 0.18271 0.26491 0.0
C566 C 0.84179 0.1629 0.26243 0.0
C567 C 0.83798 0.12483 0.25826 0.0
C568 C 0.80206 0.10701 0.25591 0.0
C569 C 0.72508 0.23649 0.40997 0.0
H570 H 0.60928 0.15731 0.1454 0.0
H571 H 0.65643 0.1531 0.19558 0.0
H572 H 0.631 0.259 0.23476 0.0
H573 H 0.58141 0.26099 0.18627 0.0
H574 H 0.71431 0.17297 0.21576 0.0
H575 H 0.65454 0.23666 0.28851 0.0
H576 H 0.76351 0.20339 0.32156 0.0
H577 H 0.72244 0.19068 0.37399 0.0
H578 H 0.6943 0.29275 0.3253 0.0
H579 H 0.70554 0.32283 0.38548 0.0
H580 H 0.74317 0.1127 0.25613 0.0
H581 H 0.81407 0.21196 0.26889 0.0
H582 H 0.73415 0.22028 0.4331 0.0
H583 H 0.79826 0.07773 0.25229 0.0
H584 H 0.86909 0.17738 0.26419 0.0
C585 C 0.48725 0.13443 0.00961 0.0
C586 C 0.48117 0.13287 0.04691 0.0
C587 C 0.48223 0.103 0.98797 0.0
C588 C 0.4718 0.069 0.00323 0.0
C589 C 0.46725 0.06734 0.04098 0.0
C590 C 0.47151 0.09898 0.06249 0.0
C591 C 0.46493 0.03577 0.97962 0.0
C592 C 0.48578 0.03151 0.94919 0.0
C593 C 0.47879 0.00114 0.92598 0.0
C594 C 0.4514 0.97388 0.93389 0.0
C595 C 0.42998 0.9776 0.96409 0.0
C596 C 0.43682 0.00867 0.98663 0.0
C597 C 0.40008 0.94938 0.97194 0.0
C598 C 0.36491 0.95944 0.98087 0.0
C599 C 0.40669 0.91224 0.97117 0.0
C600 C 0.37898 0.88575 0.97982 0.0
C601 C 0.34386 0.89578 0.9891 0.0
C602 C 0.49968 0.99919 0.89287 0.0
C603 C 0.49982 0.02833 0.86826 0.0
C604 C 0.52192 0.97018 0.88721 0.0
C605 C 0.54581 0.97152 0.85864 0.0
C606 C 0.54737 0.00169 0.8351 0.0
C607 C 0.52317 0.02944 0.83952 0.0
C608 C 0.33707 0.93296 0.98921 0.0
H609 H 0.49424 0.16023 0.9967 0.0
H610 H 0.48533 0.10576 0.95898 0.0
H611 H 0.46011 0.04165 0.05399 0.0
H612 H 0.46674 0.09697 0.09123 0.0
H613 H 0.50793 0.05171 0.94347 0.0
H614 H 0.41997 0.01172 0.00957 0.0
H615 H 0.44588 0.95052 0.91581 0.0
H616 H 0.35884 0.98785 0.98125 0.0
H617 H 0.43359 0.90368 0.96461 0.0
H618 H 0.38519 0.85739 0.97932 0.0
H619 H 0.48261 0.05085 0.87196 0.0
H620 H 0.52222 0.94745 0.90592 0.0
H621 H 0.31037 0.9417 0.99616 0.0
H622 H 0.52346 0.053 0.82186 0.0
H623 H 0.56401 0.94964 0.85587 0.0
Mg624 Mg 0.22589 0.8475 0.01617 0.0
O625 O 0.2817 0.87683 0.00271 0.0
O626 O 0.32388 0.83504 0.00442 0.0
Mg627 Mg 0.29648 0.78027 0.0219 0.0
C628 C 0.31481 0.86767 0.99914 0.0
C629 C 0.19603 0.9237 0.0185 0.0
O630 O 0.2202 0.92449 0.04702 0.0
O631 O 0.21921 0.8203 0.9594 0.0
O632 O 0.25927 0.7769 0.96879 0.0
O633 O 0.23904 0.85722 0.07649 0.0
O634 O 0.25367 0.80893 0.04675 0.0
C635 C 0.23402 0.7918 0.94906 0.0
C636 C 0.25461 0.82661 0.07697 0.0
O637 O 0.19342 0.89606 0.99743 0.0
Mg638 Mg 0.15527 0.50772 0.28175 0.0
O639 O 0.12215 0.50817 0.22589 0.0
O640 O 0.16345 0.51698 0.1836 0.0
Mg641 Mg 0.22222 0.52413 0.21171 0.0
C642 C 0.12992 0.51177 0.19261 0.0
C643 C 0.07658 0.50657 0.30873 0.0
O644 O 0.07822 0.53575 0.28815 0.0
O645 O 0.17413 0.4506 0.27047 0.0
O646 O 0.21778 0.46523 0.23153 0.0
O647 O 0.15494 0.56887 0.28647 0.0
O648 O 0.19859 0.54004 0.26189 0.0
C649 C 0.20043 0.44197 0.25116 0.0
C650 C 0.18566 0.57033 0.27015 0.0
O651 O 0.1037 0.48622 0.30993 0.0
Mg652 Mg 0.7702 0.65727 0.02612 0.0
O653 O 0.71621 0.6189 0.02116 0.0
O654 O 0.66929 0.65521 0.01234 0.0
Mg655 Mg 0.6914 0.71477 0.01113 0.0
C656 C 0.68136 0.62355 0.01627 0.0
C657 C 0.82182 0.59662 0.05091 0.0
O658 O 0.81219 0.60867 0.0823 0.0
O659 O 0.76711 0.66732 0.96427 0.0
O660 O 0.72005 0.70396 0.95875 0.0
O661 O 0.7648 0.66505 0.08633 0.0
O662 O 0.74115 0.70022 0.04357 0.0
C663 C 0.74565 0.68717 0.945 0.0
C664 C 0.74578 0.69265 0.0776 0.0
O665 O 0.80743 0.60969 0.02157 0.0
Mg666 Mg 0.9194 0.04161 0.24031 0.0
O667 O 0.88115 0.99011 0.22795 0.0
O668 O 0.91668 0.9449 0.21573 0.0
Mg669 Mg 0.97748 0.96734 0.21975 0.0
C670 C 0.88483 0.95692 0.21965 0.0
C671 C 0.87125 0.10423 0.25443 0.0
O672 O 0.9016 0.12074 0.24265 0.0
O673 O 0.93663 0.01923 0.2966 0.0
O674 O 0.97356 0.97599 0.28151 0.0
O675 O 0.91722 0.05649 0.18193 0.0
O676 O 0.95926 0.02204 0.20804 0.0
C677 C 0.95841 0.9942 0.30542 0.0
C678 C 0.94514 0.03673 0.17889 0.0
O679 O 0.87012 0.07 0.25949 0.0
Mg680 Mg 0.2702 0.15727 0.52612 0.0
O681 O 0.21621 0.1189 0.52116 0.0
O682 O 0.16929 0.15521 0.51234 0.0
Mg683 Mg 0.1914 0.21477 0.51113 0.0
C684 C 0.18136 0.12355 0.51627 0.0
C685 C 0.32182 0.09662 0.55091 0.0
O686 O 0.31219 0.10867 0.5823 0.0
O687 O 0.26711 0.16732 0.46427 0.0
O688 O 0.22005 0.20396 0.45875 0.0
O689 O 0.2648 0.16505 0.58633 0.0
O690 O 0.24114 0.20022 0.54357 0.0
C691 C 0.24565 0.18717 0.445 0.0
C692 C 0.24578 0.19265 0.5776 0.0
O693 O 0.30743 0.10969 0.52157 0.0
Mg694 Mg 0.4194 0.54161 0.74031 0.0
O695 O 0.38115 0.49011 0.72795 0.0
O696 O 0.41668 0.4449 0.71573 0.0
Mg697 Mg 0.47748 0.46734 0.71975 0.0
C698 C 0.38483 0.45692 0.71965 0.0
C699 C 0.37125 0.60423 0.75443 0.0
O700 O 0.4016 0.62074 0.74265 0.0
O701 O 0.43663 0.51923 0.7966 0.0
O702 O 0.47356 0.47599 0.78151 0.0
O703 O 0.41723 0.55649 0.68193 0.0
O704 O 0.45926 0.52204 0.70804 0.0
C705 C 0.45841 0.4942 0.80542 0.0
C706 C 0.44514 0.53673 0.67889 0.0
O707 O 0.37012 0.57 0.75949 0.0
Mg708 Mg 0.72589 0.3475 0.51617 0.0
O709 O 0.7817 0.37683 0.50271 0.0
O710 O 0.82388 0.33504 0.50442 0.0
Mg711 Mg 0.79648 0.28027 0.5219 0.0
C712 C 0.81481 0.36767 0.49914 0.0
C713 C 0.69603 0.4237 0.5185 0.0
O714 O 0.7202 0.42449 0.54702 0.0
O715 O 0.71921 0.3203 0.4594 0.0
O716 O 0.75927 0.2769 0.46879 0.0
O717 O 0.73904 0.35722 0.57649 0.0
O718 O 0.75367 0.30893 0.54675 0.0
C719 C 0.73402 0.2918 0.44906 0.0
C720 C 0.75461 0.32661 0.57698 0.0
O721 O 0.69342 0.39606 0.49743 0.0
Mg722 Mg 0.65527 0.00772 0.78175 0.0
O723 O 0.62215 0.00817 0.72589 0.0
O724 O 0.66345 0.01698 0.6836 0.0
Mg725 Mg 0.72222 0.02413 0.71171 0.0
C726 C 0.62992 0.01177 0.69261 0.0
C727 C 0.57658 0.00657 0.80873 0.0
O728 O 0.57822 0.03575 0.78815 0.0
O729 O 0.67413 0.9506 0.77047 0.0
O730 O 0.71778 0.96523 0.73153 0.0
O731 O 0.65494 0.06887 0.78647 0.0
O732 O 0.69859 0.04004 0.76189 0.0
C733 C 0.70043 0.94197 0.75116 0.0
C734 C 0.68566 0.07033 0.77015 0.0
O735 O 0.6037 0.98622 0.80993 0.0
Mg736 Mg 0.04524 0.27299 0.90159 0.0
O737 O 0.98971 0.26371 0.86712 0.0
O738 O 0.94735 0.24037 0.9041 0.0
Mg739 Mg 0.97435 0.2386 0.96197 0.0
C740 C 0.95677 0.2511 0.87284 0.0
C741 C 0.10652 0.30967 0.85999 0.0
O742 O 0.12243 0.30455 0.89271 0.0
O743 O 0.0249 0.32496 0.92508 0.0
O744 O 0.98264 0.30111 0.96182 0.0
O745 O 0.05825 0.21495 0.89339 0.0
O746 O 0.02835 0.2345 0.93919 0.0
C747 C 1.00043 0.32852 0.94817 0.0
C748 C 0.04099 0.20771 0.92252 0.0
O749 O 0.07171 0.30184 0.85447 0.0
Mg750 Mg 0.54524 0.77299 0.40159 0.0
O751 O 0.48971 0.76371 0.36712 0.0
O752 O 0.44735 0.74037 0.4041 0.0
Mg753 Mg 0.47435 0.7386 0.46197 0.0
C754 C 0.45677 0.7511 0.37284 0.0
C755 C 0.60652 0.80967 0.35999 0.0
O756 O 0.62243 0.80455 0.39271 0.0
O757 O 0.5249 0.82496 0.42508 0.0
O758 O 0.48264 0.80111 0.46182 0.0
O759 O 0.55825 0.71495 0.39339 0.0
O760 O 0.52835 0.7345 0.43919 0.0
C761 C 0.50043 0.82852 0.44817 0.0
C762 C 0.54098 0.70771 0.42252 0.0
O763 O 0.57171 0.80184 0.35447 0.0
Mg764 Mg 0.97797 0.72782 0.59916 0.0
O765 O 0.03161 0.72039 0.63566 0.0
O766 O 0.07587 0.70783 0.5987 0.0
Mg767 Mg 0.05214 0.7117 0.53953 0.0
C768 C 0.06479 0.7125 0.63049 0.0
C769 C 0.91272 0.73609 0.64238 0.0
O770 O 0.90066 0.7211 0.61086 0.0
O771 O 1.00008 0.78556 0.58456 0.0
O772 O 0.04429 0.77302 0.54746 0.0
O773 O 0.96329 0.66793 0.59758 0.0
O774 O 0.99592 0.69722 0.55668 0.0
C775 C 0.02568 0.79581 0.56359 0.0
C776 C 0.98107 0.66692 0.56825 0.0
O777 O 0.94735 0.74537 0.64783 0.0
Mg778 Mg 0.47797 0.22782 0.09916 0.0
O779 O 0.53161 0.22039 0.13566 0.0
O780 O 0.57587 0.20783 0.0987 0.0
Mg781 Mg 0.55214 0.2117 0.03953 0.0
C782 C 0.56479 0.2125 0.13049 0.0
C783 C 0.41272 0.23609 0.14238 0.0
O784 O 0.40066 0.2211 0.11086 0.0
O785 O 0.50008 0.28556 0.08456 0.0
O786 O 0.54429 0.27302 0.04746 0.0
O787 O 0.46329 0.16793 0.09758 0.0
O788 O 0.49592 0.19722 0.05668 0.0
C789 C 0.52568 0.2958 0.06359 0.0
C790 C 0.48107 0.16692 0.06825 0.0
O791 O 0.44735 0.24537 0.14783 0.0
loop_
_geom_bond_atom_site_label_1
_geom_bond_atom_site_label_2
_geom_bond_distance
_geom_bond_site_symmetry_2
_ccdc_geom_bond_type
C0 C1 1.386 . S
C0 C2 1.397 . S
C0 H24 0.931 . S
C1 C0 1.386 . S
C1 C5 1.397 . S
C2 C0 1.397 . S
C2 C3 1.384 . S
C2 H25 0.930 . S
C3 C2 1.384 . S
C3 C4 1.377 . S
C3 C6 1.481 1_556 S
C4 C3 1.377 . S
C4 C5 1.389 . S
C4 H26 0.929 1_556 S
C5 C1 1.397 . S
C5 C4 1.389 . S
C5 H27 0.931 . S
C6 C3 1.481 1_554 S
C6 C7 1.391 . S
C6 C11 1.390 . S
C7 C6 1.391 . S
C7 C8 1.415 . S
C7 H28 0.911 1_554 S
C8 C7 1.415 . S
C8 C9 1.376 . S
C8 C17 1.511 1_545 S
C9 C8 1.376 . S
C9 C10 1.392 . S
C9 H30 0.931 1_545 S
C10 C9 1.392 . S
C10 C11 1.361 . S
C10 C12 1.500 1_455 S
C11 C6 1.390 . S
C11 C10 1.361 . S
C11 H29 0.931 1_455 S
C12 C10 1.500 1_655 S
C12 C13 1.371 1_545 S
C12 C14 1.365 . S
C13 C12 1.371 1_565 S
C13 C23 1.386 . S
C13 H31 0.931 . S
C14 C12 1.365 . S
C14 C15 1.409 . S
C14 H32 0.929 . S
C15 C14 1.409 . S
C15 C16 1.380 . S
C15 H33 0.930 . S
C16 C15 1.380 . S
C16 C23 1.357 1_545 S
C17 C8 1.511 1_565 S
C17 C18 1.341 1_554 S
C17 C19 1.371 . S
C18 C17 1.341 1_556 S
C18 C22 1.394 . S
C18 H34 0.930 . S
C19 C17 1.371 . S
C19 C20 1.392 . S
C19 H35 0.931 . S
C20 C19 1.392 . S
C20 C21 1.331 . S
C20 H38 0.932 . S
C21 C20 1.331 . S
C21 C22 1.336 1_554 S
C22 C18 1.394 . S
C22 C21 1.336 1_556 S
C22 H37 0.929 . S
C23 C13 1.386 . S
C23 C16 1.357 1_565 S
C23 H36 0.928 . S
H24 C0 0.931 . S
H25 C2 0.930 . S
H26 C4 0.929 1_554 S
H27 C5 0.931 . S
H28 C7 0.911 1_556 S
H29 C11 0.931 1_655 S
H30 C9 0.931 1_565 S
H31 C13 0.931 . S
H32 C14 0.929 . S
H33 C15 0.930 . S
H34 C18 0.930 . S
H35 C19 0.931 . S
H36 C23 0.928 . S
H37 C22 0.929 . S
H38 C20 0.932 . S
C39 C40 1.386 . S
C39 C41 1.397 . S
C39 H63 0.931 . S
C40 C39 1.386 . S
C40 C44 1.397 . S
C41 C39 1.397 . S
C41 C42 1.384 . S
C41 H64 0.930 . S
C42 C41 1.384 . S
C42 C43 1.377 . S
C42 C45 1.481 . S
C43 C42 1.377 . S
C43 C44 1.389 . S
C43 H65 0.929 . S
C44 C40 1.397 . S
C44 C43 1.389 . S
C44 H66 0.931 . S
C45 C42 1.481 . S
C45 C46 1.387 . S
C45 C50 1.390 . S
C46 C45 1.387 . S
C46 C47 1.401 . S
C46 H67 0.930 . S
C47 C46 1.401 . S
C47 C48 1.376 . S
C47 C56 1.511 . S
C48 C47 1.376 . S
C48 C49 1.392 . S
C48 H69 0.931 . S
C49 C48 1.392 . S
C49 C50 1.361 . S
C49 C51 1.500 . S
C50 C45 1.390 . S
C50 C49 1.361 . S
C50 H68 0.931 . S
C51 C49 1.500 . S
C51 C52 1.371 . S
C51 C53 1.365 . S
C52 C51 1.371 . S
C52 C62 1.386 . S
C52 H70 0.931 . S
C53 C51 1.365 . S
C53 C54 1.409 . S
C53 H71 0.929 . S
C54 C53 1.409 . S
C54 C55 1.380 . S
C54 H72 0.930 . S
C55 C54 1.380 . S
C55 C62 1.357 . S
C56 C47 1.511 . S
C56 C57 1.341 . S
C56 C58 1.371 . S
C57 C56 1.341 . S
C57 C61 1.394 . S
C57 H73 0.930 . S
C58 C56 1.371 . S
C58 C59 1.392 . S
C58 H74 0.931 . S
C59 C58 1.392 . S
C59 C60 1.331 . S
C59 H77 0.932 . S
C60 C59 1.331 . S
C60 C61 1.336 . S
C61 C57 1.394 . S
C61 C60 1.336 . S
C61 H76 0.929 . S
C62 C52 1.386 . S
C62 C55 1.357 . S
C62 H75 0.928 . S
H63 C39 0.931 . S
H64 C41 0.930 . S
H65 C43 0.929 . S
H66 C44 0.931 . S
H67 C46 0.930 . S
H68 C50 0.931 . S
H69 C48 0.931 . S
H70 C52 0.931 . S
H71 C53 0.929 . S
H72 C54 0.930 . S
H73 C57 0.930 . S
H74 C58 0.931 . S
H75 C62 0.928 . S
H76 C61 0.929 . S
H77 C59 0.932 . S
C78 C79 1.386 . S
C78 C80 1.397 . S
C78 H102 0.931 . S
C79 C78 1.386 . S
C79 C83 1.397 . S
C80 C78 1.397 . S
C80 C81 1.384 . S
C80 H103 0.930 1_455 S
C81 C80 1.384 . S
C81 C82 1.377 . S
C81 C84 1.481 . S
C82 C81 1.377 . S
C82 C83 1.389 . S
C82 H104 0.929 . S
C83 C79 1.397 . S
C83 C82 1.389 . S
C83 H105 0.931 . S
C84 C81 1.481 . S
C84 C85 1.387 1_455 S
C84 C89 1.390 . S
C85 C84 1.387 1_655 S
C85 C86 1.401 . S
C85 H106 0.930 . S
C86 C85 1.401 . S
C86 C87 1.376 . S
C86 C95 1.511 . S
C87 C86 1.376 . S
C87 C88 1.392 . S
C87 H108 0.952 . S
C88 C87 1.392 . S
C88 C89 1.361 1_655 S
C88 C90 1.500 . S
C89 C84 1.390 . S
C89 C88 1.361 1_455 S
C89 H107 0.931 . S
C90 C88 1.500 . S
C90 C91 1.371 1_554 S
C90 C92 1.365 1_654 S
C91 C90 1.371 1_556 S
C91 C101 1.386 . S
C91 H109 0.931 . S
C92 C90 1.365 1_456 S
C92 C93 1.409 . S
C92 H110 0.929 1_556 S
C93 C92 1.409 . S
C93 C94 1.380 . S
C93 H111 0.930 . S
C94 C93 1.380 . S
C94 C101 1.357 1_455 S
C95 C86 1.511 . S
C95 C96 1.341 . S
C95 C97 1.371 . S
C96 C95 1.341 . S
C96 C100 1.394 . S
C96 H112 0.930 . S
C97 C95 1.371 . S
C97 C98 1.392 1_554 S
C97 H113 0.931 1_554 S
C98 C97 1.392 1_556 S
C98 C99 1.331 1_556 S
C98 H116 0.932 . S
C99 C98 1.331 1_554 S
C99 C100 1.336 . S
C100 C96 1.394 . S
C100 C99 1.336 . S
C100 H115 0.929 . S
C101 C91 1.386 . S
C101 C94 1.357 1_655 S
C101 H114 0.928 . S
H102 C78 0.931 . S
H103 C80 0.930 1_655 S
H104 C82 0.929 . S
H105 C83 0.931 . S
H106 C85 0.930 . S
H107 C89 0.931 . S
H108 C87 0.952 . S
H109 C91 0.931 . S
H110 C92 0.929 1_554 S
H111 C93 0.930 . S
H112 C96 0.930 . S
H113 C97 0.931 1_556 S
H114 C101 0.928 . S
H115 C100 0.929 . S
H116 C98 0.932 . S
C117 C118 1.386 . S
C117 C119 1.397 . S
C117 H141 0.931 . S
C118 C117 1.386 . S
C118 C122 1.397 . S
C119 C117 1.397 . S
C119 C120 1.384 . S
C119 H142 0.930 . S
C120 C119 1.384 . S
C120 C121 1.377 . S
C120 C123 1.481 . S
C121 C120 1.377 . S
C121 C122 1.389 . S
C121 H143 0.929 . S
C122 C118 1.397 . S
C122 C121 1.389 . S
C122 H144 0.931 . S
C123 C120 1.481 . S
C123 C124 1.387 . S
C123 C128 1.390 . S
C124 C123 1.387 . S
C124 C125 1.401 . S
C124 H145 0.930 . S
C125 C124 1.401 . S
C125 C126 1.376 . S
C125 C134 1.511 . S
C126 C125 1.376 . S
C126 C127 1.392 . S
C126 H147 0.931 . S
C127 C126 1.392 . S
C127 C128 1.361 . S
C127 C129 1.500 . S
C128 C123 1.390 . S
C128 C127 1.361 . S
C128 H146 0.931 . S
C129 C127 1.500 . S
C129 C130 1.371 . S
C129 C131 1.365 . S
C130 C129 1.371 . S
C130 C140 1.386 . S
C130 H148 0.931 . S
C131 C129 1.365 . S
C131 C132 1.409 . S
C131 H149 0.929 . S
C132 C131 1.409 . S
C132 C133 1.380 . S
C132 H150 0.930 . S
C133 C132 1.380 . S
C133 C140 1.357 . S
C134 C125 1.511 . S
C134 C135 1.341 . S
C134 C136 1.371 . S
C135 C134 1.341 . S
C135 C139 1.394 . S
C135 H151 0.930 . S
C136 C134 1.371 . S
C136 C137 1.392 . S
C136 H152 0.931 . S
C137 C136 1.392 . S
C137 C138 1.331 . S
C137 H155 0.932 . S
C138 C137 1.331 . S
C138 C139 1.336 . S
C139 C135 1.394 . S
C139 C138 1.336 . S
C139 H154 0.929 . S
C140 C130 1.386 . S
C140 C133 1.357 . S
C140 H153 0.928 . S
H141 C117 0.931 . S
H142 C119 0.930 . S
H143 C121 0.929 . S
H144 C122 0.931 . S
H145 C124 0.930 . S
H146 C128 0.931 . S
H147 C126 0.931 . S
H148 C130 0.931 . S
H149 C131 0.929 . S
H150 C132 0.930 . S
H151 C135 0.930 . S
H152 C136 0.931 . S
H153 C140 0.928 . S
H154 C139 0.929 . S
H155 C137 0.932 . S
C156 C157 1.387 1_565 S
C156 C158 1.397 . S
C156 H180 0.931 . S
C157 C156 1.387 1_545 S
C157 C161 1.397 . S
C158 C156 1.397 . S
C158 C159 1.384 1_655 S
C158 H181 0.930 . S
C159 C158 1.384 1_455 S
C159 C160 1.377 . S
C159 C162 1.481 . S
C160 C159 1.377 . S
C160 C161 1.389 1_465 S
C160 H182 0.929 . S
C161 C157 1.397 . S
C161 C160 1.389 1_645 S
C161 H183 0.931 1_655 S
C162 C159 1.481 . S
C162 C163 1.387 . S
C162 C167 1.390 1_565 S
C163 C162 1.387 . S
C163 C164 1.401 . S
C163 H184 0.930 . S
C164 C163 1.401 . S
C164 C165 1.376 . S
C164 C173 1.511 . S
C165 C164 1.376 . S
C165 C166 1.392 . S
C165 H186 0.931 . S
C166 C165 1.392 . S
C166 C167 1.361 1_565 S
C166 C168 1.500 1_565 S
C167 C162 1.390 1_545 S
C167 C166 1.361 1_545 S
C167 H185 0.931 . S
C168 C166 1.500 1_545 S
C168 C169 1.371 . S
C168 C170 1.365 . S
C169 C168 1.371 . S
C169 C179 1.386 . S
C169 H187 0.931 . S
C170 C168 1.365 . S
C170 C171 1.409 . S
C170 H188 0.929 . S
C171 C170 1.409 . S
C171 C172 1.380 . S
C171 H189 0.930 . S
C172 C171 1.380 . S
C172 C179 1.357 . S
C173 C164 1.511 . S
C173 C174 1.341 . S
C173 C175 1.371 . S
C174 C173 1.341 . S
C174 C178 1.394 1_455 S
C174 H190 0.930 1_455 S
C175 C173 1.371 . S
C175 C176 1.392 . S
C175 H191 0.931 . S
C176 C175 1.392 . S
C176 C177 1.331 . S
C176 H194 0.932 . S
C177 C176 1.331 . S
C177 C178 1.336 1_455 S
C178 C174 1.394 1_655 S
C178 C177 1.336 1_655 S
C178 H193 0.929 . S
C179 C169 1.386 . S
C179 C172 1.357 . S
C179 H192 0.928 . S
H180 C156 0.931 . S
H181 C158 0.930 . S
H182 C160 0.929 . S
H183 C161 0.931 1_455 S
H184 C163 0.930 . S
H185 C167 0.931 . S
H186 C165 0.931 . S
H187 C169 0.931 . S
H188 C170 0.929 . S
H189 C171 0.930 . S
H190 C174 0.930 1_655 S
H191 C175 0.931 . S
H192 C179 0.928 . S
H193 C178 0.929 . S
H194 C176 0.932 . S
C195 C196 1.386 . S
C195 C197 1.397 . S
C195 H219 0.931 . S
C196 C195 1.386 . S
C196 C200 1.397 . S
C197 C195 1.397 . S
C197 C198 1.384 . S
C197 H220 0.930 . S
C198 C197 1.384 . S
C198 C199 1.377 . S
C198 C201 1.481 . S
C199 C198 1.377 . S
C199 C200 1.389 . S
C199 H221 0.929 . S
C200 C196 1.397 . S
C200 C199 1.389 . S
C200 H222 0.931 . S
C201 C198 1.481 . S
C201 C202 1.387 . S
C201 C206 1.390 . S
C202 C201 1.387 . S
C202 C203 1.401 . S
C202 H223 0.930 . S
C203 C202 1.401 . S
C203 C204 1.376 . S
C203 C212 1.511 . S
C204 C203 1.376 . S
C204 C205 1.392 . S
C204 H225 0.931 . S
C205 C204 1.392 . S
C205 C206 1.361 . S
C205 C207 1.500 . S
C206 C201 1.390 . S
C206 C205 1.361 . S
C206 H224 0.931 . S
C207 C205 1.500 . S
C207 C208 1.371 . S
C207 C209 1.365 . S
C208 C207 1.371 . S
C208 C218 1.386 . S
C208 H226 0.931 . S
C209 C207 1.365 . S
C209 C210 1.409 . S
C209 H227 0.929 . S
C210 C209 1.409 . S
C210 C211 1.380 . S
C210 H228 0.930 . S
C211 C210 1.380 . S
C211 C218 1.357 . S
C212 C203 1.511 . S
C212 C213 1.341 . S
C212 C214 1.371 . S
C213 C212 1.341 . S
C213 C217 1.394 . S
C213 H229 0.930 . S
C214 C212 1.371 . S
C214 C215 1.392 . S
C214 H230 0.931 . S
C215 C214 1.392 . S
C215 C216 1.331 . S
C215 H233 0.932 . S
C216 C215 1.331 . S
C216 C217 1.336 . S
C217 C213 1.394 . S
C217 C216 1.336 . S
C217 H232 0.929 . S
C218 C208 1.386 . S
C218 C211 1.357 . S
C218 H231 0.928 . S
H219 C195 0.931 . S
H220 C197 0.930 . S
H221 C199 0.929 . S
H222 C200 0.931 . S
H223 C202 0.930 . S
H224 C206 0.931 . S
H225 C204 0.931 . S
H226 C208 0.931 . S
H227 C209 0.929 . S
H228 C210 0.930 . S
H229 C213 0.930 . S
H230 C214 0.931 . S
H231 C218 0.928 . S
H232 C217 0.929 . S
H233 C215 0.932 . S
C234 C235 1.386 . S
C234 C236 1.397 . S
C234 H258 0.926 1_655 S
C235 C234 1.386 . S
C235 C239 1.397 . S
C236 C234 1.397 . S
C236 C237 1.384 . S
C236 H259 0.930 . S
C237 C236 1.384 . S
C237 C238 1.377 . S
C237 C240 1.481 . S
C238 C237 1.377 . S
C238 C239 1.389 . S
C238 H260 0.929 . S
C239 C235 1.397 . S
C239 C238 1.389 . S
C239 H261 0.931 . S
C240 C237 1.481 . S
C240 C241 1.387 . S
C240 C245 1.390 . S
C241 C240 1.387 . S
C241 C242 1.401 . S
C241 H262 0.930 1_655 S
C242 C241 1.401 . S
C242 C243 1.376 . S
C242 C251 1.511 1_655 S
C243 C242 1.376 . S
C243 C244 1.392 . S
C243 H264 0.931 . S
C244 C243 1.392 . S
C244 C245 1.361 . S
C244 C246 1.500 . S
C245 C240 1.390 . S
C245 C244 1.361 . S
C245 H263 0.931 . S
C246 C244 1.500 . S
C246 C247 1.371 . S
C246 C248 1.365 . S
C247 C246 1.371 . S
C247 C257 1.386 . S
C247 H265 0.931 . S
C248 C246 1.365 . S
C248 C249 1.409 . S
C248 H266 0.929 . S
C249 C248 1.409 . S
C249 C250 1.380 . S
C249 H267 0.930 . S
C250 C249 1.380 . S
C250 C257 1.357 . S
C251 C242 1.511 1_455 S
C251 C252 1.341 . S
C251 C253 1.371 . S
C252 C251 1.341 . S
C252 C256 1.394 . S
C252 H268 0.930 . S
C253 C251 1.371 . S
C253 C254 1.392 . S
C253 H269 0.921 1_455 S
C254 C253 1.392 . S
C254 C255 1.331 . S
C254 H272 0.932 . S
C255 C254 1.331 . S
C255 C256 1.336 . S
C256 C252 1.394 . S
C256 C255 1.336 . S
C256 H271 0.929 . S
C257 C247 1.386 . S
C257 C250 1.357 . S
C257 H270 0.928 . S
H258 C234 0.926 1_455 S
H259 C236 0.930 . S
H260 C238 0.929 . S
H261 C239 0.931 . S
H262 C241 0.930 1_455 S
H263 C245 0.931 . S
H264 C243 0.931 . S
H265 C247 0.931 . S
H266 C248 0.929 . S
H267 C249 0.930 . S
H268 C252 0.930 . S
H269 C253 0.921 1_655 S
H270 C257 0.928 . S
H271 C256 0.929 . S
H272 C254 0.932 . S
C273 C274 1.386 . S
C273 C275 1.397 . S
C273 H297 0.931 . S
C274 C273 1.386 . S
C274 C278 1.397 . S
C275 C273 1.397 . S
C275 C276 1.384 . S
C275 H298 0.930 . S
C276 C275 1.384 . S
C276 C277 1.377 . S
C276 C279 1.481 . S
C277 C276 1.377 . S
C277 C278 1.389 . S
C277 H299 0.929 . S
C278 C274 1.397 . S
C278 C277 1.389 . S
C278 H300 0.931 . S
C279 C276 1.481 . S
C279 C280 1.387 . S
C279 C284 1.390 . S
C280 C279 1.387 . S
C280 C281 1.401 . S
C280 H301 0.930 . S
C281 C280 1.401 . S
C281 C282 1.376 . S
C281 C290 1.511 . S
C282 C281 1.376 . S
C282 C283 1.392 . S
C282 H303 0.931 . S
C283 C282 1.392 . S
C283 C284 1.361 . S
C283 C285 1.500 . S
C284 C279 1.390 . S
C284 C283 1.361 . S
C284 H302 0.931 . S
C285 C283 1.500 . S
C285 C286 1.371 . S
C285 C287 1.365 . S
C286 C285 1.371 . S
C286 C296 1.386 . S
C286 H304 0.931 . S
C287 C285 1.365 . S
C287 C288 1.409 . S
C287 H305 0.929 . S
C288 C287 1.409 . S
C288 C289 1.380 . S
C288 H306 0.930 . S
C289 C288 1.380 . S
C289 C296 1.357 . S
C290 C281 1.511 . S
C290 C291 1.341 . S
C290 C292 1.371 . S
C291 C290 1.341 . S
C291 C295 1.394 . S
C291 H307 0.930 . S
C292 C290 1.371 . S
C292 C293 1.392 . S
C292 H308 0.931 . S
C293 C292 1.392 . S
C293 C294 1.331 . S
C293 H311 0.932 . S
C294 C293 1.331 . S
C294 C295 1.336 . S
C295 C291 1.394 . S
C295 C294 1.336 . S
C295 H310 0.929 . S
C296 C286 1.386 . S
C296 C289 1.357 . S
C296 H309 0.928 . S
H297 C273 0.931 . S
H298 C275 0.930 . S
H299 C277 0.929 . S
H300 C278 0.931 . S
H301 C280 0.930 . S
H302 C284 0.931 . S
H303 C282 0.931 . S
H304 C286 0.931 . S
H305 C287 0.929 . S
H306 C288 0.930 . S
H307 C291 0.930 . S
H308 C292 0.931 . S
H309 C296 0.928 . S
H310 C295 0.929 . S
H311 C293 0.932 . S
C312 C313 1.386 . S
C312 C314 1.397 . S
C312 H336 0.931 . S
C313 C312 1.386 . S
C313 C317 1.397 . S
C314 C312 1.397 . S
C314 C315 1.384 . S
C314 H337 0.930 . S
C315 C314 1.384 . S
C315 C316 1.377 . S
C315 C318 1.481 . S
C316 C315 1.377 . S
C316 C317 1.389 . S
C316 H338 0.929 . S
C317 C313 1.397 . S
C317 C316 1.389 . S
C317 H339 0.931 . S
C318 C315 1.481 . S
C318 C319 1.387 . S
C318 C323 1.390 . S
C319 C318 1.387 . S
C319 C320 1.401 . S
C319 H340 0.930 . S
C320 C319 1.401 . S
C320 C321 1.376 . S
C320 C329 1.511 . S
C321 C320 1.376 . S
C321 C322 1.392 . S
C321 H342 0.931 . S
C322 C321 1.392 . S
C322 C323 1.361 . S
C322 C324 1.500 . S
C323 C318 1.390 . S
C323 C322 1.361 . S
C323 H341 0.931 . S
C324 C322 1.500 . S
C324 C325 1.371 . S
C324 C326 1.365 . S
C325 C324 1.371 . S
C325 C335 1.386 . S
C325 H343 0.931 . S
C326 C324 1.365 . S
C326 C327 1.409 . S
C326 H344 0.929 . S
C327 C326 1.409 . S
C327 C328 1.380 . S
C327 H345 0.930 . S
C328 C327 1.380 . S
C328 C335 1.357 . S
C329 C320 1.511 . S
C329 C330 1.341 . S
C329 C331 1.371 . S
C330 C329 1.341 . S
C330 C334 1.394 . S
C330 H346 0.930 . S
C331 C329 1.371 . S
C331 C332 1.392 . S
C331 H347 0.931 . S
C332 C331 1.392 . S
C332 C333 1.331 . S
C332 H350 0.932 . S
C333 C332 1.331 . S
C333 C334 1.336 . S
C334 C330 1.394 . S
C334 C333 1.336 . S
C334 H349 0.929 . S
C335 C325 1.386 . S
C335 C328 1.357 . S
C335 H348 0.928 . S
H336 C312 0.931 . S
H337 C314 0.930 . S
H338 C316 0.929 . S
H339 C317 0.931 . S
H340 C319 0.930 . S
H341 C323 0.931 . S
H342 C321 0.931 . S
H343 C325 0.931 . S
H344 C326 0.929 . S
H345 C327 0.930 . S
H346 C330 0.930 . S
H347 C331 0.931 . S
H348 C335 0.928 . S
H349 C334 0.929 . S
H350 C332 0.932 . S
C351 C352 1.386 . S
C351 C353 1.397 . S
C351 H375 0.931 . S
C352 C351 1.386 . S
C352 C356 1.397 . S
C353 C351 1.397 . S
C353 C354 1.384 . S
C353 H376 0.930 . S
C354 C353 1.384 . S
C354 C355 1.377 . S
C354 C357 1.481 . S
C355 C354 1.377 . S
C355 C356 1.389 . S
C355 H377 0.929 . S
C356 C352 1.397 . S
C356 C355 1.389 . S
C356 H378 0.931 . S
C357 C354 1.481 . S
C357 C358 1.387 . S
C357 C362 1.390 . S
C358 C357 1.387 . S
C358 C359 1.401 . S
C358 H379 0.930 1_565 S
C359 C358 1.401 . S
C359 C360 1.376 . S
C359 C368 1.511 1_565 S
C360 C359 1.376 . S
C360 C361 1.392 . S
C360 H381 0.931 . S
C361 C360 1.392 . S
C361 C362 1.361 . S
C361 C363 1.500 . S
C362 C357 1.390 . S
C362 C361 1.361 . S
C362 H380 0.931 . S
C363 C361 1.500 . S
C363 C364 1.371 . S
C363 C365 1.365 . S
C364 C363 1.371 . S
C364 C374 1.386 . S
C364 H382 0.931 . S
C365 C363 1.365 . S
C365 C366 1.409 . S
C365 H383 0.929 . S
C366 C365 1.409 . S
C366 C367 1.380 . S
C366 H384 0.930 . S
C367 C366 1.380 . S
C367 C374 1.357 . S
C368 C359 1.511 1_545 S
C368 C369 1.341 . S
C368 C370 1.371 . S
C369 C368 1.341 . S
C369 C373 1.394 . S
C369 H385 0.930 . S
C370 C368 1.371 . S
C370 C371 1.392 . S
C370 H386 0.931 . S
C371 C370 1.392 . S
C371 C372 1.331 . S
C371 H389 0.932 . S
C372 C371 1.331 . S
C372 C373 1.336 . S
C373 C369 1.394 . S
C373 C372 1.336 . S
C373 H388 0.929 . S
C374 C364 1.386 . S
C374 C367 1.357 . S
C374 H387 0.928 . S
H375 C351 0.931 . S
H376 C353 0.930 . S
H377 C355 0.929 . S
H378 C356 0.931 . S
H379 C358 0.930 1_545 S
H380 C362 0.931 . S
H381 C360 0.931 . S
H382 C364 0.931 . S
H383 C365 0.929 . S
H384 C366 0.930 . S
H385 C369 0.930 . S
H386 C370 0.931 . S
H387 C374 0.928 . S
H388 C373 0.929 . S
H389 C371 0.932 . S
C390 C391 1.386 . S
C390 C392 1.397 . S
C390 H414 0.931 . S
C391 C390 1.386 . S
C391 C395 1.397 . S
C392 C390 1.397 . S
C392 C393 1.384 . S
C392 H415 0.930 . S
C393 C392 1.384 . S
C393 C394 1.377 . S
C393 C396 1.481 . S
C394 C393 1.377 . S
C394 C395 1.389 . S
C394 H416 0.929 . S
C395 C391 1.397 . S
C395 C394 1.389 . S
C395 H417 0.931 . S
C396 C393 1.481 . S
C396 C397 1.387 . S
C396 C401 1.390 . S
C397 C396 1.387 . S
C397 C398 1.401 . S
C397 H418 0.930 . S
C398 C397 1.401 . S
C398 C399 1.376 . S
C398 C407 1.511 . S
C399 C398 1.376 . S
C399 C400 1.392 . S
C399 H420 0.931 . S
C400 C399 1.392 . S
C400 C401 1.361 . S
C400 C402 1.500 . S
C401 C396 1.390 . S
C401 C400 1.361 . S
C401 H419 0.931 . S
C402 C400 1.500 . S
C402 C403 1.371 . S
C402 C404 1.365 . S
C403 C402 1.371 . S
C403 C413 1.386 . S
C403 H421 0.931 . S
C404 C402 1.365 . S
C404 C405 1.409 . S
C404 H422 0.929 . S
C405 C404 1.409 . S
C405 C406 1.380 . S
C405 H423 0.930 . S
C406 C405 1.380 . S
C406 C413 1.357 . S
C407 C398 1.511 . S
C407 C408 1.341 . S
C407 C409 1.371 . S
C408 C407 1.341 . S
C408 C412 1.394 . S
C408 H424 0.930 . S
C409 C407 1.371 . S
C409 C410 1.392 . S
C409 H425 0.931 . S
C410 C409 1.392 . S
C410 C411 1.331 . S
C410 H428 0.932 . S
C411 C410 1.331 . S
C411 C412 1.336 . S
C412 C408 1.394 . S
C412 C411 1.336 . S
C412 H427 0.929 . S
C413 C403 1.386 . S
C413 C406 1.357 . S
C413 H426 0.928 . S
H414 C390 0.931 . S
H415 C392 0.930 . S
H416 C394 0.929 . S
H417 C395 0.931 . S
H418 C397 0.930 . S
H419 C401 0.931 . S
H420 C399 0.931 . S
H421 C403 0.931 . S
H422 C404 0.929 . S
H423 C405 0.930 . S
H424 C408 0.930 . S
H425 C409 0.931 . S
H426 C413 0.928 . S
H427 C412 0.929 . S
H428 C410 0.932 . S
C429 C430 1.386 . S
C429 C431 1.397 . S
C429 H453 0.931 . S
C430 C429 1.386 . S
C430 C434 1.397 . S
C431 C429 1.397 . S
C431 C432 1.384 . S
C431 H454 0.930 . S
C432 C431 1.384 . S
C432 C433 1.377 . S
C432 C435 1.481 . S
C433 C432 1.377 . S
C433 C434 1.389 . S
C433 H455 0.929 . S
C434 C430 1.397 . S
C434 C433 1.389 . S
C434 H456 0.931 . S
C435 C432 1.481 . S
C435 C436 1.387 . S
C435 C440 1.390 . S
C436 C435 1.387 . S
C436 C437 1.401 . S
C436 H457 0.930 . S
C437 C436 1.401 . S
C437 C438 1.376 . S
C437 C446 1.511 . S
C438 C437 1.376 . S
C438 C439 1.392 . S
C438 H459 0.931 . S
C439 C438 1.392 . S
C439 C440 1.361 . S
C439 C441 1.500 . S
C440 C435 1.390 . S
C440 C439 1.361 . S
C440 H458 0.931 . S
C441 C439 1.500 . S
C441 C442 1.371 . S
C441 C443 1.365 . S
C442 C441 1.371 . S
C442 C452 1.386 . S
C442 H460 0.931 . S
C443 C441 1.365 . S
C443 C444 1.409 . S
C443 H461 0.929 . S
C444 C443 1.409 . S
C444 C445 1.380 . S
C444 H462 0.930 . S
C445 C444 1.380 . S
C445 C452 1.357 . S
C446 C437 1.511 . S
C446 C447 1.341 . S
C446 C448 1.371 . S
C447 C446 1.341 . S
C447 C451 1.394 . S
C447 H463 0.930 . S
C448 C446 1.371 . S
C448 C449 1.392 . S
C448 H464 0.931 . S
C449 C448 1.392 . S
C449 C450 1.331 . S
C449 H467 0.932 . S
C450 C449 1.331 . S
C450 C451 1.336 . S
C451 C447 1.394 . S
C451 C450 1.336 . S
C451 H466 0.929 . S
C452 C442 1.386 . S
C452 C445 1.357 . S
C452 H465 0.928 . S
H453 C429 0.931 . S
H454 C431 0.930 . S
H455 C433 0.929 . S
H456 C434 0.931 . S
H457 C436 0.930 . S
H458 C440 0.931 . S
H459 C438 0.931 . S
H460 C442 0.931 . S
H461 C443 0.929 . S
H462 C444 0.930 . S
H463 C447 0.930 . S
H464 C448 0.931 . S
H465 C452 0.928 . S
H466 C451 0.929 . S
H467 C449 0.932 . S
C468 C469 1.386 . S
C468 C470 1.397 . S
C468 H492 0.931 . S
C469 C468 1.386 . S
C469 C473 1.397 . S
C470 C468 1.397 . S
C470 C471 1.384 . S
C470 H493 0.930 . S
C471 C470 1.384 . S
C471 C472 1.377 . S
C471 C474 1.481 . S
C472 C471 1.377 . S
C472 C473 1.389 . S
C472 H494 0.929 . S
C473 C469 1.397 . S
C473 C472 1.389 . S
C473 H495 0.931 . S
C474 C471 1.481 . S
C474 C475 1.387 . S
C474 C479 1.390 . S
C475 C474 1.387 . S
C475 C476 1.401 . S
C475 H496 0.930 . S
C476 C475 1.401 . S
C476 C477 1.376 . S
C476 C485 1.511 . S
C477 C476 1.376 . S
C477 C478 1.392 . S
C477 H498 0.931 . S
C478 C477 1.392 . S
C478 C479 1.361 . S
C478 C480 1.500 . S
C479 C474 1.390 . S
C479 C478 1.361 . S
C479 H497 0.931 . S
C480 C478 1.500 . S
C480 C481 1.371 . S
C480 C482 1.365 . S
C481 C480 1.371 . S
C481 C491 1.386 . S
C481 H499 0.931 . S
C482 C480 1.365 . S
C482 C483 1.409 . S
C482 H500 0.929 . S
C483 C482 1.409 . S
C483 C484 1.380 . S
C483 H501 0.930 . S
C484 C483 1.380 . S
C484 C491 1.357 . S
C485 C476 1.511 . S
C485 C486 1.341 . S
C485 C487 1.371 . S
C486 C485 1.341 . S
C486 C490 1.394 . S
C486 H502 0.930 . S
C487 C485 1.371 . S
C487 C488 1.392 . S
C487 H503 0.931 . S
C488 C487 1.392 . S
C488 C489 1.331 . S
C488 H506 0.932 . S
C489 C488 1.331 . S
C489 C490 1.336 . S
C490 C486 1.394 . S
C490 C489 1.336 . S
C490 H505 0.929 . S
C491 C481 1.386 . S
C491 C484 1.357 . S
C491 H504 0.928 . S
H492 C468 0.931 . S
H493 C470 0.930 . S
H494 C472 0.929 . S
H495 C473 0.931 . S
H496 C475 0.930 . S
H497 C479 0.931 . S
H498 C477 0.931 . S
H499 C481 0.931 . S
H500 C482 0.929 . S
H501 C483 0.930 . S
H502 C486 0.930 . S
H503 C487 0.931 . S
H504 C491 0.928 . S
H505 C490 0.929 . S
H506 C488 0.932 . S
C507 C508 1.386 . S
C507 C509 1.397 . S
C507 H531 0.931 . S
C508 C507 1.386 . S
C508 C512 1.397 . S
C509 C507 1.397 . S
C509 C510 1.384 . S
C509 H532 0.930 . S
C510 C509 1.384 . S
C510 C511 1.377 . S
C510 C513 1.481 . S
C511 C510 1.377 . S
C511 C512 1.389 . S
C511 H533 0.929 . S
C512 C508 1.397 . S
C512 C511 1.389 . S
C512 H534 0.931 . S
C513 C510 1.481 . S
C513 C514 1.387 . S
C513 C518 1.390 . S
C514 C513 1.387 . S
C514 C515 1.401 . S
C514 H535 0.930 . S
C515 C514 1.401 . S
C515 C516 1.376 . S
C515 C524 1.511 1_556 S
C516 C515 1.376 . S
C516 C517 1.392 . S
C516 H537 0.931 1_556 S
C517 C516 1.392 . S
C517 C518 1.361 . S
C517 C519 1.500 . S
C518 C513 1.390 . S
C518 C517 1.361 . S
C518 H536 0.931 . S
C519 C517 1.500 . S
C519 C520 1.371 1_556 S
C519 C521 1.365 . S
C520 C519 1.371 1_554 S
C520 C530 1.386 . S
C520 H538 0.931 . S
C521 C519 1.365 . S
C521 C522 1.409 . S
C521 H539 0.929 . S
C522 C521 1.409 . S
C522 C523 1.380 . S
C522 H540 0.930 . S
C523 C522 1.380 . S
C523 C530 1.357 1_556 S
C524 C515 1.511 1_554 S
C524 C525 1.341 . S
C524 C526 1.371 . S
C525 C524 1.341 . S
C525 C529 1.394 . S
C525 H541 0.930 . S
C526 C524 1.371 . S
C526 C527 1.392 . S
C526 H542 0.931 . S
C527 C526 1.392 . S
C527 C528 1.331 . S
C527 H545 0.932 . S
C528 C527 1.331 . S
C528 C529 1.336 . S
C529 C525 1.394 . S
C529 C528 1.336 . S
C529 H544 0.929 . S
C530 C520 1.386 . S
C530 C523 1.357 1_554 S
C530 H543 0.928 . S
H531 C507 0.931 . S
H532 C509 0.930 . S
H533 C511 0.929 . S
H534 C512 0.931 . S
H535 C514 0.930 . S
H536 C518 0.931 . S
H537 C516 0.931 1_554 S
H538 C520 0.931 . S
H539 C521 0.929 . S
H540 C522 0.930 . S
H541 C525 0.930 . S
H542 C526 0.931 . S
H543 C530 0.928 . S
H544 C529 0.929 . S
H545 C527 0.932 . S
C546 C547 1.386 . S
C546 C548 1.397 . S
C546 H570 0.931 . S
C547 C546 1.386 . S
C547 C551 1.397 . S
C548 C546 1.397 . S
C548 C549 1.384 . S
C548 H571 0.930 . S
C549 C548 1.384 . S
C549 C550 1.377 . S
C549 C552 1.481 . S
C550 C549 1.377 . S
C550 C551 1.389 . S
C550 H572 0.929 . S
C551 C547 1.397 . S
C551 C550 1.389 . S
C551 H573 0.931 . S
C552 C549 1.481 . S
C552 C553 1.387 . S
C552 C557 1.390 . S
C553 C552 1.387 . S
C553 C554 1.401 . S
C553 H574 0.930 . S
C554 C553 1.401 . S
C554 C555 1.376 . S
C554 C563 1.511 . S
C555 C554 1.376 . S
C555 C556 1.392 . S
C555 H576 0.931 . S
C556 C555 1.392 . S
C556 C557 1.361 . S
C556 C558 1.500 . S
C557 C552 1.390 . S
C557 C556 1.361 . S
C557 H575 0.931 . S
C558 C556 1.500 . S
C558 C559 1.371 . S
C558 C560 1.365 . S
C559 C558 1.371 . S
C559 C569 1.386 . S
C559 H577 0.931 . S
C560 C558 1.365 . S
C560 C561 1.409 . S
C560 H578 0.929 . S
C561 C560 1.409 . S
C561 C562 1.380 . S
C561 H579 0.930 . S
C562 C561 1.380 . S
C562 C569 1.357 . S
C563 C554 1.511 . S
C563 C564 1.341 . S
C563 C565 1.371 . S
C564 C563 1.341 . S
C564 C568 1.394 . S
C564 H580 0.930 . S
C565 C563 1.371 . S
C565 C566 1.392 . S
C565 H581 0.931 . S
C566 C565 1.392 . S
C566 C567 1.331 . S
C566 H584 0.932 . S
C567 C566 1.331 . S
C567 C568 1.336 . S
C568 C564 1.394 . S
C568 C567 1.336 . S
C568 H583 0.929 . S
C569 C559 1.386 . S
C569 C562 1.357 . S
C569 H582 0.928 . S
H570 C546 0.931 . S
H571 C548 0.930 . S
H572 C550 0.929 . S
H573 C551 0.931 . S
H574 C553 0.930 . S
H575 C557 0.931 . S
H576 C555 0.931 . S
H577 C559 0.931 . S
H578 C560 0.929 . S
H579 C561 0.930 . S
H580 C564 0.930 . S
H581 C565 0.931 . S
H582 C569 0.928 . S
H583 C568 0.929 . S
H584 C566 0.932 . S
C585 C586 1.386 . S
C585 C587 1.397 . S
C585 H609 0.931 . S
C586 C585 1.386 . S
C586 C590 1.397 . S
C587 C585 1.397 . S
C587 C588 1.384 . S
C587 H610 0.930 1_554 S
C588 C587 1.384 . S
C588 C589 1.377 . S
C588 C591 1.481 1_554 S
C589 C588 1.377 . S
C589 C590 1.389 . S
C589 H611 0.929 . S
C590 C586 1.397 . S
C590 C589 1.389 . S
C590 H612 0.931 . S
C591 C588 1.481 1_556 S
C591 C592 1.387 . S
C591 C596 1.387 1_556 S
C592 C591 1.387 . S
C592 C593 1.401 . S
C592 H613 0.930 . S
C593 C592 1.401 . S
C593 C594 1.376 . S
C593 C602 1.511 . S
C594 C593 1.376 . S
C594 C595 1.392 . S
C594 H615 0.931 1_545 S
C595 C594 1.392 . S
C595 C596 1.349 1_556 S
C595 C597 1.500 1_545 S
C596 C591 1.387 1_554 S
C596 C595 1.349 1_554 S
C596 H614 0.947 . S
C597 C595 1.500 1_565 S
C597 C598 1.371 . S
C597 C599 1.365 1_556 S
C598 C597 1.371 . S
C598 C608 1.386 . S
C598 H616 0.931 . S
C599 C597 1.365 1_554 S
C599 C600 1.409 . S
C599 H617 0.929 . S
C600 C599 1.409 . S
C600 C601 1.380 1_554 S
C600 H618 0.930 . S
C601 C600 1.380 1_556 S
C601 C608 1.357 . S
C602 C593 1.511 . S
C602 C603 1.341 . S
C602 C604 1.371 1_545 S
C603 C602 1.341 . S
C603 C607 1.394 . S
C603 H619 0.930 . S
C604 C602 1.371 1_565 S
C604 C605 1.392 . S
C604 H620 0.931 . S
C605 C604 1.392 . S
C605 C606 1.331 1_565 S
C605 H623 0.932 . S
C606 C605 1.331 1_545 S
C606 C607 1.336 . S
C607 C603 1.394 . S
C607 C606 1.336 . S
C607 H622 0.929 . S
C608 C598 1.386 . S
C608 C601 1.357 . S
C608 H621 0.928 . S
H609 C585 0.931 . S
H610 C587 0.930 1_556 S
H611 C589 0.929 . S
H612 C590 0.931 . S
H613 C592 0.930 . S
H614 C596 0.947 . S
H615 C594 0.931 1_565 S
H616 C598 0.931 . S
H617 C599 0.929 . S
H618 C600 0.930 . S
H619 C603 0.930 . S
H620 C604 0.931 . S
H621 C608 0.928 . S
H622 C607 0.929 . S
H623 C605 0.932 . S
Mg624 O625 2.028 . S
Mg624 O631 1.986 1_554 S
Mg624 O633 2.114 . S
Mg624 O634 2.251 . S
Mg624 O637 2.010 . S
O625 Mg624 2.028 . S
O625 C628 1.250 1_554 S
O626 Mg627 2.028 . S
O626 C628 1.248 . S
Mg627 O626 2.028 . S
Mg627 O632 2.032 . S
Mg627 O634 2.079 1_556 S
C628 O625 1.250 1_556 S
C628 O626 1.248 . S
C629 O630 1.264 . S
C629 O637 1.249 . S
O630 C629 1.264 . S
O631 Mg624 1.986 1_556 S
O631 C635 1.246 . S
O632 Mg627 2.032 . S
O632 C635 1.259 . S
O633 Mg624 2.114 . S
O633 C636 1.252 . S
O634 Mg624 2.251 . S
O634 Mg627 2.079 1_554 S
O634 C636 1.273 . S
C635 O631 1.246 . S
C635 O632 1.259 . S
C636 O633 1.252 . S
C636 O634 1.273 . S
O637 Mg624 2.010 . S
O637 C629 1.249 . S
Mg638 O639 2.028 . S
Mg638 O645 1.986 . S
Mg638 O647 2.114 . S
Mg638 O648 2.251 . S
Mg638 O651 2.010 . S
O639 Mg638 2.028 . S
O639 C642 1.250 . S
O640 Mg641 2.028 . S
O640 C642 1.248 . S
Mg641 O640 2.028 . S
Mg641 O646 2.032 . S
Mg641 O648 2.079 . S
C642 O639 1.250 . S
C642 O640 1.248 . S
C643 O644 1.264 . S
C643 O651 1.249 . S
O644 C643 1.264 . S
O645 Mg638 1.986 . S
O645 C649 1.246 . S
O646 Mg641 2.032 . S
O646 C649 1.259 . S
O647 Mg638 2.114 . S
O647 C650 1.252 . S
O648 Mg638 2.251 . S
O648 Mg641 2.079 . S
O648 C650 1.273 . S
C649 O645 1.246 . S
C649 O646 1.259 . S
C650 O647 1.252 . S
C650 O648 1.273 . S
O651 Mg638 2.010 . S
O651 C643 1.249 . S
Mg652 O653 2.028 . S
Mg652 O659 1.986 1_554 S
Mg652 O661 2.114 . S
Mg652 O662 2.251 . S
Mg652 O665 2.010 . S
O653 Mg652 2.028 . S
O653 C656 1.250 . S
O654 Mg655 2.028 . S
O654 C656 1.248 1_556 S
Mg655 O654 2.028 . S
Mg655 O660 2.032 . S
Mg655 O662 2.079 1_556 S
C656 O653 1.250 . S
C656 O654 1.248 1_554 S
C657 O658 1.264 . S
C657 O665 1.249 . S
O658 C657 1.264 . S
O659 Mg652 1.986 1_556 S
O659 C663 1.246 . S
O660 Mg655 2.032 . S
O660 C663 1.259 . S
O661 Mg652 2.114 . S
O661 C664 1.252 . S
O662 Mg652 2.251 . S
O662 Mg655 2.079 1_554 S
O662 C664 1.273 . S
C663 O659 1.246 . S
C663 O660 1.259 . S
C664 O661 1.252 . S
C664 O662 1.273 . S
O665 Mg652 2.010 . S
O665 C657 1.249 . S
Mg666 O667 2.028 1_545 S
Mg666 O673 1.986 . S
Mg666 O675 2.114 . S
Mg666 O676 2.251 . S
Mg666 O679 2.010 . S
O667 Mg666 2.028 1_565 S
O667 C670 1.250 . S
O668 Mg669 2.028 . S
O668 C670 1.248 . S
Mg669 O668 2.028 . S
Mg669 O674 2.032 . S
Mg669 O676 2.079 1_565 S
C670 O667 1.250 . S
C670 O668 1.248 . S
C671 O672 1.264 . S
C671 O679 1.249 . S
O672 C671 1.264 . S
O673 Mg666 1.986 . S
O673 C677 1.246 1_545 S
O674 Mg669 2.032 . S
O674 C677 1.259 . S
O675 Mg666 2.114 . S
O675 C678 1.252 . S
O676 Mg666 2.251 . S
O676 Mg669 2.079 1_545 S
O676 C678 1.273 . S
C677 O673 1.246 1_565 S
C677 O674 1.259 . S
C678 O675 1.252 . S
C678 O676 1.273 . S
O679 Mg666 2.010 . S
O679 C671 1.249 . S
Mg680 O681 2.028 . S
Mg680 O687 1.986 . S
Mg680 O689 2.114 . S
Mg680 O690 2.251 . S
Mg680 O693 2.010 . S
O681 Mg680 2.028 . S
O681 C684 1.250 . S
O682 Mg683 2.028 . S
O682 C684 1.248 . S
Mg683 O682 2.028 . S
Mg683 O688 2.032 . S
Mg683 O690 2.079 . S
C684 O681 1.250 . S
C684 O682 1.248 . S
C685 O686 1.264 . S
C685 O693 1.249 . S
O686 C685 1.264 . S
O687 Mg680 1.986 . S
O687 C691 1.246 . S
O688 Mg683 2.032 . S
O688 C691 1.259 . S
O689 Mg680 2.114 . S
O689 C692 1.252 . S
O690 Mg680 2.251 . S
O690 Mg683 2.079 . S
O690 C692 1.273 . S
C691 O687 1.246 . S
C691 O688 1.259 . S
C692 O689 1.252 . S
C692 O690 1.273 . S
O693 Mg680 2.010 . S
O693 C685 1.249 . S
Mg694 O695 2.028 . S
Mg694 O701 1.986 . S
Mg694 O703 2.114 . S
Mg694 O704 2.251 . S
Mg694 O707 2.010 . S
O695 Mg694 2.028 . S
O695 C698 1.250 . S
O696 Mg697 2.028 . S
O696 C698 1.248 . S
Mg697 O696 2.028 . S
Mg697 O702 2.032 . S
Mg697 O704 2.079 . S
C698 O695 1.250 . S
C698 O696 1.248 . S
C699 O700 1.264 . S
C699 O707 1.249 . S
O700 C699 1.264 . S
O701 Mg694 1.986 . S
O701 C705 1.246 . S
O702 Mg697 2.032 . S
O702 C705 1.259 . S
O703 Mg694 2.114 . S
O703 C706 1.252 . S
O704 Mg694 2.251 . S
O704 Mg697 2.079 . S
O704 C706 1.273 . S
C705 O701 1.246 . S
C705 O702 1.259 . S
C706 O703 1.252 . S
C706 O704 1.273 . S
O707 Mg694 2.010 . S
O707 C699 1.249 . S
Mg708 O709 2.028 . S
Mg708 O715 1.986 . S
Mg708 O717 2.114 . S
Mg708 O718 2.251 . S
Mg708 O721 2.010 . S
O709 Mg708 2.028 . S
O709 C712 1.250 . S
O710 Mg711 2.028 . S
O710 C712 1.248 . S
Mg711 O710 2.028 . S
Mg711 O716 2.032 . S
Mg711 O718 2.079 . S
C712 O709 1.250 . S
C712 O710 1.248 . S
C713 O714 1.264 . S
C713 O721 1.249 . S
O714 C713 1.264 . S
O715 Mg708 1.986 . S
O715 C719 1.246 . S
O716 Mg711 2.032 . S
O716 C719 1.259 . S
O717 Mg708 2.114 . S
O717 C720 1.252 . S
O718 Mg708 2.251 . S
O718 Mg711 2.079 . S
O718 C720 1.273 . S
C719 O715 1.246 . S
C719 O716 1.259 . S
C720 O717 1.252 . S
C720 O718 1.273 . S
O721 Mg708 2.010 . S
O721 C713 1.249 . S
Mg722 O723 2.028 1_545 S
Mg722 O729 1.986 1_545 S
Mg722 O731 2.114 . S
Mg722 O732 2.251 . S
Mg722 O735 2.010 . S
O723 Mg722 2.028 1_565 S
O723 C726 1.250 . S
O724 Mg725 2.028 . S
O724 C726 1.248 . S
Mg725 O724 2.028 . S
Mg725 O730 2.032 . S
Mg725 O732 2.079 1_565 S
C726 O723 1.250 . S
C726 O724 1.248 . S
C727 O728 1.264 . S
C727 O735 1.249 . S
O728 C727 1.264 . S
O729 Mg722 1.986 1_565 S
O729 C733 1.246 . S
O730 Mg725 2.032 . S
O730 C733 1.259 . S
O731 Mg722 2.114 . S
O731 C734 1.252 . S
O732 Mg722 2.251 . S
O732 Mg725 2.079 1_545 S
O732 C734 1.273 . S
C733 O729 1.246 . S
C733 O730 1.259 . S
C734 O731 1.252 . S
C734 O732 1.273 . S
O735 Mg722 2.010 . S
O735 C727 1.249 . S
Mg736 O737 2.028 1_455 S
Mg736 O743 1.986 . S
Mg736 O745 2.114 . S
Mg736 O746 2.238 1_455 S
Mg736 O749 2.010 . S
O737 Mg736 2.028 1_655 S
O737 C740 1.250 . S
O738 Mg739 2.028 . S
O738 C740 1.248 . S
Mg739 O738 2.028 . S
Mg739 O744 2.032 . S
Mg739 O746 2.103 . S
C740 O737 1.250 . S
C740 O738 1.248 . S
C741 O742 1.264 . S
C741 O749 1.249 . S
O742 C741 1.264 . S
O743 Mg736 1.986 . S
O743 C747 1.246 1_455 S
O744 Mg739 2.032 . S
O744 C747 1.259 . S
O745 Mg736 2.114 . S
O745 C748 1.252 . S
O746 Mg736 2.238 1_655 S
O746 Mg739 2.103 . S
O746 C748 1.257 1_655 S
C747 O743 1.246 1_655 S
C747 O744 1.259 . S
C748 O745 1.252 . S
C748 O746 1.257 1_455 S
O749 Mg736 2.010 . S
O749 C741 1.249 . S
Mg750 O751 2.028 . S
Mg750 O757 1.986 . S
Mg750 O759 2.114 . S
Mg750 O760 2.251 . S
Mg750 O763 2.010 . S
O751 Mg750 2.028 . S
O751 C754 1.250 . S
O752 Mg753 2.028 . S
O752 C754 1.248 . S
Mg753 O752 2.028 . S
Mg753 O758 2.032 . S
Mg753 O760 2.079 . S
C754 O751 1.250 . S
C754 O752 1.248 . S
C755 O756 1.264 . S
C755 O763 1.249 . S
O756 C755 1.264 . S
O757 Mg750 1.986 . S
O757 C761 1.246 . S
O758 Mg753 2.032 . S
O758 C761 1.259 . S
O759 Mg750 2.114 . S
O759 C762 1.252 . S
O760 Mg750 2.251 . S
O760 Mg753 2.079 . S
O760 C762 1.273 . S
C761 O757 1.246 . S
C761 O758 1.259 . S
C762 O759 1.252 . S
C762 O760 1.273 . S
O763 Mg750 2.010 . S
O763 C755 1.249 . S
Mg764 O765 2.028 1_655 S
Mg764 O771 1.988 . S
Mg764 O773 2.114 . S
Mg764 O774 2.251 1_655 S
Mg764 O777 2.010 . S
O765 Mg764 2.028 1_455 S
O765 C768 1.250 . S
O766 Mg767 2.028 . S
O766 C768 1.248 . S
Mg767 O766 2.028 . S
Mg767 O772 2.032 . S
Mg767 O774 2.079 . S
C768 O765 1.250 . S
C768 O766 1.248 . S
C769 O770 1.264 . S
C769 O777 1.249 . S
O770 C769 1.264 . S
O771 Mg764 1.988 . S
O771 C775 1.239 1_655 S
O772 Mg767 2.032 . S
O772 C775 1.259 . S
O773 Mg764 2.114 . S
O773 C776 1.252 . S
O774 Mg764 2.251 1_455 S
O774 Mg767 2.079 . S
O774 C776 1.273 1_455 S
C775 O771 1.239 1_455 S
C775 O772 1.259 . S
C776 O773 1.252 . S
C776 O774 1.273 1_655 S
O777 Mg764 2.010 . S
O777 C769 1.249 . S
Mg778 O779 2.028 . S
Mg778 O785 1.986 . S
Mg778 O787 2.114 . S
Mg778 O788 2.251 . S
Mg778 O791 2.010 . S
O779 Mg778 2.028 . S
O779 C782 1.250 . S
O780 Mg781 2.028 . S
O780 C782 1.248 . S
Mg781 O780 2.028 . S
Mg781 O786 2.032 . S
Mg781 O788 2.079 . S
C782 O779 1.250 . S
C782 O780 1.248 . S
C783 O784 1.264 . S
C783 O791 1.249 . S
O784 C783 1.264 . S
O785 Mg778 1.986 . S
O785 C789 1.246 . S
O786 Mg781 2.032 . S
O786 C789 1.259 . S
O787 Mg778 2.114 . S
O787 C790 1.252 . S
O788 Mg778 2.251 . S
O788 Mg781 2.079 . S
O788 C790 1.273 . S
C789 O785 1.246 . S
C789 O786 1.259 . S
C790 O787 1.252 . S
C790 O788 1.273 . S
O791 Mg778 2.010 . S
O791 C783 1.249 . S
C635 C211 1.452 . S
C643 C255 1.250 . S
C274 C663 1.425 . S
C677 C157 1.537 1_565 S
C692 C391 1.543 . S
C706 C484 1.584 . S
C450 C720 1.595 . S
C726 C352 1.409 . S
C430 C740 1.523 . S
C761 C367 1.571 . S
C411 C741 1.284 . S
C762 C469 1.609 . S
C294 C769 1.080 . S
C177 C775 1.543 . S
C196 C768 1.439 . S
C235 C776 1.501 . S
C133 C670 1.446 . S
C567 C671 1.230 . S
C628 C601 1.497 . S
C649 C328 1.461 . S
C172 C684 1.449 . S
C734 C445 1.543 . S
C685 C372 1.229 . S
C713 C489 1.192 . S
C719 C562 1.452 . S
C606 C727 1.250 . S
C313 C691 1.425 . S
C705 C508 1.537 . S
C118 C664 1.542 . S
C678 C16 1.583 . S
C636 C60 1.595 . S
C642 C79 1.409 . S
C40 C754 1.522 . S
C94 C747 1.571 1_455 S
C138 C755 1.284 . S
C1 C748 1.609 . S
C783 C333 1.080 . S
C789 C528 1.543 . S
C782 C547 1.439 . S
C586 C790 1.501 . S
C406 C698 1.446 . S
C699 C216 1.230 . S
C712 C250 1.498 . S
C733 C289 1.461 . S
C523 C656 1.449 1_556 S
C650 C55 1.543 . S
C99 C657 1.229 . S
C629 C21 1.192 . S
