# Generated by pormake.
# Topology zzz, (3,6)-cn, num edge types: 1
# Building blocks:
#     Node 0, Type 0, BuildingBlock: ESEHIV_clean_linker_0, # of connection points: 3
#     Node 1, Type 0, BuildingBlock: ESEHIV_clean_linker_0, # of connection points: 3
#     Node 2, Type 0, BuildingBlock: ESEHIV_clean_linker_0, # of connection points: 3
#     Node 3, Type 0, BuildingBlock: ESEHIV_clean_linker_0, # of connection points: 3
#     Node 4, Type 0, BuildingBlock: ESEHIV_clean_linker_0, # of connection points: 3
#     Node 5, Type 0, BuildingBlock: ESEHIV_clean_linker_0, # of connection points: 3
#     Node 6, Type 0, BuildingBlock: ESEHIV_clean_linker_0, # of connection points: 3
#     Node 7, Type 0, BuildingBlock: ESEHIV_clean_linker_0, # of connection points: 3
#     Node 8, Type 1, BuildingBlock: BETFEN_clean_sbu_0, # of connection points: 6
#     Node 9, Type 1, BuildingBlock: BETFEN_clean_sbu_0, # of connection points: 6
#     Node 10, Type 1, BuildingBlock: BETFEN_clean_sbu_0, # of connection points: 6
#     Node 11, Type 1, BuildingBlock: BETFEN_clean_sbu_0, # of connection points: 6
#     Edge 12, Type (0, 1), BuildingBlock: ZUJKAS_clean_linker_0, # of connection points: 2
#     Edge 13, Type (0, 1), BuildingBlock: ZUJKAS_clean_linker_0, # of connection points: 2
#     Edge 14, Type (0, 1), BuildingBlock: ZUJKAS_clean_linker_0, # of connection points: 2
#     Edge 15, Type (0, 1), BuildingBlock: ZUJKAS_clean_linker_0, # of connection points: 2
#     Edge 16, Type (0, 1), BuildingBlock: ZUJKAS_clean_linker_0, # of connection points: 2
#     Edge 17, Type (0, 1), BuildingBlock: ZUJKAS_clean_linker_0, # of connection points: 2
#     Edge 18, Type (0, 1), BuildingBlock: ZUJKAS_clean_linker_0, # of connection points: 2
#     Edge 19, Type (0, 1), BuildingBlock: ZUJKAS_clean_linker_0, # of connection points: 2
#     Edge 20, Type (0, 1), BuildingBlock: ZUJKAS_clean_linker_0, # of connection points: 2
#     Edge 21, Type (0, 1), BuildingBlock: ZUJKAS_clean_linker_0, # of connection points: 2
#     Edge 22, Type (0, 1), BuildingBlock: ZUJKAS_clean_linker_0, # of connection points: 2
#     Edge 23, Type (0, 1), BuildingBlock: ZUJKAS_clean_linker_0, # of connection points: 2
#     Edge 24, Type (0, 1), BuildingBlock: ZUJKAS_clean_linker_0, # of connection points: 2
#     Edge 25, Type (0, 1), BuildingBlock: ZUJKAS_clean_linker_0, # of connection points: 2
#     Edge 26, Type (0, 1), BuildingBlock: ZUJKAS_clean_linker_0, # of connection points: 2
#     Edge 27, Type (0, 1), BuildingBlock: ZUJKAS_clean_linker_0, # of connection points: 2
#     Edge 28, Type (0, 1), BuildingBlock: ZUJKAS_clean_linker_0, # of connection points: 2
#     Edge 29, Type (0, 1), BuildingBlock: ZUJKAS_clean_linker_0, # of connection points: 2
#     Edge 30, Type (0, 1), BuildingBlock: ZUJKAS_clean_linker_0, # of connection points: 2
#     Edge 31, Type (0, 1), BuildingBlock: ZUJKAS_clean_linker_0, # of connection points: 2
#     Edge 32, Type (0, 1), BuildingBlock: ZUJKAS_clean_linker_0, # of connection points: 2
#     Edge 33, Type (0, 1), BuildingBlock: ZUJKAS_clean_linker_0, # of connection points: 2
#     Edge 34, Type (0, 1), BuildingBlock: ZUJKAS_clean_linker_0, # of connection points: 2
#     Edge 35, Type (0, 1), BuildingBlock: ZUJKAS_clean_linker_0, # of connection points: 2
# Relax obj value: 0.449
# Max RMSD: 0.269
# Mean RMSD: 0.253
data_MOF--net-zzz--node1-BETFEN_clean_sbu_0--node2-ESEHIV_clean_linker_0--edge1-ZUJKAS_clean_linker_0
_symmetry_space_group_name_H-M    P1
_symmetry_Int_Tables_number       1
_symmetry_cell_setting            triclinic
loop_
_symmetry_equiv_pos_as_xyz
'x, y, z'
_cell_length_a     60.810617
_cell_length_b     60.799202
_cell_length_c     18.677352
_cell_angle_alpha  89.984419
_cell_angle_beta   89.969759
_cell_angle_gamma 89.997344
loop_
_atom_site_label
_atom_site_type_symbol
_atom_site_fract_x
_atom_site_fract_y
_atom_site_fract_z
_atom_type_partial_charge
H0 H 0.77706 0.45894 0.32565 0.0
H1 H 0.71696 0.44786 0.20999 0.0
H2 H 0.72582 0.50735 0.33271 0.0
C3 C 0.76043 0.46374 0.31167 0.0
C4 C 0.75259 0.48391 0.33706 0.0
C5 C 0.74791 0.45059 0.26537 0.0
C6 C 0.72678 0.45776 0.24612 0.0
C7 C 0.71862 0.47821 0.26965 0.0
C8 C 0.73172 0.49143 0.3151 0.0
H9 H 0.05581 0.77654 0.28455 0.0
H10 H 0.05337 0.7146 0.17496 0.0
H11 H 1.00693 0.72867 0.34339 0.0
C12 C 0.04897 0.76017 0.27906 0.0
C13 C 0.03131 0.75404 0.32324 0.0
C14 C 0.0571 0.7462 0.22548 0.0
C15 C 0.04727 0.7256 0.21615 0.0
C16 C 0.02913 0.7192 0.25776 0.0
C17 C 0.02096 0.73352 0.31128 0.0
H18 H 0.73585 0.05999 0.2865 0.0
H19 H 0.7919 0.06184 0.14861 0.0
H20 H 0.78614 0.01049 0.30797 0.0
C21 C 0.7518 0.05341 0.27149 0.0
C22 C 0.7596 0.03429 0.30478 0.0
C23 C 0.76332 0.06319 0.21531 0.0
C24 C 0.78343 0.05438 0.1936 0.0
C25 C 0.79235 0.03575 0.22785 0.0
C26 C 0.77994 0.02524 0.28246 0.0
H27 H 0.4624 0.73783 0.31163 0.0
H28 H 0.51041 0.78938 0.31568 0.0
H29 H 0.44992 0.79819 0.19852 0.0
C30 C 0.46691 0.75452 0.29756 0.0
C31 C 0.45327 0.76706 0.25268 0.0
C32 C 0.48717 0.76247 0.32164 0.0
C33 C 0.4944 0.78341 0.29929 0.0
C34 C 0.48079 0.79648 0.25495 0.0
C35 C 0.46016 0.78829 0.23333 0.0
H36 H 0.22989 0.54926 0.13317 0.0
H37 H 0.28744 0.55628 0.26263 0.0
H38 H 0.28811 0.51236 0.08032 0.0
C39 C 0.24696 0.54513 0.14356 0.0
C40 C 0.25774 0.5301 0.09903 0.0
C41 C 0.2576 0.55451 0.20227 0.0
C42 C 0.27957 0.54931 0.21575 0.0
C43 C 0.29095 0.53414 0.17231 0.0
C44 C 0.27977 0.52424 0.11394 0.0
H45 H 0.9525 0.23934 0.12834 0.0
H46 H 0.9548 0.29867 0.24969 0.0
H47 H 1.00132 0.28855 0.07763 0.0
C48 C 0.95958 0.25555 0.13614 0.0
C49 C 0.97756 0.26232 0.0943 0.0
C50 C 0.95145 0.2686 0.19151 0.0
C51 C 0.96094 0.289 0.20515 0.0
C52 C 0.97863 0.29674 0.1636 0.0
C53 C 0.98739 0.28302 0.10899 0.0
H54 H 0.27586 0.95596 0.04706 0.0
H55 H 0.2278 0.95082 0.21426 0.0
H56 H 0.22568 1.00528 0.06613 0.0
C57 C 0.2612 0.96205 0.07358 0.0
C58 C 0.25201 0.98188 0.05025 0.0
C59 C 0.25321 0.95116 0.13426 0.0
C60 C 0.23387 0.95891 0.1665 0.0
C61 C 0.22308 0.97791 0.14087 0.0
C62 C 0.23287 0.98996 0.08414 0.0
H63 H 0.56072 0.2809 0.12132 0.0
H64 H 0.51495 0.22918 0.06797 0.0
H65 H 0.55967 0.22232 0.24676 0.0
C66 C 0.5542 0.26449 0.12981 0.0
C67 C 0.56224 0.25217 0.18697 0.0
C68 C 0.53719 0.25655 0.08607 0.0
C69 C 0.52814 0.23554 0.10094 0.0
C70 C 0.53676 0.22262 0.15773 0.0
C71 C 0.55358 0.23142 0.20092 0.0
Pr72 Pr 0.024 0.99991 0.77984 0.0
Pr73 Pr 0.99912 0.01773 0.63181 0.0
C74 C 0.03567 0.98323 0.90687 0.0
C75 C 0.05249 0.96701 0.92672 0.0
C76 C 0.071 0.96385 0.88288 0.0
C77 C 0.08512 0.94611 0.89473 0.0
C78 C 0.08091 0.93119 0.95049 0.0
C79 C 0.06298 0.9351 0.99654 0.0
C80 C 0.04885 0.95286 0.98459 0.0
C81 C 0.05389 1.00478 0.66427 0.0
C82 C 0.00846 0.96398 0.65416 0.0
C83 C 0.98819 0.03514 0.50548 0.0
C84 C 0.9719 0.0521 0.48659 0.0
C85 C 0.95016 0.05097 0.51236 0.0
C86 C 0.93594 0.06886 0.50425 0.0
C87 C 0.94338 0.08822 0.47141 0.0
C88 C 0.96479 0.08897 0.44308 0.0
C89 C 0.97889 0.07103 0.45037 0.0
C90 C 0.96897 0.01241 0.74593 0.0
C91 C 0.01336 0.0536 0.75923 0.0
O92 O 0.01924 0.97536 0.86925 0.0
O93 O 0.04298 1.00223 0.88339 0.0
O94 O 0.03365 0.00872 0.66557 0.0
O95 O 0.05973 0.99814 0.72745 0.0
O96 O 1.00598 0.98033 0.60773 0.0
O97 O 0.01224 0.96731 0.72332 0.0
O98 O 1.00498 0.04223 0.54307 0.0
O99 O 0.98045 0.01613 0.52751 0.0
O100 O 0.98931 0.00882 0.74602 0.0
O101 O 0.96328 0.01907 0.68254 0.0
O102 O 0.01635 0.03715 0.80495 0.0
O103 O 0.00979 0.05042 0.68993 0.0
H104 H 0.07407 0.97454 0.83767 0.0
H105 H 0.09887 0.94364 0.85875 0.0
H106 H 0.05906 0.92372 0.0393 0.0
H107 H 0.03454 0.95493 0.0185 0.0
H108 H 0.94438 0.03665 0.54126 0.0
H109 H 0.9195 0.06794 0.52644 0.0
H110 H 0.97076 0.10366 0.41653 0.0
H111 H 0.99558 0.07228 0.43038 0.0
Pr112 Pr 0.5134 0.018 0.75262 0.0
Pr113 Pr 0.49709 0.99106 0.60616 0.0
C114 C 0.52746 0.02954 0.88327 0.0
C115 C 0.54303 0.04585 0.91068 0.0
C116 C 0.54416 0.05009 0.98419 0.0
C117 C 0.55972 0.06489 0.01074 0.0
C118 C 0.5744 0.07561 0.964 0.0
C119 C 0.57259 0.07188 0.88994 0.0
C120 C 0.557 0.05712 0.86349 0.0
C121 C 0.50901 0.04666 0.63458 0.0
C122 C 0.55064 1.0027 0.63013 0.0
C123 C 0.48123 0.9786 0.47891 0.0
C124 C 0.46433 0.96255 0.45811 0.0
C125 C 0.46136 0.94304 0.49748 0.0
C126 C 0.44327 0.92946 0.48411 0.0
C127 C 0.42775 0.93538 0.43197 0.0
C128 C 0.4313 0.95442 0.3907 0.0
C129 C 0.44945 0.96788 0.40367 0.0
C130 C 0.50181 0.96264 0.72509 0.0
C131 C 0.45969 0.0074 0.72676 0.0
O132 O 0.53612 0.01324 0.84675 0.0
O133 O 0.50952 0.03757 0.8545 0.0
O134 O 0.50533 0.02631 0.63667 0.0
O135 O 0.5153 0.05312 0.69767 0.0
O136 O 0.53458 0.99811 0.5843 0.0
O137 O 0.5469 0.00796 0.69812 0.0
O138 O 0.47383 0.99591 0.51332 0.0
O139 O 0.49952 0.97059 0.50567 0.0
O140 O 0.50507 0.983 0.72204 0.0
O141 O 0.49605 0.95584 0.66192 0.0
O142 O 0.47564 0.01227 0.77253 0.0
O143 O 0.46356 1.00119 0.65982 0.0
H144 H 0.53329 0.04167 0.02113 0.0
H145 H 0.56056 0.06763 0.06798 0.0
H146 H 0.58382 0.07964 0.85266 0.0
H147 H 0.55619 0.05408 0.80637 0.0
H148 H 0.47252 0.93872 0.5404 0.0
H149 H 0.44083 0.91495 0.51686 0.0
H150 H 0.41967 0.9592 0.34959 0.0
H151 H 0.45141 0.98289 0.37304 0.0
Pr152 Pr 0.49514 0.5179 0.77798 0.0
Pr153 Pr 0.5218 0.50181 0.63051 0.0
C154 C 0.48224 0.53268 0.90619 0.0
C155 C 0.46594 0.54935 0.92699 0.0
C156 C 0.45322 0.54662 0.98896 0.0
C157 C 0.43738 0.56234 0.00758 0.0
C158 C 0.43406 0.58107 0.96447 0.0
C159 C 0.44667 0.58342 0.9017 0.0
C160 C 0.46229 0.56767 0.88292 0.0
C161 C 0.46649 0.51367 0.65948 0.0
C162 C 0.51098 0.55539 0.65718 0.0
C163 C 0.53428 0.48754 0.50112 0.0
C164 C 0.55112 0.47184 0.47806 0.0
C165 C 0.55772 0.47095 0.40634 0.0
C166 C 0.57308 0.45525 0.38423 0.0
C167 C 0.58197 0.44016 0.43364 0.0
C168 C 0.5759 0.44179 0.50611 0.0
C169 C 0.56065 0.45754 0.52812 0.0
C170 C 0.55049 0.50593 0.74882 0.0
C171 C 0.50619 0.46447 0.75114 0.0
O172 O 0.49991 0.54006 0.87347 0.0
O173 O 0.47413 0.51476 0.87739 0.0
O174 O 0.48682 0.51014 0.66188 0.0
O175 O 0.45995 0.51961 0.72276 0.0
O176 O 0.51523 0.53942 0.61073 0.0
O177 O 0.50558 0.5515 0.72493 0.0
O178 O 0.51763 0.47903 0.53628 0.0
O179 O 0.54177 0.5058 0.52936 0.0
O180 O 0.53015 0.50946 0.74662 0.0
O181 O 0.55703 0.50009 0.68541 0.0
O182 O 0.50259 0.48039 0.79836 0.0
O183 O 0.51066 0.46836 0.68273 0.0
H184 H 0.45556 0.53237 0.02294 0.0
H185 H 0.42783 0.55987 0.05588 0.0
H186 H 0.44502 0.59779 0.86787 0.0
H187 H 0.47168 0.56996 0.83416 0.0
H188 H 0.55071 0.48212 0.3673 0.0
H189 H 0.57763 0.45458 0.32821 0.0
H190 H 0.58213 0.43027 0.54538 0.0
H191 H 0.55585 0.45819 0.58398 0.0
Pr192 Pr 0.99823 0.49213 0.78548 0.0
Pr193 Pr 0.01367 0.52097 0.64203 0.0
C194 C 0.9841 0.47784 0.91319 0.0
C195 C 0.96777 0.46134 0.93489 0.0
C196 C 0.96935 0.45091 1.00158 0.0
C197 C 0.95337 0.43565 0.02274 0.0
C198 C 0.93552 0.43069 0.97747 0.0
C199 C 0.93452 0.44073 0.90963 0.0
C200 C 0.95054 0.45579 0.88845 0.0
C201 C 1.00317 0.46498 0.66345 0.0
C202 C 0.96036 0.50852 0.66737 0.0
C203 C 0.02742 0.53518 0.51388 0.0
C204 C 0.04191 0.55311 0.49019 0.0
C205 C 0.04255 0.57323 0.5272 0.0
C206 C 0.05828 0.58911 0.50972 0.0
C207 C 0.07378 0.58505 0.45543 0.0
C208 C 0.07248 0.56516 0.41689 0.0
C209 C 0.05666 0.54939 0.43405 0.0
C210 C 0.00866 0.54827 0.76339 0.0
C211 C 0.05152 0.50461 0.76028 0.0
O212 O 0.9762 0.49551 0.88193 0.0
O213 O 1.00184 0.47008 0.8823 0.0
O214 O 1.00627 0.48536 0.66836 0.0
O215 O 0.99715 0.45762 0.72572 0.0
O216 O 0.9762 0.51376 0.62155 0.0
O217 O 0.96439 0.50231 0.73423 0.0
O218 O 0.03716 0.5191 0.54842 0.0
O219 O 0.00851 0.54102 0.54185 0.0
O220 O 1.00566 0.52785 0.75908 0.0
O221 O 0.01443 0.55558 0.7008 0.0
O222 O 0.03569 0.49947 0.80631 0.0
O223 O 0.04746 0.5105 0.69312 0.0
H224 H 0.98276 0.45477 0.03763 0.0
H225 H 0.9548 0.42803 0.07495 0.0
H226 H 0.92086 0.4377 0.87379 0.0
H227 H 0.94919 0.46349 0.83628 0.0
H228 H 0.03135 0.57641 0.57113 0.0
H229 H 0.05868 0.60428 0.54003 0.0
H230 H 0.0844 0.56119 0.3758 0.0
H231 H 0.05654 0.5339 0.40537 0.0
H232 H 0.20954 0.02004 0.17693 0.0
H233 H 0.17761 0.03037 0.25002 0.0
H234 H 0.15843 0.9622 0.26338 0.0
H235 H 0.18925 0.95203 0.18726 0.0
H236 H 0.12315 0.98648 0.25373 0.0
H237 H 0.17709 0.023 0.46213 0.0
H238 H 0.17884 0.03618 0.37639 0.0
H239 H 0.18798 0.0082 0.38649 0.0
C240 C 0.19826 0.00732 0.19416 0.0
C241 C 0.20231 0.98512 0.17725 0.0
C242 C 0.18014 0.01321 0.23697 0.0
C243 C 0.16587 0.997 0.26448 0.0
C244 C 0.16921 0.97506 0.24387 0.0
H245 H 0.09579 0.99008 0.65801 0.0
H246 H 0.12102 0.99045 0.55673 0.0
C247 C 0.18705 0.96922 0.20067 0.0
C248 C 0.14808 1.0023 0.31727 0.0
H249 H 0.13923 0.02264 0.4856 0.0
C250 C 0.12664 0.99455 0.30424 0.0
C251 C 0.15256 0.01266 0.38369 0.0
C252 C 0.17538 0.02033 0.40355 0.0
C253 C 0.10991 0.99609 0.35629 0.0
C254 C 0.11446 1.00632 0.42285 0.0
C255 C 0.13564 0.01486 0.43468 0.0
C256 C 0.09841 1.00639 0.48375 0.0
C257 C 0.08791 0.98565 0.34076 0.0
C258 C 0.07709 0.01528 0.47732 0.0
C259 C 0.06237 0.01475 0.53552 0.0
C260 C 0.06887 1.00572 0.60151 0.0
C261 C 0.09026 0.9972 0.60798 0.0
C262 C 0.10477 0.99746 0.54996 0.0
H263 H 0.08882 0.97395 0.29515 0.0
H264 H 0.08159 0.9767 0.38834 0.0
H265 H 0.0759 0.99867 0.32657 0.0
H266 H 0.07185 0.02275 0.42758 0.0
H267 H 0.04603 0.02154 0.52908 0.0
H268 H 0.49387 0.20844 0.17376 0.0
H269 H 0.48179 0.17402 0.23083 0.0
H270 H 0.5493 0.15259 0.24444 0.0
H271 H 0.56112 0.18604 0.1842 0.0
H272 H 0.52431 0.11823 0.22578 0.0
H273 H 0.4875 0.16912 0.44236 0.0
H274 H 0.47514 0.17254 0.35593 0.0
H275 H 0.50313 0.1811 0.37038 0.0
C276 C 0.50599 0.19603 0.1869 0.0
C277 C 0.52849 0.20017 0.1758 0.0
C278 C 0.49913 0.17649 0.22061 0.0
C279 C 0.51469 0.16096 0.24469 0.0
C280 C 0.53691 0.1643 0.22751 0.0
H281 H 0.52415 0.08827 0.62619 0.0
H282 H 0.52271 0.11355 0.52544 0.0
C283 C 0.54369 0.18355 0.19323 0.0
C284 C 0.50865 0.1423 0.29324 0.0
H285 H 0.48869 0.13122 0.46065 0.0
C286 C 0.51627 0.12101 0.27683 0.0
C287 C 0.4983 0.14586 0.36032 0.0
C288 C 0.49069 0.16838 0.38383 0.0
C289 C 0.51493 0.10363 0.32666 0.0
C290 C 0.50506 0.10739 0.39429 0.0
C291 C 0.49628 0.1283 0.40894 0.0
C292 C 0.50602 0.09102 0.45406 0.0
C293 C 0.52533 0.08184 0.30799 0.0
C294 C 0.49723 0.06964 0.44811 0.0
C295 C 0.49835 0.05486 0.5061 0.0
C296 C 0.50794 0.06137 0.57124 0.0
C297 C 0.51658 0.08273 0.57688 0.0
C298 C 0.51571 0.09727 0.51916 0.0
H299 H 0.53627 0.0831 0.26051 0.0
H300 H 0.53506 0.07539 0.35368 0.0
H301 H 0.51222 0.06975 0.2955 0.0
H302 H 0.48925 0.06446 0.39915 0.0
H303 H 0.49147 0.03853 0.50036 0.0
H304 H 0.30975 0.49298 0.18297 0.0
H305 H 0.34451 0.48372 0.24282 0.0
H306 H 0.35799 0.55276 0.27259 0.0
H307 H 0.32412 0.562 0.20988 0.0
H308 H 0.39534 0.53138 0.25188 0.0
H309 H 0.34622 0.48668 0.45671 0.0
H310 H 0.34457 0.47553 0.36796 0.0
H311 H 0.33353 0.50241 0.38627 0.0
C312 C 0.32048 0.50615 0.20029 0.0
C313 C 0.31394 0.52822 0.19288 0.0
C314 C 0.34022 0.50085 0.23553 0.0
C315 C 0.35358 0.51752 0.26472 0.0
C316 C 0.34794 0.53954 0.2516 0.0
H317 H 0.42393 0.5261 0.65274 0.0
H318 H 0.39901 0.52472 0.55097 0.0
C319 C 0.32845 0.54482 0.21593 0.0
C320 C 0.37227 0.51252 0.3142 0.0
H321 H 0.38384 0.4905 0.47843 0.0
C322 C 0.39291 0.52221 0.30106 0.0
C323 C 0.36912 0.50074 0.37893 0.0
C324 C 0.34715 0.49089 0.39889 0.0
C325 C 0.41005 0.52126 0.35182 0.0
C326 C 0.4067 0.50981 0.417 0.0
C327 C 0.38645 0.49924 0.42851 0.0
C328 C 0.42274 0.51067 0.47763 0.0
C329 C 0.43108 0.53361 0.33687 0.0
C330 C 0.4446 0.50327 0.47092 0.0
C331 C 0.45912 0.50431 0.52954 0.0
C332 C 0.45189 0.51246 0.59596 0.0
C333 C 0.43003 0.51967 0.60241 0.0
C334 C 0.4157 0.51884 0.54412 0.0
H335 H 0.42925 0.54533 0.29161 0.0
H336 H 0.4365 0.54289 0.38491 0.0
H337 H 0.4442 0.5217 0.32269 0.0
H338 H 0.45039 0.49649 0.42076 0.0
H339 H 0.47586 0.49857 0.52312 0.0
H340 H 0.95564 0.33461 0.18036 0.0
H341 H 0.96727 0.36744 0.24368 0.0
H342 H 0.03366 0.34247 0.2523 0.0
H343 H 0.02152 0.30862 0.1921 0.0
H344 H 0.02318 0.35382 0.37698 0.0
H345 H 0.99684 0.42346 0.21157 0.0
H346 H 0.97353 0.4059 0.22329 0.0
H347 H 0.99751 0.39584 0.1764 0.0
C348 C 0.97288 0.33635 0.19394 0.0
C349 C 0.98762 0.3189 0.18167 0.0
C350 C 0.97962 0.35536 0.2297 0.0
C351 C 1.00148 0.35783 0.25261 0.0
C352 C 0.01668 0.34111 0.23532 0.0
H353 H 0.02077 0.47535 0.53092 0.0
H354 H 0.02433 0.45072 0.42658 0.0
C355 C 0.00982 0.32182 0.20016 0.0
C356 C 0.00729 0.37606 0.30336 0.0
H357 H 0.9959 0.42993 0.3421 0.0
C358 C 0.01765 0.37056 0.36824 0.0
C359 C 1.00068 0.39821 0.29249 0.0
C360 C 0.99177 0.40618 0.2217 0.0
C361 C 0.02002 0.38596 0.42387 0.0
C362 C 0.01101 0.40733 0.41609 0.0
C363 C 1.00226 0.41341 0.34932 0.0
C364 C 0.00897 0.42275 0.47825 0.0
C365 C 0.03195 0.37893 0.49092 0.0
C366 C 0.99866 0.41557 0.54137 0.0
C367 C 0.9969 0.42943 0.60071 0.0
C368 C 1.00492 0.45108 0.5983 0.0
C369 C 0.01456 0.4587 0.53446 0.0
C370 C 0.01658 0.44462 0.47488 0.0
H371 H 0.04472 0.36641 0.47859 0.0
H372 H 0.03996 0.39308 0.51796 0.0
H373 H 0.02006 0.37129 0.52853 0.0
H374 H 0.99187 0.39914 0.54488 0.0
H375 H 0.98909 0.42313 0.64868 0.0
H376 H 0.80533 0.99326 0.19632 0.0
H377 H 0.83938 0.98192 0.13547 0.0
H378 H 0.86196 0.04919 0.13779 0.0
H379 H 0.82891 0.06019 0.20129 0.0
H380 H 0.85171 0.99236 0.00844 0.0
H381 H 0.91823 0.02074 0.18416 0.0
H382 H 0.89012 0.01926 0.21474 0.0
H383 H 0.90005 0.04336 0.16831 0.0
C384 C 0.81795 1.00543 0.18607 0.0
C385 C 0.81431 0.02765 0.20331 0.0
C386 C 0.83736 0.99899 0.15072 0.0
C387 C 0.85356 0.01461 0.13239 0.0
C388 C 0.85023 0.0366 0.15267 0.0
H389 H 0.92661 0.02571 0.74943 0.0
H390 H 0.90028 0.02288 0.84709 0.0
C391 C 0.83106 0.04296 0.1883 0.0
C392 C 0.87256 0.00881 0.08488 0.0
H393 H 0.92695 0.02026 0.0558 0.0
C394 C 0.86825 0.99807 0.01976 0.0
C395 C 0.89442 0.01565 0.09945 0.0
C396 C 0.90097 0.02515 0.17093 0.0
C397 C 0.88463 0.99548 0.96722 0.0
C398 C 0.90582 1.00456 0.97864 0.0
C399 C 0.91062 0.01378 0.04583 0.0
C400 C 0.92245 1.00622 0.91978 0.0
C401 C 0.87888 0.98321 0.89956 0.0
C402 C 0.94423 0.99878 0.92861 0.0
C403 C 0.95963 1.0008 0.87263 0.0
C404 C 0.95346 0.0103 0.80698 0.0
C405 C 0.93183 0.01803 0.79895 0.0
C406 C 0.91663 0.01623 0.85473 0.0
H407 H 0.86612 0.97052 0.91002 0.0
H408 H 0.87201 0.99492 0.85986 0.0
H409 H 0.8935 0.97505 0.87584 0.0
H410 H 0.94928 0.99125 0.97853 0.0
H411 H 0.97622 0.99482 0.88049 0.0
H412 H 0.51742 0.80463 0.17435 0.0
H413 H 0.52431 0.8371 0.09975 0.0
H414 H 0.46718 0.86876 0.19 0.0
H415 H 0.45996 0.83607 0.26279 0.0
H416 H 0.46463 0.8687 0.05047 0.0
H417 H 0.54769 0.89843 0.12164 0.0
H418 H 0.54772 0.86972 0.09959 0.0
H419 H 0.53273 0.87917 0.17688 0.0
C420 C 0.50683 0.81885 0.18006 0.0
C421 C 0.48822 0.81787 0.2246 0.0
C422 C 0.51077 0.83746 0.13738 0.0
C423 C 0.49637 0.85559 0.13928 0.0
C424 C 0.47857 0.85508 0.18732 0.0
H425 H 0.50891 0.97434 0.8661 0.0
H426 H 0.5082 0.94983 0.97138 0.0
C427 C 0.4745 0.83643 0.22925 0.0
C428 C 0.49806 0.87367 0.08518 0.0
H429 H 0.53336 0.91064 0.00795 0.0
C430 C 0.47962 0.87802 0.04208 0.0
C431 C 0.51748 0.88611 0.07408 0.0
C432 C 0.53745 0.88329 0.12102 0.0
C433 C 0.48026 0.89377 0.98708 0.0
C434 C 0.50003 0.9053 0.97328 0.0
C435 C 0.51827 0.90164 0.01793 0.0
C436 C 0.50218 0.9202 0.91022 0.0
C437 C 0.45969 0.89785 0.94384 0.0
C438 C 0.4996 0.91166 0.84096 0.0
C439 C 0.49996 0.92553 0.78132 0.0
C440 C 0.50311 0.94831 0.78927 0.0
C441 C 0.50647 0.95686 0.85838 0.0
C442 C 0.50607 0.94288 0.91845 0.0
H443 H 0.44469 0.89273 0.97347 0.0
H444 H 0.4581 0.91549 0.92934 0.0
H445 H 0.46049 0.88811 0.89366 0.0
H446 H 0.49696 0.89421 0.83304 0.0
H447 H 0.49746 0.9184 0.72882 0.0
H448 H 0.679 0.45736 0.27582 0.0
H449 H 0.64631 0.46527 0.20365 0.0
H450 H 0.67779 0.5234 0.11992 0.0
H451 H 0.71034 0.5158 0.19379 0.0
H452 H 0.632 0.52876 0.13756 0.0
H453 H 0.65145 0.45173 0.99092 0.0
H454 H 0.64674 0.44794 0.08497 0.0
H455 H 0.67005 0.46369 0.05512 0.0
C456 C 0.67867 0.47216 0.24356 0.0
C457 C 0.69723 0.48592 0.24018 0.0
C458 C 0.66006 0.47659 0.20188 0.0
C459 C 0.65978 0.49462 0.15483 0.0
C460 C 0.67764 0.50932 0.15549 0.0
H461 H 0.59478 0.503 0.74943 0.0
H462 H 0.61954 0.50177 0.85188 0.0
C463 C 0.6962 0.50503 0.19794 0.0
C464 C 0.64204 0.49683 0.10008 0.0
H465 H 0.61954 0.4707 0.95556 0.0
C466 C 0.62918 0.51605 0.09792 0.0
C467 C 0.63853 0.48036 0.04764 0.0
C468 C 0.65252 0.45986 0.04408 0.0
C469 C 0.613 0.51921 0.04473 0.0
C470 C 0.60942 0.50262 0.99278 0.0
C471 C 0.62214 0.48337 0.99558 0.0
C472 C 0.59391 0.50535 0.93143 0.0
C473 C 0.6004 0.54057 0.04307 0.0
C474 C 0.57111 0.50803 0.94156 0.0
C475 C 0.55679 0.50889 0.88241 0.0
C476 C 0.56507 0.50688 0.81239 0.0
C477 C 0.58787 0.50457 0.80266 0.0
C478 C 0.60207 0.50385 0.86131 0.0
H479 H 0.60824 0.55337 0.07698 0.0
H480 H 0.59909 0.5469 0.98745 0.0
H481 H 0.5835 0.53771 0.06348 0.0
H482 H 0.56432 0.50883 0.99509 0.0
H483 H 0.53927 0.5105 0.89148 0.0
H484 H 0.99475 0.71189 0.16853 0.0
H485 H 0.98672 0.67737 0.10642 0.0
H486 H 0.0341 0.64382 0.23912 0.0
H487 H 0.04249 0.67858 0.29983 0.0
H488 H 0.04353 0.63839 0.10296 0.0
H489 H 0.95516 0.62005 0.13524 0.0
H490 H 0.95937 0.64778 0.10554 0.0
H491 H 0.96938 0.63941 0.19214 0.0
C492 C 1.0026 0.6969 0.18677 0.0
C493 C 0.01885 0.69777 0.24008 0.0
C494 C 0.99806 0.67712 0.15109 0.0
C495 C 0.00962 0.65778 0.16827 0.0
C496 C 0.02482 0.6584 0.22502 0.0
H497 H 0.99833 0.53638 0.90255 0.0
H498 H 0.99783 0.5606 0.00874 0.0
C499 C 0.02944 0.67821 0.26035 0.0
C500 C 0.00847 0.63815 0.12011 0.0
H501 H 0.97292 0.60412 0.03091 0.0
C502 C 0.02809 0.63066 0.08853 0.0
C503 C 0.98841 0.6278 0.10104 0.0
C504 C 0.96693 0.63403 0.13589 0.0
C505 C 0.02807 0.61408 0.03612 0.0
C506 C 0.0079 0.6048 0.01366 0.0
C507 C 0.98837 0.61137 0.04769 0.0
C508 C 1.00683 0.58998 0.95025 0.0
C509 C 0.04966 0.60701 1.00357 0.0
C510 C 0.01168 0.59851 0.88231 0.0
C511 C 0.01188 0.58486 0.82221 0.0
C512 C 0.00724 0.56228 0.82835 0.0
C513 C 1.00195 0.55371 0.8962 0.0
C514 C 1.00165 0.56751 0.95675 0.0
H515 H 0.06381 0.61137 0.0384 0.0
H516 H 0.04986 0.58899 0.99382 0.0
H517 H 0.05189 0.61543 0.95134 0.0
H518 H 0.01554 0.6158 0.87585 0.0
H519 H 0.01595 0.59203 0.77077 0.0
H520 H 0.95848 0.25535 0.32689 0.0
H521 H 0.93585 0.2295 0.39418 0.0
H522 H 0.88466 0.23502 0.23504 0.0
H523 H 0.9082 0.25985 0.1649 0.0
H524 H 0.89615 0.22256 0.45422 0.0
H525 H 0.90323 0.1732 0.20267 0.0
H526 H 0.91715 0.19913 0.21173 0.0
H527 H 0.8878 0.19829 0.19918 0.0
C528 C 0.94211 0.25156 0.3076 0.0
C529 C 0.93508 0.25917 0.24069 0.0
C530 C 0.92911 0.23685 0.34608 0.0
C531 C 0.90882 0.22975 0.31847 0.0
C532 C 0.90056 0.2397 0.25611 0.0
H533 H 0.9011 0.0918 0.42244 0.0
H534 H 0.8807 0.12606 0.40071 0.0
C535 C 0.91387 0.25398 0.21646 0.0
C536 C 0.89917 0.20923 0.3477 0.0
H537 H 0.89851 0.15448 0.30851 0.0
C538 C 0.89592 0.20771 0.42205 0.0
C539 C 0.89842 0.1898 0.30565 0.0
C540 C 0.9019 0.19002 0.2255 0.0
C541 C 0.89494 0.18718 0.45627 0.0
C542 C 0.89722 0.16786 0.41494 0.0
C543 C 0.89703 0.16938 0.34009 0.0
C544 C 0.90575 0.14717 0.44602 0.0
C545 C 0.89329 0.1864 0.53674 0.0
C546 C 0.92635 0.14766 0.47994 0.0
C547 C 0.93804 0.1283 0.49129 0.0
C548 C 0.92938 0.10805 0.46894 0.0
C549 C 0.90809 0.10728 0.43993 0.0
C550 C 0.8964 0.12677 0.42796 0.0
H551 H 0.88263 0.1999 0.5568 0.0
H552 H 0.88664 0.17041 0.55565 0.0
H553 H 0.90989 0.1888 0.56019 0.0
H554 H 0.93422 0.16316 0.4926 0.0
H555 H 0.95432 0.12924 0.51464 0.0
H556 H 0.29788 0.9498 0.14263 0.0
H557 H 0.32075 0.92381 0.20457 0.0
H558 H 0.26346 0.88798 0.27464 0.0
H559 H 0.23984 0.91374 0.208 0.0
H560 H 0.2922 0.90148 0.38595 0.0
H561 H 0.3407 0.85996 0.17894 0.0
H562 H 0.33671 0.888 0.15231 0.0
H563 H 0.31318 0.87016 0.16241 0.0
C564 C 0.28991 0.93593 0.16805 0.0
C565 C 0.26688 0.93376 0.16871 0.0
C566 C 0.30315 0.92098 0.20386 0.0
C567 C 0.29389 0.90354 0.24251 0.0
C568 C 0.27094 0.90106 0.24372 0.0
H569 H 0.42223 0.89069 0.41766 0.0
H570 H 0.38751 0.87102 0.39499 0.0
C571 C 0.2575 0.91595 0.20633 0.0
C572 C 0.30867 0.89082 0.28978 0.0
H573 H 0.36271 0.877 0.2791 0.0
C574 C 0.30731 0.89498 0.3635 0.0
C575 C 0.32808 0.88139 0.26168 0.0
C576 C 0.32961 0.87438 0.18448 0.0
C577 C 0.32627 0.89435 0.40617 0.0
C578 C 0.34679 0.88991 0.37346 0.0
C579 C 0.34714 0.88125 0.30383 0.0
C580 C 0.36724 0.90025 0.40039 0.0
C581 C 0.32458 0.90092 0.48375 0.0
C582 C 0.36739 0.92314 0.41059 0.0
C583 C 0.387 0.93429 0.42251 0.0
C584 C 0.40702 0.92287 0.42409 0.0
C585 C 0.40696 0.89985 0.41664 0.0
C586 C 0.38718 0.88861 0.40407 0.0
H587 H 0.30943 0.89391 0.50798 0.0
H588 H 0.33908 0.89533 0.51497 0.0
H589 H 0.32332 0.9191 0.48764 0.0
H590 H 0.3524 0.93266 0.40561 0.0
H591 H 0.38656 0.95199 0.429 0.0
H592 H 0.60654 0.25594 0.16997 0.0
H593 H 0.63057 0.28172 0.23412 0.0
H594 H 0.57607 0.29947 0.371 0.0
H595 H 0.55284 0.27296 0.3099 0.0
H596 H 0.62568 0.32186 0.22321 0.0
H597 H 0.62249 0.30898 0.51133 0.0
H598 H 0.61483 0.28726 0.45024 0.0
H599 H 0.59455 0.30663 0.48283 0.0
C600 C 0.60022 0.26462 0.21627 0.0
C601 C 0.57806 0.2625 0.23593 0.0
C602 C 0.61386 0.27938 0.25271 0.0
C603 C 0.60534 0.29251 0.30821 0.0
C604 C 0.58348 0.28912 0.33049 0.0
H605 H 0.57539 0.41529 0.31474 0.0
H606 H 0.59244 0.38053 0.28505 0.0
C607 C 0.57004 0.2741 0.29508 0.0
C608 C 0.61693 0.3128 0.33157 0.0
H609 H 0.61549 0.34858 0.47161 0.0
C610 C 0.62431 0.32737 0.27823 0.0
C611 C 0.61632 0.32012 0.40347 0.0
C612 C 0.61186 0.3047 0.46501 0.0
C613 C 0.62743 0.34973 0.29308 0.0
C614 C 0.62227 0.35774 0.36207 0.0
C615 C 0.61858 0.34265 0.41777 0.0
C616 C 0.61559 0.38094 0.37332 0.0
C617 C 0.63455 0.3648 0.23325 0.0
C618 C 0.62282 0.39293 0.43304 0.0
C619 C 0.61286 0.41299 0.45056 0.0
C620 C 0.59541 0.42125 0.4089 0.0
C621 C 0.58906 0.40972 0.34717 0.0
C622 C 0.59893 0.38977 0.32988 0.0
H623 H 0.64707 0.35657 0.19921 0.0
H624 H 0.62021 0.36855 0.19857 0.0
H625 H 0.64149 0.38045 0.25391 0.0
H626 H 0.6355 0.38636 0.46768 0.0
H627 H 0.61825 0.42161 0.49814 0.0
H628 H 0.26565 0.59696 0.24506 0.0
H629 H 0.24163 0.62013 0.32059 0.0
H630 H 0.19709 0.56541 0.34614 0.0
H631 H 0.22071 0.54262 0.27157 0.0
H632 H 0.19708 0.63015 0.28922 0.0
H633 H 0.20247 0.58911 0.55034 0.0
H634 H 0.22394 0.58687 0.48364 0.0
H635 H 0.20056 0.56861 0.4817 0.0
C636 C 0.25089 0.58994 0.26818 0.0
C637 C 0.24485 0.56814 0.25267 0.0
C638 C 0.23726 0.60311 0.31106 0.0
C639 C 0.21783 0.59434 0.33998 0.0
C640 C 0.21227 0.57236 0.32585 0.0
H641 H 0.09356 0.59604 0.32865 0.0
H642 H 0.13027 0.61072 0.31421 0.0
C643 C 0.22563 0.55941 0.28272 0.0
C644 C 0.20163 0.60809 0.37839 0.0
H645 H 0.16488 0.60015 0.5126 0.0
C646 C 0.19039 0.62434 0.33963 0.0
C647 C 0.19339 0.60137 0.44556 0.0
C648 C 0.20594 0.58571 0.493 0.0
C649 C 0.1693 0.63116 0.36068 0.0
C650 C 0.15918 0.62086 0.42021 0.0
C651 C 0.17211 0.60763 0.46543 0.0
C652 C 0.13488 0.61879 0.42644 0.0
C653 C 0.15753 0.64811 0.31598 0.0
C654 C 0.12467 0.6188 0.49394 0.0
C655 C 0.10385 0.60941 0.50274 0.0
C656 C 0.09277 0.60008 0.44395 0.0
C657 C 0.10189 0.60253 0.37532 0.0
C658 C 0.12282 0.61149 0.36678 0.0
H659 H 0.16902 0.6616 0.30138 0.0
H660 H 0.15191 0.64046 0.26524 0.0
H661 H 0.14317 0.65523 0.34446 0.0
H662 H 0.13355 0.62435 0.54086 0.0
H663 H 0.09737 0.60784 0.5565 0.0
H664 H 0.05992 0.73945 0.08023 0.0
H665 H 0.08111 0.76126 0.99555 0.0
H666 H 0.11224 0.79517 0.1715 0.0
H667 H 0.09291 0.77193 0.25579 0.0
H668 H 0.07042 0.80026 0.98811 0.0
H669 H 0.15906 0.80411 0.03239 0.0
H670 H 0.1429 0.78155 0.06702 0.0
H671 H 0.14677 0.80636 0.11901 0.0
C672 C 0.07219 0.75066 0.10098 0.0
C673 C 0.07416 0.75446 0.17501 0.0
C674 C 0.08427 0.76326 0.05226 0.0
C675 C 0.09814 0.78018 0.07662 0.0
C676 C 0.10199 0.78213 0.15051 0.0
H677 H 0.0958 0.91054 0.07137 0.0
H678 H 0.10737 0.87216 0.08087 0.0
C679 C 0.09043 0.76912 0.1991 0.0
C680 C 0.1036 0.79901 0.02896 0.0
H681 H 0.14059 0.841 0.01328 0.0
C682 C 0.08612 0.80866 0.99106 0.0
C683 C 0.12405 0.81011 0.03188 0.0
C684 C 0.14425 0.79975 0.06424 0.0
C685 C 0.08763 0.83006 0.96414 0.0
C686 C 0.10721 0.84213 0.97505 0.0
C687 C 0.12548 0.83178 0.00607 0.0
C688 C 0.10715 0.86627 0.96663 0.0
C689 C 0.06748 0.84035 0.93057 0.0
C690 C 0.10434 0.87589 0.89907 0.0
C691 C 0.09742 0.89774 0.89354 0.0
C692 C 0.09332 0.91024 0.95559 0.0
C693 C 0.09841 0.90118 0.02277 0.0
C694 C 0.10528 0.87935 0.02821 0.0
H695 H 0.05302 0.8292 0.93153 0.0
H696 H 0.06306 0.85577 0.95903 0.0
H697 H 0.07103 0.8446 0.87395 0.0
H698 H 0.10576 0.86602 0.85101 0.0
H699 H 0.09358 0.90419 0.84096 0.0
H700 H 0.74688 0.05909 0.08266 0.0
H701 H 0.7186 0.08197 0.02964 0.0
H702 H 0.72642 0.12931 0.20038 0.0
H703 H 0.75372 0.10515 0.25649 0.0
H704 H 0.68781 0.11987 0.19979 0.0
H705 H 0.70327 0.13297 0.91664 0.0
H706 H 0.70884 0.10438 0.92885 0.0
H707 H 0.72532 0.12465 0.97544 0.0
C708 C 0.74319 0.07484 0.10707 0.0
C709 C 0.75233 0.08046 0.17332 0.0
C710 C 0.72712 0.08815 0.0763 0.0
C711 C 0.72032 0.10768 0.11024 0.0
C712 C 0.73126 0.11438 0.17297 0.0
H713 H 0.59095 0.11488 0.91394 0.0
H714 H 0.62475 0.1334 0.95327 0.0
C715 C 0.74692 0.10068 0.2049 0.0
C716 C 0.69884 0.11763 0.0898 0.0
H717 H 0.66459 0.11854 0.94561 0.0
C718 C 0.683 0.12049 0.14394 0.0
C719 C 0.69219 0.11964 0.01743 0.0
C720 C 0.7085 0.12051 0.95668 0.0
C721 C 0.66057 0.12157 0.12757 0.0
C722 C 0.65381 0.11876 0.05579 0.0
C723 C 0.66966 0.11967 1.00115 0.0
C724 C 0.63162 0.11019 0.03827 0.0
C725 C 0.64429 0.12405 0.188 0.0
C726 C 0.62422 0.09107 0.07299 0.0
C727 C 0.60507 0.08058 0.05091 0.0
C728 C 0.59297 0.08873 0.99271 0.0
C729 C 0.60001 0.10819 0.95885 0.0
C730 C 0.61923 0.11883 0.98142 0.0
H731 H 0.65065 0.13576 0.22867 0.0
H732 H 0.62807 0.12998 0.16872 0.0
H733 H 0.64207 0.10794 0.21507 0.0
H734 H 0.63389 0.0835 0.11498 0.0
H735 H 0.60044 0.06535 0.07701 0.0
H736 H 0.42521 0.73619 0.31067 0.0
H737 H 0.40486 0.70913 0.24226 0.0
H738 H 0.41276 0.74838 0.05164 0.0
H739 H 0.43607 0.77383 0.11717 0.0
H740 H 0.37356 0.69926 0.15757 0.0
H741 H 0.45042 0.69922 0.99419 0.0
H742 H 0.44746 0.71638 0.07171 0.0
H743 H 0.43457 0.72393 0.98824 0.0
C744 C 0.42277 0.73912 0.25404 0.0
C745 C 0.43374 0.7564 0.21874 0.0
C746 C 0.41068 0.72376 0.21506 0.0
C747 C 0.40848 0.72597 0.14061 0.0
C748 C 0.41542 0.74563 0.10822 0.0
H749 H 0.40769 0.6072 0.88035 0.0
H750 H 0.39204 0.64276 0.91398 0.0
C751 C 0.4285 0.76047 0.14644 0.0
C752 C 0.40305 0.70616 0.09732 0.0
H753 H 0.42662 0.67019 0.97961 0.0
C754 C 0.38494 0.69312 0.11759 0.0
C755 C 0.41797 0.69794 0.04512 0.0
C756 C 0.43877 0.70995 0.02385 0.0
C757 C 0.38234 0.6716 0.09131 0.0
C758 C 0.39785 0.66325 0.04228 0.0
C759 C 0.41469 0.67688 0.01698 0.0
C760 C 0.39993 0.63956 0.02629 0.0
C761 C 0.36379 0.65751 0.11877 0.0
C762 C 0.40884 0.62571 0.07885 0.0
C763 C 0.41843 0.6057 0.05959 0.0
C764 C 0.41916 0.59918 0.98736 0.0
C765 C 0.40799 0.61202 0.93615 0.0
C766 C 0.3987 0.63219 0.95534 0.0
H767 H 0.35033 0.66764 0.14182 0.0
H768 H 0.35705 0.64705 0.07525 0.0
H769 H 0.37014 0.64648 0.16138 0.0
H770 H 0.41032 0.63131 0.13371 0.0
H771 H 0.42692 0.59637 0.10051 0.0
H772 H 0.74298 0.43627 0.12647 0.0
H773 H 0.76843 0.413 0.0609 0.0
H774 H 0.80404 0.40017 0.25644 0.0
H775 H 0.77716 0.42108 0.32331 0.0
H776 H 0.80525 0.42826 0.04497 0.0
H777 H 0.82179 0.34701 0.15797 0.0
H778 H 0.79693 0.36177 0.1802 0.0
H779 H 0.82179 0.36566 0.2319 0.0
C780 C 0.7554 0.42745 0.15643 0.0
C781 C 0.75847 0.43129 0.23006 0.0
C782 C 0.77015 0.4142 0.1185 0.0
C783 C 0.78857 0.40506 0.15299 0.0
C784 C 0.79 0.40668 0.22788 0.0
H785 H 0.91735 0.43003 0.11144 0.0
H786 H 0.88171 0.41503 0.14507 0.0
C787 C 0.7748 0.41921 0.26616 0.0
C788 C 0.80856 0.39924 0.11091 0.0
H789 H 0.85546 0.36835 0.1203 0.0
C790 C 0.81574 0.41455 0.05949 0.0
C791 C 0.82253 0.38141 0.12902 0.0
C792 C 0.81513 0.36297 0.17729 0.0
C793 C 0.83707 0.41385 0.03164 0.0
C794 C 0.85175 0.39753 0.05615 0.0
C795 C 0.84419 0.38105 0.10257 0.0
C796 C 0.87551 0.39989 0.04235 0.0
C797 C 0.84441 0.43172 0.9807 0.0
C798 C 0.88424 0.39534 0.97454 0.0
C799 C 0.90478 0.40378 0.95511 0.0
C800 C 0.91673 0.41711 1.00303 0.0
C801 C 0.90875 0.41978 0.0732 0.0
C802 C 0.88833 0.4112 0.09266 0.0
H803 H 0.83095 0.44339 0.96744 0.0
H804 H 0.85823 0.44113 0.00461 0.0
H805 H 0.85044 0.42423 0.9302 0.0
H806 H 0.87449 0.38667 0.93504 0.0
H807 H 0.91069 0.40095 0.90119 0.0
H808 H 0.95336 0.2392 0.99757 0.0
H809 H 0.96429 0.20641 0.93257 0.0
H810 H 0.03171 0.21691 0.99594 0.0
H811 H 0.02033 0.24908 0.06664 0.0
H812 H 0.98757 0.19446 0.82974 0.0
H813 H 0.02566 0.15669 0.0699 0.0
H814 H 0.0111 0.18243 0.07404 0.0
H815 H 0.03903 0.1815 0.04185 0.0
C816 C 0.97059 0.23466 0.99743 0.0
C817 C 0.98585 0.24653 0.03896 0.0
C818 C 0.97688 0.21583 0.95982 0.0
C819 C 0.99877 0.20843 0.96106 0.0
C820 C 0.01454 0.22156 0.9964 0.0
H821 H 0.02464 0.09154 0.68871 0.0
H822 H 0.02384 0.12925 0.73447 0.0
C823 C 0.00811 0.2403 0.03564 0.0
C824 C 1.00431 0.18655 0.92799 0.0
H825 H 0.02655 0.13597 0.96384 0.0
C826 C 0.99614 0.18172 0.85924 0.0
C827 C 0.01522 0.16958 0.9663 0.0
C828 C 0.02307 0.17268 0.04231 0.0
C829 C 0.99785 0.16054 0.829 0.0
C830 C 0.00917 0.14371 0.86667 0.0
C831 C 0.01795 0.14872 0.93445 0.0
C832 C 0.01104 0.12055 0.83904 0.0
C833 C 0.98634 0.15628 0.75873 0.0
C834 C 1.00537 0.10265 0.88326 0.0
C835 C 1.00661 0.08096 0.85791 0.0
C836 C 0.01321 0.07656 0.78718 0.0
C837 C 0.01919 0.09437 0.74315 0.0
C838 C 0.01851 0.11603 0.76917 0.0
H839 H 0.97295 0.16836 0.74904 0.0
H840 H 0.99834 0.15793 0.71429 0.0
H841 H 0.97914 0.13952 0.75703 0.0
H842 H 0.9996 0.10545 0.93738 0.0
H843 H 1.00183 0.06766 0.89323 0.0
H844 H 0.26019 0.97152 0.91098 0.0
H845 H 0.2934 0.9821 0.845 0.0
H846 H 0.30895 0.02949 0.0088 0.0
H847 H 0.27567 0.01895 0.07479 0.0
H848 H 0.31607 0.0246 0.79715 0.0
H849 H 0.35694 0.97864 0.01785 0.0
H850 H 0.32785 0.97633 1.00012 0.0
H851 H 0.33849 1.00038 0.04368 0.0
C852 C 0.27004 0.98507 0.93077 0.0
C853 C 0.26519 0.99461 0.99762 0.0
C854 C 0.28916 0.99094 0.89343 0.0
C855 C 0.30386 1.00632 0.92253 0.0
C856 C 0.2979 0.01749 0.98554 0.0
H857 H 0.44438 0.02483 0.85275 0.0
H858 H 0.40654 0.02623 0.89626 0.0
C859 C 0.27869 0.0117 0.02272 0.0
C860 C 0.32659 0.00816 0.89315 0.0
H861 H 0.37974 0.99347 0.92869 0.0
C862 C 0.33004 0.0179 0.82591 0.0
C863 C 0.34479 0.99927 0.93051 0.0
C864 C 0.34197 0.9879 1.00182 0.0
C865 C 0.35127 0.01931 0.79564 0.0
C866 C 0.36948 0.0102 0.83276 0.0
C867 C 0.36591 1.00051 0.9001 0.0
C868 C 0.39239 0.0104 0.80332 0.0
C869 C 0.35399 0.03097 0.7249 0.0
C870 C 0.39729 1.00094 0.73645 0.0
C871 C 0.41902 1.00025 0.71102 0.0
C872 C 0.43645 0.0087 0.75235 0.0
C873 C 0.43148 0.01811 0.81932 0.0
C874 C 0.40977 0.01895 0.84438 0.0
H875 H 0.34025 0.0426 0.71471 0.0
H876 H 0.36973 0.04021 0.7228 0.0
H877 H 0.35402 0.01864 0.68112 0.0
H878 H 0.38438 0.99364 0.70442 0.0
H879 H 0.42217 0.9927 0.65952 0.0
H880 H 0.5619 0.27852 0.98826 0.0
H881 H 0.55129 0.3108 0.91993 0.0
H882 H 0.48352 0.3006 0.98014 0.0
H883 H 0.49456 0.26896 0.05394 0.0
H884 H 0.52833 0.32257 0.81547 0.0
H885 H 0.48977 0.36081 0.05434 0.0
H886 H 0.50421 0.33503 0.0592 0.0
H887 H 0.47642 0.33604 0.02586 0.0
C888 C 0.54465 0.28296 0.98635 0.0
C889 C 0.52916 0.27143 0.02798 0.0
C890 C 0.53855 0.3015 0.94696 0.0
C891 C 0.51666 0.30889 0.94666 0.0
C892 C 0.50068 0.29595 0.98178 0.0
H893 H 0.49456 0.42733 0.67683 0.0
H894 H 0.49416 0.38929 0.72009 0.0
C895 C 0.50691 0.27752 0.02279 0.0
C896 C 0.51139 0.33073 0.91316 0.0
H897 H 0.48999 0.38166 0.94879 0.0
C898 C 0.51987 0.33545 0.84471 0.0
C899 C 0.50061 0.34784 0.95122 0.0
C900 C 0.49242 0.34481 0.02692 0.0
C901 C 0.51873 0.3567 0.81471 0.0
C902 C 0.50768 0.3737 0.85234 0.0
C903 C 0.49844 0.36877 0.91955 0.0
C904 C 0.50672 0.39701 0.82576 0.0
C905 C 0.53057 0.36082 0.74491 0.0
C906 C 0.51275 0.41444 0.87132 0.0
C907 C 0.51218 0.43628 0.84742 0.0
C908 C 0.50595 0.4413 0.77682 0.0
C909 C 0.49974 0.42397 0.73123 0.0
C910 C 0.49972 0.40214 0.75583 0.0
H911 H 0.54358 0.34834 0.73506 0.0
H912 H 0.51864 0.35975 0.70012 0.0
H913 H 0.53832 0.37734 0.74406 0.0
H914 H 0.51821 0.41115 0.92548 0.0
H915 H 0.51714 0.44923 0.88385 0.0
H916 H 0.2356 0.49122 0.0963 0.0
H917 H 0.20335 0.48328 0.02172 0.0
H918 H 0.21595 0.54185 0.89821 0.0
H919 H 0.24807 0.54979 0.97301 0.0
H920 H 0.17481 0.54132 0.96353 0.0
H921 H 0.18868 0.46334 0.81587 0.0
H922 H 0.1952 0.46225 0.90967 0.0
H923 H 0.21097 0.47969 0.85139 0.0
C924 C 0.23217 0.50167 0.05068 0.0
C925 C 0.24464 0.52082 0.03927 0.0
C926 C 0.21361 0.49724 0.00835 0.0
C927 C 0.20718 0.51192 0.95401 0.0
C928 C 0.2206 0.5302 0.93942 0.0
H929 H 0.08953 0.50951 0.6815 0.0
H930 H 0.12751 0.51058 0.72563 0.0
C931 C 0.23913 0.53459 0.98157 0.0
C932 C 0.18502 0.51014 0.92006 0.0
H933 H 0.15177 0.47668 0.81998 0.0
C934 C 0.16988 0.52724 0.93168 0.0
C935 C 0.17849 0.4918 0.87847 0.0
C936 C 0.19421 0.47327 0.86242 0.0
C937 C 0.14837 0.52633 0.90423 0.0
C938 C 0.14166 0.50777 0.86419 0.0
C939 C 0.15689 0.49085 0.85108 0.0
C940 C 0.11875 0.50573 0.8367 0.0
C941 C 0.13289 0.54524 0.91827 0.0
C942 C 0.10121 0.50238 0.88432 0.0
C943 C 0.07949 0.50165 0.85935 0.0
C944 C 0.07476 0.50439 0.78604 0.0
C945 C 0.09246 0.50741 0.73827 0.0
C946 C 0.11423 0.50796 0.76334 0.0
H947 H 0.14167 0.56 0.93855 0.0
H948 H 0.12387 0.54974 0.86869 0.0
H949 H 0.12058 0.5402 0.95897 0.0
H950 H 0.10431 0.50053 0.94112 0.0
H951 H 0.06639 0.4993 0.89789 0.0
H952 H 0.05714 0.77606 0.41756 0.0
H953 H 0.04801 0.80886 0.48523 0.0
H954 H 0.9799 0.80193 0.42462 0.0
H955 H 0.98945 0.76952 0.35201 0.0
H956 H 0.99079 0.84187 0.4044 0.0
H957 H 0.0226 0.82238 0.67185 0.0
H958 H 0.04439 0.81844 0.60882 0.0
H959 H 0.01999 0.80155 0.60372 0.0
C960 C 0.04009 0.78121 0.41972 0.0
C961 C 0.02405 0.77018 0.37892 0.0
C962 C 0.03481 0.79996 0.45933 0.0
C963 C 0.01315 0.80796 0.46154 0.0
C964 C 0.99676 0.79618 0.42425 0.0
H965 H 0.99653 0.92681 0.72784 0.0
H966 H 0.99438 0.88903 0.6829 0.0
C967 C 1.00214 0.77746 0.38338 0.0
C968 C 0.00843 0.82972 0.49632 0.0
H969 H 0.02197 0.86137 0.64114 0.0
C970 C 0.99727 0.84595 0.45682 0.0
C971 C 0.01632 0.83526 0.56551 0.0
C972 C 0.02624 0.81834 0.61504 0.0
C973 C 0.99483 0.8676 0.48263 0.0
C974 C 1.0047 0.87367 0.54861 0.0
C975 C 0.01482 0.85714 0.58979 0.0
C976 C 1.00514 0.89698 0.57531 0.0
C977 C 0.98141 0.88356 0.43884 0.0
C978 C 0.01209 0.91431 0.53065 0.0
C979 C 0.01277 0.93602 0.55586 0.0
C980 C 0.00727 0.94095 0.62722 0.0
C981 C 1.00088 0.9236 0.67257 0.0
C982 C 0.99966 0.90194 0.6468 0.0
H983 H 0.96855 0.87484 0.40751 0.0
H984 H 0.97325 0.89606 0.47305 0.0
H985 H 0.99231 0.89205 0.40002 0.0
H986 H 0.01733 0.91106 0.4763 0.0
H987 H 0.01814 0.94891 0.51981 0.0
H988 H 0.74682 0.05161 0.43181 0.0
H989 H 0.71368 0.04187 0.4991 0.0
H990 H 0.70419 0.98543 0.36295 0.0
H991 H 0.73751 0.99521 0.29546 0.0
H992 H 0.67313 0.04125 0.42469 0.0
H993 H 0.68776 0.9622 0.56638 0.0
H994 H 0.70992 0.98001 0.53808 0.0
H995 H 0.69594 0.96312 0.47382 0.0
C996 C 0.73823 0.03655 0.4184 0.0
C997 C 0.74494 0.02399 0.35905 0.0
C998 C 0.71915 0.03111 0.45642 0.0
C999 C 0.70635 0.01292 0.43624 0.0
C1000 C 0.71391 0.99936 0.38033 0.0
H1001 H 0.56496 0.99808 0.49148 0.0
H1002 H 0.60269 0.99961 0.44644 0.0
C1003 C 0.73308 1.00484 0.34206 0.0
C1004 C 0.68385 0.01011 0.46705 0.0
H1005 H 0.65103 0.97557 0.56495 0.0
C1006 C 0.66835 0.0269 0.45551 0.0
C1007 C 0.67756 0.99142 0.50738 0.0
C1008 C 0.69365 0.97317 0.52284 0.0
C1009 C 0.6468 0.02544 0.48245 0.0
C1010 C 0.6404 1.00664 0.52194 0.0
C1011 C 0.65592 0.98993 0.53438 0.0
C1012 C 0.61759 1.00428 0.55038 0.0
C1013 C 0.631 0.04412 0.46896 0.0
C1014 C 0.61336 1.00609 0.62408 0.0
C1015 C 0.5917 1.00537 0.6502 0.0
C1016 C 0.57379 1.00259 0.60318 0.0
C1017 C 0.57822 1.00025 0.52949 0.0
C1018 C 0.59983 1.00114 0.50348 0.0
H1019 H 0.63952 0.05908 0.44894 0.0
H1020 H 0.61875 0.03898 0.42825 0.0
H1021 H 0.62194 0.04837 0.51872 0.0
H1022 H 0.6268 0.00855 0.66128 0.0
H1023 H 0.58902 1.00717 0.70722 0.0
H1024 H 0.48717 0.76002 0.4668 0.0
H1025 H 0.49706 0.72748 0.53762 0.0
H1026 H 0.5233 0.69671 0.34792 0.0
H1027 H 0.51378 0.72935 0.27788 0.0
H1028 H 0.47802 0.68848 0.51288 0.0
H1029 H 0.568 0.67708 0.49331 0.0
H1030 H 0.55478 0.70283 0.47161 0.0
H1031 H 0.55553 0.68082 0.40717 0.0
C1032 C 0.49617 0.74679 0.44129 0.0
C1033 C 0.5003 0.74745 0.36732 0.0
C1034 C 0.50154 0.72804 0.48151 0.0
C1035 C 0.5111 0.70956 0.44851 0.0
C1036 C 0.51648 0.71083 0.37537 0.0
H1037 H 0.52264 0.5702 0.52364 0.0
H1038 H 0.52324 0.60801 0.47959 0.0
C1039 C 0.51116 0.72958 0.33526 0.0
C1040 C 0.51256 0.6881 0.48744 0.0
H1041 H 0.54692 0.64504 0.52525 0.0
C1042 C 0.49319 0.67917 0.51662 0.0
C1043 C 0.53227 0.67575 0.49198 0.0
C1044 C 0.55386 0.68471 0.46496 0.0
C1045 C 0.49278 0.65806 0.54758 0.0
C1046 C 0.51238 0.64551 0.55068 0.0
C1047 C 0.53187 0.65459 0.52286 0.0
C1048 C 0.51273 0.62258 0.5795 0.0
C1049 C 0.47114 0.64899 0.57394 0.0
C1050 C 0.5069 0.61806 0.65089 0.0
C1051 C 0.50648 0.59634 0.67644 0.0
C1052 C 0.51197 0.57862 0.63123 0.0
C1053 C 0.51821 0.58331 0.56016 0.0
C1054 C 0.51864 0.60499 0.53478 0.0
H1055 H 0.45692 0.65847 0.55288 0.0
H1056 H 0.46918 0.6315 0.55814 0.0
H1057 H 0.47067 0.6499 0.63325 0.0
H1058 H 0.50264 0.63135 0.68692 0.0
H1059 H 0.5017 0.59346 0.73152 0.0
H1060 H 0.75598 0.48214 0.48182 0.0
H1061 H 0.78867 0.49198 0.55183 0.0
H1062 H 0.8177 0.52119 0.36374 0.0
H1063 H 0.78488 0.5117 0.29455 0.0
H1064 H 0.82791 0.47416 0.52194 0.0
H1065 H 0.83706 0.5646 0.51379 0.0
H1066 H 0.81151 0.55103 0.49198 0.0
H1067 H 0.83312 0.55306 0.42638 0.0
C1068 C 0.76885 0.49174 0.45666 0.0
C1069 C 0.76766 0.49674 0.38335 0.0
C1070 C 0.78768 0.4971 0.49637 0.0
C1071 C 0.80572 0.5075 0.46346 0.0
C1072 C 0.80391 0.5137 0.39114 0.0
H1073 H 0.94513 0.52144 0.53557 0.0
H1074 H 0.90724 0.52171 0.49222 0.0
C1075 C 0.78506 0.50839 0.35155 0.0
C1076 C 0.82734 0.509 0.50126 0.0
H1077 H 0.86966 0.54393 0.54185 0.0
C1078 C 0.83686 0.4895 0.52732 0.0
C1079 C 0.83921 0.52894 0.50785 0.0
C1080 C 0.82961 0.55062 0.48414 0.0
C1081 C 0.85809 0.48923 0.55729 0.0
C1082 C 0.87013 0.5091 0.56259 0.0
C1083 C 0.86049 0.52868 0.53777 0.0
C1084 C 0.89308 0.50967 0.59096 0.0
C1085 C 0.86779 0.4675 0.58032 0.0
C1086 C 0.89784 0.5031 0.66146 0.0
C1087 C 0.91959 0.50286 0.68657 0.0
C1088 C 0.9371 0.50929 0.64181 0.0
C1089 C 0.93218 0.51628 0.57167 0.0
C1090 C 0.91045 0.51652 0.54672 0.0
H1091 H 0.85863 0.45333 0.55749 0.0
H1092 H 0.88529 0.46622 0.56381 0.0
H1093 H 0.86704 0.46623 0.63953 0.0
H1094 H 0.88471 0.4981 0.69712 0.0
H1095 H 0.92265 0.49749 0.74095 0.0
loop_
_geom_bond_atom_site_label_1
_geom_bond_atom_site_label_2
_geom_bond_distance
_geom_bond_site_symmetry_2
_ccdc_geom_bond_type
H0 C3 0.931 . S
H1 C6 0.928 . S
H2 C8 0.930 . S
C3 H0 0.931 . S
C3 C4 1.413 . S
C3 C5 1.360 . S
C4 C3 1.413 . S
C4 C8 1.429 . S
C5 C3 1.360 . S
C5 C6 1.372 . S
C6 H1 0.928 . S
C6 C5 1.372 . S
C6 C7 1.404 . S
C7 C6 1.404 . S
C7 C8 1.391 . S
C8 H2 0.930 . S
C8 C4 1.429 . S
C8 C7 1.391 . S
H9 C12 0.931 . S
H10 C15 0.928 . S
H11 C17 0.930 . S
C12 H9 0.931 . S
C12 C13 1.413 . S
C12 C14 1.360 . S
C13 C12 1.413 . S
C13 C17 1.429 1_655 S
C14 C12 1.360 . S
C14 C15 1.372 . S
C15 H10 0.928 . S
C15 C14 1.372 . S
C15 C16 1.404 . S
C16 C15 1.404 . S
C16 C17 1.390 1_655 S
C17 H11 0.930 . S
C17 C13 1.429 1_455 S
C17 C16 1.390 1_455 S
H18 C21 0.931 . S
H19 C24 0.928 . S
H20 C26 0.930 . S
C21 H18 0.931 . S
C21 C22 1.413 . S
C21 C23 1.360 . S
C22 C21 1.413 . S
C22 C26 1.429 1_565 S
C23 C21 1.360 . S
C23 C24 1.372 . S
C24 H19 0.928 . S
C24 C23 1.372 . S
C24 C25 1.404 . S
C25 C24 1.404 . S
C25 C26 1.390 1_565 S
C26 H20 0.930 . S
C26 C22 1.429 1_545 S
C26 C25 1.390 1_545 S
H27 C30 0.931 . S
H28 C33 0.928 . S
H29 C35 0.930 . S
C30 H27 0.931 . S
C30 C31 1.413 . S
C30 C32 1.360 . S
C31 C30 1.413 . S
C31 C35 1.429 . S
C32 C30 1.360 . S
C32 C33 1.372 . S
C33 H28 0.928 . S
C33 C32 1.372 . S
C33 C34 1.404 . S
C34 C33 1.404 . S
C34 C35 1.391 . S
C35 H29 0.930 . S
C35 C31 1.429 . S
C35 C34 1.391 . S
H36 C39 0.931 . S
H37 C42 0.928 . S
H38 C44 0.930 . S
C39 H36 0.931 . S
C39 C40 1.413 1_554 S
C39 C41 1.360 . S
C40 C39 1.413 1_556 S
C40 C44 1.429 . S
C41 C39 1.360 . S
C41 C42 1.372 . S
C42 H37 0.928 . S
C42 C41 1.372 . S
C42 C43 1.404 . S
C43 C42 1.404 . S
C43 C44 1.391 1_554 S
C44 H38 0.930 . S
C44 C40 1.429 . S
C44 C43 1.391 1_556 S
H45 C48 0.931 . S
H46 C51 0.928 . S
H47 C53 0.930 . S
C48 H45 0.931 . S
C48 C49 1.413 1_554 S
C48 C50 1.360 . S
C49 C48 1.413 1_556 S
C49 C53 1.429 1_655 S
C50 C48 1.360 . S
C50 C51 1.372 . S
C51 H46 0.928 . S
C51 C50 1.372 . S
C51 C52 1.404 . S
C52 C51 1.404 . S
C52 C53 1.391 1_654 S
C53 H47 0.930 . S
C53 C49 1.429 1_455 S
C53 C52 1.391 1_456 S
H54 C57 0.931 . S
H55 C60 0.928 . S
H56 C62 0.930 . S
C57 H54 0.931 . S
C57 C58 1.413 1_554 S
C57 C59 1.360 . S
C58 C57 1.413 1_556 S
C58 C62 1.429 1_565 S
C59 C57 1.360 . S
C59 C60 1.372 . S
C60 H55 0.928 . S
C60 C59 1.372 . S
C60 C61 1.404 . S
C61 C60 1.404 . S
C61 C62 1.391 1_564 S
C62 H56 0.930 . S
C62 C58 1.429 1_545 S
C62 C61 1.391 1_546 S
H63 C66 0.931 . S
H64 C69 0.928 . S
H65 C71 0.930 . S
C66 H63 0.931 . S
C66 C67 1.413 . S
C66 C68 1.360 1_554 S
C67 C66 1.413 . S
C67 C71 1.429 . S
C68 C66 1.360 1_556 S
C68 C69 1.372 . S
C69 H64 0.928 . S
C69 C68 1.372 . S
C69 C70 1.404 1_556 S
C70 C69 1.404 1_554 S
C70 C71 1.391 . S
C71 H65 0.930 . S
C71 C67 1.429 . S
C71 C70 1.391 . S
Pr72 C74 2.880 . S
Pr72 O92 2.562 . S
Pr72 O93 2.490 . S
Pr72 O94 2.695 1_565 S
Pr72 O95 2.512 . S
Pr72 O97 2.437 . S
Pr72 O100 2.436 1_455 S
Pr72 O102 2.438 1_565 S
Pr73 C83 2.880 . S
Pr73 O94 2.436 1_655 S
Pr73 O96 2.438 1_545 S
Pr73 O98 2.562 . S
Pr73 O99 2.490 . S
Pr73 O100 2.695 1_545 S
Pr73 O101 2.512 . S
Pr73 O103 2.437 . S
C74 Pr72 2.880 . S
C74 C75 1.491 . S
C74 O92 1.254 . S
C74 O93 1.225 . S
C75 C74 1.491 . S
C75 C76 1.392 . S
C75 C80 1.356 . S
C76 C75 1.392 . S
C76 C77 1.368 . S
C76 H104 0.929 . S
C77 C76 1.368 . S
C77 C78 1.386 . S
C77 H105 0.929 . S
C78 C77 1.386 . S
C78 C79 1.373 . S
C79 C78 1.373 . S
C79 C80 1.409 . S
C79 H106 0.912 1_455 S
C80 C75 1.356 . S
C80 C79 1.409 . S
C80 H107 0.930 1_455 S
C81 O94 1.270 1_565 S
C81 O95 1.248 . S
C82 O96 1.267 . S
C82 O97 1.278 1_655 S
C83 Pr73 2.880 . S
C83 C84 1.491 . S
C83 O98 1.254 . S
C83 O99 1.225 . S
C84 C83 1.491 . S
C84 C85 1.392 . S
C84 C89 1.356 . S
C85 C84 1.392 . S
C85 C86 1.368 . S
C85 H108 0.929 . S
C86 C85 1.368 . S
C86 C87 1.386 . S
C86 H109 0.929 . S
C87 C86 1.386 . S
C87 C88 1.373 . S
C88 C87 1.373 . S
C88 C89 1.409 . S
C88 H110 0.902 1_655 S
C89 C84 1.356 . S
C89 C88 1.409 . S
C89 H111 0.930 1_655 S
C90 O100 1.270 1_545 S
C90 O101 1.248 . S
C91 O102 1.267 . S
C91 O103 1.278 1_455 S
O92 Pr72 2.562 . S
O92 C74 1.254 . S
O93 Pr72 2.490 . S
O93 C74 1.225 . S
O94 Pr72 2.695 1_545 S
O94 Pr73 2.436 1_455 S
O94 C81 1.270 1_545 S
O95 Pr72 2.512 . S
O95 C81 1.248 . S
O96 Pr73 2.438 1_565 S
O96 C82 1.267 . S
O97 Pr72 2.437 . S
O97 C82 1.278 1_455 S
O98 Pr73 2.562 . S
O98 C83 1.254 . S
O99 Pr73 2.490 . S
O99 C83 1.225 . S
O100 Pr72 2.436 1_655 S
O100 Pr73 2.695 1_565 S
O100 C90 1.270 1_565 S
O101 Pr73 2.512 . S
O101 C90 1.248 . S
O102 Pr72 2.438 1_545 S
O102 C91 1.267 . S
O103 Pr73 2.437 . S
O103 C91 1.278 1_655 S
H104 C76 0.929 . S
H105 C77 0.929 . S
H106 C79 0.912 1_655 S
H107 C80 0.930 1_655 S
H108 C85 0.929 . S
H109 C86 0.929 . S
H110 C88 0.902 1_455 S
H111 C89 0.930 1_455 S
Pr112 C114 2.880 . S
Pr112 O132 2.562 . S
Pr112 O133 2.490 . S
Pr112 O134 2.695 . S
Pr112 O135 2.512 . S
Pr112 O137 2.437 . S
Pr112 O140 2.436 1_545 S
Pr112 O142 2.438 . S
Pr113 C123 2.880 . S
Pr113 O134 2.436 1_565 S
Pr113 O136 2.438 . S
Pr113 O138 2.562 . S
Pr113 O139 2.490 . S
Pr113 O140 2.695 . S
Pr113 O141 2.512 . S
Pr113 O143 2.437 . S
C114 Pr112 2.880 . S
C114 C115 1.491 . S
C114 O132 1.254 . S
C114 O133 1.225 . S
C115 C114 1.491 . S
C115 C116 1.392 . S
C115 C120 1.356 . S
C116 C115 1.392 . S
C116 C117 1.368 . S
C116 H144 0.929 . S
C117 C116 1.368 . S
C117 C118 1.386 . S
C117 H145 0.929 . S
C118 C117 1.386 . S
C118 C119 1.373 . S
C119 C118 1.373 . S
C119 C120 1.409 . S
C119 H146 0.888 1_545 S
C120 C115 1.356 . S
C120 C119 1.409 . S
C120 H147 0.930 1_545 S
C121 O134 1.270 . S
C121 O135 1.248 . S
C122 O136 1.267 . S
C122 O137 1.278 1_565 S
C123 Pr113 2.880 . S
C123 C124 1.491 . S
C123 O138 1.254 . S
C123 O139 1.225 . S
C124 C123 1.491 . S
C124 C125 1.392 . S
C124 C129 1.356 . S
C125 C124 1.392 . S
C125 C126 1.368 . S
C125 H148 0.929 . S
C126 C125 1.368 . S
C126 C127 1.386 . S
C126 H149 0.929 . S
C127 C126 1.386 . S
C127 C128 1.373 . S
C128 C127 1.373 . S
C128 C129 1.409 . S
C128 H150 0.931 1_565 S
C129 C124 1.356 . S
C129 C128 1.409 . S
C129 H151 0.930 1_565 S
C130 O140 1.270 . S
C130 O141 1.248 . S
C131 O142 1.267 . S
C131 O143 1.278 1_545 S
O132 Pr112 2.562 . S
O132 C114 1.254 . S
O133 Pr112 2.490 . S
O133 C114 1.225 . S
O134 Pr112 2.695 . S
O134 Pr113 2.436 1_545 S
O134 C121 1.270 . S
O135 Pr112 2.512 . S
O135 C121 1.248 . S
O136 Pr113 2.438 . S
O136 C122 1.267 . S
O137 Pr112 2.437 . S
O137 C122 1.278 1_545 S
O138 Pr113 2.562 . S
O138 C123 1.254 . S
O139 Pr113 2.490 . S
O139 C123 1.225 . S
O140 Pr112 2.436 1_565 S
O140 Pr113 2.695 . S
O140 C130 1.270 . S
O141 Pr113 2.512 . S
O141 C130 1.248 . S
O142 Pr112 2.438 . S
O142 C131 1.267 . S
O143 Pr113 2.437 . S
O143 C131 1.278 1_565 S
H144 C116 0.929 . S
H145 C117 0.929 . S
H146 C119 0.888 1_565 S
H147 C120 0.930 1_565 S
H148 C125 0.929 . S
H149 C126 0.929 . S
H150 C128 0.931 1_545 S
H151 C129 0.930 1_545 S
Pr152 C154 2.880 . S
Pr152 O172 2.562 . S
Pr152 O173 2.490 . S
Pr152 O174 2.695 . S
Pr152 O175 2.512 . S
Pr152 O177 2.437 . S
Pr152 O180 2.436 . S
Pr152 O182 2.438 . S
Pr153 C163 2.880 . S
Pr153 O174 2.436 . S
Pr153 O176 2.438 . S
Pr153 O178 2.562 . S
Pr153 O179 2.490 . S
Pr153 O180 2.695 . S
Pr153 O181 2.512 . S
Pr153 O183 2.437 . S
C154 Pr152 2.880 . S
C154 C155 1.491 . S
C154 O172 1.254 . S
C154 O173 1.225 . S
C155 C154 1.491 . S
C155 C156 1.392 . S
C155 C160 1.356 . S
C156 C155 1.392 . S
C156 C157 1.368 . S
C156 H184 0.929 . S
C157 C156 1.368 . S
C157 C158 1.386 . S
C157 H185 0.929 . S
C158 C157 1.386 . S
C158 C159 1.373 . S
C159 C158 1.373 . S
C159 C160 1.409 . S
C159 H186 0.931 . S
C160 C155 1.356 . S
C160 C159 1.409 . S
C160 H187 0.930 . S
C161 O174 1.270 . S
C161 O175 1.248 . S
C162 O176 1.267 . S
C162 O177 1.278 . S
C163 Pr153 2.880 . S
C163 C164 1.491 . S
C163 O178 1.254 . S
C163 O179 1.225 . S
C164 C163 1.491 . S
C164 C165 1.392 . S
C164 C169 1.356 . S
C165 C164 1.392 . S
C165 C166 1.368 . S
C165 H188 0.929 . S
C166 C165 1.368 . S
C166 C167 1.386 . S
C166 H189 0.929 . S
C167 C166 1.386 . S
C167 C168 1.373 . S
C168 C167 1.373 . S
C168 C169 1.409 . S
C168 H190 0.931 . S
C169 C164 1.356 . S
C169 C168 1.409 . S
C169 H191 0.930 . S
C170 O180 1.270 . S
C170 O181 1.248 . S
C171 O182 1.267 . S
C171 O183 1.278 . S
O172 Pr152 2.562 . S
O172 C154 1.254 . S
O173 Pr152 2.490 . S
O173 C154 1.225 . S
O174 Pr152 2.695 . S
O174 Pr153 2.436 . S
O174 C161 1.270 . S
O175 Pr152 2.512 . S
O175 C161 1.248 . S
O176 Pr153 2.438 . S
O176 C162 1.267 . S
O177 Pr152 2.437 . S
O177 C162 1.278 . S
O178 Pr153 2.562 . S
O178 C163 1.254 . S
O179 Pr153 2.490 . S
O179 C163 1.225 . S
O180 Pr152 2.436 . S
O180 Pr153 2.695 . S
O180 C170 1.270 . S
O181 Pr153 2.512 . S
O181 C170 1.248 . S
O182 Pr152 2.438 . S
O182 C171 1.267 . S
O183 Pr153 2.437 . S
O183 C171 1.278 . S
H184 C156 0.929 . S
H185 C157 0.929 . S
H186 C159 0.931 . S
H187 C160 0.930 . S
H188 C165 0.929 . S
H189 C166 0.929 . S
H190 C168 0.931 . S
H191 C169 0.930 . S
Pr192 C194 2.880 . S
Pr192 O212 2.562 . S
Pr192 O213 2.490 . S
Pr192 O214 2.695 1_655 S
Pr192 O215 2.512 . S
Pr192 O217 2.437 . S
Pr192 O220 2.436 . S
Pr192 O222 2.438 1_655 S
Pr193 C203 2.880 . S
Pr193 O214 2.436 . S
Pr193 O216 2.438 1_455 S
Pr193 O218 2.562 . S
Pr193 O219 2.490 . S
Pr193 O220 2.695 1_455 S
Pr193 O221 2.512 . S
Pr193 O223 2.437 . S
C194 Pr192 2.880 . S
C194 C195 1.491 . S
C194 O212 1.254 . S
C194 O213 1.225 . S
C195 C194 1.491 . S
C195 C196 1.392 . S
C195 C200 1.356 . S
C196 C195 1.392 . S
C196 C197 1.368 . S
C196 H224 0.929 . S
C197 C196 1.368 . S
C197 C198 1.386 . S
C197 H225 0.929 . S
C198 C197 1.386 . S
C198 C199 1.373 . S
C199 C198 1.373 . S
C199 C200 1.409 . S
C199 H226 0.931 . S
C200 C195 1.356 . S
C200 C199 1.409 . S
C200 H227 0.930 . S
C201 O214 1.259 1_655 S
C201 O215 1.268 . S
C202 O216 1.267 . S
C202 O217 1.278 . S
C203 Pr193 2.880 . S
C203 C204 1.491 . S
C203 O218 1.254 . S
C203 O219 1.225 . S
C204 C203 1.491 . S
C204 C205 1.392 . S
C204 C209 1.356 . S
C205 C204 1.392 . S
C205 C206 1.368 . S
C205 H228 0.929 . S
C206 C205 1.368 . S
C206 C207 1.386 . S
C206 H229 0.929 . S
C207 C206 1.386 . S
C207 C208 1.373 . S
C208 C207 1.373 . S
C208 C209 1.409 . S
C208 H230 0.931 . S
C209 C204 1.356 . S
C209 C208 1.409 . S
C209 H231 0.930 . S
C210 O220 1.255 1_455 S
C210 O221 1.274 . S
C211 O222 1.267 . S
C211 O223 1.278 . S
O212 Pr192 2.562 . S
O212 C194 1.254 . S
O213 Pr192 2.490 . S
O213 C194 1.225 . S
O214 Pr192 2.695 1_455 S
O214 Pr193 2.436 . S
O214 C201 1.259 1_455 S
O215 Pr192 2.512 . S
O215 C201 1.268 . S
O216 Pr193 2.438 1_655 S
O216 C202 1.267 . S
O217 Pr192 2.437 . S
O217 C202 1.278 . S
O218 Pr193 2.562 . S
O218 C203 1.254 . S
O219 Pr193 2.490 . S
O219 C203 1.225 . S
O220 Pr192 2.436 . S
O220 Pr193 2.695 1_655 S
O220 C210 1.255 1_655 S
O221 Pr193 2.512 . S
O221 C210 1.274 . S
O222 Pr192 2.438 1_455 S
O222 C211 1.267 . S
O223 Pr193 2.437 . S
O223 C211 1.278 . S
H224 C196 0.929 . S
H225 C197 0.929 . S
H226 C199 0.931 . S
H227 C200 0.930 . S
H228 C205 0.929 . S
H229 C206 0.929 . S
H230 C208 0.931 . S
H231 C209 0.930 . S
H232 C240 0.929 . S
H233 C242 0.930 . S
H234 C244 0.930 . S
H235 C247 0.929 . S
H236 C250 0.930 . S
H237 C252 0.965 . S
H238 C252 0.919 1_545 S
H239 C252 1.001 . S
C240 H232 0.929 . S
C240 C241 1.396 . S
C240 C242 1.384 . S
C241 C240 1.396 . S
C241 C247 1.371 1_545 S
C242 H233 0.930 . S
C242 C240 1.384 . S
C242 C243 1.372 . S
C243 C242 1.372 . S
C243 C244 1.400 1_545 S
C243 C248 1.490 . S
C244 H234 0.930 . S
C244 C243 1.400 1_565 S
C244 C247 1.386 . S
H245 C261 0.930 . S
H246 C262 0.931 . S
C247 H235 0.929 . S
C247 C241 1.371 1_565 S
C247 C244 1.386 . S
C248 C243 1.490 . S
C248 C250 1.395 . S
C248 C251 1.403 . S
H249 C255 0.931 1_565 S
C250 H236 0.930 . S
C250 C248 1.395 . S
C250 C253 1.403 . S
C251 C248 1.403 . S
C251 C252 1.522 1_545 S
C251 C255 1.400 . S
C252 H237 0.965 . S
C252 H238 0.919 1_565 S
C252 H239 1.001 . S
C252 C251 1.522 1_565 S
C253 C250 1.403 . S
C253 C254 1.392 . S
C253 C257 1.495 . S
C254 C253 1.392 . S
C254 C255 1.385 . S
C254 C256 1.478 . S
C255 H249 0.931 1_545 S
C255 C251 1.400 . S
C255 C254 1.385 . S
C256 C254 1.478 . S
C256 C258 1.381 . S
C256 C262 1.383 1_545 S
C257 C253 1.495 . S
C257 H263 0.959 . S
C257 H264 0.961 1_545 S
C257 H265 0.960 . S
C258 C256 1.381 . S
C258 C259 1.394 . S
C258 H266 0.930 . S
C259 C258 1.394 . S
C259 C260 1.383 . S
C259 H267 0.929 . S
C260 C259 1.383 . S
C260 C261 1.377 1_545 S
C261 H245 0.930 . S
C261 C260 1.377 1_565 S
C261 C262 1.379 . S
C262 H246 0.931 . S
C262 C256 1.383 1_565 S
C262 C261 1.379 . S
H263 C257 0.959 . S
H264 C257 0.961 1_565 S
H265 C257 0.960 . S
H266 C258 0.930 . S
H267 C259 0.929 . S
H268 C276 0.929 . S
H269 C278 0.930 . S
H270 C280 0.930 . S
H271 C283 0.929 . S
H272 C286 0.930 . S
H273 C288 0.960 . S
H274 C288 0.960 . S
H275 C288 0.960 . S
C276 H268 0.929 . S
C276 C277 1.377 . S
C276 C278 1.384 . S
C277 C276 1.377 . S
C277 C283 1.390 . S
C278 H269 0.930 . S
C278 C276 1.384 . S
C278 C279 1.372 . S
C279 C278 1.372 . S
C279 C280 1.400 . S
C279 C284 1.490 . S
C280 H270 0.930 . S
C280 C279 1.400 . S
C280 C283 1.386 . S
H281 C297 0.930 . S
H282 C298 0.931 . S
C283 H271 0.929 . S
C283 C277 1.390 . S
C283 C280 1.386 . S
C284 C279 1.490 . S
C284 C286 1.395 . S
C284 C287 1.403 . S
H285 C291 0.930 . S
C286 H272 0.930 . S
C286 C284 1.395 . S
C286 C289 1.403 . S
C287 C284 1.403 . S
C287 C288 1.524 . S
C287 C291 1.400 . S
C288 H273 0.960 . S
C288 H274 0.960 . S
C288 H275 0.960 . S
C288 C287 1.524 . S
C289 C286 1.403 . S
C289 C290 1.392 . S
C289 C293 1.495 . S
C290 C289 1.392 . S
C290 C291 1.385 . S
C290 C292 1.478 . S
C291 H285 0.930 . S
C291 C287 1.400 . S
C291 C290 1.385 . S
C292 C290 1.478 . S
C292 C294 1.381 . S
C292 C298 1.383 . S
C293 C289 1.495 . S
C293 H299 0.959 . S
C293 H300 0.961 . S
C293 H301 0.960 . S
C294 C292 1.381 . S
C294 C295 1.394 . S
C294 H302 0.930 . S
C295 C294 1.394 . S
C295 C296 1.383 . S
C295 H303 0.929 . S
C296 C295 1.383 . S
C296 C297 1.377 . S
C297 H281 0.930 . S
C297 C296 1.377 . S
C297 C298 1.379 . S
C298 H282 0.931 . S
C298 C292 1.383 . S
C298 C297 1.379 . S
H299 C293 0.959 . S
H300 C293 0.961 . S
H301 C293 0.960 . S
H302 C294 0.930 . S
H303 C295 0.929 . S
H304 C312 0.929 . S
H305 C314 0.930 . S
H306 C316 0.930 . S
H307 C319 0.929 . S
H308 C322 0.930 . S
H309 C324 0.960 . S
H310 C324 0.960 . S
H311 C324 0.960 . S
C312 H304 0.929 . S
C312 C313 1.377 . S
C312 C314 1.384 . S
C313 C312 1.377 . S
C313 C319 1.390 . S
C314 H305 0.930 . S
C314 C312 1.384 . S
C314 C315 1.372 . S
C315 C314 1.372 . S
C315 C316 1.400 . S
C315 C320 1.490 . S
C316 H306 0.930 . S
C316 C315 1.400 . S
C316 C319 1.386 . S
H317 C333 0.930 . S
H318 C334 0.931 . S
C319 H307 0.929 . S
C319 C313 1.390 . S
C319 C316 1.386 . S
C320 C315 1.490 . S
C320 C322 1.395 . S
C320 C323 1.403 . S
H321 C327 0.930 . S
C322 H308 0.930 . S
C322 C320 1.395 . S
C322 C325 1.403 . S
C323 C320 1.403 . S
C323 C324 1.524 . S
C323 C327 1.400 . S
C324 H309 0.960 . S
C324 H310 0.960 . S
C324 H311 0.960 . S
C324 C323 1.524 . S
C325 C322 1.403 . S
C325 C326 1.392 . S
C325 C329 1.495 . S
C326 C325 1.392 . S
C326 C327 1.385 . S
C326 C328 1.478 . S
C327 H321 0.930 . S
C327 C323 1.400 . S
C327 C326 1.385 . S
C328 C326 1.478 . S
C328 C330 1.381 . S
C328 C334 1.383 . S
C329 C325 1.495 . S
C329 H335 0.959 . S
C329 H336 0.961 . S
C329 H337 0.960 . S
C330 C328 1.381 . S
C330 C331 1.394 . S
C330 H338 0.930 . S
C331 C330 1.394 . S
C331 C332 1.383 . S
C331 H339 0.929 . S
C332 C331 1.383 . S
C332 C333 1.377 . S
C333 H317 0.930 . S
C333 C332 1.377 . S
C333 C334 1.379 . S
C334 H318 0.931 . S
C334 C328 1.383 . S
C334 C333 1.379 . S
H335 C329 0.959 . S
H336 C329 0.961 . S
H337 C329 0.960 . S
H338 C330 0.930 . S
H339 C331 0.929 . S
H340 C348 0.929 . S
H341 C350 0.930 . S
H342 C352 0.930 . S
H343 C355 0.929 . S
H344 C358 0.930 . S
H345 C360 0.960 . S
H346 C360 0.960 . S
H347 C360 0.958 1_455 S
C348 H340 0.929 . S
C348 C349 1.378 . S
C348 C350 1.384 . S
C349 C348 1.378 . S
C349 C355 1.389 1_655 S
C350 H341 0.930 . S
C350 C348 1.384 . S
C350 C351 1.387 . S
C351 C350 1.387 . S
C351 C352 1.385 1_655 S
C351 C356 1.490 . S
C352 H342 0.930 . S
C352 C351 1.385 1_455 S
C352 C355 1.386 . S
H353 C369 0.930 . S
H354 C370 0.931 . S
C355 H343 0.929 . S
C355 C349 1.389 1_455 S
C355 C352 1.386 . S
C356 C351 1.490 . S
C356 C358 1.394 1_655 S
C356 C359 1.403 . S
H357 C363 0.930 . S
C358 H344 0.930 . S
C358 C356 1.394 1_455 S
C358 C361 1.403 . S
C359 C356 1.403 . S
C359 C360 1.524 . S
C359 C363 1.400 . S
C360 H345 0.960 . S
C360 H346 0.960 . S
C360 H347 0.958 1_655 S
C360 C359 1.524 . S
C361 C358 1.403 . S
C361 C362 1.392 . S
C361 C365 1.495 . S
C362 C361 1.392 . S
C362 C363 1.385 1_455 S
C362 C364 1.478 . S
C363 H357 0.930 . S
C363 C359 1.400 . S
C363 C362 1.385 1_655 S
C364 C362 1.478 . S
C364 C366 1.381 1_455 S
C364 C370 1.383 . S
C365 C361 1.495 . S
C365 H371 0.959 . S
C365 H372 0.961 . S
C365 H373 0.942 1_455 S
C366 C364 1.381 1_655 S
C366 C367 1.394 . S
C366 H374 0.930 . S
C367 C366 1.394 . S
C367 C368 1.383 1_655 S
C367 H375 0.929 . S
C368 C367 1.383 1_455 S
C368 C369 1.377 . S
C369 H353 0.930 . S
C369 C368 1.377 . S
C369 C370 1.379 . S
C370 H354 0.931 . S
C370 C364 1.383 . S
C370 C369 1.379 . S
H371 C365 0.959 . S
H372 C365 0.961 . S
H373 C365 0.942 1_655 S
H374 C366 0.930 . S
H375 C367 0.929 . S
H376 C384 0.929 . S
H377 C386 0.930 . S
H378 C388 0.930 . S
H379 C391 0.929 . S
H380 C394 0.930 . S
H381 C396 0.960 . S
H382 C396 0.960 . S
H383 C396 0.960 . S
C384 H376 0.929 . S
C384 C385 1.378 . S
C384 C386 1.384 . S
C385 C384 1.378 . S
C385 C391 1.389 1_565 S
C386 H377 0.930 . S
C386 C384 1.384 . S
C386 C387 1.372 . S
C387 C386 1.372 . S
C387 C388 1.400 1_565 S
C387 C392 1.490 . S
C388 H378 0.930 . S
C388 C387 1.400 1_545 S
C388 C391 1.386 . S
H389 C405 0.930 . S
H390 C406 0.931 . S
C391 H379 0.929 . S
C391 C385 1.389 1_545 S
C391 C388 1.386 . S
C392 C387 1.490 . S
C392 C394 1.395 . S
C392 C395 1.403 1_565 S
H393 C399 0.930 . S
C394 H380 0.930 . S
C394 C392 1.395 . S
C394 C397 1.404 . S
C395 C392 1.403 1_545 S
C395 C396 1.524 . S
C395 C399 1.400 . S
C396 H381 0.960 . S
C396 H382 0.960 . S
C396 H383 0.960 . S
C396 C395 1.524 . S
C397 C394 1.404 . S
C397 C398 1.392 1_554 S
C397 C401 1.494 1_554 S
C398 C397 1.392 1_556 S
C398 C399 1.385 1_566 S
C398 C400 1.478 . S
C399 H393 0.930 . S
C399 C395 1.400 . S
C399 C398 1.385 1_544 S
C400 C398 1.478 . S
C400 C402 1.381 . S
C400 C406 1.383 1_565 S
C401 C397 1.494 1_556 S
C401 H407 0.959 . S
C401 H408 0.961 . S
C401 H409 0.960 . S
C402 C400 1.381 . S
C402 C403 1.394 . S
C402 H410 0.930 . S
C403 C402 1.394 . S
C403 C404 1.383 . S
C403 H411 0.929 . S
C404 C403 1.383 . S
C404 C405 1.377 1_565 S
C405 H389 0.930 . S
C405 C404 1.377 1_545 S
C405 C406 1.379 . S
C406 H390 0.931 . S
C406 C400 1.383 1_545 S
C406 C405 1.379 . S
H407 C401 0.959 . S
H408 C401 0.961 . S
H409 C401 0.960 . S
H410 C402 0.930 . S
H411 C403 0.929 . S
H412 C420 0.929 . S
H413 C422 0.930 . S
H414 C424 0.930 . S
H415 C427 0.929 . S
H416 C430 0.930 . S
H417 C432 0.960 . S
H418 C432 0.960 . S
H419 C432 0.960 . S
C420 H412 0.929 . S
C420 C421 1.377 . S
C420 C422 1.384 . S
C421 C420 1.377 . S
C421 C427 1.390 . S
C422 H413 0.930 . S
C422 C420 1.384 . S
C422 C423 1.372 . S
C423 C422 1.372 . S
C423 C424 1.400 . S
C423 C428 1.490 . S
C424 H414 0.930 . S
C424 C423 1.400 . S
C424 C427 1.386 . S
H425 C441 0.930 . S
H426 C442 0.931 . S
C427 H415 0.929 . S
C427 C421 1.390 . S
C427 C424 1.386 . S
C428 C423 1.490 . S
C428 C430 1.395 . S
C428 C431 1.403 . S
H429 C435 0.930 . S
C430 H416 0.930 . S
C430 C428 1.395 . S
C430 C433 1.403 1_554 S
C431 C428 1.403 . S
C431 C432 1.524 . S
C431 C435 1.400 . S
C432 H417 0.960 . S
C432 H418 0.960 . S
C432 H419 0.960 . S
C432 C431 1.524 . S
C433 C430 1.403 1_556 S
C433 C434 1.392 . S
C433 C437 1.495 . S
C434 C433 1.392 . S
C434 C435 1.385 1_556 S
C434 C436 1.478 . S
C435 H429 0.930 . S
C435 C431 1.400 . S
C435 C434 1.385 1_554 S
C436 C434 1.478 . S
C436 C438 1.381 . S
C436 C442 1.383 . S
C437 C433 1.495 . S
C437 H443 0.959 . S
C437 H444 0.961 . S
C437 H445 0.960 . S
C438 C436 1.381 . S
C438 C439 1.394 . S
C438 H446 0.930 . S
C439 C438 1.394 . S
C439 C440 1.383 . S
C439 H447 0.929 . S
C440 C439 1.383 . S
C440 C441 1.377 . S
C441 H425 0.930 . S
C441 C440 1.377 . S
C441 C442 1.379 . S
C442 H426 0.931 . S
C442 C436 1.383 . S
C442 C441 1.379 . S
H443 C437 0.959 . S
H444 C437 0.961 . S
H445 C437 0.960 . S
H446 C438 0.930 . S
H447 C439 0.929 . S
H448 C456 0.929 . S
H449 C458 0.930 . S
H450 C460 0.930 . S
H451 C463 0.929 . S
H452 C466 0.930 . S
H453 C468 0.960 1_556 S
H454 C468 0.960 . S
H455 C468 0.960 . S
C456 H448 0.929 . S
C456 C457 1.377 . S
C456 C458 1.384 . S
C457 C456 1.377 . S
C457 C463 1.390 . S
C458 H449 0.930 . S
C458 C456 1.384 . S
C458 C459 1.372 . S
C459 C458 1.372 . S
C459 C460 1.400 . S
C459 C464 1.490 . S
C460 H450 0.930 . S
C460 C459 1.400 . S
C460 C463 1.386 . S
H461 C477 0.930 . S
H462 C478 0.931 . S
C463 H451 0.929 . S
C463 C457 1.390 . S
C463 C460 1.386 . S
C464 C459 1.490 . S
C464 C466 1.395 . S
C464 C467 1.403 . S
H465 C471 0.930 . S
C466 H452 0.930 . S
C466 C464 1.395 . S
C466 C469 1.403 . S
C467 C464 1.403 . S
C467 C468 1.524 . S
C467 C471 1.400 1_554 S
C468 H453 0.960 1_554 S
C468 H454 0.960 . S
C468 H455 0.960 . S
C468 C467 1.524 . S
C469 C466 1.403 . S
C469 C470 1.392 . S
C469 C473 1.495 . S
C470 C469 1.392 . S
C470 C471 1.385 1_554 S
C470 C472 1.478 1_554 S
C471 H465 0.930 . S
C471 C467 1.400 1_556 S
C471 C470 1.385 1_556 S
C472 C470 1.478 1_556 S
C472 C474 1.381 . S
C472 C478 1.383 . S
C473 C469 1.495 . S
C473 H479 0.959 . S
C473 H480 0.961 . S
C473 H481 0.960 . S
C474 C472 1.381 . S
C474 C475 1.394 . S
C474 H482 0.930 . S
C475 C474 1.394 . S
C475 C476 1.383 . S
C475 H483 0.929 . S
C476 C475 1.383 . S
C476 C477 1.377 . S
C477 H461 0.930 . S
C477 C476 1.377 . S
C477 C478 1.379 . S
C478 H462 0.931 . S
C478 C472 1.383 . S
C478 C477 1.379 . S
H479 C473 0.959 . S
H480 C473 0.961 . S
H481 C473 0.960 . S
H482 C474 0.930 . S
H483 C475 0.929 . S
H484 C492 0.929 . S
H485 C494 0.930 . S
H486 C496 0.930 . S
H487 C499 0.929 . S
H488 C502 0.930 . S
H489 C504 0.960 . S
H490 C504 0.960 1_655 S
H491 C504 0.960 . S
C492 H484 0.929 . S
C492 C493 1.398 . S
C492 C494 1.384 . S
C493 C492 1.398 . S
C493 C499 1.370 1_655 S
C494 H485 0.930 . S
C494 C492 1.384 . S
C494 C495 1.372 . S
C495 C494 1.372 . S
C495 C496 1.400 1_655 S
C495 C500 1.490 . S
C496 H486 0.930 . S
C496 C495 1.400 1_455 S
C496 C499 1.386 . S
H497 C513 0.930 . S
H498 C514 0.931 . S
C499 H487 0.929 . S
C499 C493 1.370 1_455 S
C499 C496 1.386 . S
C500 C495 1.490 . S
C500 C502 1.395 . S
C500 C503 1.400 1_655 S
H501 C507 0.934 . S
C502 H488 0.930 . S
C502 C500 1.395 . S
C502 C505 1.403 1_554 S
C503 C500 1.400 1_455 S
C503 C504 1.526 . S
C503 C507 1.400 . S
C504 H489 0.960 . S
C504 H490 0.960 1_455 S
C504 H491 0.960 . S
C504 C503 1.526 . S
C505 C502 1.403 1_556 S
C505 C506 1.392 . S
C505 C509 1.495 . S
C506 C505 1.392 . S
C506 C507 1.382 1_656 S
C506 C508 1.478 . S
C507 H501 0.934 . S
C507 C503 1.400 . S
C507 C506 1.382 1_454 S
C508 C506 1.478 . S
C508 C510 1.381 . S
C508 C514 1.383 1_655 S
C509 C505 1.495 . S
C509 H515 0.959 . S
C509 H516 0.961 1_655 S
C509 H517 0.960 . S
C510 C508 1.381 . S
C510 C511 1.394 . S
C510 H518 0.930 . S
C511 C510 1.394 . S
C511 C512 1.383 . S
C511 H519 0.929 . S
C512 C511 1.383 . S
C512 C513 1.377 1_655 S
C513 H497 0.930 . S
C513 C512 1.377 1_455 S
C513 C514 1.379 . S
C514 H498 0.931 . S
C514 C508 1.383 1_455 S
C514 C513 1.379 . S
H515 C509 0.959 . S
H516 C509 0.961 1_455 S
H517 C509 0.960 . S
H518 C510 0.930 . S
H519 C511 0.929 . S
H520 C528 0.929 . S
H521 C530 0.930 . S
H522 C532 0.930 . S
H523 C535 0.929 . S
H524 C538 0.930 . S
H525 C540 0.960 . S
H526 C540 0.960 1_455 S
H527 C540 0.960 . S
C528 H520 0.929 . S
C528 C529 1.377 . S
C528 C530 1.384 . S
C529 C528 1.377 . S
C529 C535 1.390 1_455 S
C530 H521 0.930 . S
C530 C528 1.384 . S
C530 C531 1.372 1_455 S
C531 C530 1.372 1_655 S
C531 C532 1.400 . S
C531 C536 1.490 . S
C532 H522 0.930 . S
C532 C531 1.400 . S
C532 C535 1.386 . S
H533 C549 0.930 . S
H534 C550 0.931 . S
C535 H523 0.929 . S
C535 C529 1.390 1_655 S
C535 C532 1.386 . S
C536 C531 1.490 . S
C536 C538 1.395 . S
C536 C539 1.403 . S
H537 C543 0.930 . S
C538 H524 0.930 . S
C538 C536 1.395 . S
C538 C541 1.403 . S
C539 C536 1.403 . S
C539 C540 1.524 . S
C539 C543 1.400 . S
C540 H525 0.960 . S
C540 H526 0.960 1_655 S
C540 H527 0.960 . S
C540 C539 1.524 . S
C541 C538 1.403 . S
C541 C542 1.392 . S
C541 C545 1.495 . S
C542 C541 1.392 . S
C542 C543 1.385 . S
C542 C544 1.478 . S
C543 H537 0.930 . S
C543 C539 1.400 . S
C543 C542 1.385 . S
C544 C542 1.478 . S
C544 C546 1.381 . S
C544 C550 1.383 . S
C545 C541 1.495 . S
C545 H551 0.959 . S
C545 H552 0.961 . S
C545 H553 0.960 . S
C546 C544 1.381 . S
C546 C547 1.394 . S
C546 H554 0.929 . S
C547 C546 1.394 . S
C547 C548 1.383 . S
C547 H555 0.929 . S
C548 C547 1.383 . S
C548 C549 1.377 . S
C549 H533 0.930 . S
C549 C548 1.377 . S
C549 C550 1.379 . S
C550 H534 0.931 . S
C550 C544 1.383 . S
C550 C549 1.379 . S
H551 C545 0.959 . S
H552 C545 0.961 . S
H553 C545 0.960 . S
H554 C546 0.929 . S
H555 C547 0.929 . S
H556 C564 0.929 . S
H557 C566 0.930 . S
H558 C568 0.930 . S
H559 C571 0.929 . S
H560 C574 0.930 . S
H561 C576 0.960 . S
H562 C576 0.960 . S
H563 C576 0.966 . S
C564 H556 0.929 . S
C564 C565 1.377 . S
C564 C566 1.384 . S
C565 C564 1.377 . S
C565 C571 1.390 1_545 S
C566 H557 0.930 . S
C566 C564 1.384 . S
C566 C567 1.372 1_545 S
C567 C566 1.372 1_565 S
C567 C568 1.400 . S
C567 C572 1.490 . S
C568 H558 0.930 . S
C568 C567 1.400 . S
C568 C571 1.386 . S
H569 C585 0.930 . S
H570 C586 0.931 . S
C571 H559 0.929 . S
C571 C565 1.390 1_565 S
C571 C568 1.386 . S
C572 C567 1.490 . S
C572 C574 1.395 . S
C572 C575 1.403 . S
H573 C579 0.930 . S
C574 H560 0.930 . S
C574 C572 1.395 . S
C574 C577 1.403 . S
C575 C572 1.403 . S
C575 C576 1.524 1_565 S
C575 C579 1.400 . S
C576 H561 0.960 . S
C576 H562 0.960 . S
C576 H563 0.966 . S
C576 C575 1.524 1_545 S
C577 C574 1.403 . S
C577 C578 1.392 . S
C577 C581 1.495 . S
C578 C577 1.392 . S
C578 C579 1.385 . S
C578 C580 1.478 . S
C579 H573 0.930 . S
C579 C575 1.400 . S
C579 C578 1.385 . S
C580 C578 1.478 . S
C580 C582 1.381 . S
C580 C586 1.383 . S
C581 C577 1.495 . S
C581 H587 0.959 . S
C581 H588 0.961 . S
C581 H589 0.960 . S
C582 C580 1.381 . S
C582 C583 1.394 . S
C582 H590 0.930 . S
C583 C582 1.394 . S
C583 C584 1.383 . S
C583 H591 0.929 . S
C584 C583 1.383 . S
C584 C585 1.377 . S
C585 H569 0.930 . S
C585 C584 1.377 . S
C585 C586 1.379 . S
C586 H570 0.931 . S
C586 C580 1.383 . S
C586 C585 1.379 . S
H587 C581 0.959 . S
H588 C581 0.961 . S
H589 C581 0.960 . S
H590 C582 0.930 . S
H591 C583 0.929 . S
H592 C600 0.929 . S
H593 C602 0.930 . S
H594 C604 0.930 . S
H595 C607 0.929 . S
H596 C610 0.930 . S
H597 C612 0.960 . S
H598 C612 0.960 . S
H599 C612 0.960 . S
C600 H592 0.929 . S
C600 C601 1.377 . S
C600 C602 1.384 . S
C601 C600 1.377 . S
C601 C607 1.390 . S
C602 H593 0.930 . S
C602 C600 1.384 . S
C602 C603 1.372 . S
C603 C602 1.372 . S
C603 C604 1.400 . S
C603 C608 1.490 . S
C604 H594 0.930 . S
C604 C603 1.400 . S
C604 C607 1.386 . S
H605 C621 0.930 . S
H606 C622 0.931 . S
C607 H595 0.929 . S
C607 C601 1.390 . S
C607 C604 1.386 . S
C608 C603 1.490 . S
C608 C610 1.395 . S
C608 C611 1.403 . S
H609 C615 0.930 . S
C610 H596 0.930 . S
C610 C608 1.395 . S
C610 C613 1.403 . S
C611 C608 1.403 . S
C611 C612 1.524 . S
C611 C615 1.400 . S
C612 H597 0.960 . S
C612 H598 0.960 . S
C612 H599 0.960 . S
C612 C611 1.524 . S
C613 C610 1.403 . S
C613 C614 1.392 . S
C613 C617 1.495 . S
C614 C613 1.392 . S
C614 C615 1.385 . S
C614 C616 1.478 . S
C615 H609 0.930 . S
C615 C611 1.400 . S
C615 C614 1.385 . S
C616 C614 1.478 . S
C616 C618 1.381 . S
C616 C622 1.383 . S
C617 C613 1.495 . S
C617 H623 0.959 . S
C617 H624 0.961 . S
C617 H625 0.960 . S
C618 C616 1.381 . S
C618 C619 1.394 . S
C618 H626 0.930 . S
C619 C618 1.394 . S
C619 C620 1.383 . S
C619 H627 0.929 . S
C620 C619 1.383 . S
C620 C621 1.377 . S
C621 H605 0.930 . S
C621 C620 1.377 . S
C621 C622 1.379 . S
C622 H606 0.931 . S
C622 C616 1.383 . S
C622 C621 1.379 . S
H623 C617 0.959 . S
H624 C617 0.961 . S
H625 C617 0.960 . S
H626 C618 0.930 . S
H627 C619 0.929 . S
H628 C636 0.929 . S
H629 C638 0.930 . S
H630 C640 0.930 . S
H631 C643 0.929 . S
H632 C646 0.930 . S
H633 C648 0.960 . S
H634 C648 0.960 . S
H635 C648 0.960 . S
C636 H628 0.929 . S
C636 C637 1.377 . S
C636 C638 1.384 . S
C637 C636 1.377 . S
C637 C643 1.390 . S
C638 H629 0.930 . S
C638 C636 1.384 . S
C638 C639 1.372 . S
C639 C638 1.372 . S
C639 C640 1.400 . S
C639 C644 1.490 . S
C640 H630 0.930 . S
C640 C639 1.400 . S
C640 C643 1.386 . S
H641 C657 0.930 . S
H642 C658 0.931 . S
C643 H631 0.929 . S
C643 C637 1.390 . S
C643 C640 1.386 . S
C644 C639 1.490 . S
C644 C646 1.395 . S
C644 C647 1.403 . S
H645 C651 0.930 . S
C646 H632 0.930 . S
C646 C644 1.395 . S
C646 C649 1.403 . S
C647 C644 1.403 . S
C647 C648 1.524 . S
C647 C651 1.400 . S
C648 H633 0.960 . S
C648 H634 0.960 . S
C648 H635 0.960 . S
C648 C647 1.524 . S
C649 C646 1.403 . S
C649 C650 1.392 . S
C649 C653 1.495 . S
C650 C649 1.392 . S
C650 C651 1.385 . S
C650 C652 1.478 . S
C651 H645 0.930 . S
C651 C647 1.400 . S
C651 C650 1.385 . S
C652 C650 1.478 . S
C652 C654 1.381 . S
C652 C658 1.383 . S
C653 C649 1.495 . S
C653 H659 0.959 . S
C653 H660 0.961 . S
C653 H661 0.960 . S
C654 C652 1.381 . S
C654 C655 1.394 . S
C654 H662 0.930 . S
C655 C654 1.394 . S
C655 C656 1.383 . S
C655 H663 0.929 . S
C656 C655 1.383 . S
C656 C657 1.377 . S
C657 H641 0.930 . S
C657 C656 1.377 . S
C657 C658 1.379 . S
C658 H642 0.931 . S
C658 C652 1.383 . S
C658 C657 1.379 . S
H659 C653 0.959 . S
H660 C653 0.961 . S
H661 C653 0.960 . S
H662 C654 0.930 . S
H663 C655 0.929 . S
H664 C672 0.929 . S
H665 C674 0.930 . S
H666 C676 0.930 . S
H667 C679 0.929 . S
H668 C682 0.902 1_655 S
H669 C684 0.960 . S
H670 C684 0.960 . S
H671 C684 0.960 . S
C672 H664 0.929 . S
C672 C673 1.377 . S
C672 C674 1.384 . S
C673 C672 1.377 . S
C673 C679 1.390 1_655 S
C674 H665 0.930 . S
C674 C672 1.384 . S
C674 C675 1.372 1_655 S
C675 C674 1.372 1_455 S
C675 C676 1.400 . S
C675 C680 1.490 . S
C676 H666 0.930 . S
C676 C675 1.400 . S
C676 C679 1.386 . S
H677 C693 0.930 . S
H678 C694 0.931 . S
C679 H667 0.929 . S
C679 C673 1.390 1_455 S
C679 C676 1.386 . S
C680 C675 1.490 . S
C680 C682 1.415 . S
C680 C683 1.403 . S
H681 C687 0.930 . S
C682 H668 0.902 1_455 S
C682 C680 1.415 . S
C682 C685 1.412 . S
C683 C680 1.403 . S
C683 C684 1.524 . S
C683 C687 1.400 . S
C684 H669 0.960 . S
C684 H670 0.960 . S
C684 H671 0.960 . S
C684 C683 1.524 . S
C685 C682 1.412 . S
C685 C686 1.392 . S
C685 C689 1.495 1_455 S
C686 C685 1.392 . S
C686 C687 1.385 . S
C686 C688 1.478 . S
C687 H681 0.930 . S
C687 C683 1.400 . S
C687 C686 1.385 . S
C688 C686 1.478 . S
C688 C690 1.381 1_554 S
C688 C694 1.383 . S
C689 C685 1.495 1_655 S
C689 H695 0.959 . S
C689 H696 0.961 1_655 S
C689 H697 0.960 . S
C690 C688 1.381 1_556 S
C690 C691 1.394 . S
C690 H698 0.930 1_455 S
C691 C690 1.394 . S
C691 C692 1.383 . S
C691 H699 0.929 . S
C692 C691 1.383 . S
C692 C693 1.377 . S
C693 H677 0.930 . S
C693 C692 1.377 . S
C693 C694 1.379 1_556 S
C694 H678 0.931 . S
C694 C688 1.383 . S
C694 C693 1.379 1_554 S
H695 C689 0.959 . S
H696 C689 0.961 1_455 S
H697 C689 0.960 . S
H698 C690 0.930 1_655 S
H699 C691 0.929 . S
H700 C708 0.929 1_565 S
H701 C710 0.930 . S
H702 C712 0.930 . S
H703 C715 0.929 1_565 S
H704 C718 0.930 . S
H705 C720 0.960 . S
H706 C720 0.960 . S
H707 C720 0.960 . S
C708 H700 0.929 1_545 S
C708 C709 1.377 1_545 S
C708 C710 1.384 . S
C709 C708 1.377 1_565 S
C709 C715 1.389 1_565 S
C710 H701 0.930 . S
C710 C708 1.384 . S
C710 C711 1.372 . S
C711 C710 1.372 . S
C711 C712 1.400 . S
C711 C716 1.490 . S
C712 H702 0.930 . S
C712 C711 1.400 . S
C712 C715 1.387 . S
H713 C729 0.930 . S
H714 C730 0.931 . S
C715 H703 0.929 1_545 S
C715 C709 1.389 1_545 S
C715 C712 1.387 . S
C716 C711 1.490 . S
C716 C718 1.395 . S
C716 C719 1.403 1_545 S
H717 C723 0.930 1_565 S
C718 H704 0.930 . S
C718 C716 1.395 . S
C718 C721 1.403 . S
C719 C716 1.403 1_565 S
C719 C720 1.524 . S
C719 C723 1.400 1_565 S
C720 H705 0.960 . S
C720 H706 0.960 . S
C720 H707 0.960 . S
C720 C719 1.524 . S
C721 C718 1.403 . S
C721 C722 1.392 . S
C721 C725 1.495 . S
C722 C721 1.392 . S
C722 C723 1.385 . S
C722 C724 1.478 . S
C723 H717 0.930 1_545 S
C723 C719 1.400 1_545 S
C723 C722 1.385 . S
C724 C722 1.478 . S
C724 C726 1.381 . S
C724 C730 1.383 1_554 S
C725 C721 1.495 . S
C725 H731 0.959 . S
C725 H732 0.961 . S
C725 H733 0.960 . S
C726 C724 1.381 . S
C726 C727 1.394 . S
C726 H734 0.930 . S
C727 C726 1.394 . S
C727 C728 1.383 1_554 S
C727 H735 0.929 . S
C728 C727 1.383 1_556 S
C728 C729 1.377 . S
C729 H713 0.930 . S
C729 C728 1.377 . S
C729 C730 1.379 . S
C730 H714 0.931 . S
C730 C724 1.383 1_556 S
C730 C729 1.379 . S
H731 C725 0.959 . S
H732 C725 0.961 . S
H733 C725 0.960 . S
H734 C726 0.930 . S
H735 C727 0.929 . S
H736 C744 0.929 . S
H737 C746 0.930 . S
H738 C748 0.930 . S
H739 C751 0.929 . S
H740 C754 0.930 . S
H741 C756 0.960 . S
H742 C756 0.960 . S
H743 C756 0.960 . S
C744 H736 0.929 . S
C744 C745 1.377 . S
C744 C746 1.384 . S
C745 C744 1.377 . S
C745 C751 1.390 . S
C746 H737 0.930 . S
C746 C744 1.384 . S
C746 C747 1.372 . S
C747 C746 1.372 . S
C747 C748 1.400 . S
C747 C752 1.490 . S
C748 H738 0.930 . S
C748 C747 1.400 . S
C748 C751 1.386 . S
H749 C765 0.930 . S
H750 C766 0.931 . S
C751 H739 0.929 . S
C751 C745 1.390 . S
C751 C748 1.386 . S
C752 C747 1.490 . S
C752 C754 1.395 . S
C752 C755 1.403 . S
H753 C759 0.930 . S
C754 H740 0.930 . S
C754 C752 1.395 . S
C754 C757 1.403 . S
C755 C752 1.403 . S
C755 C756 1.524 . S
C755 C759 1.400 . S
C756 H741 0.960 . S
C756 H742 0.960 . S
C756 H743 0.960 . S
C756 C755 1.524 . S
C757 C754 1.403 . S
C757 C758 1.392 . S
C757 C761 1.495 . S
C758 C757 1.392 . S
C758 C759 1.385 . S
C758 C760 1.478 . S
C759 H753 0.930 . S
C759 C755 1.400 . S
C759 C758 1.385 . S
C760 C758 1.478 . S
C760 C762 1.381 . S
C760 C766 1.383 1_554 S
C761 C757 1.495 . S
C761 H767 0.959 . S
C761 H768 0.961 . S
C761 H769 0.960 . S
C762 C760 1.381 . S
C762 C763 1.394 . S
C762 H770 0.930 . S
C763 C762 1.394 . S
C763 C764 1.383 1_554 S
C763 H771 0.929 . S
C764 C763 1.383 1_556 S
C764 C765 1.377 . S
C765 H749 0.930 . S
C765 C764 1.377 . S
C765 C766 1.379 . S
C766 H750 0.931 . S
C766 C760 1.383 1_556 S
C766 C765 1.379 . S
H767 C761 0.959 . S
H768 C761 0.961 . S
H769 C761 0.960 . S
H770 C762 0.930 . S
H771 C763 0.929 . S
H772 C780 0.929 . S
H773 C782 0.930 . S
H774 C784 0.930 . S
H775 C787 0.929 . S
H776 C790 0.930 . S
H777 C792 0.960 . S
H778 C792 0.960 . S
H779 C792 0.960 . S
C780 H772 0.929 . S
C780 C781 1.377 . S
C780 C782 1.384 . S
C781 C780 1.377 . S
C781 C787 1.390 . S
C782 H773 0.930 . S
C782 C780 1.384 . S
C782 C783 1.372 . S
C783 C782 1.372 . S
C783 C784 1.400 . S
C783 C788 1.490 . S
C784 H774 0.930 . S
C784 C783 1.400 . S
C784 C787 1.386 . S
H785 C801 0.930 . S
H786 C802 0.931 . S
C787 H775 0.929 . S
C787 C781 1.390 . S
C787 C784 1.386 . S
C788 C783 1.490 . S
C788 C790 1.395 . S
C788 C791 1.403 . S
H789 C795 0.930 . S
C790 H776 0.930 . S
C790 C788 1.395 . S
C790 C793 1.403 . S
C791 C788 1.403 . S
C791 C792 1.524 . S
C791 C795 1.400 . S
C792 H777 0.960 . S
C792 H778 0.960 . S
C792 H779 0.960 . S
C792 C791 1.524 . S
C793 C790 1.403 . S
C793 C794 1.392 . S
C793 C797 1.495 . S
C794 C793 1.392 . S
C794 C795 1.385 . S
C794 C796 1.478 . S
C795 H789 0.930 . S
C795 C791 1.400 . S
C795 C794 1.385 . S
C796 C794 1.478 . S
C796 C798 1.381 1_554 S
C796 C802 1.383 . S
C797 C793 1.495 . S
C797 H803 0.959 . S
C797 H804 0.961 . S
C797 H805 0.960 . S
C798 C796 1.381 1_556 S
C798 C799 1.394 . S
C798 H806 0.930 . S
C799 C798 1.394 . S
C799 C800 1.383 . S
C799 H807 0.929 . S
C800 C799 1.383 . S
C800 C801 1.377 1_556 S
C801 H785 0.930 . S
C801 C800 1.377 1_554 S
C801 C802 1.379 . S
C802 H786 0.931 . S
C802 C796 1.383 . S
C802 C801 1.379 . S
H803 C797 0.959 . S
H804 C797 0.961 . S
H805 C797 0.960 . S
H806 C798 0.930 . S
H807 C799 0.929 . S
H808 C816 0.929 . S
H809 C818 0.930 . S
H810 C820 0.930 . S
H811 C823 0.929 . S
H812 C826 0.930 . S
H813 C828 0.960 . S
H814 C828 0.960 . S
H815 C828 0.960 . S
C816 H808 0.929 . S
C816 C817 1.377 1_655 S
C816 C818 1.384 . S
C817 C816 1.377 1_455 S
C817 C823 1.390 . S
C818 H809 0.930 . S
C818 C816 1.384 . S
C818 C819 1.372 1_655 S
C819 C818 1.372 1_455 S
C819 C820 1.400 . S
C819 C824 1.490 . S
C820 H810 0.930 . S
C820 C819 1.400 . S
C820 C823 1.386 . S
H821 C837 0.930 . S
H822 C838 0.931 . S
C823 H811 0.929 . S
C823 C817 1.390 . S
C823 C820 1.386 . S
C824 C819 1.490 . S
C824 C826 1.395 1_455 S
C824 C827 1.403 . S
H825 C831 0.930 . S
C826 H812 0.930 . S
C826 C824 1.395 1_655 S
C826 C829 1.403 . S
C827 C824 1.403 . S
C827 C828 1.524 . S
C827 C831 1.400 . S
C828 H813 0.960 . S
C828 H814 0.960 . S
C828 H815 0.960 . S
C828 C827 1.524 . S
C829 C826 1.403 . S
C829 C830 1.392 1_655 S
C829 C833 1.495 . S
C830 C829 1.392 1_455 S
C830 C831 1.385 . S
C830 C832 1.478 . S
C831 H825 0.930 . S
C831 C827 1.400 . S
C831 C830 1.385 . S
C832 C830 1.478 . S
C832 C834 1.381 1_455 S
C832 C838 1.383 . S
C833 C829 1.495 . S
C833 H839 0.959 . S
C833 H840 0.961 . S
C833 H841 0.960 . S
C834 C832 1.381 1_655 S
C834 C835 1.394 . S
C834 H842 0.930 . S
C835 C834 1.394 . S
C835 C836 1.383 1_655 S
C835 H843 0.929 . S
C836 C835 1.383 1_455 S
C836 C837 1.377 . S
C837 H821 0.930 . S
C837 C836 1.377 . S
C837 C838 1.379 . S
C838 H822 0.931 . S
C838 C832 1.383 . S
C838 C837 1.379 . S
H839 C833 0.959 . S
H840 C833 0.961 . S
H841 C833 0.960 . S
H842 C834 0.930 . S
H843 C835 0.929 . S
H844 C852 0.929 1_565 S
H845 C854 0.930 . S
H846 C856 0.930 . S
H847 C859 0.929 1_554 S
H848 C862 0.930 . S
H849 C864 0.960 . S
H850 C864 0.960 . S
H851 C864 0.960 . S
C852 H844 0.929 1_545 S
C852 C853 1.376 . S
C852 C854 1.384 . S
C853 C852 1.376 . S
C853 C859 1.395 . S
C854 H845 0.930 . S
C854 C852 1.384 . S
C854 C855 1.372 . S
C855 C854 1.372 . S
C855 C856 1.400 . S
C855 C860 1.490 . S
C856 H846 0.930 . S
C856 C855 1.400 . S
C856 C859 1.386 . S
H857 C873 0.930 . S
H858 C874 0.931 . S
C859 H847 0.929 1_556 S
C859 C853 1.395 . S
C859 C856 1.386 . S
C860 C855 1.490 . S
C860 C862 1.395 . S
C860 C863 1.403 1_545 S
H861 C867 0.930 . S
C862 H848 0.930 . S
C862 C860 1.395 . S
C862 C865 1.403 . S
C863 C860 1.403 1_565 S
C863 C864 1.524 . S
C863 C867 1.400 . S
C864 H849 0.960 . S
C864 H850 0.960 . S
C864 H851 0.960 . S
C864 C863 1.524 . S
C865 C862 1.403 . S
C865 C866 1.392 . S
C865 C869 1.495 . S
C866 C865 1.392 . S
C866 C867 1.385 1_545 S
C866 C868 1.478 . S
C867 H861 0.930 . S
C867 C863 1.400 . S
C867 C866 1.385 1_565 S
C868 C866 1.478 . S
C868 C870 1.381 . S
C868 C874 1.383 . S
C869 C865 1.495 . S
C869 H875 0.959 . S
C869 H876 0.961 . S
C869 H877 0.960 . S
C870 C868 1.381 . S
C870 C871 1.394 . S
C870 H878 0.930 . S
C871 C870 1.394 . S
C871 C872 1.383 . S
C871 H879 0.929 . S
C872 C871 1.383 . S
C872 C873 1.377 . S
C873 H857 0.930 . S
C873 C872 1.377 . S
C873 C874 1.379 . S
C874 H858 0.931 . S
C874 C868 1.383 . S
C874 C873 1.379 . S
H875 C869 0.959 . S
H876 C869 0.961 . S
H877 C869 0.960 . S
H878 C870 0.930 . S
H879 C871 0.929 . S
H880 C888 0.929 1_554 S
H881 C890 0.930 . S
H882 C892 0.930 . S
H883 C895 0.929 . S
H884 C898 0.930 . S
H885 C900 0.960 . S
H886 C900 0.960 . S
H887 C900 0.960 . S
C888 H880 0.929 1_556 S
C888 C889 1.377 . S
C888 C890 1.384 . S
C889 C888 1.377 . S
C889 C895 1.390 . S
C890 H881 0.930 . S
C890 C888 1.384 . S
C890 C891 1.372 . S
C891 C890 1.372 . S
C891 C892 1.400 . S
C891 C896 1.490 . S
C892 H882 0.930 . S
C892 C891 1.400 . S
C892 C895 1.386 . S
H893 C909 0.930 . S
H894 C910 0.931 . S
C895 H883 0.929 . S
C895 C889 1.390 . S
C895 C892 1.386 . S
C896 C891 1.490 . S
C896 C898 1.395 . S
C896 C899 1.403 . S
H897 C903 0.930 . S
C898 H884 0.930 . S
C898 C896 1.395 . S
C898 C901 1.403 . S
C899 C896 1.403 . S
C899 C900 1.524 . S
C899 C903 1.400 . S
C900 H885 0.960 . S
C900 H886 0.960 . S
C900 H887 0.960 . S
C900 C899 1.524 . S
C901 C898 1.403 . S
C901 C902 1.392 . S
C901 C905 1.495 . S
C902 C901 1.392 . S
C902 C903 1.385 . S
C902 C904 1.478 . S
C903 H897 0.930 . S
C903 C899 1.400 . S
C903 C902 1.385 . S
C904 C902 1.478 . S
C904 C906 1.381 . S
C904 C910 1.383 . S
C905 C901 1.495 . S
C905 H911 0.959 . S
C905 H912 0.961 . S
C905 H913 0.960 . S
C906 C904 1.381 . S
C906 C907 1.394 . S
C906 H914 0.930 . S
C907 C906 1.394 . S
C907 C908 1.383 . S
C907 H915 0.929 . S
C908 C907 1.383 . S
C908 C909 1.377 . S
C909 H893 0.930 . S
C909 C908 1.377 . S
C909 C910 1.379 . S
C910 H894 0.931 . S
C910 C904 1.383 . S
C910 C909 1.379 . S
H911 C905 0.959 . S
H912 C905 0.961 . S
H913 C905 0.960 . S
H914 C906 0.930 . S
H915 C907 0.929 . S
H916 C924 0.929 1_554 S
H917 C926 0.930 . S
H918 C928 0.930 . S
H919 C931 0.929 . S
H920 C934 0.930 . S
H921 C936 0.960 . S
H922 C936 0.960 . S
H923 C936 0.960 . S
C924 H916 0.929 1_556 S
C924 C925 1.377 . S
C924 C926 1.384 . S
C925 C924 1.377 . S
C925 C931 1.390 . S
C926 H917 0.930 . S
C926 C924 1.384 . S
C926 C927 1.372 . S
C927 C926 1.372 . S
C927 C928 1.400 . S
C927 C932 1.490 . S
C928 H918 0.930 . S
C928 C927 1.400 . S
C928 C931 1.386 . S
H929 C945 0.930 . S
H930 C946 0.931 . S
C931 H919 0.929 . S
C931 C925 1.390 . S
C931 C928 1.386 . S
C932 C927 1.490 . S
C932 C934 1.395 . S
C932 C935 1.403 . S
H933 C939 0.930 . S
C934 H920 0.930 . S
C934 C932 1.395 . S
C934 C937 1.403 . S
C935 C932 1.403 . S
C935 C936 1.524 . S
C935 C939 1.400 . S
C936 H921 0.960 . S
C936 H922 0.960 . S
C936 H923 0.960 . S
C936 C935 1.524 . S
C937 C934 1.403 . S
C937 C938 1.392 . S
C937 C941 1.495 . S
C938 C937 1.392 . S
C938 C939 1.385 . S
C938 C940 1.478 . S
C939 H933 0.930 . S
C939 C935 1.400 . S
C939 C938 1.385 . S
C940 C938 1.478 . S
C940 C942 1.381 . S
C940 C946 1.383 . S
C941 C937 1.495 . S
C941 H947 0.959 . S
C941 H948 0.961 . S
C941 H949 0.960 . S
C942 C940 1.381 . S
C942 C943 1.394 . S
C942 H950 0.930 . S
C943 C942 1.394 . S
C943 C944 1.383 . S
C943 H951 0.929 . S
C944 C943 1.383 . S
C944 C945 1.377 . S
C945 H929 0.930 . S
C945 C944 1.377 . S
C945 C946 1.379 . S
C946 H930 0.931 . S
C946 C940 1.383 . S
C946 C945 1.379 . S
H947 C941 0.959 . S
H948 C941 0.961 . S
H949 C941 0.960 . S
H950 C942 0.930 . S
H951 C943 0.929 . S
H952 C960 0.929 . S
H953 C962 0.930 . S
H954 C964 0.930 . S
H955 C967 0.929 . S
H956 C970 0.930 . S
H957 C972 0.960 . S
H958 C972 0.960 . S
H959 C972 0.960 1_655 S
C960 H952 0.929 . S
C960 C961 1.349 1_455 S
C960 C962 1.384 . S
C961 C960 1.349 1_655 S
C961 C967 1.421 . S
C962 H953 0.930 . S
C962 C960 1.384 . S
C962 C963 1.372 1_455 S
C963 C962 1.372 1_655 S
C963 C964 1.400 . S
C963 C968 1.490 . S
C964 H954 0.930 . S
C964 C963 1.400 . S
C964 C967 1.386 . S
H965 C981 0.930 . S
H966 C982 0.931 . S
C967 H955 0.929 . S
C967 C961 1.421 . S
C967 C964 1.386 . S
C968 C963 1.490 . S
C968 C970 1.395 . S
C968 C971 1.402 . S
H969 C975 0.930 1_455 S
C970 H956 0.930 . S
C970 C968 1.395 . S
C970 C973 1.403 . S
C971 C968 1.402 . S
C971 C972 1.525 1_655 S
C971 C975 1.399 . S
C972 H957 0.960 . S
C972 H958 0.960 . S
C972 H959 0.960 1_455 S
C972 C971 1.525 1_455 S
C973 C970 1.403 . S
C973 C974 1.392 . S
C973 C977 1.495 . S
C974 C973 1.392 . S
C974 C975 1.385 . S
C974 C976 1.478 . S
C975 H969 0.930 1_655 S
C975 C971 1.399 . S
C975 C974 1.385 . S
C976 C974 1.478 . S
C976 C978 1.381 1_655 S
C976 C982 1.383 . S
C977 C973 1.495 . S
C977 H983 0.959 . S
C977 H984 0.961 . S
C977 H985 0.960 . S
C978 C976 1.381 1_455 S
C978 C979 1.394 . S
C978 H986 0.930 . S
C979 C978 1.394 . S
C979 C980 1.383 1_455 S
C979 H987 0.929 . S
C980 C979 1.383 1_655 S
C980 C981 1.377 . S
C981 H965 0.930 . S
C981 C980 1.377 . S
C981 C982 1.379 . S
C982 H966 0.931 . S
C982 C976 1.383 . S
C982 C981 1.379 . S
H983 C977 0.959 . S
H984 C977 0.961 . S
H985 C977 0.960 . S
H986 C978 0.930 . S
H987 C979 0.929 . S
H988 C996 0.929 . S
H989 C998 0.930 . S
H990 C1000 0.930 . S
H991 C1003 0.929 . S
H992 C1006 0.936 . S
H993 C1008 0.960 . S
H994 C1008 0.960 1_545 S
H995 C1008 0.960 . S
C996 H988 0.929 . S
C996 C997 1.346 1_545 S
C996 C998 1.384 . S
C997 C996 1.346 1_565 S
C997 C1003 1.423 . S
C998 H989 0.930 . S
C998 C996 1.384 . S
C998 C999 1.372 1_545 S
C999 C998 1.372 1_565 S
C999 C1000 1.400 . S
C999 C1004 1.490 . S
C1000 H990 0.930 . S
C1000 C999 1.400 . S
C1000 C1003 1.386 . S
H1001 C1017 0.930 . S
H1002 C1018 0.931 . S
C1003 H991 0.929 . S
C1003 C997 1.423 . S
C1003 C1000 1.386 . S
C1004 C999 1.490 . S
C1004 C1006 1.391 1_565 S
C1004 C1007 1.403 . S
H1005 C1011 0.930 . S
C1006 H992 0.936 . S
C1006 C1004 1.391 1_545 S
C1006 C1009 1.402 1_545 S
C1007 C1004 1.403 . S
C1007 C1008 1.524 . S
C1007 C1011 1.400 . S
C1008 H993 0.960 . S
C1008 H994 0.960 1_565 S
C1008 H995 0.960 . S
C1008 C1007 1.524 . S
C1009 C1006 1.402 1_565 S
C1009 C1010 1.399 . S
C1009 C1013 1.491 1_565 S
C1010 C1009 1.399 . S
C1010 C1011 1.385 . S
C1010 C1012 1.478 . S
C1011 H1005 0.930 . S
C1011 C1007 1.400 . S
C1011 C1010 1.385 . S
C1012 C1010 1.478 . S
C1012 C1014 1.381 1_565 S
C1012 C1018 1.383 . S
C1013 C1009 1.491 1_545 S
C1013 H1019 0.959 . S
C1013 H1020 0.961 1_545 S
C1013 H1021 0.960 . S
C1014 C1012 1.381 1_545 S
C1014 C1015 1.394 . S
C1014 H1022 0.930 . S
C1015 C1014 1.394 . S
C1015 C1016 1.383 1_545 S
C1015 H1023 0.929 . S
C1016 C1015 1.383 1_565 S
C1016 C1017 1.377 . S
C1017 H1001 0.930 . S
C1017 C1016 1.377 . S
C1017 C1018 1.379 . S
C1018 H1002 0.931 . S
C1018 C1012 1.383 . S
C1018 C1017 1.379 . S
H1019 C1013 0.959 . S
H1020 C1013 0.961 1_565 S
H1021 C1013 0.960 . S
H1022 C1014 0.930 . S
H1023 C1015 0.929 . S
H1024 C1032 0.929 . S
H1025 C1034 0.930 . S
H1026 C1036 0.930 . S
H1027 C1039 0.929 . S
H1028 C1042 0.930 . S
H1029 C1044 0.960 . S
H1030 C1044 0.960 . S
H1031 C1044 0.960 . S
C1032 H1024 0.929 . S
C1032 C1033 1.377 . S
C1032 C1034 1.384 . S
C1033 C1032 1.377 . S
C1033 C1039 1.390 . S
C1034 H1025 0.930 . S
C1034 C1032 1.384 . S
C1034 C1035 1.372 . S
C1035 C1034 1.372 . S
C1035 C1036 1.400 . S
C1035 C1040 1.490 . S
C1036 H1026 0.930 . S
C1036 C1035 1.400 . S
C1036 C1039 1.386 . S
H1037 C1053 0.930 . S
H1038 C1054 0.931 . S
C1039 H1027 0.929 . S
C1039 C1033 1.390 . S
C1039 C1036 1.386 . S
C1040 C1035 1.490 . S
C1040 C1042 1.395 . S
C1040 C1043 1.403 . S
H1041 C1047 0.930 . S
C1042 H1028 0.930 . S
C1042 C1040 1.395 . S
C1042 C1045 1.403 . S
C1043 C1040 1.403 . S
C1043 C1044 1.524 . S
C1043 C1047 1.400 . S
C1044 H1029 0.960 . S
C1044 H1030 0.960 . S
C1044 H1031 0.960 . S
C1044 C1043 1.524 . S
C1045 C1042 1.403 . S
C1045 C1046 1.392 . S
C1045 C1049 1.495 . S
C1046 C1045 1.392 . S
C1046 C1047 1.385 . S
C1046 C1048 1.478 . S
C1047 H1041 0.930 . S
C1047 C1043 1.400 . S
C1047 C1046 1.385 . S
C1048 C1046 1.478 . S
C1048 C1050 1.381 . S
C1048 C1054 1.383 . S
C1049 C1045 1.495 . S
C1049 H1055 0.959 . S
C1049 H1056 0.961 . S
C1049 H1057 0.960 . S
C1050 C1048 1.381 . S
C1050 C1051 1.394 . S
C1050 H1058 0.930 . S
C1051 C1050 1.394 . S
C1051 C1052 1.383 . S
C1051 H1059 0.929 . S
C1052 C1051 1.383 . S
C1052 C1053 1.377 . S
C1053 H1037 0.930 . S
C1053 C1052 1.377 . S
C1053 C1054 1.379 . S
C1054 H1038 0.931 . S
C1054 C1048 1.383 . S
C1054 C1053 1.379 . S
H1055 C1049 0.959 . S
H1056 C1049 0.961 . S
H1057 C1049 0.960 . S
H1058 C1050 0.930 . S
H1059 C1051 0.929 . S
H1060 C1068 0.929 . S
H1061 C1070 0.930 . S
H1062 C1072 0.930 . S
H1063 C1075 0.929 . S
H1064 C1078 0.930 . S
H1065 C1080 0.960 . S
H1066 C1080 0.960 . S
H1067 C1080 0.960 . S
C1068 H1060 0.929 . S
C1068 C1069 1.377 . S
C1068 C1070 1.384 . S
C1069 C1068 1.377 . S
C1069 C1075 1.390 . S
C1070 H1061 0.930 . S
C1070 C1068 1.384 . S
C1070 C1071 1.372 . S
C1071 C1070 1.372 . S
C1071 C1072 1.400 . S
C1071 C1076 1.490 . S
C1072 H1062 0.930 . S
C1072 C1071 1.400 . S
C1072 C1075 1.386 . S
H1073 C1089 0.930 . S
H1074 C1090 0.931 . S
C1075 H1063 0.929 . S
C1075 C1069 1.390 . S
C1075 C1072 1.386 . S
C1076 C1071 1.490 . S
C1076 C1078 1.395 . S
C1076 C1079 1.403 . S
H1077 C1083 0.930 . S
C1078 H1064 0.930 . S
C1078 C1076 1.395 . S
C1078 C1081 1.403 . S
C1079 C1076 1.403 . S
C1079 C1080 1.524 . S
C1079 C1083 1.400 . S
C1080 H1065 0.960 . S
C1080 H1066 0.960 . S
C1080 H1067 0.960 . S
C1080 C1079 1.524 . S
C1081 C1078 1.403 . S
C1081 C1082 1.392 . S
C1081 C1085 1.495 . S
C1082 C1081 1.392 . S
C1082 C1083 1.385 . S
C1082 C1084 1.478 . S
C1083 H1077 0.930 . S
C1083 C1079 1.400 . S
C1083 C1082 1.385 . S
C1084 C1082 1.478 . S
C1084 C1086 1.381 . S
C1084 C1090 1.383 . S
C1085 C1081 1.495 . S
C1085 H1091 0.959 . S
C1085 H1092 0.961 . S
C1085 H1093 0.960 . S
C1086 C1084 1.381 . S
C1086 C1087 1.394 . S
C1086 H1094 0.930 . S
C1087 C1086 1.394 . S
C1087 C1088 1.383 . S
C1087 H1095 0.929 . S
C1088 C1087 1.383 . S
C1088 C1089 1.377 . S
C1089 H1073 0.930 . S
C1089 C1088 1.377 . S
C1089 C1090 1.379 . S
C1090 H1074 0.931 . S
C1090 C1084 1.383 . S
C1090 C1089 1.379 . S
H1091 C1085 0.959 . S
H1092 C1085 0.961 . S
H1093 C1085 0.960 . S
H1094 C1086 0.930 . S
H1095 C1087 0.929 . S
C241 C61 1.636 1_545 S
C260 C81 1.722 1_545 S
C296 C121 1.735 . S
C277 C70 1.645 . S
C332 C161 1.732 . S
C313 C43 1.651 . S
C368 C201 1.720 1_455 S
C349 C52 1.648 . S
C404 C90 1.721 1_565 S
C385 C25 1.651 . S
C421 C34 1.660 . S
C440 C130 1.725 . S
C457 C7 1.648 . S
C476 C170 1.737 . S
C493 C16 1.650 . S
C512 C210 1.717 1_655 S
C548 C87 0.364 . S
C529 C50 0.268 1_455 S
C584 C127 0.387 . S
C565 C59 0.279 1_545 S
C620 C167 0.398 . S
C601 C67 0.268 . S
C637 C41 0.264 . S
C656 C207 0.335 . S
C673 C14 0.271 . S
C692 C78 0.246 . S
C728 C118 0.389 . S
C709 C23 0.256 . S
C764 C158 0.399 . S
C745 C31 0.258 . S
C781 C5 0.257 . S
C800 C198 0.226 . S
C817 C49 1.797 1_455 S
C836 C91 1.964 . S
C853 C58 1.785 1_545 S
C872 C131 1.972 . S
C908 C171 1.932 . S
C889 C68 1.764 . S
C944 C211 1.952 . S
C925 C40 1.785 . S
C961 C13 1.804 . S
C980 C82 1.986 . S
C1016 C122 1.948 . S
C997 C22 1.785 . S
C1052 C162 1.934 . S
C1033 C32 1.778 . S
C1069 C4 1.795 . S
C1088 C202 1.958 . S
