# Generated by pormake.
# Topology cml, (3,6)-cn, num edge types: 1
# Building blocks:
#     Node 0, Type 0, BuildingBlock: VETTIZ_charged_linker_0, # of connection points: 3
#     Node 1, Type 0, BuildingBlock: VETTIZ_charged_linker_0, # of connection points: 3
#     Node 2, Type 0, BuildingBlock: VETTIZ_charged_linker_0, # of connection points: 3
#     Node 3, Type 0, BuildingBlock: VETTIZ_charged_linker_0, # of connection points: 3
#     Node 4, Type 0, BuildingBlock: VETTIZ_charged_linker_0, # of connection points: 3
#     Node 5, Type 0, BuildingBlock: VETTIZ_charged_linker_0, # of connection points: 3
#     Node 6, Type 0, BuildingBlock: VETTIZ_charged_linker_0, # of connection points: 3
#     Node 7, Type 0, BuildingBlock: VETTIZ_charged_linker_0, # of connection points: 3
#     Node 8, Type 1, BuildingBlock: OJICUG_clean_sbu_0, # of connection points: 6
#     Node 9, Type 1, BuildingBlock: OJICUG_clean_sbu_0, # of connection points: 6
#     Node 10, Type 1, BuildingBlock: OJICUG_clean_sbu_0, # of connection points: 6
#     Node 11, Type 1, BuildingBlock: OJICUG_clean_sbu_0, # of connection points: 6
#     Edge 12, Type (0, 1), BuildingBlock: TEMPAE_clean_linker_10, # of connection points: 2
#     Edge 13, Type (0, 1), BuildingBlock: TEMPAE_clean_linker_10, # of connection points: 2
#     Edge 14, Type (0, 1), BuildingBlock: TEMPAE_clean_linker_10, # of connection points: 2
#     Edge 15, Type (0, 1), BuildingBlock: TEMPAE_clean_linker_10, # of connection points: 2
#     Edge 16, Type (0, 1), BuildingBlock: TEMPAE_clean_linker_10, # of connection points: 2
#     Edge 17, Type (0, 1), BuildingBlock: TEMPAE_clean_linker_10, # of connection points: 2
#     Edge 18, Type (0, 1), BuildingBlock: TEMPAE_clean_linker_10, # of connection points: 2
#     Edge 19, Type (0, 1), BuildingBlock: TEMPAE_clean_linker_10, # of connection points: 2
#     Edge 20, Type (0, 1), BuildingBlock: TEMPAE_clean_linker_10, # of connection points: 2
#     Edge 21, Type (0, 1), BuildingBlock: TEMPAE_clean_linker_10, # of connection points: 2
#     Edge 22, Type (0, 1), BuildingBlock: TEMPAE_clean_linker_10, # of connection points: 2
#     Edge 23, Type (0, 1), BuildingBlock: TEMPAE_clean_linker_10, # of connection points: 2
#     Edge 24, Type (0, 1), BuildingBlock: TEMPAE_clean_linker_10, # of connection points: 2
#     Edge 25, Type (0, 1), BuildingBlock: TEMPAE_clean_linker_10, # of connection points: 2
#     Edge 26, Type (0, 1), BuildingBlock: TEMPAE_clean_linker_10, # of connection points: 2
#     Edge 27, Type (0, 1), BuildingBlock: TEMPAE_clean_linker_10, # of connection points: 2
#     Edge 28, Type (0, 1), BuildingBlock: TEMPAE_clean_linker_10, # of connection points: 2
#     Edge 29, Type (0, 1), BuildingBlock: TEMPAE_clean_linker_10, # of connection points: 2
#     Edge 30, Type (0, 1), BuildingBlock: TEMPAE_clean_linker_10, # of connection points: 2
#     Edge 31, Type (0, 1), BuildingBlock: TEMPAE_clean_linker_10, # of connection points: 2
#     Edge 32, Type (0, 1), BuildingBlock: TEMPAE_clean_linker_10, # of connection points: 2
#     Edge 33, Type (0, 1), BuildingBlock: TEMPAE_clean_linker_10, # of connection points: 2
#     Edge 34, Type (0, 1), BuildingBlock: TEMPAE_clean_linker_10, # of connection points: 2
#     Edge 35, Type (0, 1), BuildingBlock: TEMPAE_clean_linker_10, # of connection points: 2
# Relax obj value: 0.076
# Max RMSD: 0.088
# Mean RMSD: 0.083
data_MOF--net-cml--node1-OJICUG_clean_sbu_0--node2-VETTIZ_charged_linker_0--edge1-TEMPAE_clean_linker_10
_symmetry_space_group_name_H-M    P1
_symmetry_Int_Tables_number       1
_symmetry_cell_setting            triclinic
loop_
_symmetry_equiv_pos_as_xyz
'x, y, z'
_cell_length_a     47.504878
_cell_length_b     47.968341
_cell_length_c     45.421519
_cell_angle_alpha  90.058748
_cell_angle_beta   89.942064
_cell_angle_gamma 90.069674
loop_
_atom_site_label
_atom_site_type_symbol
_atom_site_fract_x
_atom_site_fract_y
_atom_site_fract_z
_atom_type_partial_charge
C0 C 0.29506 0.3686 0.10181 0.0
C1 C 0.31693 0.38182 0.11721 0.0
C2 C 0.32604 0.40844 0.1084 0.0
C3 C 0.29335 0.40746 0.06765 0.0
C4 C 0.28327 0.38202 0.07735 0.0
C5 C 0.25943 0.37147 0.05858 0.0
H6 H 0.18497 0.38085 0.93231 0.0
C7 C 0.27811 0.41491 0.04054 0.0
C8 C 0.25774 0.39429 0.03541 0.0
H9 H 0.17501 0.32099 0.00251 0.0
H10 H 0.21006 0.34523 0.03149 0.0
H11 H 0.18492 0.43314 0.97306 0.0
H12 H 0.25428 0.38699 0.93634 0.0
H13 H 0.25951 0.4229 0.93 0.0
H14 H 0.22907 0.40605 0.91486 0.0
H15 H 0.19702 0.43934 0.93623 0.0
H16 H 0.21214 0.45736 0.96742 0.0
C17 C 0.23244 0.37009 0.07778 0.0
C18 C 0.2684 0.34315 0.04518 0.0
C19 C 0.31458 0.49407 0.97718 0.0
C20 C 0.30592 0.50543 0.95008 0.0
C21 C 0.28096 0.49521 0.93706 0.0
C22 C 0.26582 0.47332 0.95003 0.0
C23 C 0.27555 0.46152 0.97641 0.0
C24 C 0.29899 0.47257 0.99002 0.0
C25 C 0.30538 0.45855 0.01883 0.0
C26 C 0.28244 0.43651 0.0197 0.0
C27 C 0.26539 0.43803 0.99454 0.0
C28 C 0.30204 0.48031 0.04392 0.0
C29 C 0.33514 0.44553 0.01659 0.0
C30 C 0.19053 0.37303 0.9539 0.0
C31 C 0.17771 0.34893 0.96515 0.0
C32 C 0.1848 0.33955 0.99353 0.0
C33 C 0.20517 0.35356 0.01022 0.0
C34 C 0.21844 0.37723 0.99839 0.0
C35 C 0.21055 0.387 0.971 0.0
C36 C 0.22584 0.41328 0.96267 0.0
C37 C 0.24459 0.41736 0.98938 0.0
C38 C 0.24052 0.39587 0.00994 0.0
C39 C 0.204 0.43709 0.95944 0.0
C40 C 0.24306 0.40726 0.93441 0.0
H41 H 0.32263 0.44132 0.07762 0.0
H42 H 0.28752 0.34826 0.10855 0.0
H43 H 0.29018 0.34447 0.03625 0.0
H44 H 0.25507 0.33648 0.02663 0.0
H45 H 0.26804 0.32647 0.06213 0.0
H46 H 0.23359 0.38467 0.09681 0.0
H47 H 0.22907 0.3488 0.08674 0.0
H48 H 0.21342 0.37664 0.06555 0.0
H49 H 0.33363 0.50108 0.98795 0.0
H50 H 0.27317 0.50399 0.91669 0.0
H51 H 0.24731 0.46618 0.9388 0.0
H52 H 0.28842 0.49805 0.03719 0.0
H53 H 0.32272 0.48912 0.05054 0.0
H54 H 0.29146 0.47145 0.06355 0.0
H55 H 0.33765 0.43426 0.99533 0.0
H56 H 0.33949 0.43006 0.03389 0.0
H57 H 0.35167 0.4619 0.01771 0.0
H58 H 0.34292 0.41886 0.12012 0.0
C59 C 0.31437 0.42134 0.08368 0.0
C60 C 0.80017 0.62728 0.45242 0.0
C61 C 0.81467 0.65089 0.46264 0.0
C62 C 0.80978 0.66056 0.49148 0.0
C63 C 0.77567 0.62378 0.4992 0.0
C64 C 0.78105 0.61389 0.47116 0.0
C65 C 0.76431 0.5881 0.46418 0.0
H66 H 0.66193 0.49744 0.50325 0.0
C67 C 0.75452 0.60539 0.5129 0.0
C68 C 0.74816 0.58409 0.49274 0.0
H69 H 0.70795 0.50111 0.4212 0.0
H70 H 0.73733 0.53783 0.44067 0.0
H71 H 0.71381 0.5034 0.54557 0.0
H72 H 0.65629 0.56437 0.51121 0.0
H73 H 0.65954 0.56936 0.54948 0.0
H74 H 0.64642 0.53678 0.53588 0.0
H75 H 0.68026 0.50944 0.56251 0.0
H76 H 0.7111 0.52932 0.57277 0.0
C77 C 0.78512 0.56387 0.45831 0.0
C78 C 0.74457 0.59495 0.43803 0.0
C79 C 0.70912 0.63297 0.60999 0.0
C80 C 0.68882 0.61986 0.62771 0.0
C81 C 0.67986 0.59267 0.62066 0.0
C82 C 0.68972 0.57931 0.5953 0.0
C83 C 0.70867 0.59331 0.57674 0.0
C84 C 0.71907 0.61912 0.58485 0.0
C85 C 0.74081 0.62971 0.56348 0.0
C86 C 0.74028 0.60677 0.54034 0.0
C87 C 0.72097 0.58585 0.54799 0.0
C88 C 0.76956 0.63134 0.57958 0.0
C89 C 0.73044 0.6579 0.551 0.0
C90 C 0.67836 0.50618 0.4895 0.0
C91 C 0.68242 0.49661 0.46056 0.0
C92 C 0.70444 0.50806 0.4436 0.0
C93 C 0.7213 0.52957 0.45486 0.0
C94 C 0.716 0.53989 0.48332 0.0
C95 C 0.69521 0.52779 0.50034 0.0
C96 C 0.69227 0.54156 0.52992 0.0
C97 C 0.71443 0.56429 0.52766 0.0
C98 C 0.72809 0.56333 0.50024 0.0
C99 C 0.69951 0.51991 0.55408 0.0
C100 C 0.66207 0.55362 0.53204 0.0
H101 H 0.78724 0.65566 0.53138 0.0
H102 H 0.80387 0.61924 0.43045 0.0
H103 H 0.73613 0.61651 0.44001 0.0
H104 H 0.72578 0.58146 0.43708 0.0
H105 H 0.75599 0.59351 0.41674 0.0
H106 H 0.80428 0.56594 0.47222 0.0
H107 H 0.79202 0.56357 0.43494 0.0
H108 H 0.77627 0.54327 0.46411 0.0
H109 H 0.71664 0.6537 0.61532 0.0
H110 H 0.6642 0.58226 0.6341 0.0
H111 H 0.68155 0.55894 0.59064 0.0
H112 H 0.77015 0.61755 0.59926 0.0
H113 H 0.77411 0.65289 0.58721 0.0
H114 H 0.78718 0.624 0.56559 0.0
H115 H 0.70793 0.65642 0.54444 0.0
H116 H 0.74194 0.66451 0.5311 0.0
H117 H 0.73234 0.6747 0.56774 0.0
H118 H 0.82072 0.67882 0.49967 0.0
C119 C 0.79033 0.64715 0.50979 0.0
C120 C 0.69477 0.48685 0.95411 0.0
C121 C 0.67457 0.504 0.96747 0.0
C122 C 0.66805 0.50037 0.99744 0.0
C123 C 0.69918 0.46051 -0.0006 0.0
C124 C 0.7071 0.46552 0.97061 0.0
C125 C 0.72883 0.44516 0.95991 0.0
H126 H 0.80625 0.32921 0.98325 0.0
C127 C 0.71371 0.43505 0.00934 0.0
C128 C 0.73165 0.42636 0.98662 0.0
H129 H 0.80622 0.38314 0.90713 0.0
H130 H 0.77191 0.41305 0.93031 0.0
H131 H 0.80254 0.37826 0.03452 0.0
H132 H 0.74028 0.32859 0.98966 0.0
H133 H 0.72847 0.33289 0.02593 0.0
H134 H 0.76106 0.31469 0.01912 0.0
H135 H 0.79917 0.34123 0.0393 0.0
H136 H 0.77834 0.36526 0.06064 0.0
C137 C 0.75637 0.46148 0.95346 0.0
C138 C 0.71649 0.42937 0.93304 0.0
C139 C 0.68002 0.38672 0.10179 0.0
C140 C 0.68619 0.36078 0.11451 0.0
C141 C 0.70901 0.34517 0.10352 0.0
C142 C 0.72438 0.35462 0.07902 0.0
C143 C 0.71672 0.37985 0.06541 0.0
C144 C 0.69528 0.39572 0.07731 0.0
C145 C 0.68953 0.42169 0.0599 0.0
C146 C 0.71035 0.41833 0.03484 0.0
C147 C 0.7262 0.3938 0.0381 0.0
C148 C 0.69647 0.44734 0.07941 0.0
C149 C 0.65859 0.42041 0.04913 0.0
C150 C 0.79895 0.34767 0.97185 0.0
C151 C 0.80887 0.35411 0.94352 0.0
C152 C 0.79867 0.37789 0.92896 0.0
C153 C 0.77887 0.39523 0.94251 0.0
C154 C 0.76886 0.38846 0.97073 0.0
C155 C 0.7788 0.36499 0.98494 0.0
C156 C 0.76457 0.3604 0.01418 0.0
C157 C 0.74537 0.38566 0.01567 0.0
C158 C 0.74798 0.40188 0.99009 0.0
C159 C 0.78723 0.36112 0.0386 0.0
C160 C 0.74782 0.33267 0.01245 0.0
H161 H 0.67396 0.47634 0.03605 0.0
H162 H 0.70029 0.4896 0.93114 0.0
H163 H 0.69379 0.42465 0.93654 0.0
H164 H 0.72646 0.40893 0.92919 0.0
H165 H 0.7183 0.44205 0.91268 0.0
H166 H 0.75809 0.48042 0.96752 0.0
H167 H 0.75727 0.4684 0.93015 0.0
H168 H 0.77549 0.4493 0.9586 0.0
H169 H 0.66301 0.39945 0.11026 0.0
H170 H 0.71424 0.32519 0.11315 0.0
H171 H 0.74114 0.34161 0.07115 0.0
H172 H 0.71206 0.44212 0.09681 0.0
H173 H 0.67732 0.45542 0.09057 0.0
H174 H 0.70644 0.46441 0.06672 0.0
H175 H 0.65358 0.39931 0.04038 0.0
H176 H 0.65396 0.43495 0.03105 0.0
H177 H 0.64375 0.42486 0.06745 0.0
H178 H 0.6525 0.51354 0.00798 0.0
C179 C 0.68032 0.47869 0.01353 0.0
C180 C 0.19182 0.6224 0.45253 0.0
C181 C 0.18237 0.64883 0.46141 0.0
C182 C 0.1924 0.6604 0.4879 0.0
C183 C 0.22169 0.61988 0.49573 0.0
C184 C 0.21157 0.6084 0.4699 0.0
C185 C 0.22505 0.58084 0.46293 0.0
H186 H 0.33073 0.49127 0.48942 0.0
C187 C 0.24262 0.60052 0.50809 0.0
C188 C 0.24462 0.57749 0.48911 0.0
H189 H 0.26923 0.48783 0.41919 0.0
H190 H 0.24398 0.52606 0.44127 0.0
H191 H 0.33682 0.55735 0.49586 0.0
H192 H 0.28523 0.49655 0.53962 0.0
H193 H 0.28894 0.52403 0.56495 0.0
H194 H 0.31968 0.50495 0.55295 0.0
H195 H 0.3497 0.5295 0.51861 0.0
H196 H 0.33909 0.56201 0.53441 0.0
C197 C 0.24137 0.58416 0.43357 0.0
C198 C 0.20185 0.55811 0.46237 0.0
C199 C 0.29768 0.6283 0.59934 0.0
C200 C 0.31829 0.61446 0.61585 0.0
C201 C 0.326 0.58705 0.60829 0.0
C202 C 0.31413 0.57392 0.58374 0.0
C203 C 0.29431 0.58835 0.56668 0.0
C204 C 0.28566 0.61467 0.57514 0.0
C205 C 0.2631 0.62601 0.55534 0.0
C206 C 0.26009 0.60234 0.53332 0.0
C207 C 0.27893 0.58071 0.53968 0.0
C208 C 0.27457 0.65295 0.54077 0.0
C209 C 0.236 0.63013 0.57389 0.0
C210 C 0.31158 0.49826 0.4789 0.0
C211 C 0.30256 0.48679 0.45194 0.0
C212 C 0.27736 0.4968 0.43934 0.0
C213 C 0.26263 0.51898 0.45224 0.0
C214 C 0.27309 0.53133 0.47807 0.0
C215 C 0.29647 0.52015 0.49163 0.0
C216 C 0.30362 0.53484 0.51992 0.0
C217 C 0.28172 0.55786 0.52004 0.0
C218 C 0.26422 0.55595 0.49522 0.0
C219 C 0.33393 0.54653 0.51731 0.0
C220 C 0.29936 0.51412 0.54578 0.0
H221 H 0.21879 0.65596 0.52505 0.0
H222 H 0.18453 0.61315 0.43214 0.0
H223 H 0.18459 0.56316 0.47807 0.0
H224 H 0.20968 0.5375 0.46952 0.0
H225 H 0.19239 0.55616 0.44011 0.0
H226 H 0.2527 0.60447 0.43299 0.0
H227 H 0.22678 0.58357 0.41448 0.0
H228 H 0.25777 0.56828 0.43022 0.0
H229 H 0.29125 0.64929 0.60502 0.0
H230 H 0.34194 0.57617 0.62086 0.0
H231 H 0.32129 0.5533 0.5786 0.0
H232 H 0.29724 0.65063 0.53508 0.0
H233 H 0.2726 0.67108 0.55587 0.0
H234 H 0.26414 0.65801 0.51976 0.0
H235 H 0.23476 0.61469 0.59212 0.0
H236 H 0.21656 0.62666 0.56102 0.0
H237 H 0.23534 0.65125 0.58391 0.0
H238 H 0.18506 0.68061 0.49529 0.0
C239 C 0.21188 0.646 0.50519 0.0
C240 C 0.80251 0.86051 0.09493 0.0
C241 C 0.82751 0.87128 0.10695 0.0
C242 C 0.83802 0.89696 0.09673 0.0
C243 C 0.80068 0.89942 0.06081 0.0
C244 C 0.78953 0.87487 0.0717 0.0
C245 C 0.76397 0.86567 0.05462 0.0
H246 H 0.68552 0.87717 0.93114 0.0
C247 C 0.78413 0.90775 0.03489 0.0
C248 C 0.76246 0.88823 0.03111 0.0
H249 H 0.67492 0.81884 0.00273 0.0
H250 H 0.71165 0.84211 0.03027 0.0
H251 H 0.69109 0.93141 0.97345 0.0
H252 H 0.75271 0.87888 0.93141 0.0
H253 H 0.76332 0.91371 0.92675 0.0
H254 H 0.7304 0.90226 0.91127 0.0
H255 H 0.6982 0.93342 0.9347 0.0
H256 H 0.71843 0.95317 0.96115 0.0
C257 C 0.73813 0.86641 0.07547 0.0
C258 C 0.77022 0.83659 0.04132 0.0
C259 C 0.81953 0.98738 0.97198 0.0
C260 C 0.81191 0.99744 0.94411 0.0
C261 C 0.78754 0.98683 0.93041 0.0
C262 C 0.77182 0.96549 0.94375 0.0
C263 C 0.78069 0.95461 0.97097 0.0
C264 C 0.80389 0.96598 0.9848 0.0
C265 C 0.81106 0.95137 0.01299 0.0
C266 C 0.78831 0.92922 0.0139 0.0
C267 C 0.77062 0.93115 0.98929 0.0
C268 C 0.80781 0.97255 0.03855 0.0
C269 C 0.84103 0.9387 0.00973 0.0
C270 C 0.69122 0.86947 0.95275 0.0
C271 C 0.67776 0.84603 0.96474 0.0
C272 C 0.68515 0.83688 0.99314 0.0
C273 C 0.70655 0.85027 0.00896 0.0
C274 C 0.72066 0.873 0.9962 0.0
C275 C 0.71234 0.88277 0.96895 0.0
C276 C 0.7288 0.90798 0.95947 0.0
C277 C 0.74873 0.91139 0.98528 0.0
C278 C 0.74425 0.89047 0.00644 0.0
C279 C 0.70821 0.93288 0.95678 0.0
C280 C 0.74459 0.90062 0.93062 0.0
H281 H 0.83403 0.93034 0.06682 0.0
H282 H 0.79396 0.84088 0.10262 0.0
H283 H 0.79164 0.83618 0.03138 0.0
H284 H 0.75572 0.83067 0.02347 0.0
H285 H 0.76934 0.82019 0.05854 0.0
H286 H 0.74092 0.88211 0.09328 0.0
H287 H 0.73465 0.84586 0.08612 0.0
H288 H 0.71865 0.87285 0.06401 0.0
H289 H 0.83792 0.99541 0.98328 0.0
H290 H 0.78127 0.99428 0.90889 0.0
H291 H 0.75386 0.95775 0.93197 0.0
H292 H 0.78955 0.98659 0.03468 0.0
H293 H 0.82687 0.98583 0.04071 0.0
H294 H 0.80338 0.96246 0.05993 0.0
H295 H 0.84631 0.93447 0.98627 0.0
H296 H 0.84318 0.9182 0.02054 0.0
H297 H 0.85737 0.95306 0.01849 0.0
H298 H 0.85694 0.90588 0.10619 0.0
C299 C 0.82466 0.91115 0.0739 0.0
C300 C 0.29962 0.12762 0.44919 0.0
C301 C 0.31386 0.15138 0.45944 0.0
C302 C 0.30875 0.16105 0.48823 0.0
C303 C 0.27493 0.12399 0.49585 0.0
C304 C 0.28054 0.11409 0.46787 0.0
C305 C 0.26414 0.08807 0.46092 0.0
H306 H 0.16292 0.99607 0.5 0.0
C307 C 0.2539 0.10542 0.5095 0.0
C308 C 0.24789 0.08397 0.4894 0.0
H309 H 0.20931 -5e-05 0.41818 0.0
H310 H 0.23792 0.03732 0.43752 0.0
H311 H 0.21457 0.00328 0.54258 0.0
H312 H 0.15612 0.063 0.50741 0.0
H313 H 0.15916 0.06839 0.54564 0.0
H314 H 0.14658 0.03548 0.53231 0.0
H315 H 0.18069 0.00864 0.55907 0.0
H316 H 0.21096 0.02922 0.56964 0.0
C317 C 0.28527 0.06406 0.45526 0.0
C318 C 0.24445 0.09457 0.43463 0.0
C319 C 0.20775 0.13292 0.60622 0.0
C320 C 0.18752 0.11969 0.62391 0.0
C321 C 0.17882 0.0924 0.61694 0.0
C322 C 0.18889 0.07903 0.59166 0.0
C323 C 0.20782 0.09312 0.57314 0.0
C324 C 0.21793 0.11906 0.58119 0.0
C325 C 0.23968 0.12977 0.55991 0.0
C326 C 0.2395 0.10675 0.53685 0.0
C327 C 0.22036 0.08566 0.54448 0.0
C328 C 0.26834 0.13173 0.57617 0.0
C329 C 0.22912 0.15783 0.54725 0.0
C330 C 0.17925 0.005 0.48627 0.0
C331 C 0.18366 0.99527 0.45744 0.0
C332 C 0.20556 0.007 0.44051 0.0
C333 C 0.22197 0.0289 0.45169 0.0
C334 C 0.21635 0.0393 0.48004 0.0
C335 C 0.19567 0.02698 0.49703 0.0
C336 C 0.19237 0.04089 0.5265 0.0
C337 C 0.2142 0.06393 0.52423 0.0
C338 C 0.22802 0.06301 0.49689 0.0
C339 C 0.19981 0.0195 0.55085 0.0
C340 C 0.16199 0.05252 0.52837 0.0
H341 H 0.28606 0.15603 0.52802 0.0
H342 H 0.30351 0.11959 0.42725 0.0
H343 H 0.23565 0.11599 0.43653 0.0
H344 H 0.2259 0.08078 0.43357 0.0
H345 H 0.25602 0.0933 0.41341 0.0
H346 H 0.30436 0.06644 0.46922 0.0
H347 H 0.29224 0.06371 0.43192 0.0
H348 H 0.27667 0.04339 0.46116 0.0
H349 H 0.21507 0.15373 0.61151 0.0
H350 H 0.16323 0.0819 0.63038 0.0
H351 H 0.18093 0.05857 0.58705 0.0
H352 H 0.26893 0.11805 0.59593 0.0
H353 H 0.27266 0.15335 0.5837 0.0
H354 H 0.28609 0.12445 0.56233 0.0
H355 H 0.20666 0.15611 0.54056 0.0
H356 H 0.24067 0.16448 0.5274 0.0
H357 H 0.23076 0.1747 0.56394 0.0
H358 H 0.3195 0.17941 0.49645 0.0
C359 C 0.28932 0.14751 0.50647 0.0
C360 C 0.19111 0.98613 0.95667 0.0
C361 C 0.16848 0.00051 0.96962 0.0
C362 C 0.16039 0.99383 0.99864 0.0
C363 C 0.19443 0.95643 -0.00027 0.0
C364 C 0.20377 0.96423 0.97213 0.0
C365 C 0.22704 0.94567 0.96112 0.0
H366 H 0.30134 0.82652 0.97504 0.0
C367 C 0.20971 0.93102 0.00845 0.0
C368 C 0.22916 0.92479 0.98618 0.0
H369 H 0.30858 0.88941 0.90734 0.0
H370 H 0.27444 0.91801 0.9326 0.0
H371 H 0.30066 0.86956 0.02942 0.0
H372 H 0.2332 0.82962 0.98181 0.0
H373 H 0.22604 0.82721 0.01971 0.0
H374 H 0.25706 0.81078 0.00507 0.0
H375 H 0.29254 0.83328 0.03415 0.0
H376 H 0.2747 0.85997 0.0551 0.0
C377 C 0.25417 0.96344 0.958 0.0
C378 C 0.21703 0.93179 0.93213 0.0
C379 C 0.17589 0.87695 0.09726 0.0
C380 C 0.18319 0.85102 0.10929 0.0
C381 C 0.20642 0.83646 0.09768 0.0
C382 C 0.22129 0.84708 0.07336 0.0
C383 C 0.21276 0.87248 0.06065 0.0
C384 C 0.1908 0.8872 0.07312 0.0
C385 C 0.18438 0.9137 0.05698 0.0
C386 C 0.20589 0.91242 0.03238 0.0
C387 C 0.22229 0.88815 0.0344 0.0
C388 C 0.18986 0.93859 0.07806 0.0
C389 C 0.15375 0.91162 0.04534 0.0
C390 C 0.29534 0.84637 0.9656 0.0
C391 C 0.30731 0.85565 0.93903 0.0
C392 C 0.29959 0.88188 0.92778 0.0
C393 C 0.27971 0.89839 0.94242 0.0
C394 C 0.26738 0.88853 0.96855 0.0
C395 C 0.27562 0.86316 0.98003 0.0
C396 C 0.26086 0.8565 0.0085 0.0
C397 C 0.24229 0.882 0.01208 0.0
C398 C 0.24594 0.90044 0.98835 0.0
C399 C 0.28321 0.85448 0.0332 0.0
C400 C 0.24344 0.82954 0.00384 0.0
H401 H 0.16569 0.96747 0.03549 0.0
H402 H 0.19792 0.99089 0.93447 0.0
H403 H 0.19481 0.92468 0.9342 0.0
H404 H 0.22913 0.91303 0.92618 0.0
H405 H 0.21813 0.94671 0.91347 0.0
H406 H 0.25393 0.98169 0.97315 0.0
H407 H 0.25659 0.97157 0.93524 0.0
H408 H 0.27334 0.95173 0.96415 0.0
H409 H 0.15848 0.88885 0.10619 0.0
H410 H 0.21249 0.81651 0.10683 0.0
H411 H 0.23844 0.83486 0.06502 0.0
H412 H 0.20617 0.93341 0.09475 0.0
H413 H 0.17043 0.94455 0.09013 0.0
H414 H 0.19832 0.95708 0.06647 0.0
H415 H 0.14923 0.89021 0.03712 0.0
H416 H 0.14946 0.92537 0.02647 0.0
H417 H 0.13832 0.91633 0.06305 0.0
H418 H 0.14352 0.00512 0.00938 0.0
C419 C 0.17331 0.97197 0.01378 0.0
C420 C 0.68932 0.12603 0.4511 0.0
C421 C 0.67524 0.14886 0.46355 0.0
C422 C 0.6822 0.15768 0.4922 0.0
C423 C 0.7188 0.12268 0.49451 0.0
C424 C 0.71075 0.11308 0.46707 0.0
C425 C 0.72797 0.08859 0.45706 0.0
H426 H 0.84063 0.00545 0.47795 0.0
C427 C 0.74303 0.10594 0.5043 0.0
C428 C 0.74811 0.08551 0.48272 0.0
H429 H 0.78254 0.00466 0.40479 0.0
H430 H 0.75416 0.03989 0.42879 0.0
H431 H 0.84579 0.06782 0.48204 0.0
H432 H 0.7933 0.01092 0.52989 0.0
H433 H 0.80514 0.0357 0.55557 0.0
H434 H 0.83041 0.01432 0.53624 0.0
H435 H 0.85886 0.04777 0.51235 0.0
H436 H 0.84356 0.08182 0.51751 0.0
C437 C 0.74338 0.09691 0.42829 0.0
C438 C 0.70819 0.06304 0.45401 0.0
C439 C 0.80121 0.13731 0.59242 0.0
C440 C 0.82661 0.12726 0.60418 0.0
C441 C 0.83778 0.10197 0.59361 0.0
C442 C 0.82475 0.08758 0.57066 0.0
C443 C 0.80039 0.09867 0.55782 0.0
C444 C 0.78852 0.12271 0.56913 0.0
C445 C 0.76243 0.13106 0.55251 0.0
C446 C 0.76144 0.10866 0.52875 0.0
C447 C 0.78388 0.08997 0.53198 0.0
C448 C 0.76745 0.16047 0.53947 0.0
C449 C 0.73689 0.12918 0.57368 0.0
C450 C 0.82175 0.01282 0.46711 0.0
C451 C 0.81398 0.00261 0.43931 0.0
C452 C 0.78895 0.01228 0.42622 0.0
C453 C 0.77264 0.03285 0.44011 0.0
C454 C 0.78157 0.04387 0.46728 0.0
C455 C 0.80546 0.0334 0.48052 0.0
C456 C 0.81237 0.0479 0.50888 0.0
C457 C 0.78869 0.06897 0.51057 0.0
C458 C 0.77079 0.06662 0.48615 0.0
C459 C 0.84168 0.06197 0.50535 0.0
C460 C 0.81047 0.02621 0.53409 0.0
H461 H 0.70877 0.15259 0.52929 0.0
H462 H 0.68394 0.11863 0.42927 0.0
H463 H 0.69078 0.06392 0.4704 0.0
H464 H 0.71898 0.0431 0.45852 0.0
H465 H 0.69852 0.06216 0.43177 0.0
H466 H 0.75108 0.1188 0.42958 0.0
H467 H 0.72907 0.09537 0.40902 0.0
H468 H 0.76231 0.0843 0.42388 0.0
H469 H 0.79206 0.15656 0.6004 0.0
H470 H 0.85693 0.09348 0.60292 0.0
H471 H 0.83464 0.06875 0.56331 0.0
H472 H 0.7886 0.16168 0.52899 0.0
H473 H 0.76647 0.17665 0.55695 0.0
H474 H 0.75232 0.16611 0.52213 0.0
H475 H 0.74057 0.11368 0.59147 0.0
H476 H 0.71759 0.12182 0.56246 0.0
H477 H 0.73261 0.14958 0.58437 0.0
H478 H 0.67143 0.17524 0.50212 0.0
C479 C 0.70395 0.14466 0.50779 0.0
Sc480 Sc -0.00037 0.78262 0.3055 0.0
Sc481 Sc 0.00251 0.8561 0.3081 0.0
Sc482 Sc 0.99647 0.81806 0.37361 0.0
O483 O -0.00042 0.81887 0.32906 0.0
C484 C 0.95402 0.76984 0.35559 0.0
C485 C 0.96063 0.82166 0.26647 0.0
C486 C 0.95726 0.86987 0.35757 0.0
C487 C 0.04537 0.8192 0.27096 0.0
C488 C 0.03756 0.76672 0.36037 0.0
C489 C 0.04168 0.86631 0.36429 0.0
O490 O 0.96629 0.76414 0.33142 0.0
O491 O 0.9722 0.84397 0.27555 0.0
O492 O 0.966 0.85115 0.37507 0.0
O493 O 0.03328 0.79618 0.27677 0.0
O494 O 0.02614 0.78453 0.37732 0.0
O495 O 0.03305 0.87244 0.33861 0.0
O496 O 0.03117 0.76418 0.33332 0.0
O497 O 0.03701 0.84233 0.28138 0.0
O498 O 0.03095 0.84672 0.37945 0.0
O499 O 0.96782 0.7976 0.2755 0.0
O500 O 0.96182 0.78949 0.37247 0.0
O501 O 0.96811 0.87391 0.33238 0.0
Sc502 Sc -0.00085 0.21412 0.80319 0.0
Sc503 Sc -0.00165 0.14045 0.80697 0.0
Sc504 Sc 0.99581 0.1798 0.87189 0.0
O505 O 0.99783 0.1782 0.82731 0.0
C506 C 0.03889 0.22894 0.85749 0.0
C507 C 0.04174 0.17527 0.76779 0.0
C508 C 0.03891 0.12972 0.86147 0.0
C509 C 0.95731 0.17549 0.76583 0.0
C510 C 0.95485 0.22937 0.85339 0.0
C511 C 0.95408 0.12951 0.85857 0.0
O512 O 0.0302 0.23322 0.83142 0.0
O513 O 0.03065 0.15274 0.77675 0.0
O514 O 0.02775 0.14862 0.87722 0.0
O515 O 0.9677 0.19919 0.77239 0.0
O516 O 0.96371 0.2111 0.87132 0.0
O517 O 0.96549 0.12346 0.83411 0.0
O518 O 0.96548 0.23316 0.828 0.0
O519 O 0.96617 0.15284 0.7769 0.0
O520 O 0.96259 0.14948 0.87463 0.0
O521 O 0.03342 0.19927 0.77591 0.0
O522 O 0.02871 0.21032 0.87426 0.0
O523 O 0.03079 0.12434 0.8354 0.0
Sc524 Sc 0.49771 0.2872 0.3047 0.0
Sc525 Sc 0.50022 0.36089 0.30924 0.0
Sc526 Sc 0.4945 0.32098 0.37365 0.0
O527 O 0.49747 0.32298 0.32916 0.0
C528 C 0.45277 0.27216 0.35427 0.0
C529 C 0.45951 0.32729 0.26582 0.0
C530 C 0.45388 0.37165 0.35862 0.0
C531 C 0.5438 0.32491 0.27183 0.0
C532 C 0.53664 0.27116 0.35922 0.0
C533 C 0.53837 0.3709 0.36594 0.0
O534 O 0.46375 0.2682 0.3291 0.0
O535 O 0.47041 0.34957 0.2758 0.0
O536 O 0.46186 0.35179 0.37503 0.0
O537 O 0.53212 0.30156 0.27726 0.0
O538 O 0.52652 0.28965 0.37624 0.0
O539 O 0.53068 0.37676 0.33992 0.0
O540 O 0.52837 0.2675 0.33285 0.0
O541 O 0.53479 0.34781 0.28227 0.0
O542 O 0.52714 0.35143 0.38081 0.0
O543 O 0.46651 0.30308 0.27453 0.0
O544 O 0.46162 0.29041 0.37225 0.0
O545 O 0.46578 0.37801 0.33446 0.0
Sc546 Sc 0.49755 0.7114 0.80434 0.0
Sc547 Sc 0.49911 0.63813 0.80901 0.0
Sc548 Sc 0.49392 0.67801 0.87285 0.0
O549 O 0.49681 0.67595 0.82857 0.0
C550 C 0.53748 0.72565 0.85932 0.0
C551 C 0.54148 0.67416 0.76975 0.0
C552 C 0.53674 0.62743 0.86412 0.0
C553 C 0.45805 0.67053 0.76658 0.0
C554 C 0.45449 0.72885 0.85361 0.0
C555 C 0.45305 0.62863 0.85953 0.0
O556 O 0.52626 0.73181 0.83465 0.0
O557 O 0.52968 0.65149 0.77723 0.0
O558 O 0.5217 0.64313 0.88025 0.0
O559 O 0.46843 0.69449 0.7721 0.0
O560 O 0.46593 0.71308 0.87254 0.0
O561 O 0.46829 0.6197 0.83846 0.0
O562 O 0.46166 0.72888 0.82667 0.0
O563 O 0.46581 0.64828 0.77935 0.0
O564 O 0.45766 0.65145 0.87285 0.0
O565 O 0.53381 0.69786 0.77937 0.0
O566 O 0.52975 0.70501 0.87492 0.0
O567 O 0.53339 0.62539 0.83652 0.0
C568 C 0.16559 0.323 0.91941 0.0
C569 C 0.15749 0.33313 0.94706 0.0
C570 C 0.14718 0.30655 0.90264 0.0
C571 C 0.11991 0.30075 0.91364 0.0
C572 C 0.11138 0.31173 0.94119 0.0
C573 C 0.13046 0.32755 0.95778 0.0
C574 C 0.1572 0.29466 0.87368 0.0
C575 C 0.08226 0.30642 0.95335 0.0
C576 C 0.06269 0.27515 0.86198 0.0
C577 C 0.06127 0.24688 0.86955 0.0
C578 C 0.08203 0.29298 0.87584 0.0
C579 C 0.10072 0.282 0.89714 0.0
C580 C 0.1002 0.25319 0.9038 0.0
C581 C 0.08021 0.23604 0.89018 0.0
C582 C 0.08166 0.32369 0.86862 0.0
C583 C 0.12027 0.2406 0.92585 0.0
H584 H 0.18665 0.32725 0.91134 0.0
H585 H 0.12428 0.33564 0.97913 0.0
H586 H 0.15742 0.27156 0.87492 0.0
H587 H 0.14253 0.30048 0.85574 0.0
H588 H 0.17867 0.302 0.86779 0.0
H589 H 0.0783 0.31813 0.97406 0.0
H590 H 0.0661 0.31244 0.93692 0.0
H591 H 0.07952 0.28385 0.95784 0.0
H592 H 0.04788 0.28356 0.84617 0.0
H593 H 0.07926 0.21409 0.89582 0.0
H594 H 0.103 0.33084 0.86216 0.0
H595 H 0.07547 0.33574 0.88847 0.0
H596 H 0.06676 0.32867 0.85055 0.0
H597 H 0.14228 0.24631 0.92028 0.0
H598 H 0.11861 0.21751 0.92673 0.0
H599 H 0.11579 0.24903 0.94811 0.0
C600 C 0.82633 0.67475 0.41534 0.0
C601 C 0.8347 0.66574 0.44332 0.0
C602 C 0.84447 0.69078 0.39776 0.0
C603 C 0.87167 0.69748 0.40836 0.0
C604 C 0.88055 0.68745 0.43615 0.0
C605 C 0.86183 0.67189 0.45342 0.0
C606 C 0.83417 0.70146 0.36844 0.0
C607 C 0.90956 0.69378 0.448 0.0
C608 C 0.92979 0.72363 0.3581 0.0
C609 C 0.93065 0.75195 0.3657 0.0
C610 C 0.90995 0.70567 0.371 0.0
C611 C 0.89031 0.7165 0.39149 0.0
C612 C 0.89004 0.74539 0.39781 0.0
C613 C 0.91039 0.76272 0.38505 0.0
C614 C 0.91106 0.67492 0.36399 0.0
C615 C 0.86905 0.75782 0.41909 0.0
H616 H 0.80524 0.67009 0.40767 0.0
H617 H 0.86832 0.66462 0.47497 0.0
H618 H 0.83251 0.72452 0.36923 0.0
H619 H 0.84941 0.69621 0.35078 0.0
H620 H 0.81326 0.69274 0.36247 0.0
H621 H 0.91389 0.68266 0.46895 0.0
H622 H 0.92584 0.68782 0.43164 0.0
H623 H 0.91168 0.71651 0.45197 0.0
H624 H 0.94552 0.71522 0.34325 0.0
H625 H 0.91081 0.78469 0.39069 0.0
H626 H 0.88981 0.66701 0.35825 0.0
H627 H 0.9182 0.6633 0.38373 0.0
H628 H 0.92567 0.67026 0.34552 0.0
H629 H 0.84738 0.75112 0.41336 0.0
H630 H 0.86982 0.78097 0.41929 0.0
H631 H 0.87349 0.75022 0.44168 0.0
C632 C 0.82363 0.32445 0.90123 0.0
C633 C 0.82959 0.33594 0.92888 0.0
C634 C 0.84305 0.30697 0.88712 0.0
C635 C 0.86921 0.30148 0.90081 0.0
C636 C 0.87546 0.31343 0.92857 0.0
C637 C 0.85537 0.3303 0.94247 0.0
C638 C 0.83542 0.29403 0.85788 0.0
C639 C 0.90335 0.30842 0.94358 0.0
C640 C 0.91112 0.23673 0.88242 0.0
C641 C 0.93156 0.24736 0.8632 0.0
C642 C 0.89 0.25394 0.89391 0.0
C643 C 0.88983 0.28259 0.88656 0.0
C644 C 0.9101 0.29334 0.86668 0.0
C645 C 0.93058 0.27545 0.8549 0.0
C646 C 0.8683 0.24158 0.91444 0.0
C647 C 0.91083 0.3239 0.8588 0.0
H648 H 0.80352 0.32878 0.89092 0.0
H649 H 0.85993 0.33945 0.96378 0.0
H650 H 0.85114 0.29996 0.84092 0.0
H651 H 0.83583 0.27097 0.85971 0.0
H652 H 0.81422 0.30051 0.85019 0.0
H653 H 0.90538 0.32033 0.96446 0.0
H654 H 0.9058 0.28592 0.94852 0.0
H655 H 0.92088 0.31444 0.92871 0.0
H656 H 0.91173 0.2149 0.8886 0.0
H657 H 0.94653 0.28369 0.8402 0.0
H658 H 0.84678 0.24692 0.90684 0.0
H659 H 0.87087 0.25054 0.9368 0.0
H660 H 0.87005 0.21854 0.91602 0.0
H661 H 0.89012 0.33059 0.85008 0.0
H662 H 0.92728 0.32872 0.84215 0.0
H663 H 0.91504 0.33645 0.87886 0.0
C664 C 0.16757 0.6926 0.43643 0.0
C665 C 0.1623 0.66457 0.44308 0.0
C666 C 0.14803 0.70835 0.42051 0.0
C667 C 0.12254 0.69577 0.41137 0.0
C668 C 0.11748 0.66722 0.41725 0.0
C669 C 0.13757 0.65187 0.43295 0.0
C670 C 0.15427 0.73867 0.41432 0.0
C671 C 0.09038 0.65323 0.40807 0.0
C672 C 0.0606 0.74457 0.40366 0.0
C673 C 0.05901 0.74798 0.37305 0.0
C674 C 0.08087 0.72719 0.4163 0.0
C675 C 0.10025 0.71312 0.3979 0.0
C676 C 0.09873 0.7163 0.36697 0.0
C677 C 0.07796 0.7336 0.35486 0.0
C678 C 0.08168 0.72407 0.4494 0.0
C679 C 0.11932 0.70181 0.34677 0.0
H680 H 0.18694 0.70225 0.44391 0.0
H681 H 0.1335 0.6302 0.43822 0.0
H682 H 0.15137 0.74321 0.39058 0.0
H683 H 0.1393 0.75202 0.42669 0.0
H684 H 0.17604 0.74459 0.42073 0.0
H685 H 0.09063 0.63044 0.41237 0.0
H686 H 0.07251 0.66257 0.42033 0.0
H687 H 0.08641 0.65669 0.3843 0.0
H688 H 0.04585 0.75539 0.41785 0.0
H689 H 0.07689 0.73624 0.33119 0.0
H690 H 0.10208 0.73187 0.45799 0.0
H691 H 0.08003 0.70173 0.45549 0.0
H692 H 0.06442 0.73565 0.46047 0.0
H693 H 0.14105 0.70887 0.35177 0.0
H694 H 0.11488 0.70597 0.32317 0.0
H695 H 0.11865 0.67897 0.3505 0.0
C696 C 0.63052 0.82396 0.95902 0.0
C697 C 0.65694 0.83039 0.94718 0.0
C698 C 0.61107 0.80811 0.94293 0.0
C699 C 0.61856 0.79806 0.91467 0.0
C700 C 0.64514 0.80478 0.9025 0.0
C701 C 0.66397 0.82112 0.91886 0.0
C702 C 0.5827 0.80173 0.95638 0.0
C703 C 0.65404 0.79397 0.87268 0.0
C704 C 0.57984 0.73297 0.89057 0.0
C705 C 0.55969 0.7439 0.87126 0.0
C706 C 0.59976 0.7503 0.90406 0.0
C707 C 0.59909 0.77932 0.89855 0.0
C708 C 0.57918 0.79042 0.87859 0.0
C709 C 0.55985 0.77248 0.8649 0.0
C710 C 0.6211 0.73762 0.92471 0.0
C711 C 0.57763 0.82133 0.87256 0.0
H712 H 0.62511 0.83137 0.98086 0.0
H713 H 0.68457 0.82594 0.90989 0.0
H714 H 0.56564 0.80787 0.94104 0.0
H715 H 0.58069 0.77897 0.96018 0.0
H716 H 0.57947 0.81268 0.97768 0.0
H717 H 0.675 0.80203 0.86591 0.0
H718 H 0.65491 0.77086 0.87314 0.0
H719 H 0.63837 0.7999 0.85574 0.0
H720 H 0.57991 0.71081 0.89528 0.0
H721 H 0.54415 0.78099 0.85013 0.0
H722 H 0.61748 0.7454 0.94741 0.0
H723 H 0.64269 0.74397 0.91821 0.0
H724 H 0.62 0.71448 0.925 0.0
H725 H 0.57215 0.83257 0.89314 0.0
H726 H 0.5617 0.82647 0.85552 0.0
H727 H 0.59842 0.82925 0.8652 0.0
C728 C 0.32544 0.17573 0.4124 0.0
C729 C 0.33387 0.16638 0.44024 0.0
C730 C 0.34352 0.19205 0.39504 0.0
C731 C 0.37073 0.19864 0.40567 0.0
C732 C 0.37969 0.1882 0.43327 0.0
C733 C 0.36102 0.1724 0.45036 0.0
C734 C 0.33311 0.20318 0.36595 0.0
C735 C 0.40873 0.19438 0.44515 0.0
C736 C 0.42865 0.22588 0.35575 0.0
C737 C 0.4295 0.25402 0.36402 0.0
C738 C 0.40889 0.20763 0.36834 0.0
C739 C 0.38929 0.21801 0.38913 0.0
C740 C 0.38898 0.24678 0.39608 0.0
C741 C 0.40931 0.26438 0.38368 0.0
C742 C 0.41007 0.17702 0.3607 0.0
C743 C 0.368 0.25879 0.41763 0.0
H744 H 0.30433 0.17116 0.40473 0.0
H745 H 0.36755 0.16487 0.47179 0.0
H746 H 0.33134 0.22622 0.3672 0.0
H747 H 0.34835 0.19832 0.34816 0.0
H748 H 0.31224 0.19446 0.35986 0.0
H749 H 0.41317 0.18285 0.46583 0.0
H750 H 0.42497 0.18881 0.42859 0.0
H751 H 0.41079 0.21703 0.44963 0.0
H752 H 0.44436 0.21783 0.34065 0.0
H753 H 0.40975 0.28624 0.3898 0.0
H754 H 0.38883 0.16915 0.35487 0.0
H755 H 0.41731 0.16506 0.38016 0.0
H756 H 0.42463 0.17274 0.34208 0.0
H757 H 0.34634 0.25204 0.41189 0.0
H758 H 0.36863 0.28194 0.41818 0.0
H759 H 0.37258 0.2509 0.44008 0.0
C760 C 0.35323 0.84923 0.91304 0.0
C761 C 0.32777 0.83796 0.92314 0.0
C762 C 0.37344 0.8323 0.89938 0.0
C763 C 0.36785 0.80353 0.89556 0.0
C764 C 0.34174 0.79226 0.90477 0.0
C765 C 0.32205 0.80962 0.91861 0.0
C766 C 0.40119 0.84496 0.89014 0.0
C767 C 0.33496 0.76172 0.90082 0.0
C768 C 0.41409 0.76123 0.84389 0.0
C769 C 0.43232 0.7482 0.86387 0.0
C770 C 0.3929 0.77935 0.85383 0.0
C771 C 0.39021 0.78474 0.88436 0.0
C772 C 0.40874 0.7719 0.90454 0.0
C773 C 0.42945 0.7537 0.89407 0.0
C774 C 0.37326 0.79253 0.83177 0.0
C775 C 0.40669 0.77733 0.93725 0.0
H776 H 0.35771 0.87113 0.9167 0.0
H777 H 0.30217 0.801 0.92605 0.0
H778 H 0.41841 0.83607 0.90368 0.0
H779 H 0.40581 0.83976 0.86684 0.0
H780 H 0.40142 0.86799 0.89271 0.0
H781 H 0.31286 0.75676 0.90692 0.0
H782 H 0.33851 0.75536 0.87763 0.0
H783 H 0.34919 0.74901 0.91473 0.0
H784 H 0.41613 0.757 0.82054 0.0
H785 H 0.44359 0.74394 0.90966 0.0
H786 H 0.37451 0.81558 0.83338 0.0
H787 H 0.35121 0.7865 0.83676 0.0
H788 H 0.37821 0.78625 0.80879 0.0
H789 H 0.40874 0.79999 0.94172 0.0
H790 H 0.42316 0.76613 0.94992 0.0
H791 H 0.38575 0.77069 0.94553 0.0
C792 C 0.66229 0.17551 0.41869 0.0
C793 C 0.65449 0.1645 0.44605 0.0
C794 C 0.64359 0.19211 0.40258 0.0
C795 C 0.61635 0.19725 0.41395 0.0
C796 C 0.60807 0.18534 0.44115 0.0
C797 C 0.62744 0.16934 0.4571 0.0
C798 C 0.65335 0.20498 0.374 0.0
C799 C 0.57898 0.18995 0.45365 0.0
C800 C 0.57714 0.26274 0.39258 0.0
C801 C 0.55843 0.25263 0.37127 0.0
C802 C 0.59672 0.24505 0.40596 0.0
C803 C 0.59705 0.21645 0.39833 0.0
C804 C 0.57848 0.20618 0.37649 0.0
C805 C 0.55956 0.22454 0.36291 0.0
C806 C 0.61669 0.25689 0.42863 0.0
C807 C 0.57795 0.17569 0.36824 0.0
H808 H 0.68338 0.17189 0.41038 0.0
H809 H 0.6215 0.1606 0.47822 0.0
H810 H 0.63853 0.19969 0.35598 0.0
H811 H 0.65355 0.22803 0.37613 0.0
H812 H 0.67477 0.19793 0.36763 0.0
H813 H 0.57518 0.17743 0.47383 0.0
H814 H 0.57616 0.21231 0.45917 0.0
H815 H 0.56278 0.18446 0.43703 0.0
H816 H 0.5764 0.28455 0.39886 0.0
H817 H 0.5449 0.2167 0.3466 0.0
H818 H 0.63874 0.25159 0.42279 0.0
H819 H 0.61228 0.24751 0.45046 0.0
H820 H 0.61491 0.27991 0.43061 0.0
H821 H 0.59919 0.16876 0.36126 0.0
H822 H 0.56283 0.17122 0.3502 0.0
H823 H 0.57198 0.16306 0.38774 0.0
C824 C 0.32629 0.52676 0.90415 0.0
C825 C 0.3237 0.5267 0.93498 0.0
C826 C 0.34512 0.54483 0.8899 0.0
C827 C 0.36253 0.56253 0.90691 0.0
C828 C 0.3595 0.56322 0.93788 0.0
C829 C 0.33971 0.54577 0.95145 0.0
C830 C 0.34708 0.54425 0.85672 0.0
C831 C 0.37805 0.58147 0.95684 0.0
C832 C 0.43362 0.58311 0.87572 0.0
C833 C 0.42943 0.61137 0.86966 0.0
C834 C 0.41189 0.56689 0.88771 0.0
C835 C 0.38513 0.57909 0.89262 0.0
C836 C 0.38051 0.60737 0.88522 0.0
C837 C 0.40297 0.62338 0.87438 0.0
C838 C 0.41787 0.53703 0.89615 0.0
C839 C 0.35199 0.62077 0.88903 0.0
H840 H 0.31436 0.51202 0.89106 0.0
H841 H 0.33732 0.54667 0.97515 0.0
H842 H 0.34686 0.56576 0.84777 0.0
H843 H 0.36723 0.53451 0.84994 0.0
H844 H 0.32954 0.53226 0.84661 0.0
H845 H 0.37285 0.57974 0.98062 0.0
H846 H 0.40043 0.57552 0.9537 0.0
H847 H 0.376 0.60361 0.95019 0.0
H848 H 0.45424 0.57401 0.87221 0.0
H849 H 0.39982 0.64526 0.86939 0.0
H850 H 0.40328 0.52276 0.88447 0.0
H851 H 0.41427 0.53419 0.92011 0.0
H852 H 0.43983 0.53077 0.89094 0.0
H853 H 0.33555 0.60787 0.87825 0.0
H854 H 0.35127 0.64213 0.87963 0.0
H855 H 0.34662 0.62203 0.91275 0.0
C856 C 0.67222 0.45413 0.43004 0.0
C857 C 0.66251 0.47625 0.44749 0.0
C858 C 0.65326 0.43549 0.41675 0.0
C859 C 0.62396 0.43924 0.42094 0.0
C860 C 0.61408 0.46139 0.43875 0.0
C861 C 0.63347 0.4796 0.4518 0.0
C862 C 0.66451 0.412 0.39801 0.0
C863 C 0.58299 0.46619 0.44357 0.0
C864 C 0.57204 0.41112 0.36494 0.0
C865 C 0.5612 0.38764 0.37952 0.0
C866 C 0.59297 0.4277 0.37789 0.0
C867 C 0.60343 0.4206 0.40605 0.0
C868 C 0.59314 0.39659 0.42061 0.0
C869 C 0.5721 0.38043 0.40721 0.0
C870 C 0.60338 0.45322 0.36173 0.0
C871 C 0.60393 0.38832 0.45061 0.0
H872 H 0.69466 0.45136 0.42685 0.0
H873 H 0.62583 0.49695 0.46485 0.0
H874 H 0.65655 0.39172 0.4063 0.0
H875 H 0.6569 0.4143 0.37506 0.0
H876 H 0.68789 0.41142 0.39775 0.0
H877 H 0.57883 0.48395 0.45867 0.0
H878 H 0.57258 0.47047 0.42219 0.0
H879 H 0.57308 0.44719 0.45288 0.0
H880 H 0.56387 0.41687 0.34353 0.0
H881 H 0.56407 0.36222 0.41858 0.0
H882 H 0.62663 0.45255 0.35952 0.0
H883 H 0.5981 0.47223 0.37452 0.0
H884 H 0.59402 0.45514 0.33942 0.0
H885 H 0.62722 0.38665 0.45024 0.0
H886 H 0.59501 0.36814 0.45818 0.0
H887 H 0.59842 0.40465 0.46695 0.0
C888 C 0.64001 0.51297 0.92794 0.0
C889 C 0.65802 0.52352 0.94959 0.0
C890 C 0.62156 0.53059 0.91281 0.0
C891 C 0.62175 0.5595 0.91909 0.0
C892 C 0.64093 0.57042 0.94002 0.0
C893 C 0.65859 0.55214 0.95546 0.0
C894 C 0.60094 0.51808 0.89121 0.0
C895 C 0.64223 0.60123 0.94666 0.0
C896 C 0.58438 0.60571 0.86386 0.0
C897 C 0.55876 0.61058 0.87825 0.0
C898 C 0.60555 0.58983 0.8773 0.0
C899 C 0.60047 0.57789 0.90529 0.0
C900 C 0.57452 0.58265 0.9198 0.0
C901 C 0.55412 0.59933 0.90627 0.0
C902 C 0.63329 0.58583 0.8616 0.0
C903 C 0.56803 0.56961 0.9493 0.0
H904 H 0.63954 0.4907 0.92377 0.0
H905 H 0.67265 0.5601 0.97228 0.0
H906 H 0.57912 0.52146 0.8992 0.0
H907 H 0.60278 0.5285 0.86951 0.0
H908 H 0.60425 0.49534 0.88809 0.0
H909 H 0.66031 0.60664 0.96108 0.0
H910 H 0.64396 0.61333 0.92592 0.0
H911 H 0.62255 0.60786 0.95778 0.0
H912 H 0.58802 0.6147 0.84229 0.0
H913 H 0.53419 0.60299 0.91727 0.0
H914 H 0.63646 0.56344 0.85648 0.0
H915 H 0.65089 0.59241 0.87608 0.0
H916 H 0.63445 0.59785 0.84074 0.0
H917 H 0.5695 0.54657 0.94761 0.0
H918 H 0.54668 0.57513 0.95742 0.0
H919 H 0.58372 0.57644 0.96587 0.0
C920 C 0.32287 0.46684 0.40534 0.0
C921 C 0.32053 0.46614 0.43618 0.0
C922 C 0.3423 0.4499 0.39048 0.0
C923 C 0.36051 0.43257 0.40687 0.0
C924 C 0.35764 0.43096 0.43783 0.0
C925 C 0.3373 0.44731 0.45202 0.0
C926 C 0.34409 0.45141 0.35732 0.0
C927 C 0.37699 0.41302 0.45616 0.0
C928 C 0.40353 0.37456 0.37243 0.0
C929 C 0.42947 0.38785 0.36829 0.0
C930 C 0.38039 0.38924 0.38367 0.0
C931 C 0.38379 0.41748 0.39201 0.0
C932 C 0.41001 0.43101 0.38754 0.0
C933 C 0.43248 0.41607 0.37521 0.0
C934 C 0.35251 0.37443 0.38707 0.0
C935 C 0.41466 0.46088 0.39691 0.0
H936 H 0.31036 0.48143 0.39274 0.0
H937 H 0.33515 0.44586 0.47571 0.0
H938 H 0.36375 0.46227 0.35079 0.0
H939 H 0.34483 0.43015 0.3477 0.0
H940 H 0.32598 0.4628 0.34764 0.0
H941 H 0.37164 0.41372 0.47996 0.0
H942 H 0.37602 0.39105 0.44864 0.0
H943 H 0.39906 0.42018 0.45335 0.0
H944 H 0.40143 0.35265 0.36689 0.0
H945 H 0.45275 0.42608 0.37216 0.0
H946 H 0.33546 0.38688 0.37682 0.0
H947 H 0.34731 0.3722 0.41075 0.0
H948 H 0.35271 0.35336 0.3769 0.0
H949 H 0.39933 0.47474 0.38581 0.0
H950 H 0.43627 0.46831 0.39176 0.0
H951 H 0.41112 0.46288 0.42098 0.0
C952 C 0.85979 0.0134 0.92949 0.0
C953 C 0.83059 0.01754 0.92889 0.0
C954 C 0.8782 0.03257 0.91655 0.0
C955 C 0.86714 0.05641 0.90242 0.0
C956 C 0.83764 0.06041 0.90099 0.0
C957 C 0.81963 0.04085 0.91429 0.0
C958 C 0.90954 0.02748 0.91842 0.0
C959 C 0.82519 0.08556 0.88593 0.0
C960 C 0.91896 0.11619 0.89724 0.0
C961 C 0.93013 0.11229 0.86893 0.0
C962 C 0.89745 0.09891 0.90795 0.0
C963 C 0.8868 0.07731 0.88987 0.0
C964 C 0.89707 0.07401 0.86084 0.0
C965 C 0.91867 0.0915 0.85073 0.0
C966 C 0.88703 0.10299 0.93908 0.0
C967 C 0.88608 0.05128 0.84088 0.0
H968 H 0.86831 0.99505 0.94017 0.0
H969 H 0.79706 0.04411 0.91385 0.0
H970 H 0.91881 0.0268 0.896 0.0
H971 H 0.91983 0.04488 0.93042 0.0
H972 H 0.91465 0.00766 0.92986 0.0
H973 H 0.80181 0.08489 0.88546 0.0
H974 H 0.83189 0.10482 0.89753 0.0
H975 H 0.8331 0.08703 0.86299 0.0
H976 H 0.92749 0.1323 0.91142 0.0
H977 H 0.92689 0.08851 0.82869 0.0
H978 H 0.89326 0.08485 0.95273 0.0
H979 H 0.86371 0.10415 0.93947 0.0
H980 H 0.89567 0.12221 0.94935 0.0
H981 H 0.89256 0.03064 0.84953 0.0
H982 H 0.8941 0.05336 0.818 0.0
H983 H 0.86273 0.05158 0.84036 0.0
C984 C 0.13514 0.97707 0.44861 0.0
C985 C 0.16426 0.97436 0.44444 0.0
C986 C 0.11623 0.95831 0.43564 0.0
C987 C 0.12668 0.93625 0.41805 0.0
C988 C 0.15607 0.93316 0.41401 0.0
C989 C 0.17455 0.95233 0.42721 0.0
C990 C 0.08502 0.96242 0.44031 0.0
C991 C 0.16795 0.90979 0.39553 0.0
C992 C 0.07595 0.87633 0.40497 0.0
C993 C 0.06475 0.88317 0.37731 0.0
C994 C 0.09681 0.89293 0.41811 0.0
C995 C 0.10663 0.917 0.4033 0.0
C996 C 0.09598 0.92363 0.37508 0.0
C997 C 0.07524 0.90663 0.3624 0.0
C998 C 0.10779 0.88513 0.44817 0.0
C999 C 0.1059 0.94919 0.35864 0.0
H1000 H 0.12704 0.99434 0.46148 0.0
H1001 H 0.19706 0.95004 0.42414 0.0
H1002 H 0.07456 0.96625 0.41886 0.0
H1003 H 0.07554 0.94328 0.4498 0.0
H1004 H 0.08038 0.98022 0.45521 0.0
H1005 H 0.19133 0.90977 0.39532 0.0
H1006 H 0.16047 0.88939 0.404 0.0
H1007 H 0.16033 0.9117 0.37254 0.0
H1008 H 0.06819 0.85817 0.41661 0.0
H1009 H 0.06685 0.9121 0.341 0.0
H1010 H 0.10178 0.90139 0.46439 0.0
H1011 H 0.13112 0.88411 0.44786 0.0
H1012 H 0.09944 0.86475 0.45585 0.0
H1013 H 0.10005 0.96821 0.37112 0.0
H1014 H 0.09665 0.9506 0.33623 0.0
H1015 H 0.12918 0.94905 0.35661 0.0
C1016 C 0.12235 0.01975 0.95349 0.0
C1017 C 0.15182 0.02079 0.95233 0.0
C1018 C 0.10592 0.03825 0.93709 0.0
C1019 C 0.11928 0.05826 0.91896 0.0
C1020 C 0.14903 0.05932 0.91742 0.0
C1021 C 0.165 0.04049 0.93415 0.0
C1022 C 0.07422 0.03641 0.93925 0.0
C1023 C 0.16392 0.08045 0.89833 0.0
C1024 C 0.0716 0.0887 0.86047 0.0
C1025 C 0.06176 0.11284 0.8746 0.0
C1026 C 0.09149 0.07137 0.87404 0.0
C1027 C 0.10179 0.0784 0.90232 0.0
C1028 C 0.09303 0.10341 0.91603 0.0
C1029 C 0.07312 0.12031 0.90203 0.0
C1030 C 0.10045 0.04486 0.85874 0.0
C1031 C 0.10365 0.11167 0.94615 0.0
H1032 H 0.11205 0.00414 0.96698 0.0
H1033 H 0.18779 0.04138 0.93327 0.0
H1034 H 0.06559 0.0564 0.94757 0.0
H1035 H 0.06506 0.03278 0.91712 0.0
H1036 H 0.06718 0.01939 0.95412 0.0
H1037 H 0.18716 0.07803 0.89896 0.0
H1038 H 0.15676 0.07842 0.87518 0.0
H1039 H 0.15851 0.10184 0.90571 0.0
H1040 H 0.06311 0.08284 0.8392 0.0
H1041 H 0.06599 0.13911 0.91298 0.0
H1042 H 0.09191 0.02661 0.87081 0.0
H1043 H 0.12372 0.04297 0.85878 0.0
H1044 H 0.09289 0.04389 0.83562 0.0
H1045 H 0.09546 0.09685 0.96284 0.0
H1046 H 0.09699 0.13306 0.95244 0.0
H1047 H 0.12696 0.1106 0.94689 0.0
C1048 C 0.82243 0.95918 0.40978 0.0
C1049 C 0.83294 0.98311 0.42369 0.0
C1050 C 0.84078 0.93986 0.39666 0.0
C1051 C 0.87018 0.94475 0.39755 0.0
C1052 C 0.88075 0.96935 0.41071 0.0
C1053 C 0.86199 0.98825 0.42352 0.0
C1054 C 0.82883 0.91388 0.38265 0.0
C1055 C 0.91196 0.97539 0.412 0.0
C1056 C 0.92258 0.88548 0.39565 0.0
C1057 C 0.93358 0.88783 0.36707 0.0
C1058 C 0.90108 0.90317 0.40544 0.0
C1059 C 0.89023 0.92367 0.38618 0.0
C1060 C 0.90044 0.92552 0.35698 0.0
C1061 C 0.92205 0.90762 0.34778 0.0
C1062 C 0.89074 0.90064 0.43679 0.0
C1063 C 0.88922 0.94704 0.33579 0.0
H1064 H 0.79997 0.95516 0.40993 0.0
H1065 H 0.87012 0.00707 0.43369 0.0
H1066 H 0.83711 0.91141 0.35995 0.0
H1067 H 0.83553 0.8953 0.39535 0.0
H1068 H 0.80546 0.91422 0.38178 0.0
H1069 H 0.91661 0.99599 0.42208 0.0
H1070 H 0.9227 0.95903 0.42507 0.0
H1071 H 0.92112 0.97492 0.38953 0.0
H1072 H 0.93117 0.87017 0.41069 0.0
H1073 H 0.93017 0.90943 0.32555 0.0
H1074 H 0.86746 0.89884 0.43725 0.0
H1075 H 0.89645 0.91972 0.44928 0.0
H1076 H 0.89987 0.88232 0.44827 0.0
H1077 H 0.86589 0.94631 0.33519 0.0
H1078 H 0.89739 0.94398 0.31309 0.0
H1079 H 0.89533 0.96819 0.34337 0.0
C1080 C 0.33298 0.37921 0.16922 0.0
C1081 C 0.33199 0.36743 0.14107 0.0
C1082 C 0.3513 0.36866 0.19064 0.0
C1083 C 0.36958 0.34639 0.18328 0.0
C1084 C 0.36747 0.33345 0.15533 0.0
C1085 C 0.34843 0.34402 0.13457 0.0
C1086 C 0.35243 0.38257 0.22045 0.0
C1087 C 0.3869 0.31002 0.14645 0.0
C1088 C 0.44004 0.35072 0.2217 0.0
C1089 C 0.43745 0.33009 0.24329 0.0
C1090 C 0.41849 0.35536 0.20131 0.0
C1091 C 0.39338 0.33951 0.20314 0.0
C1092 C 0.39081 0.31829 0.22464 0.0
C1093 C 0.41313 0.31355 0.24429 0.0
C1094 C 0.42238 0.37771 0.17823 0.0
C1095 C 0.36411 0.30145 0.22766 0.0
H1096 H 0.32016 0.39734 0.17408 0.0
H1097 H 0.34773 0.33518 0.1126 0.0
H1098 H 0.35302 0.36673 0.23823 0.0
H1099 H 0.37194 0.39521 0.22216 0.0
H1100 H 0.33411 0.39652 0.22419 0.0
H1101 H 0.38007 0.29982 0.12568 0.0
H1102 H 0.40846 0.31843 0.14319 0.0
H1103 H 0.3881 0.29404 0.16402 0.0
H1104 H 0.45898 0.36334 0.22084 0.0
H1105 H 0.41109 0.29776 0.26122 0.0
H1106 H 0.40721 0.39489 0.18213 0.0
H1107 H 0.41804 0.36911 0.156 0.0
H1108 H 0.444 0.38658 0.17836 0.0
H1109 H 0.34664 0.31535 0.23459 0.0
H1110 H 0.3662 0.28445 0.24409 0.0
H1111 H 0.35809 0.29223 0.20617 0.0
C1112 C 0.65948 0.65944 0.64512 0.0
C1113 C 0.67453 0.63513 0.65164 0.0
C1114 C 0.64034 0.67064 0.66547 0.0
C1115 C 0.63665 0.65738 0.69304 0.0
C1116 C 0.65389 0.63443 0.70071 0.0
C1117 C 0.6724 0.62332 0.67971 0.0
C1118 C 0.62217 0.69491 0.65629 0.0
C1119 C 0.65109 0.62012 0.73015 0.0
C1120 C 0.5893 0.68862 0.75215 0.0
C1121 C 0.56503 0.67231 0.74872 0.0
C1122 C 0.61286 0.68444 0.73389 0.0
C1123 C 0.61164 0.66396 0.71142 0.0
C1124 C 0.5866 0.64844 0.70711 0.0
C1125 C 0.56377 0.65257 0.72605 0.0
C1126 C 0.63936 0.70099 0.73943 0.0
C1127 C 0.58414 0.62686 0.68297 0.0
H1128 H 0.66105 0.66842 0.62328 0.0
H1129 H 0.68423 0.6046 0.68471 0.0
H1130 H 0.60076 0.68717 0.65088 0.0
H1131 H 0.62 0.71021 0.67446 0.0
H1132 H 0.63079 0.70573 0.63663 0.0
H1133 H 0.6691 0.60598 0.73461 0.0
H1134 H 0.64966 0.63567 0.74818 0.0
H1135 H 0.63145 0.60758 0.73049 0.0
H1136 H 0.59029 0.70374 0.76988 0.0
H1137 H 0.54485 0.64016 0.72326 0.0
H1138 H 0.64731 0.71023 0.71865 0.0
H1139 H 0.656 0.68689 0.74786 0.0
H1140 H 0.63602 0.71794 0.75574 0.0
H1141 H 0.58994 0.63613 0.66143 0.0
H1142 H 0.56253 0.61813 0.68126 0.0
H1143 H 0.59895 0.60947 0.68725 0.0
C1144 C 0.63831 0.35139 0.13441 0.0
C1145 C 0.66757 0.34974 0.13795 0.0
C1146 C 0.61999 0.34376 0.15713 0.0
C1147 C 0.63118 0.33414 0.18413 0.0
C1148 C 0.66067 0.331 0.18735 0.0
C1149 C 0.6786 0.33884 0.16412 0.0
C1150 C 0.58867 0.34729 0.15269 0.0
C1151 C 0.67332 0.32066 0.21577 0.0
C1152 C 0.58346 0.35093 0.24831 0.0
C1153 C 0.56843 0.32593 0.25175 0.0
C1154 C 0.60508 0.35333 0.22749 0.0
C1155 C 0.61192 0.33016 0.20958 0.0
C1156 C 0.59795 0.3044 0.21396 0.0
C1157 C 0.57633 0.30257 0.23502 0.0
C1158 C 0.61953 0.38116 0.22359 0.0
C1159 C 0.60484 0.2792 0.19539 0.0
H1160 H 0.62973 0.35924 0.11392 0.0
H1161 H 0.70123 0.3375 0.16685 0.0
H1162 H 0.57742 0.32774 0.15833 0.0
H1163 H 0.58069 0.36384 0.16759 0.0
H1164 H 0.58333 0.35308 0.12969 0.0
H1165 H 0.69611 0.31597 0.21346 0.0
H1166 H 0.67071 0.33676 0.23311 0.0
H1167 H 0.66225 0.30161 0.22341 0.0
H1168 H 0.57788 0.36901 0.2614 0.0
H1169 H 0.56501 0.2831 0.23764 0.0
H1170 H 0.61376 0.39012 0.20191 0.0
H1171 H 0.64272 0.37854 0.22382 0.0
H1172 H 0.61361 0.39632 0.24103 0.0
H1173 H 0.59714 0.28254 0.17262 0.0
H1174 H 0.59498 0.2599 0.20416 0.0
H1175 H 0.62795 0.2761 0.19412 0.0
C1176 C 0.35019 0.65214 0.63299 0.0
C1177 C 0.3334 0.62898 0.63963 0.0
C1178 C 0.36871 0.66319 0.654 0.0
C1179 C 0.36991 0.65101 0.68236 0.0
C1180 C 0.35129 0.62902 0.68978 0.0
C1181 C 0.33351 0.61795 0.66811 0.0
C1182 C 0.38858 0.68626 0.64506 0.0
C1183 C 0.35146 0.61594 0.72 0.0
C1184 C 0.4393 0.64666 0.72259 0.0
C1185 C 0.43654 0.66781 0.74359 0.0
C1186 C 0.4182 0.64188 0.70175 0.0
C1187 C 0.39334 0.65812 0.70259 0.0
C1188 C 0.39064 0.6799 0.7235 0.0
C1189 C 0.41259 0.68478 0.7436 0.0
C1190 C 0.42226 0.61894 0.67931 0.0
C1191 C 0.36417 0.69715 0.72545 0.0
H1192 H 0.35011 0.66045 0.61079 0.0
H1193 H 0.32033 0.60009 0.67311 0.0
H1194 H 0.38952 0.70266 0.66225 0.0
H1195 H 0.41012 0.67764 0.64257 0.0
H1196 H 0.38234 0.696 0.62387 0.0
H1197 H 0.33288 0.60227 0.7236 0.0
H1198 H 0.37075 0.60318 0.72263 0.0
H1199 H 0.35178 0.63226 0.73732 0.0
H1200 H 0.45802 0.63372 0.72259 0.0
H1201 H 0.4105 0.70097 0.76013 0.0
H1202 H 0.41847 0.62703 0.65678 0.0
H1203 H 0.4068 0.60201 0.68331 0.0
H1204 H 0.44375 0.60987 0.68014 0.0
H1205 H 0.35862 0.70574 0.70356 0.0
H1206 H 0.36628 0.71466 0.74133 0.0
H1207 H 0.34639 0.68371 0.73256 0.0
C1208 C 0.83125 0.84751 0.15582 0.0
C1209 C 0.84371 0.85577 0.12928 0.0
C1210 C 0.84785 0.8371 0.17892 0.0
C1211 C 0.87737 0.83492 0.17508 0.0
C1212 C 0.88957 0.84114 0.14742 0.0
C1213 C 0.87256 0.85154 0.12487 0.0
C1214 C 0.83409 0.83047 0.20804 0.0
C1215 C 0.92092 0.83893 0.1423 0.0
C1216 C 0.9268 0.8507 0.23793 0.0
C1217 C 0.9377 0.82426 0.24454 0.0
C1218 C 0.90618 0.85415 0.21631 0.0
C1219 C 0.89611 0.83058 0.20078 0.0
C1220 C 0.90609 0.80367 0.20807 0.0
C1221 C 0.92682 0.8008 0.22992 0.0
C1222 C 0.89601 0.88324 0.20928 0.0
C1223 C 0.89566 0.77809 0.19206 0.0
H1224 H 0.80888 0.85072 0.15912 0.0
H1225 H 0.88204 0.85751 0.10407 0.0
H1226 H 0.84269 0.81089 0.21738 0.0
H1227 H 0.83864 0.84746 0.22394 0.0
H1228 H 0.81088 0.8284 0.20593 0.0
H1229 H 0.92652 0.8412 0.11867 0.0
H1230 H 0.93187 0.85555 0.15489 0.0
H1231 H 0.92896 0.81861 0.15028 0.0
H1232 H 0.93468 0.86894 0.24937 0.0
H1233 H 0.93495 0.78027 0.23503 0.0
H1234 H 0.87269 0.88409 0.21011 0.0
H1235 H 0.90253 0.88897 0.1866 0.0
H1236 H 0.90454 0.89909 0.22474 0.0
H1237 H 0.87233 0.77808 0.19093 0.0
H1238 H 0.90273 0.75852 0.20279 0.0
H1239 H 0.90365 0.77829 0.1691 0.0
C1240 C 0.17169 0.12351 0.67609 0.0
C1241 C 0.1731 0.13491 0.64779 0.0
C1242 C 0.15341 0.13467 0.69729 0.0
C1243 C 0.1356 0.15718 0.68957 0.0
C1244 C 0.13843 0.16995 0.66163 0.0
C1245 C 0.15741 0.15876 0.6411 0.0
C1246 C 0.15155 0.12093 0.72711 0.0
C1247 C 0.11958 0.19366 0.65234 0.0
C1248 C 0.06356 0.15237 0.7246 0.0
C1249 C 0.065 0.17288 0.74649 0.0
C1250 C 0.08606 0.1479 0.70531 0.0
C1251 C 0.11098 0.16385 0.70849 0.0
C1252 C 0.11242 0.18499 0.73025 0.0
C1253 C 0.08916 0.18952 0.74885 0.0
C1254 C 0.08334 0.12561 0.68193 0.0
C1255 C 0.13885 0.20195 0.73466 0.0
H1256 H 0.184 0.10512 0.6812 0.0
H1257 H 0.15841 0.16739 0.61906 0.0
H1258 H 0.15027 0.13683 0.74481 0.0
H1259 H 0.13215 0.10807 0.72825 0.0
H1260 H 0.16991 0.10719 0.73142 0.0
H1261 H 0.12738 0.20408 0.63208 0.0
H1262 H 0.09814 0.18545 0.64792 0.0
H1263 H 0.11772 0.20942 0.67012 0.0
H1264 H 0.04474 0.13969 0.72265 0.0
H1265 H 0.09029 0.20523 0.76599 0.0
H1266 H 0.09849 0.10855 0.68636 0.0
H1267 H 0.0885 0.13435 0.65996 0.0
H1268 H 0.06183 0.11655 0.68106 0.0
H1269 H 0.15595 0.18819 0.74271 0.0
H1270 H 0.13579 0.21909 0.75082 0.0
H1271 H 0.14601 0.21101 0.71348 0.0
C1272 C 0.13624 0.83926 0.12993 0.0
C1273 C 0.16557 0.83923 0.13308 0.0
C1274 C 0.11864 0.83201 0.15341 0.0
C1275 C 0.13069 0.82451 0.18075 0.0
C1276 C 0.16034 0.82271 0.18354 0.0
C1277 C 0.17753 0.83009 0.15954 0.0
C1278 C 0.08714 0.83404 0.1494 0.0
C1279 C 0.17391 0.81459 0.21229 0.0
C1280 C 0.08384 0.84456 0.24457 0.0
C1281 C 0.06958 0.81949 0.25028 0.0
C1282 C 0.10496 0.84602 0.2231 0.0
C1283 C 0.11211 0.82182 0.20692 0.0
C1284 C 0.099 0.7961 0.21364 0.0
C1285 C 0.07782 0.79523 0.23525 0.0
C1286 C 0.1185 0.87388 0.21665 0.0
C1287 C 0.1063 0.76982 0.19702 0.0
H1288 H 0.12702 0.84586 0.10925 0.0
H1289 H 0.20023 0.83005 0.16194 0.0
H1290 H 0.07672 0.81462 0.15698 0.0
H1291 H 0.07882 0.85143 0.163 0.0
H1292 H 0.08117 0.83781 0.1261 0.0
H1293 H 0.1967 0.81003 0.20963 0.0
H1294 H 0.17158 0.83189 0.22833 0.0
H1295 H 0.16335 0.79603 0.22182 0.0
H1296 H 0.07798 0.86337 0.25629 0.0
H1297 H 0.06715 0.77569 0.23966 0.0
H1298 H 0.11212 0.88104 0.19441 0.0
H1299 H 0.14177 0.87193 0.21664 0.0
H1300 H 0.11241 0.89011 0.2329 0.0
H1301 H 0.09793 0.7712 0.17427 0.0
H1302 H 0.09731 0.75095 0.20764 0.0
H1303 H 0.12946 0.76737 0.19534 0.0
C1304 C 0.82928 0.152 0.65274 0.0
C1305 C 0.84238 0.14304 0.62676 0.0
C1306 C 0.84534 0.1627 0.67615 0.0
C1307 C 0.875 0.16432 0.67328 0.0
C1308 C 0.88791 0.15747 0.64614 0.0
C1309 C 0.87141 0.14695 0.62321 0.0
C1310 C 0.83081 0.17023 0.70461 0.0
C1311 C 0.91945 0.15896 0.64208 0.0
C1312 C 0.92457 0.19733 0.72889 0.0
C1313 C 0.9342 0.17366 0.74398 0.0
C1314 C 0.90398 0.19499 0.7068 0.0
C1315 C 0.89305 0.16839 0.69959 0.0
C1316 C 0.90176 0.14468 0.71566 0.0
C1317 C 0.92211 0.14762 0.73764 0.0
C1318 C 0.89482 0.22076 0.69038 0.0
C1319 C 0.89064 0.11587 0.70867 0.0
H1320 H 0.80678 0.14912 0.65541 0.0
H1321 H 0.88142 0.1406 0.60281 0.0
H1322 H 0.83407 0.15329 0.72086 0.0
H1323 H 0.83983 0.1896 0.71408 0.0
H1324 H 0.8078 0.1731 0.70152 0.0
H1325 H 0.92574 0.15612 0.6187 0.0
H1326 H 0.9277 0.17928 0.64994 0.0
H1327 H 0.92961 0.14239 0.65536 0.0
H1328 H 0.93354 0.21759 0.73382 0.0
H1329 H 0.92902 0.12921 0.74939 0.0
H1330 H 0.87158 0.22123 0.68806 0.0
H1331 H 0.9039 0.22046 0.66787 0.0
H1332 H 0.90182 0.24018 0.70156 0.0
H1333 H 0.8673 0.11584 0.70893 0.0
H1334 H 0.89821 0.09992 0.7245 0.0
H1335 H 0.89744 0.10966 0.68622 0.0
loop_
_geom_bond_atom_site_label_1
_geom_bond_atom_site_label_2
_geom_bond_distance
_geom_bond_site_symmetry_2
_ccdc_geom_bond_type
C0 C1 1.391 . S
C0 C4 1.391 . S
C0 H42 0.948 . S
C1 C0 1.391 . S
C1 C2 1.391 . S
C2 C1 1.391 . S
C2 H58 0.947 . S
C2 C59 1.392 . S
C3 C4 1.391 . S
C3 C7 1.397 . S
C3 C59 1.419 . S
C4 C0 1.391 . S
C4 C3 1.391 . S
C4 C5 1.399 . S
C5 C4 1.399 . S
C5 C8 1.396 . S
C5 C17 1.453 . S
C5 C18 1.684 . S
H6 C30 0.948 . S
C7 C3 1.397 . S
C7 C8 1.394 . S
C7 C26 1.723 . S
C8 C5 1.396 . S
C8 C7 1.394 . S
C8 C38 1.723 . S
H9 C32 0.947 1_554 S
H10 C33 0.948 . S
H11 C39 0.982 . S
H12 C40 0.979 . S
H13 C40 0.980 . S
H14 C40 0.983 . S
H15 C39 0.979 . S
H16 C39 0.977 . S
C17 C5 1.453 . S
C17 H46 0.982 . S
C17 H47 0.979 . S
C17 H48 0.977 . S
C18 C5 1.684 . S
C18 H43 0.979 . S
C18 H44 0.980 . S
C18 H45 0.983 . S
C19 C20 1.391 . S
C19 C24 1.391 . S
C19 H49 0.948 . S
C20 C19 1.391 . S
C20 C21 1.391 . S
C21 C20 1.391 . S
C21 C22 1.392 . S
C21 H50 0.947 . S
C22 C21 1.392 . S
C22 C23 1.419 . S
C22 H51 0.948 . S
C23 C22 1.419 . S
C23 C24 1.391 . S
C23 C27 1.397 . S
C24 C19 1.391 . S
C24 C23 1.391 . S
C24 C25 1.399 1_556 S
C25 C24 1.399 1_554 S
C25 C26 1.396 . S
C25 C28 1.453 . S
C25 C29 1.684 . S
C26 C7 1.723 . S
C26 C25 1.396 . S
C26 C27 1.394 1_554 S
C27 C23 1.397 . S
C27 C26 1.394 1_556 S
C27 C37 1.723 . S
C28 C25 1.453 . S
C28 H52 0.982 . S
C28 H53 0.979 . S
C28 H54 0.977 . S
C29 C25 1.684 . S
C29 H55 0.979 . S
C29 H56 0.980 . S
C29 H57 0.983 . S
C30 H6 0.948 . S
C30 C31 1.391 . S
C30 C35 1.391 . S
C31 C30 1.391 . S
C31 C32 1.391 . S
C32 H9 0.947 1_556 S
C32 C31 1.391 . S
C32 C33 1.392 1_556 S
C33 H10 0.948 . S
C33 C32 1.392 1_554 S
C33 C34 1.419 1_554 S
C34 C33 1.419 1_556 S
C34 C35 1.391 . S
C34 C38 1.397 1_556 S
C35 C30 1.391 . S
C35 C34 1.391 . S
C35 C36 1.399 . S
C36 C35 1.399 . S
C36 C37 1.396 . S
C36 C39 1.453 . S
C36 C40 1.684 . S
C37 C27 1.723 . S
C37 C36 1.396 . S
C37 C38 1.394 1_556 S
C38 C8 1.723 . S
C38 C34 1.397 1_554 S
C38 C37 1.394 1_554 S
C39 H11 0.982 . S
C39 H15 0.979 . S
C39 H16 0.977 . S
C39 C36 1.453 . S
C40 H12 0.979 . S
C40 H13 0.980 . S
C40 H14 0.983 . S
C40 C36 1.684 . S
H41 C59 0.948 . S
H42 C0 0.948 . S
H43 C18 0.979 . S
H44 C18 0.980 . S
H45 C18 0.983 . S
H46 C17 0.982 . S
H47 C17 0.979 . S
H48 C17 0.977 . S
H49 C19 0.948 . S
H50 C21 0.947 . S
H51 C22 0.948 . S
H52 C28 0.982 . S
H53 C28 0.979 . S
H54 C28 0.977 . S
H55 C29 0.979 . S
H56 C29 0.980 . S
H57 C29 0.983 . S
H58 C2 0.947 . S
C59 C2 1.392 . S
C59 C3 1.419 . S
C59 H41 0.948 . S
C60 C61 1.391 . S
C60 C64 1.391 . S
C60 H102 0.948 . S
C61 C60 1.391 . S
C61 C62 1.391 . S
C62 C61 1.391 . S
C62 H118 0.947 . S
C62 C119 1.392 . S
C63 C64 1.391 . S
C63 C67 1.397 . S
C63 C119 1.419 . S
C64 C60 1.391 . S
C64 C63 1.391 . S
C64 C65 1.399 . S
C65 C64 1.399 . S
C65 C68 1.396 . S
C65 C77 1.453 . S
C65 C78 1.684 . S
H66 C90 0.948 . S
C67 C63 1.397 . S
C67 C68 1.394 . S
C67 C86 1.723 . S
C68 C65 1.396 . S
C68 C67 1.394 . S
C68 C98 1.723 . S
H69 C92 0.947 . S
H70 C93 0.948 . S
H71 C99 0.982 . S
H72 C100 0.979 . S
H73 C100 0.980 . S
H74 C100 0.983 . S
H75 C99 0.979 . S
H76 C99 0.977 . S
C77 C65 1.453 . S
C77 H106 0.982 . S
C77 H107 0.979 . S
C77 H108 0.977 . S
C78 C65 1.684 . S
C78 H103 0.979 . S
C78 H104 0.980 . S
C78 H105 0.983 . S
C79 C80 1.391 . S
C79 C84 1.391 . S
C79 H109 0.948 . S
C80 C79 1.391 . S
C80 C81 1.391 . S
C81 C80 1.391 . S
C81 C82 1.392 . S
C81 H110 0.947 . S
C82 C81 1.392 . S
C82 C83 1.419 . S
C82 H111 0.948 . S
C83 C82 1.419 . S
C83 C84 1.391 . S
C83 C87 1.397 . S
C84 C79 1.391 . S
C84 C83 1.391 . S
C84 C85 1.399 . S
C85 C84 1.399 . S
C85 C86 1.396 . S
C85 C88 1.453 . S
C85 C89 1.684 . S
C86 C67 1.723 . S
C86 C85 1.396 . S
C86 C87 1.394 . S
C87 C83 1.397 . S
C87 C86 1.394 . S
C87 C97 1.723 . S
C88 C85 1.453 . S
C88 H112 0.982 . S
C88 H113 0.979 . S
C88 H114 0.977 . S
C89 C85 1.684 . S
C89 H115 0.979 . S
C89 H116 0.980 . S
C89 H117 0.983 . S
C90 H66 0.948 . S
C90 C91 1.391 . S
C90 C95 1.391 . S
C91 C90 1.391 . S
C91 C92 1.391 . S
C92 H69 0.947 . S
C92 C91 1.391 . S
C92 C93 1.392 . S
C93 H70 0.948 . S
C93 C92 1.392 . S
C93 C94 1.419 . S
C94 C93 1.419 . S
C94 C95 1.391 . S
C94 C98 1.397 . S
C95 C90 1.391 . S
C95 C94 1.391 . S
C95 C96 1.399 . S
C96 C95 1.399 . S
C96 C97 1.396 . S
C96 C99 1.453 . S
C96 C100 1.684 . S
C97 C87 1.723 . S
C97 C96 1.396 . S
C97 C98 1.394 . S
C98 C68 1.723 . S
C98 C94 1.397 . S
C98 C97 1.394 . S
C99 H71 0.982 . S
C99 H75 0.979 . S
C99 H76 0.977 . S
C99 C96 1.453 . S
C100 H72 0.979 . S
C100 H73 0.980 . S
C100 H74 0.983 . S
C100 C96 1.684 . S
H101 C119 0.948 . S
H102 C60 0.948 . S
H103 C78 0.979 . S
H104 C78 0.980 . S
H105 C78 0.983 . S
H106 C77 0.982 . S
H107 C77 0.979 . S
H108 C77 0.977 . S
H109 C79 0.948 . S
H110 C81 0.947 . S
H111 C82 0.948 . S
H112 C88 0.982 . S
H113 C88 0.979 . S
H114 C88 0.977 . S
H115 C89 0.979 . S
H116 C89 0.980 . S
H117 C89 0.983 . S
H118 C62 0.947 . S
C119 C62 1.392 . S
C119 C63 1.419 . S
C119 H101 0.948 . S
C120 C121 1.391 . S
C120 C124 1.391 . S
C120 H162 0.948 . S
C121 C120 1.391 . S
C121 C122 1.391 . S
C122 C121 1.391 . S
C122 H178 0.947 . S
C122 C179 1.392 . S
C123 C124 1.391 . S
C123 C127 1.397 . S
C123 C179 1.419 . S
C124 C120 1.391 . S
C124 C123 1.391 . S
C124 C125 1.399 . S
C125 C124 1.399 . S
C125 C128 1.396 . S
C125 C137 1.453 . S
C125 C138 1.684 . S
H126 C150 0.948 . S
C127 C123 1.397 . S
C127 C128 1.394 . S
C127 C146 1.723 1_556 S
C128 C125 1.396 . S
C128 C127 1.394 . S
C128 C158 1.723 . S
H129 C152 0.947 . S
H130 C153 0.948 . S
H131 C159 0.982 . S
H132 C160 0.979 . S
H133 C160 0.980 . S
H134 C160 0.983 . S
H135 C159 0.979 . S
H136 C159 0.977 . S
C137 C125 1.453 . S
C137 H166 0.982 . S
C137 H167 0.979 . S
C137 H168 0.977 . S
C138 C125 1.684 . S
C138 H163 0.979 . S
C138 H164 0.980 . S
C138 H165 0.983 . S
C139 C140 1.391 . S
C139 C144 1.391 . S
C139 H169 0.948 . S
C140 C139 1.391 . S
C140 C141 1.391 . S
C141 C140 1.391 . S
C141 C142 1.392 . S
C141 H170 0.947 . S
C142 C141 1.392 . S
C142 C143 1.419 . S
C142 H171 0.948 . S
C143 C142 1.419 . S
C143 C144 1.391 . S
C143 C147 1.397 . S
C144 C139 1.391 . S
C144 C143 1.391 . S
C144 C145 1.399 . S
C145 C144 1.399 . S
C145 C146 1.396 . S
C145 C148 1.453 . S
C145 C149 1.684 . S
C146 C127 1.723 1_554 S
C146 C145 1.396 . S
C146 C147 1.394 . S
C147 C143 1.397 . S
C147 C146 1.394 . S
C147 C157 1.723 . S
C148 C145 1.453 . S
C148 H172 0.982 . S
C148 H173 0.979 . S
C148 H174 0.977 . S
C149 C145 1.684 . S
C149 H175 0.979 . S
C149 H176 0.980 . S
C149 H177 0.983 . S
C150 H126 0.948 . S
C150 C151 1.391 . S
C150 C155 1.391 . S
C151 C150 1.391 . S
C151 C152 1.391 . S
C152 H129 0.947 . S
C152 C151 1.391 . S
C152 C153 1.392 . S
C153 H130 0.948 . S
C153 C152 1.392 . S
C153 C154 1.419 . S
C154 C153 1.419 . S
C154 C155 1.391 . S
C154 C158 1.397 . S
C155 C150 1.391 . S
C155 C154 1.391 . S
C155 C156 1.399 1_556 S
C156 C155 1.399 1_554 S
C156 C157 1.396 . S
C156 C159 1.453 . S
C156 C160 1.684 . S
C157 C147 1.723 . S
C157 C156 1.396 . S
C157 C158 1.394 1_554 S
C158 C128 1.723 . S
C158 C154 1.397 . S
C158 C157 1.394 1_556 S
C159 H131 0.982 . S
C159 H135 0.979 . S
C159 H136 0.977 . S
C159 C156 1.453 . S
C160 H132 0.979 . S
C160 H133 0.980 . S
C160 H134 0.983 . S
C160 C156 1.684 . S
H161 C179 0.948 1_554 S
H162 C120 0.948 . S
H163 C138 0.979 . S
H164 C138 0.980 . S
H165 C138 0.983 . S
H166 C137 0.982 . S
H167 C137 0.979 . S
H168 C137 0.977 . S
H169 C139 0.948 . S
H170 C141 0.947 . S
H171 C142 0.948 . S
H172 C148 0.982 . S
H173 C148 0.979 . S
H174 C148 0.977 . S
H175 C149 0.979 . S
H176 C149 0.980 . S
H177 C149 0.983 . S
H178 C122 0.947 . S
C179 C122 1.392 . S
C179 C123 1.419 . S
C179 H161 0.948 1_556 S
C180 C181 1.391 . S
C180 C184 1.391 . S
C180 H222 0.948 . S
C181 C180 1.391 . S
C181 C182 1.391 . S
C182 C181 1.391 . S
C182 H238 0.947 . S
C182 C239 1.392 . S
C183 C184 1.391 . S
C183 C187 1.397 . S
C183 C239 1.419 . S
C184 C180 1.391 . S
C184 C183 1.391 . S
C184 C185 1.399 . S
C185 C184 1.399 . S
C185 C188 1.396 . S
C185 C197 1.453 . S
C185 C198 1.684 . S
H186 C210 0.948 . S
C187 C183 1.397 . S
C187 C188 1.394 . S
C187 C206 1.723 . S
C188 C185 1.396 . S
C188 C187 1.394 . S
C188 C218 1.723 . S
H189 C212 0.947 . S
H190 C213 0.948 . S
H191 C219 0.982 . S
H192 C220 0.979 . S
H193 C220 0.980 . S
H194 C220 0.983 . S
H195 C219 0.979 . S
H196 C219 0.977 . S
C197 C185 1.453 . S
C197 H226 0.982 . S
C197 H227 0.979 . S
C197 H228 0.977 . S
C198 C185 1.684 . S
C198 H223 0.979 . S
C198 H224 0.980 . S
C198 H225 0.983 . S
C199 C200 1.391 . S
C199 C204 1.391 . S
C199 H229 0.948 . S
C200 C199 1.391 . S
C200 C201 1.391 . S
C201 C200 1.391 . S
C201 C202 1.392 . S
C201 H230 0.947 . S
C202 C201 1.392 . S
C202 C203 1.419 . S
C202 H231 0.948 . S
C203 C202 1.419 . S
C203 C204 1.391 . S
C203 C207 1.397 . S
C204 C199 1.391 . S
C204 C203 1.391 . S
C204 C205 1.399 . S
C205 C204 1.399 . S
C205 C206 1.396 . S
C205 C208 1.453 . S
C205 C209 1.684 . S
C206 C187 1.723 . S
C206 C205 1.396 . S
C206 C207 1.394 . S
C207 C203 1.397 . S
C207 C206 1.394 . S
C207 C217 1.723 . S
C208 C205 1.453 . S
C208 H232 0.982 . S
C208 H233 0.979 . S
C208 H234 0.977 . S
C209 C205 1.684 . S
C209 H235 0.979 . S
C209 H236 0.980 . S
C209 H237 0.983 . S
C210 H186 0.948 . S
C210 C211 1.391 . S
C210 C215 1.391 . S
C211 C210 1.391 . S
C211 C212 1.391 . S
C212 H189 0.947 . S
C212 C211 1.391 . S
C212 C213 1.392 . S
C213 H190 0.948 . S
C213 C212 1.392 . S
C213 C214 1.419 . S
C214 C213 1.419 . S
C214 C215 1.391 . S
C214 C218 1.397 . S
C215 C210 1.391 . S
C215 C214 1.391 . S
C215 C216 1.399 . S
C216 C215 1.399 . S
C216 C217 1.396 . S
C216 C219 1.453 . S
C216 C220 1.684 . S
C217 C207 1.723 . S
C217 C216 1.396 . S
C217 C218 1.394 . S
C218 C188 1.723 . S
C218 C214 1.397 . S
C218 C217 1.394 . S
C219 H191 0.982 . S
C219 H195 0.979 . S
C219 H196 0.977 . S
C219 C216 1.453 . S
C220 H192 0.979 . S
C220 H193 0.980 . S
C220 H194 0.983 . S
C220 C216 1.684 . S
H221 C239 0.948 . S
H222 C180 0.948 . S
H223 C198 0.979 . S
H224 C198 0.980 . S
H225 C198 0.983 . S
H226 C197 0.982 . S
H227 C197 0.979 . S
H228 C197 0.977 . S
H229 C199 0.948 . S
H230 C201 0.947 . S
H231 C202 0.948 . S
H232 C208 0.982 . S
H233 C208 0.979 . S
H234 C208 0.977 . S
H235 C209 0.979 . S
H236 C209 0.980 . S
H237 C209 0.983 . S
H238 C182 0.947 . S
C239 C182 1.392 . S
C239 C183 1.419 . S
C239 H221 0.948 . S
C240 C241 1.391 . S
C240 C244 1.391 . S
C240 H282 0.948 . S
C241 C240 1.391 . S
C241 C242 1.391 . S
C242 C241 1.391 . S
C242 H298 0.947 . S
C242 C299 1.392 . S
C243 C244 1.391 . S
C243 C247 1.397 . S
C243 C299 1.419 . S
C244 C240 1.391 . S
C244 C243 1.391 . S
C244 C245 1.399 . S
C245 C244 1.399 . S
C245 C248 1.396 . S
C245 C257 1.453 . S
C245 C258 1.684 . S
H246 C270 0.948 . S
C247 C243 1.397 . S
C247 C248 1.394 . S
C247 C266 1.723 . S
C248 C245 1.396 . S
C248 C247 1.394 . S
C248 C278 1.723 . S
H249 C272 0.947 1_554 S
H250 C273 0.948 . S
H251 C279 0.982 . S
H252 C280 0.979 . S
H253 C280 0.980 . S
H254 C280 0.983 . S
H255 C279 0.979 . S
H256 C279 0.977 . S
C257 C245 1.453 . S
C257 H286 0.982 . S
C257 H287 0.979 . S
C257 H288 0.977 . S
C258 C245 1.684 . S
C258 H283 0.979 . S
C258 H284 0.980 . S
C258 H285 0.983 . S
C259 C260 1.391 . S
C259 C264 1.391 . S
C259 H289 0.948 . S
C260 C259 1.391 . S
C260 C261 1.391 . S
C261 C260 1.391 . S
C261 C262 1.392 . S
C261 H290 0.947 . S
C262 C261 1.392 . S
C262 C263 1.419 . S
C262 H291 0.948 . S
C263 C262 1.419 . S
C263 C264 1.391 . S
C263 C267 1.397 . S
C264 C259 1.391 . S
C264 C263 1.391 . S
C264 C265 1.399 1_556 S
C265 C264 1.399 1_554 S
C265 C266 1.396 . S
C265 C268 1.453 . S
C265 C269 1.684 . S
C266 C247 1.723 . S
C266 C265 1.396 . S
C266 C267 1.394 1_554 S
C267 C263 1.397 . S
C267 C266 1.394 1_556 S
C267 C277 1.723 . S
C268 C265 1.453 . S
C268 H292 0.982 . S
C268 H293 0.979 . S
C268 H294 0.977 . S
C269 C265 1.684 . S
C269 H295 0.979 . S
C269 H296 0.980 . S
C269 H297 0.983 . S
C270 H246 0.948 . S
C270 C271 1.391 . S
C270 C275 1.391 . S
C271 C270 1.391 . S
C271 C272 1.391 . S
C272 H249 0.947 1_556 S
C272 C271 1.391 . S
C272 C273 1.392 1_556 S
C273 H250 0.948 . S
C273 C272 1.392 1_554 S
C273 C274 1.419 1_554 S
C274 C273 1.419 1_556 S
C274 C275 1.391 . S
C274 C278 1.397 1_556 S
C275 C270 1.391 . S
C275 C274 1.391 . S
C275 C276 1.399 . S
C276 C275 1.399 . S
C276 C277 1.396 . S
C276 C279 1.453 . S
C276 C280 1.684 . S
C277 C267 1.723 . S
C277 C276 1.396 . S
C277 C278 1.394 1_556 S
C278 C248 1.723 . S
C278 C274 1.397 1_554 S
C278 C277 1.394 1_554 S
C279 H251 0.982 . S
C279 H255 0.979 . S
C279 H256 0.977 . S
C279 C276 1.453 . S
C280 H252 0.979 . S
C280 H253 0.980 . S
C280 H254 0.983 . S
C280 C276 1.684 . S
H281 C299 0.948 . S
H282 C240 0.948 . S
H283 C258 0.979 . S
H284 C258 0.980 . S
H285 C258 0.983 . S
H286 C257 0.982 . S
H287 C257 0.979 . S
H288 C257 0.977 . S
H289 C259 0.948 . S
H290 C261 0.947 . S
H291 C262 0.948 . S
H292 C268 0.982 . S
H293 C268 0.979 . S
H294 C268 0.977 . S
H295 C269 0.979 . S
H296 C269 0.980 . S
H297 C269 0.983 . S
H298 C242 0.947 . S
C299 C242 1.392 . S
C299 C243 1.419 . S
C299 H281 0.948 . S
C300 C301 1.391 . S
C300 C304 1.391 . S
C300 H342 0.948 . S
C301 C300 1.391 . S
C301 C302 1.391 . S
C302 C301 1.391 . S
C302 H358 0.947 . S
C302 C359 1.392 . S
C303 C304 1.391 . S
C303 C307 1.397 . S
C303 C359 1.419 . S
C304 C300 1.391 . S
C304 C303 1.391 . S
C304 C305 1.399 . S
C305 C304 1.399 . S
C305 C308 1.396 . S
C305 C317 1.453 . S
C305 C318 1.684 . S
H306 C330 0.948 . S
C307 C303 1.397 . S
C307 C308 1.394 . S
C307 C326 1.723 . S
C308 C305 1.396 . S
C308 C307 1.394 . S
C308 C338 1.723 . S
H309 C332 0.947 . S
H310 C333 0.948 . S
H311 C339 0.982 . S
H312 C340 0.979 . S
H313 C340 0.980 . S
H314 C340 0.983 . S
H315 C339 0.979 . S
H316 C339 0.977 . S
C317 C305 1.453 . S
C317 H346 0.982 . S
C317 H347 0.979 . S
C317 H348 0.977 . S
C318 C305 1.684 . S
C318 H343 0.979 . S
C318 H344 0.980 . S
C318 H345 0.983 . S
C319 C320 1.391 . S
C319 C324 1.391 . S
C319 H349 0.948 . S
C320 C319 1.391 . S
C320 C321 1.391 . S
C321 C320 1.391 . S
C321 C322 1.392 . S
C321 H350 0.947 . S
C322 C321 1.392 . S
C322 C323 1.419 . S
C322 H351 0.948 . S
C323 C322 1.419 . S
C323 C324 1.391 . S
C323 C327 1.397 . S
C324 C319 1.391 . S
C324 C323 1.391 . S
C324 C325 1.399 . S
C325 C324 1.399 . S
C325 C326 1.396 . S
C325 C328 1.453 . S
C325 C329 1.684 . S
C326 C307 1.723 . S
C326 C325 1.396 . S
C326 C327 1.394 . S
C327 C323 1.397 . S
C327 C326 1.394 . S
C327 C337 1.723 . S
C328 C325 1.453 . S
C328 H352 0.982 . S
C328 H353 0.979 . S
C328 H354 0.977 . S
C329 C325 1.684 . S
C329 H355 0.979 . S
C329 H356 0.980 . S
C329 H357 0.983 . S
C330 H306 0.948 . S
C330 C331 1.391 . S
C330 C335 1.391 . S
C331 C330 1.391 . S
C331 C332 1.391 . S
C332 H309 0.947 . S
C332 C331 1.391 . S
C332 C333 1.392 . S
C333 H310 0.948 . S
C333 C332 1.392 . S
C333 C334 1.419 . S
C334 C333 1.419 . S
C334 C335 1.391 . S
C334 C338 1.397 . S
C335 C330 1.391 . S
C335 C334 1.391 . S
C335 C336 1.399 . S
C336 C335 1.399 . S
C336 C337 1.396 . S
C336 C339 1.453 . S
C336 C340 1.684 . S
C337 C327 1.723 . S
C337 C336 1.396 . S
C337 C338 1.394 . S
C338 C308 1.723 . S
C338 C334 1.397 . S
C338 C337 1.394 . S
C339 H311 0.982 . S
C339 H315 0.979 . S
C339 H316 0.977 . S
C339 C336 1.453 . S
C340 H312 0.979 . S
C340 H313 0.980 . S
C340 H314 0.983 . S
C340 C336 1.684 . S
H341 C359 0.948 . S
H342 C300 0.948 . S
H343 C318 0.979 . S
H344 C318 0.980 . S
H345 C318 0.983 . S
H346 C317 0.982 . S
H347 C317 0.979 . S
H348 C317 0.977 . S
H349 C319 0.948 . S
H350 C321 0.947 . S
H351 C322 0.948 . S
H352 C328 0.982 . S
H353 C328 0.979 . S
H354 C328 0.977 . S
H355 C329 0.979 . S
H356 C329 0.980 . S
H357 C329 0.983 . S
H358 C302 0.947 . S
C359 C302 1.392 . S
C359 C303 1.419 . S
C359 H341 0.948 . S
C360 C361 1.391 . S
C360 C364 1.391 . S
C360 H402 0.948 . S
C361 C360 1.391 . S
C361 C362 1.391 . S
C362 C361 1.391 . S
C362 H418 0.947 1_565 S
C362 C419 1.392 . S
C363 C364 1.391 . S
C363 C367 1.397 . S
C363 C419 1.419 . S
C364 C360 1.391 . S
C364 C363 1.391 . S
C364 C365 1.399 . S
C365 C364 1.399 . S
C365 C368 1.396 . S
C365 C377 1.453 . S
C365 C378 1.684 . S
H366 C390 0.948 . S
C367 C363 1.397 . S
C367 C368 1.394 . S
C367 C386 1.723 1_556 S
C368 C365 1.396 . S
C368 C367 1.394 . S
C368 C398 1.723 . S
H369 C392 0.947 . S
H370 C393 0.948 . S
H371 C399 0.982 . S
H372 C400 0.979 . S
H373 C400 0.980 . S
H374 C400 0.983 . S
H375 C399 0.979 . S
H376 C399 0.977 . S
C377 C365 1.453 . S
C377 H406 0.982 . S
C377 H407 0.979 . S
C377 H408 0.977 . S
C378 C365 1.684 . S
C378 H403 0.979 . S
C378 H404 0.980 . S
C378 H405 0.983 . S
C379 C380 1.391 . S
C379 C384 1.391 . S
C379 H409 0.948 . S
C380 C379 1.391 . S
C380 C381 1.391 . S
C381 C380 1.391 . S
C381 C382 1.392 . S
C381 H410 0.947 . S
C382 C381 1.392 . S
C382 C383 1.419 . S
C382 H411 0.948 . S
C383 C382 1.419 . S
C383 C384 1.391 . S
C383 C387 1.397 . S
C384 C379 1.391 . S
C384 C383 1.391 . S
C384 C385 1.399 . S
C385 C384 1.399 . S
C385 C386 1.396 . S
C385 C388 1.453 . S
C385 C389 1.684 . S
C386 C367 1.723 1_554 S
C386 C385 1.396 . S
C386 C387 1.394 . S
C387 C383 1.397 . S
C387 C386 1.394 . S
C387 C397 1.723 . S
C388 C385 1.453 . S
C388 H412 0.982 . S
C388 H413 0.979 . S
C388 H414 0.977 . S
C389 C385 1.684 . S
C389 H415 0.979 . S
C389 H416 0.980 . S
C389 H417 0.983 . S
C390 H366 0.948 . S
C390 C391 1.391 . S
C390 C395 1.391 . S
C391 C390 1.391 . S
C391 C392 1.391 . S
C392 H369 0.947 . S
C392 C391 1.391 . S
C392 C393 1.392 . S
C393 H370 0.948 . S
C393 C392 1.392 . S
C393 C394 1.419 . S
C394 C393 1.419 . S
C394 C395 1.391 . S
C394 C398 1.397 . S
C395 C390 1.391 . S
C395 C394 1.391 . S
C395 C396 1.399 1_556 S
C396 C395 1.399 1_554 S
C396 C397 1.396 . S
C396 C399 1.453 . S
C396 C400 1.684 . S
C397 C387 1.723 . S
C397 C396 1.396 . S
C397 C398 1.394 1_554 S
C398 C368 1.723 . S
C398 C394 1.397 . S
C398 C397 1.394 1_556 S
C399 H371 0.982 . S
C399 H375 0.979 . S
C399 H376 0.977 . S
C399 C396 1.453 . S
C400 H372 0.979 . S
C400 H373 0.980 . S
C400 H374 0.983 . S
C400 C396 1.684 . S
H401 C419 0.948 1_554 S
H402 C360 0.948 . S
H403 C378 0.979 . S
H404 C378 0.980 . S
H405 C378 0.983 . S
H406 C377 0.982 . S
H407 C377 0.979 . S
H408 C377 0.977 . S
H409 C379 0.948 . S
H410 C381 0.947 . S
H411 C382 0.948 . S
H412 C388 0.982 . S
H413 C388 0.979 . S
H414 C388 0.977 . S
H415 C389 0.979 . S
H416 C389 0.980 . S
H417 C389 0.983 . S
H418 C362 0.947 1_545 S
C419 C362 1.392 . S
C419 C363 1.419 . S
C419 H401 0.948 1_556 S
C420 C421 1.391 . S
C420 C424 1.391 . S
C420 H462 0.948 . S
C421 C420 1.391 . S
C421 C422 1.391 . S
C422 C421 1.391 . S
C422 H478 0.947 . S
C422 C479 1.392 . S
C423 C424 1.391 . S
C423 C427 1.397 . S
C423 C479 1.419 . S
C424 C420 1.391 . S
C424 C423 1.391 . S
C424 C425 1.399 . S
C425 C424 1.399 . S
C425 C428 1.396 . S
C425 C437 1.453 . S
C425 C438 1.684 . S
H426 C450 0.966 . S
C427 C423 1.397 . S
C427 C428 1.394 . S
C427 C446 1.723 . S
C428 C425 1.396 . S
C428 C427 1.394 . S
C428 C458 1.723 . S
H429 C452 0.947 . S
H430 C453 0.948 . S
H431 C459 0.982 . S
H432 C460 0.979 . S
H433 C460 0.980 . S
H434 C460 0.983 . S
H435 C459 0.979 . S
H436 C459 0.977 . S
C437 C425 1.453 . S
C437 H466 0.982 . S
C437 H467 0.979 . S
C437 H468 0.977 . S
C438 C425 1.684 . S
C438 H463 0.979 . S
C438 H464 0.980 . S
C438 H465 0.983 . S
C439 C440 1.391 . S
C439 C444 1.391 . S
C439 H469 0.948 . S
C440 C439 1.391 . S
C440 C441 1.391 . S
C441 C440 1.391 . S
C441 C442 1.392 . S
C441 H470 0.947 . S
C442 C441 1.392 . S
C442 C443 1.419 . S
C442 H471 0.948 . S
C443 C442 1.419 . S
C443 C444 1.391 . S
C443 C447 1.397 . S
C444 C439 1.391 . S
C444 C443 1.391 . S
C444 C445 1.399 . S
C445 C444 1.399 . S
C445 C446 1.396 . S
C445 C448 1.453 . S
C445 C449 1.684 . S
C446 C427 1.723 . S
C446 C445 1.396 . S
C446 C447 1.394 . S
C447 C443 1.397 . S
C447 C446 1.394 . S
C447 C457 1.723 . S
C448 C445 1.453 . S
C448 H472 0.982 . S
C448 H473 0.979 . S
C448 H474 0.977 . S
C449 C445 1.684 . S
C449 H475 0.979 . S
C449 H476 0.980 . S
C449 H477 0.983 . S
C450 H426 0.966 . S
C450 C451 1.391 . S
C450 C455 1.391 . S
C451 C450 1.391 . S
C451 C452 1.391 . S
C452 H429 0.947 . S
C452 C451 1.391 . S
C452 C453 1.392 . S
C453 H430 0.948 . S
C453 C452 1.392 . S
C453 C454 1.419 . S
C454 C453 1.419 . S
C454 C455 1.391 . S
C454 C458 1.397 . S
C455 C450 1.391 . S
C455 C454 1.391 . S
C455 C456 1.399 . S
C456 C455 1.399 . S
C456 C457 1.396 . S
C456 C459 1.453 . S
C456 C460 1.684 . S
C457 C447 1.723 . S
C457 C456 1.396 . S
C457 C458 1.394 . S
C458 C428 1.723 . S
C458 C454 1.397 . S
C458 C457 1.394 . S
C459 H431 0.982 . S
C459 H435 0.979 . S
C459 H436 0.977 . S
C459 C456 1.453 . S
C460 H432 0.979 . S
C460 H433 0.980 . S
C460 H434 0.983 . S
C460 C456 1.684 . S
H461 C479 0.948 . S
H462 C420 0.948 . S
H463 C438 0.979 . S
H464 C438 0.980 . S
H465 C438 0.983 . S
H466 C437 0.982 . S
H467 C437 0.979 . S
H468 C437 0.977 . S
H469 C439 0.948 . S
H470 C441 0.947 . S
H471 C442 0.948 . S
H472 C448 0.982 . S
H473 C448 0.979 . S
H474 C448 0.977 . S
H475 C449 0.979 . S
H476 C449 0.980 . S
H477 C449 0.983 . S
H478 C422 0.947 . S
C479 C422 1.392 . S
C479 C423 1.419 . S
C479 H461 0.948 . S
Sc480 O483 2.025 . S
Sc480 O490 2.105 1_455 S
Sc480 O493 2.105 . S
Sc480 O496 2.105 . S
Sc480 O499 2.105 1_455 S
Sc481 O483 2.025 . S
Sc481 O491 2.105 1_455 S
Sc481 O495 2.105 . S
Sc481 O497 2.105 . S
Sc481 O501 2.105 1_455 S
Sc482 O483 2.025 . S
Sc482 O492 2.105 1_455 S
Sc482 O494 2.105 . S
Sc482 O498 2.105 . S
Sc482 O500 2.105 1_455 S
O483 Sc480 2.025 . S
O483 Sc481 2.025 . S
O483 Sc482 2.025 . S
C484 O490 1.268 . S
C484 O500 1.268 . S
C485 O491 1.268 . S
C485 O499 1.268 . S
C486 O492 1.268 . S
C486 O501 1.268 . S
C487 O493 1.268 . S
C487 O497 1.268 . S
C488 O494 1.268 . S
C488 O496 1.268 . S
C489 O495 1.268 . S
C489 O498 1.268 . S
O490 Sc480 2.105 1_655 S
O490 C484 1.268 . S
O491 Sc481 2.105 1_655 S
O491 C485 1.268 . S
O492 Sc482 2.105 1_655 S
O492 C486 1.268 . S
O493 Sc480 2.105 . S
O493 C487 1.268 . S
O494 Sc482 2.105 . S
O494 C488 1.268 . S
O495 Sc481 2.105 . S
O495 C489 1.268 . S
O496 Sc480 2.105 . S
O496 C488 1.268 . S
O497 Sc481 2.105 . S
O497 C487 1.268 . S
O498 Sc482 2.105 . S
O498 C489 1.268 . S
O499 Sc480 2.105 1_655 S
O499 C485 1.268 . S
O500 Sc482 2.105 1_655 S
O500 C484 1.268 . S
O501 Sc481 2.105 1_655 S
O501 C486 1.268 . S
Sc502 O505 2.025 . S
Sc502 O512 2.105 . S
Sc502 O515 2.105 1_455 S
Sc502 O518 2.105 1_455 S
Sc502 O521 2.105 . S
Sc503 O505 2.025 . S
Sc503 O513 2.105 . S
Sc503 O517 2.105 1_455 S
Sc503 O519 2.105 1_455 S
Sc503 O523 2.105 . S
Sc504 O505 2.025 . S
Sc504 O514 2.105 . S
Sc504 O516 2.105 1_455 S
Sc504 O520 2.105 1_455 S
Sc504 O522 2.105 . S
O505 Sc502 2.025 . S
O505 Sc503 2.025 . S
O505 Sc504 2.025 . S
C506 O512 1.268 . S
C506 O522 1.268 . S
C507 O513 1.268 . S
C507 O521 1.268 . S
C508 O514 1.268 . S
C508 O523 1.268 . S
C509 O515 1.268 . S
C509 O519 1.268 . S
C510 O516 1.268 . S
C510 O518 1.268 . S
C511 O517 1.268 . S
C511 O520 1.268 . S
O512 Sc502 2.105 . S
O512 C506 1.268 . S
O513 Sc503 2.105 . S
O513 C507 1.268 . S
O514 Sc504 2.105 . S
O514 C508 1.268 . S
O515 Sc502 2.105 1_655 S
O515 C509 1.268 . S
O516 Sc504 2.105 1_655 S
O516 C510 1.268 . S
O517 Sc503 2.105 1_655 S
O517 C511 1.268 . S
O518 Sc502 2.105 1_655 S
O518 C510 1.268 . S
O519 Sc503 2.105 1_655 S
O519 C509 1.268 . S
O520 Sc504 2.105 1_655 S
O520 C511 1.268 . S
O521 Sc502 2.105 . S
O521 C507 1.268 . S
O522 Sc504 2.105 . S
O522 C506 1.268 . S
O523 Sc503 2.105 . S
O523 C508 1.268 . S
Sc524 O527 2.025 . S
Sc524 O534 2.105 . S
Sc524 O537 2.105 . S
Sc524 O540 2.105 . S
Sc524 O543 2.105 . S
Sc525 O527 2.025 . S
Sc525 O535 2.105 . S
Sc525 O539 2.105 . S
Sc525 O541 2.105 . S
Sc525 O545 2.105 . S
Sc526 O527 2.025 . S
Sc526 O536 2.105 . S
Sc526 O538 2.105 . S
Sc526 O542 2.105 . S
Sc526 O544 2.105 . S
O527 Sc524 2.025 . S
O527 Sc525 2.025 . S
O527 Sc526 2.025 . S
C528 O534 1.268 . S
C528 O544 1.268 . S
C529 O535 1.268 . S
C529 O543 1.268 . S
C530 O536 1.268 . S
C530 O545 1.268 . S
C531 O537 1.268 . S
C531 O541 1.268 . S
C532 O538 1.268 . S
C532 O540 1.268 . S
C533 O539 1.268 . S
C533 O542 1.268 . S
O534 Sc524 2.105 . S
O534 C528 1.268 . S
O535 Sc525 2.105 . S
O535 C529 1.268 . S
O536 Sc526 2.105 . S
O536 C530 1.268 . S
O537 Sc524 2.105 . S
O537 C531 1.268 . S
O538 Sc526 2.105 . S
O538 C532 1.268 . S
O539 Sc525 2.105 . S
O539 C533 1.268 . S
O540 Sc524 2.105 . S
O540 C532 1.268 . S
O541 Sc525 2.105 . S
O541 C531 1.268 . S
O542 Sc526 2.105 . S
O542 C533 1.268 . S
O543 Sc524 2.105 . S
O543 C529 1.268 . S
O544 Sc526 2.105 . S
O544 C528 1.268 . S
O545 Sc525 2.105 . S
O545 C530 1.268 . S
Sc546 O549 2.025 . S
Sc546 O556 2.105 . S
Sc546 O559 2.105 . S
Sc546 O562 2.105 . S
Sc546 O565 2.105 . S
Sc547 O549 2.025 . S
Sc547 O557 2.105 . S
Sc547 O561 2.105 . S
Sc547 O563 2.105 . S
Sc547 O567 2.105 . S
Sc548 O549 2.025 . S
Sc548 O558 2.105 . S
Sc548 O560 2.105 . S
Sc548 O564 2.105 . S
Sc548 O566 2.105 . S
O549 Sc546 2.025 . S
O549 Sc547 2.025 . S
O549 Sc548 2.025 . S
C550 O556 1.268 . S
C550 O566 1.268 . S
C551 O557 1.268 . S
C551 O565 1.268 . S
C552 O558 1.268 . S
C552 O567 1.268 . S
C553 O559 1.268 . S
C553 O563 1.268 . S
C554 O560 1.268 . S
C554 O562 1.268 . S
C555 O561 1.268 . S
C555 O564 1.268 . S
O556 Sc546 2.105 . S
O556 C550 1.268 . S
O557 Sc547 2.105 . S
O557 C551 1.268 . S
O558 Sc548 2.105 . S
O558 C552 1.268 . S
O559 Sc546 2.105 . S
O559 C553 1.268 . S
O560 Sc548 2.105 . S
O560 C554 1.268 . S
O561 Sc547 2.105 . S
O561 C555 1.268 . S
O562 Sc546 2.105 . S
O562 C554 1.268 . S
O563 Sc547 2.105 . S
O563 C553 1.268 . S
O564 Sc548 2.105 . S
O564 C555 1.268 . S
O565 Sc546 2.105 . S
O565 C551 1.268 . S
O566 Sc548 2.105 . S
O566 C550 1.268 . S
O567 Sc547 2.105 . S
O567 C552 1.268 . S
C568 C569 1.391 . S
C568 C570 1.394 . S
C568 H584 0.931 . S
C569 C568 1.391 . S
C569 C573 1.376 . S
C570 C568 1.394 . S
C570 C571 1.369 . S
C570 C574 1.531 . S
C571 C570 1.369 . S
C571 C572 1.410 . S
C571 C579 1.503 . S
C572 C571 1.410 . S
C572 C573 1.392 . S
C572 C575 1.511 . S
C573 C569 1.376 . S
C573 C572 1.392 . S
C573 H585 0.929 . S
C574 C570 1.531 . S
C574 H586 0.960 . S
C574 H587 0.962 . S
C574 H588 0.960 . S
C575 C572 1.511 . S
C575 H589 0.961 . S
C575 H590 0.961 . S
C575 H591 0.961 . S
C576 C577 1.370 . S
C576 C578 1.363 . S
C576 H592 0.931 . S
C577 C576 1.370 . S
C577 C581 1.408 . S
C578 C576 1.363 . S
C578 C579 1.370 . S
C578 C582 1.524 . S
C579 C571 1.503 . S
C579 C578 1.370 . S
C579 C580 1.403 . S
C580 C579 1.403 . S
C580 C581 1.404 . S
C580 C583 1.539 . S
C581 C577 1.408 . S
C581 C580 1.404 . S
C581 H593 0.930 . S
C582 C578 1.524 . S
C582 H594 0.956 . S
C582 H595 0.961 . S
C582 H596 0.961 . S
C583 C580 1.539 . S
C583 H597 0.958 . S
C583 H598 0.961 . S
C583 H599 0.960 . S
H584 C568 0.931 . S
H585 C573 0.929 . S
H586 C574 0.960 . S
H587 C574 0.962 . S
H588 C574 0.960 . S
H589 C575 0.961 . S
H590 C575 0.961 . S
H591 C575 0.961 . S
H592 C576 0.931 . S
H593 C581 0.930 . S
H594 C582 0.956 . S
H595 C582 0.961 . S
H596 C582 0.961 . S
H597 C583 0.958 . S
H598 C583 0.961 . S
H599 C583 0.960 . S
C600 C601 1.391 . S
C600 C602 1.394 . S
C600 H616 0.931 . S
C601 C600 1.391 . S
C601 C605 1.376 . S
C602 C600 1.394 . S
C602 C603 1.369 . S
C602 C606 1.531 . S
C603 C602 1.369 . S
C603 C604 1.410 . S
C603 C611 1.503 . S
C604 C603 1.410 . S
C604 C605 1.392 . S
C604 C607 1.511 . S
C605 C601 1.376 . S
C605 C604 1.392 . S
C605 H617 0.929 . S
C606 C602 1.531 . S
C606 H618 0.960 . S
C606 H619 0.962 . S
C606 H620 0.960 . S
C607 C604 1.511 . S
C607 H621 0.961 . S
C607 H622 0.961 . S
C607 H623 0.961 . S
C608 C609 1.370 . S
C608 C610 1.363 . S
C608 H624 0.931 . S
C609 C608 1.370 . S
C609 C613 1.408 . S
C610 C608 1.363 . S
C610 C611 1.370 . S
C610 C614 1.524 . S
C611 C603 1.503 . S
C611 C610 1.370 . S
C611 C612 1.403 . S
C612 C611 1.403 . S
C612 C613 1.404 . S
C612 C615 1.539 . S
C613 C609 1.408 . S
C613 C612 1.404 . S
C613 H625 0.930 . S
C614 C610 1.524 . S
C614 H626 0.956 . S
C614 H627 0.961 . S
C614 H628 0.961 . S
C615 C612 1.539 . S
C615 H629 0.958 . S
C615 H630 0.961 . S
C615 H631 0.960 . S
H616 C600 0.931 . S
H617 C605 0.929 . S
H618 C606 0.960 . S
H619 C606 0.962 . S
H620 C606 0.960 . S
H621 C607 0.961 . S
H622 C607 0.961 . S
H623 C607 0.961 . S
H624 C608 0.931 . S
H625 C613 0.930 . S
H626 C614 0.956 . S
H627 C614 0.961 . S
H628 C614 0.961 . S
H629 C615 0.958 . S
H630 C615 0.961 . S
H631 C615 0.960 . S
C632 C633 1.391 . S
C632 C634 1.394 . S
C632 H648 0.931 . S
C633 C632 1.391 . S
C633 C637 1.376 . S
C634 C632 1.394 . S
C634 C635 1.369 . S
C634 C638 1.531 . S
C635 C634 1.369 . S
C635 C636 1.410 . S
C635 C643 1.503 . S
C636 C635 1.410 . S
C636 C637 1.392 . S
C636 C639 1.511 . S
C637 C633 1.376 . S
C637 C636 1.392 . S
C637 H649 0.929 . S
C638 C634 1.531 . S
C638 H650 0.960 . S
C638 H651 0.962 . S
C638 H652 0.960 . S
C639 C636 1.511 . S
C639 H653 0.961 . S
C639 H654 0.961 . S
C639 H655 0.961 . S
C640 C641 1.370 . S
C640 C642 1.363 . S
C640 H656 0.931 . S
C641 C640 1.370 . S
C641 C645 1.408 . S
C642 C640 1.363 . S
C642 C643 1.370 . S
C642 C646 1.524 . S
C643 C635 1.503 . S
C643 C642 1.370 . S
C643 C644 1.403 . S
C644 C643 1.403 . S
C644 C645 1.404 . S
C644 C647 1.539 . S
C645 C641 1.408 . S
C645 C644 1.404 . S
C645 H657 0.930 . S
C646 C642 1.524 . S
C646 H658 0.956 . S
C646 H659 0.961 . S
C646 H660 0.961 . S
C647 C644 1.539 . S
C647 H661 0.958 . S
C647 H662 0.961 . S
C647 H663 0.960 . S
H648 C632 0.931 . S
H649 C637 0.929 . S
H650 C638 0.960 . S
H651 C638 0.962 . S
H652 C638 0.960 . S
H653 C639 0.961 . S
H654 C639 0.961 . S
H655 C639 0.961 . S
H656 C640 0.931 . S
H657 C645 0.930 . S
H658 C646 0.956 . S
H659 C646 0.961 . S
H660 C646 0.961 . S
H661 C647 0.958 . S
H662 C647 0.961 . S
H663 C647 0.960 . S
C664 C665 1.391 . S
C664 C666 1.394 . S
C664 H680 0.931 . S
C665 C664 1.391 . S
C665 C669 1.376 . S
C666 C664 1.394 . S
C666 C667 1.369 . S
C666 C670 1.531 . S
C667 C666 1.369 . S
C667 C668 1.410 . S
C667 C675 1.503 . S
C668 C667 1.410 . S
C668 C669 1.392 . S
C668 C671 1.511 . S
C669 C665 1.376 . S
C669 C668 1.392 . S
C669 H681 0.929 . S
C670 C666 1.531 . S
C670 H682 0.960 . S
C670 H683 0.962 . S
C670 H684 0.960 . S
C671 C668 1.511 . S
C671 H685 0.961 . S
C671 H686 0.961 . S
C671 H687 0.961 . S
C672 C673 1.370 . S
C672 C674 1.363 . S
C672 H688 0.931 . S
C673 C672 1.370 . S
C673 C677 1.408 . S
C674 C672 1.363 . S
C674 C675 1.370 . S
C674 C678 1.524 . S
C675 C667 1.503 . S
C675 C674 1.370 . S
C675 C676 1.403 . S
C676 C675 1.403 . S
C676 C677 1.404 . S
C676 C679 1.539 . S
C677 C673 1.408 . S
C677 C676 1.404 . S
C677 H689 0.930 . S
C678 C674 1.524 . S
C678 H690 0.956 . S
C678 H691 0.961 . S
C678 H692 0.961 . S
C679 C676 1.539 . S
C679 H693 0.958 . S
C679 H694 0.961 . S
C679 H695 0.960 . S
H680 C664 0.931 . S
H681 C669 0.929 . S
H682 C670 0.960 . S
H683 C670 0.962 . S
H684 C670 0.960 . S
H685 C671 0.961 . S
H686 C671 0.961 . S
H687 C671 0.961 . S
H688 C672 0.931 . S
H689 C677 0.930 . S
H690 C678 0.956 . S
H691 C678 0.961 . S
H692 C678 0.961 . S
H693 C679 0.958 . S
H694 C679 0.961 . S
H695 C679 0.960 . S
C696 C697 1.391 . S
C696 C698 1.394 . S
C696 H712 0.931 . S
C697 C696 1.391 . S
C697 C701 1.376 . S
C698 C696 1.394 . S
C698 C699 1.369 . S
C698 C702 1.531 . S
C699 C698 1.369 . S
C699 C700 1.410 . S
C699 C707 1.503 . S
C700 C699 1.410 . S
C700 C701 1.392 . S
C700 C703 1.511 . S
C701 C697 1.376 . S
C701 C700 1.392 . S
C701 H713 0.929 . S
C702 C698 1.531 . S
C702 H714 0.960 . S
C702 H715 0.962 . S
C702 H716 0.960 . S
C703 C700 1.511 . S
C703 H717 0.961 . S
C703 H718 0.961 . S
C703 H719 0.961 . S
C704 C705 1.370 . S
C704 C706 1.363 . S
C704 H720 0.931 . S
C705 C704 1.370 . S
C705 C709 1.408 . S
C706 C704 1.363 . S
C706 C707 1.370 . S
C706 C710 1.524 . S
C707 C699 1.503 . S
C707 C706 1.370 . S
C707 C708 1.403 . S
C708 C707 1.403 . S
C708 C709 1.404 . S
C708 C711 1.539 . S
C709 C705 1.408 . S
C709 C708 1.404 . S
C709 H721 0.930 . S
C710 C706 1.524 . S
C710 H722 0.956 . S
C710 H723 0.961 . S
C710 H724 0.961 . S
C711 C708 1.539 . S
C711 H725 0.958 . S
C711 H726 0.961 . S
C711 H727 0.960 . S
H712 C696 0.931 . S
H713 C701 0.929 . S
H714 C702 0.960 . S
H715 C702 0.962 . S
H716 C702 0.960 . S
H717 C703 0.961 . S
H718 C703 0.961 . S
H719 C703 0.961 . S
H720 C704 0.931 . S
H721 C709 0.930 . S
H722 C710 0.956 . S
H723 C710 0.961 . S
H724 C710 0.961 . S
H725 C711 0.958 . S
H726 C711 0.961 . S
H727 C711 0.960 . S
C728 C729 1.391 . S
C728 C730 1.394 . S
C728 H744 0.931 . S
C729 C728 1.391 . S
C729 C733 1.376 . S
C730 C728 1.394 . S
C730 C731 1.369 . S
C730 C734 1.531 . S
C731 C730 1.369 . S
C731 C732 1.410 . S
C731 C739 1.503 . S
C732 C731 1.410 . S
C732 C733 1.392 . S
C732 C735 1.511 . S
C733 C729 1.376 . S
C733 C732 1.392 . S
C733 H745 0.929 . S
C734 C730 1.531 . S
C734 H746 0.960 . S
C734 H747 0.962 . S
C734 H748 0.960 . S
C735 C732 1.511 . S
C735 H749 0.961 . S
C735 H750 0.961 . S
C735 H751 0.961 . S
C736 C737 1.370 . S
C736 C738 1.363 . S
C736 H752 0.931 . S
C737 C736 1.370 . S
C737 C741 1.408 . S
C738 C736 1.363 . S
C738 C739 1.370 . S
C738 C742 1.524 . S
C739 C731 1.503 . S
C739 C738 1.370 . S
C739 C740 1.403 . S
C740 C739 1.403 . S
C740 C741 1.404 . S
C740 C743 1.539 . S
C741 C737 1.408 . S
C741 C740 1.404 . S
C741 H753 0.930 . S
C742 C738 1.524 . S
C742 H754 0.956 . S
C742 H755 0.961 . S
C742 H756 0.961 . S
C743 C740 1.539 . S
C743 H757 0.958 . S
C743 H758 0.961 . S
C743 H759 0.960 . S
H744 C728 0.931 . S
H745 C733 0.929 . S
H746 C734 0.960 . S
H747 C734 0.962 . S
H748 C734 0.960 . S
H749 C735 0.961 . S
H750 C735 0.961 . S
H751 C735 0.961 . S
H752 C736 0.931 . S
H753 C741 0.930 . S
H754 C742 0.956 . S
H755 C742 0.961 . S
H756 C742 0.961 . S
H757 C743 0.958 . S
H758 C743 0.961 . S
H759 C743 0.960 . S
C760 C761 1.391 . S
C760 C762 1.394 . S
C760 H776 0.931 . S
C761 C760 1.391 . S
C761 C765 1.376 . S
C762 C760 1.394 . S
C762 C763 1.369 . S
C762 C766 1.531 . S
C763 C762 1.369 . S
C763 C764 1.410 . S
C763 C771 1.503 . S
C764 C763 1.410 . S
C764 C765 1.392 . S
C764 C767 1.511 . S
C765 C761 1.376 . S
C765 C764 1.392 . S
C765 H777 0.929 . S
C766 C762 1.531 . S
C766 H778 0.960 . S
C766 H779 0.962 . S
C766 H780 0.960 . S
C767 C764 1.511 . S
C767 H781 0.961 . S
C767 H782 0.961 . S
C767 H783 0.961 . S
C768 C769 1.370 . S
C768 C770 1.363 . S
C768 H784 0.931 . S
C769 C768 1.370 . S
C769 C773 1.408 . S
C770 C768 1.363 . S
C770 C771 1.370 . S
C770 C774 1.524 . S
C771 C763 1.503 . S
C771 C770 1.370 . S
C771 C772 1.403 . S
C772 C771 1.403 . S
C772 C773 1.404 . S
C772 C775 1.539 . S
C773 C769 1.408 . S
C773 C772 1.404 . S
C773 H785 0.930 . S
C774 C770 1.524 . S
C774 H786 0.956 . S
C774 H787 0.961 . S
C774 H788 0.961 . S
C775 C772 1.539 . S
C775 H789 0.958 . S
C775 H790 0.961 . S
C775 H791 0.960 . S
H776 C760 0.931 . S
H777 C765 0.929 . S
H778 C766 0.960 . S
H779 C766 0.962 . S
H780 C766 0.960 . S
H781 C767 0.961 . S
H782 C767 0.961 . S
H783 C767 0.961 . S
H784 C768 0.931 . S
H785 C773 0.930 . S
H786 C774 0.956 . S
H787 C774 0.961 . S
H788 C774 0.961 . S
H789 C775 0.958 . S
H790 C775 0.961 . S
H791 C775 0.960 . S
C792 C793 1.391 . S
C792 C794 1.394 . S
C792 H808 0.931 . S
C793 C792 1.391 . S
C793 C797 1.376 . S
C794 C792 1.394 . S
C794 C795 1.369 . S
C794 C798 1.531 . S
C795 C794 1.369 . S
C795 C796 1.410 . S
C795 C803 1.503 . S
C796 C795 1.410 . S
C796 C797 1.392 . S
C796 C799 1.511 . S
C797 C793 1.376 . S
C797 C796 1.392 . S
C797 H809 0.929 . S
C798 C794 1.531 . S
C798 H810 0.960 . S
C798 H811 0.962 . S
C798 H812 0.960 . S
C799 C796 1.511 . S
C799 H813 0.961 . S
C799 H814 0.961 . S
C799 H815 0.961 . S
C800 C801 1.370 . S
C800 C802 1.363 . S
C800 H816 0.931 . S
C801 C800 1.370 . S
C801 C805 1.408 . S
C802 C800 1.363 . S
C802 C803 1.370 . S
C802 C806 1.524 . S
C803 C795 1.503 . S
C803 C802 1.370 . S
C803 C804 1.403 . S
C804 C803 1.403 . S
C804 C805 1.404 . S
C804 C807 1.539 . S
C805 C801 1.408 . S
C805 C804 1.404 . S
C805 H817 0.930 . S
C806 C802 1.524 . S
C806 H818 0.956 . S
C806 H819 0.961 . S
C806 H820 0.961 . S
C807 C804 1.539 . S
C807 H821 0.958 . S
C807 H822 0.961 . S
C807 H823 0.960 . S
H808 C792 0.931 . S
H809 C797 0.929 . S
H810 C798 0.960 . S
H811 C798 0.962 . S
H812 C798 0.960 . S
H813 C799 0.961 . S
H814 C799 0.961 . S
H815 C799 0.961 . S
H816 C800 0.931 . S
H817 C805 0.930 . S
H818 C806 0.956 . S
H819 C806 0.961 . S
H820 C806 0.961 . S
H821 C807 0.958 . S
H822 C807 0.961 . S
H823 C807 0.960 . S
C824 C825 1.391 . S
C824 C826 1.394 . S
C824 H840 0.931 . S
C825 C824 1.391 . S
C825 C829 1.376 . S
C826 C824 1.394 . S
C826 C827 1.369 . S
C826 C830 1.531 . S
C827 C826 1.369 . S
C827 C828 1.410 . S
C827 C835 1.503 . S
C828 C827 1.410 . S
C828 C829 1.392 . S
C828 C831 1.511 . S
C829 C825 1.376 . S
C829 C828 1.392 . S
C829 H841 0.929 . S
C830 C826 1.531 . S
C830 H842 0.960 . S
C830 H843 0.962 . S
C830 H844 0.960 . S
C831 C828 1.511 . S
C831 H845 0.961 . S
C831 H846 0.961 . S
C831 H847 0.961 . S
C832 C833 1.370 . S
C832 C834 1.363 . S
C832 H848 0.931 . S
C833 C832 1.370 . S
C833 C837 1.408 . S
C834 C832 1.363 . S
C834 C835 1.370 . S
C834 C838 1.524 . S
C835 C827 1.503 . S
C835 C834 1.370 . S
C835 C836 1.403 . S
C836 C835 1.403 . S
C836 C837 1.404 . S
C836 C839 1.539 . S
C837 C833 1.408 . S
C837 C836 1.404 . S
C837 H849 0.930 . S
C838 C834 1.524 . S
C838 H850 0.956 . S
C838 H851 0.961 . S
C838 H852 0.961 . S
C839 C836 1.539 . S
C839 H853 0.958 . S
C839 H854 0.961 . S
C839 H855 0.960 . S
H840 C824 0.931 . S
H841 C829 0.929 . S
H842 C830 0.960 . S
H843 C830 0.962 . S
H844 C830 0.960 . S
H845 C831 0.961 . S
H846 C831 0.961 . S
H847 C831 0.961 . S
H848 C832 0.931 . S
H849 C837 0.930 . S
H850 C838 0.956 . S
H851 C838 0.961 . S
H852 C838 0.961 . S
H853 C839 0.958 . S
H854 C839 0.961 . S
H855 C839 0.960 . S
C856 C857 1.391 . S
C856 C858 1.394 . S
C856 H872 0.931 . S
C857 C856 1.391 . S
C857 C861 1.376 . S
C858 C856 1.394 . S
C858 C859 1.369 . S
C858 C862 1.531 . S
C859 C858 1.369 . S
C859 C860 1.410 . S
C859 C867 1.503 . S
C860 C859 1.410 . S
C860 C861 1.392 . S
C860 C863 1.511 . S
C861 C857 1.376 . S
C861 C860 1.392 . S
C861 H873 0.929 . S
C862 C858 1.531 . S
C862 H874 0.960 . S
C862 H875 0.962 . S
C862 H876 0.960 . S
C863 C860 1.511 . S
C863 H877 0.961 . S
C863 H878 0.961 . S
C863 H879 0.961 . S
C864 C865 1.370 . S
C864 C866 1.363 . S
C864 H880 0.931 . S
C865 C864 1.370 . S
C865 C869 1.408 . S
C866 C864 1.363 . S
C866 C867 1.370 . S
C866 C870 1.524 . S
C867 C859 1.503 . S
C867 C866 1.370 . S
C867 C868 1.403 . S
C868 C867 1.403 . S
C868 C869 1.404 . S
C868 C871 1.539 . S
C869 C865 1.408 . S
C869 C868 1.404 . S
C869 H881 0.930 . S
C870 C866 1.524 . S
C870 H882 0.956 . S
C870 H883 0.961 . S
C870 H884 0.961 . S
C871 C868 1.539 . S
C871 H885 0.958 . S
C871 H886 0.961 . S
C871 H887 0.960 . S
H872 C856 0.931 . S
H873 C861 0.929 . S
H874 C862 0.960 . S
H875 C862 0.962 . S
H876 C862 0.960 . S
H877 C863 0.961 . S
H878 C863 0.961 . S
H879 C863 0.961 . S
H880 C864 0.931 . S
H881 C869 0.930 . S
H882 C870 0.956 . S
H883 C870 0.961 . S
H884 C870 0.961 . S
H885 C871 0.958 . S
H886 C871 0.961 . S
H887 C871 0.960 . S
C888 C889 1.391 . S
C888 C890 1.394 . S
C888 H904 0.931 . S
C889 C888 1.391 . S
C889 C893 1.376 . S
C890 C888 1.394 . S
C890 C891 1.369 . S
C890 C894 1.531 . S
C891 C890 1.369 . S
C891 C892 1.410 . S
C891 C899 1.503 . S
C892 C891 1.410 . S
C892 C893 1.392 . S
C892 C895 1.511 . S
C893 C889 1.376 . S
C893 C892 1.392 . S
C893 H905 0.929 . S
C894 C890 1.531 . S
C894 H906 0.960 . S
C894 H907 0.962 . S
C894 H908 0.960 . S
C895 C892 1.511 . S
C895 H909 0.961 . S
C895 H910 0.961 . S
C895 H911 0.961 . S
C896 C897 1.370 . S
C896 C898 1.363 . S
C896 H912 0.931 . S
C897 C896 1.370 . S
C897 C901 1.408 . S
C898 C896 1.363 . S
C898 C899 1.370 . S
C898 C902 1.524 . S
C899 C891 1.503 . S
C899 C898 1.370 . S
C899 C900 1.403 . S
C900 C899 1.403 . S
C900 C901 1.404 . S
C900 C903 1.539 . S
C901 C897 1.408 . S
C901 C900 1.404 . S
C901 H913 0.930 . S
C902 C898 1.524 . S
C902 H914 0.956 . S
C902 H915 0.961 . S
C902 H916 0.961 . S
C903 C900 1.539 . S
C903 H917 0.958 . S
C903 H918 0.961 . S
C903 H919 0.960 . S
H904 C888 0.931 . S
H905 C893 0.929 . S
H906 C894 0.960 . S
H907 C894 0.962 . S
H908 C894 0.960 . S
H909 C895 0.961 . S
H910 C895 0.961 . S
H911 C895 0.961 . S
H912 C896 0.931 . S
H913 C901 0.930 . S
H914 C902 0.956 . S
H915 C902 0.961 . S
H916 C902 0.961 . S
H917 C903 0.958 . S
H918 C903 0.961 . S
H919 C903 0.960 . S
C920 C921 1.391 . S
C920 C922 1.394 . S
C920 H936 0.931 . S
C921 C920 1.391 . S
C921 C925 1.376 . S
C922 C920 1.394 . S
C922 C923 1.369 . S
C922 C926 1.531 . S
C923 C922 1.369 . S
C923 C924 1.410 . S
C923 C931 1.503 . S
C924 C923 1.410 . S
C924 C925 1.392 . S
C924 C927 1.511 . S
C925 C921 1.376 . S
C925 C924 1.392 . S
C925 H937 0.929 . S
C926 C922 1.531 . S
C926 H938 0.960 . S
C926 H939 0.962 . S
C926 H940 0.960 . S
C927 C924 1.511 . S
C927 H941 0.961 . S
C927 H942 0.961 . S
C927 H943 0.961 . S
C928 C929 1.370 . S
C928 C930 1.363 . S
C928 H944 0.931 . S
C929 C928 1.370 . S
C929 C933 1.408 . S
C930 C928 1.363 . S
C930 C931 1.370 . S
C930 C934 1.524 . S
C931 C923 1.503 . S
C931 C930 1.370 . S
C931 C932 1.403 . S
C932 C931 1.403 . S
C932 C933 1.404 . S
C932 C935 1.539 . S
C933 C929 1.408 . S
C933 C932 1.404 . S
C933 H945 0.930 . S
C934 C930 1.524 . S
C934 H946 0.956 . S
C934 H947 0.961 . S
C934 H948 0.961 . S
C935 C932 1.539 . S
C935 H949 0.958 . S
C935 H950 0.961 . S
C935 H951 0.960 . S
H936 C920 0.931 . S
H937 C925 0.929 . S
H938 C926 0.960 . S
H939 C926 0.962 . S
H940 C926 0.960 . S
H941 C927 0.961 . S
H942 C927 0.961 . S
H943 C927 0.961 . S
H944 C928 0.931 . S
H945 C933 0.930 . S
H946 C934 0.956 . S
H947 C934 0.961 . S
H948 C934 0.961 . S
H949 C935 0.958 . S
H950 C935 0.961 . S
H951 C935 0.960 . S
C952 C953 1.391 . S
C952 C954 1.394 . S
C952 H968 0.931 1_545 S
C953 C952 1.391 . S
C953 C957 1.376 . S
C954 C952 1.394 . S
C954 C955 1.369 . S
C954 C958 1.531 . S
C955 C954 1.369 . S
C955 C956 1.410 . S
C955 C963 1.503 . S
C956 C955 1.410 . S
C956 C957 1.392 . S
C956 C959 1.511 . S
C957 C953 1.376 . S
C957 C956 1.392 . S
C957 H969 0.929 . S
C958 C954 1.531 . S
C958 H970 0.960 . S
C958 H971 0.962 . S
C958 H972 0.960 1_545 S
C959 C956 1.511 . S
C959 H973 0.961 . S
C959 H974 0.961 . S
C959 H975 0.961 . S
C960 C961 1.370 . S
C960 C962 1.363 . S
C960 H976 0.931 . S
C961 C960 1.370 . S
C961 C965 1.408 . S
C962 C960 1.363 . S
C962 C963 1.370 . S
C962 C966 1.524 . S
C963 C955 1.503 . S
C963 C962 1.370 . S
C963 C964 1.403 . S
C964 C963 1.403 . S
C964 C965 1.404 . S
C964 C967 1.539 . S
C965 C961 1.408 . S
C965 C964 1.404 . S
C965 H977 0.930 . S
C966 C962 1.524 . S
C966 H978 0.956 . S
C966 H979 0.961 . S
C966 H980 0.961 . S
C967 C964 1.539 . S
C967 H981 0.958 . S
C967 H982 0.961 . S
C967 H983 0.960 . S
H968 C952 0.931 1_565 S
H969 C957 0.929 . S
H970 C958 0.960 . S
H971 C958 0.962 . S
H972 C958 0.960 1_565 S
H973 C959 0.961 . S
H974 C959 0.961 . S
H975 C959 0.961 . S
H976 C960 0.931 . S
H977 C965 0.930 . S
H978 C966 0.956 . S
H979 C966 0.961 . S
H980 C966 0.961 . S
H981 C967 0.958 . S
H982 C967 0.961 . S
H983 C967 0.960 . S
C984 C985 1.391 . S
C984 C986 1.394 . S
C984 H1000 0.931 1_565 S
C985 C984 1.391 . S
C985 C989 1.376 . S
C986 C984 1.394 . S
C986 C987 1.369 . S
C986 C990 1.531 . S
C987 C986 1.369 . S
C987 C988 1.410 . S
C987 C995 1.503 . S
C988 C987 1.410 . S
C988 C989 1.392 . S
C988 C991 1.511 . S
C989 C985 1.376 . S
C989 C988 1.392 . S
C989 H1001 0.929 . S
C990 C986 1.531 . S
C990 H1002 0.960 . S
C990 H1003 0.962 . S
C990 H1004 0.958 . S
C991 C988 1.511 . S
C991 H1005 0.961 . S
C991 H1006 0.961 . S
C991 H1007 0.961 . S
C992 C993 1.370 . S
C992 C994 1.363 . S
C992 H1008 0.931 . S
C993 C992 1.370 . S
C993 C997 1.408 . S
C994 C992 1.363 . S
C994 C995 1.370 . S
C994 C998 1.524 . S
C995 C987 1.503 . S
C995 C994 1.370 . S
C995 C996 1.403 . S
C996 C995 1.403 . S
C996 C997 1.404 . S
C996 C999 1.539 . S
C997 C993 1.408 . S
C997 C996 1.404 . S
C997 H1009 0.930 . S
C998 C994 1.524 . S
C998 H1010 0.956 . S
C998 H1011 0.961 . S
C998 H1012 0.961 . S
C999 C996 1.539 . S
C999 H1013 0.958 . S
C999 H1014 0.961 . S
C999 H1015 0.960 . S
H1000 C984 0.931 1_545 S
H1001 C989 0.929 . S
H1002 C990 0.960 . S
H1003 C990 0.962 . S
H1004 C990 0.958 . S
H1005 C991 0.961 . S
H1006 C991 0.961 . S
H1007 C991 0.961 . S
H1008 C992 0.931 . S
H1009 C997 0.930 . S
H1010 C998 0.956 . S
H1011 C998 0.961 . S
H1012 C998 0.961 . S
H1013 C999 0.958 . S
H1014 C999 0.961 . S
H1015 C999 0.960 . S
C1016 C1017 1.391 . S
C1016 C1018 1.394 . S
C1016 H1032 0.931 1_545 S
C1017 C1016 1.391 . S
C1017 C1021 1.376 . S
C1018 C1016 1.394 . S
C1018 C1019 1.369 . S
C1018 C1022 1.531 . S
C1019 C1018 1.369 . S
C1019 C1020 1.410 . S
C1019 C1027 1.503 . S
C1020 C1019 1.410 . S
C1020 C1021 1.392 . S
C1020 C1023 1.511 . S
C1021 C1017 1.376 . S
C1021 C1020 1.392 . S
C1021 H1033 0.929 . S
C1022 C1018 1.531 . S
C1022 H1034 0.960 . S
C1022 H1035 0.962 . S
C1022 H1036 0.960 . S
C1023 C1020 1.511 . S
C1023 H1037 0.961 . S
C1023 H1038 0.961 . S
C1023 H1039 0.961 . S
C1024 C1025 1.370 . S
C1024 C1026 1.363 . S
C1024 H1040 0.931 . S
C1025 C1024 1.370 . S
C1025 C1029 1.408 . S
C1026 C1024 1.363 . S
C1026 C1027 1.370 . S
C1026 C1030 1.524 . S
C1027 C1019 1.503 . S
C1027 C1026 1.370 . S
C1027 C1028 1.403 . S
C1028 C1027 1.403 . S
C1028 C1029 1.404 . S
C1028 C1031 1.539 . S
C1029 C1025 1.408 . S
C1029 C1028 1.404 . S
C1029 H1041 0.930 . S
C1030 C1026 1.524 . S
C1030 H1042 0.956 . S
C1030 H1043 0.961 . S
C1030 H1044 0.961 . S
C1031 C1028 1.539 . S
C1031 H1045 0.958 . S
C1031 H1046 0.961 . S
C1031 H1047 0.960 . S
H1032 C1016 0.931 1_565 S
H1033 C1021 0.929 . S
H1034 C1022 0.960 . S
H1035 C1022 0.962 . S
H1036 C1022 0.960 . S
H1037 C1023 0.961 . S
H1038 C1023 0.961 . S
H1039 C1023 0.961 . S
H1040 C1024 0.931 . S
H1041 C1029 0.930 . S
H1042 C1030 0.956 . S
H1043 C1030 0.961 . S
H1044 C1030 0.961 . S
H1045 C1031 0.958 . S
H1046 C1031 0.961 . S
H1047 C1031 0.960 . S
C1048 C1049 1.391 . S
C1048 C1050 1.394 . S
C1048 H1064 0.931 . S
C1049 C1048 1.391 . S
C1049 C1053 1.376 . S
C1050 C1048 1.394 . S
C1050 C1051 1.369 . S
C1050 C1054 1.531 . S
C1051 C1050 1.369 . S
C1051 C1052 1.410 . S
C1051 C1059 1.503 . S
C1052 C1051 1.410 . S
C1052 C1053 1.392 . S
C1052 C1055 1.511 . S
C1053 C1049 1.376 . S
C1053 C1052 1.392 . S
C1053 H1065 0.929 1_565 S
C1054 C1050 1.531 . S
C1054 H1066 0.960 . S
C1054 H1067 0.962 . S
C1054 H1068 0.960 . S
C1055 C1052 1.511 . S
C1055 H1069 0.961 1_565 S
C1055 H1070 0.961 . S
C1055 H1071 0.961 . S
C1056 C1057 1.370 . S
C1056 C1058 1.363 . S
C1056 H1072 0.931 . S
C1057 C1056 1.370 . S
C1057 C1061 1.408 . S
C1058 C1056 1.363 . S
C1058 C1059 1.370 . S
C1058 C1062 1.524 . S
C1059 C1051 1.503 . S
C1059 C1058 1.370 . S
C1059 C1060 1.403 . S
C1060 C1059 1.403 . S
C1060 C1061 1.404 . S
C1060 C1063 1.539 . S
C1061 C1057 1.408 . S
C1061 C1060 1.404 . S
C1061 H1073 0.930 . S
C1062 C1058 1.524 . S
C1062 H1074 0.956 . S
C1062 H1075 0.961 . S
C1062 H1076 0.961 . S
C1063 C1060 1.539 . S
C1063 H1077 0.958 . S
C1063 H1078 0.961 . S
C1063 H1079 0.960 . S
H1064 C1048 0.931 . S
H1065 C1053 0.929 1_545 S
H1066 C1054 0.960 . S
H1067 C1054 0.962 . S
H1068 C1054 0.960 . S
H1069 C1055 0.961 1_545 S
H1070 C1055 0.961 . S
H1071 C1055 0.961 . S
H1072 C1056 0.931 . S
H1073 C1061 0.930 . S
H1074 C1062 0.956 . S
H1075 C1062 0.961 . S
H1076 C1062 0.961 . S
H1077 C1063 0.958 . S
H1078 C1063 0.961 . S
H1079 C1063 0.960 . S
C1080 C1081 1.391 . S
C1080 C1082 1.394 . S
C1080 H1096 0.931 . S
C1081 C1080 1.391 . S
C1081 C1085 1.376 . S
C1082 C1080 1.394 . S
C1082 C1083 1.369 . S
C1082 C1086 1.531 . S
C1083 C1082 1.369 . S
C1083 C1084 1.410 . S
C1083 C1091 1.503 . S
C1084 C1083 1.410 . S
C1084 C1085 1.392 . S
C1084 C1087 1.511 . S
C1085 C1081 1.376 . S
C1085 C1084 1.392 . S
C1085 H1097 0.929 . S
C1086 C1082 1.531 . S
C1086 H1098 0.960 . S
C1086 H1099 0.962 . S
C1086 H1100 0.960 . S
C1087 C1084 1.511 . S
C1087 H1101 0.961 . S
C1087 H1102 0.961 . S
C1087 H1103 0.961 . S
C1088 C1089 1.370 . S
C1088 C1090 1.363 . S
C1088 H1104 0.931 . S
C1089 C1088 1.370 . S
C1089 C1093 1.408 . S
C1090 C1088 1.363 . S
C1090 C1091 1.370 . S
C1090 C1094 1.524 . S
C1091 C1083 1.503 . S
C1091 C1090 1.370 . S
C1091 C1092 1.403 . S
C1092 C1091 1.403 . S
C1092 C1093 1.404 . S
C1092 C1095 1.539 . S
C1093 C1089 1.408 . S
C1093 C1092 1.404 . S
C1093 H1105 0.930 . S
C1094 C1090 1.524 . S
C1094 H1106 0.956 . S
C1094 H1107 0.961 . S
C1094 H1108 0.961 . S
C1095 C1092 1.539 . S
C1095 H1109 0.958 . S
C1095 H1110 0.961 . S
C1095 H1111 0.960 . S
H1096 C1080 0.931 . S
H1097 C1085 0.929 . S
H1098 C1086 0.960 . S
H1099 C1086 0.962 . S
H1100 C1086 0.960 . S
H1101 C1087 0.961 . S
H1102 C1087 0.961 . S
H1103 C1087 0.961 . S
H1104 C1088 0.931 . S
H1105 C1093 0.930 . S
H1106 C1094 0.956 . S
H1107 C1094 0.961 . S
H1108 C1094 0.961 . S
H1109 C1095 0.958 . S
H1110 C1095 0.961 . S
H1111 C1095 0.960 . S
C1112 C1113 1.391 . S
C1112 C1114 1.394 . S
C1112 H1128 0.931 . S
C1113 C1112 1.391 . S
C1113 C1117 1.376 . S
C1114 C1112 1.394 . S
C1114 C1115 1.369 . S
C1114 C1118 1.531 . S
C1115 C1114 1.369 . S
C1115 C1116 1.410 . S
C1115 C1123 1.503 . S
C1116 C1115 1.410 . S
C1116 C1117 1.392 . S
C1116 C1119 1.511 . S
C1117 C1113 1.376 . S
C1117 C1116 1.392 . S
C1117 H1129 0.929 . S
C1118 C1114 1.531 . S
C1118 H1130 0.960 . S
C1118 H1131 0.962 . S
C1118 H1132 0.960 . S
C1119 C1116 1.511 . S
C1119 H1133 0.961 . S
C1119 H1134 0.961 . S
C1119 H1135 0.961 . S
C1120 C1121 1.370 . S
C1120 C1122 1.363 . S
C1120 H1136 0.931 . S
C1121 C1120 1.370 . S
C1121 C1125 1.408 . S
C1122 C1120 1.363 . S
C1122 C1123 1.370 . S
C1122 C1126 1.524 . S
C1123 C1115 1.503 . S
C1123 C1122 1.370 . S
C1123 C1124 1.403 . S
C1124 C1123 1.403 . S
C1124 C1125 1.404 . S
C1124 C1127 1.539 . S
C1125 C1121 1.408 . S
C1125 C1124 1.404 . S
C1125 H1137 0.930 . S
C1126 C1122 1.524 . S
C1126 H1138 0.956 . S
C1126 H1139 0.961 . S
C1126 H1140 0.961 . S
C1127 C1124 1.539 . S
C1127 H1141 0.958 . S
C1127 H1142 0.961 . S
C1127 H1143 0.960 . S
H1128 C1112 0.931 . S
H1129 C1117 0.929 . S
H1130 C1118 0.960 . S
H1131 C1118 0.962 . S
H1132 C1118 0.960 . S
H1133 C1119 0.961 . S
H1134 C1119 0.961 . S
H1135 C1119 0.961 . S
H1136 C1120 0.931 . S
H1137 C1125 0.930 . S
H1138 C1126 0.956 . S
H1139 C1126 0.961 . S
H1140 C1126 0.961 . S
H1141 C1127 0.958 . S
H1142 C1127 0.961 . S
H1143 C1127 0.960 . S
C1144 C1145 1.391 . S
C1144 C1146 1.394 . S
C1144 H1160 0.931 . S
C1145 C1144 1.391 . S
C1145 C1149 1.376 . S
C1146 C1144 1.394 . S
C1146 C1147 1.369 . S
C1146 C1150 1.531 . S
C1147 C1146 1.369 . S
C1147 C1148 1.410 . S
C1147 C1155 1.503 . S
C1148 C1147 1.410 . S
C1148 C1149 1.392 . S
C1148 C1151 1.511 . S
C1149 C1145 1.376 . S
C1149 C1148 1.392 . S
C1149 H1161 0.929 . S
C1150 C1146 1.531 . S
C1150 H1162 0.960 . S
C1150 H1163 0.962 . S
C1150 H1164 0.960 . S
C1151 C1148 1.511 . S
C1151 H1165 0.961 . S
C1151 H1166 0.961 . S
C1151 H1167 0.961 . S
C1152 C1153 1.370 . S
C1152 C1154 1.363 . S
C1152 H1168 0.931 . S
C1153 C1152 1.370 . S
C1153 C1157 1.408 . S
C1154 C1152 1.363 . S
C1154 C1155 1.370 . S
C1154 C1158 1.524 . S
C1155 C1147 1.503 . S
C1155 C1154 1.370 . S
C1155 C1156 1.403 . S
C1156 C1155 1.403 . S
C1156 C1157 1.404 . S
C1156 C1159 1.539 . S
C1157 C1153 1.408 . S
C1157 C1156 1.404 . S
C1157 H1169 0.930 . S
C1158 C1154 1.524 . S
C1158 H1170 0.956 . S
C1158 H1171 0.961 . S
C1158 H1172 0.961 . S
C1159 C1156 1.539 . S
C1159 H1173 0.958 . S
C1159 H1174 0.961 . S
C1159 H1175 0.960 . S
H1160 C1144 0.931 . S
H1161 C1149 0.929 . S
H1162 C1150 0.960 . S
H1163 C1150 0.962 . S
H1164 C1150 0.960 . S
H1165 C1151 0.961 . S
H1166 C1151 0.961 . S
H1167 C1151 0.961 . S
H1168 C1152 0.931 . S
H1169 C1157 0.930 . S
H1170 C1158 0.956 . S
H1171 C1158 0.961 . S
H1172 C1158 0.961 . S
H1173 C1159 0.958 . S
H1174 C1159 0.961 . S
H1175 C1159 0.960 . S
C1176 C1177 1.391 . S
C1176 C1178 1.394 . S
C1176 H1192 0.931 . S
C1177 C1176 1.391 . S
C1177 C1181 1.376 . S
C1178 C1176 1.394 . S
C1178 C1179 1.369 . S
C1178 C1182 1.531 . S
C1179 C1178 1.369 . S
C1179 C1180 1.410 . S
C1179 C1187 1.503 . S
C1180 C1179 1.410 . S
C1180 C1181 1.392 . S
C1180 C1183 1.511 . S
C1181 C1177 1.376 . S
C1181 C1180 1.392 . S
C1181 H1193 0.929 . S
C1182 C1178 1.531 . S
C1182 H1194 0.960 . S
C1182 H1195 0.962 . S
C1182 H1196 0.960 . S
C1183 C1180 1.511 . S
C1183 H1197 0.961 . S
C1183 H1198 0.961 . S
C1183 H1199 0.961 . S
C1184 C1185 1.370 . S
C1184 C1186 1.363 . S
C1184 H1200 0.931 . S
C1185 C1184 1.370 . S
C1185 C1189 1.408 . S
C1186 C1184 1.363 . S
C1186 C1187 1.370 . S
C1186 C1190 1.524 . S
C1187 C1179 1.503 . S
C1187 C1186 1.370 . S
C1187 C1188 1.403 . S
C1188 C1187 1.403 . S
C1188 C1189 1.404 . S
C1188 C1191 1.539 . S
C1189 C1185 1.408 . S
C1189 C1188 1.404 . S
C1189 H1201 0.930 . S
C1190 C1186 1.524 . S
C1190 H1202 0.956 . S
C1190 H1203 0.961 . S
C1190 H1204 0.961 . S
C1191 C1188 1.539 . S
C1191 H1205 0.958 . S
C1191 H1206 0.961 . S
C1191 H1207 0.960 . S
H1192 C1176 0.931 . S
H1193 C1181 0.929 . S
H1194 C1182 0.960 . S
H1195 C1182 0.962 . S
H1196 C1182 0.960 . S
H1197 C1183 0.961 . S
H1198 C1183 0.961 . S
H1199 C1183 0.961 . S
H1200 C1184 0.931 . S
H1201 C1189 0.930 . S
H1202 C1190 0.956 . S
H1203 C1190 0.961 . S
H1204 C1190 0.961 . S
H1205 C1191 0.958 . S
H1206 C1191 0.961 . S
H1207 C1191 0.960 . S
C1208 C1209 1.391 . S
C1208 C1210 1.394 . S
C1208 H1224 0.931 . S
C1209 C1208 1.391 . S
C1209 C1213 1.376 . S
C1210 C1208 1.394 . S
C1210 C1211 1.369 . S
C1210 C1214 1.531 . S
C1211 C1210 1.369 . S
C1211 C1212 1.410 . S
C1211 C1219 1.503 . S
C1212 C1211 1.410 . S
C1212 C1213 1.392 . S
C1212 C1215 1.511 . S
C1213 C1209 1.376 . S
C1213 C1212 1.392 . S
C1213 H1225 0.929 . S
C1214 C1210 1.531 . S
C1214 H1226 0.960 . S
C1214 H1227 0.962 . S
C1214 H1228 0.960 . S
C1215 C1212 1.511 . S
C1215 H1229 0.961 . S
C1215 H1230 0.961 . S
C1215 H1231 0.961 . S
C1216 C1217 1.370 . S
C1216 C1218 1.363 . S
C1216 H1232 0.931 . S
C1217 C1216 1.370 . S
C1217 C1221 1.408 . S
C1218 C1216 1.363 . S
C1218 C1219 1.370 . S
C1218 C1222 1.524 . S
C1219 C1211 1.503 . S
C1219 C1218 1.370 . S
C1219 C1220 1.403 . S
C1220 C1219 1.403 . S
C1220 C1221 1.404 . S
C1220 C1223 1.539 . S
C1221 C1217 1.408 . S
C1221 C1220 1.404 . S
C1221 H1233 0.930 . S
C1222 C1218 1.524 . S
C1222 H1234 0.956 . S
C1222 H1235 0.961 . S
C1222 H1236 0.961 . S
C1223 C1220 1.539 . S
C1223 H1237 0.958 . S
C1223 H1238 0.961 . S
C1223 H1239 0.960 . S
H1224 C1208 0.931 . S
H1225 C1213 0.929 . S
H1226 C1214 0.960 . S
H1227 C1214 0.962 . S
H1228 C1214 0.960 . S
H1229 C1215 0.961 . S
H1230 C1215 0.961 . S
H1231 C1215 0.961 . S
H1232 C1216 0.931 . S
H1233 C1221 0.930 . S
H1234 C1222 0.956 . S
H1235 C1222 0.961 . S
H1236 C1222 0.961 . S
H1237 C1223 0.958 . S
H1238 C1223 0.961 . S
H1239 C1223 0.960 . S
C1240 C1241 1.391 . S
C1240 C1242 1.394 . S
C1240 H1256 0.931 . S
C1241 C1240 1.391 . S
C1241 C1245 1.376 . S
C1242 C1240 1.394 . S
C1242 C1243 1.369 . S
C1242 C1246 1.531 . S
C1243 C1242 1.369 . S
C1243 C1244 1.410 . S
C1243 C1251 1.503 . S
C1244 C1243 1.410 . S
C1244 C1245 1.392 . S
C1244 C1247 1.511 . S
C1245 C1241 1.376 . S
C1245 C1244 1.392 . S
C1245 H1257 0.929 . S
C1246 C1242 1.531 . S
C1246 H1258 0.960 . S
C1246 H1259 0.962 . S
C1246 H1260 0.960 . S
C1247 C1244 1.511 . S
C1247 H1261 0.961 . S
C1247 H1262 0.961 . S
C1247 H1263 0.961 . S
C1248 C1249 1.370 . S
C1248 C1250 1.363 . S
C1248 H1264 0.931 . S
C1249 C1248 1.370 . S
C1249 C1253 1.408 . S
C1250 C1248 1.363 . S
C1250 C1251 1.370 . S
C1250 C1254 1.524 . S
C1251 C1243 1.503 . S
C1251 C1250 1.370 . S
C1251 C1252 1.403 . S
C1252 C1251 1.403 . S
C1252 C1253 1.404 . S
C1252 C1255 1.539 . S
C1253 C1249 1.408 . S
C1253 C1252 1.404 . S
C1253 H1265 0.930 . S
C1254 C1250 1.524 . S
C1254 H1266 0.956 . S
C1254 H1267 0.961 . S
C1254 H1268 0.961 . S
C1255 C1252 1.539 . S
C1255 H1269 0.958 . S
C1255 H1270 0.961 . S
C1255 H1271 0.960 . S
H1256 C1240 0.931 . S
H1257 C1245 0.929 . S
H1258 C1246 0.960 . S
H1259 C1246 0.962 . S
H1260 C1246 0.960 . S
H1261 C1247 0.961 . S
H1262 C1247 0.961 . S
H1263 C1247 0.961 . S
H1264 C1248 0.931 . S
H1265 C1253 0.930 . S
H1266 C1254 0.956 . S
H1267 C1254 0.961 . S
H1268 C1254 0.961 . S
H1269 C1255 0.958 . S
H1270 C1255 0.961 . S
H1271 C1255 0.960 . S
C1272 C1273 1.391 . S
C1272 C1274 1.394 . S
C1272 H1288 0.931 . S
C1273 C1272 1.391 . S
C1273 C1277 1.376 . S
C1274 C1272 1.394 . S
C1274 C1275 1.369 . S
C1274 C1278 1.531 . S
C1275 C1274 1.369 . S
C1275 C1276 1.410 . S
C1275 C1283 1.503 . S
C1276 C1275 1.410 . S
C1276 C1277 1.392 . S
C1276 C1279 1.511 . S
C1277 C1273 1.376 . S
C1277 C1276 1.392 . S
C1277 H1289 0.929 . S
C1278 C1274 1.531 . S
C1278 H1290 0.960 . S
C1278 H1291 0.962 . S
C1278 H1292 0.960 . S
C1279 C1276 1.511 . S
C1279 H1293 0.961 . S
C1279 H1294 0.961 . S
C1279 H1295 0.961 . S
C1280 C1281 1.370 . S
C1280 C1282 1.363 . S
C1280 H1296 0.931 . S
C1281 C1280 1.370 . S
C1281 C1285 1.408 . S
C1282 C1280 1.363 . S
C1282 C1283 1.370 . S
C1282 C1286 1.524 . S
C1283 C1275 1.503 . S
C1283 C1282 1.370 . S
C1283 C1284 1.403 . S
C1284 C1283 1.403 . S
C1284 C1285 1.404 . S
C1284 C1287 1.539 . S
C1285 C1281 1.408 . S
C1285 C1284 1.404 . S
C1285 H1297 0.930 . S
C1286 C1282 1.524 . S
C1286 H1298 0.956 . S
C1286 H1299 0.961 . S
C1286 H1300 0.961 . S
C1287 C1284 1.539 . S
C1287 H1301 0.958 . S
C1287 H1302 0.961 . S
C1287 H1303 0.960 . S
H1288 C1272 0.931 . S
H1289 C1277 0.929 . S
H1290 C1278 0.960 . S
H1291 C1278 0.962 . S
H1292 C1278 0.960 . S
H1293 C1279 0.961 . S
H1294 C1279 0.961 . S
H1295 C1279 0.961 . S
H1296 C1280 0.931 . S
H1297 C1285 0.930 . S
H1298 C1286 0.956 . S
H1299 C1286 0.961 . S
H1300 C1286 0.961 . S
H1301 C1287 0.958 . S
H1302 C1287 0.961 . S
H1303 C1287 0.960 . S
C1304 C1305 1.391 . S
C1304 C1306 1.394 . S
C1304 H1320 0.931 . S
C1305 C1304 1.391 . S
C1305 C1309 1.376 . S
C1306 C1304 1.394 . S
C1306 C1307 1.369 . S
C1306 C1310 1.531 . S
C1307 C1306 1.369 . S
C1307 C1308 1.410 . S
C1307 C1315 1.503 . S
C1308 C1307 1.410 . S
C1308 C1309 1.392 . S
C1308 C1311 1.511 . S
C1309 C1305 1.376 . S
C1309 C1308 1.392 . S
C1309 H1321 0.929 . S
C1310 C1306 1.531 . S
C1310 H1322 0.960 . S
C1310 H1323 0.962 . S
C1310 H1324 0.960 . S
C1311 C1308 1.511 . S
C1311 H1325 0.961 . S
C1311 H1326 0.961 . S
C1311 H1327 0.961 . S
C1312 C1313 1.370 . S
C1312 C1314 1.363 . S
C1312 H1328 0.931 . S
C1313 C1312 1.370 . S
C1313 C1317 1.408 . S
C1314 C1312 1.363 . S
C1314 C1315 1.370 . S
C1314 C1318 1.524 . S
C1315 C1307 1.503 . S
C1315 C1314 1.370 . S
C1315 C1316 1.403 . S
C1316 C1315 1.403 . S
C1316 C1317 1.404 . S
C1316 C1319 1.539 . S
C1317 C1313 1.408 . S
C1317 C1316 1.404 . S
C1317 H1329 0.930 . S
C1318 C1314 1.524 . S
C1318 H1330 0.956 . S
C1318 H1331 0.961 . S
C1318 H1332 0.961 . S
C1319 C1316 1.539 . S
C1319 H1333 0.958 . S
C1319 H1334 0.961 . S
C1319 H1335 0.960 . S
H1320 C1304 0.931 . S
H1321 C1309 0.929 . S
H1322 C1310 0.960 . S
H1323 C1310 0.962 . S
H1324 C1310 0.960 . S
H1325 C1311 0.961 . S
H1326 C1311 0.961 . S
H1327 C1311 0.961 . S
H1328 C1312 0.931 . S
H1329 C1317 0.930 . S
H1330 C1318 0.956 . S
H1331 C1318 0.961 . S
H1332 C1318 0.961 . S
H1333 C1319 0.958 . S
H1334 C1319 0.961 . S
H1335 C1319 0.960 . S
C569 C31 1.485 . S
C577 C506 1.513 . S
C609 C484 1.514 . S
C601 C61 1.489 . S
C641 C510 1.515 . S
C633 C151 1.481 . S
C673 C488 1.524 . S
C665 C181 1.554 . S
C705 C550 1.521 . S
C697 C271 1.523 . S
C737 C528 1.519 . S
C729 C301 1.480 . S
C761 C391 1.522 . S
C769 C554 1.507 . S
C801 C532 1.515 . S
C793 C421 1.559 . S
C825 C20 1.561 . S
C833 C555 1.568 . S
C865 C533 1.560 . S
C857 C91 1.550 . S
C889 C121 1.433 . S
C897 C552 1.559 . S
C921 C211 1.570 . S
C929 C530 1.557 . S
C961 C511 1.568 . S
C953 C260 1.539 1_545 S
C985 C331 1.521 1_565 S
C993 C489 1.562 . S
C1025 C508 1.564 . S
C1017 C361 1.457 1_545 S
C1057 C486 1.566 . S
C1049 C451 1.574 1_565 S
C1089 C529 1.539 . S
C1081 C1 1.474 . S
C1121 C551 1.530 . S
C1113 C80 1.421 . S
C1145 C140 1.480 . S
C1153 C531 1.537 . S
C1185 C553 1.542 . S
C1177 C200 1.517 . S
C1217 C485 1.540 . S
C1209 C241 1.464 . S
C1241 C320 1.475 . S
C1249 C507 1.540 . S
C1273 C380 1.489 . S
C1281 C487 1.539 . S
C1305 C440 1.461 . S
C1313 C509 1.531 . S
