# Generated by pormake.
# Topology anh, (6,3)-cn, num edge types: 1
# Building blocks:
#     Node 0, Type 0, BuildingBlock: PAMTOO_clean_sbu_0, # of connection points: 6
#     Node 1, Type 0, BuildingBlock: PAMTOO_clean_sbu_0, # of connection points: 6
#     Node 2, Type 0, BuildingBlock: PAMTOO_clean_sbu_0, # of connection points: 6
#     Node 3, Type 1, BuildingBlock: VETTIZ_charged_linker_0, # of connection points: 3
#     Node 4, Type 1, BuildingBlock: VETTIZ_charged_linker_0, # of connection points: 3
#     Node 5, Type 1, BuildingBlock: VETTIZ_charged_linker_0, # of connection points: 3
#     Node 6, Type 1, BuildingBlock: VETTIZ_charged_linker_0, # of connection points: 3
#     Node 7, Type 1, BuildingBlock: VETTIZ_charged_linker_0, # of connection points: 3
#     Node 8, Type 1, BuildingBlock: VETTIZ_charged_linker_0, # of connection points: 3
#     Edge 9, Type (0, 1), BuildingBlock: XUDNAN_clean_linker_2, # of connection points: 2
#     Edge 10, Type (0, 1), BuildingBlock: XUDNAN_clean_linker_2, # of connection points: 2
#     Edge 11, Type (0, 1), BuildingBlock: XUDNAN_clean_linker_2, # of connection points: 2
#     Edge 12, Type (0, 1), BuildingBlock: XUDNAN_clean_linker_2, # of connection points: 2
#     Edge 13, Type (0, 1), BuildingBlock: XUDNAN_clean_linker_2, # of connection points: 2
#     Edge 14, Type (0, 1), BuildingBlock: XUDNAN_clean_linker_2, # of connection points: 2
#     Edge 15, Type (0, 1), BuildingBlock: XUDNAN_clean_linker_2, # of connection points: 2
#     Edge 16, Type (0, 1), BuildingBlock: XUDNAN_clean_linker_2, # of connection points: 2
#     Edge 17, Type (0, 1), BuildingBlock: XUDNAN_clean_linker_2, # of connection points: 2
#     Edge 18, Type (0, 1), BuildingBlock: XUDNAN_clean_linker_2, # of connection points: 2
#     Edge 19, Type (0, 1), BuildingBlock: XUDNAN_clean_linker_2, # of connection points: 2
#     Edge 20, Type (0, 1), BuildingBlock: XUDNAN_clean_linker_2, # of connection points: 2
#     Edge 21, Type (0, 1), BuildingBlock: XUDNAN_clean_linker_2, # of connection points: 2
#     Edge 22, Type (0, 1), BuildingBlock: XUDNAN_clean_linker_2, # of connection points: 2
#     Edge 23, Type (0, 1), BuildingBlock: XUDNAN_clean_linker_2, # of connection points: 2
#     Edge 24, Type (0, 1), BuildingBlock: XUDNAN_clean_linker_2, # of connection points: 2
#     Edge 25, Type (0, 1), BuildingBlock: XUDNAN_clean_linker_2, # of connection points: 2
#     Edge 26, Type (0, 1), BuildingBlock: XUDNAN_clean_linker_2, # of connection points: 2
# Relax obj value: 0.183
# Max RMSD: 0.197
# Mean RMSD: 0.159
data_MOF--net-anh--node1-PAMTOO_clean_sbu_0--node2-VETTIZ_charged_linker_0--edge1-XUDNAN_clean_linker_2
_symmetry_space_group_name_H-M    P1
_symmetry_Int_Tables_number       1
_symmetry_cell_setting            triclinic
loop_
_symmetry_equiv_pos_as_xyz
'x, y, z'
_cell_length_a     36.997994
_cell_length_b     35.055604
_cell_length_c     67.875292
_cell_angle_alpha  90.776535
_cell_angle_beta   94.829056
_cell_angle_gamma 105.46928
loop_
_atom_site_label
_atom_site_type_symbol
_atom_site_fract_x
_atom_site_fract_y
_atom_site_fract_z
_atom_type_partial_charge
Dy0 Dy 0.06141 0.59985 0.14271 0.0
Dy1 Dy 1.03095 0.50448 0.14587 0.0
C2 C 1.04243 0.54454 0.10477 0.0
O3 O 0.99767 0.58991 0.14603 0.0
O4 O 0.97543 0.52274 0.14011 0.0
O5 O 0.09053 0.65005 0.12676 0.0
O6 O 0.06686 0.65942 0.15394 0.0
O7 O 1.02744 0.5294 0.17587 0.0
O8 O 0.07349 0.58727 0.1743 0.0
O9 O 0.09587 0.51602 0.15107 0.0
O10 O 0.11557 0.57952 0.14035 0.0
O11 O 1.02336 0.44966 0.16149 0.0
O12 O 1.0028 0.44886 0.13061 0.0
C13 C 0.96864 0.5577 0.14289 0.0
O14 O 1.0357 0.57575 0.11278 0.0
O15 O 0.0506 0.51736 0.11594 0.0
C16 C 0.1213 0.70803 0.14617 0.0
C17 C 0.18535 0.77117 0.15819 0.0
C18 C 0.18701 0.73157 0.1594 0.0
C19 C 0.15518 0.70022 0.15349 0.0
C20 C 0.11979 0.74737 0.14462 0.0
C21 C 0.15141 0.77858 0.15054 0.0
C22 C 0.0872 0.67592 0.13999 0.0
C23 C 0.05131 0.56087 0.1845 0.0
C24 C 0.12361 0.5463 0.14598 0.0
C25 C 0.96695 0.39952 0.15006 0.0
C26 C 0.89894 0.34182 0.15601 0.0
C27 C 0.92351 0.36131 0.17224 0.0
C28 C 0.95715 0.38976 0.1693 0.0
C29 C 0.94229 0.38019 0.13389 0.0
C30 C 0.90871 0.35193 0.13681 0.0
C31 C 1.00313 0.42835 0.14648 0.0
H32 H 0.21258 0.7248 0.16535 0.0
H33 H 0.1569 0.66997 0.15477 0.0
H34 H 0.094 0.754 0.13887 0.0
H35 H 0.14925 0.80864 0.14908 0.0
H36 H 0.9172 0.35394 0.18723 0.0
H37 H 0.97562 0.40375 0.18211 0.0
H38 H 0.94907 0.38675 0.11887 0.0
H39 H 0.89033 0.33805 0.12395 0.0
Dy40 Dy 0.55202 0.01643 0.50457 0.0
Dy41 Dy 0.64571 0.04801 0.5143 0.0
C42 C 0.59163 0.02045 0.54959 0.0
O43 O 0.5616 0.08184 0.50947 0.0
O44 O 0.62648 0.10366 0.51015 0.0
O45 O 0.49435 0.00553 0.51184 0.0
O46 O 0.5063 0.98755 0.48297 0.0
O47 O 0.63327 0.03475 0.48185 0.0
O48 O 0.57509 0.04582 0.47764 0.0
O49 O 0.63203 0.9824 0.5195 0.0
O50 O 0.57482 0.9636 0.50095 0.0
O51 O 0.70129 0.04709 0.50707 0.0
O52 O 0.695 0.08694 0.53041 0.0
C53 C 0.59306 0.11053 0.5099 0.0
O54 O 0.56101 0.00977 0.53725 0.0
O55 O 0.62535 0.03642 0.54405 0.0
C56 C 0.45188 0.94782 0.4957 0.0
C57 C 0.39656 0.87422 0.49546 0.0
C58 C 0.41938 0.88988 0.51292 0.0
C59 C 0.44683 0.92629 0.51304 0.0
C60 C 0.42921 0.93228 0.47831 0.0
C61 C 0.40202 0.89591 0.47815 0.0
C62 C 0.48056 0.98623 0.49511 0.0
C63 C 0.60596 0.04258 0.47047 0.0
C64 C 0.60381 0.95474 0.51052 0.0
C65 C 0.74741 0.10914 0.5119 0.0
C66 C 0.80486 0.17134 0.4984 0.0
C67 C 0.77324 0.15173 0.48554 0.0
C68 C 0.74474 0.12095 0.49224 0.0
C69 C 0.77848 0.12906 0.5248 0.0
C70 C 0.80681 0.15984 0.51818 0.0
C71 C 0.71824 0.07653 0.51941 0.0
H72 H 0.41578 0.87425 0.52658 0.0
H73 H 0.46402 0.93751 0.52668 0.0
H74 H 0.43272 0.94824 0.46473 0.0
H75 H 0.38564 0.88455 0.46431 0.0
H76 H 0.77086 0.15956 0.4702 0.0
H77 H 0.72081 0.10621 0.48203 0.0
H78 H 0.78089 0.12074 0.54008 0.0
H79 H 0.83022 0.17474 0.52864 0.0
Dy80 Dy 0.5617 0.50505 0.83536 0.0
Dy81 Dy 0.47158 0.4873 0.82512 0.0
C82 C 0.52473 0.48961 0.79132 0.0
O83 O 0.5492 0.56281 0.84254 0.0
O84 O 0.49571 0.55274 0.82156 0.0
O85 O 0.61773 0.54113 0.83184 0.0
O86 O 0.60978 0.48801 0.84883 0.0
O87 O 0.48009 0.50314 0.85742 0.0
O88 O 0.53976 0.49634 0.86517 0.0
O89 O 0.47931 0.4282 0.83387 0.0
O90 O 0.54076 0.43973 0.82687 0.0
O91 O 0.41371 0.47328 0.83236 0.0
O92 O 0.42687 0.48459 0.80218 0.0
C93 C 0.52366 0.57673 0.83263 0.0
O94 O 0.55157 0.51347 0.80292 0.0
O95 O 0.49469 0.46813 0.79866 0.0
C96 C 0.66079 0.50232 0.82911 0.0
C97 C 0.71448 0.47768 0.80883 0.0
C98 C 0.69129 0.49863 0.79902 0.0
C99 C 0.66444 0.51062 0.80903 0.0
C100 C 0.6833 0.48056 0.83873 0.0
C101 C 0.70978 0.46821 0.82868 0.0
C102 C 0.63356 0.51563 0.84022 0.0
C103 C 0.50748 0.50011 0.87042 0.0
C104 C 0.50859 0.41507 0.83066 0.0
C105 C 0.38269 0.51433 0.81447 0.0
C106 C 0.35643 0.58195 0.81951 0.0
C107 C 0.38131 0.58082 0.80515 0.0
C108 C 0.39455 0.54747 0.80275 0.0
C109 C 0.35571 0.51437 0.82777 0.0
C110 C 0.34274 0.54787 0.83029 0.0
C111 C 0.40187 0.48238 0.81485 0.0
H112 H 0.69448 0.50637 0.78374 0.0
H113 H 0.64704 0.52688 0.80112 0.0
H114 H 0.68083 0.47369 0.85416 0.0
H115 H 0.72779 0.45279 0.83674 0.0
H116 H 0.39199 0.60636 0.79644 0.0
H117 H 0.41536 0.54848 0.79232 0.0
H118 H 0.34596 0.48918 0.83687 0.0
H119 H 0.32262 0.54741 0.84105 0.0
C120 C 0.64302 0.13054 0.19579 0.0
C121 C 0.67708 0.15669 0.20414 0.0
C122 C 0.68499 0.15879 0.22487 0.0
C123 C 0.62592 0.11027 0.22862 0.0
C124 C 0.61778 0.10775 0.20832 0.0
C125 C 0.58005 0.0786 0.20229 0.0
H126 H 0.41883 0.9553 0.23152 0.0
C127 C 0.5944 0.08317 0.23761 0.0
C128 C 0.56711 0.06441 0.22234 0.0
H129 H 0.44509 0.98077 0.17156 0.0
H130 H 0.50722 0.02229 0.18366 0.0
H131 H 0.49828 0.9413 0.24587 0.0
H132 H 0.45344 0.04202 0.25029 0.0
H133 H 0.47773 0.0384 0.27329 0.0
H134 H 0.43797 0.99829 0.26414 0.0
H135 H 0.46601 0.9447 0.26368 0.0
H136 H 0.51626 0.96452 0.26902 0.0
C137 C 0.58669 0.04475 0.18947 0.0
C138 C 0.55407 0.10135 0.19166 0.0
C139 C 0.60227 0.07217 0.31231 0.0
C140 C 0.57809 0.04946 0.32527 0.0
C141 C 0.54299 0.02485 0.31738 0.0
C142 C 0.53249 0.02243 0.29696 0.0
C143 C 0.5573 0.04483 0.28418 0.0
C144 C 0.59141 0.0693 0.29197 0.0
C145 C 0.61431 0.09081 0.27626 0.0
C146 C 0.58859 0.07472 0.25768 0.0
C147 C 0.55527 0.04795 0.2624 0.0
C148 C 0.6515 0.07815 0.27692 0.0
C149 C 0.61953 0.13586 0.27984 0.0
C150 C 0.43805 0.96976 0.221 0.0
C151 C 0.42717 0.9652 0.20064 0.0
C152 C 0.45304 0.98396 0.18735 0.0
C153 C 0.48889 0.00818 0.19441 0.0
C154 C 0.49898 0.01334 0.21497 0.0
C155 C 0.47381 0.9935 0.22779 0.0
C156 C 0.48915 1.00086 0.24907 0.0
C157 C 0.52734 0.02927 0.24711 0.0
C158 C 0.53318 0.03696 0.22713 0.0
C159 C 0.49246 0.96091 0.25753 0.0
C160 C 0.46328 0.0207 0.25994 0.0
H161 H 0.66779 0.13911 0.25266 0.0
H162 H 0.63601 0.12818 0.17992 0.0
H163 H 0.55649 0.12981 0.19981 0.0
H164 H 0.52404 0.08506 0.19087 0.0
H165 H 0.56189 0.1083 0.17641 0.0
H166 H 0.61237 0.03649 0.19548 0.0
H167 H 0.59063 0.05385 0.17401 0.0
H168 H 0.56358 0.01729 0.18931 0.0
H169 H 0.6292 0.09185 0.31786 0.0
H170 H 0.52394 0.00673 0.32696 0.0
H171 H 0.50554 1.00294 0.29191 0.0
H172 H 0.64676 0.04661 0.2809 0.0
H173 H 0.67307 0.09633 0.28811 0.0
H174 H 0.66336 0.07969 0.26246 0.0
H175 H 0.59502 0.14158 0.28662 0.0
H176 H 0.62102 0.15224 0.266 0.0
H177 H 0.64508 0.1493 0.28999 0.0
H178 H 0.71123 0.17775 0.23175 0.0
C179 C 0.65974 0.13594 0.23706 0.0
C180 C 0.6095 0.64538 0.53203 0.0
C181 C 0.61045 0.68124 0.54241 0.0
C182 C 0.61017 0.68062 0.56316 0.0
C183 C 0.60779 0.61073 0.56297 0.0
C184 C 0.60857 0.61054 0.54265 0.0
C185 C 0.60781 0.56954 0.53453 0.0
H186 H 0.61012 0.37828 0.55669 0.0
C187 C 0.60657 0.57057 0.5699 0.0
C188 C 0.6074 0.54592 0.5534 0.0
H189 H 0.60191 0.42277 0.49806 0.0
H190 H 0.60444 0.48819 0.51216 0.0
H191 H 0.66979 0.45497 0.57849 0.0
H192 H 0.54996 0.40997 0.57009 0.0
H193 H 0.55764 0.43562 0.59298 0.0
H194 H 0.57703 0.39403 0.58985 0.0
H195 H 0.64337 0.41279 0.59065 0.0
H196 H 0.65309 0.46231 0.60134 0.0
C197 C 0.64377 0.57256 0.52405 0.0
C198 C 0.57133 0.55369 0.52076 0.0
C199 C 0.58706 0.54031 0.64221 0.0
C200 C 0.58288 0.50507 0.65251 0.0
C201 C 0.59005 0.47202 0.6433 0.0
C202 C 0.59938 0.47317 0.62377 0.0
C203 C 0.60095 0.50755 0.61309 0.0
C204 C 0.59594 0.54077 0.62244 0.0
C205 C 0.59904 0.57456 0.60861 0.0
C206 C 0.60448 0.55521 0.5892 0.0
C207 C 0.60543 0.51604 0.59201 0.0
C208 C 0.63415 0.60843 0.61622 0.0
C209 C 0.56139 0.58625 0.60747 0.0
C210 C 0.60982 0.40221 0.54679 0.0
C211 C 0.60669 0.39536 0.52628 0.0
C212 C 0.60467 0.42724 0.51399 0.0
C213 C 0.60603 0.46516 0.52218 0.0
C214 C 0.60852 0.47115 0.54291 0.0
C215 C 0.61 0.43944 0.55465 0.0
C216 C 0.60853 0.44847 0.57607 0.0
C217 C 0.60727 0.49124 0.57568 0.0
C218 C 0.60768 0.50535 0.5563 0.0
C219 C 0.64539 0.44422 0.58739 0.0
C220 C 0.57167 0.42061 0.58277 0.0
H221 H 0.60844 0.64801 0.58908 0.0
H222 H 0.60974 0.64455 0.51609 0.0
H223 H 0.54673 0.55827 0.52788 0.0
H224 H 0.56508 0.5216 0.51743 0.0
H225 H 0.57309 0.56934 0.5066 0.0
H226 H 0.66911 0.58844 0.53383 0.0
H227 H 0.6432 0.58913 0.51023 0.0
H228 H 0.64745 0.54323 0.52024 0.0
H229 H 0.58169 0.56612 0.64904 0.0
H230 H 0.58731 0.44477 0.65111 0.0
H231 H 0.60388 0.4467 0.61762 0.0
H232 H 0.65457 0.59734 0.62596 0.0
H233 H 0.62618 0.63154 0.62489 0.0
H234 H 0.65046 0.62245 0.60402 0.0
H235 H 0.53708 0.55934 0.6063 0.0
H236 H 0.55705 0.60333 0.59438 0.0
H237 H 0.55949 0.60373 0.62094 0.0
H238 H 0.60993 0.70693 0.57163 0.0
C239 C 0.60897 0.64599 0.57337 0.0
C240 C 0.17016 0.69994 0.85395 0.0
C241 C 0.20155 0.71877 0.86706 0.0
C242 C 0.19695 0.72052 0.88746 0.0
C243 C 0.13382 0.67682 0.8816 0.0
C244 C 0.13697 0.67877 0.86148 0.0
C245 C 0.10379 0.65154 0.84958 0.0
H246 H 0.94619 0.50037 0.84697 0.0
C247 C 0.09889 0.64598 0.88467 0.0
C248 C 0.08123 0.63123 0.86591 0.0
H249 H 0.9943 0.56619 0.79778 0.0
H250 H 1.04434 0.60749 0.82017 0.0
H251 H 1.02591 0.49784 0.8716 0.0
H252 H 0.95142 0.57291 0.87332 0.0
H253 H 0.9684 0.56955 0.89797 0.0
H254 H 0.94122 0.5253 0.88419 0.0
H255 H 0.98061 0.48252 0.88105 0.0
H256 H 1.02224 0.50784 0.89665 0.0
C257 C 0.11814 0.62208 0.83711 0.0
C258 C 0.08275 0.67723 0.83725 0.0
C259 C 0.07119 0.59965 0.95405 0.0
C260 C 1.04369 0.56786 0.96085 0.0
C261 C 1.01538 0.54451 0.94723 0.0
C262 C 1.01488 0.55197 0.92705 0.0
C263 C 1.04323 0.58288 0.92031 0.0
C264 C 0.07057 0.60644 0.93371 0.0
C265 C 0.09926 0.63682 0.92359 0.0
C266 C 0.08417 0.62794 0.902 0.0
C267 C 0.05156 0.59608 0.90025 0.0
C268 C 0.13803 0.62816 0.92807 0.0
C269 C 0.098 0.67853 0.9307 0.0
C270 C 0.9682 0.52287 0.84096 0.0
C271 C 0.96702 0.52951 0.82058 0.0
C272 C 0.99512 0.56027 0.81342 0.0
C273 C 1.02382 0.58438 0.82646 0.0
C274 C 1.02414 0.57786 0.84689 0.0
C275 C 0.99654 0.54757 0.85379 0.0
C276 C 0.99964 0.54659 0.87597 0.0
C277 C 1.03371 0.58139 0.88131 0.0
C278 C 0.04822 0.59918 0.86425 0.0
C279 C 1.00724 0.50662 0.8818 0.0
C280 C 0.96331 0.55364 0.8834 0.0
H281 H 0.16195 0.70046 0.91053 0.0
H282 H 0.17252 0.69765 0.83821 0.0
H283 H 0.08626 0.70657 0.84476 0.0
H284 H 0.05194 0.66388 0.83536 0.0
H285 H 0.09353 0.68273 0.82247 0.0
H286 H 0.14078 0.61244 0.84582 0.0
H287 H 0.12988 0.63593 0.82359 0.0
H288 H 0.09631 0.59449 0.83262 0.0
H289 H 0.09347 0.61779 0.96422 0.0
H290 H 0.99371 0.52018 0.95222 0.0
H291 H 0.99273 0.53286 0.91746 0.0
H292 H 0.13485 0.59571 0.92844 0.0
H293 H 0.15177 0.64151 0.94265 0.0
H294 H 0.1575 0.63855 0.91664 0.0
H295 H 0.0685 0.67925 0.9323 0.0
H296 H 0.10853 0.70155 0.92006 0.0
H297 H 0.11436 0.68716 0.94531 0.0
H298 H 0.22045 0.73543 0.89788 0.0
C299 C 0.16314 0.69976 0.8948 0.0
C300 C 1.00783 0.42694 0.44979 0.0
C301 C 0.9779 0.39764 0.43988 0.0
C302 C 0.96849 0.4014 0.41956 0.0
C303 C 1.01962 0.46157 0.41921 0.0
C304 C 1.02812 0.45848 0.43926 0.0
C305 C 0.06089 0.49181 0.44761 0.0
H306 H 0.19695 0.65882 0.43228 0.0
C307 C 0.04707 0.49702 0.41256 0.0
C308 C 0.07127 0.51493 0.42923 0.0
H309 H 0.17402 0.60262 0.48785 0.0
H310 H 0.12293 0.55123 0.4711 0.0
H311 H 0.19018 0.58252 0.40766 0.0
H312 H 0.11089 0.64935 0.4165 0.0
H313 H 0.10504 0.63555 0.39124 0.0
H314 H 0.15 0.66575 0.40191 0.0
H315 H 0.19002 0.62616 0.39423 0.0
H316 H 0.16233 0.57761 0.38508 0.0
C317 C 0.09267 0.47388 0.45607 0.0
C318 C 0.0466 0.51601 0.46299 0.0
C319 C 1.04372 0.53334 0.33972 0.0
C320 C 0.06651 0.56447 0.32968 0.0
C321 C 0.09741 0.59123 0.34042 0.0
C322 C 0.10491 0.58811 0.36073 0.0
C323 C 0.08152 0.55771 0.37067 0.0
C324 C 0.05176 0.5306 0.36023 0.0
C325 C 1.03067 0.49988 0.37355 0.0
C326 C 0.0526 0.51346 0.3936 0.0
C327 C 0.08218 0.54746 0.39169 0.0
C328 C 1.03416 0.45892 0.36655 0.0
C329 C 0.98967 0.50303 0.37307 0.0
C330 C 0.18067 0.63579 0.44095 0.0
C331 C 0.18935 0.63512 0.46147 0.0
C332 C 0.168 0.60383 0.47201 0.0
C333 C 0.13823 0.57413 0.46226 0.0
C334 C 0.12976 0.57554 0.44171 0.0
C335 C 0.15107 0.60603 0.43148 0.0
C336 C 0.1388 0.60296 0.40975 0.0
C337 C 0.10614 0.56587 0.40854 0.0
C338 C 0.10084 0.54979 0.42724 0.0
C339 C 0.17193 0.59729 0.39846 0.0
C340 C 0.12568 0.64033 0.40437 0.0
H341 H 0.98092 0.43401 0.3937 0.0
H342 H 1.01542 0.42534 0.46546 0.0
H343 H 1.01769 0.51798 0.45812 0.0
H344 H 0.0638 0.54703 0.46494 0.0
H345 H 1.04557 0.50197 0.47758 0.0
H346 H 0.09459 0.44879 0.44637 0.0
H347 H 0.08735 0.46242 0.47104 0.0
H348 H 0.12082 0.4951 0.45686 0.0
H349 H 1.01985 0.51217 0.33191 0.0
H350 H 0.11609 0.61478 0.33306 0.0
H351 H 0.12869 0.60975 0.36788 0.0
H352 H 0.06295 0.46125 0.36215 0.0
H353 H 1.01382 0.44685 0.35353 0.0
H354 H 1.03005 0.43703 0.37824 0.0
H355 H 0.98887 0.5345 0.37245 0.0
H356 H 0.97602 0.492 0.3865 0.0
H357 H 0.97224 0.48682 0.35988 0.0
H358 H 0.94572 0.3792 0.41154 0.0
C359 C 0.98919 0.4331 0.40919 0.0
C360 C 0.51939 0.88766 0.81565 0.0
C361 C 0.51893 0.85089 0.80641 0.0
C362 C 0.51878 0.84863 0.78572 0.0
C363 C 0.52083 0.91817 0.78357 0.0
C364 C 0.51967 0.92089 0.80382 0.0
C365 C 0.51811 0.96219 0.81032 0.0
H366 H 0.52184 0.15186 0.78224 0.0
C367 C 0.52214 0.9573 0.77528 0.0
C368 C 0.52011 0.98371 0.79073 0.0
H369 H 0.50829 0.10729 0.8409 0.0
H370 H 0.51232 0.04271 0.82908 0.0
H371 H 0.58626 0.10885 0.77214 0.0
H372 H 0.46588 0.08017 0.7603 0.0
H373 H 0.48269 0.06406 0.73919 0.0
H374 H 0.49681 0.11604 0.74647 0.0
H375 H 0.56291 0.135 0.75501 0.0
H376 H 0.57546 0.09111 0.74745 0.0
C377 C 0.55257 0.98067 0.82508 0.0
C378 C 0.48021 0.95844 0.81907 0.0
C379 C 0.54318 0.97539 0.70259 0.0
C380 C 0.5466 0.00771 0.69023 0.0
C381 C 0.5416 0.04336 0.69782 0.0
C382 C 0.53473 0.04717 0.7177 0.0
C383 C 0.53253 0.01488 0.7301 0.0
C384 C 0.53593 0.97954 0.72231 0.0
C385 C 0.53149 0.94793 0.73732 0.0
C386 C 0.52624 0.97047 0.75569 0.0
C387 C 0.52712 0.00966 0.75142 0.0
C388 C 0.56855 0.935 0.73955 0.0
C389 C 0.49567 0.91426 0.7304 0.0
C390 C 0.52026 0.12854 0.79271 0.0
C391 C 0.51507 0.13519 0.81259 0.0
C392 C 0.51217 0.1032 0.82546 0.0
C393 C 0.51446 0.06564 0.81858 0.0
C394 C 0.51915 0.05949 0.7985 0.0
C395 C 0.52191 0.09098 0.78605 0.0
C396 C 0.52572 0.07983 0.7651 0.0
C397 C 0.52463 0.0365 0.76677 0.0
C398 C 0.52106 0.02407 0.78639 0.0
C399 C 0.56441 0.10503 0.75942 0.0
C400 C 0.49127 0.08548 0.75194 0.0
H401 H 0.52036 0.87758 0.75877 0.0
H402 H 0.51914 0.89027 0.83155 0.0
H403 H 0.45673 0.93861 0.80941 0.0
H404 H 0.47326 0.98702 0.8202 0.0
H405 H 0.48037 0.94573 0.83398 0.0
H406 H 0.5788 0.97778 0.81906 0.0
H407 H 0.55003 0.96553 0.83937 0.0
H408 H 0.55632 0.01257 0.82804 0.0
H409 H 0.54632 0.94744 0.69704 0.0
H410 H 0.54421 0.06868 0.68854 0.0
H411 H 0.53197 0.07535 0.72268 0.0
H412 H 0.59343 0.96111 0.73935 0.0
H413 H 0.56957 0.91424 0.72723 0.0
H414 H 0.57294 0.92108 0.7537 0.0
H415 H 0.47582 0.92495 0.72006 0.0
H416 H 0.47892 0.90233 0.74281 0.0
H417 H 0.50293 0.88963 0.72259 0.0
H418 H 0.51879 0.82112 0.77823 0.0
C419 C 0.51985 0.88174 0.77437 0.0
C420 C 0.65609 0.55236 0.13862 0.0
C421 C 0.68631 0.54532 0.12773 0.0
C422 C 0.67613 0.53369 0.10767 0.0
C423 C 0.61118 0.53835 0.1089 0.0
C424 C 0.61817 0.54775 0.12889 0.0
C425 C 0.58036 0.55085 0.13689 0.0
H426 H 0.39054 0.55656 0.10616 0.0
C427 C 0.57157 0.53866 0.10191 0.0
C428 C 0.55155 0.54526 0.1181 0.0
H429 H 0.42703 0.54292 0.16688 0.0
H430 H 0.49069 0.54392 0.15731 0.0
H431 H 0.46617 0.61736 0.09442 0.0
H432 H 0.41829 0.49201 0.09149 0.0
H433 H 0.44135 0.50072 0.06997 0.0
H434 H 0.4042 0.52376 0.07369 0.0
H435 H 0.42885 0.59277 0.0763 0.0
H436 H 0.47782 0.60197 0.0717 0.0
C437 C 0.58569 0.59157 0.14708 0.0
C438 C 0.56758 0.51746 0.15126 0.0
C439 C 0.53598 0.52244 0.02717 0.0
C440 C 0.50412 0.5259 0.01513 0.0
C441 C 0.47598 0.53836 0.02411 0.0
C442 C 0.47829 0.54498 0.04458 0.0
C443 C 0.50917 0.53933 0.05659 0.0
C444 C 0.53787 0.52953 0.04777 0.0
C445 C 0.56962 0.52765 0.06277 0.0
C446 C 0.55452 0.53638 0.08216 0.0
C447 C 0.51873 0.54226 0.07841 0.0
C448 C 0.60494 0.56066 0.05809 0.0
C449 C 0.57401 0.48484 0.06181 0.0
C450 C 0.41182 0.55465 0.11779 0.0
C451 C 0.40213 0.5503 0.1374 0.0
C452 C 0.43223 0.54643 0.15147 0.0
C453 C 0.46951 0.547 0.14597 0.0
C454 C 0.47794 0.5505 0.12595 0.0
C455 C 0.44817 0.55367 0.11255 0.0
C456 C 0.45771 0.55237 0.09176 0.0
C457 C 0.49735 0.54729 0.09421 0.0
C458 C 0.51185 0.54762 0.11434 0.0
C459 C 0.4574 0.59296 0.0829 0.0
C460 C 0.42899 0.51567 0.081 0.0
H461 H 0.63603 0.52177 0.08313 0.0
H462 H 0.6617 0.56076 0.1542 0.0
H463 H 0.56388 0.48811 0.14375 0.0
H464 H 0.54043 0.51801 0.15679 0.0
H465 H 0.58885 0.52053 0.16417 0.0
H466 H 0.59541 0.6155 0.13661 0.0
H467 H 0.60698 0.59603 0.16006 0.0
H468 H 0.5587 0.59419 0.15223 0.0
H469 H 0.55848 0.5135 0.02083 0.0
H470 H 0.45177 0.54282 0.01528 0.0
H471 H 0.4553 0.55354 0.05017 0.0
H472 H 0.59718 0.58481 0.0497 0.0
H473 H 0.62338 0.54873 0.04905 0.0
H474 H 0.62169 0.57597 0.07158 0.0
H475 H 0.54624 0.46283 0.05827 0.0
H476 H 0.58501 0.47568 0.07612 0.0
H477 H 0.59244 0.48127 0.05021 0.0
H478 H 0.69696 0.52822 0.09851 0.0
C479 C 0.63993 0.53033 0.09849 0.0
H480 H 0.18788 0.58745 0.12596 0.0
H481 H 0.1558 0.49692 0.16883 0.0
H482 H 0.22083 0.49011 0.17212 0.0
H483 H 0.25036 0.53905 0.10175 0.0
H484 H 0.28444 0.58463 0.0971 0.0
H485 H 0.23586 0.58394 0.09861 0.0
H486 H 0.2561 0.63938 0.1259 0.0
H487 H 0.30474 0.64015 0.12449 0.0
H488 H 0.28441 0.63253 0.14782 0.0
H489 H 0.29347 0.49442 0.17172 0.0
H490 H 0.36006 0.50426 0.16519 0.0
H491 H 0.34708 0.58825 0.12065 0.0
C492 C 0.19437 0.5662 0.13614 0.0
C493 C 0.16516 0.54294 0.14727 0.0
C494 C 0.17629 0.51536 0.16005 0.0
C495 C 0.2138 0.51131 0.16209 0.0
C496 C 0.24153 0.53444 0.15103 0.0
C497 C 0.23206 0.56104 0.13803 0.0
C498 C 0.267 0.58099 0.12721 0.0
C499 C 0.25893 0.57161 0.10483 0.0
C500 C 0.27875 0.62594 0.13161 0.0
C501 C 0.29753 0.56186 0.13614 0.0
C502 C 0.28225 0.53541 0.15008 0.0
C503 C 0.30514 0.51499 0.16068 0.0
C504 C 0.34368 0.52106 0.15692 0.0
C505 C 0.36061 0.54709 0.14232 0.0
C506 C 0.33623 0.56774 0.13187 0.0
H507 H 0.80048 0.23039 0.47226 0.0
H508 H 0.88061 0.18387 0.5082 0.0
H509 H 0.93274 0.23682 0.49748 0.0
H510 H 0.85783 0.25676 0.43119 0.0
H511 H 0.84338 0.30117 0.42627 0.0
H512 H 0.81197 0.25984 0.43694 0.0
H513 H 0.80661 0.30544 0.46628 0.0
H514 H 0.83807 0.34688 0.45573 0.0
H515 H 0.8488 0.33343 0.48065 0.0
H516 H 0.97638 0.29497 0.48333 0.0
H517 H 1.0089 0.35352 0.4657 0.0
H518 H 0.90133 0.36206 0.43807 0.0
C519 C 0.82899 0.23108 0.47775 0.0
C520 C 0.83623 0.20299 0.49128 0.0
C521 C 0.87408 0.20538 0.49819 0.0
C522 C 0.904 0.23524 0.49207 0.0
C523 C 0.89584 0.26254 0.47891 0.0
C524 C 0.85933 0.2607 0.47172 0.0
C525 C 0.8585 0.29376 0.4576 0.0
C526 C 0.84194 0.27686 0.43676 0.0
C527 C 0.83671 0.32152 0.46555 0.0
C528 C 0.90024 0.31437 0.45798 0.0
C529 C 0.9212 0.29592 0.47046 0.0
C530 C 0.96027 0.30967 0.47351 0.0
C531 C 0.97848 0.34312 0.46352 0.0
C532 C 0.95773 0.36251 0.45054 0.0
C533 C 0.91803 0.34773 0.44775 0.0
H534 H 0.47496 0.61653 0.81479 0.0
H535 H 0.57944 0.63632 0.85249 0.0
H536 H 0.58578 0.70835 0.85316 0.0
H537 H 0.50216 0.69771 0.78511 0.0
H538 H 0.45754 0.70961 0.78326 0.0
H539 H 0.45923 0.65957 0.78751 0.0
H540 H 0.42512 0.65913 0.81978 0.0
H541 H 0.42191 0.70838 0.81442 0.0
H542 H 0.44313 0.69865 0.83805 0.0
H543 H 0.58233 0.7799 0.84818 0.0
H544 H 0.57191 0.84275 0.83574 0.0
H545 H 0.47068 0.77626 0.80091 0.0
C546 C 0.49905 0.63588 0.82336 0.0
C547 C 0.52672 0.62034 0.83359 0.0
C548 C 0.55776 0.64712 0.84454 0.0
C549 C 0.56155 0.68824 0.84507 0.0
C550 C 0.53394 0.70255 0.83472 0.0
C551 C 0.50322 0.67707 0.8241 0.0
C552 C 0.47838 0.70002 0.81348 0.0
C553 C 0.47411 0.69121 0.79101 0.0
C554 C 0.43984 0.69105 0.82192 0.0
C555 C 0.50095 0.7424 0.81882 0.0
C556 C 0.53234 0.74335 0.83159 0.0
C557 C 0.55764 0.77934 0.8383 0.0
C558 C 0.55135 0.81501 0.83132 0.0
C559 C 0.52033 0.81457 0.81752 0.0
C560 C 0.49446 0.77764 0.81162 0.0
H561 H 0.89729 0.50507 0.12764 0.0
H562 H 0.94381 0.61865 0.15868 0.0
H563 H 0.87949 0.62611 0.16027 0.0
H564 H 0.82283 0.53514 0.09781 0.0
H565 H 0.78853 0.48785 0.0984 0.0
H566 H 0.83805 0.49057 0.10043 0.0
H567 H 0.83098 0.45394 0.13322 0.0
H568 H 0.78147 0.45133 0.13133 0.0
H569 H 0.81119 0.47352 0.15317 0.0
H570 H 0.80548 0.6206 0.15903 0.0
H571 H 0.73605 0.60613 0.15189 0.0
H572 H 0.73588 0.49814 0.12008 0.0
C573 C 0.89419 0.53158 0.13486 0.0
C574 C 0.92727 0.56118 0.14316 0.0
C575 C 0.92028 0.59524 0.15214 0.0
C576 C 0.88321 0.59974 0.15319 0.0
C577 C 0.85159 0.57028 0.14496 0.0
C578 C 0.85689 0.53697 0.13571 0.0
C579 C 0.81819 0.51044 0.12724 0.0
C580 C 0.81683 0.50571 0.10463 0.0
C581 C 0.80998 0.46989 0.1368 0.0
C582 C 0.7904 0.53366 0.13314 0.0
C583 C 0.81017 0.56797 0.14361 0.0
C584 C 0.79027 0.59372 0.15074 0.0
C585 C 0.75016 0.58501 0.14677 0.0
C586 C 0.72875 0.5508 0.13539 0.0
C587 C 0.75017 0.52477 0.1288 0.0
H588 H 0.32623 0.85336 0.47505 0.0
H589 H 0.40091 0.8066 0.5147 0.0
H590 H 0.35377 0.74144 0.51258 0.0
H591 H 0.23773 0.79689 0.49227 0.0
H592 H 0.21362 0.78948 0.46774 0.0
H593 H 0.25179 0.83321 0.47387 0.0
H594 H 0.28619 0.81654 0.44452 0.0
H595 H 0.24816 0.77283 0.43831 0.0
H596 H 0.29567 0.7688 0.44289 0.0
H597 H 0.29949 0.67976 0.50431 0.0
H598 H 0.24412 0.62731 0.48996 0.0
H599 H 0.20625 0.71483 0.45538 0.0
C600 C 0.33282 0.82952 0.48332 0.0
C601 C 0.36743 0.83534 0.49508 0.0
C602 C 0.37445 0.80324 0.50584 0.0
C603 C 0.34788 0.766 0.50466 0.0
C604 C 0.31433 0.76124 0.49269 0.0
C605 C 0.30678 0.79221 0.48223 0.0
C606 C 0.26958 0.77908 0.46962 0.0
C607 C 0.24152 0.80097 0.47628 0.0
C608 C 0.27526 0.78464 0.44753 0.0
C609 C 0.25763 0.73568 0.47431 0.0
C610 C 0.28354 0.72593 0.48779 0.0
C611 C 0.27889 0.68718 0.49387 0.0
C612 C 0.24726 0.6576 0.48572 0.0
C613 C 0.22085 0.66689 0.47152 0.0
C614 C 0.22604 0.70665 0.46606 0.0
H615 H 0.55247 0.3728 0.81371 0.0
H616 H 0.45602 0.35806 0.84788 0.0
H617 H 0.44927 0.28603 0.84845 0.0
H618 H 0.51438 0.28389 0.78333 0.0
H619 H 0.55898 0.27263 0.78232 0.0
H620 H 0.55748 0.32326 0.78546 0.0
H621 H 0.60291 0.33132 0.81733 0.0
H622 H 0.60446 0.28065 0.81431 0.0
H623 H 0.59086 0.29756 0.83704 0.0
H624 H 0.4531 0.21472 0.84543 0.0
H625 H 0.46391 0.15016 0.83671 0.0
H626 H 0.5562 0.21026 0.80335 0.0
C627 C 0.53008 0.35448 0.82144 0.0
C628 C 0.5049 0.37143 0.83087 0.0
C629 C 0.47568 0.34606 0.84053 0.0
C630 C 0.4717 0.305 0.841 0.0
C631 C 0.49689 0.28927 0.83156 0.0
C632 C 0.52532 0.3132 0.82179 0.0
C633 C 0.54752 0.28852 0.81204 0.0
C634 C 0.54439 0.2923 0.78945 0.0
C635 C 0.58889 0.30022 0.8207 0.0
C636 C 0.52715 0.24704 0.81782 0.0
C637 C 0.49831 0.24818 0.82928 0.0
C638 C 0.47564 0.21359 0.83645 0.0
C639 C 0.48217 0.17695 0.83153 0.0
C640 C 0.5109 0.17477 0.81933 0.0
C641 C 0.53381 0.21063 0.81258 0.0
H642 H 0.64419 0.91748 0.53679 0.0
H643 H 0.56283 0.89435 0.48521 0.0
H644 H 0.55949 0.82322 0.48611 0.0
H645 H 0.69284 0.84241 0.5248 0.0
H646 H 0.6986 0.82876 0.55014 0.0
H647 H 0.69692 0.87845 0.54464 0.0
H648 H 0.64188 0.8718 0.56666 0.0
H649 H 0.64344 0.82218 0.57225 0.0
H650 H 0.60012 0.83116 0.56189 0.0
H651 H 0.56295 0.7531 0.49331 0.0
H652 H 0.57018 0.69062 0.50752 0.0
H653 H 0.64879 0.7584 0.55453 0.0
C654 C 0.62614 0.89756 0.5255 0.0
C655 C 0.60401 0.91196 0.51082 0.0
C656 C 0.58017 0.88444 0.4966 0.0
C657 C 0.57813 0.84379 0.49694 0.0
C658 C 0.59996 0.83052 0.51166 0.0
C659 C 0.62343 0.85657 0.52574 0.0
C660 C 0.64222 0.8342 0.54064 0.0
C661 C 0.6852 0.84671 0.54001 0.0
C662 C 0.63125 0.84019 0.5616 0.0
C663 C 0.62539 0.79164 0.53286 0.0
C664 C 0.60138 0.79016 0.516 0.0
C665 C 0.58189 0.75402 0.50646 0.0
C666 C 0.5864 0.71853 0.51457 0.0
C667 C 0.60998 0.7191 0.53221 0.0
C668 C 0.63022 0.75652 0.54114 0.0
H669 H 0.76646 0.53086 0.79037 0.0
H670 H 0.73679 0.40925 0.80819 0.0
H671 H 0.8 0.40403 0.80197 0.0
H672 H 0.84183 0.51988 0.75421 0.0
H673 H 0.87039 0.56847 0.76251 0.0
H674 H 0.81973 0.55801 0.76027 0.0
H675 H 0.8221 0.58167 0.79677 0.0
H676 H 0.87224 0.59185 0.79916 0.0
H677 H 0.84506 0.55876 0.81589 0.0
H678 H 0.86837 0.41796 0.80495 0.0
H679 H 0.93445 0.44971 0.81703 0.0
H680 H 0.92205 0.5626 0.79715 0.0
C681 C 0.77266 0.50248 0.79174 0.0
C682 C 0.74691 0.4704 0.79958 0.0
C683 C 0.75622 0.43408 0.80207 0.0
C684 C 0.79199 0.43082 0.79842 0.0
C685 C 0.818 0.46405 0.79214 0.0
C686 C 0.8085 0.4991 0.78843 0.0
C687 C 0.84313 0.53277 0.78603 0.0
C688 C 0.84381 0.54552 0.76447 0.0
C689 C 0.84576 0.56826 0.80033 0.0
C690 C 0.87373 0.51241 0.79135 0.0
C691 C 0.85869 0.47233 0.79391 0.0
C692 C 0.88064 0.44888 0.80227 0.0
C693 C 0.91813 0.46712 0.80916 0.0
C694 C 0.93317 0.50842 0.80774 0.0
C695 C 0.91139 0.53076 0.79773 0.0
H696 H 0.26105 0.78188 0.15318 0.0
H697 H 0.1839 0.83654 0.18011 0.0
H698 H 0.23697 0.89318 0.19199 0.0
H699 H 0.3366 0.81135 0.19204 0.0
H700 H 0.37346 0.82045 0.17555 0.0
H701 H 0.32928 0.78438 0.16859 0.0
H702 H 0.32167 0.82095 0.13625 0.0
H703 H 0.36572 0.8573 0.14318 0.0
H704 H 0.32342 0.87282 0.13757 0.0
H705 H 0.29773 0.94267 0.20207 0.0
H706 H 0.36355 0.98212 0.21015 0.0
H707 H 0.40271 0.89736 0.17657 0.0
C708 C 0.25537 0.80573 0.16163 0.0
C709 C 0.21811 0.80482 0.16553 0.0
C710 C 0.21197 0.83677 0.17658 0.0
C711 C 0.24199 0.86907 0.18349 0.0
C712 C 0.27818 0.86923 0.17924 0.0
C713 C 0.28514 0.83847 0.1686 0.0
C714 C 0.32702 0.84604 0.16643 0.0
C715 C 0.3425 0.81363 0.17624 0.0
C716 C 0.33491 0.84948 0.14456 0.0
C717 C 0.34242 0.88564 0.17767 0.0
C718 C 0.31359 0.89836 0.18489 0.0
C719 C 0.32052 0.93321 0.19638 0.0
C720 C 0.35792 0.95542 0.20087 0.0
C721 C 0.38799 0.94295 0.19381 0.0
C722 C 0.38011 0.90785 0.18184 0.0
H723 H 0.64238 0.17865 0.5275 0.0
H724 H 0.53745 0.13712 0.49033 0.0
H725 H 0.53247 0.20593 0.48809 0.0
H726 H 0.61183 0.25044 0.55539 0.0
H727 H 0.65731 0.28612 0.55796 0.0
H728 H 0.65409 0.23411 0.55535 0.0
H729 H 0.69352 0.24769 0.52518 0.0
H730 H 0.69661 0.29975 0.52762 0.0
H731 H 0.67807 0.27298 0.50451 0.0
H732 H 0.53914 0.28027 0.48971 0.0
H733 H 0.55239 0.35173 0.49869 0.0
H734 H 0.65037 0.34474 0.53674 0.0
C735 C 0.61853 0.18413 0.51876 0.0
C736 C 0.59043 0.15234 0.50895 0.0
C737 C 0.55931 0.16081 0.49799 0.0
C738 C 0.55636 0.19992 0.49653 0.0
C739 C 0.58446 0.23056 0.50637 0.0
C740 C 0.61466 0.22303 0.51755 0.0
C741 C 0.63948 0.26093 0.52787 0.0
C742 C 0.64074 0.2577 0.55048 0.0
C743 C 0.67928 0.27092 0.52087 0.0
C744 C 0.61858 0.29088 0.52078 0.0
C745 C 0.58727 0.2729 0.50809 0.0
C746 C 0.56359 0.29457 0.49965 0.0
C747 C 0.5715 0.3353 0.5047 0.0
C748 C 0.60248 0.35407 0.51833 0.0
C749 C 0.62652 0.33138 0.52621 0.0
H750 H 0.35174 0.6128 0.85585 0.0
H751 H 0.33714 0.63411 0.79334 0.0
H752 H 0.31238 0.6908 0.80123 0.0
H753 H 0.26875 0.61996 0.86651 0.0
H754 H 0.2831 0.64329 0.89081 0.0
H755 H 0.31036 0.61408 0.8806 0.0
H756 H 0.36956 0.67414 0.88568 0.0
H757 H 0.34184 0.70385 0.89558 0.0
H758 H 0.36869 0.72061 0.87489 0.0
H759 H 0.27584 0.73331 0.81492 0.0
H760 H 0.22569 0.75044 0.8319 0.0
H761 H 0.26205 0.69996 0.88543 0.0
C762 C 0.34406 0.62997 0.84385 0.0
C763 C 0.34595 0.61889 0.824 0.0
C764 C 0.33608 0.64223 0.80868 0.0
C765 C 0.32226 0.67469 0.81306 0.0
C766 C 0.31905 0.68374 0.83283 0.0
C767 C 0.32996 0.66206 0.84799 0.0
C768 C 0.31738 0.67242 0.86751 0.0
C769 C 0.29346 0.63526 0.87686 0.0
C770 C 0.3514 0.69405 0.88175 0.0
C771 C 0.29427 0.70024 0.86064 0.0
C772 C 0.29711 0.70803 0.8408 0.0
C773 C 0.27405 0.72815 0.83054 0.0
C774 C 0.24552 0.73773 0.84031 0.0
C775 C 0.23964 0.72608 0.85995 0.0
C776 C 0.26622 0.71002 0.87059 0.0
H777 H 0.84939 0.34025 0.18443 0.0
H778 H 0.86884 0.27182 0.13454 0.0
H779 H 0.8111 0.21958 0.13953 0.0
H780 H 0.81788 0.25853 0.21482 0.0
H781 H 0.78309 0.27813 0.22532 0.0
H782 H 0.82443 0.31132 0.21688 0.0
H783 H 0.78226 0.34375 0.19404 0.0
H784 H 0.74073 0.31047 0.20235 0.0
H785 H 0.74703 0.31321 0.17631 0.0
H786 H 0.75254 0.17276 0.15111 0.0
H787 H 0.70005 0.13468 0.16922 0.0
H788 H 0.71891 0.23384 0.21131 0.0
C789 C 0.8416 0.3143 0.17454 0.0
C790 C 0.86372 0.31046 0.15899 0.0
C791 C 0.85214 0.27599 0.14633 0.0
C792 C 0.81939 0.24599 0.14909 0.0
C793 C 0.7983 0.25076 0.16455 0.0
C794 C 0.80899 0.28405 0.17708 0.0
C795 C 0.78228 0.28127 0.19306 0.0
C796 C 0.80317 0.28237 0.21374 0.0
C797 C 0.76187 0.31413 0.19133 0.0
C798 C 0.75537 0.24089 0.18782 0.0
C799 C 0.7648 0.22386 0.17122 0.0
C800 C 0.74471 0.18597 0.16403 0.0
C801 C 0.71475 0.16463 0.17433 0.0
C802 C 0.70531 0.18112 0.19172 0.0
C803 C 0.72554 0.22015 0.19818 0.0
H804 H 1.0451 0.6023 0.07755 0.0
H805 H 1.04008 0.47774 0.08305 0.0
H806 H 1.04111 0.47078 0.0469 0.0
H807 H 0.98635 0.59238 0.03185 0.0
H808 H 1.01374 0.63752 0.02216 0.0
H809 H 1.01236 0.63274 0.04849 0.0
H810 H 0.08522 0.64945 0.05284 0.0
H811 H 0.08682 0.65413 0.02651 0.0
H812 H 0.10901 0.62039 0.03927 0.0
H813 H 1.04105 0.47667 0.01036 0.0
H814 H 1.04135 0.49553 0.97543 0.0
H815 H 0.04877 0.61673 -0.00649 0.0
C816 C 1.04404 0.57352 0.07114 0.0
C817 C 1.04235 0.5405 0.08309 0.0
C818 C 1.04142 0.50345 0.07417 0.0
C819 C 1.04198 0.49918 0.05366 0.0
C820 C 1.04382 0.53233 0.04232 0.0
C821 C 1.04501 0.56883 0.0507 0.0
C822 C 0.04735 0.59976 0.03512 0.0
C823 C 1.01289 0.61658 0.03436 0.0
C824 C 0.0843 0.63289 0.03865 0.0
C825 C 0.04692 0.57481 0.01666 0.0
C826 C 1.04477 0.53598 0.02118 0.0
C827 C 1.04289 0.507 0.00662 0.0
C828 C 1.04296 0.51793 0.98686 0.0
C829 C 1.04511 0.55752 0.98188 0.0
C830 C 0.0475 0.58637 -0.003 0.0
H831 H 0.55139 0.04654 0.44102 0.0
H832 H 0.66903 0.04713 0.45129 0.0
H833 H 0.67499 0.05084 0.41542 0.0
H834 H 0.53101 0.98525 0.39716 0.0
H835 H 0.49994 0.01122 0.38501 0.0
H836 H 0.50521 0.01061 0.41161 0.0
H837 H 0.52414 0.08735 0.41366 0.0
H838 H 0.51877 0.08821 0.38705 0.0
H839 H 0.56269 0.11447 0.40049 0.0
H840 H 0.66776 0.05205 0.37847 0.0
H841 H 0.64785 0.05085 0.34282 0.0
H842 H 0.53507 0.0501 0.35644 0.0
C843 C 0.57853 0.04783 0.43576 0.0
C844 C 0.60976 0.04656 0.44901 0.0
C845 C 0.64467 0.04796 0.44147 0.0
C846 C 0.64836 0.05015 0.4211 0.0
C847 C 0.61693 0.05091 0.40846 0.0
C848 C 0.58269 0.04987 0.41546 0.0
C849 C 0.55307 0.04996 0.39864 0.0
C850 C 0.52039 0.012 0.39808 0.0
C851 C 0.53884 0.08722 0.40005 0.0
C852 C 0.57595 0.05085 0.38107 0.0
C853 C 0.61274 0.05156 0.38709 0.0
C854 C 0.6391 0.05183 0.37357 0.0
C855 C 0.62755 0.05136 0.35335 0.0
C856 C 0.58995 0.05061 0.34679 0.0
C857 C 0.56392 0.05039 0.36094 0.0
H858 H 0.58015 0.53375 0.76965 0.0
H859 H 0.47549 0.43988 0.76406 0.0
H860 H 0.47844 0.43604 0.72807 0.0
H861 H 0.56157 0.5822 0.72465 0.0
H862 H 0.6096 0.59414 0.71838 0.0
H863 H 0.5997 0.59 0.74393 0.0
H864 H 0.63725 0.53756 0.74854 0.0
H865 H 0.6475 0.54176 0.72306 0.0
H866 H 0.62504 0.49409 0.73227 0.0
H867 H 0.4926 0.44077 0.69313 0.0
H868 H 0.51806 0.45355 0.66068 0.0
H869 H 0.61283 0.54542 0.68789 0.0
C870 C 0.55789 0.51238 0.76085 0.0
C871 C 0.52756 0.48712 0.76973 0.0
C872 C 0.49899 0.45958 0.75767 0.0
C873 C 0.50035 0.45718 0.73717 0.0
C874 C 0.53038 0.4826 0.72888 0.0
C875 C 0.55869 0.50966 0.74026 0.0
C876 C 0.58793 0.5332 0.72747 0.0
C877 C 0.58979 0.57752 0.72868 0.0
C878 C 0.62673 0.52622 0.73318 0.0
C879 C 0.57161 0.51492 0.70716 0.0
C880 C 0.53838 0.48578 0.70843 0.0
C881 C 0.51846 0.46364 0.6919 0.0
C882 C 0.53309 0.47107 0.67358 0.0
C883 C 0.56716 0.50051 0.67189 0.0
C884 C 0.58646 0.5231 0.68884 0.0
H885 H 0.53689 0.03045 0.57262 0.0
H886 H 0.64062 0.99465 0.57438 0.0
H887 H 0.63851 0.98463 0.61025 0.0
H888 H 0.5604 0.08662 0.61833 0.0
H889 H 0.51314 0.07358 0.62576 0.0
H890 H 0.52067 0.07459 0.59988 0.0
H891 H 0.48011 1.0019 0.59487 0.0
H892 H 0.47232 1.0007 0.62073 0.0
H893 H 0.49192 0.96427 0.60996 0.0
H894 H 0.62588 0.97915 0.6457 0.0
H895 H 0.60568 0.98272 0.67929 0.0
H896 H 0.51245 0.02643 0.65544 0.0
C897 C 0.55878 0.01995 0.58057 0.0
C898 C 0.58878 0.01298 0.57081 0.0
C899 C 0.61744 1.00014 0.58167 0.0
C900 C 0.6164 0.99423 0.602 0.0
C901 C 0.58678 1.00184 0.61129 0.0
C902 C 0.55863 0.01474 0.60103 0.0
C903 C 0.53143 0.02324 0.61493 0.0
C904 C 0.53143 0.06712 0.61471 0.0
C905 C 0.49158 0.99589 0.60981 0.0
C906 C 0.54881 0.01324 0.63456 0.0
C907 C 0.58041 1.00042 0.63203 0.0
C908 C 0.60119 0.98914 0.64789 0.0
C909 C 0.58947 0.99115 0.66687 0.0
C910 C 0.55759 0.00484 0.66989 0.0
C911 C 0.53705 0.01607 0.65351 0.0
H912 H 0.55948 0.52465 0.90289 0.0
H913 H 0.4402 0.47466 0.88585 0.0
H914 H 0.42767 0.4726 0.92095 0.0
H915 H 0.56511 0.47082 0.94802 0.0
H916 H 0.59696 0.5124 0.9618 0.0
H917 H 0.59742 0.50813 0.93534 0.0
H918 H 0.58637 0.57775 0.9319 0.0
H919 H 0.58607 0.5823 0.95834 0.0
H920 H 0.54663 0.58812 0.94234 0.0
H921 H 0.4276 0.47486 0.95741 0.0
H922 H 0.43876 0.48725 -0.00661 0.0
H923 H 0.55754 0.54061 0.98767 0.0
C924 C 0.53081 0.51303 0.90661 0.0
C925 C 0.50079 0.4996 0.89164 0.0
C926 C 0.46358 0.4852 0.89705 0.0
C927 C 0.45619 0.4837 0.91696 0.0
C928 C 0.48626 0.49715 0.93134 0.0
C929 C 0.52278 0.51202 0.9265 0.0
C930 C 0.54945 0.52667 0.94497 0.0
C931 C 0.57898 0.50309 0.94769 0.0
C932 C 0.56823 0.57136 0.94434 0.0
C933 C 0.52213 0.51768 0.96088 0.0
C934 C 0.48596 0.50021 0.9526 0.0
C935 C 0.45573 0.48893 0.96407 0.0
C936 C 0.46238 0.49642 0.98453 0.0
C937 C 0.49891 0.51568 -0.00654 0.0
C938 C 0.5293 0.52581 0.9814 0.0
H939 H 1.03766 0.50603 0.21358 0.0
H940 H 0.06703 0.6323 0.20397 0.0
H941 H 0.0679 0.64583 0.23978 0.0
H942 H 0.97911 0.50607 0.25445 0.0
H943 H 0.99657 0.46979 0.26798 0.0
H944 H 0.99494 0.46932 0.24136 0.0
H945 H 0.06619 0.47386 0.24329 0.0
H946 H 0.06796 0.47403 0.26988 0.0
H947 H 0.09908 0.51355 0.25785 0.0
H948 H 0.06608 0.6462 0.27614 0.0
H949 H 0.06958 0.63424 0.31177 0.0
H950 H 1.04623 0.50786 0.29892 0.0
C951 C 1.04389 0.53646 0.21907 0.0
C952 C 0.05203 0.56818 0.20604 0.0
C953 C 0.06079 0.60763 0.21372 0.0
C954 C 0.06107 0.61559 0.234 0.0
C955 C 0.05299 0.58378 0.24647 0.0
C956 C 1.0451 0.54501 0.23942 0.0
C957 C 1.04047 0.51664 0.25633 0.0
C958 C 1.00038 0.48881 0.25494 0.0
C959 C 0.0702 0.49314 0.25686 0.0
C960 C 0.04736 0.54562 0.27395 0.0
C961 C 0.05381 0.58409 0.2678 0.0
C962 C 0.06132 0.61625 0.28116 0.0
C963 C 0.06345 0.60912 0.30139 0.0
C964 C 0.05879 0.57017 0.30819 0.0
C965 C 0.04971 0.53792 0.29422 0.0
loop_
_geom_bond_atom_site_label_1
_geom_bond_atom_site_label_2
_geom_bond_distance
_geom_bond_site_symmetry_2
_ccdc_geom_bond_type
Dy0 O3 2.307 1_455 S
Dy0 O5 2.395 . S
Dy0 O6 2.379 . S
Dy0 O8 2.339 . S
Dy0 O10 2.298 . S
Dy0 O14 2.275 . S
Dy0 C22 2.738 . S
Dy1 O4 2.298 . S
Dy1 O7 2.275 1_655 S
Dy1 O9 2.307 1_655 S
Dy1 O11 2.395 . S
Dy1 O12 2.379 . S
Dy1 O15 2.339 . S
Dy1 C31 2.738 . S
C2 O14 1.254 . S
C2 O15 1.257 1_455 S
O3 Dy0 2.307 1_655 S
O3 C13 1.266 . S
O4 Dy1 2.298 . S
O4 C13 1.236 . S
O5 Dy0 2.395 . S
O5 C22 1.255 . S
O6 Dy0 2.379 . S
O6 C22 1.249 . S
O7 Dy1 2.275 1_455 S
O7 C23 1.254 . S
O8 Dy0 2.339 . S
O8 C23 1.257 . S
O9 Dy1 2.307 1_455 S
O9 C24 1.266 . S
O10 Dy0 2.298 . S
O10 C24 1.236 . S
O11 Dy1 2.395 . S
O11 C31 1.255 . S
O12 Dy1 2.379 . S
O12 C31 1.249 . S
C13 O3 1.266 . S
C13 O4 1.236 . S
O14 Dy0 2.275 . S
O14 C2 1.254 . S
O15 Dy1 2.339 . S
O15 C2 1.257 1_655 S
C16 C19 1.344 . S
C16 C20 1.328 . S
C16 C22 1.516 . S
C17 C18 1.304 . S
C17 C21 1.323 . S
C18 C17 1.304 . S
C18 C19 1.371 . S
C18 H32 0.930 . S
C19 C16 1.344 . S
C19 C18 1.371 . S
C19 H33 0.931 . S
C20 C16 1.328 . S
C20 C21 1.433 . S
C20 H34 0.931 . S
C21 C17 1.323 . S
C21 C20 1.433 . S
C21 H35 0.933 . S
C22 Dy0 2.738 . S
C22 O5 1.255 . S
C22 O6 1.249 . S
C22 C16 1.516 . S
C23 O7 1.254 . S
C23 O8 1.257 . S
C24 O9 1.266 . S
C24 O10 1.236 . S
C25 C28 1.344 . S
C25 C29 1.328 . S
C25 C31 1.516 . S
C26 C27 1.304 . S
C26 C30 1.323 . S
C27 C26 1.304 . S
C27 C28 1.371 . S
C27 H36 0.930 . S
C28 C25 1.344 . S
C28 C27 1.371 . S
C28 H37 0.931 . S
C29 C25 1.328 . S
C29 C30 1.433 . S
C29 H38 0.931 . S
C30 C26 1.323 . S
C30 C29 1.433 . S
C30 H39 0.933 . S
C31 Dy1 2.738 . S
C31 O11 1.255 . S
C31 O12 1.249 . S
C31 C25 1.516 . S
H32 C18 0.930 . S
H33 C19 0.931 . S
H34 C20 0.931 . S
H35 C21 0.933 . S
H36 C27 0.930 . S
H37 C28 0.931 . S
H38 C29 0.931 . S
H39 C30 0.933 . S
Dy40 O43 2.307 . S
Dy40 O45 2.395 1_545 S
Dy40 O46 2.379 1_545 S
Dy40 O48 2.339 . S
Dy40 O50 2.298 1_545 S
Dy40 O54 2.275 . S
Dy40 C62 2.738 1_545 S
Dy41 O44 2.298 . S
Dy41 O47 2.275 . S
Dy41 O49 2.307 1_545 S
Dy41 O51 2.395 . S
Dy41 O52 2.379 . S
Dy41 O55 2.339 . S
Dy41 C71 2.738 . S
C42 O54 1.254 . S
C42 O55 1.257 . S
O43 Dy40 2.307 . S
O43 C53 1.266 . S
O44 Dy41 2.298 . S
O44 C53 1.236 . S
O45 Dy40 2.395 1_565 S
O45 C62 1.255 . S
O46 Dy40 2.379 1_565 S
O46 C62 1.249 . S
O47 Dy41 2.275 . S
O47 C63 1.254 . S
O48 Dy40 2.339 . S
O48 C63 1.257 . S
O49 Dy41 2.307 1_565 S
O49 C64 1.266 . S
O50 Dy40 2.298 1_565 S
O50 C64 1.236 . S
O51 Dy41 2.395 . S
O51 C71 1.255 . S
O52 Dy41 2.379 . S
O52 C71 1.249 . S
C53 O43 1.266 . S
C53 O44 1.236 . S
O54 Dy40 2.275 . S
O54 C42 1.254 . S
O55 Dy41 2.339 . S
O55 C42 1.257 . S
C56 C59 1.344 . S
C56 C60 1.328 . S
C56 C62 1.516 . S
C57 C58 1.304 . S
C57 C61 1.323 . S
C58 C57 1.304 . S
C58 C59 1.371 . S
C58 H72 0.930 . S
C59 C56 1.344 . S
C59 C58 1.371 . S
C59 H73 0.931 . S
C60 C56 1.328 . S
C60 C61 1.433 . S
C60 H74 0.931 . S
C61 C57 1.323 . S
C61 C60 1.433 . S
C61 H75 0.933 . S
C62 Dy40 2.738 1_565 S
C62 O45 1.255 . S
C62 O46 1.249 . S
C62 C56 1.516 . S
C63 O47 1.254 . S
C63 O48 1.257 . S
C64 O49 1.266 . S
C64 O50 1.236 . S
C65 C68 1.344 . S
C65 C69 1.328 . S
C65 C71 1.516 . S
C66 C67 1.304 . S
C66 C70 1.323 . S
C67 C66 1.304 . S
C67 C68 1.371 . S
C67 H76 0.930 . S
C68 C65 1.344 . S
C68 C67 1.371 . S
C68 H77 0.931 . S
C69 C65 1.328 . S
C69 C70 1.433 . S
C69 H78 0.931 . S
C70 C66 1.323 . S
C70 C69 1.433 . S
C70 H79 0.933 . S
C71 Dy41 2.738 . S
C71 O51 1.255 . S
C71 O52 1.249 . S
C71 C65 1.516 . S
H72 C58 0.930 . S
H73 C59 0.931 . S
H74 C60 0.931 . S
H75 C61 0.933 . S
H76 C67 0.930 . S
H77 C68 0.931 . S
H78 C69 0.931 . S
H79 C70 0.933 . S
Dy80 O83 2.307 . S
Dy80 O85 2.395 . S
Dy80 O86 2.379 . S
Dy80 O88 2.339 . S
Dy80 O90 2.298 . S
Dy80 O94 2.275 . S
Dy80 C102 2.738 . S
Dy81 O84 2.298 . S
Dy81 O87 2.275 . S
Dy81 O89 2.307 . S
Dy81 O91 2.395 . S
Dy81 O92 2.379 . S
Dy81 O95 2.339 . S
Dy81 C111 2.738 . S
C82 O94 1.254 . S
C82 O95 1.257 . S
O83 Dy80 2.307 . S
O83 C93 1.266 . S
O84 Dy81 2.298 . S
O84 C93 1.236 . S
O85 Dy80 2.395 . S
O85 C102 1.255 . S
O86 Dy80 2.379 . S
O86 C102 1.249 . S
O87 Dy81 2.275 . S
O87 C103 1.254 . S
O88 Dy80 2.339 . S
O88 C103 1.257 . S
O89 Dy81 2.307 . S
O89 C104 1.266 . S
O90 Dy80 2.298 . S
O90 C104 1.236 . S
O91 Dy81 2.395 . S
O91 C111 1.255 . S
O92 Dy81 2.379 . S
O92 C111 1.249 . S
C93 O83 1.266 . S
C93 O84 1.236 . S
O94 Dy80 2.275 . S
O94 C82 1.254 . S
O95 Dy81 2.339 . S
O95 C82 1.257 . S
C96 C99 1.344 . S
C96 C100 1.328 . S
C96 C102 1.516 . S
C97 C98 1.304 . S
C97 C101 1.323 . S
C98 C97 1.304 . S
C98 C99 1.371 . S
C98 H112 0.930 . S
C99 C96 1.344 . S
C99 C98 1.371 . S
C99 H113 0.931 . S
C100 C96 1.328 . S
C100 C101 1.433 . S
C100 H114 0.931 . S
C101 C97 1.323 . S
C101 C100 1.433 . S
C101 H115 0.933 . S
C102 Dy80 2.738 . S
C102 O85 1.255 . S
C102 O86 1.249 . S
C102 C96 1.516 . S
C103 O87 1.254 . S
C103 O88 1.257 . S
C104 O89 1.266 . S
C104 O90 1.236 . S
C105 C108 1.344 . S
C105 C109 1.328 . S
C105 C111 1.516 . S
C106 C107 1.304 . S
C106 C110 1.323 . S
C107 C106 1.304 . S
C107 C108 1.371 . S
C107 H116 0.930 . S
C108 C105 1.344 . S
C108 C107 1.371 . S
C108 H117 0.931 . S
C109 C105 1.328 . S
C109 C110 1.433 . S
C109 H118 0.931 . S
C110 C106 1.323 . S
C110 C109 1.433 . S
C110 H119 0.933 . S
C111 Dy81 2.738 . S
C111 O91 1.255 . S
C111 O92 1.249 . S
C111 C105 1.516 . S
H112 C98 0.930 . S
H113 C99 0.931 . S
H114 C100 0.931 . S
H115 C101 0.933 . S
H116 C107 0.930 . S
H117 C108 0.931 . S
H118 C109 0.931 . S
H119 C110 0.933 . S
C120 C121 1.391 . S
C120 C124 1.391 . S
C120 H162 0.948 . S
C121 C120 1.391 . S
C121 C122 1.391 . S
C122 C121 1.391 . S
C122 H178 0.947 . S
C122 C179 1.392 . S
C123 C124 1.391 . S
C123 C127 1.397 . S
C123 C179 1.419 . S
C124 C120 1.391 . S
C124 C123 1.391 . S
C124 C125 1.399 . S
C125 C124 1.399 . S
C125 C128 1.396 . S
C125 C137 1.453 . S
C125 C138 1.684 . S
H126 C150 0.948 . S
C127 C123 1.397 . S
C127 C128 1.394 . S
C127 C146 1.723 . S
C128 C125 1.396 . S
C128 C127 1.394 . S
C128 C158 1.723 . S
H129 C152 0.947 . S
H130 C153 0.948 . S
H131 C159 0.982 . S
H132 C160 0.979 1_545 S
H133 C160 0.980 . S
H134 C160 0.983 . S
H135 C159 0.979 . S
H136 C159 0.977 . S
C137 C125 1.453 . S
C137 H166 0.982 . S
C137 H167 0.979 . S
C137 H168 0.977 . S
C138 C125 1.684 . S
C138 H163 0.979 . S
C138 H164 0.980 . S
C138 H165 0.983 . S
C139 C140 1.391 . S
C139 C144 1.391 . S
C139 H169 0.948 . S
C140 C139 1.391 . S
C140 C141 1.391 . S
C141 C140 1.391 . S
C141 C142 1.392 . S
C141 H170 0.947 . S
C142 C141 1.392 . S
C142 C143 1.419 . S
C142 H171 0.948 . S
C143 C142 1.419 . S
C143 C144 1.391 . S
C143 C147 1.397 . S
C144 C139 1.391 . S
C144 C143 1.391 . S
C144 C145 1.399 . S
C145 C144 1.399 . S
C145 C146 1.396 . S
C145 C148 1.453 . S
C145 C149 1.684 . S
C146 C127 1.723 . S
C146 C145 1.396 . S
C146 C147 1.394 . S
C147 C143 1.397 . S
C147 C146 1.394 . S
C147 C157 1.723 . S
C148 C145 1.453 . S
C148 H172 0.982 . S
C148 H173 0.979 . S
C148 H174 0.977 . S
C149 C145 1.684 . S
C149 H175 0.979 . S
C149 H176 0.980 . S
C149 H177 0.983 . S
C150 H126 0.948 . S
C150 C151 1.391 . S
C150 C155 1.391 . S
C151 C150 1.391 . S
C151 C152 1.391 . S
C152 H129 0.947 . S
C152 C151 1.391 . S
C152 C153 1.392 1_565 S
C153 H130 0.948 . S
C153 C152 1.392 1_545 S
C153 C154 1.419 . S
C154 C153 1.419 . S
C154 C155 1.391 1_545 S
C154 C158 1.397 . S
C155 C150 1.391 . S
C155 C154 1.391 1_565 S
C155 C156 1.399 . S
C156 C155 1.399 . S
C156 C157 1.396 1_565 S
C156 C159 1.453 . S
C156 C160 1.684 . S
C157 C147 1.723 . S
C157 C156 1.396 1_545 S
C157 C158 1.394 . S
C158 C128 1.723 . S
C158 C154 1.397 . S
C158 C157 1.394 . S
C159 H131 0.982 . S
C159 H135 0.979 . S
C159 H136 0.977 . S
C159 C156 1.453 . S
C160 H132 0.979 1_565 S
C160 H133 0.980 . S
C160 H134 0.983 . S
C160 C156 1.684 . S
H161 C179 0.948 . S
H162 C120 0.948 . S
H163 C138 0.979 . S
H164 C138 0.980 . S
H165 C138 0.983 . S
H166 C137 0.982 . S
H167 C137 0.979 . S
H168 C137 0.977 . S
H169 C139 0.948 . S
H170 C141 0.947 . S
H171 C142 0.948 . S
H172 C148 0.982 . S
H173 C148 0.979 . S
H174 C148 0.977 . S
H175 C149 0.979 . S
H176 C149 0.980 . S
H177 C149 0.983 . S
H178 C122 0.947 . S
C179 C122 1.392 . S
C179 C123 1.419 . S
C179 H161 0.948 . S
C180 C181 1.391 . S
C180 C184 1.391 . S
C180 H222 0.948 . S
C181 C180 1.391 . S
C181 C182 1.391 . S
C182 C181 1.391 . S
C182 H238 0.947 . S
C182 C239 1.392 . S
C183 C184 1.391 . S
C183 C187 1.397 . S
C183 C239 1.419 . S
C184 C180 1.391 . S
C184 C183 1.391 . S
C184 C185 1.399 . S
C185 C184 1.399 . S
C185 C188 1.396 . S
C185 C197 1.453 . S
C185 C198 1.684 . S
H186 C210 0.948 . S
C187 C183 1.397 . S
C187 C188 1.394 . S
C187 C206 1.723 . S
C188 C185 1.396 . S
C188 C187 1.394 . S
C188 C218 1.723 . S
H189 C212 0.947 . S
H190 C213 0.948 . S
H191 C219 0.982 . S
H192 C220 0.979 . S
H193 C220 0.980 . S
H194 C220 0.983 . S
H195 C219 0.979 . S
H196 C219 0.977 . S
C197 C185 1.453 . S
C197 H226 0.982 . S
C197 H227 0.979 . S
C197 H228 0.977 . S
C198 C185 1.684 . S
C198 H223 0.979 . S
C198 H224 0.980 . S
C198 H225 0.983 . S
C199 C200 1.391 . S
C199 C204 1.391 . S
C199 H229 0.948 . S
C200 C199 1.391 . S
C200 C201 1.391 . S
C201 C200 1.391 . S
C201 C202 1.392 . S
C201 H230 0.947 . S
C202 C201 1.392 . S
C202 C203 1.419 . S
C202 H231 0.948 . S
C203 C202 1.419 . S
C203 C204 1.391 . S
C203 C207 1.397 . S
C204 C199 1.391 . S
C204 C203 1.391 . S
C204 C205 1.399 . S
C205 C204 1.399 . S
C205 C206 1.396 . S
C205 C208 1.453 . S
C205 C209 1.684 . S
C206 C187 1.723 . S
C206 C205 1.396 . S
C206 C207 1.394 . S
C207 C203 1.397 . S
C207 C206 1.394 . S
C207 C217 1.723 . S
C208 C205 1.453 . S
C208 H232 0.982 . S
C208 H233 0.979 . S
C208 H234 0.977 . S
C209 C205 1.684 . S
C209 H235 0.979 . S
C209 H236 0.980 . S
C209 H237 0.983 . S
C210 H186 0.948 . S
C210 C211 1.391 . S
C210 C215 1.391 . S
C211 C210 1.391 . S
C211 C212 1.391 . S
C212 H189 0.947 . S
C212 C211 1.391 . S
C212 C213 1.392 . S
C213 H190 0.948 . S
C213 C212 1.392 . S
C213 C214 1.419 . S
C214 C213 1.419 . S
C214 C215 1.391 . S
C214 C218 1.397 . S
C215 C210 1.391 . S
C215 C214 1.391 . S
C215 C216 1.399 . S
C216 C215 1.399 . S
C216 C217 1.396 . S
C216 C219 1.453 . S
C216 C220 1.684 . S
C217 C207 1.723 . S
C217 C216 1.396 . S
C217 C218 1.394 . S
C218 C188 1.723 . S
C218 C214 1.397 . S
C218 C217 1.394 . S
C219 H191 0.982 . S
C219 H195 0.979 . S
C219 H196 0.977 . S
C219 C216 1.453 . S
C220 H192 0.979 . S
C220 H193 0.980 . S
C220 H194 0.983 . S
C220 C216 1.684 . S
H221 C239 0.948 . S
H222 C180 0.948 . S
H223 C198 0.979 . S
H224 C198 0.980 . S
H225 C198 0.983 . S
H226 C197 0.982 . S
H227 C197 0.979 . S
H228 C197 0.977 . S
H229 C199 0.948 . S
H230 C201 0.947 . S
H231 C202 0.948 . S
H232 C208 0.982 . S
H233 C208 0.979 . S
H234 C208 0.977 . S
H235 C209 0.979 . S
H236 C209 0.980 . S
H237 C209 0.983 . S
H238 C182 0.947 . S
C239 C182 1.392 . S
C239 C183 1.419 . S
C239 H221 0.948 . S
C240 C241 1.391 . S
C240 C244 1.391 . S
C240 H282 0.948 . S
C241 C240 1.391 . S
C241 C242 1.391 . S
C242 C241 1.391 . S
C242 H298 0.947 . S
C242 C299 1.392 . S
C243 C244 1.391 . S
C243 C247 1.397 . S
C243 C299 1.419 . S
C244 C240 1.391 . S
C244 C243 1.391 . S
C244 C245 1.399 . S
C245 C244 1.399 . S
C245 C248 1.396 . S
C245 C257 1.453 . S
C245 C258 1.684 . S
H246 C270 0.948 . S
C247 C243 1.397 . S
C247 C248 1.394 . S
C247 C266 1.723 . S
C248 C245 1.396 . S
C248 C247 1.394 . S
C248 C278 1.723 1_455 S
H249 C272 0.947 . S
H250 C273 0.948 . S
H251 C279 0.982 . S
H252 C280 0.979 . S
H253 C280 0.980 . S
H254 C280 0.983 . S
H255 C279 0.979 . S
H256 C279 0.977 . S
C257 C245 1.453 . S
C257 H286 0.982 . S
C257 H287 0.979 . S
C257 H288 0.945 1_455 S
C258 C245 1.684 . S
C258 H283 0.979 . S
C258 H284 0.980 . S
C258 H285 0.983 . S
C259 C260 1.391 . S
C259 C264 1.391 . S
C259 H289 0.948 . S
C260 C259 1.391 . S
C260 C261 1.391 1_455 S
C261 C260 1.391 1_655 S
C261 C262 1.392 . S
C261 H290 0.947 . S
C262 C261 1.392 . S
C262 C263 1.419 1_655 S
C262 H291 0.948 . S
C263 C262 1.419 1_455 S
C263 C264 1.391 . S
C263 C267 1.397 . S
C264 C259 1.391 . S
C264 C263 1.391 . S
C264 C265 1.399 . S
C265 C264 1.399 . S
C265 C266 1.396 . S
C265 C268 1.453 . S
C265 C269 1.684 . S
C266 C247 1.723 . S
C266 C265 1.396 . S
C266 C267 1.394 . S
C267 C263 1.397 . S
C267 C266 1.394 . S
C267 C277 1.723 1_455 S
C268 C265 1.453 . S
C268 H292 0.982 . S
C268 H293 0.979 . S
C268 H294 0.977 . S
C269 C265 1.684 . S
C269 H295 0.979 . S
C269 H296 0.980 . S
C269 H297 0.983 . S
C270 H246 0.948 . S
C270 C271 1.391 . S
C270 C275 1.391 . S
C271 C270 1.391 . S
C271 C272 1.391 . S
C272 H249 0.947 . S
C272 C271 1.391 . S
C272 C273 1.392 . S
C273 H250 0.948 . S
C273 C272 1.392 . S
C273 C274 1.419 . S
C274 C273 1.419 . S
C274 C275 1.391 . S
C274 C278 1.397 . S
C275 C270 1.391 . S
C275 C274 1.391 . S
C275 C276 1.399 . S
C276 C275 1.399 . S
C276 C277 1.396 . S
C276 C279 1.453 . S
C276 C280 1.684 . S
C277 C267 1.723 1_655 S
C277 C276 1.396 . S
C277 C278 1.394 . S
C278 C248 1.723 1_655 S
C278 C274 1.397 . S
C278 C277 1.394 . S
C279 H251 0.982 . S
C279 H255 0.979 . S
C279 H256 0.977 . S
C279 C276 1.453 . S
C280 H252 0.979 . S
C280 H253 0.980 . S
C280 H254 0.983 . S
C280 C276 1.684 . S
H281 C299 0.948 . S
H282 C240 0.948 . S
H283 C258 0.979 . S
H284 C258 0.980 . S
H285 C258 0.983 . S
H286 C257 0.982 . S
H287 C257 0.979 . S
H288 C257 0.945 1_655 S
H289 C259 0.948 . S
H290 C261 0.947 . S
H291 C262 0.948 . S
H292 C268 0.982 . S
H293 C268 0.979 . S
H294 C268 0.977 . S
H295 C269 0.979 . S
H296 C269 0.980 . S
H297 C269 0.983 . S
H298 C242 0.947 . S
C299 C242 1.392 . S
C299 C243 1.419 . S
C299 H281 0.948 . S
C300 C301 1.391 . S
C300 C304 1.391 . S
C300 H342 0.948 . S
C301 C300 1.391 . S
C301 C302 1.391 . S
C302 C301 1.391 . S
C302 H358 0.947 . S
C302 C359 1.392 . S
C303 C304 1.391 . S
C303 C307 1.397 . S
C303 C359 1.419 . S
C304 C300 1.391 . S
C304 C303 1.391 . S
C304 C305 1.399 . S
C305 C304 1.399 . S
C305 C308 1.396 1_655 S
C305 C317 1.453 1_655 S
C305 C318 1.684 . S
H306 C330 0.948 . S
C307 C303 1.397 . S
C307 C308 1.394 1_655 S
C307 C326 1.723 . S
C308 C305 1.396 1_455 S
C308 C307 1.394 1_455 S
C308 C338 1.723 . S
H309 C332 0.947 . S
H310 C333 0.948 . S
H311 C339 0.982 . S
H312 C340 0.979 . S
H313 C340 0.980 . S
H314 C340 0.983 . S
H315 C339 0.979 . S
H316 C339 0.977 . S
C317 C305 1.453 1_455 S
C317 H346 0.982 . S
C317 H347 0.979 . S
C317 H348 0.977 . S
C318 C305 1.684 . S
C318 H343 0.979 . S
C318 H344 0.980 1_655 S
C318 H345 0.983 . S
C319 C320 1.392 1_655 S
C319 C324 1.391 . S
C319 H349 0.948 . S
C320 C319 1.392 1_455 S
C320 C321 1.390 . S
C321 C320 1.390 . S
C321 C322 1.392 . S
C321 H350 0.947 . S
C322 C321 1.392 . S
C322 C323 1.419 . S
C322 H351 0.948 . S
C323 C322 1.419 . S
C323 C324 1.391 1_455 S
C323 C327 1.397 . S
C324 C319 1.391 . S
C324 C323 1.391 1_655 S
C324 C325 1.399 . S
C325 C324 1.399 . S
C325 C326 1.396 . S
C325 C328 1.453 . S
C325 C329 1.684 . S
C326 C307 1.723 . S
C326 C325 1.396 . S
C326 C327 1.394 1_655 S
C327 C323 1.397 . S
C327 C326 1.394 1_455 S
C327 C337 1.723 . S
C328 C325 1.453 . S
C328 H352 0.982 . S
C328 H353 0.979 . S
C328 H354 0.977 . S
C329 C325 1.684 . S
C329 H355 0.979 . S
C329 H356 0.980 . S
C329 H357 0.983 . S
C330 H306 0.948 . S
C330 C331 1.391 . S
C330 C335 1.391 . S
C331 C330 1.391 . S
C331 C332 1.391 . S
C332 H309 0.947 . S
C332 C331 1.391 . S
C332 C333 1.392 . S
C333 H310 0.948 . S
C333 C332 1.392 . S
C333 C334 1.419 . S
C334 C333 1.419 . S
C334 C335 1.391 . S
C334 C338 1.397 . S
C335 C330 1.391 . S
C335 C334 1.391 . S
C335 C336 1.399 . S
C336 C335 1.399 . S
C336 C337 1.396 . S
C336 C339 1.453 . S
C336 C340 1.684 . S
C337 C327 1.723 . S
C337 C336 1.396 . S
C337 C338 1.394 . S
C338 C308 1.723 . S
C338 C334 1.397 . S
C338 C337 1.394 . S
C339 H311 0.982 . S
C339 H315 0.979 . S
C339 H316 0.977 . S
C339 C336 1.453 . S
C340 H312 0.979 . S
C340 H313 0.980 . S
C340 H314 0.983 . S
C340 C336 1.684 . S
H341 C359 0.948 . S
H342 C300 0.948 . S
H343 C318 0.979 . S
H344 C318 0.980 1_455 S
H345 C318 0.983 . S
H346 C317 0.982 . S
H347 C317 0.979 . S
H348 C317 0.977 . S
H349 C319 0.948 . S
H350 C321 0.947 . S
H351 C322 0.948 . S
H352 C328 0.982 . S
H353 C328 0.979 . S
H354 C328 0.977 . S
H355 C329 0.979 . S
H356 C329 0.980 . S
H357 C329 0.983 . S
H358 C302 0.947 . S
C359 C302 1.392 . S
C359 C303 1.419 . S
C359 H341 0.948 . S
C360 C361 1.391 . S
C360 C364 1.391 . S
C360 H402 0.948 . S
C361 C360 1.391 . S
C361 C362 1.391 . S
C362 C361 1.391 . S
C362 H418 0.947 . S
C362 C419 1.392 . S
C363 C364 1.391 . S
C363 C367 1.397 . S
C363 C419 1.419 . S
C364 C360 1.391 . S
C364 C363 1.391 . S
C364 C365 1.399 . S
C365 C364 1.399 . S
C365 C368 1.396 . S
C365 C377 1.453 . S
C365 C378 1.684 . S
H366 C390 0.948 . S
C367 C363 1.397 . S
C367 C368 1.394 . S
C367 C386 1.723 . S
C368 C365 1.396 . S
C368 C367 1.394 . S
C368 C398 1.723 1_565 S
H369 C392 0.947 . S
H370 C393 0.948 . S
H371 C399 0.982 . S
H372 C400 0.979 . S
H373 C400 0.980 . S
H374 C400 0.983 . S
H375 C399 0.979 . S
H376 C399 0.977 . S
C377 C365 1.453 . S
C377 H406 0.982 . S
C377 H407 0.979 . S
C377 H408 0.977 1_565 S
C378 C365 1.684 . S
C378 H403 0.979 . S
C378 H404 0.956 1_565 S
C378 H405 0.983 . S
C379 C380 1.391 1_565 S
C379 C384 1.391 . S
C379 H409 0.948 . S
C380 C379 1.391 1_545 S
C380 C381 1.391 . S
C381 C380 1.391 . S
C381 C382 1.392 . S
C381 H410 0.947 . S
C382 C381 1.392 . S
C382 C383 1.419 . S
C382 H411 0.948 . S
C383 C382 1.419 . S
C383 C384 1.391 1_545 S
C383 C387 1.397 . S
C384 C379 1.391 . S
C384 C383 1.391 1_565 S
C384 C385 1.399 . S
C385 C384 1.399 . S
C385 C386 1.396 . S
C385 C388 1.453 . S
C385 C389 1.684 . S
C386 C367 1.723 . S
C386 C385 1.396 . S
C386 C387 1.394 1_565 S
C387 C383 1.397 . S
C387 C386 1.394 1_545 S
C387 C397 1.723 . S
C388 C385 1.453 . S
C388 H412 0.982 . S
C388 H413 0.979 . S
C388 H414 0.977 . S
C389 C385 1.684 . S
C389 H415 0.979 . S
C389 H416 0.980 . S
C389 H417 0.983 . S
C390 H366 0.948 . S
C390 C391 1.391 . S
C390 C395 1.391 . S
C391 C390 1.391 . S
C391 C392 1.391 . S
C392 H369 0.947 . S
C392 C391 1.391 . S
C392 C393 1.392 . S
C393 H370 0.948 . S
C393 C392 1.392 . S
C393 C394 1.419 . S
C394 C393 1.419 . S
C394 C395 1.391 . S
C394 C398 1.397 . S
C395 C390 1.391 . S
C395 C394 1.391 . S
C395 C396 1.399 . S
C396 C395 1.399 . S
C396 C397 1.396 . S
C396 C399 1.453 . S
C396 C400 1.684 . S
C397 C387 1.723 . S
C397 C396 1.396 . S
C397 C398 1.394 . S
C398 C368 1.723 1_545 S
C398 C394 1.397 . S
C398 C397 1.394 . S
C399 H371 0.982 . S
C399 H375 0.979 . S
C399 H376 0.977 . S
C399 C396 1.453 . S
C400 H372 0.979 . S
C400 H373 0.980 . S
C400 H374 0.983 . S
C400 C396 1.684 . S
H401 C419 0.948 . S
H402 C360 0.948 . S
H403 C378 0.979 . S
H404 C378 0.956 1_545 S
H405 C378 0.983 . S
H406 C377 0.982 . S
H407 C377 0.979 . S
H408 C377 0.977 1_545 S
H409 C379 0.948 . S
H410 C381 0.947 . S
H411 C382 0.948 . S
H412 C388 0.982 . S
H413 C388 0.979 . S
H414 C388 0.977 . S
H415 C389 0.979 . S
H416 C389 0.980 . S
H417 C389 0.983 . S
H418 C362 0.947 . S
C419 C362 1.392 . S
C419 C363 1.419 . S
C419 H401 0.948 . S
C420 C421 1.391 . S
C420 C424 1.391 . S
C420 H462 0.948 . S
C421 C420 1.391 . S
C421 C422 1.391 . S
C422 C421 1.391 . S
C422 H478 0.947 . S
C422 C479 1.392 . S
C423 C424 1.391 . S
C423 C427 1.397 . S
C423 C479 1.419 . S
C424 C420 1.391 . S
C424 C423 1.391 . S
C424 C425 1.399 . S
C425 C424 1.399 . S
C425 C428 1.396 . S
C425 C437 1.453 . S
C425 C438 1.684 . S
H426 C450 0.948 . S
C427 C423 1.397 . S
C427 C428 1.394 . S
C427 C446 1.723 . S
C428 C425 1.396 . S
C428 C427 1.394 . S
C428 C458 1.723 . S
H429 C452 0.947 . S
H430 C453 0.948 . S
H431 C459 0.982 . S
H432 C460 0.979 . S
H433 C460 0.980 . S
H434 C460 0.983 . S
H435 C459 0.979 . S
H436 C459 0.977 . S
C437 C425 1.453 . S
C437 H466 0.982 . S
C437 H467 0.979 . S
C437 H468 0.977 . S
C438 C425 1.684 . S
C438 H463 0.979 . S
C438 H464 0.980 . S
C438 H465 0.983 . S
C439 C440 1.391 . S
C439 C444 1.391 . S
C439 H469 0.948 . S
C440 C439 1.391 . S
C440 C441 1.391 . S
C441 C440 1.391 . S
C441 C442 1.392 . S
C441 H470 0.947 . S
C442 C441 1.392 . S
C442 C443 1.419 . S
C442 H471 0.948 . S
C443 C442 1.419 . S
C443 C444 1.391 . S
C443 C447 1.397 . S
C444 C439 1.391 . S
C444 C443 1.391 . S
C444 C445 1.399 . S
C445 C444 1.399 . S
C445 C446 1.396 . S
C445 C448 1.453 . S
C445 C449 1.684 . S
C446 C427 1.723 . S
C446 C445 1.396 . S
C446 C447 1.394 . S
C447 C443 1.397 . S
C447 C446 1.394 . S
C447 C457 1.723 . S
C448 C445 1.453 . S
C448 H472 0.982 . S
C448 H473 0.979 . S
C448 H474 0.977 . S
C449 C445 1.684 . S
C449 H475 0.979 . S
C449 H476 0.980 . S
C449 H477 0.983 . S
C450 H426 0.948 . S
C450 C451 1.391 . S
C450 C455 1.391 . S
C451 C450 1.391 . S
C451 C452 1.391 . S
C452 H429 0.947 . S
C452 C451 1.391 . S
C452 C453 1.392 . S
C453 H430 0.948 . S
C453 C452 1.392 . S
C453 C454 1.419 . S
C454 C453 1.419 . S
C454 C455 1.391 . S
C454 C458 1.397 . S
C455 C450 1.391 . S
C455 C454 1.391 . S
C455 C456 1.399 . S
C456 C455 1.399 . S
C456 C457 1.396 . S
C456 C459 1.453 . S
C456 C460 1.684 . S
C457 C447 1.723 . S
C457 C456 1.396 . S
C457 C458 1.394 . S
C458 C428 1.723 . S
C458 C454 1.397 . S
C458 C457 1.394 . S
C459 H431 0.982 . S
C459 H435 0.979 . S
C459 H436 0.977 . S
C459 C456 1.453 . S
C460 H432 0.979 . S
C460 H433 0.980 . S
C460 H434 0.983 . S
C460 C456 1.684 . S
H461 C479 0.948 . S
H462 C420 0.948 . S
H463 C438 0.979 . S
H464 C438 0.980 . S
H465 C438 0.983 . S
H466 C437 0.982 . S
H467 C437 0.979 . S
H468 C437 0.977 . S
H469 C439 0.948 . S
H470 C441 0.947 . S
H471 C442 0.948 . S
H472 C448 0.982 . S
H473 C448 0.979 . S
H474 C448 0.977 . S
H475 C449 0.979 . S
H476 C449 0.980 . S
H477 C449 0.983 . S
H478 C422 0.947 . S
C479 C422 1.392 . S
C479 C423 1.419 . S
C479 H461 0.948 . S
H480 C492 0.930 . S
H481 C494 0.930 . S
H482 C495 0.930 . S
H483 C499 0.959 . S
H484 C499 0.959 . S
H485 C499 0.961 . S
H486 C500 0.960 . S
H487 C500 0.961 . S
H488 C500 0.959 . S
H489 C503 0.929 . S
H490 C504 0.931 . S
H491 C506 0.930 . S
C492 H480 0.930 . S
C492 C493 1.399 . S
C492 C497 1.399 . S
C493 C492 1.399 . S
C493 C494 1.376 . S
C494 H481 0.930 . S
C494 C493 1.376 . S
C494 C495 1.388 . S
C495 H482 0.930 . S
C495 C494 1.388 . S
C495 C496 1.390 . S
C496 C495 1.390 . S
C496 C497 1.394 . S
C496 C502 1.465 . S
C497 C492 1.399 . S
C497 C496 1.394 . S
C497 C498 1.516 . S
C498 C497 1.516 . S
C498 C499 1.502 . S
C498 C500 1.561 . S
C498 C501 1.526 . S
C499 H483 0.959 . S
C499 H484 0.959 . S
C499 H485 0.961 . S
C499 C498 1.502 . S
C500 H486 0.960 . S
C500 H487 0.961 . S
C500 H488 0.959 . S
C500 C498 1.561 . S
C501 C498 1.526 . S
C501 C502 1.396 . S
C501 C506 1.390 . S
C502 C496 1.465 . S
C502 C501 1.396 . S
C502 C503 1.399 . S
C503 H489 0.929 . S
C503 C502 1.399 . S
C503 C504 1.385 . S
C504 H490 0.931 . S
C504 C503 1.385 . S
C504 C505 1.389 . S
C505 C504 1.389 . S
C505 C506 1.387 . S
C506 H491 0.930 . S
C506 C501 1.390 . S
C506 C505 1.387 . S
H507 C519 0.930 . S
H508 C521 0.930 . S
H509 C522 0.930 . S
H510 C526 0.959 . S
H511 C526 0.959 . S
H512 C526 0.961 . S
H513 C527 0.960 . S
H514 C527 0.961 . S
H515 C527 0.959 . S
H516 C530 0.929 . S
H517 C531 0.931 . S
H518 C533 0.930 . S
C519 H507 0.930 . S
C519 C520 1.399 . S
C519 C524 1.399 . S
C520 C519 1.399 . S
C520 C521 1.376 . S
C521 H508 0.930 . S
C521 C520 1.376 . S
C521 C522 1.388 . S
C522 H509 0.930 . S
C522 C521 1.388 . S
C522 C523 1.390 . S
C523 C522 1.390 . S
C523 C524 1.394 . S
C523 C529 1.465 . S
C524 C519 1.399 . S
C524 C523 1.394 . S
C524 C525 1.516 . S
C525 C524 1.516 . S
C525 C526 1.502 . S
C525 C527 1.561 . S
C525 C528 1.526 . S
C526 H510 0.959 . S
C526 H511 0.959 . S
C526 H512 0.961 . S
C526 C525 1.502 . S
C527 H513 0.960 . S
C527 H514 0.961 . S
C527 H515 0.959 . S
C527 C525 1.561 . S
C528 C525 1.526 . S
C528 C529 1.396 . S
C528 C533 1.390 . S
C529 C523 1.465 . S
C529 C528 1.396 . S
C529 C530 1.399 . S
C530 H516 0.929 . S
C530 C529 1.399 . S
C530 C531 1.385 . S
C531 H517 0.931 . S
C531 C530 1.385 . S
C531 C532 1.389 . S
C532 C531 1.389 . S
C532 C533 1.387 . S
C533 H518 0.930 . S
C533 C528 1.390 . S
C533 C532 1.387 . S
H534 C546 0.930 . S
H535 C548 0.930 . S
H536 C549 0.930 . S
H537 C553 0.959 . S
H538 C553 0.959 . S
H539 C553 0.961 . S
H540 C554 0.960 . S
H541 C554 0.961 . S
H542 C554 0.959 . S
H543 C557 0.929 . S
H544 C558 0.931 . S
H545 C560 0.930 . S
C546 H534 0.930 . S
C546 C547 1.399 . S
C546 C551 1.399 . S
C547 C546 1.399 . S
C547 C548 1.376 . S
C548 H535 0.930 . S
C548 C547 1.376 . S
C548 C549 1.388 . S
C549 H536 0.930 . S
C549 C548 1.388 . S
C549 C550 1.390 . S
C550 C549 1.390 . S
C550 C551 1.394 . S
C550 C556 1.465 . S
C551 C546 1.399 . S
C551 C550 1.394 . S
C551 C552 1.516 . S
C552 C551 1.516 . S
C552 C553 1.502 . S
C552 C554 1.561 . S
C552 C555 1.526 . S
C553 H537 0.959 . S
C553 H538 0.959 . S
C553 H539 0.961 . S
C553 C552 1.502 . S
C554 H540 0.960 . S
C554 H541 0.961 . S
C554 H542 0.959 . S
C554 C552 1.561 . S
C555 C552 1.526 . S
C555 C556 1.396 . S
C555 C560 1.390 . S
C556 C550 1.465 . S
C556 C555 1.396 . S
C556 C557 1.399 . S
C557 H543 0.929 . S
C557 C556 1.399 . S
C557 C558 1.385 . S
C558 H544 0.931 . S
C558 C557 1.385 . S
C558 C559 1.389 . S
C559 C558 1.389 . S
C559 C560 1.387 . S
C560 H545 0.930 . S
C560 C555 1.390 . S
C560 C559 1.387 . S
H561 C573 0.930 . S
H562 C575 0.930 . S
H563 C576 0.930 . S
H564 C580 0.959 . S
H565 C580 0.959 . S
H566 C580 0.961 . S
H567 C581 0.960 . S
H568 C581 0.961 . S
H569 C581 0.959 . S
H570 C584 0.929 . S
H571 C585 0.931 . S
H572 C587 0.930 . S
C573 H561 0.930 . S
C573 C574 1.399 . S
C573 C578 1.399 . S
C574 C573 1.399 . S
C574 C575 1.376 . S
C575 H562 0.930 . S
C575 C574 1.376 . S
C575 C576 1.388 . S
C576 H563 0.930 . S
C576 C575 1.388 . S
C576 C577 1.390 . S
C577 C576 1.390 . S
C577 C578 1.394 . S
C577 C583 1.465 . S
C578 C573 1.399 . S
C578 C577 1.394 . S
C578 C579 1.516 . S
C579 C578 1.516 . S
C579 C580 1.502 . S
C579 C581 1.561 . S
C579 C582 1.526 . S
C580 H564 0.959 . S
C580 H565 0.959 . S
C580 H566 0.961 . S
C580 C579 1.502 . S
C581 H567 0.960 . S
C581 H568 0.961 . S
C581 H569 0.959 . S
C581 C579 1.561 . S
C582 C579 1.526 . S
C582 C583 1.396 . S
C582 C587 1.390 . S
C583 C577 1.465 . S
C583 C582 1.396 . S
C583 C584 1.399 . S
C584 H570 0.929 . S
C584 C583 1.399 . S
C584 C585 1.385 . S
C585 H571 0.931 . S
C585 C584 1.385 . S
C585 C586 1.389 . S
C586 C585 1.389 . S
C586 C587 1.387 . S
C587 H572 0.930 . S
C587 C582 1.390 . S
C587 C586 1.387 . S
H588 C600 0.930 . S
H589 C602 0.930 . S
H590 C603 0.930 . S
H591 C607 0.959 . S
H592 C607 0.959 . S
H593 C607 0.961 . S
H594 C608 0.960 . S
H595 C608 0.961 . S
H596 C608 0.959 . S
H597 C611 0.929 . S
H598 C612 0.931 . S
H599 C614 0.930 . S
C600 H588 0.930 . S
C600 C601 1.399 . S
C600 C605 1.399 . S
C601 C600 1.399 . S
C601 C602 1.376 . S
C602 H589 0.930 . S
C602 C601 1.376 . S
C602 C603 1.388 . S
C603 H590 0.930 . S
C603 C602 1.388 . S
C603 C604 1.390 . S
C604 C603 1.390 . S
C604 C605 1.394 . S
C604 C610 1.465 . S
C605 C600 1.399 . S
C605 C604 1.394 . S
C605 C606 1.516 . S
C606 C605 1.516 . S
C606 C607 1.502 . S
C606 C608 1.561 . S
C606 C609 1.526 . S
C607 H591 0.959 . S
C607 H592 0.959 . S
C607 H593 0.961 . S
C607 C606 1.502 . S
C608 H594 0.960 . S
C608 H595 0.961 . S
C608 H596 0.959 . S
C608 C606 1.561 . S
C609 C606 1.526 . S
C609 C610 1.396 . S
C609 C614 1.390 . S
C610 C604 1.465 . S
C610 C609 1.396 . S
C610 C611 1.399 . S
C611 H597 0.929 . S
C611 C610 1.399 . S
C611 C612 1.385 . S
C612 H598 0.931 . S
C612 C611 1.385 . S
C612 C613 1.389 . S
C613 C612 1.389 . S
C613 C614 1.387 . S
C614 H599 0.930 . S
C614 C609 1.390 . S
C614 C613 1.387 . S
H615 C627 0.930 . S
H616 C629 0.930 . S
H617 C630 0.930 . S
H618 C634 0.959 . S
H619 C634 0.959 . S
H620 C634 0.961 . S
H621 C635 0.960 . S
H622 C635 0.961 . S
H623 C635 0.959 . S
H624 C638 0.929 . S
H625 C639 0.931 . S
H626 C641 0.930 . S
C627 H615 0.930 . S
C627 C628 1.399 . S
C627 C632 1.399 . S
C628 C627 1.399 . S
C628 C629 1.376 . S
C629 H616 0.930 . S
C629 C628 1.376 . S
C629 C630 1.388 . S
C630 H617 0.930 . S
C630 C629 1.388 . S
C630 C631 1.390 . S
C631 C630 1.390 . S
C631 C632 1.394 . S
C631 C637 1.465 . S
C632 C627 1.399 . S
C632 C631 1.394 . S
C632 C633 1.516 . S
C633 C632 1.516 . S
C633 C634 1.502 . S
C633 C635 1.561 . S
C633 C636 1.526 . S
C634 H618 0.959 . S
C634 H619 0.959 . S
C634 H620 0.961 . S
C634 C633 1.502 . S
C635 H621 0.960 . S
C635 H622 0.961 . S
C635 H623 0.959 . S
C635 C633 1.561 . S
C636 C633 1.526 . S
C636 C637 1.396 . S
C636 C641 1.390 . S
C637 C631 1.465 . S
C637 C636 1.396 . S
C637 C638 1.399 . S
C638 H624 0.929 . S
C638 C637 1.399 . S
C638 C639 1.385 . S
C639 H625 0.931 . S
C639 C638 1.385 . S
C639 C640 1.389 . S
C640 C639 1.389 . S
C640 C641 1.387 . S
C641 H626 0.930 . S
C641 C636 1.390 . S
C641 C640 1.387 . S
H642 C654 0.930 . S
H643 C656 0.930 . S
H644 C657 0.930 . S
H645 C661 0.959 . S
H646 C661 0.959 . S
H647 C661 0.961 . S
H648 C662 0.960 . S
H649 C662 0.961 . S
H650 C662 0.959 . S
H651 C665 0.929 . S
H652 C666 0.931 . S
H653 C668 0.930 . S
C654 H642 0.930 . S
C654 C655 1.399 . S
C654 C659 1.399 . S
C655 C654 1.399 . S
C655 C656 1.376 . S
C656 H643 0.930 . S
C656 C655 1.376 . S
C656 C657 1.388 . S
C657 H644 0.930 . S
C657 C656 1.388 . S
C657 C658 1.390 . S
C658 C657 1.390 . S
C658 C659 1.394 . S
C658 C664 1.465 . S
C659 C654 1.399 . S
C659 C658 1.394 . S
C659 C660 1.516 . S
C660 C659 1.516 . S
C660 C661 1.502 . S
C660 C662 1.561 . S
C660 C663 1.526 . S
C661 H645 0.959 . S
C661 H646 0.959 . S
C661 H647 0.961 . S
C661 C660 1.502 . S
C662 H648 0.960 . S
C662 H649 0.961 . S
C662 H650 0.959 . S
C662 C660 1.561 . S
C663 C660 1.526 . S
C663 C664 1.396 . S
C663 C668 1.390 . S
C664 C658 1.465 . S
C664 C663 1.396 . S
C664 C665 1.399 . S
C665 H651 0.929 . S
C665 C664 1.399 . S
C665 C666 1.385 . S
C666 H652 0.931 . S
C666 C665 1.385 . S
C666 C667 1.389 . S
C667 C666 1.389 . S
C667 C668 1.387 . S
C668 H653 0.930 . S
C668 C663 1.390 . S
C668 C667 1.387 . S
H669 C681 0.930 . S
H670 C683 0.930 . S
H671 C684 0.930 . S
H672 C688 0.959 . S
H673 C688 0.959 . S
H674 C688 0.961 . S
H675 C689 0.960 . S
H676 C689 0.961 . S
H677 C689 0.959 . S
H678 C692 0.929 . S
H679 C693 0.931 . S
H680 C695 0.930 . S
C681 H669 0.930 . S
C681 C682 1.399 . S
C681 C686 1.399 . S
C682 C681 1.399 . S
C682 C683 1.376 . S
C683 H670 0.930 . S
C683 C682 1.376 . S
C683 C684 1.388 . S
C684 H671 0.930 . S
C684 C683 1.388 . S
C684 C685 1.390 . S
C685 C684 1.390 . S
C685 C686 1.394 . S
C685 C691 1.465 . S
C686 C681 1.399 . S
C686 C685 1.394 . S
C686 C687 1.516 . S
C687 C686 1.516 . S
C687 C688 1.502 . S
C687 C689 1.561 . S
C687 C690 1.526 . S
C688 H672 0.959 . S
C688 H673 0.959 . S
C688 H674 0.961 . S
C688 C687 1.502 . S
C689 H675 0.960 . S
C689 H676 0.961 . S
C689 H677 0.959 . S
C689 C687 1.561 . S
C690 C687 1.526 . S
C690 C691 1.396 . S
C690 C695 1.390 . S
C691 C685 1.465 . S
C691 C690 1.396 . S
C691 C692 1.399 . S
C692 H678 0.929 . S
C692 C691 1.399 . S
C692 C693 1.385 . S
C693 H679 0.931 . S
C693 C692 1.385 . S
C693 C694 1.389 . S
C694 C693 1.389 . S
C694 C695 1.387 . S
C695 H680 0.930 . S
C695 C690 1.390 . S
C695 C694 1.387 . S
H696 C708 0.930 . S
H697 C710 0.930 . S
H698 C711 0.930 . S
H699 C715 0.959 . S
H700 C715 0.959 . S
H701 C715 0.961 . S
H702 C716 0.960 . S
H703 C716 0.961 . S
H704 C716 0.959 . S
H705 C719 0.929 . S
H706 C720 0.931 . S
H707 C722 0.930 . S
C708 H696 0.930 . S
C708 C709 1.399 . S
C708 C713 1.399 . S
C709 C708 1.399 . S
C709 C710 1.376 . S
C710 H697 0.930 . S
C710 C709 1.376 . S
C710 C711 1.388 . S
C711 H698 0.930 . S
C711 C710 1.388 . S
C711 C712 1.390 . S
C712 C711 1.390 . S
C712 C713 1.394 . S
C712 C718 1.465 . S
C713 C708 1.399 . S
C713 C712 1.394 . S
C713 C714 1.516 . S
C714 C713 1.516 . S
C714 C715 1.502 . S
C714 C716 1.561 . S
C714 C717 1.526 . S
C715 H699 0.959 . S
C715 H700 0.959 . S
C715 H701 0.961 . S
C715 C714 1.502 . S
C716 H702 0.960 . S
C716 H703 0.961 . S
C716 H704 0.959 . S
C716 C714 1.561 . S
C717 C714 1.526 . S
C717 C718 1.396 . S
C717 C722 1.390 . S
C718 C712 1.465 . S
C718 C717 1.396 . S
C718 C719 1.399 . S
C719 H705 0.929 . S
C719 C718 1.399 . S
C719 C720 1.385 . S
C720 H706 0.931 . S
C720 C719 1.385 . S
C720 C721 1.389 . S
C721 C720 1.389 . S
C721 C722 1.387 . S
C722 H707 0.930 . S
C722 C717 1.390 . S
C722 C721 1.387 . S
H723 C735 0.930 . S
H724 C737 0.930 . S
H725 C738 0.930 . S
H726 C742 0.959 . S
H727 C742 0.959 . S
H728 C742 0.961 . S
H729 C743 0.960 . S
H730 C743 0.961 . S
H731 C743 0.959 . S
H732 C746 0.929 . S
H733 C747 0.931 . S
H734 C749 0.930 . S
C735 H723 0.930 . S
C735 C736 1.399 . S
C735 C740 1.399 . S
C736 C735 1.399 . S
C736 C737 1.376 . S
C737 H724 0.930 . S
C737 C736 1.376 . S
C737 C738 1.388 . S
C738 H725 0.930 . S
C738 C737 1.388 . S
C738 C739 1.390 . S
C739 C738 1.390 . S
C739 C740 1.394 . S
C739 C745 1.465 . S
C740 C735 1.399 . S
C740 C739 1.394 . S
C740 C741 1.516 . S
C741 C740 1.516 . S
C741 C742 1.502 . S
C741 C743 1.561 . S
C741 C744 1.526 . S
C742 H726 0.959 . S
C742 H727 0.959 . S
C742 H728 0.961 . S
C742 C741 1.502 . S
C743 H729 0.960 . S
C743 H730 0.961 . S
C743 H731 0.959 . S
C743 C741 1.561 . S
C744 C741 1.526 . S
C744 C745 1.396 . S
C744 C749 1.390 . S
C745 C739 1.465 . S
C745 C744 1.396 . S
C745 C746 1.399 . S
C746 H732 0.929 . S
C746 C745 1.399 . S
C746 C747 1.385 . S
C747 H733 0.931 . S
C747 C746 1.385 . S
C747 C748 1.389 . S
C748 C747 1.389 . S
C748 C749 1.387 . S
C749 H734 0.930 . S
C749 C744 1.390 . S
C749 C748 1.387 . S
H750 C762 0.930 . S
H751 C764 0.930 . S
H752 C765 0.930 . S
H753 C769 0.959 . S
H754 C769 0.959 . S
H755 C769 0.961 . S
H756 C770 0.960 . S
H757 C770 0.961 . S
H758 C770 0.959 . S
H759 C773 0.929 . S
H760 C774 0.931 . S
H761 C776 0.930 . S
C762 H750 0.930 . S
C762 C763 1.399 . S
C762 C767 1.399 . S
C763 C762 1.399 . S
C763 C764 1.376 . S
C764 H751 0.930 . S
C764 C763 1.376 . S
C764 C765 1.388 . S
C765 H752 0.930 . S
C765 C764 1.388 . S
C765 C766 1.390 . S
C766 C765 1.390 . S
C766 C767 1.394 . S
C766 C772 1.465 . S
C767 C762 1.399 . S
C767 C766 1.394 . S
C767 C768 1.516 . S
C768 C767 1.516 . S
C768 C769 1.502 . S
C768 C770 1.561 . S
C768 C771 1.526 . S
C769 H753 0.959 . S
C769 H754 0.959 . S
C769 H755 0.961 . S
C769 C768 1.502 . S
C770 H756 0.960 . S
C770 H757 0.961 . S
C770 H758 0.959 . S
C770 C768 1.561 . S
C771 C768 1.526 . S
C771 C772 1.396 . S
C771 C776 1.390 . S
C772 C766 1.465 . S
C772 C771 1.396 . S
C772 C773 1.399 . S
C773 H759 0.929 . S
C773 C772 1.399 . S
C773 C774 1.385 . S
C774 H760 0.931 . S
C774 C773 1.385 . S
C774 C775 1.389 . S
C775 C774 1.389 . S
C775 C776 1.387 . S
C776 H761 0.930 . S
C776 C771 1.390 . S
C776 C775 1.387 . S
H777 C789 0.930 . S
H778 C791 0.930 . S
H779 C792 0.930 . S
H780 C796 0.959 . S
H781 C796 0.959 . S
H782 C796 0.961 . S
H783 C797 0.960 . S
H784 C797 0.961 . S
H785 C797 0.959 . S
H786 C800 0.929 . S
H787 C801 0.931 . S
H788 C803 0.930 . S
C789 H777 0.930 . S
C789 C790 1.399 . S
C789 C794 1.399 . S
C790 C789 1.399 . S
C790 C791 1.376 . S
C791 H778 0.930 . S
C791 C790 1.376 . S
C791 C792 1.388 . S
C792 H779 0.930 . S
C792 C791 1.388 . S
C792 C793 1.390 . S
C793 C792 1.390 . S
C793 C794 1.394 . S
C793 C799 1.465 . S
C794 C789 1.399 . S
C794 C793 1.394 . S
C794 C795 1.516 . S
C795 C794 1.516 . S
C795 C796 1.502 . S
C795 C797 1.561 . S
C795 C798 1.526 . S
C796 H780 0.959 . S
C796 H781 0.959 . S
C796 H782 0.961 . S
C796 C795 1.502 . S
C797 H783 0.960 . S
C797 H784 0.961 . S
C797 H785 0.959 . S
C797 C795 1.561 . S
C798 C795 1.526 . S
C798 C799 1.396 . S
C798 C803 1.390 . S
C799 C793 1.465 . S
C799 C798 1.396 . S
C799 C800 1.399 . S
C800 H786 0.929 . S
C800 C799 1.399 . S
C800 C801 1.385 . S
C801 H787 0.931 . S
C801 C800 1.385 . S
C801 C802 1.389 . S
C802 C801 1.389 . S
C802 C803 1.387 . S
C803 H788 0.930 . S
C803 C798 1.390 . S
C803 C802 1.387 . S
H804 C816 0.930 . S
H805 C818 0.930 . S
H806 C819 0.930 . S
H807 C823 0.977 . S
H808 C823 0.959 1_455 S
H809 C823 0.969 . S
H810 C824 0.960 . S
H811 C824 0.961 . S
H812 C824 0.959 . S
H813 C827 0.929 . S
H814 C828 0.931 . S
H815 C830 0.930 . S
C816 H804 0.930 . S
C816 C817 1.399 . S
C816 C821 1.399 . S
C817 C816 1.399 . S
C817 C818 1.376 . S
C818 H805 0.930 . S
C818 C817 1.376 . S
C818 C819 1.388 . S
C819 H806 0.930 . S
C819 C818 1.388 . S
C819 C820 1.390 . S
C820 C819 1.390 . S
C820 C821 1.394 . S
C820 C826 1.465 . S
C821 C816 1.399 . S
C821 C820 1.394 . S
C821 C822 1.516 . S
C822 C821 1.516 . S
C822 C823 1.478 1_455 S
C822 C824 1.561 . S
C822 C825 1.526 . S
C823 H807 0.977 . S
C823 H808 0.959 1_655 S
C823 H809 0.969 . S
C823 C822 1.478 1_655 S
C824 H810 0.960 . S
C824 H811 0.961 . S
C824 H812 0.959 . S
C824 C822 1.561 . S
C825 C822 1.526 . S
C825 C826 1.396 . S
C825 C830 1.390 . S
C826 C820 1.465 . S
C826 C825 1.396 . S
C826 C827 1.399 . S
C827 H813 0.929 . S
C827 C826 1.399 . S
C827 C828 1.385 . S
C828 H814 0.931 . S
C828 C827 1.385 . S
C828 C829 1.389 . S
C829 C828 1.389 . S
C829 C830 1.387 . S
C830 H815 0.930 . S
C830 C825 1.390 . S
C830 C829 1.387 . S
H831 C843 0.930 . S
H832 C845 0.910 1_565 S
H833 C846 0.930 1_565 S
H834 C850 0.959 . S
H835 C850 0.959 . S
H836 C850 0.961 . S
H837 C851 0.960 . S
H838 C851 0.961 . S
H839 C851 0.959 . S
H840 C854 0.929 . S
H841 C855 0.931 . S
H842 C857 0.930 . S
C843 H831 0.930 . S
C843 C844 1.399 . S
C843 C848 1.399 . S
C844 C843 1.399 . S
C844 C845 1.376 . S
C845 H832 0.910 1_545 S
C845 C844 1.376 . S
C845 C846 1.388 . S
C846 H833 0.930 1_545 S
C846 C845 1.388 . S
C846 C847 1.390 . S
C847 C846 1.390 . S
C847 C848 1.394 . S
C847 C853 1.465 . S
C848 C843 1.399 . S
C848 C847 1.394 . S
C848 C849 1.516 . S
C849 C848 1.516 . S
C849 C850 1.502 . S
C849 C851 1.561 . S
C849 C852 1.526 . S
C850 H834 0.959 . S
C850 H835 0.959 . S
C850 H836 0.961 . S
C850 C849 1.502 . S
C851 H837 0.960 . S
C851 H838 0.961 . S
C851 H839 0.959 . S
C851 C849 1.561 . S
C852 C849 1.526 . S
C852 C853 1.396 . S
C852 C857 1.390 . S
C853 C847 1.465 . S
C853 C852 1.396 . S
C853 C854 1.399 . S
C854 H840 0.929 . S
C854 C853 1.399 . S
C854 C855 1.385 . S
C855 H841 0.931 . S
C855 C854 1.385 . S
C855 C856 1.389 . S
C856 C855 1.389 . S
C856 C857 1.387 . S
C857 H842 0.930 . S
C857 C852 1.390 . S
C857 C856 1.387 . S
H858 C870 0.930 . S
H859 C872 0.930 . S
H860 C873 0.930 . S
H861 C877 0.959 . S
H862 C877 0.959 . S
H863 C877 0.961 . S
H864 C878 0.960 . S
H865 C878 0.961 . S
H866 C878 0.959 . S
H867 C881 0.929 . S
H868 C882 0.931 . S
H869 C884 0.930 . S
C870 H858 0.930 . S
C870 C871 1.399 . S
C870 C875 1.399 . S
C871 C870 1.399 . S
C871 C872 1.376 . S
C872 H859 0.930 . S
C872 C871 1.376 . S
C872 C873 1.388 . S
C873 H860 0.930 . S
C873 C872 1.388 . S
C873 C874 1.390 . S
C874 C873 1.390 . S
C874 C875 1.394 . S
C874 C880 1.465 . S
C875 C870 1.399 . S
C875 C874 1.394 . S
C875 C876 1.516 . S
C876 C875 1.516 . S
C876 C877 1.502 . S
C876 C878 1.561 . S
C876 C879 1.526 . S
C877 H861 0.959 . S
C877 H862 0.959 . S
C877 H863 0.961 . S
C877 C876 1.502 . S
C878 H864 0.960 . S
C878 H865 0.961 . S
C878 H866 0.959 . S
C878 C876 1.561 . S
C879 C876 1.526 . S
C879 C880 1.396 . S
C879 C884 1.390 . S
C880 C874 1.465 . S
C880 C879 1.396 . S
C880 C881 1.399 . S
C881 H867 0.929 . S
C881 C880 1.399 . S
C881 C882 1.385 . S
C882 H868 0.931 . S
C882 C881 1.385 . S
C882 C883 1.389 . S
C883 C882 1.389 . S
C883 C884 1.387 . S
C884 H869 0.930 . S
C884 C879 1.390 . S
C884 C883 1.387 . S
H885 C897 0.930 . S
H886 C899 0.930 . S
H887 C900 0.930 . S
H888 C904 0.959 . S
H889 C904 0.959 . S
H890 C904 0.961 . S
H891 C905 0.960 . S
H892 C905 0.961 . S
H893 C905 0.959 . S
H894 C908 0.929 . S
H895 C909 0.931 . S
H896 C911 0.930 . S
C897 H885 0.930 . S
C897 C898 1.399 1_565 S
C897 C902 1.399 . S
C898 C897 1.399 1_545 S
C898 C899 1.376 . S
C899 H886 0.930 . S
C899 C898 1.376 . S
C899 C900 1.388 . S
C900 H887 0.930 . S
C900 C899 1.388 . S
C900 C901 1.390 . S
C901 C900 1.390 . S
C901 C902 1.394 1_545 S
C901 C907 1.465 . S
C902 C897 1.399 . S
C902 C901 1.394 1_565 S
C902 C903 1.516 . S
C903 C902 1.516 . S
C903 C904 1.502 . S
C903 C905 1.561 . S
C903 C906 1.526 . S
C904 H888 0.959 . S
C904 H889 0.959 . S
C904 H890 0.961 . S
C904 C903 1.502 . S
C905 H891 0.960 . S
C905 H892 0.961 . S
C905 H893 0.959 . S
C905 C903 1.561 . S
C906 C903 1.526 . S
C906 C907 1.396 1_565 S
C906 C911 1.390 . S
C907 C901 1.465 . S
C907 C906 1.396 1_545 S
C907 C908 1.399 . S
C908 H894 0.929 . S
C908 C907 1.399 . S
C908 C909 1.385 . S
C909 H895 0.931 . S
C909 C908 1.385 . S
C909 C910 1.389 . S
C910 C909 1.389 . S
C910 C911 1.387 1_545 S
C911 H896 0.930 . S
C911 C906 1.390 . S
C911 C910 1.387 1_565 S
H912 C924 0.930 . S
H913 C926 0.930 . S
H914 C927 0.930 . S
H915 C931 0.959 . S
H916 C931 0.959 . S
H917 C931 0.961 . S
H918 C932 0.960 . S
H919 C932 0.961 . S
H920 C932 0.959 . S
H921 C935 0.929 . S
H922 C936 0.931 . S
H923 C938 0.930 . S
C924 H912 0.930 . S
C924 C925 1.399 . S
C924 C929 1.399 . S
C925 C924 1.399 . S
C925 C926 1.376 . S
C926 H913 0.930 . S
C926 C925 1.376 . S
C926 C927 1.388 . S
C927 H914 0.930 . S
C927 C926 1.388 . S
C927 C928 1.390 . S
C928 C927 1.390 . S
C928 C929 1.394 . S
C928 C934 1.465 . S
C929 C924 1.399 . S
C929 C928 1.394 . S
C929 C930 1.516 . S
C930 C929 1.516 . S
C930 C931 1.502 . S
C930 C932 1.561 . S
C930 C933 1.526 . S
C931 H915 0.959 . S
C931 H916 0.959 . S
C931 H917 0.961 . S
C931 C930 1.502 . S
C932 H918 0.960 . S
C932 H919 0.961 . S
C932 H920 0.959 . S
C932 C930 1.561 . S
C933 C930 1.526 . S
C933 C934 1.396 . S
C933 C938 1.390 . S
C934 C928 1.465 . S
C934 C933 1.396 . S
C934 C935 1.399 . S
C935 H921 0.929 . S
C935 C934 1.399 . S
C935 C936 1.385 . S
C936 H922 0.931 . S
C936 C935 1.385 . S
C936 C937 1.389 . S
C937 C936 1.389 . S
C937 C938 1.387 . S
C938 H923 0.930 . S
C938 C933 1.390 . S
C938 C937 1.387 . S
H939 C951 0.930 . S
H940 C953 0.930 . S
H941 C954 0.930 . S
H942 C958 0.959 . S
H943 C958 0.959 . S
H944 C958 0.961 . S
H945 C959 0.960 . S
H946 C959 0.961 . S
H947 C959 0.959 1_455 S
H948 C962 0.929 . S
H949 C963 0.931 . S
H950 C965 0.930 . S
C951 H939 0.930 . S
C951 C952 1.399 1_655 S
C951 C956 1.399 . S
C952 C951 1.399 1_455 S
C952 C953 1.376 . S
C953 H940 0.930 . S
C953 C952 1.376 . S
C953 C954 1.388 . S
C954 H941 0.930 . S
C954 C953 1.388 . S
C954 C955 1.390 . S
C955 C954 1.390 . S
C955 C956 1.394 1_455 S
C955 C961 1.465 . S
C956 C951 1.399 . S
C956 C955 1.394 1_655 S
C956 C957 1.516 . S
C957 C956 1.516 . S
C957 C958 1.502 . S
C957 C959 1.561 . S
C957 C960 1.526 . S
C958 H942 0.959 . S
C958 H943 0.959 . S
C958 H944 0.961 . S
C958 C957 1.502 . S
C959 H945 0.960 . S
C959 H946 0.961 . S
C959 H947 0.959 1_655 S
C959 C957 1.561 . S
C960 C957 1.526 . S
C960 C961 1.396 1_655 S
C960 C965 1.390 . S
C961 C955 1.465 . S
C961 C960 1.396 1_455 S
C961 C962 1.399 . S
C962 H948 0.929 . S
C962 C961 1.399 . S
C962 C963 1.385 . S
C963 H949 0.931 . S
C963 C962 1.385 . S
C963 C964 1.389 1_455 S
C964 C963 1.389 1_655 S
C964 C965 1.387 . S
C965 H950 0.930 . S
C965 C960 1.390 . S
C965 C964 1.387 . S
C493 C24 2.927 . S
C505 C451 2.920 . S
C520 C66 1.115 . S
C532 C301 1.107 . S
C547 C93 1.820 . S
C559 C361 1.648 . S
C574 C13 3.073 . S
C586 C421 2.875 . S
C613 C331 1.300 . S
C601 C57 1.305 . S
C640 C391 1.957 . S
C628 C104 1.972 . S
C655 C64 1.942 . S
C667 C181 1.822 . S
C682 C97 0.491 . S
C694 C271 0.532 . S
C709 C17 1.286 . S
C721 C151 1.296 . S
C748 C211 1.816 . S
C736 C53 1.841 . S
C775 C241 0.260 . S
C763 C106 0.300 . S
C790 C26 1.129 . S
C802 C121 1.103 . S
C829 C260 1.077 1_554 S
C817 C2 1.045 . S
C844 C63 1.477 . S
C856 C140 1.478 . S
C871 C82 1.377 . S
C883 C200 1.321 . S
C910 C380 1.376 . S
C898 C42 1.352 . S
C937 C440 1.748 1_556 S
C925 C103 1.764 . S
C952 C23 1.440 . S
C964 C320 1.439 1_655 S
