# Generated by pormake.
# Topology pyr, (3,6)-cn, num edge types: 1
# Building blocks:
#     Node 0, Type 0, BuildingBlock: BELTOD_clean_linker_0, # of connection points: 3
#     Node 1, Type 0, BuildingBlock: BELTOD_clean_linker_0, # of connection points: 3
#     Node 2, Type 0, BuildingBlock: BELTOD_clean_linker_0, # of connection points: 3
#     Node 3, Type 0, BuildingBlock: BELTOD_clean_linker_0, # of connection points: 3
#     Node 4, Type 0, BuildingBlock: BELTOD_clean_linker_0, # of connection points: 3
#     Node 5, Type 0, BuildingBlock: BELTOD_clean_linker_0, # of connection points: 3
#     Node 6, Type 0, BuildingBlock: BELTOD_clean_linker_0, # of connection points: 3
#     Node 7, Type 0, BuildingBlock: BELTOD_clean_linker_0, # of connection points: 3
#     Node 8, Type 1, BuildingBlock: LEVNOQ01_clean_sbu_1, # of connection points: 6
#     Node 9, Type 1, BuildingBlock: LEVNOQ01_clean_sbu_1, # of connection points: 6
#     Node 10, Type 1, BuildingBlock: LEVNOQ01_clean_sbu_1, # of connection points: 6
#     Node 11, Type 1, BuildingBlock: LEVNOQ01_clean_sbu_1, # of connection points: 6
#     Edge 12, Type (0, 1), BuildingBlock: OJICUG_clean_linker_0, # of connection points: 2
#     Edge 13, Type (0, 1), BuildingBlock: OJICUG_clean_linker_0, # of connection points: 2
#     Edge 14, Type (0, 1), BuildingBlock: OJICUG_clean_linker_0, # of connection points: 2
#     Edge 15, Type (0, 1), BuildingBlock: OJICUG_clean_linker_0, # of connection points: 2
#     Edge 16, Type (0, 1), BuildingBlock: OJICUG_clean_linker_0, # of connection points: 2
#     Edge 17, Type (0, 1), BuildingBlock: OJICUG_clean_linker_0, # of connection points: 2
#     Edge 18, Type (0, 1), BuildingBlock: OJICUG_clean_linker_0, # of connection points: 2
#     Edge 19, Type (0, 1), BuildingBlock: OJICUG_clean_linker_0, # of connection points: 2
#     Edge 20, Type (0, 1), BuildingBlock: OJICUG_clean_linker_0, # of connection points: 2
#     Edge 21, Type (0, 1), BuildingBlock: OJICUG_clean_linker_0, # of connection points: 2
#     Edge 22, Type (0, 1), BuildingBlock: OJICUG_clean_linker_0, # of connection points: 2
#     Edge 23, Type (0, 1), BuildingBlock: OJICUG_clean_linker_0, # of connection points: 2
#     Edge 24, Type (0, 1), BuildingBlock: OJICUG_clean_linker_0, # of connection points: 2
#     Edge 25, Type (0, 1), BuildingBlock: OJICUG_clean_linker_0, # of connection points: 2
#     Edge 26, Type (0, 1), BuildingBlock: OJICUG_clean_linker_0, # of connection points: 2
#     Edge 27, Type (0, 1), BuildingBlock: OJICUG_clean_linker_0, # of connection points: 2
#     Edge 28, Type (0, 1), BuildingBlock: OJICUG_clean_linker_0, # of connection points: 2
#     Edge 29, Type (0, 1), BuildingBlock: OJICUG_clean_linker_0, # of connection points: 2
#     Edge 30, Type (0, 1), BuildingBlock: OJICUG_clean_linker_0, # of connection points: 2
#     Edge 31, Type (0, 1), BuildingBlock: OJICUG_clean_linker_0, # of connection points: 2
#     Edge 32, Type (0, 1), BuildingBlock: OJICUG_clean_linker_0, # of connection points: 2
#     Edge 33, Type (0, 1), BuildingBlock: OJICUG_clean_linker_0, # of connection points: 2
#     Edge 34, Type (0, 1), BuildingBlock: OJICUG_clean_linker_0, # of connection points: 2
#     Edge 35, Type (0, 1), BuildingBlock: OJICUG_clean_linker_0, # of connection points: 2
# Relax obj value: 0.036
# Max RMSD: 0.107
# Mean RMSD: 0.051
data_MOF--net-pry--node1-LEVNOQ01_clean_sbu_1--node2-BELTOD_clean_linker_0--edge1-OJICUG_clean_linker_0
_symmetry_space_group_name_H-M    P1
_symmetry_Int_Tables_number       1
_symmetry_cell_setting            triclinic
loop_
_symmetry_equiv_pos_as_xyz
'x, y, z'
_cell_length_a     32.742124
_cell_length_b     31.642711
_cell_length_c     31.095251
_cell_angle_alpha  92.125061
_cell_angle_beta   91.910804
_cell_angle_gamma 93.865601
loop_
_atom_site_label
_atom_site_type_symbol
_atom_site_fract_x
_atom_site_fract_y
_atom_site_fract_z
_atom_type_partial_charge
P0 P 0.16588 0.16684 0.15442 0.0
H1 H 0.2231 0.18273 0.08691 0.0
H2 H 0.2673 0.13742 0.04716 0.0
H3 H 0.21026 0.0272 0.10453 0.0
H4 H 0.16488 0.07277 0.14332 0.0
H5 H 0.12626 0.24154 0.18272 0.0
H6 H 0.08407 0.29095 0.14595 0.0
H7 H 0.09136 0.21819 0.02669 0.0
H8 H 0.13297 0.1678 0.06402 0.0
H9 H 0.19716 0.11044 0.21731 0.0
H10 H 0.08213 0.16422 0.18908 0.0
O11 O 0.20322 0.1992 0.17767 0.0
H12 H 0.16733 0.07521 0.27877 0.0
H13 H 0.05267 0.13028 0.25171 0.0
C14 C 0.19107 0.13138 0.11859 0.0
C15 C 0.21924 0.14873 0.09009 0.0
C16 C 0.24445 0.1227 0.06727 0.0
C17 C 0.24231 0.07866 0.07277 0.0
C18 C 0.2127 0.06101 0.09983 0.0
C19 C 0.18687 0.08714 0.12213 0.0
C20 C 0.13247 0.20074 0.12634 0.0
C21 C 0.11842 0.23581 0.14878 0.0
C22 C 0.0944 0.26407 0.12774 0.0
C23 C 0.08442 0.25828 0.08352 0.0
C24 C 0.09876 0.22336 0.06077 0.0
C25 C 0.12236 0.19453 0.08215 0.0
C26 C 0.14182 0.13948 0.19807 0.0
C27 C 0.16543 0.11456 0.22421 0.0
C28 C 0.14846 0.09465 0.25948 0.0
C29 C 0.10778 0.10023 0.27019 0.0
C30 C 0.08426 0.12581 0.24445 0.0
C31 C 0.10105 0.14502 0.20846 0.0
P32 P 0.39263 0.91669 0.57545 0.0
H33 H 0.46479 0.9521 0.62632 0.0
H34 H 0.47657 0.9703 0.70322 0.0
H35 H 0.34964 0.93373 0.72515 0.0
H36 H 0.33851 0.91453 0.6488 0.0
H37 H 0.44073 0.87473 0.51028 0.0
H38 H 0.45989 0.80148 0.50024 0.0
H39 H 0.39028 0.7665 0.61066 0.0
H40 H 0.37208 0.83961 0.62092 0.0
H41 H 0.34571 0.99068 0.57641 0.0
H42 H 0.3235 0.85768 0.54131 0.0
O43 O 0.42261 0.94856 0.54649 0.0
H44 H 0.27265 0.00036 0.56603 0.0
H45 H 0.2501 0.86753 0.53062 0.0
C46 C 0.4007 0.93241 0.6317 0.0
C47 C 0.43944 0.94844 0.64767 0.0
C48 C 0.44603 0.9592 0.6916 0.0
C49 C 0.41399 0.95373 0.7204 0.0
C50 C 0.37506 0.93815 0.70398 0.0
C51 C 0.36859 0.92731 0.66019 0.0
C52 C 0.40571 0.86271 0.56692 0.0
C53 C 0.42972 0.85125 0.53236 0.0
C54 C 0.44039 0.80933 0.52641 0.0
C55 C 0.42709 0.77829 0.55496 0.0
C56 C 0.40184 0.78983 0.58867 0.0
C57 C 0.39133 0.83161 0.59459 0.0
C58 C 0.34004 0.92353 0.55995 0.0
C59 C 0.32526 0.96376 0.5656 0.0
C60 C 0.2836 0.96925 0.5597 0.0
C61 C 0.25598 0.93464 0.54763 0.0
C62 C 0.27096 0.89467 0.53965 0.0
C63 C 0.31284 0.88908 0.546 0.0
P64 P 0.67772 0.3206 0.81595 0.0
H65 H 0.74937 0.29974 0.86509 0.0
H66 H 0.7885 0.33519 0.92494 0.0
H67 H 0.69819 0.42869 0.93431 0.0
H68 H 0.65998 0.39339 0.87246 0.0
H69 H 0.64555 0.24085 0.77292 0.0
H70 H 0.60469 0.17936 0.79919 0.0
H71 H 0.59333 0.24687 0.92082 0.0
H72 H 0.6329 0.30803 0.89467 0.0
H73 H 0.70624 0.38173 0.75403 0.0
H74 H 0.59207 0.34183 0.81053 0.0
O75 O 0.71274 0.29999 0.78514 0.0
H76 H 0.66929 0.42422 0.70308 0.0
H77 H 0.55521 0.38397 0.75979 0.0
C78 C 0.70328 0.34542 0.86303 0.0
C79 C 0.738 0.32786 0.88008 0.0
C80 C 0.75983 0.34774 0.91518 0.0
C81 C 0.74704 0.3855 0.93416 0.0
C82 C 0.70954 0.40036 0.91974 0.0
C83 C 0.68791 0.38055 0.88415 0.0
C84 C 0.64341 0.27824 0.83244 0.0
C85 C 0.63397 0.24238 0.80512 0.0
C86 C 0.61078 0.20747 0.81995 0.0
C87 C 0.59716 0.20848 0.86217 0.0
C88 C 0.60449 0.24539 0.8884 0.0
C89 C 0.62715 0.28022 0.87348 0.0
C90 C 0.6516 0.35761 0.78483 0.0
C91 C 0.67332 0.38253 0.75574 0.0
C92 C 0.65234 0.40681 0.72684 0.0
C93 C 0.60948 0.40616 0.72691 0.0
C94 C 0.58824 0.38388 0.75847 0.0
C95 C 0.60923 0.35989 0.78744 0.0
P96 P 0.83308 0.64734 0.36969 0.0
H97 H 0.89375 0.7125 0.34837 0.0
H98 H 0.94525 0.75618 0.39086 0.0
H99 H 0.91137 0.69026 0.50494 0.0
H100 H 0.86025 0.64517 0.46152 0.0
H101 H 0.79559 0.59381 0.299 0.0
H102 H 0.82491 0.56111 0.23507 0.0
H103 H 0.94655 0.59757 0.28683 0.0
H104 H 0.91778 0.6281 0.35117 0.0
H105 H 0.75893 0.67288 0.4078 0.0
H106 H 0.82935 0.56262 0.40629 0.0
O107 O 0.80808 0.68296 0.34283 0.0
H108 H 0.70795 0.63687 0.45067 0.0
H109 H 0.77876 0.5262 0.45119 0.0
C110 C 0.87291 0.67612 0.40188 0.0
C111 C 0.89791 0.70679 0.38233 0.0
C112 C 0.92778 0.73126 0.40658 0.0
C113 C 0.93274 0.72605 0.45113 0.0
C114 C 0.90847 0.69438 0.47058 0.0
C115 C 0.87901 0.66906 0.44588 0.0
C116 C 0.85439 0.61392 0.32956 0.0
C117 C 0.82856 0.59375 0.29706 0.0
C118 C 0.84519 0.57555 0.26054 0.0
C119 C 0.88774 0.57819 0.25599 0.0
C120 C 0.91357 0.59625 0.2895 0.0
C121 C 0.89701 0.61357 0.3263 0.0
C122 C 0.79706 0.61985 0.40279 0.0
C123 C 0.7635 0.64083 0.41705 0.0
C124 C 0.73469 0.62036 0.4424 0.0
C125 C 0.73909 0.57849 0.4546 0.0
C126 C 0.77408 0.55822 0.44193 0.0
C127 C 0.80291 0.57884 0.41617 0.0
P128 P 0.88223 0.9023 0.91507 0.0
H129 H 0.85128 0.9512 0.98755 0.0
H130 H 0.78408 0.97666 0.00236 0.0
H131 H 0.73398 0.91109 0.88598 0.0
H132 H 0.80156 0.88673 0.87095 0.0
H133 H 0.95175 0.86966 0.9625 0.0
H134 H 0.96905 0.79809 0.9801 0.0
H135 H 0.85327 0.74752 0.92287 0.0
H136 H 0.83581 0.81934 0.90579 0.0
H137 H 0.89041 0.97627 0.86304 0.0
H138 H 0.88933 0.84088 0.84113 0.0
O139 O 0.91604 0.93718 0.94064 0.0
H140 H 0.90186 0.98641 0.78698 0.0
H141 H 0.89981 0.85067 0.76443 0.0
C142 C 0.83157 0.9174 0.92789 0.0
C143 C 0.82581 0.94226 0.96523 0.0
C144 C 0.78725 0.95678 0.97373 0.0
C145 C 0.75351 0.94657 0.9451 0.0
C146 C 0.75935 0.92062 0.90823 0.0
C147 C 0.79794 0.90619 0.89978 0.0
C148 C 0.89237 0.84997 0.93281 0.0
C149 C 0.92962 0.84335 0.9545 0.0
C150 C 0.93948 0.80239 0.96484 0.0
C151 C 0.91254 0.76715 0.95298 0.0
C152 C 0.87467 0.77407 0.93244 0.0
C153 C 0.86462 0.81509 0.92264 0.0
C154 C 0.88936 0.90792 0.85802 0.0
C155 C 0.89232 0.94864 0.84174 0.0
C156 C 0.89845 0.95434 0.798 0.0
C157 C 0.90142 0.91932 0.76921 0.0
C158 C 0.89792 0.87837 0.7856 0.0
C159 C 0.8918 0.87272 0.82958 0.0
P160 P 0.66561 0.18181 0.36509 0.0
H161 H 0.67834 0.25037 0.4295 0.0
H162 H 0.63088 0.29408 0.46623 0.0
H163 H 0.52958 0.20834 0.4187 0.0
H164 H 0.57744 0.16544 0.38105 0.0
H165 H 0.75259 0.18137 0.35051 0.0
H166 H 0.80654 0.14013 0.37964 0.0
H167 H 0.7217 0.0818 0.46654 0.0
H168 H 0.66703 0.12371 0.43716 0.0
H169 H 0.60983 0.20031 0.29572 0.0
H170 H 0.66143 0.08879 0.34426 0.0
O171 O 0.68766 0.22223 0.33936 0.0
H172 H 0.57282 0.15698 0.23861 0.0
H173 H 0.62441 0.04507 0.2863 0.0
C174 C 0.63144 0.20511 0.402 0.0
C175 C 0.646 0.24038 0.42794 0.0
C176 C 0.61867 0.26529 0.44918 0.0
C177 C 0.57612 0.25522 0.44507 0.0
C178 C 0.56201 0.21764 0.42189 0.0
C179 C 0.58944 0.19285 0.40047 0.0
C180 C 0.70588 0.15576 0.39187 0.0
C181 C 0.74557 0.16052 0.37648 0.0
C182 C 0.77645 0.13702 0.39315 0.0
C183 C 0.76815 0.10814 0.42538 0.0
C184 C 0.7288 0.10443 0.44211 0.0
C185 C 0.69768 0.12809 0.42526 0.0
C186 C 0.63832 0.1479 0.32425 0.0
C187 C 0.61311 0.16645 0.29414 0.0
C188 C 0.59192 0.14166 0.26161 0.0
C189 C 0.59563 0.09769 0.25828 0.0
C190 C 0.62115 0.07891 0.28823 0.0
C191 C 0.64216 0.10388 0.32134 0.0
P192 P 0.37891 0.62856 0.10701 0.0
H193 H 0.34217 0.5989 0.02297 0.0
H194 H 0.27234 0.57105 0.00074 0.0
H195 H 0.23324 0.59445 0.13019 0.0
H196 H 0.30235 0.62264 0.15199 0.0
H197 H 0.45217 0.68123 0.09158 0.0
H198 H 0.4676 0.75751 0.09462 0.0
H199 H 0.34226 0.77663 0.12554 0.0
H200 H 0.32702 0.69949 0.1227 0.0
H201 H 0.35889 0.54979 0.14909 0.0
H202 H 0.41946 0.67234 0.18415 0.0
O203 O 0.41154 0.60491 0.07548 0.0
H204 H 0.37528 0.52561 0.22093 0.0
H205 H 0.43682 0.64785 0.25525 0.0
C206 C 0.32743 0.61189 0.08931 0.0
C207 C 0.3184 0.5983 0.04638 0.0
C208 C 0.27866 0.58258 0.03369 0.0
C209 C 0.24783 0.58016 0.064 0.0
C210 C 0.25676 0.59542 0.10647 0.0
C211 C 0.29616 0.61148 0.11892 0.0
C212 C 0.3882 0.6849 0.10548 0.0
C213 C 0.42792 0.70176 0.09876 0.0
C214 C 0.43688 0.74538 0.10153 0.0
C215 C 0.40624 0.77303 0.11118 0.0
C216 C 0.36646 0.756 0.11844 0.0
C217 C 0.35763 0.71207 0.11616 0.0
C218 C 0.38782 0.61279 0.16119 0.0
C219 C 0.37518 0.57165 0.17235 0.0
C220 C 0.38449 0.55793 0.21335 0.0
C221 C 0.40738 0.58493 0.24351 0.0
C222 C 0.41863 0.62666 0.23284 0.0
C223 C 0.40906 0.64046 0.19187 0.0
P224 P 0.14855 0.34881 0.63102 0.0
H225 H 0.15874 0.2749 0.57667 0.0
H226 H 0.11153 0.22621 0.53508 0.0
H227 H 0.011 0.30094 0.57063 0.0
H228 H 0.05944 0.34981 0.61329 0.0
H229 H 0.20275 0.424 0.6508 0.0
H230 H 0.24952 0.4642 0.60556 0.0
H231 H 0.19411 0.39794 0.49224 0.0
H232 H 0.14624 0.35907 0.53712 0.0
H233 H 0.13364 0.31238 0.71373 0.0
H234 H 0.11518 0.43049 0.65347 0.0
O235 O 0.18655 0.31978 0.64701 0.0
H236 H 0.10676 0.3403 0.78065 0.0
H237 H 0.08764 0.45851 0.72008 0.0
C238 C 0.11223 0.31469 0.59949 0.0
C239 C 0.12654 0.28088 0.57552 0.0
C240 C 0.09943 0.25359 0.55073 0.0
C241 C 0.05716 0.25944 0.54936 0.0
C242 C 0.04326 0.29528 0.57124 0.0
C243 C 0.07074 0.32288 0.59604 0.0
C244 C 0.17105 0.38845 0.59755 0.0
C245 C 0.1992 0.41964 0.61612 0.0
C246 C 0.22586 0.4426 0.59021 0.0
C247 C 0.22524 0.43391 0.5455 0.0
C248 C 0.19492 0.40518 0.5266 0.0
C249 C 0.1677 0.38283 0.55248 0.0
C250 C 0.12694 0.36967 0.67901 0.0
C251 C 0.12379 0.34439 0.71498 0.0
C252 C 0.10836 0.36031 0.75315 0.0
C253 C 0.09558 0.40178 0.75585 0.0
C254 C 0.09818 0.42678 0.71936 0.0
C255 C 0.11358 0.41075 0.68115 0.0
O256 O 0.98635 0.00451 0.62656 0.0
Mg257 Mg 0.02798 0.03481 0.58758 0.0
O258 O 0.96368 0.96329 0.57062 0.0
Mg259 Mg -0.00608 0.99115 0.50681 0.0
O260 O 0.00382 0.06075 0.53365 0.0
O261 O 0.02838 0.09824 0.59283 0.0
O262 O 0.02348 0.01928 0.44324 0.0
O263 O 0.9282 0.01145 0.4865 0.0
Mg264 Mg 0.96251 0.94436 0.42353 0.0
O265 O 0.98307 0.92192 0.48045 0.0
O266 O 0.00829 0.97403 0.3882 0.0
O267 O 0.90711 0.97362 0.42775 0.0
O268 O 0.96114 0.88048 0.42311 0.0
C269 C 0.08965 0.98173 0.55244 0.0
C270 C 0.96372 0.97354 0.61095 0.0
C271 C 0.01168 0.09688 0.55456 0.0
C272 C 0.02728 0.0075 0.40373 0.0
C273 C 0.90111 0.00164 0.45658 0.0
C274 C 0.97585 0.88448 0.4622 0.0
O275 O 0.08472 0.0095 0.58172 0.0
O276 O 0.06084 0.97113 0.52458 0.0
O277 O 0.40648 0.07606 0.02534 0.0
Mg278 Mg 0.46731 0.09876 0.03443 0.0
O279 O 0.41977 0.00826 0.01576 0.0
Mg280 Mg 0.49096 0.00451 0.00016 0.0
O281 O 0.49861 0.07392 0.98579 0.0
O282 O 0.49238 0.1431 -0.00609 0.0
O283 O 0.56184 -0.00053 0.98462 0.0
O284 O 0.4696 0.99201 0.92654 0.0
Mg285 Mg 0.50936 0.91017 0.96294 0.0
O286 O 0.48259 0.9353 0.01488 0.0
O287 O 0.5712 0.93248 0.96456 0.0
O288 O 0.47362 0.92364 0.90867 0.0
O289 O 0.48766 0.86608 0.00527 0.0
C290 C 0.51197 0.04876 0.10128 0.0
C291 C 0.39452 0.0372 0.02128 0.0
C292 C 0.50614 0.11168 0.97261 0.0
C293 C 0.58516 0.97029 0.97311 0.0
C294 C 0.46329 0.96028 0.8997 0.0
C295 C 0.4751 0.89741 0.02775 0.0
O296 O 0.49642 0.08321 0.09243 0.0
O297 O 0.51267 0.01798 0.07334 0.0
O298 O 0.44942 0.58508 0.58353 0.0
Mg299 Mg 0.44337 0.52064 0.59369 0.0
O300 O 0.47309 0.57917 0.51759 0.0
Mg301 Mg 0.486 0.50611 0.5059 0.0
O302 O 0.49528 0.49404 0.57788 0.0
O303 O 0.47372 0.49863 0.64539 0.0
O304 O 0.5001 0.43088 0.50342 0.0
O305 O 0.55541 0.52722 0.50803 0.0
Mg306 Mg 0.50642 0.47259 0.44402 0.0
O307 O 0.47495 0.52372 0.43101 0.0
O308 O 0.47186 0.4141 0.44075 0.0
O309 O 0.56922 0.47492 0.46453 0.0
O310 O 0.5098 0.48727 0.38274 0.0
C311 C 0.38642 0.47942 0.52684 0.0
C312 C 0.46098 0.60179 0.54923 0.0
C313 C 0.50046 0.48726 0.6185 0.0
C314 C 0.4874 0.40212 0.47528 0.0
C315 C 0.58173 0.50536 0.49006 0.0
C316 C 0.48494 0.51592 0.39142 0.0
O317 O 0.39116 0.48725 0.56693 0.0
O318 O 0.41574 0.48566 0.50136 0.0
O319 O 0.97266 0.41143 0.05366 0.0
Mg320 Mg 0.00295 0.47253 0.06313 0.0
O321 O 0.01567 0.42859 0.00556 0.0
Mg322 Mg -0.00957 0.5004 0.00094 0.0
O323 O 0.96897 0.52185 0.07303 0.0
O324 O -0.00617 0.48242 0.12549 0.0
O325 O 0.96807 0.57242 0.99032 0.0
O326 O 0.92457 0.46831 -0.00492 0.0
Mg327 Mg 0.96219 0.51826 0.92448 0.0
O328 O 0.01002 0.48046 0.93062 0.0
O329 O 0.97785 0.58196 0.92204 0.0
O330 O 0.90122 0.50157 0.93998 0.0
O331 O 0.97515 0.49004 0.86827 0.0
C332 C 0.08126 0.51266 0.03507 0.0
C333 C -0.0016 0.39971 0.02756 0.0
C334 C 0.97161 0.51204 0.11332 0.0
C335 C 0.96946 0.59712 0.95837 0.0
C336 C 0.89473 0.47792 0.97115 0.0
C337 C 0.00518 0.47483 0.88901 0.0
O338 O 0.06784 0.48308 0.05823 0.0
O339 O 0.05616 0.53044 0.01078 0.0
C340 C 0.09261 0.03384 0.30947 0.0
C341 C 0.08964 0.07771 0.30691 0.0
H342 H 0.07538 0.97757 0.34239 0.0
C343 C 0.06887 0.09927 0.33904 0.0
H344 H 0.10822 0.01637 0.2851 0.0
C345 C 0.0508 0.07708 0.3727 0.0
C346 C 0.05245 0.03288 0.37405 0.0
H347 H 0.06635 0.13317 0.3379 0.0
H348 H 0.03391 0.09409 0.39634 0.0
C349 C 0.0739 0.01168 0.34234 0.0
C350 C 0.44815 -0.00581 0.78526 0.0
C351 C 0.42199 0.96018 0.76774 0.0
H352 H 0.48098 0.02183 0.84176 0.0
C353 C 0.40561 0.93002 0.79563 0.0
H354 H 0.46098 0.01816 0.76466 0.0
C355 C 0.41697 0.93222 0.83928 0.0
C356 C 0.44468 0.9648 0.85638 0.0
H357 H 0.3858 0.90318 0.78338 0.0
H358 H 0.40551 0.90715 0.85943 0.0
C359 C 0.45918 -0.00334 0.82939 0.0
C360 C 0.55401 0.40225 0.67026 0.0
C361 C 0.58635 0.42598 0.69257 0.0
H362 H 0.50182 0.40361 0.62714 0.0
C363 C 0.59461 0.46877 0.68348 0.0
H364 H 0.54752 0.36903 0.67637 0.0
C365 C 0.56855 0.48839 0.6551 0.0
C366 C 0.53474 0.46508 0.63509 0.0
H367 H 0.61946 0.48756 0.70034 0.0
H368 H 0.57312 0.52223 0.65108 0.0
C369 C 0.52837 0.42171 0.64166 0.0
C370 C 0.92815 0.59012 0.19044 0.0
C371 C 0.90553 0.56231 0.21638 0.0
H372 H 0.96632 0.59586 0.13565 0.0
C373 C 0.902 0.51887 0.20581 0.0
H374 H 0.9311 0.62384 0.1984 0.0
C375 C 0.92247 0.50308 0.17084 0.0
C376 C 0.94595 0.53061 0.14549 0.0
H377 H 0.88486 0.49704 0.22563 0.0
H378 H 0.92081 0.46912 0.16417 0.0
C379 C 0.94794 0.57434 0.15467 0.0
C380 C 0.29846 0.02887 0.08048 0.0
C381 C 0.27418 0.05295 0.05387 0.0
H382 H 0.35686 0.00278 0.08971 0.0
C383 C 0.28578 0.05905 0.01134 0.0
H384 H 0.29036 0.02377 0.11347 0.0
C385 C 0.32348 0.04645 -0.00236 0.0
C386 C 0.35033 0.02766 0.0262 0.0
H387 H 0.26745 0.07706 0.98998 0.0
H388 H 0.33374 0.05608 0.96648 0.0
C389 C 0.33641 0.01638 0.06673 0.0
C390 C 0.19556 0.95451 0.58738 0.0
C391 C 0.21156 0.94013 0.54872 0.0
H392 H 0.14442 0.97792 0.61884 0.0
C393 C 0.18575 0.9346 0.5116 0.0
H394 H 0.21476 0.95835 0.61653 0.0
C395 C 0.14501 0.94604 0.51276 0.0
C396 C 0.1299 0.96305 0.55109 0.0
H397 H 0.1976 0.92342 0.48144 0.0
H398 H 0.12611 0.94354 0.48339 0.0
C399 C 0.15528 0.96574 0.58859 0.0
C400 C 0.78222 0.45654 0.95064 0.0
C401 C 0.77735 0.4135 0.96034 0.0
H402 H 0.82395 0.51087 0.94679 0.0
C403 C 0.80827 0.39614 0.9854 0.0
H404 H 0.75907 0.4715 0.93208 0.0
C405 C 0.84613 0.41882 0.99319 0.0
C406 C 0.85296 0.45916 0.97647 0.0
H407 H 0.80481 0.36354 -0.00508 0.0
H408 H 0.87099 0.40321 0.00834 0.0
C409 C 0.81981 0.47908 0.95849 0.0
C410 C 0.69226 0.51329 0.46058 0.0
C411 C 0.70443 0.55497 0.47505 0.0
H412 H 0.64398 0.46446 0.45497 0.0
C413 C 0.679 0.57612 0.50317 0.0
H414 H 0.71098 0.49579 0.43915 0.0
C415 C 0.63992 0.55837 0.51159 0.0
C416 C 0.62591 0.51895 0.49243 0.0
H417 H 0.68808 0.60771 0.51618 0.0
H418 H 0.61974 0.5769 0.53035 0.0
C419 C 0.65348 0.49541 0.46936 0.0
C420 C 0.07368 0.31332 0.02836 0.0
C421 C 0.05882 0.28897 0.06218 0.0
H422 H 0.06595 0.36778 0.99022 0.0
C423 C 0.02091 0.29734 0.07906 0.0
H424 H 0.10293 0.30745 0.01484 0.0
C425 C -0.00053 0.33102 0.06454 0.0
C426 C 0.01582 0.35793 0.03335 0.0
H427 H 0.00866 0.27885 0.10492 0.0
H428 H 0.97127 0.33759 0.07996 0.0
C429 C 0.05245 0.34774 0.0142 0.0
C430 C 0.53444 0.16182 0.87145 0.0
C431 C 0.57631 0.17126 0.88052 0.0
H432 H 0.47854 0.13329 0.89452 0.0
C433 C 0.59601 0.15144 0.91428 0.0
H434 H 0.51881 0.17731 0.8458 0.0
C435 C 0.57322 0.12589 0.94158 0.0
C436 C 0.53064 0.12047 0.93542 0.0
H437 H 0.62829 0.1589 0.92187 0.0
H438 H 0.58817 0.11443 0.97008 0.0
C439 C 0.51158 0.13662 0.89908 0.0
C440 C 0.93625 0.78617 0.5043 0.0
C441 C 0.95717 0.75951 0.47684 0.0
H442 H 0.92795 0.85068 0.5231 0.0
C443 C -0.00454 0.77418 0.46214 0.0
H444 H 0.90686 0.77544 0.51647 0.0
C445 C 0.00756 0.8173 0.46614 0.0
C446 C 0.98142 0.84553 0.48485 0.0
H447 H 0.01245 0.75396 0.44144 0.0
H448 H 0.03333 0.82921 0.44805 0.0
C449 C 0.94845 0.82938 0.50831 0.0
C450 C 0.44078 0.71167 0.51138 0.0
C451 C 0.44058 0.73437 0.55128 0.0
H452 H 0.44783 0.65129 0.47894 0.0
C453 C 0.45221 0.71432 0.58877 0.0
H454 H 0.43211 0.72642 0.48187 0.0
C455 C 0.46122 0.67202 0.58704 0.0
C456 C 0.45898 0.64832 0.54776 0.0
H457 H 0.45357 0.73114 0.61983 0.0
H458 H 0.46872 0.65741 0.61701 0.0
C459 C 0.44993 0.66881 0.50962 0.0
C460 C 0.93883 0.90266 0.70137 0.0
C461 C 0.91014 0.92622 0.72295 0.0
H462 H 0.97766 0.89863 0.64715 0.0
C463 C 0.89301 0.95952 0.70138 0.0
H464 H 0.9529 0.877 0.717 0.0
C465 C 0.90709 0.97161 0.66137 0.0
C466 C 0.93814 0.95033 0.64159 0.0
H467 H 0.87028 0.97785 0.7165 0.0
H468 H 0.89601 -0.00022 0.64748 0.0
C469 C 0.95279 0.91473 0.6611 0.0
C470 C 0.53016 0.07659 0.21815 0.0
C471 C 0.57245 0.0727 0.22311 0.0
H472 H 0.47751 0.07043 0.17537 0.0
C473 C 0.59276 0.05142 0.19047 0.0
H474 H 0.51379 0.09256 0.24299 0.0
C475 C 0.5718 0.03847 0.15147 0.0
C476 C 0.53046 0.04679 0.14503 0.0
H477 H 0.62544 0.0482 0.1936 0.0
H478 H 0.58878 0.02585 0.12517 0.0
C479 C 0.50941 0.06376 0.17954 0.0
C480 C 0.42556 0.58957 0.32311 0.0
C481 C 0.42488 0.56754 0.28287 0.0
H482 H 0.44506 0.59028 0.38998 0.0
C483 C 0.4439 0.52935 0.27915 0.0
H484 H 0.41116 0.61927 0.32659 0.0
C485 C 0.46351 0.51345 0.31455 0.0
C486 C 0.46449 0.53513 0.35487 0.0
H487 H 0.44459 0.5121 0.24844 0.0
H488 H 0.47775 0.48374 0.31016 0.0
C489 C 0.44492 0.57314 0.35916 0.0
C490 C 0.08685 0.46078 0.81012 0.0
C491 C 0.07782 0.41841 0.79581 0.0
H492 H 0.07097 0.5117 0.8524 0.0
C493 C 0.04924 0.39302 0.81804 0.0
H494 H 0.1092 0.48091 0.79412 0.0
C495 C 0.02787 0.41059 0.85171 0.0
C496 C 0.03515 0.45354 0.86384 0.0
H497 H 0.04141 0.36035 0.80764 0.0
H498 H 0.00386 0.39139 0.86635 0.0
C499 C 0.06553 0.47824 0.8438 0.0
C500 C 0.68597 0.97306 0.92006 0.0
C501 C 0.71212 0.96171 0.95399 0.0
H502 H 0.62492 0.98636 0.90008 0.0
C503 C 0.69723 0.96218 -0.00399 0.0
H504 H 0.6965 0.97391 0.88744 0.0
C505 C 0.65637 0.97033 0.00326 0.0
C506 C 0.62967 0.9786 0.96879 0.0
H507 H 0.71624 0.95337 0.02294 0.0
H508 H 0.64481 0.96683 0.03527 0.0
C509 C 0.64517 0.98114 0.92737 0.0
C510 C 0.8113 0.05052 0.40378 0.0
C511 C 0.79919 0.07822 0.43634 0.0
H512 H 0.85224 0.00446 0.38489 0.0
C513 C 0.8188 0.07884 0.47725 0.0
H514 H 0.79656 0.04961 0.37199 0.0
C515 C 0.85152 0.05318 0.48476 0.0
C516 C 0.86433 0.02613 0.45159 0.0
H517 H 0.80985 0.1002 0.50274 0.0
H518 H 0.86719 0.05503 0.51607 0.0
C519 C 0.84319 0.02459 0.41135 0.0
C520 C 0.1905 0.52775 0.07795 0.0
C521 C 0.20672 0.56011 0.05265 0.0
H522 H 0.13847 0.48711 0.09182 0.0
C523 C 0.18256 0.57467 0.01887 0.0
H524 H 0.20882 0.51567 0.10381 0.0
C525 C 0.14181 0.55861 0.01214 0.0
C526 C 0.12506 0.52742 0.03879 0.0
H527 H 0.19463 0.5996 -0.00108 0.0
H528 H 0.12325 0.57125 0.98682 0.0
C529 C 0.15022 0.51141 0.07096 0.0
C530 C 0.2756 0.49043 0.52349 0.0
C531 C 0.26147 0.44763 0.52152 0.0
H532 H 0.32816 0.5343 0.5242 0.0
C533 C 0.28768 0.41683 0.50757 0.0
H534 H 0.25589 0.51457 0.53426 0.0
C535 C 0.32925 0.428 0.50253 0.0
C536 C 0.34431 0.4701 0.51054 0.0
H537 H 0.27731 0.38354 0.50611 0.0
H538 H 0.3501 0.40323 0.49758 0.0
C539 C 0.31684 0.50163 0.51763 0.0
C540 C 0.92271 0.69584 0.92025 0.0
C541 C 0.92586 0.72324 0.95679 0.0
H542 H 0.93397 0.63558 0.89237 0.0
C543 C 0.9432 0.70878 -0.00472 0.0
H544 H 0.9101 0.70608 0.89001 0.0
C545 C 0.95676 0.66741 -0.00304 0.0
C546 C 0.95427 0.64049 0.9598 0.0
H547 H 0.94608 0.72937 0.02397 0.0
H548 H 0.96993 0.65692 0.0268 0.0
C549 C 0.93687 0.65538 0.92164 0.0
C550 C 0.45363 0.83781 0.12167 0.0
C551 C 0.41533 0.81905 0.10693 0.0
H552 H 0.50347 0.88163 0.10744 0.0
C553 C 0.39158 0.84059 0.07758 0.0
H554 H 0.4721 0.82231 0.1451 0.0
C555 C 0.40937 0.87517 0.0567 0.0
C556 C 0.45082 0.88784 0.06501 0.0
H557 H 0.36177 0.82713 0.06597 0.0
H558 H 0.393 0.88697 0.02925 0.0
C559 C 0.47142 0.87215 0.10056 0.0
C560 C -0.00303 0.20974 0.56094 0.0
C561 C 0.02836 0.22333 0.53387 0.0
H562 H 0.96551 0.15612 0.58763 0.0
C563 C 0.03977 0.195 0.501 0.0
H564 H 0.98662 0.23063 0.58608 0.0
C565 C 0.02778 0.15179 0.50231 0.0
C566 C 0.00364 0.13735 0.53582 0.0
H567 H 0.06266 0.205 0.47844 0.0
H568 H 0.04232 0.12951 0.48149 0.0
C569 C 0.98474 0.1668 0.5619 0.0
C570 C 0.51267 0.2943 0.43337 0.0
C571 C 0.54701 0.28674 0.45967 0.0
H572 H 0.46596 0.33597 0.41866 0.0
C573 C 0.55601 0.31342 0.49655 0.0
H574 H 0.50478 0.27487 0.40451 0.0
C575 C 0.5338 0.3491 0.50446 0.0
C576 C 0.50207 0.35875 0.47569 0.0
H577 H 0.58164 0.30804 0.51809 0.0
H578 H 0.54352 0.37071 0.53125 0.0
C579 C 0.49038 0.32967 0.44143 0.0
loop_
_geom_bond_atom_site_label_1
_geom_bond_atom_site_label_2
_geom_bond_distance
_geom_bond_site_symmetry_2
_ccdc_geom_bond_type
P0 O11 1.490 . S
P0 C14 1.812 . S
P0 C20 1.803 . S
P0 C26 1.819 . S
H1 C15 0.941 . S
H2 C16 0.939 . S
H3 C18 0.940 . S
H4 C19 0.940 . S
H5 C21 0.939 . S
H6 C22 0.942 . S
H7 C24 0.940 . S
H8 C25 0.939 . S
H9 C27 0.941 . S
H10 C31 0.939 . S
O11 P0 1.490 . S
H12 C28 0.939 . S
H13 C30 0.940 . S
C14 P0 1.812 . S
C14 C15 1.389 . S
C14 C19 1.391 . S
C15 H1 0.941 . S
C15 C14 1.389 . S
C15 C16 1.397 . S
C16 H2 0.939 . S
C16 C15 1.397 . S
C16 C17 1.378 . S
C17 C16 1.378 . S
C17 C18 1.378 . S
C18 H3 0.940 . S
C18 C17 1.378 . S
C18 C19 1.396 . S
C19 H4 0.940 . S
C19 C14 1.391 . S
C19 C18 1.396 . S
C20 P0 1.803 . S
C20 C21 1.378 . S
C20 C25 1.400 . S
C21 H5 0.939 . S
C21 C20 1.378 . S
C21 C22 1.361 . S
C22 H6 0.942 . S
C22 C21 1.361 . S
C22 C23 1.369 . S
C23 C22 1.369 . S
C23 C24 1.404 . S
C24 H7 0.940 . S
C24 C23 1.404 . S
C24 C25 1.389 . S
C25 H8 0.939 . S
C25 C20 1.400 . S
C25 C24 1.389 . S
C26 P0 1.819 . S
C26 C27 1.391 . S
C26 C31 1.391 . S
C27 H9 0.941 . S
C27 C26 1.391 . S
C27 C28 1.396 . S
C28 H12 0.939 . S
C28 C27 1.396 . S
C28 C29 1.397 . S
C29 C28 1.397 . S
C29 C30 1.385 . S
C30 H13 0.940 . S
C30 C29 1.385 . S
C30 C31 1.388 . S
C31 H10 0.939 . S
C31 C26 1.391 . S
C31 C30 1.388 . S
P32 O43 1.490 . S
P32 C46 1.812 . S
P32 C52 1.803 . S
P32 C58 1.819 . S
H33 C47 0.941 . S
H34 C48 0.939 . S
H35 C50 0.940 . S
H36 C51 0.940 . S
H37 C53 0.939 . S
H38 C54 0.942 . S
H39 C56 0.940 . S
H40 C57 0.939 . S
H41 C59 0.941 . S
H42 C63 0.939 . S
O43 P32 1.490 . S
H44 C60 0.939 . S
H45 C62 0.940 . S
C46 P32 1.812 . S
C46 C47 1.389 . S
C46 C51 1.391 . S
C47 H33 0.941 . S
C47 C46 1.389 . S
C47 C48 1.397 . S
C48 H34 0.939 . S
C48 C47 1.397 . S
C48 C49 1.378 . S
C49 C48 1.378 . S
C49 C50 1.378 . S
C50 H35 0.940 . S
C50 C49 1.378 . S
C50 C51 1.396 . S
C51 H36 0.940 . S
C51 C46 1.391 . S
C51 C50 1.396 . S
C52 P32 1.803 . S
C52 C53 1.378 . S
C52 C57 1.400 . S
C53 H37 0.939 . S
C53 C52 1.378 . S
C53 C54 1.361 . S
C54 H38 0.942 . S
C54 C53 1.361 . S
C54 C55 1.369 . S
C55 C54 1.369 . S
C55 C56 1.404 . S
C56 H39 0.940 . S
C56 C55 1.404 . S
C56 C57 1.389 . S
C57 H40 0.939 . S
C57 C52 1.400 . S
C57 C56 1.389 . S
C58 P32 1.819 . S
C58 C59 1.391 . S
C58 C63 1.391 . S
C59 H41 0.941 . S
C59 C58 1.391 . S
C59 C60 1.396 . S
C60 H44 0.939 . S
C60 C59 1.396 . S
C60 C61 1.397 . S
C61 C60 1.397 . S
C61 C62 1.385 . S
C62 H45 0.940 . S
C62 C61 1.385 . S
C62 C63 1.388 . S
C63 H42 0.939 . S
C63 C58 1.391 . S
C63 C62 1.388 . S
P64 O75 1.490 . S
P64 C78 1.812 . S
P64 C84 1.803 . S
P64 C90 1.819 . S
H65 C79 0.941 . S
H66 C80 0.939 . S
H67 C82 0.940 . S
H68 C83 0.940 . S
H69 C85 0.939 . S
H70 C86 0.942 . S
H71 C88 0.940 . S
H72 C89 0.939 . S
H73 C91 0.941 . S
H74 C95 0.939 . S
O75 P64 1.490 . S
H76 C92 0.939 . S
H77 C94 0.940 . S
C78 P64 1.812 . S
C78 C79 1.389 . S
C78 C83 1.391 . S
C79 H65 0.941 . S
C79 C78 1.389 . S
C79 C80 1.397 . S
C80 H66 0.939 . S
C80 C79 1.397 . S
C80 C81 1.378 . S
C81 C80 1.378 . S
C81 C82 1.378 . S
C82 H67 0.940 . S
C82 C81 1.378 . S
C82 C83 1.396 . S
C83 H68 0.940 . S
C83 C78 1.391 . S
C83 C82 1.396 . S
C84 P64 1.803 . S
C84 C85 1.378 . S
C84 C89 1.400 . S
C85 H69 0.939 . S
C85 C84 1.378 . S
C85 C86 1.361 . S
C86 H70 0.942 . S
C86 C85 1.361 . S
C86 C87 1.369 . S
C87 C86 1.369 . S
C87 C88 1.404 . S
C88 H71 0.940 . S
C88 C87 1.404 . S
C88 C89 1.389 . S
C89 H72 0.939 . S
C89 C84 1.400 . S
C89 C88 1.389 . S
C90 P64 1.819 . S
C90 C91 1.391 . S
C90 C95 1.391 . S
C91 H73 0.941 . S
C91 C90 1.391 . S
C91 C92 1.396 . S
C92 H76 0.939 . S
C92 C91 1.396 . S
C92 C93 1.397 . S
C93 C92 1.397 . S
C93 C94 1.385 . S
C94 H77 0.940 . S
C94 C93 1.385 . S
C94 C95 1.388 . S
C95 H74 0.939 . S
C95 C90 1.391 . S
C95 C94 1.388 . S
P96 O107 1.490 . S
P96 C110 1.812 . S
P96 C116 1.803 . S
P96 C122 1.819 . S
H97 C111 0.941 . S
H98 C112 0.939 . S
H99 C114 0.940 . S
H100 C115 0.940 . S
H101 C117 0.939 . S
H102 C118 0.942 . S
H103 C120 0.940 . S
H104 C121 0.939 . S
H105 C123 0.941 . S
H106 C127 0.939 . S
O107 P96 1.490 . S
H108 C124 0.939 . S
H109 C126 0.940 . S
C110 P96 1.812 . S
C110 C111 1.389 . S
C110 C115 1.391 . S
C111 H97 0.941 . S
C111 C110 1.389 . S
C111 C112 1.397 . S
C112 H98 0.939 . S
C112 C111 1.397 . S
C112 C113 1.378 . S
C113 C112 1.378 . S
C113 C114 1.378 . S
C114 H99 0.940 . S
C114 C113 1.378 . S
C114 C115 1.396 . S
C115 H100 0.940 . S
C115 C110 1.391 . S
C115 C114 1.396 . S
C116 P96 1.803 . S
C116 C117 1.378 . S
C116 C121 1.400 . S
C117 H101 0.939 . S
C117 C116 1.378 . S
C117 C118 1.361 . S
C118 H102 0.942 . S
C118 C117 1.361 . S
C118 C119 1.369 . S
C119 C118 1.369 . S
C119 C120 1.404 . S
C120 H103 0.940 . S
C120 C119 1.404 . S
C120 C121 1.389 . S
C121 H104 0.939 . S
C121 C116 1.400 . S
C121 C120 1.389 . S
C122 P96 1.819 . S
C122 C123 1.391 . S
C122 C127 1.391 . S
C123 H105 0.941 . S
C123 C122 1.391 . S
C123 C124 1.396 . S
C124 H108 0.939 . S
C124 C123 1.396 . S
C124 C125 1.397 . S
C125 C124 1.397 . S
C125 C126 1.385 . S
C126 H109 0.940 . S
C126 C125 1.385 . S
C126 C127 1.388 . S
C127 H106 0.939 . S
C127 C122 1.391 . S
C127 C126 1.388 . S
P128 O139 1.490 . S
P128 C142 1.812 . S
P128 C148 1.803 . S
P128 C154 1.819 . S
H129 C143 0.941 . S
H130 C144 0.939 . S
H131 C146 0.940 . S
H132 C147 0.940 . S
H133 C149 0.939 . S
H134 C150 0.942 . S
H135 C152 0.940 . S
H136 C153 0.939 . S
H137 C155 0.941 . S
H138 C159 0.939 . S
O139 P128 1.490 . S
H140 C156 0.939 . S
H141 C158 0.940 . S
C142 P128 1.812 . S
C142 C143 1.389 . S
C142 C147 1.391 . S
C143 H129 0.941 . S
C143 C142 1.389 . S
C143 C144 1.397 . S
C144 H130 0.939 . S
C144 C143 1.397 . S
C144 C145 1.378 . S
C145 C144 1.378 . S
C145 C146 1.378 . S
C146 H131 0.940 . S
C146 C145 1.378 . S
C146 C147 1.396 . S
C147 H132 0.940 . S
C147 C142 1.391 . S
C147 C146 1.396 . S
C148 P128 1.803 . S
C148 C149 1.378 . S
C148 C153 1.400 . S
C149 H133 0.939 . S
C149 C148 1.378 . S
C149 C150 1.361 . S
C150 H134 0.942 . S
C150 C149 1.361 . S
C150 C151 1.369 . S
C151 C150 1.369 . S
C151 C152 1.404 . S
C152 H135 0.940 . S
C152 C151 1.404 . S
C152 C153 1.389 . S
C153 H136 0.939 . S
C153 C148 1.400 . S
C153 C152 1.389 . S
C154 P128 1.819 . S
C154 C155 1.391 . S
C154 C159 1.391 . S
C155 H137 0.941 . S
C155 C154 1.391 . S
C155 C156 1.396 . S
C156 H140 0.939 . S
C156 C155 1.396 . S
C156 C157 1.397 . S
C157 C156 1.397 . S
C157 C158 1.385 . S
C158 H141 0.940 . S
C158 C157 1.385 . S
C158 C159 1.388 . S
C159 H138 0.939 . S
C159 C154 1.391 . S
C159 C158 1.388 . S
P160 O171 1.490 . S
P160 C174 1.812 . S
P160 C180 1.803 . S
P160 C186 1.819 . S
H161 C175 0.941 . S
H162 C176 0.939 . S
H163 C178 0.940 . S
H164 C179 0.940 . S
H165 C181 0.939 . S
H166 C182 0.942 . S
H167 C184 0.940 . S
H168 C185 0.939 . S
H169 C187 0.941 . S
H170 C191 0.939 . S
O171 P160 1.490 . S
H172 C188 0.939 . S
H173 C190 0.940 . S
C174 P160 1.812 . S
C174 C175 1.389 . S
C174 C179 1.391 . S
C175 H161 0.941 . S
C175 C174 1.389 . S
C175 C176 1.397 . S
C176 H162 0.939 . S
C176 C175 1.397 . S
C176 C177 1.378 . S
C177 C176 1.378 . S
C177 C178 1.378 . S
C178 H163 0.940 . S
C178 C177 1.378 . S
C178 C179 1.396 . S
C179 H164 0.940 . S
C179 C174 1.391 . S
C179 C178 1.396 . S
C180 P160 1.803 . S
C180 C181 1.378 . S
C180 C185 1.400 . S
C181 H165 0.939 . S
C181 C180 1.378 . S
C181 C182 1.361 . S
C182 H166 0.942 . S
C182 C181 1.361 . S
C182 C183 1.369 . S
C183 C182 1.369 . S
C183 C184 1.404 . S
C184 H167 0.940 . S
C184 C183 1.404 . S
C184 C185 1.389 . S
C185 H168 0.939 . S
C185 C180 1.400 . S
C185 C184 1.389 . S
C186 P160 1.819 . S
C186 C187 1.391 . S
C186 C191 1.391 . S
C187 H169 0.941 . S
C187 C186 1.391 . S
C187 C188 1.396 . S
C188 H172 0.939 . S
C188 C187 1.396 . S
C188 C189 1.397 . S
C189 C188 1.397 . S
C189 C190 1.385 . S
C190 H173 0.940 . S
C190 C189 1.385 . S
C190 C191 1.388 . S
C191 H170 0.939 . S
C191 C186 1.391 . S
C191 C190 1.388 . S
P192 O203 1.490 . S
P192 C206 1.812 . S
P192 C212 1.803 . S
P192 C218 1.819 . S
H193 C207 0.941 . S
H194 C208 0.939 . S
H195 C210 0.940 . S
H196 C211 0.940 . S
H197 C213 0.939 . S
H198 C214 0.942 . S
H199 C216 0.940 . S
H200 C217 0.939 . S
H201 C219 0.941 . S
H202 C223 0.939 . S
O203 P192 1.490 . S
H204 C220 0.939 . S
H205 C222 0.940 . S
C206 P192 1.812 . S
C206 C207 1.389 . S
C206 C211 1.391 . S
C207 H193 0.941 . S
C207 C206 1.389 . S
C207 C208 1.397 . S
C208 H194 0.939 . S
C208 C207 1.397 . S
C208 C209 1.378 . S
C209 C208 1.378 . S
C209 C210 1.378 . S
C210 H195 0.940 . S
C210 C209 1.378 . S
C210 C211 1.396 . S
C211 H196 0.940 . S
C211 C206 1.391 . S
C211 C210 1.396 . S
C212 P192 1.803 . S
C212 C213 1.378 . S
C212 C217 1.400 . S
C213 H197 0.939 . S
C213 C212 1.378 . S
C213 C214 1.361 . S
C214 H198 0.942 . S
C214 C213 1.361 . S
C214 C215 1.369 . S
C215 C214 1.369 . S
C215 C216 1.404 . S
C216 H199 0.940 . S
C216 C215 1.404 . S
C216 C217 1.389 . S
C217 H200 0.939 . S
C217 C212 1.400 . S
C217 C216 1.389 . S
C218 P192 1.819 . S
C218 C219 1.391 . S
C218 C223 1.391 . S
C219 H201 0.941 . S
C219 C218 1.391 . S
C219 C220 1.396 . S
C220 H204 0.939 . S
C220 C219 1.396 . S
C220 C221 1.397 . S
C221 C220 1.397 . S
C221 C222 1.385 . S
C222 H205 0.940 . S
C222 C221 1.385 . S
C222 C223 1.388 . S
C223 H202 0.939 . S
C223 C218 1.391 . S
C223 C222 1.388 . S
P224 O235 1.490 . S
P224 C238 1.812 . S
P224 C244 1.803 . S
P224 C250 1.819 . S
H225 C239 0.941 . S
H226 C240 0.939 . S
H227 C242 0.940 . S
H228 C243 0.940 . S
H229 C245 0.939 . S
H230 C246 0.942 . S
H231 C248 0.940 . S
H232 C249 0.939 . S
H233 C251 0.941 . S
H234 C255 0.939 . S
O235 P224 1.490 . S
H236 C252 0.939 . S
H237 C254 0.940 . S
C238 P224 1.812 . S
C238 C239 1.389 . S
C238 C243 1.391 . S
C239 H225 0.941 . S
C239 C238 1.389 . S
C239 C240 1.397 . S
C240 H226 0.939 . S
C240 C239 1.397 . S
C240 C241 1.378 . S
C241 C240 1.378 . S
C241 C242 1.378 . S
C242 H227 0.940 . S
C242 C241 1.378 . S
C242 C243 1.396 . S
C243 H228 0.940 . S
C243 C238 1.391 . S
C243 C242 1.396 . S
C244 P224 1.803 . S
C244 C245 1.378 . S
C244 C249 1.400 . S
C245 H229 0.939 . S
C245 C244 1.378 . S
C245 C246 1.361 . S
C246 H230 0.942 . S
C246 C245 1.361 . S
C246 C247 1.369 . S
C247 C246 1.369 . S
C247 C248 1.404 . S
C248 H231 0.940 . S
C248 C247 1.404 . S
C248 C249 1.389 . S
C249 H232 0.939 . S
C249 C244 1.400 . S
C249 C248 1.389 . S
C250 P224 1.819 . S
C250 C251 1.391 . S
C250 C255 1.391 . S
C251 H233 0.941 . S
C251 C250 1.391 . S
C251 C252 1.396 . S
C252 H236 0.939 . S
C252 C251 1.396 . S
C252 C253 1.397 . S
C253 C252 1.397 . S
C253 C254 1.385 . S
C254 H237 0.940 . S
C254 C253 1.385 . S
C254 C255 1.388 . S
C255 H234 0.939 . S
C255 C250 1.391 . S
C255 C254 1.388 . S
O256 Mg257 1.990 . S
O256 C270 1.253 1_445 S
Mg257 O256 1.990 . S
Mg257 O260 2.180 . S
Mg257 O261 2.117 . S
Mg257 O275 2.030 1_545 S
O258 Mg259 2.072 1_665 S
O258 C270 1.260 . S
Mg259 O258 2.072 1_445 S
Mg259 O260 2.099 . S
Mg259 O262 2.079 . S
Mg259 O263 2.072 1_455 S
Mg259 O265 2.099 1_445 S
Mg259 O276 2.079 1_545 S
O260 Mg257 2.180 . S
O260 Mg259 2.099 . S
O260 C271 1.279 . S
O261 Mg257 2.117 . S
O261 C271 1.250 . S
O262 Mg259 2.079 . S
O262 C272 1.264 . S
O263 Mg259 2.072 1_655 S
O263 C273 1.260 . S
Mg264 O265 2.180 . S
Mg264 O266 2.030 1_565 S
Mg264 O267 1.990 1_565 S
Mg264 O268 2.117 . S
O265 Mg259 2.099 1_665 S
O265 Mg264 2.180 . S
O265 C274 1.279 . S
O266 Mg264 2.030 1_545 S
O266 C272 1.248 1_655 S
O267 Mg264 1.990 1_545 S
O267 C273 1.253 . S
O268 Mg264 2.117 . S
O268 C274 1.250 . S
C269 O275 1.248 . S
C269 O276 1.264 . S
C270 O256 1.253 1_665 S
C270 O258 1.260 . S
C271 O260 1.279 . S
C271 O261 1.250 . S
C272 O262 1.264 . S
C272 O266 1.248 1_455 S
C273 O263 1.260 . S
C273 O267 1.253 . S
C274 O265 1.279 . S
C274 O268 1.250 . S
O275 Mg257 2.030 1_565 S
O275 C269 1.248 . S
O276 Mg259 2.079 1_565 S
O276 C269 1.264 . S
O277 Mg278 1.990 . S
O277 C291 1.253 . S
Mg278 O277 1.990 . S
Mg278 O281 2.180 . S
Mg278 O282 2.117 1_554 S
Mg278 O296 2.030 . S
O279 Mg280 2.072 . S
O279 C291 1.260 . S
Mg280 O279 2.072 . S
Mg280 O281 2.099 . S
Mg280 O283 2.079 1_544 S
Mg280 O284 2.072 1_554 S
Mg280 O286 2.099 1_545 S
Mg280 O297 2.079 . S
O281 Mg278 2.180 . S
O281 Mg280 2.099 . S
O281 C292 1.279 1_554 S
O282 Mg278 2.117 1_556 S
O282 C292 1.250 . S
O283 Mg280 2.079 1_566 S
O283 C293 1.264 . S
O284 Mg280 2.072 1_556 S
O284 C294 1.260 1_545 S
Mg285 O286 2.180 1_556 S
Mg285 O287 2.030 . S
Mg285 O288 1.990 . S
Mg285 O289 2.117 1_556 S
O286 Mg280 2.099 1_565 S
O286 Mg285 2.180 1_554 S
O286 C295 1.279 . S
O287 Mg285 2.030 . S
O287 C293 1.248 . S
O288 Mg285 1.990 . S
O288 C294 1.253 . S
O289 Mg285 2.117 1_554 S
O289 C295 1.250 . S
C290 O296 1.248 . S
C290 O297 1.264 . S
C291 O277 1.253 . S
C291 O279 1.260 . S
C292 O281 1.279 1_556 S
C292 O282 1.250 . S
C293 O283 1.264 . S
C293 O287 1.248 . S
C294 O284 1.260 1_565 S
C294 O288 1.253 . S
C295 O286 1.279 . S
C295 O289 1.250 . S
O296 Mg278 2.030 . S
O296 C290 1.248 . S
O297 Mg280 2.079 . S
O297 C290 1.264 . S
O298 Mg299 1.990 . S
O298 C312 1.253 . S
Mg299 O298 1.990 . S
Mg299 O302 2.180 . S
Mg299 O303 2.117 . S
Mg299 O317 2.030 . S
O300 Mg301 2.072 . S
O300 C312 1.260 . S
Mg301 O300 2.072 . S
Mg301 O302 2.099 . S
Mg301 O304 2.079 . S
Mg301 O305 2.072 . S
Mg301 O307 2.099 . S
Mg301 O318 2.079 . S
O302 Mg299 2.180 . S
O302 Mg301 2.099 . S
O302 C313 1.279 . S
O303 Mg299 2.117 . S
O303 C313 1.250 . S
O304 Mg301 2.079 . S
O304 C314 1.264 . S
O305 Mg301 2.072 . S
O305 C315 1.260 . S
Mg306 O307 2.180 . S
Mg306 O308 2.030 . S
Mg306 O309 1.990 . S
Mg306 O310 2.117 . S
O307 Mg301 2.099 . S
O307 Mg306 2.180 . S
O307 C316 1.279 . S
O308 Mg306 2.030 . S
O308 C314 1.248 . S
O309 Mg306 1.990 . S
O309 C315 1.253 . S
O310 Mg306 2.117 . S
O310 C316 1.250 . S
C311 O317 1.248 . S
C311 O318 1.264 . S
C312 O298 1.253 . S
C312 O300 1.260 . S
C313 O302 1.279 . S
C313 O303 1.250 . S
C314 O304 1.264 . S
C314 O308 1.248 . S
C315 O305 1.260 . S
C315 O309 1.253 . S
C316 O307 1.279 . S
C316 O310 1.250 . S
O317 Mg299 2.030 . S
O317 C311 1.248 . S
O318 Mg301 2.079 . S
O318 C311 1.264 . S
O319 Mg320 1.990 . S
O319 C333 1.253 . S
Mg320 O319 1.990 . S
Mg320 O323 2.180 1_455 S
Mg320 O324 2.117 1_455 S
Mg320 O338 2.030 . S
O321 Mg322 2.072 . S
O321 C333 1.260 . S
Mg322 O321 2.072 . S
Mg322 O323 2.099 1_455 S
Mg322 O325 2.079 1_454 S
Mg322 O326 2.072 1_455 S
Mg322 O328 2.099 1_554 S
Mg322 O339 2.079 . S
O323 Mg320 2.180 1_655 S
O323 Mg322 2.099 1_655 S
O323 C334 1.279 . S
O324 Mg320 2.117 1_655 S
O324 C334 1.250 . S
O325 Mg322 2.079 1_656 S
O325 C335 1.264 . S
O326 Mg322 2.072 1_655 S
O326 C336 1.260 1_554 S
Mg327 O328 2.180 1_655 S
Mg327 O329 2.030 . S
Mg327 O330 1.990 . S
Mg327 O331 2.117 . S
O328 Mg322 2.099 1_556 S
O328 Mg327 2.180 1_455 S
O328 C337 1.279 . S
O329 Mg327 2.030 . S
O329 C335 1.248 . S
O330 Mg327 1.990 . S
O330 C336 1.253 . S
O331 Mg327 2.117 . S
O331 C337 1.250 1_655 S
C332 O338 1.248 . S
C332 O339 1.264 . S
C333 O319 1.253 . S
C333 O321 1.260 . S
C334 O323 1.279 . S
C334 O324 1.250 . S
C335 O325 1.264 . S
C335 O329 1.248 . S
C336 O326 1.260 1_556 S
C336 O330 1.253 . S
C337 O328 1.279 . S
C337 O331 1.250 1_455 S
O338 Mg320 2.030 . S
O338 C332 1.248 . S
O339 Mg322 2.079 . S
O339 C332 1.264 . S
C340 C341 1.387 . S
C340 H344 0.950 . S
C340 C349 1.390 . S
C341 C340 1.387 . S
C341 C343 1.387 . S
H342 C349 0.950 1_565 S
C343 C341 1.387 . S
C343 C345 1.390 . S
C343 H347 0.950 . S
H344 C340 0.950 . S
C345 C343 1.390 . S
C345 C346 1.387 . S
C345 H348 0.950 . S
C346 C345 1.387 . S
C346 C349 1.387 . S
H347 C343 0.950 . S
H348 C345 0.950 . S
C349 C340 1.390 . S
C349 H342 0.950 1_545 S
C349 C346 1.387 . S
C350 C351 1.387 . S
C350 H354 0.950 1_565 S
C350 C359 1.390 1_565 S
C351 C350 1.387 . S
C351 C353 1.387 . S
H352 C359 0.950 . S
C353 C351 1.387 . S
C353 C355 1.390 . S
C353 H357 0.950 . S
H354 C350 0.950 1_545 S
C355 C353 1.390 . S
C355 C356 1.387 . S
C355 H358 0.950 . S
C356 C355 1.387 . S
C356 C359 1.387 1_565 S
H357 C353 0.950 . S
H358 C355 0.950 . S
C359 C350 1.390 1_545 S
C359 H352 0.950 . S
C359 C356 1.387 1_545 S
C360 C361 1.387 . S
C360 H364 0.950 . S
C360 C369 1.390 . S
C361 C360 1.387 . S
C361 C363 1.387 . S
H362 C369 0.950 . S
C363 C361 1.387 . S
C363 C365 1.390 . S
C363 H367 0.950 . S
H364 C360 0.950 . S
C365 C363 1.390 . S
C365 C366 1.387 . S
C365 H368 0.950 . S
C366 C365 1.387 . S
C366 C369 1.387 . S
H367 C363 0.950 . S
H368 C365 0.950 . S
C369 C360 1.390 . S
C369 H362 0.950 . S
C369 C366 1.387 . S
C370 C371 1.387 . S
C370 H374 0.950 . S
C370 C379 1.390 . S
C371 C370 1.387 . S
C371 C373 1.387 . S
H372 C379 0.950 . S
C373 C371 1.387 . S
C373 C375 1.390 . S
C373 H377 0.950 . S
H374 C370 0.950 . S
C375 C373 1.390 . S
C375 C376 1.387 . S
C375 H378 0.950 . S
C376 C375 1.387 . S
C376 C379 1.387 . S
H377 C373 0.950 . S
H378 C375 0.950 . S
C379 C370 1.390 . S
C379 H372 0.950 . S
C379 C376 1.387 . S
C380 C381 1.387 . S
C380 H384 0.950 . S
C380 C389 1.390 . S
C381 C380 1.387 . S
C381 C383 1.387 . S
H382 C389 0.950 . S
C383 C381 1.387 . S
C383 C385 1.390 . S
C383 H387 0.950 . S
H384 C380 0.950 . S
C385 C383 1.390 . S
C385 C386 1.387 . S
C385 H388 0.950 . S
C386 C385 1.387 . S
C386 C389 1.387 . S
H387 C383 0.950 . S
H388 C385 0.950 . S
C389 C380 1.390 . S
C389 H382 0.950 . S
C389 C386 1.387 . S
C390 C391 1.387 . S
C390 H394 0.950 . S
C390 C399 1.390 . S
C391 C390 1.387 . S
C391 C393 1.387 . S
H392 C399 0.950 . S
C393 C391 1.387 . S
C393 C395 1.390 . S
C393 H397 0.950 . S
H394 C390 0.950 . S
C395 C393 1.390 . S
C395 C396 1.387 . S
C395 H398 0.950 . S
C396 C395 1.387 . S
C396 C399 1.387 . S
H397 C393 0.950 . S
H398 C395 0.950 . S
C399 C390 1.390 . S
C399 H392 0.950 . S
C399 C396 1.387 . S
C400 C401 1.387 . S
C400 H404 0.950 . S
C400 C409 1.390 . S
C401 C400 1.387 . S
C401 C403 1.387 . S
H402 C409 0.950 . S
C403 C401 1.387 . S
C403 C405 1.390 . S
C403 H407 0.950 . S
H404 C400 0.950 . S
C405 C403 1.390 . S
C405 C406 1.387 . S
C405 H408 0.950 . S
C406 C405 1.387 . S
C406 C409 1.387 . S
H407 C403 0.950 . S
H408 C405 0.950 . S
C409 C400 1.390 . S
C409 H402 0.950 . S
C409 C406 1.387 . S
C410 C411 1.387 . S
C410 H414 0.950 . S
C410 C419 1.390 . S
C411 C410 1.387 . S
C411 C413 1.387 . S
H412 C419 0.950 . S
C413 C411 1.387 . S
C413 C415 1.390 . S
C413 H417 0.950 . S
H414 C410 0.950 . S
C415 C413 1.390 . S
C415 C416 1.387 . S
C415 H418 0.950 . S
C416 C415 1.387 . S
C416 C419 1.387 . S
H417 C413 0.950 . S
H418 C415 0.950 . S
C419 C410 1.390 . S
C419 H412 0.950 . S
C419 C416 1.387 . S
C420 C421 1.387 . S
C420 H424 0.939 1_554 S
C420 C429 1.390 . S
C421 C420 1.387 . S
C421 C423 1.387 . S
H422 C429 0.950 1_556 S
C423 C421 1.387 . S
C423 C425 1.390 . S
C423 H427 0.950 . S
H424 C420 0.939 1_556 S
C425 C423 1.390 . S
C425 C426 1.387 . S
C425 H428 0.950 . S
C426 C425 1.387 . S
C426 C429 1.387 . S
H427 C423 0.950 . S
H428 C425 0.950 . S
C429 C420 1.390 . S
C429 H422 0.950 1_554 S
C429 C426 1.387 . S
C430 C431 1.387 . S
C430 H434 0.950 . S
C430 C439 1.390 . S
C431 C430 1.387 . S
C431 C433 1.387 . S
H432 C439 0.950 . S
C433 C431 1.387 . S
C433 C435 1.390 . S
C433 H437 0.950 . S
H434 C430 0.950 . S
C435 C433 1.390 . S
C435 C436 1.387 . S
C435 H438 0.950 1_556 S
C436 C435 1.387 . S
C436 C439 1.387 . S
H437 C433 0.950 . S
H438 C435 0.950 1_554 S
C439 C430 1.390 . S
C439 H432 0.950 . S
C439 C436 1.387 . S
C440 C441 1.387 . S
C440 H444 0.950 . S
C440 C449 1.390 . S
C441 C440 1.387 . S
C441 C443 1.387 . S
H442 C449 0.950 . S
C443 C441 1.387 . S
C443 C445 1.390 . S
C443 H447 0.950 . S
H444 C440 0.950 . S
C445 C443 1.390 . S
C445 C446 1.387 . S
C445 H448 0.950 . S
C446 C445 1.387 . S
C446 C449 1.387 . S
H447 C443 0.950 . S
H448 C445 0.950 . S
C449 C440 1.390 . S
C449 H442 0.950 . S
C449 C446 1.387 . S
C450 C451 1.387 . S
C450 H454 0.950 . S
C450 C459 1.390 . S
C451 C450 1.387 . S
C451 C453 1.387 . S
H452 C459 0.950 . S
C453 C451 1.387 . S
C453 C455 1.390 . S
C453 H457 0.950 . S
H454 C450 0.950 . S
C455 C453 1.390 . S
C455 C456 1.387 . S
C455 H458 0.950 . S
C456 C455 1.387 . S
C456 C459 1.387 . S
H457 C453 0.950 . S
H458 C455 0.950 . S
C459 C450 1.390 . S
C459 H452 0.950 . S
C459 C456 1.387 . S
C460 C461 1.387 . S
C460 H464 0.950 . S
C460 C469 1.390 . S
C461 C460 1.387 . S
C461 C463 1.387 . S
H462 C469 0.950 . S
C463 C461 1.387 . S
C463 C465 1.390 . S
C463 H467 0.950 1_565 S
H464 C460 0.950 . S
C465 C463 1.390 . S
C465 C466 1.387 . S
C465 H468 0.950 1_565 S
C466 C465 1.387 . S
C466 C469 1.387 . S
H467 C463 0.950 1_545 S
H468 C465 0.950 1_545 S
C469 C460 1.390 . S
C469 H462 0.950 . S
C469 C466 1.387 . S
C470 C471 1.387 . S
C470 H474 0.950 . S
C470 C479 1.390 . S
C471 C470 1.387 . S
C471 C473 1.387 . S
H472 C479 0.950 . S
C473 C471 1.387 . S
C473 C475 1.390 . S
C473 H477 0.950 . S
H474 C470 0.950 . S
C475 C473 1.390 . S
C475 C476 1.387 . S
C475 H478 0.950 1_545 S
C476 C475 1.387 . S
C476 C479 1.387 . S
H477 C473 0.950 . S
H478 C475 0.950 1_565 S
C479 C470 1.390 . S
C479 H472 0.950 . S
C479 C476 1.387 . S
C480 C481 1.387 . S
C480 H484 0.950 . S
C480 C489 1.390 . S
C481 C480 1.387 . S
C481 C483 1.387 . S
H482 C489 0.950 . S
C483 C481 1.387 . S
C483 C485 1.390 . S
C483 H487 0.950 . S
H484 C480 0.950 . S
C485 C483 1.390 . S
C485 C486 1.387 . S
C485 H488 0.950 . S
C486 C485 1.387 . S
C486 C489 1.387 . S
H487 C483 0.950 . S
H488 C485 0.950 . S
C489 C480 1.390 . S
C489 H482 0.950 . S
C489 C486 1.387 . S
C490 C491 1.387 . S
C490 H494 0.950 . S
C490 C499 1.390 . S
C491 C490 1.387 . S
C491 C493 1.387 . S
H492 C499 0.950 . S
C493 C491 1.387 . S
C493 C495 1.390 . S
C493 H497 0.950 . S
H494 C490 0.950 . S
C495 C493 1.390 . S
C495 C496 1.387 . S
C495 H498 0.950 . S
C496 C495 1.387 . S
C496 C499 1.387 . S
H497 C493 0.950 . S
H498 C495 0.950 . S
C499 C490 1.390 . S
C499 H492 0.950 . S
C499 C496 1.387 . S
C500 C501 1.387 . S
C500 H504 0.950 . S
C500 C509 1.390 . S
C501 C500 1.387 . S
C501 C503 1.387 . S
H502 C509 0.950 . S
C503 C501 1.387 . S
C503 C505 1.390 . S
C503 H507 0.950 1_556 S
H504 C500 0.950 . S
C505 C503 1.390 . S
C505 C506 1.387 . S
C505 H508 0.950 1_556 S
C506 C505 1.387 . S
C506 C509 1.387 . S
H507 C503 0.950 1_554 S
H508 C505 0.950 1_554 S
C509 C500 1.390 . S
C509 H502 0.950 . S
C509 C506 1.387 . S
C510 C511 1.387 . S
C510 H514 0.950 . S
C510 C519 1.390 . S
C511 C510 1.387 . S
C511 C513 1.387 . S
H512 C519 0.950 . S
C513 C511 1.387 . S
C513 C515 1.390 . S
C513 H517 0.950 . S
H514 C510 0.950 . S
C515 C513 1.390 . S
C515 C516 1.387 . S
C515 H518 0.950 . S
C516 C515 1.387 . S
C516 C519 1.387 . S
H517 C513 0.950 . S
H518 C515 0.950 . S
C519 C510 1.390 . S
C519 H512 0.950 . S
C519 C516 1.387 . S
C520 C521 1.387 . S
C520 H524 0.950 . S
C520 C529 1.390 . S
C521 C520 1.387 . S
C521 C523 1.387 . S
H522 C529 0.950 . S
C523 C521 1.387 . S
C523 C525 1.390 . S
C523 H527 0.950 . S
H524 C520 0.950 . S
C525 C523 1.390 . S
C525 C526 1.387 . S
C525 H528 0.938 1_554 S
C526 C525 1.387 . S
C526 C529 1.387 . S
H527 C523 0.950 . S
H528 C525 0.938 1_556 S
C529 C520 1.390 . S
C529 H522 0.950 . S
C529 C526 1.387 . S
C530 C531 1.387 . S
C530 H534 0.950 . S
C530 C539 1.390 . S
C531 C530 1.387 . S
C531 C533 1.387 . S
H532 C539 0.950 . S
C533 C531 1.387 . S
C533 C535 1.390 . S
C533 H537 0.950 . S
H534 C530 0.950 . S
C535 C533 1.390 . S
C535 C536 1.387 . S
C535 H538 0.950 . S
C536 C535 1.387 . S
C536 C539 1.387 . S
H537 C533 0.950 . S
H538 C535 0.950 . S
C539 C530 1.390 . S
C539 H532 0.950 . S
C539 C536 1.387 . S
C540 C541 1.387 . S
C540 H544 0.950 . S
C540 C549 1.390 . S
C541 C540 1.387 . S
C541 C543 1.387 . S
H542 C549 0.950 . S
C543 C541 1.387 . S
C543 C545 1.390 1_556 S
C543 H547 0.950 1_556 S
H544 C540 0.950 . S
C545 C543 1.390 1_554 S
C545 C546 1.386 1_554 S
C545 H548 0.952 . S
C546 C545 1.386 1_556 S
C546 C549 1.387 . S
H547 C543 0.950 1_554 S
H548 C545 0.952 . S
C549 C540 1.390 . S
C549 H542 0.950 . S
C549 C546 1.387 . S
C550 C551 1.387 . S
C550 H554 0.950 . S
C550 C559 1.390 . S
C551 C550 1.387 . S
C551 C553 1.387 . S
H552 C559 0.950 . S
C553 C551 1.387 . S
C553 C555 1.390 . S
C553 H557 0.950 . S
H554 C550 0.950 . S
C555 C553 1.390 . S
C555 C556 1.387 . S
C555 H558 0.950 . S
C556 C555 1.387 . S
C556 C559 1.387 . S
H557 C553 0.950 . S
H558 C555 0.950 . S
C559 C550 1.390 . S
C559 H552 0.950 . S
C559 C556 1.387 . S
C560 C561 1.387 . S
C560 H564 0.950 . S
C560 C569 1.390 . S
C561 C560 1.387 . S
C561 C563 1.387 . S
H562 C569 0.950 . S
C563 C561 1.387 . S
C563 C565 1.390 . S
C563 H567 0.950 . S
H564 C560 0.950 . S
C565 C563 1.390 . S
C565 C566 1.387 . S
C565 H568 0.950 . S
C566 C565 1.387 . S
C566 C569 1.387 . S
H567 C563 0.950 . S
H568 C565 0.950 . S
C569 C560 1.390 . S
C569 H562 0.950 . S
C569 C566 1.387 . S
C570 C571 1.387 . S
C570 H574 0.950 . S
C570 C579 1.390 . S
C571 C570 1.387 . S
C571 C573 1.387 . S
H572 C579 0.950 . S
C573 C571 1.387 . S
C573 C575 1.390 . S
C573 H577 0.950 . S
H574 C570 0.950 . S
C575 C573 1.390 . S
C575 C576 1.387 . S
C575 H578 0.950 . S
C576 C575 1.387 . S
C576 C579 1.387 . S
H577 C573 0.950 . S
H578 C575 0.950 . S
C579 C570 1.390 . S
C579 H572 0.950 . S
C579 C576 1.387 . S
C341 C29 1.538 . S
C346 C272 1.562 . S
C351 C49 1.476 . S
C356 C294 1.429 . S
C366 C313 1.233 . S
C361 C93 1.444 . S
C371 C119 1.626 . S
C376 C334 1.372 . S
C386 C291 1.694 . S
C381 C17 1.659 . S
C396 C269 1.661 . S
C391 C61 1.732 . S
C406 C336 1.349 . S
C401 C81 1.357 . S
C416 C315 1.502 . S
C411 C125 1.435 . S
C421 C23 1.585 . S
C426 C333 1.613 . S
C436 C292 1.271 . S
C431 C87 1.515 . S
C441 C113 1.573 . S
C446 C274 1.545 . S
C451 C55 1.545 . S
C456 C312 1.532 . S
C466 C270 1.513 . S
C461 C157 1.593 . S
C471 C189 1.313 . S
C476 C290 1.339 . S
C481 C221 1.539 . S
C486 C316 1.269 . S
C491 C253 1.592 . S
C496 C337 1.345 . S
C501 C145 1.711 . S
C506 C293 1.676 . S
C516 C273 1.631 . S
C511 C183 1.608 . S
C526 C332 1.285 . S
C521 C209 1.341 . S
C536 C311 1.509 . S
C531 C247 1.465 . S
C541 C151 1.543 . S
C546 C335 1.513 . S
C556 C295 1.234 . S
C551 C215 1.541 . S
C566 C271 1.418 . S
C561 C241 1.447 . S
C571 C177 1.419 . S
C576 C314 1.478 . S
