# Generated by pormake.
# Topology the, (3,8)-cn, num edge types: 1
# Building blocks:
#     Node 0, Type 0, BuildingBlock: KAKCAD_clean_linker_0, # of connection points: 3
#     Node 1, Type 0, BuildingBlock: KAKCAD_clean_linker_0, # of connection points: 3
#     Node 2, Type 0, BuildingBlock: KAKCAD_clean_linker_0, # of connection points: 3
#     Node 3, Type 0, BuildingBlock: KAKCAD_clean_linker_0, # of connection points: 3
#     Node 4, Type 0, BuildingBlock: KAKCAD_clean_linker_0, # of connection points: 3
#     Node 5, Type 0, BuildingBlock: KAKCAD_clean_linker_0, # of connection points: 3
#     Node 6, Type 0, BuildingBlock: KAKCAD_clean_linker_0, # of connection points: 3
#     Node 7, Type 0, BuildingBlock: KAKCAD_clean_linker_0, # of connection points: 3
#     Node 8, Type 1, BuildingBlock: GIZVER_clean_sbu_0, # of connection points: 8
#     Node 9, Type 1, BuildingBlock: GIZVER_clean_sbu_0, # of connection points: 8
#     Node 10, Type 1, BuildingBlock: GIZVER_clean_sbu_0, # of connection points: 8
#     Edge 11, Type (0, 1), BuildingBlock: AJUNOK_clean_linker_0, # of connection points: 2
#     Edge 12, Type (0, 1), BuildingBlock: AJUNOK_clean_linker_0, # of connection points: 2
#     Edge 13, Type (0, 1), BuildingBlock: AJUNOK_clean_linker_0, # of connection points: 2
#     Edge 14, Type (0, 1), BuildingBlock: AJUNOK_clean_linker_0, # of connection points: 2
#     Edge 15, Type (0, 1), BuildingBlock: AJUNOK_clean_linker_0, # of connection points: 2
#     Edge 16, Type (0, 1), BuildingBlock: AJUNOK_clean_linker_0, # of connection points: 2
#     Edge 17, Type (0, 1), BuildingBlock: AJUNOK_clean_linker_0, # of connection points: 2
#     Edge 18, Type (0, 1), BuildingBlock: AJUNOK_clean_linker_0, # of connection points: 2
#     Edge 19, Type (0, 1), BuildingBlock: AJUNOK_clean_linker_0, # of connection points: 2
#     Edge 20, Type (0, 1), BuildingBlock: AJUNOK_clean_linker_0, # of connection points: 2
#     Edge 21, Type (0, 1), BuildingBlock: AJUNOK_clean_linker_0, # of connection points: 2
#     Edge 22, Type (0, 1), BuildingBlock: AJUNOK_clean_linker_0, # of connection points: 2
#     Edge 23, Type (0, 1), BuildingBlock: AJUNOK_clean_linker_0, # of connection points: 2
#     Edge 24, Type (0, 1), BuildingBlock: AJUNOK_clean_linker_0, # of connection points: 2
#     Edge 25, Type (0, 1), BuildingBlock: AJUNOK_clean_linker_0, # of connection points: 2
#     Edge 26, Type (0, 1), BuildingBlock: AJUNOK_clean_linker_0, # of connection points: 2
#     Edge 27, Type (0, 1), BuildingBlock: AJUNOK_clean_linker_0, # of connection points: 2
#     Edge 28, Type (0, 1), BuildingBlock: AJUNOK_clean_linker_0, # of connection points: 2
#     Edge 29, Type (0, 1), BuildingBlock: AJUNOK_clean_linker_0, # of connection points: 2
#     Edge 30, Type (0, 1), BuildingBlock: AJUNOK_clean_linker_0, # of connection points: 2
#     Edge 31, Type (0, 1), BuildingBlock: AJUNOK_clean_linker_0, # of connection points: 2
#     Edge 32, Type (0, 1), BuildingBlock: AJUNOK_clean_linker_0, # of connection points: 2
#     Edge 33, Type (0, 1), BuildingBlock: AJUNOK_clean_linker_0, # of connection points: 2
#     Edge 34, Type (0, 1), BuildingBlock: AJUNOK_clean_linker_0, # of connection points: 2
# Relax obj value: 0.048
# Max RMSD: 0.138
# Mean RMSD: 0.073
data_MOF--net-the--node1-GIZVER_clean_sbu_0--node2-KAKCAD_clean_linker_0--edge1-AJUNOK_clean_linker_0
_symmetry_space_group_name_H-M    P1
_symmetry_Int_Tables_number       1
_symmetry_cell_setting            triclinic
loop_
_symmetry_equiv_pos_as_xyz
'x, y, z'
_cell_length_a     39.973356
_cell_length_b     37.611817
_cell_length_c     34.713052
_cell_angle_alpha  86.656215
_cell_angle_beta   95.650744
_cell_angle_gamma 104.49136
loop_
_atom_site_label
_atom_site_type_symbol
_atom_site_fract_x
_atom_site_fract_y
_atom_site_fract_z
_atom_type_partial_charge
C0 C 0.35697 0.37491 0.26085 0.0
C1 C 0.36545 0.41329 0.25535 0.0
C2 C 0.34737 0.35878 0.29656 0.0
C3 C 0.34614 0.38076 0.32747 0.0
C4 C 0.35429 0.41918 0.32185 0.0
C5 C 0.36404 0.43532 0.28611 0.0
C6 C 0.3361 0.36355 0.36539 0.0
C7 C 0.34937 0.3343 0.3814 0.0
C8 C 0.33859 0.3168 0.41649 0.0
C9 C 0.31513 0.32951 0.43613 0.0
C10 C 0.30138 0.35853 0.42031 0.0
C11 C 0.31205 0.37539 0.38488 0.0
C12 C 0.27391 0.3695 0.43893 0.0
C13 C 0.24783 0.34289 0.45624 0.0
C14 C 0.2721 0.40636 0.43692 0.0
C15 C 0.24351 0.41597 0.44904 0.0
C16 C 0.21652 0.38907 0.46431 0.0
C17 C 0.35023 0.28389 0.43144 0.0
C18 C 0.35157 0.25682 0.40585 0.0
C19 C 0.35921 0.2788 0.47121 0.0
C20 C 0.37002 0.24751 0.48496 0.0
C21 C 0.37222 0.22103 0.4591 0.0
C22 C 0.36253 0.22574 0.41954 0.0
C23 C 0.21963 0.35272 0.46932 0.0
H24 H 0.3586 0.35736 0.23779 0.0
H25 H 0.34084 0.3291 0.29997 0.0
H26 H 0.35374 0.43674 0.34531 0.0
H27 H 0.37073 0.465 0.28254 0.0
H28 H 0.36814 0.32514 0.36652 0.0
H29 H 0.3005 0.39671 0.37142 0.0
H30 H 0.30677 0.31604 0.46321 0.0
H31 H 0.24826 0.31418 0.45819 0.0
H32 H 0.29222 0.4277 0.42477 0.0
H33 H 0.24194 0.4443 0.44492 0.0
H34 H 0.34407 0.25959 0.37519 0.0
H35 H 0.35842 0.29925 0.49159 0.0
H36 H 0.19976 0.33166 0.48223 0.0
H37 H 0.36423 0.20578 0.39901 0.0
H38 H 0.37701 0.2442 0.51567 0.0
C39 C 0.81444 0.43266 0.36603 0.0
C40 C 0.83534 0.41157 0.38635 0.0
C41 C 0.78242 0.41563 0.34656 0.0
C42 C 0.77067 0.377 0.34652 0.0
C43 C 0.79242 0.3561 0.36597 0.0
C44 C 0.82404 0.37314 0.38597 0.0
C45 C 0.73565 0.35839 0.32747 0.0
C46 C 0.72094 0.3738 0.29377 0.0
C47 C 0.68833 0.35577 0.27594 0.0
C48 C 0.67049 0.32206 0.29204 0.0
C49 C 0.68383 0.3066 0.32614 0.0
C50 C 0.71639 0.32501 0.34356 0.0
C51 C 0.66292 0.27203 0.34413 0.0
C52 C 0.62662 0.26569 0.34315 0.0
C53 C 0.6787 0.24511 0.36233 0.0
C54 C 0.65869 0.21303 0.37942 0.0
C55 C 0.62249 0.20718 0.37876 0.0
C56 C 0.67148 0.37209 0.24136 0.0
C57 C 0.66792 0.40837 0.24113 0.0
C58 C 0.65536 0.35002 0.21011 0.0
C59 C 0.63473 0.36315 0.18048 0.0
C60 C 0.62933 0.39861 0.18144 0.0
C61 C 0.64704 0.42148 0.2115 0.0
C62 C 0.60674 0.23362 0.35977 0.0
H63 H 0.82234 0.46239 0.36631 0.0
H64 H 0.7665 0.43288 0.33258 0.0
H65 H 0.78505 0.32638 0.36594 0.0
H66 H 0.83971 0.35623 0.40129 0.0
H67 H 0.73501 0.39937 0.2808 0.0
H68 H 0.72617 0.31387 0.37057 0.0
H69 H 0.64556 0.3081 0.27818 0.0
H70 H 0.61339 0.2858 0.33001 0.0
H71 H 0.70649 0.2487 0.36321 0.0
H72 H 0.67159 0.19312 0.39373 0.0
H73 H 0.6798 0.42598 0.26488 0.0
H74 H 0.65801 0.32212 0.20911 0.0
H75 H 0.57884 0.22963 0.35788 0.0
H76 H 0.64352 0.44898 0.21306 0.0
H77 H 0.62238 0.3452 0.15716 0.0
C78 C 0.67041 0.63833 0.22217 0.0
C79 C 0.647 0.65167 0.19596 0.0
C80 C 0.68968 0.65999 0.25181 0.0
C81 C 0.68753 0.69651 0.2553 0.0
C82 C 0.66563 0.71067 0.22744 0.0
C83 C 0.64545 0.68843 0.19829 0.0
C84 C 0.70701 0.71861 0.2888 0.0
C85 C 0.73781 0.71105 0.30645 0.0
C86 C 0.75331 0.72623 0.34181 0.0
C87 C 0.74008 0.75297 0.35749 0.0
C88 C 0.71047 0.76297 0.33931 0.0
C89 C 0.69374 0.74499 0.30546 0.0
C90 C 0.69599 0.79087 0.35654 0.0
C91 C 0.69618 0.79283 0.39701 0.0
C92 C 0.68137 0.81555 0.33255 0.0
C93 C 0.66682 0.84094 0.34846 0.0
C94 C 0.66688 0.84266 0.38878 0.0
C95 C 0.78072 0.71083 0.36392 0.0
C96 C 0.77731 0.67266 0.36488 0.0
C97 C 0.80952 0.73314 0.38495 0.0
C98 C 0.83423 0.71743 0.40642 0.0
C99 C 0.83027 0.67918 0.40753 0.0
C100 C 0.80183 0.65715 0.38607 0.0
C101 C 0.6819 0.8185 0.41292 0.0
H102 H 0.6732 0.61056 0.2205 0.0
H103 H 0.7054 0.64725 0.27268 0.0
H104 H 0.66363 0.73877 0.22832 0.0
H105 H 0.62783 0.69967 0.17834 0.0
H106 H 0.74948 0.69222 0.29334 0.0
H107 H 0.66952 0.75048 0.29316 0.0
H108 H 0.75238 0.7653 0.38435 0.0
H109 H 0.70651 0.77389 0.41649 0.0
H110 H 0.6812 0.81533 0.30135 0.0
H111 H 0.65542 0.85928 0.32921 0.0
H112 H 0.75523 0.65445 0.34971 0.0
H113 H 0.81302 0.76264 0.38468 0.0
H114 H 0.68163 0.8187 0.44408 0.0
H115 H 0.79844 0.62767 0.38573 0.0
H116 H 0.85607 0.73503 0.4226 0.0
C117 C 0.33563 0.62464 0.21679 0.0
C118 C 0.37134 0.62626 0.2207 0.0
C119 C 0.32135 0.6438 0.24174 0.0
C120 C 0.34234 0.6648 0.27149 0.0
C121 C 0.37805 0.66627 0.27529 0.0
C122 C 0.39231 0.64746 0.2502 0.0
C123 C 0.32723 0.68445 0.29908 0.0
C124 C 0.29432 0.66865 0.31214 0.0
C125 C 0.28067 0.68603 0.33954 0.0
C126 C 0.30055 0.71967 0.35421 0.0
C127 C 0.33351 0.73616 0.34162 0.0
C128 C 0.34627 0.71849 0.31366 0.0
C129 C 0.35515 0.77117 0.35843 0.0
C130 C 0.34013 0.79957 0.36713 0.0
C131 C 0.39122 0.77623 0.36649 0.0
C132 C 0.41165 0.80869 0.3825 0.0
C133 C 0.39668 0.83708 0.39095 0.0
C134 C 0.24612 0.66829 0.35374 0.0
C135 C 0.21795 0.6517 0.32783 0.0
C136 C 0.24126 0.66693 0.39344 0.0
C137 C 0.20926 0.64892 0.40694 0.0
C138 C 0.18116 0.6321 0.38107 0.0
C139 C 0.1859 0.63385 0.34132 0.0
C140 C 0.36064 0.83205 0.38336 0.0
H141 H 0.31856 0.60806 0.19491 0.0
H142 H 0.29381 0.64217 0.23758 0.0
H143 H 0.39508 0.68146 0.29817 0.0
H144 H 0.41994 0.64952 0.25399 0.0
H145 H 0.27977 0.64199 0.30212 0.0
H146 H 0.3711 0.73154 0.30294 0.0
H147 H 0.29045 0.73282 0.37583 0.0
H148 H 0.31253 0.79688 0.36105 0.0
H149 H 0.40369 0.75475 0.36116 0.0
H150 H 0.4392 0.81124 0.38905 0.0
H151 H 0.22069 0.65254 0.29704 0.0
H152 H 0.26253 0.67883 0.41429 0.0
H153 H 0.34836 0.85341 0.38967 0.0
H154 H 0.16479 0.62125 0.32062 0.0
H155 H 0.2069 0.64719 0.43785 0.0
C156 C 0.21719 0.62991 0.69465 0.0
C157 C 0.21078 0.63061 0.65401 0.0
C158 C 0.24964 0.64779 0.71251 0.0
C159 C 0.27636 0.66719 0.69018 0.0
C160 C 0.26986 0.66792 0.64959 0.0
C161 C 0.2376 0.64989 0.63179 0.0
C162 C 0.31074 0.6872 0.70882 0.0
C163 C 0.328 0.67082 0.73973 0.0
C164 C 0.36122 0.68919 0.7558 0.0
C165 C 0.37647 0.72466 0.74127 0.0
C166 C 0.35985 0.74151 0.71056 0.0
C167 C 0.32695 0.72256 0.69463 0.0
C168 C 0.37789 0.77808 0.69408 0.0
C169 C 0.39808 0.8056 0.71839 0.0
C170 C 0.37686 0.78497 0.65375 0.0
C171 C 0.39627 0.81801 0.63816 0.0
C172 C 0.41716 0.84497 0.66249 0.0
C173 C 0.38123 0.67125 0.78641 0.0
C174 C 0.36524 0.65018 0.81751 0.0
C175 C 0.41718 0.67611 0.78509 0.0
C176 C 0.43669 0.66105 0.81418 0.0
C177 C 0.42085 0.63992 0.8452 0.0
C178 C 0.38488 0.6348 0.84668 0.0
C179 C 0.41761 0.83854 0.70277 0.0
H180 H 0.19697 0.61596 0.71274 0.0
H181 H 0.25361 0.64704 0.74383 0.0
H182 H 0.28995 0.68211 0.63142 0.0
H183 H 0.23382 0.65061 0.60045 0.0
H184 H 0.31624 0.64321 0.75006 0.0
H185 H 0.31371 0.73558 0.67131 0.0
H186 H 0.40194 0.73901 0.75343 0.0
H187 H 0.3991 0.80153 0.74958 0.0
H188 H 0.36212 0.76426 0.63409 0.0
H189 H 0.39593 0.82186 0.60696 0.0
H190 H 0.33769 0.6461 0.81966 0.0
H191 H 0.43045 0.69158 0.76139 0.0
H192 H 0.43336 0.8589 0.72221 0.0
H193 H 0.37191 0.61866 0.87021 0.0
H194 H 0.46442 0.66626 0.81248 0.0
C195 C 0.36076 0.36799 0.8417 0.0
C196 C 0.39688 0.38075 0.84085 0.0
C197 C 0.34093 0.34624 0.81202 0.0
C198 C 0.35689 0.33663 0.7811 0.0
C199 C 0.39312 0.34887 0.78091 0.0
C200 C 0.4128 0.37064 0.81033 0.0
C201 C 0.3361 0.31518 0.74823 0.0
C202 C 0.30536 0.3235 0.7314 0.0
C203 C 0.28763 0.30604 0.69781 0.0
C204 C 0.30052 0.27918 0.68166 0.0
C205 C 0.33111 0.27042 0.69819 0.0
C206 C 0.34852 0.28836 0.73151 0.0
C207 C 0.34648 0.24443 0.67949 0.0
C208 C 0.32691 0.20896 0.67005 0.0
C209 C 0.38146 0.25503 0.67168 0.0
C210 C 0.39688 0.23046 0.65584 0.0
C211 C 0.37795 0.19432 0.64817 0.0
C212 C 0.25784 0.31874 0.67764 0.0
C213 C 0.2318 0.32551 0.69859 0.0
C214 C 0.25689 0.32717 0.63758 0.0
C215 C 0.23162 0.3438 0.61935 0.0
C216 C 0.20658 0.35198 0.64067 0.0
C217 C 0.20626 0.34178 0.6802 0.0
C218 C 0.34256 0.18405 0.65465 0.0
H219 H 0.34776 0.37571 0.86465 0.0
H220 H 0.3131 0.33711 0.81315 0.0
H221 H 0.40629 0.34256 0.75734 0.0
H222 H 0.4406 0.38005 0.80893 0.0
H223 H 0.29638 0.34524 0.74303 0.0
H224 H 0.37207 0.28152 0.74429 0.0
H225 H 0.28741 0.26596 0.6555 0.0
H226 H 0.29983 0.20018 0.67564 0.0
H227 H 0.39694 0.28248 0.67783 0.0
H228 H 0.4238 0.23978 0.64976 0.0
H229 H 0.23175 0.3191 0.72942 0.0
H230 H 0.27675 0.32266 0.62069 0.0
H231 H 0.32722 0.1565 0.64877 0.0
H232 H 0.18732 0.34808 0.69724 0.0
H233 H 0.2324 0.35157 0.58883 0.0
C234 C 0.68666 0.20534 0.65743 0.0
C235 C 0.6515 0.20227 0.64519 0.0
C236 C 0.70644 0.23667 0.67659 0.0
C237 C 0.69134 0.26534 0.68422 0.0
C238 C 0.65594 0.26162 0.67268 0.0
C239 C 0.63637 0.23061 0.6534 0.0
C240 C 0.71228 0.29978 0.70268 0.0
C241 C 0.74542 0.3172 0.69111 0.0
C242 C 0.76361 0.35162 0.70539 0.0
C243 C 0.74849 0.3683 0.73204 0.0
C244 C 0.71568 0.35126 0.74457 0.0
C245 C 0.69801 0.3168 0.7299 0.0
C246 C 0.69929 0.37029 0.77147 0.0
C247 C 0.71942 0.3922 0.80108 0.0
C248 C 0.66339 0.36773 0.76689 0.0
C249 C 0.64815 0.38656 0.79099 0.0
C250 C 0.66832 0.40881 0.82021 0.0
C251 C 0.79762 0.37126 0.69116 0.0
C252 C 0.82372 0.35279 0.68785 0.0
C253 C 0.80428 0.40898 0.68104 0.0
C254 C 0.8362 0.4278 0.66814 0.0
C255 C 0.86241 0.40948 0.66498 0.0
C256 C 0.85584 0.37174 0.67509 0.0
C257 C 0.70418 0.41139 0.82493 0.0
H258 H 0.69907 0.18409 0.65116 0.0
H259 H 0.73358 0.23854 0.68526 0.0
H260 H 0.64348 0.28326 0.67748 0.0
H261 H 0.60931 0.229 0.64436 0.0
H262 H 0.75631 0.3049 0.66946 0.0
H263 H 0.67294 0.30306 0.73967 0.0
H264 H 0.76219 0.39507 0.74248 0.0
H265 H 0.74706 0.39464 0.8059 0.0
H266 H 0.64699 0.35178 0.74409 0.0
H267 H 0.62041 0.38374 0.78661 0.0
H268 H 0.81952 0.32383 0.69579 0.0
H269 H 0.78458 0.42394 0.68261 0.0
H270 H 0.72068 0.4288 0.84658 0.0
H271 H 0.87566 0.35694 0.67363 0.0
H272 H 0.84022 0.45673 0.66008 0.0
C273 C 0.63305 0.6275 0.73937 0.0
C274 C 0.65639 0.6242 0.77162 0.0
C275 C 0.64531 0.64162 0.70391 0.0
C276 C 0.68111 0.65231 0.70004 0.0
C277 C 0.70437 0.64809 0.7321 0.0
C278 C 0.69211 0.6341 0.76752 0.0
C279 C 0.6945 0.66893 0.66314 0.0
C280 C 0.68125 0.6967 0.64336 0.0
C281 C 0.69608 0.71492 0.61022 0.0
C282 C 0.72461 0.70504 0.59724 0.0
C283 C 0.73848 0.6778 0.61727 0.0
C284 C 0.72254 0.65912 0.64938 0.0
C285 C 0.77109 0.67052 0.60684 0.0
C286 C 0.77782 0.6696 0.56792 0.0
C287 C 0.79591 0.66433 0.63638 0.0
C288 C 0.82581 0.6554 0.62735 0.0
C289 C 0.83188 0.65331 0.58866 0.0
C290 C 0.68362 0.74634 0.59159 0.0
C291 C 0.64828 0.74605 0.58972 0.0
C292 C 0.7072 0.77795 0.5781 0.0
C293 C 0.69593 0.80913 0.56503 0.0
C294 C 0.66107 0.80968 0.56616 0.0
C295 C 0.63718 0.77747 0.57747 0.0
C296 C 0.80825 0.66127 0.55889 0.0
H297 H 0.60532 0.61932 0.74165 0.0
H298 H 0.62684 0.64415 0.67953 0.0
H299 H 0.73214 0.65658 0.73013 0.0
H300 H 0.71061 0.632 0.79203 0.0
H301 H 0.6606 0.70544 0.6551 0.0
H302 H 0.73245 0.63725 0.66431 0.0
H303 H 0.73678 0.71939 0.57233 0.0
H304 H 0.75922 0.67429 0.54454 0.0
H305 H 0.79213 0.66607 0.66662 0.0
H306 H 0.84407 0.64963 0.65061 0.0
H307 H 0.62926 0.7219 0.59889 0.0
H308 H 0.73465 0.77935 0.57921 0.0
H309 H 0.81281 0.65988 0.52886 0.0
H310 H 0.61007 0.77698 0.57852 0.0
H311 H 0.71473 0.83322 0.5553 0.0
Co312 Co 0.08838 0.48031 0.54951 0.0
Co313 Co 0.05287 0.46708 0.48072 0.0
Co314 Co 0.0216 0.52021 0.52323 0.0
O315 O 0.04077 0.47588 0.52947 0.0
H316 H 0.02484 0.45454 0.53978 0.0
O317 O 1.00239 0.5643 0.51736 0.0
Co318 Co 0.95435 0.55983 0.49981 0.0
Co319 Co 0.99217 0.57308 0.5672 0.0
H320 H 0.01797 0.58557 0.50643 0.0
O321 O 0.06334 0.42326 0.4695 0.0
O322 O 0.09929 0.4725 0.49719 0.0
O323 O 0.05298 0.50463 0.44024 0.0
O324 O 0.05472 0.54594 0.48368 0.0
O325 O 0.98643 0.49541 0.48108 0.0
O326 O 0.91124 0.56019 0.48322 0.0
O327 O 0.95804 0.60826 0.48726 0.0
O328 O 0.94386 0.50843 0.50865 0.0
O329 O 0.98872 0.49455 0.56275 0.0
O330 O 0.99279 0.53517 0.60753 0.0
O331 O 0.94538 0.5668 0.5532 0.0
O332 O 0.98193 0.61715 0.57866 0.0
C333 C 0.11741 0.44534 0.5742 0.0
C334 C 0.08882 0.55024 0.56266 0.0
C335 C 0.06197 0.53762 0.4508 0.0
C336 C 0.09435 0.44053 0.48244 0.0
C337 C 0.92481 0.5952 0.4785 0.0
C338 C 0.95399 0.49022 0.48448 0.0
C339 C 0.98269 0.5024 0.59628 0.0
C340 C 0.95072 0.59886 0.56778 0.0
O341 O 0.13089 0.48021 0.56858 0.0
O342 O 0.08453 0.43198 0.56344 0.0
O343 O 0.05638 0.54527 0.56536 0.0
O344 O 0.09923 0.53135 0.5395 0.0
Co345 Co 0.55949 0.95604 0.48592 0.0
Co346 Co 0.577 0.9788 0.55707 0.0
Co347 Co 0.52298 0.02078 0.51701 0.0
O348 O 0.56446 1.00185 0.51066 0.0
H349 H 0.58379 0.0209 0.50249 0.0
O350 O 0.48095 0.03867 0.52353 0.0
Co351 Co 0.48494 0.0827 0.54989 0.0
Co352 Co 0.46742 0.06216 0.47848 0.0
H353 H 0.46175 0.01915 0.53114 0.0
O354 O 0.62031 0.96872 0.56754 0.0
O355 O 0.57296 0.93361 0.53596 0.0
O356 O 0.54503 0.96926 0.59683 0.0
O357 O 0.50262 0.98025 0.55544 0.0
O358 O 0.55119 0.05259 0.55974 0.0
O359 O 0.48542 0.12176 0.57599 0.0
O360 O 0.4411 0.07194 0.56524 0.0
O361 O 0.53097 0.09986 0.53794 0.0
O362 O 0.54322 0.06184 0.47861 0.0
O363 O 0.49998 0.07531 0.43982 0.0
O364 O 0.46954 0.10597 0.50141 0.0
O365 O 0.42318 0.07014 0.46898 0.0
C366 C 0.59079 0.93246 0.45749 0.0
C367 C 0.49091 0.9549 0.47557 0.0
C368 C 0.51298 0.96555 0.58704 0.0
C369 C 0.60454 0.93795 0.5516 0.0
C370 C 0.4537 0.10393 0.58075 0.0
C371 C 0.55408 0.08728 0.55774 0.0
C372 C 0.53209 0.07852 0.44875 0.0
C373 C 0.43783 0.10064 0.48606 0.0
O374 O 0.55867 0.91564 0.46165 0.0
O375 O 0.60367 0.96481 0.4721 0.0
O376 O 0.49509 0.98967 0.47411 0.0
O377 O 0.51248 0.94056 0.49599 0.0
Co378 Co 0.47766 0.53415 0.09429 0.0
Co379 Co 0.46289 0.46745 0.06874 0.0
Co380 Co 0.51936 0.51854 0.01868 0.0
O381 O 0.47593 0.51377 0.04466 0.0
H382 H 0.45711 0.51836 0.02699 0.0
O383 O 0.5627 0.52322 0.99243 0.0
Co384 Co 0.56047 0.50269 0.94271 0.0
Co385 Co 0.57635 0.56931 0.96822 0.0
H386 H 0.5815 0.51837 1.00997 0.0
O387 O 0.4177 0.44787 0.08157 0.0
O388 O 0.46135 0.48439 0.11728 0.0
O389 O 0.49682 0.4385 0.07649 0.0
O390 O 0.5392 0.48408 0.0566 0.0
O391 O 0.49338 0.47661 0.98529 0.0
O392 O 0.5622 0.48306 0.89784 0.0
O393 O 0.60436 0.49656 0.94657 0.0
O394 O 0.51413 0.50499 0.93245 0.0
O395 O 0.49985 0.55297 0.9804 0.0
O396 O 0.54304 0.59885 0.9623 0.0
O397 O 0.57537 0.55223 0.91903 0.0
O398 O 0.62086 0.58881 0.95248 0.0
C399 C 0.44485 0.55423 0.1245 0.0
C400 C 0.54696 0.55548 0.08941 0.0
C401 C 0.52886 0.45322 0.07467 0.0
C402 C 0.42991 0.4638 0.11394 0.0
C403 C 0.59333 0.48275 0.91258 0.0
C404 C 0.49139 0.48038 0.9484 0.0
C405 C 0.51092 0.58413 0.96322 0.0
C406 C 0.60643 0.57346 0.92049 0.0
O407 O 0.47586 0.55348 0.13921 0.0
O408 O 0.43393 0.54118 0.09015 0.0
O409 O 0.54525 0.56021 0.05255 0.0
O410 O 0.52367 0.53103 0.10481 0.0
C411 C 0.18701 0.43228 0.49023 0.0
C412 C 0.1845 0.39905 0.47246 0.0
C413 C 0.15766 0.44518 0.49331 0.0
C414 C 0.1244 0.42485 0.47993 0.0
H415 H 0.21203 0.44902 0.50094 0.0
H416 H 0.16137 0.47174 0.50577 0.0
S417 S 0.10362 0.33546 0.43178 0.0
N418 N 0.14619 0.34596 0.44084 0.0
N419 N 0.09052 0.36919 0.449 0.0
C420 C 0.12128 0.39086 0.46328 0.0
C421 C 0.15142 0.37809 0.45921 0.0
C422 C 0.60456 0.13852 0.39289 0.0
C423 C 0.60094 0.17423 0.39848 0.0
C424 C 0.58262 0.10721 0.4095 0.0
C425 C 0.55619 0.11071 0.43179 0.0
H426 H 0.62393 0.13472 0.37486 0.0
H427 H 0.58585 0.08021 0.40423 0.0
S428 S 0.53895 0.1977 0.45967 0.0
N429 N 0.57125 0.21087 0.43174 0.0
N430 N 0.52958 0.15238 0.46145 0.0
C431 C 0.55316 0.14614 0.43868 0.0
C432 C 0.57562 0.17781 0.4224 0.0
C433 C 0.89102 0.67251 0.42571 0.0
C434 C 0.85532 0.66146 0.43073 0.0
C435 C 0.91397 0.65193 0.44267 0.0
C436 C 0.9018 0.61957 0.46488 0.0
H437 H 0.90098 0.69613 0.40706 0.0
H438 H 0.941 0.66043 0.43685 0.0
S439 S 0.81187 0.58302 0.49255 0.0
N440 N 0.80994 0.61916 0.4639 0.0
N441 N 0.85264 0.58041 0.49524 0.0
C442 C 0.86662 0.60983 0.47225 0.0
C443 C 0.84349 0.6308 0.45533 0.0
C444 C 0.4097 0.88328 0.44344 0.0
C445 C 0.41865 0.87109 0.40911 0.0
C446 C 0.43229 0.9124 0.46373 0.0
C447 C 0.46423 0.93072 0.45001 0.0
H448 H 0.38592 0.86899 0.45579 0.0
H449 H 0.42545 0.91951 0.49118 0.0
S450 S 0.49856 0.91204 0.36005 0.0
N451 N 0.46077 0.88167 0.36104 0.0
N452 N 0.50295 0.93623 0.39926 0.0
C453 C 0.47275 0.92007 0.41493 0.0
C454 C 0.44999 0.89034 0.39442 0.0
C455 C 0.16095 0.62816 0.60277 0.0
C456 C 0.17664 0.61101 0.63434 0.0
C457 C 0.13082 0.60909 0.58117 0.0
C458 C 0.115 0.57232 0.59057 0.0
H459 H 0.17258 0.65631 0.59402 0.0
H460 H 0.12066 0.62273 0.55601 0.0
S461 S 0.14472 0.51462 0.67028 0.0
N462 N 0.17337 0.55471 0.67367 0.0
N463 N 0.1163 0.51959 0.63377 0.0
C464 C 0.12947 0.55521 0.62273 0.0
C465 C 0.16031 0.5744 0.64453 0.0
C466 C 0.38056 0.14569 0.6021 0.0
C467 C 0.39556 0.16764 0.63392 0.0
C468 C 0.39854 0.12302 0.58626 0.0
C469 C 0.43221 0.12193 0.6015 0.0
H470 H 0.35538 0.14713 0.58837 0.0
H471 H 0.38677 0.10783 0.56078 0.0
S472 S 0.48095 0.16968 0.68788 0.0
N473 N 0.44437 0.18299 0.68284 0.0
N474 N 0.47846 0.1418 0.65213 0.0
C475 C 0.44672 0.14228 0.63432 0.0
C476 C 0.42833 0.16478 0.65076 0.0
C477 C 0.91284 0.46492 0.66519 0.0
C478 C 0.89614 0.43015 0.65071 0.0
C479 C 0.9423 0.48701 0.64924 0.0
C480 C 0.95633 0.47542 0.61787 0.0
H481 H 0.90248 0.47562 0.68847 0.0
H482 H 0.95309 0.51412 0.66054 0.0
S483 S 0.9241 0.3851 0.57152 0.0
N484 N 0.89705 0.38413 0.60478 0.0
N485 N 0.95266 0.42518 0.57513 0.0
C486 C 0.94102 0.43974 0.60459 0.0
C487 C 0.91093 0.41726 0.62088 0.0
C488 C 0.61801 0.84365 0.53699 0.0
C489 C 0.64969 0.84421 0.55869 0.0
C490 C 0.60401 0.87429 0.53441 0.0
C491 C 0.62143 0.90703 0.55276 0.0
H492 H 0.60339 0.81894 0.52276 0.0
H493 H 0.57891 0.87182 0.51848 0.0
S494 S 0.70628 0.92331 0.61156 0.0
N495 N 0.69858 0.88038 0.59834 0.0
N496 N 0.67306 0.93867 0.59191 0.0
C497 C 0.65394 0.90852 0.57317 0.0
C498 C 0.66794 0.87702 0.57636 0.0
C499 C 0.36986 0.15419 0.46007 0.0
C500 C 0.38682 0.18963 0.47227 0.0
C501 C 0.38597 0.12513 0.46629 0.0
C502 C 0.41975 0.13057 0.48465 0.0
H503 H 0.34439 0.14919 0.44442 0.0
H504 H 0.37224 0.09857 0.45532 0.0
S505 S 0.47388 0.21789 0.52523 0.0
N506 N 0.43796 0.22826 0.50597 0.0
N507 N 0.46855 0.17387 0.51761 0.0
C508 C 0.43622 0.16558 0.49889 0.0
C509 C 0.41964 0.19506 0.49276 0.0
C510 C 0.87046 0.42245 0.4504 0.0
C511 C 0.8677 0.42947 0.41009 0.0
C512 C 0.89935 0.44111 0.47405 0.0
C513 C 0.92716 0.46655 0.45823 0.0
H514 H 0.84946 0.40346 0.46393 0.0
H515 H 0.89955 0.43625 0.50513 0.0
S516 S 0.93327 0.49387 0.35437 0.0
N517 N 0.89553 0.46336 0.35533 0.0
N518 N 0.9504 0.4974 0.39973 0.0
C519 C 0.92535 0.47288 0.41788 0.0
C520 C 0.89547 0.45461 0.39384 0.0
C521 C 0.61446 0.86673 0.39248 0.0
C522 C 0.64917 0.86789 0.40534 0.0
C523 C 0.59627 0.88858 0.40887 0.0
C524 C 0.61224 0.91312 0.43817 0.0
H525 H 0.60091 0.84794 0.37033 0.0
H526 H 0.56926 0.88589 0.39876 0.0
S527 S 0.70306 0.92749 0.48124 0.0
N528 N 0.69907 0.89586 0.44885 0.0
N529 N 0.66514 0.93796 0.47875 0.0
C530 C 0.64727 0.91544 0.45052 0.0
C531 C 0.66562 0.89248 0.43443 0.0
C532 C 0.13248 0.57509 0.38257 0.0
C533 C 0.14786 0.61063 0.39578 0.0
C534 C 0.10334 0.55262 0.39879 0.0
C535 C 0.08825 0.56461 0.42911 0.0
H536 H 0.14397 0.56381 0.36066 0.0
H537 H 0.09366 0.52495 0.38858 0.0
S538 S 0.11556 0.65761 0.47011 0.0
N539 N 0.14345 0.65841 0.43782 0.0
N540 N 0.08901 0.6162 0.46875 0.0
C541 C 0.10215 0.60099 0.44097 0.0
C542 C 0.13186 0.62389 0.42433 0.0
C543 C 0.47581 0.88805 0.65814 0.0
C544 C 0.44023 0.87855 0.6458 0.0
C545 C 0.49883 0.91733 0.64026 0.0
C546 C 0.48723 0.93847 0.60928 0.0
H547 H 0.48623 0.8718 0.68083 0.0
H548 H 0.52614 0.92247 0.65 0.0
S549 S 0.39545 0.9277 0.56975 0.0
N550 N 0.39381 0.8946 0.60343 0.0
N551 N 0.43675 0.94966 0.56974 0.0
C552 C 0.45127 0.9304 0.59812 0.0
C553 C 0.42791 0.90043 0.61629 0.0
C554 C 0.14746 0.36229 0.61962 0.0
C555 C 0.18379 0.3752 0.62286 0.0
C556 C 0.12601 0.38485 0.60341 0.0
C557 C 0.14018 0.42135 0.59078 0.0
H558 H 0.13562 0.33454 0.62948 0.0
H559 H 0.09818 0.37375 0.60124 0.0
S560 S 0.23423 0.46813 0.59442 0.0
N561 N 0.23307 0.42636 0.61258 0.0
N562 N 0.19338 0.46916 0.58342 0.0
C563 C 0.17666 0.43448 0.5944 0.0
C564 C 0.19828 0.41131 0.61009 0.0
C565 C 0.61275 0.17918 0.58652 0.0
C566 C 0.63063 0.17122 0.62154 0.0
C567 C 0.58969 0.15142 0.56535 0.0
C568 C 0.5832 0.11425 0.57822 0.0
H569 H 0.616 0.20737 0.57577 0.0
H570 H 0.57603 0.15947 0.53908 0.0
S571 S 0.62528 0.07839 0.66689 0.0
N572 N 0.642 0.12327 0.66723 0.0
N573 N 0.59831 0.07076 0.6273 0.0
C574 C 0.60223 0.10554 0.61221 0.0
C575 C 0.62598 0.13408 0.6339 0.0
C576 C 0.86249 0.6037 0.59174 0.0
C577 C 0.86162 0.63986 0.58019 0.0
C578 C 0.89155 0.59067 0.58722 0.0
C579 C 0.9209 0.61375 0.57203 0.0
H580 H 0.84058 0.58549 0.60454 0.0
H581 H 0.89133 0.56257 0.59639 0.0
S582 S 0.93046 0.70985 0.53517 0.0
N583 N 0.89132 0.69787 0.5508 0.0
N584 N 0.94692 0.67367 0.54354 0.0
C585 C 0.92024 0.64982 0.55988 0.0
C586 C 0.89021 0.66281 0.56357 0.0
C587 C 0.41074 0.45584 0.21906 0.0
C588 C 0.37852 0.4301 0.2185 0.0
C589 C 0.42635 0.46792 0.18479 0.0
C590 C 0.41027 0.45476 0.14866 0.0
H591 H 0.42483 0.4653 0.24633 0.0
H592 H 0.45191 0.48655 0.18697 0.0
S593 S 0.32288 0.39166 0.13151 0.0
N594 N 0.32901 0.39516 0.17902 0.0
N595 N 0.35822 0.41785 0.11426 0.0
C596 C 0.37686 0.43093 0.14757 0.0
C597 C 0.36104 0.41856 0.18258 0.0
C598 C 0.4396 0.62715 0.91538 0.0
C599 C 0.44221 0.62349 0.87559 0.0
C600 C 0.46157 0.61412 0.94412 0.0
C601 C 0.48701 0.59738 0.93389 0.0
H602 H 0.42104 0.64094 0.92433 0.0
H603 H 0.4591 0.61779 0.97434 0.0
S604 S 0.5016 0.5767 0.83468 0.0
N605 N 0.47011 0.59826 0.82822 0.0
N606 N 0.51167 0.575 0.88189 0.0
C607 C 0.48907 0.59246 0.8945 0.0
C608 C 0.46664 0.60521 0.86543 0.0
C609 C 0.44035 0.43929 0.85674 0.0
C610 C 0.41816 0.40663 0.86985 0.0
C611 C 0.46284 0.46321 0.88259 0.0
C612 C 0.46442 0.45557 0.92291 0.0
H613 H 0.44063 0.44627 0.82602 0.0
H614 H 0.47963 0.48767 0.87052 0.0
S615 S 0.41031 0.37426 0.97234 0.0
N616 N 0.39793 0.36832 0.92583 0.0
N617 N 0.44042 0.4134 0.97478 0.0
C618 C 0.44148 0.42354 0.93663 0.0
C619 C 0.41831 0.39909 0.91006 0.0
C620 C 0.627 0.44802 0.8273 0.0
C621 C 0.65173 0.42982 0.84469 0.0
C622 C 0.60917 0.46593 0.84949 0.0
C623 C 0.61546 0.46683 0.89007 0.0
H624 H 0.6211 0.44819 0.79617 0.0
H625 H 0.58998 0.47894 0.83462 0.0
S626 S 0.67789 0.42407 0.95012 0.0
N627 N 0.68167 0.41407 0.9053 0.0
N628 N 0.64873 0.44866 0.94684 0.0
C629 C 0.64091 0.44988 0.90788 0.0
C630 C 0.65888 0.43119 0.88526 0.0
C631 C 0.65572 0.58371 0.8316 0.0
C632 C 0.64373 0.61162 0.80991 0.0
C633 C 0.64421 0.57175 0.86813 0.0
C634 C 0.62068 0.58762 0.88394 0.0
H635 H 0.67371 0.57072 0.81999 0.0
H636 H 0.65338 0.54978 0.88381 0.0
S637 S 0.58267 0.66233 0.84016 0.0
N638 N 0.60792 0.65549 0.80786 0.0
N639 N 0.58622 0.63266 0.87638 0.0
C640 C 0.6088 0.61565 0.86296 0.0
C641 C 0.62036 0.62777 0.82589 0.0
C642 C 0.61677 0.63732 0.12908 0.0
C643 C 0.62277 0.62641 0.16819 0.0
C644 C 0.59327 0.61383 0.10309 0.0
C645 C 0.57473 0.5787 0.11537 0.0
H646 H 0.63027 0.66423 0.1185 0.0
H647 H 0.58893 0.62366 0.07352 0.0
S648 S 0.58151 0.53667 0.21461 0.0
N649 N 0.60796 0.57799 0.21772 0.0
N650 N 0.56525 0.53366 0.16905 0.0
C651 C 0.58117 0.56723 0.1542 0.0
C652 C 0.60475 0.5911 0.18054 0.0
C653 C 0.41137 0.5862 0.21153 0.0
C654 C 0.38706 0.60536 0.19512 0.0
C655 C 0.42891 0.56885 0.1884 0.0
C656 C 0.42271 0.56943 0.14777 0.0
H657 H 0.41731 0.58496 0.24263 0.0
H658 H 0.4479 0.55521 0.2026 0.0
S659 S 0.36099 0.6148 0.09005 0.0
N660 N 0.35734 0.62336 0.13538 0.0
N661 N 0.38975 0.5898 0.09201 0.0
C662 C 0.39753 0.58719 0.13089 0.0
C663 C 0.37985 0.60534 0.15451 0.0
C664 C 0.61296 0.44593 0.13363 0.0
C665 C 0.60406 0.41104 0.1523 0.0
C666 C 0.58902 0.45861 0.10737 0.0
C667 C 0.55493 0.43712 0.09888 0.0
H668 H 0.63863 0.46372 0.13953 0.0
H669 H 0.5971 0.48602 0.09454 0.0
S670 S 0.51854 0.34361 0.1403 0.0
N671 N 0.55869 0.3552 0.16055 0.0
N672 N 0.51394 0.37868 0.11119 0.0
C673 C 0.54591 0.4019 0.11699 0.0
C674 C 0.57034 0.38898 0.14362 0.0
loop_
_geom_bond_atom_site_label_1
_geom_bond_atom_site_label_2
_geom_bond_distance
_geom_bond_site_symmetry_2
_ccdc_geom_bond_type
C0 C1 1.386 . S
C0 C2 1.397 . S
C0 H24 0.931 . S
C1 C0 1.386 . S
C1 C5 1.397 . S
C2 C0 1.397 . S
C2 C3 1.384 . S
C2 H25 0.930 . S
C3 C2 1.384 . S
C3 C4 1.377 . S
C3 C6 1.481 . S
C4 C3 1.377 . S
C4 C5 1.389 . S
C4 H26 0.929 . S
C5 C1 1.397 . S
C5 C4 1.389 . S
C5 H27 0.931 . S
C6 C3 1.481 . S
C6 C7 1.387 . S
C6 C11 1.390 . S
C7 C6 1.387 . S
C7 C8 1.401 . S
C7 H28 0.930 . S
C8 C7 1.401 . S
C8 C9 1.376 . S
C8 C17 1.511 . S
C9 C8 1.376 . S
C9 C10 1.392 . S
C9 H30 0.931 . S
C10 C9 1.392 . S
C10 C11 1.361 . S
C10 C12 1.500 . S
C11 C6 1.390 . S
C11 C10 1.361 . S
C11 H29 0.931 . S
C12 C10 1.500 . S
C12 C13 1.371 . S
C12 C14 1.365 . S
C13 C12 1.371 . S
C13 C23 1.386 . S
C13 H31 0.931 . S
C14 C12 1.365 . S
C14 C15 1.409 . S
C14 H32 0.929 . S
C15 C14 1.409 . S
C15 C16 1.380 . S
C15 H33 0.930 . S
C16 C15 1.380 . S
C16 C23 1.357 . S
C17 C8 1.511 . S
C17 C18 1.341 . S
C17 C19 1.371 . S
C18 C17 1.341 . S
C18 C22 1.394 . S
C18 H34 0.930 . S
C19 C17 1.371 . S
C19 C20 1.392 . S
C19 H35 0.931 . S
C20 C19 1.392 . S
C20 C21 1.331 . S
C20 H38 0.932 . S
C21 C20 1.331 . S
C21 C22 1.336 . S
C22 C18 1.394 . S
C22 C21 1.336 . S
C22 H37 0.929 . S
C23 C13 1.386 . S
C23 C16 1.357 . S
C23 H36 0.928 . S
H24 C0 0.931 . S
H25 C2 0.930 . S
H26 C4 0.929 . S
H27 C5 0.931 . S
H28 C7 0.930 . S
H29 C11 0.931 . S
H30 C9 0.931 . S
H31 C13 0.931 . S
H32 C14 0.929 . S
H33 C15 0.930 . S
H34 C18 0.930 . S
H35 C19 0.931 . S
H36 C23 0.928 . S
H37 C22 0.929 . S
H38 C20 0.932 . S
C39 C40 1.386 . S
C39 C41 1.397 . S
C39 H63 0.931 . S
C40 C39 1.386 . S
C40 C44 1.397 . S
C41 C39 1.397 . S
C41 C42 1.384 . S
C41 H64 0.930 . S
C42 C41 1.384 . S
C42 C43 1.377 . S
C42 C45 1.481 . S
C43 C42 1.377 . S
C43 C44 1.389 . S
C43 H65 0.929 . S
C44 C40 1.397 . S
C44 C43 1.389 . S
C44 H66 0.931 . S
C45 C42 1.481 . S
C45 C46 1.387 . S
C45 C50 1.390 . S
C46 C45 1.387 . S
C46 C47 1.401 . S
C46 H67 0.930 . S
C47 C46 1.401 . S
C47 C48 1.376 . S
C47 C56 1.511 . S
C48 C47 1.376 . S
C48 C49 1.392 . S
C48 H69 0.931 . S
C49 C48 1.392 . S
C49 C50 1.361 . S
C49 C51 1.500 . S
C50 C45 1.390 . S
C50 C49 1.361 . S
C50 H68 0.931 . S
C51 C49 1.500 . S
C51 C52 1.371 . S
C51 C53 1.365 . S
C52 C51 1.371 . S
C52 C62 1.386 . S
C52 H70 0.931 . S
C53 C51 1.365 . S
C53 C54 1.409 . S
C53 H71 0.929 . S
C54 C53 1.409 . S
C54 C55 1.380 . S
C54 H72 0.930 . S
C55 C54 1.380 . S
C55 C62 1.357 . S
C56 C47 1.511 . S
C56 C57 1.341 . S
C56 C58 1.371 . S
C57 C56 1.341 . S
C57 C61 1.394 . S
C57 H73 0.930 . S
C58 C56 1.371 . S
C58 C59 1.392 . S
C58 H74 0.931 . S
C59 C58 1.392 . S
C59 C60 1.331 . S
C59 H77 0.932 . S
C60 C59 1.331 . S
C60 C61 1.336 . S
C61 C57 1.394 . S
C61 C60 1.336 . S
C61 H76 0.929 . S
C62 C52 1.386 . S
C62 C55 1.357 . S
C62 H75 0.928 . S
H63 C39 0.931 . S
H64 C41 0.930 . S
H65 C43 0.929 . S
H66 C44 0.931 . S
H67 C46 0.930 . S
H68 C50 0.931 . S
H69 C48 0.931 . S
H70 C52 0.931 . S
H71 C53 0.929 . S
H72 C54 0.930 . S
H73 C57 0.930 . S
H74 C58 0.931 . S
H75 C62 0.928 . S
H76 C61 0.929 . S
H77 C59 0.932 . S
C78 C79 1.386 . S
C78 C80 1.397 . S
C78 H102 0.931 . S
C79 C78 1.386 . S
C79 C83 1.397 . S
C80 C78 1.397 . S
C80 C81 1.384 . S
C80 H103 0.930 . S
C81 C80 1.384 . S
C81 C82 1.377 . S
C81 C84 1.481 . S
C82 C81 1.377 . S
C82 C83 1.389 . S
C82 H104 0.929 . S
C83 C79 1.397 . S
C83 C82 1.389 . S
C83 H105 0.931 . S
C84 C81 1.481 . S
C84 C85 1.387 . S
C84 C89 1.390 . S
C85 C84 1.387 . S
C85 C86 1.401 . S
C85 H106 0.930 . S
C86 C85 1.401 . S
C86 C87 1.376 . S
C86 C95 1.511 . S
C87 C86 1.376 . S
C87 C88 1.392 . S
C87 H108 0.931 . S
C88 C87 1.392 . S
C88 C89 1.361 . S
C88 C90 1.500 . S
C89 C84 1.390 . S
C89 C88 1.361 . S
C89 H107 0.931 . S
C90 C88 1.500 . S
C90 C91 1.371 . S
C90 C92 1.365 . S
C91 C90 1.371 . S
C91 C101 1.386 . S
C91 H109 0.931 . S
C92 C90 1.365 . S
C92 C93 1.409 . S
C92 H110 0.929 . S
C93 C92 1.409 . S
C93 C94 1.380 . S
C93 H111 0.930 . S
C94 C93 1.380 . S
C94 C101 1.357 . S
C95 C86 1.511 . S
C95 C96 1.341 . S
C95 C97 1.371 . S
C96 C95 1.341 . S
C96 C100 1.394 . S
C96 H112 0.930 . S
C97 C95 1.371 . S
C97 C98 1.392 . S
C97 H113 0.931 . S
C98 C97 1.392 . S
C98 C99 1.331 . S
C98 H116 0.932 . S
C99 C98 1.331 . S
C99 C100 1.336 . S
C100 C96 1.394 . S
C100 C99 1.336 . S
C100 H115 0.929 . S
C101 C91 1.386 . S
C101 C94 1.357 . S
C101 H114 0.928 . S
H102 C78 0.931 . S
H103 C80 0.930 . S
H104 C82 0.929 . S
H105 C83 0.931 . S
H106 C85 0.930 . S
H107 C89 0.931 . S
H108 C87 0.931 . S
H109 C91 0.931 . S
H110 C92 0.929 . S
H111 C93 0.930 . S
H112 C96 0.930 . S
H113 C97 0.931 . S
H114 C101 0.928 . S
H115 C100 0.929 . S
H116 C98 0.932 . S
C117 C118 1.386 . S
C117 C119 1.397 . S
C117 H141 0.931 . S
C118 C117 1.386 . S
C118 C122 1.397 . S
C119 C117 1.397 . S
C119 C120 1.384 . S
C119 H142 0.930 . S
C120 C119 1.384 . S
C120 C121 1.377 . S
C120 C123 1.481 . S
C121 C120 1.377 . S
C121 C122 1.389 . S
C121 H143 0.929 . S
C122 C118 1.397 . S
C122 C121 1.389 . S
C122 H144 0.931 . S
C123 C120 1.481 . S
C123 C124 1.387 . S
C123 C128 1.390 . S
C124 C123 1.387 . S
C124 C125 1.401 . S
C124 H145 0.930 . S
C125 C124 1.401 . S
C125 C126 1.376 . S
C125 C134 1.511 . S
C126 C125 1.376 . S
C126 C127 1.392 . S
C126 H147 0.931 . S
C127 C126 1.392 . S
C127 C128 1.361 . S
C127 C129 1.500 . S
C128 C123 1.390 . S
C128 C127 1.361 . S
C128 H146 0.931 . S
C129 C127 1.500 . S
C129 C130 1.371 . S
C129 C131 1.365 . S
C130 C129 1.371 . S
C130 C140 1.386 . S
C130 H148 0.931 . S
C131 C129 1.365 . S
C131 C132 1.409 . S
C131 H149 0.929 . S
C132 C131 1.409 . S
C132 C133 1.380 . S
C132 H150 0.930 . S
C133 C132 1.380 . S
C133 C140 1.357 . S
C134 C125 1.511 . S
C134 C135 1.341 . S
C134 C136 1.371 . S
C135 C134 1.341 . S
C135 C139 1.394 . S
C135 H151 0.930 . S
C136 C134 1.371 . S
C136 C137 1.392 . S
C136 H152 0.931 . S
C137 C136 1.392 . S
C137 C138 1.331 . S
C137 H155 0.932 . S
C138 C137 1.331 . S
C138 C139 1.336 . S
C139 C135 1.394 . S
C139 C138 1.336 . S
C139 H154 0.929 . S
C140 C130 1.386 . S
C140 C133 1.357 . S
C140 H153 0.928 . S
H141 C117 0.931 . S
H142 C119 0.930 . S
H143 C121 0.929 . S
H144 C122 0.931 . S
H145 C124 0.930 . S
H146 C128 0.931 . S
H147 C126 0.931 . S
H148 C130 0.931 . S
H149 C131 0.929 . S
H150 C132 0.930 . S
H151 C135 0.930 . S
H152 C136 0.931 . S
H153 C140 0.928 . S
H154 C139 0.929 . S
H155 C137 0.932 . S
C156 C157 1.386 . S
C156 C158 1.397 . S
C156 H180 0.931 . S
C157 C156 1.386 . S
C157 C161 1.397 . S
C158 C156 1.397 . S
C158 C159 1.384 . S
C158 H181 0.930 . S
C159 C158 1.384 . S
C159 C160 1.377 . S
C159 C162 1.481 . S
C160 C159 1.377 . S
C160 C161 1.389 . S
C160 H182 0.929 . S
C161 C157 1.397 . S
C161 C160 1.389 . S
C161 H183 0.931 . S
C162 C159 1.481 . S
C162 C163 1.387 . S
C162 C167 1.390 . S
C163 C162 1.387 . S
C163 C164 1.401 . S
C163 H184 0.930 . S
C164 C163 1.401 . S
C164 C165 1.376 . S
C164 C173 1.511 . S
C165 C164 1.376 . S
C165 C166 1.392 . S
C165 H186 0.931 . S
C166 C165 1.392 . S
C166 C167 1.361 . S
C166 C168 1.500 . S
C167 C162 1.390 . S
C167 C166 1.361 . S
C167 H185 0.931 . S
C168 C166 1.500 . S
C168 C169 1.371 . S
C168 C170 1.365 . S
C169 C168 1.371 . S
C169 C179 1.386 . S
C169 H187 0.931 . S
C170 C168 1.365 . S
C170 C171 1.409 . S
C170 H188 0.929 . S
C171 C170 1.409 . S
C171 C172 1.380 . S
C171 H189 0.930 . S
C172 C171 1.380 . S
C172 C179 1.357 . S
C173 C164 1.511 . S
C173 C174 1.341 . S
C173 C175 1.371 . S
C174 C173 1.341 . S
C174 C178 1.394 . S
C174 H190 0.930 . S
C175 C173 1.371 . S
C175 C176 1.392 . S
C175 H191 0.931 . S
C176 C175 1.392 . S
C176 C177 1.331 . S
C176 H194 0.932 . S
C177 C176 1.331 . S
C177 C178 1.336 . S
C178 C174 1.394 . S
C178 C177 1.336 . S
C178 H193 0.929 . S
C179 C169 1.386 . S
C179 C172 1.357 . S
C179 H192 0.928 . S
H180 C156 0.931 . S
H181 C158 0.930 . S
H182 C160 0.929 . S
H183 C161 0.931 . S
H184 C163 0.930 . S
H185 C167 0.931 . S
H186 C165 0.931 . S
H187 C169 0.931 . S
H188 C170 0.929 . S
H189 C171 0.930 . S
H190 C174 0.930 . S
H191 C175 0.931 . S
H192 C179 0.928 . S
H193 C178 0.929 . S
H194 C176 0.932 . S
C195 C196 1.386 . S
C195 C197 1.397 . S
C195 H219 0.931 . S
C196 C195 1.386 . S
C196 C200 1.397 . S
C197 C195 1.397 . S
C197 C198 1.384 . S
C197 H220 0.930 . S
C198 C197 1.384 . S
C198 C199 1.377 . S
C198 C201 1.481 . S
C199 C198 1.377 . S
C199 C200 1.389 . S
C199 H221 0.929 . S
C200 C196 1.397 . S
C200 C199 1.389 . S
C200 H222 0.931 . S
C201 C198 1.481 . S
C201 C202 1.387 . S
C201 C206 1.390 . S
C202 C201 1.387 . S
C202 C203 1.401 . S
C202 H223 0.930 . S
C203 C202 1.401 . S
C203 C204 1.376 . S
C203 C212 1.511 . S
C204 C203 1.376 . S
C204 C205 1.392 . S
C204 H225 0.931 . S
C205 C204 1.392 . S
C205 C206 1.361 . S
C205 C207 1.500 . S
C206 C201 1.390 . S
C206 C205 1.361 . S
C206 H224 0.931 . S
C207 C205 1.500 . S
C207 C208 1.371 . S
C207 C209 1.365 . S
C208 C207 1.371 . S
C208 C218 1.386 . S
C208 H226 0.931 . S
C209 C207 1.365 . S
C209 C210 1.409 . S
C209 H227 0.929 . S
C210 C209 1.409 . S
C210 C211 1.380 . S
C210 H228 0.930 . S
C211 C210 1.380 . S
C211 C218 1.357 . S
C212 C203 1.511 . S
C212 C213 1.341 . S
C212 C214 1.371 . S
C213 C212 1.341 . S
C213 C217 1.394 . S
C213 H229 0.930 . S
C214 C212 1.371 . S
C214 C215 1.392 . S
C214 H230 0.931 . S
C215 C214 1.392 . S
C215 C216 1.331 . S
C215 H233 0.932 . S
C216 C215 1.331 . S
C216 C217 1.336 . S
C217 C213 1.394 . S
C217 C216 1.336 . S
C217 H232 0.929 . S
C218 C208 1.386 . S
C218 C211 1.357 . S
C218 H231 0.928 . S
H219 C195 0.931 . S
H220 C197 0.930 . S
H221 C199 0.929 . S
H222 C200 0.931 . S
H223 C202 0.930 . S
H224 C206 0.931 . S
H225 C204 0.931 . S
H226 C208 0.931 . S
H227 C209 0.929 . S
H228 C210 0.930 . S
H229 C213 0.930 . S
H230 C214 0.931 . S
H231 C218 0.928 . S
H232 C217 0.929 . S
H233 C215 0.932 . S
C234 C235 1.386 . S
C234 C236 1.397 . S
C234 H258 0.931 . S
C235 C234 1.386 . S
C235 C239 1.397 . S
C236 C234 1.397 . S
C236 C237 1.384 . S
C236 H259 0.930 . S
C237 C236 1.384 . S
C237 C238 1.377 . S
C237 C240 1.481 . S
C238 C237 1.377 . S
C238 C239 1.389 . S
C238 H260 0.929 . S
C239 C235 1.397 . S
C239 C238 1.389 . S
C239 H261 0.931 . S
C240 C237 1.481 . S
C240 C241 1.387 . S
C240 C245 1.390 . S
C241 C240 1.387 . S
C241 C242 1.401 . S
C241 H262 0.930 . S
C242 C241 1.401 . S
C242 C243 1.376 . S
C242 C251 1.511 . S
C243 C242 1.376 . S
C243 C244 1.392 . S
C243 H264 0.931 . S
C244 C243 1.392 . S
C244 C245 1.361 . S
C244 C246 1.500 . S
C245 C240 1.390 . S
C245 C244 1.361 . S
C245 H263 0.931 . S
C246 C244 1.500 . S
C246 C247 1.371 . S
C246 C248 1.365 . S
C247 C246 1.371 . S
C247 C257 1.386 . S
C247 H265 0.931 . S
C248 C246 1.365 . S
C248 C249 1.409 . S
C248 H266 0.929 . S
C249 C248 1.409 . S
C249 C250 1.380 . S
C249 H267 0.930 . S
C250 C249 1.380 . S
C250 C257 1.357 . S
C251 C242 1.511 . S
C251 C252 1.341 . S
C251 C253 1.371 . S
C252 C251 1.341 . S
C252 C256 1.394 . S
C252 H268 0.930 . S
C253 C251 1.371 . S
C253 C254 1.392 . S
C253 H269 0.931 . S
C254 C253 1.392 . S
C254 C255 1.331 . S
C254 H272 0.932 . S
C255 C254 1.331 . S
C255 C256 1.336 . S
C256 C252 1.394 . S
C256 C255 1.336 . S
C256 H271 0.929 . S
C257 C247 1.386 . S
C257 C250 1.357 . S
C257 H270 0.928 . S
H258 C234 0.931 . S
H259 C236 0.930 . S
H260 C238 0.929 . S
H261 C239 0.931 . S
H262 C241 0.930 . S
H263 C245 0.931 . S
H264 C243 0.931 . S
H265 C247 0.931 . S
H266 C248 0.929 . S
H267 C249 0.930 . S
H268 C252 0.930 . S
H269 C253 0.931 . S
H270 C257 0.928 . S
H271 C256 0.929 . S
H272 C254 0.932 . S
C273 C274 1.386 . S
C273 C275 1.397 . S
C273 H297 0.931 . S
C274 C273 1.386 . S
C274 C278 1.397 . S
C275 C273 1.397 . S
C275 C276 1.384 . S
C275 H298 0.930 . S
C276 C275 1.384 . S
C276 C277 1.377 . S
C276 C279 1.481 . S
C277 C276 1.377 . S
C277 C278 1.389 . S
C277 H299 0.929 . S
C278 C274 1.397 . S
C278 C277 1.389 . S
C278 H300 0.931 . S
C279 C276 1.481 . S
C279 C280 1.387 . S
C279 C284 1.390 . S
C280 C279 1.387 . S
C280 C281 1.401 . S
C280 H301 0.930 . S
C281 C280 1.401 . S
C281 C282 1.376 . S
C281 C290 1.511 . S
C282 C281 1.376 . S
C282 C283 1.392 . S
C282 H303 0.931 . S
C283 C282 1.392 . S
C283 C284 1.361 . S
C283 C285 1.500 . S
C284 C279 1.390 . S
C284 C283 1.361 . S
C284 H302 0.931 . S
C285 C283 1.500 . S
C285 C286 1.371 . S
C285 C287 1.365 . S
C286 C285 1.371 . S
C286 C296 1.386 . S
C286 H304 0.931 . S
C287 C285 1.365 . S
C287 C288 1.409 . S
C287 H305 0.929 . S
C288 C287 1.409 . S
C288 C289 1.380 . S
C288 H306 0.930 . S
C289 C288 1.380 . S
C289 C296 1.357 . S
C290 C281 1.511 . S
C290 C291 1.341 . S
C290 C292 1.371 . S
C291 C290 1.341 . S
C291 C295 1.394 . S
C291 H307 0.930 . S
C292 C290 1.371 . S
C292 C293 1.392 . S
C292 H308 0.931 . S
C293 C292 1.392 . S
C293 C294 1.331 . S
C293 H311 0.932 . S
C294 C293 1.331 . S
C294 C295 1.336 . S
C295 C291 1.394 . S
C295 C294 1.336 . S
C295 H310 0.929 . S
C296 C286 1.386 . S
C296 C289 1.357 . S
C296 H309 0.928 . S
H297 C273 0.931 . S
H298 C275 0.930 . S
H299 C277 0.929 . S
H300 C278 0.931 . S
H301 C280 0.930 . S
H302 C284 0.931 . S
H303 C282 0.931 . S
H304 C286 0.931 . S
H305 C287 0.929 . S
H306 C288 0.930 . S
H307 C291 0.930 . S
H308 C292 0.931 . S
H309 C296 0.928 . S
H310 C295 0.929 . S
H311 C293 0.932 . S
Co312 O315 2.042 . S
Co312 O322 2.264 . S
Co312 O341 2.286 . S
Co312 O342 2.069 . S
Co312 O344 2.015 . S
Co313 O315 2.122 . S
Co313 O321 2.073 . S
Co313 O322 2.327 . S
Co313 O323 1.976 . S
Co314 O315 2.087 . S
Co314 O317 2.087 1_455 S
Co314 O324 2.111 . S
Co314 O325 2.143 1_455 S
Co314 O329 2.111 1_455 S
Co314 O343 2.143 . S
O315 Co312 2.042 . S
O315 Co313 2.122 . S
O315 Co314 2.087 . S
O315 H316 0.980 . S
H316 O315 0.980 . S
O317 Co314 2.087 1_655 S
O317 Co318 2.042 . S
O317 Co319 2.122 . S
O317 H320 0.980 . S
Co318 O317 2.042 . S
Co318 O326 2.286 . S
Co318 O327 2.069 . S
Co318 O328 2.015 . S
Co318 O331 2.264 . S
Co319 O317 2.122 . S
Co319 O330 1.976 . S
Co319 O331 2.327 . S
Co319 O332 2.073 . S
H320 O317 0.980 . S
O321 Co313 2.073 . S
O321 C336 1.245 . S
O322 Co312 2.264 . S
O322 Co313 2.327 . S
O322 C336 1.257 . S
O323 Co313 1.976 . S
O323 C335 1.251 . S
O324 Co314 2.111 . S
O324 C335 1.274 . S
O325 Co314 2.143 1_655 S
O325 C338 1.246 . S
O326 Co318 2.286 . S
O326 C337 1.259 . S
O327 Co318 2.069 . S
O327 C337 1.289 . S
O328 Co318 2.015 . S
O328 C338 1.257 . S
O329 Co314 2.111 1_655 S
O329 C339 1.274 . S
O330 Co319 1.976 . S
O330 C339 1.251 . S
O331 Co318 2.264 . S
O331 Co319 2.327 . S
O331 C340 1.257 . S
O332 Co319 2.073 . S
O332 C340 1.245 . S
C333 O341 1.259 . S
C333 O342 1.289 . S
C334 O343 1.246 . S
C334 O344 1.257 . S
C335 O323 1.251 . S
C335 O324 1.274 . S
C336 O321 1.245 . S
C336 O322 1.257 . S
C337 O326 1.259 . S
C337 O327 1.289 . S
C338 O325 1.246 . S
C338 O328 1.257 . S
C339 O329 1.274 . S
C339 O330 1.251 . S
C340 O331 1.257 . S
C340 O332 1.245 . S
O341 Co312 2.286 . S
O341 C333 1.259 . S
O342 Co312 2.069 . S
O342 C333 1.289 . S
O343 Co314 2.143 . S
O343 C334 1.246 . S
O344 Co312 2.015 . S
O344 C334 1.257 . S
Co345 O348 2.042 . S
Co345 O355 2.264 . S
Co345 O374 2.286 . S
Co345 O375 2.069 . S
Co345 O377 2.015 . S
Co346 O348 2.122 . S
Co346 O354 2.073 . S
Co346 O355 2.327 . S
Co346 O356 1.976 . S
Co347 O348 2.087 1_545 S
Co347 O350 2.087 . S
Co347 O357 2.111 1_545 S
Co347 O358 2.143 . S
Co347 O362 2.111 . S
Co347 O376 2.143 1_545 S
O348 Co345 2.042 . S
O348 Co346 2.122 . S
O348 Co347 2.087 1_565 S
O348 H349 0.980 . S
H349 O348 0.980 . S
O350 Co347 2.087 . S
O350 Co351 2.042 . S
O350 Co352 2.122 . S
O350 H353 0.980 . S
Co351 O350 2.042 . S
Co351 O359 2.286 . S
Co351 O360 2.069 . S
Co351 O361 2.015 . S
Co351 O364 2.264 . S
Co352 O350 2.122 . S
Co352 O363 1.976 . S
Co352 O364 2.327 . S
Co352 O365 2.073 . S
H353 O350 0.980 . S
O354 Co346 2.073 . S
O354 C369 1.245 . S
O355 Co345 2.264 . S
O355 Co346 2.327 . S
O355 C369 1.257 . S
O356 Co346 1.976 . S
O356 C368 1.251 . S
O357 Co347 2.111 1_565 S
O357 C368 1.274 . S
O358 Co347 2.143 . S
O358 C371 1.246 . S
O359 Co351 2.286 . S
O359 C370 1.259 . S
O360 Co351 2.069 . S
O360 C370 1.289 . S
O361 Co351 2.015 . S
O361 C371 1.257 . S
O362 Co347 2.111 . S
O362 C372 1.274 . S
O363 Co352 1.976 . S
O363 C372 1.251 . S
O364 Co351 2.264 . S
O364 Co352 2.327 . S
O364 C373 1.257 . S
O365 Co352 2.073 . S
O365 C373 1.245 . S
C366 O374 1.259 . S
C366 O375 1.289 . S
C367 O376 1.246 . S
C367 O377 1.257 . S
C368 O356 1.251 . S
C368 O357 1.274 . S
C369 O354 1.245 . S
C369 O355 1.257 . S
C370 O359 1.259 . S
C370 O360 1.289 . S
C371 O358 1.246 . S
C371 O361 1.257 . S
C372 O362 1.274 . S
C372 O363 1.251 . S
C373 O364 1.257 . S
C373 O365 1.245 . S
O374 Co345 2.286 . S
O374 C366 1.259 . S
O375 Co345 2.069 . S
O375 C366 1.289 . S
O376 Co347 2.143 1_565 S
O376 C367 1.246 . S
O377 Co345 2.015 . S
O377 C367 1.257 . S
Co378 O381 2.042 . S
Co378 O388 2.264 . S
Co378 O407 2.286 . S
Co378 O408 2.069 . S
Co378 O410 2.015 . S
Co379 O381 2.122 . S
Co379 O387 2.073 . S
Co379 O388 2.327 . S
Co379 O389 1.976 . S
Co380 O381 2.087 . S
Co380 O383 2.087 1_554 S
Co380 O390 2.111 . S
Co380 O391 2.143 1_554 S
Co380 O395 2.111 1_554 S
Co380 O409 2.143 . S
O381 Co378 2.042 . S
O381 Co379 2.122 . S
O381 Co380 2.087 . S
O381 H382 0.980 . S
H382 O381 0.980 . S
O383 Co380 2.087 1_556 S
O383 Co384 2.042 . S
O383 Co385 2.122 . S
O383 H386 0.980 . S
Co384 O383 2.042 . S
Co384 O392 2.286 . S
Co384 O393 2.069 . S
Co384 O394 2.015 . S
Co384 O397 2.264 . S
Co385 O383 2.122 . S
Co385 O396 1.976 . S
Co385 O397 2.327 . S
Co385 O398 2.073 . S
H386 O383 0.980 . S
O387 Co379 2.073 . S
O387 C402 1.245 . S
O388 Co378 2.264 . S
O388 Co379 2.327 . S
O388 C402 1.257 . S
O389 Co379 1.976 . S
O389 C401 1.251 . S
O390 Co380 2.111 . S
O390 C401 1.274 . S
O391 Co380 2.143 1_556 S
O391 C404 1.246 . S
O392 Co384 2.286 . S
O392 C403 1.259 . S
O393 Co384 2.069 . S
O393 C403 1.289 . S
O394 Co384 2.015 . S
O394 C404 1.257 . S
O395 Co380 2.111 1_556 S
O395 C405 1.274 . S
O396 Co385 1.976 . S
O396 C405 1.251 . S
O397 Co384 2.264 . S
O397 Co385 2.327 . S
O397 C406 1.257 . S
O398 Co385 2.073 . S
O398 C406 1.245 . S
C399 O407 1.259 . S
C399 O408 1.289 . S
C400 O409 1.246 . S
C400 O410 1.257 . S
C401 O389 1.251 . S
C401 O390 1.274 . S
C402 O387 1.245 . S
C402 O388 1.257 . S
C403 O392 1.259 . S
C403 O393 1.289 . S
C404 O391 1.246 . S
C404 O394 1.257 . S
C405 O395 1.274 . S
C405 O396 1.251 . S
C406 O397 1.257 . S
C406 O398 1.245 . S
O407 Co378 2.286 . S
O407 C399 1.259 . S
O408 Co378 2.069 . S
O408 C399 1.289 . S
O409 Co380 2.143 . S
O409 C400 1.246 . S
O410 Co378 2.015 . S
O410 C400 1.257 . S
C411 C412 1.369 . S
C411 C413 1.419 . S
C411 H415 0.930 . S
C412 C411 1.369 . S
C412 C421 1.429 . S
C413 C411 1.419 . S
C413 C414 1.363 . S
C413 H416 0.929 . S
C414 C413 1.363 . S
C414 C420 1.428 . S
H415 C411 0.930 . S
H416 C413 0.929 . S
S417 N418 1.613 . S
S417 N419 1.610 . S
N418 S417 1.613 . S
N418 C421 1.350 . S
N419 S417 1.610 . S
N419 C420 1.351 . S
C420 C414 1.428 . S
C420 N419 1.351 . S
C420 C421 1.434 . S
C421 C412 1.429 . S
C421 N418 1.350 . S
C421 C420 1.434 . S
C422 C423 1.369 . S
C422 C424 1.419 . S
C422 H426 0.930 . S
C423 C422 1.369 . S
C423 C432 1.429 . S
C424 C422 1.419 . S
C424 C425 1.363 . S
C424 H427 0.929 . S
C425 C424 1.363 . S
C425 C431 1.428 . S
H426 C422 0.930 . S
H427 C424 0.929 . S
S428 N429 1.613 . S
S428 N430 1.610 . S
N429 S428 1.613 . S
N429 C432 1.350 . S
N430 S428 1.610 . S
N430 C431 1.351 . S
C431 C425 1.428 . S
C431 N430 1.351 . S
C431 C432 1.434 . S
C432 C423 1.429 . S
C432 N429 1.350 . S
C432 C431 1.434 . S
C433 C434 1.369 . S
C433 C435 1.419 . S
C433 H437 0.930 . S
C434 C433 1.369 . S
C434 C443 1.429 . S
C435 C433 1.419 . S
C435 C436 1.363 . S
C435 H438 0.929 . S
C436 C435 1.363 . S
C436 C442 1.428 . S
H437 C433 0.930 . S
H438 C435 0.929 . S
S439 N440 1.613 . S
S439 N441 1.610 . S
N440 S439 1.613 . S
N440 C443 1.350 . S
N441 S439 1.610 . S
N441 C442 1.351 . S
C442 C436 1.428 . S
C442 N441 1.351 . S
C442 C443 1.434 . S
C443 C434 1.429 . S
C443 N440 1.350 . S
C443 C442 1.434 . S
C444 C445 1.369 . S
C444 C446 1.419 . S
C444 H448 0.930 . S
C445 C444 1.369 . S
C445 C454 1.429 . S
C446 C444 1.419 . S
C446 C447 1.363 . S
C446 H449 0.929 . S
C447 C446 1.363 . S
C447 C453 1.428 . S
H448 C444 0.930 . S
H449 C446 0.929 . S
S450 N451 1.613 . S
S450 N452 1.610 . S
N451 S450 1.613 . S
N451 C454 1.350 . S
N452 S450 1.610 . S
N452 C453 1.351 . S
C453 C447 1.428 . S
C453 N452 1.351 . S
C453 C454 1.434 . S
C454 C445 1.429 . S
C454 N451 1.350 . S
C454 C453 1.434 . S
C455 C456 1.369 . S
C455 C457 1.419 . S
C455 H459 0.930 . S
C456 C455 1.369 . S
C456 C465 1.429 . S
C457 C455 1.419 . S
C457 C458 1.363 . S
C457 H460 0.929 . S
C458 C457 1.363 . S
C458 C464 1.428 . S
H459 C455 0.930 . S
H460 C457 0.929 . S
S461 N462 1.613 . S
S461 N463 1.610 . S
N462 S461 1.613 . S
N462 C465 1.350 . S
N463 S461 1.610 . S
N463 C464 1.351 . S
C464 C458 1.428 . S
C464 N463 1.351 . S
C464 C465 1.434 . S
C465 C456 1.429 . S
C465 N462 1.350 . S
C465 C464 1.434 . S
C466 C467 1.369 . S
C466 C468 1.419 . S
C466 H470 0.930 . S
C467 C466 1.369 . S
C467 C476 1.429 . S
C468 C466 1.419 . S
C468 C469 1.363 . S
C468 H471 0.929 . S
C469 C468 1.363 . S
C469 C475 1.428 . S
H470 C466 0.930 . S
H471 C468 0.929 . S
S472 N473 1.613 . S
S472 N474 1.610 . S
N473 S472 1.613 . S
N473 C476 1.350 . S
N474 S472 1.610 . S
N474 C475 1.351 . S
C475 C469 1.428 . S
C475 N474 1.351 . S
C475 C476 1.434 . S
C476 C467 1.429 . S
C476 N473 1.350 . S
C476 C475 1.434 . S
C477 C478 1.369 . S
C477 C479 1.419 . S
C477 H481 0.930 . S
C478 C477 1.369 . S
C478 C487 1.429 . S
C479 C477 1.419 . S
C479 C480 1.363 . S
C479 H482 0.929 . S
C480 C479 1.363 . S
C480 C486 1.428 . S
H481 C477 0.930 . S
H482 C479 0.929 . S
S483 N484 1.613 . S
S483 N485 1.610 . S
N484 S483 1.613 . S
N484 C487 1.350 . S
N485 S483 1.610 . S
N485 C486 1.351 . S
C486 C480 1.428 . S
C486 N485 1.351 . S
C486 C487 1.434 . S
C487 C478 1.429 . S
C487 N484 1.350 . S
C487 C486 1.434 . S
C488 C489 1.369 . S
C488 C490 1.419 . S
C488 H492 0.930 . S
C489 C488 1.369 . S
C489 C498 1.429 . S
C490 C488 1.419 . S
C490 C491 1.363 . S
C490 H493 0.929 . S
C491 C490 1.363 . S
C491 C497 1.428 . S
H492 C488 0.930 . S
H493 C490 0.929 . S
S494 N495 1.613 . S
S494 N496 1.610 . S
N495 S494 1.613 . S
N495 C498 1.350 . S
N496 S494 1.610 . S
N496 C497 1.351 . S
C497 C491 1.428 . S
C497 N496 1.351 . S
C497 C498 1.434 . S
C498 C489 1.429 . S
C498 N495 1.350 . S
C498 C497 1.434 . S
C499 C500 1.369 . S
C499 C501 1.419 . S
C499 H503 0.930 . S
C500 C499 1.369 . S
C500 C509 1.429 . S
C501 C499 1.419 . S
C501 C502 1.363 . S
C501 H504 0.929 . S
C502 C501 1.363 . S
C502 C508 1.428 . S
H503 C499 0.930 . S
H504 C501 0.929 . S
S505 N506 1.613 . S
S505 N507 1.610 . S
N506 S505 1.613 . S
N506 C509 1.350 . S
N507 S505 1.610 . S
N507 C508 1.351 . S
C508 C502 1.428 . S
C508 N507 1.351 . S
C508 C509 1.434 . S
C509 C500 1.429 . S
C509 N506 1.350 . S
C509 C508 1.434 . S
C510 C511 1.369 . S
C510 C512 1.419 . S
C510 H514 0.930 . S
C511 C510 1.369 . S
C511 C520 1.429 . S
C512 C510 1.419 . S
C512 C513 1.363 . S
C512 H515 0.929 . S
C513 C512 1.363 . S
C513 C519 1.428 . S
H514 C510 0.930 . S
H515 C512 0.929 . S
S516 N517 1.613 . S
S516 N518 1.610 . S
N517 S516 1.613 . S
N517 C520 1.350 . S
N518 S516 1.610 . S
N518 C519 1.351 . S
C519 C513 1.428 . S
C519 N518 1.351 . S
C519 C520 1.434 . S
C520 C511 1.429 . S
C520 N517 1.350 . S
C520 C519 1.434 . S
C521 C522 1.369 . S
C521 C523 1.419 . S
C521 H525 0.930 . S
C522 C521 1.369 . S
C522 C531 1.429 . S
C523 C521 1.419 . S
C523 C524 1.363 . S
C523 H526 0.929 . S
C524 C523 1.363 . S
C524 C530 1.428 . S
H525 C521 0.930 . S
H526 C523 0.929 . S
S527 N528 1.613 . S
S527 N529 1.610 . S
N528 S527 1.613 . S
N528 C531 1.350 . S
N529 S527 1.610 . S
N529 C530 1.351 . S
C530 C524 1.428 . S
C530 N529 1.351 . S
C530 C531 1.434 . S
C531 C522 1.429 . S
C531 N528 1.350 . S
C531 C530 1.434 . S
C532 C533 1.369 . S
C532 C534 1.419 . S
C532 H536 0.930 . S
C533 C532 1.369 . S
C533 C542 1.429 . S
C534 C532 1.419 . S
C534 C535 1.363 . S
C534 H537 0.929 . S
C535 C534 1.363 . S
C535 C541 1.428 . S
H536 C532 0.930 . S
H537 C534 0.929 . S
S538 N539 1.613 . S
S538 N540 1.610 . S
N539 S538 1.613 . S
N539 C542 1.350 . S
N540 S538 1.610 . S
N540 C541 1.351 . S
C541 C535 1.428 . S
C541 N540 1.351 . S
C541 C542 1.434 . S
C542 C533 1.429 . S
C542 N539 1.350 . S
C542 C541 1.434 . S
C543 C544 1.369 . S
C543 C545 1.419 . S
C543 H547 0.930 . S
C544 C543 1.369 . S
C544 C553 1.429 . S
C545 C543 1.419 . S
C545 C546 1.363 . S
C545 H548 0.929 . S
C546 C545 1.363 . S
C546 C552 1.428 . S
H547 C543 0.930 . S
H548 C545 0.929 . S
S549 N550 1.613 . S
S549 N551 1.610 . S
N550 S549 1.613 . S
N550 C553 1.350 . S
N551 S549 1.610 . S
N551 C552 1.351 . S
C552 C546 1.428 . S
C552 N551 1.351 . S
C552 C553 1.434 . S
C553 C544 1.429 . S
C553 N550 1.350 . S
C553 C552 1.434 . S
C554 C555 1.369 . S
C554 C556 1.419 . S
C554 H558 0.930 . S
C555 C554 1.369 . S
C555 C564 1.429 . S
C556 C554 1.419 . S
C556 C557 1.363 . S
C556 H559 0.929 . S
C557 C556 1.363 . S
C557 C563 1.428 . S
H558 C554 0.930 . S
H559 C556 0.929 . S
S560 N561 1.613 . S
S560 N562 1.610 . S
N561 S560 1.613 . S
N561 C564 1.350 . S
N562 S560 1.610 . S
N562 C563 1.351 . S
C563 C557 1.428 . S
C563 N562 1.351 . S
C563 C564 1.434 . S
C564 C555 1.429 . S
C564 N561 1.350 . S
C564 C563 1.434 . S
C565 C566 1.369 . S
C565 C567 1.419 . S
C565 H569 0.930 . S
C566 C565 1.369 . S
C566 C575 1.429 . S
C567 C565 1.419 . S
C567 C568 1.363 . S
C567 H570 0.929 . S
C568 C567 1.363 . S
C568 C574 1.428 . S
H569 C565 0.930 . S
H570 C567 0.929 . S
S571 N572 1.613 . S
S571 N573 1.610 . S
N572 S571 1.613 . S
N572 C575 1.350 . S
N573 S571 1.610 . S
N573 C574 1.351 . S
C574 C568 1.428 . S
C574 N573 1.351 . S
C574 C575 1.434 . S
C575 C566 1.429 . S
C575 N572 1.350 . S
C575 C574 1.434 . S
C576 C577 1.369 . S
C576 C578 1.419 . S
C576 H580 0.930 . S
C577 C576 1.369 . S
C577 C586 1.429 . S
C578 C576 1.419 . S
C578 C579 1.363 . S
C578 H581 0.929 . S
C579 C578 1.363 . S
C579 C585 1.428 . S
H580 C576 0.930 . S
H581 C578 0.929 . S
S582 N583 1.613 . S
S582 N584 1.610 . S
N583 S582 1.613 . S
N583 C586 1.350 . S
N584 S582 1.610 . S
N584 C585 1.351 . S
C585 C579 1.428 . S
C585 N584 1.351 . S
C585 C586 1.434 . S
C586 C577 1.429 . S
C586 N583 1.350 . S
C586 C585 1.434 . S
C587 C588 1.369 . S
C587 C589 1.419 . S
C587 H591 0.930 . S
C588 C587 1.369 . S
C588 C597 1.429 . S
C589 C587 1.419 . S
C589 C590 1.363 . S
C589 H592 0.929 . S
C590 C589 1.363 . S
C590 C596 1.428 . S
H591 C587 0.930 . S
H592 C589 0.929 . S
S593 N594 1.613 . S
S593 N595 1.610 . S
N594 S593 1.613 . S
N594 C597 1.350 . S
N595 S593 1.610 . S
N595 C596 1.351 . S
C596 C590 1.428 . S
C596 N595 1.351 . S
C596 C597 1.434 . S
C597 C588 1.429 . S
C597 N594 1.350 . S
C597 C596 1.434 . S
C598 C599 1.369 . S
C598 C600 1.419 . S
C598 H602 0.930 . S
C599 C598 1.369 . S
C599 C608 1.429 . S
C600 C598 1.419 . S
C600 C601 1.363 . S
C600 H603 0.929 . S
C601 C600 1.363 . S
C601 C607 1.428 . S
H602 C598 0.930 . S
H603 C600 0.929 . S
S604 N605 1.613 . S
S604 N606 1.610 . S
N605 S604 1.613 . S
N605 C608 1.350 . S
N606 S604 1.610 . S
N606 C607 1.351 . S
C607 C601 1.428 . S
C607 N606 1.351 . S
C607 C608 1.434 . S
C608 C599 1.429 . S
C608 N605 1.350 . S
C608 C607 1.434 . S
C609 C610 1.369 . S
C609 C611 1.419 . S
C609 H613 0.930 . S
C610 C609 1.369 . S
C610 C619 1.429 . S
C611 C609 1.419 . S
C611 C612 1.363 . S
C611 H614 0.929 . S
C612 C611 1.363 . S
C612 C618 1.428 . S
H613 C609 0.930 . S
H614 C611 0.929 . S
S615 N616 1.613 . S
S615 N617 1.610 . S
N616 S615 1.613 . S
N616 C619 1.350 . S
N617 S615 1.610 . S
N617 C618 1.351 . S
C618 C612 1.428 . S
C618 N617 1.351 . S
C618 C619 1.434 . S
C619 C610 1.429 . S
C619 N616 1.350 . S
C619 C618 1.434 . S
C620 C621 1.369 . S
C620 C622 1.419 . S
C620 H624 0.930 . S
C621 C620 1.369 . S
C621 C630 1.429 . S
C622 C620 1.419 . S
C622 C623 1.363 . S
C622 H625 0.929 . S
C623 C622 1.363 . S
C623 C629 1.428 . S
H624 C620 0.930 . S
H625 C622 0.929 . S
S626 N627 1.613 . S
S626 N628 1.610 . S
N627 S626 1.613 . S
N627 C630 1.350 . S
N628 S626 1.610 . S
N628 C629 1.351 . S
C629 C623 1.428 . S
C629 N628 1.351 . S
C629 C630 1.434 . S
C630 C621 1.429 . S
C630 N627 1.350 . S
C630 C629 1.434 . S
C631 C632 1.369 . S
C631 C633 1.419 . S
C631 H635 0.930 . S
C632 C631 1.369 . S
C632 C641 1.429 . S
C633 C631 1.419 . S
C633 C634 1.363 . S
C633 H636 0.929 . S
C634 C633 1.363 . S
C634 C640 1.428 . S
H635 C631 0.930 . S
H636 C633 0.929 . S
S637 N638 1.613 . S
S637 N639 1.610 . S
N638 S637 1.613 . S
N638 C641 1.350 . S
N639 S637 1.610 . S
N639 C640 1.351 . S
C640 C634 1.428 . S
C640 N639 1.351 . S
C640 C641 1.434 . S
C641 C632 1.429 . S
C641 N638 1.350 . S
C641 C640 1.434 . S
C642 C643 1.369 . S
C642 C644 1.419 . S
C642 H646 0.930 . S
C643 C642 1.369 . S
C643 C652 1.429 . S
C644 C642 1.419 . S
C644 C645 1.363 . S
C644 H647 0.929 . S
C645 C644 1.363 . S
C645 C651 1.428 . S
H646 C642 0.930 . S
H647 C644 0.929 . S
S648 N649 1.613 . S
S648 N650 1.610 . S
N649 S648 1.613 . S
N649 C652 1.350 . S
N650 S648 1.610 . S
N650 C651 1.351 . S
C651 C645 1.428 . S
C651 N650 1.351 . S
C651 C652 1.434 . S
C652 C643 1.429 . S
C652 N649 1.350 . S
C652 C651 1.434 . S
C653 C654 1.369 . S
C653 C655 1.419 . S
C653 H657 0.930 . S
C654 C653 1.369 . S
C654 C663 1.429 . S
C655 C653 1.419 . S
C655 C656 1.363 . S
C655 H658 0.929 . S
C656 C655 1.363 . S
C656 C662 1.428 . S
H657 C653 0.930 . S
H658 C655 0.929 . S
S659 N660 1.613 . S
S659 N661 1.610 . S
N660 S659 1.613 . S
N660 C663 1.350 . S
N661 S659 1.610 . S
N661 C662 1.351 . S
C662 C656 1.428 . S
C662 N661 1.351 . S
C662 C663 1.434 . S
C663 C654 1.429 . S
C663 N660 1.350 . S
C663 C662 1.434 . S
C664 C665 1.369 . S
C664 C666 1.419 . S
C664 H668 0.930 . S
C665 C664 1.369 . S
C665 C674 1.429 . S
C666 C664 1.419 . S
C666 C667 1.363 . S
C666 H669 0.929 . S
C667 C666 1.363 . S
C667 C673 1.428 . S
H668 C664 0.930 . S
H669 C666 0.929 . S
S670 N671 1.613 . S
S670 N672 1.610 . S
N671 S670 1.613 . S
N671 C674 1.350 . S
N672 S670 1.610 . S
N672 C673 1.351 . S
C673 C667 1.428 . S
C673 N672 1.351 . S
C673 C674 1.434 . S
C674 C665 1.429 . S
C674 N671 1.350 . S
C674 C673 1.434 . S
C414 C336 1.180 . S
C412 C16 1.231 . S
C425 C372 1.693 . S
C423 C55 1.783 . S
C436 C337 1.451 . S
C434 C99 1.418 . S
C447 C367 1.553 . S
C445 C133 1.563 . S
C458 C334 1.555 . S
C456 C157 1.602 . S
C467 C211 1.687 . S
C469 C370 1.732 . S
C478 C255 1.273 . S
C480 C339 1.167 . S
C491 C369 1.541 . S
C489 C294 1.519 . S
C502 C373 1.542 . S
C500 C21 1.519 . S
C513 C338 1.552 . S
C511 C40 1.593 . S
C524 C366 1.732 . S
C522 C94 1.695 . S
C535 C335 1.166 . S
C533 C138 1.274 . S
C546 C368 1.701 . S
C544 C172 1.783 . S
C555 C216 1.429 . S
C557 C333 1.448 . S
C566 C235 1.578 . S
C568 C371 1.562 . S
C579 C340 1.193 . S
C577 C289 1.240 . S
C590 C402 1.613 . S
C588 C1 1.721 . S
C599 C177 2.032 . S
C601 C405 1.922 . S
C612 C404 1.738 . S
C610 C196 1.754 . S
C621 C250 2.004 . S
C623 C403 2.005 . S
C634 C406 1.609 . S
C632 C274 1.718 . S
C643 C79 1.741 . S
C645 C400 1.740 . S
C656 C399 2.011 . S
C654 C118 2.015 . S
C665 C60 2.020 . S
C667 C401 1.918 . S
