# Generated by pormake.
# Topology pyr, (3,6)-cn, num edge types: 1
# Building blocks:
#     Node 0, Type 0, BuildingBlock: PAMTOO_clean_linker_0, # of connection points: 3
#     Node 1, Type 0, BuildingBlock: PAMTOO_clean_linker_0, # of connection points: 3
#     Node 2, Type 0, BuildingBlock: PAMTOO_clean_linker_0, # of connection points: 3
#     Node 3, Type 0, BuildingBlock: PAMTOO_clean_linker_0, # of connection points: 3
#     Node 4, Type 0, BuildingBlock: PAMTOO_clean_linker_0, # of connection points: 3
#     Node 5, Type 0, BuildingBlock: PAMTOO_clean_linker_0, # of connection points: 3
#     Node 6, Type 0, BuildingBlock: PAMTOO_clean_linker_0, # of connection points: 3
#     Node 7, Type 0, BuildingBlock: PAMTOO_clean_linker_0, # of connection points: 3
#     Node 8, Type 1, BuildingBlock: BETFAJ_clean_sbu_0, # of connection points: 6
#     Node 9, Type 1, BuildingBlock: BETFAJ_clean_sbu_0, # of connection points: 6
#     Node 10, Type 1, BuildingBlock: BETFAJ_clean_sbu_0, # of connection points: 6
#     Node 11, Type 1, BuildingBlock: BETFAJ_clean_sbu_0, # of connection points: 6
#     Edge 12, Type (0, 1), BuildingBlock: KIFKEQ_clean_linker_1, # of connection points: 2
#     Edge 13, Type (0, 1), BuildingBlock: KIFKEQ_clean_linker_1, # of connection points: 2
#     Edge 14, Type (0, 1), BuildingBlock: KIFKEQ_clean_linker_1, # of connection points: 2
#     Edge 15, Type (0, 1), BuildingBlock: KIFKEQ_clean_linker_1, # of connection points: 2
#     Edge 16, Type (0, 1), BuildingBlock: KIFKEQ_clean_linker_1, # of connection points: 2
#     Edge 17, Type (0, 1), BuildingBlock: KIFKEQ_clean_linker_1, # of connection points: 2
#     Edge 18, Type (0, 1), BuildingBlock: KIFKEQ_clean_linker_1, # of connection points: 2
#     Edge 19, Type (0, 1), BuildingBlock: KIFKEQ_clean_linker_1, # of connection points: 2
#     Edge 20, Type (0, 1), BuildingBlock: KIFKEQ_clean_linker_1, # of connection points: 2
#     Edge 21, Type (0, 1), BuildingBlock: KIFKEQ_clean_linker_1, # of connection points: 2
#     Edge 22, Type (0, 1), BuildingBlock: KIFKEQ_clean_linker_1, # of connection points: 2
#     Edge 23, Type (0, 1), BuildingBlock: KIFKEQ_clean_linker_1, # of connection points: 2
#     Edge 24, Type (0, 1), BuildingBlock: KIFKEQ_clean_linker_1, # of connection points: 2
#     Edge 25, Type (0, 1), BuildingBlock: KIFKEQ_clean_linker_1, # of connection points: 2
#     Edge 26, Type (0, 1), BuildingBlock: KIFKEQ_clean_linker_1, # of connection points: 2
#     Edge 27, Type (0, 1), BuildingBlock: KIFKEQ_clean_linker_1, # of connection points: 2
#     Edge 28, Type (0, 1), BuildingBlock: KIFKEQ_clean_linker_1, # of connection points: 2
#     Edge 29, Type (0, 1), BuildingBlock: KIFKEQ_clean_linker_1, # of connection points: 2
#     Edge 30, Type (0, 1), BuildingBlock: KIFKEQ_clean_linker_1, # of connection points: 2
#     Edge 31, Type (0, 1), BuildingBlock: KIFKEQ_clean_linker_1, # of connection points: 2
#     Edge 32, Type (0, 1), BuildingBlock: KIFKEQ_clean_linker_1, # of connection points: 2
#     Edge 33, Type (0, 1), BuildingBlock: KIFKEQ_clean_linker_1, # of connection points: 2
#     Edge 34, Type (0, 1), BuildingBlock: KIFKEQ_clean_linker_1, # of connection points: 2
#     Edge 35, Type (0, 1), BuildingBlock: KIFKEQ_clean_linker_1, # of connection points: 2
# Relax obj value: 0.174
# Max RMSD: 0.225
# Mean RMSD: 0.149
data_MOF--net-pyr--node1-BETFAJ_clean_sbu_0--node2-PAMTOO_clean_linker_0--edge1-KIFKEQ_clean_linker_1
_symmetry_space_group_name_H-M    P1
_symmetry_Int_Tables_number       1
_symmetry_cell_setting            triclinic
loop_
_symmetry_equiv_pos_as_xyz
'x, y, z'
_cell_length_a     38.77345
_cell_length_b     41.52877
_cell_length_c     36.674809
_cell_angle_alpha  91.462504
_cell_angle_beta   89.470683
_cell_angle_gamma 105.83924
loop_
_atom_site_label
_atom_site_type_symbol
_atom_site_fract_x
_atom_site_fract_y
_atom_site_fract_z
_atom_type_partial_charge
H0 H 0.29006 0.31056 0.25734 0.0
H1 H 0.36865 0.2556 0.26874 0.0
H2 H 0.36578 0.30969 0.17132 0.0
H3 H 0.43881 0.28765 0.23613 0.0
C4 C 0.43153 0.28027 0.20721 0.0
O5 O 0.39495 0.26832 0.20354 0.0
H6 H 0.44161 0.30262 0.19007 0.0
C7 C 0.31366 0.3038 0.24748 0.0
C8 C 0.32686 0.31355 0.21255 0.0
C9 C 0.32846 0.28295 0.26822 0.0
C10 C 0.35758 0.27269 0.25391 0.0
C11 C 0.37124 0.28277 0.2193 0.0
C12 C 0.35629 0.30358 0.19886 0.0
H13 H 0.28571 0.92294 0.67289 0.0
H14 H 0.24854 0.86886 0.5725 0.0
H15 H 0.32696 0.84118 0.63702 0.0
H16 H 0.32118 0.86235 0.54251 0.0
C17 C 0.31014 0.83492 0.54653 0.0
O18 O 0.28846 0.82834 0.57705 0.0
H19 H 0.29371 0.82482 0.52202 0.0
C20 C 0.28638 0.90347 0.65285 0.0
C21 C 0.30926 0.88304 0.65841 0.0
C22 C 0.264 0.89857 0.62214 0.0
C23 C 0.26471 0.87269 0.59699 0.0
C24 C 0.28735 0.85222 0.60233 0.0
C25 C 0.30933 0.85706 0.63321 0.0
H26 H 0.73646 0.33952 0.94296 0.0
H27 H 0.6514 0.33109 0.86469 0.0
H28 H 0.74104 0.41855 0.86804 0.0
H29 H 0.66733 0.42781 0.85669 0.0
C30 C 0.65859 0.40846 0.83461 0.0
O31 O 0.68205 0.38834 0.83286 0.0
H32 H 0.63151 0.3928 0.84228 0.0
C33 C 0.72426 0.34957 0.92117 0.0
C34 C 0.74245 0.38157 0.90823 0.0
C35 C 0.69097 0.33057 0.90643 0.0
C36 C 0.67664 0.34454 0.87697 0.0
C37 C 0.69466 0.37624 0.86301 0.0
C38 C 0.72718 0.39451 0.87909 0.0
H39 H 0.86839 0.74956 0.45055 0.0
H40 H 0.86587 0.67007 0.37208 0.0
H41 H 0.95374 0.75985 0.37158 0.0
H42 H 0.92701 0.72751 0.2956 0.0
C43 C 0.91973 0.70079 0.30344 0.0
O44 O 0.92754 0.69944 0.34038 0.0
H45 H 0.89038 0.69035 0.29933 0.0
C46 C 0.88033 0.73981 0.42743 0.0
C47 C 0.91296 0.7594 0.41277 0.0
C48 C 0.86291 0.70766 0.41311 0.0
C49 C 0.87864 0.69488 0.38309 0.0
C50 C 0.91149 0.71342 0.36787 0.0
C51 C 0.92851 0.74562 0.38304 0.0
H52 H 0.73132 0.86822 0.89454 0.0
H53 H 0.67584 0.79835 0.97437 0.0
H54 H 0.77428 0.78839 0.92786 0.0
H55 H 0.70203 0.72781 0.93316 0.0
C56 C 0.7115 0.73024 0.96198 0.0
O57 O 0.72256 0.76331 0.9737 0.0
H58 H 0.68843 0.7168 0.97896 0.0
C59 C 0.72898 0.84587 0.9101 0.0
C60 C 0.75588 0.8291 0.9073 0.0
C61 C 0.70032 0.83537 0.93459 0.0
C62 C 0.69753 0.80658 0.95498 0.0
C63 C 0.72384 0.78935 0.9519 0.0
C64 C 0.75313 0.80085 0.92852 0.0
H65 H 0.78743 0.1474 0.47877 0.0
H66 H 0.78357 0.24937 0.46802 0.0
H67 H 0.85117 0.22591 0.54852 0.0
H68 H 0.83285 0.29711 0.57264 0.0
C69 C 0.81086 0.28208 0.55498 0.0
O70 O 0.82579 0.27235 0.52369 0.0
H71 H 0.79645 0.26013 0.57127 0.0
C72 C 0.79646 0.17352 0.48717 0.0
C73 C 0.82133 0.18334 0.51576 0.0
C74 C 0.7836 0.19714 0.46864 0.0
C75 C 0.79315 0.23058 0.48152 0.0
C76 C 0.81664 0.24033 0.51104 0.0
C77 C 0.83149 0.21713 0.52719 0.0
H78 H 0.36624 0.75879 0.16445 0.0
H79 H 0.36074 0.68142 0.24272 0.0
H80 H 0.44479 0.77336 0.24992 0.0
H81 H 0.46892 0.71475 0.27139 0.0
C82 C 0.44299 0.69744 0.27991 0.0
O83 O 0.41683 0.71473 0.28062 0.0
H84 H 0.4359 0.67699 0.25879 0.0
C85 C 0.37698 0.74921 0.18769 0.0
C86 C 0.40805 0.76986 0.20479 0.0
C87 C 0.35892 0.71722 0.20101 0.0
C88 C 0.37336 0.70592 0.23208 0.0
C89 C 0.40431 0.72588 0.24979 0.0
C90 C 0.42116 0.75795 0.23622 0.0
H91 H 0.12907 0.34644 0.79266 0.0
H92 H 0.21269 0.43868 0.77901 0.0
H93 H 0.2113 0.35343 0.71043 0.0
H94 H 0.28291 0.39215 0.73524 0.0
C95 C 0.27971 0.41792 0.73394 0.0
O96 O 0.24467 0.41621 0.72435 0.0
H97 H 0.28514 0.42949 0.76174 0.0
C98 C 0.15313 0.36068 0.77908 0.0
C99 C 0.16828 0.34515 0.75025 0.0
C100 C 0.16891 0.39472 0.79009 0.0
C101 C 0.20011 0.41277 0.77145 0.0
C102 C 0.21552 0.39788 0.74306 0.0
C103 C 0.19955 0.36435 0.73282 0.0
Sm104 Sm 0.04677 0.06737 0.54964 0.0
Sm105 Sm 0.04395 1.03183 0.62101 0.0
C106 C 0.04562 0.10668 0.49438 0.0
C107 C 0.07463 0.13173 0.4768 0.0
C108 C 0.07088 0.14051 0.44077 0.0
C109 C 0.10041 0.16013 0.42201 0.0
C110 C 0.13414 0.1711 0.43903 0.0
C111 C 0.13732 0.16343 0.47573 0.0
C112 C 0.10782 0.14377 0.49441 0.0
C113 C 0.10692 0.04669 0.56366 0.0
C114 C 0.07272 0.113 0.62541 0.0
C115 C 0.04691 0.99284 0.67633 0.0
C116 C 0.02072 0.97334 0.70253 0.0
C117 C 0.01248 0.93822 0.70188 0.0
C118 C 0.98655 0.9195 0.72551 0.0
C119 C 0.96872 0.93564 0.75047 0.0
C120 C 0.9774 0.97078 0.75144 0.0
C121 C 1.00305 0.98943 0.72773 0.0
C122 C 0.98293 0.05083 0.60564 0.0
C123 C 0.01759 0.98707 0.54492 0.0
O124 O 0.03763 0.11381 0.52782 0.0
O125 O 0.04771 0.07596 0.49021 0.0
O126 O 0.09007 0.0594 0.58667 0.0
O127 O 0.09417 0.04726 0.53133 0.0
O128 O 0.05752 0.1115 0.59293 0.0
O129 O 0.07658 0.08529 0.63992 0.0
O130 O 0.04379 0.98206 0.64242 0.0
O131 O 0.05427 1.02541 0.67931 0.0
O132 O 1.0011 1.03885 0.58356 0.0
O133 O 0.99445 0.05021 0.63856 0.0
O134 O 0.03535 0.98874 0.57607 0.0
O135 O 0.01171 1.01464 0.5321 0.0
H136 H 0.04551 0.13118 0.42674 0.0
H137 H 0.09708 0.16602 0.39388 0.0
H138 H 0.16299 0.1712 0.48944 0.0
H139 H 0.11128 0.13677 0.52213 0.0
H140 H 0.02583 0.92524 0.68281 0.0
H141 H 0.98054 0.89245 0.72436 0.0
H142 H 0.96372 0.98389 0.77 0.0
H143 H 0.0086 1.01644 0.7289 0.0
Sm144 Sm 0.58186 0.05944 0.0772 0.0
Sm145 Sm 0.5173 1.04117 1.03704 0.0
C146 C 0.63931 0.08963 0.11638 0.0
C147 C 0.64721 0.10229 0.15403 0.0
C148 C 0.6757 0.13087 0.16067 0.0
C149 C 0.68437 0.14272 0.19635 0.0
C150 C 0.66476 0.12603 0.226 0.0
C151 C 0.63563 0.09783 0.21917 0.0
C152 C 0.62679 0.08615 0.18345 0.0
C153 C 0.53804 0.99732 0.09774 0.0
C154 C 0.51497 0.08746 0.10604 0.0
C155 C 0.45981 1.00898 0.99893 0.0
C156 C 0.45117 0.99147 0.96322 0.0
C157 C 0.43405 0.957 0.9619 0.0
C158 C 0.42433 0.9402 0.92846 0.0
C159 C 0.43129 0.95762 0.89563 0.0
C160 C 0.44895 0.99208 0.89703 0.0
C161 C 0.45885 1.00881 0.93043 0.0
C162 C 0.56051 0.10325 1.01566 0.0
C163 C 0.58524 1.01486 1.00789 0.0
O164 O 0.62215 0.10577 0.09646 0.0
O165 O 0.62786 0.0572 0.11162 0.0
O166 O 0.52744 1.02329 0.09303 0.0
O167 O 0.5721 1.0038 0.09137 0.0
O168 O 0.5499 0.0923 0.10529 0.0
O169 O 0.49406 0.0642 0.08516 0.0
O170 O 0.47488 0.99454 1.02293 0.0
O171 O 0.47317 1.04144 0.99906 0.0
O172 O 0.57172 0.07775 1.0215 0.0
O173 O 0.52612 0.0959 1.0203 0.0
O174 O 0.5501 1.00809 1.00998 0.0
O175 O 0.6054 1.03989 1.02716 0.0
H176 H 0.69159 0.14373 0.13825 0.0
H177 H 0.70718 0.16429 0.20079 0.0
H178 H 0.61984 0.08468 0.24148 0.0
H179 H 0.60433 0.0643 0.17885 0.0
H180 H 0.42785 0.94307 0.98681 0.0
H181 H 0.41116 0.91361 0.92837 0.0
H182 H 0.4542 1.00643 0.87238 0.0
H183 H 0.47197 1.03541 0.93049 0.0
Sm184 Sm 0.55742 0.53173 0.53418 0.0
Sm185 Sm 0.56389 0.58871 0.58068 0.0
C186 C 0.56746 0.48052 0.49503 0.0
C187 C 0.59227 0.45962 0.49745 0.0
C188 C 0.62607 0.47251 0.51358 0.0
C189 C 0.64935 0.4524 0.51652 0.0
C190 C 0.63907 0.41898 0.50373 0.0
C191 C 0.60508 0.40605 0.48786 0.0
C192 C 0.58186 0.42632 0.48464 0.0
C193 C 0.49405 0.52763 0.57231 0.0
C194 C 0.59196 0.53047 0.61657 0.0
C195 C 0.55318 0.64023 0.61869 0.0
C196 C 0.53094 0.66287 0.61172 0.0
C197 C 0.50008 0.65181 0.59015 0.0
C198 C 0.47991 0.67366 0.58167 0.0
C199 C 0.49021 0.70704 0.59458 0.0
C200 C 0.52096 0.71802 0.61653 0.0
C201 C 0.54128 0.69607 0.62493 0.0
C202 C 0.62812 0.59265 0.54465 0.0
C203 C 0.52754 0.58874 0.49839 0.0
O204 O 0.5819 0.51178 0.48699 0.0
O205 O 0.54369 0.4771 0.52107 0.0
O206 O 0.52537 0.53712 0.58542 0.0
O207 O 0.4956 0.52064 0.53773 0.0
O208 O 0.59072 0.51917 0.58236 0.0
O209 O 0.58 0.55666 0.62455 0.0
O210 O 0.53576 0.60915 0.62468 0.0
O211 O 0.58033 0.6428 0.59663 0.0
O212 O 0.59724 0.58325 0.53012 0.0
O213 O 0.62522 0.59921 0.57917 0.0
O214 O 0.53099 0.60139 0.53209 0.0
O215 O 0.53848 0.56201 0.49062 0.0
H216 H 0.63438 0.49808 0.5241 0.0
H217 H 0.67517 0.4628 0.52939 0.0
H218 H 0.59661 0.38038 0.47771 0.0
H219 H 0.55576 0.41598 0.47234 0.0
H220 H 0.49157 0.62625 0.57969 0.0
H221 H 0.45602 0.66428 0.56526 0.0
H222 H 0.52962 0.74368 0.62666 0.0
H223 H 0.56521 0.70506 0.64137 0.0
Sm224 Sm 0.05196 0.51519 0.07638 0.0
Sm225 Sm 0.05192 0.57922 1.02965 0.0
C226 C 0.06459 0.45875 0.09605 0.0
C227 C 0.09546 0.44483 0.0949 0.0
C228 C 0.12989 0.46524 0.0871 0.0
C229 C 0.15962 0.45247 0.08921 0.0
C230 C 0.15525 0.41905 0.0989 0.0
C231 C 0.12046 0.39846 0.1054 0.0
C232 C 0.09083 0.4113 0.10346 0.0
C233 C 0.0183 0.55599 0.11731 0.0
C234 C 0.1225 0.58315 0.08111 0.0
C235 C 0.03765 0.63429 1.00762 0.0
C236 C 0.00526 0.64614 1.00603 0.0
C237 C 0.97857 0.63781 1.03301 0.0
C238 C 0.9464 0.64647 1.02915 0.0
C239 C 0.9402 0.6631 0.99799 0.0
C240 C 0.96721 0.67179 0.97132 0.0
C241 C 0.99949 0.66346 0.97538 0.0
C242 C 0.08468 0.53737 0.9888 0.0
C243 C 0.98112 0.51184 1.02561 0.0
O244 O 0.05045 0.46208 0.06457 0.0
O245 O 0.06766 0.48455 0.11825 0.0
O246 O 0.03143 0.56101 0.08538 0.0
O247 O 0.02132 0.52718 0.12754 0.0
O248 O 0.10917 0.55069 0.08737 0.0
O249 O 0.10501 0.59993 0.0614 0.0
O250 O 0.05062 0.63183 1.04001 0.0
O251 O 0.03753 0.60887 0.9858 0.0
O252 O 0.07173 0.53306 1.02077 0.0
O253 O 0.08238 0.56636 0.97844 0.0
O254 O 0.99453 0.54423 1.01935 0.0
O255 O 0.99866 0.49492 0.04501 0.0
H256 H 0.13384 0.49122 0.08025 0.0
H257 H 0.18604 0.46882 0.0838 0.0
H258 H 0.11625 0.37276 0.11347 0.0
H259 H 0.0644 0.39529 0.10961 0.0
H260 H 0.98219 0.6239 0.05659 0.0
H261 H 0.92591 0.6392 0.04995 0.0
H262 H 0.96328 0.68489 0.94721 0.0
H263 H 0.01966 0.66983 0.95415 0.0
H264 H 0.31239 0.21751 0.2876 0.0
H265 H 0.3003 0.3138 0.3233 0.0
H266 H 0.27003 0.19044 0.33418 0.0
H267 H 0.25673 0.28647 0.36907 0.0
H268 H 0.18909 0.22552 0.45975 0.0
H269 H 0.24278 0.25243 0.42457 0.0
H270 H 0.20506 0.18199 0.33535 0.0
H271 H 0.15232 0.15472 0.37064 0.0
C272 C 0.30148 0.23303 0.30603 0.0
C273 C 0.30938 0.26778 0.30149 0.0
C274 C 0.27681 0.21745 0.33241 0.0
C275 C 0.25947 0.23626 0.35471 0.0
C276 C 0.2696 0.27129 0.35225 0.0
C277 C 0.29435 0.28691 0.32588 0.0
C278 C 0.19251 0.21572 0.43271 0.0
C279 C 0.16636 0.1882 0.41781 0.0
C280 C 0.22312 0.23117 0.41257 0.0
C281 C 0.22827 0.21916 0.37733 0.0
C282 C 0.20222 0.19149 0.36266 0.0
C283 C 0.17166 0.17621 0.38265 0.0
H284 H 0.35561 0.94212 0.67889 0.0
H285 H 0.31644 0.839 0.71007 0.0
H286 H 0.38988 0.9554 0.73532 0.0
H287 H 0.35089 0.85226 0.76696 0.0
H288 H 0.36775 0.91054 0.88156 0.0
H289 H 0.34354 0.88777 0.82242 0.0
H290 H 0.44073 0.94396 0.77001 0.0
H291 H 0.46547 0.96627 0.82931 0.0
C292 C 0.3548 0.92223 0.69771 0.0
C293 C 0.33326 0.88964 0.69042 0.0
C294 C 0.37461 0.92974 0.72984 0.0
C295 C 0.37299 0.90486 0.75554 0.0
C296 C 0.35245 0.87192 0.74765 0.0
C297 C 0.33295 0.8643 0.71514 0.0
C298 C 0.38443 0.91737 0.85761 0.0
C299 C 0.41843 0.94057 0.86019 0.0
C300 C 0.3705 0.90428 0.82369 0.0
C301 C 0.39016 0.91429 0.79163 0.0
C302 C 0.42483 0.93616 0.79429 0.0
C303 C 0.43888 0.94906 0.82822 0.0
H304 H 0.62504 0.38079 0.77007 0.0
H305 H 0.68365 0.47541 0.81797 0.0
H306 H 0.61142 0.4097 0.71674 0.0
H307 H 0.67053 0.50437 0.76488 0.0
H308 H 0.60238 0.54914 0.68914 0.0
H309 H 0.62139 0.51977 0.73851 0.0
H310 H 0.63153 0.44188 0.66241 0.0
H311 H 0.61213 0.47132 0.61284 0.0
C312 C 0.63572 0.40771 0.76886 0.0
C313 C 0.65554 0.42561 0.7985 0.0
C314 C 0.62785 0.42444 0.7382 0.0
C315 C 0.63933 0.45972 0.73621 0.0
C316 C 0.66042 0.47737 0.76532 0.0
C317 C 0.66839 0.46065 0.79578 0.0
C318 C 0.60885 0.52587 0.68269 0.0
C319 C 0.60563 0.51289 0.6466 0.0
C320 C 0.62004 0.50895 0.71122 0.0
C321 C 0.6283 0.47817 0.70497 0.0
C322 C 0.62521 0.46523 0.66877 0.0
C323 C 0.61425 0.48234 0.6401 0.0
H324 H 0.93532 0.71178 0.23121 0.0
H325 H 0.94476 0.64419 0.31518 0.0
H326 H 0.95826 0.67871 0.18612 0.0
H327 H 0.96932 0.61154 0.27051 0.0
H328 H 0.97915 0.53878 0.17901 0.0
H329 H 0.95763 0.57341 0.22297 0.0
H330 H 1.00345 0.6602 0.15813 0.0
H331 H 0.02398 0.62461 0.11313 0.0
C332 C 0.94319 0.69021 0.2403 0.0
C333 C 0.93886 0.68138 0.27732 0.0
C334 C 0.95655 0.67105 0.21421 0.0
C335 C 0.96604 0.64191 0.22385 0.0
C336 C 0.962 0.63327 0.26117 0.0
C337 C 0.94832 0.65239 0.28727 0.0
C338 C 0.98449 0.56525 0.17381 0.0
C339 C 1.00328 0.5786 0.14206 0.0
C340 C 0.97241 0.58546 0.19959 0.0
C341 C 0.97887 0.62026 0.1952 0.0
C342 C 0.99733 0.63365 0.16296 0.0
C343 C 0.00924 0.61318 0.13684 0.0
H344 H 0.45963 0.23929 0.24857 0.0
H345 H 0.43705 0.25854 0.13751 0.0
H346 H 0.47828 0.19 0.22763 0.0
H347 H 0.45531 0.20923 0.11653 0.0
H348 H 0.4498 0.09965 0.09764 0.0
H349 H 0.4303 0.14623 0.12444 0.0
H350 H 0.52767 0.1768 0.18768 0.0
H351 H 0.54731 0.13032 0.16091 0.0
C352 C 0.45932 0.23325 0.21965 0.0
C353 C 0.44758 0.25289 0.19448 0.0
C354 C 0.46975 0.20505 0.20772 0.0
C355 C 0.46786 0.19569 0.17054 0.0
C356 C 0.45655 0.21564 0.1454 0.0
C357 C 0.44656 0.24401 0.15727 0.0
C358 C 0.4667 0.11586 0.11782 0.0
C359 C 0.50017 0.11147 0.127 0.0
C360 C 0.4557 0.14269 0.13287 0.0
C361 C 0.47775 0.16532 0.15769 0.0
C362 C 0.51019 0.15972 0.16859 0.0
C363 C 0.5214 0.13314 0.15322 0.0
H364 H 0.19607 0.88154 0.59393 0.0
H365 H 0.27896 0.96623 0.636 0.0
H366 H 0.15917 0.91874 0.58029 0.0
H367 H 0.2411 1.00299 0.62374 0.0
H368 H 0.13879 0.04475 0.62925 0.0
H369 H 0.17735 1.00917 0.64514 0.0
H370 H 0.16849 0.96851 0.53503 0.0
H371 H 0.13061 1.00427 0.51898 0.0
C372 C 0.20648 0.90802 0.60025 0.0
C373 C 0.24063 0.92088 0.61583 0.0
C374 C 0.18525 0.92923 0.59261 0.0
C375 C 0.19748 0.96361 0.60091 0.0
C376 C 0.23107 0.97646 0.61739 0.0
C377 C 0.25259 0.95535 0.62453 0.0
C378 C 0.14548 1.02845 0.60844 0.0
C379 C 0.13195 1.02724 0.5729 0.0
C380 C 0.16744 1.00819 0.6175 0.0
C381 C 0.17555 0.98609 0.5913 0.0
C382 C 0.16227 0.98517 0.55573 0.0
C383 C 0.14086 1.00576 0.54653 0.0
H384 H 0.7655 0.44917 0.9254 0.0
H385 H 0.79957 0.35877 0.92931 0.0
H386 H 0.82153 0.48058 0.95414 0.0
H387 H 0.85585 0.39008 0.95722 0.0
H388 H 0.94098 0.44709 1.03721 0.0
H389 H 0.88405 0.41676 1.00986 0.0
H390 H 0.88341 0.50397 0.94842 0.0
H391 H 0.93978 0.53464 0.97689 0.0
C392 C 0.78509 0.43598 0.93201 0.0
C393 C 0.77758 0.40122 0.92504 0.0
C394 C 0.81749 0.45409 0.94854 0.0
C395 C 0.84378 0.43818 0.95846 0.0
C396 C 0.83634 0.40344 0.951 0.0
C397 C 0.80386 0.38532 0.93475 0.0
C398 C 0.92869 0.45995 1.018 0.0
C399 C 0.94536 0.49352 1.00947 0.0
C400 C 0.89592 0.44234 1.00192 0.0
C401 C 0.87862 0.4575 0.97641 0.0
C402 C 0.89522 0.49124 0.96815 0.0
C403 C 0.9279 0.50893 0.98445 0.0
H404 H 0.7968 0.67872 0.38172 0.0
H405 H 0.85185 0.69092 0.48466 0.0
H406 H 0.74062 0.6502 0.41198 0.0
H407 H 0.79694 0.66065 0.51474 0.0
H408 H 0.68937 0.63647 0.57027 0.0
H409 H 0.74412 0.6626 0.53812 0.0
H410 H 0.70128 0.60629 0.44011 0.0
H411 H 0.64497 0.58173 0.47245 0.0
C412 C 0.797 0.67478 0.41079 0.0
C413 C 0.82888 0.68743 0.43075 0.0
C414 C 0.76466 0.65818 0.42834 0.0
C415 C 0.76323 0.65308 0.46641 0.0
C416 C 0.79579 0.66473 0.48583 0.0
C417 C 0.82775 0.68193 0.46846 0.0
C418 C 0.69153 0.6295 0.54185 0.0
C419 C 0.66248 0.60682 0.52414 0.0
C420 C 0.72347 0.6444 0.52319 0.0
C421 C 0.72827 0.6367 0.48607 0.0
C422 C 0.69912 0.61359 0.46838 0.0
C423 C 0.66669 0.59912 0.48704 0.0
H424 H 0.35043 0.37181 0.17486 0.0
H425 H 0.25656 0.29066 0.19654 0.0
H426 H 0.31366 0.39902 0.13865 0.0
H427 H 0.22012 0.31747 0.16097 0.0
H428 H 0.1642 0.35826 0.07779 0.0
H429 H 0.21076 0.33337 0.09794 0.0
H430 H 0.26376 0.42571 0.15482 0.0
H431 H 0.2172 0.45061 0.13475 0.0
C432 C 0.32208 0.35974 0.17152 0.0
C433 C 0.30611 0.32947 0.18873 0.0
C434 C 0.3011 0.37525 0.15098 0.0
C435 C 0.26408 0.36026 0.14687 0.0
C436 C 0.24862 0.3294 0.16314 0.0
C437 C 0.26937 0.31424 0.18387 0.0
C438 C 0.18608 0.37338 0.09415 0.0
C439 C 0.18674 0.40617 0.10519 0.0
C440 C 0.21275 0.35918 0.10559 0.0
C441 C 0.24058 0.37747 0.12835 0.0
C442 C 0.24277 0.4111 0.13709 0.0
C443 C 0.21606 0.42533 0.12562 0.0
H444 H 0.69402 0.30665 0.97656 0.0
H445 H 0.64346 0.27527 0.8721 0.0
H446 H 0.66579 0.25156 1.00024 0.0
H447 H 0.61335 0.22088 0.89716 0.0
H448 H 0.5341 0.14483 0.9744 0.0
H449 H 0.56579 0.19787 0.94716 0.0
H450 H 0.66553 0.1885 0.99033 0.0
H451 H 0.63371 0.13444 1.01684 0.0
C452 C 0.67735 0.28824 0.95818 0.0
C453 C 0.67191 0.29634 0.92175 0.0
C454 C 0.66082 0.25638 0.97215 0.0
C455 C 0.6373 0.23141 0.95074 0.0
C456 C 0.63116 0.2394 0.91465 0.0
C457 C 0.64838 0.27104 0.90031 0.0
C458 C 0.56287 0.15379 0.97788 0.0
C459 C 0.58125 0.13504 0.99783 0.0
C460 C 0.58111 0.18431 0.96206 0.0
C461 C 0.61835 0.19777 0.96638 0.0
C462 C 0.63685 0.1791 0.98645 0.0
C463 C 0.61865 0.14797 1.00153 0.0
H464 H 0.98414 0.78874 0.43159 0.0
H465 H 0.88072 0.8087 0.43236 0.0
H466 H 0.01018 0.84308 0.46249 0.0
H467 H 0.9065 0.86262 0.46308 0.0
H468 H 0.9699 0.97185 0.48759 0.0
H469 H 0.94656 0.91852 0.45469 0.0
H470 H 0.01004 0.87321 0.52217 0.0
H471 H 0.03333 0.92672 0.55531 0.0
C472 C 0.96696 0.80477 0.43796 0.0
C473 C 0.93015 0.79392 0.4293 0.0
C474 C 0.98186 0.83594 0.4561 0.0
C475 C 0.96063 0.85768 0.46564 0.0
C476 C 0.92402 0.84705 0.45616 0.0
C477 C 0.90908 0.8158 0.43861 0.0
C478 C 0.97901 0.95061 0.49554 0.0
C479 C 1.00358 0.95398 0.52446 0.0
C480 C 0.9654 0.91975 0.47665 0.0
C481 C 0.97614 0.89105 0.48552 0.0
C482 C 1.00117 0.89455 0.5141 0.0
C483 C 0.01443 0.92535 0.53338 0.0
H484 H 0.31136 0.77232 0.52331 0.0
H485 H 0.37499 0.86078 0.57957 0.0
H486 H 0.35812 0.74423 0.53324 0.0
H487 H 0.42215 0.83287 0.58944 0.0
H488 H 0.46981 0.75195 0.63982 0.0
H489 H 0.42903 0.78556 0.62595 0.0
H490 H 0.42034 0.7471 0.51485 0.0
H491 H 0.46117 0.71365 0.52864 0.0
C492 C 0.33571 0.78585 0.53726 0.0
C493 C 0.34006 0.81878 0.55014 0.0
C494 C 0.36248 0.76989 0.54288 0.0
C495 C 0.39389 0.78647 0.5619 0.0
C496 C 0.39818 0.81948 0.5748 0.0
C497 C 0.37143 0.8355 0.56898 0.0
C498 C 0.45969 0.75117 0.61229 0.0
C499 C 0.46835 0.72991 0.58542 0.0
C500 C 0.43636 0.77039 0.60434 0.0
C501 C 0.42127 0.76868 0.5694 0.0
C502 C 0.43106 0.74843 0.54219 0.0
C503 C 0.45439 0.72928 0.5501 0.0
H504 H 0.79399 0.89442 0.90135 0.0
H505 H 0.79103 0.79465 0.86231 0.0
H506 H 0.84653 0.91739 0.86397 0.0
H507 H 0.84484 0.8177 0.82569 0.0
H508 H 0.91378 0.88048 0.73294 0.0
H509 H 0.86339 0.85249 0.77163 0.0
H510 H 0.90947 0.91904 0.86162 0.0
H511 H 0.9595 0.9471 0.82292 0.0
C512 C 0.80449 0.87738 0.88464 0.0
C513 C 0.78814 0.84273 0.88451 0.0
C514 C 0.83497 0.89051 0.86362 0.0
C515 C 0.85001 0.86934 0.84206 0.0
C516 C 0.83373 0.83465 0.84188 0.0
C517 C 0.80314 0.82145 0.86302 0.0
C518 C 0.91338 0.8887 0.76117 0.0
C519 C 0.94032 0.9162 0.77483 0.0
C520 C 0.88456 0.87268 0.78332 0.0
C521 C 0.88223 0.88385 0.81954 0.0
C522 C 0.91008 0.91035 0.83359 0.0
C523 C 0.93876 0.92638 0.81147 0.0
H524 H 0.72681 0.21849 0.44327 0.0
H525 H 0.79383 0.1535 0.41556 0.0
H526 H 0.69406 0.20177 0.38587 0.0
H527 H 0.76048 0.13622 0.35956 0.0
H528 H 0.67199 0.08636 0.28173 0.0
H529 H 0.69678 0.10383 0.34222 0.0
H530 H 0.70933 0.20722 0.3163 0.0
H531 H 0.6841 0.1897 0.2556 0.0
C532 C 0.73452 0.20066 0.42513 0.0
C533 C 0.76266 0.18699 0.4344 0.0
C534 C 0.71571 0.19105 0.39239 0.0
C535 C 0.72446 0.16737 0.36861 0.0
C536 C 0.75262 0.15393 0.37779 0.0
C537 C 0.77162 0.16377 0.41006 0.0
C538 C 0.67934 0.11276 0.28916 0.0
C539 C 0.67627 0.13668 0.2639 0.0
C540 C 0.69376 0.12276 0.32367 0.0
C541 C 0.70516 0.15687 0.33378 0.0
C542 C 0.70059 0.18076 0.30921 0.0
C543 C 0.68647 0.17076 0.27446 0.0
H544 H 0.4803 0.72906 0.34103 0.0
H545 H 0.41942 0.63177 0.3017 0.0
H546 H 0.49821 0.70356 0.39481 0.0
H547 H 0.43682 0.60618 0.35532 0.0
H548 H 0.51199 0.5666 0.42749 0.0
H549 H 0.48851 0.59297 0.37853 0.0
H550 H 0.4832 0.67437 0.45194 0.0
H551 H 0.50715 0.64791 0.50113 0.0
C552 C 0.47003 0.70229 0.34428 0.0
C553 C 0.44839 0.68259 0.3168 0.0
C554 C 0.48038 0.68753 0.3752 0.0
C555 C 0.46962 0.65247 0.37964 0.0
C556 C 0.44652 0.63308 0.35288 0.0
C557 C 0.43607 0.64784 0.32215 0.0
C558 C 0.50572 0.59005 0.43345 0.0
C559 C 0.51166 0.60488 0.46868 0.0
C560 C 0.4919 0.60521 0.40518 0.0
C561 C 0.48356 0.63601 0.41077 0.0
C562 C 0.48943 0.65089 0.44609 0.0
C563 C 0.50306 0.63553 0.47455 0.0
H564 H 0.14668 0.37411 0.86044 0.0
H565 H 0.15562 0.45623 0.78838 0.0
H566 H 0.12767 0.40632 0.91012 0.0
H567 H 0.13526 0.48764 0.83663 0.0
H568 H 0.13122 0.55457 0.93254 0.0
H569 H 0.15058 0.51957 0.88752 0.0
H570 H 0.08797 0.43126 0.9414 0.0
H571 H 0.07005 0.46724 0.98813 0.0
C572 C 0.14408 0.39883 0.85494 0.0
C573 C 0.15322 0.41248 0.82014 0.0
C574 C 0.13307 0.41751 0.88362 0.0
C575 C 0.13039 0.45046 0.87849 0.0
C576 C 0.13808 0.4632 0.84301 0.0
C577 C 0.14953 0.44485 0.81477 0.0
C578 C 0.12181 0.52766 0.93521 0.0
C579 C 0.099 0.51404 0.96432 0.0
C580 C 0.13257 0.50724 0.90872 0.0
C581 C 0.12036 0.47193 0.90935 0.0
C582 C 0.09829 0.45812 0.93934 0.0
C583 C 0.08792 0.47883 0.96644 0.0
H584 H 0.6849 0.85817 1.00095 0.0
H585 H 0.66449 0.86364 0.88603 0.0
H586 H 0.65575 0.90239 1.014 0.0
H587 H 0.63483 0.90794 0.89931 0.0
H588 H 0.55314 0.96248 0.96173 0.0
H589 H 0.57792 0.91682 0.94081 0.0
H590 H 0.67856 0.96635 0.99248 0.0
H591 H 0.65441 1.0121 1.01288 0.0
C592 C 0.67331 0.86821 0.9786 0.0
C593 C 0.67688 0.8575 0.9425 0.0
C594 C 0.65702 0.89372 0.98603 0.0
C595 C 0.64356 0.90871 0.95756 0.0
C596 C 0.64514 0.89674 0.92164 0.0
C597 C 0.66203 0.8715 0.9141 0.0
C598 C 0.58081 0.96398 0.96791 0.0
C599 C 0.60175 0.9908 0.98918 0.0
C600 C 0.59488 0.93785 0.95598 0.0
C601 C 0.62984 0.93798 0.96565 0.0
C602 C 0.65132 0.96558 0.98517 0.0
C603 C 0.63754 0.99187 0.99657 0.0
H604 H 0.83724 0.12945 0.4817 0.0
H605 H 0.84494 0.18167 0.58625 0.0
H606 H 0.86932 0.09263 0.50592 0.0
H607 H 0.88114 0.14735 0.60908 0.0
H608 H 0.93315 0.06955 0.64848 0.0
H609 H 0.88812 0.09673 0.62865 0.0
H610 H 0.92788 0.09626 0.51795 0.0
H611 H 0.97027 0.06713 0.53741 0.0
C612 C 0.84543 0.13306 0.50998 0.0
C613 C 0.8386 0.159 0.53178 0.0
C614 C 0.86468 0.11225 0.52371 0.0
C615 C 0.87882 0.11746 0.55922 0.0
C616 C 0.87072 0.14242 0.58162 0.0
C617 C 0.85047 0.16264 0.56821 0.0
C618 C 0.93169 0.07499 0.6199 0.0
C619 C 0.95502 0.06631 0.59444 0.0
C620 C 0.90614 0.09075 0.60851 0.0
C621 C 0.90408 0.09869 0.57159 0.0
C622 C 0.92769 0.08982 0.54638 0.0
C623 C 0.95245 0.07343 0.55759 0.0
H624 H 0.29969 0.6729 0.23232 0.0
H625 H 0.3397 0.71299 0.12786 0.0
H626 H 0.24455 0.64007 0.20321 0.0
H627 H 0.2841 0.68092 0.09919 0.0
H628 H 0.16374 0.64722 0.0676 0.0
H629 H 0.22027 0.67817 0.0958 0.0
H630 H 0.21912 0.59274 0.16077 0.0
H631 H 0.16249 0.56168 0.1325 0.0
C632 C 0.29715 0.67464 0.20313 0.0
C633 C 0.32483 0.69611 0.18284 0.0
C634 C 0.26518 0.65571 0.18635 0.0
C635 C 0.25939 0.65772 0.14867 0.0
C636 C 0.28704 0.67897 0.12831 0.0
C637 C 0.31915 0.69761 0.14498 0.0
C638 C 0.1755 0.63485 0.08777 0.0
C639 C 0.15814 0.60172 0.09755 0.0
C640 C 0.20821 0.65266 0.10392 0.0
C641 C 0.22465 0.6382 0.1308 0.0
C642 C 0.20734 0.60503 0.14054 0.0
C643 C 0.17481 0.58704 0.12405 0.0
H644 H 0.32609 0.48125 0.74248 0.0
H645 H 0.29654 0.39888 0.66484 0.0
H646 H 0.3757 0.50969 0.70306 0.0
H647 H 0.34653 0.42688 0.62541 0.0
H648 H 0.42587 0.49574 0.54898 0.0
H649 H 0.37247 0.47196 0.5857 0.0
H650 H 0.43361 0.50628 0.6838 0.0
H651 H 0.48676 0.5305 0.6469 0.0
C652 C 0.32994 0.46938 0.7167 0.0
C653 C 0.30725 0.43771 0.70688 0.0
C654 C 0.35874 0.48554 0.69417 0.0
C655 C 0.36581 0.47064 0.66093 0.0
C656 C 0.3421 0.4395 0.65049 0.0
C657 C 0.31331 0.42332 0.67311 0.0
C658 C 0.42787 0.49844 0.57839 0.0
C659 C 0.4608 0.51506 0.59487 0.0
C660 C 0.39717 0.48453 0.59958 0.0
C661 C 0.3983 0.48686 0.63803 0.0
C662 C 0.4312 0.50416 0.6544 0.0
C663 C 0.46191 0.51799 0.63319 0.0
H664 H 0.73004 0.70065 1.0217 0.0
H665 H 0.76307 0.72768 0.91151 0.0
H666 H 0.78369 0.68162 1.03033 0.0
H667 H 0.8176 0.71032 0.92035 0.0
H668 H 0.89877 0.6518 0.93684 0.0
H669 H 0.84162 0.66428 0.92775 0.0
H670 H 0.84629 0.70451 1.03809 0.0
H671 H 0.90294 0.691 0.04733 0.0
C672 C 0.74871 0.70215 0.99924 0.0
C673 C 0.74232 0.71512 0.96581 0.0
C674 C 0.77965 0.69169 1.00426 0.0
C675 C 0.80517 0.69455 0.97611 0.0
C676 C 0.79836 0.70719 0.94246 0.0
C677 C 0.76724 0.7173 0.93738 0.0
C678 C 0.88755 0.66338 0.95908 0.0
C679 C 0.90534 0.67058 0.99274 0.0
C680 C 0.85482 0.67061 0.95388 0.0
C681 C 0.83927 0.68551 0.98213 0.0
C682 C 0.85707 0.6925 1.0159 0.0
C683 C 0.88964 0.68493 1.0212 0.0
H684 H 0.43 0.83161 0.24054 0.0
H685 H 0.42787 0.7852 0.13381 0.0
H686 H 0.45871 0.88657 0.21457 0.0
H687 H 0.45726 0.83979 0.10813 0.0
H688 H 0.55155 0.93668 0.08923 0.0
H689 H 0.51955 0.88286 0.11466 0.0
H690 H 0.44446 0.92898 0.16699 0.0
H691 H 0.47612 0.98309 0.14036 0.0
C692 C 0.43582 0.83304 0.21159 0.0
C693 C 0.42655 0.80372 0.18939 0.0
C694 C 0.45204 0.86466 0.19662 0.0
C695 C 0.46038 0.86787 0.15912 0.0
C696 C 0.45142 0.83847 0.13707 0.0
C697 C 0.43444 0.80707 0.15184 0.0
C698 C 0.52804 0.93542 0.10592 0.0
C699 C 0.51648 0.96441 0.11256 0.0
C700 C 0.5096 0.90441 0.1205 0.0
C701 C 0.47935 0.90131 0.14308 0.0
C702 C 0.46774 0.93034 0.14993 0.0
C703 C 0.48574 0.96136 0.13446 0.0
H704 H 0.20203 0.29564 0.73786 0.0
H705 H 0.09793 0.31343 0.73086 0.0
H706 H 0.17836 0.2401 0.70966 0.0
H707 H 0.07405 0.25764 0.70224 0.0
H708 H 0.0579 0.1729 0.61129 0.0
H709 H 0.07871 0.22691 0.64376 0.0
H710 H 0.138 0.18354 0.71812 0.0
H711 H 0.11689 0.12941 0.68585 0.0
C712 C 0.1739 0.28759 0.73065 0.0
C713 C 0.15201 0.30935 0.73693 0.0
C714 C 0.16021 0.25549 0.71446 0.0
C715 C 0.12414 0.24394 0.70324 0.0
C716 C 0.10202 0.26548 0.71004 0.0
C717 C 0.11563 0.29748 0.72691 0.0
C718 C 0.07533 0.17473 0.6346 0.0
C719 C 0.08562 0.14637 0.64563 0.0
C720 C 0.08713 0.20586 0.6535 0.0
C721 C 0.1102 0.21007 0.68386 0.0
C722 C 0.12055 0.1817 0.69482 0.0
C723 C 0.10827 0.15042 0.67628 0.0
H724 H 0.82167 0.34993 0.56054 0.0
H725 H 0.7433 0.25876 0.52732 0.0
H726 H 0.77975 0.38214 0.54611 0.0
H727 H 0.70166 0.29095 0.51121 0.0
H728 H 0.62341 0.35568 0.52973 0.0
H729 H 0.66492 0.32208 0.54023 0.0
H730 H 0.75158 0.4006 0.49634 0.0
H731 H 0.71013 0.4344 0.4868 0.0
C732 C 0.79548 0.3369 0.54986 0.0
C733 C 0.78542 0.30197 0.54531 0.0
C734 C 0.77158 0.3553 0.54127 0.0
C735 C 0.73732 0.33913 0.52747 0.0
C736 C 0.72761 0.30413 0.5223 0.0
C737 C 0.75144 0.28572 0.53123 0.0
C738 C 0.65127 0.36551 0.522 0.0
C739 C 0.66367 0.39766 0.50767 0.0
C740 C 0.67505 0.34628 0.52791 0.0
C741 C 0.71165 0.35873 0.51932 0.0
C742 C 0.72374 0.39054 0.50398 0.0
C743 C 0.70002 0.40986 0.49838 0.0
loop_
_geom_bond_atom_site_label_1
_geom_bond_atom_site_label_2
_geom_bond_distance
_geom_bond_site_symmetry_2
_ccdc_geom_bond_type
H0 C7 0.929 . S
H1 C10 0.930 . S
H2 C12 0.929 . S
H3 C4 0.969 . S
C4 H3 0.969 . S
C4 O5 1.550 . S
C4 H6 0.973 . S
O5 C4 1.550 . S
O5 C11 1.412 . S
H6 C4 0.973 . S
C7 H0 0.929 . S
C7 C8 1.400 . S
C7 C9 1.364 . S
C8 C7 1.400 . S
C8 C12 1.377 . S
C9 C7 1.364 . S
C9 C10 1.374 . S
C10 H1 0.930 . S
C10 C9 1.374 . S
C10 C11 1.383 . S
C11 O5 1.412 . S
C11 C10 1.383 . S
C11 C12 1.394 . S
C12 H2 0.929 . S
C12 C8 1.377 . S
C12 C11 1.394 . S
H13 C20 0.929 . S
H14 C23 0.930 . S
H15 C25 0.929 . S
H16 C17 0.969 . S
C17 H16 0.969 . S
C17 O18 1.550 . S
C17 H19 0.973 . S
O18 C17 1.550 . S
O18 C24 1.412 . S
H19 C17 0.973 . S
C20 H13 0.929 . S
C20 C21 1.400 . S
C20 C22 1.364 . S
C21 C20 1.400 . S
C21 C25 1.377 . S
C22 C20 1.364 . S
C22 C23 1.374 . S
C23 H14 0.930 . S
C23 C22 1.374 . S
C23 C24 1.383 . S
C24 O18 1.412 . S
C24 C23 1.383 . S
C24 C25 1.394 . S
C25 H15 0.929 . S
C25 C21 1.377 . S
C25 C24 1.394 . S
H26 C33 0.929 . S
H27 C36 0.930 . S
H28 C38 0.929 . S
H29 C30 0.969 . S
C30 H29 0.969 . S
C30 O31 1.550 . S
C30 H32 0.973 . S
O31 C30 1.550 . S
O31 C37 1.412 . S
H32 C30 0.973 . S
C33 H26 0.929 . S
C33 C34 1.400 . S
C33 C35 1.364 . S
C34 C33 1.400 . S
C34 C38 1.377 . S
C35 C33 1.364 . S
C35 C36 1.374 . S
C36 H27 0.930 . S
C36 C35 1.374 . S
C36 C37 1.383 . S
C37 O31 1.412 . S
C37 C36 1.383 . S
C37 C38 1.394 . S
C38 H28 0.929 . S
C38 C34 1.377 . S
C38 C37 1.394 . S
H39 C46 0.929 . S
H40 C49 0.930 . S
H41 C51 0.929 . S
H42 C43 0.969 . S
C43 H42 0.969 . S
C43 O44 1.550 . S
C43 H45 0.973 . S
O44 C43 1.550 . S
O44 C50 1.412 . S
H45 C43 0.973 . S
C46 H39 0.929 . S
C46 C47 1.400 . S
C46 C48 1.364 . S
C47 C46 1.400 . S
C47 C51 1.377 . S
C48 C46 1.364 . S
C48 C49 1.374 . S
C49 H40 0.930 . S
C49 C48 1.374 . S
C49 C50 1.383 . S
C50 O44 1.412 . S
C50 C49 1.383 . S
C50 C51 1.394 . S
C51 H41 0.929 . S
C51 C47 1.377 . S
C51 C50 1.394 . S
H52 C59 0.929 . S
H53 C62 0.930 . S
H54 C64 0.929 . S
H55 C56 0.969 . S
C56 H55 0.969 . S
C56 O57 1.550 . S
C56 H58 0.973 . S
O57 C56 1.550 . S
O57 C63 1.412 . S
H58 C56 0.973 . S
C59 H52 0.929 . S
C59 C60 1.400 . S
C59 C61 1.364 . S
C60 C59 1.400 . S
C60 C64 1.377 . S
C61 C59 1.364 . S
C61 C62 1.374 . S
C62 H53 0.930 . S
C62 C61 1.374 . S
C62 C63 1.383 . S
C63 O57 1.412 . S
C63 C62 1.383 . S
C63 C64 1.394 . S
C64 H54 0.929 . S
C64 C60 1.377 . S
C64 C63 1.394 . S
H65 C72 0.929 . S
H66 C75 0.930 . S
H67 C77 0.929 . S
H68 C69 0.969 . S
C69 H68 0.969 . S
C69 O70 1.550 . S
C69 H71 0.973 . S
O70 C69 1.550 . S
O70 C76 1.412 . S
H71 C69 0.973 . S
C72 H65 0.929 . S
C72 C73 1.400 . S
C72 C74 1.364 . S
C73 C72 1.400 . S
C73 C77 1.377 . S
C74 C72 1.364 . S
C74 C75 1.374 . S
C75 H66 0.930 . S
C75 C74 1.374 . S
C75 C76 1.383 . S
C76 O70 1.412 . S
C76 C75 1.383 . S
C76 C77 1.394 . S
C77 H67 0.929 . S
C77 C73 1.377 . S
C77 C76 1.394 . S
H78 C85 0.929 . S
H79 C88 0.930 . S
H80 C90 0.929 . S
H81 C82 0.969 . S
C82 H81 0.969 . S
C82 O83 1.550 . S
C82 H84 0.973 . S
O83 C82 1.550 . S
O83 C89 1.412 . S
H84 C82 0.973 . S
C85 H78 0.929 . S
C85 C86 1.400 . S
C85 C87 1.364 . S
C86 C85 1.400 . S
C86 C90 1.377 . S
C87 C85 1.364 . S
C87 C88 1.374 . S
C88 H79 0.930 . S
C88 C87 1.374 . S
C88 C89 1.383 . S
C89 O83 1.412 . S
C89 C88 1.383 . S
C89 C90 1.394 . S
C90 H80 0.929 . S
C90 C86 1.377 . S
C90 C89 1.394 . S
H91 C98 0.929 . S
H92 C101 0.930 . S
H93 C103 0.929 . S
H94 C95 0.969 . S
C95 H94 0.969 . S
C95 O96 1.550 . S
C95 H97 0.973 . S
O96 C95 1.550 . S
O96 C102 1.412 . S
H97 C95 0.973 . S
C98 H91 0.929 . S
C98 C99 1.400 . S
C98 C100 1.364 . S
C99 C98 1.400 . S
C99 C103 1.377 . S
C100 C98 1.364 . S
C100 C101 1.374 . S
C101 H92 0.930 . S
C101 C100 1.374 . S
C101 C102 1.383 . S
C102 O96 1.412 . S
C102 C101 1.383 . S
C102 C103 1.394 . S
C103 H93 0.929 . S
C103 C99 1.377 . S
C103 C102 1.394 . S
Sm104 C106 2.846 . S
Sm104 O124 2.543 . S
Sm104 O125 2.450 . S
Sm104 O126 2.664 1_545 S
Sm104 O127 2.464 . S
Sm104 O128 2.396 . S
Sm104 O132 2.386 . S
Sm104 O135 2.408 1_545 S
Sm105 C115 2.846 1_545 S
Sm105 O126 2.370 1_645 S
Sm105 O129 2.408 1_655 S
Sm105 O130 2.543 1_545 S
Sm105 O131 2.450 1_545 S
Sm105 O132 2.681 1_655 S
Sm105 O133 2.464 . S
Sm105 O134 2.396 1_545 S
C106 Sm104 2.846 . S
C106 C107 1.506 . S
C106 O124 1.261 . S
C106 O125 1.242 . S
C107 C106 1.506 . S
C107 C108 1.358 . S
C107 C112 1.382 . S
C108 C107 1.358 . S
C108 C109 1.385 . S
C108 H136 0.930 . S
C109 C108 1.385 . S
C109 C110 1.395 . S
C109 H137 0.929 . S
C110 C109 1.395 . S
C110 C111 1.335 . S
C111 C110 1.335 . S
C111 C112 1.398 . S
C111 H138 0.930 . S
C112 C107 1.382 . S
C112 C111 1.398 . S
C112 H139 0.929 . S
C113 O126 1.285 . S
C113 O127 1.251 1_565 S
C114 O128 1.252 . S
C114 O129 1.272 . S
C115 Sm105 2.846 1_565 S
C115 C116 1.506 . S
C115 O130 1.261 . S
C115 O131 1.242 . S
C116 C115 1.506 . S
C116 C117 1.358 . S
C116 C121 1.382 . S
C117 C116 1.358 . S
C117 C118 1.385 . S
C117 H140 0.930 . S
C118 C117 1.385 . S
C118 C119 1.395 . S
C118 H141 0.929 . S
C119 C118 1.395 . S
C119 C120 1.335 . S
C120 C119 1.335 . S
C120 C121 1.398 . S
C120 H142 0.930 . S
C121 C116 1.382 . S
C121 C120 1.398 . S
C121 H143 0.929 . S
C122 O132 1.271 1_655 S
C122 O133 1.251 . S
C123 O134 1.252 . S
C123 O135 1.272 1_655 S
O124 Sm104 2.543 . S
O124 C106 1.261 . S
O125 Sm104 2.450 . S
O125 C106 1.242 . S
O126 Sm104 2.664 1_565 S
O126 Sm105 2.370 1_465 S
O126 C113 1.285 . S
O127 Sm104 2.464 . S
O127 C113 1.251 1_545 S
O128 Sm104 2.396 . S
O128 C114 1.252 . S
O129 Sm105 2.408 1_455 S
O129 C114 1.272 . S
O130 Sm105 2.543 1_565 S
O130 C115 1.261 . S
O131 Sm105 2.450 1_565 S
O131 C115 1.242 . S
O132 Sm104 2.386 . S
O132 Sm105 2.681 1_455 S
O132 C122 1.271 1_455 S
O133 Sm105 2.464 . S
O133 C122 1.251 . S
O134 Sm105 2.396 1_565 S
O134 C123 1.252 . S
O135 Sm104 2.408 1_565 S
O135 C123 1.272 1_455 S
H136 C108 0.930 . S
H137 C109 0.929 . S
H138 C111 0.930 . S
H139 C112 0.929 . S
H140 C117 0.930 . S
H141 C118 0.929 . S
H142 C120 0.930 . S
H143 C121 0.929 . S
Sm144 C146 2.846 . S
Sm144 O164 2.543 . S
Sm144 O165 2.450 . S
Sm144 O166 2.681 1_545 S
Sm144 O167 2.464 1_545 S
Sm144 O168 2.396 . S
Sm144 O172 2.374 1_554 S
Sm144 O175 2.408 1_544 S
Sm145 C155 2.846 1_545 S
Sm145 O166 2.386 1_546 S
Sm145 O169 2.408 1_556 S
Sm145 O170 2.543 1_545 S
Sm145 O171 2.450 1_545 S
Sm145 O172 2.687 . S
Sm145 O173 2.464 . S
Sm145 O174 2.396 1_545 S
C146 Sm144 2.846 . S
C146 C147 1.506 . S
C146 O164 1.261 . S
C146 O165 1.242 . S
C147 C146 1.506 . S
C147 C148 1.358 . S
C147 C152 1.382 . S
C148 C147 1.358 . S
C148 C149 1.385 . S
C148 H176 0.930 . S
C149 C148 1.385 . S
C149 C150 1.395 . S
C149 H177 0.929 . S
C150 C149 1.395 . S
C150 C151 1.335 . S
C151 C150 1.335 . S
C151 C152 1.398 . S
C151 H178 0.930 . S
C152 C147 1.382 . S
C152 C151 1.398 . S
C152 H179 0.929 . S
C153 O166 1.271 . S
C153 O167 1.251 . S
C154 O168 1.252 . S
C154 O169 1.272 . S
C155 Sm145 2.846 1_565 S
C155 C156 1.506 . S
C155 O170 1.261 . S
C155 O171 1.242 . S
C156 C155 1.506 . S
C156 C157 1.358 . S
C156 C161 1.382 . S
C157 C156 1.358 . S
C157 C158 1.385 . S
C157 H180 0.930 . S
C158 C157 1.385 . S
C158 C159 1.395 . S
C158 H181 0.929 . S
C159 C158 1.395 . S
C159 C160 1.335 . S
C160 C159 1.335 . S
C160 C161 1.398 . S
C160 H182 0.930 . S
C161 C156 1.382 . S
C161 C160 1.398 . S
C161 H183 0.929 . S
C162 O172 1.285 . S
C162 O173 1.251 . S
C163 O174 1.252 . S
C163 O175 1.272 . S
O164 Sm144 2.543 . S
O164 C146 1.261 . S
O165 Sm144 2.450 . S
O165 C146 1.242 . S
O166 Sm144 2.681 1_565 S
O166 Sm145 2.386 1_564 S
O166 C153 1.271 . S
O167 Sm144 2.464 1_565 S
O167 C153 1.251 . S
O168 Sm144 2.396 . S
O168 C154 1.252 . S
O169 Sm145 2.408 1_554 S
O169 C154 1.272 . S
O170 Sm145 2.543 1_565 S
O170 C155 1.261 . S
O171 Sm145 2.450 1_565 S
O171 C155 1.242 . S
O172 Sm144 2.374 1_556 S
O172 Sm145 2.687 . S
O172 C162 1.285 . S
O173 Sm145 2.464 . S
O173 C162 1.251 . S
O174 Sm145 2.396 1_565 S
O174 C163 1.252 . S
O175 Sm144 2.408 1_566 S
O175 C163 1.272 . S
H176 C148 0.930 . S
H177 C149 0.929 . S
H178 C151 0.930 . S
H179 C152 0.929 . S
H180 C157 0.930 . S
H181 C158 0.929 . S
H182 C160 0.930 . S
H183 C161 0.929 . S
Sm184 C186 2.846 . S
Sm184 O204 2.543 . S
Sm184 O205 2.450 . S
Sm184 O206 2.681 . S
Sm184 O207 2.464 . S
Sm184 O208 2.396 . S
Sm184 O212 2.386 . S
Sm184 O215 2.408 . S
Sm185 C195 2.846 . S
Sm185 O206 2.386 . S
Sm185 O209 2.408 . S
Sm185 O210 2.543 . S
Sm185 O211 2.450 . S
Sm185 O212 2.681 . S
Sm185 O213 2.464 . S
Sm185 O214 2.396 . S
C186 Sm184 2.846 . S
C186 C187 1.506 . S
C186 O204 1.261 . S
C186 O205 1.242 . S
C187 C186 1.506 . S
C187 C188 1.358 . S
C187 C192 1.382 . S
C188 C187 1.358 . S
C188 C189 1.385 . S
C188 H216 0.930 . S
C189 C188 1.385 . S
C189 C190 1.395 . S
C189 H217 0.929 . S
C190 C189 1.395 . S
C190 C191 1.335 . S
C191 C190 1.335 . S
C191 C192 1.398 . S
C191 H218 0.930 . S
C192 C187 1.382 . S
C192 C191 1.398 . S
C192 H219 0.929 . S
C193 O206 1.271 . S
C193 O207 1.251 . S
C194 O208 1.252 . S
C194 O209 1.272 . S
C195 Sm185 2.846 . S
C195 C196 1.506 . S
C195 O210 1.261 . S
C195 O211 1.242 . S
C196 C195 1.506 . S
C196 C197 1.358 . S
C196 C201 1.382 . S
C197 C196 1.358 . S
C197 C198 1.385 . S
C197 H220 0.930 . S
C198 C197 1.385 . S
C198 C199 1.395 . S
C198 H221 0.929 . S
C199 C198 1.395 . S
C199 C200 1.335 . S
C200 C199 1.335 . S
C200 C201 1.398 . S
C200 H222 0.930 . S
C201 C196 1.382 . S
C201 C200 1.398 . S
C201 H223 0.929 . S
C202 O212 1.271 . S
C202 O213 1.251 . S
C203 O214 1.252 . S
C203 O215 1.272 . S
O204 Sm184 2.543 . S
O204 C186 1.261 . S
O205 Sm184 2.450 . S
O205 C186 1.242 . S
O206 Sm184 2.681 . S
O206 Sm185 2.386 . S
O206 C193 1.271 . S
O207 Sm184 2.464 . S
O207 C193 1.251 . S
O208 Sm184 2.396 . S
O208 C194 1.252 . S
O209 Sm185 2.408 . S
O209 C194 1.272 . S
O210 Sm185 2.543 . S
O210 C195 1.261 . S
O211 Sm185 2.450 . S
O211 C195 1.242 . S
O212 Sm184 2.386 . S
O212 Sm185 2.681 . S
O212 C202 1.271 . S
O213 Sm185 2.464 . S
O213 C202 1.251 . S
O214 Sm185 2.396 . S
O214 C203 1.252 . S
O215 Sm184 2.408 . S
O215 C203 1.272 . S
H216 C188 0.930 . S
H217 C189 0.929 . S
H218 C191 0.930 . S
H219 C192 0.929 . S
H220 C197 0.930 . S
H221 C198 0.929 . S
H222 C200 0.930 . S
H223 C201 0.929 . S
Sm224 C226 2.846 . S
Sm224 O244 2.543 . S
Sm224 O245 2.450 . S
Sm224 O246 2.681 . S
Sm224 O247 2.464 . S
Sm224 O248 2.396 . S
Sm224 O252 2.386 . S
Sm224 O255 2.408 1_455 S
Sm225 C235 2.846 1_454 S
Sm225 O246 2.386 . S
Sm225 O249 2.408 . S
Sm225 O250 2.543 1_455 S
Sm225 O251 2.450 1_554 S
Sm225 O252 2.681 . S
Sm225 O253 2.464 1_554 S
Sm225 O254 2.396 1_454 S
C226 Sm224 2.846 . S
C226 C227 1.506 . S
C226 O244 1.261 . S
C226 O245 1.242 . S
C227 C226 1.506 . S
C227 C228 1.358 . S
C227 C232 1.382 . S
C228 C227 1.358 . S
C228 C229 1.385 . S
C228 H256 0.930 . S
C229 C228 1.385 . S
C229 C230 1.395 . S
C229 H257 0.929 . S
C230 C229 1.395 . S
C230 C231 1.335 . S
C231 C230 1.335 . S
C231 C232 1.398 . S
C231 H258 0.930 . S
C232 C227 1.382 . S
C232 C231 1.398 . S
C232 H259 0.929 . S
C233 O246 1.271 . S
C233 O247 1.251 . S
C234 O248 1.252 . S
C234 O249 1.272 . S
C235 Sm225 2.846 1_656 S
C235 C236 1.506 . S
C235 O250 1.261 1_556 S
C235 O251 1.242 1_655 S
C236 C235 1.506 . S
C236 C237 1.358 . S
C236 C241 1.382 . S
C237 C236 1.358 . S
C237 C238 1.385 . S
C237 H260 0.930 1_556 S
C238 C237 1.385 . S
C238 C239 1.395 . S
C238 H261 0.929 . S
C239 C238 1.395 . S
C239 C240 1.335 . S
C240 C239 1.335 . S
C240 C241 1.398 . S
C240 H262 0.930 . S
C241 C236 1.382 . S
C241 C240 1.398 . S
C241 H263 0.929 . S
C242 O252 1.271 1_556 S
C242 O253 1.251 . S
C243 O254 1.252 1_554 S
C243 O255 1.272 . S
O244 Sm224 2.543 . S
O244 C226 1.261 . S
O245 Sm224 2.450 . S
O245 C226 1.242 . S
O246 Sm224 2.681 . S
O246 Sm225 2.386 . S
O246 C233 1.271 . S
O247 Sm224 2.464 . S
O247 C233 1.251 . S
O248 Sm224 2.396 . S
O248 C234 1.252 . S
O249 Sm225 2.408 . S
O249 C234 1.272 . S
O250 Sm225 2.543 1_655 S
O250 C235 1.261 1_554 S
O251 Sm225 2.450 1_556 S
O251 C235 1.242 1_455 S
O252 Sm224 2.386 . S
O252 Sm225 2.681 . S
O252 C242 1.271 1_554 S
O253 Sm225 2.464 1_556 S
O253 C242 1.251 . S
O254 Sm225 2.396 1_656 S
O254 C243 1.252 1_556 S
O255 Sm224 2.408 1_655 S
O255 C243 1.272 . S
H256 C228 0.930 . S
H257 C229 0.929 . S
H258 C231 0.930 . S
H259 C232 0.929 . S
H260 C237 0.930 1_554 S
H261 C238 0.929 . S
H262 C240 0.930 . S
H263 C241 0.929 . S
H264 C272 0.950 . S
H265 C277 0.950 . S
H266 C274 0.950 . S
H267 C276 0.950 . S
H268 C278 0.950 . S
H269 C280 0.950 . S
H270 C282 0.950 . S
H271 C283 0.950 . S
C272 H264 0.950 . S
C272 C273 1.386 . S
C272 C274 1.391 . S
C273 C272 1.386 . S
C273 C277 1.393 . S
C274 H266 0.950 . S
C274 C272 1.391 . S
C274 C275 1.400 . S
C275 C274 1.400 . S
C275 C276 1.398 . S
C275 C281 1.491 . S
C276 H267 0.950 . S
C276 C275 1.398 . S
C276 C277 1.391 . S
C277 H265 0.950 . S
C277 C273 1.393 . S
C277 C276 1.391 . S
C278 H268 0.950 . S
C278 C279 1.386 . S
C278 C280 1.391 . S
C279 C278 1.386 . S
C279 C283 1.393 . S
C280 H269 0.950 . S
C280 C278 1.391 . S
C280 C281 1.400 . S
C281 C275 1.491 . S
C281 C280 1.400 . S
C281 C282 1.398 . S
C282 H270 0.950 . S
C282 C281 1.398 . S
C282 C283 1.391 . S
C283 H271 0.950 . S
C283 C279 1.393 . S
C283 C282 1.391 . S
H284 C292 0.950 . S
H285 C297 0.950 . S
H286 C294 0.950 . S
H287 C296 0.950 . S
H288 C298 0.950 . S
H289 C300 0.950 . S
H290 C302 0.950 . S
H291 C303 0.950 . S
C292 H284 0.950 . S
C292 C293 1.386 . S
C292 C294 1.391 . S
C293 C292 1.386 . S
C293 C297 1.393 . S
C294 H286 0.950 . S
C294 C292 1.391 . S
C294 C295 1.400 . S
C295 C294 1.400 . S
C295 C296 1.398 . S
C295 C301 1.491 . S
C296 H287 0.950 . S
C296 C295 1.398 . S
C296 C297 1.391 . S
C297 H285 0.950 . S
C297 C293 1.393 . S
C297 C296 1.391 . S
C298 H288 0.950 . S
C298 C299 1.386 . S
C298 C300 1.391 . S
C299 C298 1.386 . S
C299 C303 1.393 . S
C300 H289 0.950 . S
C300 C298 1.391 . S
C300 C301 1.400 . S
C301 C295 1.491 . S
C301 C300 1.400 . S
C301 C302 1.398 . S
C302 H290 0.950 . S
C302 C301 1.398 . S
C302 C303 1.391 . S
C303 H291 0.950 . S
C303 C299 1.393 . S
C303 C302 1.391 . S
H304 C312 0.950 . S
H305 C317 0.950 . S
H306 C314 0.950 . S
H307 C316 0.950 . S
H308 C318 0.950 . S
H309 C320 0.950 . S
H310 C322 0.950 . S
H311 C323 0.950 . S
C312 H304 0.950 . S
C312 C313 1.386 . S
C312 C314 1.391 . S
C313 C312 1.386 . S
C313 C317 1.393 . S
C314 H306 0.950 . S
C314 C312 1.391 . S
C314 C315 1.400 . S
C315 C314 1.400 . S
C315 C316 1.398 . S
C315 C321 1.491 . S
C316 H307 0.950 . S
C316 C315 1.398 . S
C316 C317 1.391 . S
C317 H305 0.950 . S
C317 C313 1.393 . S
C317 C316 1.391 . S
C318 H308 0.950 . S
C318 C319 1.386 . S
C318 C320 1.391 . S
C319 C318 1.386 . S
C319 C323 1.393 . S
C320 H309 0.950 . S
C320 C318 1.391 . S
C320 C321 1.400 . S
C321 C315 1.491 . S
C321 C320 1.400 . S
C321 C322 1.398 . S
C322 H310 0.950 . S
C322 C321 1.398 . S
C322 C323 1.391 . S
C323 H311 0.950 . S
C323 C319 1.393 . S
C323 C322 1.391 . S
H324 C332 0.950 . S
H325 C337 0.950 . S
H326 C334 0.950 . S
H327 C336 0.947 1_455 S
H328 C338 0.950 . S
H329 C340 0.950 1_455 S
H330 C342 0.950 . S
H331 C343 0.950 . S
C332 H324 0.950 . S
C332 C333 1.386 . S
C332 C334 1.391 . S
C333 C332 1.386 . S
C333 C337 1.393 . S
C334 H326 0.950 . S
C334 C332 1.391 . S
C334 C335 1.400 . S
C335 C334 1.400 . S
C335 C336 1.398 . S
C335 C341 1.491 . S
C336 H327 0.947 1_655 S
C336 C335 1.398 . S
C336 C337 1.391 . S
C337 H325 0.950 . S
C337 C333 1.393 . S
C337 C336 1.391 . S
C338 H328 0.950 . S
C338 C339 1.386 1_455 S
C338 C340 1.391 1_455 S
C339 C338 1.386 1_655 S
C339 C343 1.393 . S
C340 H329 0.950 1_655 S
C340 C338 1.391 1_655 S
C340 C341 1.400 . S
C341 C335 1.491 . S
C341 C340 1.400 . S
C341 C342 1.398 . S
C342 H330 0.950 . S
C342 C341 1.398 . S
C342 C343 1.391 . S
C343 H331 0.950 . S
C343 C339 1.393 . S
C343 C342 1.391 . S
H344 C352 0.950 . S
H345 C357 0.950 . S
H346 C354 0.950 . S
H347 C356 0.950 . S
H348 C358 0.950 . S
H349 C360 0.950 . S
H350 C362 0.950 . S
H351 C363 0.950 . S
C352 H344 0.950 . S
C352 C353 1.386 . S
C352 C354 1.391 . S
C353 C352 1.386 . S
C353 C357 1.393 . S
C354 H346 0.950 . S
C354 C352 1.391 . S
C354 C355 1.400 . S
C355 C354 1.400 . S
C355 C356 1.398 . S
C355 C361 1.491 . S
C356 H347 0.950 . S
C356 C355 1.398 . S
C356 C357 1.391 . S
C357 H345 0.950 . S
C357 C353 1.393 . S
C357 C356 1.391 . S
C358 H348 0.950 . S
C358 C359 1.386 . S
C358 C360 1.391 . S
C359 C358 1.386 . S
C359 C363 1.393 . S
C360 H349 0.950 . S
C360 C358 1.391 . S
C360 C361 1.400 . S
C361 C355 1.491 . S
C361 C360 1.400 . S
C361 C362 1.398 . S
C362 H350 0.950 . S
C362 C361 1.398 . S
C362 C363 1.391 . S
C363 H351 0.950 . S
C363 C359 1.393 . S
C363 C362 1.391 . S
H364 C372 0.950 . S
H365 C377 0.950 . S
H366 C374 0.950 . S
H367 C376 0.950 . S
H368 C378 0.950 1_545 S
H369 C380 0.950 . S
H370 C382 0.950 . S
H371 C383 0.950 . S
C372 H364 0.950 . S
C372 C373 1.386 . S
C372 C374 1.391 . S
C373 C372 1.386 . S
C373 C377 1.393 . S
C374 H366 0.950 . S
C374 C372 1.391 . S
C374 C375 1.400 . S
C375 C374 1.400 . S
C375 C376 1.398 . S
C375 C381 1.491 . S
C376 H367 0.950 . S
C376 C375 1.398 . S
C376 C377 1.391 . S
C377 H365 0.950 . S
C377 C373 1.393 . S
C377 C376 1.391 . S
C378 H368 0.950 1_565 S
C378 C379 1.386 . S
C378 C380 1.391 . S
C379 C378 1.386 . S
C379 C383 1.393 . S
C380 H369 0.950 . S
C380 C378 1.391 . S
C380 C381 1.400 . S
C381 C375 1.491 . S
C381 C380 1.400 . S
C381 C382 1.398 . S
C382 H370 0.950 . S
C382 C381 1.398 . S
C382 C383 1.391 . S
C383 H371 0.950 . S
C383 C379 1.393 . S
C383 C382 1.391 . S
H384 C392 0.950 . S
H385 C397 0.950 . S
H386 C394 0.950 . S
H387 C396 0.950 . S
H388 C398 0.950 1_554 S
H389 C400 0.950 . S
H390 C402 0.950 . S
H391 C403 0.950 . S
C392 H384 0.950 . S
C392 C393 1.386 . S
C392 C394 1.391 . S
C393 C392 1.386 . S
C393 C397 1.393 . S
C394 H386 0.950 . S
C394 C392 1.391 . S
C394 C395 1.400 . S
C395 C394 1.400 . S
C395 C396 1.398 . S
C395 C401 1.491 . S
C396 H387 0.950 . S
C396 C395 1.398 . S
C396 C397 1.391 . S
C397 H385 0.950 . S
C397 C393 1.393 . S
C397 C396 1.391 . S
C398 H388 0.950 1_556 S
C398 C399 1.386 . S
C398 C400 1.391 . S
C399 C398 1.386 . S
C399 C403 1.393 . S
C400 H389 0.950 . S
C400 C398 1.391 . S
C400 C401 1.400 . S
C401 C395 1.491 . S
C401 C400 1.400 . S
C401 C402 1.398 . S
C402 H390 0.950 . S
C402 C401 1.398 . S
C402 C403 1.391 . S
C403 H391 0.950 . S
C403 C399 1.393 . S
C403 C402 1.391 . S
H404 C412 0.950 . S
H405 C417 0.950 . S
H406 C414 0.950 . S
H407 C416 0.950 . S
H408 C418 0.950 . S
H409 C420 0.950 . S
H410 C422 0.950 . S
H411 C423 0.950 . S
C412 H404 0.950 . S
C412 C413 1.386 . S
C412 C414 1.391 . S
C413 C412 1.386 . S
C413 C417 1.393 . S
C414 H406 0.950 . S
C414 C412 1.391 . S
C414 C415 1.400 . S
C415 C414 1.400 . S
C415 C416 1.398 . S
C415 C421 1.491 . S
C416 H407 0.950 . S
C416 C415 1.398 . S
C416 C417 1.391 . S
C417 H405 0.950 . S
C417 C413 1.393 . S
C417 C416 1.391 . S
C418 H408 0.950 . S
C418 C419 1.386 . S
C418 C420 1.391 . S
C419 C418 1.386 . S
C419 C423 1.393 . S
C420 H409 0.950 . S
C420 C418 1.391 . S
C420 C421 1.400 . S
C421 C415 1.491 . S
C421 C420 1.400 . S
C421 C422 1.398 . S
C422 H410 0.950 . S
C422 C421 1.398 . S
C422 C423 1.391 . S
C423 H411 0.950 . S
C423 C419 1.393 . S
C423 C422 1.391 . S
H424 C432 0.950 . S
H425 C437 0.950 . S
H426 C434 0.950 . S
H427 C436 0.950 . S
H428 C438 0.950 . S
H429 C440 0.950 . S
H430 C442 0.950 . S
H431 C443 0.950 . S
C432 H424 0.950 . S
C432 C433 1.386 . S
C432 C434 1.391 . S
C433 C432 1.386 . S
C433 C437 1.393 . S
C434 H426 0.950 . S
C434 C432 1.391 . S
C434 C435 1.400 . S
C435 C434 1.400 . S
C435 C436 1.398 . S
C435 C441 1.491 . S
C436 H427 0.950 . S
C436 C435 1.398 . S
C436 C437 1.391 . S
C437 H425 0.950 . S
C437 C433 1.393 . S
C437 C436 1.391 . S
C438 H428 0.950 . S
C438 C439 1.386 . S
C438 C440 1.391 . S
C439 C438 1.386 . S
C439 C443 1.393 . S
C440 H429 0.950 . S
C440 C438 1.391 . S
C440 C441 1.400 . S
C441 C435 1.491 . S
C441 C440 1.400 . S
C441 C442 1.398 . S
C442 H430 0.950 . S
C442 C441 1.398 . S
C442 C443 1.391 . S
C443 H431 0.950 . S
C443 C439 1.393 . S
C443 C442 1.391 . S
H444 C452 0.950 . S
H445 C457 0.950 . S
H446 C454 0.950 . S
H447 C456 0.950 . S
H448 C458 0.950 . S
H449 C460 0.950 . S
H450 C462 0.950 . S
H451 C463 0.950 . S
C452 H444 0.950 . S
C452 C453 1.386 . S
C452 C454 1.391 . S
C453 C452 1.386 . S
C453 C457 1.393 . S
C454 H446 0.950 . S
C454 C452 1.391 . S
C454 C455 1.400 . S
C455 C454 1.400 . S
C455 C456 1.398 . S
C455 C461 1.491 . S
C456 H447 0.950 . S
C456 C455 1.398 . S
C456 C457 1.391 . S
C457 H445 0.950 . S
C457 C453 1.393 . S
C457 C456 1.391 . S
C458 H448 0.950 . S
C458 C459 1.386 . S
C458 C460 1.391 . S
C459 C458 1.386 . S
C459 C463 1.393 . S
C460 H449 0.950 . S
C460 C458 1.391 . S
C460 C461 1.400 . S
C461 C455 1.491 . S
C461 C460 1.400 . S
C461 C462 1.398 . S
C462 H450 0.950 . S
C462 C461 1.398 . S
C462 C463 1.391 . S
C463 H451 0.950 . S
C463 C459 1.393 . S
C463 C462 1.391 . S
H464 C472 0.950 . S
H465 C477 0.950 . S
H466 C474 0.950 . S
H467 C476 0.950 . S
H468 C478 0.950 . S
H469 C480 0.950 . S
H470 C482 0.971 . S
H471 C483 0.950 1_455 S
C472 H464 0.950 . S
C472 C473 1.386 . S
C472 C474 1.391 . S
C473 C472 1.386 . S
C473 C477 1.393 . S
C474 H466 0.950 . S
C474 C472 1.391 . S
C474 C475 1.400 . S
C475 C474 1.400 . S
C475 C476 1.398 . S
C475 C481 1.491 . S
C476 H467 0.950 . S
C476 C475 1.398 . S
C476 C477 1.391 . S
C477 H465 0.950 . S
C477 C473 1.393 . S
C477 C476 1.391 . S
C478 H468 0.950 . S
C478 C479 1.386 . S
C478 C480 1.391 . S
C479 C478 1.386 . S
C479 C483 1.393 . S
C480 H469 0.950 . S
C480 C478 1.391 . S
C480 C481 1.400 . S
C481 C475 1.491 . S
C481 C480 1.400 . S
C481 C482 1.398 . S
C482 H470 0.971 . S
C482 C481 1.398 . S
C482 C483 1.391 . S
C483 H471 0.950 1_655 S
C483 C479 1.393 . S
C483 C482 1.391 . S
H484 C492 0.950 . S
H485 C497 0.950 . S
H486 C494 0.950 . S
H487 C496 0.950 . S
H488 C498 0.950 . S
H489 C500 0.950 . S
H490 C502 0.950 . S
H491 C503 0.950 . S
C492 H484 0.950 . S
C492 C493 1.386 . S
C492 C494 1.391 . S
C493 C492 1.386 . S
C493 C497 1.393 . S
C494 H486 0.950 . S
C494 C492 1.391 . S
C494 C495 1.400 . S
C495 C494 1.400 . S
C495 C496 1.398 . S
C495 C501 1.491 . S
C496 H487 0.950 . S
C496 C495 1.398 . S
C496 C497 1.391 . S
C497 H485 0.950 . S
C497 C493 1.393 . S
C497 C496 1.391 . S
C498 H488 0.950 . S
C498 C499 1.386 . S
C498 C500 1.391 . S
C499 C498 1.386 . S
C499 C503 1.393 . S
C500 H489 0.950 . S
C500 C498 1.391 . S
C500 C501 1.400 . S
C501 C495 1.491 . S
C501 C500 1.400 . S
C501 C502 1.398 . S
C502 H490 0.950 . S
C502 C501 1.398 . S
C502 C503 1.391 . S
C503 H491 0.950 . S
C503 C499 1.393 . S
C503 C502 1.391 . S
H504 C512 0.950 . S
H505 C517 0.950 . S
H506 C514 0.950 . S
H507 C516 0.950 . S
H508 C518 0.950 . S
H509 C520 0.950 . S
H510 C522 0.950 . S
H511 C523 0.950 . S
C512 H504 0.950 . S
C512 C513 1.386 . S
C512 C514 1.391 . S
C513 C512 1.386 . S
C513 C517 1.393 . S
C514 H506 0.950 . S
C514 C512 1.391 . S
C514 C515 1.400 . S
C515 C514 1.400 . S
C515 C516 1.398 . S
C515 C521 1.491 . S
C516 H507 0.950 . S
C516 C515 1.398 . S
C516 C517 1.391 . S
C517 H505 0.950 . S
C517 C513 1.393 . S
C517 C516 1.391 . S
C518 H508 0.950 . S
C518 C519 1.386 . S
C518 C520 1.391 . S
C519 C518 1.386 . S
C519 C523 1.393 . S
C520 H509 0.950 . S
C520 C518 1.391 . S
C520 C521 1.400 . S
C521 C515 1.491 . S
C521 C520 1.400 . S
C521 C522 1.398 . S
C522 H510 0.950 . S
C522 C521 1.398 . S
C522 C523 1.391 . S
C523 H511 0.950 . S
C523 C519 1.393 . S
C523 C522 1.391 . S
H524 C532 0.950 . S
H525 C537 0.950 . S
H526 C534 0.950 . S
H527 C536 0.950 . S
H528 C538 0.950 . S
H529 C540 0.950 . S
H530 C542 0.950 . S
H531 C543 0.950 . S
C532 H524 0.950 . S
C532 C533 1.386 . S
C532 C534 1.391 . S
C533 C532 1.386 . S
C533 C537 1.393 . S
C534 H526 0.950 . S
C534 C532 1.391 . S
C534 C535 1.400 . S
C535 C534 1.400 . S
C535 C536 1.398 . S
C535 C541 1.491 . S
C536 H527 0.950 . S
C536 C535 1.398 . S
C536 C537 1.391 . S
C537 H525 0.950 . S
C537 C533 1.393 . S
C537 C536 1.391 . S
C538 H528 0.950 . S
C538 C539 1.386 . S
C538 C540 1.391 . S
C539 C538 1.386 . S
C539 C543 1.393 . S
C540 H529 0.950 . S
C540 C538 1.391 . S
C540 C541 1.400 . S
C541 C535 1.491 . S
C541 C540 1.400 . S
C541 C542 1.398 . S
C542 H530 0.950 . S
C542 C541 1.398 . S
C542 C543 1.391 . S
C543 H531 0.950 . S
C543 C539 1.393 . S
C543 C542 1.391 . S
H544 C552 0.950 . S
H545 C557 0.950 . S
H546 C554 0.950 . S
H547 C556 0.950 . S
H548 C558 0.950 . S
H549 C560 0.950 . S
H550 C562 0.950 . S
H551 C563 0.950 . S
C552 H544 0.950 . S
C552 C553 1.386 . S
C552 C554 1.391 . S
C553 C552 1.386 . S
C553 C557 1.393 . S
C554 H546 0.950 . S
C554 C552 1.391 . S
C554 C555 1.400 . S
C555 C554 1.400 . S
C555 C556 1.398 . S
C555 C561 1.491 . S
C556 H547 0.950 . S
C556 C555 1.398 . S
C556 C557 1.391 . S
C557 H545 0.950 . S
C557 C553 1.393 . S
C557 C556 1.391 . S
C558 H548 0.950 . S
C558 C559 1.386 . S
C558 C560 1.391 . S
C559 C558 1.386 . S
C559 C563 1.393 . S
C560 H549 0.950 . S
C560 C558 1.391 . S
C560 C561 1.400 . S
C561 C555 1.491 . S
C561 C560 1.400 . S
C561 C562 1.398 . S
C562 H550 0.950 . S
C562 C561 1.398 . S
C562 C563 1.391 . S
C563 H551 0.950 . S
C563 C559 1.393 . S
C563 C562 1.391 . S
H564 C572 0.950 . S
H565 C577 0.950 . S
H566 C574 0.950 . S
H567 C576 0.950 . S
H568 C578 0.950 . S
H569 C580 0.950 . S
H570 C582 0.950 . S
H571 C583 0.950 . S
C572 H564 0.950 . S
C572 C573 1.386 . S
C572 C574 1.391 . S
C573 C572 1.386 . S
C573 C577 1.393 . S
C574 H566 0.950 . S
C574 C572 1.391 . S
C574 C575 1.400 . S
C575 C574 1.400 . S
C575 C576 1.398 . S
C575 C581 1.491 . S
C576 H567 0.950 . S
C576 C575 1.398 . S
C576 C577 1.391 . S
C577 H565 0.950 . S
C577 C573 1.393 . S
C577 C576 1.391 . S
C578 H568 0.950 . S
C578 C579 1.386 . S
C578 C580 1.391 . S
C579 C578 1.386 . S
C579 C583 1.393 . S
C580 H569 0.950 . S
C580 C578 1.391 . S
C580 C581 1.400 . S
C581 C575 1.491 . S
C581 C580 1.400 . S
C581 C582 1.398 . S
C582 H570 0.950 . S
C582 C581 1.398 . S
C582 C583 1.391 . S
C583 H571 0.950 . S
C583 C579 1.393 . S
C583 C582 1.391 . S
H584 C592 0.950 . S
H585 C597 0.950 . S
H586 C594 0.950 . S
H587 C596 0.950 . S
H588 C598 0.950 . S
H589 C600 0.950 . S
H590 C602 0.950 . S
H591 C603 0.950 . S
C592 H584 0.950 . S
C592 C593 1.386 . S
C592 C594 1.391 . S
C593 C592 1.386 . S
C593 C597 1.393 . S
C594 H586 0.950 . S
C594 C592 1.391 . S
C594 C595 1.400 . S
C595 C594 1.400 . S
C595 C596 1.398 . S
C595 C601 1.491 . S
C596 H587 0.950 . S
C596 C595 1.398 . S
C596 C597 1.391 . S
C597 H585 0.950 . S
C597 C593 1.393 . S
C597 C596 1.391 . S
C598 H588 0.950 . S
C598 C599 1.386 . S
C598 C600 1.391 . S
C599 C598 1.386 . S
C599 C603 1.393 . S
C600 H589 0.950 . S
C600 C598 1.391 . S
C600 C601 1.400 . S
C601 C595 1.491 . S
C601 C600 1.400 . S
C601 C602 1.398 . S
C602 H590 0.950 . S
C602 C601 1.398 . S
C602 C603 1.391 . S
C603 H591 0.950 . S
C603 C599 1.393 . S
C603 C602 1.391 . S
H604 C612 0.950 . S
H605 C617 0.950 . S
H606 C614 0.950 . S
H607 C616 0.950 . S
H608 C618 0.950 . S
H609 C620 0.950 . S
H610 C622 0.950 . S
H611 C623 0.950 . S
C612 H604 0.950 . S
C612 C613 1.386 . S
C612 C614 1.391 . S
C613 C612 1.386 . S
C613 C617 1.393 . S
C614 H606 0.950 . S
C614 C612 1.391 . S
C614 C615 1.400 . S
C615 C614 1.400 . S
C615 C616 1.398 . S
C615 C621 1.491 . S
C616 H607 0.950 . S
C616 C615 1.398 . S
C616 C617 1.391 . S
C617 H605 0.950 . S
C617 C613 1.393 . S
C617 C616 1.391 . S
C618 H608 0.950 . S
C618 C619 1.386 . S
C618 C620 1.391 . S
C619 C618 1.386 . S
C619 C623 1.393 . S
C620 H609 0.950 . S
C620 C618 1.391 . S
C620 C621 1.400 . S
C621 C615 1.491 . S
C621 C620 1.400 . S
C621 C622 1.398 . S
C622 H610 0.950 . S
C622 C621 1.398 . S
C622 C623 1.391 . S
C623 H611 0.950 . S
C623 C619 1.393 . S
C623 C622 1.391 . S
H624 C632 0.950 . S
H625 C637 0.950 . S
H626 C634 0.950 . S
H627 C636 0.950 . S
H628 C638 0.950 . S
H629 C640 0.950 . S
H630 C642 0.950 . S
H631 C643 0.950 . S
C632 H624 0.950 . S
C632 C633 1.386 . S
C632 C634 1.391 . S
C633 C632 1.386 . S
C633 C637 1.393 . S
C634 H626 0.950 . S
C634 C632 1.391 . S
C634 C635 1.400 . S
C635 C634 1.400 . S
C635 C636 1.398 . S
C635 C641 1.491 . S
C636 H627 0.950 . S
C636 C635 1.398 . S
C636 C637 1.391 . S
C637 H625 0.950 . S
C637 C633 1.393 . S
C637 C636 1.391 . S
C638 H628 0.950 . S
C638 C639 1.386 . S
C638 C640 1.391 . S
C639 C638 1.386 . S
C639 C643 1.393 . S
C640 H629 0.950 . S
C640 C638 1.391 . S
C640 C641 1.400 . S
C641 C635 1.491 . S
C641 C640 1.400 . S
C641 C642 1.398 . S
C642 H630 0.950 . S
C642 C641 1.398 . S
C642 C643 1.391 . S
C643 H631 0.950 . S
C643 C639 1.393 . S
C643 C642 1.391 . S
H644 C652 0.950 . S
H645 C657 0.950 . S
H646 C654 0.950 . S
H647 C656 0.950 . S
H648 C658 0.950 . S
H649 C660 0.950 . S
H650 C662 0.950 . S
H651 C663 0.950 . S
C652 H644 0.950 . S
C652 C653 1.386 . S
C652 C654 1.391 . S
C653 C652 1.386 . S
C653 C657 1.393 . S
C654 H646 0.950 . S
C654 C652 1.391 . S
C654 C655 1.400 . S
C655 C654 1.400 . S
C655 C656 1.398 . S
C655 C661 1.491 . S
C656 H647 0.950 . S
C656 C655 1.398 . S
C656 C657 1.391 . S
C657 H645 0.950 . S
C657 C653 1.393 . S
C657 C656 1.391 . S
C658 H648 0.950 . S
C658 C659 1.386 . S
C658 C660 1.391 . S
C659 C658 1.386 . S
C659 C663 1.393 . S
C660 H649 0.950 . S
C660 C658 1.391 . S
C660 C661 1.400 . S
C661 C655 1.491 . S
C661 C660 1.400 . S
C661 C662 1.398 . S
C662 H650 0.950 . S
C662 C661 1.398 . S
C662 C663 1.391 . S
C663 H651 0.950 . S
C663 C659 1.393 . S
C663 C662 1.391 . S
H664 C672 0.950 . S
H665 C677 0.950 . S
H666 C674 0.950 . S
H667 C676 0.950 . S
H668 C678 0.950 . S
H669 C680 0.950 . S
H670 C682 0.950 . S
H671 C683 0.950 . S
C672 H664 0.950 . S
C672 C673 1.386 . S
C672 C674 1.391 . S
C673 C672 1.386 . S
C673 C677 1.393 . S
C674 H666 0.950 . S
C674 C672 1.391 . S
C674 C675 1.400 . S
C675 C674 1.400 . S
C675 C676 1.398 . S
C675 C681 1.491 . S
C676 H667 0.950 . S
C676 C675 1.398 . S
C676 C677 1.391 . S
C677 H665 0.950 . S
C677 C673 1.393 . S
C677 C676 1.391 . S
C678 H668 0.950 . S
C678 C679 1.386 . S
C678 C680 1.391 . S
C679 C678 1.386 . S
C679 C683 1.393 . S
C680 H669 0.950 . S
C680 C678 1.391 . S
C680 C681 1.400 . S
C681 C675 1.491 . S
C681 C680 1.400 . S
C681 C682 1.398 . S
C682 H670 0.950 . S
C682 C681 1.398 . S
C682 C683 1.391 . S
C683 H671 0.950 . S
C683 C679 1.393 . S
C683 C682 1.391 . S
H684 C692 0.950 . S
H685 C697 0.950 . S
H686 C694 0.950 . S
H687 C696 0.950 . S
H688 C698 0.950 . S
H689 C700 0.950 . S
H690 C702 0.950 . S
H691 C703 0.950 . S
C692 H684 0.950 . S
C692 C693 1.386 . S
C692 C694 1.391 . S
C693 C692 1.386 . S
C693 C697 1.393 . S
C694 H686 0.950 . S
C694 C692 1.391 . S
C694 C695 1.400 . S
C695 C694 1.400 . S
C695 C696 1.398 . S
C695 C701 1.491 . S
C696 H687 0.950 . S
C696 C695 1.398 . S
C696 C697 1.391 . S
C697 H685 0.950 . S
C697 C693 1.393 . S
C697 C696 1.391 . S
C698 H688 0.950 . S
C698 C699 1.386 . S
C698 C700 1.391 . S
C699 C698 1.386 . S
C699 C703 1.393 . S
C700 H689 0.950 . S
C700 C698 1.391 . S
C700 C701 1.400 . S
C701 C695 1.491 . S
C701 C700 1.400 . S
C701 C702 1.398 . S
C702 H690 0.950 . S
C702 C701 1.398 . S
C702 C703 1.391 . S
C703 H691 0.950 . S
C703 C699 1.393 . S
C703 C702 1.391 . S
H704 C712 0.950 . S
H705 C717 0.950 . S
H706 C714 0.950 . S
H707 C716 0.950 . S
H708 C718 0.950 . S
H709 C720 0.950 . S
H710 C722 0.950 . S
H711 C723 0.950 . S
C712 H704 0.950 . S
C712 C713 1.386 . S
C712 C714 1.391 . S
C713 C712 1.386 . S
C713 C717 1.393 . S
C714 H706 0.950 . S
C714 C712 1.391 . S
C714 C715 1.400 . S
C715 C714 1.400 . S
C715 C716 1.398 . S
C715 C721 1.491 . S
C716 H707 0.950 . S
C716 C715 1.398 . S
C716 C717 1.391 . S
C717 H705 0.950 . S
C717 C713 1.393 . S
C717 C716 1.391 . S
C718 H708 0.950 . S
C718 C719 1.386 . S
C718 C720 1.391 . S
C719 C718 1.386 . S
C719 C723 1.393 . S
C720 H709 0.950 . S
C720 C718 1.391 . S
C720 C721 1.400 . S
C721 C715 1.491 . S
C721 C720 1.400 . S
C721 C722 1.398 . S
C722 H710 0.950 . S
C722 C721 1.398 . S
C722 C723 1.391 . S
C723 H711 0.950 . S
C723 C719 1.393 . S
C723 C722 1.391 . S
H724 C732 0.950 . S
H725 C737 0.950 . S
H726 C734 0.950 . S
H727 C736 0.950 . S
H728 C738 0.950 . S
H729 C740 0.950 . S
H730 C742 0.950 . S
H731 C743 0.950 . S
C732 H724 0.950 . S
C732 C733 1.386 . S
C732 C734 1.391 . S
C733 C732 1.386 . S
C733 C737 1.393 . S
C734 H726 0.950 . S
C734 C732 1.391 . S
C734 C735 1.400 . S
C735 C734 1.400 . S
C735 C736 1.398 . S
C735 C741 1.491 . S
C736 H727 0.950 . S
C736 C735 1.398 . S
C736 C737 1.391 . S
C737 H725 0.950 . S
C737 C733 1.393 . S
C737 C736 1.391 . S
C738 H728 0.950 . S
C738 C739 1.386 . S
C738 C740 1.391 . S
C739 C738 1.386 . S
C739 C743 1.393 . S
C740 H729 0.950 . S
C740 C738 1.391 . S
C740 C741 1.400 . S
C741 C735 1.491 . S
C741 C740 1.400 . S
C741 C742 1.398 . S
C742 H730 0.950 . S
C742 C741 1.398 . S
C742 C743 1.391 . S
C743 H731 0.950 . S
C743 C739 1.393 . S
C743 C742 1.391 . S
C273 C9 1.431 . S
C279 C110 1.468 . S
C293 C21 1.110 . S
C299 C159 1.111 . S
C319 C194 2.201 . S
C313 C30 2.210 . S
C333 C43 2.184 . S
C339 C233 2.253 1_655 S
C359 C154 2.098 . S
C353 C4 1.822 . S
C379 C113 1.519 . S
C373 C22 1.576 . S
C399 C243 1.560 1_556 S
C393 C34 1.617 . S
C419 C202 1.531 . S
C413 C48 1.561 . S
C433 C8 1.548 . S
C439 C230 1.608 . S
C459 C162 2.272 . S
C453 C35 2.346 . S
C473 C47 2.570 . S
C479 C123 2.568 . S
C493 C17 0.826 . S
C499 C199 0.835 . S
C519 C119 1.023 . S
C513 C60 0.998 . S
C533 C74 1.109 . S
C539 C150 1.094 . S
C553 C82 1.947 . S
C559 C203 1.981 . S
C573 C100 2.756 . S
C579 C242 2.682 . S
C593 C61 2.420 . S
C599 C163 2.530 . S
C619 C122 0.777 . S
C613 C73 0.773 . S
C639 C234 2.147 . S
C633 C87 2.199 . S
C659 C193 1.309 . S
C653 C95 1.288 . S
C673 C56 1.500 . S
C679 C239 1.496 . S
C699 C153 2.474 . S
C693 C86 2.536 . S
C719 C114 2.359 . S
C713 C99 2.366 . S
C733 C69 0.686 . S
C739 C190 0.707 . S
