# Generated by pormake.
# Topology hwx, (6,3)-cn, num edge types: 1
# Building blocks:
#     Node 0, Type 0, BuildingBlock: OJICUG_clean_sbu_0, # of connection points: 6
#     Node 1, Type 0, BuildingBlock: OJICUG_clean_sbu_0, # of connection points: 6
#     Node 2, Type 0, BuildingBlock: OJICUG_clean_sbu_0, # of connection points: 6
#     Node 3, Type 0, BuildingBlock: OJICUG_clean_sbu_0, # of connection points: 6
#     Node 4, Type 1, BuildingBlock: BETDIP_clean_linker_0, # of connection points: 3
#     Node 5, Type 1, BuildingBlock: BETDIP_clean_linker_0, # of connection points: 3
#     Node 6, Type 1, BuildingBlock: BETDIP_clean_linker_0, # of connection points: 3
#     Node 7, Type 1, BuildingBlock: BETDIP_clean_linker_0, # of connection points: 3
#     Node 8, Type 1, BuildingBlock: BETDIP_clean_linker_0, # of connection points: 3
#     Node 9, Type 1, BuildingBlock: BETDIP_clean_linker_0, # of connection points: 3
#     Node 10, Type 1, BuildingBlock: BETDIP_clean_linker_0, # of connection points: 3
#     Node 11, Type 1, BuildingBlock: BETDIP_clean_linker_0, # of connection points: 3
#     Edge 12, Type (0, 1), BuildingBlock: TEMPAE_clean_linker_10, # of connection points: 2
#     Edge 13, Type (0, 1), BuildingBlock: TEMPAE_clean_linker_10, # of connection points: 2
#     Edge 14, Type (0, 1), BuildingBlock: TEMPAE_clean_linker_10, # of connection points: 2
#     Edge 15, Type (0, 1), BuildingBlock: TEMPAE_clean_linker_10, # of connection points: 2
#     Edge 16, Type (0, 1), BuildingBlock: TEMPAE_clean_linker_10, # of connection points: 2
#     Edge 17, Type (0, 1), BuildingBlock: TEMPAE_clean_linker_10, # of connection points: 2
#     Edge 18, Type (0, 1), BuildingBlock: TEMPAE_clean_linker_10, # of connection points: 2
#     Edge 19, Type (0, 1), BuildingBlock: TEMPAE_clean_linker_10, # of connection points: 2
#     Edge 20, Type (0, 1), BuildingBlock: TEMPAE_clean_linker_10, # of connection points: 2
#     Edge 21, Type (0, 1), BuildingBlock: TEMPAE_clean_linker_10, # of connection points: 2
#     Edge 22, Type (0, 1), BuildingBlock: TEMPAE_clean_linker_10, # of connection points: 2
#     Edge 23, Type (0, 1), BuildingBlock: TEMPAE_clean_linker_10, # of connection points: 2
#     Edge 24, Type (0, 1), BuildingBlock: TEMPAE_clean_linker_10, # of connection points: 2
#     Edge 25, Type (0, 1), BuildingBlock: TEMPAE_clean_linker_10, # of connection points: 2
#     Edge 26, Type (0, 1), BuildingBlock: TEMPAE_clean_linker_10, # of connection points: 2
#     Edge 27, Type (0, 1), BuildingBlock: TEMPAE_clean_linker_10, # of connection points: 2
#     Edge 28, Type (0, 1), BuildingBlock: TEMPAE_clean_linker_10, # of connection points: 2
#     Edge 29, Type (0, 1), BuildingBlock: TEMPAE_clean_linker_10, # of connection points: 2
#     Edge 30, Type (0, 1), BuildingBlock: TEMPAE_clean_linker_10, # of connection points: 2
#     Edge 31, Type (0, 1), BuildingBlock: TEMPAE_clean_linker_10, # of connection points: 2
#     Edge 32, Type (0, 1), BuildingBlock: TEMPAE_clean_linker_10, # of connection points: 2
#     Edge 33, Type (0, 1), BuildingBlock: TEMPAE_clean_linker_10, # of connection points: 2
#     Edge 34, Type (0, 1), BuildingBlock: TEMPAE_clean_linker_10, # of connection points: 2
#     Edge 35, Type (0, 1), BuildingBlock: TEMPAE_clean_linker_10, # of connection points: 2
# Relax obj value: 0.006
# Max RMSD: 0.045
# Mean RMSD: 0.041
data_MOF--net-hwx--node1-OJICUG_clean_sbu_0--node2-BETDIP_clean_linker_0--edge1-TEMPAE_clean_linker_10
_symmetry_space_group_name_H-M    P1
_symmetry_Int_Tables_number       1
_symmetry_cell_setting            triclinic
loop_
_symmetry_equiv_pos_as_xyz
'x, y, z'
_cell_length_a     53.547254
_cell_length_b     53.545089
_cell_length_c     20.475171
_cell_angle_alpha  91.616753
_cell_angle_beta   91.668159
_cell_angle_gamma 89.986675
loop_
_atom_site_label
_atom_site_type_symbol
_atom_site_fract_x
_atom_site_fract_y
_atom_site_fract_z
_atom_type_partial_charge
Sc0 Sc 0.2148 0.21555 0.07875 0.0
Sc1 Sc 0.17343 0.17697 0.9848 0.0
Sc2 Sc 0.21544 0.21596 0.90637 0.0
O3 O 0.20127 0.20284 0.98997 0.0
C4 C 0.21302 0.26539 -0.00258 0.0
C5 C 0.15622 0.21239 0.10251 0.0
C6 C 0.15696 0.2134 0.87087 0.0
C7 C 0.20788 0.15731 0.10197 0.0
C8 C 0.26461 0.21108 -0.00252 0.0
C9 C 0.20873 0.15786 0.87105 0.0
O10 O 0.21341 0.25391 0.0509 0.0
O11 O 0.15178 0.19651 0.05644 0.0
O12 O 0.17885 0.22163 0.86198 0.0
O13 O 0.21785 0.17841 0.11599 0.0
O14 O 0.25363 0.21182 0.94162 0.0
O15 O 0.19206 0.15448 0.91276 0.0
O16 O 0.25306 0.21245 0.05078 0.0
O17 O 0.1914 0.15413 0.05665 0.0
O18 O 0.21859 0.17906 0.86223 0.0
O19 O 0.17804 0.22056 0.11686 0.0
O20 O 0.21373 0.25427 0.94176 0.0
O21 O 0.15236 0.19709 0.9127 0.0
Sc22 Sc 0.28631 0.716 0.40136 0.0
Sc23 Sc 0.32725 0.67505 0.48236 0.0
Sc24 Sc 0.28617 0.71308 0.57151 0.0
O25 O 0.29992 0.70134 0.48508 0.0
C26 C 0.28871 0.76397 0.49333 0.0
C27 C 0.3449 0.7115 0.37459 0.0
C28 C 0.34402 0.71012 0.60441 0.0
C29 C 0.29079 0.65872 0.36249 0.0
C30 C 0.23687 0.71034 0.48457 0.0
C31 C 0.29363 0.65433 0.59229 0.0
O32 O 0.29231 0.75361 0.43779 0.0
O33 O 0.34973 0.69704 0.42129 0.0
O34 O 0.3231 0.72101 0.61008 0.0
O35 O 0.27907 0.67931 0.36004 0.0
O36 O 0.2483 0.70625 0.53846 0.0
O37 O 0.30742 0.65064 0.54362 0.0
O38 O 0.2481 0.71623 0.43325 0.0
O39 O 0.30993 0.65523 0.39939 0.0
O40 O 0.2863 0.67598 0.61038 0.0
O41 O 0.32275 0.71804 0.35858 0.0
O42 O 0.28404 0.75168 0.54385 0.0
O43 O 0.3477 0.6918 0.56499 0.0
Sc44 Sc 0.78731 0.78735 0.92748 0.0
Sc45 Sc 0.82549 0.82587 0.03028 0.0
Sc46 Sc 0.78506 0.78248 0.09796 0.0
O47 O 0.79928 0.79856 0.01854 0.0
C48 C 0.73667 0.78691 0.00317 0.0
C49 C 0.79178 0.8468 0.91455 0.0
C50 C 0.7877 0.83937 0.14385 0.0
C51 C 0.84546 0.794 0.90812 0.0
C52 C 0.79088 0.7355 0.00227 0.0
C53 C 0.84314 0.78826 0.13848 0.0
O54 O 0.74873 0.79075 0.95191 0.0
O55 O 0.80563 0.85028 0.96543 0.0
O56 O 0.77679 0.81829 0.14251 0.0
O57 O 0.82484 0.78302 0.89443 0.0
O58 O 0.7918 0.74546 0.0594 0.0
O59 O 0.84781 0.80403 0.09541 0.0
O60 O 0.78786 0.74811 0.9508 0.0
O61 O 0.8479 0.81077 0.953 0.0
O62 O 0.82118 0.78033 0.14816 0.0
O63 O 0.78506 0.82515 0.89359 0.0
O64 O 0.74725 0.78216 0.05786 0.0
O65 O 0.80654 0.84413 0.10998 0.0
Sc66 Sc 0.71789 0.28349 0.59949 0.0
Sc67 Sc 0.67439 0.32372 0.52372 0.0
Sc68 Sc 0.71437 0.28659 0.42781 0.0
O69 O 0.70223 0.29791 0.517 0.0
C70 C 0.76551 0.28994 0.51122 0.0
C71 C 0.71203 0.34104 0.63969 0.0
C72 C 0.70632 0.34523 0.4091 0.0
C73 C 0.66001 0.28617 0.63402 0.0
C74 C 0.71436 0.23535 0.50511 0.0
C75 C 0.65536 0.28936 0.40235 0.0
O76 O 0.75529 0.28659 0.56547 0.0
O77 O 0.69364 0.34492 0.60069 0.0
O78 O 0.71568 0.32419 0.39298 0.0
O79 O 0.68217 0.27824 0.64374 0.0
O80 O 0.71432 0.24764 0.45281 0.0
O81 O 0.65179 0.30523 0.44843 0.0
O82 O 0.71518 0.24564 0.56186 0.0
O83 O 0.65448 0.30238 0.59199 0.0
O84 O 0.67689 0.28099 0.38886 0.0
O85 O 0.72295 0.32007 0.64426 0.0
O86 O 0.75321 0.29106 0.4573 0.0
O87 O 0.69124 0.34796 0.45553 0.0
H88 H 0.23989 0.49093 0.86435 0.0
H89 H 0.22408 0.49821 0.06929 0.0
H90 H 0.25373 0.5604 0.96806 0.0
H91 H 0.19805 0.46399 0.04201 0.0
C92 C 0.21033 0.45347 0.01012 0.0
C93 C 0.23925 0.50223 0.90905 0.0
C94 C 0.24748 0.527 0.90979 0.0
C95 C 0.23075 0.49169 0.96618 0.0
C96 C 0.23019 0.50629 0.02462 0.0
C97 C 0.23814 0.53134 0.02546 0.0
C98 C 0.24693 0.54131 0.96784 0.0
N99 N 0.22468 0.46592 0.96383 0.0
H100 H 0.01086 0.73906 0.63795 0.0
H101 H 0.00746 0.73288 0.42724 0.0
H102 H 0.9455 0.76333 0.53103 0.0
H103 H 0.03774 0.70224 0.44677 0.0
C104 C 0.0488 0.71201 0.48478 0.0
C105 C 0.00074 0.74142 0.59192 0.0
C106 C 0.97689 0.7522 0.59131 0.0
C107 C 0.01186 0.73413 0.53317 0.0
C108 C 0.99887 0.73764 0.47315 0.0
C109 C 0.97507 0.74861 0.4724 0.0
C110 C 0.96421 0.75551 0.53154 0.0
N111 N 0.03682 0.72524 0.53612 0.0
H112 H 0.75673 0.51121 0.1383 0.0
H113 H 0.77406 0.50243 0.93452 0.0
H114 H 0.74396 0.44095 0.0374 0.0
H115 H 0.79988 0.5362 0.96061 0.0
C116 C 0.78782 0.54734 0.99168 0.0
C117 C 0.75767 0.49962 0.09418 0.0
C118 C 0.74958 0.47477 0.09434 0.0
C119 C 0.76656 0.50979 0.03684 0.0
C120 C 0.76761 0.49471 0.97929 0.0
C121 C 0.75981 0.46963 0.97934 0.0
C122 C 0.75061 0.46007 0.03699 0.0
N123 N 0.7728 0.53557 0.03792 0.0
H124 H 0.99533 0.27616 0.37407 0.0
H125 H 0.99406 0.27851 0.58483 0.0
H126 H 0.05803 0.24929 0.487 0.0
H127 H 0.96306 0.309 0.56431 0.0
C128 C 0.95338 0.29954 0.52335 0.0
C129 C 0.00449 0.27305 0.42106 0.0
C130 C 0.02817 0.26201 0.42387 0.0
C131 C 0.99209 0.27932 0.47865 0.0
C132 C 0.00369 0.27461 0.53992 0.0
C133 C 0.02738 0.26336 0.54277 0.0
C134 C 0.03951 0.25752 0.48473 0.0
N135 N 0.96712 0.28797 0.47261 0.0
H136 H 0.73205 0.01059 0.63387 0.0
H137 H 0.72153 0.99853 0.42597 0.0
H138 H 0.75142 0.94004 0.54497 0.0
H139 H 0.73773 0.0399 0.43255 0.0
C140 C 0.72604 0.04787 0.47032 0.0
C141 C 0.733 0.99844 0.59077 0.0
C142 C 0.74222 0.97409 0.59615 0.0
C143 C 0.72652 0.00767 0.52909 0.0
C144 C 0.72756 0.99175 0.47317 0.0
C145 C 0.73601 0.967 0.47848 0.0
C146 C 0.7438 0.95868 0.54013 0.0
N147 N 0.71982 0.03322 0.5243 0.0
H148 H 0.49876 0.22605 0.89457 0.0
H149 H 0.49105 0.22637 0.1038 0.0
H150 H 0.559 0.25198 0.02206 0.0
H151 H 0.46147 0.19416 0.07209 0.0
C152 C 0.45251 0.20422 0.03246 0.0
C153 C 0.50663 0.2294 0.94341 0.0
C154 C 0.53068 0.2395 0.9519 0.0
C155 C 0.49228 0.22429 -0.00227 0.0
C156 C 0.50218 0.22936 0.06139 0.0
C157 C 0.52613 0.23979 0.06989 0.0
C158 C 0.54028 0.24439 0.01517 0.0
N159 N 0.46722 0.21634 0.98634 0.0
H160 H 0.26176 0.99274 0.3734 0.0
H161 H 0.26412 0.99231 0.58419 0.0
H162 H 0.23559 0.0562 0.48455 0.0
H163 H 0.29511 0.9621 0.56459 0.0
C164 C 0.28591 0.9519 0.52407 0.0
C165 C 0.25858 0.00206 0.42011 0.0
C166 C 0.24782 0.02589 0.4222 0.0
C167 C 0.26478 0.98987 0.4781 0.0
C168 C 0.26017 0.00175 0.53898 0.0
C169 C 0.24916 0.02553 0.5412 0.0
C170 C 0.24339 0.03749 0.48278 0.0
N171 N 0.27368 0.96498 0.47304 0.0
H172 H 0.50777 0.77366 0.10773 0.0
H173 H 0.50154 0.781 0.89875 0.0
H174 H 0.43915 0.75473 0.00502 0.0
H175 H 0.54222 0.76566 0.91073 0.0
C176 C 0.54949 0.77707 0.95171 0.0
C177 C 0.49674 0.77242 0.06252 0.0
C178 C 0.47205 0.76387 0.06284 0.0
C179 C 0.50778 0.77774 0.00317 0.0
C180 C 0.49339 0.77606 0.9444 0.0
C181 C 0.46836 0.76825 0.94474 0.0
C182 C 0.4581 0.76184 0.00418 0.0
N183 N 0.53359 0.78378 0.00369 0.0
C184 C 0.11032 0.21688 0.11986 0.0
C185 C 0.13506 0.22162 0.14131 0.0
C186 C 0.09014 0.22461 0.15761 0.0
C187 C 0.09486 0.23712 0.21844 0.0
C188 C 0.11972 0.2427 0.23933 0.0
C189 C 0.13952 0.23498 0.20038 0.0
C190 C 0.06384 0.21864 0.13347 0.0
C191 C 0.12549 0.25594 0.30417 0.0
C192 C 0.04589 0.27172 0.31578 0.0
C193 C 0.04137 0.25445 0.36416 0.0
C194 C 0.06225 0.26585 0.26521 0.0
C195 C 0.0742 0.24225 0.26356 0.0
C196 C 0.06826 0.22419 0.3098 0.0
C197 C 0.05185 0.23052 0.35947 0.0
C198 C 0.06795 0.28543 0.21618 0.0
C199 C 0.08048 0.19876 0.30954 0.0
H200 H 0.10667 0.20689 0.07379 0.0
H201 H 0.15854 0.23883 0.21722 0.0
H202 H 0.05572 0.20422 0.16445 0.0
H203 H 0.05183 0.23546 0.13738 0.0
H204 H 0.06321 0.21154 0.08193 0.0
H205 H 0.14569 0.26026 0.31132 0.0
H206 H 0.11479 0.27363 0.30791 0.0
H207 H 0.11968 0.24405 0.34459 0.0
H208 H 0.03775 0.29023 0.31956 0.0
H209 H 0.048 0.21707 0.3965 0.0
H210 H 0.06763 0.27715 0.16588 0.0
H211 H 0.087 0.29297 0.22646 0.0
H212 H 0.05447 0.3012 0.21807 0.0
H213 H 0.07874 0.1897 0.26024 0.0
H214 H 0.07221 0.1862 0.34539 0.0
H215 H 0.10072 0.20085 0.32174 0.0
C216 C 0.27123 0.6359 0.68495 0.0
C217 C 0.28607 0.63253 0.63009 0.0
C218 C 0.2649 0.61566 0.72304 0.0
C219 C 0.27357 0.59145 0.70584 0.0
C220 C 0.28782 0.58772 0.64937 0.0
C221 C 0.29395 0.60832 0.61215 0.0
C222 C 0.24958 0.62037 0.783 0.0
C223 C 0.29726 0.56212 0.62949 0.0
C224 C 0.27953 0.55112 0.85328 0.0
C225 C 0.25652 0.53867 0.85054 0.0
C226 C 0.28615 0.56707 0.8037 0.0
C227 C 0.26926 0.57062 0.75034 0.0
C228 C 0.2469 0.55649 0.74471 0.0
C229 C 0.24077 0.54057 0.79514 0.0
C230 C 0.31028 0.58161 0.81123 0.0
C231 C 0.22855 0.55966 0.68821 0.0
H232 H 0.26487 0.65445 0.699 0.0
H233 H 0.30526 0.60545 0.56954 0.0
H234 H 0.23298 0.60795 0.78154 0.0
H235 H 0.26088 0.61598 0.82751 0.0
H236 H 0.24314 0.64005 0.78753 0.0
H237 H 0.30595 0.56195 0.58087 0.0
H238 H 0.31137 0.55581 0.66619 0.0
H239 H 0.28175 0.54835 0.62813 0.0
H240 H 0.29175 0.5494 0.8961 0.0
H241 H 0.22293 0.53095 0.79335 0.0
H242 H 0.30606 0.60155 0.8224 0.0
H243 H 0.32062 0.58079 0.76507 0.0
H244 H 0.3226 0.57451 0.85116 0.0
H245 H 0.21878 0.57783 0.6942 0.0
H246 H 0.2143 0.54456 0.6854 0.0
H247 H 0.23836 0.55992 0.64126 0.0
C248 C 0.86009 0.76775 0.23887 0.0
C249 C 0.8643 0.77906 0.17928 0.0
C250 C 0.88014 0.76076 0.28004 0.0
C251 C 0.90496 0.76493 0.26074 0.0
C252 C 0.90933 0.77508 0.19912 0.0
C253 C 0.88895 0.78218 0.1593 0.0
C254 C 0.87474 0.75009 0.34566 0.0
C255 C 0.93552 0.77945 0.17643 0.0
C256 C 0.95045 0.77723 0.40235 0.0
C257 C 0.96102 0.75357 0.41089 0.0
C258 C 0.93297 0.78139 0.35178 0.0
C259 C 0.92605 0.76141 0.30831 0.0
C260 C 0.93798 0.7379 0.31384 0.0
C261 C 0.9554 0.73422 0.36539 0.0
C262 C 0.92083 0.80679 0.34743 0.0
C263 C 0.93131 0.7163 0.26771 0.0
H264 H 0.84112 0.76516 0.2545 0.0
H265 H 0.89239 0.79051 0.11275 0.0
H266 H 0.88533 0.73252 0.35261 0.0
H267 H 0.88096 0.76349 0.38518 0.0
H268 H 0.85455 0.74621 0.35116 0.0
H269 H 0.93576 0.78435 0.12409 0.0
H270 H 0.94428 0.79496 0.20598 0.0
H271 H 0.94721 0.76259 0.18368 0.0
H272 H 0.95507 0.79225 0.43727 0.0
H273 H 0.96354 0.71591 0.37223 0.0
H274 H 0.90067 0.80524 0.35784 0.0
H275 H 0.92222 0.81392 0.29733 0.0
H276 H 0.92945 0.8207 0.38252 0.0
H277 H 0.91232 0.70947 0.2781 0.0
H278 H 0.94464 0.70052 0.2727 0.0
H279 H 0.93097 0.72235 0.21631 0.0
C280 C 0.74608 0.36986 0.67792 0.0
C281 C 0.72126 0.36194 0.68145 0.0
C282 C 0.75524 0.38962 0.71831 0.0
C283 C 0.73942 0.40081 0.76497 0.0
C284 C 0.71422 0.39289 0.76809 0.0
C285 C 0.70531 0.37382 0.72525 0.0
C286 C 0.78187 0.39822 0.71174 0.0
C287 C 0.69694 0.40383 0.81842 0.0
C288 C 0.76569 0.42781 0.92484 0.0
C289 C 0.75974 0.45323 0.9195 0.0
C290 C 0.7602 0.41065 0.87366 0.0
C291 C 0.74951 0.41926 0.81446 0.0
C292 C 0.746 0.44521 0.80613 0.0
C293 C 0.75084 0.46192 0.85918 0.0
C294 C 0.76394 0.38313 0.88509 0.0
C295 C 0.73565 0.45517 0.74267 0.0
H296 H 0.75823 0.36072 0.64315 0.0
H297 H 0.68611 0.36753 0.7276 0.0
H298 H 0.78259 0.41888 0.70899 0.0
H299 H 0.79319 0.39297 0.75542 0.0
H300 H 0.7906 0.38985 0.6677 0.0
H301 H 0.67789 0.39563 0.81413 0.0
H302 H 0.70472 0.4005 0.86827 0.0
H303 H 0.69542 0.42433 0.8132 0.0
H304 H 0.77335 0.42108 0.97066 0.0
H305 H 0.74629 0.48152 0.8544 0.0
H306 H 0.77475 0.37432 0.84526 0.0
H307 H 0.74549 0.37367 0.88498 0.0
H308 H 0.77383 0.37967 0.93243 0.0
H309 H 0.74448 0.44568 0.70034 0.0
H310 H 0.73859 0.47564 0.73971 0.0
H311 H 0.71529 0.45141 0.7385 0.0
C312 C 0.60918 0.28312 0.38612 0.0
C313 C 0.63346 0.28024 0.36277 0.0
C314 C 0.58823 0.27521 0.34818 0.0
C315 C 0.59164 0.2646 0.28505 0.0
C316 C 0.61612 0.26105 0.26195 0.0
C317 C 0.63671 0.26874 0.30127 0.0
C318 C 0.56247 0.27887 0.37489 0.0
C319 C 0.62055 0.25 0.19456 0.0
C320 C 0.54337 0.22901 0.18017 0.0
C321 C 0.53689 0.24712 0.13475 0.0
C322 C 0.55978 0.2349 0.23326 0.0
C323 C 0.56987 0.25935 0.24013 0.0
C324 C 0.5615 0.27815 0.19751 0.0
C325 C 0.54504 0.27179 0.14542 0.0
C326 C 0.56788 0.2145 0.27856 0.0
C327 C 0.57172 0.30445 0.20301 0.0
H328 H 0.60651 0.29164 0.43407 0.0
H329 H 0.65538 0.26639 0.28294 0.0
H330 H 0.5525 0.29363 0.34756 0.0
H331 H 0.55134 0.26146 0.36821 0.0
H332 H 0.56313 0.28442 0.42761 0.0
H333 H 0.64073 0.24746 0.18513 0.0
H334 H 0.61112 0.23161 0.18834 0.0
H335 H 0.6124 0.2624 0.15702 0.0
H336 H 0.53711 0.20991 0.17155 0.0
H337 H 0.53989 0.28575 0.11008 0.0
H338 H 0.56877 0.22155 0.33005 0.0
H339 H 0.58688 0.20808 0.26595 0.0
H340 H 0.55506 0.19818 0.27461 0.0
H341 H 0.57107 0.31176 0.25413 0.0
H342 H 0.56123 0.31742 0.17088 0.0
H343 H 0.59158 0.30437 0.18891 0.0
C344 C 0.21247 0.11167 0.85185 0.0
C345 C 0.21696 0.13603 0.83128 0.0
C346 C 0.21921 0.09077 0.81343 0.0
C347 C 0.2303 0.09435 0.75257 0.0
C348 C 0.23561 0.11885 0.73252 0.0
C349 C 0.22903 0.13939 0.77237 0.0
C350 C 0.21369 0.06493 0.83694 0.0
C351 C 0.24723 0.12343 0.66758 0.0
C352 C 0.2618 0.0436 0.65131 0.0
C353 C 0.24315 0.03853 0.60342 0.0
C354 C 0.25744 0.06067 0.70317 0.0
C355 C 0.23399 0.07285 0.70646 0.0
C356 C 0.21457 0.06625 0.6609 0.0
C357 C 0.21938 0.04907 0.61014 0.0
C358 C 0.27842 0.06691 0.75168 0.0
C359 C 0.18927 0.0787 0.6627 0.0
H360 H 0.20353 0.1089 0.89792 0.0
H361 H 0.23263 0.15814 0.75629 0.0
H362 H 0.19833 0.05641 0.80635 0.0
H363 H 0.23029 0.0527 0.83191 0.0
H364 H 0.20805 0.06524 0.88875 0.0
H365 H 0.25148 0.14349 0.66096 0.0
H366 H 0.26477 0.11257 0.66312 0.0
H367 H 0.23429 0.11696 0.62726 0.0
H368 H 0.2802 0.03546 0.64596 0.0
H369 H 0.20489 0.04486 0.57335 0.0
H370 H 0.27148 0.06772 0.80223 0.0
H371 H 0.28608 0.0856 0.74145 0.0
H372 H 0.29384 0.05307 0.74902 0.0
H373 H 0.18156 0.07784 0.71227 0.0
H374 H 0.17564 0.06996 0.62704 0.0
H375 H 0.1912 0.09873 0.65119 0.0
C376 C 0.36166 0.73343 0.27873 0.0
C377 C 0.36604 0.72101 0.33734 0.0
C378 C 0.38156 0.74149 0.24162 0.0
C379 C 0.40645 0.7372 0.26388 0.0
C380 C 0.41104 0.72557 0.32416 0.0
C381 C 0.39078 0.71751 0.36006 0.0
C382 C 0.37593 0.75379 0.17733 0.0
C383 C 0.43732 0.72091 0.34969 0.0
C384 C 0.45104 0.73144 0.12506 0.0
C385 C 0.46036 0.75582 0.123 0.0
C386 C 0.43464 0.72469 0.17346 0.0
C387 C 0.42741 0.74284 0.2208 0.0
C388 C 0.43831 0.76698 0.2219 0.0
C389 C 0.45474 0.77323 0.17264 0.0
C390 C 0.4236 0.69871 0.17076 0.0
C391 C 0.43123 0.78671 0.27209 0.0
H392 H 0.34266 0.73634 0.26092 0.0
H393 H 0.3944 0.70824 0.40577 0.0
H394 H 0.38583 0.77194 0.17577 0.0
H395 H 0.38279 0.74179 0.13656 0.0
H396 H 0.35563 0.75707 0.16887 0.0
H397 H 0.43771 0.7141 0.40046 0.0
H398 H 0.44645 0.70676 0.3178 0.0
H399 H 0.44859 0.73827 0.34855 0.0
H400 H 0.45551 0.71805 0.08639 0.0
H401 H 0.46188 0.79213 0.17047 0.0
H402 H 0.40349 0.69974 0.1564 0.0
H403 H 0.42493 0.69026 0.21957 0.0
H404 H 0.43304 0.68617 0.13507 0.0
H405 H 0.41203 0.79341 0.26076 0.0
H406 H 0.44412 0.80298 0.27271 0.0
H407 H 0.43123 0.77885 0.32165 0.0
C408 C 0.78799 0.89322 0.90222 0.0
C409 C 0.78332 0.86885 0.87759 0.0
C410 C 0.78086 0.91416 0.86629 0.0
C411 C 0.769 0.91062 0.8041 0.0
C412 C 0.76363 0.88612 0.7798 0.0
C413 C 0.77076 0.86557 0.81687 0.0
C414 C 0.78663 0.94 0.89401 0.0
C415 C 0.75105 0.88153 0.71349 0.0
C416 C 0.73362 0.95924 0.7076 0.0
C417 C 0.75078 0.96398 0.65922 0.0
C418 C 0.73997 0.94338 0.75905 0.0
C419 C 0.76394 0.93213 0.76142 0.0
C420 C 0.78199 0.93884 0.71592 0.0
C421 C 0.77516 0.9547 0.66527 0.0
C422 C 0.72034 0.93695 0.80722 0.0
C423 C 0.80779 0.92742 0.7168 0.0
H424 H 0.79745 0.896 0.9494 0.0
H425 H 0.76694 0.84689 0.79744 0.0
H426 H 0.8012 0.94879 0.86481 0.0
H427 H 0.76979 0.95202 0.89091 0.0
H428 H 0.79342 0.93967 0.94578 0.0
H429 H 0.74718 0.86141 0.70303 0.0
H430 H 0.73316 0.89193 0.71031 0.0
H431 H 0.76314 0.88852 0.67483 0.0
H432 H 0.71473 0.96635 0.70248 0.0
H433 H 0.78837 0.95849 0.62763 0.0
H434 H 0.72852 0.93642 0.85756 0.0
H435 H 0.7127 0.9181 0.79467 0.0
H436 H 0.70464 0.95052 0.80651 0.0
H437 H 0.81618 0.92812 0.76697 0.0
H438 H 0.82053 0.93703 0.68375 0.0
H439 H 0.80644 0.90747 0.70086 0.0
C440 C 0.8648 0.77344 0.81088 0.0
C441 C 0.86764 0.78699 0.87021 0.0
C442 C 0.8855 0.76751 0.77315 0.0
C443 C 0.90967 0.77506 0.79564 0.0
C444 C 0.91281 0.78794 0.85655 0.0
C445 C 0.89172 0.79391 0.89298 0.0
C446 C 0.88137 0.75387 0.70811 0.0
C447 C 0.93834 0.79596 0.88242 0.0
C448 C 0.96094 0.74284 0.70151 0.0
C449 C 0.96446 0.75994 0.65211 0.0
C450 C 0.94438 0.74823 0.75197 0.0
C451 C 0.93116 0.77115 0.75237 0.0
C452 C 0.93632 0.78925 0.70559 0.0
C453 C 0.953 0.78343 0.65613 0.0
C454 C 0.93964 0.72866 0.80175 0.0
C455 C 0.92272 0.81397 0.70442 0.0
H456 H 0.84629 0.76797 0.79299 0.0
H457 H 0.89413 0.80409 0.93925 0.0
H458 H 0.88707 0.76599 0.66805 0.0
H459 H 0.8931 0.73682 0.70584 0.0
H460 H 0.86154 0.74838 0.69907 0.0
H461 H 0.9379 0.80338 0.9336 0.0
H462 H 0.95157 0.78003 0.88031 0.0
H463 H 0.94578 0.81072 0.85137 0.0
H464 H 0.96981 0.72466 0.69831 0.0
H465 H 0.95604 0.79677 0.61826 0.0
H466 H 0.92129 0.71966 0.79054 0.0
H467 H 0.93887 0.73727 0.85157 0.0
H468 H 0.95426 0.71392 0.80163 0.0
H469 H 0.90281 0.81072 0.69008 0.0
H470 H 0.93083 0.82695 0.66935 0.0
H471 H 0.92321 0.82312 0.7537 0.0
C472 C 0.70426 0.39134 0.38991 0.0
C473 C 0.71306 0.36748 0.37171 0.0
C474 C 0.70977 0.41232 0.35331 0.0
C475 C 0.72428 0.40936 0.29702 0.0
C476 C 0.73378 0.3855 0.2794 0.0
C477 C 0.72811 0.36489 0.31698 0.0
C478 C 0.6995 0.43752 0.3738 0.0
C479 C 0.74934 0.38155 0.21957 0.0
C480 C 0.71765 0.45029 0.15059 0.0
C481 C 0.7404 0.46323 0.15382 0.0
C482 C 0.71129 0.43398 0.19968 0.0
C483 C 0.72814 0.43059 0.25325 0.0
C484 C 0.75013 0.44528 0.25957 0.0
C485 C 0.75604 0.46152 0.20952 0.0
C486 C 0.68757 0.41884 0.19124 0.0
C487 C 0.7684 0.44238 0.31634 0.0
H488 H 0.6928 0.39363 0.43245 0.0
H489 H 0.73514 0.34663 0.3026 0.0
H490 H 0.71461 0.45172 0.37623 0.0
H491 H 0.6854 0.44364 0.33688 0.0
H492 H 0.69058 0.43714 0.42207 0.0
H493 H 0.75627 0.36206 0.21435 0.0
H494 H 0.73804 0.38595 0.17507 0.0
H495 H 0.76563 0.39438 0.22186 0.0
H496 H 0.70552 0.45182 0.10755 0.0
H497 H 0.77369 0.47147 0.21176 0.0
H498 H 0.67713 0.41909 0.23724 0.0
H499 H 0.69234 0.39909 0.17935 0.0
H500 H 0.67513 0.42585 0.15143 0.0
H501 H 0.75847 0.44158 0.36303 0.0
H502 H 0.78217 0.45792 0.31996 0.0
H503 H 0.77874 0.42456 0.30998 0.0
C504 C 0.11116 0.22063 0.8521 0.0
C505 C 0.13576 0.22326 0.83128 0.0
C506 C 0.09077 0.22897 0.81401 0.0
C507 C 0.09508 0.23981 0.75317 0.0
C508 C 0.11989 0.24326 0.73288 0.0
C509 C 0.13994 0.23511 0.77242 0.0
C510 C 0.06463 0.22539 0.83782 0.0
C511 C 0.12524 0.25456 0.66798 0.0
C512 C 0.04876 0.23209 0.61154 0.0
C513 C 0.03986 0.25652 0.60505 0.0
C514 C 0.06574 0.22612 0.66188 0.0
C515 C 0.07383 0.24504 0.70727 0.0
C516 C 0.06331 0.2693 0.70417 0.0
C517 C 0.0464 0.27481 0.65269 0.0
C518 C 0.0764 0.20001 0.6634 0.0
C519 C 0.07115 0.28981 0.75248 0.0
H520 H 0.10777 0.21189 0.89814 0.0
H521 H 0.15888 0.2373 0.75615 0.0
H522 H 0.05368 0.24288 0.83315 0.0
H523 H 0.05492 0.21076 0.80718 0.0
H524 H 0.06458 0.21968 0.88956 0.0
H525 H 0.14555 0.25734 0.6612 0.0
H526 H 0.11782 0.24214 0.62763 0.0
H527 H 0.11568 0.27284 0.66373 0.0
H528 H 0.0435 0.21794 0.57475 0.0
H529 H 0.03955 0.29373 0.64741 0.0
H530 H 0.07508 0.19237 0.71296 0.0
H531 H 0.09649 0.20054 0.65163 0.0
H532 H 0.06668 0.18703 0.62781 0.0
H533 H 0.0716 0.28288 0.80305 0.0
H534 H 0.05843 0.30619 0.75004 0.0
H535 H 0.0903 0.29611 0.74183 0.0
C536 C 0.25667 0.62942 0.32842 0.0
C537 C 0.28126 0.63764 0.32186 0.0
C538 C 0.24702 0.60964 0.28897 0.0
C539 C 0.26206 0.59872 0.24017 0.0
C540 C 0.28708 0.60684 0.23417 0.0
C541 C 0.29654 0.62595 0.27612 0.0
C542 C 0.22064 0.60082 0.29861 0.0
C543 C 0.30351 0.59616 0.18155 0.0
C544 C 0.24894 0.53815 0.1449 0.0
C545 C 0.23897 0.54725 0.0861 0.0
C546 C 0.25478 0.55454 0.19799 0.0
C547 C 0.25115 0.58056 0.19115 0.0
C548 C 0.23937 0.58954 0.13374 0.0
C549 C 0.23294 0.57269 0.08256 0.0
C550 C 0.26629 0.54419 0.25968 0.0
C551 C 0.23541 0.61714 0.12396 0.0
H552 H 0.24505 0.63839 0.36472 0.0
H553 H 0.31557 0.63246 0.27148 0.0
H554 H 0.20845 0.60645 0.25687 0.0
H555 H 0.22006 0.58012 0.30011 0.0
H556 H 0.21279 0.60874 0.34435 0.0
H557 H 0.3226 0.60432 0.18408 0.0
H558 H 0.30508 0.57562 0.1858 0.0
H559 H 0.29495 0.59979 0.1327 0.0
H560 H 0.25356 0.51851 0.1482 0.0
H561 H 0.22453 0.57971 0.0379 0.0
H562 H 0.25833 0.55347 0.30354 0.0
H563 H 0.28668 0.54785 0.26128 0.0
H564 H 0.26334 0.5237 0.26224 0.0
H565 H 0.22526 0.62566 0.16538 0.0
H566 H 0.22476 0.6209 0.07791 0.0
H567 H 0.25381 0.62664 0.12242 0.0
C568 C 0.37576 0.70486 0.69338 0.0
C569 C 0.36514 0.71959 0.64476 0.0
C570 C 0.39454 0.71455 0.73602 0.0
C571 C 0.40329 0.73925 0.72805 0.0
C572 C 0.39346 0.75366 0.67641 0.0
C573 C 0.37408 0.74378 0.63602 0.0
C574 C 0.40409 0.69883 0.79151 0.0
C575 C 0.40291 0.77969 0.665 0.0
C576 C 0.42732 0.77103 0.88437 0.0
C577 C 0.45286 0.76517 0.88368 0.0
C578 C 0.41111 0.76351 0.83275 0.0
C579 C 0.42082 0.75065 0.77782 0.0
C580 C 0.4469 0.74679 0.7739 0.0
C581 C 0.46264 0.75383 0.82737 0.0
C582 C 0.38338 0.76779 0.83925 0.0
C583 C 0.45801 0.73399 0.71491 0.0
H584 H 0.36864 0.68615 0.69971 0.0
H585 H 0.36583 0.75497 0.59767 0.0
H586 H 0.42471 0.69712 0.7903 0.0
H587 H 0.39953 0.70805 0.83891 0.0
H588 H 0.39585 0.67977 0.78966 0.0
H589 H 0.3959 0.78692 0.61756 0.0
H590 H 0.39675 0.79259 0.70468 0.0
H591 H 0.42364 0.77995 0.66593 0.0
H592 H 0.41976 0.78048 0.92695 0.0
H593 H 0.48235 0.74927 0.82631 0.0
H594 H 0.37368 0.74952 0.84139 0.0
H595 H 0.37561 0.77746 0.79605 0.0
H596 H 0.37901 0.77906 0.88386 0.0
H597 H 0.45374 0.71372 0.71507 0.0
H598 H 0.47862 0.73631 0.71446 0.0
H599 H 0.44971 0.74145 0.66915 0.0
C600 C 0.79415 0.87172 0.23176 0.0
C601 C 0.77806 0.85934 0.1867 0.0
C602 C 0.78509 0.89022 0.27468 0.0
C603 C 0.75955 0.89712 0.27035 0.0
C604 C 0.74345 0.88531 0.22284 0.0
C605 C 0.75282 0.86611 0.18238 0.0
C606 C 0.80268 0.90178 0.32606 0.0
C607 C 0.71639 0.89285 0.21504 0.0
C608 C 0.73355 0.9241 0.42679 0.0
C609 C 0.73796 0.94977 0.42045 0.0
C610 C 0.73976 0.90681 0.37739 0.0
C611 C 0.74954 0.91543 0.31872 0.0
C612 C 0.75183 0.94143 0.30934 0.0
C613 C 0.74638 0.95832 0.36076 0.0
C614 C 0.73743 0.87924 0.38995 0.0
C615 C 0.76122 0.95135 0.2463 0.0
H616 H 0.81366 0.86633 0.23481 0.0
H617 H 0.74054 0.85664 0.14665 0.0
H618 H 0.80348 0.92231 0.3207 0.0
H619 H 0.79566 0.8983 0.37547 0.0
H620 H 0.82193 0.89418 0.3231 0.0
H621 H 0.70708 0.88362 0.17157 0.0
H622 H 0.7061 0.88785 0.25904 0.0
H623 H 0.7149 0.9134 0.2104 0.0
H624 H 0.72618 0.91735 0.47177 0.0
H625 H 0.74983 0.97806 0.35508 0.0
H626 H 0.75627 0.87056 0.39072 0.0
H627 H 0.72627 0.86974 0.35014 0.0
H628 H 0.72856 0.87566 0.43717 0.0
H629 H 0.7816 0.94795 0.24358 0.0
H630 H 0.75785 0.97174 0.24247 0.0
H631 H 0.75205 0.94151 0.20363 0.0
C632 C 0.645 0.26285 0.72978 0.0
C633 C 0.63963 0.2764 0.67348 0.0
C634 C 0.6258 0.25504 0.76971 0.0
C635 C 0.60067 0.26078 0.75261 0.0
C636 C 0.59504 0.2734 0.69428 0.0
C637 C 0.61458 0.28114 0.65554 0.0
C638 C 0.6325 0.24165 0.83174 0.0
C639 C 0.56846 0.27964 0.67416 0.0
C640 C 0.55044 0.22801 0.84577 0.0
C641 C 0.546 0.24576 0.89568 0.0
C642 C 0.56771 0.23286 0.79733 0.0
C643 C 0.58066 0.25595 0.79923 0.0
C644 C 0.5753 0.27432 0.84783 0.0
C645 C 0.55798 0.26901 0.89531 0.0
C646 C 0.57285 0.21295 0.74582 0.0
C647 C 0.58856 0.29926 0.85125 0.0
H648 H 0.66425 0.25899 0.74384 0.0
H649 H 0.61019 0.29126 0.61155 0.0
H650 H 0.62791 0.25371 0.87471 0.0
H651 H 0.62138 0.22426 0.83451 0.0
H652 H 0.65266 0.2368 0.83528 0.0
H653 H 0.56703 0.28695 0.62394 0.0
H654 H 0.55637 0.26289 0.67648 0.0
H655 H 0.56101 0.29398 0.70859 0.0
H656 H 0.54122 0.21 0.84626 0.0
H657 H 0.55424 0.28287 0.93343 0.0
H658 H 0.59211 0.20572 0.75322 0.0
H659 H 0.57168 0.22092 0.6964 0.0
H660 H 0.55958 0.19705 0.7474 0.0
H661 H 0.60886 0.29636 0.86039 0.0
H662 H 0.58145 0.31184 0.89058 0.0
H663 H 0.58629 0.30873 0.80397 0.0
C664 C 0.22879 0.13885 0.20007 0.0
C665 C 0.21555 0.13547 0.14041 0.0
C666 C 0.23489 0.11846 0.23879 0.0
C667 C 0.2278 0.09407 0.21701 0.0
C668 C 0.21541 0.09038 0.1556 0.0
C669 C 0.20928 0.11116 0.11814 0.0
C670 C 0.24804 0.12313 0.30429 0.0
C671 C 0.20788 0.06461 0.13046 0.0
C672 C 0.2589 0.0429 0.31428 0.0
C673 C 0.24116 0.0393 0.36205 0.0
C674 C 0.25424 0.05963 0.26376 0.0
C675 C 0.23138 0.07294 0.26159 0.0
C676 C 0.21274 0.06792 0.30701 0.0
C677 C 0.21785 0.05107 0.35657 0.0
C678 C 0.27437 0.06428 0.2155 0.0
C679 C 0.18807 0.08161 0.30617 0.0
H680 H 0.23378 0.15754 0.21754 0.0
H681 H 0.19936 0.10833 0.07161 0.0
H682 H 0.23557 0.11784 0.34399 0.0
H683 H 0.26505 0.11138 0.30832 0.0
H684 H 0.25353 0.14302 0.31233 0.0
H685 H 0.20109 0.06462 0.07866 0.0
H686 H 0.22386 0.05151 0.1347 0.0
H687 H 0.19276 0.05733 0.16058 0.0
H688 H 0.27694 0.0338 0.31861 0.0
H689 H 0.20399 0.04793 0.39306 0.0
H690 H 0.28307 0.08277 0.22663 0.0
H691 H 0.26633 0.0647 0.16499 0.0
H692 H 0.28924 0.04982 0.21741 0.0
H693 H 0.19129 0.10164 0.3192 0.0
H694 H 0.17481 0.07392 0.34119 0.0
H695 H 0.17923 0.08065 0.2565 0.0
C696 C 0.22065 0.3063 0.05608 0.0
C697 C 0.21164 0.29295 0.00036 0.0
C698 C 0.21985 0.33248 0.05933 0.0
C699 C 0.20932 0.34556 0.00612 0.0
C700 C 0.19967 0.33217 0.95035 0.0
C701 C 0.20121 0.30601 0.94782 0.0
C702 C 0.2308 0.34614 0.11903 0.0
C703 C 0.1879 0.3455 0.89319 0.0
C704 C 0.19026 0.41316 0.03685 0.0
C705 C 0.21009 0.4259 0.00974 0.0
C706 C 0.18955 0.38692 0.0354 0.0
C707 C 0.20948 0.3733 0.00756 0.0
C708 C 0.22977 0.38617 0.98121 0.0
C709 C 0.22972 0.41234 0.98209 0.0
C710 C 0.16743 0.37379 0.06299 0.0
C711 C 0.25162 0.37231 0.95239 0.0
H712 H 0.22884 0.29629 0.09669 0.0
H713 H 0.19396 0.29574 0.90497 0.0
H714 H 0.24641 0.35827 0.10472 0.0
H715 H 0.21652 0.35846 0.14125 0.0
H716 H 0.23794 0.33316 0.15663 0.0
H717 H 0.17995 0.33229 0.85524 0.0
H718 H 0.17279 0.35806 0.91026 0.0
H719 H 0.20204 0.35733 0.87039 0.0
H720 H 0.1751 0.42372 0.05817 0.0
H721 H 0.24526 0.42216 0.96179 0.0
H722 H 0.17372 0.36172 0.1034 0.0
H723 H 0.15842 0.36147 0.0247 0.0
H724 H 0.15326 0.38712 0.08177 0.0
H725 H 0.26023 0.35993 0.98932 0.0
H726 H 0.2662 0.38515 0.93533 0.0
H727 H 0.24509 0.36023 0.91042 0.0
C728 C 0.19539 0.72176 0.43471 0.0
C729 C 0.20928 0.70869 0.48177 0.0
C730 C 0.16919 0.72139 0.43355 0.0
C731 C 0.15659 0.70722 0.47977 0.0
C732 C 0.1705 0.69334 0.52606 0.0
C733 C 0.19669 0.69444 0.52693 0.0
C734 C 0.15499 0.73677 0.38414 0.0
C735 C 0.15772 0.67764 0.57531 0.0
C736 C 0.09102 0.72693 0.52371 0.0
C737 C 0.07634 0.71039 0.4847 0.0
C738 C 0.11717 0.72609 0.5224 0.0
C739 C 0.12888 0.708 0.48189 0.0
C740 C 0.11413 0.69103 0.44303 0.0
C741 C 0.08797 0.69261 0.44439 0.0
C742 C 0.13225 0.74479 0.56371 0.0
C743 C 0.12599 0.67124 0.40007 0.0
H744 H 0.20501 0.73289 0.39986 0.0
H745 H 0.20733 0.68408 0.56297 0.0
H746 H 0.14173 0.72477 0.35487 0.0
H747 H 0.14381 0.75124 0.40986 0.0
H748 H 0.16758 0.74617 0.35033 0.0
H749 H 0.17121 0.66661 0.60497 0.0
H750 H 0.14691 0.68985 0.60882 0.0
H751 H 0.14427 0.66461 0.55005 0.0
H752 H 0.08211 0.74089 0.55448 0.0
H753 H 0.07657 0.67984 0.41425 0.0
H754 H 0.14421 0.75591 0.53206 0.0
H755 H 0.14482 0.73491 0.59837 0.0
H756 H 0.12024 0.7578 0.59208 0.0
H757 H 0.13741 0.68017 0.36287 0.0
H758 H 0.1119 0.65894 0.37456 0.0
H759 H 0.13877 0.65951 0.42987 0.0
C760 C 0.80416 0.6943 0.04602 0.0
C761 C 0.7927 0.70795 0.99592 0.0
C762 C 0.80479 0.66811 0.04268 0.0
C763 C 0.79328 0.65522 0.9885 0.0
C764 C 0.78213 0.66888 0.9371 0.0
C765 C 0.78218 0.69511 0.94114 0.0
C766 C 0.81728 0.65422 0.09788 0.0
C767 C 0.76935 0.65579 0.87901 0.0
C768 C 0.80863 0.58652 0.95894 0.0
C769 C 0.789 0.5749 0.99008 0.0
C770 C 0.81033 0.6127 0.95793 0.0
C771 C 0.79164 0.62748 0.98767 0.0
C772 C 0.7715 0.61575 0.01802 0.0
C773 C 0.77052 0.5896 0.01932 0.0
C774 C 0.83228 0.62453 0.92599 0.0
C775 C 0.75098 0.63085 0.04933 0.0
H776 H 0.81257 0.70411 0.08816 0.0
H777 H 0.77321 0.70554 0.9024 0.0
H778 H 0.80312 0.64341 0.12371 0.0
H779 H 0.83105 0.64066 0.07833 0.0
H780 H 0.82701 0.667 0.13394 0.0
H781 H 0.76262 0.66909 0.84174 0.0
H782 H 0.7823 0.64231 0.85568 0.0
H783 H 0.75315 0.64497 0.89552 0.0
H784 H 0.82289 0.57512 0.93629 0.0
H785 H 0.75513 0.58069 0.04279 0.0
H786 H 0.84294 0.63633 0.96246 0.0
H787 H 0.8256 0.63694 0.88668 0.0
H788 H 0.84513 0.61041 0.90468 0.0
H789 H 0.75891 0.64267 0.09018 0.0
H790 H 0.73612 0.61885 0.06863 0.0
H791 H 0.74234 0.64356 0.01324 0.0
C792 C 0.80459 0.30692 0.46495 0.0
C793 C 0.79299 0.29247 0.5114 0.0
C794 C 0.83068 0.30976 0.46595 0.0
C795 C 0.84545 0.29731 0.51344 0.0
C796 C 0.8338 0.28255 0.56008 0.0
C797 C 0.80769 0.28056 0.55897 0.0
C798 C 0.84243 0.32609 0.41636 0.0
C799 C 0.84892 0.2685 0.61049 0.0
C800 C 0.91297 0.28238 0.47762 0.0
C801 C 0.9258 0.29976 0.51865 0.0
C802 C 0.8868 0.28159 0.47493 0.0
C803 C 0.87315 0.29893 0.51323 0.0
C804 C 0.88602 0.31694 0.55352 0.0
C805 C 0.91227 0.31691 0.5564 0.0
C806 C 0.87378 0.26174 0.43254 0.0
C807 C 0.87207 0.33602 0.59405 0.0
H808 H 0.79323 0.31635 0.42854 0.0
H809 H 0.79879 0.26924 0.5947 0.0
H810 H 0.85423 0.34063 0.44165 0.0
H811 H 0.85481 0.31471 0.38483 0.0
H812 H 0.82826 0.33541 0.38473 0.0
H813 H 0.83697 0.2577 0.64303 0.0
H814 H 0.86188 0.25538 0.58577 0.0
H815 H 0.8605 0.28172 0.64108 0.0
H816 H 0.92338 0.26889 0.44881 0.0
H817 H 0.92223 0.33036 0.58799 0.0
H818 H 0.86064 0.2705 0.39715 0.0
H819 H 0.8626 0.24951 0.4634 0.0
H820 H 0.88714 0.24992 0.40496 0.0
H821 H 0.85846 0.34617 0.56266 0.0
H822 H 0.88481 0.34983 0.61916 0.0
H823 H 0.86128 0.3265 0.63152 0.0
C824 C 0.70153 0.19542 0.44735 0.0
C825 C 0.71413 0.20778 0.4998 0.0
C826 C 0.70154 0.16922 0.4415 0.0
C827 C 0.71514 0.15517 0.4881 0.0
C828 C 0.72793 0.16762 0.54108 0.0
C829 C 0.72696 0.19376 0.5468 0.0
C830 C 0.6871 0.15658 0.38541 0.0
C831 C 0.74317 0.15336 0.59083 0.0
C832 C 0.70317 0.08597 0.50968 0.0
C833 C 0.72208 0.07516 0.47244 0.0
C834 C 0.70009 0.11202 0.51335 0.0
C835 C 0.71678 0.12752 0.48048 0.0
C836 C 0.73577 0.11659 0.44236 0.0
C837 C 0.73793 0.0905 0.43803 0.0
C838 C 0.67918 0.12297 0.55291 0.0
C839 C 0.7543 0.13246 0.40784 0.0
H840 H 0.6914 0.20624 0.41129 0.0
H841 H 0.73688 0.20331 0.58711 0.0
H842 H 0.70013 0.14645 0.35293 0.0
H843 H 0.67408 0.14255 0.40423 0.0
H844 H 0.6762 0.17009 0.35585 0.0
H845 H 0.75213 0.16587 0.62888 0.0
H846 H 0.73115 0.1398 0.61519 0.0
H847 H 0.75799 0.14251 0.566 0.0
H848 H 0.69072 0.07406 0.53574 0.0
H849 H 0.75258 0.08206 0.40934 0.0
H850 H 0.66785 0.13593 0.52282 0.0
H851 H 0.68705 0.13399 0.59533 0.0
H852 H 0.66669 0.10834 0.57131 0.0
H853 H 0.74437 0.14504 0.37372 0.0
H854 H 0.76785 0.12103 0.37983 0.0
H855 H 0.76484 0.14445 0.44415 0.0
C856 C 0.30501 0.19622 0.9517 0.0
C857 C 0.29213 0.20895 0.0011 0.0
C858 C 0.33115 0.19394 0.95544 0.0
C859 C 0.34468 0.20526 0.00888 0.0
C860 C 0.33174 0.21829 0.05858 0.0
C861 C 0.3056 0.2197 0.0545 0.0
C862 C 0.34428 0.17939 0.90235 0.0
C863 C 0.34552 0.23115 0.1155 0.0
C864 C 0.41101 0.18561 0.05424 0.0
C865 C 0.42501 0.20386 0.02416 0.0
C866 C 0.38482 0.1853 0.04787 0.0
C867 C 0.37244 0.20416 0.01216 0.0
C868 C 0.38657 0.22267 0.98179 0.0
C869 C 0.41272 0.22213 0.98755 0.0
C870 C 0.3704 0.16494 0.07972 0.0
C871 C 0.37405 0.24345 0.94471 0.0
H872 H 0.29461 0.1877 0.91068 0.0
H873 H 0.2957 0.22972 0.09254 0.0
H874 H 0.357 0.19189 0.87665 0.0
H875 H 0.35593 0.16446 0.92416 0.0
H876 H 0.33095 0.1707 0.8658 0.0
H877 H 0.33267 0.24074 0.14967 0.0
H878 H 0.35676 0.21737 0.1431 0.0
H879 H 0.3587 0.24516 0.09725 0.0
H880 H 0.42058 0.17147 0.08243 0.0
H881 H 0.4235 0.23646 0.9648 0.0
H882 H 0.35766 0.15547 0.04319 0.0
H883 H 0.35865 0.17319 0.11848 0.0
H884 H 0.38289 0.15073 0.10192 0.0
H885 H 0.36184 0.23556 0.90459 0.0
H886 H 0.38775 0.25628 0.92348 0.0
H887 H 0.36196 0.25449 0.97786 0.0
C888 C 0.27666 0.80413 0.54876 0.0
C889 C 0.28979 0.79151 0.4996 0.0
C890 C 0.27686 0.83029 0.5542 0.0
C891 C 0.29095 0.84411 0.51028 0.0
C892 C 0.30481 0.83145 0.46168 0.0
C893 C 0.30384 0.80528 0.45645 0.0
C894 C 0.26144 0.84314 0.60581 0.0
C895 C 0.32043 0.84557 0.4148 0.0
C896 C 0.27107 0.91066 0.47817 0.0
C897 C 0.28755 0.92438 0.51977 0.0
C898 C 0.27199 0.88452 0.47479 0.0
C899 C 0.29011 0.87184 0.51307 0.0
C900 C 0.30702 0.88562 0.55458 0.0
C901 C 0.30532 0.9118 0.558 0.0
C902 C 0.25332 0.87045 0.43093 0.0
C903 C 0.32686 0.87272 0.59522 0.0
H904 H 0.26568 0.79356 0.58204 0.0
H905 H 0.31425 0.79558 0.41885 0.0
H906 H 0.27344 0.85558 0.63754 0.0
H907 H 0.24704 0.85505 0.58213 0.0
H908 H 0.25195 0.82966 0.63705 0.0
H909 H 0.33139 0.83288 0.38273 0.0
H910 H 0.30818 0.85726 0.38352 0.0
H911 H 0.33351 0.85834 0.4423 0.0
H912 H 0.25709 0.92032 0.44904 0.0
H913 H 0.31804 0.92247 0.59011 0.0
H914 H 0.24224 0.85759 0.46027 0.0
H915 H 0.26322 0.85886 0.39415 0.0
H916 H 0.24026 0.88314 0.40484 0.0
H917 H 0.31798 0.86028 0.63023 0.0
H918 H 0.33913 0.8862 0.62313 0.0
H919 H 0.3386 0.8608 0.56326 0.0
C920 C 0.69492 0.77308 0.0398 0.0
C921 C 0.7091 0.7875 -0.00157 0.0
C922 C 0.66877 0.77234 0.03318 0.0
C923 C 0.65655 0.78683 0.98509 0.0
C924 C 0.67073 0.80207 0.94468 0.0
C925 C 0.69688 0.80199 0.9513 0.0
C926 C 0.6543 0.75548 0.07632 0.0
C927 C 0.65831 0.81821 0.89388 0.0
C928 C 0.59259 0.76565 0.9212 0.0
C929 C 0.57677 0.78057 0.95897 0.0
C930 C 0.61862 0.76749 0.92928 0.0
C931 C 0.629 0.78515 0.97517 0.0
C932 C 0.61306 0.80079 0.01218 0.0
C933 C 0.58705 0.79813 0.00412 0.0
C934 C 0.63499 0.75019 0.8897 0.0
C935 C 0.62348 0.82022 0.06042 0.0
H936 H 0.70431 0.76175 0.07603 0.0
H937 H 0.70778 0.81337 0.91969 0.0
H938 H 0.6402 0.76645 0.10349 0.0
H939 H 0.64403 0.74122 0.04569 0.0
H940 H 0.66659 0.74576 0.11209 0.0
H941 H 0.6719 0.83029 0.86958 0.0
H942 H 0.64863 0.80625 0.85598 0.0
H943 H 0.64395 0.83027 0.91673 0.0
H944 H 0.58457 0.75205 0.88638 0.0
H945 H 0.5748 0.80986 0.03295 0.0
H946 H 0.64677 0.7388 0.92293 0.0
H947 H 0.64777 0.76121 0.86004 0.0
H948 H 0.62394 0.7374 0.85641 0.0
H949 H 0.63439 0.81101 0.0998 0.0
H950 H 0.60857 0.8317 0.08305 0.0
H951 H 0.63644 0.8328 0.03572 0.0
loop_
_geom_bond_atom_site_label_1
_geom_bond_atom_site_label_2
_geom_bond_distance
_geom_bond_site_symmetry_2
_ccdc_geom_bond_type
Sc0 O3 2.025 . S
Sc0 O10 2.105 . S
Sc0 O13 2.105 . S
Sc0 O16 2.105 . S
Sc0 O19 2.105 . S
Sc1 O3 2.025 . S
Sc1 O11 2.105 . S
Sc1 O15 2.105 1_554 S
Sc1 O17 2.105 . S
Sc1 O21 2.105 1_554 S
Sc2 O3 2.025 1_556 S
Sc2 O12 2.105 . S
Sc2 O14 2.105 . S
Sc2 O18 2.105 . S
Sc2 O20 2.105 . S
O3 Sc0 2.025 . S
O3 Sc1 2.025 . S
O3 Sc2 2.025 1_554 S
C4 O10 1.268 . S
C4 O20 1.268 1_554 S
C5 O11 1.268 . S
C5 O19 1.268 . S
C6 O12 1.268 . S
C6 O21 1.268 . S
C7 O13 1.268 . S
C7 O17 1.268 . S
C8 O14 1.268 1_554 S
C8 O16 1.268 . S
C9 O15 1.268 . S
C9 O18 1.268 . S
O10 Sc0 2.105 . S
O10 C4 1.268 . S
O11 Sc1 2.105 . S
O11 C5 1.268 . S
O12 Sc2 2.105 . S
O12 C6 1.268 . S
O13 Sc0 2.105 . S
O13 C7 1.268 . S
O14 Sc2 2.105 . S
O14 C8 1.268 1_556 S
O15 Sc1 2.105 1_556 S
O15 C9 1.268 . S
O16 Sc0 2.105 . S
O16 C8 1.268 . S
O17 Sc1 2.105 . S
O17 C7 1.268 . S
O18 Sc2 2.105 . S
O18 C9 1.268 . S
O19 Sc0 2.105 . S
O19 C5 1.268 . S
O20 Sc2 2.105 . S
O20 C4 1.268 1_556 S
O21 Sc1 2.105 1_556 S
O21 C6 1.268 . S
Sc22 O25 2.025 . S
Sc22 O32 2.105 . S
Sc22 O35 2.105 . S
Sc22 O38 2.105 . S
Sc22 O41 2.105 . S
Sc23 O25 2.025 . S
Sc23 O33 2.105 . S
Sc23 O37 2.105 . S
Sc23 O39 2.105 . S
Sc23 O43 2.105 . S
Sc24 O25 2.025 . S
Sc24 O34 2.105 . S
Sc24 O36 2.105 . S
Sc24 O40 2.105 . S
Sc24 O42 2.105 . S
O25 Sc22 2.025 . S
O25 Sc23 2.025 . S
O25 Sc24 2.025 . S
C26 O32 1.268 . S
C26 O42 1.268 . S
C27 O33 1.268 . S
C27 O41 1.268 . S
C28 O34 1.268 . S
C28 O43 1.268 . S
C29 O35 1.268 . S
C29 O39 1.268 . S
C30 O36 1.268 . S
C30 O38 1.268 . S
C31 O37 1.268 . S
C31 O40 1.268 . S
O32 Sc22 2.105 . S
O32 C26 1.268 . S
O33 Sc23 2.105 . S
O33 C27 1.268 . S
O34 Sc24 2.105 . S
O34 C28 1.268 . S
O35 Sc22 2.105 . S
O35 C29 1.268 . S
O36 Sc24 2.105 . S
O36 C30 1.268 . S
O37 Sc23 2.105 . S
O37 C31 1.268 . S
O38 Sc22 2.105 . S
O38 C30 1.268 . S
O39 Sc23 2.105 . S
O39 C29 1.268 . S
O40 Sc24 2.105 . S
O40 C31 1.268 . S
O41 Sc22 2.105 . S
O41 C27 1.268 . S
O42 Sc24 2.105 . S
O42 C26 1.268 . S
O43 Sc23 2.105 . S
O43 C28 1.268 . S
Sc44 O47 2.025 1_556 S
Sc44 O54 2.105 . S
Sc44 O57 2.105 . S
Sc44 O60 2.105 . S
Sc44 O63 2.105 . S
Sc45 O47 2.025 . S
Sc45 O55 2.105 1_554 S
Sc45 O59 2.105 . S
Sc45 O61 2.105 1_554 S
Sc45 O65 2.105 . S
Sc46 O47 2.025 . S
Sc46 O56 2.105 . S
Sc46 O58 2.105 . S
Sc46 O62 2.105 . S
Sc46 O64 2.105 . S
O47 Sc44 2.025 1_554 S
O47 Sc45 2.025 . S
O47 Sc46 2.025 . S
C48 O54 1.268 1_554 S
C48 O64 1.268 . S
C49 O55 1.268 . S
C49 O63 1.268 . S
C50 O56 1.268 . S
C50 O65 1.268 . S
C51 O57 1.268 . S
C51 O61 1.268 . S
C52 O58 1.268 . S
C52 O60 1.268 1_554 S
C53 O59 1.268 . S
C53 O62 1.268 . S
O54 Sc44 2.105 . S
O54 C48 1.268 1_556 S
O55 Sc45 2.105 1_556 S
O55 C49 1.268 . S
O56 Sc46 2.105 . S
O56 C50 1.268 . S
O57 Sc44 2.105 . S
O57 C51 1.268 . S
O58 Sc46 2.105 . S
O58 C52 1.268 . S
O59 Sc45 2.105 . S
O59 C53 1.268 . S
O60 Sc44 2.105 . S
O60 C52 1.268 1_556 S
O61 Sc45 2.105 1_556 S
O61 C51 1.268 . S
O62 Sc46 2.105 . S
O62 C53 1.268 . S
O63 Sc44 2.105 . S
O63 C49 1.268 . S
O64 Sc46 2.105 . S
O64 C48 1.268 . S
O65 Sc45 2.105 . S
O65 C50 1.268 . S
Sc66 O69 2.025 . S
Sc66 O76 2.105 . S
Sc66 O79 2.105 . S
Sc66 O82 2.105 . S
Sc66 O85 2.105 . S
Sc67 O69 2.025 . S
Sc67 O77 2.105 . S
Sc67 O81 2.105 . S
Sc67 O83 2.105 . S
Sc67 O87 2.105 . S
Sc68 O69 2.025 . S
Sc68 O78 2.105 . S
Sc68 O80 2.105 . S
Sc68 O84 2.105 . S
Sc68 O86 2.105 . S
O69 Sc66 2.025 . S
O69 Sc67 2.025 . S
O69 Sc68 2.025 . S
C70 O76 1.268 . S
C70 O86 1.268 . S
C71 O77 1.268 . S
C71 O85 1.268 . S
C72 O78 1.268 . S
C72 O87 1.268 . S
C73 O79 1.268 . S
C73 O83 1.268 . S
C74 O80 1.268 . S
C74 O82 1.268 . S
C75 O81 1.268 . S
C75 O84 1.268 . S
O76 Sc66 2.105 . S
O76 C70 1.268 . S
O77 Sc67 2.105 . S
O77 C71 1.268 . S
O78 Sc68 2.105 . S
O78 C72 1.268 . S
O79 Sc66 2.105 . S
O79 C73 1.268 . S
O80 Sc68 2.105 . S
O80 C74 1.268 . S
O81 Sc67 2.105 . S
O81 C75 1.268 . S
O82 Sc66 2.105 . S
O82 C74 1.268 . S
O83 Sc67 2.105 . S
O83 C73 1.268 . S
O84 Sc68 2.105 . S
O84 C75 1.268 . S
O85 Sc66 2.105 . S
O85 C71 1.268 . S
O86 Sc68 2.105 . S
O86 C70 1.268 . S
O87 Sc67 2.105 . S
O87 C72 1.268 . S
H88 C93 0.930 . S
H89 C96 0.930 . S
H90 C98 0.931 . S
H91 C92 1.016 . S
C92 H91 1.016 . S
C92 N99 1.286 1_554 S
C93 H88 0.930 . S
C93 C94 1.397 . S
C93 C95 1.361 . S
C94 C93 1.397 . S
C94 C98 1.379 1_556 S
C95 C93 1.361 . S
C95 C96 1.393 1_556 S
C95 N99 1.413 . S
C96 H89 0.930 . S
C96 C95 1.393 1_554 S
C96 C97 1.399 . S
C97 C96 1.399 . S
C97 C98 1.391 . S
C98 H90 0.931 . S
C98 C94 1.379 1_554 S
C98 C97 1.391 . S
N99 C92 1.286 1_556 S
N99 C95 1.413 . S
H100 C105 0.930 . S
H101 C108 0.930 . S
H102 C110 0.930 . S
H103 C104 1.016 . S
C104 H103 1.016 . S
C104 N111 1.286 . S
C105 H100 0.930 . S
C105 C106 1.397 . S
C105 C107 1.371 . S
C106 C105 1.397 . S
C106 C110 1.390 . S
C107 C105 1.371 . S
C107 C108 1.400 . S
C107 N111 1.397 1_655 S
C108 H101 0.930 . S
C108 C107 1.400 . S
C108 C109 1.399 . S
C109 C108 1.399 . S
C109 C110 1.381 . S
C110 H102 0.930 . S
C110 C106 1.390 . S
C110 C109 1.381 . S
N111 C104 1.286 . S
N111 C107 1.397 1_455 S
H112 C117 0.930 . S
H113 C120 0.930 . S
H114 C122 0.930 . S
H115 C116 1.016 1_556 S
C116 H115 1.016 1_554 S
C116 N123 1.286 . S
C117 H112 0.930 . S
C117 C118 1.397 . S
C117 C119 1.361 . S
C118 C117 1.397 . S
C118 C122 1.390 . S
C119 C117 1.361 . S
C119 C120 1.393 1_554 S
C119 N123 1.413 . S
C120 H113 0.930 . S
C120 C119 1.393 1_556 S
C120 C121 1.399 . S
C121 C120 1.399 . S
C121 C122 1.381 1_556 S
C122 H114 0.930 . S
C122 C118 1.390 . S
C122 C121 1.381 1_554 S
N123 C116 1.286 . S
N123 C119 1.413 . S
H124 C129 0.930 . S
H125 C132 0.930 . S
H126 C134 0.930 . S
H127 C128 1.016 . S
C128 H127 1.016 . S
C128 N135 1.286 . S
C129 H124 0.930 . S
C129 C130 1.397 . S
C129 C131 1.361 . S
C130 C129 1.397 . S
C130 C134 1.390 . S
C131 C129 1.361 . S
C131 C132 1.393 . S
C131 N135 1.413 1_455 S
C132 H125 0.930 . S
C132 C131 1.393 . S
C132 C133 1.399 . S
C133 C132 1.399 . S
C133 C134 1.381 . S
C134 H126 0.930 . S
C134 C130 1.390 . S
C134 C133 1.381 . S
N135 C128 1.286 . S
N135 C131 1.413 1_655 S
H136 C141 0.930 . S
H137 C144 0.930 . S
H138 C146 0.930 . S
H139 C140 1.016 . S
C140 H139 1.016 . S
C140 N147 1.286 . S
C141 H136 0.930 . S
C141 C142 1.397 . S
C141 C143 1.361 . S
C142 C141 1.397 . S
C142 C146 1.390 . S
C143 C141 1.361 . S
C143 C144 1.393 . S
C143 N147 1.413 1_565 S
C144 H137 0.930 . S
C144 C143 1.393 . S
C144 C145 1.399 . S
C145 C144 1.399 . S
C145 C146 1.381 . S
C146 H138 0.930 . S
C146 C142 1.390 . S
C146 C145 1.381 . S
N147 C140 1.286 . S
N147 C143 1.413 1_545 S
H148 C153 0.930 . S
H149 C156 0.930 . S
H150 C158 0.931 . S
H151 C152 1.016 . S
C152 H151 1.016 . S
C152 N159 1.286 1_554 S
C153 H148 0.930 . S
C153 C154 1.397 . S
C153 C155 1.361 . S
C154 C153 1.397 . S
C154 C158 1.383 1_556 S
C155 C153 1.361 . S
C155 C156 1.393 1_556 S
C155 N159 1.413 . S
C156 H149 0.930 . S
C156 C155 1.393 1_554 S
C156 C157 1.399 . S
C157 C156 1.399 . S
C157 C158 1.387 . S
C158 H150 0.931 . S
C158 C154 1.383 1_554 S
C158 C157 1.387 . S
N159 C152 1.286 1_556 S
N159 C155 1.413 . S
H160 C165 0.930 . S
H161 C168 0.930 . S
H162 C170 0.930 . S
H163 C164 1.016 . S
C164 H163 1.016 . S
C164 N171 1.286 . S
C165 H160 0.930 . S
C165 C166 1.397 . S
C165 C167 1.375 . S
C166 C165 1.397 . S
C166 C170 1.390 . S
C167 C165 1.375 . S
C167 C168 1.403 . S
C167 N171 1.391 1_545 S
C168 H161 0.930 . S
C168 C167 1.403 . S
C168 C169 1.399 . S
C169 C168 1.399 . S
C169 C170 1.381 . S
C170 H162 0.930 . S
C170 C166 1.390 . S
C170 C169 1.381 . S
N171 C164 1.286 . S
N171 C167 1.391 1_565 S
H172 C177 0.930 . S
H173 C180 0.930 . S
H174 C182 0.930 . S
H175 C176 1.016 1_556 S
C176 H175 1.016 1_554 S
C176 N183 1.286 . S
C177 H172 0.930 . S
C177 C178 1.397 . S
C177 C179 1.361 . S
C178 C177 1.397 . S
C178 C182 1.390 . S
C179 C177 1.361 . S
C179 C180 1.393 1_554 S
C179 N183 1.413 . S
C180 H173 0.930 . S
C180 C179 1.393 1_556 S
C180 C181 1.399 . S
C181 C180 1.399 . S
C181 C182 1.381 1_556 S
C182 H174 0.930 . S
C182 C178 1.390 . S
C182 C181 1.381 1_554 S
N183 C176 1.286 . S
N183 C179 1.413 . S
C184 C185 1.391 . S
C184 C186 1.394 . S
C184 H200 0.931 . S
C185 C184 1.391 . S
C185 C189 1.376 . S
C186 C184 1.394 . S
C186 C187 1.369 . S
C186 C190 1.531 . S
C187 C186 1.369 . S
C187 C188 1.410 . S
C187 C195 1.503 . S
C188 C187 1.410 . S
C188 C189 1.392 . S
C188 C191 1.511 . S
C189 C185 1.376 . S
C189 C188 1.392 . S
C189 H201 0.929 . S
C190 C186 1.531 . S
C190 H202 0.960 . S
C190 H203 0.962 . S
C190 H204 0.960 . S
C191 C188 1.511 . S
C191 H205 0.961 . S
C191 H206 0.961 . S
C191 H207 0.961 . S
C192 C193 1.370 . S
C192 C194 1.363 . S
C192 H208 0.931 . S
C193 C192 1.370 . S
C193 C197 1.408 . S
C194 C192 1.363 . S
C194 C195 1.370 . S
C194 C198 1.524 . S
C195 C187 1.503 . S
C195 C194 1.370 . S
C195 C196 1.403 . S
C196 C195 1.403 . S
C196 C197 1.404 . S
C196 C199 1.539 . S
C197 C193 1.408 . S
C197 C196 1.404 . S
C197 H209 0.930 . S
C198 C194 1.524 . S
C198 H210 0.956 . S
C198 H211 0.961 . S
C198 H212 0.961 . S
C199 C196 1.539 . S
C199 H213 0.958 . S
C199 H214 0.961 . S
C199 H215 0.960 . S
H200 C184 0.931 . S
H201 C189 0.929 . S
H202 C190 0.960 . S
H203 C190 0.962 . S
H204 C190 0.960 . S
H205 C191 0.961 . S
H206 C191 0.961 . S
H207 C191 0.961 . S
H208 C192 0.931 . S
H209 C197 0.930 . S
H210 C198 0.956 . S
H211 C198 0.961 . S
H212 C198 0.961 . S
H213 C199 0.958 . S
H214 C199 0.961 . S
H215 C199 0.960 . S
C216 C217 1.391 . S
C216 C218 1.394 . S
C216 H232 0.931 . S
C217 C216 1.391 . S
C217 C221 1.376 . S
C218 C216 1.394 . S
C218 C219 1.369 . S
C218 C222 1.531 . S
C219 C218 1.369 . S
C219 C220 1.410 . S
C219 C227 1.503 . S
C220 C219 1.410 . S
C220 C221 1.392 . S
C220 C223 1.511 . S
C221 C217 1.376 . S
C221 C220 1.392 . S
C221 H233 0.929 . S
C222 C218 1.531 . S
C222 H234 0.960 . S
C222 H235 0.962 . S
C222 H236 0.960 . S
C223 C220 1.511 . S
C223 H237 0.961 . S
C223 H238 0.961 . S
C223 H239 0.961 . S
C224 C225 1.370 . S
C224 C226 1.363 . S
C224 H240 0.931 . S
C225 C224 1.370 . S
C225 C229 1.408 . S
C226 C224 1.363 . S
C226 C227 1.370 . S
C226 C230 1.524 . S
C227 C219 1.503 . S
C227 C226 1.370 . S
C227 C228 1.403 . S
C228 C227 1.403 . S
C228 C229 1.404 . S
C228 C231 1.539 . S
C229 C225 1.408 . S
C229 C228 1.404 . S
C229 H241 0.930 . S
C230 C226 1.524 . S
C230 H242 0.956 . S
C230 H243 0.961 . S
C230 H244 0.961 . S
C231 C228 1.539 . S
C231 H245 0.958 . S
C231 H246 0.961 . S
C231 H247 0.960 . S
H232 C216 0.931 . S
H233 C221 0.929 . S
H234 C222 0.960 . S
H235 C222 0.962 . S
H236 C222 0.960 . S
H237 C223 0.961 . S
H238 C223 0.961 . S
H239 C223 0.961 . S
H240 C224 0.931 . S
H241 C229 0.930 . S
H242 C230 0.956 . S
H243 C230 0.961 . S
H244 C230 0.961 . S
H245 C231 0.958 . S
H246 C231 0.961 . S
H247 C231 0.960 . S
C248 C249 1.391 . S
C248 C250 1.394 . S
C248 H264 0.931 . S
C249 C248 1.391 . S
C249 C253 1.376 . S
C250 C248 1.394 . S
C250 C251 1.369 . S
C250 C254 1.531 . S
C251 C250 1.369 . S
C251 C252 1.410 . S
C251 C259 1.503 . S
C252 C251 1.410 . S
C252 C253 1.392 . S
C252 C255 1.511 . S
C253 C249 1.376 . S
C253 C252 1.392 . S
C253 H265 0.929 . S
C254 C250 1.531 . S
C254 H266 0.960 . S
C254 H267 0.962 . S
C254 H268 0.960 . S
C255 C252 1.511 . S
C255 H269 0.961 . S
C255 H270 0.961 . S
C255 H271 0.961 . S
C256 C257 1.370 . S
C256 C258 1.363 . S
C256 H272 0.931 . S
C257 C256 1.370 . S
C257 C261 1.408 . S
C258 C256 1.363 . S
C258 C259 1.370 . S
C258 C262 1.524 . S
C259 C251 1.503 . S
C259 C258 1.370 . S
C259 C260 1.403 . S
C260 C259 1.403 . S
C260 C261 1.404 . S
C260 C263 1.539 . S
C261 C257 1.408 . S
C261 C260 1.404 . S
C261 H273 0.930 . S
C262 C258 1.524 . S
C262 H274 0.956 . S
C262 H275 0.961 . S
C262 H276 0.961 . S
C263 C260 1.539 . S
C263 H277 0.958 . S
C263 H278 0.961 . S
C263 H279 0.960 . S
H264 C248 0.931 . S
H265 C253 0.929 . S
H266 C254 0.960 . S
H267 C254 0.962 . S
H268 C254 0.960 . S
H269 C255 0.961 . S
H270 C255 0.961 . S
H271 C255 0.961 . S
H272 C256 0.931 . S
H273 C261 0.930 . S
H274 C262 0.956 . S
H275 C262 0.961 . S
H276 C262 0.961 . S
H277 C263 0.958 . S
H278 C263 0.961 . S
H279 C263 0.960 . S
C280 C281 1.391 . S
C280 C282 1.394 . S
C280 H296 0.931 . S
C281 C280 1.391 . S
C281 C285 1.376 . S
C282 C280 1.394 . S
C282 C283 1.369 . S
C282 C286 1.531 . S
C283 C282 1.369 . S
C283 C284 1.410 . S
C283 C291 1.503 . S
C284 C283 1.410 . S
C284 C285 1.392 . S
C284 C287 1.511 . S
C285 C281 1.376 . S
C285 C284 1.392 . S
C285 H297 0.929 . S
C286 C282 1.531 . S
C286 H298 0.960 . S
C286 H299 0.962 . S
C286 H300 0.960 . S
C287 C284 1.511 . S
C287 H301 0.961 . S
C287 H302 0.961 . S
C287 H303 0.961 . S
C288 C289 1.370 . S
C288 C290 1.363 . S
C288 H304 0.931 . S
C289 C288 1.370 . S
C289 C293 1.408 . S
C290 C288 1.363 . S
C290 C291 1.370 . S
C290 C294 1.524 . S
C291 C283 1.503 . S
C291 C290 1.370 . S
C291 C292 1.403 . S
C292 C291 1.403 . S
C292 C293 1.404 . S
C292 C295 1.539 . S
C293 C289 1.408 . S
C293 C292 1.404 . S
C293 H305 0.930 . S
C294 C290 1.524 . S
C294 H306 0.956 . S
C294 H307 0.961 . S
C294 H308 0.961 . S
C295 C292 1.539 . S
C295 H309 0.958 . S
C295 H310 0.961 . S
C295 H311 0.960 . S
H296 C280 0.931 . S
H297 C285 0.929 . S
H298 C286 0.960 . S
H299 C286 0.962 . S
H300 C286 0.960 . S
H301 C287 0.961 . S
H302 C287 0.961 . S
H303 C287 0.961 . S
H304 C288 0.931 . S
H305 C293 0.930 . S
H306 C294 0.956 . S
H307 C294 0.961 . S
H308 C294 0.961 . S
H309 C295 0.958 . S
H310 C295 0.961 . S
H311 C295 0.960 . S
C312 C313 1.391 . S
C312 C314 1.394 . S
C312 H328 0.931 . S
C313 C312 1.391 . S
C313 C317 1.376 . S
C314 C312 1.394 . S
C314 C315 1.369 . S
C314 C318 1.531 . S
C315 C314 1.369 . S
C315 C316 1.410 . S
C315 C323 1.503 . S
C316 C315 1.410 . S
C316 C317 1.392 . S
C316 C319 1.511 . S
C317 C313 1.376 . S
C317 C316 1.392 . S
C317 H329 0.929 . S
C318 C314 1.531 . S
C318 H330 0.960 . S
C318 H331 0.962 . S
C318 H332 0.960 . S
C319 C316 1.511 . S
C319 H333 0.961 . S
C319 H334 0.961 . S
C319 H335 0.961 . S
C320 C321 1.370 . S
C320 C322 1.363 . S
C320 H336 0.931 . S
C321 C320 1.370 . S
C321 C325 1.408 . S
C322 C320 1.363 . S
C322 C323 1.370 . S
C322 C326 1.524 . S
C323 C315 1.503 . S
C323 C322 1.370 . S
C323 C324 1.403 . S
C324 C323 1.403 . S
C324 C325 1.404 . S
C324 C327 1.539 . S
C325 C321 1.408 . S
C325 C324 1.404 . S
C325 H337 0.930 . S
C326 C322 1.524 . S
C326 H338 0.956 . S
C326 H339 0.961 . S
C326 H340 0.961 . S
C327 C324 1.539 . S
C327 H341 0.958 . S
C327 H342 0.961 . S
C327 H343 0.960 . S
H328 C312 0.931 . S
H329 C317 0.929 . S
H330 C318 0.960 . S
H331 C318 0.962 . S
H332 C318 0.960 . S
H333 C319 0.961 . S
H334 C319 0.961 . S
H335 C319 0.961 . S
H336 C320 0.931 . S
H337 C325 0.930 . S
H338 C326 0.956 . S
H339 C326 0.961 . S
H340 C326 0.961 . S
H341 C327 0.958 . S
H342 C327 0.961 . S
H343 C327 0.960 . S
C344 C345 1.391 . S
C344 C346 1.394 . S
C344 H360 0.931 . S
C345 C344 1.391 . S
C345 C349 1.376 . S
C346 C344 1.394 . S
C346 C347 1.369 . S
C346 C350 1.531 . S
C347 C346 1.369 . S
C347 C348 1.410 . S
C347 C355 1.503 . S
C348 C347 1.410 . S
C348 C349 1.392 . S
C348 C351 1.511 . S
C349 C345 1.376 . S
C349 C348 1.392 . S
C349 H361 0.929 . S
C350 C346 1.531 . S
C350 H362 0.960 . S
C350 H363 0.962 . S
C350 H364 0.960 . S
C351 C348 1.511 . S
C351 H365 0.961 . S
C351 H366 0.961 . S
C351 H367 0.961 . S
C352 C353 1.370 . S
C352 C354 1.363 . S
C352 H368 0.931 . S
C353 C352 1.370 . S
C353 C357 1.408 . S
C354 C352 1.363 . S
C354 C355 1.370 . S
C354 C358 1.524 . S
C355 C347 1.503 . S
C355 C354 1.370 . S
C355 C356 1.403 . S
C356 C355 1.403 . S
C356 C357 1.404 . S
C356 C359 1.539 . S
C357 C353 1.408 . S
C357 C356 1.404 . S
C357 H369 0.930 . S
C358 C354 1.524 . S
C358 H370 0.956 . S
C358 H371 0.961 . S
C358 H372 0.961 . S
C359 C356 1.539 . S
C359 H373 0.958 . S
C359 H374 0.961 . S
C359 H375 0.960 . S
H360 C344 0.931 . S
H361 C349 0.929 . S
H362 C350 0.960 . S
H363 C350 0.962 . S
H364 C350 0.960 . S
H365 C351 0.961 . S
H366 C351 0.961 . S
H367 C351 0.961 . S
H368 C352 0.931 . S
H369 C357 0.930 . S
H370 C358 0.956 . S
H371 C358 0.961 . S
H372 C358 0.961 . S
H373 C359 0.958 . S
H374 C359 0.961 . S
H375 C359 0.960 . S
C376 C377 1.391 . S
C376 C378 1.394 . S
C376 H392 0.931 . S
C377 C376 1.391 . S
C377 C381 1.376 . S
C378 C376 1.394 . S
C378 C379 1.369 . S
C378 C382 1.531 . S
C379 C378 1.369 . S
C379 C380 1.410 . S
C379 C387 1.503 . S
C380 C379 1.410 . S
C380 C381 1.392 . S
C380 C383 1.511 . S
C381 C377 1.376 . S
C381 C380 1.392 . S
C381 H393 0.929 . S
C382 C378 1.531 . S
C382 H394 0.960 . S
C382 H395 0.962 . S
C382 H396 0.960 . S
C383 C380 1.511 . S
C383 H397 0.961 . S
C383 H398 0.961 . S
C383 H399 0.961 . S
C384 C385 1.370 . S
C384 C386 1.363 . S
C384 H400 0.931 . S
C385 C384 1.370 . S
C385 C389 1.408 . S
C386 C384 1.363 . S
C386 C387 1.370 . S
C386 C390 1.524 . S
C387 C379 1.503 . S
C387 C386 1.370 . S
C387 C388 1.403 . S
C388 C387 1.403 . S
C388 C389 1.404 . S
C388 C391 1.539 . S
C389 C385 1.408 . S
C389 C388 1.404 . S
C389 H401 0.930 . S
C390 C386 1.524 . S
C390 H402 0.956 . S
C390 H403 0.961 . S
C390 H404 0.961 . S
C391 C388 1.539 . S
C391 H405 0.958 . S
C391 H406 0.961 . S
C391 H407 0.960 . S
H392 C376 0.931 . S
H393 C381 0.929 . S
H394 C382 0.960 . S
H395 C382 0.962 . S
H396 C382 0.960 . S
H397 C383 0.961 . S
H398 C383 0.961 . S
H399 C383 0.961 . S
H400 C384 0.931 . S
H401 C389 0.930 . S
H402 C390 0.956 . S
H403 C390 0.961 . S
H404 C390 0.961 . S
H405 C391 0.958 . S
H406 C391 0.961 . S
H407 C391 0.960 . S
C408 C409 1.391 . S
C408 C410 1.394 . S
C408 H424 0.931 . S
C409 C408 1.391 . S
C409 C413 1.376 . S
C410 C408 1.394 . S
C410 C411 1.369 . S
C410 C414 1.531 . S
C411 C410 1.369 . S
C411 C412 1.410 . S
C411 C419 1.503 . S
C412 C411 1.410 . S
C412 C413 1.392 . S
C412 C415 1.511 . S
C413 C409 1.376 . S
C413 C412 1.392 . S
C413 H425 0.929 . S
C414 C410 1.531 . S
C414 H426 0.960 . S
C414 H427 0.962 . S
C414 H428 0.960 . S
C415 C412 1.511 . S
C415 H429 0.961 . S
C415 H430 0.961 . S
C415 H431 0.961 . S
C416 C417 1.370 . S
C416 C418 1.363 . S
C416 H432 0.931 . S
C417 C416 1.370 . S
C417 C421 1.408 . S
C418 C416 1.363 . S
C418 C419 1.370 . S
C418 C422 1.524 . S
C419 C411 1.503 . S
C419 C418 1.370 . S
C419 C420 1.403 . S
C420 C419 1.403 . S
C420 C421 1.404 . S
C420 C423 1.539 . S
C421 C417 1.408 . S
C421 C420 1.404 . S
C421 H433 0.930 . S
C422 C418 1.524 . S
C422 H434 0.956 . S
C422 H435 0.961 . S
C422 H436 0.961 . S
C423 C420 1.539 . S
C423 H437 0.958 . S
C423 H438 0.961 . S
C423 H439 0.960 . S
H424 C408 0.931 . S
H425 C413 0.929 . S
H426 C414 0.960 . S
H427 C414 0.962 . S
H428 C414 0.960 . S
H429 C415 0.961 . S
H430 C415 0.961 . S
H431 C415 0.961 . S
H432 C416 0.931 . S
H433 C421 0.930 . S
H434 C422 0.956 . S
H435 C422 0.961 . S
H436 C422 0.961 . S
H437 C423 0.958 . S
H438 C423 0.961 . S
H439 C423 0.960 . S
C440 C441 1.391 . S
C440 C442 1.394 . S
C440 H456 0.931 . S
C441 C440 1.391 . S
C441 C445 1.376 . S
C442 C440 1.394 . S
C442 C443 1.369 . S
C442 C446 1.531 . S
C443 C442 1.369 . S
C443 C444 1.410 . S
C443 C451 1.503 . S
C444 C443 1.410 . S
C444 C445 1.392 . S
C444 C447 1.511 . S
C445 C441 1.376 . S
C445 C444 1.392 . S
C445 H457 0.929 . S
C446 C442 1.531 . S
C446 H458 0.960 . S
C446 H459 0.962 . S
C446 H460 0.960 . S
C447 C444 1.511 . S
C447 H461 0.961 . S
C447 H462 0.961 . S
C447 H463 0.961 . S
C448 C449 1.370 . S
C448 C450 1.363 . S
C448 H464 0.931 . S
C449 C448 1.370 . S
C449 C453 1.408 . S
C450 C448 1.363 . S
C450 C451 1.370 . S
C450 C454 1.524 . S
C451 C443 1.503 . S
C451 C450 1.370 . S
C451 C452 1.403 . S
C452 C451 1.403 . S
C452 C453 1.404 . S
C452 C455 1.539 . S
C453 C449 1.408 . S
C453 C452 1.404 . S
C453 H465 0.930 . S
C454 C450 1.524 . S
C454 H466 0.956 . S
C454 H467 0.961 . S
C454 H468 0.961 . S
C455 C452 1.539 . S
C455 H469 0.958 . S
C455 H470 0.961 . S
C455 H471 0.960 . S
H456 C440 0.931 . S
H457 C445 0.929 . S
H458 C446 0.960 . S
H459 C446 0.962 . S
H460 C446 0.960 . S
H461 C447 0.961 . S
H462 C447 0.961 . S
H463 C447 0.961 . S
H464 C448 0.931 . S
H465 C453 0.930 . S
H466 C454 0.956 . S
H467 C454 0.961 . S
H468 C454 0.961 . S
H469 C455 0.958 . S
H470 C455 0.961 . S
H471 C455 0.960 . S
C472 C473 1.391 . S
C472 C474 1.394 . S
C472 H488 0.931 . S
C473 C472 1.391 . S
C473 C477 1.376 . S
C474 C472 1.394 . S
C474 C475 1.369 . S
C474 C478 1.531 . S
C475 C474 1.369 . S
C475 C476 1.410 . S
C475 C483 1.503 . S
C476 C475 1.410 . S
C476 C477 1.392 . S
C476 C479 1.511 . S
C477 C473 1.376 . S
C477 C476 1.392 . S
C477 H489 0.929 . S
C478 C474 1.531 . S
C478 H490 0.960 . S
C478 H491 0.962 . S
C478 H492 0.960 . S
C479 C476 1.511 . S
C479 H493 0.961 . S
C479 H494 0.961 . S
C479 H495 0.961 . S
C480 C481 1.370 . S
C480 C482 1.363 . S
C480 H496 0.931 . S
C481 C480 1.370 . S
C481 C485 1.408 . S
C482 C480 1.363 . S
C482 C483 1.370 . S
C482 C486 1.524 . S
C483 C475 1.503 . S
C483 C482 1.370 . S
C483 C484 1.403 . S
C484 C483 1.403 . S
C484 C485 1.404 . S
C484 C487 1.539 . S
C485 C481 1.408 . S
C485 C484 1.404 . S
C485 H497 0.930 . S
C486 C482 1.524 . S
C486 H498 0.956 . S
C486 H499 0.961 . S
C486 H500 0.961 . S
C487 C484 1.539 . S
C487 H501 0.958 . S
C487 H502 0.961 . S
C487 H503 0.960 . S
H488 C472 0.931 . S
H489 C477 0.929 . S
H490 C478 0.960 . S
H491 C478 0.962 . S
H492 C478 0.960 . S
H493 C479 0.961 . S
H494 C479 0.961 . S
H495 C479 0.961 . S
H496 C480 0.931 . S
H497 C485 0.930 . S
H498 C486 0.956 . S
H499 C486 0.961 . S
H500 C486 0.961 . S
H501 C487 0.958 . S
H502 C487 0.961 . S
H503 C487 0.960 . S
C504 C505 1.391 . S
C504 C506 1.394 . S
C504 H520 0.931 . S
C505 C504 1.391 . S
C505 C509 1.376 . S
C506 C504 1.394 . S
C506 C507 1.369 . S
C506 C510 1.531 . S
C507 C506 1.369 . S
C507 C508 1.410 . S
C507 C515 1.503 . S
C508 C507 1.410 . S
C508 C509 1.392 . S
C508 C511 1.511 . S
C509 C505 1.376 . S
C509 C508 1.392 . S
C509 H521 0.929 . S
C510 C506 1.531 . S
C510 H522 0.960 . S
C510 H523 0.962 . S
C510 H524 0.960 . S
C511 C508 1.511 . S
C511 H525 0.961 . S
C511 H526 0.961 . S
C511 H527 0.961 . S
C512 C513 1.370 . S
C512 C514 1.363 . S
C512 H528 0.931 . S
C513 C512 1.370 . S
C513 C517 1.408 . S
C514 C512 1.363 . S
C514 C515 1.370 . S
C514 C518 1.524 . S
C515 C507 1.503 . S
C515 C514 1.370 . S
C515 C516 1.403 . S
C516 C515 1.403 . S
C516 C517 1.404 . S
C516 C519 1.539 . S
C517 C513 1.408 . S
C517 C516 1.404 . S
C517 H529 0.930 . S
C518 C514 1.524 . S
C518 H530 0.956 . S
C518 H531 0.961 . S
C518 H532 0.961 . S
C519 C516 1.539 . S
C519 H533 0.958 . S
C519 H534 0.961 . S
C519 H535 0.960 . S
H520 C504 0.931 . S
H521 C509 0.929 . S
H522 C510 0.960 . S
H523 C510 0.962 . S
H524 C510 0.960 . S
H525 C511 0.961 . S
H526 C511 0.961 . S
H527 C511 0.961 . S
H528 C512 0.931 . S
H529 C517 0.930 . S
H530 C518 0.956 . S
H531 C518 0.961 . S
H532 C518 0.961 . S
H533 C519 0.958 . S
H534 C519 0.961 . S
H535 C519 0.960 . S
C536 C537 1.391 . S
C536 C538 1.394 . S
C536 H552 0.931 . S
C537 C536 1.391 . S
C537 C541 1.376 . S
C538 C536 1.394 . S
C538 C539 1.369 . S
C538 C542 1.531 . S
C539 C538 1.369 . S
C539 C540 1.410 . S
C539 C547 1.503 . S
C540 C539 1.410 . S
C540 C541 1.392 . S
C540 C543 1.511 . S
C541 C537 1.376 . S
C541 C540 1.392 . S
C541 H553 0.929 . S
C542 C538 1.531 . S
C542 H554 0.960 . S
C542 H555 0.962 . S
C542 H556 0.960 . S
C543 C540 1.511 . S
C543 H557 0.961 . S
C543 H558 0.961 . S
C543 H559 0.961 . S
C544 C545 1.370 . S
C544 C546 1.363 . S
C544 H560 0.931 . S
C545 C544 1.370 . S
C545 C549 1.408 . S
C546 C544 1.363 . S
C546 C547 1.370 . S
C546 C550 1.524 . S
C547 C539 1.503 . S
C547 C546 1.370 . S
C547 C548 1.403 . S
C548 C547 1.403 . S
C548 C549 1.404 . S
C548 C551 1.539 . S
C549 C545 1.408 . S
C549 C548 1.404 . S
C549 H561 0.930 . S
C550 C546 1.524 . S
C550 H562 0.956 . S
C550 H563 0.961 . S
C550 H564 0.961 . S
C551 C548 1.539 . S
C551 H565 0.958 . S
C551 H566 0.961 . S
C551 H567 0.960 . S
H552 C536 0.931 . S
H553 C541 0.929 . S
H554 C542 0.960 . S
H555 C542 0.962 . S
H556 C542 0.960 . S
H557 C543 0.961 . S
H558 C543 0.961 . S
H559 C543 0.961 . S
H560 C544 0.931 . S
H561 C549 0.930 . S
H562 C550 0.956 . S
H563 C550 0.961 . S
H564 C550 0.961 . S
H565 C551 0.958 . S
H566 C551 0.961 . S
H567 C551 0.960 . S
C568 C569 1.391 . S
C568 C570 1.394 . S
C568 H584 0.931 . S
C569 C568 1.391 . S
C569 C573 1.376 . S
C570 C568 1.394 . S
C570 C571 1.369 . S
C570 C574 1.531 . S
C571 C570 1.369 . S
C571 C572 1.410 . S
C571 C579 1.503 . S
C572 C571 1.410 . S
C572 C573 1.392 . S
C572 C575 1.511 . S
C573 C569 1.376 . S
C573 C572 1.392 . S
C573 H585 0.929 . S
C574 C570 1.531 . S
C574 H586 0.960 . S
C574 H587 0.962 . S
C574 H588 0.960 . S
C575 C572 1.511 . S
C575 H589 0.961 . S
C575 H590 0.961 . S
C575 H591 0.961 . S
C576 C577 1.370 . S
C576 C578 1.363 . S
C576 H592 0.931 . S
C577 C576 1.370 . S
C577 C581 1.408 . S
C578 C576 1.363 . S
C578 C579 1.370 . S
C578 C582 1.524 . S
C579 C571 1.503 . S
C579 C578 1.370 . S
C579 C580 1.403 . S
C580 C579 1.403 . S
C580 C581 1.404 . S
C580 C583 1.539 . S
C581 C577 1.408 . S
C581 C580 1.404 . S
C581 H593 0.930 . S
C582 C578 1.524 . S
C582 H594 0.956 . S
C582 H595 0.961 . S
C582 H596 0.961 . S
C583 C580 1.539 . S
C583 H597 0.958 . S
C583 H598 0.961 . S
C583 H599 0.960 . S
H584 C568 0.931 . S
H585 C573 0.929 . S
H586 C574 0.960 . S
H587 C574 0.962 . S
H588 C574 0.960 . S
H589 C575 0.961 . S
H590 C575 0.961 . S
H591 C575 0.961 . S
H592 C576 0.931 . S
H593 C581 0.930 . S
H594 C582 0.956 . S
H595 C582 0.961 . S
H596 C582 0.961 . S
H597 C583 0.958 . S
H598 C583 0.961 . S
H599 C583 0.960 . S
C600 C601 1.391 . S
C600 C602 1.394 . S
C600 H616 0.931 . S
C601 C600 1.391 . S
C601 C605 1.376 . S
C602 C600 1.394 . S
C602 C603 1.369 . S
C602 C606 1.531 . S
C603 C602 1.369 . S
C603 C604 1.410 . S
C603 C611 1.503 . S
C604 C603 1.410 . S
C604 C605 1.392 . S
C604 C607 1.511 . S
C605 C601 1.376 . S
C605 C604 1.392 . S
C605 H617 0.929 . S
C606 C602 1.531 . S
C606 H618 0.960 . S
C606 H619 0.962 . S
C606 H620 0.960 . S
C607 C604 1.511 . S
C607 H621 0.961 . S
C607 H622 0.961 . S
C607 H623 0.961 . S
C608 C609 1.370 . S
C608 C610 1.363 . S
C608 H624 0.931 . S
C609 C608 1.370 . S
C609 C613 1.408 . S
C610 C608 1.363 . S
C610 C611 1.370 . S
C610 C614 1.524 . S
C611 C603 1.503 . S
C611 C610 1.370 . S
C611 C612 1.403 . S
C612 C611 1.403 . S
C612 C613 1.404 . S
C612 C615 1.539 . S
C613 C609 1.408 . S
C613 C612 1.404 . S
C613 H625 0.930 . S
C614 C610 1.524 . S
C614 H626 0.956 . S
C614 H627 0.961 . S
C614 H628 0.961 . S
C615 C612 1.539 . S
C615 H629 0.958 . S
C615 H630 0.961 . S
C615 H631 0.960 . S
H616 C600 0.931 . S
H617 C605 0.929 . S
H618 C606 0.960 . S
H619 C606 0.962 . S
H620 C606 0.960 . S
H621 C607 0.961 . S
H622 C607 0.961 . S
H623 C607 0.961 . S
H624 C608 0.931 . S
H625 C613 0.930 . S
H626 C614 0.956 . S
H627 C614 0.961 . S
H628 C614 0.961 . S
H629 C615 0.958 . S
H630 C615 0.961 . S
H631 C615 0.960 . S
C632 C633 1.391 . S
C632 C634 1.394 . S
C632 H648 0.931 . S
C633 C632 1.391 . S
C633 C637 1.376 . S
C634 C632 1.394 . S
C634 C635 1.369 . S
C634 C638 1.531 . S
C635 C634 1.369 . S
C635 C636 1.410 . S
C635 C643 1.503 . S
C636 C635 1.410 . S
C636 C637 1.392 . S
C636 C639 1.511 . S
C637 C633 1.376 . S
C637 C636 1.392 . S
C637 H649 0.929 . S
C638 C634 1.531 . S
C638 H650 0.960 . S
C638 H651 0.962 . S
C638 H652 0.960 . S
C639 C636 1.511 . S
C639 H653 0.961 . S
C639 H654 0.961 . S
C639 H655 0.961 . S
C640 C641 1.370 . S
C640 C642 1.363 . S
C640 H656 0.931 . S
C641 C640 1.370 . S
C641 C645 1.408 . S
C642 C640 1.363 . S
C642 C643 1.370 . S
C642 C646 1.524 . S
C643 C635 1.503 . S
C643 C642 1.370 . S
C643 C644 1.403 . S
C644 C643 1.403 . S
C644 C645 1.404 . S
C644 C647 1.539 . S
C645 C641 1.408 . S
C645 C644 1.404 . S
C645 H657 0.930 . S
C646 C642 1.524 . S
C646 H658 0.956 . S
C646 H659 0.961 . S
C646 H660 0.961 . S
C647 C644 1.539 . S
C647 H661 0.958 . S
C647 H662 0.961 . S
C647 H663 0.960 . S
H648 C632 0.931 . S
H649 C637 0.929 . S
H650 C638 0.960 . S
H651 C638 0.962 . S
H652 C638 0.960 . S
H653 C639 0.961 . S
H654 C639 0.961 . S
H655 C639 0.961 . S
H656 C640 0.931 . S
H657 C645 0.930 . S
H658 C646 0.956 . S
H659 C646 0.961 . S
H660 C646 0.961 . S
H661 C647 0.958 . S
H662 C647 0.961 . S
H663 C647 0.960 . S
C664 C665 1.391 . S
C664 C666 1.394 . S
C664 H680 0.931 . S
C665 C664 1.391 . S
C665 C669 1.376 . S
C666 C664 1.394 . S
C666 C667 1.369 . S
C666 C670 1.531 . S
C667 C666 1.369 . S
C667 C668 1.410 . S
C667 C675 1.503 . S
C668 C667 1.410 . S
C668 C669 1.392 . S
C668 C671 1.511 . S
C669 C665 1.376 . S
C669 C668 1.392 . S
C669 H681 0.929 . S
C670 C666 1.531 . S
C670 H682 0.960 . S
C670 H683 0.962 . S
C670 H684 0.960 . S
C671 C668 1.511 . S
C671 H685 0.961 . S
C671 H686 0.961 . S
C671 H687 0.961 . S
C672 C673 1.370 . S
C672 C674 1.363 . S
C672 H688 0.931 . S
C673 C672 1.370 . S
C673 C677 1.408 . S
C674 C672 1.363 . S
C674 C675 1.370 . S
C674 C678 1.524 . S
C675 C667 1.503 . S
C675 C674 1.370 . S
C675 C676 1.403 . S
C676 C675 1.403 . S
C676 C677 1.404 . S
C676 C679 1.539 . S
C677 C673 1.408 . S
C677 C676 1.404 . S
C677 H689 0.930 . S
C678 C674 1.524 . S
C678 H690 0.956 . S
C678 H691 0.961 . S
C678 H692 0.961 . S
C679 C676 1.539 . S
C679 H693 0.958 . S
C679 H694 0.961 . S
C679 H695 0.960 . S
H680 C664 0.931 . S
H681 C669 0.929 . S
H682 C670 0.960 . S
H683 C670 0.962 . S
H684 C670 0.960 . S
H685 C671 0.961 . S
H686 C671 0.961 . S
H687 C671 0.961 . S
H688 C672 0.931 . S
H689 C677 0.930 . S
H690 C678 0.956 . S
H691 C678 0.961 . S
H692 C678 0.961 . S
H693 C679 0.958 . S
H694 C679 0.961 . S
H695 C679 0.960 . S
C696 C697 1.391 . S
C696 C698 1.394 . S
C696 H712 0.931 . S
C697 C696 1.391 . S
C697 C701 1.376 1_554 S
C698 C696 1.394 . S
C698 C699 1.369 1_554 S
C698 C702 1.531 . S
C699 C698 1.369 1_556 S
C699 C700 1.410 . S
C699 C707 1.503 . S
C700 C699 1.410 . S
C700 C701 1.392 . S
C700 C703 1.511 . S
C701 C697 1.376 1_556 S
C701 C700 1.392 . S
C701 H713 0.929 . S
C702 C698 1.531 . S
C702 H714 0.960 . S
C702 H715 0.962 . S
C702 H716 0.960 . S
C703 C700 1.511 . S
C703 H717 0.961 . S
C703 H718 0.961 . S
C703 H719 0.961 . S
C704 C705 1.370 . S
C704 C706 1.363 . S
C704 H720 0.931 . S
C705 C704 1.370 . S
C705 C709 1.408 1_554 S
C706 C704 1.363 . S
C706 C707 1.370 1_554 S
C706 C710 1.524 . S
C707 C699 1.503 . S
C707 C706 1.370 1_556 S
C707 C708 1.403 . S
C708 C707 1.403 . S
C708 C709 1.404 . S
C708 C711 1.539 . S
C709 C705 1.408 1_556 S
C709 C708 1.404 . S
C709 H721 0.930 . S
C710 C706 1.524 . S
C710 H722 0.956 . S
C710 H723 0.961 . S
C710 H724 0.961 . S
C711 C708 1.539 . S
C711 H725 0.958 . S
C711 H726 0.961 . S
C711 H727 0.960 . S
H712 C696 0.931 . S
H713 C701 0.929 . S
H714 C702 0.960 . S
H715 C702 0.962 . S
H716 C702 0.960 . S
H717 C703 0.961 . S
H718 C703 0.961 . S
H719 C703 0.961 . S
H720 C704 0.931 . S
H721 C709 0.930 . S
H722 C710 0.956 . S
H723 C710 0.961 . S
H724 C710 0.961 . S
H725 C711 0.958 . S
H726 C711 0.961 . S
H727 C711 0.960 . S
C728 C729 1.391 . S
C728 C730 1.394 . S
C728 H744 0.931 . S
C729 C728 1.391 . S
C729 C733 1.376 . S
C730 C728 1.394 . S
C730 C731 1.369 . S
C730 C734 1.531 . S
C731 C730 1.369 . S
C731 C732 1.410 . S
C731 C739 1.503 . S
C732 C731 1.410 . S
C732 C733 1.392 . S
C732 C735 1.511 . S
C733 C729 1.376 . S
C733 C732 1.392 . S
C733 H745 0.929 . S
C734 C730 1.531 . S
C734 H746 0.960 . S
C734 H747 0.962 . S
C734 H748 0.960 . S
C735 C732 1.511 . S
C735 H749 0.961 . S
C735 H750 0.961 . S
C735 H751 0.961 . S
C736 C737 1.370 . S
C736 C738 1.363 . S
C736 H752 0.931 . S
C737 C736 1.370 . S
C737 C741 1.408 . S
C738 C736 1.363 . S
C738 C739 1.370 . S
C738 C742 1.524 . S
C739 C731 1.503 . S
C739 C738 1.370 . S
C739 C740 1.403 . S
C740 C739 1.403 . S
C740 C741 1.404 . S
C740 C743 1.539 . S
C741 C737 1.408 . S
C741 C740 1.404 . S
C741 H753 0.930 . S
C742 C738 1.524 . S
C742 H754 0.956 . S
C742 H755 0.961 . S
C742 H756 0.961 . S
C743 C740 1.539 . S
C743 H757 0.958 . S
C743 H758 0.961 . S
C743 H759 0.960 . S
H744 C728 0.931 . S
H745 C733 0.929 . S
H746 C734 0.960 . S
H747 C734 0.962 . S
H748 C734 0.960 . S
H749 C735 0.961 . S
H750 C735 0.961 . S
H751 C735 0.961 . S
H752 C736 0.931 . S
H753 C741 0.930 . S
H754 C742 0.956 . S
H755 C742 0.961 . S
H756 C742 0.961 . S
H757 C743 0.958 . S
H758 C743 0.961 . S
H759 C743 0.960 . S
C760 C761 1.391 . S
C760 C762 1.394 . S
C760 H776 0.931 . S
C761 C760 1.391 . S
C761 C765 1.376 1_554 S
C762 C760 1.394 . S
C762 C763 1.369 . S
C762 C766 1.531 . S
C763 C762 1.369 . S
C763 C764 1.410 1_554 S
C763 C771 1.503 . S
C764 C763 1.410 1_556 S
C764 C765 1.392 . S
C764 C767 1.511 . S
C765 C761 1.376 1_556 S
C765 C764 1.392 . S
C765 H777 0.929 . S
C766 C762 1.531 . S
C766 H778 0.960 . S
C766 H779 0.962 . S
C766 H780 0.960 . S
C767 C764 1.511 . S
C767 H781 0.961 . S
C767 H782 0.961 . S
C767 H783 0.961 . S
C768 C769 1.370 1_556 S
C768 C770 1.363 . S
C768 H784 0.931 . S
C769 C768 1.370 1_554 S
C769 C773 1.408 . S
C770 C768 1.363 . S
C770 C771 1.370 1_556 S
C770 C774 1.524 . S
C771 C763 1.503 . S
C771 C770 1.370 1_554 S
C771 C772 1.403 . S
C772 C771 1.403 . S
C772 C773 1.404 . S
C772 C775 1.539 . S
C773 C769 1.408 . S
C773 C772 1.404 . S
C773 H785 0.930 . S
C774 C770 1.524 . S
C774 H786 0.956 . S
C774 H787 0.961 . S
C774 H788 0.961 . S
C775 C772 1.539 . S
C775 H789 0.958 . S
C775 H790 0.961 . S
C775 H791 0.960 . S
H776 C760 0.931 . S
H777 C765 0.929 . S
H778 C766 0.960 . S
H779 C766 0.962 . S
H780 C766 0.960 . S
H781 C767 0.961 . S
H782 C767 0.961 . S
H783 C767 0.961 . S
H784 C768 0.931 . S
H785 C773 0.930 . S
H786 C774 0.956 . S
H787 C774 0.961 . S
H788 C774 0.961 . S
H789 C775 0.958 . S
H790 C775 0.961 . S
H791 C775 0.960 . S
C792 C793 1.391 . S
C792 C794 1.394 . S
C792 H808 0.931 . S
C793 C792 1.391 . S
C793 C797 1.376 . S
C794 C792 1.394 . S
C794 C795 1.369 . S
C794 C798 1.531 . S
C795 C794 1.369 . S
C795 C796 1.410 . S
C795 C803 1.503 . S
C796 C795 1.410 . S
C796 C797 1.392 . S
C796 C799 1.511 . S
C797 C793 1.376 . S
C797 C796 1.392 . S
C797 H809 0.929 . S
C798 C794 1.531 . S
C798 H810 0.960 . S
C798 H811 0.962 . S
C798 H812 0.960 . S
C799 C796 1.511 . S
C799 H813 0.961 . S
C799 H814 0.961 . S
C799 H815 0.961 . S
C800 C801 1.370 . S
C800 C802 1.363 . S
C800 H816 0.931 . S
C801 C800 1.370 . S
C801 C805 1.408 . S
C802 C800 1.363 . S
C802 C803 1.370 . S
C802 C806 1.524 . S
C803 C795 1.503 . S
C803 C802 1.370 . S
C803 C804 1.403 . S
C804 C803 1.403 . S
C804 C805 1.404 . S
C804 C807 1.539 . S
C805 C801 1.408 . S
C805 C804 1.404 . S
C805 H817 0.930 . S
C806 C802 1.524 . S
C806 H818 0.956 . S
C806 H819 0.961 . S
C806 H820 0.961 . S
C807 C804 1.539 . S
C807 H821 0.958 . S
C807 H822 0.961 . S
C807 H823 0.960 . S
H808 C792 0.931 . S
H809 C797 0.929 . S
H810 C798 0.960 . S
H811 C798 0.962 . S
H812 C798 0.960 . S
H813 C799 0.961 . S
H814 C799 0.961 . S
H815 C799 0.961 . S
H816 C800 0.931 . S
H817 C805 0.930 . S
H818 C806 0.956 . S
H819 C806 0.961 . S
H820 C806 0.961 . S
H821 C807 0.958 . S
H822 C807 0.961 . S
H823 C807 0.960 . S
C824 C825 1.391 . S
C824 C826 1.394 . S
C824 H840 0.931 . S
C825 C824 1.391 . S
C825 C829 1.376 . S
C826 C824 1.394 . S
C826 C827 1.369 . S
C826 C830 1.531 . S
C827 C826 1.369 . S
C827 C828 1.410 . S
C827 C835 1.503 . S
C828 C827 1.410 . S
C828 C829 1.392 . S
C828 C831 1.511 . S
C829 C825 1.376 . S
C829 C828 1.392 . S
C829 H841 0.929 . S
C830 C826 1.531 . S
C830 H842 0.960 . S
C830 H843 0.962 . S
C830 H844 0.960 . S
C831 C828 1.511 . S
C831 H845 0.961 . S
C831 H846 0.961 . S
C831 H847 0.961 . S
C832 C833 1.370 . S
C832 C834 1.363 . S
C832 H848 0.931 . S
C833 C832 1.370 . S
C833 C837 1.408 . S
C834 C832 1.363 . S
C834 C835 1.370 . S
C834 C838 1.524 . S
C835 C827 1.503 . S
C835 C834 1.370 . S
C835 C836 1.403 . S
C836 C835 1.403 . S
C836 C837 1.404 . S
C836 C839 1.539 . S
C837 C833 1.408 . S
C837 C836 1.404 . S
C837 H849 0.930 . S
C838 C834 1.524 . S
C838 H850 0.956 . S
C838 H851 0.961 . S
C838 H852 0.961 . S
C839 C836 1.539 . S
C839 H853 0.958 . S
C839 H854 0.961 . S
C839 H855 0.960 . S
H840 C824 0.931 . S
H841 C829 0.929 . S
H842 C830 0.960 . S
H843 C830 0.962 . S
H844 C830 0.960 . S
H845 C831 0.961 . S
H846 C831 0.961 . S
H847 C831 0.961 . S
H848 C832 0.931 . S
H849 C837 0.930 . S
H850 C838 0.956 . S
H851 C838 0.961 . S
H852 C838 0.961 . S
H853 C839 0.958 . S
H854 C839 0.961 . S
H855 C839 0.960 . S
C856 C857 1.391 1_556 S
C856 C858 1.394 . S
C856 H872 0.931 . S
C857 C856 1.391 1_554 S
C857 C861 1.376 . S
C858 C856 1.394 . S
C858 C859 1.369 1_556 S
C858 C862 1.531 . S
C859 C858 1.369 1_554 S
C859 C860 1.410 . S
C859 C867 1.503 . S
C860 C859 1.410 . S
C860 C861 1.392 . S
C860 C863 1.511 . S
C861 C857 1.376 . S
C861 C860 1.392 . S
C861 H873 0.929 . S
C862 C858 1.531 . S
C862 H874 0.960 . S
C862 H875 0.962 . S
C862 H876 0.960 . S
C863 C860 1.511 . S
C863 H877 0.961 . S
C863 H878 0.961 . S
C863 H879 0.961 . S
C864 C865 1.370 . S
C864 C866 1.363 . S
C864 H880 0.931 . S
C865 C864 1.370 . S
C865 C869 1.408 1_554 S
C866 C864 1.363 . S
C866 C867 1.370 . S
C866 C870 1.524 . S
C867 C859 1.503 . S
C867 C866 1.370 . S
C867 C868 1.403 1_554 S
C868 C867 1.403 1_556 S
C868 C869 1.404 . S
C868 C871 1.539 . S
C869 C865 1.408 1_556 S
C869 C868 1.404 . S
C869 H881 0.930 . S
C870 C866 1.524 . S
C870 H882 0.956 1_554 S
C870 H883 0.961 . S
C870 H884 0.961 . S
C871 C868 1.539 . S
C871 H885 0.958 . S
C871 H886 0.961 1_556 S
C871 H887 0.960 1_556 S
H872 C856 0.931 . S
H873 C861 0.929 . S
H874 C862 0.960 . S
H875 C862 0.962 . S
H876 C862 0.960 . S
H877 C863 0.961 . S
H878 C863 0.961 . S
H879 C863 0.961 . S
H880 C864 0.931 . S
H881 C869 0.930 . S
H882 C870 0.956 1_556 S
H883 C870 0.961 . S
H884 C870 0.961 . S
H885 C871 0.958 . S
H886 C871 0.961 1_554 S
H887 C871 0.960 1_554 S
C888 C889 1.391 . S
C888 C890 1.394 . S
C888 H904 0.931 . S
C889 C888 1.391 . S
C889 C893 1.376 . S
C890 C888 1.394 . S
C890 C891 1.369 . S
C890 C894 1.531 . S
C891 C890 1.369 . S
C891 C892 1.410 . S
C891 C899 1.503 . S
C892 C891 1.410 . S
C892 C893 1.392 . S
C892 C895 1.511 . S
C893 C889 1.376 . S
C893 C892 1.392 . S
C893 H905 0.929 . S
C894 C890 1.531 . S
C894 H906 0.960 . S
C894 H907 0.962 . S
C894 H908 0.960 . S
C895 C892 1.511 . S
C895 H909 0.961 . S
C895 H910 0.961 . S
C895 H911 0.961 . S
C896 C897 1.370 . S
C896 C898 1.363 . S
C896 H912 0.931 . S
C897 C896 1.370 . S
C897 C901 1.408 . S
C898 C896 1.363 . S
C898 C899 1.370 . S
C898 C902 1.524 . S
C899 C891 1.503 . S
C899 C898 1.370 . S
C899 C900 1.403 . S
C900 C899 1.403 . S
C900 C901 1.404 . S
C900 C903 1.539 . S
C901 C897 1.408 . S
C901 C900 1.404 . S
C901 H913 0.930 . S
C902 C898 1.524 . S
C902 H914 0.956 . S
C902 H915 0.961 . S
C902 H916 0.961 . S
C903 C900 1.539 . S
C903 H917 0.958 . S
C903 H918 0.961 . S
C903 H919 0.960 . S
H904 C888 0.931 . S
H905 C893 0.929 . S
H906 C894 0.960 . S
H907 C894 0.962 . S
H908 C894 0.960 . S
H909 C895 0.961 . S
H910 C895 0.961 . S
H911 C895 0.961 . S
H912 C896 0.931 . S
H913 C901 0.930 . S
H914 C902 0.956 . S
H915 C902 0.961 . S
H916 C902 0.961 . S
H917 C903 0.958 . S
H918 C903 0.961 . S
H919 C903 0.960 . S
C920 C921 1.391 . S
C920 C922 1.394 . S
C920 H936 0.931 . S
C921 C920 1.391 . S
C921 C925 1.376 . S
C922 C920 1.394 . S
C922 C923 1.369 . S
C922 C926 1.531 . S
C923 C922 1.369 . S
C923 C924 1.410 . S
C923 C931 1.503 . S
C924 C923 1.410 . S
C924 C925 1.392 . S
C924 C927 1.511 1_554 S
C925 C921 1.376 . S
C925 C924 1.392 . S
C925 H937 0.929 1_554 S
C926 C922 1.531 . S
C926 H938 0.960 . S
C926 H939 0.962 . S
C926 H940 0.960 . S
C927 C924 1.511 1_556 S
C927 H941 0.961 . S
C927 H942 0.961 . S
C927 H943 0.961 1_556 S
C928 C929 1.370 1_556 S
C928 C930 1.363 . S
C928 H944 0.931 . S
C929 C928 1.370 1_554 S
C929 C933 1.408 . S
C930 C928 1.363 . S
C930 C931 1.370 1_556 S
C930 C934 1.524 . S
C931 C923 1.503 . S
C931 C930 1.370 1_554 S
C931 C932 1.403 . S
C932 C931 1.403 . S
C932 C933 1.404 . S
C932 C935 1.539 . S
C933 C929 1.408 . S
C933 C932 1.404 . S
C933 H945 0.930 . S
C934 C930 1.524 . S
C934 H946 0.956 . S
C934 H947 0.961 . S
C934 H948 0.961 . S
C935 C932 1.539 . S
C935 H949 0.958 . S
C935 H950 0.961 . S
C935 H951 0.960 . S
H936 C920 0.931 . S
H937 C925 0.929 1_556 S
H938 C926 0.960 . S
H939 C926 0.962 . S
H940 C926 0.960 . S
H941 C927 0.961 . S
H942 C927 0.961 . S
H943 C927 0.961 1_554 S
H944 C928 0.931 . S
H945 C933 0.930 . S
H946 C934 0.956 . S
H947 C934 0.961 . S
H948 C934 0.961 . S
H949 C935 0.958 . S
H950 C935 0.961 . S
H951 C935 0.960 . S
C185 C5 1.450 . S
C193 C130 1.466 . S
C217 C31 1.458 . S
C225 C94 1.473 . S
C257 C109 1.480 . S
C249 C53 1.498 . S
C281 C71 1.479 . S
C289 C121 1.467 . S
C321 C157 1.452 . S
C313 C75 1.452 . S
C353 C169 1.462 . S
C345 C9 1.465 . S
C385 C178 1.470 . S
C377 C27 1.445 . S
C417 C142 1.461 . S
C409 C49 1.430 . S
C441 C51 1.427 . S
C449 C106 1.449 . S
C473 C72 1.477 . S
C481 C118 1.473 . S
C505 C6 1.481 . S
C513 C133 1.470 . S
C545 C97 1.456 . S
C537 C29 1.458 . S
C569 C28 1.479 . S
C577 C181 1.474 . S
C609 C145 1.485 . S
C601 C50 1.495 . S
C641 C154 1.459 . S
C633 C73 1.443 . S
C665 C7 1.447 . S
C673 C166 1.456 . S
C705 C92 1.508 . S
C697 C4 1.490 . S
C737 C104 1.511 . S
C729 C30 1.514 . S
C761 C52 1.488 . S
C769 C116 1.512 . S
C793 C70 1.502 . S
C801 C128 1.501 . S
C833 C140 1.498 . S
C825 C74 1.495 . S
C857 C8 1.482 . S
C865 C152 1.508 . S
C889 C26 1.511 . S
C897 C164 1.509 . S
C921 C48 1.503 . S
C929 C176 1.511 . S
