# Generated by pormake.
# Topology ssa, (4,4)-cn, num edge types: 1
# Building blocks:
#     Node 0, Type 0, BuildingBlock: ESEHIV_clean_sbu_0, # of connection points: 4
#     Node 1, Type 0, BuildingBlock: ESEHIV_clean_sbu_0, # of connection points: 4
#     Node 2, Type 0, BuildingBlock: ESEHIV_clean_sbu_0, # of connection points: 4
#     Node 3, Type 0, BuildingBlock: ESEHIV_clean_sbu_0, # of connection points: 4
#     Node 4, Type 0, BuildingBlock: ESEHIV_clean_sbu_0, # of connection points: 4
#     Node 5, Type 0, BuildingBlock: ESEHIV_clean_sbu_0, # of connection points: 4
#     Node 6, Type 1, BuildingBlock: NAHDIM_clean_linker_0, # of connection points: 4
#     Node 7, Type 1, BuildingBlock: NAHDIM_clean_linker_0, # of connection points: 4
#     Node 8, Type 1, BuildingBlock: NAHDIM_clean_linker_0, # of connection points: 4
#     Node 9, Type 1, BuildingBlock: NAHDIM_clean_linker_0, # of connection points: 4
#     Node 10, Type 1, BuildingBlock: NAHDIM_clean_linker_0, # of connection points: 4
#     Node 11, Type 1, BuildingBlock: NAHDIM_clean_linker_0, # of connection points: 4
#     Edge 12, Type (0, 1), BuildingBlock: ZUJKAS_clean_linker_0, # of connection points: 2
#     Edge 13, Type (0, 1), BuildingBlock: ZUJKAS_clean_linker_0, # of connection points: 2
#     Edge 14, Type (0, 1), BuildingBlock: ZUJKAS_clean_linker_0, # of connection points: 2
#     Edge 15, Type (0, 1), BuildingBlock: ZUJKAS_clean_linker_0, # of connection points: 2
#     Edge 16, Type (0, 1), BuildingBlock: ZUJKAS_clean_linker_0, # of connection points: 2
#     Edge 17, Type (0, 1), BuildingBlock: ZUJKAS_clean_linker_0, # of connection points: 2
#     Edge 18, Type (0, 1), BuildingBlock: ZUJKAS_clean_linker_0, # of connection points: 2
#     Edge 19, Type (0, 1), BuildingBlock: ZUJKAS_clean_linker_0, # of connection points: 2
#     Edge 20, Type (0, 1), BuildingBlock: ZUJKAS_clean_linker_0, # of connection points: 2
#     Edge 21, Type (0, 1), BuildingBlock: ZUJKAS_clean_linker_0, # of connection points: 2
#     Edge 22, Type (0, 1), BuildingBlock: ZUJKAS_clean_linker_0, # of connection points: 2
#     Edge 23, Type (0, 1), BuildingBlock: ZUJKAS_clean_linker_0, # of connection points: 2
#     Edge 24, Type (0, 1), BuildingBlock: ZUJKAS_clean_linker_0, # of connection points: 2
#     Edge 25, Type (0, 1), BuildingBlock: ZUJKAS_clean_linker_0, # of connection points: 2
#     Edge 26, Type (0, 1), BuildingBlock: ZUJKAS_clean_linker_0, # of connection points: 2
#     Edge 27, Type (0, 1), BuildingBlock: ZUJKAS_clean_linker_0, # of connection points: 2
#     Edge 28, Type (0, 1), BuildingBlock: ZUJKAS_clean_linker_0, # of connection points: 2
#     Edge 29, Type (0, 1), BuildingBlock: ZUJKAS_clean_linker_0, # of connection points: 2
#     Edge 30, Type (0, 1), BuildingBlock: ZUJKAS_clean_linker_0, # of connection points: 2
#     Edge 31, Type (0, 1), BuildingBlock: ZUJKAS_clean_linker_0, # of connection points: 2
#     Edge 32, Type (0, 1), BuildingBlock: ZUJKAS_clean_linker_0, # of connection points: 2
#     Edge 33, Type (0, 1), BuildingBlock: ZUJKAS_clean_linker_0, # of connection points: 2
#     Edge 34, Type (0, 1), BuildingBlock: ZUJKAS_clean_linker_0, # of connection points: 2
#     Edge 35, Type (0, 1), BuildingBlock: ZUJKAS_clean_linker_0, # of connection points: 2
# Relax obj value: 0.016
# Max RMSD: 0.105
# Mean RMSD: 0.070
data_MOF--net-ssa--node1-ESEHIV_clean_sbu_0--node2-NAHDIM_clean_linker_0--edge1-ZUJKAS_clean_linker_0
_symmetry_space_group_name_H-M    P1
_symmetry_Int_Tables_number       1
_symmetry_cell_setting            triclinic
loop_
_symmetry_equiv_pos_as_xyz
'x, y, z'
_cell_length_a     75.050458
_cell_length_b     78.530543
_cell_length_c     66.298739
_cell_angle_alpha  88.707758
_cell_angle_beta   90.924867
_cell_angle_gamma 121.54527
loop_
_atom_site_label
_atom_site_type_symbol
_atom_site_fract_x
_atom_site_fract_y
_atom_site_fract_z
_atom_type_partial_charge
Cu0 Cu 0.01544 0.50318 0.01051 0.0
N1 N 0.99154 0.47789 0.01001 0.0
N2 N 0.96808 0.44767 0.99862 0.0
C3 C 0.98391 0.46622 0.99375 0.0
C4 C 0.96563 0.4477 0.01874 0.0
C5 C 0.98015 0.46643 0.02574 0.0
O6 O 0.01724 0.51524 0.98413 0.0
C7 C 0.05741 0.51141 0.01922 0.0
O8 O 0.06508 0.52989 0.01279 0.0
H9 H 0.99063 0.47093 0.97884 0.0
H10 H 0.98279 0.47114 0.04127 0.0
N11 N 0.01244 0.51803 0.03015 0.0
N12 N 0.02046 0.54103 0.05351 0.0
C13 C 0.02758 0.5319 0.04199 0.0
C14 C 0.99509 0.51823 0.03436 0.0
C15 C 0.99997 0.53239 0.04881 0.0
C16 C 0.02326 0.53359 0.98155 0.0
O17 O 0.03265 0.54599 0.99646 0.0
H18 H 0.04354 0.53537 0.04192 0.0
H19 H 0.98011 0.50909 0.02702 0.0
O20 O 0.03785 0.49892 0.01816 0.0
H21 H 0.95447 0.435 0.02779 0.0
H22 H 0.98941 0.53647 0.05482 0.0
Cu23 Cu 0.51918 0.01048 0.51044 0.0
N24 N 0.53732 0.01391 0.48964 0.0
N25 N 0.55321 0.00577 0.46694 0.0
C26 C 0.53714 0.99894 0.47994 0.0
C27 C 0.56391 0.02585 0.46853 0.0
C28 C 0.55407 0.03083 0.48255 0.0
O29 O 0.49231 0.98677 0.50455 0.0
C30 C 0.54788 0.02642 0.54074 0.0
O31 O 0.55311 0.0421 0.52912 0.0
H32 H 0.52586 0.9833 0.48297 0.0
H33 H 0.55908 0.0457 0.48758 0.0
N34 N 0.51476 0.03176 0.51189 0.0
N35 N 0.50536 0.05196 0.5248 0.0
C36 C 0.50632 0.03539 0.52774 0.0
C37 C 0.51924 0.04646 0.49834 0.0
C38 C 0.51349 0.05898 0.50628 0.0
C39 C 0.48444 0.98816 0.48789 0.0
O40 O 0.49506 0.00461 0.47697 0.0
H41 H 0.5014 0.02621 0.54134 0.0
H42 H 0.52616 0.04796 0.48373 0.0
O43 O 0.53234 0.00954 0.53559 0.0
H44 H 0.57794 0.03621 0.46028 0.0
H45 H 0.51498 0.07208 0.49887 0.0
Cu46 Cu 0.52661 0.5036 0.03025 0.0
N47 N 0.5228 0.47821 0.02915 0.0
N48 N 0.51299 0.44844 0.01635 0.0
C49 C 0.51416 0.46605 0.01333 0.0
C50 C 0.52128 0.4496 0.03487 0.0
C51 C 0.52724 0.46799 0.04278 0.0
O52 O 0.53803 0.51611 0.00423 0.0
C53 C 0.49267 0.49249 0.05366 0.0
O54 O 0.50391 0.48788 0.06533 0.0
H55 H 0.50907 0.47022 0.99974 0.0
H56 H 0.53414 0.47341 0.05747 0.0
N57 N 0.54528 0.51897 0.05068 0.0
N58 N 0.56069 0.54273 0.07385 0.0
C59 C 0.54499 0.53373 0.06029 0.0
C60 C 0.56172 0.51854 0.05842 0.0
C61 C 0.57121 0.53314 0.07284 0.0
C62 C 0.55114 0.53469 0.00169 0.0
O63 O 0.55501 0.5469 0.0166 0.0
H64 H 0.53348 0.53783 0.05728 0.0
H65 H 0.56666 0.50855 0.05369 0.0
O66 O 0.49968 0.50012 0.03628 0.0
H67 H 0.52262 0.43791 0.04231 0.0
H68 H 0.58509 0.53677 0.08148 0.0
Cu69 Cu 0.99401 0.49052 0.50526 0.0
N70 N 0.99026 0.47457 0.48335 0.0
N71 N 0.99909 0.46137 0.45881 0.0
C72 C 0.006 0.47573 0.47279 0.0
C73 C 0.97805 0.45079 0.46062 0.0
C74 C 0.97264 0.45902 0.47579 0.0
O75 O 0.02056 0.5153 0.50084 0.0
C76 C 0.99799 0.46339 0.53144 0.0
O77 O 0.0081 0.46175 0.51635 0.0
H78 H 0.0223 0.48633 0.47611 0.0
H79 H 0.95707 0.45373 0.48128 0.0
N80 N 0.97286 0.49615 0.50606 0.0
N81 N 0.9515 0.50473 0.51921 0.0
C82 C 0.96454 0.49805 0.52303 0.0
C83 C 0.96474 0.50165 0.49086 0.0
C84 C 0.95154 0.507 0.49895 0.0
C85 C 0.02426 0.53235 0.50609 0.0
O86 O 0.01095 0.53339 0.51783 0.0
H87 H 0.96902 0.49576 0.53798 0.0
H88 H 0.96879 0.50247 0.47514 0.0
O89 O 0.99223 0.47601 0.53007 0.0
H90 H 0.96735 0.43786 0.45187 0.0
H91 H 0.94306 0.51257 0.49062 0.0
Cu92 Cu 0.5235 0.01777 0.027 0.0
N93 N 0.52282 0.04101 0.02453 0.0
N94 N 0.51573 0.06287 0.01038 0.0
C95 C 0.51867 0.0476 0.00727 0.0
C96 C 0.51818 0.06605 0.03043 0.0
C97 C 0.52262 0.05253 0.03914 0.0
O98 O 0.53221 0.01402 1.00083 0.0
C99 C 0.48788 0.9784 0.03672 0.0
O100 O 0.49795 0.9706 0.02891 0.0
H101 H 0.51643 0.04042 0.99291 0.0
H102 H 0.52453 0.05056 0.05507 0.0
N103 N 0.54286 0.02064 0.04663 0.0
N104 N 0.5591 0.01208 0.06951 0.0
C105 C 0.54171 0.00581 0.05819 0.0
C106 C 0.56149 0.03698 0.05089 0.0
C107 C 0.57155 0.03176 0.06506 0.0
C108 C 0.54451 0.00762 0.99863 0.0
O109 O 0.54861 0.99955 0.01419 0.0
H110 H 0.52854 0.99061 0.05787 0.0
H111 H 0.5676 0.05146 0.04367 0.0
O112 O 0.49591 0.99722 0.03602 0.0
H113 H 0.51623 0.0769 0.03828 0.0
H114 H 0.58717 0.04151 0.07093 0.0
Cu115 Cu 0.51065 0.49368 0.51352 0.0
N116 N 0.53041 0.5098 0.49425 0.0
N117 N 0.54859 0.5361 0.47356 0.0
C118 C 0.53088 0.52514 0.48435 0.0
C119 C 0.55949 0.52696 0.47659 0.0
C120 C 0.54824 0.51076 0.48942 0.0
O121 O 0.48516 0.49328 0.50657 0.0
C122 C 0.53424 0.52264 0.54323 0.0
O123 O 0.53641 0.53557 0.52909 0.0
H124 H 0.51877 0.52859 0.48579 0.0
H125 H 0.55315 0.50097 0.49557 0.0
N126 N 0.50557 0.46785 0.51265 0.0
N127 N 0.49727 0.43736 0.52316 0.0
C128 C 0.50148 0.45556 0.52867 0.0
C129 C 0.50405 0.45722 0.49641 0.0
C130 C 0.49889 0.43835 0.50285 0.0
C131 C 0.46692 0.47865 0.51063 0.0
O132 O 0.46487 0.46402 0.52235 0.0
H133 H 0.50084 0.4597 0.54398 0.0
H134 H 0.50621 0.46272 0.48099 0.0
O135 O 0.52228 0.50405 0.54001 0.0
H136 H 0.575 0.53223 0.47091 0.0
H137 H 0.49645 0.42631 0.4933 0.0
C138 C 0.15125 0.41167 0.38788 0.0
C139 C 0.15005 0.42604 0.3727 0.0
C140 C 0.1622 0.42189 0.3406 0.0
C141 C 0.1786 0.44142 0.33621 0.0
C142 C 0.19524 0.44487 0.32389 0.0
C143 C 0.19539 0.42843 0.31579 0.0
C144 C 0.1784 0.40876 0.3195 0.0
C145 C 0.16185 0.40577 0.3317 0.0
C146 C 0.21284 0.46605 0.31982 0.0
C147 C 0.17804 0.39092 0.31102 0.0
C148 C 0.33182 0.44172 0.38622 0.0
C149 C 0.31561 0.43384 0.36996 0.0
C150 C 0.29831 0.44513 0.34631 0.0
C151 C 0.28253 0.42583 0.34048 0.0
C152 C 0.26667 0.42306 0.32692 0.0
C153 C 0.26649 0.43988 0.31907 0.0
C154 C 0.28246 0.45931 0.32473 0.0
C155 C 0.2982 0.46165 0.33821 0.0
C156 C 0.24991 0.40214 0.32116 0.0
C157 C 0.28267 0.47758 0.31683 0.0
C158 C 0.30453 0.45056 0.18498 0.0
C159 C 0.28733 0.43137 0.18935 0.0
C160 C 0.27092 0.42884 0.20146 0.0
C161 C 0.27162 0.44581 0.20921 0.0
C162 C 0.28899 0.46512 0.20503 0.0
C163 C 0.30529 0.46722 0.19303 0.0
C164 C 0.25267 0.40802 0.20576 0.0
C165 C 0.29017 0.48353 0.213 0.0
C166 C 0.12437 0.42498 0.17517 0.0
C167 C 0.14482 0.44417 0.16944 0.0
C168 C 0.17341 0.43951 0.17918 0.0
C169 C 0.17523 0.42274 0.18097 0.0
C170 C 0.18948 0.42228 0.1946 0.0
C171 C 0.20275 0.43936 0.20621 0.0
C172 C 0.20121 0.45655 0.20417 0.0
C173 C 0.18639 0.45636 0.19078 0.0
C174 C 0.19058 0.40366 0.19628 0.0
C175 C 0.21559 0.47531 0.21568 0.0
C176 C 0.21386 0.43179 0.3044 0.0
C177 C 0.2308 0.43372 0.31551 0.0
C178 C 0.24889 0.43713 0.306 0.0
C179 C 0.25009 0.43839 0.28468 0.0
C180 C 0.26779 0.44126 0.27453 0.0
C181 C 0.26891 0.44272 0.25356 0.0
C182 C 0.25248 0.4416 0.24196 0.0
C183 C 0.25359 0.44339 0.22069 0.0
C184 C 0.2372 0.44266 0.20966 0.0
C185 C 0.21932 0.43977 0.2192 0.0
C186 C 0.21765 0.43743 0.24045 0.0
C187 C 0.19968 0.43391 0.25056 0.0
C188 C 0.19836 0.43201 0.2715 0.0
C189 C 0.21494 0.43347 0.28312 0.0
C190 C 0.23313 0.43677 0.27324 0.0
C191 C 0.23442 0.4386 0.25187 0.0
C192 C 0.33937 0.44756 0.14811 0.0
C193 C 0.32161 0.43918 0.16247 0.0
O194 O 0.14668 0.41825 0.35349 0.0
O195 O 0.15977 0.43941 0.16544 0.0
O196 O 0.32053 0.45368 0.17299 0.0
O197 O 0.31368 0.44843 0.35976 0.0
H198 H 0.16528 0.44046 0.37354 0.0
H199 H 0.16472 0.41011 0.38421 0.0
H200 H 0.13676 0.39664 0.3874 0.0
H201 H 0.15354 0.41754 0.40341 0.0
H202 H 0.17842 0.45395 0.34245 0.0
H203 H 0.14893 0.39078 0.33497 0.0
H204 H 0.22743 0.4684 0.32697 0.0
H205 H 0.20955 0.47723 0.32579 0.0
H206 H 0.21567 0.46868 0.30334 0.0
H207 H 0.16372 0.37659 0.31537 0.0
H208 H 0.19195 0.39062 0.31648 0.0
H209 H 0.17889 0.39217 0.29431 0.0
H210 H 0.3162 0.42314 0.35961 0.0
H211 H 0.34396 0.43846 0.38114 0.0
H212 H 0.31446 0.42923 0.41267 0.0
H213 H 0.34197 0.45834 0.38349 0.0
H214 H 0.28237 0.41285 0.34655 0.0
H215 H 0.3104 0.47647 0.34274 0.0
H216 H 0.24849 0.40099 0.30448 0.0
H217 H 0.23462 0.39877 0.32708 0.0
H218 H 0.25315 0.39072 0.32721 0.0
H219 H 0.296 0.49164 0.32292 0.0
H220 H 0.26786 0.47661 0.3209 0.0
H221 H 0.28366 0.47824 0.30012 0.0
H222 H 0.3199 0.42673 0.17236 0.0
H223 H 0.28652 0.41831 0.18327 0.0
H224 H 0.31861 0.48195 0.18962 0.0
H225 H 0.25003 0.40561 0.22228 0.0
H226 H 0.25511 0.39629 0.19979 0.0
H227 H 0.23828 0.40631 0.19879 0.0
H228 H 0.30483 0.49749 0.20852 0.0
H229 H 0.2892 0.4826 0.22971 0.0
H230 H 0.27664 0.48434 0.20725 0.0
H231 H 0.14977 0.45452 0.18237 0.0
H232 H 0.11217 0.42833 0.179 0.0
H233 H 0.12695 0.41778 0.18857 0.0
H234 H 0.11864 0.4143 0.16251 0.0
H235 H 0.16528 0.4099 0.17173 0.0
H236 H 0.18542 0.46959 0.18888 0.0
H237 H 0.19148 0.39985 0.21235 0.0
H238 H 0.20494 0.4064 0.18868 0.0
H239 H 0.17688 0.39066 0.1891 0.0
H240 H 0.21371 0.48795 0.211 0.0
H241 H 0.23213 0.4798 0.21339 0.0
H242 H 0.21229 0.4724 0.23206 0.0
H243 H 0.22995 0.43272 0.33186 0.0
H244 H 0.28095 0.44236 0.28271 0.0
H245 H 0.2829 0.44491 0.24654 0.0
H246 H 0.23834 0.44429 0.19335 0.0
H247 H 0.18644 0.43264 0.24238 0.0
H248 H 0.1842 0.42943 0.27848 0.0
H249 H 0.32475 0.43947 0.11979 0.0
H250 H 0.34982 0.44226 0.15405 0.0
H251 H 0.3503 0.46358 0.15248 0.0
C252 C 0.86561 0.26099 0.88338 0.0
C253 C 0.8772 0.27851 0.86832 0.0
C254 C 0.85226 0.26444 0.83994 0.0
C255 C 0.85696 0.25007 0.8343 0.0
C256 C 0.84401 0.235 0.82073 0.0
C257 C 0.82616 0.2344 0.81257 0.0
C258 C 0.82196 0.24938 0.81752 0.0
C259 C 0.83518 0.26428 0.83108 0.0
C260 C 0.84909 0.21942 0.81545 0.0
C261 C 0.80318 0.2493 0.80893 0.0
C262 C 0.73352 0.13229 0.8838 0.0
C263 C 0.716 0.12954 0.86948 0.0
C264 C 0.73246 0.13763 0.83681 0.0
C265 C 0.73056 0.1536 0.82992 0.0
C266 C 0.74555 0.16838 0.81697 0.0
C267 C 0.76286 0.16718 0.81092 0.0
C268 C 0.76436 0.15062 0.81724 0.0
C269 C 0.74891 0.13586 0.82993 0.0
C270 C 0.74319 0.18558 0.8102 0.0
C271 C 0.78261 0.14888 0.81114 0.0
C272 C 0.73867 0.12998 0.6869 0.0
C273 C 0.73393 0.14469 0.69053 0.0
C274 C 0.74928 0.16341 0.69793 0.0
C275 C 0.76965 0.1673 0.70194 0.0
C276 C 0.7748 0.15297 0.69689 0.0
C277 C 0.75922 0.1345 0.68918 0.0
C278 C 0.74345 0.17862 0.70244 0.0
C279 C 0.79644 0.15675 0.70067 0.0
C280 C 0.90967 0.3033 0.69099 0.0
C281 C 0.89756 0.29638 0.671 0.0
C282 C 0.86193 0.27196 0.68305 0.0
C283 C 0.8423 0.26916 0.68687 0.0
C284 C 0.82668 0.25185 0.69682 0.0
C285 C 0.83078 0.23686 0.70301 0.0
C286 C 0.85041 0.23931 0.69877 0.0
C287 C 0.86579 0.25681 0.68886 0.0
C288 C 0.80591 0.24972 0.70105 0.0
C289 C 0.85524 0.22355 0.70505 0.0
C290 C 0.81113 0.21738 0.79998 0.0
C291 C 0.79509 0.20053 0.8099 0.0
C292 C 0.78005 0.18396 0.79919 0.0
C293 C 0.78116 0.18401 0.77792 0.0
C294 C 0.76654 0.16749 0.76669 0.0
C295 C 0.7678 0.16767 0.74578 0.0
C296 C 0.78344 0.18458 0.73521 0.0
C297 C 0.78459 0.18498 0.7139 0.0
C298 C 0.80011 0.20214 0.70385 0.0
C299 C 0.8148 0.21898 0.71457 0.0
C300 C 0.81411 0.21869 0.73593 0.0
C301 C 0.82882 0.23519 0.74724 0.0
C302 C 0.82799 0.23476 0.76822 0.0
C303 C 0.81229 0.21789 0.7787 0.0
C304 C 0.79728 0.2011 0.76764 0.0
C305 C 0.79829 0.20146 0.74624 0.0
C306 C 0.70769 0.08569 0.70688 0.0
C307 C 0.70512 0.09943 0.69195 0.0
O308 O 0.86345 0.27847 0.85405 0.0
O309 O 0.87656 0.28947 0.67398 0.0
O310 O 0.72365 0.11123 0.68151 0.0
O311 O 0.71897 0.12418 0.85059 0.0
H312 H 0.8896 0.27739 0.86061 0.0
H313 H 0.85884 0.24646 0.87573 0.0
H314 H 0.85273 0.26157 0.89073 0.0
H315 H 0.87658 0.26157 0.89521 0.0
H316 H 0.87048 0.25034 0.84061 0.0
H317 H 0.83185 0.27559 0.83533 0.0
H318 H 0.83646 0.20452 0.82097 0.0
H319 H 0.86418 0.22259 0.82214 0.0
H320 H 0.84985 0.21864 0.7988 0.0
H321 H 0.80257 0.26247 0.81363 0.0
H322 H 0.78867 0.23552 0.81401 0.0
H323 H 0.80344 0.24914 0.7922 0.0
H324 H 0.7167 0.14404 0.86839 0.0
H325 H 0.73124 0.13644 0.89904 0.0
H326 H 0.74888 0.14446 0.87803 0.0
H327 H 0.73384 0.11832 0.88506 0.0
H328 H 0.71745 0.1546 0.83485 0.0
H329 H 0.7501 0.12334 0.83524 0.0
H330 H 0.74528 0.18788 0.79361 0.0
H331 H 0.75552 0.19948 0.81746 0.0
H332 H 0.72769 0.18313 0.81422 0.0
H333 H 0.7816 0.13519 0.8175 0.0
H334 H 0.79744 0.16215 0.81634 0.0
H335 H 0.78327 0.14861 0.79445 0.0
H336 H 0.70125 0.10883 0.70101 0.0
H337 H 0.71816 0.14141 0.68791 0.0
H338 H 0.76276 0.12313 0.6859 0.0
H339 H 0.74241 0.17955 0.71902 0.0
H340 H 0.72818 0.17468 0.69559 0.0
H341 H 0.75569 0.19365 0.69678 0.0
H342 H 0.79814 0.14438 0.69527 0.0
H343 H 0.79998 0.15858 0.71708 0.0
H344 H 0.80819 0.17085 0.69296 0.0
H345 H 0.89914 0.28418 0.66481 0.0
H346 H 0.92653 0.30914 0.6885 0.0
H347 H 0.90376 0.29069 0.70201 0.0
H348 H 0.90798 0.31524 0.69764 0.0
H349 H 0.83936 0.28081 0.68228 0.0
H350 H 0.88076 0.25851 0.68591 0.0
H351 H 0.8033 0.24859 0.71759 0.0
H352 H 0.79309 0.23574 0.69433 0.0
H353 H 0.805 0.26253 0.69492 0.0
H354 H 0.87096 0.22731 0.70004 0.0
H355 H 0.84332 0.20894 0.69864 0.0
H356 H 0.85446 0.22178 0.72173 0.0
H357 H 0.79416 0.20041 0.82623 0.0
H358 H 0.75404 0.15416 0.77395 0.0
H359 H 0.7562 0.15437 0.73802 0.0
H360 H 0.80079 0.20237 0.68751 0.0
H361 H 0.84118 0.24863 0.74 0.0
H362 H 0.83974 0.24786 0.77614 0.0
H363 H 0.69284 0.07587 0.71509 0.0
H364 H 0.72004 0.09483 0.7181 0.0
H365 H 0.71229 0.07626 0.69896 0.0
C366 C 0.63635 0.74554 0.40758 0.0
C367 C 0.61797 0.73205 0.39375 0.0
C368 C 0.62027 0.74778 0.36117 0.0
C369 C 0.5999 0.74391 0.35858 0.0
C370 C 0.59596 0.75608 0.3458 0.0
C371 C 0.6128 0.77251 0.33555 0.0
C372 C 0.63331 0.77618 0.33789 0.0
C373 C 0.63669 0.7635 0.35043 0.0
C374 C 0.57385 0.75146 0.34332 0.0
C375 C 0.65169 0.79367 0.3274 0.0
C376 C 0.60085 0.90101 0.37911 0.0
C377 C 0.60933 0.88982 0.36934 0.0
C378 C 0.59733 0.85725 0.35443 0.0
C379 C 0.61702 0.86235 0.34699 0.0
C380 C 0.61946 0.84853 0.33616 0.0
C381 C 0.60186 0.82933 0.33244 0.0
C382 C 0.58202 0.82422 0.33974 0.0
C383 C 0.58006 0.83824 0.35071 0.0
C384 C 0.64087 0.85442 0.3287 0.0
C385 C 0.56289 0.80393 0.33596 0.0
C386 C 0.60089 0.85878 0.20282 0.0
C387 C 0.62 0.86095 0.20896 0.0
C388 C 0.62051 0.84531 0.21904 0.0
C389 C 0.60158 0.82715 0.22312 0.0
C390 C 0.58241 0.82462 0.21627 0.0
C391 C 0.58235 0.84047 0.20612 0.0
C392 C 0.64128 0.84838 0.22586 0.0
C393 C 0.56196 0.8054 0.22028 0.0
C394 C 0.61714 0.70266 0.22146 0.0
C395 C 0.60018 0.70107 0.20708 0.0
C396 C 0.60562 0.73444 0.2071 0.0
C397 C 0.62345 0.7536 0.20767 0.0
C398 C 0.62322 0.76918 0.21742 0.0
C399 C 0.60447 0.76555 0.2263 0.0
C400 C 0.5861 0.74638 0.22486 0.0
C401 C 0.58691 0.73098 0.21538 0.0
C402 C 0.64307 0.78943 0.21854 0.0
C403 C 0.56563 0.74213 0.23344 0.0
C404 C 0.60904 0.78609 0.32273 0.0
C405 C 0.60721 0.80081 0.33227 0.0
C406 C 0.6042 0.81445 0.32116 0.0
C407 C 0.60333 0.81367 0.29985 0.0
C408 C 0.60085 0.82745 0.28815 0.0
C409 C 0.60039 0.82678 0.26719 0.0
C410 C 0.60204 0.81209 0.25709 0.0
C411 C 0.60181 0.81143 0.23578 0.0
C412 C 0.6026 0.79615 0.22622 0.0
C413 C 0.60413 0.78163 0.23739 0.0
C414 C 0.60526 0.78255 0.25872 0.0
C415 C 0.60766 0.76871 0.27044 0.0
C416 C 0.60878 0.76976 0.29139 0.0
C417 C 0.60761 0.78472 0.30146 0.0
C418 C 0.60498 0.7987 0.28998 0.0
C419 C 0.60404 0.79775 0.26858 0.0
C420 C 0.61944 0.90347 0.21375 0.0
C421 C 0.61505 0.89399 0.19286 0.0
O422 O 0.62444 0.73649 0.37384 0.0
O423 O 0.60683 0.71964 0.19825 0.0
O424 O 0.59952 0.8739 0.19404 0.0
O425 O 0.59433 0.8701 0.3652 0.0
H426 H 0.60536 0.73514 0.39668 0.0
H427 H 0.64177 0.76145 0.40423 0.0
H428 H 0.64961 0.7433 0.40525 0.0
H429 H 0.6315 0.74229 0.42364 0.0
H430 H 0.58709 0.73129 0.36644 0.0
H431 H 0.65231 0.76616 0.35241 0.0
H432 H 0.57248 0.76341 0.35036 0.0
H433 H 0.56226 0.73691 0.35044 0.0
H434 H 0.56993 0.75117 0.32705 0.0
H435 H 0.66683 0.79556 0.33232 0.0
H436 H 0.65198 0.80767 0.33041 0.0
H437 H 0.65008 0.79141 0.31085 0.0
H438 H 0.62366 0.89154 0.37665 0.0
H439 H 0.60843 0.9049 0.39448 0.0
H440 H 0.58489 0.88949 0.38501 0.0
H441 H 0.60555 0.92279 0.35744 0.0
H442 H 0.63056 0.87703 0.34965 0.0
H443 H 0.56493 0.83442 0.35644 0.0
H444 H 0.6407 0.85396 0.31198 0.0
H445 H 0.64506 0.84357 0.33447 0.0
H446 H 0.65315 0.86965 0.33348 0.0
H447 H 0.5484 0.80262 0.34172 0.0
H448 H 0.56488 0.79223 0.34344 0.0
H449 H 0.56102 0.80093 0.31953 0.0
H450 H 0.62961 0.89556 0.18687 0.0
H451 H 0.63457 0.87485 0.20623 0.0
H452 H 0.5677 0.83883 0.20117 0.0
H453 H 0.64205 0.84848 0.24259 0.0
H454 H 0.65471 0.86265 0.21999 0.0
H455 H 0.64282 0.83584 0.22078 0.0
H456 H 0.54841 0.80562 0.21361 0.0
H457 H 0.55958 0.80274 0.23681 0.0
H458 H 0.56244 0.79267 0.21397 0.0
H459 H 0.58576 0.6959 0.21602 0.0
H460 H 0.61207 0.68789 0.22863 0.0
H461 H 0.62009 0.71338 0.23359 0.0
H462 H 0.63198 0.708 0.21321 0.0
H463 H 0.63773 0.75617 0.20095 0.0
H464 H 0.57286 0.71635 0.21421 0.0
H465 H 0.64656 0.79429 0.23446 0.0
H466 H 0.64096 0.80058 0.21 0.0
H467 H 0.65669 0.78942 0.21222 0.0
H468 H 0.55231 0.72727 0.22899 0.0
H469 H 0.56237 0.7538 0.22831 0.0
H470 H 0.56669 0.74255 0.25016 0.0
H471 H 0.60817 0.80167 0.34861 0.0
H472 H 0.59943 0.83904 0.29507 0.0
H473 H 0.59861 0.83789 0.259 0.0
H474 H 0.60215 0.79563 0.20987 0.0
H475 H 0.60879 0.75695 0.26355 0.0
H476 H 0.61059 0.75868 0.29961 0.0
H477 H 0.60494 0.90164 0.22018 0.0
H478 H 0.63149 0.91966 0.21265 0.0
H479 H 0.62538 0.89639 0.22431 0.0
C480 C 0.7427 0.59941 0.89376 0.0
C481 C 0.72674 0.59238 0.8764 0.0
C482 C 0.74146 0.57886 0.85311 0.0
C483 C 0.75861 0.59736 0.84667 0.0
C484 C 0.77374 0.59823 0.83378 0.0
C485 C 0.77166 0.5803 0.82709 0.0
C486 C 0.75433 0.56169 0.83333 0.0
C487 C 0.73944 0.56125 0.84622 0.0
C488 C 0.792 0.61832 0.82729 0.0
C489 C 0.7516 0.54228 0.82643 0.0
C490 C 0.86578 0.56138 0.88774 0.0
C491 C 0.8764 0.55901 0.86936 0.0
C492 C 0.8666 0.57536 0.8434 0.0
C493 C 0.84798 0.5584 0.83673 0.0
C494 C 0.83305 0.5603 0.82557 0.0
C495 C 0.8367 0.57953 0.82094 0.0
C496 C 0.85568 0.59666 0.82702 0.0
C497 C 0.8705 0.59433 0.83799 0.0
C498 C 0.81318 0.54169 0.81894 0.0
C499 C 0.8601 0.61737 0.82221 0.0
C500 C 0.86082 0.5851 0.68791 0.0
C501 C 0.84503 0.56666 0.69584 0.0
C502 C 0.82902 0.56541 0.70767 0.0
C503 C 0.82893 0.58299 0.7117 0.0
C504 C 0.84446 0.60148 0.70312 0.0
C505 C 0.86008 0.60223 0.69109 0.0
C506 C 0.81231 0.54534 0.71601 0.0
C507 C 0.84475 0.62049 0.70697 0.0
C508 C 0.69643 0.59304 0.70638 0.0
C509 C 0.70271 0.58768 0.68671 0.0
C510 C 0.72554 0.57572 0.69915 0.0
C511 C 0.72634 0.55863 0.70343 0.0
C512 C 0.74388 0.5599 0.71285 0.0
C513 C 0.76118 0.57883 0.71798 0.0
C514 C 0.76069 0.59627 0.7134 0.0
C515 C 0.74288 0.59456 0.70411 0.0
C516 C 0.74387 0.541 0.71751 0.0
C517 C 0.77898 0.6167 0.71849 0.0
C518 C 0.78761 0.58103 0.81352 0.0
C519 C 0.80475 0.58117 0.82231 0.0
C520 C 0.82017 0.5815 0.81046 0.0
C521 C 0.81875 0.58213 0.78917 0.0
C522 C 0.83419 0.58292 0.77677 0.0
C523 C 0.83248 0.58322 0.75585 0.0
C524 C 0.81506 0.58237 0.7465 0.0
C525 C 0.81291 0.58215 0.72524 0.0
C526 C 0.79529 0.58109 0.71647 0.0
C527 C 0.77967 0.58035 0.72834 0.0
C528 C 0.78165 0.58076 0.74962 0.0
C529 C 0.76631 0.58018 0.76204 0.0
C530 C 0.76833 0.58048 0.78295 0.0
C531 C 0.78564 0.58114 0.79227 0.0
C532 C 0.80131 0.58175 0.78007 0.0
C533 C 0.79936 0.58168 0.75871 0.0
C534 C 0.90939 0.59439 0.69089 0.0
C535 C 0.88844 0.57831 0.68201 0.0
O536 O 0.72665 0.57722 0.86597 0.0
O537 O 0.70778 0.57324 0.69041 0.0
O538 O 0.87672 0.58677 0.67685 0.0
O539 O 0.88092 0.57401 0.85516 0.0
H540 H 0.73077 0.60516 0.86593 0.0
H541 H 0.75874 0.60562 0.88792 0.0
H542 H 0.73903 0.58675 0.90424 0.0
H543 H 0.74252 0.61133 0.90231 0.0
H544 H 0.7604 0.61119 0.85164 0.0
H545 H 0.72616 0.54705 0.85117 0.0
H546 H 0.80686 0.61955 0.83214 0.0
H547 H 0.79135 0.63093 0.8337 0.0
H548 H 0.79225 0.6197 0.81058 0.0
H549 H 0.73719 0.52904 0.83255 0.0
H550 H 0.7653 0.54136 0.83129 0.0
H551 H 0.75089 0.54178 0.80969 0.0
H552 H 0.86554 0.54415 0.86284 0.0
H553 H 0.86263 0.54975 0.89939 0.0
H554 H 0.85061 0.55966 0.88321 0.0
H555 H 0.8758 0.57639 0.89441 0.0
H556 H 0.84491 0.54357 0.84 0.0
H557 H 0.88496 0.60736 0.84296 0.0
H558 H 0.81117 0.54226 0.80236 0.0
H559 H 0.79955 0.54094 0.82617 0.0
H560 H 0.81308 0.52782 0.82292 0.0
H561 H 0.87577 0.62921 0.82765 0.0
H562 H 0.84804 0.6194 0.82929 0.0
H563 H 0.85916 0.61925 0.80565 0.0
H564 H 0.88046 0.56646 0.69385 0.0
H565 H 0.84509 0.55323 0.69264 0.0
H566 H 0.87216 0.61632 0.68458 0.0
H567 H 0.81378 0.54517 0.73269 0.0
H568 H 0.81343 0.53287 0.70992 0.0
H569 H 0.79657 0.54274 0.71242 0.0
H570 H 0.85842 0.6338 0.69993 0.0
H571 H 0.8451 0.62284 0.72346 0.0
H572 H 0.83024 0.61918 0.70083 0.0
H573 H 0.71641 0.60131 0.68009 0.0
H574 H 0.69215 0.60444 0.70338 0.0
H575 H 0.70961 0.59933 0.71733 0.0
H576 H 0.68289 0.57956 0.71337 0.0
H577 H 0.71298 0.54417 0.69953 0.0
H578 H 0.74269 0.60802 0.70088 0.0
H579 H 0.74633 0.53993 0.73393 0.0
H580 H 0.757 0.54144 0.70953 0.0
H581 H 0.72902 0.52738 0.71293 0.0
H582 H 0.77661 0.6289 0.71316 0.0
H583 H 0.79346 0.61894 0.71158 0.0
H584 H 0.78143 0.61781 0.73508 0.0
H585 H 0.80587 0.58062 0.83862 0.0
H586 H 0.84782 0.58339 0.78313 0.0
H587 H 0.84491 0.58394 0.74709 0.0
H588 H 0.7937 0.58079 0.70016 0.0
H589 H 0.75256 0.5795 0.75573 0.0
H590 H 0.75604 0.58003 0.79172 0.0
H591 H 0.91906 0.58793 0.69516 0.0
H592 H 0.90667 0.60053 0.70464 0.0
H593 H 0.91814 0.60683 0.67983 0.0
C594 C 0.15947 0.7263 0.40186 0.0
C595 C 0.14651 0.71017 0.38626 0.0
C596 C 0.17087 0.72469 0.35769 0.0
C597 C 0.16671 0.73974 0.3524 0.0
C598 C 0.17982 0.75538 0.33907 0.0
C599 C 0.19754 0.75612 0.33095 0.0
C600 C 0.20132 0.74059 0.33564 0.0
C601 C 0.18775 0.72495 0.34876 0.0
C602 C 0.17506 0.77145 0.33408 0.0
C603 C 0.22012 0.74092 0.3274 0.0
C604 C 0.27061 0.86799 0.41089 0.0
C605 C 0.28379 0.86205 0.39905 0.0
C606 C 0.27627 0.85456 0.36354 0.0
C607 C 0.28127 0.83985 0.36125 0.0
C608 C 0.27161 0.82547 0.34618 0.0
C609 C 0.25635 0.82565 0.33346 0.0
C610 C 0.25199 0.84106 0.33525 0.0
C611 C 0.26242 0.85562 0.35004 0.0
C612 C 0.27711 0.80964 0.34441 0.0
C613 C 0.23552 0.84158 0.32232 0.0
C614 C 0.29641 0.85747 0.19816 0.0
C615 C 0.30099 0.84474 0.20913 0.0
C616 C 0.28589 0.82948 0.22168 0.0
C617 C 0.26596 0.8272 0.22353 0.0
C618 C 0.26149 0.84028 0.21265 0.0
C619 C 0.27669 0.85503 0.19982 0.0
C620 C 0.29101 0.8154 0.23242 0.0
C621 C 0.24051 0.83843 0.2142 0.0
C622 C 0.12153 0.69899 0.20665 0.0
C623 C 0.13363 0.70648 0.18676 0.0
C624 C 0.16953 0.7284 0.19954 0.0
C625 C 0.1883 0.72933 0.20384 0.0
C626 C 0.20433 0.7452 0.21475 0.0
C627 C 0.2015 0.76061 0.22136 0.0
C628 C 0.18284 0.76017 0.21648 0.0
C629 C 0.16701 0.74406 0.20565 0.0
C630 C 0.2241 0.74532 0.2196 0.0
C631 C 0.1795 0.77659 0.22301 0.0
C632 C 0.21317 0.77404 0.31924 0.0
C633 C 0.22735 0.79087 0.33013 0.0
C634 C 0.24292 0.80825 0.32049 0.0
C635 C 0.24481 0.80883 0.29925 0.0
C636 C 0.2608 0.82573 0.28904 0.0
C637 C 0.26227 0.8262 0.26807 0.0
C638 C 0.24786 0.80976 0.25654 0.0
C639 C 0.24915 0.81002 0.23522 0.0
C640 C 0.23402 0.79364 0.22428 0.0
C641 C 0.21769 0.77687 0.23398 0.0
C642 C 0.21655 0.776 0.25526 0.0
C643 C 0.20067 0.75903 0.26549 0.0
C644 C 0.19957 0.75831 0.28644 0.0
C645 C 0.2142 0.77461 0.29795 0.0
C646 C 0.23023 0.79199 0.28794 0.0
C647 C 0.23159 0.79257 0.26657 0.0
C648 C 0.33114 0.9044 0.19767 0.0
C649 C 0.33078 0.88602 0.18983 0.0
O650 O 0.15941 0.71 0.37158 0.0
O651 O 0.15433 0.71208 0.18973 0.0
O652 O 0.31034 0.87152 0.18507 0.0
O653 O 0.28423 0.86758 0.37895 0.0
H654 H 0.13497 0.71323 0.37903 0.0
H655 H 0.16752 0.74139 0.39467 0.0
H656 H 0.17147 0.72378 0.40888 0.0
H657 H 0.1492 0.72608 0.41388 0.0
H658 H 0.15347 0.73959 0.35879 0.0
H659 H 0.19074 0.71321 0.35273 0.0
H660 H 0.18675 0.78549 0.3416 0.0
H661 H 0.15923 0.76729 0.33916 0.0
H662 H 0.17625 0.77451 0.31757 0.0
H663 H 0.22122 0.72806 0.333 0.0
H664 H 0.23463 0.75499 0.3317 0.0
H665 H 0.2193 0.74057 0.31067 0.0
H666 H 0.27614 0.8455 0.40066 0.0
H667 H 0.26975 0.86346 0.42702 0.0
H668 H 0.25447 0.86036 0.40463 0.0
H669 H 0.27741 0.8844 0.40984 0.0
H670 H 0.2925 0.83948 0.37145 0.0
H671 H 0.25892 0.86725 0.35187 0.0
H672 H 0.26446 0.79542 0.35119 0.0
H673 H 0.29199 0.81386 0.35234 0.0
H674 H 0.2785 0.80691 0.3283 0.0
H675 H 0.23286 0.85363 0.32674 0.0
H676 H 0.22049 0.82703 0.32346 0.0
H677 H 0.24039 0.84404 0.30629 0.0
H678 H 0.33704 0.88047 0.20191 0.0
H679 H 0.31607 0.84625 0.20731 0.0
H680 H 0.27327 0.86483 0.19109 0.0
H681 H 0.29083 0.81709 0.24897 0.0
H682 H 0.30661 0.81822 0.22818 0.0
H683 H 0.27898 0.79969 0.22887 0.0
H684 H 0.24077 0.85174 0.20774 0.0
H685 H 0.2355 0.83638 0.2302 0.0
H686 H 0.22864 0.82508 0.20585 0.0
H687 H 0.13291 0.71945 0.18077 0.0
H688 H 0.10486 0.69414 0.20415 0.0
H689 H 0.1281 0.71104 0.21794 0.0
H690 H 0.12237 0.6862 0.21299 0.0
H691 H 0.19018 0.71729 0.19893 0.0
H692 H 0.15274 0.74379 0.20223 0.0
H693 H 0.22631 0.74546 0.23621 0.0
H694 H 0.23777 0.75912 0.21327 0.0
H695 H 0.22385 0.73215 0.21345 0.0
H696 H 0.16477 0.77479 0.21683 0.0
H697 H 0.19281 0.79135 0.21803 0.0
H698 H 0.17893 0.77661 0.23973 0.0
H699 H 0.22614 0.79048 0.34646 0.0
H700 H 0.27233 0.83877 0.29719 0.0
H701 H 0.2748 0.83964 0.26099 0.0
H702 H 0.23486 0.79403 0.20794 0.0
H703 H 0.18894 0.74604 0.25742 0.0
H704 H 0.18703 0.74487 0.29352 0.0
H705 H 0.3253 0.91062 0.1859 0.0
H706 H 0.34726 0.91614 0.20213 0.0
H707 H 0.32099 0.90018 0.21116 0.0
C708 C 0.40814 0.13824 0.64488 0.0
C709 C 0.4287 0.14315 0.65511 0.0
C710 C 0.42595 0.14938 0.68984 0.0
C711 C 0.44518 0.16549 0.69616 0.0
C712 C 0.44607 0.17925 0.70993 0.0
C713 C 0.42726 0.17691 0.71721 0.0
C714 C 0.4078 0.16023 0.71126 0.0
C715 C 0.40742 0.14647 0.6978 0.0
C716 C 0.4671 0.19665 0.71614 0.0
C717 C 0.38743 0.15741 0.71844 0.0
C718 C 0.4376 0.30467 0.64871 0.0
C719 C 0.42828 0.28887 0.66478 0.0
C720 C 0.43956 0.27426 0.69119 0.0
C721 C 0.41953 0.25752 0.69493 0.0
C722 C 0.41685 0.24191 0.70779 0.0
C723 C 0.43453 0.24295 0.71696 0.0
C724 C 0.45468 0.25988 0.71344 0.0
C725 C 0.45688 0.27542 0.70075 0.0
C726 C 0.39512 0.22415 0.71134 0.0
C727 C 0.47392 0.26136 0.72275 0.0
C728 C 0.43882 0.27288 0.85018 0.0
C729 C 0.41848 0.258 0.84432 0.0
C730 C 0.41508 0.24182 0.83266 0.0
C731 C 0.43233 0.24047 0.82675 0.0
C732 C 0.45278 0.25537 0.83266 0.0
C733 C 0.45572 0.27135 0.8443 0.0
C734 C 0.39308 0.22614 0.82663 0.0
C735 C 0.47152 0.25437 0.82666 0.0
C736 C 0.39574 0.08631 0.84997 0.0
C737 C 0.41361 0.10779 0.85345 0.0
C738 C 0.41024 0.13681 0.84798 0.0
C739 C 0.39446 0.14089 0.84445 0.0
C740 C 0.39848 0.15812 0.83368 0.0
C741 C 0.419 0.17186 0.82683 0.0
C742 C 0.43531 0.16832 0.83132 0.0
C743 C 0.43072 0.15071 0.84173 0.0
C744 C 0.38073 0.16148 0.82937 0.0
C745 C 0.45753 0.18304 0.82498 0.0
C746 C 0.42798 0.19292 0.72941 0.0
C747 C 0.43055 0.20975 0.71903 0.0
C748 C 0.43202 0.22579 0.72927 0.0
C749 C 0.43104 0.22522 0.75057 0.0
C750 C 0.43268 0.24119 0.76138 0.0
C751 C 0.43211 0.24065 0.78238 0.0
C752 C 0.42952 0.22397 0.79335 0.0
C753 C 0.42903 0.22331 0.81469 0.0
C754 C 0.42581 0.20626 0.82509 0.0
C755 C 0.42325 0.18977 0.81479 0.0
C756 C 0.42427 0.19035 0.79347 0.0
C757 C 0.42224 0.17422 0.78261 0.0
C758 C 0.42369 0.17511 0.76166 0.0
C759 C 0.42663 0.19191 0.75071 0.0
C760 C 0.42832 0.2082 0.76132 0.0
C761 C 0.42737 0.20751 0.78273 0.0
C762 C 0.42322 0.30352 0.85048 0.0
C763 C 0.42907 0.29416 0.86791 0.0
O764 O 0.42514 0.1372 0.67523 0.0
O765 O 0.40519 0.11939 0.85752 0.0
O766 O 0.443 0.28892 0.86134 0.0
O767 O 0.44285 0.28933 0.67827 0.0
H768 H 0.43968 0.15966 0.65397 0.0
H769 H 0.40181 0.14659 0.65213 0.0
H770 H 0.39635 0.12199 0.6462 0.0
H771 H 0.41075 0.14268 0.62866 0.0
H772 H 0.45943 0.16748 0.68995 0.0
H773 H 0.39264 0.13389 0.69275 0.0
H774 H 0.46933 0.21062 0.70917 0.0
H775 H 0.48016 0.19488 0.71138 0.0
H776 H 0.46781 0.19835 0.73277 0.0
H777 H 0.37364 0.1439 0.71205 0.0
H778 H 0.38655 0.1707 0.71412 0.0
H779 H 0.38669 0.15606 0.73514 0.0
H780 H 0.41431 0.28727 0.67237 0.0
H781 H 0.43097 0.3144 0.65135 0.0
H782 H 0.43189 0.28851 0.62216 0.0
H783 H 0.45383 0.31614 0.65401 0.0
H784 H 0.40594 0.25648 0.68779 0.0
H785 H 0.47225 0.28838 0.69781 0.0
H786 H 0.39227 0.22103 0.72778 0.0
H787 H 0.39369 0.21073 0.70444 0.0
H788 H 0.38282 0.22648 0.70477 0.0
H789 H 0.48854 0.27512 0.71781 0.0
H790 H 0.47472 0.24815 0.71865 0.0
H791 H 0.47297 0.26135 0.73944 0.0
H792 H 0.41471 0.28065 0.87381 0.0
H793 H 0.40515 0.25884 0.84872 0.0
H794 H 0.47134 0.28285 0.84887 0.0
H795 H 0.39191 0.22496 0.80994 0.0
H796 H 0.38134 0.22951 0.83205 0.0
H797 H 0.3892 0.21136 0.83288 0.0
H798 H 0.48642 0.26715 0.83246 0.0
H799 H 0.47236 0.25428 0.80996 0.0
H800 H 0.46984 0.24025 0.83254 0.0
H801 H 0.42281 0.11299 0.83921 0.0
H802 H 0.40203 0.07668 0.84641 0.0
H803 H 0.38595 0.08595 0.83704 0.0
H804 H 0.38568 0.08013 0.86355 0.0
H805 H 0.37878 0.13019 0.84964 0.0
H806 H 0.44313 0.14788 0.84511 0.0
H807 H 0.37986 0.16411 0.81296 0.0
H808 H 0.38365 0.17502 0.83729 0.0
H809 H 0.3654 0.14862 0.83437 0.0
H810 H 0.46874 0.17926 0.83162 0.0
H811 H 0.46221 0.19835 0.82959 0.0
H812 H 0.45864 0.1832 0.8083 0.0
H813 H 0.43149 0.21039 0.70269 0.0
H814 H 0.4346 0.25437 0.75373 0.0
H815 H 0.43364 0.25345 0.7899 0.0
H816 H 0.42527 0.20579 0.84145 0.0
H817 H 0.41972 0.16079 0.79019 0.0
H818 H 0.42231 0.16238 0.75412 0.0
H819 H 0.41217 0.30784 0.85576 0.0
H820 H 0.4155 0.29272 0.8381 0.0
H821 H 0.4374 0.317 0.84433 0.0
H822 H 0.10028 0.5327 0.0238 0.0
H823 H 0.12131 0.5233 0.04453 0.0
H824 H 0.06533 0.46794 0.06131 0.0
H825 H 0.04456 0.47672 0.0402 0.0
H826 H 0.12119 0.51784 0.0833 0.0
H827 H 0.10151 0.44683 0.04917 0.0
H828 H 0.09505 0.4637 0.03698 0.0
H829 H 0.07783 0.44567 0.05562 0.0
C830 C 0.09255 0.51835 0.0316 0.0
C831 C 0.07074 0.50543 0.0302 0.0
C832 C 0.10458 0.513 0.04348 0.0
C833 C 0.09501 0.49468 0.0542 0.0
C834 C 0.07326 0.48181 0.05269 0.0
H835 H 0.12617 0.466 0.16875 0.0
H836 H 0.11717 0.47978 0.13974 0.0
C837 C 0.06133 0.48698 0.04067 0.0
C838 C 0.10719 0.48955 0.06834 0.0
H839 H 0.11164 0.45039 0.08464 0.0
C840 C 0.11944 0.50323 0.08334 0.0
C841 C 0.10545 0.4707 0.06822 0.0
C842 C 0.09444 0.45603 0.05146 0.0
C843 C 0.12882 0.49811 0.09889 0.0
C844 C 0.1252 0.47849 0.09994 0.0
C845 C 0.1141 0.46529 0.0842 0.0
C846 C 0.1317 0.47096 0.11767 0.0
C847 C 0.14246 0.51383 0.11401 0.0
C848 C 0.14216 0.46067 0.11502 0.0
C849 C 0.14677 0.45223 0.1316 0.0
C850 C 0.14132 0.45422 0.15126 0.0
C851 C 0.13095 0.4646 0.15385 0.0
C852 C 0.12599 0.47267 0.13726 0.0
H853 H 0.1501 0.52903 0.10704 0.0
H854 H 0.13262 0.51338 0.12657 0.0
H855 H 0.15478 0.51141 0.12029 0.0
H856 H 0.14652 0.4589 0.10006 0.0
H857 H 0.15439 0.44399 0.12894 0.0
H858 H 0.57463 0.06102 0.55934 0.0
H859 H 0.59937 0.06658 0.58628 0.0
H860 H 0.5758 0.00339 0.59001 0.0
H861 H 0.55054 0.99756 0.56277 0.0
H862 H 0.58458 0.0247 0.62895 0.0
H863 H 0.65067 0.06089 0.57537 0.0
H864 H 0.63367 0.07055 0.57328 0.0
H865 H 0.62386 0.04488 0.5673 0.0
C866 C 0.57453 0.04822 0.56591 0.0
C867 C 0.56083 0.02887 0.55873 0.0
C868 C 0.58872 0.05146 0.58131 0.0
C869 C 0.58969 0.03547 0.58978 0.0
C870 C 0.57536 0.01593 0.58347 0.0
H871 H 0.70334 0.07497 0.66185 0.0
H872 H 0.67453 0.05528 0.63825 0.0
C873 C 0.56096 0.01263 0.56799 0.0
C874 C 0.60634 0.03975 0.60468 0.0
H875 H 0.65926 0.06862 0.61033 0.0
C876 C 0.60095 0.03396 0.6249 0.0
C877 C 0.62766 0.05151 0.59927 0.0
C878 C 0.63436 0.05716 0.57758 0.0
C879 C 0.61637 0.04081 0.64007 0.0
C880 C 0.63759 0.05408 0.63483 0.0
C881 C 0.64299 0.05868 0.61442 0.0
C882 C 0.65428 0.06455 0.6502 0.0
C883 C 0.60972 0.03399 0.66157 0.0
C884 C 0.65257 0.07645 0.66461 0.0
C885 C 0.66893 0.08759 0.67811 0.0
C886 C 0.68748 0.08733 0.67727 0.0
C887 C 0.68921 0.07544 0.66281 0.0
C888 C 0.67276 0.06417 0.64939 0.0
H889 H 0.59508 0.01906 0.66214 0.0
H890 H 0.62204 0.03322 0.67029 0.0
H891 H 0.6066 0.0447 0.66897 0.0
H892 H 0.63877 0.0775 0.66513 0.0
H893 H 0.66717 0.09663 0.68907 0.0
H894 H 0.5543 0.57283 0.0644 0.0
H895 H 0.5621 0.60116 0.08538 0.0
H896 H 0.58536 0.57886 0.13242 0.0
H897 H 0.57796 0.55069 0.11125 0.0
H898 H 0.54686 0.60207 0.12074 0.0
H899 H 0.6324 0.63609 0.12873 0.0
H900 H 0.61699 0.61669 0.11086 0.0
H901 H 0.61809 0.61043 0.13697 0.0
C902 C 0.56108 0.57397 0.07921 0.0
C903 C 0.56555 0.55954 0.08617 0.0
C904 C 0.56561 0.59021 0.09117 0.0
C905 C 0.57465 0.59237 0.11037 0.0
C906 C 0.57895 0.57787 0.11744 0.0
H907 H 0.57036 0.66126 0.20807 0.0
H908 H 0.56413 0.63562 0.18389 0.0
C909 C 0.57464 0.56172 0.10538 0.0
C910 C 0.57875 0.60934 0.12324 0.0
H911 H 0.61653 0.64783 0.15098 0.0
C912 C 0.56215 0.61216 0.12723 0.0
C913 C 0.59877 0.62276 0.13144 0.0
C914 C 0.61762 0.6215 0.12662 0.0
C915 C 0.56486 0.62766 0.13956 0.0
C916 C 0.58459 0.6404 0.14863 0.0
C917 C 0.60134 0.63793 0.14423 0.0
C918 C 0.58808 0.65612 0.16304 0.0
C919 C 0.5466 0.63038 0.14248 0.0
C920 C 0.60404 0.67611 0.1597 0.0
C921 C 0.60777 0.69078 0.17364 0.0
C922 C 0.59546 0.68573 0.19109 0.0
C923 C 0.57968 0.66566 0.19449 0.0
C924 C 0.57607 0.65102 0.18064 0.0
H925 H 0.53519 0.62394 0.12984 0.0
H926 H 0.53833 0.62251 0.15657 0.0
H927 H 0.55186 0.64642 0.14373 0.0
H928 H 0.6137 0.68036 0.14636 0.0
H929 H 0.62041 0.70601 0.17088 0.0
H930 H 0.93876 0.48863 0.55654 0.0
H931 H 0.92539 0.50028 0.58284 0.0
H932 H 0.92929 0.54566 0.54205 0.0
H933 H 0.94263 0.53403 0.51564 0.0
H934 H 0.94643 0.53779 0.59904 0.0
H935 H 0.871 0.52182 0.5656 0.0
H936 H 0.88531 0.51104 0.55614 0.0
H937 H 0.89324 0.53638 0.5496 0.0
C938 C 0.93663 0.501 0.55312 0.0
C939 C 0.94179 0.51042 0.53401 0.0
C940 C 0.92893 0.50759 0.56813 0.0
C941 C 0.92614 0.5237 0.56435 0.0
C942 C 0.93087 0.53292 0.54517 0.0
H943 H 0.89758 0.59353 0.64309 0.0
H944 H 0.9062 0.58017 0.61422 0.0
C945 C 0.93851 0.52626 0.53008 0.0
C946 C 0.91969 0.53166 0.58094 0.0
H947 H 0.8822 0.54106 0.59543 0.0
C948 C 0.93233 0.53841 0.59829 0.0
C949 C 0.90136 0.53258 0.57985 0.0
C950 C 0.88682 0.52492 0.56188 0.0
C951 C 0.92722 0.54616 0.61455 0.0
C952 C 0.90883 0.54692 0.61354 0.0
C953 C 0.89627 0.54039 0.59613 0.0
C954 C 0.90235 0.55431 0.63057 0.0
C955 C 0.94173 0.55376 0.63257 0.0
C956 C 0.89698 0.54398 0.64916 0.0
C957 C 0.89197 0.5515 0.66558 0.0
C958 C 0.89201 0.56938 0.66366 0.0
C959 C 0.89709 0.57955 0.6449 0.0
C960 C 0.90206 0.57198 0.62845 0.0
H961 H 0.95745 0.5565 0.62902 0.0
H962 H 0.94353 0.56783 0.63807 0.0
H963 H 0.93503 0.54245 0.64498 0.0
H964 H 0.89694 0.53022 0.65102 0.0
H965 H 0.88836 0.5435 0.6799 0.0
H966 H 0.46862 0.99137 0.06106 0.0
H967 H 0.43948 0.97167 0.08375 0.0
H968 H 0.4337 0.91752 0.06232 0.0
H969 H 0.46372 0.93736 0.04001 0.0
H970 H 0.40005 0.94451 0.079 0.0
H971 H 0.43824 0.91038 0.12165 0.0
H972 H 0.45201 0.93013 0.10322 0.0
H973 H 0.4348 0.90481 0.09527 0.0
C974 C 0.46116 0.97525 0.06103 0.0
C975 C 0.46868 0.96596 0.04881 0.0
C976 C 0.44442 0.96398 0.07406 0.0
C977 C 0.43459 0.9431 0.07511 0.0
C978 C 0.44139 0.93364 0.06224 0.0
H979 H 0.32021 0.87982 0.14889 0.0
H980 H 0.34385 0.89098 0.1201 0.0
C981 C 0.45844 0.94498 0.04935 0.0
C982 C 0.41763 0.93163 0.09008 0.0
H983 H 0.40418 0.90072 0.1315 0.0
C984 C 0.40089 0.93484 0.09043 0.0
C985 C 0.41885 0.9192 0.10516 0.0
C986 C 0.43702 0.91603 0.1065 0.0
C987 C 0.38576 0.92656 0.10572 0.0
C988 C 0.38686 0.91397 0.12069 0.0
C989 C 0.40324 0.91026 0.11998 0.0
C990 C 0.3722 0.90574 0.13808 0.0
C991 C 0.36945 0.93229 0.10618 0.0
C992 C 0.38016 0.90941 0.15787 0.0
C993 C 0.36668 0.90247 0.17438 0.0
C994 C 0.34489 0.89179 0.17155 0.0
C995 C 0.33689 0.88788 0.1517 0.0
C996 C 0.35043 0.8945 0.13517 0.0
H997 H 0.3743 0.94617 0.09724 0.0
H998 H 0.35467 0.92014 0.09953 0.0
H999 H 0.36631 0.93462 0.12187 0.0
H1000 H 0.39688 0.91802 0.16057 0.0
H1001 H 0.37328 0.90582 0.18946 0.0
H1002 H 0.47312 0.39826 0.51339 0.0
H1003 H 0.46139 0.36934 0.53598 0.0
H1004 H 0.49554 0.4085 0.58516 0.0
H1005 H 0.50735 0.43751 0.56266 0.0
H1006 H 0.48362 0.35661 0.55841 0.0
H1007 H 0.4367 0.37419 0.60809 0.0
H1008 H 0.4466 0.38655 0.58402 0.0
H1009 H 0.46358 0.39393 0.6057 0.0
C1010 C 0.47831 0.40074 0.52895 0.0
C1011 C 0.49107 0.42024 0.53623 0.0
C1012 C 0.47151 0.38419 0.54187 0.0
C1013 C 0.47729 0.38678 0.56232 0.0
C1014 C 0.49047 0.40617 0.56954 0.0
H1015 H 0.46123 0.281 0.64641 0.0
H1016 H 0.47839 0.31549 0.61964 0.0
C1017 C 0.49722 0.42274 0.55665 0.0
C1018 C 0.46952 0.36914 0.57602 0.0
H1019 H 0.44025 0.347 0.61822 0.0
C1020 C 0.47419 0.35452 0.57153 0.0
C1021 C 0.45693 0.3663 0.59293 0.0
C1022 C 0.45046 0.38096 0.59793 0.0
C1023 C 0.46661 0.33711 0.58349 0.0
C1024 C 0.45451 0.33456 0.60071 0.0
C1025 C 0.44976 0.34912 0.60515 0.0
C1026 C 0.44556 0.3165 0.61376 0.0
C1027 C 0.47097 0.32137 0.57692 0.0
C1028 C 0.41784 0.30338 0.61878 0.0
C1029 C 0.40568 0.28136 0.6347 0.0
C1030 C 0.42426 0.27627 0.64841 0.0
C1031 C 0.45127 0.28557 0.63932 0.0
C1032 C 0.46194 0.30749 0.62325 0.0
H1033 H 0.47379 0.32236 0.56041 0.0
H1034 H 0.48532 0.32378 0.58464 0.0
H1035 H 0.45783 0.30608 0.58066 0.0
H1036 H 0.40844 0.30883 0.61221 0.0
H1037 H 0.38952 0.27449 0.63922 0.0
H1038 H 0.52639 0.96947 0.45108 0.0
H1039 H 0.53534 0.9492 0.43093 0.0
H1040 H 0.60064 0.99498 0.43502 0.0
H1041 H 0.59185 0.01521 0.45532 0.0
H1042 H 0.55872 0.96167 0.39302 0.0
H1043 H 0.59735 0.94205 0.45344 0.0
H1044 H 0.57963 0.95042 0.45875 0.0
H1045 H 0.60602 0.96812 0.45121 0.0
C1046 C 0.54266 0.97514 0.44783 0.0
C1047 C 0.55842 0.99395 0.45483 0.0
C1048 C 0.54773 0.96358 0.43627 0.0
C1049 C 0.56865 0.97049 0.43172 0.0
C1050 C 0.58441 0.98927 0.4386 0.0
H1051 H 0.6484 0.9308 0.36726 0.0
H1052 H 0.63147 0.9495 0.39095 0.0
C1053 C 0.57935 0.0009 0.45002 0.0
C1054 C 0.57404 0.95843 0.4192 0.0
H1055 H 0.60109 0.93447 0.41989 0.0
C1056 C 0.56777 0.95549 0.3989 0.0
C1057 C 0.58596 0.95054 0.42695 0.0
C1058 C 0.59253 0.95275 0.44882 0.0
C1059 C 0.57379 0.94552 0.38588 0.0
C1060 C 0.58582 0.93771 0.39361 0.0
C1061 C 0.59179 0.94037 0.41401 0.0
C1062 C 0.59356 0.92785 0.3807 0.0
C1063 C 0.56809 0.94451 0.36383 0.0
C1064 C 0.57588 0.90826 0.36381 0.0
C1065 C 0.58524 0.89646 0.34766 0.0
C1066 C 0.61253 0.90294 0.35316 0.0
C1067 C 0.63218 0.92642 0.36576 0.0
C1068 C 0.62127 0.93723 0.38125 0.0
H1069 H 0.56538 0.9567 0.35935 0.0
H1070 H 0.5805 0.94556 0.35404 0.0
H1071 H 0.55334 0.93013 0.361 0.0
H1072 H 0.55946 0.90329 0.36354 0.0
H1073 H 0.57454 0.88366 0.33876 0.0
H1074 H 0.549 0.51298 0.96895 0.0
H1075 H 0.57602 0.52255 0.94344 0.0
H1076 H 0.61224 0.58119 0.96896 0.0
H1077 H 0.58536 0.57189 0.99449 0.0
H1078 H 0.6007 0.56299 0.91526 0.0
H1079 H 0.64439 0.54727 0.97402 0.0
H1080 H 0.6163 0.53549 0.97456 0.0
H1081 H 0.63267 0.56124 0.98115 0.0
C1082 C 0.56246 0.52808 0.96887 0.0
C1083 C 0.56511 0.54161 0.98391 0.0
C1084 C 0.57785 0.5335 0.95426 0.0
C1085 C 0.5961 0.55249 0.95448 0.0
C1086 C 0.59821 0.56645 0.96862 0.0
H1087 H 0.70722 0.61332 0.88102 0.0
H1088 H 0.67425 0.60263 0.89816 0.0
C1089 C 0.58281 0.56109 0.98318 0.0
C1090 C 0.61391 0.557 0.9415 0.0
H1091 H 0.66109 0.56036 0.94289 0.0
C1092 C 0.61391 0.5624 0.9212 0.0
C1093 C 0.63089 0.55588 0.94932 0.0
C1094 C 0.6312 0.54957 0.97093 0.0
C1095 C 0.63081 0.56712 0.90854 0.0
C1096 C 0.64816 0.56663 0.91655 0.0
C1097 C 0.64784 0.56079 0.93677 0.0
C1098 C 0.66708 0.57253 0.9045 0.0
C1099 C 0.62985 0.57238 0.88669 0.0
C1100 C 0.6742 0.55928 0.90265 0.0
C1101 C 0.69312 0.56542 0.89304 0.0
C1102 C 0.70521 0.5849 0.88492 0.0
C1103 C 0.69797 0.59808 0.88668 0.0
C1104 C 0.6791 0.59196 0.89638 0.0
H1105 H 0.61348 0.56646 0.88161 0.0
H1106 H 0.63855 0.58888 0.8848 0.0
H1107 H 0.6371 0.56645 0.8768 0.0
H1108 H 0.66531 0.5443 0.90904 0.0
H1109 H 0.69852 0.55508 0.89235 0.0
H1110 H 0.05006 0.53498 0.4758 0.0
H1111 H 0.07368 0.5646 0.45545 0.0
H1112 H 0.05995 0.60071 0.49241 0.0
H1113 H 0.03612 0.57119 0.5128 0.0
H1114 H 0.05597 0.59064 0.43663 0.0
H1115 H 0.12821 0.62967 0.4837 0.0
H1116 H 0.11104 0.60279 0.48427 0.0
H1117 H 0.10318 0.61813 0.49606 0.0
C1118 C 0.05234 0.54927 0.47989 0.0
C1119 C 0.0411 0.55068 0.49592 0.0
C1120 C 0.0658 0.56615 0.46819 0.0
C1121 C 0.0685 0.58476 0.47247 0.0
C1122 C 0.05812 0.58645 0.48898 0.0
H1123 H 0.10718 0.69188 0.40199 0.0
H1124 H 0.08863 0.66088 0.42194 0.0
C1125 C 0.04452 0.56956 0.50061 0.0
C1126 C 0.08073 0.60207 0.45871 0.0
H1127 H 0.12679 0.6468 0.45455 0.0
C1128 C 0.07151 0.60289 0.44044 0.0
C1129 C 0.10101 0.61785 0.46371 0.0
C1130 C 0.11163 0.61721 0.48295 0.0
C1131 C 0.08189 0.61938 0.42718 0.0
C1132 C 0.10193 0.63558 0.43249 0.0
C1133 C 0.11139 0.63445 0.45054 0.0
C1134 C 0.11302 0.65409 0.41987 0.0
C1135 C 0.07132 0.61922 0.40757 0.0
C1136 C 0.13314 0.6609 0.4125 0.0
C1137 C 0.14385 0.67872 0.40121 0.0
C1138 C 0.13452 0.68999 0.39693 0.0
C1139 C 0.11447 0.68321 0.40453 0.0
C1140 C 0.10386 0.66549 0.4159 0.0
H1141 H 0.05945 0.60375 0.40304 0.0
H1142 H 0.06316 0.62746 0.40946 0.0
H1143 H 0.08284 0.62657 0.3952 0.0
H1144 H 0.14062 0.65247 0.4156 0.0
H1145 H 0.15951 0.68383 0.39604 0.0
H1146 H 0.48854 0.07514 0.01616 0.0
H1147 H 0.47322 0.08631 0.99002 0.0
H1148 H 0.51116 0.08145 0.94507 0.0
H1149 H 0.5263 0.07008 0.97109 0.0
H1150 H 0.49061 0.11827 0.96145 0.0
H1151 H 0.45127 0.0444 0.92466 0.0
H1152 H 0.46286 0.04836 0.94948 0.0
H1153 H 0.47903 0.05565 0.9274 0.0
C1154 C 0.49386 0.0768 1.00076 0.0
C1155 C 0.50849 0.07161 0.9956 0.0
C1156 C 0.48505 0.0831 0.98585 0.0
C1157 C 0.4908 0.08435 0.96558 0.0
C1158 C 0.50618 0.08016 0.96056 0.0
H1159 H 0.4496 0.10721 0.8513 0.0
H1160 H 0.46949 0.10364 0.87898 0.0
C1161 C 0.51484 0.07371 0.97541 0.0
C1162 C 0.4801 0.0892 0.94953 0.0
H1163 H 0.45007 0.07044 0.90716 0.0
C1164 C 0.48167 0.10782 0.94961 0.0
C1165 C 0.46833 0.07544 0.9342 0.0
C1166 C 0.46506 0.05477 0.93397 0.0
C1167 C 0.47218 0.11323 0.93441 0.0
C1168 C 0.46074 0.09958 0.91893 0.0
C1169 C 0.45903 0.08093 0.91898 0.0
C1170 C 0.45017 0.10413 0.90254 0.0
C1171 C 0.47475 0.13359 0.93477 0.0
C1172 C 0.4328 0.10568 0.90668 0.0
C1173 C 0.4214 0.10768 0.89089 0.0
C1174 C 0.4273 0.1083 0.87072 0.0
C1175 C 0.44494 0.10712 0.8667 0.0
C1176 C 0.45626 0.10504 0.88247 0.0
H1177 H 0.48739 0.14377 0.94527 0.0
H1178 H 0.47828 0.14053 0.91944 0.0
H1179 H 0.45991 0.13201 0.93977 0.0
H1180 H 0.42759 0.10457 0.92206 0.0
H1181 H 0.40759 0.1081 0.8944 0.0
H1182 H 0.42578 0.44926 0.5152 0.0
H1183 H 0.3963 0.44314 0.49362 0.0
H1184 H 0.43681 0.49669 0.45912 0.0
H1185 H 0.46644 0.50297 0.48057 0.0
H1186 H 0.37893 0.46793 0.48271 0.0
H1187 H 0.41209 0.45003 0.41777 0.0
H1188 H 0.421 0.45076 0.44338 0.0
H1189 H 0.42899 0.4736 0.42968 0.0
C1190 C 0.4284 0.45991 0.50321 0.0
C1191 C 0.44854 0.47652 0.49953 0.0
C1192 C 0.41152 0.45638 0.4909 0.0
C1193 C 0.41446 0.4693 0.4746 0.0
C1194 C 0.43429 0.4864 0.47146 0.0
H1195 H 0.3012 0.45688 0.39646 0.0
H1196 H 0.33704 0.47246 0.42326 0.0
C1197 C 0.45117 0.49001 0.48382 0.0
C1198 C 0.397 0.4642 0.46033 0.0
H1199 H 0.38 0.44808 0.41243 0.0
C1200 C 0.37922 0.46379 0.46727 0.0
C1201 C 0.39733 0.45854 0.44029 0.0
C1202 C 0.41577 0.45807 0.43227 0.0
C1203 C 0.36165 0.45769 0.45475 0.0
C1204 C 0.36205 0.45211 0.43469 0.0
C1205 C 0.37986 0.45261 0.42774 0.0
C1206 C 0.34366 0.44412 0.42116 0.0
C1207 C 0.34254 0.45643 0.46349 0.0
C1208 C 0.3335 0.41947 0.41121 0.0
C1209 C 0.31079 0.40823 0.3951 0.0
C1210 C 0.30202 0.42539 0.38645 0.0
C1211 C 0.30801 0.44808 0.4006 0.0
C1212 C 0.33087 0.458 0.41656 0.0
H1213 H 0.34254 0.45549 0.48024 0.0
H1214 H 0.34246 0.4701 0.45911 0.0
H1215 H 0.32794 0.44325 0.45779 0.0
H1216 H 0.34111 0.41132 0.41501 0.0
H1217 H 0.30572 0.39426 0.3877 0.0
H1218 H 0.95908 0.44862 0.95916 0.0
H1219 H 0.94284 0.42039 0.93612 0.0
H1220 H 0.93831 0.38088 0.98475 0.0
H1221 H 0.95409 0.40897 0.00788 0.0
H1222 H 0.95616 0.39659 0.92455 0.0
H1223 H 0.87978 0.35077 0.96265 0.0
H1224 H 0.89806 0.37643 0.9691 0.0
H1225 H 0.90138 0.35676 0.97917 0.0
C1226 C 0.95447 0.43387 0.96492 0.0
C1227 C 0.95768 0.43094 0.98533 0.0
C1228 C 0.94521 0.41777 0.95178 0.0
C1229 C 0.93905 0.39846 0.95878 0.0
C1230 C 0.94237 0.39553 0.97913 0.0
H1231 H 0.9165 0.29895 0.88489 0.0
H1232 H 0.93193 0.3286 0.90605 0.0
C1233 C 0.95141 0.41159 0.99234 0.0
C1234 C 0.92983 0.38154 0.94462 0.0
H1235 H 0.88775 0.3346 0.93744 0.0
C1236 C 0.94113 0.38308 0.92728 0.0
C1237 C 0.91009 0.36404 0.94805 0.0
C1238 C 0.89653 0.36195 0.96564 0.0
C1239 C 0.93339 0.36746 0.91345 0.0
C1240 C 0.91408 0.34962 0.91737 0.0
C1241 C 0.90265 0.34822 0.93454 0.0
C1242 C 0.90527 0.33222 0.90383 0.0
C1243 C 0.9458 0.37041 0.89462 0.0
C1244 C 0.88497 0.3241 0.896 0.0
C1245 C 0.87605 0.30703 0.8842 0.0
C1246 C 0.88738 0.2979 0.87972 0.0
C1247 C 0.90767 0.30602 0.88764 0.0
C1248 C 0.91651 0.32299 0.89964 0.0
H1249 H 0.95648 0.38652 0.89092 0.0
H1250 H 0.95551 0.3637 0.89708 0.0
H1251 H 0.93535 0.36312 0.88148 0.0
H1252 H 0.87592 0.33084 0.89922 0.0
H1253 H 0.86016 0.30082 0.87881 0.0
H1254 H 0.99696 0.50989 0.95162 0.0
H1255 H 0.97698 0.51796 0.92807 0.0
H1256 H 0.00985 0.57864 0.94877 0.0
H1257 H 0.02993 0.57075 0.97255 0.0
H1258 H 0.95257 0.53423 0.94695 0.0
H1259 H 0.00488 0.58137 0.88422 0.0
H1260 H 0.00878 0.56337 0.89787 0.0
H1261 H 0.01501 0.58616 0.90966 0.0
C1262 C 1.00043 0.52512 0.95082 0.0
C1263 C 0.01493 0.53962 0.96416 0.0
C1264 C 0.98896 0.52969 0.93733 0.0
C1265 C 0.99197 0.54888 0.93669 0.0
C1266 C 0.00746 0.56379 0.94891 0.0
H1267 H 0.9144 0.59113 0.88194 0.0
H1268 H 0.94392 0.59016 0.89737 0.0
C1269 C 0.01888 0.55921 0.96252 0.0
C1270 C 0.97683 0.55235 0.92559 0.0
H1271 H 0.97053 0.5754 0.88413 0.0
C1272 C 0.95648 0.54322 0.93321 0.0
C1273 C 0.98214 0.56436 0.9079 0.0
C1274 C 0.00385 0.57439 0.89926 0.0
C1275 C 0.94117 0.54558 0.9235 0.0
C1276 C 0.94619 0.55698 0.90536 0.0
C1277 C 0.96671 0.56656 0.89796 0.0
C1278 C 0.92991 0.55833 0.89372 0.0
C1279 C 0.91975 0.53595 0.93286 0.0
C1280 C 0.91266 0.54092 0.88599 0.0
C1281 C 0.89588 0.54143 0.87732 0.0
C1282 C 0.89609 0.55942 0.87591 0.0
C1283 C 0.91388 0.57709 0.88272 0.0
C1284 C 0.93071 0.57655 0.89152 0.0
H1285 H 0.92012 0.53256 0.94917 0.0
H1286 H 0.9132 0.54572 0.93111 0.0
H1287 H 0.90904 0.52166 0.92519 0.0
H1288 H 0.91186 0.52676 0.88731 0.0
H1289 H 0.88239 0.52755 0.87232 0.0
H1290 H 0.46322 0.9898 0.4552 0.0
H1291 H 0.42949 0.96389 0.44235 0.0
H1292 H 0.42499 0.92388 0.49039 0.0
H1293 H 0.45898 0.95016 0.50377 0.0
H1294 H 0.41813 0.92655 0.42883 0.0
H1295 H 0.36907 0.92124 0.49368 0.0
H1296 H 0.39572 0.94169 0.49065 0.0
H1297 H 0.39041 0.91765 0.49931 0.0
C1298 C 0.45512 0.97553 0.46316 0.0
C1299 C 0.4638 0.97206 0.48056 0.0
C1300 C 0.43581 0.96071 0.45573 0.0
C1301 C 0.42466 0.94201 0.46546 0.0
C1302 C 0.43321 0.93833 0.48283 0.0
H1303 H 0.29873 0.8472 0.42793 0.0
H1304 H 0.33323 0.86416 0.44434 0.0
C1305 C 0.45264 0.95331 0.4904 0.0
C1306 C 0.4042 0.92663 0.45696 0.0
H1307 H 0.35161 0.90177 0.46539 0.0
C1308 C 0.40359 0.92094 0.43691 0.0
C1309 C 0.38527 0.9193 0.46756 0.0
C1310 C 0.38499 0.92533 0.48894 0.0
C1311 C 0.38455 0.90872 0.42692 0.0
C1312 C 0.36565 0.90213 0.43721 0.0
C1313 C 0.3662 0.90695 0.45756 0.0
C1314 C 0.34522 0.89146 0.4267 0.0
C1315 C 0.38478 0.90326 0.40529 0.0
C1316 C 0.34057 0.90129 0.41149 0.0
C1317 C 0.32094 0.89169 0.40217 0.0
C1318 C 0.30567 0.87199 0.40776 0.0
C1319 C 0.31038 0.86222 0.42305 0.0
C1320 C 0.32999 0.87188 0.43246 0.0
H1321 H 0.39997 0.90499 0.40131 0.0
H1322 H 0.37205 0.88762 0.40242 0.0
H1323 H 0.38228 0.91328 0.39517 0.0
H1324 H 0.35199 0.91657 0.40715 0.0
H1325 H 0.31757 0.89979 0.39084 0.0
H1326 H 0.52406 0.42075 0.01326 0.0
H1327 H 0.51082 0.39383 0.98872 0.0
H1328 H 0.46962 0.41183 0.96379 0.0
H1329 H 0.48277 0.43869 0.98814 0.0
H1330 H 0.47105 0.3618 0.98149 0.0
H1331 H 0.50083 0.41189 0.91419 0.0
H1332 H 0.50902 0.42085 0.9395 0.0
H1333 H 0.48448 0.41648 0.92975 0.0
C1334 C 0.5121 0.41889 0.00263 0.0
C1335 C 0.50466 0.43204 0.00252 0.0
C1336 C 0.5046 0.40355 0.98858 0.0
C1337 C 0.48956 0.40109 0.97415 0.0
C1338 C 0.48165 0.41379 0.97441 0.0
H1339 H 0.40972 0.29811 0.9006 0.0
H1340 H 0.42488 0.32344 0.92682 0.0
C1341 C 0.48919 0.42916 0.98836 0.0
C1342 C 0.482 0.38519 0.95887 0.0
H1343 H 0.47673 0.37739 0.9081 0.0
C1344 C 0.4724 0.36519 0.96544 0.0
C1345 C 0.48406 0.38966 0.93792 0.0
C1346 C 0.49534 0.41089 0.92989 0.0
C1347 C 0.46433 0.3495 0.95163 0.0
C1348 C 0.46555 0.35393 0.93069 0.0
C1349 C 0.47561 0.37397 0.92414 0.0
C1350 C 0.45644 0.33808 0.91527 0.0
C1351 C 0.45483 0.32837 0.95961 0.0
C1352 C 0.46899 0.33819 0.89971 0.0
C1353 C 0.46031 0.32387 0.88461 0.0
C1354 C 0.43891 0.30899 0.88487 0.0
C1355 C 0.42635 0.30905 0.90034 0.0
C1356 C 0.43501 0.32346 0.91537 0.0
H1357 H 0.46065 0.328 0.97503 0.0
H1358 H 0.43761 0.32127 0.96045 0.0
H1359 H 0.45829 0.31934 0.94958 0.0
H1360 H 0.4855 0.34948 0.89917 0.0
H1361 H 0.47029 0.32455 0.8726 0.0
H1362 H 0.03838 0.4878 0.44589 0.0
H1363 H 0.0617 0.48025 0.42831 0.0
H1364 H 0.01256 0.41825 0.42542 0.0
H1365 H 0.98915 0.42557 0.44346 0.0
H1366 H 0.07073 0.45011 0.44484 0.0
H1367 H 0.0384 0.43484 0.36665 0.0
H1368 H 0.03399 0.44983 0.3838 0.0
H1369 H 0.02035 0.42322 0.38726 0.0
C1370 C 0.03245 0.47256 0.4415 0.0
C1371 C 0.01192 0.45726 0.44631 0.0
C1372 C 0.04577 0.46831 0.43133 0.0
C1373 C 0.0388 0.44874 0.42552 0.0
C1374 C 0.01812 0.43351 0.42957 0.0
H1375 H 0.10742 0.39953 0.37118 0.0
H1376 H 0.0797 0.40433 0.38355 0.0
C1377 C 0.00476 0.43774 0.43985 0.0
C1378 C 0.05379 0.44413 0.41681 0.0
H1379 H 0.06726 0.43121 0.37333 0.0
C1380 C 0.06998 0.44596 0.42922 0.0
C1381 C 0.05256 0.4385 0.39651 0.0
C1382 C 0.03548 0.43654 0.38264 0.0
C1383 C 0.08513 0.44241 0.42184 0.0
C1384 C 0.08437 0.43744 0.40132 0.0
C1385 C 0.06788 0.43518 0.389 0.0
C1386 C 0.10084 0.43493 0.39243 0.0
C1387 C 0.10163 0.44376 0.43619 0.0
C1388 C 0.12179 0.45071 0.39278 0.0
C1389 C 0.13758 0.44796 0.38593 0.0
C1390 C 0.1327 0.42945 0.37826 0.0
C1391 C 0.1116 0.41392 0.37707 0.0
C1392 C 0.0958 0.41665 0.38409 0.0
H1393 H 0.09647 0.44176 0.45214 0.0
H1394 H 0.10559 0.43233 0.43285 0.0
H1395 H 0.11602 0.45875 0.43463 0.0
H1396 H 0.12598 0.46509 0.39872 0.0
H1397 H 0.15367 0.46021 0.38695 0.0
H1398 H 0.57573 0.00053 0.99061 0.0
H1399 H 0.60245 0.01674 0.9645 0.0
H1400 H 0.57091 0.04523 0.93965 0.0
H1401 H 0.54401 0.02903 0.96559 0.0
H1402 H 0.5898 0.03181 0.90993 0.0
H1403 H 0.64373 0.07823 0.97142 0.0
H1404 H 0.6309 0.05162 0.97509 0.0
H1405 H 0.61575 0.0633 0.97464 0.0
C1406 C 0.57415 0.00985 0.97932 0.0
C1407 C 0.55786 0.01369 0.9804 0.0
C1408 C 0.5895 0.01915 0.96444 0.0
C1409 C 0.58883 0.03244 0.95038 0.0
C1410 C 0.57173 0.03507 0.95041 0.0
H1411 H 0.68912 0.13555 0.89103 0.0
H1412 H 0.65737 0.1108 0.90876 0.0
C1413 C 0.55637 0.02579 0.96529 0.0
C1414 C 0.60699 0.04525 0.93719 0.0
H1415 H 0.6576 0.08433 0.9387 0.0
C1416 C 0.60469 0.04321 0.91617 0.0
C1417 C 0.62628 0.06029 0.94542 0.0
C1418 C 0.6294 0.06369 0.96786 0.0
C1419 C 0.62126 0.05585 0.90314 0.0
C1420 C 0.64054 0.07082 0.91142 0.0
C1421 C 0.64281 0.07277 0.93243 0.0
C1422 C 0.65839 0.08531 0.8987 0.0
C1423 C 0.61793 0.05352 0.88064 0.0
C1424 C 0.66941 0.07916 0.88701 0.0
C1425 C 0.6876 0.09332 0.87681 0.0
C1426 C 0.69496 0.11385 0.87806 0.0
C1427 C 0.68363 0.11984 0.88949 0.0
C1428 C 0.66554 0.10573 0.89968 0.0
H1429 H 0.60116 0.04362 0.87662 0.0
H1430 H 0.62399 0.06831 0.87311 0.0
H1431 H 0.6267 0.04694 0.87465 0.0
H1432 H 0.66439 0.0635 0.88639 0.0
H1433 H 0.69627 0.08832 0.86849 0.0
H1434 H 0.57778 0.55364 0.44397 0.0
H1435 H 0.59094 0.58667 0.42833 0.0
H1436 H 0.54795 0.59416 0.46379 0.0
H1437 H 0.53535 0.56182 0.47999 0.0
H1438 H 0.57006 0.60227 0.40618 0.0
H1439 H 0.60439 0.64388 0.47676 0.0
H1440 H 0.59634 0.61796 0.47428 0.0
H1441 H 0.57733 0.62471 0.47926 0.0
C1442 C 0.57123 0.56237 0.44855 0.0
C1443 C 0.55556 0.555 0.46336 0.0
C1444 C 0.57868 0.58118 0.4395 0.0
C1445 C 0.57067 0.59298 0.44518 0.0
C1446 C 0.55462 0.58544 0.45947 0.0
H1447 H 0.58482 0.70645 0.41755 0.0
H1448 H 0.57372 0.67229 0.42833 0.0
C1449 C 0.54724 0.56675 0.46855 0.0
C1450 C 0.57904 0.61326 0.43639 0.0
H1451 H 0.6007 0.66205 0.44936 0.0
C1452 C 0.57699 0.6154 0.41554 0.0
C1453 C 0.58816 0.63036 0.44866 0.0
C1454 C 0.5919 0.62919 0.47095 0.0
C1455 C 0.58303 0.63412 0.40677 0.0
C1456 C 0.59147 0.65105 0.41919 0.0
C1457 C 0.59404 0.64898 0.43992 0.0
C1458 C 0.59729 0.67105 0.4112 0.0
C1459 C 0.57973 0.63558 0.38445 0.0
C1460 C 0.61421 0.68161 0.39799 0.0
C1461 C 0.62058 0.70113 0.39181 0.0
C1462 C 0.61002 0.71033 0.39866 0.0
C1463 C 0.59299 0.69961 0.41176 0.0
C1464 C 0.58669 0.68015 0.41797 0.0
H1465 H 0.56957 0.62064 0.3777 0.0
H1466 H 0.57259 0.64473 0.38155 0.0
H1467 H 0.59507 0.64304 0.37673 0.0
H1468 H 0.62286 0.67497 0.39294 0.0
H1469 H 0.63404 0.70921 0.38206 0.0
H1470 H 0.47655 0.03248 0.55432 0.0
H1471 H 0.46334 0.04693 0.57771 0.0
H1472 H 0.50311 0.10506 0.55034 0.0
H1473 H 0.51646 0.09078 0.52696 0.0
H1474 H 0.48469 0.07724 0.60587 0.0
H1475 H 0.44542 0.09855 0.54792 0.0
H1476 H 0.45424 0.08165 0.54287 0.0
H1477 H 0.4725 0.1082 0.54271 0.0
C1478 C 0.48259 0.04836 0.55332 0.0
C1479 C 0.49751 0.06044 0.53863 0.0
C1480 C 0.47496 0.05658 0.56668 0.0
C1481 C 0.48199 0.077 0.56556 0.0
C1482 C 0.4971 0.08916 0.55116 0.0
H1483 H 0.46026 0.15959 0.62745 0.0
H1484 H 0.47332 0.14282 0.60713 0.0
C1485 C 0.50471 0.08096 0.53778 0.0
C1486 C 0.4737 0.08568 0.57955 0.0
H1487 H 0.44876 0.11161 0.58071 0.0
C1488 C 0.4767 0.08464 0.60041 0.0
C1489 C 0.46316 0.09521 0.57239 0.0
C1490 C 0.45843 0.09583 0.55027 0.0
C1491 C 0.47008 0.0935 0.61425 0.0
C1492 C 0.45998 0.10342 0.60702 0.0
C1493 C 0.45665 0.10412 0.5862 0.0
C1494 C 0.45309 0.11359 0.62064 0.0
C1495 C 0.47447 0.09269 0.63642 0.0
C1496 C 0.43743 0.10273 0.63506 0.0
C1497 C 0.43001 0.11233 0.64678 0.0
C1498 C 0.43816 0.13296 0.64428 0.0
C1499 C 0.45395 0.14377 0.62995 0.0
C1500 C 0.46135 0.13419 0.61828 0.0
H1501 H 0.48636 0.08849 0.63906 0.0
H1502 H 0.48002 0.10733 0.64351 0.0
H1503 H 0.45984 0.08134 0.64407 0.0
H1504 H 0.43052 0.08675 0.63683 0.0
H1505 H 0.41752 0.10357 0.6574 0.0
H1506 H 0.47723 0.48128 0.09156 0.0
H1507 H 0.44339 0.47344 0.10398 0.0
H1508 H 0.42794 0.48698 0.04526 0.0
H1509 H 0.4621 0.49488 0.03249 0.0
H1510 H 0.42605 0.49851 0.10398 0.0
H1511 H 0.37895 0.42896 0.05996 0.0
H1512 H 0.40678 0.44039 0.06372 0.0
H1513 H 0.39703 0.45145 0.04628 0.0
C1514 C 0.46672 0.48264 0.0812 0.0
C1515 C 0.47232 0.48859 0.06098 0.0
C1516 C 0.44738 0.4782 0.08838 0.0
C1517 C 0.43314 0.47949 0.07551 0.0
C1518 C 0.43869 0.48572 0.05536 0.0
H1519 H 0.31329 0.46781 0.13582 0.0
H1520 H 0.35136 0.48348 0.11276 0.0
C1521 C 0.4582 0.49029 0.04813 0.0
C1522 C 0.41245 0.47393 0.08351 0.0
H1523 H 0.361 0.43676 0.08307 0.0
C1524 C 0.41171 0.48519 0.09924 0.0
C1525 C 0.39394 0.45637 0.07745 0.0
C1526 C 0.39405 0.44344 0.06101 0.0
C1527 C 0.39303 0.47905 0.10952 0.0
C1528 C 0.37454 0.46134 0.10362 0.0
C1529 C 0.37519 0.45035 0.08754 0.0
C1530 C 0.35469 0.45306 0.11467 0.0
C1531 C 0.3937 0.49093 0.12739 0.0
C1532 C 0.34134 0.42704 0.1224 0.0
C1533 C 0.31706 0.41574 0.13591 0.0
C1534 C 0.30975 0.43365 0.14457 0.0
C1535 C 0.31937 0.45846 0.13209 0.0
C1536 C 0.34362 0.46836 0.11869 0.0
H1537 H 0.40996 0.50145 0.13258 0.0
H1538 H 0.38666 0.49989 0.12312 0.0
H1539 H 0.3848 0.48087 0.1402 0.0
H1540 H 0.34808 0.41817 0.11904 0.0
H1541 H 0.30999 0.40076 0.14219 0.0
H1542 H 0.97289 0.45967 0.56296 0.0
H1543 H 0.95649 0.43237 0.58785 0.0
H1544 H 0.98897 0.4059 0.56288 0.0
H1545 H 0.00526 0.43299 0.53777 0.0
H1546 H 0.94612 0.37943 0.56631 0.0
H1547 H 0.97921 0.41907 0.63828 0.0
H1548 H 0.96764 0.42959 0.62241 0.0
H1549 H 0.99057 0.43007 0.61407 0.0
C1550 C 0.97688 0.44825 0.56298 0.0
C1551 C 0.9904 0.44853 0.54832 0.0
C1552 C 0.96752 0.43267 0.57729 0.0
C1553 C 0.97162 0.41716 0.57733 0.0
C1554 C 0.98562 0.41774 0.56314 0.0
H1555 H 0.92561 0.30422 0.64092 0.0
H1556 H 0.94279 0.33329 0.61811 0.0
C1557 C 0.99497 0.43329 0.54883 0.0
C1558 C 0.96018 0.39957 0.59112 0.0
H1559 H 0.95143 0.38521 0.6408 0.0
C1560 C 0.94737 0.38068 0.5826 0.0
C1561 C 0.96164 0.40125 0.61237 0.0
C1562 C 0.97564 0.42105 0.62238 0.0
C1563 C 0.93588 0.36345 0.59471 0.0
C1564 C 0.93753 0.36508 0.61596 0.0
C1565 C 0.95018 0.38399 0.62451 0.0
C1566 C 0.92671 0.34725 0.62954 0.0
C1567 C 0.9218 0.3437 0.58464 0.0
C1568 C 0.91226 0.34561 0.64383 0.0
C1569 C 0.90242 0.32898 0.65691 0.0
C1570 C 0.90683 0.31367 0.6559 0.0
C1571 C 0.9215 0.31551 0.64171 0.0
C1572 C 0.93131 0.3321 0.62867 0.0
H1573 H 0.91778 0.34578 0.56894 0.0
H1574 H 0.92997 0.33535 0.58399 0.0
H1575 H 0.90709 0.33446 0.59323 0.0
H1576 H 0.90864 0.35722 0.6449 0.0
H1577 H 0.89156 0.3282 0.66799 0.0
H1578 H 0.54315 0.97217 0.06681 0.0
H1579 H 0.55162 0.95165 0.08809 0.0
H1580 H 0.5955 0.00364 0.12172 0.0
H1581 H 0.58652 0.02426 0.10093 0.0
H1582 H 0.58962 0.95483 0.09314 0.0
H1583 H 0.56038 0.9636 0.16616 0.0
H1584 H 0.55381 0.9705 0.14228 0.0
H1585 H 0.57877 0.98682 0.15392 0.0
C1586 C 0.55431 0.97926 0.07895 0.0
C1587 C 0.564 0.9999 0.08225 0.0
C1588 C 0.55927 0.96749 0.091 0.0
C1589 C 0.57397 0.97606 0.10665 0.0
C1590 C 0.58381 0.99665 0.10995 0.0
H1591 H 0.63929 0.92481 0.16663 0.0
H1592 H 0.62911 0.94423 0.14531 0.0
C1593 C 0.57883 0.00846 0.09791 0.0
C1594 C 0.57942 0.96347 0.11907 0.0
H1595 H 0.58007 0.94778 0.16736 0.0
C1596 C 0.58748 0.95323 0.10937 0.0
C1597 C 0.57632 0.96118 0.14018 0.0
C1598 C 0.56666 0.97094 0.15126 0.0
C1599 C 0.59284 0.941 0.12025 0.0
C1600 C 0.59044 0.93927 0.14146 0.0
C1601 C 0.58206 0.94926 0.15112 0.0
C1602 C 0.59651 0.92719 0.15393 0.0
C1603 C 0.6007 0.92978 0.1089 0.0
C1604 C 0.58169 0.91148 0.16621 0.0
C1605 C 0.5875 0.90046 0.17848 0.0
C1606 C 0.60825 0.90486 0.17858 0.0
C1607 C 0.6231 0.92075 0.16643 0.0
C1608 C 0.61729 0.93181 0.15423 0.0
H1609 H 0.59609 0.92823 0.09272 0.0
H1610 H 0.61803 0.93812 0.1097 0.0
H1611 H 0.59464 0.91465 0.11558 0.0
H1612 H 0.56562 0.90781 0.16637 0.0
H1613 H 0.57585 0.88864 0.18807 0.0
H1614 H 0.53618 0.49977 0.57408 0.0
H1615 H 0.56329 0.51046 0.6001 0.0
H1616 H 0.5921 0.57132 0.57829 0.0
H1617 H 0.56516 0.56082 0.55218 0.0
H1618 H 0.61926 0.55623 0.58101 0.0
H1619 H 0.57535 0.54293 0.65217 0.0
H1620 H 0.56427 0.52239 0.63504 0.0
H1621 H 0.5654 0.54512 0.62788 0.0
C1622 C 0.54802 0.5155 0.57506 0.0
C1623 C 0.5485 0.52942 0.56097 0.0
C1624 C 0.56348 0.52159 0.59 0.0
C1625 C 0.57965 0.5417 0.59119 0.0
C1626 C 0.57972 0.55573 0.57766 0.0
H1627 H 0.69676 0.60877 0.6567 0.0
H1628 H 0.66701 0.59727 0.6336 0.0
C1629 C 0.56425 0.54969 0.56277 0.0
C1630 C 0.59743 0.54786 0.60536 0.0
H1631 H 0.61053 0.55134 0.65532 0.0
C1632 C 0.61738 0.55525 0.59726 0.0
C1633 C 0.59488 0.54634 0.62653 0.0
C1634 C 0.57387 0.53892 0.63601 0.0
C1635 C 0.63486 0.56105 0.60976 0.0
C1636 C 0.63241 0.55985 0.63096 0.0
C1637 C 0.6124 0.55228 0.63907 0.0
C1638 C 0.65048 0.56675 0.64494 0.0
C1639 C 0.65571 0.56801 0.6001 0.0
C1640 C 0.65084 0.55358 0.6594 0.0
C1641 C 0.6678 0.56016 0.67269 0.0
C1642 C 0.68479 0.58003 0.67169 0.0
C1643 C 0.68417 0.59325 0.65745 0.0
C1644 C 0.66721 0.58669 0.64423 0.0
H1645 H 0.65382 0.56259 0.58442 0.0
H1646 H 0.66497 0.58459 0.59948 0.0
H1647 H 0.66472 0.56281 0.60895 0.0
H1648 H 0.63799 0.53819 0.66037 0.0
H1649 H 0.66758 0.54976 0.68384 0.0
H1650 H 0.0622 0.56816 0.05211 0.0
H1651 H 0.08248 0.59599 0.0748 0.0
H1652 H 0.02644 0.57983 0.10754 0.0
H1653 H 0.00611 0.55145 0.08537 0.0
H1654 H 0.07835 0.62816 0.08159 0.0
H1655 H 0.06657 0.58454 0.15234 0.0
H1656 H 0.06058 0.57331 0.12778 0.0
H1657 H 0.04262 0.57846 0.1398 0.0
C1658 C 0.05419 0.57025 0.06433 0.0
C1659 C 0.0325 0.55742 0.06699 0.0
C1660 C 0.06581 0.5863 0.07719 0.0
C1661 C 0.05601 0.5898 0.09301 0.0
C1662 C 0.03437 0.57716 0.09564 0.0
H1663 H 0.10337 0.69958 0.15888 0.0
H1664 H 0.08524 0.67169 0.13561 0.0
C1665 C 0.02273 0.56107 0.08281 0.0
C1666 C 0.06837 0.60702 0.1064 0.0
H1667 H 0.08167 0.61958 0.15564 0.0
C1668 C 0.07918 0.62631 0.09778 0.0
C1669 C 0.06967 0.60451 0.12745 0.0
C1670 C 0.05942 0.58408 0.1374 0.0
C1671 C 0.09093 0.64323 0.10972 0.0
C1672 C 0.09152 0.64078 0.13088 0.0
C1673 C 0.08104 0.62145 0.13943 0.0
C1674 C 0.1029 0.65802 0.14447 0.0
C1675 C 0.10286 0.66353 0.09951 0.0
C1676 C 0.11842 0.65929 0.15756 0.0
C1677 C 0.1286 0.67507 0.171 0.0
C1678 C 0.12362 0.69001 0.17143 0.0
C1679 C 0.1079 0.68857 0.15846 0.0
C1680 C 0.09761 0.6727 0.14513 0.0
H1681 H 0.10577 0.66237 0.08336 0.0
H1682 H 0.09353 0.67075 0.10018 0.0
H1683 H 0.1181 0.67333 0.10711 0.0
H1684 H 0.12255 0.64798 0.15746 0.0
H1685 H 0.14025 0.67549 0.18118 0.0
loop_
_geom_bond_atom_site_label_1
_geom_bond_atom_site_label_2
_geom_bond_distance
_geom_bond_site_symmetry_2
_ccdc_geom_bond_type
Cu0 N1 1.999 1_554 S
Cu0 O6 1.974 1_554 S
Cu0 N11 1.985 . S
Cu0 O20 1.959 . S
N1 Cu0 1.999 1_556 S
N1 C3 1.263 . S
N1 C5 1.389 1_556 S
N2 C3 1.358 1_655 S
N2 C4 1.400 . S
C3 N1 1.263 . S
C3 N2 1.358 1_455 S
C3 H9 0.930 . S
C4 N2 1.400 . S
C4 C5 1.351 1_656 S
C4 H21 0.930 . S
C5 N1 1.389 1_554 S
C5 C4 1.351 1_454 S
C5 H10 0.930 . S
O6 Cu0 1.974 1_556 S
O6 C16 1.282 . S
C7 O8 1.261 . S
C7 O20 1.251 . S
O8 C7 1.261 . S
H9 C3 0.930 . S
H10 C5 0.930 . S
N11 Cu0 1.985 . S
N11 C13 1.335 . S
N11 C14 1.390 . S
N12 C13 1.345 . S
N12 C15 1.336 . S
C13 N11 1.335 . S
C13 N12 1.345 . S
C13 H18 0.930 . S
C14 N11 1.390 . S
C14 C15 1.346 . S
C14 H19 0.950 . S
C15 N12 1.336 . S
C15 C14 1.346 . S
C15 H22 0.929 . S
C16 O6 1.282 . S
C16 O17 1.216 . S
O17 C16 1.216 . S
H18 C13 0.930 . S
H19 C14 0.950 . S
O20 Cu0 1.959 . S
O20 C7 1.251 . S
H21 C4 0.930 . S
H22 C15 0.929 . S
Cu23 N24 1.999 . S
Cu23 O29 1.974 . S
Cu23 N34 1.985 1_565 S
Cu23 O43 1.959 1_565 S
N24 Cu23 1.999 . S
N24 C26 1.263 . S
N24 C28 1.389 . S
N25 C26 1.358 . S
N25 C27 1.400 . S
C26 N24 1.263 . S
C26 N25 1.358 . S
C26 H32 0.930 . S
C27 N25 1.400 . S
C27 C28 1.351 . S
C27 H44 0.930 . S
C28 N24 1.389 . S
C28 C27 1.351 . S
C28 H33 0.930 . S
O29 Cu23 1.974 . S
O29 C39 1.282 . S
C30 O31 1.261 . S
C30 O43 1.251 . S
O31 C30 1.261 . S
H32 C26 0.930 . S
H33 C28 0.930 . S
N34 Cu23 1.985 1_545 S
N34 C36 1.335 . S
N34 C37 1.390 . S
N35 C36 1.345 . S
N35 C38 1.336 . S
C36 N34 1.335 . S
C36 N35 1.345 . S
C36 H41 0.930 . S
C37 N34 1.390 . S
C37 C38 1.346 . S
C37 H42 0.930 . S
C38 N35 1.336 . S
C38 C37 1.346 . S
C38 H45 0.929 . S
C39 O29 1.282 . S
C39 O40 1.216 1_565 S
O40 C39 1.216 1_545 S
H41 C36 0.930 . S
H42 C37 0.930 . S
O43 Cu23 1.959 1_545 S
O43 C30 1.251 . S
H44 C27 0.930 . S
H45 C38 0.929 . S
Cu46 N47 1.999 . S
Cu46 O52 1.974 . S
Cu46 N57 1.985 . S
Cu46 O66 1.959 . S
N47 Cu46 1.999 . S
N47 C49 1.263 1_554 S
N47 C51 1.389 1_554 S
N48 C49 1.358 . S
N48 C50 1.400 . S
C49 N47 1.263 1_556 S
C49 N48 1.358 . S
C49 H55 0.930 . S
C50 N48 1.400 . S
C50 C51 1.351 . S
C50 H67 0.930 . S
C51 N47 1.389 1_556 S
C51 C50 1.351 . S
C51 H56 0.930 1_556 S
O52 Cu46 1.974 . S
O52 C62 1.282 . S
C53 O54 1.261 . S
C53 O66 1.251 . S
O54 C53 1.261 . S
H55 C49 0.930 . S
H56 C51 0.930 1_554 S
N57 Cu46 1.985 . S
N57 C59 1.335 . S
N57 C60 1.390 . S
N58 C59 1.345 . S
N58 C61 1.336 . S
C59 N57 1.335 . S
C59 N58 1.345 . S
C59 H64 0.930 . S
C60 N57 1.390 . S
C60 C61 1.346 . S
C60 H65 0.930 . S
C61 N58 1.336 . S
C61 C60 1.346 . S
C61 H68 0.929 . S
C62 O52 1.282 . S
C62 O63 1.216 . S
O63 C62 1.216 . S
H64 C59 0.930 . S
H65 C60 0.930 . S
O66 Cu46 1.959 . S
O66 C53 1.251 . S
H67 C50 0.930 . S
H68 C61 0.929 . S
Cu69 N70 1.999 1_655 S
Cu69 O75 1.974 1_655 S
Cu69 N80 1.985 . S
Cu69 O89 1.959 . S
N70 Cu69 1.999 1_455 S
N70 C72 1.263 . S
N70 C74 1.389 1_455 S
N71 C72 1.358 . S
N71 C73 1.400 . S
C72 N70 1.263 . S
C72 N71 1.358 . S
C72 H78 0.930 . S
C73 N71 1.400 . S
C73 C74 1.351 1_455 S
C73 H90 0.947 1_455 S
C74 N70 1.389 1_655 S
C74 C73 1.351 1_655 S
C74 H79 0.930 . S
O75 Cu69 1.974 1_455 S
O75 C85 1.282 . S
C76 O77 1.261 1_655 S
C76 O89 1.251 . S
O77 C76 1.261 1_455 S
H78 C72 0.930 . S
H79 C74 0.930 . S
N80 Cu69 1.985 . S
N80 C82 1.335 . S
N80 C83 1.390 . S
N81 C82 1.345 . S
N81 C84 1.336 . S
C82 N80 1.335 . S
C82 N81 1.345 . S
C82 H87 0.930 . S
C83 N80 1.390 . S
C83 C84 1.346 . S
C83 H88 0.930 1_655 S
C84 N81 1.336 . S
C84 C83 1.346 . S
C84 H91 0.929 . S
C85 O75 1.282 . S
C85 O86 1.216 . S
O86 C85 1.216 . S
H87 C82 0.930 . S
H88 C83 0.930 1_455 S
O89 Cu69 1.959 . S
O89 C76 1.251 . S
H90 C73 0.947 1_655 S
H91 C84 0.929 . S
Cu92 N93 1.999 . S
Cu92 O98 1.974 . S
Cu92 N103 1.995 . S
Cu92 O112 1.959 . S
N93 Cu92 1.999 . S
N93 C95 1.207 1_554 S
N93 C97 1.389 . S
N94 C95 1.370 . S
N94 C96 1.400 1_556 S
C95 N93 1.207 1_556 S
C95 N94 1.370 . S
C95 H101 0.971 . S
C96 N94 1.400 1_554 S
C96 C97 1.351 . S
C96 H113 0.930 . S
C97 N93 1.389 . S
C97 C96 1.351 . S
C97 H102 0.930 . S
O98 Cu92 1.974 . S
O98 C108 1.282 1_554 S
C99 O100 1.261 . S
C99 O112 1.251 1_565 S
O100 C99 1.261 . S
H101 C95 0.971 . S
H102 C97 0.930 . S
N103 Cu92 1.995 . S
N103 C105 1.331 1_545 S
N103 C106 1.383 1_545 S
N104 C105 1.345 . S
N104 C107 1.336 . S
C105 N103 1.331 1_565 S
C105 N104 1.345 . S
C105 H110 0.930 . S
C106 N103 1.383 1_565 S
C106 C107 1.346 . S
C106 H111 0.930 1_565 S
C107 N104 1.336 . S
C107 C106 1.346 . S
C107 H114 0.929 . S
C108 O98 1.282 1_556 S
C108 O109 1.216 . S
O109 C108 1.216 . S
H110 C105 0.930 . S
H111 C106 0.930 1_545 S
O112 Cu92 1.959 . S
O112 C99 1.251 1_545 S
H113 C96 0.930 . S
H114 C107 0.929 . S
Cu115 N116 1.999 . S
Cu115 O121 1.974 . S
Cu115 N126 1.985 . S
Cu115 O135 1.959 . S
N116 Cu115 1.999 . S
N116 C118 1.263 . S
N116 C120 1.389 . S
N117 C118 1.358 . S
N117 C119 1.400 . S
C118 N116 1.263 . S
C118 N117 1.358 . S
C118 H124 0.930 . S
C119 N117 1.400 . S
C119 C120 1.351 . S
C119 H136 0.930 . S
C120 N116 1.389 . S
C120 C119 1.351 . S
C120 H125 0.930 . S
O121 Cu115 1.974 . S
O121 C131 1.282 . S
C122 O123 1.261 . S
C122 O135 1.251 . S
O123 C122 1.261 . S
H124 C118 0.930 . S
H125 C120 0.930 . S
N126 Cu115 1.985 . S
N126 C128 1.335 . S
N126 C129 1.390 . S
N127 C128 1.345 . S
N127 C130 1.336 . S
C128 N126 1.335 . S
C128 N127 1.345 . S
C128 H133 0.930 . S
C129 N126 1.390 . S
C129 C130 1.346 . S
C129 H134 0.930 . S
C130 N127 1.336 . S
C130 C129 1.346 . S
C130 H137 0.929 . S
C131 O121 1.282 . S
C131 O132 1.216 . S
O132 C131 1.216 . S
H133 C128 0.930 . S
H134 C129 0.930 . S
O135 Cu115 1.959 . S
O135 C122 1.251 . S
H136 C119 0.930 . S
H137 C130 0.929 . S
C138 C139 1.560 . S
C138 H199 0.959 . S
C138 H200 0.959 . S
C138 H201 0.960 . S
C139 C138 1.560 . S
C139 O194 1.426 . S
C139 H198 0.980 . S
C140 C141 1.407 . S
C140 C145 1.418 . S
C140 O194 1.334 . S
C141 C140 1.407 . S
C141 C142 1.360 . S
C141 H202 0.929 . S
C142 C141 1.360 . S
C142 C143 1.401 . S
C142 C146 1.527 . S
C143 C142 1.401 . S
C143 C144 1.405 . S
C143 C176 1.587 . S
C144 C143 1.405 . S
C144 C145 1.332 . S
C144 C147 1.496 . S
C145 C140 1.418 . S
C145 C144 1.332 . S
C145 H203 0.929 . S
C146 C142 1.527 . S
C146 H204 0.959 . S
C146 H205 0.961 . S
C146 H206 0.961 . S
C147 C144 1.496 . S
C147 H207 0.960 . S
C147 H208 0.960 . S
C147 H209 0.961 . S
C148 C149 1.517 . S
C148 H211 0.961 . S
C148 H212 0.960 . S
C148 H213 0.959 . S
C149 C148 1.517 . S
C149 O197 1.468 . S
C149 H210 0.980 . S
C150 C151 1.349 . S
C150 C155 1.367 . S
C150 O197 1.408 . S
C151 C150 1.349 . S
C151 C152 1.407 . S
C151 H214 0.930 . S
C152 C151 1.407 . S
C152 C153 1.449 . S
C152 C156 1.535 . S
C153 C152 1.449 . S
C153 C154 1.384 . S
C153 C178 1.553 . S
C154 C153 1.384 . S
C154 C155 1.364 . S
C154 C157 1.450 . S
C155 C150 1.367 . S
C155 C154 1.364 . S
C155 H215 0.931 . S
C156 C152 1.535 . S
C156 H216 0.959 . S
C156 H217 0.961 . S
C156 H218 0.959 . S
C157 C154 1.450 . S
C157 H219 0.960 . S
C157 H220 0.960 . S
C157 H221 0.960 . S
C158 C159 1.309 . S
C158 C163 1.304 . S
C158 O196 1.435 . S
C159 C158 1.309 . S
C159 C160 1.476 . S
C159 H223 0.930 . S
C160 C159 1.476 . S
C160 C161 1.400 . S
C160 C164 1.567 . S
C161 C160 1.400 . S
C161 C162 1.373 . S
C161 C183 1.432 . S
C162 C161 1.373 . S
C162 C163 1.339 . S
C162 C165 1.530 . S
C163 C158 1.304 . S
C163 C162 1.339 . S
C163 H224 0.930 . S
C164 C160 1.567 . S
C164 H225 0.961 . S
C164 H226 0.960 . S
C164 H227 0.958 . S
C165 C162 1.530 . S
C165 H228 0.961 . S
C165 H229 0.960 . S
C165 H230 0.960 . S
C166 C167 1.530 . S
C166 H232 0.961 . S
C166 H233 0.961 . S
C166 H234 0.959 . S
C167 C166 1.530 . S
C167 O195 1.412 . S
C167 H231 0.980 . S
C168 C169 1.288 . S
C168 C173 1.377 . S
C168 O195 1.393 . S
C169 C168 1.288 . S
C169 C170 1.369 . S
C169 H235 0.932 . S
C170 C169 1.369 . S
C170 C171 1.398 . S
C170 C174 1.527 . S
C171 C170 1.398 . S
C171 C172 1.380 . S
C171 C185 1.497 . S
C172 C171 1.380 . S
C172 C173 1.383 . S
C172 C175 1.603 . S
C173 C168 1.377 . S
C173 C172 1.383 . S
C173 H236 0.929 . S
C174 C170 1.527 . S
C174 H237 0.961 . S
C174 H238 0.959 . S
C174 H239 0.959 . S
C175 C172 1.603 . S
C175 H240 0.960 . S
C175 H241 0.962 . S
C175 H242 0.961 . S
C176 C143 1.587 . S
C176 C177 1.360 . S
C176 C189 1.412 . S
C177 C176 1.360 . S
C177 C178 1.365 . S
C177 H243 0.929 . S
C178 C153 1.553 . S
C178 C177 1.365 . S
C178 C179 1.404 . S
C179 C178 1.404 . S
C179 C180 1.395 . S
C179 C190 1.451 . S
C180 C179 1.395 . S
C180 C181 1.322 . S
C180 H244 0.930 . S
C181 C180 1.322 . S
C181 C182 1.459 . S
C181 H245 0.929 . S
C182 C181 1.459 . S
C182 C183 1.445 . S
C182 C191 1.395 . S
C183 C161 1.432 . S
C183 C182 1.445 . S
C183 C184 1.370 . S
C184 C183 1.370 . S
C184 C185 1.438 . S
C184 H246 0.930 . S
C185 C171 1.497 . S
C185 C184 1.438 . S
C185 C186 1.360 . S
C186 C185 1.360 . S
C186 C187 1.401 . S
C186 C191 1.446 . S
C187 C186 1.401 . S
C187 C188 1.347 . S
C187 H247 0.929 . S
C188 C187 1.347 . S
C188 C189 1.455 . S
C188 H248 0.930 . S
C189 C176 1.412 . S
C189 C188 1.455 . S
C189 C190 1.331 . S
C190 C179 1.451 . S
C190 C189 1.331 . S
C190 C191 1.497 . S
C191 C182 1.395 . S
C191 C186 1.446 . S
C191 C190 1.497 . S
C192 C193 1.582 . S
C192 H249 0.962 . S
C192 H250 0.959 . S
C192 H251 0.958 . S
C193 C192 1.582 . S
C193 O196 1.458 . S
C193 H222 0.980 . S
O194 C139 1.426 . S
O194 C140 1.334 . S
O195 C167 1.412 . S
O195 C168 1.393 . S
O196 C158 1.435 . S
O196 C193 1.458 . S
O197 C149 1.468 . S
O197 C150 1.408 . S
H198 C139 0.980 . S
H199 C138 0.959 . S
H200 C138 0.959 . S
H201 C138 0.960 . S
H202 C141 0.929 . S
H203 C145 0.929 . S
H204 C146 0.959 . S
H205 C146 0.961 . S
H206 C146 0.961 . S
H207 C147 0.960 . S
H208 C147 0.960 . S
H209 C147 0.961 . S
H210 C149 0.980 . S
H211 C148 0.961 . S
H212 C148 0.960 . S
H213 C148 0.959 . S
H214 C151 0.930 . S
H215 C155 0.931 . S
H216 C156 0.959 . S
H217 C156 0.961 . S
H218 C156 0.959 . S
H219 C157 0.960 . S
H220 C157 0.960 . S
H221 C157 0.960 . S
H222 C193 0.980 . S
H223 C159 0.930 . S
H224 C163 0.930 . S
H225 C164 0.961 . S
H226 C164 0.960 . S
H227 C164 0.958 . S
H228 C165 0.961 . S
H229 C165 0.960 . S
H230 C165 0.960 . S
H231 C167 0.980 . S
H232 C166 0.961 . S
H233 C166 0.961 . S
H234 C166 0.959 . S
H235 C169 0.932 . S
H236 C173 0.929 . S
H237 C174 0.961 . S
H238 C174 0.959 . S
H239 C174 0.959 . S
H240 C175 0.960 . S
H241 C175 0.962 . S
H242 C175 0.961 . S
H243 C177 0.929 . S
H244 C180 0.930 . S
H245 C181 0.929 . S
H246 C184 0.930 . S
H247 C187 0.929 . S
H248 C188 0.930 . S
H249 C192 0.962 . S
H250 C192 0.959 . S
H251 C192 0.958 . S
C252 C253 1.560 . S
C252 H313 0.959 . S
C252 H314 0.959 . S
C252 H315 0.960 . S
C253 C252 1.560 . S
C253 O308 1.426 . S
C253 H312 0.980 . S
C254 C255 1.407 . S
C254 C259 1.418 . S
C254 O308 1.334 . S
C255 C254 1.407 . S
C255 C256 1.360 . S
C255 H316 0.929 . S
C256 C255 1.360 . S
C256 C257 1.401 . S
C256 C260 1.527 . S
C257 C256 1.401 . S
C257 C258 1.405 . S
C257 C290 1.587 . S
C258 C257 1.405 . S
C258 C259 1.332 . S
C258 C261 1.496 . S
C259 C254 1.418 . S
C259 C258 1.332 . S
C259 H317 0.929 . S
C260 C256 1.527 . S
C260 H318 0.959 . S
C260 H319 0.961 . S
C260 H320 0.961 . S
C261 C258 1.496 . S
C261 H321 0.960 . S
C261 H322 0.960 . S
C261 H323 0.961 . S
C262 C263 1.517 . S
C262 H325 0.961 . S
C262 H326 0.960 . S
C262 H327 0.959 . S
C263 C262 1.517 . S
C263 O311 1.468 . S
C263 H324 0.980 . S
C264 C265 1.349 . S
C264 C269 1.367 . S
C264 O311 1.408 . S
C265 C264 1.349 . S
C265 C266 1.407 . S
C265 H328 0.930 . S
C266 C265 1.407 . S
C266 C267 1.449 . S
C266 C270 1.535 . S
C267 C266 1.449 . S
C267 C268 1.384 . S
C267 C292 1.553 . S
C268 C267 1.384 . S
C268 C269 1.364 . S
C268 C271 1.450 . S
C269 C264 1.367 . S
C269 C268 1.364 . S
C269 H329 0.931 . S
C270 C266 1.535 . S
C270 H330 0.959 . S
C270 H331 0.961 . S
C270 H332 0.959 . S
C271 C268 1.450 . S
C271 H333 0.960 . S
C271 H334 0.960 . S
C271 H335 0.960 . S
C272 C273 1.309 . S
C272 C277 1.304 . S
C272 O310 1.435 . S
C273 C272 1.309 . S
C273 C274 1.476 . S
C273 H337 0.930 . S
C274 C273 1.476 . S
C274 C275 1.400 . S
C274 C278 1.567 . S
C275 C274 1.400 . S
C275 C276 1.373 . S
C275 C297 1.432 . S
C276 C275 1.373 . S
C276 C277 1.339 . S
C276 C279 1.530 . S
C277 C272 1.304 . S
C277 C276 1.339 . S
C277 H338 0.930 . S
C278 C274 1.567 . S
C278 H339 0.961 . S
C278 H340 0.960 . S
C278 H341 0.958 . S
C279 C276 1.530 . S
C279 H342 0.961 . S
C279 H343 0.960 . S
C279 H344 0.960 . S
C280 C281 1.530 . S
C280 H346 0.961 . S
C280 H347 0.961 . S
C280 H348 0.959 . S
C281 C280 1.530 . S
C281 O309 1.412 . S
C281 H345 0.980 . S
C282 C283 1.288 . S
C282 C287 1.377 . S
C282 O309 1.393 . S
C283 C282 1.288 . S
C283 C284 1.369 . S
C283 H349 0.932 . S
C284 C283 1.369 . S
C284 C285 1.398 . S
C284 C288 1.527 . S
C285 C284 1.398 . S
C285 C286 1.380 . S
C285 C299 1.497 . S
C286 C285 1.380 . S
C286 C287 1.383 . S
C286 C289 1.603 . S
C287 C282 1.377 . S
C287 C286 1.383 . S
C287 H350 0.929 . S
C288 C284 1.527 . S
C288 H351 0.961 . S
C288 H352 0.959 . S
C288 H353 0.959 . S
C289 C286 1.603 . S
C289 H354 0.960 . S
C289 H355 0.962 . S
C289 H356 0.961 . S
C290 C257 1.587 . S
C290 C291 1.360 . S
C290 C303 1.412 . S
C291 C290 1.360 . S
C291 C292 1.365 . S
C291 H357 0.929 . S
C292 C267 1.553 . S
C292 C291 1.365 . S
C292 C293 1.404 . S
C293 C292 1.404 . S
C293 C294 1.395 . S
C293 C304 1.451 . S
C294 C293 1.395 . S
C294 C295 1.322 . S
C294 H358 0.930 . S
C295 C294 1.322 . S
C295 C296 1.459 . S
C295 H359 0.929 . S
C296 C295 1.459 . S
C296 C297 1.445 . S
C296 C305 1.395 . S
C297 C275 1.432 . S
C297 C296 1.445 . S
C297 C298 1.370 . S
C298 C297 1.370 . S
C298 C299 1.438 . S
C298 H360 0.930 . S
C299 C285 1.497 . S
C299 C298 1.438 . S
C299 C300 1.360 . S
C300 C299 1.360 . S
C300 C301 1.401 . S
C300 C305 1.446 . S
C301 C300 1.401 . S
C301 C302 1.347 . S
C301 H361 0.929 . S
C302 C301 1.347 . S
C302 C303 1.455 . S
C302 H362 0.930 . S
C303 C290 1.412 . S
C303 C302 1.455 . S
C303 C304 1.331 . S
C304 C293 1.451 . S
C304 C303 1.331 . S
C304 C305 1.497 . S
C305 C296 1.395 . S
C305 C300 1.446 . S
C305 C304 1.497 . S
C306 C307 1.582 . S
C306 H363 0.962 . S
C306 H364 0.959 . S
C306 H365 0.958 . S
C307 C306 1.582 . S
C307 O310 1.458 . S
C307 H336 0.980 . S
O308 C253 1.426 . S
O308 C254 1.334 . S
O309 C281 1.412 . S
O309 C282 1.393 . S
O310 C272 1.435 . S
O310 C307 1.458 . S
O311 C263 1.468 . S
O311 C264 1.408 . S
H312 C253 0.980 . S
H313 C252 0.959 . S
H314 C252 0.959 . S
H315 C252 0.960 . S
H316 C255 0.929 . S
H317 C259 0.929 . S
H318 C260 0.959 . S
H319 C260 0.961 . S
H320 C260 0.961 . S
H321 C261 0.960 . S
H322 C261 0.960 . S
H323 C261 0.961 . S
H324 C263 0.980 . S
H325 C262 0.961 . S
H326 C262 0.960 . S
H327 C262 0.959 . S
H328 C265 0.930 . S
H329 C269 0.931 . S
H330 C270 0.959 . S
H331 C270 0.961 . S
H332 C270 0.959 . S
H333 C271 0.960 . S
H334 C271 0.960 . S
H335 C271 0.960 . S
H336 C307 0.980 . S
H337 C273 0.930 . S
H338 C277 0.930 . S
H339 C278 0.961 . S
H340 C278 0.960 . S
H341 C278 0.958 . S
H342 C279 0.961 . S
H343 C279 0.960 . S
H344 C279 0.960 . S
H345 C281 0.980 . S
H346 C280 0.961 . S
H347 C280 0.961 . S
H348 C280 0.959 . S
H349 C283 0.932 . S
H350 C287 0.929 . S
H351 C288 0.961 . S
H352 C288 0.959 . S
H353 C288 0.959 . S
H354 C289 0.960 . S
H355 C289 0.962 . S
H356 C289 0.961 . S
H357 C291 0.929 . S
H358 C294 0.930 . S
H359 C295 0.929 . S
H360 C298 0.930 . S
H361 C301 0.929 . S
H362 C302 0.930 . S
H363 C306 0.962 . S
H364 C306 0.959 . S
H365 C306 0.958 . S
C366 C367 1.560 . S
C366 H427 0.959 . S
C366 H428 0.959 . S
C366 H429 0.960 . S
C367 C366 1.560 . S
C367 O422 1.426 . S
C367 H426 0.980 . S
C368 C369 1.407 . S
C368 C373 1.418 . S
C368 O422 1.334 . S
C369 C368 1.407 . S
C369 C370 1.360 . S
C369 H430 0.929 . S
C370 C369 1.360 . S
C370 C371 1.401 . S
C370 C374 1.527 . S
C371 C370 1.401 . S
C371 C372 1.405 . S
C371 C404 1.587 . S
C372 C371 1.405 . S
C372 C373 1.332 . S
C372 C375 1.496 . S
C373 C368 1.418 . S
C373 C372 1.332 . S
C373 H431 0.929 . S
C374 C370 1.527 . S
C374 H432 0.959 . S
C374 H433 0.961 . S
C374 H434 0.961 . S
C375 C372 1.496 . S
C375 H435 0.960 . S
C375 H436 0.960 . S
C375 H437 0.961 . S
C376 C377 1.517 . S
C376 H439 0.961 . S
C376 H440 0.960 . S
C376 H441 0.959 . S
C377 C376 1.517 . S
C377 O425 1.468 . S
C377 H438 0.980 . S
C378 C379 1.349 . S
C378 C383 1.367 . S
C378 O425 1.408 . S
C379 C378 1.349 . S
C379 C380 1.407 . S
C379 H442 0.930 . S
C380 C379 1.407 . S
C380 C381 1.449 . S
C380 C384 1.535 . S
C381 C380 1.449 . S
C381 C382 1.384 . S
C381 C406 1.553 . S
C382 C381 1.384 . S
C382 C383 1.364 . S
C382 C385 1.450 . S
C383 C378 1.367 . S
C383 C382 1.364 . S
C383 H443 0.931 . S
C384 C380 1.535 . S
C384 H444 0.959 . S
C384 H445 0.961 . S
C384 H446 0.959 . S
C385 C382 1.450 . S
C385 H447 0.960 . S
C385 H448 0.960 . S
C385 H449 0.960 . S
C386 C387 1.309 . S
C386 C391 1.304 . S
C386 O424 1.435 . S
C387 C386 1.309 . S
C387 C388 1.476 . S
C387 H451 0.930 . S
C388 C387 1.476 . S
C388 C389 1.400 . S
C388 C392 1.567 . S
C389 C388 1.400 . S
C389 C390 1.373 . S
C389 C411 1.432 . S
C390 C389 1.373 . S
C390 C391 1.339 . S
C390 C393 1.530 . S
C391 C386 1.304 . S
C391 C390 1.339 . S
C391 H452 0.930 . S
C392 C388 1.567 . S
C392 H453 0.961 . S
C392 H454 0.960 . S
C392 H455 0.958 . S
C393 C390 1.530 . S
C393 H456 0.961 . S
C393 H457 0.960 . S
C393 H458 0.960 . S
C394 C395 1.530 . S
C394 H460 0.961 . S
C394 H461 0.961 . S
C394 H462 0.959 . S
C395 C394 1.530 . S
C395 O423 1.412 . S
C395 H459 0.980 . S
C396 C397 1.288 . S
C396 C401 1.377 . S
C396 O423 1.393 . S
C397 C396 1.288 . S
C397 C398 1.369 . S
C397 H463 0.932 . S
C398 C397 1.369 . S
C398 C399 1.398 . S
C398 C402 1.527 . S
C399 C398 1.398 . S
C399 C400 1.380 . S
C399 C413 1.497 . S
C400 C399 1.380 . S
C400 C401 1.383 . S
C400 C403 1.603 . S
C401 C396 1.377 . S
C401 C400 1.383 . S
C401 H464 0.929 . S
C402 C398 1.527 . S
C402 H465 0.961 . S
C402 H466 0.959 . S
C402 H467 0.959 . S
C403 C400 1.603 . S
C403 H468 0.960 . S
C403 H469 0.962 . S
C403 H470 0.961 . S
C404 C371 1.587 . S
C404 C405 1.360 . S
C404 C417 1.412 . S
C405 C404 1.360 . S
C405 C406 1.365 . S
C405 H471 0.929 . S
C406 C381 1.553 . S
C406 C405 1.365 . S
C406 C407 1.404 . S
C407 C406 1.404 . S
C407 C408 1.395 . S
C407 C418 1.451 . S
C408 C407 1.395 . S
C408 C409 1.322 . S
C408 H472 0.930 . S
C409 C408 1.322 . S
C409 C410 1.459 . S
C409 H473 0.929 . S
C410 C409 1.459 . S
C410 C411 1.445 . S
C410 C419 1.395 . S
C411 C389 1.432 . S
C411 C410 1.445 . S
C411 C412 1.370 . S
C412 C411 1.370 . S
C412 C413 1.438 . S
C412 H474 0.930 . S
C413 C399 1.497 . S
C413 C412 1.438 . S
C413 C414 1.360 . S
C414 C413 1.360 . S
C414 C415 1.401 . S
C414 C419 1.446 . S
C415 C414 1.401 . S
C415 C416 1.347 . S
C415 H475 0.929 . S
C416 C415 1.347 . S
C416 C417 1.455 . S
C416 H476 0.930 . S
C417 C404 1.412 . S
C417 C416 1.455 . S
C417 C418 1.331 . S
C418 C407 1.451 . S
C418 C417 1.331 . S
C418 C419 1.497 . S
C419 C410 1.395 . S
C419 C414 1.446 . S
C419 C418 1.497 . S
C420 C421 1.582 . S
C420 H477 0.962 . S
C420 H478 0.959 . S
C420 H479 0.958 . S
C421 C420 1.582 . S
C421 O424 1.458 . S
C421 H450 0.980 . S
O422 C367 1.426 . S
O422 C368 1.334 . S
O423 C395 1.412 . S
O423 C396 1.393 . S
O424 C386 1.435 . S
O424 C421 1.458 . S
O425 C377 1.468 . S
O425 C378 1.408 . S
H426 C367 0.980 . S
H427 C366 0.959 . S
H428 C366 0.959 . S
H429 C366 0.960 . S
H430 C369 0.929 . S
H431 C373 0.929 . S
H432 C374 0.959 . S
H433 C374 0.961 . S
H434 C374 0.961 . S
H435 C375 0.960 . S
H436 C375 0.960 . S
H437 C375 0.961 . S
H438 C377 0.980 . S
H439 C376 0.961 . S
H440 C376 0.960 . S
H441 C376 0.959 . S
H442 C379 0.930 . S
H443 C383 0.931 . S
H444 C384 0.959 . S
H445 C384 0.961 . S
H446 C384 0.959 . S
H447 C385 0.960 . S
H448 C385 0.960 . S
H449 C385 0.960 . S
H450 C421 0.980 . S
H451 C387 0.930 . S
H452 C391 0.930 . S
H453 C392 0.961 . S
H454 C392 0.960 . S
H455 C392 0.958 . S
H456 C393 0.961 . S
H457 C393 0.960 . S
H458 C393 0.960 . S
H459 C395 0.980 . S
H460 C394 0.961 . S
H461 C394 0.961 . S
H462 C394 0.959 . S
H463 C397 0.932 . S
H464 C401 0.929 . S
H465 C402 0.961 . S
H466 C402 0.959 . S
H467 C402 0.959 . S
H468 C403 0.960 . S
H469 C403 0.962 . S
H470 C403 0.961 . S
H471 C405 0.929 . S
H472 C408 0.930 . S
H473 C409 0.929 . S
H474 C412 0.930 . S
H475 C415 0.929 . S
H476 C416 0.930 . S
H477 C420 0.962 . S
H478 C420 0.959 . S
H479 C420 0.958 . S
C480 C481 1.560 . S
C480 H541 0.959 . S
C480 H542 0.959 . S
C480 H543 0.960 . S
C481 C480 1.560 . S
C481 O536 1.426 . S
C481 H540 0.980 . S
C482 C483 1.407 . S
C482 C487 1.418 . S
C482 O536 1.334 . S
C483 C482 1.407 . S
C483 C484 1.360 . S
C483 H544 0.929 . S
C484 C483 1.360 . S
C484 C485 1.401 . S
C484 C488 1.527 . S
C485 C484 1.401 . S
C485 C486 1.405 . S
C485 C518 1.587 . S
C486 C485 1.405 . S
C486 C487 1.332 . S
C486 C489 1.496 . S
C487 C482 1.418 . S
C487 C486 1.332 . S
C487 H545 0.929 . S
C488 C484 1.527 . S
C488 H546 0.959 . S
C488 H547 0.961 . S
C488 H548 0.961 . S
C489 C486 1.496 . S
C489 H549 0.960 . S
C489 H550 0.960 . S
C489 H551 0.961 . S
C490 C491 1.517 . S
C490 H553 0.961 . S
C490 H554 0.960 . S
C490 H555 0.959 . S
C491 C490 1.517 . S
C491 O539 1.468 . S
C491 H552 0.980 . S
C492 C493 1.349 . S
C492 C497 1.367 . S
C492 O539 1.408 . S
C493 C492 1.349 . S
C493 C494 1.407 . S
C493 H556 0.930 . S
C494 C493 1.407 . S
C494 C495 1.449 . S
C494 C498 1.535 . S
C495 C494 1.449 . S
C495 C496 1.384 . S
C495 C520 1.553 . S
C496 C495 1.384 . S
C496 C497 1.364 . S
C496 C499 1.450 . S
C497 C492 1.367 . S
C497 C496 1.364 . S
C497 H557 0.931 . S
C498 C494 1.535 . S
C498 H558 0.959 . S
C498 H559 0.961 . S
C498 H560 0.959 . S
C499 C496 1.450 . S
C499 H561 0.960 . S
C499 H562 0.960 . S
C499 H563 0.960 . S
C500 C501 1.309 . S
C500 C505 1.304 . S
C500 O538 1.435 . S
C501 C500 1.309 . S
C501 C502 1.476 . S
C501 H565 0.930 . S
C502 C501 1.476 . S
C502 C503 1.400 . S
C502 C506 1.567 . S
C503 C502 1.400 . S
C503 C504 1.373 . S
C503 C525 1.432 . S
C504 C503 1.373 . S
C504 C505 1.339 . S
C504 C507 1.530 . S
C505 C500 1.304 . S
C505 C504 1.339 . S
C505 H566 0.930 . S
C506 C502 1.567 . S
C506 H567 0.961 . S
C506 H568 0.960 . S
C506 H569 0.958 . S
C507 C504 1.530 . S
C507 H570 0.961 . S
C507 H571 0.960 . S
C507 H572 0.960 . S
C508 C509 1.530 . S
C508 H574 0.961 . S
C508 H575 0.961 . S
C508 H576 0.959 . S
C509 C508 1.530 . S
C509 O537 1.412 . S
C509 H573 0.980 . S
C510 C511 1.288 . S
C510 C515 1.377 . S
C510 O537 1.393 . S
C511 C510 1.288 . S
C511 C512 1.369 . S
C511 H577 0.932 . S
C512 C511 1.369 . S
C512 C513 1.398 . S
C512 C516 1.527 . S
C513 C512 1.398 . S
C513 C514 1.380 . S
C513 C527 1.497 . S
C514 C513 1.380 . S
C514 C515 1.383 . S
C514 C517 1.603 . S
C515 C510 1.377 . S
C515 C514 1.383 . S
C515 H578 0.929 . S
C516 C512 1.527 . S
C516 H579 0.961 . S
C516 H580 0.959 . S
C516 H581 0.959 . S
C517 C514 1.603 . S
C517 H582 0.960 . S
C517 H583 0.962 . S
C517 H584 0.961 . S
C518 C485 1.587 . S
C518 C519 1.360 . S
C518 C531 1.412 . S
C519 C518 1.360 . S
C519 C520 1.365 . S
C519 H585 0.929 . S
C520 C495 1.553 . S
C520 C519 1.365 . S
C520 C521 1.404 . S
C521 C520 1.404 . S
C521 C522 1.395 . S
C521 C532 1.451 . S
C522 C521 1.395 . S
C522 C523 1.322 . S
C522 H586 0.930 . S
C523 C522 1.322 . S
C523 C524 1.459 . S
C523 H587 0.929 . S
C524 C523 1.459 . S
C524 C525 1.445 . S
C524 C533 1.395 . S
C525 C503 1.432 . S
C525 C524 1.445 . S
C525 C526 1.370 . S
C526 C525 1.370 . S
C526 C527 1.438 . S
C526 H588 0.930 . S
C527 C513 1.497 . S
C527 C526 1.438 . S
C527 C528 1.360 . S
C528 C527 1.360 . S
C528 C529 1.401 . S
C528 C533 1.446 . S
C529 C528 1.401 . S
C529 C530 1.347 . S
C529 H589 0.929 . S
C530 C529 1.347 . S
C530 C531 1.455 . S
C530 H590 0.930 . S
C531 C518 1.412 . S
C531 C530 1.455 . S
C531 C532 1.331 . S
C532 C521 1.451 . S
C532 C531 1.331 . S
C532 C533 1.497 . S
C533 C524 1.395 . S
C533 C528 1.446 . S
C533 C532 1.497 . S
C534 C535 1.582 . S
C534 H591 0.962 . S
C534 H592 0.959 . S
C534 H593 0.958 . S
C535 C534 1.582 . S
C535 O538 1.458 . S
C535 H564 0.980 . S
O536 C481 1.426 . S
O536 C482 1.334 . S
O537 C509 1.412 . S
O537 C510 1.393 . S
O538 C500 1.435 . S
O538 C535 1.458 . S
O539 C491 1.468 . S
O539 C492 1.408 . S
H540 C481 0.980 . S
H541 C480 0.959 . S
H542 C480 0.959 . S
H543 C480 0.960 . S
H544 C483 0.929 . S
H545 C487 0.929 . S
H546 C488 0.959 . S
H547 C488 0.961 . S
H548 C488 0.961 . S
H549 C489 0.960 . S
H550 C489 0.960 . S
H551 C489 0.961 . S
H552 C491 0.980 . S
H553 C490 0.961 . S
H554 C490 0.960 . S
H555 C490 0.959 . S
H556 C493 0.930 . S
H557 C497 0.931 . S
H558 C498 0.959 . S
H559 C498 0.961 . S
H560 C498 0.959 . S
H561 C499 0.960 . S
H562 C499 0.960 . S
H563 C499 0.960 . S
H564 C535 0.980 . S
H565 C501 0.930 . S
H566 C505 0.930 . S
H567 C506 0.961 . S
H568 C506 0.960 . S
H569 C506 0.958 . S
H570 C507 0.961 . S
H571 C507 0.960 . S
H572 C507 0.960 . S
H573 C509 0.980 . S
H574 C508 0.961 . S
H575 C508 0.961 . S
H576 C508 0.959 . S
H577 C511 0.932 . S
H578 C515 0.929 . S
H579 C516 0.961 . S
H580 C516 0.959 . S
H581 C516 0.959 . S
H582 C517 0.960 . S
H583 C517 0.962 . S
H584 C517 0.961 . S
H585 C519 0.929 . S
H586 C522 0.930 . S
H587 C523 0.929 . S
H588 C526 0.930 . S
H589 C529 0.929 . S
H590 C530 0.930 . S
H591 C534 0.962 . S
H592 C534 0.959 . S
H593 C534 0.958 . S
C594 C595 1.560 . S
C594 H655 0.959 . S
C594 H656 0.959 . S
C594 H657 0.960 . S
C595 C594 1.560 . S
C595 O650 1.426 . S
C595 H654 0.980 . S
C596 C597 1.407 . S
C596 C601 1.418 . S
C596 O650 1.334 . S
C597 C596 1.407 . S
C597 C598 1.360 . S
C597 H658 0.929 . S
C598 C597 1.360 . S
C598 C599 1.401 . S
C598 C602 1.527 . S
C599 C598 1.401 . S
C599 C600 1.405 . S
C599 C632 1.587 . S
C600 C599 1.405 . S
C600 C601 1.332 . S
C600 C603 1.496 . S
C601 C596 1.418 . S
C601 C600 1.332 . S
C601 H659 0.929 . S
C602 C598 1.527 . S
C602 H660 0.959 . S
C602 H661 0.961 . S
C602 H662 0.961 . S
C603 C600 1.496 . S
C603 H663 0.960 . S
C603 H664 0.960 . S
C603 H665 0.961 . S
C604 C605 1.517 . S
C604 H667 0.961 . S
C604 H668 0.960 . S
C604 H669 0.959 . S
C605 C604 1.517 . S
C605 O653 1.468 . S
C605 H666 0.980 . S
C606 C607 1.349 . S
C606 C611 1.367 . S
C606 O653 1.408 . S
C607 C606 1.349 . S
C607 C608 1.407 . S
C607 H670 0.930 . S
C608 C607 1.407 . S
C608 C609 1.449 . S
C608 C612 1.535 . S
C609 C608 1.449 . S
C609 C610 1.384 . S
C609 C634 1.553 . S
C610 C609 1.384 . S
C610 C611 1.364 . S
C610 C613 1.450 . S
C611 C606 1.367 . S
C611 C610 1.364 . S
C611 H671 0.931 . S
C612 C608 1.535 . S
C612 H672 0.959 . S
C612 H673 0.961 . S
C612 H674 0.959 . S
C613 C610 1.450 . S
C613 H675 0.960 . S
C613 H676 0.960 . S
C613 H677 0.960 . S
C614 C615 1.309 . S
C614 C619 1.304 . S
C614 O652 1.435 . S
C615 C614 1.309 . S
C615 C616 1.476 . S
C615 H679 0.930 . S
C616 C615 1.476 . S
C616 C617 1.400 . S
C616 C620 1.567 . S
C617 C616 1.400 . S
C617 C618 1.373 . S
C617 C639 1.432 . S
C618 C617 1.373 . S
C618 C619 1.339 . S
C618 C621 1.530 . S
C619 C614 1.304 . S
C619 C618 1.339 . S
C619 H680 0.930 . S
C620 C616 1.567 . S
C620 H681 0.961 . S
C620 H682 0.960 . S
C620 H683 0.958 . S
C621 C618 1.530 . S
C621 H684 0.961 . S
C621 H685 0.960 . S
C621 H686 0.960 . S
C622 C623 1.530 . S
C622 H688 0.961 . S
C622 H689 0.961 . S
C622 H690 0.959 . S
C623 C622 1.530 . S
C623 O651 1.412 . S
C623 H687 0.980 . S
C624 C625 1.288 . S
C624 C629 1.377 . S
C624 O651 1.393 . S
C625 C624 1.288 . S
C625 C626 1.369 . S
C625 H691 0.932 . S
C626 C625 1.369 . S
C626 C627 1.398 . S
C626 C630 1.527 . S
C627 C626 1.398 . S
C627 C628 1.380 . S
C627 C641 1.497 . S
C628 C627 1.380 . S
C628 C629 1.383 . S
C628 C631 1.603 . S
C629 C624 1.377 . S
C629 C628 1.383 . S
C629 H692 0.929 . S
C630 C626 1.527 . S
C630 H693 0.961 . S
C630 H694 0.959 . S
C630 H695 0.959 . S
C631 C628 1.603 . S
C631 H696 0.960 . S
C631 H697 0.962 . S
C631 H698 0.961 . S
C632 C599 1.587 . S
C632 C633 1.360 . S
C632 C645 1.412 . S
C633 C632 1.360 . S
C633 C634 1.365 . S
C633 H699 0.929 . S
C634 C609 1.553 . S
C634 C633 1.365 . S
C634 C635 1.404 . S
C635 C634 1.404 . S
C635 C636 1.395 . S
C635 C646 1.451 . S
C636 C635 1.395 . S
C636 C637 1.322 . S
C636 H700 0.930 . S
C637 C636 1.322 . S
C637 C638 1.459 . S
C637 H701 0.929 . S
C638 C637 1.459 . S
C638 C639 1.445 . S
C638 C647 1.395 . S
C639 C617 1.432 . S
C639 C638 1.445 . S
C639 C640 1.370 . S
C640 C639 1.370 . S
C640 C641 1.438 . S
C640 H702 0.930 . S
C641 C627 1.497 . S
C641 C640 1.438 . S
C641 C642 1.360 . S
C642 C641 1.360 . S
C642 C643 1.401 . S
C642 C647 1.446 . S
C643 C642 1.401 . S
C643 C644 1.347 . S
C643 H703 0.929 . S
C644 C643 1.347 . S
C644 C645 1.455 . S
C644 H704 0.930 . S
C645 C632 1.412 . S
C645 C644 1.455 . S
C645 C646 1.331 . S
C646 C635 1.451 . S
C646 C645 1.331 . S
C646 C647 1.497 . S
C647 C638 1.395 . S
C647 C642 1.446 . S
C647 C646 1.497 . S
C648 C649 1.582 . S
C648 H705 0.962 . S
C648 H706 0.959 . S
C648 H707 0.958 . S
C649 C648 1.582 . S
C649 O652 1.458 . S
C649 H678 0.980 . S
O650 C595 1.426 . S
O650 C596 1.334 . S
O651 C623 1.412 . S
O651 C624 1.393 . S
O652 C614 1.435 . S
O652 C649 1.458 . S
O653 C605 1.468 . S
O653 C606 1.408 . S
H654 C595 0.980 . S
H655 C594 0.959 . S
H656 C594 0.959 . S
H657 C594 0.960 . S
H658 C597 0.929 . S
H659 C601 0.929 . S
H660 C602 0.959 . S
H661 C602 0.961 . S
H662 C602 0.961 . S
H663 C603 0.960 . S
H664 C603 0.960 . S
H665 C603 0.961 . S
H666 C605 0.980 . S
H667 C604 0.961 . S
H668 C604 0.960 . S
H669 C604 0.959 . S
H670 C607 0.930 . S
H671 C611 0.931 . S
H672 C612 0.959 . S
H673 C612 0.961 . S
H674 C612 0.959 . S
H675 C613 0.960 . S
H676 C613 0.960 . S
H677 C613 0.960 . S
H678 C649 0.980 . S
H679 C615 0.930 . S
H680 C619 0.930 . S
H681 C620 0.961 . S
H682 C620 0.960 . S
H683 C620 0.958 . S
H684 C621 0.961 . S
H685 C621 0.960 . S
H686 C621 0.960 . S
H687 C623 0.980 . S
H688 C622 0.961 . S
H689 C622 0.961 . S
H690 C622 0.959 . S
H691 C625 0.932 . S
H692 C629 0.929 . S
H693 C630 0.961 . S
H694 C630 0.959 . S
H695 C630 0.959 . S
H696 C631 0.960 . S
H697 C631 0.962 . S
H698 C631 0.961 . S
H699 C633 0.929 . S
H700 C636 0.930 . S
H701 C637 0.929 . S
H702 C640 0.930 . S
H703 C643 0.929 . S
H704 C644 0.930 . S
H705 C648 0.962 . S
H706 C648 0.959 . S
H707 C648 0.958 . S
C708 C709 1.560 . S
C708 H769 0.959 . S
C708 H770 0.959 . S
C708 H771 0.960 . S
C709 C708 1.560 . S
C709 O764 1.426 . S
C709 H768 0.980 . S
C710 C711 1.407 . S
C710 C715 1.418 . S
C710 O764 1.334 . S
C711 C710 1.407 . S
C711 C712 1.360 . S
C711 H772 0.929 . S
C712 C711 1.360 . S
C712 C713 1.401 . S
C712 C716 1.527 . S
C713 C712 1.401 . S
C713 C714 1.405 . S
C713 C746 1.587 . S
C714 C713 1.405 . S
C714 C715 1.332 . S
C714 C717 1.496 . S
C715 C710 1.418 . S
C715 C714 1.332 . S
C715 H773 0.929 . S
C716 C712 1.527 . S
C716 H774 0.959 . S
C716 H775 0.961 . S
C716 H776 0.961 . S
C717 C714 1.496 . S
C717 H777 0.960 . S
C717 H778 0.960 . S
C717 H779 0.961 . S
C718 C719 1.517 . S
C718 H781 0.961 . S
C718 H782 0.960 . S
C718 H783 0.959 . S
C719 C718 1.517 . S
C719 O767 1.468 . S
C719 H780 0.980 . S
C720 C721 1.349 . S
C720 C725 1.367 . S
C720 O767 1.408 . S
C721 C720 1.349 . S
C721 C722 1.407 . S
C721 H784 0.930 . S
C722 C721 1.407 . S
C722 C723 1.449 . S
C722 C726 1.535 . S
C723 C722 1.449 . S
C723 C724 1.384 . S
C723 C748 1.553 . S
C724 C723 1.384 . S
C724 C725 1.364 . S
C724 C727 1.450 . S
C725 C720 1.367 . S
C725 C724 1.364 . S
C725 H785 0.931 . S
C726 C722 1.535 . S
C726 H786 0.959 . S
C726 H787 0.961 . S
C726 H788 0.959 . S
C727 C724 1.450 . S
C727 H789 0.960 . S
C727 H790 0.960 . S
C727 H791 0.960 . S
C728 C729 1.309 . S
C728 C733 1.304 . S
C728 O766 1.435 . S
C729 C728 1.309 . S
C729 C730 1.476 . S
C729 H793 0.930 . S
C730 C729 1.476 . S
C730 C731 1.400 . S
C730 C734 1.567 . S
C731 C730 1.400 . S
C731 C732 1.373 . S
C731 C753 1.432 . S
C732 C731 1.373 . S
C732 C733 1.339 . S
C732 C735 1.530 . S
C733 C728 1.304 . S
C733 C732 1.339 . S
C733 H794 0.930 . S
C734 C730 1.567 . S
C734 H795 0.961 . S
C734 H796 0.960 . S
C734 H797 0.958 . S
C735 C732 1.530 . S
C735 H798 0.961 . S
C735 H799 0.960 . S
C735 H800 0.960 . S
C736 C737 1.530 . S
C736 H802 0.961 . S
C736 H803 0.961 . S
C736 H804 0.959 . S
C737 C736 1.530 . S
C737 O765 1.412 . S
C737 H801 0.980 . S
C738 C739 1.288 . S
C738 C743 1.377 . S
C738 O765 1.393 . S
C739 C738 1.288 . S
C739 C740 1.369 . S
C739 H805 0.932 . S
C740 C739 1.369 . S
C740 C741 1.398 . S
C740 C744 1.527 . S
C741 C740 1.398 . S
C741 C742 1.380 . S
C741 C755 1.497 . S
C742 C741 1.380 . S
C742 C743 1.383 . S
C742 C745 1.603 . S
C743 C738 1.377 . S
C743 C742 1.383 . S
C743 H806 0.929 . S
C744 C740 1.527 . S
C744 H807 0.961 . S
C744 H808 0.959 . S
C744 H809 0.959 . S
C745 C742 1.603 . S
C745 H810 0.960 . S
C745 H811 0.962 . S
C745 H812 0.961 . S
C746 C713 1.587 . S
C746 C747 1.360 . S
C746 C759 1.412 . S
C747 C746 1.360 . S
C747 C748 1.365 . S
C747 H813 0.929 . S
C748 C723 1.553 . S
C748 C747 1.365 . S
C748 C749 1.404 . S
C749 C748 1.404 . S
C749 C750 1.395 . S
C749 C760 1.451 . S
C750 C749 1.395 . S
C750 C751 1.322 . S
C750 H814 0.930 . S
C751 C750 1.322 . S
C751 C752 1.459 . S
C751 H815 0.929 . S
C752 C751 1.459 . S
C752 C753 1.445 . S
C752 C761 1.395 . S
C753 C731 1.432 . S
C753 C752 1.445 . S
C753 C754 1.370 . S
C754 C753 1.370 . S
C754 C755 1.438 . S
C754 H816 0.930 . S
C755 C741 1.497 . S
C755 C754 1.438 . S
C755 C756 1.360 . S
C756 C755 1.360 . S
C756 C757 1.401 . S
C756 C761 1.446 . S
C757 C756 1.401 . S
C757 C758 1.347 . S
C757 H817 0.929 . S
C758 C757 1.347 . S
C758 C759 1.455 . S
C758 H818 0.930 . S
C759 C746 1.412 . S
C759 C758 1.455 . S
C759 C760 1.331 . S
C760 C749 1.451 . S
C760 C759 1.331 . S
C760 C761 1.497 . S
C761 C752 1.395 . S
C761 C756 1.446 . S
C761 C760 1.497 . S
C762 C763 1.582 . S
C762 H819 0.962 . S
C762 H820 0.959 . S
C762 H821 0.958 . S
C763 C762 1.582 . S
C763 O766 1.458 . S
C763 H792 0.980 . S
O764 C709 1.426 . S
O764 C710 1.334 . S
O765 C737 1.412 . S
O765 C738 1.393 . S
O766 C728 1.435 . S
O766 C763 1.458 . S
O767 C719 1.468 . S
O767 C720 1.408 . S
H768 C709 0.980 . S
H769 C708 0.959 . S
H770 C708 0.959 . S
H771 C708 0.960 . S
H772 C711 0.929 . S
H773 C715 0.929 . S
H774 C716 0.959 . S
H775 C716 0.961 . S
H776 C716 0.961 . S
H777 C717 0.960 . S
H778 C717 0.960 . S
H779 C717 0.961 . S
H780 C719 0.980 . S
H781 C718 0.961 . S
H782 C718 0.960 . S
H783 C718 0.959 . S
H784 C721 0.930 . S
H785 C725 0.931 . S
H786 C726 0.959 . S
H787 C726 0.961 . S
H788 C726 0.959 . S
H789 C727 0.960 . S
H790 C727 0.960 . S
H791 C727 0.960 . S
H792 C763 0.980 . S
H793 C729 0.930 . S
H794 C733 0.930 . S
H795 C734 0.961 . S
H796 C734 0.960 . S
H797 C734 0.958 . S
H798 C735 0.961 . S
H799 C735 0.960 . S
H800 C735 0.960 . S
H801 C737 0.980 . S
H802 C736 0.961 . S
H803 C736 0.961 . S
H804 C736 0.959 . S
H805 C739 0.932 . S
H806 C743 0.929 . S
H807 C744 0.961 . S
H808 C744 0.959 . S
H809 C744 0.959 . S
H810 C745 0.960 . S
H811 C745 0.962 . S
H812 C745 0.961 . S
H813 C747 0.929 . S
H814 C750 0.930 . S
H815 C751 0.929 . S
H816 C754 0.930 . S
H817 C757 0.929 . S
H818 C758 0.930 . S
H819 C762 0.962 . S
H820 C762 0.959 . S
H821 C762 0.958 . S
H822 C830 0.929 . S
H823 C832 0.930 . S
H824 C834 0.930 . S
H825 C837 0.929 . S
H826 C840 0.930 . S
H827 C842 0.960 . S
H828 C842 0.960 . S
H829 C842 0.960 . S
C830 H822 0.929 . S
C830 C831 1.377 . S
C830 C832 1.384 . S
C831 C830 1.377 . S
C831 C837 1.390 . S
C832 H823 0.930 . S
C832 C830 1.384 . S
C832 C833 1.372 . S
C833 C832 1.372 . S
C833 C834 1.400 . S
C833 C838 1.490 . S
C834 H824 0.930 . S
C834 C833 1.400 . S
C834 C837 1.386 . S
H835 C851 0.930 . S
H836 C852 0.931 . S
C837 H825 0.929 . S
C837 C831 1.390 . S
C837 C834 1.386 . S
C838 C833 1.490 . S
C838 C840 1.395 . S
C838 C841 1.403 . S
H839 C845 0.930 . S
C840 H826 0.930 . S
C840 C838 1.395 . S
C840 C843 1.403 . S
C841 C838 1.403 . S
C841 C842 1.524 . S
C841 C845 1.400 . S
C842 H827 0.960 . S
C842 H828 0.960 . S
C842 H829 0.960 . S
C842 C841 1.524 . S
C843 C840 1.403 . S
C843 C844 1.392 . S
C843 C847 1.495 . S
C844 C843 1.392 . S
C844 C845 1.385 . S
C844 C846 1.478 . S
C845 H839 0.930 . S
C845 C841 1.400 . S
C845 C844 1.385 . S
C846 C844 1.478 . S
C846 C848 1.381 . S
C846 C852 1.383 . S
C847 C843 1.495 . S
C847 H853 0.959 . S
C847 H854 0.961 . S
C847 H855 0.960 . S
C848 C846 1.381 . S
C848 C849 1.394 . S
C848 H856 0.930 . S
C849 C848 1.394 . S
C849 C850 1.383 . S
C849 H857 0.929 . S
C850 C849 1.383 . S
C850 C851 1.377 . S
C851 H835 0.930 . S
C851 C850 1.377 . S
C851 C852 1.379 . S
C852 H836 0.931 . S
C852 C846 1.383 . S
C852 C851 1.379 . S
H853 C847 0.959 . S
H854 C847 0.961 . S
H855 C847 0.960 . S
H856 C848 0.930 . S
H857 C849 0.929 . S
H858 C866 0.929 . S
H859 C868 0.930 . S
H860 C870 0.930 . S
H861 C873 0.929 . S
H862 C876 0.930 . S
H863 C878 0.960 . S
H864 C878 0.960 . S
H865 C878 0.960 . S
C866 H858 0.929 . S
C866 C867 1.377 . S
C866 C868 1.384 . S
C867 C866 1.377 . S
C867 C873 1.390 . S
C868 H859 0.930 . S
C868 C866 1.384 . S
C868 C869 1.372 . S
C869 C868 1.372 . S
C869 C870 1.400 . S
C869 C874 1.490 . S
C870 H860 0.930 . S
C870 C869 1.400 . S
C870 C873 1.386 . S
H871 C887 0.930 . S
H872 C888 0.931 . S
C873 H861 0.929 . S
C873 C867 1.390 . S
C873 C870 1.386 . S
C874 C869 1.490 . S
C874 C876 1.395 . S
C874 C877 1.403 . S
H875 C881 0.930 . S
C876 H862 0.930 . S
C876 C874 1.395 . S
C876 C879 1.403 . S
C877 C874 1.403 . S
C877 C878 1.524 . S
C877 C881 1.400 . S
C878 H863 0.960 . S
C878 H864 0.960 . S
C878 H865 0.960 . S
C878 C877 1.524 . S
C879 C876 1.403 . S
C879 C880 1.392 . S
C879 C883 1.495 . S
C880 C879 1.392 . S
C880 C881 1.385 . S
C880 C882 1.478 . S
C881 H875 0.930 . S
C881 C877 1.400 . S
C881 C880 1.385 . S
C882 C880 1.478 . S
C882 C884 1.381 . S
C882 C888 1.383 . S
C883 C879 1.495 . S
C883 H889 0.959 . S
C883 H890 0.961 . S
C883 H891 0.960 . S
C884 C882 1.381 . S
C884 C885 1.394 . S
C884 H892 0.930 . S
C885 C884 1.394 . S
C885 C886 1.383 . S
C885 H893 0.929 . S
C886 C885 1.383 . S
C886 C887 1.377 . S
C887 H871 0.930 . S
C887 C886 1.377 . S
C887 C888 1.379 . S
C888 H872 0.931 . S
C888 C882 1.383 . S
C888 C887 1.379 . S
H889 C883 0.959 . S
H890 C883 0.961 . S
H891 C883 0.960 . S
H892 C884 0.930 . S
H893 C885 0.929 . S
H894 C902 0.929 . S
H895 C904 0.930 . S
H896 C906 0.930 . S
H897 C909 0.929 . S
H898 C912 0.930 . S
H899 C914 0.960 . S
H900 C914 0.960 . S
H901 C914 0.960 . S
C902 H894 0.929 . S
C902 C903 1.377 . S
C902 C904 1.384 . S
C903 C902 1.377 . S
C903 C909 1.390 . S
C904 H895 0.930 . S
C904 C902 1.384 . S
C904 C905 1.372 . S
C905 C904 1.372 . S
C905 C906 1.400 . S
C905 C910 1.490 . S
C906 H896 0.930 . S
C906 C905 1.400 . S
C906 C909 1.386 . S
H907 C923 0.930 . S
H908 C924 0.931 . S
C909 H897 0.929 . S
C909 C903 1.390 . S
C909 C906 1.386 . S
C910 C905 1.490 . S
C910 C912 1.395 . S
C910 C913 1.403 . S
H911 C917 0.930 . S
C912 H898 0.930 . S
C912 C910 1.395 . S
C912 C915 1.403 . S
C913 C910 1.403 . S
C913 C914 1.524 . S
C913 C917 1.400 . S
C914 H899 0.960 . S
C914 H900 0.960 . S
C914 H901 0.960 . S
C914 C913 1.524 . S
C915 C912 1.403 . S
C915 C916 1.392 . S
C915 C919 1.495 . S
C916 C915 1.392 . S
C916 C917 1.385 . S
C916 C918 1.478 . S
C917 H911 0.930 . S
C917 C913 1.400 . S
C917 C916 1.385 . S
C918 C916 1.478 . S
C918 C920 1.381 . S
C918 C924 1.383 . S
C919 C915 1.495 . S
C919 H925 0.959 . S
C919 H926 0.961 . S
C919 H927 0.960 . S
C920 C918 1.381 . S
C920 C921 1.394 . S
C920 H928 0.930 . S
C921 C920 1.394 . S
C921 C922 1.383 . S
C921 H929 0.929 . S
C922 C921 1.383 . S
C922 C923 1.377 . S
C923 H907 0.930 . S
C923 C922 1.377 . S
C923 C924 1.379 . S
C924 H908 0.931 . S
C924 C918 1.383 . S
C924 C923 1.379 . S
H925 C919 0.959 . S
H926 C919 0.961 . S
H927 C919 0.960 . S
H928 C920 0.930 . S
H929 C921 0.929 . S
H930 C938 0.929 . S
H931 C940 0.930 . S
H932 C942 0.930 . S
H933 C945 0.929 . S
H934 C948 0.930 . S
H935 C950 0.960 . S
H936 C950 0.960 . S
H937 C950 0.960 . S
C938 H930 0.929 . S
C938 C939 1.377 . S
C938 C940 1.384 . S
C939 C938 1.377 . S
C939 C945 1.390 . S
C940 H931 0.930 . S
C940 C938 1.384 . S
C940 C941 1.372 . S
C941 C940 1.372 . S
C941 C942 1.400 . S
C941 C946 1.490 . S
C942 H932 0.930 . S
C942 C941 1.400 . S
C942 C945 1.386 . S
H943 C959 0.930 . S
H944 C960 0.931 . S
C945 H933 0.929 . S
C945 C939 1.390 . S
C945 C942 1.386 . S
C946 C941 1.490 . S
C946 C948 1.395 . S
C946 C949 1.403 . S
H947 C953 0.930 . S
C948 H934 0.930 . S
C948 C946 1.395 . S
C948 C951 1.403 . S
C949 C946 1.403 . S
C949 C950 1.524 . S
C949 C953 1.400 . S
C950 H935 0.960 . S
C950 H936 0.960 . S
C950 H937 0.960 . S
C950 C949 1.524 . S
C951 C948 1.403 . S
C951 C952 1.392 . S
C951 C955 1.495 . S
C952 C951 1.392 . S
C952 C953 1.385 . S
C952 C954 1.478 . S
C953 H947 0.930 . S
C953 C949 1.400 . S
C953 C952 1.385 . S
C954 C952 1.478 . S
C954 C956 1.381 . S
C954 C960 1.383 . S
C955 C951 1.495 . S
C955 H961 0.959 . S
C955 H962 0.961 . S
C955 H963 0.960 . S
C956 C954 1.381 . S
C956 C957 1.394 . S
C956 H964 0.930 . S
C957 C956 1.394 . S
C957 C958 1.383 . S
C957 H965 0.929 . S
C958 C957 1.383 . S
C958 C959 1.377 . S
C959 H943 0.930 . S
C959 C958 1.377 . S
C959 C960 1.379 . S
C960 H944 0.931 . S
C960 C954 1.383 . S
C960 C959 1.379 . S
H961 C955 0.959 . S
H962 C955 0.961 . S
H963 C955 0.960 . S
H964 C956 0.930 . S
H965 C957 0.929 . S
H966 C974 0.929 . S
H967 C976 0.930 . S
H968 C978 0.930 . S
H969 C981 0.929 . S
H970 C984 0.930 . S
H971 C986 0.960 . S
H972 C986 0.960 . S
H973 C986 0.960 . S
C974 H966 0.929 . S
C974 C975 1.377 . S
C974 C976 1.384 . S
C975 C974 1.377 . S
C975 C981 1.390 . S
C976 H967 0.930 . S
C976 C974 1.384 . S
C976 C977 1.372 . S
C977 C976 1.372 . S
C977 C978 1.400 . S
C977 C982 1.490 . S
C978 H968 0.930 . S
C978 C977 1.400 . S
C978 C981 1.386 . S
H979 C995 0.930 . S
H980 C996 0.931 . S
C981 H969 0.929 . S
C981 C975 1.390 . S
C981 C978 1.386 . S
C982 C977 1.490 . S
C982 C984 1.395 . S
C982 C985 1.403 . S
H983 C989 0.930 . S
C984 H970 0.930 . S
C984 C982 1.395 . S
C984 C987 1.403 . S
C985 C982 1.403 . S
C985 C986 1.524 . S
C985 C989 1.400 . S
C986 H971 0.960 . S
C986 H972 0.960 . S
C986 H973 0.960 . S
C986 C985 1.524 . S
C987 C984 1.403 . S
C987 C988 1.392 . S
C987 C991 1.495 . S
C988 C987 1.392 . S
C988 C989 1.385 . S
C988 C990 1.478 . S
C989 H983 0.930 . S
C989 C985 1.400 . S
C989 C988 1.385 . S
C990 C988 1.478 . S
C990 C992 1.381 . S
C990 C996 1.383 . S
C991 C987 1.495 . S
C991 H997 0.959 . S
C991 H998 0.961 . S
C991 H999 0.960 . S
C992 C990 1.381 . S
C992 C993 1.394 . S
C992 H1000 0.930 . S
C993 C992 1.394 . S
C993 C994 1.383 . S
C993 H1001 0.929 . S
C994 C993 1.383 . S
C994 C995 1.377 . S
C995 H979 0.930 . S
C995 C994 1.377 . S
C995 C996 1.379 . S
C996 H980 0.931 . S
C996 C990 1.383 . S
C996 C995 1.379 . S
H997 C991 0.959 . S
H998 C991 0.961 . S
H999 C991 0.960 . S
H1000 C992 0.930 . S
H1001 C993 0.929 . S
H1002 C1010 0.929 . S
H1003 C1012 0.930 . S
H1004 C1014 0.930 . S
H1005 C1017 0.929 . S
H1006 C1020 0.930 . S
H1007 C1022 0.960 . S
H1008 C1022 0.960 . S
H1009 C1022 0.960 . S
C1010 H1002 0.929 . S
C1010 C1011 1.377 . S
C1010 C1012 1.384 . S
C1011 C1010 1.377 . S
C1011 C1017 1.390 . S
C1012 H1003 0.930 . S
C1012 C1010 1.384 . S
C1012 C1013 1.372 . S
C1013 C1012 1.372 . S
C1013 C1014 1.400 . S
C1013 C1018 1.490 . S
C1014 H1004 0.930 . S
C1014 C1013 1.400 . S
C1014 C1017 1.386 . S
H1015 C1031 0.930 . S
H1016 C1032 0.931 . S
C1017 H1005 0.929 . S
C1017 C1011 1.390 . S
C1017 C1014 1.386 . S
C1018 C1013 1.490 . S
C1018 C1020 1.395 . S
C1018 C1021 1.403 . S
H1019 C1025 0.930 . S
C1020 H1006 0.930 . S
C1020 C1018 1.395 . S
C1020 C1023 1.403 . S
C1021 C1018 1.403 . S
C1021 C1022 1.524 . S
C1021 C1025 1.400 . S
C1022 H1007 0.960 . S
C1022 H1008 0.960 . S
C1022 H1009 0.960 . S
C1022 C1021 1.524 . S
C1023 C1020 1.403 . S
C1023 C1024 1.392 . S
C1023 C1027 1.495 . S
C1024 C1023 1.392 . S
C1024 C1025 1.385 . S
C1024 C1026 1.478 . S
C1025 H1019 0.930 . S
C1025 C1021 1.400 . S
C1025 C1024 1.385 . S
C1026 C1024 1.478 . S
C1026 C1028 1.381 . S
C1026 C1032 1.383 . S
C1027 C1023 1.495 . S
C1027 H1033 0.959 . S
C1027 H1034 0.961 . S
C1027 H1035 0.960 . S
C1028 C1026 1.381 . S
C1028 C1029 1.394 . S
C1028 H1036 0.930 . S
C1029 C1028 1.394 . S
C1029 C1030 1.383 . S
C1029 H1037 0.929 . S
C1030 C1029 1.383 . S
C1030 C1031 1.377 . S
C1031 H1015 0.930 . S
C1031 C1030 1.377 . S
C1031 C1032 1.379 . S
C1032 H1016 0.931 . S
C1032 C1026 1.383 . S
C1032 C1031 1.379 . S
H1033 C1027 0.959 . S
H1034 C1027 0.961 . S
H1035 C1027 0.960 . S
H1036 C1028 0.930 . S
H1037 C1029 0.929 . S
H1038 C1046 0.929 . S
H1039 C1048 0.930 . S
H1040 C1050 0.930 . S
H1041 C1053 0.929 . S
H1042 C1056 0.930 . S
H1043 C1058 0.960 . S
H1044 C1058 0.960 . S
H1045 C1058 0.960 . S
C1046 H1038 0.929 . S
C1046 C1047 1.377 . S
C1046 C1048 1.384 . S
C1047 C1046 1.377 . S
C1047 C1053 1.390 . S
C1048 H1039 0.930 . S
C1048 C1046 1.384 . S
C1048 C1049 1.372 . S
C1049 C1048 1.372 . S
C1049 C1050 1.400 . S
C1049 C1054 1.490 . S
C1050 H1040 0.930 . S
C1050 C1049 1.400 . S
C1050 C1053 1.386 . S
H1051 C1067 0.930 . S
H1052 C1068 0.931 . S
C1053 H1041 0.929 . S
C1053 C1047 1.390 . S
C1053 C1050 1.386 . S
C1054 C1049 1.490 . S
C1054 C1056 1.395 . S
C1054 C1057 1.403 . S
H1055 C1061 0.930 . S
C1056 H1042 0.930 . S
C1056 C1054 1.395 . S
C1056 C1059 1.403 . S
C1057 C1054 1.403 . S
C1057 C1058 1.524 . S
C1057 C1061 1.400 . S
C1058 H1043 0.960 . S
C1058 H1044 0.960 . S
C1058 H1045 0.960 . S
C1058 C1057 1.524 . S
C1059 C1056 1.403 . S
C1059 C1060 1.392 . S
C1059 C1063 1.495 . S
C1060 C1059 1.392 . S
C1060 C1061 1.385 . S
C1060 C1062 1.478 . S
C1061 H1055 0.930 . S
C1061 C1057 1.400 . S
C1061 C1060 1.385 . S
C1062 C1060 1.478 . S
C1062 C1064 1.381 . S
C1062 C1068 1.383 . S
C1063 C1059 1.495 . S
C1063 H1069 0.959 . S
C1063 H1070 0.961 . S
C1063 H1071 0.960 . S
C1064 C1062 1.381 . S
C1064 C1065 1.394 . S
C1064 H1072 0.930 . S
C1065 C1064 1.394 . S
C1065 C1066 1.383 . S
C1065 H1073 0.929 . S
C1066 C1065 1.383 . S
C1066 C1067 1.377 . S
C1067 H1051 0.930 . S
C1067 C1066 1.377 . S
C1067 C1068 1.379 . S
C1068 H1052 0.931 . S
C1068 C1062 1.383 . S
C1068 C1067 1.379 . S
H1069 C1063 0.959 . S
H1070 C1063 0.961 . S
H1071 C1063 0.960 . S
H1072 C1064 0.930 . S
H1073 C1065 0.929 . S
H1074 C1082 0.929 . S
H1075 C1084 0.930 . S
H1076 C1086 0.930 . S
H1077 C1089 0.929 1_554 S
H1078 C1092 0.930 . S
H1079 C1094 0.960 . S
H1080 C1094 0.960 . S
H1081 C1094 0.960 . S
C1082 H1074 0.929 . S
C1082 C1083 1.377 . S
C1082 C1084 1.384 . S
C1083 C1082 1.377 . S
C1083 C1089 1.390 . S
C1084 H1075 0.930 . S
C1084 C1082 1.384 . S
C1084 C1085 1.372 . S
C1085 C1084 1.372 . S
C1085 C1086 1.400 . S
C1085 C1090 1.490 . S
C1086 H1076 0.930 . S
C1086 C1085 1.400 . S
C1086 C1089 1.386 . S
H1087 C1103 0.930 . S
H1088 C1104 0.931 . S
C1089 H1077 0.929 1_556 S
C1089 C1083 1.390 . S
C1089 C1086 1.386 . S
C1090 C1085 1.490 . S
C1090 C1092 1.395 . S
C1090 C1093 1.403 . S
H1091 C1097 0.930 . S
C1092 H1078 0.930 . S
C1092 C1090 1.395 . S
C1092 C1095 1.403 . S
C1093 C1090 1.403 . S
C1093 C1094 1.524 . S
C1093 C1097 1.400 . S
C1094 H1079 0.960 . S
C1094 H1080 0.960 . S
C1094 H1081 0.960 . S
C1094 C1093 1.524 . S
C1095 C1092 1.403 . S
C1095 C1096 1.392 . S
C1095 C1099 1.495 . S
C1096 C1095 1.392 . S
C1096 C1097 1.385 . S
C1096 C1098 1.478 . S
C1097 H1091 0.930 . S
C1097 C1093 1.400 . S
C1097 C1096 1.385 . S
C1098 C1096 1.478 . S
C1098 C1100 1.381 . S
C1098 C1104 1.383 . S
C1099 C1095 1.495 . S
C1099 H1105 0.959 . S
C1099 H1106 0.961 . S
C1099 H1107 0.960 . S
C1100 C1098 1.381 . S
C1100 C1101 1.394 . S
C1100 H1108 0.930 . S
C1101 C1100 1.394 . S
C1101 C1102 1.383 . S
C1101 H1109 0.929 . S
C1102 C1101 1.383 . S
C1102 C1103 1.377 . S
C1103 H1087 0.930 . S
C1103 C1102 1.377 . S
C1103 C1104 1.379 . S
C1104 H1088 0.931 . S
C1104 C1098 1.383 . S
C1104 C1103 1.379 . S
H1105 C1099 0.959 . S
H1106 C1099 0.961 . S
H1107 C1099 0.960 . S
H1108 C1100 0.930 . S
H1109 C1101 0.929 . S
H1110 C1118 0.929 . S
H1111 C1120 0.930 . S
H1112 C1122 0.930 . S
H1113 C1125 0.929 . S
H1114 C1128 0.930 . S
H1115 C1130 0.960 . S
H1116 C1130 0.960 . S
H1117 C1130 0.960 . S
C1118 H1110 0.929 . S
C1118 C1119 1.377 . S
C1118 C1120 1.384 . S
C1119 C1118 1.377 . S
C1119 C1125 1.390 . S
C1120 H1111 0.930 . S
C1120 C1118 1.384 . S
C1120 C1121 1.372 . S
C1121 C1120 1.372 . S
C1121 C1122 1.400 . S
C1121 C1126 1.490 . S
C1122 H1112 0.930 . S
C1122 C1121 1.400 . S
C1122 C1125 1.386 . S
H1123 C1139 0.930 . S
H1124 C1140 0.931 . S
C1125 H1113 0.929 . S
C1125 C1119 1.390 . S
C1125 C1122 1.386 . S
C1126 C1121 1.490 . S
C1126 C1128 1.395 . S
C1126 C1129 1.403 . S
H1127 C1133 0.930 . S
C1128 H1114 0.930 . S
C1128 C1126 1.395 . S
C1128 C1131 1.403 . S
C1129 C1126 1.403 . S
C1129 C1130 1.524 . S
C1129 C1133 1.400 . S
C1130 H1115 0.960 . S
C1130 H1116 0.960 . S
C1130 H1117 0.960 . S
C1130 C1129 1.524 . S
C1131 C1128 1.403 . S
C1131 C1132 1.392 . S
C1131 C1135 1.495 . S
C1132 C1131 1.392 . S
C1132 C1133 1.385 . S
C1132 C1134 1.478 . S
C1133 H1127 0.930 . S
C1133 C1129 1.400 . S
C1133 C1132 1.385 . S
C1134 C1132 1.478 . S
C1134 C1136 1.381 . S
C1134 C1140 1.383 . S
C1135 C1131 1.495 . S
C1135 H1141 0.959 . S
C1135 H1142 0.961 . S
C1135 H1143 0.960 . S
C1136 C1134 1.381 . S
C1136 C1137 1.394 . S
C1136 H1144 0.930 . S
C1137 C1136 1.394 . S
C1137 C1138 1.383 . S
C1137 H1145 0.929 . S
C1138 C1137 1.383 . S
C1138 C1139 1.377 . S
C1139 H1123 0.930 . S
C1139 C1138 1.377 . S
C1139 C1140 1.379 . S
C1140 H1124 0.931 . S
C1140 C1134 1.383 . S
C1140 C1139 1.379 . S
H1141 C1135 0.959 . S
H1142 C1135 0.961 . S
H1143 C1135 0.960 . S
H1144 C1136 0.930 . S
H1145 C1137 0.929 . S
H1146 C1154 0.929 . S
H1147 C1156 0.930 . S
H1148 C1158 0.930 . S
H1149 C1161 0.929 . S
H1150 C1164 0.930 . S
H1151 C1166 0.960 . S
H1152 C1166 0.960 . S
H1153 C1166 0.960 . S
C1154 H1146 0.929 . S
C1154 C1155 1.377 . S
C1154 C1156 1.384 . S
C1155 C1154 1.377 . S
C1155 C1161 1.390 . S
C1156 H1147 0.930 . S
C1156 C1154 1.384 . S
C1156 C1157 1.372 . S
C1157 C1156 1.372 . S
C1157 C1158 1.400 . S
C1157 C1162 1.490 . S
C1158 H1148 0.930 . S
C1158 C1157 1.400 . S
C1158 C1161 1.386 . S
H1159 C1175 0.930 . S
H1160 C1176 0.931 . S
C1161 H1149 0.929 . S
C1161 C1155 1.390 . S
C1161 C1158 1.386 . S
C1162 C1157 1.490 . S
C1162 C1164 1.395 . S
C1162 C1165 1.403 . S
H1163 C1169 0.930 . S
C1164 H1150 0.930 . S
C1164 C1162 1.395 . S
C1164 C1167 1.403 . S
C1165 C1162 1.403 . S
C1165 C1166 1.524 . S
C1165 C1169 1.400 . S
C1166 H1151 0.960 . S
C1166 H1152 0.960 . S
C1166 H1153 0.960 . S
C1166 C1165 1.524 . S
C1167 C1164 1.403 . S
C1167 C1168 1.392 . S
C1167 C1171 1.495 . S
C1168 C1167 1.392 . S
C1168 C1169 1.385 . S
C1168 C1170 1.478 . S
C1169 H1163 0.930 . S
C1169 C1165 1.400 . S
C1169 C1168 1.385 . S
C1170 C1168 1.478 . S
C1170 C1172 1.381 . S
C1170 C1176 1.383 . S
C1171 C1167 1.495 . S
C1171 H1177 0.959 . S
C1171 H1178 0.961 . S
C1171 H1179 0.960 . S
C1172 C1170 1.381 . S
C1172 C1173 1.394 . S
C1172 H1180 0.930 . S
C1173 C1172 1.394 . S
C1173 C1174 1.383 . S
C1173 H1181 0.929 . S
C1174 C1173 1.383 . S
C1174 C1175 1.377 . S
C1175 H1159 0.930 . S
C1175 C1174 1.377 . S
C1175 C1176 1.379 . S
C1176 H1160 0.931 . S
C1176 C1170 1.383 . S
C1176 C1175 1.379 . S
H1177 C1171 0.959 . S
H1178 C1171 0.961 . S
H1179 C1171 0.960 . S
H1180 C1172 0.930 . S
H1181 C1173 0.929 . S
H1182 C1190 0.929 . S
H1183 C1192 0.930 . S
H1184 C1194 0.930 . S
H1185 C1197 0.929 . S
H1186 C1200 0.930 . S
H1187 C1202 0.960 . S
H1188 C1202 0.960 . S
H1189 C1202 0.960 . S
C1190 H1182 0.929 . S
C1190 C1191 1.377 . S
C1190 C1192 1.384 . S
C1191 C1190 1.377 . S
C1191 C1197 1.390 . S
C1192 H1183 0.930 . S
C1192 C1190 1.384 . S
C1192 C1193 1.372 . S
C1193 C1192 1.372 . S
C1193 C1194 1.400 . S
C1193 C1198 1.490 . S
C1194 H1184 0.930 . S
C1194 C1193 1.400 . S
C1194 C1197 1.386 . S
H1195 C1211 0.930 . S
H1196 C1212 0.931 . S
C1197 H1185 0.929 . S
C1197 C1191 1.390 . S
C1197 C1194 1.386 . S
C1198 C1193 1.490 . S
C1198 C1200 1.395 . S
C1198 C1201 1.403 . S
H1199 C1205 0.930 . S
C1200 H1186 0.930 . S
C1200 C1198 1.395 . S
C1200 C1203 1.403 . S
C1201 C1198 1.403 . S
C1201 C1202 1.524 . S
C1201 C1205 1.400 . S
C1202 H1187 0.960 . S
C1202 H1188 0.960 . S
C1202 H1189 0.960 . S
C1202 C1201 1.524 . S
C1203 C1200 1.403 . S
C1203 C1204 1.392 . S
C1203 C1207 1.495 . S
C1204 C1203 1.392 . S
C1204 C1205 1.385 . S
C1204 C1206 1.478 . S
C1205 H1199 0.930 . S
C1205 C1201 1.400 . S
C1205 C1204 1.385 . S
C1206 C1204 1.478 . S
C1206 C1208 1.381 . S
C1206 C1212 1.383 . S
C1207 C1203 1.495 . S
C1207 H1213 0.959 . S
C1207 H1214 0.961 . S
C1207 H1215 0.960 . S
C1208 C1206 1.381 . S
C1208 C1209 1.394 . S
C1208 H1216 0.930 . S
C1209 C1208 1.394 . S
C1209 C1210 1.383 . S
C1209 H1217 0.929 . S
C1210 C1209 1.383 . S
C1210 C1211 1.377 . S
C1211 H1195 0.930 . S
C1211 C1210 1.377 . S
C1211 C1212 1.379 . S
C1212 H1196 0.931 . S
C1212 C1206 1.383 . S
C1212 C1211 1.379 . S
H1213 C1207 0.959 . S
H1214 C1207 0.961 . S
H1215 C1207 0.960 . S
H1216 C1208 0.930 . S
H1217 C1209 0.929 . S
H1218 C1226 0.929 . S
H1219 C1228 0.930 . S
H1220 C1230 0.930 . S
H1221 C1233 0.929 1_455 S
H1222 C1236 0.930 . S
H1223 C1238 0.960 . S
H1224 C1238 0.960 . S
H1225 C1238 0.960 . S
C1226 H1218 0.929 . S
C1226 C1227 1.377 . S
C1226 C1228 1.384 . S
C1227 C1226 1.377 . S
C1227 C1233 1.390 . S
C1228 H1219 0.930 . S
C1228 C1226 1.384 . S
C1228 C1229 1.372 . S
C1229 C1228 1.372 . S
C1229 C1230 1.400 . S
C1229 C1234 1.490 . S
C1230 H1220 0.930 . S
C1230 C1229 1.400 . S
C1230 C1233 1.386 . S
H1231 C1247 0.930 . S
H1232 C1248 0.931 . S
C1233 H1221 0.929 1_655 S
C1233 C1227 1.390 . S
C1233 C1230 1.386 . S
C1234 C1229 1.490 . S
C1234 C1236 1.395 . S
C1234 C1237 1.403 . S
H1235 C1241 0.930 . S
C1236 H1222 0.930 . S
C1236 C1234 1.395 . S
C1236 C1239 1.403 . S
C1237 C1234 1.403 . S
C1237 C1238 1.524 . S
C1237 C1241 1.400 . S
C1238 H1223 0.960 . S
C1238 H1224 0.960 . S
C1238 H1225 0.960 . S
C1238 C1237 1.524 . S
C1239 C1236 1.403 . S
C1239 C1240 1.392 . S
C1239 C1243 1.495 . S
C1240 C1239 1.392 . S
C1240 C1241 1.385 . S
C1240 C1242 1.478 . S
C1241 H1235 0.930 . S
C1241 C1237 1.400 . S
C1241 C1240 1.385 . S
C1242 C1240 1.478 . S
C1242 C1244 1.381 . S
C1242 C1248 1.383 . S
C1243 C1239 1.495 . S
C1243 H1249 0.959 . S
C1243 H1250 0.961 . S
C1243 H1251 0.960 . S
C1244 C1242 1.381 . S
C1244 C1245 1.394 . S
C1244 H1252 0.930 . S
C1245 C1244 1.394 . S
C1245 C1246 1.383 . S
C1245 H1253 0.929 . S
C1246 C1245 1.383 . S
C1246 C1247 1.377 . S
C1247 H1231 0.930 . S
C1247 C1246 1.377 . S
C1247 C1248 1.379 . S
C1248 H1232 0.931 . S
C1248 C1242 1.383 . S
C1248 C1247 1.379 . S
H1249 C1243 0.959 . S
H1250 C1243 0.961 . S
H1251 C1243 0.960 . S
H1252 C1244 0.930 . S
H1253 C1245 0.929 . S
H1254 C1262 0.929 . S
H1255 C1264 0.930 . S
H1256 C1266 0.930 1_455 S
H1257 C1269 0.929 . S
H1258 C1272 0.930 . S
H1259 C1274 0.961 1_455 S
H1260 C1274 0.936 1_455 S
H1261 C1274 0.956 1_455 S
C1262 H1254 0.929 . S
C1262 C1263 1.344 1_655 S
C1262 C1264 1.384 . S
C1263 C1262 1.344 1_455 S
C1263 C1269 1.379 . S
C1264 H1255 0.930 . S
C1264 C1262 1.384 . S
C1264 C1265 1.372 . S
C1265 C1264 1.372 . S
C1265 C1266 1.400 . S
C1265 C1270 1.490 . S
C1266 H1256 0.930 1_655 S
C1266 C1265 1.400 . S
C1266 C1269 1.386 1_655 S
H1267 C1283 0.930 . S
H1268 C1284 0.931 . S
C1269 H1257 0.929 . S
C1269 C1263 1.379 . S
C1269 C1266 1.386 1_455 S
C1270 C1265 1.490 . S
C1270 C1272 1.395 . S
C1270 C1273 1.403 . S
H1271 C1277 0.930 . S
C1272 H1258 0.930 . S
C1272 C1270 1.395 . S
C1272 C1275 1.403 . S
C1273 C1270 1.403 . S
C1273 C1274 1.532 . S
C1273 C1277 1.400 . S
C1274 H1259 0.961 1_655 S
C1274 H1260 0.936 1_655 S
C1274 H1261 0.956 1_655 S
C1274 C1273 1.532 . S
C1275 C1272 1.403 . S
C1275 C1276 1.392 . S
C1275 C1279 1.495 . S
C1276 C1275 1.392 . S
C1276 C1277 1.385 . S
C1276 C1278 1.478 . S
C1277 H1271 0.930 . S
C1277 C1273 1.400 . S
C1277 C1276 1.385 . S
C1278 C1276 1.478 . S
C1278 C1280 1.381 . S
C1278 C1284 1.383 . S
C1279 C1275 1.495 . S
C1279 H1285 0.959 . S
C1279 H1286 0.961 . S
C1279 H1287 0.960 . S
C1280 C1278 1.381 . S
C1280 C1281 1.394 . S
C1280 H1288 0.930 . S
C1281 C1280 1.394 . S
C1281 C1282 1.383 . S
C1281 H1289 0.929 . S
C1282 C1281 1.383 . S
C1282 C1283 1.377 . S
C1283 H1267 0.930 . S
C1283 C1282 1.377 . S
C1283 C1284 1.379 . S
C1284 H1268 0.931 . S
C1284 C1278 1.383 . S
C1284 C1283 1.379 . S
H1285 C1279 0.959 . S
H1286 C1279 0.961 . S
H1287 C1279 0.960 . S
H1288 C1280 0.930 . S
H1289 C1281 0.929 . S
H1290 C1298 0.929 . S
H1291 C1300 0.930 . S
H1292 C1302 0.930 . S
H1293 C1305 0.929 . S
H1294 C1308 0.930 . S
H1295 C1310 0.960 . S
H1296 C1310 0.960 . S
H1297 C1310 0.960 . S
C1298 H1290 0.929 . S
C1298 C1299 1.377 . S
C1298 C1300 1.384 . S
C1299 C1298 1.377 . S
C1299 C1305 1.390 . S
C1300 H1291 0.930 . S
C1300 C1298 1.384 . S
C1300 C1301 1.372 . S
C1301 C1300 1.372 . S
C1301 C1302 1.400 . S
C1301 C1306 1.490 . S
C1302 H1292 0.930 . S
C1302 C1301 1.400 . S
C1302 C1305 1.386 . S
H1303 C1319 0.930 . S
H1304 C1320 0.931 . S
C1305 H1293 0.929 . S
C1305 C1299 1.390 . S
C1305 C1302 1.386 . S
C1306 C1301 1.490 . S
C1306 C1308 1.395 . S
C1306 C1309 1.403 . S
H1307 C1313 0.930 . S
C1308 H1294 0.930 . S
C1308 C1306 1.395 . S
C1308 C1311 1.403 . S
C1309 C1306 1.403 . S
C1309 C1310 1.524 . S
C1309 C1313 1.400 . S
C1310 H1295 0.960 . S
C1310 H1296 0.960 . S
C1310 H1297 0.960 . S
C1310 C1309 1.524 . S
C1311 C1308 1.403 . S
C1311 C1312 1.392 . S
C1311 C1315 1.495 . S
C1312 C1311 1.392 . S
C1312 C1313 1.385 . S
C1312 C1314 1.478 . S
C1313 H1307 0.930 . S
C1313 C1309 1.400 . S
C1313 C1312 1.385 . S
C1314 C1312 1.478 . S
C1314 C1316 1.381 . S
C1314 C1320 1.383 . S
C1315 C1311 1.495 . S
C1315 H1321 0.959 . S
C1315 H1322 0.961 . S
C1315 H1323 0.960 . S
C1316 C1314 1.381 . S
C1316 C1317 1.394 . S
C1316 H1324 0.930 . S
C1317 C1316 1.394 . S
C1317 C1318 1.383 . S
C1317 H1325 0.929 . S
C1318 C1317 1.383 . S
C1318 C1319 1.377 . S
C1319 H1303 0.930 . S
C1319 C1318 1.377 . S
C1319 C1320 1.379 . S
C1320 H1304 0.931 . S
C1320 C1314 1.383 . S
C1320 C1319 1.379 . S
H1321 C1315 0.959 . S
H1322 C1315 0.961 . S
H1323 C1315 0.960 . S
H1324 C1316 0.930 . S
H1325 C1317 0.929 . S
H1326 C1334 0.929 . S
H1327 C1336 0.930 . S
H1328 C1338 0.930 . S
H1329 C1341 0.929 . S
H1330 C1344 0.930 . S
H1331 C1346 0.960 . S
H1332 C1346 0.960 . S
H1333 C1346 0.960 . S
C1334 H1326 0.929 . S
C1334 C1335 1.377 . S
C1334 C1336 1.384 . S
C1335 C1334 1.377 . S
C1335 C1341 1.390 . S
C1336 H1327 0.930 . S
C1336 C1334 1.384 . S
C1336 C1337 1.372 . S
C1337 C1336 1.372 . S
C1337 C1338 1.400 . S
C1337 C1342 1.490 . S
C1338 H1328 0.930 . S
C1338 C1337 1.400 . S
C1338 C1341 1.386 . S
H1339 C1355 0.930 . S
H1340 C1356 0.931 . S
C1341 H1329 0.929 . S
C1341 C1335 1.390 . S
C1341 C1338 1.386 . S
C1342 C1337 1.490 . S
C1342 C1344 1.395 . S
C1342 C1345 1.403 . S
H1343 C1349 0.930 . S
C1344 H1330 0.930 . S
C1344 C1342 1.395 . S
C1344 C1347 1.403 . S
C1345 C1342 1.403 . S
C1345 C1346 1.524 . S
C1345 C1349 1.400 . S
C1346 H1331 0.960 . S
C1346 H1332 0.960 . S
C1346 H1333 0.960 . S
C1346 C1345 1.524 . S
C1347 C1344 1.403 . S
C1347 C1348 1.392 . S
C1347 C1351 1.495 . S
C1348 C1347 1.392 . S
C1348 C1349 1.385 . S
C1348 C1350 1.478 . S
C1349 H1343 0.930 . S
C1349 C1345 1.400 . S
C1349 C1348 1.385 . S
C1350 C1348 1.478 . S
C1350 C1352 1.381 . S
C1350 C1356 1.383 . S
C1351 C1347 1.495 . S
C1351 H1357 0.959 . S
C1351 H1358 0.961 . S
C1351 H1359 0.960 . S
C1352 C1350 1.381 . S
C1352 C1353 1.394 . S
C1352 H1360 0.930 . S
C1353 C1352 1.394 . S
C1353 C1354 1.383 . S
C1353 H1361 0.929 . S
C1354 C1353 1.383 . S
C1354 C1355 1.377 . S
C1355 H1339 0.930 . S
C1355 C1354 1.377 . S
C1355 C1356 1.379 . S
C1356 H1340 0.931 . S
C1356 C1350 1.383 . S
C1356 C1355 1.379 . S
H1357 C1351 0.959 . S
H1358 C1351 0.961 . S
H1359 C1351 0.960 . S
H1360 C1352 0.930 . S
H1361 C1353 0.929 . S
H1362 C1370 0.929 . S
H1363 C1372 0.930 . S
H1364 C1374 0.930 . S
H1365 C1377 0.929 . S
H1366 C1380 0.930 . S
H1367 C1382 0.960 . S
H1368 C1382 0.960 . S
H1369 C1382 0.960 . S
C1370 H1362 0.929 . S
C1370 C1371 1.377 . S
C1370 C1372 1.384 . S
C1371 C1370 1.377 . S
C1371 C1377 1.390 . S
C1372 H1363 0.930 . S
C1372 C1370 1.384 . S
C1372 C1373 1.372 . S
C1373 C1372 1.372 . S
C1373 C1374 1.400 . S
C1373 C1378 1.490 . S
C1374 H1364 0.930 . S
C1374 C1373 1.400 . S
C1374 C1377 1.386 . S
H1375 C1391 0.930 . S
H1376 C1392 0.931 . S
C1377 H1365 0.929 . S
C1377 C1371 1.390 . S
C1377 C1374 1.386 . S
C1378 C1373 1.490 . S
C1378 C1380 1.395 . S
C1378 C1381 1.403 . S
H1379 C1385 0.930 . S
C1380 H1366 0.930 . S
C1380 C1378 1.395 . S
C1380 C1383 1.403 . S
C1381 C1378 1.403 . S
C1381 C1382 1.524 . S
C1381 C1385 1.400 . S
C1382 H1367 0.960 . S
C1382 H1368 0.960 . S
C1382 H1369 0.960 . S
C1382 C1381 1.524 . S
C1383 C1380 1.403 . S
C1383 C1384 1.392 . S
C1383 C1387 1.495 . S
C1384 C1383 1.392 . S
C1384 C1385 1.385 . S
C1384 C1386 1.478 . S
C1385 H1379 0.930 . S
C1385 C1381 1.400 . S
C1385 C1384 1.385 . S
C1386 C1384 1.478 . S
C1386 C1388 1.381 . S
C1386 C1392 1.383 . S
C1387 C1383 1.495 . S
C1387 H1393 0.959 . S
C1387 H1394 0.961 . S
C1387 H1395 0.960 . S
C1388 C1386 1.381 . S
C1388 C1389 1.394 . S
C1388 H1396 0.930 . S
C1389 C1388 1.394 . S
C1389 C1390 1.383 . S
C1389 H1397 0.929 . S
C1390 C1389 1.383 . S
C1390 C1391 1.377 . S
C1391 H1375 0.930 . S
C1391 C1390 1.377 . S
C1391 C1392 1.379 . S
C1392 H1376 0.931 . S
C1392 C1386 1.383 . S
C1392 C1391 1.379 . S
H1393 C1387 0.959 . S
H1394 C1387 0.961 . S
H1395 C1387 0.960 . S
H1396 C1388 0.930 . S
H1397 C1389 0.929 . S
H1398 C1406 0.929 . S
H1399 C1408 0.930 . S
H1400 C1410 0.930 . S
H1401 C1413 0.929 . S
H1402 C1416 0.930 . S
H1403 C1418 0.960 . S
H1404 C1418 0.960 . S
H1405 C1418 0.960 . S
C1406 H1398 0.929 . S
C1406 C1407 1.377 . S
C1406 C1408 1.384 . S
C1407 C1406 1.377 . S
C1407 C1413 1.390 . S
C1408 H1399 0.930 . S
C1408 C1406 1.384 . S
C1408 C1409 1.372 . S
C1409 C1408 1.372 . S
C1409 C1410 1.400 . S
C1409 C1414 1.490 . S
C1410 H1400 0.930 . S
C1410 C1409 1.400 . S
C1410 C1413 1.386 . S
H1411 C1427 0.930 . S
H1412 C1428 0.931 . S
C1413 H1401 0.929 . S
C1413 C1407 1.390 . S
C1413 C1410 1.386 . S
C1414 C1409 1.490 . S
C1414 C1416 1.395 . S
C1414 C1417 1.403 . S
H1415 C1421 0.930 . S
C1416 H1402 0.930 . S
C1416 C1414 1.395 . S
C1416 C1419 1.403 . S
C1417 C1414 1.403 . S
C1417 C1418 1.524 . S
C1417 C1421 1.400 . S
C1418 H1403 0.960 . S
C1418 H1404 0.960 . S
C1418 H1405 0.960 . S
C1418 C1417 1.524 . S
C1419 C1416 1.403 . S
C1419 C1420 1.392 . S
C1419 C1423 1.495 . S
C1420 C1419 1.392 . S
C1420 C1421 1.385 . S
C1420 C1422 1.478 . S
C1421 H1415 0.930 . S
C1421 C1417 1.400 . S
C1421 C1420 1.385 . S
C1422 C1420 1.478 . S
C1422 C1424 1.381 . S
C1422 C1428 1.383 . S
C1423 C1419 1.495 . S
C1423 H1429 0.959 . S
C1423 H1430 0.961 . S
C1423 H1431 0.960 . S
C1424 C1422 1.381 . S
C1424 C1425 1.394 . S
C1424 H1432 0.930 . S
C1425 C1424 1.394 . S
C1425 C1426 1.383 . S
C1425 H1433 0.929 . S
C1426 C1425 1.383 . S
C1426 C1427 1.377 . S
C1427 H1411 0.930 . S
C1427 C1426 1.377 . S
C1427 C1428 1.379 . S
C1428 H1412 0.931 . S
C1428 C1422 1.383 . S
C1428 C1427 1.379 . S
H1429 C1423 0.959 . S
H1430 C1423 0.961 . S
H1431 C1423 0.960 . S
H1432 C1424 0.930 . S
H1433 C1425 0.929 . S
H1434 C1442 0.929 . S
H1435 C1444 0.930 . S
H1436 C1446 0.930 . S
H1437 C1449 0.929 . S
H1438 C1452 0.930 . S
H1439 C1454 0.960 . S
H1440 C1454 0.960 . S
H1441 C1454 0.960 . S
C1442 H1434 0.929 . S
C1442 C1443 1.377 . S
C1442 C1444 1.384 . S
C1443 C1442 1.377 . S
C1443 C1449 1.390 . S
C1444 H1435 0.930 . S
C1444 C1442 1.384 . S
C1444 C1445 1.372 . S
C1445 C1444 1.372 . S
C1445 C1446 1.400 . S
C1445 C1450 1.490 . S
C1446 H1436 0.930 . S
C1446 C1445 1.400 . S
C1446 C1449 1.386 . S
H1447 C1463 0.930 . S
H1448 C1464 0.931 . S
C1449 H1437 0.929 . S
C1449 C1443 1.390 . S
C1449 C1446 1.386 . S
C1450 C1445 1.490 . S
C1450 C1452 1.395 . S
C1450 C1453 1.403 . S
H1451 C1457 0.930 . S
C1452 H1438 0.930 . S
C1452 C1450 1.395 . S
C1452 C1455 1.403 . S
C1453 C1450 1.403 . S
C1453 C1454 1.524 . S
C1453 C1457 1.400 . S
C1454 H1439 0.960 . S
C1454 H1440 0.960 . S
C1454 H1441 0.960 . S
C1454 C1453 1.524 . S
C1455 C1452 1.403 . S
C1455 C1456 1.392 . S
C1455 C1459 1.495 . S
C1456 C1455 1.392 . S
C1456 C1457 1.385 . S
C1456 C1458 1.478 . S
C1457 H1451 0.930 . S
C1457 C1453 1.400 . S
C1457 C1456 1.385 . S
C1458 C1456 1.478 . S
C1458 C1460 1.381 . S
C1458 C1464 1.383 . S
C1459 C1455 1.495 . S
C1459 H1465 0.959 . S
C1459 H1466 0.961 . S
C1459 H1467 0.960 . S
C1460 C1458 1.381 . S
C1460 C1461 1.394 . S
C1460 H1468 0.930 . S
C1461 C1460 1.394 . S
C1461 C1462 1.383 . S
C1461 H1469 0.929 . S
C1462 C1461 1.383 . S
C1462 C1463 1.377 . S
C1463 H1447 0.930 . S
C1463 C1462 1.377 . S
C1463 C1464 1.379 . S
C1464 H1448 0.931 . S
C1464 C1458 1.383 . S
C1464 C1463 1.379 . S
H1465 C1459 0.959 . S
H1466 C1459 0.961 . S
H1467 C1459 0.960 . S
H1468 C1460 0.930 . S
H1469 C1461 0.929 . S
H1470 C1478 0.929 . S
H1471 C1480 0.930 . S
H1472 C1482 0.930 . S
H1473 C1485 0.929 . S
H1474 C1488 0.930 . S
H1475 C1490 0.960 . S
H1476 C1490 0.960 . S
H1477 C1490 0.960 . S
C1478 H1470 0.929 . S
C1478 C1479 1.377 . S
C1478 C1480 1.384 . S
C1479 C1478 1.377 . S
C1479 C1485 1.390 . S
C1480 H1471 0.930 . S
C1480 C1478 1.384 . S
C1480 C1481 1.372 . S
C1481 C1480 1.372 . S
C1481 C1482 1.400 . S
C1481 C1486 1.490 . S
C1482 H1472 0.930 . S
C1482 C1481 1.400 . S
C1482 C1485 1.386 . S
H1483 C1499 0.930 . S
H1484 C1500 0.931 . S
C1485 H1473 0.929 . S
C1485 C1479 1.390 . S
C1485 C1482 1.386 . S
C1486 C1481 1.490 . S
C1486 C1488 1.395 . S
C1486 C1489 1.403 . S
H1487 C1493 0.930 . S
C1488 H1474 0.930 . S
C1488 C1486 1.395 . S
C1488 C1491 1.403 . S
C1489 C1486 1.403 . S
C1489 C1490 1.524 . S
C1489 C1493 1.400 . S
C1490 H1475 0.960 . S
C1490 H1476 0.960 . S
C1490 H1477 0.960 . S
C1490 C1489 1.524 . S
C1491 C1488 1.403 . S
C1491 C1492 1.392 . S
C1491 C1495 1.495 . S
C1492 C1491 1.392 . S
C1492 C1493 1.385 . S
C1492 C1494 1.478 . S
C1493 H1487 0.930 . S
C1493 C1489 1.400 . S
C1493 C1492 1.385 . S
C1494 C1492 1.478 . S
C1494 C1496 1.381 . S
C1494 C1500 1.383 . S
C1495 C1491 1.495 . S
C1495 H1501 0.959 . S
C1495 H1502 0.961 . S
C1495 H1503 0.960 . S
C1496 C1494 1.381 . S
C1496 C1497 1.394 . S
C1496 H1504 0.930 . S
C1497 C1496 1.394 . S
C1497 C1498 1.383 . S
C1497 H1505 0.929 . S
C1498 C1497 1.383 . S
C1498 C1499 1.377 . S
C1499 H1483 0.930 . S
C1499 C1498 1.377 . S
C1499 C1500 1.379 . S
C1500 H1484 0.931 . S
C1500 C1494 1.383 . S
C1500 C1499 1.379 . S
H1501 C1495 0.959 . S
H1502 C1495 0.961 . S
H1503 C1495 0.960 . S
H1504 C1496 0.930 . S
H1505 C1497 0.929 . S
H1506 C1514 0.929 . S
H1507 C1516 0.930 . S
H1508 C1518 0.930 . S
H1509 C1521 0.929 . S
H1510 C1524 0.930 . S
H1511 C1526 0.960 . S
H1512 C1526 0.960 . S
H1513 C1526 0.960 . S
C1514 H1506 0.929 . S
C1514 C1515 1.377 . S
C1514 C1516 1.384 . S
C1515 C1514 1.377 . S
C1515 C1521 1.390 . S
C1516 H1507 0.930 . S
C1516 C1514 1.384 . S
C1516 C1517 1.372 . S
C1517 C1516 1.372 . S
C1517 C1518 1.400 . S
C1517 C1522 1.490 . S
C1518 H1508 0.930 . S
C1518 C1517 1.400 . S
C1518 C1521 1.386 . S
H1519 C1535 0.930 . S
H1520 C1536 0.931 . S
C1521 H1509 0.929 . S
C1521 C1515 1.390 . S
C1521 C1518 1.386 . S
C1522 C1517 1.490 . S
C1522 C1524 1.395 . S
C1522 C1525 1.403 . S
H1523 C1529 0.930 . S
C1524 H1510 0.930 . S
C1524 C1522 1.395 . S
C1524 C1527 1.403 . S
C1525 C1522 1.403 . S
C1525 C1526 1.524 . S
C1525 C1529 1.400 . S
C1526 H1511 0.960 . S
C1526 H1512 0.960 . S
C1526 H1513 0.960 . S
C1526 C1525 1.524 . S
C1527 C1524 1.403 . S
C1527 C1528 1.392 . S
C1527 C1531 1.495 . S
C1528 C1527 1.392 . S
C1528 C1529 1.385 . S
C1528 C1530 1.478 . S
C1529 H1523 0.930 . S
C1529 C1525 1.400 . S
C1529 C1528 1.385 . S
C1530 C1528 1.478 . S
C1530 C1532 1.381 . S
C1530 C1536 1.383 . S
C1531 C1527 1.495 . S
C1531 H1537 0.959 . S
C1531 H1538 0.961 . S
C1531 H1539 0.960 . S
C1532 C1530 1.381 . S
C1532 C1533 1.394 . S
C1532 H1540 0.930 . S
C1533 C1532 1.394 . S
C1533 C1534 1.383 . S
C1533 H1541 0.929 . S
C1534 C1533 1.383 . S
C1534 C1535 1.377 . S
C1535 H1519 0.930 . S
C1535 C1534 1.377 . S
C1535 C1536 1.379 . S
C1536 H1520 0.931 . S
C1536 C1530 1.383 . S
C1536 C1535 1.379 . S
H1537 C1531 0.959 . S
H1538 C1531 0.961 . S
H1539 C1531 0.960 . S
H1540 C1532 0.930 . S
H1541 C1533 0.929 . S
H1542 C1550 0.929 . S
H1543 C1552 0.930 . S
H1544 C1554 0.930 . S
H1545 C1557 0.929 . S
H1546 C1560 0.930 . S
H1547 C1562 0.960 . S
H1548 C1562 0.960 . S
H1549 C1562 0.960 . S
C1550 H1542 0.929 . S
C1550 C1551 1.377 . S
C1550 C1552 1.384 . S
C1551 C1550 1.377 . S
C1551 C1557 1.390 . S
C1552 H1543 0.930 . S
C1552 C1550 1.384 . S
C1552 C1553 1.372 . S
C1553 C1552 1.372 . S
C1553 C1554 1.400 . S
C1553 C1558 1.490 . S
C1554 H1544 0.930 . S
C1554 C1553 1.400 . S
C1554 C1557 1.386 . S
H1555 C1571 0.930 . S
H1556 C1572 0.931 . S
C1557 H1545 0.929 . S
C1557 C1551 1.390 . S
C1557 C1554 1.386 . S
C1558 C1553 1.490 . S
C1558 C1560 1.395 . S
C1558 C1561 1.403 . S
H1559 C1565 0.930 . S
C1560 H1546 0.930 . S
C1560 C1558 1.395 . S
C1560 C1563 1.403 . S
C1561 C1558 1.403 . S
C1561 C1562 1.524 . S
C1561 C1565 1.400 . S
C1562 H1547 0.960 . S
C1562 H1548 0.960 . S
C1562 H1549 0.960 . S
C1562 C1561 1.524 . S
C1563 C1560 1.403 . S
C1563 C1564 1.392 . S
C1563 C1567 1.495 . S
C1564 C1563 1.392 . S
C1564 C1565 1.385 . S
C1564 C1566 1.478 . S
C1565 H1559 0.930 . S
C1565 C1561 1.400 . S
C1565 C1564 1.385 . S
C1566 C1564 1.478 . S
C1566 C1568 1.381 . S
C1566 C1572 1.383 . S
C1567 C1563 1.495 . S
C1567 H1573 0.959 . S
C1567 H1574 0.961 . S
C1567 H1575 0.960 . S
C1568 C1566 1.381 . S
C1568 C1569 1.394 . S
C1568 H1576 0.930 . S
C1569 C1568 1.394 . S
C1569 C1570 1.383 . S
C1569 H1577 0.929 . S
C1570 C1569 1.383 . S
C1570 C1571 1.377 . S
C1571 H1555 0.930 . S
C1571 C1570 1.377 . S
C1571 C1572 1.379 . S
C1572 H1556 0.931 . S
C1572 C1566 1.383 . S
C1572 C1571 1.379 . S
H1573 C1567 0.959 . S
H1574 C1567 0.961 . S
H1575 C1567 0.960 . S
H1576 C1568 0.930 . S
H1577 C1569 0.929 . S
H1578 C1586 0.929 . S
H1579 C1588 0.930 . S
H1580 C1590 0.930 . S
H1581 C1593 0.929 . S
H1582 C1596 0.930 . S
H1583 C1598 0.960 . S
H1584 C1598 0.960 . S
H1585 C1598 0.960 . S
C1586 H1578 0.929 . S
C1586 C1587 1.377 . S
C1586 C1588 1.384 . S
C1587 C1586 1.377 . S
C1587 C1593 1.390 . S
C1588 H1579 0.930 . S
C1588 C1586 1.384 . S
C1588 C1589 1.372 . S
C1589 C1588 1.372 . S
C1589 C1590 1.400 . S
C1589 C1594 1.490 . S
C1590 H1580 0.930 . S
C1590 C1589 1.400 . S
C1590 C1593 1.386 . S
H1591 C1607 0.930 . S
H1592 C1608 0.931 . S
C1593 H1581 0.929 . S
C1593 C1587 1.390 . S
C1593 C1590 1.386 . S
C1594 C1589 1.490 . S
C1594 C1596 1.395 . S
C1594 C1597 1.403 . S
H1595 C1601 0.930 . S
C1596 H1582 0.930 . S
C1596 C1594 1.395 . S
C1596 C1599 1.403 . S
C1597 C1594 1.403 . S
C1597 C1598 1.524 . S
C1597 C1601 1.400 . S
C1598 H1583 0.960 . S
C1598 H1584 0.960 . S
C1598 H1585 0.960 . S
C1598 C1597 1.524 . S
C1599 C1596 1.403 . S
C1599 C1600 1.392 . S
C1599 C1603 1.495 . S
C1600 C1599 1.392 . S
C1600 C1601 1.385 . S
C1600 C1602 1.478 . S
C1601 H1595 0.930 . S
C1601 C1597 1.400 . S
C1601 C1600 1.385 . S
C1602 C1600 1.478 . S
C1602 C1604 1.381 . S
C1602 C1608 1.383 . S
C1603 C1599 1.495 . S
C1603 H1609 0.959 . S
C1603 H1610 0.961 . S
C1603 H1611 0.960 . S
C1604 C1602 1.381 . S
C1604 C1605 1.394 . S
C1604 H1612 0.930 . S
C1605 C1604 1.394 . S
C1605 C1606 1.383 . S
C1605 H1613 0.929 . S
C1606 C1605 1.383 . S
C1606 C1607 1.377 . S
C1607 H1591 0.930 . S
C1607 C1606 1.377 . S
C1607 C1608 1.379 . S
C1608 H1592 0.931 . S
C1608 C1602 1.383 . S
C1608 C1607 1.379 . S
H1609 C1603 0.959 . S
H1610 C1603 0.961 . S
H1611 C1603 0.960 . S
H1612 C1604 0.930 . S
H1613 C1605 0.929 . S
H1614 C1622 0.929 . S
H1615 C1624 0.930 . S
H1616 C1626 0.930 . S
H1617 C1629 0.929 . S
H1618 C1632 0.930 . S
H1619 C1634 0.960 . S
H1620 C1634 0.960 . S
H1621 C1634 0.960 . S
C1622 H1614 0.929 . S
C1622 C1623 1.377 . S
C1622 C1624 1.384 . S
C1623 C1622 1.377 . S
C1623 C1629 1.390 . S
C1624 H1615 0.930 . S
C1624 C1622 1.384 . S
C1624 C1625 1.372 . S
C1625 C1624 1.372 . S
C1625 C1626 1.400 . S
C1625 C1630 1.490 . S
C1626 H1616 0.930 . S
C1626 C1625 1.400 . S
C1626 C1629 1.386 . S
H1627 C1643 0.930 . S
H1628 C1644 0.931 . S
C1629 H1617 0.929 . S
C1629 C1623 1.390 . S
C1629 C1626 1.386 . S
C1630 C1625 1.490 . S
C1630 C1632 1.395 . S
C1630 C1633 1.403 . S
H1631 C1637 0.930 . S
C1632 H1618 0.930 . S
C1632 C1630 1.395 . S
C1632 C1635 1.403 . S
C1633 C1630 1.403 . S
C1633 C1634 1.524 . S
C1633 C1637 1.400 . S
C1634 H1619 0.960 . S
C1634 H1620 0.960 . S
C1634 H1621 0.960 . S
C1634 C1633 1.524 . S
C1635 C1632 1.403 . S
C1635 C1636 1.392 . S
C1635 C1639 1.495 . S
C1636 C1635 1.392 . S
C1636 C1637 1.385 . S
C1636 C1638 1.478 . S
C1637 H1631 0.930 . S
C1637 C1633 1.400 . S
C1637 C1636 1.385 . S
C1638 C1636 1.478 . S
C1638 C1640 1.381 . S
C1638 C1644 1.383 . S
C1639 C1635 1.495 . S
C1639 H1645 0.959 . S
C1639 H1646 0.961 . S
C1639 H1647 0.960 . S
C1640 C1638 1.381 . S
C1640 C1641 1.394 . S
C1640 H1648 0.930 . S
C1641 C1640 1.394 . S
C1641 C1642 1.383 . S
C1641 H1649 0.929 . S
C1642 C1641 1.383 . S
C1642 C1643 1.377 . S
C1643 H1627 0.930 . S
C1643 C1642 1.377 . S
C1643 C1644 1.379 . S
C1644 H1628 0.931 . S
C1644 C1638 1.383 . S
C1644 C1643 1.379 . S
H1645 C1639 0.959 . S
H1646 C1639 0.961 . S
H1647 C1639 0.960 . S
H1648 C1640 0.930 . S
H1649 C1641 0.929 . S
H1650 C1658 0.929 . S
H1651 C1660 0.930 . S
H1652 C1662 0.930 . S
H1653 C1665 0.929 . S
H1654 C1668 0.930 . S
H1655 C1670 0.960 . S
H1656 C1670 0.960 . S
H1657 C1670 0.960 . S
C1658 H1650 0.929 . S
C1658 C1659 1.377 . S
C1658 C1660 1.384 . S
C1659 C1658 1.377 . S
C1659 C1665 1.390 . S
C1660 H1651 0.930 . S
C1660 C1658 1.384 . S
C1660 C1661 1.372 . S
C1661 C1660 1.372 . S
C1661 C1662 1.400 . S
C1661 C1666 1.490 . S
C1662 H1652 0.930 . S
C1662 C1661 1.400 . S
C1662 C1665 1.386 . S
H1663 C1679 0.930 . S
H1664 C1680 0.931 . S
C1665 H1653 0.929 . S
C1665 C1659 1.390 . S
C1665 C1662 1.386 . S
C1666 C1661 1.490 . S
C1666 C1668 1.395 . S
C1666 C1669 1.403 . S
H1667 C1673 0.930 . S
C1668 H1654 0.930 . S
C1668 C1666 1.395 . S
C1668 C1671 1.403 . S
C1669 C1666 1.403 . S
C1669 C1670 1.524 . S
C1669 C1673 1.400 . S
C1670 H1655 0.960 . S
C1670 H1656 0.960 . S
C1670 H1657 0.960 . S
C1670 C1669 1.524 . S
C1671 C1668 1.403 . S
C1671 C1672 1.392 . S
C1671 C1675 1.495 . S
C1672 C1671 1.392 . S
C1672 C1673 1.385 . S
C1672 C1674 1.478 . S
C1673 H1667 0.930 . S
C1673 C1669 1.400 . S
C1673 C1672 1.385 . S
C1674 C1672 1.478 . S
C1674 C1676 1.381 . S
C1674 C1680 1.383 . S
C1675 C1671 1.495 . S
C1675 H1681 0.959 . S
C1675 H1682 0.961 . S
C1675 H1683 0.960 . S
C1676 C1674 1.381 . S
C1676 C1677 1.394 . S
C1676 H1684 0.930 . S
C1677 C1676 1.394 . S
C1677 C1678 1.383 . S
C1677 H1685 0.929 . S
C1678 C1677 1.383 . S
C1678 C1679 1.377 . S
C1679 H1663 0.930 . S
C1679 C1678 1.377 . S
C1679 C1680 1.379 . S
C1680 H1664 0.931 . S
C1680 C1674 1.383 . S
C1680 C1679 1.379 . S
H1681 C1675 0.959 . S
H1682 C1675 0.961 . S
H1683 C1675 0.960 . S
H1684 C1676 0.930 . S
H1685 C1677 0.929 . S
C831 C7 1.991 . S
C850 C167 1.812 . S
C867 C30 1.824 . S
C886 C307 1.546 . S
C922 C395 1.649 . S
C903 N58 1.749 . S
C958 C535 1.397 . S
C939 N81 1.609 . S
C994 C649 1.634 . S
C975 C99 1.927 . S
C1030 C719 0.784 . S
C1011 N127 1.608 . S
C1047 N25 1.831 . S
C1066 C377 1.039 . S
C1083 C62 1.629 1_556 S
C1102 C481 1.210 . S
C1138 C595 1.398 . S
C1119 C85 1.848 . S
C1174 C737 1.471 . S
C1155 N94 1.563 . S
C1191 C131 2.072 . S
C1210 C149 1.073 . S
C1246 C253 1.106 . S
C1227 N2 1.427 . S
C1282 C491 1.522 . S
C1263 C16 2.079 . S
C1299 C39 1.819 . S
C1318 C605 1.406 . S
C1354 C763 1.354 . S
C1335 N48 1.991 . S
C1371 N71 1.560 . S
C1390 C139 1.344 . S
C1407 C108 2.142 . S
C1426 C263 1.640 . S
C1443 N117 1.524 . S
C1462 C367 1.424 . S
C1479 N35 1.810 . S
C1498 C709 1.659 . S
C1534 C193 1.162 . S
C1515 C53 1.886 . S
C1551 C76 1.992 . S
C1570 C281 1.476 . S
C1587 N104 1.714 . S
C1606 C421 1.130 . S
C1623 C122 1.889 . S
C1642 C509 1.439 . S
C1659 N12 1.602 . S
C1678 C623 1.249 . S
