# Generated by pormake.
# Topology pto, (3,4)-cn, num edge types: 1
# Building blocks:
#     Node 0, Type 0, BuildingBlock: WUSLED_clean_sbu_0, # of connection points: 3
#     Node 1, Type 0, BuildingBlock: WUSLED_clean_sbu_0, # of connection points: 3
#     Node 2, Type 0, BuildingBlock: WUSLED_clean_sbu_0, # of connection points: 3
#     Node 3, Type 0, BuildingBlock: WUSLED_clean_sbu_0, # of connection points: 3
#     Node 4, Type 0, BuildingBlock: WUSLED_clean_sbu_0, # of connection points: 3
#     Node 5, Type 0, BuildingBlock: WUSLED_clean_sbu_0, # of connection points: 3
#     Node 6, Type 0, BuildingBlock: WUSLED_clean_sbu_0, # of connection points: 3
#     Node 7, Type 0, BuildingBlock: WUSLED_clean_sbu_0, # of connection points: 3
#     Node 8, Type 1, BuildingBlock: MUDLON_clean_linker_0, # of connection points: 4
#     Node 9, Type 1, BuildingBlock: MUDLON_clean_linker_0, # of connection points: 4
#     Node 10, Type 1, BuildingBlock: MUDLON_clean_linker_0, # of connection points: 4
#     Node 11, Type 1, BuildingBlock: MUDLON_clean_linker_0, # of connection points: 4
#     Node 12, Type 1, BuildingBlock: MUDLON_clean_linker_0, # of connection points: 4
#     Node 13, Type 1, BuildingBlock: MUDLON_clean_linker_0, # of connection points: 4
#     Edge 14, Type (0, 1), BuildingBlock: KIFKEQ_clean_linker_1, # of connection points: 2
#     Edge 15, Type (0, 1), BuildingBlock: KIFKEQ_clean_linker_1, # of connection points: 2
#     Edge 16, Type (0, 1), BuildingBlock: KIFKEQ_clean_linker_1, # of connection points: 2
#     Edge 17, Type (0, 1), BuildingBlock: KIFKEQ_clean_linker_1, # of connection points: 2
#     Edge 18, Type (0, 1), BuildingBlock: KIFKEQ_clean_linker_1, # of connection points: 2
#     Edge 19, Type (0, 1), BuildingBlock: KIFKEQ_clean_linker_1, # of connection points: 2
#     Edge 20, Type (0, 1), BuildingBlock: KIFKEQ_clean_linker_1, # of connection points: 2
#     Edge 21, Type (0, 1), BuildingBlock: KIFKEQ_clean_linker_1, # of connection points: 2
#     Edge 22, Type (0, 1), BuildingBlock: KIFKEQ_clean_linker_1, # of connection points: 2
#     Edge 23, Type (0, 1), BuildingBlock: KIFKEQ_clean_linker_1, # of connection points: 2
#     Edge 24, Type (0, 1), BuildingBlock: KIFKEQ_clean_linker_1, # of connection points: 2
#     Edge 25, Type (0, 1), BuildingBlock: KIFKEQ_clean_linker_1, # of connection points: 2
#     Edge 26, Type (0, 1), BuildingBlock: KIFKEQ_clean_linker_1, # of connection points: 2
#     Edge 27, Type (0, 1), BuildingBlock: KIFKEQ_clean_linker_1, # of connection points: 2
#     Edge 28, Type (0, 1), BuildingBlock: KIFKEQ_clean_linker_1, # of connection points: 2
#     Edge 29, Type (0, 1), BuildingBlock: KIFKEQ_clean_linker_1, # of connection points: 2
#     Edge 30, Type (0, 1), BuildingBlock: KIFKEQ_clean_linker_1, # of connection points: 2
#     Edge 31, Type (0, 1), BuildingBlock: KIFKEQ_clean_linker_1, # of connection points: 2
#     Edge 32, Type (0, 1), BuildingBlock: KIFKEQ_clean_linker_1, # of connection points: 2
#     Edge 33, Type (0, 1), BuildingBlock: KIFKEQ_clean_linker_1, # of connection points: 2
#     Edge 34, Type (0, 1), BuildingBlock: KIFKEQ_clean_linker_1, # of connection points: 2
#     Edge 35, Type (0, 1), BuildingBlock: KIFKEQ_clean_linker_1, # of connection points: 2
#     Edge 36, Type (0, 1), BuildingBlock: KIFKEQ_clean_linker_1, # of connection points: 2
#     Edge 37, Type (0, 1), BuildingBlock: KIFKEQ_clean_linker_1, # of connection points: 2
# Relax obj value: 0.005
# Max RMSD: 0.037
# Mean RMSD: 0.021
data_MOF--net-pto--node1-WUSLED_clean_sbu_0--node2-MUDLON_clean_linker_0--edge1-KIFKEQ_clean_linker_1
_symmetry_space_group_name_H-M    P1
_symmetry_Int_Tables_number       1
_symmetry_cell_setting            triclinic
loop_
_symmetry_equiv_pos_as_xyz
'x, y, z'
_cell_length_a     50.063907
_cell_length_b     83.918622
_cell_length_c     67.468262
_cell_angle_alpha  89.528052
_cell_angle_beta   90.5916
_cell_angle_gamma 90.661758
loop_
_atom_site_label
_atom_site_type_symbol
_atom_site_fract_x
_atom_site_fract_y
_atom_site_fract_z
_atom_type_partial_charge
C0 C 0.23093 0.2276 0.35746 0.0
C1 C 0.222 0.21385 0.34747 0.0
C2 C 0.22961 0.19771 0.37715 0.0
C3 C 0.22128 0.19908 0.35724 0.0
C4 C 0.23898 0.21141 0.38699 0.0
C5 C 0.2395 0.2262 0.37727 0.0
U6 U 0.25294 0.25729 0.31703 0.0
O7 O 0.22967 0.27475 0.29984 0.0
O8 O 0.2627 0.28288 0.31899 0.0
C9 C 0.24227 0.28703 0.30774 0.0
C10 C 0.23053 0.24352 0.34782 0.0
C11 C 0.22535 0.30016 0.31492 0.0
C12 C 0.18484 0.31583 0.31185 0.0
C13 C 0.20007 0.30277 0.30632 0.0
C14 C 0.21972 0.324 0.33482 0.0
C15 C 0.19458 0.3267 0.32601 0.0
C16 C 0.23499 0.31092 0.32928 0.0
C17 C 0.30179 0.2443 0.27728 0.0
C18 C 0.30899 0.25841 0.24613 0.0
C19 C 0.34067 0.23861 0.25743 0.0
C20 C 0.32534 0.23582 0.27433 0.0
C21 C 0.33265 0.24991 0.24311 0.0
C22 C 0.29375 0.25569 0.26313 0.0
C23 C 0.28597 0.2411 0.29518 0.0
O24 O 0.25277 0.25197 0.34908 0.0
O25 O 0.21895 0.24445 0.33026 0.0
O26 O 0.25989 0.24071 0.29263 0.0
O27 O 0.2936 0.24891 0.3111 0.0
H28 H 0.21531 0.21447 0.33217 0.0
H29 H 0.2142 0.18871 0.34921 0.0
H30 H 0.24523 0.21079 0.40239 0.0
H31 H 0.2463 0.23662 0.38534 0.0
H32 H 0.16541 0.31742 0.30496 0.0
H33 H 0.19214 0.29485 0.29505 0.0
H34 H 0.22796 0.33224 0.34559 0.0
H35 H 0.25455 0.30943 0.33599 0.0
H36 H 0.30247 0.26732 0.23549 0.0
H37 H 0.35863 0.23176 0.25544 0.0
H38 H 0.33185 0.227 0.2851 0.0
H39 H 0.27572 0.26246 0.26523 0.0
C40 C 0.22606 0.78972 0.6669 0.0
C41 C 0.23947 0.80308 0.6747 0.0
C42 C 0.22636 0.81891 0.64579 0.0
C43 C 0.23958 0.81757 0.66425 0.0
C44 C 0.2128 0.80546 0.63819 0.0
C45 C 0.21267 0.79102 0.64865 0.0
U46 U 0.24876 0.76298 0.70981 0.0
O47 O 0.22651 0.745 0.72702 0.0
O48 O 0.26108 0.73787 0.70959 0.0
C49 C 0.24076 0.73314 0.72042 0.0
C50 C 0.22619 0.77431 0.67741 0.0
C51 C 0.22533 0.7195 0.71271 0.0
C52 C 0.19035 0.70855 0.69145 0.0
C53 C 0.20559 0.72158 0.69804 0.0
C54 C 0.21489 0.69117 0.71378 0.0
C55 C 0.19471 0.6932 0.69935 0.0
C56 C 0.23002 0.70422 0.72042 0.0
C57 C 0.29471 0.77937 0.75043 0.0
C58 C 0.32108 0.76311 0.77312 0.0
C59 C 0.31243 0.79069 0.78093 0.0
C60 C 0.2978 0.7923 0.76328 0.0
C61 C 0.32437 0.7761 0.78599 0.0
C62 C 0.30624 0.76469 0.75554 0.0
C63 C 0.27931 0.78139 0.73188 0.0
O64 O 0.24915 0.76687 0.67753 0.0
O65 O 0.21438 0.77403 0.69473 0.0
O66 O 0.25322 0.78058 0.73369 0.0
O67 O 0.2881 0.77365 0.71643 0.0
H68 H 0.25 0.80225 0.68878 0.0
H69 H 0.25042 0.82764 0.67044 0.0
H70 H 0.20208 0.80613 0.62419 0.0
H71 H 0.20217 0.78083 0.64245 0.0
H72 H 0.17521 0.71047 0.68013 0.0
H73 H 0.20181 0.7333 0.69184 0.0
H74 H 0.21856 0.67955 0.72031 0.0
H75 H 0.24519 0.70241 0.73176 0.0
H76 H 0.3298 0.75168 0.77673 0.0
H77 H 0.31484 0.80096 0.79042 0.0
H78 H 0.28899 0.8037 0.7596 0.0
H79 H 0.30384 0.75449 0.74593 0.0
C80 C 0.73515 0.77994 0.27943 0.0
C81 C 0.73811 0.76626 0.26787 0.0
C82 C 0.70354 0.77556 0.245 0.0
C83 C 0.72249 0.76411 0.25076 0.0
C84 C 0.70071 0.78924 0.2567 0.0
C85 C 0.7164 0.7914 0.27374 0.0
U86 U 0.78329 0.76458 0.3191 0.0
O87 O 0.81802 0.77641 0.33316 0.0
O88 O 0.78417 0.76845 0.35128 0.0
C89 C 0.80688 0.77646 0.35071 0.0
C90 C 0.75131 0.78236 0.29748 0.0
C91 C 0.80711 0.79193 0.36082 0.0
C92 C 0.78773 0.81786 0.3668 0.0
C93 C 0.78749 0.80334 0.35673 0.0
C94 C 0.8275 0.80982 0.38485 0.0
C95 C 0.80767 0.82125 0.38109 0.0
C96 C 0.82718 0.7953 0.37483 0.0
C97 C 0.80732 0.72124 0.31642 0.0
C98 C 0.81888 0.70198 0.34222 0.0
C99 C 0.8392 0.70031 0.30991 0.0
C100 C 0.82478 0.7136 0.30355 0.0
C101 C 0.83633 0.69425 0.3293 0.0
C102 C 0.80459 0.71536 0.33588 0.0
C103 C 0.79168 0.73492 0.30899 0.0
O104 O 0.74333 0.7743 0.31316 0.0
O105 O 0.77732 0.78207 0.29507 0.0
O106 O 0.8056 0.74703 0.30189 0.0
O107 O 0.77133 0.7393 0.31976 0.0
H108 H 0.75243 0.75724 0.27213 0.0
H109 H 0.72494 0.75336 0.24222 0.0
H110 H 0.68655 0.79837 0.25255 0.0
H111 H 0.71388 0.80204 0.2825 0.0
H112 H 0.77199 0.82628 0.36367 0.0
H113 H 0.77186 0.80094 0.34589 0.0
H114 H 0.8434 0.81212 0.39549 0.0
H115 H 0.84259 0.78667 0.37806 0.0
H116 H 0.8159 0.69756 0.35717 0.0
H117 H 0.85279 0.69487 0.29965 0.0
H118 H 0.82722 0.7179 0.28848 0.0
H119 H 0.79124 0.72097 0.34617 0.0
C120 C 0.77187 0.21033 0.6918 0.0
C121 C 0.76714 0.2127 0.67141 0.0
C122 C 0.78058 0.18546 0.66467 0.0
C123 C 0.77135 0.20037 0.65801 0.0
C124 C 0.7857 0.18321 0.68502 0.0
C125 C 0.78126 0.1955 0.69845 0.0
U126 U 0.77982 0.25301 0.71123 0.0
O127 O 0.7501 0.26882 0.72438 0.0
O128 O 0.78542 0.26164 0.74168 0.0
C129 C 0.76221 0.26883 0.74176 0.0
C130 C 0.76655 0.22293 0.70641 0.0
C131 C 0.74495 0.26541 0.75887 0.0
C132 C 0.72782 0.24741 0.78427 0.0
C133 C 0.74442 0.25033 0.76805 0.0
C134 C 0.71181 0.2745 0.78214 0.0
C135 C 0.71125 0.25945 0.79152 0.0
C136 C 0.72854 0.27744 0.76602 0.0
C137 C 0.82268 0.2833 0.68289 0.0
C138 C 0.83112 0.31016 0.69486 0.0
C139 C 0.85086 0.30154 0.66417 0.0
C140 C 0.83858 0.28661 0.66639 0.0
C141 C 0.84751 0.31346 0.67846 0.0
C142 C 0.81883 0.29517 0.69708 0.0
C143 C 0.81084 0.2673 0.68529 0.0
O144 O 0.7871 0.22757 0.71729 0.0
O145 O 0.75153 0.2348 0.70034 0.0
O146 O 0.78473 0.26638 0.68327 0.0
O147 O 0.82 0.25899 0.70043 0.0
H148 H 0.76006 0.22403 0.6658 0.0
H149 H 0.76755 0.20253 0.64239 0.0
H150 H 0.7926 0.17183 0.69063 0.0
H151 H 0.78497 0.19338 0.71409 0.0
H152 H 0.72817 0.23574 0.79123 0.0
H153 H 0.75685 0.24083 0.76271 0.0
H154 H 0.699 0.28397 0.78703 0.0
H155 H 0.72854 0.28912 0.75904 0.0
H156 H 0.82829 0.31902 0.70621 0.0
H157 H 0.86297 0.30375 0.6512 0.0
H158 H 0.84166 0.27759 0.65527 0.0
H159 H 0.80661 0.29278 0.70995 0.0
C160 C 0.80152 0.71791 0.71269 0.0
C161 C 0.81535 0.71884 0.69474 0.0
C162 C 0.82947 0.69126 0.69881 0.0
C163 C 0.82922 0.70563 0.68785 0.0
C164 C 0.81543 0.69045 0.71676 0.0
C165 C 0.80159 0.70365 0.72361 0.0
U166 U 0.78035 0.76155 0.70964 0.0
O167 O 0.74149 0.77223 0.71605 0.0
O168 O 0.77701 0.77919 0.73337 0.0
C169 C 0.75095 0.7802 0.73132 0.0
C170 C 0.78711 0.73169 0.72032 0.0
C171 C 0.73566 0.77845 0.74968 0.0
C172 C 0.72127 0.76274 0.77813 0.0
C173 C 0.73593 0.76417 0.76063 0.0
C174 C 0.70596 0.78986 0.77382 0.0
C175 C 0.70614 0.7756 0.78496 0.0
C176 C 0.72061 0.79125 0.75636 0.0
C177 C 0.80318 0.78861 0.66742 0.0
C178 C 0.78901 0.81618 0.66508 0.0
C179 C 0.81843 0.80548 0.64033 0.0
C180 C 0.81807 0.79074 0.65013 0.0
C181 C 0.80388 0.81839 0.64765 0.0
C182 C 0.78868 0.80141 0.67489 0.0
C183 C 0.8028 0.77299 0.67746 0.0
O184 O 0.80221 0.74346 0.72689 0.0
O185 O 0.7668 0.73652 0.70943 0.0
O186 O 0.77957 0.76553 0.67738 0.0
O187 O 0.81501 0.77249 0.69479 0.0
H188 H 0.81545 0.72979 0.6861 0.0
H189 H 0.83956 0.70662 0.67386 0.0
H190 H 0.81552 0.67969 0.72573 0.0
H191 H 0.79108 0.70276 0.73755 0.0
H192 H 0.72205 0.75166 0.78644 0.0
H193 H 0.74751 0.75416 0.75566 0.0
H194 H 0.69419 0.79989 0.77844 0.0
H195 H 0.72011 0.80234 0.74802 0.0
H196 H 0.77781 0.82589 0.67125 0.0
H197 H 0.82977 0.80668 0.6268 0.0
H198 H 0.82931 0.78096 0.64414 0.0
H199 H 0.77711 0.79996 0.68829 0.0
C200 C 0.73277 0.23848 0.27953 0.0
C201 C 0.72156 0.25336 0.27505 0.0
C202 C 0.7019 0.2427 0.24468 0.0
C203 C 0.70615 0.25543 0.25783 0.0
C204 C 0.71349 0.22788 0.2491 0.0
C205 C 0.72873 0.2258 0.26641 0.0
U206 U 0.77958 0.25431 0.31986 0.0
O207 O 0.7806 0.24952 0.35196 0.0
O208 O 0.815 0.24344 0.33373 0.0
C209 C 0.80388 0.24249 0.35127 0.0
C210 C 0.74892 0.23606 0.29764 0.0
C211 C 0.80517 0.22682 0.36111 0.0
C212 C 0.79299 0.19872 0.36295 0.0
C213 C 0.79168 0.21351 0.35325 0.0
C214 C 0.82127 0.21043 0.38843 0.0
C215 C 0.80785 0.19699 0.38067 0.0
C216 C 0.81993 0.22518 0.37873 0.0
C217 C 0.80105 0.29839 0.31787 0.0
C218 C 0.84026 0.31 0.33395 0.0
C219 C 0.80598 0.32715 0.32029 0.0
C220 C 0.7913 0.31374 0.31425 0.0
C221 C 0.8308 0.32545 0.32998 0.0
C222 C 0.82546 0.29659 0.32802 0.0
C223 C 0.78595 0.28451 0.3103 0.0
O224 O 0.77489 0.23731 0.29534 0.0
O225 O 0.74043 0.24323 0.31362 0.0
O226 O 0.76634 0.27924 0.32147 0.0
O227 O 0.8003 0.27303 0.30284 0.0
H228 H 0.7247 0.26338 0.28487 0.0
H229 H 0.69777 0.26703 0.2547 0.0
H230 H 0.71041 0.21783 0.23935 0.0
H231 H 0.73731 0.21425 0.26959 0.0
H232 H 0.78263 0.1886 0.35646 0.0
H233 H 0.78016 0.21459 0.33962 0.0
H234 H 0.83251 0.20961 0.4022 0.0
H235 H 0.83035 0.23536 0.38506 0.0
H236 H 0.85913 0.3083 0.34163 0.0
H237 H 0.79826 0.33887 0.31685 0.0
H238 H 0.7725 0.31536 0.30642 0.0
H239 H 0.83326 0.28482 0.33111 0.0
C240 C 0.22771 0.22902 0.66281 0.0
C241 C 0.24258 0.21618 0.67023 0.0
C242 C 0.22605 0.19937 0.64335 0.0
C243 C 0.2418 0.20147 0.66056 0.0
C244 C 0.21141 0.21238 0.63593 0.0
C245 C 0.21224 0.22706 0.64558 0.0
U246 U 0.2498 0.25556 0.70566 0.0
O247 O 0.26143 0.28093 0.7061 0.0
O248 O 0.22685 0.27255 0.72313 0.0
C249 C 0.24056 0.28494 0.71658 0.0
C250 C 0.22772 0.24441 0.67306 0.0
C251 C 0.22465 0.29862 0.7092 0.0
C252 C 0.21902 0.32173 0.68747 0.0
C253 C 0.23391 0.30858 0.69379 0.0
C254 C 0.18539 0.31532 0.71187 0.0
C255 C 0.19455 0.32523 0.69641 0.0
C256 C 0.20032 0.30223 0.71825 0.0
C257 C 0.29548 0.23807 0.74604 0.0
C258 C 0.31068 0.25296 0.77486 0.0
C259 C 0.32338 0.22539 0.77103 0.0
C260 C 0.30911 0.2247 0.75316 0.0
C261 C 0.32428 0.2395 0.78216 0.0
C262 C 0.29633 0.25224 0.75694 0.0
C263 C 0.28029 0.2369 0.72736 0.0
O264 O 0.21562 0.24436 0.69025 0.0
O265 O 0.25066 0.25219 0.67335 0.0
O266 O 0.28934 0.24563 0.71256 0.0
O267 O 0.25419 0.23734 0.72903 0.0
H268 H 0.25459 0.21749 0.68359 0.0
H269 H 0.25311 0.19167 0.66678 0.0
H270 H 0.19941 0.21126 0.62255 0.0
H271 H 0.20069 0.23687 0.63963 0.0
H272 H 0.22654 0.32907 0.67544 0.0
H273 H 0.2527 0.30627 0.6866 0.0
H274 H 0.16684 0.31783 0.7193 0.0
H275 H 0.19285 0.29499 0.7304 0.0
H276 H 0.3108 0.26396 0.78314 0.0
H277 H 0.33399 0.21489 0.77602 0.0
H278 H 0.30871 0.21368 0.74488 0.0
H279 H 0.28582 0.26268 0.75164 0.0
C280 C 0.2079 0.7351 0.34618 0.0
C281 C 0.21143 0.72358 0.33151 0.0
C282 C 0.18507 0.70438 0.35058 0.0
C283 C 0.20005 0.70835 0.33367 0.0
C284 C 0.1817 0.71602 0.36524 0.0
C285 C 0.19301 0.73123 0.36304 0.0
U286 U 0.25286 0.76468 0.31902 0.0
O287 O 0.24748 0.7901 0.31204 0.0
O288 O 0.28135 0.78255 0.3306 0.0
C289 C 0.26775 0.79458 0.3233 0.0
C290 C 0.21978 0.75113 0.34415 0.0
C291 C 0.26226 0.80743 0.33732 0.0
C292 C 0.23884 0.81763 0.36583 0.0
C293 C 0.24375 0.80527 0.3526 0.0
C294 C 0.27097 0.83441 0.34866 0.0
C295 C 0.25241 0.83237 0.36402 0.0
C296 C 0.27582 0.82205 0.33544 0.0
C297 C 0.28996 0.75032 0.27302 0.0
C298 C 0.30864 0.76652 0.24636 0.0
C299 C 0.32407 0.73956 0.25177 0.0
C300 C 0.30654 0.73778 0.26762 0.0
C301 C 0.32529 0.75392 0.24092 0.0
C302 C 0.2912 0.76476 0.26236 0.0
C303 C 0.27151 0.74791 0.28968 0.0
O304 O 0.24572 0.752 0.34719 0.0
O305 O 0.2118 0.75937 0.32856 0.0
O306 O 0.24879 0.7556 0.28866 0.0
O307 O 0.28255 0.74809 0.30743 0.0
H308 H 0.22301 0.72636 0.31843 0.0
H309 H 0.20325 0.69963 0.32221 0.0
H310 H 0.16997 0.71345 0.3783 0.0
H311 H 0.19007 0.74 0.37449 0.0
H312 H 0.22468 0.81558 0.37763 0.0
H313 H 0.23318 0.794 0.35431 0.0
H314 H 0.28151 0.84564 0.34667 0.0
H315 H 0.29015 0.82392 0.32369 0.0
H316 H 0.30931 0.77777 0.2384 0.0
H317 H 0.33637 0.72956 0.2478 0.0
H318 H 0.30585 0.72654 0.27564 0.0
H319 H 0.2787 0.77466 0.26637 0.0
H320 H 0.99108 0.42928 0.40206 0.0
N321 N 0.01478 0.45013 0.37809 0.0
H322 H 0.9544 0.4109 0.39387 0.0
H323 H 0.98394 0.45135 0.34444 0.0
H324 H 0.9472 0.43293 0.33597 0.0
H325 H 0.02949 0.4431 0.34019 0.0
H326 H 0.06435 0.42472 0.33073 0.0
H327 H 0.05212 0.43763 0.40163 0.0
H328 H 0.08681 0.41883 0.39236 0.0
H329 H 0.98804 0.46935 0.40149 0.0
H330 H 0.03944 0.47006 0.35055 0.0
H331 H 0.98674 0.49836 0.40079 0.0
H332 H 0.03955 0.49897 0.35048 0.0
H333 H 0.99243 0.58778 0.40654 0.0
H334 H 0.95662 0.60687 0.40025 0.0
H335 H 0.95125 0.59117 0.33951 0.0
H336 H 0.98679 0.57208 0.346 0.0
H337 H 0.03425 0.57999 0.34408 0.0
H338 H 0.06932 0.59998 0.3386 0.0
H339 H 0.08874 0.59891 0.40118 0.0
H340 H 0.05281 0.57939 0.40653 0.0
H341 H 0.01416 0.54922 0.41004 0.0
H342 H 0.01354 0.52019 0.40866 0.0
H343 H 0.01625 0.52278 0.34463 0.0
N344 N 0.01651 0.56977 0.38019 0.0
H345 H 0.01854 0.55188 0.34643 0.0
C346 C 0.99028 0.44157 0.37388 0.0
C347 C 0.9811 0.43037 0.3878 0.0
C348 C 0.96014 0.41991 0.38308 0.0
C349 C 0.94801 0.42037 0.3642 0.0
C350 C 0.95638 0.43215 0.35054 0.0
C351 C 0.97727 0.44271 0.35537 0.0
C352 C 0.03827 0.44184 0.3717 0.0
C353 C 0.0423 0.4382 0.35165 0.0
C354 C 0.06212 0.42752 0.34627 0.0
C355 C 0.07817 0.4201 0.3608 0.0
C356 C 0.07499 0.4244 0.38075 0.0
C357 C 0.05521 0.43515 0.3861 0.0
C358 C 0.01389 0.46733 0.37628 0.0
C359 C 0.99911 0.47575 0.39018 0.0
C360 C 0.99865 0.49239 0.38986 0.0
C361 C 0.01341 0.50117 0.37577 0.0
C362 C 0.02774 0.49271 0.36148 0.0
C363 C 0.02785 0.476 0.36162 0.0
C364 C 0.99224 0.57848 0.37685 0.0
C365 C 0.983 0.58819 0.39203 0.0
C366 C 0.96277 0.59918 0.38835 0.0
C367 C 0.95132 0.60065 0.36931 0.0
C368 C 0.95954 0.59026 0.35436 0.0
C369 C 0.97991 0.5793 0.35806 0.0
C370 C 0.0408 0.57834 0.3758 0.0
C371 C 0.04645 0.58379 0.35652 0.0
C372 C 0.06661 0.59523 0.35342 0.0
C373 C 0.08155 0.60132 0.36951 0.0
C374 C 0.0772 0.5948 0.38851 0.0
C375 C 0.05694 0.58349 0.39159 0.0
C376 C 0.01602 0.55269 0.37842 0.0
C377 C 0.01463 0.54347 0.39574 0.0
C378 C 0.01401 0.52685 0.39486 0.0
C379 C 0.01443 0.51899 0.37649 0.0
C380 C 0.01605 0.52833 0.35906 0.0
C381 C 0.01703 0.54503 0.36002 0.0
H382 H 0.9937 0.44015 0.68453 0.0
N383 N 0.01329 0.44949 0.64868 0.0
H384 H 0.95923 0.41971 0.68978 0.0
H385 H 0.97912 0.43853 0.62159 0.0
H386 H 0.94366 0.41866 0.62664 0.0
H387 H 0.03989 0.43381 0.62132 0.0
H388 H 0.07627 0.41496 0.62685 0.0
H389 H 0.04114 0.44544 0.68337 0.0
H390 H 0.07705 0.4265 0.68915 0.0
H391 H 0.01478 0.46802 0.68187 0.0
H392 H 0.01038 0.46937 0.61815 0.0
H393 H 0.01576 0.49718 0.68266 0.0
H394 H 0.00956 0.49841 0.61864 0.0
H395 H 0.99333 0.57749 0.68403 0.0
H396 H 0.95718 0.59563 0.69126 0.0
H397 H 0.93587 0.59728 0.62905 0.0
H398 H 0.97267 0.57924 0.62191 0.0
H399 H 0.03415 0.58843 0.62166 0.0
H400 H 0.07017 0.60753 0.62871 0.0
H401 H 0.07454 0.5899 0.68905 0.0
H402 H 0.03931 0.5703 0.68143 0.0
H403 H 0.99018 0.5496 0.67698 0.0
H404 H 0.99101 0.5206 0.67797 0.0
H405 H 0.03635 0.5207 0.62375 0.0
N406 N 0.00999 0.569 0.64711 0.0
H407 H 0.03387 0.54967 0.62227 0.0
C408 C 0.98915 0.44064 0.6526 0.0
C409 C 0.9825 0.43573 0.67189 0.0
C410 C 0.96265 0.42407 0.67486 0.0
C411 C 0.949 0.41727 0.65858 0.0
C412 C 0.95423 0.42331 0.63947 0.0
C413 C 0.97422 0.4348 0.63654 0.0
C414 C 0.03786 0.44105 0.65184 0.0
C415 C 0.04849 0.43257 0.63604 0.0
C416 C 0.06904 0.42169 0.63928 0.0
C417 C 0.07935 0.41908 0.65849 0.0
C418 C 0.06972 0.42831 0.67415 0.0
C419 C 0.04911 0.43917 0.67087 0.0
C420 C 0.01307 0.46658 0.64987 0.0
C421 C 0.01408 0.47461 0.66804 0.0
C422 C 0.01428 0.49133 0.66844 0.0
C423 C 0.01305 0.50031 0.65069 0.0
C424 C 0.01135 0.49205 0.63261 0.0
C425 C 0.01155 0.47543 0.63225 0.0
C426 C 0.98568 0.57694 0.65235 0.0
C427 C 0.98054 0.5814 0.67199 0.0
C428 C 0.95974 0.5918 0.67612 0.0
C429 C 0.94374 0.59804 0.66071 0.0
C430 C 0.94806 0.59288 0.64123 0.0
C431 C 0.96884 0.58244 0.63713 0.0
C432 C 0.03396 0.57812 0.65102 0.0
C433 C 0.04338 0.58848 0.63625 0.0
C434 C 0.06373 0.5995 0.64041 0.0
C435 C 0.07491 0.60051 0.65958 0.0
C436 C 0.06646 0.58945 0.67412 0.0
C437 C 0.0462 0.5783 0.66985 0.0
C438 C 0.01157 0.55189 0.64925 0.0
C439 C 1.00019 0.54345 0.66524 0.0
C440 C 0.0009 0.52675 0.66589 0.0
C441 C 0.01342 0.51814 0.65079 0.0
C442 C 0.02579 0.52676 0.63535 0.0
C443 C 0.02466 0.54337 0.63455 0.0
H444 H 0.16042 0.08621 0.53058 0.0
N445 N 0.19676 0.06886 0.51276 0.0
H446 H 0.16761 0.10499 0.55766 0.0
H447 H 0.24259 0.07191 0.53475 0.0
H448 H 0.25018 0.09078 0.56197 0.0
H449 H 0.24456 0.08136 0.50064 0.0
H450 H 0.25093 0.10038 0.47357 0.0
H451 H 0.16163 0.07583 0.48429 0.0
H452 H 0.16799 0.09425 0.4564 0.0
H453 H 0.16105 0.04794 0.52587 0.0
H454 H 0.24026 0.0515 0.50187 0.0
H455 H 0.16405 0.01895 0.52651 0.0
H456 H 0.24308 0.02237 0.50141 0.0
H457 H 0.1663 0.93669 0.53549 0.0
H458 H 0.17344 0.91748 0.56241 0.0
H459 H 0.25882 0.92327 0.55591 0.0
H460 H 0.25134 0.94209 0.52867 0.0
H461 H 0.25039 0.946 0.49303 0.0
H462 H 0.25867 0.92761 0.46577 0.0
H463 H 0.17439 0.91588 0.46322 0.0
H464 H 0.16666 0.93387 0.49088 0.0
H465 H 0.1626 0.96864 0.50431 0.0
H466 H 0.16245 0.9977 0.50432 0.0
H467 H 0.24639 0.99817 0.52019 0.0
N468 N 0.20312 0.94954 0.51206 0.0
H469 H 0.24642 0.96899 0.51912 0.0
C470 C 0.20091 0.07777 0.53068 0.0
C471 C 0.17988 0.08691 0.53771 0.0
C472 C 0.18406 0.0976 0.5532 0.0
C473 C 0.20952 0.09944 0.56194 0.0
C474 C 0.23042 0.08976 0.55539 0.0
C475 C 0.22611 0.07893 0.53994 0.0
C476 C 0.20245 0.07733 0.49461 0.0
C477 C 0.22786 0.08392 0.49088 0.0
C478 C 0.23149 0.09477 0.47526 0.0
C479 C 0.20986 0.09912 0.46291 0.0
C480 C 0.18495 0.09154 0.46588 0.0
C481 C 0.18131 0.08084 0.48163 0.0
C482 C 0.20016 0.05185 0.51359 0.0
C483 C 0.17907 0.04239 0.52065 0.0
C484 C 0.18077 0.0258 0.5208 0.0
C485 C 0.20361 0.01819 0.51363 0.0
C486 C 0.2252 0.02775 0.5071 0.0
C487 C 0.22356 0.04445 0.50719 0.0
C488 C 0.20818 0.94086 0.53016 0.0
C489 C 0.18651 0.93409 0.54027 0.0
C490 C 0.19068 0.92313 0.55567 0.0
C491 C 0.21674 0.9187 0.56127 0.0
C492 C 0.2385 0.92621 0.55179 0.0
C493 C 0.23426 0.93715 0.53634 0.0
C494 C 0.2079 0.94115 0.49398 0.0
C495 C 0.23373 0.93961 0.48639 0.0
C496 C 0.23838 0.92913 0.47075 0.0
C497 C 0.21724 0.92007 0.46248 0.0
C498 C 0.19122 0.92239 0.4695 0.0
C499 C 0.18667 0.93278 0.48512 0.0
C500 C 0.20432 0.96668 0.51196 0.0
C501 C 0.18094 0.97506 0.50772 0.0
C502 C 0.18091 0.99169 0.50793 0.0
C503 C 0.20432 1.0004 0.51261 0.0
C504 C 0.228 0.99193 0.51646 0.0
C505 C 0.22803 0.9752 0.51603 0.0
H506 H 0.5427 0.73011 0.1071 0.0
N507 N 0.51712 0.75206 0.08605 0.0
H508 H 0.57883 0.73431 0.13121 0.0
H509 H 0.54571 0.77995 0.09127 0.0
H510 H 0.58212 0.78419 0.11486 0.0
H511 H 0.49948 0.77907 0.10405 0.0
H512 H 0.46295 0.78045 0.12758 0.0
H513 H 0.48066 0.72965 0.09331 0.0
H514 H 0.44337 0.73101 0.11639 0.0
H515 H 0.52209 0.73239 0.05586 0.0
H516 H 0.51018 0.78179 0.06962 0.0
H517 H 0.52075 0.73878 0.0205 0.0
H518 H 0.51103 0.7886 0.03453 0.0
H519 H 0.53101 0.75405 0.92329 0.0
H520 H 0.56732 0.75013 0.89999 0.0
H521 H 0.59461 0.79848 0.90991 0.0
H522 H 0.5583 0.8022 0.93342 0.0
H523 H 0.49688 0.80471 0.9192 0.0
H524 H 0.45913 0.80226 0.8962 0.0
H525 H 0.44729 0.75332 0.91499 0.0
H526 H 0.48565 0.75588 0.9377 0.0
H527 H 0.54444 0.7567 0.95963 0.0
H528 H 0.54402 0.74995 0.99454 0.0
H529 H 0.48809 0.78784 0.00483 0.0
N530 N 0.51848 0.78201 0.94145 0.0
H531 H 0.4902 0.7953 0.96989 0.0
C532 C 0.54144 0.75461 0.0973 0.0
C533 C 0.55168 0.74186 0.10843 0.0
C534 C 0.57236 0.7443 0.12218 0.0
C535 C 0.58327 0.75963 0.12511 0.0
C536 C 0.57387 0.77228 0.11322 0.0
C537 C 0.55312 0.76982 0.0995 0.0
C538 C 0.49291 0.75415 0.09703 0.0
C539 C 0.48705 0.76861 0.10634 0.0
C540 C 0.46603 0.7694 0.11979 0.0
C541 C 0.45043 0.75577 0.12413 0.0
C542 C 0.45533 0.74164 0.11375 0.0
C543 C 0.47641 0.74086 0.10041 0.0
C544 C 0.51674 0.75657 0.0654 0.0
C545 C 0.51963 0.74467 0.05119 0.0
C546 C 0.51908 0.74841 0.03096 0.0
C547 C 0.51603 0.76427 0.02443 0.0
C548 C 0.51305 0.77621 0.03881 0.0
C549 C 0.51304 0.77238 0.05905 0.0
C550 C 0.54194 0.77849 0.93009 0.0
C551 C 0.54504 0.76372 0.92069 0.0
C552 C 0.56574 0.76153 0.90728 0.0
C553 C 0.58374 0.77404 0.90293 0.0
C554 C 0.58129 0.78854 0.91305 0.0
C555 C 0.56057 0.79071 0.92646 0.0
C556 C 0.49399 0.78056 0.93013 0.0
C557 C 0.4858 0.79356 0.91857 0.0
C558 C 0.46415 0.79212 0.90549 0.0
C559 C 0.45011 0.77757 0.90371 0.0
C560 C 0.45785 0.76463 0.91581 0.0
C561 C 0.47962 0.7661 0.92891 0.0
C562 C 0.51744 0.77672 0.96193 0.0
C563 C 0.5321 0.76366 0.96923 0.0
C564 C 0.53164 0.75967 0.98941 0.0
C565 C 0.5161 0.76835 1.00278 0.0
C566 C 0.50086 0.78108 0.99526 0.0
C567 C 0.50176 0.78526 0.97518 0.0
H568 H 0.77935 0.08139 0.5243 0.0
N569 N 0.82762 0.06761 0.51676 0.0
H570 H 0.76974 0.09945 0.55131 0.0
H571 H 0.85859 0.07411 0.54802 0.0
H572 H 0.84913 0.09238 0.57521 0.0
H573 H 0.86561 0.08589 0.50118 0.0
H574 H 0.8614 0.10463 0.4734 0.0
H575 H 0.78452 0.06985 0.49152 0.0
H576 H 0.78005 0.08856 0.46365 0.0
H577 H 0.77924 0.05301 0.52454 0.0
H578 H 0.86021 0.04437 0.50685 0.0
H579 H 0.76964 0.02453 0.52398 0.0
H580 H 0.85048 0.01579 0.50525 0.0
H581 H 0.7496 0.94154 0.54151 0.0
H582 H 0.75535 0.92166 0.56791 0.0
H583 H 0.8388 0.91792 0.55306 0.0
H584 H 0.8326 0.93722 0.52639 0.0
H585 H 0.83062 0.94713 0.49267 0.0
H586 H 0.83689 0.92841 0.46546 0.0
H587 H 0.75346 0.9149 0.46844 0.0
H588 H 0.74749 0.93363 0.49555 0.0
H589 H 0.75294 0.97382 0.50381 0.0
H590 H 0.76273 1.00243 0.50335 0.0
H591 H 0.84268 0.99306 0.52498 0.0
N592 N 0.78504 0.95027 0.51436 0.0
H593 H 0.83308 0.9646 0.52439 0.0
C594 C 0.81984 0.07636 0.53409 0.0
C595 C 0.79459 0.08344 0.53547 0.0
C596 C 0.78916 0.0939 0.55089 0.0
C597 C 0.80877 0.0975 0.56528 0.0
C598 C 0.83353 0.08979 0.56443 0.0
C599 C 0.83899 0.07936 0.54893 0.0
C600 C 0.82549 0.07652 0.49845 0.0
C601 C 0.8471 0.08618 0.49274 0.0
C602 C 0.84464 0.09685 0.47685 0.0
C603 C 0.82032 0.09815 0.46636 0.0
C604 C 0.79894 0.08797 0.47158 0.0
C605 C 0.80151 0.0772 0.48744 0.0
C606 C 0.8207 0.05087 0.516 0.0
C607 C 0.79499 0.04502 0.52045 0.0
C608 C 0.78944 0.02863 0.51992 0.0
C609 C 0.80929 0.01771 0.51464 0.0
C610 C 0.8348 0.02371 0.5098 0.0
C611 C 0.84039 0.04006 0.51054 0.0
C612 C 0.79055 0.94101 0.53203 0.0
C613 C 0.76924 0.93669 0.54432 0.0
C614 C 0.77261 0.92533 0.55941 0.0
C615 C 0.79751 0.91804 0.56251 0.0
C616 C 0.81924 0.92307 0.55087 0.0
C617 C 0.81579 0.93434 0.53573 0.0
C618 C 0.78851 0.9417 0.49616 0.0
C619 C 0.81361 0.94035 0.48721 0.0
C620 C 0.81719 0.92958 0.47173 0.0
C621 C 0.79571 0.92007 0.46486 0.0
C622 C 0.77036 0.92214 0.47318 0.0
C623 C 0.76688 0.93282 0.48868 0.0
C624 C 0.79202 0.96701 0.51431 0.0
C625 C 0.77259 0.978 0.50838 0.0
C626 C 0.7782 0.99436 0.5083 0.0
C627 C 0.80347 1.00019 0.51429 0.0
C628 C 0.82308 0.9891 0.52004 0.0
C629 C 0.81751 0.9727 0.51991 0.0
H630 H 0.53184 0.2356 0.1013 0.0
N631 N 0.51681 0.26395 0.08442 0.0
H632 H 0.56752 0.23196 0.12563 0.0
H633 H 0.55472 0.28492 0.09406 0.0
H634 H 0.59136 0.28129 0.11791 0.0
H635 H 0.49318 0.28894 0.10006 0.0
H636 H 0.45653 0.28874 0.12384 0.0
H637 H 0.48562 0.23797 0.0944 0.0
H638 H 0.44966 0.2376 0.1183 0.0
H639 H 0.51356 0.23375 0.06905 0.0
H640 H 0.51995 0.28351 0.05351 0.0
H641 H 0.51198 0.22679 0.03419 0.0
H642 H 0.5204 0.27666 0.01838 0.0
H643 H 0.53643 0.21123 0.91882 0.0
H644 H 0.57316 0.21505 0.89553 0.0
H645 H 0.58071 0.26425 0.9133 0.0
H646 H 0.54405 0.26024 0.93673 0.0
H647 H 0.49854 0.25997 0.92033 0.0
H648 H 0.46145 0.26194 0.89681 0.0
H649 H 0.43623 0.21406 0.91245 0.0
H650 H 0.47415 0.21204 0.93552 0.0
H651 H 0.53511 0.21716 0.9709 0.0
H652 H 0.53713 0.22462 0.00577 0.0
H653 H 0.49484 0.26799 0.99161 0.0
N654 N 0.51354 0.23313 0.94081 0.0
H655 H 0.49458 0.26089 0.95674 0.0
C656 C 0.5405 0.26062 0.09593 0.0
C657 C 0.54495 0.24557 0.10455 0.0
C658 C 0.56555 0.24348 0.11847 0.0
C659 C 0.58218 0.25638 0.12398 0.0
C660 C 0.5786 0.27117 0.11438 0.0
C661 C 0.55791 0.27325 0.10057 0.0
C662 C 0.49223 0.26356 0.09538 0.0
C663 C 0.48324 0.27777 0.10362 0.0
C664 C 0.46251 0.27759 0.11735 0.0
C665 C 0.45036 0.26312 0.12316 0.0
C666 C 0.4584 0.24897 0.11405 0.0
C667 C 0.47915 0.24917 0.10032 0.0
C668 C 0.51631 0.25925 0.06393 0.0
C669 C 0.51454 0.24322 0.05817 0.0
C670 C 0.5141 0.23924 0.03806 0.0
C671 C 0.51604 0.25113 0.02324 0.0
C672 C 0.51826 0.26715 0.02919 0.0
C673 C 0.51822 0.27111 0.04929 0.0
C674 C 0.53757 0.23538 0.92949 0.0
C675 C 0.54639 0.22274 0.91793 0.0
C676 C 0.56717 0.22499 0.90453 0.0
C677 C 0.57964 0.24 0.90243 0.0
C678 C 0.5716 0.25253 0.91467 0.0
C679 C 0.55065 0.25027 0.92805 0.0
C680 C 0.48924 0.23574 0.9296 0.0
C681 C 0.48483 0.24998 0.91896 0.0
C682 C 0.46345 0.25112 0.90553 0.0
C683 C 0.44599 0.23808 0.90252 0.0
C684 C 0.44959 0.22422 0.91409 0.0
C685 C 0.47104 0.22308 0.92743 0.0
C686 C 0.51446 0.23827 0.96119 0.0
C687 C 0.52643 0.22832 0.97538 0.0
C688 C 0.5273 0.23256 0.99537 0.0
C689 C 0.51585 0.24686 1.00174 0.0
C690 C 0.50415 0.25697 0.98737 0.0
C691 C 0.5037 0.25282 0.9673 0.0
H692 H 0.16642 0.3461 0.30085 0.0
H693 H 0.18719 0.33981 0.3627 0.0
H694 H 0.13964 0.3691 0.30908 0.0
H695 H 0.16032 0.3629 0.37096 0.0
H696 H 0.12864 0.4141 0.3754 0.0
H697 H 0.15776 0.39199 0.36708 0.0
H698 H 0.09809 0.37439 0.3258 0.0
H699 H 0.06911 0.39632 0.33411 0.0
C700 C 0.16511 0.34954 0.31624 0.0
C701 C 0.17878 0.341 0.33113 0.0
C702 C 0.14978 0.36276 0.32096 0.0
C703 C 0.14769 0.3678 0.3407 0.0
C704 C 0.16174 0.35945 0.35558 0.0
C705 C 0.17711 0.3462 0.35085 0.0
C706 C 0.12175 0.40549 0.36458 0.0
C707 C 0.0966 0.40708 0.35531 0.0
C708 C 0.13842 0.39281 0.35983 0.0
C709 C 0.13031 0.38144 0.34571 0.0
C710 C 0.10521 0.38308 0.33645 0.0
C711 C 0.08859 0.39571 0.34119 0.0
H712 H 0.14065 0.69244 0.69346 0.0
H713 H 0.21047 0.6628 0.69102 0.0
H714 H 0.11264 0.66989 0.68367 0.0
H715 H 0.18244 0.6402 0.68098 0.0
H716 H 0.11948 0.59963 0.68384 0.0
H717 H 0.14865 0.62187 0.69336 0.0
H718 H 0.10272 0.65344 0.65572 0.0
H719 H 0.07292 0.63153 0.64705 0.0
C720 C 0.15006 0.68115 0.69059 0.0
C721 C 0.1778 0.67944 0.69296 0.0
C722 C 0.134 0.6682 0.68496 0.0
C723 C 0.14527 0.65321 0.68146 0.0
C724 C 0.17304 0.6515 0.68382 0.0
C725 C 0.18911 0.66446 0.68953 0.0
C726 C 0.11553 0.61134 0.6777 0.0
C727 C 0.09383 0.61374 0.66465 0.0
C728 C 0.13244 0.62406 0.68298 0.0
C729 C 0.128 0.63948 0.67536 0.0
C730 C 0.10654 0.6418 0.66211 0.0
C731 C 0.08965 0.62913 0.65688 0.0
H732 H 0.8477 0.66747 0.308 0.0
H733 H 0.85938 0.68851 0.36574 0.0
H734 H 0.87432 0.64475 0.31831 0.0
H735 H 0.88462 0.66533 0.37643 0.0
H736 H 0.95586 0.63173 0.38035 0.0
H737 H 0.92699 0.65378 0.37135 0.0
H738 H 0.87533 0.62147 0.33877 0.0
H739 H 0.90474 0.59941 0.34752 0.0
C740 C 0.85587 0.66726 0.32292 0.0
C741 C 0.85152 0.67995 0.33596 0.0
C742 C 0.87083 0.65407 0.32894 0.0
C743 C 0.88171 0.65316 0.34822 0.0
C744 C 0.8769 0.6657 0.36139 0.0
C745 C 0.86209 0.67893 0.35532 0.0
C746 C 0.93812 0.62929 0.3715 0.0
C747 C 0.93254 0.6138 0.3647 0.0
C748 C 0.92151 0.64195 0.36634 0.0
C749 C 0.89874 0.63946 0.35433 0.0
C750 C 0.89291 0.6239 0.34778 0.0
C751 C 0.90968 0.61123 0.35284 0.0
H752 H 0.89888 0.31889 0.66685 0.0
H753 H 0.82815 0.3434 0.68552 0.0
H754 H 0.92183 0.34432 0.66228 0.0
H755 H 0.85123 0.369 0.68088 0.0
H756 H 0.9133 0.41053 0.68849 0.0
H757 H 0.88821 0.3857 0.69392 0.0
H758 H 0.92002 0.36682 0.6398 0.0
H759 H 0.94583 0.39113 0.63484 0.0
C760 C 0.88813 0.32973 0.66982 0.0
C761 C 0.86157 0.3291 0.67635 0.0
C762 C 0.9013 0.34433 0.66719 0.0
C763 C 0.88828 0.35873 0.67099 0.0
C764 C 0.86189 0.35813 0.67794 0.0
C765 C 0.84867 0.34346 0.6806 0.0
C766 C 0.91494 0.40106 0.67777 0.0
C767 C 0.93161 0.40288 0.66122 0.0
C768 C 0.90037 0.38689 0.6808 0.0
C769 C 0.90228 0.37421 0.66738 0.0
C770 C 0.91841 0.37623 0.6506 0.0
C771 C 0.93291 0.39032 0.6476 0.0
H772 H 0.18807 0.1763 0.37655 0.0
H773 H 0.26656 0.18408 0.40206 0.0
H774 H 0.18371 0.15147 0.3954 0.0
H775 H 0.262 0.15934 0.42118 0.0
H776 H 0.25294 0.10657 0.43927 0.0
H777 H 0.25837 0.12963 0.41726 0.0
H778 H 0.17866 0.14476 0.43115 0.0
H779 H 0.17338 0.1221 0.45344 0.0
C780 C 0.20451 0.17262 0.38602 0.0
C781 C 0.22764 0.18218 0.38785 0.0
C782 C 0.20191 0.15847 0.39694 0.0
C783 C 0.22247 0.15347 0.40983 0.0
C784 C 0.2459 0.1628 0.41127 0.0
C785 C 0.2484 0.17705 0.40047 0.0
C786 C 0.23658 0.11482 0.43768 0.0
C787 C 0.21269 0.11238 0.44817 0.0
C788 C 0.2397 0.12802 0.42504 0.0
C789 C 0.21893 0.139 0.42245 0.0
C790 C 0.19488 0.13639 0.43257 0.0
C791 C 0.19184 0.12331 0.44532 0.0
H792 H 0.37309 0.76212 0.79053 0.0
H793 H 0.31259 0.78681 0.82304 0.0
H794 H 0.40126 0.76123 0.82017 0.0
H795 H 0.34047 0.78564 0.85288 0.0
H796 H 0.41181 0.79919 0.89308 0.0
H797 H 0.3803 0.79768 0.86549 0.0
H798 H 0.40718 0.75016 0.85261 0.0
H799 H 0.43979 0.75204 0.87957 0.0
C800 C 0.36563 0.76712 0.80412 0.0
C801 C 0.34069 0.77462 0.80442 0.0
C802 C 0.38174 0.76656 0.82116 0.0
C803 C 0.37322 0.77341 0.83896 0.0
C804 C 0.34791 0.78052 0.83936 0.0
C805 C 0.3319 0.78117 0.82228 0.0
C806 C 0.41105 0.78842 0.88435 0.0
C807 C 0.42857 0.77581 0.88846 0.0
C808 C 0.3927 0.78747 0.86865 0.0
C809 C 0.39124 0.77382 0.85669 0.0
C810 C 0.40803 0.76095 0.86129 0.0
C811 C 0.4265 0.76194 0.87695 0.0
H812 H 0.79573 0.85128 0.36729 0.0
H813 H 0.81907 0.82573 0.42045 0.0
H814 H 0.79463 0.87604 0.38605 0.0
H815 H 0.81823 0.85043 0.43905 0.0
H816 H 0.83703 0.89909 0.46378 0.0
H817 H 0.84166 0.87606 0.44234 0.0
H818 H 0.76794 0.88814 0.41229 0.0
H819 H 0.76372 0.91147 0.43337 0.0
C820 C 0.80053 0.85091 0.38297 0.0
C821 C 0.80751 0.83648 0.39233 0.0
C822 C 0.79996 0.86511 0.39371 0.0
C823 C 0.80646 0.86523 0.41403 0.0
C824 C 0.81361 0.85083 0.42334 0.0
C825 C 0.81409 0.83664 0.41265 0.0
C826 C 0.82211 0.89705 0.45232 0.0
C827 C 0.79996 0.90711 0.45033 0.0
C828 C 0.82459 0.88372 0.44019 0.0
C829 C 0.80503 0.88016 0.42573 0.0
C830 C 0.78343 0.89058 0.42321 0.0
C831 C 0.7809 0.90387 0.4354 0.0
H832 H 0.69881 0.27956 0.8219 0.0
H833 H 0.68255 0.2322 0.79982 0.0
H834 H 0.66749 0.27488 0.84875 0.0
H835 H 0.65249 0.22719 0.8273 0.0
H836 H 0.57707 0.23017 0.86407 0.0
H837 H 0.60942 0.23472 0.83794 0.0
H838 H 0.66038 0.26047 0.87903 0.0
H839 H 0.62753 0.25613 0.90514 0.0
C840 C 0.68863 0.26813 0.82278 0.0
C841 C 0.69315 0.25631 0.80856 0.0
C842 C 0.67092 0.26536 0.83837 0.0
C843 C 0.65735 0.25066 0.84022 0.0
C844 C 0.66226 0.23874 0.82621 0.0
C845 C 0.67983 0.24154 0.81056 0.0
C846 C 0.59531 0.23667 0.86758 0.0
C847 C 0.59983 0.2427 0.88671 0.0
C848 C 0.61392 0.23926 0.8526 0.0
C849 C 0.63767 0.24789 0.85635 0.0
C850 C 0.64219 0.25394 0.87552 0.0
C851 C 0.62342 0.25143 0.89051 0.0
H852 H 0.22101 0.84935 0.65974 0.0
H853 H 0.23295 0.82298 0.6059 0.0
H854 H 0.22118 0.87424 0.64067 0.0
H855 H 0.23214 0.8477 0.58682 0.0
H856 H 0.25345 0.89489 0.55922 0.0
H857 H 0.25794 0.87167 0.58076 0.0
H858 H 0.19315 0.88833 0.61664 0.0
H859 H 0.1894 0.91198 0.59554 0.0
C860 C 0.22379 0.84887 0.64386 0.0
C861 C 0.22689 0.83416 0.63435 0.0
C862 C 0.22362 0.86312 0.6329 0.0
C863 C 0.22669 0.86299 0.6122 0.0
C864 C 0.23007 0.84828 0.60276 0.0
C865 C 0.23018 0.83407 0.61368 0.0
C866 C 0.24055 0.89383 0.57196 0.0
C867 C 0.22102 0.90533 0.57559 0.0
C868 C 0.24288 0.88037 0.58416 0.0
C869 C 0.22571 0.87802 0.60031 0.0
C870 C 0.2068 0.88979 0.6044 0.0
C871 C 0.20447 0.90328 0.59218 0.0
H872 H 0.65015 0.78124 0.24057 0.0
H873 H 0.71863 0.76458 0.20866 0.0
H874 H 0.62238 0.77771 0.21106 0.0
H875 H 0.69084 0.76114 0.17901 0.0
H876 H 0.62527 0.74095 0.13712 0.0
H877 H 0.65465 0.74477 0.16583 0.0
H878 H 0.61538 0.78905 0.17853 0.0
H879 H 0.58533 0.78489 0.15046 0.0
C880 C 0.65934 0.77697 0.22718 0.0
C881 C 0.68663 0.77325 0.22696 0.0
C882 C 0.64342 0.77497 0.21023 0.0
C883 C 0.65439 0.76923 0.19259 0.0
C884 C 0.68167 0.76541 0.1924 0.0
C885 C 0.6976 0.76738 0.20939 0.0
C886 C 0.62288 0.75148 0.14607 0.0
C887 C 0.60286 0.76259 0.14148 0.0
C888 C 0.6399 0.75375 0.16242 0.0
C889 C 0.63729 0.76717 0.17458 0.0
C890 C 0.61771 0.77846 0.16968 0.0
C891 C 0.6007 0.77619 0.15337 0.0
H892 H 0.74714 0.176 0.63464 0.0
H893 H 0.8227 0.16502 0.66265 0.0
H894 H 0.75328 0.15438 0.61132 0.0
H895 H 0.82925 0.14358 0.63903 0.0
H896 H 0.82113 0.09681 0.60502 0.0
H897 H 0.81391 0.11767 0.62938 0.0
H898 H 0.77925 0.14747 0.58356 0.0
H899 H 0.78599 0.12655 0.55946 0.0
C900 C 0.76521 0.16905 0.63568 0.0
C901 C 0.78447 0.17226 0.65045 0.0
C902 C 0.76878 0.15665 0.62228 0.0
C903 C 0.79183 0.14721 0.62318 0.0
C904 C 0.81106 0.1504 0.63804 0.0
C905 C 0.80737 0.16274 0.65155 0.0
C906 C 0.81197 0.10783 0.60021 0.0
C907 C 0.80396 0.10997 0.58034 0.0
C908 C 0.80791 0.11982 0.61414 0.0
C909 C 0.79592 0.13429 0.60849 0.0
C910 C 0.78801 0.13639 0.58858 0.0
C911 C 0.7919 0.12438 0.57472 0.0
H912 H 0.31537 0.2533 0.20465 0.0
H913 H 0.38692 0.253 0.24095 0.0
H914 H 0.3425 0.2576 0.17509 0.0
H915 H 0.414 0.25691 0.21145 0.0
H916 H 0.45325 0.27951 0.15794 0.0
H917 H 0.42372 0.27735 0.1863 0.0
H918 H 0.37498 0.2428 0.15501 0.0
H919 H 0.40414 0.24532 0.12629 0.0
C920 C 0.33687 0.25423 0.20632 0.0
C921 C 0.349 0.2528 0.22513 0.0
C922 C 0.35241 0.25655 0.18938 0.0
C923 C 0.3804 0.25761 0.19092 0.0
C924 C 0.39248 0.25632 0.20977 0.0
C925 C 0.37698 0.25391 0.22665 0.0
C926 C 0.43595 0.27168 0.15692 0.0
C927 C 0.43106 0.2626 0.1398 0.0
C928 C 0.41921 0.27029 0.1733 0.0
C929 C 0.39712 0.25981 0.17298 0.0
C930 C 0.39175 0.25105 0.15568 0.0
C931 C 0.40858 0.25239 0.13929 0.0
H932 H 0.87886 0.69112 0.68171 0.0
H933 H 0.81466 0.6597 0.70015 0.0
H934 H 0.90452 0.66819 0.6714 0.0
H935 H 0.84043 0.63673 0.6899 0.0
H936 H 0.90923 0.60016 0.69193 0.0
H937 H 0.88064 0.62246 0.70019 0.0
H938 H 0.90527 0.64709 0.64684 0.0
H939 H 0.9345 0.62508 0.63895 0.0
C940 C 0.87005 0.67934 0.68332 0.0
C941 C 0.8447 0.67728 0.6918 0.0
C942 C 0.88478 0.66618 0.67741 0.0
C943 C 0.87455 0.65061 0.67983 0.0
C944 C 0.84906 0.64854 0.68809 0.0
C945 C 0.8343 0.66171 0.69398 0.0
C946 C 0.9085 0.61032 0.68196 0.0
C947 C 0.92422 0.61083 0.6648 0.0
C948 C 0.89193 0.62305 0.68659 0.0
C949 C 0.89076 0.63661 0.67423 0.0
C950 C 0.90595 0.63692 0.65682 0.0
C951 C 0.92245 0.62419 0.65216 0.0
H952 H 0.88442 0.33003 0.32495 0.0
H953 H 0.81414 0.35321 0.34682 0.0
H954 H 0.91125 0.35361 0.33288 0.0
H955 H 0.84096 0.37698 0.35441 0.0
H956 H 0.90636 0.40816 0.38588 0.0
H957 H 0.87733 0.3855 0.37759 0.0
H958 H 0.91632 0.38146 0.32109 0.0
H959 H 0.94567 0.40385 0.32952 0.0
C960 C 0.87472 0.34014 0.33155 0.0
C961 C 0.84716 0.33973 0.33529 0.0
C962 C 0.89004 0.35372 0.33588 0.0
C963 C 0.8782 0.36721 0.34416 0.0
C964 C 0.85068 0.36676 0.34812 0.0
C965 C 0.8353 0.3532 0.34364 0.0
C966 C 0.90862 0.40247 0.37165 0.0
C967 C 0.92835 0.40779 0.35838 0.0
C968 C 0.89189 0.38956 0.36685 0.0
C969 C 0.89467 0.38161 0.34874 0.0
C970 C 0.91391 0.3872 0.33526 0.0
C971 C 0.9305 0.40017 0.33999 0.0
H972 H 0.21242 0.35544 0.68755 0.0
H973 H 0.14058 0.32655 0.69028 0.0
H974 H 0.18592 0.3784 0.67714 0.0
H975 H 0.1141 0.34953 0.68038 0.0
H976 H 0.07747 0.38901 0.64337 0.0
H977 H 0.10642 0.36669 0.65133 0.0
H978 H 0.15228 0.3965 0.69128 0.0
H979 H 0.12366 0.41906 0.68289 0.0
C980 C 0.191 0.35398 0.68583 0.0
C981 C 0.1786 0.33917 0.68976 0.0
C982 C 0.1758 0.36716 0.68006 0.0
C983 C 0.14791 0.36579 0.67793 0.0
C984 C 0.13557 0.35095 0.68168 0.0
C985 C 0.15072 0.33782 0.68756 0.0
C986 C 0.09402 0.39092 0.65358 0.0
C987 C 0.09828 0.40585 0.66246 0.0
C988 C 0.11041 0.37805 0.65833 0.0
C989 C 0.13154 0.37978 0.67204 0.0
C990 C 0.13627 0.39481 0.68056 0.0
C991 C 0.11975 0.40769 0.67589 0.0
H992 H 0.18285 0.6859 0.38415 0.0
H993 H 0.15939 0.68631 0.32236 0.0
H994 H 0.16043 0.66021 0.38859 0.0
H995 H 0.13686 0.6606 0.32682 0.0
H996 H 0.11592 0.60805 0.3388 0.0
H997 H 0.14312 0.63215 0.33393 0.0
H998 H 0.11463 0.65067 0.38928 0.0
H999 H 0.08753 0.62683 0.39408 0.0
C1000 C 0.17284 0.68053 0.37152 0.0
C1001 C 0.17272 0.68825 0.35294 0.0
C1002 C 0.16 0.66578 0.37406 0.0
C1003 C 0.14666 0.65838 0.3581 0.0
C1004 C 0.14719 0.66587 0.33937 0.0
C1005 C 0.16008 0.68063 0.33683 0.0
C1006 C 0.11552 0.61726 0.34993 0.0
C1007 C 0.09964 0.6154 0.3669 0.0
C1008 C 0.13108 0.63108 0.34713 0.0
C1009 C 0.13115 0.64333 0.36125 0.0
C1010 C 0.11551 0.64136 0.3783 0.0
C1011 C 0.09997 0.62762 0.38107 0.0
H1012 H 0.84623 0.83379 0.63026 0.0
H1013 H 0.76169 0.83832 0.64076 0.0
H1014 H 0.84591 0.85859 0.61119 0.0
H1015 H 0.7614 0.86316 0.62172 0.0
H1016 H 0.77511 0.91422 0.59938 0.0
H1017 H 0.77749 0.89092 0.62129 0.0
H1018 H 0.82821 0.8676 0.57931 0.0
H1019 H 0.82568 0.89068 0.55744 0.0
C1020 C 0.82755 0.84005 0.62846 0.0
C1021 C 0.80395 0.83399 0.63694 0.0
C1022 C 0.82738 0.85429 0.61754 0.0
C1023 C 0.8036 0.86284 0.61484 0.0
C1024 C 0.78013 0.85699 0.62372 0.0
C1025 C 0.7803 0.84273 0.63463 0.0
C1026 C 0.78676 0.90411 0.59483 0.0
C1027 C 0.80027 0.90439 0.57664 0.0
C1028 C 0.78812 0.89076 0.60739 0.0
C1029 C 0.80306 0.87739 0.60207 0.0
C1030 C 0.8169 0.87779 0.58405 0.0
C1031 C 0.81549 0.89108 0.5715 0.0
H1032 H 0.71208 0.23251 0.20706 0.0
H1033 H 0.65389 0.25764 0.24133 0.0
H1034 H 0.68456 0.23611 0.1773 0.0
H1035 H 0.62614 0.26099 0.21177 0.0
H1036 H 0.59416 0.27807 0.1529 0.0
H1037 H 0.62428 0.27511 0.18108 0.0
H1038 H 0.64335 0.22756 0.16207 0.0
H1039 H 0.61426 0.23088 0.13315 0.0
C1040 C 0.6933 0.23869 0.20825 0.0
C1041 C 0.6852 0.24484 0.22653 0.0
C1042 C 0.67749 0.24073 0.19121 0.0
C1043 C 0.65313 0.24889 0.19207 0.0
C1044 C 0.64502 0.25494 0.21042 0.0
C1045 C 0.66089 0.25299 0.22741 0.0
C1046 C 0.60518 0.2671 0.15444 0.0
C1047 C 0.60176 0.25473 0.14065 0.0
C1048 C 0.62217 0.2653 0.17083 0.0
C1049 C 0.6361 0.25104 0.17401 0.0
C1050 C 0.63311 0.23876 0.16004 0.0
C1051 C 0.61617 0.2406 0.14356 0.0
H1052 H 0.26687 0.17867 0.63617 0.0
H1053 H 0.1819 0.18451 0.62765 0.0
H1054 H 0.26434 0.1532 0.6189 0.0
H1055 H 0.17954 0.15944 0.60983 0.0
H1056 H 0.17794 0.10779 0.593 0.0
H1057 H 0.18301 0.13093 0.61441 0.0
H1058 H 0.25688 0.14349 0.58534 0.0
H1059 H 0.25187 0.1203 0.56402 0.0
C1060 C 0.24764 0.17449 0.63071 0.0
C1061 C 0.2246 0.18368 0.63323 0.0
C1062 C 0.24623 0.15996 0.62065 0.0
C1063 C 0.22174 0.15425 0.61297 0.0
C1064 C 0.19868 0.16335 0.61576 0.0
C1065 C 0.20009 0.17785 0.62576 0.0
C1066 C 0.19536 0.11543 0.59128 0.0
C1067 C 0.2144 0.11225 0.5767 0.0
C1068 C 0.19823 0.12872 0.60351 0.0
C1069 C 0.22019 0.13919 0.60145 0.0
C1070 C 0.23985 0.13561 0.58747 0.0
C1071 C 0.237 0.12229 0.57525 0.0
H1072 H 0.31511 0.76694 0.20424 0.0
H1073 H 0.37726 0.74466 0.23918 0.0
H1074 H 0.34475 0.76792 0.17566 0.0
H1075 H 0.40692 0.74578 0.21082 0.0
H1076 H 0.44128 0.73245 0.15174 0.0
H1077 H 0.41071 0.73274 0.17941 0.0
H1078 H 0.38548 0.78001 0.16238 0.0
H1079 H 0.4154 0.77944 0.13398 0.0
C1080 C 0.33522 0.76245 0.20588 0.0
C1081 C 0.34377 0.75558 0.2239 0.0
C1082 C 0.35221 0.76301 0.18952 0.0
C1083 C 0.37812 0.75676 0.19086 0.0
C1084 C 0.38688 0.75036 0.2091 0.0
C1085 C 0.36991 0.74974 0.22539 0.0
C1086 C 0.42889 0.74281 0.15362 0.0
C1087 C 0.43074 0.75589 0.14052 0.0
C1088 C 0.41164 0.74308 0.16972 0.0
C1089 C 0.39582 0.75646 0.17327 0.0
C1090 C 0.39729 0.76948 0.16003 0.0
C1091 C 0.41461 0.7692 0.14385 0.0
H1092 H 0.76761 0.17497 0.38643 0.0
H1093 H 0.85139 0.1835 0.3987 0.0
H1094 H 0.76981 0.14978 0.40468 0.0
H1095 H 0.85332 0.15873 0.41761 0.0
H1096 H 0.85537 0.10742 0.43741 0.0
H1097 H 0.85177 0.13018 0.41484 0.0
H1098 H 0.77422 0.14074 0.43864 0.0
H1099 H 0.77775 0.11792 0.46104 0.0
C1100 C 0.78654 0.17143 0.3929 0.0
C1101 C 0.80929 0.18132 0.39115 0.0
C1102 C 0.78773 0.15706 0.40355 0.0
C1103 C 0.81172 0.15221 0.41268 0.0
C1104 C 0.83457 0.16197 0.4106 0.0
C1105 C 0.83338 0.17631 0.39997 0.0
C1106 C 0.83749 0.11456 0.43772 0.0
C1107 C 0.81691 0.11089 0.45109 0.0
C1108 C 0.83544 0.12763 0.42483 0.0
C1109 C 0.81281 0.13741 0.42503 0.0
C1110 C 0.7918 0.13339 0.4379 0.0
C1111 C 0.79382 0.12028 0.45075 0.0
H1112 H 0.35681 0.26354 0.79611 0.0
H1113 H 0.32623 0.21673 0.81135 0.0
H1114 H 0.38407 0.26358 0.82634 0.0
H1115 H 0.35346 0.21676 0.84148 0.0
H1116 H 0.43218 0.21416 0.87703 0.0
H1117 H 0.40094 0.21504 0.84927 0.0
H1118 H 0.38267 0.2639 0.86286 0.0
H1119 H 0.41393 0.263 0.89092 0.0
C1120 C 0.3556 0.25336 0.80604 0.0
C1121 C 0.33954 0.24007 0.8012 0.0
C1122 C 0.37122 0.25338 0.82338 0.0
C1123 C 0.37111 0.24011 0.83625 0.0
C1124 C 0.35441 0.22704 0.8317 0.0
C1125 C 0.33882 0.22702 0.81441 0.0
C1126 C 0.42114 0.22501 0.87441 0.0
C1127 C 0.42552 0.23848 0.88633 0.0
C1128 C 0.40323 0.22552 0.85842 0.0
C1129 C 0.38926 0.23953 0.85385 0.0
C1130 C 0.39336 0.25298 0.86586 0.0
C1131 C 0.41126 0.25245 0.88194 0.0
H1132 H 0.20433 0.84179 0.37868 0.0
H1133 H 0.28877 0.85286 0.38114 0.0
H1134 H 0.19584 0.86326 0.40181 0.0
H1135 H 0.28028 0.87435 0.4043 0.0
H1136 H 0.25138 0.9214 0.43078 0.0
H1137 H 0.25986 0.90054 0.40664 0.0
H1138 H 0.20341 0.86952 0.4364 0.0
H1139 H 0.195 0.89024 0.46043 0.0
C1140 C 0.22111 0.84872 0.38427 0.0
C1141 C 0.24723 0.84556 0.37807 0.0
C1142 C 0.21625 0.86105 0.39753 0.0
C1143 C 0.23738 0.87053 0.40496 0.0
C1144 C 0.26349 0.86744 0.39866 0.0
C1145 C 0.26836 0.85511 0.38538 0.0
C1146 C 0.24087 0.9101 0.4322 0.0
C1147 C 0.22235 0.90757 0.44747 0.0
C1148 C 0.24574 0.89814 0.41837 0.0
C1149 C 0.23222 0.88337 0.41951 0.0
C1150 C 0.21378 0.88085 0.43482 0.0
C1151 C 0.20894 0.89277 0.44861 0.0
H1152 H 0.70031 0.79791 0.81393 0.0
H1153 H 0.67619 0.75008 0.79795 0.0
H1154 H 0.6722 0.79631 0.84311 0.0
H1155 H 0.64891 0.74823 0.82765 0.0
H1156 H 0.57657 0.76016 0.86674 0.0
H1157 H 0.60775 0.75942 0.83936 0.0
H1158 H 0.66726 0.78368 0.87522 0.0
H1159 H 0.6359 0.78449 0.90267 0.0
C1160 C 0.6891 0.78702 0.81669 0.0
C1161 C 0.69035 0.77417 0.80348 0.0
C1162 C 0.67324 0.78602 0.83359 0.0
C1163 C 0.65825 0.77214 0.83775 0.0
C1164 C 0.65996 0.75916 0.82478 0.0
C1165 C 0.67584 0.76016 0.80786 0.0
C1166 C 0.59647 0.76507 0.86894 0.0
C1167 C 0.60371 0.77241 0.88691 0.0
C1168 C 0.61438 0.76465 0.85321 0.0
C1169 C 0.64001 0.77154 0.85504 0.0
C1170 C 0.64752 0.77849 0.8732 0.0
C1171 C 0.62957 0.77894 0.88894 0.0
loop_
_geom_bond_atom_site_label_1
_geom_bond_atom_site_label_2
_geom_bond_distance
_geom_bond_site_symmetry_2
_ccdc_geom_bond_type
C0 C1 1.264 . S
C0 C5 1.479 . S
C0 C10 1.465 . S
C1 C0 1.264 . S
C1 C3 1.339 . S
C1 H28 0.931 . S
C2 C3 1.395 . S
C2 C4 1.320 . S
C3 C1 1.339 . S
C3 C2 1.395 . S
C3 H29 0.929 . S
C4 C2 1.320 . S
C4 C5 1.405 . S
C4 H30 0.930 . S
C5 C0 1.479 . S
C5 C4 1.405 . S
C5 H31 0.931 . S
U6 O7 2.454 . S
U6 O8 2.458 . S
U6 C9 2.984 . S
U6 C10 2.847 . S
U6 C23 2.882 . S
U6 O24 2.441 . S
U6 O25 2.420 . S
U6 O26 2.455 . S
U6 O27 2.449 . S
O7 U6 2.454 . S
O7 C9 1.353 . S
O8 U6 2.458 . S
O8 C9 1.286 . S
C9 U6 2.984 . S
C9 O7 1.353 . S
C9 O8 1.286 . S
C9 C11 1.363 . S
C10 C0 1.465 . S
C10 U6 2.847 . S
C10 O24 1.249 . S
C10 O25 1.202 . S
C11 C9 1.363 . S
C11 C13 1.408 . S
C11 C16 1.342 . S
C12 C13 1.310 . S
C12 C15 1.461 . S
C12 H32 0.932 . S
C13 C11 1.408 . S
C13 C12 1.310 . S
C13 H33 0.930 . S
C14 C15 1.474 . S
C14 C16 1.285 . S
C14 H34 0.929 . S
C15 C12 1.461 . S
C15 C14 1.474 . S
C16 C11 1.342 . S
C16 C14 1.285 . S
C16 H35 0.930 . S
C17 C20 1.424 . S
C17 C22 1.245 . S
C17 C23 1.428 . S
C18 C21 1.260 . S
C18 C22 1.477 . S
C18 H36 0.932 . S
C19 C20 1.384 . S
C19 C21 1.479 . S
C19 H37 0.929 . S
C20 C17 1.424 . S
C20 C19 1.384 . S
C20 H38 0.928 . S
C21 C18 1.260 . S
C21 C19 1.479 . S
C22 C17 1.245 . S
C22 C18 1.477 . S
C22 H39 0.932 . S
C23 U6 2.882 . S
C23 C17 1.428 . S
C23 O26 1.301 . S
C23 O27 1.282 . S
O24 U6 2.441 . S
O24 C10 1.249 . S
O25 U6 2.420 . S
O25 C10 1.202 . S
O26 U6 2.455 . S
O26 C23 1.301 . S
O27 U6 2.449 . S
O27 C23 1.282 . S
H28 C1 0.931 . S
H29 C3 0.929 . S
H30 C4 0.930 . S
H31 C5 0.931 . S
H32 C12 0.932 . S
H33 C13 0.930 . S
H34 C14 0.929 . S
H35 C16 0.930 . S
H36 C18 0.932 . S
H37 C19 0.929 . S
H38 C20 0.928 . S
H39 C22 0.932 . S
C40 C41 1.264 . S
C40 C45 1.479 . S
C40 C50 1.465 . S
C41 C40 1.264 . S
C41 C43 1.339 . S
C41 H68 0.931 . S
C42 C43 1.395 . S
C42 C44 1.320 . S
C43 C41 1.339 . S
C43 C42 1.395 . S
C43 H69 0.929 . S
C44 C42 1.320 . S
C44 C45 1.405 . S
C44 H70 0.930 . S
C45 C40 1.479 . S
C45 C44 1.405 . S
C45 H71 0.931 . S
U46 O47 2.454 . S
U46 O48 2.458 . S
U46 C49 2.984 . S
U46 C50 2.847 . S
U46 C63 2.882 . S
U46 O64 2.441 . S
U46 O65 2.420 . S
U46 O66 2.455 . S
U46 O67 2.449 . S
O47 U46 2.454 . S
O47 C49 1.353 . S
O48 U46 2.458 . S
O48 C49 1.286 . S
C49 U46 2.984 . S
C49 O47 1.353 . S
C49 O48 1.286 . S
C49 C51 1.363 . S
C50 C40 1.465 . S
C50 U46 2.847 . S
C50 O64 1.249 . S
C50 O65 1.202 . S
C51 C49 1.363 . S
C51 C53 1.408 . S
C51 C56 1.342 . S
C52 C53 1.310 . S
C52 C55 1.461 . S
C52 H72 0.932 . S
C53 C51 1.408 . S
C53 C52 1.310 . S
C53 H73 0.930 . S
C54 C55 1.474 . S
C54 C56 1.285 . S
C54 H74 0.929 . S
C55 C52 1.461 . S
C55 C54 1.474 . S
C56 C51 1.342 . S
C56 C54 1.285 . S
C56 H75 0.930 . S
C57 C60 1.424 . S
C57 C62 1.245 . S
C57 C63 1.428 . S
C58 C61 1.260 . S
C58 C62 1.477 . S
C58 H76 0.932 . S
C59 C60 1.384 . S
C59 C61 1.479 . S
C59 H77 0.929 . S
C60 C57 1.424 . S
C60 C59 1.384 . S
C60 H78 0.928 . S
C61 C58 1.260 . S
C61 C59 1.479 . S
C62 C57 1.245 . S
C62 C58 1.477 . S
C62 H79 0.932 . S
C63 U46 2.882 . S
C63 C57 1.428 . S
C63 O66 1.301 . S
C63 O67 1.282 . S
O64 U46 2.441 . S
O64 C50 1.249 . S
O65 U46 2.420 . S
O65 C50 1.202 . S
O66 U46 2.455 . S
O66 C63 1.301 . S
O67 U46 2.449 . S
O67 C63 1.282 . S
H68 C41 0.931 . S
H69 C43 0.929 . S
H70 C44 0.930 . S
H71 C45 0.931 . S
H72 C52 0.932 . S
H73 C53 0.930 . S
H74 C54 0.929 . S
H75 C56 0.930 . S
H76 C58 0.932 . S
H77 C59 0.929 . S
H78 C60 0.928 . S
H79 C62 0.932 . S
C80 C81 1.264 . S
C80 C85 1.479 . S
C80 C90 1.465 . S
C81 C80 1.264 . S
C81 C83 1.339 . S
C81 H108 0.931 . S
C82 C83 1.395 . S
C82 C84 1.320 . S
C83 C81 1.339 . S
C83 C82 1.395 . S
C83 H109 0.929 . S
C84 C82 1.320 . S
C84 C85 1.405 . S
C84 H110 0.930 . S
C85 C80 1.479 . S
C85 C84 1.405 . S
C85 H111 0.931 . S
U86 O87 2.454 . S
U86 O88 2.458 . S
U86 C89 2.984 . S
U86 C90 2.847 . S
U86 C103 2.882 . S
U86 O104 2.441 . S
U86 O105 2.420 . S
U86 O106 2.455 . S
U86 O107 2.449 . S
O87 U86 2.454 . S
O87 C89 1.353 . S
O88 U86 2.458 . S
O88 C89 1.286 . S
C89 U86 2.984 . S
C89 O87 1.353 . S
C89 O88 1.286 . S
C89 C91 1.363 . S
C90 C80 1.465 . S
C90 U86 2.847 . S
C90 O104 1.249 . S
C90 O105 1.202 . S
C91 C89 1.363 . S
C91 C93 1.408 . S
C91 C96 1.342 . S
C92 C93 1.310 . S
C92 C95 1.461 . S
C92 H112 0.932 . S
C93 C91 1.408 . S
C93 C92 1.310 . S
C93 H113 0.930 . S
C94 C95 1.474 . S
C94 C96 1.285 . S
C94 H114 0.929 . S
C95 C92 1.461 . S
C95 C94 1.474 . S
C96 C91 1.342 . S
C96 C94 1.285 . S
C96 H115 0.930 . S
C97 C100 1.424 . S
C97 C102 1.245 . S
C97 C103 1.428 . S
C98 C101 1.260 . S
C98 C102 1.477 . S
C98 H116 0.932 . S
C99 C100 1.384 . S
C99 C101 1.479 . S
C99 H117 0.929 . S
C100 C97 1.424 . S
C100 C99 1.384 . S
C100 H118 0.928 . S
C101 C98 1.260 . S
C101 C99 1.479 . S
C102 C97 1.245 . S
C102 C98 1.477 . S
C102 H119 0.932 . S
C103 U86 2.882 . S
C103 C97 1.428 . S
C103 O106 1.301 . S
C103 O107 1.282 . S
O104 U86 2.441 . S
O104 C90 1.249 . S
O105 U86 2.420 . S
O105 C90 1.202 . S
O106 U86 2.455 . S
O106 C103 1.301 . S
O107 U86 2.449 . S
O107 C103 1.282 . S
H108 C81 0.931 . S
H109 C83 0.929 . S
H110 C84 0.930 . S
H111 C85 0.931 . S
H112 C92 0.932 . S
H113 C93 0.930 . S
H114 C94 0.929 . S
H115 C96 0.930 . S
H116 C98 0.932 . S
H117 C99 0.929 . S
H118 C100 0.928 . S
H119 C102 0.932 . S
C120 C121 1.264 . S
C120 C125 1.479 . S
C120 C130 1.465 . S
C121 C120 1.264 . S
C121 C123 1.339 . S
C121 H148 0.931 . S
C122 C123 1.395 . S
C122 C124 1.320 . S
C123 C121 1.339 . S
C123 C122 1.395 . S
C123 H149 0.929 . S
C124 C122 1.320 . S
C124 C125 1.405 . S
C124 H150 0.930 . S
C125 C120 1.479 . S
C125 C124 1.405 . S
C125 H151 0.931 . S
U126 O127 2.454 . S
U126 O128 2.458 . S
U126 C129 2.984 . S
U126 C130 2.847 . S
U126 C143 2.882 . S
U126 O144 2.441 . S
U126 O145 2.420 . S
U126 O146 2.455 . S
U126 O147 2.449 . S
O127 U126 2.454 . S
O127 C129 1.353 . S
O128 U126 2.458 . S
O128 C129 1.286 . S
C129 U126 2.984 . S
C129 O127 1.353 . S
C129 O128 1.286 . S
C129 C131 1.363 . S
C130 C120 1.465 . S
C130 U126 2.847 . S
C130 O144 1.249 . S
C130 O145 1.202 . S
C131 C129 1.363 . S
C131 C133 1.408 . S
C131 C136 1.342 . S
C132 C133 1.310 . S
C132 C135 1.461 . S
C132 H152 0.932 . S
C133 C131 1.408 . S
C133 C132 1.310 . S
C133 H153 0.930 . S
C134 C135 1.474 . S
C134 C136 1.285 . S
C134 H154 0.929 . S
C135 C132 1.461 . S
C135 C134 1.474 . S
C136 C131 1.342 . S
C136 C134 1.285 . S
C136 H155 0.930 . S
C137 C140 1.424 . S
C137 C142 1.245 . S
C137 C143 1.428 . S
C138 C141 1.260 . S
C138 C142 1.477 . S
C138 H156 0.932 . S
C139 C140 1.384 . S
C139 C141 1.479 . S
C139 H157 0.929 . S
C140 C137 1.424 . S
C140 C139 1.384 . S
C140 H158 0.928 . S
C141 C138 1.260 . S
C141 C139 1.479 . S
C142 C137 1.245 . S
C142 C138 1.477 . S
C142 H159 0.932 . S
C143 U126 2.882 . S
C143 C137 1.428 . S
C143 O146 1.301 . S
C143 O147 1.282 . S
O144 U126 2.441 . S
O144 C130 1.249 . S
O145 U126 2.420 . S
O145 C130 1.202 . S
O146 U126 2.455 . S
O146 C143 1.301 . S
O147 U126 2.449 . S
O147 C143 1.282 . S
H148 C121 0.931 . S
H149 C123 0.929 . S
H150 C124 0.930 . S
H151 C125 0.931 . S
H152 C132 0.932 . S
H153 C133 0.930 . S
H154 C134 0.929 . S
H155 C136 0.930 . S
H156 C138 0.932 . S
H157 C139 0.929 . S
H158 C140 0.928 . S
H159 C142 0.932 . S
C160 C161 1.264 . S
C160 C165 1.479 . S
C160 C170 1.465 . S
C161 C160 1.264 . S
C161 C163 1.339 . S
C161 H188 0.931 . S
C162 C163 1.395 . S
C162 C164 1.320 . S
C163 C161 1.339 . S
C163 C162 1.395 . S
C163 H189 0.929 . S
C164 C162 1.320 . S
C164 C165 1.405 . S
C164 H190 0.930 . S
C165 C160 1.479 . S
C165 C164 1.405 . S
C165 H191 0.931 . S
U166 O167 2.454 . S
U166 O168 2.458 . S
U166 C169 2.984 . S
U166 C170 2.847 . S
U166 C183 2.882 . S
U166 O184 2.441 . S
U166 O185 2.420 . S
U166 O186 2.455 . S
U166 O187 2.449 . S
O167 U166 2.454 . S
O167 C169 1.353 . S
O168 U166 2.458 . S
O168 C169 1.286 . S
C169 U166 2.984 . S
C169 O167 1.353 . S
C169 O168 1.286 . S
C169 C171 1.363 . S
C170 C160 1.465 . S
C170 U166 2.847 . S
C170 O184 1.249 . S
C170 O185 1.202 . S
C171 C169 1.363 . S
C171 C173 1.408 . S
C171 C176 1.342 . S
C172 C173 1.310 . S
C172 C175 1.461 . S
C172 H192 0.932 . S
C173 C171 1.408 . S
C173 C172 1.310 . S
C173 H193 0.930 . S
C174 C175 1.474 . S
C174 C176 1.285 . S
C174 H194 0.929 . S
C175 C172 1.461 . S
C175 C174 1.474 . S
C176 C171 1.342 . S
C176 C174 1.285 . S
C176 H195 0.930 . S
C177 C180 1.424 . S
C177 C182 1.245 . S
C177 C183 1.428 . S
C178 C181 1.260 . S
C178 C182 1.477 . S
C178 H196 0.932 . S
C179 C180 1.384 . S
C179 C181 1.479 . S
C179 H197 0.929 . S
C180 C177 1.424 . S
C180 C179 1.384 . S
C180 H198 0.928 . S
C181 C178 1.260 . S
C181 C179 1.479 . S
C182 C177 1.245 . S
C182 C178 1.477 . S
C182 H199 0.932 . S
C183 U166 2.882 . S
C183 C177 1.428 . S
C183 O186 1.301 . S
C183 O187 1.282 . S
O184 U166 2.441 . S
O184 C170 1.249 . S
O185 U166 2.420 . S
O185 C170 1.202 . S
O186 U166 2.455 . S
O186 C183 1.301 . S
O187 U166 2.449 . S
O187 C183 1.282 . S
H188 C161 0.931 . S
H189 C163 0.929 . S
H190 C164 0.930 . S
H191 C165 0.931 . S
H192 C172 0.932 . S
H193 C173 0.930 . S
H194 C174 0.929 . S
H195 C176 0.930 . S
H196 C178 0.932 . S
H197 C179 0.929 . S
H198 C180 0.928 . S
H199 C182 0.932 . S
C200 C201 1.264 . S
C200 C205 1.479 . S
C200 C210 1.465 . S
C201 C200 1.264 . S
C201 C203 1.339 . S
C201 H228 0.931 . S
C202 C203 1.395 . S
C202 C204 1.320 . S
C203 C201 1.339 . S
C203 C202 1.395 . S
C203 H229 0.929 . S
C204 C202 1.320 . S
C204 C205 1.405 . S
C204 H230 0.930 . S
C205 C200 1.479 . S
C205 C204 1.405 . S
C205 H231 0.931 . S
U206 O207 2.454 . S
U206 O208 2.458 . S
U206 C209 2.984 . S
U206 C210 2.847 . S
U206 C223 2.882 . S
U206 O224 2.441 . S
U206 O225 2.420 . S
U206 O226 2.455 . S
U206 O227 2.449 . S
O207 U206 2.454 . S
O207 C209 1.353 . S
O208 U206 2.458 . S
O208 C209 1.286 . S
C209 U206 2.984 . S
C209 O207 1.353 . S
C209 O208 1.286 . S
C209 C211 1.363 . S
C210 C200 1.465 . S
C210 U206 2.847 . S
C210 O224 1.249 . S
C210 O225 1.202 . S
C211 C209 1.363 . S
C211 C213 1.408 . S
C211 C216 1.342 . S
C212 C213 1.310 . S
C212 C215 1.461 . S
C212 H232 0.932 . S
C213 C211 1.408 . S
C213 C212 1.310 . S
C213 H233 0.930 . S
C214 C215 1.474 . S
C214 C216 1.285 . S
C214 H234 0.929 . S
C215 C212 1.461 . S
C215 C214 1.474 . S
C216 C211 1.342 . S
C216 C214 1.285 . S
C216 H235 0.930 . S
C217 C220 1.424 . S
C217 C222 1.245 . S
C217 C223 1.428 . S
C218 C221 1.260 . S
C218 C222 1.477 . S
C218 H236 0.932 . S
C219 C220 1.384 . S
C219 C221 1.479 . S
C219 H237 0.929 . S
C220 C217 1.424 . S
C220 C219 1.384 . S
C220 H238 0.928 . S
C221 C218 1.260 . S
C221 C219 1.479 . S
C222 C217 1.245 . S
C222 C218 1.477 . S
C222 H239 0.932 . S
C223 U206 2.882 . S
C223 C217 1.428 . S
C223 O226 1.301 . S
C223 O227 1.282 . S
O224 U206 2.441 . S
O224 C210 1.249 . S
O225 U206 2.420 . S
O225 C210 1.202 . S
O226 U206 2.455 . S
O226 C223 1.301 . S
O227 U206 2.449 . S
O227 C223 1.282 . S
H228 C201 0.931 . S
H229 C203 0.929 . S
H230 C204 0.930 . S
H231 C205 0.931 . S
H232 C212 0.932 . S
H233 C213 0.930 . S
H234 C214 0.929 . S
H235 C216 0.930 . S
H236 C218 0.932 . S
H237 C219 0.929 . S
H238 C220 0.928 . S
H239 C222 0.932 . S
C240 C241 1.264 . S
C240 C245 1.479 . S
C240 C250 1.465 . S
C241 C240 1.264 . S
C241 C243 1.339 . S
C241 H268 0.931 . S
C242 C243 1.395 . S
C242 C244 1.320 . S
C243 C241 1.339 . S
C243 C242 1.395 . S
C243 H269 0.929 . S
C244 C242 1.320 . S
C244 C245 1.405 . S
C244 H270 0.930 . S
C245 C240 1.479 . S
C245 C244 1.405 . S
C245 H271 0.931 . S
U246 O247 2.454 . S
U246 O248 2.458 . S
U246 C249 2.984 . S
U246 C250 2.847 . S
U246 C263 2.882 . S
U246 O264 2.441 . S
U246 O265 2.420 . S
U246 O266 2.455 . S
U246 O267 2.449 . S
O247 U246 2.454 . S
O247 C249 1.353 . S
O248 U246 2.458 . S
O248 C249 1.286 . S
C249 U246 2.984 . S
C249 O247 1.353 . S
C249 O248 1.286 . S
C249 C251 1.363 . S
C250 C240 1.465 . S
C250 U246 2.847 . S
C250 O264 1.249 . S
C250 O265 1.202 . S
C251 C249 1.363 . S
C251 C253 1.408 . S
C251 C256 1.342 . S
C252 C253 1.310 . S
C252 C255 1.461 . S
C252 H272 0.932 . S
C253 C251 1.408 . S
C253 C252 1.310 . S
C253 H273 0.930 . S
C254 C255 1.474 . S
C254 C256 1.285 . S
C254 H274 0.929 . S
C255 C252 1.461 . S
C255 C254 1.474 . S
C256 C251 1.342 . S
C256 C254 1.285 . S
C256 H275 0.930 . S
C257 C260 1.424 . S
C257 C262 1.245 . S
C257 C263 1.428 . S
C258 C261 1.260 . S
C258 C262 1.477 . S
C258 H276 0.932 . S
C259 C260 1.384 . S
C259 C261 1.479 . S
C259 H277 0.929 . S
C260 C257 1.424 . S
C260 C259 1.384 . S
C260 H278 0.928 . S
C261 C258 1.260 . S
C261 C259 1.479 . S
C262 C257 1.245 . S
C262 C258 1.477 . S
C262 H279 0.932 . S
C263 U246 2.882 . S
C263 C257 1.428 . S
C263 O266 1.301 . S
C263 O267 1.282 . S
O264 U246 2.441 . S
O264 C250 1.249 . S
O265 U246 2.420 . S
O265 C250 1.202 . S
O266 U246 2.455 . S
O266 C263 1.301 . S
O267 U246 2.449 . S
O267 C263 1.282 . S
H268 C241 0.931 . S
H269 C243 0.929 . S
H270 C244 0.930 . S
H271 C245 0.931 . S
H272 C252 0.932 . S
H273 C253 0.930 . S
H274 C254 0.929 . S
H275 C256 0.930 . S
H276 C258 0.932 . S
H277 C259 0.929 . S
H278 C260 0.928 . S
H279 C262 0.932 . S
C280 C281 1.264 . S
C280 C285 1.479 . S
C280 C290 1.465 . S
C281 C280 1.264 . S
C281 C283 1.339 . S
C281 H308 0.931 . S
C282 C283 1.395 . S
C282 C284 1.320 . S
C283 C281 1.339 . S
C283 C282 1.395 . S
C283 H309 0.929 . S
C284 C282 1.320 . S
C284 C285 1.405 . S
C284 H310 0.930 . S
C285 C280 1.479 . S
C285 C284 1.405 . S
C285 H311 0.931 . S
U286 O287 2.454 . S
U286 O288 2.458 . S
U286 C289 2.984 . S
U286 C290 2.847 . S
U286 C303 2.882 . S
U286 O304 2.441 . S
U286 O305 2.420 . S
U286 O306 2.455 . S
U286 O307 2.449 . S
O287 U286 2.454 . S
O287 C289 1.353 . S
O288 U286 2.458 . S
O288 C289 1.286 . S
C289 U286 2.984 . S
C289 O287 1.353 . S
C289 O288 1.286 . S
C289 C291 1.363 . S
C290 C280 1.465 . S
C290 U286 2.847 . S
C290 O304 1.249 . S
C290 O305 1.202 . S
C291 C289 1.363 . S
C291 C293 1.408 . S
C291 C296 1.342 . S
C292 C293 1.310 . S
C292 C295 1.461 . S
C292 H312 0.932 . S
C293 C291 1.408 . S
C293 C292 1.310 . S
C293 H313 0.930 . S
C294 C295 1.474 . S
C294 C296 1.285 . S
C294 H314 0.929 . S
C295 C292 1.461 . S
C295 C294 1.474 . S
C296 C291 1.342 . S
C296 C294 1.285 . S
C296 H315 0.930 . S
C297 C300 1.424 . S
C297 C302 1.245 . S
C297 C303 1.428 . S
C298 C301 1.260 . S
C298 C302 1.477 . S
C298 H316 0.932 . S
C299 C300 1.384 . S
C299 C301 1.479 . S
C299 H317 0.929 . S
C300 C297 1.424 . S
C300 C299 1.384 . S
C300 H318 0.928 . S
C301 C298 1.260 . S
C301 C299 1.479 . S
C302 C297 1.245 . S
C302 C298 1.477 . S
C302 H319 0.932 . S
C303 U286 2.882 . S
C303 C297 1.428 . S
C303 O306 1.301 . S
C303 O307 1.282 . S
O304 U286 2.441 . S
O304 C290 1.249 . S
O305 U286 2.420 . S
O305 C290 1.202 . S
O306 U286 2.455 . S
O306 C303 1.301 . S
O307 U286 2.449 . S
O307 C303 1.282 . S
H308 C281 0.931 . S
H309 C283 0.929 . S
H310 C284 0.930 . S
H311 C285 0.931 . S
H312 C292 0.932 . S
H313 C293 0.930 . S
H314 C294 0.929 . S
H315 C296 0.930 . S
H316 C298 0.932 . S
H317 C299 0.929 . S
H318 C300 0.928 . S
H319 C302 0.932 . S
H320 C347 0.929 . S
N321 C346 1.433 1_455 S
N321 C352 1.435 . S
N321 C358 1.423 . S
H322 C348 0.930 . S
H323 C351 0.931 . S
H324 C350 0.929 . S
H325 C353 0.930 . S
H326 C354 0.932 . S
H327 C357 0.929 . S
H328 C356 0.931 . S
H329 C359 0.926 1_655 S
H330 C363 0.932 . S
H331 C360 0.931 1_655 S
H332 C362 0.929 . S
H333 C365 0.929 . S
H334 C366 0.930 . S
H335 C368 0.929 . S
H336 C369 0.931 . S
H337 C371 0.930 . S
H338 C372 0.932 . S
H339 C374 0.931 . S
H340 C375 0.929 . S
H341 C377 0.924 1_655 S
H342 C378 0.931 1_655 S
H343 C380 0.929 . S
N344 C364 1.433 1_455 S
N344 C370 1.435 . S
N344 C376 1.423 . S
H345 C381 0.932 . S
C346 N321 1.433 1_655 S
C346 C347 1.363 . S
C346 C351 1.370 . S
C347 H320 0.929 . S
C347 C346 1.363 . S
C347 C348 1.385 . S
C348 H322 0.930 . S
C348 C347 1.385 . S
C348 C349 1.357 . S
C349 C348 1.357 . S
C349 C350 1.406 . S
C350 H324 0.929 . S
C350 C349 1.406 . S
C350 C351 1.391 . S
C351 H323 0.931 . S
C351 C346 1.370 . S
C351 C350 1.391 . S
C352 N321 1.435 . S
C352 C353 1.358 . S
C352 C357 1.371 . S
C353 H325 0.930 . S
C353 C352 1.358 . S
C353 C354 1.405 . S
C354 H326 0.932 . S
C354 C353 1.405 . S
C354 C355 1.383 . S
C355 C354 1.383 . S
C355 C356 1.393 . S
C356 H328 0.931 . S
C356 C355 1.393 . S
C356 C357 1.382 . S
C357 H327 0.929 . S
C357 C352 1.371 . S
C357 C356 1.382 . S
C358 N321 1.423 . S
C358 C359 1.365 . S
C358 C363 1.388 . S
C359 H329 0.926 1_455 S
C359 C358 1.365 . S
C359 C360 1.377 . S
C360 H331 0.931 1_455 S
C360 C359 1.377 . S
C360 C361 1.396 . S
C361 C360 1.396 . S
C361 C362 1.348 . S
C361 C379 1.472 . S
C362 H332 0.929 . S
C362 C361 1.348 . S
C362 C363 1.443 . S
C363 H330 0.932 . S
C363 C358 1.388 . S
C363 C362 1.443 . S
C364 N344 1.433 1_655 S
C364 C365 1.363 . S
C364 C369 1.370 . S
C365 H333 0.929 . S
C365 C364 1.363 . S
C365 C366 1.385 . S
C366 H334 0.930 . S
C366 C365 1.385 . S
C366 C367 1.357 . S
C367 C366 1.357 . S
C367 C368 1.406 . S
C368 H335 0.929 . S
C368 C367 1.406 . S
C368 C369 1.391 . S
C369 H336 0.931 . S
C369 C364 1.370 . S
C369 C368 1.391 . S
C370 N344 1.435 . S
C370 C371 1.358 . S
C370 C375 1.371 . S
C371 H337 0.930 . S
C371 C370 1.358 . S
C371 C372 1.405 . S
C372 H338 0.932 . S
C372 C371 1.405 . S
C372 C373 1.383 . S
C373 C372 1.383 . S
C373 C374 1.393 . S
C374 H339 0.931 . S
C374 C373 1.393 . S
C374 C375 1.382 . S
C375 H340 0.929 . S
C375 C370 1.371 . S
C375 C374 1.382 . S
C376 N344 1.423 . S
C376 C377 1.366 . S
C376 C381 1.388 . S
C377 H341 0.924 1_455 S
C377 C376 1.366 . S
C377 C378 1.377 . S
C378 H342 0.931 1_455 S
C378 C377 1.377 . S
C378 C379 1.396 . S
C379 C361 1.472 . S
C379 C378 1.396 . S
C379 C380 1.348 . S
C380 H343 0.929 . S
C380 C379 1.348 . S
C380 C381 1.443 . S
C381 H345 0.932 . S
C381 C376 1.388 . S
C381 C380 1.443 . S
H382 C409 0.929 . S
N383 C408 1.433 1_455 S
N383 C414 1.435 . S
N383 C420 1.423 . S
H384 C410 0.930 . S
H385 C413 0.931 . S
H386 C412 0.929 . S
H387 C415 0.930 . S
H388 C416 0.932 . S
H389 C419 0.929 . S
H390 C418 0.931 . S
H391 C421 0.939 . S
H392 C425 0.932 . S
H393 C422 0.931 1_655 S
H394 C424 0.929 . S
H395 C427 0.929 . S
H396 C428 0.930 . S
H397 C430 0.929 . S
H398 C431 0.931 . S
H399 C433 0.930 . S
H400 C434 0.932 . S
H401 C436 0.931 . S
H402 C437 0.929 . S
H403 C439 0.936 . S
H404 C440 0.931 1_655 S
H405 C442 0.929 . S
N406 C426 1.433 1_455 S
N406 C432 1.435 . S
N406 C438 1.423 . S
H407 C443 0.932 . S
C408 N383 1.433 1_655 S
C408 C409 1.363 . S
C408 C413 1.370 . S
C409 H382 0.929 . S
C409 C408 1.363 . S
C409 C410 1.385 . S
C410 H384 0.930 . S
C410 C409 1.385 . S
C410 C411 1.357 . S
C411 C410 1.357 . S
C411 C412 1.406 . S
C412 H386 0.929 . S
C412 C411 1.406 . S
C412 C413 1.391 . S
C413 H385 0.931 . S
C413 C408 1.370 . S
C413 C412 1.391 . S
C414 N383 1.435 . S
C414 C415 1.358 . S
C414 C419 1.371 . S
C415 H387 0.930 . S
C415 C414 1.358 . S
C415 C416 1.405 . S
C416 H388 0.932 . S
C416 C415 1.405 . S
C416 C417 1.383 . S
C417 C416 1.383 . S
C417 C418 1.393 . S
C418 H390 0.931 . S
C418 C417 1.393 . S
C418 C419 1.382 . S
C419 H389 0.929 . S
C419 C414 1.371 . S
C419 C418 1.382 . S
C420 N383 1.423 . S
C420 C421 1.353 1_455 S
C420 C425 1.388 . S
C421 H391 0.939 . S
C421 C420 1.353 1_655 S
C421 C422 1.375 1_655 S
C422 H393 0.931 1_455 S
C422 C421 1.375 1_455 S
C422 C423 1.396 . S
C423 C422 1.396 . S
C423 C424 1.348 . S
C423 C441 1.472 . S
C424 H394 0.929 . S
C424 C423 1.348 . S
C424 C425 1.443 . S
C425 H392 0.932 . S
C425 C420 1.388 . S
C425 C424 1.443 . S
C426 N406 1.433 1_655 S
C426 C427 1.363 . S
C426 C431 1.370 . S
C427 H395 0.929 . S
C427 C426 1.363 . S
C427 C428 1.385 . S
C428 H396 0.930 . S
C428 C427 1.385 . S
C428 C429 1.357 . S
C429 C428 1.357 . S
C429 C430 1.406 . S
C430 H397 0.929 . S
C430 C429 1.406 . S
C430 C431 1.391 . S
C431 H398 0.931 . S
C431 C426 1.370 . S
C431 C430 1.391 . S
C432 N406 1.435 . S
C432 C433 1.358 . S
C432 C437 1.371 . S
C433 H399 0.930 . S
C433 C432 1.358 . S
C433 C434 1.405 . S
C434 H400 0.932 . S
C434 C433 1.405 . S
C434 C435 1.383 . S
C435 C434 1.383 . S
C435 C436 1.393 . S
C436 H401 0.931 . S
C436 C435 1.393 . S
C436 C437 1.382 . S
C437 H402 0.929 . S
C437 C432 1.371 . S
C437 C436 1.382 . S
C438 N406 1.423 . S
C438 C439 1.357 1_455 S
C438 C443 1.388 . S
C439 H403 0.936 . S
C439 C438 1.357 1_655 S
C439 C440 1.375 1_655 S
C440 H404 0.931 1_455 S
C440 C439 1.375 1_455 S
C440 C441 1.396 . S
C441 C423 1.472 . S
C441 C440 1.396 . S
C441 C442 1.348 . S
C442 H405 0.929 . S
C442 C441 1.348 . S
C442 C443 1.443 . S
C443 H407 0.932 . S
C443 C438 1.388 . S
C443 C442 1.443 . S
H444 C471 0.929 . S
N445 C470 1.433 . S
N445 C476 1.435 . S
N445 C482 1.423 . S
H446 C472 0.930 . S
H447 C475 0.931 . S
H448 C474 0.929 . S
H449 C477 0.930 . S
H450 C478 0.932 . S
H451 C481 0.929 . S
H452 C480 0.931 . S
H453 C483 0.929 . S
H454 C487 0.932 . S
H455 C484 0.931 . S
H456 C486 0.929 . S
H457 C489 0.929 . S
H458 C490 0.930 . S
H459 C492 0.929 . S
H460 C493 0.931 . S
H461 C495 0.930 . S
H462 C496 0.932 . S
H463 C498 0.931 . S
H464 C499 0.929 . S
H465 C501 0.929 . S
H466 C502 0.931 . S
H467 C504 0.929 . S
N468 C488 1.433 . S
N468 C494 1.435 . S
N468 C500 1.423 . S
H469 C505 0.932 . S
C470 N445 1.433 . S
C470 C471 1.363 . S
C470 C475 1.370 . S
C471 H444 0.929 . S
C471 C470 1.363 . S
C471 C472 1.385 . S
C472 H446 0.930 . S
C472 C471 1.385 . S
C472 C473 1.357 . S
C473 C472 1.357 . S
C473 C474 1.406 . S
C474 H448 0.929 . S
C474 C473 1.406 . S
C474 C475 1.391 . S
C475 H447 0.931 . S
C475 C470 1.370 . S
C475 C474 1.391 . S
C476 N445 1.435 . S
C476 C477 1.358 . S
C476 C481 1.371 . S
C477 H449 0.930 . S
C477 C476 1.358 . S
C477 C478 1.405 . S
C478 H450 0.932 . S
C478 C477 1.405 . S
C478 C479 1.383 . S
C479 C478 1.383 . S
C479 C480 1.393 . S
C480 H452 0.931 . S
C480 C479 1.393 . S
C480 C481 1.382 . S
C481 H451 0.929 . S
C481 C476 1.371 . S
C481 C480 1.382 . S
C482 N445 1.423 . S
C482 C483 1.362 . S
C482 C487 1.388 . S
C483 H453 0.929 . S
C483 C482 1.362 . S
C483 C484 1.376 . S
C484 H455 0.931 . S
C484 C483 1.376 . S
C484 C485 1.396 . S
C485 C484 1.396 . S
C485 C486 1.348 . S
C485 C503 1.472 1_545 S
C486 H456 0.929 . S
C486 C485 1.348 . S
C486 C487 1.443 . S
C487 H454 0.932 . S
C487 C482 1.388 . S
C487 C486 1.443 . S
C488 N468 1.433 . S
C488 C489 1.363 . S
C488 C493 1.370 . S
C489 H457 0.929 . S
C489 C488 1.363 . S
C489 C490 1.385 . S
C490 H458 0.930 . S
C490 C489 1.385 . S
C490 C491 1.357 . S
C491 C490 1.357 . S
C491 C492 1.406 . S
C492 H459 0.929 . S
C492 C491 1.406 . S
C492 C493 1.391 . S
C493 H460 0.931 . S
C493 C488 1.370 . S
C493 C492 1.391 . S
C494 N468 1.435 . S
C494 C495 1.358 . S
C494 C499 1.371 . S
C495 H461 0.930 . S
C495 C494 1.358 . S
C495 C496 1.405 . S
C496 H462 0.932 . S
C496 C495 1.405 . S
C496 C497 1.383 . S
C497 C496 1.383 . S
C497 C498 1.393 . S
C498 H463 0.931 . S
C498 C497 1.393 . S
C498 C499 1.382 . S
C499 H464 0.929 . S
C499 C494 1.371 . S
C499 C498 1.382 . S
C500 N468 1.423 . S
C500 C501 1.362 . S
C500 C505 1.388 . S
C501 H465 0.929 . S
C501 C500 1.362 . S
C501 C502 1.376 . S
C502 H466 0.931 . S
C502 C501 1.376 . S
C502 C503 1.396 . S
C503 C485 1.472 1_565 S
C503 C502 1.396 . S
C503 C504 1.348 . S
C504 H467 0.929 . S
C504 C503 1.348 . S
C504 C505 1.443 . S
C505 H469 0.932 . S
C505 C500 1.388 . S
C505 C504 1.443 . S
H506 C533 0.929 . S
N507 C532 1.433 . S
N507 C538 1.435 . S
N507 C544 1.423 . S
H508 C534 0.930 . S
H509 C537 0.931 . S
H510 C536 0.929 . S
H511 C539 0.930 . S
H512 C540 0.932 . S
H513 C543 0.929 . S
H514 C542 0.931 . S
H515 C545 0.929 . S
H516 C549 0.932 . S
H517 C546 0.931 . S
H518 C548 0.929 . S
H519 C551 0.929 . S
H520 C552 0.930 . S
H521 C554 0.929 . S
H522 C555 0.931 . S
H523 C557 0.930 . S
H524 C558 0.932 . S
H525 C560 0.931 . S
H526 C561 0.929 . S
H527 C563 0.929 . S
H528 C564 0.931 . S
H529 C566 0.929 . S
N530 C550 1.433 . S
N530 C556 1.435 . S
N530 C562 1.423 . S
H531 C567 0.932 . S
C532 N507 1.433 . S
C532 C533 1.363 . S
C532 C537 1.370 . S
C533 H506 0.929 . S
C533 C532 1.363 . S
C533 C534 1.385 . S
C534 H508 0.930 . S
C534 C533 1.385 . S
C534 C535 1.357 . S
C535 C534 1.357 . S
C535 C536 1.406 . S
C536 H510 0.929 . S
C536 C535 1.406 . S
C536 C537 1.391 . S
C537 H509 0.931 . S
C537 C532 1.370 . S
C537 C536 1.391 . S
C538 N507 1.435 . S
C538 C539 1.358 . S
C538 C543 1.371 . S
C539 H511 0.930 . S
C539 C538 1.358 . S
C539 C540 1.405 . S
C540 H512 0.932 . S
C540 C539 1.405 . S
C540 C541 1.383 . S
C541 C540 1.383 . S
C541 C542 1.393 . S
C542 H514 0.931 . S
C542 C541 1.393 . S
C542 C543 1.382 . S
C543 H513 0.929 . S
C543 C538 1.371 . S
C543 C542 1.382 . S
C544 N507 1.423 . S
C544 C545 1.362 . S
C544 C549 1.388 . S
C545 H515 0.929 . S
C545 C544 1.362 . S
C545 C546 1.376 . S
C546 H517 0.931 . S
C546 C545 1.376 . S
C546 C547 1.396 . S
C547 C546 1.396 . S
C547 C548 1.348 . S
C547 C565 1.472 1_554 S
C548 H518 0.929 . S
C548 C547 1.348 . S
C548 C549 1.443 . S
C549 H516 0.932 . S
C549 C544 1.388 . S
C549 C548 1.443 . S
C550 N530 1.433 . S
C550 C551 1.363 . S
C550 C555 1.370 . S
C551 H519 0.929 . S
C551 C550 1.363 . S
C551 C552 1.385 . S
C552 H520 0.930 . S
C552 C551 1.385 . S
C552 C553 1.357 . S
C553 C552 1.357 . S
C553 C554 1.406 . S
C554 H521 0.929 . S
C554 C553 1.406 . S
C554 C555 1.391 . S
C555 H522 0.931 . S
C555 C550 1.370 . S
C555 C554 1.391 . S
C556 N530 1.435 . S
C556 C557 1.358 . S
C556 C561 1.371 . S
C557 H523 0.930 . S
C557 C556 1.358 . S
C557 C558 1.405 . S
C558 H524 0.932 . S
C558 C557 1.405 . S
C558 C559 1.383 . S
C559 C558 1.383 . S
C559 C560 1.393 . S
C560 H525 0.931 . S
C560 C559 1.393 . S
C560 C561 1.382 . S
C561 H526 0.929 . S
C561 C556 1.371 . S
C561 C560 1.382 . S
C562 N530 1.423 . S
C562 C563 1.362 . S
C562 C567 1.388 . S
C563 H527 0.929 . S
C563 C562 1.362 . S
C563 C564 1.376 . S
C564 H528 0.931 . S
C564 C563 1.376 . S
C564 C565 1.396 . S
C565 C547 1.472 1_556 S
C565 C564 1.396 . S
C565 C566 1.348 . S
C566 H529 0.929 . S
C566 C565 1.348 . S
C566 C567 1.443 . S
C567 H531 0.932 . S
C567 C562 1.388 . S
C567 C566 1.443 . S
H568 C595 0.929 . S
N569 C594 1.433 . S
N569 C600 1.435 . S
N569 C606 1.423 . S
H570 C596 0.930 . S
H571 C599 0.931 . S
H572 C598 0.929 . S
H573 C601 0.930 . S
H574 C602 0.932 . S
H575 C605 0.929 . S
H576 C604 0.931 . S
H577 C607 0.929 . S
H578 C611 0.932 . S
H579 C608 0.931 . S
H580 C610 0.929 . S
H581 C613 0.929 . S
H582 C614 0.930 . S
H583 C616 0.929 . S
H584 C617 0.931 . S
H585 C619 0.930 . S
H586 C620 0.932 . S
H587 C622 0.931 . S
H588 C623 0.929 . S
H589 C625 0.929 . S
H590 C626 0.931 . S
H591 C628 0.929 . S
N592 C612 1.433 . S
N592 C618 1.435 . S
N592 C624 1.423 . S
H593 C629 0.932 . S
C594 N569 1.433 . S
C594 C595 1.363 . S
C594 C599 1.370 . S
C595 H568 0.929 . S
C595 C594 1.363 . S
C595 C596 1.385 . S
C596 H570 0.930 . S
C596 C595 1.385 . S
C596 C597 1.357 . S
C597 C596 1.357 . S
C597 C598 1.406 . S
C598 H572 0.929 . S
C598 C597 1.406 . S
C598 C599 1.391 . S
C599 H571 0.931 . S
C599 C594 1.370 . S
C599 C598 1.391 . S
C600 N569 1.435 . S
C600 C601 1.358 . S
C600 C605 1.371 . S
C601 H573 0.930 . S
C601 C600 1.358 . S
C601 C602 1.405 . S
C602 H574 0.932 . S
C602 C601 1.405 . S
C602 C603 1.383 . S
C603 C602 1.383 . S
C603 C604 1.393 . S
C604 H576 0.931 . S
C604 C603 1.393 . S
C604 C605 1.382 . S
C605 H575 0.929 . S
C605 C600 1.371 . S
C605 C604 1.382 . S
C606 N569 1.423 . S
C606 C607 1.362 . S
C606 C611 1.388 . S
C607 H577 0.929 . S
C607 C606 1.362 . S
C607 C608 1.376 . S
C608 H579 0.931 . S
C608 C607 1.376 . S
C608 C609 1.396 . S
C609 C608 1.396 . S
C609 C610 1.348 . S
C609 C627 1.472 1_545 S
C610 H580 0.929 . S
C610 C609 1.348 . S
C610 C611 1.443 . S
C611 H578 0.932 . S
C611 C606 1.388 . S
C611 C610 1.443 . S
C612 N592 1.433 . S
C612 C613 1.363 . S
C612 C617 1.370 . S
C613 H581 0.929 . S
C613 C612 1.363 . S
C613 C614 1.385 . S
C614 H582 0.930 . S
C614 C613 1.385 . S
C614 C615 1.357 . S
C615 C614 1.357 . S
C615 C616 1.406 . S
C616 H583 0.929 . S
C616 C615 1.406 . S
C616 C617 1.391 . S
C617 H584 0.931 . S
C617 C612 1.370 . S
C617 C616 1.391 . S
C618 N592 1.435 . S
C618 C619 1.358 . S
C618 C623 1.371 . S
C619 H585 0.930 . S
C619 C618 1.358 . S
C619 C620 1.405 . S
C620 H586 0.932 . S
C620 C619 1.405 . S
C620 C621 1.383 . S
C621 C620 1.383 . S
C621 C622 1.393 . S
C622 H587 0.931 . S
C622 C621 1.393 . S
C622 C623 1.382 . S
C623 H588 0.929 . S
C623 C618 1.371 . S
C623 C622 1.382 . S
C624 N592 1.423 . S
C624 C625 1.362 . S
C624 C629 1.388 . S
C625 H589 0.929 . S
C625 C624 1.362 . S
C625 C626 1.376 . S
C626 H590 0.931 . S
C626 C625 1.376 . S
C626 C627 1.396 . S
C627 C609 1.472 1_565 S
C627 C626 1.396 . S
C627 C628 1.348 . S
C628 H591 0.929 . S
C628 C627 1.348 . S
C628 C629 1.443 . S
C629 H593 0.932 . S
C629 C624 1.388 . S
C629 C628 1.443 . S
H630 C657 0.929 . S
N631 C656 1.433 . S
N631 C662 1.435 . S
N631 C668 1.423 . S
H632 C658 0.930 . S
H633 C661 0.931 . S
H634 C660 0.929 . S
H635 C663 0.930 . S
H636 C664 0.932 . S
H637 C667 0.929 . S
H638 C666 0.931 . S
H639 C669 0.929 . S
H640 C673 0.932 . S
H641 C670 0.931 . S
H642 C672 0.929 . S
H643 C675 0.929 . S
H644 C676 0.930 . S
H645 C678 0.929 . S
H646 C679 0.931 . S
H647 C681 0.930 . S
H648 C682 0.932 . S
H649 C684 0.931 . S
H650 C685 0.929 . S
H651 C687 0.929 . S
H652 C688 0.931 . S
H653 C690 0.929 . S
N654 C674 1.433 . S
N654 C680 1.435 . S
N654 C686 1.423 . S
H655 C691 0.932 . S
C656 N631 1.433 . S
C656 C657 1.363 . S
C656 C661 1.370 . S
C657 H630 0.929 . S
C657 C656 1.363 . S
C657 C658 1.385 . S
C658 H632 0.930 . S
C658 C657 1.385 . S
C658 C659 1.357 . S
C659 C658 1.357 . S
C659 C660 1.406 . S
C660 H634 0.929 . S
C660 C659 1.406 . S
C660 C661 1.391 . S
C661 H633 0.931 . S
C661 C656 1.370 . S
C661 C660 1.391 . S
C662 N631 1.435 . S
C662 C663 1.358 . S
C662 C667 1.371 . S
C663 H635 0.930 . S
C663 C662 1.358 . S
C663 C664 1.405 . S
C664 H636 0.932 . S
C664 C663 1.405 . S
C664 C665 1.383 . S
C665 C664 1.383 . S
C665 C666 1.393 . S
C666 H638 0.931 . S
C666 C665 1.393 . S
C666 C667 1.382 . S
C667 H637 0.929 . S
C667 C662 1.371 . S
C667 C666 1.382 . S
C668 N631 1.423 . S
C668 C669 1.362 . S
C668 C673 1.388 . S
C669 H639 0.929 . S
C669 C668 1.362 . S
C669 C670 1.376 . S
C670 H641 0.931 . S
C670 C669 1.376 . S
C670 C671 1.396 . S
C671 C670 1.396 . S
C671 C672 1.348 . S
C671 C689 1.472 1_554 S
C672 H642 0.929 . S
C672 C671 1.348 . S
C672 C673 1.443 . S
C673 H640 0.932 . S
C673 C668 1.388 . S
C673 C672 1.443 . S
C674 N654 1.433 . S
C674 C675 1.363 . S
C674 C679 1.370 . S
C675 H643 0.929 . S
C675 C674 1.363 . S
C675 C676 1.385 . S
C676 H644 0.930 . S
C676 C675 1.385 . S
C676 C677 1.357 . S
C677 C676 1.357 . S
C677 C678 1.406 . S
C678 H645 0.929 . S
C678 C677 1.406 . S
C678 C679 1.391 . S
C679 H646 0.931 . S
C679 C674 1.370 . S
C679 C678 1.391 . S
C680 N654 1.435 . S
C680 C681 1.358 . S
C680 C685 1.371 . S
C681 H647 0.930 . S
C681 C680 1.358 . S
C681 C682 1.405 . S
C682 H648 0.932 . S
C682 C681 1.405 . S
C682 C683 1.383 . S
C683 C682 1.383 . S
C683 C684 1.393 . S
C684 H649 0.931 . S
C684 C683 1.393 . S
C684 C685 1.382 . S
C685 H650 0.929 . S
C685 C680 1.371 . S
C685 C684 1.382 . S
C686 N654 1.423 . S
C686 C687 1.362 . S
C686 C691 1.388 . S
C687 H651 0.929 . S
C687 C686 1.362 . S
C687 C688 1.376 . S
C688 H652 0.931 . S
C688 C687 1.376 . S
C688 C689 1.396 . S
C689 C671 1.472 1_556 S
C689 C688 1.396 . S
C689 C690 1.348 . S
C690 H653 0.929 . S
C690 C689 1.348 . S
C690 C691 1.443 . S
C691 H655 0.932 . S
C691 C686 1.388 . S
C691 C690 1.443 . S
H692 C700 0.950 . S
H693 C705 0.950 . S
H694 C702 0.950 . S
H695 C704 0.950 . S
H696 C706 0.950 . S
H697 C708 0.950 . S
H698 C710 0.950 . S
H699 C711 0.950 . S
C700 H692 0.950 . S
C700 C701 1.386 . S
C700 C702 1.391 . S
C701 C700 1.386 . S
C701 C705 1.393 . S
C702 H694 0.950 . S
C702 C700 1.391 . S
C702 C703 1.400 . S
C703 C702 1.400 . S
C703 C704 1.398 . S
C703 C709 1.491 . S
C704 H695 0.950 . S
C704 C703 1.398 . S
C704 C705 1.391 . S
C705 H693 0.950 . S
C705 C701 1.393 . S
C705 C704 1.391 . S
C706 H696 0.950 . S
C706 C707 1.386 . S
C706 C708 1.391 . S
C707 C706 1.386 . S
C707 C711 1.393 . S
C708 H697 0.950 . S
C708 C706 1.391 . S
C708 C709 1.400 . S
C709 C703 1.491 . S
C709 C708 1.400 . S
C709 C710 1.398 . S
C710 H698 0.950 . S
C710 C709 1.398 . S
C710 C711 1.391 . S
C711 H699 0.950 . S
C711 C707 1.393 . S
C711 C710 1.391 . S
H712 C720 0.950 . S
H713 C725 0.950 . S
H714 C722 0.950 . S
H715 C724 0.950 . S
H716 C726 0.950 . S
H717 C728 0.950 . S
H718 C730 0.950 . S
H719 C731 0.950 . S
C720 H712 0.950 . S
C720 C721 1.386 . S
C720 C722 1.391 . S
C721 C720 1.386 . S
C721 C725 1.393 . S
C722 H714 0.950 . S
C722 C720 1.391 . S
C722 C723 1.400 . S
C723 C722 1.400 . S
C723 C724 1.398 . S
C723 C729 1.491 . S
C724 H715 0.950 . S
C724 C723 1.398 . S
C724 C725 1.391 . S
C725 H713 0.950 . S
C725 C721 1.393 . S
C725 C724 1.391 . S
C726 H716 0.950 . S
C726 C727 1.386 . S
C726 C728 1.391 . S
C727 C726 1.386 . S
C727 C731 1.393 . S
C728 H717 0.950 . S
C728 C726 1.391 . S
C728 C729 1.400 . S
C729 C723 1.491 . S
C729 C728 1.400 . S
C729 C730 1.398 . S
C730 H718 0.950 . S
C730 C729 1.398 . S
C730 C731 1.391 . S
C731 H719 0.950 . S
C731 C727 1.393 . S
C731 C730 1.391 . S
H732 C740 0.950 . S
H733 C745 0.950 . S
H734 C742 0.950 . S
H735 C744 0.950 . S
H736 C746 0.950 . S
H737 C748 0.950 . S
H738 C750 0.950 . S
H739 C751 0.950 . S
C740 H732 0.950 . S
C740 C741 1.386 . S
C740 C742 1.391 . S
C741 C740 1.386 . S
C741 C745 1.393 . S
C742 H734 0.950 . S
C742 C740 1.391 . S
C742 C743 1.400 . S
C743 C742 1.400 . S
C743 C744 1.398 . S
C743 C749 1.491 . S
C744 H735 0.950 . S
C744 C743 1.398 . S
C744 C745 1.391 . S
C745 H733 0.950 . S
C745 C741 1.393 . S
C745 C744 1.391 . S
C746 H736 0.950 . S
C746 C747 1.386 . S
C746 C748 1.391 . S
C747 C746 1.386 . S
C747 C751 1.393 . S
C748 H737 0.950 . S
C748 C746 1.391 . S
C748 C749 1.400 . S
C749 C743 1.491 . S
C749 C748 1.400 . S
C749 C750 1.398 . S
C750 H738 0.950 . S
C750 C749 1.398 . S
C750 C751 1.391 . S
C751 H739 0.950 . S
C751 C747 1.393 . S
C751 C750 1.391 . S
H752 C760 0.950 . S
H753 C765 0.950 . S
H754 C762 0.950 . S
H755 C764 0.950 . S
H756 C766 0.950 . S
H757 C768 0.950 . S
H758 C770 0.950 . S
H759 C771 0.950 . S
C760 H752 0.950 . S
C760 C761 1.386 . S
C760 C762 1.391 . S
C761 C760 1.386 . S
C761 C765 1.393 . S
C762 H754 0.950 . S
C762 C760 1.391 . S
C762 C763 1.400 . S
C763 C762 1.400 . S
C763 C764 1.398 . S
C763 C769 1.491 . S
C764 H755 0.950 . S
C764 C763 1.398 . S
C764 C765 1.391 . S
C765 H753 0.950 . S
C765 C761 1.393 . S
C765 C764 1.391 . S
C766 H756 0.950 . S
C766 C767 1.386 . S
C766 C768 1.391 . S
C767 C766 1.386 . S
C767 C771 1.393 . S
C768 H757 0.950 . S
C768 C766 1.391 . S
C768 C769 1.400 . S
C769 C763 1.491 . S
C769 C768 1.400 . S
C769 C770 1.398 . S
C770 H758 0.950 . S
C770 C769 1.398 . S
C770 C771 1.391 . S
C771 H759 0.950 . S
C771 C767 1.393 . S
C771 C770 1.391 . S
H772 C780 0.950 . S
H773 C785 0.950 . S
H774 C782 0.950 . S
H775 C784 0.950 . S
H776 C786 0.950 . S
H777 C788 0.950 . S
H778 C790 0.950 . S
H779 C791 0.950 . S
C780 H772 0.950 . S
C780 C781 1.386 . S
C780 C782 1.391 . S
C781 C780 1.386 . S
C781 C785 1.393 . S
C782 H774 0.950 . S
C782 C780 1.391 . S
C782 C783 1.400 . S
C783 C782 1.400 . S
C783 C784 1.398 . S
C783 C789 1.491 . S
C784 H775 0.950 . S
C784 C783 1.398 . S
C784 C785 1.391 . S
C785 H773 0.950 . S
C785 C781 1.393 . S
C785 C784 1.391 . S
C786 H776 0.950 . S
C786 C787 1.386 . S
C786 C788 1.391 . S
C787 C786 1.386 . S
C787 C791 1.393 . S
C788 H777 0.950 . S
C788 C786 1.391 . S
C788 C789 1.400 . S
C789 C783 1.491 . S
C789 C788 1.400 . S
C789 C790 1.398 . S
C790 H778 0.950 . S
C790 C789 1.398 . S
C790 C791 1.391 . S
C791 H779 0.950 . S
C791 C787 1.393 . S
C791 C790 1.391 . S
H792 C800 0.950 . S
H793 C805 0.950 . S
H794 C802 0.950 . S
H795 C804 0.950 . S
H796 C806 0.950 . S
H797 C808 0.950 . S
H798 C810 0.950 . S
H799 C811 0.950 . S
C800 H792 0.950 . S
C800 C801 1.386 . S
C800 C802 1.391 . S
C801 C800 1.386 . S
C801 C805 1.393 . S
C802 H794 0.950 . S
C802 C800 1.391 . S
C802 C803 1.400 . S
C803 C802 1.400 . S
C803 C804 1.398 . S
C803 C809 1.491 . S
C804 H795 0.950 . S
C804 C803 1.398 . S
C804 C805 1.391 . S
C805 H793 0.950 . S
C805 C801 1.393 . S
C805 C804 1.391 . S
C806 H796 0.950 . S
C806 C807 1.386 . S
C806 C808 1.391 . S
C807 C806 1.386 . S
C807 C811 1.393 . S
C808 H797 0.950 . S
C808 C806 1.391 . S
C808 C809 1.400 . S
C809 C803 1.491 . S
C809 C808 1.400 . S
C809 C810 1.398 . S
C810 H798 0.950 . S
C810 C809 1.398 . S
C810 C811 1.391 . S
C811 H799 0.950 . S
C811 C807 1.393 . S
C811 C810 1.391 . S
H812 C820 0.950 . S
H813 C825 0.950 . S
H814 C822 0.950 . S
H815 C824 0.950 . S
H816 C826 0.950 . S
H817 C828 0.950 . S
H818 C830 0.950 . S
H819 C831 0.950 . S
C820 H812 0.950 . S
C820 C821 1.386 . S
C820 C822 1.391 . S
C821 C820 1.386 . S
C821 C825 1.393 . S
C822 H814 0.950 . S
C822 C820 1.391 . S
C822 C823 1.400 . S
C823 C822 1.400 . S
C823 C824 1.398 . S
C823 C829 1.491 . S
C824 H815 0.950 . S
C824 C823 1.398 . S
C824 C825 1.391 . S
C825 H813 0.950 . S
C825 C821 1.393 . S
C825 C824 1.391 . S
C826 H816 0.950 . S
C826 C827 1.386 . S
C826 C828 1.391 . S
C827 C826 1.386 . S
C827 C831 1.393 . S
C828 H817 0.950 . S
C828 C826 1.391 . S
C828 C829 1.400 . S
C829 C823 1.491 . S
C829 C828 1.400 . S
C829 C830 1.398 . S
C830 H818 0.950 . S
C830 C829 1.398 . S
C830 C831 1.391 . S
C831 H819 0.950 . S
C831 C827 1.393 . S
C831 C830 1.391 . S
H832 C840 0.950 . S
H833 C845 0.950 . S
H834 C842 0.950 . S
H835 C844 0.950 . S
H836 C846 0.950 . S
H837 C848 0.950 . S
H838 C850 0.950 . S
H839 C851 0.950 . S
C840 H832 0.950 . S
C840 C841 1.386 . S
C840 C842 1.391 . S
C841 C840 1.386 . S
C841 C845 1.393 . S
C842 H834 0.950 . S
C842 C840 1.391 . S
C842 C843 1.400 . S
C843 C842 1.400 . S
C843 C844 1.398 . S
C843 C849 1.491 . S
C844 H835 0.950 . S
C844 C843 1.398 . S
C844 C845 1.391 . S
C845 H833 0.950 . S
C845 C841 1.393 . S
C845 C844 1.391 . S
C846 H836 0.950 . S
C846 C847 1.386 . S
C846 C848 1.391 . S
C847 C846 1.386 . S
C847 C851 1.393 . S
C848 H837 0.950 . S
C848 C846 1.391 . S
C848 C849 1.400 . S
C849 C843 1.491 . S
C849 C848 1.400 . S
C849 C850 1.398 . S
C850 H838 0.950 . S
C850 C849 1.398 . S
C850 C851 1.391 . S
C851 H839 0.950 . S
C851 C847 1.393 . S
C851 C850 1.391 . S
H852 C860 0.950 . S
H853 C865 0.950 . S
H854 C862 0.950 . S
H855 C864 0.950 . S
H856 C866 0.950 . S
H857 C868 0.950 . S
H858 C870 0.950 . S
H859 C871 0.950 . S
C860 H852 0.950 . S
C860 C861 1.386 . S
C860 C862 1.391 . S
C861 C860 1.386 . S
C861 C865 1.393 . S
C862 H854 0.950 . S
C862 C860 1.391 . S
C862 C863 1.400 . S
C863 C862 1.400 . S
C863 C864 1.398 . S
C863 C869 1.491 . S
C864 H855 0.950 . S
C864 C863 1.398 . S
C864 C865 1.391 . S
C865 H853 0.950 . S
C865 C861 1.393 . S
C865 C864 1.391 . S
C866 H856 0.950 . S
C866 C867 1.386 . S
C866 C868 1.391 . S
C867 C866 1.386 . S
C867 C871 1.393 . S
C868 H857 0.950 . S
C868 C866 1.391 . S
C868 C869 1.400 . S
C869 C863 1.491 . S
C869 C868 1.400 . S
C869 C870 1.398 . S
C870 H858 0.950 . S
C870 C869 1.398 . S
C870 C871 1.391 . S
C871 H859 0.950 . S
C871 C867 1.393 . S
C871 C870 1.391 . S
H872 C880 0.950 . S
H873 C885 0.950 . S
H874 C882 0.950 . S
H875 C884 0.950 . S
H876 C886 0.950 . S
H877 C888 0.950 . S
H878 C890 0.950 . S
H879 C891 0.950 . S
C880 H872 0.950 . S
C880 C881 1.386 . S
C880 C882 1.391 . S
C881 C880 1.386 . S
C881 C885 1.393 . S
C882 H874 0.950 . S
C882 C880 1.391 . S
C882 C883 1.400 . S
C883 C882 1.400 . S
C883 C884 1.398 . S
C883 C889 1.491 . S
C884 H875 0.950 . S
C884 C883 1.398 . S
C884 C885 1.391 . S
C885 H873 0.950 . S
C885 C881 1.393 . S
C885 C884 1.391 . S
C886 H876 0.950 . S
C886 C887 1.386 . S
C886 C888 1.391 . S
C887 C886 1.386 . S
C887 C891 1.393 . S
C888 H877 0.950 . S
C888 C886 1.391 . S
C888 C889 1.400 . S
C889 C883 1.491 . S
C889 C888 1.400 . S
C889 C890 1.398 . S
C890 H878 0.950 . S
C890 C889 1.398 . S
C890 C891 1.391 . S
C891 H879 0.950 . S
C891 C887 1.393 . S
C891 C890 1.391 . S
H892 C900 0.950 . S
H893 C905 0.950 . S
H894 C902 0.950 . S
H895 C904 0.950 . S
H896 C906 0.950 . S
H897 C908 0.950 . S
H898 C910 0.950 . S
H899 C911 0.950 . S
C900 H892 0.950 . S
C900 C901 1.386 . S
C900 C902 1.391 . S
C901 C900 1.386 . S
C901 C905 1.393 . S
C902 H894 0.950 . S
C902 C900 1.391 . S
C902 C903 1.400 . S
C903 C902 1.400 . S
C903 C904 1.398 . S
C903 C909 1.491 . S
C904 H895 0.950 . S
C904 C903 1.398 . S
C904 C905 1.391 . S
C905 H893 0.950 . S
C905 C901 1.393 . S
C905 C904 1.391 . S
C906 H896 0.950 . S
C906 C907 1.386 . S
C906 C908 1.391 . S
C907 C906 1.386 . S
C907 C911 1.393 . S
C908 H897 0.950 . S
C908 C906 1.391 . S
C908 C909 1.400 . S
C909 C903 1.491 . S
C909 C908 1.400 . S
C909 C910 1.398 . S
C910 H898 0.950 . S
C910 C909 1.398 . S
C910 C911 1.391 . S
C911 H899 0.950 . S
C911 C907 1.393 . S
C911 C910 1.391 . S
H912 C920 0.950 . S
H913 C925 0.950 . S
H914 C922 0.950 . S
H915 C924 0.950 . S
H916 C926 0.950 . S
H917 C928 0.950 . S
H918 C930 0.950 . S
H919 C931 0.950 . S
C920 H912 0.950 . S
C920 C921 1.386 . S
C920 C922 1.391 . S
C921 C920 1.386 . S
C921 C925 1.393 . S
C922 H914 0.950 . S
C922 C920 1.391 . S
C922 C923 1.400 . S
C923 C922 1.400 . S
C923 C924 1.398 . S
C923 C929 1.491 . S
C924 H915 0.950 . S
C924 C923 1.398 . S
C924 C925 1.391 . S
C925 H913 0.950 . S
C925 C921 1.393 . S
C925 C924 1.391 . S
C926 H916 0.950 . S
C926 C927 1.386 . S
C926 C928 1.391 . S
C927 C926 1.386 . S
C927 C931 1.393 . S
C928 H917 0.950 . S
C928 C926 1.391 . S
C928 C929 1.400 . S
C929 C923 1.491 . S
C929 C928 1.400 . S
C929 C930 1.398 . S
C930 H918 0.950 . S
C930 C929 1.398 . S
C930 C931 1.391 . S
C931 H919 0.950 . S
C931 C927 1.393 . S
C931 C930 1.391 . S
H932 C940 0.950 . S
H933 C945 0.950 . S
H934 C942 0.950 . S
H935 C944 0.950 . S
H936 C946 0.950 . S
H937 C948 0.950 . S
H938 C950 0.950 . S
H939 C951 0.950 . S
C940 H932 0.950 . S
C940 C941 1.386 . S
C940 C942 1.391 . S
C941 C940 1.386 . S
C941 C945 1.393 . S
C942 H934 0.950 . S
C942 C940 1.391 . S
C942 C943 1.400 . S
C943 C942 1.400 . S
C943 C944 1.398 . S
C943 C949 1.491 . S
C944 H935 0.950 . S
C944 C943 1.398 . S
C944 C945 1.391 . S
C945 H933 0.950 . S
C945 C941 1.393 . S
C945 C944 1.391 . S
C946 H936 0.950 . S
C946 C947 1.386 . S
C946 C948 1.391 . S
C947 C946 1.386 . S
C947 C951 1.393 . S
C948 H937 0.950 . S
C948 C946 1.391 . S
C948 C949 1.400 . S
C949 C943 1.491 . S
C949 C948 1.400 . S
C949 C950 1.398 . S
C950 H938 0.950 . S
C950 C949 1.398 . S
C950 C951 1.391 . S
C951 H939 0.950 . S
C951 C947 1.393 . S
C951 C950 1.391 . S
H952 C960 0.950 . S
H953 C965 0.950 . S
H954 C962 0.950 . S
H955 C964 0.950 . S
H956 C966 0.950 . S
H957 C968 0.950 . S
H958 C970 0.950 . S
H959 C971 0.950 . S
C960 H952 0.950 . S
C960 C961 1.386 . S
C960 C962 1.391 . S
C961 C960 1.386 . S
C961 C965 1.393 . S
C962 H954 0.950 . S
C962 C960 1.391 . S
C962 C963 1.400 . S
C963 C962 1.400 . S
C963 C964 1.398 . S
C963 C969 1.491 . S
C964 H955 0.950 . S
C964 C963 1.398 . S
C964 C965 1.391 . S
C965 H953 0.950 . S
C965 C961 1.393 . S
C965 C964 1.391 . S
C966 H956 0.950 . S
C966 C967 1.386 . S
C966 C968 1.391 . S
C967 C966 1.386 . S
C967 C971 1.393 . S
C968 H957 0.950 . S
C968 C966 1.391 . S
C968 C969 1.400 . S
C969 C963 1.491 . S
C969 C968 1.400 . S
C969 C970 1.398 . S
C970 H958 0.950 . S
C970 C969 1.398 . S
C970 C971 1.391 . S
C971 H959 0.950 . S
C971 C967 1.393 . S
C971 C970 1.391 . S
H972 C980 0.950 . S
H973 C985 0.950 . S
H974 C982 0.950 . S
H975 C984 0.950 . S
H976 C986 0.950 . S
H977 C988 0.950 . S
H978 C990 0.950 . S
H979 C991 0.950 . S
C980 H972 0.950 . S
C980 C981 1.386 . S
C980 C982 1.391 . S
C981 C980 1.386 . S
C981 C985 1.393 . S
C982 H974 0.950 . S
C982 C980 1.391 . S
C982 C983 1.400 . S
C983 C982 1.400 . S
C983 C984 1.398 . S
C983 C989 1.491 . S
C984 H975 0.950 . S
C984 C983 1.398 . S
C984 C985 1.391 . S
C985 H973 0.950 . S
C985 C981 1.393 . S
C985 C984 1.391 . S
C986 H976 0.950 . S
C986 C987 1.386 . S
C986 C988 1.391 . S
C987 C986 1.386 . S
C987 C991 1.393 . S
C988 H977 0.950 . S
C988 C986 1.391 . S
C988 C989 1.400 . S
C989 C983 1.491 . S
C989 C988 1.400 . S
C989 C990 1.398 . S
C990 H978 0.950 . S
C990 C989 1.398 . S
C990 C991 1.391 . S
C991 H979 0.950 . S
C991 C987 1.393 . S
C991 C990 1.391 . S
H992 C1000 0.950 . S
H993 C1005 0.950 . S
H994 C1002 0.950 . S
H995 C1004 0.950 . S
H996 C1006 0.950 . S
H997 C1008 0.950 . S
H998 C1010 0.950 . S
H999 C1011 0.950 . S
C1000 H992 0.950 . S
C1000 C1001 1.386 . S
C1000 C1002 1.391 . S
C1001 C1000 1.386 . S
C1001 C1005 1.393 . S
C1002 H994 0.950 . S
C1002 C1000 1.391 . S
C1002 C1003 1.400 . S
C1003 C1002 1.400 . S
C1003 C1004 1.398 . S
C1003 C1009 1.491 . S
C1004 H995 0.950 . S
C1004 C1003 1.398 . S
C1004 C1005 1.391 . S
C1005 H993 0.950 . S
C1005 C1001 1.393 . S
C1005 C1004 1.391 . S
C1006 H996 0.950 . S
C1006 C1007 1.386 . S
C1006 C1008 1.391 . S
C1007 C1006 1.386 . S
C1007 C1011 1.393 . S
C1008 H997 0.950 . S
C1008 C1006 1.391 . S
C1008 C1009 1.400 . S
C1009 C1003 1.491 . S
C1009 C1008 1.400 . S
C1009 C1010 1.398 . S
C1010 H998 0.950 . S
C1010 C1009 1.398 . S
C1010 C1011 1.391 . S
C1011 H999 0.950 . S
C1011 C1007 1.393 . S
C1011 C1010 1.391 . S
H1012 C1020 0.950 . S
H1013 C1025 0.950 . S
H1014 C1022 0.950 . S
H1015 C1024 0.950 . S
H1016 C1026 0.950 . S
H1017 C1028 0.950 . S
H1018 C1030 0.950 . S
H1019 C1031 0.950 . S
C1020 H1012 0.950 . S
C1020 C1021 1.386 . S
C1020 C1022 1.391 . S
C1021 C1020 1.386 . S
C1021 C1025 1.393 . S
C1022 H1014 0.950 . S
C1022 C1020 1.391 . S
C1022 C1023 1.400 . S
C1023 C1022 1.400 . S
C1023 C1024 1.398 . S
C1023 C1029 1.491 . S
C1024 H1015 0.950 . S
C1024 C1023 1.398 . S
C1024 C1025 1.391 . S
C1025 H1013 0.950 . S
C1025 C1021 1.393 . S
C1025 C1024 1.391 . S
C1026 H1016 0.950 . S
C1026 C1027 1.386 . S
C1026 C1028 1.391 . S
C1027 C1026 1.386 . S
C1027 C1031 1.393 . S
C1028 H1017 0.950 . S
C1028 C1026 1.391 . S
C1028 C1029 1.400 . S
C1029 C1023 1.491 . S
C1029 C1028 1.400 . S
C1029 C1030 1.398 . S
C1030 H1018 0.950 . S
C1030 C1029 1.398 . S
C1030 C1031 1.391 . S
C1031 H1019 0.950 . S
C1031 C1027 1.393 . S
C1031 C1030 1.391 . S
H1032 C1040 0.950 . S
H1033 C1045 0.950 . S
H1034 C1042 0.950 . S
H1035 C1044 0.950 . S
H1036 C1046 0.950 . S
H1037 C1048 0.950 . S
H1038 C1050 0.950 . S
H1039 C1051 0.950 . S
C1040 H1032 0.950 . S
C1040 C1041 1.386 . S
C1040 C1042 1.391 . S
C1041 C1040 1.386 . S
C1041 C1045 1.393 . S
C1042 H1034 0.950 . S
C1042 C1040 1.391 . S
C1042 C1043 1.400 . S
C1043 C1042 1.400 . S
C1043 C1044 1.398 . S
C1043 C1049 1.491 . S
C1044 H1035 0.950 . S
C1044 C1043 1.398 . S
C1044 C1045 1.391 . S
C1045 H1033 0.950 . S
C1045 C1041 1.393 . S
C1045 C1044 1.391 . S
C1046 H1036 0.950 . S
C1046 C1047 1.386 . S
C1046 C1048 1.391 . S
C1047 C1046 1.386 . S
C1047 C1051 1.393 . S
C1048 H1037 0.950 . S
C1048 C1046 1.391 . S
C1048 C1049 1.400 . S
C1049 C1043 1.491 . S
C1049 C1048 1.400 . S
C1049 C1050 1.398 . S
C1050 H1038 0.950 . S
C1050 C1049 1.398 . S
C1050 C1051 1.391 . S
C1051 H1039 0.950 . S
C1051 C1047 1.393 . S
C1051 C1050 1.391 . S
H1052 C1060 0.950 . S
H1053 C1065 0.950 . S
H1054 C1062 0.950 . S
H1055 C1064 0.950 . S
H1056 C1066 0.950 . S
H1057 C1068 0.950 . S
H1058 C1070 0.950 . S
H1059 C1071 0.950 . S
C1060 H1052 0.950 . S
C1060 C1061 1.386 . S
C1060 C1062 1.391 . S
C1061 C1060 1.386 . S
C1061 C1065 1.393 . S
C1062 H1054 0.950 . S
C1062 C1060 1.391 . S
C1062 C1063 1.400 . S
C1063 C1062 1.400 . S
C1063 C1064 1.398 . S
C1063 C1069 1.491 . S
C1064 H1055 0.950 . S
C1064 C1063 1.398 . S
C1064 C1065 1.391 . S
C1065 H1053 0.950 . S
C1065 C1061 1.393 . S
C1065 C1064 1.391 . S
C1066 H1056 0.950 . S
C1066 C1067 1.386 . S
C1066 C1068 1.391 . S
C1067 C1066 1.386 . S
C1067 C1071 1.393 . S
C1068 H1057 0.950 . S
C1068 C1066 1.391 . S
C1068 C1069 1.400 . S
C1069 C1063 1.491 . S
C1069 C1068 1.400 . S
C1069 C1070 1.398 . S
C1070 H1058 0.950 . S
C1070 C1069 1.398 . S
C1070 C1071 1.391 . S
C1071 H1059 0.950 . S
C1071 C1067 1.393 . S
C1071 C1070 1.391 . S
H1072 C1080 0.950 . S
H1073 C1085 0.950 . S
H1074 C1082 0.950 . S
H1075 C1084 0.950 . S
H1076 C1086 0.950 . S
H1077 C1088 0.950 . S
H1078 C1090 0.950 . S
H1079 C1091 0.950 . S
C1080 H1072 0.950 . S
C1080 C1081 1.386 . S
C1080 C1082 1.391 . S
C1081 C1080 1.386 . S
C1081 C1085 1.393 . S
C1082 H1074 0.950 . S
C1082 C1080 1.391 . S
C1082 C1083 1.400 . S
C1083 C1082 1.400 . S
C1083 C1084 1.398 . S
C1083 C1089 1.491 . S
C1084 H1075 0.950 . S
C1084 C1083 1.398 . S
C1084 C1085 1.391 . S
C1085 H1073 0.950 . S
C1085 C1081 1.393 . S
C1085 C1084 1.391 . S
C1086 H1076 0.950 . S
C1086 C1087 1.386 . S
C1086 C1088 1.391 . S
C1087 C1086 1.386 . S
C1087 C1091 1.393 . S
C1088 H1077 0.950 . S
C1088 C1086 1.391 . S
C1088 C1089 1.400 . S
C1089 C1083 1.491 . S
C1089 C1088 1.400 . S
C1089 C1090 1.398 . S
C1090 H1078 0.950 . S
C1090 C1089 1.398 . S
C1090 C1091 1.391 . S
C1091 H1079 0.950 . S
C1091 C1087 1.393 . S
C1091 C1090 1.391 . S
H1092 C1100 0.950 . S
H1093 C1105 0.950 . S
H1094 C1102 0.950 . S
H1095 C1104 0.950 . S
H1096 C1106 0.950 . S
H1097 C1108 0.950 . S
H1098 C1110 0.950 . S
H1099 C1111 0.950 . S
C1100 H1092 0.950 . S
C1100 C1101 1.386 . S
C1100 C1102 1.391 . S
C1101 C1100 1.386 . S
C1101 C1105 1.393 . S
C1102 H1094 0.950 . S
C1102 C1100 1.391 . S
C1102 C1103 1.400 . S
C1103 C1102 1.400 . S
C1103 C1104 1.398 . S
C1103 C1109 1.491 . S
C1104 H1095 0.950 . S
C1104 C1103 1.398 . S
C1104 C1105 1.391 . S
C1105 H1093 0.950 . S
C1105 C1101 1.393 . S
C1105 C1104 1.391 . S
C1106 H1096 0.950 . S
C1106 C1107 1.386 . S
C1106 C1108 1.391 . S
C1107 C1106 1.386 . S
C1107 C1111 1.393 . S
C1108 H1097 0.950 . S
C1108 C1106 1.391 . S
C1108 C1109 1.400 . S
C1109 C1103 1.491 . S
C1109 C1108 1.400 . S
C1109 C1110 1.398 . S
C1110 H1098 0.950 . S
C1110 C1109 1.398 . S
C1110 C1111 1.391 . S
C1111 H1099 0.950 . S
C1111 C1107 1.393 . S
C1111 C1110 1.391 . S
H1112 C1120 0.950 . S
H1113 C1125 0.950 . S
H1114 C1122 0.950 . S
H1115 C1124 0.950 . S
H1116 C1126 0.950 . S
H1117 C1128 0.950 . S
H1118 C1130 0.950 . S
H1119 C1131 0.950 . S
C1120 H1112 0.950 . S
C1120 C1121 1.386 . S
C1120 C1122 1.391 . S
C1121 C1120 1.386 . S
C1121 C1125 1.393 . S
C1122 H1114 0.950 . S
C1122 C1120 1.391 . S
C1122 C1123 1.400 . S
C1123 C1122 1.400 . S
C1123 C1124 1.398 . S
C1123 C1129 1.491 . S
C1124 H1115 0.950 . S
C1124 C1123 1.398 . S
C1124 C1125 1.391 . S
C1125 H1113 0.950 . S
C1125 C1121 1.393 . S
C1125 C1124 1.391 . S
C1126 H1116 0.950 . S
C1126 C1127 1.386 . S
C1126 C1128 1.391 . S
C1127 C1126 1.386 . S
C1127 C1131 1.393 . S
C1128 H1117 0.950 . S
C1128 C1126 1.391 . S
C1128 C1129 1.400 . S
C1129 C1123 1.491 . S
C1129 C1128 1.400 . S
C1129 C1130 1.398 . S
C1130 H1118 0.950 . S
C1130 C1129 1.398 . S
C1130 C1131 1.391 . S
C1131 H1119 0.950 . S
C1131 C1127 1.393 . S
C1131 C1130 1.391 . S
H1132 C1140 0.950 . S
H1133 C1145 0.950 . S
H1134 C1142 0.950 . S
H1135 C1144 0.950 . S
H1136 C1146 0.950 . S
H1137 C1148 0.950 . S
H1138 C1150 0.950 . S
H1139 C1151 0.950 . S
C1140 H1132 0.950 . S
C1140 C1141 1.386 . S
C1140 C1142 1.391 . S
C1141 C1140 1.386 . S
C1141 C1145 1.393 . S
C1142 H1134 0.950 . S
C1142 C1140 1.391 . S
C1142 C1143 1.400 . S
C1143 C1142 1.400 . S
C1143 C1144 1.398 . S
C1143 C1149 1.491 . S
C1144 H1135 0.950 . S
C1144 C1143 1.398 . S
C1144 C1145 1.391 . S
C1145 H1133 0.950 . S
C1145 C1141 1.393 . S
C1145 C1144 1.391 . S
C1146 H1136 0.950 . S
C1146 C1147 1.386 . S
C1146 C1148 1.391 . S
C1147 C1146 1.386 . S
C1147 C1151 1.393 . S
C1148 H1137 0.950 . S
C1148 C1146 1.391 . S
C1148 C1149 1.400 . S
C1149 C1143 1.491 . S
C1149 C1148 1.400 . S
C1149 C1150 1.398 . S
C1150 H1138 0.950 . S
C1150 C1149 1.398 . S
C1150 C1151 1.391 . S
C1151 H1139 0.950 . S
C1151 C1147 1.393 . S
C1151 C1150 1.391 . S
H1152 C1160 0.950 . S
H1153 C1165 0.950 . S
H1154 C1162 0.950 . S
H1155 C1164 0.950 . S
H1156 C1166 0.950 . S
H1157 C1168 0.950 . S
H1158 C1170 0.950 . S
H1159 C1171 0.950 . S
C1160 H1152 0.950 . S
C1160 C1161 1.386 . S
C1160 C1162 1.391 . S
C1161 C1160 1.386 . S
C1161 C1165 1.393 . S
C1162 H1154 0.950 . S
C1162 C1160 1.391 . S
C1162 C1163 1.400 . S
C1163 C1162 1.400 . S
C1163 C1164 1.398 . S
C1163 C1169 1.491 . S
C1164 H1155 0.950 . S
C1164 C1163 1.398 . S
C1164 C1165 1.391 . S
C1165 H1153 0.950 . S
C1165 C1161 1.393 . S
C1165 C1164 1.391 . S
C1166 H1156 0.950 . S
C1166 C1167 1.386 . S
C1166 C1168 1.391 . S
C1167 C1166 1.386 . S
C1167 C1171 1.393 . S
C1168 H1157 0.950 . S
C1168 C1166 1.391 . S
C1168 C1169 1.400 . S
C1169 C1163 1.491 . S
C1169 C1168 1.400 . S
C1169 C1170 1.398 . S
C1170 H1158 0.950 . S
C1170 C1169 1.398 . S
C1170 C1171 1.391 . S
C1171 H1159 0.950 . S
C1171 C1167 1.393 . S
C1171 C1170 1.391 . S
C707 C355 1.498 . S
C701 C15 1.507 . S
C727 C435 1.656 . S
C721 C55 1.721 . S
C747 C367 1.631 . S
C741 C101 1.712 . S
C767 C411 1.787 . S
C761 C141 1.974 . S
C787 C479 1.441 . S
C781 C2 1.437 . S
C807 C559 1.484 . S
C801 C61 1.501 . S
C821 C95 1.829 . S
C827 C621 1.772 . S
C847 C677 1.506 . S
C841 C135 1.623 . S
C867 C491 1.514 . S
C861 C42 1.608 . S
C881 C82 1.596 . S
C887 C535 1.482 . S
C907 C597 1.833 . S
C901 C122 2.042 . S
C927 C665 1.487 . S
C921 C21 1.500 . S
C941 C162 1.975 . S
C947 C429 1.800 . S
C967 C349 1.613 . S
C961 C221 1.719 . S
C981 C255 1.720 . S
C987 C417 1.666 . S
C1001 C282 1.467 . S
C1007 C373 1.503 . S
C1027 C615 1.859 . S
C1021 C181 2.053 . S
C1047 C659 1.524 . S
C1041 C202 1.629 . S
C1067 C473 1.514 . S
C1061 C242 1.660 . S
C1081 C301 1.497 . S
C1087 C541 1.476 . S
C1107 C603 1.744 . S
C1101 C215 1.820 . S
C1127 C683 1.473 . S
C1121 C261 1.522 . S
C1147 C497 1.446 . S
C1141 C295 1.468 . S
C1161 C175 1.622 . S
C1167 C553 1.483 . S
