# Generated by pormake.
# Topology anh, (6,3)-cn, num edge types: 1
# Building blocks:
#     Node 0, Type 0, BuildingBlock: BETGAK_clean_sbu_0, # of connection points: 6
#     Node 1, Type 0, BuildingBlock: BETGAK_clean_sbu_0, # of connection points: 6
#     Node 2, Type 0, BuildingBlock: BETGAK_clean_sbu_0, # of connection points: 6
#     Node 3, Type 1, BuildingBlock: MIDCAF_clean_linker_0, # of connection points: 3
#     Node 4, Type 1, BuildingBlock: MIDCAF_clean_linker_0, # of connection points: 3
#     Node 5, Type 1, BuildingBlock: MIDCAF_clean_linker_0, # of connection points: 3
#     Node 6, Type 1, BuildingBlock: MIDCAF_clean_linker_0, # of connection points: 3
#     Node 7, Type 1, BuildingBlock: MIDCAF_clean_linker_0, # of connection points: 3
#     Node 8, Type 1, BuildingBlock: MIDCAF_clean_linker_0, # of connection points: 3
#     Edge 9, Type (0, 1), BuildingBlock: AJUNOK_clean_linker_0, # of connection points: 2
#     Edge 10, Type (0, 1), BuildingBlock: AJUNOK_clean_linker_0, # of connection points: 2
#     Edge 11, Type (0, 1), BuildingBlock: AJUNOK_clean_linker_0, # of connection points: 2
#     Edge 12, Type (0, 1), BuildingBlock: AJUNOK_clean_linker_0, # of connection points: 2
#     Edge 13, Type (0, 1), BuildingBlock: AJUNOK_clean_linker_0, # of connection points: 2
#     Edge 14, Type (0, 1), BuildingBlock: AJUNOK_clean_linker_0, # of connection points: 2
#     Edge 15, Type (0, 1), BuildingBlock: AJUNOK_clean_linker_0, # of connection points: 2
#     Edge 16, Type (0, 1), BuildingBlock: AJUNOK_clean_linker_0, # of connection points: 2
#     Edge 17, Type (0, 1), BuildingBlock: AJUNOK_clean_linker_0, # of connection points: 2
#     Edge 18, Type (0, 1), BuildingBlock: AJUNOK_clean_linker_0, # of connection points: 2
#     Edge 19, Type (0, 1), BuildingBlock: AJUNOK_clean_linker_0, # of connection points: 2
#     Edge 20, Type (0, 1), BuildingBlock: AJUNOK_clean_linker_0, # of connection points: 2
#     Edge 21, Type (0, 1), BuildingBlock: AJUNOK_clean_linker_0, # of connection points: 2
#     Edge 22, Type (0, 1), BuildingBlock: AJUNOK_clean_linker_0, # of connection points: 2
#     Edge 23, Type (0, 1), BuildingBlock: AJUNOK_clean_linker_0, # of connection points: 2
#     Edge 24, Type (0, 1), BuildingBlock: AJUNOK_clean_linker_0, # of connection points: 2
#     Edge 25, Type (0, 1), BuildingBlock: AJUNOK_clean_linker_0, # of connection points: 2
#     Edge 26, Type (0, 1), BuildingBlock: AJUNOK_clean_linker_0, # of connection points: 2
# Relax obj value: 0.216
# Max RMSD: 0.223
# Mean RMSD: 0.165
data_MOF--net-anh--node1-BETGAK_clean_sbu_0--node2-MIDCAF_clean_linker_0--edge1-AJUNOK_clean_linker_0
_symmetry_space_group_name_H-M    P1
_symmetry_Int_Tables_number       1
_symmetry_cell_setting            triclinic
loop_
_symmetry_equiv_pos_as_xyz
'x, y, z'
_cell_length_a     28.408839
_cell_length_b     35.604544
_cell_length_c     52.800346
_cell_angle_alpha  92.338973
_cell_angle_beta   88.510848
_cell_angle_gamma 131.14956
loop_
_atom_site_label
_atom_site_type_symbol
_atom_site_fract_x
_atom_site_fract_y
_atom_site_fract_z
_atom_type_partial_charge
La0 La 0.18579 0.55273 0.13929 0.0
La1 La 1.09685 0.57205 0.15682 0.0
C2 C 0.26942 0.55806 0.11771 0.0
C3 C 0.33429 0.58628 0.12541 0.0
C4 C 0.35192 0.60208 0.15087 0.0
C5 C 0.40965 0.6197 0.15941 0.0
C6 C 0.45065 0.62255 0.14246 0.0
C7 C 0.43543 0.61189 0.11648 0.0
C8 C 0.37733 0.59353 0.10804 0.0
C9 C 0.16482 0.54939 0.18808 0.0
C10 C 0.23898 0.66578 0.14959 0.0
C11 C 1.01934 0.56506 0.18471 0.0
C12 C 0.95164 0.52322 0.18381 0.0
C13 C 0.92538 0.49375 0.16144 0.0
C14 C 0.86328 0.44979 0.16082 0.0
C15 C 0.82596 0.43398 0.18261 0.0
C16 C 0.85197 0.46361 0.20505 0.0
C17 C 0.91481 0.50782 0.20571 0.0
C18 C 1.09419 0.55711 0.10655 0.0
C19 C 1.04441 0.46111 0.14569 0.0
O20 O 0.22769 0.52218 0.13282 0.0
O21 O 0.25532 0.58469 0.11128 0.0
O22 O 0.17798 0.52453 0.17655 0.0
O23 O 0.17027 0.57841 0.17294 0.0
O24 O 0.24924 0.63518 0.14277 0.0
O25 O 0.18337 0.64932 0.15705 0.0
O26 O 1.04396 0.59308 0.16467 0.0
O27 O 1.0507 0.55213 0.19177 0.0
O28 O 1.06251 0.56716 0.11804 0.0
O29 O 0.12214 0.55535 0.12357 0.0
O30 O 1.04039 0.49159 0.15852 0.0
O31 O 1.09454 0.47837 0.13189 0.0
H32 H 0.31927 0.5974 0.16446 0.0
H33 H 0.42014 0.62726 0.1795 0.0
H34 H 0.46573 0.61287 0.10307 0.0
H35 H 0.36453 0.58195 0.08831 0.0
H36 H 0.95325 0.50424 0.14445 0.0
H37 H 0.84411 0.42865 0.14304 0.0
H38 H 0.82378 0.45246 0.222 0.0
H39 H 0.93482 0.52949 0.22331 0.0
La40 La 0.67417 0.03562 0.47329 0.0
La41 La 0.59581 0.06179 0.46585 0.0
C42 C 0.72168 1.00017 0.48764 0.0
C43 C 0.70256 0.95162 0.49373 0.0
C44 C 0.71835 0.92961 0.47706 0.0
C45 C 0.70637 0.88634 0.48352 0.0
C46 C 0.67909 0.86463 0.50694 0.0
C47 C 0.66127 0.88556 0.52328 0.0
C48 C 0.67298 0.92871 0.51677 0.0
C49 C 0.67246 0.05786 0.42665 0.0
C50 C 0.52704 0.94928 0.46375 0.0
C51 C 0.55038 0.09929 0.45221 0.0
C52 C 0.56411 0.1466 0.45811 0.0
C53 C 0.51686 0.14502 0.46845 0.0
C54 C 0.52976 0.18899 0.47619 0.0
C55 C 0.59017 0.23559 0.47353 0.0
C56 C 0.6372 0.23724 0.46266 0.0
C57 C 0.62429 0.19319 0.45495 0.0
C58 C 0.60086 0.04239 0.51301 0.0
C59 C 0.74458 0.14926 0.47327 0.0
O60 O 0.71702 1.00645 0.4639 0.0
O61 O 0.70455 1.01893 0.50317 0.0
O62 O 0.72074 0.069 0.4375 0.0
O63 O 0.62601 0.03238 0.44132 0.0
O64 O 0.57801 0.96233 0.47433 0.0
O65 O 0.52728 0.98337 0.45454 0.0
O66 O 0.52867 0.06915 0.47107 0.0
O67 O 0.59195 0.10172 0.43901 0.0
O68 O 0.55241 0.03187 0.5028 0.0
O69 O 0.64549 0.06639 0.49754 0.0
O70 O 0.69046 0.13591 0.46682 0.0
O71 O 0.74848 0.1158 0.47959 0.0
H72 H 0.74164 0.94667 0.45927 0.0
H73 H 0.72073 0.87101 0.47067 0.0
H74 H 0.63938 0.86904 0.54132 0.0
H75 H 0.66022 0.94469 0.53006 0.0
H76 H 0.4702 0.10955 0.47119 0.0
H77 H 0.49289 0.18635 0.48504 0.0
H78 H 0.68417 0.27262 0.46036 0.0
H79 H 0.66167 0.19564 0.44695 0.0
La80 La 0.66648 0.57729 0.83921 0.0
La81 La 0.57326 0.46521 0.83602 0.0
C82 C 0.72755 0.66797 0.82975 0.0
C83 C 0.71611 0.70142 0.8231 0.0
C84 C 0.75799 0.75148 0.83169 0.0
C85 C 0.75071 0.78484 0.82449 0.0
C86 C 0.70128 0.76884 0.8085 0.0
C87 C 0.65839 0.71835 0.80041 0.0
C88 C 0.66589 0.68499 0.80752 0.0
C89 C 0.63442 0.53212 0.88249 0.0
C90 C 0.51711 0.51798 0.83991 0.0
C91 C 0.51823 0.37487 0.84296 0.0
C92 C 0.53369 0.34328 0.83626 0.0
C93 C 0.5675 0.35135 0.81415 0.0
C94 C 0.58128 0.32093 0.80778 0.0
C95 C 0.56205 0.28194 0.82347 0.0
C96 C 0.52969 0.27489 0.84597 0.0
C97 C 0.51546 0.30514 0.85223 0.0
C98 C 0.60455 0.50872 0.79239 0.0
C99 C 0.7239 0.52582 0.83839 0.0
O100 O 0.71226 0.65066 0.85267 0.0
O101 O 0.71259 0.63388 0.81267 0.0
O102 O 0.69016 0.57395 0.87791 0.0
O103 O 0.59933 0.5196 0.86404 0.0
O104 O 0.57542 0.55951 0.835 0.0
O105 O 0.50553 0.47584 0.84402 0.0
O106 O 0.50621 0.39007 0.82401 0.0
O107 O 0.5544 0.4107 0.85989 0.0
O108 O 0.54963 0.46699 0.79749 0.0
O109 O 0.6407 0.52246 0.81073 0.0
O110 O 0.6647 0.48286 0.83885 0.0
O111 O 0.73655 0.56882 0.83668 0.0
H112 H 0.79701 0.765 0.84373 0.0
H113 H 0.78396 0.8233 0.83134 0.0
H114 H 0.61988 0.70496 0.78807 0.0
H115 H 0.63291 0.64656 0.80061 0.0
H116 H 0.58295 0.38101 0.80166 0.0
H117 H 0.60618 0.32746 0.79031 0.0
H118 H 0.51569 0.24622 0.85887 0.0
H119 H 0.49022 0.29876 0.86959 0.0
C120 C 0.44421 0.89873 0.18775 0.0
C121 C 0.45088 0.87828 0.16615 0.0
C122 C 0.50895 0.90755 0.15356 0.0
C123 C 0.55947 0.95612 0.16269 0.0
H124 H 0.70568 0.13844 0.15009 0.0
H125 H 0.78864 0.22204 0.13318 0.0
H126 H 0.90339 0.26133 0.19822 0.0
H127 H 0.82184 0.17901 0.21509 0.0
H128 H 0.7307 0.14921 0.26835 0.0
H129 H 0.73246 0.15108 0.31457 0.0
H130 H 0.58448 0.99091 0.31405 0.0
H131 H 0.581 0.98898 0.26793 0.0
H132 H 0.48774 0.96038 0.2141 0.0
H133 H 0.40058 0.87694 0.19815 0.0
H134 H 0.51542 0.8926 0.1369 0.0
H135 H 0.60416 0.97739 0.15313 0.0
N136 N 0.65534 0.06357 0.18438 0.0
N137 N 0.70349 0.10735 0.22306 0.0
N138 N 0.60815 0.02553 0.22327 0.0
C139 C 0.70391 0.10609 0.19726 0.0
C140 C 0.6559 0.06732 0.2362 0.0
C141 C 0.60715 0.02301 0.19753 0.0
C142 C 0.7567 0.15216 0.18411 0.0
C143 C 0.7493 0.16446 0.16038 0.0
C144 C 0.79672 0.21217 0.15068 0.0
C145 C 0.85227 0.24791 0.16444 0.0
C146 C 0.86107 0.23438 0.18723 0.0
C147 C 0.81404 0.18724 0.19693 0.0
C148 C 0.65614 0.0689 0.26435 0.0
C149 C 0.69842 0.11436 0.27806 0.0
C150 C 0.69964 0.11544 0.30456 0.0
C151 C 0.6593 0.07103 0.31795 0.0
C152 C 0.61599 0.02576 0.30429 0.0
C153 C 0.6143 0.0247 0.27782 0.0
C154 C 0.55295 0.97563 0.18486 0.0
C155 C 0.49443 0.94656 0.19697 0.0
C156 C 0.65006 0.41433 0.54798 0.0
C157 C 0.64063 0.4091 0.52166 0.0
C158 C 0.64056 0.44343 0.50946 0.0
C159 C 0.64804 0.48136 0.52344 0.0
H160 H 0.68657 0.62367 0.51983 0.0
H161 H 0.68951 0.689 0.50371 0.0
H162 H 0.61536 0.69434 0.57481 0.0
H163 H 0.61353 0.63056 0.59103 0.0
H164 H 0.64448 0.60636 0.63906 0.0
H165 H 0.64003 0.60287 0.68507 0.0
H166 H 0.68846 0.51065 0.68162 0.0
H167 H 0.69255 0.51344 0.63526 0.0
H168 H 0.66372 0.4543 0.58226 0.0
H169 H 0.65013 0.38835 0.55792 0.0
H170 H 0.63466 0.44094 0.4891 0.0
H171 H 0.6469 0.50675 0.51348 0.0
N172 N 0.65592 0.55551 0.55394 0.0
N173 N 0.66092 0.58938 0.59384 0.0
N174 N 0.66513 0.526 0.5909 0.0
C175 C 0.65616 0.58824 0.56829 0.0
C176 C 0.66577 0.55875 0.60533 0.0
C177 C 0.66011 0.52396 0.56519 0.0
C178 C 0.65106 0.62271 0.55686 0.0
C179 C 0.67033 0.6385 0.53186 0.0
C180 C 0.67198 0.67577 0.52264 0.0
C181 C 0.65416 0.6975 0.53829 0.0
C182 C 0.63117 0.67931 0.56264 0.0
C183 C 0.63 0.64265 0.57186 0.0
C184 C 0.66835 0.55977 0.63337 0.0
C185 C 0.65502 0.58578 0.64797 0.0
C186 C 0.65254 0.58395 0.67433 0.0
C187 C 0.66424 0.55677 0.68673 0.0
C188 C 0.68003 0.53236 0.67239 0.0
C189 C 0.68181 0.53364 0.64589 0.0
C190 C 0.65596 0.48585 0.54992 0.0
C191 C 0.65762 0.45216 0.56193 0.0
C192 C 0.91494 0.48245 0.86631 0.0
C193 C 0.92659 0.5175 0.84948 0.0
C194 C 0.98675 0.54934 0.83811 0.0
C195 C 1.0339 0.54779 0.84444 0.0
H196 H 0.16223 0.47004 0.83816 0.0
H197 H 0.24521 0.46724 0.82731 0.0
H198 H 0.36543 0.58368 0.88356 0.0
H199 H 0.28409 0.5866 0.8941 0.0
H200 H 0.19061 0.53287 0.9505 0.0
H201 H 0.18608 0.53877 -0.00336 0.0
H202 H 1.03934 0.5439 0.9898 0.0
H203 H 1.04245 0.53674 0.94393 0.0
H204 H 0.95091 0.45516 0.88677 0.0
H205 H 0.87014 0.4573 0.87573 0.0
H206 H 0.99802 0.57623 0.82457 0.0
H207 H 1.08018 0.57478 0.83642 0.0
N208 N 0.11931 0.52145 0.86329 0.0
N209 N 0.16231 0.53114 0.90333 0.0
N210 N 1.07498 0.52429 0.90096 0.0
C211 C 0.16387 0.52684 0.87761 0.0
C212 C 0.11829 0.52982 0.91515 0.0
C213 C 1.07436 0.5203 0.87529 0.0
C214 C 0.216 0.52915 0.86682 0.0
C215 C 0.20693 0.49593 0.84772 0.0
C216 C 0.25451 0.49389 0.84174 0.0
C217 C 0.31318 0.52557 0.85431 0.0
C218 C 0.32212 0.55927 0.87294 0.0
C219 C 0.27483 0.56086 0.87906 0.0
C220 C 0.11694 0.53431 0.94332 0.0
C221 C 0.15745 0.53536 0.95879 0.0
C222 C 0.15516 0.53909 0.98528 0.0
C223 C 0.11267 0.54223 -0.00306 0.0
C224 C 1.0723 0.54119 0.98147 0.0
C225 C 1.07435 0.53726 0.95508 0.0
C226 C 1.02252 0.51415 0.86226 0.0
C227 C 0.9617 0.48104 0.87261 0.0
C228 C 0.27259 0.72847 0.42372 0.0
C229 C 0.30629 0.73872 0.44579 0.0
C230 C 0.28966 0.6982 0.45938 0.0
C231 C 0.24092 0.64863 0.4508 0.0
H232 H 1.03581 0.479 0.46416 0.0
H233 H 0.95688 0.39622 0.48245 0.0
H234 H 0.979 0.32913 0.41879 0.0
H235 H 1.05698 0.41076 0.40073 0.0
H236 H 0.11941 0.47609 0.34604 0.0
H237 H 0.12432 0.47697 0.29992 0.0
H238 H 0.11853 0.59543 0.3012 0.0
H239 H 0.11912 0.59715 0.34747 0.0
H240 H 0.2009 0.67351 0.39772 0.0
H241 H 0.28481 0.75854 0.41245 0.0
H242 H 0.31485 0.70489 0.47645 0.0
H243 H 0.23037 0.61828 0.46119 0.0
N244 N 0.13046 0.5451 0.42977 0.0
N245 N 1.0898 0.49712 0.39159 0.0
N246 N 0.15863 0.58408 0.39057 0.0
C247 C 1.09275 0.49942 0.41735 0.0
C248 C 0.12207 0.53918 0.37816 0.0
C249 C 0.164 0.58777 0.41622 0.0
C250 C 1.05282 0.45158 0.43099 0.0
C251 C 1.02484 0.44667 0.45445 0.0
C252 C 0.97935 0.39928 0.46481 0.0
C253 C 0.96201 0.35611 0.45217 0.0
C254 C 0.99196 0.36155 0.42927 0.0
C255 C 1.03649 0.40847 0.41883 0.0
C256 C 0.11892 0.53654 0.35023 0.0
C257 C 0.11859 0.50192 0.33637 0.0
C258 C 0.12063 0.50211 0.30989 0.0
C259 C 0.12064 0.53568 0.29663 0.0
C260 C 0.11913 0.56934 0.31068 0.0
C261 C 0.11914 0.57021 0.33717 0.0
C262 C 0.20865 0.63877 0.42824 0.0
C263 C 0.22455 0.67944 0.41516 0.0
C264 C 0.63466 0.16546 0.75944 0.0
C265 C 0.61309 0.15574 0.78453 0.0
C266 C 0.60155 0.11573 0.79651 0.0
C267 C 0.61052 0.08563 0.78341 0.0
H268 H 0.6282 0.97164 0.78849 0.0
H269 H 0.64161 0.91653 0.80634 0.0
H270 H 0.70285 0.90375 0.73347 0.0
H271 H 0.68955 0.95816 0.71558 0.0
H272 H 0.67313 0.99671 0.66555 0.0
H273 H 0.66444 0.99653 0.61937 0.0
H274 H 0.58818 0.06817 0.62954 0.0
H275 H 0.59703 0.06894 0.67532 0.0
H276 H 0.6587 0.14378 0.72686 0.0
H277 H 0.64373 0.19581 0.74965 0.0
H278 H 0.58543 0.10767 0.81596 0.0
H279 H 0.60046 0.05469 0.79296 0.0
N280 N 0.6427 0.03121 0.75382 0.0
N281 N 0.64749 1.00337 0.71336 0.0
N282 N 0.63405 0.06143 0.71713 0.0
C283 C 0.64901 1.00223 0.73909 0.0
C284 C 0.63959 0.03263 0.70225 0.0
C285 C 0.63577 0.06138 0.7428 0.0
C286 C 0.65785 0.96959 0.75057 0.0
C287 C 0.64478 0.95727 0.7763 0.0
C288 C 0.65217 0.92554 0.78652 0.0
C289 C 0.67382 0.90622 0.77135 0.0
C290 C 0.68694 0.9186 0.74572 0.0
C291 C 0.6789 0.94965 0.73546 0.0
C292 C 0.63562 0.0327 0.67422 0.0
C293 C 0.65453 1.01244 0.65794 0.0
C294 C 0.64985 1.01248 0.63154 0.0
C295 C 0.62515 0.03194 0.62102 0.0
C296 C 0.60673 0.05245 0.63722 0.0
C297 C 0.61213 0.05304 0.66347 0.0
C298 C 0.63032 0.0946 0.75798 0.0
C299 C 0.64285 0.13527 0.74633 0.0
C300 C 0.60321 0.31199 0.11427 0.0
C301 C 0.58739 0.30695 0.14018 0.0
C302 C 0.53537 0.30161 0.14744 0.0
C303 C 0.50834 0.31136 0.13025 0.0
H304 H 0.54676 0.44611 0.1456 0.0
H305 H 0.56133 0.51421 0.16873 0.0
H306 H 0.56456 0.57169 0.09757 0.0
H307 H 0.55167 0.50569 0.0748 0.0
H308 H 0.47192 0.41313 0.02615 0.0
H309 H 0.49471 0.43931 0.98253 0.0
H310 H 0.61781 0.40793 0.97606 0.0
H311 H 0.59506 0.38176 0.02037 0.0
H312 H 0.59403 0.33097 0.07792 0.0
H313 H 0.6431 0.31641 0.1079 0.0
H314 H 0.5213 0.29671 0.16714 0.0
H315 H 0.47401 0.31368 0.13711 0.0
N316 N 0.53108 0.39281 0.10558 0.0
N317 N 0.53339 0.42673 0.06825 0.0
N318 N 0.52684 0.35748 0.06605 0.0
C319 C 0.53539 0.42806 0.09385 0.0
C320 C 0.52877 0.39174 0.05425 0.0
C321 C 0.52608 0.35713 0.09188 0.0
C322 C 0.54705 0.46993 0.10834 0.0
C323 C 0.55166 0.47387 0.13496 0.0
C324 C 0.56071 0.51311 0.14821 0.0
C325 C 0.56562 0.54909 0.13503 0.0
C326 C 0.56347 0.54595 0.10841 0.0
C327 C 0.55454 0.50712 0.09528 0.0
C328 C 0.53157 0.39528 0.02651 0.0
C329 C 0.50247 0.41042 0.01522 0.0
C330 C 0.51538 0.42528 0.99022 0.0
C331 C 0.55778 0.42539 0.97592 0.0
C332 C 0.58485 0.40803 0.98676 0.0
C333 C 0.57135 0.39258 0.01191 0.0
C334 C 0.53198 0.32518 0.10549 0.0
C335 C 0.57527 0.32073 0.09697 0.0
C336 C 0.47728 0.5807 0.16621 0.0
C337 C 0.49839 0.62174 0.1519 0.0
C338 C 0.50697 0.56131 0.1643 0.0
C339 C 0.55869 0.58282 0.14817 0.0
H340 H 0.43251 0.55892 0.17578 0.0
H341 H 0.48362 0.52539 0.17243 0.0
S342 S 0.64628 0.70273 0.11586 0.0
N343 N 0.58388 0.69173 0.12763 0.0
N344 N 0.64152 0.65639 0.12484 0.0
C345 C 0.58772 0.6299 0.1385 0.0
C346 C 0.55686 0.64913 0.14007 0.0
C347 C 0.79808 0.24017 0.47124 0.0
C348 C 0.80245 0.20296 0.47165 0.0
C349 C 0.85055 0.29013 0.46635 0.0
C350 C 0.90958 0.30498 0.46143 0.0
H351 H 0.7534 0.23049 0.47412 0.0
H352 H 0.84416 0.31685 0.46525 0.0
S353 S 0.94803 0.2236 0.46246 0.0
N354 N 0.87228 0.18568 0.46835 0.0
N355 N 0.9704 0.27928 0.45922 0.0
C356 C 0.91529 0.26874 0.46294 0.0
C357 C 0.86201 0.21793 0.46809 0.0
C358 C 0.63885 0.79514 0.8024 0.0
C359 C 0.69558 0.80504 0.79971 0.0
C360 C 0.6326 0.82866 0.79389 0.0
C361 C 0.68248 0.87288 0.78194 0.0
H362 H 0.59907 0.76128 0.81124 0.0
H363 H 0.58797 0.81933 0.79613 0.0
S364 S 0.84074 0.91632 0.77035 0.0
N365 N 0.80259 0.86259 0.78436 0.0
N366 N 0.79073 0.92515 0.76833 0.0
C367 C 0.73945 0.8833 0.77928 0.0
C368 C 0.74603 0.84955 0.78817 0.0
C369 C 0.71558 0.39664 0.18635 0.0
C370 C 0.75837 0.39026 0.18034 0.0
C371 C 0.65544 0.36425 0.17597 0.0
C372 C 0.63621 0.32447 0.15921 0.0
H373 H 0.73068 0.42987 0.19669 0.0
H374 H 0.62703 0.37434 0.17873 0.0
S375 S 0.72434 0.28294 0.14455 0.0
N376 N 0.77298 0.33488 0.16185 0.0
N377 N 0.65932 0.27355 0.14242 0.0
C378 C 0.67524 0.31334 0.15642 0.0
C379 C 0.73662 0.34645 0.16695 0.0
C380 C 0.47279 0.85772 0.46235 0.0
C381 C 0.46941 0.89542 0.46127 0.0
C382 C 0.41947 0.80694 0.45843 0.0
C383 C 0.36054 0.79176 0.45341 0.0
H384 H 0.51731 0.86755 0.46547 0.0
H385 H 0.42495 0.77957 0.45838 0.0
S386 S 0.32442 0.87471 0.45241 0.0
N387 N 0.40059 0.91313 0.45729 0.0
N388 N 0.30095 0.81821 0.45036 0.0
C389 C 0.35599 0.82884 0.45362 0.0
C390 C 0.41017 0.88042 0.45742 0.0
C391 C 0.63465 0.2696 0.80617 0.0
C392 C 0.57556 0.24883 0.816 0.0
C393 C 0.64709 0.2393 0.797 0.0
C394 C 0.60118 0.18689 0.79742 0.0
H395 H 0.6715 0.30971 0.80523 0.0
H396 H 0.69282 0.25707 0.7891 0.0
S397 S 0.43887 0.11344 0.82101 0.0
N398 N 0.47054 0.17211 0.82548 0.0
N399 N 0.49445 0.11546 0.80862 0.0
C400 C 0.54253 0.16556 0.80784 0.0
C401 C 0.52961 0.1964 0.81703 0.0
C402 C 0.64334 0.77916 0.49927 0.0
C403 C 0.67302 0.82222 0.515 0.0
C404 C 0.63792 0.739 0.50669 0.0
C405 C 0.66218 0.74074 0.53003 0.0
H406 H 0.62353 0.77629 0.48128 0.0
H407 H 0.61373 0.7061 0.4943 0.0
S408 S 0.75065 0.84748 0.57652 0.0
N409 N 0.7311 0.86573 0.55393 0.0
N410 N 0.72141 0.79069 0.56778 0.0
C411 C 0.69354 0.78423 0.54551 0.0
C412 C 0.6988 0.82484 0.53803 0.0
C413 C 0.76429 0.47944 0.84066 0.0
C414 C 0.77703 0.52507 0.83987 0.0
C415 C 0.81231 0.47747 0.84311 0.0
C416 C 0.8764 0.52098 0.84487 0.0
H417 H 0.7164 0.44448 0.8396 0.0
H418 H 0.79873 0.44109 0.84365 0.0
S419 S 0.93645 0.65056 0.84408 0.0
N420 N 0.8601 0.61535 0.84102 0.0
N421 N 0.94908 0.61163 0.8459 0.0
C422 C 0.88994 0.56692 0.84381 0.0
C423 C 0.84095 0.56894 0.8413 0.0
C424 C 0.3549 0.73928 0.15198 0.0
C425 C 0.29317 0.72068 0.15087 0.0
C426 C 0.4062 0.79064 0.15559 0.0
C427 C 0.39782 0.82543 0.15814 0.0
H428 H 0.36365 0.71388 0.15103 0.0
H429 H 0.45242 0.80292 0.15752 0.0
S430 S 0.2475 0.79749 0.15269 0.0
N431 N 0.22793 0.74238 0.14988 0.0
N432 N 0.32409 0.83839 0.15652 0.0
C433 C 0.33693 0.80771 0.15561 0.0
C434 C 0.28476 0.75556 0.15201 0.0
C435 C 0.65692 0.31509 0.49971 0.0
C436 C 0.60497 0.28194 0.48366 0.0
C437 C 0.66895 0.35675 0.51138 0.0
C438 C 0.62974 0.36711 0.50734 0.0
H439 H 0.68746 0.30793 0.50395 0.0
H440 H 0.70887 0.38072 0.52394 0.0
S441 S 0.48952 0.29346 0.46589 0.0
N442 N 0.51588 0.26373 0.46326 0.0
N443 N 0.53772 0.34145 0.48559 0.0
C444 C 0.57868 0.33509 0.49075 0.0
C445 C 0.56639 0.29262 0.47888 0.0
C446 C 0.40134 0.47642 0.84499 0.0
C447 C 0.46495 0.52007 0.84232 0.0
C448 C 0.35269 0.47809 0.84797 0.0
C449 C 0.36479 0.52359 0.84881 0.0
H450 H 0.38878 0.44036 0.84496 0.0
H451 H 0.30523 0.44337 0.85034 0.0
S452 S 0.52213 0.64892 0.84164 0.0
N453 N 0.53589 0.6105 0.84004 0.0
N454 N 0.44591 0.61337 0.84548 0.0
C455 C 0.42794 0.56734 0.84574 0.0
C456 C 0.47729 0.56568 0.84255 0.0
C457 C 0.98706 0.37041 0.13342 0.0
C458 C 0.99228 0.40623 0.14896 0.0
C459 C 0.94003 0.31879 0.13764 0.0
C460 C 0.8971 0.30134 0.15767 0.0
H461 H 1.01996 0.38228 0.11814 0.0
H462 H 0.93842 0.29252 0.12567 0.0
S463 S 0.88929 0.37821 0.20386 0.0
N464 N 0.94835 0.41901 0.1852 0.0
N465 N 0.86183 0.32303 0.19286 0.0
C466 C 0.90104 0.33637 0.17299 0.0
C467 C 0.94806 0.38849 0.1687 0.0
C468 C 1.04653 0.52041 0.06384 0.0
C469 C 1.10027 0.55344 0.0789 0.0
C470 C 1.05105 0.51651 0.03746 0.0
C471 C 0.10951 0.54604 0.02511 0.0
H472 H 1.00069 0.49703 0.07256 0.0
H473 H 1.00835 0.48997 0.02666 0.0
S474 S 0.26369 0.64297 0.05606 0.0
N475 N 0.21306 0.619 0.07966 0.0
N476 N 0.22203 0.61218 0.03015 0.0
C477 C 0.16354 0.58 0.04007 0.0
C478 C 0.15879 0.58364 0.06694 0.0
C479 C 0.61256 0.04063 0.38733 0.0
C480 C 0.67008 0.06484 0.39942 0.0
C481 C 0.60949 0.04364 0.36105 0.0
C482 C 0.66386 0.07127 0.34599 0.0
H483 H 0.56948 1.01827 0.3981 0.0
H484 H 0.56413 0.02383 0.35243 0.0
S485 S 0.82621 0.14298 0.36879 0.0
N486 N 0.78286 0.11894 0.39457 0.0
N487 N 0.77697 0.12377 0.34531 0.0
C488 C 0.72176 0.09665 0.35804 0.0
C489 C 0.72488 0.09363 0.38471 0.0
C490 C 0.57895 0.51561 0.74935 0.0
C491 C 0.62411 0.5269 0.76642 0.0
C492 C 0.59325 0.52703 0.72376 0.0
C493 C 0.65294 0.54936 0.71427 0.0
H494 H 0.53176 0.49694 0.75572 0.0
H495 H 0.55668 0.51676 0.71113 0.0
S496 S 0.78869 0.58865 0.75134 0.0
N497 N 0.73191 0.56391 0.77239 0.0
N498 N 0.75839 0.58438 0.72393 0.0
C499 C 0.69909 0.56199 0.7312 0.0
C500 C 0.68481 0.55115 0.75743 0.0
C501 C 0.66395 0.05789 0.55092 0.0
C502 C 0.60582 0.03635 0.54018 0.0
C503 C 0.66971 0.05487 0.57699 0.0
C504 C 0.61765 0.03069 0.59319 0.0
H505 H 0.70555 0.07819 0.53926 0.0
H506 H 0.71548 0.07295 0.58465 0.0
S507 S 0.45435 0.96456 0.57427 0.0
N508 N 0.49451 0.98705 0.54764 0.0
N509 N 0.50573 0.98214 0.59649 0.0
C510 C 0.55911 1.00777 0.58257 0.0
C511 C 0.5531 1.01041 0.5561 0.0
C512 C 0.65905 0.51477 0.92329 0.0
C513 C 0.61454 0.50266 0.90551 0.0
C514 C 0.64062 0.48776 0.9455 0.0
C515 C 0.57709 0.44787 0.95065 0.0
H516 H 0.70834 0.54571 0.9202 0.0
H517 H 0.67611 0.4994 0.95919 0.0
S518 S 0.44258 0.39929 0.90953 0.0
N519 N 0.50422 0.44693 0.89427 0.0
N520 N 0.47014 0.39568 0.93558 0.0
C521 C 0.53244 0.43438 0.93263 0.0
C522 C 0.55102 0.46194 0.91018 0.0
C523 C 0.17584 0.58798 0.23043 0.0
C524 C 0.14835 0.54508 0.21506 0.0
C525 C 0.16568 0.58451 0.2567 0.0
C526 C 0.1263 0.53786 0.26842 0.0
H527 H 0.20755 0.62456 0.22228 0.0
H528 H 0.19063 0.61884 0.26796 0.0
S529 S 1.03514 0.41403 0.23509 0.0
N530 N 1.07644 0.45466 0.21251 0.0
N531 N 1.05346 0.44752 0.26154 0.0
C532 C 1.09551 0.49452 0.25274 0.0
C533 C 0.10746 0.49829 0.22614 0.0
loop_
_geom_bond_atom_site_label_1
_geom_bond_atom_site_label_2
_geom_bond_distance
_geom_bond_site_symmetry_2
_ccdc_geom_bond_type
La0 C2 2.928 . S
La0 O20 2.521 . S
La0 O21 2.628 . S
La0 O22 2.554 . S
La0 O23 2.757 . S
La0 O24 2.470 . S
La0 O29 2.482 . S
La0 O31 2.503 1_455 S
La1 C11 2.928 . S
La1 O23 2.482 1_655 S
La1 O25 2.503 1_655 S
La1 O26 2.521 . S
La1 O27 2.628 . S
La1 O28 2.554 . S
La1 O29 2.757 1_655 S
La1 O30 2.470 . S
C2 La0 2.928 . S
C2 C3 1.503 . S
C2 O20 1.261 . S
C2 O21 1.243 . S
C3 C2 1.503 . S
C3 C4 1.394 . S
C3 C8 1.373 . S
C4 C3 1.394 . S
C4 C5 1.380 . S
C4 H32 0.930 . S
C5 C4 1.380 . S
C5 C6 1.376 . S
C5 H33 0.930 . S
C6 C5 1.376 . S
C6 C7 1.370 . S
C7 C6 1.370 . S
C7 C8 1.396 . S
C7 H34 0.929 . S
C8 C3 1.373 . S
C8 C7 1.396 . S
C8 H35 0.929 . S
C9 O22 1.240 . S
C9 O23 1.289 . S
C10 O24 1.258 . S
C10 O25 1.256 . S
C11 La1 2.928 . S
C11 C12 1.503 . S
C11 O26 1.261 . S
C11 O27 1.243 . S
C12 C11 1.503 . S
C12 C13 1.394 . S
C12 C17 1.373 . S
C13 C12 1.394 . S
C13 C14 1.380 . S
C13 H36 0.930 . S
C14 C13 1.380 . S
C14 C15 1.376 . S
C14 H37 0.930 . S
C15 C14 1.376 . S
C15 C16 1.370 . S
C16 C15 1.370 . S
C16 C17 1.396 . S
C16 H38 0.929 . S
C17 C12 1.373 . S
C17 C16 1.396 . S
C17 H39 0.929 . S
C18 O28 1.240 1_455 S
C18 O29 1.289 . S
C19 O30 1.258 . S
C19 O31 1.256 . S
O20 La0 2.521 . S
O20 C2 1.261 . S
O21 La0 2.628 . S
O21 C2 1.243 . S
O22 La0 2.554 . S
O22 C9 1.240 . S
O23 La0 2.757 . S
O23 La1 2.482 1_455 S
O23 C9 1.289 . S
O24 La0 2.470 . S
O24 C10 1.258 . S
O25 La1 2.503 1_455 S
O25 C10 1.256 . S
O26 La1 2.521 . S
O26 C11 1.261 . S
O27 La1 2.628 . S
O27 C11 1.243 . S
O28 La1 2.554 . S
O28 C18 1.240 1_655 S
O29 La0 2.482 . S
O29 La1 2.757 1_455 S
O29 C18 1.289 . S
O30 La1 2.470 . S
O30 C19 1.258 . S
O31 La0 2.503 1_655 S
O31 C19 1.256 . S
H32 C4 0.930 . S
H33 C5 0.930 . S
H34 C7 0.929 . S
H35 C8 0.929 . S
H36 C13 0.930 . S
H37 C14 0.930 . S
H38 C16 0.929 . S
H39 C17 0.929 . S
La40 C42 2.928 . S
La40 O60 2.521 . S
La40 O61 2.628 . S
La40 O62 2.554 . S
La40 O63 2.757 1_565 S
La40 O64 2.470 . S
La40 O69 2.482 . S
La40 O71 2.503 1_565 S
La41 C51 2.928 . S
La41 O63 2.482 . S
La41 O65 2.503 1_545 S
La41 O66 2.521 . S
La41 O67 2.628 . S
La41 O68 2.554 . S
La41 O69 2.757 1_545 S
La41 O70 2.470 . S
C42 La40 2.928 . S
C42 C43 1.503 . S
C42 O60 1.261 . S
C42 O61 1.243 . S
C43 C42 1.503 . S
C43 C44 1.394 . S
C43 C48 1.373 . S
C44 C43 1.394 . S
C44 C45 1.380 . S
C44 H72 0.930 . S
C45 C44 1.380 . S
C45 C46 1.376 . S
C45 H73 0.930 . S
C46 C45 1.376 . S
C46 C47 1.370 . S
C47 C46 1.370 . S
C47 C48 1.396 . S
C47 H74 0.929 . S
C48 C43 1.373 . S
C48 C47 1.396 . S
C48 H75 0.929 . S
C49 O62 1.240 1_545 S
C49 O63 1.289 . S
C50 O64 1.258 . S
C50 O65 1.256 . S
C51 La41 2.928 . S
C51 C52 1.503 . S
C51 O66 1.261 . S
C51 O67 1.243 . S
C52 C51 1.503 . S
C52 C53 1.394 . S
C52 C57 1.373 . S
C53 C52 1.394 . S
C53 C54 1.380 . S
C53 H76 0.930 . S
C54 C53 1.380 . S
C54 C55 1.376 . S
C54 H77 0.930 . S
C55 C54 1.376 . S
C55 C56 1.370 . S
C56 C55 1.370 . S
C56 C57 1.396 . S
C56 H78 0.929 . S
C57 C52 1.373 . S
C57 C56 1.396 . S
C57 H79 0.929 . S
C58 O68 1.240 . S
C58 O69 1.289 1_545 S
C59 O70 1.258 . S
C59 O71 1.256 . S
O60 La40 2.521 . S
O60 C42 1.261 . S
O61 La40 2.628 . S
O61 C42 1.243 . S
O62 La40 2.554 . S
O62 C49 1.240 1_565 S
O63 La40 2.757 1_545 S
O63 La41 2.482 . S
O63 C49 1.289 . S
O64 La40 2.470 . S
O64 C50 1.258 . S
O65 La41 2.503 1_565 S
O65 C50 1.256 . S
O66 La41 2.521 . S
O66 C51 1.261 . S
O67 La41 2.628 . S
O67 C51 1.243 . S
O68 La41 2.554 . S
O68 C58 1.240 . S
O69 La40 2.482 . S
O69 La41 2.757 1_565 S
O69 C58 1.289 1_565 S
O70 La41 2.470 . S
O70 C59 1.258 . S
O71 La40 2.503 1_545 S
O71 C59 1.256 . S
H72 C44 0.930 . S
H73 C45 0.930 . S
H74 C47 0.929 . S
H75 C48 0.929 . S
H76 C53 0.930 . S
H77 C54 0.930 . S
H78 C56 0.929 . S
H79 C57 0.929 . S
La80 C82 2.928 . S
La80 O100 2.521 . S
La80 O101 2.628 . S
La80 O102 2.554 . S
La80 O103 2.757 . S
La80 O104 2.470 . S
La80 O109 2.482 . S
La80 O111 2.503 . S
La81 C91 2.928 . S
La81 O103 2.482 . S
La81 O105 2.503 . S
La81 O106 2.521 . S
La81 O107 2.628 . S
La81 O108 2.554 . S
La81 O109 2.757 . S
La81 O110 2.470 . S
C82 La80 2.928 . S
C82 C83 1.503 . S
C82 O100 1.261 . S
C82 O101 1.243 . S
C83 C82 1.503 . S
C83 C84 1.394 . S
C83 C88 1.373 . S
C84 C83 1.394 . S
C84 C85 1.380 . S
C84 H112 0.930 . S
C85 C84 1.380 . S
C85 C86 1.376 . S
C85 H113 0.930 . S
C86 C85 1.376 . S
C86 C87 1.370 . S
C87 C86 1.370 . S
C87 C88 1.396 . S
C87 H114 0.929 . S
C88 C83 1.373 . S
C88 C87 1.396 . S
C88 H115 0.929 . S
C89 O102 1.240 . S
C89 O103 1.289 . S
C90 O104 1.258 . S
C90 O105 1.256 . S
C91 La81 2.928 . S
C91 C92 1.503 . S
C91 O106 1.261 . S
C91 O107 1.243 . S
C92 C91 1.503 . S
C92 C93 1.394 . S
C92 C97 1.373 . S
C93 C92 1.394 . S
C93 C94 1.380 . S
C93 H116 0.930 . S
C94 C93 1.380 . S
C94 C95 1.376 . S
C94 H117 0.930 . S
C95 C94 1.376 . S
C95 C96 1.370 . S
C96 C95 1.370 . S
C96 C97 1.396 . S
C96 H118 0.929 . S
C97 C92 1.373 . S
C97 C96 1.396 . S
C97 H119 0.929 . S
C98 O108 1.240 . S
C98 O109 1.289 . S
C99 O110 1.258 . S
C99 O111 1.256 . S
O100 La80 2.521 . S
O100 C82 1.261 . S
O101 La80 2.628 . S
O101 C82 1.243 . S
O102 La80 2.554 . S
O102 C89 1.240 . S
O103 La80 2.757 . S
O103 La81 2.482 . S
O103 C89 1.289 . S
O104 La80 2.470 . S
O104 C90 1.258 . S
O105 La81 2.503 . S
O105 C90 1.256 . S
O106 La81 2.521 . S
O106 C91 1.261 . S
O107 La81 2.628 . S
O107 C91 1.243 . S
O108 La81 2.554 . S
O108 C98 1.240 . S
O109 La80 2.482 . S
O109 La81 2.757 . S
O109 C98 1.289 . S
O110 La81 2.470 . S
O110 C99 1.258 . S
O111 La80 2.503 . S
O111 C99 1.256 . S
H112 C84 0.930 . S
H113 C85 0.930 . S
H114 C87 0.929 . S
H115 C88 0.929 . S
H116 C93 0.930 . S
H117 C94 0.930 . S
H118 C96 0.929 . S
H119 C97 0.929 . S
C120 C121 1.384 . S
C120 H133 0.947 . S
C120 C155 1.382 . S
C121 C120 1.384 . S
C121 C122 1.378 . S
C122 C121 1.378 . S
C122 C123 1.378 . S
C122 H134 0.952 . S
C123 C122 1.378 . S
C123 H135 0.950 . S
C123 C154 1.383 . S
H124 C143 0.947 . S
H125 C144 0.946 . S
H126 C146 0.953 . S
H127 C147 0.945 . S
H128 C149 0.952 . S
H129 C150 0.949 . S
H130 C152 0.950 . S
H131 C153 0.948 . S
H132 C155 0.951 . S
H133 C120 0.947 . S
H134 C122 0.952 . S
H135 C123 0.950 . S
N136 C139 1.382 . S
N136 C141 1.363 1_545 S
N137 C139 1.371 . S
N137 C140 1.372 . S
N138 C140 1.361 1_565 S
N138 C141 1.377 . S
C139 N136 1.382 . S
C139 N137 1.371 . S
C139 C142 1.480 . S
C140 N137 1.372 . S
C140 N138 1.361 1_545 S
C140 C148 1.457 . S
C141 N136 1.363 1_565 S
C141 N138 1.377 . S
C141 C154 1.479 . S
C142 C139 1.480 . S
C142 C143 1.383 . S
C142 C147 1.385 . S
C143 H124 0.947 . S
C143 C142 1.383 . S
C143 C144 1.388 . S
C144 H125 0.946 . S
C144 C143 1.388 . S
C144 C145 1.384 . S
C145 C144 1.384 . S
C145 C146 1.377 . S
C146 H126 0.953 . S
C146 C145 1.377 . S
C146 C147 1.369 . S
C147 H127 0.945 . S
C147 C142 1.385 . S
C147 C146 1.369 . S
C148 C140 1.457 . S
C148 C149 1.372 . S
C148 C153 1.364 1_545 S
C149 H128 0.952 . S
C149 C148 1.372 . S
C149 C150 1.389 . S
C150 H129 0.949 . S
C150 C149 1.389 . S
C150 C151 1.387 . S
C151 C150 1.387 . S
C151 C152 1.372 1_545 S
C152 H130 0.950 . S
C152 C151 1.372 1_565 S
C152 C153 1.379 . S
C153 H131 0.948 . S
C153 C148 1.364 1_565 S
C153 C152 1.379 . S
C154 C123 1.383 . S
C154 C141 1.479 . S
C154 C155 1.398 . S
C155 C120 1.382 . S
C155 H132 0.951 . S
C155 C154 1.398 . S
C156 C157 1.384 . S
C156 H169 0.947 . S
C156 C191 1.382 . S
C157 C156 1.384 . S
C157 C158 1.378 . S
C158 C157 1.378 . S
C158 C159 1.378 . S
C158 H170 0.952 . S
C159 C158 1.378 . S
C159 H171 0.950 . S
C159 C190 1.383 . S
H160 C179 0.947 . S
H161 C180 0.946 . S
H162 C182 0.953 . S
H163 C183 0.945 . S
H164 C185 0.952 . S
H165 C186 0.949 . S
H166 C188 0.950 . S
H167 C189 0.948 . S
H168 C191 0.951 . S
H169 C156 0.947 . S
H170 C158 0.952 . S
H171 C159 0.950 . S
N172 C175 1.382 . S
N172 C177 1.363 . S
N173 C175 1.371 . S
N173 C176 1.372 . S
N174 C176 1.361 . S
N174 C177 1.377 . S
C175 N172 1.382 . S
C175 N173 1.371 . S
C175 C178 1.480 . S
C176 N173 1.372 . S
C176 N174 1.361 . S
C176 C184 1.457 . S
C177 N172 1.363 . S
C177 N174 1.377 . S
C177 C190 1.479 . S
C178 C175 1.480 . S
C178 C179 1.383 . S
C178 C183 1.385 . S
C179 H160 0.947 . S
C179 C178 1.383 . S
C179 C180 1.388 . S
C180 H161 0.946 . S
C180 C179 1.388 . S
C180 C181 1.384 . S
C181 C180 1.384 . S
C181 C182 1.377 . S
C182 H162 0.953 . S
C182 C181 1.377 . S
C182 C183 1.369 . S
C183 H163 0.945 . S
C183 C178 1.385 . S
C183 C182 1.369 . S
C184 C176 1.457 . S
C184 C185 1.372 . S
C184 C189 1.364 . S
C185 H164 0.952 . S
C185 C184 1.372 . S
C185 C186 1.389 . S
C186 H165 0.949 . S
C186 C185 1.389 . S
C186 C187 1.387 . S
C187 C186 1.387 . S
C187 C188 1.372 . S
C188 H166 0.950 . S
C188 C187 1.372 . S
C188 C189 1.379 . S
C189 H167 0.948 . S
C189 C184 1.364 . S
C189 C188 1.379 . S
C190 C159 1.383 . S
C190 C177 1.479 . S
C190 C191 1.398 . S
C191 C156 1.382 . S
C191 H168 0.951 . S
C191 C190 1.398 . S
C192 C193 1.384 . S
C192 H205 0.947 . S
C192 C227 1.382 . S
C193 C192 1.384 . S
C193 C194 1.378 . S
C194 C193 1.378 . S
C194 C195 1.378 . S
C194 H206 0.952 . S
C195 C194 1.378 . S
C195 H207 0.950 . S
C195 C226 1.383 . S
H196 C215 0.947 . S
H197 C216 0.946 . S
H198 C218 0.953 . S
H199 C219 0.945 . S
H200 C221 0.952 . S
H201 C222 0.949 . S
H202 C224 0.974 . S
H203 C225 0.948 . S
H204 C227 0.951 . S
H205 C192 0.947 . S
H206 C194 0.952 . S
H207 C195 0.950 . S
N208 C211 1.382 . S
N208 C213 1.363 . S
N209 C211 1.371 . S
N209 C212 1.372 . S
N210 C212 1.361 . S
N210 C213 1.377 . S
C211 N208 1.382 . S
C211 N209 1.371 . S
C211 C214 1.480 . S
C212 N209 1.372 . S
C212 N210 1.361 . S
C212 C220 1.457 . S
C213 N208 1.363 . S
C213 N210 1.377 . S
C213 C226 1.479 1_455 S
C214 C211 1.480 . S
C214 C215 1.383 . S
C214 C219 1.385 . S
C215 H196 0.947 . S
C215 C214 1.383 . S
C215 C216 1.388 . S
C216 H197 0.946 . S
C216 C215 1.388 . S
C216 C217 1.384 . S
C217 C216 1.384 . S
C217 C218 1.377 . S
C218 H198 0.953 . S
C218 C217 1.377 . S
C218 C219 1.369 . S
C219 H199 0.945 . S
C219 C214 1.385 . S
C219 C218 1.369 . S
C220 C212 1.457 . S
C220 C221 1.372 . S
C220 C225 1.364 1_455 S
C221 H200 0.952 . S
C221 C220 1.372 . S
C221 C222 1.389 . S
C222 H201 0.949 . S
C222 C221 1.389 . S
C222 C223 1.387 . S
C223 C222 1.387 . S
C223 C224 1.348 1_455 S
C224 H202 0.974 . S
C224 C223 1.348 1_655 S
C224 C225 1.379 . S
C225 H203 0.948 . S
C225 C220 1.364 1_655 S
C225 C224 1.379 . S
C226 C195 1.383 . S
C226 C213 1.479 1_655 S
C226 C227 1.398 . S
C227 C192 1.382 . S
C227 H204 0.951 . S
C227 C226 1.398 . S
C228 C229 1.384 . S
C228 H241 0.947 . S
C228 C263 1.382 . S
C229 C228 1.384 . S
C229 C230 1.378 . S
C230 C229 1.378 . S
C230 C231 1.378 . S
C230 H242 0.952 . S
C231 C230 1.378 . S
C231 H243 0.950 . S
C231 C262 1.383 . S
H232 C251 0.947 . S
H233 C252 0.946 . S
H234 C254 0.953 . S
H235 C255 0.945 . S
H236 C257 0.952 . S
H237 C258 0.949 . S
H238 C260 0.950 . S
H239 C261 0.948 . S
H240 C263 0.951 . S
H241 C228 0.947 . S
H242 C230 0.952 . S
H243 C231 0.950 . S
N244 C247 1.382 1_455 S
N244 C249 1.363 . S
N245 C247 1.371 . S
N245 C248 1.372 1_655 S
N246 C248 1.361 . S
N246 C249 1.377 . S
C247 N244 1.382 1_655 S
C247 N245 1.371 . S
C247 C250 1.480 . S
C248 N245 1.372 1_455 S
C248 N246 1.361 . S
C248 C256 1.457 . S
C249 N244 1.363 . S
C249 N246 1.377 . S
C249 C262 1.479 . S
C250 C247 1.480 . S
C250 C251 1.383 . S
C250 C255 1.385 . S
C251 H232 0.947 . S
C251 C250 1.383 . S
C251 C252 1.388 . S
C252 H233 0.946 . S
C252 C251 1.388 . S
C252 C253 1.384 . S
C253 C252 1.384 . S
C253 C254 1.377 . S
C254 H234 0.953 . S
C254 C253 1.377 . S
C254 C255 1.369 . S
C255 H235 0.945 . S
C255 C250 1.385 . S
C255 C254 1.369 . S
C256 C248 1.457 . S
C256 C257 1.372 1_455 S
C256 C261 1.364 . S
C257 H236 0.952 . S
C257 C256 1.372 1_655 S
C257 C258 1.389 . S
C258 H237 0.949 . S
C258 C257 1.389 . S
C258 C259 1.387 1_655 S
C259 C258 1.387 1_455 S
C259 C260 1.372 . S
C260 H238 0.950 . S
C260 C259 1.372 . S
C260 C261 1.379 . S
C261 H239 0.948 . S
C261 C256 1.364 . S
C261 C260 1.379 . S
C262 C231 1.383 . S
C262 C249 1.479 . S
C262 C263 1.398 . S
C263 C228 1.382 . S
C263 H240 0.951 . S
C263 C262 1.398 . S
C264 C265 1.384 . S
C264 H277 0.947 . S
C264 C299 1.382 . S
C265 C264 1.384 . S
C265 C266 1.378 . S
C266 C265 1.378 . S
C266 C267 1.378 . S
C266 H278 0.952 . S
C267 C266 1.378 . S
C267 H279 0.950 . S
C267 C298 1.383 . S
H268 C287 0.947 . S
H269 C288 0.946 . S
H270 C290 0.953 . S
H271 C291 0.945 . S
H272 C293 0.952 . S
H273 C294 0.949 . S
H274 C296 0.950 . S
H275 C297 0.948 . S
H276 C299 0.951 . S
H277 C264 0.947 . S
H278 C266 0.952 . S
H279 C267 0.950 . S
N280 C283 1.382 1_545 S
N280 C285 1.363 . S
N281 C283 1.371 . S
N281 C284 1.372 1_565 S
N282 C284 1.361 . S
N282 C285 1.377 . S
C283 N280 1.382 1_565 S
C283 N281 1.371 . S
C283 C286 1.480 . S
C284 N281 1.372 1_545 S
C284 N282 1.361 . S
C284 C292 1.457 . S
C285 N280 1.363 . S
C285 N282 1.377 . S
C285 C298 1.479 . S
C286 C283 1.480 . S
C286 C287 1.383 . S
C286 C291 1.385 . S
C287 H268 0.947 . S
C287 C286 1.383 . S
C287 C288 1.388 . S
C288 H269 0.946 . S
C288 C287 1.388 . S
C288 C289 1.384 . S
C289 C288 1.384 . S
C289 C290 1.377 . S
C290 H270 0.953 . S
C290 C289 1.377 . S
C290 C291 1.369 . S
C291 H271 0.945 . S
C291 C286 1.385 . S
C291 C290 1.369 . S
C292 C284 1.457 . S
C292 C293 1.372 1_545 S
C292 C297 1.364 . S
C293 H272 0.952 . S
C293 C292 1.372 1_565 S
C293 C294 1.389 . S
C294 H273 0.949 . S
C294 C293 1.389 . S
C294 C295 1.387 . S
C295 C294 1.387 . S
C295 C296 1.372 1_565 S
C296 H274 0.950 . S
C296 C295 1.372 1_545 S
C296 C297 1.379 . S
C297 H275 0.948 . S
C297 C292 1.364 . S
C297 C296 1.379 . S
C298 C267 1.383 . S
C298 C285 1.479 . S
C298 C299 1.398 . S
C299 C264 1.382 . S
C299 H276 0.951 . S
C299 C298 1.398 . S
C300 C301 1.384 . S
C300 H313 0.947 . S
C300 C335 1.382 . S
C301 C300 1.384 . S
C301 C302 1.378 . S
C302 C301 1.378 . S
C302 C303 1.378 . S
C302 H314 0.952 . S
C303 C302 1.378 . S
C303 H315 0.950 . S
C303 C334 1.383 . S
H304 C323 0.947 . S
H305 C324 0.946 . S
H306 C326 0.953 . S
H307 C327 0.945 . S
H308 C329 0.952 . S
H309 C330 0.949 . S
H310 C332 0.950 . S
H311 C333 0.948 . S
H312 C335 0.951 . S
H313 C300 0.947 . S
H314 C302 0.952 . S
H315 C303 0.950 . S
N316 C319 1.382 . S
N316 C321 1.363 . S
N317 C319 1.371 . S
N317 C320 1.372 . S
N318 C320 1.361 . S
N318 C321 1.377 . S
C319 N316 1.382 . S
C319 N317 1.371 . S
C319 C322 1.480 . S
C320 N317 1.372 . S
C320 N318 1.361 . S
C320 C328 1.457 . S
C321 N316 1.363 . S
C321 N318 1.377 . S
C321 C334 1.479 . S
C322 C319 1.480 . S
C322 C323 1.383 . S
C322 C327 1.385 . S
C323 H304 0.947 . S
C323 C322 1.383 . S
C323 C324 1.388 . S
C324 H305 0.946 . S
C324 C323 1.388 . S
C324 C325 1.384 . S
C325 C324 1.384 . S
C325 C326 1.377 . S
C326 H306 0.953 . S
C326 C325 1.377 . S
C326 C327 1.369 . S
C327 H307 0.945 . S
C327 C322 1.385 . S
C327 C326 1.369 . S
C328 C320 1.457 . S
C328 C329 1.372 . S
C328 C333 1.364 . S
C329 H308 0.952 . S
C329 C328 1.372 . S
C329 C330 1.389 1_554 S
C330 H309 0.949 . S
C330 C329 1.389 1_556 S
C330 C331 1.387 . S
C331 C330 1.387 . S
C331 C332 1.372 . S
C332 H310 0.950 . S
C332 C331 1.372 . S
C332 C333 1.379 1_556 S
C333 H311 0.948 . S
C333 C328 1.364 . S
C333 C332 1.379 1_554 S
C334 C303 1.383 . S
C334 C321 1.479 . S
C334 C335 1.398 . S
C335 C300 1.382 . S
C335 H312 0.951 . S
C335 C334 1.398 . S
C336 C337 1.369 . S
C336 C338 1.419 . S
C336 H340 0.930 . S
C337 C336 1.369 . S
C337 C346 1.429 . S
C338 C336 1.419 . S
C338 C339 1.363 . S
C338 H341 0.929 . S
C339 C338 1.363 . S
C339 C345 1.428 . S
H340 C336 0.930 . S
H341 C338 0.929 . S
S342 N343 1.613 . S
S342 N344 1.610 . S
N343 S342 1.613 . S
N343 C346 1.350 . S
N344 S342 1.610 . S
N344 C345 1.351 . S
C345 C339 1.428 . S
C345 N344 1.351 . S
C345 C346 1.434 . S
C346 C337 1.429 . S
C346 N343 1.350 . S
C346 C345 1.434 . S
C347 C348 1.369 . S
C347 C349 1.419 . S
C347 H351 0.930 . S
C348 C347 1.369 . S
C348 C357 1.429 . S
C349 C347 1.419 . S
C349 C350 1.363 . S
C349 H352 0.929 . S
C350 C349 1.363 . S
C350 C356 1.428 . S
H351 C347 0.930 . S
H352 C349 0.929 . S
S353 N354 1.613 . S
S353 N355 1.610 . S
N354 S353 1.613 . S
N354 C357 1.350 . S
N355 S353 1.610 . S
N355 C356 1.351 . S
C356 C350 1.428 . S
C356 N355 1.351 . S
C356 C357 1.434 . S
C357 C348 1.429 . S
C357 N354 1.350 . S
C357 C356 1.434 . S
C358 C359 1.369 . S
C358 C360 1.419 . S
C358 H362 0.930 . S
C359 C358 1.369 . S
C359 C368 1.429 . S
C360 C358 1.419 . S
C360 C361 1.363 . S
C360 H363 0.929 . S
C361 C360 1.363 . S
C361 C367 1.428 . S
H362 C358 0.930 . S
H363 C360 0.929 . S
S364 N365 1.613 . S
S364 N366 1.610 . S
N365 S364 1.613 . S
N365 C368 1.350 . S
N366 S364 1.610 . S
N366 C367 1.351 . S
C367 C361 1.428 . S
C367 N366 1.351 . S
C367 C368 1.434 . S
C368 C359 1.429 . S
C368 N365 1.350 . S
C368 C367 1.434 . S
C369 C370 1.369 . S
C369 C371 1.419 . S
C369 H373 0.930 . S
C370 C369 1.369 . S
C370 C379 1.429 . S
C371 C369 1.419 . S
C371 C372 1.363 . S
C371 H374 0.929 . S
C372 C371 1.363 . S
C372 C378 1.428 . S
H373 C369 0.930 . S
H374 C371 0.929 . S
S375 N376 1.613 . S
S375 N377 1.610 . S
N376 S375 1.613 . S
N376 C379 1.350 . S
N377 S375 1.610 . S
N377 C378 1.351 . S
C378 C372 1.428 . S
C378 N377 1.351 . S
C378 C379 1.434 . S
C379 C370 1.429 . S
C379 N376 1.350 . S
C379 C378 1.434 . S
C380 C381 1.369 . S
C380 C382 1.419 . S
C380 H384 0.930 . S
C381 C380 1.369 . S
C381 C390 1.429 . S
C382 C380 1.419 . S
C382 C383 1.363 . S
C382 H385 0.929 . S
C383 C382 1.363 . S
C383 C389 1.428 . S
H384 C380 0.930 . S
H385 C382 0.929 . S
S386 N387 1.613 . S
S386 N388 1.610 . S
N387 S386 1.613 . S
N387 C390 1.350 . S
N388 S386 1.610 . S
N388 C389 1.351 . S
C389 C383 1.428 . S
C389 N388 1.351 . S
C389 C390 1.434 . S
C390 C381 1.429 . S
C390 N387 1.350 . S
C390 C389 1.434 . S
C391 C392 1.369 . S
C391 C393 1.419 . S
C391 H395 0.930 . S
C392 C391 1.369 . S
C392 C401 1.429 . S
C393 C391 1.419 . S
C393 C394 1.363 . S
C393 H396 0.929 . S
C394 C393 1.363 . S
C394 C400 1.428 . S
H395 C391 0.930 . S
H396 C393 0.929 . S
S397 N398 1.613 . S
S397 N399 1.610 . S
N398 S397 1.613 . S
N398 C401 1.350 . S
N399 S397 1.610 . S
N399 C400 1.351 . S
C400 C394 1.428 . S
C400 N399 1.351 . S
C400 C401 1.434 . S
C401 C392 1.429 . S
C401 N398 1.350 . S
C401 C400 1.434 . S
C402 C403 1.369 . S
C402 C404 1.419 . S
C402 H406 0.930 . S
C403 C402 1.369 . S
C403 C412 1.429 . S
C404 C402 1.419 . S
C404 C405 1.363 . S
C404 H407 0.929 . S
C405 C404 1.363 . S
C405 C411 1.428 . S
H406 C402 0.930 . S
H407 C404 0.929 . S
S408 N409 1.613 . S
S408 N410 1.610 . S
N409 S408 1.613 . S
N409 C412 1.350 . S
N410 S408 1.610 . S
N410 C411 1.351 . S
C411 C405 1.428 . S
C411 N410 1.351 . S
C411 C412 1.434 . S
C412 C403 1.429 . S
C412 N409 1.350 . S
C412 C411 1.434 . S
C413 C414 1.369 . S
C413 C415 1.419 . S
C413 H417 0.930 . S
C414 C413 1.369 . S
C414 C423 1.429 . S
C415 C413 1.419 . S
C415 C416 1.363 . S
C415 H418 0.929 . S
C416 C415 1.363 . S
C416 C422 1.428 . S
H417 C413 0.930 . S
H418 C415 0.929 . S
S419 N420 1.613 . S
S419 N421 1.610 . S
N420 S419 1.613 . S
N420 C423 1.350 . S
N421 S419 1.610 . S
N421 C422 1.351 . S
C422 C416 1.428 . S
C422 N421 1.351 . S
C422 C423 1.434 . S
C423 C414 1.429 . S
C423 N420 1.350 . S
C423 C422 1.434 . S
C424 C425 1.369 . S
C424 C426 1.419 . S
C424 H428 0.930 . S
C425 C424 1.369 . S
C425 C434 1.429 . S
C426 C424 1.419 . S
C426 C427 1.363 . S
C426 H429 0.929 . S
C427 C426 1.363 . S
C427 C433 1.428 . S
H428 C424 0.930 . S
H429 C426 0.929 . S
S430 N431 1.613 . S
S430 N432 1.610 . S
N431 S430 1.613 . S
N431 C434 1.350 . S
N432 S430 1.610 . S
N432 C433 1.351 . S
C433 C427 1.428 . S
C433 N432 1.351 . S
C433 C434 1.434 . S
C434 C425 1.429 . S
C434 N431 1.350 . S
C434 C433 1.434 . S
C435 C436 1.369 . S
C435 C437 1.419 . S
C435 H439 0.930 . S
C436 C435 1.369 . S
C436 C445 1.429 . S
C437 C435 1.419 . S
C437 C438 1.363 . S
C437 H440 0.929 . S
C438 C437 1.363 . S
C438 C444 1.428 . S
H439 C435 0.930 . S
H440 C437 0.929 . S
S441 N442 1.613 . S
S441 N443 1.610 . S
N442 S441 1.613 . S
N442 C445 1.350 . S
N443 S441 1.610 . S
N443 C444 1.351 . S
C444 C438 1.428 . S
C444 N443 1.351 . S
C444 C445 1.434 . S
C445 C436 1.429 . S
C445 N442 1.350 . S
C445 C444 1.434 . S
C446 C447 1.369 . S
C446 C448 1.419 . S
C446 H450 0.930 . S
C447 C446 1.369 . S
C447 C456 1.429 . S
C448 C446 1.419 . S
C448 C449 1.363 . S
C448 H451 0.929 . S
C449 C448 1.363 . S
C449 C455 1.428 . S
H450 C446 0.930 . S
H451 C448 0.929 . S
S452 N453 1.613 . S
S452 N454 1.610 . S
N453 S452 1.613 . S
N453 C456 1.350 . S
N454 S452 1.610 . S
N454 C455 1.351 . S
C455 C449 1.428 . S
C455 N454 1.351 . S
C455 C456 1.434 . S
C456 C447 1.429 . S
C456 N453 1.350 . S
C456 C455 1.434 . S
C457 C458 1.369 . S
C457 C459 1.419 . S
C457 H461 0.930 . S
C458 C457 1.369 . S
C458 C467 1.429 . S
C459 C457 1.419 . S
C459 C460 1.363 . S
C459 H462 0.929 . S
C460 C459 1.363 . S
C460 C466 1.428 . S
H461 C457 0.930 . S
H462 C459 0.929 . S
S463 N464 1.613 . S
S463 N465 1.610 . S
N464 S463 1.613 . S
N464 C467 1.350 . S
N465 S463 1.610 . S
N465 C466 1.351 . S
C466 C460 1.428 . S
C466 N465 1.351 . S
C466 C467 1.434 . S
C467 C458 1.429 . S
C467 N464 1.350 . S
C467 C466 1.434 . S
C468 C469 1.369 1_655 S
C468 C470 1.419 . S
C468 H472 0.930 . S
C469 C468 1.369 1_455 S
C469 C478 1.429 . S
C470 C468 1.419 . S
C470 C471 1.363 1_655 S
C470 H473 0.929 . S
C471 C470 1.363 1_455 S
C471 C477 1.428 . S
H472 C468 0.930 . S
H473 C470 0.929 . S
S474 N475 1.613 . S
S474 N476 1.610 . S
N475 S474 1.613 . S
N475 C478 1.350 . S
N476 S474 1.610 . S
N476 C477 1.351 . S
C477 C471 1.428 . S
C477 N476 1.351 . S
C477 C478 1.434 . S
C478 C469 1.429 . S
C478 N475 1.350 . S
C478 C477 1.434 . S
C479 C480 1.369 1_565 S
C479 C481 1.419 . S
C479 H483 0.930 . S
C480 C479 1.369 1_545 S
C480 C489 1.429 . S
C481 C479 1.419 . S
C481 C482 1.363 1_565 S
C481 H484 0.929 . S
C482 C481 1.363 1_545 S
C482 C488 1.428 . S
H483 C479 0.930 . S
H484 C481 0.929 . S
S485 N486 1.613 . S
S485 N487 1.610 . S
N486 S485 1.613 . S
N486 C489 1.350 . S
N487 S485 1.610 . S
N487 C488 1.351 . S
C488 C482 1.428 . S
C488 N487 1.351 . S
C488 C489 1.434 . S
C489 C480 1.429 . S
C489 N486 1.350 . S
C489 C488 1.434 . S
C490 C491 1.369 . S
C490 C492 1.419 . S
C490 H494 0.930 . S
C491 C490 1.369 . S
C491 C500 1.429 . S
C492 C490 1.419 . S
C492 C493 1.363 . S
C492 H495 0.929 . S
C493 C492 1.363 . S
C493 C499 1.428 . S
H494 C490 0.930 . S
H495 C492 0.929 . S
S496 N497 1.613 . S
S496 N498 1.610 . S
N497 S496 1.613 . S
N497 C500 1.350 . S
N498 S496 1.610 . S
N498 C499 1.351 . S
C499 C493 1.428 . S
C499 N498 1.351 . S
C499 C500 1.434 . S
C500 C491 1.429 . S
C500 N497 1.350 . S
C500 C499 1.434 . S
C501 C502 1.369 . S
C501 C503 1.419 . S
C501 H505 0.930 . S
C502 C501 1.369 . S
C502 C511 1.429 1_545 S
C503 C501 1.419 . S
C503 C504 1.363 1_545 S
C503 H506 0.929 . S
C504 C503 1.363 1_565 S
C504 C510 1.428 . S
H505 C501 0.930 . S
H506 C503 0.929 . S
S507 N508 1.613 . S
S507 N509 1.610 . S
N508 S507 1.613 . S
N508 C511 1.350 . S
N509 S507 1.610 . S
N509 C510 1.351 . S
C510 C504 1.428 . S
C510 N509 1.351 . S
C510 C511 1.434 . S
C511 C502 1.429 1_565 S
C511 N508 1.350 . S
C511 C510 1.434 . S
C512 C513 1.369 . S
C512 C514 1.419 . S
C512 H516 0.930 . S
C513 C512 1.369 . S
C513 C522 1.429 . S
C514 C512 1.419 . S
C514 C515 1.363 . S
C514 H517 0.929 . S
C515 C514 1.363 . S
C515 C521 1.428 . S
H516 C512 0.930 . S
H517 C514 0.929 . S
S518 N519 1.613 . S
S518 N520 1.610 . S
N519 S518 1.613 . S
N519 C522 1.350 . S
N520 S518 1.610 . S
N520 C521 1.351 . S
C521 C515 1.428 . S
C521 N520 1.351 . S
C521 C522 1.434 . S
C522 C513 1.429 . S
C522 N519 1.350 . S
C522 C521 1.434 . S
C523 C524 1.369 . S
C523 C525 1.419 . S
C523 H527 0.930 . S
C524 C523 1.369 . S
C524 C533 1.429 1_455 S
C525 C523 1.419 . S
C525 C526 1.388 . S
C525 H528 0.929 . S
C526 C525 1.388 . S
C526 C532 1.406 1_455 S
H527 C523 0.930 . S
H528 C525 0.929 . S
S529 N530 1.613 . S
S529 N531 1.610 . S
N530 S529 1.613 . S
N530 C533 1.350 . S
N531 S529 1.610 . S
N531 C532 1.351 . S
C532 C526 1.406 1_655 S
C532 N531 1.351 . S
C532 C533 1.434 . S
C533 C524 1.429 1_655 S
C533 N530 1.350 . S
C533 C532 1.434 . S
C337 C6 0.888 . S
C339 C325 0.954 . S
C348 C59 2.005 . S
C350 C253 1.925 . S
C359 C86 1.364 . S
C361 C289 1.381 . S
C370 C15 0.665 . S
C372 C301 0.573 . S
C383 C229 2.058 . S
C381 C50 2.140 . S
C394 C265 1.387 . S
C392 C95 1.361 . S
C403 C46 1.277 . S
C405 C181 1.310 . S
C414 C99 3.185 . S
C416 C193 3.148 . S
C425 C10 2.169 . S
C427 C121 2.108 . S
C438 C157 1.390 . S
C436 C55 1.349 . S
C449 C217 3.039 . S
C447 C90 3.126 . S
C458 C19 2.005 . S
C460 C145 1.943 . S
C471 C223 1.791 1_554 S
C469 C18 1.721 . S
C480 C49 1.319 . S
C482 C151 1.360 . S
C491 C98 1.451 . S
C493 C187 1.502 . S
C504 C295 1.475 . S
C502 C58 1.434 . S
C515 C331 1.077 . S
C513 C89 1.073 . S
C524 C9 1.315 . S
C526 C259 1.347 . S
