# Generated by pormake.
# Topology hwx, (6,3)-cn, num edge types: 1
# Building blocks:
#     Node 0, Type 0, BuildingBlock: OJICUG_clean_sbu_0, # of connection points: 6
#     Node 1, Type 0, BuildingBlock: OJICUG_clean_sbu_0, # of connection points: 6
#     Node 2, Type 0, BuildingBlock: OJICUG_clean_sbu_0, # of connection points: 6
#     Node 3, Type 0, BuildingBlock: OJICUG_clean_sbu_0, # of connection points: 6
#     Node 4, Type 1, BuildingBlock: MIDCAF_clean_linker_0, # of connection points: 3
#     Node 5, Type 1, BuildingBlock: MIDCAF_clean_linker_0, # of connection points: 3
#     Node 6, Type 1, BuildingBlock: MIDCAF_clean_linker_0, # of connection points: 3
#     Node 7, Type 1, BuildingBlock: MIDCAF_clean_linker_0, # of connection points: 3
#     Node 8, Type 1, BuildingBlock: MIDCAF_clean_linker_0, # of connection points: 3
#     Node 9, Type 1, BuildingBlock: MIDCAF_clean_linker_0, # of connection points: 3
#     Node 10, Type 1, BuildingBlock: MIDCAF_clean_linker_0, # of connection points: 3
#     Node 11, Type 1, BuildingBlock: MIDCAF_clean_linker_0, # of connection points: 3
#     Edge 12, Type (0, 1), BuildingBlock: MIFKUJ_clean_linker_0, # of connection points: 2
#     Edge 13, Type (0, 1), BuildingBlock: MIFKUJ_clean_linker_0, # of connection points: 2
#     Edge 14, Type (0, 1), BuildingBlock: MIFKUJ_clean_linker_0, # of connection points: 2
#     Edge 15, Type (0, 1), BuildingBlock: MIFKUJ_clean_linker_0, # of connection points: 2
#     Edge 16, Type (0, 1), BuildingBlock: MIFKUJ_clean_linker_0, # of connection points: 2
#     Edge 17, Type (0, 1), BuildingBlock: MIFKUJ_clean_linker_0, # of connection points: 2
#     Edge 18, Type (0, 1), BuildingBlock: MIFKUJ_clean_linker_0, # of connection points: 2
#     Edge 19, Type (0, 1), BuildingBlock: MIFKUJ_clean_linker_0, # of connection points: 2
#     Edge 20, Type (0, 1), BuildingBlock: MIFKUJ_clean_linker_0, # of connection points: 2
#     Edge 21, Type (0, 1), BuildingBlock: MIFKUJ_clean_linker_0, # of connection points: 2
#     Edge 22, Type (0, 1), BuildingBlock: MIFKUJ_clean_linker_0, # of connection points: 2
#     Edge 23, Type (0, 1), BuildingBlock: MIFKUJ_clean_linker_0, # of connection points: 2
#     Edge 24, Type (0, 1), BuildingBlock: MIFKUJ_clean_linker_0, # of connection points: 2
#     Edge 25, Type (0, 1), BuildingBlock: MIFKUJ_clean_linker_0, # of connection points: 2
#     Edge 26, Type (0, 1), BuildingBlock: MIFKUJ_clean_linker_0, # of connection points: 2
#     Edge 27, Type (0, 1), BuildingBlock: MIFKUJ_clean_linker_0, # of connection points: 2
#     Edge 28, Type (0, 1), BuildingBlock: MIFKUJ_clean_linker_0, # of connection points: 2
#     Edge 29, Type (0, 1), BuildingBlock: MIFKUJ_clean_linker_0, # of connection points: 2
#     Edge 30, Type (0, 1), BuildingBlock: MIFKUJ_clean_linker_0, # of connection points: 2
#     Edge 31, Type (0, 1), BuildingBlock: MIFKUJ_clean_linker_0, # of connection points: 2
#     Edge 32, Type (0, 1), BuildingBlock: MIFKUJ_clean_linker_0, # of connection points: 2
#     Edge 33, Type (0, 1), BuildingBlock: MIFKUJ_clean_linker_0, # of connection points: 2
#     Edge 34, Type (0, 1), BuildingBlock: MIFKUJ_clean_linker_0, # of connection points: 2
#     Edge 35, Type (0, 1), BuildingBlock: MIFKUJ_clean_linker_0, # of connection points: 2
# Relax obj value: 0.078
# Max RMSD: 0.103
# Mean RMSD: 0.095
data_MOF--net-hwx--node1-OJICUG_clean_sbu_0--node2-MIDCAF_clean_linker_0--edge1-MIFKUJ_clean_linker_0
_symmetry_space_group_name_H-M    P1
_symmetry_Int_Tables_number       1
_symmetry_cell_setting            triclinic
loop_
_symmetry_equiv_pos_as_xyz
'x, y, z'
_cell_length_a     75.086394
_cell_length_b     75.108998
_cell_length_c     34.047254
_cell_angle_alpha  89.872919
_cell_angle_beta   90.158269
_cell_angle_gamma 90.00116
loop_
_atom_site_label
_atom_site_type_symbol
_atom_site_fract_x
_atom_site_fract_y
_atom_site_fract_z
_atom_type_partial_charge
Sc0 Sc 0.21927 0.2221 0.05114 0.0
Sc1 Sc 0.19013 0.19216 0.0033 0.0
Sc2 Sc 0.21891 0.21962 0.94832 0.0
O3 O 0.20943 0.21124 0.00096 0.0
C4 C 0.21564 0.25604 0.99486 0.0
C5 C 0.17802 0.21915 0.07104 0.0
C6 C 0.17725 0.21534 0.93043 0.0
C7 C 0.2156 0.18096 0.07414 0.0
C8 C 0.25443 0.21874 0.00024 0.0
C9 C 0.21567 0.17796 0.93479 0.0
O10 O 0.2178 0.24883 0.02835 0.0
O11 O 0.17492 0.20629 0.04765 0.0
O12 O 0.19289 0.22059 0.92226 0.0
O13 O 0.22143 0.19664 0.0798 0.0
O14 O 0.24624 0.21944 0.96759 0.0
O15 O 0.20301 0.17576 0.95918 0.0
O16 O 0.24649 0.21916 0.03309 0.0
O17 O 0.20464 0.17701 0.04696 0.0
O18 O 0.22301 0.19294 0.92883 0.0
O19 O 0.19327 0.22625 0.07454 0.0
O20 O 0.21542 0.2472 0.9631 0.0
O21 O 0.17379 0.20549 0.95986 0.0
Sc22 Sc 0.27889 0.71883 0.44781 0.0
Sc23 Sc 0.3075 0.68999 0.50038 0.0
Sc24 Sc 0.27807 0.71845 0.55069 0.0
O25 O 0.28819 0.70906 0.49959 0.0
C26 C 0.2816 0.75391 0.50076 0.0
C27 C 0.32033 0.71563 0.43048 0.0
C28 C 0.31958 0.71462 0.57125 0.0
C29 C 0.28316 0.67729 0.42923 0.0
C30 C 0.24317 0.71629 0.49685 0.0
C31 C 0.28099 0.67709 0.5683 0.0
O32 O 0.27947 0.74608 0.46798 0.0
O33 O 0.32306 0.70313 0.45513 0.0
O34 O 0.30382 0.71985 0.57829 0.0
O35 O 0.27752 0.69287 0.42146 0.0
O36 O 0.25098 0.7183 0.52969 0.0
O37 O 0.29423 0.67463 0.54564 0.0
O38 O 0.25153 0.71552 0.46454 0.0
O39 O 0.29356 0.67387 0.45781 0.0
O40 O 0.27329 0.69204 0.57213 0.0
O41 O 0.3052 0.72291 0.42579 0.0
O42 O 0.28201 0.74565 0.53335 0.0
O43 O 0.3233 0.7042 0.54304 0.0
Sc44 Sc 0.77965 0.77693 0.945 0.0
Sc45 Sc 0.80816 0.80647 0.9954 0.0
Sc46 Sc 0.77856 0.7787 0.04802 0.0
O47 O 0.78882 0.78738 0.99617 0.0
C48 C 0.74371 0.77943 0.99422 0.0
C49 C 0.78287 0.81823 0.92432 0.0
C50 C 0.78181 0.82045 0.06252 0.0
C51 C 0.8213 0.78044 0.92757 0.0
C52 C 0.78297 0.74258 -0.00012 0.0
C53 C 0.81988 0.78306 0.06912 0.0
O54 O 0.75217 0.77855 0.96207 0.0
O55 O 0.79477 0.82156 0.94998 0.0
O56 O 0.77462 0.80538 0.0687 0.0
O57 O 0.80594 0.77393 0.92145 0.0
O58 O 0.78164 0.75108 0.03203 0.0
O59 O 0.82357 0.79338 0.04063 0.0
O60 O 0.78221 0.7501 0.96642 0.0
O61 O 0.82423 0.79243 0.95306 0.0
O62 O 0.80428 0.77721 0.07561 0.0
O63 O 0.77628 0.80282 0.91916 0.0
O64 O 0.75146 0.77939 0.0274 0.0
O65 O 0.79437 0.82274 0.03797 0.0
Sc66 Sc 0.72212 0.27822 0.5535 0.0
Sc67 Sc 0.69177 0.30697 0.5056 0.0
Sc68 Sc 0.71932 0.27832 0.4507 0.0
O69 O 0.71104 0.28785 0.50328 0.0
C70 C 0.75591 0.28135 0.49705 0.0
C71 C 0.71917 0.31955 0.57214 0.0
C72 C 0.71456 0.31987 0.4325 0.0
C73 C 0.68092 0.28171 0.57671 0.0
C74 C 0.71841 0.24294 0.5032 0.0
C75 C 0.67758 0.28126 0.43728 0.0
O76 O 0.74876 0.27916 0.5305 0.0
O77 O 0.70581 0.3222 0.5498 0.0
O78 O 0.71993 0.30429 0.42413 0.0
O79 O 0.69671 0.27612 0.58234 0.0
O80 O 0.71932 0.25106 0.47048 0.0
O81 O 0.67537 0.29397 0.4615 0.0
O82 O 0.71877 0.25095 0.536 0.0
O83 O 0.67688 0.2926 0.54946 0.0
O84 O 0.69259 0.27396 0.43139 0.0
O85 O 0.72675 0.30452 0.57567 0.0
O86 O 0.74698 0.28195 0.46532 0.0
O87 O 0.70489 0.32328 0.46214 0.0
C88 C 0.21576 0.56418 0.10502 0.0
C89 C 0.22142 0.55509 0.13901 0.0
C90 C 0.22174 0.53635 0.13855 0.0
C91 C 0.2171 0.52701 0.10449 0.0
H92 H 0.19001 0.48016 0.06043 0.0
H93 H 0.18389 0.4483 0.06104 0.0
H94 H 0.19671 0.44552 0.93751 0.0
H95 H 0.20221 0.47732 0.93654 0.0
H96 H 0.19853 0.5177 0.88939 0.0
H97 H 0.20632 0.5326 0.82762 0.0
H98 H 0.23898 0.56995 0.89153 0.0
H99 H 0.2311 0.55539 0.9531 0.0
H100 H 0.20749 0.56236 0.04507 0.0
H101 H 0.2148 0.57857 0.10456 0.0
H102 H 0.22614 0.52889 0.16403 0.0
H103 H 0.21794 0.51261 0.10468 0.0
N104 N 0.20394 0.5093 0.03288 0.0
N105 N 0.2046 0.50906 0.96392 0.0
N106 N 0.21208 0.53502 0.99815 0.0
C107 C 0.20157 0.50044 0.99844 0.0
C108 C 0.20989 0.52634 0.96358 0.0
C109 C 0.20908 0.52664 0.03287 0.0
C110 C 0.19671 0.48132 0.99849 0.0
C111 C 0.19137 0.47278 0.03331 0.0
C112 C 0.18792 0.45449 0.03371 0.0
C113 C 0.18986 0.4443 0.99937 0.0
C114 C 0.19477 0.45295 0.96437 0.0
C115 C 0.19807 0.47124 0.96389 0.0
C116 C 0.21418 0.53538 0.92614 0.0
C117 C 0.20735 0.5291 0.89023 0.0
C118 C 0.21175 0.53761 0.85495 0.0
C119 C 0.22334 0.55228 0.85497 0.0
C120 C 0.23018 0.55852 0.89077 0.0
C121 C 0.22554 0.55026 0.92601 0.0
C122 C 0.21229 0.53622 0.07009 0.0
C123 C 0.21143 0.55488 0.07092 0.0
C124 C 0.93234 0.70839 0.61236 0.0
C125 C 0.94214 0.71066 0.64723 0.0
C126 C 0.96073 0.70872 0.64619 0.0
C127 C 0.96941 0.70515 0.61079 0.0
H128 H 0.01771 0.68885 0.56162 0.0
H129 H 0.05006 0.68699 0.56128 0.0
H130 H 0.05062 0.70412 0.44001 0.0
H131 H 0.01828 0.70542 0.43991 0.0
H132 H 0.98135 0.71686 0.39886 0.0
H133 H 0.96439 0.72542 0.34081 0.0
H134 H 0.91621 0.70607 0.39561 0.0
H135 H 0.93307 0.69837 0.45432 0.0
H136 H 0.93305 0.70376 0.55049 0.0
H137 H 0.918 0.70998 0.61214 0.0
H138 H 0.96861 0.7102 0.67269 0.0
H139 H 0.9838 0.70414 0.61096 0.0
N140 N 0.98691 0.69947 0.53629 0.0
N141 N 0.98644 0.70154 0.46755 0.0
N142 N 0.95986 0.70383 0.50317 0.0
C143 C 0.99573 0.69922 0.50151 0.0
C144 C 0.96849 0.7037 0.46815 0.0
C145 C 0.96898 0.70178 0.53741 0.0
C146 C 0.01537 0.69735 0.50083 0.0
C147 C 0.02472 0.69213 0.53479 0.0
C148 C 0.04329 0.69114 0.53467 0.0
C149 C 0.05298 0.69548 0.50069 0.0
C150 C 0.0436 0.70042 0.46654 0.0
C151 C 0.02502 0.70127 0.46656 0.0
C152 C 0.95852 0.70713 0.43136 0.0
C153 C 0.96715 0.7143 0.39835 0.0
C154 C 0.95741 0.71912 0.36491 0.0
C155 C 0.93884 0.71663 0.3635 0.0
C156 C 0.93039 0.70865 0.39593 0.0
C157 C 0.94008 0.70412 0.42957 0.0
C158 C 0.95968 0.70359 0.57558 0.0
C159 C 0.94101 0.70494 0.57694 0.0
C160 C 0.77093 0.43772 0.89268 0.0
C161 C 0.77762 0.4443 0.85705 0.0
C162 C 0.78878 0.45929 0.85735 0.0
C163 C 0.79287 0.46781 0.89279 0.0
H164 H 0.7948 0.51997 0.94046 0.0
H165 H 0.79848 0.55205 0.94267 0.0
H166 H 0.8126 0.54868 0.06564 0.0
H167 H 0.80829 0.51656 0.0638 0.0
H168 H 0.78229 0.4835 0.10763 0.0
H169 H 0.77401 0.46705 0.16671 0.0
H170 H 0.78404 0.4175 0.10631 0.0
H171 H 0.79154 0.43387 0.04707 0.0
H172 H 0.76981 0.4406 0.95499 0.0
H173 H 0.76245 0.42605 0.89317 0.0
H174 H 0.7941 0.46456 0.83016 0.0
H175 H 0.80134 0.47948 0.89222 0.0
N176 N 0.79463 0.48776 0.96677 0.0
N177 N 0.79502 0.48725 0.03573 0.0
N178 N 0.78803 0.46139 0.00056 0.0
C179 C 0.79718 0.49634 0.00148 0.0
C180 C 0.79055 0.46973 0.03544 0.0
C181 C 0.79005 0.47028 0.96612 0.0
C182 C 0.80109 0.51567 0.00204 0.0
C183 C 0.79885 0.52601 0.96793 0.0
C184 C 0.80108 0.54445 0.96914 0.0
C185 C 0.80577 0.55301 0.00439 0.0
C186 C 0.80865 0.54258 0.03817 0.0
C187 C 0.80626 0.52413 0.03706 0.0
C188 C 0.78736 0.45998 0.07253 0.0
C189 C 0.78285 0.46909 0.10713 0.0
C190 C 0.77816 0.45966 0.14106 0.0
C191 C 0.77808 0.44092 0.14116 0.0
C192 C 0.78343 0.4319 0.10701 0.0
C193 C 0.78786 0.44129 0.07305 0.0
C194 C 0.78616 0.46122 0.92852 0.0
C195 C 0.77527 0.44599 0.92805 0.0
C196 C 0.06676 0.28778 0.39435 0.0
C197 C 0.05745 0.28626 0.35864 0.0
C198 C 0.03892 0.28882 0.35843 0.0
C199 C 0.02985 0.29251 0.39333 0.0
H200 H 0.97973 0.29757 0.43852 0.0
H201 H 0.94745 0.29972 0.43879 0.0
H202 H 0.94845 0.31017 0.56355 0.0
H203 H 0.98075 0.3075 0.5636 0.0
H204 H 0.01652 0.28287 0.60505 0.0
H205 H 0.03325 0.2758 0.66439 0.0
H206 H 0.08078 0.29785 0.61169 0.0
H207 H 0.06422 0.30387 0.55164 0.0
H208 H 0.06535 0.29216 0.45618 0.0
H209 H 0.08101 0.28562 0.39565 0.0
H210 H 0.0314 0.28789 0.33132 0.0
H211 H 0.01553 0.29416 0.39218 0.0
N212 N 0.01154 0.2986 0.4669 0.0
N213 N 0.01151 0.29862 0.53581 0.0
N214 N 0.03831 0.29504 0.50153 0.0
C215 C 0.00248 0.29998 0.50127 0.0
C216 C 0.02943 0.29623 0.53612 0.0
C217 C 0.02946 0.29616 0.46676 0.0
C218 C 0.98288 0.30225 0.50109 0.0
C219 C 0.97312 0.30043 0.46603 0.0
C220 C 0.95457 0.30178 0.46611 0.0
C221 C 0.94534 0.3051 0.50121 0.0
C222 C 0.95512 0.30732 0.53612 0.0
C223 C 0.97367 0.30586 0.53609 0.0
C224 C 0.03911 0.29376 0.57359 0.0
C225 C 0.03052 0.28633 0.60634 0.0
C226 C 0.04013 0.28236 0.64051 0.0
C227 C 0.05848 0.28606 0.64294 0.0
C228 C 0.06681 0.29431 0.61066 0.0
C229 C 0.05729 0.29791 0.57626 0.0
C230 C 0.03913 0.29361 0.42924 0.0
C231 C 0.05773 0.29141 0.42919 0.0
C232 C 0.73398 0.93675 0.39503 0.0
C233 C 0.73162 0.94479 0.35811 0.0
C234 C 0.72337 0.96155 0.35593 0.0
C235 C 0.71792 0.97026 0.39019 0.0
H236 H 0.70693 0.02041 0.43529 0.0
H237 H 0.70275 0.05247 0.43695 0.0
H238 H 0.68672 0.04901 0.55855 0.0
H239 H 0.69142 0.01696 0.5573 0.0
H240 H 0.69828 0.9782 0.6048 0.0
H241 H 0.70507 0.96343 0.66752 0.0
H242 H 0.7443 0.93079 0.60972 0.0
H243 H 0.73741 0.94512 0.54725 0.0
H244 H 0.73066 0.93872 0.45698 0.0
H245 H 0.73999 0.92369 0.3976 0.0
H246 H 0.72142 0.96806 0.32783 0.0
H247 H 0.7118 0.98327 0.38761 0.0
N248 N 0.7091 0.9885 0.46311 0.0
N249 N 0.70717 0.98853 0.53196 0.0
N250 N 0.71765 0.96329 0.49907 0.0
C251 C 0.70494 0.99708 0.49703 0.0
C252 C 0.71356 0.97164 0.53314 0.0
C253 C 0.71535 0.97152 0.46391 0.0
C254 C 0.69979 0.01611 0.49634 0.0
C255 C 0.70226 0.02642 0.46226 0.0
C256 C 0.69976 0.04484 0.46314 0.0
C257 C 0.69459 0.05336 0.49803 0.0
C258 C 0.69108 0.04291 0.53144 0.0
C259 C 0.69371 0.02451 0.53065 0.0
C260 C 0.71727 0.96278 0.57109 0.0
C261 C 0.70834 0.96787 0.60555 0.0
C262 C 0.71218 0.95945 0.64133 0.0
C263 C 0.7253 0.94616 0.64326 0.0
C264 C 0.73427 0.94117 0.60894 0.0
C265 C 0.7302 0.94928 0.57318 0.0
C266 C 0.72051 0.96228 0.42723 0.0
C267 C 0.72849 0.94536 0.42911 0.0
C268 C 0.56727 0.21457 0.89822 0.0
C269 C 0.55837 0.21574 0.86196 0.0
C270 C 0.53984 0.21308 0.86085 0.0
C271 C 0.53038 0.20971 0.89541 0.0
H272 H 0.4795 0.20647 0.93941 0.0
H273 H 0.44714 0.20531 0.9393 0.0
H274 H 0.44762 0.19282 0.06328 0.0
H275 H 0.47996 0.19455 0.06373 0.0
H276 H 0.51384 0.21334 0.11079 0.0
H277 H 0.52945 0.22033 0.17189 0.0
H278 H 0.57988 0.21506 0.11235 0.0
H279 H 0.56444 0.20795 0.05156 0.0
H280 H 0.56516 0.21077 0.96016 0.0
H281 H 0.5815 0.21678 0.90019 0.0
H282 H 0.53264 0.21371 0.83328 0.0
H283 H 0.51609 0.20799 0.89356 0.0
N284 N 0.51129 0.20414 0.96839 0.0
N285 N 0.51067 0.20458 0.03729 0.0
N286 N 0.53767 0.20833 0.00404 0.0
C287 C 0.50195 0.20291 0.00245 0.0
C288 C 0.52854 0.20726 0.03832 0.0
C289 C 0.52919 0.20677 0.96896 0.0
C290 C 0.48235 0.20077 0.00166 0.0
C291 C 0.47273 0.20334 0.96662 0.0
C292 C 0.45415 0.20257 0.96649 0.0
C293 C 0.44475 0.19907 0.00133 0.0
C294 C 0.45441 0.1959 0.03608 0.0
C295 C 0.47298 0.19681 0.03629 0.0
C296 C 0.53788 0.21015 0.07617 0.0
C297 C 0.52826 0.21347 0.11081 0.0
C298 C 0.53717 0.21758 0.14577 0.0
C299 C 0.55586 0.21825 0.14687 0.0
C300 C 0.56546 0.21444 0.11254 0.0
C301 C 0.55658 0.21049 0.07759 0.0
C302 C 0.53925 0.20901 0.93185 0.0
C303 C 0.55784 0.21124 0.93272 0.0
C304 C 0.28173 0.06344 0.61769 0.0
C305 C 0.27796 0.05348 0.65164 0.0
C306 C 0.27817 0.03481 0.64952 0.0
C307 C 0.28188 0.02628 0.61398 0.0
H308 H 0.29023 0.9774 0.56539 0.0
H309 H 0.29312 0.94524 0.56281 0.0
H310 H 0.30323 0.94823 0.43808 0.0
H311 H 0.29983 0.98047 0.44034 0.0
H312 H 0.27969 0.01662 0.39882 0.0
H313 H 0.27307 0.03437 0.34056 0.0
H314 H 0.28659 0.08224 0.40428 0.0
H315 H 0.29247 0.0646 0.46279 0.0
H316 H 0.28785 0.06308 0.55647 0.0
H317 H 0.28142 0.07786 0.61829 0.0
H318 H 0.2754 0.02681 0.6753 0.0
H319 H 0.28172 0.01187 0.61322 0.0
N320 N 0.29048 0.00948 0.53966 0.0
N321 N 0.29112 0.01083 0.47081 0.0
N322 N 0.28705 0.03687 0.50757 0.0
C323 C 0.29222 0.00113 0.5045 0.0
C324 C 0.28859 0.02873 0.47216 0.0
C325 C 0.28794 0.02735 0.54145 0.0
C326 C 0.29471 0.98157 0.50303 0.0
C327 C 0.29315 0.97126 0.53737 0.0
C328 C 0.29493 0.95278 0.53597 0.0
C329 C 0.29844 0.94414 0.50025 0.0
C330 C 0.30029 0.95445 0.46598 0.0
C331 C 0.2984 0.97296 0.46733 0.0
C332 C 0.28641 0.03922 0.43558 0.0
C333 C 0.28139 0.03093 0.40026 0.0
C334 C 0.27766 0.04111 0.36677 0.0
C335 C 0.27906 0.05979 0.36777 0.0
C336 C 0.28488 0.06795 0.40267 0.0
C337 C 0.28838 0.05781 0.43622 0.0
C338 C 0.28524 0.03627 0.57976 0.0
C339 C 0.28528 0.05495 0.58216 0.0
C340 C 0.43261 0.7799 0.10501 0.0
C341 C 0.44196 0.7787 0.14074 0.0
C342 C 0.46041 0.7818 0.14091 0.0
C343 C 0.46934 0.78582 0.10599 0.0
H344 H 0.51918 0.79043 0.05993 0.0
H345 H 0.55157 0.79153 0.05907 0.0
H346 H 0.55045 0.80466 0.93558 0.0
H347 H 0.51797 0.80364 0.93619 0.0
H348 H 0.48243 0.7933 0.88819 0.0
H349 H 0.46634 0.78822 0.82689 0.0
H350 H 0.41763 0.78065 0.89206 0.0
H351 H 0.43348 0.78607 0.95302 0.0
H352 H 0.43384 0.78445 0.04319 0.0
H353 H 0.41843 0.7773 0.10373 0.0
H354 H 0.46795 0.78111 0.16804 0.0
H355 H 0.48359 0.78798 0.10713 0.0
N356 N 0.4874 0.79264 0.03238 0.0
N357 N 0.48709 0.79438 0.96357 0.0
N358 N 0.46054 0.78954 0.99799 0.0
C359 C 0.49628 0.79491 0.99801 0.0
C360 C 0.46919 0.79172 0.96332 0.0
C361 C 0.46952 0.79002 0.03265 0.0
C362 C 0.51592 0.79683 0.99804 0.0
C363 C 0.52577 0.79371 0.0326 0.0
C364 C 0.54434 0.79425 0.03213 0.0
C365 C 0.5535 0.79808 0.99723 0.0
C366 C 0.54371 0.80178 0.96296 0.0
C367 C 0.52511 0.80109 0.96331 0.0
C368 C 0.45931 0.79001 0.9257 0.0
C369 C 0.46825 0.79075 0.88946 0.0
C370 C 0.45906 0.78774 0.85429 0.0
C371 C 0.44071 0.78399 0.85456 0.0
C372 C 0.4317 0.78375 0.89069 0.0
C373 C 0.44086 0.78674 0.92577 0.0
C374 C 0.46001 0.78675 0.07012 0.0
C375 C 0.4415 0.78389 0.07017 0.0
H376 H 0.14295 0.20827 0.0751 0.0
H377 H 0.11968 0.21997 0.11854 0.0
H378 H 0.15696 0.25805 0.16577 0.0
H379 H 0.1801 0.24661 0.12308 0.0
H380 H 0.13961 0.23897 0.22301 0.0
H381 H 0.12574 0.27184 0.1051 0.0
H382 H 0.11804 0.27509 0.03501 0.0
H383 H 0.06996 0.24526 0.05318 0.0
H384 H 0.07751 0.24163 0.12335 0.0
H385 H 0.08962 0.29861 0.33297 0.0
H386 H 0.10731 0.28731 0.27832 0.0
H387 H 0.0649 0.25125 0.24722 0.0
H388 H 0.04714 0.26234 0.30229 0.0
H389 H 0.08269 0.26679 0.1809 0.0
H390 H 0.09629 0.23505 0.29983 0.0
H391 H 0.10415 0.23231 0.36994 0.0
H392 H 0.15323 0.2601 0.34926 0.0
H393 H 0.14551 0.26326 0.2791 0.0
C394 C 0.14616 0.21917 0.09463 0.0
C395 C 0.16347 0.22635 0.0958 0.0
C396 C 0.13284 0.22588 0.11928 0.0
C397 C 0.13666 0.23984 0.14538 0.0
C398 C 0.15379 0.2472 0.14601 0.0
C399 C 0.16701 0.2406 0.12148 0.0
C400 C 0.12322 0.24639 0.17359 0.0
C401 C 0.12722 0.24516 0.21375 0.0
C402 C 0.10688 0.25404 0.16148 0.0
C403 C 0.10229 0.25628 0.11937 0.0
C404 C 0.11361 0.26583 0.09409 0.0
C405 C 0.10926 0.26778 0.05436 0.0
C406 C 0.09356 0.26033 0.03962 0.0
C407 C 0.08214 0.25099 0.06463 0.0
C408 C 0.08644 0.24899 0.10438 0.0
C409 C 0.08399 0.28836 0.31437 0.0
C410 C 0.06709 0.28118 0.32231 0.0
C411 C 0.09407 0.28199 0.28305 0.0
C412 C 0.08747 0.26829 0.25913 0.0
C413 C 0.07019 0.26184 0.26538 0.0
C414 C 0.06007 0.2682 0.29682 0.0
C415 C 0.09934 0.2597 0.23014 0.0
C416 C 0.09501 0.26046 0.19003 0.0
C417 C 0.11546 0.2516 0.24218 0.0
C418 C 0.12025 0.24952 0.28427 0.0
C419 C 0.1087 0.24069 0.31028 0.0
C420 C 0.11313 0.23905 0.35003 0.0
C421 C 0.12916 0.24606 0.36406 0.0
C422 C 0.14081 0.25469 0.33835 0.0
C423 C 0.13642 0.2564 0.29859 0.0
H424 H 0.13257 0.24477 0.39485 0.0
H425 H 0.09021 0.26185 0.00885 0.0
H426 H 0.29942 0.64874 0.5982 0.0
H427 H 0.28779 0.62476 0.63954 0.0
H428 H 0.23484 0.64678 0.62886 0.0
H429 H 0.24662 0.67125 0.58945 0.0
H430 H 0.23985 0.63936 0.69975 0.0
H431 H 0.24878 0.6064 0.58265 0.0
H432 H 0.26482 0.59514 0.5247 0.0
H433 H 0.30318 0.56964 0.59977 0.0
H434 H 0.28752 0.58096 0.65821 0.0
H435 H 0.20098 0.56544 0.79874 0.0
H436 H 0.20908 0.58371 0.7416 0.0
H437 H 0.26468 0.57784 0.77107 0.0
H438 H 0.25663 0.55981 0.82845 0.0
H439 H 0.25562 0.57551 0.6864 0.0
H440 H 0.24653 0.61234 0.80276 0.0
H441 H 0.22875 0.6232 0.85859 0.0
H442 H 0.18779 0.64075 0.7792 0.0
H443 H 0.20523 0.62973 0.72292 0.0
C444 C 0.28529 0.64835 0.6045 0.0
C445 C 0.27394 0.66189 0.59095 0.0
C446 C 0.2786 0.63456 0.62786 0.0
C447 C 0.26036 0.63378 0.63702 0.0
C448 C 0.24896 0.64709 0.62243 0.0
C449 C 0.2557 0.66107 0.59992 0.0
C450 C 0.25336 0.61988 0.66405 0.0
C451 C 0.24303 0.62537 0.69616 0.0
C452 C 0.25761 0.60159 0.6599 0.0
C453 C 0.26704 0.59466 0.62484 0.0
C454 C 0.26071 0.5985 0.58682 0.0
C455 C 0.26972 0.59209 0.55387 0.0
C456 C 0.28503 0.58171 0.55855 0.0
C457 C 0.29132 0.57769 0.59619 0.0
C458 C 0.28237 0.58408 0.62924 0.0
C459 C 0.21492 0.56779 0.79251 0.0
C460 C 0.2282 0.56138 0.81798 0.0
C461 C 0.21952 0.57821 0.76 0.0
C462 C 0.23746 0.58211 0.75232 0.0
C463 C 0.25077 0.57489 0.7765 0.0
C464 C 0.24617 0.56473 0.80932 0.0
C465 C 0.24233 0.59516 0.72163 0.0
C466 C 0.25228 0.5895 0.68919 0.0
C467 C 0.23746 0.61326 0.72492 0.0
C468 C 0.22707 0.62001 0.75872 0.0
C469 C 0.23366 0.61836 0.79726 0.0
C470 C 0.22366 0.62457 0.82897 0.0
C471 C 0.20712 0.63261 0.82246 0.0
C472 C 0.20058 0.63449 0.78421 0.0
C473 C 0.21052 0.62827 0.7524 0.0
H474 H 0.1994 0.63741 0.84705 0.0
H475 H 0.29199 0.57676 0.53301 0.0
H476 H 0.85558 0.78003 0.05382 0.0
H477 H 0.87896 0.76963 0.09909 0.0
H478 H 0.83989 0.76361 0.19074 0.0
H479 H 0.81651 0.77357 0.14578 0.0
H480 H 0.87319 0.78269 0.21127 0.0
H481 H 0.85087 0.72825 0.14894 0.0
H482 H 0.84437 0.71011 0.09031 0.0
H483 H 0.8994 0.71247 0.05669 0.0
H484 H 0.90617 0.7308 0.11498 0.0
H485 H 0.90562 0.73165 0.36465 0.0
H486 H 0.88846 0.74326 0.30982 0.0
H487 H 0.93096 0.72969 0.23033 0.0
H488 H 0.94785 0.71679 0.28498 0.0
H489 H 0.90039 0.72284 0.1965 0.0
H490 H 0.92443 0.77316 0.26103 0.0
H491 H 0.93228 0.79284 0.31629 0.0
H492 H 0.87685 0.80078 0.34137 0.0
H493 H 0.86864 0.78093 0.28662 0.0
C494 C 0.85203 0.77656 0.08369 0.0
C495 C 0.83423 0.77755 0.09628 0.0
C496 C 0.86535 0.7706 0.10938 0.0
C497 C 0.86106 0.76586 0.1481 0.0
C498 C 0.8434 0.76723 0.16093 0.0
C499 C 0.83008 0.77284 0.13517 0.0
C500 C 0.87479 0.75918 0.17554 0.0
C501 C 0.87913 0.76959 0.20826 0.0
C502 C 0.88299 0.74241 0.1705 0.0
C503 C 0.87899 0.73104 0.13606 0.0
C504 C 0.86156 0.72499 0.12891 0.0
C505 C 0.85783 0.71465 0.09578 0.0
C506 C 0.87145 0.71019 0.06972 0.0
C507 C 0.88885 0.71596 0.07688 0.0
C508 C 0.89265 0.7263 0.10998 0.0
C509 C 0.91126 0.73074 0.3355 0.0
C510 C 0.9282 0.72324 0.32944 0.0
C511 C 0.9015 0.73769 0.30414 0.0
C512 C 0.90859 0.73777 0.26603 0.0
C513 C 0.92529 0.72995 0.25954 0.0
C514 C 0.93501 0.72273 0.29093 0.0
C515 C 0.89841 0.74611 0.23333 0.0
C516 C 0.89475 0.73607 0.19947 0.0
C517 C 0.89109 0.76343 0.2369 0.0
C518 C 0.89592 0.77545 0.26983 0.0
C519 C 0.91391 0.77901 0.27848 0.0
C520 C 0.91842 0.79021 0.3097 0.0
C521 C 0.90507 0.79803 0.33236 0.0
C522 C 0.88717 0.7947 0.3238 0.0
C523 C 0.88258 0.7835 0.29263 0.0
H524 H 0.9086 0.8067 0.35652 0.0
H525 H 0.86854 0.70222 0.04404 0.0
H526 H 0.70117 0.34791 0.60258 0.0
H527 H 0.71329 0.37184 0.64324 0.0
H528 H 0.76602 0.34955 0.63119 0.0
H529 H 0.75376 0.3251 0.59247 0.0
H530 H 0.76186 0.35728 0.70197 0.0
H531 H 0.7519 0.38995 0.58467 0.0
H532 H 0.73543 0.40106 0.52685 0.0
H533 H 0.69762 0.42674 0.60225 0.0
H534 H 0.7137 0.41556 0.66056 0.0
H535 H 0.80023 0.43155 0.80119 0.0
H536 H 0.79239 0.41326 0.74392 0.0
H537 H 0.7367 0.41848 0.77241 0.0
H538 H 0.74448 0.4365 0.82988 0.0
H539 H 0.74563 0.42103 0.68818 0.0
H540 H 0.75568 0.38416 0.80476 0.0
H541 H 0.77391 0.3734 0.8603 0.0
H542 H 0.81454 0.35632 0.78026 0.0
H543 H 0.79665 0.36726 0.72425 0.0
C544 C 0.71536 0.34823 0.60846 0.0
C545 C 0.72651 0.33462 0.59468 0.0
C546 C 0.72232 0.36199 0.63142 0.0
C547 C 0.74065 0.3627 0.63992 0.0
C548 C 0.75184 0.3493 0.62522 0.0
C549 C 0.74482 0.33533 0.60312 0.0
C550 C 0.74796 0.37666 0.66637 0.0
C551 C 0.75858 0.37126 0.69826 0.0
C552 C 0.74364 0.39494 0.66201 0.0
C553 C 0.73395 0.40179 0.62702 0.0
C554 C 0.74 0.39786 0.58894 0.0
C555 C 0.73075 0.40419 0.55607 0.0
C556 C 0.71547 0.41457 0.56088 0.0
C557 C 0.70945 0.41869 0.59858 0.0
C558 C 0.71864 0.41238 0.63155 0.0
C559 C 0.78632 0.42904 0.7947 0.0
C560 C 0.77294 0.43527 0.81992 0.0
C561 C 0.78187 0.41862 0.76212 0.0
C562 C 0.76398 0.41453 0.75414 0.0
C563 C 0.75057 0.42157 0.77807 0.0
C564 C 0.75502 0.43173 0.81093 0.0
C565 C 0.75924 0.40148 0.72341 0.0
C566 C 0.74909 0.40706 0.69104 0.0
C567 C 0.76428 0.38342 0.72675 0.0
C568 C 0.77494 0.37673 0.7604 0.0
C569 C 0.76857 0.37826 0.79904 0.0
C570 C 0.77883 0.37211 0.8306 0.0
C571 C 0.7954 0.36424 0.82383 0.0
C572 C 0.80172 0.36246 0.78547 0.0
C573 C 0.79153 0.36863 0.75382 0.0
H574 H 0.80332 0.35947 0.84829 0.0
H575 H 0.70832 0.41945 0.53539 0.0
H576 H 0.67512 0.24973 0.39857 0.0
H577 H 0.65145 0.23975 0.35499 0.0
H578 H 0.6216 0.28752 0.37915 0.0
H579 H 0.64534 0.29766 0.42361 0.0
H580 H 0.6001 0.25654 0.37344 0.0
H581 H 0.64468 0.28682 0.29866 0.0
H582 H 0.67527 0.29377 0.27738 0.0
H583 H 0.68179 0.24017 0.23621 0.0
H584 H 0.65132 0.23282 0.25782 0.0
H585 H 0.548 0.24586 0.19617 0.0
H586 H 0.56587 0.25675 0.2514 0.0
H587 H 0.6033 0.21391 0.23402 0.0
H588 H 0.58554 0.20301 0.17884 0.0
H589 H 0.61966 0.24544 0.23653 0.0
H590 H 0.5752 0.21496 0.31346 0.0
H591 H 0.54467 0.20811 0.33529 0.0
H592 H 0.53761 0.26234 0.37173 0.0
H593 H 0.56804 0.26958 0.34962 0.0
C594 C 0.6635 0.25813 0.39492 0.0
C595 C 0.66226 0.27467 0.41403 0.0
C596 C 0.64996 0.25236 0.37004 0.0
C597 C 0.63496 0.26306 0.36333 0.0
C598 C 0.63314 0.27913 0.38388 0.0
C599 C 0.64672 0.28491 0.40914 0.0
C600 C 0.62196 0.2578 0.33273 0.0
C601 C 0.60424 0.25437 0.34333 0.0
C602 C 0.62748 0.25482 0.29361 0.0
C603 C 0.64575 0.25924 0.28013 0.0
C604 C 0.65268 0.27648 0.28531 0.0
C605 C 0.66999 0.2805 0.27316 0.0
C606 C 0.68048 0.26741 0.25552 0.0
C607 C 0.67365 0.25029 0.2499 0.0
C608 C 0.65635 0.2462 0.26205 0.0
C609 C 0.55984 0.23856 0.20469 0.0
C610 C 0.56546 0.22365 0.18306 0.0
C611 C 0.57004 0.2448 0.23622 0.0
C612 C 0.58591 0.23613 0.24682 0.0
C613 C 0.59115 0.22086 0.22618 0.0
C614 C 0.58102 0.21467 0.19463 0.0
C615 C 0.59784 0.24364 0.27733 0.0
C616 C 0.61541 0.24766 0.26657 0.0
C617 C 0.5921 0.24719 0.31612 0.0
C618 C 0.57383 0.24285 0.32948 0.0
C619 C 0.56708 0.22546 0.32581 0.0
C620 C 0.54981 0.2215 0.33831 0.0
C621 C 0.53919 0.2348 0.35478 0.0
C622 C 0.54584 0.25207 0.35891 0.0
C623 C 0.56311 0.2561 0.34643 0.0
H624 H 0.52582 0.23171 0.36444 0.0
H625 H 0.69388 0.27054 0.24614 0.0
H626 H 0.20067 0.14465 0.92664 0.0
H627 H 0.21114 0.12036 0.88445 0.0
H628 H 0.25616 0.15231 0.8495 0.0
H629 H 0.24584 0.17649 0.89081 0.0
H630 H 0.23882 0.1391 0.7872 0.0
H631 H 0.26112 0.1172 0.91134 0.0
H632 H 0.25836 0.10766 0.98039 0.0
H633 H 0.22227 0.06612 0.94608 0.0
H634 H 0.22464 0.07558 0.87681 0.0
H635 H 0.29432 0.08214 0.68498 0.0
H636 H 0.28364 0.10006 0.73991 0.0
H637 H 0.2397 0.06384 0.75627 0.0
H638 H 0.25035 0.04578 0.7012 0.0
H639 H 0.25368 0.07737 0.82804 0.0
H640 H 0.23227 0.0989 0.70357 0.0
H641 H 0.23533 0.10851 0.63462 0.0
H642 H 0.26971 0.15123 0.67035 0.0
H643 H 0.26709 0.14169 0.73949 0.0
C644 C 0.21287 0.14642 0.91019 0.0
C645 C 0.22228 0.16261 0.91175 0.0
C646 C 0.21886 0.13251 0.88623 0.0
C647 C 0.23441 0.13457 0.86381 0.0
C648 C 0.24406 0.15049 0.86633 0.0
C649 C 0.23809 0.16433 0.88999 0.0
C650 C 0.24029 0.12072 0.83578 0.0
C651 C 0.24221 0.12566 0.79627 0.0
C652 C 0.24419 0.10303 0.8474 0.0
C653 C 0.2429 0.09722 0.88895 0.0
C654 C 0.25249 0.10612 0.91855 0.0
C655 C 0.25101 0.10071 0.95772 0.0
C656 C 0.2401 0.08633 0.96764 0.0
C657 C 0.2307 0.07728 0.93836 0.0
C658 C 0.23211 0.08265 0.89914 0.0
C659 C 0.2825 0.07788 0.70057 0.0
C660 C 0.27302 0.06273 0.68846 0.0
C661 C 0.27646 0.08807 0.73202 0.0
C662 C 0.26073 0.0834 0.75168 0.0
C663 C 0.25186 0.06764 0.74142 0.0
C664 C 0.25796 0.05736 0.70998 0.0
C665 C 0.25268 0.09601 0.77989 0.0
C666 C 0.2502 0.09081 0.81913 0.0
C667 C 0.24823 0.11354 0.76817 0.0
C668 C 0.2496 0.11949 0.72667 0.0
C669 C 0.24058 0.11027 0.6967 0.0
C670 C 0.24222 0.11571 0.65759 0.0
C671 C 0.25274 0.13045 0.6481 0.0
C672 C 0.26159 0.13981 0.67774 0.0
C673 C 0.26001 0.1344 0.7169 0.0
H674 H 0.254 0.13464 0.6178 0.0
H675 H 0.23896 0.08217 0.99799 0.0
H676 H 0.35548 0.70492 0.43092 0.0
H677 H 0.37927 0.71506 0.3869 0.0
H678 H 0.3424 0.75073 0.32958 0.0
H679 H 0.31873 0.7408 0.3728 0.0
H680 H 0.36082 0.73043 0.27753 0.0
H681 H 0.37276 0.76653 0.39191 0.0
H682 H 0.37956 0.77146 0.46195 0.0
H683 H 0.42816 0.74185 0.45026 0.0
H684 H 0.42152 0.7365 0.38023 0.0
H685 H 0.40946 0.79033 0.16576 0.0
H686 H 0.39203 0.77892 0.22075 0.0
H687 H 0.43535 0.74423 0.25366 0.0
H688 H 0.45286 0.75538 0.19811 0.0
H689 H 0.41658 0.76051 0.31934 0.0
H690 H 0.40519 0.72619 0.20325 0.0
H691 H 0.39819 0.72194 0.1331 0.0
H692 H 0.34807 0.74851 0.14852 0.0
H693 H 0.35491 0.75318 0.21866 0.0
C694 C 0.35247 0.71497 0.40903 0.0
C695 C 0.33514 0.72195 0.40533 0.0
C696 C 0.36609 0.72078 0.38403 0.0
C697 C 0.36256 0.73363 0.35502 0.0
C698 C 0.34538 0.74074 0.35166 0.0
C699 C 0.33185 0.73504 0.37655 0.0
C700 C 0.37641 0.7394 0.32687 0.0
C701 C 0.37296 0.73708 0.28671 0.0
C702 C 0.39247 0.74762 0.33895 0.0
C703 C 0.39653 0.75092 0.38096 0.0
C704 C 0.38482 0.76093 0.40436 0.0
C705 C 0.38866 0.76383 0.44404 0.0
C706 C 0.40425 0.75692 0.46058 0.0
C707 C 0.41607 0.74715 0.43743 0.0
C708 C 0.41228 0.74419 0.39774 0.0
C709 C 0.41534 0.78034 0.18478 0.0
C710 C 0.43243 0.77355 0.17721 0.0
C711 C 0.40541 0.77393 0.21632 0.0
C712 C 0.41235 0.7606 0.24088 0.0
C713 C 0.4298 0.75454 0.23499 0.0
C714 C 0.43977 0.76094 0.20328 0.0
C715 C 0.40065 0.75196 0.27016 0.0
C716 C 0.40453 0.75366 0.31033 0.0
C717 C 0.38491 0.74315 0.25822 0.0
C718 C 0.38063 0.74015 0.21615 0.0
C719 C 0.39274 0.73124 0.19162 0.0
C720 C 0.38879 0.72874 0.15187 0.0
C721 C 0.37271 0.73498 0.13634 0.0
C722 C 0.36052 0.74369 0.16058 0.0
C723 C 0.36442 0.74626 0.20035 0.0
H724 H 0.36968 0.73304 0.10555 0.0
H725 H 0.4072 0.75918 0.49131 0.0
H726 H 0.79964 0.84929 0.90415 0.0
H727 H 0.78799 0.87328 0.86273 0.0
H728 H 0.73829 0.84488 0.85036 0.0
H729 H 0.75017 0.82057 0.8901 0.0
H730 H 0.74706 0.85633 0.7835 0.0
H731 H 0.74353 0.88359 0.90931 0.0
H732 H 0.75409 0.8936 0.97424 0.0
H733 H 0.79263 0.92761 0.91904 0.0
H734 H 0.78248 0.9176 0.85375 0.0
H735 H 0.70243 0.92837 0.69123 0.0
H736 H 0.71034 0.90911 0.74704 0.0
H737 H 0.7655 0.92404 0.73447 0.0
H738 H 0.75769 0.94302 0.67829 0.0
H739 H 0.7517 0.92046 0.81682 0.0
H740 H 0.75549 0.88966 0.69079 0.0
H741 H 0.74294 0.87994 0.62734 0.0
H742 H 0.70075 0.85266 0.68745 0.0
H743 H 0.71291 0.86249 0.75127 0.0
C744 C 0.78622 0.84822 0.89264 0.0
C745 C 0.77586 0.83301 0.90012 0.0
C746 C 0.77951 0.862 0.86923 0.0
C747 C 0.76214 0.86104 0.85381 0.0
C748 C 0.75173 0.84594 0.86178 0.0
C749 C 0.75855 0.83203 0.88447 0.0
C750 C 0.75511 0.87529 0.82767 0.0
C751 C 0.7478 0.87031 0.79131 0.0
C752 C 0.75622 0.89361 0.8374 0.0
C753 C 0.76234 0.89972 0.87662 0.0
C754 C 0.75435 0.8931 0.91101 0.0
C755 C 0.76025 0.89879 0.94789 0.0
C756 C 0.77405 0.9112 0.95077 0.0
C757 C 0.78195 0.91798 0.91677 0.0
C758 C 0.77612 0.91232 0.87981 0.0
C759 C 0.71615 0.92783 0.70107 0.0
C760 C 0.7295 0.93702 0.68055 0.0
C761 C 0.72064 0.91687 0.7328 0.0
C762 C 0.73849 0.91518 0.74464 0.0
C763 C 0.75165 0.92527 0.7258 0.0
C764 C 0.74721 0.93598 0.69369 0.0
C765 C 0.74377 0.90133 0.77323 0.0
C766 C 0.7508 0.90642 0.80969 0.0
C767 C 0.74213 0.88308 0.76403 0.0
C768 C 0.73498 0.87698 0.72572 0.0
C769 C 0.74345 0.88172 0.69044 0.0
C770 C 0.73643 0.87617 0.65443 0.0
C771 C 0.72103 0.86573 0.65336 0.0
C772 C 0.71266 0.86077 0.68832 0.0
C773 C 0.71961 0.86633 0.72442 0.0
H774 H 0.71561 0.86144 0.62545 0.0
H775 H 0.77859 0.91559 0.97934 0.0
H776 H 0.8217 0.75038 0.88282 0.0
H777 H 0.84623 0.7385 0.84435 0.0
H778 H 0.8797 0.78205 0.88132 0.0
H779 H 0.85507 0.79418 0.9202 0.0
H780 H 0.88069 0.77622 0.8012 0.0
H781 H 0.88814 0.74229 0.91778 0.0
H782 H 0.87875 0.72369 0.97377 0.0
H783 H 0.86186 0.68262 0.89446 0.0
H784 H 0.87093 0.70107 0.83792 0.0
H785 H 0.95241 0.73641 0.69908 0.0
H786 H 0.93576 0.74769 0.75544 0.0
H787 H 0.89439 0.70907 0.73383 0.0
H788 H 0.91113 0.6975 0.6778 0.0
H789 H 0.90142 0.7137 0.81374 0.0
H790 H 0.88991 0.74972 0.69819 0.0
H791 H 0.89848 0.76865 0.64206 0.0
H792 H 0.92276 0.80613 0.72079 0.0
H793 H 0.91455 0.78727 0.77739 0.0
C794 C 0.83425 0.75749 0.8829 0.0
C795 C 0.83639 0.7733 0.90451 0.0
C796 C 0.84832 0.75057 0.86111 0.0
C797 C 0.86482 0.75928 0.86038 0.0
C798 C 0.86706 0.77509 0.88174 0.0
C799 C 0.85299 0.78198 0.90391 0.0
C800 C 0.87933 0.75217 0.8356 0.0
C801 C 0.88557 0.7627 0.80451 0.0
C802 C 0.88542 0.73442 0.83963 0.0
C803 C 0.88012 0.72313 0.87355 0.0
C804 C 0.88232 0.72934 0.91224 0.0
C805 C 0.87707 0.71881 0.94409 0.0
C806 C 0.86968 0.702 0.93767 0.0
C807 C 0.86759 0.69565 0.89938 0.0
C808 C 0.87281 0.70613 0.86741 0.0
C809 C 0.93996 0.73005 0.70685 0.0
C810 C 0.93301 0.71614 0.68386 0.0
C811 C 0.93042 0.73659 0.73891 0.0
C812 C 0.91377 0.72933 0.74851 0.0
C813 C 0.90721 0.71486 0.72686 0.0
C814 C 0.91671 0.70837 0.69469 0.0
C815 C 0.9025 0.73766 0.779 0.0
C816 C 0.89683 0.72734 0.81102 0.0
C817 C 0.89693 0.75562 0.77592 0.0
C818 C 0.90182 0.76699 0.74195 0.0
C819 C 0.89721 0.76192 0.7035 0.0
C820 C 0.90198 0.77265 0.67161 0.0
C821 C 0.91121 0.78855 0.67784 0.0
C822 C 0.91565 0.79379 0.716 0.0
C823 C 0.91094 0.78309 0.74799 0.0
H824 H 0.91488 0.79685 0.65312 0.0
H825 H 0.86561 0.69387 0.96236 0.0
H826 H 0.72245 0.35423 0.45277 0.0
H827 H 0.7345 0.37756 0.40987 0.0
H828 H 0.73069 0.3419 0.31084 0.0
H829 H 0.71962 0.31844 0.35386 0.0
H830 H 0.76104 0.35675 0.30919 0.0
H831 H 0.70097 0.37894 0.32937 0.0
H832 H 0.67568 0.38922 0.36947 0.0
H833 H 0.70809 0.43093 0.41775 0.0
H834 H 0.73363 0.42078 0.37817 0.0
H835 H 0.75806 0.41056 0.14174 0.0
H836 H 0.74885 0.39291 0.19819 0.0
H837 H 0.77355 0.43071 0.27628 0.0
H838 H 0.78358 0.44827 0.2196 0.0
H839 H 0.73652 0.41784 0.29668 0.0
H840 H 0.79549 0.39687 0.26794 0.0
H841 H 0.81955 0.38645 0.22454 0.0
H842 H 0.78756 0.34182 0.18946 0.0
H843 H 0.76319 0.35212 0.2322 0.0
C844 C 0.72406 0.35151 0.42174 0.0
C845 C 0.72017 0.33456 0.40655 0.0
C846 C 0.73089 0.36484 0.39723 0.0
C847 C 0.73344 0.36156 0.35698 0.0
C848 C 0.72902 0.34475 0.3418 0.0
C849 C 0.72263 0.33135 0.36635 0.0
C850 C 0.74128 0.37519 0.33046 0.0
C851 C 0.75555 0.37005 0.30641 0.0
C852 C 0.73462 0.39281 0.32764 0.0
C853 C 0.71924 0.39899 0.35115 0.0
C854 C 0.70272 0.39023 0.34872 0.0
C855 C 0.68834 0.39605 0.37131 0.0
C856 C 0.69029 0.41069 0.39623 0.0
C857 C 0.70661 0.41958 0.39848 0.0
C858 C 0.72103 0.41382 0.37595 0.0
C859 C 0.76179 0.41508 0.1708 0.0
C860 C 0.77184 0.43072 0.17601 0.0
C861 C 0.75634 0.40505 0.20304 0.0
C862 C 0.76063 0.41049 0.24123 0.0
C863 C 0.77011 0.42636 0.24691 0.0
C864 C 0.77578 0.43636 0.2145 0.0
C865 C 0.75564 0.39902 0.27473 0.0
C866 C 0.74207 0.40459 0.30008 0.0
C867 C 0.76275 0.38169 0.27851 0.0
C868 C 0.77747 0.37534 0.25308 0.0
C869 C 0.79353 0.38491 0.25074 0.0
C870 C 0.80724 0.37901 0.2263 0.0
C871 C 0.80508 0.3635 0.2042 0.0
C872 C 0.78921 0.35384 0.20658 0.0
C873 C 0.77546 0.35969 0.23095 0.0
H874 H 0.8157 0.35896 0.18528 0.0
H875 H 0.67915 0.41516 0.41372 0.0
H876 H 0.17972 0.22671 0.85491 0.0
H877 H 0.15653 0.24003 0.81445 0.0
H878 H 0.11844 0.23244 0.90765 0.0
H879 H 0.14171 0.21856 0.94838 0.0
H880 H 0.10366 0.22546 0.83711 0.0
H881 H 0.13598 0.27323 0.89238 0.0
H882 H 0.16248 0.29034 0.91262 0.0
H883 H 0.17781 0.29641 0.79193 0.0
H884 H 0.15158 0.27907 0.77096 0.0
H885 H 0.04816 0.28533 0.72075 0.0
H886 H 0.06536 0.27453 0.7772 0.0
H887 H 0.11012 0.26419 0.70167 0.0
H888 H 0.0929 0.27389 0.64493 0.0
H889 H 0.11771 0.28366 0.77511 0.0
H890 H 0.08696 0.23099 0.72405 0.0
H891 H 0.05993 0.21419 0.70606 0.0
H892 H 0.04042 0.21915 0.82398 0.0
H893 H 0.06725 0.23622 0.8425 0.0
C894 C 0.1664 0.22776 0.86684 0.0
C895 C 0.16259 0.22175 0.90501 0.0
C896 C 0.15316 0.23546 0.84371 0.0
C897 C 0.13588 0.23767 0.85843 0.0
C898 C 0.13175 0.231 0.89589 0.0
C899 C 0.14503 0.22306 0.91906 0.0
C900 C 0.1224 0.24716 0.83431 0.0
C901 C 0.10654 0.23837 0.82428 0.0
C902 C 0.12611 0.26408 0.8177 0.0
C903 C 0.14181 0.27476 0.83009 0.0
C904 C 0.14505 0.27812 0.87014 0.0
C905 C 0.16003 0.28787 0.88176 0.0
C906 C 0.17182 0.29444 0.85357 0.0
C907 C 0.16865 0.29131 0.81372 0.0
C908 C 0.15371 0.28155 0.80195 0.0
C909 C 0.0616 0.2806 0.71597 0.0
C910 C 0.06909 0.28055 0.67803 0.0
C911 C 0.07143 0.27458 0.74837 0.0
C912 C 0.08898 0.26864 0.74347 0.0
C913 C 0.09662 0.26889 0.706 0.0
C914 C 0.08675 0.27459 0.67359 0.0
C915 C 0.09944 0.26162 0.77692 0.0
C916 C 0.11469 0.27095 0.78874 0.0
C917 C 0.09502 0.24539 0.79564 0.0
C918 C 0.07897 0.23508 0.78451 0.0
C919 C 0.07682 0.22865 0.74603 0.0
C920 C 0.06156 0.21905 0.73576 0.0
C921 C 0.04843 0.21566 0.76382 0.0
C922 C 0.05058 0.22182 0.80225 0.0
C923 C 0.0658 0.23145 0.81265 0.0
H924 H 0.03663 0.20821 0.75583 0.0
H925 H 0.18341 0.30197 0.86257 0.0
H926 H 0.27776 0.64235 0.44912 0.0
H927 H 0.26586 0.6187 0.40702 0.0
H928 H 0.26383 0.65552 0.30949 0.0
H929 H 0.27479 0.67923 0.35181 0.0
H930 H 0.23489 0.63814 0.31048 0.0
H931 H 0.29703 0.62107 0.32238 0.0
H932 H 0.32426 0.61265 0.35863 0.0
H933 H 0.29707 0.56778 0.40883 0.0
H934 H 0.26962 0.57605 0.37314 0.0
H935 H 0.24031 0.5862 0.14023 0.0
H936 H 0.24904 0.60382 0.19704 0.0
H937 H 0.22637 0.56444 0.27438 0.0
H938 H 0.21669 0.54695 0.21739 0.0
H939 H 0.2642 0.57955 0.29219 0.0
H940 H 0.20285 0.59588 0.27091 0.0
H941 H 0.1771 0.6047 0.23018 0.0
H942 H 0.20476 0.6519 0.19349 0.0
H943 H 0.23079 0.64322 0.23352 0.0
C944 C 0.27486 0.64529 0.41861 0.0
C945 C 0.27716 0.66261 0.40369 0.0
C946 C 0.26811 0.63177 0.39454 0.0
C947 C 0.26405 0.63525 0.35491 0.0
C948 C 0.26671 0.65249 0.33999 0.0
C949 C 0.27303 0.66604 0.36416 0.0
C950 C 0.25665 0.62125 0.32871 0.0
C951 C 0.2414 0.62538 0.30649 0.0
C952 C 0.26473 0.60432 0.32422 0.0
C953 C 0.28124 0.59929 0.34546 0.0
C954 C 0.29684 0.60948 0.34135 0.0
C955 C 0.31231 0.60472 0.36175 0.0
C956 C 0.31238 0.58972 0.38611 0.0
C957 C 0.29699 0.57941 0.39001 0.0
C958 C 0.28148 0.58412 0.36967 0.0
C959 C 0.2369 0.58132 0.16919 0.0
C960 C 0.2275 0.56526 0.17407 0.0
C961 C 0.24209 0.59134 0.20163 0.0
C962 C 0.23826 0.58542 0.23971 0.0
C963 C 0.22946 0.56915 0.24508 0.0
C964 C 0.22399 0.55918 0.21248 0.0
C965 C 0.24297 0.59685 0.2734 0.0
C966 C 0.25761 0.59222 0.29693 0.0
C967 C 0.23453 0.61346 0.27878 0.0
C968 C 0.21882 0.61882 0.255 0.0
C969 C 0.2035 0.60807 0.2539 0.0
C970 C 0.18884 0.61306 0.23099 0.0
C971 C 0.18931 0.62883 0.2092 0.0
C972 C 0.20442 0.63968 0.21037 0.0
C973 C 0.21912 0.63474 0.2332 0.0
H974 H 0.17795 0.63267 0.19148 0.0
H975 H 0.32437 0.58606 0.4019 0.0
H976 H 0.31705 0.73921 0.62991 0.0
H977 H 0.34095 0.75169 0.66956 0.0
H978 H 0.37919 0.71888 0.6092 0.0
H979 H 0.35522 0.70611 0.56913 0.0
H980 H 0.38375 0.71889 0.69015 0.0
H981 H 0.37794 0.76182 0.58747 0.0
H982 H 0.36133 0.7817 0.54279 0.0
H983 H 0.34229 0.81172 0.6413 0.0
H984 H 0.35861 0.79188 0.68665 0.0
H985 H 0.45233 0.76307 0.79398 0.0
H986 H 0.43519 0.75278 0.73726 0.0
H987 H 0.38996 0.78339 0.7761 0.0
H988 H 0.40722 0.7943 0.83198 0.0
H989 H 0.39256 0.78431 0.69737 0.0
H990 H 0.3942 0.7393 0.79928 0.0
H991 H 0.40894 0.71866 0.8455 0.0
H992 H 0.43448 0.69218 0.74924 0.0
H993 H 0.42006 0.71284 0.70246 0.0
C994 C 0.33051 0.73455 0.62496 0.0
C995 C 0.33418 0.72164 0.5962 0.0
C996 C 0.34418 0.74181 0.64755 0.0
C997 C 0.36186 0.73641 0.64187 0.0
C998 C 0.36562 0.72329 0.6138 0.0
C999 C 0.35191 0.71603 0.59097 0.0
C1000 C 0.37621 0.74433 0.66609 0.0
C1001 C 0.386 0.73315 0.69109 0.0
C1002 C 0.37886 0.76297 0.66772 0.0
C1003 C 0.36943 0.77528 0.6405 0.0
C1004 C 0.37015 0.77262 0.59964 0.0
C1005 C 0.36079 0.78388 0.57418 0.0
C1006 C 0.35072 0.79794 0.5892 0.0
C1007 C 0.35009 0.80082 0.62971 0.0
C1008 C 0.35943 0.78959 0.6553 0.0
C1009 C 0.43888 0.76796 0.78996 0.0
C1010 C 0.43107 0.77936 0.81778 0.0
C1011 C 0.42905 0.76194 0.75768 0.0
C1012 C 0.4112 0.76707 0.75284 0.0
C1013 C 0.40369 0.77919 0.77936 0.0
C1014 C 0.41352 0.78527 0.81151 0.0
C1015 C 0.39988 0.75888 0.72199 0.0
C1016 C 0.39061 0.77002 0.69582 0.0
C1017 C 0.39762 0.74019 0.71939 0.0
C1018 C 0.40623 0.72773 0.74744 0.0
C1019 C 0.40307 0.72916 0.78801 0.0
C1020 C 0.41135 0.71745 0.8143 0.0
C1021 C 0.42269 0.70416 0.80033 0.0
C1022 C 0.42573 0.70251 0.76002 0.0
C1023 C 0.4175 0.71421 0.73361 0.0
H1024 H 0.42908 0.6951 0.82072 0.0
H1025 H 0.34343 0.80661 0.56946 0.0
H1026 H 0.79754 0.85325 0.0705 0.0
H1027 H 0.78872 0.87719 0.11507 0.0
H1028 H 0.74307 0.84652 0.15144 0.0
H1029 H 0.75185 0.82247 0.10761 0.0
H1030 H 0.75895 0.89835 0.12666 0.0
H1031 H 0.73986 0.8492 0.24989 0.0
H1032 H 0.7468 0.81852 0.27106 0.0
H1033 H 0.79831 0.82226 0.21718 0.0
H1034 H 0.79177 0.85303 0.1962 0.0
H1035 H 0.71392 0.94066 0.28819 0.0
H1036 H 0.7231 0.9225 0.23199 0.0
H1037 H 0.77234 0.90977 0.29134 0.0
H1038 H 0.76327 0.92782 0.34734 0.0
H1039 H 0.75605 0.8805 0.26693 0.0
H1040 H 0.77182 0.93699 0.21163 0.0
H1041 H 0.76691 0.96806 0.19074 0.0
H1042 H 0.72621 0.95098 0.11043 0.0
H1043 H 0.73069 0.91981 0.13125 0.0
C1044 C 0.78551 0.85168 0.08764 0.0
C1045 C 0.77559 0.83579 0.08604 0.0
C1046 C 0.78045 0.86541 0.11294 0.0
C1047 C 0.76542 0.86348 0.13694 0.0
C1048 C 0.7549 0.84813 0.1336 0.0
C1049 C 0.75998 0.83437 0.10859 0.0
C1050 C 0.76155 0.87672 0.16792 0.0
C1051 C 0.75827 0.8945 0.15734 0.0
C1052 C 0.76101 0.87171 0.20797 0.0
C1053 C 0.76524 0.85334 0.22118 0.0
C1054 C 0.75269 0.84349 0.24274 0.0
C1055 C 0.75656 0.82609 0.25467 0.0
C1056 C 0.77297 0.81843 0.24537 0.0
C1057 C 0.78559 0.82818 0.22426 0.0
C1058 C 0.7818 0.8456 0.21232 0.0
C1059 C 0.72684 0.93425 0.28886 0.0
C1060 C 0.7378 0.93548 0.32229 0.0
C1061 C 0.73207 0.92389 0.25677 0.0
C1062 C 0.74839 0.91477 0.25755 0.0
C1063 C 0.75963 0.91659 0.29026 0.0
C1064 C 0.75441 0.92686 0.32227 0.0
C1065 C 0.75324 0.9022 0.22584 0.0
C1066 C 0.75668 0.88445 0.23629 0.0
C1067 C 0.7542 0.90736 0.18589 0.0
C1068 C 0.75147 0.92609 0.1733 0.0
C1069 C 0.76171 0.93987 0.18977 0.0
C1070 C 0.75903 0.9575 0.17789 0.0
C1071 C 0.74622 0.9615 0.14935 0.0
C1072 C 0.7361 0.94787 0.13257 0.0
C1073 C 0.73872 0.93022 0.14437 0.0
H1074 H 0.74417 0.97515 0.14019 0.0
H1075 H 0.77592 0.80494 0.25457 0.0
H1076 H 0.64577 0.29183 0.57892 0.0
H1077 H 0.62229 0.2799 0.62117 0.0
H1078 H 0.66008 0.244 0.67473 0.0
H1079 H 0.68356 0.25567 0.63267 0.0
H1080 H 0.62867 0.22738 0.65646 0.0
H1081 H 0.64795 0.28138 0.7212 0.0
H1082 H 0.65404 0.31359 0.72532 0.0
H1083 H 0.59924 0.32494 0.69896 0.0
H1084 H 0.59288 0.29277 0.69416 0.0
H1085 H 0.59099 0.20353 0.8387 0.0
H1086 H 0.60882 0.21397 0.78343 0.0
H1087 H 0.56619 0.24906 0.74797 0.0
H1088 H 0.54849 0.23912 0.80411 0.0
H1089 H 0.5969 0.26642 0.75044 0.0
H1090 H 0.57677 0.21227 0.69339 0.0
H1091 H 0.57062 0.18008 0.68946 0.0
H1092 H 0.62647 0.16882 0.70065 0.0
H1093 H 0.63294 0.20094 0.70525 0.0
C1094 C 0.64911 0.28141 0.5997 0.0
C1095 C 0.66661 0.2748 0.60251 0.0
C1096 C 0.63567 0.27462 0.62383 0.0
C1097 C 0.63948 0.26113 0.65117 0.0
C1098 C 0.65685 0.25438 0.65374 0.0
C1099 C 0.67029 0.26117 0.6298 0.0
C1100 C 0.62553 0.25417 0.67775 0.0
C1101 C 0.62179 0.23586 0.67722 0.0
C1102 C 0.61618 0.26536 0.7039 0.0
C1103 C 0.61999 0.28469 0.70685 0.0
C1104 C 0.63723 0.29075 0.71594 0.0
C1105 C 0.64073 0.30899 0.71847 0.0
C1106 C 0.62704 0.3213 0.71228 0.0
C1107 C 0.60983 0.31539 0.70367 0.0
C1108 C 0.60627 0.29716 0.70106 0.0
C1109 C 0.58538 0.21342 0.81905 0.0
C1110 C 0.56836 0.22056 0.8259 0.0
C1111 C 0.59551 0.21924 0.7872 0.0
C1112 C 0.58878 0.23219 0.76135 0.0
C1113 C 0.57161 0.23901 0.76748 0.0
C1114 C 0.56146 0.2332 0.79939 0.0
C1115 C 0.60023 0.23952 0.72978 0.0
C1116 C 0.60355 0.25791 0.72933 0.0
C1117 C 0.60915 0.22839 0.7027 0.0
C1118 C 0.60532 0.20903 0.69997 0.0
C1119 C 0.58773 0.20293 0.69534 0.0
C1120 C 0.58419 0.18469 0.69293 0.0
C1121 C 0.59814 0.17241 0.69488 0.0
C1122 C 0.61567 0.17835 0.69917 0.0
C1123 C 0.61929 0.19657 0.70163 0.0
H1124 H 0.59537 0.1583 0.693 0.0
H1125 H 0.62977 0.33542 0.71426 0.0
H1126 H 0.22436 0.1467 0.05532 0.0
H1127 H 0.23724 0.12409 0.099 0.0
H1128 H 0.23338 0.16066 0.19638 0.0
H1129 H 0.22168 0.1835 0.15232 0.0
H1130 H 0.26334 0.14589 0.2004 0.0
H1131 H 0.20367 0.12261 0.17823 0.0
H1132 H 0.17881 0.11179 0.1372 0.0
H1133 H 0.21231 0.0707 0.09034 0.0
H1134 H 0.23741 0.08138 0.13088 0.0
H1135 H 0.2615 0.09168 0.3682 0.0
H1136 H 0.25301 0.1101 0.31228 0.0
H1137 H 0.27494 0.07122 0.23301 0.0
H1138 H 0.28417 0.05284 0.28911 0.0
H1139 H 0.23968 0.08447 0.21251 0.0
H1140 H 0.29801 0.10616 0.24372 0.0
H1141 H 0.3218 0.11702 0.28758 0.0
H1142 H 0.28934 0.16164 0.32023 0.0
H1143 H 0.26523 0.1509 0.277 0.0
C1144 C 0.22619 0.14979 0.08615 0.0
C1145 C 0.22204 0.16679 0.10058 0.0
C1146 C 0.23348 0.13685 0.11114 0.0
C1147 C 0.23613 0.14054 0.15124 0.0
C1148 C 0.23161 0.15747 0.1656 0.0
C1149 C 0.22484 0.17051 0.14047 0.0
C1150 C 0.24398 0.12712 0.17849 0.0
C1151 C 0.258 0.13253 0.20317 0.0
C1152 C 0.23757 0.10941 0.1813 0.0
C1153 C 0.22244 0.1029 0.15726 0.0
C1154 C 0.20575 0.11132 0.15902 0.0
C1155 C 0.19161 0.1052 0.13589 0.0
C1156 C 0.19399 0.09059 0.1111 0.0
C1157 C 0.21049 0.08202 0.10952 0.0
C1158 C 0.22467 0.08809 0.1326 0.0
C1159 C 0.26483 0.08711 0.339 0.0
C1160 C 0.27374 0.07083 0.3333 0.0
C1161 C 0.25982 0.09761 0.30704 0.0
C1162 C 0.26348 0.09206 0.26862 0.0
C1163 C 0.27201 0.0757 0.26252 0.0
C1164 C 0.27721 0.06521 0.29462 0.0
C1165 C 0.25837 0.10361 0.23518 0.0
C1166 C 0.24503 0.09781 0.20929 0.0
C1167 C 0.26522 0.12105 0.23153 0.0
C1168 C 0.27977 0.12765 0.25728 0.0
C1169 C 0.29589 0.11822 0.26046 0.0
C1170 C 0.30944 0.12437 0.28518 0.0
C1171 C 0.30707 0.13999 0.30672 0.0
C1172 C 0.29116 0.14953 0.30352 0.0
C1173 C 0.27755 0.14343 0.27887 0.0
H1174 H 0.31758 0.14473 0.32586 0.0
H1175 H 0.18304 0.08589 0.09319 0.0
H1176 H 0.21944 0.28034 0.05395 0.0
H1177 H 0.21162 0.31184 0.05255 0.0
H1178 H 0.19546 0.30711 0.93136 0.0
H1179 H 0.20353 0.27559 0.93215 0.0
H1180 H 0.21416 0.33664 0.94231 0.0
H1181 H 0.16459 0.30908 0.00354 0.0
H1182 H 0.14928 0.28933 0.05049 0.0
H1183 H 0.16891 0.32062 0.14669 0.0
H1184 H 0.18463 0.34039 0.10036 0.0
H1185 H 0.17504 0.42256 0.94338 0.0
H1186 H 0.17577 0.39002 0.94137 0.0
H1187 H 0.20069 0.38886 0.05556 0.0
H1188 H 0.20057 0.42134 0.05742 0.0
H1189 H 0.17415 0.36184 0.04388 0.0
H1190 H 0.22635 0.38698 0.98008 0.0
H1191 H 0.24141 0.40618 0.93161 0.0
H1192 H 0.21503 0.37863 0.83763 0.0
H1193 H 0.1996 0.35943 0.88563 0.0
C1194 C 0.21431 0.28598 0.02689 0.0
C1195 C 0.2121 0.27541 0.99318 0.0
C1196 C 0.20973 0.30397 0.02623 0.0
C1197 C 0.20264 0.31171 0.99206 0.0
C1198 C 0.20082 0.30135 0.95806 0.0
C1199 C 0.2055 0.28335 0.95859 0.0
C1200 C 0.19735 0.3307 0.99185 0.0
C1201 C 0.20514 0.34207 0.96406 0.0
C1202 C 0.18566 0.3378 0.02042 0.0
C1203 C 0.17592 0.32616 0.04844 0.0
C1204 C 0.16573 0.31171 0.03472 0.0
C1205 C 0.15697 0.3005 0.06123 0.0
C1206 C 0.15814 0.3037 0.10155 0.0
C1207 C 0.16802 0.31815 0.11544 0.0
C1208 C 0.17686 0.32938 0.08906 0.0
C1209 C 0.18063 0.4154 0.96816 0.0
C1210 C 0.18795 0.4246 0.00035 0.0
C1211 C 0.1809 0.39681 0.96705 0.0
C1212 C 0.18841 0.38711 0.99819 0.0
C1213 C 0.19477 0.39615 0.03134 0.0
C1214 C 0.19464 0.41473 0.03235 0.0
C1215 C 0.19119 0.36769 0.99477 0.0
C1216 C 0.18295 0.35628 0.02186 0.0
C1217 C 0.20228 0.36049 0.96528 0.0
C1218 C 0.21167 0.37192 0.93644 0.0
C1219 C 0.22365 0.38512 0.94909 0.0
C1220 C 0.23227 0.39598 0.92171 0.0
C1221 C 0.22914 0.39366 0.88157 0.0
C1222 C 0.21742 0.38043 0.86873 0.0
C1223 C 0.20873 0.36955 0.89601 0.0
H1224 H 0.23583 0.40209 0.86041 0.0
H1225 H 0.15138 0.29499 0.12204 0.0
H1226 H 0.21998 0.72101 0.55786 0.0
H1227 H 0.18786 0.71617 0.55782 0.0
H1228 H 0.18983 0.70129 0.43559 0.0
H1229 H 0.22193 0.70648 0.43504 0.0
H1230 H 0.16233 0.72243 0.44879 0.0
H1231 H 0.18631 0.66998 0.50841 0.0
H1232 H 0.2047 0.65296 0.55542 0.0
H1233 H 0.17466 0.6744 0.65145 0.0
H1234 H 0.1563 0.69182 0.60505 0.0
H1235 H 0.07572 0.68463 0.4425 0.0
H1236 H 0.10821 0.68683 0.44176 0.0
H1237 H 0.10762 0.70814 0.55922 0.0
H1238 H 0.07514 0.70648 0.55992 0.0
H1239 H 0.13443 0.68242 0.54719 0.0
H1240 H 0.11164 0.73594 0.48642 0.0
H1241 H 0.09357 0.75288 0.43865 0.0
H1242 H 0.12174 0.72835 0.34345 0.0
H1243 H 0.1398 0.71106 0.39069 0.0
C1244 C 0.21361 0.71676 0.53089 0.0
C1245 C 0.22357 0.71408 0.49648 0.0
C1246 C 0.19524 0.7139 0.531 0.0
C1247 C 0.1865 0.70807 0.49688 0.0
C1248 C 0.19633 0.70573 0.46228 0.0
C1249 C 0.21468 0.70871 0.46205 0.0
C1250 C 0.16709 0.70453 0.49724 0.0
C1251 C 0.15628 0.71346 0.46991 0.0
C1252 C 0.15917 0.69303 0.52524 0.0
C1253 C 0.17002 0.68235 0.55323 0.0
C1254 C 0.1837 0.67117 0.53956 0.0
C1255 C 0.19412 0.66144 0.5661 0.0
C1256 C 0.19088 0.66263 0.6064 0.0
C1257 C 0.17717 0.67351 0.62022 0.0
C1258 C 0.16674 0.68331 0.59381 0.0
C1259 C 0.08247 0.68985 0.46814 0.0
C1260 C 0.07278 0.6955 0.50117 0.0
C1261 C 0.10104 0.69099 0.46773 0.0
C1262 C 0.11025 0.69776 0.50034 0.0
C1263 C 0.10072 0.70282 0.53384 0.0
C1264 C 0.08215 0.7018 0.5342 0.0
C1265 C 0.12977 0.70036 0.49885 0.0
C1266 C 0.14056 0.69128 0.52596 0.0
C1267 C 0.13771 0.71161 0.4705 0.0
C1268 C 0.12693 0.72206 0.44207 0.0
C1269 C 0.11387 0.73405 0.45529 0.0
C1270 C 0.10366 0.74373 0.42832 0.0
C1271 C 0.10647 0.74165 0.38804 0.0
C1272 C 0.11955 0.72992 0.37466 0.0
C1273 C 0.12979 0.72018 0.40152 0.0
H1274 H 0.09855 0.74916 0.3672 0.0
H1275 H 0.19896 0.6551 0.6269 0.0
H1276 H 0.79499 0.72131 0.94071 0.0
H1277 H 0.80091 0.68943 0.94305 0.0
H1278 H 0.78418 0.68782 0.06416 0.0
H1279 H 0.77869 0.71992 0.06243 0.0
H1280 H 0.81309 0.6682 0.05464 0.0
H1281 H 0.75678 0.67327 0.98902 0.0
H1282 H 0.73554 0.68437 0.93933 0.0
H1283 H 0.76799 0.66277 0.84737 0.0
H1284 H 0.78956 0.65174 0.89652 0.0
H1285 H 0.79459 0.57473 0.064 0.0
H1286 H 0.79367 0.6072 0.06464 0.0
H1287 H 0.81711 0.60865 0.94922 0.0
H1288 H 0.81869 0.57613 0.94876 0.0
H1289 H 0.78563 0.62826 0.95563 0.0
H1290 H 0.84127 0.6219 0.02376 0.0
H1291 H 0.86155 0.61046 0.07498 0.0
H1292 H 0.8289 0.63394 0.16433 0.0
H1293 H 0.80827 0.6453 0.11365 0.0
C1294 C 0.79246 0.71419 0.96783 0.0
C1295 C 0.78617 0.72314 0.00129 0.0
C1296 C 0.79585 0.69594 0.9691 0.0
C1297 C 0.79271 0.68618 0.00358 0.0
C1298 C 0.78666 0.69509 0.0372 0.0
C1299 C 0.78345 0.71342 0.03611 0.0
C1300 C 0.79564 0.66666 0.00439 0.0
C1301 C 0.8069 0.65943 0.03331 0.0
C1302 C 0.78785 0.65526 0.97607 0.0
C1303 C 0.77487 0.66183 0.94644 0.0
C1304 C 0.75945 0.671 0.95819 0.0
C1305 C 0.74734 0.67726 0.93012 0.0
C1306 C 0.75044 0.67431 0.89021 0.0
C1307 C 0.76563 0.66506 0.87829 0.0
C1308 C 0.77779 0.65879 0.90624 0.0
C1309 C 0.79999 0.58191 0.03912 0.0
C1310 C 0.80666 0.57277 0.00624 0.0
C1311 C 0.79937 0.60049 0.03951 0.0
C1312 C 0.80534 0.61028 0.007 0.0
C1313 C 0.81239 0.60128 0.97454 0.0
C1314 C 0.81318 0.58271 0.97426 0.0
C1315 C 0.80306 0.62984 0.00582 0.0
C1316 C 0.79186 0.63705 0.97686 0.0
C1317 C 0.81074 0.64114 0.03436 0.0
C1318 C 0.82312 0.6343 0.06491 0.0
C1319 C 0.83831 0.62448 0.05435 0.0
C1320 C 0.8499 0.61804 0.08328 0.0
C1321 C 0.84649 0.62143 0.12289 0.0
C1322 C 0.83151 0.6313 0.13364 0.0
C1323 C 0.81988 0.63776 0.10482 0.0
H1324 H 0.85548 0.61644 0.14525 0.0
H1325 H 0.74104 0.67917 0.86853 0.0
H1326 H 0.7804 0.27438 0.55453 0.0
H1327 H 0.81225 0.28063 0.55344 0.0
H1328 H 0.80738 0.30149 0.4357 0.0
H1329 H 0.77551 0.29482 0.43611 0.0
H1330 H 0.83612 0.28173 0.44165 0.0
H1331 H 0.81101 0.32911 0.5158 0.0
H1332 H 0.79264 0.34282 0.5675 0.0
H1333 H 0.82466 0.31763 0.65627 0.0
H1334 H 0.84303 0.30349 0.60512 0.0
H1335 H 0.92286 0.3198 0.44636 0.0
H1336 H 0.89033 0.31814 0.44454 0.0
H1337 H 0.8905 0.29 0.55506 0.0
H1338 H 0.92299 0.29119 0.55674 0.0
H1339 H 0.86387 0.31622 0.54991 0.0
H1340 H 0.88704 0.267 0.47344 0.0
H1341 H 0.90511 0.25376 0.42064 0.0
H1342 H 0.87625 0.28417 0.33456 0.0
H1343 H 0.85817 0.29779 0.38695 0.0
C1344 C 0.78609 0.28024 0.52831 0.0
C1345 C 0.77539 0.28417 0.49546 0.0
C1346 C 0.80429 0.28391 0.52783 0.0
C1347 C 0.81212 0.29188 0.4948 0.0
C1348 C 0.80159 0.29542 0.46158 0.0
C1349 C 0.78338 0.29158 0.46186 0.0
C1350 C 0.83134 0.29636 0.49497 0.0
C1351 C 0.84212 0.28954 0.46496 0.0
C1352 C 0.8392 0.30642 0.52563 0.0
C1353 C 0.82833 0.31512 0.55656 0.0
C1354 C 0.81407 0.32639 0.54634 0.0
C1355 C 0.80366 0.33425 0.57555 0.0
C1356 C 0.80747 0.33107 0.61514 0.0
C1357 C 0.82172 0.32007 0.62559 0.0
C1358 C 0.83215 0.31213 0.59649 0.0
C1359 C 0.91599 0.31323 0.47026 0.0
C1360 C 0.92555 0.30551 0.50155 0.0
C1361 C 0.89741 0.31239 0.46926 0.0
C1362 C 0.88807 0.30383 0.49953 0.0
C1363 C 0.89749 0.29672 0.53151 0.0
C1364 C 0.91606 0.29747 0.53245 0.0
C1365 C 0.86856 0.30138 0.49693 0.0
C1366 C 0.85777 0.30858 0.52645 0.0
C1367 C 0.86064 0.29185 0.46564 0.0
C1368 C 0.8714 0.28355 0.43413 0.0
C1369 C 0.88465 0.27096 0.44328 0.0
C1370 C 0.89487 0.26337 0.41343 0.0
C1371 C 0.89186 0.26815 0.37428 0.0
C1372 C 0.87858 0.2805 0.3649 0.0
C1373 C 0.86834 0.28815 0.39465 0.0
H1374 H 0.89979 0.26226 0.35121 0.0
H1375 H 0.79939 0.33717 0.63771 0.0
H1376 H 0.70763 0.22208 0.44193 0.0
H1377 H 0.7024 0.18997 0.44236 0.0
H1378 H 0.71846 0.18741 0.56393 0.0
H1379 H 0.72363 0.21959 0.56398 0.0
H1380 H 0.7339 0.16087 0.51499 0.0
H1381 H 0.67643 0.18558 0.54579 0.0
H1382 H 0.65072 0.20542 0.53489 0.0
H1383 H 0.64075 0.18069 0.42338 0.0
H1384 H 0.66658 0.16086 0.43338 0.0
H1385 H 0.7062 0.07417 0.55863 0.0
H1386 H 0.70854 0.1065 0.56039 0.0
H1387 H 0.68593 0.10974 0.44399 0.0
H1388 H 0.68277 0.07731 0.44264 0.0
H1389 H 0.67361 0.13619 0.48981 0.0
H1390 H 0.73049 0.11193 0.45689 0.0
H1391 H 0.75675 0.09252 0.46459 0.0
H1392 H 0.76853 0.11671 0.57582 0.0
H1393 H 0.74217 0.1361 0.56905 0.0
C1394 C 0.71017 0.2147 0.46872 0.0
C1395 C 0.71605 0.22339 0.50295 0.0
C1396 C 0.70708 0.19638 0.46894 0.0
C1397 C 0.70992 0.18641 0.50325 0.0
C1398 C 0.71616 0.19493 0.53721 0.0
C1399 C 0.71906 0.2133 0.53719 0.0
C1400 C 0.70638 0.16707 0.50366 0.0
C1401 C 0.72069 0.15544 0.51008 0.0
C1402 C 0.68922 0.1601 0.49603 0.0
C1403 C 0.67355 0.17185 0.49017 0.0
C1404 C 0.66884 0.18447 0.51881 0.0
C1405 C 0.65423 0.19569 0.51282 0.0
C1406 C 0.64414 0.19435 0.47842 0.0
C1407 C 0.6486 0.18173 0.45 0.0
C1408 C 0.66321 0.17048 0.45583 0.0
C1409 C 0.7013 0.08173 0.53373 0.0
C1410 C 0.69437 0.07311 0.50038 0.0
C1411 C 0.70285 0.10023 0.53462 0.0
C1412 C 0.69774 0.11049 0.50202 0.0
C1413 C 0.69008 0.10205 0.46935 0.0
C1414 C 0.68842 0.08351 0.46851 0.0
C1415 C 0.70113 0.12992 0.50146 0.0
C1416 C 0.68682 0.14158 0.49486 0.0
C1417 C 0.71835 0.13695 0.50851 0.0
C1418 C 0.73425 0.12535 0.51264 0.0
C1419 C 0.7386 0.11302 0.48314 0.0
C1420 C 0.75352 0.10203 0.48731 0.0
C1421 C 0.76428 0.10335 0.52072 0.0
C1422 C 0.76017 0.11569 0.54999 0.0
C1423 C 0.74524 0.12669 0.54599 0.0
H1424 H 0.77583 0.09484 0.52389 0.0
H1425 H 0.63284 0.20306 0.47382 0.0
H1426 H 0.27544 0.20786 0.93941 0.0
H1427 H 0.30776 0.20379 0.93969 0.0
H1428 H 0.31007 0.22117 0.06022 0.0
H1429 H 0.27773 0.22517 0.06043 0.0
H1430 H 0.33577 0.2372 0.00955 0.0
H1431 H 0.31324 0.17913 0.04449 0.0
H1432 H 0.29437 0.15261 0.03496 0.0
H1433 H 0.31969 0.14243 0.92434 0.0
H1434 H 0.33855 0.16906 0.93296 0.0
H1435 H 0.42318 0.21294 0.05816 0.0
H1436 H 0.39081 0.21511 0.05771 0.0
H1437 H 0.38907 0.18957 0.9444 0.0
H1438 H 0.4215 0.1865 0.9455 0.0
H1439 H 0.36282 0.17761 0.98958 0.0
H1440 H 0.38518 0.2347 0.95254 0.0
H1441 H 0.4035 0.26182 0.95817 0.0
H1442 H 0.37817 0.2746 0.06745 0.0
H1443 H 0.35986 0.24741 0.06275 0.0
C1444 C 0.28282 0.21091 0.96594 0.0
C1445 C 0.27403 0.21684 -7e-05 0.0
C1446 C 0.30125 0.20849 0.96607 0.0
C1447 C 0.3112 0.21208 4e-05 0.0
C1448 C 0.30256 0.21831 0.03377 0.0
C1449 C 0.2841 0.22053 0.03384 0.0
C1450 C 0.33068 0.20933 0.00041 0.0
C1451 C 0.34172 0.22416 0.00573 0.0
C1452 C 0.33832 0.19237 0.99413 0.0
C1453 C 0.32718 0.17619 0.98919 0.0
C1454 C 0.31469 0.17132 0.01799 0.0
C1455 C 0.30401 0.15625 0.01278 0.0
C1456 C 0.30579 0.14587 0.97901 0.0
C1457 C 0.31831 0.1505 0.95046 0.0
C1458 C 0.32901 0.16557 0.95551 0.0
C1459 C 0.41593 0.20746 0.03345 0.0
C1460 C 0.42497 0.19959 0.00178 0.0
C1461 C 0.39742 0.20891 0.03302 0.0
C1462 C 0.38756 0.20281 0.00068 0.0
C1463 C 0.39644 0.19448 0.96953 0.0
C1464 C 0.41499 0.19289 0.97005 0.0
C1465 C 0.36801 0.2055 0.99911 0.0
C1466 C 0.35692 0.19068 0.99344 0.0
C1467 C 0.3603 0.22253 0.00456 0.0
C1468 C 0.37127 0.23892 0.00748 0.0
C1469 C 0.38361 0.24322 0.97793 0.0
C1470 C 0.39398 0.25862 0.98092 0.0
C1471 C 0.39203 0.26991 0.01319 0.0
C1472 C 0.37968 0.26584 0.04249 0.0
C1473 C 0.36929 0.25044 0.03967 0.0
H1474 H 0.40007 0.28183 0.01545 0.0
H1475 H 0.29749 0.13423 0.975 0.0
H1476 H 0.29653 0.77412 0.55876 0.0
H1477 H 0.30179 0.80618 0.55827 0.0
H1478 H 0.27808 0.80992 0.44292 0.0
H1479 H 0.27329 0.77773 0.44265 0.0
H1480 H 0.30701 0.82974 0.44632 0.0
H1481 H 0.25512 0.82211 0.52743 0.0
H1482 H 0.23774 0.80961 0.58233 0.0
H1483 H 0.27551 0.8308 0.66484 0.0
H1484 H 0.29323 0.84324 0.61037 0.0
H1485 H 0.28508 0.92196 0.44364 0.0
H1486 H 0.28517 0.88946 0.44333 0.0
H1487 H 0.31371 0.88903 0.55342 0.0
H1488 H 0.31406 0.92159 0.55359 0.0
H1489 H 0.28413 0.86755 0.55431 0.0
H1490 H 0.33483 0.87705 0.47212 0.0
H1491 H 0.35156 0.88982 0.41658 0.0
H1492 H 0.31526 0.86546 0.33521 0.0
H1493 H 0.29814 0.85275 0.3903 0.0
C1494 C 0.29233 0.78177 0.53336 0.0
C1495 C 0.28433 0.7734 0.50087 0.0
C1496 C 0.29534 0.80011 0.53314 0.0
C1497 C 0.29008 0.8105 0.50081 0.0
C1498 C 0.28224 0.80216 0.4682 0.0
C1499 C 0.27944 0.78378 0.46815 0.0
C1500 C 0.29263 0.83008 0.50101 0.0
C1501 C 0.30183 0.83803 0.46971 0.0
C1502 C 0.28626 0.84085 0.53202 0.0
C1503 C 0.27558 0.83345 0.56481 0.0
C1504 C 0.25978 0.824 0.55727 0.0
C1505 C 0.24986 0.81694 0.58831 0.0
C1506 C 0.25554 0.81937 0.62704 0.0
C1507 C 0.27113 0.8289 0.63482 0.0
C1508 C 0.28111 0.83598 0.60388 0.0
C1509 C 0.29171 0.91499 0.4674 0.0
C1510 C 0.29952 0.9244 0.4987 0.0
C1511 C 0.2917 0.8964 0.46721 0.0
C1512 C 0.29951 0.88687 0.49828 0.0
C1513 C 0.30757 0.89617 0.52924 0.0
C1514 C 0.30768 0.91476 0.52935 0.0
C1515 C 0.29835 0.86721 0.49947 0.0
C1516 C 0.2894 0.85924 0.53105 0.0
C1517 C 0.30483 0.85647 0.46859 0.0
C1518 C 0.3151 0.86408 0.43537 0.0
C1519 C 0.33032 0.87454 0.44239 0.0
C1520 C 0.33989 0.88174 0.41099 0.0
C1521 C 0.33445 0.87849 0.37239 0.0
C1522 C 0.31944 0.86798 0.36512 0.0
C1523 C 0.30981 0.86076 0.39643 0.0
H1524 H 0.34188 0.88407 0.34811 0.0
H1525 H 0.24784 0.8139 0.65103 0.0
H1526 H 0.72214 0.78064 0.92922 0.0
H1527 H 0.68994 0.78511 0.92716 0.0
H1528 H 0.68851 0.78669 0.05373 0.0
H1529 H 0.72072 0.78244 0.05622 0.0
H1530 H 0.6627 0.76567 0.95565 0.0
H1531 H 0.65729 0.81689 0.08186 0.0
H1532 H 0.67578 0.84004 0.11315 0.0
H1533 H 0.70467 0.84731 0.00564 0.0
H1534 H 0.68619 0.82439 0.97355 0.0
H1535 H 0.57499 0.77234 0.02779 0.0
H1536 H 0.60747 0.7705 0.02441 0.0
H1537 H 0.60899 0.82017 0.96069 0.0
H1538 H 0.57639 0.82214 0.96412 0.0
H1539 H 0.63482 0.81767 0.02096 0.0
H1540 H 0.61401 0.78447 0.91019 0.0
H1541 H 0.59584 0.76197 0.87597 0.0
H1542 H 0.61981 0.72059 0.94543 0.0
H1543 H 0.63795 0.74289 0.98051 0.0
C1544 C 0.71501 0.78188 0.95668 0.0
C1545 C 0.72407 0.78124 0.9929 0.0
C1546 C 0.69659 0.78441 0.9554 0.0
C1547 C 0.6869 0.78644 0.99025 0.0
C1548 C 0.69581 0.78543 0.02646 0.0
C1549 C 0.71422 0.78291 0.02781 0.0
C1550 C 0.66745 0.78962 0.98875 0.0
C1551 C 0.65662 0.77705 0.96987 0.0
C1552 C 0.65956 0.80465 0.00673 0.0
C1553 C 0.67044 0.81881 0.02543 0.0
C1554 C 0.66752 0.8235 0.06484 0.0
C1555 C 0.67801 0.83657 0.08272 0.0
C1556 C 0.69143 0.8451 0.06143 0.0
C1557 C 0.69432 0.84065 0.02214 0.0
C1558 C 0.68384 0.82761 0.0041 0.0
C1559 C 0.58226 0.78296 0.01342 0.0
C1560 C 0.5732 0.79739 0.99621 0.0
C1561 C 0.60077 0.78184 0.01131 0.0
C1562 C 0.61056 0.79514 0.99208 0.0
C1563 C 0.60162 0.80977 0.9756 0.0
C1564 C 0.58305 0.81082 0.97736 0.0
C1565 C 0.63012 0.7935 0.98866 0.0
C1566 C 0.64095 0.80634 0.00663 0.0
C1567 C 0.63804 0.77885 0.96938 0.0
C1568 C 0.62722 0.76538 0.94821 0.0
C1569 C 0.6153 0.77059 0.9184 0.0
C1570 C 0.60503 0.75787 0.8988 0.0
C1571 C 0.60664 0.73986 0.90857 0.0
C1572 C 0.61857 0.73454 0.93791 0.0
C1573 C 0.62886 0.74722 0.95764 0.0
H1574 H 0.59867 0.73003 0.89336 0.0
H1575 H 0.69957 0.85518 0.07537 0.0
loop_
_geom_bond_atom_site_label_1
_geom_bond_atom_site_label_2
_geom_bond_distance
_geom_bond_site_symmetry_2
_ccdc_geom_bond_type
Sc0 O3 2.039 . S
Sc0 O10 2.105 . S
Sc0 O13 2.105 . S
Sc0 O16 2.105 . S
Sc0 O19 2.105 . S
Sc1 O3 2.025 . S
Sc1 O11 2.116 . S
Sc1 O15 2.094 1_554 S
Sc1 O17 2.116 . S
Sc1 O21 2.094 1_554 S
Sc2 O3 2.011 1_556 S
Sc2 O12 2.105 . S
Sc2 O14 2.105 . S
Sc2 O18 2.105 . S
Sc2 O20 2.105 . S
O3 Sc0 2.039 . S
O3 Sc1 2.025 . S
O3 Sc2 2.011 1_554 S
C4 O10 1.279 . S
C4 O20 1.257 1_554 S
C5 O11 1.268 . S
C5 O19 1.268 . S
C6 O12 1.268 . S
C6 O21 1.268 . S
C7 O13 1.268 . S
C7 O17 1.268 . S
C8 O14 1.250 1_554 S
C8 O16 1.286 . S
C9 O15 1.268 . S
C9 O18 1.268 . S
O10 Sc0 2.105 . S
O10 C4 1.279 . S
O11 Sc1 2.116 . S
O11 C5 1.268 . S
O12 Sc2 2.105 . S
O12 C6 1.268 . S
O13 Sc0 2.105 . S
O13 C7 1.268 . S
O14 Sc2 2.105 . S
O14 C8 1.250 1_556 S
O15 Sc1 2.094 1_556 S
O15 C9 1.268 . S
O16 Sc0 2.105 . S
O16 C8 1.286 . S
O17 Sc1 2.116 . S
O17 C7 1.268 . S
O18 Sc2 2.105 . S
O18 C9 1.268 . S
O19 Sc0 2.105 . S
O19 C5 1.268 . S
O20 Sc2 2.105 . S
O20 C4 1.257 1_556 S
O21 Sc1 2.094 1_556 S
O21 C6 1.268 . S
Sc22 O25 2.025 . S
Sc22 O32 2.105 . S
Sc22 O35 2.105 . S
Sc22 O38 2.105 . S
Sc22 O41 2.105 . S
Sc23 O25 2.025 . S
Sc23 O33 2.105 . S
Sc23 O37 2.105 . S
Sc23 O39 2.105 . S
Sc23 O43 2.105 . S
Sc24 O25 2.025 . S
Sc24 O34 2.105 . S
Sc24 O36 2.105 . S
Sc24 O40 2.105 . S
Sc24 O42 2.105 . S
O25 Sc22 2.025 . S
O25 Sc23 2.025 . S
O25 Sc24 2.025 . S
C26 O32 1.268 . S
C26 O42 1.268 . S
C27 O33 1.268 . S
C27 O41 1.268 . S
C28 O34 1.268 . S
C28 O43 1.268 . S
C29 O35 1.268 . S
C29 O39 1.268 . S
C30 O36 1.268 . S
C30 O38 1.268 . S
C31 O37 1.268 . S
C31 O40 1.268 . S
O32 Sc22 2.105 . S
O32 C26 1.268 . S
O33 Sc23 2.105 . S
O33 C27 1.268 . S
O34 Sc24 2.105 . S
O34 C28 1.268 . S
O35 Sc22 2.105 . S
O35 C29 1.268 . S
O36 Sc24 2.105 . S
O36 C30 1.268 . S
O37 Sc23 2.105 . S
O37 C31 1.268 . S
O38 Sc22 2.105 . S
O38 C30 1.268 . S
O39 Sc23 2.105 . S
O39 C29 1.268 . S
O40 Sc24 2.105 . S
O40 C31 1.268 . S
O41 Sc22 2.105 . S
O41 C27 1.268 . S
O42 Sc24 2.105 . S
O42 C26 1.268 . S
O43 Sc23 2.105 . S
O43 C28 1.268 . S
Sc44 O47 2.011 1_556 S
Sc44 O54 2.105 . S
Sc44 O57 2.105 . S
Sc44 O60 2.105 . S
Sc44 O63 2.105 . S
Sc45 O47 2.025 . S
Sc45 O55 2.094 1_554 S
Sc45 O59 2.116 . S
Sc45 O61 2.094 1_554 S
Sc45 O65 2.116 . S
Sc46 O47 2.039 . S
Sc46 O56 2.105 . S
Sc46 O58 2.105 . S
Sc46 O62 2.105 . S
Sc46 O64 2.105 . S
O47 Sc44 2.011 1_554 S
O47 Sc45 2.025 . S
O47 Sc46 2.039 . S
C48 O54 1.257 1_554 S
C48 O64 1.279 . S
C49 O55 1.268 . S
C49 O63 1.268 . S
C50 O56 1.268 . S
C50 O65 1.268 . S
C51 O57 1.268 . S
C51 O61 1.268 . S
C52 O58 1.286 . S
C52 O60 1.250 1_554 S
C53 O59 1.268 . S
C53 O62 1.268 . S
O54 Sc44 2.105 . S
O54 C48 1.257 1_556 S
O55 Sc45 2.094 1_556 S
O55 C49 1.268 . S
O56 Sc46 2.105 . S
O56 C50 1.268 . S
O57 Sc44 2.105 . S
O57 C51 1.268 . S
O58 Sc46 2.105 . S
O58 C52 1.286 . S
O59 Sc45 2.116 . S
O59 C53 1.268 . S
O60 Sc44 2.105 . S
O60 C52 1.250 1_556 S
O61 Sc45 2.094 1_556 S
O61 C51 1.268 . S
O62 Sc46 2.105 . S
O62 C53 1.268 . S
O63 Sc44 2.105 . S
O63 C49 1.268 . S
O64 Sc46 2.105 . S
O64 C48 1.279 . S
O65 Sc45 2.116 . S
O65 C50 1.268 . S
Sc66 O69 2.025 . S
Sc66 O76 2.105 . S
Sc66 O79 2.105 . S
Sc66 O82 2.105 . S
Sc66 O85 2.105 . S
Sc67 O69 2.025 . S
Sc67 O77 2.105 . S
Sc67 O81 2.105 . S
Sc67 O83 2.105 . S
Sc67 O87 2.105 . S
Sc68 O69 2.025 . S
Sc68 O78 2.105 . S
Sc68 O80 2.105 . S
Sc68 O84 2.105 . S
Sc68 O86 2.105 . S
O69 Sc66 2.025 . S
O69 Sc67 2.025 . S
O69 Sc68 2.025 . S
C70 O76 1.268 . S
C70 O86 1.268 . S
C71 O77 1.268 . S
C71 O85 1.268 . S
C72 O78 1.268 . S
C72 O87 1.268 . S
C73 O79 1.268 . S
C73 O83 1.268 . S
C74 O80 1.268 . S
C74 O82 1.268 . S
C75 O81 1.268 . S
C75 O84 1.268 . S
O76 Sc66 2.105 . S
O76 C70 1.268 . S
O77 Sc67 2.105 . S
O77 C71 1.268 . S
O78 Sc68 2.105 . S
O78 C72 1.268 . S
O79 Sc66 2.105 . S
O79 C73 1.268 . S
O80 Sc68 2.105 . S
O80 C74 1.268 . S
O81 Sc67 2.105 . S
O81 C75 1.268 . S
O82 Sc66 2.105 . S
O82 C74 1.268 . S
O83 Sc67 2.105 . S
O83 C73 1.268 . S
O84 Sc68 2.105 . S
O84 C75 1.268 . S
O85 Sc66 2.105 . S
O85 C71 1.268 . S
O86 Sc68 2.105 . S
O86 C70 1.268 . S
O87 Sc67 2.105 . S
O87 C72 1.268 . S
C88 C89 1.384 . S
C88 H101 0.947 . S
C88 C123 1.382 . S
C89 C88 1.384 . S
C89 C90 1.378 . S
C90 C89 1.378 . S
C90 C91 1.378 . S
C90 H102 0.952 . S
C91 C90 1.378 . S
C91 H103 0.950 . S
C91 C122 1.383 . S
H92 C111 0.947 . S
H93 C112 0.946 . S
H94 C114 0.953 . S
H95 C115 0.945 . S
H96 C117 0.952 . S
H97 C118 0.949 . S
H98 C120 0.950 . S
H99 C121 0.948 . S
H100 C123 0.951 . S
H101 C88 0.947 . S
H102 C90 0.952 . S
H103 C91 0.950 . S
N104 C107 1.376 1_554 S
N104 C109 1.363 . S
N105 C107 1.377 . S
N105 C108 1.372 . S
N106 C108 1.361 . S
N106 C109 1.377 1_556 S
C107 N104 1.376 1_556 S
C107 N105 1.377 . S
C107 C110 1.480 . S
C108 N105 1.372 . S
C108 N106 1.361 . S
C108 C116 1.457 . S
C109 N104 1.363 . S
C109 N106 1.377 1_554 S
C109 C122 1.479 . S
C110 C107 1.480 . S
C110 C111 1.383 1_556 S
C110 C115 1.385 . S
C111 H92 0.947 . S
C111 C110 1.383 1_554 S
C111 C112 1.388 . S
C112 H93 0.946 . S
C112 C111 1.388 . S
C112 C113 1.384 1_554 S
C113 C112 1.384 1_556 S
C113 C114 1.377 . S
C114 H94 0.953 . S
C114 C113 1.377 . S
C114 C115 1.369 . S
C115 H95 0.945 . S
C115 C110 1.385 . S
C115 C114 1.369 . S
C116 C108 1.457 . S
C116 C117 1.372 . S
C116 C121 1.364 . S
C117 H96 0.952 . S
C117 C116 1.372 . S
C117 C118 1.389 . S
C118 H97 0.949 . S
C118 C117 1.389 . S
C118 C119 1.387 . S
C119 C118 1.387 . S
C119 C120 1.372 . S
C120 H98 0.950 . S
C120 C119 1.372 . S
C120 C121 1.379 . S
C121 H99 0.948 . S
C121 C116 1.364 . S
C121 C120 1.379 . S
C122 C91 1.383 . S
C122 C109 1.479 . S
C122 C123 1.398 . S
C123 C88 1.382 . S
C123 H100 0.951 . S
C123 C122 1.398 . S
C124 C125 1.384 . S
C124 H137 0.947 . S
C124 C159 1.382 . S
C125 C124 1.384 . S
C125 C126 1.378 . S
C126 C125 1.378 . S
C126 C127 1.378 . S
C126 H138 0.952 . S
C127 C126 1.378 . S
C127 H139 0.950 . S
C127 C158 1.383 . S
H128 C147 0.947 . S
H129 C148 0.946 . S
H130 C150 0.953 . S
H131 C151 0.945 . S
H132 C153 0.952 . S
H133 C154 0.949 . S
H134 C156 0.950 . S
H135 C157 0.948 . S
H136 C159 0.951 . S
H137 C124 0.947 . S
H138 C126 0.952 . S
H139 C127 0.950 . S
N140 C143 1.382 . S
N140 C145 1.363 . S
N141 C143 1.371 . S
N141 C144 1.372 . S
N142 C144 1.361 . S
N142 C145 1.377 . S
C143 N140 1.382 . S
C143 N141 1.371 . S
C143 C146 1.480 1_655 S
C144 N141 1.372 . S
C144 N142 1.361 . S
C144 C152 1.457 . S
C145 N140 1.363 . S
C145 N142 1.377 . S
C145 C158 1.479 . S
C146 C143 1.480 1_455 S
C146 C147 1.383 . S
C146 C151 1.385 . S
C147 H128 0.947 . S
C147 C146 1.383 . S
C147 C148 1.388 . S
C148 H129 0.946 . S
C148 C147 1.388 . S
C148 C149 1.384 . S
C149 C148 1.384 . S
C149 C150 1.377 . S
C150 H130 0.953 . S
C150 C149 1.377 . S
C150 C151 1.369 . S
C151 H131 0.945 . S
C151 C146 1.385 . S
C151 C150 1.369 . S
C152 C144 1.457 . S
C152 C153 1.372 . S
C152 C157 1.364 . S
C153 H132 0.952 . S
C153 C152 1.372 . S
C153 C154 1.389 . S
C154 H133 0.949 . S
C154 C153 1.389 . S
C154 C155 1.387 . S
C155 C154 1.387 . S
C155 C156 1.372 . S
C156 H134 0.950 . S
C156 C155 1.372 . S
C156 C157 1.379 . S
C157 H135 0.948 . S
C157 C152 1.364 . S
C157 C156 1.379 . S
C158 C127 1.383 . S
C158 C145 1.479 . S
C158 C159 1.398 . S
C159 C124 1.382 . S
C159 H136 0.951 . S
C159 C158 1.398 . S
C160 C161 1.384 . S
C160 H173 0.947 . S
C160 C195 1.382 . S
C161 C160 1.384 . S
C161 C162 1.378 . S
C162 C161 1.378 . S
C162 C163 1.378 . S
C162 H174 0.952 . S
C163 C162 1.378 . S
C163 H175 0.950 . S
C163 C194 1.383 . S
H164 C183 0.947 . S
H165 C184 0.946 . S
H166 C186 0.953 . S
H167 C187 0.945 . S
H168 C189 0.952 . S
H169 C190 0.949 . S
H170 C192 0.950 . S
H171 C193 0.948 . S
H172 C195 0.951 . S
H173 C160 0.947 . S
H174 C162 0.952 . S
H175 C163 0.950 . S
N176 C179 1.382 1_556 S
N176 C181 1.363 . S
N177 C179 1.371 . S
N177 C180 1.372 . S
N178 C180 1.361 . S
N178 C181 1.377 1_554 S
C179 N176 1.382 1_554 S
C179 N177 1.371 . S
C179 C182 1.480 . S
C180 N177 1.372 . S
C180 N178 1.361 . S
C180 C188 1.457 . S
C181 N176 1.363 . S
C181 N178 1.377 1_556 S
C181 C194 1.479 . S
C182 C179 1.480 . S
C182 C183 1.383 1_554 S
C182 C187 1.385 . S
C183 H164 0.947 . S
C183 C182 1.383 1_556 S
C183 C184 1.388 . S
C184 H165 0.946 . S
C184 C183 1.388 . S
C184 C185 1.384 1_556 S
C185 C184 1.384 1_554 S
C185 C186 1.377 . S
C186 H166 0.953 . S
C186 C185 1.377 . S
C186 C187 1.369 . S
C187 H167 0.945 . S
C187 C182 1.385 . S
C187 C186 1.369 . S
C188 C180 1.457 . S
C188 C189 1.372 . S
C188 C193 1.364 . S
C189 H168 0.952 . S
C189 C188 1.372 . S
C189 C190 1.389 . S
C190 H169 0.949 . S
C190 C189 1.389 . S
C190 C191 1.387 . S
C191 C190 1.387 . S
C191 C192 1.372 . S
C192 H170 0.950 . S
C192 C191 1.372 . S
C192 C193 1.379 . S
C193 H171 0.948 . S
C193 C188 1.364 . S
C193 C192 1.379 . S
C194 C163 1.383 . S
C194 C181 1.479 . S
C194 C195 1.398 . S
C195 C160 1.382 . S
C195 H172 0.951 . S
C195 C194 1.398 . S
C196 C197 1.384 . S
C196 H209 0.947 . S
C196 C231 1.382 . S
C197 C196 1.384 . S
C197 C198 1.378 . S
C198 C197 1.378 . S
C198 C199 1.378 . S
C198 H210 0.952 . S
C199 C198 1.378 . S
C199 H211 0.950 . S
C199 C230 1.383 . S
H200 C219 0.947 . S
H201 C220 0.946 . S
H202 C222 0.953 . S
H203 C223 0.945 . S
H204 C225 0.952 . S
H205 C226 0.949 . S
H206 C228 0.950 . S
H207 C229 0.948 . S
H208 C231 0.951 . S
H209 C196 0.947 . S
H210 C198 0.952 . S
H211 C199 0.950 . S
N212 C215 1.382 . S
N212 C217 1.363 . S
N213 C215 1.371 . S
N213 C216 1.372 . S
N214 C216 1.361 . S
N214 C217 1.377 . S
C215 N212 1.382 . S
C215 N213 1.371 . S
C215 C218 1.480 1_455 S
C216 N213 1.372 . S
C216 N214 1.361 . S
C216 C224 1.457 . S
C217 N212 1.363 . S
C217 N214 1.377 . S
C217 C230 1.479 . S
C218 C215 1.480 1_655 S
C218 C219 1.383 . S
C218 C223 1.385 . S
C219 H200 0.947 . S
C219 C218 1.383 . S
C219 C220 1.388 . S
C220 H201 0.946 . S
C220 C219 1.388 . S
C220 C221 1.384 . S
C221 C220 1.384 . S
C221 C222 1.377 . S
C222 H202 0.953 . S
C222 C221 1.377 . S
C222 C223 1.369 . S
C223 H203 0.945 . S
C223 C218 1.385 . S
C223 C222 1.369 . S
C224 C216 1.457 . S
C224 C225 1.372 . S
C224 C229 1.364 . S
C225 H204 0.952 . S
C225 C224 1.372 . S
C225 C226 1.389 . S
C226 H205 0.949 . S
C226 C225 1.389 . S
C226 C227 1.387 . S
C227 C226 1.387 . S
C227 C228 1.372 . S
C228 H206 0.950 . S
C228 C227 1.372 . S
C228 C229 1.379 . S
C229 H207 0.948 . S
C229 C224 1.364 . S
C229 C228 1.379 . S
C230 C199 1.383 . S
C230 C217 1.479 . S
C230 C231 1.398 . S
C231 C196 1.382 . S
C231 H208 0.951 . S
C231 C230 1.398 . S
C232 C233 1.384 . S
C232 H245 0.947 . S
C232 C267 1.382 . S
C233 C232 1.384 . S
C233 C234 1.378 . S
C234 C233 1.378 . S
C234 C235 1.378 . S
C234 H246 0.952 . S
C235 C234 1.378 . S
C235 H247 0.950 . S
C235 C266 1.383 . S
H236 C255 0.947 . S
H237 C256 0.946 . S
H238 C258 0.953 . S
H239 C259 0.945 . S
H240 C261 0.952 . S
H241 C262 0.949 . S
H242 C264 0.950 . S
H243 C265 0.948 . S
H244 C267 0.951 . S
H245 C232 0.947 . S
H246 C234 0.952 . S
H247 C235 0.950 . S
N248 C251 1.382 . S
N248 C253 1.363 . S
N249 C251 1.371 . S
N249 C252 1.372 . S
N250 C252 1.361 . S
N250 C253 1.377 . S
C251 N248 1.382 . S
C251 N249 1.371 . S
C251 C254 1.480 1_565 S
C252 N249 1.372 . S
C252 N250 1.361 . S
C252 C260 1.457 . S
C253 N248 1.363 . S
C253 N250 1.377 . S
C253 C266 1.479 . S
C254 C251 1.480 1_545 S
C254 C255 1.383 . S
C254 C259 1.385 . S
C255 H236 0.947 . S
C255 C254 1.383 . S
C255 C256 1.388 . S
C256 H237 0.946 . S
C256 C255 1.388 . S
C256 C257 1.384 . S
C257 C256 1.384 . S
C257 C258 1.377 . S
C258 H238 0.953 . S
C258 C257 1.377 . S
C258 C259 1.369 . S
C259 H239 0.945 . S
C259 C254 1.385 . S
C259 C258 1.369 . S
C260 C252 1.457 . S
C260 C261 1.372 . S
C260 C265 1.364 . S
C261 H240 0.952 . S
C261 C260 1.372 . S
C261 C262 1.389 . S
C262 H241 0.949 . S
C262 C261 1.389 . S
C262 C263 1.387 . S
C263 C262 1.387 . S
C263 C264 1.372 . S
C264 H242 0.950 . S
C264 C263 1.372 . S
C264 C265 1.379 . S
C265 H243 0.948 . S
C265 C260 1.364 . S
C265 C264 1.379 . S
C266 C235 1.383 . S
C266 C253 1.479 . S
C266 C267 1.398 . S
C267 C232 1.382 . S
C267 H244 0.951 . S
C267 C266 1.398 . S
C268 C269 1.384 . S
C268 H281 0.947 . S
C268 C303 1.382 . S
C269 C268 1.384 . S
C269 C270 1.378 . S
C270 C269 1.378 . S
C270 C271 1.378 . S
C270 H282 0.952 . S
C271 C270 1.378 . S
C271 H283 0.950 . S
C271 C302 1.383 . S
H272 C291 0.947 . S
H273 C292 0.946 . S
H274 C294 0.953 . S
H275 C295 0.945 . S
H276 C297 0.952 . S
H277 C298 0.949 . S
H278 C300 0.950 . S
H279 C301 0.948 . S
H280 C303 0.951 . S
H281 C268 0.947 . S
H282 C270 0.952 . S
H283 C271 0.950 . S
N284 C287 1.382 1_556 S
N284 C289 1.363 . S
N285 C287 1.371 . S
N285 C288 1.372 . S
N286 C288 1.361 . S
N286 C289 1.377 1_554 S
C287 N284 1.382 1_554 S
C287 N285 1.371 . S
C287 C290 1.480 . S
C288 N285 1.372 . S
C288 N286 1.361 . S
C288 C296 1.457 . S
C289 N284 1.363 . S
C289 N286 1.377 1_556 S
C289 C302 1.479 . S
C290 C287 1.480 . S
C290 C291 1.383 1_554 S
C290 C295 1.385 . S
C291 H272 0.947 . S
C291 C290 1.383 1_556 S
C291 C292 1.388 . S
C292 H273 0.946 . S
C292 C291 1.388 . S
C292 C293 1.384 1_556 S
C293 C292 1.384 1_554 S
C293 C294 1.377 . S
C294 H274 0.953 . S
C294 C293 1.377 . S
C294 C295 1.369 . S
C295 H275 0.945 . S
C295 C290 1.385 . S
C295 C294 1.369 . S
C296 C288 1.457 . S
C296 C297 1.372 . S
C296 C301 1.364 . S
C297 H276 0.952 . S
C297 C296 1.372 . S
C297 C298 1.389 . S
C298 H277 0.949 . S
C298 C297 1.389 . S
C298 C299 1.387 . S
C299 C298 1.387 . S
C299 C300 1.372 . S
C300 H278 0.950 . S
C300 C299 1.372 . S
C300 C301 1.379 . S
C301 H279 0.948 . S
C301 C296 1.364 . S
C301 C300 1.379 . S
C302 C271 1.383 . S
C302 C289 1.479 . S
C302 C303 1.398 . S
C303 C268 1.382 . S
C303 H280 0.951 . S
C303 C302 1.398 . S
C304 C305 1.384 . S
C304 H317 0.947 . S
C304 C339 1.382 . S
C305 C304 1.384 . S
C305 C306 1.378 . S
C306 C305 1.378 . S
C306 C307 1.378 . S
C306 H318 0.952 . S
C307 C306 1.378 . S
C307 H319 0.950 . S
C307 C338 1.383 . S
H308 C327 0.947 . S
H309 C328 0.946 . S
H310 C330 0.953 . S
H311 C331 0.945 . S
H312 C333 0.952 . S
H313 C334 0.949 . S
H314 C336 0.950 . S
H315 C337 0.948 . S
H316 C339 0.951 . S
H317 C304 0.947 . S
H318 C306 0.952 . S
H319 C307 0.950 . S
N320 C323 1.382 . S
N320 C325 1.363 . S
N321 C323 1.371 . S
N321 C324 1.372 . S
N322 C324 1.361 . S
N322 C325 1.377 . S
C323 N320 1.382 . S
C323 N321 1.371 . S
C323 C326 1.480 1_545 S
C324 N321 1.372 . S
C324 N322 1.361 . S
C324 C332 1.457 . S
C325 N320 1.363 . S
C325 N322 1.377 . S
C325 C338 1.479 . S
C326 C323 1.480 1_565 S
C326 C327 1.383 . S
C326 C331 1.385 . S
C327 H308 0.947 . S
C327 C326 1.383 . S
C327 C328 1.388 . S
C328 H309 0.946 . S
C328 C327 1.388 . S
C328 C329 1.384 . S
C329 C328 1.384 . S
C329 C330 1.377 . S
C330 H310 0.953 . S
C330 C329 1.377 . S
C330 C331 1.369 . S
C331 H311 0.945 . S
C331 C326 1.385 . S
C331 C330 1.369 . S
C332 C324 1.457 . S
C332 C333 1.372 . S
C332 C337 1.364 . S
C333 H312 0.952 . S
C333 C332 1.372 . S
C333 C334 1.389 . S
C334 H313 0.949 . S
C334 C333 1.389 . S
C334 C335 1.387 . S
C335 C334 1.387 . S
C335 C336 1.372 . S
C336 H314 0.950 . S
C336 C335 1.372 . S
C336 C337 1.379 . S
C337 H315 0.948 . S
C337 C332 1.364 . S
C337 C336 1.379 . S
C338 C307 1.383 . S
C338 C325 1.479 . S
C338 C339 1.398 . S
C339 C304 1.382 . S
C339 H316 0.951 . S
C339 C338 1.398 . S
C340 C341 1.384 . S
C340 H353 0.947 . S
C340 C375 1.382 . S
C341 C340 1.384 . S
C341 C342 1.378 . S
C342 C341 1.378 . S
C342 C343 1.378 . S
C342 H354 0.952 . S
C343 C342 1.378 . S
C343 H355 0.950 . S
C343 C374 1.383 . S
H344 C363 0.947 . S
H345 C364 0.946 . S
H346 C366 0.953 . S
H347 C367 0.945 . S
H348 C369 0.952 . S
H349 C370 0.949 . S
H350 C372 0.950 . S
H351 C373 0.948 . S
H352 C375 0.951 . S
H353 C340 0.947 . S
H354 C342 0.952 . S
H355 C343 0.950 . S
N356 C359 1.375 1_554 S
N356 C361 1.363 . S
N357 C359 1.378 . S
N357 C360 1.372 . S
N358 C360 1.361 . S
N358 C361 1.377 1_556 S
C359 N356 1.375 1_556 S
C359 N357 1.378 . S
C359 C362 1.480 . S
C360 N357 1.372 . S
C360 N358 1.361 . S
C360 C368 1.457 . S
C361 N356 1.363 . S
C361 N358 1.377 1_554 S
C361 C374 1.479 . S
C362 C359 1.480 . S
C362 C363 1.383 1_556 S
C362 C367 1.385 . S
C363 H344 0.947 . S
C363 C362 1.383 1_554 S
C363 C364 1.388 . S
C364 H345 0.946 . S
C364 C363 1.388 . S
C364 C365 1.384 1_554 S
C365 C364 1.384 1_556 S
C365 C366 1.377 . S
C366 H346 0.953 . S
C366 C365 1.377 . S
C366 C367 1.369 . S
C367 H347 0.945 . S
C367 C362 1.385 . S
C367 C366 1.369 . S
C368 C360 1.457 . S
C368 C369 1.372 . S
C368 C373 1.364 . S
C369 H348 0.952 . S
C369 C368 1.372 . S
C369 C370 1.389 . S
C370 H349 0.949 . S
C370 C369 1.389 . S
C370 C371 1.387 . S
C371 C370 1.387 . S
C371 C372 1.372 . S
C372 H350 0.950 . S
C372 C371 1.372 . S
C372 C373 1.379 . S
C373 H351 0.948 . S
C373 C368 1.364 . S
C373 C372 1.379 . S
C374 C343 1.383 . S
C374 C361 1.479 . S
C374 C375 1.398 . S
C375 C340 1.382 . S
C375 H352 0.951 . S
C375 C374 1.398 . S
H376 C394 0.951 . S
H377 C396 0.951 . S
H378 C398 0.950 . S
H379 C399 0.950 . S
H380 C401 0.950 . S
H381 C404 0.950 . S
H382 C405 0.950 . S
H383 C407 0.950 . S
H384 C408 0.950 . S
H385 C409 0.951 . S
H386 C411 0.951 . S
H387 C413 0.950 . S
H388 C414 0.950 . S
H389 C416 0.950 . S
H390 C419 0.950 . S
H391 C420 0.950 . S
H392 C422 0.950 . S
H393 C423 0.950 . S
C394 H376 0.951 . S
C394 C395 1.366 . S
C394 C396 1.388 . S
C395 C394 1.366 . S
C395 C399 1.385 . S
C396 H377 0.951 . S
C396 C394 1.388 . S
C396 C397 1.366 . S
C397 C396 1.366 . S
C397 C398 1.414 . S
C397 C400 1.499 . S
C398 H378 0.950 . S
C398 C397 1.414 . S
C398 C399 1.374 . S
C399 H379 0.950 . S
C399 C395 1.385 . S
C399 C398 1.374 . S
C400 C397 1.499 . S
C400 C401 1.373 . S
C400 C402 1.389 . S
C401 H380 0.950 . S
C401 C400 1.373 . S
C401 C417 1.377 . S
C402 C400 1.389 . S
C402 C403 1.524 . S
C402 C416 1.377 . S
C403 C402 1.524 . S
C403 C404 1.397 . S
C403 C408 1.363 . S
C404 H381 0.950 . S
C404 C403 1.397 . S
C404 C405 1.334 . S
C405 H382 0.950 . S
C405 C404 1.334 . S
C405 C406 1.287 . S
C406 C405 1.287 . S
C406 C407 1.524 . S
C406 H425 0.913 . S
C407 H383 0.950 . S
C407 C406 1.524 . S
C407 C408 1.415 . S
C408 H384 0.950 . S
C408 C403 1.363 . S
C408 C407 1.415 . S
C409 H385 0.951 . S
C409 C410 1.366 . S
C409 C411 1.388 . S
C410 C409 1.366 . S
C410 C414 1.385 . S
C411 H386 0.951 . S
C411 C409 1.388 . S
C411 C412 1.366 . S
C412 C411 1.366 . S
C412 C413 1.414 . S
C412 C415 1.499 . S
C413 H387 0.950 . S
C413 C412 1.414 . S
C413 C414 1.374 . S
C414 H388 0.950 . S
C414 C410 1.385 . S
C414 C413 1.374 . S
C415 C412 1.499 . S
C415 C416 1.373 . S
C415 C417 1.389 . S
C416 H389 0.950 . S
C416 C402 1.377 . S
C416 C415 1.373 . S
C417 C401 1.377 . S
C417 C415 1.389 . S
C417 C418 1.524 . S
C418 C417 1.524 . S
C418 C419 1.397 . S
C418 C423 1.363 . S
C419 H390 0.950 . S
C419 C418 1.397 . S
C419 C420 1.334 . S
C420 H391 0.950 . S
C420 C419 1.334 . S
C420 C421 1.287 . S
C421 C420 1.287 . S
C421 C422 1.524 . S
C421 H424 0.999 . S
C422 H392 0.950 . S
C422 C421 1.524 . S
C422 C423 1.415 . S
C423 H393 0.950 . S
C423 C418 1.363 . S
C423 C422 1.415 . S
H424 C421 0.999 . S
H425 C406 0.913 . S
H426 C444 0.951 . S
H427 C446 0.951 . S
H428 C448 0.950 . S
H429 C449 0.950 . S
H430 C451 0.950 . S
H431 C454 0.950 . S
H432 C455 0.950 . S
H433 C457 0.950 . S
H434 C458 0.950 . S
H435 C459 0.951 . S
H436 C461 0.951 . S
H437 C463 0.950 . S
H438 C464 0.950 . S
H439 C466 0.950 . S
H440 C469 0.950 . S
H441 C470 0.950 . S
H442 C472 0.950 . S
H443 C473 0.950 . S
C444 H426 0.951 . S
C444 C445 1.366 . S
C444 C446 1.388 . S
C445 C444 1.366 . S
C445 C449 1.385 . S
C446 H427 0.951 . S
C446 C444 1.388 . S
C446 C447 1.366 . S
C447 C446 1.366 . S
C447 C448 1.414 . S
C447 C450 1.499 . S
C448 H428 0.950 . S
C448 C447 1.414 . S
C448 C449 1.374 . S
C449 H429 0.950 . S
C449 C445 1.385 . S
C449 C448 1.374 . S
C450 C447 1.499 . S
C450 C451 1.373 . S
C450 C452 1.389 . S
C451 H430 0.950 . S
C451 C450 1.373 . S
C451 C467 1.377 . S
C452 C450 1.389 . S
C452 C453 1.524 . S
C452 C466 1.377 . S
C453 C452 1.524 . S
C453 C454 1.397 . S
C453 C458 1.363 . S
C454 H431 0.950 . S
C454 C453 1.397 . S
C454 C455 1.334 . S
C455 H432 0.950 . S
C455 C454 1.334 . S
C455 C456 1.287 . S
C456 C455 1.287 . S
C456 C457 1.524 . S
C456 H475 0.913 . S
C457 H433 0.950 . S
C457 C456 1.524 . S
C457 C458 1.415 . S
C458 H434 0.950 . S
C458 C453 1.363 . S
C458 C457 1.415 . S
C459 H435 0.951 . S
C459 C460 1.366 . S
C459 C461 1.388 . S
C460 C459 1.366 . S
C460 C464 1.385 . S
C461 H436 0.951 . S
C461 C459 1.388 . S
C461 C462 1.366 . S
C462 C461 1.366 . S
C462 C463 1.414 . S
C462 C465 1.499 . S
C463 H437 0.950 . S
C463 C462 1.414 . S
C463 C464 1.374 . S
C464 H438 0.950 . S
C464 C460 1.385 . S
C464 C463 1.374 . S
C465 C462 1.499 . S
C465 C466 1.373 . S
C465 C467 1.389 . S
C466 H439 0.950 . S
C466 C452 1.377 . S
C466 C465 1.373 . S
C467 C451 1.377 . S
C467 C465 1.389 . S
C467 C468 1.524 . S
C468 C467 1.524 . S
C468 C469 1.397 . S
C468 C473 1.363 . S
C469 H440 0.950 . S
C469 C468 1.397 . S
C469 C470 1.334 . S
C470 H441 0.950 . S
C470 C469 1.334 . S
C470 C471 1.287 . S
C471 C470 1.287 . S
C471 C472 1.524 . S
C471 H474 0.999 . S
C472 H442 0.950 . S
C472 C471 1.524 . S
C472 C473 1.415 . S
C473 H443 0.950 . S
C473 C468 1.363 . S
C473 C472 1.415 . S
H474 C471 0.999 . S
H475 C456 0.913 . S
H476 C494 0.951 . S
H477 C496 0.951 . S
H478 C498 0.950 . S
H479 C499 0.950 . S
H480 C501 0.950 . S
H481 C504 0.950 . S
H482 C505 0.950 . S
H483 C507 0.950 . S
H484 C508 0.950 . S
H485 C509 0.951 . S
H486 C511 0.951 . S
H487 C513 0.950 . S
H488 C514 0.950 . S
H489 C516 0.950 . S
H490 C519 0.950 . S
H491 C520 0.950 . S
H492 C522 0.950 . S
H493 C523 0.950 . S
C494 H476 0.951 . S
C494 C495 1.366 . S
C494 C496 1.388 . S
C495 C494 1.366 . S
C495 C499 1.385 . S
C496 H477 0.951 . S
C496 C494 1.388 . S
C496 C497 1.366 . S
C497 C496 1.366 . S
C497 C498 1.414 . S
C497 C500 1.499 . S
C498 H478 0.950 . S
C498 C497 1.414 . S
C498 C499 1.374 . S
C499 H479 0.950 . S
C499 C495 1.385 . S
C499 C498 1.374 . S
C500 C497 1.499 . S
C500 C501 1.373 . S
C500 C502 1.389 . S
C501 H480 0.950 . S
C501 C500 1.373 . S
C501 C517 1.377 . S
C502 C500 1.389 . S
C502 C503 1.524 . S
C502 C516 1.377 . S
C503 C502 1.524 . S
C503 C504 1.397 . S
C503 C508 1.363 . S
C504 H481 0.950 . S
C504 C503 1.397 . S
C504 C505 1.334 . S
C505 H482 0.950 . S
C505 C504 1.334 . S
C505 C506 1.287 . S
C506 C505 1.287 . S
C506 C507 1.524 . S
C506 H525 0.913 . S
C507 H483 0.950 . S
C507 C506 1.524 . S
C507 C508 1.415 . S
C508 H484 0.950 . S
C508 C503 1.363 . S
C508 C507 1.415 . S
C509 H485 0.951 . S
C509 C510 1.366 . S
C509 C511 1.388 . S
C510 C509 1.366 . S
C510 C514 1.385 . S
C511 H486 0.951 . S
C511 C509 1.388 . S
C511 C512 1.366 . S
C512 C511 1.366 . S
C512 C513 1.414 . S
C512 C515 1.499 . S
C513 H487 0.950 . S
C513 C512 1.414 . S
C513 C514 1.374 . S
C514 H488 0.950 . S
C514 C510 1.385 . S
C514 C513 1.374 . S
C515 C512 1.499 . S
C515 C516 1.373 . S
C515 C517 1.389 . S
C516 H489 0.950 . S
C516 C502 1.377 . S
C516 C515 1.373 . S
C517 C501 1.377 . S
C517 C515 1.389 . S
C517 C518 1.524 . S
C518 C517 1.524 . S
C518 C519 1.397 . S
C518 C523 1.363 . S
C519 H490 0.950 . S
C519 C518 1.397 . S
C519 C520 1.334 . S
C520 H491 0.950 . S
C520 C519 1.334 . S
C520 C521 1.287 . S
C521 C520 1.287 . S
C521 C522 1.524 . S
C521 H524 0.999 . S
C522 H492 0.950 . S
C522 C521 1.524 . S
C522 C523 1.415 . S
C523 H493 0.950 . S
C523 C518 1.363 . S
C523 C522 1.415 . S
H524 C521 0.999 . S
H525 C506 0.913 . S
H526 C544 0.951 . S
H527 C546 0.951 . S
H528 C548 0.950 . S
H529 C549 0.950 . S
H530 C551 0.950 . S
H531 C554 0.950 . S
H532 C555 0.950 . S
H533 C557 0.950 . S
H534 C558 0.950 . S
H535 C559 0.951 . S
H536 C561 0.951 . S
H537 C563 0.950 . S
H538 C564 0.950 . S
H539 C566 0.950 . S
H540 C569 0.950 . S
H541 C570 0.950 . S
H542 C572 0.950 . S
H543 C573 0.950 . S
C544 H526 0.951 . S
C544 C545 1.366 . S
C544 C546 1.388 . S
C545 C544 1.366 . S
C545 C549 1.385 . S
C546 H527 0.951 . S
C546 C544 1.388 . S
C546 C547 1.366 . S
C547 C546 1.366 . S
C547 C548 1.414 . S
C547 C550 1.499 . S
C548 H528 0.950 . S
C548 C547 1.414 . S
C548 C549 1.374 . S
C549 H529 0.950 . S
C549 C545 1.385 . S
C549 C548 1.374 . S
C550 C547 1.499 . S
C550 C551 1.373 . S
C550 C552 1.389 . S
C551 H530 0.950 . S
C551 C550 1.373 . S
C551 C567 1.377 . S
C552 C550 1.389 . S
C552 C553 1.524 . S
C552 C566 1.377 . S
C553 C552 1.524 . S
C553 C554 1.397 . S
C553 C558 1.363 . S
C554 H531 0.950 . S
C554 C553 1.397 . S
C554 C555 1.334 . S
C555 H532 0.950 . S
C555 C554 1.334 . S
C555 C556 1.287 . S
C556 C555 1.287 . S
C556 C557 1.524 . S
C556 H575 0.913 . S
C557 H533 0.950 . S
C557 C556 1.524 . S
C557 C558 1.415 . S
C558 H534 0.950 . S
C558 C553 1.363 . S
C558 C557 1.415 . S
C559 H535 0.951 . S
C559 C560 1.366 . S
C559 C561 1.388 . S
C560 C559 1.366 . S
C560 C564 1.385 . S
C561 H536 0.951 . S
C561 C559 1.388 . S
C561 C562 1.366 . S
C562 C561 1.366 . S
C562 C563 1.414 . S
C562 C565 1.499 . S
C563 H537 0.950 . S
C563 C562 1.414 . S
C563 C564 1.374 . S
C564 H538 0.950 . S
C564 C560 1.385 . S
C564 C563 1.374 . S
C565 C562 1.499 . S
C565 C566 1.373 . S
C565 C567 1.389 . S
C566 H539 0.950 . S
C566 C552 1.377 . S
C566 C565 1.373 . S
C567 C551 1.377 . S
C567 C565 1.389 . S
C567 C568 1.524 . S
C568 C567 1.524 . S
C568 C569 1.397 . S
C568 C573 1.363 . S
C569 H540 0.950 . S
C569 C568 1.397 . S
C569 C570 1.334 . S
C570 H541 0.950 . S
C570 C569 1.334 . S
C570 C571 1.287 . S
C571 C570 1.287 . S
C571 C572 1.524 . S
C571 H574 0.999 . S
C572 H542 0.950 . S
C572 C571 1.524 . S
C572 C573 1.415 . S
C573 H543 0.950 . S
C573 C568 1.363 . S
C573 C572 1.415 . S
H574 C571 0.999 . S
H575 C556 0.913 . S
H576 C594 0.951 . S
H577 C596 0.951 . S
H578 C598 0.950 . S
H579 C599 0.950 . S
H580 C601 0.950 . S
H581 C604 0.950 . S
H582 C605 0.950 . S
H583 C607 0.950 . S
H584 C608 0.950 . S
H585 C609 0.951 . S
H586 C611 0.951 . S
H587 C613 0.950 . S
H588 C614 0.950 . S
H589 C616 0.950 . S
H590 C619 0.950 . S
H591 C620 0.950 . S
H592 C622 0.950 . S
H593 C623 0.950 . S
C594 H576 0.951 . S
C594 C595 1.366 . S
C594 C596 1.388 . S
C595 C594 1.366 . S
C595 C599 1.385 . S
C596 H577 0.951 . S
C596 C594 1.388 . S
C596 C597 1.366 . S
C597 C596 1.366 . S
C597 C598 1.414 . S
C597 C600 1.499 . S
C598 H578 0.950 . S
C598 C597 1.414 . S
C598 C599 1.374 . S
C599 H579 0.950 . S
C599 C595 1.385 . S
C599 C598 1.374 . S
C600 C597 1.499 . S
C600 C601 1.373 . S
C600 C602 1.389 . S
C601 H580 0.950 . S
C601 C600 1.373 . S
C601 C617 1.377 . S
C602 C600 1.389 . S
C602 C603 1.524 . S
C602 C616 1.377 . S
C603 C602 1.524 . S
C603 C604 1.397 . S
C603 C608 1.363 . S
C604 H581 0.950 . S
C604 C603 1.397 . S
C604 C605 1.334 . S
C605 H582 0.950 . S
C605 C604 1.334 . S
C605 C606 1.287 . S
C606 C605 1.287 . S
C606 C607 1.524 . S
C606 H625 0.913 . S
C607 H583 0.950 . S
C607 C606 1.524 . S
C607 C608 1.415 . S
C608 H584 0.950 . S
C608 C603 1.363 . S
C608 C607 1.415 . S
C609 H585 0.951 . S
C609 C610 1.366 . S
C609 C611 1.388 . S
C610 C609 1.366 . S
C610 C614 1.385 . S
C611 H586 0.951 . S
C611 C609 1.388 . S
C611 C612 1.366 . S
C612 C611 1.366 . S
C612 C613 1.414 . S
C612 C615 1.499 . S
C613 H587 0.950 . S
C613 C612 1.414 . S
C613 C614 1.374 . S
C614 H588 0.950 . S
C614 C610 1.385 . S
C614 C613 1.374 . S
C615 C612 1.499 . S
C615 C616 1.373 . S
C615 C617 1.389 . S
C616 H589 0.950 . S
C616 C602 1.377 . S
C616 C615 1.373 . S
C617 C601 1.377 . S
C617 C615 1.389 . S
C617 C618 1.524 . S
C618 C617 1.524 . S
C618 C619 1.397 . S
C618 C623 1.363 . S
C619 H590 0.950 . S
C619 C618 1.397 . S
C619 C620 1.334 . S
C620 H591 0.950 . S
C620 C619 1.334 . S
C620 C621 1.287 . S
C621 C620 1.287 . S
C621 C622 1.524 . S
C621 H624 0.999 . S
C622 H592 0.950 . S
C622 C621 1.524 . S
C622 C623 1.415 . S
C623 H593 0.950 . S
C623 C618 1.363 . S
C623 C622 1.415 . S
H624 C621 0.999 . S
H625 C606 0.913 . S
H626 C644 0.951 . S
H627 C646 0.951 . S
H628 C648 0.950 . S
H629 C649 0.950 . S
H630 C651 0.950 . S
H631 C654 0.950 . S
H632 C655 0.950 . S
H633 C657 0.950 . S
H634 C658 0.950 . S
H635 C659 0.951 . S
H636 C661 0.951 . S
H637 C663 0.950 . S
H638 C664 0.950 . S
H639 C666 0.950 . S
H640 C669 0.950 . S
H641 C670 0.950 . S
H642 C672 0.950 . S
H643 C673 0.950 . S
C644 H626 0.951 . S
C644 C645 1.366 . S
C644 C646 1.388 . S
C645 C644 1.366 . S
C645 C649 1.385 . S
C646 H627 0.951 . S
C646 C644 1.388 . S
C646 C647 1.366 . S
C647 C646 1.366 . S
C647 C648 1.414 . S
C647 C650 1.499 . S
C648 H628 0.950 . S
C648 C647 1.414 . S
C648 C649 1.374 . S
C649 H629 0.950 . S
C649 C645 1.385 . S
C649 C648 1.374 . S
C650 C647 1.499 . S
C650 C651 1.373 . S
C650 C652 1.389 . S
C651 H630 0.950 . S
C651 C650 1.373 . S
C651 C667 1.377 . S
C652 C650 1.389 . S
C652 C653 1.524 . S
C652 C666 1.377 . S
C653 C652 1.524 . S
C653 C654 1.397 . S
C653 C658 1.363 . S
C654 H631 0.950 . S
C654 C653 1.397 . S
C654 C655 1.334 . S
C655 H632 0.950 . S
C655 C654 1.334 . S
C655 C656 1.287 . S
C656 C655 1.287 . S
C656 C657 1.524 . S
C656 H675 0.913 . S
C657 H633 0.950 . S
C657 C656 1.524 . S
C657 C658 1.415 . S
C658 H634 0.950 . S
C658 C653 1.363 . S
C658 C657 1.415 . S
C659 H635 0.951 . S
C659 C660 1.366 . S
C659 C661 1.388 . S
C660 C659 1.366 . S
C660 C664 1.385 . S
C661 H636 0.951 . S
C661 C659 1.388 . S
C661 C662 1.366 . S
C662 C661 1.366 . S
C662 C663 1.414 . S
C662 C665 1.499 . S
C663 H637 0.950 . S
C663 C662 1.414 . S
C663 C664 1.374 . S
C664 H638 0.950 . S
C664 C660 1.385 . S
C664 C663 1.374 . S
C665 C662 1.499 . S
C665 C666 1.373 . S
C665 C667 1.389 . S
C666 H639 0.950 . S
C666 C652 1.377 . S
C666 C665 1.373 . S
C667 C651 1.377 . S
C667 C665 1.389 . S
C667 C668 1.524 . S
C668 C667 1.524 . S
C668 C669 1.397 . S
C668 C673 1.363 . S
C669 H640 0.950 . S
C669 C668 1.397 . S
C669 C670 1.334 . S
C670 H641 0.950 . S
C670 C669 1.334 . S
C670 C671 1.287 . S
C671 C670 1.287 . S
C671 C672 1.524 . S
C671 H674 0.999 . S
C672 H642 0.950 . S
C672 C671 1.524 . S
C672 C673 1.415 . S
C673 H643 0.950 . S
C673 C668 1.363 . S
C673 C672 1.415 . S
H674 C671 0.999 . S
H675 C656 0.913 . S
H676 C694 0.951 . S
H677 C696 0.951 . S
H678 C698 0.950 . S
H679 C699 0.950 . S
H680 C701 0.950 . S
H681 C704 0.950 . S
H682 C705 0.950 . S
H683 C707 0.950 . S
H684 C708 0.950 . S
H685 C709 0.951 . S
H686 C711 0.951 . S
H687 C713 0.950 . S
H688 C714 0.950 . S
H689 C716 0.950 . S
H690 C719 0.950 . S
H691 C720 0.950 . S
H692 C722 0.950 . S
H693 C723 0.950 . S
C694 H676 0.951 . S
C694 C695 1.366 . S
C694 C696 1.388 . S
C695 C694 1.366 . S
C695 C699 1.385 . S
C696 H677 0.951 . S
C696 C694 1.388 . S
C696 C697 1.366 . S
C697 C696 1.366 . S
C697 C698 1.414 . S
C697 C700 1.499 . S
C698 H678 0.950 . S
C698 C697 1.414 . S
C698 C699 1.374 . S
C699 H679 0.950 . S
C699 C695 1.385 . S
C699 C698 1.374 . S
C700 C697 1.499 . S
C700 C701 1.373 . S
C700 C702 1.389 . S
C701 H680 0.950 . S
C701 C700 1.373 . S
C701 C717 1.377 . S
C702 C700 1.389 . S
C702 C703 1.524 . S
C702 C716 1.377 . S
C703 C702 1.524 . S
C703 C704 1.397 . S
C703 C708 1.363 . S
C704 H681 0.950 . S
C704 C703 1.397 . S
C704 C705 1.334 . S
C705 H682 0.950 . S
C705 C704 1.334 . S
C705 C706 1.287 . S
C706 C705 1.287 . S
C706 C707 1.524 . S
C706 H725 0.913 . S
C707 H683 0.950 . S
C707 C706 1.524 . S
C707 C708 1.415 . S
C708 H684 0.950 . S
C708 C703 1.363 . S
C708 C707 1.415 . S
C709 H685 0.951 . S
C709 C710 1.366 . S
C709 C711 1.388 . S
C710 C709 1.366 . S
C710 C714 1.385 . S
C711 H686 0.951 . S
C711 C709 1.388 . S
C711 C712 1.366 . S
C712 C711 1.366 . S
C712 C713 1.414 . S
C712 C715 1.499 . S
C713 H687 0.950 . S
C713 C712 1.414 . S
C713 C714 1.374 . S
C714 H688 0.950 . S
C714 C710 1.385 . S
C714 C713 1.374 . S
C715 C712 1.499 . S
C715 C716 1.373 . S
C715 C717 1.389 . S
C716 H689 0.950 . S
C716 C702 1.377 . S
C716 C715 1.373 . S
C717 C701 1.377 . S
C717 C715 1.389 . S
C717 C718 1.524 . S
C718 C717 1.524 . S
C718 C719 1.397 . S
C718 C723 1.363 . S
C719 H690 0.950 . S
C719 C718 1.397 . S
C719 C720 1.334 . S
C720 H691 0.950 . S
C720 C719 1.334 . S
C720 C721 1.287 . S
C721 C720 1.287 . S
C721 C722 1.524 . S
C721 H724 0.999 . S
C722 H692 0.950 . S
C722 C721 1.524 . S
C722 C723 1.415 . S
C723 H693 0.950 . S
C723 C718 1.363 . S
C723 C722 1.415 . S
H724 C721 0.999 . S
H725 C706 0.913 . S
H726 C744 0.951 . S
H727 C746 0.951 . S
H728 C748 0.950 . S
H729 C749 0.950 . S
H730 C751 0.950 . S
H731 C754 0.950 . S
H732 C755 0.950 . S
H733 C757 0.950 . S
H734 C758 0.950 . S
H735 C759 0.951 . S
H736 C761 0.951 . S
H737 C763 0.950 . S
H738 C764 0.950 . S
H739 C766 0.950 . S
H740 C769 0.950 . S
H741 C770 0.950 . S
H742 C772 0.950 . S
H743 C773 0.950 . S
C744 H726 0.951 . S
C744 C745 1.366 . S
C744 C746 1.388 . S
C745 C744 1.366 . S
C745 C749 1.385 . S
C746 H727 0.951 . S
C746 C744 1.388 . S
C746 C747 1.366 . S
C747 C746 1.366 . S
C747 C748 1.414 . S
C747 C750 1.499 . S
C748 H728 0.950 . S
C748 C747 1.414 . S
C748 C749 1.374 . S
C749 H729 0.950 . S
C749 C745 1.385 . S
C749 C748 1.374 . S
C750 C747 1.499 . S
C750 C751 1.373 . S
C750 C752 1.389 . S
C751 H730 0.950 . S
C751 C750 1.373 . S
C751 C767 1.377 . S
C752 C750 1.389 . S
C752 C753 1.524 . S
C752 C766 1.377 . S
C753 C752 1.524 . S
C753 C754 1.397 . S
C753 C758 1.363 . S
C754 H731 0.950 . S
C754 C753 1.397 . S
C754 C755 1.334 . S
C755 H732 0.950 . S
C755 C754 1.334 . S
C755 C756 1.287 . S
C756 C755 1.287 . S
C756 C757 1.524 . S
C756 H775 0.913 . S
C757 H733 0.950 . S
C757 C756 1.524 . S
C757 C758 1.415 . S
C758 H734 0.950 . S
C758 C753 1.363 . S
C758 C757 1.415 . S
C759 H735 0.951 . S
C759 C760 1.366 . S
C759 C761 1.388 . S
C760 C759 1.366 . S
C760 C764 1.385 . S
C761 H736 0.951 . S
C761 C759 1.388 . S
C761 C762 1.366 . S
C762 C761 1.366 . S
C762 C763 1.414 . S
C762 C765 1.499 . S
C763 H737 0.950 . S
C763 C762 1.414 . S
C763 C764 1.374 . S
C764 H738 0.950 . S
C764 C760 1.385 . S
C764 C763 1.374 . S
C765 C762 1.499 . S
C765 C766 1.373 . S
C765 C767 1.389 . S
C766 H739 0.950 . S
C766 C752 1.377 . S
C766 C765 1.373 . S
C767 C751 1.377 . S
C767 C765 1.389 . S
C767 C768 1.524 . S
C768 C767 1.524 . S
C768 C769 1.397 . S
C768 C773 1.363 . S
C769 H740 0.950 . S
C769 C768 1.397 . S
C769 C770 1.334 . S
C770 H741 0.950 . S
C770 C769 1.334 . S
C770 C771 1.287 . S
C771 C770 1.287 . S
C771 C772 1.524 . S
C771 H774 0.999 . S
C772 H742 0.950 . S
C772 C771 1.524 . S
C772 C773 1.415 . S
C773 H743 0.950 . S
C773 C768 1.363 . S
C773 C772 1.415 . S
H774 C771 0.999 . S
H775 C756 0.913 . S
H776 C794 0.951 . S
H777 C796 0.951 . S
H778 C798 0.950 . S
H779 C799 0.950 . S
H780 C801 0.950 . S
H781 C804 0.950 . S
H782 C805 0.950 . S
H783 C807 0.950 . S
H784 C808 0.950 . S
H785 C809 0.951 . S
H786 C811 0.951 . S
H787 C813 0.950 . S
H788 C814 0.950 . S
H789 C816 0.950 . S
H790 C819 0.950 . S
H791 C820 0.950 . S
H792 C822 0.950 . S
H793 C823 0.950 . S
C794 H776 0.951 . S
C794 C795 1.366 . S
C794 C796 1.388 . S
C795 C794 1.366 . S
C795 C799 1.385 . S
C796 H777 0.951 . S
C796 C794 1.388 . S
C796 C797 1.366 . S
C797 C796 1.366 . S
C797 C798 1.414 . S
C797 C800 1.499 . S
C798 H778 0.950 . S
C798 C797 1.414 . S
C798 C799 1.374 . S
C799 H779 0.950 . S
C799 C795 1.385 . S
C799 C798 1.374 . S
C800 C797 1.499 . S
C800 C801 1.373 . S
C800 C802 1.389 . S
C801 H780 0.950 . S
C801 C800 1.373 . S
C801 C817 1.377 . S
C802 C800 1.389 . S
C802 C803 1.524 . S
C802 C816 1.377 . S
C803 C802 1.524 . S
C803 C804 1.397 . S
C803 C808 1.363 . S
C804 H781 0.950 . S
C804 C803 1.397 . S
C804 C805 1.334 . S
C805 H782 0.950 . S
C805 C804 1.334 . S
C805 C806 1.287 . S
C806 C805 1.287 . S
C806 C807 1.524 . S
C806 H825 0.913 . S
C807 H783 0.950 . S
C807 C806 1.524 . S
C807 C808 1.415 . S
C808 H784 0.950 . S
C808 C803 1.363 . S
C808 C807 1.415 . S
C809 H785 0.951 . S
C809 C810 1.366 . S
C809 C811 1.388 . S
C810 C809 1.366 . S
C810 C814 1.385 . S
C811 H786 0.951 . S
C811 C809 1.388 . S
C811 C812 1.366 . S
C812 C811 1.366 . S
C812 C813 1.414 . S
C812 C815 1.499 . S
C813 H787 0.950 . S
C813 C812 1.414 . S
C813 C814 1.374 . S
C814 H788 0.950 . S
C814 C810 1.385 . S
C814 C813 1.374 . S
C815 C812 1.499 . S
C815 C816 1.373 . S
C815 C817 1.389 . S
C816 H789 0.950 . S
C816 C802 1.377 . S
C816 C815 1.373 . S
C817 C801 1.377 . S
C817 C815 1.389 . S
C817 C818 1.524 . S
C818 C817 1.524 . S
C818 C819 1.397 . S
C818 C823 1.363 . S
C819 H790 0.950 . S
C819 C818 1.397 . S
C819 C820 1.334 . S
C820 H791 0.950 . S
C820 C819 1.334 . S
C820 C821 1.287 . S
C821 C820 1.287 . S
C821 C822 1.524 . S
C821 H824 0.999 . S
C822 H792 0.950 . S
C822 C821 1.524 . S
C822 C823 1.415 . S
C823 H793 0.950 . S
C823 C818 1.363 . S
C823 C822 1.415 . S
H824 C821 0.999 . S
H825 C806 0.913 . S
H826 C844 0.951 . S
H827 C846 0.951 . S
H828 C848 0.950 . S
H829 C849 0.950 . S
H830 C851 0.950 . S
H831 C854 0.950 . S
H832 C855 0.950 . S
H833 C857 0.950 . S
H834 C858 0.950 . S
H835 C859 0.951 . S
H836 C861 0.951 . S
H837 C863 0.950 . S
H838 C864 0.950 . S
H839 C866 0.950 . S
H840 C869 0.950 . S
H841 C870 0.950 . S
H842 C872 0.950 . S
H843 C873 0.950 . S
C844 H826 0.951 . S
C844 C845 1.366 . S
C844 C846 1.388 . S
C845 C844 1.366 . S
C845 C849 1.385 . S
C846 H827 0.951 . S
C846 C844 1.388 . S
C846 C847 1.366 . S
C847 C846 1.366 . S
C847 C848 1.414 . S
C847 C850 1.499 . S
C848 H828 0.950 . S
C848 C847 1.414 . S
C848 C849 1.374 . S
C849 H829 0.950 . S
C849 C845 1.385 . S
C849 C848 1.374 . S
C850 C847 1.499 . S
C850 C851 1.373 . S
C850 C852 1.389 . S
C851 H830 0.950 . S
C851 C850 1.373 . S
C851 C867 1.377 . S
C852 C850 1.389 . S
C852 C853 1.524 . S
C852 C866 1.377 . S
C853 C852 1.524 . S
C853 C854 1.397 . S
C853 C858 1.363 . S
C854 H831 0.950 . S
C854 C853 1.397 . S
C854 C855 1.334 . S
C855 H832 0.950 . S
C855 C854 1.334 . S
C855 C856 1.287 . S
C856 C855 1.287 . S
C856 C857 1.524 . S
C856 H875 0.913 . S
C857 H833 0.950 . S
C857 C856 1.524 . S
C857 C858 1.415 . S
C858 H834 0.950 . S
C858 C853 1.363 . S
C858 C857 1.415 . S
C859 H835 0.951 . S
C859 C860 1.366 . S
C859 C861 1.388 . S
C860 C859 1.366 . S
C860 C864 1.385 . S
C861 H836 0.951 . S
C861 C859 1.388 . S
C861 C862 1.366 . S
C862 C861 1.366 . S
C862 C863 1.414 . S
C862 C865 1.499 . S
C863 H837 0.950 . S
C863 C862 1.414 . S
C863 C864 1.374 . S
C864 H838 0.950 . S
C864 C860 1.385 . S
C864 C863 1.374 . S
C865 C862 1.499 . S
C865 C866 1.373 . S
C865 C867 1.389 . S
C866 H839 0.950 . S
C866 C852 1.377 . S
C866 C865 1.373 . S
C867 C851 1.377 . S
C867 C865 1.389 . S
C867 C868 1.524 . S
C868 C867 1.524 . S
C868 C869 1.397 . S
C868 C873 1.363 . S
C869 H840 0.950 . S
C869 C868 1.397 . S
C869 C870 1.334 . S
C870 H841 0.950 . S
C870 C869 1.334 . S
C870 C871 1.287 . S
C871 C870 1.287 . S
C871 C872 1.524 . S
C871 H874 0.999 . S
C872 H842 0.950 . S
C872 C871 1.524 . S
C872 C873 1.415 . S
C873 H843 0.950 . S
C873 C868 1.363 . S
C873 C872 1.415 . S
H874 C871 0.999 . S
H875 C856 0.913 . S
H876 C894 0.951 . S
H877 C896 0.951 . S
H878 C898 0.950 . S
H879 C899 0.950 . S
H880 C901 0.950 . S
H881 C904 0.950 . S
H882 C905 0.950 . S
H883 C907 0.950 . S
H884 C908 0.950 . S
H885 C909 0.951 . S
H886 C911 0.951 . S
H887 C913 0.950 . S
H888 C914 0.950 . S
H889 C916 0.950 . S
H890 C919 0.950 . S
H891 C920 0.950 . S
H892 C922 0.950 . S
H893 C923 0.950 . S
C894 H876 0.951 . S
C894 C895 1.366 . S
C894 C896 1.388 . S
C895 C894 1.366 . S
C895 C899 1.385 . S
C896 H877 0.951 . S
C896 C894 1.388 . S
C896 C897 1.366 . S
C897 C896 1.366 . S
C897 C898 1.414 . S
C897 C900 1.499 . S
C898 H878 0.950 . S
C898 C897 1.414 . S
C898 C899 1.374 . S
C899 H879 0.950 . S
C899 C895 1.385 . S
C899 C898 1.374 . S
C900 C897 1.499 . S
C900 C901 1.373 . S
C900 C902 1.389 . S
C901 H880 0.950 . S
C901 C900 1.373 . S
C901 C917 1.377 . S
C902 C900 1.389 . S
C902 C903 1.524 . S
C902 C916 1.377 . S
C903 C902 1.524 . S
C903 C904 1.397 . S
C903 C908 1.363 . S
C904 H881 0.950 . S
C904 C903 1.397 . S
C904 C905 1.334 . S
C905 H882 0.950 . S
C905 C904 1.334 . S
C905 C906 1.287 . S
C906 C905 1.287 . S
C906 C907 1.524 . S
C906 H925 0.913 . S
C907 H883 0.950 . S
C907 C906 1.524 . S
C907 C908 1.415 . S
C908 H884 0.950 . S
C908 C903 1.363 . S
C908 C907 1.415 . S
C909 H885 0.951 . S
C909 C910 1.366 . S
C909 C911 1.388 . S
C910 C909 1.366 . S
C910 C914 1.385 . S
C911 H886 0.951 . S
C911 C909 1.388 . S
C911 C912 1.366 . S
C912 C911 1.366 . S
C912 C913 1.414 . S
C912 C915 1.499 . S
C913 H887 0.950 . S
C913 C912 1.414 . S
C913 C914 1.374 . S
C914 H888 0.950 . S
C914 C910 1.385 . S
C914 C913 1.374 . S
C915 C912 1.499 . S
C915 C916 1.373 . S
C915 C917 1.389 . S
C916 H889 0.950 . S
C916 C902 1.377 . S
C916 C915 1.373 . S
C917 C901 1.377 . S
C917 C915 1.389 . S
C917 C918 1.524 . S
C918 C917 1.524 . S
C918 C919 1.397 . S
C918 C923 1.363 . S
C919 H890 0.950 . S
C919 C918 1.397 . S
C919 C920 1.334 . S
C920 H891 0.950 . S
C920 C919 1.334 . S
C920 C921 1.287 . S
C921 C920 1.287 . S
C921 C922 1.524 . S
C921 H924 0.999 . S
C922 H892 0.950 . S
C922 C921 1.524 . S
C922 C923 1.415 . S
C923 H893 0.950 . S
C923 C918 1.363 . S
C923 C922 1.415 . S
H924 C921 0.999 . S
H925 C906 0.913 . S
H926 C944 0.951 . S
H927 C946 0.951 . S
H928 C948 0.950 . S
H929 C949 0.950 . S
H930 C951 0.950 . S
H931 C954 0.950 . S
H932 C955 0.950 . S
H933 C957 0.950 . S
H934 C958 0.950 . S
H935 C959 0.951 . S
H936 C961 0.951 . S
H937 C963 0.950 . S
H938 C964 0.950 . S
H939 C966 0.950 . S
H940 C969 0.950 . S
H941 C970 0.950 . S
H942 C972 0.950 . S
H943 C973 0.950 . S
C944 H926 0.951 . S
C944 C945 1.366 . S
C944 C946 1.388 . S
C945 C944 1.366 . S
C945 C949 1.385 . S
C946 H927 0.951 . S
C946 C944 1.388 . S
C946 C947 1.366 . S
C947 C946 1.366 . S
C947 C948 1.414 . S
C947 C950 1.499 . S
C948 H928 0.950 . S
C948 C947 1.414 . S
C948 C949 1.374 . S
C949 H929 0.950 . S
C949 C945 1.385 . S
C949 C948 1.374 . S
C950 C947 1.499 . S
C950 C951 1.373 . S
C950 C952 1.389 . S
C951 H930 0.950 . S
C951 C950 1.373 . S
C951 C967 1.377 . S
C952 C950 1.389 . S
C952 C953 1.524 . S
C952 C966 1.377 . S
C953 C952 1.524 . S
C953 C954 1.397 . S
C953 C958 1.363 . S
C954 H931 0.950 . S
C954 C953 1.397 . S
C954 C955 1.334 . S
C955 H932 0.950 . S
C955 C954 1.334 . S
C955 C956 1.287 . S
C956 C955 1.287 . S
C956 C957 1.524 . S
C956 H975 0.913 . S
C957 H933 0.950 . S
C957 C956 1.524 . S
C957 C958 1.415 . S
C958 H934 0.950 . S
C958 C953 1.363 . S
C958 C957 1.415 . S
C959 H935 0.951 . S
C959 C960 1.366 . S
C959 C961 1.388 . S
C960 C959 1.366 . S
C960 C964 1.385 . S
C961 H936 0.951 . S
C961 C959 1.388 . S
C961 C962 1.366 . S
C962 C961 1.366 . S
C962 C963 1.414 . S
C962 C965 1.499 . S
C963 H937 0.950 . S
C963 C962 1.414 . S
C963 C964 1.374 . S
C964 H938 0.950 . S
C964 C960 1.385 . S
C964 C963 1.374 . S
C965 C962 1.499 . S
C965 C966 1.373 . S
C965 C967 1.389 . S
C966 H939 0.950 . S
C966 C952 1.377 . S
C966 C965 1.373 . S
C967 C951 1.377 . S
C967 C965 1.389 . S
C967 C968 1.524 . S
C968 C967 1.524 . S
C968 C969 1.397 . S
C968 C973 1.363 . S
C969 H940 0.950 . S
C969 C968 1.397 . S
C969 C970 1.334 . S
C970 H941 0.950 . S
C970 C969 1.334 . S
C970 C971 1.287 . S
C971 C970 1.287 . S
C971 C972 1.524 . S
C971 H974 0.999 . S
C972 H942 0.950 . S
C972 C971 1.524 . S
C972 C973 1.415 . S
C973 H943 0.950 . S
C973 C968 1.363 . S
C973 C972 1.415 . S
H974 C971 0.999 . S
H975 C956 0.913 . S
H976 C994 0.951 . S
H977 C996 0.951 . S
H978 C998 0.950 . S
H979 C999 0.950 . S
H980 C1001 0.950 . S
H981 C1004 0.950 . S
H982 C1005 0.950 . S
H983 C1007 0.950 . S
H984 C1008 0.950 . S
H985 C1009 0.951 . S
H986 C1011 0.951 . S
H987 C1013 0.950 . S
H988 C1014 0.950 . S
H989 C1016 0.950 . S
H990 C1019 0.950 . S
H991 C1020 0.950 . S
H992 C1022 0.950 . S
H993 C1023 0.950 . S
C994 H976 0.951 . S
C994 C995 1.366 . S
C994 C996 1.388 . S
C995 C994 1.366 . S
C995 C999 1.385 . S
C996 H977 0.951 . S
C996 C994 1.388 . S
C996 C997 1.366 . S
C997 C996 1.366 . S
C997 C998 1.414 . S
C997 C1000 1.499 . S
C998 H978 0.950 . S
C998 C997 1.414 . S
C998 C999 1.374 . S
C999 H979 0.950 . S
C999 C995 1.385 . S
C999 C998 1.374 . S
C1000 C997 1.499 . S
C1000 C1001 1.373 . S
C1000 C1002 1.389 . S
C1001 H980 0.950 . S
C1001 C1000 1.373 . S
C1001 C1017 1.377 . S
C1002 C1000 1.389 . S
C1002 C1003 1.524 . S
C1002 C1016 1.377 . S
C1003 C1002 1.524 . S
C1003 C1004 1.397 . S
C1003 C1008 1.363 . S
C1004 H981 0.950 . S
C1004 C1003 1.397 . S
C1004 C1005 1.334 . S
C1005 H982 0.950 . S
C1005 C1004 1.334 . S
C1005 C1006 1.287 . S
C1006 C1005 1.287 . S
C1006 C1007 1.524 . S
C1006 H1025 0.913 . S
C1007 H983 0.950 . S
C1007 C1006 1.524 . S
C1007 C1008 1.415 . S
C1008 H984 0.950 . S
C1008 C1003 1.363 . S
C1008 C1007 1.415 . S
C1009 H985 0.951 . S
C1009 C1010 1.366 . S
C1009 C1011 1.388 . S
C1010 C1009 1.366 . S
C1010 C1014 1.385 . S
C1011 H986 0.951 . S
C1011 C1009 1.388 . S
C1011 C1012 1.366 . S
C1012 C1011 1.366 . S
C1012 C1013 1.414 . S
C1012 C1015 1.499 . S
C1013 H987 0.950 . S
C1013 C1012 1.414 . S
C1013 C1014 1.374 . S
C1014 H988 0.950 . S
C1014 C1010 1.385 . S
C1014 C1013 1.374 . S
C1015 C1012 1.499 . S
C1015 C1016 1.373 . S
C1015 C1017 1.389 . S
C1016 H989 0.950 . S
C1016 C1002 1.377 . S
C1016 C1015 1.373 . S
C1017 C1001 1.377 . S
C1017 C1015 1.389 . S
C1017 C1018 1.524 . S
C1018 C1017 1.524 . S
C1018 C1019 1.397 . S
C1018 C1023 1.363 . S
C1019 H990 0.950 . S
C1019 C1018 1.397 . S
C1019 C1020 1.334 . S
C1020 H991 0.950 . S
C1020 C1019 1.334 . S
C1020 C1021 1.287 . S
C1021 C1020 1.287 . S
C1021 C1022 1.524 . S
C1021 H1024 0.999 . S
C1022 H992 0.950 . S
C1022 C1021 1.524 . S
C1022 C1023 1.415 . S
C1023 H993 0.950 . S
C1023 C1018 1.363 . S
C1023 C1022 1.415 . S
H1024 C1021 0.999 . S
H1025 C1006 0.913 . S
H1026 C1044 0.951 . S
H1027 C1046 0.951 . S
H1028 C1048 0.950 . S
H1029 C1049 0.950 . S
H1030 C1051 0.950 . S
H1031 C1054 0.950 . S
H1032 C1055 0.950 . S
H1033 C1057 0.950 . S
H1034 C1058 0.950 . S
H1035 C1059 0.951 . S
H1036 C1061 0.951 . S
H1037 C1063 0.950 . S
H1038 C1064 0.950 . S
H1039 C1066 0.950 . S
H1040 C1069 0.950 . S
H1041 C1070 0.950 . S
H1042 C1072 0.950 . S
H1043 C1073 0.950 . S
C1044 H1026 0.951 . S
C1044 C1045 1.366 . S
C1044 C1046 1.388 . S
C1045 C1044 1.366 . S
C1045 C1049 1.385 . S
C1046 H1027 0.951 . S
C1046 C1044 1.388 . S
C1046 C1047 1.366 . S
C1047 C1046 1.366 . S
C1047 C1048 1.414 . S
C1047 C1050 1.499 . S
C1048 H1028 0.950 . S
C1048 C1047 1.414 . S
C1048 C1049 1.374 . S
C1049 H1029 0.950 . S
C1049 C1045 1.385 . S
C1049 C1048 1.374 . S
C1050 C1047 1.499 . S
C1050 C1051 1.373 . S
C1050 C1052 1.389 . S
C1051 H1030 0.950 . S
C1051 C1050 1.373 . S
C1051 C1067 1.377 . S
C1052 C1050 1.389 . S
C1052 C1053 1.524 . S
C1052 C1066 1.377 . S
C1053 C1052 1.524 . S
C1053 C1054 1.397 . S
C1053 C1058 1.363 . S
C1054 H1031 0.950 . S
C1054 C1053 1.397 . S
C1054 C1055 1.334 . S
C1055 H1032 0.950 . S
C1055 C1054 1.334 . S
C1055 C1056 1.287 . S
C1056 C1055 1.287 . S
C1056 C1057 1.524 . S
C1056 H1075 0.913 . S
C1057 H1033 0.950 . S
C1057 C1056 1.524 . S
C1057 C1058 1.415 . S
C1058 H1034 0.950 . S
C1058 C1053 1.363 . S
C1058 C1057 1.415 . S
C1059 H1035 0.951 . S
C1059 C1060 1.366 . S
C1059 C1061 1.388 . S
C1060 C1059 1.366 . S
C1060 C1064 1.385 . S
C1061 H1036 0.951 . S
C1061 C1059 1.388 . S
C1061 C1062 1.366 . S
C1062 C1061 1.366 . S
C1062 C1063 1.414 . S
C1062 C1065 1.499 . S
C1063 H1037 0.950 . S
C1063 C1062 1.414 . S
C1063 C1064 1.374 . S
C1064 H1038 0.950 . S
C1064 C1060 1.385 . S
C1064 C1063 1.374 . S
C1065 C1062 1.499 . S
C1065 C1066 1.373 . S
C1065 C1067 1.389 . S
C1066 H1039 0.950 . S
C1066 C1052 1.377 . S
C1066 C1065 1.373 . S
C1067 C1051 1.377 . S
C1067 C1065 1.389 . S
C1067 C1068 1.524 . S
C1068 C1067 1.524 . S
C1068 C1069 1.397 . S
C1068 C1073 1.363 . S
C1069 H1040 0.950 . S
C1069 C1068 1.397 . S
C1069 C1070 1.334 . S
C1070 H1041 0.950 . S
C1070 C1069 1.334 . S
C1070 C1071 1.287 . S
C1071 C1070 1.287 . S
C1071 C1072 1.524 . S
C1071 H1074 0.999 . S
C1072 H1042 0.950 . S
C1072 C1071 1.524 . S
C1072 C1073 1.415 . S
C1073 H1043 0.950 . S
C1073 C1068 1.363 . S
C1073 C1072 1.415 . S
H1074 C1071 0.999 . S
H1075 C1056 0.913 . S
H1076 C1094 0.951 . S
H1077 C1096 0.951 . S
H1078 C1098 0.950 . S
H1079 C1099 0.950 . S
H1080 C1101 0.950 . S
H1081 C1104 0.950 . S
H1082 C1105 0.950 . S
H1083 C1107 0.950 . S
H1084 C1108 0.950 . S
H1085 C1109 0.951 . S
H1086 C1111 0.951 . S
H1087 C1113 0.950 . S
H1088 C1114 0.950 . S
H1089 C1116 0.950 . S
H1090 C1119 0.950 . S
H1091 C1120 0.950 . S
H1092 C1122 0.950 . S
H1093 C1123 0.950 . S
C1094 H1076 0.951 . S
C1094 C1095 1.366 . S
C1094 C1096 1.388 . S
C1095 C1094 1.366 . S
C1095 C1099 1.385 . S
C1096 H1077 0.951 . S
C1096 C1094 1.388 . S
C1096 C1097 1.366 . S
C1097 C1096 1.366 . S
C1097 C1098 1.414 . S
C1097 C1100 1.499 . S
C1098 H1078 0.950 . S
C1098 C1097 1.414 . S
C1098 C1099 1.374 . S
C1099 H1079 0.950 . S
C1099 C1095 1.385 . S
C1099 C1098 1.374 . S
C1100 C1097 1.499 . S
C1100 C1101 1.373 . S
C1100 C1102 1.389 . S
C1101 H1080 0.950 . S
C1101 C1100 1.373 . S
C1101 C1117 1.377 . S
C1102 C1100 1.389 . S
C1102 C1103 1.524 . S
C1102 C1116 1.377 . S
C1103 C1102 1.524 . S
C1103 C1104 1.397 . S
C1103 C1108 1.363 . S
C1104 H1081 0.950 . S
C1104 C1103 1.397 . S
C1104 C1105 1.334 . S
C1105 H1082 0.950 . S
C1105 C1104 1.334 . S
C1105 C1106 1.287 . S
C1106 C1105 1.287 . S
C1106 C1107 1.524 . S
C1106 H1125 0.913 . S
C1107 H1083 0.950 . S
C1107 C1106 1.524 . S
C1107 C1108 1.415 . S
C1108 H1084 0.950 . S
C1108 C1103 1.363 . S
C1108 C1107 1.415 . S
C1109 H1085 0.951 . S
C1109 C1110 1.366 . S
C1109 C1111 1.388 . S
C1110 C1109 1.366 . S
C1110 C1114 1.385 . S
C1111 H1086 0.951 . S
C1111 C1109 1.388 . S
C1111 C1112 1.366 . S
C1112 C1111 1.366 . S
C1112 C1113 1.414 . S
C1112 C1115 1.499 . S
C1113 H1087 0.950 . S
C1113 C1112 1.414 . S
C1113 C1114 1.374 . S
C1114 H1088 0.950 . S
C1114 C1110 1.385 . S
C1114 C1113 1.374 . S
C1115 C1112 1.499 . S
C1115 C1116 1.373 . S
C1115 C1117 1.389 . S
C1116 H1089 0.950 . S
C1116 C1102 1.377 . S
C1116 C1115 1.373 . S
C1117 C1101 1.377 . S
C1117 C1115 1.389 . S
C1117 C1118 1.524 . S
C1118 C1117 1.524 . S
C1118 C1119 1.397 . S
C1118 C1123 1.363 . S
C1119 H1090 0.950 . S
C1119 C1118 1.397 . S
C1119 C1120 1.334 . S
C1120 H1091 0.950 . S
C1120 C1119 1.334 . S
C1120 C1121 1.287 . S
C1121 C1120 1.287 . S
C1121 C1122 1.524 . S
C1121 H1124 0.999 . S
C1122 H1092 0.950 . S
C1122 C1121 1.524 . S
C1122 C1123 1.415 . S
C1123 H1093 0.950 . S
C1123 C1118 1.363 . S
C1123 C1122 1.415 . S
H1124 C1121 0.999 . S
H1125 C1106 0.913 . S
H1126 C1144 0.951 . S
H1127 C1146 0.951 . S
H1128 C1148 0.950 . S
H1129 C1149 0.950 . S
H1130 C1151 0.950 . S
H1131 C1154 0.950 . S
H1132 C1155 0.950 . S
H1133 C1157 0.950 . S
H1134 C1158 0.950 . S
H1135 C1159 0.951 . S
H1136 C1161 0.951 . S
H1137 C1163 0.950 . S
H1138 C1164 0.950 . S
H1139 C1166 0.950 . S
H1140 C1169 0.950 . S
H1141 C1170 0.950 . S
H1142 C1172 0.950 . S
H1143 C1173 0.950 . S
C1144 H1126 0.951 . S
C1144 C1145 1.366 . S
C1144 C1146 1.388 . S
C1145 C1144 1.366 . S
C1145 C1149 1.385 . S
C1146 H1127 0.951 . S
C1146 C1144 1.388 . S
C1146 C1147 1.366 . S
C1147 C1146 1.366 . S
C1147 C1148 1.414 . S
C1147 C1150 1.499 . S
C1148 H1128 0.950 . S
C1148 C1147 1.414 . S
C1148 C1149 1.374 . S
C1149 H1129 0.950 . S
C1149 C1145 1.385 . S
C1149 C1148 1.374 . S
C1150 C1147 1.499 . S
C1150 C1151 1.373 . S
C1150 C1152 1.389 . S
C1151 H1130 0.950 . S
C1151 C1150 1.373 . S
C1151 C1167 1.377 . S
C1152 C1150 1.389 . S
C1152 C1153 1.524 . S
C1152 C1166 1.377 . S
C1153 C1152 1.524 . S
C1153 C1154 1.397 . S
C1153 C1158 1.363 . S
C1154 H1131 0.950 . S
C1154 C1153 1.397 . S
C1154 C1155 1.334 . S
C1155 H1132 0.950 . S
C1155 C1154 1.334 . S
C1155 C1156 1.287 . S
C1156 C1155 1.287 . S
C1156 C1157 1.524 . S
C1156 H1175 0.913 . S
C1157 H1133 0.950 . S
C1157 C1156 1.524 . S
C1157 C1158 1.415 . S
C1158 H1134 0.950 . S
C1158 C1153 1.363 . S
C1158 C1157 1.415 . S
C1159 H1135 0.951 . S
C1159 C1160 1.366 . S
C1159 C1161 1.388 . S
C1160 C1159 1.366 . S
C1160 C1164 1.385 . S
C1161 H1136 0.951 . S
C1161 C1159 1.388 . S
C1161 C1162 1.366 . S
C1162 C1161 1.366 . S
C1162 C1163 1.414 . S
C1162 C1165 1.499 . S
C1163 H1137 0.950 . S
C1163 C1162 1.414 . S
C1163 C1164 1.374 . S
C1164 H1138 0.950 . S
C1164 C1160 1.385 . S
C1164 C1163 1.374 . S
C1165 C1162 1.499 . S
C1165 C1166 1.373 . S
C1165 C1167 1.389 . S
C1166 H1139 0.950 . S
C1166 C1152 1.377 . S
C1166 C1165 1.373 . S
C1167 C1151 1.377 . S
C1167 C1165 1.389 . S
C1167 C1168 1.524 . S
C1168 C1167 1.524 . S
C1168 C1169 1.397 . S
C1168 C1173 1.363 . S
C1169 H1140 0.950 . S
C1169 C1168 1.397 . S
C1169 C1170 1.334 . S
C1170 H1141 0.950 . S
C1170 C1169 1.334 . S
C1170 C1171 1.287 . S
C1171 C1170 1.287 . S
C1171 C1172 1.524 . S
C1171 H1174 0.999 . S
C1172 H1142 0.950 . S
C1172 C1171 1.524 . S
C1172 C1173 1.415 . S
C1173 H1143 0.950 . S
C1173 C1168 1.363 . S
C1173 C1172 1.415 . S
H1174 C1171 0.999 . S
H1175 C1156 0.913 . S
H1176 C1194 0.951 . S
H1177 C1196 0.951 . S
H1178 C1198 0.950 . S
H1179 C1199 0.950 . S
H1180 C1201 0.950 . S
H1181 C1204 0.950 . S
H1182 C1205 0.950 . S
H1183 C1207 0.950 . S
H1184 C1208 0.950 . S
H1185 C1209 0.951 . S
H1186 C1211 0.951 . S
H1187 C1213 0.950 . S
H1188 C1214 0.950 . S
H1189 C1216 0.950 . S
H1190 C1219 0.950 . S
H1191 C1220 0.950 . S
H1192 C1222 0.950 . S
H1193 C1223 0.950 . S
C1194 H1176 0.951 . S
C1194 C1195 1.373 . S
C1194 C1196 1.388 . S
C1195 C1194 1.373 . S
C1195 C1199 1.378 1_554 S
C1196 H1177 0.951 . S
C1196 C1194 1.388 . S
C1196 C1197 1.366 . S
C1197 C1196 1.366 . S
C1197 C1198 1.414 1_554 S
C1197 C1200 1.499 . S
C1198 H1178 0.950 . S
C1198 C1197 1.414 1_556 S
C1198 C1199 1.374 . S
C1199 H1179 0.950 . S
C1199 C1195 1.378 1_556 S
C1199 C1198 1.374 . S
C1200 C1197 1.499 . S
C1200 C1201 1.368 1_554 S
C1200 C1202 1.394 . S
C1201 H1180 0.950 . S
C1201 C1200 1.368 1_556 S
C1201 C1217 1.377 . S
C1202 C1200 1.394 . S
C1202 C1203 1.524 . S
C1202 C1216 1.377 . S
C1203 C1202 1.524 . S
C1203 C1204 1.397 . S
C1203 C1208 1.363 . S
C1204 H1181 0.950 . S
C1204 C1203 1.397 . S
C1204 C1205 1.334 . S
C1205 H1182 0.950 . S
C1205 C1204 1.334 . S
C1205 C1206 1.287 . S
C1206 C1205 1.287 . S
C1206 C1207 1.524 . S
C1206 H1225 0.913 . S
C1207 H1183 0.950 . S
C1207 C1206 1.524 . S
C1207 C1208 1.415 . S
C1208 H1184 0.950 . S
C1208 C1203 1.363 . S
C1208 C1207 1.415 . S
C1209 H1185 0.951 . S
C1209 C1210 1.359 1_556 S
C1209 C1211 1.388 . S
C1210 C1209 1.359 1_554 S
C1210 C1214 1.392 . S
C1211 H1186 0.951 . S
C1211 C1209 1.388 . S
C1211 C1212 1.377 . S
C1212 C1211 1.377 . S
C1212 C1213 1.403 1_556 S
C1212 C1215 1.498 1_556 S
C1213 H1187 0.950 . S
C1213 C1212 1.403 1_554 S
C1213 C1214 1.374 . S
C1214 H1188 0.950 . S
C1214 C1210 1.392 . S
C1214 C1213 1.374 . S
C1215 C1212 1.498 1_554 S
C1215 C1216 1.383 . S
C1215 C1217 1.380 1_554 S
C1216 H1189 0.950 . S
C1216 C1202 1.377 . S
C1216 C1215 1.383 . S
C1217 C1201 1.377 . S
C1217 C1215 1.380 1_556 S
C1217 C1218 1.524 . S
C1218 C1217 1.524 . S
C1218 C1219 1.397 . S
C1218 C1223 1.363 . S
C1219 H1190 0.950 . S
C1219 C1218 1.397 . S
C1219 C1220 1.334 . S
C1220 H1191 0.950 . S
C1220 C1219 1.334 . S
C1220 C1221 1.287 . S
C1221 C1220 1.287 . S
C1221 C1222 1.524 . S
C1221 H1224 0.999 . S
C1222 H1192 0.950 . S
C1222 C1221 1.524 . S
C1222 C1223 1.415 . S
C1223 H1193 0.950 . S
C1223 C1218 1.363 . S
C1223 C1222 1.415 . S
H1224 C1221 0.999 . S
H1225 C1206 0.913 . S
H1226 C1244 0.951 . S
H1227 C1246 0.951 . S
H1228 C1248 0.950 . S
H1229 C1249 0.950 . S
H1230 C1251 0.950 . S
H1231 C1254 0.950 . S
H1232 C1255 0.950 . S
H1233 C1257 0.950 . S
H1234 C1258 0.950 . S
H1235 C1259 0.951 . S
H1236 C1261 0.951 . S
H1237 C1263 0.950 . S
H1238 C1264 0.950 . S
H1239 C1266 0.950 . S
H1240 C1269 0.950 . S
H1241 C1270 0.950 . S
H1242 C1272 0.950 . S
H1243 C1273 0.950 . S
C1244 H1226 0.951 . S
C1244 C1245 1.366 . S
C1244 C1246 1.388 . S
C1245 C1244 1.366 . S
C1245 C1249 1.385 . S
C1246 H1227 0.951 . S
C1246 C1244 1.388 . S
C1246 C1247 1.366 . S
C1247 C1246 1.366 . S
C1247 C1248 1.414 . S
C1247 C1250 1.499 . S
C1248 H1228 0.950 . S
C1248 C1247 1.414 . S
C1248 C1249 1.374 . S
C1249 H1229 0.950 . S
C1249 C1245 1.385 . S
C1249 C1248 1.374 . S
C1250 C1247 1.499 . S
C1250 C1251 1.373 . S
C1250 C1252 1.389 . S
C1251 H1230 0.950 . S
C1251 C1250 1.373 . S
C1251 C1267 1.377 . S
C1252 C1250 1.389 . S
C1252 C1253 1.524 . S
C1252 C1266 1.377 . S
C1253 C1252 1.524 . S
C1253 C1254 1.397 . S
C1253 C1258 1.363 . S
C1254 H1231 0.950 . S
C1254 C1253 1.397 . S
C1254 C1255 1.334 . S
C1255 H1232 0.950 . S
C1255 C1254 1.334 . S
C1255 C1256 1.287 . S
C1256 C1255 1.287 . S
C1256 C1257 1.524 . S
C1256 H1275 0.913 . S
C1257 H1233 0.950 . S
C1257 C1256 1.524 . S
C1257 C1258 1.415 . S
C1258 H1234 0.950 . S
C1258 C1253 1.363 . S
C1258 C1257 1.415 . S
C1259 H1235 0.951 . S
C1259 C1260 1.366 . S
C1259 C1261 1.388 . S
C1260 C1259 1.366 . S
C1260 C1264 1.385 . S
C1261 H1236 0.951 . S
C1261 C1259 1.388 . S
C1261 C1262 1.366 . S
C1262 C1261 1.366 . S
C1262 C1263 1.414 . S
C1262 C1265 1.499 . S
C1263 H1237 0.950 . S
C1263 C1262 1.414 . S
C1263 C1264 1.374 . S
C1264 H1238 0.950 . S
C1264 C1260 1.385 . S
C1264 C1263 1.374 . S
C1265 C1262 1.499 . S
C1265 C1266 1.373 . S
C1265 C1267 1.389 . S
C1266 H1239 0.950 . S
C1266 C1252 1.377 . S
C1266 C1265 1.373 . S
C1267 C1251 1.377 . S
C1267 C1265 1.389 . S
C1267 C1268 1.524 . S
C1268 C1267 1.524 . S
C1268 C1269 1.397 . S
C1268 C1273 1.363 . S
C1269 H1240 0.950 . S
C1269 C1268 1.397 . S
C1269 C1270 1.334 . S
C1270 H1241 0.950 . S
C1270 C1269 1.334 . S
C1270 C1271 1.287 . S
C1271 C1270 1.287 . S
C1271 C1272 1.524 . S
C1271 H1274 0.999 . S
C1272 H1242 0.950 . S
C1272 C1271 1.524 . S
C1272 C1273 1.415 . S
C1273 H1243 0.950 . S
C1273 C1268 1.363 . S
C1273 C1272 1.415 . S
H1274 C1271 0.999 . S
H1275 C1256 0.913 . S
H1276 C1294 0.951 . S
H1277 C1296 0.951 . S
H1278 C1298 0.950 . S
H1279 C1299 0.950 . S
H1280 C1301 0.950 . S
H1281 C1304 0.950 . S
H1282 C1305 0.950 . S
H1283 C1307 0.950 . S
H1284 C1308 0.950 . S
H1285 C1309 0.951 . S
H1286 C1311 0.951 . S
H1287 C1313 0.950 . S
H1288 C1314 0.950 . S
H1289 C1316 0.950 . S
H1290 C1319 0.950 . S
H1291 C1320 0.950 . S
H1292 C1322 0.950 . S
H1293 C1323 0.950 . S
C1294 H1276 0.951 . S
C1294 C1295 1.347 1_556 S
C1294 C1296 1.388 . S
C1295 C1294 1.347 1_554 S
C1295 C1299 1.403 . S
C1296 H1277 0.951 . S
C1296 C1294 1.388 . S
C1296 C1297 1.365 1_556 S
C1297 C1296 1.365 1_554 S
C1297 C1298 1.415 . S
C1297 C1300 1.499 . S
C1298 H1278 0.950 . S
C1298 C1297 1.415 . S
C1298 C1299 1.374 . S
C1299 H1279 0.950 . S
C1299 C1295 1.403 . S
C1299 C1298 1.374 . S
C1300 C1297 1.499 . S
C1300 C1301 1.373 . S
C1300 C1302 1.389 1_554 S
C1301 H1280 0.950 . S
C1301 C1300 1.373 . S
C1301 C1317 1.377 . S
C1302 C1300 1.389 1_556 S
C1302 C1303 1.524 . S
C1302 C1316 1.377 . S
C1303 C1302 1.524 . S
C1303 C1304 1.397 . S
C1303 C1308 1.363 . S
C1304 H1281 0.950 . S
C1304 C1303 1.397 . S
C1304 C1305 1.334 . S
C1305 H1282 0.950 . S
C1305 C1304 1.334 . S
C1305 C1306 1.287 . S
C1306 C1305 1.287 . S
C1306 C1307 1.524 . S
C1306 H1325 0.913 . S
C1307 H1283 0.950 . S
C1307 C1306 1.524 . S
C1307 C1308 1.415 . S
C1308 H1284 0.950 . S
C1308 C1303 1.363 . S
C1308 C1307 1.415 . S
C1309 H1285 0.951 . S
C1309 C1310 1.384 . S
C1309 C1311 1.388 . S
C1310 C1309 1.384 . S
C1310 C1314 1.366 1_554 S
C1311 H1286 0.951 . S
C1311 C1309 1.388 . S
C1311 C1312 1.366 . S
C1312 C1311 1.366 . S
C1312 C1313 1.414 1_554 S
C1312 C1315 1.499 . S
C1313 H1287 0.950 . S
C1313 C1312 1.414 1_556 S
C1313 C1314 1.374 . S
C1314 H1288 0.950 . S
C1314 C1310 1.366 1_556 S
C1314 C1313 1.374 . S
C1315 C1312 1.499 . S
C1315 C1316 1.368 1_554 S
C1315 C1317 1.395 . S
C1316 H1289 0.950 . S
C1316 C1302 1.377 . S
C1316 C1315 1.368 1_556 S
C1317 C1301 1.377 . S
C1317 C1315 1.395 . S
C1317 C1318 1.524 . S
C1318 C1317 1.524 . S
C1318 C1319 1.397 . S
C1318 C1323 1.363 . S
C1319 H1290 0.950 . S
C1319 C1318 1.397 . S
C1319 C1320 1.334 . S
C1320 H1291 0.950 . S
C1320 C1319 1.334 . S
C1320 C1321 1.287 . S
C1321 C1320 1.287 . S
C1321 C1322 1.524 . S
C1321 H1324 0.999 . S
C1322 H1292 0.950 . S
C1322 C1321 1.524 . S
C1322 C1323 1.415 . S
C1323 H1293 0.950 . S
C1323 C1318 1.363 . S
C1323 C1322 1.415 . S
H1324 C1321 0.999 . S
H1325 C1306 0.913 . S
H1326 C1344 0.951 . S
H1327 C1346 0.951 . S
H1328 C1348 0.950 . S
H1329 C1349 0.950 . S
H1330 C1351 0.950 . S
H1331 C1354 0.950 . S
H1332 C1355 0.950 . S
H1333 C1357 0.950 . S
H1334 C1358 0.950 . S
H1335 C1359 0.951 . S
H1336 C1361 0.951 . S
H1337 C1363 0.950 . S
H1338 C1364 0.950 . S
H1339 C1366 0.950 . S
H1340 C1369 0.950 . S
H1341 C1370 0.950 . S
H1342 C1372 0.950 . S
H1343 C1373 0.950 . S
C1344 H1326 0.951 . S
C1344 C1345 1.366 . S
C1344 C1346 1.388 . S
C1345 C1344 1.366 . S
C1345 C1349 1.385 . S
C1346 H1327 0.951 . S
C1346 C1344 1.388 . S
C1346 C1347 1.366 . S
C1347 C1346 1.366 . S
C1347 C1348 1.414 . S
C1347 C1350 1.499 . S
C1348 H1328 0.950 . S
C1348 C1347 1.414 . S
C1348 C1349 1.374 . S
C1349 H1329 0.950 . S
C1349 C1345 1.385 . S
C1349 C1348 1.374 . S
C1350 C1347 1.499 . S
C1350 C1351 1.373 . S
C1350 C1352 1.389 . S
C1351 H1330 0.950 . S
C1351 C1350 1.373 . S
C1351 C1367 1.377 . S
C1352 C1350 1.389 . S
C1352 C1353 1.524 . S
C1352 C1366 1.377 . S
C1353 C1352 1.524 . S
C1353 C1354 1.397 . S
C1353 C1358 1.363 . S
C1354 H1331 0.950 . S
C1354 C1353 1.397 . S
C1354 C1355 1.334 . S
C1355 H1332 0.950 . S
C1355 C1354 1.334 . S
C1355 C1356 1.287 . S
C1356 C1355 1.287 . S
C1356 C1357 1.524 . S
C1356 H1375 0.913 . S
C1357 H1333 0.950 . S
C1357 C1356 1.524 . S
C1357 C1358 1.415 . S
C1358 H1334 0.950 . S
C1358 C1353 1.363 . S
C1358 C1357 1.415 . S
C1359 H1335 0.951 . S
C1359 C1360 1.366 . S
C1359 C1361 1.388 . S
C1360 C1359 1.366 . S
C1360 C1364 1.385 . S
C1361 H1336 0.951 . S
C1361 C1359 1.388 . S
C1361 C1362 1.366 . S
C1362 C1361 1.366 . S
C1362 C1363 1.414 . S
C1362 C1365 1.499 . S
C1363 H1337 0.950 . S
C1363 C1362 1.414 . S
C1363 C1364 1.374 . S
C1364 H1338 0.950 . S
C1364 C1360 1.385 . S
C1364 C1363 1.374 . S
C1365 C1362 1.499 . S
C1365 C1366 1.373 . S
C1365 C1367 1.389 . S
C1366 H1339 0.950 . S
C1366 C1352 1.377 . S
C1366 C1365 1.373 . S
C1367 C1351 1.377 . S
C1367 C1365 1.389 . S
C1367 C1368 1.524 . S
C1368 C1367 1.524 . S
C1368 C1369 1.397 . S
C1368 C1373 1.363 . S
C1369 H1340 0.950 . S
C1369 C1368 1.397 . S
C1369 C1370 1.334 . S
C1370 H1341 0.950 . S
C1370 C1369 1.334 . S
C1370 C1371 1.287 . S
C1371 C1370 1.287 . S
C1371 C1372 1.524 . S
C1371 H1374 0.999 . S
C1372 H1342 0.950 . S
C1372 C1371 1.524 . S
C1372 C1373 1.415 . S
C1373 H1343 0.950 . S
C1373 C1368 1.363 . S
C1373 C1372 1.415 . S
H1374 C1371 0.999 . S
H1375 C1356 0.913 . S
H1376 C1394 0.951 . S
H1377 C1396 0.951 . S
H1378 C1398 0.950 . S
H1379 C1399 0.950 . S
H1380 C1401 0.950 . S
H1381 C1404 0.950 . S
H1382 C1405 0.950 . S
H1383 C1407 0.950 . S
H1384 C1408 0.950 . S
H1385 C1409 0.951 . S
H1386 C1411 0.951 . S
H1387 C1413 0.950 . S
H1388 C1414 0.950 . S
H1389 C1416 0.950 . S
H1390 C1419 0.950 . S
H1391 C1420 0.950 . S
H1392 C1422 0.950 . S
H1393 C1423 0.950 . S
C1394 H1376 0.951 . S
C1394 C1395 1.366 . S
C1394 C1396 1.388 . S
C1395 C1394 1.366 . S
C1395 C1399 1.385 . S
C1396 H1377 0.951 . S
C1396 C1394 1.388 . S
C1396 C1397 1.366 . S
C1397 C1396 1.366 . S
C1397 C1398 1.414 . S
C1397 C1400 1.499 . S
C1398 H1378 0.950 . S
C1398 C1397 1.414 . S
C1398 C1399 1.374 . S
C1399 H1379 0.950 . S
C1399 C1395 1.385 . S
C1399 C1398 1.374 . S
C1400 C1397 1.499 . S
C1400 C1401 1.373 . S
C1400 C1402 1.389 . S
C1401 H1380 0.950 . S
C1401 C1400 1.373 . S
C1401 C1417 1.377 . S
C1402 C1400 1.389 . S
C1402 C1403 1.524 . S
C1402 C1416 1.377 . S
C1403 C1402 1.524 . S
C1403 C1404 1.397 . S
C1403 C1408 1.363 . S
C1404 H1381 0.950 . S
C1404 C1403 1.397 . S
C1404 C1405 1.334 . S
C1405 H1382 0.950 . S
C1405 C1404 1.334 . S
C1405 C1406 1.287 . S
C1406 C1405 1.287 . S
C1406 C1407 1.524 . S
C1406 H1425 0.913 . S
C1407 H1383 0.950 . S
C1407 C1406 1.524 . S
C1407 C1408 1.415 . S
C1408 H1384 0.950 . S
C1408 C1403 1.363 . S
C1408 C1407 1.415 . S
C1409 H1385 0.951 . S
C1409 C1410 1.366 . S
C1409 C1411 1.388 . S
C1410 C1409 1.366 . S
C1410 C1414 1.385 . S
C1411 H1386 0.951 . S
C1411 C1409 1.388 . S
C1411 C1412 1.366 . S
C1412 C1411 1.366 . S
C1412 C1413 1.414 . S
C1412 C1415 1.499 . S
C1413 H1387 0.950 . S
C1413 C1412 1.414 . S
C1413 C1414 1.374 . S
C1414 H1388 0.950 . S
C1414 C1410 1.385 . S
C1414 C1413 1.374 . S
C1415 C1412 1.499 . S
C1415 C1416 1.373 . S
C1415 C1417 1.389 . S
C1416 H1389 0.950 . S
C1416 C1402 1.377 . S
C1416 C1415 1.373 . S
C1417 C1401 1.377 . S
C1417 C1415 1.389 . S
C1417 C1418 1.524 . S
C1418 C1417 1.524 . S
C1418 C1419 1.397 . S
C1418 C1423 1.363 . S
C1419 H1390 0.950 . S
C1419 C1418 1.397 . S
C1419 C1420 1.334 . S
C1420 H1391 0.950 . S
C1420 C1419 1.334 . S
C1420 C1421 1.287 . S
C1421 C1420 1.287 . S
C1421 C1422 1.524 . S
C1421 H1424 0.999 . S
C1422 H1392 0.950 . S
C1422 C1421 1.524 . S
C1422 C1423 1.415 . S
C1423 H1393 0.950 . S
C1423 C1418 1.363 . S
C1423 C1422 1.415 . S
H1424 C1421 0.999 . S
H1425 C1406 0.913 . S
H1426 C1444 0.951 . S
H1427 C1446 0.951 . S
H1428 C1448 0.950 . S
H1429 C1449 0.950 . S
H1430 C1451 0.950 . S
H1431 C1454 0.950 . S
H1432 C1455 0.950 . S
H1433 C1457 0.950 . S
H1434 C1458 0.950 1_556 S
H1435 C1459 0.951 . S
H1436 C1461 0.951 . S
H1437 C1463 0.950 . S
H1438 C1464 0.950 . S
H1439 C1466 0.950 . S
H1440 C1469 0.950 . S
H1441 C1470 0.950 . S
H1442 C1472 0.950 . S
H1443 C1473 0.950 1_554 S
C1444 H1426 0.951 . S
C1444 C1445 1.356 1_556 S
C1444 C1446 1.388 . S
C1445 C1444 1.356 1_554 S
C1445 C1449 1.395 . S
C1446 H1427 0.951 . S
C1446 C1444 1.388 . S
C1446 C1447 1.366 1_556 S
C1447 C1446 1.366 1_554 S
C1447 C1448 1.414 . S
C1447 C1450 1.499 . S
C1448 H1428 0.950 . S
C1448 C1447 1.414 . S
C1448 C1449 1.374 . S
C1449 H1429 0.950 . S
C1449 C1445 1.395 . S
C1449 C1448 1.374 . S
C1450 C1447 1.499 . S
C1450 C1451 1.373 1_554 S
C1450 C1452 1.389 . S
C1451 H1430 0.950 . S
C1451 C1450 1.373 1_556 S
C1451 C1467 1.377 . S
C1452 C1450 1.389 . S
C1452 C1453 1.524 . S
C1452 C1466 1.377 . S
C1453 C1452 1.524 . S
C1453 C1454 1.397 . S
C1453 C1458 1.363 . S
C1454 H1431 0.950 . S
C1454 C1453 1.397 . S
C1454 C1455 1.334 . S
C1455 H1432 0.950 . S
C1455 C1454 1.334 . S
C1455 C1456 1.287 . S
C1456 C1455 1.287 . S
C1456 C1457 1.524 . S
C1456 H1475 0.913 . S
C1457 H1433 0.950 . S
C1457 C1456 1.524 . S
C1457 C1458 1.415 . S
C1458 H1434 0.950 1_554 S
C1458 C1453 1.363 . S
C1458 C1457 1.415 . S
C1459 H1435 0.951 . S
C1459 C1460 1.378 . S
C1459 C1461 1.388 . S
C1460 C1459 1.378 . S
C1460 C1464 1.372 1_554 S
C1461 H1436 0.951 . S
C1461 C1459 1.388 . S
C1461 C1462 1.366 1_554 S
C1462 C1461 1.366 1_556 S
C1462 C1463 1.414 . S
C1462 C1465 1.499 . S
C1463 H1437 0.950 . S
C1463 C1462 1.414 . S
C1463 C1464 1.374 . S
C1464 H1438 0.950 . S
C1464 C1460 1.372 1_556 S
C1464 C1463 1.374 . S
C1465 C1462 1.499 . S
C1465 C1466 1.373 1_556 S
C1465 C1467 1.389 . S
C1466 H1439 0.950 . S
C1466 C1452 1.377 . S
C1466 C1465 1.373 1_554 S
C1467 C1451 1.377 . S
C1467 C1465 1.389 . S
C1467 C1468 1.524 . S
C1468 C1467 1.524 . S
C1468 C1469 1.397 . S
C1468 C1473 1.363 . S
C1469 H1440 0.950 . S
C1469 C1468 1.397 . S
C1469 C1470 1.334 . S
C1470 H1441 0.950 . S
C1470 C1469 1.334 . S
C1470 C1471 1.287 . S
C1471 C1470 1.287 . S
C1471 C1472 1.524 . S
C1471 H1474 0.999 . S
C1472 H1442 0.950 . S
C1472 C1471 1.524 . S
C1472 C1473 1.415 . S
C1473 H1443 0.950 1_556 S
C1473 C1468 1.363 . S
C1473 C1472 1.415 . S
H1474 C1471 0.999 . S
H1475 C1456 0.913 . S
H1476 C1494 0.951 . S
H1477 C1496 0.951 . S
H1478 C1498 0.950 . S
H1479 C1499 0.950 . S
H1480 C1501 0.950 . S
H1481 C1504 0.950 . S
H1482 C1505 0.950 . S
H1483 C1507 0.950 . S
H1484 C1508 0.950 . S
H1485 C1509 0.951 . S
H1486 C1511 0.951 . S
H1487 C1513 0.950 . S
H1488 C1514 0.950 . S
H1489 C1516 0.950 . S
H1490 C1519 0.950 . S
H1491 C1520 0.950 . S
H1492 C1522 0.950 . S
H1493 C1523 0.950 . S
C1494 H1476 0.951 . S
C1494 C1495 1.366 . S
C1494 C1496 1.388 . S
C1495 C1494 1.366 . S
C1495 C1499 1.385 . S
C1496 H1477 0.951 . S
C1496 C1494 1.388 . S
C1496 C1497 1.366 . S
C1497 C1496 1.366 . S
C1497 C1498 1.414 . S
C1497 C1500 1.499 . S
C1498 H1478 0.950 . S
C1498 C1497 1.414 . S
C1498 C1499 1.374 . S
C1499 H1479 0.950 . S
C1499 C1495 1.385 . S
C1499 C1498 1.374 . S
C1500 C1497 1.499 . S
C1500 C1501 1.373 . S
C1500 C1502 1.389 . S
C1501 H1480 0.950 . S
C1501 C1500 1.373 . S
C1501 C1517 1.377 . S
C1502 C1500 1.389 . S
C1502 C1503 1.524 . S
C1502 C1516 1.377 . S
C1503 C1502 1.524 . S
C1503 C1504 1.397 . S
C1503 C1508 1.363 . S
C1504 H1481 0.950 . S
C1504 C1503 1.397 . S
C1504 C1505 1.334 . S
C1505 H1482 0.950 . S
C1505 C1504 1.334 . S
C1505 C1506 1.287 . S
C1506 C1505 1.287 . S
C1506 C1507 1.524 . S
C1506 H1525 0.913 . S
C1507 H1483 0.950 . S
C1507 C1506 1.524 . S
C1507 C1508 1.415 . S
C1508 H1484 0.950 . S
C1508 C1503 1.363 . S
C1508 C1507 1.415 . S
C1509 H1485 0.951 . S
C1509 C1510 1.366 . S
C1509 C1511 1.388 . S
C1510 C1509 1.366 . S
C1510 C1514 1.385 . S
C1511 H1486 0.951 . S
C1511 C1509 1.388 . S
C1511 C1512 1.366 . S
C1512 C1511 1.366 . S
C1512 C1513 1.414 . S
C1512 C1515 1.499 . S
C1513 H1487 0.950 . S
C1513 C1512 1.414 . S
C1513 C1514 1.374 . S
C1514 H1488 0.950 . S
C1514 C1510 1.385 . S
C1514 C1513 1.374 . S
C1515 C1512 1.499 . S
C1515 C1516 1.373 . S
C1515 C1517 1.389 . S
C1516 H1489 0.950 . S
C1516 C1502 1.377 . S
C1516 C1515 1.373 . S
C1517 C1501 1.377 . S
C1517 C1515 1.389 . S
C1517 C1518 1.524 . S
C1518 C1517 1.524 . S
C1518 C1519 1.397 . S
C1518 C1523 1.363 . S
C1519 H1490 0.950 . S
C1519 C1518 1.397 . S
C1519 C1520 1.334 . S
C1520 H1491 0.950 . S
C1520 C1519 1.334 . S
C1520 C1521 1.287 . S
C1521 C1520 1.287 . S
C1521 C1522 1.524 . S
C1521 H1524 0.999 . S
C1522 H1492 0.950 . S
C1522 C1521 1.524 . S
C1522 C1523 1.415 . S
C1523 H1493 0.950 . S
C1523 C1518 1.363 . S
C1523 C1522 1.415 . S
H1524 C1521 0.999 . S
H1525 C1506 0.913 . S
H1526 C1544 0.951 . S
H1527 C1546 0.951 . S
H1528 C1548 0.950 . S
H1529 C1549 0.950 . S
H1530 C1551 0.950 . S
H1531 C1554 0.950 . S
H1532 C1555 0.950 . S
H1533 C1557 0.950 . S
H1534 C1558 0.950 . S
H1535 C1559 0.951 . S
H1536 C1561 0.951 . S
H1537 C1563 0.950 . S
H1538 C1564 0.950 . S
H1539 C1566 0.950 . S
H1540 C1569 0.950 . S
H1541 C1570 0.950 . S
H1542 C1572 0.950 . S
H1543 C1573 0.950 . S
C1544 H1526 0.951 . S
C1544 C1545 1.367 . S
C1544 C1546 1.388 . S
C1545 C1544 1.367 . S
C1545 C1549 1.384 1_554 S
C1546 H1527 0.951 . S
C1546 C1544 1.388 . S
C1546 C1547 1.366 . S
C1547 C1546 1.366 . S
C1547 C1548 1.414 1_554 S
C1547 C1550 1.499 . S
C1548 H1528 0.950 . S
C1548 C1547 1.414 1_556 S
C1548 C1549 1.374 . S
C1549 H1529 0.950 . S
C1549 C1545 1.384 1_556 S
C1549 C1548 1.374 . S
C1550 C1547 1.499 . S
C1550 C1551 1.373 1_554 S
C1550 C1552 1.389 . S
C1551 H1530 0.950 . S
C1551 C1550 1.373 1_556 S
C1551 C1567 1.377 . S
C1552 C1550 1.389 . S
C1552 C1553 1.524 . S
C1552 C1566 1.377 . S
C1553 C1552 1.524 . S
C1553 C1554 1.397 . S
C1553 C1558 1.363 . S
C1554 H1531 0.950 . S
C1554 C1553 1.397 . S
C1554 C1555 1.334 . S
C1555 H1532 0.950 . S
C1555 C1554 1.334 . S
C1555 C1556 1.287 . S
C1556 C1555 1.287 . S
C1556 C1557 1.524 . S
C1556 H1575 0.913 . S
C1557 H1533 0.950 . S
C1557 C1556 1.524 . S
C1557 C1558 1.415 . S
C1558 H1534 0.950 . S
C1558 C1553 1.363 . S
C1558 C1557 1.415 . S
C1559 H1535 0.951 . S
C1559 C1560 1.365 1_556 S
C1559 C1561 1.388 . S
C1560 C1559 1.365 1_554 S
C1560 C1564 1.385 . S
C1561 H1536 0.951 . S
C1561 C1559 1.388 . S
C1561 C1562 1.366 . S
C1562 C1561 1.366 . S
C1562 C1563 1.414 1_556 S
C1562 C1565 1.499 . S
C1563 H1537 0.950 . S
C1563 C1562 1.414 1_554 S
C1563 C1564 1.374 . S
C1564 H1538 0.950 . S
C1564 C1560 1.385 . S
C1564 C1563 1.374 . S
C1565 C1562 1.499 . S
C1565 C1566 1.373 1_556 S
C1565 C1567 1.389 . S
C1566 H1539 0.950 . S
C1566 C1552 1.377 . S
C1566 C1565 1.373 1_554 S
C1567 C1551 1.377 . S
C1567 C1565 1.389 . S
C1567 C1568 1.524 . S
C1568 C1567 1.524 . S
C1568 C1569 1.397 . S
C1568 C1573 1.363 . S
C1569 H1540 0.950 . S
C1569 C1568 1.397 . S
C1569 C1570 1.334 . S
C1570 H1541 0.950 . S
C1570 C1569 1.334 . S
C1570 C1571 1.287 . S
C1571 C1570 1.287 . S
C1571 C1572 1.524 . S
C1571 H1574 0.999 . S
C1572 H1542 0.950 . S
C1572 C1571 1.524 . S
C1572 C1573 1.415 . S
C1573 H1543 0.950 . S
C1573 C1568 1.363 . S
C1573 C1572 1.415 . S
H1574 C1571 0.999 . S
H1575 C1556 0.913 . S
C395 C5 1.429 . S
C410 C197 1.444 . S
C445 C31 1.433 . S
C460 C119 1.421 . S
C510 C155 1.420 . S
C495 C53 1.432 . S
C545 C71 1.428 . S
C560 C161 1.443 . S
C610 C299 1.420 . S
C595 C75 1.434 . S
C660 C305 1.445 . S
C645 C9 1.429 . S
C710 C341 1.443 . S
C695 C27 1.428 . S
C760 C263 1.419 . S
C745 C49 1.432 . S
C795 C51 1.429 . S
C810 C125 1.430 . S
C845 C72 1.433 . S
C860 C191 1.439 . S
C895 C6 1.432 . S
C910 C227 1.437 . S
C960 C89 1.429 . S
C945 C29 1.428 . S
C995 C28 1.433 . S
C1010 C371 1.439 . S
C1060 C233 1.430 . S
C1045 C50 1.430 . S
C1110 C269 1.429 . S
C1095 C73 1.429 . S
C1145 C7 1.432 . S
C1160 C335 1.438 . S
C1210 C113 1.472 1_554 S
C1195 C4 1.483 . S
C1260 C149 1.473 . S
C1245 C30 1.482 . S
C1295 C52 1.483 . S
C1310 C185 1.493 . S
C1345 C70 1.483 . S
C1360 C221 1.492 . S
C1410 C257 1.473 . S
C1395 C74 1.483 . S
C1445 C8 1.483 . S
C1460 C293 1.474 . S
C1495 C26 1.483 . S
C1510 C329 1.492 . S
C1545 C48 1.483 . S
C1560 C365 1.491 1_554 S
