# Generated by pormake.
# Topology dag, (6,3)-cn, num edge types: 1
# Building blocks:
#     Node 0, Type 0, BuildingBlock: IZENUY_clean_sbu_0, # of connection points: 6
#     Node 1, Type 0, BuildingBlock: IZENUY_clean_sbu_0, # of connection points: 6
#     Node 2, Type 0, BuildingBlock: IZENUY_clean_sbu_0, # of connection points: 6
#     Node 3, Type 0, BuildingBlock: IZENUY_clean_sbu_0, # of connection points: 6
#     Node 4, Type 1, BuildingBlock: KAKCAD_clean_linker_0, # of connection points: 3
#     Node 5, Type 1, BuildingBlock: KAKCAD_clean_linker_0, # of connection points: 3
#     Node 6, Type 1, BuildingBlock: KAKCAD_clean_linker_0, # of connection points: 3
#     Node 7, Type 1, BuildingBlock: KAKCAD_clean_linker_0, # of connection points: 3
#     Node 8, Type 1, BuildingBlock: KAKCAD_clean_linker_0, # of connection points: 3
#     Node 9, Type 1, BuildingBlock: KAKCAD_clean_linker_0, # of connection points: 3
#     Node 10, Type 1, BuildingBlock: KAKCAD_clean_linker_0, # of connection points: 3
#     Node 11, Type 1, BuildingBlock: KAKCAD_clean_linker_0, # of connection points: 3
#     Edge 12, Type (0, 1), BuildingBlock: CIFDUS_clean_linker_0, # of connection points: 2
#     Edge 13, Type (0, 1), BuildingBlock: CIFDUS_clean_linker_0, # of connection points: 2
#     Edge 14, Type (0, 1), BuildingBlock: CIFDUS_clean_linker_0, # of connection points: 2
#     Edge 15, Type (0, 1), BuildingBlock: CIFDUS_clean_linker_0, # of connection points: 2
#     Edge 16, Type (0, 1), BuildingBlock: CIFDUS_clean_linker_0, # of connection points: 2
#     Edge 17, Type (0, 1), BuildingBlock: CIFDUS_clean_linker_0, # of connection points: 2
#     Edge 18, Type (0, 1), BuildingBlock: CIFDUS_clean_linker_0, # of connection points: 2
#     Edge 19, Type (0, 1), BuildingBlock: CIFDUS_clean_linker_0, # of connection points: 2
#     Edge 20, Type (0, 1), BuildingBlock: CIFDUS_clean_linker_0, # of connection points: 2
#     Edge 21, Type (0, 1), BuildingBlock: CIFDUS_clean_linker_0, # of connection points: 2
#     Edge 22, Type (0, 1), BuildingBlock: CIFDUS_clean_linker_0, # of connection points: 2
#     Edge 23, Type (0, 1), BuildingBlock: CIFDUS_clean_linker_0, # of connection points: 2
#     Edge 24, Type (0, 1), BuildingBlock: CIFDUS_clean_linker_0, # of connection points: 2
#     Edge 25, Type (0, 1), BuildingBlock: CIFDUS_clean_linker_0, # of connection points: 2
#     Edge 26, Type (0, 1), BuildingBlock: CIFDUS_clean_linker_0, # of connection points: 2
#     Edge 27, Type (0, 1), BuildingBlock: CIFDUS_clean_linker_0, # of connection points: 2
#     Edge 28, Type (0, 1), BuildingBlock: CIFDUS_clean_linker_0, # of connection points: 2
#     Edge 29, Type (0, 1), BuildingBlock: CIFDUS_clean_linker_0, # of connection points: 2
#     Edge 30, Type (0, 1), BuildingBlock: CIFDUS_clean_linker_0, # of connection points: 2
#     Edge 31, Type (0, 1), BuildingBlock: CIFDUS_clean_linker_0, # of connection points: 2
#     Edge 32, Type (0, 1), BuildingBlock: CIFDUS_clean_linker_0, # of connection points: 2
#     Edge 33, Type (0, 1), BuildingBlock: CIFDUS_clean_linker_0, # of connection points: 2
#     Edge 34, Type (0, 1), BuildingBlock: CIFDUS_clean_linker_0, # of connection points: 2
#     Edge 35, Type (0, 1), BuildingBlock: CIFDUS_clean_linker_0, # of connection points: 2
# Relax obj value: 0.253
# Max RMSD: 0.194
# Mean RMSD: 0.160
data_MOF--net-dag--node1-IZENUY_clean_sbu_0--node2-KAKCAD_clean_linker_0--edge1-CIFDUS_clean_linker_0
_symmetry_space_group_name_H-M    P1
_symmetry_Int_Tables_number       1
_symmetry_cell_setting            triclinic
loop_
_symmetry_equiv_pos_as_xyz
'x, y, z'
_cell_length_a     42.107139
_cell_length_b     43.874999
_cell_length_c     37.089248
_cell_angle_alpha  95.055793
_cell_angle_beta   90.219929
_cell_angle_gamma 90.063732
loop_
_atom_site_label
_atom_site_type_symbol
_atom_site_fract_x
_atom_site_fract_y
_atom_site_fract_z
_atom_type_partial_charge
Fe0 Fe 0.19494 0.85841 0.10118 0.0
Fe1 Fe 0.13507 0.88191 0.06592 0.0
O2 O 0.15933 0.85109 0.07614 0.0
Fe3 Fe 0.14809 0.81315 0.06141 0.0
O4 O 0.16516 0.79658 0.10108 0.0
O5 O 0.1808 0.83647 0.13698 0.0
O6 O 0.17989 0.8928 0.12762 0.0
C7 C 0.15154 0.9002 0.13551 0.0
C8 C 0.21193 0.81053 0.049 0.0
O9 O 0.12917 0.8933 0.11363 0.0
C10 C 0.13208 0.84659 0.00166 0.0
O11 O 0.2111 0.88078 0.06659 0.0
O12 O 0.16808 0.90871 0.06249 0.0
O13 O 0.18439 0.8074 0.03578 0.0
O14 O 0.21652 0.82534 0.07943 0.0
C15 C 0.09018 0.83662 0.08112 0.0
O16 O 0.1394 0.87215 0.0178 0.0
O17 O 0.12918 0.82313 0.01909 0.0
C18 C 0.19697 0.90336 0.05518 0.0
O19 O 0.09775 0.86072 0.06687 0.0
O20 O 0.1107 0.81644 0.08593 0.0
C21 C 0.17221 0.80884 0.13236 0.0
Fe22 Fe 0.68673 0.6633 0.50166 0.0
Fe23 Fe 0.64094 0.71389 0.53205 0.0
O24 O 0.65121 0.67463 0.5247 0.0
Fe25 Fe 0.62554 0.64706 0.54068 0.0
O26 O 0.6568 0.62008 0.55029 0.0
O27 O 0.70153 0.64317 0.53903 0.0
O28 O 0.70953 0.69683 0.52118 0.0
C29 C 0.70416 0.71483 0.54927 0.0
C30 C 0.64107 0.61914 0.47412 0.0
O31 O 0.67616 0.72137 0.55929 0.0
C32 C 0.58372 0.68901 0.5118 0.0
O33 O 0.67505 0.68218 0.46217 0.0
O34 O 0.66071 0.72548 0.49143 0.0
O35 O 0.61958 0.62896 0.49565 0.0
O36 O 0.66968 0.62793 0.47868 0.0
C37 C 0.62167 0.69041 0.59716 0.0
O38 O 0.60499 0.70797 0.50498 0.0
O39 O 0.58925 0.66888 0.53351 0.0
C40 C 0.66818 0.7101 0.46228 0.0
O41 O 0.61913 0.71014 0.57438 0.0
O42 O 0.63002 0.6635 0.58697 0.0
C43 C 0.68649 0.623 0.55414 0.0
Fe44 Fe 0.86235 0.19709 0.00898 0.0
Fe45 Fe 0.88054 0.12968 0.00996 0.0
O46 O 0.85267 0.15776 0.00014 0.0
Fe47 Fe 0.8152 0.14631 0.98161 0.0
O48 O 0.81118 0.17946 0.95479 0.0
O49 O 0.85687 0.20368 0.96187 0.0
O50 O 0.90521 0.19199 0.99909 0.0
C51 C 0.91948 0.17038 0.98075 0.0
C52 C 0.79793 0.19361 0.03047 0.0
O53 O 0.9087 0.14351 0.97874 0.0
C54 C 0.82639 0.10446 0.03418 0.0
O55 O 0.86822 0.19319 0.05681 0.0
O56 O 0.89826 0.15234 0.0487 0.0
O57 O 0.79475 0.16567 0.01978 0.0
O58 O 0.8214 0.20893 0.02047 0.0
C59 C 0.85438 0.10599 0.94341 0.0
O60 O 0.85385 0.11445 0.0418 0.0
O61 O 0.8125 0.11099 0.00541 0.0
C62 C 0.88654 0.17397 0.0692 0.0
O63 O 0.868 0.10174 0.97301 0.0
O64 O 0.83346 0.12637 0.94208 0.0
C65 C 0.83172 0.19776 0.94402 0.0
Fe66 Fe 0.35849 0.36323 0.54386 0.0
Fe67 Fe 0.29569 0.34351 0.57493 0.0
O68 O 0.33234 0.33376 0.55386 0.0
Fe69 Fe 0.3431 0.29506 0.54287 0.0
O70 O 0.37906 0.29906 0.57036 0.0
O71 O 0.39479 0.34093 0.54779 0.0
O72 O 0.36279 0.37561 0.59144 0.0
C73 C 0.33971 0.38397 0.61146 0.0
C74 C 0.36327 0.32563 0.482 0.0
O75 O 0.31135 0.37786 0.60158 0.0
C76 C 0.27998 0.2932 0.52471 0.0
O77 O 0.32731 0.39159 0.53793 0.0
O78 O 0.28318 0.36518 0.53784 0.0
O79 O 0.36457 0.30293 0.50113 0.0
O80 O 0.35543 0.35181 0.49601 0.0
C81 C 0.31298 0.29487 0.61163 0.0
O82 O 0.27383 0.31077 0.55273 0.0
O83 O 0.3082 0.28825 0.51464 0.0
C84 C 0.29836 0.38816 0.52929 0.0
O85 O 0.30558 0.32272 0.613 0.0
O86 O 0.32332 0.2808 0.58262 0.0
C87 C 0.40064 0.31812 0.56524 0.0
C88 C 0.97739 0.1731 0.27459 0.0
C89 C 0.95009 0.15495 0.26798 0.0
C90 C 0.99793 0.16774 0.30308 0.0
C91 C 0.99144 0.14413 0.32521 0.0
C92 C 0.96255 0.12822 0.32089 0.0
C93 C 0.94198 0.13367 0.29262 0.0
C94 C 0.01698 0.13228 0.3476 0.0
C95 C 0.03515 0.15182 0.37141 0.0
C96 C 0.06152 0.1405 0.38934 0.0
C97 C 0.06961 0.10937 0.3832 0.0
C98 C 0.05235 0.08974 0.35824 0.0
C99 C 0.02573 0.10146 0.34119 0.0
C100 C 0.06424 0.05856 0.34565 0.0
C101 C 0.09698 0.05309 0.3413 0.0
C102 C 0.0429 0.03528 0.33305 0.0
C103 C 0.05369 0.00892 0.31299 0.0
C104 C 0.08628 0.0046 0.30594 0.0
C105 C 0.08273 0.16174 0.4113 0.0
C106 C 0.09424 0.18812 0.39681 0.0
C107 C 0.09319 0.15492 0.44568 0.0
C108 C 0.11515 0.17397 0.46502 0.0
C109 C 0.12739 0.19979 0.44997 0.0
C110 C 0.11653 0.20686 0.41587 0.0
C111 C 0.10785 0.02628 0.32216 0.0
H112 H 0.98434 0.18957 0.25599 0.0
H113 H 0.02017 0.1802 0.30575 0.0
H114 H 0.95693 0.11011 0.3379 0.0
H115 H 0.92077 0.11977 0.28856 0.0
H116 H 0.02913 0.17589 0.37547 0.0
H117 H 0.01303 0.08726 0.32052 0.0
H118 H 0.09037 0.10092 0.39647 0.0
H119 H 0.11433 0.07027 0.35057 0.0
H120 H 0.01756 0.03812 0.33689 0.0
H121 H 0.03611 0.99297 0.30123 0.0
H122 H 0.08681 0.1937 0.37018 0.0
H123 H 0.08461 0.13471 0.45738 0.0
H124 H 0.1332 0.02333 0.3187 0.0
H125 H 0.12553 0.22674 0.40382 0.0
H126 H 0.12333 0.16799 0.49121 0.0
C127 C 0.34707 0.54551 0.77693 0.0
C128 C 0.36747 0.5225 0.76172 0.0
C129 C 0.35912 0.57075 0.79825 0.0
C130 C 0.39184 0.57331 0.80595 0.0
C131 C 0.41189 0.54924 0.79285 0.0
C132 C 0.4 0.52449 0.7706 0.0
C133 C 0.40525 0.60195 0.8249 0.0
C134 C 0.38727 0.61996 0.85041 0.0
C135 C 0.39755 0.64932 0.86383 0.0
C136 C 0.42786 0.65941 0.85425 0.0
C137 C 0.44695 0.64115 0.83 0.0
C138 C 0.43502 0.61288 0.81493 0.0
C139 C 0.47806 0.65225 0.81728 0.0
C140 C 0.48225 0.68287 0.80983 0.0
C141 C 0.50283 0.6314 0.80891 0.0
C142 C 0.52955 0.64005 0.79018 0.0
C143 C 0.53268 0.67008 0.78007 0.0
C144 C 0.37517 0.67035 0.88461 0.0
C145 C 0.34287 0.67029 0.87482 0.0
C146 C 0.38569 0.69135 0.913 0.0
C147 C 0.36438 0.7119 0.93094 0.0
C148 C 0.33208 0.71177 0.92096 0.0
C149 C 0.32162 0.69046 0.89293 0.0
C150 C 0.50941 0.69174 0.79181 0.0
H151 H 0.32177 0.54454 0.77172 0.0
H152 H 0.34276 0.58878 0.80738 0.0
H153 H 0.43707 0.54984 0.79888 0.0
H154 H 0.41676 0.50762 0.75931 0.0
H155 H 0.36464 0.61153 0.85913 0.0
H156 H 0.44835 0.60012 0.79376 0.0
H157 H 0.4361 0.68189 0.8646 0.0
H158 H 0.4638 0.69968 0.81596 0.0
H159 H 0.50086 0.60782 0.81518 0.0
H160 H 0.54663 0.62248 0.78171 0.0
H161 H 0.3339 0.65498 0.8526 0.0
H162 H 0.41036 0.69193 0.92139 0.0
H163 H 0.51137 0.71532 0.78562 0.0
H164 H 0.29687 0.68921 0.88492 0.0
H165 H 0.37331 0.72815 0.95226 0.0
C166 C 0.89064 0.79816 0.10757 0.0
C167 C 0.91312 0.79455 0.135 0.0
C168 C 0.85904 0.8047 0.11626 0.0
C169 C 0.84923 0.8073 0.15248 0.0
C170 C 0.8709 0.80071 0.17962 0.0
C171 C 0.90269 0.79444 0.17095 0.0
C172 C 0.81825 0.82143 0.16232 0.0
C173 C 0.79731 0.80798 0.18544 0.0
C174 C 0.76934 0.82318 0.19726 0.0
C175 C 0.76256 0.85233 0.18599 0.0
C176 C 0.7836 0.86604 0.16288 0.0
C177 C 0.81104 0.85019 0.15083 0.0
C178 C 0.77865 0.89752 0.15237 0.0
C179 C 0.75056 0.90582 0.1352 0.0
C180 C 0.80374 0.91864 0.15645 0.0
C181 C 0.80157 0.94684 0.14207 0.0
C182 C 0.77416 0.9548 0.12327 0.0
C183 C 0.74894 0.80909 0.22358 0.0
C184 C 0.73815 0.77893 0.21612 0.0
C185 C 0.74357 0.82422 0.25791 0.0
C186 C 0.72949 0.80871 0.28512 0.0
C187 C 0.72014 0.77788 0.27832 0.0
C188 C 0.72362 0.76358 0.24307 0.0
C189 C 0.74839 0.9342 0.12057 0.0
H190 H 0.89789 0.79777 0.07954 0.0
H191 H 0.84263 0.80938 0.09487 0.0
H192 H 0.86386 0.80274 0.20779 0.0
H193 H 0.91949 0.79186 0.19266 0.0
H194 H 0.80319 0.78601 0.19499 0.0
H195 H 0.82753 0.86083 0.13333 0.0
H196 H 0.74149 0.86451 0.19583 0.0
H197 H 0.73092 0.88987 0.13165 0.0
H198 H 0.8256 0.91287 0.16978 0.0
H199 H 0.8221 0.96178 0.14426 0.0
H200 H 0.7419 0.7669 0.18969 0.0
H201 H 0.75203 0.8474 0.26436 0.0
H202 H 0.72685 0.93974 0.10652 0.0
H203 H 0.716 0.74016 0.23653 0.0
H204 H 0.72757 0.82044 0.31195 0.0
C205 C 0.593 0.31637 0.64573 0.0
C206 C 0.58665 0.3192 0.60891 0.0
C207 C 0.62382 0.32059 0.65947 0.0
C208 C 0.64877 0.32793 0.63671 0.0
C209 C 0.64285 0.32883 0.59958 0.0
C210 C 0.61216 0.32427 0.58577 0.0
C211 C 0.67986 0.33804 0.65228 0.0
C212 C 0.69559 0.32114 0.67721 0.0
C213 C 0.72359 0.33233 0.69457 0.0
C214 C 0.73526 0.36129 0.68732 0.0
C215 C 0.71971 0.37832 0.66218 0.0
C216 C 0.69238 0.36629 0.64445 0.0
C217 C 0.7294 0.41002 0.6566 0.0
C218 C 0.73046 0.43242 0.68606 0.0
C219 C 0.73217 0.41906 0.62135 0.0
C220 C 0.73345 0.45005 0.61547 0.0
C221 C 0.73158 0.4726 0.64475 0.0
C222 C 0.73948 0.31407 0.72131 0.0
C223 C 0.75066 0.32806 0.75453 0.0
C224 C 0.74188 0.28211 0.71459 0.0
C225 C 0.75383 0.26441 0.74102 0.0
C226 C 0.76386 0.27827 0.77472 0.0
C227 C 0.76278 0.31032 0.78095 0.0
C228 C 0.73135 0.46348 0.68017 0.0
H229 H 0.57391 0.31273 0.66437 0.0
H230 H 0.62775 0.31998 0.68828 0.0
H231 H 0.66179 0.33408 0.58143 0.0
H232 H 0.60823 0.32587 0.55712 0.0
H233 H 0.68553 0.29953 0.68366 0.0
H234 H 0.67961 0.37991 0.62614 0.0
H235 H 0.75639 0.37056 0.701 0.0
H236 H 0.72814 0.42603 0.71349 0.0
H237 H 0.7314 0.40217 0.59821 0.0
H238 H 0.73338 0.45634 0.58788 0.0
H239 H 0.74887 0.35259 0.7607 0.0
H240 H 0.7341 0.27068 0.689 0.0
H241 H 0.73007 0.4804 0.70322 0.0
H242 H 0.77011 0.32161 0.8068 0.0
H243 H 0.75491 0.2398 0.73521 0.0
C244 C 0.63307 0.4672 0.29526 0.0
C245 C 0.62511 0.47293 0.33196 0.0
C246 C 0.62478 0.43933 0.27614 0.0
C247 C 0.60873 0.41659 0.29356 0.0
C248 C 0.60151 0.42231 0.33053 0.0
C249 C 0.60941 0.45017 0.34939 0.0
C250 C 0.59991 0.38674 0.27382 0.0
C251 C 0.62064 0.37175 0.24851 0.0
C252 C 0.61362 0.34224 0.2324 0.0
C253 C 0.58563 0.32752 0.24221 0.0
C254 C 0.5645 0.34253 0.26683 0.0
C255 C 0.57144 0.37215 0.28198 0.0
C256 C 0.53634 0.32683 0.27976 0.0
C257 C 0.50581 0.33669 0.27123 0.0
C258 C 0.54006 0.30557 0.3055 0.0
C259 C 0.51379 0.29604 0.32452 0.0
C260 C 0.48323 0.3074 0.31785 0.0
C261 C 0.63623 0.32656 0.20641 0.0
C262 C 0.6504 0.34257 0.17947 0.0
C263 C 0.64449 0.29581 0.20894 0.0
C264 C 0.66683 0.28151 0.18539 0.0
C265 C 0.68131 0.29762 0.1587 0.0
C266 C 0.67265 0.32826 0.15585 0.0
C267 C 0.47942 0.32671 0.28972 0.0
H268 H 0.64511 0.48448 0.28123 0.0
H269 H 0.63055 0.4358 0.24766 0.0
H270 H 0.59007 0.40508 0.34519 0.0
H271 H 0.60354 0.45379 0.37786 0.0
H272 H 0.643 0.38242 0.24252 0.0
H273 H 0.5549 0.38344 0.30109 0.0
H274 H 0.58016 0.30455 0.23064 0.0
H275 H 0.50256 0.35318 0.25145 0.0
H276 H 0.56356 0.29804 0.31273 0.0
H277 H 0.5179 0.28148 0.34616 0.0
H278 H 0.64418 0.36618 0.17657 0.0
H279 H 0.63429 0.28301 0.22974 0.0
H280 H 0.45622 0.33535 0.28315 0.0
H281 H 0.68294 0.34116 0.1352 0.0
H282 H 0.67331 0.25803 0.18867 0.0
C283 C 0.11313 0.18811 0.9057 0.0
C284 C 0.10335 0.19254 0.94196 0.0
C285 C 0.14468 0.18101 0.89716 0.0
C286 C 0.16731 0.17828 0.92468 0.0
C287 C 0.15786 0.18416 0.96096 0.0
C288 C 0.12621 0.19126 0.96951 0.0
C289 C 0.19987 0.16704 0.91537 0.0
C290 C 0.21539 0.17617 0.8847 0.0
C291 C 0.24406 0.16246 0.87263 0.0
C292 C 0.258 0.14018 0.89259 0.0
C293 C 0.24307 0.13105 0.92375 0.0
C294 C 0.21411 0.14471 0.93495 0.0
C295 C 0.25521 0.10474 0.94231 0.0
C296 C 0.26454 0.07767 0.92204 0.0
C297 C 0.25372 0.10509 0.9802 0.0
C298 C 0.25873 0.07831 0.99718 0.0
C299 C 0.26533 0.05062 0.97658 0.0
C300 C 0.25801 0.17027 0.8379 0.0
C301 C 0.23802 0.1737 0.80811 0.0
C302 C 0.29083 0.17534 0.83439 0.0
C303 C 0.30304 0.18538 0.80236 0.0
C304 C 0.28255 0.19054 0.77357 0.0
C305 C 0.25013 0.18384 0.7764 0.0
C306 C 0.26958 0.05089 0.93902 0.0
H307 H 0.09616 0.1893 0.88384 0.0
H308 H 0.15097 0.17634 0.86893 0.0
H309 H 0.17477 0.18258 0.98279 0.0
H310 H 0.11941 0.19437 0.99773 0.0
H311 H 0.20479 0.19373 0.86975 0.0
H312 H 0.20155 0.13644 0.95761 0.0
H313 H 0.27984 0.12918 0.88317 0.0
H314 H 0.26581 0.07657 0.89279 0.0
H315 H 0.24704 0.12574 0.99657 0.0
H316 H 0.25514 0.07889 0.02613 0.0
H317 H 0.21279 0.16911 0.80953 0.0
H318 H 0.30681 0.1728 0.85688 0.0
H319 H 0.27507 0.02998 0.9225 0.0
H320 H 0.23395 0.18733 0.75434 0.0
H321 H 0.32812 0.19058 0.80077 0.0
C322 C 0.38533 0.69469 0.44401 0.0
C323 C 0.40485 0.66861 0.44107 0.0
C324 C 0.3533 0.69242 0.43368 0.0
C325 C 0.34043 0.66405 0.42036 0.0
C326 C 0.36053 0.63854 0.41525 0.0
C327 C 0.39236 0.6408 0.42544 0.0
C328 C 0.30579 0.66007 0.41459 0.0
C329 C 0.28828 0.6797 0.39426 0.0
C330 C 0.25552 0.67475 0.38783 0.0
C331 C 0.24046 0.64989 0.40245 0.0
C332 C 0.25791 0.63043 0.42295 0.0
C333 C 0.2903 0.6357 0.42904 0.0
C334 C 0.24373 0.6033 0.43712 0.0
C335 C 0.23656 0.60406 0.47404 0.0
C336 C 0.2456 0.57507 0.41639 0.0
C337 C 0.24357 0.54781 0.43312 0.0
C338 C 0.23982 0.54853 0.47086 0.0
C339 C 0.23777 0.69456 0.36419 0.0
C340 C 0.24471 0.72596 0.36488 0.0
C341 C 0.21513 0.68192 0.33919 0.0
C342 C 0.20082 0.69995 0.31451 0.0
C343 C 0.2091 0.73097 0.31389 0.0
C344 C 0.23073 0.74388 0.33991 0.0
C345 C 0.23434 0.57684 0.49076 0.0
H346 H 0.39435 0.71639 0.45603 0.0
H347 H 0.33825 0.71242 0.43786 0.0
H348 H 0.35135 0.61654 0.40432 0.0
H349 H 0.40704 0.62048 0.4221 0.0
H350 H 0.30056 0.69798 0.38223 0.0
H351 H 0.30359 0.62045 0.44498 0.0
H352 H 0.21535 0.64559 0.39796 0.0
H353 H 0.23542 0.6257 0.49049 0.0
H354 H 0.25166 0.57412 0.38795 0.0
H355 H 0.2481 0.52645 0.41704 0.0
H356 H 0.26154 0.73663 0.38425 0.0
H357 H 0.20929 0.6578 0.33765 0.0
H358 H 0.23092 0.57808 0.51979 0.0
H359 H 0.23794 0.7676 0.34016 0.0
H360 H 0.18378 0.68935 0.29536 0.0
C361 C 0.05539 0.84182 0.78336 0.0
C362 C 0.04641 0.82227 0.80967 0.0
C363 C 0.03353 0.85 0.75751 0.0
C364 C 0.00249 0.83832 0.75699 0.0
C365 C 0.9944 0.81645 0.78082 0.0
C366 C 0.01614 0.80857 0.80705 0.0
C367 C 0.97726 0.85319 0.73698 0.0
C368 C 0.95615 0.8361 0.7138 0.0
C369 C 0.93 0.85039 0.69848 0.0
C370 C 0.92533 0.882 0.70698 0.0
C371 C 0.94543 0.89896 0.73141 0.0
C372 C 0.97185 0.88452 0.74542 0.0
C373 C 0.93639 0.93011 0.74689 0.0
C374 C 0.90499 0.93594 0.75831 0.0
C375 C 0.95963 0.9527 0.75509 0.0
C376 C 0.95215 0.97949 0.77657 0.0
C377 C 0.92129 0.98421 0.79031 0.0
C378 C 0.90601 0.83212 0.67622 0.0
C379 C 0.91498 0.80723 0.65186 0.0
C380 C 0.87357 0.83931 0.67975 0.0
C381 C 0.85079 0.82241 0.65931 0.0
C382 C 0.85958 0.79728 0.6353 0.0
C383 C 0.89201 0.78995 0.63169 0.0
C384 C 0.89753 0.9627 0.77978 0.0
H385 H 0.07877 0.85218 0.78399 0.0
H386 H 0.04028 0.86683 0.73925 0.0
H387 H 0.97047 0.80739 0.78115 0.0
H388 H 0.00828 0.79359 0.82694 0.0
H389 H 0.9595 0.81161 0.70887 0.0
H390 H 0.98691 0.89708 0.76535 0.0
H391 H 0.90538 0.89341 0.69548 0.0
H392 H 0.88659 0.91887 0.75288 0.0
H393 H 0.98392 0.94905 0.74623 0.0
H394 H 0.97084 0.99594 0.78367 0.0
H395 H 0.93976 0.80116 0.64823 0.0
H396 H 0.86554 0.85783 0.69873 0.0
H397 H 0.8736 0.96547 0.79016 0.0
H398 H 0.89965 0.77061 0.61367 0.0
H399 H 0.82616 0.82921 0.66237 0.0
H400 H 0.10506 0.89519 0.18477 0.0
H401 H 0.18422 0.95145 0.1586 0.0
H402 H 0.17189 0.98818 0.21017 0.0
H403 H 0.1365 0.00575 0.25951 0.0
H404 H 0.0607 0.94686 0.29038 0.0
H405 H 0.07371 0.9098 0.23981 0.0
C406 C 0.11961 0.91546 0.19064 0.0
C407 C 0.1452 0.92099 0.16793 0.0
C408 C 0.11291 0.936 0.22087 0.0
C409 C 0.16436 0.94691 0.17585 0.0
C410 C 0.15728 0.96788 0.20522 0.0
C411 C 0.12326 0.9845 0.25616 0.0
C412 C 0.09723 0.97963 0.27879 0.0
C413 C 0.13139 0.96281 0.22766 0.0
C414 C 0.08026 0.95191 0.273 0.0
C415 C 0.08779 0.9305 0.24415 0.0
H416 H 0.63679 0.66433 0.65872 0.0
H417 H 0.57318 0.72937 0.61592 0.0
H418 H 0.54187 0.73168 0.67127 0.0
H419 H 0.52825 0.70935 0.72704 0.0
H420 H 0.59355 0.64702 0.7726 0.0
H421 H 0.62844 0.64951 0.72067 0.0
C422 C 0.61642 0.67944 0.6619 0.0
C423 C 0.607 0.69627 0.63314 0.0
C424 C 0.59855 0.68078 0.6939 0.0
C425 C 0.58088 0.71612 0.63767 0.0
C426 C 0.56283 0.71732 0.66922 0.0
C427 C 0.55057 0.69707 0.72659 0.0
C428 C 0.55758 0.6773 0.7535 0.0
C429 C 0.57084 0.69895 0.69695 0.0
C430 C 0.58676 0.66155 0.75175 0.0
C431 C 0.60691 0.66308 0.72211 0.0
H432 H 0.78626 0.05676 0.01426 0.0
H433 H 0.83648 0.10153 0.10583 0.0
H434 H 0.82067 0.06108 0.14309 0.0
H435 H 0.79752 0.01061 0.14804 0.0
H436 H 0.75109 0.96316 0.05553 0.0
H437 H 0.75946 0.00729 0.02078 0.0
C438 C 0.79321 0.05787 0.04254 0.0
C439 C 0.81274 0.08193 0.05719 0.0
C440 C 0.78476 0.03398 0.06367 0.0
C441 C 0.82174 0.08304 0.09382 0.0
C442 C 0.8127 0.05993 0.11517 0.0
C443 C 0.78907 0.00994 0.12032 0.0
C444 C 0.77409 0.98339 0.10435 0.0
C445 C 0.79504 0.03486 0.10009 0.0
C446 C 0.76256 0.9833 0.06866 0.0
C447 C 0.76765 0.00844 0.0486 0.0
H448 H 0.45255 0.34847 0.54542 0.0
H449 H 0.42373 0.27543 0.60891 0.0
H450 H 0.47914 0.26823 0.62702 0.0
H451 H 0.53572 0.2839 0.62572 0.0
H452 H 0.56252 0.35801 0.56264 0.0
H453 H 0.50789 0.3631 0.54298 0.0
C454 C 0.45821 0.33091 0.56325 0.0
C455 C 0.43394 0.31264 0.57597 0.0
C456 C 0.48985 0.32694 0.57341 0.0
C457 C 0.44194 0.28984 0.59876 0.0
C458 C 0.47361 0.28575 0.60913 0.0
C459 C 0.52956 0.30113 0.60767 0.0
C460 C 0.55338 0.32036 0.59549 0.0
C461 C 0.49776 0.30434 0.59678 0.0
C462 C 0.54497 0.34242 0.57186 0.0
C463 C 0.51361 0.34561 0.56086 0.0
H464 H 0.68043 0.58879 0.42435 0.0
H465 H 0.58276 0.59393 0.45983 0.0
H466 H 0.56914 0.55051 0.41743 0.0
H467 H 0.58521 0.50895 0.37319 0.0
H468 H 0.68221 0.50294 0.33671 0.0
H469 H 0.69573 0.54904 0.37611 0.0
C470 C 0.65614 0.58056 0.42261 0.0
C471 C 0.63283 0.59444 0.44573 0.0
C472 C 0.6483 0.55537 0.39802 0.0
C473 C 0.60136 0.5836 0.44276 0.0
C474 C 0.59345 0.55871 0.41847 0.0
C475 C 0.60928 0.51786 0.37379 0.0
C476 C 0.63278 0.50251 0.35252 0.0
C477 C 0.6168 0.5441 0.3965 0.0
C478 C 0.66374 0.51449 0.35291 0.0
C479 C 0.67148 0.5407 0.37556 0.0
H480 H 0.96479 0.21174 0.00557 0.0
H481 H 0.94585 0.13859 0.92267 0.0
H482 H 0.00055 0.14073 0.90173 0.0
H483 H 0.05462 0.15998 0.91024 0.0
H484 H 0.07518 0.2316 0.99435 0.0
H485 H 0.0191 0.23329 0.0118 0.0
C486 C 0.97257 0.1967 0.98253 0.0
C487 C 0.95137 0.17501 0.96571 0.0
C488 C 0.00441 0.19746 0.9712 0.0
C489 C 0.9618 0.15538 0.93616 0.0
C490 C 0.99308 0.15653 0.92421 0.0
C491 C 0.04678 0.17643 0.93191 0.0
C492 C 0.06905 0.19568 0.95089 0.0
C493 C 0.01473 0.17699 0.94201 0.0
C494 C 0.05854 0.21636 0.97947 0.0
C495 C 0.02647 0.2174 0.98938 0.0
H496 H 0.3063 0.44705 0.55309 0.0
H497 H 0.25134 0.38765 0.47802 0.0
H498 H 0.22574 0.43237 0.45479 0.0
H499 H 0.22223 0.48873 0.45338 0.0
H500 H 0.27732 0.54686 0.53021 0.0
H501 H 0.29895 0.50225 0.55587 0.0
C502 C 0.28866 0.44393 0.53165 0.0
C503 C 0.28108 0.41435 0.51664 0.0
C504 C 0.27388 0.4695 0.51905 0.0
C505 C 0.25763 0.41038 0.48964 0.0
C506 C 0.24308 0.43589 0.47642 0.0
C507 C 0.23864 0.49155 0.47603 0.0
C508 C 0.24806 0.52115 0.48981 0.0
C509 C 0.25143 0.46562 0.49055 0.0
C510 C 0.26918 0.52446 0.51939 0.0
C511 C 0.28193 0.49893 0.53386 0.0
H512 H 0.10929 0.79729 0.95904 0.0
H513 H 0.13229 0.89318 0.95753 0.0
H514 H 0.11051 0.89305 0.89669 0.0
H515 H 0.08031 0.86745 0.84674 0.0
H516 H 0.05689 0.77166 0.84708 0.0
H517 H 0.08333 0.77017 0.90576 0.0
C518 C 0.10987 0.81808 0.94527 0.0
C519 C 0.1221 0.84528 0.96316 0.0
C520 C 0.09697 0.81799 0.91023 0.0
C521 C 0.12284 0.87194 0.94469 0.0
C522 C 0.11033 0.87194 0.90983 0.0
C523 C 0.08169 0.84595 0.859 0.0
C524 C 0.0665 0.81972 0.84241 0.0
C525 C 0.09672 0.8453 0.89271 0.0
C526 C 0.06802 0.79231 0.85938 0.0
C527 C 0.08319 0.79142 0.89292 0.0
H528 H 0.90846 0.074 0.93139 0.0
H529 H 0.81881 0.09351 0.8817 0.0
H530 H 0.83242 0.05888 0.82854 0.0
H531 H 0.86909 0.02135 0.7975 0.0
H532 H 0.95859 0.00255 0.84821 0.0
H533 H 0.94598 0.03915 0.89929 0.0
C534 C 0.89181 0.0706 0.90899 0.0
C535 C 0.86245 0.08584 0.91071 0.0
C536 C 0.8999 0.05102 0.87855 0.0
C537 C 0.84147 0.08182 0.88111 0.0
C538 C 0.84925 0.06205 0.85074 0.0
C539 C 0.88586 0.02541 0.81967 0.0
C540 C 0.91475 0.00922 0.81895 0.0
C541 C 0.87829 0.04628 0.84934 0.0
C542 C 0.93641 0.015 0.84771 0.0
C543 C 0.92909 0.03569 0.87717 0.0
H544 H 0.39554 0.27743 0.44748 0.0
H545 H 0.36347 0.36927 0.43407 0.0
H546 H 0.39521 0.3702 0.37956 0.0
H547 H 0.43743 0.34813 0.34112 0.0
H548 H 0.4694 0.25599 0.35271 0.0
H549 H 0.43242 0.25222 0.40272 0.0
C550 C 0.395 0.29742 0.43227 0.0
C551 C 0.3776 0.32346 0.44539 0.0
C552 C 0.41369 0.29802 0.40096 0.0
C553 C 0.37699 0.34905 0.42504 0.0
C554 C 0.39522 0.34967 0.39382 0.0
C555 C 0.43576 0.32676 0.35361 0.0
C556 C 0.45667 0.30255 0.34327 0.0
C557 C 0.41447 0.32472 0.38227 0.0
C558 C 0.4542 0.27532 0.36053 0.0
C559 C 0.43294 0.27308 0.38909 0.0
H560 H 0.24342 0.94391 0.07707 0.0
H561 H 0.18636 0.91063 0.98527 0.0
H562 H 0.20635 0.9514 0.95062 0.0
H563 H 0.23426 -0.00013 0.9494 0.0
H564 H 0.28912 0.03588 0.042 0.0
H565 H 0.276 0.99072 0.07348 0.0
C566 C 0.23614 0.94532 0.04918 0.0
C567 C 0.21372 0.92448 0.03341 0.0
C568 C 0.24699 0.96947 0.02986 0.0
C569 C 0.20375 0.92655 0.99762 0.0
C570 C 0.21506 0.94986 0.97794 0.0
C571 C 0.24419 0.99747 0.97603 0.0
C572 C 0.26264 0.0212 0.99332 0.0
C573 C 0.23592 0.97195 0.99416 0.0
C574 C 0.27466 0.018 0.02821 0.0
C575 C 0.26715 0.99221 0.04621 0.0
H576 H 0.53531 0.64971 0.51881 0.0
H577 H 0.55933 0.73238 0.4699 0.0
H578 H 0.50573 0.73392 0.44405 0.0
H579 H 0.45206 0.71091 0.43468 0.0
H580 H 0.42989 0.62798 0.48401 0.0
H581 H 0.48288 0.62744 0.51028 0.0
C582 C 0.52892 0.66825 0.50267 0.0
C583 C 0.55132 0.69097 0.49648 0.0
C584 C 0.49839 0.66884 0.48779 0.0
C585 C 0.54254 0.71461 0.47519 0.0
C586 C 0.5119 0.71549 0.46038 0.0
C587 C 0.45889 0.69286 0.45132 0.0
C588 C 0.4372 0.66933 0.45705 0.0
C589 C 0.48962 0.69263 0.46642 0.0
C590 C 0.44633 0.64602 0.47861 0.0
C591 C 0.47656 0.64577 0.49383 0.0
H592 H 0.30905 0.43664 0.63202 0.0
H593 H 0.38487 0.3781 0.66246 0.0
H594 H 0.39784 0.41434 0.71449 0.0
H595 H 0.38919 0.46357 0.74921 0.0
H596 H 0.31849 0.52553 0.71278 0.0
H597 H 0.3012 0.48665 0.66623 0.0
C598 C 0.32812 0.43177 0.65041 0.0
C599 C 0.3459 0.40485 0.64386 0.0
C600 C 0.33625 0.45326 0.67926 0.0
C601 C 0.37095 0.39882 0.66723 0.0
C602 C 0.37833 0.41948 0.69687 0.0
C603 C 0.37024 0.4689 0.73095 0.0
C604 C 0.35536 0.49775 0.73491 0.0
C605 C 0.36148 0.44703 0.70278 0.0
C606 C 0.33015 0.50349 0.7113 0.0
C607 C 0.32041 0.48134 0.68419 0.0
H608 H 0.0631 0.79284 0.12006 0.0
H609 H 0.04041 0.868 0.05655 0.0
H610 H 0.98425 0.86028 0.06632 0.0
H611 H 0.94154 0.83385 0.09396 0.0
H612 H 0.96192 0.7595 0.15902 0.0
H613 H 0.01898 0.76535 0.14777 0.0
C614 C 0.04582 0.80741 0.10831 0.0
C615 C 0.0561 0.831 0.08769 0.0
C616 C 0.01315 0.80306 0.11429 0.0
C617 C 0.03336 0.84979 0.07277 0.0
C618 C 0.00112 0.84538 0.07822 0.0
C619 C 0.95836 0.81846 0.10512 0.0
C620 C 0.94751 0.79595 0.12677 0.0
C621 C 0.99079 0.82224 0.09898 0.0
C622 C 0.96974 0.77691 0.14207 0.0
C623 C 0.00231 0.78028 0.13566 0.0
H624 H 0.66746 0.59636 0.61304 0.0
H625 H 0.74373 0.59676 0.53594 0.0
H626 H 0.76681 0.5513 0.55979 0.0
H627 H 0.76137 0.50799 0.5979 0.0
H628 H 0.68517 0.50885 0.67543 0.0
H629 H 0.66637 0.55754 0.65666 0.0
C630 C 0.68945 0.58675 0.60193 0.0
C631 C 0.70371 0.59953 0.57258 0.0
C632 C 0.7025 0.56079 0.61578 0.0
C633 C 0.73238 0.58725 0.55861 0.0
C634 C 0.74543 0.56117 0.57208 0.0
C635 C 0.74101 0.51918 0.61106 0.0
C636 C 0.72459 0.50474 0.63787 0.0
C637 C 0.73014 0.54721 0.59994 0.0
C638 C 0.6984 0.51958 0.65497 0.0
C639 C 0.68743 0.54731 0.64401 0.0
H640 H 0.89766 0.12764 0.10978 0.0
H641 H 0.89411 0.22609 0.11506 0.0
H642 H 0.91174 0.22925 0.17851 0.0
H643 H 0.93116 0.20347 0.23129 0.0
H644 H 0.93293 0.10472 0.22461 0.0
H645 H 0.91233 0.10222 0.16314 0.0
C646 C 0.90075 0.1498 0.12486 0.0
C647 C 0.89526 0.17659 0.10781 0.0
C648 C 0.91031 0.15134 0.16112 0.0
C649 C 0.89849 0.20517 0.12774 0.0
C650 C 0.90857 0.20695 0.1639 0.0
C651 C 0.92671 0.18148 0.21642 0.0
C652 C 0.93351 0.15435 0.23258 0.0
C653 C 0.91499 0.18013 0.18073 0.0
C654 C 0.92744 0.12596 0.2131 0.0
C655 C 0.91597 0.12446 0.17776 0.0
H656 H 0.17291 0.82754 0.20414 0.0
H657 H 0.17792 0.74675 0.12901 0.0
H658 H 0.18785 0.7153 0.17894 0.0
H659 H 0.19949 0.71145 0.24297 0.0
H660 H 0.19232 0.79169 0.31878 0.0
H661 H 0.17922 0.82271 0.26932 0.0
C662 C 0.17598 0.80301 0.19875 0.0
C663 C 0.17507 0.78956 0.16291 0.0
C664 C 0.18159 0.78503 0.22758 0.0
C665 C 0.17858 0.7577 0.15635 0.0
C666 C 0.18438 0.7397 0.18487 0.0
C667 C 0.19431 0.73556 0.24896 0.0
C668 C 0.19724 0.74918 0.28463 0.0
C669 C 0.18647 0.75321 0.22049 0.0
C670 C 0.19092 0.78065 0.29154 0.0
C671 C 0.18326 0.79841 0.26329 0.0
H672 H 0.76479 0.72394 0.52633 0.0
H673 H 0.70335 0.73878 0.61916 0.0
H674 H 0.74653 0.76371 0.65432 0.0
H675 H 0.80111 0.78191 0.65869 0.0
H676 H 0.86208 0.77111 0.56512 0.0
H677 H 0.82002 0.74314 0.53068 0.0
C678 C 0.76094 0.73257 0.55428 0.0
C679 C 0.73086 0.72965 0.57004 0.0
C680 C 0.78581 0.7474 0.5743 0.0
C681 C 0.72617 0.74102 0.60625 0.0
C682 C 0.75088 0.75518 0.62645 0.0
C683 C 0.8052 0.77385 0.63061 0.0
C684 C 0.83472 0.77894 0.61453 0.0
C685 C 0.78067 0.75871 0.61068 0.0
C686 C 0.83974 0.76735 0.5784 0.0
C687 C 0.81559 0.75156 0.55855 0.0
H688 H 0.79745 0.25247 0.06073 0.0
H689 H 0.74193 0.16928 0.05168 0.0
H690 H 0.70091 0.19424 0.0899 0.0
H691 H 0.68078 0.23953 0.12609 0.0
H692 H 0.7369 0.32224 0.13662 0.0
H693 H 0.77739 0.29771 0.09714 0.0
C694 C 0.77635 0.23979 0.06699 0.0
C695 C 0.77284 0.20904 0.05323 0.0
C696 C 0.75285 0.25422 0.08916 0.0
C697 C 0.74534 0.19297 0.06183 0.0
C698 C 0.72181 0.20722 0.08371 0.0
C699 C 0.70199 0.25212 0.12001 0.0
C700 C 0.70574 0.28269 0.13432 0.0
C701 C 0.72537 0.23778 0.09763 0.0
C702 C 0.73316 0.29882 0.12561 0.0
C703 C 0.75645 0.28475 0.10321 0.0
H704 H 0.33939 0.24202 0.63298 0.0
H705 H 0.26793 0.31048 0.66138 0.0
H706 H 0.25286 0.28429 0.7136 0.0
H707 H 0.25916 0.24217 0.7512 0.0
H708 H 0.33119 0.17402 0.72652 0.0
H709 H 0.34715 0.1999 0.67315 0.0
C710 C 0.32053 0.25105 0.65064 0.0
C711 C 0.30483 0.27814 0.64322 0.0
C712 C 0.31214 0.23604 0.68132 0.0
C713 C 0.2806 0.28981 0.66652 0.0
C714 C 0.27184 0.27483 0.69641 0.0
C715 C 0.2783 0.23295 0.73402 0.0
C716 C 0.29375 0.20616 0.74226 0.0
C717 C 0.28736 0.24799 0.70402 0.0
C718 C 0.31895 0.19467 0.72043 0.0
C719 C 0.32795 0.20939 0.68996 0.0
H720 H 0.69684 0.68809 0.39967 0.0
H721 H 0.64909 0.76779 0.44993 0.0
H722 H 0.65891 0.79509 0.39647 0.0
H723 H 0.68313 0.79713 0.33655 0.0
H724 H 0.73384 0.71828 0.28846 0.0
H725 H 0.72001 0.68978 0.33948 0.0
C726 C 0.68835 0.71136 0.39888 0.0
C727 C 0.67244 0.7259 0.42892 0.0
C728 C 0.69449 0.72712 0.36831 0.0
C729 C 0.66164 0.75609 0.42734 0.0
C730 C 0.66722 0.77174 0.39674 0.0
C731 C 0.69127 0.77375 0.33723 0.0
C732 C 0.70948 0.76001 0.30846 0.0
C733 C 0.68404 0.75763 0.36727 0.0
C734 C 0.71929 0.72944 0.30971 0.0
C735 C 0.71169 0.71312 0.33914 0.0
H736 H 0.78338 0.18751 0.89572 0.0
H737 H 0.86403 0.24657 0.92085 0.0
H738 H 0.85055 0.27635 0.87037 0.0
H739 H 0.81492 0.28654 0.81997 0.0
H740 H 0.73455 0.22721 0.79505 0.0
H741 H 0.74903 0.19654 0.84435 0.0
C742 C 0.79807 0.20686 0.89017 0.0
C743 C 0.82452 0.21489 0.91228 0.0
C744 C 0.79025 0.22387 0.86107 0.0
C745 C 0.84347 0.23987 0.90437 0.0
C746 C 0.83575 0.25698 0.87552 0.0
C747 C 0.80059 0.26692 0.82543 0.0
C748 C 0.77371 0.25918 0.80391 0.0
C749 C 0.80903 0.24936 0.85389 0.0
C750 C 0.75556 0.23346 0.81097 0.0
C751 C 0.76371 0.21601 0.83928 0.0
H752 H 0.22216 0.27957 0.55121 0.0
H753 H 0.27961 0.26815 0.45484 0.0
H754 H 0.23694 0.23904 0.42292 0.0
H755 H 0.18372 0.21605 0.42275 0.0
H756 H 0.12732 0.22508 0.51984 0.0
H757 H 0.16924 0.25587 0.55131 0.0
C758 C 0.22525 0.27086 0.52315 0.0
C759 C 0.25392 0.27609 0.50534 0.0
C760 C 0.20089 0.25365 0.50521 0.0
C761 C 0.25777 0.26434 0.46915 0.0
C762 C 0.2334 0.24774 0.45088 0.0
C763 C 0.18059 0.225 0.45072 0.0
C764 C 0.15252 0.21859 0.46898 0.0
C765 C 0.20493 0.24217 0.46868 0.0
C766 C 0.14884 0.22975 0.50537 0.0
C767 C 0.17272 0.24737 0.52328 0.0
H768 H 0.21774 0.79544 0.97721 0.0
H769 H 0.26568 0.78884 0.07919 0.0
H770 H 0.30798 0.75857 0.04843 0.0
H771 H 0.32948 0.73151 0.99292 0.0
H772 H 0.28287 0.74121 0.89061 0.0
H773 H 0.24177 0.77253 0.92126 0.0
C774 C 0.23751 0.78742 0.99265 0.0
C775 C 0.23847 0.79399 0.03037 0.0
C776 C 0.26184 0.77042 0.9748 0.0
C777 C 0.26445 0.78398 0.05007 0.0
C778 C 0.28856 0.76662 0.03253 0.0
C779 C 0.31069 0.7409 0.97721 0.0
C780 C 0.30904 0.73344 0.93955 0.0
C781 C 0.28731 0.75941 0.99493 0.0
C782 C 0.28431 0.74578 0.91974 0.0
C783 C 0.26086 0.7639 0.93719 0.0
loop_
_geom_bond_atom_site_label_1
_geom_bond_atom_site_label_2
_geom_bond_distance
_geom_bond_site_symmetry_2
_ccdc_geom_bond_type
Fe0 O2 1.918 . S
Fe0 O5 1.997 . S
Fe0 O6 2.002 . S
Fe0 O11 1.976 . S
Fe0 O14 1.996 . S
Fe1 O2 1.918 . S
Fe1 O9 1.997 . S
Fe1 O12 1.996 . S
Fe1 O16 1.976 . S
Fe1 O19 2.002 . S
O2 Fe0 1.918 . S
O2 Fe1 1.918 . S
O2 Fe3 1.918 . S
Fe3 O2 1.918 . S
Fe3 O4 2.002 . S
Fe3 O13 1.976 . S
Fe3 O17 1.996 . S
Fe3 O20 1.997 . S
O4 Fe3 2.002 . S
O4 C21 1.295 . S
O5 Fe0 1.997 . S
O5 C21 1.235 . S
O6 Fe0 2.002 . S
O6 C7 1.295 . S
C7 O6 1.295 . S
C7 O9 1.235 . S
C8 O13 1.287 . S
C8 O14 1.255 . S
O9 Fe1 1.997 . S
O9 C7 1.235 . S
C10 O16 1.287 1_556 S
C10 O17 1.255 1_556 S
O11 Fe0 1.976 . S
O11 C18 1.287 . S
O12 Fe1 1.996 . S
O12 C18 1.255 . S
O13 Fe3 1.976 . S
O13 C8 1.287 . S
O14 Fe0 1.996 . S
O14 C8 1.255 . S
C15 O19 1.295 . S
C15 O20 1.235 . S
O16 Fe1 1.976 . S
O16 C10 1.287 1_554 S
O17 Fe3 1.996 . S
O17 C10 1.255 1_554 S
C18 O11 1.287 . S
C18 O12 1.255 . S
O19 Fe1 2.002 . S
O19 C15 1.295 . S
O20 Fe3 1.997 . S
O20 C15 1.235 . S
C21 O4 1.295 . S
C21 O5 1.235 . S
Fe22 O24 1.918 . S
Fe22 O27 1.997 . S
Fe22 O28 2.002 . S
Fe22 O33 1.976 . S
Fe22 O36 1.996 . S
Fe23 O24 1.918 . S
Fe23 O31 1.997 . S
Fe23 O34 1.996 . S
Fe23 O38 1.976 . S
Fe23 O41 2.002 . S
O24 Fe22 1.918 . S
O24 Fe23 1.918 . S
O24 Fe25 1.918 . S
Fe25 O24 1.918 . S
Fe25 O26 2.002 . S
Fe25 O35 1.976 . S
Fe25 O39 1.996 . S
Fe25 O42 1.997 . S
O26 Fe25 2.002 . S
O26 C43 1.295 . S
O27 Fe22 1.997 . S
O27 C43 1.235 . S
O28 Fe22 2.002 . S
O28 C29 1.295 . S
C29 O28 1.295 . S
C29 O31 1.235 . S
C30 O35 1.287 . S
C30 O36 1.255 . S
O31 Fe23 1.997 . S
O31 C29 1.235 . S
C32 O38 1.287 . S
C32 O39 1.255 . S
O33 Fe22 1.976 . S
O33 C40 1.287 . S
O34 Fe23 1.996 . S
O34 C40 1.255 . S
O35 Fe25 1.976 . S
O35 C30 1.287 . S
O36 Fe22 1.996 . S
O36 C30 1.255 . S
C37 O41 1.295 . S
C37 O42 1.235 . S
O38 Fe23 1.976 . S
O38 C32 1.287 . S
O39 Fe25 1.996 . S
O39 C32 1.255 . S
C40 O33 1.287 . S
C40 O34 1.255 . S
O41 Fe23 2.002 . S
O41 C37 1.295 . S
O42 Fe25 1.997 . S
O42 C37 1.235 . S
C43 O26 1.295 . S
C43 O27 1.235 . S
Fe44 O46 1.918 . S
Fe44 O49 1.997 1_554 S
Fe44 O50 2.002 . S
Fe44 O55 1.976 . S
Fe44 O58 1.996 . S
Fe45 O46 1.918 . S
Fe45 O53 1.997 . S
Fe45 O56 1.996 . S
Fe45 O60 1.976 . S
Fe45 O63 2.002 1_554 S
O46 Fe44 1.918 . S
O46 Fe45 1.918 . S
O46 Fe47 1.918 1_554 S
Fe47 O46 1.918 1_556 S
Fe47 O48 2.002 . S
Fe47 O57 1.976 1_556 S
Fe47 O61 1.996 1_556 S
Fe47 O64 1.997 . S
O48 Fe47 2.002 . S
O48 C65 1.295 . S
O49 Fe44 1.997 1_556 S
O49 C65 1.235 . S
O50 Fe44 2.002 . S
O50 C51 1.295 1_554 S
C51 O50 1.295 1_556 S
C51 O53 1.235 1_556 S
C52 O57 1.287 . S
C52 O58 1.255 . S
O53 Fe45 1.997 . S
O53 C51 1.235 1_554 S
C54 O60 1.287 . S
C54 O61 1.255 . S
O55 Fe44 1.976 . S
O55 C62 1.287 . S
O56 Fe45 1.996 . S
O56 C62 1.255 . S
O57 Fe47 1.976 1_554 S
O57 C52 1.287 . S
O58 Fe44 1.996 . S
O58 C52 1.255 . S
C59 O63 1.295 . S
C59 O64 1.235 . S
O60 Fe45 1.976 . S
O60 C54 1.287 . S
O61 Fe47 1.996 1_554 S
O61 C54 1.255 . S
C62 O55 1.287 . S
C62 O56 1.255 . S
O63 Fe45 2.002 1_556 S
O63 C59 1.295 . S
O64 Fe47 1.997 . S
O64 C59 1.235 . S
C65 O48 1.295 . S
C65 O49 1.235 . S
Fe66 O68 1.918 . S
Fe66 O71 1.997 . S
Fe66 O72 2.002 . S
Fe66 O77 1.976 . S
Fe66 O80 1.996 . S
Fe67 O68 1.918 . S
Fe67 O75 1.997 . S
Fe67 O78 1.996 . S
Fe67 O82 1.976 . S
Fe67 O85 2.002 . S
O68 Fe66 1.918 . S
O68 Fe67 1.918 . S
O68 Fe69 1.918 . S
Fe69 O68 1.918 . S
Fe69 O70 2.002 . S
Fe69 O79 1.976 . S
Fe69 O83 1.996 . S
Fe69 O86 1.997 . S
O70 Fe69 2.002 . S
O70 C87 1.295 . S
O71 Fe66 1.997 . S
O71 C87 1.235 . S
O72 Fe66 2.002 . S
O72 C73 1.295 . S
C73 O72 1.295 . S
C73 O75 1.235 . S
C74 O79 1.287 . S
C74 O80 1.255 . S
O75 Fe67 1.997 . S
O75 C73 1.235 . S
C76 O82 1.287 . S
C76 O83 1.255 . S
O77 Fe66 1.976 . S
O77 C84 1.287 . S
O78 Fe67 1.996 . S
O78 C84 1.255 . S
O79 Fe69 1.976 . S
O79 C74 1.287 . S
O80 Fe66 1.996 . S
O80 C74 1.255 . S
C81 O85 1.295 . S
C81 O86 1.235 . S
O82 Fe67 1.976 . S
O82 C76 1.287 . S
O83 Fe69 1.996 . S
O83 C76 1.255 . S
C84 O77 1.287 . S
C84 O78 1.255 . S
O85 Fe67 2.002 . S
O85 C81 1.295 . S
O86 Fe69 1.997 . S
O86 C81 1.235 . S
C87 O70 1.295 . S
C87 O71 1.235 . S
C88 C89 1.386 . S
C88 C90 1.397 1_655 S
C88 H112 0.931 . S
C89 C88 1.386 . S
C89 C93 1.397 . S
C90 C88 1.397 1_455 S
C90 C91 1.384 . S
C90 H113 0.930 . S
C91 C90 1.384 . S
C91 C92 1.377 1_455 S
C91 C94 1.481 . S
C92 C91 1.377 1_655 S
C92 C93 1.389 . S
C92 H114 0.929 . S
C93 C89 1.397 . S
C93 C92 1.389 . S
C93 H115 0.931 . S
C94 C91 1.481 . S
C94 C95 1.387 . S
C94 C99 1.390 . S
C95 C94 1.387 . S
C95 C96 1.401 . S
C95 H116 0.930 . S
C96 C95 1.401 . S
C96 C97 1.376 . S
C96 C105 1.511 . S
C97 C96 1.376 . S
C97 C98 1.392 . S
C97 H118 0.931 . S
C98 C97 1.392 . S
C98 C99 1.361 . S
C98 C100 1.500 . S
C99 C94 1.390 . S
C99 C98 1.361 . S
C99 H117 0.931 . S
C100 C98 1.500 . S
C100 C101 1.371 . S
C100 C102 1.365 . S
C101 C100 1.371 . S
C101 C111 1.386 . S
C101 H119 0.931 . S
C102 C100 1.365 . S
C102 C103 1.409 . S
C102 H120 0.929 . S
C103 C102 1.409 . S
C103 C104 1.380 . S
C103 H121 0.930 . S
C104 C103 1.380 . S
C104 C111 1.357 . S
C105 C96 1.511 . S
C105 C106 1.341 . S
C105 C107 1.371 . S
C106 C105 1.341 . S
C106 C110 1.394 . S
C106 H122 0.930 . S
C107 C105 1.371 . S
C107 C108 1.392 . S
C107 H123 0.931 . S
C108 C107 1.392 . S
C108 C109 1.331 . S
C108 H126 0.932 . S
C109 C108 1.331 . S
C109 C110 1.336 . S
C110 C106 1.394 . S
C110 C109 1.336 . S
C110 H125 0.929 . S
C111 C101 1.386 . S
C111 C104 1.357 . S
C111 H124 0.928 . S
H112 C88 0.931 . S
H113 C90 0.930 . S
H114 C92 0.929 . S
H115 C93 0.931 . S
H116 C95 0.930 . S
H117 C99 0.931 . S
H118 C97 0.931 . S
H119 C101 0.931 . S
H120 C102 0.929 . S
H121 C103 0.930 . S
H122 C106 0.930 . S
H123 C107 0.931 . S
H124 C111 0.928 . S
H125 C110 0.929 . S
H126 C108 0.932 . S
C127 C128 1.386 . S
C127 C129 1.397 . S
C127 H151 0.931 . S
C128 C127 1.386 . S
C128 C132 1.397 . S
C129 C127 1.397 . S
C129 C130 1.384 . S
C129 H152 0.930 . S
C130 C129 1.384 . S
C130 C131 1.377 . S
C130 C133 1.481 . S
C131 C130 1.377 . S
C131 C132 1.389 . S
C131 H153 0.929 . S
C132 C128 1.397 . S
C132 C131 1.389 . S
C132 H154 0.931 . S
C133 C130 1.481 . S
C133 C134 1.387 . S
C133 C138 1.390 . S
C134 C133 1.387 . S
C134 C135 1.401 . S
C134 H155 0.930 . S
C135 C134 1.401 . S
C135 C136 1.376 . S
C135 C144 1.511 . S
C136 C135 1.376 . S
C136 C137 1.392 . S
C136 H157 0.931 . S
C137 C136 1.392 . S
C137 C138 1.361 . S
C137 C139 1.500 . S
C138 C133 1.390 . S
C138 C137 1.361 . S
C138 H156 0.931 . S
C139 C137 1.500 . S
C139 C140 1.371 . S
C139 C141 1.365 . S
C140 C139 1.371 . S
C140 C150 1.386 . S
C140 H158 0.931 . S
C141 C139 1.365 . S
C141 C142 1.409 . S
C141 H159 0.929 . S
C142 C141 1.409 . S
C142 C143 1.380 . S
C142 H160 0.930 . S
C143 C142 1.380 . S
C143 C150 1.357 . S
C144 C135 1.511 . S
C144 C145 1.341 . S
C144 C146 1.371 . S
C145 C144 1.341 . S
C145 C149 1.394 . S
C145 H161 0.930 . S
C146 C144 1.371 . S
C146 C147 1.392 . S
C146 H162 0.931 . S
C147 C146 1.392 . S
C147 C148 1.331 . S
C147 H165 0.932 . S
C148 C147 1.331 . S
C148 C149 1.336 . S
C149 C145 1.394 . S
C149 C148 1.336 . S
C149 H164 0.929 . S
C150 C140 1.386 . S
C150 C143 1.357 . S
C150 H163 0.928 . S
H151 C127 0.931 . S
H152 C129 0.930 . S
H153 C131 0.929 . S
H154 C132 0.931 . S
H155 C134 0.930 . S
H156 C138 0.931 . S
H157 C136 0.931 . S
H158 C140 0.931 . S
H159 C141 0.929 . S
H160 C142 0.930 . S
H161 C145 0.930 . S
H162 C146 0.931 . S
H163 C150 0.928 . S
H164 C149 0.929 . S
H165 C147 0.932 . S
C166 C167 1.386 . S
C166 C168 1.397 . S
C166 H190 0.931 . S
C167 C166 1.386 . S
C167 C171 1.397 . S
C168 C166 1.397 . S
C168 C169 1.384 . S
C168 H191 0.930 . S
C169 C168 1.384 . S
C169 C170 1.377 . S
C169 C172 1.481 . S
C170 C169 1.377 . S
C170 C171 1.389 . S
C170 H192 0.929 . S
C171 C167 1.397 . S
C171 C170 1.389 . S
C171 H193 0.931 . S
C172 C169 1.481 . S
C172 C173 1.387 . S
C172 C177 1.390 . S
C173 C172 1.387 . S
C173 C174 1.401 . S
C173 H194 0.930 . S
C174 C173 1.401 . S
C174 C175 1.376 . S
C174 C183 1.511 . S
C175 C174 1.376 . S
C175 C176 1.392 . S
C175 H196 0.931 . S
C176 C175 1.392 . S
C176 C177 1.361 . S
C176 C178 1.500 . S
C177 C172 1.390 . S
C177 C176 1.361 . S
C177 H195 0.931 . S
C178 C176 1.500 . S
C178 C179 1.371 . S
C178 C180 1.365 . S
C179 C178 1.371 . S
C179 C189 1.386 . S
C179 H197 0.931 . S
C180 C178 1.365 . S
C180 C181 1.409 . S
C180 H198 0.929 . S
C181 C180 1.409 . S
C181 C182 1.380 . S
C181 H199 0.930 . S
C182 C181 1.380 . S
C182 C189 1.357 . S
C183 C174 1.511 . S
C183 C184 1.341 . S
C183 C185 1.371 . S
C184 C183 1.341 . S
C184 C188 1.394 . S
C184 H200 0.930 . S
C185 C183 1.371 . S
C185 C186 1.392 . S
C185 H201 0.931 . S
C186 C185 1.392 . S
C186 C187 1.331 . S
C186 H204 0.932 . S
C187 C186 1.331 . S
C187 C188 1.336 . S
C188 C184 1.394 . S
C188 C187 1.336 . S
C188 H203 0.929 . S
C189 C179 1.386 . S
C189 C182 1.357 . S
C189 H202 0.928 . S
H190 C166 0.931 . S
H191 C168 0.930 . S
H192 C170 0.929 . S
H193 C171 0.931 . S
H194 C173 0.930 . S
H195 C177 0.931 . S
H196 C175 0.931 . S
H197 C179 0.931 . S
H198 C180 0.929 . S
H199 C181 0.930 . S
H200 C184 0.930 . S
H201 C185 0.931 . S
H202 C189 0.928 . S
H203 C188 0.929 . S
H204 C186 0.932 . S
C205 C206 1.386 . S
C205 C207 1.397 . S
C205 H229 0.931 . S
C206 C205 1.386 . S
C206 C210 1.397 . S
C207 C205 1.397 . S
C207 C208 1.384 . S
C207 H230 0.930 . S
C208 C207 1.384 . S
C208 C209 1.377 . S
C208 C211 1.481 . S
C209 C208 1.377 . S
C209 C210 1.389 . S
C209 H231 0.929 . S
C210 C206 1.397 . S
C210 C209 1.389 . S
C210 H232 0.931 . S
C211 C208 1.481 . S
C211 C212 1.387 . S
C211 C216 1.390 . S
C212 C211 1.387 . S
C212 C213 1.401 . S
C212 H233 0.930 . S
C213 C212 1.401 . S
C213 C214 1.376 . S
C213 C222 1.511 . S
C214 C213 1.376 . S
C214 C215 1.392 . S
C214 H235 0.931 . S
C215 C214 1.392 . S
C215 C216 1.361 . S
C215 C217 1.500 . S
C216 C211 1.390 . S
C216 C215 1.361 . S
C216 H234 0.931 . S
C217 C215 1.500 . S
C217 C218 1.371 . S
C217 C219 1.365 . S
C218 C217 1.371 . S
C218 C228 1.386 . S
C218 H236 0.931 . S
C219 C217 1.365 . S
C219 C220 1.409 . S
C219 H237 0.929 . S
C220 C219 1.409 . S
C220 C221 1.380 . S
C220 H238 0.930 . S
C221 C220 1.380 . S
C221 C228 1.357 . S
C222 C213 1.511 . S
C222 C223 1.341 . S
C222 C224 1.371 . S
C223 C222 1.341 . S
C223 C227 1.394 . S
C223 H239 0.930 . S
C224 C222 1.371 . S
C224 C225 1.392 . S
C224 H240 0.931 . S
C225 C224 1.392 . S
C225 C226 1.331 . S
C225 H243 0.932 . S
C226 C225 1.331 . S
C226 C227 1.336 . S
C227 C223 1.394 . S
C227 C226 1.336 . S
C227 H242 0.929 . S
C228 C218 1.386 . S
C228 C221 1.357 . S
C228 H241 0.928 . S
H229 C205 0.931 . S
H230 C207 0.930 . S
H231 C209 0.929 . S
H232 C210 0.931 . S
H233 C212 0.930 . S
H234 C216 0.931 . S
H235 C214 0.931 . S
H236 C218 0.931 . S
H237 C219 0.929 . S
H238 C220 0.930 . S
H239 C223 0.930 . S
H240 C224 0.931 . S
H241 C228 0.928 . S
H242 C227 0.929 . S
H243 C225 0.932 . S
C244 C245 1.386 . S
C244 C246 1.397 . S
C244 H268 0.931 . S
C245 C244 1.386 . S
C245 C249 1.397 . S
C246 C244 1.397 . S
C246 C247 1.384 . S
C246 H269 0.930 . S
C247 C246 1.384 . S
C247 C248 1.377 . S
C247 C250 1.481 . S
C248 C247 1.377 . S
C248 C249 1.389 . S
C248 H270 0.929 . S
C249 C245 1.397 . S
C249 C248 1.389 . S
C249 H271 0.931 . S
C250 C247 1.481 . S
C250 C251 1.387 . S
C250 C255 1.390 . S
C251 C250 1.387 . S
C251 C252 1.401 . S
C251 H272 0.930 . S
C252 C251 1.401 . S
C252 C253 1.376 . S
C252 C261 1.511 . S
C253 C252 1.376 . S
C253 C254 1.392 . S
C253 H274 0.931 . S
C254 C253 1.392 . S
C254 C255 1.361 . S
C254 C256 1.500 . S
C255 C250 1.390 . S
C255 C254 1.361 . S
C255 H273 0.931 . S
C256 C254 1.500 . S
C256 C257 1.371 . S
C256 C258 1.365 . S
C257 C256 1.371 . S
C257 C267 1.386 . S
C257 H275 0.931 . S
C258 C256 1.365 . S
C258 C259 1.409 . S
C258 H276 0.929 . S
C259 C258 1.409 . S
C259 C260 1.380 . S
C259 H277 0.930 . S
C260 C259 1.380 . S
C260 C267 1.357 . S
C261 C252 1.511 . S
C261 C262 1.341 . S
C261 C263 1.371 . S
C262 C261 1.341 . S
C262 C266 1.394 . S
C262 H278 0.930 . S
C263 C261 1.371 . S
C263 C264 1.392 . S
C263 H279 0.931 . S
C264 C263 1.392 . S
C264 C265 1.331 . S
C264 H282 0.932 . S
C265 C264 1.331 . S
C265 C266 1.336 . S
C266 C262 1.394 . S
C266 C265 1.336 . S
C266 H281 0.929 . S
C267 C257 1.386 . S
C267 C260 1.357 . S
C267 H280 0.928 . S
H268 C244 0.931 . S
H269 C246 0.930 . S
H270 C248 0.929 . S
H271 C249 0.931 . S
H272 C251 0.930 . S
H273 C255 0.931 . S
H274 C253 0.931 . S
H275 C257 0.931 . S
H276 C258 0.929 . S
H277 C259 0.930 . S
H278 C262 0.930 . S
H279 C263 0.931 . S
H280 C267 0.928 . S
H281 C266 0.929 . S
H282 C264 0.932 . S
C283 C284 1.386 . S
C283 C285 1.397 . S
C283 H307 0.931 . S
C284 C283 1.386 . S
C284 C288 1.397 . S
C285 C283 1.397 . S
C285 C286 1.384 . S
C285 H308 0.930 . S
C286 C285 1.384 . S
C286 C287 1.377 . S
C286 C289 1.481 . S
C287 C286 1.377 . S
C287 C288 1.389 . S
C287 H309 0.929 . S
C288 C284 1.397 . S
C288 C287 1.389 . S
C288 H310 0.931 1_556 S
C289 C286 1.481 . S
C289 C290 1.387 . S
C289 C294 1.390 . S
C290 C289 1.387 . S
C290 C291 1.401 . S
C290 H311 0.930 . S
C291 C290 1.401 . S
C291 C292 1.376 . S
C291 C300 1.511 . S
C292 C291 1.376 . S
C292 C293 1.392 . S
C292 H313 0.931 . S
C293 C292 1.392 . S
C293 C294 1.361 . S
C293 C295 1.500 . S
C294 C289 1.390 . S
C294 C293 1.361 . S
C294 H312 0.931 . S
C295 C293 1.500 . S
C295 C296 1.371 . S
C295 C297 1.365 . S
C296 C295 1.371 . S
C296 C306 1.386 . S
C296 H314 0.931 . S
C297 C295 1.365 . S
C297 C298 1.411 . S
C297 H315 0.913 1_556 S
C298 C297 1.411 . S
C298 C299 1.382 . S
C298 H316 0.926 1_556 S
C299 C298 1.382 . S
C299 C306 1.357 . S
C300 C291 1.511 . S
C300 C301 1.341 . S
C300 C302 1.371 . S
C301 C300 1.341 . S
C301 C305 1.394 . S
C301 H317 0.930 . S
C302 C300 1.371 . S
C302 C303 1.392 . S
C302 H318 0.931 . S
C303 C302 1.392 . S
C303 C304 1.331 . S
C303 H321 0.932 . S
C304 C303 1.331 . S
C304 C305 1.336 . S
C305 C301 1.394 . S
C305 C304 1.336 . S
C305 H320 0.929 . S
C306 C296 1.386 . S
C306 C299 1.357 . S
C306 H319 0.928 . S
H307 C283 0.931 . S
H308 C285 0.930 . S
H309 C287 0.929 . S
H310 C288 0.931 1_554 S
H311 C290 0.930 . S
H312 C294 0.931 . S
H313 C292 0.931 . S
H314 C296 0.931 . S
H315 C297 0.913 1_554 S
H316 C298 0.926 1_554 S
H317 C301 0.930 . S
H318 C302 0.931 . S
H319 C306 0.928 . S
H320 C305 0.929 . S
H321 C303 0.932 . S
C322 C323 1.386 . S
C322 C324 1.397 . S
C322 H346 0.931 . S
C323 C322 1.386 . S
C323 C327 1.397 . S
C324 C322 1.397 . S
C324 C325 1.384 . S
C324 H347 0.930 . S
C325 C324 1.384 . S
C325 C326 1.377 . S
C325 C328 1.481 . S
C326 C325 1.377 . S
C326 C327 1.389 . S
C326 H348 0.929 . S
C327 C323 1.397 . S
C327 C326 1.389 . S
C327 H349 0.931 . S
C328 C325 1.481 . S
C328 C329 1.387 . S
C328 C333 1.390 . S
C329 C328 1.387 . S
C329 C330 1.401 . S
C329 H350 0.930 . S
C330 C329 1.401 . S
C330 C331 1.376 . S
C330 C339 1.511 . S
C331 C330 1.376 . S
C331 C332 1.392 . S
C331 H352 0.931 . S
C332 C331 1.392 . S
C332 C333 1.361 . S
C332 C334 1.500 . S
C333 C328 1.390 . S
C333 C332 1.361 . S
C333 H351 0.931 . S
C334 C332 1.500 . S
C334 C335 1.371 . S
C334 C336 1.365 . S
C335 C334 1.371 . S
C335 C345 1.386 . S
C335 H353 0.931 . S
C336 C334 1.365 . S
C336 C337 1.409 . S
C336 H354 0.929 . S
C337 C336 1.409 . S
C337 C338 1.380 . S
C337 H355 0.930 . S
C338 C337 1.380 . S
C338 C345 1.357 . S
C339 C330 1.511 . S
C339 C340 1.341 . S
C339 C341 1.371 . S
C340 C339 1.341 . S
C340 C344 1.394 . S
C340 H356 0.930 . S
C341 C339 1.371 . S
C341 C342 1.392 . S
C341 H357 0.931 . S
C342 C341 1.392 . S
C342 C343 1.331 . S
C342 H360 0.932 . S
C343 C342 1.331 . S
C343 C344 1.336 . S
C344 C340 1.394 . S
C344 C343 1.336 . S
C344 H359 0.929 . S
C345 C335 1.386 . S
C345 C338 1.357 . S
C345 H358 0.928 . S
H346 C322 0.931 . S
H347 C324 0.930 . S
H348 C326 0.929 . S
H349 C327 0.931 . S
H350 C329 0.930 . S
H351 C333 0.931 . S
H352 C331 0.931 . S
H353 C335 0.931 . S
H354 C336 0.929 . S
H355 C337 0.930 . S
H356 C340 0.930 . S
H357 C341 0.931 . S
H358 C345 0.928 . S
H359 C344 0.929 . S
H360 C342 0.932 . S
C361 C362 1.386 . S
C361 C363 1.397 . S
C361 H385 0.931 . S
C362 C361 1.386 . S
C362 C366 1.397 . S
C363 C361 1.397 . S
C363 C364 1.384 1_455 S
C363 H386 0.935 . S
C364 C363 1.384 1_655 S
C364 C365 1.377 . S
C364 C367 1.481 . S
C365 C364 1.377 . S
C365 C366 1.389 1_655 S
C365 H387 0.929 . S
C366 C362 1.397 . S
C366 C365 1.389 1_455 S
C366 H388 0.931 . S
C367 C364 1.481 . S
C367 C368 1.387 . S
C367 C372 1.390 . S
C368 C367 1.387 . S
C368 C369 1.401 . S
C368 H389 0.930 . S
C369 C368 1.401 . S
C369 C370 1.376 . S
C369 C378 1.511 . S
C370 C369 1.376 . S
C370 C371 1.392 . S
C370 H391 0.931 . S
C371 C370 1.392 . S
C371 C372 1.361 . S
C371 C373 1.500 . S
C372 C367 1.390 . S
C372 C371 1.361 . S
C372 H390 0.931 . S
C373 C371 1.500 . S
C373 C374 1.371 . S
C373 C375 1.365 . S
C374 C373 1.371 . S
C374 C384 1.386 . S
C374 H392 0.931 . S
C375 C373 1.365 . S
C375 C376 1.409 . S
C375 H393 0.929 . S
C376 C375 1.409 . S
C376 C377 1.380 . S
C376 H394 0.930 . S
C377 C376 1.380 . S
C377 C384 1.357 . S
C378 C369 1.511 . S
C378 C379 1.341 . S
C378 C380 1.371 . S
C379 C378 1.341 . S
C379 C383 1.394 . S
C379 H395 0.930 . S
C380 C378 1.371 . S
C380 C381 1.392 . S
C380 H396 0.931 . S
C381 C380 1.392 . S
C381 C382 1.331 . S
C381 H399 0.932 . S
C382 C381 1.331 . S
C382 C383 1.336 . S
C383 C379 1.394 . S
C383 C382 1.336 . S
C383 H398 0.929 . S
C384 C374 1.386 . S
C384 C377 1.357 . S
C384 H397 0.928 . S
H385 C361 0.931 . S
H386 C363 0.935 . S
H387 C365 0.929 . S
H388 C366 0.931 . S
H389 C368 0.930 . S
H390 C372 0.931 . S
H391 C370 0.931 . S
H392 C374 0.931 . S
H393 C375 0.929 . S
H394 C376 0.930 . S
H395 C379 0.930 . S
H396 C380 0.931 . S
H397 C384 0.928 . S
H398 C383 0.929 . S
H399 C381 0.932 . S
H400 C406 0.930 . S
H401 C409 0.930 . S
H402 C410 0.930 . S
H403 C411 0.930 1_545 S
H404 C414 0.930 . S
H405 C415 0.930 . S
C406 H400 0.930 . S
C406 C407 1.355 . S
C406 C408 1.415 . S
C407 C406 1.355 . S
C407 C409 1.419 . S
C408 C406 1.415 . S
C408 C413 1.425 . S
C408 C415 1.409 . S
C409 H401 0.930 . S
C409 C407 1.419 . S
C409 C410 1.362 . S
C410 H402 0.930 . S
C410 C409 1.362 . S
C410 C413 1.409 . S
C411 H403 0.930 1_565 S
C411 C412 1.355 . S
C411 C413 1.415 . S
C412 C411 1.355 . S
C412 C414 1.419 . S
C413 C408 1.425 . S
C413 C410 1.409 . S
C413 C411 1.415 . S
C414 H404 0.930 . S
C414 C412 1.419 . S
C414 C415 1.362 . S
C415 H405 0.930 . S
C415 C408 1.409 . S
C415 C414 1.362 . S
H416 C422 0.930 . S
H417 C425 0.930 . S
H418 C426 0.930 . S
H419 C427 0.930 . S
H420 C430 0.930 . S
H421 C431 0.930 . S
C422 H416 0.930 . S
C422 C423 1.355 . S
C422 C424 1.415 . S
C423 C422 1.355 . S
C423 C425 1.419 . S
C424 C422 1.415 . S
C424 C429 1.425 . S
C424 C431 1.409 . S
C425 H417 0.930 . S
C425 C423 1.419 . S
C425 C426 1.362 . S
C426 H418 0.930 . S
C426 C425 1.362 . S
C426 C429 1.409 . S
C427 H419 0.930 . S
C427 C428 1.355 . S
C427 C429 1.415 . S
C428 C427 1.355 . S
C428 C430 1.419 . S
C429 C424 1.425 . S
C429 C426 1.409 . S
C429 C427 1.415 . S
C430 H420 0.930 . S
C430 C428 1.419 . S
C430 C431 1.362 . S
C431 H421 0.930 . S
C431 C424 1.409 . S
C431 C430 1.362 . S
H432 C438 0.930 . S
H433 C441 0.930 . S
H434 C442 0.930 . S
H435 C443 0.930 . S
H436 C446 0.930 . S
H437 C447 0.930 . S
C438 H432 0.930 . S
C438 C439 1.355 . S
C438 C440 1.415 . S
C439 C438 1.355 . S
C439 C441 1.419 . S
C440 C438 1.415 . S
C440 C445 1.425 . S
C440 C447 1.409 . S
C441 H433 0.930 . S
C441 C439 1.419 . S
C441 C442 1.362 . S
C442 H434 0.930 . S
C442 C441 1.362 . S
C442 C445 1.409 . S
C443 H435 0.930 . S
C443 C444 1.355 . S
C443 C445 1.415 1_565 S
C444 C443 1.355 . S
C444 C446 1.419 . S
C445 C440 1.425 . S
C445 C442 1.409 . S
C445 C443 1.415 1_545 S
C446 H436 0.930 . S
C446 C444 1.419 . S
C446 C447 1.362 1_565 S
C447 H437 0.930 . S
C447 C440 1.409 . S
C447 C446 1.362 1_545 S
H448 C454 0.930 . S
H449 C457 0.930 . S
H450 C458 0.930 . S
H451 C459 0.930 . S
H452 C462 0.930 . S
H453 C463 0.930 . S
C454 H448 0.930 . S
C454 C455 1.355 . S
C454 C456 1.415 . S
C455 C454 1.355 . S
C455 C457 1.419 . S
C456 C454 1.415 . S
C456 C461 1.425 . S
C456 C463 1.409 . S
C457 H449 0.930 . S
C457 C455 1.419 . S
C457 C458 1.362 . S
C458 H450 0.930 . S
C458 C457 1.362 . S
C458 C461 1.409 . S
C459 H451 0.930 . S
C459 C460 1.355 . S
C459 C461 1.415 . S
C460 C459 1.355 . S
C460 C462 1.419 . S
C461 C456 1.425 . S
C461 C458 1.409 . S
C461 C459 1.415 . S
C462 H452 0.930 . S
C462 C460 1.419 . S
C462 C463 1.362 . S
C463 H453 0.930 . S
C463 C456 1.409 . S
C463 C462 1.362 . S
H464 C470 0.930 . S
H465 C473 0.930 . S
H466 C474 0.930 . S
H467 C475 0.930 . S
H468 C478 0.930 . S
H469 C479 0.930 . S
C470 H464 0.930 . S
C470 C471 1.355 . S
C470 C472 1.415 . S
C471 C470 1.355 . S
C471 C473 1.419 . S
C472 C470 1.415 . S
C472 C477 1.425 . S
C472 C479 1.409 . S
C473 H465 0.930 . S
C473 C471 1.419 . S
C473 C474 1.362 . S
C474 H466 0.930 . S
C474 C473 1.362 . S
C474 C477 1.409 . S
C475 H467 0.930 . S
C475 C476 1.355 . S
C475 C477 1.415 . S
C476 C475 1.355 . S
C476 C478 1.419 . S
C477 C472 1.425 . S
C477 C474 1.409 . S
C477 C475 1.415 . S
C478 H468 0.930 . S
C478 C476 1.419 . S
C478 C479 1.362 . S
C479 H469 0.930 . S
C479 C472 1.409 . S
C479 C478 1.362 . S
H480 C486 0.930 . S
H481 C489 0.930 . S
H482 C490 0.930 . S
H483 C491 0.930 . S
H484 C494 0.930 . S
H485 C495 0.930 . S
C486 H480 0.930 . S
C486 C487 1.355 . S
C486 C488 1.415 1_655 S
C487 C486 1.355 . S
C487 C489 1.419 . S
C488 C486 1.415 1_455 S
C488 C493 1.425 . S
C488 C495 1.409 . S
C489 H481 0.930 . S
C489 C487 1.419 . S
C489 C490 1.362 1_655 S
C490 H482 0.930 . S
C490 C489 1.362 1_455 S
C490 C493 1.409 . S
C491 H483 0.930 . S
C491 C492 1.355 . S
C491 C493 1.415 . S
C492 C491 1.355 . S
C492 C494 1.419 . S
C493 C488 1.425 . S
C493 C490 1.409 . S
C493 C491 1.415 . S
C494 H484 0.930 . S
C494 C492 1.419 . S
C494 C495 1.362 . S
C495 H485 0.930 . S
C495 C488 1.409 . S
C495 C494 1.362 . S
H496 C502 0.930 . S
H497 C505 0.930 . S
H498 C506 0.930 . S
H499 C507 0.930 . S
H500 C510 0.930 . S
H501 C511 0.930 . S
C502 H496 0.930 . S
C502 C503 1.355 . S
C502 C504 1.415 . S
C503 C502 1.355 . S
C503 C505 1.419 . S
C504 C502 1.415 . S
C504 C509 1.425 . S
C504 C511 1.409 . S
C505 H497 0.930 . S
C505 C503 1.419 . S
C505 C506 1.362 . S
C506 H498 0.930 . S
C506 C505 1.362 . S
C506 C509 1.409 . S
C507 H499 0.930 . S
C507 C508 1.355 . S
C507 C509 1.415 . S
C508 C507 1.355 . S
C508 C510 1.419 . S
C509 C504 1.425 . S
C509 C506 1.409 . S
C509 C507 1.415 . S
C510 H500 0.930 . S
C510 C508 1.419 . S
C510 C511 1.362 . S
C511 H501 0.930 . S
C511 C504 1.409 . S
C511 C510 1.362 . S
H512 C518 0.930 . S
H513 C521 0.930 . S
H514 C522 0.930 . S
H515 C523 0.930 . S
H516 C526 0.930 . S
H517 C527 0.930 . S
C518 H512 0.930 . S
C518 C519 1.355 . S
C518 C520 1.415 . S
C519 C518 1.355 . S
C519 C521 1.419 . S
C520 C518 1.415 . S
C520 C525 1.425 . S
C520 C527 1.409 . S
C521 H513 0.930 . S
C521 C519 1.419 . S
C521 C522 1.362 . S
C522 H514 0.930 . S
C522 C521 1.362 . S
C522 C525 1.409 . S
C523 H515 0.930 . S
C523 C524 1.355 . S
C523 C525 1.415 . S
C524 C523 1.355 . S
C524 C526 1.419 . S
C525 C520 1.425 . S
C525 C522 1.409 . S
C525 C523 1.415 . S
C526 H516 0.930 . S
C526 C524 1.419 . S
C526 C527 1.362 . S
C527 H517 0.930 . S
C527 C520 1.409 . S
C527 C526 1.362 . S
H528 C534 0.930 . S
H529 C537 0.930 . S
H530 C538 0.930 . S
H531 C539 0.930 . S
H532 C542 0.926 . S
H533 C543 0.930 . S
C534 H528 0.930 . S
C534 C535 1.355 . S
C534 C536 1.415 . S
C535 C534 1.355 . S
C535 C537 1.419 . S
C536 C534 1.415 . S
C536 C541 1.425 . S
C536 C543 1.409 . S
C537 H529 0.930 . S
C537 C535 1.419 . S
C537 C538 1.362 . S
C538 H530 0.930 . S
C538 C537 1.362 . S
C538 C541 1.409 . S
C539 H531 0.930 . S
C539 C540 1.355 . S
C539 C541 1.415 . S
C540 C539 1.355 . S
C540 C542 1.421 1_545 S
C541 C536 1.425 . S
C541 C538 1.409 . S
C541 C539 1.415 . S
C542 H532 0.926 . S
C542 C540 1.421 1_565 S
C542 C543 1.364 1_565 S
C543 H533 0.930 . S
C543 C536 1.409 . S
C543 C542 1.364 1_545 S
H544 C550 0.930 . S
H545 C553 0.930 . S
H546 C554 0.930 . S
H547 C555 0.930 . S
H548 C558 0.930 . S
H549 C559 0.930 . S
C550 H544 0.930 . S
C550 C551 1.355 . S
C550 C552 1.415 . S
C551 C550 1.355 . S
C551 C553 1.419 . S
C552 C550 1.415 . S
C552 C557 1.425 . S
C552 C559 1.409 . S
C553 H545 0.930 . S
C553 C551 1.419 . S
C553 C554 1.362 . S
C554 H546 0.930 . S
C554 C553 1.362 . S
C554 C557 1.409 . S
C555 H547 0.930 . S
C555 C556 1.355 . S
C555 C557 1.415 . S
C556 C555 1.355 . S
C556 C558 1.419 . S
C557 C552 1.425 . S
C557 C554 1.409 . S
C557 C555 1.415 . S
C558 H548 0.930 . S
C558 C556 1.419 . S
C558 C559 1.362 . S
C559 H549 0.930 . S
C559 C552 1.409 . S
C559 C558 1.362 . S
H560 C566 0.930 . S
H561 C569 0.930 . S
H562 C570 0.930 1_545 S
H563 C571 0.930 . S
H564 C574 0.930 1_545 S
H565 C575 0.930 . S
C566 H560 0.930 . S
C566 C567 1.355 . S
C566 C568 1.415 . S
C567 C566 1.355 . S
C567 C569 1.419 . S
C568 C566 1.415 . S
C568 C573 1.425 . S
C568 C575 1.409 . S
C569 H561 0.930 . S
C569 C567 1.419 . S
C569 C570 1.362 . S
C570 H562 0.930 1_565 S
C570 C569 1.362 . S
C570 C573 1.409 . S
C571 H563 0.930 . S
C571 C572 1.355 . S
C571 C573 1.415 1_546 S
C572 C571 1.355 . S
C572 C574 1.419 1_545 S
C573 C568 1.425 . S
C573 C570 1.409 . S
C573 C571 1.415 1_564 S
C574 H564 0.930 1_565 S
C574 C572 1.419 1_565 S
C574 C575 1.362 1_556 S
C575 H565 0.930 . S
C575 C568 1.409 . S
C575 C574 1.362 1_554 S
H576 C582 0.930 . S
H577 C585 0.930 . S
H578 C586 0.930 . S
H579 C587 0.930 . S
H580 C590 0.930 . S
H581 C591 0.930 . S
C582 H576 0.930 . S
C582 C583 1.355 . S
C582 C584 1.415 . S
C583 C582 1.355 . S
C583 C585 1.419 . S
C584 C582 1.415 . S
C584 C589 1.425 . S
C584 C591 1.409 . S
C585 H577 0.930 . S
C585 C583 1.419 . S
C585 C586 1.362 . S
C586 H578 0.930 . S
C586 C585 1.362 . S
C586 C589 1.409 . S
C587 H579 0.930 . S
C587 C588 1.355 . S
C587 C589 1.415 . S
C588 C587 1.355 . S
C588 C590 1.419 . S
C589 C584 1.425 . S
C589 C586 1.409 . S
C589 C587 1.415 . S
C590 H580 0.930 . S
C590 C588 1.419 . S
C590 C591 1.362 . S
C591 H581 0.930 . S
C591 C584 1.409 . S
C591 C590 1.362 . S
H592 C598 0.930 . S
H593 C601 0.930 . S
H594 C602 0.930 . S
H595 C603 0.930 . S
H596 C606 0.930 . S
H597 C607 0.930 . S
C598 H592 0.930 . S
C598 C599 1.355 . S
C598 C600 1.415 . S
C599 C598 1.355 . S
C599 C601 1.419 . S
C600 C598 1.415 . S
C600 C605 1.425 . S
C600 C607 1.409 . S
C601 H593 0.930 . S
C601 C599 1.419 . S
C601 C602 1.362 . S
C602 H594 0.930 . S
C602 C601 1.362 . S
C602 C605 1.409 . S
C603 H595 0.930 . S
C603 C604 1.355 . S
C603 C605 1.415 . S
C604 C603 1.355 . S
C604 C606 1.419 . S
C605 C600 1.425 . S
C605 C602 1.409 . S
C605 C603 1.415 . S
C606 H596 0.930 . S
C606 C604 1.419 . S
C606 C607 1.362 . S
C607 H597 0.930 . S
C607 C600 1.409 . S
C607 C606 1.362 . S
H608 C614 0.930 . S
H609 C617 0.930 . S
H610 C618 0.930 . S
H611 C619 0.930 . S
H612 C622 0.930 . S
H613 C623 0.930 . S
C614 H608 0.930 . S
C614 C615 1.355 . S
C614 C616 1.415 1_455 S
C615 C614 1.355 . S
C615 C617 1.419 . S
C616 C614 1.415 1_655 S
C616 C621 1.425 . S
C616 C623 1.409 . S
C617 H609 0.930 . S
C617 C615 1.419 . S
C617 C618 1.362 . S
C618 H610 0.930 . S
C618 C617 1.362 . S
C618 C621 1.409 1_455 S
C619 H611 0.930 . S
C619 C620 1.355 . S
C619 C621 1.415 . S
C620 C619 1.355 . S
C620 C622 1.419 . S
C621 C616 1.425 . S
C621 C618 1.409 1_655 S
C621 C619 1.415 . S
C622 H612 0.930 . S
C622 C620 1.419 . S
C622 C623 1.362 . S
C623 H613 0.930 . S
C623 C616 1.409 . S
C623 C622 1.362 . S
H624 C630 0.930 . S
H625 C633 0.930 . S
H626 C634 0.930 . S
H627 C635 0.930 . S
H628 C638 0.930 . S
H629 C639 0.930 . S
C630 H624 0.930 . S
C630 C631 1.355 . S
C630 C632 1.415 . S
C631 C630 1.355 . S
C631 C633 1.419 . S
C632 C630 1.415 . S
C632 C637 1.425 . S
C632 C639 1.409 . S
C633 H625 0.930 . S
C633 C631 1.419 . S
C633 C634 1.362 . S
C634 H626 0.930 . S
C634 C633 1.362 . S
C634 C637 1.409 . S
C635 H627 0.930 . S
C635 C636 1.355 . S
C635 C637 1.415 . S
C636 C635 1.355 . S
C636 C638 1.419 . S
C637 C632 1.425 . S
C637 C634 1.409 . S
C637 C635 1.415 . S
C638 H628 0.930 . S
C638 C636 1.419 . S
C638 C639 1.362 . S
C639 H629 0.930 . S
C639 C632 1.409 . S
C639 C638 1.362 . S
H640 C646 0.930 . S
H641 C649 0.930 . S
H642 C650 0.930 . S
H643 C651 0.930 . S
H644 C654 0.930 . S
H645 C655 0.930 . S
C646 H640 0.930 . S
C646 C647 1.355 . S
C646 C648 1.415 . S
C647 C646 1.355 . S
C647 C649 1.419 . S
C648 C646 1.415 . S
C648 C653 1.425 . S
C648 C655 1.409 . S
C649 H641 0.930 . S
C649 C647 1.419 . S
C649 C650 1.362 . S
C650 H642 0.930 . S
C650 C649 1.362 . S
C650 C653 1.409 . S
C651 H643 0.930 . S
C651 C652 1.355 . S
C651 C653 1.415 . S
C652 C651 1.355 . S
C652 C654 1.419 . S
C653 C648 1.425 . S
C653 C650 1.409 . S
C653 C651 1.415 . S
C654 H644 0.930 . S
C654 C652 1.419 . S
C654 C655 1.362 . S
C655 H645 0.930 . S
C655 C648 1.409 . S
C655 C654 1.362 . S
H656 C662 0.930 . S
H657 C665 0.930 . S
H658 C666 0.930 . S
H659 C667 0.930 . S
H660 C670 0.930 . S
H661 C671 0.930 . S
C662 H656 0.930 . S
C662 C663 1.355 . S
C662 C664 1.415 . S
C663 C662 1.355 . S
C663 C665 1.419 . S
C664 C662 1.415 . S
C664 C669 1.425 . S
C664 C671 1.409 . S
C665 H657 0.930 . S
C665 C663 1.419 . S
C665 C666 1.362 . S
C666 H658 0.930 . S
C666 C665 1.362 . S
C666 C669 1.409 . S
C667 H659 0.930 . S
C667 C668 1.355 . S
C667 C669 1.415 . S
C668 C667 1.355 . S
C668 C670 1.419 . S
C669 C664 1.425 . S
C669 C666 1.409 . S
C669 C667 1.415 . S
C670 H660 0.930 . S
C670 C668 1.419 . S
C670 C671 1.362 . S
C671 H661 0.930 . S
C671 C664 1.409 . S
C671 C670 1.362 . S
H672 C678 0.930 . S
H673 C681 0.930 . S
H674 C682 0.930 . S
H675 C683 0.930 . S
H676 C686 0.930 . S
H677 C687 0.930 . S
C678 H672 0.930 . S
C678 C679 1.355 . S
C678 C680 1.415 . S
C679 C678 1.355 . S
C679 C681 1.419 . S
C680 C678 1.415 . S
C680 C685 1.425 . S
C680 C687 1.409 . S
C681 H673 0.930 . S
C681 C679 1.419 . S
C681 C682 1.362 . S
C682 H674 0.930 . S
C682 C681 1.362 . S
C682 C685 1.409 . S
C683 H675 0.930 . S
C683 C684 1.355 . S
C683 C685 1.415 . S
C684 C683 1.355 . S
C684 C686 1.419 . S
C685 C680 1.425 . S
C685 C682 1.409 . S
C685 C683 1.415 . S
C686 H676 0.930 . S
C686 C684 1.419 . S
C686 C687 1.362 . S
C687 H677 0.930 . S
C687 C680 1.409 . S
C687 C686 1.362 . S
H688 C694 0.930 . S
H689 C697 0.930 . S
H690 C698 0.930 . S
H691 C699 0.930 . S
H692 C702 0.930 . S
H693 C703 0.930 . S
C694 H688 0.930 . S
C694 C695 1.355 . S
C694 C696 1.415 . S
C695 C694 1.355 . S
C695 C697 1.419 . S
C696 C694 1.415 . S
C696 C701 1.425 . S
C696 C703 1.409 . S
C697 H689 0.930 . S
C697 C695 1.419 . S
C697 C698 1.362 . S
C698 H690 0.930 . S
C698 C697 1.362 . S
C698 C701 1.409 . S
C699 H691 0.930 . S
C699 C700 1.355 . S
C699 C701 1.415 . S
C700 C699 1.355 . S
C700 C702 1.419 . S
C701 C696 1.425 . S
C701 C698 1.409 . S
C701 C699 1.415 . S
C702 H692 0.930 . S
C702 C700 1.419 . S
C702 C703 1.362 . S
C703 H693 0.930 . S
C703 C696 1.409 . S
C703 C702 1.362 . S
H704 C710 0.930 . S
H705 C713 0.930 . S
H706 C714 0.930 . S
H707 C715 0.930 . S
H708 C718 0.930 . S
H709 C719 0.930 . S
C710 H704 0.930 . S
C710 C711 1.355 . S
C710 C712 1.415 . S
C711 C710 1.355 . S
C711 C713 1.419 . S
C712 C710 1.415 . S
C712 C717 1.425 . S
C712 C719 1.409 . S
C713 H705 0.930 . S
C713 C711 1.419 . S
C713 C714 1.362 . S
C714 H706 0.930 . S
C714 C713 1.362 . S
C714 C717 1.409 . S
C715 H707 0.930 . S
C715 C716 1.355 . S
C715 C717 1.415 . S
C716 C715 1.355 . S
C716 C718 1.419 . S
C717 C712 1.425 . S
C717 C714 1.409 . S
C717 C715 1.415 . S
C718 H708 0.930 . S
C718 C716 1.419 . S
C718 C719 1.362 . S
C719 H709 0.930 . S
C719 C712 1.409 . S
C719 C718 1.362 . S
H720 C726 0.930 . S
H721 C729 0.930 . S
H722 C730 0.930 . S
H723 C731 0.930 . S
H724 C734 0.930 . S
H725 C735 0.930 . S
C726 H720 0.930 . S
C726 C727 1.355 . S
C726 C728 1.415 . S
C727 C726 1.355 . S
C727 C729 1.419 . S
C728 C726 1.415 . S
C728 C733 1.425 . S
C728 C735 1.409 . S
C729 H721 0.930 . S
C729 C727 1.419 . S
C729 C730 1.362 . S
C730 H722 0.930 . S
C730 C729 1.362 . S
C730 C733 1.409 . S
C731 H723 0.930 . S
C731 C732 1.355 . S
C731 C733 1.415 . S
C732 C731 1.355 . S
C732 C734 1.419 . S
C733 C728 1.425 . S
C733 C730 1.409 . S
C733 C731 1.415 . S
C734 H724 0.930 . S
C734 C732 1.419 . S
C734 C735 1.362 . S
C735 H725 0.930 . S
C735 C728 1.409 . S
C735 C734 1.362 . S
H736 C742 0.930 . S
H737 C745 0.930 . S
H738 C746 0.930 . S
H739 C747 0.930 . S
H740 C750 0.930 . S
H741 C751 0.930 . S
C742 H736 0.930 . S
C742 C743 1.355 . S
C742 C744 1.415 . S
C743 C742 1.355 . S
C743 C745 1.419 . S
C744 C742 1.415 . S
C744 C749 1.425 . S
C744 C751 1.409 . S
C745 H737 0.930 . S
C745 C743 1.419 . S
C745 C746 1.362 . S
C746 H738 0.930 . S
C746 C745 1.362 . S
C746 C749 1.409 . S
C747 H739 0.930 . S
C747 C748 1.355 . S
C747 C749 1.415 . S
C748 C747 1.355 . S
C748 C750 1.419 . S
C749 C744 1.425 . S
C749 C746 1.409 . S
C749 C747 1.415 . S
C750 H740 0.930 . S
C750 C748 1.419 . S
C750 C751 1.362 . S
C751 H741 0.930 . S
C751 C744 1.409 . S
C751 C750 1.362 . S
H752 C758 0.930 . S
H753 C761 0.930 . S
H754 C762 0.930 . S
H755 C763 0.930 . S
H756 C766 0.930 . S
H757 C767 0.930 . S
C758 H752 0.930 . S
C758 C759 1.355 . S
C758 C760 1.415 . S
C759 C758 1.355 . S
C759 C761 1.419 . S
C760 C758 1.415 . S
C760 C765 1.425 . S
C760 C767 1.409 . S
C761 H753 0.930 . S
C761 C759 1.419 . S
C761 C762 1.362 . S
C762 H754 0.930 . S
C762 C761 1.362 . S
C762 C765 1.409 . S
C763 H755 0.930 . S
C763 C764 1.355 . S
C763 C765 1.415 . S
C764 C763 1.355 . S
C764 C766 1.419 . S
C765 C760 1.425 . S
C765 C762 1.409 . S
C765 C763 1.415 . S
C766 H756 0.930 . S
C766 C764 1.419 . S
C766 C767 1.362 . S
C767 H757 0.930 . S
C767 C760 1.409 . S
C767 C766 1.362 . S
H768 C774 0.930 . S
H769 C777 0.930 . S
H770 C778 0.930 . S
H771 C779 0.930 . S
H772 C782 0.930 . S
H773 C783 0.930 . S
C774 H768 0.930 . S
C774 C775 1.355 1_556 S
C774 C776 1.415 . S
C775 C774 1.355 1_554 S
C775 C777 1.419 . S
C776 C774 1.415 . S
C776 C781 1.425 1_556 S
C776 C783 1.409 . S
C777 H769 0.930 . S
C777 C775 1.419 . S
C777 C778 1.362 . S
C778 H770 0.930 . S
C778 C777 1.362 . S
C778 C781 1.409 . S
C779 H771 0.930 . S
C779 C780 1.355 1_554 S
C779 C781 1.415 . S
C780 C779 1.355 1_556 S
C780 C782 1.419 . S
C781 C776 1.425 1_554 S
C781 C778 1.409 . S
C781 C779 1.415 . S
C782 H772 0.930 . S
C782 C780 1.419 . S
C782 C783 1.362 . S
C783 H773 0.930 . S
C783 C776 1.409 . S
C783 C782 1.362 . S
C407 C7 1.637 . S
C412 C104 1.589 1_565 S
C423 C37 1.619 . S
C428 C143 1.539 . S
C439 C54 1.803 . S
C444 C182 1.688 . S
C460 C206 1.478 . S
C455 C87 1.532 . S
C476 C245 1.533 . S
C471 C30 1.585 . S
C487 C51 1.584 . S
C492 C284 1.577 . S
C503 C84 1.837 . S
C508 C338 1.642 . S
C519 C10 1.568 . S
C524 C362 1.442 . S
C535 C59 1.655 . S
C540 C377 1.526 1_545 S
C556 C260 1.416 . S
C551 C74 1.574 . S
C572 C299 1.729 . S
C567 C18 1.837 . S
C583 C32 1.559 . S
C588 C323 1.477 . S
C604 C128 1.561 . S
C599 C73 1.641 . S
C615 C15 1.538 . S
C620 C167 1.496 . S
C636 C221 1.697 . S
C631 C43 1.830 . S
C652 C89 1.430 . S
C647 C62 1.587 . S
C668 C343 1.612 . S
C663 C21 1.652 . S
C684 C382 1.406 . S
C679 C29 1.426 . S
C695 C52 1.370 . S
C700 C265 1.324 . S
C716 C304 1.571 . S
C711 C81 1.621 . S
C732 C187 1.523 . S
C727 C40 1.583 . S
C743 C65 1.620 . S
C748 C226 1.550 . S
C764 C109 1.358 . S
C759 C76 1.400 . S
C780 C148 1.338 . S
C775 C8 1.400 . S
