# Generated by pormake.
# Topology tsx, (6,3)-cn, num edge types: 1
# Building blocks:
#     Node 0, Type 0, BuildingBlock: JUFBIX_clean_sbu_0, # of connection points: 6
#     Node 1, Type 0, BuildingBlock: JUFBIX_clean_sbu_0, # of connection points: 6
#     Node 2, Type 1, BuildingBlock: BELTOD_clean_linker_0, # of connection points: 3
#     Node 3, Type 1, BuildingBlock: BELTOD_clean_linker_0, # of connection points: 3
#     Node 4, Type 1, BuildingBlock: BELTOD_clean_linker_0, # of connection points: 3
#     Node 5, Type 1, BuildingBlock: BELTOD_clean_linker_0, # of connection points: 3
#     Edge 6, Type (0, 1), BuildingBlock: FUNLAD_clean_linker_0, # of connection points: 2
#     Edge 7, Type (0, 1), BuildingBlock: FUNLAD_clean_linker_0, # of connection points: 2
#     Edge 8, Type (0, 1), BuildingBlock: FUNLAD_clean_linker_0, # of connection points: 2
#     Edge 9, Type (0, 1), BuildingBlock: FUNLAD_clean_linker_0, # of connection points: 2
#     Edge 10, Type (0, 1), BuildingBlock: FUNLAD_clean_linker_0, # of connection points: 2
#     Edge 11, Type (0, 1), BuildingBlock: FUNLAD_clean_linker_0, # of connection points: 2
#     Edge 12, Type (0, 1), BuildingBlock: FUNLAD_clean_linker_0, # of connection points: 2
#     Edge 13, Type (0, 1), BuildingBlock: FUNLAD_clean_linker_0, # of connection points: 2
#     Edge 14, Type (0, 1), BuildingBlock: FUNLAD_clean_linker_0, # of connection points: 2
#     Edge 15, Type (0, 1), BuildingBlock: FUNLAD_clean_linker_0, # of connection points: 2
#     Edge 16, Type (0, 1), BuildingBlock: FUNLAD_clean_linker_0, # of connection points: 2
#     Edge 17, Type (0, 1), BuildingBlock: FUNLAD_clean_linker_0, # of connection points: 2
# Relax obj value: 0.144
# Max RMSD: 0.159
# Mean RMSD: 0.124
data_MOF--net-tsx--node1-JUFBIX_clean_sbu_0--node2-BELTOD_clean_linker_0--edge1-FUNLAD_clean_linker_0
_symmetry_space_group_name_H-M    P1
_symmetry_Int_Tables_number       1
_symmetry_cell_setting            triclinic
loop_
_symmetry_equiv_pos_as_xyz
'x, y, z'
_cell_length_a     25.442339
_cell_length_b     30.259468
_cell_length_c     45.043735
_cell_angle_alpha  92.826453
_cell_angle_beta   89.492389
_cell_angle_gamma 97.541985
loop_
_atom_site_label
_atom_site_type_symbol
_atom_site_fract_x
_atom_site_fract_y
_atom_site_fract_z
_atom_type_partial_charge
Co0 Co 0.01125 0.99753 0.02178 0.0
C1 C 0.96786 0.02356 0.96933 0.0
Co2 Co 0.94337 0.03587 0.02836 0.0
C3 C 0.08259 0.929 0.02211 0.0
C4 C 0.11003 0.98393 0.9953 0.0
N5 N 0.07028 0.9687 0.01366 0.0
N6 N 0.12818 0.91888 0.0094 0.0
C7 C 0.1455 0.95355 0.99266 0.0
H8 H 0.05777 0.90737 0.03648 0.0
H9 H 0.11253 0.01488 0.98402 0.0
C10 C 0.98824 0.01001 0.08079 0.0
N11 N 0.88437 0.06479 0.03622 0.0
C12 C 0.87104 0.10289 0.0257 0.0
C13 C 0.84445 0.0506 0.05475 0.0
N14 N 0.82416 0.11277 0.03684 0.0
C15 C 0.80747 0.07984 0.05513 0.0
C16 C 0.91645 0.94289 0.02188 0.0
O17 O 0.0193 0.992 0.06308 0.0
O18 O 0.95256 0.0305 0.07018 0.0
O19 O 0.89887 0.98013 0.02605 0.0
O20 O 0.96613 0.94227 0.01921 0.0
O21 O 0.93521 0.04095 0.98639 0.0
H22 H 0.84246 0.02087 0.06732 0.0
H23 H 0.89497 0.12264 0.00992 0.0
O24 O 0.00295 0.0034 0.98065 0.0
O25 O 0.05558 0.05314 0.02436 0.0
O26 O 0.98844 0.09129 0.03053 0.0
C27 C 0.03811 0.09048 0.028 0.0
H28 H 0.18128 0.95671 0.97933 0.0
H29 H 0.77148 0.07741 0.06828 0.0
Co30 Co 0.53747 0.48256 0.51647 0.0
C31 C 0.49368 0.50095 0.46209 0.0
Co32 Co 0.46884 0.52034 0.52025 0.0
C33 C 0.60645 0.41285 0.51864 0.0
C34 C 0.63759 0.46735 0.4923 0.0
N35 N 0.59671 0.45333 0.51029 0.0
N36 N 0.65135 0.40105 0.50613 0.0
C37 C 0.67107 0.43536 0.48968 0.0
H38 H 0.57973 0.39141 0.5322 0.0
H39 H 0.64159 0.49805 0.48067 0.0
C40 C 0.51337 0.50125 0.57466 0.0
N41 N 0.40961 0.54933 0.52596 0.0
C42 C 0.39806 0.58699 0.51409 0.0
C43 C 0.36863 0.53704 0.54426 0.0
N44 N 0.3514 0.59867 0.52426 0.0
C45 C 0.33282 0.56717 0.54323 0.0
C46 C 0.44307 0.42753 0.51832 0.0
O47 O 0.5458 0.48263 0.5582 0.0
O48 O 0.47694 0.51923 0.56255 0.0
O49 O 0.42484 0.46467 0.51982 0.0
O50 O 0.49291 0.42715 0.51705 0.0
O51 O 0.46176 0.52121 0.4779 0.0
H52 H 0.36541 0.50831 0.55785 0.0
H53 H 0.42347 0.60541 0.49829 0.0
O54 O 0.52869 0.48234 0.47481 0.0
O55 O 0.58124 0.53865 0.51589 0.0
O56 O 0.51297 0.57572 0.52041 0.0
C57 C 0.56267 0.57568 0.51781 0.0
H58 H 0.70646 0.43664 0.47605 0.0
H59 H 0.29665 0.56657 0.55612 0.0
P60 P 0.0756 0.05882 0.45612 0.0
H61 H 0.0685 0.14742 0.48334 0.0
H62 H 0.99573 0.18098 0.5067 0.0
H63 H 0.89642 0.0536 0.4991 0.0
H64 H 0.9698 0.02021 0.4752 0.0
H65 H 0.15192 0.04187 0.50035 0.0
H66 H 0.18011 0.9735 0.51754 0.0
H67 H 0.06047 0.89563 0.46225 0.0
H68 H 0.03134 0.96456 0.44611 0.0
H69 H 0.99107 0.08721 0.41985 0.0
H70 H 0.12169 0.01064 0.40703 0.0
O71 O 0.1305 0.0957 0.45744 0.0
H72 H 0.97048 0.07699 0.36693 0.0
H73 H 0.10075 -0.00044 0.35411 0.0
C74 C 0.02446 0.08134 0.47753 0.0
C75 C 0.0314 0.12647 0.48709 0.0
C76 C 0.98975 0.14559 0.50068 0.0
C77 C 0.94016 0.11999 0.50474 0.0
C78 C 0.93399 0.07428 0.49607 0.0
C79 C 0.9759 0.05511 0.48257 0.0
C80 C 0.09062 0.00821 0.47145 0.0
C81 C 0.13137 0.01012 0.49228 0.0
C82 C 0.14768 0.97096 0.50187 0.0
C83 C 0.12347 0.92909 0.49065 0.0
C84 C 0.08015 0.92733 0.47121 0.0
C85 C 0.06366 0.96667 0.46181 0.0
C86 C 0.05737 0.04896 0.41752 0.0
C87 C 0.01485 0.06758 0.40578 0.0
C88 C 0.003 0.06161 0.37545 0.0
C89 C 0.03384 0.03732 0.35623 0.0
C90 C 0.07647 0.01879 0.36818 0.0
C91 C 0.08822 0.02477 0.39849 0.0
P92 P 0.05222 0.96252 0.59627 0.0
H93 H 0.04805 0.91916 0.53752 0.0
H94 H 0.97612 0.87664 0.50844 0.0
H95 H 0.86462 0.90757 0.57702 0.0
H96 H 0.93621 0.95209 0.60473 0.0
H97 H 0.16207 -0.00027 0.58682 0.0
H98 H 0.20308 0.06847 0.56572 0.0
H99 H 0.04799 0.10593 0.54966 0.0
H100 H 0.00701 0.03664 0.57105 0.0
H101 H 1.00035 0.90183 0.63847 0.0
H102 H 0.06245 0.04145 0.63836 0.0
O103 O 0.09698 0.9268 0.59575 0.0
H104 H 0.97811 0.91023 0.69106 0.0
H105 H 0.04198 0.04988 0.69132 0.0
C106 C 0.99763 0.93739 0.57359 0.0
C107 C 0.0079 0.91732 0.54588 0.0
C108 C 0.96678 0.89284 0.52944 0.0
C109 C 0.91466 0.88772 0.54069 0.0
C110 C 0.90413 0.91075 0.56758 0.0
C111 C 0.94528 0.93575 0.58375 0.0
C112 C 0.0816 0.01301 0.58018 0.0
C113 C 0.13682 0.02251 0.57856 0.0
C114 C 0.16022 0.06175 0.56632 0.0
C115 C 0.12875 0.09238 0.55564 0.0
C116 C 0.07324 0.08291 0.55758 0.0
C117 C 0.04982 0.04339 0.56974 0.0
C118 C 0.03268 0.97099 0.63446 0.0
C119 C 0.00891 0.93439 0.64978 0.0
C120 C 0.99657 0.93921 0.67992 0.0
C121 C 0.00858 0.98069 0.69555 0.0
C122 C 0.03158 0.0176 0.67993 0.0
C123 C 0.04362 0.01275 0.64963 0.0
P124 P 0.57808 0.58306 0.9511 0.0
H125 H 0.56028 0.6571 0.99272 0.0
H126 H 0.48 0.68752 0.00849 0.0
H127 H 0.3851 0.57453 0.96444 0.0
H128 H 0.466 0.54543 0.9476 0.0
H129 H 0.68346 0.56196 0.96389 0.0
H130 H 0.71583 0.49771 0.9844 0.0
H131 H 0.55446 0.43557 0.99555 0.0
H132 H 0.52225 0.50027 0.97477 0.0
H133 H 0.51738 0.62494 0.90842 0.0
H134 H 0.61477 0.51846 0.90686 0.0
O135 O 0.6261 0.62622 0.95445 0.0
H136 H 0.50399 0.6136 0.85498 0.0
H137 H 0.60316 0.5079 0.85302 0.0
C138 C 0.5191 0.59936 0.9686 0.0
C139 C 0.52221 0.63849 0.98683 0.0
C140 C 0.47605 0.65571 0.99607 0.0
C141 C 0.42583 0.63388 0.9874 0.0
C142 C 0.42303 0.59278 0.97099 0.0
C143 C 0.46927 0.5758 0.9616 0.0
C144 C 0.60043 0.53627 0.96818 0.0
C145 C 0.65493 0.53485 0.97112 0.0
C146 C 0.67342 0.49808 0.983 0.0
C147 C 0.63774 0.46154 0.99181 0.0
C148 C 0.58297 0.46308 0.98888 0.0
C149 C 0.56449 0.50015 0.97709 0.0
C150 C 0.56603 0.57188 0.91183 0.0
C151 C 0.53555 0.59879 0.89661 0.0
C152 C 0.52847 0.59261 0.86589 0.0
C153 C 0.55262 0.55988 0.84952 0.0
C154 C 0.58328 0.53295 0.8649 0.0
C155 C 0.5901 0.53904 0.89575 0.0
P156 P 0.57719 0.45195 0.09158 0.0
H157 H 0.55351 0.37995 0.04623 0.0
H158 H 0.47016 0.34038 0.02684 0.0
H159 H 0.38383 0.43204 0.07798 0.0
H160 H 0.46746 0.47072 0.0978 0.0
H161 H 0.68685 0.49091 0.08612 0.0
H162 H 0.72982 0.55678 0.0624 0.0
H163 H 0.57739 0.58427 0.03172 0.0
H164 H 0.53456 0.51831 0.05599 0.0
H165 H 0.56673 0.39939 0.14405 0.0
H166 H 0.55581 0.53542 0.12329 0.0
O167 O 0.61916 0.41386 0.09058 0.0
H168 H 0.54482 0.41642 0.19583 0.0
H169 H 0.5326 0.55266 0.17507 0.0
C170 C 0.51643 0.42737 0.07407 0.0
C171 C 0.51664 0.39166 0.05311 0.0
C172 C 0.4689 0.36934 0.04182 0.0
C173 C 0.42017 0.38266 0.05118 0.0
C174 C 0.42055 0.42032 0.07084 0.0
C175 C 0.46834 0.44253 0.08213 0.0
C176 C 0.60772 0.49946 0.07249 0.0
C177 C 0.66273 0.51087 0.07405 0.0
C178 C 0.68727 0.54844 0.06028 0.0
C179 C 0.65712 0.57568 0.04491 0.0
C180 C 0.60174 0.56418 0.04352 0.0
C181 C 0.57722 0.52633 0.05724 0.0
C182 C 0.564 0.46632 0.12998 0.0
C183 C 0.55994 0.43306 0.15072 0.0
C184 C 0.54678 0.44277 0.18028 0.0
C185 C 0.53676 0.48593 0.18969 0.0
C186 C 0.54075 0.51925 0.16872 0.0
C187 C 0.55401 0.50944 0.13908 0.0
C188 C 0.12946 0.13064 0.02222 0.0
C189 C 0.07575 0.13215 0.02917 0.0
C190 C 0.16584 0.16937 0.02392 0.0
C191 C 0.1494 0.21071 0.03257 0.0
C192 C 0.09574 0.2123 0.03957 0.0
C193 C 0.0591 0.17345 0.03764 0.0
C194 C 0.18822 0.2517 0.03671 0.0
C195 C 0.23406 0.25793 0.02131 0.0
C196 C 0.27767 0.29461 0.02827 0.0
C197 C 0.31719 0.30486 0.00681 0.0
C198 C 0.36244 0.33494 0.01374 0.0
C199 C 0.36938 0.35517 0.04245 0.0
H200 H 0.25511 0.30826 0.07419 0.0
C201 C 0.32899 0.34604 0.06365 0.0
C202 C 0.28372 0.31608 0.0567 0.0
H203 H 0.33347 0.36032 0.08615 0.0
H204 H 0.1437 0.09936 0.01572 0.0
H205 H 0.20709 0.16642 0.01933 0.0
H206 H 0.08218 0.24363 0.04667 0.0
H207 H 0.018 0.17567 0.04323 0.0
H208 H 0.17866 0.27705 0.05303 0.0
H209 H 0.24073 0.23452 1.00302 0.0
H210 H 0.3137 0.28869 0.98478 0.0
H211 H 0.3925 0.34161 0.99679 0.0
C212 C 0.18172 0.86329 0.98755 0.0
C213 C 0.15291 0.87896 0.01171 0.0
C214 C 0.209 0.82659 0.98999 0.0
C215 C 0.208 0.80425 0.01669 0.0
C216 C 0.17871 0.81955 0.04082 0.0
C217 C 0.15093 0.85631 0.03828 0.0
C218 C 0.24062 0.76743 0.02037 0.0
C219 C 0.25311 0.74067 0.99724 0.0
C220 C 0.29308 0.70883 0.99791 0.0
C221 C 0.29768 0.68037 0.97271 0.0
C222 C 0.33924 0.65455 0.97 0.0
C223 C 0.37749 0.65634 0.99253 0.0
H224 H 0.32844 0.73082 0.04087 0.0
C225 C 0.3715 0.68312 0.01847 0.0
C226 C 0.32991 0.7092 0.02114 0.0
H227 H 0.39983 0.68491 0.03643 0.0
H228 H 0.18366 0.87976 0.9667 0.0
H229 H 0.23234 0.81692 0.97114 0.0
H230 H 0.17777 0.80333 0.06177 0.0
H231 H 0.12943 0.86791 0.05733 0.0
H232 H 0.25502 0.76313 0.04249 0.0
H233 H 0.2342 0.74317 0.97596 0.0
H234 H 0.2702 0.67942 0.95438 0.0
H235 H 0.34279 0.635 0.94947 0.0
C236 C 0.89719 0.85961 0.01405 0.0
C237 C 0.87917 0.90095 0.02065 0.0
C238 C 0.86187 0.82002 0.01383 0.0
C239 C 0.80772 0.82105 0.02023 0.0
C240 C 0.78986 0.8624 0.02669 0.0
C241 C 0.82502 0.90191 0.02671 0.0
C242 C 0.76959 0.77977 0.02277 0.0
C243 C 0.77554 0.74039 0.00868 0.0
C244 C 0.74107 0.69805 0.01455 0.0
C245 C 0.76189 0.65762 0.00959 0.0
C246 C 0.73362 0.61756 0.0182 0.0
C247 C 0.68362 0.61699 0.03183 0.0
H248 H 0.67075 0.72712 0.02912 0.0
C249 C 0.66103 0.65695 0.03478 0.0
C250 C 0.68933 0.69705 0.02614 0.0
H251 H 0.62243 0.65768 0.04498 0.0
H252 H 0.93872 0.85773 0.00942 0.0
H253 H 0.87758 0.78877 0.00964 0.0
H254 H 0.74853 0.86415 0.03198 0.0
H255 H 0.80979 0.93317 0.03197 0.0
H256 H 0.73615 0.78218 0.03761 0.0
H257 H 0.80905 0.73824 0.99382 0.0
H258 H 0.80115 0.65719 1.00014 0.0
H259 H 0.75151 0.58713 0.01481 0.0
C260 C 0.82558 0.19159 0.02384 0.0
C261 C 0.79711 0.15045 0.03096 0.0
C262 C 0.79909 0.22849 0.01939 0.0
C263 C 0.74345 0.22495 0.02194 0.0
C264 C 0.71509 0.18352 0.02828 0.0
C265 C 0.74154 0.14682 0.03291 0.0
C266 C 0.71337 0.263 0.01708 0.0
C267 C 0.73416 0.30617 0.02137 0.0
C268 C 0.705 0.34466 0.01584 0.0
C269 C 0.72588 0.38724 0.02742 0.0
C270 C 0.70279 0.42496 0.02067 0.0
C271 C 0.65817 0.42107 1.00208 0.0
H272 H 0.64227 0.30879 0.98796 0.0
C273 C 0.636 0.37835 0.99134 0.0
C274 C 0.65924 0.34059 0.99797 0.0
H275 H 0.60212 0.37424 0.97661 0.0
H276 H 0.86839 0.19546 0.02218 0.0
H277 H 0.82232 0.25944 0.01361 0.0
H278 H 0.67223 0.17957 0.02994 0.0
H279 H 0.71832 0.11543 0.0378 0.0
H280 H 0.67195 0.25468 0.01106 0.0
H281 H 0.77424 0.31401 0.02993 0.0
H282 H 0.76095 0.39154 0.04128 0.0
H283 H 0.72058 0.45734 0.02954 0.0
C284 C 0.65308 0.6176 0.51147 0.0
C285 C 0.59864 0.61808 0.51667 0.0
C286 C 0.68741 0.65744 0.51057 0.0
C287 C 0.66801 0.69879 0.51471 0.0
C288 C 0.61365 0.69927 0.52005 0.0
C289 C 0.57918 0.65934 0.5208 0.0
C290 C 0.70411 0.74157 0.51604 0.0
C291 C 0.75136 0.74688 0.50202 0.0
C292 C 0.79217 0.78593 0.50807 0.0
C293 C 0.84566 0.77958 0.50561 0.0
C294 C 0.88554 0.8134 0.51489 0.0
C295 C 0.87283 0.85474 0.52644 0.0
H296 H 0.73865 0.83479 0.51889 0.0
C297 C 0.81939 0.86221 0.52686 0.0
C298 C 0.77939 0.82813 0.51779 0.0
H299 H 0.80832 0.89404 0.53487 0.0
H300 H 0.66941 0.58638 0.50836 0.0
H301 H 0.72928 0.65548 0.50754 0.0
H302 H 0.59782 0.73064 0.52373 0.0
H303 H 0.53742 0.66083 0.52492 0.0
H304 H 0.69209 0.76858 0.53018 0.0
H305 H 0.76285 0.71981 0.48772 0.0
H306 H 0.85661 0.74749 0.49798 0.0
H307 H 0.9261 0.80613 0.51449 0.0
C308 C 0.67211 0.33649 0.53345 0.0
C309 C 0.67138 0.35884 0.50689 0.0
C310 C 0.69556 0.2971 0.53424 0.0
C311 C 0.71783 0.27925 0.50829 0.0
C312 C 0.71462 0.30064 0.48157 0.0
C313 C 0.69218 0.34017 0.48092 0.0
C314 C 0.74599 0.23924 0.50794 0.0
C315 C 0.77417 0.22844 0.53109 0.0
C316 C 0.81237 0.19528 0.52761 0.0
C317 C 0.85963 0.20238 0.54401 0.0
C318 C 0.90025 0.17631 0.53777 0.0
C319 C 0.89415 0.14225 0.51519 0.0
H320 H 0.76795 0.15145 0.49434 0.0
C321 C 0.84516 0.13281 0.50048 0.0
C322 C 0.80462 0.15894 0.50667 0.0
H323 H 0.83906 0.1068 0.48299 0.0
H324 H 0.65601 0.35023 0.55369 0.0
H325 H 0.69628 0.28084 0.55508 0.0
H326 H 0.73099 0.28744 0.46121 0.0
H327 H 0.69122 0.35633 0.46006 0.0
H328 H 0.74938 0.22175 0.4865 0.0
H329 H 0.77509 0.24865 0.55174 0.0
H330 H 0.86634 0.2297 0.56058 0.0
H331 H 0.93716 0.18382 0.54991 0.0
C332 C 0.35146 0.38623 0.51482 0.0
C333 C 0.40626 0.38548 0.51786 0.0
C334 C 0.31625 0.34674 0.51466 0.0
C335 C 0.33506 0.30552 0.51797 0.0
C336 C 0.39 0.30485 0.52045 0.0
C337 C 0.42526 0.34434 0.52036 0.0
C338 C 0.29934 0.26256 0.51926 0.0
C339 C 0.24629 0.25909 0.52309 0.0
C340 C 0.213 0.21585 0.52781 0.0
C341 C 0.16591 0.21572 0.54434 0.0
C342 C 0.1369 0.1755 0.55224 0.0
C343 C 0.15451 0.13464 0.54367 0.0
H344 H 0.26271 0.17341 0.50325 0.0
C345 C 0.19954 0.13474 0.52538 0.0
C346 C 0.22821 0.17484 0.51729 0.0
H347 H 0.21346 0.10379 0.51783 0.0
H348 H 0.33563 0.4174 0.51244 0.0
H349 H 0.27462 0.34909 0.51178 0.0
H350 H 0.40579 0.27365 0.52282 0.0
H351 H 0.4673 0.34265 0.5226 0.0
H352 H 0.31854 0.23257 0.51907 0.0
H353 H 0.22684 0.28884 0.52566 0.0
H354 H 0.15278 0.24683 0.55232 0.0
H355 H 0.10228 0.17652 0.5663 0.0
C356 C 0.27213 0.63728 0.52024 0.0
C357 C 0.32728 0.63754 0.51757 0.0
C358 C 0.24877 0.67546 0.51506 0.0
C359 C 0.28017 0.71503 0.50726 0.0
C360 C 0.33509 0.7149 0.50382 0.0
C361 C 0.35844 0.67668 0.50899 0.0
C362 C 0.25745 0.75684 0.50204 0.0
C363 C 0.21014 0.76594 0.51277 0.0
C364 C 0.18876 0.8084 0.50777 0.0
C365 C 0.13364 0.80897 0.5083 0.0
C366 C 0.11219 0.84816 0.50313 0.0
C367 C 0.14556 0.88778 0.49772 0.0
H368 H 0.26484 0.84983 0.5036 0.0
C369 C 0.20076 0.88746 0.49804 0.0
C370 C 0.22214 0.84835 0.50312 0.0
H371 H 0.22763 0.9173 0.49376 0.0
H372 H 0.24683 0.60736 0.5261 0.0
H373 H 0.20613 0.67338 0.51685 0.0
H374 H 0.36024 0.74475 0.4976 0.0
H375 H 0.40104 0.67819 0.50693 0.0
H376 H 0.28154 0.78136 0.48919 0.0
H377 H 0.18543 0.74152 0.52536 0.0
H378 H 0.10703 0.77883 0.51227 0.0
H379 H 0.06952 0.84742 0.5034 0.0
C380 C 0.96265 0.0308 0.13308 0.0
C381 C 0.99469 0.00852 0.1134 0.0
C382 C 0.97043 0.03125 0.16383 0.0
C383 C 0.01026 0.00904 0.17564 0.0
C384 C 0.04191 0.98652 0.15591 0.0
C385 C 0.03418 0.98612 0.1252 0.0
C386 C 0.02211 0.01051 0.20808 0.0
C387 C 0.98797 0.02088 0.22964 0.0
C388 C 1.00105 0.02388 0.26195 0.0
C389 C 0.95948 0.02033 0.28278 0.0
C390 C 0.96998 0.02431 0.31331 0.0
C391 C 0.02245 0.03224 0.32377 0.0
H392 H 0.08684 0.03675 0.25725 0.0
C393 C 0.06409 0.03608 0.30292 0.0
C394 C 0.0536 0.03213 0.27241 0.0
H395 H 0.10493 0.04321 0.31018 0.0
H396 H 0.9321 0.04867 0.12474 0.0
H397 H 0.94604 0.0501 0.17801 0.0
H398 H 0.07311 0.96936 0.16428 0.0
H399 H 0.05966 0.96868 0.1107 0.0
H400 H 0.06025 0.00143 0.21428 0.0
H401 H 0.94808 0.02607 0.22371 0.0
H402 H 0.91861 0.01432 0.27543 0.0
H403 H 0.93696 0.02083 0.32872 0.0
C404 C 0.00875 0.01331 0.91946 0.0
C405 C 0.96638 0.02622 0.93659 0.0
C406 C 0.00782 0.01358 0.88857 0.0
C407 C 0.96405 0.02613 0.87379 0.0
C408 C 0.92249 0.04072 0.89085 0.0
C409 C 0.92353 0.04068 0.92202 0.0
C410 C 0.96172 0.0246 0.8407 0.0
C411 C 0.98528 0.9946 0.82391 0.0
C412 C 0.98744 0.99179 0.79083 0.0
C413 C 0.00523 0.95391 0.77694 0.0
C414 C 0.01142 0.95028 0.74617 0.0
C415 C 0.99994 0.98452 0.72828 0.0
H416 H 0.96272 0.05631 0.78274 0.0
C417 C 0.98177 0.02248 0.74204 0.0
C418 C 0.9756 0.02616 0.77301 0.0
H419 H 0.97236 0.0494 0.72889 0.0
H420 H 0.04299 0.00288 0.92991 0.0
H421 H 0.04182 0.00414 0.8764 0.0
H422 H 0.88868 0.05128 0.88004 0.0
H423 H 0.89051 0.05119 0.93463 0.0
H424 H 0.93879 0.04741 0.83034 0.0
H425 H 0.00378 0.9696 0.83505 0.0
H426 H 0.01521 0.92707 0.79001 0.0
H427 H 0.02653 0.92097 0.7365 0.0
C428 C 0.48563 0.52657 0.62569 0.0
C429 C 0.51833 0.50257 0.60752 0.0
C430 C 0.49105 0.52866 0.65665 0.0
C431 C 0.52945 0.5068 0.67019 0.0
C432 C 0.56125 0.482 0.65205 0.0
C433 C 0.55606 0.48013 0.62108 0.0
C434 C 0.53663 0.50836 0.70307 0.0
C435 C 0.52529 0.54275 0.72114 0.0
C436 C 0.53374 0.54571 0.75393 0.0
C437 C 0.5395 0.58797 0.76874 0.0
C438 C 0.54621 0.5925 0.79954 0.0
C439 C 0.54664 0.55476 0.81653 0.0
H440 H 0.52852 0.47454 0.7604 0.0
C441 C 0.54078 0.51233 0.80174 0.0
C442 C 0.53432 0.5078 0.77081 0.0
H443 H 0.53999 0.48246 0.81412 0.0
H444 H 0.45583 0.54393 0.61602 0.0
H445 H 0.46457 0.54692 0.66984 0.0
H446 H 0.59076 0.46445 0.66184 0.0
H447 H 0.58168 0.46109 0.60779 0.0
H448 H 0.55482 0.48156 0.71228 0.0
H449 H 0.51181 0.57141 0.71142 0.0
H450 H 0.53912 0.61776 0.75639 0.0
H451 H 0.5515 0.62578 0.81 0.0
C452 C 0.46701 0.5283 0.41307 0.0
C453 C 0.49035 0.49741 0.42924 0.0
C454 C 0.46659 0.52493 0.38184 0.0
C455 C 0.48874 0.49012 0.36643 0.0
C456 C 0.51067 0.4588 0.38274 0.0
C457 C 0.51205 0.46266 0.41369 0.0
C458 C 0.48897 0.48431 0.33349 0.0
C459 C 0.4933 0.51836 0.31505 0.0
C460 C 0.50046 0.51113 0.28239 0.0
C461 C 0.5319 0.54369 0.26655 0.0
C462 C 0.54293 0.53604 0.23634 0.0
C463 C 0.52225 0.49576 0.22125 0.0
H464 H 0.45172 0.44661 0.27816 0.0
C465 C 0.48862 0.46418 0.23682 0.0
C466 C 0.47778 0.47175 0.26698 0.0
H467 H 0.47068 0.43339 0.22571 0.0
H468 H 0.44991 0.55537 0.4245 0.0
H469 H 0.44839 0.54911 0.36989 0.0
H470 H 0.52764 0.4315 0.37147 0.0
H471 H 0.52994 0.43807 0.42546 0.0
H472 H 0.49085 0.4507 0.32424 0.0
H473 H 0.49695 0.55248 0.32428 0.0
H474 H 0.54951 0.57449 0.27781 0.0
H475 H 0.56906 0.56108 0.22509 0.0
loop_
_geom_bond_atom_site_label_1
_geom_bond_atom_site_label_2
_geom_bond_distance
_geom_bond_site_symmetry_2
_ccdc_geom_bond_type
Co0 N5 2.057 . S
Co0 O17 2.021 . S
Co0 O20 2.062 1_455 S
Co0 O24 2.117 1_554 S
Co0 O25 2.020 1_565 S
C1 O21 1.259 1_455 S
C1 O24 1.258 1_545 S
Co2 N11 2.057 . S
Co2 O18 2.117 . S
Co2 O19 2.020 1_545 S
Co2 O21 2.021 1_554 S
Co2 O26 2.062 1_655 S
C3 N5 1.316 . S
C3 N6 1.347 . S
C3 H8 0.931 . S
C4 N5 1.375 1_556 S
C4 C7 1.350 . S
C4 H9 0.930 . S
N5 Co0 2.057 . S
N5 C3 1.316 . S
N5 C4 1.375 1_554 S
N6 C3 1.347 . S
N6 C7 1.373 1_554 S
C7 C4 1.350 . S
C7 N6 1.373 1_556 S
C7 H28 0.931 . S
H8 C3 0.931 . S
H9 C4 0.930 . S
C10 O17 1.259 1_545 S
C10 O18 1.258 1_455 S
N11 Co2 2.057 . S
N11 C12 1.316 . S
N11 C13 1.375 . S
C12 N11 1.316 . S
C12 N14 1.347 . S
C12 H23 0.931 1_554 S
C13 N11 1.375 . S
C13 C15 1.350 . S
C13 H22 0.930 . S
N14 C12 1.347 . S
N14 C15 1.373 . S
C15 C13 1.350 . S
C15 N14 1.373 . S
C15 H29 0.931 . S
C16 O19 1.256 . S
C16 O20 1.255 . S
O17 Co0 2.021 . S
O17 C10 1.259 1_565 S
O18 Co2 2.117 . S
O18 C10 1.258 1_655 S
O19 Co2 2.020 1_565 S
O19 C16 1.256 . S
O20 Co0 2.062 1_655 S
O20 C16 1.255 . S
O21 C1 1.259 1_655 S
O21 Co2 2.021 1_556 S
H22 C13 0.930 . S
H23 C12 0.931 1_556 S
O24 Co0 2.117 1_556 S
O24 C1 1.258 1_565 S
O25 Co0 2.020 1_545 S
O25 C27 1.256 . S
O26 Co2 2.062 1_455 S
O26 C27 1.255 . S
C27 O25 1.256 . S
C27 O26 1.255 . S
H28 C7 0.931 . S
H29 C15 0.931 . S
Co30 N35 2.057 . S
Co30 O47 2.021 . S
Co30 O50 2.062 . S
Co30 O54 2.117 . S
Co30 O55 2.020 . S
C31 O51 1.259 . S
C31 O54 1.258 . S
Co32 N41 2.057 . S
Co32 O48 2.117 . S
Co32 O49 2.020 . S
Co32 O51 2.021 . S
Co32 O56 2.062 . S
C33 N35 1.316 . S
C33 N36 1.347 . S
C33 H38 0.931 . S
C34 N35 1.375 . S
C34 C37 1.350 . S
C34 H39 0.930 . S
N35 Co30 2.057 . S
N35 C33 1.316 . S
N35 C34 1.375 . S
N36 C33 1.347 . S
N36 C37 1.373 . S
C37 C34 1.350 . S
C37 N36 1.373 . S
C37 H58 0.931 . S
H38 C33 0.931 . S
H39 C34 0.930 . S
C40 O47 1.259 . S
C40 O48 1.258 . S
N41 Co32 2.057 . S
N41 C42 1.316 . S
N41 C43 1.375 . S
C42 N41 1.316 . S
C42 N44 1.347 . S
C42 H53 0.931 . S
C43 N41 1.375 . S
C43 C45 1.350 . S
C43 H52 0.930 . S
N44 C42 1.347 . S
N44 C45 1.373 . S
C45 C43 1.350 . S
C45 N44 1.373 . S
C45 H59 0.931 . S
C46 O49 1.256 . S
C46 O50 1.255 . S
O47 Co30 2.021 . S
O47 C40 1.259 . S
O48 Co32 2.117 . S
O48 C40 1.258 . S
O49 Co32 2.020 . S
O49 C46 1.256 . S
O50 Co30 2.062 . S
O50 C46 1.255 . S
O51 C31 1.259 . S
O51 Co32 2.021 . S
H52 C43 0.930 . S
H53 C42 0.931 . S
O54 Co30 2.117 . S
O54 C31 1.258 . S
O55 Co30 2.020 . S
O55 C57 1.256 . S
O56 Co32 2.062 . S
O56 C57 1.255 . S
C57 O55 1.256 . S
C57 O56 1.255 . S
H58 C37 0.931 . S
H59 C45 0.931 . S
P60 O71 1.490 . S
P60 C74 1.812 . S
P60 C80 1.785 1_545 S
P60 C86 1.819 . S
H61 C75 0.941 . S
H62 C76 0.939 . S
H63 C78 0.940 . S
H64 C79 0.940 . S
H65 C81 0.939 1_545 S
H66 C82 0.942 . S
H67 C84 0.940 . S
H68 C85 0.941 1_655 S
H69 C87 0.941 . S
H70 C91 0.939 . S
O71 P60 1.490 . S
H72 C88 0.939 . S
H73 C90 0.940 . S
C74 P60 1.812 . S
C74 C75 1.389 . S
C74 C79 1.391 1_455 S
C75 H61 0.941 . S
C75 C74 1.389 . S
C75 C76 1.397 1_455 S
C76 H62 0.939 . S
C76 C75 1.397 1_655 S
C76 C77 1.378 . S
C77 C76 1.378 . S
C77 C78 1.378 . S
C78 H63 0.940 . S
C78 C77 1.378 . S
C78 C79 1.396 . S
C79 H64 0.940 . S
C79 C74 1.391 1_655 S
C79 C78 1.396 . S
C80 P60 1.785 1_565 S
C80 C81 1.386 . S
C80 C85 1.412 . S
C81 H65 0.939 1_565 S
C81 C80 1.386 . S
C81 C82 1.361 . S
C82 H66 0.942 . S
C82 C81 1.361 . S
C82 C83 1.369 . S
C83 C82 1.369 . S
C83 C84 1.404 . S
C84 H67 0.940 . S
C84 C83 1.404 . S
C84 C85 1.389 . S
C85 H68 0.941 1_455 S
C85 C80 1.412 . S
C85 C84 1.389 . S
C86 P60 1.819 . S
C86 C87 1.391 . S
C86 C91 1.391 1_545 S
C87 H69 0.941 . S
C87 C86 1.391 . S
C87 C88 1.396 . S
C88 H72 0.939 . S
C88 C87 1.396 . S
C88 C89 1.397 . S
C89 C88 1.397 . S
C89 C90 1.385 1_545 S
C90 H73 0.940 . S
C90 C89 1.385 1_565 S
C90 C91 1.388 . S
C91 H70 0.939 . S
C91 C86 1.391 1_565 S
C91 C90 1.388 . S
P92 O103 1.490 . S
P92 C106 1.812 1_455 S
P92 C112 1.803 1_565 S
P92 C118 1.819 . S
H93 C107 0.953 . S
H94 C108 0.939 . S
H95 C110 0.940 . S
H96 C111 0.940 . S
H97 C113 0.939 . S
H98 C114 0.942 . S
H99 C116 0.940 . S
H100 C117 0.939 . S
H101 C119 0.941 . S
H102 C123 0.939 . S
O103 P92 1.490 . S
H104 C120 0.939 . S
H105 C122 0.940 . S
C106 P92 1.812 1_655 S
C106 C107 1.387 1_655 S
C106 C111 1.391 . S
C107 H93 0.953 . S
C107 C106 1.387 1_455 S
C107 C108 1.387 1_455 S
C108 H94 0.939 . S
C108 C107 1.387 1_655 S
C108 C109 1.378 . S
C109 C108 1.378 . S
C109 C110 1.378 . S
C110 H95 0.940 . S
C110 C109 1.378 . S
C110 C111 1.396 . S
C111 H96 0.940 . S
C111 C106 1.391 . S
C111 C110 1.396 . S
C112 P92 1.803 1_545 S
C112 C113 1.378 . S
C112 C117 1.400 . S
C113 H97 0.939 . S
C113 C112 1.378 . S
C113 C114 1.361 . S
C114 H98 0.942 . S
C114 C113 1.361 . S
C114 C115 1.369 . S
C115 C114 1.369 . S
C115 C116 1.404 . S
C116 H99 0.940 . S
C116 C115 1.404 . S
C116 C117 1.389 . S
C117 H100 0.939 . S
C117 C112 1.400 . S
C117 C116 1.389 . S
C118 P92 1.819 . S
C118 C119 1.391 . S
C118 C123 1.391 1_565 S
C119 H101 0.941 . S
C119 C118 1.391 . S
C119 C120 1.396 . S
C120 H104 0.939 . S
C120 C119 1.396 . S
C120 C121 1.397 1_565 S
C121 C120 1.397 1_545 S
C121 C122 1.385 . S
C122 H105 0.940 . S
C122 C121 1.385 . S
C122 C123 1.388 . S
C123 H102 0.939 . S
C123 C118 1.391 1_545 S
C123 C122 1.388 . S
P124 O135 1.490 . S
P124 C138 1.812 . S
P124 C144 1.803 . S
P124 C150 1.819 . S
H125 C139 0.941 . S
H126 C140 0.945 . S
H127 C142 0.940 . S
H128 C143 0.940 . S
H129 C145 0.939 . S
H130 C146 0.942 . S
H131 C148 0.940 . S
H132 C149 0.939 . S
H133 C151 0.941 . S
H134 C155 0.939 . S
O135 P124 1.490 . S
H136 C152 0.939 . S
H137 C154 0.940 . S
C138 P124 1.812 . S
C138 C139 1.389 . S
C138 C143 1.391 . S
C139 H125 0.941 . S
C139 C138 1.389 . S
C139 C140 1.397 . S
C140 H126 0.945 . S
C140 C139 1.397 . S
C140 C141 1.378 . S
C141 C140 1.378 . S
C141 C142 1.378 . S
C142 H127 0.940 . S
C142 C141 1.378 . S
C142 C143 1.396 . S
C143 H128 0.940 . S
C143 C138 1.391 . S
C143 C142 1.396 . S
C144 P124 1.803 . S
C144 C145 1.378 . S
C144 C149 1.400 . S
C145 H129 0.939 . S
C145 C144 1.378 . S
C145 C146 1.361 . S
C146 H130 0.942 . S
C146 C145 1.361 . S
C146 C147 1.369 . S
C147 C146 1.369 . S
C147 C148 1.404 . S
C148 H131 0.940 . S
C148 C147 1.404 . S
C148 C149 1.389 . S
C149 H132 0.939 . S
C149 C144 1.400 . S
C149 C148 1.389 . S
C150 P124 1.819 . S
C150 C151 1.391 . S
C150 C155 1.391 . S
C151 H133 0.941 . S
C151 C150 1.391 . S
C151 C152 1.396 . S
C152 H136 0.939 . S
C152 C151 1.396 . S
C152 C153 1.397 . S
C153 C152 1.397 . S
C153 C154 1.385 . S
C154 H137 0.940 . S
C154 C153 1.385 . S
C154 C155 1.388 . S
C155 H134 0.939 . S
C155 C150 1.391 . S
C155 C154 1.388 . S
P156 O167 1.490 . S
P156 C170 1.812 . S
P156 C176 1.803 . S
P156 C182 1.819 . S
H157 C171 0.941 . S
H158 C172 0.939 . S
H159 C174 0.940 . S
H160 C175 0.940 . S
H161 C177 0.939 . S
H162 C178 0.942 . S
H163 C180 0.940 . S
H164 C181 0.939 . S
H165 C183 0.941 . S
H166 C187 0.939 . S
O167 P156 1.490 . S
H168 C184 0.939 . S
H169 C186 0.940 . S
C170 P156 1.812 . S
C170 C171 1.389 . S
C170 C175 1.391 . S
C171 H157 0.941 . S
C171 C170 1.389 . S
C171 C172 1.397 . S
C172 H158 0.939 . S
C172 C171 1.397 . S
C172 C173 1.378 . S
C173 C172 1.378 . S
C173 C174 1.378 . S
C174 H159 0.940 . S
C174 C173 1.378 . S
C174 C175 1.396 . S
C175 H160 0.940 . S
C175 C170 1.391 . S
C175 C174 1.396 . S
C176 P156 1.803 . S
C176 C177 1.378 . S
C176 C181 1.400 . S
C177 H161 0.939 . S
C177 C176 1.378 . S
C177 C178 1.361 . S
C178 H162 0.942 . S
C178 C177 1.361 . S
C178 C179 1.369 . S
C179 C178 1.369 . S
C179 C180 1.404 . S
C180 H163 0.940 . S
C180 C179 1.404 . S
C180 C181 1.389 . S
C181 H164 0.939 . S
C181 C176 1.400 . S
C181 C180 1.389 . S
C182 P156 1.819 . S
C182 C183 1.391 . S
C182 C187 1.391 . S
C183 H165 0.941 . S
C183 C182 1.391 . S
C183 C184 1.396 . S
C184 H168 0.939 . S
C184 C183 1.396 . S
C184 C185 1.397 . S
C185 C184 1.397 . S
C185 C186 1.385 . S
C186 H169 0.940 . S
C186 C185 1.385 . S
C186 C187 1.388 . S
C187 H166 0.939 . S
C187 C182 1.391 . S
C187 C186 1.388 . S
C188 C189 1.386 1_556 S
C188 C190 1.383 1_556 S
C188 H204 0.951 . S
C189 C188 1.386 1_554 S
C189 C193 1.383 . S
C190 C188 1.383 1_554 S
C190 C191 1.402 . S
C190 H205 0.951 1_554 S
C191 C190 1.402 . S
C191 C192 1.375 . S
C191 C194 1.481 . S
C192 C191 1.375 . S
C192 C193 1.367 . S
C192 H206 0.951 . S
C193 C189 1.383 . S
C193 C192 1.367 . S
C193 H207 0.950 . S
C194 C191 1.481 . S
C194 C195 1.297 . S
C194 H208 0.950 . S
C195 C194 1.297 . S
C195 C196 1.479 . S
C195 H209 0.950 . S
C196 C195 1.479 . S
C196 C197 1.375 . S
C196 C202 1.404 . S
C197 C196 1.375 . S
C197 C198 1.369 . S
C197 H210 0.950 1_554 S
C198 C197 1.369 . S
C198 C199 1.392 . S
C198 H211 0.951 1_554 S
C199 C198 1.392 . S
C199 C201 1.384 . S
H200 C202 0.949 . S
C201 C199 1.384 . S
C201 C202 1.385 . S
C201 H203 0.950 . S
C202 C196 1.404 . S
C202 H200 0.949 . S
C202 C201 1.385 . S
H203 C201 0.950 . S
H204 C188 0.951 . S
H205 C190 0.951 1_556 S
H206 C192 0.951 . S
H207 C193 0.950 . S
H208 C194 0.950 . S
H209 C195 0.950 . S
H210 C197 0.950 1_556 S
H211 C198 0.951 1_556 S
C212 C213 1.386 1_556 S
C212 C214 1.383 . S
C212 H228 0.951 . S
C213 C212 1.386 1_554 S
C213 C217 1.383 . S
C214 C212 1.383 . S
C214 C215 1.402 1_556 S
C214 H229 0.951 . S
C215 C214 1.402 1_554 S
C215 C216 1.375 . S
C215 C218 1.481 . S
C216 C215 1.375 . S
C216 C217 1.367 . S
C216 H230 0.951 . S
C217 C213 1.383 . S
C217 C216 1.367 . S
C217 H231 0.950 . S
C218 C215 1.481 . S
C218 C219 1.297 1_554 S
C218 H232 0.950 . S
C219 C218 1.297 1_556 S
C219 C220 1.479 . S
C219 H233 0.950 . S
C220 C219 1.479 . S
C220 C221 1.375 . S
C220 C226 1.404 . S
C221 C220 1.375 . S
C221 C222 1.369 . S
C221 H234 0.950 . S
C222 C221 1.369 . S
C222 C223 1.392 . S
C222 H235 0.951 . S
C223 C222 1.392 . S
C223 C225 1.384 . S
H224 C226 0.949 1_554 S
C225 C223 1.384 . S
C225 C226 1.385 . S
C225 H227 0.950 1_556 S
C226 C220 1.404 . S
C226 H224 0.949 1_556 S
C226 C225 1.385 . S
H227 C225 0.950 1_554 S
H228 C212 0.951 . S
H229 C214 0.951 . S
H230 C216 0.951 . S
H231 C217 0.950 . S
H232 C218 0.950 . S
H233 C219 0.950 . S
H234 C221 0.950 . S
H235 C222 0.951 . S
C236 C237 1.386 . S
C236 C238 1.383 . S
C236 H252 0.951 . S
C237 C236 1.386 . S
C237 C241 1.383 . S
C238 C236 1.383 . S
C238 C239 1.402 . S
C238 H253 0.951 . S
C239 C238 1.402 . S
C239 C240 1.375 . S
C239 C242 1.481 . S
C240 C239 1.375 . S
C240 C241 1.367 . S
C240 H254 0.951 . S
C241 C237 1.383 . S
C241 C240 1.367 . S
C241 H255 0.950 . S
C242 C239 1.481 . S
C242 C243 1.297 . S
C242 H256 0.950 . S
C243 C242 1.297 . S
C243 C244 1.479 . S
C243 H257 0.950 . S
C244 C243 1.479 . S
C244 C245 1.375 . S
C244 C250 1.404 . S
C245 C244 1.375 . S
C245 C246 1.369 . S
C245 H258 0.950 . S
C246 C245 1.369 . S
C246 C247 1.392 . S
C246 H259 0.951 . S
C247 C246 1.392 . S
C247 C249 1.384 . S
H248 C250 0.949 . S
C249 C247 1.384 . S
C249 C250 1.385 . S
C249 H251 0.950 . S
C250 C244 1.404 . S
C250 H248 0.949 . S
C250 C249 1.385 . S
H251 C249 0.950 . S
H252 C236 0.951 . S
H253 C238 0.951 . S
H254 C240 0.951 . S
H255 C241 0.950 . S
H256 C242 0.950 . S
H257 C243 0.950 . S
H258 C245 0.950 . S
H259 C246 0.951 . S
C260 C261 1.386 . S
C260 C262 1.383 1_554 S
C260 H276 0.951 . S
C261 C260 1.386 . S
C261 C265 1.383 . S
C262 C260 1.383 1_556 S
C262 C263 1.402 . S
C262 H277 0.951 . S
C263 C262 1.402 . S
C263 C264 1.371 1_556 S
C263 C266 1.484 . S
C264 C263 1.371 1_554 S
C264 C265 1.367 . S
C264 H278 0.951 . S
C265 C261 1.383 . S
C265 C264 1.367 . S
C265 H279 0.950 . S
C266 C263 1.484 . S
C266 C267 1.297 . S
C266 H280 0.950 . S
C267 C266 1.297 . S
C267 C268 1.479 . S
C267 H281 0.950 . S
C268 C267 1.479 . S
C268 C269 1.375 . S
C268 C274 1.404 . S
C269 C268 1.375 . S
C269 C270 1.369 . S
C269 H282 0.950 . S
C270 C269 1.369 . S
C270 C271 1.392 . S
C270 H283 0.951 . S
C271 C270 1.392 . S
C271 C273 1.384 . S
H272 C274 0.949 . S
C273 C271 1.384 . S
C273 C274 1.385 . S
C273 H275 0.950 . S
C274 C268 1.404 . S
C274 H272 0.949 . S
C274 C273 1.385 . S
H275 C273 0.950 . S
H276 C260 0.951 . S
H277 C262 0.951 . S
H278 C264 0.951 . S
H279 C265 0.950 . S
H280 C266 0.950 . S
H281 C267 0.950 . S
H282 C269 0.950 . S
H283 C270 0.951 . S
C284 C285 1.386 . S
C284 C286 1.383 . S
C284 H300 0.951 . S
C285 C284 1.386 . S
C285 C289 1.383 . S
C286 C284 1.383 . S
C286 C287 1.402 . S
C286 H301 0.951 . S
C287 C286 1.402 . S
C287 C288 1.375 . S
C287 C290 1.481 . S
C288 C287 1.375 . S
C288 C289 1.367 . S
C288 H302 0.951 . S
C289 C285 1.383 . S
C289 C288 1.367 . S
C289 H303 0.950 . S
C290 C287 1.481 . S
C290 C291 1.297 . S
C290 H304 0.950 . S
C291 C290 1.297 . S
C291 C292 1.479 . S
C291 H305 0.950 . S
C292 C291 1.479 . S
C292 C293 1.375 . S
C292 C298 1.404 . S
C293 C292 1.375 . S
C293 C294 1.369 . S
C293 H306 0.950 . S
C294 C293 1.369 . S
C294 C295 1.392 . S
C294 H307 0.951 . S
C295 C294 1.392 . S
C295 C297 1.384 . S
H296 C298 0.949 . S
C297 C295 1.384 . S
C297 C298 1.385 . S
C297 H299 0.950 . S
C298 C292 1.404 . S
C298 H296 0.949 . S
C298 C297 1.385 . S
H299 C297 0.950 . S
H300 C284 0.951 . S
H301 C286 0.951 . S
H302 C288 0.951 . S
H303 C289 0.950 . S
H304 C290 0.950 . S
H305 C291 0.950 . S
H306 C293 0.950 . S
H307 C294 0.951 . S
C308 C309 1.386 . S
C308 C310 1.383 . S
C308 H324 0.951 . S
C309 C308 1.386 . S
C309 C313 1.383 . S
C310 C308 1.383 . S
C310 C311 1.402 . S
C310 H325 0.951 . S
C311 C310 1.402 . S
C311 C312 1.375 . S
C311 C314 1.481 . S
C312 C311 1.375 . S
C312 C313 1.367 . S
C312 H326 0.951 . S
C313 C309 1.383 . S
C313 C312 1.367 . S
C313 H327 0.950 . S
C314 C311 1.481 . S
C314 C315 1.297 . S
C314 H328 0.950 . S
C315 C314 1.297 . S
C315 C316 1.479 . S
C315 H329 0.950 . S
C316 C315 1.479 . S
C316 C317 1.375 . S
C316 C322 1.404 . S
C317 C316 1.375 . S
C317 C318 1.369 . S
C317 H330 0.950 . S
C318 C317 1.369 . S
C318 C319 1.392 . S
C318 H331 0.951 . S
C319 C318 1.392 . S
C319 C321 1.384 . S
H320 C322 0.949 . S
C321 C319 1.384 . S
C321 C322 1.385 . S
C321 H323 0.950 . S
C322 C316 1.404 . S
C322 H320 0.949 . S
C322 C321 1.385 . S
H323 C321 0.950 . S
H324 C308 0.951 . S
H325 C310 0.951 . S
H326 C312 0.951 . S
H327 C313 0.950 . S
H328 C314 0.950 . S
H329 C315 0.950 . S
H330 C317 0.950 . S
H331 C318 0.951 . S
C332 C333 1.386 . S
C332 C334 1.383 . S
C332 H348 0.951 . S
C333 C332 1.386 . S
C333 C337 1.383 . S
C334 C332 1.383 . S
C334 C335 1.402 . S
C334 H349 0.951 . S
C335 C334 1.402 . S
C335 C336 1.375 . S
C335 C338 1.481 . S
C336 C335 1.375 . S
C336 C337 1.367 . S
C336 H350 0.951 . S
C337 C333 1.383 . S
C337 C336 1.367 . S
C337 H351 0.950 . S
C338 C335 1.481 . S
C338 C339 1.297 . S
C338 H352 0.950 . S
C339 C338 1.297 . S
C339 C340 1.479 . S
C339 H353 0.950 . S
C340 C339 1.479 . S
C340 C341 1.375 . S
C340 C346 1.404 . S
C341 C340 1.375 . S
C341 C342 1.369 . S
C341 H354 0.950 . S
C342 C341 1.369 . S
C342 C343 1.392 . S
C342 H355 0.951 . S
C343 C342 1.392 . S
C343 C345 1.384 . S
H344 C346 0.949 . S
C345 C343 1.384 . S
C345 C346 1.385 . S
C345 H347 0.950 . S
C346 C340 1.404 . S
C346 H344 0.949 . S
C346 C345 1.385 . S
H347 C345 0.950 . S
H348 C332 0.951 . S
H349 C334 0.951 . S
H350 C336 0.951 . S
H351 C337 0.950 . S
H352 C338 0.950 . S
H353 C339 0.950 . S
H354 C341 0.950 . S
H355 C342 0.951 . S
C356 C357 1.386 . S
C356 C358 1.383 . S
C356 H372 0.951 . S
C357 C356 1.386 . S
C357 C361 1.383 . S
C358 C356 1.383 . S
C358 C359 1.402 . S
C358 H373 0.951 . S
C359 C358 1.402 . S
C359 C360 1.375 . S
C359 C362 1.481 . S
C360 C359 1.375 . S
C360 C361 1.367 . S
C360 H374 0.951 . S
C361 C357 1.383 . S
C361 C360 1.367 . S
C361 H375 0.950 . S
C362 C359 1.481 . S
C362 C363 1.297 . S
C362 H376 0.950 . S
C363 C362 1.297 . S
C363 C364 1.479 . S
C363 H377 0.950 . S
C364 C363 1.479 . S
C364 C365 1.375 . S
C364 C370 1.404 . S
C365 C364 1.375 . S
C365 C366 1.369 . S
C365 H378 0.950 . S
C366 C365 1.369 . S
C366 C367 1.392 . S
C366 H379 0.951 . S
C367 C366 1.392 . S
C367 C369 1.384 . S
H368 C370 0.949 . S
C369 C367 1.384 . S
C369 C370 1.385 . S
C369 H371 0.950 . S
C370 C364 1.404 . S
C370 H368 0.949 . S
C370 C369 1.385 . S
H371 C369 0.950 . S
H372 C356 0.951 . S
H373 C358 0.951 . S
H374 C360 0.951 . S
H375 C361 0.950 . S
H376 C362 0.950 . S
H377 C363 0.950 . S
H378 C365 0.950 . S
H379 C366 0.951 . S
C380 C381 1.386 1_655 S
C380 C382 1.383 . S
C380 H396 0.951 . S
C381 C380 1.386 1_455 S
C381 C385 1.383 1_545 S
C382 C380 1.383 . S
C382 C383 1.402 1_545 S
C382 H397 0.951 . S
C383 C382 1.402 1_565 S
C383 C384 1.375 1_655 S
C383 C386 1.481 . S
C384 C383 1.375 1_455 S
C384 C385 1.367 . S
C384 H398 0.951 . S
C385 C381 1.383 1_565 S
C385 C384 1.367 . S
C385 H399 0.950 . S
C386 C383 1.481 . S
C386 C387 1.297 1_565 S
C386 H400 0.950 1_655 S
C387 C386 1.297 1_545 S
C387 C388 1.483 . S
C387 H401 0.950 . S
C388 C387 1.483 . S
C388 C389 1.394 . S
C388 C394 1.383 1_545 S
C389 C388 1.394 . S
C389 C390 1.369 . S
C389 H402 0.950 . S
C390 C389 1.369 . S
C390 C391 1.392 . S
C390 H403 0.951 . S
C391 C390 1.392 . S
C391 C393 1.384 1_645 S
H392 C394 0.949 1_455 S
C393 C391 1.384 1_465 S
C393 C394 1.385 1_455 S
C393 H395 0.950 . S
C394 C388 1.383 1_565 S
C394 H392 0.949 1_655 S
C394 C393 1.385 1_655 S
H395 C393 0.950 . S
H396 C380 0.951 . S
H397 C382 0.951 . S
H398 C384 0.951 . S
H399 C385 0.950 . S
H400 C386 0.950 1_455 S
H401 C387 0.950 . S
H402 C389 0.950 . S
H403 C390 0.951 . S
C404 C405 1.386 1_565 S
C404 C406 1.383 1_455 S
C404 H420 0.951 . S
C405 C404 1.386 1_545 S
C405 C409 1.383 1_455 S
C406 C404 1.383 1_655 S
C406 C407 1.402 1_565 S
C406 H421 0.951 . S
C407 C406 1.402 1_545 S
C407 C408 1.375 . S
C407 C410 1.481 . S
C408 C407 1.375 . S
C408 C409 1.367 . S
C408 H422 0.951 . S
C409 C405 1.383 1_655 S
C409 C408 1.367 . S
C409 H423 0.950 . S
C410 C407 1.481 . S
C410 C411 1.297 . S
C410 H424 0.950 . S
C411 C410 1.297 . S
C411 C412 1.479 . S
C411 H425 0.950 1_545 S
C412 C411 1.479 . S
C412 C413 1.375 1_545 S
C412 C418 1.404 . S
C413 C412 1.375 1_565 S
C413 C414 1.369 . S
C413 H426 0.950 . S
C414 C413 1.369 . S
C414 C415 1.392 1_565 S
C414 H427 0.951 1_655 S
C415 C414 1.392 1_545 S
C415 C417 1.384 . S
H416 C418 0.949 . S
C417 C415 1.384 . S
C417 C418 1.385 . S
C417 H419 0.950 . S
C418 C412 1.404 . S
C418 H416 0.949 . S
C418 C417 1.385 . S
H419 C417 0.950 . S
H420 C404 0.951 . S
H421 C406 0.951 . S
H422 C408 0.951 . S
H423 C409 0.950 . S
H424 C410 0.950 . S
H425 C411 0.950 1_565 S
H426 C413 0.950 . S
H427 C414 0.951 1_455 S
C428 C429 1.386 . S
C428 C430 1.383 . S
C428 H444 0.951 . S
C429 C428 1.386 . S
C429 C433 1.383 . S
C430 C428 1.383 . S
C430 C431 1.402 . S
C430 H445 0.951 . S
C431 C430 1.402 . S
C431 C432 1.375 . S
C431 C434 1.481 . S
C432 C431 1.375 . S
C432 C433 1.367 . S
C432 H446 0.951 . S
C433 C429 1.383 . S
C433 C432 1.367 . S
C433 H447 0.950 . S
C434 C431 1.481 . S
C434 C435 1.297 . S
C434 H448 0.950 . S
C435 C434 1.297 . S
C435 C436 1.479 . S
C435 H449 0.950 . S
C436 C435 1.479 . S
C436 C437 1.375 . S
C436 C442 1.404 . S
C437 C436 1.375 . S
C437 C438 1.369 . S
C437 H450 0.950 . S
C438 C437 1.369 . S
C438 C439 1.392 . S
C438 H451 0.951 . S
C439 C438 1.392 . S
C439 C441 1.384 . S
H440 C442 0.949 . S
C441 C439 1.384 . S
C441 C442 1.385 . S
C441 H443 0.950 . S
C442 C436 1.404 . S
C442 H440 0.949 . S
C442 C441 1.385 . S
H443 C441 0.950 . S
H444 C428 0.951 . S
H445 C430 0.951 . S
H446 C432 0.951 . S
H447 C433 0.950 . S
H448 C434 0.950 . S
H449 C435 0.950 . S
H450 C437 0.950 . S
H451 C438 0.951 . S
C452 C453 1.386 . S
C452 C454 1.383 . S
C452 H468 0.951 . S
C453 C452 1.386 . S
C453 C457 1.383 . S
C454 C452 1.383 . S
C454 C455 1.402 . S
C454 H469 0.951 . S
C455 C454 1.402 . S
C455 C456 1.375 . S
C455 C458 1.481 . S
C456 C455 1.375 . S
C456 C457 1.367 . S
C456 H470 0.951 . S
C457 C453 1.383 . S
C457 C456 1.367 . S
C457 H471 0.950 . S
C458 C455 1.481 . S
C458 C459 1.297 . S
C458 H472 0.950 . S
C459 C458 1.297 . S
C459 C460 1.479 . S
C459 H473 0.950 . S
C460 C459 1.479 . S
C460 C461 1.375 . S
C460 C466 1.404 . S
C461 C460 1.375 . S
C461 C462 1.369 . S
C461 H474 0.950 . S
C462 C461 1.369 . S
C462 C463 1.392 . S
C462 H475 0.951 . S
C463 C462 1.392 . S
C463 C465 1.384 . S
H464 C466 0.949 . S
C465 C463 1.384 . S
C465 C466 1.385 . S
C465 H467 0.950 . S
C466 C460 1.404 . S
C466 H464 0.949 . S
C466 C465 1.385 . S
H467 C465 0.950 . S
H468 C452 0.951 . S
H469 C454 0.951 . S
H470 C456 0.951 . S
H471 C457 0.950 . S
H472 C458 0.950 . S
H473 C459 0.950 . S
H474 C461 0.950 . S
H475 C462 0.951 . S
C199 C173 1.410 . S
C189 C27 1.406 . S
C213 N6 1.312 . S
C223 C141 1.288 . S
C237 C16 1.394 . S
C247 C179 1.316 . S
C261 N14 1.347 . S
C271 C147 1.302 . S
C285 C57 1.413 . S
C295 C109 1.396 . S
C309 N36 1.316 . S
C319 C77 1.377 . S
C343 C115 1.379 . S
C333 C46 1.406 . S
C367 C83 1.317 . S
C357 N44 1.368 . S
C381 C10 1.391 . S
C391 C89 1.399 1_655 S
C405 C1 1.517 . S
C415 C121 1.515 1_655 S
C439 C153 1.382 . S
C429 C40 1.397 . S
C453 C31 1.530 . S
C463 C185 1.450 . S
