# Generated by pormake.
# Topology tsx, (6,3)-cn, num edge types: 1
# Building blocks:
#     Node 0, Type 0, BuildingBlock: JUFBIX_clean_sbu_0, # of connection points: 6
#     Node 1, Type 0, BuildingBlock: JUFBIX_clean_sbu_0, # of connection points: 6
#     Node 2, Type 1, BuildingBlock: VETTIZ_charged_linker_0, # of connection points: 3
#     Node 3, Type 1, BuildingBlock: VETTIZ_charged_linker_0, # of connection points: 3
#     Node 4, Type 1, BuildingBlock: VETTIZ_charged_linker_0, # of connection points: 3
#     Node 5, Type 1, BuildingBlock: VETTIZ_charged_linker_0, # of connection points: 3
#     Edge 6, Type (0, 1), BuildingBlock: OJICUG_clean_linker_0, # of connection points: 2
#     Edge 7, Type (0, 1), BuildingBlock: OJICUG_clean_linker_0, # of connection points: 2
#     Edge 8, Type (0, 1), BuildingBlock: OJICUG_clean_linker_0, # of connection points: 2
#     Edge 9, Type (0, 1), BuildingBlock: OJICUG_clean_linker_0, # of connection points: 2
#     Edge 10, Type (0, 1), BuildingBlock: OJICUG_clean_linker_0, # of connection points: 2
#     Edge 11, Type (0, 1), BuildingBlock: OJICUG_clean_linker_0, # of connection points: 2
#     Edge 12, Type (0, 1), BuildingBlock: OJICUG_clean_linker_0, # of connection points: 2
#     Edge 13, Type (0, 1), BuildingBlock: OJICUG_clean_linker_0, # of connection points: 2
#     Edge 14, Type (0, 1), BuildingBlock: OJICUG_clean_linker_0, # of connection points: 2
#     Edge 15, Type (0, 1), BuildingBlock: OJICUG_clean_linker_0, # of connection points: 2
#     Edge 16, Type (0, 1), BuildingBlock: OJICUG_clean_linker_0, # of connection points: 2
#     Edge 17, Type (0, 1), BuildingBlock: OJICUG_clean_linker_0, # of connection points: 2
# Relax obj value: 0.165
# Max RMSD: 0.171
# Mean RMSD: 0.140
data_MOF--net-tsx--node1-JUFBIX_clean_sbu_0--node2-VETTIZ_charged_linker_0--edge1-OJICUG_clean_linker_0
_symmetry_space_group_name_H-M    P1
_symmetry_Int_Tables_number       1
_symmetry_cell_setting            triclinic
loop_
_symmetry_equiv_pos_as_xyz
'x, y, z'
_cell_length_a     18.26805
_cell_length_b     21.291857
_cell_length_c     35.315422
_cell_angle_alpha  92.822135
_cell_angle_beta   90.264871
_cell_angle_gamma 100.08957
loop_
_atom_site_label
_atom_site_type_symbol
_atom_site_fract_x
_atom_site_fract_y
_atom_site_fract_z
_atom_type_partial_charge
Co0 Co 0.12482 0.09473 0.0025 0.0
C1 C 0.04715 0.09577 0.93523 0.0
Co2 Co 0.03355 0.15077 0.00736 0.0
C3 C 0.20615 0.98945 -0.0152 0.0
C4 C 0.27211 0.07084 0.01367 0.0
N5 N 0.20348 0.04922 -0.00083 0.0
N6 N 0.27398 0.97306 -0.01018 0.0
C7 C 0.31518 0.02456 0.00809 0.0
H8 H 0.15909 0.95871 0.97106 0.0
H9 H 0.28941 0.11706 0.02817 0.0
C10 C 0.11164 0.14857 0.07439 0.0
N11 N 0.95576 0.19603 0.01195 0.0
C12 C 0.93159 0.23402 -0.0131 0.0
C13 C 0.91066 0.19773 0.04199 0.0
N14 N 0.87348 0.25957 0.00025 0.0
C15 C 0.8603 0.23693 0.03496 0.0
C16 C 0.98981 1.02191 0.02194 0.0
O17 O 0.14775 0.11388 0.05433 0.0
O18 O 0.05775 0.16938 0.05953 0.0
O19 O 0.96785 0.07504 0.01964 0.0
O20 O 0.0577 1.01904 0.01523 0.0
O21 O 1.01028 0.13087 0.95485 0.0
H22 H 0.9139 0.1718 0.06735 0.0
H23 H 0.95665 0.24324 0.95956 0.0
O24 O 0.10129 0.07578 0.95058 0.0
O25 O 0.19058 0.1719 -0.00933 0.0
O26 O 0.10005 0.22701 -0.00409 0.0
C27 C 0.16865 0.22557 -0.0092 0.0
H28 H 0.37211 0.02838 0.01778 0.0
H29 H 0.81644 0.24693 0.05361 0.0
Co30 Co 0.51195 0.41848 0.49146 0.0
C31 C 0.49957 0.44858 0.41661 0.0
Co32 Co 0.42241 0.47445 0.48065 0.0
C33 C 0.60333 0.31996 0.47942 0.0
C34 C 0.63377 0.37744 0.53034 0.0
N35 N 0.58716 0.37097 0.50013 0.0
N36 N 0.65768 0.29405 0.49568 0.0
C37 C 0.6769 0.33039 0.52772 0.0
H38 H 0.57456 0.30138 0.45329 0.0
H39 H 0.63572 0.41368 0.55307 0.0
C40 C 0.43575 0.44572 0.55541 0.0
N41 N 0.34398 0.51858 0.47292 0.0
C42 C 0.33702 0.56796 0.45118 0.0
C43 C 0.27811 0.50514 0.4906 0.0
N44 N 0.26976 0.58595 0.45523 0.0
C45 C 0.23286 0.54644 0.48003 0.0
C46 C 0.37472 0.34225 0.47654 0.0
O47 O 0.48795 0.41795 0.54351 0.0
O48 O 0.40069 0.47372 0.53241 0.0
O49 O 0.35462 0.39573 0.47242 0.0
O50 O 0.4429 0.34116 0.48326 0.0
O51 O 0.44638 0.47529 0.42867 0.0
H52 H 0.26375 0.46751 0.51016 0.0
H53 H 0.38072 0.59092 0.43333 0.0
O54 O 0.53467 0.41977 0.43939 0.0
O55 O 0.58022 0.49801 0.50056 0.0
O56 O 0.49073 0.55249 0.49019 0.0
C57 C 0.55824 0.55165 0.49921 0.0
H58 H 0.71993 0.32411 0.54764 0.0
H59 H 0.1767 0.54695 0.48954 0.0
C60 C 0.08813 0.80914 0.39672 0.0
C61 C 0.15554 0.78965 0.38575 0.0
C62 C 0.20128 0.82666 0.3601 0.0
C63 C 0.1166 0.90225 0.35899 0.0
C64 C 0.07051 0.86634 0.38363 0.0
C65 C 1.00734 0.89978 0.39629 0.0
H66 H 0.88965 0.19078 0.41074 0.0
C67 C 0.08972 0.96273 0.35451 0.0
C68 C 0.02795 0.96431 0.37809 0.0
H69 H 0.7787 1.01771 0.45855 0.0
H70 H 0.86727 0.95849 0.42762 0.0
H71 H 0.0647 0.17384 0.42029 0.0
H72 H 0.89101 0.13661 0.33733 0.0
H73 H 0.96919 0.13324 0.30939 0.0
H74 H 0.96044 0.20655 0.33562 0.0
H75 H 0.02558 0.23179 0.39518 0.0
H76 H 0.10284 0.19848 0.3764 0.0
C77 C 1.00775 0.90581 0.4397 0.0
C78 C 0.93381 0.86137 0.37984 0.0
C79 C 0.17882 0.10048 0.24642 0.0
C80 C 0.15866 0.15754 0.23483 0.0
C81 C 0.12856 0.19667 0.26172 0.0
C82 C 0.10921 0.17508 0.29769 0.0
C83 C 0.11917 0.11355 0.30655 0.0
C84 C 0.15849 0.0794 0.28241 0.0
C85 C 0.16895 1.01719 0.29827 0.0
C86 C 0.11727 1.01488 0.33212 0.0
C87 C 0.08873 0.07144 0.33672 0.0
C88 C 0.25195 0.0236 0.31044 0.0
C89 C 0.14279 0.96187 0.26847 0.0
C90 C 0.88579 0.14052 0.41585 0.0
C91 C 0.82812 0.10925 0.43753 0.0
C92 C 0.82381 0.04324 0.44252 0.0
C93 C 0.87607 1.00921 0.42525 0.0
C94 C 0.93505 0.0421 0.40434 0.0
C95 C 0.9372 0.10653 0.39934 0.0
C96 C 0.9938 0.13296 0.37132 0.0
C97 C 0.02951 0.07532 0.36194 0.0
C98 C 0.99674 1.02173 0.38174 0.0
C99 C 0.04972 0.1875 0.39161 0.0
C100 C 0.95213 0.15373 0.33669 0.0
H101 H 0.21982 0.90842 0.32778 0.0
H102 H 0.05102 0.7814 0.41588 0.0
H103 H 0.88719 0.88767 0.38395 0.0
H104 H 0.91956 0.81491 0.39345 0.0
H105 H 0.93838 0.85152 0.34879 0.0
H106 H 0.05845 0.93869 0.45047 0.0
H107 H 1.00595 0.8589 0.45238 0.0
H108 H 0.95821 0.92314 0.44992 0.0
H109 H 0.20374 0.07001 0.22681 0.0
H110 H 0.11563 0.24221 0.2541 0.0
H111 H 0.084 0.20577 0.31653 0.0
H112 H 0.28334 0.07307 0.30855 0.0
H113 H 0.28132 0.99225 0.2922 0.0
H114 H 0.25789 1.012 0.34049 0.0
H115 H 0.08669 0.96496 0.25714 0.0
H116 H 0.1386 0.91433 0.28021 0.0
H117 H 0.18176 0.96365 0.24435 0.0
H118 H 0.254 0.8144 0.35146 0.0
C119 C 0.18206 0.88229 0.34671 0.0
C120 C 0.09302 0.11793 0.52968 0.0
C121 C 0.16753 0.14381 0.53944 0.0
C122 C 0.1967 0.12917 0.57435 0.0
C123 C 0.07812 0.06679 0.58983 0.0
C124 C 0.04997 0.07779 0.55488 0.0
C125 C 0.97375 0.03773 0.54798 0.0
H126 H 0.70961 0.79346 0.60301 0.0
C127 C 1.02196 1.02157 0.60891 0.0
C128 C 0.96726 0.99551 0.5821 0.0
H129 H 0.82477 0.79079 0.49668 0.0
H130 H 0.91557 0.88207 0.52019 0.0
H131 H 0.86596 0.81073 0.64664 0.0
H132 H 0.73653 0.95837 0.62601 0.0
H133 H 0.76895 0.96434 0.67342 0.0
H134 H 0.704 0.89463 0.65661 0.0
H135 H 0.77464 0.80884 0.66587 0.0
H136 H 0.85475 0.8562 0.68874 0.0
C137 C 0.971 1.0013 0.50975 0.0
C138 C 0.91443 0.08097 0.54957 0.0
C139 C 1.02151 0.03728 0.75213 0.0
C140 C 0.96745 1.01767 0.77915 0.0
C141 C 0.89784 0.98274 0.76689 0.0
C142 C 0.88336 0.96622 0.72814 0.0
C143 C 0.93898 0.98509 0.70152 0.0
C144 C 1.00583 1.02173 0.71374 0.0
C145 C 0.05624 0.04318 0.6817 0.0
C146 C 1.00869 1.01316 0.64799 0.0
C147 C 0.94076 0.9777 0.65963 0.0
C148 C 0.12863 1.01508 0.68533 0.0
C149 C 0.06956 0.1171 0.68275 0.0
C150 C 0.75075 0.81569 0.58355 0.0
C151 C 0.75693 0.78727 0.54702 0.0
C152 C 0.81603 0.81379 0.52393 0.0
C153 C 0.86632 0.86862 0.53644 0.0
C154 C 0.85552 0.89957 0.57143 0.0
C155 C 0.80241 0.87025 0.59572 0.0
C156 C 0.8179 0.8961 0.63627 0.0
C157 C 0.89 0.94348 0.6319 0.0
C158 C 0.9065 0.94952 0.5934 0.0
C159 C 0.82867 0.84028 0.66096 0.0
C160 C 0.75341 0.92995 0.6491 0.0
H161 H 0.17806 0.07969 0.62511 0.0
H162 H 0.06991 0.12751 0.50272 0.0
H163 H 0.85782 0.0517 0.5466 0.0
H164 H 0.92241 0.11469 0.52626 0.0
H165 H 0.91761 0.10934 0.57701 0.0
H166 H 1.00837 0.96553 0.51063 0.0
H167 H 0.98941 0.0337 0.48664 0.0
H168 H 0.91304 0.97864 0.50243 0.0
H169 H 0.07483 0.0654 0.76072 0.0
H170 H 0.85513 0.96759 0.78731 0.0
H171 H 0.8296 0.93953 0.72032 0.0
H172 H 0.17477 0.05125 0.69785 0.0
H173 H 0.14628 0.99636 0.65766 0.0
H174 H 0.12114 0.97345 0.70366 0.0
H175 H 1.01587 0.13454 0.68031 0.0
H176 H 0.10548 0.13748 0.65992 0.0
H177 H 0.0971 0.13761 0.7098 0.0
H178 H 0.25372 0.14842 0.5826 0.0
C179 C 0.15269 0.09031 0.59929 0.0
C180 C 0.64279 0.44167 0.94098 0.0
C181 C 0.7055 0.42205 0.92401 0.0
C182 C 0.72665 0.44318 0.88769 0.0
C183 C 0.61855 0.49365 0.88393 0.0
C184 C 0.60168 0.4791 0.92078 0.0
C185 C 0.53862 0.51053 0.93486 0.0
H186 H 0.29904 0.71277 0.90024 0.0
C187 C 0.56463 0.53118 0.87025 0.0
C188 C 0.52741 0.5516 0.90181 0.0
H189 H 0.46664 0.75032 -0.01086 0.0
H190 H 0.52517 0.66434 0.96158 0.0
H191 H 0.41944 0.70625 0.84002 0.0
H192 H 0.27941 0.54765 0.89015 0.0
H193 H 0.2905 0.52723 0.84194 0.0
H194 H 0.24426 0.59334 0.85509 0.0
H195 H 0.3202 0.689 0.8332 0.0
H196 H 0.38006 0.64956 0.8042 0.0
C197 C 0.56066 0.54888 0.97188 0.0
C198 C 0.46914 0.45921 0.94002 0.0
C199 C 0.47801 0.48215 0.73438 0.0
C200 C 0.41163 0.48629 0.71532 0.0
C201 C 0.35576 0.51203 0.73495 0.0
C202 C 0.3669 0.53451 0.77285 0.0
C203 C 0.43455 0.53133 0.79107 0.0
C204 C 0.4876 0.50333 0.77227 0.0
C205 C 0.55424 0.50007 0.79663 0.0
C206 C 0.53123 0.52929 0.83382 0.0
C207 C 0.46232 0.54957 0.82984 0.0
C208 C 0.62283 0.54198 0.77982 0.0
C209 C 0.56273 0.42922 0.79887 0.0
C210 C 0.34434 0.69917 0.91597 0.0
C211 C 0.3756 0.73666 0.94797 0.0
C212 C 0.43926 0.72085 0.96553 0.0
C213 C 0.4712 0.66933 0.95123 0.0
C214 C 0.43697 0.63062 0.92076 0.0
C215 C 0.37739 0.64793 0.90206 0.0
C216 C 0.36606 0.61546 0.86289 0.0
C217 C 0.43183 0.58029 0.86096 0.0
C218 C 0.4675 0.58433 0.89616 0.0
C219 C 0.3713 0.6674 0.83331 0.0
C220 C 0.29098 0.56867 0.8621 0.0
H221 H 0.7035 0.49656 0.84098 0.0
H222 H 0.62565 0.42783 0.96911 0.0
H223 H 0.42069 0.48176 0.94815 0.0
H224 H 0.47928 0.42693 0.96248 0.0
H225 H 0.45442 0.4298 0.91327 0.0
H226 H 0.60752 0.58859 0.96735 0.0
H227 H 0.57737 0.51856 -0.00605 0.0
H228 H 0.51173 0.56743 -0.01746 0.0
H229 H 0.52277 0.46415 0.71986 0.0
H230 H 0.30378 0.51519 0.72092 0.0
H231 H 0.32294 0.55411 0.7864 0.0
H232 H 0.64427 0.51651 0.7552 0.0
H233 H 0.6682 0.55633 0.80088 0.0
H234 H 0.60854 0.58727 0.77002 0.0
H235 H 0.52062 0.40382 0.81801 0.0
H236 H 0.61857 0.42382 0.80853 0.0
H237 H 0.55544 0.40364 0.77057 0.0
H238 H 0.77682 0.43225 0.8747 0.0
C239 C 0.68403 0.47968 0.86789 0.0
C240 C 0.71828 0.78524 0.07195 0.0
C241 C 0.79285 0.80818 0.08356 0.0
C242 C 0.82369 0.77783 0.11281 0.0
C243 C 0.70687 0.70676 0.11999 0.0
C244 C 0.67686 0.73282 0.08983 0.0
C245 C 0.60449 0.69078 0.07628 0.0
H246 H 0.43613 0.37533 0.06346 0.0
C247 C 0.65799 0.64772 0.12852 0.0
C248 C 0.6024 0.63275 0.10058 0.0
H249 H 0.35347 0.52798 0.01071 0.0
H250 H 0.44642 0.60648 0.04643 0.0
H251 H 0.61947 0.42933 0.07163 0.0
H252 H 0.42389 0.41598 0.13251 0.0
H253 H 0.48169 0.46322 0.16714 0.0
H254 H 0.49643 0.38364 0.15279 0.0
H255 H 0.55957 0.3629 0.0913 0.0
H256 H 0.6341 0.40987 0.1192 0.0
C257 C 0.60872 0.67393 0.03384 0.0
C258 C 0.53972 0.72625 0.08554 0.0
C259 C 0.63828 0.55149 0.25547 0.0
C260 C 0.6109 0.48889 0.26594 0.0
C261 C 0.60316 0.43813 0.23826 0.0
C262 C 0.61407 0.45066 0.19996 0.0
C263 C 0.63074 0.51419 0.18973 0.0
C264 C 0.64936 0.56288 0.2171 0.0
C265 C 0.67533 0.62609 0.19993 0.0
C266 C 0.66412 0.60647 0.15776 0.0
C267 C 0.62976 0.54254 0.15284 0.0
C268 C 0.75668 0.65105 0.2121 0.0
C269 C 0.62507 0.67428 0.21248 0.0
C270 C 0.44029 0.42535 0.0577 0.0
C271 C 0.3905 0.44492 0.03234 0.0
C272 C 0.39307 0.51127 0.02893 0.0
C273 C 0.44751 0.55658 0.04895 0.0
C274 C 0.50016 0.53526 0.07208 0.0
C275 C 0.49204 0.47072 0.07808 0.0
C276 C 0.53685 0.45696 0.11135 0.0
C277 C 0.57897 0.52344 0.12215 0.0
C278 C 0.56016 0.56925 0.09798 0.0
C279 C 0.59039 0.41209 0.09777 0.0
C280 C 0.48257 0.42866 0.14263 0.0
H281 H 0.80971 0.69909 0.14857 0.0
H282 H 0.69458 0.80542 0.04822 0.0
H283 H 0.48524 0.69553 0.07948 0.0
H284 H 0.54351 0.7693 0.06858 0.0
H285 H 0.54098 0.74187 0.1161 0.0
H286 H 0.65341 0.64554 0.02806 0.0
H287 H 0.61929 0.71739 0.01717 0.0
H288 H 0.55537 0.64654 0.02377 0.0
H289 H 0.64769 0.59082 0.27658 0.0
H290 H 0.58457 0.38933 0.24594 0.0
H291 H 0.60781 0.41122 0.17941 0.0
H292 H 0.76446 0.64688 0.24305 0.0
H293 H 0.77278 0.70262 0.20714 0.0
H294 H 0.79489 0.62337 0.197 0.0
H295 H 0.56581 0.65487 0.20531 0.0
H296 H 0.64123 0.71975 0.19804 0.0
H297 H 0.63001 0.68545 0.24355 0.0
H298 H 0.88131 0.79275 0.12149 0.0
C299 C 0.78167 0.72613 0.13016 0.0
C300 C 0.20339 0.34498 0.0032 0.0
C301 C 0.22417 0.28608 -0.00792 0.0
H302 H 0.2397 0.44192 0.02446 0.0
C303 C 0.30021 0.28399 -0.01188 0.0
H304 H 0.14531 0.34847 0.00657 0.0
C305 C 0.35402 0.33754 -0.00178 0.0
C306 C 0.33349 0.39475 0.01268 0.0
H307 H 0.31848 0.23982 0.97939 0.0
H308 H 0.41209 0.33296 -0.0032 0.0
C309 C 0.25752 0.39878 0.01338 0.0
C310 C 0.24715 0.8567 0.97087 0.0
C311 C 0.2984 0.91345 0.97901 0.0
H312 H 0.23105 0.75635 0.95514 0.0
C313 C 0.37483 0.91081 0.97693 0.0
H314 H 0.18797 0.85636 0.97241 0.0
C315 C 0.39933 0.85349 0.96756 0.0
C316 C 0.34833 0.79682 0.95962 0.0
H317 H 0.4164 0.95327 -0.018 0.0
H318 H 0.45859 0.85402 0.96565 0.0
C319 C 0.27184 0.79917 0.96114 0.0
C320 C 0.96242 0.9077 0.04035 0.0
C321 C 0.93747 0.96521 0.0343 0.0
H322 H 0.93613 0.81292 0.05988 0.0
C323 C 0.86265 0.96898 0.04198 0.0
H324 H 1.01937 0.90284 0.0345 0.0
C325 C 0.81477 0.91728 0.05663 0.0
C326 C 0.84073 0.86081 0.0642 0.0
H327 H 0.84138 1.01247 0.03753 0.0
H328 H 0.75825 0.92238 0.06335 0.0
C329 C 0.9147 0.85623 0.05511 0.0
C330 C 0.82274 0.29509 0.94167 0.0
C331 C 0.83252 0.30096 -0.0188 0.0
H332 H 0.77323 0.32687 0.89288 0.0
C333 C 0.80048 0.34702 0.00194 0.0
H334 H 0.84572 0.25931 0.92504 0.0
C335 C 0.75974 0.38659 -0.01648 0.0
C336 C 0.74937 0.3805 0.94391 0.0
H337 H 0.80785 0.35307 0.03241 0.0
H338 H 0.73729 0.42246 0.00036 0.0
C339 C 0.78126 0.33403 0.92328 0.0
C340 C 0.5808 0.66685 0.52308 0.0
C341 C 0.60939 0.61244 0.51019 0.0
H342 H 0.60488 0.7641 0.54548 0.0
C343 C 0.687 0.61623 0.50934 0.0
H344 H 0.52131 0.66548 0.52441 0.0
C345 C 0.73476 0.67315 0.52079 0.0
C346 C 0.70608 0.72716 0.53423 0.0
H347 H 0.71088 0.57525 0.49968 0.0
H348 H 0.79429 0.67458 0.5198 0.0
C349 C 0.62856 0.72324 0.53538 0.0
C350 C 0.69641 0.22838 0.44199 0.0
C351 C 0.6913 0.24102 0.48122 0.0
H352 H 0.74307 0.17613 0.39756 0.0
C353 C 0.72364 0.20331 0.50602 0.0
H354 H 0.67257 0.25645 0.42207 0.0
C355 C 0.7633 0.15647 0.4919 0.0
C356 C 0.77231 0.14695 0.45271 0.0
H357 H 0.71976 0.21103 0.53641 0.0
H358 H 0.79024 0.13027 0.51163 0.0
C359 C 0.73679 0.18229 0.42795 0.0
C360 C 0.24205 0.28869 0.48412 0.0
C361 C 0.31806 0.28442 0.48209 0.0
H362 H 0.13428 0.24697 0.50384 0.0
C363 C 0.34056 0.22783 0.49264 0.0
H364 H 0.22267 0.33148 0.4761 0.0
C365 C 0.28998 0.17976 0.50866 0.0
C366 C 0.21572 0.18699 0.51432 0.0
H367 H 0.39839 0.22252 0.49113 0.0
H368 H 0.31001 0.13844 0.51863 0.0
C369 C 0.19128 0.24028 0.50004 0.0
C370 C 0.19595 0.67268 0.45803 0.0
C371 C 0.24168 0.63679 0.43762 0.0
H372 H 0.13434 0.74923 0.45826 0.0
C373 C 0.25679 0.64967 0.39962 0.0
H374 H 0.18386 0.66406 0.48749 0.0
C375 C 0.22655 0.6974 0.38235 0.0
C376 C 0.1818 0.73446 0.40294 0.0
H377 H 0.29076 0.62193 0.38309 0.0
H378 H 0.23833 0.70507 0.35276 0.0
C379 C 0.16687 0.72115 0.44106 0.0
C380 C 0.19626 0.14705 0.12992 0.0
C381 C 0.1302 0.16171 0.11495 0.0
H382 H 0.25917 0.13718 0.17983 0.0
C383 C 0.07994 0.18506 0.13948 0.0
H384 H 0.23679 0.13015 0.11153 0.0
C385 C 0.09242 0.18852 0.17856 0.0
C386 C 0.1558 0.16925 0.19385 0.0
H387 H 0.02881 0.19714 0.12872 0.0
H388 H 0.04957 0.20195 0.19675 0.0
C389 C 0.20915 0.15115 0.16901 0.0
C390 C 0.95771 0.08572 0.88 0.0
C391 C 0.02574 0.07578 0.89539 0.0
H392 H 0.88518 0.07399 0.83112 0.0
C393 C 0.07249 0.04435 0.87268 0.0
H394 H 0.9202 0.10934 0.89689 0.0
C395 C 0.05246 0.02433 0.83528 0.0
C396 C 0.98489 0.03466 0.81977 0.0
H397 H 0.12502 0.03555 0.88368 0.0
H398 H 0.09005 1.00082 0.81835 0.0
C399 C 0.93725 0.06494 0.84256 0.0
C400 C 0.38249 0.49797 0.61058 0.0
C401 C 0.41897 0.44945 0.59588 0.0
H402 H 0.3523 0.54824 0.66022 0.0
C403 C 0.44315 0.40741 0.62047 0.0
H404 H 0.36295 0.53087 0.59211 0.0
C405 C 0.43513 0.41627 0.65944 0.0
C406 C 0.40444 0.46822 0.67441 0.0
H407 H 0.47012 0.36886 0.60968 0.0
H408 H 0.45596 0.3841 0.67793 0.0
C409 C 0.37573 0.50759 0.64959 0.0
C410 C 0.57466 0.41833 0.36176 0.0
C411 C 0.52499 0.45588 0.3773 0.0
H412 H 0.64113 0.39941 0.31397 0.0
C413 C 0.50381 0.50371 0.3559 0.0
H414 H 0.592 0.38116 0.3777 0.0
C415 C 0.53293 0.51475 0.31998 0.0
C416 C 0.583 0.47768 0.30456 0.0
H417 H 0.466 0.53363 0.3672 0.0
H418 H 0.51568 0.55197 0.30403 0.0
C419 C 0.60293 0.42879 0.32547 0.0
loop_
_geom_bond_atom_site_label_1
_geom_bond_atom_site_label_2
_geom_bond_distance
_geom_bond_site_symmetry_2
_ccdc_geom_bond_type
Co0 N5 2.057 . S
Co0 O17 2.021 . S
Co0 O20 2.062 1_455 S
Co0 O24 2.117 1_554 S
Co0 O25 2.020 1_565 S
C1 O21 1.259 1_455 S
C1 O24 1.258 1_545 S
Co2 N11 2.057 . S
Co2 O18 2.117 . S
Co2 O19 2.020 1_545 S
Co2 O21 2.021 1_554 S
Co2 O26 2.062 1_655 S
C3 N5 1.316 . S
C3 N6 1.347 . S
C3 H8 0.931 . S
C4 N5 1.375 1_556 S
C4 C7 1.350 . S
C4 H9 0.930 . S
N5 Co0 2.057 . S
N5 C3 1.316 . S
N5 C4 1.375 1_554 S
N6 C3 1.347 . S
N6 C7 1.373 1_554 S
C7 C4 1.350 . S
C7 N6 1.373 1_556 S
C7 H28 0.931 . S
H8 C3 0.931 . S
H9 C4 0.930 . S
C10 O17 1.259 1_545 S
C10 O18 1.258 1_455 S
N11 Co2 2.057 . S
N11 C12 1.316 . S
N11 C13 1.375 . S
C12 N11 1.316 . S
C12 N14 1.347 . S
C12 H23 0.931 1_554 S
C13 N11 1.375 . S
C13 C15 1.350 . S
C13 H22 0.930 . S
N14 C12 1.347 . S
N14 C15 1.373 . S
C15 C13 1.350 . S
C15 N14 1.373 . S
C15 H29 0.931 . S
C16 O19 1.256 . S
C16 O20 1.255 . S
O17 Co0 2.021 . S
O17 C10 1.259 1_565 S
O18 Co2 2.117 . S
O18 C10 1.258 1_655 S
O19 Co2 2.020 1_565 S
O19 C16 1.256 . S
O20 Co0 2.062 1_655 S
O20 C16 1.255 . S
O21 C1 1.259 1_655 S
O21 Co2 2.021 1_556 S
H22 C13 0.930 . S
H23 C12 0.931 1_556 S
O24 Co0 2.117 1_556 S
O24 C1 1.258 1_565 S
O25 Co0 2.020 1_545 S
O25 C27 1.256 . S
O26 Co2 2.062 1_455 S
O26 C27 1.255 . S
C27 O25 1.256 . S
C27 O26 1.255 . S
H28 C7 0.931 . S
H29 C15 0.931 . S
Co30 N35 2.057 . S
Co30 O47 2.021 . S
Co30 O50 2.062 . S
Co30 O54 2.117 . S
Co30 O55 2.020 . S
C31 O51 1.259 . S
C31 O54 1.258 . S
Co32 N41 2.057 . S
Co32 O48 2.117 . S
Co32 O49 2.020 . S
Co32 O51 2.021 . S
Co32 O56 2.062 . S
C33 N35 1.316 . S
C33 N36 1.347 . S
C33 H38 0.931 . S
C34 N35 1.375 . S
C34 C37 1.350 . S
C34 H39 0.930 . S
N35 Co30 2.057 . S
N35 C33 1.316 . S
N35 C34 1.375 . S
N36 C33 1.347 . S
N36 C37 1.373 . S
C37 C34 1.350 . S
C37 N36 1.373 . S
C37 H58 0.931 . S
H38 C33 0.931 . S
H39 C34 0.930 . S
C40 O47 1.259 . S
C40 O48 1.258 . S
N41 Co32 2.057 . S
N41 C42 1.316 . S
N41 C43 1.375 . S
C42 N41 1.316 . S
C42 N44 1.347 . S
C42 H53 0.931 . S
C43 N41 1.375 . S
C43 C45 1.350 . S
C43 H52 0.930 . S
N44 C42 1.347 . S
N44 C45 1.373 . S
C45 C43 1.350 . S
C45 N44 1.373 . S
C45 H59 0.931 . S
C46 O49 1.256 . S
C46 O50 1.255 . S
O47 Co30 2.021 . S
O47 C40 1.259 . S
O48 Co32 2.117 . S
O48 C40 1.258 . S
O49 Co32 2.020 . S
O49 C46 1.256 . S
O50 Co30 2.062 . S
O50 C46 1.255 . S
O51 C31 1.259 . S
O51 Co32 2.021 . S
H52 C43 0.930 . S
H53 C42 0.931 . S
O54 Co30 2.117 . S
O54 C31 1.258 . S
O55 Co30 2.020 . S
O55 C57 1.256 . S
O56 Co32 2.062 . S
O56 C57 1.255 . S
C57 O55 1.256 . S
C57 O56 1.255 . S
H58 C37 0.931 . S
H59 C45 0.931 . S
C60 C61 1.391 . S
C60 C64 1.391 . S
C60 H102 0.948 . S
C61 C60 1.391 . S
C61 C62 1.391 . S
C62 C61 1.391 . S
C62 H118 0.947 . S
C62 C119 1.392 . S
C63 C64 1.391 . S
C63 C67 1.397 . S
C63 C119 1.419 . S
C64 C60 1.391 . S
C64 C63 1.391 . S
C64 C65 1.399 . S
C65 C64 1.399 . S
C65 C68 1.396 . S
C65 C77 1.453 1_565 S
C65 C78 1.684 1_455 S
H66 C90 0.948 . S
C67 C63 1.397 . S
C67 C68 1.394 . S
C67 C86 1.723 . S
C68 C65 1.396 . S
C68 C67 1.394 . S
C68 C98 1.723 1_465 S
H69 C92 0.947 . S
H70 C93 0.948 . S
H71 C99 0.982 . S
H72 C100 0.979 . S
H73 C100 0.980 . S
H74 C100 0.983 . S
H75 C99 0.979 . S
H76 C99 0.977 . S
C77 C65 1.453 1_545 S
C77 H106 0.982 . S
C77 H107 0.979 1_545 S
C77 H108 0.977 . S
C78 C65 1.684 1_655 S
C78 H103 0.979 . S
C78 H104 0.980 . S
C78 H105 0.983 . S
C79 C80 1.391 1_465 S
C79 C84 1.391 . S
C79 H109 0.948 . S
C80 C79 1.391 1_645 S
C80 C81 1.391 . S
C81 C80 1.391 . S
C81 C82 1.392 . S
C81 H110 0.947 . S
C82 C81 1.392 . S
C82 C83 1.419 . S
C82 H111 0.948 . S
C83 C82 1.419 . S
C83 C84 1.391 1_645 S
C83 C87 1.397 . S
C84 C79 1.391 . S
C84 C83 1.391 1_465 S
C84 C85 1.399 . S
C85 C84 1.399 . S
C85 C86 1.396 . S
C85 C88 1.453 . S
C85 C89 1.684 . S
C86 C67 1.723 . S
C86 C85 1.396 . S
C86 C87 1.394 1_465 S
C87 C83 1.397 . S
C87 C86 1.394 1_645 S
C87 C97 1.723 . S
C88 C85 1.453 . S
C88 H112 0.982 . S
C88 H113 0.979 . S
C88 H114 0.977 . S
C89 C85 1.684 . S
C89 H115 0.979 1_455 S
C89 H116 0.980 . S
C89 H117 0.983 . S
C90 H66 0.948 . S
C90 C91 1.391 . S
C90 C95 1.391 . S
C91 C90 1.391 . S
C91 C92 1.391 . S
C92 H69 0.947 . S
C92 C91 1.391 . S
C92 C93 1.392 . S
C93 H70 0.948 . S
C93 C92 1.392 . S
C93 C94 1.419 . S
C94 C93 1.419 . S
C94 C95 1.391 . S
C94 C98 1.397 . S
C95 C90 1.391 . S
C95 C94 1.391 . S
C95 C96 1.399 . S
C96 C95 1.399 . S
C96 C97 1.396 . S
C96 C99 1.453 . S
C96 C100 1.684 . S
C97 C87 1.723 . S
C97 C96 1.396 . S
C97 C98 1.394 . S
C98 C68 1.723 1_645 S
C98 C94 1.397 . S
C98 C97 1.394 . S
C99 H71 0.982 . S
C99 H75 0.979 . S
C99 H76 0.977 . S
C99 C96 1.453 . S
C100 H72 0.979 . S
C100 H73 0.980 . S
C100 H74 0.983 . S
C100 C96 1.684 . S
H101 C119 0.948 . S
H102 C60 0.948 . S
H103 C78 0.979 . S
H104 C78 0.980 . S
H105 C78 0.983 . S
H106 C77 0.982 . S
H107 C77 0.979 1_565 S
H108 C77 0.977 . S
H109 C79 0.948 . S
H110 C81 0.947 . S
H111 C82 0.948 . S
H112 C88 0.982 . S
H113 C88 0.979 . S
H114 C88 0.977 . S
H115 C89 0.979 1_655 S
H116 C89 0.980 . S
H117 C89 0.983 . S
H118 C62 0.947 . S
C119 C62 1.392 . S
C119 C63 1.419 . S
C119 H101 0.948 . S
C120 C121 1.391 . S
C120 C124 1.391 . S
C120 H162 0.948 . S
C121 C120 1.391 . S
C121 C122 1.391 . S
C122 C121 1.391 . S
C122 H178 0.947 . S
C122 C179 1.392 . S
C123 C124 1.391 . S
C123 C127 1.397 . S
C123 C179 1.419 . S
C124 C120 1.391 . S
C124 C123 1.391 . S
C124 C125 1.399 . S
C125 C124 1.399 . S
C125 C128 1.396 . S
C125 C137 1.453 . S
C125 C138 1.684 1_455 S
H126 C150 0.948 . S
C127 C123 1.397 . S
C127 C128 1.394 . S
C127 C146 1.723 . S
C128 C125 1.396 . S
C128 C127 1.394 . S
C128 C158 1.723 1_445 S
H129 C152 0.947 . S
H130 C153 0.948 . S
H131 C159 0.982 . S
H132 C160 0.979 . S
H133 C160 0.980 . S
H134 C160 0.983 . S
H135 C159 0.979 . S
H136 C159 0.977 . S
C137 C125 1.453 . S
C137 H166 0.982 . S
C137 H167 0.979 . S
C137 H168 0.977 1_545 S
C138 C125 1.684 1_655 S
C138 H163 0.979 . S
C138 H164 0.980 . S
C138 H165 0.983 1_655 S
C139 C140 1.391 1_455 S
C139 C144 1.391 . S
C139 H169 0.948 . S
C140 C139 1.391 1_655 S
C140 C141 1.391 1_545 S
C141 C140 1.391 1_565 S
C141 C142 1.392 . S
C141 H170 0.947 . S
C142 C141 1.392 . S
C142 C143 1.419 1_565 S
C142 H171 0.948 . S
C143 C142 1.419 1_545 S
C143 C144 1.391 1_655 S
C143 C147 1.397 . S
C144 C139 1.391 . S
C144 C143 1.391 1_455 S
C144 C145 1.399 . S
C145 C144 1.399 . S
C145 C146 1.396 . S
C145 C148 1.453 . S
C145 C149 1.684 . S
C146 C127 1.723 . S
C146 C145 1.396 . S
C146 C147 1.394 1_455 S
C147 C143 1.397 . S
C147 C146 1.394 1_655 S
C147 C157 1.723 1_545 S
C148 C145 1.453 . S
C148 H172 0.982 . S
C148 H173 0.979 . S
C148 H174 0.977 . S
C149 C145 1.684 . S
C149 H175 0.979 . S
C149 H176 0.980 . S
C149 H177 0.983 . S
C150 H126 0.948 . S
C150 C151 1.391 . S
C150 C155 1.391 . S
C151 C150 1.391 . S
C151 C152 1.391 . S
C152 H129 0.947 . S
C152 C151 1.391 . S
C152 C153 1.392 . S
C153 H130 0.948 . S
C153 C152 1.392 . S
C153 C154 1.419 . S
C154 C153 1.419 . S
C154 C155 1.391 . S
C154 C158 1.397 . S
C155 C150 1.391 . S
C155 C154 1.391 . S
C155 C156 1.399 . S
C156 C155 1.399 . S
C156 C157 1.396 . S
C156 C159 1.453 . S
C156 C160 1.684 . S
C157 C147 1.723 1_565 S
C157 C156 1.396 . S
C157 C158 1.394 . S
C158 C128 1.723 1_665 S
C158 C154 1.397 . S
C158 C157 1.394 . S
C159 H131 0.982 . S
C159 H135 0.979 . S
C159 H136 0.977 . S
C159 C156 1.453 . S
C160 H132 0.979 . S
C160 H133 0.980 . S
C160 H134 0.983 . S
C160 C156 1.684 . S
H161 C179 0.948 . S
H162 C120 0.948 . S
H163 C138 0.979 . S
H164 C138 0.980 . S
H165 C138 0.983 1_455 S
H166 C137 0.982 . S
H167 C137 0.979 . S
H168 C137 0.977 1_565 S
H169 C139 0.948 . S
H170 C141 0.947 . S
H171 C142 0.948 . S
H172 C148 0.982 . S
H173 C148 0.979 . S
H174 C148 0.977 . S
H175 C149 0.979 . S
H176 C149 0.980 . S
H177 C149 0.983 . S
H178 C122 0.947 . S
C179 C122 1.392 . S
C179 C123 1.419 . S
C179 H161 0.948 . S
C180 C181 1.391 1_554 S
C180 C184 1.391 1_554 S
C180 H222 0.948 . S
C181 C180 1.391 1_556 S
C181 C182 1.391 . S
C182 C181 1.391 . S
C182 H238 0.947 . S
C182 C239 1.392 . S
C183 C184 1.391 . S
C183 C187 1.397 . S
C183 C239 1.419 . S
C184 C180 1.391 1_556 S
C184 C183 1.391 . S
C184 C185 1.399 1_556 S
C185 C184 1.399 1_554 S
C185 C188 1.396 1_554 S
C185 C197 1.453 . S
C185 C198 1.684 . S
H186 C210 0.948 . S
C187 C183 1.397 . S
C187 C188 1.394 . S
C187 C206 1.723 . S
C188 C185 1.396 1_556 S
C188 C187 1.394 . S
C188 C218 1.723 . S
H189 C212 0.947 . S
H190 C213 0.948 . S
H191 C219 0.982 . S
H192 C220 0.979 . S
H193 C220 0.980 . S
H194 C220 0.983 . S
H195 C219 0.979 . S
H196 C219 0.977 . S
C197 C185 1.453 . S
C197 H226 0.982 . S
C197 H227 0.979 . S
C197 H228 0.977 . S
C198 C185 1.684 . S
C198 H223 0.979 . S
C198 H224 0.980 . S
C198 H225 0.983 . S
C199 C200 1.391 . S
C199 C204 1.391 . S
C199 H229 0.948 . S
C200 C199 1.391 . S
C200 C201 1.391 . S
C201 C200 1.391 . S
C201 C202 1.392 . S
C201 H230 0.947 . S
C202 C201 1.392 . S
C202 C203 1.419 . S
C202 H231 0.948 . S
C203 C202 1.419 . S
C203 C204 1.391 . S
C203 C207 1.397 . S
C204 C199 1.391 . S
C204 C203 1.391 . S
C204 C205 1.399 . S
C205 C204 1.399 . S
C205 C206 1.396 . S
C205 C208 1.453 . S
C205 C209 1.684 . S
C206 C187 1.723 . S
C206 C205 1.396 . S
C206 C207 1.394 . S
C207 C203 1.397 . S
C207 C206 1.394 . S
C207 C217 1.723 . S
C208 C205 1.453 . S
C208 H232 0.982 . S
C208 H233 0.979 . S
C208 H234 0.977 . S
C209 C205 1.684 . S
C209 H235 0.979 . S
C209 H236 0.980 . S
C209 H237 0.983 . S
C210 H186 0.948 . S
C210 C211 1.391 1_556 S
C210 C215 1.391 . S
C211 C210 1.391 1_554 S
C211 C212 1.391 . S
C212 H189 0.947 . S
C212 C211 1.391 . S
C212 C213 1.392 . S
C213 H190 0.948 . S
C213 C212 1.392 . S
C213 C214 1.419 1_554 S
C214 C213 1.419 1_556 S
C214 C215 1.391 . S
C214 C218 1.397 . S
C215 C210 1.391 . S
C215 C214 1.391 . S
C215 C216 1.399 . S
C216 C215 1.399 . S
C216 C217 1.396 . S
C216 C219 1.453 . S
C216 C220 1.684 . S
C217 C207 1.723 . S
C217 C216 1.396 . S
C217 C218 1.394 . S
C218 C188 1.723 . S
C218 C214 1.397 . S
C218 C217 1.394 . S
C219 H191 0.982 . S
C219 H195 0.979 . S
C219 H196 0.977 . S
C219 C216 1.453 . S
C220 H192 0.979 . S
C220 H193 0.980 . S
C220 H194 0.983 . S
C220 C216 1.684 . S
H221 C239 0.948 . S
H222 C180 0.948 . S
H223 C198 0.979 . S
H224 C198 0.980 . S
H225 C198 0.983 . S
H226 C197 0.982 . S
H227 C197 0.979 . S
H228 C197 0.977 . S
H229 C199 0.948 . S
H230 C201 0.947 . S
H231 C202 0.948 . S
H232 C208 0.982 . S
H233 C208 0.979 . S
H234 C208 0.977 . S
H235 C209 0.979 . S
H236 C209 0.980 . S
H237 C209 0.983 . S
H238 C182 0.947 . S
C239 C182 1.392 . S
C239 C183 1.419 . S
C239 H221 0.948 . S
C240 C241 1.391 . S
C240 C244 1.391 . S
C240 H282 0.948 1_554 S
C241 C240 1.391 . S
C241 C242 1.391 . S
C242 C241 1.391 . S
C242 H298 0.947 . S
C242 C299 1.392 . S
C243 C244 1.391 . S
C243 C247 1.397 . S
C243 C299 1.419 . S
C244 C240 1.391 . S
C244 C243 1.391 . S
C244 C245 1.399 . S
C245 C244 1.399 . S
C245 C248 1.396 . S
C245 C257 1.453 1_554 S
C245 C258 1.684 1_554 S
H246 C270 0.948 . S
C247 C243 1.397 . S
C247 C248 1.394 . S
C247 C266 1.723 . S
C248 C245 1.396 . S
C248 C247 1.394 . S
C248 C278 1.723 . S
H249 C272 0.947 . S
H250 C273 0.948 1_556 S
H251 C279 0.982 . S
H252 C280 0.979 . S
H253 C280 0.980 . S
H254 C280 0.983 . S
H255 C279 0.979 . S
H256 C279 0.977 . S
C257 C245 1.453 1_556 S
C257 H286 0.982 1_556 S
C257 H287 0.979 . S
C257 H288 0.977 . S
C258 C245 1.684 1_556 S
C258 H283 0.979 . S
C258 H284 0.980 . S
C258 H285 0.983 . S
C259 C260 1.391 . S
C259 C264 1.391 . S
C259 H289 0.948 . S
C260 C259 1.391 . S
C260 C261 1.391 . S
C261 C260 1.391 . S
C261 C262 1.392 . S
C261 H290 0.947 . S
C262 C261 1.392 . S
C262 C263 1.419 . S
C262 H291 0.948 . S
C263 C262 1.419 . S
C263 C264 1.391 . S
C263 C267 1.397 . S
C264 C259 1.391 . S
C264 C263 1.391 . S
C264 C265 1.399 . S
C265 C264 1.399 . S
C265 C266 1.396 . S
C265 C268 1.453 . S
C265 C269 1.684 . S
C266 C247 1.723 . S
C266 C265 1.396 . S
C266 C267 1.394 . S
C267 C263 1.397 . S
C267 C266 1.394 . S
C267 C277 1.723 . S
C268 C265 1.453 . S
C268 H292 0.982 . S
C268 H293 0.979 . S
C268 H294 0.977 . S
C269 C265 1.684 . S
C269 H295 0.979 . S
C269 H296 0.980 . S
C269 H297 0.983 . S
C270 H246 0.948 . S
C270 C271 1.391 . S
C270 C275 1.391 . S
C271 C270 1.391 . S
C271 C272 1.391 1_554 S
C272 H249 0.947 . S
C272 C271 1.391 1_556 S
C272 C273 1.392 1_556 S
C273 H250 0.948 1_554 S
C273 C272 1.392 1_554 S
C273 C274 1.419 . S
C274 C273 1.419 . S
C274 C275 1.391 . S
C274 C278 1.397 . S
C275 C270 1.391 . S
C275 C274 1.391 . S
C275 C276 1.399 . S
C276 C275 1.399 . S
C276 C277 1.396 . S
C276 C279 1.453 . S
C276 C280 1.684 . S
C277 C267 1.723 . S
C277 C276 1.396 . S
C277 C278 1.394 . S
C278 C248 1.723 . S
C278 C274 1.397 . S
C278 C277 1.394 . S
C279 H251 0.982 . S
C279 H255 0.979 . S
C279 H256 0.977 . S
C279 C276 1.453 . S
C280 H252 0.979 . S
C280 H253 0.980 . S
C280 H254 0.983 . S
C280 C276 1.684 . S
H281 C299 0.948 . S
H282 C240 0.948 1_556 S
H283 C258 0.979 . S
H284 C258 0.980 . S
H285 C258 0.983 . S
H286 C257 0.982 1_554 S
H287 C257 0.979 . S
H288 C257 0.977 . S
H289 C259 0.948 . S
H290 C261 0.947 . S
H291 C262 0.948 . S
H292 C268 0.982 . S
H293 C268 0.979 . S
H294 C268 0.977 . S
H295 C269 0.979 . S
H296 C269 0.980 . S
H297 C269 0.983 . S
H298 C242 0.947 . S
C299 C242 1.392 . S
C299 C243 1.419 . S
C299 H281 0.948 . S
C300 C301 1.387 . S
C300 H304 0.950 . S
C300 C309 1.390 . S
C301 C300 1.387 . S
C301 C303 1.387 1_554 S
H302 C309 0.950 . S
C303 C301 1.387 1_556 S
C303 C305 1.390 . S
C303 H307 0.950 . S
H304 C300 0.950 . S
C305 C303 1.390 . S
C305 C306 1.387 1_556 S
C305 H308 0.950 . S
C306 C305 1.387 1_554 S
C306 C309 1.387 . S
H307 C303 0.950 . S
H308 C305 0.950 . S
C309 C300 1.390 . S
C309 H302 0.950 . S
C309 C306 1.387 . S
C310 C311 1.387 1_556 S
C310 H314 0.950 . S
C310 C319 1.390 . S
C311 C310 1.387 1_554 S
C311 C313 1.387 . S
H312 C319 0.950 . S
C313 C311 1.387 . S
C313 C315 1.390 . S
C313 H317 0.950 . S
H314 C310 0.950 . S
C315 C313 1.390 . S
C315 C316 1.387 . S
C315 H318 0.950 . S
C316 C315 1.387 . S
C316 C319 1.387 1_554 S
H317 C313 0.950 . S
H318 C315 0.950 . S
C319 C310 1.390 . S
C319 H312 0.950 . S
C319 C316 1.387 1_556 S
C320 C321 1.387 . S
C320 H324 0.950 . S
C320 C329 1.390 . S
C321 C320 1.387 . S
C321 C323 1.387 1_554 S
H322 C329 0.950 . S
C323 C321 1.387 1_556 S
C323 C325 1.390 . S
C323 H327 0.950 . S
H324 C320 0.950 . S
C325 C323 1.390 . S
C325 C326 1.387 1_556 S
C325 H328 0.950 . S
C326 C325 1.387 1_554 S
C326 C329 1.387 . S
H327 C323 0.950 . S
H328 C325 0.950 . S
C329 C320 1.390 . S
C329 H322 0.950 . S
C329 C326 1.387 . S
C330 C331 1.387 1_556 S
C330 H334 0.950 . S
C330 C339 1.390 . S
C331 C330 1.387 1_554 S
C331 C333 1.387 . S
H332 C339 0.957 . S
C333 C331 1.387 . S
C333 C335 1.390 . S
C333 H337 0.950 . S
H334 C330 0.950 . S
C335 C333 1.390 . S
C335 C336 1.387 . S
C335 H338 0.950 . S
C336 C335 1.387 . S
C336 C339 1.381 1_554 S
H337 C333 0.950 . S
H338 C335 0.950 . S
C339 C330 1.390 . S
C339 H332 0.957 . S
C339 C336 1.381 1_556 S
C340 C341 1.387 . S
C340 H344 0.950 . S
C340 C349 1.390 . S
C341 C340 1.387 . S
C341 C343 1.387 . S
H342 C349 0.950 . S
C343 C341 1.387 . S
C343 C345 1.390 . S
C343 H347 0.950 . S
H344 C340 0.950 . S
C345 C343 1.390 . S
C345 C346 1.387 . S
C345 H348 0.950 . S
C346 C345 1.387 . S
C346 C349 1.387 . S
H347 C343 0.950 . S
H348 C345 0.950 . S
C349 C340 1.390 . S
C349 H342 0.950 . S
C349 C346 1.387 . S
C350 C351 1.387 . S
C350 H354 0.950 . S
C350 C359 1.390 . S
C351 C350 1.387 . S
C351 C353 1.387 . S
H352 C359 0.950 . S
C353 C351 1.387 . S
C353 C355 1.390 . S
C353 H357 0.950 . S
H354 C350 0.950 . S
C355 C353 1.390 . S
C355 C356 1.387 . S
C355 H358 0.950 . S
C356 C355 1.387 . S
C356 C359 1.387 . S
H357 C353 0.950 . S
H358 C355 0.950 . S
C359 C350 1.390 . S
C359 H352 0.950 . S
C359 C356 1.387 . S
C360 C361 1.387 . S
C360 H364 0.950 . S
C360 C369 1.390 . S
C361 C360 1.387 . S
C361 C363 1.387 . S
H362 C369 0.950 . S
C363 C361 1.387 . S
C363 C365 1.390 . S
C363 H367 0.950 . S
H364 C360 0.950 . S
C365 C363 1.390 . S
C365 C366 1.387 . S
C365 H368 0.950 . S
C366 C365 1.387 . S
C366 C369 1.387 . S
H367 C363 0.950 . S
H368 C365 0.950 . S
C369 C360 1.390 . S
C369 H362 0.950 . S
C369 C366 1.387 . S
C370 C371 1.387 . S
C370 H374 0.950 . S
C370 C379 1.390 . S
C371 C370 1.387 . S
C371 C373 1.387 . S
H372 C379 0.950 . S
C373 C371 1.387 . S
C373 C375 1.390 . S
C373 H377 0.950 . S
H374 C370 0.950 . S
C375 C373 1.390 . S
C375 C376 1.387 . S
C375 H378 0.950 . S
C376 C375 1.387 . S
C376 C379 1.387 . S
H377 C373 0.950 . S
H378 C375 0.950 . S
C379 C370 1.390 . S
C379 H372 0.950 . S
C379 C376 1.387 . S
C380 C381 1.387 . S
C380 H384 0.950 . S
C380 C389 1.390 . S
C381 C380 1.387 . S
C381 C383 1.387 1_445 S
H382 C389 0.950 . S
C383 C381 1.387 1_665 S
C383 C385 1.390 . S
C383 H387 0.950 . S
H384 C380 0.950 . S
C385 C383 1.390 . S
C385 C386 1.387 1_665 S
C385 H388 0.950 . S
C386 C385 1.387 1_445 S
C386 C389 1.387 . S
H387 C383 0.950 . S
H388 C385 0.950 . S
C389 C380 1.390 . S
C389 H382 0.950 . S
C389 C386 1.387 . S
C390 C391 1.387 1_655 S
C390 H394 0.950 . S
C390 C399 1.390 . S
C391 C390 1.387 1_455 S
C391 C393 1.387 1_545 S
H392 C399 0.950 . S
C393 C391 1.387 1_565 S
C393 C395 1.390 . S
C393 H397 0.950 . S
H394 C390 0.950 . S
C395 C393 1.390 . S
C395 C396 1.387 1_565 S
C395 H398 0.950 . S
C396 C395 1.387 1_545 S
C396 C399 1.387 1_455 S
H397 C393 0.950 . S
H398 C395 0.950 . S
C399 C390 1.390 . S
C399 H392 0.950 . S
C399 C396 1.387 1_655 S
C400 C401 1.387 . S
C400 H404 0.950 . S
C400 C409 1.390 . S
C401 C400 1.387 . S
C401 C403 1.387 . S
H402 C409 0.950 . S
C403 C401 1.387 . S
C403 C405 1.390 . S
C403 H407 0.950 . S
H404 C400 0.950 . S
C405 C403 1.390 . S
C405 C406 1.387 . S
C405 H408 0.950 . S
C406 C405 1.387 . S
C406 C409 1.387 . S
H407 C403 0.950 . S
H408 C405 0.950 . S
C409 C400 1.390 . S
C409 H402 0.950 . S
C409 C406 1.387 . S
C410 C411 1.387 . S
C410 H414 0.950 . S
C410 C419 1.390 . S
C411 C410 1.387 . S
C411 C413 1.387 . S
H412 C419 0.950 . S
C413 C411 1.387 . S
C413 C415 1.390 . S
C413 H417 0.950 . S
H414 C410 0.950 . S
C415 C413 1.390 . S
C415 C416 1.387 . S
C415 H418 0.950 . S
C416 C415 1.387 . S
C416 C419 1.387 . S
H417 C413 0.950 . S
H418 C415 0.950 . S
C419 C410 1.390 . S
C419 H412 0.950 . S
C419 C416 1.387 . S
C306 C271 1.573 . S
C301 C27 1.591 . S
C311 N6 1.492 . S
C316 C211 1.513 . S
C321 C16 1.562 . S
C326 C241 1.416 . S
C331 N14 1.468 . S
C336 C181 1.382 1_554 S
C341 C57 1.591 . S
C346 C151 1.574 . S
C351 N36 1.492 . S
C356 C91 1.514 . S
C366 C121 1.417 . S
C361 C46 1.562 . S
C376 C61 1.381 . S
C371 N44 1.464 . S
C381 C10 1.392 . S
C386 C80 1.370 1_455 S
C391 C1 1.537 . S
C396 C140 1.515 1_455 S
C406 C200 1.371 . S
C401 C40 1.392 . S
C411 C31 1.538 . S
C416 C260 1.514 . S
