# Generated by pormake.
# Topology nom, (4,4)-cn, num edge types: 1
# Building blocks:
#     Node 0, Type 0, BuildingBlock: GIZVER_clean_linker_0, # of connection points: 4
#     Node 1, Type 0, BuildingBlock: GIZVER_clean_linker_0, # of connection points: 4
#     Node 2, Type 0, BuildingBlock: GIZVER_clean_linker_0, # of connection points: 4
#     Node 3, Type 0, BuildingBlock: GIZVER_clean_linker_0, # of connection points: 4
#     Node 4, Type 0, BuildingBlock: GIZVER_clean_linker_0, # of connection points: 4
#     Node 5, Type 0, BuildingBlock: GIZVER_clean_linker_0, # of connection points: 4
#     Node 6, Type 1, BuildingBlock: GALJAG_clean_sbu_0, # of connection points: 4
#     Node 7, Type 1, BuildingBlock: GALJAG_clean_sbu_0, # of connection points: 4
#     Node 8, Type 1, BuildingBlock: GALJAG_clean_sbu_0, # of connection points: 4
#     Node 9, Type 1, BuildingBlock: GALJAG_clean_sbu_0, # of connection points: 4
#     Node 10, Type 1, BuildingBlock: GALJAG_clean_sbu_0, # of connection points: 4
#     Node 11, Type 1, BuildingBlock: GALJAG_clean_sbu_0, # of connection points: 4
#     Edge 12, Type (0, 1), BuildingBlock: EZIPEK_clean_linker_0, # of connection points: 2
#     Edge 13, Type (0, 1), BuildingBlock: EZIPEK_clean_linker_0, # of connection points: 2
#     Edge 14, Type (0, 1), BuildingBlock: EZIPEK_clean_linker_0, # of connection points: 2
#     Edge 15, Type (0, 1), BuildingBlock: EZIPEK_clean_linker_0, # of connection points: 2
#     Edge 16, Type (0, 1), BuildingBlock: EZIPEK_clean_linker_0, # of connection points: 2
#     Edge 17, Type (0, 1), BuildingBlock: EZIPEK_clean_linker_0, # of connection points: 2
#     Edge 18, Type (0, 1), BuildingBlock: EZIPEK_clean_linker_0, # of connection points: 2
#     Edge 19, Type (0, 1), BuildingBlock: EZIPEK_clean_linker_0, # of connection points: 2
#     Edge 20, Type (0, 1), BuildingBlock: EZIPEK_clean_linker_0, # of connection points: 2
#     Edge 21, Type (0, 1), BuildingBlock: EZIPEK_clean_linker_0, # of connection points: 2
#     Edge 22, Type (0, 1), BuildingBlock: EZIPEK_clean_linker_0, # of connection points: 2
#     Edge 23, Type (0, 1), BuildingBlock: EZIPEK_clean_linker_0, # of connection points: 2
#     Edge 24, Type (0, 1), BuildingBlock: EZIPEK_clean_linker_0, # of connection points: 2
#     Edge 25, Type (0, 1), BuildingBlock: EZIPEK_clean_linker_0, # of connection points: 2
#     Edge 26, Type (0, 1), BuildingBlock: EZIPEK_clean_linker_0, # of connection points: 2
#     Edge 27, Type (0, 1), BuildingBlock: EZIPEK_clean_linker_0, # of connection points: 2
#     Edge 28, Type (0, 1), BuildingBlock: EZIPEK_clean_linker_0, # of connection points: 2
#     Edge 29, Type (0, 1), BuildingBlock: EZIPEK_clean_linker_0, # of connection points: 2
#     Edge 30, Type (0, 1), BuildingBlock: EZIPEK_clean_linker_0, # of connection points: 2
#     Edge 31, Type (0, 1), BuildingBlock: EZIPEK_clean_linker_0, # of connection points: 2
#     Edge 32, Type (0, 1), BuildingBlock: EZIPEK_clean_linker_0, # of connection points: 2
#     Edge 33, Type (0, 1), BuildingBlock: EZIPEK_clean_linker_0, # of connection points: 2
#     Edge 34, Type (0, 1), BuildingBlock: EZIPEK_clean_linker_0, # of connection points: 2
#     Edge 35, Type (0, 1), BuildingBlock: EZIPEK_clean_linker_0, # of connection points: 2
# Relax obj value: 0.013
# Max RMSD: 0.089
# Mean RMSD: 0.072
data_MOF--net-nom--node1-GALJAG_clean_sbu_0--node2-GIZVER_clean_linker_0--edge1-EZIPEK_clean_linker_0
_symmetry_space_group_name_H-M    P1
_symmetry_Int_Tables_number       1
_symmetry_cell_setting            triclinic
loop_
_symmetry_equiv_pos_as_xyz
'x, y, z'
_cell_length_a     34.310526
_cell_length_b     34.324709
_cell_length_c     35.474525
_cell_angle_alpha  90.036919
_cell_angle_beta   89.903996
_cell_angle_gamma 120.08114
loop_
_atom_site_label
_atom_site_type_symbol
_atom_site_fract_x
_atom_site_fract_y
_atom_site_fract_z
_atom_type_partial_charge
H0 H 0.9468 0.57303 0.36822 0.0
H1 H 0.99161 0.57422 0.2543 0.0
H2 H 0.85716 0.47633 0.28762 0.0
H3 H 0.01287 0.63838 0.34528 0.0
H4 H 0.0211 0.64493 0.29567 0.0
H5 H 0.04308 0.59333 0.38066 0.0
H6 H 0.17773 0.63548 0.34374 0.0
H7 H 0.08617 0.64762 0.26886 0.0
C8 C 0.94123 0.55782 0.34052 0.0
C9 C 0.89846 0.52161 0.33137 0.0
C10 C 0.97519 0.57714 0.31272 0.0
C11 C 0.96652 0.55844 0.27632 0.0
C12 C 0.9241 0.52181 0.26748 0.0
C13 C 0.89056 0.5033 0.2951 0.0
C14 C 0.01687 0.62212 0.31956 0.0
C15 C 0.05891 0.61883 0.32366 0.0
C16 C 0.06805 0.60524 0.35832 0.0
C17 C 0.11094 0.61129 0.36554 0.0
C18 C 0.14409 0.62923 0.33756 0.0
C19 C 0.13534 0.64217 0.30268 0.0
C20 C 0.09234 0.63595 0.29535 0.0
H21 H 0.38239 0.93787 0.5352 0.0
H22 H 0.44356 0.98875 0.4266 0.0
H23 H 0.40172 0.85261 0.45816 0.0
H24 H 0.38795 0.00557 0.51218 0.0
H25 H 0.39429 0.01458 0.46267 0.0
H26 H 0.45847 0.03816 0.55341 0.0
H27 H 0.55662 0.17132 0.51739 0.0
H28 H 0.45975 0.07908 0.43819 0.0
C29 C 0.39656 0.93393 0.50912 0.0
C30 C 0.39182 0.89187 0.50033 0.0
C31 C 0.4155 0.96933 0.48264 0.0
C32 C 0.43112 0.9626 0.44791 0.0
C33 C 0.4261 0.92044 0.43911 0.0
C34 C 0.40738 0.88571 0.46566 0.0
C35 C 0.41077 0.01037 0.4881 0.0
C36 C 0.45528 0.05279 0.49457 0.0
C37 C 0.47414 0.06256 0.53091 0.0
C38 C 0.51075 0.10529 0.53902 0.0
C39 C 0.52945 0.13776 0.5106 0.0
C40 C 0.51134 0.12852 0.47425 0.0
C41 C 0.47479 0.08565 0.46599 0.0
H42 H 0.38814 0.45205 0.60257 0.0
H43 H 0.43473 0.45548 0.71608 0.0
H44 H 0.38802 0.54542 0.68315 0.0
H45 H 0.39202 0.3887 0.62639 0.0
H46 H 0.39743 0.38415 0.67576 0.0
H47 H 0.4631 0.43325 0.58654 0.0
H48 H 0.56423 0.40179 0.62039 0.0
H49 H 0.4645 0.38934 0.70023 0.0
C50 C 0.39687 0.46739 0.63028 0.0
C51 C 0.38714 0.50145 0.63945 0.0
C52 C 0.41378 0.45028 0.65794 0.0
C53 C 0.42326 0.46941 0.69422 0.0
C54 C 0.41435 0.504 0.70315 0.0
C55 C 0.39655 0.51992 0.67571 0.0
C56 C 0.41345 0.40674 0.65112 0.0
C57 C 0.45986 0.4132 0.64479 0.0
C58 C 0.47943 0.42488 0.60867 0.0
C59 C 0.51706 0.42067 0.59995 0.0
C60 C 0.53639 0.40691 0.62773 0.0
C61 C 0.51776 0.39575 0.66386 0.0
C62 C 0.4801 0.39996 0.67272 0.0
H63 H 0.95442 0.39504 0.77148 0.0
H64 H 0.98832 0.42997 0.88846 0.0
H65 H 0.85611 0.39211 0.84832 0.0
H66 H 0.01662 0.39085 0.79958 0.0
H67 H 0.02525 0.39692 0.84915 0.0
H68 H 0.04328 0.4628 0.75965 0.0
H69 H 0.17756 0.56148 0.79234 0.0
H70 H 0.09012 0.46187 0.87221 0.0
C71 C 0.94588 0.40175 0.79923 0.0
C72 C 0.90183 0.39281 0.80637 0.0
C73 C 0.97725 0.41469 0.82893 0.0
C74 C 0.96506 0.42158 0.86514 0.0
C75 C 0.92155 0.41401 0.87191 0.0
C76 C 0.89036 0.39994 0.84252 0.0
C77 C 0.01995 0.41287 0.82385 0.0
C78 C 0.06077 0.45864 0.81743 0.0
C79 C 0.0685 0.47851 0.78152 0.0
C80 C 0.11064 0.51567 0.77258 0.0
C81 C 0.14436 0.53415 0.79994 0.0
C82 C 0.13717 0.51494 0.83581 0.0
C83 C 0.09494 0.47786 0.84492 0.0
H84 H 0.63297 0.08032 0.03682 0.0
H85 H 0.59832 0.04281 0.92036 0.0
H86 H 0.63684 0.1764 0.95723 0.0
H87 H 0.63732 0.01764 0.01087 0.0
H88 H 0.63292 0.00843 0.96138 0.0
H89 H 0.56402 0.98931 0.04936 0.0
H90 H 0.47066 0.85331 0.01652 0.0
H91 H 0.56856 0.94385 0.9369 0.0
C92 C 0.62622 0.08796 0.00877 0.0
C93 C 0.63552 0.13183 0.00049 0.0
C94 C 0.6133 0.05568 0.9798 0.0
C95 C 0.60656 0.06676 0.94314 0.0
C96 C 0.61445 0.11012 0.93521 0.0
C97 C 0.62862 0.14225 0.96392 0.0
C98 C 0.61584 0.01357 0.98601 0.0
C99 C 0.57036 0.97216 0.9919 0.0
C100 C 0.54973 0.9638 0.02755 0.0
C101 C 0.5135 0.92099 0.03629 0.0
C102 C 0.49724 0.88694 0.0091 0.0
C103 C 0.51691 0.89493 0.9733 0.0
C104 C 0.5524 0.93813 0.96422 0.0
H105 H 0.64381 0.57243 0.10663 0.0
H106 H 0.59091 0.56415 0.2186 0.0
H107 H 0.62833 0.468 0.1822 0.0
H108 H 0.64443 0.63692 0.13308 0.0
H109 H 0.63795 0.63862 0.18271 0.0
H110 H 0.57306 0.59824 0.09203 0.0
H111 H 0.47818 0.63768 0.12765 0.0
H112 H 0.5745 0.64114 0.20663 0.0
C113 C 0.6318 0.55492 0.13326 0.0
C114 C 0.6363 0.51719 0.14078 0.0
C115 C 0.61575 0.57236 0.16142 0.0
C116 C 0.60191 0.55016 0.19636 0.0
C117 C 0.60672 0.51265 0.20392 0.0
C118 C 0.62322 0.49606 0.1759 0.0
C119 C 0.62138 0.6186 0.15696 0.0
C120 C 0.5773 0.61733 0.15064 0.0
C121 C 0.55807 0.60791 0.11443 0.0
C122 C 0.52201 0.61482 0.10629 0.0
C123 C 0.50462 0.63029 0.13453 0.0
C124 C 0.52344 0.63995 0.17062 0.0
C125 C 0.55896 0.63218 0.17903 0.0
In126 In 0.63116 0.39204 0.40057 0.0
O127 O 0.70124 0.45004 0.41547 0.0
O128 O 0.69677 0.39844 0.37911 0.0
C129 C 0.59684 0.41438 0.45959 0.0
C130 C 0.61058 0.42597 0.33994 0.0
C131 C 0.59592 0.30192 0.40709 0.0
O132 O 0.63427 0.41582 0.46138 0.0
O133 O 0.57767 0.40323 0.42802 0.0
O134 O 0.59375 0.31983 0.37677 0.0
O135 O 0.61713 0.32917 0.43317 0.0
C136 C 0.72177 0.43573 0.39519 0.0
O137 O 0.58078 0.39902 0.36243 0.0
O138 O 0.64997 0.43488 0.34762 0.0
In139 In 0.244 0.62311 0.56732 0.0
O140 O 0.2601 0.56811 0.54927 0.0
O141 O 0.2986 0.61247 0.59338 0.0
C142 C 0.19191 0.60729 0.50604 0.0
C143 C 0.19207 0.58865 0.629 0.0
C144 C 0.29187 0.71397 0.56115 0.0
O145 O 0.23328 0.61981 0.50355 0.0
O146 O 0.17657 0.60085 0.53913 0.0
O147 O 0.2544 0.69375 0.57788 0.0
O148 O 0.30579 0.68876 0.5487 0.0
C149 C 0.2907 0.57892 0.57352 0.0
O150 O 0.23122 0.62263 0.6306 0.0
O151 O 0.1788 0.57324 0.59636 0.0
In152 In 0.63797 0.25035 0.73455 0.0
O153 O 0.70965 0.27267 0.71455 0.0
O154 O 0.70194 0.30698 0.76126 0.0
C155 C 0.59358 0.19316 0.67776 0.0
C156 C 0.62407 0.19625 0.79399 0.0
C157 C 0.60185 0.30406 0.72739 0.0
O158 O 0.63416 0.22392 0.67496 0.0
O159 O 0.5755 0.1905 0.70934 0.0
O160 O 0.5957 0.28029 0.75627 0.0
O161 O 0.62783 0.30252 0.70303 0.0
C162 C 0.72851 0.30198 0.73989 0.0
O163 O 0.6109 0.22457 0.79354 0.0
O164 O 0.64356 0.19459 0.76438 0.0
In165 In 0.40385 0.62911 0.90323 0.0
O166 O 0.33173 0.58551 0.92494 0.0
O167 O 0.34131 0.62027 0.8731 0.0
C168 C 0.44409 0.61606 0.96313 0.0
C169 C 0.41596 0.58615 0.84468 0.0
C170 C 0.44136 0.71934 0.90953 0.0
O171 O 0.40224 0.60115 0.96191 0.0
O172 O 0.46557 0.63654 0.93391 0.0
O173 O 0.45397 0.70135 0.88504 0.0
O174 O 0.40861 0.69204 0.92958 0.0
C175 C 0.31392 0.59317 0.897 0.0
O176 O 0.42497 0.62649 0.84274 0.0
O177 O 0.40208 0.5677 0.87639 0.0
In178 In 0.78079 0.39648 0.07128 0.0
O179 O 0.80158 0.40375 0.13299 0.0
O180 O 0.84642 0.45408 0.09475 0.0
C181 C 0.72859 0.30603 0.06617 0.0
C182 C 0.72971 0.4358 0.07656 0.0
C183 C 0.83354 0.40781 0.01158 0.0
O184 O 0.75863 0.32479 0.09097 0.0
O185 O 0.72321 0.33268 0.04531 0.0
O186 O 0.80671 0.4229 0.01225 0.0
O187 O 0.83427 0.38764 0.04107 0.0
C188 C 0.83807 0.44016 0.12828 0.0
O189 O 0.75567 0.44272 0.04904 0.0
O190 O 0.72798 0.40774 0.10036 0.0
In191 In 0.40216 0.78415 0.23806 0.0
O192 O 0.45602 0.76746 0.25714 0.0
O193 O 0.40754 0.72435 0.21699 0.0
C194 C 0.42516 0.83587 0.30049 0.0
C195 C 0.43216 0.83591 0.17573 0.0
C196 C 0.31124 0.7358 0.23981 0.0
O197 O 0.451 0.84664 0.27233 0.0
O198 O 0.38893 0.79893 0.29755 0.0
O199 O 0.33235 0.76981 0.21883 0.0
O200 O 0.33575 0.725 0.25829 0.0
C201 C 0.44247 0.73385 0.23558 0.0
O202 O 0.41651 0.84659 0.20352 0.0
O203 O 0.43155 0.7991 0.17901 0.0
C204 C 0.19075 0.64333 0.25579 0.0
C205 C 0.17393 0.66717 0.27647 0.0
C206 C 0.2446 0.73801 0.26642 0.0
C207 C 0.26214 0.71393 0.24693 0.0
N208 N 0.24966 0.6467 0.21527 0.0
N209 N 0.17962 0.73783 0.29358 0.0
C210 C 0.23431 0.66745 0.23902 0.0
C211 C 0.19904 0.71482 0.27877 0.0
N212 N 0.16565 0.59746 0.2536 0.0
N213 N 0.2724 0.7822 0.27586 0.0
H214 H 0.14695 0.72197 0.30434 0.0
H215 H 0.19431 0.7727 0.2923 0.0
H216 H 0.30585 0.80083 0.26724 0.0
H217 H 0.26341 0.79986 0.29445 0.0
H218 H 0.17772 0.57723 0.24297 0.0
H219 H 0.13273 0.57933 0.26387 0.0
H220 H 0.22999 0.61378 0.20572 0.0
H221 H 0.28134 0.66387 0.20253 0.0
C222 C 0.50397 0.19013 0.44293 0.0
C223 C 0.52792 0.16656 0.4471 0.0
C224 C 0.59444 0.2289 0.41711 0.0
C225 C 0.57083 0.25279 0.41391 0.0
N226 N 0.50042 0.25246 0.41433 0.0
N227 N 0.59102 0.15775 0.43051 0.0
C228 C 0.52451 0.2319 0.42336 0.0
C229 C 0.57159 0.18409 0.43141 0.0
N230 N 0.46304 0.17437 0.46008 0.0
N231 N 0.63907 0.24974 0.40771 0.0
H232 H 0.57464 0.12479 0.44075 0.0
H233 H 0.6213 0.16687 0.41692 0.0
H234 H 0.65596 0.2817 0.39547 0.0
H235 H 0.65979 0.23639 0.41337 0.0
H236 H 0.44672 0.19294 0.46238 0.0
H237 H 0.44642 0.14375 0.47436 0.0
H238 H 0.46558 0.23696 0.41707 0.0
H239 H 0.51469 0.28366 0.40092 0.0
C240 C 0.3152 0.48946 0.61058 0.0
C241 C 0.36289 0.51558 0.613 0.0
C242 C 0.3621 0.57638 0.57722 0.0
C243 C 0.31451 0.55342 0.58022 0.0
N244 N 0.24475 0.48741 0.59779 0.0
N245 N 0.43261 0.58239 0.59737 0.0
C246 C 0.2907 0.50924 0.59548 0.0
C247 C 0.38664 0.5584 0.59538 0.0
N248 N 0.29335 0.446 0.62335 0.0
N249 N 0.38351 0.61513 0.55648 0.0
H250 H 0.45147 0.56896 0.60859 0.0
H251 H 0.45209 0.61589 0.58922 0.0
H252 H 0.36601 0.62838 0.54246 0.0
H253 H 0.4178 0.63207 0.55042 0.0
H254 H 0.25933 0.42345 0.61887 0.0
H255 H 0.30979 0.43105 0.63635 0.0
H256 H 0.22546 0.45834 0.61351 0.0
H257 H 0.22552 0.49926 0.58486 0.0
C258 C 0.8458 0.39633 0.7634 0.0
C259 C 0.86501 0.3713 0.77809 0.0
C260 C 0.79822 0.3006 0.75916 0.0
C261 C 0.77771 0.32554 0.74694 0.0
N262 N 0.7848 0.39612 0.72831 0.0
N263 N 0.86511 0.30116 0.78196 0.0
C264 C 0.80259 0.37323 0.74607 0.0
C265 C 0.84322 0.32395 0.77289 0.0
N266 N 0.86836 0.44209 0.76753 0.0
N267 N 0.77364 0.25457 0.76041 0.0
H268 H 0.89701 0.31643 0.79404 0.0
H269 H 0.85339 0.26769 0.77481 0.0
H270 H 0.74106 0.23578 0.74989 0.0
H271 H 0.78418 0.23462 0.77402 0.0
H272 H 0.85449 0.46231 0.76175 0.0
H273 H 0.90117 0.45989 0.77801 0.0
H274 H 0.80221 0.43075 0.72393 0.0
H275 H 0.75342 0.37976 0.71509 0.0
C276 C 0.52957 0.83511 0.94484 0.0
C277 C 0.50265 0.85577 0.94762 0.0
C278 C 0.441 0.79183 0.91436 0.0
C279 C 0.46524 0.76849 0.9168 0.0
N280 N 0.53289 0.76722 0.93319 0.0
N281 N 0.43431 0.85624 0.93356 0.0
C282 C 0.51009 0.79036 0.93077 0.0
C283 C 0.45898 0.83503 0.93141 0.0
N284 N 0.57348 0.85785 0.9565 0.0
N285 N 0.40111 0.77269 0.89513 0.0
H286 H 0.44772 0.88906 0.94365 0.0
H287 H 0.40037 0.84119 0.92659 0.0
H288 H 0.38769 0.74137 0.88196 0.0
H289 H 0.38306 0.78894 0.8895 0.0
H290 H 0.59658 0.84739 0.95086 0.0
H291 H 0.58822 0.88902 0.96985 0.0
H292 H 0.56283 0.77852 0.94795 0.0
H293 H 0.52084 0.73505 0.92226 0.0
C294 C 0.7074 0.52624 0.112 0.0
C295 C 0.65964 0.50194 0.11438 0.0
C296 C 0.65753 0.43675 0.08395 0.0
C297 C 0.70527 0.46068 0.08253 0.0
N298 N 0.77476 0.53198 0.08456 0.0
N299 N 0.58887 0.43945 0.0945 0.0
C300 C 0.72985 0.50685 0.09267 0.0
C301 C 0.63458 0.45891 0.09743 0.0
N302 N 0.73157 0.56624 0.13067 0.0
N303 N 0.63436 0.39252 0.07335 0.0
H304 H 0.57156 0.45537 0.10404 0.0
H305 H 0.56866 0.40972 0.07985 0.0
H306 H 0.65009 0.37628 0.06117 0.0
H307 H 0.59999 0.37148 0.07785 0.0
H308 H 0.76635 0.58239 0.13421 0.0
H309 H 0.71677 0.58193 0.14515 0.0
H310 H 0.79334 0.56679 0.08794 0.0
H311 H 0.79271 0.51893 0.07107 0.0
C312 C 0.38436 0.83593 0.5497 0.0
C313 C 0.36372 0.85131 0.52368 0.0
C314 C 0.29429 0.77809 0.52543 0.0
C315 C 0.31471 0.76251 0.5516 0.0
N316 N 0.37506 0.77833 0.59459 0.0
N317 N 0.29641 0.84167 0.49381 0.0
C318 C 0.35853 0.79211 0.56569 0.0
C319 C 0.31763 0.82394 0.5142 0.0
N320 N 0.42903 0.86263 0.55792 0.0
N321 N 0.25417 0.74835 0.509 0.0
H322 H 0.31279 0.87488 0.48426 0.0
H323 H 0.26177 0.82485 0.4893 0.0
H324 H 0.23651 0.7142 0.51555 0.0
H325 H 0.24021 0.75654 0.48646 0.0
H326 H 0.44767 0.85171 0.57315 0.0
H327 H 0.44807 0.89557 0.54794 0.0
H328 H 0.40509 0.79942 0.60851 0.0
H329 H 0.35675 0.74644 0.60677 0.0
C330 C 0.57843 0.39874 0.70491 0.0
C331 C 0.53451 0.37324 0.68964 0.0
C332 C 0.53066 0.30363 0.71152 0.0
C333 C 0.5772 0.32851 0.72042 0.0
N334 N 0.64595 0.39956 0.72669 0.0
N335 N 0.46974 0.30084 0.67518 0.0
C336 C 0.60118 0.37615 0.71778 0.0
C337 C 0.51043 0.32555 0.69274 0.0
N338 N 0.59812 0.44453 0.70692 0.0
N339 N 0.5059 0.25887 0.72025 0.0
H340 H 0.45339 0.31516 0.66106 0.0
H341 H 0.45362 0.26601 0.67207 0.0
H342 H 0.5196 0.24094 0.73265 0.0
H343 H 0.47093 0.24031 0.71813 0.0
H344 H 0.6286 0.46515 0.72042 0.0
H345 H 0.5818 0.46158 0.6978 0.0
H346 H 0.66679 0.43374 0.72127 0.0
H347 H 0.66284 0.38418 0.7382 0.0
C348 C 0.19669 0.57376 0.87701 0.0
C349 C 0.17687 0.53018 0.86086 0.0
C350 C 0.2416 0.52349 0.88101 0.0
C351 C 0.26466 0.56981 0.89075 0.0
N352 N 0.26487 0.63952 0.89929 0.0
N353 N 0.1819 0.46453 0.8442 0.0
C354 C 0.24221 0.59502 0.88947 0.0
C355 C 0.19925 0.50486 0.86263 0.0
N356 N 0.17176 0.59458 0.88026 0.0
N357 N 0.26043 0.49744 0.88855 0.0
H358 H 0.15105 0.44934 0.83027 0.0
H359 H 0.19968 0.44761 0.84016 0.0
H360 H 0.29208 0.50994 0.90072 0.0
H361 H 0.24303 0.46253 0.88575 0.0
H362 H 0.18268 0.62484 0.89446 0.0
H363 H 0.13828 0.57937 0.87144 0.0
H364 H 0.25247 0.66128 0.89481 0.0
H365 H 0.29727 0.65527 0.91066 0.0
C366 C 0.70503 0.19079 0.033 0.0
C367 C 0.65767 0.16948 0.02799 0.0
C368 C 0.65678 0.2325 0.05997 0.0
C369 C 0.7045 0.25683 0.05905 0.0
N370 N 0.77498 0.25992 0.04499 0.0
N371 N 0.58742 0.16752 0.03829 0.0
C372 C 0.72893 0.23581 0.04662 0.0
C373 C 0.63316 0.18937 0.04254 0.0
N374 N 0.72736 0.1684 0.02388 0.0
N375 N 0.63431 0.25068 0.07794 0.0
H376 H 0.56915 0.13478 0.02774 0.0
H377 H 0.5677 0.18201 0.04394 0.0
H378 H 0.65102 0.28197 0.09129 0.0
H379 H 0.59968 0.23358 0.08242 0.0
H380 H 0.76075 0.17972 0.03107 0.0
H381 H 0.71181 0.13656 0.01166 0.0
H382 H 0.7945 0.24895 0.03116 0.0
H383 H 0.79422 0.29254 0.05531 0.0
C384 C 0.46765 0.64013 0.21646 0.0
C385 C 0.50925 0.66421 0.19702 0.0
C386 C 0.51117 0.73544 0.20926 0.0
C387 C 0.46883 0.71126 0.2278 0.0
N388 N 0.41174 0.64301 0.25681 0.0
N389 N 0.57604 0.73487 0.18275 0.0
C390 C 0.44872 0.66426 0.23397 0.0
C391 C 0.53297 0.71196 0.19642 0.0
N392 N 0.44558 0.59413 0.21681 0.0
N393 N 0.52888 0.78015 0.20111 0.0
H394 H 0.59254 0.71894 0.1716 0.0
H395 H 0.59691 0.76954 0.1854 0.0
H396 H 0.51451 0.79903 0.21 0.0
H397 H 0.55622 0.79808 0.18316 0.0
H398 H 0.41273 0.57406 0.22646 0.0
H399 H 0.45986 0.57585 0.20594 0.0
H400 H 0.39737 0.60953 0.26513 0.0
H401 H 0.39759 0.66015 0.27011 0.0
C402 C 0.84184 0.46367 0.37563 0.0
C403 C 0.85915 0.5058 0.35719 0.0
C404 C 0.78851 0.50546 0.3689 0.0
C405 C 0.77073 0.46279 0.38681 0.0
N406 N 0.78331 0.40641 0.41526 0.0
N407 N 0.8539 0.57196 0.34417 0.0
C408 C 0.79843 0.44355 0.39275 0.0
C409 C 0.8342 0.52854 0.35684 0.0
N410 N 0.86638 0.44227 0.37549 0.0
N411 N 0.76097 0.52243 0.36054 0.0
H412 H 0.88659 0.58942 0.33351 0.0
H413 H 0.83937 0.59211 0.34725 0.0
H414 H 0.72736 0.50727 0.36867 0.0
H415 H 0.77035 0.55001 0.34295 0.0
H416 H 0.85374 0.40913 0.38419 0.0
H417 H 0.89922 0.45736 0.36501 0.0
H418 H 0.8031 0.39281 0.42349 0.0
H419 H 0.75191 0.39142 0.42852 0.0
C420 C 0.13423 0.57044 0.41052 0.0
C421 C 0.12411 0.60515 0.40392 0.0
C422 C 0.14736 0.63306 0.46823 0.0
C423 C 0.1642 0.60303 0.47267 0.0
N424 N 0.17403 0.5428 0.44858 0.0
N425 N 0.12717 0.67383 0.42436 0.0
C426 C 0.1576 0.57147 0.44396 0.0
C427 C 0.13175 0.63732 0.43234 0.0
N428 N 0.12082 0.53626 0.38496 0.0
N429 N 0.14652 0.65792 0.49803 0.0
H430 H 0.11636 0.67892 0.39835 0.0
H431 H 0.13797 0.70126 0.44242 0.0
H432 H 0.15894 0.65744 0.52465 0.0
H433 H 0.12988 0.67629 0.49723 0.0
H434 H 0.12343 0.5077 0.38948 0.0
H435 H 0.10342 0.53465 0.36037 0.0
H436 H 0.17527 0.52282 0.42706 0.0
H437 H 0.18834 0.54034 0.47375 0.0
C438 C 0.56291 0.11623 0.59267 0.0
C439 C 0.5261 0.11938 0.57824 0.0
C440 C 0.5318 0.16877 0.6303 0.0
C441 C 0.56814 0.16502 0.64525 0.0
N442 N 0.61242 0.12839 0.6457 0.0
N443 N 0.46874 0.13951 0.58709 0.0
C444 C 0.58191 0.13658 0.62795 0.0
C445 C 0.50817 0.14245 0.59852 0.0
N446 N 0.58057 0.09514 0.57197 0.0
N447 N 0.52191 0.1998 0.64473 0.0
H448 H 0.45099 0.12126 0.5634 0.0
H449 H 0.45151 0.15169 0.60288 0.0
H450 H 0.53921 0.22079 0.66731 0.0
H451 H 0.49928 0.20772 0.6323 0.0
H452 H 0.61066 0.09625 0.57859 0.0
H453 H 0.56614 0.07827 0.54683 0.0
H454 H 0.62078 0.10473 0.63639 0.0
H455 H 0.62667 0.14259 0.6717 0.0
C456 C 0.45791 0.55768 0.75547 0.0
C457 C 0.41755 0.52002 0.74245 0.0
C458 C 0.37663 0.52427 0.79741 0.0
C459 C 0.41725 0.56124 0.8111 0.0
N460 N 0.49802 0.60753 0.80771 0.0
N461 N 0.34141 0.46092 0.75452 0.0
C462 C 0.45843 0.57625 0.79148 0.0
C463 C 0.37792 0.50106 0.76476 0.0
N464 N 0.4952 0.57654 0.73282 0.0
N465 N 0.33635 0.51331 0.81394 0.0
H466 H 0.34092 0.44335 0.73035 0.0
H467 H 0.31324 0.44305 0.77167 0.0
H468 H 0.33354 0.53031 0.83718 0.0
H469 H 0.30523 0.4901 0.80261 0.0
H470 H 0.52406 0.60714 0.7386 0.0
H471 H 0.49636 0.56265 0.70696 0.0
H472 H 0.52959 0.61683 0.79657 0.0
H473 H 0.49946 0.62145 0.83419 0.0
C474 C 0.91272 0.45443 0.9275 0.0
C475 C 0.90543 0.41385 0.91068 0.0
C476 C 0.85059 0.36968 0.95951 0.0
C477 C 0.85943 0.41019 0.97754 0.0
N478 N 0.90449 0.49091 0.98315 0.0
N479 N 0.87605 0.33379 0.91489 0.0
C480 C 0.89223 0.45261 0.96286 0.0
C481 C 0.87727 0.37177 0.92823 0.0
N482 N 0.93787 0.4944 0.90905 0.0
N483 N 0.81476 0.32945 0.97061 0.0
H484 H 0.89514 0.33411 0.89183 0.0
H485 H 0.85956 0.30291 0.92878 0.0
H486 H 0.79287 0.3267 0.99219 0.0
H487 H 0.80391 0.29942 0.956 0.0
H488 H 0.94013 0.52448 0.91763 0.0
H489 H 0.95447 0.49698 0.88369 0.0
H490 H 0.93131 0.52235 0.97578 0.0
H491 H 0.89019 0.49067 0.00919 0.0
C492 C 0.4522 0.90051 0.08383 0.0
C493 C 0.49613 0.90877 0.07533 0.0
C494 C 0.5013 0.8819 0.13792 0.0
C495 C 0.45493 0.86633 0.14362 0.0
N496 N 0.38511 0.85959 0.12246 0.0
N497 N 0.56158 0.90377 0.09279 0.0
C498 C 0.43013 0.87594 0.117 0.0
C499 C 0.52077 0.89911 0.10216 0.0
N500 N 0.43182 0.91615 0.06006 0.0
N501 N 0.52684 0.88082 0.167 0.0
H502 H 0.57741 0.91646 0.06696 0.0
H503 H 0.57827 0.89187 0.10956 0.0
H504 H 0.51369 0.86948 0.19391 0.0
H505 H 0.56173 0.89548 0.16563 0.0
H506 H 0.40146 0.91477 0.06612 0.0
H507 H 0.4474 0.93416 0.03558 0.0
H508 H 0.364 0.86097 0.10213 0.0
H509 H 0.36815 0.84209 0.14671 0.0
C510 C 0.6319 0.51774 0.27115 0.0
C511 C 0.60025 0.49329 0.24236 0.0
C512 C 0.57033 0.42415 0.27983 0.0
C513 C 0.60162 0.44894 0.30873 0.0
N514 N 0.65063 0.52113 0.33722 0.0
N515 N 0.53203 0.42683 0.22324 0.0
C516 C 0.62858 0.4964 0.30611 0.0
C517 C 0.56682 0.44764 0.2482 0.0
N518 N 0.66703 0.56017 0.26448 0.0
N519 N 0.54621 0.37819 0.28125 0.0
H520 H 0.52876 0.44349 0.1999 0.0
H521 H 0.50445 0.39481 0.22761 0.0
H522 H 0.54809 0.35961 0.30367 0.0
H523 H 0.52686 0.35826 0.25887 0.0
H524 H 0.6938 0.57707 0.28314 0.0
H525 H 0.67176 0.57716 0.23907 0.0
H526 H 0.66755 0.5562 0.3377 0.0
H527 H 0.64771 0.50659 0.36367 0.0
C528 C 0.39897 0.89954 0.37264 0.0
C529 C 0.43262 0.90906 0.40014 0.0
C530 C 0.46665 0.87637 0.35936 0.0
C531 C 0.43276 0.86676 0.3322 0.0
N532 N 0.37636 0.88182 0.30739 0.0
N533 N 0.50391 0.91633 0.4168 0.0
C534 C 0.4021 0.88257 0.33707 0.0
C535 C 0.46845 0.90083 0.3924 0.0
N536 N 0.36241 0.90383 0.38123 0.0
N537 N 0.49547 0.86018 0.35446 0.0
H538 H 0.50579 0.93432 0.44114 0.0
H539 H 0.53297 0.91485 0.41143 0.0
H540 H 0.49546 0.84295 0.33022 0.0
H541 H 0.51766 0.86161 0.37511 0.0
H542 H 0.33426 0.89193 0.36387 0.0
H543 H 0.35835 0.91604 0.40695 0.0
H544 H 0.35632 0.89668 0.30821 0.0
H545 H 0.3788 0.87059 0.28062 0.0
C546 C 0.51198 0.38242 0.53897 0.0
C547 C 0.53235 0.42262 0.56055 0.0
C548 C 0.59087 0.45991 0.51227 0.0
C549 C 0.5737 0.41811 0.49332 0.0
N550 N 0.52146 0.33802 0.49067 0.0
N551 N 0.5915 0.49928 0.56944 0.0
C552 C 0.53482 0.37903 0.50689 0.0
C553 C 0.57174 0.46148 0.5475 0.0
N554 N 0.47099 0.34722 0.54947 0.0
N555 N 0.62481 0.49809 0.49616 0.0
H556 H 0.57697 0.50208 0.59442 0.0
H557 H 0.62308 0.527 0.56393 0.0
H558 H 0.63955 0.49784 0.47046 0.0
H559 H 0.63609 0.53034 0.50662 0.0
H560 H 0.45208 0.31906 0.53263 0.0
H561 H 0.45387 0.34762 0.57362 0.0
H562 H 0.49681 0.30758 0.50204 0.0
H563 H 0.53757 0.33363 0.46748 0.0
C564 C 0.13576 0.5056 0.70896 0.0
C565 C 0.12332 0.53058 0.73304 0.0
C566 C 0.15257 0.59251 0.68737 0.0
C567 C 0.16463 0.56726 0.66312 0.0
N568 N 0.15836 0.4958 0.64684 0.0
N569 N 0.11163 0.59321 0.74321 0.0
C570 C 0.15283 0.5224 0.67249 0.0
C571 C 0.12912 0.57268 0.72153 0.0
N572 N 0.13424 0.46727 0.72187 0.0
N573 N 0.16388 0.63551 0.67781 0.0
H574 H 0.09425 0.57917 0.76828 0.0
H575 H 0.11106 0.62206 0.73515 0.0
H576 H 0.17779 0.64981 0.65174 0.0
H577 H 0.16113 0.65773 0.69608 0.0
H578 H 0.14869 0.45108 0.70764 0.0
H579 H 0.12171 0.45326 0.74828 0.0
H580 H 0.145 0.4613 0.65043 0.0
H581 H 0.17308 0.50701 0.62053 0.0
C582 C 0.57521 0.11884 0.87879 0.0
C583 C 0.61524 0.12514 0.89596 0.0
C584 C 0.66076 0.17772 0.84624 0.0
C585 C 0.62074 0.17008 0.82807 0.0
N586 N 0.53987 0.12747 0.82263 0.0
N587 N 0.69481 0.15159 0.89199 0.0
C588 C 0.57786 0.13878 0.84302 0.0
C589 C 0.65759 0.15151 0.87817 0.0
N590 N 0.53502 0.09519 0.89732 0.0
N591 N 0.70168 0.21212 0.83466 0.0
H592 H 0.69372 0.13295 0.9156 0.0
H593 H 0.72571 0.16661 0.87804 0.0
H594 H 0.70536 0.23364 0.81252 0.0
H595 H 0.73154 0.22229 0.84931 0.0
H596 H 0.50543 0.09378 0.88846 0.0
H597 H 0.53182 0.07892 0.92294 0.0
H598 H 0.50793 0.10169 0.83024 0.0
H599 H 0.54075 0.14141 0.79629 0.0
C600 C 0.47493 0.57243 0.05012 0.0
C601 C 0.50696 0.61367 0.06696 0.0
C602 C 0.49709 0.65596 0.01614 0.0
C603 C 0.46691 0.61487 -0.00197 0.0
N604 N 0.4327 0.53422 -0.00614 0.0
N605 N 0.5568 0.69388 0.06182 0.0
C606 C 0.45749 0.57306 0.01385 0.0
C607 C 0.52085 0.65517 0.04844 0.0
N608 N 0.46009 0.53298 0.06934 0.0
N609 N 0.50069 0.6955 0.00416 0.0
H610 H 0.57504 0.69458 0.08557 0.0
H611 H 0.57118 0.72436 0.04732 0.0
H612 H 0.48181 0.69726 0.98195 0.0
H613 H 0.51867 0.72579 0.0187 0.0
H614 H 0.43311 0.50236 0.06057 0.0
H615 H 0.47318 0.53134 0.09544 0.0
H616 H 0.42828 0.50317 0.00217 0.0
H617 H 0.41951 0.53366 0.96725 0.0
C618 C 0.91236 0.46826 0.21508 0.0
C619 C 0.91134 0.50676 0.22801 0.0
C620 C 0.87189 0.50748 0.17069 0.0
C621 C 0.86753 0.46553 0.16023 0.0
N622 N 0.88403 0.40592 0.17081 0.0
N623 N 0.89005 0.56332 0.21969 0.0
C624 C 0.88824 0.44605 0.18184 0.0
C625 C 0.89181 0.52697 0.2059 0.0
N626 N 0.93665 0.45334 0.23466 0.0
N627 N 0.85628 0.52831 0.14731 0.0
H628 H 0.90583 0.57971 0.24462 0.0
H629 H 0.87108 0.57605 0.20768 0.0
H630 H 0.83871 0.5139 0.12254 0.0
H631 H 0.86308 0.5612 0.15105 0.0
H632 H 0.94209 0.42766 0.22549 0.0
H633 H 0.95447 0.46915 0.25911 0.0
H634 H 0.89365 0.38708 0.18724 0.0
H635 H 0.86926 0.39036 0.14532 0.0
loop_
_geom_bond_atom_site_label_1
_geom_bond_atom_site_label_2
_geom_bond_distance
_geom_bond_site_symmetry_2
_ccdc_geom_bond_type
H0 C8 0.930 . S
H1 C11 0.930 . S
H2 C13 0.930 . S
H3 C14 0.970 . S
H4 C14 0.970 . S
H5 C16 0.930 . S
H6 C18 0.930 . S
H7 C20 0.930 . S
C8 H0 0.930 . S
C8 C9 1.382 . S
C8 C10 1.426 . S
C9 C8 1.382 . S
C9 C13 1.389 . S
C10 C8 1.426 . S
C10 C11 1.375 . S
C10 C14 1.532 1_655 S
C11 H1 0.930 . S
C11 C10 1.375 . S
C11 C12 1.416 . S
C12 C11 1.416 . S
C12 C13 1.371 . S
C13 H2 0.930 . S
C13 C9 1.389 . S
C13 C12 1.371 . S
C14 H3 0.970 . S
C14 H4 0.970 . S
C14 C10 1.532 1_455 S
C14 C15 1.499 . S
C15 C14 1.499 . S
C15 C16 1.370 . S
C15 C20 1.415 . S
C16 H5 0.930 . S
C16 C15 1.370 . S
C16 C17 1.407 . S
C17 C16 1.407 . S
C17 C18 1.365 . S
C18 H6 0.930 . S
C18 C17 1.365 . S
C18 C19 1.393 . S
C19 C18 1.393 . S
C19 C20 1.387 . S
C20 H7 0.930 . S
C20 C15 1.415 . S
C20 C19 1.387 . S
H21 C29 0.930 . S
H22 C32 0.930 . S
H23 C34 0.930 . S
H24 C35 0.970 . S
H25 C35 0.970 . S
H26 C37 0.930 . S
H27 C39 0.930 . S
H28 C41 0.930 . S
C29 H21 0.930 . S
C29 C30 1.382 . S
C29 C31 1.426 . S
C30 C29 1.382 . S
C30 C34 1.389 . S
C31 C29 1.426 . S
C31 C32 1.375 . S
C31 C35 1.532 1_565 S
C32 H22 0.930 . S
C32 C31 1.375 . S
C32 C33 1.416 . S
C33 C32 1.416 . S
C33 C34 1.371 . S
C34 H23 0.930 . S
C34 C30 1.389 . S
C34 C33 1.371 . S
C35 H24 0.970 . S
C35 H25 0.970 . S
C35 C31 1.532 1_545 S
C35 C36 1.499 . S
C36 C35 1.499 . S
C36 C37 1.370 . S
C36 C41 1.415 . S
C37 H26 0.930 . S
C37 C36 1.370 . S
C37 C38 1.407 . S
C38 C37 1.407 . S
C38 C39 1.365 . S
C39 H27 0.930 . S
C39 C38 1.365 . S
C39 C40 1.393 . S
C40 C39 1.393 . S
C40 C41 1.387 . S
C41 H28 0.930 . S
C41 C36 1.415 . S
C41 C40 1.387 . S
H42 C50 0.930 . S
H43 C53 0.930 . S
H44 C55 0.930 . S
H45 C56 0.970 . S
H46 C56 0.970 . S
H47 C58 0.930 . S
H48 C60 0.930 . S
H49 C62 0.930 . S
C50 H42 0.930 . S
C50 C51 1.382 . S
C50 C52 1.426 . S
C51 C50 1.382 . S
C51 C55 1.389 . S
C52 C50 1.426 . S
C52 C53 1.375 . S
C52 C56 1.532 . S
C53 H43 0.930 . S
C53 C52 1.375 . S
C53 C54 1.416 . S
C54 C53 1.416 . S
C54 C55 1.371 . S
C55 H44 0.930 . S
C55 C51 1.389 . S
C55 C54 1.371 . S
C56 H45 0.970 . S
C56 H46 0.970 . S
C56 C52 1.532 . S
C56 C57 1.499 . S
C57 C56 1.499 . S
C57 C58 1.370 . S
C57 C62 1.415 . S
C58 H47 0.930 . S
C58 C57 1.370 . S
C58 C59 1.407 . S
C59 C58 1.407 . S
C59 C60 1.365 . S
C60 H48 0.930 . S
C60 C59 1.365 . S
C60 C61 1.393 . S
C61 C60 1.393 . S
C61 C62 1.387 . S
C62 H49 0.930 . S
C62 C57 1.415 . S
C62 C61 1.387 . S
H63 C71 0.930 . S
H64 C74 0.930 . S
H65 C76 0.930 . S
H66 C77 0.970 . S
H67 C77 0.970 . S
H68 C79 0.930 . S
H69 C81 0.930 . S
H70 C83 0.930 . S
C71 H63 0.930 . S
C71 C72 1.382 . S
C71 C73 1.426 . S
C72 C71 1.382 . S
C72 C76 1.389 . S
C73 C71 1.426 . S
C73 C74 1.375 . S
C73 C77 1.532 1_655 S
C74 H64 0.930 . S
C74 C73 1.375 . S
C74 C75 1.416 . S
C75 C74 1.416 . S
C75 C76 1.371 . S
C76 H65 0.930 . S
C76 C72 1.389 . S
C76 C75 1.371 . S
C77 H66 0.970 . S
C77 H67 0.970 . S
C77 C73 1.532 1_455 S
C77 C78 1.499 . S
C78 C77 1.499 . S
C78 C79 1.370 . S
C78 C83 1.415 . S
C79 H68 0.930 . S
C79 C78 1.370 . S
C79 C80 1.407 . S
C80 C79 1.407 . S
C80 C81 1.365 . S
C81 H69 0.930 . S
C81 C80 1.365 . S
C81 C82 1.393 . S
C82 C81 1.393 . S
C82 C83 1.387 . S
C83 H70 0.930 . S
C83 C78 1.415 . S
C83 C82 1.387 . S
H84 C92 0.930 . S
H85 C95 0.930 . S
H86 C97 0.930 . S
H87 C98 0.970 1_554 S
H88 C98 0.970 . S
H89 C100 0.930 . S
H90 C102 0.930 . S
H91 C104 0.930 . S
C92 H84 0.930 . S
C92 C93 1.382 1_554 S
C92 C94 1.426 1_554 S
C93 C92 1.382 1_556 S
C93 C97 1.387 . S
C94 C92 1.426 1_556 S
C94 C95 1.375 . S
C94 C98 1.532 . S
C95 H85 0.930 . S
C95 C94 1.375 . S
C95 C96 1.416 . S
C96 C95 1.416 . S
C96 C97 1.371 . S
C97 H86 0.930 . S
C97 C93 1.387 . S
C97 C96 1.371 . S
C98 H87 0.970 1_556 S
C98 H88 0.970 . S
C98 C94 1.532 . S
C98 C99 1.499 1_546 S
C99 C98 1.499 1_564 S
C99 C100 1.370 . S
C99 C104 1.415 1_554 S
C100 H89 0.930 . S
C100 C99 1.370 . S
C100 C101 1.407 . S
C101 C100 1.407 . S
C101 C102 1.365 . S
C102 H90 0.930 . S
C102 C101 1.365 . S
C102 C103 1.393 1_554 S
C103 C102 1.393 1_556 S
C103 C104 1.387 . S
C104 H91 0.930 . S
C104 C99 1.415 1_556 S
C104 C103 1.387 . S
H105 C113 0.930 . S
H106 C116 0.930 . S
H107 C118 0.930 . S
H108 C119 0.970 . S
H109 C119 0.970 . S
H110 C121 0.930 . S
H111 C123 0.930 . S
H112 C125 0.930 . S
C113 H105 0.930 . S
C113 C114 1.382 . S
C113 C115 1.426 . S
C114 C113 1.382 . S
C114 C118 1.389 . S
C115 C113 1.426 . S
C115 C116 1.375 . S
C115 C119 1.532 . S
C116 H106 0.930 . S
C116 C115 1.375 . S
C116 C117 1.416 . S
C117 C116 1.416 . S
C117 C118 1.371 . S
C118 H107 0.930 . S
C118 C114 1.389 . S
C118 C117 1.371 . S
C119 H108 0.970 . S
C119 H109 0.970 . S
C119 C115 1.532 . S
C119 C120 1.499 . S
C120 C119 1.499 . S
C120 C121 1.370 . S
C120 C125 1.415 . S
C121 H110 0.930 . S
C121 C120 1.370 . S
C121 C122 1.407 . S
C122 C121 1.407 . S
C122 C123 1.365 . S
C123 H111 0.930 . S
C123 C122 1.365 . S
C123 C124 1.393 . S
C124 C123 1.393 . S
C124 C125 1.387 . S
C125 H112 0.930 . S
C125 C120 1.415 . S
C125 C124 1.387 . S
In126 O127 2.294 . S
In126 O128 2.326 . S
In126 O132 2.266 . S
In126 O133 2.326 . S
In126 O134 2.266 . S
In126 O135 2.326 . S
In126 O137 2.294 . S
In126 O138 2.326 . S
O127 In126 2.294 . S
O127 C136 1.240 . S
O128 In126 2.326 . S
O128 C136 1.252 . S
C129 O132 1.252 . S
C129 O133 1.260 . S
C130 O137 1.240 . S
C130 O138 1.252 . S
C131 O134 1.252 . S
C131 O135 1.260 . S
O132 In126 2.266 . S
O132 C129 1.252 . S
O133 In126 2.326 . S
O133 C129 1.260 . S
O134 In126 2.266 . S
O134 C131 1.252 . S
O135 In126 2.326 . S
O135 C131 1.260 . S
C136 O127 1.240 . S
C136 O128 1.252 . S
O137 In126 2.294 . S
O137 C130 1.240 . S
O138 In126 2.326 . S
O138 C130 1.252 . S
In139 O140 2.294 . S
In139 O141 2.326 . S
In139 O145 2.266 . S
In139 O146 2.326 . S
In139 O147 2.266 . S
In139 O148 2.326 . S
In139 O150 2.294 . S
In139 O151 2.326 . S
O140 In139 2.294 . S
O140 C149 1.240 . S
O141 In139 2.326 . S
O141 C149 1.252 . S
C142 O145 1.252 . S
C142 O146 1.260 . S
C143 O150 1.240 . S
C143 O151 1.252 . S
C144 O147 1.252 . S
C144 O148 1.260 . S
O145 In139 2.266 . S
O145 C142 1.252 . S
O146 In139 2.326 . S
O146 C142 1.260 . S
O147 In139 2.266 . S
O147 C144 1.252 . S
O148 In139 2.326 . S
O148 C144 1.260 . S
C149 O140 1.240 . S
C149 O141 1.252 . S
O150 In139 2.294 . S
O150 C143 1.240 . S
O151 In139 2.326 . S
O151 C143 1.252 . S
In152 O153 2.294 . S
In152 O154 2.326 . S
In152 O158 2.266 . S
In152 O159 2.326 . S
In152 O160 2.266 . S
In152 O161 2.326 . S
In152 O163 2.294 . S
In152 O164 2.326 . S
O153 In152 2.294 . S
O153 C162 1.240 . S
O154 In152 2.326 . S
O154 C162 1.252 . S
C155 O158 1.252 . S
C155 O159 1.260 . S
C156 O163 1.240 . S
C156 O164 1.252 . S
C157 O160 1.252 . S
C157 O161 1.260 . S
O158 In152 2.266 . S
O158 C155 1.252 . S
O159 In152 2.326 . S
O159 C155 1.260 . S
O160 In152 2.266 . S
O160 C157 1.252 . S
O161 In152 2.326 . S
O161 C157 1.260 . S
C162 O153 1.240 . S
C162 O154 1.252 . S
O163 In152 2.294 . S
O163 C156 1.240 . S
O164 In152 2.326 . S
O164 C156 1.252 . S
In165 O166 2.294 . S
In165 O167 2.326 . S
In165 O171 2.266 . S
In165 O172 2.326 . S
In165 O173 2.266 . S
In165 O174 2.326 . S
In165 O176 2.294 . S
In165 O177 2.326 . S
O166 In165 2.294 . S
O166 C175 1.240 . S
O167 In165 2.326 . S
O167 C175 1.252 . S
C168 O171 1.252 . S
C168 O172 1.260 . S
C169 O176 1.240 . S
C169 O177 1.252 . S
C170 O173 1.252 . S
C170 O174 1.260 . S
O171 In165 2.266 . S
O171 C168 1.252 . S
O172 In165 2.326 . S
O172 C168 1.260 . S
O173 In165 2.266 . S
O173 C170 1.252 . S
O174 In165 2.326 . S
O174 C170 1.260 . S
C175 O166 1.240 . S
C175 O167 1.252 . S
O176 In165 2.294 . S
O176 C169 1.240 . S
O177 In165 2.326 . S
O177 C169 1.252 . S
In178 O179 2.294 . S
In178 O180 2.326 . S
In178 O184 2.266 . S
In178 O185 2.326 . S
In178 O186 2.266 . S
In178 O187 2.326 . S
In178 O189 2.294 . S
In178 O190 2.326 . S
O179 In178 2.294 . S
O179 C188 1.240 . S
O180 In178 2.326 . S
O180 C188 1.252 . S
C181 O184 1.252 . S
C181 O185 1.260 . S
C182 O189 1.240 . S
C182 O190 1.252 . S
C183 O186 1.252 . S
C183 O187 1.260 . S
O184 In178 2.266 . S
O184 C181 1.252 . S
O185 In178 2.326 . S
O185 C181 1.260 . S
O186 In178 2.266 . S
O186 C183 1.252 . S
O187 In178 2.326 . S
O187 C183 1.260 . S
C188 O179 1.240 . S
C188 O180 1.252 . S
O189 In178 2.294 . S
O189 C182 1.240 . S
O190 In178 2.326 . S
O190 C182 1.252 . S
In191 O192 2.294 . S
In191 O193 2.326 . S
In191 O197 2.266 . S
In191 O198 2.326 . S
In191 O199 2.266 . S
In191 O200 2.326 . S
In191 O202 2.294 . S
In191 O203 2.326 . S
O192 In191 2.294 . S
O192 C201 1.240 . S
O193 In191 2.326 . S
O193 C201 1.252 . S
C194 O197 1.252 . S
C194 O198 1.260 . S
C195 O202 1.240 . S
C195 O203 1.252 . S
C196 O199 1.252 . S
C196 O200 1.260 . S
O197 In191 2.266 . S
O197 C194 1.252 . S
O198 In191 2.326 . S
O198 C194 1.260 . S
O199 In191 2.266 . S
O199 C196 1.252 . S
O200 In191 2.326 . S
O200 C196 1.260 . S
C201 O192 1.240 . S
C201 O193 1.252 . S
O202 In191 2.294 . S
O202 C195 1.240 . S
O203 In191 2.326 . S
O203 C195 1.252 . S
C204 C205 1.363 . S
C204 C210 1.379 . S
C204 N212 1.356 . S
C205 C204 1.363 . S
C205 C211 1.363 . S
C206 C207 1.363 . S
C206 C211 1.379 . S
C206 N213 1.356 . S
C207 C206 1.363 . S
C207 C210 1.363 . S
N208 C210 1.356 . S
N208 H220 0.984 . S
N208 H221 0.985 . S
N209 C211 1.356 . S
N209 H214 0.984 . S
N209 H215 0.985 . S
C210 C204 1.379 . S
C210 C207 1.363 . S
C210 N208 1.356 . S
C211 C205 1.363 . S
C211 C206 1.379 . S
C211 N209 1.356 . S
N212 C204 1.356 . S
N212 H218 0.984 . S
N212 H219 0.984 . S
N213 C206 1.356 . S
N213 H216 0.984 . S
N213 H217 0.985 . S
H214 N209 0.984 . S
H215 N209 0.985 . S
H216 N213 0.984 . S
H217 N213 0.985 . S
H218 N212 0.984 . S
H219 N212 0.984 . S
H220 N208 0.984 . S
H221 N208 0.985 . S
C222 C223 1.363 . S
C222 C228 1.379 . S
C222 N230 1.356 . S
C223 C222 1.363 . S
C223 C229 1.363 . S
C224 C225 1.363 . S
C224 C229 1.379 . S
C224 N231 1.356 . S
C225 C224 1.363 . S
C225 C228 1.363 . S
N226 C228 1.356 . S
N226 H238 0.984 . S
N226 H239 0.985 . S
N227 C229 1.356 . S
N227 H232 0.984 . S
N227 H233 0.985 . S
C228 C222 1.379 . S
C228 C225 1.363 . S
C228 N226 1.356 . S
C229 C223 1.363 . S
C229 C224 1.379 . S
C229 N227 1.356 . S
N230 C222 1.356 . S
N230 H236 0.984 . S
N230 H237 0.984 . S
N231 C224 1.356 . S
N231 H234 0.984 . S
N231 H235 0.985 . S
H232 N227 0.984 . S
H233 N227 0.985 . S
H234 N231 0.984 . S
H235 N231 0.985 . S
H236 N230 0.984 . S
H237 N230 0.984 . S
H238 N226 0.984 . S
H239 N226 0.985 . S
C240 C241 1.363 . S
C240 C246 1.379 . S
C240 N248 1.356 . S
C241 C240 1.363 . S
C241 C247 1.363 . S
C242 C243 1.363 . S
C242 C247 1.379 . S
C242 N249 1.356 . S
C243 C242 1.363 . S
C243 C246 1.363 . S
N244 C246 1.356 . S
N244 H256 0.984 . S
N244 H257 0.985 . S
N245 C247 1.356 . S
N245 H250 0.984 . S
N245 H251 0.985 . S
C246 C240 1.379 . S
C246 C243 1.363 . S
C246 N244 1.356 . S
C247 C241 1.363 . S
C247 C242 1.379 . S
C247 N245 1.356 . S
N248 C240 1.356 . S
N248 H254 0.984 . S
N248 H255 0.984 . S
N249 C242 1.356 . S
N249 H252 0.984 . S
N249 H253 0.985 . S
H250 N245 0.984 . S
H251 N245 0.985 . S
H252 N249 0.984 . S
H253 N249 0.985 . S
H254 N248 0.984 . S
H255 N248 0.984 . S
H256 N244 0.984 . S
H257 N244 0.985 . S
C258 C259 1.363 . S
C258 C264 1.379 . S
C258 N266 1.356 . S
C259 C258 1.363 . S
C259 C265 1.363 . S
C260 C261 1.363 . S
C260 C265 1.379 . S
C260 N267 1.356 . S
C261 C260 1.363 . S
C261 C264 1.363 . S
N262 C264 1.356 . S
N262 H274 0.984 . S
N262 H275 0.985 . S
N263 C265 1.356 . S
N263 H268 0.984 . S
N263 H269 0.985 . S
C264 C258 1.379 . S
C264 C261 1.363 . S
C264 N262 1.356 . S
C265 C259 1.363 . S
C265 C260 1.379 . S
C265 N263 1.356 . S
N266 C258 1.356 . S
N266 H272 0.984 . S
N266 H273 0.984 . S
N267 C260 1.356 . S
N267 H270 0.984 . S
N267 H271 0.985 . S
H268 N263 0.984 . S
H269 N263 0.985 . S
H270 N267 0.984 . S
H271 N267 0.985 . S
H272 N266 0.984 . S
H273 N266 0.984 . S
H274 N262 0.984 . S
H275 N262 0.985 . S
C276 C277 1.363 . S
C276 C282 1.379 . S
C276 N284 1.356 1_556 S
C277 C276 1.363 . S
C277 C283 1.363 . S
C278 C279 1.363 . S
C278 C283 1.379 . S
C278 N285 1.356 . S
C279 C278 1.363 . S
C279 C282 1.363 . S
N280 C282 1.356 . S
N280 H292 0.984 1_556 S
N280 H293 0.985 . S
N281 C283 1.356 . S
N281 H286 0.984 . S
N281 H287 0.985 . S
C282 C276 1.379 . S
C282 C279 1.363 . S
C282 N280 1.356 . S
C283 C277 1.363 . S
C283 C278 1.379 . S
C283 N281 1.356 . S
N284 C276 1.356 1_554 S
N284 H290 0.984 . S
N284 H291 0.984 . S
N285 C278 1.356 . S
N285 H288 0.984 . S
N285 H289 0.985 . S
H286 N281 0.984 . S
H287 N281 0.985 . S
H288 N285 0.984 . S
H289 N285 0.985 . S
H290 N284 0.984 . S
H291 N284 0.984 . S
H292 N280 0.984 1_554 S
H293 N280 0.985 . S
C294 C295 1.363 . S
C294 C300 1.379 . S
C294 N302 1.356 . S
C295 C294 1.363 . S
C295 C301 1.363 . S
C296 C297 1.363 . S
C296 C301 1.379 . S
C296 N303 1.356 . S
C297 C296 1.363 . S
C297 C300 1.363 . S
N298 C300 1.356 . S
N298 H310 0.984 . S
N298 H311 0.985 . S
N299 C301 1.356 . S
N299 H304 0.984 . S
N299 H305 0.985 . S
C300 C294 1.379 . S
C300 C297 1.363 . S
C300 N298 1.356 . S
C301 C295 1.363 . S
C301 C296 1.379 . S
C301 N299 1.356 . S
N302 C294 1.356 . S
N302 H308 0.984 . S
N302 H309 0.984 . S
N303 C296 1.356 . S
N303 H306 0.984 . S
N303 H307 0.985 . S
H304 N299 0.984 . S
H305 N299 0.985 . S
H306 N303 0.984 . S
H307 N303 0.985 . S
H308 N302 0.984 . S
H309 N302 0.984 . S
H310 N298 0.984 . S
H311 N298 0.985 . S
C312 C313 1.363 . S
C312 C318 1.379 . S
C312 N320 1.356 . S
C313 C312 1.363 . S
C313 C319 1.363 . S
C314 C315 1.363 . S
C314 C319 1.379 . S
C314 N321 1.356 . S
C315 C314 1.363 . S
C315 C318 1.363 . S
N316 C318 1.356 . S
N316 H328 0.984 . S
N316 H329 0.985 . S
N317 C319 1.356 . S
N317 H322 0.984 . S
N317 H323 0.985 . S
C318 C312 1.379 . S
C318 C315 1.363 . S
C318 N316 1.356 . S
C319 C313 1.363 . S
C319 C314 1.379 . S
C319 N317 1.356 . S
N320 C312 1.356 . S
N320 H326 0.984 . S
N320 H327 0.984 . S
N321 C314 1.356 . S
N321 H324 0.984 . S
N321 H325 0.985 . S
H322 N317 0.984 . S
H323 N317 0.985 . S
H324 N321 0.984 . S
H325 N321 0.985 . S
H326 N320 0.984 . S
H327 N320 0.984 . S
H328 N316 0.984 . S
H329 N316 0.985 . S
C330 C331 1.363 . S
C330 C336 1.379 . S
C330 N338 1.356 . S
C331 C330 1.363 . S
C331 C337 1.363 . S
C332 C333 1.363 . S
C332 C337 1.379 . S
C332 N339 1.356 . S
C333 C332 1.363 . S
C333 C336 1.363 . S
N334 C336 1.356 . S
N334 H346 0.984 . S
N334 H347 0.985 . S
N335 C337 1.356 . S
N335 H340 0.984 . S
N335 H341 0.985 . S
C336 C330 1.379 . S
C336 C333 1.363 . S
C336 N334 1.356 . S
C337 C331 1.363 . S
C337 C332 1.379 . S
C337 N335 1.356 . S
N338 C330 1.356 . S
N338 H344 0.984 . S
N338 H345 0.984 . S
N339 C332 1.356 . S
N339 H342 0.984 . S
N339 H343 0.985 . S
H340 N335 0.984 . S
H341 N335 0.985 . S
H342 N339 0.984 . S
H343 N339 0.985 . S
H344 N338 0.984 . S
H345 N338 0.984 . S
H346 N334 0.984 . S
H347 N334 0.985 . S
C348 C349 1.363 . S
C348 C354 1.379 . S
C348 N356 1.356 . S
C349 C348 1.363 . S
C349 C355 1.363 . S
C350 C351 1.363 . S
C350 C355 1.379 . S
C350 N357 1.356 . S
C351 C350 1.363 . S
C351 C354 1.363 . S
N352 C354 1.356 . S
N352 H364 0.984 . S
N352 H365 0.985 . S
N353 C355 1.356 . S
N353 H358 0.984 . S
N353 H359 0.985 . S
C354 C348 1.379 . S
C354 C351 1.363 . S
C354 N352 1.356 . S
C355 C349 1.363 . S
C355 C350 1.379 . S
C355 N353 1.356 . S
N356 C348 1.356 . S
N356 H362 0.984 . S
N356 H363 0.984 . S
N357 C350 1.356 . S
N357 H360 0.984 . S
N357 H361 0.985 . S
H358 N353 0.984 . S
H359 N353 0.985 . S
H360 N357 0.984 . S
H361 N357 0.985 . S
H362 N356 0.984 . S
H363 N356 0.984 . S
H364 N352 0.984 . S
H365 N352 0.985 . S
C366 C367 1.363 1_556 S
C366 C372 1.379 1_556 S
C366 N374 1.356 . S
C367 C366 1.363 1_554 S
C367 C373 1.363 . S
C368 C369 1.363 . S
C368 C373 1.379 . S
C368 N375 1.356 . S
C369 C368 1.363 . S
C369 C372 1.363 . S
N370 C372 1.356 1_556 S
N370 H382 0.984 . S
N370 H383 0.985 1_556 S
N371 C373 1.356 . S
N371 H376 0.984 . S
N371 H377 0.985 . S
C372 C366 1.379 1_554 S
C372 C369 1.363 . S
C372 N370 1.356 1_554 S
C373 C367 1.363 . S
C373 C368 1.379 . S
C373 N371 1.356 . S
N374 C366 1.356 . S
N374 H380 0.984 . S
N374 H381 0.984 . S
N375 C368 1.356 . S
N375 H378 0.984 . S
N375 H379 0.985 . S
H376 N371 0.984 . S
H377 N371 0.985 . S
H378 N375 0.984 . S
H379 N375 0.985 . S
H380 N374 0.984 . S
H381 N374 0.984 . S
H382 N370 0.984 . S
H383 N370 0.985 1_554 S
C384 C385 1.363 . S
C384 C390 1.379 . S
C384 N392 1.356 . S
C385 C384 1.363 . S
C385 C391 1.363 . S
C386 C387 1.363 . S
C386 C391 1.379 . S
C386 N393 1.356 . S
C387 C386 1.363 . S
C387 C390 1.363 . S
N388 C390 1.356 . S
N388 H400 0.984 . S
N388 H401 0.985 . S
N389 C391 1.356 . S
N389 H394 0.984 . S
N389 H395 0.985 . S
C390 C384 1.379 . S
C390 C387 1.363 . S
C390 N388 1.356 . S
C391 C385 1.363 . S
C391 C386 1.379 . S
C391 N389 1.356 . S
N392 C384 1.356 . S
N392 H398 0.984 . S
N392 H399 0.984 . S
N393 C386 1.356 . S
N393 H396 0.984 . S
N393 H397 0.985 . S
H394 N389 0.984 . S
H395 N389 0.985 . S
H396 N393 0.984 . S
H397 N393 0.985 . S
H398 N392 0.984 . S
H399 N392 0.984 . S
H400 N388 0.984 . S
H401 N388 0.985 . S
C402 C403 1.363 . S
C402 C408 1.379 . S
C402 N410 1.356 . S
C403 C402 1.363 . S
C403 C409 1.363 . S
C404 C405 1.363 . S
C404 C409 1.379 . S
C404 N411 1.356 . S
C405 C404 1.363 . S
C405 C408 1.363 . S
N406 C408 1.356 . S
N406 H418 0.984 . S
N406 H419 0.985 . S
N407 C409 1.356 . S
N407 H412 0.984 . S
N407 H413 0.985 . S
C408 C402 1.379 . S
C408 C405 1.363 . S
C408 N406 1.356 . S
C409 C403 1.363 . S
C409 C404 1.379 . S
C409 N407 1.356 . S
N410 C402 1.356 . S
N410 H416 0.984 . S
N410 H417 0.984 . S
N411 C404 1.356 . S
N411 H414 0.984 . S
N411 H415 0.985 . S
H412 N407 0.984 . S
H413 N407 0.985 . S
H414 N411 0.984 . S
H415 N411 0.985 . S
H416 N410 0.984 . S
H417 N410 0.984 . S
H418 N406 0.984 . S
H419 N406 0.985 . S
C420 C421 1.363 . S
C420 C426 1.379 . S
C420 N428 1.356 . S
C421 C420 1.363 . S
C421 C427 1.363 . S
C422 C423 1.363 . S
C422 C427 1.379 . S
C422 N429 1.356 . S
C423 C422 1.363 . S
C423 C426 1.363 . S
N424 C426 1.356 . S
N424 H436 0.984 . S
N424 H437 0.985 . S
N425 C427 1.356 . S
N425 H430 0.984 . S
N425 H431 0.985 . S
C426 C420 1.379 . S
C426 C423 1.363 . S
C426 N424 1.356 . S
C427 C421 1.363 . S
C427 C422 1.379 . S
C427 N425 1.356 . S
N428 C420 1.356 . S
N428 H434 0.984 . S
N428 H435 0.984 . S
N429 C422 1.356 . S
N429 H432 0.984 . S
N429 H433 0.985 . S
H430 N425 0.984 . S
H431 N425 0.985 . S
H432 N429 0.984 . S
H433 N429 0.985 . S
H434 N428 0.984 . S
H435 N428 0.984 . S
H436 N424 0.984 . S
H437 N424 0.985 . S
C438 C439 1.363 . S
C438 C444 1.379 . S
C438 N446 1.356 . S
C439 C438 1.363 . S
C439 C445 1.363 . S
C440 C441 1.363 . S
C440 C445 1.379 . S
C440 N447 1.356 . S
C441 C440 1.363 . S
C441 C444 1.363 . S
N442 C444 1.356 . S
N442 H454 0.984 . S
N442 H455 0.985 . S
N443 C445 1.356 . S
N443 H448 0.984 . S
N443 H449 0.985 . S
C444 C438 1.379 . S
C444 C441 1.363 . S
C444 N442 1.356 . S
C445 C439 1.363 . S
C445 C440 1.379 . S
C445 N443 1.356 . S
N446 C438 1.356 . S
N446 H452 0.984 . S
N446 H453 0.984 . S
N447 C440 1.356 . S
N447 H450 0.984 . S
N447 H451 0.985 . S
H448 N443 0.984 . S
H449 N443 0.985 . S
H450 N447 0.984 . S
H451 N447 0.985 . S
H452 N446 0.984 . S
H453 N446 0.984 . S
H454 N442 0.984 . S
H455 N442 0.985 . S
C456 C457 1.363 . S
C456 C462 1.379 . S
C456 N464 1.356 . S
C457 C456 1.363 . S
C457 C463 1.363 . S
C458 C459 1.363 . S
C458 C463 1.379 . S
C458 N465 1.356 . S
C459 C458 1.363 . S
C459 C462 1.363 . S
N460 C462 1.356 . S
N460 H472 0.984 . S
N460 H473 0.985 . S
N461 C463 1.356 . S
N461 H466 0.984 . S
N461 H467 0.985 . S
C462 C456 1.379 . S
C462 C459 1.363 . S
C462 N460 1.356 . S
C463 C457 1.363 . S
C463 C458 1.379 . S
C463 N461 1.356 . S
N464 C456 1.356 . S
N464 H470 0.984 . S
N464 H471 0.984 . S
N465 C458 1.356 . S
N465 H468 0.984 . S
N465 H469 0.985 . S
H466 N461 0.984 . S
H467 N461 0.985 . S
H468 N465 0.984 . S
H469 N465 0.985 . S
H470 N464 0.984 . S
H471 N464 0.984 . S
H472 N460 0.984 . S
H473 N460 0.985 . S
C474 C475 1.363 . S
C474 C480 1.379 . S
C474 N482 1.356 . S
C475 C474 1.363 . S
C475 C481 1.363 . S
C476 C477 1.363 . S
C476 C481 1.379 . S
C476 N483 1.356 . S
C477 C476 1.363 . S
C477 C480 1.363 . S
N478 C480 1.356 1_554 S
N478 H490 0.984 . S
N478 H491 0.985 . S
N479 C481 1.356 . S
N479 H484 0.984 . S
N479 H485 0.985 . S
C480 C474 1.379 . S
C480 C477 1.363 . S
C480 N478 1.356 1_556 S
C481 C475 1.363 . S
C481 C476 1.379 . S
C481 N479 1.356 . S
N482 C474 1.356 . S
N482 H488 0.984 . S
N482 H489 0.984 . S
N483 C476 1.356 . S
N483 H486 0.984 . S
N483 H487 0.985 . S
H484 N479 0.984 . S
H485 N479 0.985 . S
H486 N483 0.984 . S
H487 N483 0.985 . S
H488 N482 0.984 . S
H489 N482 0.984 . S
H490 N478 0.984 . S
H491 N478 0.985 . S
C492 C493 1.363 . S
C492 C498 1.379 . S
C492 N500 1.356 . S
C493 C492 1.363 . S
C493 C499 1.363 . S
C494 C495 1.363 . S
C494 C499 1.379 . S
C494 N501 1.356 . S
C495 C494 1.363 . S
C495 C498 1.363 . S
N496 C498 1.356 . S
N496 H508 0.984 . S
N496 H509 0.985 . S
N497 C499 1.356 . S
N497 H502 0.984 . S
N497 H503 0.985 . S
C498 C492 1.379 . S
C498 C495 1.363 . S
C498 N496 1.356 . S
C499 C493 1.363 . S
C499 C494 1.379 . S
C499 N497 1.356 . S
N500 C492 1.356 . S
N500 H506 0.984 . S
N500 H507 0.984 . S
N501 C494 1.356 . S
N501 H504 0.984 . S
N501 H505 0.985 . S
H502 N497 0.984 . S
H503 N497 0.985 . S
H504 N501 0.984 . S
H505 N501 0.985 . S
H506 N500 0.984 . S
H507 N500 0.984 . S
H508 N496 0.984 . S
H509 N496 0.985 . S
C510 C511 1.363 . S
C510 C516 1.379 . S
C510 N518 1.356 . S
C511 C510 1.363 . S
C511 C517 1.363 . S
C512 C513 1.363 . S
C512 C517 1.379 . S
C512 N519 1.356 . S
C513 C512 1.363 . S
C513 C516 1.363 . S
N514 C516 1.356 . S
N514 H526 0.984 . S
N514 H527 0.985 . S
N515 C517 1.356 . S
N515 H520 0.984 . S
N515 H521 0.985 . S
C516 C510 1.379 . S
C516 C513 1.363 . S
C516 N514 1.356 . S
C517 C511 1.363 . S
C517 C512 1.379 . S
C517 N515 1.356 . S
N518 C510 1.356 . S
N518 H524 0.984 . S
N518 H525 0.984 . S
N519 C512 1.356 . S
N519 H522 0.984 . S
N519 H523 0.985 . S
H520 N515 0.984 . S
H521 N515 0.985 . S
H522 N519 0.984 . S
H523 N519 0.985 . S
H524 N518 0.984 . S
H525 N518 0.984 . S
H526 N514 0.984 . S
H527 N514 0.985 . S
C528 C529 1.363 . S
C528 C534 1.379 . S
C528 N536 1.356 . S
C529 C528 1.363 . S
C529 C535 1.363 . S
C530 C531 1.363 . S
C530 C535 1.379 . S
C530 N537 1.356 . S
C531 C530 1.363 . S
C531 C534 1.363 . S
N532 C534 1.356 . S
N532 H544 0.984 . S
N532 H545 0.985 . S
N533 C535 1.356 . S
N533 H538 0.984 . S
N533 H539 0.985 . S
C534 C528 1.379 . S
C534 C531 1.363 . S
C534 N532 1.356 . S
C535 C529 1.363 . S
C535 C530 1.379 . S
C535 N533 1.356 . S
N536 C528 1.356 . S
N536 H542 0.984 . S
N536 H543 0.984 . S
N537 C530 1.356 . S
N537 H540 0.984 . S
N537 H541 0.985 . S
H538 N533 0.984 . S
H539 N533 0.985 . S
H540 N537 0.984 . S
H541 N537 0.985 . S
H542 N536 0.984 . S
H543 N536 0.984 . S
H544 N532 0.984 . S
H545 N532 0.985 . S
C546 C547 1.363 . S
C546 C552 1.379 . S
C546 N554 1.356 . S
C547 C546 1.363 . S
C547 C553 1.363 . S
C548 C549 1.363 . S
C548 C553 1.379 . S
C548 N555 1.356 . S
C549 C548 1.363 . S
C549 C552 1.363 . S
N550 C552 1.356 . S
N550 H562 0.984 . S
N550 H563 0.985 . S
N551 C553 1.356 . S
N551 H556 0.984 . S
N551 H557 0.985 . S
C552 C546 1.379 . S
C552 C549 1.363 . S
C552 N550 1.356 . S
C553 C547 1.363 . S
C553 C548 1.379 . S
C553 N551 1.356 . S
N554 C546 1.356 . S
N554 H560 0.984 . S
N554 H561 0.984 . S
N555 C548 1.356 . S
N555 H558 0.984 . S
N555 H559 0.985 . S
H556 N551 0.984 . S
H557 N551 0.985 . S
H558 N555 0.984 . S
H559 N555 0.985 . S
H560 N554 0.984 . S
H561 N554 0.984 . S
H562 N550 0.984 . S
H563 N550 0.985 . S
C564 C565 1.363 . S
C564 C570 1.379 . S
C564 N572 1.356 . S
C565 C564 1.363 . S
C565 C571 1.363 . S
C566 C567 1.363 . S
C566 C571 1.379 . S
C566 N573 1.356 . S
C567 C566 1.363 . S
C567 C570 1.363 . S
N568 C570 1.356 . S
N568 H580 0.984 . S
N568 H581 0.985 . S
N569 C571 1.356 . S
N569 H574 0.984 . S
N569 H575 0.985 . S
C570 C564 1.379 . S
C570 C567 1.363 . S
C570 N568 1.356 . S
C571 C565 1.363 . S
C571 C566 1.379 . S
C571 N569 1.356 . S
N572 C564 1.356 . S
N572 H578 0.984 . S
N572 H579 0.984 . S
N573 C566 1.356 . S
N573 H576 0.984 . S
N573 H577 0.985 . S
H574 N569 0.984 . S
H575 N569 0.985 . S
H576 N573 0.984 . S
H577 N573 0.985 . S
H578 N572 0.984 . S
H579 N572 0.984 . S
H580 N568 0.984 . S
H581 N568 0.985 . S
C582 C583 1.363 . S
C582 C588 1.379 . S
C582 N590 1.356 . S
C583 C582 1.363 . S
C583 C589 1.363 . S
C584 C585 1.363 . S
C584 C589 1.379 . S
C584 N591 1.356 . S
C585 C584 1.363 . S
C585 C588 1.363 . S
N586 C588 1.356 . S
N586 H598 0.984 . S
N586 H599 0.985 . S
N587 C589 1.356 . S
N587 H592 0.984 . S
N587 H593 0.985 . S
C588 C582 1.379 . S
C588 C585 1.363 . S
C588 N586 1.356 . S
C589 C583 1.363 . S
C589 C584 1.379 . S
C589 N587 1.356 . S
N590 C582 1.356 . S
N590 H596 0.984 . S
N590 H597 0.984 . S
N591 C584 1.356 . S
N591 H594 0.984 . S
N591 H595 0.985 . S
H592 N587 0.984 . S
H593 N587 0.985 . S
H594 N591 0.984 . S
H595 N591 0.985 . S
H596 N590 0.984 . S
H597 N590 0.984 . S
H598 N586 0.984 . S
H599 N586 0.985 . S
C600 C601 1.363 . S
C600 C606 1.379 . S
C600 N608 1.356 . S
C601 C600 1.363 . S
C601 C607 1.363 . S
C602 C603 1.363 . S
C602 C607 1.379 . S
C602 N609 1.356 . S
C603 C602 1.363 . S
C603 C606 1.363 . S
N604 C606 1.356 1_556 S
N604 H616 0.984 . S
N604 H617 0.985 . S
N605 C607 1.356 . S
N605 H610 0.984 . S
N605 H611 0.985 . S
C606 C600 1.379 . S
C606 C603 1.363 . S
C606 N604 1.356 1_554 S
C607 C601 1.363 . S
C607 C602 1.379 . S
C607 N605 1.356 . S
N608 C600 1.356 . S
N608 H614 0.984 . S
N608 H615 0.984 . S
N609 C602 1.356 . S
N609 H612 0.984 . S
N609 H613 0.985 . S
H610 N605 0.984 . S
H611 N605 0.985 . S
H612 N609 0.984 . S
H613 N609 0.985 . S
H614 N608 0.984 . S
H615 N608 0.984 . S
H616 N604 0.984 . S
H617 N604 0.985 . S
C618 C619 1.363 . S
C618 C624 1.379 . S
C618 N626 1.356 . S
C619 C618 1.363 . S
C619 C625 1.363 . S
C620 C621 1.363 . S
C620 C625 1.379 . S
C620 N627 1.356 . S
C621 C620 1.363 . S
C621 C624 1.363 . S
N622 C624 1.356 . S
N622 H634 0.984 . S
N622 H635 0.985 . S
N623 C625 1.356 . S
N623 H628 0.984 . S
N623 H629 0.985 . S
C624 C618 1.379 . S
C624 C621 1.363 . S
C624 N622 1.356 . S
C625 C619 1.363 . S
C625 C620 1.379 . S
C625 N623 1.356 . S
N626 C618 1.356 . S
N626 H632 0.984 . S
N626 H633 0.984 . S
N627 C620 1.356 . S
N627 H630 0.984 . S
N627 H631 0.985 . S
H628 N623 0.984 . S
H629 N623 0.985 . S
H630 N627 0.984 . S
H631 N627 0.985 . S
H632 N626 0.984 . S
H633 N626 0.984 . S
H634 N622 0.984 . S
H635 N622 0.985 . S
C207 C196 1.580 . S
C205 C19 1.517 . S
C223 C40 1.522 . S
C225 C131 1.585 . S
C241 C51 1.514 . S
C243 C149 1.588 . S
C259 C72 1.502 . S
C261 C162 1.575 . S
C279 C170 1.583 . S
C277 C103 1.519 . S
C295 C114 1.508 . S
C297 C182 1.581 . S
C313 C30 1.517 . S
C315 C144 1.593 . S
C331 C61 1.519 . S
C333 C157 1.582 . S
C349 C82 1.515 . S
C351 C175 1.576 . S
C369 C181 1.587 . S
C367 C93 1.512 1_554 S
C387 C201 1.572 . S
C385 C124 1.512 . S
C405 C136 1.581 . S
C403 C9 1.507 . S
C421 C17 1.512 . S
C423 C142 1.583 . S
C439 C38 1.511 . S
C441 C155 1.582 . S
C459 C169 1.577 . S
C457 C54 1.505 . S
C475 C75 1.513 . S
C477 C183 1.586 1_556 S
C495 C195 1.575 . S
C493 C101 1.504 . S
C513 C130 1.576 . S
C511 C117 1.504 . S
C531 C194 1.579 . S
C529 C33 1.508 . S
C547 C59 1.509 . S
C549 C129 1.580 . S
C567 C143 1.582 . S
C565 C80 1.510 . S
C583 C96 1.502 . S
C585 C156 1.574 . S
C601 C122 1.511 . S
C603 C168 1.582 1_554 S
C619 C12 1.509 . S
C621 C188 1.582 . S
