# Generated by pormake.
# Topology pyr, (3,6)-cn, num edge types: 1
# Building blocks:
#     Node 0, Type 0, BuildingBlock: BELTOD_clean_linker_0, # of connection points: 3
#     Node 1, Type 0, BuildingBlock: BELTOD_clean_linker_0, # of connection points: 3
#     Node 2, Type 0, BuildingBlock: BELTOD_clean_linker_0, # of connection points: 3
#     Node 3, Type 0, BuildingBlock: BELTOD_clean_linker_0, # of connection points: 3
#     Node 4, Type 0, BuildingBlock: BELTOD_clean_linker_0, # of connection points: 3
#     Node 5, Type 0, BuildingBlock: BELTOD_clean_linker_0, # of connection points: 3
#     Node 6, Type 0, BuildingBlock: BELTOD_clean_linker_0, # of connection points: 3
#     Node 7, Type 0, BuildingBlock: BELTOD_clean_linker_0, # of connection points: 3
#     Node 8, Type 1, BuildingBlock: FUNLAD_clean_sbu_0, # of connection points: 6
#     Node 9, Type 1, BuildingBlock: FUNLAD_clean_sbu_0, # of connection points: 6
#     Node 10, Type 1, BuildingBlock: FUNLAD_clean_sbu_0, # of connection points: 6
#     Node 11, Type 1, BuildingBlock: FUNLAD_clean_sbu_0, # of connection points: 6
#     Edge 12, Type (0, 1), BuildingBlock: AJUNOK_clean_linker_0, # of connection points: 2
#     Edge 13, Type (0, 1), BuildingBlock: AJUNOK_clean_linker_0, # of connection points: 2
#     Edge 14, Type (0, 1), BuildingBlock: AJUNOK_clean_linker_0, # of connection points: 2
#     Edge 15, Type (0, 1), BuildingBlock: AJUNOK_clean_linker_0, # of connection points: 2
#     Edge 16, Type (0, 1), BuildingBlock: AJUNOK_clean_linker_0, # of connection points: 2
#     Edge 17, Type (0, 1), BuildingBlock: AJUNOK_clean_linker_0, # of connection points: 2
#     Edge 18, Type (0, 1), BuildingBlock: AJUNOK_clean_linker_0, # of connection points: 2
#     Edge 19, Type (0, 1), BuildingBlock: AJUNOK_clean_linker_0, # of connection points: 2
#     Edge 20, Type (0, 1), BuildingBlock: AJUNOK_clean_linker_0, # of connection points: 2
#     Edge 21, Type (0, 1), BuildingBlock: AJUNOK_clean_linker_0, # of connection points: 2
#     Edge 22, Type (0, 1), BuildingBlock: AJUNOK_clean_linker_0, # of connection points: 2
#     Edge 23, Type (0, 1), BuildingBlock: AJUNOK_clean_linker_0, # of connection points: 2
#     Edge 24, Type (0, 1), BuildingBlock: AJUNOK_clean_linker_0, # of connection points: 2
#     Edge 25, Type (0, 1), BuildingBlock: AJUNOK_clean_linker_0, # of connection points: 2
#     Edge 26, Type (0, 1), BuildingBlock: AJUNOK_clean_linker_0, # of connection points: 2
#     Edge 27, Type (0, 1), BuildingBlock: AJUNOK_clean_linker_0, # of connection points: 2
#     Edge 28, Type (0, 1), BuildingBlock: AJUNOK_clean_linker_0, # of connection points: 2
#     Edge 29, Type (0, 1), BuildingBlock: AJUNOK_clean_linker_0, # of connection points: 2
#     Edge 30, Type (0, 1), BuildingBlock: AJUNOK_clean_linker_0, # of connection points: 2
#     Edge 31, Type (0, 1), BuildingBlock: AJUNOK_clean_linker_0, # of connection points: 2
#     Edge 32, Type (0, 1), BuildingBlock: AJUNOK_clean_linker_0, # of connection points: 2
#     Edge 33, Type (0, 1), BuildingBlock: AJUNOK_clean_linker_0, # of connection points: 2
#     Edge 34, Type (0, 1), BuildingBlock: AJUNOK_clean_linker_0, # of connection points: 2
#     Edge 35, Type (0, 1), BuildingBlock: AJUNOK_clean_linker_0, # of connection points: 2
# Relax obj value: 0.103
# Max RMSD: 0.079
# Mean RMSD: 0.041
data_MOF--net-pry--node1-FUNLAD_clean_sbu_0--node2-BELTOD_clean_linker_0--edge1-AJUNOK_clean_linker_0
_symmetry_space_group_name_H-M    P1
_symmetry_Int_Tables_number       1
_symmetry_cell_setting            triclinic
loop_
_symmetry_equiv_pos_as_xyz
'x, y, z'
_cell_length_a     31.356133
_cell_length_b     33.997102
_cell_length_c     33.549123
_cell_angle_alpha  90.008497
_cell_angle_beta   90.324056
_cell_angle_gamma 81.2371
loop_
_atom_site_label
_atom_site_type_symbol
_atom_site_fract_x
_atom_site_fract_y
_atom_site_fract_z
_atom_type_partial_charge
P0 P 0.17418 0.19172 0.23017 0.0
H1 H 0.26808 0.18957 0.2289 0.0
H2 H 0.32604 0.15026 0.19135 0.0
H3 H 0.23337 0.08777 0.13305 0.0
H4 H 0.17493 0.12688 0.17161 0.0
H5 H 0.10911 0.26195 0.24431 0.0
H6 H 0.07951 0.31852 0.20265 0.0
H7 H 0.14999 0.26334 0.10193 0.0
H8 H 0.17709 0.20598 0.14287 0.0
H9 H 0.19885 0.11506 0.26974 0.0
H10 H 0.08388 0.20198 0.26015 0.0
O11 O 0.19771 0.21801 0.2635 0.0
H12 H 0.16497 0.08017 0.32146 0.0
H13 H 0.04985 0.16716 0.31222 0.0
C14 C 0.21706 0.16098 0.20337 0.0
C15 C 0.26001 0.16715 0.20849 0.0
C16 C 0.29324 0.14463 0.18702 0.0
C17 C 0.2842 0.11581 0.15955 0.0
C18 C 0.24116 0.10976 0.15414 0.0
C19 C 0.20787 0.13194 0.1762 0.0
C20 C 0.14448 0.22869 0.1969 0.0
C21 C 0.11662 0.26103 0.21285 0.0
C22 C 0.10031 0.29389 0.18901 0.0
C23 C 0.11211 0.29577 0.14864 0.0
C24 C 0.13909 0.26281 0.13245 0.0
C25 C 0.1549 0.22971 0.1562 0.0
C26 C 0.14383 0.16092 0.26005 0.0
C27 C 0.16574 0.12601 0.27767 0.0
C28 C 0.1463 0.10598 0.3075 0.0
C29 C 0.10448 0.1206 0.32097 0.0
C30 C 0.08211 0.15505 0.30262 0.0
C31 C 0.10154 0.17494 0.27253 0.0
P32 P 0.38977 0.8885 0.68249 0.0
H33 H 0.45512 0.8558 0.74191 0.0
H34 H 0.47211 0.87893 0.80874 0.0
H35 H 0.35539 0.96444 0.80607 0.0
H36 H 0.33884 0.94168 0.73961 0.0
H37 H 0.43287 0.85693 0.61019 0.0
H38 H 0.44779 0.79094 0.5807 0.0
H39 H 0.38864 0.74217 0.68151 0.0
H40 H 0.37497 0.80895 0.71186 0.0
H41 H 0.35555 0.96506 0.6457 0.0
H42 H 0.30629 0.85863 0.68079 0.0
O43 O 0.42467 0.91477 0.66173 0.0
H44 H 0.2845 0.99329 0.61993 0.0
H45 H 0.23456 0.88718 0.65561 0.0
C46 C 0.39526 0.89632 0.73574 0.0
C47 C 0.43249 0.87864 0.75621 0.0
C48 C 0.44234 0.89211 0.79435 0.0
C49 C 0.41551 0.92408 0.8125 0.0
C50 C 0.37721 0.94034 0.79269 0.0
C51 C 0.36738 0.92682 0.75474 0.0
C52 C 0.4034 0.83801 0.66367 0.0
C53 C 0.42351 0.83211 0.6264 0.0
C54 C 0.43147 0.79425 0.60914 0.0
C55 C 0.4187 0.76115 0.62823 0.0
C56 C 0.39891 0.76696 0.66592 0.0
C57 C 0.39111 0.8051 0.68337 0.0
C58 C 0.33651 0.9094 0.66464 0.0
C59 C 0.32943 0.94773 0.64799 0.0
C60 C 0.28858 0.9641 0.63362 0.0
C61 C 0.25372 0.94264 0.63597 0.0
C62 C 0.2608 0.90438 0.65316 0.0
C63 C 0.30177 0.88803 0.66759 0.0
P64 P 0.71806 0.37518 0.93056 0.0
H65 H 0.76966 0.36428 1.00254 0.0
H66 H 0.81775 0.40675 0.03172 0.0
H67 H 0.75669 0.50541 0.96041 0.0
H68 H 0.7097 0.46257 0.93032 0.0
H69 H 0.70374 0.29601 0.91119 0.0
H70 H 0.64525 0.25941 0.92729 0.0
H71 H 0.59457 0.35077 1.01124 0.0
H72 H 0.65415 0.38761 0.99509 0.0
H73 H 0.73433 0.37782 0.84488 0.0
H74 H 0.63248 0.42274 0.92639 0.0
O75 O 0.76167 0.34632 0.91282 0.0
H76 H 0.68667 0.39896 0.78861 0.0
H77 H 0.58392 0.44202 0.87017 0.0
C78 C 0.73678 0.41009 0.96384 0.0
C79 C 0.76534 0.3955 0.99448 0.0
C80 C 0.79272 0.41983 1.01123 0.0
C81 C 0.79158 0.45896 0.99741 0.0
C82 C 0.75867 0.47504 0.97088 0.0
C83 C 0.73169 0.45055 0.95378 0.0
C84 C 0.68368 0.34401 0.95256 0.0
C85 C 0.68086 0.30772 0.93391 0.0
C86 C 0.64688 0.28732 0.94242 0.0
C87 C 0.61476 0.30314 0.96941 0.0
C88 C 0.6187 0.33848 0.98981 0.0
C89 C 0.65293 0.35908 0.98111 0.0
C90 C 0.68669 0.39825 0.88972 0.0
C91 C 0.70181 0.3924 0.85069 0.0
C92 C 0.67433 0.40389 0.81857 0.0
C93 C 0.63115 0.42074 0.82512 0.0
C94 C 0.61688 0.42861 0.86431 0.0
C95 C 0.64458 0.41761 0.8964 0.0
P96 P 0.8065 0.67445 0.43453 0.0
H97 H 0.82419 0.7544 0.4263 0.0
H98 H 0.88766 0.78468 0.44204 0.0
H99 H 0.94499 0.67751 0.50292 0.0
H100 H 0.88058 0.64683 0.48682 0.0
H101 H 0.79021 0.69953 0.35196 0.0
H102 H 0.83061 0.68176 0.29081 0.0
H103 H 0.91736 0.593 0.35552 0.0
H104 H 0.87699 0.61109 0.4168 0.0
H105 H 0.77723 0.67586 0.51619 0.0
H106 H 0.79509 0.59176 0.41913 0.0
O107 O 0.76288 0.70795 0.42519 0.0
H108 H 0.72835 0.63598 0.54821 0.0
H109 H 0.74756 0.55155 0.45172 0.0
C110 C 0.84732 0.69889 0.45637 0.0
C111 C 0.84978 0.73769 0.44395 0.0
C112 C 0.88638 0.75463 0.45224 0.0
C113 C 0.92132 0.73292 0.47284 0.0
C114 C 0.91844 0.69447 0.48664 0.0
C115 C 0.88159 0.67731 0.47801 0.0
C116 C 0.8301 0.6559 0.38857 0.0
C117 C 0.81724 0.67558 0.35282 0.0
C118 C 0.84041 0.66559 0.318 0.0
C119 C 0.87688 0.63601 0.31868 0.0
C120 C 0.88939 0.61602 0.35444 0.0
C121 C 0.86613 0.62597 0.38921 0.0
C122 C 0.78971 0.63678 0.46536 0.0
C123 C 0.77282 0.64764 0.50302 0.0
C124 C 0.74516 0.62481 0.52141 0.0
C125 C 0.73475 0.5908 0.50236 0.0
C126 C 0.75598 0.57732 0.46717 0.0
C127 C 0.78303 0.60048 0.44847 0.0
P128 P 0.89737 0.88176 0.88277 0.0
H129 H 0.85848 0.95626 0.91985 0.0
H130 H 0.78657 0.98041 0.94533 0.0
H131 H 0.74179 0.87434 0.90171 0.0
H132 H 0.81459 0.84988 0.87654 0.0
H133 H 0.96274 0.81818 0.85003 0.0
H134 H 0.99179 0.75133 0.87483 0.0
H135 H 0.89462 0.76335 0.96643 0.0
H136 H 0.86703 0.8301 0.94271 0.0
H137 H 0.97415 0.90637 0.84754 0.0
H138 H 0.84682 0.89152 0.8072 0.0
O139 O 0.92879 0.90371 0.91327 0.0
H140 H 0.98829 0.93562 0.78332 0.0
H141 H 0.86121 0.92058 0.74222 0.0
C142 C 0.84226 0.9009 0.89686 0.0
C143 C 0.83325 0.93819 0.91544 0.0
C144 C 0.79189 0.95217 0.9298 0.0
C145 C 0.75828 0.9294 0.9255 0.0
C146 C 0.76704 0.89248 0.90576 0.0
C147 C 0.80856 0.87854 0.89121 0.0
C148 C 0.91175 0.82901 0.89363 0.0
C149 C 0.947 0.80602 0.87481 0.0
C150 C 0.96376 0.76783 0.88917 0.0
C151 C 0.94604 0.75214 0.92309 0.0
C152 C 0.90973 0.77472 0.94081 0.0
C153 C 0.89327 0.81279 0.92665 0.0
C154 C 0.90915 0.8972 0.8326 0.0
C155 C 0.94925 0.9091 0.82478 0.0
C156 C 0.95728 0.92609 0.78806 0.0
C157 C 0.92555 0.93125 0.75794 0.0
C158 C 0.88616 0.91733 0.76496 0.0
C159 C 0.87795 0.90063 0.80205 0.0
P160 P 0.65518 0.19298 0.34193 0.0
H161 H 0.6804 0.24022 0.4079 0.0
H162 H 0.64405 0.29748 0.44455 0.0
H163 H 0.52647 0.29035 0.37943 0.0
H164 H 0.5631 0.23222 0.34289 0.0
H165 H 0.74121 0.1521 0.32214 0.0
H166 H 0.79969 0.11505 0.36187 0.0
H167 H 0.71747 0.12655 0.46526 0.0
H168 H 0.65881 0.16355 0.42522 0.0
H169 H 0.59473 0.21372 0.27572 0.0
H170 H 0.65378 0.10615 0.33437 0.0
O171 O 0.68206 0.21866 0.311 0.0
H172 H 0.56744 0.17416 0.22322 0.0
H173 H 0.62817 0.06649 0.28111 0.0
C174 C 0.62436 0.23078 0.37331 0.0
C175 C 0.64639 0.24997 0.40225 0.0
C176 C 0.62554 0.28297 0.42325 0.0
C177 C 0.58208 0.29831 0.41546 0.0
C178 C 0.5599 0.27917 0.38637 0.0
C179 C 0.5808 0.24571 0.36556 0.0
C180 C 0.69603 0.16164 0.37095 0.0
C181 C 0.73561 0.1465 0.35331 0.0
C182 C 0.76898 0.12513 0.37599 0.0
C183 C 0.76346 0.11849 0.41686 0.0
C184 C 0.72297 0.13193 0.43402 0.0
C185 C 0.68942 0.15302 0.41116 0.0
C186 C 0.62583 0.16321 0.3096 0.0
C187 C 0.60085 0.18158 0.27801 0.0
C188 C 0.58577 0.15882 0.24757 0.0
C189 C 0.59563 0.11695 0.24762 0.0
C190 C 0.6192 0.09852 0.28022 0.0
C191 C 0.63405 0.12136 0.31083 0.0
P192 P 0.45327 0.55974 0.04754 0.0
H193 H 0.39027 0.57278 0.98142 0.0
H194 H 0.31266 0.56919 0.97828 0.0
H195 H 0.31818 0.52292 0.09835 0.0
H196 H 0.39482 0.5271 0.10165 0.0
H197 H 0.53444 0.58651 0.03008 0.0
H198 H 0.55222 0.65397 0.0243 0.0
H199 H 0.41664 0.7007 1.01556 0.0
H200 H 0.39897 0.634 0.02241 0.0
H201 H 0.50497 0.51164 0.10904 0.0
H202 H 0.41951 0.62362 0.10097 0.0
O203 O 0.48639 0.52049 0.03019 0.0
H204 H 0.50918 0.5199 0.1817 0.0
H205 H 0.42456 0.63233 0.17275 0.0
C206 C 0.39791 0.55202 0.04236 0.0
C207 C 0.37466 0.56204 1.00707 0.0
C208 C 0.33045 0.55993 1.0053 0.0
C209 C 0.30922 0.54715 0.03865 0.0
C210 C 0.33336 0.53446 0.07285 0.0
C211 C 0.37732 0.53668 0.0746 0.0
C212 C 0.46543 0.60491 0.02563 0.0
C213 C 0.50865 0.61106 0.02492 0.0
C214 C 0.51879 0.64956 0.02205 0.0
C215 C 0.48576 0.68231 0.01939 0.0
C216 C 0.4427 0.67582 0.0168 0.0
C217 C 0.43258 0.63745 0.02028 0.0
C218 C 0.46224 0.56716 0.0997 0.0
C219 C 0.48792 0.53828 0.12272 0.0
C220 C 0.49038 0.54307 0.16405 0.0
C221 C 0.46685 0.57659 0.18255 0.0
C222 C 0.44256 0.60606 0.15914 0.0
C223 C 0.44003 0.60122 0.1181 0.0
P224 P 0.12579 0.40546 0.56015 0.0
H225 H 0.11746 0.35427 0.49244 0.0
H226 H 0.06135 0.31433 0.47994 0.0
H227 H 0.97398 0.39274 0.55411 0.0
H228 H 0.03049 0.43243 0.56687 0.0
H229 H 0.13829 0.48593 0.58741 0.0
H230 H 0.19902 0.52056 0.57509 0.0
H231 H 0.23761 0.44207 0.47637 0.0
H232 H 0.176 0.40758 0.48825 0.0
H233 H 0.16154 0.36357 0.63186 0.0
H234 H 0.06842 0.46728 0.60444 0.0
O235 O 0.16173 0.36387 0.55765 0.0
H236 H 0.14975 0.37556 0.70246 0.0
H237 H 0.05282 0.47666 0.67502 0.0
C238 C 0.07931 0.39471 0.53287 0.0
C239 C 0.0857 0.36414 0.50458 0.0
C240 C 0.05314 0.3414 0.49706 0.0
C241 C 0.01363 0.34956 0.51736 0.0
C242 C 0.0046 0.38514 0.53904 0.0
C243 C 0.03738 0.4077 0.54674 0.0
C244 C 0.15321 0.44326 0.53943 0.0
C245 C 0.15839 0.47695 0.56204 0.0
C246 C 0.1934 0.49677 0.55515 0.0
C247 C 0.22366 0.48288 0.52582 0.0
C248 C 0.21488 0.453 0.4995 0.0
C249 C 0.17958 0.43337 0.50621 0.0
C250 C 0.11468 0.41363 0.61245 0.0
C251 C 0.13748 0.3882 0.64079 0.0
C252 C 0.13028 0.39474 0.68138 0.0
C253 C 0.09931 0.42629 0.69443 0.0
C254 C 0.07661 0.45181 0.66596 0.0
C255 C 0.08478 0.44592 0.62543 0.0
C256 C 0.03661 0.05118 0.46371 0.0
N257 N 0.99927 0.11437 0.56782 0.0
C258 C 0.03289 0.13284 0.5569 0.0
C259 C 0.02704 0.17399 0.5529 0.0
C260 C 0.98641 0.19599 0.56051 0.0
C261 C 0.95359 0.17687 0.57584 0.0
C262 C 0.96085 0.13544 0.5794 0.0
Zn263 Zn 1.00173 0.05722 0.54981 0.0
C264 C 0.91979 0.05063 0.50356 0.0
N265 N 0.0037 0.94202 0.50332 0.0
C266 C 0.04009 0.91889 0.48981 0.0
C267 C 0.96734 0.92643 0.51148 0.0
C268 C 0.96713 0.88588 0.50809 0.0
C269 C 0.00461 0.86105 0.49605 0.0
C270 C 0.04112 0.87779 0.48552 0.0
Zn271 Zn 0.00287 0.99874 0.52152 0.0
O272 O 0.02729 0.07387 0.49357 0.0
C273 C 0.08473 1.00557 0.56743 0.0
O274 O 0.0306 1.01506 0.46642 0.0
H275 H 0.93892 0.94525 0.52241 0.0
H276 H 0.06293 0.11549 0.54749 0.0
H277 H 0.06871 0.93204 0.48381 0.0
O278 O 0.06564 0.04085 0.57347 0.0
O279 O 0.06568 0.98219 0.54663 0.0
H280 H 0.93457 0.12 0.58784 0.0
O281 O 0.97548 0.9825 0.57741 0.0
O282 O 0.97647 0.04037 0.60543 0.0
O283 O 0.93959 1.01604 0.49579 0.0
O284 O 0.93815 0.07302 0.52607 0.0
C285 C 0.96867 1.0048 0.60789 0.0
H286 H 0.05307 0.18827 0.54142 0.0
H287 H 0.92202 0.19336 0.58221 0.0
H288 H 0.938 0.87389 0.51529 0.0
H289 H 0.07018 0.85926 0.4753 0.0
C290 C 0.59088 0.98504 0.99998 0.0
N291 N 0.51361 0.09686 1.00137 0.0
C292 C 0.55265 0.10795 1.00928 0.0
C293 C 0.55858 0.1472 1.00506 0.0
C294 C 0.52412 0.17564 0.99256 0.0
C295 C 0.48447 0.1636 0.98287 0.0
C296 C 0.47977 0.12355 0.98783 0.0
Zn297 Zn 0.50875 0.04079 0.0193 0.0
C298 C 0.47271 0.99088 0.9619 0.0
N299 N 0.5072 0.9253 0.06534 0.0
C300 C 0.54352 0.89858 0.072 0.0
C301 C 0.46832 0.91314 0.05913 0.0
C302 C 0.4656 0.87286 0.05556 0.0
C303 C 0.50331 0.84491 0.0577 0.0
C304 C 0.54229 0.8578 0.06824 0.0
Zn305 Zn 0.51124 0.98201 0.04796 0.0
O306 O 0.57088 0.01996 0.9942 0.0
C307 C 0.5465 0.03279 0.10533 0.0
O308 O 0.57359 0.96179 0.02229 0.0
H309 H 0.43995 0.93466 0.05315 0.0
H310 H 0.57901 0.08661 0.02056 0.0
H311 H 0.57413 0.90884 0.07678 0.0
O312 O 0.53717 0.05487 0.07499 0.0
O313 O 0.54029 0.99664 0.10355 0.0
H314 H 0.44889 0.11407 0.98216 0.0
O315 O 0.44965 1.00357 0.07408 0.0
O316 O 0.44679 0.06112 0.04384 0.0
O317 O 0.48174 0.96798 0.99181 0.0
O318 O 0.48009 0.02658 0.96446 0.0
C319 C 0.43012 0.03859 0.06743 0.0
H320 H 0.58989 0.15539 1.01195 0.0
H321 H 0.45742 0.18496 0.97268 0.0
H322 H 0.43473 0.86383 0.04855 0.0
H323 H 0.57195 0.83692 0.07058 0.0
C324 C 0.51119 0.45003 0.49166 0.0
N325 N 0.50314 0.49475 0.60878 0.0
C326 C 0.49171 0.46026 0.62268 0.0
C327 C 0.50481 0.44652 0.66076 0.0
C328 C 0.5301 0.46846 0.68418 0.0
C329 C 0.5398 0.50463 0.66953 0.0
C330 C 0.52589 0.51729 0.63171 0.0
Zn331 Zn 0.49088 0.51407 0.55224 0.0
C332 C 0.56787 0.54174 0.51767 0.0
N333 N 0.4677 0.55881 0.43523 0.0
C334 C 0.44581 0.53657 0.4111 0.0
C335 C 0.48564 0.58989 0.42073 0.0
C336 C 0.48332 0.59855 0.38 0.0
C337 C 0.46176 0.57534 0.35452 0.0
C338 C 0.44229 0.54448 0.3705 0.0
Zn339 Zn 0.47826 0.53965 0.49215 0.0
O340 O 0.51044 0.45503 0.52926 0.0
C341 C 0.40062 0.51324 0.52654 0.0
O342 O 0.49933 0.48014 0.46947 0.0
H343 H 0.50306 0.60702 0.44049 0.0
H344 H 0.47342 0.44298 0.60388 0.0
H345 H 0.43251 0.51155 0.42305 0.0
O346 O 0.42605 0.50379 0.55583 0.0
O347 O 0.41469 0.52837 0.49568 0.0
H348 H 0.53467 0.5446 0.62014 0.0
O349 O 0.45786 0.59862 0.51527 0.0
O350 O 0.47149 0.57346 0.57479 0.0
O351 O 0.54154 0.55159 0.48932 0.0
O352 O 0.55567 0.52448 0.54807 0.0
C353 C 0.45898 0.60358 0.55288 0.0
H354 H 0.49608 0.41876 0.67139 0.0
H355 H 0.55959 0.52222 0.68645 0.0
H356 H 0.49882 0.6225 0.36841 0.0
H357 H 0.42615 0.5255 0.35149 0.0
C358 C 0.01741 0.59755 0.99371 0.0
N359 N 0.01952 0.55613 0.11167 0.0
C360 C 0.02431 0.59352 0.12351 0.0
C361 C 0.00455 0.60933 0.1585 0.0
C362 C 0.97982 0.58623 0.18071 0.0
C363 C 0.97784 0.54706 0.16916 0.0
C364 C 0.99785 0.53258 0.13429 0.0
Zn365 Zn 0.03569 0.53485 0.05657 0.0
C366 C 0.95808 0.50869 0.01785 0.0
N367 N 0.06227 0.48655 0.94156 0.0
C368 C 0.0902 0.50369 0.91889 0.0
C369 C 0.04192 0.457 0.9269 0.0
C370 C 0.04815 0.44465 0.88744 0.0
C371 C 0.07671 0.46197 0.8633 0.0
C372 C 0.09841 0.49138 0.87977 0.0
Zn373 Zn 0.04837 0.50856 0.99701 0.0
O374 O 0.01567 0.59221 0.03114 0.0
C375 C 0.12614 0.53514 0.03459 0.0
O376 O 0.03119 0.56777 0.97177 0.0
H377 H 0.01984 0.44374 0.94542 0.0
H378 H 0.04151 0.61171 0.10487 0.0
H379 H 0.10555 0.52758 0.93081 0.0
O380 O 0.10002 0.54727 0.06245 0.0
O381 O 0.11254 0.51762 1.00479 0.0
H382 H 0.99379 0.50321 0.1242 0.0
O383 O 0.06452 0.4493 0.02284 0.0
O384 O 0.05607 0.4774 0.08147 0.0
O385 O 0.98458 0.50009 0.98973 0.0
O386 O 0.97103 0.52242 0.05013 0.0
C387 C 0.06558 0.44611 0.06071 0.0
H388 H 0.0066 0.63974 0.16694 0.0
H389 H 0.95927 0.52846 0.18602 0.0
H390 H 0.0297 0.42275 0.87576 0.0
H391 H 0.12095 0.50534 0.86235 0.0
C392 C 0.06818 0.12578 0.38805 0.0
C393 C 0.08574 0.10189 0.35607 0.0
C394 C 0.05261 0.10906 0.4224 0.0
C395 C 0.0534 0.0676 0.42639 0.0
H396 H 0.0673 0.15774 0.38696 0.0
H397 H 0.03985 0.12902 0.44611 0.0
S398 S 0.09421 0.99189 0.35033 0.0
N399 N 0.10172 0.03457 0.33009 0.0
N400 N 0.07239 1.00316 0.39436 0.0
C401 C 0.07022 0.04338 0.3943 0.0
C402 C 0.08642 0.06046 0.35936 0.0
C403 C 0.44198 0.91757 0.88391 0.0
C404 C 0.42858 0.94185 0.85079 0.0
C405 C 0.45513 0.93378 0.9198 0.0
C406 C 0.45609 0.975 0.92407 0.0
H407 H 0.44213 0.88573 0.88216 0.0
H408 H 0.46527 0.91359 0.94421 0.0
S409 S 0.42525 0.05143 0.8457 0.0
N410 N 0.41776 1.00923 0.82439 0.0
N411 N 0.44241 0.0396 0.89139 0.0
C412 C 0.44272 0.99959 0.89108 0.0
C413 C 0.42902 0.98309 0.85467 0.0
C414 C 0.57534 0.46779 0.7888 0.0
C415 C 0.60119 0.43028 0.79109 0.0
C416 C 0.55003 0.47894 0.75505 0.0
C417 C 0.54977 0.45304 0.72235 0.0
H418 H 0.57606 0.48933 0.8125 0.0
H419 H 0.5318 0.50868 0.75388 0.0
S420 S 0.60787 0.34971 0.71573 0.0
N421 N 0.62134 0.36555 0.75989 0.0
N422 N 0.57518 0.38718 0.69558 0.0
C423 C 0.57357 0.41462 0.72522 0.0
C424 C 0.59907 0.40314 0.75975 0.0
C425 C 0.94718 0.62628 0.28279 0.0
C426 C 0.9023 0.6262 0.28227 0.0
C427 C 0.97222 0.61509 0.24904 0.0
C428 C 0.95302 0.60315 0.21412 0.0
H429 H 0.96303 0.63463 0.30959 0.0
H430 H 0.00684 0.61442 0.25067 0.0
S431 S 0.83686 0.5992 0.19707 0.0
N432 N 0.83968 0.61435 0.24365 0.0
N433 N 0.88677 0.59344 0.18014 0.0
C434 C 0.90812 0.60402 0.21288 0.0
C435 C 0.88269 0.61555 0.24703 0.0
C436 C 0.31994 0.09557 0.09424 0.0
C437 C 0.31984 0.09292 0.13613 0.0
C438 C 0.35541 0.07732 0.0719 0.0
C439 C 0.39133 0.05476 0.09062 0.0
H440 H 0.2931 0.11306 0.07878 0.0
H441 H 0.35489 0.08111 0.03983 0.0
S442 S 0.40671 0.03835 0.19935 0.0
N443 N 0.3588 0.06608 0.19531 0.0
N444 N 0.42461 0.0308 0.15335 0.0
C445 C 0.39107 0.05104 0.13234 0.0
C446 C 0.35555 0.07037 0.15509 0.0
C447 C 0.18855 0.93643 0.59392 0.0
C448 C 0.2105 0.95955 0.61935 0.0
C449 C 0.14833 0.95176 0.57711 0.0
C450 C 0.12808 0.99091 0.58509 0.0
H451 H 0.20284 0.9063 0.58646 0.0
H452 H 0.13304 0.93255 0.55767 0.0
S453 S 0.17128 0.06323 0.65137 0.0
N454 N 0.20842 0.02321 0.65284 0.0
N455 N 0.13309 0.05219 0.62115 0.0
C456 C 0.14962 1.01433 0.61073 0.0
C457 C 0.19069 0.99865 0.62783 0.0
C458 C 0.84796 0.48182 0.04139 0.0
C459 C 0.83003 0.47874 1.0032 0.0
C460 C 0.88869 0.49358 0.04624 0.0
C461 C 0.91306 0.50174 1.01296 0.0
H462 H 0.83104 0.47377 0.0675 0.0
H463 H 0.90203 0.49437 0.07604 0.0
S464 S 0.87942 0.50024 0.90682 0.0
N465 N 0.83892 0.48654 0.93176 0.0
N466 N 0.91508 0.5087 0.94087 0.0
C467 C 0.89462 0.50043 0.97481 0.0
C468 C 0.85318 0.4889 0.96992 0.0
C469 C 0.656 0.60173 0.49506 0.0
C470 C 0.69301 0.5782 0.51058 0.0
C471 C 0.61572 0.58943 0.49759 0.0
C472 C 0.61099 0.55343 0.5163 0.0
H473 H 0.65847 0.62942 0.47984 0.0
H474 H 0.58805 0.60833 0.48483 0.0
S475 S 0.6982 0.48143 0.56212 0.0
N476 N 0.72309 0.51745 0.54504 0.0
N477 N 0.64649 0.49456 0.55123 0.0
C478 C 0.64765 0.52997 0.53284 0.0
C479 C 0.68901 0.54226 0.52951 0.0
C480 C 0.10137 0.37053 0.14287 0.0
C481 C 0.09945 0.33335 0.12492 0.0
C482 C 0.09062 0.40635 0.12174 0.0
C483 C 0.0778 0.40696 0.08137 0.0
H484 H 0.11189 0.3721 0.17355 0.0
H485 H 0.09278 0.43391 0.1373 0.0
S486 S 0.06544 0.31825 0.0204 0.0
N487 N 0.08189 0.29968 0.06433 0.0
N488 N 0.06282 0.36699 0.02441 0.0
C489 C 0.07577 0.37012 0.06283 0.0
C490 C 0.08633 0.33344 0.08457 0.0
C491 C 0.57328 0.26643 1.01548 0.0
C492 C 0.57878 0.28091 0.97701 0.0
C493 C 0.5501 0.23487 0.02124 0.0
C494 C 0.53186 0.21709 0.9887 0.0
H495 H 0.59047 0.27673 0.04057 0.0
H496 H 0.55003 0.22177 0.05069 0.0
S497 S 0.52891 0.25067 0.88369 0.0
N498 N 0.55753 0.28055 0.90721 0.0
N499 N 0.51452 0.22054 0.91806 0.0
C500 C 0.53245 0.2347 0.95102 0.0
C501 C 0.55596 0.26685 0.94515 0.0
C502 C 0.97855 0.76946 0.44855 0.0
C503 C 0.95924 0.75246 0.48075 0.0
C504 C 1.00021 0.80206 0.45442 0.0
C505 C 0.00292 0.81825 0.49261 0.0
H506 H 0.97247 0.76055 0.41828 0.0
H507 H 0.00987 0.81757 0.42856 0.0
S508 S 0.9676 0.77804 0.58737 0.0
N509 N 0.95168 0.749 0.55257 0.0
N510 N 0.99289 0.81024 0.5637 0.0
C511 C 0.98976 0.79762 0.5255 0.0
C512 C 0.96767 0.76454 0.51953 0.0
C513 C 0.44484 0.68705 0.63062 0.0
C514 C 0.42654 0.72088 0.60879 0.0
C515 C 0.45477 0.64946 0.61239 0.0
C516 C 0.44683 0.64385 0.57145 0.0
H517 H 0.45254 0.68978 0.66191 0.0
H518 H 0.46942 0.62467 0.6306 0.0
S519 S 0.39553 0.72207 0.50165 0.0
N520 N 0.39799 0.74561 0.54446 0.0
N521 N 0.41717 0.67545 0.51022 0.0
C522 C 0.42757 0.67728 0.54949 0.0
C523 C 0.41733 0.71554 0.56809 0.0
C524 C 0.92954 0.93314 0.68274 0.0
C525 C 0.93368 0.9517 0.71976 0.0
C526 C 0.94005 0.95085 0.64681 0.0
C527 C 0.95449 0.98825 0.64624 0.0
H528 H 0.9193 0.90413 0.68161 0.0
H529 H 0.9373 0.93477 0.61927 0.0
S530 S 0.96768 0.05054 0.73518 0.0
N531 N 0.95115 1.01043 0.75353 0.0
N532 N 0.97034 0.04387 0.68645 0.0
C533 C 0.95731 1.00768 0.68308 0.0
C534 C 0.94712 0.98939 0.71963 0.0
C535 C 0.591 0.10688 0.17339 0.0
C536 C 0.58422 0.09333 0.2122 0.0
C537 C 0.58001 0.08633 0.13942 0.0
C538 C 0.56196 0.05092 0.14238 0.0
H539 H 0.60503 0.13377 0.16908 0.0
H540 H 0.58544 0.09866 0.11043 0.0
S541 S 0.53652 1.0028 0.2368 0.0
N542 N 0.55746 0.04219 0.25144 0.0
N543 N 0.53743 1.00331 0.18757 0.0
C544 C 0.5556 0.03651 0.18092 0.0
C545 C 0.56657 0.05768 0.21572 0.0
C546 C 0.50319 0.57616 0.24906 0.0
C547 C 0.465 0.57953 0.22638 0.0
C548 C 0.5018 0.57702 0.29079 0.0
C549 C 0.46221 0.58074 0.31097 0.0
H550 H 0.53426 0.57241 0.23443 0.0
H551 H 0.5319 0.57316 0.30737 0.0
S552 S 0.35325 0.59145 0.26524 0.0
N553 N 0.38657 0.58751 0.22701 0.0
N554 N 0.38409 0.58919 0.30548 0.0
C555 C 0.42385 0.58504 0.28862 0.0
C556 C 0.42521 0.58442 0.24627 0.0
C557 C 0.08878 0.47344 0.7518 0.0
C558 C 0.09246 0.43417 0.7376 0.0
C559 C 0.08336 0.48196 0.79232 0.0
C560 C 0.08215 0.45151 0.82051 0.0
H561 H 0.09063 0.49791 0.73153 0.0
H562 H 0.07992 0.51281 0.80154 0.0
S563 S 0.09001 0.34357 0.79883 0.0
N564 N 0.09274 0.36454 0.75473 0.0
N565 N 0.08566 0.38031 0.83144 0.0
C566 C 0.08589 0.41202 0.80681 0.0
C567 C 0.09048 0.4034 0.7653 0.0
C568 C 0.69436 0.91855 0.96718 0.0
C569 C 0.71477 0.94372 0.9428 0.0
C570 C 0.65459 0.93212 0.9856 0.0
C571 C 0.6333 0.97143 0.98027 0.0
H572 H 0.7097 0.88828 0.97277 0.0
H573 H 0.64054 0.91155 1.00429 0.0
S574 S 0.67193 0.04854 0.91706 0.0
N575 N 0.70969 1.00928 0.91277 0.0
N576 N 0.63548 0.03493 0.94729 0.0
C577 C 0.65312 0.9967 0.95533 0.0
C578 C 0.69362 0.98285 0.93668 0.0
C579 C 0.82575 0.06359 0.4295 0.0
C580 C 0.80075 0.09954 0.44159 0.0
C581 C 0.86312 0.04705 0.45064 0.0
C582 C 0.87744 0.06613 0.4844 0.0
H583 H 0.81662 0.04836 0.40316 0.0
H584 H 0.88166 0.01978 0.4396 0.0
S585 S 0.82297 0.16076 0.52866 0.0
N586 N 0.79255 0.15334 0.48989 0.0
N587 N 0.86245 0.12263 0.52949 0.0
C588 C 0.8521 0.10172 0.49724 0.0
C589 C 0.8139 0.11829 0.47593 0.0
C590 C 0.2439 0.52782 1.00578 0.0
C591 C 0.26213 0.54624 0.03769 0.0
C592 C 0.19992 0.52483 1.00508 0.0
C593 C 0.17227 0.54025 0.03624 0.0
H594 H 0.26398 0.51481 0.98154 0.0
H595 H 0.18771 0.50983 0.97994 0.0
S596 S 0.20387 0.5941 0.12529 0.0
N597 N 0.24914 0.58222 0.10018 0.0
N598 N 0.16632 0.57635 0.09912 0.0
C599 C 0.18998 0.5596 0.06797 0.0
C600 C 0.23492 0.56261 0.06865 0.0
C601 C 0.28635 0.50641 0.49273 0.0
C602 C 0.26738 0.49391 0.52731 0.0
C603 C 0.32931 0.51309 0.493 0.0
C604 C 0.35501 0.50694 0.52776 0.0
H605 H 0.26797 0.51064 0.4652 0.0
H606 H 0.3426 0.5225 0.46548 0.0
S607 S 0.32024 0.47326 0.62597 0.0
N608 N 0.27724 0.47499 0.59707 0.0
N609 N 0.35793 0.48767 0.59773 0.0
C610 C 0.33618 0.49464 0.56264 0.0
C611 C 0.29238 0.48811 0.56238 0.0
C612 C 0.97725 0.67907 0.91746 0.0
C613 C 0.9662 0.71328 0.94118 0.0
C614 C 0.99453 0.64205 0.93444 0.0
C615 C 1.00165 0.63762 0.9759 0.0
H616 H 0.97157 0.68069 0.88558 0.0
H617 H 1.00156 0.61653 0.91492 0.0
S618 S 0.98271 0.71906 0.05065 0.0
N619 N 0.96713 0.7409 1.00795 0.0
N620 N 0.99886 0.67182 0.03978 0.0
C621 C 0.99198 0.67197 0.99973 0.0
C622 C 0.97449 0.70956 0.98245 0.0
C623 C 0.51673 0.73218 0.06056 0.0
C624 C 0.49516 0.72314 0.02559 0.0
C625 C 0.52027 0.77162 0.07043 0.0
C626 C 0.50224 0.8032 0.04568 0.0
H627 H 0.52928 0.70877 0.0813 0.0
H628 H 0.53582 0.77753 0.09825 0.0
S629 S 0.4481 0.7946 0.94804 0.0
N630 N 0.4592 0.74835 0.96447 0.0
N631 N 0.46641 0.8225 0.98253 0.0
C632 C 0.48264 0.7943 1.00959 0.0
C633 C 0.47892 0.75424 0.99968 0.0
C634 C 0.98467 0.30614 0.5666 0.0
C635 C 0.99002 0.31603 0.52623 0.0
C636 C 0.97904 0.26761 0.57772 0.0
C637 C 0.97832 0.23807 0.54881 0.0
H638 H 0.98953 0.32687 0.59012 0.0
H639 H 0.97917 0.26004 0.6091 0.0
S640 S 0.98055 0.2507 0.43926 0.0
N641 N 0.98605 0.29491 0.45725 0.0
N642 N 0.97601 0.22214 0.47837 0.0
C643 C 0.9784 0.2486 0.50837 0.0
C644 C 0.98394 0.28781 0.497 0.0
C645 C 0.54005 0.3679 0.41372 0.0
C646 C 0.56117 0.3355 0.43603 0.0
C647 C 0.52356 0.40437 0.43197 0.0
C648 C 0.52699 0.41009 0.4735 0.0
H649 H 0.53739 0.36549 0.38164 0.0
H650 H 0.50843 0.42847 0.41315 0.0
S651 S 0.57655 0.33348 0.54588 0.0
N652 N 0.58254 0.31087 0.50226 0.0
N653 N 0.5516 0.37893 0.53655 0.0
C654 C 0.54689 0.37743 0.49631 0.0
C655 C 0.56396 0.3404 0.47763 0.0
loop_
_geom_bond_atom_site_label_1
_geom_bond_atom_site_label_2
_geom_bond_distance
_geom_bond_site_symmetry_2
_ccdc_geom_bond_type
P0 O11 1.490 . S
P0 C14 1.812 . S
P0 C20 1.803 . S
P0 C26 1.819 . S
H1 C15 0.941 . S
H2 C16 0.939 . S
H3 C18 0.940 . S
H4 C19 0.940 . S
H5 C21 0.939 . S
H6 C22 0.942 . S
H7 C24 0.940 . S
H8 C25 0.939 . S
H9 C27 0.941 . S
H10 C31 0.939 . S
O11 P0 1.490 . S
H12 C28 0.939 . S
H13 C30 0.940 . S
C14 P0 1.812 . S
C14 C15 1.389 . S
C14 C19 1.391 . S
C15 H1 0.941 . S
C15 C14 1.389 . S
C15 C16 1.397 . S
C16 H2 0.939 . S
C16 C15 1.397 . S
C16 C17 1.378 . S
C17 C16 1.378 . S
C17 C18 1.378 . S
C18 H3 0.940 . S
C18 C17 1.378 . S
C18 C19 1.396 . S
C19 H4 0.940 . S
C19 C14 1.391 . S
C19 C18 1.396 . S
C20 P0 1.803 . S
C20 C21 1.378 . S
C20 C25 1.400 . S
C21 H5 0.939 . S
C21 C20 1.378 . S
C21 C22 1.361 . S
C22 H6 0.942 . S
C22 C21 1.361 . S
C22 C23 1.369 . S
C23 C22 1.369 . S
C23 C24 1.404 . S
C24 H7 0.940 . S
C24 C23 1.404 . S
C24 C25 1.389 . S
C25 H8 0.939 . S
C25 C20 1.400 . S
C25 C24 1.389 . S
C26 P0 1.819 . S
C26 C27 1.391 . S
C26 C31 1.391 . S
C27 H9 0.941 . S
C27 C26 1.391 . S
C27 C28 1.396 . S
C28 H12 0.939 . S
C28 C27 1.396 . S
C28 C29 1.397 . S
C29 C28 1.397 . S
C29 C30 1.385 . S
C30 H13 0.940 . S
C30 C29 1.385 . S
C30 C31 1.388 . S
C31 H10 0.939 . S
C31 C26 1.391 . S
C31 C30 1.388 . S
P32 O43 1.490 . S
P32 C46 1.812 . S
P32 C52 1.803 . S
P32 C58 1.819 . S
H33 C47 0.941 . S
H34 C48 0.939 . S
H35 C50 0.940 . S
H36 C51 0.940 . S
H37 C53 0.939 . S
H38 C54 0.942 . S
H39 C56 0.940 . S
H40 C57 0.939 . S
H41 C59 0.941 . S
H42 C63 0.939 . S
O43 P32 1.490 . S
H44 C60 0.939 . S
H45 C62 0.940 . S
C46 P32 1.812 . S
C46 C47 1.389 . S
C46 C51 1.391 . S
C47 H33 0.941 . S
C47 C46 1.389 . S
C47 C48 1.397 . S
C48 H34 0.939 . S
C48 C47 1.397 . S
C48 C49 1.378 . S
C49 C48 1.378 . S
C49 C50 1.378 . S
C50 H35 0.940 . S
C50 C49 1.378 . S
C50 C51 1.396 . S
C51 H36 0.940 . S
C51 C46 1.391 . S
C51 C50 1.396 . S
C52 P32 1.803 . S
C52 C53 1.378 . S
C52 C57 1.400 . S
C53 H37 0.939 . S
C53 C52 1.378 . S
C53 C54 1.361 . S
C54 H38 0.942 . S
C54 C53 1.361 . S
C54 C55 1.369 . S
C55 C54 1.369 . S
C55 C56 1.404 . S
C56 H39 0.940 . S
C56 C55 1.404 . S
C56 C57 1.389 . S
C57 H40 0.939 . S
C57 C52 1.400 . S
C57 C56 1.389 . S
C58 P32 1.819 . S
C58 C59 1.391 . S
C58 C63 1.391 . S
C59 H41 0.941 . S
C59 C58 1.391 . S
C59 C60 1.396 . S
C60 H44 0.939 . S
C60 C59 1.396 . S
C60 C61 1.397 . S
C61 C60 1.397 . S
C61 C62 1.385 . S
C62 H45 0.940 . S
C62 C61 1.385 . S
C62 C63 1.388 . S
C63 H42 0.939 . S
C63 C58 1.391 . S
C63 C62 1.388 . S
P64 O75 1.490 . S
P64 C78 1.812 . S
P64 C84 1.803 . S
P64 C90 1.819 . S
H65 C79 0.941 . S
H66 C80 0.939 . S
H67 C82 0.940 . S
H68 C83 0.940 . S
H69 C85 0.939 . S
H70 C86 0.942 . S
H71 C88 0.940 . S
H72 C89 0.939 . S
H73 C91 0.941 . S
H74 C95 0.939 . S
O75 P64 1.490 . S
H76 C92 0.939 . S
H77 C94 0.940 . S
C78 P64 1.812 . S
C78 C79 1.389 . S
C78 C83 1.391 . S
C79 H65 0.941 . S
C79 C78 1.389 . S
C79 C80 1.397 . S
C80 H66 0.939 . S
C80 C79 1.397 . S
C80 C81 1.378 . S
C81 C80 1.378 . S
C81 C82 1.378 . S
C82 H67 0.940 . S
C82 C81 1.378 . S
C82 C83 1.396 . S
C83 H68 0.940 . S
C83 C78 1.391 . S
C83 C82 1.396 . S
C84 P64 1.803 . S
C84 C85 1.378 . S
C84 C89 1.400 . S
C85 H69 0.939 . S
C85 C84 1.378 . S
C85 C86 1.361 . S
C86 H70 0.942 . S
C86 C85 1.361 . S
C86 C87 1.369 . S
C87 C86 1.369 . S
C87 C88 1.404 . S
C88 H71 0.940 . S
C88 C87 1.404 . S
C88 C89 1.389 . S
C89 H72 0.939 . S
C89 C84 1.400 . S
C89 C88 1.389 . S
C90 P64 1.819 . S
C90 C91 1.391 . S
C90 C95 1.391 . S
C91 H73 0.941 . S
C91 C90 1.391 . S
C91 C92 1.396 . S
C92 H76 0.939 . S
C92 C91 1.396 . S
C92 C93 1.397 . S
C93 C92 1.397 . S
C93 C94 1.385 . S
C94 H77 0.940 . S
C94 C93 1.385 . S
C94 C95 1.388 . S
C95 H74 0.939 . S
C95 C90 1.391 . S
C95 C94 1.388 . S
P96 O107 1.490 . S
P96 C110 1.812 . S
P96 C116 1.803 . S
P96 C122 1.819 . S
H97 C111 0.941 . S
H98 C112 0.939 . S
H99 C114 0.940 . S
H100 C115 0.940 . S
H101 C117 0.939 . S
H102 C118 0.942 . S
H103 C120 0.940 . S
H104 C121 0.939 . S
H105 C123 0.941 . S
H106 C127 0.939 . S
O107 P96 1.490 . S
H108 C124 0.939 . S
H109 C126 0.940 . S
C110 P96 1.812 . S
C110 C111 1.389 . S
C110 C115 1.391 . S
C111 H97 0.941 . S
C111 C110 1.389 . S
C111 C112 1.397 . S
C112 H98 0.939 . S
C112 C111 1.397 . S
C112 C113 1.378 . S
C113 C112 1.378 . S
C113 C114 1.378 . S
C114 H99 0.940 . S
C114 C113 1.378 . S
C114 C115 1.396 . S
C115 H100 0.940 . S
C115 C110 1.391 . S
C115 C114 1.396 . S
C116 P96 1.803 . S
C116 C117 1.378 . S
C116 C121 1.400 . S
C117 H101 0.939 . S
C117 C116 1.378 . S
C117 C118 1.361 . S
C118 H102 0.942 . S
C118 C117 1.361 . S
C118 C119 1.369 . S
C119 C118 1.369 . S
C119 C120 1.404 . S
C120 H103 0.940 . S
C120 C119 1.404 . S
C120 C121 1.389 . S
C121 H104 0.939 . S
C121 C116 1.400 . S
C121 C120 1.389 . S
C122 P96 1.819 . S
C122 C123 1.391 . S
C122 C127 1.391 . S
C123 H105 0.941 . S
C123 C122 1.391 . S
C123 C124 1.396 . S
C124 H108 0.939 . S
C124 C123 1.396 . S
C124 C125 1.397 . S
C125 C124 1.397 . S
C125 C126 1.385 . S
C126 H109 0.940 . S
C126 C125 1.385 . S
C126 C127 1.388 . S
C127 H106 0.939 . S
C127 C122 1.391 . S
C127 C126 1.388 . S
P128 O139 1.490 . S
P128 C142 1.812 . S
P128 C148 1.803 . S
P128 C154 1.819 . S
H129 C143 0.941 . S
H130 C144 0.939 . S
H131 C146 0.940 . S
H132 C147 0.940 . S
H133 C149 0.939 . S
H134 C150 0.942 1_455 S
H135 C152 0.940 . S
H136 C153 0.939 . S
H137 C155 0.941 . S
H138 C159 0.939 . S
O139 P128 1.490 . S
H140 C156 0.939 . S
H141 C158 0.940 . S
C142 P128 1.812 . S
C142 C143 1.389 . S
C142 C147 1.391 . S
C143 H129 0.941 . S
C143 C142 1.389 . S
C143 C144 1.397 . S
C144 H130 0.939 . S
C144 C143 1.397 . S
C144 C145 1.378 . S
C145 C144 1.378 . S
C145 C146 1.378 . S
C146 H131 0.940 . S
C146 C145 1.378 . S
C146 C147 1.396 . S
C147 H132 0.940 . S
C147 C142 1.391 . S
C147 C146 1.396 . S
C148 P128 1.803 . S
C148 C149 1.378 . S
C148 C153 1.400 . S
C149 H133 0.939 . S
C149 C148 1.378 . S
C149 C150 1.361 . S
C150 H134 0.942 1_655 S
C150 C149 1.361 . S
C150 C151 1.369 . S
C151 C150 1.369 . S
C151 C152 1.404 . S
C152 H135 0.940 . S
C152 C151 1.404 . S
C152 C153 1.389 . S
C153 H136 0.939 . S
C153 C148 1.400 . S
C153 C152 1.389 . S
C154 P128 1.819 . S
C154 C155 1.391 . S
C154 C159 1.391 . S
C155 H137 0.941 . S
C155 C154 1.391 . S
C155 C156 1.396 . S
C156 H140 0.939 . S
C156 C155 1.396 . S
C156 C157 1.397 . S
C157 C156 1.397 . S
C157 C158 1.385 . S
C158 H141 0.940 . S
C158 C157 1.385 . S
C158 C159 1.388 . S
C159 H138 0.939 . S
C159 C154 1.391 . S
C159 C158 1.388 . S
P160 O171 1.490 . S
P160 C174 1.812 . S
P160 C180 1.803 . S
P160 C186 1.819 . S
H161 C175 0.941 . S
H162 C176 0.939 . S
H163 C178 0.940 . S
H164 C179 0.940 . S
H165 C181 0.939 . S
H166 C182 0.942 . S
H167 C184 0.940 . S
H168 C185 0.939 . S
H169 C187 0.941 . S
H170 C191 0.939 . S
O171 P160 1.490 . S
H172 C188 0.939 . S
H173 C190 0.940 . S
C174 P160 1.812 . S
C174 C175 1.389 . S
C174 C179 1.391 . S
C175 H161 0.941 . S
C175 C174 1.389 . S
C175 C176 1.397 . S
C176 H162 0.939 . S
C176 C175 1.397 . S
C176 C177 1.378 . S
C177 C176 1.378 . S
C177 C178 1.378 . S
C178 H163 0.940 . S
C178 C177 1.378 . S
C178 C179 1.396 . S
C179 H164 0.940 . S
C179 C174 1.391 . S
C179 C178 1.396 . S
C180 P160 1.803 . S
C180 C181 1.378 . S
C180 C185 1.400 . S
C181 H165 0.939 . S
C181 C180 1.378 . S
C181 C182 1.361 . S
C182 H166 0.942 . S
C182 C181 1.361 . S
C182 C183 1.369 . S
C183 C182 1.369 . S
C183 C184 1.404 . S
C184 H167 0.940 . S
C184 C183 1.404 . S
C184 C185 1.389 . S
C185 H168 0.939 . S
C185 C180 1.400 . S
C185 C184 1.389 . S
C186 P160 1.819 . S
C186 C187 1.391 . S
C186 C191 1.391 . S
C187 H169 0.941 . S
C187 C186 1.391 . S
C187 C188 1.396 . S
C188 H172 0.939 . S
C188 C187 1.396 . S
C188 C189 1.397 . S
C189 C188 1.397 . S
C189 C190 1.385 . S
C190 H173 0.940 . S
C190 C189 1.385 . S
C190 C191 1.388 . S
C191 H170 0.939 . S
C191 C186 1.391 . S
C191 C190 1.388 . S
P192 O203 1.490 . S
P192 C206 1.812 . S
P192 C212 1.803 . S
P192 C218 1.819 . S
H193 C207 0.941 . S
H194 C208 0.939 1_556 S
H195 C210 0.940 . S
H196 C211 0.940 . S
H197 C213 0.939 . S
H198 C214 0.942 . S
H199 C216 0.940 . S
H200 C217 0.939 . S
H201 C219 0.941 . S
H202 C223 0.939 . S
O203 P192 1.490 . S
H204 C220 0.939 . S
H205 C222 0.940 . S
C206 P192 1.812 . S
C206 C207 1.389 . S
C206 C211 1.391 . S
C207 H193 0.941 . S
C207 C206 1.389 . S
C207 C208 1.397 . S
C208 H194 0.939 1_554 S
C208 C207 1.397 . S
C208 C209 1.378 . S
C209 C208 1.378 . S
C209 C210 1.378 . S
C210 H195 0.940 . S
C210 C209 1.378 . S
C210 C211 1.396 . S
C211 H196 0.940 . S
C211 C206 1.391 . S
C211 C210 1.396 . S
C212 P192 1.803 . S
C212 C213 1.378 . S
C212 C217 1.400 . S
C213 H197 0.939 . S
C213 C212 1.378 . S
C213 C214 1.361 . S
C214 H198 0.942 . S
C214 C213 1.361 . S
C214 C215 1.369 . S
C215 C214 1.369 . S
C215 C216 1.404 . S
C216 H199 0.940 . S
C216 C215 1.404 . S
C216 C217 1.389 . S
C217 H200 0.939 . S
C217 C212 1.400 . S
C217 C216 1.389 . S
C218 P192 1.819 . S
C218 C219 1.391 . S
C218 C223 1.391 . S
C219 H201 0.941 . S
C219 C218 1.391 . S
C219 C220 1.396 . S
C220 H204 0.939 . S
C220 C219 1.396 . S
C220 C221 1.397 . S
C221 C220 1.397 . S
C221 C222 1.385 . S
C222 H205 0.940 . S
C222 C221 1.385 . S
C222 C223 1.388 . S
C223 H202 0.939 . S
C223 C218 1.391 . S
C223 C222 1.388 . S
P224 O235 1.490 . S
P224 C238 1.812 . S
P224 C244 1.803 . S
P224 C250 1.819 . S
H225 C239 0.941 . S
H226 C240 0.939 . S
H227 C242 0.940 . S
H228 C243 0.940 . S
H229 C245 0.939 . S
H230 C246 0.942 . S
H231 C248 0.940 . S
H232 C249 0.939 . S
H233 C251 0.941 . S
H234 C255 0.939 . S
O235 P224 1.490 . S
H236 C252 0.939 . S
H237 C254 0.940 . S
C238 P224 1.812 . S
C238 C239 1.389 . S
C238 C243 1.391 . S
C239 H225 0.941 . S
C239 C238 1.389 . S
C239 C240 1.397 . S
C240 H226 0.939 . S
C240 C239 1.397 . S
C240 C241 1.378 . S
C241 C240 1.378 . S
C241 C242 1.378 . S
C242 H227 0.940 . S
C242 C241 1.378 . S
C242 C243 1.396 . S
C243 H228 0.940 . S
C243 C238 1.391 . S
C243 C242 1.396 . S
C244 P224 1.803 . S
C244 C245 1.378 . S
C244 C249 1.400 . S
C245 H229 0.939 . S
C245 C244 1.378 . S
C245 C246 1.361 . S
C246 H230 0.942 . S
C246 C245 1.361 . S
C246 C247 1.369 . S
C247 C246 1.369 . S
C247 C248 1.404 . S
C248 H231 0.940 . S
C248 C247 1.404 . S
C248 C249 1.389 . S
C249 H232 0.939 . S
C249 C244 1.400 . S
C249 C248 1.389 . S
C250 P224 1.819 . S
C250 C251 1.391 . S
C250 C255 1.391 . S
C251 H233 0.941 . S
C251 C250 1.391 . S
C251 C252 1.396 . S
C252 H236 0.939 . S
C252 C251 1.396 . S
C252 C253 1.397 . S
C253 C252 1.397 . S
C253 C254 1.385 . S
C254 H237 0.940 . S
C254 C253 1.385 . S
C254 C255 1.388 . S
C255 H234 0.939 . S
C255 C250 1.391 . S
C255 C254 1.388 . S
C256 O272 1.251 . S
C256 O274 1.254 1_545 S
N257 C258 1.333 . S
N257 C262 1.307 . S
N257 Zn263 2.020 . S
C258 N257 1.333 . S
C258 C259 1.379 . S
C258 H276 0.952 . S
C259 C258 1.379 . S
C259 C260 1.390 . S
C259 H286 0.949 . S
C260 C259 1.390 . S
C260 C261 1.357 . S
C261 C260 1.357 . S
C261 C262 1.370 . S
C261 H287 0.950 . S
C262 N257 1.307 . S
C262 C261 1.370 . S
C262 H280 0.948 1_455 S
Zn263 N257 2.020 . S
Zn263 O272 2.039 . S
Zn263 O278 2.034 . S
Zn263 O282 2.025 1_455 S
Zn263 O284 2.024 1_455 S
C264 O283 1.246 1_545 S
C264 O284 1.249 . S
N265 C266 1.308 . S
N265 C267 1.333 . S
N265 Zn271 2.020 . S
C266 N265 1.308 . S
C266 C270 1.371 . S
C266 H277 0.946 1_655 S
C267 N265 1.333 . S
C267 C268 1.379 . S
C267 H275 0.952 . S
C268 C267 1.379 . S
C268 C269 1.390 . S
C268 H288 0.949 . S
C269 C268 1.390 . S
C269 C270 1.357 . S
C270 C266 1.371 . S
C270 C269 1.357 . S
C270 H289 0.950 1_655 S
Zn271 N265 2.020 . S
Zn271 O274 2.025 1_655 S
Zn271 O279 2.024 1_655 S
Zn271 O281 2.039 . S
Zn271 O283 2.034 . S
O272 C256 1.251 . S
O272 Zn263 2.039 . S
C273 O278 1.246 1_565 S
C273 O279 1.249 . S
O274 C256 1.254 1_565 S
O274 Zn271 2.025 1_455 S
H275 C267 0.952 . S
H276 C258 0.952 . S
H277 C266 0.946 1_455 S
O278 Zn263 2.034 . S
O278 C273 1.246 1_545 S
O279 Zn271 2.024 1_455 S
O279 C273 1.249 . S
H280 C262 0.948 1_655 S
O281 Zn271 2.039 . S
O281 C285 1.251 . S
O282 Zn263 2.025 1_655 S
O282 C285 1.254 1_545 S
O283 C264 1.246 1_565 S
O283 Zn271 2.034 . S
O284 Zn263 2.024 1_655 S
O284 C264 1.249 . S
C285 O281 1.251 . S
C285 O282 1.254 1_565 S
H286 C259 0.949 . S
H287 C261 0.950 . S
H288 C268 0.949 . S
H289 C270 0.950 1_455 S
C290 O306 1.251 1_565 S
C290 O308 1.254 1_556 S
N291 C292 1.333 . S
N291 C296 1.307 . S
N291 Zn297 2.020 . S
C292 N291 1.333 . S
C292 C293 1.379 . S
C292 H310 0.952 . S
C293 C292 1.379 . S
C293 C294 1.390 . S
C293 H320 0.949 . S
C294 C293 1.390 . S
C294 C295 1.357 . S
C295 C294 1.357 . S
C295 C296 1.370 . S
C295 H321 0.950 . S
C296 N291 1.307 . S
C296 C295 1.370 . S
C296 H314 0.948 . S
Zn297 N291 2.020 . S
Zn297 O306 2.039 . S
Zn297 O312 2.034 1_556 S
Zn297 O316 2.025 1_556 S
Zn297 O318 2.024 . S
C298 O317 1.246 . S
C298 O318 1.249 1_565 S
N299 C300 1.307 . S
N299 C301 1.333 . S
N299 Zn305 2.020 . S
C300 N299 1.307 . S
C300 C304 1.370 . S
C300 H311 0.948 . S
C301 N299 1.333 . S
C301 C302 1.379 . S
C301 H309 0.952 . S
C302 C301 1.379 . S
C302 C303 1.390 . S
C302 H322 0.949 . S
C303 C302 1.390 . S
C303 C304 1.357 . S
C304 C300 1.370 . S
C304 C303 1.357 . S
C304 H323 0.950 . S
Zn305 N299 2.020 . S
Zn305 O308 2.025 . S
Zn305 O313 2.024 . S
Zn305 O315 2.039 . S
Zn305 O317 2.034 1_554 S
O306 C290 1.251 1_545 S
O306 Zn297 2.039 . S
C307 O312 1.246 . S
C307 O313 1.249 1_545 S
O308 C290 1.254 1_554 S
O308 Zn305 2.025 . S
H309 C301 0.952 . S
H310 C292 0.952 . S
H311 C300 0.948 . S
O312 Zn297 2.034 1_554 S
O312 C307 1.246 . S
O313 Zn305 2.024 . S
O313 C307 1.249 1_565 S
H314 C296 0.948 . S
O315 Zn305 2.039 . S
O315 C319 1.251 1_565 S
O316 Zn297 2.025 1_554 S
O316 C319 1.254 . S
O317 C298 1.246 . S
O317 Zn305 2.034 1_556 S
O318 Zn297 2.024 . S
O318 C298 1.249 1_545 S
C319 O315 1.251 1_545 S
C319 O316 1.254 . S
H320 C293 0.949 . S
H321 C295 0.950 . S
H322 C302 0.949 . S
H323 C304 0.950 . S
C324 O340 1.251 . S
C324 O342 1.254 . S
N325 C326 1.333 . S
N325 C330 1.307 . S
N325 Zn331 2.020 . S
C326 N325 1.333 . S
C326 C327 1.379 . S
C326 H344 0.952 . S
C327 C326 1.379 . S
C327 C328 1.390 . S
C327 H354 0.949 . S
C328 C327 1.390 . S
C328 C329 1.357 . S
C329 C328 1.357 . S
C329 C330 1.370 . S
C329 H355 0.950 . S
C330 N325 1.307 . S
C330 C329 1.370 . S
C330 H348 0.948 . S
Zn331 N325 2.020 . S
Zn331 O340 2.039 . S
Zn331 O346 2.034 . S
Zn331 O350 2.025 . S
Zn331 O352 2.024 . S
C332 O351 1.246 . S
C332 O352 1.249 . S
N333 C334 1.307 . S
N333 C335 1.333 . S
N333 Zn339 2.020 . S
C334 N333 1.307 . S
C334 C338 1.370 . S
C334 H345 0.948 . S
C335 N333 1.333 . S
C335 C336 1.379 . S
C335 H343 0.952 . S
C336 C335 1.379 . S
C336 C337 1.390 . S
C336 H356 0.949 . S
C337 C336 1.390 . S
C337 C338 1.357 . S
C338 C334 1.370 . S
C338 C337 1.357 . S
C338 H357 0.950 . S
Zn339 N333 2.020 . S
Zn339 O342 2.025 . S
Zn339 O347 2.024 . S
Zn339 O349 2.039 . S
Zn339 O351 2.034 . S
O340 C324 1.251 . S
O340 Zn331 2.039 . S
C341 O346 1.246 . S
C341 O347 1.249 . S
O342 C324 1.254 . S
O342 Zn339 2.025 . S
H343 C335 0.952 . S
H344 C326 0.952 . S
H345 C334 0.948 . S
O346 Zn331 2.034 . S
O346 C341 1.246 . S
O347 Zn339 2.024 . S
O347 C341 1.249 . S
H348 C330 0.948 . S
O349 Zn339 2.039 . S
O349 C353 1.251 . S
O350 Zn331 2.025 . S
O350 C353 1.254 . S
O351 C332 1.246 . S
O351 Zn339 2.034 . S
O352 Zn331 2.024 . S
O352 C332 1.249 . S
C353 O349 1.251 . S
C353 O350 1.254 . S
H354 C327 0.949 . S
H355 C329 0.950 . S
H356 C336 0.949 . S
H357 C338 0.950 . S
C358 O374 1.251 1_556 S
C358 O376 1.256 . S
N359 C360 1.333 . S
N359 C364 1.307 . S
N359 Zn365 2.020 . S
C360 N359 1.333 . S
C360 C361 1.379 . S
C360 H378 0.952 . S
C361 C360 1.379 . S
C361 C362 1.390 . S
C361 H388 0.949 . S
C362 C361 1.390 . S
C362 C363 1.357 . S
C363 C362 1.357 . S
C363 C364 1.370 . S
C363 H389 0.950 . S
C364 N359 1.307 . S
C364 C363 1.370 . S
C364 H382 0.948 . S
Zn365 N359 2.020 . S
Zn365 O374 2.039 . S
Zn365 O380 2.034 1_655 S
Zn365 O384 2.025 1_655 S
Zn365 O386 2.024 . S
C366 O385 1.246 . S
C366 O386 1.249 1_556 S
N367 C368 1.307 . S
N367 C369 1.333 . S
N367 Zn373 2.020 . S
C368 N367 1.307 . S
C368 C372 1.370 . S
C368 H379 0.948 . S
C369 N367 1.333 . S
C369 C370 1.379 . S
C369 H377 0.952 . S
C370 C369 1.379 . S
C370 C371 1.390 . S
C370 H390 0.949 . S
C371 C370 1.390 . S
C371 C372 1.357 . S
C372 C368 1.370 . S
C372 C371 1.357 . S
C372 H391 0.950 . S
Zn373 N367 2.020 . S
Zn373 O376 2.024 1_455 S
Zn373 O381 2.024 . S
Zn373 O383 2.039 . S
Zn373 O385 2.034 1_455 S
O374 C358 1.251 1_554 S
O374 Zn365 2.039 . S
C375 O380 1.246 . S
C375 O381 1.249 1_554 S
O376 C358 1.256 . S
O376 Zn373 2.024 1_655 S
H377 C369 0.952 . S
H378 C360 0.952 . S
H379 C368 0.948 . S
O380 Zn365 2.034 1_455 S
O380 C375 1.246 . S
O381 Zn373 2.024 . S
O381 C375 1.249 1_556 S
H382 C364 0.948 . S
O383 Zn373 2.039 . S
O383 C387 1.251 1_556 S
O384 Zn365 2.025 1_455 S
O384 C387 1.254 . S
O385 C366 1.246 . S
O385 Zn373 2.034 1_655 S
O386 Zn365 2.024 . S
O386 C366 1.249 1_554 S
C387 O383 1.251 1_554 S
C387 O384 1.254 . S
H388 C361 0.949 . S
H389 C363 0.950 . S
H390 C370 0.949 . S
H391 C372 0.950 . S
C392 C393 1.369 . S
C392 C394 1.419 . S
C392 H396 0.930 . S
C393 C392 1.369 . S
C393 C402 1.429 . S
C394 C392 1.419 . S
C394 C395 1.363 . S
C394 H397 0.929 . S
C395 C394 1.363 . S
C395 C401 1.428 . S
H396 C392 0.930 . S
H397 C394 0.929 . S
S398 N399 1.613 . S
S398 N400 1.610 . S
N399 S398 1.613 . S
N399 C402 1.350 1_565 S
N400 S398 1.610 . S
N400 C401 1.351 1_565 S
C401 C395 1.428 . S
C401 N400 1.351 1_545 S
C401 C402 1.434 . S
C402 C393 1.429 . S
C402 N399 1.350 1_545 S
C402 C401 1.434 . S
C403 C404 1.369 . S
C403 C405 1.419 . S
C403 H407 0.930 . S
C404 C403 1.369 . S
C404 C413 1.429 . S
C405 C403 1.419 . S
C405 C406 1.363 . S
C405 H408 0.929 . S
C406 C405 1.363 . S
C406 C412 1.428 . S
H407 C403 0.930 . S
H408 C405 0.929 . S
S409 N410 1.613 1_545 S
S409 N411 1.610 . S
N410 S409 1.613 1_565 S
N410 C413 1.350 . S
N411 S409 1.610 . S
N411 C412 1.351 1_545 S
C412 C406 1.428 . S
C412 N411 1.351 1_565 S
C412 C413 1.434 . S
C413 C404 1.429 . S
C413 N410 1.350 . S
C413 C412 1.434 . S
C414 C415 1.369 . S
C414 C416 1.419 . S
C414 H418 0.930 . S
C415 C414 1.369 . S
C415 C424 1.429 . S
C416 C414 1.419 . S
C416 C417 1.363 . S
C416 H419 0.929 . S
C417 C416 1.363 . S
C417 C423 1.428 . S
H418 C414 0.930 . S
H419 C416 0.929 . S
S420 N421 1.613 . S
S420 N422 1.610 . S
N421 S420 1.613 . S
N421 C424 1.350 . S
N422 S420 1.610 . S
N422 C423 1.351 . S
C423 C417 1.428 . S
C423 N422 1.351 . S
C423 C424 1.434 . S
C424 C415 1.429 . S
C424 N421 1.350 . S
C424 C423 1.434 . S
C425 C426 1.369 . S
C425 C427 1.419 . S
C425 H429 0.930 . S
C426 C425 1.369 . S
C426 C435 1.429 . S
C427 C425 1.419 . S
C427 C428 1.363 . S
C427 H430 0.929 . S
C428 C427 1.363 . S
C428 C434 1.428 . S
H429 C425 0.930 . S
H430 C427 0.929 . S
S431 N432 1.613 . S
S431 N433 1.610 . S
N432 S431 1.613 . S
N432 C435 1.350 . S
N433 S431 1.610 . S
N433 C434 1.351 . S
C434 C428 1.428 . S
C434 N433 1.351 . S
C434 C435 1.434 . S
C435 C426 1.429 . S
C435 N432 1.350 . S
C435 C434 1.434 . S
C436 C437 1.369 . S
C436 C438 1.419 . S
C436 H440 0.930 . S
C437 C436 1.369 . S
C437 C446 1.429 . S
C438 C436 1.419 . S
C438 C439 1.363 . S
C438 H441 0.929 . S
C439 C438 1.363 . S
C439 C445 1.428 . S
H440 C436 0.930 . S
H441 C438 0.929 . S
S442 N443 1.613 . S
S442 N444 1.610 . S
N443 S442 1.613 . S
N443 C446 1.350 . S
N444 S442 1.610 . S
N444 C445 1.351 . S
C445 C439 1.428 . S
C445 N444 1.351 . S
C445 C446 1.434 . S
C446 C437 1.429 . S
C446 N443 1.350 . S
C446 C445 1.434 . S
C447 C448 1.369 . S
C447 C449 1.419 . S
C447 H451 0.930 . S
C448 C447 1.369 . S
C448 C457 1.429 . S
C449 C447 1.419 . S
C449 C450 1.363 . S
C449 H452 0.929 . S
C450 C449 1.363 . S
C450 C456 1.428 . S
H451 C447 0.930 . S
H452 C449 0.929 . S
S453 N454 1.613 . S
S453 N455 1.610 . S
N454 S453 1.613 . S
N454 C457 1.350 . S
N455 S453 1.610 . S
N455 C456 1.351 . S
C456 C450 1.428 . S
C456 N455 1.351 . S
C456 C457 1.434 . S
C457 C448 1.429 . S
C457 N454 1.350 . S
C457 C456 1.434 . S
C458 C459 1.368 1_554 S
C458 C460 1.419 . S
C458 H462 0.931 . S
C459 C458 1.368 1_556 S
C459 C468 1.429 . S
C460 C458 1.419 . S
C460 C461 1.363 1_554 S
C460 H463 0.929 . S
C461 C460 1.363 1_556 S
C461 C467 1.428 . S
H462 C458 0.931 . S
H463 C460 0.929 . S
S464 N465 1.613 . S
S464 N466 1.610 . S
N465 S464 1.613 . S
N465 C468 1.350 . S
N466 S464 1.610 . S
N466 C467 1.351 . S
C467 C461 1.428 . S
C467 N466 1.351 . S
C467 C468 1.434 . S
C468 C459 1.429 . S
C468 N465 1.350 . S
C468 C467 1.434 . S
C469 C470 1.369 . S
C469 C471 1.419 . S
C469 H473 0.930 . S
C470 C469 1.369 . S
C470 C479 1.429 . S
C471 C469 1.419 . S
C471 C472 1.363 . S
C471 H474 0.929 . S
C472 C471 1.363 . S
C472 C478 1.428 . S
H473 C469 0.930 . S
H474 C471 0.929 . S
S475 N476 1.613 . S
S475 N477 1.610 . S
N476 S475 1.613 . S
N476 C479 1.350 . S
N477 S475 1.610 . S
N477 C478 1.351 . S
C478 C472 1.428 . S
C478 N477 1.351 . S
C478 C479 1.434 . S
C479 C470 1.429 . S
C479 N476 1.350 . S
C479 C478 1.434 . S
C480 C481 1.369 . S
C480 C482 1.419 . S
C480 H484 0.930 . S
C481 C480 1.369 . S
C481 C490 1.429 . S
C482 C480 1.419 . S
C482 C483 1.363 . S
C482 H485 0.929 . S
C483 C482 1.363 . S
C483 C489 1.428 . S
H484 C480 0.930 . S
H485 C482 0.929 . S
S486 N487 1.613 . S
S486 N488 1.610 . S
N487 S486 1.613 . S
N487 C490 1.350 1_655 S
N488 S486 1.610 . S
N488 C489 1.351 1_655 S
C489 C483 1.428 . S
C489 N488 1.351 1_455 S
C489 C490 1.434 . S
C490 C481 1.429 . S
C490 N487 1.350 1_455 S
C490 C489 1.434 . S
C491 C492 1.369 . S
C491 C493 1.419 . S
C491 H495 0.930 1_556 S
C492 C491 1.369 . S
C492 C501 1.429 . S
C493 C491 1.419 . S
C493 C494 1.363 . S
C493 H496 0.929 1_556 S
C494 C493 1.363 . S
C494 C500 1.428 . S
H495 C491 0.930 1_554 S
H496 C493 0.929 1_554 S
S497 N498 1.613 . S
S497 N499 1.610 . S
N498 S497 1.613 . S
N498 C501 1.350 . S
N499 S497 1.610 . S
N499 C500 1.351 . S
C500 C494 1.428 . S
C500 N499 1.351 . S
C500 C501 1.434 . S
C501 C492 1.429 . S
C501 N498 1.350 . S
C501 C500 1.434 . S
C502 C503 1.369 . S
C502 C504 1.419 . S
C502 H506 0.930 . S
C503 C502 1.369 . S
C503 C512 1.429 . S
C504 C502 1.419 . S
C504 C505 1.363 . S
C504 H507 0.929 . S
C505 C504 1.363 . S
C505 C511 1.428 . S
H506 C502 0.930 . S
H507 C504 0.929 . S
S508 N509 1.613 . S
S508 N510 1.610 . S
N509 S508 1.613 . S
N509 C512 1.350 . S
N510 S508 1.610 . S
N510 C511 1.351 . S
C511 C505 1.428 . S
C511 N510 1.351 . S
C511 C512 1.434 . S
C512 C503 1.429 . S
C512 N509 1.350 . S
C512 C511 1.434 . S
C513 C514 1.369 . S
C513 C515 1.419 . S
C513 H517 0.930 . S
C514 C513 1.369 . S
C514 C523 1.429 . S
C515 C513 1.419 . S
C515 C516 1.363 . S
C515 H518 0.929 . S
C516 C515 1.363 . S
C516 C522 1.428 . S
H517 C513 0.930 . S
H518 C515 0.929 . S
S519 N520 1.613 . S
S519 N521 1.610 . S
N520 S519 1.613 . S
N520 C523 1.350 . S
N521 S519 1.610 . S
N521 C522 1.351 . S
C522 C516 1.428 . S
C522 N521 1.351 . S
C522 C523 1.434 . S
C523 C514 1.429 . S
C523 N520 1.350 . S
C523 C522 1.434 . S
C524 C525 1.369 . S
C524 C526 1.419 . S
C524 H528 0.930 1_655 S
C525 C524 1.369 . S
C525 C534 1.429 . S
C526 C524 1.419 . S
C526 C527 1.363 . S
C526 H529 0.929 1_655 S
C527 C526 1.363 . S
C527 C533 1.428 . S
H528 C524 0.930 1_455 S
H529 C526 0.929 1_455 S
S530 N531 1.613 1_545 S
S530 N532 1.610 . S
N531 S530 1.613 1_565 S
N531 C534 1.350 . S
N532 S530 1.610 . S
N532 C533 1.351 1_545 S
C533 C527 1.428 . S
C533 N532 1.351 1_565 S
C533 C534 1.434 . S
C534 C525 1.429 . S
C534 N531 1.350 . S
C534 C533 1.434 . S
C535 C536 1.369 . S
C535 C537 1.419 . S
C535 H539 0.930 . S
C536 C535 1.369 . S
C536 C545 1.429 . S
C537 C535 1.419 . S
C537 C538 1.363 . S
C537 H540 0.929 . S
C538 C537 1.363 . S
C538 C544 1.428 . S
H539 C535 0.930 . S
H540 C537 0.929 . S
S541 N542 1.613 . S
S541 N543 1.610 . S
N542 S541 1.613 . S
N542 C545 1.350 . S
N543 S541 1.610 . S
N543 C544 1.351 . S
C544 C538 1.428 . S
C544 N543 1.351 . S
C544 C545 1.434 . S
C545 C536 1.429 . S
C545 N542 1.350 . S
C545 C544 1.434 . S
C546 C547 1.369 . S
C546 C548 1.419 . S
C546 H550 0.930 . S
C547 C546 1.369 . S
C547 C556 1.429 . S
C548 C546 1.419 . S
C548 C549 1.363 . S
C548 H551 0.929 . S
C549 C548 1.363 . S
C549 C555 1.428 . S
H550 C546 0.930 . S
H551 C548 0.929 . S
S552 N553 1.613 . S
S552 N554 1.610 . S
N553 S552 1.613 . S
N553 C556 1.350 . S
N554 S552 1.610 . S
N554 C555 1.351 . S
C555 C549 1.428 . S
C555 N554 1.351 . S
C555 C556 1.434 . S
C556 C547 1.429 . S
C556 N553 1.350 . S
C556 C555 1.434 . S
C557 C558 1.369 . S
C557 C559 1.419 . S
C557 H561 0.930 . S
C558 C557 1.369 . S
C558 C567 1.429 . S
C559 C557 1.419 . S
C559 C560 1.363 . S
C559 H562 0.929 . S
C560 C559 1.363 . S
C560 C566 1.428 . S
H561 C557 0.930 . S
H562 C559 0.929 . S
S563 N564 1.613 . S
S563 N565 1.610 . S
N564 S563 1.613 . S
N564 C567 1.350 . S
N565 S563 1.610 . S
N565 C566 1.351 . S
C566 C560 1.428 . S
C566 N565 1.351 . S
C566 C567 1.434 . S
C567 C558 1.429 . S
C567 N564 1.350 . S
C567 C566 1.434 . S
C568 C569 1.369 . S
C568 C570 1.419 . S
C568 H572 0.930 . S
C569 C568 1.369 . S
C569 C578 1.429 . S
C570 C568 1.419 . S
C570 C571 1.363 . S
C570 H573 0.929 . S
C571 C570 1.363 . S
C571 C577 1.428 . S
H572 C568 0.930 . S
H573 C570 0.929 . S
S574 N575 1.613 1_545 S
S574 N576 1.610 . S
N575 S574 1.613 1_565 S
N575 C578 1.350 1_554 S
N576 S574 1.610 . S
N576 C577 1.351 1_544 S
C577 C571 1.428 . S
C577 N576 1.351 1_566 S
C577 C578 1.434 . S
C578 C569 1.429 . S
C578 N575 1.350 1_556 S
C578 C577 1.434 . S
C579 C580 1.369 . S
C579 C581 1.419 . S
C579 H583 0.930 . S
C580 C579 1.369 . S
C580 C589 1.429 . S
C581 C579 1.419 . S
C581 C582 1.363 . S
C581 H584 0.929 . S
C582 C581 1.363 . S
C582 C588 1.428 . S
H583 C579 0.930 . S
H584 C581 0.929 . S
S585 N586 1.613 . S
S585 N587 1.610 . S
N586 S585 1.613 . S
N586 C589 1.350 . S
N587 S585 1.610 . S
N587 C588 1.351 . S
C588 C582 1.428 . S
C588 N587 1.351 . S
C588 C589 1.434 . S
C589 C580 1.429 . S
C589 N586 1.350 . S
C589 C588 1.434 . S
C590 C591 1.369 . S
C590 C592 1.419 . S
C590 H594 0.930 . S
C591 C590 1.369 . S
C591 C600 1.429 . S
C592 C590 1.419 . S
C592 C593 1.363 . S
C592 H595 0.929 . S
C593 C592 1.363 . S
C593 C599 1.428 . S
H594 C590 0.930 . S
H595 C592 0.929 . S
S596 N597 1.613 . S
S596 N598 1.610 . S
N597 S596 1.613 . S
N597 C600 1.350 . S
N598 S596 1.610 . S
N598 C599 1.351 . S
C599 C593 1.428 . S
C599 N598 1.351 . S
C599 C600 1.434 . S
C600 C591 1.429 . S
C600 N597 1.350 . S
C600 C599 1.434 . S
C601 C602 1.369 . S
C601 C603 1.419 . S
C601 H605 0.930 . S
C602 C601 1.369 . S
C602 C611 1.429 . S
C603 C601 1.419 . S
C603 C604 1.363 . S
C603 H606 0.929 . S
C604 C603 1.363 . S
C604 C610 1.428 . S
H605 C601 0.930 . S
H606 C603 0.929 . S
S607 N608 1.613 . S
S607 N609 1.610 . S
N608 S607 1.613 . S
N608 C611 1.350 . S
N609 S607 1.610 . S
N609 C610 1.351 . S
C610 C604 1.428 . S
C610 N609 1.351 . S
C610 C611 1.434 . S
C611 C602 1.429 . S
C611 N608 1.350 . S
C611 C610 1.434 . S
C612 C613 1.369 . S
C612 C614 1.419 . S
C612 H616 0.930 . S
C613 C612 1.369 . S
C613 C622 1.429 . S
C614 C612 1.419 . S
C614 C615 1.363 . S
C614 H617 0.929 . S
C615 C614 1.363 . S
C615 C621 1.428 . S
H616 C612 0.930 . S
H617 C614 0.929 . S
S618 N619 1.613 . S
S618 N620 1.610 . S
N619 S618 1.613 . S
N619 C622 1.350 1_554 S
N620 S618 1.610 . S
N620 C621 1.351 1_554 S
C621 C615 1.428 . S
C621 N620 1.351 1_556 S
C621 C622 1.434 . S
C622 C613 1.429 . S
C622 N619 1.350 1_556 S
C622 C621 1.434 . S
C623 C624 1.369 . S
C623 C625 1.419 . S
C623 H627 0.930 . S
C624 C623 1.369 . S
C624 C633 1.429 . S
C625 C623 1.419 . S
C625 C626 1.363 . S
C625 H628 0.929 . S
C626 C625 1.363 . S
C626 C632 1.428 . S
H627 C623 0.930 . S
H628 C625 0.929 . S
S629 N630 1.613 . S
S629 N631 1.610 . S
N630 S629 1.613 . S
N630 C633 1.350 1_556 S
N631 S629 1.610 . S
N631 C632 1.351 1_556 S
C632 C626 1.428 . S
C632 N631 1.351 1_554 S
C632 C633 1.434 . S
C633 C624 1.429 . S
C633 N630 1.350 1_554 S
C633 C632 1.434 . S
C634 C635 1.369 . S
C634 C636 1.419 . S
C634 H638 0.930 . S
C635 C634 1.369 . S
C635 C644 1.429 . S
C636 C634 1.419 . S
C636 C637 1.363 . S
C636 H639 0.929 . S
C637 C636 1.363 . S
C637 C643 1.428 . S
H638 C634 0.930 . S
H639 C636 0.929 . S
S640 N641 1.613 . S
S640 N642 1.610 . S
N641 S640 1.613 . S
N641 C644 1.350 . S
N642 S640 1.610 . S
N642 C643 1.351 . S
C643 C637 1.428 . S
C643 N642 1.351 . S
C643 C644 1.434 . S
C644 C635 1.429 . S
C644 N641 1.350 . S
C644 C643 1.434 . S
C645 C646 1.369 . S
C645 C647 1.419 . S
C645 H649 0.930 . S
C646 C645 1.369 . S
C646 C655 1.429 . S
C647 C645 1.419 . S
C647 C648 1.363 . S
C647 H650 0.929 . S
C648 C647 1.363 . S
C648 C654 1.428 . S
H649 C645 0.930 . S
H650 C647 0.929 . S
S651 N652 1.613 . S
S651 N653 1.610 . S
N652 S651 1.613 . S
N652 C655 1.350 . S
N653 S651 1.610 . S
N653 C654 1.351 . S
C654 C648 1.428 . S
C654 N653 1.351 . S
C654 C655 1.434 . S
C655 C646 1.429 . S
C655 N652 1.350 . S
C655 C654 1.434 . S
C393 C29 2.262 . S
C395 C256 2.375 . S
C404 C49 2.268 . S
C406 C298 2.270 . S
C417 C328 1.093 . S
C415 C93 0.987 . S
C426 C119 1.011 . S
C428 C362 1.091 . S
C439 C319 1.859 . S
C437 C17 1.741 . S
C450 C273 1.887 . S
C448 C61 1.892 . S
C461 C366 1.365 . S
C459 C81 1.237 . S
C472 C332 1.469 . S
C470 C125 1.316 . S
C481 C23 2.090 . S
C483 C387 2.198 . S
C494 C294 1.193 . S
C492 C87 1.111 . S
C503 C113 1.149 . S
C505 C269 1.264 . S
C514 C55 2.192 . S
C516 C353 2.184 . S
C527 C285 2.319 . S
C525 C157 2.316 . S
C536 C189 2.198 . S
C538 C307 2.319 . S
C547 C221 1.094 . S
C549 C337 1.081 . S
C558 C253 1.032 . S
C560 C371 1.129 . S
C569 C145 1.888 . S
C571 C290 1.893 . S
C582 C264 1.823 . S
C580 C183 1.709 . S
C593 C375 1.399 . S
C591 C209 1.403 . S
C604 C341 1.416 . S
C602 C247 1.277 . S
C613 C151 2.218 . S
C615 C358 2.215 . S
C626 C303 1.207 . S
C624 C215 1.242 . S
C637 C260 1.237 . S
C635 C241 1.152 . S
C646 C177 2.114 . S
C648 C324 2.231 . S
