# Generated by pormake.
# Topology eea, (3,6)-cn, num edge types: 1
# Building blocks:
#     Node 0, Type 0, BuildingBlock: CUQRIR_clean_linker_1, # of connection points: 3
#     Node 1, Type 0, BuildingBlock: CUQRIR_clean_linker_1, # of connection points: 3
#     Node 2, Type 0, BuildingBlock: CUQRIR_clean_linker_1, # of connection points: 3
#     Node 3, Type 0, BuildingBlock: CUQRIR_clean_linker_1, # of connection points: 3
#     Node 4, Type 0, BuildingBlock: CUQRIR_clean_linker_1, # of connection points: 3
#     Node 5, Type 0, BuildingBlock: CUQRIR_clean_linker_1, # of connection points: 3
#     Node 6, Type 0, BuildingBlock: CUQRIR_clean_linker_1, # of connection points: 3
#     Node 7, Type 0, BuildingBlock: CUQRIR_clean_linker_1, # of connection points: 3
#     Node 8, Type 0, BuildingBlock: CUQRIR_clean_linker_1, # of connection points: 3
#     Node 9, Type 0, BuildingBlock: CUQRIR_clean_linker_1, # of connection points: 3
#     Node 10, Type 0, BuildingBlock: CUQRIR_clean_linker_1, # of connection points: 3
#     Node 11, Type 0, BuildingBlock: CUQRIR_clean_linker_1, # of connection points: 3
#     Node 12, Type 0, BuildingBlock: CUQRIR_clean_linker_1, # of connection points: 3
#     Node 13, Type 0, BuildingBlock: CUQRIR_clean_linker_1, # of connection points: 3
#     Node 14, Type 0, BuildingBlock: CUQRIR_clean_linker_1, # of connection points: 3
#     Node 15, Type 0, BuildingBlock: CUQRIR_clean_linker_1, # of connection points: 3
#     Node 16, Type 0, BuildingBlock: CUQRIR_clean_linker_1, # of connection points: 3
#     Node 17, Type 0, BuildingBlock: CUQRIR_clean_linker_1, # of connection points: 3
#     Node 18, Type 1, BuildingBlock: KUMBUR_clean_sbu_0, # of connection points: 6
#     Node 19, Type 1, BuildingBlock: KUMBUR_clean_sbu_0, # of connection points: 6
#     Node 20, Type 1, BuildingBlock: KUMBUR_clean_sbu_0, # of connection points: 6
#     Node 21, Type 1, BuildingBlock: KUMBUR_clean_sbu_0, # of connection points: 6
#     Node 22, Type 1, BuildingBlock: KUMBUR_clean_sbu_0, # of connection points: 6
#     Node 23, Type 1, BuildingBlock: KUMBUR_clean_sbu_0, # of connection points: 6
#     Node 24, Type 1, BuildingBlock: KUMBUR_clean_sbu_0, # of connection points: 6
#     Node 25, Type 1, BuildingBlock: KUMBUR_clean_sbu_0, # of connection points: 6
#     Node 26, Type 1, BuildingBlock: KUMBUR_clean_sbu_0, # of connection points: 6
#     Edge 27, Type (0, 1), BuildingBlock: UVAHIK_clean_linker_0, # of connection points: 2
#     Edge 28, Type (0, 1), BuildingBlock: UVAHIK_clean_linker_0, # of connection points: 2
#     Edge 29, Type (0, 1), BuildingBlock: UVAHIK_clean_linker_0, # of connection points: 2
#     Edge 30, Type (0, 1), BuildingBlock: UVAHIK_clean_linker_0, # of connection points: 2
#     Edge 31, Type (0, 1), BuildingBlock: UVAHIK_clean_linker_0, # of connection points: 2
#     Edge 32, Type (0, 1), BuildingBlock: UVAHIK_clean_linker_0, # of connection points: 2
#     Edge 33, Type (0, 1), BuildingBlock: UVAHIK_clean_linker_0, # of connection points: 2
#     Edge 34, Type (0, 1), BuildingBlock: UVAHIK_clean_linker_0, # of connection points: 2
#     Edge 35, Type (0, 1), BuildingBlock: UVAHIK_clean_linker_0, # of connection points: 2
#     Edge 36, Type (0, 1), BuildingBlock: UVAHIK_clean_linker_0, # of connection points: 2
#     Edge 37, Type (0, 1), BuildingBlock: UVAHIK_clean_linker_0, # of connection points: 2
#     Edge 38, Type (0, 1), BuildingBlock: UVAHIK_clean_linker_0, # of connection points: 2
#     Edge 39, Type (0, 1), BuildingBlock: UVAHIK_clean_linker_0, # of connection points: 2
#     Edge 40, Type (0, 1), BuildingBlock: UVAHIK_clean_linker_0, # of connection points: 2
#     Edge 41, Type (0, 1), BuildingBlock: UVAHIK_clean_linker_0, # of connection points: 2
#     Edge 42, Type (0, 1), BuildingBlock: UVAHIK_clean_linker_0, # of connection points: 2
#     Edge 43, Type (0, 1), BuildingBlock: UVAHIK_clean_linker_0, # of connection points: 2
#     Edge 44, Type (0, 1), BuildingBlock: UVAHIK_clean_linker_0, # of connection points: 2
#     Edge 45, Type (0, 1), BuildingBlock: UVAHIK_clean_linker_0, # of connection points: 2
#     Edge 46, Type (0, 1), BuildingBlock: UVAHIK_clean_linker_0, # of connection points: 2
#     Edge 47, Type (0, 1), BuildingBlock: UVAHIK_clean_linker_0, # of connection points: 2
#     Edge 48, Type (0, 1), BuildingBlock: UVAHIK_clean_linker_0, # of connection points: 2
#     Edge 49, Type (0, 1), BuildingBlock: UVAHIK_clean_linker_0, # of connection points: 2
#     Edge 50, Type (0, 1), BuildingBlock: UVAHIK_clean_linker_0, # of connection points: 2
#     Edge 51, Type (0, 1), BuildingBlock: UVAHIK_clean_linker_0, # of connection points: 2
#     Edge 52, Type (0, 1), BuildingBlock: UVAHIK_clean_linker_0, # of connection points: 2
#     Edge 53, Type (0, 1), BuildingBlock: UVAHIK_clean_linker_0, # of connection points: 2
#     Edge 54, Type (0, 1), BuildingBlock: UVAHIK_clean_linker_0, # of connection points: 2
#     Edge 55, Type (0, 1), BuildingBlock: UVAHIK_clean_linker_0, # of connection points: 2
#     Edge 56, Type (0, 1), BuildingBlock: UVAHIK_clean_linker_0, # of connection points: 2
#     Edge 57, Type (0, 1), BuildingBlock: UVAHIK_clean_linker_0, # of connection points: 2
#     Edge 58, Type (0, 1), BuildingBlock: UVAHIK_clean_linker_0, # of connection points: 2
#     Edge 59, Type (0, 1), BuildingBlock: UVAHIK_clean_linker_0, # of connection points: 2
#     Edge 60, Type (0, 1), BuildingBlock: UVAHIK_clean_linker_0, # of connection points: 2
#     Edge 61, Type (0, 1), BuildingBlock: UVAHIK_clean_linker_0, # of connection points: 2
#     Edge 62, Type (0, 1), BuildingBlock: UVAHIK_clean_linker_0, # of connection points: 2
#     Edge 63, Type (0, 1), BuildingBlock: UVAHIK_clean_linker_0, # of connection points: 2
#     Edge 64, Type (0, 1), BuildingBlock: UVAHIK_clean_linker_0, # of connection points: 2
#     Edge 65, Type (0, 1), BuildingBlock: UVAHIK_clean_linker_0, # of connection points: 2
#     Edge 66, Type (0, 1), BuildingBlock: UVAHIK_clean_linker_0, # of connection points: 2
#     Edge 67, Type (0, 1), BuildingBlock: UVAHIK_clean_linker_0, # of connection points: 2
#     Edge 68, Type (0, 1), BuildingBlock: UVAHIK_clean_linker_0, # of connection points: 2
#     Edge 69, Type (0, 1), BuildingBlock: UVAHIK_clean_linker_0, # of connection points: 2
#     Edge 70, Type (0, 1), BuildingBlock: UVAHIK_clean_linker_0, # of connection points: 2
#     Edge 71, Type (0, 1), BuildingBlock: UVAHIK_clean_linker_0, # of connection points: 2
#     Edge 72, Type (0, 1), BuildingBlock: UVAHIK_clean_linker_0, # of connection points: 2
#     Edge 73, Type (0, 1), BuildingBlock: UVAHIK_clean_linker_0, # of connection points: 2
#     Edge 74, Type (0, 1), BuildingBlock: UVAHIK_clean_linker_0, # of connection points: 2
#     Edge 75, Type (0, 1), BuildingBlock: UVAHIK_clean_linker_0, # of connection points: 2
#     Edge 76, Type (0, 1), BuildingBlock: UVAHIK_clean_linker_0, # of connection points: 2
#     Edge 77, Type (0, 1), BuildingBlock: UVAHIK_clean_linker_0, # of connection points: 2
#     Edge 78, Type (0, 1), BuildingBlock: UVAHIK_clean_linker_0, # of connection points: 2
#     Edge 79, Type (0, 1), BuildingBlock: UVAHIK_clean_linker_0, # of connection points: 2
#     Edge 80, Type (0, 1), BuildingBlock: UVAHIK_clean_linker_0, # of connection points: 2
# Relax obj value: 0.039
# Max RMSD: 0.194
# Mean RMSD: 0.139
data_MOF--net-eea--node1-KUMBUR_clean_sbu_0--node2-CUQRIR_clean_linker_1--edge1-UVAHIK_clean_linker_0
_symmetry_space_group_name_H-M    P1
_symmetry_Int_Tables_number       1
_symmetry_cell_setting            triclinic
loop_
_symmetry_equiv_pos_as_xyz
'x, y, z'
_cell_length_a     63.449186
_cell_length_b     67.816071
_cell_length_c     79.177822
_cell_angle_alpha  83.241021
_cell_angle_beta   90.10161
_cell_angle_gamma 118.67061
loop_
_atom_site_label
_atom_site_type_symbol
_atom_site_fract_x
_atom_site_fract_y
_atom_site_fract_z
_atom_type_partial_charge
C0 C 0.21767 0.10272 0.41428 0.0
N1 N 0.22619 0.12038 0.42352 0.0
N2 N 0.2243 0.08724 0.42068 0.0
C3 C 0.20301 0.10063 0.39896 0.0
C4 C 0.23735 0.09615 0.43402 0.0
N5 N 0.23873 0.1164 0.43564 0.0
C6 C 0.24881 0.08513 0.44546 0.0
H7 H 0.18378 0.09303 0.40333 0.0
H8 H 0.20462 0.0895 0.39046 0.0
H9 H 0.20867 0.11754 0.39162 0.0
H10 H 0.24053 0.06668 0.44486 0.0
H11 H 0.24747 0.08796 0.45885 0.0
H12 H 0.26816 0.09295 0.44136 0.0
C13 C 0.90544 0.1139 0.41504 0.0
N14 N 0.91501 0.13094 0.42491 0.0
N15 N 0.88239 0.09882 0.42053 0.0
C16 C 0.91784 0.11271 0.39934 0.0
C17 C 0.87815 0.10722 0.43399 0.0
N18 N 0.89783 0.12681 0.43662 0.0
C19 C 0.85505 0.09569 0.44501 0.0
H20 H 0.92953 0.12993 0.39247 0.0
H21 H 0.90459 0.10217 0.39062 0.0
H22 H 0.92928 0.10488 0.40315 0.0
H23 H 0.8451 0.07724 0.4441 0.0
H24 H 0.84349 0.10318 0.44063 0.0
H25 H 0.85865 0.09823 0.45852 0.0
C26 C 0.93008 0.8611 0.42029 0.0
N27 N 0.93827 0.85101 0.43232 0.0
N28 N 0.90831 0.85812 0.42541 0.0
C29 C 0.94107 0.86998 0.40235 0.0
C30 C 0.90368 0.84598 0.44105 0.0
N31 N 0.92164 0.84131 0.44518 0.0
C32 C 0.88024 0.83663 0.45141 0.0
H33 H 0.93205 0.87842 0.39496 0.0
H34 H 0.9395 0.8557 0.39591 0.0
H35 H 0.96047 0.88229 0.40253 0.0
H36 H 0.86698 0.8204 0.44715 0.0
H37 H 0.8729 0.8486 0.4494 0.0
H38 H 0.88265 0.83349 0.46517 0.0
C39 C 0.07683 0.15541 0.62118 0.0
N40 N 0.09762 0.16457 0.61139 0.0
N41 N 0.05896 0.15577 0.61204 0.0
C42 C 0.07423 0.14791 0.64007 0.0
C43 C 0.06957 0.16494 0.59618 0.0
N44 N 0.09298 0.17014 0.59574 0.0
C45 C 0.05814 0.17221 0.58188 0.0
H46 H 0.05622 0.13304 0.64364 0.0
H47 H 0.0757 0.16183 0.64694 0.0
H48 H 0.08829 0.1434 0.64412 0.0
H49 H 0.06493 0.19075 0.58105 0.0
H50 H 0.03824 0.16325 0.58401 0.0
H51 H 0.06317 0.16877 0.56958 0.0
C52 C 0.79649 0.90823 0.62737 0.0
N53 N 0.78987 0.8917 0.61722 0.0
N54 N 0.79284 0.92531 0.61993 0.0
C55 C 0.80792 0.90836 0.64404 0.0
C56 C 0.7838 0.91856 0.60485 0.0
N57 N 0.78221 0.89826 0.60315 0.0
C58 C 0.77547 0.93128 0.59214 0.0
H59 H 0.79359 0.89968 0.65448 0.0
H60 H 0.81995 0.92596 0.64661 0.0
H61 H 0.81842 0.89916 0.64403 0.0
H62 H 0.79106 0.94381 0.58346 0.0
H63 H 0.76822 0.94055 0.59869 0.0
H64 H 0.76151 0.91979 0.58429 0.0
C65 C 0.11554 0.91457 0.63184 0.0
N66 N 0.10669 0.89692 0.62254 0.0
N67 N 0.13801 0.93066 0.62568 0.0
C68 C 0.10229 0.91606 0.64697 0.0
C69 C 0.1426 0.92206 0.61241 0.0
N70 N 0.12373 0.90155 0.61058 0.0
C71 C 0.16565 0.93343 0.60131 0.0
H72 H 0.08953 0.92202 0.64236 0.0
H73 H 0.11465 0.92818 0.65524 0.0
H74 H 0.09182 0.89913 0.65461 0.0
H75 H 0.17611 0.92443 0.60456 0.0
H76 H 0.17708 0.95142 0.60305 0.0
H77 H 0.16158 0.93227 0.58771 0.0
C78 C 0.88376 0.43551 0.74692 0.0
N79 N 0.89199 0.45308 0.75623 0.0
N80 N 0.8905 0.4201 0.75336 0.0
C81 C 0.86926 0.43342 0.73152 0.0
C82 C 0.9033 0.42898 0.7668 0.0
N83 N 0.90443 0.44912 0.76845 0.0
C84 C 0.91489 0.41812 0.77827 0.0
H85 H 0.85 0.42588 0.73579 0.0
H86 H 0.8709 0.42227 0.72306 0.0
H87 H 0.87501 0.45034 0.72415 0.0
H88 H 0.90694 0.39973 0.77756 0.0
H89 H 0.91324 0.42075 0.79167 0.0
H90 H 0.93432 0.42624 0.7743 0.0
C91 C 0.57224 0.44834 0.74756 0.0
N92 N 0.58197 0.46485 0.75785 0.0
N93 N 0.54985 0.4322 0.75375 0.0
C94 C 0.5847 0.44789 0.73158 0.0
C95 C 0.5462 0.43956 0.76807 0.0
N96 N 0.56558 0.45947 0.77051 0.0
C97 C 0.5239 0.42672 0.7799 0.0
H98 H 0.59543 0.46529 0.7247 0.0
H99 H 0.57179 0.43688 0.72295 0.0
H100 H 0.59716 0.44113 0.73509 0.0
H101 H 0.52561 0.4135 0.78852 0.0
H102 H 0.50778 0.41811 0.77254 0.0
H103 H 0.52124 0.43783 0.78784 0.0
C104 C 0.59492 0.19226 0.75644 0.0
N105 N 0.60603 0.18263 0.76611 0.0
N106 N 0.57582 0.19064 0.76526 0.0
C107 C 0.60113 0.20137 0.73782 0.0
C108 C 0.5762 0.18024 0.78084 0.0
N109 N 0.59452 0.17538 0.78141 0.0
C110 C 0.55648 0.17174 0.79468 0.0
H111 H 0.59785 0.21602 0.73474 0.0
H112 H 0.58934 0.18802 0.73011 0.0
H113 H 0.62022 0.20676 0.73431 0.0
H114 H 0.54336 0.15377 0.79373 0.0
H115 H 0.54692 0.18186 0.79339 0.0
H116 H 0.56403 0.17252 0.8074 0.0
C117 C 0.7468 0.49438 0.95808 0.0
N118 N 0.76511 0.5031 0.94596 0.0
N119 N 0.72889 0.49857 0.95276 0.0
C120 C 0.74838 0.48566 0.97616 0.0
C121 C 0.737 0.51014 0.93697 0.0
N122 N 0.75908 0.51309 0.93287 0.0
C123 C 0.72416 0.52035 0.92629 0.0
H124 H 0.73089 0.47827 0.98363 0.0
H125 H 0.76219 0.49981 0.98235 0.0
H126 H 0.75408 0.47254 0.97628 0.0
H127 H 0.72934 0.5374 0.92978 0.0
H128 H 0.70438 0.50969 0.92873 0.0
H129 H 0.72908 0.52214 0.91253 0.0
C130 C 0.45856 0.23909 0.96201 0.0
N131 N 0.45344 0.22338 0.95128 0.0
N132 N 0.45653 0.25697 0.95424 0.0
C133 C 0.46623 0.23754 0.97992 0.0
C134 C 0.45029 0.2517 0.93835 0.0
N135 N 0.44863 0.23139 0.93649 0.0
C136 C 0.44493 0.26598 0.92483 0.0
H137 H 0.45832 0.24464 0.98828 0.0
H138 H 0.4861 0.24779 0.97976 0.0
H139 H 0.46116 0.21998 0.98543 0.0
H140 H 0.45221 0.28363 0.92766 0.0
H141 H 0.42515 0.25829 0.92404 0.0
H142 H 0.45277 0.26656 0.91219 0.0
C143 C 0.78143 0.24626 0.96443 0.0
N144 N 0.77223 0.22872 0.95502 0.0
N145 N 0.80364 0.26251 0.95789 0.0
C146 C 0.76853 0.24765 0.9798 0.0
C147 C 0.80768 0.25414 0.94427 0.0
N148 N 0.78875 0.23359 0.94259 0.0
C149 C 0.82984 0.26656 0.93227 0.0
H150 H 0.75554 0.25346 0.97548 0.0
H151 H 0.78101 0.25982 0.98798 0.0
H152 H 0.75832 0.2307 0.98746 0.0
H153 H 0.84572 0.27753 0.93907 0.0
H154 H 0.82683 0.2775 0.9221 0.0
H155 H 0.83386 0.2548 0.92612 0.0
C156 C 0.54705 0.76748 0.08062 0.0
N157 N 0.55592 0.7851 0.08991 0.0
N158 N 0.55378 0.75193 0.0867 0.0
C159 C 0.53207 0.76551 0.0655 0.0
C160 C 0.56725 0.76078 0.09988 0.0
N161 N 0.56876 0.78101 0.10172 0.0
C162 C 0.57916 0.74983 0.11091 0.0
H163 H 0.51296 0.75817 0.0701 0.0
H164 H 0.53323 0.75424 0.05693 0.0
H165 H 0.53783 0.78245 0.05817 0.0
H166 H 0.59863 0.75843 0.10697 0.0
H167 H 0.57159 0.73159 0.10975 0.0
H168 H 0.57737 0.75186 0.12445 0.0
C169 C 0.23692 0.78104 0.07991 0.0
N170 N 0.24757 0.7972 0.09043 0.0
N171 N 0.21602 0.76353 0.08735 0.0
C172 C 0.24808 0.78116 0.06311 0.0
C173 C 0.21441 0.76953 0.10283 0.0
N174 N 0.23364 0.78975 0.10483 0.0
C175 C 0.19307 0.75653 0.11552 0.0
H176 H 0.24219 0.78958 0.05276 0.0
H177 H 0.2423 0.76362 0.06051 0.0
H178 H 0.26802 0.79055 0.06296 0.0
H179 H 0.19631 0.7446 0.12454 0.0
H180 H 0.17639 0.74665 0.10905 0.0
H181 H 0.19042 0.76815 0.12294 0.0
C182 C 0.26605 0.52793 0.08898 0.0
N183 N 0.27447 0.5175 0.10054 0.0
N184 N 0.24474 0.5254 0.09476 0.0
C185 C 0.2762 0.53669 0.07083 0.0
C186 C 0.24066 0.5132 0.11034 0.0
N187 N 0.25846 0.50805 0.11378 0.0
C188 C 0.21775 0.50415 0.12128 0.0
H189 H 0.29571 0.54885 0.07059 0.0
H190 H 0.26704 0.54528 0.06384 0.0
H191 H 0.27406 0.52233 0.06424 0.0
H192 H 0.20408 0.48788 0.1173 0.0
H193 H 0.21054 0.51623 0.1196 0.0
H194 H 0.22084 0.50111 0.13492 0.0
C195 C 0.41315 0.83293 0.29132 0.0
N196 N 0.43163 0.84102 0.27941 0.0
N197 N 0.39557 0.8373 0.28546 0.0
C198 C 0.41433 0.82479 0.30964 0.0
C199 C 0.40404 0.84828 0.26955 0.0
N200 N 0.42602 0.85073 0.2659 0.0
C201 C 0.39163 0.85836 0.25822 0.0
H202 H 0.3966 0.81728 0.31679 0.0
H203 H 0.42764 0.83931 0.31578 0.0
H204 H 0.42048 0.81194 0.31034 0.0
H205 H 0.39717 0.87574 0.2611 0.0
H206 H 0.37181 0.84809 0.26063 0.0
H207 H 0.39662 0.85935 0.2446 0.0
C208 C 0.12421 0.57251 0.2969 0.0
N209 N 0.1191 0.55655 0.28641 0.0
N210 N 0.11815 0.58828 0.29009 0.0
C211 C 0.13331 0.5717 0.3144 0.0
C212 C 0.10915 0.5813 0.27506 0.0
N213 N 0.10962 0.56201 0.27287 0.0
C214 C 0.10041 0.59359 0.2623 0.0
H215 H 0.12685 0.57975 0.32298 0.0
H216 H 0.15327 0.58104 0.3134 0.0
H217 H 0.12735 0.55394 0.32007 0.0
H218 H 0.11004 0.61209 0.263 0.0
H219 H 0.0809 0.58708 0.26515 0.0
H220 H 0.10286 0.5907 0.24913 0.0
C221 C 0.44931 0.58069 0.29837 0.0
N222 N 0.43907 0.56328 0.28887 0.0
N223 N 0.46923 0.59843 0.28994 0.0
C224 C 0.43889 0.58122 0.31525 0.0
C225 C 0.47067 0.59125 0.27494 0.0
N226 N 0.45232 0.57009 0.27421 0.0
C227 C 0.4908 0.60441 0.26138 0.0
H228 H 0.41898 0.57093 0.31612 0.0
H229 H 0.444 0.59887 0.31717 0.0
H230 H 0.44607 0.57411 0.32563 0.0
H231 H 0.49384 0.59293 0.25405 0.0
H232 H 0.50778 0.61558 0.26705 0.0
H233 H 0.4859 0.61516 0.25238 0.0
Tb234 Tb 0.50093 0.99613 1.00229 0.0
C235 C 0.55299 0.07366 0.04538 0.0
C236 C 0.59513 0.08495 0.04093 0.0
C237 C 0.58326 0.11262 0.04716 0.0
C238 C 0.57066 0.06838 0.04158 0.0
C239 C 0.559 0.09568 0.04864 0.0
C240 C 0.60132 0.10726 0.04329 0.0
C241 C 0.51691 0.08195 0.05605 0.0
N242 N 0.52989 0.05675 0.04684 0.0
C243 C 0.51191 0.06037 0.05271 0.0
C244 C 0.54053 0.09978 0.05379 0.0
Tb245 Tb 0.52319 0.02211 0.04054 0.0
N246 N 0.56386 0.04661 0.03955 0.0
C247 C 0.5809 0.03988 0.03823 0.0
C248 C 0.6126 0.07842 0.03848 0.0
C249 C 0.60543 0.05569 0.03743 0.0
H250 H 0.49356 0.04678 0.05436 0.0
H251 H 0.61879 0.05033 0.03589 0.0
H252 H 0.62 0.12031 0.04262 0.0
H253 H 0.50254 0.08483 0.06032 0.0
H254 H 0.57581 0.02246 0.03724 0.0
H255 H 0.40511 0.96699 0.00651 0.0
H256 H 0.6316 0.09063 0.03783 0.0
H257 H 0.53173 0.9715 0.99018 0.0
H258 H 0.44794 0.99518 1.00564 0.0
H259 H 0.5233 0.93344 0.9847 0.0
H260 H 0.58827 0.12972 0.04943 0.0
H261 H 0.39291 0.92701 1.00381 0.0
H262 H 0.40509 0.89778 0.99894 0.0
H263 H 0.54438 0.11646 0.05643 0.0
H264 H 0.43728 0.88861 0.993 0.0
N265 N 0.46039 0.97149 1.00285 0.0
C266 C 0.4431 0.97789 1.00437 0.0
C267 C 0.41184 0.93936 1.00338 0.0
C268 C 0.42957 0.93313 1.00096 0.0
C269 C 0.41866 0.9619 1.00488 0.0
C270 C 0.45395 0.94984 1.00061 0.0
H271 H 0.48144 0.90187 0.98749 0.0
N272 N 0.49504 0.96155 0.99652 0.0
C273 C 0.50868 0.93634 0.98832 0.0
C274 C 0.47192 0.94467 0.99733 0.0
C275 C 0.51337 0.95793 0.9914 0.0
C276 C 0.48503 0.91855 0.98994 0.0
C277 C 0.46624 0.92267 0.99425 0.0
O278 O 0.51951 1.00713 0.97824 0.0
O279 O 0.52956 0.02294 0.01382 0.0
O280 O 0.51753 0.04638 0.02293 0.0
O281 O 0.48995 0.02193 1.00552 0.0
O282 O 0.53961 0.00896 0.99634 0.0
O283 O 0.48506 1.00564 0.98177 0.0
O284 O 0.50799 0.01426 0.06563 0.0
O285 O 0.49416 0.99593 0.02893 0.0
O286 O 0.50474 0.97141 0.02034 0.0
O287 O 0.53369 0.99587 0.03693 0.0
O288 O 0.48477 0.00913 0.04733 0.0
O289 O 0.53733 0.00819 0.05942 0.0
C290 C 0.54777 0.02458 1.00609 0.0
C291 C 0.49624 1.00099 0.95454 0.0
C292 C 0.50398 0.008 0.92372 0.0
C293 C 0.50758 0.0159 0.93964 0.0
C294 C 0.48872 0.98485 0.92284 0.0
C295 C 0.48077 0.97796 0.95354 0.0
C296 C 0.47703 0.96997 0.93771 0.0
C297 C 0.50109 0.04178 0.01144 0.0
C298 C 0.50256 0.00981 0.97091 0.0
C299 C 0.44203 0.90569 0.99518 0.0
C300 C 0.42371 0.91091 0.99855 0.0
C301 C 0.47616 0.99411 0.03713 0.0
C302 C 0.53403 0.01558 0.08729 0.0
C303 C 0.5278 0.99979 0.10197 0.0
C304 C 0.53777 1.00657 0.1175 0.0
C305 C 0.55449 0.02952 0.11802 0.0
C306 C 0.55064 0.03839 0.08798 0.0
C307 C 0.56085 0.0453 0.10331 0.0
C308 C 0.52144 0.97575 0.0315 0.0
C309 C 0.523 0.00753 0.07148 0.0
H310 H 0.5198 0.03365 0.94048 0.0
H311 H 0.48567 0.97838 0.91069 0.0
H312 H 0.47186 0.9662 0.96491 0.0
H313 H 0.46518 0.95217 0.93697 0.0
H314 H 0.51525 0.9821 0.1012 0.0
H315 H 0.56232 0.03536 0.12982 0.0
H316 H 0.5557 0.05079 0.07676 0.0
H317 H 0.57364 0.06294 0.10382 0.0
Tb318 Tb 0.02365 0.52595 0.99703 0.0
C319 C 0.93669 0.48271 0.04828 0.0
C320 C 0.9228 0.51035 0.04468 0.0
C321 C 0.89412 0.47051 0.0529 0.0
C322 C 0.94149 0.50476 0.04414 0.0
C323 C 0.91311 0.46537 0.05333 0.0
C324 C 0.89896 0.493 0.04854 0.0
C325 C 0.92943 0.44009 0.06099 0.0
N326 N 0.95561 0.47866 0.04881 0.0
C327 C 0.95251 0.45797 0.05594 0.0
C328 C 0.90956 0.44369 0.05937 0.0
Tb329 Tb 0.99266 0.50851 0.03945 0.0
N330 N 0.9648 0.52093 0.04083 0.0
C331 C 0.97083 0.54336 0.03941 0.0
C332 C 0.92877 0.53323 0.04201 0.0
C333 C 0.95294 0.54981 0.03971 0.0
H334 H 0.96779 0.45505 0.05707 0.0
H335 H 0.95782 0.56759 0.03806 0.0
H336 H 0.8843 0.4969 0.04882 0.0
H337 H 0.92699 0.42356 0.06609 0.0
H338 H 0.98934 0.55649 0.03745 0.0
H339 H 0.05844 0.46711 0.99586 0.0
H340 H 0.91496 0.53826 0.04227 0.0
H341 H 0.04836 0.57981 0.98039 0.0
H342 H 0.02694 0.47808 0.99773 0.0
H343 H 0.08912 0.61151 0.97156 0.0
H344 H 0.8758 0.45738 0.05651 0.0
H345 H 0.10128 0.49651 0.99168 0.0
H346 H 0.13192 0.53795 0.98608 0.0
H347 H 0.89172 0.42987 0.06339 0.0
H348 H 0.1404 0.57759 0.9795 0.0
N349 N 0.05146 0.51363 0.99489 0.0
C350 C 0.04544 0.49124 0.99575 0.0
C351 C 0.08747 0.50149 0.99243 0.0
C352 C 0.09343 0.52437 0.99046 0.0
C353 C 0.06332 0.48487 0.99472 0.0
C354 C 0.07475 0.52989 0.99159 0.0
H355 H 0.12442 0.6052 0.97362 0.0
N356 N 0.06064 0.5561 0.98802 0.0
C357 C 0.08672 0.5949 0.97633 0.0
C358 C 0.07955 0.55203 0.98809 0.0
C359 C 0.06367 0.5769 0.98129 0.0
C360 C 0.10661 0.59129 0.97758 0.0
C361 C 0.1031 0.56949 0.98311 0.0
O362 O 0.01432 0.53835 0.97421 0.0
O363 O 0.99312 0.51988 0.01283 0.0
O364 O 0.97134 0.48061 0.0249 0.0
O365 O 0.99689 0.48931 1.0005 0.0
O366 O 0.00681 0.54764 0.99476 0.0
O367 O 0.01556 0.50704 0.97641 0.0
O368 O 1.00069 0.49613 0.0629 0.0
O369 O 0.02275 0.5141 0.02351 0.0
O370 O 0.04562 0.55311 0.01203 0.0
O371 O 0.01943 0.54505 0.03588 0.0
O372 O 0.01015 0.48726 0.04229 0.0
O373 O 1.00228 0.52873 0.05926 0.0
C374 C 0.9896 0.53576 1.00624 0.0
C375 C 0.02422 0.52835 0.94909 0.0
C376 C 0.02112 0.53061 0.91824 0.0
C377 C 0.01014 0.52388 0.93487 0.0
C378 C 0.04638 0.54187 0.91607 0.0
C379 C 0.04936 0.53925 0.94664 0.0
C380 C 0.06036 0.54604 0.9302 0.0
C381 C 0.97731 0.47549 0.01063 0.0
C382 C 0.01236 0.52185 0.96632 0.0
C383 C 0.12209 0.56437 0.98303 0.0
C384 C 0.11726 0.5418 0.98675 0.0
C385 C 0.02665 0.49855 0.03025 0.0
C386 C 0.99196 0.5089 0.08705 0.0
C387 C 0.0054 0.51204 0.10161 0.0
C388 C 0.99436 0.50876 0.11787 0.0
C389 C 0.96962 0.50185 0.11938 0.0
C390 C 0.96734 0.50207 0.08887 0.0
C391 C 0.95623 0.49844 0.10496 0.0
C392 C 0.0395 0.55844 0.02614 0.0
C393 C 0.004 0.51362 0.07006 0.0
H394 H 0.99068 0.51542 0.93675 0.0
H395 H 0.05531 0.54704 0.90344 0.0
H396 H 0.0605 0.5425 0.95736 0.0
H397 H 0.07979 0.5545 0.92841 0.0
H398 H 0.02451 0.51763 0.10021 0.0
H399 H 0.96061 0.49899 0.13174 0.0
H400 H 0.95676 0.49979 0.07786 0.0
H401 H 0.93722 0.49316 0.10626 0.0
Tb402 Tb 0.50211 0.48967 0.04721 0.0
C403 C 0.46696 0.53756 0.99327 0.0
C404 C 0.42415 0.51205 0.99508 0.0
C405 C 0.43943 0.5525 0.98698 0.0
C406 C 0.44793 0.51602 0.99678 0.0
C407 C 0.4631 0.55602 0.98771 0.0
C408 C 0.41994 0.53051 0.99071 0.0
C409 C 0.50605 0.57911 0.98182 0.0
N410 N 0.48942 0.54004 0.99386 0.0
C411 C 0.50886 0.56018 0.98737 0.0
C412 C 0.48309 0.57714 0.98231 0.0
Tb413 Tb 0.49263 0.50853 1.00396 0.0
N414 N 0.45294 0.49876 1.00057 0.0
C415 C 0.43492 0.47681 1.00132 0.0
C416 C 0.40548 0.48964 0.9971 0.0
C417 C 0.41095 0.47193 0.9999 0.0
H418 H 0.52667 0.56187 0.98703 0.0
H419 H 0.39672 0.45451 1.00104 0.0
H420 H 0.40178 0.52786 0.98954 0.0
H421 H 0.52158 0.5952 0.97719 0.0
H422 H 0.43871 0.46287 1.0036 0.0
H423 H 0.59609 0.54547 0.05575 0.0
H424 H 0.38692 0.48582 0.99595 0.0
H425 H 0.46849 0.43416 0.05816 0.0
H426 H 0.55438 0.53611 0.05033 0.0
H427 H 0.47478 0.40121 0.06661 0.0
H428 H 0.43602 0.56649 0.98296 0.0
H429 H 0.60705 0.51497 0.06125 0.0
H430 H 0.5937 0.47318 0.06582 0.0
H431 H 0.48093 0.59177 0.97791 0.0
H432 H 0.5606 0.43379 0.0688 0.0
N433 N 0.54147 0.50045 0.05247 0.0
C434 C 0.55867 0.5225 0.05284 0.0
C435 C 0.5886 0.5107 0.05895 0.0
C436 C 0.57069 0.4881 0.0595 0.0
C437 C 0.58247 0.52795 0.05589 0.0
C438 C 0.54699 0.48351 0.05636 0.0
H439 H 0.51608 0.40677 0.06937 0.0
N440 N 0.50592 0.45806 0.05563 0.0
C441 C 0.49008 0.41807 0.06412 0.0
C442 C 0.52854 0.46149 0.05798 0.0
C443 C 0.48658 0.43678 0.05938 0.0
C444 C 0.51342 0.42127 0.06563 0.0
C445 C 0.533 0.44324 0.06284 0.0
O446 O 0.47821 0.4762 0.06904 0.0
O447 O 0.47911 0.49627 0.0302 0.0
O448 O 0.49844 0.53575 0.01877 0.0
O449 O 0.51375 0.52641 0.04378 0.0
O450 O 0.46308 0.46803 0.04769 0.0
O451 O 0.51122 0.50763 0.06847 0.0
O452 O 0.51597 0.51871 0.98195 0.0
O453 O 0.51579 0.50296 0.02132 0.0
O454 O 0.50137 0.46587 0.03063 0.0
O455 O 0.47955 0.47151 0.0086 0.0
O456 O 0.53199 0.52965 1.00258 0.0
O457 O 0.48121 0.48927 0.98347 0.0
C458 C 0.45888 0.48026 0.03595 0.0
C459 C 0.49574 0.48515 0.09533 0.0
C460 C 0.49331 0.48676 0.12606 0.0
C461 C 0.49106 0.49431 0.10905 0.0
C462 C 0.50022 0.4698 0.12893 0.0
C463 C 0.50302 0.46864 0.09865 0.0
C464 C 0.5052 0.46102 0.11534 0.0
C465 C 0.50882 0.54041 0.03342 0.0
C466 C 0.49213 0.49234 0.07771 0.0
C467 C 0.55672 0.44759 0.06523 0.0
C468 C 0.57556 0.47001 0.06355 0.0
C469 C 0.53603 0.5187 0.0154 0.0
C470 C 0.49704 0.51006 0.95616 0.0
C471 C 0.50692 0.50549 0.94212 0.0
C472 C 0.50413 0.51302 0.92523 0.0
C473 C 0.49171 0.52559 0.92284 0.0
C474 C 0.48415 0.52196 0.95324 0.0
C475 C 0.48169 0.52982 0.93671 0.0
C476 C 0.48841 0.45941 0.01724 0.0
C477 C 0.50056 0.50279 0.97378 0.0
H478 H 0.4858 0.50733 0.1064 0.0
H479 H 0.50146 0.46297 0.14172 0.0
H480 H 0.50673 0.46137 0.08842 0.0
H481 H 0.51053 0.44804 0.11777 0.0
H482 H 0.51643 0.49586 0.94441 0.0
H483 H 0.48982 0.53239 0.91021 0.0
H484 H 0.47604 0.52528 0.96373 0.0
H485 H 0.47201 0.5393 0.93462 0.0
Tb486 Tb 0.16893 0.33103 0.33776 0.0
C487 C 0.22162 0.40765 0.38152 0.0
C488 C 0.2637 0.41849 0.37742 0.0
C489 C 0.25217 0.44641 0.38361 0.0
C490 C 0.23917 0.40214 0.37788 0.0
C491 C 0.22782 0.42973 0.38475 0.0
C492 C 0.2701 0.44079 0.37994 0.0
C493 C 0.18563 0.41664 0.39121 0.0
N494 N 0.1984 0.39101 0.38259 0.0
C495 C 0.18044 0.39496 0.38799 0.0
C496 C 0.20941 0.43418 0.3894 0.0
Tb497 Tb 0.19142 0.3563 0.37627 0.0
N498 N 0.23215 0.38041 0.37553 0.0
C499 C 0.24903 0.37354 0.37393 0.0
C500 C 0.281 0.4118 0.37482 0.0
C501 C 0.27361 0.38914 0.3733 0.0
H502 H 0.16197 0.38157 0.38928 0.0
H503 H 0.28684 0.38367 0.37157 0.0
H504 H 0.28884 0.45368 0.37945 0.0
H505 H 0.17128 0.4198 0.39507 0.0
H506 H 0.2438 0.35618 0.37261 0.0
H507 H 0.073 0.30138 0.34186 0.0
H508 H 0.30004 0.42385 0.3743 0.0
H509 H 0.19995 0.30691 0.32497 0.0
H510 H 0.11577 0.3297 0.34108 0.0
H511 H 0.19177 0.26908 0.31913 0.0
H512 H 0.25734 0.46354 0.3859 0.0
H513 H 0.06104 0.26147 0.33909 0.0
H514 H 0.07348 0.23249 0.33396 0.0
H515 H 0.2134 0.45093 0.39197 0.0
H516 H 0.10584 0.22368 0.3277 0.0
N517 N 0.12843 0.30619 0.33825 0.0
C518 C 0.11104 0.31245 0.33976 0.0
C519 C 0.07995 0.27388 0.3387 0.0
C520 C 0.09778 0.2678 0.33622 0.0
C521 C 0.08664 0.29639 0.34022 0.0
C522 C 0.12212 0.2846 0.33591 0.0
H523 H 0.15003 0.23729 0.32195 0.0
N524 N 0.16323 0.29667 0.33152 0.0
C525 C 0.17709 0.2718 0.32292 0.0
C526 C 0.14017 0.27966 0.33237 0.0
C527 C 0.18163 0.29327 0.3262 0.0
C528 C 0.15351 0.25389 0.32456 0.0
C529 C 0.13464 0.25777 0.32909 0.0
O530 O 0.18733 0.34247 0.31364 0.0
O531 O 0.19775 0.35752 0.34947 0.0
O532 O 0.18628 0.38084 0.35866 0.0
O533 O 0.15776 0.35655 0.34167 0.0
O534 O 0.20753 0.34387 0.33158 0.0
O535 O 0.15309 0.34124 0.3176 0.0
O536 O 0.1766 0.34895 0.40145 0.0
O537 O 0.16235 0.33052 0.36445 0.0
O538 O 0.17274 0.30602 0.3555 0.0
O539 O 0.20179 0.33013 0.37223 0.0
O540 O 0.15292 0.34316 0.38323 0.0
O541 O 0.20483 0.34145 0.39498 0.0
C542 C 0.21587 0.35925 0.34152 0.0
C543 C 0.16381 0.337 0.29011 0.0
C544 C 0.17149 0.34433 0.25926 0.0
C545 C 0.17571 0.35191 0.2753 0.0
C546 C 0.15506 0.32147 0.25821 0.0
C547 C 0.14727 0.31429 0.28891 0.0
C548 C 0.14292 0.3066 0.27298 0.0
C549 C 0.16938 0.37639 0.34757 0.0
C550 C 0.17042 0.34547 0.30657 0.0
C551 C 0.11048 0.24067 0.33005 0.0
C552 C 0.09207 0.24569 0.33362 0.0
C553 C 0.14434 0.32849 0.37276 0.0
C554 C 0.2024 0.34889 0.42298 0.0
C555 C 0.19457 0.33323 0.43783 0.0
C556 C 0.20558 0.33928 0.45319 0.0
C557 C 0.22468 0.36134 0.45348 0.0
C558 C 0.22131 0.3709 0.42346 0.0
C559 C 0.23239 0.37707 0.43867 0.0
C560 C 0.18952 0.31017 0.36658 0.0
C561 C 0.19098 0.34135 0.40715 0.0
H562 H 0.18878 0.36938 0.27633 0.0
H563 H 0.15141 0.31521 0.24598 0.0
H564 H 0.13797 0.30253 0.30022 0.0
H565 H 0.13021 0.28904 0.27209 0.0
H566 H 0.18015 0.31612 0.43733 0.0
H567 H 0.23342 0.36649 0.46516 0.0
H568 H 0.22761 0.3832 0.41212 0.0
H569 H 0.24703 0.39407 0.43899 0.0
Tb570 Tb 0.68905 0.86155 0.33059 0.0
C571 C 0.60208 0.81443 0.38205 0.0
C572 C 0.58589 0.84036 0.37999 0.0
C573 C 0.55916 0.79989 0.38746 0.0
C574 C 0.6055 0.83617 0.37871 0.0
C575 C 0.57902 0.79605 0.38697 0.0
C576 C 0.56259 0.82203 0.38394 0.0
C577 C 0.5974 0.77206 0.39219 0.0
N578 N 0.62178 0.81156 0.38158 0.0
C579 C 0.61993 0.79089 0.38729 0.0
C580 C 0.57679 0.77458 0.39179 0.0
Tb581 Tb 0.65781 0.84321 0.37284 0.0
N582 N 0.62833 0.85334 0.37522 0.0
C583 C 0.63299 0.87536 0.37419 0.0
C584 C 0.59041 0.86284 0.37782 0.0
C585 C 0.61412 0.88042 0.37519 0.0
H586 H 0.63575 0.78879 0.38757 0.0
H587 H 0.61788 0.8979 0.37387 0.0
H588 H 0.54723 0.82486 0.3848 0.0
H589 H 0.59595 0.75563 0.39626 0.0
H590 H 0.65116 0.88917 0.37205 0.0
H591 H 0.72678 0.80569 0.32559 0.0
H592 H 0.57584 0.86681 0.37863 0.0
H593 H 0.71243 0.91668 0.31794 0.0
H594 H 0.69432 0.81509 0.32913 0.0
H595 H 0.75261 0.94952 0.30973 0.0
H596 H 0.54121 0.78597 0.39102 0.0
H597 H 0.76913 0.83617 0.32124 0.0
H598 H 0.7986 0.87797 0.31667 0.0
H599 H 0.55938 0.75999 0.39566 0.0
H600 H 0.80569 0.91731 0.31228 0.0
N601 N 0.71783 0.85077 0.32707 0.0
C602 C 0.7126 0.8287 0.32711 0.0
C603 C 0.7549 0.84046 0.32272 0.0
C604 C 0.76003 0.86307 0.32169 0.0
C605 C 0.73102 0.82323 0.32512 0.0
C606 C 0.74083 0.86768 0.32376 0.0
H607 H 0.78853 0.94416 0.30926 0.0
N608 N 0.72554 0.89303 0.32256 0.0
C609 C 0.75071 0.93279 0.3131 0.0
C610 C 0.74486 0.88966 0.32144 0.0
C611 C 0.72796 0.91413 0.31772 0.0
C612 C 0.77095 0.9297 0.3129 0.0
C613 C 0.76813 0.90787 0.3168 0.0
O614 O 0.68011 0.87457 0.30792 0.0
O615 O 0.65866 0.85566 0.34645 0.0
O616 O 0.63576 0.81735 0.35699 0.0
O617 O 0.6632 0.8245 0.33427 0.0
O618 O 0.67229 0.88339 0.32857 0.0
O619 O 0.68063 0.84292 0.30976 0.0
O620 O 0.66854 0.8321 0.39554 0.0
O621 O 0.68772 0.84869 0.3568 0.0
O622 O 0.71164 0.88613 0.3472 0.0
O623 O 0.68354 0.88021 0.36895 0.0
O624 O 0.6753 0.82185 0.37546 0.0
O625 O 0.66443 0.86194 0.39351 0.0
C626 C 0.65518 0.87166 0.34012 0.0
C627 C 0.69013 0.86491 0.28264 0.0
C628 C 0.68799 0.86373 0.25188 0.0
C629 C 0.67667 0.85701 0.26845 0.0
C630 C 0.71295 0.87864 0.24983 0.0
C631 C 0.71501 0.87949 0.28022 0.0
C632 C 0.72631 0.88635 0.26391 0.0
C633 C 0.64232 0.81154 0.34332 0.0
C634 C 0.67794 0.85816 0.2998 0.0
C635 C 0.78759 0.90354 0.31561 0.0
C636 C 0.78355 0.88115 0.31809 0.0
C637 C 0.69152 0.83295 0.36324 0.0
C638 C 0.65695 0.84048 0.42077 0.0
C639 C 0.67081 0.84475 0.43514 0.0
C640 C 0.65964 0.83663 0.45178 0.0
C641 C 0.63431 0.82402 0.4536 0.0
C642 C 0.6318 0.82844 0.42304 0.0
C643 C 0.62058 0.82019 0.43936 0.0
C644 C 0.70502 0.89242 0.36058 0.0
C645 C 0.66898 0.84796 0.40354 0.0
H646 H 0.6575 0.84547 0.27036 0.0
H647 H 0.7222 0.88457 0.23729 0.0
H648 H 0.72572 0.88573 0.29086 0.0
H649 H 0.7455 0.89777 0.26217 0.0
H650 H 0.69023 0.85453 0.43327 0.0
H651 H 0.62496 0.81685 0.46604 0.0
H652 H 0.62082 0.82527 0.41225 0.0
H653 H 0.60114 0.81061 0.44097 0.0
Tb654 Tb 0.16602 0.82285 0.38075 0.0
C655 C 0.1317 0.86956 0.32669 0.0
C656 C 0.08914 0.84264 0.32812 0.0
C657 C 0.10268 0.88287 0.32078 0.0
C658 C 0.11322 0.84742 0.32988 0.0
C659 C 0.12668 0.88742 0.32149 0.0
C660 C 0.08393 0.86052 0.32413 0.0
C661 C 0.1694 0.91244 0.31601 0.0
N662 N 0.1547 0.87336 0.3274 0.0
C663 C 0.17346 0.89418 0.3212 0.0
C664 C 0.14593 0.90915 0.31649 0.0
Tb665 Tb 0.15914 0.84257 0.33744 0.0
N666 N 0.11895 0.83051 0.33352 0.0
C667 C 0.10146 0.80839 0.33365 0.0
C668 C 0.07107 0.82001 0.32973 0.0
C669 C 0.07734 0.80285 0.33211 0.0
H670 H 0.1917 0.89705 0.32111 0.0
H671 H 0.06358 0.78528 0.33282 0.0
H672 H 0.06552 0.85716 0.32297 0.0
H673 H 0.18438 0.92905 0.31173 0.0
H674 H 0.10543 0.7946 0.33545 0.0
H675 H 0.25899 0.87923 0.39148 0.0
H676 H 0.05237 0.81563 0.32851 0.0
H677 H 0.13303 0.76707 0.39025 0.0
H678 H 0.21727 0.86939 0.38548 0.0
H679 H 0.13986 0.73431 0.39821 0.0
H680 H 0.09846 0.89642 0.31707 0.0
H681 H 0.27063 0.84915 0.39655 0.0
H682 H 0.25804 0.8075 0.40025 0.0
H683 H 0.14282 0.92332 0.31241 0.0
H684 H 0.22554 0.76794 0.40211 0.0
N685 N 0.20519 0.83397 0.38676 0.0
C686 C 0.22192 0.856 0.38777 0.0
C687 C 0.25221 0.84469 0.39396 0.0
C688 C 0.2347 0.82205 0.39391 0.0
C689 C 0.24569 0.8617 0.39115 0.0
C690 C 0.21104 0.81721 0.39039 0.0
H691 H 0.18127 0.74044 0.40161 0.0
N692 N 0.17029 0.79139 0.38865 0.0
C693 C 0.15496 0.75132 0.39622 0.0
C694 C 0.19292 0.79509 0.39135 0.0
C695 C 0.15115 0.7699 0.39178 0.0
C696 C 0.17838 0.75485 0.39809 0.0
C697 C 0.19769 0.77698 0.39595 0.0
O698 O 0.14185 0.80759 0.4024 0.0
O699 O 0.14373 0.82987 0.36324 0.0
O700 O 0.16698 0.8708 0.3518 0.0
O701 O 0.17617 0.85911 0.37869 0.0
O702 O 0.12703 0.8013 0.38025 0.0
O703 O 0.17354 0.84001 0.40237 0.0
O704 O 0.17858 0.83277 0.3218 0.0
O705 O 0.18201 0.83783 0.35542 0.0
O706 O 0.16645 0.80002 0.36361 0.0
O707 O 0.14435 0.80545 0.34177 0.0
O708 O 0.19763 0.86648 0.3382 0.0
O709 O 0.15624 0.84553 0.31075 0.0
C710 C 0.12329 0.8139 0.36854 0.0
C711 C 0.15879 0.8167 0.42892 0.0
C712 C 0.15766 0.81898 0.45958 0.0
C713 C 0.15414 0.82576 0.44272 0.0
C714 C 0.16568 0.80282 0.46233 0.0
C715 C 0.16695 0.8008 0.43209 0.0
C716 C 0.17032 0.79391 0.44868 0.0
C717 C 0.17405 0.87418 0.36748 0.0
C718 C 0.15481 0.82375 0.41138 0.0
C719 C 0.22142 0.78161 0.39874 0.0
C720 C 0.23991 0.80413 0.39769 0.0
C721 C 0.20194 0.85498 0.35057 0.0
C722 C 0.19069 0.85283 0.29395 0.0
C723 C 0.19031 0.84477 0.27822 0.0
C724 C 0.20809 0.8584 0.26498 0.0
C725 C 0.22627 0.87996 0.2678 0.0
C726 C 0.20927 0.87432 0.29637 0.0
C727 C 0.22687 0.88776 0.2834 0.0
C728 C 0.15338 0.79345 0.35029 0.0
C729 C 0.17169 0.83884 0.30766 0.0
H730 H 0.14808 0.83824 0.44027 0.0
H731 H 0.16811 0.79682 0.47508 0.0
H732 H 0.17056 0.79354 0.4218 0.0
H733 H 0.17646 0.7815 0.45099 0.0
H734 H 0.17611 0.82815 0.27622 0.0
H735 H 0.24033 0.89068 0.258 0.0
H736 H 0.21035 0.88085 0.30827 0.0
H737 H 0.2411 0.90432 0.28545 0.0
Tb738 Tb 0.83646 0.66391 0.66961 0.0
C739 C 0.8869 0.741 0.71323 0.0
C740 C 0.92913 0.75227 0.70946 0.0
C741 C 0.91701 0.77995 0.71521 0.0
C742 C 0.90469 0.73571 0.70982 0.0
C743 C 0.89276 0.76302 0.71637 0.0
C744 C 0.93519 0.77458 0.71174 0.0
C745 C 0.85048 0.74936 0.72297 0.0
N746 N 0.86381 0.72411 0.71437 0.0
C747 C 0.84563 0.72776 0.71978 0.0
C748 C 0.87413 0.76716 0.72105 0.0
Tb749 Tb 0.85738 0.6895 0.70819 0.0
N750 N 0.898 0.71395 0.70782 0.0
C751 C 0.91508 0.70722 0.7068 0.0
C752 C 0.94667 0.74574 0.70734 0.0
C753 C 0.93959 0.72302 0.7063 0.0
H754 H 0.82726 0.71419 0.72116 0.0
H755 H 0.953 0.71767 0.70501 0.0
H756 H 0.95386 0.78762 0.7113 0.0
H757 H 0.83597 0.75227 0.72686 0.0
H758 H 0.91006 0.68982 0.70583 0.0
H759 H 0.7406 0.63463 0.67185 0.0
H760 H 0.96565 0.75795 0.70692 0.0
H761 H 0.86777 0.63944 0.65816 0.0
H762 H 0.78335 0.66289 0.67152 0.0
H763 H 0.85975 0.6014 0.65296 0.0
H764 H 0.92191 0.79706 0.7174 0.0
H765 H 0.72868 0.59458 0.66967 0.0
H766 H 0.74121 0.56536 0.66552 0.0
H767 H 0.87785 0.78385 0.72357 0.0
H768 H 0.77367 0.5563 0.6603 0.0
N769 N 0.79601 0.63918 0.66955 0.0
C770 C 0.77864 0.64557 0.67047 0.0
C771 C 0.74758 0.60695 0.66949 0.0
C772 C 0.76543 0.60074 0.6676 0.0
C773 C 0.75424 0.62954 0.67068 0.0
C774 C 0.78975 0.6175 0.66753 0.0
H775 H 0.81797 0.5697 0.6554 0.0
N776 N 0.83092 0.62938 0.66395 0.0
C777 C 0.84498 0.60425 0.65629 0.0
C778 C 0.80786 0.61241 0.66459 0.0
C779 C 0.84945 0.62583 0.6592 0.0
C780 C 0.82138 0.58638 0.65771 0.0
C781 C 0.80241 0.59042 0.66166 0.0
O782 O 0.85549 0.67458 0.64573 0.0
O783 O 0.86464 0.69052 0.68157 0.0
O784 O 0.85233 0.7139 0.69032 0.0
O785 O 0.82526 0.68964 0.67256 0.0
O786 O 0.87527 0.67679 0.66426 0.0
O787 O 0.82155 0.67425 0.6489 0.0
O788 O 0.84132 0.68147 0.73303 0.0
O789 O 0.82886 0.66358 0.69609 0.0
O790 O 0.83961 0.63905 0.68792 0.0
O791 O 0.86807 0.66332 0.70487 0.0
O792 O 0.81873 0.67648 0.7143 0.0
O793 O 0.87082 0.67535 0.72744 0.0
C794 C 0.88309 0.69226 0.67413 0.0
C795 C 0.83271 0.66943 0.62178 0.0
C796 C 0.83996 0.67698 0.5909 0.0
C797 C 0.84405 0.68453 0.60696 0.0
C798 C 0.82426 0.65394 0.58986 0.0
C799 C 0.81689 0.64653 0.6206 0.0
C800 C 0.81269 0.63886 0.60466 0.0
C801 C 0.83619 0.70941 0.67863 0.0
C802 C 0.83906 0.67798 0.63822 0.0
C803 C 0.77825 0.57337 0.66238 0.0
C804 C 0.75978 0.57853 0.66535 0.0
C805 C 0.81057 0.66171 0.70389 0.0
C806 C 0.8665 0.68244 0.75523 0.0
C807 C 0.86 0.66646 0.76982 0.0
C808 C 0.86945 0.67304 0.78553 0.0
C809 C 0.88589 0.696 0.78632 0.0
C810 C 0.88283 0.70526 0.7562 0.0
C811 C 0.8925 0.71197 0.77171 0.0
C812 C 0.85602 0.64328 0.6993 0.0
C813 C 0.85608 0.67461 0.73922 0.0
H814 H 0.85656 0.70215 0.60798 0.0
H815 H 0.82072 0.6477 0.57762 0.0
H816 H 0.808 0.63463 0.63193 0.0
H817 H 0.80053 0.62116 0.60378 0.0
H818 H 0.84768 0.64878 0.76885 0.0
H819 H 0.89331 0.70167 0.79825 0.0
H820 H 0.88809 0.71781 0.74505 0.0
H821 H 0.90507 0.72961 0.77244 0.0
Tb822 Tb 0.35707 0.1936 0.66439 0.0
C823 C 0.26927 0.15354 0.7155 0.0
C824 C 0.25533 0.18108 0.7108 0.0
C825 C 0.22678 0.14154 0.72032 0.0
C826 C 0.27402 0.17545 0.71061 0.0
C827 C 0.24576 0.1364 0.72099 0.0
C828 C 0.23155 0.16388 0.71518 0.0
C829 C 0.26214 0.11132 0.72927 0.0
N830 N 0.28817 0.14946 0.71614 0.0
C831 C 0.28514 0.129 0.72374 0.0
C832 C 0.24228 0.11491 0.72761 0.0
Tb833 Tb 0.32512 0.17894 0.70613 0.0
N834 N 0.29726 0.19148 0.70672 0.0
C835 C 0.30325 0.21393 0.70431 0.0
C836 C 0.26123 0.20388 0.70714 0.0
C837 C 0.28535 0.22041 0.70419 0.0
H838 H 0.3004 0.12606 0.72496 0.0
H839 H 0.2902 0.23816 0.70175 0.0
H840 H 0.21689 0.1678 0.71519 0.0
H841 H 0.25976 0.09495 0.73479 0.0
H842 H 0.32172 0.22702 0.70189 0.0
H843 H 0.39095 0.13382 0.66652 0.0
H844 H 0.24742 0.20894 0.70707 0.0
H845 H 0.38282 0.24788 0.64836 0.0
H846 H 0.3597 0.14533 0.66722 0.0
H847 H 0.42387 0.27907 0.63969 0.0
H848 H 0.2085 0.12856 0.72427 0.0
H849 H 0.43389 0.16286 0.66187 0.0
H850 H 0.46485 0.20409 0.65522 0.0
H851 H 0.2245 0.10125 0.73198 0.0
H852 H 0.47388 0.2438 0.64784 0.0
N853 N 0.38453 0.18078 0.66332 0.0
C854 C 0.37827 0.15829 0.66504 0.0
C855 C 0.42021 0.16806 0.66212 0.0
C856 C 0.4264 0.191 0.65932 0.0
C857 C 0.39599 0.15163 0.66469 0.0
C858 C 0.40788 0.19682 0.65986 0.0
H859 H 0.45861 0.27191 0.64166 0.0
N860 N 0.39433 0.22348 0.65564 0.0
C861 C 0.42108 0.26228 0.64433 0.0
C862 C 0.41299 0.21903 0.65588 0.0
C863 C 0.39785 0.24457 0.6492 0.0
C864 C 0.44066 0.25819 0.6455 0.0
C865 C 0.4367 0.23624 0.65104 0.0
O866 O 0.34883 0.20546 0.64089 0.0
O867 O 0.32643 0.18922 0.67919 0.0
O868 O 0.30313 0.15072 0.692 0.0
O869 O 0.32963 0.15718 0.66867 0.0
O870 O 0.34151 0.2163 0.66052 0.0
O871 O 0.34934 0.17373 0.64437 0.0
O872 O 0.33411 0.16829 0.72986 0.0
O873 O 0.35514 0.18263 0.69111 0.0
O874 O 0.37976 0.21988 0.67977 0.0
O875 O 0.35173 0.21558 0.70099 0.0
O876 O 0.34124 0.15661 0.71046 0.0
O877 O 0.33444 0.20029 0.72523 0.0
C878 C 0.32386 0.20533 0.6718 0.0
C879 C 0.35891 0.19405 0.6166 0.0
C880 C 0.35646 0.1958 0.58571 0.0
C881 C 0.34516 0.18964 0.60221 0.0
C882 C 0.38172 0.20637 0.58384 0.0
C883 C 0.38404 0.2043 0.61446 0.0
C884 C 0.39536 0.21047 0.59814 0.0
C885 C 0.30935 0.14445 0.6784 0.0
C886 C 0.34673 0.1884 0.63365 0.0
C887 C 0.45546 0.23079 0.65131 0.0
C888 C 0.45032 0.20818 0.65549 0.0
C889 C 0.35812 0.16683 0.69856 0.0
C890 C 0.32485 0.18153 0.75344 0.0
C891 C 0.33802 0.18346 0.76804 0.0
C892 C 0.32697 0.17975 0.78439 0.0
C893 C 0.30244 0.1737 0.78586 0.0
C894 C 0.30047 0.17561 0.75524 0.0
C895 C 0.28933 0.17162 0.77138 0.0
C896 C 0.3732 0.22716 0.69255 0.0
C897 C 0.33684 0.18596 0.73646 0.0
H898 H 0.32571 0.18174 0.60385 0.0
H899 H 0.39089 0.2111 0.57131 0.0
H900 H 0.39492 0.20759 0.62532 0.0
H901 H 0.41479 0.21843 0.59658 0.0
H902 H 0.35695 0.18832 0.76663 0.0
H903 H 0.29332 0.17044 0.79825 0.0
H904 H 0.29009 0.17421 0.74419 0.0
H905 H 0.27048 0.16699 0.77267 0.0
Tb906 Tb 0.83871 0.15838 0.71325 0.0
C907 C 0.80032 0.20384 0.65973 0.0
C908 C 0.75775 0.17722 0.66183 0.0
C909 C 0.77163 0.21736 0.65334 0.0
C910 C 0.78182 0.18199 0.66339 0.0
C911 C 0.79559 0.22172 0.65405 0.0
C912 C 0.7527 0.19512 0.65727 0.0
C913 C 0.83836 0.24599 0.64803 0.0
N914 N 0.82311 0.20716 0.66031 0.0
C915 C 0.84205 0.2276 0.65367 0.0
C916 C 0.81505 0.24316 0.64853 0.0
Tb917 Tb 0.82768 0.17638 0.67023 0.0
N918 N 0.78758 0.16525 0.66745 0.0
C919 C 0.77003 0.14304 0.66877 0.0
C920 C 0.7396 0.15458 0.66432 0.0
C921 C 0.74583 0.1374 0.66752 0.0
H922 H 0.86012 0.22989 0.65329 0.0
H923 H 0.73199 0.1198 0.66908 0.0
H924 H 0.73431 0.19184 0.65619 0.0
H925 H 0.85349 0.26232 0.64331 0.0
H926 H 0.77439 0.12949 0.67134 0.0
H927 H 0.93422 0.21535 0.71493 0.0
H928 H 0.72086 0.15017 0.6633 0.0
H929 H 0.80648 0.10462 0.72974 0.0
H930 H 0.89178 0.20543 0.71257 0.0
H931 H 0.8134 0.07232 0.73954 0.0
H932 H 0.76756 0.23092 0.64922 0.0
H933 H 0.94563 0.18514 0.72034 0.0
H934 H 0.93247 0.14348 0.727 0.0
H935 H 0.81221 0.25737 0.64404 0.0
H936 H 0.8994 0.10427 0.73371 0.0
N937 N 0.87883 0.1697 0.71613 0.0
C938 C 0.89625 0.19195 0.71502 0.0
C939 C 0.92687 0.18063 0.71931 0.0
C940 C 0.90885 0.15794 0.72158 0.0
C941 C 0.92048 0.19771 0.71632 0.0
C942 C 0.88473 0.15304 0.72003 0.0
H943 H 0.8548 0.07757 0.73881 0.0
N944 N 0.84349 0.12766 0.72297 0.0
C945 C 0.82846 0.08875 0.73494 0.0
C946 C 0.86634 0.13113 0.72356 0.0
C947 C 0.82461 0.10708 0.72942 0.0
C948 C 0.85184 0.09175 0.73444 0.0
C949 C 0.87122 0.11329 0.72906 0.0
O950 O 0.81613 0.14682 0.73578 0.0
O951 O 0.81512 0.16471 0.69668 0.0
O952 O 0.83382 0.20381 0.68485 0.0
O953 O 0.85033 0.19508 0.70937 0.0
O954 O 0.79967 0.13694 0.71474 0.0
O955 O 0.84985 0.17763 0.73374 0.0
O956 O 0.85049 0.18762 0.64783 0.0
O957 O 0.85112 0.17007 0.68689 0.0
O958 O 0.83307 0.13125 0.69834 0.0
O959 O 0.81589 0.13971 0.67413 0.0
O960 O 0.86688 0.19748 0.66864 0.0
O961 O 0.81629 0.1574 0.6496 0.0
C962 C 0.79508 0.14883 0.70294 0.0
C963 C 0.83561 0.15701 0.76126 0.0
C964 C 0.83205 0.15763 0.79205 0.0
C965 C 0.82817 0.16397 0.77514 0.0
C966 C 0.84313 0.1439 0.79468 0.0
C967 C 0.84714 0.14388 0.76433 0.0
C968 C 0.85072 0.13726 0.78093 0.0
C969 C 0.84488 0.20883 0.69919 0.0
C970 C 0.83107 0.16335 0.74369 0.0
C971 C 0.89522 0.11778 0.72973 0.0
C972 C 0.91404 0.1401 0.72595 0.0
C973 C 0.87127 0.18568 0.68064 0.0
C974 C 0.83115 0.17838 0.62223 0.0
C975 C 0.84112 0.17409 0.60809 0.0
C976 C 0.83756 0.1811 0.59127 0.0
C977 C 0.8243 0.19287 0.58902 0.0
C978 C 0.81746 0.18952 0.61948 0.0
C979 C 0.81424 0.19686 0.60299 0.0
C980 C 0.82192 0.12619 0.68402 0.0
C981 C 0.8353 0.17145 0.63976 0.0
H982 H 0.8197 0.17453 0.77272 0.0
H983 H 0.84582 0.13806 0.80741 0.0
H984 H 0.85333 0.13865 0.75395 0.0
H985 H 0.85937 0.12686 0.78317 0.0
H986 H 0.85127 0.16505 0.61024 0.0
H987 H 0.82176 0.19921 0.57641 0.0
H988 H 0.80927 0.19259 0.63004 0.0
H989 H 0.80391 0.20574 0.60103 0.0
C990 C 0.27339 0.83215 0.07093 0.0
C991 C 0.26973 0.81844 0.08658 0.0
C992 C 0.29578 0.85112 0.06595 0.0
C993 C 0.3515 0.89393 0.0811 0.0
H994 H 0.37986 0.89823 0.03648 0.0
C995 C 0.43313 0.97588 0.04763 0.0
C996 C 0.45238 0.97353 0.04134 0.0
C997 C 0.41109 0.9568 0.0533 0.0
C998 C 0.37219 0.89722 0.04897 0.0
H999 H 0.28644 0.81453 0.10965 0.0
H1000 H 0.32551 0.84849 0.10128 0.0
H1001 H 0.34069 0.86562 0.04653 0.0
H1002 H 0.46388 0.94911 0.03695 0.0
H1003 H 0.42494 0.91571 0.046 0.0
H1004 H 0.38272 0.92584 0.08334 0.0
C1005 C 0.31103 0.8442 0.09274 0.0
C1006 C 0.34974 0.87864 0.0547 0.0
C1007 C 0.28866 0.82488 0.0976 0.0
C1008 C 0.44918 0.95156 0.04105 0.0
C1009 C 0.42693 0.93242 0.04641 0.0
C1010 C 0.37372 0.91275 0.07522 0.0
C1011 C 0.31499 0.85721 0.07667 0.0
C1012 C 0.33912 0.87678 0.07082 0.0
C1013 C 0.40771 0.93484 0.05276 0.0
C1014 C 0.38431 0.91461 0.05909 0.0
H1015 H 0.25897 0.82784 0.06236 0.0
H1016 H 0.29811 0.86101 0.05364 0.0
H1017 H 0.34376 0.89301 0.09353 0.0
H1018 H 0.43522 0.99258 0.04832 0.0
H1019 H 0.39661 0.95921 0.05808 0.0
C1020 C 0.21105 0.50335 0.07803 0.0
C1021 C 0.2259 0.5239 0.08415 0.0
C1022 C 0.19127 0.50075 0.06899 0.0
C1023 C 0.16328 0.53001 0.04458 0.0
H1024 H 0.10352 0.47877 0.06463 0.0
C1025 C 0.07076 0.52259 0.03226 0.0
C1026 C 0.05077 0.50103 0.03228 0.0
C1027 C 0.09327 0.52488 0.03577 0.0
C1028 C 0.12002 0.49284 0.05856 0.0
H1029 H 0.23294 0.55817 0.0852 0.0
H1030 H 0.19797 0.55378 0.06908 0.0
H1031 H 0.14148 0.48442 0.07562 0.0
H1032 H 0.03826 0.46494 0.03624 0.0
H1033 H 0.07788 0.46882 0.04192 0.0
H1034 H 0.14179 0.5384 0.02743 0.0
C1035 C 0.20171 0.53972 0.0713 0.0
C1036 C 0.14176 0.49614 0.06496 0.0
C1037 C 0.22149 0.54224 0.08052 0.0
C1038 C 0.05357 0.48174 0.03596 0.0
C1039 C 0.07618 0.48401 0.03928 0.0
C1040 C 0.14149 0.52653 0.03798 0.0
C1041 C 0.18615 0.51875 0.06583 0.0
C1042 C 0.16351 0.5149 0.05819 0.0
C1043 C 0.09622 0.50562 0.03952 0.0
C1044 C 0.11958 0.50809 0.04511 0.0
H1045 H 0.21448 0.48915 0.08075 0.0
H1046 H 0.17965 0.4845 0.06478 0.0
H1047 H 0.17991 0.54448 0.03908 0.0
H1048 H 0.06896 0.5377 0.03007 0.0
H1049 H 0.1081 0.54175 0.03625 0.0
C1050 C 0.55758 0.7304 0.06498 0.0
C1051 C 0.54787 0.73073 0.08077 0.0
C1052 C 0.55283 0.70979 0.05963 0.0
C1053 C 0.53736 0.65147 0.07626 0.0
H1054 H 0.5179 0.63818 0.03072 0.0
C1055 C 0.50897 0.56332 0.05594 0.0
C1056 C 0.51438 0.56232 0.03899 0.0
C1057 C 0.51295 0.58383 0.06106 0.0
C1058 C 0.5237 0.6417 0.0434 0.0
H1059 H 0.52557 0.71022 0.10332 0.0
H1060 H 0.5175 0.67398 0.09418 0.0
H1061 H 0.52496 0.67409 0.03935 0.0
H1062 H 0.52954 0.58211 0.01441 0.0
H1063 H 0.53702 0.61797 0.02326 0.0
H1064 H 0.53681 0.61949 0.08026 0.0
C1065 C 0.52873 0.68959 0.0859 0.0
C1066 C 0.52762 0.66228 0.04835 0.0
C1067 C 0.5332 0.7102 0.0911 0.0
C1068 C 0.52449 0.58228 0.02739 0.0
C1069 C 0.52878 0.60285 0.03252 0.0
C1070 C 0.53376 0.63102 0.07125 0.0
C1071 C 0.53859 0.68917 0.07014 0.0
C1072 C 0.53441 0.66734 0.06485 0.0
C1073 C 0.52283 0.60391 0.0494 0.0
C1074 C 0.52682 0.6258 0.05475 0.0
H1075 H 0.56911 0.74615 0.05694 0.0
H1076 H 0.56082 0.70999 0.04749 0.0
H1077 H 0.5429 0.65505 0.08899 0.0
H1078 H 0.50101 0.54809 0.06513 0.0
H1079 H 0.50779 0.5838 0.07409 0.0
C1080 C 0.8288 0.28448 0.97992 0.0
C1081 C 0.81957 0.28389 0.96376 0.0
C1082 C 0.84546 0.30514 0.98517 0.0
C1083 C 0.87219 0.36831 0.97393 0.0
H1084 H 0.92149 0.3693 1.00336 0.0
C1085 C 0.95524 0.4518 0.9879 0.0
C1086 C 0.96037 0.45336 1.00512 0.0
C1087 C 0.93813 0.43119 0.9828 0.0
C1088 C 0.90775 0.36929 0.99522 0.0
H1089 H 0.82066 0.30428 0.94034 0.0
H1090 H 0.85038 0.34027 0.94906 0.0
H1091 H 0.89157 0.33354 0.99463 0.0
H1092 H 0.95248 0.43428 0.03031 0.0
H1093 H 0.9228 0.39832 0.02148 0.0
H1094 H 0.889 0.40429 0.97421 0.0
C1095 C 0.84431 0.32499 0.95803 0.0
C1096 C 0.89041 0.3487 0.99026 0.0
C1097 C 0.8274 0.30435 0.95291 0.0
C1098 C 0.94854 0.43375 0.01704 0.0
C1099 C 0.93173 0.41308 0.01193 0.0
C1100 C 0.88975 0.38893 0.97869 0.0
C1101 C 0.85371 0.32576 0.97424 0.0
C1102 C 0.87225 0.34782 0.97958 0.0
C1103 C 0.92612 0.41158 0.99477 0.0
C1104 C 0.9077 0.38967 0.98945 0.0
H1105 H 0.82334 0.26887 0.98839 0.0
H1106 H 0.85183 0.30487 0.99784 0.0
H1107 H 0.85835 0.36846 0.96599 0.0
H1108 H 0.96404 0.46665 0.97841 0.0
H1109 H 0.93439 0.43057 0.96947 0.0
C1110 C 0.68976 0.48207 0.96882 0.0
C1111 C 0.71233 0.50066 0.96367 0.0
C1112 C 0.67334 0.48475 0.97876 0.0
C1113 C 0.65806 0.5284 0.98591 0.0
H1114 H 0.61557 0.48443 0.023 0.0
C1115 C 0.58062 0.53748 0.01359 0.0
C1116 C 0.55848 0.51746 0.01556 0.0
C1117 C 0.60201 0.53663 0.01158 0.0
C1118 C 0.62733 0.49685 0.01266 0.0
H1119 H 0.73636 0.53608 0.96519 0.0
H1120 H 0.70769 0.54097 0.98253 0.0
H1121 H 0.64821 0.47988 0.01091 0.0
H1122 H 0.5412 0.481 0.01614 0.0
H1123 H 0.57811 0.47938 0.01252 0.0
H1124 H 0.63667 0.54474 0.98688 0.0
C1125 C 0.70246 0.52443 0.97884 0.0
C1126 C 0.64595 0.49423 1.00577 0.0
C1127 C 0.71878 0.5217 0.96899 0.0
C1128 C 0.55799 0.49659 0.01545 0.0
C1129 C 0.57927 0.4957 0.01334 0.0
C1130 C 0.63937 0.5309 0.99266 0.0
C1131 C 0.67943 0.50609 0.98356 0.0
C1132 C 0.66119 0.50978 0.99213 0.0
C1133 C 0.6015 0.51574 0.01101 0.0
C1134 C 0.62346 0.5149 1.00586 0.0
H1135 H 0.68474 0.46574 0.96482 0.0
H1136 H 0.6556 0.47039 0.9821 0.0
H1137 H 0.66935 0.54048 0.97525 0.0
H1138 H 0.58131 0.55379 0.01339 0.0
H1139 H 0.61887 0.55236 0.00997 0.0
C1140 C 0.43942 0.18573 0.9679 0.0
C1141 C 0.45434 0.20248 0.95474 0.0
C1142 C 0.44275 0.16702 0.97303 0.0
C1143 C 0.46977 0.133 0.96049 0.0
H1144 H 0.47529 0.12187 0.00909 0.0
C1145 C 0.47712 0.05524 0.99285 0.0
C1146 C 0.49495 0.05967 1.00467 0.0
C1147 C 0.47159 0.07215 0.98621 0.0
C1148 C 0.47385 0.1248 0.99549 0.0
H1149 H 0.48303 0.21217 0.93565 0.0
H1150 H 0.48871 0.17908 0.94432 0.0
H1151 H 0.46565 0.15155 0.99791 0.0
H1152 H 0.52137 0.08575 0.01834 0.0
H1153 H 0.51113 0.11495 0.00719 0.0
H1154 H 0.478 0.10618 0.95812 0.0
C1155 C 0.47465 0.18055 0.95087 0.0
C1156 C 0.4681 0.14164 0.9891 0.0
C1157 C 0.47145 0.19942 0.94589 0.0
C1158 C 0.50715 0.0815 0.00961 0.0
C1159 C 0.50136 0.0983 1.00315 0.0
C1160 C 0.47519 0.1159 0.96692 0.0
C1161 C 0.46081 0.16451 0.96484 0.0
C1162 C 0.4661 0.14601 0.97153 0.0
C1163 C 0.48355 0.09383 0.99135 0.0
C1164 C 0.47743 0.11172 0.98449 0.0
H1165 H 0.42583 0.18767 0.97465 0.0
H1166 H 0.43151 0.15473 0.98361 0.0
H1167 H 0.46829 0.13594 0.94691 0.0
H1168 H 0.46739 0.03869 0.98865 0.0
H1169 H 0.45767 0.06816 0.97722 0.0
C1170 C 0.74857 0.1868 0.96033 0.0
C1171 C 0.74944 0.20804 0.95834 0.0
C1172 C 0.72676 0.16685 0.96503 0.0
C1173 C 0.66704 0.14637 0.98687 0.0
H1174 H 0.64884 0.09205 0.96589 0.0
C1175 C 0.57267 0.06717 1.00078 0.0
C1176 C 0.57099 0.04566 1.00153 0.0
C1177 C 0.59449 0.08687 0.99563 0.0
C1178 C 0.65374 0.10693 0.9721 0.0
H1179 H 0.72804 0.22498 0.9588 0.0
H1180 H 0.69001 0.1903 0.96728 0.0
H1181 H 0.68658 0.12629 0.95644 0.0
H1182 H 0.59053 0.02785 0.99687 0.0
H1183 H 0.62875 0.0621 0.98827 0.0
H1184 H 0.63449 0.12701 1.00276 0.0
C1185 C 0.7062 0.189 0.96548 0.0
C1186 C 0.67541 0.12663 0.96661 0.0
C1187 C 0.72795 0.20888 0.96062 0.0
C1188 C 0.59142 0.04424 0.99661 0.0
C1189 C 0.61327 0.06391 0.99155 0.0
C1190 C 0.64547 0.12662 0.99248 0.0
C1191 C 0.70535 0.16773 0.96796 0.0
C1192 C 0.68231 0.14665 0.97386 0.0
C1193 C 0.61516 0.08556 0.99092 0.0
C1194 C 0.63842 0.1066 0.98513 0.0
H1195 H 0.76492 0.18572 0.9588 0.0
H1196 H 0.72682 0.1508 0.9669 0.0
H1197 H 0.67195 0.16138 0.99293 0.0
H1198 H 0.55708 0.06883 1.00395 0.0
H1199 H 0.59497 0.10311 0.99501 0.0
C1200 C 0.80711 0.52938 0.9507 0.0
C1201 C 0.7891 0.50734 0.94906 0.0
C1202 C 0.82944 0.53317 0.95627 0.0
C1203 C 0.86817 0.5063 0.96385 0.0
H1204 H 0.89529 0.54861 0.99693 0.0
C1205 C 0.94575 0.51117 1.00324 0.0
C1206 C 0.96554 0.53293 1.00296 0.0
C1207 C 0.92386 0.50844 0.99754 0.0
C1208 C 0.88796 0.53686 0.98764 0.0
H1209 H 0.77996 0.47208 0.95148 0.0
H1210 H 0.8189 0.47841 0.96163 0.0
H1211 H 0.85833 0.54329 0.98392 0.0
H1212 H 0.97807 0.5689 0.99673 0.0
H1213 H 0.9395 0.56416 0.9868 0.0
H1214 H 0.89761 0.49959 0.96786 0.0
C1215 C 0.81611 0.4929 0.95828 0.0
C1216 C 0.86691 0.53389 0.98009 0.0
C1217 C 0.79385 0.4892 0.95255 0.0
C1218 C 0.96292 0.55197 0.99725 0.0
C1219 C 0.94092 0.54926 0.99163 0.0
C1220 C 0.88907 0.50913 0.9715 0.0
C1221 C 0.83399 0.51489 0.96054 0.0
C1222 C 0.85677 0.51857 0.96812 0.0
C1223 C 0.92141 0.52743 0.99132 0.0
C1224 C 0.8991 0.52438 0.98348 0.0
H1225 H 0.80351 0.5435 0.94837 0.0
H1226 H 0.84295 0.55034 0.9576 0.0
H1227 H 0.86106 0.49464 0.95449 0.0
H1228 H 0.94732 0.49618 0.00725 0.0
H1229 H 0.909 0.49144 0.99759 0.0
C1230 C 0.48023 0.29049 0.9689 0.0
C1231 C 0.45892 0.27639 0.96154 0.0
C1232 C 0.48264 0.30956 0.97569 0.0
C1233 C 0.46139 0.35107 0.9715 0.0
H1234 H 0.48364 0.36278 0.01673 0.0
C1235 C 0.46511 0.42654 1.00107 0.0
C1236 C 0.48395 0.43777 0.01157 0.0
C1237 C 0.46123 0.40626 0.99555 0.0
C1238 C 0.47777 0.36003 1.00396 0.0
H1239 H 0.42326 0.27071 0.95582 0.0
H1240 H 0.42769 0.30454 0.96718 0.0
H1241 H 0.47904 0.32879 1.00592 0.0
H1242 H 0.51372 0.43666 0.02432 0.0
H1243 H 0.50757 0.40193 0.01427 0.0
H1244 H 0.46091 0.38256 0.96914 0.0
C1245 C 0.44251 0.30084 0.96771 0.0
C1246 C 0.47502 0.34045 0.99783 0.0
C1247 C 0.43998 0.28157 0.96121 0.0
C1248 C 0.49885 0.42831 0.0164 0.0
C1249 C 0.49521 0.40824 0.01069 0.0
C1250 C 0.46452 0.37084 0.9775 0.0
C1251 C 0.46389 0.31505 0.97499 0.0
C1252 C 0.46676 0.33576 0.98156 0.0
C1253 C 0.47634 0.39689 1.00016 0.0
C1254 C 0.47273 0.37562 0.99384 0.0
H1255 H 0.49515 0.28694 0.96911 0.0
H1256 H 0.49938 0.32034 0.98111 0.0
H1257 H 0.45525 0.34799 0.95882 0.0
H1258 H 0.4532 0.43331 0.99722 0.0
H1259 H 0.44621 0.39787 0.98776 0.0
C1260 C 0.19072 0.72176 0.09034 0.0
C1261 C 0.1993 0.74311 0.08055 0.0
C1262 C 0.17352 0.70208 0.08421 0.0
C1263 C 0.14837 0.6777 0.04515 0.0
H1264 H 0.09231 0.63564 0.07482 0.0
C1265 C 0.06931 0.60003 0.02078 0.0
C1266 C 0.05689 0.58 0.03217 0.0
C1267 C 0.08638 0.62014 0.0265 0.0
C1268 C 0.10799 0.64692 0.0664 0.0
H1269 H 0.1969 0.76053 0.05653 0.0
H1270 H 0.16735 0.726 0.0455 0.0
H1271 H 0.12314 0.66984 0.08497 0.0
H1272 H 0.05258 0.56524 0.05854 0.0
H1273 H 0.08279 0.59991 0.06852 0.0
H1274 H 0.13377 0.65461 0.02674 0.0
C1275 C 0.17384 0.72453 0.05799 0.0
C1276 C 0.12564 0.66664 0.07224 0.0
C1277 C 0.19079 0.74428 0.06426 0.0
C1278 C 0.06173 0.5805 0.04947 0.0
C1279 C 0.07904 0.60049 0.05519 0.0
C1280 C 0.1309 0.65779 0.03938 0.0
C1281 C 0.16478 0.70323 0.06799 0.0
C1282 C 0.14604 0.68228 0.06169 0.0
C1283 C 0.09171 0.62068 0.0438 0.0
C1284 C 0.11038 0.64206 0.04991 0.0
H1285 H 0.1973 0.72034 0.1028 0.0
H1286 H 0.16716 0.6859 0.09213 0.0
H1287 H 0.164 0.6893 0.03677 0.0
H1288 H 0.06548 0.60033 0.00748 0.0
H1289 H 0.09517 0.63532 0.01735 0.0
C1290 C 0.31668 0.52917 0.09318 0.0
C1291 C 0.29288 0.51187 0.09677 0.0
C1292 C 0.3338 0.52459 0.08623 0.0
C1293 C 0.34828 0.47979 0.08003 0.0
H1294 H 0.38435 0.51982 0.03919 0.0
C1295 C 0.41513 0.46376 0.04317 0.0
C1296 C 0.43747 0.48295 0.03833 0.0
C1297 C 0.39557 0.46618 0.04837 0.0
C1298 C 0.37457 0.50859 0.05064 0.0
H1299 H 0.26816 0.47627 0.09642 0.0
H1300 H 0.29834 0.46792 0.08481 0.0
H1301 H 0.35512 0.5265 0.05395 0.0
H1302 H 0.45692 0.51969 0.03497 0.0
H1303 H 0.42315 0.52399 0.04418 0.0
H1304 H 0.36819 0.46228 0.07712 0.0
C1305 C 0.30378 0.485 0.08737 0.0
C1306 C 0.35788 0.51244 0.05909 0.0
C1307 C 0.28661 0.48968 0.09413 0.0
C1308 C 0.43981 0.5046 0.03828 0.0
C1309 C 0.42035 0.50704 0.04356 0.0
C1310 C 0.36518 0.47608 0.07169 0.0
C1311 C 0.32734 0.50256 0.08291 0.0
C1312 C 0.34478 0.49821 0.07394 0.0
C1313 C 0.39817 0.48785 0.04911 0.0
C1314 C 0.37868 0.49057 0.05699 0.0
H1315 H 0.32165 0.54639 0.09507 0.0
H1316 H 0.35194 0.53836 0.08307 0.0
H1317 H 0.33842 0.46863 0.09149 0.0
H1318 H 0.41302 0.4469 0.0434 0.0
H1319 H 0.37861 0.45106 0.05228 0.0
C1320 C 0.5735 0.82686 0.08491 0.0
C1321 C 0.55322 0.80517 0.08699 0.0
C1322 C 0.57098 0.84618 0.08025 0.0
C1323 C 0.53284 0.8634 0.05591 0.0
H1324 H 0.55919 0.91678 0.07912 0.0
C1325 C 0.50914 0.9345 0.03701 0.0
C1326 C 0.52628 0.95707 0.03827 0.0
C1327 C 0.51323 0.91665 0.04345 0.0
C1328 C 0.55205 0.9022 0.07228 0.0
H1329 H 0.5144 0.78673 0.08698 0.0
H1330 H 0.51001 0.82035 0.07819 0.0
H1331 H 0.56519 0.88462 0.08993 0.0
H1332 H 0.56126 0.9786 0.04725 0.0
H1333 H 0.56891 0.94748 0.05793 0.0
H1334 H 0.52046 0.88087 0.0379 0.0
C1335 C 0.52783 0.82242 0.08009 0.0
C1336 C 0.55539 0.88374 0.07857 0.0
C1337 C 0.53033 0.80322 0.08504 0.0
C1338 C 0.54767 0.96138 0.04613 0.0
C1339 C 0.55196 0.94348 0.05236 0.0
C1340 C 0.52989 0.88193 0.04944 0.0
C1341 C 0.54816 0.84406 0.07735 0.0
C1342 C 0.5455 0.86405 0.07057 0.0
C1343 C 0.53479 0.92081 0.0511 0.0
C1344 C 0.53912 0.90152 0.05766 0.0
H1345 H 0.59134 0.82876 0.08624 0.0
H1346 H 0.58694 0.86267 0.07818 0.0
H1347 H 0.5254 0.84856 0.04932 0.0
H1348 H 0.49229 0.93051 0.03126 0.0
H1349 H 0.49922 0.89952 0.0426 0.0
C1350 C 0.95922 0.14893 0.4198 0.0
C1351 C 0.93844 0.15096 0.4221 0.0
C1352 C 0.98152 0.16811 0.41486 0.0
C1353 C 0.00814 0.22819 0.39432 0.0
H1354 H 0.06783 0.23145 0.40922 0.0
C1355 C 0.10055 0.31009 0.38129 0.0
C1356 C 0.12054 0.30787 0.37653 0.0
C1357 C 0.07829 0.2909 0.38632 0.0
C1358 C 0.05135 0.23071 0.40477 0.0
H1359 H 0.92485 0.17474 0.42167 0.0
H1360 H 0.9639 0.20846 0.41367 0.0
H1361 H 0.02955 0.19878 0.42007 0.0
H1362 H 0.13315 0.28372 0.37417 0.0
H1363 H 0.09429 0.25016 0.3828 0.0
H1364 H 0.03006 0.26034 0.3792 0.0
C1365 C 0.96297 0.19198 0.41523 0.0
C1366 C 0.02931 0.21192 0.41101 0.0
C1367 C 0.94062 0.17271 0.42008 0.0
C1368 C 0.11795 0.286 0.37725 0.0
C1369 C 0.09571 0.26677 0.38243 0.0
C1370 C 0.03018 0.24705 0.38818 0.0
C1371 C 0.98371 0.18995 0.41221 0.0
C1372 C 0.00732 0.21032 0.40588 0.0
C1373 C 0.07559 0.26896 0.38711 0.0
C1374 C 0.0521 0.24858 0.39331 0.0
H1375 H 0.95805 0.13235 0.42142 0.0
H1376 H 0.99688 0.16567 0.41257 0.0
H1377 H 0.99173 0.22748 0.38974 0.0
H1378 H 0.10219 0.32677 0.38118 0.0
H1379 H 0.06335 0.29329 0.39006 0.0
C1380 C 0.88476 0.87421 0.41063 0.0
C1381 C 0.88994 0.85636 0.41422 0.0
C1382 C 0.86528 0.87132 0.40093 0.0
C1383 C 0.80663 0.8268 0.3932 0.0
H1384 H 0.80608 0.8707 0.35737 0.0
C1385 C 0.71772 0.81503 0.3667 0.0
C1386 C 0.71541 0.83468 0.36442 0.0
C1387 C 0.74028 0.81659 0.36905 0.0
C1388 C 0.80595 0.85832 0.36741 0.0
H1389 H 0.88023 0.82212 0.41029 0.0
H1390 H 0.8459 0.81684 0.39345 0.0
H1391 H 0.84431 0.8766 0.36863 0.0
H1392 H 0.7344 0.87113 0.36414 0.0
H1393 H 0.77334 0.87396 0.36841 0.0
H1394 H 0.76838 0.80918 0.39288 0.0
C1395 C 0.85671 0.83298 0.39804 0.0
C1396 C 0.8278 0.8617 0.37378 0.0
C1397 C 0.87621 0.83596 0.40758 0.0
C1398 C 0.73578 0.85582 0.36497 0.0
C1399 C 0.7582 0.85741 0.36746 0.0
C1400 C 0.7848 0.82359 0.38703 0.0
C1401 C 0.85079 0.85047 0.39492 0.0
C1402 C 0.82823 0.84613 0.38692 0.0
C1403 C 0.76073 0.83782 0.36967 0.0
C1404 C 0.78414 0.83956 0.37432 0.0
H1405 H 0.89532 0.88999 0.41575 0.0
H1406 H 0.86088 0.88497 0.3988 0.0
H1407 H 0.8065 0.81468 0.40348 0.0
H1408 H 0.7021 0.79851 0.3666 0.0
H1409 H 0.74163 0.80116 0.37063 0.0
C1410 C 0.20325 0.0455 0.42503 0.0
C1411 C 0.21852 0.06599 0.4149 0.0
C1412 C 0.19835 0.02482 0.41978 0.0
C1413 C 0.22144 1.00024 0.38963 0.0
H1414 H 0.15881 0.94725 0.40067 0.0
C1415 C 0.19092 0.91626 0.3614 0.0
C1416 C 0.17985 0.89622 0.37296 0.0
C1417 C 0.19585 0.93702 0.36651 0.0
C1418 C 0.17644 0.96188 0.39761 0.0
H1419 H 0.24044 0.08129 0.39135 0.0
H1420 H 0.23123 0.04518 0.38164 0.0
H1421 H 0.16645 0.98343 0.40909 0.0
H1422 H 0.16538 0.88213 0.39895 0.0
H1423 H 0.17374 0.91844 0.40787 0.0
H1424 H 0.23111 0.97863 0.37777 0.0
C1425 C 0.22346 0.0449 0.39389 0.0
C1426 C 0.18089 0.98264 0.40248 0.0
C1427 C 0.22857 0.06557 0.39929 0.0
C1428 C 0.17397 0.89734 0.38978 0.0
C1429 C 0.17858 0.91807 0.39484 0.0
C1430 C 0.21687 0.97954 0.38457 0.0
C1431 C 0.20842 0.0242 0.40413 0.0
C1432 C 0.2035 1.00212 0.39864 0.0
C1433 C 0.18955 0.93812 0.38325 0.0
C1434 C 0.19436 0.96012 0.38857 0.0
H1435 H 0.19541 0.0456 0.43714 0.0
H1436 H 0.18703 0.00936 0.42817 0.0
H1437 H 0.23921 0.01467 0.38671 0.0
H1438 H 0.19614 0.91597 0.34849 0.0
H1439 H 0.20428 0.95219 0.35729 0.0
C1440 C 0.49656 0.61989 0.3113 0.0
C1441 C 0.48578 0.61966 0.29577 0.0
C1442 C 0.51354 0.64043 0.31654 0.0
C1443 C 0.55568 0.70074 0.29979 0.0
H1444 H 0.55662 0.70951 0.34733 0.0
C1445 C 0.63186 0.7799 0.32544 0.0
C1446 C 0.62498 0.78942 0.33776 0.0
C1447 C 0.61526 0.75907 0.32031 0.0
C1448 C 0.55657 0.70744 0.33398 0.0
H1449 H 0.48381 0.64065 0.27375 0.0
H1450 H 0.51334 0.67659 0.28283 0.0
H1451 H 0.52654 0.67388 0.33851 0.0
H1452 H 0.5948 0.78467 0.35383 0.0
H1453 H 0.56618 0.74865 0.34505 0.0
H1454 H 0.58542 0.73451 0.29522 0.0
C1455 C 0.50907 0.66094 0.29088 0.0
C1456 C 0.53943 0.68684 0.32894 0.0
C1457 C 0.49208 0.64039 0.28568 0.0
C1458 C 0.60102 0.77769 0.34465 0.0
C1459 C 0.5845 0.75692 0.33959 0.0
C1460 C 0.57286 0.72134 0.30484 0.0
C1461 C 0.52018 0.66127 0.30634 0.0
C1462 C 0.53866 0.6832 0.31176 0.0
C1463 C 0.59135 0.74725 0.32737 0.0
C1464 C 0.57349 0.72504 0.322 0.0
H1465 H 0.49221 0.60411 0.31919 0.0
H1466 H 0.52188 0.63992 0.32841 0.0
H1467 H 0.55589 0.69851 0.28648 0.0
H1468 H 0.65011 0.78843 0.3198 0.0
H1469 H 0.62127 0.7521 0.31098 0.0
C1470 C 0.38481 0.86136 0.30002 0.0
C1471 C 0.37886 0.83985 0.29586 0.0
C1472 C 0.36857 0.86432 0.30977 0.0
C1473 C 0.314 0.83434 0.33874 0.0
H1474 H 0.30168 0.88281 0.31936 0.0
C1475 C 0.22509 0.83408 0.35008 0.0
C1476 C 0.22488 0.85465 0.35019 0.0
C1477 C 0.24665 0.83387 0.34751 0.0
C1478 C 0.30528 0.86957 0.32524 0.0
H1479 H 0.35219 0.80445 0.29888 0.0
H1480 H 0.32318 0.80949 0.31596 0.0
H1481 H 0.3342 0.87893 0.30689 0.0
H1482 H 0.24678 0.89112 0.34771 0.0
H1483 H 0.28488 0.89088 0.34328 0.0
H1484 H 0.28458 0.82465 0.35685 0.0
C1485 C 0.34048 0.82404 0.31179 0.0
C1486 C 0.32385 0.86728 0.31803 0.0
C1487 C 0.35681 0.82113 0.30196 0.0
C1488 C 0.24664 0.87506 0.34787 0.0
C1489 C 0.26832 0.87488 0.34531 0.0
C1490 C 0.29547 0.83672 0.34604 0.0
C1491 C 0.34611 0.84575 0.31556 0.0
C1492 C 0.32803 0.84934 0.32445 0.0
C1493 C 0.26845 0.85428 0.34471 0.0
C1494 C 0.29053 0.85401 0.33907 0.0
H1495 H 0.40201 0.87586 0.29554 0.0
H1496 H 0.37348 0.88116 0.31266 0.0
H1497 H 0.31711 0.82057 0.34407 0.0
H1498 H 0.20857 0.81816 0.35123 0.0
H1499 H 0.24601 0.81775 0.34674 0.0
C1500 C 0.14783 0.54236 0.29244 0.0
C1501 C 0.12437 0.53801 0.28906 0.0
C1502 C 0.15258 0.52456 0.29769 0.0
C1503 C 0.13093 0.46371 0.29866 0.0
H1504 H 0.16455 0.4693 0.34026 0.0
C1505 C 0.14225 0.38939 0.33289 0.0
C1506 C 0.16357 0.39454 0.34113 0.0
C1507 C 0.1371 0.4066 0.32638 0.0
C1508 C 0.15551 0.46753 0.32848 0.0
H1509 H 0.08759 0.51168 0.28811 0.0
H1510 H 0.09601 0.48029 0.29663 0.0
H1511 H 0.15694 0.49979 0.32811 0.0
H1512 H 0.19637 0.42191 0.34882 0.0
H1513 H 0.18788 0.45192 0.33703 0.0
H1514 H 0.13004 0.43178 0.29866 0.0
C1515 C 0.11071 0.49754 0.29525 0.0
C1516 C 0.15106 0.48502 0.32156 0.0
C1517 C 0.1059 0.51544 0.29023 0.0
C1518 C 0.17964 0.41731 0.34271 0.0
C1519 C 0.17467 0.43455 0.33599 0.0
C1520 C 0.13572 0.44632 0.30542 0.0
C1521 C 0.134 0.50198 0.29946 0.0
C1522 C 0.13873 0.48331 0.30659 0.0
C1523 C 0.15332 0.42948 0.32771 0.0
C1524 C 0.14808 0.44796 0.32046 0.0
H1525 H 0.16232 0.55966 0.29155 0.0
H1526 H 0.17075 0.52848 0.30064 0.0
H1527 H 0.12151 0.46202 0.28704 0.0
H1528 H 0.12939 0.37201 0.33154 0.0
H1529 H 0.12025 0.40187 0.32044 0.0
C1530 C 0.41476 0.52906 0.30963 0.0
C1531 C 0.41766 0.54161 0.29354 0.0
C1532 C 0.39322 0.50912 0.31483 0.0
C1533 C 0.34002 0.46287 0.29929 0.0
H1534 H 0.30917 0.45638 0.34342 0.0
C1535 C 0.259 0.37862 0.33078 0.0
C1536 C 0.23927 0.38022 0.3371 0.0
C1537 C 0.28088 0.39817 0.32552 0.0
C1538 C 0.31757 0.45797 0.33106 0.0
H1539 H 0.4004 0.54275 0.27015 0.0
H1540 H 0.36306 0.50732 0.2789 0.0
H1541 H 0.34743 0.49048 0.33394 0.0
H1542 H 0.22668 0.40377 0.34182 0.0
H1543 H 0.26515 0.43788 0.33337 0.0
H1544 H 0.31034 0.43021 0.29653 0.0
C1545 C 0.37743 0.51308 0.28756 0.0
C1546 C 0.33953 0.47741 0.32568 0.0
C1547 C 0.39885 0.53327 0.28249 0.0
C1548 C 0.24174 0.40187 0.33766 0.0
C1549 C 0.26376 0.42144 0.33269 0.0
C1550 C 0.3183 0.44324 0.30481 0.0
C1551 C 0.3742 0.50097 0.30391 0.0
C1552 C 0.35098 0.48014 0.3097 0.0
C1553 C 0.28355 0.41982 0.32648 0.0
C1554 C 0.30677 0.44061 0.32073 0.0
H1555 H 0.42913 0.53484 0.31827 0.0
H1556 H 0.39145 0.50001 0.3274 0.0
H1557 H 0.34843 0.46441 0.28696 0.0
H1558 H 0.25749 0.36217 0.32989 0.0
H1559 H 0.29579 0.39636 0.32081 0.0
C1560 C 0.46004 0.82693 0.28672 0.0
C1561 C 0.45546 0.84514 0.28293 0.0
C1562 C 0.48221 0.83061 0.29261 0.0
C1563 C 0.53316 0.87165 0.31424 0.0
H1564 H 0.5636 0.83716 0.30198 0.0
C1565 C 0.62888 0.88854 0.33179 0.0
C1566 C 0.6312 0.86925 0.33714 0.0
C1567 C 0.607 0.88626 0.32622 0.0
C1568 C 0.55515 0.84675 0.30563 0.0
H1569 H 0.47002 0.88135 0.28192 0.0
H1570 H 0.5093 0.88812 0.29152 0.0
H1571 H 0.52713 0.83236 0.28861 0.0
H1572 H 0.61242 0.83248 0.34088 0.0
H1573 H 0.57439 0.8285 0.33154 0.0
H1574 H 0.56153 0.88622 0.33112 0.0
C1575 C 0.49574 0.87094 0.29026 0.0
C1576 C 0.53429 0.84401 0.29798 0.0
C1577 C 0.4735 0.86718 0.28451 0.0
C1578 C 0.61117 0.84767 0.33723 0.0
C1579 C 0.5894 0.84538 0.33165 0.0
C1580 C 0.55417 0.87452 0.3218 0.0
C1581 C 0.50016 0.85263 0.29473 0.0
C1582 C 0.52295 0.85631 0.30228 0.0
C1583 C 0.5873 0.86461 0.32566 0.0
C1584 C 0.5652 0.86192 0.31767 0.0
H1585 H 0.4461 0.80982 0.2857 0.0
H1586 H 0.48491 0.8161 0.29612 0.0
H1587 H 0.52463 0.88111 0.31804 0.0
H1588 H 0.6442 0.90535 0.33141 0.0
H1589 H 0.60584 0.90136 0.32156 0.0
C1590 C 0.14309 0.62313 0.30299 0.0
C1591 C 0.12094 0.60805 0.29708 0.0
C1592 C 0.14597 0.64256 0.30945 0.0
C1593 C 0.12385 0.68322 0.30612 0.0
H1594 H 0.14998 0.69746 0.35008 0.0
C1595 C 0.12952 0.76004 0.33474 0.0
C1596 C 0.14897 0.77181 0.34463 0.0
C1597 C 0.12547 0.73959 0.32945 0.0
C1598 C 0.14304 0.69402 0.33764 0.0
H1599 H 0.0843 0.60113 0.29361 0.0
H1600 H 0.08956 0.63564 0.30426 0.0
H1601 H 0.14462 0.66292 0.33979 0.0
H1602 H 0.17973 0.77159 0.35644 0.0
H1603 H 0.17332 0.73658 0.34671 0.0
H1604 H 0.1231 0.71458 0.3035 0.0
C1605 C 0.10466 0.63236 0.30394 0.0
C1606 C 0.13984 0.67412 0.33183 0.0
C1607 C 0.10167 0.61271 0.2978 0.0
C1608 C 0.16439 0.7628 0.349 0.0
C1609 C 0.16059 0.74257 0.34348 0.0
C1610 C 0.12746 0.70334 0.31177 0.0
C1611 C 0.12684 0.64747 0.30981 0.0
C1612 C 0.13015 0.66851 0.31604 0.0
C1613 C 0.14103 0.7306 0.33364 0.0
C1614 C 0.13706 0.70904 0.32765 0.0
H1615 H 0.15828 0.62005 0.30236 0.0
H1616 H 0.16331 0.65404 0.31377 0.0
H1617 H 0.1166 0.6794 0.2938 0.0
H1618 H 0.11721 0.76643 0.33125 0.0
H1619 H 0.10993 0.73075 0.32222 0.0
C1620 C 0.84628 0.07829 0.40482 0.0
C1621 C 0.86572 0.07874 0.41352 0.0
C1622 C 0.82915 0.05838 0.3989 0.0
C1623 C 0.78777 0.01164 0.39568 0.0
H1624 H 0.80622 0.96901 0.38153 0.0
C1625 C 0.71669 0.92294 0.37971 0.0
C1626 C 0.72293 0.91391 0.36669 0.0
C1627 C 0.73392 0.94293 0.38558 0.0
C1628 C 0.80068 0.98078 0.38522 0.0
H1629 H 0.88265 0.05904 0.4231 0.0
H1630 H 0.85243 0.02388 0.41336 0.0
H1631 H 0.83665 1.00417 0.39039 0.0
H1632 H 0.7526 0.91877 0.35002 0.0
H1633 H 0.78198 0.95385 0.35945 0.0
H1634 H 0.75195 0.98867 0.38976 0.0
C1635 C 0.85058 0.03896 0.41053 0.0
C1636 C 0.8182 1.00093 0.39062 0.0
C1637 C 0.86788 0.05902 0.4162 0.0
C1638 C 0.74686 0.92537 0.35977 0.0
C1639 C 0.76395 0.94542 0.36545 0.0
C1640 C 0.77028 0.9916 0.39009 0.0
C1641 C 0.83084 0.03827 0.40182 0.0
C1642 C 0.81207 0.01672 0.39596 0.0
C1643 C 0.75785 0.95451 0.37853 0.0
C1644 C 0.77644 0.97584 0.38474 0.0
H1645 H 0.84437 0.09341 0.40268 0.0
H1646 H 0.81465 0.05884 0.39196 0.0
H1647 H 0.78209 0.02304 0.39994 0.0
H1648 H 0.69851 0.91452 0.38548 0.0
H1649 H 0.7285 0.94908 0.39585 0.0
C1650 C 0.98089 0.86319 0.42618 0.0
C1651 C 0.95712 0.84571 0.42923 0.0
C1652 C 0.99861 0.8589 0.41991 0.0
C1653 C 0.00449 0.81833 0.39567 0.0
H1654 H 0.071 0.85011 0.40729 0.0
C1655 C 0.07974 0.79842 0.37611 0.0
C1656 C 0.10228 0.81721 0.37094 0.0
C1657 C 0.06084 0.80154 0.38177 0.0
C1658 C 0.05251 0.84131 0.40381 0.0
H1659 H 0.93301 0.81003 0.42873 0.0
H1660 H 0.96415 0.80205 0.41858 0.0
H1661 H 0.04077 0.85525 0.42216 0.0
H1662 H 0.12261 0.85395 0.36706 0.0
H1663 H 0.08967 0.85939 0.37687 0.0
H1664 H 0.01638 0.80405 0.37754 0.0
C1665 C 0.96914 0.81922 0.42064 0.0
C1666 C 0.0352 0.84423 0.41233 0.0
C1667 C 0.95141 0.82362 0.42674 0.0
C1668 C 0.10537 0.83916 0.3708 0.0
C1669 C 0.08659 0.84228 0.37655 0.0
C1670 C 0.0218 0.81523 0.38727 0.0
C1671 C 0.9928 0.83694 0.41668 0.0
C1672 C 0.011 0.83289 0.40829 0.0
C1673 C 0.06443 0.82351 0.3826 0.0
C1674 C 0.04598 0.82685 0.39118 0.0
H1675 H 0.98541 0.88037 0.42789 0.0
H1676 H 0.01656 0.87301 0.41684 0.0
H1677 H 0.98609 0.80967 0.39201 0.0
H1678 H 0.07708 0.78136 0.37646 0.0
H1679 H 0.04392 0.7868 0.38643 0.0
C1680 C 0.24336 0.16208 0.41838 0.0
C1681 C 0.22325 0.1403 0.42037 0.0
C1682 C 0.24059 0.18127 0.41372 0.0
C1683 C 0.20207 0.19819 0.38951 0.0
H1684 H 0.2278 0.25112 0.41322 0.0
C1685 C 0.1775 0.26894 0.37153 0.0
C1686 C 0.19451 0.29149 0.37299 0.0
C1687 C 0.18177 0.25111 0.3777 0.0
C1688 C 0.22084 0.23668 0.40623 0.0
H1689 H 0.18447 0.1215 0.42015 0.0
H1690 H 0.17964 0.15488 0.41137 0.0
H1691 H 0.23421 0.21913 0.42367 0.0
H1692 H 0.22949 0.31299 0.382 0.0
H1693 H 0.23744 0.28196 0.3922 0.0
H1694 H 0.18941 0.21566 0.37172 0.0
C1695 C 0.19753 0.15714 0.41333 0.0
C1696 C 0.22442 0.21831 0.41233 0.0
C1697 C 0.20027 0.13808 0.41828 0.0
C1698 C 0.21598 0.2958 0.38074 0.0
C1699 C 0.22044 0.27793 0.3867 0.0
C1700 C 0.19887 0.21664 0.38324 0.0
C1701 C 0.21769 0.17889 0.41074 0.0
C1702 C 0.21477 0.19878 0.40414 0.0
C1703 C 0.20337 0.2553 0.38528 0.0
C1704 C 0.20789 0.23607 0.39163 0.0
H1705 H 0.26126 0.16418 0.41984 0.0
H1706 H 0.25642 0.19785 0.41177 0.0
H1707 H 0.19479 0.18347 0.3828 0.0
H1708 H 0.1606 0.26496 0.36584 0.0
H1709 H 0.16785 0.23398 0.37672 0.0
C1710 C 0.62611 0.48292 0.75282 0.0
C1711 C 0.60533 0.48491 0.75517 0.0
C1712 C 0.64833 0.5021 0.74774 0.0
C1713 C 0.67446 0.56166 0.72647 0.0
H1714 H 0.73447 0.56558 0.74127 0.0
C1715 C 0.76668 0.64343 0.71193 0.0
C1716 C 0.78675 0.64111 0.70755 0.0
C1717 C 0.74445 0.62432 0.71713 0.0
C1718 C 0.7179 0.56464 0.73683 0.0
H1719 H 0.59157 0.50854 0.75475 0.0
H1720 H 0.63054 0.54235 0.7464 0.0
H1721 H 0.69637 0.53315 0.75271 0.0
H1722 H 0.79946 0.61689 0.70592 0.0
H1723 H 0.76061 0.58345 0.7148 0.0
H1724 H 0.69611 0.59335 0.71073 0.0
C1725 C 0.62966 0.52589 0.74807 0.0
C1726 C 0.69596 0.546 0.74343 0.0
C1727 C 0.60738 0.50661 0.7531 0.0
C1728 C 0.7842 0.61923 0.70871 0.0
C1729 C 0.76198 0.60007 0.71404 0.0
C1730 C 0.6964 0.58037 0.71995 0.0
C1731 C 0.65041 0.52388 0.74497 0.0
C1732 C 0.67387 0.54418 0.73834 0.0
C1733 C 0.74183 0.60237 0.71846 0.0
C1734 C 0.71843 0.58212 0.72503 0.0
H1735 H 0.62498 0.46636 0.75448 0.0
H1736 H 0.6637 0.49969 0.7454 0.0
H1737 H 0.65794 0.56074 0.72193 0.0
H1738 H 0.76828 0.66013 0.71147 0.0
H1739 H 0.72948 0.6268 0.72065 0.0
C1740 C 0.53574 0.16655 0.75598 0.0
C1741 C 0.55442 0.1883 0.75759 0.0
C1742 C 0.51518 0.16379 0.74795 0.0
C1743 C 0.49195 0.19269 0.71766 0.0
H1744 H 0.43004 0.14763 0.73966 0.0
C1745 C 0.40246 0.18952 0.70076 0.0
C1746 C 0.38174 0.16833 0.70132 0.0
C1747 C 0.42431 0.19101 0.70532 0.0
C1748 C 0.44718 0.15995 0.73316 0.0
H1749 H 0.56699 0.22424 0.7519 0.0
H1750 H 0.53054 0.21956 0.73776 0.0
H1751 H 0.4668 0.15289 0.75269 0.0
H1752 H 0.36735 0.13207 0.70732 0.0
H1753 H 0.40579 0.13456 0.7153 0.0
H1754 H 0.47219 0.19988 0.6982 0.0
C1755 C 0.53188 0.20464 0.74272 0.0
C1756 C 0.46822 0.16305 0.74069 0.0
C1757 C 0.55252 0.20737 0.75086 0.0
C1758 C 0.38322 0.14859 0.70656 0.0
C1759 C 0.40513 0.15004 0.71117 0.0
C1760 C 0.47084 0.18952 0.71009 0.0
C1761 C 0.51298 0.18278 0.74127 0.0
C1762 C 0.4908 0.17955 0.73308 0.0
C1763 C 0.4258 0.17132 0.71087 0.0
C1764 C 0.44825 0.17325 0.71786 0.0
H1765 H 0.5373 0.15171 0.76079 0.0
H1766 H 0.50112 0.14677 0.74675 0.0
H1767 H 0.50915 0.20529 0.71142 0.0
H1768 H 0.40177 0.20506 0.69749 0.0
H1769 H 0.43975 0.20767 0.70531 0.0
C1770 C 0.87026 0.37837 0.75755 0.0
C1771 C 0.88515 0.39902 0.74745 0.0
C1772 C 0.86589 0.35787 0.75221 0.0
C1773 C 0.88983 0.33441 0.7216 0.0
H1774 H 0.82829 0.28026 0.73327 0.0
C1775 C 0.86039 0.2507 0.69307 0.0
C1776 C 0.85055 0.23077 0.70474 0.0
C1777 C 0.86495 0.27131 0.69829 0.0
C1778 C 0.84562 0.29523 0.73003 0.0
H1779 H 0.9069 0.41476 0.72387 0.0
H1780 H 0.89851 0.37898 0.71399 0.0
H1781 H 0.83492 0.31609 0.74181 0.0
H1782 H 0.8379 0.21665 0.73102 0.0
H1783 H 0.84551 0.25269 0.74013 0.0
H1784 H 0.90013 0.31345 0.70938 0.0
C1785 C 0.89069 0.37843 0.72629 0.0
C1786 C 0.84951 0.31579 0.73498 0.0
C1787 C 0.89531 0.39892 0.73179 0.0
C1788 C 0.84555 0.23182 0.72178 0.0
C1789 C 0.84973 0.25236 0.72695 0.0
C1790 C 0.88579 0.31391 0.71644 0.0
C1791 C 0.87607 0.35757 0.7365 0.0
C1792 C 0.87172 0.33569 0.73092 0.0
C1793 C 0.85944 0.27232 0.71524 0.0
C1794 C 0.86369 0.29409 0.72067 0.0
H1795 H 0.86233 0.37821 0.7697 0.0
H1796 H 0.8549 0.34231 0.7606 0.0
H1797 H 0.90734 0.34915 0.71851 0.0
H1798 H 0.86493 0.25045 0.67999 0.0
H1799 H 0.87244 0.28642 0.689 0.0
C1800 C 0.16041 0.97255 0.62113 0.0
C1801 C 0.15358 0.95203 0.63168 0.0
C1802 C 0.17693 0.99326 0.62635 0.0
C1803 C 0.20232 0.02164 0.66381 0.0
H1804 H 0.25737 0.06294 0.63304 0.0
C1805 C 0.2797 0.10298 0.68531 0.0
C1806 C 0.29209 0.12224 0.67319 0.0
C1807 C 0.26295 0.08217 0.68035 0.0
C1808 C 0.24194 0.05191 0.64174 0.0
H1809 H 0.15823 0.93696 0.656 0.0
H1810 H 0.18654 0.9733 0.66552 0.0
H1811 H 0.22727 0.02728 0.62432 0.0
H1812 H 0.29663 0.13489 0.64632 0.0
H1813 H 0.26682 0.09903 0.63763 0.0
H1814 H 0.2163 0.04639 0.68104 0.0
C1815 C 0.17926 0.97336 0.65314 0.0
C1816 C 0.22472 0.03133 0.63672 0.0
C1817 C 0.16307 0.95262 0.64775 0.0
C1818 C 0.28747 0.12026 0.65595 0.0
C1819 C 0.2704 0.09956 0.65098 0.0
C1820 C 0.2193 0.04241 0.66873 0.0
C1821 C 0.18664 0.99391 0.64239 0.0
C1822 C 0.20476 0.01591 0.64772 0.0
C1823 C 0.25782 0.08012 0.6631 0.0
C1824 C 0.2395 0.0579 0.6578 0.0
H1825 H 0.15324 0.97245 0.6087 0.0
H1826 H 0.18209 0.0088 0.61785 0.0
H1827 H 0.187 0.0102 0.67251 0.0
H1828 H 0.28334 0.10382 0.69861 0.0
H1829 H 0.2543 0.06764 0.69009 0.0
C1830 C 0.0188 0.13903 0.62681 0.0
C1831 C 0.03968 0.15805 0.61923 0.0
C1832 C 1.00102 0.1418 0.63495 0.0
C1833 C 0.97943 0.18328 0.63671 0.0
H1834 H 0.94847 0.14811 0.6803 0.0
C1835 C 0.91489 0.20187 0.67321 0.0
C1836 C 0.89262 0.18282 0.6785 0.0
C1837 C 0.93439 0.1992 0.66832 0.0
C1838 C 0.95698 0.15801 0.66812 0.0
H1839 H 0.05904 0.19464 0.61441 0.0
H1840 H 0.02815 0.19967 0.62853 0.0
H1841 H 0.97863 0.14187 0.66614 0.0
H1842 H 0.8733 0.14607 0.68288 0.0
H1843 H 0.90721 0.14139 0.67451 0.0
H1844 H 0.95777 0.19929 0.63854 0.0
C1845 C 0.02507 0.18261 0.62796 0.0
C1846 C 0.97409 0.15435 0.65998 0.0
C1847 C 0.0427 0.17981 0.61988 0.0
C1848 C 0.89034 0.16108 0.6793 0.0
C1849 C 0.90982 0.1584 0.67448 0.0
C1850 C 0.96244 0.18697 0.64484 0.0
C1851 C 0.00403 0.16366 0.6356 0.0
C1852 C 0.98548 0.16697 0.64419 0.0
C1853 C 0.93182 0.17741 0.66845 0.0
C1854 C 0.95103 0.17438 0.66061 0.0
H1855 H 0.01646 0.12218 0.62654 0.0
H1856 H 0.9849 0.1269 0.64064 0.0
H1857 H 0.98758 0.193 0.62442 0.0
H1858 H 0.91696 0.21878 0.67236 0.0
H1859 H 0.95126 0.21416 0.66389 0.0
C1860 C 0.80453 0.8653 0.61121 0.0
C1861 C 0.79022 0.87059 0.62124 0.0
C1862 C 0.80764 0.84646 0.61657 0.0
C1863 C 0.8064 0.81131 0.65608 0.0
H1864 H 0.80915 0.7715 0.62583 0.0
C1865 C 0.84315 0.74941 0.67623 0.0
C1866 C 0.83016 0.72734 0.67184 0.0
C1867 C 0.83754 0.76632 0.66975 0.0
C1868 C 0.8083 0.7824 0.63446 0.0
H1869 H 0.76703 0.86005 0.64416 0.0
H1870 H 0.77228 0.82706 0.65359 0.0
H1871 H 0.79943 0.80122 0.61472 0.0
H1872 H 0.80124 0.70594 0.65689 0.0
H1873 H 0.79158 0.73546 0.64556 0.0
H1874 H 0.81521 0.79256 0.67582 0.0
C1875 C 0.78141 0.83754 0.64172 0.0
C1876 C 0.80293 0.79953 0.62806 0.0
C1877 C 0.77826 0.85627 0.63632 0.0
C1878 C 0.81162 0.72271 0.66061 0.0
C1879 C 0.80613 0.73967 0.65402 0.0
C1880 C 0.81193 0.79433 0.66244 0.0
C1881 C 0.79659 0.83269 0.63211 0.0
C1882 C 0.80187 0.81417 0.63881 0.0
C1883 C 0.81897 0.76166 0.65856 0.0
C1884 C 0.81297 0.77966 0.65172 0.0
H1885 H 0.81423 0.87636 0.5997 0.0
H1886 H 0.8196 0.84331 0.60894 0.0
H1887 H 0.80605 0.82247 0.66467 0.0
H1888 H 0.85787 0.75378 0.68454 0.0
H1889 H 0.84803 0.78317 0.67329 0.0
C1890 C 0.08335 0.855 0.62809 0.0
C1891 C 0.08399 0.87614 0.62582 0.0
C1892 C 0.06164 0.83499 0.63289 0.0
C1893 C 1.00188 0.81444 0.65463 0.0
H1894 H 0.98418 0.75967 0.63439 0.0
C1895 C 0.90785 0.73486 0.66894 0.0
C1896 C 0.90632 0.7134 0.66983 0.0
C1897 C 0.92963 0.7546 0.6638 0.0
C1898 C 0.98895 0.77467 0.64041 0.0
H1899 H 0.06228 0.89282 0.62586 0.0
H1900 H 0.02442 0.85802 0.63451 0.0
H1901 H 0.02171 0.79398 0.62466 0.0
H1902 H 0.92613 0.69572 0.66556 0.0
H1903 H 0.9643 0.73006 0.65701 0.0
H1904 H 0.96941 0.79513 0.67061 0.0
C1905 C 0.04072 0.85687 0.63285 0.0
C1906 C 0.01049 0.79441 0.63475 0.0
C1907 C 0.06236 0.8768 0.62789 0.0
C1908 C 0.9269 0.71208 0.66517 0.0
C1909 C 0.94872 0.73179 0.66014 0.0
C1910 C 0.98044 0.79464 0.66042 0.0
C1911 C 0.0401 0.83571 0.63564 0.0
C1912 C 0.0172 0.8146 0.64171 0.0
C1913 C 0.95042 0.75339 0.65927 0.0
C1914 C 0.97357 0.77446 0.65334 0.0
H1915 H 0.09981 0.85406 0.62672 0.0
H1916 H 0.06188 0.81903 0.635 0.0
H1917 H 0.00666 0.82957 0.66049 0.0
H1918 H 0.89216 0.73645 0.6719 0.0
H1919 H 0.92997 0.7708 0.66301 0.0
C1920 C 0.13709 0.16607 0.60937 0.0
C1921 C 0.12132 0.17169 0.61728 0.0
C1922 C 0.15986 0.17246 0.61545 0.0
C1923 C 0.19092 0.18323 0.65431 0.0
H1924 H 0.24973 0.21299 0.62509 0.0
C1925 C 0.27931 0.1827 0.67028 0.0
C1926 C 0.30039 0.20378 0.66819 0.0
C1927 C 0.25752 0.18102 0.66527 0.0
C1928 C 0.23343 0.20487 0.63338 0.0
H1929 H 0.11738 0.18987 0.63669 0.0
H1930 H 0.15679 0.20019 0.64786 0.0
H1931 H 0.21144 0.20581 0.61303 0.0
H1932 H 0.31553 0.23947 0.65874 0.0
H1933 H 0.27728 0.23638 0.64936 0.0
H1934 H 0.21278 0.18152 0.67452 0.0
C1935 C 0.15147 0.19063 0.63714 0.0
C1936 C 0.21162 0.20062 0.62648 0.0
C1937 C 0.12894 0.18458 0.63087 0.0
C1938 C 0.29939 0.22311 0.66073 0.0
C1939 C 0.27765 0.22136 0.65537 0.0
C1940 C 0.21265 0.18709 0.66114 0.0
C1941 C 0.16699 0.18441 0.62959 0.0
C1942 C 0.19021 0.18967 0.63689 0.0
C1943 C 0.25661 0.20026 0.65752 0.0
C1944 C 0.23402 0.19783 0.65069 0.0
H1945 H 0.13154 0.15638 0.59873 0.0
H1946 H 0.1716 0.1675 0.60945 0.0
H1947 H 0.17456 0.17464 0.66254 0.0
H1948 H 0.27965 0.1674 0.67544 0.0
H1949 H 0.24155 0.16452 0.66682 0.0
C1950 C 0.78679 0.94369 0.64322 0.0
C1951 C 0.7964 0.94538 0.62682 0.0
C1952 C 0.78963 0.96306 0.64974 0.0
C1953 C 0.79859 0.02012 0.63645 0.0
H1954 H 0.82091 0.03213 0.68164 0.0
C1955 C 0.82188 0.10496 0.66038 0.0
C1956 C 0.81759 0.10496 0.67777 0.0
C1957 C 0.81907 0.08533 0.65435 0.0
C1958 C 0.81426 0.02889 0.6691 0.0
H1959 H 0.81688 0.96857 0.60451 0.0
H1960 H 0.82128 1.00248 0.61566 0.0
H1961 H 0.81645 0.99813 0.67091 0.0
H1962 H 0.80596 0.08422 0.70232 0.0
H1963 H 0.80041 0.04974 0.69188 0.0
H1964 H 0.79567 0.05038 0.63469 0.0
C1965 C 0.81154 0.98616 0.62347 0.0
C1966 C 0.81184 0.00944 0.66294 0.0
C1967 C 0.809 0.96681 0.61708 0.0
C1968 C 0.80996 0.08484 0.68896 0.0
C1969 C 0.8068 0.06507 0.68292 0.0
C1970 C 0.80065 0.03938 0.64269 0.0
C1971 C 0.80183 0.98447 0.63986 0.0
C1972 C 0.80415 1.00495 0.64651 0.0
C1973 C 0.81149 0.06507 0.66553 0.0
C1974 C 0.80868 0.04416 0.65906 0.0
H1975 H 0.7767 0.9273 0.65086 0.0
H1976 H 0.78178 0.96124 0.66235 0.0
H1977 H 0.79228 0.01689 0.62383 0.0
H1978 H 0.82807 0.12035 0.65149 0.0
H1979 H 0.82334 0.08624 0.64096 0.0
C1980 C 0.52338 0.41327 0.73122 0.0
C1981 C 0.53334 0.41189 0.74686 0.0
C1982 C 0.50628 0.39358 0.725 0.0
C1983 C 0.46174 0.33338 0.73922 0.0
H1984 H 0.46309 0.32742 0.69119 0.0
C1985 C 0.38451 0.25907 0.71017 0.0
C1986 C 0.39112 0.24904 0.6981 0.0
C1987 C 0.40167 0.2792 0.71585 0.0
C1988 C 0.4625 0.32873 0.70466 0.0
H1989 H 0.53335 0.38909 0.76832 0.0
H1990 H 0.50354 0.35452 0.75753 0.0
H1991 H 0.49377 0.3616 0.7016 0.0
H1992 H 0.42129 0.25231 0.68286 0.0
H1993 H 0.45098 0.28733 0.69257 0.0
H1994 H 0.43069 0.30038 0.74233 0.0
C1995 C 0.50875 0.37078 0.75005 0.0
C1996 C 0.47998 0.34846 0.71061 0.0
C1997 C 0.5259 0.39048 0.7562 0.0
C1998 C 0.41534 0.25973 0.69185 0.0
C1999 C 0.43245 0.27987 0.69746 0.0
C2000 C 0.4442 0.31369 0.73326 0.0
C2001 C 0.4986 0.37204 0.73438 0.0
C2002 C 0.4799 0.35104 0.72799 0.0
C2003 C 0.4259 0.28985 0.7096 0.0
C2004 C 0.44436 0.31106 0.7159 0.0
H2005 H 0.52856 0.42967 0.72399 0.0
H2006 H 0.49864 0.39527 0.71303 0.0
H2007 H 0.46091 0.33483 0.75265 0.0
H2008 H 0.36606 0.25137 0.7153 0.0
H2009 H 0.39589 0.28651 0.72506 0.0
C2010 C 0.61907 0.16512 0.74588 0.0
C2011 C 0.62331 0.17666 0.76014 0.0
C2012 C 0.63662 0.16091 0.73923 0.0
C2013 C 0.70213 0.18099 0.73952 0.0
H2014 H 0.68539 0.12828 0.71673 0.0
C2015 C 0.77516 0.17281 0.70379 0.0
C2016 C 0.77353 0.1513 0.70547 0.0
C2017 C 0.75558 0.17528 0.70875 0.0
C2018 C 0.69042 0.14301 0.72316 0.0
H2019 H 0.64805 0.19131 0.77951 0.0
H2020 H 0.67855 0.183 0.76847 0.0
H2021 H 0.65379 0.13225 0.73065 0.0
H2022 H 0.75038 0.11553 0.71369 0.0
H2023 H 0.71647 0.11982 0.72315 0.0
H2024 H 0.73879 0.19114 0.7329 0.0
C2025 C 0.66216 0.17811 0.76188 0.0
C2026 C 0.67224 0.14544 0.73098 0.0
C2027 C 0.64469 0.18265 0.76835 0.0
C2028 C 0.7519 0.13226 0.71203 0.0
C2029 C 0.73244 0.13475 0.71734 0.0
C2030 C 0.7203 0.17837 0.73196 0.0
C2031 C 0.65856 0.16765 0.74699 0.0
C2032 C 0.67787 0.16452 0.73921 0.0
C2033 C 0.73424 0.15638 0.71611 0.0
C2034 C 0.71469 0.1594 0.72362 0.0
H2035 H 0.60231 0.15973 0.7397 0.0
H2036 H 0.63318 0.15295 0.72771 0.0
H2037 H 0.70718 0.19611 0.74545 0.0
H2038 H 0.79173 0.18786 0.69915 0.0
H2039 H 0.75746 0.19214 0.70724 0.0
C2040 C 0.86611 0.4708 0.75076 0.0
C2041 C 0.88905 0.47299 0.75303 0.0
C2042 C 0.86342 0.4899 0.74589 0.0
C2043 C 0.8903 0.55104 0.7454 0.0
H2044 H 0.85576 0.54896 0.70463 0.0
C2045 C 0.8822 0.62888 0.71393 0.0
C2046 C 0.86083 0.62459 0.70604 0.0
C2047 C 0.88658 0.61097 0.71997 0.0
C2048 C 0.86509 0.54979 0.7162 0.0
H2049 H 0.92702 0.49687 0.75285 0.0
H2050 H 0.92225 0.53059 0.74491 0.0
H2051 H 0.86101 0.51665 0.71554 0.0
H2052 H 0.82696 0.59809 0.69882 0.0
H2053 H 0.83406 0.56708 0.70983 0.0
H2054 H 0.89371 0.58384 0.74647 0.0
C2055 C 0.90642 0.514 0.74668 0.0
C2056 C 0.8682 0.53126 0.72238 0.0
C2057 C 0.90915 0.49479 0.75125 0.0
C2058 C 0.84379 0.60205 0.7046 0.0
C2059 C 0.84797 0.5842 0.71084 0.0
C2060 C 0.88681 0.56949 0.73939 0.0
C2061 C 0.88357 0.51167 0.74356 0.0
C2062 C 0.88073 0.53164 0.73707 0.0
C2063 C 0.86953 0.58835 0.71847 0.0
C2064 C 0.87401 0.56907 0.72474 0.0
H2065 H 0.85031 0.45421 0.75247 0.0
H2066 H 0.84556 0.48767 0.74382 0.0
H2067 H 0.89997 0.55171 0.75679 0.0
H2068 H 0.89572 0.64607 0.71518 0.0
H2069 H 0.90352 0.61495 0.72554 0.0
C2070 C 0.44923 0.88871 0.24979 0.0
C2071 C 0.4426 0.86562 0.25199 0.0
C2072 C 0.46433 0.90312 0.23588 0.0
C2073 C 0.48064 0.90224 0.19216 0.0
H2074 H 0.52754 0.96491 0.19499 0.0
C2075 C 0.50611 0.97278 0.13621 0.0
C2076 C 0.5303 0.98967 0.13308 0.0
C2077 C 0.49892 0.9566 0.15064 0.0
C2078 C 0.51479 0.94738 0.19399 0.0
H2079 H 0.44721 0.83946 0.2422 0.0
H2080 H 0.47368 0.86474 0.21741 0.0
H2081 H 0.50982 0.93838 0.22109 0.0
H2082 H 0.56594 1.00271 0.14269 0.0
H2083 H 0.55319 0.97455 0.16817 0.0
H2084 H 0.48514 0.91137 0.16509 0.0
C2085 C 0.46703 0.87164 0.2264 0.0
C2086 C 0.50451 0.93225 0.20892 0.0
C2087 C 0.45202 0.85723 0.24049 0.0
C2088 C 0.54712 0.99008 0.14483 0.0
C2089 C 0.53987 0.97392 0.15936 0.0
C2090 C 0.49084 0.91739 0.17724 0.0
C2091 C 0.47308 0.89469 0.22386 0.0
C2092 C 0.48685 0.90968 0.20816 0.0
C2093 C 0.51569 0.95698 0.16237 0.0
C2094 C 0.5075 0.94026 0.17802 0.0
H2095 H 0.44246 0.89549 0.25881 0.0
H2096 H 0.46845 0.92072 0.2342 0.0
H2097 H 0.46699 0.88499 0.19117 0.0
H2098 H 0.49258 0.97224 0.12764 0.0
H2099 H 0.48006 0.94409 0.1528 0.0
C2100 C 0.11472 0.55733 0.24311 0.0
C2101 C 0.10083 0.54965 0.25858 0.0
C2102 C 0.10416 0.54951 0.22802 0.0
C2103 C 0.04369 0.52529 0.21069 0.0
H2104 H 0.07778 0.52419 0.17056 0.0
C2105 C 0.00599 0.52597 0.14495 0.0
C2106 C 0.00848 0.51303 0.1333 0.0
C2107 C 0.01812 0.52913 0.15996 0.0
C2108 C 0.06786 0.52415 0.18169 0.0
H2109 H 0.06555 0.52732 0.27078 0.0
H2110 H 0.0473 0.51227 0.24481 0.0
H2111 H 0.09695 0.52938 0.19763 0.0
H2112 H 0.02601 0.49357 0.12808 0.0
H2113 H 0.04684 0.49857 0.1546 0.0
H2114 H 0.01439 0.51943 0.19503 0.0
C2115 C 0.06616 0.52484 0.24402 0.0
C2116 C 0.07899 0.5274 0.19721 0.0
C2117 C 0.07665 0.53303 0.25899 0.0
C2118 C 0.02384 0.50371 0.13682 0.0
C2119 C 0.03581 0.50664 0.152 0.0
C2120 C 0.03252 0.52182 0.1953 0.0
C2121 C 0.07948 0.53371 0.22818 0.0
C2122 C 0.06716 0.52829 0.2119 0.0
C2123 C 0.03285 0.51917 0.16389 0.0
C2124 C 0.04456 0.5216 0.18048 0.0
H2125 H 0.13329 0.57058 0.24255 0.0
H2126 H 0.11502 0.55699 0.21614 0.0
H2127 H 0.03402 0.52626 0.22154 0.0
H2128 H 0.99462 0.53371 0.14243 0.0
H2129 H 0.01591 0.53946 0.16849 0.0
C2130 C 0.44104 0.56108 0.24524 0.0
C2131 C 0.44971 0.5567 0.26075 0.0
C2132 C 0.44313 0.55172 0.2309 0.0
C2133 C 0.48376 0.53631 0.21172 0.0
H2134 H 0.43303 0.50417 0.18218 0.0
C2135 C 0.50133 0.49812 0.15559 0.0
C2136 C 0.48829 0.49608 0.14089 0.0
C2137 C 0.49577 0.50526 0.16998 0.0
C2138 C 0.44756 0.51348 0.19007 0.0
H2139 H 0.46718 0.53921 0.27367 0.0
H2140 H 0.47137 0.52303 0.24847 0.0
H2141 H 0.42362 0.51581 0.20795 0.0
H2142 H 0.4594 0.50078 0.1299 0.0
H2143 H 0.45066 0.51454 0.15459 0.0
H2144 H 0.508 0.53516 0.19373 0.0
C2145 C 0.46252 0.53334 0.24746 0.0
C2146 C 0.44205 0.51995 0.20494 0.0
C2147 C 0.45994 0.54234 0.26188 0.0
C2148 C 0.47001 0.50223 0.14086 0.0
C2149 C 0.4647 0.50979 0.15522 0.0
C2150 C 0.48937 0.5303 0.19673 0.0
C2151 C 0.45458 0.53832 0.23174 0.0
C2152 C 0.46006 0.5312 0.216 0.0
C2153 C 0.47734 0.51119 0.17009 0.0
C2154 C 0.47134 0.51853 0.18573 0.0
H2155 H 0.43359 0.57256 0.24411 0.0
H2156 H 0.43705 0.55599 0.21892 0.0
H2157 H 0.4981 0.54539 0.21983 0.0
H2158 H 0.5159 0.49408 0.15609 0.0
H2159 H 0.50577 0.50568 0.18114 0.0
C2160 C 0.90209 0.46744 0.793 0.0
C2161 C 0.91573 0.46294 0.78167 0.0
C2162 C 0.91248 0.47836 0.80715 0.0
C2163 C 0.97158 0.511 0.826 0.0
H2164 H 0.93335 0.48551 0.86888 0.0
C2165 C 0.01228 0.54219 0.88896 0.0
C2166 C 0.00642 0.52552 0.90313 0.0
C2167 C 0.99959 0.53698 0.87423 0.0
C2168 C 0.94434 0.49277 0.85704 0.0
H2169 H 0.95096 0.46732 0.77547 0.0
H2170 H 0.96908 0.48578 0.8003 0.0
H2171 H 0.915 0.47262 0.84251 0.0
H2172 H 0.98241 0.49043 0.91309 0.0
H2173 H 0.96065 0.48109 0.88727 0.0
H2174 H 1.00126 0.53016 0.84055 0.0
C2175 C 0.95049 0.48122 0.79834 0.0
C2176 C 0.93369 0.48561 0.84184 0.0
C2177 C 0.94012 0.47044 0.78421 0.0
C2178 C 0.98718 0.50368 0.90242 0.0
C2179 C 0.97466 0.49837 0.88761 0.0
C2180 C 0.98226 0.51801 0.84118 0.0
C2181 C 0.9367 0.48494 0.81021 0.0
C2182 C 0.94729 0.49434 0.82614 0.0
C2183 C 0.98091 0.51488 0.87321 0.0
C2184 C 0.9689 0.50873 0.85695 0.0
H2185 H 0.88321 0.46175 0.79121 0.0
H2186 H 0.90142 0.48127 0.81585 0.0
H2187 H 0.98254 0.51839 0.81414 0.0
H2188 H 0.0268 0.55927 0.88925 0.0
H2189 H 0.0046 0.55027 0.86357 0.0
C2190 C 0.5535 0.48212 0.786 0.0
C2191 C 0.56798 0.47193 0.78458 0.0
C2192 C 0.55131 0.48968 0.80125 0.0
C2193 C 0.55823 0.47967 0.84773 0.0
H2194 H 0.54039 0.52675 0.8489 0.0
C2195 C 0.53593 0.50763 0.91002 0.0
C2196 C 0.51393 0.50807 0.90999 0.0
C2197 C 0.54552 0.50446 0.89522 0.0
C2198 C 0.5454 0.51358 0.84877 0.0
H2199 H 0.59269 0.4628 0.7974 0.0
H2200 H 0.58984 0.4769 0.82404 0.0
H2201 H 0.55386 0.52132 0.82189 0.0
H2202 H 0.48422 0.50398 0.89439 0.0
H2203 H 0.5014 0.49946 0.8687 0.0
H2204 H 0.5499 0.47226 0.87481 0.0
C2205 C 0.57955 0.47852 0.81357 0.0
C2206 C 0.553 0.51033 0.83326 0.0
C2207 C 0.58154 0.47077 0.79827 0.0
C2208 C 0.50155 0.50456 0.89489 0.0
C2209 C 0.51132 0.50182 0.88011 0.0
C2210 C 0.55099 0.4832 0.86333 0.0
C2211 C 0.56379 0.48745 0.81547 0.0
C2212 C 0.55889 0.4929 0.83238 0.0
C2213 C 0.53352 0.50199 0.88002 0.0
C2214 C 0.54389 0.4998 0.86393 0.0
H2215 H 0.54271 0.48289 0.77559 0.0
H2216 H 0.53872 0.49608 0.80211 0.0
H2217 H 0.5623 0.46589 0.84767 0.0
H2218 H 0.54611 0.51039 0.9213 0.0
H2219 H 0.56267 0.50461 0.89551 0.0
C2220 C 0.60821 0.16385 0.80793 0.0
C2221 C 0.59494 0.15809 0.79349 0.0
C2222 C 0.6045 0.14704 0.82145 0.0
C2223 C 0.57055 0.084 0.83513 0.0
H2224 H 0.5663 0.10277 0.87878 0.0
C2225 C 0.53036 0.0198 0.89686 0.0
C2226 C 0.51654 0.02409 0.90821 0.0
C2227 C 0.54361 0.03593 0.88291 0.0
C2228 C 0.56719 0.09716 0.86668 0.0
H2229 H 0.56845 0.13079 0.78114 0.0
H2230 H 0.56114 0.10138 0.80478 0.0
H2231 H 0.5841 0.13106 0.85399 0.0
H2232 H 0.50492 0.04806 0.91364 0.0
H2233 H 0.5271 0.07577 0.88904 0.0
H2234 H 0.55192 0.0499 0.84768 0.0
C2235 C 0.57495 0.11855 0.80576 0.0
C2236 C 0.57791 0.1135 0.85245 0.0
C2237 C 0.57899 0.13532 0.7922 0.0
C2238 C 0.51568 0.04448 0.90516 0.0
C2239 C 0.5286 0.06043 0.89114 0.0
C2240 C 0.55947 0.06759 0.84934 0.0
C2241 C 0.58703 0.12427 0.82083 0.0
C2242 C 0.57921 0.10713 0.83637 0.0
C2243 C 0.54304 0.05656 0.87996 0.0
C2244 C 0.55707 0.07394 0.86521 0.0
H2245 H 0.6205 0.18145 0.80906 0.0
H2246 H 0.61456 0.15205 0.83266 0.0
H2247 H 0.57166 0.07844 0.82305 0.0
H2248 H 0.53147 1.00426 0.89906 0.0
H2249 H 0.55466 0.03243 0.87467 0.0
C2250 C 0.11306 0.17863 0.56729 0.0
C2251 C 0.11073 0.18578 0.5827 0.0
C2252 C 0.12745 0.1945 0.5536 0.0
C2253 C 0.17254 0.25557 0.54118 0.0
H2254 H 0.1421 0.24543 0.49822 0.0
C2255 C 0.21345 0.31914 0.4791 0.0
C2256 C 0.19706 0.32236 0.46874 0.0
C2257 C 0.20516 0.30211 0.49312 0.0
C2258 C 0.1508 0.2486 0.51014 0.0
H2259 H 0.12173 0.21449 0.59644 0.0
H2260 H 0.14661 0.24252 0.57251 0.0
H2261 H 0.12469 0.2162 0.5226 0.0
H2262 H 0.15926 0.31103 0.46532 0.0
H2263 H 0.1448 0.28169 0.48985 0.0
H2264 H 0.19798 0.28853 0.52881 0.0
C2265 C 0.13792 0.22473 0.57092 0.0
C2266 C 0.14103 0.23165 0.52408 0.0
C2267 C 0.12369 0.2088 0.58461 0.0
C2268 C 0.17229 0.30867 0.47291 0.0
C2269 C 0.16402 0.29179 0.48693 0.0
C2270 C 0.18227 0.27263 0.52721 0.0
C2271 C 0.13946 0.21784 0.55509 0.0
C2272 C 0.15154 0.23502 0.53986 0.0
C2273 C 0.18032 0.28806 0.49707 0.0
C2274 C 0.17122 0.26948 0.51162 0.0
H2275 H 0.10304 0.16086 0.56571 0.0
H2276 H 0.12857 0.18856 0.5417 0.0
H2277 H 0.18127 0.25864 0.55309 0.0
H2278 H 0.23265 0.32934 0.47609 0.0
H2279 H 0.21818 0.2996 0.5006 0.0
C2280 C 0.74646 0.8727 0.58936 0.0
C2281 C 0.77154 0.88518 0.58948 0.0
C2282 C 0.7356 0.8642 0.57456 0.0
C2283 C 0.74917 0.87494 0.52755 0.0
H2284 H 0.68507 0.82357 0.52841 0.0
C2285 C 0.69692 0.84234 0.46705 0.0
C2286 C 0.67409 0.84109 0.46721 0.0
C2287 C 0.71003 0.84607 0.4817 0.0
C2288 C 0.70302 0.83792 0.528 0.0
H2289 H 0.80514 0.898 0.57478 0.0
H2290 H 0.78647 0.88196 0.5491 0.0
H2291 H 0.70602 0.83118 0.55469 0.0
H2292 H 0.64777 0.84365 0.48307 0.0
H2293 H 0.67014 0.84902 0.50864 0.0
H2294 H 0.74606 0.88126 0.50069 0.0
C2295 C 0.77495 0.87921 0.56018 0.0
C2296 C 0.71501 0.84242 0.54308 0.0
C2297 C 0.78573 0.88806 0.57493 0.0
C2298 C 0.66489 0.84381 0.48245 0.0
C2299 C 0.67776 0.84704 0.49713 0.0
C2300 C 0.73733 0.87013 0.51241 0.0
C2301 C 0.74968 0.86781 0.55958 0.0
C2302 C 0.73805 0.86134 0.54318 0.0
C2303 C 0.70041 0.84817 0.49692 0.0
C2304 C 0.71395 0.85189 0.51258 0.0
H2305 H 0.73531 0.87081 0.60042 0.0
H2306 H 0.71617 0.85593 0.57466 0.0
H2307 H 0.76664 0.88989 0.52702 0.0
H2308 H 0.70455 0.84002 0.45572 0.0
H2309 H 0.72749 0.84686 0.48125 0.0
C2310 C 0.13902 0.88096 0.59531 0.0
C2311 C 0.12199 0.88825 0.59718 0.0
C2312 C 0.14077 0.87227 0.58054 0.0
C2313 C 0.11037 0.84892 0.54204 0.0
H2314 H 0.17586 0.87503 0.52287 0.0
C2315 C 0.13303 0.83192 0.47567 0.0
C2316 C 0.15314 0.82848 0.47443 0.0
C2317 C 0.12825 0.83951 0.49021 0.0
C2318 C 0.15746 0.86731 0.52809 0.0
H2319 H 0.09242 0.89095 0.58572 0.0
H2320 H 0.09512 0.87536 0.55976 0.0
H2321 H 0.16826 0.88566 0.54953 0.0
H2322 H 0.18442 0.83122 0.48737 0.0
H2323 H 0.17582 0.84373 0.51266 0.0
H2324 H 0.09963 0.83029 0.52064 0.0
C2325 C 0.10722 0.87644 0.5697 0.0
C2326 C 0.1531 0.87344 0.54342 0.0
C2327 C 0.10558 0.88527 0.58453 0.0
C2328 C 0.16857 0.83332 0.48793 0.0
C2329 C 0.16378 0.84082 0.50241 0.0
C2330 C 0.11475 0.84262 0.5267 0.0
C2331 C 0.12541 0.87058 0.5673 0.0
C2332 C 0.12955 0.86414 0.55072 0.0
C2333 C 0.14351 0.84394 0.50384 0.0
C2334 C 0.13842 0.85154 0.51961 0.0
H2335 H 0.15164 0.88289 0.60504 0.0
H2336 H 0.1546 0.86742 0.57929 0.0
H2337 H 0.09202 0.84143 0.54733 0.0
H2338 H 0.12067 0.82824 0.46558 0.0
H2339 H 0.11262 0.84196 0.49074 0.0
C2340 C 0.60539 0.8023 0.11651 0.0
C2341 C 0.58078 0.79467 0.11487 0.0
C2342 C 0.6163 0.81153 0.13104 0.0
C2343 C 0.61101 0.8361 0.16881 0.0
H2344 H 0.6477 0.80823 0.189 0.0
C2345 C 0.65095 0.85296 0.23514 0.0
C2346 C 0.67409 0.85526 0.23671 0.0
C2347 C 0.63845 0.84571 0.22053 0.0
C2348 C 0.63781 0.81645 0.18347 0.0
H2349 H 0.5485 0.792 0.12634 0.0
H2350 H 0.56768 0.80858 0.15191 0.0
H2351 H 0.62892 0.79738 0.16243 0.0
H2352 H 0.70188 0.85111 0.22425 0.0
H2353 H 0.68064 0.83933 0.19874 0.0
H2354 H 0.62031 0.8555 0.18977 0.0
C2355 C 0.57852 0.80731 0.14198 0.0
C2356 C 0.62701 0.81018 0.16823 0.0
C2357 C 0.56756 0.79791 0.1274 0.0
C2358 C 0.68427 0.84989 0.22341 0.0
C2359 C 0.67188 0.84279 0.20883 0.0
C2360 C 0.62206 0.84257 0.18405 0.0
C2361 C 0.60281 0.81343 0.1442 0.0
C2362 C 0.61372 0.82009 0.16061 0.0
C2363 C 0.6488 0.84058 0.20716 0.0
C2364 C 0.63585 0.83299 0.19147 0.0
H2365 H 0.6159 0.80019 0.10683 0.0
H2366 H 0.63517 0.81654 0.13224 0.0
H2367 H 0.60085 0.844 0.16322 0.0
H2368 H 0.64263 0.85714 0.24506 0.0
H2369 H 0.62061 0.84399 0.21977 0.0
C2370 C 0.2387 0.7887 0.1356 0.0
C2371 C 0.23786 0.80054 0.12007 0.0
C2372 C 0.23703 0.79606 0.15105 0.0
C2373 C 0.24129 0.84412 0.17138 0.0
H2374 H 0.19497 0.79652 0.20501 0.0
C2375 C 0.21215 0.86506 0.233 0.0
C2376 C 0.20839 0.85052 0.24822 0.0
C2377 C 0.21531 0.85901 0.21728 0.0
C2378 C 0.20822 0.81003 0.19593 0.0
H2379 H 0.23597 0.82998 0.10832 0.0
H2380 H 0.23351 0.84337 0.13546 0.0
H2381 H 0.20344 0.78713 0.17799 0.0
H2382 H 0.20452 0.81797 0.25881 0.0
H2383 H 0.21045 0.80745 0.23142 0.0
H2384 H 0.24642 0.867 0.18938 0.0
C2385 C 0.2354 0.8283 0.13569 0.0
C2386 C 0.21306 0.80463 0.18037 0.0
C2387 C 0.23695 0.82078 0.12017 0.0
C2388 C 0.20712 0.82942 0.24729 0.0
C2389 C 0.21054 0.82344 0.23154 0.0
C2390 C 0.23662 0.84952 0.18703 0.0
C2391 C 0.23457 0.81555 0.15134 0.0
C2392 C 0.22968 0.82158 0.1679 0.0
C2393 C 0.21506 0.83831 0.21631 0.0
C2394 C 0.21998 0.83255 0.19955 0.0
H2395 H 0.23939 0.77303 0.13575 0.0
H2396 H 0.23695 0.7861 0.16282 0.0
H2397 H 0.25433 0.85755 0.16212 0.0
H2398 H 0.21295 0.88134 0.23328 0.0
H2399 H 0.21807 0.8707 0.20588 0.0
C2400 C 0.27344 0.49558 0.13936 0.0
C2401 C 0.25684 0.49056 0.12672 0.0
C2402 C 0.26984 0.47902 0.15311 0.0
C2403 C 0.23208 0.41713 0.16892 0.0
H2404 H 0.23855 0.43819 0.21303 0.0
C2405 C 0.19587 0.3547 0.23154 0.0
C2406 C 0.18446 0.36041 0.24378 0.0
C2407 C 0.20893 0.37039 0.21734 0.0
C2408 C 0.23654 0.432 0.20081 0.0
H2409 H 0.22485 0.46432 0.11745 0.0
H2410 H 0.21799 0.43562 0.14148 0.0
H2411 H 0.25459 0.46564 0.18746 0.0
H2412 H 0.17722 0.3867 0.2506 0.0
H2413 H 0.19928 0.41377 0.22568 0.0
H2414 H 0.21256 0.38351 0.18219 0.0
C2415 C 0.23388 0.45206 0.14098 0.0
C2416 C 0.24613 0.44777 0.18613 0.0
C2417 C 0.23755 0.46852 0.12733 0.0
C2418 C 0.18611 0.38196 0.24147 0.0
C2419 C 0.19893 0.39753 0.22724 0.0
C2420 C 0.22227 0.40136 0.18359 0.0
C2421 C 0.24962 0.45722 0.1543 0.0
C2422 C 0.24336 0.44055 0.16996 0.0
C2423 C 0.21065 0.39203 0.21503 0.0
C2424 C 0.22375 0.40861 0.19968 0.0
H2425 H 0.28856 0.51249 0.13892 0.0
H2426 H 0.28252 0.48346 0.16301 0.0
H2427 H 0.23004 0.41096 0.15669 0.0
H2428 H 0.19511 0.33828 0.23314 0.0
H2429 H 0.2179 0.36565 0.20829 0.0
C2430 C 0.78141 0.55153 0.9173 0.0
C2431 C 0.77529 0.52857 0.91899 0.0
C2432 C 0.79608 0.56648 0.9034 0.0
C2433 C 0.81221 0.56731 0.85918 0.0
H2434 H 0.85831 0.62997 0.86284 0.0
C2435 C 0.83766 0.63881 0.80383 0.0
C2436 C 0.8618 0.65591 0.80098 0.0
C2437 C 0.83034 0.62242 0.81813 0.0
C2438 C 0.84576 0.61246 0.8616 0.0
H2439 H 0.78037 0.50321 0.90829 0.0
H2440 H 0.80612 0.52945 0.88357 0.0
H2441 H 0.8409 0.60274 0.88863 0.0
H2442 H 0.89721 0.66909 0.81098 0.0
H2443 H 0.88425 0.64054 0.83621 0.0
H2444 H 0.81667 0.57713 0.83217 0.0
C2445 C 0.79938 0.53582 0.89293 0.0
C2446 C 0.83565 0.59692 0.87636 0.0
C2447 C 0.78479 0.52087 0.90699 0.0
C2448 C 0.87843 0.65631 0.8129 0.0
C2449 C 0.87105 0.63993 0.8273 0.0
C2450 C 0.82223 0.58287 0.84442 0.0
C2451 C 0.80491 0.55874 0.89091 0.0
C2452 C 0.81832 0.57432 0.87531 0.0
C2453 C 0.84693 0.62277 0.83002 0.0
C2454 C 0.83865 0.60573 0.8455 0.0
H2455 H 0.77459 0.55778 0.92669 0.0
H2456 H 0.79981 0.58395 0.90215 0.0
H2457 H 0.7988 0.55006 0.85796 0.0
H2458 H 0.82427 0.63827 0.79511 0.0
H2459 H 0.81152 0.60974 0.82007 0.0
C2460 C 0.45178 0.22807 0.90609 0.0
C2461 C 0.43943 0.21919 0.92215 0.0
C2462 C 0.44045 0.2195 0.89144 0.0
C2463 C 0.37875 0.19033 0.87696 0.0
H2464 H 0.41197 0.19415 0.83465 0.0
C2465 C 0.33796 0.1939 0.81269 0.0
C2466 C 0.34087 0.18252 0.79992 0.0
C2467 C 0.35025 0.19596 0.82759 0.0
C2468 C 0.4023 0.19269 0.84639 0.0
H2469 H 0.40668 0.19317 0.93589 0.0
H2470 H 0.38697 0.17734 0.91039 0.0
H2471 H 0.43303 0.19959 0.86094 0.0
H2472 H 0.35921 0.16453 0.79274 0.0
H2473 H 0.38057 0.16788 0.81892 0.0
H2474 H 0.34797 0.18314 0.86256 0.0
C2475 C 0.4051 0.19149 0.90893 0.0
C2476 C 0.41448 0.19606 0.86147 0.0
C2477 C 0.41641 0.20026 0.92356 0.0
C2478 C 0.35672 0.17353 0.8023 0.0
C2479 C 0.36896 0.17547 0.8173 0.0
C2480 C 0.36657 0.18683 0.86196 0.0
C2481 C 0.41657 0.20164 0.8926 0.0
C2482 C 0.403 0.19535 0.87691 0.0
C2483 C 0.36571 0.18655 0.83022 0.0
C2484 C 0.37831 0.18846 0.84639 0.0
H2485 H 0.46967 0.24258 0.90484 0.0
H2486 H 0.44992 0.22787 0.87917 0.0
H2487 H 0.36931 0.18991 0.88849 0.0
H2488 H 0.32626 0.20141 0.81112 0.0
H2489 H 0.34777 0.20514 0.837 0.0
C2490 C 0.7709 0.21879 0.91607 0.0
C2491 C 0.78639 0.22028 0.92909 0.0
C2492 C 0.77166 0.20917 0.90148 0.0
C2493 C 0.79704 0.17544 0.88364 0.0
H2494 H 0.79424 0.20692 0.84021 0.0
C2495 C 0.83886 0.16989 0.8213 0.0
C2496 C 0.82476 0.16508 0.80704 0.0
C2497 C 0.83143 0.17515 0.83593 0.0
C2498 C 0.7948 0.19779 0.85225 0.0
H2499 H 0.81378 0.212 0.93774 0.0
H2500 H 0.81566 0.19559 0.91234 0.0
H2501 H 0.78528 0.21748 0.86667 0.0
H2502 H 0.79198 0.16296 0.797 0.0
H2503 H 0.77943 0.17296 0.82247 0.0
H2504 H 0.80759 0.15648 0.86917 0.0
C2505 C 0.80261 0.20146 0.91324 0.0
C2506 C 0.78954 0.20375 0.86745 0.0
C2507 C 0.80169 0.21093 0.92779 0.0
C2508 C 0.80343 0.16667 0.80763 0.0
C2509 C 0.79614 0.17229 0.82226 0.0
C2510 C 0.80257 0.16972 0.86848 0.0
C2511 C 0.788 0.20088 0.89966 0.0
C2512 C 0.79102 0.19293 0.88341 0.0
C2513 C 0.80987 0.17616 0.83668 0.0
C2514 C 0.80193 0.18108 0.85262 0.0
H2515 H 0.75897 0.22595 0.9169 0.0
H2516 H 0.7598 0.20866 0.8915 0.0
H2517 H 0.79779 0.16629 0.89559 0.0
H2518 H 0.85575 0.16957 0.82124 0.0
H2519 H 0.84268 0.17856 0.84668 0.0
C2520 C 0.27476 0.13748 0.45117 0.0
C2521 C 0.25039 0.1303 0.44876 0.0
C2522 C 0.28541 0.14813 0.46529 0.0
C2523 C 0.26919 0.15267 0.50895 0.0
H2524 H 0.33719 0.1959 0.50769 0.0
C2525 C 0.32239 0.16939 0.56969 0.0
C2526 C 0.34208 0.19097 0.57043 0.0
C2527 C 0.30998 0.16435 0.55481 0.0
C2528 C 0.31809 0.18412 0.50832 0.0
H2529 H 0.21824 0.1296 0.45851 0.0
H2530 H 0.23696 0.14896 0.4831 0.0
H2531 H 0.31823 0.18467 0.48127 0.0
H2532 H 0.36347 0.22455 0.55651 0.0
H2533 H 0.34145 0.21606 0.53073 0.0
H2534 H 0.26896 0.15246 0.536 0.0
C2535 C 0.24778 0.14586 0.47432 0.0
C2536 C 0.30725 0.17741 0.49312 0.0
C2537 C 0.2371 0.13505 0.46018 0.0
C2538 C 0.34858 0.20766 0.5562 0.0
C2539 C 0.33599 0.20273 0.5414 0.0
C2540 C 0.27998 0.15954 0.52416 0.0
C2541 C 0.27195 0.15206 0.47728 0.0
C2542 C 0.28278 0.16121 0.49325 0.0
C2543 C 0.31678 0.18088 0.54037 0.0
C2544 C 0.3047 0.17502 0.5241 0.0
H2545 H 0.28534 0.13416 0.44236 0.0
H2546 H 0.30395 0.15238 0.46716 0.0
H2547 H 0.25036 0.14002 0.50962 0.0
H2548 H 0.31713 0.15614 0.58042 0.0
H2549 H 0.29557 0.14725 0.55447 0.0
C2550 C 0.91564 0.14153 0.46321 0.0
C2551 C 0.89983 0.13972 0.45035 0.0
C2552 C 0.91377 0.14959 0.47839 0.0
C2553 C 0.88361 0.17785 0.49859 0.0
H2554 H 0.88695 0.1438 0.54049 0.0
C2555 C 0.83427 0.17168 0.56121 0.0
C2556 C 0.84736 0.17634 0.57596 0.0
C2557 C 0.84391 0.1691 0.54631 0.0
C2558 C 0.88624 0.15364 0.5289 0.0
H2559 H 0.87076 0.14604 0.44263 0.0
H2560 H 0.86709 0.1598 0.46892 0.0
H2561 H 0.89909 0.13749 0.5132 0.0
H2562 H 0.88072 0.18088 0.58657 0.0
H2563 H 0.89722 0.17551 0.56055 0.0
H2564 H 0.86965 0.19314 0.51426 0.0
C2565 C 0.88119 0.15535 0.4675 0.0
C2566 C 0.89332 0.15014 0.51323 0.0
C2567 C 0.88316 0.14739 0.45241 0.0
C2568 C 0.87002 0.17723 0.57555 0.0
C2569 C 0.87956 0.17427 0.56062 0.0
C2570 C 0.87627 0.1811 0.51418 0.0
C2571 C 0.89602 0.15602 0.48093 0.0
C2572 C 0.89159 0.16183 0.49779 0.0
C2573 C 0.86678 0.17065 0.54574 0.0
C2574 C 0.87701 0.16871 0.52949 0.0
H2575 H 0.92851 0.13553 0.46189 0.0
H2576 H 0.92578 0.1502 0.48829 0.0
H2577 H 0.88259 0.18764 0.48709 0.0
H2578 H 0.81646 0.1701 0.56109 0.0
H2579 H 0.83338 0.16579 0.53518 0.0
C2580 C 0.90092 0.80196 0.45917 0.0
C2581 C 0.92 0.82413 0.45843 0.0
C2582 C 0.89764 0.78565 0.47285 0.0
C2583 C 0.9107 0.78152 0.51784 0.0
H2584 H 0.87895 0.71733 0.51365 0.0
C2585 C 0.85293 0.71443 0.57327 0.0
C2586 C 0.85227 0.6933 0.57541 0.0
C2587 C 0.86515 0.73026 0.55903 0.0
C2588 C 0.88817 0.73517 0.51511 0.0
H2589 H 0.95173 0.84647 0.47042 0.0
H2590 H 0.94633 0.81774 0.49457 0.0
H2591 H 0.89531 0.74503 0.48819 0.0
H2592 H 0.86403 0.67216 0.56441 0.0
H2593 H 0.88574 0.69998 0.53951 0.0
H2594 H 0.90373 0.77168 0.54475 0.0
C2595 C 0.93352 0.81308 0.48477 0.0
C2596 C 0.89731 0.75108 0.50047 0.0
C2597 C 0.93673 0.82947 0.471 0.0
C2598 C 0.86403 0.68825 0.56296 0.0
C2599 C 0.87647 0.70419 0.54873 0.0
C2600 C 0.90175 0.76562 0.53248 0.0
C2601 C 0.91358 0.79111 0.48604 0.0
C2602 C 0.90794 0.77443 0.50161 0.0
C2603 C 0.87721 0.72542 0.54661 0.0
C2604 C 0.88964 0.74224 0.53126 0.0
H2605 H 0.88819 0.79746 0.44932 0.0
H2606 H 0.88196 0.76906 0.47342 0.0
H2607 H 0.91866 0.79934 0.51923 0.0
H2608 H 0.84374 0.71865 0.58257 0.0
H2609 H 0.86476 0.74615 0.55763 0.0
loop_
_geom_bond_atom_site_label_1
_geom_bond_atom_site_label_2
_geom_bond_distance
_geom_bond_site_symmetry_2
_ccdc_geom_bond_type
C0 N1 1.317 . S
C0 N2 1.348 . S
C0 C3 1.485 . S
N1 C0 1.317 . S
N1 N5 1.370 . S
N2 C0 1.348 . S
N2 C4 1.346 . S
C3 C0 1.485 . S
C3 H7 0.960 . S
C3 H8 0.961 . S
C3 H9 0.960 . S
C4 N2 1.346 . S
C4 N5 1.307 . S
C4 C6 1.486 . S
N5 N1 1.370 . S
N5 C4 1.307 . S
C6 C4 1.486 . S
C6 H10 0.960 . S
C6 H11 0.960 . S
C6 H12 0.959 . S
H7 C3 0.960 . S
H8 C3 0.961 . S
H9 C3 0.960 . S
H10 C6 0.960 . S
H11 C6 0.960 . S
H12 C6 0.959 . S
C13 N14 1.317 . S
C13 N15 1.348 . S
C13 C16 1.485 . S
N14 C13 1.317 . S
N14 N18 1.370 . S
N15 C13 1.348 . S
N15 C17 1.346 . S
C16 C13 1.485 . S
C16 H20 0.960 . S
C16 H21 0.961 . S
C16 H22 0.960 . S
C17 N15 1.346 . S
C17 N18 1.307 . S
C17 C19 1.486 . S
N18 N14 1.370 . S
N18 C17 1.307 . S
C19 C17 1.486 . S
C19 H23 0.960 . S
C19 H24 0.960 . S
C19 H25 0.959 . S
H20 C16 0.960 . S
H21 C16 0.961 . S
H22 C16 0.960 . S
H23 C19 0.960 . S
H24 C19 0.960 . S
H25 C19 0.959 . S
C26 N27 1.317 . S
C26 N28 1.348 . S
C26 C29 1.485 . S
N27 C26 1.317 . S
N27 N31 1.370 . S
N28 C26 1.348 . S
N28 C30 1.346 . S
C29 C26 1.485 . S
C29 H33 0.960 . S
C29 H34 0.961 . S
C29 H35 0.960 . S
C30 N28 1.346 . S
C30 N31 1.307 . S
C30 C32 1.486 . S
N31 N27 1.370 . S
N31 C30 1.307 . S
C32 C30 1.486 . S
C32 H36 0.960 . S
C32 H37 0.960 . S
C32 H38 0.959 . S
H33 C29 0.960 . S
H34 C29 0.961 . S
H35 C29 0.960 . S
H36 C32 0.960 . S
H37 C32 0.960 . S
H38 C32 0.959 . S
C39 N40 1.317 . S
C39 N41 1.348 . S
C39 C42 1.485 . S
N40 C39 1.317 . S
N40 N44 1.370 . S
N41 C39 1.348 . S
N41 C43 1.346 . S
C42 C39 1.485 . S
C42 H46 0.960 . S
C42 H47 0.961 . S
C42 H48 0.960 . S
C43 N41 1.346 . S
C43 N44 1.307 . S
C43 C45 1.486 . S
N44 N40 1.370 . S
N44 C43 1.307 . S
C45 C43 1.486 . S
C45 H49 0.960 . S
C45 H50 0.960 . S
C45 H51 0.959 . S
H46 C42 0.960 . S
H47 C42 0.961 . S
H48 C42 0.960 . S
H49 C45 0.960 . S
H50 C45 0.960 . S
H51 C45 0.959 . S
C52 N53 1.317 . S
C52 N54 1.348 . S
C52 C55 1.485 . S
N53 C52 1.317 . S
N53 N57 1.370 . S
N54 C52 1.348 . S
N54 C56 1.346 . S
C55 C52 1.485 . S
C55 H59 0.960 . S
C55 H60 0.961 . S
C55 H61 0.960 . S
C56 N54 1.346 . S
C56 N57 1.307 . S
C56 C58 1.486 . S
N57 N53 1.370 . S
N57 C56 1.307 . S
C58 C56 1.486 . S
C58 H62 0.960 . S
C58 H63 0.960 . S
C58 H64 0.959 . S
H59 C55 0.960 . S
H60 C55 0.961 . S
H61 C55 0.960 . S
H62 C58 0.960 . S
H63 C58 0.960 . S
H64 C58 0.959 . S
C65 N66 1.317 . S
C65 N67 1.348 . S
C65 C68 1.485 . S
N66 C65 1.317 . S
N66 N70 1.370 . S
N67 C65 1.348 . S
N67 C69 1.346 . S
C68 C65 1.485 . S
C68 H72 0.960 . S
C68 H73 0.961 . S
C68 H74 0.960 . S
C69 N67 1.346 . S
C69 N70 1.307 . S
C69 C71 1.486 . S
N70 N66 1.370 . S
N70 C69 1.307 . S
C71 C69 1.486 . S
C71 H75 0.960 . S
C71 H76 0.960 . S
C71 H77 0.959 . S
H72 C68 0.960 . S
H73 C68 0.961 . S
H74 C68 0.960 . S
H75 C71 0.960 . S
H76 C71 0.960 . S
H77 C71 0.959 . S
C78 N79 1.317 . S
C78 N80 1.348 . S
C78 C81 1.485 . S
N79 C78 1.317 . S
N79 N83 1.370 . S
N80 C78 1.348 . S
N80 C82 1.346 . S
C81 C78 1.485 . S
C81 H85 0.960 . S
C81 H86 0.961 . S
C81 H87 0.960 . S
C82 N80 1.346 . S
C82 N83 1.307 . S
C82 C84 1.486 . S
N83 N79 1.370 . S
N83 C82 1.307 . S
C84 C82 1.486 . S
C84 H88 0.960 . S
C84 H89 0.960 . S
C84 H90 0.959 . S
H85 C81 0.960 . S
H86 C81 0.961 . S
H87 C81 0.960 . S
H88 C84 0.960 . S
H89 C84 0.960 . S
H90 C84 0.959 . S
C91 N92 1.317 . S
C91 N93 1.348 . S
C91 C94 1.485 . S
N92 C91 1.317 . S
N92 N96 1.370 . S
N93 C91 1.348 . S
N93 C95 1.346 . S
C94 C91 1.485 . S
C94 H98 0.960 . S
C94 H99 0.961 . S
C94 H100 0.960 . S
C95 N93 1.346 . S
C95 N96 1.307 . S
C95 C97 1.486 . S
N96 N92 1.370 . S
N96 C95 1.307 . S
C97 C95 1.486 . S
C97 H101 0.960 . S
C97 H102 0.960 . S
C97 H103 0.959 . S
H98 C94 0.960 . S
H99 C94 0.961 . S
H100 C94 0.960 . S
H101 C97 0.960 . S
H102 C97 0.960 . S
H103 C97 0.959 . S
C104 N105 1.317 . S
C104 N106 1.348 . S
C104 C107 1.485 . S
N105 C104 1.317 . S
N105 N109 1.370 . S
N106 C104 1.348 . S
N106 C108 1.346 . S
C107 C104 1.485 . S
C107 H111 0.960 . S
C107 H112 0.961 . S
C107 H113 0.960 . S
C108 N106 1.346 . S
C108 N109 1.307 . S
C108 C110 1.486 . S
N109 N105 1.370 . S
N109 C108 1.307 . S
C110 C108 1.486 . S
C110 H114 0.960 . S
C110 H115 0.960 . S
C110 H116 0.959 . S
H111 C107 0.960 . S
H112 C107 0.961 . S
H113 C107 0.960 . S
H114 C110 0.960 . S
H115 C110 0.960 . S
H116 C110 0.959 . S
C117 N118 1.317 . S
C117 N119 1.348 . S
C117 C120 1.485 . S
N118 C117 1.317 . S
N118 N122 1.370 . S
N119 C117 1.348 . S
N119 C121 1.346 . S
C120 C117 1.485 . S
C120 H124 0.960 . S
C120 H125 0.961 . S
C120 H126 0.960 . S
C121 N119 1.346 . S
C121 N122 1.307 . S
C121 C123 1.486 . S
N122 N118 1.370 . S
N122 C121 1.307 . S
C123 C121 1.486 . S
C123 H127 0.960 . S
C123 H128 0.960 . S
C123 H129 0.959 . S
H124 C120 0.960 . S
H125 C120 0.961 . S
H126 C120 0.960 . S
H127 C123 0.960 . S
H128 C123 0.960 . S
H129 C123 0.959 . S
C130 N131 1.317 . S
C130 N132 1.348 . S
C130 C133 1.485 . S
N131 C130 1.317 . S
N131 N135 1.370 . S
N132 C130 1.348 . S
N132 C134 1.346 . S
C133 C130 1.485 . S
C133 H137 0.960 . S
C133 H138 0.961 . S
C133 H139 0.960 . S
C134 N132 1.346 . S
C134 N135 1.307 . S
C134 C136 1.486 . S
N135 N131 1.370 . S
N135 C134 1.307 . S
C136 C134 1.486 . S
C136 H140 0.960 . S
C136 H141 0.960 . S
C136 H142 0.959 . S
H137 C133 0.960 . S
H138 C133 0.961 . S
H139 C133 0.960 . S
H140 C136 0.960 . S
H141 C136 0.960 . S
H142 C136 0.959 . S
C143 N144 1.317 . S
C143 N145 1.348 . S
C143 C146 1.485 . S
N144 C143 1.317 . S
N144 N148 1.370 . S
N145 C143 1.348 . S
N145 C147 1.346 . S
C146 C143 1.485 . S
C146 H150 0.960 . S
C146 H151 0.961 . S
C146 H152 0.960 . S
C147 N145 1.346 . S
C147 N148 1.307 . S
C147 C149 1.486 . S
N148 N144 1.370 . S
N148 C147 1.307 . S
C149 C147 1.486 . S
C149 H153 0.960 . S
C149 H154 0.960 . S
C149 H155 0.959 . S
H150 C146 0.960 . S
H151 C146 0.961 . S
H152 C146 0.960 . S
H153 C149 0.960 . S
H154 C149 0.960 . S
H155 C149 0.959 . S
C156 N157 1.317 . S
C156 N158 1.348 . S
C156 C159 1.485 . S
N157 C156 1.317 . S
N157 N161 1.370 . S
N158 C156 1.348 . S
N158 C160 1.346 . S
C159 C156 1.485 . S
C159 H163 0.960 . S
C159 H164 0.961 . S
C159 H165 0.960 . S
C160 N158 1.346 . S
C160 N161 1.307 . S
C160 C162 1.486 . S
N161 N157 1.370 . S
N161 C160 1.307 . S
C162 C160 1.486 . S
C162 H166 0.960 . S
C162 H167 0.960 . S
C162 H168 0.959 . S
H163 C159 0.960 . S
H164 C159 0.961 . S
H165 C159 0.960 . S
H166 C162 0.960 . S
H167 C162 0.960 . S
H168 C162 0.959 . S
C169 N170 1.317 . S
C169 N171 1.348 . S
C169 C172 1.485 . S
N170 C169 1.317 . S
N170 N174 1.370 . S
N171 C169 1.348 . S
N171 C173 1.346 . S
C172 C169 1.485 . S
C172 H176 0.960 . S
C172 H177 0.961 . S
C172 H178 0.960 . S
C173 N171 1.346 . S
C173 N174 1.307 . S
C173 C175 1.486 . S
N174 N170 1.370 . S
N174 C173 1.307 . S
C175 C173 1.486 . S
C175 H179 0.960 . S
C175 H180 0.960 . S
C175 H181 0.959 . S
H176 C172 0.960 . S
H177 C172 0.961 . S
H178 C172 0.960 . S
H179 C175 0.960 . S
H180 C175 0.960 . S
H181 C175 0.959 . S
C182 N183 1.317 . S
C182 N184 1.348 . S
C182 C185 1.485 . S
N183 C182 1.317 . S
N183 N187 1.370 . S
N184 C182 1.348 . S
N184 C186 1.346 . S
C185 C182 1.485 . S
C185 H189 0.960 . S
C185 H190 0.961 . S
C185 H191 0.960 . S
C186 N184 1.346 . S
C186 N187 1.307 . S
C186 C188 1.486 . S
N187 N183 1.370 . S
N187 C186 1.307 . S
C188 C186 1.486 . S
C188 H192 0.960 . S
C188 H193 0.960 . S
C188 H194 0.959 . S
H189 C185 0.960 . S
H190 C185 0.961 . S
H191 C185 0.960 . S
H192 C188 0.960 . S
H193 C188 0.960 . S
H194 C188 0.959 . S
C195 N196 1.317 . S
C195 N197 1.348 . S
C195 C198 1.485 . S
N196 C195 1.317 . S
N196 N200 1.370 . S
N197 C195 1.348 . S
N197 C199 1.346 . S
C198 C195 1.485 . S
C198 H202 0.960 . S
C198 H203 0.961 . S
C198 H204 0.960 . S
C199 N197 1.346 . S
C199 N200 1.307 . S
C199 C201 1.486 . S
N200 N196 1.370 . S
N200 C199 1.307 . S
C201 C199 1.486 . S
C201 H205 0.960 . S
C201 H206 0.960 . S
C201 H207 0.959 . S
H202 C198 0.960 . S
H203 C198 0.961 . S
H204 C198 0.960 . S
H205 C201 0.960 . S
H206 C201 0.960 . S
H207 C201 0.959 . S
C208 N209 1.317 . S
C208 N210 1.348 . S
C208 C211 1.485 . S
N209 C208 1.317 . S
N209 N213 1.370 . S
N210 C208 1.348 . S
N210 C212 1.346 . S
C211 C208 1.485 . S
C211 H215 0.960 . S
C211 H216 0.961 . S
C211 H217 0.960 . S
C212 N210 1.346 . S
C212 N213 1.307 . S
C212 C214 1.486 . S
N213 N209 1.370 . S
N213 C212 1.307 . S
C214 C212 1.486 . S
C214 H218 0.960 . S
C214 H219 0.960 . S
C214 H220 0.959 . S
H215 C211 0.960 . S
H216 C211 0.961 . S
H217 C211 0.960 . S
H218 C214 0.960 . S
H219 C214 0.960 . S
H220 C214 0.959 . S
C221 N222 1.317 . S
C221 N223 1.348 . S
C221 C224 1.485 . S
N222 C221 1.317 . S
N222 N226 1.370 . S
N223 C221 1.348 . S
N223 C225 1.346 . S
C224 C221 1.485 . S
C224 H228 0.960 . S
C224 H229 0.961 . S
C224 H230 0.960 . S
C225 N223 1.346 . S
C225 N226 1.307 . S
C225 C227 1.486 . S
N226 N222 1.370 . S
N226 C225 1.307 . S
C227 C225 1.486 . S
C227 H231 0.960 . S
C227 H232 0.960 . S
C227 H233 0.959 . S
H228 C224 0.960 . S
H229 C224 0.961 . S
H230 C224 0.960 . S
H231 C227 0.960 . S
H232 C227 0.960 . S
H233 C227 0.959 . S
Tb234 N265 2.660 . S
Tb234 N272 2.600 . S
Tb234 O278 2.546 . S
Tb234 O279 2.610 1_566 S
Tb234 O281 2.320 1_565 S
Tb234 O282 2.552 1_565 S
Tb234 O283 2.413 1_565 S
Tb234 O285 2.362 1_556 S
Tb234 O286 2.421 1_556 S
Tb234 C298 2.833 1_565 S
C235 C238 1.432 . S
C235 C239 1.414 . S
C235 N242 1.359 . S
C236 C238 1.417 . S
C236 C240 1.432 . S
C236 C248 1.410 . S
C237 C239 1.444 . S
C237 C240 1.317 . S
C237 H260 0.929 . S
C238 C235 1.432 . S
C238 C236 1.417 . S
C238 N246 1.360 . S
C239 C235 1.414 . S
C239 C237 1.444 . S
C239 C244 1.385 . S
C240 C236 1.432 . S
C240 C237 1.317 . S
C240 H252 0.930 . S
C241 C243 1.392 . S
C241 C244 1.370 . S
C241 H253 0.931 . S
N242 C235 1.359 . S
N242 C243 1.327 . S
N242 Tb245 2.600 . S
C243 C241 1.392 . S
C243 N242 1.327 . S
C243 H250 0.930 . S
C244 C239 1.385 . S
C244 C241 1.370 . S
C244 H263 0.930 . S
Tb245 N242 2.600 . S
Tb245 N246 2.660 . S
Tb245 O279 2.362 . S
Tb245 O280 2.421 . S
Tb245 O284 2.546 . S
Tb245 O285 2.610 1_545 S
Tb245 O287 2.320 1_545 S
Tb245 O288 2.552 1_545 S
Tb245 O289 2.413 1_545 S
Tb245 C309 2.833 1_545 S
N246 C238 1.360 . S
N246 Tb245 2.660 . S
N246 C247 1.305 . S
C247 N246 1.305 . S
C247 C249 1.407 . S
C247 H254 0.930 . S
C248 C236 1.410 . S
C248 C249 1.345 . S
C248 H256 0.930 . S
C249 C247 1.407 . S
C249 C248 1.345 . S
C249 H251 0.930 . S
H250 C243 0.930 . S
H251 C249 0.930 . S
H252 C240 0.930 . S
H253 C241 0.931 . S
H254 C247 0.930 . S
H255 C269 0.930 . S
H256 C248 0.930 . S
H257 C275 0.930 . S
H258 C266 0.930 1_545 S
H259 C273 0.931 . S
H260 C237 0.929 . S
H261 C267 0.930 . S
H262 C300 0.930 . S
H263 C244 0.930 . S
H264 C299 0.929 . S
N265 Tb234 2.660 . S
N265 C266 1.305 . S
N265 C270 1.360 . S
C266 H258 0.930 1_565 S
C266 N265 1.305 . S
C266 C269 1.407 . S
C267 H261 0.930 . S
C267 C268 1.410 . S
C267 C269 1.345 . S
C268 C267 1.410 . S
C268 C270 1.417 . S
C268 C300 1.432 . S
C269 H255 0.930 . S
C269 C266 1.407 . S
C269 C267 1.345 . S
C270 N265 1.360 . S
C270 C268 1.417 . S
C270 C274 1.432 . S
H271 C276 0.930 . S
N272 Tb234 2.600 . S
N272 C274 1.359 . S
N272 C275 1.327 . S
C273 H259 0.931 . S
C273 C275 1.392 . S
C273 C276 1.370 . S
C274 C270 1.432 . S
C274 N272 1.359 . S
C274 C277 1.414 . S
C275 H257 0.930 . S
C275 N272 1.327 . S
C275 C273 1.392 . S
C276 H271 0.930 . S
C276 C273 1.370 . S
C276 C277 1.385 . S
C277 C274 1.414 . S
C277 C276 1.385 . S
C277 C299 1.444 . S
O278 Tb234 2.546 . S
O278 C298 1.251 1_565 S
O279 Tb234 2.610 1_544 S
O279 Tb245 2.362 . S
O279 C290 1.283 . S
O280 Tb245 2.421 . S
O280 C297 1.262 . S
O281 Tb234 2.320 1_545 S
O281 C297 1.260 1_556 S
O282 Tb234 2.552 1_545 S
O282 C290 1.243 1_556 S
O283 Tb234 2.413 1_545 S
O283 C298 1.256 . S
O284 Tb245 2.546 . S
O284 C309 1.251 1_545 S
O285 Tb234 2.362 1_554 S
O285 Tb245 2.610 1_565 S
O285 C301 1.283 . S
O286 Tb234 2.421 1_554 S
O286 C308 1.262 . S
O287 Tb245 2.320 1_565 S
O287 C308 1.260 . S
O288 Tb245 2.552 1_565 S
O288 C301 1.243 . S
O289 Tb245 2.413 1_565 S
O289 C309 1.256 . S
C290 O279 1.283 . S
C290 O282 1.243 1_554 S
C291 C293 1.382 . S
C291 C295 1.393 . S
C291 C298 1.500 . S
C292 C293 1.400 . S
C292 C294 1.384 . S
C293 C291 1.382 . S
C293 C292 1.400 . S
C293 H310 0.930 . S
C294 C292 1.384 . S
C294 C296 1.392 . S
C294 H311 0.931 . S
C295 C291 1.393 . S
C295 C296 1.401 . S
C295 H312 0.930 1_545 S
C296 C294 1.392 . S
C296 C295 1.401 . S
C296 H313 0.930 . S
C297 O280 1.262 . S
C297 O281 1.260 1_554 S
C298 Tb234 2.833 1_545 S
C298 O278 1.251 1_545 S
C298 O283 1.256 . S
C298 C291 1.500 . S
C299 H264 0.929 . S
C299 C277 1.444 . S
C299 C300 1.317 . S
C300 H262 0.930 . S
C300 C268 1.432 . S
C300 C299 1.317 . S
C301 O285 1.283 . S
C301 O288 1.243 . S
C302 C303 1.382 . S
C302 C306 1.393 . S
C302 C309 1.500 . S
C303 C302 1.382 . S
C303 C304 1.400 . S
C303 H314 0.930 . S
C304 C303 1.400 . S
C304 C305 1.384 . S
C305 C304 1.384 . S
C305 C307 1.392 . S
C305 H315 0.931 . S
C306 C302 1.393 . S
C306 C307 1.401 . S
C306 H316 0.930 1_565 S
C307 C305 1.392 . S
C307 C306 1.401 . S
C307 H317 0.930 . S
C308 O286 1.262 . S
C308 O287 1.260 . S
C309 Tb245 2.833 1_565 S
C309 O284 1.251 1_565 S
C309 O289 1.256 . S
C309 C302 1.500 . S
H310 C293 0.930 . S
H311 C294 0.931 . S
H312 C295 0.930 1_565 S
H313 C296 0.930 . S
H314 C303 0.930 . S
H315 C305 0.931 . S
H316 C306 0.930 1_545 S
H317 C307 0.930 . S
Tb318 N349 2.660 . S
Tb318 N356 2.600 . S
Tb318 O362 2.546 . S
Tb318 O363 2.610 1_456 S
Tb318 O365 2.320 1_455 S
Tb318 O366 2.552 1_455 S
Tb318 O367 2.413 . S
Tb318 O369 2.362 1_556 S
Tb318 O370 2.421 . S
Tb318 C382 2.833 . S
C319 C322 1.432 . S
C319 C323 1.414 . S
C319 N326 1.359 . S
C320 C322 1.417 . S
C320 C324 1.432 . S
C320 C332 1.410 . S
C321 C323 1.444 . S
C321 C324 1.317 . S
C321 H344 0.929 . S
C322 C319 1.432 . S
C322 C320 1.417 . S
C322 N330 1.360 . S
C323 C319 1.414 . S
C323 C321 1.444 . S
C323 C328 1.385 . S
C324 C320 1.432 . S
C324 C321 1.317 . S
C324 H336 0.930 . S
C325 C327 1.392 . S
C325 C328 1.370 . S
C325 H337 0.931 . S
N326 C319 1.359 . S
N326 C327 1.327 . S
N326 Tb329 2.600 . S
C327 C325 1.392 . S
C327 N326 1.327 . S
C327 H334 0.930 . S
C328 C323 1.385 . S
C328 C325 1.370 . S
C328 H347 0.930 . S
Tb329 N326 2.600 . S
Tb329 N330 2.660 . S
Tb329 O363 2.362 . S
Tb329 O364 2.421 . S
Tb329 O368 2.546 . S
Tb329 O369 2.610 1_655 S
Tb329 O371 2.320 1_655 S
Tb329 O372 2.552 1_655 S
Tb329 O373 2.413 1_655 S
Tb329 C393 2.833 . S
N330 C322 1.360 . S
N330 Tb329 2.660 . S
N330 C331 1.305 . S
C331 N330 1.305 . S
C331 C333 1.407 . S
C331 H338 0.930 . S
C332 C320 1.410 . S
C332 C333 1.345 . S
C332 H340 0.930 . S
C333 C331 1.407 . S
C333 C332 1.345 . S
C333 H335 0.930 . S
H334 C327 0.930 . S
H335 C333 0.930 . S
H336 C324 0.930 . S
H337 C325 0.931 . S
H338 C331 0.930 . S
H339 C353 0.930 . S
H340 C332 0.930 . S
H341 C359 0.930 . S
H342 C350 0.930 . S
H343 C357 0.931 . S
H344 C321 0.929 . S
H345 C351 0.930 . S
H346 C384 0.930 . S
H347 C328 0.930 . S
H348 C383 0.929 . S
N349 Tb318 2.660 . S
N349 C350 1.305 . S
N349 C354 1.360 . S
C350 H342 0.930 . S
C350 N349 1.305 . S
C350 C353 1.407 . S
C351 H345 0.930 . S
C351 C352 1.410 . S
C351 C353 1.345 . S
C352 C351 1.410 . S
C352 C354 1.417 . S
C352 C384 1.432 . S
C353 H339 0.930 . S
C353 C350 1.407 . S
C353 C351 1.345 . S
C354 N349 1.360 . S
C354 C352 1.417 . S
C354 C358 1.432 . S
H355 C360 0.930 . S
N356 Tb318 2.600 . S
N356 C358 1.359 . S
N356 C359 1.327 . S
C357 H343 0.931 . S
C357 C359 1.392 . S
C357 C360 1.370 . S
C358 C354 1.432 . S
C358 N356 1.359 . S
C358 C361 1.414 . S
C359 H341 0.930 . S
C359 N356 1.327 . S
C359 C357 1.392 . S
C360 H355 0.930 . S
C360 C357 1.370 . S
C360 C361 1.385 . S
C361 C358 1.414 . S
C361 C360 1.385 . S
C361 C383 1.444 . S
O362 Tb318 2.546 . S
O362 C382 1.251 . S
O363 Tb318 2.610 1_654 S
O363 Tb329 2.362 . S
O363 C374 1.283 1_554 S
O364 Tb329 2.421 . S
O364 C381 1.308 . S
O365 Tb318 2.320 1_655 S
O365 C381 1.232 1_556 S
O366 Tb318 2.552 1_655 S
O366 C374 1.243 . S
O367 Tb318 2.413 . S
O367 C382 1.256 . S
O368 Tb329 2.546 . S
O368 C393 1.251 . S
O369 Tb318 2.362 1_554 S
O369 Tb329 2.610 1_455 S
O369 C385 1.283 . S
O370 Tb318 2.421 . S
O370 C392 1.262 1_556 S
O371 Tb329 2.320 1_455 S
O371 C392 1.260 . S
O372 Tb329 2.552 1_455 S
O372 C385 1.243 . S
O373 Tb329 2.413 1_455 S
O373 C393 1.256 1_455 S
C374 O363 1.283 1_556 S
C374 O366 1.243 . S
C375 C377 1.382 1_455 S
C375 C379 1.393 . S
C375 C382 1.500 . S
C376 C377 1.400 . S
C376 C378 1.384 1_655 S
C377 C375 1.382 1_655 S
C377 C376 1.400 . S
C377 H394 0.930 . S
C378 C376 1.384 1_455 S
C378 C380 1.392 . S
C378 H395 0.931 . S
C379 C375 1.393 . S
C379 C380 1.401 . S
C379 H396 0.930 . S
C380 C378 1.392 . S
C380 C379 1.401 . S
C380 H397 0.930 . S
C381 O364 1.308 . S
C381 O365 1.232 1_554 S
C382 Tb318 2.833 . S
C382 O362 1.251 . S
C382 O367 1.256 . S
C382 C375 1.500 . S
C383 H348 0.929 . S
C383 C361 1.444 . S
C383 C384 1.317 . S
C384 H346 0.930 . S
C384 C352 1.432 . S
C384 C383 1.317 . S
C385 O369 1.283 . S
C385 O372 1.243 . S
C386 C387 1.382 . S
C386 C390 1.393 1_455 S
C386 C393 1.500 1_455 S
C387 C386 1.382 . S
C387 C388 1.400 . S
C387 H398 0.930 . S
C388 C387 1.400 . S
C388 C389 1.384 . S
C389 C388 1.384 . S
C389 C391 1.392 1_455 S
C389 H399 0.931 . S
C390 C386 1.393 1_655 S
C390 C391 1.401 . S
C390 H400 0.930 . S
C391 C389 1.392 1_655 S
C391 C390 1.401 . S
C391 H401 0.930 . S
C392 O370 1.262 1_554 S
C392 O371 1.260 . S
C393 Tb329 2.833 . S
C393 O368 1.251 . S
C393 O373 1.256 1_655 S
C393 C386 1.500 1_655 S
H394 C377 0.930 . S
H395 C378 0.931 . S
H396 C379 0.930 . S
H397 C380 0.930 . S
H398 C387 0.930 . S
H399 C389 0.931 . S
H400 C390 0.930 . S
H401 C391 0.930 . S
Tb402 N433 2.660 . S
Tb402 N440 2.600 . S
Tb402 O446 2.546 . S
Tb402 O447 2.610 . S
Tb402 O449 2.320 . S
Tb402 O450 2.552 . S
Tb402 O451 2.413 . S
Tb402 O453 2.362 . S
Tb402 O454 2.421 . S
Tb402 C466 2.833 . S
C403 C406 1.432 . S
C403 C407 1.414 . S
C403 N410 1.359 . S
C404 C406 1.417 . S
C404 C408 1.432 . S
C404 C416 1.410 . S
C405 C407 1.444 . S
C405 C408 1.317 . S
C405 H428 0.929 . S
C406 C403 1.432 . S
C406 C404 1.417 . S
C406 N414 1.360 . S
C407 C403 1.414 . S
C407 C405 1.444 . S
C407 C412 1.385 . S
C408 C404 1.432 . S
C408 C405 1.317 . S
C408 H420 0.930 . S
C409 C411 1.392 . S
C409 C412 1.370 . S
C409 H421 0.931 . S
N410 C403 1.359 . S
N410 C411 1.327 . S
N410 Tb413 2.600 1_556 S
C411 C409 1.392 . S
C411 N410 1.327 . S
C411 H418 0.930 . S
C412 C407 1.385 . S
C412 C409 1.370 . S
C412 H431 0.930 . S
Tb413 N410 2.600 1_554 S
Tb413 N414 2.660 1_554 S
Tb413 O447 2.362 . S
Tb413 O448 2.421 . S
Tb413 O452 2.546 1_554 S
Tb413 O453 2.610 . S
Tb413 O455 2.320 . S
Tb413 O456 2.552 1_554 S
Tb413 O457 2.413 1_554 S
Tb413 C477 2.833 1_554 S
N414 C406 1.360 . S
N414 Tb413 2.660 1_556 S
N414 C415 1.305 1_556 S
C415 N414 1.305 1_554 S
C415 C417 1.407 . S
C415 H422 0.930 . S
C416 C404 1.410 . S
C416 C417 1.345 1_556 S
C416 H424 0.930 . S
C417 C415 1.407 . S
C417 C416 1.345 1_554 S
C417 H419 0.930 . S
H418 C411 0.930 . S
H419 C417 0.930 . S
H420 C408 0.930 . S
H421 C409 0.931 . S
H422 C415 0.930 . S
H423 C437 0.930 . S
H424 C416 0.930 . S
H425 C443 0.930 . S
H426 C434 0.930 . S
H427 C441 0.931 . S
H428 C405 0.929 . S
H429 C435 0.930 . S
H430 C468 0.930 . S
H431 C412 0.930 . S
H432 C467 0.929 . S
N433 Tb402 2.660 . S
N433 C434 1.305 . S
N433 C438 1.360 . S
C434 H426 0.930 . S
C434 N433 1.305 . S
C434 C437 1.407 . S
C435 H429 0.930 . S
C435 C436 1.410 . S
C435 C437 1.345 . S
C436 C435 1.410 . S
C436 C438 1.417 . S
C436 C468 1.432 . S
C437 H423 0.930 . S
C437 C434 1.407 . S
C437 C435 1.345 . S
C438 N433 1.360 . S
C438 C436 1.417 . S
C438 C442 1.432 . S
H439 C444 0.930 . S
N440 Tb402 2.600 . S
N440 C442 1.359 . S
N440 C443 1.327 . S
C441 H427 0.931 . S
C441 C443 1.392 . S
C441 C444 1.370 . S
C442 C438 1.432 . S
C442 N440 1.359 . S
C442 C445 1.414 . S
C443 H425 0.930 . S
C443 N440 1.327 . S
C443 C441 1.392 . S
C444 H439 0.930 . S
C444 C441 1.370 . S
C444 C445 1.385 . S
C445 C442 1.414 . S
C445 C444 1.385 . S
C445 C467 1.444 . S
O446 Tb402 2.546 . S
O446 C466 1.251 . S
O447 Tb402 2.610 . S
O447 Tb413 2.362 . S
O447 C458 1.283 . S
O448 Tb413 2.421 . S
O448 C465 1.262 . S
O449 Tb402 2.320 . S
O449 C465 1.260 . S
O450 Tb402 2.552 . S
O450 C458 1.243 . S
O451 Tb402 2.413 . S
O451 C466 1.256 . S
O452 Tb413 2.546 1_556 S
O452 C477 1.251 . S
O453 Tb402 2.362 . S
O453 Tb413 2.610 . S
O453 C469 1.283 . S
O454 Tb402 2.421 . S
O454 C476 1.262 . S
O455 Tb413 2.320 . S
O455 C476 1.260 . S
O456 Tb413 2.552 1_556 S
O456 C469 1.243 1_556 S
O457 Tb413 2.413 1_556 S
O457 C477 1.256 . S
C458 O447 1.283 . S
C458 O450 1.243 . S
C459 C461 1.382 . S
C459 C463 1.393 . S
C459 C466 1.500 . S
C460 C461 1.400 . S
C460 C462 1.384 . S
C461 C459 1.382 . S
C461 C460 1.400 . S
C461 H478 0.930 . S
C462 C460 1.384 . S
C462 C464 1.392 . S
C462 H479 0.931 . S
C463 C459 1.393 . S
C463 C464 1.401 . S
C463 H480 0.930 . S
C464 C462 1.392 . S
C464 C463 1.401 . S
C464 H481 0.930 . S
C465 O448 1.262 . S
C465 O449 1.260 . S
C466 Tb402 2.833 . S
C466 O446 1.251 . S
C466 O451 1.256 . S
C466 C459 1.500 . S
C467 H432 0.929 . S
C467 C445 1.444 . S
C467 C468 1.317 . S
C468 H430 0.930 . S
C468 C436 1.432 . S
C468 C467 1.317 . S
C469 O453 1.283 . S
C469 O456 1.243 1_554 S
C470 C471 1.382 . S
C470 C474 1.393 . S
C470 C477 1.500 . S
C471 C470 1.382 . S
C471 C472 1.400 . S
C471 H482 0.930 . S
C472 C471 1.400 . S
C472 C473 1.384 . S
C473 C472 1.384 . S
C473 C475 1.392 . S
C473 H483 0.931 . S
C474 C470 1.393 . S
C474 C475 1.401 . S
C474 H484 0.930 . S
C475 C473 1.392 . S
C475 C474 1.401 . S
C475 H485 0.930 . S
C476 O454 1.262 . S
C476 O455 1.260 . S
C477 Tb413 2.833 1_556 S
C477 O452 1.251 . S
C477 O457 1.256 . S
C477 C470 1.500 . S
H478 C461 0.930 . S
H479 C462 0.931 . S
H480 C463 0.930 . S
H481 C464 0.930 . S
H482 C471 0.930 . S
H483 C473 0.931 . S
H484 C474 0.930 . S
H485 C475 0.930 . S
Tb486 N517 2.660 . S
Tb486 N524 2.600 . S
Tb486 O530 2.546 . S
Tb486 O531 2.610 . S
Tb486 O533 2.320 . S
Tb486 O534 2.552 . S
Tb486 O535 2.413 . S
Tb486 O537 2.362 . S
Tb486 O538 2.421 . S
Tb486 C550 2.833 . S
C487 C490 1.432 . S
C487 C491 1.414 . S
C487 N494 1.359 . S
C488 C490 1.417 . S
C488 C492 1.432 . S
C488 C500 1.410 . S
C489 C491 1.444 . S
C489 C492 1.317 . S
C489 H512 0.929 . S
C490 C487 1.432 . S
C490 C488 1.417 . S
C490 N498 1.360 . S
C491 C487 1.414 . S
C491 C489 1.444 . S
C491 C496 1.385 . S
C492 C488 1.432 . S
C492 C489 1.317 . S
C492 H504 0.930 . S
C493 C495 1.392 . S
C493 C496 1.370 . S
C493 H505 0.931 . S
N494 C487 1.359 . S
N494 C495 1.327 . S
N494 Tb497 2.600 . S
C495 C493 1.392 . S
C495 N494 1.327 . S
C495 H502 0.930 . S
C496 C491 1.385 . S
C496 C493 1.370 . S
C496 H515 0.930 . S
Tb497 N494 2.600 . S
Tb497 N498 2.660 . S
Tb497 O531 2.362 . S
Tb497 O532 2.421 . S
Tb497 O536 2.546 . S
Tb497 O537 2.610 . S
Tb497 O539 2.320 . S
Tb497 O540 2.552 . S
Tb497 O541 2.413 . S
Tb497 C561 2.833 . S
N498 C490 1.360 . S
N498 Tb497 2.660 . S
N498 C499 1.305 . S
C499 N498 1.305 . S
C499 C501 1.407 . S
C499 H506 0.930 . S
C500 C488 1.410 . S
C500 C501 1.345 . S
C500 H508 0.930 . S
C501 C499 1.407 . S
C501 C500 1.345 . S
C501 H503 0.930 . S
H502 C495 0.930 . S
H503 C501 0.930 . S
H504 C492 0.930 . S
H505 C493 0.931 . S
H506 C499 0.930 . S
H507 C521 0.930 . S
H508 C500 0.930 . S
H509 C527 0.930 . S
H510 C518 0.930 . S
H511 C525 0.931 . S
H512 C489 0.929 . S
H513 C519 0.930 . S
H514 C552 0.930 . S
H515 C496 0.930 . S
H516 C551 0.929 . S
N517 Tb486 2.660 . S
N517 C518 1.305 . S
N517 C522 1.360 . S
C518 H510 0.930 . S
C518 N517 1.305 . S
C518 C521 1.407 . S
C519 H513 0.930 . S
C519 C520 1.410 . S
C519 C521 1.345 . S
C520 C519 1.410 . S
C520 C522 1.417 . S
C520 C552 1.432 . S
C521 H507 0.930 . S
C521 C518 1.407 . S
C521 C519 1.345 . S
C522 N517 1.360 . S
C522 C520 1.417 . S
C522 C526 1.432 . S
H523 C528 0.930 . S
N524 Tb486 2.600 . S
N524 C526 1.359 . S
N524 C527 1.327 . S
C525 H511 0.931 . S
C525 C527 1.392 . S
C525 C528 1.370 . S
C526 C522 1.432 . S
C526 N524 1.359 . S
C526 C529 1.414 . S
C527 H509 0.930 . S
C527 N524 1.327 . S
C527 C525 1.392 . S
C528 H523 0.930 . S
C528 C525 1.370 . S
C528 C529 1.385 . S
C529 C526 1.414 . S
C529 C528 1.385 . S
C529 C551 1.444 . S
O530 Tb486 2.546 . S
O530 C550 1.251 . S
O531 Tb486 2.610 . S
O531 Tb497 2.362 . S
O531 C542 1.283 . S
O532 Tb497 2.421 . S
O532 C549 1.262 . S
O533 Tb486 2.320 . S
O533 C549 1.260 . S
O534 Tb486 2.552 . S
O534 C542 1.243 . S
O535 Tb486 2.413 . S
O535 C550 1.256 . S
O536 Tb497 2.546 . S
O536 C561 1.251 . S
O537 Tb486 2.362 . S
O537 Tb497 2.610 . S
O537 C553 1.283 . S
O538 Tb486 2.421 . S
O538 C560 1.262 . S
O539 Tb497 2.320 . S
O539 C560 1.260 . S
O540 Tb497 2.552 . S
O540 C553 1.243 . S
O541 Tb497 2.413 . S
O541 C561 1.256 . S
C542 O531 1.283 . S
C542 O534 1.243 . S
C543 C545 1.382 . S
C543 C547 1.393 . S
C543 C550 1.500 . S
C544 C545 1.400 . S
C544 C546 1.384 . S
C545 C543 1.382 . S
C545 C544 1.400 . S
C545 H562 0.930 . S
C546 C544 1.384 . S
C546 C548 1.392 . S
C546 H563 0.931 . S
C547 C543 1.393 . S
C547 C548 1.401 . S
C547 H564 0.930 . S
C548 C546 1.392 . S
C548 C547 1.401 . S
C548 H565 0.930 . S
C549 O532 1.262 . S
C549 O533 1.260 . S
C550 Tb486 2.833 . S
C550 O530 1.251 . S
C550 O535 1.256 . S
C550 C543 1.500 . S
C551 H516 0.929 . S
C551 C529 1.444 . S
C551 C552 1.317 . S
C552 H514 0.930 . S
C552 C520 1.432 . S
C552 C551 1.317 . S
C553 O537 1.283 . S
C553 O540 1.243 . S
C554 C555 1.382 . S
C554 C558 1.393 . S
C554 C561 1.500 . S
C555 C554 1.382 . S
C555 C556 1.400 . S
C555 H566 0.930 . S
C556 C555 1.400 . S
C556 C557 1.384 . S
C557 C556 1.384 . S
C557 C559 1.392 . S
C557 H567 0.931 . S
C558 C554 1.393 . S
C558 C559 1.401 . S
C558 H568 0.930 . S
C559 C557 1.392 . S
C559 C558 1.401 . S
C559 H569 0.930 . S
C560 O538 1.262 . S
C560 O539 1.260 . S
C561 Tb497 2.833 . S
C561 O536 1.251 . S
C561 O541 1.256 . S
C561 C554 1.500 . S
H562 C545 0.930 . S
H563 C546 0.931 . S
H564 C547 0.930 . S
H565 C548 0.930 . S
H566 C555 0.930 . S
H567 C557 0.931 . S
H568 C558 0.930 . S
H569 C559 0.930 . S
Tb570 N601 2.660 . S
Tb570 N608 2.600 . S
Tb570 O614 2.546 . S
Tb570 O615 2.610 . S
Tb570 O617 2.320 . S
Tb570 O618 2.552 . S
Tb570 O619 2.413 . S
Tb570 O621 2.362 . S
Tb570 O622 2.421 . S
Tb570 C634 2.833 . S
C571 C574 1.432 . S
C571 C575 1.414 . S
C571 N578 1.359 . S
C572 C574 1.417 . S
C572 C576 1.432 . S
C572 C584 1.410 . S
C573 C575 1.444 . S
C573 C576 1.317 . S
C573 H596 0.929 . S
C574 C571 1.432 . S
C574 C572 1.417 . S
C574 N582 1.360 . S
C575 C571 1.414 . S
C575 C573 1.444 . S
C575 C580 1.385 . S
C576 C572 1.432 . S
C576 C573 1.317 . S
C576 H588 0.930 . S
C577 C579 1.392 . S
C577 C580 1.370 . S
C577 H589 0.931 . S
N578 C571 1.359 . S
N578 C579 1.327 . S
N578 Tb581 2.600 . S
C579 C577 1.392 . S
C579 N578 1.327 . S
C579 H586 0.930 . S
C580 C575 1.385 . S
C580 C577 1.370 . S
C580 H599 0.930 . S
Tb581 N578 2.600 . S
Tb581 N582 2.660 . S
Tb581 O615 2.362 . S
Tb581 O616 2.421 . S
Tb581 O620 2.546 . S
Tb581 O621 2.610 . S
Tb581 O623 2.320 . S
Tb581 O624 2.552 . S
Tb581 O625 2.413 . S
Tb581 C645 2.833 . S
N582 C574 1.360 . S
N582 Tb581 2.660 . S
N582 C583 1.305 . S
C583 N582 1.305 . S
C583 C585 1.407 . S
C583 H590 0.930 . S
C584 C572 1.410 . S
C584 C585 1.345 . S
C584 H592 0.930 . S
C585 C583 1.407 . S
C585 C584 1.345 . S
C585 H587 0.930 . S
H586 C579 0.930 . S
H587 C585 0.930 . S
H588 C576 0.930 . S
H589 C577 0.931 . S
H590 C583 0.930 . S
H591 C605 0.930 . S
H592 C584 0.930 . S
H593 C611 0.930 . S
H594 C602 0.930 . S
H595 C609 0.931 . S
H596 C573 0.929 . S
H597 C603 0.930 . S
H598 C636 0.930 . S
H599 C580 0.930 . S
H600 C635 0.929 . S
N601 Tb570 2.660 . S
N601 C602 1.305 . S
N601 C606 1.360 . S
C602 H594 0.930 . S
C602 N601 1.305 . S
C602 C605 1.407 . S
C603 H597 0.930 . S
C603 C604 1.410 . S
C603 C605 1.345 . S
C604 C603 1.410 . S
C604 C606 1.417 . S
C604 C636 1.432 . S
C605 H591 0.930 . S
C605 C602 1.407 . S
C605 C603 1.345 . S
C606 N601 1.360 . S
C606 C604 1.417 . S
C606 C610 1.432 . S
H607 C612 0.930 . S
N608 Tb570 2.600 . S
N608 C610 1.359 . S
N608 C611 1.327 . S
C609 H595 0.931 . S
C609 C611 1.392 . S
C609 C612 1.370 . S
C610 C606 1.432 . S
C610 N608 1.359 . S
C610 C613 1.414 . S
C611 H593 0.930 . S
C611 N608 1.327 . S
C611 C609 1.392 . S
C612 H607 0.930 . S
C612 C609 1.370 . S
C612 C613 1.385 . S
C613 C610 1.414 . S
C613 C612 1.385 . S
C613 C635 1.444 . S
O614 Tb570 2.546 . S
O614 C634 1.251 . S
O615 Tb570 2.610 . S
O615 Tb581 2.362 . S
O615 C626 1.283 . S
O616 Tb581 2.421 . S
O616 C633 1.262 . S
O617 Tb570 2.320 . S
O617 C633 1.260 . S
O618 Tb570 2.552 . S
O618 C626 1.243 . S
O619 Tb570 2.413 . S
O619 C634 1.256 . S
O620 Tb581 2.546 . S
O620 C645 1.251 . S
O621 Tb570 2.362 . S
O621 Tb581 2.610 . S
O621 C637 1.283 . S
O622 Tb570 2.421 . S
O622 C644 1.262 . S
O623 Tb581 2.320 . S
O623 C644 1.260 . S
O624 Tb581 2.552 . S
O624 C637 1.243 . S
O625 Tb581 2.413 . S
O625 C645 1.256 . S
C626 O615 1.283 . S
C626 O618 1.243 . S
C627 C629 1.382 . S
C627 C631 1.393 . S
C627 C634 1.500 . S
C628 C629 1.400 . S
C628 C630 1.384 . S
C629 C627 1.382 . S
C629 C628 1.400 . S
C629 H646 0.930 . S
C630 C628 1.384 . S
C630 C632 1.392 . S
C630 H647 0.931 . S
C631 C627 1.393 . S
C631 C632 1.401 . S
C631 H648 0.930 . S
C632 C630 1.392 . S
C632 C631 1.401 . S
C632 H649 0.930 . S
C633 O616 1.262 . S
C633 O617 1.260 . S
C634 Tb570 2.833 . S
C634 O614 1.251 . S
C634 O619 1.256 . S
C634 C627 1.500 . S
C635 H600 0.929 . S
C635 C613 1.444 . S
C635 C636 1.317 . S
C636 H598 0.930 . S
C636 C604 1.432 . S
C636 C635 1.317 . S
C637 O621 1.283 . S
C637 O624 1.243 . S
C638 C639 1.382 . S
C638 C642 1.393 . S
C638 C645 1.500 . S
C639 C638 1.382 . S
C639 C640 1.400 . S
C639 H650 0.930 . S
C640 C639 1.400 . S
C640 C641 1.384 . S
C641 C640 1.384 . S
C641 C643 1.392 . S
C641 H651 0.931 . S
C642 C638 1.393 . S
C642 C643 1.401 . S
C642 H652 0.930 . S
C643 C641 1.392 . S
C643 C642 1.401 . S
C643 H653 0.930 . S
C644 O622 1.262 . S
C644 O623 1.260 . S
C645 Tb581 2.833 . S
C645 O620 1.251 . S
C645 O625 1.256 . S
C645 C638 1.500 . S
H646 C629 0.930 . S
H647 C630 0.931 . S
H648 C631 0.930 . S
H649 C632 0.930 . S
H650 C639 0.930 . S
H651 C641 0.931 . S
H652 C642 0.930 . S
H653 C643 0.930 . S
Tb654 N685 2.660 . S
Tb654 N692 2.600 . S
Tb654 O698 2.546 . S
Tb654 O699 2.610 . S
Tb654 O701 2.320 . S
Tb654 O702 2.552 . S
Tb654 O703 2.413 . S
Tb654 O705 2.362 . S
Tb654 O706 2.421 . S
Tb654 C718 2.833 . S
C655 C658 1.432 . S
C655 C659 1.414 . S
C655 N662 1.359 . S
C656 C658 1.417 . S
C656 C660 1.432 . S
C656 C668 1.410 . S
C657 C659 1.444 . S
C657 C660 1.317 . S
C657 H680 0.929 . S
C658 C655 1.432 . S
C658 C656 1.417 . S
C658 N666 1.360 . S
C659 C655 1.414 . S
C659 C657 1.444 . S
C659 C664 1.385 . S
C660 C656 1.432 . S
C660 C657 1.317 . S
C660 H672 0.930 . S
C661 C663 1.392 . S
C661 C664 1.370 . S
C661 H673 0.931 . S
N662 C655 1.359 . S
N662 C663 1.327 . S
N662 Tb665 2.600 . S
C663 C661 1.392 . S
C663 N662 1.327 . S
C663 H670 0.930 . S
C664 C659 1.385 . S
C664 C661 1.370 . S
C664 H683 0.930 . S
Tb665 N662 2.600 . S
Tb665 N666 2.660 . S
Tb665 O699 2.362 . S
Tb665 O700 2.421 . S
Tb665 O704 2.546 . S
Tb665 O705 2.610 . S
Tb665 O707 2.320 . S
Tb665 O708 2.552 . S
Tb665 O709 2.413 . S
Tb665 C729 2.833 . S
N666 C658 1.360 . S
N666 Tb665 2.660 . S
N666 C667 1.305 . S
C667 N666 1.305 . S
C667 C669 1.407 . S
C667 H674 0.930 . S
C668 C656 1.410 . S
C668 C669 1.345 . S
C668 H676 0.930 . S
C669 C667 1.407 . S
C669 C668 1.345 . S
C669 H671 0.930 . S
H670 C663 0.930 . S
H671 C669 0.930 . S
H672 C660 0.930 . S
H673 C661 0.931 . S
H674 C667 0.930 . S
H675 C689 0.930 . S
H676 C668 0.930 . S
H677 C695 0.930 . S
H678 C686 0.930 . S
H679 C693 0.931 . S
H680 C657 0.929 . S
H681 C687 0.930 . S
H682 C720 0.930 . S
H683 C664 0.930 . S
H684 C719 0.929 . S
N685 Tb654 2.660 . S
N685 C686 1.305 . S
N685 C690 1.360 . S
C686 H678 0.930 . S
C686 N685 1.305 . S
C686 C689 1.407 . S
C687 H681 0.930 . S
C687 C688 1.410 . S
C687 C689 1.345 . S
C688 C687 1.410 . S
C688 C690 1.417 . S
C688 C720 1.432 . S
C689 H675 0.930 . S
C689 C686 1.407 . S
C689 C687 1.345 . S
C690 N685 1.360 . S
C690 C688 1.417 . S
C690 C694 1.432 . S
H691 C696 0.930 . S
N692 Tb654 2.600 . S
N692 C694 1.359 . S
N692 C695 1.327 . S
C693 H679 0.931 . S
C693 C695 1.392 . S
C693 C696 1.370 . S
C694 C690 1.432 . S
C694 N692 1.359 . S
C694 C697 1.414 . S
C695 H677 0.930 . S
C695 N692 1.327 . S
C695 C693 1.392 . S
C696 H691 0.930 . S
C696 C693 1.370 . S
C696 C697 1.385 . S
C697 C694 1.414 . S
C697 C696 1.385 . S
C697 C719 1.444 . S
O698 Tb654 2.546 . S
O698 C718 1.251 . S
O699 Tb654 2.610 . S
O699 Tb665 2.362 . S
O699 C710 1.283 . S
O700 Tb665 2.421 . S
O700 C717 1.262 . S
O701 Tb654 2.320 . S
O701 C717 1.260 . S
O702 Tb654 2.552 . S
O702 C710 1.243 . S
O703 Tb654 2.413 . S
O703 C718 1.256 . S
O704 Tb665 2.546 . S
O704 C729 1.251 . S
O705 Tb654 2.362 . S
O705 Tb665 2.610 . S
O705 C721 1.283 . S
O706 Tb654 2.421 . S
O706 C728 1.262 . S
O707 Tb665 2.320 . S
O707 C728 1.260 . S
O708 Tb665 2.552 . S
O708 C721 1.243 . S
O709 Tb665 2.413 . S
O709 C729 1.256 . S
C710 O699 1.283 . S
C710 O702 1.243 . S
C711 C713 1.382 . S
C711 C715 1.393 . S
C711 C718 1.500 . S
C712 C713 1.400 . S
C712 C714 1.384 . S
C713 C711 1.382 . S
C713 C712 1.400 . S
C713 H730 0.930 . S
C714 C712 1.384 . S
C714 C716 1.392 . S
C714 H731 0.931 . S
C715 C711 1.393 . S
C715 C716 1.401 . S
C715 H732 0.930 . S
C716 C714 1.392 . S
C716 C715 1.401 . S
C716 H733 0.930 . S
C717 O700 1.262 . S
C717 O701 1.260 . S
C718 Tb654 2.833 . S
C718 O698 1.251 . S
C718 O703 1.256 . S
C718 C711 1.500 . S
C719 H684 0.929 . S
C719 C697 1.444 . S
C719 C720 1.317 . S
C720 H682 0.930 . S
C720 C688 1.432 . S
C720 C719 1.317 . S
C721 O705 1.283 . S
C721 O708 1.243 . S
C722 C723 1.382 . S
C722 C726 1.393 . S
C722 C729 1.500 . S
C723 C722 1.382 . S
C723 C724 1.400 . S
C723 H734 0.930 . S
C724 C723 1.400 . S
C724 C725 1.384 . S
C725 C724 1.384 . S
C725 C727 1.392 . S
C725 H735 0.931 . S
C726 C722 1.393 . S
C726 C727 1.401 . S
C726 H736 0.930 . S
C727 C725 1.392 . S
C727 C726 1.401 . S
C727 H737 0.930 . S
C728 O706 1.262 . S
C728 O707 1.260 . S
C729 Tb665 2.833 . S
C729 O704 1.251 . S
C729 O709 1.256 . S
C729 C722 1.500 . S
H730 C713 0.930 . S
H731 C714 0.931 . S
H732 C715 0.930 . S
H733 C716 0.930 . S
H734 C723 0.930 . S
H735 C725 0.931 . S
H736 C726 0.930 . S
H737 C727 0.930 . S
Tb738 N769 2.660 . S
Tb738 N776 2.600 . S
Tb738 O782 2.546 . S
Tb738 O783 2.610 . S
Tb738 O785 2.320 . S
Tb738 O786 2.552 . S
Tb738 O787 2.413 . S
Tb738 O789 2.362 . S
Tb738 O790 2.421 . S
Tb738 C802 2.833 . S
C739 C742 1.432 . S
C739 C743 1.414 . S
C739 N746 1.359 . S
C740 C742 1.417 . S
C740 C744 1.432 . S
C740 C752 1.410 . S
C741 C743 1.444 . S
C741 C744 1.317 . S
C741 H764 0.929 . S
C742 C739 1.432 . S
C742 C740 1.417 . S
C742 N750 1.360 . S
C743 C739 1.414 . S
C743 C741 1.444 . S
C743 C748 1.385 . S
C744 C740 1.432 . S
C744 C741 1.317 . S
C744 H756 0.930 . S
C745 C747 1.392 . S
C745 C748 1.370 . S
C745 H757 0.931 . S
N746 C739 1.359 . S
N746 C747 1.327 . S
N746 Tb749 2.600 . S
C747 C745 1.392 . S
C747 N746 1.327 . S
C747 H754 0.930 . S
C748 C743 1.385 . S
C748 C745 1.370 . S
C748 H767 0.930 . S
Tb749 N746 2.600 . S
Tb749 N750 2.660 . S
Tb749 O783 2.362 . S
Tb749 O784 2.421 . S
Tb749 O788 2.546 . S
Tb749 O789 2.610 . S
Tb749 O791 2.320 . S
Tb749 O792 2.552 . S
Tb749 O793 2.413 . S
Tb749 C813 2.833 . S
N750 C742 1.360 . S
N750 Tb749 2.660 . S
N750 C751 1.305 . S
C751 N750 1.305 . S
C751 C753 1.407 . S
C751 H758 0.930 . S
C752 C740 1.410 . S
C752 C753 1.345 . S
C752 H760 0.930 . S
C753 C751 1.407 . S
C753 C752 1.345 . S
C753 H755 0.930 . S
H754 C747 0.930 . S
H755 C753 0.930 . S
H756 C744 0.930 . S
H757 C745 0.931 . S
H758 C751 0.930 . S
H759 C773 0.930 . S
H760 C752 0.930 . S
H761 C779 0.930 . S
H762 C770 0.930 . S
H763 C777 0.931 . S
H764 C741 0.929 . S
H765 C771 0.930 . S
H766 C804 0.930 . S
H767 C748 0.930 . S
H768 C803 0.929 . S
N769 Tb738 2.660 . S
N769 C770 1.305 . S
N769 C774 1.360 . S
C770 H762 0.930 . S
C770 N769 1.305 . S
C770 C773 1.407 . S
C771 H765 0.930 . S
C771 C772 1.410 . S
C771 C773 1.345 . S
C772 C771 1.410 . S
C772 C774 1.417 . S
C772 C804 1.432 . S
C773 H759 0.930 . S
C773 C770 1.407 . S
C773 C771 1.345 . S
C774 N769 1.360 . S
C774 C772 1.417 . S
C774 C778 1.432 . S
H775 C780 0.930 . S
N776 Tb738 2.600 . S
N776 C778 1.359 . S
N776 C779 1.327 . S
C777 H763 0.931 . S
C777 C779 1.392 . S
C777 C780 1.370 . S
C778 C774 1.432 . S
C778 N776 1.359 . S
C778 C781 1.414 . S
C779 H761 0.930 . S
C779 N776 1.327 . S
C779 C777 1.392 . S
C780 H775 0.930 . S
C780 C777 1.370 . S
C780 C781 1.385 . S
C781 C778 1.414 . S
C781 C780 1.385 . S
C781 C803 1.444 . S
O782 Tb738 2.546 . S
O782 C802 1.251 . S
O783 Tb738 2.610 . S
O783 Tb749 2.362 . S
O783 C794 1.283 . S
O784 Tb749 2.421 . S
O784 C801 1.262 . S
O785 Tb738 2.320 . S
O785 C801 1.260 . S
O786 Tb738 2.552 . S
O786 C794 1.243 . S
O787 Tb738 2.413 . S
O787 C802 1.256 . S
O788 Tb749 2.546 . S
O788 C813 1.251 . S
O789 Tb738 2.362 . S
O789 Tb749 2.610 . S
O789 C805 1.283 . S
O790 Tb738 2.421 . S
O790 C812 1.262 . S
O791 Tb749 2.320 . S
O791 C812 1.260 . S
O792 Tb749 2.552 . S
O792 C805 1.243 . S
O793 Tb749 2.413 . S
O793 C813 1.256 . S
C794 O783 1.283 . S
C794 O786 1.243 . S
C795 C797 1.382 . S
C795 C799 1.393 . S
C795 C802 1.500 . S
C796 C797 1.400 . S
C796 C798 1.384 . S
C797 C795 1.382 . S
C797 C796 1.400 . S
C797 H814 0.930 . S
C798 C796 1.384 . S
C798 C800 1.392 . S
C798 H815 0.931 . S
C799 C795 1.393 . S
C799 C800 1.401 . S
C799 H816 0.930 . S
C800 C798 1.392 . S
C800 C799 1.401 . S
C800 H817 0.930 . S
C801 O784 1.262 . S
C801 O785 1.260 . S
C802 Tb738 2.833 . S
C802 O782 1.251 . S
C802 O787 1.256 . S
C802 C795 1.500 . S
C803 H768 0.929 . S
C803 C781 1.444 . S
C803 C804 1.317 . S
C804 H766 0.930 . S
C804 C772 1.432 . S
C804 C803 1.317 . S
C805 O789 1.283 . S
C805 O792 1.243 . S
C806 C807 1.382 . S
C806 C810 1.393 . S
C806 C813 1.500 . S
C807 C806 1.382 . S
C807 C808 1.400 . S
C807 H818 0.930 . S
C808 C807 1.400 . S
C808 C809 1.384 . S
C809 C808 1.384 . S
C809 C811 1.392 . S
C809 H819 0.931 . S
C810 C806 1.393 . S
C810 C811 1.401 . S
C810 H820 0.930 . S
C811 C809 1.392 . S
C811 C810 1.401 . S
C811 H821 0.930 . S
C812 O790 1.262 . S
C812 O791 1.260 . S
C813 Tb749 2.833 . S
C813 O788 1.251 . S
C813 O793 1.256 . S
C813 C806 1.500 . S
H814 C797 0.930 . S
H815 C798 0.931 . S
H816 C799 0.930 . S
H817 C800 0.930 . S
H818 C807 0.930 . S
H819 C809 0.931 . S
H820 C810 0.930 . S
H821 C811 0.930 . S
Tb822 N853 2.660 . S
Tb822 N860 2.600 . S
Tb822 O866 2.546 . S
Tb822 O867 2.610 . S
Tb822 O869 2.320 . S
Tb822 O870 2.552 . S
Tb822 O871 2.413 . S
Tb822 O873 2.362 . S
Tb822 O874 2.421 . S
Tb822 C886 2.833 . S
C823 C826 1.432 . S
C823 C827 1.414 . S
C823 N830 1.359 . S
C824 C826 1.417 . S
C824 C828 1.432 . S
C824 C836 1.410 . S
C825 C827 1.444 . S
C825 C828 1.317 . S
C825 H848 0.929 . S
C826 C823 1.432 . S
C826 C824 1.417 . S
C826 N834 1.360 . S
C827 C823 1.414 . S
C827 C825 1.444 . S
C827 C832 1.385 . S
C828 C824 1.432 . S
C828 C825 1.317 . S
C828 H840 0.930 . S
C829 C831 1.392 . S
C829 C832 1.370 . S
C829 H841 0.931 . S
N830 C823 1.359 . S
N830 C831 1.327 . S
N830 Tb833 2.600 . S
C831 C829 1.392 . S
C831 N830 1.327 . S
C831 H838 0.930 . S
C832 C827 1.385 . S
C832 C829 1.370 . S
C832 H851 0.930 . S
Tb833 N830 2.600 . S
Tb833 N834 2.660 . S
Tb833 O867 2.362 . S
Tb833 O868 2.421 . S
Tb833 O872 2.546 . S
Tb833 O873 2.610 . S
Tb833 O875 2.320 . S
Tb833 O876 2.552 . S
Tb833 O877 2.413 . S
Tb833 C897 2.833 . S
N834 C826 1.360 . S
N834 Tb833 2.660 . S
N834 C835 1.305 . S
C835 N834 1.305 . S
C835 C837 1.407 . S
C835 H842 0.930 . S
C836 C824 1.410 . S
C836 C837 1.345 . S
C836 H844 0.930 . S
C837 C835 1.407 . S
C837 C836 1.345 . S
C837 H839 0.930 . S
H838 C831 0.930 . S
H839 C837 0.930 . S
H840 C828 0.930 . S
H841 C829 0.931 . S
H842 C835 0.930 . S
H843 C857 0.930 . S
H844 C836 0.930 . S
H845 C863 0.930 . S
H846 C854 0.930 . S
H847 C861 0.931 . S
H848 C825 0.929 . S
H849 C855 0.930 . S
H850 C888 0.930 . S
H851 C832 0.930 . S
H852 C887 0.929 . S
N853 Tb822 2.660 . S
N853 C854 1.305 . S
N853 C858 1.360 . S
C854 H846 0.930 . S
C854 N853 1.305 . S
C854 C857 1.407 . S
C855 H849 0.930 . S
C855 C856 1.410 . S
C855 C857 1.345 . S
C856 C855 1.410 . S
C856 C858 1.417 . S
C856 C888 1.432 . S
C857 H843 0.930 . S
C857 C854 1.407 . S
C857 C855 1.345 . S
C858 N853 1.360 . S
C858 C856 1.417 . S
C858 C862 1.432 . S
H859 C864 0.930 . S
N860 Tb822 2.600 . S
N860 C862 1.359 . S
N860 C863 1.327 . S
C861 H847 0.931 . S
C861 C863 1.392 . S
C861 C864 1.370 . S
C862 C858 1.432 . S
C862 N860 1.359 . S
C862 C865 1.414 . S
C863 H845 0.930 . S
C863 N860 1.327 . S
C863 C861 1.392 . S
C864 H859 0.930 . S
C864 C861 1.370 . S
C864 C865 1.385 . S
C865 C862 1.414 . S
C865 C864 1.385 . S
C865 C887 1.444 . S
O866 Tb822 2.546 . S
O866 C886 1.251 . S
O867 Tb822 2.610 . S
O867 Tb833 2.362 . S
O867 C878 1.283 . S
O868 Tb833 2.421 . S
O868 C885 1.262 . S
O869 Tb822 2.320 . S
O869 C885 1.260 . S
O870 Tb822 2.552 . S
O870 C878 1.243 . S
O871 Tb822 2.413 . S
O871 C886 1.256 . S
O872 Tb833 2.546 . S
O872 C897 1.251 . S
O873 Tb822 2.362 . S
O873 Tb833 2.610 . S
O873 C889 1.283 . S
O874 Tb822 2.421 . S
O874 C896 1.262 . S
O875 Tb833 2.320 . S
O875 C896 1.260 . S
O876 Tb833 2.552 . S
O876 C889 1.243 . S
O877 Tb833 2.413 . S
O877 C897 1.256 . S
C878 O867 1.283 . S
C878 O870 1.243 . S
C879 C881 1.382 . S
C879 C883 1.393 . S
C879 C886 1.500 . S
C880 C881 1.400 . S
C880 C882 1.384 . S
C881 C879 1.382 . S
C881 C880 1.400 . S
C881 H898 0.930 . S
C882 C880 1.384 . S
C882 C884 1.392 . S
C882 H899 0.931 . S
C883 C879 1.393 . S
C883 C884 1.401 . S
C883 H900 0.930 . S
C884 C882 1.392 . S
C884 C883 1.401 . S
C884 H901 0.930 . S
C885 O868 1.262 . S
C885 O869 1.260 . S
C886 Tb822 2.833 . S
C886 O866 1.251 . S
C886 O871 1.256 . S
C886 C879 1.500 . S
C887 H852 0.929 . S
C887 C865 1.444 . S
C887 C888 1.317 . S
C888 H850 0.930 . S
C888 C856 1.432 . S
C888 C887 1.317 . S
C889 O873 1.283 . S
C889 O876 1.243 . S
C890 C891 1.382 . S
C890 C894 1.393 . S
C890 C897 1.500 . S
C891 C890 1.382 . S
C891 C892 1.400 . S
C891 H902 0.930 . S
C892 C891 1.400 . S
C892 C893 1.384 . S
C893 C892 1.384 . S
C893 C895 1.392 . S
C893 H903 0.931 . S
C894 C890 1.393 . S
C894 C895 1.401 . S
C894 H904 0.930 . S
C895 C893 1.392 . S
C895 C894 1.401 . S
C895 H905 0.930 . S
C896 O874 1.262 . S
C896 O875 1.260 . S
C897 Tb833 2.833 . S
C897 O872 1.251 . S
C897 O877 1.256 . S
C897 C890 1.500 . S
H898 C881 0.930 . S
H899 C882 0.931 . S
H900 C883 0.930 . S
H901 C884 0.930 . S
H902 C891 0.930 . S
H903 C893 0.931 . S
H904 C894 0.930 . S
H905 C895 0.930 . S
Tb906 N937 2.660 . S
Tb906 N944 2.600 . S
Tb906 O950 2.546 . S
Tb906 O951 2.610 . S
Tb906 O953 2.320 . S
Tb906 O954 2.552 . S
Tb906 O955 2.413 . S
Tb906 O957 2.362 . S
Tb906 O958 2.421 . S
Tb906 C970 2.833 . S
C907 C910 1.432 . S
C907 C911 1.414 . S
C907 N914 1.359 . S
C908 C910 1.417 . S
C908 C912 1.432 . S
C908 C920 1.410 . S
C909 C911 1.444 . S
C909 C912 1.317 . S
C909 H932 0.929 . S
C910 C907 1.432 . S
C910 C908 1.417 . S
C910 N918 1.360 . S
C911 C907 1.414 . S
C911 C909 1.444 . S
C911 C916 1.385 . S
C912 C908 1.432 . S
C912 C909 1.317 . S
C912 H924 0.930 . S
C913 C915 1.392 . S
C913 C916 1.370 . S
C913 H925 0.931 . S
N914 C907 1.359 . S
N914 C915 1.327 . S
N914 Tb917 2.600 . S
C915 C913 1.392 . S
C915 N914 1.327 . S
C915 H922 0.930 . S
C916 C911 1.385 . S
C916 C913 1.370 . S
C916 H935 0.930 . S
Tb917 N914 2.600 . S
Tb917 N918 2.660 . S
Tb917 O951 2.362 . S
Tb917 O952 2.421 . S
Tb917 O956 2.546 . S
Tb917 O957 2.610 . S
Tb917 O959 2.320 . S
Tb917 O960 2.552 . S
Tb917 O961 2.413 . S
Tb917 C981 2.833 . S
N918 C910 1.360 . S
N918 Tb917 2.660 . S
N918 C919 1.305 . S
C919 N918 1.305 . S
C919 C921 1.407 . S
C919 H926 0.930 . S
C920 C908 1.410 . S
C920 C921 1.345 . S
C920 H928 0.930 . S
C921 C919 1.407 . S
C921 C920 1.345 . S
C921 H923 0.930 . S
H922 C915 0.930 . S
H923 C921 0.930 . S
H924 C912 0.930 . S
H925 C913 0.931 . S
H926 C919 0.930 . S
H927 C941 0.930 . S
H928 C920 0.930 . S
H929 C947 0.930 . S
H930 C938 0.930 . S
H931 C945 0.931 . S
H932 C909 0.929 . S
H933 C939 0.930 . S
H934 C972 0.930 . S
H935 C916 0.930 . S
H936 C971 0.929 . S
N937 Tb906 2.660 . S
N937 C938 1.305 . S
N937 C942 1.360 . S
C938 H930 0.930 . S
C938 N937 1.305 . S
C938 C941 1.407 . S
C939 H933 0.930 . S
C939 C940 1.410 . S
C939 C941 1.345 . S
C940 C939 1.410 . S
C940 C942 1.417 . S
C940 C972 1.432 . S
C941 H927 0.930 . S
C941 C938 1.407 . S
C941 C939 1.345 . S
C942 N937 1.360 . S
C942 C940 1.417 . S
C942 C946 1.432 . S
H943 C948 0.930 . S
N944 Tb906 2.600 . S
N944 C946 1.359 . S
N944 C947 1.327 . S
C945 H931 0.931 . S
C945 C947 1.392 . S
C945 C948 1.370 . S
C946 C942 1.432 . S
C946 N944 1.359 . S
C946 C949 1.414 . S
C947 H929 0.930 . S
C947 N944 1.327 . S
C947 C945 1.392 . S
C948 H943 0.930 . S
C948 C945 1.370 . S
C948 C949 1.385 . S
C949 C946 1.414 . S
C949 C948 1.385 . S
C949 C971 1.444 . S
O950 Tb906 2.546 . S
O950 C970 1.251 . S
O951 Tb906 2.610 . S
O951 Tb917 2.362 . S
O951 C962 1.283 . S
O952 Tb917 2.421 . S
O952 C969 1.262 . S
O953 Tb906 2.320 . S
O953 C969 1.260 . S
O954 Tb906 2.552 . S
O954 C962 1.243 . S
O955 Tb906 2.413 . S
O955 C970 1.256 . S
O956 Tb917 2.546 . S
O956 C981 1.251 . S
O957 Tb906 2.362 . S
O957 Tb917 2.610 . S
O957 C973 1.283 . S
O958 Tb906 2.421 . S
O958 C980 1.262 . S
O959 Tb917 2.320 . S
O959 C980 1.260 . S
O960 Tb917 2.552 . S
O960 C973 1.243 . S
O961 Tb917 2.413 . S
O961 C981 1.256 . S
C962 O951 1.283 . S
C962 O954 1.243 . S
C963 C965 1.382 . S
C963 C967 1.393 . S
C963 C970 1.500 . S
C964 C965 1.400 . S
C964 C966 1.384 . S
C965 C963 1.382 . S
C965 C964 1.400 . S
C965 H982 0.930 . S
C966 C964 1.384 . S
C966 C968 1.392 . S
C966 H983 0.931 . S
C967 C963 1.393 . S
C967 C968 1.401 . S
C967 H984 0.930 . S
C968 C966 1.392 . S
C968 C967 1.401 . S
C968 H985 0.930 . S
C969 O952 1.262 . S
C969 O953 1.260 . S
C970 Tb906 2.833 . S
C970 O950 1.251 . S
C970 O955 1.256 . S
C970 C963 1.500 . S
C971 H936 0.929 . S
C971 C949 1.444 . S
C971 C972 1.317 . S
C972 H934 0.930 . S
C972 C940 1.432 . S
C972 C971 1.317 . S
C973 O957 1.283 . S
C973 O960 1.243 . S
C974 C975 1.382 . S
C974 C978 1.393 . S
C974 C981 1.500 . S
C975 C974 1.382 . S
C975 C976 1.400 . S
C975 H986 0.930 . S
C976 C975 1.400 . S
C976 C977 1.384 . S
C977 C976 1.384 . S
C977 C979 1.392 . S
C977 H987 0.931 . S
C978 C974 1.393 . S
C978 C979 1.401 . S
C978 H988 0.930 . S
C979 C977 1.392 . S
C979 C978 1.401 . S
C979 H989 0.930 . S
C980 O958 1.262 . S
C980 O959 1.260 . S
C981 Tb917 2.833 . S
C981 O956 1.251 . S
C981 O961 1.256 . S
C981 C974 1.500 . S
H982 C965 0.930 . S
H983 C966 0.931 . S
H984 C967 0.930 . S
H985 C968 0.930 . S
H986 C975 0.930 . S
H987 C977 0.931 . S
H988 C978 0.930 . S
H989 C979 0.930 . S
C990 C991 1.349 . S
C990 C992 1.327 . S
C990 H1015 0.950 . S
C991 C990 1.349 . S
C991 C1007 1.349 . S
C992 C990 1.327 . S
C992 C1011 1.429 . S
C992 H1016 0.950 . S
C993 C1010 1.574 . S
C993 C1012 1.368 . S
C993 H1017 0.949 . S
H994 C998 0.949 . S
C995 C996 1.349 . S
C995 C997 1.327 . S
C995 H1018 0.950 . S
C996 C995 1.349 . S
C996 C1008 1.349 . S
C997 C995 1.327 . S
C997 C1013 1.429 . S
C997 H1019 0.950 . S
C998 H994 0.949 . S
C998 C1006 1.574 . S
C998 C1014 1.368 . S
H999 C1007 0.950 . S
H1000 C1005 0.950 . S
H1001 C1006 0.949 . S
H1002 C1008 0.950 . S
H1003 C1009 0.950 . S
H1004 C1010 0.949 . S
C1005 H1000 0.950 . S
C1005 C1007 1.327 . S
C1005 C1011 1.429 . S
C1006 C998 1.574 . S
C1006 H1001 0.949 . S
C1006 C1012 1.368 . S
C1007 C991 1.349 . S
C1007 H999 0.950 . S
C1007 C1005 1.327 . S
C1008 C996 1.349 . S
C1008 H1002 0.950 . S
C1008 C1009 1.327 . S
C1009 H1003 0.950 . S
C1009 C1008 1.327 . S
C1009 C1013 1.429 . S
C1010 C993 1.574 . S
C1010 H1004 0.949 . S
C1010 C1014 1.368 . S
C1011 C992 1.429 . S
C1011 C1005 1.429 . S
C1011 C1012 1.523 . S
C1012 C993 1.368 . S
C1012 C1006 1.368 . S
C1012 C1011 1.523 . S
C1013 C997 1.429 . S
C1013 C1009 1.429 . S
C1013 C1014 1.523 . S
C1014 C998 1.368 . S
C1014 C1010 1.368 . S
C1014 C1013 1.523 . S
H1015 C990 0.950 . S
H1016 C992 0.950 . S
H1017 C993 0.949 . S
H1018 C995 0.950 . S
H1019 C997 0.950 . S
C1020 C1021 1.349 . S
C1020 C1022 1.327 . S
C1020 H1045 0.950 . S
C1021 C1020 1.349 . S
C1021 C1037 1.349 . S
C1022 C1020 1.327 . S
C1022 C1041 1.429 . S
C1022 H1046 0.950 . S
C1023 C1040 1.574 . S
C1023 C1042 1.368 . S
C1023 H1047 0.949 . S
H1024 C1028 0.949 . S
C1025 C1026 1.349 . S
C1025 C1027 1.327 . S
C1025 H1048 0.950 . S
C1026 C1025 1.349 . S
C1026 C1038 1.349 . S
C1027 C1025 1.327 . S
C1027 C1043 1.429 . S
C1027 H1049 0.950 . S
C1028 H1024 0.949 . S
C1028 C1036 1.574 . S
C1028 C1044 1.368 . S
H1029 C1037 0.950 . S
H1030 C1035 0.950 . S
H1031 C1036 0.949 . S
H1032 C1038 0.950 . S
H1033 C1039 0.950 . S
H1034 C1040 0.949 . S
C1035 H1030 0.950 . S
C1035 C1037 1.327 . S
C1035 C1041 1.429 . S
C1036 C1028 1.574 . S
C1036 H1031 0.949 . S
C1036 C1042 1.368 . S
C1037 C1021 1.349 . S
C1037 H1029 0.950 . S
C1037 C1035 1.327 . S
C1038 C1026 1.349 . S
C1038 H1032 0.950 . S
C1038 C1039 1.327 . S
C1039 H1033 0.950 . S
C1039 C1038 1.327 . S
C1039 C1043 1.429 . S
C1040 C1023 1.574 . S
C1040 H1034 0.949 . S
C1040 C1044 1.368 . S
C1041 C1022 1.429 . S
C1041 C1035 1.429 . S
C1041 C1042 1.523 . S
C1042 C1023 1.368 . S
C1042 C1036 1.368 . S
C1042 C1041 1.523 . S
C1043 C1027 1.429 . S
C1043 C1039 1.429 . S
C1043 C1044 1.523 . S
C1044 C1028 1.368 . S
C1044 C1040 1.368 . S
C1044 C1043 1.523 . S
H1045 C1020 0.950 . S
H1046 C1022 0.950 . S
H1047 C1023 0.949 . S
H1048 C1025 0.950 . S
H1049 C1027 0.950 . S
C1050 C1051 1.349 . S
C1050 C1052 1.327 . S
C1050 H1075 0.950 . S
C1051 C1050 1.349 . S
C1051 C1067 1.349 . S
C1052 C1050 1.327 . S
C1052 C1071 1.429 . S
C1052 H1076 0.950 . S
C1053 C1070 1.574 . S
C1053 C1072 1.368 . S
C1053 H1077 0.949 . S
H1054 C1058 0.949 . S
C1055 C1056 1.349 . S
C1055 C1057 1.327 . S
C1055 H1078 0.950 . S
C1056 C1055 1.349 . S
C1056 C1068 1.349 . S
C1057 C1055 1.327 . S
C1057 C1073 1.429 . S
C1057 H1079 0.950 . S
C1058 H1054 0.949 . S
C1058 C1066 1.574 . S
C1058 C1074 1.368 . S
H1059 C1067 0.950 . S
H1060 C1065 0.950 . S
H1061 C1066 0.949 . S
H1062 C1068 0.950 . S
H1063 C1069 0.950 . S
H1064 C1070 0.949 . S
C1065 H1060 0.950 . S
C1065 C1067 1.327 . S
C1065 C1071 1.429 . S
C1066 C1058 1.574 . S
C1066 H1061 0.949 . S
C1066 C1072 1.368 . S
C1067 C1051 1.349 . S
C1067 H1059 0.950 . S
C1067 C1065 1.327 . S
C1068 C1056 1.349 . S
C1068 H1062 0.950 . S
C1068 C1069 1.327 . S
C1069 H1063 0.950 . S
C1069 C1068 1.327 . S
C1069 C1073 1.429 . S
C1070 C1053 1.574 . S
C1070 H1064 0.949 . S
C1070 C1074 1.368 . S
C1071 C1052 1.429 . S
C1071 C1065 1.429 . S
C1071 C1072 1.523 . S
C1072 C1053 1.368 . S
C1072 C1066 1.368 . S
C1072 C1071 1.523 . S
C1073 C1057 1.429 . S
C1073 C1069 1.429 . S
C1073 C1074 1.523 . S
C1074 C1058 1.368 . S
C1074 C1070 1.368 . S
C1074 C1073 1.523 . S
H1075 C1050 0.950 . S
H1076 C1052 0.950 . S
H1077 C1053 0.949 . S
H1078 C1055 0.950 . S
H1079 C1057 0.950 . S
C1080 C1081 1.349 . S
C1080 C1082 1.327 . S
C1080 H1105 0.950 . S
C1081 C1080 1.349 . S
C1081 C1097 1.349 . S
C1082 C1080 1.327 . S
C1082 C1101 1.429 . S
C1082 H1106 0.950 . S
C1083 C1100 1.574 . S
C1083 C1102 1.368 . S
C1083 H1107 0.949 . S
H1084 C1088 0.949 . S
C1085 C1086 1.349 . S
C1085 C1087 1.327 . S
C1085 H1108 0.950 . S
C1086 C1085 1.349 . S
C1086 C1098 1.349 1_556 S
C1087 C1085 1.327 . S
C1087 C1103 1.429 . S
C1087 H1109 0.950 . S
C1088 H1084 0.949 . S
C1088 C1096 1.574 . S
C1088 C1104 1.368 . S
H1089 C1097 0.950 . S
H1090 C1095 0.950 . S
H1091 C1096 0.949 . S
H1092 C1098 0.950 . S
H1093 C1099 0.950 1_554 S
H1094 C1100 0.949 . S
C1095 H1090 0.950 . S
C1095 C1097 1.327 . S
C1095 C1101 1.429 . S
C1096 C1088 1.574 . S
C1096 H1091 0.949 . S
C1096 C1102 1.368 . S
C1097 C1081 1.349 . S
C1097 H1089 0.950 . S
C1097 C1095 1.327 . S
C1098 C1086 1.349 1_554 S
C1098 H1092 0.950 . S
C1098 C1099 1.327 1_554 S
C1099 H1093 0.950 1_556 S
C1099 C1098 1.327 1_556 S
C1099 C1103 1.429 . S
C1100 C1083 1.574 . S
C1100 H1094 0.949 . S
C1100 C1104 1.368 . S
C1101 C1082 1.429 . S
C1101 C1095 1.429 . S
C1101 C1102 1.523 . S
C1102 C1083 1.368 . S
C1102 C1096 1.368 . S
C1102 C1101 1.523 . S
C1103 C1087 1.429 . S
C1103 C1099 1.429 . S
C1103 C1104 1.523 . S
C1104 C1088 1.368 . S
C1104 C1100 1.368 . S
C1104 C1103 1.523 . S
H1105 C1080 0.950 . S
H1106 C1082 0.950 . S
H1107 C1083 0.949 . S
H1108 C1085 0.950 . S
H1109 C1087 0.950 . S
C1110 C1111 1.349 . S
C1110 C1112 1.327 . S
C1110 H1135 0.950 . S
C1111 C1110 1.349 . S
C1111 C1127 1.349 . S
C1112 C1110 1.327 . S
C1112 C1131 1.429 . S
C1112 H1136 0.950 . S
C1113 C1130 1.574 . S
C1113 C1132 1.368 . S
C1113 H1137 0.949 . S
H1114 C1118 0.949 1_554 S
C1115 C1116 1.345 . S
C1115 C1117 1.330 1_554 S
C1115 H1138 0.951 1_554 S
C1116 C1115 1.345 . S
C1116 C1128 1.349 . S
C1117 C1115 1.330 1_556 S
C1117 C1133 1.429 . S
C1117 H1139 0.950 . S
C1118 H1114 0.949 1_556 S
C1118 C1126 1.574 . S
C1118 C1134 1.368 . S
H1119 C1127 0.950 . S
H1120 C1125 0.950 . S
H1121 C1126 0.949 . S
H1122 C1128 0.950 . S
H1123 C1129 0.950 . S
H1124 C1130 0.949 . S
C1125 H1120 0.950 . S
C1125 C1127 1.327 . S
C1125 C1131 1.429 . S
C1126 C1118 1.574 . S
C1126 H1121 0.949 . S
C1126 C1132 1.368 . S
C1127 C1111 1.349 . S
C1127 H1119 0.950 . S
C1127 C1125 1.327 . S
C1128 C1116 1.349 . S
C1128 H1122 0.950 . S
C1128 C1129 1.327 . S
C1129 H1123 0.950 . S
C1129 C1128 1.327 . S
C1129 C1133 1.429 1_554 S
C1130 C1113 1.574 . S
C1130 H1124 0.949 . S
C1130 C1134 1.368 . S
C1131 C1112 1.429 . S
C1131 C1125 1.429 . S
C1131 C1132 1.523 . S
C1132 C1113 1.368 . S
C1132 C1126 1.368 . S
C1132 C1131 1.523 . S
C1133 C1117 1.429 . S
C1133 C1129 1.429 1_556 S
C1133 C1134 1.523 . S
C1134 C1118 1.368 . S
C1134 C1130 1.368 . S
C1134 C1133 1.523 . S
H1135 C1110 0.950 . S
H1136 C1112 0.950 . S
H1137 C1113 0.949 . S
H1138 C1115 0.951 1_556 S
H1139 C1117 0.950 . S
C1140 C1141 1.349 . S
C1140 C1142 1.327 . S
C1140 H1165 0.950 . S
C1141 C1140 1.349 . S
C1141 C1157 1.349 . S
C1142 C1140 1.327 . S
C1142 C1161 1.429 . S
C1142 H1166 0.950 . S
C1143 C1160 1.574 . S
C1143 C1162 1.368 . S
C1143 H1167 0.949 . S
H1144 C1148 0.949 1_554 S
C1145 C1146 1.349 1_556 S
C1145 C1147 1.327 . S
C1145 H1168 0.950 . S
C1146 C1145 1.349 1_554 S
C1146 C1158 1.349 . S
C1147 C1145 1.327 . S
C1147 C1163 1.429 . S
C1147 H1169 0.950 . S
C1148 H1144 0.949 1_556 S
C1148 C1156 1.574 . S
C1148 C1164 1.368 . S
H1149 C1157 0.950 . S
H1150 C1155 0.950 . S
H1151 C1156 0.966 . S
H1152 C1158 0.950 . S
H1153 C1159 0.950 . S
H1154 C1160 0.949 . S
C1155 H1150 0.950 . S
C1155 C1157 1.327 . S
C1155 C1161 1.429 . S
C1156 C1148 1.574 . S
C1156 H1151 0.966 . S
C1156 C1162 1.368 . S
C1157 C1141 1.349 . S
C1157 H1149 0.950 . S
C1157 C1155 1.327 . S
C1158 C1146 1.349 . S
C1158 H1152 0.950 . S
C1158 C1159 1.327 . S
C1159 H1153 0.950 . S
C1159 C1158 1.327 . S
C1159 C1163 1.429 1_554 S
C1160 C1143 1.574 . S
C1160 H1154 0.949 . S
C1160 C1164 1.368 . S
C1161 C1142 1.429 . S
C1161 C1155 1.429 . S
C1161 C1162 1.523 . S
C1162 C1143 1.368 . S
C1162 C1156 1.368 . S
C1162 C1161 1.523 . S
C1163 C1147 1.429 . S
C1163 C1159 1.429 1_556 S
C1163 C1164 1.523 . S
C1164 C1148 1.368 . S
C1164 C1160 1.368 . S
C1164 C1163 1.523 . S
H1165 C1140 0.950 . S
H1166 C1142 0.950 . S
H1167 C1143 0.949 . S
H1168 C1145 0.950 . S
H1169 C1147 0.950 . S
C1170 C1171 1.349 . S
C1170 C1172 1.327 . S
C1170 H1195 0.950 . S
C1171 C1170 1.349 . S
C1171 C1187 1.349 . S
C1172 C1170 1.327 . S
C1172 C1191 1.429 . S
C1172 H1196 0.950 . S
C1173 C1190 1.574 . S
C1173 C1192 1.368 . S
C1173 H1197 0.949 . S
H1174 C1178 0.949 . S
C1175 C1176 1.349 . S
C1175 C1177 1.327 . S
C1175 H1198 0.950 . S
C1176 C1175 1.349 . S
C1176 C1188 1.349 1_554 S
C1177 C1175 1.327 . S
C1177 C1193 1.429 1_554 S
C1177 H1199 0.950 . S
C1178 H1174 0.949 . S
C1178 C1186 1.574 . S
C1178 C1194 1.368 . S
H1179 C1187 0.950 . S
H1180 C1185 0.950 . S
H1181 C1186 0.949 . S
H1182 C1188 0.950 . S
H1183 C1189 0.950 . S
H1184 C1190 0.949 1_554 S
C1185 H1180 0.950 . S
C1185 C1187 1.327 . S
C1185 C1191 1.429 . S
C1186 C1178 1.574 . S
C1186 H1181 0.949 . S
C1186 C1192 1.368 . S
C1187 C1171 1.349 . S
C1187 H1179 0.950 . S
C1187 C1185 1.327 . S
C1188 C1176 1.349 1_556 S
C1188 H1182 0.950 . S
C1188 C1189 1.327 . S
C1189 H1183 0.950 . S
C1189 C1188 1.327 . S
C1189 C1193 1.429 . S
C1190 C1173 1.574 . S
C1190 H1184 0.949 1_556 S
C1190 C1194 1.368 . S
C1191 C1172 1.429 . S
C1191 C1185 1.429 . S
C1191 C1192 1.523 . S
C1192 C1173 1.368 . S
C1192 C1186 1.368 . S
C1192 C1191 1.523 . S
C1193 C1177 1.429 1_556 S
C1193 C1189 1.429 . S
C1193 C1194 1.523 . S
C1194 C1178 1.368 . S
C1194 C1190 1.368 . S
C1194 C1193 1.523 . S
H1195 C1170 0.950 . S
H1196 C1172 0.950 . S
H1197 C1173 0.949 . S
H1198 C1175 0.950 . S
H1199 C1177 0.950 . S
C1200 C1201 1.349 . S
C1200 C1202 1.327 . S
C1200 H1225 0.950 . S
C1201 C1200 1.349 . S
C1201 C1217 1.349 . S
C1202 C1200 1.327 . S
C1202 C1221 1.429 . S
C1202 H1226 0.950 . S
C1203 C1220 1.574 . S
C1203 C1222 1.368 . S
C1203 H1227 0.949 . S
H1204 C1208 0.949 . S
C1205 C1206 1.349 . S
C1205 C1207 1.327 . S
C1205 H1228 0.950 . S
C1206 C1205 1.349 . S
C1206 C1218 1.349 . S
C1207 C1205 1.327 . S
C1207 C1223 1.429 . S
C1207 H1229 0.950 . S
C1208 H1204 0.949 . S
C1208 C1216 1.574 . S
C1208 C1224 1.368 . S
H1209 C1217 0.950 . S
H1210 C1215 0.950 . S
H1211 C1216 0.949 . S
H1212 C1218 0.950 . S
H1213 C1219 0.950 . S
H1214 C1220 0.949 . S
C1215 H1210 0.950 . S
C1215 C1217 1.327 . S
C1215 C1221 1.429 . S
C1216 C1208 1.574 . S
C1216 H1211 0.949 . S
C1216 C1222 1.368 . S
C1217 C1201 1.349 . S
C1217 H1209 0.950 . S
C1217 C1215 1.327 . S
C1218 C1206 1.349 . S
C1218 H1212 0.950 . S
C1218 C1219 1.327 . S
C1219 H1213 0.950 . S
C1219 C1218 1.327 . S
C1219 C1223 1.429 . S
C1220 C1203 1.574 . S
C1220 H1214 0.949 . S
C1220 C1224 1.368 . S
C1221 C1202 1.429 . S
C1221 C1215 1.429 . S
C1221 C1222 1.523 . S
C1222 C1203 1.368 . S
C1222 C1216 1.368 . S
C1222 C1221 1.523 . S
C1223 C1207 1.429 . S
C1223 C1219 1.429 . S
C1223 C1224 1.523 . S
C1224 C1208 1.368 . S
C1224 C1220 1.368 . S
C1224 C1223 1.523 . S
H1225 C1200 0.950 . S
H1226 C1202 0.950 . S
H1227 C1203 0.949 . S
H1228 C1205 0.950 . S
H1229 C1207 0.950 . S
C1230 C1231 1.349 . S
C1230 C1232 1.327 . S
C1230 H1255 0.950 . S
C1231 C1230 1.349 . S
C1231 C1247 1.349 . S
C1232 C1230 1.327 . S
C1232 C1251 1.429 . S
C1232 H1256 0.911 1_556 S
C1233 C1250 1.574 . S
C1233 C1252 1.368 . S
C1233 H1257 0.949 . S
H1234 C1238 0.949 . S
C1235 C1236 1.349 . S
C1235 C1237 1.327 1_554 S
C1235 H1258 0.950 1_554 S
C1236 C1235 1.349 . S
C1236 C1248 1.349 . S
C1237 C1235 1.327 1_556 S
C1237 C1253 1.429 1_556 S
C1237 H1259 0.950 . S
C1238 H1234 0.949 . S
C1238 C1246 1.574 . S
C1238 C1254 1.368 1_554 S
H1239 C1247 0.950 . S
H1240 C1245 0.950 . S
H1241 C1246 0.949 . S
H1242 C1248 0.950 . S
H1243 C1249 0.950 . S
H1244 C1250 0.949 . S
C1245 H1240 0.950 . S
C1245 C1247 1.327 . S
C1245 C1251 1.429 . S
C1246 C1238 1.574 . S
C1246 H1241 0.949 . S
C1246 C1252 1.368 1_554 S
C1247 C1231 1.349 . S
C1247 H1239 0.950 . S
C1247 C1245 1.327 . S
C1248 C1236 1.349 . S
C1248 H1242 0.950 . S
C1248 C1249 1.327 . S
C1249 H1243 0.950 . S
C1249 C1248 1.327 . S
C1249 C1253 1.429 . S
C1250 C1233 1.574 . S
C1250 H1244 0.949 . S
C1250 C1254 1.368 . S
C1251 C1232 1.429 . S
C1251 C1245 1.429 . S
C1251 C1252 1.523 . S
C1252 C1233 1.368 . S
C1252 C1246 1.368 1_556 S
C1252 C1251 1.523 . S
C1253 C1237 1.429 1_554 S
C1253 C1249 1.429 . S
C1253 C1254 1.523 1_554 S
C1254 C1238 1.368 1_556 S
C1254 C1250 1.368 . S
C1254 C1253 1.523 1_556 S
H1255 C1230 0.950 . S
H1256 C1232 0.911 1_554 S
H1257 C1233 0.949 . S
H1258 C1235 0.950 1_556 S
H1259 C1237 0.950 . S
C1260 C1261 1.349 . S
C1260 C1262 1.327 . S
C1260 H1285 0.950 . S
C1261 C1260 1.349 . S
C1261 C1277 1.349 . S
C1262 C1260 1.327 . S
C1262 C1281 1.429 . S
C1262 H1286 0.950 . S
C1263 C1280 1.574 . S
C1263 C1282 1.368 . S
C1263 H1287 0.949 . S
H1264 C1268 0.949 . S
C1265 C1266 1.349 . S
C1265 C1267 1.327 . S
C1265 H1288 0.950 1_554 S
C1266 C1265 1.349 . S
C1266 C1278 1.349 . S
C1267 C1265 1.327 . S
C1267 C1283 1.429 . S
C1267 H1289 0.950 . S
C1268 H1264 0.949 . S
C1268 C1276 1.574 . S
C1268 C1284 1.368 . S
H1269 C1277 0.950 . S
H1270 C1275 0.950 . S
H1271 C1276 0.949 . S
H1272 C1278 0.950 . S
H1273 C1279 0.950 . S
H1274 C1280 0.949 . S
C1275 H1270 0.950 . S
C1275 C1277 1.327 . S
C1275 C1281 1.429 . S
C1276 C1268 1.574 . S
C1276 H1271 0.949 . S
C1276 C1282 1.368 . S
C1277 C1261 1.349 . S
C1277 H1269 0.950 . S
C1277 C1275 1.327 . S
C1278 C1266 1.349 . S
C1278 H1272 0.950 . S
C1278 C1279 1.327 . S
C1279 H1273 0.950 . S
C1279 C1278 1.327 . S
C1279 C1283 1.429 . S
C1280 C1263 1.574 . S
C1280 H1274 0.949 . S
C1280 C1284 1.368 . S
C1281 C1262 1.429 . S
C1281 C1275 1.429 . S
C1281 C1282 1.523 . S
C1282 C1263 1.368 . S
C1282 C1276 1.368 . S
C1282 C1281 1.523 . S
C1283 C1267 1.429 . S
C1283 C1279 1.429 . S
C1283 C1284 1.523 . S
C1284 C1268 1.368 . S
C1284 C1280 1.368 . S
C1284 C1283 1.523 . S
H1285 C1260 0.950 . S
H1286 C1262 0.950 . S
H1287 C1263 0.949 . S
H1288 C1265 0.950 1_556 S
H1289 C1267 0.950 . S
C1290 C1291 1.349 . S
C1290 C1292 1.327 . S
C1290 H1315 0.950 . S
C1291 C1290 1.349 . S
C1291 C1307 1.349 . S
C1292 C1290 1.327 . S
C1292 C1311 1.429 . S
C1292 H1316 0.950 . S
C1293 C1310 1.574 . S
C1293 C1312 1.368 . S
C1293 H1317 0.949 . S
H1294 C1298 0.949 . S
C1295 C1296 1.349 . S
C1295 C1297 1.327 . S
C1295 H1318 0.950 . S
C1296 C1295 1.349 . S
C1296 C1308 1.349 . S
C1297 C1295 1.327 . S
C1297 C1313 1.429 . S
C1297 H1319 0.950 . S
C1298 H1294 0.949 . S
C1298 C1306 1.574 . S
C1298 C1314 1.368 . S
H1299 C1307 0.950 . S
H1300 C1305 0.950 . S
H1301 C1306 0.949 . S
H1302 C1308 0.950 . S
H1303 C1309 0.950 . S
H1304 C1310 0.949 . S
C1305 H1300 0.950 . S
C1305 C1307 1.327 . S
C1305 C1311 1.429 . S
C1306 C1298 1.574 . S
C1306 H1301 0.949 . S
C1306 C1312 1.368 . S
C1307 C1291 1.349 . S
C1307 H1299 0.950 . S
C1307 C1305 1.327 . S
C1308 C1296 1.349 . S
C1308 H1302 0.950 . S
C1308 C1309 1.327 . S
C1309 H1303 0.950 . S
C1309 C1308 1.327 . S
C1309 C1313 1.429 . S
C1310 C1293 1.574 . S
C1310 H1304 0.949 . S
C1310 C1314 1.368 . S
C1311 C1292 1.429 . S
C1311 C1305 1.429 . S
C1311 C1312 1.523 . S
C1312 C1293 1.368 . S
C1312 C1306 1.368 . S
C1312 C1311 1.523 . S
C1313 C1297 1.429 . S
C1313 C1309 1.429 . S
C1313 C1314 1.523 . S
C1314 C1298 1.368 . S
C1314 C1310 1.368 . S
C1314 C1313 1.523 . S
H1315 C1290 0.950 . S
H1316 C1292 0.950 . S
H1317 C1293 0.949 . S
H1318 C1295 0.950 . S
H1319 C1297 0.950 . S
C1320 C1321 1.349 . S
C1320 C1322 1.327 . S
C1320 H1345 0.950 . S
C1321 C1320 1.349 . S
C1321 C1337 1.349 . S
C1322 C1320 1.327 . S
C1322 C1341 1.429 . S
C1322 H1346 0.950 . S
C1323 C1340 1.574 . S
C1323 C1342 1.368 . S
C1323 H1347 0.949 . S
H1324 C1328 0.949 . S
C1325 C1326 1.349 . S
C1325 C1327 1.327 . S
C1325 H1348 0.950 . S
C1326 C1325 1.349 . S
C1326 C1338 1.349 . S
C1327 C1325 1.327 . S
C1327 C1343 1.429 . S
C1327 H1349 0.950 . S
C1328 H1324 0.949 . S
C1328 C1336 1.574 . S
C1328 C1344 1.368 . S
H1329 C1337 0.950 . S
H1330 C1335 0.950 . S
H1331 C1336 0.949 . S
H1332 C1338 0.950 . S
H1333 C1339 0.950 . S
H1334 C1340 0.949 . S
C1335 H1330 0.950 . S
C1335 C1337 1.327 . S
C1335 C1341 1.429 . S
C1336 C1328 1.574 . S
C1336 H1331 0.949 . S
C1336 C1342 1.368 . S
C1337 C1321 1.349 . S
C1337 H1329 0.950 . S
C1337 C1335 1.327 . S
C1338 C1326 1.349 . S
C1338 H1332 0.950 . S
C1338 C1339 1.327 . S
C1339 H1333 0.950 . S
C1339 C1338 1.327 . S
C1339 C1343 1.429 . S
C1340 C1323 1.574 . S
C1340 H1334 0.949 . S
C1340 C1344 1.368 . S
C1341 C1322 1.429 . S
C1341 C1335 1.429 . S
C1341 C1342 1.523 . S
C1342 C1323 1.368 . S
C1342 C1336 1.368 . S
C1342 C1341 1.523 . S
C1343 C1327 1.429 . S
C1343 C1339 1.429 . S
C1343 C1344 1.523 . S
C1344 C1328 1.368 . S
C1344 C1340 1.368 . S
C1344 C1343 1.523 . S
H1345 C1320 0.950 . S
H1346 C1322 0.950 . S
H1347 C1323 0.949 . S
H1348 C1325 0.950 . S
H1349 C1327 0.950 . S
C1350 C1351 1.349 . S
C1350 C1352 1.327 . S
C1350 H1375 0.950 . S
C1351 C1350 1.349 . S
C1351 C1367 1.349 . S
C1352 C1350 1.327 . S
C1352 C1371 1.429 . S
C1352 H1376 0.950 . S
C1353 C1370 1.541 1_655 S
C1353 C1372 1.365 . S
C1353 H1377 0.984 . S
H1354 C1358 0.949 . S
C1355 C1356 1.349 . S
C1355 C1357 1.327 . S
C1355 H1378 0.950 . S
C1356 C1355 1.349 . S
C1356 C1368 1.349 . S
C1357 C1355 1.327 . S
C1357 C1373 1.429 . S
C1357 H1379 0.950 . S
C1358 H1354 0.949 . S
C1358 C1366 1.574 . S
C1358 C1374 1.368 . S
H1359 C1367 0.950 . S
H1360 C1365 0.950 . S
H1361 C1366 0.949 . S
H1362 C1368 0.950 . S
H1363 C1369 0.950 . S
H1364 C1370 0.949 . S
C1365 H1360 0.950 . S
C1365 C1367 1.327 . S
C1365 C1371 1.429 . S
C1366 C1358 1.574 . S
C1366 H1361 0.949 . S
C1366 C1372 1.368 1_455 S
C1367 C1351 1.349 . S
C1367 H1359 0.950 . S
C1367 C1365 1.327 . S
C1368 C1356 1.349 . S
C1368 H1362 0.950 . S
C1368 C1369 1.327 . S
C1369 H1363 0.950 . S
C1369 C1368 1.327 . S
C1369 C1373 1.429 . S
C1370 C1353 1.541 1_455 S
C1370 H1364 0.949 . S
C1370 C1374 1.368 . S
C1371 C1352 1.429 . S
C1371 C1365 1.429 . S
C1371 C1372 1.523 . S
C1372 C1353 1.365 . S
C1372 C1366 1.368 1_655 S
C1372 C1371 1.523 . S
C1373 C1357 1.429 . S
C1373 C1369 1.429 . S
C1373 C1374 1.523 . S
C1374 C1358 1.368 . S
C1374 C1370 1.368 . S
C1374 C1373 1.523 . S
H1375 C1350 0.950 . S
H1376 C1352 0.950 . S
H1377 C1353 0.984 . S
H1378 C1355 0.950 . S
H1379 C1357 0.950 . S
C1380 C1381 1.349 . S
C1380 C1382 1.327 . S
C1380 H1405 0.950 . S
C1381 C1380 1.349 . S
C1381 C1397 1.349 . S
C1382 C1380 1.327 . S
C1382 C1401 1.429 . S
C1382 H1406 0.950 . S
C1383 C1400 1.574 . S
C1383 C1402 1.368 . S
C1383 H1407 0.949 . S
H1384 C1388 0.949 . S
C1385 C1386 1.349 . S
C1385 C1387 1.327 . S
C1385 H1408 0.950 . S
C1386 C1385 1.349 . S
C1386 C1398 1.349 . S
C1387 C1385 1.327 . S
C1387 C1403 1.429 . S
C1387 H1409 0.950 . S
C1388 H1384 0.949 . S
C1388 C1396 1.574 . S
C1388 C1404 1.368 . S
H1389 C1397 0.950 . S
H1390 C1395 0.950 . S
H1391 C1396 0.949 . S
H1392 C1398 0.950 . S
H1393 C1399 0.950 . S
H1394 C1400 0.949 . S
C1395 H1390 0.950 . S
C1395 C1397 1.327 . S
C1395 C1401 1.429 . S
C1396 C1388 1.574 . S
C1396 H1391 0.949 . S
C1396 C1402 1.368 . S
C1397 C1381 1.349 . S
C1397 H1389 0.950 . S
C1397 C1395 1.327 . S
C1398 C1386 1.349 . S
C1398 H1392 0.950 . S
C1398 C1399 1.327 . S
C1399 H1393 0.950 . S
C1399 C1398 1.327 . S
C1399 C1403 1.429 . S
C1400 C1383 1.574 . S
C1400 H1394 0.949 . S
C1400 C1404 1.368 . S
C1401 C1382 1.429 . S
C1401 C1395 1.429 . S
C1401 C1402 1.523 . S
C1402 C1383 1.368 . S
C1402 C1396 1.368 . S
C1402 C1401 1.523 . S
C1403 C1387 1.429 . S
C1403 C1399 1.429 . S
C1403 C1404 1.523 . S
C1404 C1388 1.368 . S
C1404 C1400 1.368 . S
C1404 C1403 1.523 . S
H1405 C1380 0.950 . S
H1406 C1382 0.950 . S
H1407 C1383 0.949 . S
H1408 C1385 0.950 . S
H1409 C1387 0.950 . S
C1410 C1411 1.349 . S
C1410 C1412 1.327 . S
C1410 H1435 0.950 . S
C1411 C1410 1.349 . S
C1411 C1427 1.349 . S
C1412 C1410 1.327 . S
C1412 C1431 1.429 . S
C1412 H1436 0.950 . S
C1413 C1430 1.574 . S
C1413 C1432 1.368 . S
C1413 H1437 0.949 1_565 S
H1414 C1418 0.949 . S
C1415 C1416 1.349 . S
C1415 C1417 1.327 . S
C1415 H1438 0.950 . S
C1416 C1415 1.349 . S
C1416 C1428 1.349 . S
C1417 C1415 1.327 . S
C1417 C1433 1.429 . S
C1417 H1439 0.950 . S
C1418 H1414 0.949 . S
C1418 C1426 1.574 . S
C1418 C1434 1.368 . S
H1419 C1427 0.950 . S
H1420 C1425 0.950 . S
H1421 C1426 0.949 . S
H1422 C1428 0.950 . S
H1423 C1429 0.950 . S
H1424 C1430 0.949 . S
C1425 H1420 0.950 . S
C1425 C1427 1.327 . S
C1425 C1431 1.429 . S
C1426 C1418 1.574 . S
C1426 H1421 0.949 . S
C1426 C1432 1.368 . S
C1427 C1411 1.349 . S
C1427 H1419 0.950 . S
C1427 C1425 1.327 . S
C1428 C1416 1.349 . S
C1428 H1422 0.950 . S
C1428 C1429 1.327 . S
C1429 H1423 0.950 . S
C1429 C1428 1.327 . S
C1429 C1433 1.429 . S
C1430 C1413 1.574 . S
C1430 H1424 0.949 . S
C1430 C1434 1.368 . S
C1431 C1412 1.429 . S
C1431 C1425 1.429 . S
C1431 C1432 1.523 1_545 S
C1432 C1413 1.368 . S
C1432 C1426 1.368 . S
C1432 C1431 1.523 1_565 S
C1433 C1417 1.429 . S
C1433 C1429 1.429 . S
C1433 C1434 1.523 . S
C1434 C1418 1.368 . S
C1434 C1430 1.368 . S
C1434 C1433 1.523 . S
H1435 C1410 0.950 . S
H1436 C1412 0.950 . S
H1437 C1413 0.949 1_545 S
H1438 C1415 0.950 . S
H1439 C1417 0.950 . S
C1440 C1441 1.349 . S
C1440 C1442 1.327 . S
C1440 H1465 0.950 . S
C1441 C1440 1.349 . S
C1441 C1457 1.349 . S
C1442 C1440 1.327 . S
C1442 C1461 1.429 . S
C1442 H1466 0.950 . S
C1443 C1460 1.574 . S
C1443 C1462 1.368 . S
C1443 H1467 0.949 . S
H1444 C1448 0.949 . S
C1445 C1446 1.349 . S
C1445 C1447 1.327 . S
C1445 H1468 0.950 . S
C1446 C1445 1.349 . S
C1446 C1458 1.349 . S
C1447 C1445 1.327 . S
C1447 C1463 1.429 . S
C1447 H1469 0.950 . S
C1448 H1444 0.949 . S
C1448 C1456 1.574 . S
C1448 C1464 1.368 . S
H1449 C1457 0.950 . S
H1450 C1455 0.950 . S
H1451 C1456 0.949 . S
H1452 C1458 0.950 . S
H1453 C1459 0.950 . S
H1454 C1460 0.949 . S
C1455 H1450 0.950 . S
C1455 C1457 1.327 . S
C1455 C1461 1.429 . S
C1456 C1448 1.574 . S
C1456 H1451 0.949 . S
C1456 C1462 1.368 . S
C1457 C1441 1.349 . S
C1457 H1449 0.950 . S
C1457 C1455 1.327 . S
C1458 C1446 1.349 . S
C1458 H1452 0.950 . S
C1458 C1459 1.327 . S
C1459 H1453 0.950 . S
C1459 C1458 1.327 . S
C1459 C1463 1.429 . S
C1460 C1443 1.574 . S
C1460 H1454 0.949 . S
C1460 C1464 1.368 . S
C1461 C1442 1.429 . S
C1461 C1455 1.429 . S
C1461 C1462 1.523 . S
C1462 C1443 1.368 . S
C1462 C1456 1.368 . S
C1462 C1461 1.523 . S
C1463 C1447 1.429 . S
C1463 C1459 1.429 . S
C1463 C1464 1.523 . S
C1464 C1448 1.368 . S
C1464 C1460 1.368 . S
C1464 C1463 1.523 . S
H1465 C1440 0.950 . S
H1466 C1442 0.950 . S
H1467 C1443 0.949 . S
H1468 C1445 0.950 . S
H1469 C1447 0.950 . S
C1470 C1471 1.349 . S
C1470 C1472 1.327 . S
C1470 H1495 0.950 . S
C1471 C1470 1.349 . S
C1471 C1487 1.349 . S
C1472 C1470 1.327 . S
C1472 C1491 1.429 . S
C1472 H1496 0.950 . S
C1473 C1490 1.574 . S
C1473 C1492 1.368 . S
C1473 H1497 0.949 . S
H1474 C1478 0.949 . S
C1475 C1476 1.349 . S
C1475 C1477 1.327 . S
C1475 H1498 0.950 . S
C1476 C1475 1.349 . S
C1476 C1488 1.349 . S
C1477 C1475 1.327 . S
C1477 C1493 1.429 . S
C1477 H1499 0.950 . S
C1478 H1474 0.949 . S
C1478 C1486 1.574 . S
C1478 C1494 1.368 . S
H1479 C1487 0.950 . S
H1480 C1485 0.950 . S
H1481 C1486 0.949 . S
H1482 C1488 0.950 . S
H1483 C1489 0.950 . S
H1484 C1490 0.949 . S
C1485 H1480 0.950 . S
C1485 C1487 1.327 . S
C1485 C1491 1.429 . S
C1486 C1478 1.574 . S
C1486 H1481 0.949 . S
C1486 C1492 1.368 . S
C1487 C1471 1.349 . S
C1487 H1479 0.950 . S
C1487 C1485 1.327 . S
C1488 C1476 1.349 . S
C1488 H1482 0.950 . S
C1488 C1489 1.327 . S
C1489 H1483 0.950 . S
C1489 C1488 1.327 . S
C1489 C1493 1.429 . S
C1490 C1473 1.574 . S
C1490 H1484 0.949 . S
C1490 C1494 1.368 . S
C1491 C1472 1.429 . S
C1491 C1485 1.429 . S
C1491 C1492 1.523 . S
C1492 C1473 1.368 . S
C1492 C1486 1.368 . S
C1492 C1491 1.523 . S
C1493 C1477 1.429 . S
C1493 C1489 1.429 . S
C1493 C1494 1.523 . S
C1494 C1478 1.368 . S
C1494 C1490 1.368 . S
C1494 C1493 1.523 . S
H1495 C1470 0.950 . S
H1496 C1472 0.950 . S
H1497 C1473 0.949 . S
H1498 C1475 0.950 . S
H1499 C1477 0.950 . S
C1500 C1501 1.349 . S
C1500 C1502 1.327 . S
C1500 H1525 0.950 . S
C1501 C1500 1.349 . S
C1501 C1517 1.349 . S
C1502 C1500 1.327 . S
C1502 C1521 1.429 . S
C1502 H1526 0.950 . S
C1503 C1520 1.574 . S
C1503 C1522 1.368 . S
C1503 H1527 0.949 . S
H1504 C1508 0.949 . S
C1505 C1506 1.349 . S
C1505 C1507 1.327 . S
C1505 H1528 0.950 . S
C1506 C1505 1.349 . S
C1506 C1518 1.349 . S
C1507 C1505 1.327 . S
C1507 C1523 1.429 . S
C1507 H1529 0.950 . S
C1508 H1504 0.949 . S
C1508 C1516 1.574 . S
C1508 C1524 1.368 . S
H1509 C1517 0.950 . S
H1510 C1515 0.950 . S
H1511 C1516 0.949 . S
H1512 C1518 0.950 . S
H1513 C1519 0.950 . S
H1514 C1520 0.949 . S
C1515 H1510 0.950 . S
C1515 C1517 1.327 . S
C1515 C1521 1.429 . S
C1516 C1508 1.574 . S
C1516 H1511 0.949 . S
C1516 C1522 1.368 . S
C1517 C1501 1.349 . S
C1517 H1509 0.950 . S
C1517 C1515 1.327 . S
C1518 C1506 1.349 . S
C1518 H1512 0.950 . S
C1518 C1519 1.327 . S
C1519 H1513 0.950 . S
C1519 C1518 1.327 . S
C1519 C1523 1.429 . S
C1520 C1503 1.574 . S
C1520 H1514 0.949 . S
C1520 C1524 1.368 . S
C1521 C1502 1.429 . S
C1521 C1515 1.429 . S
C1521 C1522 1.523 . S
C1522 C1503 1.368 . S
C1522 C1516 1.368 . S
C1522 C1521 1.523 . S
C1523 C1507 1.429 . S
C1523 C1519 1.429 . S
C1523 C1524 1.523 . S
C1524 C1508 1.368 . S
C1524 C1520 1.368 . S
C1524 C1523 1.523 . S
H1525 C1500 0.950 . S
H1526 C1502 0.950 . S
H1527 C1503 0.949 . S
H1528 C1505 0.950 . S
H1529 C1507 0.950 . S
C1530 C1531 1.349 . S
C1530 C1532 1.327 . S
C1530 H1555 0.950 . S
C1531 C1530 1.349 . S
C1531 C1547 1.349 . S
C1532 C1530 1.327 . S
C1532 C1551 1.429 . S
C1532 H1556 0.950 . S
C1533 C1550 1.574 . S
C1533 C1552 1.368 . S
C1533 H1557 0.949 . S
H1534 C1538 0.949 . S
C1535 C1536 1.349 . S
C1535 C1537 1.327 . S
C1535 H1558 0.950 . S
C1536 C1535 1.349 . S
C1536 C1548 1.349 . S
C1537 C1535 1.327 . S
C1537 C1553 1.429 . S
C1537 H1559 0.950 . S
C1538 H1534 0.949 . S
C1538 C1546 1.574 . S
C1538 C1554 1.368 . S
H1539 C1547 0.950 . S
H1540 C1545 0.950 . S
H1541 C1546 0.949 . S
H1542 C1548 0.950 . S
H1543 C1549 0.950 . S
H1544 C1550 0.949 . S
C1545 H1540 0.950 . S
C1545 C1547 1.327 . S
C1545 C1551 1.429 . S
C1546 C1538 1.574 . S
C1546 H1541 0.949 . S
C1546 C1552 1.368 . S
C1547 C1531 1.349 . S
C1547 H1539 0.950 . S
C1547 C1545 1.327 . S
C1548 C1536 1.349 . S
C1548 H1542 0.950 . S
C1548 C1549 1.327 . S
C1549 H1543 0.950 . S
C1549 C1548 1.327 . S
C1549 C1553 1.429 . S
C1550 C1533 1.574 . S
C1550 H1544 0.949 . S
C1550 C1554 1.368 . S
C1551 C1532 1.429 . S
C1551 C1545 1.429 . S
C1551 C1552 1.523 . S
C1552 C1533 1.368 . S
C1552 C1546 1.368 . S
C1552 C1551 1.523 . S
C1553 C1537 1.429 . S
C1553 C1549 1.429 . S
C1553 C1554 1.523 . S
C1554 C1538 1.368 . S
C1554 C1550 1.368 . S
C1554 C1553 1.523 . S
H1555 C1530 0.950 . S
H1556 C1532 0.950 . S
H1557 C1533 0.949 . S
H1558 C1535 0.950 . S
H1559 C1537 0.950 . S
C1560 C1561 1.349 . S
C1560 C1562 1.327 . S
C1560 H1585 0.950 . S
C1561 C1560 1.349 . S
C1561 C1577 1.349 . S
C1562 C1560 1.327 . S
C1562 C1581 1.429 . S
C1562 H1586 0.950 . S
C1563 C1580 1.574 . S
C1563 C1582 1.368 . S
C1563 H1587 0.949 . S
H1564 C1568 0.949 . S
C1565 C1566 1.349 . S
C1565 C1567 1.327 . S
C1565 H1588 0.950 . S
C1566 C1565 1.349 . S
C1566 C1578 1.349 . S
C1567 C1565 1.327 . S
C1567 C1583 1.429 . S
C1567 H1589 0.950 . S
C1568 H1564 0.949 . S
C1568 C1576 1.574 . S
C1568 C1584 1.368 . S
H1569 C1577 0.950 . S
H1570 C1575 0.950 . S
H1571 C1576 0.949 . S
H1572 C1578 0.950 . S
H1573 C1579 0.950 . S
H1574 C1580 0.949 . S
C1575 H1570 0.950 . S
C1575 C1577 1.327 . S
C1575 C1581 1.429 . S
C1576 C1568 1.574 . S
C1576 H1571 0.949 . S
C1576 C1582 1.368 . S
C1577 C1561 1.349 . S
C1577 H1569 0.950 . S
C1577 C1575 1.327 . S
C1578 C1566 1.349 . S
C1578 H1572 0.950 . S
C1578 C1579 1.327 . S
C1579 H1573 0.950 . S
C1579 C1578 1.327 . S
C1579 C1583 1.429 . S
C1580 C1563 1.574 . S
C1580 H1574 0.949 . S
C1580 C1584 1.368 . S
C1581 C1562 1.429 . S
C1581 C1575 1.429 . S
C1581 C1582 1.523 . S
C1582 C1563 1.368 . S
C1582 C1576 1.368 . S
C1582 C1581 1.523 . S
C1583 C1567 1.429 . S
C1583 C1579 1.429 . S
C1583 C1584 1.523 . S
C1584 C1568 1.368 . S
C1584 C1580 1.368 . S
C1584 C1583 1.523 . S
H1585 C1560 0.950 . S
H1586 C1562 0.950 . S
H1587 C1563 0.949 . S
H1588 C1565 0.950 . S
H1589 C1567 0.950 . S
C1590 C1591 1.349 . S
C1590 C1592 1.327 . S
C1590 H1615 0.950 . S
C1591 C1590 1.349 . S
C1591 C1607 1.349 . S
C1592 C1590 1.327 . S
C1592 C1611 1.429 . S
C1592 H1616 0.950 . S
C1593 C1610 1.574 . S
C1593 C1612 1.368 . S
C1593 H1617 0.949 . S
H1594 C1598 0.949 . S
C1595 C1596 1.349 . S
C1595 C1597 1.327 . S
C1595 H1618 0.950 . S
C1596 C1595 1.349 . S
C1596 C1608 1.349 . S
C1597 C1595 1.327 . S
C1597 C1613 1.429 . S
C1597 H1619 0.950 . S
C1598 H1594 0.949 . S
C1598 C1606 1.574 . S
C1598 C1614 1.368 . S
H1599 C1607 0.950 . S
H1600 C1605 0.950 . S
H1601 C1606 0.949 . S
H1602 C1608 0.950 . S
H1603 C1609 0.950 . S
H1604 C1610 0.949 . S
C1605 H1600 0.950 . S
C1605 C1607 1.327 . S
C1605 C1611 1.429 . S
C1606 C1598 1.574 . S
C1606 H1601 0.949 . S
C1606 C1612 1.368 . S
C1607 C1591 1.349 . S
C1607 H1599 0.950 . S
C1607 C1605 1.327 . S
C1608 C1596 1.349 . S
C1608 H1602 0.950 . S
C1608 C1609 1.327 . S
C1609 H1603 0.950 . S
C1609 C1608 1.327 . S
C1609 C1613 1.429 . S
C1610 C1593 1.574 . S
C1610 H1604 0.949 . S
C1610 C1614 1.368 . S
C1611 C1592 1.429 . S
C1611 C1605 1.429 . S
C1611 C1612 1.523 . S
C1612 C1593 1.368 . S
C1612 C1606 1.368 . S
C1612 C1611 1.523 . S
C1613 C1597 1.429 . S
C1613 C1609 1.429 . S
C1613 C1614 1.523 . S
C1614 C1598 1.368 . S
C1614 C1610 1.368 . S
C1614 C1613 1.523 . S
H1615 C1590 0.950 . S
H1616 C1592 0.950 . S
H1617 C1593 0.949 . S
H1618 C1595 0.950 . S
H1619 C1597 0.950 . S
C1620 C1621 1.349 . S
C1620 C1622 1.327 . S
C1620 H1645 0.950 . S
C1621 C1620 1.349 . S
C1621 C1637 1.349 . S
C1622 C1620 1.327 . S
C1622 C1641 1.429 . S
C1622 H1646 0.950 . S
C1623 C1640 1.574 . S
C1623 C1642 1.368 1_565 S
C1623 H1647 0.949 1_565 S
H1624 C1628 0.949 . S
C1625 C1626 1.349 . S
C1625 C1627 1.327 . S
C1625 H1648 0.950 . S
C1626 C1625 1.349 . S
C1626 C1638 1.349 . S
C1627 C1625 1.327 . S
C1627 C1643 1.429 . S
C1627 H1649 0.950 . S
C1628 H1624 0.949 . S
C1628 C1636 1.574 1_565 S
C1628 C1644 1.368 . S
H1629 C1637 0.950 . S
H1630 C1635 0.950 . S
H1631 C1636 0.949 . S
H1632 C1638 0.950 . S
H1633 C1639 0.950 . S
H1634 C1640 0.949 . S
C1635 H1630 0.950 . S
C1635 C1637 1.327 . S
C1635 C1641 1.429 . S
C1636 C1628 1.574 1_545 S
C1636 H1631 0.949 . S
C1636 C1642 1.368 . S
C1637 C1621 1.349 . S
C1637 H1629 0.950 . S
C1637 C1635 1.327 . S
C1638 C1626 1.349 . S
C1638 H1632 0.950 . S
C1638 C1639 1.327 . S
C1639 H1633 0.950 . S
C1639 C1638 1.327 . S
C1639 C1643 1.429 . S
C1640 C1623 1.574 . S
C1640 H1634 0.949 . S
C1640 C1644 1.368 . S
C1641 C1622 1.429 . S
C1641 C1635 1.429 . S
C1641 C1642 1.523 . S
C1642 C1623 1.368 1_545 S
C1642 C1636 1.368 . S
C1642 C1641 1.523 . S
C1643 C1627 1.429 . S
C1643 C1639 1.429 . S
C1643 C1644 1.523 . S
C1644 C1628 1.368 . S
C1644 C1640 1.368 . S
C1644 C1643 1.523 . S
H1645 C1620 0.950 . S
H1646 C1622 0.950 . S
H1647 C1623 0.949 1_545 S
H1648 C1625 0.950 . S
H1649 C1627 0.950 . S
C1650 C1651 1.349 . S
C1650 C1652 1.327 . S
C1650 H1675 0.950 . S
C1651 C1650 1.349 . S
C1651 C1667 1.349 . S
C1652 C1650 1.327 . S
C1652 C1671 1.429 . S
C1652 H1676 0.950 1_655 S
C1653 C1670 1.574 . S
C1653 C1672 1.368 . S
C1653 H1677 0.949 1_455 S
H1654 C1658 0.949 . S
C1655 C1656 1.349 . S
C1655 C1657 1.327 . S
C1655 H1678 0.950 . S
C1656 C1655 1.349 . S
C1656 C1668 1.349 . S
C1657 C1655 1.327 . S
C1657 C1673 1.429 . S
C1657 H1679 0.950 . S
C1658 H1654 0.949 . S
C1658 C1666 1.574 . S
C1658 C1674 1.368 . S
H1659 C1667 0.950 . S
H1660 C1665 0.950 . S
H1661 C1666 0.949 . S
H1662 C1668 0.950 . S
H1663 C1669 0.950 . S
H1664 C1670 0.949 . S
C1665 H1660 0.950 . S
C1665 C1667 1.327 . S
C1665 C1671 1.429 . S
C1666 C1658 1.574 . S
C1666 H1661 0.949 . S
C1666 C1672 1.368 . S
C1667 C1651 1.349 . S
C1667 H1659 0.950 . S
C1667 C1665 1.327 . S
C1668 C1656 1.349 . S
C1668 H1662 0.950 . S
C1668 C1669 1.327 . S
C1669 H1663 0.950 . S
C1669 C1668 1.327 . S
C1669 C1673 1.429 . S
C1670 C1653 1.574 . S
C1670 H1664 0.949 . S
C1670 C1674 1.368 . S
C1671 C1652 1.429 . S
C1671 C1665 1.429 . S
C1671 C1672 1.523 1_655 S
C1672 C1653 1.368 . S
C1672 C1666 1.368 . S
C1672 C1671 1.523 1_455 S
C1673 C1657 1.429 . S
C1673 C1669 1.429 . S
C1673 C1674 1.523 . S
C1674 C1658 1.368 . S
C1674 C1670 1.368 . S
C1674 C1673 1.523 . S
H1675 C1650 0.950 . S
H1676 C1652 0.950 1_455 S
H1677 C1653 0.949 1_655 S
H1678 C1655 0.950 . S
H1679 C1657 0.950 . S
C1680 C1681 1.349 . S
C1680 C1682 1.327 . S
C1680 H1705 0.950 . S
C1681 C1680 1.349 . S
C1681 C1697 1.349 . S
C1682 C1680 1.327 . S
C1682 C1701 1.429 . S
C1682 H1706 0.950 . S
C1683 C1700 1.574 . S
C1683 C1702 1.368 . S
C1683 H1707 0.949 . S
H1684 C1688 0.949 . S
C1685 C1686 1.349 . S
C1685 C1687 1.327 . S
C1685 H1708 0.950 . S
C1686 C1685 1.349 . S
C1686 C1698 1.349 . S
C1687 C1685 1.327 . S
C1687 C1703 1.429 . S
C1687 H1709 0.950 . S
C1688 H1684 0.949 . S
C1688 C1696 1.574 . S
C1688 C1704 1.368 . S
H1689 C1697 0.950 . S
H1690 C1695 0.950 . S
H1691 C1696 0.949 . S
H1692 C1698 0.950 . S
H1693 C1699 0.950 . S
H1694 C1700 0.949 . S
C1695 H1690 0.950 . S
C1695 C1697 1.327 . S
C1695 C1701 1.429 . S
C1696 C1688 1.574 . S
C1696 H1691 0.949 . S
C1696 C1702 1.368 . S
C1697 C1681 1.349 . S
C1697 H1689 0.950 . S
C1697 C1695 1.327 . S
C1698 C1686 1.349 . S
C1698 H1692 0.950 . S
C1698 C1699 1.327 . S
C1699 H1693 0.950 . S
C1699 C1698 1.327 . S
C1699 C1703 1.429 . S
C1700 C1683 1.574 . S
C1700 H1694 0.949 . S
C1700 C1704 1.368 . S
C1701 C1682 1.429 . S
C1701 C1695 1.429 . S
C1701 C1702 1.523 . S
C1702 C1683 1.368 . S
C1702 C1696 1.368 . S
C1702 C1701 1.523 . S
C1703 C1687 1.429 . S
C1703 C1699 1.429 . S
C1703 C1704 1.523 . S
C1704 C1688 1.368 . S
C1704 C1700 1.368 . S
C1704 C1703 1.523 . S
H1705 C1680 0.950 . S
H1706 C1682 0.950 . S
H1707 C1683 0.949 . S
H1708 C1685 0.950 . S
H1709 C1687 0.950 . S
C1710 C1711 1.349 . S
C1710 C1712 1.327 . S
C1710 H1735 0.950 . S
C1711 C1710 1.349 . S
C1711 C1727 1.349 . S
C1712 C1710 1.327 . S
C1712 C1731 1.429 . S
C1712 H1736 0.950 . S
C1713 C1730 1.574 . S
C1713 C1732 1.368 . S
C1713 H1737 0.949 . S
H1714 C1718 0.949 . S
C1715 C1716 1.349 . S
C1715 C1717 1.327 . S
C1715 H1738 0.950 . S
C1716 C1715 1.349 . S
C1716 C1728 1.349 . S
C1717 C1715 1.327 . S
C1717 C1733 1.429 . S
C1717 H1739 0.950 . S
C1718 H1714 0.949 . S
C1718 C1726 1.574 . S
C1718 C1734 1.368 . S
H1719 C1727 0.950 . S
H1720 C1725 0.950 . S
H1721 C1726 0.949 . S
H1722 C1728 0.950 . S
H1723 C1729 0.950 . S
H1724 C1730 0.949 . S
C1725 H1720 0.950 . S
C1725 C1727 1.327 . S
C1725 C1731 1.429 . S
C1726 C1718 1.574 . S
C1726 H1721 0.949 . S
C1726 C1732 1.368 . S
C1727 C1711 1.349 . S
C1727 H1719 0.950 . S
C1727 C1725 1.327 . S
C1728 C1716 1.349 . S
C1728 H1722 0.950 . S
C1728 C1729 1.327 . S
C1729 H1723 0.950 . S
C1729 C1728 1.327 . S
C1729 C1733 1.429 . S
C1730 C1713 1.574 . S
C1730 H1724 0.949 . S
C1730 C1734 1.368 . S
C1731 C1712 1.429 . S
C1731 C1725 1.429 . S
C1731 C1732 1.523 . S
C1732 C1713 1.368 . S
C1732 C1726 1.368 . S
C1732 C1731 1.523 . S
C1733 C1717 1.429 . S
C1733 C1729 1.429 . S
C1733 C1734 1.523 . S
C1734 C1718 1.368 . S
C1734 C1730 1.368 . S
C1734 C1733 1.523 . S
H1735 C1710 0.950 . S
H1736 C1712 0.950 . S
H1737 C1713 0.949 . S
H1738 C1715 0.950 . S
H1739 C1717 0.950 . S
C1740 C1741 1.349 . S
C1740 C1742 1.327 . S
C1740 H1765 0.950 . S
C1741 C1740 1.349 . S
C1741 C1757 1.349 . S
C1742 C1740 1.327 . S
C1742 C1761 1.429 . S
C1742 H1766 0.950 . S
C1743 C1760 1.574 . S
C1743 C1762 1.368 . S
C1743 H1767 0.949 . S
H1744 C1748 0.949 . S
C1745 C1746 1.349 . S
C1745 C1747 1.327 . S
C1745 H1768 0.950 . S
C1746 C1745 1.349 . S
C1746 C1758 1.349 . S
C1747 C1745 1.327 . S
C1747 C1763 1.429 . S
C1747 H1769 0.950 . S
C1748 H1744 0.949 . S
C1748 C1756 1.574 . S
C1748 C1764 1.368 . S
H1749 C1757 0.950 . S
H1750 C1755 0.950 . S
H1751 C1756 0.949 . S
H1752 C1758 0.950 . S
H1753 C1759 0.950 . S
H1754 C1760 0.949 . S
C1755 H1750 0.950 . S
C1755 C1757 1.327 . S
C1755 C1761 1.429 . S
C1756 C1748 1.574 . S
C1756 H1751 0.949 . S
C1756 C1762 1.368 . S
C1757 C1741 1.349 . S
C1757 H1749 0.950 . S
C1757 C1755 1.327 . S
C1758 C1746 1.349 . S
C1758 H1752 0.950 . S
C1758 C1759 1.327 . S
C1759 H1753 0.950 . S
C1759 C1758 1.327 . S
C1759 C1763 1.429 . S
C1760 C1743 1.574 . S
C1760 H1754 0.949 . S
C1760 C1764 1.368 . S
C1761 C1742 1.429 . S
C1761 C1755 1.429 . S
C1761 C1762 1.523 . S
C1762 C1743 1.368 . S
C1762 C1756 1.368 . S
C1762 C1761 1.523 . S
C1763 C1747 1.429 . S
C1763 C1759 1.429 . S
C1763 C1764 1.523 . S
C1764 C1748 1.368 . S
C1764 C1760 1.368 . S
C1764 C1763 1.523 . S
H1765 C1740 0.950 . S
H1766 C1742 0.950 . S
H1767 C1743 0.949 . S
H1768 C1745 0.950 . S
H1769 C1747 0.950 . S
C1770 C1771 1.349 . S
C1770 C1772 1.327 . S
C1770 H1795 0.950 . S
C1771 C1770 1.349 . S
C1771 C1787 1.349 . S
C1772 C1770 1.327 . S
C1772 C1791 1.429 . S
C1772 H1796 0.950 . S
C1773 C1790 1.574 . S
C1773 C1792 1.368 . S
C1773 H1797 0.949 . S
H1774 C1778 0.949 . S
C1775 C1776 1.349 . S
C1775 C1777 1.327 . S
C1775 H1798 0.950 . S
C1776 C1775 1.349 . S
C1776 C1788 1.349 . S
C1777 C1775 1.327 . S
C1777 C1793 1.429 . S
C1777 H1799 0.950 . S
C1778 H1774 0.949 . S
C1778 C1786 1.574 . S
C1778 C1794 1.368 . S
H1779 C1787 0.950 . S
H1780 C1785 0.950 . S
H1781 C1786 0.949 . S
H1782 C1788 0.950 . S
H1783 C1789 0.950 . S
H1784 C1790 0.949 . S
C1785 H1780 0.950 . S
C1785 C1787 1.327 . S
C1785 C1791 1.429 . S
C1786 C1778 1.574 . S
C1786 H1781 0.949 . S
C1786 C1792 1.368 . S
C1787 C1771 1.349 . S
C1787 H1779 0.950 . S
C1787 C1785 1.327 . S
C1788 C1776 1.349 . S
C1788 H1782 0.950 . S
C1788 C1789 1.327 . S
C1789 H1783 0.950 . S
C1789 C1788 1.327 . S
C1789 C1793 1.429 . S
C1790 C1773 1.574 . S
C1790 H1784 0.949 . S
C1790 C1794 1.368 . S
C1791 C1772 1.429 . S
C1791 C1785 1.429 . S
C1791 C1792 1.523 . S
C1792 C1773 1.368 . S
C1792 C1786 1.368 . S
C1792 C1791 1.523 . S
C1793 C1777 1.429 . S
C1793 C1789 1.429 . S
C1793 C1794 1.523 . S
C1794 C1778 1.368 . S
C1794 C1790 1.368 . S
C1794 C1793 1.523 . S
H1795 C1770 0.950 . S
H1796 C1772 0.950 . S
H1797 C1773 0.949 . S
H1798 C1775 0.950 . S
H1799 C1777 0.950 . S
C1800 C1801 1.349 . S
C1800 C1802 1.327 . S
C1800 H1825 0.950 . S
C1801 C1800 1.349 . S
C1801 C1817 1.349 . S
C1802 C1800 1.327 . S
C1802 C1821 1.429 . S
C1802 H1826 0.950 . S
C1803 C1820 1.574 . S
C1803 C1822 1.368 . S
C1803 H1827 0.949 1_545 S
H1804 C1808 0.949 . S
C1805 C1806 1.349 . S
C1805 C1807 1.327 . S
C1805 H1828 0.950 . S
C1806 C1805 1.349 . S
C1806 C1818 1.349 . S
C1807 C1805 1.327 . S
C1807 C1823 1.429 . S
C1807 H1829 0.950 . S
C1808 H1804 0.949 . S
C1808 C1816 1.574 . S
C1808 C1824 1.368 . S
H1809 C1817 0.950 . S
H1810 C1815 0.950 . S
H1811 C1816 0.949 . S
H1812 C1818 0.950 . S
H1813 C1819 0.950 . S
H1814 C1820 0.949 . S
C1815 H1810 0.950 . S
C1815 C1817 1.327 . S
C1815 C1821 1.429 . S
C1816 C1808 1.574 . S
C1816 H1811 0.949 . S
C1816 C1822 1.368 . S
C1817 C1801 1.349 . S
C1817 H1809 0.950 . S
C1817 C1815 1.327 . S
C1818 C1806 1.349 . S
C1818 H1812 0.950 . S
C1818 C1819 1.327 . S
C1819 H1813 0.950 . S
C1819 C1818 1.327 . S
C1819 C1823 1.429 . S
C1820 C1803 1.574 . S
C1820 H1814 0.949 . S
C1820 C1824 1.368 . S
C1821 C1802 1.429 . S
C1821 C1815 1.429 . S
C1821 C1822 1.523 1_565 S
C1822 C1803 1.368 . S
C1822 C1816 1.368 . S
C1822 C1821 1.523 1_545 S
C1823 C1807 1.429 . S
C1823 C1819 1.429 . S
C1823 C1824 1.523 . S
C1824 C1808 1.368 . S
C1824 C1820 1.368 . S
C1824 C1823 1.523 . S
H1825 C1800 0.950 . S
H1826 C1802 0.950 . S
H1827 C1803 0.949 1_565 S
H1828 C1805 0.950 . S
H1829 C1807 0.950 . S
C1830 C1831 1.349 . S
C1830 C1832 1.327 . S
C1830 H1855 0.950 . S
C1831 C1830 1.349 . S
C1831 C1847 1.349 . S
C1832 C1830 1.327 . S
C1832 C1851 1.429 1_455 S
C1832 H1856 0.950 1_455 S
C1833 C1850 1.574 . S
C1833 C1852 1.368 . S
C1833 H1857 0.949 . S
H1834 C1838 0.949 . S
C1835 C1836 1.349 . S
C1835 C1837 1.327 . S
C1835 H1858 0.950 . S
C1836 C1835 1.349 . S
C1836 C1848 1.349 . S
C1837 C1835 1.327 . S
C1837 C1853 1.429 . S
C1837 H1859 0.950 . S
C1838 H1834 0.949 . S
C1838 C1846 1.574 . S
C1838 C1854 1.368 . S
H1839 C1847 0.950 . S
H1840 C1845 0.950 . S
H1841 C1846 0.949 . S
H1842 C1848 0.950 . S
H1843 C1849 0.950 . S
H1844 C1850 0.949 . S
C1845 H1840 0.950 . S
C1845 C1847 1.327 . S
C1845 C1851 1.429 1_455 S
C1846 C1838 1.574 . S
C1846 H1841 0.949 . S
C1846 C1852 1.368 . S
C1847 C1831 1.349 . S
C1847 H1839 0.950 . S
C1847 C1845 1.327 . S
C1848 C1836 1.349 . S
C1848 H1842 0.950 . S
C1848 C1849 1.327 . S
C1849 H1843 0.950 . S
C1849 C1848 1.327 . S
C1849 C1853 1.429 . S
C1850 C1833 1.574 . S
C1850 H1844 0.949 . S
C1850 C1854 1.368 . S
C1851 C1832 1.429 1_655 S
C1851 C1845 1.429 1_655 S
C1851 C1852 1.523 . S
C1852 C1833 1.368 . S
C1852 C1846 1.368 . S
C1852 C1851 1.523 . S
C1853 C1837 1.429 . S
C1853 C1849 1.429 . S
C1853 C1854 1.523 . S
C1854 C1838 1.368 . S
C1854 C1850 1.368 . S
C1854 C1853 1.523 . S
H1855 C1830 0.950 . S
H1856 C1832 0.950 1_655 S
H1857 C1833 0.949 . S
H1858 C1835 0.950 . S
H1859 C1837 0.950 . S
C1860 C1861 1.349 . S
C1860 C1862 1.327 . S
C1860 H1885 0.950 . S
C1861 C1860 1.349 . S
C1861 C1877 1.349 . S
C1862 C1860 1.327 . S
C1862 C1881 1.429 . S
C1862 H1886 0.950 . S
C1863 C1880 1.574 . S
C1863 C1882 1.368 . S
C1863 H1887 0.949 . S
H1864 C1868 0.949 . S
C1865 C1866 1.349 . S
C1865 C1867 1.327 . S
C1865 H1888 0.950 . S
C1866 C1865 1.349 . S
C1866 C1878 1.349 . S
C1867 C1865 1.327 . S
C1867 C1883 1.429 . S
C1867 H1889 0.950 . S
C1868 H1864 0.949 . S
C1868 C1876 1.574 . S
C1868 C1884 1.368 . S
H1869 C1877 0.950 . S
H1870 C1875 0.950 . S
H1871 C1876 0.949 . S
H1872 C1878 0.950 . S
H1873 C1879 0.950 . S
H1874 C1880 0.949 . S
C1875 H1870 0.950 . S
C1875 C1877 1.327 . S
C1875 C1881 1.429 . S
C1876 C1868 1.574 . S
C1876 H1871 0.949 . S
C1876 C1882 1.368 . S
C1877 C1861 1.349 . S
C1877 H1869 0.950 . S
C1877 C1875 1.327 . S
C1878 C1866 1.349 . S
C1878 H1872 0.950 . S
C1878 C1879 1.327 . S
C1879 H1873 0.950 . S
C1879 C1878 1.327 . S
C1879 C1883 1.429 . S
C1880 C1863 1.574 . S
C1880 H1874 0.949 . S
C1880 C1884 1.368 . S
C1881 C1862 1.429 . S
C1881 C1875 1.429 . S
C1881 C1882 1.523 . S
C1882 C1863 1.368 . S
C1882 C1876 1.368 . S
C1882 C1881 1.523 . S
C1883 C1867 1.429 . S
C1883 C1879 1.429 . S
C1883 C1884 1.523 . S
C1884 C1868 1.368 . S
C1884 C1880 1.368 . S
C1884 C1883 1.523 . S
H1885 C1860 0.950 . S
H1886 C1862 0.950 . S
H1887 C1863 0.949 . S
H1888 C1865 0.950 . S
H1889 C1867 0.950 . S
C1890 C1891 1.349 . S
C1890 C1892 1.327 . S
C1890 H1915 0.950 . S
C1891 C1890 1.349 . S
C1891 C1907 1.349 . S
C1892 C1890 1.327 . S
C1892 C1911 1.429 . S
C1892 H1916 0.950 . S
C1893 C1910 1.574 1_455 S
C1893 C1912 1.368 . S
C1893 H1917 0.949 . S
H1894 C1898 0.949 1_655 S
C1895 C1896 1.349 . S
C1895 C1897 1.327 . S
C1895 H1918 0.950 . S
C1896 C1895 1.349 . S
C1896 C1908 1.349 . S
C1897 C1895 1.327 . S
C1897 C1913 1.429 . S
C1897 H1919 0.950 . S
C1898 H1894 0.949 1_455 S
C1898 C1906 1.574 . S
C1898 C1914 1.368 1_455 S
H1899 C1907 0.950 . S
H1900 C1905 0.950 . S
H1901 C1906 0.949 . S
H1902 C1908 0.950 . S
H1903 C1909 0.950 . S
H1904 C1910 0.949 . S
C1905 H1900 0.950 . S
C1905 C1907 1.327 . S
C1905 C1911 1.429 . S
C1906 C1898 1.574 . S
C1906 H1901 0.949 . S
C1906 C1912 1.368 . S
C1907 C1891 1.349 . S
C1907 H1899 0.950 . S
C1907 C1905 1.327 . S
C1908 C1896 1.349 . S
C1908 H1902 0.950 . S
C1908 C1909 1.327 . S
C1909 H1903 0.950 . S
C1909 C1908 1.327 . S
C1909 C1913 1.429 . S
C1910 C1893 1.574 1_655 S
C1910 H1904 0.949 . S
C1910 C1914 1.368 . S
C1911 C1892 1.429 . S
C1911 C1905 1.429 . S
C1911 C1912 1.523 . S
C1912 C1893 1.368 . S
C1912 C1906 1.368 . S
C1912 C1911 1.523 . S
C1913 C1897 1.429 . S
C1913 C1909 1.429 . S
C1913 C1914 1.523 . S
C1914 C1898 1.368 1_655 S
C1914 C1910 1.368 . S
C1914 C1913 1.523 . S
H1915 C1890 0.950 . S
H1916 C1892 0.950 . S
H1917 C1893 0.949 . S
H1918 C1895 0.950 . S
H1919 C1897 0.950 . S
C1920 C1921 1.349 . S
C1920 C1922 1.327 . S
C1920 H1945 0.950 . S
C1921 C1920 1.349 . S
C1921 C1937 1.349 . S
C1922 C1920 1.327 . S
C1922 C1941 1.429 . S
C1922 H1946 0.950 . S
C1923 C1940 1.574 . S
C1923 C1942 1.368 . S
C1923 H1947 0.949 . S
H1924 C1928 0.949 . S
C1925 C1926 1.349 . S
C1925 C1927 1.327 . S
C1925 H1948 0.950 . S
C1926 C1925 1.349 . S
C1926 C1938 1.349 . S
C1927 C1925 1.327 . S
C1927 C1943 1.429 . S
C1927 H1949 0.950 . S
C1928 H1924 0.949 . S
C1928 C1936 1.574 . S
C1928 C1944 1.368 . S
H1929 C1937 0.950 . S
H1930 C1935 0.950 . S
H1931 C1936 0.949 . S
H1932 C1938 0.950 . S
H1933 C1939 0.950 . S
H1934 C1940 0.949 . S
C1935 H1930 0.950 . S
C1935 C1937 1.327 . S
C1935 C1941 1.429 . S
C1936 C1928 1.574 . S
C1936 H1931 0.949 . S
C1936 C1942 1.368 . S
C1937 C1921 1.349 . S
C1937 H1929 0.950 . S
C1937 C1935 1.327 . S
C1938 C1926 1.349 . S
C1938 H1932 0.950 . S
C1938 C1939 1.327 . S
C1939 H1933 0.950 . S
C1939 C1938 1.327 . S
C1939 C1943 1.429 . S
C1940 C1923 1.574 . S
C1940 H1934 0.949 . S
C1940 C1944 1.368 . S
C1941 C1922 1.429 . S
C1941 C1935 1.429 . S
C1941 C1942 1.523 . S
C1942 C1923 1.368 . S
C1942 C1936 1.368 . S
C1942 C1941 1.523 . S
C1943 C1927 1.429 . S
C1943 C1939 1.429 . S
C1943 C1944 1.523 . S
C1944 C1928 1.368 . S
C1944 C1940 1.368 . S
C1944 C1943 1.523 . S
H1945 C1920 0.950 . S
H1946 C1922 0.950 . S
H1947 C1923 0.949 . S
H1948 C1925 0.950 . S
H1949 C1927 0.950 . S
C1950 C1951 1.349 . S
C1950 C1952 1.327 . S
C1950 H1975 0.950 . S
C1951 C1950 1.349 . S
C1951 C1967 1.349 . S
C1952 C1950 1.327 . S
C1952 C1971 1.429 . S
C1952 H1976 0.950 . S
C1953 C1970 1.574 . S
C1953 C1972 1.368 1_545 S
C1953 H1977 0.949 . S
H1954 C1958 0.949 . S
C1955 C1956 1.349 . S
C1955 C1957 1.327 . S
C1955 H1978 0.950 . S
C1956 C1955 1.349 . S
C1956 C1968 1.349 . S
C1957 C1955 1.327 . S
C1957 C1973 1.429 . S
C1957 H1979 0.950 . S
C1958 H1954 0.949 . S
C1958 C1966 1.574 1_545 S
C1958 C1974 1.368 . S
H1959 C1967 0.950 . S
H1960 C1965 0.950 . S
H1961 C1966 0.949 . S
H1962 C1968 0.950 . S
H1963 C1969 0.950 . S
H1964 C1970 0.949 . S
C1965 H1960 0.950 . S
C1965 C1967 1.327 . S
C1965 C1971 1.429 . S
C1966 C1958 1.574 1_565 S
C1966 H1961 0.949 . S
C1966 C1972 1.368 . S
C1967 C1951 1.349 . S
C1967 H1959 0.950 . S
C1967 C1965 1.327 . S
C1968 C1956 1.349 . S
C1968 H1962 0.950 . S
C1968 C1969 1.327 . S
C1969 H1963 0.950 . S
C1969 C1968 1.327 . S
C1969 C1973 1.429 . S
C1970 C1953 1.574 . S
C1970 H1964 0.949 . S
C1970 C1974 1.368 . S
C1971 C1952 1.429 . S
C1971 C1965 1.429 . S
C1971 C1972 1.523 . S
C1972 C1953 1.368 1_565 S
C1972 C1966 1.368 . S
C1972 C1971 1.523 . S
C1973 C1957 1.429 . S
C1973 C1969 1.429 . S
C1973 C1974 1.523 . S
C1974 C1958 1.368 . S
C1974 C1970 1.368 . S
C1974 C1973 1.523 . S
H1975 C1950 0.950 . S
H1976 C1952 0.950 . S
H1977 C1953 0.949 . S
H1978 C1955 0.950 . S
H1979 C1957 0.950 . S
C1980 C1981 1.349 . S
C1980 C1982 1.327 . S
C1980 H2005 0.950 . S
C1981 C1980 1.349 . S
C1981 C1997 1.349 . S
C1982 C1980 1.327 . S
C1982 C2001 1.429 . S
C1982 H2006 0.950 . S
C1983 C2000 1.574 . S
C1983 C2002 1.368 . S
C1983 H2007 0.949 . S
H1984 C1988 0.949 . S
C1985 C1986 1.349 . S
C1985 C1987 1.327 . S
C1985 H2008 0.950 . S
C1986 C1985 1.349 . S
C1986 C1998 1.349 . S
C1987 C1985 1.327 . S
C1987 C2003 1.429 . S
C1987 H2009 0.950 . S
C1988 H1984 0.949 . S
C1988 C1996 1.574 . S
C1988 C2004 1.368 . S
H1989 C1997 0.950 . S
H1990 C1995 0.950 . S
H1991 C1996 0.949 . S
H1992 C1998 0.950 . S
H1993 C1999 0.950 . S
H1994 C2000 0.949 . S
C1995 H1990 0.950 . S
C1995 C1997 1.327 . S
C1995 C2001 1.429 . S
C1996 C1988 1.574 . S
C1996 H1991 0.949 . S
C1996 C2002 1.368 . S
C1997 C1981 1.349 . S
C1997 H1989 0.950 . S
C1997 C1995 1.327 . S
C1998 C1986 1.349 . S
C1998 H1992 0.950 . S
C1998 C1999 1.327 . S
C1999 H1993 0.950 . S
C1999 C1998 1.327 . S
C1999 C2003 1.429 . S
C2000 C1983 1.574 . S
C2000 H1994 0.949 . S
C2000 C2004 1.368 . S
C2001 C1982 1.429 . S
C2001 C1995 1.429 . S
C2001 C2002 1.523 . S
C2002 C1983 1.368 . S
C2002 C1996 1.368 . S
C2002 C2001 1.523 . S
C2003 C1987 1.429 . S
C2003 C1999 1.429 . S
C2003 C2004 1.523 . S
C2004 C1988 1.368 . S
C2004 C2000 1.368 . S
C2004 C2003 1.523 . S
H2005 C1980 0.950 . S
H2006 C1982 0.950 . S
H2007 C1983 0.949 . S
H2008 C1985 0.950 . S
H2009 C1987 0.950 . S
C2010 C2011 1.349 . S
C2010 C2012 1.327 . S
C2010 H2035 0.950 . S
C2011 C2010 1.349 . S
C2011 C2027 1.349 . S
C2012 C2010 1.327 . S
C2012 C2031 1.429 . S
C2012 H2036 0.950 . S
C2013 C2030 1.574 . S
C2013 C2032 1.368 . S
C2013 H2037 0.949 . S
H2014 C2018 0.949 . S
C2015 C2016 1.349 . S
C2015 C2017 1.327 . S
C2015 H2038 0.950 . S
C2016 C2015 1.349 . S
C2016 C2028 1.349 . S
C2017 C2015 1.327 . S
C2017 C2033 1.429 . S
C2017 H2039 0.950 . S
C2018 H2014 0.949 . S
C2018 C2026 1.574 . S
C2018 C2034 1.368 . S
H2019 C2027 0.950 . S
H2020 C2025 0.950 . S
H2021 C2026 0.949 . S
H2022 C2028 0.950 . S
H2023 C2029 0.950 . S
H2024 C2030 0.949 . S
C2025 H2020 0.950 . S
C2025 C2027 1.327 . S
C2025 C2031 1.429 . S
C2026 C2018 1.574 . S
C2026 H2021 0.949 . S
C2026 C2032 1.368 . S
C2027 C2011 1.349 . S
C2027 H2019 0.950 . S
C2027 C2025 1.327 . S
C2028 C2016 1.349 . S
C2028 H2022 0.950 . S
C2028 C2029 1.327 . S
C2029 H2023 0.950 . S
C2029 C2028 1.327 . S
C2029 C2033 1.429 . S
C2030 C2013 1.574 . S
C2030 H2024 0.949 . S
C2030 C2034 1.368 . S
C2031 C2012 1.429 . S
C2031 C2025 1.429 . S
C2031 C2032 1.523 . S
C2032 C2013 1.368 . S
C2032 C2026 1.368 . S
C2032 C2031 1.523 . S
C2033 C2017 1.429 . S
C2033 C2029 1.429 . S
C2033 C2034 1.523 . S
C2034 C2018 1.368 . S
C2034 C2030 1.368 . S
C2034 C2033 1.523 . S
H2035 C2010 0.950 . S
H2036 C2012 0.950 . S
H2037 C2013 0.949 . S
H2038 C2015 0.950 . S
H2039 C2017 0.950 . S
C2040 C2041 1.349 . S
C2040 C2042 1.327 . S
C2040 H2065 0.950 . S
C2041 C2040 1.349 . S
C2041 C2057 1.349 . S
C2042 C2040 1.327 . S
C2042 C2061 1.429 . S
C2042 H2066 0.950 . S
C2043 C2060 1.574 . S
C2043 C2062 1.368 . S
C2043 H2067 0.949 . S
H2044 C2048 0.949 . S
C2045 C2046 1.349 . S
C2045 C2047 1.327 . S
C2045 H2068 0.950 . S
C2046 C2045 1.349 . S
C2046 C2058 1.349 . S
C2047 C2045 1.327 . S
C2047 C2063 1.429 . S
C2047 H2069 0.950 . S
C2048 H2044 0.949 . S
C2048 C2056 1.574 . S
C2048 C2064 1.368 . S
H2049 C2057 0.950 . S
H2050 C2055 0.950 . S
H2051 C2056 0.949 . S
H2052 C2058 0.950 . S
H2053 C2059 0.950 . S
H2054 C2060 0.949 . S
C2055 H2050 0.950 . S
C2055 C2057 1.327 . S
C2055 C2061 1.429 . S
C2056 C2048 1.574 . S
C2056 H2051 0.949 . S
C2056 C2062 1.368 . S
C2057 C2041 1.349 . S
C2057 H2049 0.950 . S
C2057 C2055 1.327 . S
C2058 C2046 1.349 . S
C2058 H2052 0.950 . S
C2058 C2059 1.327 . S
C2059 H2053 0.950 . S
C2059 C2058 1.327 . S
C2059 C2063 1.429 . S
C2060 C2043 1.574 . S
C2060 H2054 0.949 . S
C2060 C2064 1.368 . S
C2061 C2042 1.429 . S
C2061 C2055 1.429 . S
C2061 C2062 1.523 . S
C2062 C2043 1.368 . S
C2062 C2056 1.368 . S
C2062 C2061 1.523 . S
C2063 C2047 1.429 . S
C2063 C2059 1.429 . S
C2063 C2064 1.523 . S
C2064 C2048 1.368 . S
C2064 C2060 1.368 . S
C2064 C2063 1.523 . S
H2065 C2040 0.950 . S
H2066 C2042 0.950 . S
H2067 C2043 0.949 . S
H2068 C2045 0.950 . S
H2069 C2047 0.950 . S
C2070 C2071 1.349 . S
C2070 C2072 1.327 . S
C2070 H2095 0.950 . S
C2071 C2070 1.349 . S
C2071 C2087 1.349 . S
C2072 C2070 1.327 . S
C2072 C2091 1.429 . S
C2072 H2096 0.950 . S
C2073 C2090 1.574 . S
C2073 C2092 1.368 . S
C2073 H2097 0.949 . S
H2074 C2078 0.949 . S
C2075 C2076 1.349 . S
C2075 C2077 1.327 . S
C2075 H2098 0.950 . S
C2076 C2075 1.349 . S
C2076 C2088 1.349 . S
C2077 C2075 1.327 . S
C2077 C2093 1.429 . S
C2077 H2099 0.950 . S
C2078 H2074 0.949 . S
C2078 C2086 1.574 . S
C2078 C2094 1.368 . S
H2079 C2087 0.950 . S
H2080 C2085 0.950 . S
H2081 C2086 0.949 . S
H2082 C2088 0.950 . S
H2083 C2089 0.950 . S
H2084 C2090 0.949 . S
C2085 H2080 0.950 . S
C2085 C2087 1.327 . S
C2085 C2091 1.429 . S
C2086 C2078 1.574 . S
C2086 H2081 0.949 . S
C2086 C2092 1.368 . S
C2087 C2071 1.349 . S
C2087 H2079 0.950 . S
C2087 C2085 1.327 . S
C2088 C2076 1.349 . S
C2088 H2082 0.950 . S
C2088 C2089 1.327 . S
C2089 H2083 0.950 . S
C2089 C2088 1.327 . S
C2089 C2093 1.429 . S
C2090 C2073 1.574 . S
C2090 H2084 0.949 . S
C2090 C2094 1.368 . S
C2091 C2072 1.429 . S
C2091 C2085 1.429 . S
C2091 C2092 1.523 . S
C2092 C2073 1.368 . S
C2092 C2086 1.368 . S
C2092 C2091 1.523 . S
C2093 C2077 1.429 . S
C2093 C2089 1.429 . S
C2093 C2094 1.523 . S
C2094 C2078 1.368 . S
C2094 C2090 1.368 . S
C2094 C2093 1.523 . S
H2095 C2070 0.950 . S
H2096 C2072 0.950 . S
H2097 C2073 0.949 . S
H2098 C2075 0.950 . S
H2099 C2077 0.950 . S
C2100 C2101 1.349 . S
C2100 C2102 1.327 . S
C2100 H2125 0.950 . S
C2101 C2100 1.349 . S
C2101 C2117 1.349 . S
C2102 C2100 1.327 . S
C2102 C2121 1.429 . S
C2102 H2126 0.950 . S
C2103 C2120 1.574 . S
C2103 C2122 1.368 . S
C2103 H2127 0.949 . S
H2104 C2108 0.949 . S
C2105 C2106 1.349 . S
C2105 C2107 1.327 . S
C2105 H2128 0.950 . S
C2106 C2105 1.349 . S
C2106 C2118 1.349 . S
C2107 C2105 1.327 . S
C2107 C2123 1.429 . S
C2107 H2129 0.950 . S
C2108 H2104 0.949 . S
C2108 C2116 1.574 . S
C2108 C2124 1.368 . S
H2109 C2117 0.950 . S
H2110 C2115 0.950 . S
H2111 C2116 0.949 . S
H2112 C2118 0.950 . S
H2113 C2119 0.950 . S
H2114 C2120 0.949 . S
C2115 H2110 0.950 . S
C2115 C2117 1.327 . S
C2115 C2121 1.429 . S
C2116 C2108 1.574 . S
C2116 H2111 0.949 . S
C2116 C2122 1.368 . S
C2117 C2101 1.349 . S
C2117 H2109 0.950 . S
C2117 C2115 1.327 . S
C2118 C2106 1.349 . S
C2118 H2112 0.950 . S
C2118 C2119 1.327 . S
C2119 H2113 0.950 . S
C2119 C2118 1.327 . S
C2119 C2123 1.429 . S
C2120 C2103 1.574 . S
C2120 H2114 0.949 . S
C2120 C2124 1.368 . S
C2121 C2102 1.429 . S
C2121 C2115 1.429 . S
C2121 C2122 1.523 . S
C2122 C2103 1.368 . S
C2122 C2116 1.368 . S
C2122 C2121 1.523 . S
C2123 C2107 1.429 . S
C2123 C2119 1.429 . S
C2123 C2124 1.523 . S
C2124 C2108 1.368 . S
C2124 C2120 1.368 . S
C2124 C2123 1.523 . S
H2125 C2100 0.950 . S
H2126 C2102 0.950 . S
H2127 C2103 0.949 . S
H2128 C2105 0.950 . S
H2129 C2107 0.950 . S
C2130 C2131 1.349 . S
C2130 C2132 1.327 . S
C2130 H2155 0.950 . S
C2131 C2130 1.349 . S
C2131 C2147 1.349 . S
C2132 C2130 1.327 . S
C2132 C2151 1.429 . S
C2132 H2156 0.950 . S
C2133 C2150 1.574 . S
C2133 C2152 1.368 . S
C2133 H2157 0.949 . S
H2134 C2138 0.949 . S
C2135 C2136 1.349 . S
C2135 C2137 1.327 . S
C2135 H2158 0.950 . S
C2136 C2135 1.349 . S
C2136 C2148 1.349 . S
C2137 C2135 1.327 . S
C2137 C2153 1.429 . S
C2137 H2159 0.950 . S
C2138 H2134 0.949 . S
C2138 C2146 1.574 . S
C2138 C2154 1.368 . S
H2139 C2147 0.950 . S
H2140 C2145 0.950 . S
H2141 C2146 0.949 . S
H2142 C2148 0.950 . S
H2143 C2149 0.950 . S
H2144 C2150 0.949 . S
C2145 H2140 0.950 . S
C2145 C2147 1.327 . S
C2145 C2151 1.429 . S
C2146 C2138 1.574 . S
C2146 H2141 0.949 . S
C2146 C2152 1.368 . S
C2147 C2131 1.349 . S
C2147 H2139 0.950 . S
C2147 C2145 1.327 . S
C2148 C2136 1.349 . S
C2148 H2142 0.950 . S
C2148 C2149 1.327 . S
C2149 H2143 0.950 . S
C2149 C2148 1.327 . S
C2149 C2153 1.429 . S
C2150 C2133 1.574 . S
C2150 H2144 0.949 . S
C2150 C2154 1.368 . S
C2151 C2132 1.429 . S
C2151 C2145 1.429 . S
C2151 C2152 1.523 . S
C2152 C2133 1.368 . S
C2152 C2146 1.368 . S
C2152 C2151 1.523 . S
C2153 C2137 1.429 . S
C2153 C2149 1.429 . S
C2153 C2154 1.523 . S
C2154 C2138 1.368 . S
C2154 C2150 1.368 . S
C2154 C2153 1.523 . S
H2155 C2130 0.950 . S
H2156 C2132 0.950 . S
H2157 C2133 0.949 . S
H2158 C2135 0.950 . S
H2159 C2137 0.950 . S
C2160 C2161 1.349 . S
C2160 C2162 1.327 . S
C2160 H2185 0.950 . S
C2161 C2160 1.349 . S
C2161 C2177 1.349 . S
C2162 C2160 1.327 . S
C2162 C2181 1.429 . S
C2162 H2186 0.950 . S
C2163 C2180 1.574 . S
C2163 C2182 1.368 . S
C2163 H2187 0.949 . S
H2164 C2168 0.949 . S
C2165 C2166 1.349 . S
C2165 C2167 1.327 . S
C2165 H2188 0.950 . S
C2166 C2165 1.349 . S
C2166 C2178 1.349 . S
C2167 C2165 1.327 . S
C2167 C2183 1.429 . S
C2167 H2189 0.950 . S
C2168 H2164 0.949 . S
C2168 C2176 1.574 . S
C2168 C2184 1.368 . S
H2169 C2177 0.950 . S
H2170 C2175 0.950 . S
H2171 C2176 0.949 . S
H2172 C2178 0.950 . S
H2173 C2179 0.950 . S
H2174 C2180 0.949 . S
C2175 H2170 0.950 . S
C2175 C2177 1.327 . S
C2175 C2181 1.429 . S
C2176 C2168 1.574 . S
C2176 H2171 0.949 . S
C2176 C2182 1.368 . S
C2177 C2161 1.349 . S
C2177 H2169 0.950 . S
C2177 C2175 1.327 . S
C2178 C2166 1.349 . S
C2178 H2172 0.950 . S
C2178 C2179 1.327 . S
C2179 H2173 0.950 . S
C2179 C2178 1.327 . S
C2179 C2183 1.429 . S
C2180 C2163 1.574 . S
C2180 H2174 0.949 . S
C2180 C2184 1.368 . S
C2181 C2162 1.429 . S
C2181 C2175 1.429 . S
C2181 C2182 1.523 . S
C2182 C2163 1.368 . S
C2182 C2176 1.368 . S
C2182 C2181 1.523 . S
C2183 C2167 1.429 . S
C2183 C2179 1.429 . S
C2183 C2184 1.523 . S
C2184 C2168 1.368 . S
C2184 C2180 1.368 . S
C2184 C2183 1.523 . S
H2185 C2160 0.950 . S
H2186 C2162 0.950 . S
H2187 C2163 0.949 . S
H2188 C2165 0.950 . S
H2189 C2167 0.950 . S
C2190 C2191 1.349 . S
C2190 C2192 1.327 . S
C2190 H2215 0.950 . S
C2191 C2190 1.349 . S
C2191 C2207 1.349 . S
C2192 C2190 1.327 . S
C2192 C2211 1.429 . S
C2192 H2216 0.950 . S
C2193 C2210 1.574 . S
C2193 C2212 1.368 . S
C2193 H2217 0.949 . S
H2194 C2198 0.949 . S
C2195 C2196 1.349 . S
C2195 C2197 1.327 . S
C2195 H2218 0.950 . S
C2196 C2195 1.349 . S
C2196 C2208 1.349 . S
C2197 C2195 1.327 . S
C2197 C2213 1.429 . S
C2197 H2219 0.950 . S
C2198 H2194 0.949 . S
C2198 C2206 1.574 . S
C2198 C2214 1.368 . S
H2199 C2207 0.950 . S
H2200 C2205 0.950 . S
H2201 C2206 0.949 . S
H2202 C2208 0.950 . S
H2203 C2209 0.950 . S
H2204 C2210 0.949 . S
C2205 H2200 0.950 . S
C2205 C2207 1.327 . S
C2205 C2211 1.429 . S
C2206 C2198 1.574 . S
C2206 H2201 0.949 . S
C2206 C2212 1.368 . S
C2207 C2191 1.349 . S
C2207 H2199 0.950 . S
C2207 C2205 1.327 . S
C2208 C2196 1.349 . S
C2208 H2202 0.950 . S
C2208 C2209 1.327 . S
C2209 H2203 0.950 . S
C2209 C2208 1.327 . S
C2209 C2213 1.429 . S
C2210 C2193 1.574 . S
C2210 H2204 0.949 . S
C2210 C2214 1.368 . S
C2211 C2192 1.429 . S
C2211 C2205 1.429 . S
C2211 C2212 1.523 . S
C2212 C2193 1.368 . S
C2212 C2206 1.368 . S
C2212 C2211 1.523 . S
C2213 C2197 1.429 . S
C2213 C2209 1.429 . S
C2213 C2214 1.523 . S
C2214 C2198 1.368 . S
C2214 C2210 1.368 . S
C2214 C2213 1.523 . S
H2215 C2190 0.950 . S
H2216 C2192 0.950 . S
H2217 C2193 0.949 . S
H2218 C2195 0.950 . S
H2219 C2197 0.950 . S
C2220 C2221 1.349 . S
C2220 C2222 1.327 . S
C2220 H2245 0.950 . S
C2221 C2220 1.349 . S
C2221 C2237 1.349 . S
C2222 C2220 1.327 . S
C2222 C2241 1.429 . S
C2222 H2246 0.950 . S
C2223 C2240 1.574 . S
C2223 C2242 1.368 . S
C2223 H2247 0.949 . S
H2224 C2228 0.949 . S
C2225 C2226 1.349 . S
C2225 C2227 1.327 . S
C2225 H2248 0.950 . S
C2226 C2225 1.349 . S
C2226 C2238 1.349 . S
C2227 C2225 1.327 . S
C2227 C2243 1.429 . S
C2227 H2249 0.950 . S
C2228 H2224 0.949 . S
C2228 C2236 1.574 . S
C2228 C2244 1.368 . S
H2229 C2237 0.950 . S
H2230 C2235 0.950 . S
H2231 C2236 0.949 . S
H2232 C2238 0.950 . S
H2233 C2239 0.950 . S
H2234 C2240 0.949 . S
C2235 H2230 0.950 . S
C2235 C2237 1.327 . S
C2235 C2241 1.429 . S
C2236 C2228 1.574 . S
C2236 H2231 0.949 . S
C2236 C2242 1.368 . S
C2237 C2221 1.349 . S
C2237 H2229 0.950 . S
C2237 C2235 1.327 . S
C2238 C2226 1.349 . S
C2238 H2232 0.950 . S
C2238 C2239 1.327 . S
C2239 H2233 0.950 . S
C2239 C2238 1.327 . S
C2239 C2243 1.429 . S
C2240 C2223 1.574 . S
C2240 H2234 0.949 . S
C2240 C2244 1.368 . S
C2241 C2222 1.429 . S
C2241 C2235 1.429 . S
C2241 C2242 1.523 . S
C2242 C2223 1.368 . S
C2242 C2236 1.368 . S
C2242 C2241 1.523 . S
C2243 C2227 1.429 . S
C2243 C2239 1.429 . S
C2243 C2244 1.523 . S
C2244 C2228 1.368 . S
C2244 C2240 1.368 . S
C2244 C2243 1.523 . S
H2245 C2220 0.950 . S
H2246 C2222 0.950 . S
H2247 C2223 0.949 . S
H2248 C2225 0.950 . S
H2249 C2227 0.950 . S
C2250 C2251 1.349 . S
C2250 C2252 1.327 . S
C2250 H2275 0.950 . S
C2251 C2250 1.349 . S
C2251 C2267 1.349 . S
C2252 C2250 1.327 . S
C2252 C2271 1.429 . S
C2252 H2276 0.950 . S
C2253 C2270 1.574 . S
C2253 C2272 1.368 . S
C2253 H2277 0.949 . S
H2254 C2258 0.949 . S
C2255 C2256 1.349 . S
C2255 C2257 1.327 . S
C2255 H2278 0.950 . S
C2256 C2255 1.349 . S
C2256 C2268 1.349 . S
C2257 C2255 1.327 . S
C2257 C2273 1.429 . S
C2257 H2279 0.950 . S
C2258 H2254 0.949 . S
C2258 C2266 1.574 . S
C2258 C2274 1.368 . S
H2259 C2267 0.950 . S
H2260 C2265 0.950 . S
H2261 C2266 0.949 . S
H2262 C2268 0.950 . S
H2263 C2269 0.950 . S
H2264 C2270 0.949 . S
C2265 H2260 0.950 . S
C2265 C2267 1.327 . S
C2265 C2271 1.429 . S
C2266 C2258 1.574 . S
C2266 H2261 0.949 . S
C2266 C2272 1.368 . S
C2267 C2251 1.349 . S
C2267 H2259 0.950 . S
C2267 C2265 1.327 . S
C2268 C2256 1.349 . S
C2268 H2262 0.950 . S
C2268 C2269 1.327 . S
C2269 H2263 0.950 . S
C2269 C2268 1.327 . S
C2269 C2273 1.429 . S
C2270 C2253 1.574 . S
C2270 H2264 0.949 . S
C2270 C2274 1.368 . S
C2271 C2252 1.429 . S
C2271 C2265 1.429 . S
C2271 C2272 1.523 . S
C2272 C2253 1.368 . S
C2272 C2266 1.368 . S
C2272 C2271 1.523 . S
C2273 C2257 1.429 . S
C2273 C2269 1.429 . S
C2273 C2274 1.523 . S
C2274 C2258 1.368 . S
C2274 C2270 1.368 . S
C2274 C2273 1.523 . S
H2275 C2250 0.950 . S
H2276 C2252 0.950 . S
H2277 C2253 0.949 . S
H2278 C2255 0.950 . S
H2279 C2257 0.950 . S
C2280 C2281 1.349 . S
C2280 C2282 1.327 . S
C2280 H2305 0.950 . S
C2281 C2280 1.349 . S
C2281 C2297 1.349 . S
C2282 C2280 1.327 . S
C2282 C2301 1.429 . S
C2282 H2306 0.950 . S
C2283 C2300 1.574 . S
C2283 C2302 1.368 . S
C2283 H2307 0.949 . S
H2284 C2288 0.949 . S
C2285 C2286 1.349 . S
C2285 C2287 1.327 . S
C2285 H2308 0.950 . S
C2286 C2285 1.349 . S
C2286 C2298 1.349 . S
C2287 C2285 1.327 . S
C2287 C2303 1.429 . S
C2287 H2309 0.950 . S
C2288 H2284 0.949 . S
C2288 C2296 1.574 . S
C2288 C2304 1.368 . S
H2289 C2297 0.950 . S
H2290 C2295 0.950 . S
H2291 C2296 0.949 . S
H2292 C2298 0.950 . S
H2293 C2299 0.950 . S
H2294 C2300 0.949 . S
C2295 H2290 0.950 . S
C2295 C2297 1.327 . S
C2295 C2301 1.429 . S
C2296 C2288 1.574 . S
C2296 H2291 0.949 . S
C2296 C2302 1.368 . S
C2297 C2281 1.349 . S
C2297 H2289 0.950 . S
C2297 C2295 1.327 . S
C2298 C2286 1.349 . S
C2298 H2292 0.950 . S
C2298 C2299 1.327 . S
C2299 H2293 0.950 . S
C2299 C2298 1.327 . S
C2299 C2303 1.429 . S
C2300 C2283 1.574 . S
C2300 H2294 0.949 . S
C2300 C2304 1.368 . S
C2301 C2282 1.429 . S
C2301 C2295 1.429 . S
C2301 C2302 1.523 . S
C2302 C2283 1.368 . S
C2302 C2296 1.368 . S
C2302 C2301 1.523 . S
C2303 C2287 1.429 . S
C2303 C2299 1.429 . S
C2303 C2304 1.523 . S
C2304 C2288 1.368 . S
C2304 C2300 1.368 . S
C2304 C2303 1.523 . S
H2305 C2280 0.950 . S
H2306 C2282 0.950 . S
H2307 C2283 0.949 . S
H2308 C2285 0.950 . S
H2309 C2287 0.950 . S
C2310 C2311 1.349 . S
C2310 C2312 1.327 . S
C2310 H2335 0.950 . S
C2311 C2310 1.349 . S
C2311 C2327 1.349 . S
C2312 C2310 1.327 . S
C2312 C2331 1.429 . S
C2312 H2336 0.950 . S
C2313 C2330 1.574 . S
C2313 C2332 1.368 . S
C2313 H2337 0.949 . S
H2314 C2318 0.949 . S
C2315 C2316 1.349 . S
C2315 C2317 1.327 . S
C2315 H2338 0.950 . S
C2316 C2315 1.349 . S
C2316 C2328 1.349 . S
C2317 C2315 1.327 . S
C2317 C2333 1.429 . S
C2317 H2339 0.950 . S
C2318 H2314 0.949 . S
C2318 C2326 1.574 . S
C2318 C2334 1.368 . S
H2319 C2327 0.950 . S
H2320 C2325 0.950 . S
H2321 C2326 0.949 . S
H2322 C2328 0.950 . S
H2323 C2329 0.950 . S
H2324 C2330 0.949 . S
C2325 H2320 0.950 . S
C2325 C2327 1.327 . S
C2325 C2331 1.429 . S
C2326 C2318 1.574 . S
C2326 H2321 0.949 . S
C2326 C2332 1.368 . S
C2327 C2311 1.349 . S
C2327 H2319 0.950 . S
C2327 C2325 1.327 . S
C2328 C2316 1.349 . S
C2328 H2322 0.950 . S
C2328 C2329 1.327 . S
C2329 H2323 0.950 . S
C2329 C2328 1.327 . S
C2329 C2333 1.429 . S
C2330 C2313 1.574 . S
C2330 H2324 0.949 . S
C2330 C2334 1.368 . S
C2331 C2312 1.429 . S
C2331 C2325 1.429 . S
C2331 C2332 1.523 . S
C2332 C2313 1.368 . S
C2332 C2326 1.368 . S
C2332 C2331 1.523 . S
C2333 C2317 1.429 . S
C2333 C2329 1.429 . S
C2333 C2334 1.523 . S
C2334 C2318 1.368 . S
C2334 C2330 1.368 . S
C2334 C2333 1.523 . S
H2335 C2310 0.950 . S
H2336 C2312 0.950 . S
H2337 C2313 0.949 . S
H2338 C2315 0.950 . S
H2339 C2317 0.950 . S
C2340 C2341 1.349 . S
C2340 C2342 1.327 . S
C2340 H2365 0.950 . S
C2341 C2340 1.349 . S
C2341 C2357 1.349 . S
C2342 C2340 1.327 . S
C2342 C2361 1.429 . S
C2342 H2366 0.950 . S
C2343 C2360 1.574 . S
C2343 C2362 1.368 . S
C2343 H2367 0.949 . S
H2344 C2348 0.949 . S
C2345 C2346 1.349 . S
C2345 C2347 1.327 . S
C2345 H2368 0.950 . S
C2346 C2345 1.349 . S
C2346 C2358 1.349 . S
C2347 C2345 1.327 . S
C2347 C2363 1.429 . S
C2347 H2369 0.950 . S
C2348 H2344 0.949 . S
C2348 C2356 1.574 . S
C2348 C2364 1.368 . S
H2349 C2357 0.950 . S
H2350 C2355 0.950 . S
H2351 C2356 0.949 . S
H2352 C2358 0.950 . S
H2353 C2359 0.950 . S
H2354 C2360 0.949 . S
C2355 H2350 0.950 . S
C2355 C2357 1.327 . S
C2355 C2361 1.429 . S
C2356 C2348 1.574 . S
C2356 H2351 0.949 . S
C2356 C2362 1.368 . S
C2357 C2341 1.349 . S
C2357 H2349 0.950 . S
C2357 C2355 1.327 . S
C2358 C2346 1.349 . S
C2358 H2352 0.950 . S
C2358 C2359 1.327 . S
C2359 H2353 0.950 . S
C2359 C2358 1.327 . S
C2359 C2363 1.429 . S
C2360 C2343 1.574 . S
C2360 H2354 0.949 . S
C2360 C2364 1.368 . S
C2361 C2342 1.429 . S
C2361 C2355 1.429 . S
C2361 C2362 1.523 . S
C2362 C2343 1.368 . S
C2362 C2356 1.368 . S
C2362 C2361 1.523 . S
C2363 C2347 1.429 . S
C2363 C2359 1.429 . S
C2363 C2364 1.523 . S
C2364 C2348 1.368 . S
C2364 C2360 1.368 . S
C2364 C2363 1.523 . S
H2365 C2340 0.950 . S
H2366 C2342 0.950 . S
H2367 C2343 0.949 . S
H2368 C2345 0.950 . S
H2369 C2347 0.950 . S
C2370 C2371 1.349 . S
C2370 C2372 1.327 . S
C2370 H2395 0.950 . S
C2371 C2370 1.349 . S
C2371 C2387 1.349 . S
C2372 C2370 1.327 . S
C2372 C2391 1.429 . S
C2372 H2396 0.950 . S
C2373 C2390 1.574 . S
C2373 C2392 1.368 . S
C2373 H2397 0.949 . S
H2374 C2378 0.949 . S
C2375 C2376 1.349 . S
C2375 C2377 1.327 . S
C2375 H2398 0.950 . S
C2376 C2375 1.349 . S
C2376 C2388 1.349 . S
C2377 C2375 1.327 . S
C2377 C2393 1.429 . S
C2377 H2399 0.950 . S
C2378 H2374 0.949 . S
C2378 C2386 1.574 . S
C2378 C2394 1.368 . S
H2379 C2387 0.950 . S
H2380 C2385 0.950 . S
H2381 C2386 0.949 . S
H2382 C2388 0.950 . S
H2383 C2389 0.950 . S
H2384 C2390 0.949 . S
C2385 H2380 0.950 . S
C2385 C2387 1.327 . S
C2385 C2391 1.429 . S
C2386 C2378 1.574 . S
C2386 H2381 0.949 . S
C2386 C2392 1.368 . S
C2387 C2371 1.349 . S
C2387 H2379 0.950 . S
C2387 C2385 1.327 . S
C2388 C2376 1.349 . S
C2388 H2382 0.950 . S
C2388 C2389 1.327 . S
C2389 H2383 0.950 . S
C2389 C2388 1.327 . S
C2389 C2393 1.429 . S
C2390 C2373 1.574 . S
C2390 H2384 0.949 . S
C2390 C2394 1.368 . S
C2391 C2372 1.429 . S
C2391 C2385 1.429 . S
C2391 C2392 1.523 . S
C2392 C2373 1.368 . S
C2392 C2386 1.368 . S
C2392 C2391 1.523 . S
C2393 C2377 1.429 . S
C2393 C2389 1.429 . S
C2393 C2394 1.523 . S
C2394 C2378 1.368 . S
C2394 C2390 1.368 . S
C2394 C2393 1.523 . S
H2395 C2370 0.950 . S
H2396 C2372 0.950 . S
H2397 C2373 0.949 . S
H2398 C2375 0.950 . S
H2399 C2377 0.950 . S
C2400 C2401 1.349 . S
C2400 C2402 1.327 . S
C2400 H2425 0.950 . S
C2401 C2400 1.349 . S
C2401 C2417 1.349 . S
C2402 C2400 1.327 . S
C2402 C2421 1.429 . S
C2402 H2426 0.950 . S
C2403 C2420 1.574 . S
C2403 C2422 1.368 . S
C2403 H2427 0.949 . S
H2404 C2408 0.949 . S
C2405 C2406 1.349 . S
C2405 C2407 1.327 . S
C2405 H2428 0.950 . S
C2406 C2405 1.349 . S
C2406 C2418 1.349 . S
C2407 C2405 1.327 . S
C2407 C2423 1.429 . S
C2407 H2429 0.950 . S
C2408 H2404 0.949 . S
C2408 C2416 1.574 . S
C2408 C2424 1.368 . S
H2409 C2417 0.950 . S
H2410 C2415 0.950 . S
H2411 C2416 0.949 . S
H2412 C2418 0.950 . S
H2413 C2419 0.950 . S
H2414 C2420 0.949 . S
C2415 H2410 0.950 . S
C2415 C2417 1.327 . S
C2415 C2421 1.429 . S
C2416 C2408 1.574 . S
C2416 H2411 0.949 . S
C2416 C2422 1.368 . S
C2417 C2401 1.349 . S
C2417 H2409 0.950 . S
C2417 C2415 1.327 . S
C2418 C2406 1.349 . S
C2418 H2412 0.950 . S
C2418 C2419 1.327 . S
C2419 H2413 0.950 . S
C2419 C2418 1.327 . S
C2419 C2423 1.429 . S
C2420 C2403 1.574 . S
C2420 H2414 0.949 . S
C2420 C2424 1.368 . S
C2421 C2402 1.429 . S
C2421 C2415 1.429 . S
C2421 C2422 1.523 . S
C2422 C2403 1.368 . S
C2422 C2416 1.368 . S
C2422 C2421 1.523 . S
C2423 C2407 1.429 . S
C2423 C2419 1.429 . S
C2423 C2424 1.523 . S
C2424 C2408 1.368 . S
C2424 C2420 1.368 . S
C2424 C2423 1.523 . S
H2425 C2400 0.950 . S
H2426 C2402 0.950 . S
H2427 C2403 0.949 . S
H2428 C2405 0.950 . S
H2429 C2407 0.950 . S
C2430 C2431 1.349 . S
C2430 C2432 1.327 . S
C2430 H2455 0.950 . S
C2431 C2430 1.349 . S
C2431 C2447 1.349 . S
C2432 C2430 1.327 . S
C2432 C2451 1.429 . S
C2432 H2456 0.950 . S
C2433 C2450 1.574 . S
C2433 C2452 1.368 . S
C2433 H2457 0.949 . S
H2434 C2438 0.949 . S
C2435 C2436 1.349 . S
C2435 C2437 1.327 . S
C2435 H2458 0.950 . S
C2436 C2435 1.349 . S
C2436 C2448 1.349 . S
C2437 C2435 1.327 . S
C2437 C2453 1.429 . S
C2437 H2459 0.950 . S
C2438 H2434 0.949 . S
C2438 C2446 1.574 . S
C2438 C2454 1.368 . S
H2439 C2447 0.950 . S
H2440 C2445 0.950 . S
H2441 C2446 0.949 . S
H2442 C2448 0.950 . S
H2443 C2449 0.950 . S
H2444 C2450 0.949 . S
C2445 H2440 0.950 . S
C2445 C2447 1.327 . S
C2445 C2451 1.429 . S
C2446 C2438 1.574 . S
C2446 H2441 0.949 . S
C2446 C2452 1.368 . S
C2447 C2431 1.349 . S
C2447 H2439 0.950 . S
C2447 C2445 1.327 . S
C2448 C2436 1.349 . S
C2448 H2442 0.950 . S
C2448 C2449 1.327 . S
C2449 H2443 0.950 . S
C2449 C2448 1.327 . S
C2449 C2453 1.429 . S
C2450 C2433 1.574 . S
C2450 H2444 0.949 . S
C2450 C2454 1.368 . S
C2451 C2432 1.429 . S
C2451 C2445 1.429 . S
C2451 C2452 1.523 . S
C2452 C2433 1.368 . S
C2452 C2446 1.368 . S
C2452 C2451 1.523 . S
C2453 C2437 1.429 . S
C2453 C2449 1.429 . S
C2453 C2454 1.523 . S
C2454 C2438 1.368 . S
C2454 C2450 1.368 . S
C2454 C2453 1.523 . S
H2455 C2430 0.950 . S
H2456 C2432 0.950 . S
H2457 C2433 0.949 . S
H2458 C2435 0.950 . S
H2459 C2437 0.950 . S
C2460 C2461 1.349 . S
C2460 C2462 1.327 . S
C2460 H2485 0.950 . S
C2461 C2460 1.349 . S
C2461 C2477 1.349 . S
C2462 C2460 1.327 . S
C2462 C2481 1.429 . S
C2462 H2486 0.950 . S
C2463 C2480 1.574 . S
C2463 C2482 1.368 . S
C2463 H2487 0.949 . S
H2464 C2468 0.949 . S
C2465 C2466 1.349 . S
C2465 C2467 1.327 . S
C2465 H2488 0.950 . S
C2466 C2465 1.349 . S
C2466 C2478 1.349 . S
C2467 C2465 1.327 . S
C2467 C2483 1.429 . S
C2467 H2489 0.950 . S
C2468 H2464 0.949 . S
C2468 C2476 1.574 . S
C2468 C2484 1.368 . S
H2469 C2477 0.950 . S
H2470 C2475 0.950 . S
H2471 C2476 0.949 . S
H2472 C2478 0.950 . S
H2473 C2479 0.950 . S
H2474 C2480 0.949 . S
C2475 H2470 0.950 . S
C2475 C2477 1.327 . S
C2475 C2481 1.429 . S
C2476 C2468 1.574 . S
C2476 H2471 0.949 . S
C2476 C2482 1.368 . S
C2477 C2461 1.349 . S
C2477 H2469 0.950 . S
C2477 C2475 1.327 . S
C2478 C2466 1.349 . S
C2478 H2472 0.950 . S
C2478 C2479 1.327 . S
C2479 H2473 0.950 . S
C2479 C2478 1.327 . S
C2479 C2483 1.429 . S
C2480 C2463 1.574 . S
C2480 H2474 0.949 . S
C2480 C2484 1.368 . S
C2481 C2462 1.429 . S
C2481 C2475 1.429 . S
C2481 C2482 1.523 . S
C2482 C2463 1.368 . S
C2482 C2476 1.368 . S
C2482 C2481 1.523 . S
C2483 C2467 1.429 . S
C2483 C2479 1.429 . S
C2483 C2484 1.523 . S
C2484 C2468 1.368 . S
C2484 C2480 1.368 . S
C2484 C2483 1.523 . S
H2485 C2460 0.950 . S
H2486 C2462 0.950 . S
H2487 C2463 0.949 . S
H2488 C2465 0.950 . S
H2489 C2467 0.950 . S
C2490 C2491 1.349 . S
C2490 C2492 1.327 . S
C2490 H2515 0.950 . S
C2491 C2490 1.349 . S
C2491 C2507 1.349 . S
C2492 C2490 1.327 . S
C2492 C2511 1.429 . S
C2492 H2516 0.950 . S
C2493 C2510 1.574 . S
C2493 C2512 1.368 . S
C2493 H2517 0.949 . S
H2494 C2498 0.949 . S
C2495 C2496 1.349 . S
C2495 C2497 1.327 . S
C2495 H2518 0.950 . S
C2496 C2495 1.349 . S
C2496 C2508 1.349 . S
C2497 C2495 1.327 . S
C2497 C2513 1.429 . S
C2497 H2519 0.950 . S
C2498 H2494 0.949 . S
C2498 C2506 1.574 . S
C2498 C2514 1.368 . S
H2499 C2507 0.950 . S
H2500 C2505 0.950 . S
H2501 C2506 0.949 . S
H2502 C2508 0.950 . S
H2503 C2509 0.950 . S
H2504 C2510 0.949 . S
C2505 H2500 0.950 . S
C2505 C2507 1.327 . S
C2505 C2511 1.429 . S
C2506 C2498 1.574 . S
C2506 H2501 0.949 . S
C2506 C2512 1.368 . S
C2507 C2491 1.349 . S
C2507 H2499 0.950 . S
C2507 C2505 1.327 . S
C2508 C2496 1.349 . S
C2508 H2502 0.950 . S
C2508 C2509 1.327 . S
C2509 H2503 0.950 . S
C2509 C2508 1.327 . S
C2509 C2513 1.429 . S
C2510 C2493 1.574 . S
C2510 H2504 0.949 . S
C2510 C2514 1.368 . S
C2511 C2492 1.429 . S
C2511 C2505 1.429 . S
C2511 C2512 1.523 . S
C2512 C2493 1.368 . S
C2512 C2506 1.368 . S
C2512 C2511 1.523 . S
C2513 C2497 1.429 . S
C2513 C2509 1.429 . S
C2513 C2514 1.523 . S
C2514 C2498 1.368 . S
C2514 C2510 1.368 . S
C2514 C2513 1.523 . S
H2515 C2490 0.950 . S
H2516 C2492 0.950 . S
H2517 C2493 0.949 . S
H2518 C2495 0.950 . S
H2519 C2497 0.950 . S
C2520 C2521 1.349 . S
C2520 C2522 1.327 . S
C2520 H2545 0.950 . S
C2521 C2520 1.349 . S
C2521 C2537 1.349 . S
C2522 C2520 1.327 . S
C2522 C2541 1.429 . S
C2522 H2546 0.950 . S
C2523 C2540 1.574 . S
C2523 C2542 1.368 . S
C2523 H2547 0.949 . S
H2524 C2528 0.949 . S
C2525 C2526 1.349 . S
C2525 C2527 1.327 . S
C2525 H2548 0.950 . S
C2526 C2525 1.349 . S
C2526 C2538 1.349 . S
C2527 C2525 1.327 . S
C2527 C2543 1.429 . S
C2527 H2549 0.950 . S
C2528 H2524 0.949 . S
C2528 C2536 1.574 . S
C2528 C2544 1.368 . S
H2529 C2537 0.950 . S
H2530 C2535 0.950 . S
H2531 C2536 0.949 . S
H2532 C2538 0.950 . S
H2533 C2539 0.950 . S
H2534 C2540 0.949 . S
C2535 H2530 0.950 . S
C2535 C2537 1.327 . S
C2535 C2541 1.429 . S
C2536 C2528 1.574 . S
C2536 H2531 0.949 . S
C2536 C2542 1.368 . S
C2537 C2521 1.349 . S
C2537 H2529 0.950 . S
C2537 C2535 1.327 . S
C2538 C2526 1.349 . S
C2538 H2532 0.950 . S
C2538 C2539 1.327 . S
C2539 H2533 0.950 . S
C2539 C2538 1.327 . S
C2539 C2543 1.429 . S
C2540 C2523 1.574 . S
C2540 H2534 0.949 . S
C2540 C2544 1.368 . S
C2541 C2522 1.429 . S
C2541 C2535 1.429 . S
C2541 C2542 1.523 . S
C2542 C2523 1.368 . S
C2542 C2536 1.368 . S
C2542 C2541 1.523 . S
C2543 C2527 1.429 . S
C2543 C2539 1.429 . S
C2543 C2544 1.523 . S
C2544 C2528 1.368 . S
C2544 C2540 1.368 . S
C2544 C2543 1.523 . S
H2545 C2520 0.950 . S
H2546 C2522 0.950 . S
H2547 C2523 0.949 . S
H2548 C2525 0.950 . S
H2549 C2527 0.950 . S
C2550 C2551 1.349 . S
C2550 C2552 1.327 . S
C2550 H2575 0.950 . S
C2551 C2550 1.349 . S
C2551 C2567 1.349 . S
C2552 C2550 1.327 . S
C2552 C2571 1.429 . S
C2552 H2576 0.950 . S
C2553 C2570 1.574 . S
C2553 C2572 1.368 . S
C2553 H2577 0.949 . S
H2554 C2558 0.949 . S
C2555 C2556 1.349 . S
C2555 C2557 1.327 . S
C2555 H2578 0.950 . S
C2556 C2555 1.349 . S
C2556 C2568 1.349 . S
C2557 C2555 1.327 . S
C2557 C2573 1.429 . S
C2557 H2579 0.950 . S
C2558 H2554 0.949 . S
C2558 C2566 1.574 . S
C2558 C2574 1.368 . S
H2559 C2567 0.950 . S
H2560 C2565 0.950 . S
H2561 C2566 0.949 . S
H2562 C2568 0.950 . S
H2563 C2569 0.950 . S
H2564 C2570 0.949 . S
C2565 H2560 0.950 . S
C2565 C2567 1.327 . S
C2565 C2571 1.429 . S
C2566 C2558 1.574 . S
C2566 H2561 0.949 . S
C2566 C2572 1.368 . S
C2567 C2551 1.349 . S
C2567 H2559 0.950 . S
C2567 C2565 1.327 . S
C2568 C2556 1.349 . S
C2568 H2562 0.950 . S
C2568 C2569 1.327 . S
C2569 H2563 0.950 . S
C2569 C2568 1.327 . S
C2569 C2573 1.429 . S
C2570 C2553 1.574 . S
C2570 H2564 0.949 . S
C2570 C2574 1.368 . S
C2571 C2552 1.429 . S
C2571 C2565 1.429 . S
C2571 C2572 1.523 . S
C2572 C2553 1.368 . S
C2572 C2566 1.368 . S
C2572 C2571 1.523 . S
C2573 C2557 1.429 . S
C2573 C2569 1.429 . S
C2573 C2574 1.523 . S
C2574 C2558 1.368 . S
C2574 C2570 1.368 . S
C2574 C2573 1.523 . S
H2575 C2550 0.950 . S
H2576 C2552 0.950 . S
H2577 C2553 0.949 . S
H2578 C2555 0.950 . S
H2579 C2557 0.950 . S
C2580 C2581 1.349 . S
C2580 C2582 1.327 . S
C2580 H2605 0.950 . S
C2581 C2580 1.349 . S
C2581 C2597 1.349 . S
C2582 C2580 1.327 . S
C2582 C2601 1.429 . S
C2582 H2606 0.950 . S
C2583 C2600 1.574 . S
C2583 C2602 1.368 . S
C2583 H2607 0.949 . S
H2584 C2588 0.949 . S
C2585 C2586 1.349 . S
C2585 C2587 1.327 . S
C2585 H2608 0.950 . S
C2586 C2585 1.349 . S
C2586 C2598 1.349 . S
C2587 C2585 1.327 . S
C2587 C2603 1.429 . S
C2587 H2609 0.950 . S
C2588 H2584 0.949 . S
C2588 C2596 1.574 . S
C2588 C2604 1.368 . S
H2589 C2597 0.950 . S
H2590 C2595 0.950 . S
H2591 C2596 0.949 . S
H2592 C2598 0.950 . S
H2593 C2599 0.950 . S
H2594 C2600 0.949 . S
C2595 H2590 0.950 . S
C2595 C2597 1.327 . S
C2595 C2601 1.429 . S
C2596 C2588 1.574 . S
C2596 H2591 0.949 . S
C2596 C2602 1.368 . S
C2597 C2581 1.349 . S
C2597 H2589 0.950 . S
C2597 C2595 1.327 . S
C2598 C2586 1.349 . S
C2598 H2592 0.950 . S
C2598 C2599 1.327 . S
C2599 H2593 0.950 . S
C2599 C2598 1.327 . S
C2599 C2603 1.429 . S
C2600 C2583 1.574 . S
C2600 H2594 0.949 . S
C2600 C2604 1.368 . S
C2601 C2582 1.429 . S
C2601 C2595 1.429 . S
C2601 C2602 1.523 . S
C2602 C2583 1.368 . S
C2602 C2596 1.368 . S
C2602 C2601 1.523 . S
C2603 C2587 1.429 . S
C2603 C2599 1.429 . S
C2603 C2604 1.523 . S
C2604 C2588 1.368 . S
C2604 C2600 1.368 . S
C2604 C2603 1.523 . S
H2605 C2580 0.950 . S
H2606 C2582 0.950 . S
H2607 C2583 0.949 . S
H2608 C2585 0.950 . S
H2609 C2587 0.950 . S
C991 N170 2.071 . S
C996 C301 1.992 . S
C1021 N184 0.823 . S
C1026 C385 0.813 . S
C1051 N158 1.562 . S
C1056 C465 1.536 . S
C1081 N145 1.530 . S
C1086 C381 1.487 1_556 S
C1116 C469 0.760 . S
C1111 N119 0.762 . S
C1141 N131 2.018 . S
C1146 C297 1.980 . S
C1176 C290 1.594 . S
C1171 N144 1.665 . S
C1206 C374 1.293 . S
C1201 N118 1.318 . S
C1231 N132 1.412 . S
C1236 C476 1.404 . S
C1261 N171 1.390 . S
C1266 C392 1.382 . S
C1291 N183 1.258 . S
C1296 C458 1.233 . S
C1326 C308 1.578 . S
C1321 N157 1.612 . S
C1356 C553 1.992 . S
C1351 N14 2.071 . S
C1381 N28 0.824 . S
C1386 C637 0.813 . S
C1411 N2 1.562 . S
C1416 C717 1.536 . S
C1441 N223 1.530 . S
C1446 C633 1.504 . S
C1471 N197 0.762 . S
C1476 C721 0.760 . S
C1501 N209 2.018 . S
C1506 C549 1.980 . S
C1531 N222 1.664 . S
C1536 C542 1.594 . S
C1561 N196 1.318 . S
C1566 C626 1.293 . S
C1596 C728 1.404 . S
C1591 N210 1.412 . S
C1621 N15 1.391 . S
C1626 C644 1.382 . S
C1656 C710 1.233 . S
C1651 N27 1.258 . S
C1681 N1 1.612 . S
C1686 C560 1.578 . S
C1716 C805 1.992 . S
C1711 N92 2.071 . S
C1741 N106 0.824 . S
C1746 C889 0.813 . S
C1776 C969 1.536 . S
C1771 N80 1.562 . S
C1806 C885 1.504 . S
C1801 N67 1.530 . S
C1836 C973 0.760 . S
C1831 N41 0.762 . S
C1861 N53 2.019 . S
C1866 C801 1.980 . S
C1891 N66 1.665 . S
C1896 C794 1.594 . S
C1921 N40 1.318 . S
C1926 C878 1.293 . S
C1956 C980 1.404 . S
C1951 N54 1.412 . S
C1981 N93 1.390 . S
C1986 C896 1.382 . S
C2011 N105 1.258 . S
C2016 C962 1.233 . S
C2041 N79 1.612 . S
C2046 C812 1.579 . S
C2071 N200 1.161 . S
C2076 C304 1.062 . S
C2106 C388 1.682 . S
C2101 N213 1.868 . S
C2131 N226 1.484 . S
C2136 C460 1.361 . S
C2161 N83 1.523 . S
C2166 C376 1.392 . S
C2191 N96 1.838 . S
C2196 C472 1.659 . S
C2226 C292 1.094 . S
C2221 N109 1.182 . S
C2251 N44 1.161 . S
C2256 C556 1.062 . S
C2281 N57 1.868 . S
C2286 C640 1.682 . S
C2311 N70 1.484 . S
C2316 C712 1.361 . S
C2341 N161 1.523 . S
C2346 C628 1.392 . S
C2376 C724 1.659 . S
C2371 N174 1.838 . S
C2401 N187 1.182 . S
C2406 C544 1.094 . S
C2431 N122 1.161 . S
C2436 C808 1.062 . S
C2461 N135 1.868 . S
C2466 C892 1.682 . S
C2496 C964 1.361 . S
C2491 N148 1.484 . S
C2521 N5 1.523 . S
C2526 C880 1.392 . S
C2551 N18 1.838 . S
C2556 C976 1.659 . S
C2581 N31 1.182 . S
C2586 C796 1.094 . S
