# Generated by pormake.
# Topology pyr, (3,6)-cn, num edge types: 1
# Building blocks:
#     Node 0, Type 0, BuildingBlock: BETDAH_clean_linker_0, # of connection points: 3
#     Node 1, Type 0, BuildingBlock: BETDAH_clean_linker_0, # of connection points: 3
#     Node 2, Type 0, BuildingBlock: BETDAH_clean_linker_0, # of connection points: 3
#     Node 3, Type 0, BuildingBlock: BETDAH_clean_linker_0, # of connection points: 3
#     Node 4, Type 0, BuildingBlock: BETDAH_clean_linker_0, # of connection points: 3
#     Node 5, Type 0, BuildingBlock: BETDAH_clean_linker_0, # of connection points: 3
#     Node 6, Type 0, BuildingBlock: BETDAH_clean_linker_0, # of connection points: 3
#     Node 7, Type 0, BuildingBlock: BETDAH_clean_linker_0, # of connection points: 3
#     Node 8, Type 1, BuildingBlock: BETDEL_clean_sbu_0, # of connection points: 6
#     Node 9, Type 1, BuildingBlock: BETDEL_clean_sbu_0, # of connection points: 6
#     Node 10, Type 1, BuildingBlock: BETDEL_clean_sbu_0, # of connection points: 6
#     Node 11, Type 1, BuildingBlock: BETDEL_clean_sbu_0, # of connection points: 6
#     Edge 12, Type (0, 1), BuildingBlock: CIFDUS_clean_linker_0, # of connection points: 2
#     Edge 13, Type (0, 1), BuildingBlock: CIFDUS_clean_linker_0, # of connection points: 2
#     Edge 14, Type (0, 1), BuildingBlock: CIFDUS_clean_linker_0, # of connection points: 2
#     Edge 15, Type (0, 1), BuildingBlock: CIFDUS_clean_linker_0, # of connection points: 2
#     Edge 16, Type (0, 1), BuildingBlock: CIFDUS_clean_linker_0, # of connection points: 2
#     Edge 17, Type (0, 1), BuildingBlock: CIFDUS_clean_linker_0, # of connection points: 2
#     Edge 18, Type (0, 1), BuildingBlock: CIFDUS_clean_linker_0, # of connection points: 2
#     Edge 19, Type (0, 1), BuildingBlock: CIFDUS_clean_linker_0, # of connection points: 2
#     Edge 20, Type (0, 1), BuildingBlock: CIFDUS_clean_linker_0, # of connection points: 2
#     Edge 21, Type (0, 1), BuildingBlock: CIFDUS_clean_linker_0, # of connection points: 2
#     Edge 22, Type (0, 1), BuildingBlock: CIFDUS_clean_linker_0, # of connection points: 2
#     Edge 23, Type (0, 1), BuildingBlock: CIFDUS_clean_linker_0, # of connection points: 2
#     Edge 24, Type (0, 1), BuildingBlock: CIFDUS_clean_linker_0, # of connection points: 2
#     Edge 25, Type (0, 1), BuildingBlock: CIFDUS_clean_linker_0, # of connection points: 2
#     Edge 26, Type (0, 1), BuildingBlock: CIFDUS_clean_linker_0, # of connection points: 2
#     Edge 27, Type (0, 1), BuildingBlock: CIFDUS_clean_linker_0, # of connection points: 2
#     Edge 28, Type (0, 1), BuildingBlock: CIFDUS_clean_linker_0, # of connection points: 2
#     Edge 29, Type (0, 1), BuildingBlock: CIFDUS_clean_linker_0, # of connection points: 2
#     Edge 30, Type (0, 1), BuildingBlock: CIFDUS_clean_linker_0, # of connection points: 2
#     Edge 31, Type (0, 1), BuildingBlock: CIFDUS_clean_linker_0, # of connection points: 2
#     Edge 32, Type (0, 1), BuildingBlock: CIFDUS_clean_linker_0, # of connection points: 2
#     Edge 33, Type (0, 1), BuildingBlock: CIFDUS_clean_linker_0, # of connection points: 2
#     Edge 34, Type (0, 1), BuildingBlock: CIFDUS_clean_linker_0, # of connection points: 2
#     Edge 35, Type (0, 1), BuildingBlock: CIFDUS_clean_linker_0, # of connection points: 2
# Relax obj value: 0.075
# Max RMSD: 0.185
# Mean RMSD: 0.132
data_MOF--net-pyr--node1-BETDEL_clean_sbu_0--node2-BETDAH_clean_linker_0--edge1-CIFDUS_clean_linker_0
_symmetry_space_group_name_H-M    P1
_symmetry_Int_Tables_number       1
_symmetry_cell_setting            triclinic
loop_
_symmetry_equiv_pos_as_xyz
'x, y, z'
_cell_length_a     31.086222
_cell_length_b     33.577684
_cell_length_c     31.891894
_cell_angle_alpha  92.293238
_cell_angle_beta   90.277368
_cell_angle_gamma 102.38373
loop_
_atom_site_label
_atom_site_type_symbol
_atom_site_fract_x
_atom_site_fract_y
_atom_site_fract_z
_atom_type_partial_charge
H0 H 0.25543 0.15903 0.25881 0.0
H1 H 0.25225 0.19144 0.13008 0.0
H2 H 0.15857 0.22375 0.21601 0.0
C3 C 0.24169 0.17435 0.23441 0.0
C4 C 0.20491 0.19158 0.24271 0.0
C5 C 0.25884 0.17407 0.19387 0.0
C6 C 0.23948 0.19165 0.16166 0.0
C7 C 0.2042 0.21021 0.16963 0.0
C8 C 0.18687 0.21039 0.2102 0.0
N9 N 0.18527 0.22621 0.13547 0.0
C10 C 0.17094 0.26252 0.13825 0.0
H11 H 0.36848 0.82125 0.7419 0.0
H12 H 0.31375 0.9249 0.71358 0.0
H13 H 0.30747 0.82649 0.62196 0.0
C14 C 0.35107 0.83691 0.72064 0.0
C15 C 0.33891 0.81915 0.68071 0.0
C16 C 0.34357 0.87557 0.73263 0.0
C17 C 0.31902 0.89469 0.70547 0.0
C18 C 0.30507 0.87628 0.66581 0.0
C19 C 0.31577 0.83906 0.65353 0.0
N20 N 0.28691 0.89726 0.6349 0.0
C21 C 0.252 0.91667 0.64073 0.0
H22 H 0.69106 0.35223 0.97923 0.0
H23 H 0.70708 0.41925 0.86529 0.0
H24 H 0.60093 0.31539 0.87519 0.0
C25 C 0.68043 0.35658 0.94765 0.0
C26 C 0.6424 0.33043 0.93059 0.0
C27 C 0.70417 0.38891 0.9244 0.0
C28 C 0.68892 0.39505 0.88382 0.0
C29 C 0.65151 0.36833 0.86633 0.0
C30 C 0.62912 0.33623 0.88959 0.0
N31 N 0.63631 0.37074 0.82467 0.0
C32 C 0.64337 0.40511 0.80063 0.0
H33 H 0.81818 0.73533 0.46627 0.0
H34 H 0.87543 0.76394 0.34599 0.0
H35 H 0.77661 0.65448 0.35828 0.0
C36 C 0.82159 0.72661 0.43358 0.0
C37 C 0.79419 0.69085 0.41608 0.0
C38 C 0.85151 0.7529 0.40894 0.0
C39 C 0.85336 0.74358 0.36578 0.0
C40 C 0.82663 0.70802 0.34777 0.0
C41 C 0.79744 0.68155 0.37286 0.0
N42 N 0.8256 0.7016 0.30364 0.0
C43 C 0.84686 0.67396 0.28357 0.0
H44 H 0.9156 0.8365 0.85546 0.0
H45 H 0.84855 0.8366 0.97294 0.0
H46 H 0.82156 0.91259 0.87544 0.0
C47 C 0.89205 0.84741 0.87534 0.0
C48 C 0.86987 0.87656 0.86053 0.0
C49 C 0.88436 0.83236 0.91563 0.0
C50 C 0.85429 0.8471 0.94134 0.0
C51 C 0.83134 0.87552 0.92709 0.0
C52 C 0.83913 0.89042 0.88659 0.0
N53 N 0.80119 0.88837 0.95501 0.0
C54 C 0.77148 0.91217 0.94509 0.0
H55 H 0.76931 0.15481 0.36 0.0
H56 H 0.81255 0.24751 0.45729 0.0
H57 H 0.71132 0.26044 0.37 0.0
C58 C 0.76681 0.18338 0.37585 0.0
C59 C 0.73722 0.20602 0.36058 0.0
C60 C 0.79462 0.19847 0.41039 0.0
C61 C 0.79172 0.23582 0.43024 0.0
C62 C 0.7614 0.25791 0.4165 0.0
C63 C 0.73441 0.24318 0.38132 0.0
N64 N 0.7595 0.29489 0.43882 0.0
C65 C 0.72669 0.31675 0.43403 0.0
H66 H 0.34693 0.74573 0.12571 0.0
H67 H 0.33702 0.67766 0.23874 0.0
H68 H 0.44638 0.77755 0.22272 0.0
C69 C 0.3597 0.74061 0.15624 0.0
C70 C 0.39982 0.76526 0.17088 0.0
C71 C 0.33677 0.70856 0.18034 0.0
C72 C 0.3545 0.70168 0.21961 0.0
C73 C 0.39418 0.7267 0.23463 0.0
C74 C 0.4162 0.75813 0.2103 0.0
N75 N 0.41316 0.72232 0.2743 0.0
C76 C 0.39953 0.69102 0.30165 0.0
H77 H 0.1933 0.36162 0.63193 0.0
H78 H 0.22716 0.43795 0.74426 0.0
H79 H 0.12945 0.3265 0.74789 0.0
C80 C 0.18754 0.36871 0.66459 0.0
C81 C 0.15674 0.34075 0.68668 0.0
C82 C 0.21317 0.40407 0.6846 0.0
C83 C 0.20728 0.41141 0.72786 0.0
C84 C 0.17714 0.38319 0.75052 0.0
C85 C 0.15228 0.34808 0.72991 0.0
N86 N 0.17537 0.38667 0.79485 0.0
C87 C 0.16308 0.41898 0.81673 0.0
Dy88 Dy 0.02654 0.06546 0.50438 0.0
C89 C 0.95311 0.9999 0.65749 0.0
C90 C 0.05935 0.10889 0.43694 0.0
Dy91 Dy 0.9815 0.02977 0.58199 0.0
O92 O 0.08219 0.10347 0.46961 0.0
O93 O 0.01835 0.09059 0.44108 0.0
O94 O 0.0645 0.01599 0.50026 0.0
O95 O 0.04926 0.03772 0.55976 0.0
C96 C 0.06631 0.01158 0.54036 0.0
C97 C 0.92916 0.05872 0.52874 0.0
O98 O 0.02338 0.08694 0.6109 0.0
O99 O 0.04487 0.11958 0.54921 0.0
O100 O 0.9499 0.03532 0.64454 0.0
O101 O 0.97235 0.98089 0.6294 0.0
O102 O 0.91551 0.02739 0.55129 0.0
O103 O 0.96864 0.07454 0.53805 0.0
O104 O 0.97837 0.01074 0.47758 0.0
O105 O 0.97364 0.9749 0.53829 0.0
C106 C 0.04273 0.11953 0.59068 0.0
C107 C 0.9675 0.9761 0.4973 0.0
Dy108 Dy 0.54299 0.06089 0.09668 0.0
C109 C 0.43793 0.99395 0.94738 0.0
C110 C 0.58567 0.09388 0.16919 0.0
Dy111 Dy 0.48874 0.03573 0.01146 0.0
O112 O 0.55714 0.05945 0.16564 0.0
O113 O 0.59068 0.11081 0.13301 0.0
O114 O 0.54399 0.99456 0.10214 0.0
O115 O 0.48989 0.01044 0.07341 0.0
C116 C 0.50658 0.98085 0.08269 0.0
C117 C 0.53371 0.11393 0.01094 0.0
O118 O 0.43664 0.04721 0.05517 0.0
O119 O 0.48086 0.08308 0.10958 0.0
O120 O 0.42982 0.02565 0.96795 0.0
O121 O 0.4735 0.98475 0.9622 0.0
O122 O 0.50795 0.09642 0.98033 0.0
O123 O 0.53265 0.08861 0.03896 0.0
O124 O 0.59643 0.05462 0.05246 0.0
O125 O 0.55216 0.01483 1.00045 0.0
C126 C 0.44206 0.07054 0.09019 0.0
C127 C 0.59135 0.03046 0.01806 0.0
Dy128 Dy 0.51387 0.50542 0.53265 0.0
C129 C 0.46608 0.64417 0.614 0.0
C130 C 0.55176 0.44678 0.49571 0.0
Dy131 Dy 0.50092 0.58315 0.5782 0.0
O132 O 0.51513 0.43964 0.51634 0.0
O133 O 0.56723 0.48583 0.49494 0.0
O134 O 0.44134 0.4789 0.53805 0.0
O135 O 0.47458 0.51865 0.58594 0.0
C136 C 0.43746 0.49885 0.57319 0.0
C137 C 0.57683 0.59028 0.53637 0.0
O138 O 0.52408 0.55258 0.63228 0.0
O139 O 0.55631 0.50896 0.59119 0.0
O140 O 0.50773 0.64366 0.61329 0.0
O141 O 0.44335 0.6111 0.59555 0.0
O142 O 0.57305 0.61103 0.57089 0.0
O143 O 0.5396 0.57004 0.52479 0.0
O144 O 0.48489 0.53154 0.47882 0.0
O145 O 0.4619 0.58285 0.51792 0.0
C146 C 0.55067 0.52668 0.62816 0.0
C147 C 0.46309 0.56139 0.48211 0.0
Dy148 Dy 0.02672 0.51343 0.08147 0.0
C149 C 0.96986 0.64703 0.01108 0.0
C150 C 0.05953 0.44991 0.10872 0.0
Dy151 Dy 0.0078 0.58565 0.0354 0.0
O152 O 0.02321 0.45923 0.12142 0.0
O153 O 0.07802 0.47532 0.08115 0.0
O154 O 0.97731 0.52087 0.13084 0.0
O155 O 0.01215 0.57214 0.10105 0.0
C156 C 0.98124 0.55963 0.12582 0.0
C157 C 0.05291 0.53941 0.99045 0.0
O158 O 0.06782 0.61746 0.0721 0.0
O159 O 0.09125 0.55925 0.09028 0.0
O160 O 0.00742 0.64086 0.99779 0.0
O161 O 0.95323 0.61984 0.03764 0.0
O162 O 0.05618 0.57807 0.98494 0.0
O163 O 0.0224 0.52707 0.01572 0.0
O164 O 0.96744 0.48143 0.04373 0.0
O165 O 0.94375 0.53941 0.02563 0.0
C166 C 0.09843 0.59947 0.08704 0.0
C167 C 0.93683 0.49922 0.02851 0.0
H168 H 0.11729 0.168 0.25727 0.0
H169 H 0.24361 0.20133 0.32068 0.0
H170 H 0.20883 0.18132 0.38739 0.0
H171 H 0.14366 0.1485 0.42625 0.0
H172 H 0.01748 0.11447 0.36284 0.0
H173 H 0.05092 0.1413 0.29759 0.0
C174 C 0.13707 0.17186 0.28585 0.0
C175 C 0.18302 0.18587 0.28398 0.0
C176 C 0.11692 0.15983 0.32397 0.0
C177 C 0.20825 0.19013 0.32123 0.0
C178 C 0.18839 0.17871 0.35936 0.0
C179 C 0.12343 0.14742 0.39824 0.0
C180 C 0.07834 0.12923 0.39909 0.0
C181 C 0.14296 0.16252 0.36087 0.0
C182 C 0.05235 0.1282 0.36278 0.0
C183 C 0.07147 0.14344 0.3255 0.0
H184 H 0.31257 0.92365 0.79246 0.0
H185 H 0.42722 0.87673 0.75848 0.0
H186 H 0.46466 0.90658 0.82274 0.0
H187 H 0.46573 0.94583 0.88877 0.0
H188 H 0.35506 0.99841 0.92182 0.0
H189 H 0.31538 0.9668 0.85804 0.0
C190 C 0.34581 0.92025 0.79905 0.0
C191 C 0.36638 0.89693 0.77106 0.0
C192 C 0.36793 0.93839 0.83605 0.0
C193 C 0.40977 0.89322 0.78 0.0
C194 C 0.43152 0.91055 0.81669 0.0
C195 C 0.43279 0.95013 0.88212 0.0
C196 C 0.41309 0.97393 0.90998 0.0
C197 C 0.41084 0.93286 0.84508 0.0
C198 C 0.37074 0.97992 0.90076 0.0
C199 C 0.34813 0.96196 0.86429 0.0
H200 H 0.59582 0.46303 0.80303 0.0
H201 H 0.6826 0.40851 0.72569 0.0
H202 H 0.66417 0.44447 0.66499 0.0
H203 H 0.61665 0.48487 0.6324 0.0
H204 H 0.52898 0.53881 0.70987 0.0
H205 H 0.55466 0.51012 0.77195 0.0
C206 C 0.61162 0.46016 0.77312 0.0
C207 C 0.6408 0.43373 0.7686 0.0
C208 C 0.60011 0.48029 0.73826 0.0
C209 C 0.66052 0.42931 0.72976 0.0
C210 C 0.64964 0.44952 0.69503 0.0
C211 C 0.60353 0.49076 0.66293 0.0
C212 C 0.5705 0.51356 0.66628 0.0
C213 C 0.61839 0.47405 0.69861 0.0
C214 C 0.5543 0.52128 0.70623 0.0
C215 C 0.56889 0.50477 0.74183 0.0
H216 H 0.90381 0.69623 0.22204 0.0
H217 H 0.83844 0.59281 0.29023 0.0
H218 H 0.87409 0.54758 0.24664 0.0
H219 H 0.92359 0.53779 0.18874 0.0
H220 H 0.9895 0.64169 0.12105 0.0
H221 H 0.95379 0.68651 0.16449 0.0
C222 C 0.89768 0.66378 0.2273 0.0
C223 C 0.86895 0.64754 0.25908 0.0
C224 C 0.91817 0.63819 0.20209 0.0
C225 C 0.86074 0.60566 0.26586 0.0
C226 C 0.881 0.57992 0.24094 0.0
C227 C 0.93006 0.57024 0.18352 0.0
C228 C 0.95905 0.58645 0.15173 0.0
C229 C 0.90969 0.59585 0.20888 0.0
C230 C 0.96724 0.62853 0.1453 0.0
C231 C 0.94691 0.65417 0.17017 0.0
H232 H 0.26183 0.11896 0.13096 0.0
H233 H 0.33818 0.18435 0.23499 0.0
H234 H 0.40173 0.15625 0.21349 0.0
H235 H 0.43668 0.11688 0.16183 0.0
H236 H 0.35872 0.05243 0.05761 0.0
H237 H 0.29482 0.07658 0.08246 0.0
C238 C 0.2924 0.12695 0.14895 0.0
C239 C 0.29572 0.154 0.18407 0.0
C240 C 0.32856 0.1111 0.13622 0.0
C241 C 0.33505 0.16352 0.20777 0.0
C242 C 0.37136 0.14768 0.19535 0.0
C243 C 0.40567 0.1079 0.14471 0.0
C244 C 0.40282 0.08319 0.10764 0.0
C245 C 0.36872 0.12203 0.15911 0.0
C246 C 0.36217 0.07162 0.08607 0.0
C247 C 0.32545 0.08541 0.10022 0.0
H248 H 0.19303 0.89493 0.57965 0.0
H249 H 0.22837 0.97947 0.68547 0.0
H250 H 0.16957 0.01454 0.66637 0.0
H251 H 0.11231 0.02441 0.61512 0.0
H252 H 0.0821 0.94152 0.50698 0.0
H253 H 0.13404 0.90215 0.53147 0.0
C254 C 0.18722 0.92063 0.59888 0.0
C255 C 0.21438 0.93463 0.63392 0.0
C256 C 0.15439 0.94097 0.58703 0.0
C257 C 0.20735 0.96815 0.65849 0.0
C258 C 0.17393 0.98822 0.64742 0.0
C259 C 0.11669 0.99731 0.59746 0.0
C260 C 0.0936 0.98583 0.55924 0.0
C261 C 0.14779 0.9754 0.61118 0.0
C262 C 0.09976 0.95098 0.53633 0.0
C263 C 0.12946 0.9285 0.55027 0.0
H264 H 0.77046 0.36561 0.96654 0.0
H265 H 0.73073 0.47204 0.92185 0.0
H266 H 0.79881 0.51553 0.95023 0.0
H267 H 0.86975 0.52332 0.98768 0.0
H268 H 0.90925 0.41647 0.03202 0.0
H269 H 0.84097 0.37339 1.00428 0.0
C270 C 0.77646 0.39838 0.96338 0.0
C271 C 0.7454 0.4155 0.94216 0.0
C272 C 0.81568 0.42319 0.97975 0.0
C273 C 0.75418 0.45797 0.93768 0.0
C274 C 0.79304 0.48289 0.95409 0.0
C275 C 0.86346 0.49062 0.9914 0.0
C276 C 0.89481 0.47329 0.01199 0.0
C277 C 0.82409 0.46584 0.97513 0.0
C278 C 0.88592 0.43079 0.01632 0.0
C279 C 0.84679 0.40603 1.00045 0.0
H280 H 0.71034 0.65073 0.39343 0.0
H281 H 0.80099 0.67401 0.49915 0.0
H282 H 0.74193 0.64428 0.54566 0.0
H283 H 0.66296 0.61688 0.55743 0.0
H284 H 0.57407 0.58775 0.45108 0.0
H285 H 0.63425 0.61361 0.40364 0.0
C286 C 0.7177 0.64841 0.42638 0.0
C287 C 0.76008 0.66578 0.44269 0.0
C288 C 0.68372 0.63039 0.45301 0.0
C289 C 0.76846 0.66232 0.48573 0.0
C290 C 0.73472 0.64506 0.51245 0.0
C291 C 0.65704 0.61583 0.5238 0.0
C292 C 0.61424 0.6011 0.50775 0.0
C293 C 0.69195 0.63005 0.49664 0.0
C294 C 0.60684 0.59917 0.46414 0.0
C295 C 0.6412 0.61406 0.43702 0.0
H296 H 0.09729 0.28331 0.16688 0.0
H297 H 0.21753 0.32719 0.10079 0.0
H298 H 0.19451 0.39087 0.08717 0.0
H299 H 0.13803 0.43189 0.09027 0.0
H300 H 0.01754 0.38842 0.15646 0.0
H301 H 0.04261 0.32678 0.17409 0.0
C302 C 0.11847 0.3072 0.15002 0.0
C303 C 0.15883 0.30118 0.13476 0.0
C304 C 0.10482 0.34348 0.14211 0.0
C305 C 0.18629 0.33174 0.1128 0.0
C306 C 0.1731 0.36793 0.10491 0.0
C307 C 0.11747 0.40901 0.1088 0.0
C308 C 0.07598 0.41434 0.12182 0.0
C309 C 0.13211 0.37381 0.11879 0.0
C310 C 0.04964 0.38477 0.14604 0.0
C311 C 0.0639 0.34954 0.15606 0.0
H312 H 0.67176 0.2751 0.97875 0.0
H313 H 0.55336 0.30953 0.93601 0.0
H314 H 0.50875 0.24689 0.96169 0.0
H315 H 0.50399 0.17841 0.98706 0.0
H316 H 0.62029 0.14337 0.03308 0.0
H317 H 0.66515 0.21037 0.0162 0.0
C318 C 0.63616 0.26933 0.97604 0.0
C319 C 0.61604 0.29644 0.95432 0.0
C320 C 0.61039 0.23301 0.99116 0.0
C321 C 0.56979 0.28861 0.9514 0.0
C322 C 0.54418 0.25284 0.9662 0.0
C323 C 0.53902 0.18593 0.99434 0.0
C324 C 0.55905 0.1563 0.01092 0.0
C325 C 0.56422 0.22419 0.98462 0.0
C326 C 0.60429 0.16606 0.02051 0.0
C327 C 0.6299 0.20418 0.0105 0.0
H328 H 0.86828 0.82962 0.37863 0.0
H329 H 0.89621 0.76149 0.48359 0.0
H330 H 0.93533 0.82438 0.51962 0.0
H331 H 0.95866 0.89877 0.52285 0.0
H332 H 0.93209 0.96746 0.41784 0.0
H333 H 0.89599 0.90421 0.38005 0.0
C334 C 0.88357 0.82847 0.40906 0.0
C335 C 0.87896 0.79091 0.42853 0.0
C336 C 0.90607 0.86484 0.4297 0.0
C337 C 0.89864 0.79005 0.4682 0.0
C338 C 0.92113 0.82598 0.48879 0.0
C339 C 0.94504 0.89997 0.49166 0.0
C340 C 0.9477 0.93783 0.47338 0.0
C341 C 0.92441 0.86358 0.47015 0.0
C342 C 0.93043 0.93873 0.43269 0.0
C343 C 0.90969 0.90257 0.41108 0.0
H344 H 0.42083 0.80541 0.69095 0.0
H345 H 0.2933 0.75091 0.63693 0.0
H346 H 0.32102 0.69106 0.61244 0.0
H347 H 0.38212 0.65468 0.606 0.0
H348 H 0.50955 0.71074 0.65938 0.0
H349 H 0.48101 0.76931 0.68528 0.0
C350 C 0.39885 0.78018 0.67434 0.0
C351 C 0.35492 0.78237 0.66616 0.0
C352 C 0.41502 0.74617 0.66036 0.0
C353 C 0.32726 0.74994 0.64356 0.0
C354 C 0.34306 0.71571 0.62971 0.0
C355 C 0.40346 0.67966 0.62354 0.0
C356 C 0.44781 0.67846 0.63094 0.0
C357 C 0.38693 0.71353 0.63788 0.0
C358 C 0.4753 0.71103 0.65337 0.0
C359 C 0.45902 0.74452 0.66812 0.0
H360 H 0.882 0.9557 0.83823 0.0
H361 H 0.88183 0.83434 0.78802 0.0
H362 H 0.90868 0.86196 0.7212 0.0
H363 H 0.93509 0.92079 0.6778 0.0
H364 H 0.93143 0.04175 0.72608 0.0
H365 H 0.90296 0.01413 0.7928 0.0
C366 C 0.88703 0.93523 0.81243 0.0
C367 C 0.88048 0.89308 0.81838 0.0
C368 C 0.90221 0.95128 0.77388 0.0
C369 C 0.88749 0.86702 0.78462 0.0
C370 C 0.90275 0.88274 0.74633 0.0
C371 C 0.92808 0.94102 0.70301 0.0
C372 C 0.93575 0.98317 0.69744 0.0
C373 C 0.91096 0.92486 0.74085 0.0
C374 C 0.92593 0.00914 0.72991 0.0
C375 C 0.90962 0.99338 0.76798 0.0
H376 H 0.68491 0.13107 0.34424 0.0
H377 H 0.72901 0.24872 0.29125 0.0
H378 H 0.68606 0.22475 0.22714 0.0
H379 H 0.63673 0.16966 0.18554 0.0
H380 H 0.59017 0.05307 0.24016 0.0
H381 H 0.63316 0.07711 0.30403 0.0
C382 C 0.68509 0.15134 0.31856 0.0
C383 C 0.71016 0.19149 0.3223 0.0
C384 C 0.65987 0.13751 0.28207 0.0
C385 C 0.70974 0.21772 0.28911 0.0
C386 C 0.68533 0.20399 0.25242 0.0
C387 C 0.63599 0.14966 0.21152 0.0
C388 C 0.61053 0.10964 0.20814 0.0
C389 C 0.66036 0.16389 0.24847 0.0
C390 C 0.60952 0.08404 0.24207 0.0
C391 C 0.63416 0.09772 0.27858 0.0
H392 H 0.42724 0.6208 0.30302 0.0
H393 H 0.36612 0.70244 0.37754 0.0
H394 H 0.37615 0.66616 0.44082 0.0
H395 H 0.41112 0.61703 0.47581 0.0
H396 H 0.47386 0.53624 0.401 0.0
H397 H 0.45391 0.56582 0.33712 0.0
C398 C 0.41497 0.62969 0.33299 0.0
C399 C 0.39569 0.66379 0.33595 0.0
C400 C 0.42177 0.60922 0.36926 0.0
C401 C 0.38055 0.67581 0.37476 0.0
C402 C 0.38667 0.65533 0.41092 0.0
C403 C 0.41987 0.60544 0.44553 0.0
C404 C 0.44457 0.57482 0.44342 0.0
C405 C 0.40862 0.62287 0.40875 0.0
C406 C 0.45511 0.55991 0.40377 0.0
C407 C 0.44383 0.57692 0.36709 0.0
H408 H 0.11572 0.39965 0.88501 0.0
H409 H 0.17499 0.50102 0.81108 0.0
H410 H 0.14717 0.54813 0.85962 0.0
H411 H 0.10484 0.55984 0.92274 0.0
H412 H 0.04476 0.45754 0.99561 0.0
H413 H 0.07428 0.41135 0.9482 0.0
C414 C 0.12246 0.43212 0.8797 0.0
C415 C 0.14708 0.44718 0.84482 0.0
C416 C 0.10633 0.45869 0.90761 0.0
C417 C 0.15592 0.48906 0.83789 0.0
C418 C 0.14007 0.51585 0.86561 0.0
C419 C 0.09842 0.52745 0.92828 0.0
C420 C 0.07264 0.51209 0.96261 0.0
C421 C 0.11512 0.50098 0.90055 0.0
C422 C 0.06449 0.47008 0.96942 0.0
C423 C 0.08128 0.44364 0.94228 0.0
H424 H 0.77391 0.984 0.98426 0.0
H425 H 0.69218 0.88964 0.90636 0.0
H426 H 0.62867 0.92107 0.91841 0.0
H427 H 0.59498 0.97048 0.9585 0.0
H428 H 0.67719 0.06307 0.03893 0.0
H429 H 0.74192 0.03758 0.01829 0.0
C430 C 0.74239 0.97112 0.96908 0.0
C431 C 0.73731 0.93503 0.94429 0.0
C432 C 0.70604 0.98869 0.97717 0.0
C433 C 0.69653 0.91784 0.92519 0.0
C434 C 0.66028 0.93559 0.93239 0.0
C435 C 0.62712 0.98551 0.971 0.0
C436 C 0.63099 0.01825 1.00076 0.0
C437 C 0.66434 0.97029 0.95946 0.0
C438 C 0.67302 0.03743 0.01647 0.0
C439 C 0.71018 0.02292 0.00466 0.0
H440 H 0.77892 0.1192 0.43216 0.0
H441 H 0.88219 0.22718 0.42534 0.0
H442 H 0.93408 0.1925 0.45874 0.0
H443 H 0.94877 0.13303 0.4943 0.0
H444 H 0.84462 0.02613 0.50442 0.0
H445 H 0.79457 0.05848 0.46514 0.0
C446 C 0.81297 0.1348 0.43745 0.0
C447 C 0.82676 0.17564 0.42644 0.0
C448 C 0.84236 0.11495 0.45758 0.0
C449 C 0.87082 0.19578 0.43384 0.0
C450 C 0.90047 0.17599 0.45294 0.0
C451 C 0.91521 0.11676 0.4876 0.0
C452 C 0.90024 0.07743 0.50246 0.0
C453 C 0.8864 0.13585 0.46568 0.0
C454 C 0.85674 0.0566 0.49353 0.0
C455 C 0.82812 0.07507 0.47108 0.0
H456 H 0.26828 0.73251 0.14218 0.0
H457 H 0.30979 0.62559 0.18323 0.0
H458 H 0.24006 0.58254 0.15826 0.0
H459 H 0.16724 0.57511 0.1246 0.0
H460 H 0.12594 0.68227 0.08349 0.0
H461 H 0.19568 0.72507 0.10821 0.0
C462 C 0.26226 0.69974 0.14532 0.0
C463 C 0.29433 0.68239 0.1646 0.0
C464 C 0.22205 0.6751 0.13084 0.0
C465 C 0.28556 0.63989 0.16898 0.0
C466 C 0.24575 0.61518 0.1545 0.0
C467 C 0.17342 0.60782 0.12098 0.0
C468 C 0.14115 0.62528 0.10215 0.0
C469 C 0.21369 0.63244 0.13542 0.0
C470 C 0.14996 0.66781 0.09787 0.0
C471 C 0.18994 0.69242 0.112 0.0
H472 H 0.29678 0.44063 0.71115 0.0
H473 H 0.20968 0.42636 0.60315 0.0
H474 H 0.27135 0.45526 0.55902 0.0
H475 H 0.35146 0.47809 0.54963 0.0
H476 H 0.43751 0.49781 0.65831 0.0
H477 H 0.37483 0.47394 0.70366 0.0
C478 C 0.29092 0.44487 0.67825 0.0
C479 C 0.24868 0.43021 0.66043 0.0
C480 C 0.32654 0.46206 0.65297 0.0
C481 C 0.24204 0.43614 0.61758 0.0
C482 C 0.2773 0.45277 0.59224 0.0
C483 C 0.35624 0.47751 0.58331 0.0
C484 C 0.3989 0.48894 0.6006 0.0
C485 C 0.31994 0.46455 0.6093 0.0
C486 C 0.40486 0.48888 0.64431 0.0
C487 C 0.36906 0.47517 0.67024 0.0
H488 H 0.85005 0.7671 0.96189 0.0
H489 H 0.97031 0.82699 0.90335 0.0
H490 H 0.00712 0.77442 0.92694 0.0
H491 H 0.00521 0.71145 0.96458 0.0
H492 H 0.88617 0.65431 0.02652 0.0
H493 H 0.84906 0.70641 1.00199 0.0
C494 C 0.88451 0.7691 0.95479 0.0
C495 C 0.90725 0.80097 0.93076 0.0
C496 C 0.90573 0.73932 0.96919 0.0
C497 C 0.9517 0.80246 0.92117 0.0
C498 C 0.97291 0.77257 0.93492 0.0
C499 C 0.97118 0.71055 0.97269 0.0
C500 C 0.94831 0.67919 0.9971 0.0
C501 C 0.95022 0.74083 0.95888 0.0
C502 C 0.90436 0.67829 0.00773 0.0
C503 C 0.88313 0.70798 0.99368 0.0
H504 H 0.3685 0.82301 0.12876 0.0
H505 H 0.48825 0.78378 0.15783 0.0
H506 H 0.53197 0.84558 0.12923 0.0
H507 H 0.53665 0.9143 0.1036 0.0
H508 H 0.41754 0.9538 0.07321 0.0
H509 H 0.37326 0.88827 0.09375 0.0
C510 C 0.40409 0.82757 0.12792 0.0
C511 C 0.42506 0.79918 0.14627 0.0
C512 C 0.42924 0.86345 0.11147 0.0
C513 C 0.47128 0.8056 0.14486 0.0
C514 C 0.49637 0.84091 0.12842 0.0
C515 C 0.50101 0.90825 0.10082 0.0
C516 C 0.48039 0.93899 0.08754 0.0
C517 C 0.47579 0.87065 0.11292 0.0
C518 C 0.43422 0.93067 0.0836 0.0
C519 C 0.40885 0.89325 0.09553 0.0
H520 H 0.13609 0.26324 0.71526 0.0
H521 H 0.11997 0.33347 0.60798 0.0
H522 H 0.08403 0.27135 0.56883 0.0
H523 H 0.05886 0.19696 0.56421 0.0
H524 H 0.07099 0.12683 0.67241 0.0
H525 H 0.1061 0.18916 0.71226 0.0
C526 C 0.12403 0.26513 0.6836 0.0
C527 C 0.13126 0.30307 0.66454 0.0
C528 C 0.10278 0.22927 0.66134 0.0
C529 C 0.11575 0.30466 0.62322 0.0
C530 C 0.09497 0.26915 0.60082 0.0
C531 C 0.06922 0.19531 0.59651 0.0
C532 C 0.06272 0.15732 0.6152 0.0
C533 C 0.08881 0.23126 0.61936 0.0
C534 C 0.07566 0.15573 0.65728 0.0
C535 C 0.0958 0.19135 0.68007 0.0
H536 H 0.64408 0.29888 0.46284 0.0
H537 H 0.74087 0.39347 0.40843 0.0
H538 H 0.69297 0.44206 0.41961 0.0
H539 H 0.6267 0.45894 0.45089 0.0
H540 H 0.53006 0.36478 0.50649 0.0
H541 H 0.57429 0.31449 0.48854 0.0
C542 C 0.65405 0.32996 0.45275 0.0
C543 C 0.69551 0.34292 0.43475 0.0
C544 C 0.62656 0.35774 0.45985 0.0
C545 C 0.70876 0.3831 0.42209 0.0
C546 C 0.68153 0.41083 0.42868 0.0
C547 C 0.61509 0.42729 0.45855 0.0
C548 C 0.57544 0.41555 0.48023 0.0
C549 C 0.64084 0.39873 0.44844 0.0
C550 C 0.56058 0.37448 0.48986 0.0
C551 C 0.58591 0.34577 0.47973 0.0
loop_
_geom_bond_atom_site_label_1
_geom_bond_atom_site_label_2
_geom_bond_distance
_geom_bond_site_symmetry_2
_ccdc_geom_bond_type
H0 C3 0.929 . S
H1 C6 0.929 . S
H2 C8 0.930 . S
C3 H0 0.929 . S
C3 C4 1.398 . S
C3 C5 1.396 . S
C4 C3 1.398 . S
C4 C8 1.407 . S
C5 C3 1.396 . S
C5 C6 1.394 . S
C6 H1 0.929 . S
C6 C5 1.394 . S
C6 C7 1.382 . S
C7 C6 1.382 . S
C7 C8 1.392 . S
C7 N9 1.420 . S
C8 H2 0.930 . S
C8 C4 1.407 . S
C8 C7 1.392 . S
N9 C7 1.420 . S
N9 C10 1.244 . S
C10 N9 1.244 . S
H11 C14 0.929 . S
H12 C17 0.929 . S
H13 C19 0.930 . S
C14 H11 0.929 . S
C14 C15 1.398 . S
C14 C16 1.396 . S
C15 C14 1.398 . S
C15 C19 1.407 . S
C16 C14 1.396 . S
C16 C17 1.394 . S
C17 H12 0.929 . S
C17 C16 1.394 . S
C17 C18 1.382 . S
C18 C17 1.382 . S
C18 C19 1.392 . S
C18 N20 1.420 . S
C19 H13 0.930 . S
C19 C15 1.407 . S
C19 C18 1.392 . S
N20 C18 1.420 . S
N20 C21 1.244 . S
C21 N20 1.244 . S
H22 C25 0.929 . S
H23 C28 0.929 . S
H24 C30 0.930 . S
C25 H22 0.929 . S
C25 C26 1.398 . S
C25 C27 1.396 . S
C26 C25 1.398 . S
C26 C30 1.407 . S
C27 C25 1.396 . S
C27 C28 1.394 . S
C28 H23 0.929 . S
C28 C27 1.394 . S
C28 C29 1.382 . S
C29 C28 1.382 . S
C29 C30 1.392 . S
C29 N31 1.420 . S
C30 H24 0.930 . S
C30 C26 1.407 . S
C30 C29 1.392 . S
N31 C29 1.420 . S
N31 C32 1.244 . S
C32 N31 1.244 . S
H33 C36 0.929 . S
H34 C39 0.929 . S
H35 C41 0.930 . S
C36 H33 0.929 . S
C36 C37 1.398 . S
C36 C38 1.396 . S
C37 C36 1.398 . S
C37 C41 1.407 . S
C38 C36 1.396 . S
C38 C39 1.394 . S
C39 H34 0.929 . S
C39 C38 1.394 . S
C39 C40 1.382 . S
C40 C39 1.382 . S
C40 C41 1.392 . S
C40 N42 1.420 . S
C41 H35 0.930 . S
C41 C37 1.407 . S
C41 C40 1.392 . S
N42 C40 1.420 . S
N42 C43 1.244 . S
C43 N42 1.244 . S
H44 C47 0.929 . S
H45 C50 0.929 . S
H46 C52 0.930 . S
C47 H44 0.929 . S
C47 C48 1.398 . S
C47 C49 1.396 . S
C48 C47 1.398 . S
C48 C52 1.407 . S
C49 C47 1.396 . S
C49 C50 1.394 . S
C50 H45 0.929 . S
C50 C49 1.394 . S
C50 C51 1.382 . S
C51 C50 1.382 . S
C51 C52 1.392 . S
C51 N53 1.420 . S
C52 H46 0.930 . S
C52 C48 1.407 . S
C52 C51 1.392 . S
N53 C51 1.420 . S
N53 C54 1.244 . S
C54 N53 1.244 . S
H55 C58 0.929 . S
H56 C61 0.929 . S
H57 C63 0.930 . S
C58 H55 0.929 . S
C58 C59 1.398 . S
C58 C60 1.396 . S
C59 C58 1.398 . S
C59 C63 1.407 . S
C60 C58 1.396 . S
C60 C61 1.394 . S
C61 H56 0.929 . S
C61 C60 1.394 . S
C61 C62 1.382 . S
C62 C61 1.382 . S
C62 C63 1.392 . S
C62 N64 1.420 . S
C63 H57 0.930 . S
C63 C59 1.407 . S
C63 C62 1.392 . S
N64 C62 1.420 . S
N64 C65 1.244 . S
C65 N64 1.244 . S
H66 C69 0.929 . S
H67 C72 0.929 . S
H68 C74 0.930 . S
C69 H66 0.929 . S
C69 C70 1.398 . S
C69 C71 1.396 . S
C70 C69 1.398 . S
C70 C74 1.407 . S
C71 C69 1.396 . S
C71 C72 1.394 . S
C72 H67 0.929 . S
C72 C71 1.394 . S
C72 C73 1.382 . S
C73 C72 1.382 . S
C73 C74 1.392 . S
C73 N75 1.420 . S
C74 H68 0.930 . S
C74 C70 1.407 . S
C74 C73 1.392 . S
N75 C73 1.420 . S
N75 C76 1.244 . S
C76 N75 1.244 . S
H77 C80 0.929 . S
H78 C83 0.929 . S
H79 C85 0.930 . S
C80 H77 0.929 . S
C80 C81 1.398 . S
C80 C82 1.396 . S
C81 C80 1.398 . S
C81 C85 1.407 . S
C82 C80 1.396 . S
C82 C83 1.394 . S
C83 H78 0.929 . S
C83 C82 1.394 . S
C83 C84 1.382 . S
C84 C83 1.382 . S
C84 C85 1.392 . S
C84 N86 1.420 . S
C85 H79 0.930 . S
C85 C81 1.407 . S
C85 C84 1.392 . S
N86 C84 1.420 . S
N86 C87 1.244 . S
C87 N86 1.244 . S
Dy88 O92 2.398 . S
Dy88 O93 2.491 . S
Dy88 O94 2.403 . S
Dy88 O95 2.664 . S
Dy88 O99 2.326 . S
Dy88 O103 2.310 1_455 S
Dy88 O104 2.351 1_445 S
C89 O100 1.185 . S
C89 O101 1.355 . S
C90 O92 1.185 . S
C90 O93 1.355 . S
Dy91 O95 2.310 1_655 S
Dy91 O98 2.351 1_655 S
Dy91 O100 2.398 1_545 S
Dy91 O101 2.491 1_545 S
Dy91 O102 2.403 . S
Dy91 O103 2.664 . S
Dy91 O105 2.326 1_545 S
O92 Dy88 2.398 . S
O92 C90 1.185 . S
O93 Dy88 2.491 . S
O93 C90 1.355 . S
O94 Dy88 2.403 . S
O94 C96 1.254 . S
O95 Dy88 2.664 . S
O95 Dy91 2.310 1_455 S
O95 C96 1.268 . S
C96 O94 1.254 . S
C96 O95 1.268 . S
C97 O102 1.254 . S
C97 O103 1.268 . S
O98 Dy91 2.351 1_455 S
O98 C106 1.249 . S
O99 Dy88 2.326 . S
O99 C106 1.267 . S
O100 C89 1.185 . S
O100 Dy91 2.398 1_565 S
O101 C89 1.355 . S
O101 Dy91 2.491 1_565 S
O102 Dy91 2.403 . S
O102 C97 1.254 . S
O103 Dy88 2.310 1_655 S
O103 Dy91 2.664 . S
O103 C97 1.268 . S
O104 Dy88 2.351 1_665 S
O104 C107 1.249 . S
O105 Dy91 2.326 1_565 S
O105 C107 1.267 . S
C106 O98 1.249 . S
C106 O99 1.267 . S
C107 O104 1.249 . S
C107 O105 1.267 . S
Dy108 O112 2.398 . S
Dy108 O113 2.491 . S
Dy108 O114 2.403 1_545 S
Dy108 O115 2.664 1_545 S
Dy108 O119 2.326 . S
Dy108 O123 2.310 . S
Dy108 O124 2.351 . S
C109 O120 1.185 1_565 S
C109 O121 1.355 . S
C110 O112 1.185 . S
C110 O113 1.355 . S
Dy111 O115 2.310 1_545 S
Dy111 O118 2.351 . S
Dy111 O120 2.398 1_554 S
Dy111 O121 2.491 1_544 S
Dy111 O122 2.403 1_554 S
Dy111 O123 2.664 . S
Dy111 O125 2.326 1_554 S
O112 Dy108 2.398 . S
O112 C110 1.185 . S
O113 Dy108 2.491 . S
O113 C110 1.355 . S
O114 Dy108 2.403 1_565 S
O114 C116 1.254 . S
O115 Dy108 2.664 1_565 S
O115 Dy111 2.310 1_565 S
O115 C116 1.268 . S
C116 O114 1.254 . S
C116 O115 1.268 . S
C117 O122 1.254 1_554 S
C117 O123 1.268 . S
O118 Dy111 2.351 . S
O118 C126 1.249 . S
O119 Dy108 2.326 . S
O119 C126 1.267 . S
O120 C109 1.185 1_545 S
O120 Dy111 2.398 1_556 S
O121 C109 1.355 . S
O121 Dy111 2.491 1_566 S
O122 Dy111 2.403 1_556 S
O122 C117 1.254 1_556 S
O123 Dy108 2.310 . S
O123 Dy111 2.664 . S
O123 C117 1.268 . S
O124 Dy108 2.351 . S
O124 C127 1.249 1_545 S
O125 Dy111 2.326 1_556 S
O125 C127 1.267 1_546 S
C126 O118 1.249 . S
C126 O119 1.267 . S
C127 O124 1.249 1_565 S
C127 O125 1.267 1_564 S
Dy128 O132 2.398 . S
Dy128 O133 2.491 . S
Dy128 O134 2.403 . S
Dy128 O135 2.664 . S
Dy128 O139 2.326 . S
Dy128 O143 2.310 . S
Dy128 O144 2.351 . S
C129 O140 1.185 . S
C129 O141 1.355 . S
C130 O132 1.185 . S
C130 O133 1.355 . S
Dy131 O135 2.310 . S
Dy131 O138 2.351 . S
Dy131 O140 2.398 . S
Dy131 O141 2.491 . S
Dy131 O142 2.403 . S
Dy131 O143 2.664 . S
Dy131 O145 2.326 . S
O132 Dy128 2.398 . S
O132 C130 1.185 . S
O133 Dy128 2.491 . S
O133 C130 1.355 . S
O134 Dy128 2.403 . S
O134 C136 1.254 . S
O135 Dy128 2.664 . S
O135 Dy131 2.310 . S
O135 C136 1.268 . S
C136 O134 1.254 . S
C136 O135 1.268 . S
C137 O142 1.254 . S
C137 O143 1.268 . S
O138 Dy131 2.351 . S
O138 C146 1.249 . S
O139 Dy128 2.326 . S
O139 C146 1.267 . S
O140 C129 1.185 . S
O140 Dy131 2.398 . S
O141 C129 1.355 . S
O141 Dy131 2.491 . S
O142 Dy131 2.403 . S
O142 C137 1.254 . S
O143 Dy128 2.310 . S
O143 Dy131 2.664 . S
O143 C137 1.268 . S
O144 Dy128 2.351 . S
O144 C147 1.249 . S
O145 Dy131 2.326 . S
O145 C147 1.267 . S
C146 O138 1.249 . S
C146 O139 1.267 . S
C147 O144 1.249 . S
C147 O145 1.267 . S
Dy148 O152 2.398 . S
Dy148 O153 2.491 . S
Dy148 O154 2.403 1_455 S
Dy148 O155 2.664 1_455 S
Dy148 O159 2.326 . S
Dy148 O163 2.310 1_554 S
Dy148 O164 2.351 1_455 S
C149 O160 1.185 . S
C149 O161 1.355 . S
C150 O152 1.185 . S
C150 O153 1.355 . S
Dy151 O155 2.310 1_456 S
Dy151 O158 2.351 1_556 S
Dy151 O160 2.398 1_455 S
Dy151 O161 2.491 1_455 S
Dy151 O162 2.403 . S
Dy151 O163 2.664 . S
Dy151 O165 2.326 1_455 S
O152 Dy148 2.398 . S
O152 C150 1.185 . S
O153 Dy148 2.491 . S
O153 C150 1.355 . S
O154 Dy148 2.403 1_655 S
O154 C156 1.254 . S
O155 Dy148 2.664 1_655 S
O155 Dy151 2.310 1_654 S
O155 C156 1.268 . S
C156 O154 1.254 . S
C156 O155 1.268 . S
C157 O162 1.254 . S
C157 O163 1.268 . S
O158 Dy151 2.351 1_554 S
O158 C166 1.249 . S
O159 Dy148 2.326 . S
O159 C166 1.267 . S
O160 C149 1.185 . S
O160 Dy151 2.398 1_655 S
O161 C149 1.355 . S
O161 Dy151 2.491 1_655 S
O162 Dy151 2.403 . S
O162 C157 1.254 . S
O163 Dy148 2.310 1_556 S
O163 Dy151 2.664 . S
O163 C157 1.268 . S
O164 Dy148 2.351 1_655 S
O164 C167 1.249 1_554 S
O165 Dy151 2.326 1_655 S
O165 C167 1.267 . S
C166 O158 1.249 . S
C166 O159 1.267 . S
C167 O164 1.249 1_556 S
C167 O165 1.267 . S
H168 C174 0.930 . S
H169 C177 0.930 . S
H170 C178 0.930 . S
H171 C179 0.930 . S
H172 C182 0.930 . S
H173 C183 0.930 . S
C174 H168 0.930 . S
C174 C175 1.355 . S
C174 C176 1.415 . S
C175 C174 1.355 . S
C175 C177 1.419 . S
C176 C174 1.415 . S
C176 C181 1.425 . S
C176 C183 1.409 . S
C177 H169 0.930 . S
C177 C175 1.419 . S
C177 C178 1.362 . S
C178 H170 0.930 . S
C178 C177 1.362 . S
C178 C181 1.409 . S
C179 H171 0.930 . S
C179 C180 1.355 . S
C179 C181 1.415 . S
C180 C179 1.355 . S
C180 C182 1.419 . S
C181 C176 1.425 . S
C181 C178 1.409 . S
C181 C179 1.415 . S
C182 H172 0.930 . S
C182 C180 1.419 . S
C182 C183 1.362 . S
C183 H173 0.930 . S
C183 C176 1.409 . S
C183 C182 1.362 . S
H184 C190 0.930 . S
H185 C193 0.930 . S
H186 C194 0.930 . S
H187 C195 0.930 . S
H188 C198 0.930 1_545 S
H189 C199 0.930 1_545 S
C190 H184 0.930 . S
C190 C191 1.355 . S
C190 C192 1.415 . S
C191 C190 1.355 . S
C191 C193 1.419 . S
C192 C190 1.415 . S
C192 C197 1.425 . S
C192 C199 1.409 . S
C193 H185 0.930 . S
C193 C191 1.419 . S
C193 C194 1.362 . S
C194 H186 0.930 . S
C194 C193 1.362 . S
C194 C197 1.409 . S
C195 H187 0.930 . S
C195 C196 1.355 . S
C195 C197 1.415 . S
C196 C195 1.355 . S
C196 C198 1.419 . S
C197 C192 1.425 . S
C197 C194 1.409 . S
C197 C195 1.415 . S
C198 H188 0.930 1_565 S
C198 C196 1.419 . S
C198 C199 1.362 . S
C199 H189 0.930 1_565 S
C199 C192 1.409 . S
C199 C198 1.362 . S
H200 C206 0.930 . S
H201 C209 0.930 . S
H202 C210 0.930 . S
H203 C211 0.930 . S
H204 C214 0.930 . S
H205 C215 0.930 . S
C206 H200 0.930 . S
C206 C207 1.355 . S
C206 C208 1.415 . S
C207 C206 1.355 . S
C207 C209 1.419 . S
C208 C206 1.415 . S
C208 C213 1.425 . S
C208 C215 1.409 . S
C209 H201 0.930 . S
C209 C207 1.419 . S
C209 C210 1.362 . S
C210 H202 0.930 . S
C210 C209 1.362 . S
C210 C213 1.409 . S
C211 H203 0.930 . S
C211 C212 1.355 . S
C211 C213 1.415 . S
C212 C211 1.355 . S
C212 C214 1.419 . S
C213 C208 1.425 . S
C213 C210 1.409 . S
C213 C211 1.415 . S
C214 H204 0.930 . S
C214 C212 1.419 . S
C214 C215 1.362 . S
C215 H205 0.930 . S
C215 C208 1.409 . S
C215 C214 1.362 . S
H216 C222 0.930 . S
H217 C225 0.930 . S
H218 C226 0.930 . S
H219 C227 0.930 . S
H220 C230 0.930 . S
H221 C231 0.930 . S
C222 H216 0.930 . S
C222 C223 1.355 . S
C222 C224 1.415 . S
C223 C222 1.355 . S
C223 C225 1.419 . S
C224 C222 1.415 . S
C224 C229 1.425 . S
C224 C231 1.409 . S
C225 H217 0.930 . S
C225 C223 1.419 . S
C225 C226 1.362 . S
C226 H218 0.930 . S
C226 C225 1.362 . S
C226 C229 1.409 . S
C227 H219 0.930 . S
C227 C228 1.355 . S
C227 C229 1.415 . S
C228 C227 1.355 . S
C228 C230 1.419 . S
C229 C224 1.425 . S
C229 C226 1.409 . S
C229 C227 1.415 . S
C230 H220 0.930 . S
C230 C228 1.419 . S
C230 C231 1.362 . S
C231 H221 0.930 . S
C231 C224 1.409 . S
C231 C230 1.362 . S
H232 C238 0.930 . S
H233 C241 0.930 . S
H234 C242 0.930 . S
H235 C243 0.930 . S
H236 C246 0.930 . S
H237 C247 0.930 . S
C238 H232 0.930 . S
C238 C239 1.355 . S
C238 C240 1.415 . S
C239 C238 1.355 . S
C239 C241 1.419 . S
C240 C238 1.415 . S
C240 C245 1.425 . S
C240 C247 1.409 . S
C241 H233 0.930 . S
C241 C239 1.419 . S
C241 C242 1.362 . S
C242 H234 0.930 . S
C242 C241 1.362 . S
C242 C245 1.409 . S
C243 H235 0.930 . S
C243 C244 1.355 . S
C243 C245 1.415 . S
C244 C243 1.355 . S
C244 C246 1.419 . S
C245 C240 1.425 . S
C245 C242 1.409 . S
C245 C243 1.415 . S
C246 H236 0.930 . S
C246 C244 1.419 . S
C246 C247 1.362 . S
C247 H237 0.930 . S
C247 C240 1.409 . S
C247 C246 1.362 . S
H248 C254 0.930 . S
H249 C257 0.930 . S
H250 C258 0.930 . S
H251 C259 0.930 . S
H252 C262 0.930 . S
H253 C263 0.930 . S
C254 H248 0.930 . S
C254 C255 1.355 . S
C254 C256 1.415 . S
C255 C254 1.355 . S
C255 C257 1.419 . S
C256 C254 1.415 . S
C256 C261 1.425 . S
C256 C263 1.409 1_565 S
C257 H249 0.930 . S
C257 C255 1.419 . S
C257 C258 1.362 . S
C258 H250 0.930 . S
C258 C257 1.362 . S
C258 C261 1.409 . S
C259 H251 0.930 . S
C259 C260 1.355 . S
C259 C261 1.415 . S
C260 C259 1.355 . S
C260 C262 1.419 1_565 S
C261 C256 1.425 . S
C261 C258 1.409 . S
C261 C259 1.415 . S
C262 H252 0.930 . S
C262 C260 1.419 1_545 S
C262 C263 1.362 . S
C263 H253 0.930 . S
C263 C256 1.409 1_545 S
C263 C262 1.362 . S
H264 C270 0.930 . S
H265 C273 0.930 . S
H266 C274 0.930 . S
H267 C275 0.930 . S
H268 C278 0.930 . S
H269 C279 0.930 1_554 S
C270 H264 0.930 . S
C270 C271 1.355 . S
C270 C272 1.415 . S
C271 C270 1.355 . S
C271 C273 1.419 . S
C272 C270 1.415 . S
C272 C277 1.425 . S
C272 C279 1.409 . S
C273 H265 0.930 . S
C273 C271 1.419 . S
C273 C274 1.362 . S
C274 H266 0.930 . S
C274 C273 1.362 . S
C274 C277 1.409 . S
C275 H267 0.930 . S
C275 C276 1.355 . S
C275 C277 1.415 . S
C276 C275 1.355 . S
C276 C278 1.419 1_556 S
C277 C272 1.425 . S
C277 C274 1.409 . S
C277 C275 1.415 . S
C278 H268 0.930 . S
C278 C276 1.419 1_554 S
C278 C279 1.362 1_554 S
C279 H269 0.930 1_556 S
C279 C272 1.409 . S
C279 C278 1.362 1_556 S
H280 C286 0.930 . S
H281 C289 0.930 . S
H282 C290 0.930 . S
H283 C291 0.930 . S
H284 C294 0.930 . S
H285 C295 0.930 . S
C286 H280 0.930 . S
C286 C287 1.355 . S
C286 C288 1.415 . S
C287 C286 1.355 . S
C287 C289 1.419 . S
C288 C286 1.415 . S
C288 C293 1.425 . S
C288 C295 1.409 . S
C289 H281 0.930 . S
C289 C287 1.419 . S
C289 C290 1.362 . S
C290 H282 0.930 . S
C290 C289 1.362 . S
C290 C293 1.409 . S
C291 H283 0.930 . S
C291 C292 1.355 . S
C291 C293 1.415 . S
C292 C291 1.355 . S
C292 C294 1.419 . S
C293 C288 1.425 . S
C293 C290 1.409 . S
C293 C291 1.415 . S
C294 H284 0.930 . S
C294 C292 1.419 . S
C294 C295 1.362 . S
C295 H285 0.930 . S
C295 C288 1.409 . S
C295 C294 1.362 . S
H296 C302 0.930 . S
H297 C305 0.930 . S
H298 C306 0.930 . S
H299 C307 0.930 . S
H300 C310 0.930 . S
H301 C311 0.930 . S
C302 H296 0.930 . S
C302 C303 1.355 . S
C302 C304 1.415 . S
C303 C302 1.355 . S
C303 C305 1.419 . S
C304 C302 1.415 . S
C304 C309 1.425 . S
C304 C311 1.409 . S
C305 H297 0.930 . S
C305 C303 1.419 . S
C305 C306 1.362 . S
C306 H298 0.930 . S
C306 C305 1.362 . S
C306 C309 1.409 . S
C307 H299 0.930 . S
C307 C308 1.355 . S
C307 C309 1.415 . S
C308 C307 1.355 . S
C308 C310 1.419 . S
C309 C304 1.425 . S
C309 C306 1.409 . S
C309 C307 1.415 . S
C310 H300 0.930 . S
C310 C308 1.419 . S
C310 C311 1.362 . S
C311 H301 0.930 . S
C311 C304 1.409 . S
C311 C310 1.362 . S
H312 C318 0.930 . S
H313 C321 0.930 . S
H314 C322 0.930 1_554 S
H315 C323 0.930 . S
H316 C326 0.930 . S
H317 C327 0.930 . S
C318 H312 0.930 . S
C318 C319 1.355 . S
C318 C320 1.415 . S
C319 C318 1.355 . S
C319 C321 1.419 . S
C320 C318 1.415 . S
C320 C325 1.425 . S
C320 C327 1.409 . S
C321 H313 0.930 . S
C321 C319 1.419 . S
C321 C322 1.362 . S
C322 H314 0.930 1_556 S
C322 C321 1.362 . S
C322 C325 1.409 . S
C323 H315 0.930 . S
C323 C324 1.355 . S
C323 C325 1.415 1_554 S
C324 C323 1.355 . S
C324 C326 1.419 1_554 S
C325 C320 1.425 . S
C325 C322 1.409 . S
C325 C323 1.415 1_556 S
C326 H316 0.930 . S
C326 C324 1.419 1_556 S
C326 C327 1.362 . S
C327 H317 0.930 . S
C327 C320 1.409 . S
C327 C326 1.362 . S
H328 C334 0.930 . S
H329 C337 0.930 . S
H330 C338 0.930 . S
H331 C339 0.930 . S
H332 C342 0.930 . S
H333 C343 0.930 . S
C334 H328 0.930 . S
C334 C335 1.355 . S
C334 C336 1.415 . S
C335 C334 1.355 . S
C335 C337 1.419 . S
C336 C334 1.415 . S
C336 C341 1.425 . S
C336 C343 1.409 . S
C337 H329 0.930 . S
C337 C335 1.419 . S
C337 C338 1.362 . S
C338 H330 0.930 . S
C338 C337 1.362 . S
C338 C341 1.409 . S
C339 H331 0.930 . S
C339 C340 1.355 . S
C339 C341 1.415 . S
C340 C339 1.355 . S
C340 C342 1.419 . S
C341 C336 1.425 . S
C341 C338 1.409 . S
C341 C339 1.415 . S
C342 H332 0.930 . S
C342 C340 1.419 . S
C342 C343 1.362 . S
C343 H333 0.930 . S
C343 C336 1.409 . S
C343 C342 1.362 . S
H344 C350 0.930 . S
H345 C353 0.930 . S
H346 C354 0.930 . S
H347 C355 0.930 . S
H348 C358 0.930 . S
H349 C359 0.930 . S
C350 H344 0.930 . S
C350 C351 1.355 . S
C350 C352 1.415 . S
C351 C350 1.355 . S
C351 C353 1.419 . S
C352 C350 1.415 . S
C352 C357 1.425 . S
C352 C359 1.409 . S
C353 H345 0.930 . S
C353 C351 1.419 . S
C353 C354 1.362 . S
C354 H346 0.930 . S
C354 C353 1.362 . S
C354 C357 1.409 . S
C355 H347 0.930 . S
C355 C356 1.355 . S
C355 C357 1.415 . S
C356 C355 1.355 . S
C356 C358 1.419 . S
C357 C352 1.425 . S
C357 C354 1.409 . S
C357 C355 1.415 . S
C358 H348 0.930 . S
C358 C356 1.419 . S
C358 C359 1.362 . S
C359 H349 0.930 . S
C359 C352 1.409 . S
C359 C358 1.362 . S
H360 C366 0.930 . S
H361 C369 0.930 . S
H362 C370 0.930 . S
H363 C371 0.930 . S
H364 C374 0.930 . S
H365 C375 0.930 . S
C366 H360 0.930 . S
C366 C367 1.355 . S
C366 C368 1.415 . S
C367 C366 1.355 . S
C367 C369 1.419 . S
C368 C366 1.415 . S
C368 C373 1.425 . S
C368 C375 1.409 . S
C369 H361 0.930 . S
C369 C367 1.419 . S
C369 C370 1.362 . S
C370 H362 0.930 . S
C370 C369 1.362 . S
C370 C373 1.409 . S
C371 H363 0.930 . S
C371 C372 1.355 . S
C371 C373 1.415 . S
C372 C371 1.355 . S
C372 C374 1.419 . S
C373 C368 1.425 . S
C373 C370 1.409 . S
C373 C371 1.415 . S
C374 H364 0.930 . S
C374 C372 1.419 . S
C374 C375 1.362 . S
C375 H365 0.930 . S
C375 C368 1.409 . S
C375 C374 1.362 . S
H376 C382 0.930 . S
H377 C385 0.930 . S
H378 C386 0.930 . S
H379 C387 0.930 . S
H380 C390 0.930 . S
H381 C391 0.930 . S
C382 H376 0.930 . S
C382 C383 1.355 . S
C382 C384 1.415 . S
C383 C382 1.355 . S
C383 C385 1.419 . S
C384 C382 1.415 . S
C384 C389 1.425 . S
C384 C391 1.409 . S
C385 H377 0.930 . S
C385 C383 1.419 . S
C385 C386 1.362 . S
C386 H378 0.930 . S
C386 C385 1.362 . S
C386 C389 1.409 . S
C387 H379 0.930 . S
C387 C388 1.355 . S
C387 C389 1.415 . S
C388 C387 1.355 . S
C388 C390 1.419 . S
C389 C384 1.425 . S
C389 C386 1.409 . S
C389 C387 1.415 . S
C390 H380 0.930 . S
C390 C388 1.419 . S
C390 C391 1.362 . S
C391 H381 0.930 . S
C391 C384 1.409 . S
C391 C390 1.362 . S
H392 C398 0.930 . S
H393 C401 0.930 . S
H394 C402 0.930 . S
H395 C403 0.930 . S
H396 C406 0.930 . S
H397 C407 0.930 . S
C398 H392 0.930 . S
C398 C399 1.355 . S
C398 C400 1.415 . S
C399 C398 1.355 . S
C399 C401 1.419 . S
C400 C398 1.415 . S
C400 C405 1.425 . S
C400 C407 1.409 . S
C401 H393 0.930 . S
C401 C399 1.419 . S
C401 C402 1.362 . S
C402 H394 0.930 . S
C402 C401 1.362 . S
C402 C405 1.409 . S
C403 H395 0.930 . S
C403 C404 1.355 . S
C403 C405 1.415 . S
C404 C403 1.355 . S
C404 C406 1.419 . S
C405 C400 1.425 . S
C405 C402 1.409 . S
C405 C403 1.415 . S
C406 H396 0.930 . S
C406 C404 1.419 . S
C406 C407 1.362 . S
C407 H397 0.930 . S
C407 C400 1.409 . S
C407 C406 1.362 . S
H408 C414 0.930 . S
H409 C417 0.930 . S
H410 C418 0.930 . S
H411 C419 0.930 . S
H412 C422 0.930 . S
H413 C423 0.930 . S
C414 H408 0.930 . S
C414 C415 1.355 . S
C414 C416 1.415 . S
C415 C414 1.355 . S
C415 C417 1.419 . S
C416 C414 1.415 . S
C416 C421 1.425 . S
C416 C423 1.409 . S
C417 H409 0.930 . S
C417 C415 1.419 . S
C417 C418 1.362 . S
C418 H410 0.930 . S
C418 C417 1.362 . S
C418 C421 1.409 . S
C419 H411 0.930 . S
C419 C420 1.355 . S
C419 C421 1.415 . S
C420 C419 1.355 . S
C420 C422 1.419 . S
C421 C416 1.425 . S
C421 C418 1.409 . S
C421 C419 1.415 . S
C422 H412 0.930 . S
C422 C420 1.419 . S
C422 C423 1.362 . S
C423 H413 0.930 . S
C423 C416 1.409 . S
C423 C422 1.362 . S
H424 C430 0.930 . S
H425 C433 0.930 . S
H426 C434 0.930 . S
H427 C435 0.930 1_554 S
H428 C438 0.930 1_545 S
H429 C439 0.930 . S
C430 H424 0.930 . S
C430 C431 1.355 . S
C430 C432 1.415 . S
C431 C430 1.355 . S
C431 C433 1.419 . S
C432 C430 1.415 . S
C432 C437 1.425 . S
C432 C439 1.409 . S
C433 H425 0.930 . S
C433 C431 1.419 . S
C433 C434 1.362 . S
C434 H426 0.930 . S
C434 C433 1.362 . S
C434 C437 1.409 . S
C435 H427 0.930 1_556 S
C435 C436 1.355 . S
C435 C437 1.415 . S
C436 C435 1.355 . S
C436 C438 1.419 . S
C437 C432 1.425 . S
C437 C434 1.409 . S
C437 C435 1.415 . S
C438 H428 0.930 1_565 S
C438 C436 1.419 . S
C438 C439 1.362 . S
C439 H429 0.930 . S
C439 C432 1.409 . S
C439 C438 1.362 . S
H440 C446 0.930 . S
H441 C449 0.930 . S
H442 C450 0.930 . S
H443 C451 0.930 . S
H444 C454 0.930 . S
H445 C455 0.930 . S
C446 H440 0.930 . S
C446 C447 1.355 . S
C446 C448 1.415 . S
C447 C446 1.355 . S
C447 C449 1.419 . S
C448 C446 1.415 . S
C448 C453 1.425 . S
C448 C455 1.409 . S
C449 H441 0.930 . S
C449 C447 1.419 . S
C449 C450 1.362 . S
C450 H442 0.930 . S
C450 C449 1.362 . S
C450 C453 1.409 . S
C451 H443 0.930 . S
C451 C452 1.355 . S
C451 C453 1.415 . S
C452 C451 1.355 . S
C452 C454 1.419 . S
C453 C448 1.425 . S
C453 C450 1.409 . S
C453 C451 1.415 . S
C454 H444 0.930 . S
C454 C452 1.419 . S
C454 C455 1.362 . S
C455 H445 0.930 . S
C455 C448 1.409 . S
C455 C454 1.362 . S
H456 C462 0.930 . S
H457 C465 0.930 . S
H458 C466 0.930 . S
H459 C467 0.930 . S
H460 C470 0.930 . S
H461 C471 0.930 . S
C462 H456 0.930 . S
C462 C463 1.355 . S
C462 C464 1.415 . S
C463 C462 1.355 . S
C463 C465 1.419 . S
C464 C462 1.415 . S
C464 C469 1.425 . S
C464 C471 1.409 . S
C465 H457 0.930 . S
C465 C463 1.419 . S
C465 C466 1.362 . S
C466 H458 0.930 . S
C466 C465 1.362 . S
C466 C469 1.409 . S
C467 H459 0.930 . S
C467 C468 1.355 . S
C467 C469 1.415 . S
C468 C467 1.355 . S
C468 C470 1.419 . S
C469 C464 1.425 . S
C469 C466 1.409 . S
C469 C467 1.415 . S
C470 H460 0.930 . S
C470 C468 1.419 . S
C470 C471 1.362 . S
C471 H461 0.930 . S
C471 C464 1.409 . S
C471 C470 1.362 . S
H472 C478 0.930 . S
H473 C481 0.930 . S
H474 C482 0.930 . S
H475 C483 0.930 . S
H476 C486 0.930 . S
H477 C487 0.930 . S
C478 H472 0.930 . S
C478 C479 1.355 . S
C478 C480 1.415 . S
C479 C478 1.355 . S
C479 C481 1.419 . S
C480 C478 1.415 . S
C480 C485 1.425 . S
C480 C487 1.409 . S
C481 H473 0.930 . S
C481 C479 1.419 . S
C481 C482 1.362 . S
C482 H474 0.930 . S
C482 C481 1.362 . S
C482 C485 1.409 . S
C483 H475 0.930 . S
C483 C484 1.355 . S
C483 C485 1.415 . S
C484 C483 1.355 . S
C484 C486 1.419 . S
C485 C480 1.425 . S
C485 C482 1.409 . S
C485 C483 1.415 . S
C486 H476 0.930 . S
C486 C484 1.419 . S
C486 C487 1.362 . S
C487 H477 0.930 . S
C487 C480 1.409 . S
C487 C486 1.362 . S
H488 C494 0.930 . S
H489 C497 0.930 . S
H490 C498 0.930 . S
H491 C499 0.930 . S
H492 C502 0.930 . S
H493 C503 0.930 . S
C494 H488 0.930 . S
C494 C495 1.355 . S
C494 C496 1.415 . S
C495 C494 1.355 . S
C495 C497 1.419 . S
C496 C494 1.415 . S
C496 C501 1.425 . S
C496 C503 1.409 . S
C497 H489 0.930 . S
C497 C495 1.419 . S
C497 C498 1.362 . S
C498 H490 0.930 . S
C498 C497 1.362 . S
C498 C501 1.409 . S
C499 H491 0.930 . S
C499 C500 1.355 . S
C499 C501 1.415 . S
C500 C499 1.355 . S
C500 C502 1.419 . S
C501 C496 1.425 . S
C501 C498 1.409 . S
C501 C499 1.415 . S
C502 H492 0.930 . S
C502 C500 1.419 . S
C502 C503 1.362 . S
C503 H493 0.930 . S
C503 C496 1.409 . S
C503 C502 1.362 . S
H504 C510 0.930 . S
H505 C513 0.930 . S
H506 C514 0.930 . S
H507 C515 0.930 . S
H508 C518 0.930 . S
H509 C519 0.930 . S
C510 H504 0.930 . S
C510 C511 1.355 . S
C510 C512 1.415 . S
C511 C510 1.355 . S
C511 C513 1.419 . S
C512 C510 1.415 . S
C512 C517 1.425 . S
C512 C519 1.409 . S
C513 H505 0.930 . S
C513 C511 1.419 . S
C513 C514 1.362 . S
C514 H506 0.930 . S
C514 C513 1.362 . S
C514 C517 1.409 . S
C515 H507 0.930 . S
C515 C516 1.355 . S
C515 C517 1.415 . S
C516 C515 1.355 . S
C516 C518 1.419 . S
C517 C512 1.425 . S
C517 C514 1.409 . S
C517 C515 1.415 . S
C518 H508 0.930 . S
C518 C516 1.419 . S
C518 C519 1.362 . S
C519 H509 0.930 . S
C519 C512 1.409 . S
C519 C518 1.362 . S
H520 C526 0.930 . S
H521 C529 0.930 . S
H522 C530 0.930 . S
H523 C531 0.930 . S
H524 C534 0.930 . S
H525 C535 0.930 . S
C526 H520 0.930 . S
C526 C527 1.355 . S
C526 C528 1.415 . S
C527 C526 1.355 . S
C527 C529 1.419 . S
C528 C526 1.415 . S
C528 C533 1.425 . S
C528 C535 1.409 . S
C529 H521 0.930 . S
C529 C527 1.419 . S
C529 C530 1.362 . S
C530 H522 0.930 . S
C530 C529 1.362 . S
C530 C533 1.409 . S
C531 H523 0.930 . S
C531 C532 1.355 . S
C531 C533 1.415 . S
C532 C531 1.355 . S
C532 C534 1.419 . S
C533 C528 1.425 . S
C533 C530 1.409 . S
C533 C531 1.415 . S
C534 H524 0.930 . S
C534 C532 1.419 . S
C534 C535 1.362 . S
C535 H525 0.930 . S
C535 C528 1.409 . S
C535 C534 1.362 . S
H536 C542 0.930 . S
H537 C545 0.930 . S
H538 C546 0.930 . S
H539 C547 0.930 . S
H540 C550 0.930 . S
H541 C551 0.930 . S
C542 H536 0.930 . S
C542 C543 1.355 . S
C542 C544 1.415 . S
C543 C542 1.355 . S
C543 C545 1.419 . S
C544 C542 1.415 . S
C544 C549 1.425 . S
C544 C551 1.409 . S
C545 H537 0.930 . S
C545 C543 1.419 . S
C545 C546 1.362 . S
C546 H538 0.930 . S
C546 C545 1.362 . S
C546 C549 1.409 . S
C547 H539 0.930 . S
C547 C548 1.355 . S
C547 C549 1.415 . S
C548 C547 1.355 . S
C548 C550 1.419 . S
C549 C544 1.425 . S
C549 C546 1.409 . S
C549 C547 1.415 . S
C550 H540 0.930 . S
C550 C548 1.419 . S
C550 C551 1.362 . S
C551 H541 0.930 . S
C551 C544 1.409 . S
C551 C550 1.362 . S
C175 C4 1.503 . S
C180 C90 1.498 . S
C191 C16 1.540 . S
C196 C109 1.500 . S
C212 C146 1.413 . S
C207 C32 1.446 . S
C223 C43 1.614 . S
C228 C156 1.586 . S
C244 C126 2.192 . S
C239 C5 2.124 . S
C260 C96 1.149 1_565 S
C255 C21 1.194 . S
C276 C167 1.458 . S
C271 C27 1.505 . S
C292 C137 1.374 . S
C287 C37 1.381 . S
C303 C10 1.596 . S
C308 C150 1.574 . S
C324 C117 1.832 . S
C319 C26 1.876 . S
C335 C38 1.583 . S
C340 C107 1.563 . S
C351 C15 1.351 . S
C356 C129 1.315 . S
C372 C89 1.554 . S
C367 C48 1.602 . S
C383 C59 1.405 . S
C388 C110 1.387 . S
C399 C76 1.701 . S
C404 C147 1.665 . S
C415 C87 1.495 . S
C420 C157 1.491 . S
C431 C54 1.651 . S
C436 C127 1.677 1_556 S
C452 C97 1.742 . S
C447 C60 1.818 . S
C468 C166 1.389 . S
C463 C71 1.433 . S
C484 C136 1.341 . S
C479 C82 1.365 . S
C495 C49 1.745 . S
C500 C149 1.823 . S
C516 C116 1.476 . S
C511 C70 1.498 . S
C532 C106 1.867 . S
C527 C81 1.872 . S
C543 C65 1.288 . S
C548 C130 1.300 . S
