# Generated by pormake.
# Topology pth, (4,4)-cn, num edge types: 1
# Building blocks:
#     Node 0, Type 0, BuildingBlock: QUQFOY_clean_sbu_3, # of connection points: 4
#     Node 1, Type 0, BuildingBlock: QUQFOY_clean_sbu_3, # of connection points: 4
#     Node 2, Type 0, BuildingBlock: QUQFOY_clean_sbu_3, # of connection points: 4
#     Node 3, Type 1, BuildingBlock: MIFKUJ_clean_linker_1, # of connection points: 4
#     Node 4, Type 1, BuildingBlock: MIFKUJ_clean_linker_1, # of connection points: 4
#     Node 5, Type 1, BuildingBlock: MIFKUJ_clean_linker_1, # of connection points: 4
#     Edge 6, Type (0, 1), BuildingBlock: KIFKEQ_clean_linker_1, # of connection points: 2
#     Edge 7, Type (0, 1), BuildingBlock: KIFKEQ_clean_linker_1, # of connection points: 2
#     Edge 8, Type (0, 1), BuildingBlock: KIFKEQ_clean_linker_1, # of connection points: 2
#     Edge 9, Type (0, 1), BuildingBlock: KIFKEQ_clean_linker_1, # of connection points: 2
#     Edge 10, Type (0, 1), BuildingBlock: KIFKEQ_clean_linker_1, # of connection points: 2
#     Edge 11, Type (0, 1), BuildingBlock: KIFKEQ_clean_linker_1, # of connection points: 2
#     Edge 12, Type (0, 1), BuildingBlock: KIFKEQ_clean_linker_1, # of connection points: 2
#     Edge 13, Type (0, 1), BuildingBlock: KIFKEQ_clean_linker_1, # of connection points: 2
#     Edge 14, Type (0, 1), BuildingBlock: KIFKEQ_clean_linker_1, # of connection points: 2
#     Edge 15, Type (0, 1), BuildingBlock: KIFKEQ_clean_linker_1, # of connection points: 2
#     Edge 16, Type (0, 1), BuildingBlock: KIFKEQ_clean_linker_1, # of connection points: 2
#     Edge 17, Type (0, 1), BuildingBlock: KIFKEQ_clean_linker_1, # of connection points: 2
# Relax obj value: 0.016
# Max RMSD: 0.073
# Mean RMSD: 0.058
data_MOF--net-pth--node1-QUQFOY_clean_sbu_3--node2-MIFKUJ_clean_linker_1--edge1-KIFKEQ_clean_linker_1
_symmetry_space_group_name_H-M    P1
_symmetry_Int_Tables_number       1
_symmetry_cell_setting            triclinic
loop_
_symmetry_equiv_pos_as_xyz
'x, y, z'
_cell_length_a     30.372962
_cell_length_b     30.150276
_cell_length_c     67.12055
_cell_angle_alpha  90.028613
_cell_angle_beta   90.521019
_cell_angle_gamma 120.62675
loop_
_atom_site_label
_atom_site_type_symbol
_atom_site_fract_x
_atom_site_fract_y
_atom_site_fract_z
_atom_type_partial_charge
C0 C 0.97905 0.12502 0.06232 0.0
O1 O 0.94823 0.11688 0.048 0.0
Cd2 Cd 0.94683 0.07235 0.01833 0.0
O3 O 0.00662 0.10426 0.06246 0.0
Cd4 Cd 0.0158 0.0393 0.04246 0.0
C5 C 0.07628 0.13094 0.00781 0.0
O6 O 0.92967 0.98899 0.028 0.0
O7 O 0.98787 0.97806 0.01467 0.0
O8 O 0.00016 0.98998 0.07282 0.0
C9 C 0.9411 0.96495 0.01551 0.0
O10 O 0.03209 0.12426 0.00405 0.0
C11 C 0.03959 0.98579 0.07194 0.0
O12 O 0.08284 0.10581 0.02163 0.0
O13 O 0.0695 0.0079 0.05742 0.0
C14 C 0.1234 0.0874 0.39918 0.0
O15 O 0.14865 0.12363 0.38701 0.0
Cd16 Cd 0.10962 0.12644 0.35616 0.0
O17 O 0.07535 0.05747 0.39689 0.0
Cd18 Cd 0.00485 0.05148 0.37562 0.0
C19 C 0.04351 -0.00255 0.34177 0.0
O20 O 0.03958 0.13883 0.36261 0.0
O21 O 0.97663 0.0775 0.34599 0.0
O22 O 0.96753 0.06859 0.40402 0.0
C23 C 0.00696 0.1255 0.34853 0.0
O24 O 0.08062 0.04343 0.33954 0.0
C25 C 0.92481 0.02675 0.40339 0.0
O26 O 0.00926 0.98729 0.35475 0.0
O27 O 0.9189 -0.00554 0.38987 0.0
C28 C 0.93495 0.07577 0.68423 0.0
O29 O 0.94177 0.10499 0.699 0.0
Cd30 Cd -0.00651 0.11229 0.72741 0.0
O31 O 0.95901 0.05142 0.68328 0.0
Cd32 Cd 0.02465 0.04359 0.70301 0.0
C33 C 0.93737 0.98317 0.73896 0.0
O34 O 0.07631 0.13046 0.71735 0.0
O35 O 0.08373 0.06994 0.73123 0.0
O36 O 0.07457 0.06035 0.67295 0.0
C37 C 0.0991 0.1176 0.73 0.0
O38 O 0.94634 0.02823 0.74323 0.0
C39 C 0.07841 0.02043 0.67385 0.0
O40 O 0.95862 0.97577 0.72403 0.0
O41 O 0.05561 0.98964 0.68813 0.0
H42 H 0.10944 0.51479 0.17734 0.0
H43 H 0.10004 0.44317 0.15655 0.0
H44 H 0.93978 0.35464 0.17111 0.0
H45 H 0.9496 0.4256 0.19231 0.0
H46 H 0.04894 0.56565 0.17222 0.0
H47 H 0.08864 0.47309 0.21936 0.0
H48 H 0.0805 0.4027 0.24007 0.0
H49 H 0.94486 0.38799 0.26674 0.0
H50 H 0.95229 0.45755 0.24561 0.0
H51 H 0.96045 0.59095 0.24397 0.0
H52 H 0.96069 0.65768 0.26468 0.0
H53 H 0.10875 0.76952 0.24154 0.0
H54 H 0.10913 0.70206 0.22145 0.0
H55 H 0.02216 0.55353 0.24524 0.0
H56 H 0.97814 0.64129 0.1968 0.0
H57 H 0.98645 0.71306 0.177 0.0
H58 H 0.12852 0.73707 0.15308 0.0
H59 H 0.12019 0.66533 0.17308 0.0
C60 C 0.03024 0.47526 0.18636 0.0
C61 C 0.07246 0.47973 0.17618 0.0
C62 C 0.06713 0.4389 0.16443 0.0
C63 C 0.01922 0.39366 0.16232 0.0
C64 C 0.97705 0.38925 0.17255 0.0
C65 C 0.98264 0.42958 0.18463 0.0
C66 C 0.03518 0.51891 0.19826 0.0
C67 C 0.04392 0.56349 0.18825 0.0
C68 C 0.02731 0.5152 0.21906 0.0
C69 C 0.02072 0.47032 0.23071 0.0
C70 C 0.05639 0.45393 0.22928 0.0
C71 C 0.05186 0.41384 0.24119 0.0
C72 C 0.0121 0.38997 0.25503 0.0
C73 C 0.97616 0.40604 0.25633 0.0
C74 C 0.98035 0.44571 0.24425 0.0
C75 C 0.03462 0.64151 0.23106 0.0
C76 C -0.007 0.62986 0.24338 0.0
C77 C -0.00702 0.66817 0.25508 0.0
C78 C 0.0347 0.71901 0.25476 0.0
C79 C 0.07625 0.73065 0.24231 0.0
C80 C 0.0763 0.69224 0.23065 0.0
C81 C 0.03488 0.60005 0.2192 0.0
C82 C 0.02724 0.55585 0.22922 0.0
C83 C 0.04337 0.60399 0.19839 0.0
C84 C 0.04889 0.6483 0.18665 0.0
C85 C 0.01149 0.66246 0.18754 0.0
C86 C 0.01629 0.70354 0.1762 0.0
C87 C 0.05829 0.73093 0.16354 0.0
C88 C 0.09555 0.7165 0.16258 0.0
C89 C 0.09087 0.67558 0.17402 0.0
H90 H 0.59936 0.06912 0.50543 0.0
H91 H 0.66689 0.06818 0.48595 0.0
H92 H 0.61502 0.913 0.50543 0.0
H93 H 0.54832 0.91459 0.52548 0.0
H94 H 0.49137 -0.00049 0.50255 0.0
H95 H 0.62942 0.06314 0.54754 0.0
H96 H 0.69958 0.07173 0.56838 0.0
H97 H 0.59379 0.93401 0.60016 0.0
H98 H 0.52357 0.92496 0.57894 0.0
H99 H 0.38417 0.92063 0.57581 0.0
H100 H 0.31756 0.92105 0.59585 0.0
H101 H 0.358 0.06997 0.57193 0.0
H102 H 0.4248 0.0694 0.55196 0.0
H103 H 0.48716 0.98738 0.57623 0.0
H104 H 0.34528 0.94415 0.53069 0.0
H105 H 0.286 0.96141 0.51259 0.0
H106 H 0.41303 0.0827 0.48022 0.0
H107 H 0.47199 0.06965 0.50022 0.0
C108 C 0.56909 0.99201 0.51692 0.0
C109 C 0.60259 0.03495 0.50553 0.0
C110 C 0.6411 0.03445 0.4945 0.0
C111 C 0.64585 0.99052 0.49428 0.0
C112 C 0.61184 0.9472 0.5054 0.0
C113 C 0.574 0.94815 0.51683 0.0
C114 C 0.52876 0.99312 0.52876 0.0
C115 C 0.49041 -0.00271 0.51869 0.0
C116 C 0.52808 0.99023 0.54976 0.0
C117 C 0.57121 0.99288 0.56141 0.0
C118 C 0.62142 0.03389 0.55858 0.0
C119 C 0.66156 0.03892 0.57058 0.0
C120 C 0.65222 0.00352 0.58589 0.0
C121 C 0.60207 0.9621 0.58856 0.0
C122 C 0.56197 0.95682 0.57643 0.0
C123 C 0.40907 -0.00532 0.56221 0.0
C124 C 0.37879 0.95345 0.57493 0.0
C125 C 0.3408 0.95379 0.58641 0.0
C126 C 0.33235 -0.00455 0.58542 0.0
C127 C 0.36303 0.03695 0.57278 0.0
C128 C 0.40128 0.03673 0.5614 0.0
C129 C 0.44911 0.99356 0.55005 0.0
C130 C 0.48751 0.98913 0.56008 0.0
C131 C 0.45091 -0.00151 0.529 0.0
C132 C 0.4135 0.00637 0.51728 0.0
C133 C 0.36047 0.97544 0.5201 0.0
C134 C 0.32632 0.98479 0.50935 0.0
C135 C 0.34418 0.02392 0.49486 0.0
C136 C 0.39729 0.05341 0.49161 0.0
C137 C 0.43136 0.04527 0.50285 0.0
H138 H 0.4952 0.43083 0.83569 0.0
H139 H 0.42909 0.36605 0.81381 0.0
H140 H 0.3169 0.39417 0.84096 0.0
H141 H 0.38382 0.4611 0.86186 0.0
H142 H 0.53034 0.52984 0.8365 0.0
H143 H 0.45966 0.39836 0.88955 0.0
H144 H 0.39099 0.33266 0.91028 0.0
H145 H 0.34068 0.43971 0.92384 0.0
H146 H 0.41007 0.5056 0.90362 0.0
H147 H 0.55102 0.64188 0.90927 0.0
H148 H 0.61574 0.71001 0.9306 0.0
H149 H 0.73072 0.68153 0.90664 0.0
H150 H 0.66575 0.61346 0.88526 0.0
H151 H 0.51838 0.54255 0.90968 0.0
H152 H 0.5968 0.67752 0.86226 0.0
H153 H 0.66221 0.74515 0.84162 0.0
H154 H 0.69353 0.63384 0.81479 0.0
H155 H 0.62952 0.56674 0.83617 0.0
C156 C 0.44449 0.45045 0.85064 0.0
C157 C 0.45631 0.42288 0.83697 0.0
C158 C 0.4183 0.3855 0.82457 0.0
C159 C 0.36751 0.37473 0.8256 0.0
C160 C 0.35565 0.40183 0.83956 0.0
C161 C 0.3938 0.43957 0.85181 0.0
C162 C 0.4858 0.49308 0.86257 0.0
C163 C 0.52834 0.53212 0.85257 0.0
C164 C 0.48231 0.49711 0.8834 0.0
C165 C 0.43966 0.45662 0.89505 0.0
C166 C 0.4337 0.40751 0.89696 0.0
C167 C 0.39477 0.37023 0.90882 0.0
C168 C 0.36074 0.38134 0.91856 0.0
C169 C 0.36634 0.43026 0.91636 0.0
C170 C 0.40589 0.46782 0.9049 0.0
C171 C 0.60354 0.62269 0.89561 0.0
C172 C 0.59021 0.65044 0.90856 0.0
C173 C 0.6272 0.68924 0.92079 0.0
C174 C 0.67832 0.701 0.92039 0.0
C175 C 0.6918 0.6738 0.90714 0.0
C176 C 0.6547 0.63487 0.89491 0.0
C177 C 0.56332 0.57929 0.88364 0.0
C178 C 0.52091 0.54012 0.89364 0.0
C179 C 0.56699 0.5754 0.86277 0.0
C180 C 0.60859 0.6171 0.85095 0.0
C181 C 0.61843 0.66783 0.85223 0.0
C182 C 0.6554 0.70636 0.8402 0.0
C183 C 0.68296 0.6949 0.82644 0.0
C184 C 0.67345 0.64416 0.82536 0.0
C185 C 0.63659 0.60567 0.83747 0.0
H186 H 0.90512 0.14204 0.07626 0.0
H187 H 0.06352 0.18732 0.08506 0.0
H188 H 0.91329 0.20296 0.10182 0.0
H189 H 0.07318 0.25115 0.1097 0.0
H190 H 0.06849 0.33921 0.16363 0.0
H191 H 0.05688 0.27025 0.14111 0.0
H192 H 0.94589 0.28922 0.10702 0.0
H193 H 0.9554 0.3553 0.13038 0.0
C194 C 0.94185 0.16539 0.08363 0.0
C195 C 0.98372 0.16011 0.07864 0.0
C196 C 0.94678 0.20079 0.09818 0.0
C197 C -0.00584 0.23294 0.10776 0.0
C198 C 0.03585 0.22681 0.10296 0.0
C199 C 0.0305 0.19038 0.08872 0.0
C200 C 0.04144 0.32808 0.15135 0.0
C201 C 0.01259 0.35209 0.14872 0.0
C202 C 0.03496 0.28886 0.13832 0.0
C203 C 0.00028 0.27367 0.12213 0.0
C204 C 0.97193 0.29851 0.11953 0.0
C205 C 0.9776 0.33678 0.13281 0.0
H206 H 0.83836 0.93519 0.41286 0.0
H207 H 0.91836 0.09857 0.42535 0.0
H208 H 0.77154 0.92229 0.43625 0.0
H209 H 0.85103 0.08655 0.44762 0.0
H210 H 0.74822 0.05294 0.4991 0.0
H211 H 0.81591 0.05719 0.47851 0.0
H212 H 0.70194 0.93418 0.44128 0.0
H213 H 0.63471 0.92822 0.46287 0.0
C214 C 0.84147 0.96831 0.42052 0.0
C215 C 0.88374 0.0178 0.41738 0.0
C216 C 0.80305 0.96105 0.43385 0.0
C217 C 0.80577 0.0033 0.44405 0.0
C218 C 0.848 0.05277 0.4406 0.0
C219 C 0.8866 0.05981 0.42763 0.0
C220 C 0.73798 0.02654 0.48662 0.0
C221 C 0.68656 0.99045 0.48244 0.0
C222 C 0.77661 0.02917 0.47467 0.0
C223 C 0.76464 -0.00337 0.45791 0.0
C224 C 0.71291 0.95953 0.45411 0.0
C225 C 0.67429 0.95622 0.46637 0.0
H226 H 0.91155 0.88144 0.73677 0.0
H227 H 0.88057 0.98583 0.76961 0.0
H228 H 0.84989 0.80998 0.7574 0.0
H229 H 0.8199 0.91502 0.79009 0.0
H230 H 0.67342 0.76945 0.80717 0.0
H231 H 0.73497 0.8372 0.78562 0.0
H232 H 0.83829 0.77953 0.79293 0.0
H233 H 0.7768 0.71178 0.81479 0.0
C234 C 0.89178 0.8892 0.74837 0.0
C235 C 0.90094 0.93938 0.75146 0.0
C236 C 0.85668 0.84835 0.76022 0.0
C237 C 0.82982 0.85686 0.77527 0.0
C238 C 0.83936 0.90705 0.77842 0.0
C239 C 0.87447 0.94774 0.76671 0.0
C240 C 0.70945 0.77143 0.80438 0.0
C241 C 0.72035 0.73545 0.81291 0.0
C242 C 0.74466 0.81018 0.79196 0.0
C243 C 0.79162 0.81388 0.78768 0.0
C244 C 0.80222 0.77735 0.79582 0.0
C245 C 0.767 0.73859 0.80835 0.0
H246 H 0.11758 0.96483 0.07311 0.0
H247 H 0.98087 0.93498 0.10388 0.0
H248 H 0.12782 0.90793 0.09621 0.0
H249 H 0.99035 0.87754 0.12653 0.0
H250 H 0.04022 0.80765 0.17439 0.0
H251 H 0.04152 0.87416 0.15332 0.0
H252 H 0.08602 0.81636 0.10317 0.0
H253 H 0.08522 0.75023 0.12432 0.0
C254 C 0.08992 0.9464 0.08486 0.0
C255 C 0.04838 0.95437 0.08663 0.0
C256 C 0.09558 0.91353 0.09801 0.0
C257 C 0.05986 0.88803 0.11323 0.0
C258 C 0.01903 0.89706 0.11521 0.0
C259 C 0.0134 0.92981 0.1021 0.0
C260 C 0.05032 0.80921 0.15887 0.0
C261 C 0.06228 0.77345 0.151 0.0
C262 C 0.05106 0.84731 0.14678 0.0
C263 C 0.06355 0.85045 0.12649 0.0
C264 C 0.07689 0.81554 0.11877 0.0
C265 C 0.07633 0.77754 0.13089 0.0
H266 H 0.19399 0.15719 0.42516 0.0
H267 H 0.11424 -0.00385 0.40916 0.0
H268 H 0.24183 0.14188 0.45079 0.0
H269 H 0.16528 0.98095 0.43318 0.0
H270 H 0.24372 0.955 0.48394 0.0
H271 H 0.18648 0.97092 0.46419 0.0
H272 H 0.3072 0.1295 0.45656 0.0
H273 H 0.36157 0.11546 0.47863 0.0
C274 C 0.18713 0.11851 0.42712 0.0
C275 C 0.15056 0.07781 0.41532 0.0
C276 C 0.21499 0.10961 0.44165 0.0
C277 C 0.20845 0.06011 0.44414 0.0
C278 C 0.17113 0.01939 0.43227 0.0
C279 C 0.14197 0.02804 0.41829 0.0
C280 C 0.25779 -0.00627 0.4786 0.0
C281 C 0.30804 0.03367 0.48293 0.0
C282 C 0.22499 0.00269 0.46676 0.0
C283 C 0.24183 0.05145 0.45828 0.0
C284 C 0.29185 0.09149 0.46286 0.0
C285 C 0.32396 0.083 0.47526 0.0
H286 H 0.14021 0.09782 0.76264 0.0
H287 H 0.1469 0.22276 0.7287 0.0
H288 H 0.20375 0.15949 0.78593 0.0
H289 H 0.21215 0.28483 0.75159 0.0
H290 H 0.28945 0.38022 0.80719 0.0
H291 H 0.22413 0.3179 0.78459 0.0
H292 H 0.29173 0.22206 0.78891 0.0
H293 H 0.35497 0.2827 0.81253 0.0
C294 C 0.15562 0.13855 0.76006 0.0
C295 C 0.13853 0.15545 0.74384 0.0
C296 C 0.19235 0.17399 0.77336 0.0
C297 C 0.2133 0.22725 0.77066 0.0
C298 C 0.19631 0.24411 0.75433 0.0
C299 C 0.15916 0.20858 0.74112 0.0
C300 C 0.28991 0.34544 0.8036 0.0
C301 C 0.32749 0.33649 0.81179 0.0
C302 C 0.25286 0.31003 0.79036 0.0
C303 C 0.25264 0.26493 0.78483 0.0
C304 C 0.29025 0.25601 0.793 0.0
C305 C 0.32704 0.29121 0.80637 0.0
H306 H 0.86792 0.11091 0.68424 0.0
H307 H 0.91431 0.02169 0.64912 0.0
H308 H 0.80059 0.09267 0.65998 0.0
H309 H 0.84652 0.00336 0.62485 0.0
H310 H 0.75026 0.02971 0.57669 0.0
H311 H 0.8205 0.04843 0.59983 0.0
H312 H 0.71883 0.01451 0.64945 0.0
H313 H 0.64904 -0.00338 0.62642 0.0
C314 C 0.86402 0.08767 0.67129 0.0
C315 C 0.89646 0.06761 0.66868 0.0
C316 C 0.82516 0.07693 0.65746 0.0
C317 C 0.81799 0.04621 0.64062 0.0
C318 C 0.85127 0.02732 0.63766 0.0
C319 C 0.88997 0.03771 0.6516 0.0
C320 C 0.74301 0.02624 0.59255 0.0
C321 C 0.69415 0.0117 0.59974 0.0
C322 C 0.78308 0.03662 0.60577 0.0
C323 C 0.77522 0.03324 0.62644 0.0
C324 C 0.7262 0.01804 0.6336 0.0
C325 C 0.68609 0.00722 0.6204 0.0
H326 H 0.8397 0.93409 0.01237 0.0
H327 H 0.9554 0.90843 0.98724 0.0
H328 H 0.77652 0.87136 0.98909 0.0
H329 H 0.892 0.84493 0.96424 0.0
H330 H 0.77724 0.77523 0.91232 0.0
H331 H 0.84073 0.83928 0.93522 0.0
H332 H 0.73025 0.77928 0.98262 0.0
H333 H 0.66689 0.71551 0.95975 0.0
C334 C 0.85158 0.91486 0.00194 0.0
C335 C 0.90254 0.92621 0.00165 0.0
C336 C 0.81532 0.87873 0.98866 0.0
C337 C 0.8292 0.85311 0.97479 0.0
C338 C 0.8802 0.86448 0.97454 0.0
C339 C 0.91646 0.90062 0.98781 0.0
C340 C 0.76666 0.77558 0.92766 0.0
C341 C 0.71699 0.7404 0.9342 0.0
C342 C 0.80302 0.81223 0.94079 0.0
C343 C 0.79055 0.81444 0.96076 0.0
C344 C 0.74086 0.77922 0.96727 0.0
C345 C 0.70454 0.74266 0.95415 0.0
H346 H 0.11307 0.00552 0.31439 0.0
H347 H 0.96838 0.89511 0.34045 0.0
H348 H 0.10985 0.93797 0.29357 0.0
H349 H 0.96562 0.82712 0.31965 0.0
H350 H 0.95525 0.73476 0.26275 0.0
H351 H 0.95632 0.80083 0.28413 0.0
H352 H 0.11637 0.86071 0.29731 0.0
H353 H 0.11528 0.79454 0.27612 0.0
C354 C 0.08057 0.9668 0.31574 0.0
C355 C 0.04098 0.9558 0.32915 0.0
C356 C 0.07892 0.92798 0.30386 0.0
C357 C 0.03761 0.87714 0.30502 0.0
C358 C -0.00223 0.86604 0.3183 0.0
C359 C -0.0005 0.90494 0.33029 0.0
C360 C 0.99056 0.76174 0.27035 0.0
C361 C 0.03525 0.75945 0.26765 0.0
C362 C -0.00887 0.79956 0.28261 0.0
C363 C 0.03644 0.83607 0.29238 0.0
C364 C 0.08104 0.83364 0.28974 0.0
C365 C 0.08044 0.79578 0.27755 0.0
H366 H 0.09636 0.94006 0.67222 0.0
H367 H 0.13372 0.08278 0.64324 0.0
H368 H 0.15426 0.93048 0.64997 0.0
H369 H 0.19234 0.07402 0.62146 0.0
H370 H 0.26343 0.02383 0.57409 0.0
H371 H 0.19803 0.02555 0.59435 0.0
H372 H 0.24506 0.96996 0.64481 0.0
H373 H 0.30992 0.96767 0.62446 0.0
C374 C 0.11671 0.96923 0.66105 0.0
C375 C 0.11048 0.0122 0.65953 0.0
C376 C 0.15018 0.96396 0.64839 0.0
C377 C 0.17821 0.0016 0.63395 0.0
C378 C 0.17096 0.04392 0.63219 0.0
C379 C 0.13748 0.0491 0.64479 0.0
C380 C 0.25987 0.01216 0.58953 0.0
C381 C 0.29197 -0.00424 0.59768 0.0
C382 C 0.22238 0.01311 0.60116 0.0
C383 C 0.21624 -0.00205 0.62125 0.0
C384 C 0.24805 0.98106 0.62932 0.0
C385 C 0.28539 0.9799 0.61766 0.0
H386 H 0.08674 0.21522 0.98882 0.0
H387 H 0.1642 0.13062 -0.00062 0.0
H388 H 0.15633 0.27519 0.96782 0.0
H389 H 0.2329 0.18889 0.9773 0.0
H390 H 0.37063 0.3307 0.95032 0.0
H391 H 0.30347 0.271 0.97266 0.0
H392 H 0.19095 0.28296 0.93671 0.0
H393 H 0.25876 0.34483 0.9153 0.0
C394 C 0.1186 0.20924 0.98649 0.0
C395 C 0.11997 0.16816 -0.00431 0.0
C396 C 0.15842 0.2434 0.97426 0.0
C397 C 0.20023 0.23673 0.97051 0.0
C398 C 0.20181 0.19581 0.97996 0.0
C399 C 0.16232 0.16219 0.99257 0.0
C400 C 0.33139 0.32022 0.94727 0.0
C401 C 0.31969 0.34238 0.93123 0.0
C402 C 0.29279 0.28583 0.95999 0.0
C403 C 0.2415 0.2722 0.95669 0.0
C404 C 0.22998 0.29345 0.94016 0.0
C405 C 0.26869 0.32857 0.92773 0.0
H406 H 0.95476 0.10736 0.31328 0.0
H407 H 0.05841 0.23019 0.35294 0.0
H408 H 0.95497 0.17075 0.29055 0.0
H409 H 0.0584 0.29348 0.33021 0.0
H410 H -0.0026 0.38317 0.29518 0.0
H411 H -0.00492 0.31858 0.31783 0.0
H412 H 0.01906 0.24221 0.26826 0.0
H413 H 0.02106 0.30672 0.24556 0.0
C414 C 0.9775 0.14787 0.31716 0.0
C415 C 0.00659 0.16382 0.3349 0.0
C416 C 0.9778 0.18411 0.3041 0.0
C417 C 0.00669 0.23699 0.30863 0.0
C418 C 0.03544 0.25292 0.32644 0.0
C419 C 0.03562 0.21672 0.33939 0.0
C420 C 0.00172 0.35232 0.28911 0.0
C421 C 0.00932 0.34987 0.26861 0.0
C422 C 0.00086 0.31567 0.30209 0.0
C423 C 0.007 0.27548 0.2948 0.0
C424 C 0.01391 0.27261 0.27426 0.0
C425 C 0.01539 0.30965 0.26131 0.0
loop_
_geom_bond_atom_site_label_1
_geom_bond_atom_site_label_2
_geom_bond_distance
_geom_bond_site_symmetry_2
_ccdc_geom_bond_type
C0 O1 1.306 1_455 S
C0 O3 1.160 . S
O1 C0 1.306 1_655 S
O1 Cd2 2.228 . S
Cd2 O1 2.228 . S
Cd2 O6 2.273 . S
Cd2 O10 2.277 1_655 S
O3 C0 1.160 . S
O3 Cd4 2.203 . S
Cd4 O3 2.203 . S
Cd4 O6 2.411 1_455 S
Cd4 O7 2.333 1_445 S
Cd4 O8 2.354 1_545 S
Cd4 O12 2.277 . S
Cd4 O13 2.356 1_545 S
C5 O10 1.209 . S
C5 O12 1.226 . S
O6 Cd2 2.273 . S
O6 Cd4 2.411 1_655 S
O6 C9 1.320 1_545 S
O7 Cd4 2.333 1_665 S
O7 C9 1.214 . S
O8 Cd4 2.354 1_565 S
O8 C11 1.280 . S
C9 O6 1.320 1_565 S
C9 O7 1.214 . S
O10 Cd2 2.277 1_455 S
O10 C5 1.209 . S
C11 O8 1.280 . S
C11 O13 1.282 . S
O12 Cd4 2.277 . S
O12 C5 1.226 . S
O13 Cd4 2.356 1_565 S
O13 C11 1.282 . S
C14 O15 1.306 . S
C14 O17 1.160 . S
O15 C14 1.306 . S
O15 Cd16 2.228 . S
Cd16 O15 2.228 . S
Cd16 O20 2.273 . S
Cd16 O24 2.277 . S
O17 C14 1.160 . S
O17 Cd18 2.203 . S
Cd18 O17 2.203 . S
Cd18 O20 2.411 . S
Cd18 O21 2.333 1_455 S
Cd18 O22 2.352 1_455 S
Cd18 O26 2.277 1_445 S
Cd18 O27 2.356 1_445 S
C19 O24 1.209 1_565 S
C19 O26 1.226 1_455 S
O20 Cd16 2.273 . S
O20 Cd18 2.411 . S
O20 C23 1.320 . S
O21 Cd18 2.333 1_655 S
O21 C23 1.214 1_655 S
O22 Cd18 2.352 1_655 S
O22 C25 1.258 . S
C23 O20 1.320 . S
C23 O21 1.214 1_455 S
O24 Cd16 2.277 . S
O24 C19 1.209 1_545 S
C25 O22 1.258 . S
C25 O27 1.282 1_545 S
O26 Cd18 2.277 1_665 S
O26 C19 1.226 1_655 S
O27 Cd18 2.356 1_665 S
O27 C25 1.282 1_565 S
C28 O29 1.306 . S
C28 O31 1.160 . S
O29 C28 1.306 . S
O29 Cd30 2.228 . S
Cd30 O29 2.228 . S
Cd30 O34 2.273 1_655 S
Cd30 O38 2.277 . S
O31 C28 1.160 . S
O31 Cd32 2.203 1_655 S
Cd32 O31 2.203 1_455 S
Cd32 O34 2.411 . S
Cd32 O35 2.333 . S
Cd32 O36 2.352 . S
Cd32 O40 2.277 1_445 S
Cd32 O41 2.347 1_545 S
C33 O38 1.209 1_565 S
C33 O40 1.226 . S
O34 Cd30 2.273 1_455 S
O34 Cd32 2.411 . S
O34 C37 1.320 . S
O35 Cd32 2.333 . S
O35 C37 1.214 . S
O36 Cd32 2.352 . S
O36 C39 1.258 . S
C37 O34 1.320 . S
C37 O35 1.214 . S
O38 Cd30 2.277 . S
O38 C33 1.209 1_545 S
C39 O36 1.258 . S
C39 O41 1.275 1_545 S
O40 Cd32 2.277 1_665 S
O40 C33 1.226 . S
O41 Cd32 2.347 1_565 S
O41 C39 1.275 1_565 S
H42 C61 0.949 . S
H43 C62 0.950 . S
H44 C64 0.950 1_655 S
H45 C65 0.950 1_655 S
H46 C67 0.950 . S
H47 C70 0.950 . S
H48 C71 0.950 . S
H49 C73 0.951 . S
H50 C74 0.949 . S
H51 C76 0.949 . S
H52 C77 0.950 . S
H53 C79 0.950 . S
H54 C80 0.950 . S
H55 C82 0.950 . S
H56 C85 0.950 1_655 S
H57 C86 0.950 1_655 S
H58 C88 0.951 . S
H59 C89 0.949 . S
C60 C61 1.376 . S
C60 C65 1.386 . S
C60 C66 1.483 . S
C61 H42 0.949 . S
C61 C60 1.376 . S
C61 C62 1.397 . S
C62 H43 0.950 . S
C62 C61 1.397 . S
C62 C63 1.391 . S
C63 C62 1.391 . S
C63 C64 1.405 . S
C64 H44 0.950 1_455 S
C64 C63 1.405 . S
C64 C65 1.367 . S
C65 H45 0.950 1_455 S
C65 C60 1.386 . S
C65 C64 1.367 . S
C66 C60 1.483 . S
C66 C67 1.382 . S
C66 C68 1.403 . S
C67 H46 0.950 . S
C67 C66 1.382 . S
C67 C83 1.411 . S
C68 C66 1.403 . S
C68 C69 1.489 . S
C68 C82 1.411 . S
C69 C68 1.489 . S
C69 C70 1.383 . S
C69 C74 1.382 1_455 S
C70 H47 0.950 . S
C70 C69 1.383 . S
C70 C71 1.395 . S
C71 H48 0.950 . S
C71 C70 1.395 . S
C71 C72 1.288 . S
C72 C71 1.288 . S
C72 C73 1.392 1_455 S
C73 H49 0.951 . S
C73 C72 1.392 1_655 S
C73 C74 1.392 . S
C74 H50 0.949 . S
C74 C69 1.382 1_655 S
C74 C73 1.392 . S
C75 C76 1.376 1_455 S
C75 C80 1.386 . S
C75 C81 1.483 . S
C76 H51 0.949 . S
C76 C75 1.376 1_655 S
C76 C77 1.397 . S
C77 H52 0.950 . S
C77 C76 1.397 . S
C77 C78 1.391 1_655 S
C78 C77 1.391 1_455 S
C78 C79 1.405 . S
C79 H53 0.950 . S
C79 C78 1.405 . S
C79 C80 1.367 . S
C80 H54 0.950 . S
C80 C75 1.386 . S
C80 C79 1.367 . S
C81 C75 1.483 . S
C81 C82 1.382 . S
C81 C83 1.403 . S
C82 H55 0.950 . S
C82 C68 1.411 . S
C82 C81 1.382 . S
C83 C67 1.411 . S
C83 C81 1.403 . S
C83 C84 1.489 . S
C84 C83 1.489 . S
C84 C85 1.383 . S
C84 C89 1.382 . S
C85 H56 0.950 1_455 S
C85 C84 1.383 . S
C85 C86 1.395 . S
C86 H57 0.950 1_455 S
C86 C85 1.395 . S
C86 C87 1.288 . S
C87 C86 1.288 . S
C87 C88 1.392 . S
C88 H58 0.951 . S
C88 C87 1.392 . S
C88 C89 1.392 . S
C89 H59 0.949 . S
C89 C84 1.382 . S
C89 C88 1.392 . S
H90 C109 0.949 . S
H91 C110 0.950 . S
H92 C112 0.950 . S
H93 C113 0.950 1_565 S
H94 C115 0.950 . S
H95 C118 0.950 . S
H96 C119 0.950 . S
H97 C121 0.951 . S
H98 C122 0.949 . S
H99 C124 0.949 . S
H100 C125 0.950 . S
H101 C127 0.950 . S
H102 C128 0.950 . S
H103 C130 0.950 . S
H104 C133 0.950 1_565 S
H105 C134 0.950 1_565 S
H106 C136 0.951 . S
H107 C137 0.949 . S
C108 C109 1.376 . S
C108 C113 1.386 . S
C108 C114 1.483 . S
C109 H90 0.949 . S
C109 C108 1.376 . S
C109 C110 1.397 . S
C110 H91 0.950 . S
C110 C109 1.397 . S
C110 C111 1.391 . S
C111 C110 1.391 . S
C111 C112 1.405 1_545 S
C112 H92 0.950 . S
C112 C111 1.405 1_565 S
C112 C113 1.367 1_565 S
C113 H93 0.950 1_545 S
C113 C108 1.386 . S
C113 C112 1.367 1_545 S
C114 C108 1.483 . S
C114 C115 1.382 . S
C114 C116 1.403 . S
C115 H94 0.950 . S
C115 C114 1.382 . S
C115 C131 1.411 . S
C116 C114 1.403 . S
C116 C117 1.489 . S
C116 C130 1.411 . S
C117 C116 1.489 . S
C117 C118 1.383 . S
C117 C122 1.382 1_545 S
C118 H95 0.950 . S
C118 C117 1.383 . S
C118 C119 1.395 . S
C119 H96 0.950 . S
C119 C118 1.395 . S
C119 C120 1.288 . S
C120 C119 1.288 . S
C120 C121 1.392 1_545 S
C121 H97 0.951 . S
C121 C120 1.392 1_565 S
C121 C122 1.392 . S
C122 H98 0.949 . S
C122 C117 1.382 1_565 S
C122 C121 1.392 . S
C123 C124 1.376 1_545 S
C123 C128 1.386 . S
C123 C129 1.483 . S
C124 H99 0.949 . S
C124 C123 1.376 1_565 S
C124 C125 1.397 . S
C125 H100 0.950 . S
C125 C124 1.397 . S
C125 C126 1.391 1_565 S
C126 C125 1.391 1_545 S
C126 C127 1.405 . S
C127 H101 0.950 . S
C127 C126 1.405 . S
C127 C128 1.367 . S
C128 H102 0.950 . S
C128 C123 1.386 . S
C128 C127 1.367 . S
C129 C123 1.483 . S
C129 C130 1.382 . S
C129 C131 1.403 . S
C130 H103 0.950 . S
C130 C116 1.411 . S
C130 C129 1.382 . S
C131 C115 1.411 . S
C131 C129 1.403 . S
C131 C132 1.489 . S
C132 C131 1.489 . S
C132 C133 1.383 . S
C132 C137 1.382 . S
C133 H104 0.950 1_545 S
C133 C132 1.383 . S
C133 C134 1.395 . S
C134 H105 0.950 1_545 S
C134 C133 1.395 . S
C134 C135 1.288 . S
C135 C134 1.288 . S
C135 C136 1.392 . S
C136 H106 0.951 . S
C136 C135 1.392 . S
C136 C137 1.392 . S
C137 H107 0.949 . S
C137 C132 1.382 . S
C137 C136 1.392 . S
H138 C157 0.949 . S
H139 C158 0.950 . S
H140 C160 0.950 . S
H141 C161 0.950 . S
H142 C163 0.950 . S
H143 C166 0.950 . S
H144 C167 0.950 . S
H145 C169 0.951 . S
H146 C170 0.949 . S
H147 C172 0.949 . S
H148 C173 0.950 . S
H149 C175 0.950 . S
H150 C176 0.950 . S
H151 C178 0.950 . S
H152 C181 0.950 . S
H153 C182 0.950 . S
H154 C184 0.951 . S
H155 C185 0.949 . S
C156 C157 1.376 . S
C156 C161 1.386 . S
C156 C162 1.483 . S
C157 H138 0.949 . S
C157 C156 1.376 . S
C157 C158 1.397 . S
C158 H139 0.950 . S
C158 C157 1.397 . S
C158 C159 1.391 . S
C159 C158 1.391 . S
C159 C160 1.405 . S
C160 H140 0.950 . S
C160 C159 1.405 . S
C160 C161 1.367 . S
C161 H141 0.950 . S
C161 C156 1.386 . S
C161 C160 1.367 . S
C162 C156 1.483 . S
C162 C163 1.382 . S
C162 C164 1.403 . S
C163 H142 0.950 . S
C163 C162 1.382 . S
C163 C179 1.411 . S
C164 C162 1.403 . S
C164 C165 1.489 . S
C164 C178 1.411 . S
C165 C164 1.489 . S
C165 C166 1.383 . S
C165 C170 1.382 . S
C166 H143 0.950 . S
C166 C165 1.383 . S
C166 C167 1.395 . S
C167 H144 0.950 . S
C167 C166 1.395 . S
C167 C168 1.288 . S
C168 C167 1.288 . S
C168 C169 1.392 . S
C169 H145 0.951 . S
C169 C168 1.392 . S
C169 C170 1.392 . S
C170 H146 0.949 . S
C170 C165 1.382 . S
C170 C169 1.392 . S
C171 C172 1.376 . S
C171 C176 1.386 . S
C171 C177 1.483 . S
C172 H147 0.949 . S
C172 C171 1.376 . S
C172 C173 1.397 . S
C173 H148 0.950 . S
C173 C172 1.397 . S
C173 C174 1.391 . S
C174 C173 1.391 . S
C174 C175 1.405 . S
C175 H149 0.950 . S
C175 C174 1.405 . S
C175 C176 1.367 . S
C176 H150 0.950 . S
C176 C171 1.386 . S
C176 C175 1.367 . S
C177 C171 1.483 . S
C177 C178 1.382 . S
C177 C179 1.403 . S
C178 H151 0.950 . S
C178 C164 1.411 . S
C178 C177 1.382 . S
C179 C163 1.411 . S
C179 C177 1.403 . S
C179 C180 1.489 . S
C180 C179 1.489 . S
C180 C181 1.383 . S
C180 C185 1.382 . S
C181 H152 0.950 . S
C181 C180 1.383 . S
C181 C182 1.395 . S
C182 H153 0.950 . S
C182 C181 1.395 . S
C182 C183 1.288 . S
C183 C182 1.288 . S
C183 C184 1.392 . S
C184 H154 0.951 . S
C184 C183 1.392 . S
C184 C185 1.392 . S
C185 H155 0.949 . S
C185 C180 1.382 . S
C185 C184 1.392 . S
H186 C194 0.950 . S
H187 C199 0.950 . S
H188 C196 0.950 . S
H189 C198 0.950 . S
H190 C200 0.950 . S
H191 C202 0.950 . S
H192 C204 0.950 . S
H193 C205 0.950 . S
C194 H186 0.950 . S
C194 C195 1.386 1_655 S
C194 C196 1.391 . S
C195 C194 1.386 1_455 S
C195 C199 1.393 . S
C196 H188 0.950 . S
C196 C194 1.391 . S
C196 C197 1.400 1_655 S
C197 C196 1.400 1_455 S
C197 C198 1.398 . S
C197 C203 1.491 . S
C198 H189 0.950 . S
C198 C197 1.398 . S
C198 C199 1.391 . S
C199 H187 0.950 . S
C199 C195 1.393 . S
C199 C198 1.391 . S
C200 H190 0.950 . S
C200 C201 1.386 . S
C200 C202 1.391 . S
C201 C200 1.386 . S
C201 C205 1.393 1_455 S
C202 H191 0.950 . S
C202 C200 1.391 . S
C202 C203 1.400 . S
C203 C197 1.491 . S
C203 C202 1.400 . S
C203 C204 1.398 1_455 S
C204 H192 0.950 . S
C204 C203 1.398 1_655 S
C204 C205 1.391 . S
C205 H193 0.950 . S
C205 C201 1.393 1_655 S
C205 C204 1.391 . S
H206 C214 0.950 . S
H207 C219 0.950 . S
H208 C216 0.950 . S
H209 C218 0.950 . S
H210 C220 0.950 . S
H211 C222 0.950 . S
H212 C224 0.950 . S
H213 C225 0.950 . S
C214 H206 0.950 . S
C214 C215 1.386 1_565 S
C214 C216 1.391 . S
C215 C214 1.386 1_545 S
C215 C219 1.393 . S
C216 H208 0.950 . S
C216 C214 1.391 . S
C216 C217 1.400 1_565 S
C217 C216 1.400 1_545 S
C217 C218 1.398 . S
C217 C223 1.491 . S
C218 H209 0.950 . S
C218 C217 1.398 . S
C218 C219 1.391 . S
C219 H207 0.950 . S
C219 C215 1.393 . S
C219 C218 1.391 . S
C220 H210 0.950 . S
C220 C221 1.386 . S
C220 C222 1.391 . S
C221 C220 1.386 . S
C221 C225 1.393 1_545 S
C222 H211 0.950 . S
C222 C220 1.391 . S
C222 C223 1.400 . S
C223 C217 1.491 . S
C223 C222 1.400 . S
C223 C224 1.398 1_545 S
C224 H212 0.950 . S
C224 C223 1.398 1_565 S
C224 C225 1.391 . S
C225 H213 0.950 . S
C225 C221 1.393 1_565 S
C225 C224 1.391 . S
H226 C234 0.950 . S
H227 C239 0.950 . S
H228 C236 0.950 . S
H229 C238 0.950 . S
H230 C240 0.950 . S
H231 C242 0.950 . S
H232 C244 0.950 . S
H233 C245 0.950 . S
C234 H226 0.950 . S
C234 C235 1.386 . S
C234 C236 1.391 . S
C235 C234 1.386 . S
C235 C239 1.393 . S
C236 H228 0.950 . S
C236 C234 1.391 . S
C236 C237 1.400 . S
C237 C236 1.400 . S
C237 C238 1.398 . S
C237 C243 1.491 . S
C238 H229 0.950 . S
C238 C237 1.398 . S
C238 C239 1.391 . S
C239 H227 0.950 . S
C239 C235 1.393 . S
C239 C238 1.391 . S
C240 H230 0.950 . S
C240 C241 1.386 . S
C240 C242 1.391 . S
C241 C240 1.386 . S
C241 C245 1.393 . S
C242 H231 0.950 . S
C242 C240 1.391 . S
C242 C243 1.400 . S
C243 C237 1.491 . S
C243 C242 1.400 . S
C243 C244 1.398 . S
C244 H232 0.950 . S
C244 C243 1.398 . S
C244 C245 1.391 . S
C245 H233 0.950 . S
C245 C241 1.393 . S
C245 C244 1.391 . S
H246 C254 0.950 . S
H247 C259 0.950 1_655 S
H248 C256 0.950 . S
H249 C258 0.950 1_655 S
H250 C260 0.950 1_655 S
H251 C262 0.950 1_655 S
H252 C264 0.950 . S
H253 C265 0.950 . S
C254 H246 0.950 . S
C254 C255 1.386 . S
C254 C256 1.391 . S
C255 C254 1.386 . S
C255 C259 1.393 . S
C256 H248 0.950 . S
C256 C254 1.391 . S
C256 C257 1.400 . S
C257 C256 1.400 . S
C257 C258 1.398 . S
C257 C263 1.491 . S
C258 H249 0.950 1_455 S
C258 C257 1.398 . S
C258 C259 1.391 . S
C259 H247 0.950 1_455 S
C259 C255 1.393 . S
C259 C258 1.391 . S
C260 H250 0.950 1_455 S
C260 C261 1.386 . S
C260 C262 1.391 . S
C261 C260 1.386 . S
C261 C265 1.393 . S
C262 H251 0.950 1_455 S
C262 C260 1.391 . S
C262 C263 1.400 . S
C263 C257 1.491 . S
C263 C262 1.400 . S
C263 C264 1.398 . S
C264 H252 0.950 . S
C264 C263 1.398 . S
C264 C265 1.391 . S
C265 H253 0.950 . S
C265 C261 1.393 . S
C265 C264 1.391 . S
H266 C274 0.950 . S
H267 C279 0.943 1_565 S
H268 C276 0.950 . S
H269 C278 0.944 1_565 S
H270 C280 0.950 . S
H271 C282 0.950 . S
H272 C284 0.950 . S
H273 C285 0.950 . S
C274 H266 0.950 . S
C274 C275 1.386 . S
C274 C276 1.391 . S
C275 C274 1.386 . S
C275 C279 1.407 . S
C276 H268 0.950 . S
C276 C274 1.391 . S
C276 C277 1.400 . S
C277 C276 1.400 . S
C277 C278 1.401 . S
C277 C283 1.491 . S
C278 H269 0.944 1_545 S
C278 C277 1.401 . S
C278 C279 1.386 . S
C279 H267 0.943 1_545 S
C279 C275 1.407 . S
C279 C278 1.386 . S
C280 H270 0.950 . S
C280 C281 1.386 1_565 S
C280 C282 1.391 . S
C281 C280 1.386 1_545 S
C281 C285 1.393 . S
C282 H271 0.950 . S
C282 C280 1.391 . S
C282 C283 1.400 1_565 S
C283 C277 1.491 . S
C283 C282 1.400 1_545 S
C283 C284 1.398 . S
C284 H272 0.950 . S
C284 C283 1.398 . S
C284 C285 1.391 . S
C285 H273 0.950 . S
C285 C281 1.393 . S
C285 C284 1.391 . S
H286 C294 0.950 . S
H287 C299 0.950 . S
H288 C296 0.950 . S
H289 C298 0.950 . S
H290 C300 0.950 . S
H291 C302 0.950 . S
H292 C304 0.950 . S
H293 C305 0.950 . S
C294 H286 0.950 . S
C294 C295 1.386 . S
C294 C296 1.391 . S
C295 C294 1.386 . S
C295 C299 1.393 . S
C296 H288 0.950 . S
C296 C294 1.391 . S
C296 C297 1.400 . S
C297 C296 1.400 . S
C297 C298 1.398 . S
C297 C303 1.491 . S
C298 H289 0.950 . S
C298 C297 1.398 . S
C298 C299 1.391 . S
C299 H287 0.950 . S
C299 C295 1.393 . S
C299 C298 1.391 . S
C300 H290 0.950 . S
C300 C301 1.386 . S
C300 C302 1.391 . S
C301 C300 1.386 . S
C301 C305 1.393 . S
C302 H291 0.950 . S
C302 C300 1.391 . S
C302 C303 1.400 . S
C303 C297 1.491 . S
C303 C302 1.400 . S
C303 C304 1.398 . S
C304 H292 0.950 . S
C304 C303 1.398 . S
C304 C305 1.391 . S
C305 H293 0.950 . S
C305 C301 1.393 . S
C305 C304 1.391 . S
H306 C314 0.950 . S
H307 C319 0.950 . S
H308 C316 0.950 . S
H309 C318 0.950 . S
H310 C320 0.950 . S
H311 C322 0.950 . S
H312 C324 0.950 . S
H313 C325 0.950 . S
C314 H306 0.950 . S
C314 C315 1.386 . S
C314 C316 1.391 . S
C315 C314 1.386 . S
C315 C319 1.393 . S
C316 H308 0.950 . S
C316 C314 1.391 . S
C316 C317 1.400 . S
C317 C316 1.400 . S
C317 C318 1.398 . S
C317 C323 1.491 . S
C318 H309 0.950 . S
C318 C317 1.398 . S
C318 C319 1.391 . S
C319 H307 0.950 . S
C319 C315 1.393 . S
C319 C318 1.391 . S
C320 H310 0.950 . S
C320 C321 1.386 . S
C320 C322 1.391 . S
C321 C320 1.386 . S
C321 C325 1.393 . S
C322 H311 0.950 . S
C322 C320 1.391 . S
C322 C323 1.400 . S
C323 C317 1.491 . S
C323 C322 1.400 . S
C323 C324 1.398 . S
C324 H312 0.950 . S
C324 C323 1.398 . S
C324 C325 1.391 . S
C325 H313 0.950 . S
C325 C321 1.393 . S
C325 C324 1.391 . S
H326 C334 0.950 . S
H327 C339 0.950 . S
H328 C336 0.950 . S
H329 C338 0.950 . S
H330 C340 0.950 . S
H331 C342 0.950 . S
H332 C344 0.950 . S
H333 C345 0.950 . S
C334 H326 0.950 . S
C334 C335 1.386 . S
C334 C336 1.391 1_554 S
C335 C334 1.386 . S
C335 C339 1.393 1_554 S
C336 H328 0.950 . S
C336 C334 1.391 1_556 S
C336 C337 1.400 . S
C337 C336 1.400 . S
C337 C338 1.398 . S
C337 C343 1.491 . S
C338 H329 0.950 . S
C338 C337 1.398 . S
C338 C339 1.391 . S
C339 H327 0.950 . S
C339 C335 1.393 1_556 S
C339 C338 1.391 . S
C340 H330 0.950 . S
C340 C341 1.386 . S
C340 C342 1.391 . S
C341 C340 1.386 . S
C341 C345 1.393 . S
C342 H331 0.950 . S
C342 C340 1.391 . S
C342 C343 1.400 . S
C343 C337 1.491 . S
C343 C342 1.400 . S
C343 C344 1.398 . S
C344 H332 0.950 . S
C344 C343 1.398 . S
C344 C345 1.391 . S
C345 H333 0.950 . S
C345 C341 1.393 . S
C345 C344 1.391 . S
H346 C354 0.950 . S
H347 C359 0.950 . S
H348 C356 0.950 . S
H349 C358 0.950 . S
H350 C360 0.950 . S
H351 C362 0.950 . S
H352 C364 0.950 . S
H353 C365 0.950 . S
C354 H346 0.950 . S
C354 C355 1.386 . S
C354 C356 1.391 . S
C355 C354 1.386 . S
C355 C359 1.393 1_455 S
C356 H348 0.950 . S
C356 C354 1.391 . S
C356 C357 1.400 . S
C357 C356 1.400 . S
C357 C358 1.398 1_455 S
C357 C363 1.491 . S
C358 H349 0.950 . S
C358 C357 1.398 1_655 S
C358 C359 1.391 . S
C359 H347 0.950 . S
C359 C355 1.393 1_655 S
C359 C358 1.391 . S
C360 H350 0.950 . S
C360 C361 1.386 1_655 S
C360 C362 1.391 . S
C361 C360 1.386 1_455 S
C361 C365 1.393 . S
C362 H351 0.950 . S
C362 C360 1.391 . S
C362 C363 1.400 1_655 S
C363 C357 1.491 . S
C363 C362 1.400 1_455 S
C363 C364 1.398 . S
C364 H352 0.950 . S
C364 C363 1.398 . S
C364 C365 1.391 . S
C365 H353 0.950 . S
C365 C361 1.393 . S
C365 C364 1.391 . S
H366 C374 0.950 . S
H367 C379 0.950 . S
H368 C376 0.950 . S
H369 C378 0.950 . S
H370 C380 0.950 . S
H371 C382 0.950 . S
H372 C384 0.950 . S
H373 C385 0.950 . S
C374 H366 0.950 . S
C374 C375 1.386 . S
C374 C376 1.391 . S
C375 C374 1.386 . S
C375 C379 1.393 . S
C376 H368 0.950 . S
C376 C374 1.391 . S
C376 C377 1.400 . S
C377 C376 1.400 . S
C377 C378 1.398 . S
C377 C383 1.491 . S
C378 H369 0.950 . S
C378 C377 1.398 . S
C378 C379 1.391 . S
C379 H367 0.950 . S
C379 C375 1.393 . S
C379 C378 1.391 . S
C380 H370 0.950 . S
C380 C381 1.386 . S
C380 C382 1.391 . S
C381 C380 1.386 . S
C381 C385 1.393 . S
C382 H371 0.950 . S
C382 C380 1.391 . S
C382 C383 1.400 . S
C383 C377 1.491 . S
C383 C382 1.400 . S
C383 C384 1.398 . S
C384 H372 0.950 . S
C384 C383 1.398 . S
C384 C385 1.391 . S
C385 H373 0.950 . S
C385 C381 1.393 . S
C385 C384 1.391 . S
H386 C394 0.950 . S
H387 C399 0.950 . S
H388 C396 0.950 . S
H389 C398 0.950 . S
H390 C400 0.950 . S
H391 C402 0.950 . S
H392 C404 0.950 . S
H393 C405 0.950 . S
C394 H386 0.950 . S
C394 C395 1.386 . S
C394 C396 1.391 1_554 S
C395 C394 1.386 . S
C395 C399 1.393 1_554 S
C396 H388 0.950 . S
C396 C394 1.391 1_556 S
C396 C397 1.400 . S
C397 C396 1.400 . S
C397 C398 1.398 . S
C397 C403 1.491 . S
C398 H389 0.950 . S
C398 C397 1.398 . S
C398 C399 1.391 . S
C399 H387 0.950 . S
C399 C395 1.393 1_556 S
C399 C398 1.391 . S
C400 H390 0.950 . S
C400 C401 1.386 . S
C400 C402 1.391 . S
C401 C400 1.386 . S
C401 C405 1.393 . S
C402 H391 0.950 . S
C402 C400 1.391 . S
C402 C403 1.400 . S
C403 C397 1.491 . S
C403 C402 1.400 . S
C403 C404 1.398 . S
C404 H392 0.950 . S
C404 C403 1.398 . S
C404 C405 1.391 . S
C405 H393 0.950 . S
C405 C401 1.393 . S
C405 C404 1.391 . S
H406 C414 0.950 . S
H407 C419 0.950 . S
H408 C416 0.950 . S
H409 C418 0.950 . S
H410 C420 0.950 . S
H411 C422 0.950 . S
H412 C424 0.950 . S
H413 C425 0.950 . S
C414 H406 0.950 . S
C414 C415 1.386 . S
C414 C416 1.391 . S
C415 C414 1.386 . S
C415 C419 1.393 . S
C416 H408 0.950 . S
C416 C414 1.391 . S
C416 C417 1.400 . S
C417 C416 1.400 . S
C417 C418 1.398 . S
C417 C423 1.491 . S
C418 H409 0.950 . S
C418 C417 1.398 . S
C418 C419 1.391 . S
C419 H407 0.950 . S
C419 C415 1.393 . S
C419 C418 1.391 . S
C420 H410 0.950 . S
C420 C421 1.386 . S
C420 C422 1.391 . S
C421 C420 1.386 . S
C421 C425 1.393 . S
C422 H411 0.950 . S
C422 C420 1.391 . S
C422 C423 1.400 . S
C423 C417 1.491 . S
C423 C422 1.400 . S
C423 C424 1.398 . S
C424 H412 0.950 . S
C424 C423 1.398 . S
C424 C425 1.391 . S
C425 H413 0.950 . S
C425 C421 1.393 . S
C425 C424 1.391 . S
C201 C63 1.467 . S
C195 C0 1.465 . S
C215 C25 1.509 . S
C221 C111 1.509 . S
C235 C33 1.530 . S
C241 C183 1.517 . S
C255 C11 1.464 . S
C261 C87 1.460 . S
C281 C135 1.492 . S
C275 C14 1.498 . S
C295 C37 1.524 . S
C301 C159 1.534 . S
C321 C120 1.489 . S
C315 C28 1.493 . S
C335 C9 1.532 . S
C341 C174 1.535 . S
C361 C78 1.559 . S
C355 C19 1.558 . S
C381 C126 1.508 . S
C375 C39 1.506 . S
C401 C168 1.529 . S
C395 C5 1.529 . S
C415 C23 1.560 . S
C421 C72 1.569 . S
