# Generated by pormake.
# Topology pto, (3,4)-cn, num edge types: 1
# Building blocks:
#     Node 0, Type 0, BuildingBlock: WUSLED_clean_sbu_0, # of connection points: 3
#     Node 1, Type 0, BuildingBlock: WUSLED_clean_sbu_0, # of connection points: 3
#     Node 2, Type 0, BuildingBlock: WUSLED_clean_sbu_0, # of connection points: 3
#     Node 3, Type 0, BuildingBlock: WUSLED_clean_sbu_0, # of connection points: 3
#     Node 4, Type 0, BuildingBlock: WUSLED_clean_sbu_0, # of connection points: 3
#     Node 5, Type 0, BuildingBlock: WUSLED_clean_sbu_0, # of connection points: 3
#     Node 6, Type 0, BuildingBlock: WUSLED_clean_sbu_0, # of connection points: 3
#     Node 7, Type 0, BuildingBlock: WUSLED_clean_sbu_0, # of connection points: 3
#     Node 8, Type 1, BuildingBlock: NAWXER_clean_linker_0, # of connection points: 4
#     Node 9, Type 1, BuildingBlock: NAWXER_clean_linker_0, # of connection points: 4
#     Node 10, Type 1, BuildingBlock: NAWXER_clean_linker_0, # of connection points: 4
#     Node 11, Type 1, BuildingBlock: NAWXER_clean_linker_0, # of connection points: 4
#     Node 12, Type 1, BuildingBlock: NAWXER_clean_linker_0, # of connection points: 4
#     Node 13, Type 1, BuildingBlock: NAWXER_clean_linker_0, # of connection points: 4
#     Edge 14, Type (0, 1), BuildingBlock: OJICUG_clean_linker_0, # of connection points: 2
#     Edge 15, Type (0, 1), BuildingBlock: OJICUG_clean_linker_0, # of connection points: 2
#     Edge 16, Type (0, 1), BuildingBlock: OJICUG_clean_linker_0, # of connection points: 2
#     Edge 17, Type (0, 1), BuildingBlock: OJICUG_clean_linker_0, # of connection points: 2
#     Edge 18, Type (0, 1), BuildingBlock: OJICUG_clean_linker_0, # of connection points: 2
#     Edge 19, Type (0, 1), BuildingBlock: OJICUG_clean_linker_0, # of connection points: 2
#     Edge 20, Type (0, 1), BuildingBlock: OJICUG_clean_linker_0, # of connection points: 2
#     Edge 21, Type (0, 1), BuildingBlock: OJICUG_clean_linker_0, # of connection points: 2
#     Edge 22, Type (0, 1), BuildingBlock: OJICUG_clean_linker_0, # of connection points: 2
#     Edge 23, Type (0, 1), BuildingBlock: OJICUG_clean_linker_0, # of connection points: 2
#     Edge 24, Type (0, 1), BuildingBlock: OJICUG_clean_linker_0, # of connection points: 2
#     Edge 25, Type (0, 1), BuildingBlock: OJICUG_clean_linker_0, # of connection points: 2
#     Edge 26, Type (0, 1), BuildingBlock: OJICUG_clean_linker_0, # of connection points: 2
#     Edge 27, Type (0, 1), BuildingBlock: OJICUG_clean_linker_0, # of connection points: 2
#     Edge 28, Type (0, 1), BuildingBlock: OJICUG_clean_linker_0, # of connection points: 2
#     Edge 29, Type (0, 1), BuildingBlock: OJICUG_clean_linker_0, # of connection points: 2
#     Edge 30, Type (0, 1), BuildingBlock: OJICUG_clean_linker_0, # of connection points: 2
#     Edge 31, Type (0, 1), BuildingBlock: OJICUG_clean_linker_0, # of connection points: 2
#     Edge 32, Type (0, 1), BuildingBlock: OJICUG_clean_linker_0, # of connection points: 2
#     Edge 33, Type (0, 1), BuildingBlock: OJICUG_clean_linker_0, # of connection points: 2
#     Edge 34, Type (0, 1), BuildingBlock: OJICUG_clean_linker_0, # of connection points: 2
#     Edge 35, Type (0, 1), BuildingBlock: OJICUG_clean_linker_0, # of connection points: 2
#     Edge 36, Type (0, 1), BuildingBlock: OJICUG_clean_linker_0, # of connection points: 2
#     Edge 37, Type (0, 1), BuildingBlock: OJICUG_clean_linker_0, # of connection points: 2
# Relax obj value: 0.000
# Max RMSD: 0.009
# Mean RMSD: 0.005
data_MOF--net-pto--node1-WUSLED_clean_sbu_0--node2-NAWXER_clean_linker_0--edge1-OJICUG_clean_linker_0
_symmetry_space_group_name_H-M    P1
_symmetry_Int_Tables_number       1
_symmetry_cell_setting            triclinic
loop_
_symmetry_equiv_pos_as_xyz
'x, y, z'
_cell_length_a     42.369294
_cell_length_b     57.376917
_cell_length_c     49.936417
_cell_angle_alpha  89.506922
_cell_angle_beta   90.621761
_cell_angle_gamma 90.631879
loop_
_atom_site_label
_atom_site_type_symbol
_atom_site_fract_x
_atom_site_fract_y
_atom_site_fract_z
_atom_type_partial_charge
C0 C 0.23969 0.23243 0.3574 0.0
C1 C 0.26363 0.21637 0.35244 0.0
C2 C 0.24479 0.19155 0.38892 0.0
C3 C 0.2662 0.19612 0.36811 0.0
C4 C 0.22088 0.20778 0.39376 0.0
C5 C 0.21839 0.22804 0.37813 0.0
U6 U 0.26407 0.26976 0.29762 0.0
O7 O 0.2353 0.28986 0.26892 0.0
O8 O 0.27087 0.30772 0.29385 0.0
C9 C 0.24767 0.30992 0.27636 0.0
C10 C 0.23653 0.25365 0.34094 0.0
C11 C 0.22505 0.3285 0.28173 0.0
C12 C 0.18152 0.34438 0.30685 0.0
C13 C 0.20308 0.32649 0.30248 0.0
C14 C 0.20394 0.36639 0.26991 0.0
C15 C 0.18158 0.3645 0.29048 0.0
C16 C 0.22541 0.34856 0.26559 0.0
C17 C 0.32834 0.24833 0.25124 0.0
C18 C 0.34081 0.26793 0.20928 0.0
C19 C 0.37269 0.23565 0.22489 0.0
C20 C 0.35385 0.23342 0.2476 0.0
C21 C 0.36631 0.25284 0.20534 0.0
C22 C 0.32201 0.26571 0.23205 0.0
C23 C 0.30843 0.2454 0.27498 0.0
O24 O 0.26092 0.26801 0.34153 0.0
O25 O 0.22509 0.2504 0.31667 0.0
O26 O 0.27816 0.24219 0.27005 0.0
O27 O 0.31406 0.26016 0.29449 0.0
H28 H 0.2802 0.21946 0.33639 0.0
H29 H 0.28464 0.18387 0.36365 0.0
H30 H 0.20426 0.20496 0.40982 0.0
H31 H 0.1998 0.24028 0.38223 0.0
H32 H 0.16449 0.3423 0.32273 0.0
H33 H 0.20252 0.31106 0.31514 0.0
H34 H 0.20507 0.38179 0.25725 0.0
H35 H 0.24233 0.35043 0.24958 0.0
H36 H 0.335 0.28119 0.19453 0.0
H37 H 0.39243 0.224 0.22276 0.0
H38 H 0.35915 0.21999 0.2623 0.0
H39 H 0.30237 0.2774 0.23459 0.0
C40 C 0.24021 0.81253 0.67092 0.0
C41 C 0.26141 0.83036 0.67829 0.0
C42 C 0.24527 0.85344 0.63934 0.0
C43 C 0.26393 0.85065 0.66264 0.0
C44 C 0.22424 0.83536 0.63202 0.0
C45 C 0.22175 0.81511 0.64768 0.0
U46 U 0.26462 0.77528 0.73101 0.0
O47 O 0.23582 0.75496 0.75937 0.0
O48 O 0.27073 0.73733 0.73473 0.0
C49 C 0.24773 0.73498 0.75203 0.0
C50 C 0.23696 0.79128 0.68738 0.0
C51 C 0.22473 0.71621 0.74653 0.0
C52 C 0.1785 0.70089 0.72307 0.0
C53 C 0.20056 0.7189 0.72735 0.0
C54 C 0.2049 0.67736 0.75684 0.0
C55 C 0.18029 0.67995 0.73794 0.0
C56 C 0.22685 0.69533 0.76109 0.0
C57 C 0.32967 0.79665 0.77826 0.0
C58 C 0.34357 0.77528 0.81885 0.0
C59 C 0.37298 0.81014 0.80653 0.0
C60 C 0.354 0.81269 0.78364 0.0
C61 C 0.36793 0.79145 0.8245 0.0
C62 C 0.3246 0.77786 0.79592 0.0
C63 C 0.30968 0.79977 0.75429 0.0
O64 O 0.26116 0.77714 0.68704 0.0
O65 O 0.22583 0.79441 0.71154 0.0
O66 O 0.27953 0.80283 0.7589 0.0
O67 O 0.3148 0.78518 0.73471 0.0
H68 H 0.27583 0.82865 0.69625 0.0
H69 H 0.28008 0.8643 0.66905 0.0
H70 H 0.20986 0.83675 0.61403 0.0
H71 H 0.20535 0.80146 0.64166 0.0
H72 H 0.15973 0.70354 0.70851 0.0
H73 H 0.19861 0.73496 0.71591 0.0
H74 H 0.20737 0.66135 0.76827 0.0
H75 H 0.24547 0.69293 0.77588 0.0
H76 H 0.3388 0.76084 0.83238 0.0
H77 H 0.39182 0.82269 0.81002 0.0
H78 H 0.35831 0.82724 0.77013 0.0
H79 H 0.30586 0.76529 0.79203 0.0
C80 C 0.70952 0.79611 0.25444 0.0
C81 C 0.71628 0.7793 0.23514 0.0
C82 C 0.67014 0.79093 0.20885 0.0
C83 C 0.6968 0.77675 0.21252 0.0
C84 C 0.6633 0.8075 0.22854 0.0
C85 C 0.68284 0.81006 0.25108 0.0
U86 U 0.77541 0.7754 0.30115 0.0
O87 O 0.81489 0.79489 0.3195 0.0
O88 O 0.77982 0.77754 0.34505 0.0
C89 C 0.80413 0.79192 0.3439 0.0
C90 C 0.73014 0.79939 0.27801 0.0
C91 C 0.80135 0.81331 0.35972 0.0
C92 C 0.78236 0.85283 0.36484 0.0
C93 C 0.78462 0.83253 0.34968 0.0
C94 C 0.81316 0.83479 0.40037 0.0
C95 C 0.79662 0.85421 0.39038 0.0
C96 C 0.81552 0.81454 0.38514 0.0
C97 C 0.81395 0.7165 0.28637 0.0
C98 C 0.85857 0.70057 0.31117 0.0
C99 C 0.83453 0.67861 0.27493 0.0
C100 C 0.81287 0.69646 0.2706 0.0
C101 C 0.8578 0.68048 0.29514 0.0
C102 C 0.83681 0.71848 0.30679 0.0
C103 C 0.79118 0.73513 0.28087 0.0
O104 O 0.72524 0.7848 0.298 0.0
O105 O 0.76022 0.80272 0.27287 0.0
O106 O 0.80329 0.75516 0.27286 0.0
O107 O 0.76867 0.7374 0.29852 0.0
H108 H 0.73679 0.76831 0.23746 0.0
H109 H 0.703 0.76401 0.19766 0.0
H110 H 0.64271 0.81842 0.22663 0.0
H111 H 0.67717 0.82302 0.26589 0.0
H112 H 0.76913 0.86735 0.3567 0.0
H113 H 0.77333 0.83181 0.33012 0.0
H114 H 0.82469 0.83536 0.41982 0.0
H115 H 0.82853 0.79986 0.39319 0.0
H116 H 0.87632 0.70265 0.32676 0.0
H117 H 0.83288 0.66324 0.26253 0.0
H118 H 0.79527 0.69462 0.25483 0.0
H119 H 0.83795 0.73389 0.31916 0.0
C120 C 0.75396 0.20861 0.70015 0.0
C121 C 0.77856 0.21067 0.68166 0.0
C122 C 0.76085 0.17488 0.65987 0.0
C123 C 0.78204 0.1939 0.6617 0.0
C124 C 0.73629 0.17298 0.67854 0.0
C125 C 0.7329 0.18969 0.69847 0.0
U126 U 0.77498 0.2665 0.73377 0.0
O127 O 0.74393 0.29262 0.75131 0.0
O128 O 0.7791 0.27493 0.77659 0.0
C129 C 0.75514 0.28927 0.77566 0.0
C130 C 0.74976 0.22598 0.72124 0.0
C131 C 0.73143 0.28594 0.79665 0.0
C132 C 0.68732 0.26459 0.81616 0.0
C133 C 0.71 0.26712 0.79609 0.0
C134 C 0.70753 0.29955 0.8375 0.0
C135 C 0.68572 0.28087 0.83704 0.0
C136 C 0.73012 0.30204 0.81749 0.0
C137 C 0.83849 0.30677 0.70586 0.0
C138 C 0.8496 0.34426 0.72638 0.0
C139 C 0.88003 0.33188 0.68835 0.0
C140 C 0.86253 0.31108 0.68739 0.0
C141 C 0.87375 0.34876 0.70783 0.0
C142 C 0.83213 0.32345 0.72541 0.0
C143 C 0.82008 0.28494 0.70456 0.0
O144 O 0.77346 0.22834 0.73825 0.0
O145 O 0.73798 0.24598 0.71324 0.0
O146 O 0.78992 0.2874 0.69894 0.0
O147 O 0.82539 0.27004 0.72419 0.0
H148 H 0.79499 0.22526 0.68264 0.0
H149 H 0.80103 0.19598 0.64751 0.0
H150 H 0.71987 0.15839 0.678 0.0
H151 H 0.71383 0.18781 0.71264 0.0
H152 H 0.67075 0.25011 0.81509 0.0
H153 H 0.71071 0.25451 0.78008 0.0
H154 H 0.70738 0.31215 0.85352 0.0
H155 H 0.7466 0.3166 0.81828 0.0
H156 H 0.84386 0.35698 0.74143 0.0
H157 H 0.89873 0.33461 0.674 0.0
H158 H 0.8678 0.29833 0.67224 0.0
H159 H 0.81356 0.3204 0.73981 0.0
C160 C 0.81493 0.71498 0.75016 0.0
C161 C 0.83669 0.71707 0.72926 0.0
C162 C 0.85852 0.67913 0.74111 0.0
C163 C 0.85831 0.69925 0.72474 0.0
C164 C 0.8364 0.67717 0.76185 0.0
C165 C 0.81487 0.69493 0.76632 0.0
U166 U 0.77531 0.77354 0.73451 0.0
O167 O 0.72513 0.78271 0.73768 0.0
O168 O 0.76081 0.80094 0.76212 0.0
C169 C 0.73057 0.79735 0.75733 0.0
C170 C 0.79216 0.73342 0.75562 0.0
C171 C 0.71078 0.79402 0.78113 0.0
C172 C 0.70176 0.77708 0.82521 0.0
C173 C 0.72056 0.77966 0.80249 0.0
C174 C 0.66286 0.8027 0.80518 0.0
C175 C 0.67272 0.78863 0.82684 0.0
C176 C 0.68177 0.8054 0.78256 0.0
C177 C 0.79945 0.81109 0.67476 0.0
C178 C 0.77292 0.84741 0.66411 0.0
C179 C 0.8179 0.83559 0.63814 0.0
C180 C 0.82054 0.8154 0.65386 0.0
C181 C 0.79405 0.85186 0.64305 0.0
C182 C 0.77562 0.8272 0.67984 0.0
C183 C 0.80273 0.7899 0.69126 0.0
O184 O 0.80433 0.75353 0.76313 0.0
O185 O 0.76894 0.73554 0.73814 0.0
O186 O 0.77846 0.77543 0.69061 0.0
O187 O 0.81406 0.7932 0.71555 0.0
H188 H 0.83701 0.73248 0.71658 0.0
H189 H 0.87516 0.70137 0.70872 0.0
H190 H 0.83548 0.66176 0.77451 0.0
H191 H 0.79811 0.693 0.78245 0.0
H192 H 0.70982 0.76589 0.84142 0.0
H193 H 0.74278 0.77054 0.80165 0.0
H194 H 0.64078 0.812 0.80592 0.0
H195 H 0.67384 0.81651 0.76623 0.0
H196 H 0.75407 0.8594 0.66826 0.0
H197 H 0.83487 0.83861 0.62239 0.0
H198 H 0.83918 0.80319 0.64977 0.0
H199 H 0.75911 0.82412 0.69595 0.0
C200 C 0.71006 0.24704 0.25366 0.0
C201 C 0.71487 0.26597 0.23615 0.0
C202 C 0.67151 0.25236 0.20762 0.0
C203 C 0.69576 0.26861 0.21331 0.0
C204 C 0.66674 0.23352 0.22543 0.0
C205 C 0.68586 0.23091 0.24822 0.0
U206 U 0.7753 0.26828 0.30084 0.0
O207 O 0.77866 0.2663 0.34485 0.0
O208 O 0.81404 0.24914 0.3203 0.0
C209 C 0.80274 0.25207 0.34444 0.0
C210 C 0.73013 0.24389 0.27757 0.0
C211 C 0.7992 0.23069 0.36067 0.0
C212 C 0.78022 0.1908 0.366 0.0
C213 C 0.78301 0.21115 0.35052 0.0
C214 C 0.80926 0.20946 0.40213 0.0
C215 C 0.79339 0.18969 0.39198 0.0
C216 C 0.81217 0.22975 0.38658 0.0
C217 C 0.81526 0.32737 0.28519 0.0
C218 C 0.86155 0.34281 0.30846 0.0
C219 C 0.83514 0.36613 0.2745 0.0
C220 C 0.81316 0.34816 0.27044 0.0
C221 C 0.85977 0.36365 0.29341 0.0
C222 C 0.83946 0.32479 0.30436 0.0
C223 C 0.79225 0.30858 0.27984 0.0
O224 O 0.76026 0.24081 0.2729 0.0
O225 O 0.72509 0.25848 0.29717 0.0
O226 O 0.76932 0.30625 0.2972 0.0
O227 O 0.80413 0.28859 0.2725 0.0
H228 H 0.73351 0.27861 0.24009 0.0
H229 H 0.70031 0.28316 0.1999 0.0
H230 H 0.648 0.22089 0.2219 0.0
H231 H 0.68175 0.21625 0.26162 0.0
H232 H 0.76752 0.176 0.35772 0.0
H233 H 0.77262 0.21163 0.3306 0.0
H234 H 0.81995 0.2091 0.42193 0.0
H235 H 0.82472 0.24469 0.39473 0.0
H236 H 0.88034 0.34025 0.32302 0.0
H237 H 0.83267 0.38207 0.26293 0.0
H238 H 0.79452 0.35047 0.25565 0.0
H239 H 0.84141 0.30881 0.31594 0.0
C240 C 0.23953 0.23123 0.67191 0.0
C241 C 0.26136 0.21406 0.67933 0.0
C242 C 0.2437 0.18982 0.64208 0.0
C243 C 0.26344 0.19354 0.66454 0.0
C244 C 0.22194 0.20718 0.63475 0.0
C245 C 0.2199 0.22769 0.64955 0.0
U246 U 0.26614 0.26951 0.72985 0.0
O247 O 0.27298 0.30753 0.73212 0.0
O248 O 0.23856 0.28997 0.75815 0.0
C249 C 0.25059 0.30994 0.74986 0.0
C250 C 0.23692 0.25275 0.68746 0.0
C251 C 0.22775 0.32847 0.74423 0.0
C252 C 0.18279 0.344 0.71954 0.0
C253 C 0.20467 0.32621 0.72403 0.0
C254 C 0.20716 0.36646 0.75522 0.0
C255 C 0.18365 0.36428 0.73525 0.0
C256 C 0.22894 0.34872 0.75966 0.0
C257 C 0.33212 0.24894 0.77652 0.0
C258 C 0.34467 0.26824 0.81849 0.0
C259 C 0.37828 0.23756 0.80249 0.0
C260 C 0.35882 0.23501 0.77989 0.0
C261 C 0.37132 0.25407 0.82221 0.0
C262 C 0.32528 0.26573 0.79582 0.0
C263 C 0.31144 0.24557 0.753 0.0
O264 O 0.22642 0.24993 0.71196 0.0
O265 O 0.26128 0.26708 0.68604 0.0
O266 O 0.3163 0.26005 0.7329 0.0
O267 O 0.28137 0.2423 0.75823 0.0
H268 H 0.27666 0.21651 0.69663 0.0
H269 H 0.28018 0.18045 0.67094 0.0
H270 H 0.20671 0.20505 0.61736 0.0
H271 H 0.20297 0.2408 0.64352 0.0
H272 H 0.16485 0.34169 0.70414 0.0
H273 H 0.20345 0.31063 0.71192 0.0
H274 H 0.20887 0.38199 0.76736 0.0
H275 H 0.24672 0.35079 0.77525 0.0
H276 H 0.33839 0.28095 0.83338 0.0
H277 H 0.39887 0.22663 0.80444 0.0
H278 H 0.36454 0.22206 0.76509 0.0
H279 H 0.30475 0.27669 0.79348 0.0
C280 C 0.20213 0.73666 0.32681 0.0
C281 C 0.20868 0.72001 0.30728 0.0
C282 C 0.16681 0.69471 0.32444 0.0
C283 C 0.19118 0.69922 0.3061 0.0
C284 C 0.16036 0.71154 0.34394 0.0
C285 C 0.17789 0.73233 0.34509 0.0
U286 U 0.26594 0.77675 0.29925 0.0
O287 O 0.2675 0.81485 0.29419 0.0
O288 O 0.3026 0.79752 0.31991 0.0
C289 C 0.29101 0.81742 0.31135 0.0
C290 C 0.22049 0.7585 0.32823 0.0
C291 C 0.28668 0.83525 0.3319 0.0
C292 C 0.25847 0.85086 0.3698 0.0
C293 C 0.26238 0.8334 0.3507 0.0
C294 C 0.30329 0.87198 0.35155 0.0
C295 C 0.27878 0.87046 0.37033 0.0
C296 C 0.30714 0.85456 0.33254 0.0
C297 C 0.31003 0.75706 0.23682 0.0
C298 C 0.35378 0.77873 0.21718 0.0
C299 C 0.33416 0.7435 0.19604 0.0
C300 C 0.31162 0.74088 0.21608 0.0
C301 C 0.35563 0.7624 0.19637 0.0
C302 C 0.33115 0.77607 0.23727 0.0
C303 C 0.28621 0.75372 0.25771 0.0
O304 O 0.25059 0.75608 0.33413 0.0
O305 O 0.21543 0.77333 0.30847 0.0
O306 O 0.26214 0.76794 0.25653 0.0
O307 O 0.29728 0.75058 0.28215 0.0
H308 H 0.2274 0.72308 0.29302 0.0
H309 H 0.19705 0.68654 0.29106 0.0
H310 H 0.1415 0.7088 0.35812 0.0
H311 H 0.17247 0.74505 0.36023 0.0
H312 H 0.23923 0.84923 0.38382 0.0
H313 H 0.24635 0.81855 0.35047 0.0
H314 H 0.3197 0.88659 0.35167 0.0
H315 H 0.32613 0.8562 0.31825 0.0
H316 H 0.37009 0.79337 0.21815 0.0
H317 H 0.3345 0.73085 0.18008 0.0
H318 H 0.29536 0.72618 0.21536 0.0
H319 H 0.3302 0.78875 0.25319 0.0
C320 C 0.97291 0.44511 0.28945 0.0
C321 C 0.94827 0.44078 0.30756 0.0
C322 C 0.99212 0.46497 0.29192 0.0
C323 C 0.98746 0.48076 0.31282 0.0
C324 C 0.94365 0.45666 0.32844 0.0
C325 C 0.96293 0.47648 0.33094 0.0
C326 C 1.00643 0.50257 0.31482 0.0
C327 C 0.07468 0.44325 0.32548 0.0
C328 C 0.09767 0.44251 0.30538 0.0
C329 C 0.05581 0.46295 0.32831 0.0
C330 C 0.05948 0.48223 0.311 0.0
C331 C 0.10167 0.46206 0.28852 0.0
C332 C 0.0829 0.48171 0.29139 0.0
C333 C 0.03976 0.50329 0.31338 0.0
C334 C 0.06927 0.6042 0.33806 0.0
C335 C 0.0939 0.60843 0.31992 0.0
C336 C 0.05147 0.58356 0.33685 0.0
C337 C 0.0577 0.5668 0.31729 0.0
C338 C 0.10045 0.59141 0.3007 0.0
C339 C 0.08265 0.57077 0.29951 0.0
C340 C 0.03892 0.54487 0.3157 0.0
C341 C 0.97202 0.60201 0.29299 0.0
C342 C 0.94592 0.60442 0.30988 0.0
C343 C 0.99159 0.58265 0.2953 0.0
C344 C 0.98587 0.5654 0.31485 0.0
C345 C 0.9402 0.58711 0.32943 0.0
C346 C 0.95987 0.56774 0.33177 0.0
C347 C 1.00557 0.54419 0.31643 0.0
H348 H 0.97728 0.43321 0.27322 0.0
H349 H 1.01024 0.46817 0.27717 0.0
H350 H 0.92457 0.45412 0.34246 0.0
H351 H 0.95857 0.48859 0.34698 0.0
H352 H 0.071 0.42849 0.33879 0.0
H353 H 0.0384 0.46314 0.34403 0.0
H354 H 0.11957 0.46227 0.27319 0.0
H355 H 0.08646 0.49646 0.27802 0.0
H356 H 0.06349 0.61696 0.35303 0.0
H357 H 0.03287 0.58069 0.35125 0.0
H358 H 0.11959 0.59394 0.28672 0.0
H359 H 0.08816 0.55799 0.28447 0.0
H360 H 0.97727 0.61506 0.27784 0.0
H361 H 1.01089 0.58098 0.28143 0.0
H362 H 0.92003 0.58821 0.34248 0.0
H363 H 0.95469 0.5545 0.34673 0.0
N364 N 0.9907 0.52306 0.31631 0.0
N365 N 0.05464 0.52442 0.31388 0.0
C366 C 0.9708 0.43941 0.69294 0.0
C367 C 0.94638 0.4352 0.71129 0.0
C368 C 0.98853 0.46009 0.6939 0.0
C369 C 0.98244 0.47692 0.71339 0.0
C370 C 0.93996 0.45229 0.73047 0.0
C371 C 0.95769 0.47298 0.73139 0.0
C372 C 1.00115 0.4989 0.71474 0.0
C373 C 0.06863 0.44206 0.73733 0.0
C374 C 0.0946 0.43968 0.72029 0.0
C375 C 0.04887 0.46131 0.73501 0.0
C376 C 0.05428 0.47849 0.7153 0.0
C377 C 0.09997 0.45689 0.70055 0.0
C378 C 0.08012 0.47616 0.69821 0.0
C379 C 0.03449 0.49964 0.71379 0.0
C380 C 0.06703 0.59859 0.74113 0.0
C381 C 0.09167 0.603 0.72304 0.0
C382 C 0.04781 0.57876 0.73853 0.0
C383 C 0.05243 0.56308 0.71751 0.0
C384 C 0.09624 0.58725 0.70202 0.0
C385 C 0.07692 0.56746 0.69939 0.0
C386 C 0.03351 0.54126 0.71544 0.0
C387 C 0.96512 0.60049 0.70521 0.0
C388 C 0.9423 0.60119 0.72544 0.0
C389 C 0.98398 0.5808 0.70223 0.0
C390 C 0.98044 0.5615 0.71952 0.0
C391 C 0.93842 0.58162 0.74228 0.0
C392 C 0.95716 0.56198 0.73925 0.0
C393 C 1.00019 0.54047 0.71703 0.0
H394 H 0.97647 0.42658 0.678 0.0
H395 H 1.00697 0.46293 0.67934 0.0
H396 H 0.92099 0.44979 0.7446 0.0
H397 H 0.95229 0.48581 0.7464 0.0
H398 H 0.06365 0.42908 0.75263 0.0
H399 H 0.0297 0.46298 0.74901 0.0
H400 H 0.12003 0.45581 0.68738 0.0
H401 H 0.08505 0.48935 0.68312 0.0
H402 H 0.0627 0.61039 0.75746 0.0
H403 H 0.02971 0.57548 0.75329 0.0
H404 H 0.1153 0.58986 0.688 0.0
H405 H 0.08127 0.55543 0.68326 0.0
H406 H 0.96869 0.61528 0.69192 0.0
H407 H 1.00127 0.58065 0.68643 0.0
H408 H 0.92064 0.58138 0.75771 0.0
H409 H 0.95372 0.54721 0.75262 0.0
N410 N 0.98538 0.51932 0.71663 0.0
N411 N 0.04929 0.5208 0.71385 0.0
C412 C 0.23163 0.10311 0.47459 0.0
C413 C 0.25389 0.10764 0.45444 0.0
C414 C 0.23335 0.08283 0.49023 0.0
C415 C 0.25765 0.06677 0.48638 0.0
C416 C 0.27799 0.09139 0.45043 0.0
C417 C 0.27974 0.07113 0.46614 0.0
C418 C 0.25908 0.04481 0.50224 0.0
C419 C 0.27517 0.10303 0.56004 0.0
C420 C 0.25161 0.10517 0.57948 0.0
C421 C 0.27667 0.08308 0.54425 0.0
C422 C 0.2544 0.06494 0.54728 0.0
C423 C 0.22985 0.0867 0.58294 0.0
C424 C 0.23136 0.06675 0.5671 0.0
C425 C 0.2555 0.04383 0.53035 0.0
C426 C 0.27739 0.94234 0.55713 0.0
C427 C 0.25301 0.9386 0.57566 0.0
C428 C 0.27884 0.96293 0.54192 0.0
C429 C 0.25571 0.9801 0.54469 0.0
C430 C 0.2303 0.95606 0.57874 0.0
C431 C 0.23174 0.97659 0.56352 0.0
C432 C 0.2569 1.00219 0.52905 0.0
C433 C 0.24393 0.9453 0.4671 0.0
C434 C 0.26776 0.94486 0.4477 0.0
C435 C 0.24196 0.964 0.48485 0.0
C436 C 0.2641 0.98241 0.48381 0.0
C437 C 0.28993 0.96327 0.44687 0.0
C438 C 0.28801 0.98185 0.46462 0.0
C439 C 0.26138 1.00322 0.50102 0.0
H440 H 0.21288 0.11528 0.47838 0.0
H441 H 0.21542 0.0796 0.50514 0.0
H442 H 0.29521 0.09411 0.43481 0.0
H443 H 0.29841 0.05884 0.46249 0.0
H444 H 0.29221 0.11693 0.55672 0.0
H445 H 0.29526 0.08186 0.52962 0.0
H446 H 0.21177 0.08757 0.59805 0.0
H447 H 0.21421 0.05285 0.57009 0.0
H448 H 0.29522 0.92926 0.55417 0.0
H449 H 0.29813 0.96547 0.52812 0.0
H450 H 0.21157 0.95399 0.59318 0.0
H451 H 0.21391 0.98971 0.56633 0.0
H452 H 0.22624 0.93155 0.46803 0.0
H453 H 0.22271 0.96431 0.49893 0.0
H454 H 0.30883 0.96333 0.43245 0.0
H455 H 0.30524 0.9959 0.4633 0.0
N456 N 0.26228 0.02449 0.4888 0.0
N457 N 0.25413 0.02256 0.54257 0.0
C458 C 0.47105 0.7988 0.92488 0.0
C459 C 0.44674 0.78245 0.9199 0.0
C460 C 0.48982 0.7971 0.94798 0.0
C461 C 0.48499 0.77884 0.96646 0.0
C462 C 0.44179 0.76429 0.93854 0.0
C463 C 0.4606 0.76261 0.96167 0.0
C464 C 0.50403 0.77742 0.99151 0.0
C465 C 0.57082 0.7656 0.92405 0.0
C466 C 0.59544 0.78212 0.92189 0.0
C467 C 0.552 0.76469 0.94688 0.0
C468 C 0.557 0.78059 0.96781 0.0
C469 C 0.60089 0.79763 0.94314 0.0
C470 C 0.58192 0.79682 0.96588 0.0
C471 C 0.53729 0.77984 0.99221 0.0
C472 C 0.57007 0.76515 0.10928 0.0
C473 C 0.59263 0.78313 0.11248 0.0
C474 C 0.55179 0.76365 0.08582 0.0
C475 C 0.55538 0.7803 0.06524 0.0
C476 C 0.59663 0.79942 0.09154 0.0
C477 C 0.57829 0.79796 0.06819 0.0
C478 C 0.5365 0.77908 0.04009 0.0
C479 C 0.46597 0.78935 0.10625 0.0
C480 C 0.44395 0.77093 0.10867 0.0
C481 C 0.48554 0.79101 0.08388 0.0
C482 C 0.4836 0.7742 0.06361 0.0
C483 C 0.44187 0.75432 0.08815 0.0
C484 C 0.46134 0.75603 0.06582 0.0
C485 C 0.50334 0.77594 0.03935 0.0
H486 H 0.47564 0.81291 0.91087 0.0
H487 H 0.50789 0.81024 0.95153 0.0
H488 H 0.42298 0.75162 0.93553 0.0
H489 H 0.45613 0.74857 0.97583 0.0
H490 H 0.56642 0.75311 0.90826 0.0
H491 H 0.53372 0.75141 0.94823 0.0
H492 H 0.61954 0.81066 0.94202 0.0
H493 H 0.58648 0.80912 0.98184 0.0
H494 H 0.56629 0.75234 0.12501 0.0
H495 H 0.53498 0.74941 0.08375 0.0
H496 H 0.61422 0.8132 0.09304 0.0
H497 H 0.58187 0.8108 0.05244 0.0
H498 H 0.4682 0.80239 0.12172 0.0
H499 H 0.50197 0.80554 0.08232 0.0
H500 H 0.42476 0.74018 0.08911 0.0
H501 H 0.4591 0.74306 0.05025 0.0
N502 N 0.48847 0.77524 0.01508 0.0
N503 N 0.5521 0.78088 0.01648 0.0
C504 C 0.76307 0.10117 0.4751 0.0
C505 C 0.78681 0.1048 0.45597 0.0
C506 C 0.7622 0.0807 0.49052 0.0
C507 C 0.7854 0.06362 0.48751 0.0
C508 C 0.80961 0.08746 0.45264 0.0
C509 C 0.80884 0.06708 0.46818 0.0
C510 C 0.78475 0.04164 0.50339 0.0
C511 C 0.79738 0.09945 0.56392 0.0
C512 C 0.77282 0.10055 0.58261 0.0
C513 C 0.79993 0.0802 0.54703 0.0
C514 C 0.77784 0.06178 0.54839 0.0
C515 C 0.75099 0.08194 0.58404 0.0
C516 C 0.75358 0.06275 0.56722 0.0
C517 C 0.78061 0.0408 0.53147 0.0
C518 C 0.8089 0.94053 0.55821 0.0
C519 C 0.78634 0.93619 0.57815 0.0
C520 C 0.80785 0.96095 0.54276 0.0
C521 C 0.7839 0.97731 0.5466 0.0
C522 C 0.76275 0.9528 0.5823 0.0
C523 C 0.76164 0.97318 0.56676 0.0
C524 C 0.7828 0.99921 0.53061 0.0
C525 C 0.76594 0.94063 0.47341 0.0
C526 C 0.78915 0.93839 0.4537 0.0
C527 C 0.76469 0.96068 0.48906 0.0
C528 C 0.78697 0.97877 0.48568 0.0
C529 C 0.81085 0.95682 0.44982 0.0
C530 C 0.80969 0.97683 0.46559 0.0
C531 C 0.78616 0.99998 0.50246 0.0
H532 H 0.74481 0.11398 0.47779 0.0
H533 H 0.74318 0.07813 0.50459 0.0
H534 H 0.82835 0.08978 0.43825 0.0
H535 H 0.82682 0.05408 0.46528 0.0
H536 H 0.81455 0.11349 0.56227 0.0
H537 H 0.81937 0.07961 0.53315 0.0
H538 H 0.73217 0.08197 0.59854 0.0
H539 H 0.73653 0.04862 0.56891 0.0
H540 H 0.82778 0.92835 0.55487 0.0
H541 H 0.826 0.96406 0.528 0.0
H542 H 0.74491 0.94993 0.59738 0.0
H543 H 0.74314 0.98564 0.57029 0.0
H544 H 0.74845 0.92699 0.47652 0.0
H545 H 0.7462 0.96206 0.50375 0.0
H546 H 0.82912 0.9556 0.43492 0.0
H547 H 0.82692 0.99064 0.46241 0.0
N548 N 0.78741 0.02117 0.49004 0.0
N549 N 0.77977 0.01962 0.5439 0.0
C550 C 0.47032 0.27938 0.9227 0.0
C551 C 0.44779 0.26141 0.9192 0.0
C552 C 0.48833 0.28075 0.94631 0.0
C553 C 0.48449 0.264 0.96676 0.0
C554 C 0.44353 0.24503 0.94001 0.0
C555 C 0.4616 0.24636 0.96352 0.0
C556 C 0.50314 0.26508 0.99204 0.0
C557 C 0.57426 0.25475 0.92641 0.0
C558 C 0.59651 0.27303 0.92418 0.0
C559 C 0.55442 0.25319 0.9486 0.0
C560 C 0.55628 0.26999 0.96889 0.0
C561 C 0.5985 0.28964 0.94471 0.0
C562 C 0.57873 0.28805 0.96687 0.0
C563 C 0.53628 0.2683 0.99301 0.0
C564 C 0.56808 0.24517 0.10743 0.0
C565 C 0.59218 0.26164 0.11258 0.0
C566 C 0.54933 0.24689 0.08432 0.0
C567 C 0.55399 0.2653 0.06599 0.0
C568 C 0.59691 0.27998 0.09412 0.0
C569 C 0.57813 0.28168 0.07098 0.0
C570 C 0.53515 0.26667 0.04083 0.0
C571 C 0.46742 0.27726 0.10796 0.0
C572 C 0.44348 0.26017 0.11001 0.0
C573 C 0.48634 0.27867 0.08522 0.0
C574 C 0.48205 0.2628 0.06417 0.0
C575 C 0.43875 0.24468 0.08859 0.0
C576 C 0.45774 0.24606 0.0659 0.0
C577 C 0.50193 0.26401 0.0399 0.0
H578 H 0.4743 0.29225 0.90709 0.0
H579 H 0.50513 0.29497 0.9486 0.0
H580 H 0.42595 0.23127 0.93828 0.0
H581 H 0.45784 0.23345 0.97915 0.0
H582 H 0.57207 0.2417 0.91093 0.0
H583 H 0.53785 0.23873 0.95003 0.0
H584 H 0.61576 0.30368 0.9439 0.0
H585 H 0.58093 0.301 0.98246 0.0
H586 H 0.56365 0.23092 0.1213 0.0
H587 H 0.53147 0.23363 0.08061 0.0
H588 H 0.61557 0.29275 0.09726 0.0
H589 H 0.58247 0.29583 0.05693 0.0
H590 H 0.47182 0.28941 0.12409 0.0
H591 H 0.50427 0.29223 0.08408 0.0
H592 H 0.42014 0.23161 0.08923 0.0
H593 H 0.45363 0.23385 0.04977 0.0
N594 N 0.48734 0.26305 0.01553 0.0
N595 N 0.55092 0.269 0.01738 0.0
C596 C 0.14458 0.39485 0.27247 0.0
C597 C 0.15856 0.38353 0.29461 0.0
H598 H 0.11412 0.42195 0.25852 0.0
C599 C 0.15108 0.39103 0.3205 0.0
H600 H 0.14924 0.38921 0.25226 0.0
C601 C 0.13081 0.40986 0.3241 0.0
C602 C 0.11763 0.42159 0.30188 0.0
H603 H 0.16163 0.38282 0.33798 0.0
H604 H 0.12625 0.41567 0.34426 0.0
C605 C 0.12441 0.41363 0.27605 0.0
C606 C 0.1451 0.64817 0.75612 0.0
C607 C 0.15662 0.66086 0.734 0.0
H608 H 0.11608 0.61996 0.77002 0.0
C609 C 0.14581 0.65484 0.70822 0.0
H610 H 0.15256 0.65253 0.77629 0.0
C611 C 0.12447 0.63628 0.70463 0.0
C612 C 0.11337 0.62336 0.72676 0.0
H613 H 0.15434 0.66414 0.69073 0.0
H614 H 0.11666 0.63207 0.68451 0.0
C615 C 0.12382 0.62966 0.75254 0.0
C616 C 0.89436 0.65046 0.27697 0.0
C617 C 0.88119 0.66155 0.29916 0.0
H618 H 0.92459 0.62373 0.26291 0.0
C619 C 0.89008 0.65406 0.32504 0.0
H620 H 0.88839 0.65597 0.25677 0.0
C621 C 0.91122 0.63567 0.32858 0.0
C622 C 0.92407 0.62441 0.30634 0.0
H623 H 0.88022 0.66211 0.34256 0.0
H624 H 0.91758 0.63031 0.34876 0.0
C625 C 0.91547 0.63214 0.28051 0.0
C626 C 0.90184 0.38058 0.73337 0.0
C627 C 0.89227 0.37096 0.70874 0.0
H628 H 0.92672 0.40811 0.7535 0.0
C629 C 0.90056 0.38272 0.68496 0.0
H630 H 0.89629 0.37182 0.75206 0.0
C631 C 0.91804 0.40352 0.68578 0.0
C632 C 0.92765 0.41311 0.71041 0.0
H633 H 0.89313 0.37603 0.66565 0.0
H634 H 0.92363 0.41228 0.6671 0.0
C635 C 0.9193 0.4014 0.7342 0.0
C636 C 0.21996 0.15732 0.41273 0.0
C637 C 0.24724 0.16993 0.40548 0.0
H638 H 0.20066 0.12768 0.43332 0.0
C639 C 0.2768 0.16178 0.41429 0.0
H640 H 0.19686 0.16288 0.40591 0.0
C641 C 0.27899 0.1416 0.43011 0.0
C642 C 0.25167 0.12906 0.43747 0.0
H643 H 0.29825 0.17124 0.40935 0.0
H644 H 0.30208 0.13607 0.43696 0.0
C645 C 0.22214 0.13714 0.42849 0.0
C646 C 0.39675 0.80876 0.86398 0.0
C647 C 0.38787 0.78901 0.84909 0.0
H648 H 0.42176 0.82216 0.89807 0.0
C649 C 0.39829 0.767 0.85784 0.0
H650 H 0.38868 0.82593 0.85812 0.0
C651 C 0.41728 0.76484 0.88082 0.0
C652 C 0.42633 0.78463 0.89557 0.0
H653 H 0.39224 0.75146 0.84667 0.0
H654 H 0.42533 0.74769 0.88676 0.0
C655 C 0.41574 0.8066 0.88691 0.0
C656 C 0.78866 0.87451 0.43419 0.0
C657 C 0.79436 0.87581 0.40652 0.0
H658 H 0.78271 0.89314 0.47073 0.0
C659 C 0.79812 0.89789 0.39445 0.0
H660 H 0.78535 0.8578 0.44407 0.0
C661 C 0.79644 0.91817 0.40971 0.0
C662 C 0.79078 0.91686 0.43738 0.0
H663 H 0.80281 0.8995 0.37323 0.0
H664 H 0.79931 0.9349 0.39978 0.0
C665 C 0.78682 0.89478 0.44942 0.0
C666 C 0.64637 0.29837 0.86808 0.0
C667 C 0.66156 0.27853 0.85837 0.0
H668 H 0.61365 0.31214 0.89602 0.0
C669 C 0.65408 0.25665 0.86969 0.0
H670 H 0.65104 0.31543 0.85945 0.0
C671 C 0.63254 0.25477 0.89069 0.0
C672 C 0.618 0.27472 0.90084 0.0
H673 H 0.66557 0.24105 0.86287 0.0
H674 H 0.62799 0.23776 0.8995 0.0
C675 C 0.6249 0.29649 0.88905 0.0
C676 C 0.22002 0.88531 0.61195 0.0
C677 C 0.24741 0.87519 0.6229 0.0
H678 H 0.20032 0.91291 0.58829 0.0
C679 C 0.27674 0.88606 0.61805 0.0
H680 H 0.19699 0.87758 0.61552 0.0
C681 C 0.27862 0.90652 0.60266 0.0
C682 C 0.2512 0.91666 0.59178 0.0
H683 H 0.29835 0.87863 0.62595 0.0
H684 H 0.30155 0.91457 0.59958 0.0
C685 C 0.22189 0.90575 0.59659 0.0
C686 C 0.6377 0.80877 0.1717 0.0
C687 C 0.64988 0.78878 0.18439 0.0
H688 H 0.60981 0.82267 0.13952 0.0
C689 C 0.64275 0.76682 0.17339 0.0
H690 H 0.64299 0.82598 0.17938 0.0
C691 C 0.62405 0.76494 0.15021 0.0
C692 C 0.61202 0.78497 0.13746 0.0
H693 H 0.65144 0.75103 0.18279 0.0
H694 H 0.61943 0.74779 0.14207 0.0
C695 C 0.61898 0.80689 0.14859 0.0
C696 C 0.79418 0.14827 0.63227 0.0
C697 C 0.76431 0.15689 0.63881 0.0
H698 H 0.82031 0.12359 0.60968 0.0
C699 C 0.73752 0.14766 0.62565 0.0
H700 H 0.81527 0.15484 0.64221 0.0
C701 C 0.7404 0.1298 0.60702 0.0
C702 C 0.77015 0.12068 0.60105 0.0
H703 H 0.71422 0.15423 0.62978 0.0
H704 H 0.71925 0.12308 0.59732 0.0
C705 C 0.79707 0.13036 0.61361 0.0
C706 C 0.39649 0.2347 0.16791 0.0
C707 C 0.386 0.25482 0.18087 0.0
H708 H 0.42304 0.22058 0.13581 0.0
C709 C 0.3945 0.27676 0.17024 0.0
H710 H 0.39008 0.21751 0.17532 0.0
C711 C 0.41307 0.27852 0.14729 0.0
C712 C 0.42361 0.25838 0.13439 0.0
H713 H 0.38711 0.29262 0.17983 0.0
H714 H 0.4189 0.29569 0.13951 0.0
C715 C 0.41507 0.23646 0.14501 0.0
C716 C 0.8958 0.64882 0.75878 0.0
C717 C 0.88154 0.66014 0.73677 0.0
H718 H 0.92642 0.62172 0.77245 0.0
C719 C 0.88873 0.65266 0.7108 0.0
H720 H 0.89136 0.65445 0.77903 0.0
C721 C 0.90896 0.63385 0.70702 0.0
C722 C 0.9224 0.6221 0.72912 0.0
H723 H 0.87796 0.66087 0.69341 0.0
H724 H 0.91329 0.62804 0.68682 0.0
C725 C 0.91592 0.63005 0.75501 0.0
C726 C 0.89426 0.38898 0.32287 0.0
C727 C 0.88346 0.38276 0.29715 0.0
H728 H 0.92337 0.41195 0.34635 0.0
C729 C 0.89495 0.3953 0.27491 0.0
H730 H 0.88574 0.3798 0.34044 0.0
C731 C 0.91621 0.41386 0.2783 0.0
C732 C 0.92664 0.42036 0.30403 0.0
H733 H 0.8875 0.39079 0.25478 0.0
H734 H 0.92393 0.42343 0.26073 0.0
C735 C 0.91557 0.40758 0.32627 0.0
C736 C 0.1508 0.39025 0.70529 0.0
C737 C 0.16007 0.38307 0.73118 0.0
H738 H 0.12276 0.41361 0.68149 0.0
C739 C 0.14705 0.3943 0.75334 0.0
H740 H 0.16054 0.38208 0.68778 0.0
C741 C 0.1257 0.41246 0.74974 0.0
C742 C 0.1167 0.41987 0.72389 0.0
H743 H 0.15332 0.38902 0.77356 0.0
H744 H 0.11669 0.42098 0.76731 0.0
C745 C 0.12942 0.40848 0.70168 0.0
C746 C 0.13889 0.66305 0.29851 0.0
C747 C 0.14822 0.67255 0.32327 0.0
H748 H 0.11414 0.63565 0.27803 0.0
C749 C 0.13961 0.66071 0.34692 0.0
H750 H 0.14468 0.67188 0.27992 0.0
C751 C 0.12207 0.63995 0.34583 0.0
C752 C 0.1127 0.63048 0.32108 0.0
H753 H 0.14684 0.66731 0.36632 0.0
H754 H 0.11624 0.63112 0.36442 0.0
C755 C 0.12136 0.64227 0.29742 0.0
C756 C 0.78429 0.8949 0.63808 0.0
C757 C 0.79142 0.87341 0.62635 0.0
H758 H 0.77748 0.93153 0.63221 0.0
C759 C 0.79638 0.87272 0.59856 0.0
H760 H 0.78078 0.89615 0.65947 0.0
C761 C 0.79457 0.89302 0.58295 0.0
C762 C 0.78768 0.91452 0.59472 0.0
H763 H 0.80137 0.85642 0.58878 0.0
H764 H 0.79825 0.89182 0.56158 0.0
C765 C 0.78241 0.9152 0.62245 0.0
C766 C 0.64266 0.23519 0.16808 0.0
C767 C 0.6514 0.25487 0.18314 0.0
H768 H 0.61764 0.22192 0.13394 0.0
C769 C 0.6407 0.27688 0.17467 0.0
H770 H 0.65095 0.21803 0.17372 0.0
C771 C 0.62156 0.27912 0.15178 0.0
C772 C 0.61267 0.25939 0.13685 0.0
H773 H 0.64664 0.29237 0.18598 0.0
H774 H 0.6133 0.29626 0.14605 0.0
C775 C 0.62354 0.23742 0.14525 0.0
C776 C 0.21826 0.1568 0.61663 0.0
C777 C 0.24575 0.16795 0.62634 0.0
H778 H 0.19852 0.12849 0.59412 0.0
C779 C 0.2752 0.15811 0.62078 0.0
H780 H 0.19517 0.16373 0.62079 0.0
C781 C 0.2771 0.13772 0.60574 0.0
C782 C 0.24961 0.12665 0.5959 0.0
H783 H 0.29687 0.16634 0.62773 0.0
H784 H 0.30016 0.13056 0.60197 0.0
C785 C 0.22016 0.13641 0.60161 0.0
C786 C 0.38666 0.78687 0.16354 0.0
C787 C 0.37964 0.76494 0.17495 0.0
H788 H 0.41219 0.80595 0.13354 0.0
C789 C 0.39511 0.74523 0.16519 0.0
H790 H 0.37496 0.80237 0.1704 0.0
C791 C 0.41636 0.74728 0.14408 0.0
C792 C 0.42277 0.76909 0.1322 0.0
H793 H 0.39079 0.72815 0.17387 0.0
H794 H 0.42779 0.73173 0.13705 0.0
C795 C 0.408 0.78892 0.14241 0.0
C796 C 0.7959 0.14608 0.39656 0.0
C797 C 0.79098 0.16792 0.40829 0.0
H798 H 0.79826 0.10911 0.4023 0.0
C799 C 0.78419 0.16879 0.43577 0.0
H800 H 0.80144 0.1448 0.3755 0.0
C801 C 0.78251 0.14833 0.45117 0.0
C802 C 0.78779 0.12652 0.43949 0.0
H803 H 0.77999 0.18531 0.44536 0.0
H804 H 0.7776 0.14963 0.47234 0.0
C805 C 0.79441 0.12564 0.41198 0.0
C806 C 0.39841 0.27802 0.85797 0.0
C807 C 0.39139 0.25611 0.84679 0.0
H808 H 0.42137 0.29689 0.8896 0.0
C809 C 0.40343 0.23606 0.85946 0.0
H810 H 0.38982 0.29385 0.8486 0.0
C811 C 0.42188 0.23783 0.88273 0.0
C812 C 0.42871 0.2597 0.89405 0.0
H813 H 0.39821 0.21888 0.85164 0.0
H814 H 0.43094 0.22201 0.89178 0.0
C815 C 0.41684 0.27979 0.88131 0.0
C816 C 0.27851 0.91286 0.3823 0.0
C817 C 0.27451 0.88942 0.39011 0.0
H818 H 0.27904 0.94859 0.39412 0.0
C819 C 0.26706 0.88436 0.41695 0.0
H820 H 0.28354 0.91745 0.36168 0.0
C821 C 0.26442 0.90231 0.43563 0.0
C822 C 0.26922 0.92569 0.42787 0.0
H823 H 0.26407 0.86649 0.42369 0.0
H824 H 0.25942 0.89783 0.45627 0.0
C825 C 0.27593 0.93074 0.40091 0.0
C826 C 0.6201 0.78327 0.84898 0.0
C827 C 0.653 0.78633 0.85119 0.0
H828 H 0.57618 0.77957 0.86952 0.0
C829 C 0.66687 0.78759 0.87685 0.0
H830 H 0.60874 0.78203 0.82951 0.0
C831 C 0.64824 0.78614 0.89976 0.0
C832 C 0.61532 0.78322 0.89755 0.0
H833 H 0.69211 0.79013 0.87923 0.0
H834 H 0.65964 0.78718 0.91924 0.0
C835 C 0.60149 0.78165 0.8719 0.0
loop_
_geom_bond_atom_site_label_1
_geom_bond_atom_site_label_2
_geom_bond_distance
_geom_bond_site_symmetry_2
_ccdc_geom_bond_type
C0 C1 1.264 . S
C0 C5 1.479 . S
C0 C10 1.465 . S
C1 C0 1.264 . S
C1 C3 1.339 . S
C1 H28 0.931 . S
C2 C3 1.395 . S
C2 C4 1.320 . S
C3 C1 1.339 . S
C3 C2 1.395 . S
C3 H29 0.929 . S
C4 C2 1.320 . S
C4 C5 1.405 . S
C4 H30 0.930 . S
C5 C0 1.479 . S
C5 C4 1.405 . S
C5 H31 0.931 . S
U6 O7 2.454 . S
U6 O8 2.458 . S
U6 C9 2.984 . S
U6 C10 2.847 . S
U6 C23 2.882 . S
U6 O24 2.441 . S
U6 O25 2.420 . S
U6 O26 2.455 . S
U6 O27 2.449 . S
O7 U6 2.454 . S
O7 C9 1.353 . S
O8 U6 2.458 . S
O8 C9 1.286 . S
C9 U6 2.984 . S
C9 O7 1.353 . S
C9 O8 1.286 . S
C9 C11 1.363 . S
C10 C0 1.465 . S
C10 U6 2.847 . S
C10 O24 1.249 . S
C10 O25 1.202 . S
C11 C9 1.363 . S
C11 C13 1.408 . S
C11 C16 1.342 . S
C12 C13 1.310 . S
C12 C15 1.461 . S
C12 H32 0.932 . S
C13 C11 1.408 . S
C13 C12 1.310 . S
C13 H33 0.930 . S
C14 C15 1.474 . S
C14 C16 1.285 . S
C14 H34 0.929 . S
C15 C12 1.461 . S
C15 C14 1.474 . S
C16 C11 1.342 . S
C16 C14 1.285 . S
C16 H35 0.930 . S
C17 C20 1.424 . S
C17 C22 1.245 . S
C17 C23 1.428 . S
C18 C21 1.260 . S
C18 C22 1.477 . S
C18 H36 0.932 . S
C19 C20 1.384 . S
C19 C21 1.479 . S
C19 H37 0.929 . S
C20 C17 1.424 . S
C20 C19 1.384 . S
C20 H38 0.928 . S
C21 C18 1.260 . S
C21 C19 1.479 . S
C22 C17 1.245 . S
C22 C18 1.477 . S
C22 H39 0.932 . S
C23 U6 2.882 . S
C23 C17 1.428 . S
C23 O26 1.301 . S
C23 O27 1.282 . S
O24 U6 2.441 . S
O24 C10 1.249 . S
O25 U6 2.420 . S
O25 C10 1.202 . S
O26 U6 2.455 . S
O26 C23 1.301 . S
O27 U6 2.449 . S
O27 C23 1.282 . S
H28 C1 0.931 . S
H29 C3 0.929 . S
H30 C4 0.930 . S
H31 C5 0.931 . S
H32 C12 0.932 . S
H33 C13 0.930 . S
H34 C14 0.929 . S
H35 C16 0.930 . S
H36 C18 0.932 . S
H37 C19 0.929 . S
H38 C20 0.928 . S
H39 C22 0.932 . S
C40 C41 1.264 . S
C40 C45 1.479 . S
C40 C50 1.465 . S
C41 C40 1.264 . S
C41 C43 1.339 . S
C41 H68 0.931 . S
C42 C43 1.395 . S
C42 C44 1.320 . S
C43 C41 1.339 . S
C43 C42 1.395 . S
C43 H69 0.929 . S
C44 C42 1.320 . S
C44 C45 1.405 . S
C44 H70 0.930 . S
C45 C40 1.479 . S
C45 C44 1.405 . S
C45 H71 0.931 . S
U46 O47 2.454 . S
U46 O48 2.458 . S
U46 C49 2.984 . S
U46 C50 2.847 . S
U46 C63 2.882 . S
U46 O64 2.441 . S
U46 O65 2.420 . S
U46 O66 2.455 . S
U46 O67 2.449 . S
O47 U46 2.454 . S
O47 C49 1.353 . S
O48 U46 2.458 . S
O48 C49 1.286 . S
C49 U46 2.984 . S
C49 O47 1.353 . S
C49 O48 1.286 . S
C49 C51 1.363 . S
C50 C40 1.465 . S
C50 U46 2.847 . S
C50 O64 1.249 . S
C50 O65 1.202 . S
C51 C49 1.363 . S
C51 C53 1.408 . S
C51 C56 1.342 . S
C52 C53 1.310 . S
C52 C55 1.461 . S
C52 H72 0.932 . S
C53 C51 1.408 . S
C53 C52 1.310 . S
C53 H73 0.930 . S
C54 C55 1.474 . S
C54 C56 1.285 . S
C54 H74 0.929 . S
C55 C52 1.461 . S
C55 C54 1.474 . S
C56 C51 1.342 . S
C56 C54 1.285 . S
C56 H75 0.930 . S
C57 C60 1.424 . S
C57 C62 1.245 . S
C57 C63 1.428 . S
C58 C61 1.260 . S
C58 C62 1.477 . S
C58 H76 0.932 . S
C59 C60 1.384 . S
C59 C61 1.479 . S
C59 H77 0.929 . S
C60 C57 1.424 . S
C60 C59 1.384 . S
C60 H78 0.928 . S
C61 C58 1.260 . S
C61 C59 1.479 . S
C62 C57 1.245 . S
C62 C58 1.477 . S
C62 H79 0.932 . S
C63 U46 2.882 . S
C63 C57 1.428 . S
C63 O66 1.301 . S
C63 O67 1.282 . S
O64 U46 2.441 . S
O64 C50 1.249 . S
O65 U46 2.420 . S
O65 C50 1.202 . S
O66 U46 2.455 . S
O66 C63 1.301 . S
O67 U46 2.449 . S
O67 C63 1.282 . S
H68 C41 0.931 . S
H69 C43 0.929 . S
H70 C44 0.930 . S
H71 C45 0.931 . S
H72 C52 0.932 . S
H73 C53 0.930 . S
H74 C54 0.929 . S
H75 C56 0.930 . S
H76 C58 0.932 . S
H77 C59 0.929 . S
H78 C60 0.928 . S
H79 C62 0.932 . S
C80 C81 1.264 . S
C80 C85 1.479 . S
C80 C90 1.465 . S
C81 C80 1.264 . S
C81 C83 1.339 . S
C81 H108 0.931 . S
C82 C83 1.395 . S
C82 C84 1.320 . S
C83 C81 1.339 . S
C83 C82 1.395 . S
C83 H109 0.929 . S
C84 C82 1.320 . S
C84 C85 1.405 . S
C84 H110 0.930 . S
C85 C80 1.479 . S
C85 C84 1.405 . S
C85 H111 0.931 . S
U86 O87 2.454 . S
U86 O88 2.458 . S
U86 C89 2.984 . S
U86 C90 2.847 . S
U86 C103 2.882 . S
U86 O104 2.441 . S
U86 O105 2.420 . S
U86 O106 2.455 . S
U86 O107 2.449 . S
O87 U86 2.454 . S
O87 C89 1.353 . S
O88 U86 2.458 . S
O88 C89 1.286 . S
C89 U86 2.984 . S
C89 O87 1.353 . S
C89 O88 1.286 . S
C89 C91 1.363 . S
C90 C80 1.465 . S
C90 U86 2.847 . S
C90 O104 1.249 . S
C90 O105 1.202 . S
C91 C89 1.363 . S
C91 C93 1.408 . S
C91 C96 1.342 . S
C92 C93 1.310 . S
C92 C95 1.461 . S
C92 H112 0.932 . S
C93 C91 1.408 . S
C93 C92 1.310 . S
C93 H113 0.930 . S
C94 C95 1.474 . S
C94 C96 1.285 . S
C94 H114 0.929 . S
C95 C92 1.461 . S
C95 C94 1.474 . S
C96 C91 1.342 . S
C96 C94 1.285 . S
C96 H115 0.930 . S
C97 C100 1.424 . S
C97 C102 1.245 . S
C97 C103 1.428 . S
C98 C101 1.260 . S
C98 C102 1.477 . S
C98 H116 0.932 . S
C99 C100 1.384 . S
C99 C101 1.479 . S
C99 H117 0.929 . S
C100 C97 1.424 . S
C100 C99 1.384 . S
C100 H118 0.928 . S
C101 C98 1.260 . S
C101 C99 1.479 . S
C102 C97 1.245 . S
C102 C98 1.477 . S
C102 H119 0.932 . S
C103 U86 2.882 . S
C103 C97 1.428 . S
C103 O106 1.301 . S
C103 O107 1.282 . S
O104 U86 2.441 . S
O104 C90 1.249 . S
O105 U86 2.420 . S
O105 C90 1.202 . S
O106 U86 2.455 . S
O106 C103 1.301 . S
O107 U86 2.449 . S
O107 C103 1.282 . S
H108 C81 0.931 . S
H109 C83 0.929 . S
H110 C84 0.930 . S
H111 C85 0.931 . S
H112 C92 0.932 . S
H113 C93 0.930 . S
H114 C94 0.929 . S
H115 C96 0.930 . S
H116 C98 0.932 . S
H117 C99 0.929 . S
H118 C100 0.928 . S
H119 C102 0.932 . S
C120 C121 1.264 . S
C120 C125 1.479 . S
C120 C130 1.465 . S
C121 C120 1.264 . S
C121 C123 1.339 . S
C121 H148 0.931 . S
C122 C123 1.395 . S
C122 C124 1.320 . S
C123 C121 1.339 . S
C123 C122 1.395 . S
C123 H149 0.929 . S
C124 C122 1.320 . S
C124 C125 1.405 . S
C124 H150 0.930 . S
C125 C120 1.479 . S
C125 C124 1.405 . S
C125 H151 0.931 . S
U126 O127 2.454 . S
U126 O128 2.458 . S
U126 C129 2.984 . S
U126 C130 2.847 . S
U126 C143 2.882 . S
U126 O144 2.441 . S
U126 O145 2.420 . S
U126 O146 2.455 . S
U126 O147 2.449 . S
O127 U126 2.454 . S
O127 C129 1.353 . S
O128 U126 2.458 . S
O128 C129 1.286 . S
C129 U126 2.984 . S
C129 O127 1.353 . S
C129 O128 1.286 . S
C129 C131 1.363 . S
C130 C120 1.465 . S
C130 U126 2.847 . S
C130 O144 1.249 . S
C130 O145 1.202 . S
C131 C129 1.363 . S
C131 C133 1.408 . S
C131 C136 1.342 . S
C132 C133 1.310 . S
C132 C135 1.461 . S
C132 H152 0.932 . S
C133 C131 1.408 . S
C133 C132 1.310 . S
C133 H153 0.930 . S
C134 C135 1.474 . S
C134 C136 1.285 . S
C134 H154 0.929 . S
C135 C132 1.461 . S
C135 C134 1.474 . S
C136 C131 1.342 . S
C136 C134 1.285 . S
C136 H155 0.930 . S
C137 C140 1.424 . S
C137 C142 1.245 . S
C137 C143 1.428 . S
C138 C141 1.260 . S
C138 C142 1.477 . S
C138 H156 0.932 . S
C139 C140 1.384 . S
C139 C141 1.479 . S
C139 H157 0.929 . S
C140 C137 1.424 . S
C140 C139 1.384 . S
C140 H158 0.928 . S
C141 C138 1.260 . S
C141 C139 1.479 . S
C142 C137 1.245 . S
C142 C138 1.477 . S
C142 H159 0.932 . S
C143 U126 2.882 . S
C143 C137 1.428 . S
C143 O146 1.301 . S
C143 O147 1.282 . S
O144 U126 2.441 . S
O144 C130 1.249 . S
O145 U126 2.420 . S
O145 C130 1.202 . S
O146 U126 2.455 . S
O146 C143 1.301 . S
O147 U126 2.449 . S
O147 C143 1.282 . S
H148 C121 0.931 . S
H149 C123 0.929 . S
H150 C124 0.930 . S
H151 C125 0.931 . S
H152 C132 0.932 . S
H153 C133 0.930 . S
H154 C134 0.929 . S
H155 C136 0.930 . S
H156 C138 0.932 . S
H157 C139 0.929 . S
H158 C140 0.928 . S
H159 C142 0.932 . S
C160 C161 1.264 . S
C160 C165 1.479 . S
C160 C170 1.465 . S
C161 C160 1.264 . S
C161 C163 1.339 . S
C161 H188 0.931 . S
C162 C163 1.395 . S
C162 C164 1.320 . S
C163 C161 1.339 . S
C163 C162 1.395 . S
C163 H189 0.929 . S
C164 C162 1.320 . S
C164 C165 1.405 . S
C164 H190 0.930 . S
C165 C160 1.479 . S
C165 C164 1.405 . S
C165 H191 0.931 . S
U166 O167 2.454 . S
U166 O168 2.458 . S
U166 C169 2.984 . S
U166 C170 2.847 . S
U166 C183 2.882 . S
U166 O184 2.441 . S
U166 O185 2.420 . S
U166 O186 2.455 . S
U166 O187 2.449 . S
O167 U166 2.454 . S
O167 C169 1.353 . S
O168 U166 2.458 . S
O168 C169 1.286 . S
C169 U166 2.984 . S
C169 O167 1.353 . S
C169 O168 1.286 . S
C169 C171 1.363 . S
C170 C160 1.465 . S
C170 U166 2.847 . S
C170 O184 1.249 . S
C170 O185 1.202 . S
C171 C169 1.363 . S
C171 C173 1.408 . S
C171 C176 1.342 . S
C172 C173 1.310 . S
C172 C175 1.461 . S
C172 H192 0.932 . S
C173 C171 1.408 . S
C173 C172 1.310 . S
C173 H193 0.930 . S
C174 C175 1.474 . S
C174 C176 1.285 . S
C174 H194 0.929 . S
C175 C172 1.461 . S
C175 C174 1.474 . S
C176 C171 1.342 . S
C176 C174 1.285 . S
C176 H195 0.930 . S
C177 C180 1.424 . S
C177 C182 1.245 . S
C177 C183 1.428 . S
C178 C181 1.260 . S
C178 C182 1.477 . S
C178 H196 0.932 . S
C179 C180 1.384 . S
C179 C181 1.479 . S
C179 H197 0.929 . S
C180 C177 1.424 . S
C180 C179 1.384 . S
C180 H198 0.928 . S
C181 C178 1.260 . S
C181 C179 1.479 . S
C182 C177 1.245 . S
C182 C178 1.477 . S
C182 H199 0.932 . S
C183 U166 2.882 . S
C183 C177 1.428 . S
C183 O186 1.301 . S
C183 O187 1.282 . S
O184 U166 2.441 . S
O184 C170 1.249 . S
O185 U166 2.420 . S
O185 C170 1.202 . S
O186 U166 2.455 . S
O186 C183 1.301 . S
O187 U166 2.449 . S
O187 C183 1.282 . S
H188 C161 0.931 . S
H189 C163 0.929 . S
H190 C164 0.930 . S
H191 C165 0.931 . S
H192 C172 0.932 . S
H193 C173 0.930 . S
H194 C174 0.929 . S
H195 C176 0.930 . S
H196 C178 0.932 . S
H197 C179 0.929 . S
H198 C180 0.928 . S
H199 C182 0.932 . S
C200 C201 1.264 . S
C200 C205 1.479 . S
C200 C210 1.465 . S
C201 C200 1.264 . S
C201 C203 1.339 . S
C201 H228 0.931 . S
C202 C203 1.395 . S
C202 C204 1.320 . S
C203 C201 1.339 . S
C203 C202 1.395 . S
C203 H229 0.929 . S
C204 C202 1.320 . S
C204 C205 1.405 . S
C204 H230 0.930 . S
C205 C200 1.479 . S
C205 C204 1.405 . S
C205 H231 0.931 . S
U206 O207 2.454 . S
U206 O208 2.458 . S
U206 C209 2.984 . S
U206 C210 2.847 . S
U206 C223 2.882 . S
U206 O224 2.441 . S
U206 O225 2.420 . S
U206 O226 2.455 . S
U206 O227 2.449 . S
O207 U206 2.454 . S
O207 C209 1.353 . S
O208 U206 2.458 . S
O208 C209 1.286 . S
C209 U206 2.984 . S
C209 O207 1.353 . S
C209 O208 1.286 . S
C209 C211 1.363 . S
C210 C200 1.465 . S
C210 U206 2.847 . S
C210 O224 1.249 . S
C210 O225 1.202 . S
C211 C209 1.363 . S
C211 C213 1.408 . S
C211 C216 1.342 . S
C212 C213 1.310 . S
C212 C215 1.461 . S
C212 H232 0.932 . S
C213 C211 1.408 . S
C213 C212 1.310 . S
C213 H233 0.930 . S
C214 C215 1.474 . S
C214 C216 1.285 . S
C214 H234 0.929 . S
C215 C212 1.461 . S
C215 C214 1.474 . S
C216 C211 1.342 . S
C216 C214 1.285 . S
C216 H235 0.930 . S
C217 C220 1.424 . S
C217 C222 1.245 . S
C217 C223 1.428 . S
C218 C221 1.260 . S
C218 C222 1.477 . S
C218 H236 0.932 . S
C219 C220 1.384 . S
C219 C221 1.479 . S
C219 H237 0.929 . S
C220 C217 1.424 . S
C220 C219 1.384 . S
C220 H238 0.928 . S
C221 C218 1.260 . S
C221 C219 1.479 . S
C222 C217 1.245 . S
C222 C218 1.477 . S
C222 H239 0.932 . S
C223 U206 2.882 . S
C223 C217 1.428 . S
C223 O226 1.301 . S
C223 O227 1.282 . S
O224 U206 2.441 . S
O224 C210 1.249 . S
O225 U206 2.420 . S
O225 C210 1.202 . S
O226 U206 2.455 . S
O226 C223 1.301 . S
O227 U206 2.449 . S
O227 C223 1.282 . S
H228 C201 0.931 . S
H229 C203 0.929 . S
H230 C204 0.930 . S
H231 C205 0.931 . S
H232 C212 0.932 . S
H233 C213 0.930 . S
H234 C214 0.929 . S
H235 C216 0.930 . S
H236 C218 0.932 . S
H237 C219 0.929 . S
H238 C220 0.928 . S
H239 C222 0.932 . S
C240 C241 1.264 . S
C240 C245 1.479 . S
C240 C250 1.465 . S
C241 C240 1.264 . S
C241 C243 1.339 . S
C241 H268 0.931 . S
C242 C243 1.395 . S
C242 C244 1.320 . S
C243 C241 1.339 . S
C243 C242 1.395 . S
C243 H269 0.929 . S
C244 C242 1.320 . S
C244 C245 1.405 . S
C244 H270 0.930 . S
C245 C240 1.479 . S
C245 C244 1.405 . S
C245 H271 0.931 . S
U246 O247 2.454 . S
U246 O248 2.458 . S
U246 C249 2.984 . S
U246 C250 2.847 . S
U246 C263 2.882 . S
U246 O264 2.441 . S
U246 O265 2.420 . S
U246 O266 2.455 . S
U246 O267 2.449 . S
O247 U246 2.454 . S
O247 C249 1.353 . S
O248 U246 2.458 . S
O248 C249 1.286 . S
C249 U246 2.984 . S
C249 O247 1.353 . S
C249 O248 1.286 . S
C249 C251 1.363 . S
C250 C240 1.465 . S
C250 U246 2.847 . S
C250 O264 1.249 . S
C250 O265 1.202 . S
C251 C249 1.363 . S
C251 C253 1.408 . S
C251 C256 1.342 . S
C252 C253 1.310 . S
C252 C255 1.461 . S
C252 H272 0.932 . S
C253 C251 1.408 . S
C253 C252 1.310 . S
C253 H273 0.930 . S
C254 C255 1.474 . S
C254 C256 1.285 . S
C254 H274 0.929 . S
C255 C252 1.461 . S
C255 C254 1.474 . S
C256 C251 1.342 . S
C256 C254 1.285 . S
C256 H275 0.930 . S
C257 C260 1.424 . S
C257 C262 1.245 . S
C257 C263 1.428 . S
C258 C261 1.260 . S
C258 C262 1.477 . S
C258 H276 0.932 . S
C259 C260 1.384 . S
C259 C261 1.479 . S
C259 H277 0.929 . S
C260 C257 1.424 . S
C260 C259 1.384 . S
C260 H278 0.928 . S
C261 C258 1.260 . S
C261 C259 1.479 . S
C262 C257 1.245 . S
C262 C258 1.477 . S
C262 H279 0.932 . S
C263 U246 2.882 . S
C263 C257 1.428 . S
C263 O266 1.301 . S
C263 O267 1.282 . S
O264 U246 2.441 . S
O264 C250 1.249 . S
O265 U246 2.420 . S
O265 C250 1.202 . S
O266 U246 2.455 . S
O266 C263 1.301 . S
O267 U246 2.449 . S
O267 C263 1.282 . S
H268 C241 0.931 . S
H269 C243 0.929 . S
H270 C244 0.930 . S
H271 C245 0.931 . S
H272 C252 0.932 . S
H273 C253 0.930 . S
H274 C254 0.929 . S
H275 C256 0.930 . S
H276 C258 0.932 . S
H277 C259 0.929 . S
H278 C260 0.928 . S
H279 C262 0.932 . S
C280 C281 1.264 . S
C280 C285 1.479 . S
C280 C290 1.465 . S
C281 C280 1.264 . S
C281 C283 1.339 . S
C281 H308 0.931 . S
C282 C283 1.395 . S
C282 C284 1.320 . S
C283 C281 1.339 . S
C283 C282 1.395 . S
C283 H309 0.929 . S
C284 C282 1.320 . S
C284 C285 1.405 . S
C284 H310 0.930 . S
C285 C280 1.479 . S
C285 C284 1.405 . S
C285 H311 0.931 . S
U286 O287 2.454 . S
U286 O288 2.458 . S
U286 C289 2.984 . S
U286 C290 2.847 . S
U286 C303 2.882 . S
U286 O304 2.441 . S
U286 O305 2.420 . S
U286 O306 2.455 . S
U286 O307 2.449 . S
O287 U286 2.454 . S
O287 C289 1.353 . S
O288 U286 2.458 . S
O288 C289 1.286 . S
C289 U286 2.984 . S
C289 O287 1.353 . S
C289 O288 1.286 . S
C289 C291 1.363 . S
C290 C280 1.465 . S
C290 U286 2.847 . S
C290 O304 1.249 . S
C290 O305 1.202 . S
C291 C289 1.363 . S
C291 C293 1.408 . S
C291 C296 1.342 . S
C292 C293 1.310 . S
C292 C295 1.461 . S
C292 H312 0.932 . S
C293 C291 1.408 . S
C293 C292 1.310 . S
C293 H313 0.930 . S
C294 C295 1.474 . S
C294 C296 1.285 . S
C294 H314 0.929 . S
C295 C292 1.461 . S
C295 C294 1.474 . S
C296 C291 1.342 . S
C296 C294 1.285 . S
C296 H315 0.930 . S
C297 C300 1.424 . S
C297 C302 1.245 . S
C297 C303 1.428 . S
C298 C301 1.260 . S
C298 C302 1.477 . S
C298 H316 0.932 . S
C299 C300 1.384 . S
C299 C301 1.479 . S
C299 H317 0.929 . S
C300 C297 1.424 . S
C300 C299 1.384 . S
C300 H318 0.928 . S
C301 C298 1.260 . S
C301 C299 1.479 . S
C302 C297 1.245 . S
C302 C298 1.477 . S
C302 H319 0.932 . S
C303 U286 2.882 . S
C303 C297 1.428 . S
C303 O306 1.301 . S
C303 O307 1.282 . S
O304 U286 2.441 . S
O304 C290 1.249 . S
O305 U286 2.420 . S
O305 C290 1.202 . S
O306 U286 2.455 . S
O306 C303 1.301 . S
O307 U286 2.449 . S
O307 C303 1.282 . S
H308 C281 0.931 . S
H309 C283 0.929 . S
H310 C284 0.930 . S
H311 C285 0.931 . S
H312 C292 0.932 . S
H313 C293 0.930 . S
H314 C294 0.929 . S
H315 C296 0.930 . S
H316 C298 0.932 . S
H317 C299 0.929 . S
H318 C300 0.928 . S
H319 C302 0.932 . S
C320 C321 1.384 . S
C320 C322 1.384 . S
C320 H348 0.931 . S
C321 C320 1.384 . S
C321 C324 1.382 . S
C322 C320 1.384 . S
C322 C323 1.381 . S
C322 H349 0.930 . S
C323 C322 1.381 . S
C323 C325 1.381 . S
C323 C326 1.487 . S
C324 C321 1.382 . S
C324 C325 1.387 . S
C324 H350 0.930 . S
C325 C323 1.381 . S
C325 C324 1.387 . S
C325 H351 0.931 . S
C326 C323 1.487 . S
C326 C333 1.399 1_655 S
C326 N364 1.343 . S
C327 C328 1.384 . S
C327 C329 1.384 . S
C327 H352 0.931 . S
C328 C327 1.384 . S
C328 C331 1.382 . S
C329 C327 1.384 . S
C329 C330 1.381 . S
C329 H353 0.930 . S
C330 C329 1.381 . S
C330 C332 1.381 . S
C330 C333 1.487 . S
C331 C328 1.382 . S
C331 C332 1.387 . S
C331 H354 0.930 . S
C332 C330 1.381 . S
C332 C331 1.387 . S
C332 H355 0.931 . S
C333 C326 1.399 1_455 S
C333 C330 1.487 . S
C333 N365 1.343 . S
C334 C335 1.384 . S
C334 C336 1.384 . S
C334 H356 0.931 . S
C335 C334 1.384 . S
C335 C338 1.382 . S
C336 C334 1.384 . S
C336 C337 1.381 . S
C336 H357 0.930 . S
C337 C336 1.381 . S
C337 C339 1.381 . S
C337 C340 1.487 . S
C338 C335 1.382 . S
C338 C339 1.387 . S
C338 H358 0.930 . S
C339 C337 1.381 . S
C339 C338 1.387 . S
C339 H359 0.931 . S
C340 C337 1.487 . S
C340 C347 1.399 1_455 S
C340 N365 1.343 . S
C341 C342 1.384 . S
C341 C343 1.384 . S
C341 H360 0.931 . S
C342 C341 1.384 . S
C342 C345 1.382 . S
C343 C341 1.384 . S
C343 C344 1.381 . S
C343 H361 0.930 . S
C344 C343 1.381 . S
C344 C346 1.381 . S
C344 C347 1.487 . S
C345 C342 1.382 . S
C345 C346 1.387 . S
C345 H362 0.930 . S
C346 C344 1.381 . S
C346 C345 1.387 . S
C346 H363 0.931 . S
C347 C340 1.399 1_655 S
C347 C344 1.487 . S
C347 N364 1.343 . S
H348 C320 0.931 . S
H349 C322 0.930 . S
H350 C324 0.930 . S
H351 C325 0.931 . S
H352 C327 0.931 . S
H353 C329 0.930 . S
H354 C331 0.930 . S
H355 C332 0.931 . S
H356 C334 0.931 . S
H357 C336 0.930 . S
H358 C338 0.930 . S
H359 C339 0.931 . S
H360 C341 0.931 . S
H361 C343 0.930 . S
H362 C345 0.930 . S
H363 C346 0.931 . S
N364 C326 1.343 . S
N364 C347 1.343 . S
N365 C333 1.343 . S
N365 C340 1.343 . S
C366 C367 1.384 . S
C366 C368 1.384 . S
C366 H394 0.931 . S
C367 C366 1.384 . S
C367 C370 1.382 . S
C368 C366 1.384 . S
C368 C369 1.381 . S
C368 H395 0.930 . S
C369 C368 1.381 . S
C369 C371 1.381 . S
C369 C372 1.487 . S
C370 C367 1.382 . S
C370 C371 1.387 . S
C370 H396 0.930 . S
C371 C369 1.381 . S
C371 C370 1.387 . S
C371 H397 0.931 . S
C372 C369 1.487 . S
C372 C379 1.399 1_655 S
C372 N410 1.343 . S
C373 C374 1.384 . S
C373 C375 1.384 . S
C373 H398 0.931 . S
C374 C373 1.384 . S
C374 C377 1.382 . S
C375 C373 1.384 . S
C375 C376 1.381 . S
C375 H399 0.930 . S
C376 C375 1.381 . S
C376 C378 1.381 . S
C376 C379 1.487 . S
C377 C374 1.382 . S
C377 C378 1.387 . S
C377 H400 0.930 . S
C378 C376 1.381 . S
C378 C377 1.387 . S
C378 H401 0.931 . S
C379 C372 1.399 1_455 S
C379 C376 1.487 . S
C379 N411 1.343 . S
C380 C381 1.384 . S
C380 C382 1.384 . S
C380 H402 0.931 . S
C381 C380 1.384 . S
C381 C384 1.382 . S
C382 C380 1.384 . S
C382 C383 1.381 . S
C382 H403 0.930 . S
C383 C382 1.381 . S
C383 C385 1.381 . S
C383 C386 1.487 . S
C384 C381 1.382 . S
C384 C385 1.387 . S
C384 H404 0.930 . S
C385 C383 1.381 . S
C385 C384 1.387 . S
C385 H405 0.931 . S
C386 C383 1.487 . S
C386 C393 1.399 1_455 S
C386 N411 1.343 . S
C387 C388 1.384 . S
C387 C389 1.384 . S
C387 H406 0.931 . S
C388 C387 1.384 . S
C388 C391 1.382 . S
C389 C387 1.384 . S
C389 C390 1.381 . S
C389 H407 0.930 . S
C390 C389 1.381 . S
C390 C392 1.381 . S
C390 C393 1.487 . S
C391 C388 1.382 . S
C391 C392 1.387 . S
C391 H408 0.930 . S
C392 C390 1.381 . S
C392 C391 1.387 . S
C392 H409 0.931 . S
C393 C386 1.399 1_655 S
C393 C390 1.487 . S
C393 N410 1.343 . S
H394 C366 0.931 . S
H395 C368 0.930 . S
H396 C370 0.930 . S
H397 C371 0.931 . S
H398 C373 0.931 . S
H399 C375 0.930 . S
H400 C377 0.930 . S
H401 C378 0.931 . S
H402 C380 0.931 . S
H403 C382 0.930 . S
H404 C384 0.930 . S
H405 C385 0.931 . S
H406 C387 0.931 . S
H407 C389 0.930 . S
H408 C391 0.930 . S
H409 C392 0.931 . S
N410 C372 1.343 . S
N410 C393 1.343 . S
N411 C379 1.343 . S
N411 C386 1.343 . S
C412 C413 1.384 . S
C412 C414 1.384 . S
C412 H440 0.931 . S
C413 C412 1.384 . S
C413 C416 1.382 . S
C414 C412 1.384 . S
C414 C415 1.381 . S
C414 H441 0.930 . S
C415 C414 1.381 . S
C415 C417 1.381 . S
C415 C418 1.487 . S
C416 C413 1.382 . S
C416 C417 1.387 . S
C416 H442 0.930 . S
C417 C415 1.381 . S
C417 C416 1.387 . S
C417 H443 0.931 . S
C418 C415 1.487 . S
C418 C425 1.399 . S
C418 N456 1.343 . S
C419 C420 1.384 . S
C419 C421 1.384 . S
C419 H444 0.931 . S
C420 C419 1.384 . S
C420 C423 1.382 . S
C421 C419 1.384 . S
C421 C422 1.381 . S
C421 H445 0.930 . S
C422 C421 1.381 . S
C422 C424 1.381 . S
C422 C425 1.487 . S
C423 C420 1.382 . S
C423 C424 1.387 . S
C423 H446 0.930 . S
C424 C422 1.381 . S
C424 C423 1.387 . S
C424 H447 0.931 . S
C425 C418 1.399 . S
C425 C422 1.487 . S
C425 N457 1.343 . S
C426 C427 1.384 . S
C426 C428 1.384 . S
C426 H448 0.931 . S
C427 C426 1.384 . S
C427 C430 1.382 . S
C428 C426 1.384 . S
C428 C429 1.381 . S
C428 H449 0.930 . S
C429 C428 1.381 . S
C429 C431 1.381 . S
C429 C432 1.487 . S
C430 C427 1.382 . S
C430 C431 1.387 . S
C430 H450 0.930 . S
C431 C429 1.381 . S
C431 C430 1.387 . S
C431 H451 0.931 . S
C432 C429 1.487 . S
C432 C439 1.399 . S
C432 N457 1.343 1_565 S
C433 C434 1.384 . S
C433 C435 1.384 . S
C433 H452 0.931 . S
C434 C433 1.384 . S
C434 C437 1.382 . S
C435 C433 1.384 . S
C435 C436 1.381 . S
C435 H453 0.930 . S
C436 C435 1.381 . S
C436 C438 1.381 . S
C436 C439 1.487 . S
C437 C434 1.382 . S
C437 C438 1.387 . S
C437 H454 0.930 . S
C438 C436 1.381 . S
C438 C437 1.387 . S
C438 H455 0.931 . S
C439 C432 1.399 . S
C439 C436 1.487 . S
C439 N456 1.343 1_565 S
H440 C412 0.931 . S
H441 C414 0.930 . S
H442 C416 0.930 . S
H443 C417 0.931 . S
H444 C419 0.931 . S
H445 C421 0.930 . S
H446 C423 0.930 . S
H447 C424 0.931 . S
H448 C426 0.931 . S
H449 C428 0.930 . S
H450 C430 0.930 . S
H451 C431 0.931 . S
H452 C433 0.931 . S
H453 C435 0.930 . S
H454 C437 0.930 . S
H455 C438 0.931 . S
N456 C418 1.343 . S
N456 C439 1.343 1_545 S
N457 C425 1.343 . S
N457 C432 1.343 1_545 S
C458 C459 1.384 . S
C458 C460 1.384 . S
C458 H486 0.931 . S
C459 C458 1.384 . S
C459 C462 1.382 . S
C460 C458 1.384 . S
C460 C461 1.381 . S
C460 H487 0.930 . S
C461 C460 1.381 . S
C461 C463 1.381 . S
C461 C464 1.487 . S
C462 C459 1.382 . S
C462 C463 1.387 . S
C462 H488 0.930 . S
C463 C461 1.381 . S
C463 C462 1.387 . S
C463 H489 0.931 . S
C464 C461 1.487 . S
C464 C471 1.399 . S
C464 N502 1.343 1_556 S
C465 C466 1.384 . S
C465 C467 1.384 . S
C465 H490 0.931 . S
C466 C465 1.384 . S
C466 C469 1.382 . S
C467 C465 1.384 . S
C467 C468 1.381 . S
C467 H491 0.930 . S
C468 C467 1.381 . S
C468 C470 1.381 . S
C468 C471 1.487 . S
C469 C466 1.382 . S
C469 C470 1.387 . S
C469 H492 0.930 . S
C470 C468 1.381 . S
C470 C469 1.387 . S
C470 H493 0.931 . S
C471 C464 1.399 . S
C471 C468 1.487 . S
C471 N503 1.343 1_556 S
C472 C473 1.384 . S
C472 C474 1.384 . S
C472 H494 0.931 . S
C473 C472 1.384 . S
C473 C476 1.382 . S
C474 C472 1.384 . S
C474 C475 1.381 . S
C474 H495 0.930 . S
C475 C474 1.381 . S
C475 C477 1.381 . S
C475 C478 1.487 . S
C476 C473 1.382 . S
C476 C477 1.387 . S
C476 H496 0.930 . S
C477 C475 1.381 . S
C477 C476 1.387 . S
C477 H497 0.931 . S
C478 C475 1.487 . S
C478 C485 1.399 . S
C478 N503 1.343 . S
C479 C480 1.384 . S
C479 C481 1.384 . S
C479 H498 0.931 . S
C480 C479 1.384 . S
C480 C483 1.382 . S
C481 C479 1.384 . S
C481 C482 1.381 . S
C481 H499 0.930 . S
C482 C481 1.381 . S
C482 C484 1.381 . S
C482 C485 1.487 . S
C483 C480 1.382 . S
C483 C484 1.387 . S
C483 H500 0.930 . S
C484 C482 1.381 . S
C484 C483 1.387 . S
C484 H501 0.931 . S
C485 C478 1.399 . S
C485 C482 1.487 . S
C485 N502 1.343 . S
H486 C458 0.931 . S
H487 C460 0.930 . S
H488 C462 0.930 . S
H489 C463 0.931 . S
H490 C465 0.931 . S
H491 C467 0.930 . S
H492 C469 0.930 . S
H493 C470 0.931 . S
H494 C472 0.931 . S
H495 C474 0.930 . S
H496 C476 0.930 . S
H497 C477 0.931 . S
H498 C479 0.931 . S
H499 C481 0.930 . S
H500 C483 0.930 . S
H501 C484 0.931 . S
N502 C464 1.343 1_554 S
N502 C485 1.343 . S
N503 C471 1.343 1_554 S
N503 C478 1.343 . S
C504 C505 1.384 . S
C504 C506 1.384 . S
C504 H532 0.931 . S
C505 C504 1.384 . S
C505 C508 1.382 . S
C506 C504 1.384 . S
C506 C507 1.381 . S
C506 H533 0.930 . S
C507 C506 1.381 . S
C507 C509 1.381 . S
C507 C510 1.487 . S
C508 C505 1.382 . S
C508 C509 1.387 . S
C508 H534 0.930 . S
C509 C507 1.381 . S
C509 C508 1.387 . S
C509 H535 0.931 . S
C510 C507 1.487 . S
C510 C517 1.399 . S
C510 N548 1.343 . S
C511 C512 1.384 . S
C511 C513 1.384 . S
C511 H536 0.931 . S
C512 C511 1.384 . S
C512 C515 1.382 . S
C513 C511 1.384 . S
C513 C514 1.381 . S
C513 H537 0.930 . S
C514 C513 1.381 . S
C514 C516 1.381 . S
C514 C517 1.487 . S
C515 C512 1.382 . S
C515 C516 1.387 . S
C515 H538 0.930 . S
C516 C514 1.381 . S
C516 C515 1.387 . S
C516 H539 0.931 . S
C517 C510 1.399 . S
C517 C514 1.487 . S
C517 N549 1.343 . S
C518 C519 1.384 . S
C518 C520 1.384 . S
C518 H540 0.931 . S
C519 C518 1.384 . S
C519 C522 1.382 . S
C520 C518 1.384 . S
C520 C521 1.381 . S
C520 H541 0.930 . S
C521 C520 1.381 . S
C521 C523 1.381 . S
C521 C524 1.487 . S
C522 C519 1.382 . S
C522 C523 1.387 . S
C522 H542 0.930 . S
C523 C521 1.381 . S
C523 C522 1.387 . S
C523 H543 0.931 . S
C524 C521 1.487 . S
C524 C531 1.399 . S
C524 N549 1.343 1_565 S
C525 C526 1.384 . S
C525 C527 1.384 . S
C525 H544 0.931 . S
C526 C525 1.384 . S
C526 C529 1.382 . S
C527 C525 1.384 . S
C527 C528 1.381 . S
C527 H545 0.930 . S
C528 C527 1.381 . S
C528 C530 1.381 . S
C528 C531 1.487 . S
C529 C526 1.382 . S
C529 C530 1.387 . S
C529 H546 0.930 . S
C530 C528 1.381 . S
C530 C529 1.387 . S
C530 H547 0.931 . S
C531 C524 1.399 . S
C531 C528 1.487 . S
C531 N548 1.343 1_565 S
H532 C504 0.931 . S
H533 C506 0.930 . S
H534 C508 0.930 . S
H535 C509 0.931 . S
H536 C511 0.931 . S
H537 C513 0.930 . S
H538 C515 0.930 . S
H539 C516 0.931 . S
H540 C518 0.931 . S
H541 C520 0.930 . S
H542 C522 0.930 . S
H543 C523 0.931 . S
H544 C525 0.931 . S
H545 C527 0.930 . S
H546 C529 0.930 . S
H547 C530 0.931 . S
N548 C510 1.343 . S
N548 C531 1.343 1_545 S
N549 C517 1.343 . S
N549 C524 1.343 1_545 S
C550 C551 1.384 . S
C550 C552 1.384 . S
C550 H578 0.931 . S
C551 C550 1.384 . S
C551 C554 1.382 . S
C552 C550 1.384 . S
C552 C553 1.381 . S
C552 H579 0.930 . S
C553 C552 1.381 . S
C553 C555 1.381 . S
C553 C556 1.487 . S
C554 C551 1.382 . S
C554 C555 1.387 . S
C554 H580 0.930 . S
C555 C553 1.381 . S
C555 C554 1.387 . S
C555 H581 0.931 . S
C556 C553 1.487 . S
C556 C563 1.399 . S
C556 N594 1.343 1_556 S
C557 C558 1.384 . S
C557 C559 1.384 . S
C557 H582 0.931 . S
C558 C557 1.384 . S
C558 C561 1.382 . S
C559 C557 1.384 . S
C559 C560 1.381 . S
C559 H583 0.930 . S
C560 C559 1.381 . S
C560 C562 1.381 . S
C560 C563 1.487 . S
C561 C558 1.382 . S
C561 C562 1.387 . S
C561 H584 0.930 . S
C562 C560 1.381 . S
C562 C561 1.387 . S
C562 H585 0.931 . S
C563 C556 1.399 . S
C563 C560 1.487 . S
C563 N595 1.343 1_556 S
C564 C565 1.384 . S
C564 C566 1.384 . S
C564 H586 0.931 . S
C565 C564 1.384 . S
C565 C568 1.382 . S
C566 C564 1.384 . S
C566 C567 1.381 . S
C566 H587 0.930 . S
C567 C566 1.381 . S
C567 C569 1.381 . S
C567 C570 1.487 . S
C568 C565 1.382 . S
C568 C569 1.387 . S
C568 H588 0.930 . S
C569 C567 1.381 . S
C569 C568 1.387 . S
C569 H589 0.931 . S
C570 C567 1.487 . S
C570 C577 1.399 . S
C570 N595 1.343 . S
C571 C572 1.384 . S
C571 C573 1.384 . S
C571 H590 0.931 . S
C572 C571 1.384 . S
C572 C575 1.382 . S
C573 C571 1.384 . S
C573 C574 1.381 . S
C573 H591 0.930 . S
C574 C573 1.381 . S
C574 C576 1.381 . S
C574 C577 1.487 . S
C575 C572 1.382 . S
C575 C576 1.387 . S
C575 H592 0.930 . S
C576 C574 1.381 . S
C576 C575 1.387 . S
C576 H593 0.931 . S
C577 C570 1.399 . S
C577 C574 1.487 . S
C577 N594 1.343 . S
H578 C550 0.931 . S
H579 C552 0.930 . S
H580 C554 0.930 . S
H581 C555 0.931 . S
H582 C557 0.931 . S
H583 C559 0.930 . S
H584 C561 0.930 . S
H585 C562 0.931 . S
H586 C564 0.931 . S
H587 C566 0.930 . S
H588 C568 0.930 . S
H589 C569 0.931 . S
H590 C571 0.931 . S
H591 C573 0.930 . S
H592 C575 0.930 . S
H593 C576 0.931 . S
N594 C556 1.343 1_554 S
N594 C577 1.343 . S
N595 C563 1.343 1_554 S
N595 C570 1.343 . S
C596 C597 1.387 . S
C596 H600 0.950 . S
C596 C605 1.390 . S
C597 C596 1.387 . S
C597 C599 1.387 . S
H598 C605 0.950 . S
C599 C597 1.387 . S
C599 C601 1.390 . S
C599 H603 0.950 . S
H600 C596 0.950 . S
C601 C599 1.390 . S
C601 C602 1.387 . S
C601 H604 0.950 . S
C602 C601 1.387 . S
C602 C605 1.387 . S
H603 C599 0.950 . S
H604 C601 0.950 . S
C605 C596 1.390 . S
C605 H598 0.950 . S
C605 C602 1.387 . S
C606 C607 1.387 . S
C606 H610 0.950 . S
C606 C615 1.390 . S
C607 C606 1.387 . S
C607 C609 1.387 . S
H608 C615 0.950 . S
C609 C607 1.387 . S
C609 C611 1.390 . S
C609 H613 0.950 . S
H610 C606 0.950 . S
C611 C609 1.390 . S
C611 C612 1.387 . S
C611 H614 0.950 . S
C612 C611 1.387 . S
C612 C615 1.387 . S
H613 C609 0.950 . S
H614 C611 0.950 . S
C615 C606 1.390 . S
C615 H608 0.950 . S
C615 C612 1.387 . S
C616 C617 1.387 . S
C616 H620 0.950 . S
C616 C625 1.390 . S
C617 C616 1.387 . S
C617 C619 1.387 . S
H618 C625 0.950 . S
C619 C617 1.387 . S
C619 C621 1.390 . S
C619 H623 0.950 . S
H620 C616 0.950 . S
C621 C619 1.390 . S
C621 C622 1.387 . S
C621 H624 0.950 . S
C622 C621 1.387 . S
C622 C625 1.387 . S
H623 C619 0.950 . S
H624 C621 0.950 . S
C625 C616 1.390 . S
C625 H618 0.950 . S
C625 C622 1.387 . S
C626 C627 1.387 . S
C626 H630 0.950 . S
C626 C635 1.390 . S
C627 C626 1.387 . S
C627 C629 1.387 . S
H628 C635 0.950 . S
C629 C627 1.387 . S
C629 C631 1.390 . S
C629 H633 0.950 . S
H630 C626 0.950 . S
C631 C629 1.390 . S
C631 C632 1.387 . S
C631 H634 0.950 . S
C632 C631 1.387 . S
C632 C635 1.387 . S
H633 C629 0.950 . S
H634 C631 0.950 . S
C635 C626 1.390 . S
C635 H628 0.950 . S
C635 C632 1.387 . S
C636 C637 1.387 . S
C636 H640 0.950 . S
C636 C645 1.390 . S
C637 C636 1.387 . S
C637 C639 1.387 . S
H638 C645 0.950 . S
C639 C637 1.387 . S
C639 C641 1.390 . S
C639 H643 0.950 . S
H640 C636 0.950 . S
C641 C639 1.390 . S
C641 C642 1.387 . S
C641 H644 0.950 . S
C642 C641 1.387 . S
C642 C645 1.387 . S
H643 C639 0.950 . S
H644 C641 0.950 . S
C645 C636 1.390 . S
C645 H638 0.950 . S
C645 C642 1.387 . S
C646 C647 1.387 . S
C646 H650 0.950 . S
C646 C655 1.390 . S
C647 C646 1.387 . S
C647 C649 1.387 . S
H648 C655 0.950 . S
C649 C647 1.387 . S
C649 C651 1.390 . S
C649 H653 0.950 . S
H650 C646 0.950 . S
C651 C649 1.390 . S
C651 C652 1.387 . S
C651 H654 0.950 . S
C652 C651 1.387 . S
C652 C655 1.387 . S
H653 C649 0.950 . S
H654 C651 0.950 . S
C655 C646 1.390 . S
C655 H648 0.950 . S
C655 C652 1.387 . S
C656 C657 1.387 . S
C656 H660 0.950 . S
C656 C665 1.390 . S
C657 C656 1.387 . S
C657 C659 1.387 . S
H658 C665 0.950 . S
C659 C657 1.387 . S
C659 C661 1.390 . S
C659 H663 0.950 . S
H660 C656 0.950 . S
C661 C659 1.390 . S
C661 C662 1.387 . S
C661 H664 0.950 . S
C662 C661 1.387 . S
C662 C665 1.387 . S
H663 C659 0.950 . S
H664 C661 0.950 . S
C665 C656 1.390 . S
C665 H658 0.950 . S
C665 C662 1.387 . S
C666 C667 1.387 . S
C666 H670 0.950 . S
C666 C675 1.390 . S
C667 C666 1.387 . S
C667 C669 1.387 . S
H668 C675 0.950 . S
C669 C667 1.387 . S
C669 C671 1.390 . S
C669 H673 0.950 . S
H670 C666 0.950 . S
C671 C669 1.390 . S
C671 C672 1.387 . S
C671 H674 0.950 . S
C672 C671 1.387 . S
C672 C675 1.387 . S
H673 C669 0.950 . S
H674 C671 0.950 . S
C675 C666 1.390 . S
C675 H668 0.950 . S
C675 C672 1.387 . S
C676 C677 1.387 . S
C676 H680 0.950 . S
C676 C685 1.390 . S
C677 C676 1.387 . S
C677 C679 1.387 . S
H678 C685 0.950 . S
C679 C677 1.387 . S
C679 C681 1.390 . S
C679 H683 0.950 . S
H680 C676 0.950 . S
C681 C679 1.390 . S
C681 C682 1.387 . S
C681 H684 0.950 . S
C682 C681 1.387 . S
C682 C685 1.387 . S
H683 C679 0.950 . S
H684 C681 0.950 . S
C685 C676 1.390 . S
C685 H678 0.950 . S
C685 C682 1.387 . S
C686 C687 1.387 . S
C686 H690 0.950 . S
C686 C695 1.390 . S
C687 C686 1.387 . S
C687 C689 1.387 . S
H688 C695 0.950 . S
C689 C687 1.387 . S
C689 C691 1.390 . S
C689 H693 0.950 . S
H690 C686 0.950 . S
C691 C689 1.390 . S
C691 C692 1.387 . S
C691 H694 0.950 . S
C692 C691 1.387 . S
C692 C695 1.387 . S
H693 C689 0.950 . S
H694 C691 0.950 . S
C695 C686 1.390 . S
C695 H688 0.950 . S
C695 C692 1.387 . S
C696 C697 1.387 . S
C696 H700 0.950 . S
C696 C705 1.390 . S
C697 C696 1.387 . S
C697 C699 1.387 . S
H698 C705 0.950 . S
C699 C697 1.387 . S
C699 C701 1.390 . S
C699 H703 0.950 . S
H700 C696 0.950 . S
C701 C699 1.390 . S
C701 C702 1.387 . S
C701 H704 0.950 . S
C702 C701 1.387 . S
C702 C705 1.387 . S
H703 C699 0.950 . S
H704 C701 0.950 . S
C705 C696 1.390 . S
C705 H698 0.950 . S
C705 C702 1.387 . S
C706 C707 1.387 . S
C706 H710 0.950 . S
C706 C715 1.390 . S
C707 C706 1.387 . S
C707 C709 1.387 . S
H708 C715 0.950 . S
C709 C707 1.387 . S
C709 C711 1.390 . S
C709 H713 0.950 . S
H710 C706 0.950 . S
C711 C709 1.390 . S
C711 C712 1.387 . S
C711 H714 0.950 . S
C712 C711 1.387 . S
C712 C715 1.387 . S
H713 C709 0.950 . S
H714 C711 0.950 . S
C715 C706 1.390 . S
C715 H708 0.950 . S
C715 C712 1.387 . S
C716 C717 1.387 . S
C716 H720 0.950 . S
C716 C725 1.390 . S
C717 C716 1.387 . S
C717 C719 1.387 . S
H718 C725 0.950 . S
C719 C717 1.387 . S
C719 C721 1.390 . S
C719 H723 0.950 . S
H720 C716 0.950 . S
C721 C719 1.390 . S
C721 C722 1.387 . S
C721 H724 0.950 . S
C722 C721 1.387 . S
C722 C725 1.387 . S
H723 C719 0.950 . S
H724 C721 0.950 . S
C725 C716 1.390 . S
C725 H718 0.950 . S
C725 C722 1.387 . S
C726 C727 1.387 . S
C726 H730 0.950 . S
C726 C735 1.390 . S
C727 C726 1.387 . S
C727 C729 1.387 . S
H728 C735 0.950 . S
C729 C727 1.387 . S
C729 C731 1.390 . S
C729 H733 0.950 . S
H730 C726 0.950 . S
C731 C729 1.390 . S
C731 C732 1.387 . S
C731 H734 0.950 . S
C732 C731 1.387 . S
C732 C735 1.387 . S
H733 C729 0.950 . S
H734 C731 0.950 . S
C735 C726 1.390 . S
C735 H728 0.950 . S
C735 C732 1.387 . S
C736 C737 1.387 . S
C736 H740 0.950 . S
C736 C745 1.390 . S
C737 C736 1.387 . S
C737 C739 1.387 . S
H738 C745 0.950 . S
C739 C737 1.387 . S
C739 C741 1.390 . S
C739 H743 0.950 . S
H740 C736 0.950 . S
C741 C739 1.390 . S
C741 C742 1.387 . S
C741 H744 0.950 . S
C742 C741 1.387 . S
C742 C745 1.387 . S
H743 C739 0.950 . S
H744 C741 0.950 . S
C745 C736 1.390 . S
C745 H738 0.950 . S
C745 C742 1.387 . S
C746 C747 1.387 . S
C746 H750 0.950 . S
C746 C755 1.390 . S
C747 C746 1.387 . S
C747 C749 1.387 . S
H748 C755 0.950 . S
C749 C747 1.387 . S
C749 C751 1.390 . S
C749 H753 0.950 . S
H750 C746 0.950 . S
C751 C749 1.390 . S
C751 C752 1.387 . S
C751 H754 0.950 . S
C752 C751 1.387 . S
C752 C755 1.387 . S
H753 C749 0.950 . S
H754 C751 0.950 . S
C755 C746 1.390 . S
C755 H748 0.950 . S
C755 C752 1.387 . S
C756 C757 1.387 . S
C756 H760 0.950 . S
C756 C765 1.390 . S
C757 C756 1.387 . S
C757 C759 1.387 . S
H758 C765 0.950 . S
C759 C757 1.387 . S
C759 C761 1.390 . S
C759 H763 0.950 . S
H760 C756 0.950 . S
C761 C759 1.390 . S
C761 C762 1.387 . S
C761 H764 0.950 . S
C762 C761 1.387 . S
C762 C765 1.387 . S
H763 C759 0.950 . S
H764 C761 0.950 . S
C765 C756 1.390 . S
C765 H758 0.950 . S
C765 C762 1.387 . S
C766 C767 1.387 . S
C766 H770 0.950 . S
C766 C775 1.390 . S
C767 C766 1.387 . S
C767 C769 1.387 . S
H768 C775 0.950 . S
C769 C767 1.387 . S
C769 C771 1.390 . S
C769 H773 0.950 . S
H770 C766 0.950 . S
C771 C769 1.390 . S
C771 C772 1.387 . S
C771 H774 0.950 . S
C772 C771 1.387 . S
C772 C775 1.387 . S
H773 C769 0.950 . S
H774 C771 0.950 . S
C775 C766 1.390 . S
C775 H768 0.950 . S
C775 C772 1.387 . S
C776 C777 1.387 . S
C776 H780 0.950 . S
C776 C785 1.390 . S
C777 C776 1.387 . S
C777 C779 1.387 . S
H778 C785 0.950 . S
C779 C777 1.387 . S
C779 C781 1.390 . S
C779 H783 0.950 . S
H780 C776 0.950 . S
C781 C779 1.390 . S
C781 C782 1.387 . S
C781 H784 0.950 . S
C782 C781 1.387 . S
C782 C785 1.387 . S
H783 C779 0.950 . S
H784 C781 0.950 . S
C785 C776 1.390 . S
C785 H778 0.950 . S
C785 C782 1.387 . S
C786 C787 1.387 . S
C786 H790 0.950 . S
C786 C795 1.390 . S
C787 C786 1.387 . S
C787 C789 1.387 . S
H788 C795 0.950 . S
C789 C787 1.387 . S
C789 C791 1.390 . S
C789 H793 0.950 . S
H790 C786 0.950 . S
C791 C789 1.390 . S
C791 C792 1.387 . S
C791 H794 0.950 . S
C792 C791 1.387 . S
C792 C795 1.387 . S
H793 C789 0.950 . S
H794 C791 0.950 . S
C795 C786 1.390 . S
C795 H788 0.950 . S
C795 C792 1.387 . S
C796 C797 1.387 . S
C796 H800 0.950 . S
C796 C805 1.390 . S
C797 C796 1.387 . S
C797 C799 1.387 . S
H798 C805 0.950 . S
C799 C797 1.387 . S
C799 C801 1.390 . S
C799 H803 0.950 . S
H800 C796 0.950 . S
C801 C799 1.390 . S
C801 C802 1.387 . S
C801 H804 0.950 . S
C802 C801 1.387 . S
C802 C805 1.387 . S
H803 C799 0.950 . S
H804 C801 0.950 . S
C805 C796 1.390 . S
C805 H798 0.950 . S
C805 C802 1.387 . S
C806 C807 1.387 . S
C806 H810 0.950 . S
C806 C815 1.390 . S
C807 C806 1.387 . S
C807 C809 1.387 . S
H808 C815 0.950 . S
C809 C807 1.387 . S
C809 C811 1.390 . S
C809 H813 0.950 . S
H810 C806 0.950 . S
C811 C809 1.390 . S
C811 C812 1.387 . S
C811 H814 0.950 . S
C812 C811 1.387 . S
C812 C815 1.387 . S
H813 C809 0.950 . S
H814 C811 0.950 . S
C815 C806 1.390 . S
C815 H808 0.950 . S
C815 C812 1.387 . S
C816 C817 1.387 . S
C816 H820 0.950 . S
C816 C825 1.390 . S
C817 C816 1.387 . S
C817 C819 1.387 . S
H818 C825 0.950 . S
C819 C817 1.387 . S
C819 C821 1.390 . S
C819 H823 0.950 . S
H820 C816 0.950 . S
C821 C819 1.390 . S
C821 C822 1.387 . S
C821 H824 0.950 . S
C822 C821 1.387 . S
C822 C825 1.387 . S
H823 C819 0.950 . S
H824 C821 0.950 . S
C825 C816 1.390 . S
C825 H818 0.950 . S
C825 C822 1.387 . S
C826 C827 1.387 . S
C826 H830 0.950 . S
C826 C835 1.390 . S
C827 C826 1.387 . S
C827 C829 1.387 . S
H828 C835 0.950 . S
C829 C827 1.387 . S
C829 C831 1.390 . S
C829 H833 0.950 . S
H830 C826 0.950 . S
C831 C829 1.390 . S
C831 C832 1.387 . S
C831 H834 0.950 . S
C832 C831 1.387 . S
C832 C835 1.387 . S
H833 C829 0.950 . S
H834 C831 0.950 . S
C835 C826 1.390 . S
C835 H828 0.950 . S
C835 C832 1.387 . S
C602 C328 1.538 . S
C597 C15 1.547 . S
C612 C381 1.561 . S
C607 C55 1.568 . S
C622 C342 1.580 . S
C617 C101 1.563 . S
C632 C367 1.589 . S
C627 C141 1.592 . S
C642 C413 1.521 . S
C637 C2 1.497 . S
C652 C459 1.521 . S
C647 C61 1.502 . S
C657 C95 1.638 . S
C662 C526 1.633 . S
C672 C558 1.516 . S
C667 C135 1.522 . S
C682 C427 1.522 . S
C677 C42 1.491 . S
C687 C82 1.511 . S
C692 C473 1.547 . S
C702 C512 1.610 . S
C697 C122 1.651 . S
C712 C572 1.536 . S
C707 C21 1.510 . S
C717 C162 1.594 . S
C722 C388 1.584 . S
C732 C321 1.575 . S
C727 C221 1.572 . S
C737 C255 1.568 . S
C742 C374 1.561 . S
C747 C282 1.525 . S
C752 C335 1.537 . S
C762 C519 1.626 . S
C757 C181 1.665 . S
C772 C565 1.532 . S
C767 C202 1.538 . S
C782 C420 1.526 . S
C777 C242 1.526 . S
C787 C301 1.510 . S
C792 C480 1.528 . S
C802 C505 1.634 . S
C797 C215 1.644 . S
C812 C551 1.530 . S
C807 C261 1.532 . S
C822 C434 1.518 . S
C817 C295 1.524 . S
C827 C175 1.528 . S
C832 C466 1.527 . S
