# Generated by pormake.
# Topology zzz, (3,6)-cn, num edge types: 1
# Building blocks:
#     Node 0, Type 0, BuildingBlock: BETDAH_clean_linker_0, # of connection points: 3
#     Node 1, Type 0, BuildingBlock: BETDAH_clean_linker_0, # of connection points: 3
#     Node 2, Type 0, BuildingBlock: BETDAH_clean_linker_0, # of connection points: 3
#     Node 3, Type 0, BuildingBlock: BETDAH_clean_linker_0, # of connection points: 3
#     Node 4, Type 0, BuildingBlock: BETDAH_clean_linker_0, # of connection points: 3
#     Node 5, Type 0, BuildingBlock: BETDAH_clean_linker_0, # of connection points: 3
#     Node 6, Type 0, BuildingBlock: BETDAH_clean_linker_0, # of connection points: 3
#     Node 7, Type 0, BuildingBlock: BETDAH_clean_linker_0, # of connection points: 3
#     Node 8, Type 1, BuildingBlock: PAMTUU_clean_sbu_0, # of connection points: 6
#     Node 9, Type 1, BuildingBlock: PAMTUU_clean_sbu_0, # of connection points: 6
#     Node 10, Type 1, BuildingBlock: PAMTUU_clean_sbu_0, # of connection points: 6
#     Node 11, Type 1, BuildingBlock: PAMTUU_clean_sbu_0, # of connection points: 6
#     Edge 12, Type (0, 1), BuildingBlock: MIFKUJ_clean_linker_0, # of connection points: 2
#     Edge 13, Type (0, 1), BuildingBlock: MIFKUJ_clean_linker_0, # of connection points: 2
#     Edge 14, Type (0, 1), BuildingBlock: MIFKUJ_clean_linker_0, # of connection points: 2
#     Edge 15, Type (0, 1), BuildingBlock: MIFKUJ_clean_linker_0, # of connection points: 2
#     Edge 16, Type (0, 1), BuildingBlock: MIFKUJ_clean_linker_0, # of connection points: 2
#     Edge 17, Type (0, 1), BuildingBlock: MIFKUJ_clean_linker_0, # of connection points: 2
#     Edge 18, Type (0, 1), BuildingBlock: MIFKUJ_clean_linker_0, # of connection points: 2
#     Edge 19, Type (0, 1), BuildingBlock: MIFKUJ_clean_linker_0, # of connection points: 2
#     Edge 20, Type (0, 1), BuildingBlock: MIFKUJ_clean_linker_0, # of connection points: 2
#     Edge 21, Type (0, 1), BuildingBlock: MIFKUJ_clean_linker_0, # of connection points: 2
#     Edge 22, Type (0, 1), BuildingBlock: MIFKUJ_clean_linker_0, # of connection points: 2
#     Edge 23, Type (0, 1), BuildingBlock: MIFKUJ_clean_linker_0, # of connection points: 2
#     Edge 24, Type (0, 1), BuildingBlock: MIFKUJ_clean_linker_0, # of connection points: 2
#     Edge 25, Type (0, 1), BuildingBlock: MIFKUJ_clean_linker_0, # of connection points: 2
#     Edge 26, Type (0, 1), BuildingBlock: MIFKUJ_clean_linker_0, # of connection points: 2
#     Edge 27, Type (0, 1), BuildingBlock: MIFKUJ_clean_linker_0, # of connection points: 2
#     Edge 28, Type (0, 1), BuildingBlock: MIFKUJ_clean_linker_0, # of connection points: 2
#     Edge 29, Type (0, 1), BuildingBlock: MIFKUJ_clean_linker_0, # of connection points: 2
#     Edge 30, Type (0, 1), BuildingBlock: MIFKUJ_clean_linker_0, # of connection points: 2
#     Edge 31, Type (0, 1), BuildingBlock: MIFKUJ_clean_linker_0, # of connection points: 2
#     Edge 32, Type (0, 1), BuildingBlock: MIFKUJ_clean_linker_0, # of connection points: 2
#     Edge 33, Type (0, 1), BuildingBlock: MIFKUJ_clean_linker_0, # of connection points: 2
#     Edge 34, Type (0, 1), BuildingBlock: MIFKUJ_clean_linker_0, # of connection points: 2
#     Edge 35, Type (0, 1), BuildingBlock: MIFKUJ_clean_linker_0, # of connection points: 2
# Relax obj value: 0.185
# Max RMSD: 0.204
# Mean RMSD: 0.121
data_MOF--net-zzz--node1-PAMTUU_clean_sbu_0--node2-BETDAH_clean_linker_0--edge1-MIFKUJ_clean_linker_0
_symmetry_space_group_name_H-M    P1
_symmetry_Int_Tables_number       1
_symmetry_cell_setting            triclinic
loop_
_symmetry_equiv_pos_as_xyz
'x, y, z'
_cell_length_a     66.99934
_cell_length_b     70.249502
_cell_length_c     19.819408
_cell_angle_alpha  98.978178
_cell_angle_beta   89.894498
_cell_angle_gamma 91.629914
loop_
_atom_site_label
_atom_site_type_symbol
_atom_site_fract_x
_atom_site_fract_y
_atom_site_fract_z
_atom_type_partial_charge
H0 H 0.81848 0.50872 0.29975 0.0
H1 H 0.75614 0.50692 0.25006 0.0
H2 H 0.77489 0.50169 0.45421 0.0
C3 C 0.80302 0.50786 0.31544 0.0
C4 C 0.79873 0.50581 0.38341 0.0
C5 C 0.78775 0.5081 0.26701 0.0
C6 C 0.76784 0.5063 0.28706 0.0
C7 C 0.76297 0.5038 0.35416 0.0
C8 C 0.77854 0.50346 0.40224 0.0
N9 N 0.74262 0.50161 0.37397 0.0
C10 C 0.72633 0.5016 0.32961 0.0
H11 H 0.01464 0.79113 0.34521 0.0
H12 H 0.99602 0.73419 0.25144 0.0
H13 H 0.99618 0.74937 0.47113 0.0
C14 C 1.01002 0.77646 0.35003 0.0
C15 C 1.00636 0.77169 0.41485 0.0
C16 C 1.00609 0.76312 0.29116 0.0
C17 C 0.99929 0.7444 0.2972 0.0
C18 C 0.99623 0.7392 0.36256 0.0
C19 C 0.99928 0.75309 0.42101 0.0
N20 N 0.9896 0.72037 0.37126 0.0
C21 C 0.99043 0.7045 0.31996 0.0
H22 H 0.73968 0.96405 0.34769 0.0
H23 H 0.79656 0.97813 0.26711 0.0
H24 H 0.78043 0.00269 0.47285 0.0
C25 C 0.75424 0.97112 0.35567 0.0
C26 C 0.75828 0.98322 0.41758 0.0
C27 C 0.76779 0.9695 0.30127 0.0
C28 C 0.78633 0.97927 0.30982 0.0
C29 C 0.79128 0.99094 0.37219 0.0
C30 C 0.77698 0.9932 0.42555 0.0
N31 N 0.81017 0.00097 0.38155 0.0
C32 C 0.82528 0.99985 0.33215 0.0
H33 H 0.54849 0.70802 0.10735 0.0
H34 H 0.53282 0.76197 0.04785 0.0
H35 H 0.55528 0.76017 0.25086 0.0
C36 C 0.5478 0.72361 0.11892 0.0
C37 C 0.55297 0.73283 0.18423 0.0
C38 C 0.54013 0.73388 0.07018 0.0
C39 C 0.53889 0.75404 0.08539 0.0
C40 C 0.54504 0.76371 0.15026 0.0
C41 C 0.55143 0.7529 0.20004 0.0
N42 N 0.54431 0.78407 0.16848 0.0
C43 C 0.54285 0.79717 0.12275 0.0
H44 H 0.2361 0.53143 0.25872 0.0
H45 H 0.29466 0.52211 0.33124 0.0
H46 H 0.27263 0.48856 0.1434 0.0
C47 C 0.25007 0.52395 0.25139 0.0
C48 C 0.25227 0.50937 0.19514 0.0
C49 C 0.2653 0.52856 0.30001 0.0
C50 C 0.2832 0.51868 0.29244 0.0
C51 C 0.28615 0.5044 0.23534 0.0
C52 C 0.27062 0.49986 0.18656 0.0
N53 N 0.30429 0.49412 0.22671 0.0
C54 C 0.32026 0.49687 0.273 0.0
H55 H 0.069 0.20145 0.20387 0.0
H56 H 0.06625 0.26021 0.30334 0.0
H57 H 0.09224 0.24699 0.1025 0.0
C58 C 0.07225 0.21669 0.20415 0.0
C59 C 0.08155 0.22262 0.14744 0.0
C60 C 0.0664 0.23012 0.26001 0.0
C61 C 0.07071 0.24982 0.2601 0.0
C62 C 0.08018 0.25595 0.20307 0.0
C63 C 0.08535 0.24228 0.14683 0.0
N64 N 0.08438 0.27569 0.19959 0.0
C65 C 0.07899 0.29083 0.24934 0.0
H66 H 0.31586 0.97666 0.23007 0.0
H67 H 0.25545 0.98277 0.30078 0.0
H68 H 0.27718 0.01461 0.14497 0.0
C69 C 0.30131 0.98285 0.22708 0.0
C70 C 0.29853 0.99605 0.18183 0.0
C71 C 0.28588 0.97793 0.26985 0.0
C72 C 0.26728 0.98648 0.26754 0.0
C73 C 0.26398 0.99977 0.22273 0.0
C74 C 0.27961 0.00427 0.17916 0.0
N75 N 0.24532 0.00905 0.22147 0.0
C76 C 0.22948 0.00723 0.26651 0.0
H77 H 0.51676 0.29921 0.41672 0.0
H78 H 0.51664 0.25015 0.52268 0.0
H79 H 0.48678 0.24665 0.32788 0.0
C80 C 0.51297 0.28415 0.41847 0.0
C81 C 0.50153 0.27382 0.36578 0.0
C82 C 0.51853 0.27584 0.47516 0.0
C83 C 0.51278 0.25653 0.47827 0.0
C84 C 0.50158 0.24579 0.42412 0.0
C85 C 0.49582 0.25467 0.36859 0.0
N86 N 0.49504 0.22638 0.42432 0.0
C87 C 0.50223 0.21391 0.46611 0.0
Tb88 Tb 1.01062 0.00975 0.72782 0.0
Tb89 Tb 0.03751 0.99388 0.84376 0.0
C90 C 0.99184 0.00177 0.86566 0.0
C91 C 0.9944 0.04446 0.62359 0.0
C92 C 1.00027 0.08231 0.59508 0.0
C93 C 0.98216 0.07204 0.57775 0.0
C94 C 0.97923 0.05327 0.59218 0.0
C95 C 0.01254 0.05458 0.64026 0.0
C96 C 0.01545 0.07331 0.62619 0.0
C97 C 0.99096 0.02546 0.64431 0.0
O98 O 0.02038 0.0344 0.80157 0.0
O99 O 0.04861 0.02328 0.84602 0.0
O100 O 0.05609 0.99137 0.7521 0.0
O101 O 0.04151 0.01371 0.69649 0.0
O102 O 0.04552 0.99391 0.9464 0.0
O103 O 0.05782 0.9735 0.86553 0.0
O104 O 0.01731 0.97065 0.79973 0.0
O105 O 0.01307 0.97894 0.69378 0.0
O106 O 0.9894 0.99945 0.79899 0.0
O107 O 1.0098 0.00432 0.89269 0.0
C108 C 0.0378 0.03749 0.83212 0.0
O109 O 1.00462 0.01283 0.62602 0.0
O110 O 0.98608 0.02602 0.7082 0.0
C111 C 0.05652 0.00263 0.70486 0.0
C112 C 0.04776 0.96158 0.96339 0.0
C113 C 0.03433 0.92683 0.0044 0.0
C114 C 0.05457 0.93273 0.01146 0.0
C115 C 0.06125 0.94996 0.99073 0.0
C116 C 0.02743 0.95605 0.95845 0.0
C117 C 0.02077 0.93881 0.97872 0.0
C118 C 0.05504 0.97787 0.93107 0.0
C119 C 0.0132 0.96593 0.73465 0.0
H120 H 0.97012 0.07864 0.55423 0.0
H121 H 0.96505 0.04576 0.5798 0.0
H122 H 0.02439 0.04806 0.66504 0.0
H123 H 0.02967 0.08067 0.63926 0.0
H124 H 0.06537 0.92365 0.0304 0.0
H125 H 0.07703 0.95384 0.99374 0.0
H126 H 0.0168 0.96475 0.93674 0.0
H127 H 1.00508 0.93471 0.97335 0.0
Tb128 Tb 0.51545 0.99129 0.70743 0.0
Tb129 Tb 0.53364 0.01473 0.84798 0.0
C130 C 0.52885 0.97056 0.82527 0.0
C131 C 0.47805 0.96367 0.59916 0.0
C132 C 0.43916 0.94707 0.59761 0.0
C133 C 0.45519 0.93618 0.56818 0.0
C134 C 0.47451 0.94442 0.56917 0.0
C135 C 0.46206 0.97447 0.62868 0.0
C136 C 0.44288 0.9663 0.62781 0.0
C137 C 0.49852 0.97206 0.6047 0.0
O138 O 0.48913 0.00233 0.76458 0.0
O139 O 0.50258 0.00852 0.87231 0.0
O140 O 0.5193 0.036 0.79761 0.0
O141 O 0.52377 0.02033 0.68894 0.0
O142 O 0.5342 0.01834 0.95496 0.0
O143 O 0.55302 0.03613 0.90032 0.0
O144 O 0.55835 0.01345 0.77523 0.0
O145 O 0.54779 0.98791 0.69529 0.0
O146 O 0.51373 0.97271 0.7857 0.0
O147 O 0.54183 0.98478 0.84162 0.0
C148 C 0.48701 0.00599 0.83131 0.0
O149 O 0.49998 0.99085 0.61529 0.0
O150 O 0.51052 0.96454 0.64433 0.0
C151 C 0.5206 0.03625 0.7317 0.0
C152 C 0.56803 0.02225 0.98707 0.0
C153 C 0.60417 0.00492 0.01005 0.0
C154 C 0.60401 0.02444 0.00186 0.0
C155 C 0.58604 0.03304 0.99038 0.0
C156 C 0.56814 0.00308 0.9998 0.0
C157 C 0.58603 0.99452 0.0111 0.0
C158 C 0.55013 0.02953 0.95767 0.0
C159 C 0.56199 1.00001 0.72292 0.0
H160 H 0.45281 0.92132 0.54462 0.0
H161 H 0.48669 0.93575 0.54699 0.0
H162 H 0.46432 0.98931 0.65254 0.0
H163 H 0.43087 0.97529 0.64944 0.0
H164 H 0.61784 0.03277 1.00106 0.0
H165 H 0.58635 0.04775 0.98017 0.0
H166 H 0.55455 0.99427 0.99754 0.0
H167 H 0.58572 0.97959 0.01899 0.0
Tb168 Tb 0.50912 0.5013 0.86356 0.0
Tb169 Tb 0.53877 0.51084 0.73943 0.0
C170 C 0.49227 0.50639 0.71923 0.0
C171 C 0.48837 0.4754 0.99671 0.0
C172 C 0.48952 0.4414 0.05616 0.0
C173 C 0.47122 0.44997 0.04621 0.0
C174 C 0.47068 0.4668 0.01683 0.0
C175 C 0.50672 0.46721 0.0078 0.0
C176 C 0.50729 0.45046 0.03766 0.0
C177 C 0.48734 0.49144 0.95719 0.0
O178 O 0.52441 0.47486 0.82839 0.0
O179 O 0.53366 0.47962 0.72015 0.0
O180 O 0.55836 0.50111 0.8143 0.0
O181 O 0.53864 0.50883 0.90878 0.0
O182 O 0.56556 0.52345 0.71046 0.0
O183 O 0.54419 0.51058 0.63443 0.0
O184 O 0.53434 0.53751 0.80885 0.0
O185 O 0.50391 0.53125 0.8549 0.0
O186 O 0.49136 0.49642 0.76999 0.0
O187 O 0.50848 0.51643 0.70829 0.0
C188 C 0.53007 0.46823 0.76592 0.0
O189 O 0.5014 0.50479 0.96774 0.0
O190 O 0.48388 0.48615 0.89235 0.0
C191 C 0.55618 0.5047 0.88104 0.0
C192 C 0.56129 0.53911 0.61399 0.0
C193 C 0.56272 0.57254 0.55043 0.0
C194 C 0.56258 0.5741 0.62205 0.0
C195 C 0.56174 0.55759 0.65348 0.0
C196 C 0.56157 0.53751 0.54254 0.0
C197 C 0.5622 0.55403 0.51105 0.0
C198 C 0.56026 0.52148 0.64644 0.0
C199 C 0.51775 0.54346 0.83944 0.0
H200 H 0.45721 0.44329 0.0587 0.0
H201 H 0.45636 0.47274 0.00765 0.0
H202 H 0.52056 0.47347 0.99181 0.0
H203 H 0.52168 0.44449 0.04548 0.0
H204 H 0.56276 0.5881 0.65394 0.0
H205 H 0.56136 0.55933 0.70872 0.0
H206 H 0.56123 0.52343 0.51101 0.0
H207 H 0.56247 0.55232 0.45579 0.0
Tb208 Tb 0.03713 0.51046 0.71684 0.0
Tb209 Tb 0.01832 0.48593 0.82881 0.0
C210 C 0.02096 0.53025 0.8546 0.0
C211 C 0.07219 0.54261 0.64693 0.0
C212 C 0.10961 0.56198 0.65969 0.0
C213 C 0.09756 0.56239 0.60183 0.0
C214 C 0.07899 0.55269 0.59541 0.0
C215 C 0.08372 0.54296 0.70624 0.0
C216 C 0.10235 0.55248 0.71242 0.0
C217 C 0.0537 0.53082 0.63776 0.0
O218 O 0.06303 0.50094 0.76844 0.0
O219 O 0.04859 0.49332 0.8666 0.0
O220 O 0.0357 0.46644 0.75824 0.0
O221 O 0.03104 0.4812 0.66506 0.0
O222 O 0.01198 0.48325 0.93082 0.0
O223 O 1.00278 0.46095 0.84805 0.0
O224 O 0.99448 0.48631 0.75407 0.0
O225 O 1.00482 0.51182 0.70182 0.0
O226 O 0.03671 0.52893 0.81528 0.0
O227 O 1.00865 0.51542 0.85357 0.0
C228 C 0.06449 0.49701 0.83106 0.0
O229 O 0.05609 0.51232 0.63365 0.0
O230 O 0.03919 0.53675 0.67894 0.0
C231 C 0.03502 0.46577 0.69186 0.0
C232 C 0.97855 0.47168 0.92846 0.0
C233 C 0.93745 0.47888 0.92465 0.0
C234 C 0.94416 0.45985 0.91337 0.0
C235 C 0.96458 0.45629 0.91514 0.0
C236 C 0.9717 0.49061 0.94315 0.0
C237 C 0.95144 0.49416 0.94093 0.0
C238 C 0.99972 0.46862 0.91137 0.0
C239 C 0.99084 0.49938 0.71528 0.0
H240 H 0.10295 0.56934 0.55992 0.0
H241 H 0.07025 0.55254 0.54937 0.0
H242 H 0.07859 0.53537 0.74683 0.0
H243 H 0.11132 0.55195 0.75745 0.0
H244 H 0.93368 0.44775 0.90189 0.0
H245 H 0.96953 0.44161 0.90255 0.0
H246 H 0.98204 0.50286 0.95242 0.0
H247 H 0.94685 0.509 0.94907 0.0
H248 H 0.19357 0.02279 0.25432 0.0
H249 H 0.16456 0.0219 0.3297 0.0
H250 H 0.19773 0.98907 0.45582 0.0
H251 H 0.2267 0.98985 0.3798 0.0
H252 H 0.1603 0.97443 0.43614 0.0
H253 H 0.18948 0.03752 0.50588 0.0
H254 H 0.20275 0.06966 0.49053 0.0
H255 H 0.14592 0.08338 0.41367 0.0
H256 H 0.13238 0.0512 0.42767 0.0
H257 H 0.09229 0.98503 0.7152 0.0
H258 H 0.12176 0.98578 0.64275 0.0
H259 H 0.0912 0.02151 0.52024 0.0
H260 H 0.06185 0.02126 0.59372 0.0
H261 H 0.12781 0.03458 0.53954 0.0
H262 H 0.09864 0.97151 0.46741 0.0
H263 H 0.08511 0.93944 0.48257 0.0
H264 H 0.1415 0.92564 0.56263 0.0
H265 H 0.15529 0.95775 0.54879 0.0
C266 C 0.19462 0.01539 0.29818 0.0
C267 C 0.21232 0.00641 0.31138 0.0
C268 C 0.17807 0.01495 0.34148 0.0
C269 C 0.17891 0.00561 0.39927 0.0
C270 C 0.19662 0.9964 0.41182 0.0
C271 C 0.2132 0.99687 0.36845 0.0
C272 C 0.16132 0.0054 0.44619 0.0
C273 C 0.15339 0.98762 0.45948 0.0
C274 C 0.15187 0.02252 0.4757 0.0
C275 C 0.15998 0.04187 0.46719 0.0
C276 C 0.17986 0.04733 0.48517 0.0
C277 C 0.18742 0.06557 0.47681 0.0
C278 C 0.1752 0.07853 0.45096 0.0
C279 C 0.15538 0.07331 0.43358 0.0
C280 C 0.14775 0.05508 0.44177 0.0
C281 C 0.09177 0.99304 0.6728 0.0
C282 C 0.07455 0.00301 0.66038 0.0
C283 C 0.10868 0.99338 0.631 0.0
C284 C 0.10876 0.00344 0.5749 0.0
C285 C 0.09163 0.01358 0.56288 0.0
C286 C 0.07477 0.01338 0.60499 0.0
C287 C 0.12667 0.0036 0.52926 0.0
C288 C 0.1347 0.02138 0.51623 0.0
C289 C 0.13615 0.98646 0.4998 0.0
C290 C 0.12794 0.9671 0.50768 0.0
C291 C 0.10812 0.96168 0.48868 0.0
C292 C 0.10041 0.94349 0.49697 0.0
C293 C 0.11242 0.93053 0.52372 0.0
C294 C 0.1322 0.93571 0.54201 0.0
C295 C 0.13998 0.95389 0.5339 0.0
H296 H 0.10642 0.91646 0.53013 0.0
H297 H 0.18108 0.09265 0.44455 0.0
H298 H 0.52062 0.18214 0.408 0.0
H299 H 0.52523 0.15259 0.45695 0.0
H300 H 0.49943 0.17947 0.64652 0.0
H301 H 0.49487 0.20916 0.59724 0.0
H302 H 0.53216 0.15704 0.66637 0.0
H303 H 0.47104 0.15023 0.53705 0.0
H304 H 0.45007 0.1506 0.43517 0.0
H305 H 0.48535 0.1066 0.3215 0.0
H306 H 0.50672 0.10617 0.42249 0.0
H307 H 0.50988 0.07112 0.80238 0.0
H308 H 0.50802 0.10188 0.7602 0.0
H309 H 0.52675 0.07469 0.56074 0.0
H310 H 0.52813 0.04373 0.60216 0.0
H311 H 0.49767 0.09779 0.54748 0.0
H312 H 0.55887 0.1042 0.67467 0.0
H313 H 0.58039 0.1037 0.77516 0.0
H314 H 0.54605 0.14809 0.89095 0.0
H315 H 0.52414 0.14867 0.79138 0.0
C316 C 0.51632 0.18182 0.46056 0.0
C317 C 0.50754 0.19782 0.49923 0.0
C318 C 0.51882 0.16492 0.48832 0.0
C319 C 0.51244 0.16371 0.55514 0.0
C320 C 0.50445 0.18007 0.59488 0.0
C321 C 0.50188 0.197 0.56689 0.0
C322 C 0.5132 0.14508 0.58193 0.0
C323 C 0.52442 0.14413 0.64094 0.0
C324 C 0.50346 0.12812 0.54788 0.0
C325 C 0.4906 0.12831 0.48714 0.0
C326 C 0.47442 0.14075 0.49017 0.0
C327 C 0.46245 0.14095 0.43261 0.0
C328 C 0.4664 0.12867 0.37185 0.0
C329 C 0.48232 0.11613 0.36857 0.0
C330 C 0.49436 0.11589 0.42597 0.0
C331 C 0.51362 0.07165 0.74949 0.0
C332 C 0.51923 0.05492 0.70573 0.0
C333 C 0.51266 0.08932 0.72552 0.0
C334 C 0.51757 0.09076 0.65749 0.0
C335 C 0.52294 0.07402 0.61349 0.0
C336 C 0.52375 0.05629 0.63728 0.0
C337 C 0.51678 0.10961 0.63187 0.0
C338 C 0.50548 0.11065 0.57303 0.0
C339 C 0.52655 0.1266 0.66589 0.0
C340 C 0.53975 0.12634 0.72576 0.0
C341 C 0.55582 0.11376 0.72172 0.0
C342 C 0.5681 0.11347 0.77848 0.0
C343 C 0.56455 0.12582 0.83945 0.0
C344 C 0.54875 0.13852 0.84372 0.0
C345 C 0.53641 0.13884 0.78711 0.0
H346 H 0.57408 0.12558 0.88335 0.0
H347 H 0.45711 0.12883 0.32734 0.0
H348 H 0.32218 0.48588 0.39776 0.0
H349 H 0.35126 0.48848 0.47434 0.0
H350 H 0.3857 0.5155 0.32924 0.0
H351 H 0.35666 0.51254 0.25233 0.0
H352 H 0.40736 0.48947 0.37518 0.0
H353 H 0.36758 0.54134 0.48075 0.0
H354 H 0.33713 0.55661 0.53081 0.0
H355 H 0.33713 0.52045 0.68658 0.0
H356 H 0.36743 0.50475 0.63686 0.0
H357 H 0.48932 0.52138 0.59931 0.0
H358 H 0.46016 0.52061 0.52435 0.0
H359 H 0.4257 0.49047 0.66052 0.0
H360 H 0.45471 0.49117 0.73565 0.0
H361 H 0.40422 0.51881 0.61924 0.0
H362 H 0.44363 0.46665 0.51206 0.0
H363 H 0.47375 0.45104 0.46075 0.0
H364 H 0.47428 0.48794 0.3072 0.0
H365 H 0.44433 0.50399 0.35827 0.0
C366 C 0.33596 0.49245 0.38261 0.0
C367 C 0.33724 0.49909 0.3195 0.0
C368 C 0.35257 0.49403 0.42646 0.0
C369 C 0.37075 0.5024 0.40825 0.0
C370 C 0.37193 0.509 0.34479 0.0
C371 C 0.35532 0.50739 0.30094 0.0
C372 C 0.38863 0.5039 0.45444 0.0
C373 C 0.40671 0.49618 0.42825 0.0
C374 C 0.38783 0.51224 0.52434 0.0
C375 C 0.36968 0.52173 0.55465 0.0
C376 C 0.36101 0.53654 0.52538 0.0
C377 C 0.34379 0.54529 0.55374 0.0
C378 C 0.33517 0.53947 0.61173 0.0
C379 C 0.3438 0.52492 0.6416 0.0
C380 C 0.36101 0.5161 0.61338 0.0
C381 C 0.47555 0.5146 0.61346 0.0
C382 C 0.47449 0.50628 0.67364 0.0
C383 C 0.45886 0.51411 0.5703 0.0
C384 C 0.44067 0.50534 0.58626 0.0
C385 C 0.4395 0.49732 0.64686 0.0
C386 C 0.45619 0.49767 0.68974 0.0
C387 C 0.42291 0.50441 0.53985 0.0
C388 C 0.40486 0.5122 0.56605 0.0
C389 C 0.42374 0.49618 0.46991 0.0
C390 C 0.44187 0.48668 0.4395 0.0
C391 C 0.45029 0.47158 0.46778 0.0
C392 C 0.46731 0.46262 0.43865 0.0
C393 C 0.47596 0.46853 0.38087 0.0
C394 C 0.46759 0.4834 0.35205 0.0
C395 C 0.45059 0.49243 0.38106 0.0
H396 H 0.48912 0.46156 0.35832 0.0
H397 H 0.32183 0.54625 0.63358 0.0
H398 H 0.102 0.32254 0.28679 0.0
H399 H 0.09316 0.35147 0.36598 0.0
H400 H 0.03567 0.32524 0.39953 0.0
H401 H 0.04453 0.29632 0.3194 0.0
H402 H 0.03196 0.3621 0.38079 0.0
H403 H 0.07149 0.32825 0.52009 0.0
H404 H 0.10071 0.31086 0.55113 0.0
H405 H 0.13822 0.36112 0.54456 0.0
H406 H 0.10926 0.37874 0.51251 0.0
H407 H 0.04025 0.4307 0.73094 0.0
H408 H 0.04605 0.40004 0.65835 0.0
H409 H 0.04423 0.42807 0.47973 0.0
H410 H 0.03799 0.45886 0.55212 0.0
H411 H 0.07559 0.38858 0.57715 0.0
H412 H 0.02543 0.3965 0.34544 0.0
H413 H 0.99442 0.41244 0.3219 0.0
H414 H 0.97456 0.41099 0.52719 0.0
H415 H 1.0053 0.3948 0.55166 0.0
C416 C 0.08755 0.323 0.31154 0.0
C417 C 0.07393 0.30739 0.29793 0.0
C418 C 0.08252 0.33945 0.35671 0.0
C419 C 0.06382 0.34044 0.38912 0.0
C420 C 0.05017 0.32476 0.3751 0.0
C421 C 0.05523 0.30828 0.3298 0.0
C422 C 0.05856 0.35795 0.43706 0.0
C423 C 0.04147 0.36788 0.42382 0.0
C424 C 0.07076 0.36529 0.49392 0.0
C425 C 0.08822 0.35476 0.51331 0.0
C426 C 0.08599 0.33555 0.52474 0.0
C427 C 0.10251 0.32566 0.54261 0.0
C428 C 0.12132 0.33487 0.54966 0.0
C429 C 0.12364 0.354 0.53901 0.0
C430 C 0.10718 0.36396 0.52106 0.0
C431 C 0.04104 0.43039 0.6762 0.0
C432 C 0.03863 0.44725 0.6473 0.0
C433 C 0.0444 0.41283 0.63478 0.0
C434 C 0.04542 0.41171 0.5636 0.0
C435 C 0.04318 0.42853 0.5345 0.0
C436 C 0.0397 0.44614 0.57595 0.0
C437 C 0.0492 0.39297 0.52019 0.0
C438 C 0.06604 0.3828 0.53423 0.0
C439 C 0.0365 0.3852 0.4651 0.0
C440 C 0.01777 0.39461 0.45052 0.0
C441 C 0.0144 0.3995 0.38545 0.0
C442 C 0.99688 0.4086 0.37197 0.0
C443 C 0.98256 0.41279 0.42309 0.0
C444 C 0.98569 0.40781 0.48772 0.0
C445 C 1.00318 0.39869 0.50143 0.0
H446 H 0.96902 0.41986 0.41259 0.0
H447 H 0.13408 0.32719 0.56351 0.0
H448 H 0.84891 0.02976 0.30681 0.0
H449 H 0.87652 0.02898 0.22489 0.0
H450 H 0.86575 0.96789 0.16364 0.0
H451 H 0.83825 0.9687 0.24649 0.0
H452 H 0.90476 0.9751 0.17455 0.0
H453 H 0.85126 0.00101 0.06248 0.0
H454 H 0.82397 0.023 0.04948 0.0
H455 H 0.86558 0.07122 0.07649 0.0
H456 H 0.89309 0.04955 0.0906 0.0
H457 H 0.95202 0.99758 0.83049 0.0
H458 H 0.92327 0.99585 0.90609 0.0
H459 H 0.96269 0.00279 0.08045 0.0
H460 H 0.99145 0.00424 0.00532 0.0
H461 H 0.90791 0.02032 0.00572 0.0
H462 H 0.94322 0.97814 0.20377 0.0
H463 H 0.96911 0.95403 0.20748 0.0
H464 H 0.96124 0.93414 0.99291 0.0
H465 H 0.935 0.95782 0.98815 0.0
C466 C 0.85244 0.0162 0.27565 0.0
C467 C 0.84145 0.99931 0.2826 0.0
C468 C 0.86819 0.01575 0.22863 0.0
C469 C 0.87323 0.9984 0.18713 0.0
C470 C 0.86226 0.98146 0.19477 0.0
C471 C 0.84649 0.98193 0.24189 0.0
C472 C 0.88987 0.99798 0.13603 0.0
C473 C 0.90543 0.98502 0.13775 0.0
C474 C 0.8907 0.01058 0.08661 0.0
C475 C 0.8742 0.02367 0.07823 0.0
C476 C 0.85457 0.01632 0.06618 0.0
C477 C 0.83907 0.02873 0.05852 0.0
C478 C 0.84303 0.0485 0.06232 0.0
C479 C 0.86253 0.05591 0.07365 0.0
C480 C 0.87808 0.04357 0.08142 0.0
C481 C 0.95461 0.99872 0.88491 0.0
C482 C 0.97416 0.00102 0.91151 0.0
C483 C 0.9381 0.99778 0.92823 0.0
C484 C 0.94069 0.99898 0.99924 0.0
C485 C 0.96019 0.00149 0.02592 0.0
C486 C 0.97668 0.00244 0.98271 0.0
C487 C 0.92305 0.99778 0.04536 0.0
C488 C 0.90728 0.01043 0.04264 0.0
C489 C 0.92185 0.98461 0.09284 0.0
C490 C 0.93728 0.96995 0.09551 0.0
C491 C 0.94692 0.96855 0.15745 0.0
C492 C 0.96167 0.95496 0.15973 0.0
C493 C 0.96689 0.94263 0.1004 0.0
C494 C 0.95724 0.94376 0.03877 0.0
C495 C 0.94243 0.95726 0.03627 0.0
H496 H 0.97836 0.93217 0.1022 0.0
H497 H 0.83101 0.05808 0.05635 0.0
H498 H 0.51147 0.80828 0.05364 0.0
H499 H 0.51015 0.83711 0.99781 0.0
H500 H 0.57194 0.85068 0.05075 0.0
H501 H 0.57312 0.82199 0.10708 0.0
H502 H 0.55017 0.88196 0.08117 0.0
H503 H 0.5577 0.83336 0.88564 0.0
H504 H 0.5497 0.80305 0.80852 0.0
H505 H 0.49149 0.82339 0.77175 0.0
H506 H 0.49903 0.85373 0.84944 0.0
H507 H 0.5616 0.95841 0.8874 0.0
H508 H 0.56523 0.92812 0.93171 0.0
H509 H 0.50466 0.91113 0.87112 0.0
H510 H 0.50127 0.94103 0.82398 0.0
H511 H 0.52695 0.88135 0.84334 0.0
H512 H 0.51936 0.92974 0.04292 0.0
H513 H 0.52816 0.96039 0.11702 0.0
H514 H 0.58715 0.94049 0.14479 0.0
H515 H 0.57877 0.9098 0.07015 0.0
C516 C 0.5248 0.81732 0.05229 0.0
C517 C 0.54244 0.81295 0.0838 0.0
C518 C 0.52407 0.83377 0.02044 0.0
C519 C 0.541 0.84607 0.01958 0.0
C520 C 0.55869 0.84147 0.05066 0.0
C521 C 0.55941 0.82504 0.0824 0.0
C522 C 0.5401 0.86407 0.98852 0.0
C523 C 0.54533 0.88178 0.02885 0.0
C524 C 0.53345 0.86397 0.92066 0.0
C525 C 0.52886 0.84574 0.87391 0.0
C526 C 0.54313 0.8313 0.86156 0.0
C527 C 0.53869 0.81413 0.81766 0.0
C528 C 0.52008 0.81127 0.7854 0.0
C529 C 0.50589 0.82561 0.79685 0.0
C530 C 0.51024 0.84281 0.84077 0.0
C531 C 0.54905 0.94821 0.8834 0.0
C532 C 0.5311 0.95219 0.85236 0.0
C533 C 0.55111 0.9309 0.90914 0.0
C534 C 0.5351 0.91739 0.90608 0.0
C535 C 0.51725 0.92127 0.87432 0.0
C536 C 0.51529 0.93843 0.84754 0.0
C537 C 0.53683 0.89927 0.93616 0.0
C538 C 0.53176 0.88154 0.89567 0.0
C539 C 0.54364 0.89934 0.0039 0.0
C540 C 0.54848 0.91754 0.05054 0.0
C541 C 0.53423 0.93193 0.06469 0.0
C542 C 0.53914 0.94931 0.10675 0.0
C543 C 0.55822 0.95241 0.13545 0.0
C544 C 0.57238 0.93808 0.12247 0.0
C545 C 0.56755 0.92068 0.08038 0.0
H546 H 0.56201 0.9659 0.16784 0.0
H547 H 0.51668 0.79796 0.75141 0.0
H548 H 0.68832 0.51073 0.36452 0.0
H549 H 0.65964 0.51096 0.28758 0.0
H550 H 0.6974 0.49282 0.11425 0.0
H551 H 0.72605 0.49263 0.19131 0.0
H552 H 0.67332 0.52104 0.08847 0.0
H553 H 0.6644 0.46113 0.17341 0.0
H554 H 0.66121 0.43999 0.26141 0.0
H555 H 0.60948 0.47019 0.34274 0.0
H556 H 0.61253 0.49168 0.25573 0.0
H557 H 0.595 0.49636 0.84431 0.0
H558 H 0.62387 0.49553 0.91909 0.0
H559 H 0.58664 0.51105 0.09567 0.0
H560 H 0.55765 0.51156 0.02135 0.0
H561 H 0.61078 0.48385 0.11873 0.0
H562 H 0.61973 0.54401 0.03537 0.0
H563 H 0.62282 0.56537 0.94806 0.0
H564 H 0.67432 0.53516 0.86474 0.0
H565 H 0.67137 0.51344 0.95105 0.0
C566 C 0.69043 0.50677 0.30997 0.0
C567 C 0.70935 0.50167 0.28378 0.0
C568 C 0.67403 0.50684 0.26597 0.0
C569 C 0.6762 0.50173 0.19479 0.0
C570 C 0.69525 0.49682 0.16875 0.0
C571 C 0.71163 0.49669 0.21282 0.0
C572 C 0.65867 0.50157 0.14769 0.0
C573 C 0.65975 0.51269 0.09457 0.0
C574 C 0.6407 0.49104 0.15616 0.0
C575 C 0.63882 0.47813 0.20847 0.0
C576 C 0.65244 0.46336 0.2104 0.0
C577 C 0.65064 0.4513 0.26004 0.0
C578 C 0.63518 0.45378 0.30775 0.0
C579 C 0.62146 0.4683 0.30581 0.0
C580 C 0.62321 0.48042 0.25631 0.0
C581 C 0.59291 0.49962 0.89905 0.0
C582 C 0.5739 0.50412 0.92649 0.0
C583 C 0.60952 0.49923 0.94191 0.0
C584 C 0.60763 0.50349 0.0134 0.0
C585 C 0.58861 0.50774 0.04087 0.0
C586 C 0.572 0.50809 0.99809 0.0
C587 C 0.62537 0.5034 0.05957 0.0
C588 C 0.62433 0.49221 0.11253 0.0
C589 C 0.64336 0.51391 0.05106 0.0
C590 C 0.6452 0.52698 0.99924 0.0
C591 C 0.63162 0.54183 0.9981 0.0
C592 C 0.63336 0.55402 0.94885 0.0
C593 C 0.64872 0.55159 0.90076 0.0
C594 C 0.66241 0.537 0.90195 0.0
C595 C 0.66072 0.52476 0.95106 0.0
H596 H 0.65005 0.56104 0.86267 0.0
H597 H 0.63381 0.44443 0.34614 0.0
H598 H 0.01804 0.69867 0.2208 0.0
H599 H 0.02214 0.6692 0.13791 0.0
H600 H 0.97062 0.64311 0.22236 0.0
H601 H 0.96679 0.67253 0.30589 0.0
H602 H 1.00088 0.61892 0.20622 0.0
H603 H 0.96831 0.65882 0.0674 0.0
H604 H 0.9634 0.68814 0.01604 0.0
H605 H 0.02028 0.68109 0.91651 0.0
H606 H 0.02566 0.65187 0.96807 0.0
H607 H 0.99016 0.53789 0.94476 0.0
H608 H 0.98416 0.56795 0.02132 0.0
H609 H 0.03691 0.59398 0.94493 0.0
H610 H 0.043 0.564 0.86785 0.0
H611 H 1.00542 0.61814 0.9559 0.0
H612 H 0.03826 0.57877 0.09667 0.0
H613 H 0.04331 0.54951 0.1482 0.0
H614 H 0.98584 0.55567 0.24414 0.0
H615 H 0.98033 0.58484 0.19235 0.0
C616 C 1.00755 0.68664 0.22096 0.0
C617 C 0.99208 0.68767 0.26887 0.0
C618 C 1.00983 0.66988 0.17365 0.0
C619 C 0.99656 0.654 0.1735 0.0
C620 C 0.981 0.65518 0.22149 0.0
C621 C 0.97876 0.67194 0.26885 0.0
C622 C 0.99933 0.63593 0.12495 0.0
C623 C 1.00155 0.6187 0.1514 0.0
C624 C 1.00071 0.63574 0.05354 0.0
C625 C 0.99747 0.65325 0.02214 0.0
C626 C 0.97984 0.6636 0.03499 0.0
C627 C 0.97696 0.68019 0.00576 0.0
C628 C 0.99154 0.6865 0.96318 0.0
C629 C 1.00901 0.6762 0.94958 0.0
C630 C 0.01197 0.65961 0.97873 0.0
C631 C 1.00051 0.54998 0.94422 0.0
C632 C 0.01714 0.5485 0.90049 0.0
C633 C 0.99707 0.56715 0.98811 0.0
C634 C 1.0102 0.58313 0.98926 0.0
C635 C 0.0266 0.58181 0.94486 0.0
C636 C 0.0301 0.56463 0.90105 0.0
C637 C 1.00692 0.60118 0.03726 0.0
C638 C 1.00466 0.61838 0.01071 0.0
C639 C 1.00549 0.60137 0.1086 0.0
C640 C 1.0088 0.58388 0.14006 0.0
C641 C 0.02663 0.5738 0.1283 0.0
C642 C 0.02959 0.55724 0.15764 0.0
C643 C 0.01488 0.5507 0.19927 0.0
C644 C 0.99721 0.56074 0.2118 0.0
C645 C 0.99417 0.57729 0.18251 0.0
H646 H 0.0172 0.53789 0.22194 0.0
H647 H 0.98928 0.69935 0.94062 0.0
H648 H 0.0333 0.20695 0.24718 0.0
H649 H 0.0188 0.1893 0.33219 0.0
H650 H 0.05936 0.21924 0.48453 0.0
H651 H 0.07451 0.23661 0.39765 0.0
H652 H 0.061 0.18235 0.48447 0.0
H653 H 1.00728 0.22447 0.49845 0.0
H654 H 0.98118 0.24414 0.45855 0.0
H655 H 0.95164 0.19301 0.35347 0.0
H656 H 0.9777 0.17303 0.39181 0.0
H657 H 0.01811 0.11332 0.67618 0.0
H658 H 0.02596 0.14525 0.64647 0.0
H659 H 0.99779 0.12817 0.44996 0.0
H660 H 0.98996 0.09629 0.47912 0.0
H661 H 0.98914 0.16526 0.50534 0.0
H662 H 0.04865 0.12559 0.47083 0.0
H663 H 0.07486 0.10625 0.51226 0.0
H664 H 0.093 0.15454 0.6622 0.0
H665 H 0.06675 0.17409 0.62196 0.0
C666 C 0.03885 0.21008 0.29917 0.0
C667 C 0.05512 0.22299 0.31582 0.0
C668 C 0.03041 0.20011 0.34807 0.0
C669 C 0.03781 0.20302 0.41523 0.0
C670 C 0.05334 0.21679 0.43312 0.0
C671 C 0.06189 0.2268 0.38374 0.0
C672 C 0.03091 0.1898 0.46285 0.0
C673 C 0.04525 0.17905 0.49078 0.0
C674 C 1.01038 0.18532 0.47098 0.0
C675 C 0.99451 0.19724 0.44801 0.0
C676 C 0.99528 0.21741 0.46653 0.0
C677 C 0.98048 0.22862 0.4442 0.0
C678 C 0.96477 0.21983 0.40348 0.0
C679 C 0.9638 0.1998 0.38509 0.0
C680 C 0.97857 0.18852 0.40726 0.0
C681 C 0.01355 0.1164 0.62668 0.0
C682 C 1.00358 0.1022 0.57968 0.0
C683 C 0.01797 0.13467 0.60995 0.0
C684 C 0.01263 0.13903 0.54574 0.0
C685 C 1.00198 0.12515 0.49991 0.0
C686 C 0.99751 0.10692 0.51664 0.0
C687 C 0.01923 0.15743 0.52366 0.0
C688 C 1.00483 0.16907 0.50072 0.0
C689 C 0.03968 0.16287 0.52068 0.0
C690 C 0.05565 0.15121 0.5439 0.0
C691 C 0.05818 0.13204 0.51282 0.0
C692 C 0.07304 0.12105 0.53605 0.0
C693 C 0.08555 0.12915 0.58995 0.0
C694 C 0.08328 0.14828 0.62052 0.0
C695 C 0.06843 0.15932 0.5975 0.0
H696 H 0.09703 0.12061 0.60792 0.0
H697 H 0.95333 0.22854 0.38622 0.0
H698 H 0.27475 0.98233 0.40454 0.0
H699 H 0.28969 0.96676 0.49334 0.0
H700 H 0.32255 0.93002 0.3398 0.0
H701 H 0.30679 0.94468 0.25075 0.0
H702 H 0.31814 0.91294 0.45074 0.0
H703 H 0.33964 0.97629 0.39995 0.0
H704 H 0.33423 0.01032 0.38978 0.0
H705 H 0.3172 0.0218 0.60097 0.0
H706 H 0.32225 0.98771 0.61196 0.0
H707 H 0.42126 0.92466 0.48795 0.0
H708 H 0.38555 0.91932 0.46848 0.0
H709 H 0.37378 0.94722 0.67376 0.0
H710 H 0.40965 0.95218 0.6944 0.0
H711 H 0.35974 0.96651 0.57594 0.0
H712 H 0.35357 0.90327 0.62542 0.0
H713 H 0.36237 0.86945 0.62538 0.0
H714 H 0.35451 0.85751 0.4078 0.0
H715 H 0.34596 0.89132 0.40623 0.0
C716 C 0.28442 0.97033 0.38941 0.0
C717 C 0.29016 0.96517 0.32083 0.0
C718 C 0.29301 0.96147 0.44033 0.0
C719 C 0.30775 0.9477 0.42335 0.0
C720 C 0.31141 0.94078 0.3543 0.0
C721 C 0.30261 0.94938 0.30341 0.0
C722 C 0.3224 0.94374 0.47503 0.0
C723 C 0.32715 0.92459 0.47888 0.0
C724 C 0.33392 0.95898 0.51281 0.0
C725 C 0.33104 0.97946 0.50653 0.0
C726 C 0.33464 0.98607 0.44407 0.0
C727 C 0.33164 0.00535 0.43816 0.0
C728 C 0.32531 0.0182 0.49466 0.0
C729 C 0.32204 0.01181 0.55722 0.0
C730 C 0.32494 0.99251 0.56331 0.0
C731 C 0.41118 0.92889 0.53007 0.0
C732 C 0.41828 0.93927 0.59216 0.0
C733 C 0.3907 0.92575 0.51893 0.0
C734 C 0.37699 0.93296 0.56959 0.0
C735 C 0.38411 0.94156 0.63399 0.0
C736 C 0.4046 0.94456 0.64537 0.0
C737 C 0.35613 0.93567 0.54944 0.0
C738 C 0.35024 0.95472 0.55099 0.0
C739 C 0.34402 0.92033 0.51542 0.0
C740 C 0.34914 0.89991 0.51576 0.0
C741 C 0.35384 0.89348 0.57745 0.0
C742 C 0.35877 0.87429 0.57773 0.0
C743 C 0.359 0.86134 0.51663 0.0
C744 C 0.35429 0.86755 0.45511 0.0
C745 C 0.34936 0.88673 0.45453 0.0
H746 H 0.36282 0.84649 0.51696 0.0
H747 H 0.32301 0.03313 0.49002 0.0
H748 H 0.50409 0.28547 0.60384 0.0
H749 H 0.5111 0.31639 0.67684 0.0
H750 H 0.55983 0.32789 0.54512 0.0
H751 H 0.55313 0.29686 0.47326 0.0
H752 H 0.56619 0.34701 0.6745 0.0
H753 H 0.51501 0.34039 0.50409 0.0
H754 H 0.48513 0.32556 0.4428 0.0
H755 H 0.45044 0.33834 0.6259 0.0
H756 H 0.48029 0.35315 0.68841 0.0
H757 H 0.55145 0.44857 0.66004 0.0
H758 H 0.5541 0.41344 0.62972 0.0
H759 H 0.51585 0.40522 0.79848 0.0
H760 H 0.51347 0.4401 0.8301 0.0
H761 H 0.50492 0.38426 0.65917 0.0
H762 H 0.55927 0.39623 0.82197 0.0
H763 H 0.59062 0.41235 0.86812 0.0
H764 H 0.62083 0.39105 0.68145 0.0
H765 H 0.58956 0.37506 0.63375 0.0
C766 C 0.51704 0.29406 0.59294 0.0
C767 C 0.52799 0.28888 0.5328 0.0
C768 C 0.52089 0.31186 0.63415 0.0
C769 C 0.53563 0.32468 0.61525 0.0
C770 C 0.54833 0.31831 0.56056 0.0
C771 C 0.54455 0.30051 0.51965 0.0
C772 C 0.53533 0.34557 0.64334 0.0
C773 C 0.55281 0.35515 0.67131 0.0
C774 C 0.51795 0.3563 0.6382 0.0
C775 C 0.49991 0.34763 0.60102 0.0
C776 C 0.50104 0.33991 0.53131 0.0
C777 C 0.48411 0.33152 0.49636 0.0
C778 C 0.4659 0.3309 0.53049 0.0
C779 C 0.46458 0.33878 0.59959 0.0
C780 C 0.48149 0.34719 0.63479 0.0
C781 C 0.54371 0.43927 0.69086 0.0
C782 C 0.53225 0.44712 0.74739 0.0
C783 C 0.54532 0.41925 0.67371 0.0
C784 C 0.53524 0.40681 0.71214 0.0
C785 C 0.5238 0.4146 0.76845 0.0
C786 C 0.5225 0.43455 0.78639 0.0
C787 C 0.53564 0.38563 0.69146 0.0
C788 C 0.51819 0.37605 0.66386 0.0
C789 C 0.55319 0.37511 0.69529 0.0
C790 C 0.57202 0.38461 0.72404 0.0
C791 C 0.57255 0.39514 0.7905 0.0
C792 C 0.59031 0.40422 0.817 0.0
C793 C 0.60769 0.40277 0.77768 0.0
C794 C 0.60735 0.39219 0.71183 0.0
C795 C 0.58961 0.3831 0.68506 0.0
H796 H 0.62144 0.40981 0.79829 0.0
H797 H 0.4528 0.32439 0.50333 0.0
H798 H 0.25795 0.56668 0.30854 0.0
H799 H 0.24084 0.58643 0.40265 0.0
H800 H 0.24406 0.54008 0.52171 0.0
H801 H 0.26199 0.52089 0.42908 0.0
H802 H 0.20591 0.57478 0.42672 0.0
H803 H 0.23212 0.55227 0.68423 0.0
H804 H 0.26379 0.54884 0.74353 0.0
H805 H 0.29294 0.58892 0.63023 0.0
H806 H 0.26136 0.5929 0.57105 0.0
H807 H 0.1426 0.54317 0.68848 0.0
H808 H 0.17699 0.55089 0.66032 0.0
H809 H 0.15859 0.60459 0.60348 0.0
H810 H 0.12389 0.59667 0.6303 0.0
H811 H 0.20767 0.57825 0.67849 0.0
H812 H 0.17662 0.60623 0.44666 0.0
H813 H 0.14494 0.60643 0.38321 0.0
H814 H 0.12736 0.55181 0.43973 0.0
H815 H 0.15904 0.55118 0.50249 0.0
C816 C 0.25586 0.56121 0.35631 0.0
C817 C 0.26113 0.54235 0.36199 0.0
C818 C 0.24606 0.57244 0.40997 0.0
C819 C 0.241 0.56476 0.46933 0.0
C820 C 0.24806 0.54657 0.47728 0.0
C821 C 0.25822 0.53551 0.42412 0.0
C822 C 0.22469 0.57328 0.51406 0.0
C823 C 0.20663 0.5763 0.482 0.0
C824 C 0.22533 0.57478 0.58616 0.0
C825 C 0.24431 0.57284 0.62296 0.0
C826 C 0.24521 0.56051 0.67236 0.0
C827 C 0.26318 0.55843 0.70588 0.0
C828 C 0.28037 0.56864 0.6906 0.0
C829 C 0.27962 0.581 0.64192 0.0
C830 C 0.26168 0.58315 0.60832 0.0
C831 C 0.14597 0.55696 0.67241 0.0
C832 C 0.13058 0.56917 0.66025 0.0
C833 C 0.16568 0.56142 0.65669 0.0
C834 C 0.17028 0.57815 0.62868 0.0
C835 C 0.15528 0.59149 0.62435 0.0
C836 C 0.13549 0.58691 0.63922 0.0
C837 C 0.18919 0.57914 0.59042 0.0
C838 C 0.20748 0.5777 0.6235 0.0
C839 C 0.18889 0.57881 0.51889 0.0
C840 C 0.17003 0.57881 0.47993 0.0
C841 C 0.166 0.59426 0.44528 0.0
C842 C 0.14806 0.59443 0.40945 0.0
C843 C 0.13411 0.57918 0.40767 0.0
C844 C 0.13814 0.56364 0.44128 0.0
C845 C 0.15608 0.56336 0.47693 0.0
H846 H 0.12021 0.57937 0.38009 0.0
H847 H 0.29427 0.56697 0.71651 0.0
H848 H 0.97462 0.76902 0.21265 0.0
H849 H 0.97435 0.79218 0.13204 0.0
H850 H 0.03854 0.79811 0.14579 0.0
H851 H 0.03874 0.7752 0.22688 0.0
H852 H 0.9878 0.82877 0.18386 0.0
H853 H 0.05615 0.81504 0.00269 0.0
H854 H 0.07247 0.78757 0.93382 0.0
H855 H 0.01724 0.75466 0.92154 0.0
H856 H 1.00049 0.78203 0.9894 0.0
H857 H 0.04331 0.911 0.1176 0.0
H858 H 0.03327 0.87898 0.14214 0.0
H859 H 1.00046 0.86761 0.9525 0.0
H860 H 1.01023 0.89974 0.92793 0.0
H861 H 0.0283 0.83758 0.98062 0.0
H862 H 0.97349 0.87478 0.07792 0.0
H863 H 0.95755 0.90216 0.14877 0.0
H864 H 0.98504 0.88732 0.32842 0.0
H865 H 1.00157 0.86018 0.25836 0.0
C866 C 0.98871 0.77451 0.19548 0.0
C867 C 1.00672 0.7703 0.22522 0.0
C868 C 0.98854 0.78785 0.15001 0.0
C869 C 1.00641 0.79689 0.13312 0.0
C870 C 0.0246 0.79114 0.15743 0.0
C871 C 0.02474 0.778 0.2035 0.0
C872 C 1.00597 0.81472 0.10204 0.0
C873 C 0.99639 0.83061 0.13874 0.0
C874 C 0.01717 0.81707 0.04322 0.0
C875 C 0.02708 0.8006 1.00157 0.0
C876 C 0.04744 0.802 0.98497 0.0
C877 C 0.05678 0.78642 0.94616 0.0
C878 C 0.04591 0.76937 0.92344 0.0
C879 C 0.02566 0.76786 0.93935 0.0
C880 C 0.01624 0.7834 0.9781 0.0
C881 C 0.03392 0.90169 0.08126 0.0
C882 C 0.02756 0.90783 0.02089 0.0
C883 C 0.02816 0.88347 0.09539 0.0
C884 C 0.01614 0.87102 0.04907 0.0
C885 C 1.0097 0.87708 0.98884 0.0
C886 C 0.01518 0.89545 0.97521 0.0
C887 C 1.01066 0.85157 0.0638 0.0
C888 C 0.01929 0.83553 0.02459 0.0
C889 C 0.99865 0.84903 0.12055 0.0
C890 C 0.98885 0.86548 0.16278 0.0
C891 C 0.97631 0.87748 0.13242 0.0
C892 C 0.96716 0.89296 0.17244 0.0
C893 C 0.97032 0.89652 0.24302 0.0
C894 C 0.98263 0.88458 0.27372 0.0
C895 C 0.99188 0.86914 0.23387 0.0
H896 H 0.9632 0.9085 0.27391 0.0
H897 H 0.05317 0.75732 0.89344 0.0
H898 H 0.76673 0.9865 0.18811 0.0
H899 H 0.74171 0.97899 0.0985 0.0
H900 H 0.72662 0.92551 0.1702 0.0
H901 H 0.75121 0.93343 0.26219 0.0
H902 H 0.7229 0.95334 0.99688 0.0
H903 H 0.68481 0.92306 0.19778 0.0
H904 H 0.68279 0.92065 0.32068 0.0
H905 H 0.70201 0.98001 0.37144 0.0
H906 H 0.70459 0.98255 0.24873 0.0
H907 H 0.61495 0.96961 0.94426 0.0
H908 H 0.64571 0.95268 0.96074 0.0
H909 H 0.66678 0.00151 0.10489 0.0
H910 H 0.63615 0.01838 0.08938 0.0
H911 H 0.66441 0.96386 0.15087 0.0
H912 H 0.6868 0.9953 0.95551 0.0
H913 H 0.68182 0.99916 0.83504 0.0
H914 H 0.68958 0.93851 0.77252 0.0
H915 H 0.69435 0.93426 0.8927 0.0
C916 C 0.75886 0.97265 0.18258 0.0
C917 C 0.76045 0.96077 0.2329 0.0
C918 C 0.74452 0.96833 0.13115 0.0
C919 C 0.7318 0.95204 0.12941 0.0
C920 C 0.73594 0.93842 0.17194 0.0
C921 C 0.75005 0.94289 0.22422 0.0
C922 C 0.71174 0.95259 0.09877 0.0
C923 C 0.70996 0.95513 0.02999 0.0
C924 C 0.69472 0.95481 0.14149 0.0
C925 C 0.69517 0.95289 0.21459 0.0
C926 C 0.68889 0.93548 0.23533 0.0
C927 C 0.68764 0.93409 0.3048 0.0
C928 C 0.69233 0.95014 0.3538 0.0
C929 C 0.69848 0.96756 0.33344 0.0
C930 C 0.7 0.96894 0.26399 0.0
C931 C 0.62621 0.97671 0.97932 0.0
C932 C 0.62317 0.99522 0.01618 0.0
C933 C 0.64376 0.9671 0.9881 0.0
C934 C 0.65836 0.97592 0.03389 0.0
C935 C 0.65559 0.99457 0.06918 0.0
C936 C 0.63816 0.0042 0.0602 0.0
C937 C 0.67589 0.96541 0.05049 0.0
C938 C 0.67706 0.96112 0.11673 0.0
C939 C 0.69208 0.96151 0.00525 0.0
C940 C 0.69073 0.96443 0.93303 0.0
C941 C 0.68743 0.98279 0.91604 0.0
C942 C 0.68462 0.98505 0.84785 0.0
C943 C 0.68522 0.96905 0.79627 0.0
C944 C 0.68903 0.95086 0.81259 0.0
C945 C 0.69182 0.94853 0.88068 0.0
H946 H 0.68267 0.97071 0.74365 0.0
H947 H 0.69105 0.94907 0.40745 0.0
H948 H 0.50084 0.72699 0.04218 0.0
H949 H 0.48754 0.69668 0.97786 0.0
H950 H 0.54657 0.68296 0.90128 0.0
H951 H 0.55973 0.71323 0.965 0.0
H952 H 0.51783 0.66552 0.81304 0.0
H953 H 0.53155 0.67554 0.05833 0.0
H954 H 0.52637 0.68937 0.1789 0.0
H955 H 0.46532 0.66894 0.16591 0.0
H956 H 0.47017 0.65486 0.04506 0.0
H957 H 0.54483 0.57222 0.82561 0.0
H958 H 0.5401 0.60677 0.84619 0.0
H959 H 0.47938 0.59754 0.90886 0.0
H960 H 0.48407 0.56253 0.88902 0.0
H961 H 0.49866 0.62695 0.99382 0.0
H962 H 0.4863 0.61255 0.75386 0.0
H963 H 0.49262 0.59664 0.63602 0.0
H964 H 0.55064 0.62443 0.64149 0.0
H965 H 0.54475 0.64028 0.75908 0.0
C966 C 0.51068 0.71807 0.00802 0.0
C967 C 0.53129 0.72235 0.00838 0.0
C968 C 0.50312 0.70062 0.97203 0.0
C969 C 0.51618 0.68731 0.93651 0.0
C970 C 0.53623 0.69294 0.92876 0.0
C971 C 0.54376 0.71033 0.9647 0.0
C972 C 0.51035 0.66656 0.91915 0.0
C973 C 0.51344 0.65713 0.85239 0.0
C974 C 0.50415 0.65557 0.97021 0.0
C975 C 0.50115 0.66438 0.04241 0.0
C976 C 0.51696 0.67417 0.08096 0.0
C977 C 0.5141 0.68203 0.14939 0.0
C978 C 0.4955 0.68019 0.17995 0.0
C979 C 0.47972 0.67041 0.14213 0.0
C980 C 0.48252 0.66245 0.0737 0.0
C981 C 0.53041 0.57741 0.84367 0.0
C982 C 0.51478 0.56453 0.85522 0.0
C983 C 0.5277 0.59724 0.85505 0.0
C984 C 0.50924 0.60474 0.87753 0.0
C985 C 0.49368 0.59203 0.89084 0.0
C986 C 0.49641 0.57205 0.87957 0.0
C987 C 0.50674 0.62595 0.88823 0.0
C988 C 0.50223 0.63541 0.95381 0.0
C989 C 0.51153 0.63699 0.83623 0.0
C990 C 0.51505 0.62766 0.76506 0.0
C991 C 0.50042 0.61521 0.7298 0.0
C992 C 0.50394 0.60618 0.66306 0.0
C993 C 0.52204 0.60948 0.63115 0.0
C994 C 0.53668 0.62174 0.66609 0.0
C995 C 0.53322 0.63086 0.73268 0.0
H996 H 0.52465 0.60258 0.57936 0.0
H997 H 0.49334 0.68627 0.233 0.0
H998 H 0.76984 0.48863 0.15051 0.0
H999 H 0.78218 0.48642 0.03357 0.0
H1000 H 0.82997 0.52715 0.10393 0.0
H1001 H 0.81696 0.53045 0.21943 0.0
H1002 H 0.82164 0.52936 0.97449 0.0
H1003 H 0.83239 0.47504 0.1097 0.0
H1004 H 0.81871 0.44824 0.16453 0.0
H1005 H 0.78794 0.42476 0.97886 0.0
H1006 H 0.80136 0.45154 0.92326 0.0
H1007 H 0.91646 0.50591 0.00658 0.0
H1008 H 0.88133 0.51269 1.00011 0.0
H1009 H 0.87415 0.46782 0.82588 0.0
H1010 H 0.90992 0.46132 0.83039 0.0
H1011 H 0.84885 0.4637 0.93185 0.0
H1012 H 0.86509 0.51098 0.80441 0.0
H1013 H 0.88232 0.53777 0.76047 0.0
H1014 H 0.86709 0.57621 0.94227 0.0
H1015 H 0.84988 0.54963 0.98781 0.0
C1016 C 0.78253 0.49768 0.14066 0.0
C1017 C 0.79282 0.5093 0.19471 0.0
C1018 C 0.7896 0.49634 0.07367 0.0
C1019 C 0.80731 0.5062 0.06011 0.0
C1020 C 0.81634 0.51927 0.11291 0.0
C1021 C 0.80911 0.52087 0.1794 0.0
C1022 C 0.81894 0.50044 0.99679 0.0
C1023 C 0.82758 0.51501 0.96409 0.0
C1024 C 0.82564 0.48136 0.97965 0.0
C1025 C 0.81765 0.46531 0.01275 0.0
C1026 C 0.82266 0.46415 0.08078 0.0
C1027 C 0.81496 0.449 0.11194 0.0
C1028 C 0.80242 0.43483 0.07525 0.0
C1029 C 0.7976 0.43577 0.00726 0.0
C1030 C 0.80523 0.45093 0.97591 0.0
C1031 C 0.90763 0.49779 0.96561 0.0
C1032 C 0.916 0.48303 0.91915 0.0
C1033 C 0.88752 0.50177 0.9617 0.0
C1034 C 0.87523 0.49103 0.9116 0.0
C1035 C 0.88349 0.47643 0.86428 0.0
C1036 C 0.90381 0.47256 0.86767 0.0
C1037 C 0.85344 0.49328 0.91787 0.0
C1038 C 0.84251 0.47792 0.93851 0.0
C1039 C 0.84514 0.5118 0.9255 0.0
C1040 C 0.85566 0.52815 0.89898 0.0
C1041 C 0.86523 0.52511 0.83501 0.0
C1042 C 0.8751 0.54031 0.80985 0.0
C1043 C 0.87569 0.55873 0.84835 0.0
C1044 C 0.86647 0.56195 0.91221 0.0
C1045 C 0.85654 0.54679 0.93757 0.0
H1046 H 0.88337 0.57049 0.82887 0.0
H1047 H 0.79647 0.42311 0.09944 0.0
H1048 H 0.10522 0.19173 0.14119 0.0
H1049 H 0.10304 0.16259 0.05588 0.0
H1050 H 0.06288 0.1907 0.93559 0.0
H1051 H 0.06521 0.21999 0.02101 0.0
H1052 H 0.04607 0.15929 0.98097 0.0
H1053 H 0.10468 0.17306 0.86214 0.0
H1054 H 0.13974 0.18303 0.84665 0.0
H1055 H 0.15955 0.13512 0.9369 0.0
H1056 H 0.1246 0.12499 0.95388 0.0
H1057 H 0.02348 0.06907 0.78646 0.0
H1058 H 0.03564 0.10234 0.81324 0.0
H1059 H 0.08127 0.08516 0.94297 0.0
H1060 H 0.06962 0.05147 0.91409 0.0
H1061 H 0.09545 0.11289 0.87225 0.0
H1062 H 0.03755 0.10332 0.01047 0.0
H1063 H 1.00264 0.09348 0.02998 0.0
H1064 H 0.982 0.1342 0.90709 0.0
H1065 H 0.01682 0.14412 0.8862 0.0
C1066 C 0.09667 0.19192 0.09495 0.0
C1067 C 0.08535 0.20796 0.08738 0.0
C1068 C 0.09546 0.17531 0.04616 0.0
C1069 C 0.08275 0.17447 0.98949 0.0
C1070 C 0.07283 0.19111 0.97885 0.0
C1071 C 0.07423 0.20783 0.02738 0.0
C1072 C 0.07678 0.15543 0.95065 0.0
C1073 C 0.05679 0.14933 0.95541 0.0
C1074 C 0.09089 0.14228 0.91937 0.0
C1075 C 0.11197 0.14834 0.90971 0.0
C1076 C 0.1165 0.16474 0.87927 0.0
C1077 C 0.13636 0.1704 0.87008 0.0
C1078 C 0.15186 0.15974 0.89088 0.0
C1079 C 0.14752 0.14337 0.92082 0.0
C1080 C 0.12768 0.13764 0.93014 0.0
C1081 C 0.03617 0.07228 0.82047 0.0
C1082 C 0.04542 0.05763 0.84894 0.0
C1083 C 0.04312 0.09135 0.83564 0.0
C1084 C 0.05916 0.09627 0.88092 0.0
C1085 C 0.06885 0.08165 0.90789 0.0
C1086 C 0.06208 0.06245 0.89184 0.0
C1087 C 0.06487 0.1168 0.90379 0.0
C1088 C 0.08474 0.12306 0.8964 0.0
C1089 C 0.0507 0.13016 0.93333 0.0
C1090 C 0.02977 0.12431 0.9462 0.0
C1091 C 0.02556 0.11008 0.98726 0.0
C1092 C 1.0058 0.10451 0.99862 0.0
C1093 C 0.99011 0.11317 0.96964 0.0
C1094 C 0.99416 0.12748 0.92941 0.0
C1095 C 0.0139 0.1331 0.91783 0.0
H1096 H 0.97482 0.10884 0.97848 0.0
H1097 H 0.16723 0.16414 0.88371 0.0
H1098 H 0.30046 0.99711 0.04305 0.0
H1099 H 0.33056 0.00133 0.97481 0.0
H1100 H 0.3662 0.01016 0.15864 0.0
H1101 H 0.33634 0.00642 0.2264 0.0
H1102 H 0.379 0.03406 0.07795 0.0
H1103 H 0.36187 0.96593 0.04809 0.0
H1104 H 0.34051 0.93687 0.01388 0.0
H1105 H 0.339 0.94861 0.80772 0.0
H1106 H 0.36008 0.97794 0.841 0.0
H1107 H 0.47685 0.01146 0.96704 0.0
H1108 H 0.44362 0.01209 0.01752 0.0
H1109 H 0.41713 0.00309 0.81655 0.0
H1110 H 0.45048 0.00214 0.76544 0.0
H1111 H 0.39787 0.98132 0.89449 0.0
H1112 H 0.4172 0.04793 0.92177 0.0
H1113 H 0.43906 0.07668 0.95512 0.0
H1114 H 0.43663 0.06787 0.16457 0.0
H1115 H 0.41497 0.0389 0.13236 0.0
C1116 C 0.31467 1.00032 0.06884 0.0
C1117 C 0.31598 0.00126 0.14016 0.0
C1118 C 0.33195 0.00252 0.02975 0.0
C1119 C 0.35088 0.00573 0.06119 0.0
C1120 C 0.35193 0.00761 0.13271 0.0
C1121 C 0.33479 0.00538 0.17153 0.0
C1122 C 0.36976 0.00665 0.02063 0.0
C1123 C 0.38313 0.02244 0.03815 0.0
C1124 C 0.37512 0.99181 0.96711 0.0
C1125 C 0.36231 0.97428 0.94727 0.0
C1126 C 0.35681 0.96243 0.99563 0.0
C1127 C 0.34478 0.94589 0.97638 0.0
C1128 C 0.33833 0.94094 0.90874 0.0
C1129 C 0.34394 0.9525 0.86016 0.0
C1130 C 0.35592 0.96908 0.87919 0.0
C1131 C 0.46401 0.0097 0.93326 0.0
C1132 C 0.46652 0.00683 0.86184 0.0
C1133 C 0.44491 0.01016 0.96243 0.0
C1134 C 0.42767 0.00796 0.92118 0.0
C1135 C 0.43009 0.00491 0.84979 0.0
C1136 C 0.44925 0.00441 0.82049 0.0
C1137 C 0.40726 0.00854 0.95288 0.0
C1138 C 0.39363 0.99305 0.93371 0.0
C1139 C 0.40163 0.02367 0.00486 0.0
C1140 C 0.41457 0.04115 0.02453 0.0
C1141 C 0.42143 0.05205 0.97488 0.0
C1142 C 0.43378 0.06839 0.99359 0.0
C1143 C 0.43926 0.07407 0.0619 0.0
C1144 C 0.43238 0.06344 0.11167 0.0
C1145 C 0.42005 0.04707 0.09323 0.0
H1146 H 0.44882 0.08673 0.07628 0.0
H1147 H 0.32904 0.92811 0.89392 0.0
H1148 H 0.52107 0.2774 0.24843 0.0
H1149 H 0.5164 0.30311 0.17973 0.0
H1150 H 0.46404 0.32092 0.29742 0.0
H1151 H 0.46844 0.29485 0.36456 0.0
H1152 H 0.4604 0.32794 0.167 0.0
H1153 H 0.50891 0.33954 0.34785 0.0
H1154 H 0.53862 0.33215 0.41134 0.0
H1155 H 0.57532 0.33604 0.23607 0.0
H1156 H 0.54578 0.34302 0.17088 0.0
H1157 H 0.46579 0.42914 0.15528 0.0
H1158 H 0.46569 0.39788 0.19494 0.0
H1159 H 0.51442 0.38021 0.05932 0.0
H1160 H 0.5142 0.4111 0.0174 0.0
H1161 H 0.51974 0.37247 0.19363 0.0
H1162 H 0.46991 0.3628 0.01575 0.0
H1163 H 0.43952 0.37067 0.95698 0.0
H1164 H 0.40458 0.3647 0.13471 0.0
H1165 H 0.43483 0.35707 0.19493 0.0
C1166 C 0.50804 0.28623 0.25708 0.0
C1167 C 0.49497 0.28414 0.31094 0.0
C1168 C 0.50549 0.30103 0.21852 0.0
C1169 C 0.49013 0.3142 0.23453 0.0
C1170 C 0.47599 0.31096 0.2842 0.0
C1171 C 0.47844 0.29603 0.32228 0.0
C1172 C 0.49035 0.33262 0.20654 0.0
C1173 C 0.47333 0.33772 0.17312 0.0
C1174 C 0.50724 0.3454 0.21455 0.0
C1175 C 0.52509 0.34161 0.25421 0.0
C1176 C 0.52329 0.3387 0.32267 0.0
C1177 C 0.54009 0.33459 0.35899 0.0
C1178 C 0.55882 0.3336 0.32775 0.0
C1179 C 0.5608 0.33678 0.26016 0.0
C1180 C 0.54403 0.3408 0.22347 0.0
C1181 C 0.47636 0.41856 0.13324 0.0
C1182 C 0.48998 0.42272 0.08294 0.0
C1183 C 0.47632 0.40072 0.15621 0.0
C1184 C 0.48995 0.3867 0.12968 0.0
C1185 C 0.5038 0.39087 0.08051 0.0
C1186 C 0.50373 0.40862 0.057 0.0
C1187 C 0.48987 0.36771 0.15356 0.0
C1188 C 0.5069 0.36259 0.18685 0.0
C1189 C 0.47288 0.35509 0.14634 0.0
C1190 C 0.45466 0.35954 0.11006 0.0
C1191 C 0.45577 0.36332 0.0425 0.0
C1192 C 0.43857 0.36771 0.00889 0.0
C1193 C 0.42014 0.36823 0.04215 0.0
C1194 C 0.41887 0.36431 0.10904 0.0
C1195 C 0.43603 0.35994 0.14291 0.0
H1196 H 0.40684 0.37163 0.01604 0.0
H1197 H 0.5718 0.33042 0.35597 0.0
H1198 H 0.2142 0.50129 0.23191 0.0
H1199 H 0.18428 0.49683 0.16075 0.0
H1200 H 0.22009 0.501 0.98233 0.0
H1201 H 0.25034 0.50577 0.05439 0.0
H1202 H 0.18749 0.52341 0.9859 0.0
H1203 H 0.19837 0.45782 0.00685 0.0
H1204 H 0.20502 0.43036 0.06646 0.0
H1205 H 0.15071 0.44015 0.18037 0.0
H1206 H 0.14386 0.46785 0.12214 0.0
H1207 H 0.10121 0.5012 0.77157 0.0
H1208 H 0.13425 0.50094 0.82354 0.0
H1209 H 0.10693 0.4928 0.01457 0.0
H1210 H 0.07389 0.49246 0.96242 0.0
H1211 H 0.13727 0.47057 0.99358 0.0
H1212 H 0.12729 0.53727 0.97688 0.0
H1213 H 0.12098 0.56512 0.91882 0.0
H1214 H 0.17403 0.55388 0.79905 0.0
H1215 H 0.18032 0.52561 0.85477 0.0
C1216 C 0.21579 0.50105 0.17737 0.0
C1217 C 0.2347 0.50392 0.14889 0.0
C1218 C 0.19861 0.4984 0.13655 0.0
C1219 C 0.19979 0.49844 0.0658 0.0
C1220 C 0.21873 0.50087 0.03672 0.0
C1221 C 0.23604 0.50343 0.07779 0.0
C1222 C 0.18106 0.49681 0.02367 0.0
C1223 C 0.17668 0.51164 0.98642 0.0
C1224 C 0.16665 0.48172 0.02541 0.0
C1225 C 0.17068 0.46501 0.06043 0.0
C1226 C 0.18791 0.45421 0.04496 0.0
C1227 C 0.19171 0.43858 0.07845 0.0
C1228 C 0.17832 0.43353 0.12726 0.0
C1229 C 0.16108 0.44408 0.14257 0.0
C1230 C 0.15722 0.45973 0.10927 0.0
C1231 C 0.10218 0.49931 0.82464 0.0
C1232 C 0.08474 0.49684 0.86262 0.0
C1233 C 0.12117 0.49928 0.85454 0.0
C1234 C 0.12327 0.4971 0.92355 0.0
C1235 C 0.10587 0.4945 0.96132 0.0
C1236 C 0.08689 0.49436 0.93135 0.0
C1237 C 0.14346 0.49737 0.95665 0.0
C1238 C 0.14812 0.48226 0.99234 0.0
C1239 C 0.15808 0.51225 0.95352 0.0
C1240 C 0.15414 0.52915 0.91943 0.0
C1241 C 0.13748 0.54059 0.93754 0.0
C1242 C 0.1339 0.55646 0.90504 0.0
C1243 C 0.14705 0.56122 0.85505 0.0
C1244 C 0.16379 0.55012 0.83746 0.0
C1245 C 0.16734 0.53415 0.86939 0.0
H1246 H 0.14428 0.57354 0.83005 0.0
H1247 H 0.18128 0.42143 0.15313 0.0
H1248 H 0.97622 0.78667 0.49561 0.0
H1249 H 0.97673 0.81858 0.56658 0.0
H1250 H 0.04016 0.82423 0.53405 0.0
H1251 H 0.03959 0.79248 0.46222 0.0
H1252 H 0.02763 0.84218 0.6653 0.0
H1253 H 0.01379 0.83955 0.42846 0.0
H1254 H 0.99668 0.8283 0.31896 0.0
H1255 H 0.94136 0.84989 0.40506 0.0
H1256 H 0.95804 0.86074 0.51592 0.0
H1257 H 0.01659 0.94825 0.60251 0.0
H1258 H 0.01493 0.91364 0.56054 0.0
H1259 H 0.99962 0.90255 0.76281 0.0
H1260 H 1.00209 0.93707 0.80555 0.0
H1261 H 0.98863 0.8866 0.54866 0.0
H1262 H 0.02048 0.85866 0.78922 0.0
H1263 H 0.04273 0.87003 0.88701 0.0
H1264 H 0.06988 0.91202 0.77732 0.0
H1265 H 0.04862 0.90022 0.6774 0.0
C1266 C 0.99037 0.79439 0.50622 0.0
C1267 C 1.00788 0.78724 0.47394 0.0
C1268 C 0.99064 0.81263 0.54625 0.0
C1269 C 1.00844 0.82378 0.55472 0.0
C1270 C 0.0263 0.8158 0.52817 0.0
C1271 C 0.02598 0.7977 0.48737 0.0
C1272 C 1.00795 0.84461 0.58174 0.0
C1273 C 0.01896 0.85195 0.64057 0.0
C1274 C 0.99727 0.85731 0.54734 0.0
C1275 C 0.98711 0.85068 0.4809 0.0
C1276 C 0.99791 0.84164 0.42442 0.0
C1277 C 0.9883 0.83537 0.36205 0.0
C1278 C 0.96793 0.83835 0.35509 0.0
C1279 C 0.95713 0.84755 0.41059 0.0
C1280 C 0.96665 0.85372 0.47328 0.0
C1281 C 0.01265 0.93844 0.63782 0.0
C1282 C 1.00962 0.94535 0.70732 0.0
C1283 C 0.01172 0.91865 0.61383 0.0
C1284 C 1.00751 0.90543 0.65875 0.0
C1285 C 1.00337 0.91241 0.72749 0.0
C1286 C 1.00467 0.93216 0.75174 0.0
C1287 C 1.00799 0.88438 0.63375 0.0
C1288 C 0.99706 0.87693 0.57465 0.0
C1289 C 0.01941 0.87174 0.66662 0.0
C1290 C 0.03261 0.87878 0.72611 0.0
C1291 C 0.03126 0.87025 0.78572 0.0
C1292 C 0.04375 0.87674 0.84151 0.0
C1293 C 0.0575 0.89192 0.83878 0.0
C1294 C 0.0591 0.90037 0.77963 0.0
C1295 C 0.0469 0.89371 0.72322 0.0
H1296 H 0.06699 0.89706 0.88234 0.0
H1297 H 0.96055 0.83359 0.30662 0.0
H1298 H 0.74295 0.01725 0.48318 0.0
H1299 H 0.7111 0.02113 0.54556 0.0
H1300 H 0.70387 0.95944 0.52756 0.0
H1301 H 0.73555 0.95548 0.46614 0.0
H1302 H 0.67119 0.98005 0.47183 0.0
H1303 H 0.71275 0.9817 0.67075 0.0
H1304 H 0.73915 0.99417 0.75343 0.0
H1305 H 0.70977 0.04818 0.79832 0.0
H1306 H 0.68331 0.03616 0.71491 0.0
H1307 H 0.57928 0.96927 0.64265 0.0
H1308 H 0.61361 0.96694 0.60042 0.0
H1309 H 0.62616 0.02557 0.69565 0.0
H1310 H 0.5922 0.02756 0.74082 0.0
H1311 H 0.65693 0.0076 0.71215 0.0
H1312 H 0.61768 0.00949 0.51307 0.0
H1313 H 0.59136 1.00004 0.42656 0.0
H1314 H 0.61654 0.94413 0.37509 0.0
H1315 H 0.64285 0.95313 0.46204 0.0
C1316 C 0.7349 0.00455 0.49451 0.0
C1317 C 0.74184 0.98605 0.46943 0.0
C1318 C 0.71658 0.00678 0.52968 0.0
C1319 C 0.70488 0.99055 0.5404 0.0
C1320 C 0.71245 0.97217 0.51923 0.0
C1321 C 0.73067 0.96994 0.48448 0.0
C1322 C 0.68411 0.99244 0.56844 0.0
C1323 C 0.66806 0.98589 0.52462 0.0
C1324 C 0.67994 0.00074 0.63659 0.0
C1325 C 0.69614 0.00809 0.68566 0.0
C1326 C 0.71207 0.99636 0.69721 0.0
C1327 C 0.72701 0.00331 0.74458 0.0
C1328 C 0.72618 0.02198 0.78093 0.0
C1329 C 0.7104 0.03373 0.77004 0.0
C1330 C 0.69542 0.02684 0.72276 0.0
C1331 C 0.58932 0.9817 0.65442 0.0
C1332 C 0.5828 0.99864 0.69493 0.0
C1333 C 0.60904 0.98041 0.62983 0.0
C1334 C 0.62271 0.99621 0.64329 0.0
C1335 C 0.61616 0.0131 0.6841 0.0
C1336 C 0.59659 0.01426 0.7098 0.0
C1337 C 0.64374 0.99516 0.61549 0.0
C1338 C 0.65991 0.00184 0.65921 0.0
C1339 C 0.64805 0.98747 0.54651 0.0
C1340 C 0.63209 0.98191 0.49478 0.0
C1341 C 0.61749 0.99511 0.48381 0.0
C1342 C 0.60259 0.98984 0.43459 0.0
C1343 C 0.60224 0.97147 0.39553 0.0
C1344 C 0.6168 0.95833 0.40552 0.0
C1345 C 0.63171 0.96351 0.45478 0.0
H1346 H 0.59071 0.96743 0.35737 0.0
H1347 H 0.73774 0.02732 0.81767 0.0
H1348 H 0.58573 0.71106 0.18876 0.0
H1349 H 0.59019 0.68561 0.25853 0.0
H1350 H 0.53409 0.69988 0.35889 0.0
H1351 H 0.53043 0.72612 0.29224 0.0
H1352 H 0.55672 0.68993 0.44677 0.0
H1353 H 0.53892 0.65439 0.21503 0.0
H1354 H 0.54345 0.64491 0.09044 0.0
H1355 H 0.60553 0.63556 0.12135 0.0
H1356 H 0.60118 0.64414 0.2461 0.0
H1357 H 0.54071 0.57908 0.44059 0.0
H1358 H 0.54062 0.60815 0.38698 0.0
H1359 H 0.58492 0.63507 0.53134 0.0
H1360 H 0.58525 0.6059 0.5848 0.0
H1361 H 0.56984 0.62451 0.32334 0.0
H1362 H 0.57999 0.68019 0.56219 0.0
H1363 H 0.5687 0.68815 0.68178 0.0
H1364 H 0.51341 0.6569 0.63008 0.0
H1365 H 0.52468 0.64826 0.51075 0.0
C1366 C 0.57474 0.70908 0.22741 0.0
C1367 C 0.5579 0.72066 0.23606 0.0
C1368 C 0.57704 0.69427 0.26622 0.0
C1369 C 0.56217 0.69028 0.31265 0.0
C1370 C 0.5458 0.70253 0.32348 0.0
C1371 C 0.54376 0.71765 0.28584 0.0
C1372 C 0.56329 0.67322 0.34887 0.0
C1373 C 0.5597 0.67566 0.41955 0.0
C1374 C 0.56699 0.65444 0.31412 0.0
C1375 C 0.56981 0.65023 0.23938 0.0
C1376 C 0.55356 0.65052 0.19499 0.0
C1377 C 0.55606 0.64523 0.12453 0.0
C1378 C 0.5748 0.64 0.09798 0.0
C1379 C 0.59104 0.63975 0.14191 0.0
C1380 C 0.58854 0.64465 0.21247 0.0
C1381 C 0.55057 0.59112 0.46059 0.0
C1382 C 0.56299 0.59015 0.517 0.0
C1383 C 0.55039 0.6078 0.43023 0.0
C1384 C 0.56258 0.62392 0.45557 0.0
C1385 C 0.5751 0.62298 0.51164 0.0
C1386 C 0.57534 0.60625 0.54193 0.0
C1387 C 0.56294 0.64123 0.42071 0.0
C1388 C 0.567 0.63882 0.35048 0.0
C1389 C 0.55922 0.65993 0.45553 0.0
C1390 C 0.55324 0.66345 0.52808 0.0
C1391 C 0.56554 0.67482 0.57673 0.0
C1392 C 0.55916 0.67943 0.64436 0.0
C1393 C 0.54036 0.67303 0.66348 0.0
C1394 C 0.52799 0.66182 0.61519 0.0
C1395 C 0.53447 0.65685 0.5478 0.0
H1396 H 0.53537 0.67679 0.71567 0.0
H1397 H 0.57669 0.63597 0.04342 0.0
H1398 H 0.80718 0.47991 0.47067 0.0
H1399 H 0.83823 0.47824 0.53545 0.0
H1400 H 0.8601 0.53079 0.47048 0.0
H1401 H 0.82946 0.53227 0.40542 0.0
H1402 H 0.8874 0.50493 0.44755 0.0
H1403 H 0.8452 0.52674 0.64306 0.0
H1404 H 0.8167 0.52473 0.72089 0.0
H1405 H 0.8357 0.46962 0.76012 0.0
H1406 H 0.86419 0.4712 0.68188 0.0
H1407 H 0.9759 0.52556 0.63972 0.0
H1408 H 0.94226 0.52645 0.59304 0.0
H1409 H 0.9252 0.47545 0.67774 0.0
H1410 H 0.95863 0.47484 0.72644 0.0
H1411 H 0.89506 0.49788 0.69109 0.0
H1412 H 0.93625 0.47458 0.50213 0.0
H1413 H 0.96503 0.47414 0.42423 0.0
H1414 H 0.94768 0.52795 0.36817 0.0
H1415 H 0.91892 0.52883 0.44644 0.0
C1416 C 0.81845 0.49131 0.47157 0.0
C1417 C 0.81582 0.50618 0.43254 0.0
C1418 C 0.83626 0.49035 0.50862 0.0
C1419 C 0.85174 0.50438 0.50815 0.0
C1420 C 0.84862 0.51966 0.47159 0.0
C1421 C 0.831 0.52054 0.43444 0.0
C1422 C 0.87173 0.50273 0.5411 0.0
C1423 C 0.889 0.50367 0.50113 0.0
C1424 C 0.87406 0.50013 0.61023 0.0
C1425 C 0.85668 0.49899 0.65597 0.0
C1426 C 0.84315 0.51409 0.66759 0.0
C1427 C 0.82702 0.51304 0.71189 0.0
C1428 C 0.82432 0.49701 0.74511 0.0
C1429 C 0.83773 0.48197 0.734 0.0
C1430 C 0.85388 0.48294 0.68974 0.0
C1431 C 0.96504 0.51449 0.64843 0.0
C1432 C 0.97024 0.49999 0.68631 0.0
C1433 C 0.94572 0.51496 0.62135 0.0
C1434 C 0.93106 0.50077 0.63028 0.0
C1435 C 0.93609 0.48654 0.66947 0.0
C1436 C 0.95537 0.48615 0.69707 0.0
C1437 C 0.91072 0.50064 0.59781 0.0
C1438 C 0.89344 0.49919 0.63757 0.0
C1439 C 0.90829 0.50234 0.52793 0.0
C1440 C 0.92553 0.50186 0.48065 0.0
C1441 C 0.93865 0.48639 0.47355 0.0
C1442 C 0.95494 0.48605 0.42927 0.0
C1443 C 0.95821 0.50104 0.39141 0.0
C1444 C 0.94514 0.51637 0.3976 0.0
C1445 C 0.92883 0.51678 0.44187 0.0
H1446 H 0.97083 0.50075 0.35716 0.0
H1447 H 0.81192 0.49629 0.7798 0.0
loop_
_geom_bond_atom_site_label_1
_geom_bond_atom_site_label_2
_geom_bond_distance
_geom_bond_site_symmetry_2
_ccdc_geom_bond_type
H0 C3 0.929 . S
H1 C6 0.929 . S
H2 C8 0.930 . S
C3 H0 0.929 . S
C3 C4 1.398 . S
C3 C5 1.396 . S
C4 C3 1.398 . S
C4 C8 1.407 . S
C5 C3 1.396 . S
C5 C6 1.394 . S
C6 H1 0.929 . S
C6 C5 1.394 . S
C6 C7 1.382 . S
C7 C6 1.382 . S
C7 C8 1.392 . S
C7 N9 1.420 . S
C8 H2 0.930 . S
C8 C4 1.407 . S
C8 C7 1.392 . S
N9 C7 1.420 . S
N9 C10 1.244 . S
C10 N9 1.244 . S
H11 C14 0.929 . S
H12 C17 0.929 . S
H13 C19 0.930 . S
C14 H11 0.929 . S
C14 C15 1.398 . S
C14 C16 1.396 . S
C15 C14 1.398 . S
C15 C19 1.407 . S
C16 C14 1.396 . S
C16 C17 1.394 . S
C17 H12 0.929 . S
C17 C16 1.394 . S
C17 C18 1.382 . S
C18 C17 1.382 . S
C18 C19 1.392 . S
C18 N20 1.432 . S
C19 H13 0.930 . S
C19 C15 1.407 . S
C19 C18 1.392 . S
N20 C18 1.432 . S
N20 C21 1.272 . S
C21 N20 1.272 . S
H22 C25 0.929 . S
H23 C28 0.929 . S
H24 C30 0.930 . S
C25 H22 0.929 . S
C25 C26 1.400 1_565 S
C25 C27 1.393 1_565 S
C26 C25 1.400 1_545 S
C26 C30 1.413 . S
C27 C25 1.393 1_545 S
C27 C28 1.396 . S
C28 H23 0.929 . S
C28 C27 1.396 . S
C28 C29 1.382 . S
C29 C28 1.382 . S
C29 C30 1.392 . S
C29 N31 1.420 . S
C30 H24 0.930 . S
C30 C26 1.413 . S
C30 C29 1.392 . S
N31 C29 1.420 . S
N31 C32 1.235 1_545 S
C32 N31 1.235 1_565 S
H33 C36 0.929 . S
H34 C39 0.929 . S
H35 C41 0.930 . S
C36 H33 0.929 . S
C36 C37 1.398 . S
C36 C38 1.396 1_554 S
C37 C36 1.398 . S
C37 C41 1.407 . S
C38 C36 1.396 1_556 S
C38 C39 1.394 . S
C39 H34 0.929 . S
C39 C38 1.394 . S
C39 C40 1.382 1_556 S
C40 C39 1.382 1_554 S
C40 C41 1.392 . S
C40 N42 1.420 . S
C41 H35 0.930 . S
C41 C37 1.407 . S
C41 C40 1.392 . S
N42 C40 1.420 . S
N42 C43 1.244 1_554 S
C43 N42 1.244 1_556 S
H44 C47 0.929 . S
H45 C50 0.929 . S
H46 C52 0.930 . S
C47 H44 0.929 . S
C47 C48 1.398 . S
C47 C49 1.396 . S
C48 C47 1.398 . S
C48 C52 1.407 . S
C49 C47 1.396 . S
C49 C50 1.394 . S
C50 H45 0.929 . S
C50 C49 1.394 . S
C50 C51 1.382 . S
C51 C50 1.382 . S
C51 C52 1.392 . S
C51 N53 1.420 . S
C52 H46 0.930 . S
C52 C48 1.407 . S
C52 C51 1.392 . S
N53 C51 1.420 . S
N53 C54 1.244 . S
C54 N53 1.244 . S
H55 C58 0.929 . S
H56 C61 0.929 . S
H57 C63 0.930 . S
C58 H55 0.929 . S
C58 C59 1.398 . S
C58 C60 1.396 . S
C59 C58 1.398 . S
C59 C63 1.407 . S
C60 C58 1.396 . S
C60 C61 1.394 . S
C61 H56 0.929 . S
C61 C60 1.394 . S
C61 C62 1.382 . S
C62 C61 1.382 . S
C62 C63 1.392 . S
C62 N64 1.420 . S
C63 H57 0.930 . S
C63 C59 1.407 . S
C63 C62 1.392 . S
N64 C62 1.420 . S
N64 C65 1.244 . S
C65 N64 1.244 . S
H66 C69 0.929 . S
H67 C72 0.929 . S
H68 C74 0.930 . S
C69 H66 0.929 . S
C69 C70 1.388 1_565 S
C69 C71 1.397 1_565 S
C70 C69 1.388 1_545 S
C70 C74 1.416 . S
C71 C69 1.397 1_545 S
C71 C72 1.399 . S
C72 H67 0.929 . S
C72 C71 1.399 . S
C72 C73 1.382 . S
C73 C72 1.382 . S
C73 C74 1.392 . S
C73 N75 1.420 . S
C74 H68 0.930 . S
C74 C70 1.416 . S
C74 C73 1.392 . S
N75 C73 1.420 . S
N75 C76 1.236 1_545 S
C76 N75 1.236 1_565 S
H77 C80 0.929 . S
H78 C83 0.929 . S
H79 C85 0.930 . S
C80 H77 0.929 . S
C80 C81 1.398 . S
C80 C82 1.396 . S
C81 C80 1.398 . S
C81 C85 1.407 . S
C82 C80 1.396 . S
C82 C83 1.394 . S
C83 H78 0.929 . S
C83 C82 1.394 . S
C83 C84 1.382 . S
C84 C83 1.382 . S
C84 C85 1.392 . S
C84 N86 1.420 . S
C85 H79 0.930 . S
C85 C81 1.407 . S
C85 C84 1.392 . S
N86 C84 1.420 . S
N86 C87 1.244 . S
C87 N86 1.244 . S
Tb88 C97 2.762 1_455 S
Tb88 O98 2.340 . S
Tb88 O101 2.352 . S
Tb88 O105 2.319 1_445 S
Tb88 O106 2.309 1_455 S
Tb88 O109 2.436 . S
Tb88 O110 2.374 1_455 S
Tb89 O99 2.322 1_565 S
Tb89 O100 2.349 . S
Tb89 O102 2.415 . S
Tb89 O103 2.399 . S
Tb89 O104 2.325 . S
Tb89 O107 2.303 1_455 S
Tb89 C118 2.764 . S
C90 O106 1.261 . S
C90 O107 1.257 1_545 S
C91 C94 1.389 . S
C91 C95 1.304 1_655 S
C91 C97 1.503 . S
C92 C93 1.373 . S
C92 C96 1.308 1_655 S
C93 C92 1.373 . S
C93 C94 1.429 . S
C93 H120 0.932 . S
C94 C91 1.389 . S
C94 C93 1.429 . S
C94 H121 0.930 . S
C95 C91 1.304 1_455 S
C95 C96 1.394 . S
C95 H122 0.932 . S
C96 C92 1.308 1_455 S
C96 C95 1.394 . S
C96 H123 0.929 . S
C97 Tb88 2.762 1_655 S
C97 C91 1.503 . S
C97 O109 1.236 1_655 S
C97 O110 1.265 . S
O98 Tb88 2.340 . S
O98 C108 1.236 . S
O99 Tb89 2.322 1_545 S
O99 C108 1.257 . S
O100 Tb89 2.349 . S
O100 C111 1.261 . S
O101 Tb88 2.352 . S
O101 C111 1.257 1_545 S
O102 Tb89 2.415 . S
O102 C118 1.239 . S
O103 Tb89 2.399 . S
O103 C118 1.263 . S
O104 Tb89 2.325 . S
O104 C119 1.236 . S
O105 Tb88 2.319 1_665 S
O105 C119 1.257 1_655 S
O106 Tb88 2.309 1_655 S
O106 C90 1.261 . S
O107 Tb89 2.303 1_655 S
O107 C90 1.257 1_565 S
C108 O98 1.236 . S
C108 O99 1.257 . S
O109 Tb88 2.436 . S
O109 C97 1.236 1_455 S
O110 Tb88 2.374 1_655 S
O110 C97 1.265 . S
C111 O100 1.261 . S
C111 O101 1.257 1_565 S
C112 C115 1.358 . S
C112 C116 1.332 . S
C112 C118 1.504 . S
C113 C114 1.373 . S
C113 C117 1.308 . S
C114 C113 1.373 . S
C114 C115 1.429 . S
C114 H124 0.932 . S
C115 C112 1.358 . S
C115 C114 1.429 . S
C115 H125 0.930 . S
C116 C112 1.332 . S
C116 C117 1.394 . S
C116 H126 0.932 . S
C117 C113 1.308 . S
C117 C116 1.394 . S
C117 H127 0.929 . S
C118 Tb89 2.764 . S
C118 O102 1.239 . S
C118 O103 1.263 . S
C118 C112 1.504 . S
C119 O104 1.236 . S
C119 O105 1.257 1_455 S
H120 C93 0.932 . S
H121 C94 0.930 . S
H122 C95 0.932 . S
H123 C96 0.929 . S
H124 C114 0.932 . S
H125 C115 0.930 . S
H126 C116 0.932 . S
H127 C117 0.929 . S
Tb128 C137 2.764 . S
Tb128 O138 2.325 . S
Tb128 O141 2.303 1_565 S
Tb128 O145 2.322 . S
Tb128 O146 2.349 . S
Tb128 O149 2.415 1_565 S
Tb128 O150 2.399 . S
Tb129 O139 2.322 . S
Tb129 O140 2.349 . S
Tb129 O142 2.415 1_545 S
Tb129 O143 2.399 . S
Tb129 O144 2.325 . S
Tb129 O147 2.303 1_545 S
Tb129 C158 2.764 . S
C130 O146 1.261 . S
C130 O147 1.257 . S
C131 C134 1.358 . S
C131 C135 1.332 1_565 S
C131 C137 1.504 . S
C132 C133 1.373 . S
C132 C136 1.308 1_565 S
C133 C132 1.373 . S
C133 C134 1.429 . S
C133 H160 0.932 . S
C134 C131 1.358 . S
C134 C133 1.429 . S
C134 H161 0.930 . S
C135 C131 1.332 1_545 S
C135 C136 1.394 . S
C135 H162 0.932 . S
C136 C132 1.308 1_545 S
C136 C135 1.394 . S
C136 H163 0.929 . S
C137 Tb128 2.764 . S
C137 C131 1.504 . S
C137 O149 1.239 1_565 S
C137 O150 1.263 . S
O138 Tb128 2.325 . S
O138 C148 1.236 1_565 S
O139 Tb129 2.322 . S
O139 C148 1.257 . S
O140 Tb129 2.349 . S
O140 C151 1.261 . S
O141 Tb128 2.303 1_545 S
O141 C151 1.257 . S
O142 Tb129 2.415 1_565 S
O142 C158 1.239 1_565 S
O143 Tb129 2.399 . S
O143 C158 1.263 . S
O144 Tb129 2.325 . S
O144 C159 1.236 1_545 S
O145 Tb128 2.322 . S
O145 C159 1.257 . S
O146 Tb128 2.349 . S
O146 C130 1.261 . S
O147 Tb129 2.303 1_565 S
O147 C130 1.257 . S
C148 O138 1.236 1_545 S
C148 O139 1.257 . S
O149 Tb128 2.415 1_545 S
O149 C137 1.239 1_545 S
O150 Tb128 2.399 . S
O150 C137 1.263 . S
C151 O140 1.261 . S
C151 O141 1.257 . S
C152 C155 1.358 1_556 S
C152 C156 1.332 1_545 S
C152 C158 1.504 . S
C153 C154 1.373 . S
C153 C157 1.312 1_545 S
C154 C153 1.373 . S
C154 C155 1.429 . S
C154 H164 0.932 . S
C155 C152 1.358 1_554 S
C155 C154 1.429 . S
C155 H165 0.930 . S
C156 C152 1.332 1_565 S
C156 C157 1.390 1_556 S
C156 H166 0.932 . S
C157 C153 1.312 1_565 S
C157 C156 1.390 1_554 S
C157 H167 0.929 1_554 S
C158 Tb129 2.764 . S
C158 O142 1.239 1_545 S
C158 O143 1.263 . S
C158 C152 1.504 . S
C159 O144 1.236 1_565 S
C159 O145 1.257 . S
H160 C133 0.932 . S
H161 C134 0.930 . S
H162 C135 0.932 . S
H163 C136 0.929 . S
H164 C154 0.932 . S
H165 C155 0.930 . S
H166 C156 0.932 . S
H167 C157 0.929 1_556 S
Tb168 C177 2.764 . S
Tb168 O178 2.325 . S
Tb168 O181 2.303 . S
Tb168 O185 2.322 . S
Tb168 O186 2.349 . S
Tb168 O189 2.415 . S
Tb168 O190 2.399 . S
Tb169 O179 2.322 . S
Tb169 O180 2.349 . S
Tb169 O182 2.415 . S
Tb169 O183 2.399 . S
Tb169 O184 2.325 . S
Tb169 O187 2.303 . S
Tb169 C198 2.764 . S
C170 O186 1.261 . S
C170 O187 1.257 . S
C171 C174 1.358 1_556 S
C171 C175 1.332 1_556 S
C171 C177 1.504 . S
C172 C173 1.373 . S
C172 C176 1.308 . S
C173 C172 1.373 . S
C173 C174 1.429 . S
C173 H200 0.932 . S
C174 C171 1.358 1_554 S
C174 C173 1.429 . S
C174 H201 0.930 1_554 S
C175 C171 1.332 1_554 S
C175 C176 1.394 . S
C175 H202 0.932 1_554 S
C176 C172 1.308 . S
C176 C175 1.394 . S
C176 H203 0.929 . S
C177 Tb168 2.764 . S
C177 C171 1.504 . S
C177 O189 1.239 . S
C177 O190 1.263 . S
O178 Tb168 2.325 . S
O178 C188 1.236 . S
O179 Tb169 2.322 . S
O179 C188 1.257 . S
O180 Tb169 2.349 . S
O180 C191 1.261 . S
O181 Tb168 2.303 . S
O181 C191 1.257 . S
O182 Tb169 2.415 . S
O182 C198 1.239 . S
O183 Tb169 2.399 . S
O183 C198 1.263 . S
O184 Tb169 2.325 . S
O184 C199 1.236 . S
O185 Tb168 2.322 . S
O185 C199 1.257 . S
O186 Tb168 2.349 . S
O186 C170 1.261 . S
O187 Tb169 2.303 . S
O187 C170 1.257 . S
C188 O178 1.236 . S
C188 O179 1.257 . S
O189 Tb168 2.415 . S
O189 C177 1.239 . S
O190 Tb168 2.399 . S
O190 C177 1.263 . S
C191 O180 1.261 . S
C191 O181 1.257 . S
C192 C195 1.358 . S
C192 C196 1.332 . S
C192 C198 1.504 . S
C193 C194 1.373 . S
C193 C197 1.308 . S
C194 C193 1.373 . S
C194 C195 1.429 . S
C194 H204 0.932 . S
C195 C192 1.358 . S
C195 C194 1.429 . S
C195 H205 0.930 . S
C196 C192 1.332 . S
C196 C197 1.394 . S
C196 H206 0.932 . S
C197 C193 1.308 . S
C197 C196 1.394 . S
C197 H207 0.929 . S
C198 Tb169 2.764 . S
C198 O182 1.239 . S
C198 O183 1.263 . S
C198 C192 1.504 . S
C199 O184 1.236 . S
C199 O185 1.257 . S
H200 C173 0.932 . S
H201 C174 0.930 1_556 S
H202 C175 0.932 1_556 S
H203 C176 0.929 . S
H204 C194 0.932 . S
H205 C195 0.930 . S
H206 C196 0.932 . S
H207 C197 0.929 . S
Tb208 C217 2.764 . S
Tb208 O218 2.325 . S
Tb208 O221 2.303 . S
Tb208 O225 2.322 1_455 S
Tb208 O226 2.349 . S
Tb208 O229 2.415 . S
Tb208 O230 2.399 . S
Tb209 O219 2.382 . S
Tb209 O220 2.359 . S
Tb209 O222 2.368 1_455 S
Tb209 O223 2.351 1_455 S
Tb209 O224 2.288 1_455 S
Tb209 O227 2.319 . S
Tb209 C238 2.711 1_455 S
C210 O226 1.261 . S
C210 O227 1.257 . S
C211 C214 1.358 . S
C211 C215 1.332 . S
C211 C217 1.504 . S
C212 C213 1.373 . S
C212 C216 1.308 . S
C213 C212 1.373 . S
C213 C214 1.429 . S
C213 H240 0.932 . S
C214 C211 1.358 . S
C214 C213 1.429 . S
C214 H241 0.930 . S
C215 C211 1.332 . S
C215 C216 1.394 . S
C215 H242 0.932 . S
C216 C212 1.308 . S
C216 C215 1.394 . S
C216 H243 0.929 . S
C217 Tb208 2.764 . S
C217 C211 1.504 . S
C217 O229 1.239 . S
C217 O230 1.263 . S
O218 Tb208 2.325 . S
O218 C228 1.236 . S
O219 Tb209 2.382 . S
O219 C228 1.257 . S
O220 Tb209 2.359 . S
O220 C231 1.261 . S
O221 Tb208 2.303 . S
O221 C231 1.257 . S
O222 Tb209 2.368 1_655 S
O222 C238 1.239 . S
O223 Tb209 2.351 1_655 S
O223 C238 1.263 . S
O224 Tb209 2.288 1_655 S
O224 C239 1.236 . S
O225 Tb208 2.322 1_655 S
O225 C239 1.257 . S
O226 Tb208 2.349 . S
O226 C210 1.261 . S
O227 Tb209 2.319 . S
O227 C210 1.257 . S
C228 O218 1.236 . S
C228 O219 1.257 . S
O229 Tb208 2.415 . S
O229 C217 1.239 . S
O230 Tb208 2.399 . S
O230 C217 1.263 . S
C231 O220 1.261 . S
C231 O221 1.257 . S
C232 C235 1.358 . S
C232 C236 1.332 . S
C232 C238 1.504 . S
C233 C234 1.375 . S
C233 C237 1.308 . S
C234 C233 1.375 . S
C234 C235 1.422 1_554 S
C234 H244 0.937 . S
C235 C232 1.358 . S
C235 C234 1.422 1_556 S
C235 H245 0.930 . S
C236 C232 1.332 . S
C236 C237 1.394 1_556 S
C236 H246 0.932 . S
C237 C233 1.308 . S
C237 C236 1.394 1_554 S
C237 H247 0.929 . S
C238 Tb209 2.711 1_655 S
C238 O222 1.239 . S
C238 O223 1.263 . S
C238 C232 1.504 . S
C239 O224 1.236 . S
C239 O225 1.257 . S
H240 C213 0.932 . S
H241 C214 0.930 . S
H242 C215 0.932 . S
H243 C216 0.929 . S
H244 C234 0.937 . S
H245 C235 0.930 . S
H246 C236 0.932 . S
H247 C237 0.929 . S
H248 C266 0.951 . S
H249 C268 0.951 . S
H250 C270 0.950 . S
H251 C271 0.950 . S
H252 C273 0.950 . S
H253 C276 0.950 . S
H254 C277 0.950 . S
H255 C279 0.950 . S
H256 C280 0.950 . S
H257 C281 0.951 . S
H258 C283 0.951 . S
H259 C285 0.947 . S
H260 C286 0.950 . S
H261 C288 0.950 . S
H262 C291 0.950 . S
H263 C292 0.950 . S
H264 C294 0.950 . S
H265 C295 0.950 . S
C266 H248 0.951 . S
C266 C267 1.366 1_565 S
C266 C268 1.386 . S
C267 C266 1.366 1_545 S
C267 C271 1.384 . S
C268 H249 0.951 . S
C268 C266 1.386 . S
C268 C269 1.367 1_565 S
C269 C268 1.367 1_545 S
C269 C270 1.414 . S
C269 C272 1.499 . S
C270 H250 0.950 . S
C270 C269 1.414 . S
C270 C271 1.374 . S
C271 H251 0.950 . S
C271 C267 1.384 . S
C271 C270 1.374 . S
C272 C269 1.499 . S
C272 C273 1.373 1_545 S
C272 C274 1.389 . S
C273 H252 0.950 . S
C273 C272 1.373 1_565 S
C273 C289 1.377 . S
C274 C272 1.389 . S
C274 C275 1.524 . S
C274 C288 1.377 . S
C275 C274 1.524 . S
C275 C276 1.397 . S
C275 C280 1.363 . S
C276 H253 0.950 . S
C276 C275 1.397 . S
C276 C277 1.334 . S
C277 H254 0.950 . S
C277 C276 1.334 . S
C277 C278 1.287 . S
C278 C277 1.287 . S
C278 C279 1.524 . S
C278 H297 0.913 . S
C279 H255 0.950 . S
C279 C278 1.524 . S
C279 C280 1.415 . S
C280 H256 0.950 . S
C280 C275 1.363 . S
C280 C279 1.415 . S
C281 H257 0.951 . S
C281 C282 1.366 . S
C281 C283 1.388 . S
C282 C281 1.366 . S
C282 C286 1.386 1_545 S
C283 H258 0.951 . S
C283 C281 1.388 . S
C283 C284 1.365 . S
C284 C283 1.365 . S
C284 C285 1.416 1_545 S
C284 C287 1.499 1_545 S
C285 H259 0.947 . S
C285 C284 1.416 1_565 S
C285 C286 1.377 . S
C286 H260 0.950 . S
C286 C282 1.386 1_565 S
C286 C285 1.377 . S
C287 C284 1.499 1_565 S
C287 C288 1.372 1_565 S
C287 C289 1.391 . S
C288 H261 0.950 . S
C288 C274 1.377 . S
C288 C287 1.372 1_545 S
C289 C273 1.377 . S
C289 C287 1.391 . S
C289 C290 1.524 . S
C290 C289 1.524 . S
C290 C291 1.397 . S
C290 C295 1.363 . S
C291 H262 0.950 . S
C291 C290 1.397 . S
C291 C292 1.334 . S
C292 H263 0.950 . S
C292 C291 1.334 . S
C292 C293 1.287 . S
C293 C292 1.287 . S
C293 C294 1.524 . S
C293 H296 0.999 . S
C294 H264 0.950 . S
C294 C293 1.524 . S
C294 C295 1.415 . S
C295 H265 0.950 . S
C295 C290 1.363 . S
C295 C294 1.415 . S
H296 C293 0.999 . S
H297 C278 0.913 . S
H298 C316 0.951 . S
H299 C318 0.951 . S
H300 C320 0.950 . S
H301 C321 0.950 . S
H302 C323 0.950 . S
H303 C326 0.950 . S
H304 C327 0.950 . S
H305 C329 0.950 . S
H306 C330 0.950 . S
H307 C331 0.951 . S
H308 C333 0.951 . S
H309 C335 0.950 . S
H310 C336 0.950 . S
H311 C338 0.950 . S
H312 C341 0.950 . S
H313 C342 0.950 . S
H314 C344 0.950 . S
H315 C345 0.950 . S
C316 H298 0.951 . S
C316 C317 1.366 . S
C316 C318 1.388 . S
C317 C316 1.366 . S
C317 C321 1.385 . S
C318 H299 0.951 . S
C318 C316 1.388 . S
C318 C319 1.366 . S
C319 C318 1.366 . S
C319 C320 1.414 . S
C319 C322 1.499 . S
C320 H300 0.950 . S
C320 C319 1.414 . S
C320 C321 1.374 . S
C321 H301 0.950 . S
C321 C317 1.385 . S
C321 C320 1.374 . S
C322 C319 1.499 . S
C322 C323 1.373 . S
C322 C324 1.389 . S
C323 H302 0.950 . S
C323 C322 1.373 . S
C323 C339 1.377 . S
C324 C322 1.389 . S
C324 C325 1.524 . S
C324 C338 1.377 . S
C325 C324 1.524 . S
C325 C326 1.397 . S
C325 C330 1.363 . S
C326 H303 0.950 . S
C326 C325 1.397 . S
C326 C327 1.334 . S
C327 H304 0.950 . S
C327 C326 1.334 . S
C327 C328 1.287 . S
C328 C327 1.287 . S
C328 C329 1.524 . S
C328 H347 0.913 . S
C329 H305 0.950 . S
C329 C328 1.524 . S
C329 C330 1.415 . S
C330 H306 0.950 . S
C330 C325 1.363 . S
C330 C329 1.415 . S
C331 H307 0.951 . S
C331 C332 1.366 . S
C331 C333 1.388 . S
C332 C331 1.366 . S
C332 C336 1.385 . S
C333 H308 0.951 . S
C333 C331 1.388 . S
C333 C334 1.366 . S
C334 C333 1.366 . S
C334 C335 1.414 . S
C334 C337 1.499 . S
C335 H309 0.950 . S
C335 C334 1.414 . S
C335 C336 1.374 . S
C336 H310 0.950 . S
C336 C332 1.385 . S
C336 C335 1.374 . S
C337 C334 1.499 . S
C337 C338 1.373 . S
C337 C339 1.389 . S
C338 H311 0.950 . S
C338 C324 1.377 . S
C338 C337 1.373 . S
C339 C323 1.377 . S
C339 C337 1.389 . S
C339 C340 1.524 . S
C340 C339 1.524 . S
C340 C341 1.397 . S
C340 C345 1.363 . S
C341 H312 0.950 . S
C341 C340 1.397 . S
C341 C342 1.334 . S
C342 H313 0.950 . S
C342 C341 1.334 . S
C342 C343 1.287 . S
C343 C342 1.287 . S
C343 C344 1.524 . S
C343 H346 0.999 . S
C344 H314 0.950 . S
C344 C343 1.524 . S
C344 C345 1.415 . S
C345 H315 0.950 . S
C345 C340 1.363 . S
C345 C344 1.415 . S
H346 C343 0.999 . S
H347 C328 0.913 . S
H348 C366 0.951 . S
H349 C368 0.951 . S
H350 C370 0.950 . S
H351 C371 0.950 . S
H352 C373 0.950 . S
H353 C376 0.950 . S
H354 C377 0.950 . S
H355 C379 0.950 . S
H356 C380 0.950 . S
H357 C381 0.951 . S
H358 C383 0.951 . S
H359 C385 0.950 . S
H360 C386 0.950 . S
H361 C388 0.950 . S
H362 C391 0.950 . S
H363 C392 0.950 . S
H364 C394 0.950 . S
H365 C395 0.950 . S
C366 H348 0.951 . S
C366 C367 1.366 . S
C366 C368 1.388 . S
C367 C366 1.366 . S
C367 C371 1.385 . S
C368 H349 0.951 . S
C368 C366 1.388 . S
C368 C369 1.366 . S
C369 C368 1.366 . S
C369 C370 1.414 . S
C369 C372 1.499 . S
C370 H350 0.950 . S
C370 C369 1.414 . S
C370 C371 1.374 . S
C371 H351 0.950 . S
C371 C367 1.385 . S
C371 C370 1.374 . S
C372 C369 1.499 . S
C372 C373 1.373 . S
C372 C374 1.389 . S
C373 H352 0.950 . S
C373 C372 1.373 . S
C373 C389 1.377 . S
C374 C372 1.389 . S
C374 C375 1.524 . S
C374 C388 1.377 . S
C375 C374 1.524 . S
C375 C376 1.397 . S
C375 C380 1.363 . S
C376 H353 0.950 . S
C376 C375 1.397 . S
C376 C377 1.334 . S
C377 H354 0.950 . S
C377 C376 1.334 . S
C377 C378 1.287 . S
C378 C377 1.287 . S
C378 C379 1.524 . S
C378 H397 0.913 . S
C379 H355 0.950 . S
C379 C378 1.524 . S
C379 C380 1.415 . S
C380 H356 0.950 . S
C380 C375 1.363 . S
C380 C379 1.415 . S
C381 H357 0.951 . S
C381 C382 1.366 . S
C381 C383 1.388 . S
C382 C381 1.366 . S
C382 C386 1.385 . S
C383 H358 0.951 . S
C383 C381 1.388 . S
C383 C384 1.366 . S
C384 C383 1.366 . S
C384 C385 1.414 . S
C384 C387 1.499 . S
C385 H359 0.950 . S
C385 C384 1.414 . S
C385 C386 1.374 . S
C386 H360 0.950 . S
C386 C382 1.385 . S
C386 C385 1.374 . S
C387 C384 1.499 . S
C387 C388 1.373 . S
C387 C389 1.389 . S
C388 H361 0.950 . S
C388 C374 1.377 . S
C388 C387 1.373 . S
C389 C373 1.377 . S
C389 C387 1.389 . S
C389 C390 1.524 . S
C390 C389 1.524 . S
C390 C391 1.397 . S
C390 C395 1.363 . S
C391 H362 0.950 . S
C391 C390 1.397 . S
C391 C392 1.334 . S
C392 H363 0.950 . S
C392 C391 1.334 . S
C392 C393 1.287 . S
C393 C392 1.287 . S
C393 C394 1.524 . S
C393 H396 0.999 . S
C394 H364 0.950 . S
C394 C393 1.524 . S
C394 C395 1.415 . S
C395 H365 0.950 . S
C395 C390 1.363 . S
C395 C394 1.415 . S
H396 C393 0.999 . S
H397 C378 0.913 . S
H398 C416 0.951 . S
H399 C418 0.951 . S
H400 C420 0.950 . S
H401 C421 0.950 . S
H402 C423 0.950 . S
H403 C426 0.950 . S
H404 C427 0.950 . S
H405 C429 0.950 . S
H406 C430 0.950 . S
H407 C431 0.951 1_655 S
H408 C433 0.951 1_655 S
H409 C435 0.950 . S
H410 C436 0.950 . S
H411 C438 0.950 . S
H412 C441 0.950 1_455 S
H413 C442 0.950 . S
H414 C444 0.950 . S
H415 C445 0.950 . S
C416 H398 0.951 . S
C416 C417 1.366 . S
C416 C418 1.388 . S
C417 C416 1.366 . S
C417 C421 1.385 . S
C418 H399 0.951 . S
C418 C416 1.388 . S
C418 C419 1.366 . S
C419 C418 1.366 . S
C419 C420 1.414 . S
C419 C422 1.499 . S
C420 H400 0.950 . S
C420 C419 1.414 . S
C420 C421 1.374 . S
C421 H401 0.950 . S
C421 C417 1.385 . S
C421 C420 1.374 . S
C422 C419 1.499 . S
C422 C423 1.373 . S
C422 C424 1.389 . S
C423 H402 0.950 . S
C423 C422 1.373 . S
C423 C439 1.377 . S
C424 C422 1.389 . S
C424 C425 1.524 . S
C424 C438 1.377 . S
C425 C424 1.524 . S
C425 C426 1.397 . S
C425 C430 1.363 . S
C426 H403 0.950 . S
C426 C425 1.397 . S
C426 C427 1.334 . S
C427 H404 0.950 . S
C427 C426 1.334 . S
C427 C428 1.287 . S
C428 C427 1.287 . S
C428 C429 1.524 . S
C428 H447 0.913 . S
C429 H405 0.950 . S
C429 C428 1.524 . S
C429 C430 1.415 . S
C430 H406 0.950 . S
C430 C425 1.363 . S
C430 C429 1.415 . S
C431 H407 0.951 1_455 S
C431 C432 1.366 . S
C431 C433 1.388 . S
C432 C431 1.366 . S
C432 C436 1.385 . S
C433 H408 0.951 1_455 S
C433 C431 1.388 . S
C433 C434 1.366 . S
C434 C433 1.366 . S
C434 C435 1.414 . S
C434 C437 1.499 . S
C435 H409 0.950 . S
C435 C434 1.414 . S
C435 C436 1.374 . S
C436 H410 0.950 . S
C436 C432 1.385 . S
C436 C435 1.374 . S
C437 C434 1.499 . S
C437 C438 1.373 . S
C437 C439 1.389 . S
C438 H411 0.950 . S
C438 C424 1.377 . S
C438 C437 1.373 . S
C439 C423 1.377 . S
C439 C437 1.389 . S
C439 C440 1.524 1_455 S
C440 C439 1.524 1_655 S
C440 C441 1.397 . S
C440 C445 1.363 . S
C441 H412 0.950 1_655 S
C441 C440 1.397 . S
C441 C442 1.334 . S
C442 H413 0.950 . S
C442 C441 1.334 . S
C442 C443 1.287 . S
C443 C442 1.287 . S
C443 C444 1.524 . S
C443 H446 0.999 . S
C444 H414 0.950 . S
C444 C443 1.524 . S
C444 C445 1.415 . S
C445 H415 0.950 . S
C445 C440 1.363 . S
C445 C444 1.415 . S
H446 C443 0.999 . S
H447 C428 0.913 . S
H448 C466 0.951 . S
H449 C468 0.951 . S
H450 C470 0.950 . S
H451 C471 0.950 . S
H452 C473 0.950 . S
H453 C476 0.950 . S
H454 C477 0.950 . S
H455 C479 0.950 . S
H456 C480 0.950 . S
H457 C481 0.951 . S
H458 C483 0.951 . S
H459 C485 0.950 1_554 S
H460 C486 0.950 . S
H461 C488 0.950 . S
H462 C491 0.950 . S
H463 C492 0.950 . S
H464 C494 0.950 . S
H465 C495 0.950 . S
C466 H448 0.951 . S
C466 C467 1.369 1_545 S
C466 C468 1.388 . S
C467 C466 1.369 1_565 S
C467 C471 1.382 . S
C468 H449 0.951 . S
C468 C466 1.388 . S
C468 C469 1.364 1_545 S
C469 C468 1.364 1_565 S
C469 C470 1.416 . S
C469 C472 1.503 . S
C470 H450 0.950 . S
C470 C469 1.416 . S
C470 C471 1.374 . S
C471 H451 0.950 . S
C471 C467 1.382 . S
C471 C470 1.374 . S
C472 C469 1.503 . S
C472 C473 1.412 . S
C472 C474 1.347 1_565 S
C473 H452 0.950 . S
C473 C472 1.412 . S
C473 C489 1.377 . S
C474 C472 1.347 1_545 S
C474 C475 1.524 . S
C474 C488 1.377 . S
C475 C474 1.524 . S
C475 C476 1.397 . S
C475 C480 1.363 . S
C476 H453 0.950 . S
C476 C475 1.397 . S
C476 C477 1.334 . S
C477 H454 0.950 . S
C477 C476 1.334 . S
C477 C478 1.287 . S
C478 C477 1.287 . S
C478 C479 1.524 . S
C478 H497 0.913 . S
C479 H455 0.950 . S
C479 C478 1.524 . S
C479 C480 1.415 . S
C480 H456 0.950 . S
C480 C475 1.363 . S
C480 C479 1.415 . S
C481 H457 0.951 . S
C481 C482 1.366 . S
C481 C483 1.388 . S
C482 C481 1.366 . S
C482 C486 1.385 1_565 S
C483 H458 0.951 . S
C483 C481 1.388 . S
C483 C484 1.366 . S
C484 C483 1.366 . S
C484 C485 1.414 1_565 S
C484 C487 1.497 1_556 S
C485 H459 0.950 1_556 S
C485 C484 1.414 1_545 S
C485 C486 1.374 . S
C486 H460 0.950 . S
C486 C482 1.385 1_545 S
C486 C485 1.374 . S
C487 C484 1.497 1_554 S
C487 C488 1.352 1_565 S
C487 C489 1.413 . S
C488 H461 0.950 . S
C488 C474 1.377 . S
C488 C487 1.352 1_545 S
C489 C473 1.377 . S
C489 C487 1.413 . S
C489 C490 1.524 . S
C490 C489 1.524 . S
C490 C491 1.397 . S
C490 C495 1.363 . S
C491 H462 0.950 . S
C491 C490 1.397 . S
C491 C492 1.334 . S
C492 H463 0.950 . S
C492 C491 1.334 . S
C492 C493 1.287 . S
C493 C492 1.287 . S
C493 C494 1.524 . S
C493 H496 0.999 . S
C494 H464 0.950 . S
C494 C493 1.524 . S
C494 C495 1.415 . S
C495 H465 0.950 . S
C495 C490 1.363 . S
C495 C494 1.415 . S
H496 C493 0.999 . S
H497 C478 0.913 . S
H498 C516 0.951 . S
H499 C518 0.951 . S
H500 C520 0.950 . S
H501 C521 0.950 . S
H502 C523 0.950 . S
H503 C526 0.950 . S
H504 C527 0.950 . S
H505 C529 0.950 . S
H506 C530 0.950 . S
H507 C531 0.951 . S
H508 C533 0.951 . S
H509 C535 0.950 . S
H510 C536 0.950 . S
H511 C538 0.950 . S
H512 C541 0.950 1_556 S
H513 C542 0.950 . S
H514 C544 0.950 . S
H515 C545 0.950 . S
C516 H498 0.951 . S
C516 C517 1.366 . S
C516 C518 1.388 . S
C517 C516 1.366 . S
C517 C521 1.385 . S
C518 H499 0.951 . S
C518 C516 1.388 . S
C518 C519 1.366 . S
C519 C518 1.366 . S
C519 C520 1.414 . S
C519 C522 1.499 . S
C520 H500 0.950 . S
C520 C519 1.414 . S
C520 C521 1.374 . S
C521 H501 0.950 . S
C521 C517 1.385 . S
C521 C520 1.374 . S
C522 C519 1.499 . S
C522 C523 1.373 . S
C522 C524 1.389 . S
C523 H502 0.950 . S
C523 C522 1.373 . S
C523 C539 1.377 . S
C524 C522 1.389 . S
C524 C525 1.524 . S
C524 C538 1.377 . S
C525 C524 1.524 . S
C525 C526 1.397 . S
C525 C530 1.363 . S
C526 H503 0.950 . S
C526 C525 1.397 . S
C526 C527 1.334 . S
C527 H504 0.950 . S
C527 C526 1.334 . S
C527 C528 1.287 . S
C528 C527 1.287 . S
C528 C529 1.524 . S
C528 H547 0.913 . S
C529 H505 0.950 . S
C529 C528 1.524 . S
C529 C530 1.415 . S
C530 H506 0.950 . S
C530 C525 1.363 . S
C530 C529 1.415 . S
C531 H507 0.951 . S
C531 C532 1.366 . S
C531 C533 1.388 . S
C532 C531 1.366 . S
C532 C536 1.385 . S
C533 H508 0.951 . S
C533 C531 1.388 . S
C533 C534 1.366 . S
C534 C533 1.366 . S
C534 C535 1.414 . S
C534 C537 1.499 . S
C535 H509 0.950 . S
C535 C534 1.414 . S
C535 C536 1.374 . S
C536 H510 0.950 . S
C536 C532 1.385 . S
C536 C535 1.374 . S
C537 C534 1.499 . S
C537 C538 1.373 . S
C537 C539 1.389 . S
C538 H511 0.950 . S
C538 C524 1.377 . S
C538 C537 1.373 . S
C539 C523 1.377 . S
C539 C537 1.389 . S
C539 C540 1.524 . S
C540 C539 1.524 . S
C540 C541 1.397 1_556 S
C540 C545 1.363 . S
C541 H512 0.950 1_554 S
C541 C540 1.397 1_554 S
C541 C542 1.334 . S
C542 H513 0.950 . S
C542 C541 1.334 . S
C542 C543 1.287 . S
C543 C542 1.287 . S
C543 C544 1.524 . S
C543 H546 0.999 . S
C544 H514 0.950 . S
C544 C543 1.524 . S
C544 C545 1.415 1_554 S
C545 H515 0.950 . S
C545 C540 1.363 . S
C545 C544 1.415 1_556 S
H546 C543 0.999 . S
H547 C528 0.913 . S
H548 C566 0.951 . S
H549 C568 0.951 . S
H550 C570 0.950 . S
H551 C571 0.950 . S
H552 C573 0.950 . S
H553 C576 0.950 . S
H554 C577 0.950 . S
H555 C579 0.950 . S
H556 C580 0.950 . S
H557 C581 0.951 . S
H558 C583 0.951 . S
H559 C585 0.950 . S
H560 C586 0.950 . S
H561 C588 0.950 . S
H562 C591 0.950 1_554 S
H563 C592 0.950 . S
H564 C594 0.950 . S
H565 C595 0.950 . S
C566 H548 0.951 . S
C566 C567 1.366 . S
C566 C568 1.388 . S
C567 C566 1.366 . S
C567 C571 1.385 . S
C568 H549 0.951 . S
C568 C566 1.388 . S
C568 C569 1.366 . S
C569 C568 1.366 . S
C569 C570 1.414 . S
C569 C572 1.499 . S
C570 H550 0.950 . S
C570 C569 1.414 . S
C570 C571 1.374 . S
C571 H551 0.950 . S
C571 C567 1.385 . S
C571 C570 1.374 . S
C572 C569 1.499 . S
C572 C573 1.373 . S
C572 C574 1.389 . S
C573 H552 0.950 . S
C573 C572 1.373 . S
C573 C589 1.377 . S
C574 C572 1.389 . S
C574 C575 1.524 . S
C574 C588 1.377 . S
C575 C574 1.524 . S
C575 C576 1.397 . S
C575 C580 1.363 . S
C576 H553 0.950 . S
C576 C575 1.397 . S
C576 C577 1.334 . S
C577 H554 0.950 . S
C577 C576 1.334 . S
C577 C578 1.287 . S
C578 C577 1.287 . S
C578 C579 1.524 . S
C578 H597 0.913 . S
C579 H555 0.950 . S
C579 C578 1.524 . S
C579 C580 1.415 . S
C580 H556 0.950 . S
C580 C575 1.363 . S
C580 C579 1.415 . S
C581 H557 0.951 . S
C581 C582 1.366 . S
C581 C583 1.388 . S
C582 C581 1.366 . S
C582 C586 1.385 . S
C583 H558 0.951 . S
C583 C581 1.388 . S
C583 C584 1.366 . S
C584 C583 1.366 . S
C584 C585 1.414 1_556 S
C584 C587 1.499 1_556 S
C585 H559 0.950 . S
C585 C584 1.414 1_554 S
C585 C586 1.374 1_554 S
C586 H560 0.950 . S
C586 C582 1.385 . S
C586 C585 1.374 1_556 S
C587 C584 1.499 1_554 S
C587 C588 1.373 . S
C587 C589 1.389 . S
C588 H561 0.950 . S
C588 C574 1.377 . S
C588 C587 1.373 . S
C589 C573 1.377 . S
C589 C587 1.389 . S
C589 C590 1.524 1_554 S
C590 C589 1.524 1_556 S
C590 C591 1.397 . S
C590 C595 1.363 . S
C591 H562 0.950 1_556 S
C591 C590 1.397 . S
C591 C592 1.334 . S
C592 H563 0.950 . S
C592 C591 1.334 . S
C592 C593 1.287 . S
C593 C592 1.287 . S
C593 C594 1.524 . S
C593 H596 0.999 . S
C594 H564 0.950 . S
C594 C593 1.524 . S
C594 C595 1.415 . S
C595 H565 0.950 . S
C595 C590 1.363 . S
C595 C594 1.415 . S
H596 C593 0.999 . S
H597 C578 0.913 . S
H598 C616 0.943 1_455 S
H599 C618 0.951 . S
H600 C620 0.950 . S
H601 C621 0.950 . S
H602 C623 0.950 . S
H603 C626 0.950 . S
H604 C627 0.950 . S
H605 C629 0.950 . S
H606 C630 0.950 . S
H607 C631 0.951 1_655 S
H608 C633 0.952 1_654 S
H609 C635 0.950 . S
H610 C636 0.950 . S
H611 C638 0.950 1_556 S
H612 C641 0.950 . S
H613 C642 0.950 . S
H614 C644 0.950 . S
H615 C645 0.950 . S
C616 H598 0.943 1_655 S
C616 C617 1.377 . S
C616 C618 1.385 1_655 S
C617 C616 1.377 . S
C617 C621 1.385 . S
C618 H599 0.951 . S
C618 C616 1.385 1_455 S
C618 C619 1.366 1_455 S
C619 C618 1.366 1_655 S
C619 C620 1.414 . S
C619 C622 1.499 . S
C620 H600 0.950 . S
C620 C619 1.414 . S
C620 C621 1.374 . S
C621 H601 0.950 . S
C621 C617 1.385 . S
C621 C620 1.374 . S
C622 C619 1.499 . S
C622 C623 1.373 1_655 S
C622 C624 1.389 . S
C623 H602 0.950 . S
C623 C622 1.373 1_455 S
C623 C639 1.377 . S
C624 C622 1.389 . S
C624 C625 1.524 . S
C624 C638 1.377 . S
C625 C624 1.524 . S
C625 C626 1.397 . S
C625 C630 1.363 1_554 S
C626 H603 0.950 . S
C626 C625 1.397 . S
C626 C627 1.334 . S
C627 H604 0.950 . S
C627 C626 1.334 . S
C627 C628 1.287 1_554 S
C628 C627 1.287 1_556 S
C628 C629 1.524 . S
C628 H647 0.913 . S
C629 H605 0.950 . S
C629 C628 1.524 . S
C629 C630 1.415 . S
C630 H606 0.950 . S
C630 C625 1.363 1_556 S
C630 C629 1.415 . S
C631 H607 0.951 1_455 S
C631 C632 1.366 . S
C631 C633 1.387 . S
C632 C631 1.366 . S
C632 C636 1.385 . S
C633 H608 0.952 1_456 S
C633 C631 1.387 . S
C633 C634 1.365 . S
C634 C633 1.365 . S
C634 C635 1.414 . S
C634 C637 1.499 1_556 S
C635 H609 0.950 . S
C635 C634 1.414 . S
C635 C636 1.374 . S
C636 H610 0.950 . S
C636 C632 1.385 . S
C636 C635 1.374 . S
C637 C634 1.499 1_554 S
C637 C638 1.373 1_455 S
C637 C639 1.389 . S
C638 H611 0.950 1_554 S
C638 C624 1.377 . S
C638 C637 1.373 1_655 S
C639 C623 1.377 . S
C639 C637 1.389 . S
C639 C640 1.524 . S
C640 C639 1.524 . S
C640 C641 1.397 . S
C640 C645 1.363 . S
C641 H612 0.950 . S
C641 C640 1.397 . S
C641 C642 1.334 . S
C642 H613 0.950 . S
C642 C641 1.334 . S
C642 C643 1.287 . S
C643 C642 1.287 . S
C643 C644 1.524 . S
C643 H646 0.999 . S
C644 H614 0.950 . S
C644 C643 1.524 . S
C644 C645 1.415 . S
C645 H615 0.950 . S
C645 C640 1.363 . S
C645 C644 1.415 . S
H646 C643 0.999 . S
H647 C628 0.913 . S
H648 C666 0.951 . S
H649 C668 0.951 . S
H650 C670 0.950 . S
H651 C671 0.950 . S
H652 C673 0.950 . S
H653 C676 0.950 . S
H654 C677 0.950 . S
H655 C679 0.950 . S
H656 C680 0.950 . S
H657 C681 0.951 . S
H658 C683 0.951 . S
H659 C685 0.950 . S
H660 C686 0.950 . S
H661 C688 0.950 . S
H662 C691 0.950 . S
H663 C692 0.950 . S
H664 C694 0.950 . S
H665 C695 0.950 . S
C666 H648 0.951 . S
C666 C667 1.366 . S
C666 C668 1.388 . S
C667 C666 1.366 . S
C667 C671 1.385 . S
C668 H649 0.951 . S
C668 C666 1.388 . S
C668 C669 1.366 . S
C669 C668 1.366 . S
C669 C670 1.414 . S
C669 C672 1.499 . S
C670 H650 0.950 . S
C670 C669 1.414 . S
C670 C671 1.374 . S
C671 H651 0.950 . S
C671 C667 1.385 . S
C671 C670 1.374 . S
C672 C669 1.499 . S
C672 C673 1.373 . S
C672 C674 1.389 . S
C673 H652 0.950 . S
C673 C672 1.373 . S
C673 C689 1.377 . S
C674 C672 1.389 . S
C674 C675 1.524 1_455 S
C674 C688 1.377 1_455 S
C675 C674 1.524 1_655 S
C675 C676 1.397 . S
C675 C680 1.363 . S
C676 H653 0.950 . S
C676 C675 1.397 . S
C676 C677 1.334 . S
C677 H654 0.950 . S
C677 C676 1.334 . S
C677 C678 1.287 . S
C678 C677 1.287 . S
C678 C679 1.524 . S
C678 H697 0.913 . S
C679 H655 0.950 . S
C679 C678 1.524 . S
C679 C680 1.415 . S
C680 H656 0.950 . S
C680 C675 1.363 . S
C680 C679 1.415 . S
C681 H657 0.951 . S
C681 C682 1.366 1_455 S
C681 C683 1.388 . S
C682 C681 1.366 1_655 S
C682 C686 1.385 . S
C683 H658 0.951 . S
C683 C681 1.388 . S
C683 C684 1.366 . S
C684 C683 1.366 . S
C684 C685 1.414 1_455 S
C684 C687 1.499 . S
C685 H659 0.950 . S
C685 C684 1.414 1_655 S
C685 C686 1.374 . S
C686 H660 0.950 . S
C686 C682 1.385 . S
C686 C685 1.374 . S
C687 C684 1.499 . S
C687 C688 1.373 1_455 S
C687 C689 1.389 . S
C688 H661 0.950 . S
C688 C674 1.377 1_655 S
C688 C687 1.373 1_655 S
C689 C673 1.377 . S
C689 C687 1.389 . S
C689 C690 1.524 . S
C690 C689 1.524 . S
C690 C691 1.397 . S
C690 C695 1.363 . S
C691 H662 0.950 . S
C691 C690 1.397 . S
C691 C692 1.334 . S
C692 H663 0.950 . S
C692 C691 1.334 . S
C692 C693 1.287 . S
C693 C692 1.287 . S
C693 C694 1.524 . S
C693 H696 0.999 . S
C694 H664 0.950 . S
C694 C693 1.524 . S
C694 C695 1.415 . S
C695 H665 0.950 . S
C695 C690 1.363 . S
C695 C694 1.415 . S
H696 C693 0.999 . S
H697 C678 0.913 . S
H698 C716 0.951 . S
H699 C718 0.951 . S
H700 C720 0.950 . S
H701 C721 0.950 . S
H702 C723 0.950 . S
H703 C726 0.950 . S
H704 C727 0.950 . S
H705 C729 0.950 . S
H706 C730 0.950 . S
H707 C731 0.951 . S
H708 C733 0.951 . S
H709 C735 0.950 . S
H710 C736 0.923 1_545 S
H711 C738 0.950 . S
H712 C741 0.950 . S
H713 C742 0.950 . S
H714 C744 0.950 . S
H715 C745 0.950 . S
C716 H698 0.951 . S
C716 C717 1.366 . S
C716 C718 1.388 . S
C717 C716 1.366 . S
C717 C721 1.385 1_545 S
C718 H699 0.951 . S
C718 C716 1.388 . S
C718 C719 1.366 1_545 S
C719 C718 1.366 1_565 S
C719 C720 1.414 . S
C719 C722 1.499 . S
C720 H700 0.950 . S
C720 C719 1.414 . S
C720 C721 1.374 . S
C721 H701 0.950 . S
C721 C717 1.385 1_565 S
C721 C720 1.374 . S
C722 C719 1.499 . S
C722 C723 1.373 . S
C722 C724 1.389 1_565 S
C723 H702 0.950 . S
C723 C722 1.373 . S
C723 C739 1.377 . S
C724 C722 1.389 1_545 S
C724 C725 1.524 . S
C724 C738 1.377 . S
C725 C724 1.524 . S
C725 C726 1.397 . S
C725 C730 1.363 . S
C726 H703 0.950 . S
C726 C725 1.397 . S
C726 C727 1.334 . S
C727 H704 0.950 . S
C727 C726 1.334 . S
C727 C728 1.287 . S
C728 C727 1.287 . S
C728 C729 1.524 . S
C728 H747 0.913 . S
C729 H705 0.950 . S
C729 C728 1.524 . S
C729 C730 1.415 . S
C730 H706 0.950 . S
C730 C725 1.363 . S
C730 C729 1.415 . S
C731 H707 0.951 . S
C731 C732 1.366 . S
C731 C733 1.388 . S
C732 C731 1.366 . S
C732 C736 1.424 . S
C733 H708 0.951 . S
C733 C731 1.388 . S
C733 C734 1.366 . S
C734 C733 1.366 . S
C734 C735 1.414 1_565 S
C734 C737 1.499 . S
C735 H709 0.950 . S
C735 C734 1.414 1_545 S
C735 C736 1.364 1_545 S
C736 H710 0.923 1_565 S
C736 C732 1.424 . S
C736 C735 1.364 1_565 S
C737 C734 1.499 . S
C737 C738 1.373 1_565 S
C737 C739 1.389 . S
C738 H711 0.950 . S
C738 C724 1.377 . S
C738 C737 1.373 1_545 S
C739 C723 1.377 . S
C739 C737 1.389 . S
C739 C740 1.524 . S
C740 C739 1.524 . S
C740 C741 1.397 . S
C740 C745 1.363 . S
C741 H712 0.950 . S
C741 C740 1.397 . S
C741 C742 1.334 . S
C742 H713 0.950 . S
C742 C741 1.334 . S
C742 C743 1.287 . S
C743 C742 1.287 . S
C743 C744 1.524 . S
C743 H746 0.999 . S
C744 H714 0.950 . S
C744 C743 1.524 . S
C744 C745 1.415 . S
C745 H715 0.950 . S
C745 C740 1.363 . S
C745 C744 1.415 . S
H746 C743 0.999 . S
H747 C728 0.913 . S
H748 C766 0.951 . S
H749 C768 0.951 . S
H750 C770 0.950 . S
H751 C771 0.950 . S
H752 C773 0.950 . S
H753 C776 0.950 . S
H754 C777 0.950 . S
H755 C779 0.950 . S
H756 C780 0.950 . S
H757 C781 0.951 . S
H758 C783 0.951 . S
H759 C785 0.950 . S
H760 C786 0.950 . S
H761 C788 0.950 . S
H762 C791 0.950 . S
H763 C792 0.950 . S
H764 C794 0.950 . S
H765 C795 0.950 . S
C766 H748 0.951 . S
C766 C767 1.366 . S
C766 C768 1.388 . S
C767 C766 1.366 . S
C767 C771 1.385 . S
C768 H749 0.951 . S
C768 C766 1.388 . S
C768 C769 1.366 . S
C769 C768 1.366 . S
C769 C770 1.414 . S
C769 C772 1.499 . S
C770 H750 0.950 . S
C770 C769 1.414 . S
C770 C771 1.374 . S
C771 H751 0.950 . S
C771 C767 1.385 . S
C771 C770 1.374 . S
C772 C769 1.499 . S
C772 C773 1.373 . S
C772 C774 1.389 . S
C773 H752 0.950 . S
C773 C772 1.373 . S
C773 C789 1.377 . S
C774 C772 1.389 . S
C774 C775 1.524 . S
C774 C788 1.377 . S
C775 C774 1.524 . S
C775 C776 1.397 . S
C775 C780 1.363 . S
C776 H753 0.950 . S
C776 C775 1.397 . S
C776 C777 1.334 . S
C777 H754 0.950 . S
C777 C776 1.334 . S
C777 C778 1.287 . S
C778 C777 1.287 . S
C778 C779 1.524 . S
C778 H797 0.913 . S
C779 H755 0.950 . S
C779 C778 1.524 . S
C779 C780 1.415 . S
C780 H756 0.950 . S
C780 C775 1.363 . S
C780 C779 1.415 . S
C781 H757 0.951 . S
C781 C782 1.366 . S
C781 C783 1.388 . S
C782 C781 1.366 . S
C782 C786 1.385 . S
C783 H758 0.951 . S
C783 C781 1.388 . S
C783 C784 1.366 . S
C784 C783 1.366 . S
C784 C785 1.414 . S
C784 C787 1.499 . S
C785 H759 0.950 . S
C785 C784 1.414 . S
C785 C786 1.374 . S
C786 H760 0.950 . S
C786 C782 1.385 . S
C786 C785 1.374 . S
C787 C784 1.499 . S
C787 C788 1.373 . S
C787 C789 1.389 . S
C788 H761 0.950 . S
C788 C774 1.377 . S
C788 C787 1.373 . S
C789 C773 1.377 . S
C789 C787 1.389 . S
C789 C790 1.524 . S
C790 C789 1.524 . S
C790 C791 1.397 . S
C790 C795 1.363 . S
C791 H762 0.950 . S
C791 C790 1.397 . S
C791 C792 1.334 . S
C792 H763 0.950 . S
C792 C791 1.334 . S
C792 C793 1.287 . S
C793 C792 1.287 . S
C793 C794 1.524 . S
C793 H796 0.999 . S
C794 H764 0.950 . S
C794 C793 1.524 . S
C794 C795 1.415 . S
C795 H765 0.950 . S
C795 C790 1.363 . S
C795 C794 1.415 . S
H796 C793 0.999 . S
H797 C778 0.913 . S
H798 C816 0.951 . S
H799 C818 0.951 . S
H800 C820 0.950 . S
H801 C821 0.950 . S
H802 C823 0.950 . S
H803 C826 0.950 . S
H804 C827 0.950 . S
H805 C829 0.950 . S
H806 C830 0.950 . S
H807 C831 0.951 . S
H808 C833 0.951 . S
H809 C835 0.950 . S
H810 C836 0.950 . S
H811 C838 0.950 . S
H812 C841 0.950 . S
H813 C842 0.950 . S
H814 C844 0.950 . S
H815 C845 0.950 . S
C816 H798 0.951 . S
C816 C817 1.366 . S
C816 C818 1.388 . S
C817 C816 1.366 . S
C817 C821 1.385 . S
C818 H799 0.951 . S
C818 C816 1.388 . S
C818 C819 1.366 . S
C819 C818 1.366 . S
C819 C820 1.414 . S
C819 C822 1.499 . S
C820 H800 0.950 . S
C820 C819 1.414 . S
C820 C821 1.374 . S
C821 H801 0.950 . S
C821 C817 1.385 . S
C821 C820 1.374 . S
C822 C819 1.499 . S
C822 C823 1.373 . S
C822 C824 1.389 . S
C823 H802 0.950 . S
C823 C822 1.373 . S
C823 C839 1.377 . S
C824 C822 1.389 . S
C824 C825 1.524 . S
C824 C838 1.377 . S
C825 C824 1.524 . S
C825 C826 1.397 . S
C825 C830 1.363 . S
C826 H803 0.950 . S
C826 C825 1.397 . S
C826 C827 1.334 . S
C827 H804 0.950 . S
C827 C826 1.334 . S
C827 C828 1.287 . S
C828 C827 1.287 . S
C828 C829 1.524 . S
C828 H847 0.913 . S
C829 H805 0.950 . S
C829 C828 1.524 . S
C829 C830 1.415 . S
C830 H806 0.950 . S
C830 C825 1.363 . S
C830 C829 1.415 . S
C831 H807 0.951 . S
C831 C832 1.366 . S
C831 C833 1.388 . S
C832 C831 1.366 . S
C832 C836 1.385 . S
C833 H808 0.951 . S
C833 C831 1.388 . S
C833 C834 1.366 . S
C834 C833 1.366 . S
C834 C835 1.414 . S
C834 C837 1.499 . S
C835 H809 0.950 . S
C835 C834 1.414 . S
C835 C836 1.374 . S
C836 H810 0.950 . S
C836 C832 1.385 . S
C836 C835 1.374 . S
C837 C834 1.499 . S
C837 C838 1.373 . S
C837 C839 1.389 . S
C838 H811 0.950 . S
C838 C824 1.377 . S
C838 C837 1.373 . S
C839 C823 1.377 . S
C839 C837 1.389 . S
C839 C840 1.524 . S
C840 C839 1.524 . S
C840 C841 1.397 . S
C840 C845 1.363 . S
C841 H812 0.950 . S
C841 C840 1.397 . S
C841 C842 1.334 . S
C842 H813 0.950 . S
C842 C841 1.334 . S
C842 C843 1.287 . S
C843 C842 1.287 . S
C843 C844 1.524 . S
C843 H846 0.999 . S
C844 H814 0.950 . S
C844 C843 1.524 . S
C844 C845 1.415 . S
C845 H815 0.950 . S
C845 C840 1.363 . S
C845 C844 1.415 . S
H846 C843 0.999 . S
H847 C828 0.913 . S
H848 C866 0.951 . S
H849 C868 0.951 . S
H850 C870 0.950 . S
H851 C871 0.960 . S
H852 C873 0.950 1_655 S
H853 C876 0.950 . S
H854 C877 0.950 . S
H855 C879 0.950 . S
H856 C880 0.950 1_556 S
H857 C881 0.951 . S
H858 C883 0.951 . S
H859 C885 0.950 1_556 S
H860 C886 0.950 . S
H861 C888 0.950 . S
H862 C891 0.950 . S
H863 C892 0.950 . S
H864 C894 0.950 . S
H865 C895 0.950 . S
C866 H848 0.951 . S
C866 C867 1.366 . S
C866 C868 1.388 . S
C867 C866 1.366 . S
C867 C871 1.366 1_655 S
C868 H849 0.951 . S
C868 C866 1.388 . S
C868 C869 1.366 1_655 S
C869 C868 1.366 1_455 S
C869 C870 1.414 . S
C869 C872 1.499 . S
C870 H850 0.950 . S
C870 C869 1.414 . S
C870 C871 1.384 . S
C871 H851 0.960 . S
C871 C867 1.366 1_455 S
C871 C870 1.384 . S
C872 C869 1.499 . S
C872 C873 1.373 . S
C872 C874 1.389 . S
C873 H852 0.950 1_455 S
C873 C872 1.373 . S
C873 C889 1.377 . S
C874 C872 1.389 . S
C874 C875 1.524 . S
C874 C888 1.377 . S
C875 C874 1.524 . S
C875 C876 1.397 . S
C875 C880 1.363 . S
C876 H853 0.950 . S
C876 C875 1.397 . S
C876 C877 1.334 . S
C877 H854 0.950 . S
C877 C876 1.334 . S
C877 C878 1.287 . S
C878 C877 1.287 . S
C878 C879 1.524 1_554 S
C878 H897 0.913 . S
C879 H855 0.950 . S
C879 C878 1.524 1_556 S
C879 C880 1.415 1_556 S
C880 H856 0.950 1_554 S
C880 C875 1.363 . S
C880 C879 1.415 1_554 S
C881 H857 0.951 . S
C881 C882 1.366 . S
C881 C883 1.388 . S
C882 C881 1.366 . S
C882 C886 1.385 1_554 S
C883 H858 0.951 . S
C883 C881 1.388 . S
C883 C884 1.366 . S
C884 C883 1.366 . S
C884 C885 1.414 . S
C884 C887 1.499 . S
C885 H859 0.950 1_554 S
C885 C884 1.414 . S
C885 C886 1.374 1_554 S
C886 H860 0.950 . S
C886 C882 1.385 1_556 S
C886 C885 1.374 1_556 S
C887 C884 1.499 . S
C887 C888 1.373 . S
C887 C889 1.389 . S
C888 H861 0.950 . S
C888 C874 1.377 . S
C888 C887 1.373 . S
C889 C873 1.377 . S
C889 C887 1.389 . S
C889 C890 1.507 1_455 S
C890 C889 1.507 1_655 S
C890 C891 1.429 . S
C890 C895 1.354 1_655 S
C891 H862 0.950 . S
C891 C890 1.429 . S
C891 C892 1.334 . S
C892 H863 0.950 . S
C892 C891 1.334 . S
C892 C893 1.287 . S
C893 C892 1.287 . S
C893 C894 1.524 . S
C893 H896 0.999 . S
C894 H864 0.950 . S
C894 C893 1.524 . S
C894 C895 1.415 1_655 S
C895 H865 0.950 . S
C895 C890 1.354 1_455 S
C895 C894 1.415 1_455 S
H896 C893 0.999 . S
H897 C878 0.913 . S
H898 C916 0.951 . S
H899 C918 0.951 . S
H900 C920 0.950 . S
H901 C921 0.950 . S
H902 C923 0.950 . S
H903 C926 0.950 . S
H904 C927 0.950 . S
H905 C929 0.950 . S
H906 C930 0.950 . S
H907 C931 0.951 1_566 S
H908 C933 0.951 1_565 S
H909 C935 0.950 . S
H910 C936 0.950 . S
H911 C938 0.950 . S
H912 C941 0.950 . S
H913 C942 0.950 . S
H914 C944 0.950 1_565 S
H915 C945 0.950 1_565 S
C916 H898 0.951 . S
C916 C917 1.331 1_545 S
C916 C918 1.388 . S
C917 C916 1.331 1_565 S
C917 C921 1.410 . S
C918 H899 0.951 . S
C918 C916 1.388 . S
C918 C919 1.366 . S
C919 C918 1.366 . S
C919 C920 1.414 1_545 S
C919 C922 1.499 . S
C920 H900 0.950 . S
C920 C919 1.414 1_565 S
C920 C921 1.374 . S
C921 H901 0.950 . S
C921 C917 1.410 . S
C921 C920 1.374 . S
C922 C919 1.499 . S
C922 C923 1.373 . S
C922 C924 1.389 . S
C923 H902 0.950 . S
C923 C922 1.373 . S
C923 C939 1.377 . S
C924 C922 1.389 . S
C924 C925 1.524 . S
C924 C938 1.377 . S
C925 C924 1.524 . S
C925 C926 1.397 1_545 S
C925 C930 1.363 . S
C926 H903 0.950 . S
C926 C925 1.397 1_565 S
C926 C927 1.334 . S
C927 H904 0.950 . S
C927 C926 1.334 . S
C927 C928 1.287 . S
C928 C927 1.287 . S
C928 C929 1.524 1_565 S
C928 H947 0.913 . S
C929 H905 0.950 . S
C929 C928 1.524 1_545 S
C929 C930 1.415 . S
C930 H906 0.950 . S
C930 C925 1.363 . S
C930 C929 1.415 . S
C931 H907 0.951 1_544 S
C931 C932 1.366 . S
C931 C933 1.388 . S
C932 C931 1.366 . S
C932 C936 1.385 . S
C933 H908 0.951 1_545 S
C933 C931 1.388 . S
C933 C934 1.366 . S
C934 C933 1.366 . S
C934 C935 1.414 . S
C934 C937 1.499 . S
C935 H909 0.950 . S
C935 C934 1.414 . S
C935 C936 1.374 . S
C936 H910 0.950 . S
C936 C932 1.385 . S
C936 C935 1.374 . S
C937 C934 1.499 . S
C937 C938 1.373 . S
C937 C939 1.389 . S
C938 H911 0.950 . S
C938 C924 1.377 . S
C938 C937 1.373 . S
C939 C923 1.377 . S
C939 C937 1.389 . S
C939 C940 1.524 . S
C940 C939 1.524 . S
C940 C941 1.397 . S
C940 C945 1.363 . S
C941 H912 0.950 . S
C941 C940 1.397 . S
C941 C942 1.334 1_554 S
C942 H913 0.950 . S
C942 C941 1.334 1_556 S
C942 C943 1.287 . S
C943 C942 1.287 . S
C943 C944 1.524 . S
C943 H946 0.999 . S
C944 H914 0.950 1_545 S
C944 C943 1.524 . S
C944 C945 1.415 1_556 S
C945 H915 0.950 1_545 S
C945 C940 1.363 . S
C945 C944 1.415 1_554 S
H946 C943 0.999 . S
H947 C928 0.913 . S
H948 C966 0.951 . S
H949 C968 0.951 . S
H950 C970 0.950 . S
H951 C971 0.950 . S
H952 C973 0.950 . S
H953 C976 0.950 . S
H954 C977 0.950 . S
H955 C979 0.950 . S
H956 C980 0.950 . S
H957 C981 0.951 . S
H958 C983 0.951 . S
H959 C985 0.950 . S
H960 C986 0.950 . S
H961 C988 0.950 . S
H962 C991 0.950 . S
H963 C992 0.950 . S
H964 C994 0.950 . S
H965 C995 0.950 . S
C966 H948 0.951 . S
C966 C967 1.366 . S
C966 C968 1.388 . S
C967 C966 1.366 . S
C967 C971 1.385 . S
C968 H949 0.951 . S
C968 C966 1.388 . S
C968 C969 1.366 . S
C969 C968 1.366 . S
C969 C970 1.414 . S
C969 C972 1.499 . S
C970 H950 0.950 . S
C970 C969 1.414 . S
C970 C971 1.374 . S
C971 H951 0.950 . S
C971 C967 1.385 . S
C971 C970 1.374 . S
C972 C969 1.499 . S
C972 C973 1.373 . S
C972 C974 1.389 . S
C973 H952 0.950 . S
C973 C972 1.373 . S
C973 C989 1.377 . S
C974 C972 1.389 . S
C974 C975 1.524 1_556 S
C974 C988 1.377 . S
C975 C974 1.524 1_554 S
C975 C976 1.397 . S
C975 C980 1.363 . S
C976 H953 0.950 . S
C976 C975 1.397 . S
C976 C977 1.334 . S
C977 H954 0.950 . S
C977 C976 1.334 . S
C977 C978 1.287 . S
C978 C977 1.287 . S
C978 C979 1.524 . S
C978 H997 0.913 . S
C979 H955 0.950 . S
C979 C978 1.524 . S
C979 C980 1.415 . S
C980 H956 0.950 . S
C980 C975 1.363 . S
C980 C979 1.415 . S
C981 H957 0.951 . S
C981 C982 1.366 . S
C981 C983 1.388 . S
C982 C981 1.366 . S
C982 C986 1.385 . S
C983 H958 0.951 . S
C983 C981 1.388 . S
C983 C984 1.366 . S
C984 C983 1.366 . S
C984 C985 1.414 . S
C984 C987 1.499 . S
C985 H959 0.950 . S
C985 C984 1.414 . S
C985 C986 1.374 . S
C986 H960 0.950 . S
C986 C982 1.385 . S
C986 C985 1.374 . S
C987 C984 1.499 . S
C987 C988 1.373 . S
C987 C989 1.389 . S
C988 H961 0.950 . S
C988 C974 1.377 . S
C988 C987 1.373 . S
C989 C973 1.377 . S
C989 C987 1.389 . S
C989 C990 1.524 . S
C990 C989 1.524 . S
C990 C991 1.397 . S
C990 C995 1.363 . S
C991 H962 0.950 . S
C991 C990 1.397 . S
C991 C992 1.334 . S
C992 H963 0.950 . S
C992 C991 1.334 . S
C992 C993 1.287 . S
C993 C992 1.287 . S
C993 C994 1.524 . S
C993 H996 0.999 . S
C994 H964 0.950 . S
C994 C993 1.524 . S
C994 C995 1.415 . S
C995 H965 0.950 . S
C995 C990 1.363 . S
C995 C994 1.415 . S
H996 C993 0.999 . S
H997 C978 0.913 . S
H998 C1016 0.951 . S
H999 C1018 0.951 . S
H1000 C1020 0.950 . S
H1001 C1021 0.950 . S
H1002 C1023 0.950 . S
H1003 C1026 0.950 . S
H1004 C1027 0.950 . S
H1005 C1029 0.950 . S
H1006 C1030 0.950 . S
H1007 C1031 0.951 . S
H1008 C1033 0.951 . S
H1009 C1035 0.950 . S
H1010 C1036 0.950 1_556 S
H1011 C1038 0.950 . S
H1012 C1041 0.950 . S
H1013 C1042 0.950 . S
H1014 C1044 0.950 . S
H1015 C1045 0.950 . S
C1016 H998 0.951 . S
C1016 C1017 1.366 . S
C1016 C1018 1.388 . S
C1017 C1016 1.366 . S
C1017 C1021 1.385 . S
C1018 H999 0.951 . S
C1018 C1016 1.388 . S
C1018 C1019 1.366 . S
C1019 C1018 1.366 . S
C1019 C1020 1.414 . S
C1019 C1022 1.499 . S
C1020 H1000 0.950 . S
C1020 C1019 1.414 . S
C1020 C1021 1.374 . S
C1021 H1001 0.950 . S
C1021 C1017 1.385 . S
C1021 C1020 1.374 . S
C1022 C1019 1.499 . S
C1022 C1023 1.373 . S
C1022 C1024 1.389 . S
C1023 H1002 0.950 . S
C1023 C1022 1.373 . S
C1023 C1039 1.377 . S
C1024 C1022 1.389 . S
C1024 C1025 1.524 . S
C1024 C1038 1.377 . S
C1025 C1024 1.524 . S
C1025 C1026 1.397 . S
C1025 C1030 1.363 . S
C1026 H1003 0.950 . S
C1026 C1025 1.397 . S
C1026 C1027 1.334 . S
C1027 H1004 0.950 . S
C1027 C1026 1.334 . S
C1027 C1028 1.287 . S
C1028 C1027 1.287 . S
C1028 C1029 1.524 . S
C1028 H1047 0.913 . S
C1029 H1005 0.950 . S
C1029 C1028 1.524 . S
C1029 C1030 1.415 . S
C1030 H1006 0.950 . S
C1030 C1025 1.363 . S
C1030 C1029 1.415 . S
C1031 H1007 0.951 . S
C1031 C1032 1.366 . S
C1031 C1033 1.388 . S
C1032 C1031 1.366 . S
C1032 C1036 1.384 . S
C1033 H1008 0.951 . S
C1033 C1031 1.388 . S
C1033 C1034 1.366 . S
C1034 C1033 1.366 . S
C1034 C1035 1.414 . S
C1034 C1037 1.499 . S
C1035 H1009 0.950 . S
C1035 C1034 1.414 . S
C1035 C1036 1.373 . S
C1036 H1010 0.950 1_554 S
C1036 C1032 1.384 . S
C1036 C1035 1.373 . S
C1037 C1034 1.499 . S
C1037 C1038 1.373 . S
C1037 C1039 1.389 . S
C1038 H1011 0.950 . S
C1038 C1024 1.377 . S
C1038 C1037 1.373 . S
C1039 C1023 1.377 . S
C1039 C1037 1.389 . S
C1039 C1040 1.524 . S
C1040 C1039 1.524 . S
C1040 C1041 1.397 . S
C1040 C1045 1.363 . S
C1041 H1012 0.950 . S
C1041 C1040 1.397 . S
C1041 C1042 1.334 . S
C1042 H1013 0.950 . S
C1042 C1041 1.334 . S
C1042 C1043 1.287 . S
C1043 C1042 1.287 . S
C1043 C1044 1.524 . S
C1043 H1046 0.999 . S
C1044 H1014 0.950 . S
C1044 C1043 1.524 . S
C1044 C1045 1.415 . S
C1045 H1015 0.950 . S
C1045 C1040 1.363 . S
C1045 C1044 1.415 . S
H1046 C1043 0.999 . S
H1047 C1028 0.913 . S
H1048 C1066 0.951 . S
H1049 C1068 0.951 . S
H1050 C1070 0.950 . S
H1051 C1071 0.950 . S
H1052 C1073 0.950 . S
H1053 C1076 0.950 . S
H1054 C1077 0.950 . S
H1055 C1079 0.950 . S
H1056 C1080 0.950 . S
H1057 C1081 0.963 . S
H1058 C1083 0.951 . S
H1059 C1085 0.950 . S
H1060 C1086 0.950 . S
H1061 C1088 0.950 . S
H1062 C1091 0.950 . S
H1063 C1092 0.950 1_455 S
H1064 C1094 0.950 . S
H1065 C1095 0.950 . S
C1066 H1048 0.951 . S
C1066 C1067 1.366 . S
C1066 C1068 1.388 . S
C1067 C1066 1.366 . S
C1067 C1071 1.385 . S
C1068 H1049 0.951 . S
C1068 C1066 1.388 . S
C1068 C1069 1.366 . S
C1069 C1068 1.366 . S
C1069 C1070 1.414 . S
C1069 C1072 1.499 . S
C1070 H1050 0.950 . S
C1070 C1069 1.414 . S
C1070 C1071 1.374 . S
C1071 H1051 0.950 . S
C1071 C1067 1.385 . S
C1071 C1070 1.374 . S
C1072 C1069 1.499 . S
C1072 C1073 1.373 . S
C1072 C1074 1.389 1_554 S
C1073 H1052 0.950 . S
C1073 C1072 1.373 . S
C1073 C1089 1.377 . S
C1074 C1072 1.389 1_556 S
C1074 C1075 1.524 . S
C1074 C1088 1.377 . S
C1075 C1074 1.524 . S
C1075 C1076 1.397 . S
C1075 C1080 1.363 . S
C1076 H1053 0.950 . S
C1076 C1075 1.397 . S
C1076 C1077 1.334 . S
C1077 H1054 0.950 . S
C1077 C1076 1.334 . S
C1077 C1078 1.287 . S
C1078 C1077 1.287 . S
C1078 C1079 1.524 . S
C1078 H1097 0.913 . S
C1079 H1055 0.950 . S
C1079 C1078 1.524 . S
C1079 C1080 1.415 . S
C1080 H1056 0.950 . S
C1080 C1075 1.363 . S
C1080 C1079 1.415 . S
C1081 H1057 0.963 . S
C1081 C1082 1.366 . S
C1081 C1083 1.388 . S
C1082 C1081 1.366 . S
C1082 C1086 1.385 . S
C1083 H1058 0.951 . S
C1083 C1081 1.388 . S
C1083 C1084 1.366 . S
C1084 C1083 1.366 . S
C1084 C1085 1.414 . S
C1084 C1087 1.499 . S
C1085 H1059 0.950 . S
C1085 C1084 1.414 . S
C1085 C1086 1.374 . S
C1086 H1060 0.950 . S
C1086 C1082 1.385 . S
C1086 C1085 1.374 . S
C1087 C1084 1.499 . S
C1087 C1088 1.373 . S
C1087 C1089 1.389 1_556 S
C1088 H1061 0.950 . S
C1088 C1074 1.377 . S
C1088 C1087 1.373 . S
C1089 C1073 1.377 . S
C1089 C1087 1.389 1_554 S
C1089 C1090 1.524 . S
C1090 C1089 1.524 . S
C1090 C1091 1.397 . S
C1090 C1095 1.363 1_455 S
C1091 H1062 0.950 . S
C1091 C1090 1.397 . S
C1091 C1092 1.334 1_455 S
C1092 H1063 0.950 1_655 S
C1092 C1091 1.334 1_655 S
C1092 C1093 1.287 . S
C1093 C1092 1.287 . S
C1093 C1094 1.524 . S
C1093 H1096 0.999 . S
C1094 H1064 0.950 . S
C1094 C1093 1.524 . S
C1094 C1095 1.415 . S
C1095 H1065 0.950 . S
C1095 C1090 1.363 1_655 S
C1095 C1094 1.415 . S
H1096 C1093 0.999 . S
H1097 C1078 0.913 . S
H1098 C1116 0.951 . S
H1099 C1118 0.951 . S
H1100 C1120 0.950 . S
H1101 C1121 0.950 . S
H1102 C1123 0.950 . S
H1103 C1126 0.950 1_554 S
H1104 C1127 0.950 1_554 S
H1105 C1129 0.950 . S
H1106 C1130 0.950 . S
H1107 C1131 0.951 . S
H1108 C1133 0.951 1_554 S
H1109 C1135 0.950 . S
H1110 C1136 0.950 . S
H1111 C1138 0.950 . S
H1112 C1141 0.950 . S
H1113 C1142 0.950 . S
H1114 C1144 0.950 . S
H1115 C1145 0.950 . S
C1116 H1098 0.951 . S
C1116 C1117 1.359 1_566 S
C1116 C1118 1.388 . S
C1117 C1116 1.359 1_544 S
C1117 C1121 1.394 . S
C1118 H1099 0.951 . S
C1118 C1116 1.388 . S
C1118 C1119 1.357 1_566 S
C1119 C1118 1.357 1_544 S
C1119 C1120 1.424 . S
C1119 C1122 1.502 1_554 S
C1120 H1100 0.950 . S
C1120 C1119 1.424 . S
C1120 C1121 1.374 . S
C1121 H1101 0.950 . S
C1121 C1117 1.394 . S
C1121 C1120 1.374 . S
C1122 C1119 1.502 1_556 S
C1122 C1123 1.373 1_556 S
C1122 C1124 1.389 1_545 S
C1123 H1102 0.950 . S
C1123 C1122 1.373 1_554 S
C1123 C1139 1.377 1_554 S
C1124 C1122 1.389 1_565 S
C1124 C1125 1.524 . S
C1124 C1138 1.377 . S
C1125 C1124 1.524 . S
C1125 C1126 1.397 . S
C1125 C1130 1.363 . S
C1126 H1103 0.950 1_556 S
C1126 C1125 1.397 . S
C1126 C1127 1.334 . S
C1127 H1104 0.950 1_556 S
C1127 C1126 1.334 . S
C1127 C1128 1.287 . S
C1128 C1127 1.287 . S
C1128 C1129 1.524 . S
C1128 H1147 0.913 . S
C1129 H1105 0.950 . S
C1129 C1128 1.524 . S
C1129 C1130 1.415 . S
C1130 H1106 0.950 . S
C1130 C1125 1.363 . S
C1130 C1129 1.415 . S
C1131 H1107 0.951 . S
C1131 C1132 1.366 . S
C1131 C1133 1.388 . S
C1132 C1131 1.366 . S
C1132 C1136 1.385 1_545 S
C1133 H1108 0.951 1_556 S
C1133 C1131 1.388 . S
C1133 C1134 1.366 . S
C1134 C1133 1.366 . S
C1134 C1135 1.414 1_545 S
C1134 C1137 1.499 . S
C1135 H1109 0.950 . S
C1135 C1134 1.414 1_565 S
C1135 C1136 1.374 . S
C1136 H1110 0.950 . S
C1136 C1132 1.385 1_565 S
C1136 C1135 1.374 . S
C1137 C1134 1.499 . S
C1137 C1138 1.373 1_545 S
C1137 C1139 1.389 . S
C1138 H1111 0.950 . S
C1138 C1124 1.377 . S
C1138 C1137 1.373 1_565 S
C1139 C1123 1.377 1_556 S
C1139 C1137 1.389 . S
C1139 C1140 1.524 . S
C1140 C1139 1.524 . S
C1140 C1141 1.397 . S
C1140 C1145 1.363 1_556 S
C1141 H1112 0.950 . S
C1141 C1140 1.397 . S
C1141 C1142 1.334 . S
C1142 H1113 0.950 . S
C1142 C1141 1.334 . S
C1142 C1143 1.287 1_556 S
C1143 C1142 1.287 1_554 S
C1143 C1144 1.524 . S
C1143 H1146 0.999 . S
C1144 H1114 0.950 . S
C1144 C1143 1.524 . S
C1144 C1145 1.415 . S
C1145 H1115 0.950 . S
C1145 C1140 1.363 1_554 S
C1145 C1144 1.415 . S
H1146 C1143 0.999 . S
H1147 C1128 0.913 . S
H1148 C1166 0.951 . S
H1149 C1168 0.951 . S
H1150 C1170 0.950 . S
H1151 C1171 0.950 . S
H1152 C1173 0.950 . S
H1153 C1176 0.950 . S
H1154 C1177 0.950 . S
H1155 C1179 0.950 . S
H1156 C1180 0.950 . S
H1157 C1181 0.951 . S
H1158 C1183 0.951 . S
H1159 C1185 0.950 . S
H1160 C1186 0.950 . S
H1161 C1188 0.950 . S
H1162 C1191 0.950 . S
H1163 C1192 0.950 . S
H1164 C1194 0.950 . S
H1165 C1195 0.950 . S
C1166 H1148 0.951 . S
C1166 C1167 1.366 . S
C1166 C1168 1.388 . S
C1167 C1166 1.366 . S
C1167 C1171 1.385 . S
C1168 H1149 0.951 . S
C1168 C1166 1.388 . S
C1168 C1169 1.366 . S
C1169 C1168 1.366 . S
C1169 C1170 1.414 . S
C1169 C1172 1.499 . S
C1170 H1150 0.950 . S
C1170 C1169 1.414 . S
C1170 C1171 1.374 . S
C1171 H1151 0.950 . S
C1171 C1167 1.385 . S
C1171 C1170 1.374 . S
C1172 C1169 1.499 . S
C1172 C1173 1.373 . S
C1172 C1174 1.389 . S
C1173 H1152 0.950 . S
C1173 C1172 1.373 . S
C1173 C1189 1.377 . S
C1174 C1172 1.389 . S
C1174 C1175 1.524 . S
C1174 C1188 1.377 . S
C1175 C1174 1.524 . S
C1175 C1176 1.397 . S
C1175 C1180 1.363 . S
C1176 H1153 0.950 . S
C1176 C1175 1.397 . S
C1176 C1177 1.334 . S
C1177 H1154 0.950 . S
C1177 C1176 1.334 . S
C1177 C1178 1.287 . S
C1178 C1177 1.287 . S
C1178 C1179 1.524 . S
C1178 H1197 0.913 . S
C1179 H1155 0.950 . S
C1179 C1178 1.524 . S
C1179 C1180 1.415 . S
C1180 H1156 0.950 . S
C1180 C1175 1.363 . S
C1180 C1179 1.415 . S
C1181 H1157 0.951 . S
C1181 C1182 1.366 . S
C1181 C1183 1.388 . S
C1182 C1181 1.366 . S
C1182 C1186 1.385 . S
C1183 H1158 0.951 . S
C1183 C1181 1.388 . S
C1183 C1184 1.366 . S
C1184 C1183 1.366 . S
C1184 C1185 1.414 . S
C1184 C1187 1.499 . S
C1185 H1159 0.950 . S
C1185 C1184 1.414 . S
C1185 C1186 1.374 . S
C1186 H1160 0.950 . S
C1186 C1182 1.385 . S
C1186 C1185 1.374 . S
C1187 C1184 1.499 . S
C1187 C1188 1.373 . S
C1187 C1189 1.389 . S
C1188 H1161 0.950 . S
C1188 C1174 1.377 . S
C1188 C1187 1.373 . S
C1189 C1173 1.377 . S
C1189 C1187 1.389 . S
C1189 C1190 1.524 . S
C1190 C1189 1.524 . S
C1190 C1191 1.397 . S
C1190 C1195 1.363 . S
C1191 H1162 0.950 . S
C1191 C1190 1.397 . S
C1191 C1192 1.334 . S
C1192 H1163 0.950 . S
C1192 C1191 1.334 . S
C1192 C1193 1.287 . S
C1193 C1192 1.287 . S
C1193 C1194 1.524 . S
C1193 H1196 0.999 . S
C1194 H1164 0.950 . S
C1194 C1193 1.524 . S
C1194 C1195 1.415 . S
C1195 H1165 0.950 . S
C1195 C1190 1.363 . S
C1195 C1194 1.415 . S
H1196 C1193 0.999 . S
H1197 C1178 0.913 . S
H1198 C1216 0.951 . S
H1199 C1218 0.951 . S
H1200 C1220 0.950 . S
H1201 C1221 0.950 . S
H1202 C1223 0.950 . S
H1203 C1226 0.950 1_556 S
H1204 C1227 0.950 . S
H1205 C1229 0.950 . S
H1206 C1230 0.950 . S
H1207 C1231 0.951 . S
H1208 C1233 0.951 . S
H1209 C1235 0.950 1_554 S
H1210 C1236 0.950 . S
H1211 C1238 0.950 1_554 S
H1212 C1241 0.950 . S
H1213 C1242 0.950 . S
H1214 C1244 0.950 . S
H1215 C1245 0.950 . S
C1216 H1198 0.951 . S
C1216 C1217 1.366 . S
C1216 C1218 1.388 . S
C1217 C1216 1.366 . S
C1217 C1221 1.385 1_554 S
C1218 H1199 0.951 . S
C1218 C1216 1.388 . S
C1218 C1219 1.366 1_554 S
C1219 C1218 1.366 1_556 S
C1219 C1220 1.414 . S
C1219 C1222 1.499 . S
C1220 H1200 0.950 . S
C1220 C1219 1.414 . S
C1220 C1221 1.374 . S
C1221 H1201 0.950 . S
C1221 C1217 1.385 1_556 S
C1221 C1220 1.374 . S
C1222 C1219 1.499 . S
C1222 C1223 1.373 . S
C1222 C1224 1.389 1_556 S
C1223 H1202 0.950 . S
C1223 C1222 1.373 . S
C1223 C1239 1.377 . S
C1224 C1222 1.389 1_554 S
C1224 C1225 1.524 . S
C1224 C1238 1.377 1_554 S
C1225 C1224 1.524 . S
C1225 C1226 1.397 . S
C1225 C1230 1.363 . S
C1226 H1203 0.950 1_554 S
C1226 C1225 1.397 . S
C1226 C1227 1.334 . S
C1227 H1204 0.950 . S
C1227 C1226 1.334 . S
C1227 C1228 1.287 . S
C1228 C1227 1.287 . S
C1228 C1229 1.524 . S
C1228 H1247 0.913 . S
C1229 H1205 0.950 . S
C1229 C1228 1.524 . S
C1229 C1230 1.415 . S
C1230 H1206 0.950 . S
C1230 C1225 1.363 . S
C1230 C1229 1.415 . S
C1231 H1207 0.951 . S
C1231 C1232 1.366 . S
C1231 C1233 1.388 . S
C1232 C1231 1.366 . S
C1232 C1236 1.385 . S
C1233 H1208 0.951 . S
C1233 C1231 1.388 . S
C1233 C1234 1.366 . S
C1234 C1233 1.366 . S
C1234 C1235 1.414 . S
C1234 C1237 1.499 . S
C1235 H1209 0.950 1_556 S
C1235 C1234 1.414 . S
C1235 C1236 1.374 . S
C1236 H1210 0.950 . S
C1236 C1232 1.385 . S
C1236 C1235 1.374 . S
C1237 C1234 1.499 . S
C1237 C1238 1.373 . S
C1237 C1239 1.389 . S
C1238 H1211 0.950 1_556 S
C1238 C1224 1.377 1_556 S
C1238 C1237 1.373 . S
C1239 C1223 1.377 . S
C1239 C1237 1.389 . S
C1239 C1240 1.524 . S
C1240 C1239 1.524 . S
C1240 C1241 1.397 . S
C1240 C1245 1.363 . S
C1241 H1212 0.950 . S
C1241 C1240 1.397 . S
C1241 C1242 1.334 . S
C1242 H1213 0.950 . S
C1242 C1241 1.334 . S
C1242 C1243 1.287 . S
C1243 C1242 1.287 . S
C1243 C1244 1.524 . S
C1243 H1246 0.999 . S
C1244 H1214 0.950 . S
C1244 C1243 1.524 . S
C1244 C1245 1.415 . S
C1245 H1215 0.950 . S
C1245 C1240 1.363 . S
C1245 C1244 1.415 . S
H1246 C1243 0.999 . S
H1247 C1228 0.913 . S
H1248 C1266 0.951 . S
H1249 C1268 0.951 . S
H1250 C1270 0.950 . S
H1251 C1271 0.950 . S
H1252 C1273 0.950 . S
H1253 C1276 0.950 . S
H1254 C1277 0.950 . S
H1255 C1279 0.950 . S
H1256 C1280 0.950 . S
H1257 C1281 0.951 . S
H1258 C1283 0.951 . S
H1259 C1285 0.950 . S
H1260 C1286 0.950 . S
H1261 C1288 0.950 . S
H1262 C1291 0.950 . S
H1263 C1292 0.950 . S
H1264 C1294 0.950 . S
H1265 C1295 0.950 . S
C1266 H1248 0.951 . S
C1266 C1267 1.366 . S
C1266 C1268 1.388 . S
C1267 C1266 1.366 . S
C1267 C1271 1.385 . S
C1268 H1249 0.951 . S
C1268 C1266 1.388 . S
C1268 C1269 1.366 . S
C1269 C1268 1.366 . S
C1269 C1270 1.414 . S
C1269 C1272 1.499 . S
C1270 H1250 0.950 . S
C1270 C1269 1.414 . S
C1270 C1271 1.374 . S
C1271 H1251 0.950 . S
C1271 C1267 1.385 . S
C1271 C1270 1.374 . S
C1272 C1269 1.499 . S
C1272 C1273 1.373 1_655 S
C1272 C1274 1.389 . S
C1273 H1252 0.950 . S
C1273 C1272 1.373 1_455 S
C1273 C1289 1.377 . S
C1274 C1272 1.389 . S
C1274 C1275 1.524 . S
C1274 C1288 1.377 . S
C1275 C1274 1.524 . S
C1275 C1276 1.397 . S
C1275 C1280 1.363 . S
C1276 H1253 0.950 . S
C1276 C1275 1.397 . S
C1276 C1277 1.334 . S
C1277 H1254 0.950 . S
C1277 C1276 1.334 . S
C1277 C1278 1.287 . S
C1278 C1277 1.287 . S
C1278 C1279 1.524 . S
C1278 H1297 0.913 . S
C1279 H1255 0.950 . S
C1279 C1278 1.524 . S
C1279 C1280 1.415 . S
C1280 H1256 0.950 . S
C1280 C1275 1.363 . S
C1280 C1279 1.415 . S
C1281 H1257 0.951 . S
C1281 C1282 1.366 1_455 S
C1281 C1283 1.388 . S
C1282 C1281 1.366 1_655 S
C1282 C1286 1.384 . S
C1283 H1258 0.951 . S
C1283 C1281 1.388 . S
C1283 C1284 1.366 1_455 S
C1284 C1283 1.366 1_655 S
C1284 C1285 1.414 . S
C1284 C1287 1.499 . S
C1285 H1259 0.950 . S
C1285 C1284 1.414 . S
C1285 C1286 1.374 . S
C1286 H1260 0.950 . S
C1286 C1282 1.384 . S
C1286 C1285 1.374 . S
C1287 C1284 1.499 . S
C1287 C1288 1.373 . S
C1287 C1289 1.389 1_655 S
C1288 H1261 0.950 . S
C1288 C1274 1.377 . S
C1288 C1287 1.373 . S
C1289 C1273 1.377 . S
C1289 C1287 1.389 1_455 S
C1289 C1290 1.524 . S
C1290 C1289 1.524 . S
C1290 C1291 1.397 . S
C1290 C1295 1.363 . S
C1291 H1262 0.950 . S
C1291 C1290 1.397 . S
C1291 C1292 1.334 . S
C1292 H1263 0.950 . S
C1292 C1291 1.334 . S
C1292 C1293 1.287 . S
C1293 C1292 1.287 . S
C1293 C1294 1.524 . S
C1293 H1296 0.999 . S
C1294 H1264 0.950 . S
C1294 C1293 1.524 . S
C1294 C1295 1.415 . S
C1295 H1265 0.950 . S
C1295 C1290 1.363 . S
C1295 C1294 1.415 . S
H1296 C1293 0.999 . S
H1297 C1278 0.913 . S
H1298 C1316 0.951 . S
H1299 C1318 0.951 . S
H1300 C1320 0.950 . S
H1301 C1321 0.950 . S
H1302 C1323 0.950 . S
H1303 C1326 0.950 . S
H1304 C1327 0.950 . S
H1305 C1329 0.950 . S
H1306 C1330 0.950 . S
H1307 C1331 0.951 . S
H1308 C1333 0.951 . S
H1309 C1335 0.950 . S
H1310 C1336 0.950 . S
H1311 C1338 0.950 . S
H1312 C1341 0.950 . S
H1313 C1342 0.950 . S
H1314 C1344 0.950 . S
H1315 C1345 0.950 . S
C1316 H1298 0.951 . S
C1316 C1317 1.345 1_545 S
C1316 C1318 1.388 . S
C1317 C1316 1.345 1_565 S
C1317 C1321 1.406 . S
C1318 H1299 0.951 . S
C1318 C1316 1.388 . S
C1318 C1319 1.366 1_545 S
C1319 C1318 1.366 1_565 S
C1319 C1320 1.414 . S
C1319 C1322 1.499 . S
C1320 H1300 0.950 . S
C1320 C1319 1.414 . S
C1320 C1321 1.374 . S
C1321 H1301 0.950 . S
C1321 C1317 1.406 . S
C1321 C1320 1.374 . S
C1322 C1319 1.499 . S
C1322 C1323 1.373 . S
C1322 C1324 1.389 1_565 S
C1323 H1302 0.950 . S
C1323 C1322 1.373 . S
C1323 C1339 1.377 . S
C1324 C1322 1.389 1_545 S
C1324 C1325 1.524 . S
C1324 C1338 1.377 . S
C1325 C1324 1.524 . S
C1325 C1326 1.397 . S
C1325 C1330 1.363 . S
C1326 H1303 0.950 . S
C1326 C1325 1.397 . S
C1326 C1327 1.334 . S
C1327 H1304 0.950 . S
C1327 C1326 1.334 . S
C1327 C1328 1.287 . S
C1328 C1327 1.287 . S
C1328 C1329 1.524 . S
C1328 H1347 0.913 . S
C1329 H1305 0.950 . S
C1329 C1328 1.524 . S
C1329 C1330 1.415 . S
C1330 H1306 0.950 . S
C1330 C1325 1.363 . S
C1330 C1329 1.415 . S
C1331 H1307 0.951 . S
C1331 C1332 1.366 . S
C1331 C1333 1.388 . S
C1332 C1331 1.366 . S
C1332 C1336 1.385 1_565 S
C1333 H1308 0.951 . S
C1333 C1331 1.388 . S
C1333 C1334 1.366 . S
C1334 C1333 1.366 . S
C1334 C1335 1.414 1_565 S
C1334 C1337 1.499 . S
C1335 H1309 0.950 . S
C1335 C1334 1.414 1_545 S
C1335 C1336 1.374 . S
C1336 H1310 0.950 . S
C1336 C1332 1.385 1_545 S
C1336 C1335 1.374 . S
C1337 C1334 1.499 . S
C1337 C1338 1.373 1_565 S
C1337 C1339 1.389 . S
C1338 H1311 0.950 . S
C1338 C1324 1.377 . S
C1338 C1337 1.373 1_545 S
C1339 C1323 1.377 . S
C1339 C1337 1.389 . S
C1339 C1340 1.524 . S
C1340 C1339 1.524 . S
C1340 C1341 1.397 . S
C1340 C1345 1.363 . S
C1341 H1312 0.950 . S
C1341 C1340 1.397 . S
C1341 C1342 1.334 . S
C1342 H1313 0.950 . S
C1342 C1341 1.334 . S
C1342 C1343 1.287 . S
C1343 C1342 1.287 . S
C1343 C1344 1.524 . S
C1343 H1346 0.999 . S
C1344 H1314 0.950 . S
C1344 C1343 1.524 . S
C1344 C1345 1.415 . S
C1345 H1315 0.950 . S
C1345 C1340 1.363 . S
C1345 C1344 1.415 . S
H1346 C1343 0.999 . S
H1347 C1328 0.913 . S
H1348 C1366 0.951 . S
H1349 C1368 0.951 . S
H1350 C1370 0.950 . S
H1351 C1371 0.950 . S
H1352 C1373 0.950 . S
H1353 C1376 0.950 . S
H1354 C1377 0.950 . S
H1355 C1379 0.950 . S
H1356 C1380 0.950 . S
H1357 C1381 0.951 . S
H1358 C1383 0.951 . S
H1359 C1385 0.950 . S
H1360 C1386 0.950 . S
H1361 C1388 0.950 . S
H1362 C1391 0.950 . S
H1363 C1392 0.950 . S
H1364 C1394 0.950 . S
H1365 C1395 0.950 . S
C1366 H1348 0.951 . S
C1366 C1367 1.366 . S
C1366 C1368 1.388 . S
C1367 C1366 1.366 . S
C1367 C1371 1.385 . S
C1368 H1349 0.951 . S
C1368 C1366 1.388 . S
C1368 C1369 1.366 . S
C1369 C1368 1.366 . S
C1369 C1370 1.414 . S
C1369 C1372 1.499 . S
C1370 H1350 0.950 . S
C1370 C1369 1.414 . S
C1370 C1371 1.374 . S
C1371 H1351 0.950 . S
C1371 C1367 1.385 . S
C1371 C1370 1.374 . S
C1372 C1369 1.499 . S
C1372 C1373 1.373 . S
C1372 C1374 1.389 . S
C1373 H1352 0.950 . S
C1373 C1372 1.373 . S
C1373 C1389 1.377 . S
C1374 C1372 1.389 . S
C1374 C1375 1.524 . S
C1374 C1388 1.377 . S
C1375 C1374 1.524 . S
C1375 C1376 1.397 . S
C1375 C1380 1.363 . S
C1376 H1353 0.950 . S
C1376 C1375 1.397 . S
C1376 C1377 1.334 . S
C1377 H1354 0.950 . S
C1377 C1376 1.334 . S
C1377 C1378 1.287 . S
C1378 C1377 1.287 . S
C1378 C1379 1.524 . S
C1378 H1397 0.913 1_554 S
C1379 H1355 0.950 . S
C1379 C1378 1.524 . S
C1379 C1380 1.415 . S
C1380 H1356 0.950 . S
C1380 C1375 1.363 . S
C1380 C1379 1.415 . S
C1381 H1357 0.951 . S
C1381 C1382 1.366 . S
C1381 C1383 1.388 . S
C1382 C1381 1.366 . S
C1382 C1386 1.385 . S
C1383 H1358 0.951 . S
C1383 C1381 1.388 . S
C1383 C1384 1.366 . S
C1384 C1383 1.366 . S
C1384 C1385 1.414 . S
C1384 C1387 1.499 . S
C1385 H1359 0.950 . S
C1385 C1384 1.414 . S
C1385 C1386 1.374 . S
C1386 H1360 0.950 . S
C1386 C1382 1.385 . S
C1386 C1385 1.374 . S
C1387 C1384 1.499 . S
C1387 C1388 1.373 . S
C1387 C1389 1.389 . S
C1388 H1361 0.950 . S
C1388 C1374 1.377 . S
C1388 C1387 1.373 . S
C1389 C1373 1.377 . S
C1389 C1387 1.389 . S
C1389 C1390 1.524 . S
C1390 C1389 1.524 . S
C1390 C1391 1.397 . S
C1390 C1395 1.363 . S
C1391 H1362 0.950 . S
C1391 C1390 1.397 . S
C1391 C1392 1.334 . S
C1392 H1363 0.950 . S
C1392 C1391 1.334 . S
C1392 C1393 1.287 . S
C1393 C1392 1.287 . S
C1393 C1394 1.524 . S
C1393 H1396 0.999 . S
C1394 H1364 0.950 . S
C1394 C1393 1.524 . S
C1394 C1395 1.415 . S
C1395 H1365 0.950 . S
C1395 C1390 1.363 . S
C1395 C1394 1.415 . S
H1396 C1393 0.999 . S
H1397 C1378 0.913 1_556 S
H1398 C1416 0.951 . S
H1399 C1418 0.951 . S
H1400 C1420 0.950 . S
H1401 C1421 0.950 . S
H1402 C1423 0.950 . S
H1403 C1426 0.950 . S
H1404 C1427 0.950 . S
H1405 C1429 0.950 . S
H1406 C1430 0.950 . S
H1407 C1431 0.951 . S
H1408 C1433 0.951 . S
H1409 C1435 0.950 . S
H1410 C1436 0.950 . S
H1411 C1438 0.950 . S
H1412 C1441 0.950 . S
H1413 C1442 0.950 . S
H1414 C1444 0.950 . S
H1415 C1445 0.950 . S
C1416 H1398 0.951 . S
C1416 C1417 1.366 . S
C1416 C1418 1.388 . S
C1417 C1416 1.366 . S
C1417 C1421 1.385 . S
C1418 H1399 0.951 . S
C1418 C1416 1.388 . S
C1418 C1419 1.366 . S
C1419 C1418 1.366 . S
C1419 C1420 1.414 . S
C1419 C1422 1.499 . S
C1420 H1400 0.950 . S
C1420 C1419 1.414 . S
C1420 C1421 1.374 . S
C1421 H1401 0.950 . S
C1421 C1417 1.385 . S
C1421 C1420 1.374 . S
C1422 C1419 1.499 . S
C1422 C1423 1.373 . S
C1422 C1424 1.389 . S
C1423 H1402 0.950 . S
C1423 C1422 1.373 . S
C1423 C1439 1.377 . S
C1424 C1422 1.389 . S
C1424 C1425 1.524 . S
C1424 C1438 1.377 . S
C1425 C1424 1.524 . S
C1425 C1426 1.397 . S
C1425 C1430 1.363 . S
C1426 H1403 0.950 . S
C1426 C1425 1.397 . S
C1426 C1427 1.334 . S
C1427 H1404 0.950 . S
C1427 C1426 1.334 . S
C1427 C1428 1.287 . S
C1428 C1427 1.287 . S
C1428 C1429 1.524 . S
C1428 H1447 0.913 . S
C1429 H1405 0.950 . S
C1429 C1428 1.524 . S
C1429 C1430 1.415 . S
C1430 H1406 0.950 . S
C1430 C1425 1.363 . S
C1430 C1429 1.415 . S
C1431 H1407 0.951 . S
C1431 C1432 1.366 . S
C1431 C1433 1.388 . S
C1432 C1431 1.366 . S
C1432 C1436 1.385 . S
C1433 H1408 0.951 . S
C1433 C1431 1.388 . S
C1433 C1434 1.366 . S
C1434 C1433 1.366 . S
C1434 C1435 1.414 . S
C1434 C1437 1.499 . S
C1435 H1409 0.950 . S
C1435 C1434 1.414 . S
C1435 C1436 1.374 . S
C1436 H1410 0.950 . S
C1436 C1432 1.385 . S
C1436 C1435 1.374 . S
C1437 C1434 1.499 . S
C1437 C1438 1.373 . S
C1437 C1439 1.389 . S
C1438 H1411 0.950 . S
C1438 C1424 1.377 . S
C1438 C1437 1.373 . S
C1439 C1423 1.377 . S
C1439 C1437 1.389 . S
C1439 C1440 1.524 . S
C1440 C1439 1.524 . S
C1440 C1441 1.397 . S
C1440 C1445 1.363 . S
C1441 H1412 0.950 . S
C1441 C1440 1.397 . S
C1441 C1442 1.334 . S
C1442 H1413 0.950 . S
C1442 C1441 1.334 . S
C1442 C1443 1.287 . S
C1443 C1442 1.287 . S
C1443 C1444 1.524 . S
C1443 H1446 0.999 . S
C1444 H1414 0.950 . S
C1444 C1443 1.524 . S
C1444 C1445 1.415 . S
C1445 H1415 0.950 . S
C1445 C1440 1.363 . S
C1445 C1444 1.415 . S
H1446 C1443 0.999 . S
H1447 C1428 0.913 . S
C267 C76 1.763 1_545 S
C282 C111 1.849 1_545 S
C332 C151 1.668 . S
C317 C87 1.665 . S
C382 C170 1.860 . S
C367 C54 1.774 . S
C432 C231 1.347 . S
C417 C65 1.298 . S
C482 C90 1.849 1_565 S
C467 C32 1.761 . S
C517 C43 1.677 . S
C532 C130 1.674 . S
C567 C10 1.775 . S
C582 C191 1.860 . S
C617 C21 1.301 . S
C632 C210 1.348 . S
C682 C92 0.644 . S
C667 C60 0.641 . S
C732 C132 0.233 . S
C717 C71 0.312 . S
C782 C188 0.627 . S
C767 C82 0.668 . S
C817 C49 0.321 . S
C832 C212 0.275 . S
C867 C16 0.647 . S
C882 C113 0.650 1_554 S
C932 C153 0.234 . S
C917 C27 0.321 1_565 S
C982 C199 0.627 . S
C967 C38 0.671 . S
C1017 C5 0.338 . S
C1032 C233 0.278 . S
C1067 C59 1.399 . S
C1082 C108 1.507 . S
C1117 C70 2.029 . S
C1132 C148 2.199 . S
C1182 C172 1.452 . S
C1167 C81 1.426 . S
C1232 C228 2.195 . S
C1217 C48 2.028 . S
C1267 C15 1.398 . S
C1282 C119 1.521 1_655 S
C1332 C159 2.200 . S
C1317 C26 2.024 1_565 S
C1382 C193 1.452 . S
C1367 C37 1.428 . S
C1417 C4 2.027 . S
C1432 C239 2.195 . S
