# Generated by pormake.
# Topology nom, (4,4)-cn, num edge types: 1
# Building blocks:
#     Node 0, Type 0, BuildingBlock: MUDLON_clean_linker_0, # of connection points: 4
#     Node 1, Type 0, BuildingBlock: MUDLON_clean_linker_0, # of connection points: 4
#     Node 2, Type 0, BuildingBlock: MUDLON_clean_linker_0, # of connection points: 4
#     Node 3, Type 0, BuildingBlock: MUDLON_clean_linker_0, # of connection points: 4
#     Node 4, Type 0, BuildingBlock: MUDLON_clean_linker_0, # of connection points: 4
#     Node 5, Type 0, BuildingBlock: MUDLON_clean_linker_0, # of connection points: 4
#     Node 6, Type 1, BuildingBlock: KUFVIS_clean_sbu_0, # of connection points: 4
#     Node 7, Type 1, BuildingBlock: KUFVIS_clean_sbu_0, # of connection points: 4
#     Node 8, Type 1, BuildingBlock: KUFVIS_clean_sbu_0, # of connection points: 4
#     Node 9, Type 1, BuildingBlock: KUFVIS_clean_sbu_0, # of connection points: 4
#     Node 10, Type 1, BuildingBlock: KUFVIS_clean_sbu_0, # of connection points: 4
#     Node 11, Type 1, BuildingBlock: KUFVIS_clean_sbu_0, # of connection points: 4
#     Edge 12, Type (0, 1), BuildingBlock: TEMPAE_clean_linker_10, # of connection points: 2
#     Edge 13, Type (0, 1), BuildingBlock: TEMPAE_clean_linker_10, # of connection points: 2
#     Edge 14, Type (0, 1), BuildingBlock: TEMPAE_clean_linker_10, # of connection points: 2
#     Edge 15, Type (0, 1), BuildingBlock: TEMPAE_clean_linker_10, # of connection points: 2
#     Edge 16, Type (0, 1), BuildingBlock: TEMPAE_clean_linker_10, # of connection points: 2
#     Edge 17, Type (0, 1), BuildingBlock: TEMPAE_clean_linker_10, # of connection points: 2
#     Edge 18, Type (0, 1), BuildingBlock: TEMPAE_clean_linker_10, # of connection points: 2
#     Edge 19, Type (0, 1), BuildingBlock: TEMPAE_clean_linker_10, # of connection points: 2
#     Edge 20, Type (0, 1), BuildingBlock: TEMPAE_clean_linker_10, # of connection points: 2
#     Edge 21, Type (0, 1), BuildingBlock: TEMPAE_clean_linker_10, # of connection points: 2
#     Edge 22, Type (0, 1), BuildingBlock: TEMPAE_clean_linker_10, # of connection points: 2
#     Edge 23, Type (0, 1), BuildingBlock: TEMPAE_clean_linker_10, # of connection points: 2
#     Edge 24, Type (0, 1), BuildingBlock: TEMPAE_clean_linker_10, # of connection points: 2
#     Edge 25, Type (0, 1), BuildingBlock: TEMPAE_clean_linker_10, # of connection points: 2
#     Edge 26, Type (0, 1), BuildingBlock: TEMPAE_clean_linker_10, # of connection points: 2
#     Edge 27, Type (0, 1), BuildingBlock: TEMPAE_clean_linker_10, # of connection points: 2
#     Edge 28, Type (0, 1), BuildingBlock: TEMPAE_clean_linker_10, # of connection points: 2
#     Edge 29, Type (0, 1), BuildingBlock: TEMPAE_clean_linker_10, # of connection points: 2
#     Edge 30, Type (0, 1), BuildingBlock: TEMPAE_clean_linker_10, # of connection points: 2
#     Edge 31, Type (0, 1), BuildingBlock: TEMPAE_clean_linker_10, # of connection points: 2
#     Edge 32, Type (0, 1), BuildingBlock: TEMPAE_clean_linker_10, # of connection points: 2
#     Edge 33, Type (0, 1), BuildingBlock: TEMPAE_clean_linker_10, # of connection points: 2
#     Edge 34, Type (0, 1), BuildingBlock: TEMPAE_clean_linker_10, # of connection points: 2
#     Edge 35, Type (0, 1), BuildingBlock: TEMPAE_clean_linker_10, # of connection points: 2
# Relax obj value: 0.008
# Max RMSD: 0.106
# Mean RMSD: 0.064
data_MOF--net-nom--node1-KUFVIS_clean_sbu_0--node2-MUDLON_clean_linker_0--edge1-TEMPAE_clean_linker_10
_symmetry_space_group_name_H-M    P1
_symmetry_Int_Tables_number       1
_symmetry_cell_setting            triclinic
loop_
_symmetry_equiv_pos_as_xyz
'x, y, z'
_cell_length_a     60.445743
_cell_length_b     61.989551
_cell_length_c     61.400905
_cell_angle_alpha  91.014299
_cell_angle_beta   90.542632
_cell_angle_gamma 120.49331
loop_
_atom_site_label
_atom_site_type_symbol
_atom_site_fract_x
_atom_site_fract_y
_atom_site_fract_z
_atom_type_partial_charge
H0 H 0.13668 0.55647 0.31523 0.0
N1 N 0.10343 0.56717 0.33286 0.0
H2 H 0.17508 0.58446 0.29511 0.0
H3 H 0.11603 0.61345 0.31862 0.0
H4 H 0.15353 0.64117 0.29754 0.0
H5 H 0.10654 0.60546 0.35767 0.0
H6 H 0.12111 0.61528 0.39595 0.0
H7 H 0.11401 0.54004 0.35915 0.0
H8 H 0.12869 0.54962 0.39721 0.0
H9 H 0.07352 0.51853 0.32509 0.0
H10 H 0.07348 0.58794 0.32613 0.0
H11 H 0.02795 0.49572 0.31528 0.0
H12 H 0.02826 0.5657 0.31471 0.0
H13 H 0.89547 0.42913 0.26683 0.0
H14 H 0.88014 0.42409 0.22891 0.0
H15 H 0.90458 0.50268 0.22799 0.0
H16 H 0.92101 0.50784 0.26572 0.0
H17 H 0.89982 0.50384 0.29817 0.0
H18 H 0.86259 0.49672 0.3189 0.0
H19 H 0.85143 0.42551 0.33905 0.0
H20 H 0.889 0.43292 0.31826 0.0
H21 H 0.95296 0.46196 0.27913 0.0
H22 H 0.99877 0.48684 0.28729 0.0
H23 H 0.98625 0.53875 0.32566 0.0
N24 N 0.91618 0.47037 0.29171 0.0
H25 H 0.94076 0.51473 0.31608 0.0
C26 C 0.12339 0.58271 0.31821 0.0
C27 C 0.14009 0.57479 0.31102 0.0
C28 C 0.16198 0.59083 0.29946 0.0
C29 C 0.16755 0.6152 0.2947 0.0
C30 C 0.15012 0.62271 0.3012 0.0
C31 C 0.12838 0.60671 0.31301 0.0
C32 C 0.10932 0.57204 0.35573 0.0
C33 C 0.11105 0.5931 0.36635 0.0
C34 C 0.11946 0.5987 0.38814 0.0
C35 C 0.12605 0.58322 0.3996 0.0
C36 C 0.12341 0.56172 0.38899 0.0
C37 C 0.11515 0.55625 0.36726 0.0
C38 C 0.07696 0.55486 0.32588 0.0
C39 C 0.06368 0.52886 0.32271 0.0
C40 C 0.03764 0.51592 0.31693 0.0
C41 C 0.02426 0.52881 0.31383 0.0
C42 C 0.03774 0.55504 0.31707 0.0
C43 C 0.06379 0.56792 0.32327 0.0
C44 C 0.90899 0.46867 0.26907 0.0
C45 C 0.89779 0.44529 0.25832 0.0
C46 C 0.88912 0.44248 0.23676 0.0
C47 C 0.89115 0.46301 0.22569 0.0
C48 C 0.90269 0.48659 0.23632 0.0
C49 C 0.91192 0.48951 0.25782 0.0
C50 C 0.8972 0.46882 0.30667 0.0
C51 C 0.88968 0.48688 0.30729 0.0
C52 C 0.86825 0.48271 0.31906 0.0
C53 C 0.85388 0.46041 0.3304 0.0
C54 C 0.86219 0.44295 0.33061 0.0
C55 C 0.88363 0.44714 0.31879 0.0
C56 C 0.94319 0.48615 0.297 0.0
C57 C 0.96016 0.47884 0.28915 0.0
C58 C 0.98638 0.49301 0.29406 0.0
C59 C 0.9964 0.51473 0.30747 0.0
C60 C 0.97942 0.52232 0.31511 0.0
C61 C 0.95313 0.50834 0.30977 0.0
H62 H 0.47885 0.91132 0.48487 0.0
N63 N 0.46137 0.93122 0.45634 0.0
H64 H 0.45345 0.87484 0.50714 0.0
H65 H 0.40984 0.90845 0.46209 0.0
H66 H 0.38399 0.8707 0.48255 0.0
H67 H 0.42365 0.92569 0.42811 0.0
H68 H 0.41662 0.90934 0.39064 0.0
H69 H 0.49168 0.92014 0.4336 0.0
H70 H 0.48482 0.9037 0.39596 0.0
H71 H 0.50729 0.96028 0.47473 0.0
H72 H 0.43977 0.9603 0.45194 0.0
H73 H 0.52813 0.00496 0.48359 0.0
H74 H 0.46099 0.00548 0.45919 0.0
H75 H 0.59426 0.12954 0.51552 0.0
H76 H 0.60228 0.1443 0.55371 0.0
H77 H 0.52453 0.12963 0.55745 0.0
H78 H 0.5167 0.11485 0.51949 0.0
H79 H 0.52031 0.13401 0.48667 0.0
H80 H 0.53036 0.17154 0.46698 0.0
H81 H 0.59832 0.17412 0.44186 0.0
H82 H 0.58907 0.13778 0.46335 0.0
H83 H 0.57078 0.08781 0.47576 0.0
H84 H 0.54769 0.04311 0.46658 0.0
H85 H 0.47651 0.03845 0.48512 0.0
N86 N 0.55177 0.11481 0.49176 0.0
H87 H 0.49981 0.08364 0.49264 0.0
C88 C 0.44622 0.91227 0.47161 0.0
C89 C 0.45816 0.90282 0.48482 0.0
C90 C 0.44352 0.88172 0.49727 0.0
C91 C 0.41649 0.86923 0.49632 0.0
C92 C 0.40468 0.8797 0.48391 0.0
C93 C 0.41944 0.90121 0.4719 0.0
C94 C 0.45821 0.92404 0.43363 0.0
C95 C 0.43723 0.9212 0.4212 0.0
C96 C 0.43316 0.91174 0.39979 0.0
C97 C 0.45011 0.90515 0.39041 0.0
C98 C 0.47157 0.90884 0.40268 0.0
C99 C 0.4755 0.91814 0.42413 0.0
C100 C 0.47225 0.95715 0.46245 0.0
C101 C 0.49706 0.97008 0.47156 0.0
C102 C 0.50902 0.99571 0.47632 0.0
C103 C 0.49654 0.00915 0.47168 0.0
C104 C 0.47124 0.99587 0.46307 0.0
C105 C 0.45911 0.97003 0.45868 0.0
C106 C 0.55504 0.12126 0.51464 0.0
C107 C 0.57892 0.12923 0.52473 0.0
C108 C 0.5834 0.13755 0.5465 0.0
C109 C 0.56403 0.13819 0.5585 0.0
C110 C 0.53987 0.12957 0.5485 0.0
C111 C 0.53536 0.12106 0.52679 0.0
C112 C 0.55436 0.13356 0.47689 0.0
C113 C 0.53733 0.14265 0.47692 0.0
C114 C 0.54301 0.16405 0.46534 0.0
C115 C 0.56551 0.17637 0.45303 0.0
C116 C 0.58131 0.16578 0.45168 0.0
C117 C 0.57591 0.14478 0.46369 0.0
C118 C 0.5371 0.08886 0.48518 0.0
C119 C 0.55015 0.07709 0.47757 0.0
C120 C 0.53689 0.05145 0.47262 0.0
C121 C 0.5102 0.03685 0.47558 0.0
C122 C 0.497 0.04897 0.48259 0.0
C123 C 0.51033 0.07481 0.48716 0.0
H124 H 0.49071 0.62229 0.66139 0.0
N125 N 0.47772 0.57483 0.66587 0.0
H126 H 0.46742 0.63815 0.64051 0.0
H127 H 0.4406 0.54828 0.63371 0.0
H128 H 0.41773 0.56409 0.61286 0.0
H129 H 0.42746 0.55692 0.6765 0.0
H130 H 0.41207 0.56139 0.71159 0.0
H131 H 0.5042 0.5892 0.70343 0.0
H132 H 0.48856 0.59152 0.73942 0.0
H133 H 0.52157 0.57788 0.65512 0.0
H134 H 0.44151 0.52479 0.66446 0.0
H135 H 0.52936 0.54366 0.64692 0.0
H136 H 0.44853 0.49042 0.65478 0.0
H137 H 0.55241 0.45614 0.61021 0.0
H138 H 0.56776 0.45462 0.57382 0.0
H139 H 0.48974 0.40493 0.55134 0.0
H140 H 0.47428 0.40712 0.58783 0.0
H141 H 0.48399 0.38291 0.62856 0.0
H142 H 0.50364 0.36323 0.64858 0.0
H143 H 0.56303 0.43609 0.67297 0.0
H144 H 0.54389 0.45564 0.65154 0.0
H145 H 0.53044 0.48074 0.60996 0.0
H146 H 0.52372 0.51438 0.6206 0.0
H147 H 0.46562 0.46599 0.66545 0.0
N148 N 0.50256 0.43131 0.62322 0.0
H149 H 0.47128 0.43133 0.65347 0.0
C150 C 0.46758 0.58412 0.64938 0.0
C151 C 0.4753 0.60964 0.65031 0.0
C152 C 0.46188 0.61863 0.63853 0.0
C153 C 0.44066 0.60228 0.62524 0.0
C154 C 0.43413 0.57713 0.6229 0.0
C155 C 0.44731 0.56805 0.63494 0.0
C156 C 0.46725 0.57342 0.6872 0.0
C157 C 0.44097 0.56456 0.69011 0.0
C158 C 0.4321 0.56687 0.71042 0.0
C159 C 0.44906 0.57722 0.72853 0.0
C160 C 0.475 0.58429 0.72582 0.0
C161 C 0.48399 0.58266 0.70532 0.0
C162 C 0.481 0.554 0.65997 0.0
C163 C 0.50559 0.55879 0.65498 0.0
C164 C 0.50992 0.53913 0.65019 0.0
C165 C 0.48956 0.51407 0.64994 0.0
C166 C 0.46482 0.50933 0.65507 0.0
C167 C 0.46064 0.52903 0.6603 0.0
C168 C 0.51207 0.43205 0.60159 0.0
C169 C 0.53855 0.44522 0.59741 0.0
C170 C 0.5473 0.44436 0.57666 0.0
C171 C 0.52986 0.42977 0.5599 0.0
C172 C 0.50347 0.41637 0.56407 0.0
C173 C 0.49466 0.4177 0.58476 0.0
C174 C 0.51227 0.42062 0.63863 0.0
C175 C 0.50096 0.39454 0.6386 0.0
C176 C 0.51226 0.38334 0.65019 0.0
C177 C 0.53507 0.39797 0.66252 0.0
C178 C 0.54576 0.42418 0.66339 0.0
C179 C 0.53463 0.43542 0.6514 0.0
C180 C 0.50117 0.45292 0.63077 0.0
C181 C 0.51624 0.47694 0.62211 0.0
C182 C 0.51251 0.4966 0.62843 0.0
C183 C 0.49404 0.49313 0.64391 0.0
C184 C 0.47964 0.46938 0.65313 0.0
C185 C 0.48306 0.44955 0.6465 0.0
H186 H 0.12308 0.58832 0.79674 0.0
N187 N 0.09215 0.53866 0.78502 0.0
H188 H 0.16243 0.60606 0.81895 0.0
H189 H 0.10758 0.51383 0.80973 0.0
H190 H 0.14669 0.5316 0.83269 0.0
H191 H 0.10335 0.51411 0.75553 0.0
H192 H 0.12345 0.52936 0.72019 0.0
H193 H 0.09848 0.5806 0.76516 0.0
H194 H 0.11985 0.59653 0.73038 0.0
H195 H 0.07744 0.57069 0.80168 0.0
H196 H 0.05008 0.49404 0.78208 0.0
H197 H 0.0343 0.55922 0.81337 0.0
H198 H 0.00672 0.48243 0.79302 0.0
H199 H 0.91609 0.51699 0.86842 0.0
H200 H 0.89761 0.50048 0.90393 0.0
H201 H 0.88025 0.42674 0.88217 0.0
H202 H 0.89774 0.44307 0.84678 0.0
H203 H 0.90707 0.45199 0.80548 0.0
H204 H 0.86716 0.42408 0.78553 0.0
H205 H 0.83568 0.4696 0.80663 0.0
H206 H 0.87592 0.49779 0.82646 0.0
H207 H 0.94782 0.53263 0.81316 0.0
H208 H 0.99102 0.54538 0.80052 0.0
H209 H 0.98356 0.47733 0.82557 0.0
N210 N 0.91532 0.49094 0.8332 0.0
H211 H 0.94057 0.46448 0.83734 0.0
C212 C 0.11251 0.54961 0.80129 0.0
C213 C 0.12777 0.57571 0.80468 0.0
C214 C 0.1503 0.58589 0.8174 0.0
C215 C 0.15761 0.57018 0.82736 0.0
C216 C 0.14138 0.5441 0.82526 0.0
C217 C 0.11911 0.53394 0.8122 0.0
C218 C 0.09978 0.54631 0.76305 0.0
C219 C 0.10624 0.53177 0.74982 0.0
C220 C 0.11771 0.54049 0.72976 0.0
C221 C 0.12327 0.56413 0.72282 0.0
C222 C 0.11579 0.57827 0.73556 0.0
C223 C 0.1037 0.56923 0.75541 0.0
C224 C 0.06693 0.53307 0.79121 0.0
C225 C 0.06211 0.55143 0.79975 0.0
C226 C 0.03736 0.54483 0.80631 0.0
C227 C 0.01701 0.51982 0.80433 0.0
C228 C 0.02196 0.50173 0.79524 0.0
C229 C 0.04665 0.50833 0.78883 0.0
C230 C 0.90853 0.48147 0.85494 0.0
C231 C 0.90878 0.49739 0.87155 0.0
C232 C 0.89823 0.48791 0.8918 0.0
C233 C 0.8872 0.46222 0.89579 0.0
C234 C 0.88817 0.44653 0.8795 0.0
C235 C 0.89855 0.45597 0.85928 0.0
C236 C 0.8946 0.4772 0.81749 0.0
C237 C 0.89203 0.45656 0.80529 0.0
C238 C 0.86912 0.44051 0.79389 0.0
C239 C 0.84829 0.44459 0.79471 0.0
C240 C 0.85138 0.46594 0.80588 0.0
C241 C 0.87438 0.48213 0.81703 0.0
C242 C 0.94082 0.49773 0.82632 0.0
C243 C 0.95559 0.52052 0.81588 0.0
C244 C 0.98031 0.52782 0.8088 0.0
C245 C 0.99082 0.51238 0.812 0.0
C246 C 0.97599 0.48954 0.82252 0.0
C247 C 0.95128 0.48223 0.82951 0.0
H248 H 0.51891 0.13043 0.98474 0.0
N249 N 0.52654 0.10445 0.95383 0.0
H250 H 0.55186 0.16803 0.00448 0.0
H251 H 0.57792 0.12073 0.95549 0.0
H252 H 0.61082 0.15791 0.97529 0.0
H253 H 0.55075 0.09064 0.92391 0.0
H254 H 0.56579 0.1095 0.88824 0.0
H255 H 0.515 0.13497 0.93363 0.0
H256 H 0.5303 0.15414 0.89824 0.0
H257 H 0.47765 0.06961 0.94814 0.0
H258 H 0.55055 0.07976 0.96948 0.0
H259 H 0.45682 0.02523 0.95623 0.0
H260 H 0.52974 0.03579 0.97883 0.0
H261 H 0.39686 0.89832 0.01682 0.0
H262 H 0.39549 0.88311 0.05373 0.0
H263 H 0.47821 0.91991 0.05555 0.0
H264 H 0.47952 0.93595 0.01902 0.0
H265 H 0.47301 0.90751 0.99003 0.0
H266 H 0.46675 0.87015 0.97117 0.0
H267 H 0.39679 0.85975 0.94124 0.0
H268 H 0.40235 0.89642 0.96178 0.0
H269 H 0.42124 0.95503 0.99527 0.0
H270 H 0.4437 0.99912 0.98601 0.0
H271 H 0.50922 0.99362 0.96629 0.0
N272 N 0.43787 0.92306 0.99236 0.0
H273 H 0.48697 0.9498 0.97679 0.0
C274 C 0.54584 0.12272 0.96872 0.0
C275 C 0.53892 0.13596 0.98315 0.0
C276 C 0.55777 0.15745 0.99435 0.0
C277 C 0.58395 0.16613 0.99118 0.0
C278 C 0.59082 0.15193 0.97776 0.0
C279 C 0.57198 0.13046 0.96662 0.0
C280 C 0.53158 0.11136 0.93134 0.0
C281 C 0.54557 0.10392 0.91813 0.0
C282 C 0.55422 0.11474 0.89783 0.0
C283 C 0.54937 0.13341 0.89068 0.0
C284 C 0.53445 0.13994 0.90349 0.0
C285 C 0.52554 0.1289 0.92355 0.0
C286 C 0.51551 0.07822 0.95846 0.0
C287 C 0.48912 0.06227 0.95473 0.0
C288 C 0.47723 0.03691 0.95958 0.0
C289 C 0.49144 0.02683 0.9686 0.0
C290 C 0.51813 0.04275 0.97182 0.0
C291 C 0.53009 0.06813 0.96664 0.0
C292 C 0.43817 0.91797 0.01513 0.0
C293 C 0.41469 0.90363 0.02545 0.0
C294 C 0.41394 0.89496 0.04643 0.0
C295 C 0.43674 0.9002 0.05729 0.0
C296 C 0.46038 0.9155 0.04737 0.0
C297 C 0.46113 0.92464 0.02655 0.0
C298 C 0.43779 0.90455 0.97769 0.0
C299 C 0.45642 0.89741 0.97932 0.0
C300 C 0.4529 0.87598 0.96824 0.0
C301 C 0.43098 0.86146 0.95485 0.0
C302 C 0.4135 0.86992 0.95189 0.0
C303 C 0.4168 0.89111 0.96335 0.0
C304 C 0.45215 0.949 0.98647 0.0
C305 C 0.44047 0.96341 0.98896 0.0
C306 C 0.45331 0.98859 0.98345 0.0
C307 C 0.47823 1.00003 0.97501 0.0
C308 C 0.49014 0.98559 0.97283 0.0
C309 C 0.47731 0.96037 0.97865 0.0
H310 H 0.53294 0.41269 0.15798 0.0
N311 N 0.54122 0.45841 0.16595 0.0
H312 H 0.5596 0.40104 0.13692 0.0
H313 H 0.57998 0.48925 0.13866 0.0
H314 H 0.60623 0.47771 0.11722 0.0
H315 H 0.59166 0.48338 0.17995 0.0
H316 H 0.60731 0.48253 0.21617 0.0
H317 H 0.51364 0.4425 0.20179 0.0
H318 H 0.52916 0.44388 0.2389 0.0
H319 H 0.49335 0.44363 0.15409 0.0
H320 H 0.56767 0.50959 0.16443 0.0
H321 H 0.4751 0.46954 0.14496 0.0
H322 H 0.55029 0.53589 0.15348 0.0
H323 H 0.42775 0.53978 0.09541 0.0
H324 H 0.42544 0.5523 0.05832 0.0
H325 H 0.50213 0.61614 0.06646 0.0
H326 H 0.50435 0.60302 0.10371 0.0
H327 H 0.49814 0.60968 0.14279 0.0
H328 H 0.48552 0.63625 0.16262 0.0
H329 H 0.40626 0.57685 0.15837 0.0
H330 H 0.4192 0.54997 0.13921 0.0
H331 H 0.45199 0.51796 0.1101 0.0
H332 H 0.47175 0.49339 0.11883 0.0
H333 H 0.52517 0.55275 0.16297 0.0
N334 N 0.46573 0.56394 0.12446 0.0
H335 H 0.50651 0.57797 0.15263 0.0
C336 C 0.55427 0.45174 0.14998 0.0
C337 C 0.54853 0.42682 0.14866 0.0
C338 C 0.56379 0.42022 0.13659 0.0
C339 C 0.58522 0.4385 0.12554 0.0
C340 C 0.5901 0.46325 0.12583 0.0
C341 C 0.57484 0.46984 0.13795 0.0
C342 C 0.55131 0.46221 0.18797 0.0
C343 C 0.57784 0.4746 0.19266 0.0
C344 C 0.58683 0.4744 0.21365 0.0
C345 C 0.56958 0.46268 0.23068 0.0
C346 C 0.54311 0.45223 0.2262 0.0
C347 C 0.53413 0.45172 0.20504 0.0
C348 C 0.53185 0.47459 0.15942 0.0
C349 C 0.50582 0.46378 0.15385 0.0
C350 C 0.49552 0.47872 0.14847 0.0
C351 C 0.51119 0.505 0.14809 0.0
C352 C 0.53745 0.51582 0.15373 0.0
C353 C 0.5476 0.50079 0.15963 0.0
C354 C 0.4662 0.57038 0.10208 0.0
C355 C 0.44423 0.55614 0.08898 0.0
C356 C 0.44299 0.56334 0.06786 0.0
C357 C 0.46367 0.58515 0.05951 0.0
C358 C 0.48593 0.59929 0.07256 0.0
C359 C 0.48726 0.59182 0.09371 0.0
C360 C 0.45962 0.57763 0.14 0.0
C361 C 0.47823 0.60196 0.14701 0.0
C362 C 0.47098 0.61718 0.15817 0.0
C363 C 0.44494 0.60853 0.16195 0.0
C364 C 0.42646 0.58387 0.15566 0.0
C365 C 0.43381 0.5685 0.14492 0.0
C366 C 0.47759 0.54978 0.13069 0.0
C367 C 0.46808 0.52573 0.12155 0.0
C368 C 0.4793 0.51156 0.12681 0.0
C369 C 0.50001 0.52079 0.14189 0.0
C370 C 0.50954 0.54501 0.15108 0.0
C371 C 0.49864 0.55946 0.14535 0.0
Mn372 Mn 0.63053 0.39354 0.40354 0.0
Mn373 Mn 0.66276 0.45537 0.41626 0.0
C374 C 0.61262 0.41035 0.4264 0.0
C375 C 0.62045 0.35257 0.40983 0.0
C376 C 0.6333 0.43424 0.37388 0.0
O377 O 0.6668 0.40382 0.39484 0.0
O378 O 0.6858 0.44511 0.4024 0.0
C379 C 0.69665 0.4534 0.45038 0.0
N380 N 0.67925 0.45998 0.44409 0.0
C381 C 0.68209 0.47923 0.47917 0.0
C382 C 0.70013 0.47277 0.486 0.0
C383 C 0.70734 0.45968 0.47157 0.0
C384 C 0.67187 0.4722 0.45796 0.0
H385 H 0.70238 0.44348 0.43932 0.0
C386 C 0.68636 0.42585 0.39525 0.0
O387 O 0.61725 0.35925 0.39067 0.0
O388 O 0.63005 0.36979 0.42511 0.0
N389 N 0.64372 0.46853 0.43009 0.0
C390 C 0.62532 0.47246 0.4213 0.0
C391 C 0.61618 0.48555 0.43352 0.0
C392 C 0.62626 0.49472 0.45456 0.0
C393 C 0.64488 0.49011 0.46343 0.0
C394 C 0.65335 0.47708 0.45042 0.0
H395 H 0.61775 0.46569 0.40508 0.0
O396 O 0.59823 0.38938 0.41579 0.0
O397 O 0.63724 0.42088 0.42354 0.0
O398 O 0.62709 0.4116 0.37718 0.0
O399 O 0.64584 0.45222 0.38769 0.0
C400 C 0.65546 0.49803 0.48463 0.0
C401 C 0.67383 0.49234 0.49258 0.0
H402 H 0.70852 0.4777 0.50229 0.0
H403 H 0.7212 0.45456 0.47673 0.0
H404 H 0.60161 0.48882 0.42666 0.0
H405 H 0.61954 0.50526 0.46376 0.0
H406 H 0.64944 0.50833 0.49503 0.0
H407 H 0.68152 0.49819 0.50902 0.0
Mn408 Mn 0.27038 0.65344 0.55839 0.0
Mn409 Mn 0.24252 0.59068 0.55185 0.0
C410 C 0.23453 0.63174 0.53583 0.0
C411 C 0.30093 0.69402 0.54902 0.0
C412 C 0.23462 0.61559 0.59138 0.0
O413 O 0.29802 0.64672 0.56981 0.0
O414 O 0.27793 0.60499 0.56401 0.0
C415 C 0.27571 0.58987 0.51708 0.0
N416 N 0.25189 0.58293 0.52446 0.0
C417 C 0.23174 0.5576 0.49216 0.0
C418 C 0.25605 0.56438 0.48424 0.0
C419 C 0.27814 0.5807 0.49671 0.0
C420 C 0.23055 0.56754 0.51246 0.0
H421 H 0.29272 0.60225 0.52671 0.0
C422 C 0.29735 0.62584 0.57044 0.0
O423 O 0.29106 0.68918 0.56825 0.0
O424 O 0.29348 0.67524 0.5354 0.0
N425 N 0.20823 0.57392 0.5401 0.0
C426 C 0.18637 0.57035 0.54956 0.0
C427 C 0.16256 0.5548 0.53903 0.0
C428 C 0.16146 0.54279 0.5191 0.0
C429 C 0.18424 0.54686 0.50962 0.0
C430 C 0.2074 0.56258 0.52085 0.0
H431 H 0.18708 0.57917 0.56509 0.0
O432 O 0.24095 0.6537 0.54389 0.0
O433 O 0.24962 0.6232 0.54087 0.0
O434 O 0.24867 0.6381 0.58538 0.0
O435 O 0.23128 0.59653 0.58028 0.0
C436 C 0.18491 0.53593 0.48949 0.0
C437 C 0.20865 0.54147 0.48068 0.0
H438 H 0.25798 0.55726 0.46857 0.0
H439 H 0.29697 0.58608 0.49068 0.0
H440 H 0.14506 0.55183 0.54639 0.0
H441 H 0.14302 0.53051 0.51121 0.0
H442 H 0.16731 0.52339 0.48055 0.0
H443 H 0.20893 0.53331 0.46501 0.0
Mn444 Mn 0.62703 0.26992 0.72344 0.0
Mn445 Mn 0.66523 0.2449 0.71965 0.0
C446 C 0.61592 0.23637 0.69978 0.0
C447 C 0.61538 0.29911 0.71382 0.0
C448 C 0.62829 0.2338 0.75637 0.0
O449 O 0.66066 0.29719 0.73723 0.0
O450 O 0.68437 0.27873 0.73387 0.0
C451 C 0.7021 0.2804 0.6883 0.0
N452 N 0.68505 0.25648 0.69393 0.0
C453 C 0.69419 0.23978 0.66186 0.0
C454 C 0.71195 0.26423 0.65575 0.0
C455 C 0.7158 0.28463 0.66897 0.0
C456 C 0.6809 0.23674 0.68116 0.0
H457 H 0.70527 0.29613 0.6985 0.0
C458 C 0.68157 0.2971 0.73978 0.0
O459 O 0.60948 0.28835 0.73251 0.0
O460 O 0.6284 0.29321 0.70078 0.0
N461 N 0.64978 0.21233 0.70607 0.0
C462 C 0.63102 0.19005 0.71371 0.0
C463 C 0.62447 0.16778 0.70216 0.0
C464 C 0.63757 0.16861 0.68313 0.0
C465 C 0.65678 0.19177 0.67557 0.0
C466 C 0.66239 0.21334 0.68771 0.0
H467 H 0.62122 0.18929 0.72855 0.0
O468 O 0.59864 0.24123 0.70671 0.0
O469 O 0.6394 0.25152 0.70667 0.0
O470 O 0.61987 0.24778 0.74987 0.0
O471 O 0.64539 0.23142 0.74639 0.0
C472 C 0.67061 0.19431 0.6565 0.0
C473 C 0.6891 0.21831 0.64952 0.0
H474 H 0.72264 0.26756 0.6409 0.0
H475 H 0.72942 0.30356 0.66434 0.0
H476 H 0.60956 0.14998 0.70804 0.0
H477 H 0.63271 0.15136 0.67445 0.0
H478 H 0.66706 0.17796 0.64696 0.0
H479 H 0.69926 0.22004 0.63462 0.0
Mn480 Mn 0.38543 0.64779 0.90259 0.0
Mn481 Mn 0.35379 0.58527 0.90946 0.0
C482 C 0.40268 0.63029 0.92527 0.0
C483 C 0.3937 0.68806 0.91115 0.0
C484 C 0.38562 0.60943 0.87019 0.0
O485 O 0.34947 0.63735 0.89176 0.0
O486 O 0.33112 0.59573 0.89523 0.0
C487 C 0.31738 0.58405 0.9421 0.0
N488 N 0.33531 0.57816 0.93597 0.0
C489 C 0.32909 0.55458 0.96834 0.0
C490 C 0.31049 0.56032 0.97499 0.0
C491 C 0.30474 0.57526 0.96187 0.0
C492 C 0.34137 0.56426 0.94869 0.0
H493 H 0.31269 0.59527 0.93193 0.0
C494 C 0.33044 0.61515 0.88954 0.0
O495 O 0.39839 0.68225 0.89204 0.0
O496 O 0.38412 0.67046 0.92534 0.0
N497 N 0.37229 0.57149 0.92301 0.0
C498 C 0.39145 0.56859 0.9147 0.0
C499 C 0.3989 0.55337 0.92537 0.0
C500 C 0.38647 0.54123 0.9444 0.0
C501 C 0.36749 0.54526 0.95313 0.0
C502 C 0.36059 0.56029 0.94158 0.0
H503 H 0.40075 0.57758 0.89993 0.0
O504 O 0.41724 0.65192 0.91668 0.0
O505 O 0.37821 0.61944 0.92052 0.0
O506 O 0.39105 0.63165 0.87529 0.0
O507 O 0.37255 0.59063 0.88213 0.0
C508 C 0.35491 0.53473 0.97268 0.0
C509 C 0.33593 0.53963 0.98042 0.0
H510 H 0.30054 0.55339 0.99013 0.0
H511 H 0.29044 0.57981 0.9669 0.0
H512 H 0.41388 0.55069 0.91875 0.0
H513 H 0.39176 0.52892 0.9522 0.0
H514 H 0.35986 0.52305 0.98201 0.0
H515 H 0.32667 0.53175 0.99563 0.0
Mn516 Mn 0.74868 0.38674 0.0653 0.0
Mn517 Mn 0.78068 0.35557 0.07115 0.0
C518 C 0.78391 0.40249 0.08891 0.0
C519 C 0.71514 0.39341 0.07423 0.0
C520 C 0.78759 0.38836 0.03277 0.0
O521 O 0.7236 0.35227 0.05209 0.0
O522 O 0.74596 0.33299 0.05825 0.0
C523 C 0.74796 0.32024 0.10461 0.0
N524 N 0.77156 0.33807 0.09787 0.0
C525 C 0.79211 0.3334 0.12968 0.0
C526 C 0.76805 0.31492 0.13696 0.0
C527 C 0.74586 0.30844 0.12443 0.0
C528 C 0.79295 0.3448 0.10999 0.0
H529 H 0.7309 0.31501 0.0949 0.0
C530 C 0.72586 0.33291 0.0514 0.0
O531 O 0.7263 0.39981 0.05557 0.0
O532 O 0.72329 0.38286 0.08763 0.0
N533 N 0.81453 0.37448 0.08363 0.0
C534 C 0.83609 0.39341 0.07475 0.0
C535 C 0.85998 0.40214 0.08525 0.0
C536 C 0.86149 0.39103 0.10451 0.0
C537 C 0.83902 0.37174 0.11346 0.0
C538 C 0.81577 0.36386 0.1023 0.0
H539 H 0.83511 0.40157 0.05965 0.0
O540 O 0.77601 0.41692 0.08141 0.0
O541 O 0.77054 0.37897 0.08284 0.0
O542 O 0.77185 0.39508 0.03894 0.0
O543 O 0.79192 0.37332 0.04341 0.0
C544 C 0.83876 0.35988 0.13292 0.0
C545 C 0.8153 0.34096 0.14117 0.0
H546 H 0.76639 0.30564 0.15215 0.0
H547 H 0.72722 0.29423 0.12995 0.0
H548 H 0.87725 0.41712 0.07832 0.0
H549 H 0.88003 0.39747 0.11229 0.0
H550 H 0.85647 0.36528 0.14177 0.0
H551 H 0.81531 0.33231 0.15634 0.0
Mn552 Mn 0.38357 0.76888 0.2278 0.0
Mn553 Mn 0.4483 0.79917 0.23195 0.0
C554 C 0.40535 0.80328 0.25117 0.0
C555 C 0.34283 0.73742 0.2378 0.0
C556 C 0.42 0.80674 0.19484 0.0
O557 O 0.39161 0.74341 0.21466 0.0
O558 O 0.43478 0.76572 0.21739 0.0
C559 C 0.45211 0.76515 0.26306 0.0
N560 N 0.45791 0.78863 0.25762 0.0
C561 C 0.4842 0.80656 0.29001 0.0
C562 C 0.47863 0.78259 0.29592 0.0
C563 C 0.46239 0.76178 0.28244 0.0
C564 C 0.47318 0.80872 0.27063 0.0
H565 H 0.43977 0.74912 0.25269 0.0
C566 C 0.41364 0.74592 0.21184 0.0
O567 O 0.34671 0.74788 0.219 0.0
O568 O 0.36271 0.74497 0.25066 0.0
N569 N 0.46451 0.83161 0.24587 0.0
C570 C 0.46679 0.85322 0.23846 0.0
C571 C 0.48223 0.87578 0.25016 0.0
C572 C 0.49541 0.87593 0.26917 0.0
C573 C 0.49254 0.85342 0.27662 0.0
C574 C 0.47694 0.83153 0.26426 0.0
H575 H 0.4569 0.85323 0.22374 0.0
O576 O 0.3824 0.79641 0.24395 0.0
O577 O 0.41493 0.78965 0.2447 0.0
O578 O 0.39749 0.7907 0.20091 0.0
O579 O 0.4404 0.81171 0.20542 0.0
C580 C 0.50453 0.85182 0.29583 0.0
C581 C 0.50016 0.82837 0.30263 0.0
H582 H 0.48661 0.77993 0.31081 0.0
H583 H 0.45793 0.74321 0.28692 0.0
H584 H 0.48418 0.89306 0.24441 0.0
H585 H 0.50763 0.89345 0.27794 0.0
H586 H 0.51696 0.86846 0.30561 0.0
H587 H 0.50913 0.82733 0.31762 0.0
C588 C 0.2059 0.65837 0.29119 0.0
C589 C 0.19221 0.6331 0.28427 0.0
C590 C 0.22992 0.67515 0.28258 0.0
C591 C 0.24079 0.66644 0.26691 0.0
C592 C 0.22698 0.6411 0.25959 0.0
C593 C 0.20279 0.6248 0.26822 0.0
C594 C 0.24391 0.70211 0.29064 0.0
C595 C 0.23801 0.63107 0.243 0.0
C596 C 0.29503 0.71482 0.23294 0.0
C597 C 0.31677 0.71835 0.24456 0.0
C598 C 0.27016 0.69781 0.23989 0.0
C599 C 0.26697 0.68374 0.25872 0.0
C600 C 0.28885 0.68676 0.27019 0.0
C601 C 0.31349 0.70418 0.26307 0.0
C602 C 0.24732 0.69536 0.2274 0.0
C603 C 0.28625 0.67183 0.29016 0.0
H604 H 0.19822 0.66497 0.30383 0.0
H605 H 0.19224 0.60546 0.26248 0.0
H606 H 0.26193 0.70642 0.29934 0.0
H607 H 0.24934 0.71482 0.27667 0.0
H608 H 0.23217 0.70627 0.30187 0.0
H609 H 0.22463 0.61101 0.23868 0.0
H610 H 0.24265 0.64203 0.22793 0.0
H611 H 0.25621 0.63315 0.24949 0.0
H612 H 0.29744 0.7258 0.21868 0.0
H613 H 0.33021 0.70672 0.27205 0.0
H614 H 0.23632 0.70098 0.23811 0.0
H615 H 0.2342 0.67557 0.22221 0.0
H616 H 0.25305 0.70712 0.21275 0.0
H617 H 0.27667 0.67653 0.30318 0.0
H618 H 0.30512 0.67549 0.29659 0.0
H619 H 0.274 0.65151 0.28629 0.0
C620 C 0.55513 0.20679 0.43541 0.0
C621 C 0.57348 0.2011 0.44318 0.0
C622 C 0.56239 0.23093 0.42842 0.0
C623 C 0.58869 0.24973 0.42866 0.0
C624 C 0.6074 0.24382 0.43537 0.0
C625 C 0.59959 0.21977 0.44281 0.0
C626 C 0.54181 0.23659 0.42165 0.0
C627 C 0.63569 0.2632 0.4355 0.0
C628 C 0.60944 0.30942 0.3975 0.0
C629 C 0.61255 0.32631 0.4144 0.0
C630 C 0.6018 0.28442 0.40186 0.0
C631 C 0.59657 0.27604 0.42353 0.0
C632 C 0.59935 0.29298 0.44058 0.0
C633 C 0.6076 0.31797 0.43583 0.0
C634 C 0.59967 0.26707 0.38334 0.0
C635 C 0.5935 0.2847 0.46385 0.0
H636 H 0.53497 0.1925 0.43513 0.0
H637 H 0.61404 0.21597 0.44911 0.0
H638 H 0.54192 0.25062 0.4332 0.0
H639 H 0.54575 0.24485 0.40528 0.0
H640 H 0.52234 0.21963 0.42132 0.0
H641 H 0.64789 0.2549 0.43878 0.0
H642 H 0.6411 0.27264 0.41963 0.0
H643 H 0.63997 0.27778 0.44824 0.0
H644 H 0.61334 0.31585 0.38092 0.0
H645 H 0.60974 0.3309 0.44892 0.0
H646 H 0.5799 0.25067 0.38218 0.0
H647 H 0.61281 0.25983 0.38651 0.0
H648 H 0.60446 0.27649 0.36743 0.0
H649 H 0.57359 0.26862 0.46483 0.0
H650 H 0.59561 0.29994 0.47505 0.0
H651 H 0.60658 0.27827 0.46964 0.0
C652 C 0.41413 0.62243 0.62944 0.0
C653 C 0.42354 0.61057 0.61591 0.0
C654 C 0.39526 0.62745 0.62186 0.0
C655 C 0.38585 0.62077 0.60012 0.0
C656 C 0.3963 0.61001 0.58604 0.0
C657 C 0.41484 0.60477 0.59418 0.0
C658 C 0.38432 0.63851 0.63752 0.0
C659 C 0.38713 0.60305 0.56264 0.0
C660 C 0.31704 0.60335 0.58785 0.0
C661 C 0.32014 0.62529 0.57876 0.0
C662 C 0.33825 0.60185 0.59511 0.0
C663 C 0.36332 0.62263 0.59282 0.0
C664 C 0.36664 0.64489 0.58368 0.0
C665 C 0.34495 0.64606 0.57696 0.0
C666 C 0.3338 0.57794 0.60519 0.0
C667 C 0.39308 0.66725 0.58065 0.0
H668 H 0.42057 0.62663 0.64634 0.0
H669 H 0.42221 0.59573 0.58368 0.0
H670 H 0.38436 0.65479 0.63029 0.0
H671 H 0.36405 0.62434 0.64081 0.0
H672 H 0.3952 0.64462 0.65328 0.0
H673 H 0.39923 0.59764 0.5532 0.0
H674 H 0.36708 0.58707 0.5621 0.0
H675 H 0.38714 0.61894 0.55457 0.0
H676 H 0.29789 0.5873 0.58945 0.0
H677 H 0.34746 0.66298 0.56977 0.0
H678 H 0.34276 0.58202 0.62174 0.0
H679 H 0.34301 0.56963 0.5953 0.0
H680 H 0.31306 0.56382 0.60646 0.0
H681 H 0.40357 0.6736 0.59654 0.0
H682 H 0.3924 0.68319 0.57336 0.0
H683 H 0.4043 0.66191 0.56993 0.0
C684 C 0.82006 0.41497 0.76484 0.0
C685 C 0.82272 0.42534 0.78583 0.0
C686 C 0.79622 0.39532 0.75707 0.0
C687 C 0.77471 0.38551 0.7708 0.0
C688 C 0.77721 0.39628 0.79186 0.0
C689 C 0.80115 0.41618 0.79906 0.0
C690 C 0.79422 0.38459 0.73438 0.0
C691 C 0.75489 0.38607 0.80715 0.0
C692 C 0.7078 0.34358 0.74607 0.0
C693 C 0.70438 0.31971 0.7491 0.0
C694 C 0.7306 0.36524 0.75307 0.0
C695 C 0.75012 0.36288 0.76374 0.0
C696 C 0.74636 0.33878 0.76746 0.0
C697 C 0.72367 0.31753 0.75989 0.0
C698 C 0.7341 0.39063 0.74851 0.0
C699 C 0.76645 0.33544 0.77921 0.0
H700 H 0.83671 0.42213 0.75457 0.0
H701 H 0.80325 0.42394 0.81542 0.0
H702 H 0.79026 0.36509 0.73532 0.0
H703 H 0.77797 0.38391 0.72519 0.0
H704 H 0.81209 0.39568 0.72512 0.0
H705 H 0.7596 0.39746 0.82249 0.0
H706 H 0.73801 0.3854 0.79914 0.0
H707 H 0.74918 0.3666 0.81132 0.0
H708 H 0.69305 0.34537 0.73753 0.0
H709 H 0.72104 0.2991 0.76239 0.0
H710 H 0.7508 0.40104 0.73783 0.0
H711 H 0.73831 0.4018 0.76389 0.0
H712 H 0.71687 0.38926 0.74047 0.0
H713 H 0.78433 0.34382 0.76972 0.0
H714 H 0.76 0.31541 0.78173 0.0
H715 H 0.77127 0.34533 0.79531 0.0
C716 C 0.44549 0.83277 0.93938 0.0
C717 C 0.42544 0.83671 0.94555 0.0
C718 C 0.44066 0.80887 0.93298 0.0
C719 C 0.4151 0.78845 0.93211 0.0
C720 C 0.39468 0.79244 0.93731 0.0
C721 C 0.4001 0.81637 0.94422 0.0
C722 C 0.46301 0.80532 0.92782 0.0
C723 C 0.3671 0.77125 0.93616 0.0
C724 C 0.40107 0.72972 0.89985 0.0
C725 C 0.39911 0.71367 0.9165 0.0
C726 C 0.40604 0.75403 0.90468 0.0
C727 C 0.40976 0.7627 0.92665 0.0
C728 C 0.40812 0.74665 0.9435 0.0
C729 C 0.40248 0.72222 0.93823 0.0
C730 C 0.40699 0.77034 0.8863 0.0
C731 C 0.41249 0.75536 0.96709 0.0
H732 H 0.46509 0.84833 0.93985 0.0
H733 H 0.3844 0.81887 0.94928 0.0
H734 H 0.46362 0.79205 0.93936 0.0
H735 H 0.46055 0.79701 0.91119 0.0
H736 H 0.48171 0.82319 0.92887 0.0
H737 H 0.35333 0.77788 0.93882 0.0
H738 H 0.36274 0.76139 0.92006 0.0
H739 H 0.36397 0.75739 0.94872 0.0
H740 H 0.3983 0.72311 0.88302 0.0
H741 H 0.40116 0.70992 0.95113 0.0
H742 H 0.42604 0.78775 0.88621 0.0
H743 H 0.39243 0.77597 0.88876 0.0
H744 H 0.40336 0.76069 0.87013 0.0
H745 H 0.43164 0.77252 0.96929 0.0
H746 H 0.4114 0.74089 0.97817 0.0
H747 H 0.39795 0.76027 0.97203 0.0
C748 C 0.6301 0.4483 0.11847 0.0
C749 C 0.60355 0.43217 0.11539 0.0
C750 C 0.64773 0.44179 0.11064 0.0
C751 C 0.63864 0.41853 0.09949 0.0
C752 C 0.61192 0.4024 0.09584 0.0
C753 C 0.59469 0.40941 0.10384 0.0
C754 C 0.67608 0.45952 0.11487 0.0
C755 C 0.6015 0.3775 0.08393 0.0
C756 C 0.68694 0.41109 0.0658 0.0
C757 C 0.69457 0.39863 0.0802 0.0
C758 C 0.66837 0.41724 0.07167 0.0
C759 C 0.65714 0.41076 0.09242 0.0
C760 C 0.66438 0.39772 0.10685 0.0
C761 C 0.68302 0.39183 0.10056 0.0
C762 C 0.66116 0.43116 0.05585 0.0
C763 C 0.65282 0.39043 0.12911 0.0
H764 H 0.63714 0.46571 0.12769 0.0
H765 H 0.57423 0.39697 0.10119 0.0
H766 H 0.68389 0.45054 0.12549 0.0
H767 H 0.68658 0.4638 0.09935 0.0
H768 H 0.68008 0.4774 0.12286 0.0
H769 H 0.58031 0.36763 0.08158 0.0
H770 H 0.61044 0.38021 0.06775 0.0
H771 H 0.6065 0.36532 0.09323 0.0
H772 H 0.69575 0.41639 0.05001 0.0
H773 H 0.68876 0.38215 0.11176 0.0
H774 H 0.6666 0.44985 0.06291 0.0
H775 H 0.64007 0.42089 0.05292 0.0
H776 H 0.67074 0.43378 0.03996 0.0
H777 H 0.6577 0.40751 0.13898 0.0
H778 H 0.65975 0.37949 0.13804 0.0
H779 H 0.63158 0.37913 0.12759 0.0
C780 C 0.40953 0.82745 0.50773 0.0
C781 C 0.40075 0.84453 0.50687 0.0
C782 C 0.39432 0.80349 0.51615 0.0
C783 C 0.36932 0.796 0.52331 0.0
C784 C 0.36041 0.81316 0.52288 0.0
C785 C 0.37634 0.8373 0.51497 0.0
C786 C 0.40475 0.78593 0.51675 0.0
C787 C 0.33371 0.80574 0.53008 0.0
C788 C 0.3209 0.72621 0.52057 0.0
C789 C 0.31899 0.71994 0.54255 0.0
C790 C 0.33695 0.75097 0.51416 0.0
C791 C 0.352 0.76977 0.53006 0.0
C792 C 0.35055 0.76342 0.55226 0.0
C793 C 0.33375 0.73861 0.55829 0.0
C794 C 0.33751 0.75706 0.49039 0.0
C795 C 0.36687 0.78278 0.56959 0.0
H796 H 0.42805 0.83241 0.50118 0.0
H797 H 0.36946 0.85038 0.51488 0.0
H798 H 0.40221 0.77777 0.53312 0.0
H799 H 0.39392 0.77018 0.50488 0.0
H800 H 0.42544 0.79544 0.51276 0.0
H801 H 0.32988 0.82145 0.52923 0.0
H802 H 0.3193 0.78998 0.51959 0.0
H803 H 0.33085 0.79911 0.54704 0.0
H804 H 0.30932 0.71185 0.5084 0.0
H805 H 0.33238 0.73375 0.57529 0.0
H806 H 0.35717 0.7646 0.48413 0.0
H807 H 0.33239 0.77177 0.48846 0.0
H808 H 0.32404 0.74043 0.48018 0.0
H809 H 0.38747 0.79146 0.56558 0.0
H810 H 0.36399 0.77466 0.58603 0.0
H811 H 0.36227 0.79796 0.57013 0.0
C812 C 0.57524 0.3978 0.67381 0.0
C813 C 0.54829 0.38587 0.6731 0.0
C814 C 0.58779 0.38561 0.68181 0.0
C815 C 0.5731 0.36061 0.68872 0.0
C816 C 0.54599 0.34868 0.6886 0.0
C817 C 0.53397 0.36157 0.68117 0.0
C818 C 0.61677 0.39924 0.68227 0.0
C819 C 0.52957 0.32191 0.69556 0.0
C820 C 0.60192 0.31858 0.68531 0.0
C821 C 0.60653 0.31638 0.70733 0.0
C822 C 0.5913 0.33315 0.67902 0.0
C823 C 0.58591 0.34643 0.6951 0.0
C824 C 0.59159 0.34511 0.7173 0.0
C825 C 0.60144 0.32975 0.72318 0.0
C826 C 0.58495 0.33356 0.65524 0.0
C827 C 0.58692 0.35962 0.73485 0.0
H828 H 0.58664 0.41641 0.66743 0.0
H829 H 0.51322 0.35233 0.68133 0.0
H830 H 0.62403 0.39757 0.69845 0.0
H831 H 0.6235 0.39062 0.67001 0.0
H832 H 0.62538 0.41941 0.67871 0.0
H833 H 0.50873 0.31538 0.69463 0.0
H834 H 0.53325 0.3094 0.68498 0.0
H835 H 0.53467 0.31995 0.7125 0.0
H836 H 0.60567 0.30811 0.67305 0.0
H837 H 0.60519 0.32822 0.74022 0.0
H838 H 0.59479 0.35309 0.64956 0.0
H839 H 0.56399 0.32585 0.65304 0.0
H840 H 0.59064 0.32246 0.64475 0.0
H841 H 0.59609 0.37964 0.7306 0.0
H842 H 0.59449 0.35834 0.75103 0.0
H843 H 0.56602 0.35234 0.73613 0.0
C844 C 0.20527 0.59666 0.82641 0.0
C845 C 0.18322 0.58078 0.83801 0.0
C846 C 0.22986 0.60447 0.83503 0.0
C847 C 0.2324 0.59658 0.85594 0.0
C848 C 0.21019 0.58159 0.86818 0.0
C849 C 0.1858 0.57357 0.85893 0.0
C850 C 0.25298 0.61997 0.82127 0.0
C851 C 0.21214 0.57326 0.89071 0.0
C852 C 0.28972 0.58915 0.8683 0.0
C853 C 0.30601 0.61125 0.88022 0.0
C854 C 0.26598 0.58446 0.85996 0.0
C855 C 0.25801 0.60201 0.86412 0.0
C856 C 0.2744 0.62441 0.87613 0.0
C857 C 0.29841 0.62893 0.88382 0.0
C858 C 0.24938 0.56065 0.84675 0.0
C859 C 0.26632 0.6433 0.88126 0.0
H860 H 0.20324 0.60198 0.81012 0.0
H861 H 0.16871 0.56137 0.86791 0.0
H862 H 0.26757 0.63679 0.8306 0.0
H863 H 0.26202 0.60882 0.81678 0.0
H864 H 0.24789 0.62609 0.80607 0.0
H865 H 0.19338 0.56411 0.89899 0.0
H866 H 0.21905 0.55978 0.88963 0.0
H867 H 0.22629 0.5895 0.90092 0.0
H868 H 0.29565 0.57554 0.86534 0.0
H869 H 0.3109 0.64593 0.8932 0.0
H870 H 0.24452 0.56514 0.83063 0.0
H871 H 0.23106 0.54884 0.85516 0.0
H872 H 0.25893 0.54953 0.84414 0.0
H873 H 0.26184 0.64973 0.86599 0.0
H874 H 0.28138 0.65988 0.89061 0.0
H875 H 0.24854 0.63439 0.8909 0.0
C876 C 0.60281 0.19798 0.02201 0.0
C877 C 0.60401 0.19082 0.00046 0.0
C878 C 0.62165 0.22143 0.03069 0.0
C879 C 0.64206 0.23814 0.01746 0.0
C880 C 0.64313 0.23115 0.9956 0.0
C881 C 0.62413 0.20759 0.98739 0.0
C882 C 0.61997 0.22818 0.05412 0.0
C883 C 0.6645 0.24847 0.98092 0.0
C884 C 0.68205 0.30735 0.03357 0.0
C885 C 0.70411 0.30876 0.0428 0.0
C886 C 0.66152 0.28444 0.02548 0.0
C887 C 0.66306 0.26243 0.0267 0.0
C888 C 0.68511 0.26368 0.03618 0.0
C889 C 0.70532 0.28676 0.04406 0.0
C890 C 0.63831 0.2838 0.01542 0.0
C891 C 0.68748 0.24065 0.03783 0.0
H892 H 0.58735 0.18506 0.03219 0.0
H893 H 0.62486 0.2024 0.97057 0.0
H894 H 0.63697 0.23085 0.06355 0.0
H895 H 0.62014 0.24615 0.05508 0.0
H896 H 0.60236 0.21353 0.06198 0.0
H897 H 0.66203 0.24058 0.96409 0.0
H898 H 0.66536 0.26675 0.98016 0.0
H899 H 0.68323 0.25216 0.98768 0.0
H900 H 0.68085 0.32416 0.03255 0.0
H901 H 0.72212 0.28748 0.05128 0.0
H902 H 0.6207 0.27015 0.02388 0.0
H903 H 0.63597 0.27746 0.99811 0.0
H904 H 0.63979 0.30241 0.01621 0.0
H905 H 0.67105 0.22597 0.04682 0.0
H906 H 0.70559 0.24466 0.04623 0.0
H907 H 0.68688 0.23283 0.02129 0.0
C908 C 0.42028 0.63047 0.15766 0.0
C909 C 0.43699 0.62607 0.17024 0.0
C910 C 0.41456 0.64893 0.164 0.0
C911 C 0.42538 0.6629 0.18363 0.0
C912 C 0.44145 0.65778 0.19684 0.0
C913 C 0.44738 0.63964 0.18981 0.0
C914 C 0.39786 0.65423 0.14921 0.0
C915 C 0.45289 0.67188 0.21813 0.0
C916 C 0.43619 0.72856 0.19045 0.0
C917 C 0.41519 0.72443 0.20298 0.0
C918 C 0.43923 0.70857 0.18346 0.0
C919 C 0.42124 0.68393 0.1897 0.0
C920 C 0.39981 0.6796 0.20214 0.0
C921 C 0.39685 0.6999 0.20839 0.0
C922 C 0.46195 0.7139 0.16969 0.0
C923 C 0.38054 0.65368 0.20951 0.0
H924 H 0.41254 0.62016 0.14237 0.0
H925 H 0.46026 0.63615 0.19951 0.0
H926 H 0.38164 0.65322 0.15836 0.0
H927 H 0.40925 0.67352 0.14307 0.0
H928 H 0.38997 0.6409 0.13503 0.0
H929 H 0.46305 0.66412 0.22737 0.0
H930 H 0.46673 0.69184 0.21495 0.0
H931 H 0.43762 0.67128 0.22844 0.0
H932 H 0.45032 0.74751 0.18616 0.0
H933 H 0.38078 0.69671 0.21832 0.0
H934 H 0.45538 0.70192 0.15465 0.0
H935 H 0.47491 0.70931 0.17879 0.0
H936 H 0.47315 0.73382 0.165 0.0
H937 H 0.37238 0.64051 0.19529 0.0
H938 H 0.36455 0.65335 0.21856 0.0
H939 H 0.39028 0.64666 0.22023 0.0
C940 C 0.81192 0.45929 0.32964 0.0
C941 C 0.82946 0.45474 0.34079 0.0
C942 C 0.78853 0.45368 0.33889 0.0
C943 C 0.78249 0.44331 0.35985 0.0
C944 C 0.80003 0.43854 0.37118 0.0
C945 C 0.82329 0.44425 0.36148 0.0
C946 C 0.77028 0.45891 0.32622 0.0
C947 C 0.79431 0.42764 0.39362 0.0
C948 C 0.73383 0.45279 0.39066 0.0
C949 C 0.71111 0.42969 0.38704 0.0
C950 C 0.75727 0.45721 0.38238 0.0
C951 C 0.75809 0.43813 0.37005 0.0
C952 C 0.73539 0.4146 0.36667 0.0
C953 C 0.71217 0.41063 0.37526 0.0
C954 C 0.78109 0.4825 0.38645 0.0
C955 C 0.7355 0.39384 0.35355 0.0
H956 H 0.81635 0.46693 0.31347 0.0
H957 H 0.83683 0.44082 0.37021 0.0
H958 H 0.7514 0.44145 0.32399 0.0
H959 H 0.76699 0.47253 0.33546 0.0
H960 H 0.77764 0.46657 0.30993 0.0
H961 H 0.80972 0.42459 0.40007 0.0
H962 H 0.79204 0.44039 0.40508 0.0
H963 H 0.77593 0.4095 0.39322 0.0
H964 H 0.73334 0.46759 0.39991 0.0
H965 H 0.69476 0.39272 0.37237 0.0
H966 H 0.78832 0.49193 0.37075 0.0
H967 H 0.79652 0.48022 0.39396 0.0
H968 H 0.77748 0.49488 0.39728 0.0
H969 H 0.74089 0.39979 0.33654 0.0
H970 H 0.7165 0.37628 0.35325 0.0
H971 H 0.75008 0.38984 0.36036 0.0
C972 C 0.15671 0.61466 0.42729 0.0
C973 C 0.13727 0.59007 0.42204 0.0
C974 C 0.17002 0.6206 0.44741 0.0
C975 C 0.16382 0.60146 0.46256 0.0
C976 C 0.1431 0.57699 0.45787 0.0
C977 C 0.13014 0.57157 0.43765 0.0
C978 C 0.19156 0.64711 0.45198 0.0
C979 C 0.13554 0.55604 0.4735 0.0
C980 C 0.22016 0.61267 0.49868 0.0
C981 C 0.2148 0.62072 0.5183 0.0
C982 C 0.203 0.60508 0.48079 0.0
C983 C 0.18049 0.60668 0.48228 0.0
C984 C 0.17497 0.61478 0.50213 0.0
C985 C 0.19224 0.62172 0.51993 0.0
C986 C 0.20938 0.59611 0.46007 0.0
C987 C 0.1514 0.61709 0.50429 0.0
H988 H 0.16241 0.62905 0.41528 0.0
H989 H 0.11482 0.55261 0.43383 0.0
H990 H 0.18954 0.65369 0.46836 0.0
H991 H 0.21023 0.64773 0.45192 0.0
H992 H 0.19208 0.66029 0.43969 0.0
H993 H 0.11588 0.54008 0.4699 0.0
H994 H 0.14916 0.54917 0.47197 0.0
H995 H 0.13649 0.56259 0.49059 0.0
H996 H 0.23819 0.61304 0.4971 0.0
H997 H 0.18844 0.62854 0.53499 0.0
H998 H 0.21241 0.60916 0.44677 0.0
H999 H 0.1931 0.57744 0.45498 0.0
H1000 H 0.22693 0.59475 0.46195 0.0
H1001 H 0.15277 0.63168 0.49324 0.0
H1002 H 0.14905 0.62217 0.5212 0.0
H1003 H 0.13394 0.59923 0.4993 0.0
C1004 C 0.58261 0.14259 0.59606 0.0
C1005 C 0.56953 0.14904 0.58097 0.0
C1006 C 0.58954 0.15411 0.61685 0.0
C1007 C 0.58369 0.17288 0.62254 0.0
C1008 C 0.56971 0.17884 0.6076 0.0
C1009 C 0.56274 0.1668 0.58702 0.0
C1010 C 0.604 0.14687 0.63232 0.0
C1011 C 0.56285 0.19856 0.61307 0.0
C1012 C 0.58636 0.19552 0.68099 0.0
C1013 C 0.60949 0.21849 0.68135 0.0
C1014 C 0.5782 0.17983 0.66226 0.0
C1015 C 0.59348 0.18749 0.64345 0.0
C1016 C 0.61725 0.21038 0.64404 0.0
C1017 C 0.62472 0.22581 0.66286 0.0
C1018 C 0.55273 0.15563 0.66228 0.0
C1019 C 0.6343 0.21909 0.62447 0.0
H1020 H 0.58761 0.12864 0.59151 0.0
H1021 H 0.55278 0.17197 0.57534 0.0
H1022 H 0.59639 0.14468 0.649 0.0
H1023 H 0.6031 0.12919 0.62708 0.0
H1024 H 0.62437 0.16199 0.63297 0.0
H1025 H 0.55048 0.1998 0.60026 0.0
H1026 H 0.55271 0.19444 0.62876 0.0
H1027 H 0.58064 0.21712 0.61504 0.0
H1028 H 0.57437 0.19013 0.69521 0.0
H1029 H 0.64209 0.24402 0.66287 0.0
H1030 H 0.55493 0.13985 0.65629 0.0
H1031 H 0.53899 0.15694 0.65104 0.0
H1032 H 0.54433 0.15127 0.67876 0.0
H1033 H 0.6383 0.20433 0.61883 0.0
H1034 H 0.65286 0.23657 0.62804 0.0
H1035 H 0.62435 0.22253 0.61087 0.0
C1036 C 0.4564 0.60241 0.76327 0.0
C1037 C 0.43998 0.58164 0.74979 0.0
C1038 C 0.448 0.60719 0.78303 0.0
C1039 C 0.42226 0.59139 0.78916 0.0
C1040 C 0.40545 0.57061 0.77561 0.0
C1041 C 0.41463 0.5657 0.75636 0.0
C1042 C 0.46673 0.62912 0.79737 0.0
C1043 C 0.37768 0.55363 0.78138 0.0
C1044 C 0.40413 0.58826 0.84846 0.0
C1045 C 0.3952 0.60514 0.8495 0.0
C1046 C 0.41357 0.58408 0.82905 0.0
C1047 C 0.41304 0.5963 0.80998 0.0
C1048 C 0.4036 0.61307 0.81082 0.0
C1049 C 0.39524 0.61766 0.83072 0.0
C1050 C 0.42434 0.56678 0.82903 0.0
C1051 C 0.40191 0.62578 0.79065 0.0
H1052 H 0.47582 0.61528 0.7583 0.0
H1053 H 0.40182 0.54929 0.74648 0.0
H1054 H 0.46018 0.64284 0.79909 0.0
H1055 H 0.46753 0.62265 0.81394 0.0
H1056 H 0.48642 0.63886 0.79077 0.0
H1057 H 0.3667 0.53921 0.76844 0.0
H1058 H 0.3765 0.54401 0.79675 0.0
H1059 H 0.3683 0.56485 0.78415 0.0
H1060 H 0.40423 0.57861 0.86293 0.0
H1061 H 0.38808 0.63054 0.83147 0.0
H1062 H 0.44425 0.5767 0.82294 0.0
H1063 H 0.41277 0.55048 0.81785 0.0
H1064 H 0.42454 0.55975 0.8455 0.0
H1065 H 0.4213 0.63764 0.78394 0.0
H1066 H 0.39337 0.63768 0.79393 0.0
H1067 H 0.39006 0.61149 0.7779 0.0
C1068 C 0.88294 0.46394 0.93641 0.0
C1069 C 0.87323 0.45145 0.91625 0.0
C1070 C 0.86943 0.45408 0.95566 0.0
C1071 C 0.84568 0.43118 0.95471 0.0
C1072 C 0.83582 0.41848 0.93442 0.0
C1073 C 0.84966 0.42879 0.91547 0.0
C1074 C 0.88054 0.46815 0.97702 0.0
C1075 C 0.81054 0.39405 0.93272 0.0
C1076 C 0.82068 0.39317 0.00584 0.0
C1077 C 0.80222 0.39911 0.01262 0.0
C1078 C 0.8351 0.40364 0.98714 0.0
C1079 C 0.83101 0.42047 0.97488 0.0
C1080 C 0.81249 0.4266 0.9816 0.0
C1081 C 0.79832 0.41586 0.00036 0.0
C1082 C 0.85464 0.3966 0.98046 0.0
C1083 C 0.80759 0.44448 0.96892 0.0
H1084 H 0.90122 0.48135 0.93717 0.0
H1085 H 0.84174 0.41927 0.89991 0.0
H1086 H 0.86691 0.47291 0.98458 0.0
H1087 H 0.88342 0.45615 0.98853 0.0
H1088 H 0.8992 0.48571 0.97499 0.0
H1089 H 0.80572 0.38636 0.91574 0.0
H1090 H 0.81118 0.37996 0.94318 0.0
H1091 H 0.79485 0.39681 0.93867 0.0
H1092 H 0.82399 0.38037 0.01518 0.0
H1093 H 0.78419 0.42067 0.00543 0.0
H1094 H 0.87391 0.41366 0.97957 0.0
H1095 H 0.84966 0.38759 0.96397 0.0
H1096 H 0.85581 0.38355 0.99195 0.0
H1097 H 0.82563 0.46279 0.96778 0.0
H1098 H 0.79279 0.44761 0.97649 0.0
H1099 H 0.80114 0.43705 0.95205 0.0
C1100 C 0.42263 0.89054 0.09584 0.0
C1101 C 0.4356 0.88803 0.07808 0.0
C1102 C 0.42037 0.87797 0.11524 0.0
C1103 C 0.43072 0.862 0.11662 0.0
C1104 C 0.44378 0.85939 0.09865 0.0
C1105 C 0.44632 0.87269 0.07968 0.0
C1106 C 0.40687 0.8817 0.13423 0.0
C1107 C 0.45458 0.84214 0.09929 0.0
C1108 C 0.4447 0.84424 0.17181 0.0
C1109 C 0.42268 0.82077 0.17478 0.0
C1110 C 0.44732 0.85807 0.15318 0.0
C1111 C 0.42779 0.84789 0.13679 0.0
C1112 C 0.40566 0.82406 0.13953 0.0
C1113 C 0.40322 0.81093 0.15862 0.0
C1114 C 0.47093 0.88364 0.15109 0.0
C1115 C 0.38471 0.81231 0.12218 0.0
H1116 H 0.41436 0.90244 0.09453 0.0
H1117 H 0.45603 0.87051 0.06579 0.0
H1118 H 0.38957 0.86365 0.13815 0.0
H1119 H 0.41968 0.88815 0.1489 0.0
H1120 H 0.40089 0.89558 0.13084 0.0
H1121 H 0.46392 0.842 0.08383 0.0
H1122 H 0.4689 0.84792 0.11283 0.0
H1123 H 0.43899 0.82275 0.10243 0.0
H1124 H 0.4598 0.85204 0.18422 0.0
H1125 H 0.38625 0.79273 0.16073 0.0
H1126 H 0.46522 0.89785 0.14855 0.0
H1127 H 0.48188 0.88378 0.13665 0.0
H1128 H 0.48382 0.88932 0.1657 0.0
H1129 H 0.37648 0.82447 0.11932 0.0
H1130 H 0.36895 0.79347 0.12664 0.0
H1131 H 0.39285 0.81056 0.10657 0.0
C1132 C 0.56392 0.43881 0.26496 0.0
C1133 C 0.57899 0.46008 0.25255 0.0
C1134 C 0.57281 0.43547 0.28508 0.0
C1135 C 0.59784 0.45328 0.29269 0.0
C1136 C 0.61326 0.47474 0.28036 0.0
C1137 C 0.60347 0.47813 0.2607 0.0
C1138 C 0.55548 0.41268 0.29807 0.0
C1139 C 0.6403 0.49386 0.2877 0.0
C1140 C 0.61447 0.45531 0.35278 0.0
C1141 C 0.62512 0.43984 0.35307 0.0
C1142 C 0.60536 0.45974 0.33325 0.0
C1143 C 0.60793 0.44924 0.31346 0.0
C1144 C 0.61946 0.43424 0.31359 0.0
C1145 C 0.62746 0.42931 0.33349 0.0
C1146 C 0.59231 0.47504 0.33391 0.0
C1147 C 0.62333 0.4234 0.29274 0.0
H1148 H 0.54526 0.42433 0.25882 0.0
H1149 H 0.61519 0.49493 0.25168 0.0
H1150 H 0.56371 0.4003 0.29905 0.0
H1151 H 0.55404 0.41839 0.31498 0.0
H1152 H 0.53583 0.40171 0.29075 0.0
H1153 H 0.65007 0.50915 0.27593 0.0
H1154 H 0.64008 0.50224 0.30374 0.0
H1155 H 0.65178 0.48461 0.28981 0.0
H1156 H 0.61246 0.46331 0.3679 0.0
H1157 H 0.63591 0.4175 0.33373 0.0
H1158 H 0.57233 0.46359 0.32741 0.0
H1159 H 0.6024 0.49148 0.32338 0.0
H1160 H 0.59173 0.48176 0.35067 0.0
H1161 H 0.60446 0.40985 0.28513 0.0
H1162 H 0.63426 0.41368 0.2955 0.0
H1163 H 0.6338 0.43849 0.28095 0.0
C1164 C 0.42009 0.87361 0.36258 0.0
C1165 C 0.44477 0.89327 0.36833 0.0
C1166 C 0.41515 0.86089 0.34237 0.0
C1167 C 0.43537 0.86808 0.32752 0.0
C1168 C 0.46008 0.88856 0.33293 0.0
C1169 C 0.46453 0.90079 0.35334 0.0
C1170 C 0.38845 0.83929 0.33719 0.0
C1171 C 0.48205 0.89706 0.31755 0.0
C1172 C 0.42553 0.8159 0.28818 0.0
C1173 C 0.41643 0.82166 0.26943 0.0
C1174 C 0.43316 0.83166 0.30681 0.0
C1175 C 0.43076 0.85324 0.3069 0.0
C1176 C 0.4219 0.85931 0.28784 0.0
C1177 C 0.41471 0.84334 0.26934 0.0
C1178 C 0.44282 0.82466 0.32667 0.0
C1179 C 0.41894 0.88205 0.2873 0.0
H1180 H 0.40479 0.86759 0.3742 0.0
H1181 H 0.48357 0.91618 0.35764 0.0
H1182 H 0.38141 0.8421 0.32135 0.0
H1183 H 0.38888 0.82164 0.33566 0.0
H1184 H 0.37455 0.83701 0.34993 0.0
H1185 H 0.49889 0.91537 0.32273 0.0
H1186 H 0.48806 0.88291 0.31703 0.0
H1187 H 0.476 0.89862 0.30084 0.0
H1188 H 0.42587 0.7986 0.28852 0.0
H1189 H 0.40719 0.84749 0.25492 0.0
H1190 H 0.44506 0.80818 0.32347 0.0
H1191 H 0.42923 0.82028 0.34017 0.0
H1192 H 0.46164 0.84067 0.33225 0.0
H1193 H 0.40357 0.87956 0.29852 0.0
H1194 H 0.41395 0.88534 0.27071 0.0
H1195 H 0.43694 0.89898 0.29304 0.0
C1196 C 0.55504 0.44992 0.52694 0.0
C1197 C 0.53953 0.42811 0.53832 0.0
C1198 C 0.56619 0.44897 0.5073 0.0
C1199 C 0.56238 0.42575 0.49925 0.0
C1200 C 0.54606 0.40354 0.51045 0.0
C1201 C 0.53461 0.40497 0.52979 0.0
C1202 C 0.5828 0.47295 0.4957 0.0
C1203 C 0.54149 0.37839 0.50246 0.0
C1204 C 0.57785 0.41636 0.4412 0.0
C1205 C 0.60151 0.41772 0.44425 0.0
C1206 C 0.56535 0.42005 0.45881 0.0
C1207 C 0.57663 0.42474 0.47997 0.0
C1208 C 0.60087 0.42671 0.48297 0.0
C1209 C 0.61285 0.42285 0.46509 0.0
C1210 C 0.53968 0.41804 0.45489 0.0
C1211 C 0.6137 0.43192 0.50519 0.0
H1212 H 0.55865 0.46778 0.53356 0.0
H1213 H 0.52266 0.38813 0.53874 0.0
H1214 H 0.60315 0.47828 0.49804 0.0
H1215 H 0.57825 0.47035 0.47797 0.0
H1216 H 0.58048 0.48857 0.50201 0.0
H1217 H 0.52728 0.36279 0.51241 0.0
H1218 H 0.53453 0.37483 0.48526 0.0
H1219 H 0.55983 0.37837 0.50301 0.0
H1220 H 0.56895 0.41199 0.42508 0.0
H1221 H 0.63071 0.42301 0.46755 0.0
H1222 H 0.53972 0.43458 0.46216 0.0
H1223 H 0.52446 0.40124 0.46296 0.0
H1224 H 0.53465 0.41658 0.43727 0.0
H1225 H 0.61548 0.4492 0.51258 0.0
H1226 H 0.63315 0.43421 0.50453 0.0
H1227 H 0.60175 0.41629 0.5161 0.0
C1228 C 0.12958 0.56349 0.68278 0.0
C1229 C 0.13893 0.57474 0.70335 0.0
C1230 C 0.14529 0.57202 0.66452 0.0
C1231 C 0.17115 0.5917 0.66713 0.0
C1232 C 0.18049 0.60334 0.68789 0.0
C1233 C 0.16412 0.59488 0.70575 0.0
C1234 C 0.13444 0.55954 0.64255 0.0
C1235 C 0.20808 0.62392 0.69146 0.0
C1236 C 0.21672 0.59152 0.62512 0.0
C1237 C 0.2202 0.61097 0.61168 0.0
C1238 C 0.20151 0.58566 0.64365 0.0
C1239 C 0.18877 0.59903 0.6484 0.0
C1240 C 0.19236 0.61881 0.63491 0.0
C1241 C 0.20839 0.62481 0.61686 0.0
C1242 C 0.1988 0.56493 0.65798 0.0
C1243 C 0.17857 0.63303 0.6391 0.0
H1244 H 0.11006 0.54786 0.68108 0.0
H1245 H 0.17133 0.60328 0.7218 0.0
H1246 H 0.1383 0.57385 0.63021 0.0
H1247 H 0.14397 0.54915 0.63714 0.0
H1248 H 0.11341 0.54622 0.64291 0.0
H1249 H 0.21199 0.63176 0.7084 0.0
H1250 H 0.221 0.61648 0.68802 0.0
H1251 H 0.21301 0.63932 0.68006 0.0
H1252 H 0.22595 0.58088 0.62112 0.0
H1253 H 0.21081 0.63964 0.60627 0.0
H1254 H 0.17862 0.54921 0.65737 0.0
H1255 H 0.20353 0.57176 0.67518 0.0
H1256 H 0.21144 0.55764 0.65293 0.0
H1257 H 0.15751 0.61996 0.63785 0.0
H1258 H 0.18388 0.64827 0.62738 0.0
H1259 H 0.18297 0.64128 0.65586 0.0
C1260 C 0.57589 0.17368 0.8719 0.0
C1261 C 0.56135 0.14746 0.87076 0.0
C1262 C 0.58735 0.18756 0.85333 0.0
C1263 C 0.58381 0.17491 0.83303 0.0
C1264 C 0.56918 0.14838 0.83179 0.0
C1265 C 0.55833 0.13493 0.85077 0.0
C1266 C 0.60323 0.21576 0.85543 0.0
C1267 C 0.56463 0.13427 0.81037 0.0
C1268 C 0.59255 0.21309 0.78274 0.0
C1269 C 0.61706 0.21888 0.77607 0.0
C1270 C 0.58129 0.19834 0.80097 0.0
C1271 C 0.59507 0.18957 0.81308 0.0
C1272 C 0.61988 0.19547 0.80652 0.0
C1273 C 0.63047 0.20984 0.78796 0.0
C1274 C 0.55463 0.19211 0.80724 0.0
C1275 C 0.63537 0.18689 0.81927 0.0
H1276 H 0.5785 0.18333 0.88745 0.0
H1277 H 0.54702 0.11465 0.84992 0.0
H1278 H 0.62279 0.22246 0.84924 0.0
H1279 H 0.59444 0.22426 0.84538 0.0
H1280 H 0.60494 0.22263 0.87255 0.0
H1281 H 0.55287 0.11367 0.81218 0.0
H1282 H 0.55468 0.14011 0.79866 0.0
H1283 H 0.58323 0.13885 0.80318 0.0
H1284 H 0.58193 0.21974 0.77349 0.0
H1285 H 0.64944 0.2143 0.78294 0.0
H1286 H 0.55523 0.20008 0.8237 0.0
H1287 H 0.54185 0.17151 0.80799 0.0
H1288 H 0.54606 0.19948 0.79558 0.0
H1289 H 0.63853 0.19445 0.83625 0.0
H1290 H 0.65434 0.19299 0.81198 0.0
H1291 H 0.62466 0.16617 0.82011 0.0
C1292 C 0.46605 0.61778 0.03452 0.0
C1293 C 0.46103 0.59336 0.0376 0.0
C1294 C 0.45923 0.6243 0.01479 0.0
C1295 C 0.44709 0.60593 0.99786 0.0
C1296 C 0.44395 0.58189 0.00042 0.0
C1297 C 0.45082 0.57588 0.02027 0.0
C1298 C 0.46372 0.65042 0.01251 0.0
C1299 C 0.4314 0.56159 0.98311 0.0
C1300 C 0.39962 0.61311 0.96219 0.0
C1301 C 0.41318 0.622 0.94293 0.0
C1302 C 0.41015 0.60706 0.97988 0.0
C1303 C 0.43536 0.61107 0.97863 0.0
C1304 C 0.4493 0.62039 0.95927 0.0
C1305 C 0.43802 0.62575 0.94163 0.0
C1306 C 0.39439 0.59665 1e-05 0.0
C1307 C 0.47622 0.625 0.95735 0.0
H1308 H 0.47398 0.63138 0.04792 0.0
H1309 H 0.44727 0.55707 0.02251 0.0
H1310 H 0.47269 0.6582 0.99669 0.0
H1311 H 0.44505 0.64979 0.01274 0.0
H1312 H 0.47621 0.6633 0.02588 0.0
H1313 H 0.43839 0.54814 0.98403 0.0
H1314 H 0.41048 0.55109 0.986 0.0
H1315 H 0.43479 0.56923 0.96651 0.0
H1316 H 0.38092 0.61135 0.96358 0.0
H1317 H 0.44872 0.63314 0.92686 0.0
H1318 H 0.4041 0.60958 0.01416 0.0
H1319 H 0.3927 0.57845 0.00384 0.0
H1320 H 0.37478 0.59381 0.99806 0.0
H1321 H 0.48881 0.63852 0.97029 0.0
H1322 H 0.48455 0.63245 0.94124 0.0
H1323 H 0.47621 0.6073 0.95977 0.0
C1324 C 0.88778 0.44819 0.18722 0.0
C1325 C 0.88026 0.4592 0.20337 0.0
C1326 C 0.8752 0.44118 0.16682 0.0
C1327 C 0.85406 0.44454 0.16273 0.0
C1328 C 0.84734 0.45696 0.17864 0.0
C1329 C 0.86066 0.4643 0.19878 0.0
C1330 C 0.88364 0.42876 0.15032 0.0
C1331 C 0.82521 0.46131 0.17484 0.0
C1332 C 0.82516 0.43599 0.10564 0.0
C1333 C 0.80347 0.41198 0.10662 0.0
C1334 C 0.84229 0.44665 0.12355 0.0
C1335 C 0.83743 0.43298 0.14289 0.0
C1336 C 0.81575 0.40849 0.14374 0.0
C1337 C 0.79877 0.39851 0.12573 0.0
C1338 C 0.8651 0.4728 0.12201 0.0
C1339 C 0.81008 0.3931 0.1639 0.0
H1340 H 0.90311 0.44445 0.19078 0.0
H1341 H 0.85486 0.47281 0.21136 0.0
H1342 H 0.87101 0.40825 0.15142 0.0
H1343 H 0.88206 0.43422 0.13354 0.0
H1344 H 0.90373 0.43341 0.15347 0.0
H1345 H 0.82412 0.47343 0.18783 0.0
H1346 H 0.82699 0.47013 0.15889 0.0
H1347 H 0.8069 0.44308 0.17435 0.0
H1348 H 0.82846 0.44659 0.09096 0.0
H1349 H 0.78139 0.38041 0.12681 0.0
H1350 H 0.88305 0.47297 0.12637 0.0
H1351 H 0.8632 0.48548 0.13383 0.0
H1352 H 0.86697 0.48037 0.10544 0.0
H1353 H 0.82689 0.39133 0.16844 0.0
H1354 H 0.79304 0.37402 0.16159 0.0
H1355 H 0.80657 0.40264 0.17775 0.0
loop_
_geom_bond_atom_site_label_1
_geom_bond_atom_site_label_2
_geom_bond_distance
_geom_bond_site_symmetry_2
_ccdc_geom_bond_type
H0 C27 0.929 . S
N1 C26 1.433 . S
N1 C32 1.435 . S
N1 C38 1.423 . S
H2 C28 0.930 . S
H3 C31 0.931 . S
H4 C30 0.929 . S
H5 C33 0.930 . S
H6 C34 0.932 . S
H7 C37 0.929 . S
H8 C36 0.931 . S
H9 C39 0.929 . S
H10 C43 0.932 . S
H11 C40 0.931 . S
H12 C42 0.929 . S
H13 C45 0.929 . S
H14 C46 0.930 . S
H15 C48 0.929 . S
H16 C49 0.931 . S
H17 C51 0.930 . S
H18 C52 0.932 . S
H19 C54 0.931 . S
H20 C55 0.929 . S
H21 C57 0.929 . S
H22 C58 0.931 . S
H23 C60 0.929 . S
N24 C44 1.433 . S
N24 C50 1.435 . S
N24 C56 1.423 . S
H25 C61 0.932 . S
C26 N1 1.433 . S
C26 C27 1.363 . S
C26 C31 1.370 . S
C27 H0 0.929 . S
C27 C26 1.363 . S
C27 C28 1.385 . S
C28 H2 0.930 . S
C28 C27 1.385 . S
C28 C29 1.357 . S
C29 C28 1.357 . S
C29 C30 1.406 . S
C30 H4 0.929 . S
C30 C29 1.406 . S
C30 C31 1.391 . S
C31 H3 0.931 . S
C31 C26 1.370 . S
C31 C30 1.391 . S
C32 N1 1.435 . S
C32 C33 1.358 . S
C32 C37 1.371 . S
C33 H5 0.930 . S
C33 C32 1.358 . S
C33 C34 1.405 . S
C34 H6 0.932 . S
C34 C33 1.405 . S
C34 C35 1.383 . S
C35 C34 1.383 . S
C35 C36 1.393 . S
C36 H8 0.931 . S
C36 C35 1.393 . S
C36 C37 1.382 . S
C37 H7 0.929 . S
C37 C32 1.371 . S
C37 C36 1.382 . S
C38 N1 1.423 . S
C38 C39 1.362 . S
C38 C43 1.388 . S
C39 H9 0.929 . S
C39 C38 1.362 . S
C39 C40 1.376 . S
C40 H11 0.931 . S
C40 C39 1.376 . S
C40 C41 1.396 . S
C41 C40 1.396 . S
C41 C42 1.348 . S
C41 C59 1.472 1_455 S
C42 H12 0.929 . S
C42 C41 1.348 . S
C42 C43 1.443 . S
C43 H10 0.932 . S
C43 C38 1.388 . S
C43 C42 1.443 . S
C44 N24 1.433 . S
C44 C45 1.363 . S
C44 C49 1.370 . S
C45 H13 0.929 . S
C45 C44 1.363 . S
C45 C46 1.385 . S
C46 H14 0.930 . S
C46 C45 1.385 . S
C46 C47 1.357 . S
C47 C46 1.357 . S
C47 C48 1.406 . S
C48 H15 0.929 . S
C48 C47 1.406 . S
C48 C49 1.391 . S
C49 H16 0.931 . S
C49 C44 1.370 . S
C49 C48 1.391 . S
C50 N24 1.435 . S
C50 C51 1.358 . S
C50 C55 1.371 . S
C51 H17 0.930 . S
C51 C50 1.358 . S
C51 C52 1.405 . S
C52 H18 0.932 . S
C52 C51 1.405 . S
C52 C53 1.383 . S
C53 C52 1.383 . S
C53 C54 1.393 . S
C54 H19 0.931 . S
C54 C53 1.393 . S
C54 C55 1.382 . S
C55 H20 0.929 . S
C55 C50 1.371 . S
C55 C54 1.382 . S
C56 N24 1.423 . S
C56 C57 1.362 . S
C56 C61 1.388 . S
C57 H21 0.929 . S
C57 C56 1.362 . S
C57 C58 1.376 . S
C58 H22 0.931 . S
C58 C57 1.376 . S
C58 C59 1.396 . S
C59 C41 1.472 1_655 S
C59 C58 1.396 . S
C59 C60 1.348 . S
C60 H23 0.929 . S
C60 C59 1.348 . S
C60 C61 1.443 . S
C61 H25 0.932 . S
C61 C56 1.388 . S
C61 C60 1.443 . S
H62 C89 0.929 . S
N63 C88 1.433 . S
N63 C94 1.435 . S
N63 C100 1.423 . S
H64 C90 0.930 . S
H65 C93 0.931 . S
H66 C92 0.929 . S
H67 C95 0.930 . S
H68 C96 0.932 . S
H69 C99 0.929 . S
H70 C98 0.931 . S
H71 C101 0.929 . S
H72 C105 0.932 . S
H73 C102 0.931 . S
H74 C104 0.929 1_545 S
H75 C107 0.929 . S
H76 C108 0.930 . S
H77 C110 0.929 . S
H78 C111 0.931 . S
H79 C113 0.930 . S
H80 C114 0.932 . S
H81 C116 0.931 . S
H82 C117 0.929 . S
H83 C119 0.929 . S
H84 C120 0.931 . S
H85 C122 0.929 . S
N86 C106 1.433 . S
N86 C112 1.435 . S
N86 C118 1.423 . S
H87 C123 0.932 . S
C88 N63 1.433 . S
C88 C89 1.363 . S
C88 C93 1.370 . S
C89 H62 0.929 . S
C89 C88 1.363 . S
C89 C90 1.385 . S
C90 H64 0.930 . S
C90 C89 1.385 . S
C90 C91 1.357 . S
C91 C90 1.357 . S
C91 C92 1.406 . S
C92 H66 0.929 . S
C92 C91 1.406 . S
C92 C93 1.391 . S
C93 H65 0.931 . S
C93 C88 1.370 . S
C93 C92 1.391 . S
C94 N63 1.435 . S
C94 C95 1.358 . S
C94 C99 1.371 . S
C95 H67 0.930 . S
C95 C94 1.358 . S
C95 C96 1.405 . S
C96 H68 0.932 . S
C96 C95 1.405 . S
C96 C97 1.383 . S
C97 C96 1.383 . S
C97 C98 1.393 . S
C98 H70 0.931 . S
C98 C97 1.393 . S
C98 C99 1.382 . S
C99 H69 0.929 . S
C99 C94 1.371 . S
C99 C98 1.382 . S
C100 N63 1.423 . S
C100 C101 1.362 . S
C100 C105 1.388 . S
C101 H71 0.929 . S
C101 C100 1.362 . S
C101 C102 1.376 . S
C102 H73 0.931 . S
C102 C101 1.376 . S
C102 C103 1.396 1_565 S
C103 C102 1.396 1_545 S
C103 C104 1.348 1_545 S
C103 C121 1.472 . S
C104 H74 0.929 1_565 S
C104 C103 1.348 1_565 S
C104 C105 1.443 . S
C105 H72 0.932 . S
C105 C100 1.388 . S
C105 C104 1.443 . S
C106 N86 1.433 . S
C106 C107 1.363 . S
C106 C111 1.370 . S
C107 H75 0.929 . S
C107 C106 1.363 . S
C107 C108 1.385 . S
C108 H76 0.930 . S
C108 C107 1.385 . S
C108 C109 1.357 . S
C109 C108 1.357 . S
C109 C110 1.406 . S
C110 H77 0.929 . S
C110 C109 1.406 . S
C110 C111 1.391 . S
C111 H78 0.931 . S
C111 C106 1.370 . S
C111 C110 1.391 . S
C112 N86 1.435 . S
C112 C113 1.358 . S
C112 C117 1.371 . S
C113 H79 0.930 . S
C113 C112 1.358 . S
C113 C114 1.405 . S
C114 H80 0.932 . S
C114 C113 1.405 . S
C114 C115 1.383 . S
C115 C114 1.383 . S
C115 C116 1.393 . S
C116 H81 0.931 . S
C116 C115 1.393 . S
C116 C117 1.382 . S
C117 H82 0.929 . S
C117 C112 1.371 . S
C117 C116 1.382 . S
C118 N86 1.423 . S
C118 C119 1.362 . S
C118 C123 1.388 . S
C119 H83 0.929 . S
C119 C118 1.362 . S
C119 C120 1.376 . S
C120 H84 0.931 . S
C120 C119 1.376 . S
C120 C121 1.396 . S
C121 C103 1.472 . S
C121 C120 1.396 . S
C121 C122 1.348 . S
C122 H85 0.929 . S
C122 C121 1.348 . S
C122 C123 1.443 . S
C123 H87 0.932 . S
C123 C118 1.388 . S
C123 C122 1.443 . S
H124 C151 0.929 . S
N125 C150 1.433 . S
N125 C156 1.435 . S
N125 C162 1.423 . S
H126 C152 0.930 . S
H127 C155 0.931 . S
H128 C154 0.929 . S
H129 C157 0.930 . S
H130 C158 0.932 . S
H131 C161 0.929 . S
H132 C160 0.931 . S
H133 C163 0.929 . S
H134 C167 0.932 . S
H135 C164 0.931 . S
H136 C166 0.929 . S
H137 C169 0.929 . S
H138 C170 0.930 . S
H139 C172 0.929 . S
H140 C173 0.931 . S
H141 C175 0.930 . S
H142 C176 0.932 . S
H143 C178 0.931 . S
H144 C179 0.929 . S
H145 C181 0.929 . S
H146 C182 0.931 . S
H147 C184 0.929 . S
N148 C168 1.433 . S
N148 C174 1.435 . S
N148 C180 1.423 . S
H149 C185 0.932 . S
C150 N125 1.433 . S
C150 C151 1.363 . S
C150 C155 1.370 . S
C151 H124 0.929 . S
C151 C150 1.363 . S
C151 C152 1.385 . S
C152 H126 0.930 . S
C152 C151 1.385 . S
C152 C153 1.357 . S
C153 C152 1.357 . S
C153 C154 1.406 . S
C154 H128 0.929 . S
C154 C153 1.406 . S
C154 C155 1.391 . S
C155 H127 0.931 . S
C155 C150 1.370 . S
C155 C154 1.391 . S
C156 N125 1.435 . S
C156 C157 1.358 . S
C156 C161 1.371 . S
C157 H129 0.930 . S
C157 C156 1.358 . S
C157 C158 1.405 . S
C158 H130 0.932 . S
C158 C157 1.405 . S
C158 C159 1.383 . S
C159 C158 1.383 . S
C159 C160 1.393 . S
C160 H132 0.931 . S
C160 C159 1.393 . S
C160 C161 1.382 . S
C161 H131 0.929 . S
C161 C156 1.371 . S
C161 C160 1.382 . S
C162 N125 1.423 . S
C162 C163 1.362 . S
C162 C167 1.388 . S
C163 H133 0.929 . S
C163 C162 1.362 . S
C163 C164 1.376 . S
C164 H135 0.931 . S
C164 C163 1.376 . S
C164 C165 1.396 . S
C165 C164 1.396 . S
C165 C166 1.348 . S
C165 C183 1.472 . S
C166 H136 0.929 . S
C166 C165 1.348 . S
C166 C167 1.443 . S
C167 H134 0.932 . S
C167 C162 1.388 . S
C167 C166 1.443 . S
C168 N148 1.433 . S
C168 C169 1.363 . S
C168 C173 1.370 . S
C169 H137 0.929 . S
C169 C168 1.363 . S
C169 C170 1.385 . S
C170 H138 0.930 . S
C170 C169 1.385 . S
C170 C171 1.357 . S
C171 C170 1.357 . S
C171 C172 1.406 . S
C172 H139 0.929 . S
C172 C171 1.406 . S
C172 C173 1.391 . S
C173 H140 0.931 . S
C173 C168 1.370 . S
C173 C172 1.391 . S
C174 N148 1.435 . S
C174 C175 1.358 . S
C174 C179 1.371 . S
C175 H141 0.930 . S
C175 C174 1.358 . S
C175 C176 1.405 . S
C176 H142 0.932 . S
C176 C175 1.405 . S
C176 C177 1.383 . S
C177 C176 1.383 . S
C177 C178 1.393 . S
C178 H143 0.931 . S
C178 C177 1.393 . S
C178 C179 1.382 . S
C179 H144 0.929 . S
C179 C174 1.371 . S
C179 C178 1.382 . S
C180 N148 1.423 . S
C180 C181 1.362 . S
C180 C185 1.388 . S
C181 H145 0.929 . S
C181 C180 1.362 . S
C181 C182 1.376 . S
C182 H146 0.931 . S
C182 C181 1.376 . S
C182 C183 1.396 . S
C183 C165 1.472 . S
C183 C182 1.396 . S
C183 C184 1.348 . S
C184 H147 0.929 . S
C184 C183 1.348 . S
C184 C185 1.443 . S
C185 H149 0.932 . S
C185 C180 1.388 . S
C185 C184 1.443 . S
H186 C213 0.929 . S
N187 C212 1.433 . S
N187 C218 1.435 . S
N187 C224 1.423 . S
H188 C214 0.930 . S
H189 C217 0.931 . S
H190 C216 0.929 . S
H191 C219 0.930 . S
H192 C220 0.932 . S
H193 C223 0.929 . S
H194 C222 0.931 . S
H195 C225 0.929 . S
H196 C229 0.932 . S
H197 C226 0.931 . S
H198 C228 0.929 . S
H199 C231 0.929 . S
H200 C232 0.930 . S
H201 C234 0.929 . S
H202 C235 0.931 . S
H203 C237 0.930 . S
H204 C238 0.932 . S
H205 C240 0.931 . S
H206 C241 0.929 . S
H207 C243 0.929 . S
H208 C244 0.931 . S
H209 C246 0.929 . S
N210 C230 1.433 . S
N210 C236 1.435 . S
N210 C242 1.423 . S
H211 C247 0.932 . S
C212 N187 1.433 . S
C212 C213 1.363 . S
C212 C217 1.370 . S
C213 H186 0.929 . S
C213 C212 1.363 . S
C213 C214 1.385 . S
C214 H188 0.930 . S
C214 C213 1.385 . S
C214 C215 1.357 . S
C215 C214 1.357 . S
C215 C216 1.406 . S
C216 H190 0.929 . S
C216 C215 1.406 . S
C216 C217 1.391 . S
C217 H189 0.931 . S
C217 C212 1.370 . S
C217 C216 1.391 . S
C218 N187 1.435 . S
C218 C219 1.358 . S
C218 C223 1.371 . S
C219 H191 0.930 . S
C219 C218 1.358 . S
C219 C220 1.405 . S
C220 H192 0.932 . S
C220 C219 1.405 . S
C220 C221 1.383 . S
C221 C220 1.383 . S
C221 C222 1.393 . S
C222 H194 0.931 . S
C222 C221 1.393 . S
C222 C223 1.382 . S
C223 H193 0.929 . S
C223 C218 1.371 . S
C223 C222 1.382 . S
C224 N187 1.423 . S
C224 C225 1.362 . S
C224 C229 1.388 . S
C225 H195 0.929 . S
C225 C224 1.362 . S
C225 C226 1.376 . S
C226 H197 0.931 . S
C226 C225 1.376 . S
C226 C227 1.396 . S
C227 C226 1.396 . S
C227 C228 1.348 . S
C227 C245 1.472 1_455 S
C228 H198 0.929 . S
C228 C227 1.348 . S
C228 C229 1.443 . S
C229 H196 0.932 . S
C229 C224 1.388 . S
C229 C228 1.443 . S
C230 N210 1.433 . S
C230 C231 1.363 . S
C230 C235 1.370 . S
C231 H199 0.929 . S
C231 C230 1.363 . S
C231 C232 1.385 . S
C232 H200 0.930 . S
C232 C231 1.385 . S
C232 C233 1.357 . S
C233 C232 1.357 . S
C233 C234 1.406 . S
C234 H201 0.929 . S
C234 C233 1.406 . S
C234 C235 1.391 . S
C235 H202 0.931 . S
C235 C230 1.370 . S
C235 C234 1.391 . S
C236 N210 1.435 . S
C236 C237 1.358 . S
C236 C241 1.371 . S
C237 H203 0.930 . S
C237 C236 1.358 . S
C237 C238 1.405 . S
C238 H204 0.932 . S
C238 C237 1.405 . S
C238 C239 1.383 . S
C239 C238 1.383 . S
C239 C240 1.393 . S
C240 H205 0.931 . S
C240 C239 1.393 . S
C240 C241 1.382 . S
C241 H206 0.929 . S
C241 C236 1.371 . S
C241 C240 1.382 . S
C242 N210 1.423 . S
C242 C243 1.362 . S
C242 C247 1.388 . S
C243 H207 0.929 . S
C243 C242 1.362 . S
C243 C244 1.376 . S
C244 H208 0.931 . S
C244 C243 1.376 . S
C244 C245 1.396 . S
C245 C227 1.472 1_655 S
C245 C244 1.396 . S
C245 C246 1.348 . S
C246 H209 0.929 . S
C246 C245 1.348 . S
C246 C247 1.443 . S
C247 H211 0.932 . S
C247 C242 1.388 . S
C247 C246 1.443 . S
H248 C275 0.929 . S
N249 C274 1.433 . S
N249 C280 1.435 . S
N249 C286 1.423 . S
H250 C276 0.930 . S
H251 C279 0.931 . S
H252 C278 0.929 . S
H253 C281 0.930 . S
H254 C282 0.932 . S
H255 C285 0.929 . S
H256 C284 0.931 . S
H257 C287 0.929 . S
H258 C291 0.932 . S
H259 C288 0.931 . S
H260 C290 0.929 . S
H261 C293 0.929 . S
H262 C294 0.930 . S
H263 C296 0.929 . S
H264 C297 0.931 . S
H265 C299 0.930 1_554 S
H266 C300 0.932 . S
H267 C302 0.931 . S
H268 C303 0.929 . S
H269 C305 0.929 . S
H270 C306 0.931 1_544 S
H271 C308 0.929 . S
N272 C292 1.433 . S
N272 C298 1.435 1_554 S
N272 C304 1.423 1_554 S
H273 C309 0.932 . S
C274 N249 1.433 . S
C274 C275 1.363 . S
C274 C279 1.370 . S
C275 H248 0.929 . S
C275 C274 1.363 . S
C275 C276 1.385 . S
C276 H250 0.930 . S
C276 C275 1.385 . S
C276 C277 1.357 1_556 S
C277 C276 1.357 1_554 S
C277 C278 1.406 . S
C278 H252 0.929 . S
C278 C277 1.406 . S
C278 C279 1.391 1_554 S
C279 H251 0.931 . S
C279 C274 1.370 . S
C279 C278 1.391 1_556 S
C280 N249 1.435 . S
C280 C281 1.358 . S
C280 C285 1.371 . S
C281 H253 0.930 . S
C281 C280 1.358 . S
C281 C282 1.405 . S
C282 H254 0.932 . S
C282 C281 1.405 . S
C282 C283 1.383 . S
C283 C282 1.383 . S
C283 C284 1.393 . S
C284 H256 0.931 . S
C284 C283 1.393 . S
C284 C285 1.382 . S
C285 H255 0.929 . S
C285 C280 1.371 . S
C285 C284 1.382 . S
C286 N249 1.423 . S
C286 C287 1.362 . S
C286 C291 1.388 . S
C287 H257 0.929 . S
C287 C286 1.362 . S
C287 C288 1.376 . S
C288 H259 0.931 . S
C288 C287 1.376 . S
C288 C289 1.396 . S
C289 C288 1.396 . S
C289 C290 1.348 . S
C289 C307 1.472 . S
C290 H260 0.929 . S
C290 C289 1.348 . S
C290 C291 1.443 . S
C291 H258 0.932 . S
C291 C286 1.388 . S
C291 C290 1.443 . S
C292 N272 1.433 . S
C292 C293 1.363 . S
C292 C297 1.370 . S
C293 H261 0.929 . S
C293 C292 1.363 . S
C293 C294 1.385 . S
C294 H262 0.930 . S
C294 C293 1.385 . S
C294 C295 1.357 . S
C295 C294 1.357 . S
C295 C296 1.406 . S
C296 H263 0.929 . S
C296 C295 1.406 . S
C296 C297 1.391 . S
C297 H264 0.931 . S
C297 C292 1.370 . S
C297 C296 1.391 . S
C298 N272 1.435 1_556 S
C298 C299 1.358 . S
C298 C303 1.371 . S
C299 H265 0.930 1_556 S
C299 C298 1.358 . S
C299 C300 1.405 . S
C300 H266 0.932 . S
C300 C299 1.405 . S
C300 C301 1.383 . S
C301 C300 1.383 . S
C301 C302 1.393 . S
C302 H267 0.931 . S
C302 C301 1.393 . S
C302 C303 1.382 . S
C303 H268 0.929 . S
C303 C298 1.371 . S
C303 C302 1.382 . S
C304 N272 1.423 1_556 S
C304 C305 1.362 1_556 S
C304 C309 1.388 . S
C305 H269 0.929 . S
C305 C304 1.362 1_554 S
C305 C306 1.376 1_554 S
C306 H270 0.931 1_566 S
C306 C305 1.376 1_556 S
C306 C307 1.396 1_565 S
C307 C289 1.472 . S
C307 C306 1.396 1_545 S
C307 C308 1.348 1_545 S
C308 H271 0.929 . S
C308 C307 1.348 1_565 S
C308 C309 1.443 . S
C309 H273 0.932 . S
C309 C304 1.388 . S
C309 C308 1.443 . S
H310 C337 0.929 . S
N311 C336 1.433 . S
N311 C342 1.435 . S
N311 C348 1.423 . S
H312 C338 0.930 . S
H313 C341 0.931 . S
H314 C340 0.929 . S
H315 C343 0.930 . S
H316 C344 0.932 . S
H317 C347 0.929 . S
H318 C346 0.931 . S
H319 C349 0.929 . S
H320 C353 0.932 . S
H321 C350 0.931 . S
H322 C352 0.929 . S
H323 C355 0.929 . S
H324 C356 0.930 . S
H325 C358 0.929 . S
H326 C359 0.931 . S
H327 C361 0.930 . S
H328 C362 0.932 . S
H329 C364 0.931 . S
H330 C365 0.929 . S
H331 C367 0.929 . S
H332 C368 0.931 . S
H333 C370 0.929 . S
N334 C354 1.433 . S
N334 C360 1.435 . S
N334 C366 1.423 . S
H335 C371 0.932 . S
C336 N311 1.433 . S
C336 C337 1.363 . S
C336 C341 1.370 . S
C337 H310 0.929 . S
C337 C336 1.363 . S
C337 C338 1.385 . S
C338 H312 0.930 . S
C338 C337 1.385 . S
C338 C339 1.357 . S
C339 C338 1.357 . S
C339 C340 1.406 . S
C340 H314 0.929 . S
C340 C339 1.406 . S
C340 C341 1.391 . S
C341 H313 0.931 . S
C341 C336 1.370 . S
C341 C340 1.391 . S
C342 N311 1.435 . S
C342 C343 1.358 . S
C342 C347 1.371 . S
C343 H315 0.930 . S
C343 C342 1.358 . S
C343 C344 1.405 . S
C344 H316 0.932 . S
C344 C343 1.405 . S
C344 C345 1.383 . S
C345 C344 1.383 . S
C345 C346 1.393 . S
C346 H318 0.931 . S
C346 C345 1.393 . S
C346 C347 1.382 . S
C347 H317 0.929 . S
C347 C342 1.371 . S
C347 C346 1.382 . S
C348 N311 1.423 . S
C348 C349 1.362 . S
C348 C353 1.388 . S
C349 H319 0.929 . S
C349 C348 1.362 . S
C349 C350 1.376 . S
C350 H321 0.931 . S
C350 C349 1.376 . S
C350 C351 1.396 . S
C351 C350 1.396 . S
C351 C352 1.348 . S
C351 C369 1.472 . S
C352 H322 0.929 . S
C352 C351 1.348 . S
C352 C353 1.443 . S
C353 H320 0.932 . S
C353 C348 1.388 . S
C353 C352 1.443 . S
C354 N334 1.433 . S
C354 C355 1.363 . S
C354 C359 1.370 . S
C355 H323 0.929 . S
C355 C354 1.363 . S
C355 C356 1.385 . S
C356 H324 0.930 . S
C356 C355 1.385 . S
C356 C357 1.357 . S
C357 C356 1.357 . S
C357 C358 1.406 . S
C358 H325 0.929 . S
C358 C357 1.406 . S
C358 C359 1.391 . S
C359 H326 0.931 . S
C359 C354 1.370 . S
C359 C358 1.391 . S
C360 N334 1.435 . S
C360 C361 1.358 . S
C360 C365 1.371 . S
C361 H327 0.930 . S
C361 C360 1.358 . S
C361 C362 1.405 . S
C362 H328 0.932 . S
C362 C361 1.405 . S
C362 C363 1.383 . S
C363 C362 1.383 . S
C363 C364 1.393 . S
C364 H329 0.931 . S
C364 C363 1.393 . S
C364 C365 1.382 . S
C365 H330 0.929 . S
C365 C360 1.371 . S
C365 C364 1.382 . S
C366 N334 1.423 . S
C366 C367 1.362 . S
C366 C371 1.388 . S
C367 H331 0.929 . S
C367 C366 1.362 . S
C367 C368 1.376 . S
C368 H332 0.931 . S
C368 C367 1.376 . S
C368 C369 1.396 . S
C369 C351 1.472 . S
C369 C368 1.396 . S
C369 C370 1.348 . S
C370 H333 0.929 . S
C370 C369 1.348 . S
C370 C371 1.443 . S
C371 H335 0.932 . S
C371 C366 1.388 . S
C371 C370 1.443 . S
Mn372 O377 2.095 . S
Mn372 O387 2.162 . S
Mn372 O388 2.297 . S
Mn372 O396 2.385 . S
Mn372 O397 2.209 . S
Mn372 O398 2.094 . S
Mn373 O378 2.121 . S
Mn373 N380 2.257 . S
Mn373 N389 2.282 . S
Mn373 O397 2.215 . S
Mn373 O399 2.117 . S
C374 O396 1.234 . S
C374 O397 1.283 . S
C375 O387 1.281 . S
C375 O388 1.236 . S
C376 O398 1.240 . S
C376 O399 1.264 . S
O377 Mn372 2.095 . S
O377 C386 1.250 . S
O378 Mn373 2.121 . S
O378 C386 1.258 . S
C379 N380 1.326 . S
C379 C383 1.460 . S
C379 H385 0.929 . S
N380 Mn373 2.257 . S
N380 C379 1.326 . S
N380 C384 1.362 . S
C381 C382 1.258 . S
C381 C384 1.431 . S
C381 C401 1.449 . S
C382 C381 1.258 . S
C382 C383 1.477 . S
C382 H402 0.931 . S
C383 C379 1.460 . S
C383 C382 1.477 . S
C383 H403 0.930 . S
C384 N380 1.362 . S
C384 C381 1.431 . S
C384 C394 1.476 . S
H385 C379 0.929 . S
C386 O377 1.250 . S
C386 O378 1.258 . S
O387 Mn372 2.162 . S
O387 C375 1.281 . S
O388 Mn372 2.297 . S
O388 C375 1.236 . S
N389 Mn373 2.282 . S
N389 C390 1.328 . S
N389 C394 1.318 . S
C390 N389 1.328 . S
C390 C391 1.457 . S
C390 H395 0.929 . S
C391 C390 1.457 . S
C391 C392 1.291 . S
C391 H404 0.931 . S
C392 C391 1.291 . S
C392 C393 1.373 . S
C392 H405 0.929 . S
C393 C392 1.373 . S
C393 C394 1.396 . S
C393 C400 1.403 . S
C394 C384 1.476 . S
C394 N389 1.318 . S
C394 C393 1.396 . S
H395 C390 0.929 . S
O396 Mn372 2.385 . S
O396 C374 1.234 . S
O397 Mn372 2.209 . S
O397 Mn373 2.215 . S
O397 C374 1.283 . S
O398 Mn372 2.094 . S
O398 C376 1.240 . S
O399 Mn373 2.117 . S
O399 C376 1.264 . S
C400 C393 1.403 . S
C400 C401 1.399 . S
C400 H406 0.929 . S
C401 C381 1.449 . S
C401 C400 1.399 . S
C401 H407 0.930 . S
H402 C382 0.931 . S
H403 C383 0.930 . S
H404 C391 0.931 . S
H405 C392 0.929 . S
H406 C400 0.929 . S
H407 C401 0.930 . S
Mn408 O413 2.095 . S
Mn408 O423 2.162 . S
Mn408 O424 2.297 . S
Mn408 O432 2.385 . S
Mn408 O433 2.209 . S
Mn408 O434 2.094 . S
Mn409 O414 2.121 . S
Mn409 N416 2.257 . S
Mn409 N425 2.282 . S
Mn409 O433 2.215 . S
Mn409 O435 2.117 . S
C410 O432 1.234 . S
C410 O433 1.283 . S
C411 O423 1.281 . S
C411 O424 1.236 . S
C412 O434 1.240 . S
C412 O435 1.264 . S
O413 Mn408 2.095 . S
O413 C422 1.250 . S
O414 Mn409 2.121 . S
O414 C422 1.258 . S
C415 N416 1.326 . S
C415 C419 1.460 . S
C415 H421 0.929 . S
N416 Mn409 2.257 . S
N416 C415 1.326 . S
N416 C420 1.362 . S
C417 C418 1.258 . S
C417 C420 1.431 . S
C417 C437 1.449 . S
C418 C417 1.258 . S
C418 C419 1.477 . S
C418 H438 0.931 . S
C419 C415 1.460 . S
C419 C418 1.477 . S
C419 H439 0.930 . S
C420 N416 1.362 . S
C420 C417 1.431 . S
C420 C430 1.476 . S
H421 C415 0.929 . S
C422 O413 1.250 . S
C422 O414 1.258 . S
O423 Mn408 2.162 . S
O423 C411 1.281 . S
O424 Mn408 2.297 . S
O424 C411 1.236 . S
N425 Mn409 2.282 . S
N425 C426 1.328 . S
N425 C430 1.318 . S
C426 N425 1.328 . S
C426 C427 1.457 . S
C426 H431 0.929 . S
C427 C426 1.457 . S
C427 C428 1.291 . S
C427 H440 0.931 . S
C428 C427 1.291 . S
C428 C429 1.373 . S
C428 H441 0.929 . S
C429 C428 1.373 . S
C429 C430 1.396 . S
C429 C436 1.403 . S
C430 C420 1.476 . S
C430 N425 1.318 . S
C430 C429 1.396 . S
H431 C426 0.929 . S
O432 Mn408 2.385 . S
O432 C410 1.234 . S
O433 Mn408 2.209 . S
O433 Mn409 2.215 . S
O433 C410 1.283 . S
O434 Mn408 2.094 . S
O434 C412 1.240 . S
O435 Mn409 2.117 . S
O435 C412 1.264 . S
C436 C429 1.403 . S
C436 C437 1.399 . S
C436 H442 0.929 . S
C437 C417 1.449 . S
C437 C436 1.399 . S
C437 H443 0.930 . S
H438 C418 0.931 . S
H439 C419 0.930 . S
H440 C427 0.931 . S
H441 C428 0.929 . S
H442 C436 0.929 . S
H443 C437 0.930 . S
Mn444 O449 2.095 . S
Mn444 O459 2.162 . S
Mn444 O460 2.297 . S
Mn444 O468 2.385 . S
Mn444 O469 2.209 . S
Mn444 O470 2.094 . S
Mn445 O450 2.121 . S
Mn445 N452 2.257 . S
Mn445 N461 2.282 . S
Mn445 O469 2.215 . S
Mn445 O471 2.117 . S
C446 O468 1.234 . S
C446 O469 1.283 . S
C447 O459 1.281 . S
C447 O460 1.236 . S
C448 O470 1.240 . S
C448 O471 1.264 . S
O449 Mn444 2.095 . S
O449 C458 1.250 . S
O450 Mn445 2.121 . S
O450 C458 1.258 . S
C451 N452 1.326 . S
C451 C455 1.460 . S
C451 H457 0.929 . S
N452 Mn445 2.257 . S
N452 C451 1.326 . S
N452 C456 1.362 . S
C453 C454 1.258 . S
C453 C456 1.431 . S
C453 C473 1.449 . S
C454 C453 1.258 . S
C454 C455 1.477 . S
C454 H474 0.931 . S
C455 C451 1.460 . S
C455 C454 1.477 . S
C455 H475 0.930 . S
C456 N452 1.362 . S
C456 C453 1.431 . S
C456 C466 1.476 . S
H457 C451 0.929 . S
C458 O449 1.250 . S
C458 O450 1.258 . S
O459 Mn444 2.162 . S
O459 C447 1.281 . S
O460 Mn444 2.297 . S
O460 C447 1.236 . S
N461 Mn445 2.282 . S
N461 C462 1.328 . S
N461 C466 1.318 . S
C462 N461 1.328 . S
C462 C463 1.457 . S
C462 H467 0.929 . S
C463 C462 1.457 . S
C463 C464 1.291 . S
C463 H476 0.931 . S
C464 C463 1.291 . S
C464 C465 1.373 . S
C464 H477 0.929 . S
C465 C464 1.373 . S
C465 C466 1.396 . S
C465 C472 1.403 . S
C466 C456 1.476 . S
C466 N461 1.318 . S
C466 C465 1.396 . S
H467 C462 0.929 . S
O468 Mn444 2.385 . S
O468 C446 1.234 . S
O469 Mn444 2.209 . S
O469 Mn445 2.215 . S
O469 C446 1.283 . S
O470 Mn444 2.094 . S
O470 C448 1.240 . S
O471 Mn445 2.117 . S
O471 C448 1.264 . S
C472 C465 1.403 . S
C472 C473 1.399 . S
C472 H478 0.929 . S
C473 C453 1.449 . S
C473 C472 1.399 . S
C473 H479 0.930 . S
H474 C454 0.931 . S
H475 C455 0.930 . S
H476 C463 0.931 . S
H477 C464 0.929 . S
H478 C472 0.929 . S
H479 C473 0.930 . S
Mn480 O485 2.095 . S
Mn480 O495 2.162 . S
Mn480 O496 2.297 . S
Mn480 O504 2.385 . S
Mn480 O505 2.209 . S
Mn480 O506 2.094 . S
Mn481 O486 2.121 . S
Mn481 N488 2.257 . S
Mn481 N497 2.282 . S
Mn481 O505 2.215 . S
Mn481 O507 2.117 . S
C482 O504 1.234 . S
C482 O505 1.283 . S
C483 O495 1.281 . S
C483 O496 1.236 . S
C484 O506 1.240 . S
C484 O507 1.264 . S
O485 Mn480 2.095 . S
O485 C494 1.250 . S
O486 Mn481 2.121 . S
O486 C494 1.258 . S
C487 N488 1.326 . S
C487 C491 1.460 . S
C487 H493 0.929 . S
N488 Mn481 2.257 . S
N488 C487 1.326 . S
N488 C492 1.362 . S
C489 C490 1.258 . S
C489 C492 1.431 . S
C489 C509 1.449 . S
C490 C489 1.258 . S
C490 C491 1.477 . S
C490 H510 0.931 . S
C491 C487 1.460 . S
C491 C490 1.477 . S
C491 H511 0.930 . S
C492 N488 1.362 . S
C492 C489 1.431 . S
C492 C502 1.476 . S
H493 C487 0.929 . S
C494 O485 1.250 . S
C494 O486 1.258 . S
O495 Mn480 2.162 . S
O495 C483 1.281 . S
O496 Mn480 2.297 . S
O496 C483 1.236 . S
N497 Mn481 2.282 . S
N497 C498 1.328 . S
N497 C502 1.318 . S
C498 N497 1.328 . S
C498 C499 1.457 . S
C498 H503 0.929 . S
C499 C498 1.457 . S
C499 C500 1.291 . S
C499 H512 0.931 . S
C500 C499 1.291 . S
C500 C501 1.373 . S
C500 H513 0.929 . S
C501 C500 1.373 . S
C501 C502 1.396 . S
C501 C508 1.403 . S
C502 C492 1.476 . S
C502 N497 1.318 . S
C502 C501 1.396 . S
H503 C498 0.929 . S
O504 Mn480 2.385 . S
O504 C482 1.234 . S
O505 Mn480 2.209 . S
O505 Mn481 2.215 . S
O505 C482 1.283 . S
O506 Mn480 2.094 . S
O506 C484 1.240 . S
O507 Mn481 2.117 . S
O507 C484 1.264 . S
C508 C501 1.403 . S
C508 C509 1.399 . S
C508 H514 0.929 . S
C509 C489 1.449 . S
C509 C508 1.399 . S
C509 H515 0.930 . S
H510 C490 0.931 . S
H511 C491 0.930 . S
H512 C499 0.931 . S
H513 C500 0.929 . S
H514 C508 0.929 . S
H515 C509 0.930 . S
Mn516 O521 2.095 . S
Mn516 O531 2.162 . S
Mn516 O532 2.297 . S
Mn516 O540 2.385 . S
Mn516 O541 2.209 . S
Mn516 O542 2.094 . S
Mn517 O522 2.121 . S
Mn517 N524 2.257 . S
Mn517 N533 2.282 . S
Mn517 O541 2.215 . S
Mn517 O543 2.117 . S
C518 O540 1.234 . S
C518 O541 1.283 . S
C519 O531 1.281 . S
C519 O532 1.236 . S
C520 O542 1.240 . S
C520 O543 1.264 . S
O521 Mn516 2.095 . S
O521 C530 1.250 . S
O522 Mn517 2.121 . S
O522 C530 1.258 . S
C523 N524 1.326 . S
C523 C527 1.460 . S
C523 H529 0.929 . S
N524 Mn517 2.257 . S
N524 C523 1.326 . S
N524 C528 1.362 . S
C525 C526 1.258 . S
C525 C528 1.431 . S
C525 C545 1.449 . S
C526 C525 1.258 . S
C526 C527 1.477 . S
C526 H546 0.931 . S
C527 C523 1.460 . S
C527 C526 1.477 . S
C527 H547 0.930 . S
C528 N524 1.362 . S
C528 C525 1.431 . S
C528 C538 1.476 . S
H529 C523 0.929 . S
C530 O521 1.250 . S
C530 O522 1.258 . S
O531 Mn516 2.162 . S
O531 C519 1.281 . S
O532 Mn516 2.297 . S
O532 C519 1.236 . S
N533 Mn517 2.282 . S
N533 C534 1.328 . S
N533 C538 1.318 . S
C534 N533 1.328 . S
C534 C535 1.457 . S
C534 H539 0.929 . S
C535 C534 1.457 . S
C535 C536 1.291 . S
C535 H548 0.931 . S
C536 C535 1.291 . S
C536 C537 1.373 . S
C536 H549 0.929 . S
C537 C536 1.373 . S
C537 C538 1.396 . S
C537 C544 1.403 . S
C538 C528 1.476 . S
C538 N533 1.318 . S
C538 C537 1.396 . S
H539 C534 0.929 . S
O540 Mn516 2.385 . S
O540 C518 1.234 . S
O541 Mn516 2.209 . S
O541 Mn517 2.215 . S
O541 C518 1.283 . S
O542 Mn516 2.094 . S
O542 C520 1.240 . S
O543 Mn517 2.117 . S
O543 C520 1.264 . S
C544 C537 1.403 . S
C544 C545 1.399 . S
C544 H550 0.929 . S
C545 C525 1.449 . S
C545 C544 1.399 . S
C545 H551 0.930 . S
H546 C526 0.931 . S
H547 C527 0.930 . S
H548 C535 0.931 . S
H549 C536 0.929 . S
H550 C544 0.929 . S
H551 C545 0.930 . S
Mn552 O557 2.095 . S
Mn552 O567 2.162 . S
Mn552 O568 2.297 . S
Mn552 O576 2.385 . S
Mn552 O577 2.209 . S
Mn552 O578 2.094 . S
Mn553 O558 2.121 . S
Mn553 N560 2.257 . S
Mn553 N569 2.282 . S
Mn553 O577 2.215 . S
Mn553 O579 2.117 . S
C554 O576 1.234 . S
C554 O577 1.283 . S
C555 O567 1.281 . S
C555 O568 1.236 . S
C556 O578 1.240 . S
C556 O579 1.264 . S
O557 Mn552 2.095 . S
O557 C566 1.250 . S
O558 Mn553 2.121 . S
O558 C566 1.258 . S
C559 N560 1.326 . S
C559 C563 1.460 . S
C559 H565 0.929 . S
N560 Mn553 2.257 . S
N560 C559 1.326 . S
N560 C564 1.362 . S
C561 C562 1.258 . S
C561 C564 1.431 . S
C561 C581 1.449 . S
C562 C561 1.258 . S
C562 C563 1.477 . S
C562 H582 0.931 . S
C563 C559 1.460 . S
C563 C562 1.477 . S
C563 H583 0.930 . S
C564 N560 1.362 . S
C564 C561 1.431 . S
C564 C574 1.476 . S
H565 C559 0.929 . S
C566 O557 1.250 . S
C566 O558 1.258 . S
O567 Mn552 2.162 . S
O567 C555 1.281 . S
O568 Mn552 2.297 . S
O568 C555 1.236 . S
N569 Mn553 2.282 . S
N569 C570 1.328 . S
N569 C574 1.318 . S
C570 N569 1.328 . S
C570 C571 1.457 . S
C570 H575 0.929 . S
C571 C570 1.457 . S
C571 C572 1.291 . S
C571 H584 0.931 . S
C572 C571 1.291 . S
C572 C573 1.373 . S
C572 H585 0.929 . S
C573 C572 1.373 . S
C573 C574 1.396 . S
C573 C580 1.403 . S
C574 C564 1.476 . S
C574 N569 1.318 . S
C574 C573 1.396 . S
H575 C570 0.929 . S
O576 Mn552 2.385 . S
O576 C554 1.234 . S
O577 Mn552 2.209 . S
O577 Mn553 2.215 . S
O577 C554 1.283 . S
O578 Mn552 2.094 . S
O578 C556 1.240 . S
O579 Mn553 2.117 . S
O579 C556 1.264 . S
C580 C573 1.403 . S
C580 C581 1.399 . S
C580 H586 0.929 . S
C581 C561 1.449 . S
C581 C580 1.399 . S
C581 H587 0.930 . S
H582 C562 0.931 . S
H583 C563 0.930 . S
H584 C571 0.931 . S
H585 C572 0.929 . S
H586 C580 0.929 . S
H587 C581 0.930 . S
C588 C589 1.391 . S
C588 C590 1.394 . S
C588 H604 0.931 . S
C589 C588 1.391 . S
C589 C593 1.376 . S
C590 C588 1.394 . S
C590 C591 1.369 . S
C590 C594 1.531 . S
C591 C590 1.369 . S
C591 C592 1.410 . S
C591 C599 1.503 . S
C592 C591 1.410 . S
C592 C593 1.392 . S
C592 C595 1.511 . S
C593 C589 1.376 . S
C593 C592 1.392 . S
C593 H605 0.929 . S
C594 C590 1.531 . S
C594 H606 0.960 . S
C594 H607 0.962 . S
C594 H608 0.960 . S
C595 C592 1.511 . S
C595 H609 0.961 . S
C595 H610 0.961 . S
C595 H611 0.961 . S
C596 C597 1.370 . S
C596 C598 1.363 . S
C596 H612 0.931 . S
C597 C596 1.370 . S
C597 C601 1.408 . S
C598 C596 1.363 . S
C598 C599 1.370 . S
C598 C602 1.524 . S
C599 C591 1.503 . S
C599 C598 1.370 . S
C599 C600 1.403 . S
C600 C599 1.403 . S
C600 C601 1.404 . S
C600 C603 1.539 . S
C601 C597 1.408 . S
C601 C600 1.404 . S
C601 H613 0.930 . S
C602 C598 1.524 . S
C602 H614 0.956 . S
C602 H615 0.961 . S
C602 H616 0.961 . S
C603 C600 1.539 . S
C603 H617 0.958 . S
C603 H618 0.961 . S
C603 H619 0.960 . S
H604 C588 0.931 . S
H605 C593 0.929 . S
H606 C594 0.960 . S
H607 C594 0.962 . S
H608 C594 0.960 . S
H609 C595 0.961 . S
H610 C595 0.961 . S
H611 C595 0.961 . S
H612 C596 0.931 . S
H613 C601 0.930 . S
H614 C602 0.956 . S
H615 C602 0.961 . S
H616 C602 0.961 . S
H617 C603 0.958 . S
H618 C603 0.961 . S
H619 C603 0.960 . S
C620 C621 1.391 . S
C620 C622 1.394 . S
C620 H636 0.931 . S
C621 C620 1.391 . S
C621 C625 1.376 . S
C622 C620 1.394 . S
C622 C623 1.369 . S
C622 C626 1.531 . S
C623 C622 1.369 . S
C623 C624 1.410 . S
C623 C631 1.503 . S
C624 C623 1.410 . S
C624 C625 1.392 . S
C624 C627 1.511 . S
C625 C621 1.376 . S
C625 C624 1.392 . S
C625 H637 0.929 . S
C626 C622 1.531 . S
C626 H638 0.960 . S
C626 H639 0.962 . S
C626 H640 0.960 . S
C627 C624 1.511 . S
C627 H641 0.961 . S
C627 H642 0.961 . S
C627 H643 0.961 . S
C628 C629 1.370 . S
C628 C630 1.363 . S
C628 H644 0.931 . S
C629 C628 1.370 . S
C629 C633 1.408 . S
C630 C628 1.363 . S
C630 C631 1.370 . S
C630 C634 1.524 . S
C631 C623 1.503 . S
C631 C630 1.370 . S
C631 C632 1.403 . S
C632 C631 1.403 . S
C632 C633 1.404 . S
C632 C635 1.539 . S
C633 C629 1.408 . S
C633 C632 1.404 . S
C633 H645 0.930 . S
C634 C630 1.524 . S
C634 H646 0.956 . S
C634 H647 0.961 . S
C634 H648 0.961 . S
C635 C632 1.539 . S
C635 H649 0.958 . S
C635 H650 0.961 . S
C635 H651 0.960 . S
H636 C620 0.931 . S
H637 C625 0.929 . S
H638 C626 0.960 . S
H639 C626 0.962 . S
H640 C626 0.960 . S
H641 C627 0.961 . S
H642 C627 0.961 . S
H643 C627 0.961 . S
H644 C628 0.931 . S
H645 C633 0.930 . S
H646 C634 0.956 . S
H647 C634 0.961 . S
H648 C634 0.961 . S
H649 C635 0.958 . S
H650 C635 0.961 . S
H651 C635 0.960 . S
C652 C653 1.391 . S
C652 C654 1.394 . S
C652 H668 0.931 . S
C653 C652 1.391 . S
C653 C657 1.376 . S
C654 C652 1.394 . S
C654 C655 1.369 . S
C654 C658 1.531 . S
C655 C654 1.369 . S
C655 C656 1.410 . S
C655 C663 1.503 . S
C656 C655 1.410 . S
C656 C657 1.392 . S
C656 C659 1.511 . S
C657 C653 1.376 . S
C657 C656 1.392 . S
C657 H669 0.929 . S
C658 C654 1.531 . S
C658 H670 0.960 . S
C658 H671 0.962 . S
C658 H672 0.960 . S
C659 C656 1.511 . S
C659 H673 0.961 . S
C659 H674 0.961 . S
C659 H675 0.961 . S
C660 C661 1.370 . S
C660 C662 1.363 . S
C660 H676 0.931 . S
C661 C660 1.370 . S
C661 C665 1.408 . S
C662 C660 1.363 . S
C662 C663 1.370 . S
C662 C666 1.524 . S
C663 C655 1.503 . S
C663 C662 1.370 . S
C663 C664 1.403 . S
C664 C663 1.403 . S
C664 C665 1.404 . S
C664 C667 1.539 . S
C665 C661 1.408 . S
C665 C664 1.404 . S
C665 H677 0.930 . S
C666 C662 1.524 . S
C666 H678 0.956 . S
C666 H679 0.961 . S
C666 H680 0.961 . S
C667 C664 1.539 . S
C667 H681 0.958 . S
C667 H682 0.961 . S
C667 H683 0.960 . S
H668 C652 0.931 . S
H669 C657 0.929 . S
H670 C658 0.960 . S
H671 C658 0.962 . S
H672 C658 0.960 . S
H673 C659 0.961 . S
H674 C659 0.961 . S
H675 C659 0.961 . S
H676 C660 0.931 . S
H677 C665 0.930 . S
H678 C666 0.956 . S
H679 C666 0.961 . S
H680 C666 0.961 . S
H681 C667 0.958 . S
H682 C667 0.961 . S
H683 C667 0.960 . S
C684 C685 1.391 . S
C684 C686 1.394 . S
C684 H700 0.931 . S
C685 C684 1.391 . S
C685 C689 1.376 . S
C686 C684 1.394 . S
C686 C687 1.369 . S
C686 C690 1.531 . S
C687 C686 1.369 . S
C687 C688 1.410 . S
C687 C695 1.503 . S
C688 C687 1.410 . S
C688 C689 1.392 . S
C688 C691 1.511 . S
C689 C685 1.376 . S
C689 C688 1.392 . S
C689 H701 0.929 . S
C690 C686 1.531 . S
C690 H702 0.960 . S
C690 H703 0.962 . S
C690 H704 0.960 . S
C691 C688 1.511 . S
C691 H705 0.961 . S
C691 H706 0.961 . S
C691 H707 0.961 . S
C692 C693 1.370 . S
C692 C694 1.363 . S
C692 H708 0.931 . S
C693 C692 1.370 . S
C693 C697 1.408 . S
C694 C692 1.363 . S
C694 C695 1.370 . S
C694 C698 1.524 . S
C695 C687 1.503 . S
C695 C694 1.370 . S
C695 C696 1.403 . S
C696 C695 1.403 . S
C696 C697 1.404 . S
C696 C699 1.539 . S
C697 C693 1.408 . S
C697 C696 1.404 . S
C697 H709 0.930 . S
C698 C694 1.524 . S
C698 H710 0.956 . S
C698 H711 0.961 . S
C698 H712 0.961 . S
C699 C696 1.539 . S
C699 H713 0.958 . S
C699 H714 0.961 . S
C699 H715 0.960 . S
H700 C684 0.931 . S
H701 C689 0.929 . S
H702 C690 0.960 . S
H703 C690 0.962 . S
H704 C690 0.960 . S
H705 C691 0.961 . S
H706 C691 0.961 . S
H707 C691 0.961 . S
H708 C692 0.931 . S
H709 C697 0.930 . S
H710 C698 0.956 . S
H711 C698 0.961 . S
H712 C698 0.961 . S
H713 C699 0.958 . S
H714 C699 0.961 . S
H715 C699 0.960 . S
C716 C717 1.391 . S
C716 C718 1.394 . S
C716 H732 0.931 . S
C717 C716 1.391 . S
C717 C721 1.376 . S
C718 C716 1.394 . S
C718 C719 1.369 . S
C718 C722 1.531 . S
C719 C718 1.369 . S
C719 C720 1.410 . S
C719 C727 1.503 . S
C720 C719 1.410 . S
C720 C721 1.392 . S
C720 C723 1.511 . S
C721 C717 1.376 . S
C721 C720 1.392 . S
C721 H733 0.929 . S
C722 C718 1.531 . S
C722 H734 0.960 . S
C722 H735 0.962 . S
C722 H736 0.960 . S
C723 C720 1.511 . S
C723 H737 0.961 . S
C723 H738 0.961 . S
C723 H739 0.961 . S
C724 C725 1.370 . S
C724 C726 1.363 . S
C724 H740 0.931 . S
C725 C724 1.370 . S
C725 C729 1.408 . S
C726 C724 1.363 . S
C726 C727 1.370 . S
C726 C730 1.524 . S
C727 C719 1.503 . S
C727 C726 1.370 . S
C727 C728 1.403 . S
C728 C727 1.403 . S
C728 C729 1.404 . S
C728 C731 1.539 . S
C729 C725 1.408 . S
C729 C728 1.404 . S
C729 H741 0.930 . S
C730 C726 1.524 . S
C730 H742 0.956 . S
C730 H743 0.961 . S
C730 H744 0.961 . S
C731 C728 1.539 . S
C731 H745 0.958 . S
C731 H746 0.961 . S
C731 H747 0.960 . S
H732 C716 0.931 . S
H733 C721 0.929 . S
H734 C722 0.960 . S
H735 C722 0.962 . S
H736 C722 0.960 . S
H737 C723 0.961 . S
H738 C723 0.961 . S
H739 C723 0.961 . S
H740 C724 0.931 . S
H741 C729 0.930 . S
H742 C730 0.956 . S
H743 C730 0.961 . S
H744 C730 0.961 . S
H745 C731 0.958 . S
H746 C731 0.961 . S
H747 C731 0.960 . S
C748 C749 1.391 . S
C748 C750 1.394 . S
C748 H764 0.931 . S
C749 C748 1.391 . S
C749 C753 1.376 . S
C750 C748 1.394 . S
C750 C751 1.369 . S
C750 C754 1.531 . S
C751 C750 1.369 . S
C751 C752 1.410 . S
C751 C759 1.503 . S
C752 C751 1.410 . S
C752 C753 1.392 . S
C752 C755 1.511 . S
C753 C749 1.376 . S
C753 C752 1.392 . S
C753 H765 0.929 . S
C754 C750 1.531 . S
C754 H766 0.960 . S
C754 H767 0.962 . S
C754 H768 0.960 . S
C755 C752 1.511 . S
C755 H769 0.961 . S
C755 H770 0.961 . S
C755 H771 0.961 . S
C756 C757 1.370 . S
C756 C758 1.363 . S
C756 H772 0.931 . S
C757 C756 1.370 . S
C757 C761 1.408 . S
C758 C756 1.363 . S
C758 C759 1.370 . S
C758 C762 1.524 . S
C759 C751 1.503 . S
C759 C758 1.370 . S
C759 C760 1.403 . S
C760 C759 1.403 . S
C760 C761 1.404 . S
C760 C763 1.539 . S
C761 C757 1.408 . S
C761 C760 1.404 . S
C761 H773 0.930 . S
C762 C758 1.524 . S
C762 H774 0.956 . S
C762 H775 0.961 . S
C762 H776 0.961 . S
C763 C760 1.539 . S
C763 H777 0.958 . S
C763 H778 0.961 . S
C763 H779 0.960 . S
H764 C748 0.931 . S
H765 C753 0.929 . S
H766 C754 0.960 . S
H767 C754 0.962 . S
H768 C754 0.960 . S
H769 C755 0.961 . S
H770 C755 0.961 . S
H771 C755 0.961 . S
H772 C756 0.931 . S
H773 C761 0.930 . S
H774 C762 0.956 . S
H775 C762 0.961 . S
H776 C762 0.961 . S
H777 C763 0.958 . S
H778 C763 0.961 . S
H779 C763 0.960 . S
C780 C781 1.391 . S
C780 C782 1.394 . S
C780 H796 0.931 . S
C781 C780 1.391 . S
C781 C785 1.376 . S
C782 C780 1.394 . S
C782 C783 1.369 . S
C782 C786 1.531 . S
C783 C782 1.369 . S
C783 C784 1.410 . S
C783 C791 1.503 . S
C784 C783 1.410 . S
C784 C785 1.392 . S
C784 C787 1.511 . S
C785 C781 1.376 . S
C785 C784 1.392 . S
C785 H797 0.929 . S
C786 C782 1.531 . S
C786 H798 0.960 . S
C786 H799 0.962 . S
C786 H800 0.960 . S
C787 C784 1.511 . S
C787 H801 0.961 . S
C787 H802 0.961 . S
C787 H803 0.961 . S
C788 C789 1.370 . S
C788 C790 1.363 . S
C788 H804 0.931 . S
C789 C788 1.370 . S
C789 C793 1.408 . S
C790 C788 1.363 . S
C790 C791 1.370 . S
C790 C794 1.524 . S
C791 C783 1.503 . S
C791 C790 1.370 . S
C791 C792 1.403 . S
C792 C791 1.403 . S
C792 C793 1.404 . S
C792 C795 1.539 . S
C793 C789 1.408 . S
C793 C792 1.404 . S
C793 H805 0.930 . S
C794 C790 1.524 . S
C794 H806 0.956 . S
C794 H807 0.961 . S
C794 H808 0.961 . S
C795 C792 1.539 . S
C795 H809 0.958 . S
C795 H810 0.961 . S
C795 H811 0.960 . S
H796 C780 0.931 . S
H797 C785 0.929 . S
H798 C786 0.960 . S
H799 C786 0.962 . S
H800 C786 0.960 . S
H801 C787 0.961 . S
H802 C787 0.961 . S
H803 C787 0.961 . S
H804 C788 0.931 . S
H805 C793 0.930 . S
H806 C794 0.956 . S
H807 C794 0.961 . S
H808 C794 0.961 . S
H809 C795 0.958 . S
H810 C795 0.961 . S
H811 C795 0.960 . S
C812 C813 1.391 . S
C812 C814 1.394 . S
C812 H828 0.931 . S
C813 C812 1.391 . S
C813 C817 1.376 . S
C814 C812 1.394 . S
C814 C815 1.369 . S
C814 C818 1.531 . S
C815 C814 1.369 . S
C815 C816 1.410 . S
C815 C823 1.503 . S
C816 C815 1.410 . S
C816 C817 1.392 . S
C816 C819 1.511 . S
C817 C813 1.376 . S
C817 C816 1.392 . S
C817 H829 0.929 . S
C818 C814 1.531 . S
C818 H830 0.960 . S
C818 H831 0.962 . S
C818 H832 0.960 . S
C819 C816 1.511 . S
C819 H833 0.961 . S
C819 H834 0.961 . S
C819 H835 0.961 . S
C820 C821 1.370 . S
C820 C822 1.363 . S
C820 H836 0.931 . S
C821 C820 1.370 . S
C821 C825 1.408 . S
C822 C820 1.363 . S
C822 C823 1.370 . S
C822 C826 1.524 . S
C823 C815 1.503 . S
C823 C822 1.370 . S
C823 C824 1.403 . S
C824 C823 1.403 . S
C824 C825 1.404 . S
C824 C827 1.539 . S
C825 C821 1.408 . S
C825 C824 1.404 . S
C825 H837 0.930 . S
C826 C822 1.524 . S
C826 H838 0.956 . S
C826 H839 0.961 . S
C826 H840 0.961 . S
C827 C824 1.539 . S
C827 H841 0.958 . S
C827 H842 0.961 . S
C827 H843 0.960 . S
H828 C812 0.931 . S
H829 C817 0.929 . S
H830 C818 0.960 . S
H831 C818 0.962 . S
H832 C818 0.960 . S
H833 C819 0.961 . S
H834 C819 0.961 . S
H835 C819 0.961 . S
H836 C820 0.931 . S
H837 C825 0.930 . S
H838 C826 0.956 . S
H839 C826 0.961 . S
H840 C826 0.961 . S
H841 C827 0.958 . S
H842 C827 0.961 . S
H843 C827 0.960 . S
C844 C845 1.391 . S
C844 C846 1.394 . S
C844 H860 0.931 . S
C845 C844 1.391 . S
C845 C849 1.376 . S
C846 C844 1.394 . S
C846 C847 1.369 . S
C846 C850 1.531 . S
C847 C846 1.369 . S
C847 C848 1.410 . S
C847 C855 1.503 . S
C848 C847 1.410 . S
C848 C849 1.392 . S
C848 C851 1.511 . S
C849 C845 1.376 . S
C849 C848 1.392 . S
C849 H861 0.929 . S
C850 C846 1.531 . S
C850 H862 0.960 . S
C850 H863 0.962 . S
C850 H864 0.960 . S
C851 C848 1.511 . S
C851 H865 0.961 . S
C851 H866 0.961 . S
C851 H867 0.961 . S
C852 C853 1.370 . S
C852 C854 1.363 . S
C852 H868 0.931 . S
C853 C852 1.370 . S
C853 C857 1.408 . S
C854 C852 1.363 . S
C854 C855 1.370 . S
C854 C858 1.524 . S
C855 C847 1.503 . S
C855 C854 1.370 . S
C855 C856 1.403 . S
C856 C855 1.403 . S
C856 C857 1.404 . S
C856 C859 1.539 . S
C857 C853 1.408 . S
C857 C856 1.404 . S
C857 H869 0.930 . S
C858 C854 1.524 . S
C858 H870 0.956 . S
C858 H871 0.961 . S
C858 H872 0.961 . S
C859 C856 1.539 . S
C859 H873 0.958 . S
C859 H874 0.961 . S
C859 H875 0.960 . S
H860 C844 0.931 . S
H861 C849 0.929 . S
H862 C850 0.960 . S
H863 C850 0.962 . S
H864 C850 0.960 . S
H865 C851 0.961 . S
H866 C851 0.961 . S
H867 C851 0.961 . S
H868 C852 0.931 . S
H869 C857 0.930 . S
H870 C858 0.956 . S
H871 C858 0.961 . S
H872 C858 0.961 . S
H873 C859 0.958 . S
H874 C859 0.961 . S
H875 C859 0.960 . S
C876 C877 1.391 . S
C876 C878 1.394 . S
C876 H892 0.931 . S
C877 C876 1.391 . S
C877 C881 1.376 . S
C878 C876 1.394 . S
C878 C879 1.369 . S
C878 C882 1.531 . S
C879 C878 1.369 . S
C879 C880 1.410 . S
C879 C887 1.503 . S
C880 C879 1.410 . S
C880 C881 1.392 . S
C880 C883 1.511 1_554 S
C881 C877 1.376 . S
C881 C880 1.392 . S
C881 H893 0.929 1_554 S
C882 C878 1.531 . S
C882 H894 0.960 . S
C882 H895 0.962 . S
C882 H896 0.960 . S
C883 C880 1.511 1_556 S
C883 H897 0.961 . S
C883 H898 0.965 . S
C883 H899 0.961 . S
C884 C885 1.370 . S
C884 C886 1.363 . S
C884 H900 0.931 . S
C885 C884 1.370 . S
C885 C889 1.408 . S
C886 C884 1.363 . S
C886 C887 1.370 . S
C886 C890 1.524 . S
C887 C879 1.503 . S
C887 C886 1.370 . S
C887 C888 1.403 . S
C888 C887 1.403 . S
C888 C889 1.404 . S
C888 C891 1.539 . S
C889 C885 1.408 . S
C889 C888 1.404 . S
C889 H901 0.930 . S
C890 C886 1.524 . S
C890 H902 0.956 . S
C890 H903 0.961 . S
C890 H904 0.961 . S
C891 C888 1.539 . S
C891 H905 0.958 . S
C891 H906 0.961 . S
C891 H907 0.960 . S
H892 C876 0.931 . S
H893 C881 0.929 1_556 S
H894 C882 0.960 . S
H895 C882 0.962 . S
H896 C882 0.960 . S
H897 C883 0.961 . S
H898 C883 0.965 . S
H899 C883 0.961 . S
H900 C884 0.931 . S
H901 C889 0.930 . S
H902 C890 0.956 . S
H903 C890 0.961 . S
H904 C890 0.961 . S
H905 C891 0.958 . S
H906 C891 0.961 . S
H907 C891 0.960 . S
C908 C909 1.391 . S
C908 C910 1.394 . S
C908 H924 0.931 . S
C909 C908 1.391 . S
C909 C913 1.376 . S
C910 C908 1.394 . S
C910 C911 1.369 . S
C910 C914 1.531 . S
C911 C910 1.369 . S
C911 C912 1.410 . S
C911 C919 1.503 . S
C912 C911 1.410 . S
C912 C913 1.392 . S
C912 C915 1.511 . S
C913 C909 1.376 . S
C913 C912 1.392 . S
C913 H925 0.929 . S
C914 C910 1.531 . S
C914 H926 0.960 . S
C914 H927 0.962 . S
C914 H928 0.960 . S
C915 C912 1.511 . S
C915 H929 0.961 . S
C915 H930 0.961 . S
C915 H931 0.961 . S
C916 C917 1.370 . S
C916 C918 1.363 . S
C916 H932 0.931 . S
C917 C916 1.370 . S
C917 C921 1.408 . S
C918 C916 1.363 . S
C918 C919 1.370 . S
C918 C922 1.524 . S
C919 C911 1.503 . S
C919 C918 1.370 . S
C919 C920 1.403 . S
C920 C919 1.403 . S
C920 C921 1.404 . S
C920 C923 1.539 . S
C921 C917 1.408 . S
C921 C920 1.404 . S
C921 H933 0.930 . S
C922 C918 1.524 . S
C922 H934 0.956 . S
C922 H935 0.961 . S
C922 H936 0.961 . S
C923 C920 1.539 . S
C923 H937 0.958 . S
C923 H938 0.961 . S
C923 H939 0.960 . S
H924 C908 0.931 . S
H925 C913 0.929 . S
H926 C914 0.960 . S
H927 C914 0.962 . S
H928 C914 0.960 . S
H929 C915 0.961 . S
H930 C915 0.961 . S
H931 C915 0.961 . S
H932 C916 0.931 . S
H933 C921 0.930 . S
H934 C922 0.956 . S
H935 C922 0.961 . S
H936 C922 0.961 . S
H937 C923 0.958 . S
H938 C923 0.961 . S
H939 C923 0.960 . S
C940 C941 1.391 . S
C940 C942 1.394 . S
C940 H956 0.931 . S
C941 C940 1.391 . S
C941 C945 1.376 . S
C942 C940 1.394 . S
C942 C943 1.369 . S
C942 C946 1.531 . S
C943 C942 1.369 . S
C943 C944 1.410 . S
C943 C951 1.503 . S
C944 C943 1.410 . S
C944 C945 1.392 . S
C944 C947 1.511 . S
C945 C941 1.376 . S
C945 C944 1.392 . S
C945 H957 0.929 . S
C946 C942 1.531 . S
C946 H958 0.960 . S
C946 H959 0.962 . S
C946 H960 0.960 . S
C947 C944 1.511 . S
C947 H961 0.961 . S
C947 H962 0.961 . S
C947 H963 0.961 . S
C948 C949 1.370 . S
C948 C950 1.363 . S
C948 H964 0.931 . S
C949 C948 1.370 . S
C949 C953 1.408 . S
C950 C948 1.363 . S
C950 C951 1.370 . S
C950 C954 1.524 . S
C951 C943 1.503 . S
C951 C950 1.370 . S
C951 C952 1.403 . S
C952 C951 1.403 . S
C952 C953 1.404 . S
C952 C955 1.539 . S
C953 C949 1.408 . S
C953 C952 1.404 . S
C953 H965 0.930 . S
C954 C950 1.524 . S
C954 H966 0.956 . S
C954 H967 0.961 . S
C954 H968 0.961 . S
C955 C952 1.539 . S
C955 H969 0.958 . S
C955 H970 0.961 . S
C955 H971 0.960 . S
H956 C940 0.931 . S
H957 C945 0.929 . S
H958 C946 0.960 . S
H959 C946 0.962 . S
H960 C946 0.960 . S
H961 C947 0.961 . S
H962 C947 0.961 . S
H963 C947 0.961 . S
H964 C948 0.931 . S
H965 C953 0.930 . S
H966 C954 0.956 . S
H967 C954 0.961 . S
H968 C954 0.961 . S
H969 C955 0.958 . S
H970 C955 0.961 . S
H971 C955 0.960 . S
C972 C973 1.391 . S
C972 C974 1.394 . S
C972 H988 0.931 . S
C973 C972 1.391 . S
C973 C977 1.376 . S
C974 C972 1.394 . S
C974 C975 1.369 . S
C974 C978 1.531 . S
C975 C974 1.369 . S
C975 C976 1.410 . S
C975 C983 1.503 . S
C976 C975 1.410 . S
C976 C977 1.392 . S
C976 C979 1.511 . S
C977 C973 1.376 . S
C977 C976 1.392 . S
C977 H989 0.929 . S
C978 C974 1.531 . S
C978 H990 0.960 . S
C978 H991 0.962 . S
C978 H992 0.960 . S
C979 C976 1.511 . S
C979 H993 0.961 . S
C979 H994 0.961 . S
C979 H995 0.961 . S
C980 C981 1.370 . S
C980 C982 1.363 . S
C980 H996 0.931 . S
C981 C980 1.370 . S
C981 C985 1.408 . S
C982 C980 1.363 . S
C982 C983 1.370 . S
C982 C986 1.524 . S
C983 C975 1.503 . S
C983 C982 1.370 . S
C983 C984 1.403 . S
C984 C983 1.403 . S
C984 C985 1.404 . S
C984 C987 1.539 . S
C985 C981 1.408 . S
C985 C984 1.404 . S
C985 H997 0.930 . S
C986 C982 1.524 . S
C986 H998 0.956 . S
C986 H999 0.961 . S
C986 H1000 0.961 . S
C987 C984 1.539 . S
C987 H1001 0.958 . S
C987 H1002 0.961 . S
C987 H1003 0.960 . S
H988 C972 0.931 . S
H989 C977 0.929 . S
H990 C978 0.960 . S
H991 C978 0.962 . S
H992 C978 0.960 . S
H993 C979 0.961 . S
H994 C979 0.961 . S
H995 C979 0.961 . S
H996 C980 0.931 . S
H997 C985 0.930 . S
H998 C986 0.956 . S
H999 C986 0.961 . S
H1000 C986 0.961 . S
H1001 C987 0.958 . S
H1002 C987 0.961 . S
H1003 C987 0.960 . S
C1004 C1005 1.391 . S
C1004 C1006 1.394 . S
C1004 H1020 0.931 . S
C1005 C1004 1.391 . S
C1005 C1009 1.376 . S
C1006 C1004 1.394 . S
C1006 C1007 1.369 . S
C1006 C1010 1.531 . S
C1007 C1006 1.369 . S
C1007 C1008 1.410 . S
C1007 C1015 1.503 . S
C1008 C1007 1.410 . S
C1008 C1009 1.392 . S
C1008 C1011 1.511 . S
C1009 C1005 1.376 . S
C1009 C1008 1.392 . S
C1009 H1021 0.929 . S
C1010 C1006 1.531 . S
C1010 H1022 0.960 . S
C1010 H1023 0.962 . S
C1010 H1024 0.960 . S
C1011 C1008 1.511 . S
C1011 H1025 0.961 . S
C1011 H1026 0.961 . S
C1011 H1027 0.961 . S
C1012 C1013 1.370 . S
C1012 C1014 1.363 . S
C1012 H1028 0.931 . S
C1013 C1012 1.370 . S
C1013 C1017 1.408 . S
C1014 C1012 1.363 . S
C1014 C1015 1.370 . S
C1014 C1018 1.524 . S
C1015 C1007 1.503 . S
C1015 C1014 1.370 . S
C1015 C1016 1.403 . S
C1016 C1015 1.403 . S
C1016 C1017 1.404 . S
C1016 C1019 1.539 . S
C1017 C1013 1.408 . S
C1017 C1016 1.404 . S
C1017 H1029 0.930 . S
C1018 C1014 1.524 . S
C1018 H1030 0.956 . S
C1018 H1031 0.961 . S
C1018 H1032 0.961 . S
C1019 C1016 1.539 . S
C1019 H1033 0.958 . S
C1019 H1034 0.961 . S
C1019 H1035 0.960 . S
H1020 C1004 0.931 . S
H1021 C1009 0.929 . S
H1022 C1010 0.960 . S
H1023 C1010 0.962 . S
H1024 C1010 0.960 . S
H1025 C1011 0.961 . S
H1026 C1011 0.961 . S
H1027 C1011 0.961 . S
H1028 C1012 0.931 . S
H1029 C1017 0.930 . S
H1030 C1018 0.956 . S
H1031 C1018 0.961 . S
H1032 C1018 0.961 . S
H1033 C1019 0.958 . S
H1034 C1019 0.961 . S
H1035 C1019 0.960 . S
C1036 C1037 1.391 . S
C1036 C1038 1.394 . S
C1036 H1052 0.931 . S
C1037 C1036 1.391 . S
C1037 C1041 1.376 . S
C1038 C1036 1.394 . S
C1038 C1039 1.369 . S
C1038 C1042 1.531 . S
C1039 C1038 1.369 . S
C1039 C1040 1.410 . S
C1039 C1047 1.503 . S
C1040 C1039 1.410 . S
C1040 C1041 1.392 . S
C1040 C1043 1.511 . S
C1041 C1037 1.376 . S
C1041 C1040 1.392 . S
C1041 H1053 0.929 . S
C1042 C1038 1.531 . S
C1042 H1054 0.960 . S
C1042 H1055 0.962 . S
C1042 H1056 0.960 . S
C1043 C1040 1.511 . S
C1043 H1057 0.961 . S
C1043 H1058 0.961 . S
C1043 H1059 0.961 . S
C1044 C1045 1.370 . S
C1044 C1046 1.363 . S
C1044 H1060 0.931 . S
C1045 C1044 1.370 . S
C1045 C1049 1.408 . S
C1046 C1044 1.363 . S
C1046 C1047 1.370 . S
C1046 C1050 1.524 . S
C1047 C1039 1.503 . S
C1047 C1046 1.370 . S
C1047 C1048 1.403 . S
C1048 C1047 1.403 . S
C1048 C1049 1.404 . S
C1048 C1051 1.539 . S
C1049 C1045 1.408 . S
C1049 C1048 1.404 . S
C1049 H1061 0.930 . S
C1050 C1046 1.524 . S
C1050 H1062 0.956 . S
C1050 H1063 0.961 . S
C1050 H1064 0.961 . S
C1051 C1048 1.539 . S
C1051 H1065 0.958 . S
C1051 H1066 0.961 . S
C1051 H1067 0.960 . S
H1052 C1036 0.931 . S
H1053 C1041 0.929 . S
H1054 C1042 0.960 . S
H1055 C1042 0.962 . S
H1056 C1042 0.960 . S
H1057 C1043 0.961 . S
H1058 C1043 0.961 . S
H1059 C1043 0.961 . S
H1060 C1044 0.931 . S
H1061 C1049 0.930 . S
H1062 C1050 0.956 . S
H1063 C1050 0.961 . S
H1064 C1050 0.961 . S
H1065 C1051 0.958 . S
H1066 C1051 0.961 . S
H1067 C1051 0.960 . S
C1068 C1069 1.391 . S
C1068 C1070 1.394 . S
C1068 H1084 0.931 . S
C1069 C1068 1.391 . S
C1069 C1073 1.376 . S
C1070 C1068 1.394 . S
C1070 C1071 1.369 . S
C1070 C1074 1.531 . S
C1071 C1070 1.369 . S
C1071 C1072 1.410 . S
C1071 C1079 1.503 . S
C1072 C1071 1.410 . S
C1072 C1073 1.392 . S
C1072 C1075 1.511 . S
C1073 C1069 1.376 . S
C1073 C1072 1.392 . S
C1073 H1085 0.929 . S
C1074 C1070 1.531 . S
C1074 H1086 0.960 . S
C1074 H1087 0.962 . S
C1074 H1088 0.960 . S
C1075 C1072 1.511 . S
C1075 H1089 0.961 . S
C1075 H1090 0.961 . S
C1075 H1091 0.961 . S
C1076 C1077 1.370 . S
C1076 C1078 1.363 1_554 S
C1076 H1092 0.931 . S
C1077 C1076 1.370 . S
C1077 C1081 1.408 1_554 S
C1078 C1076 1.363 1_556 S
C1078 C1079 1.370 . S
C1078 C1082 1.524 . S
C1079 C1071 1.503 . S
C1079 C1078 1.370 . S
C1079 C1080 1.403 . S
C1080 C1079 1.403 . S
C1080 C1081 1.404 . S
C1080 C1083 1.539 . S
C1081 C1077 1.408 1_556 S
C1081 C1080 1.404 . S
C1081 H1093 0.930 . S
C1082 C1078 1.524 . S
C1082 H1094 0.956 . S
C1082 H1095 0.961 . S
C1082 H1096 0.980 . S
C1083 C1080 1.539 . S
C1083 H1097 0.958 . S
C1083 H1098 0.961 . S
C1083 H1099 0.960 . S
H1084 C1068 0.931 . S
H1085 C1073 0.929 . S
H1086 C1074 0.960 . S
H1087 C1074 0.962 . S
H1088 C1074 0.960 . S
H1089 C1075 0.961 . S
H1090 C1075 0.961 . S
H1091 C1075 0.961 . S
H1092 C1076 0.931 . S
H1093 C1081 0.930 . S
H1094 C1082 0.956 . S
H1095 C1082 0.961 . S
H1096 C1082 0.980 . S
H1097 C1083 0.958 . S
H1098 C1083 0.961 . S
H1099 C1083 0.960 . S
C1100 C1101 1.391 . S
C1100 C1102 1.394 . S
C1100 H1116 0.931 . S
C1101 C1100 1.391 . S
C1101 C1105 1.376 . S
C1102 C1100 1.394 . S
C1102 C1103 1.369 . S
C1102 C1106 1.531 . S
C1103 C1102 1.369 . S
C1103 C1104 1.410 . S
C1103 C1111 1.503 . S
C1104 C1103 1.410 . S
C1104 C1105 1.392 . S
C1104 C1107 1.511 . S
C1105 C1101 1.376 . S
C1105 C1104 1.392 . S
C1105 H1117 0.929 . S
C1106 C1102 1.531 . S
C1106 H1118 0.960 . S
C1106 H1119 0.962 . S
C1106 H1120 0.960 . S
C1107 C1104 1.511 . S
C1107 H1121 0.961 . S
C1107 H1122 0.961 . S
C1107 H1123 0.961 . S
C1108 C1109 1.370 . S
C1108 C1110 1.363 . S
C1108 H1124 0.931 . S
C1109 C1108 1.370 . S
C1109 C1113 1.408 . S
C1110 C1108 1.363 . S
C1110 C1111 1.370 . S
C1110 C1114 1.524 . S
C1111 C1103 1.503 . S
C1111 C1110 1.370 . S
C1111 C1112 1.403 . S
C1112 C1111 1.403 . S
C1112 C1113 1.404 . S
C1112 C1115 1.539 . S
C1113 C1109 1.408 . S
C1113 C1112 1.404 . S
C1113 H1125 0.930 . S
C1114 C1110 1.524 . S
C1114 H1126 0.956 . S
C1114 H1127 0.961 . S
C1114 H1128 0.961 . S
C1115 C1112 1.539 . S
C1115 H1129 0.958 . S
C1115 H1130 0.961 . S
C1115 H1131 0.960 . S
H1116 C1100 0.931 . S
H1117 C1105 0.929 . S
H1118 C1106 0.960 . S
H1119 C1106 0.962 . S
H1120 C1106 0.960 . S
H1121 C1107 0.961 . S
H1122 C1107 0.961 . S
H1123 C1107 0.961 . S
H1124 C1108 0.931 . S
H1125 C1113 0.930 . S
H1126 C1114 0.956 . S
H1127 C1114 0.961 . S
H1128 C1114 0.961 . S
H1129 C1115 0.958 . S
H1130 C1115 0.961 . S
H1131 C1115 0.960 . S
C1132 C1133 1.391 . S
C1132 C1134 1.394 . S
C1132 H1148 0.931 . S
C1133 C1132 1.391 . S
C1133 C1137 1.376 . S
C1134 C1132 1.394 . S
C1134 C1135 1.369 . S
C1134 C1138 1.531 . S
C1135 C1134 1.369 . S
C1135 C1136 1.410 . S
C1135 C1143 1.503 . S
C1136 C1135 1.410 . S
C1136 C1137 1.392 . S
C1136 C1139 1.511 . S
C1137 C1133 1.376 . S
C1137 C1136 1.392 . S
C1137 H1149 0.929 . S
C1138 C1134 1.531 . S
C1138 H1150 0.960 . S
C1138 H1151 0.962 . S
C1138 H1152 0.960 . S
C1139 C1136 1.511 . S
C1139 H1153 0.961 . S
C1139 H1154 0.961 . S
C1139 H1155 0.961 . S
C1140 C1141 1.370 . S
C1140 C1142 1.363 . S
C1140 H1156 0.931 . S
C1141 C1140 1.370 . S
C1141 C1145 1.408 . S
C1142 C1140 1.363 . S
C1142 C1143 1.370 . S
C1142 C1146 1.524 . S
C1143 C1135 1.503 . S
C1143 C1142 1.370 . S
C1143 C1144 1.403 . S
C1144 C1143 1.403 . S
C1144 C1145 1.404 . S
C1144 C1147 1.539 . S
C1145 C1141 1.408 . S
C1145 C1144 1.404 . S
C1145 H1157 0.930 . S
C1146 C1142 1.524 . S
C1146 H1158 0.956 . S
C1146 H1159 0.961 . S
C1146 H1160 0.961 . S
C1147 C1144 1.539 . S
C1147 H1161 0.958 . S
C1147 H1162 0.961 . S
C1147 H1163 0.960 . S
H1148 C1132 0.931 . S
H1149 C1137 0.929 . S
H1150 C1138 0.960 . S
H1151 C1138 0.962 . S
H1152 C1138 0.960 . S
H1153 C1139 0.961 . S
H1154 C1139 0.961 . S
H1155 C1139 0.961 . S
H1156 C1140 0.931 . S
H1157 C1145 0.930 . S
H1158 C1146 0.956 . S
H1159 C1146 0.961 . S
H1160 C1146 0.961 . S
H1161 C1147 0.958 . S
H1162 C1147 0.961 . S
H1163 C1147 0.960 . S
C1164 C1165 1.391 . S
C1164 C1166 1.394 . S
C1164 H1180 0.931 . S
C1165 C1164 1.391 . S
C1165 C1169 1.376 . S
C1166 C1164 1.394 . S
C1166 C1167 1.369 . S
C1166 C1170 1.531 . S
C1167 C1166 1.369 . S
C1167 C1168 1.410 . S
C1167 C1175 1.503 . S
C1168 C1167 1.410 . S
C1168 C1169 1.392 . S
C1168 C1171 1.511 . S
C1169 C1165 1.376 . S
C1169 C1168 1.392 . S
C1169 H1181 0.929 . S
C1170 C1166 1.531 . S
C1170 H1182 0.960 . S
C1170 H1183 0.962 . S
C1170 H1184 0.960 . S
C1171 C1168 1.511 . S
C1171 H1185 0.961 . S
C1171 H1186 0.961 . S
C1171 H1187 0.961 . S
C1172 C1173 1.370 . S
C1172 C1174 1.363 . S
C1172 H1188 0.931 . S
C1173 C1172 1.370 . S
C1173 C1177 1.408 . S
C1174 C1172 1.363 . S
C1174 C1175 1.370 . S
C1174 C1178 1.524 . S
C1175 C1167 1.503 . S
C1175 C1174 1.370 . S
C1175 C1176 1.403 . S
C1176 C1175 1.403 . S
C1176 C1177 1.404 . S
C1176 C1179 1.539 . S
C1177 C1173 1.408 . S
C1177 C1176 1.404 . S
C1177 H1189 0.930 . S
C1178 C1174 1.524 . S
C1178 H1190 0.956 . S
C1178 H1191 0.961 . S
C1178 H1192 0.961 . S
C1179 C1176 1.539 . S
C1179 H1193 0.958 . S
C1179 H1194 0.961 . S
C1179 H1195 0.960 . S
H1180 C1164 0.931 . S
H1181 C1169 0.929 . S
H1182 C1170 0.960 . S
H1183 C1170 0.962 . S
H1184 C1170 0.960 . S
H1185 C1171 0.961 . S
H1186 C1171 0.961 . S
H1187 C1171 0.961 . S
H1188 C1172 0.931 . S
H1189 C1177 0.930 . S
H1190 C1178 0.956 . S
H1191 C1178 0.961 . S
H1192 C1178 0.961 . S
H1193 C1179 0.958 . S
H1194 C1179 0.961 . S
H1195 C1179 0.960 . S
C1196 C1197 1.391 . S
C1196 C1198 1.394 . S
C1196 H1212 0.931 . S
C1197 C1196 1.391 . S
C1197 C1201 1.376 . S
C1198 C1196 1.394 . S
C1198 C1199 1.369 . S
C1198 C1202 1.531 . S
C1199 C1198 1.369 . S
C1199 C1200 1.410 . S
C1199 C1207 1.503 . S
C1200 C1199 1.410 . S
C1200 C1201 1.392 . S
C1200 C1203 1.511 . S
C1201 C1197 1.376 . S
C1201 C1200 1.392 . S
C1201 H1213 0.929 . S
C1202 C1198 1.531 . S
C1202 H1214 0.960 . S
C1202 H1215 0.962 . S
C1202 H1216 0.960 . S
C1203 C1200 1.511 . S
C1203 H1217 0.961 . S
C1203 H1218 0.961 . S
C1203 H1219 0.961 . S
C1204 C1205 1.370 . S
C1204 C1206 1.363 . S
C1204 H1220 0.931 . S
C1205 C1204 1.370 . S
C1205 C1209 1.408 . S
C1206 C1204 1.363 . S
C1206 C1207 1.370 . S
C1206 C1210 1.524 . S
C1207 C1199 1.503 . S
C1207 C1206 1.370 . S
C1207 C1208 1.403 . S
C1208 C1207 1.403 . S
C1208 C1209 1.404 . S
C1208 C1211 1.539 . S
C1209 C1205 1.408 . S
C1209 C1208 1.404 . S
C1209 H1221 0.930 . S
C1210 C1206 1.524 . S
C1210 H1222 0.956 . S
C1210 H1223 0.961 . S
C1210 H1224 0.961 . S
C1211 C1208 1.539 . S
C1211 H1225 0.958 . S
C1211 H1226 0.961 . S
C1211 H1227 0.960 . S
H1212 C1196 0.931 . S
H1213 C1201 0.929 . S
H1214 C1202 0.960 . S
H1215 C1202 0.962 . S
H1216 C1202 0.960 . S
H1217 C1203 0.961 . S
H1218 C1203 0.961 . S
H1219 C1203 0.961 . S
H1220 C1204 0.931 . S
H1221 C1209 0.930 . S
H1222 C1210 0.956 . S
H1223 C1210 0.961 . S
H1224 C1210 0.961 . S
H1225 C1211 0.958 . S
H1226 C1211 0.961 . S
H1227 C1211 0.960 . S
C1228 C1229 1.391 . S
C1228 C1230 1.394 . S
C1228 H1244 0.931 . S
C1229 C1228 1.391 . S
C1229 C1233 1.376 . S
C1230 C1228 1.394 . S
C1230 C1231 1.369 . S
C1230 C1234 1.531 . S
C1231 C1230 1.369 . S
C1231 C1232 1.410 . S
C1231 C1239 1.503 . S
C1232 C1231 1.410 . S
C1232 C1233 1.392 . S
C1232 C1235 1.511 . S
C1233 C1229 1.376 . S
C1233 C1232 1.392 . S
C1233 H1245 0.929 . S
C1234 C1230 1.531 . S
C1234 H1246 0.960 . S
C1234 H1247 0.962 . S
C1234 H1248 0.960 . S
C1235 C1232 1.511 . S
C1235 H1249 0.961 . S
C1235 H1250 0.961 . S
C1235 H1251 0.961 . S
C1236 C1237 1.370 . S
C1236 C1238 1.363 . S
C1236 H1252 0.931 . S
C1237 C1236 1.370 . S
C1237 C1241 1.408 . S
C1238 C1236 1.363 . S
C1238 C1239 1.370 . S
C1238 C1242 1.524 . S
C1239 C1231 1.503 . S
C1239 C1238 1.370 . S
C1239 C1240 1.403 . S
C1240 C1239 1.403 . S
C1240 C1241 1.404 . S
C1240 C1243 1.539 . S
C1241 C1237 1.408 . S
C1241 C1240 1.404 . S
C1241 H1253 0.930 . S
C1242 C1238 1.524 . S
C1242 H1254 0.956 . S
C1242 H1255 0.961 . S
C1242 H1256 0.961 . S
C1243 C1240 1.539 . S
C1243 H1257 0.958 . S
C1243 H1258 0.961 . S
C1243 H1259 0.960 . S
H1244 C1228 0.931 . S
H1245 C1233 0.929 . S
H1246 C1234 0.960 . S
H1247 C1234 0.962 . S
H1248 C1234 0.960 . S
H1249 C1235 0.961 . S
H1250 C1235 0.961 . S
H1251 C1235 0.961 . S
H1252 C1236 0.931 . S
H1253 C1241 0.930 . S
H1254 C1242 0.956 . S
H1255 C1242 0.961 . S
H1256 C1242 0.961 . S
H1257 C1243 0.958 . S
H1258 C1243 0.961 . S
H1259 C1243 0.960 . S
C1260 C1261 1.391 . S
C1260 C1262 1.394 . S
C1260 H1276 0.931 . S
C1261 C1260 1.391 . S
C1261 C1265 1.376 . S
C1262 C1260 1.394 . S
C1262 C1263 1.369 . S
C1262 C1266 1.531 . S
C1263 C1262 1.369 . S
C1263 C1264 1.410 . S
C1263 C1271 1.503 . S
C1264 C1263 1.410 . S
C1264 C1265 1.392 . S
C1264 C1267 1.511 . S
C1265 C1261 1.376 . S
C1265 C1264 1.392 . S
C1265 H1277 0.929 . S
C1266 C1262 1.531 . S
C1266 H1278 0.960 . S
C1266 H1279 0.962 . S
C1266 H1280 0.960 . S
C1267 C1264 1.511 . S
C1267 H1281 0.961 . S
C1267 H1282 0.961 . S
C1267 H1283 0.961 . S
C1268 C1269 1.370 . S
C1268 C1270 1.363 . S
C1268 H1284 0.931 . S
C1269 C1268 1.370 . S
C1269 C1273 1.408 . S
C1270 C1268 1.363 . S
C1270 C1271 1.370 . S
C1270 C1274 1.524 . S
C1271 C1263 1.503 . S
C1271 C1270 1.370 . S
C1271 C1272 1.403 . S
C1272 C1271 1.403 . S
C1272 C1273 1.404 . S
C1272 C1275 1.539 . S
C1273 C1269 1.408 . S
C1273 C1272 1.404 . S
C1273 H1285 0.930 . S
C1274 C1270 1.524 . S
C1274 H1286 0.956 . S
C1274 H1287 0.961 . S
C1274 H1288 0.961 . S
C1275 C1272 1.539 . S
C1275 H1289 0.958 . S
C1275 H1290 0.961 . S
C1275 H1291 0.960 . S
H1276 C1260 0.931 . S
H1277 C1265 0.929 . S
H1278 C1266 0.960 . S
H1279 C1266 0.962 . S
H1280 C1266 0.960 . S
H1281 C1267 0.961 . S
H1282 C1267 0.961 . S
H1283 C1267 0.961 . S
H1284 C1268 0.931 . S
H1285 C1273 0.930 . S
H1286 C1274 0.956 . S
H1287 C1274 0.961 . S
H1288 C1274 0.961 . S
H1289 C1275 0.958 . S
H1290 C1275 0.961 . S
H1291 C1275 0.960 . S
C1292 C1293 1.391 . S
C1292 C1294 1.394 . S
C1292 H1308 0.931 . S
C1293 C1292 1.391 . S
C1293 C1297 1.376 . S
C1294 C1292 1.394 . S
C1294 C1295 1.369 1_554 S
C1294 C1298 1.531 . S
C1295 C1294 1.369 1_556 S
C1295 C1296 1.410 . S
C1295 C1303 1.503 . S
C1296 C1295 1.410 . S
C1296 C1297 1.392 1_556 S
C1296 C1299 1.511 . S
C1297 C1293 1.376 . S
C1297 C1296 1.392 1_554 S
C1297 H1309 0.929 . S
C1298 C1294 1.531 . S
C1298 H1310 0.960 1_554 S
C1298 H1311 0.962 . S
C1298 H1312 0.960 . S
C1299 C1296 1.511 . S
C1299 H1313 0.961 . S
C1299 H1314 0.961 . S
C1299 H1315 0.961 . S
C1300 C1301 1.370 . S
C1300 C1302 1.363 . S
C1300 H1316 0.931 . S
C1301 C1300 1.370 . S
C1301 C1305 1.408 . S
C1302 C1300 1.363 . S
C1302 C1303 1.370 . S
C1302 C1306 1.524 1_556 S
C1303 C1295 1.503 . S
C1303 C1302 1.370 . S
C1303 C1304 1.403 . S
C1304 C1303 1.403 . S
C1304 C1305 1.404 . S
C1304 C1307 1.539 . S
C1305 C1301 1.408 . S
C1305 C1304 1.404 . S
C1305 H1317 0.930 . S
C1306 C1302 1.524 1_554 S
C1306 H1318 0.956 . S
C1306 H1319 0.961 . S
C1306 H1320 0.961 . S
C1307 C1304 1.539 . S
C1307 H1321 0.958 . S
C1307 H1322 0.961 . S
C1307 H1323 0.960 . S
H1308 C1292 0.931 . S
H1309 C1297 0.929 . S
H1310 C1298 0.960 1_556 S
H1311 C1298 0.962 . S
H1312 C1298 0.960 . S
H1313 C1299 0.961 . S
H1314 C1299 0.961 . S
H1315 C1299 0.961 . S
H1316 C1300 0.931 . S
H1317 C1305 0.930 . S
H1318 C1306 0.956 . S
H1319 C1306 0.961 . S
H1320 C1306 0.961 . S
H1321 C1307 0.958 . S
H1322 C1307 0.961 . S
H1323 C1307 0.960 . S
C1324 C1325 1.391 . S
C1324 C1326 1.394 . S
C1324 H1340 0.931 . S
C1325 C1324 1.391 . S
C1325 C1329 1.376 . S
C1326 C1324 1.394 . S
C1326 C1327 1.369 . S
C1326 C1330 1.531 . S
C1327 C1326 1.369 . S
C1327 C1328 1.410 . S
C1327 C1335 1.503 . S
C1328 C1327 1.410 . S
C1328 C1329 1.392 . S
C1328 C1331 1.511 . S
C1329 C1325 1.376 . S
C1329 C1328 1.392 . S
C1329 H1341 0.929 . S
C1330 C1326 1.531 . S
C1330 H1342 0.960 . S
C1330 H1343 0.962 . S
C1330 H1344 0.960 . S
C1331 C1328 1.511 . S
C1331 H1345 0.961 . S
C1331 H1346 0.961 . S
C1331 H1347 0.961 . S
C1332 C1333 1.370 . S
C1332 C1334 1.363 . S
C1332 H1348 0.931 . S
C1333 C1332 1.370 . S
C1333 C1337 1.408 . S
C1334 C1332 1.363 . S
C1334 C1335 1.370 . S
C1334 C1338 1.524 . S
C1335 C1327 1.503 . S
C1335 C1334 1.370 . S
C1335 C1336 1.403 . S
C1336 C1335 1.403 . S
C1336 C1337 1.404 . S
C1336 C1339 1.539 . S
C1337 C1333 1.408 . S
C1337 C1336 1.404 . S
C1337 H1349 0.930 . S
C1338 C1334 1.524 . S
C1338 H1350 0.956 . S
C1338 H1351 0.961 . S
C1338 H1352 0.961 . S
C1339 C1336 1.539 . S
C1339 H1353 0.958 . S
C1339 H1354 0.961 . S
C1339 H1355 0.960 . S
H1340 C1324 0.931 . S
H1341 C1329 0.929 . S
H1342 C1330 0.960 . S
H1343 C1330 0.962 . S
H1344 C1330 0.960 . S
H1345 C1331 0.961 . S
H1346 C1331 0.961 . S
H1347 C1331 0.961 . S
H1348 C1332 0.931 . S
H1349 C1337 0.930 . S
H1350 C1338 0.956 . S
H1351 C1338 0.961 . S
H1352 C1338 0.961 . S
H1353 C1339 0.958 . S
H1354 C1339 0.961 . S
H1355 C1339 0.960 . S
C597 C555 1.675 . S
C589 C29 1.570 . S
C621 C115 1.589 . S
C629 C375 1.620 . S
C653 C153 1.582 . S
C661 C422 1.665 . S
C685 C239 1.476 . S
C693 C458 1.489 . S
C725 C483 1.600 . S
C717 C301 1.551 . S
C749 C339 1.771 . S
C757 C519 1.929 . S
C781 C91 1.640 . S
C789 C411 1.719 . S
C813 C177 1.555 . S
C821 C447 1.554 . S
C845 C215 1.526 . S
C853 C494 1.595 . S
C885 C530 1.889 . S
C877 C277 1.787 . S
C917 C566 1.585 . S
C909 C363 1.597 . S
C949 C386 1.560 . S
C941 C53 1.558 . S
C973 C35 1.552 . S
C981 C410 1.541 . S
C1005 C109 1.377 . S
C1013 C446 1.515 . S
C1045 C484 1.468 . S
C1037 C159 1.433 . S
C1069 C233 1.563 . S
C1077 C520 1.722 . S
C1109 C556 1.520 . S
C1101 C295 1.341 . S
C1141 C376 1.354 . S
C1133 C345 1.309 . S
C1173 C554 1.443 . S
C1165 C97 1.429 . S
C1197 C171 1.391 . S
C1205 C374 1.492 . S
C1237 C412 1.546 . S
C1229 C221 1.538 . S
C1261 C283 1.382 . S
C1269 C448 1.401 . S
C1293 C357 1.484 . S
C1301 C482 1.546 . S
C1325 C47 1.579 . S
C1333 C518 1.724 . S
