# Generated by pormake.
# Topology ptr, (4,4)-cn, num edge types: 1
# Building blocks:
#     Node 0, Type 0, BuildingBlock: QUQFOY_clean_sbu_3, # of connection points: 4
#     Node 1, Type 0, BuildingBlock: QUQFOY_clean_sbu_3, # of connection points: 4
#     Node 2, Type 0, BuildingBlock: QUQFOY_clean_sbu_3, # of connection points: 4
#     Node 3, Type 0, BuildingBlock: QUQFOY_clean_sbu_3, # of connection points: 4
#     Node 4, Type 0, BuildingBlock: QUQFOY_clean_sbu_3, # of connection points: 4
#     Node 5, Type 0, BuildingBlock: QUQFOY_clean_sbu_3, # of connection points: 4
#     Node 6, Type 0, BuildingBlock: QUQFOY_clean_sbu_3, # of connection points: 4
#     Node 7, Type 0, BuildingBlock: QUQFOY_clean_sbu_3, # of connection points: 4
#     Node 8, Type 0, BuildingBlock: QUQFOY_clean_sbu_3, # of connection points: 4
#     Node 9, Type 0, BuildingBlock: QUQFOY_clean_sbu_3, # of connection points: 4
#     Node 10, Type 0, BuildingBlock: QUQFOY_clean_sbu_3, # of connection points: 4
#     Node 11, Type 0, BuildingBlock: QUQFOY_clean_sbu_3, # of connection points: 4
#     Node 12, Type 0, BuildingBlock: QUQFOY_clean_sbu_3, # of connection points: 4
#     Node 13, Type 0, BuildingBlock: QUQFOY_clean_sbu_3, # of connection points: 4
#     Node 14, Type 0, BuildingBlock: QUQFOY_clean_sbu_3, # of connection points: 4
#     Node 15, Type 0, BuildingBlock: QUQFOY_clean_sbu_3, # of connection points: 4
#     Node 16, Type 0, BuildingBlock: QUQFOY_clean_sbu_3, # of connection points: 4
#     Node 17, Type 0, BuildingBlock: QUQFOY_clean_sbu_3, # of connection points: 4
#     Node 18, Type 1, BuildingBlock: GIZVER_clean_linker_0, # of connection points: 4
#     Node 19, Type 1, BuildingBlock: GIZVER_clean_linker_0, # of connection points: 4
#     Node 20, Type 1, BuildingBlock: GIZVER_clean_linker_0, # of connection points: 4
#     Node 21, Type 1, BuildingBlock: GIZVER_clean_linker_0, # of connection points: 4
#     Node 22, Type 1, BuildingBlock: GIZVER_clean_linker_0, # of connection points: 4
#     Node 23, Type 1, BuildingBlock: GIZVER_clean_linker_0, # of connection points: 4
#     Node 24, Type 1, BuildingBlock: GIZVER_clean_linker_0, # of connection points: 4
#     Node 25, Type 1, BuildingBlock: GIZVER_clean_linker_0, # of connection points: 4
#     Node 26, Type 1, BuildingBlock: GIZVER_clean_linker_0, # of connection points: 4
#     Node 27, Type 1, BuildingBlock: GIZVER_clean_linker_0, # of connection points: 4
#     Node 28, Type 1, BuildingBlock: GIZVER_clean_linker_0, # of connection points: 4
#     Node 29, Type 1, BuildingBlock: GIZVER_clean_linker_0, # of connection points: 4
#     Node 30, Type 1, BuildingBlock: GIZVER_clean_linker_0, # of connection points: 4
#     Node 31, Type 1, BuildingBlock: GIZVER_clean_linker_0, # of connection points: 4
#     Node 32, Type 1, BuildingBlock: GIZVER_clean_linker_0, # of connection points: 4
#     Node 33, Type 1, BuildingBlock: GIZVER_clean_linker_0, # of connection points: 4
#     Node 34, Type 1, BuildingBlock: GIZVER_clean_linker_0, # of connection points: 4
#     Node 35, Type 1, BuildingBlock: GIZVER_clean_linker_0, # of connection points: 4
#     Edge 36, Type (0, 1), BuildingBlock: TEMPAE_clean_linker_10, # of connection points: 2
#     Edge 37, Type (0, 1), BuildingBlock: TEMPAE_clean_linker_10, # of connection points: 2
#     Edge 38, Type (0, 1), BuildingBlock: TEMPAE_clean_linker_10, # of connection points: 2
#     Edge 39, Type (0, 1), BuildingBlock: TEMPAE_clean_linker_10, # of connection points: 2
#     Edge 40, Type (0, 1), BuildingBlock: TEMPAE_clean_linker_10, # of connection points: 2
#     Edge 41, Type (0, 1), BuildingBlock: TEMPAE_clean_linker_10, # of connection points: 2
#     Edge 42, Type (0, 1), BuildingBlock: TEMPAE_clean_linker_10, # of connection points: 2
#     Edge 43, Type (0, 1), BuildingBlock: TEMPAE_clean_linker_10, # of connection points: 2
#     Edge 44, Type (0, 1), BuildingBlock: TEMPAE_clean_linker_10, # of connection points: 2
#     Edge 45, Type (0, 1), BuildingBlock: TEMPAE_clean_linker_10, # of connection points: 2
#     Edge 46, Type (0, 1), BuildingBlock: TEMPAE_clean_linker_10, # of connection points: 2
#     Edge 47, Type (0, 1), BuildingBlock: TEMPAE_clean_linker_10, # of connection points: 2
#     Edge 48, Type (0, 1), BuildingBlock: TEMPAE_clean_linker_10, # of connection points: 2
#     Edge 49, Type (0, 1), BuildingBlock: TEMPAE_clean_linker_10, # of connection points: 2
#     Edge 50, Type (0, 1), BuildingBlock: TEMPAE_clean_linker_10, # of connection points: 2
#     Edge 51, Type (0, 1), BuildingBlock: TEMPAE_clean_linker_10, # of connection points: 2
#     Edge 52, Type (0, 1), BuildingBlock: TEMPAE_clean_linker_10, # of connection points: 2
#     Edge 53, Type (0, 1), BuildingBlock: TEMPAE_clean_linker_10, # of connection points: 2
#     Edge 54, Type (0, 1), BuildingBlock: TEMPAE_clean_linker_10, # of connection points: 2
#     Edge 55, Type (0, 1), BuildingBlock: TEMPAE_clean_linker_10, # of connection points: 2
#     Edge 56, Type (0, 1), BuildingBlock: TEMPAE_clean_linker_10, # of connection points: 2
#     Edge 57, Type (0, 1), BuildingBlock: TEMPAE_clean_linker_10, # of connection points: 2
#     Edge 58, Type (0, 1), BuildingBlock: TEMPAE_clean_linker_10, # of connection points: 2
#     Edge 59, Type (0, 1), BuildingBlock: TEMPAE_clean_linker_10, # of connection points: 2
#     Edge 60, Type (0, 1), BuildingBlock: TEMPAE_clean_linker_10, # of connection points: 2
#     Edge 61, Type (0, 1), BuildingBlock: TEMPAE_clean_linker_10, # of connection points: 2
#     Edge 62, Type (0, 1), BuildingBlock: TEMPAE_clean_linker_10, # of connection points: 2
#     Edge 63, Type (0, 1), BuildingBlock: TEMPAE_clean_linker_10, # of connection points: 2
#     Edge 64, Type (0, 1), BuildingBlock: TEMPAE_clean_linker_10, # of connection points: 2
#     Edge 65, Type (0, 1), BuildingBlock: TEMPAE_clean_linker_10, # of connection points: 2
#     Edge 66, Type (0, 1), BuildingBlock: TEMPAE_clean_linker_10, # of connection points: 2
#     Edge 67, Type (0, 1), BuildingBlock: TEMPAE_clean_linker_10, # of connection points: 2
#     Edge 68, Type (0, 1), BuildingBlock: TEMPAE_clean_linker_10, # of connection points: 2
#     Edge 69, Type (0, 1), BuildingBlock: TEMPAE_clean_linker_10, # of connection points: 2
#     Edge 70, Type (0, 1), BuildingBlock: TEMPAE_clean_linker_10, # of connection points: 2
#     Edge 71, Type (0, 1), BuildingBlock: TEMPAE_clean_linker_10, # of connection points: 2
#     Edge 72, Type (0, 1), BuildingBlock: TEMPAE_clean_linker_10, # of connection points: 2
#     Edge 73, Type (0, 1), BuildingBlock: TEMPAE_clean_linker_10, # of connection points: 2
#     Edge 74, Type (0, 1), BuildingBlock: TEMPAE_clean_linker_10, # of connection points: 2
#     Edge 75, Type (0, 1), BuildingBlock: TEMPAE_clean_linker_10, # of connection points: 2
#     Edge 76, Type (0, 1), BuildingBlock: TEMPAE_clean_linker_10, # of connection points: 2
#     Edge 77, Type (0, 1), BuildingBlock: TEMPAE_clean_linker_10, # of connection points: 2
#     Edge 78, Type (0, 1), BuildingBlock: TEMPAE_clean_linker_10, # of connection points: 2
#     Edge 79, Type (0, 1), BuildingBlock: TEMPAE_clean_linker_10, # of connection points: 2
#     Edge 80, Type (0, 1), BuildingBlock: TEMPAE_clean_linker_10, # of connection points: 2
#     Edge 81, Type (0, 1), BuildingBlock: TEMPAE_clean_linker_10, # of connection points: 2
#     Edge 82, Type (0, 1), BuildingBlock: TEMPAE_clean_linker_10, # of connection points: 2
#     Edge 83, Type (0, 1), BuildingBlock: TEMPAE_clean_linker_10, # of connection points: 2
#     Edge 84, Type (0, 1), BuildingBlock: TEMPAE_clean_linker_10, # of connection points: 2
#     Edge 85, Type (0, 1), BuildingBlock: TEMPAE_clean_linker_10, # of connection points: 2
#     Edge 86, Type (0, 1), BuildingBlock: TEMPAE_clean_linker_10, # of connection points: 2
#     Edge 87, Type (0, 1), BuildingBlock: TEMPAE_clean_linker_10, # of connection points: 2
#     Edge 88, Type (0, 1), BuildingBlock: TEMPAE_clean_linker_10, # of connection points: 2
#     Edge 89, Type (0, 1), BuildingBlock: TEMPAE_clean_linker_10, # of connection points: 2
#     Edge 90, Type (0, 1), BuildingBlock: TEMPAE_clean_linker_10, # of connection points: 2
#     Edge 91, Type (0, 1), BuildingBlock: TEMPAE_clean_linker_10, # of connection points: 2
#     Edge 92, Type (0, 1), BuildingBlock: TEMPAE_clean_linker_10, # of connection points: 2
#     Edge 93, Type (0, 1), BuildingBlock: TEMPAE_clean_linker_10, # of connection points: 2
#     Edge 94, Type (0, 1), BuildingBlock: TEMPAE_clean_linker_10, # of connection points: 2
#     Edge 95, Type (0, 1), BuildingBlock: TEMPAE_clean_linker_10, # of connection points: 2
#     Edge 96, Type (0, 1), BuildingBlock: TEMPAE_clean_linker_10, # of connection points: 2
#     Edge 97, Type (0, 1), BuildingBlock: TEMPAE_clean_linker_10, # of connection points: 2
#     Edge 98, Type (0, 1), BuildingBlock: TEMPAE_clean_linker_10, # of connection points: 2
#     Edge 99, Type (0, 1), BuildingBlock: TEMPAE_clean_linker_10, # of connection points: 2
#     Edge 100, Type (0, 1), BuildingBlock: TEMPAE_clean_linker_10, # of connection points: 2
#     Edge 101, Type (0, 1), BuildingBlock: TEMPAE_clean_linker_10, # of connection points: 2
#     Edge 102, Type (0, 1), BuildingBlock: TEMPAE_clean_linker_10, # of connection points: 2
#     Edge 103, Type (0, 1), BuildingBlock: TEMPAE_clean_linker_10, # of connection points: 2
#     Edge 104, Type (0, 1), BuildingBlock: TEMPAE_clean_linker_10, # of connection points: 2
#     Edge 105, Type (0, 1), BuildingBlock: TEMPAE_clean_linker_10, # of connection points: 2
#     Edge 106, Type (0, 1), BuildingBlock: TEMPAE_clean_linker_10, # of connection points: 2
#     Edge 107, Type (0, 1), BuildingBlock: TEMPAE_clean_linker_10, # of connection points: 2
# Relax obj value: 0.044
# Max RMSD: 0.106
# Mean RMSD: 0.074
data_MOF--net-ptr--node1-QUQFOY_clean_sbu_3--node2-GIZVER_clean_linker_0--edge1-TEMPAE_clean_linker_10
_symmetry_space_group_name_H-M    P1
_symmetry_Int_Tables_number       1
_symmetry_cell_setting            triclinic
loop_
_symmetry_equiv_pos_as_xyz
'x, y, z'
_cell_length_a     81.488677
_cell_length_b     81.824437
_cell_length_c     50.103565
_cell_angle_alpha  90.551098
_cell_angle_beta   89.819279
_cell_angle_gamma 120.58658
loop_
_atom_site_label
_atom_site_type_symbol
_atom_site_fract_x
_atom_site_fract_y
_atom_site_fract_z
_atom_type_partial_charge
C0 C 0.94919 0.33813 0.02952 0.0
O1 O 0.94306 0.34918 0.0356 0.0
Cd2 Cd 0.96308 0.38146 0.05085 0.0
O3 O 0.96701 0.34406 0.02993 0.0
Cd4 Cd 0.99729 0.37467 0.03883 0.0
C5 C 0.98861 0.40047 0.994 0.0
O6 O 0.98661 0.38254 0.08066 0.0
O7 O 0.01379 0.40401 0.06543 0.0
O8 O 0.00999 0.35397 0.05042 0.0
C9 C 0.00148 0.3987 0.08381 0.0
O10 O 0.9772 0.40068 0.01123 0.0
C11 C 0.02619 0.36436 0.03977 0.0
O12 O 0.99649 0.39062 -0.00223 0.0
O13 O 0.02887 0.37931 0.02839 0.0
C14 C 0.61356 0.66752 -0.00306 0.0
O15 O 0.59567 0.6577 0.99304 0.0
Cd16 Cd 0.57846 0.62517 0.97801 0.0
O17 O 0.62402 0.66018 0.99407 0.0
Cd18 Cd 0.62004 0.62859 0.98297 0.0
C19 C 0.58571 0.60288 0.02996 0.0
O20 O 0.59818 0.62182 0.9455 0.0
O21 O 0.60554 0.60048 0.95439 0.0
O22 O 0.65083 0.6419 0.96039 0.0
C23 C 0.59642 0.60584 0.94001 0.0
O24 O 0.57428 0.60623 0.01719 0.0
C25 C 0.65847 0.63647 0.97752 0.0
O26 O 0.6029 0.60965 0.02237 0.0
O27 O 0.64837 0.62762 -0.00243 0.0
C28 C 0.34057 0.95589 0.99092 0.0
O29 O 0.35109 0.95023 0.98055 0.0
Cd30 Cd 0.38493 0.96921 0.97373 0.0
O31 O 0.34739 0.97321 -0.00208 0.0
Cd32 Cd 0.37822 0.00394 -0.00414 0.0
C33 C 0.40045 0.98845 0.03683 0.0
O34 O 0.38868 0.99708 0.95468 0.0
O35 O 0.40983 0.02282 0.97413 0.0
O36 O 0.36285 0.02073 0.97971 0.0
C37 C 0.40539 0.01132 0.95466 0.0
O38 O 0.40053 0.97825 0.01748 0.0
C39 C 0.36847 0.03288 -0.00143 0.0
O40 O 0.39206 0.99796 0.03503 0.0
O41 O 0.37825 0.03128 0.01696 0.0
C42 C 0.94618 0.61023 0.02289 0.0
O43 O 0.93897 0.59425 0.03427 0.0
Cd44 Cd 0.9563 0.57848 0.04314 0.0
O45 O 0.96386 0.61962 0.01705 0.0
Cd46 Cd 0.99304 0.61747 0.02448 0.0
C47 C 0.97767 0.57928 0.98332 0.0
O48 O 0.98394 0.60125 0.06715 0.0
O49 O 0.00872 0.60315 0.04836 0.0
O50 O 0.01225 0.64983 0.04145 0.0
C51 C 0.99763 0.5981 0.06829 0.0
O52 O 0.96474 0.5697 0.00039 0.0
C53 C 0.02418 0.65588 0.02243 0.0
O54 O 0.98938 0.59693 0.98685 0.0
O55 O 0.0215 0.64414 0.0038 0.0
C56 C 0.33477 0.39064 -0.00119 0.0
O57 O 0.34435 0.40709 0.9888 0.0
Cd58 Cd 0.37719 0.42133 0.97547 0.0
O59 O 0.34221 0.38032 0.00172 0.0
Cd60 Cd 0.3728 0.38163 0.99195 0.0
C61 C 0.39841 0.41936 0.03347 0.0
O62 O 0.37918 0.3979 0.9492 0.0
O63 O 0.40214 0.39517 0.96537 0.0
O64 O 0.3558 0.34846 0.97712 0.0
C65 C 0.39575 0.40039 0.94628 0.0
O66 O 0.39696 0.42965 0.01579 0.0
C67 C 0.36396 0.34292 0.99319 0.0
O68 O 0.38987 0.40138 0.03064 0.0
O69 O 0.37596 0.35531 0.00927 0.0
C70 C 0.66357 0.03825 0.01106 0.0
O71 O 0.65269 0.04442 0.018 0.0
Cd72 Cd 0.61985 0.02493 0.03112 0.0
O73 O 0.65723 0.02045 0.00962 0.0
Cd74 Cd 0.62589 0.99047 0.01619 0.0
C75 C 0.60057 0.00094 0.97258 0.0
O76 O 0.61657 -0.00051 0.05791 0.0
O77 O 0.59491 0.97383 0.03874 0.0
O78 O 0.642 0.97522 0.03573 0.0
C79 C 0.59988 0.98508 0.05859 0.0
O80 O 0.60104 0.01223 0.99062 0.0
C81 C 0.63585 0.96147 0.01926 0.0
O82 O 0.60991 0.99239 0.9753 0.0
O83 O 0.62525 0.96127 0.00055 0.0
C84 C 0.61509 0.6701 0.35449 0.0
O85 O 0.60846 0.68071 0.36067 0.0
Cd86 Cd 0.6278 0.71289 0.37675 0.0
O87 O 0.63299 0.67649 0.35497 0.0
Cd88 Cd 0.663 0.70714 0.36419 0.0
C89 C 0.65403 0.73354 0.32073 0.0
O90 O 0.65153 0.71392 0.40601 0.0
O91 O 0.67899 0.73579 0.39215 0.0
O92 O 0.67522 0.68598 0.37503 0.0
C93 C 0.66622 0.73009 0.40994 0.0
O94 O 0.64218 0.73291 0.33791 0.0
C95 C 0.69165 0.69647 0.36513 0.0
O96 O 0.66229 0.72399 0.32395 0.0
O97 O 0.69476 0.71181 0.35448 0.0
C98 C 0.27562 -9e-05 0.33229 0.0
O99 O 0.25772 0.98972 0.32901 0.0
Cd100 Cd 0.24175 0.95707 0.31477 0.0
O101 O 0.28632 0.99285 0.32933 0.0
Cd102 Cd 0.28242 0.96114 0.31906 0.0
C103 C 0.24937 0.9355 0.36697 0.0
O104 O 0.26073 0.95329 0.28093 0.0
O105 O 0.26584 0.93126 0.29441 0.0
O106 O 0.3126 0.97297 0.29495 0.0
C107 C 0.25818 0.93676 0.27748 0.0
O108 O 0.23746 0.93817 0.35426 0.0
C109 C 0.32077 0.96874 0.31286 0.0
O110 O 0.26656 0.94283 0.35915 0.0
O111 O 0.31122 0.96115 0.33383 0.0
C112 C 0.01101 0.29919 0.3201 0.0
O113 O 0.02199 0.29557 0.30654 0.0
Cd114 Cd 0.05579 0.31716 0.30319 0.0
O115 O 0.0173 0.31542 0.33112 0.0
Cd116 Cd 0.04742 0.34675 0.3331 0.0
C117 C 0.06841 0.32822 0.36951 0.0
O118 O 0.06078 0.34709 0.28969 0.0
O119 O 0.08078 0.36667 0.31863 0.0
O120 O 0.03213 0.36408 0.31955 0.0
C121 C 0.0776 0.36035 0.29484 0.0
O122 O 0.06988 0.32095 0.34767 0.0
C123 C 0.03637 0.37452 0.34025 0.0
O124 O 0.05938 0.33715 0.37063 0.0
O125 O 0.04538 0.37169 0.35857 0.0
C126 C 0.61474 0.94848 0.35023 0.0
O127 O 0.60683 0.93106 0.35622 0.0
Cd128 Cd 0.62335 0.91494 0.36815 0.0
O129 O 0.63282 0.95891 0.34897 0.0
Cd130 Cd 0.66091 0.95479 0.35515 0.0
C131 C 0.64736 0.91805 0.31083 0.0
O132 O 0.64965 0.93632 0.39605 0.0
O133 O 0.67537 0.93929 0.37899 0.0
O134 O 0.68191 0.9865 0.37387 0.0
C135 C 0.66334 0.93321 0.39784 0.0
O136 O 0.63391 0.90746 0.32662 0.0
C137 C 0.69324 0.99261 0.35414 0.0
O138 O 0.65841 0.93562 0.31598 0.0
O139 O 0.68945 0.98122 0.33464 0.0
C140 C 0.00066 0.72631 0.33606 0.0
O141 O 0.01001 0.74284 0.32626 0.0
Cd142 Cd 0.04317 0.7584 0.31436 0.0
O143 O 0.00865 0.71656 0.33988 0.0
Cd144 Cd 0.04034 0.71955 0.33269 0.0
C145 C 0.06428 0.75825 0.37341 0.0
O146 O 0.04732 0.73563 0.28983 0.0
O147 O 0.0706 0.73451 0.30835 0.0
O148 O 0.02712 0.68707 0.31607 0.0
C149 C 0.06432 0.73907 0.28837 0.0
O150 O 0.06231 0.76793 0.35527 0.0
C151 C 0.03375 0.68157 0.33457 0.0
O152 O 0.05658 0.74029 0.371 0.0
O153 O 0.0431 0.69358 0.35288 0.0
C154 C 0.33822 0.378 0.35153 0.0
O155 O 0.3285 0.38433 0.36261 0.0
Cd156 Cd 0.29533 0.36483 0.37423 0.0
O157 O 0.33095 0.36022 0.34739 0.0
Cd158 Cd 0.30061 0.33006 0.35722 0.0
C159 C 0.27504 0.34071 0.31524 0.0
O160 O 0.2916 0.33874 0.39956 0.0
O161 O 0.26972 0.31352 0.37973 0.0
O162 O 0.31755 0.31568 0.37662 0.0
C163 C 0.27476 0.32454 0.39986 0.0
O164 O 0.27647 0.35247 0.33327 0.0
C165 C 0.31141 0.30173 0.36047 0.0
O166 O 0.28375 0.33151 0.3175 0.0
O167 O 0.30044 0.30106 0.34196 0.0
C168 C 0.28803 0.0003 0.68848 0.0
O169 O 0.28053 0.01034 0.69348 0.0
Cd170 Cd 0.29657 0.0427 0.7094 0.0
O171 O 0.30604 0.00733 0.69007 0.0
Cd172 Cd 0.3352 0.03891 0.69976 0.0
C173 C 0.32526 0.06548 0.65617 0.0
O174 O 0.3208 0.04479 0.73828 0.0
O175 O 0.35031 0.0658 0.73166 0.0
O176 O 0.35367 0.02495 0.71632 0.0
C177 C 0.33529 0.06034 0.74524 0.0
O178 O 0.31075 0.062 0.67005 0.0
C179 C 0.36623 0.03169 0.69807 0.0
O180 O 0.3357 0.05859 0.66229 0.0
O181 O 0.36423 0.04157 0.68039 0.0
C182 C 0.94418 0.32877 0.66523 0.0
O183 O 0.92723 0.32008 0.65635 0.0
Cd184 Cd 0.91061 0.28703 0.64445 0.0
O185 O 0.95367 0.3203 0.66667 0.0
Cd186 Cd 0.94967 0.28877 0.65423 0.0
C187 C 0.91487 0.2652 0.70006 0.0
O188 O 0.93035 0.28211 0.61372 0.0
O189 O 0.93269 0.25888 0.62939 0.0
O190 O 0.98048 0.30186 0.63193 0.0
C191 C 0.92691 0.26521 0.61092 0.0
O192 O 0.9043 0.26886 0.68566 0.0
C193 C 0.98782 0.29582 0.64859 0.0
O194 O 0.93215 0.27119 0.69371 0.0
O195 O 0.97759 0.28675 0.66842 0.0
C196 C 0.67804 0.62917 0.65344 0.0
O197 O 0.68972 0.62519 0.64265 0.0
Cd198 Cd 0.72294 0.64754 0.63544 0.0
O199 O 0.68356 0.64614 0.66098 0.0
Cd200 Cd 0.7135 0.67775 0.66107 0.0
C201 C 0.73696 0.6629 0.69991 0.0
O202 O 0.726 0.67583 0.61792 0.0
O203 O 0.74641 0.69729 0.64467 0.0
O204 O 0.6981 0.69483 0.64621 0.0
C205 C 0.74278 0.68964 0.62167 0.0
O206 O 0.73873 0.65495 0.67899 0.0
C207 C 0.70225 0.70552 0.66663 0.0
O208 O 0.72686 0.67073 0.69985 0.0
O209 O 0.71133 0.70304 0.68518 0.0
C210 C 0.28153 0.27975 0.68769 0.0
O211 O 0.27646 0.26467 0.70065 0.0
Cd212 Cd 0.2968 0.25181 0.70774 0.0
O213 O 0.29855 0.28979 0.6791 0.0
Cd214 Cd 0.32937 0.29044 0.68239 0.0
C215 C 0.31335 0.25094 0.64442 0.0
O216 O 0.3257 0.27661 0.72635 0.0
O217 O 0.34756 0.27699 0.70148 0.0
O218 O 0.34729 0.32313 0.69792 0.0
C219 C 0.33937 0.2735 0.72401 0.0
O220 O 0.30367 0.24184 0.66475 0.0
C221 C 0.35861 0.32955 0.67825 0.0
O222 O 0.32299 0.26904 0.64462 0.0
O223 O 0.35608 0.31784 0.6596 0.0
C224 C 0.67494 0.0614 0.66121 0.0
O225 O 0.68412 0.07783 0.65106 0.0
Cd226 Cd 0.71761 0.09372 0.64092 0.0
O227 O 0.6832 0.052 0.66577 0.0
Cd228 Cd 0.71496 0.05508 0.65973 0.0
C229 C 0.73673 0.09325 0.70172 0.0
O230 O 0.72297 0.07145 0.61708 0.0
O231 O 0.74585 0.07037 0.63698 0.0
O232 O 0.7013 0.02272 0.64266 0.0
C233 C 0.74004 0.07502 0.61657 0.0
O234 O 0.7351 0.10295 0.68329 0.0
C235 C 0.70752 0.01681 0.66117 0.0
O236 O 0.72963 0.07539 0.69896 0.0
O237 O 0.71701 0.02862 0.67964 0.0
C238 C 0.00255 0.70572 0.67285 0.0
O239 O 0.9927 0.71335 0.6782 0.0
Cd240 Cd 0.9598 0.69658 0.69094 0.0
O241 O 0.99501 0.68771 0.67343 0.0
Cd242 Cd 0.96265 0.6594 0.68271 0.0
C243 C 0.93845 0.66894 0.63567 0.0
O244 O 0.9552 0.67254 0.72211 0.0
O245 O 0.93249 0.64576 0.70699 0.0
O246 O 0.97631 0.6426 0.70502 0.0
C247 C 0.93832 0.65869 0.72471 0.0
O248 O 0.94143 0.68302 0.65022 0.0
C249 C 0.96981 0.62865 0.68882 0.0
O250 O 0.9452 0.65846 0.64201 0.0
O251 O 0.96013 0.62904 0.66928 0.0
H252 H 0.16789 0.34517 0.15423 0.0
H253 H 0.13535 0.32845 0.08108 0.0
H254 H 0.13246 0.36794 0.13515 0.0
H255 H 0.15244 0.31004 0.12149 0.0
H256 H 0.15756 0.31797 0.08801 0.0
H257 H 0.17784 0.32217 0.15584 0.0
H258 H 0.23568 0.35083 0.12813 0.0
H259 H 0.19062 0.34151 0.07451 0.0
C260 C 0.15883 0.34671 0.14002 0.0
C261 C 0.15111 0.35802 0.14713 0.0
C262 C 0.15398 0.33665 0.11555 0.0
C263 C 0.14037 0.33731 0.09886 0.0
C264 C 0.1322 0.34827 0.10616 0.0
C265 C 0.13864 0.35942 0.12945 0.0
C266 C 0.16081 0.32291 0.10913 0.0
C267 C 0.18185 0.33097 0.11458 0.0
C268 C 0.18813 0.32921 0.14005 0.0
C269 C 0.20765 0.33702 0.14535 0.0
C270 C 0.22071 0.34572 0.12457 0.0
C271 C 0.2148 0.34748 0.09907 0.0
C272 C 0.19532 0.34016 0.09416 0.0
H273 H 0.68407 0.82861 0.15392 0.0
H274 H 0.67866 0.81297 0.0706 0.0
H275 H 0.65755 0.77002 0.13098 0.0
H276 H 0.7049 0.85183 0.11655 0.0
H277 H 0.69713 0.84575 0.08277 0.0
H278 H 0.68446 0.85655 0.15 0.0
H279 H 0.64889 0.87614 0.11763 0.0
H280 H 0.67436 0.85345 0.06529 0.0
C281 C 0.67905 0.81785 0.1384 0.0
C282 C 0.67007 0.79866 0.14558 0.0
C283 C 0.68167 0.82314 0.11131 0.0
C284 C 0.67597 0.80896 0.0914 0.0
C285 C 0.66767 0.78974 0.0984 0.0
C286 C 0.66429 0.78482 0.12544 0.0
C287 C 0.69201 0.84392 0.10375 0.0
C288 C 0.67964 0.85267 0.1075 0.0
C289 C 0.67713 0.85817 0.1332 0.0
C290 C 0.66612 0.86675 0.13709 0.0
C291 C 0.65746 0.86957 0.1149 0.0
C292 C 0.66073 0.86535 0.08895 0.0
C293 C 0.67166 0.85664 0.0853 0.0
H294 H 0.16488 0.80303 0.13196 0.0
H295 H 0.16066 0.78953 0.04802 0.0
H296 H 0.11004 0.76858 0.09546 0.0
H297 H 0.1923 0.80552 0.10585 0.0
H298 H 0.19101 0.80335 0.07037 0.0
H299 H 0.19079 0.83362 0.12765 0.0
H300 H 0.22432 0.88533 0.08441 0.0
H301 H 0.20605 0.83176 0.04585 0.0
C302 C 0.15629 0.79703 0.11416 0.0
C303 C 0.13641 0.78603 0.11649 0.0
C304 C 0.1652 0.79891 0.08932 0.0
C305 C 0.15393 0.7893 0.06682 0.0
C306 C 0.134 0.77844 0.069 0.0
C307 C 0.1254 0.77747 0.09362 0.0
C308 C 0.18666 0.80882 0.08777 0.0
C309 C 0.19575 0.83014 0.08617 0.0
C310 C 0.19681 0.8408 0.10903 0.0
C311 C 0.20725 0.86075 0.10865 0.0
C312 C 0.21586 0.86994 0.08477 0.0
C313 C 0.21582 0.85962 0.06233 0.0
C314 C 0.20551 0.83972 0.06292 0.0
H315 H 0.37283 0.2001 0.87735 0.0
H316 H 0.37123 0.21333 0.96066 0.0
H317 H 0.35788 0.24142 0.89992 0.0
H318 H 0.39119 0.19439 0.91283 0.0
H319 H 0.38699 0.19659 0.94721 0.0
H320 H 0.3573 0.16899 0.88636 0.0
H321 H 0.33928 0.11556 0.92389 0.0
H322 H 0.37314 0.16709 0.96771 0.0
C323 C 0.36927 0.20703 0.89293 0.0
C324 C 0.36412 0.2203 0.88577 0.0
C325 C 0.37129 0.20388 0.92004 0.0
C326 C 0.36853 0.21466 0.93986 0.0
C327 C 0.36394 0.22839 0.93251 0.0
C328 C 0.36123 0.23066 0.9056 0.0
C329 C 0.37984 0.19187 0.92743 0.0
C330 C 0.3657 0.17067 0.92759 0.0
C331 C 0.3562 0.16102 0.90395 0.0
C332 C 0.34649 0.14105 0.90223 0.0
C333 C 0.34557 0.13084 0.9251 0.0
C334 C 0.35489 0.1401 0.94874 0.0
C335 C 0.36496 0.15999 0.94993 0.0
H336 H 0.85739 0.17663 0.87406 0.0
H337 H 0.85715 0.19405 0.95524 0.0
H338 H 0.88337 0.23575 0.89376 0.0
H339 H 0.84785 0.15413 0.91315 0.0
H340 H 0.8432 0.16108 0.94489 0.0
H341 H 0.82605 0.16178 0.87382 0.0
H342 H 0.76792 0.12267 0.89255 0.0
H343 H 0.81072 0.13888 0.95325 0.0
C344 C 0.86032 0.18775 0.88845 0.0
C345 C 0.87086 0.20677 0.88051 0.0
C346 C 0.85386 0.183 0.91496 0.0
C347 C 0.86049 0.19764 0.9344 0.0
C348 C 0.87238 0.21676 0.92704 0.0
C349 C 0.87592 0.22103 0.89983 0.0
C350 C 0.84195 0.16228 0.92298 0.0
C351 C 0.82097 0.15274 0.91512 0.0
C352 C 0.81556 0.15341 0.88859 0.0
C353 C 0.79649 0.14268 0.88039 0.0
C354 C 0.78264 0.13115 0.89894 0.0
C355 C 0.78756 0.12936 0.9251 0.0
C356 C 0.80674 0.14047 0.93325 0.0
H357 H 0.8314 0.63349 0.86655 0.0
H358 H 0.82846 0.6251 0.95152 0.0
H359 H 0.88256 0.65185 0.9119 0.0
H360 H 0.80131 0.60864 0.891 0.0
H361 H 0.79981 0.61051 0.92625 0.0
H362 H 0.80435 0.63512 0.86136 0.0
H363 H 0.77236 0.66011 0.8896 0.0
H364 H 0.78683 0.62887 0.94362 0.0
C365 C 0.83847 0.63605 0.88567 0.0
C366 C 0.85834 0.64395 0.88644 0.0
C367 C 0.82756 0.62984 0.90925 0.0
C368 C 0.83677 0.6312 0.9336 0.0
C369 C 0.8566 0.63914 0.93449 0.0
C370 C 0.86729 0.6462 0.91115 0.0
C371 C 0.806 0.61901 0.90787 0.0
C372 C 0.798 0.63188 0.90356 0.0
C373 C 0.79821 0.63878 0.8779 0.0
C374 C 0.78929 0.64925 0.87297 0.0
C375 C 0.78026 0.65303 0.89387 0.0
C376 C 0.77902 0.64547 0.91928 0.0
C377 C 0.7882 0.63517 0.9242 0.0
H378 H 0.82867 0.66866 0.47861 0.0
H379 H 0.79677 0.65507 0.40507 0.0
H380 H 0.79518 0.69403 0.46154 0.0
H381 H 0.81248 0.63444 0.44329 0.0
H382 H 0.81861 0.64388 0.41061 0.0
H383 H 0.83692 0.64175 0.47675 0.0
H384 H 0.89579 0.67515 0.45393 0.0
H385 H 0.85221 0.67001 0.40071 0.0
C386 C 0.81992 0.671 0.46477 0.0
C387 C 0.8129 0.68279 0.4726 0.0
C388 C 0.81494 0.66163 0.43977 0.0
C389 C 0.80183 0.66335 0.42335 0.0
C390 C 0.79426 0.67471 0.43143 0.0
C391 C 0.80084 0.68515 0.45528 0.0
C392 C 0.8214 0.6478 0.43213 0.0
C393 C 0.84224 0.65525 0.43821 0.0
C394 C 0.84772 0.65077 0.46251 0.0
C395 C 0.86707 0.65776 0.46826 0.0
C396 C 0.8808 0.66946 0.4496 0.0
C397 C 0.87565 0.67383 0.42523 0.0
C398 C 0.85631 0.66669 0.41955 0.0
H399 H 0.35941 0.16115 0.48941 0.0
H400 H 0.34262 0.14512 0.40747 0.0
H401 H 0.32717 0.10229 0.46698 0.0
H402 H 0.37304 0.18467 0.45281 0.0
H403 H 0.36448 0.17801 0.41937 0.0
H404 H 0.34559 0.17994 0.48822 0.0
H405 H 0.31785 0.2089 0.45949 0.0
H406 H 0.34663 0.1916 0.40422 0.0
C407 C 0.35181 0.15022 0.47444 0.0
C408 C 0.34363 0.13104 0.48138 0.0
C409 C 0.35072 0.15538 0.44799 0.0
C410 C 0.34242 0.14114 0.42809 0.0
C411 C 0.33472 0.12192 0.43466 0.0
C412 C 0.33439 0.11714 0.46153 0.0
C413 C 0.35995 0.17613 0.44063 0.0
C414 C 0.34685 0.18396 0.44548 0.0
C415 C 0.34119 0.18521 0.47166 0.0
C416 C 0.33034 0.19381 0.47675 0.0
C417 C 0.32526 0.20127 0.45542 0.0
C418 C 0.331 0.20057 0.42924 0.0
C419 C 0.3418 0.19184 0.42432 0.0
H420 H 0.84092 0.13678 0.45785 0.0
H421 H 0.83293 0.12449 0.37346 0.0
H422 H 0.78459 0.10321 0.42564 0.0
H423 H 0.86717 0.13955 0.42774 0.0
H424 H 0.86431 0.13866 0.39239 0.0
H425 H 0.86535 0.16673 0.45367 0.0
H426 H 0.89854 0.22012 0.4144 0.0
H427 H 0.87994 0.16825 0.3707 0.0
C428 C 0.83161 0.13117 0.44065 0.0
C429 C 0.81187 0.12034 0.4446 0.0
C430 C 0.83939 0.13342 0.41486 0.0
C431 C 0.8271 0.12405 0.39309 0.0
C432 C 0.80731 0.11319 0.39699 0.0
C433 C 0.79985 0.11201 0.42255 0.0
C434 C 0.86078 0.14349 0.41124 0.0
C435 C 0.86992 0.16489 0.4115 0.0
C436 C 0.87118 0.1746 0.43549 0.0
C437 C 0.88152 0.19451 0.43673 0.0
C438 C 0.89013 0.20473 0.41349 0.0
C439 C 0.88984 0.19538 0.38982 0.0
C440 C 0.87957 0.17546 0.38876 0.0
H441 H 0.03334 0.53576 0.22712 0.0
H442 H 0.0422 0.55155 0.31043 0.0
H443 H 0.01322 0.57097 0.26005 0.0
H444 H 0.05935 0.53574 0.2554 0.0
H445 H 0.05788 0.53632 0.29083 0.0
H446 H 0.03484 0.50756 0.22897 0.0
H447 H 0.00981 0.45489 0.27122 0.0
H448 H 0.03858 0.50756 0.31476 0.0
C449 C 0.03076 0.54225 0.24431 0.0
C450 C 0.02218 0.5532 0.24072 0.0
C451 C 0.03757 0.54109 0.26959 0.0
C452 C 0.03587 0.55125 0.2913 0.0
C453 C 0.02688 0.56187 0.28789 0.0
C454 C 0.01957 0.56223 0.26283 0.0
C455 C 0.04912 0.53145 0.2723 0.0
C456 C 0.03674 0.51005 0.27205 0.0
C457 C 0.03081 0.49993 0.24763 0.0
C458 C 0.02124 0.47998 0.2472 0.0
C459 C 0.0168 0.47026 0.27145 0.0
C460 C 0.02324 0.48005 0.29578 0.0
C461 C 0.03298 0.49996 0.29607 0.0
H462 H 0.52679 0.50855 0.19875 0.0
H463 H 0.5273 0.52507 0.28076 0.0
H464 H 0.55383 0.56745 0.22018 0.0
H465 H 0.51831 0.48572 0.23697 0.0
H466 H 0.51459 0.49219 0.26957 0.0
H467 H 0.4958 0.48658 0.19856 0.0
H468 H 0.43763 0.45589 0.22377 0.0
H469 H 0.48234 0.47915 0.28251 0.0
C470 C 0.53008 0.51949 0.21358 0.0
C471 C 0.54105 0.53861 0.20625 0.0
C472 C 0.52408 0.51447 0.24022 0.0
C473 C 0.53061 0.52888 0.25997 0.0
C474 C 0.54231 0.54808 0.25298 0.0
C475 C 0.54614 0.55265 0.22591 0.0
C476 C 0.51268 0.49372 0.24794 0.0
C477 C 0.49162 0.48456 0.24134 0.0
C478 C 0.48549 0.4816 0.21452 0.0
C479 C 0.46602 0.47179 0.20809 0.0
C480 C 0.45263 0.46452 0.22876 0.0
C481 C 0.45824 0.46712 0.25563 0.0
C482 C 0.47783 0.47727 0.26183 0.0
H483 H 0.49052 0.95774 0.20488 0.0
H484 H 0.49843 0.96724 0.28989 0.0
H485 H 0.54621 0.98121 0.23877 0.0
H486 H 0.46357 0.9405 0.23782 0.0
H487 H 0.46696 0.94749 0.27212 0.0
H488 H 0.46946 0.96793 0.20343 0.0
H489 H 0.43626 0.99251 0.2273 0.0
H490 H 0.45091 0.96348 0.285 0.0
C491 C 0.49982 0.96349 0.22208 0.0
C492 C 0.51937 0.9704 0.21888 0.0
C493 C 0.49214 0.96272 0.24764 0.0
C494 C 0.50432 0.96865 0.27006 0.0
C495 C 0.52389 0.97531 0.26706 0.0
C496 C 0.53124 0.97655 0.24133 0.0
C497 C 0.47076 0.95302 0.25145 0.0
C498 C 0.46287 0.96585 0.24557 0.0
C499 C 0.46312 0.97189 0.21931 0.0
C500 C 0.45386 0.9818 0.21287 0.0
C501 C 0.44441 0.9859 0.23279 0.0
C502 C 0.44301 0.97909 0.25874 0.0
C503 C 0.45249 0.96929 0.26518 0.0
H504 H 0.48756 0.99714 0.8029 0.0
H505 H 0.48371 0.00227 0.71804 0.0
H506 H 0.46664 0.03187 0.77204 0.0
H507 H 0.48734 0.97352 0.76759 0.0
H508 H 0.49438 0.98191 0.7344 0.0
H509 H 0.51037 0.98673 0.80511 0.0
H510 H 0.56969 0.01695 0.78426 0.0
H511 H 0.52757 0.00651 0.72469 0.0
C512 C 0.4849 0.00377 0.7862 0.0
C513 C 0.47663 0.01499 0.79066 0.0
C514 C 0.4884 -0.00015 0.76005 0.0
C515 C 0.48262 0.00652 0.73821 0.0
C516 C 0.47459 0.01799 0.74254 0.0
C517 C 0.47286 0.02305 0.76871 0.0
C518 C 0.49597 0.98656 0.75565 0.0
C519 C 0.51664 0.99562 0.76397 0.0
C520 C 0.52151 0.99417 0.79049 0.0
C521 C 0.5407 0.00229 0.79812 0.0
C522 C 0.55492 0.01155 0.77884 0.0
C523 C 0.55042 0.01327 0.75243 0.0
C524 C 0.53121 0.00533 0.74509 0.0
H525 H 0.01322 0.48919 0.82277 0.0
H526 H -0.00124 0.47283 0.74028 0.0
H527 H 0.98447 0.43037 0.80012 0.0
H528 H 0.03015 0.51218 0.7851 0.0
H529 H 0.02155 0.50563 0.75169 0.0
H530 H 0.00825 0.51455 0.82011 0.0
H531 H 0.97469 0.53694 0.78914 0.0
H532 H 0.00072 0.51573 0.73528 0.0
C533 C 0.00663 0.47826 0.80755 0.0
C534 C 0.998 0.45909 0.8148 0.0
C535 C 0.00683 0.48335 0.7807 0.0
C536 C -0.00146 0.469 0.76098 0.0
C537 C 0.99022 0.44978 0.76791 0.0
C538 C 0.99014 0.44509 0.79478 0.0
C539 C 0.01697 0.50406 0.77292 0.0
C540 C 0.00462 0.51276 0.77735 0.0
C541 C 0.00155 0.5172 0.80344 0.0
C542 C 0.9909 0.5261 0.80794 0.0
C543 C 0.983 0.53014 0.78594 0.0
C544 C 0.98687 0.52699 0.75973 0.0
C545 C 0.99751 0.51804 0.75549 0.0
H546 H 0.49648 0.46991 0.79208 0.0
H547 H 0.49326 0.46369 0.70653 0.0
H548 H 0.44207 0.43929 0.75325 0.0
H549 H 0.52391 0.47418 0.76461 0.0
H550 H 0.52295 0.47459 0.72911 0.0
H551 H 0.51711 0.50167 0.78744 0.0
H552 H 0.56401 0.55468 0.76072 0.0
H553 H 0.54546 0.50458 0.71327 0.0
C554 C 0.48811 0.46572 0.77389 0.0
C555 C 0.46817 0.45483 0.77556 0.0
C556 C 0.49734 0.46976 0.74895 0.0
C557 C 0.48631 0.46207 0.72561 0.0
C558 C 0.46636 0.45104 0.72717 0.0
C559 C 0.45745 0.44821 0.75202 0.0
C560 C 0.51883 0.47917 0.74769 0.0
C561 C 0.52917 0.50066 0.74938 0.0
C562 C 0.52741 0.50985 0.77227 0.0
C563 C 0.53971 0.52945 0.77647 0.0
C564 C 0.55368 0.53979 0.75725 0.0
C565 C 0.5557 0.53097 0.73449 0.0
C566 C 0.54327 0.51149 0.73034 0.0
H567 H 0.69529 0.8657 0.55388 0.0
H568 H 0.70621 0.8819 0.63693 0.0
H569 H 0.67771 0.90264 0.58804 0.0
H570 H 0.72147 0.86507 0.58107 0.0
H571 H 0.72077 0.86593 0.61652 0.0
H572 H 0.69618 0.83704 0.55552 0.0
H573 H 0.67164 0.78455 0.59812 0.0
H574 H 0.70177 0.83739 0.64104 0.0
C575 C 0.69331 0.87247 0.57126 0.0
C576 C 0.68533 0.88402 0.56816 0.0
C577 C 0.70041 0.87114 0.59625 0.0
C578 C 0.69958 0.88169 0.61811 0.0
C579 C 0.6912 0.89292 0.61521 0.0
C580 C 0.68355 0.89341 0.59049 0.0
C581 C 0.7116 0.86109 0.59836 0.0
C582 C 0.69891 0.83971 0.5985 0.0
C583 C 0.69242 0.82948 0.57425 0.0
C584 C 0.68277 0.80954 0.57399 0.0
C585 C 0.6787 0.79992 0.59829 0.0
C586 C 0.68579 0.8098 0.62242 0.0
C587 C 0.69564 0.82972 0.62254 0.0
H588 H 0.19655 0.83882 0.53397 0.0
H589 H 0.19859 0.85409 0.61693 0.0
H590 H 0.2256 0.89741 0.5578 0.0
H591 H 0.18724 0.81503 0.57111 0.0
H592 H 0.1842 0.8213 0.60426 0.0
H593 H 0.16496 0.82476 0.53596 0.0
H594 H 0.10716 0.78689 0.55813 0.0
H595 H 0.15184 0.80006 0.61458 0.0
C596 C 0.20038 0.84958 0.54931 0.0
C597 C 0.21156 0.8688 0.54253 0.0
C598 C 0.19444 0.84416 0.57589 0.0
C599 C 0.20178 0.85821 0.59622 0.0
C600 C 0.21411 0.87742 0.58982 0.0
C601 C 0.21759 0.8825 0.56288 0.0
C602 C 0.18223 0.82327 0.58281 0.0
C603 C 0.16108 0.81471 0.57676 0.0
C604 C 0.15487 0.81635 0.55116 0.0
C605 C 0.13546 0.80654 0.54447 0.0
C606 C 0.12215 0.79482 0.56346 0.0
C607 C 0.12786 0.79209 0.58855 0.0
C608 C 0.14733 0.80238 0.59537 0.0
H609 H 0.16028 0.29156 0.53424 0.0
H610 H 0.15637 0.28431 0.61956 0.0
H611 H 0.21098 0.31132 0.58127 0.0
H612 H 0.13002 0.26706 0.55785 0.0
H613 H 0.12809 0.26837 0.59314 0.0
H614 H 0.13302 0.29383 0.52893 0.0
H615 H 0.1006 0.31824 0.55779 0.0
H616 H 0.11484 0.28639 0.61099 0.0
C617 C 0.16711 0.29438 0.5536 0.0
C618 C 0.187 0.30261 0.55502 0.0
C619 C 0.15591 0.28827 0.57695 0.0
C620 C 0.16488 0.29021 0.60173 0.0
C621 C 0.18474 0.29861 0.60324 0.0
C622 C 0.19567 0.30538 0.58005 0.0
C623 C 0.1344 0.27715 0.57502 0.0
C624 C 0.12621 0.28989 0.57098 0.0
C625 C 0.12661 0.29714 0.54551 0.0
C626 C 0.11768 0.30762 0.54087 0.0
C627 C 0.10845 0.31109 0.56186 0.0
C628 C 0.10711 0.30324 0.58708 0.0
C629 C 0.11627 0.29288 0.59171 0.0
C630 C 0.02054 0.42911 0.10939 0.0
C631 C 0.00377 0.41139 0.10662 0.0
C632 C 0.0231 0.44124 0.13102 0.0
C633 C 0.00853 0.43554 0.15036 0.0
C634 C 0.9914 0.41785 0.14737 0.0
C635 C 0.98924 0.40597 0.12557 0.0
C636 C 0.04163 0.45992 0.13355 0.0
C637 C 0.97554 0.41127 0.16759 0.0
C638 C 0.02333 0.45515 0.22062 0.0
C639 C 0.01821 0.46914 0.22188 0.0
C640 C 0.02021 0.44418 0.19753 0.0
C641 C 0.0119 0.44732 0.17487 0.0
C642 C 0.007 0.46165 0.17575 0.0
C643 C 0.01028 0.47247 0.19927 0.0
C644 C 0.02582 0.42918 0.19745 0.0
C645 C 0.99814 0.46541 0.15195 0.0
H646 H 0.03182 0.43345 0.09479 0.0
H647 H 0.97619 0.39236 0.12348 0.0
H648 H 0.03879 0.47174 0.13603 0.0
H649 H 0.04941 0.45981 0.15162 0.0
H650 H 0.051 0.46282 0.11594 0.0
H651 H 0.96262 0.39778 0.16144 0.0
H652 H 0.98049 0.40908 0.18712 0.0
H653 H 0.97159 0.42228 0.17061 0.0
H654 H 0.02992 0.45282 0.2378 0.0
H655 H 0.00634 0.48328 0.20016 0.0
H656 H 0.03643 0.43216 0.18151 0.0
H657 H 0.01318 0.41505 0.19305 0.0
H658 H 0.03199 0.42845 0.21683 0.0
H659 H 0.00761 0.46893 0.13435 0.0
H660 H 0.99542 0.47723 0.15568 0.0
H661 H 0.98444 0.45243 0.14678 0.0
C662 C 0.58452 0.57806 0.05998 0.0
C663 C 0.57881 0.59116 0.05414 0.0
C664 C 0.57772 0.5667 0.08286 0.0
C665 C 0.5656 0.56912 0.10074 0.0
C666 C 0.5598 0.58233 0.09479 0.0
C667 C 0.56621 0.59293 0.07131 0.0
C668 C 0.58365 0.55229 0.08804 0.0
C669 C 0.5474 0.5858 0.11372 0.0
C670 C 0.53643 0.53533 0.15628 0.0
C671 C 0.54812 0.54441 0.17849 0.0
C672 C 0.54245 0.54246 0.13041 0.0
C673 C 0.56033 0.55927 0.12686 0.0
C674 C 0.57256 0.56784 0.14902 0.0
C675 C 0.56647 0.56008 0.17439 0.0
C676 C 0.52931 0.53252 0.10708 0.0
C677 C 0.59162 0.58593 0.14629 0.0
H678 H 0.59405 0.5765 0.04645 0.0
H679 H 0.56184 0.6031 0.06678 0.0
H680 H 0.5932 0.55671 0.10568 0.0
H681 H 0.57096 0.53829 0.09262 0.0
H682 H 0.59124 0.5506 0.07074 0.0
H683 H 0.54401 0.59643 0.10598 0.0
H684 H 0.53384 0.57237 0.11738 0.0
H685 H 0.55474 0.59096 0.13325 0.0
H686 H 0.5223 0.52314 0.15919 0.0
H687 H 0.57593 0.56676 0.19128 0.0
H688 H 0.53737 0.53134 0.09001 0.0
H689 H 0.52291 0.54092 0.10035 0.0
H690 H 0.51759 0.51808 0.11238 0.0
H691 H 0.60045 0.58415 0.13098 0.0
H692 H 0.59972 0.59039 0.16536 0.0
H693 H 0.58939 0.59755 0.13956 0.0
C694 C 0.42723 0.98855 0.06081 0.0
C695 C 0.41043 0.98928 0.06173 0.0
C696 C 0.43674 0.989 0.08434 0.0
C697 C 0.42883 0.98951 0.1093 0.0
C698 C 0.41192 0.99039 0.1103 0.0
C699 C 0.40308 0.99059 0.08642 0.0
C700 C 0.45507 0.98867 0.08251 0.0
C701 C 0.40277 0.99042 0.13655 0.0
C702 C 0.43853 0.96803 0.16942 0.0
C703 C 0.4503 0.9842 0.18479 0.0
C704 C 0.43182 0.9696 0.14445 0.0
C705 C 0.43746 0.98783 0.13442 0.0
C706 C 0.45027 0.00427 0.14925 0.0
C707 C 0.45628 0.00224 0.17461 0.0
C708 C 0.41783 0.95173 0.12957 0.0
C709 C 0.45704 0.02393 0.13881 0.0
H710 H 0.43304 0.9878 0.04165 0.0
H711 H 0.39005 0.99109 0.08708 0.0
H712 H 0.46632 0.00037 0.09474 0.0
H713 H 0.4529 0.97515 0.09064 0.0
H714 H 0.46023 0.99007 0.06164 0.0
H715 H 0.38973 0.99132 0.13384 0.0
H716 H 0.39889 0.97726 0.14762 0.0
H717 H 0.41299 0.00257 0.14915 0.0
H718 H 0.43368 0.9541 0.17767 0.0
H719 H 0.46529 0.01469 0.18674 0.0
H720 H 0.42298 0.9518 0.10904 0.0
H721 H 0.40394 0.9511 0.12779 0.0
H722 H 0.41543 0.93868 0.13973 0.0
H723 H 0.46203 0.02511 0.1179 0.0
H724 H 0.46879 0.03509 0.15111 0.0
H725 H 0.44504 0.02667 0.13878 0.0
C726 C 0.41767 0.99649 0.9231 0.0
C727 C 0.41952 0.01295 0.93486 0.0
C728 C 0.42996 0.99761 0.9027 0.0
C729 C 0.44402 0.01564 0.89326 0.0
C730 C 0.44658 0.03232 0.90599 0.0
C731 C 0.4344 0.03076 0.92697 0.0
C732 C 0.42703 0.97947 0.89008 0.0
C733 C 0.46115 0.05178 0.89614 0.0
C734 C 0.47895 0.01736 0.84104 0.0
C735 C 0.46917 0.01612 0.81739 0.0
C736 C 0.47118 0.01756 0.8661 0.0
C737 C 0.45345 0.01684 0.86736 0.0
C738 C 0.44376 0.01596 0.84357 0.0
C739 C 0.4515 0.01519 0.81905 0.0
C740 C 0.48163 0.01804 0.89116 0.0
C741 C 0.42486 0.0153 0.84392 0.0
H742 H 0.40637 0.98268 0.92956 0.0
H743 H 0.43586 0.04347 0.9362 0.0
H744 H 0.42017 0.97738 0.87026 0.0
H745 H 0.4409 0.98027 0.88691 0.0
H746 H 0.41781 0.96687 0.90248 0.0
H747 H 0.46329 0.06317 0.91044 0.0
H748 H 0.47505 0.05274 0.89257 0.0
H749 H 0.45629 0.05438 0.87682 0.0
H750 H 0.49257 0.01805 0.84 0.0
H751 H 0.44335 0.01342 0.80111 0.0
H752 H 0.47295 0.00471 0.9024 0.0
H753 H 0.48374 0.02991 0.90436 0.0
H754 H 0.49575 0.01962 0.8868 0.0
H755 H 0.41374 0.00174 0.85273 0.0
H756 H 0.42011 0.01645 0.82361 0.0
H757 H 0.42587 0.02701 0.85649 0.0
C758 C 0.98755 0.42571 0.96753 0.0
C759 C 0.9923 0.41148 0.96912 0.0
C760 C 0.98988 0.43553 0.9437 0.0
C761 C 0.99684 0.43083 0.92075 0.0
C762 C 0.00219 0.41688 0.92242 0.0
C763 C -1e-05 0.40747 0.94664 0.0
C764 C 0.9843 0.45052 0.94285 0.0
C765 C 0.00948 0.41131 0.89831 0.0
C766 C 0.98083 0.4374 0.85278 0.0
C767 C 0.99738 0.45327 0.84301 0.0
C768 C 0.98044 0.43017 0.87815 0.0
C769 C 0.99691 0.43921 0.89447 0.0
C770 C 0.0134 0.45576 0.88531 0.0
C771 C 0.01347 0.46257 0.8596 0.0
C772 C 0.96254 0.4125 0.88714 0.0
C773 C 0.03112 0.46595 0.90234 0.0
H774 H 0.98182 0.42907 0.9849 0.0
H775 H 0.0037 0.39651 0.9477 0.0
H776 H 0.99594 0.46377 0.93402 0.0
H777 H 0.97156 0.44556 0.92996 0.0
H778 H 0.98097 0.45386 0.96299 0.0
H779 H 0.01414 0.40109 0.90328 0.0
H780 H 0.99808 0.40474 0.88296 0.0
H781 H 0.02165 0.42407 0.88928 0.0
H782 H 0.96821 0.43037 0.84029 0.0
H783 H 0.02634 0.47478 0.85215 0.0
H784 H 0.95745 0.41529 0.90624 0.0
H785 H 0.96567 0.40099 0.89077 0.0
H786 H 0.95087 0.40736 0.87219 0.0
H787 H 0.02755 0.46909 0.9224 0.0
H788 H 0.04217 0.47945 0.89324 0.0
H789 H 0.03723 0.45668 0.9052 0.0
C790 C 0.59281 0.58722 0.89896 0.0
C791 C 0.58491 0.59426 0.91728 0.0
C792 C 0.58222 0.57626 0.87698 0.0
C793 C 0.563 0.57153 0.87398 0.0
C794 C 0.5548 0.57824 0.89292 0.0
C795 C 0.56605 0.58993 0.91412 0.0
C796 C 0.59173 0.56993 0.85679 0.0
C797 C 0.53414 0.57277 0.89107 0.0
C798 C 0.54589 0.55826 0.80285 0.0
C799 C 0.54029 0.53893 0.80234 0.0
C800 C 0.55216 0.56896 0.82653 0.0
C801 C 0.55189 0.55989 0.85057 0.0
C802 C 0.54375 0.53994 0.85084 0.0
C803 C 0.53835 0.52971 0.82665 0.0
C804 C 0.56098 0.59023 0.82516 0.0
C805 C 0.54231 0.52959 0.87631 0.0
H806 H 0.60745 0.59069 0.90153 0.0
H807 H 0.55996 0.59525 0.92864 0.0
H808 H 0.58453 0.55422 0.85642 0.0
H809 H 0.59045 0.57452 0.8365 0.0
H810 H 0.60708 0.57578 0.86126 0.0
H811 H 0.52996 0.57918 0.90742 0.0
H812 H 0.53126 0.57725 0.87169 0.0
H813 H 0.52494 0.55709 0.89197 0.0
H814 H 0.54676 0.56539 0.78432 0.0
H815 H 0.53397 0.5148 0.82674 0.0
H816 H 0.5767 0.59708 0.82705 0.0
H817 H 0.55599 0.59559 0.84182 0.0
H818 H 0.55772 0.59473 0.80601 0.0
H819 H 0.55646 0.5315 0.88121 0.0
H820 H 0.53194 0.51413 0.87437 0.0
H821 H 0.53797 0.53539 0.89324 0.0
C822 C 0.96334 0.55541 0.94637 0.0
C823 C 0.97955 0.56973 0.95942 0.0
C824 C 0.96502 0.54699 0.92277 0.0
C825 C 0.98338 0.55259 0.91263 0.0
C826 C -0.0002 0.56636 0.92657 0.0
C827 C 0.99767 0.57503 0.94954 0.0
C828 C 0.94718 0.53281 0.90802 0.0
C829 C 0.01961 0.5723 0.91685 0.0
C830 C 0.98739 0.52214 0.85797 0.0
C831 C 0.98924 0.53274 0.83511 0.0
C832 C 0.98576 0.52851 0.88347 0.0
C833 C 0.98542 0.54559 0.88606 0.0
C834 C 0.98726 0.55632 0.86313 0.0
C835 C 0.98958 0.55001 0.83814 0.0
C836 C 0.98446 0.51703 0.90763 0.0
C837 C 0.9867 0.57449 0.86492 0.0
H838 H 0.94932 0.55135 0.95404 0.0
H839 H 0.01022 0.5859 0.95992 0.0
H840 H 0.94661 0.53874 0.88845 0.0
H841 H 0.94738 0.51957 0.90395 0.0
H842 H 0.93403 0.5292 0.91932 0.0
H843 H 0.03074 0.58135 0.93169 0.0
H844 H 0.02078 0.55962 0.91237 0.0
H845 H 0.02254 0.58039 0.89807 0.0
H846 H 0.98707 0.50878 0.85594 0.0
H847 H 0.99176 0.55879 0.82091 0.0
H848 H 0.97061 0.51194 0.91781 0.0
H849 H 0.99584 0.52607 0.92214 0.0
H850 H 0.98583 0.50455 0.90236 0.0
H851 H 0.97356 0.57188 0.87535 0.0
H852 H 0.98709 0.58049 0.84497 0.0
H853 H -0.00098 0.58528 0.87674 0.0
C854 C 0.40085 0.41768 0.90337 0.0
C855 C 0.40745 0.40998 0.92253 0.0
C856 C 0.41155 0.42639 0.88042 0.0
C857 C 0.4292 0.42731 0.87644 0.0
C858 C 0.43614 0.41992 0.89597 0.0
C859 C 0.42519 0.41138 0.91883 0.0
C860 C 0.40371 0.43416 0.86007 0.0
C861 C 0.45484 0.42053 0.89234 0.0
C862 C 0.44484 0.42881 0.80482 0.0
C863 C 0.45854 0.44808 0.8017 0.0
C864 C 0.43531 0.42192 0.82906 0.0
C865 C 0.43962 0.43458 0.85087 0.0
C866 C 0.45364 0.45402 0.84804 0.0
C867 C 0.46302 0.46055 0.82345 0.0
C868 C 0.42058 0.40106 0.83128 0.0
C869 C 0.45856 0.46792 0.87088 0.0
H870 H 0.38721 0.41676 0.90619 0.0
H871 H 0.43039 0.4055 0.9336 0.0
H872 H 0.41446 0.44911 0.85545 0.0
H873 H 0.40054 0.42588 0.84119 0.0
H874 H 0.39046 0.43356 0.86703 0.0
H875 H 0.4588 0.41528 0.91014 0.0
H876 H 0.45386 0.41165 0.87485 0.0
H877 H 0.46643 0.43524 0.88823 0.0
H878 H 0.44166 0.41901 0.78825 0.0
H879 H 0.47362 0.47543 0.82108 0.0
H880 H 0.40652 0.39929 0.83652 0.0
H881 H 0.42457 0.39461 0.84751 0.0
H882 H 0.419 0.3931 0.81245 0.0
H883 H 0.44573 0.46848 0.87689 0.0
H884 H 0.47006 0.48248 0.86562 0.0
H885 H 0.46318 0.46315 0.88847 0.0
C886 C 0.57454 0.00244 0.94862 0.0
C887 C 0.58917 0.99814 0.94816 0.0
C888 C 0.56444 0.00129 0.92538 0.0
C889 C 0.56928 0.99604 0.90093 0.0
C890 C 0.58357 0.99102 0.90048 0.0
C891 C 0.59324 0.99197 0.92418 0.0
C892 C 0.54908 0.00642 0.92683 0.0
C893 C 0.58929 0.98555 0.87474 0.0
C894 C 0.53729 0.98372 0.83969 0.0
C895 C 0.54642 0.00093 0.82583 0.0
C896 C 0.54428 0.98195 0.8645 0.0
C897 C 0.56084 0.99771 0.87551 0.0
C898 C 0.56968 0.01526 0.86201 0.0
C899 C 0.56226 0.01669 0.83754 0.0
C900 C 0.53427 0.96311 0.87858 0.0
C901 C 0.58734 0.03245 0.87303 0.0
H902 H 0.57111 0.00695 0.96717 0.0
H903 H 0.60451 0.98861 0.92369 0.0
H904 H 0.5539 0.01997 0.91627 0.0
H905 H 0.53592 0.99539 0.91672 0.0
H906 H 0.54554 0.00808 0.94774 0.0
H907 H 0.59961 0.98069 0.87804 0.0
H908 H 0.57656 0.97408 0.86438 0.0
H909 H 0.5959 0.99794 0.86123 0.0
H910 H 0.52511 0.97145 0.83071 0.0
H911 H 0.56916 0.03014 0.8272 0.0
H912 H 0.53105 0.96505 0.8995 0.0
H913 H 0.54375 0.95707 0.87929 0.0
H914 H 0.52077 0.9527 0.86846 0.0
H915 H 0.58443 0.03609 0.89319 0.0
H916 H 0.59244 0.04507 0.86008 0.0
H917 H 0.59896 0.02925 0.87511 0.0
C918 C 0.56772 0.96669 0.07998 0.0
C919 C 0.58635 0.98239 0.08029 0.0
C920 C 0.55485 0.96385 0.10064 0.0
C921 C 0.56077 0.977 0.12213 0.0
C922 C 0.57944 0.99307 0.12229 0.0
C923 C 0.592 0.99556 0.10138 0.0
C924 C 0.53508 0.94655 0.09978 0.0
C925 C 0.58632 0.00739 0.14489 0.0
C926 C 0.52566 0.97902 0.17047 0.0
C927 C 0.5276 0.96988 0.19268 0.0
C928 C 0.53584 0.98087 0.14684 0.0
C929 C 0.54808 0.97329 0.14554 0.0
C930 C 0.54921 0.96315 0.16748 0.0
C931 C 0.53895 0.96156 0.19074 0.0
C932 C 0.5342 0.99169 0.12379 0.0
C933 C 0.56194 0.95471 0.1669 0.0
H934 H 0.56321 0.95649 0.06369 0.0
H935 H 0.60633 0.00778 0.10171 0.0
H936 H 0.5333 0.93705 0.11658 0.0
H937 H 0.52421 0.95077 0.10226 0.0
H938 H 0.53224 0.93841 0.0808 0.0
H939 H 0.60086 0.01964 0.14131 0.0
H940 H 0.57641 0.01281 0.14779 0.0
H941 H 0.5865 0.00048 0.16375 0.0
H942 H 0.51689 0.98546 0.172 0.0
H943 H 0.54023 0.95424 0.20783 0.0
H944 H 0.53139 0.98346 0.10494 0.0
H945 H 0.54789 0.00523 0.12129 0.0
H946 H 0.52268 0.99499 0.12688 0.0
H947 H 0.55884 0.94553 0.14897 0.0
H948 H 0.5602 0.94617 0.18492 0.0
H949 H 0.57707 0.96625 0.16565 0.0
C950 C 0.98686 0.58201 0.11228 0.0
C951 C 0.00013 0.58848 0.0914 0.0
C952 C 0.98962 0.57395 0.13513 0.0
C953 C 0.00609 0.57239 0.13717 0.0
C954 C 0.0191 0.57811 0.11565 0.0
C955 C 0.01596 0.58609 0.09298 0.0
C956 C 0.9754 0.56798 0.15766 0.0
C957 C 0.03684 0.57668 0.11713 0.0
C958 C 0.02503 0.57668 0.20717 0.0
C959 C 0.01846 0.5577 0.21364 0.0
C960 C 0.02133 0.58158 0.1822 0.0
C961 C 0.01088 0.56715 0.16306 0.0
C962 C 0.00464 0.54797 0.16911 0.0
C963 C 0.00857 0.54345 0.19442 0.0
C964 C 0.02837 0.60223 0.17651 0.0
C965 C 0.99351 0.53225 0.14909 0.0
H966 H 0.97448 0.58364 0.11107 0.0
H967 H 0.0262 0.59094 0.07681 0.0
H968 H 0.97114 0.55347 0.16433 0.0
H969 H 0.98207 0.57771 0.17498 0.0
H970 H 0.96239 0.56824 0.15184 0.0
H971 H 0.04428 0.57959 0.09762 0.0
H972 H 0.04682 0.58708 0.13204 0.0
H973 H 0.03325 0.56235 0.12382 0.0
H974 H 0.03313 0.58779 0.22176 0.0
H975 H 0.00357 0.52879 0.19939 0.0
H976 H 0.0161 0.60416 0.17245 0.0
H977 H 0.03749 0.60674 0.15844 0.0
H978 H 0.0367 0.61173 0.19339 0.0
H979 H 0.97962 0.53119 0.14503 0.0
H980 H 0.99078 0.51827 0.15623 0.0
H981 H 0.00131 0.53547 0.12988 0.0
C982 C 0.40776 0.41761 0.08038 0.0
C983 C 0.41018 0.42841 0.05758 0.0
C984 C 0.41841 0.42605 0.10362 0.0
C985 C 0.43207 0.44573 0.10395 0.0
C986 C 0.43496 0.45662 0.08077 0.0
C987 C 0.42385 0.44787 0.05793 0.0
C988 C 0.41471 0.41399 0.12807 0.0
C989 C 0.44964 0.47755 0.08022 0.0
C990 C 0.44308 0.46872 0.17256 0.0
C991 C 0.45923 0.46786 0.17993 0.0
C992 C 0.43451 0.46219 0.1475 0.0
C993 C 0.44249 0.45496 0.12908 0.0
C994 C 0.45953 0.45525 0.13565 0.0
C995 C 0.46765 0.46159 0.1611 0.0
C996 C 0.41633 0.4621 0.14134 0.0
C997 C 0.46866 0.448 0.11632 0.0
H998 H 0.3972 0.40258 0.08028 0.0
H999 H 0.42595 0.45627 0.04028 0.0
H1000 H 0.42811 0.41489 0.13478 0.0
H1001 H 0.40968 0.41942 0.14466 0.0
H1002 H 0.40387 0.39884 0.12437 0.0
H1003 H 0.45104 0.48372 0.06011 0.0
H1004 H 0.44564 0.48532 0.09461 0.0
H1005 H 0.46375 0.47994 0.08649 0.0
H1006 H 0.43674 0.47393 0.18682 0.0
H1007 H 0.48006 0.46078 0.16664 0.0
H1008 H 0.40438 0.44723 0.13925 0.0
H1009 H 0.41763 0.46924 0.12209 0.0
H1010 H 0.41262 0.46926 0.15717 0.0
H1011 H 0.45956 0.43235 0.11424 0.0
H1012 H 0.48305 0.45142 0.12304 0.0
H1013 H 0.46988 0.45414 0.09626 0.0
C1014 C 0.68428 0.76024 0.43631 0.0
C1015 C 0.66778 0.7424 0.43284 0.0
C1016 C 0.68616 0.77202 0.45804 0.0
C1017 C 0.67117 0.76584 0.47679 0.0
C1018 C 0.65428 0.74803 0.47307 0.0
C1019 C 0.65281 0.7365 0.45116 0.0
C1020 C 0.70443 0.79086 0.46137 0.0
C1021 C 0.638 0.74093 0.49266 0.0
C1022 C 0.6849 0.78474 0.54746 0.0
C1023 C 0.67966 0.79864 0.54873 0.0
C1024 C 0.68203 0.77393 0.52429 0.0
C1025 C 0.6739 0.77718 0.50153 0.0
C1026 C 0.66878 0.79135 0.50245 0.0
C1027 C 0.67179 0.802 0.52608 0.0
C1028 C 0.68784 0.75908 0.52417 0.0
C1029 C 0.6601 0.79521 0.47853 0.0
H1030 H 0.6959 0.76495 0.42218 0.0
H1031 H 0.63996 0.72279 0.44852 0.0
H1032 H 0.70127 0.80246 0.46393 0.0
H1033 H 0.71198 0.79064 0.47964 0.0
H1034 H 0.71416 0.79419 0.44407 0.0
H1035 H 0.62531 0.72747 0.48587 0.0
H1036 H 0.64262 0.73849 0.51229 0.0
H1037 H 0.6338 0.75175 0.49575 0.0
H1038 H 0.69148 0.78241 0.56465 0.0
H1039 H 0.66777 0.81275 0.52696 0.0
H1040 H 0.69884 0.76246 0.50868 0.0
H1041 H 0.67541 0.74496 0.51909 0.0
H1042 H 0.69363 0.75808 0.54375 0.0
H1043 H 0.66994 0.7993 0.46128 0.0
H1044 H 0.6569 0.80669 0.48246 0.0
H1045 H 0.6467 0.78211 0.47268 0.0
C1046 C 0.23105 0.92514 0.40939 0.0
C1047 C 0.24304 0.9235 0.39088 0.0
C1048 C 0.22542 0.9143 0.43273 0.0
C1049 C 0.23133 0.90096 0.43707 0.0
C1050 C 0.24272 0.89863 0.41775 0.0
C1051 C 0.24879 0.91025 0.39512 0.0
C1052 C 0.21382 0.91768 0.45324 0.0
C1053 C 0.24868 0.88407 0.42115 0.0
C1054 C 0.23552 0.89082 0.50943 0.0
C1055 C 0.21741 0.87504 0.5145 0.0
C1056 C 0.24034 0.8991 0.48418 0.0
C1057 C 0.2271 0.89089 0.46299 0.0
C1058 C 0.20943 0.87399 0.4673 0.0
C1059 C 0.20467 0.86638 0.49314 0.0
C1060 C 0.25922 0.91729 0.48064 0.0
C1061 C 0.19525 0.86438 0.44493 0.0
H1062 H 0.22663 0.93542 0.40604 0.0
H1063 H 0.25783 0.90879 0.38051 0.0
H1064 H 0.20042 0.90424 0.45751 0.0
H1065 H 0.22194 0.9227 0.47224 0.0
H1066 H 0.21018 0.92837 0.44664 0.0
H1067 H 0.25547 0.88241 0.40287 0.0
H1068 H 0.25896 0.88832 0.4379 0.0
H1069 H 0.23614 0.87008 0.42622 0.0
H1070 H 0.24577 0.89719 0.52555 0.0
H1071 H 0.19069 0.85414 0.49677 0.0
H1072 H 0.25668 0.92889 0.47492 0.0
H1073 H 0.26749 0.91564 0.46433 0.0
H1074 H 0.26802 0.92167 0.4991 0.0
H1075 H 0.18862 0.87291 0.4399 0.0
H1076 H 0.18373 0.84989 0.45042 0.0
H1077 H 0.20249 0.8634 0.42671 0.0
C1078 C 0.09437 0.32584 0.39196 0.0
C1079 C 0.07748 0.32638 0.3938 0.0
C1080 C 0.10317 0.32409 0.41489 0.0
C1081 C 0.09451 0.32221 0.44008 0.0
C1082 C 0.07743 0.32273 0.44201 0.0
C1083 C 0.06927 0.32511 0.41885 0.0
C1084 C 0.12168 0.32418 0.41217 0.0
C1085 C 0.0675 0.32028 0.46844 0.0
C1086 C 0.10352 0.29684 0.49588 0.0
C1087 C 0.11465 0.31188 0.51341 0.0
C1088 C 0.09731 0.30007 0.47151 0.0
C1089 C 0.10277 0.31887 0.46435 0.0
C1090 C 0.11498 0.33423 0.48135 0.0
C1091 C 0.12052 0.33051 0.50599 0.0
C1092 C 0.08396 0.28328 0.45425 0.0
C1093 C 0.12155 0.35449 0.47402 0.0
H1094 H 0.10085 0.32706 0.37259 0.0
H1095 H 0.05616 0.32544 0.42025 0.0
H1096 H 0.13263 0.33512 0.42562 0.0
H1097 H 0.11961 0.31026 0.41829 0.0
H1098 H 0.1272 0.32704 0.39141 0.0
H1099 H 0.05425 0.32089 0.46647 0.0
H1100 H 0.06381 0.30642 0.47722 0.0
H1101 H 0.07716 0.33151 0.48271 0.0
H1102 H 0.09875 0.28241 0.50195 0.0
H1103 H 0.12905 0.34208 0.51976 0.0
H1104 H 0.08951 0.28513 0.4336 0.0
H1105 H 0.06988 0.2823 0.45318 0.0
H1106 H 0.08184 0.26968 0.46207 0.0
H1107 H 0.12708 0.35736 0.45328 0.0
H1108 H 0.13285 0.36485 0.4877 0.0
H1109 H 0.10931 0.35687 0.47486 0.0
C1110 C 0.08899 0.35902 0.24925 0.0
C1111 C 0.09327 0.36513 0.27584 0.0
C1112 C 0.10332 0.3615 0.23143 0.0
C1113 C 0.12246 0.37022 0.24047 0.0
C1114 C 0.12702 0.37717 0.267 0.0
C1115 C 0.11233 0.37455 0.28442 0.0
C1116 C 0.09782 0.35415 0.20312 0.0
C1117 C 0.14719 0.38654 0.27742 0.0
C1118 C 0.14622 0.35163 0.1957 0.0
C1119 C 0.15201 0.36479 0.17494 0.0
C1120 C 0.13877 0.35449 0.21939 0.0
C1121 C 0.13711 0.37082 0.22213 0.0
C1122 C 0.14581 0.38549 0.20314 0.0
C1123 C 0.15329 0.38233 0.17971 0.0
C1124 C 0.13024 0.33876 0.23962 0.0
C1125 C 0.14487 0.40338 0.2057 0.0
H1126 H 0.07431 0.35189 0.24247 0.0
H1127 H 0.11572 0.37928 0.30501 0.0
H1128 H 0.10636 0.36561 0.18871 0.0
H1129 H 0.1009 0.34258 0.1994 0.0
H1130 H 0.08248 0.34856 0.19898 0.0
H1131 H 0.14905 0.39496 0.29587 0.0
H1132 H 0.15069 0.37544 0.28219 0.0
H1133 H 0.15755 0.39597 0.26224 0.0
H1134 H 0.14532 0.3381 0.19228 0.0
H1135 H 0.15816 0.39271 0.16388 0.0
H1136 H 0.11455 0.33033 0.23675 0.0
H1137 H 0.13304 0.34463 0.26024 0.0
H1138 H 0.13596 0.32906 0.23746 0.0
H1139 H 0.13061 0.4004 0.19908 0.0
H1140 H 0.15581 0.41493 0.19313 0.0
H1141 H 0.14686 0.40839 0.22674 0.0
C1142 C 0.65297 0.75951 0.29623 0.0
C1143 C 0.65799 0.74545 0.29671 0.0
C1144 C 0.65581 0.77039 0.27333 0.0
C1145 C 0.66358 0.76692 0.25016 0.0
C1146 C 0.6691 0.75306 0.25069 0.0
C1147 C 0.66638 0.74259 0.27403 0.0
C1148 C 0.65005 0.78525 0.27371 0.0
C1149 C 0.67726 0.74881 0.22629 0.0
C1150 C 0.65049 0.77657 0.18197 0.0
C1151 C 0.66756 0.79261 0.17393 0.0
C1152 C 0.64886 0.76842 0.20703 0.0
C1153 C 0.66459 0.77669 0.22475 0.0
C1154 C 0.68146 0.79361 0.21748 0.0
C1155 C 0.68278 0.80135 0.19206 0.0
C1156 C 0.6306 0.75041 0.21397 0.0
C1157 C 0.6984 0.80304 0.23605 0.0
H1158 H 0.64669 0.76199 0.31378 0.0
H1159 H 0.6703 0.73177 0.27423 0.0
H1160 H 0.66194 0.79901 0.26653 0.0
H1161 H 0.63784 0.78093 0.25998 0.0
H1162 H 0.64586 0.78741 0.29397 0.0
H1163 H 0.68163 0.73823 0.23031 0.0
H1164 H 0.66649 0.74322 0.21004 0.0
H1165 H 0.68982 0.76201 0.21893 0.0
H1166 H 0.63856 0.76996 0.16819 0.0
H1167 H 0.69604 0.81368 0.18593 0.0
H1168 H 0.62497 0.75216 0.23329 0.0
H1169 H 0.63347 0.73862 0.21628 0.0
H1170 H 0.61941 0.74627 0.19846 0.0
H1171 H 0.69389 0.80476 0.25629 0.0
H1172 H 0.70955 0.81718 0.22876 0.0
H1173 H 0.70478 0.79393 0.23796 0.0
C1174 C 0.23922 0.93101 0.23557 0.0
C1175 C 0.2471 0.92453 0.25465 0.0
C1176 C 0.23004 0.92008 0.21274 0.0
C1177 C 0.22878 0.90231 0.20892 0.0
C1178 C 0.23585 0.89529 0.22879 0.0
C1179 C 0.24492 0.90649 0.25141 0.0
C1180 C 0.22261 0.928 0.19204 0.0
C1181 C 0.23483 0.87643 0.22547 0.0
C1182 C 0.19832 0.86787 0.15373 0.0
C1183 C 0.21205 0.87195 0.13391 0.0
C1184 C 0.20338 0.87793 0.17814 0.0
C1185 C 0.22259 0.89229 0.18274 0.0
C1186 C 0.2364 0.89658 0.16266 0.0
C1187 C 0.23099 0.88632 0.13864 0.0
C1188 C 0.18829 0.87301 0.19914 0.0
C1189 C 0.25707 0.91168 0.16678 0.0
H1190 H 0.2407 0.94488 0.23807 0.0
H1191 H 0.25081 0.90129 0.26619 0.0
H1192 H 0.23182 0.93206 0.17407 0.0
H1193 H 0.20799 0.91711 0.18573 0.0
H1194 H 0.2224 0.94073 0.1995 0.0
H1195 H 0.23903 0.87207 0.24395 0.0
H1196 H 0.22019 0.86517 0.21983 0.0
H1197 H 0.24449 0.87738 0.20912 0.0
H1198 H 0.18368 0.85678 0.15018 0.0
H1199 H 0.24182 0.88923 0.12379 0.0
H1200 H 0.18796 0.8859 0.20525 0.0
H1201 H 0.19178 0.8676 0.21718 0.0
H1202 H 0.17387 0.86208 0.19203 0.0
H1203 H 0.25825 0.9254 0.17226 0.0
H1204 H 0.26585 0.91382 0.1487 0.0
H1205 H 0.26315 0.90764 0.1835 0.0
C1206 C 0.63506 0.89515 0.2726 0.0
C1207 C 0.65053 0.90972 0.28656 0.0
C1208 C 0.6379 0.88746 0.24909 0.0
C1209 C 0.6567 0.89409 0.23992 0.0
C1210 C 0.6724 0.90831 0.25457 0.0
C1211 C 0.66911 0.9162 0.27749 0.0
C1212 C 0.62077 0.87277 0.23354 0.0
C1213 C 0.69266 0.91533 0.24588 0.0
C1214 C 0.66305 0.86397 0.18721 0.0
C1215 C 0.66451 0.87396 0.16385 0.0
C1216 C 0.66099 0.87058 0.21229 0.0
C1217 C 0.65985 0.88727 0.2139 0.0
C1218 C 0.66149 0.89748 0.19048 0.0
C1219 C 0.66422 0.89095 0.16591 0.0
C1220 C 0.65989 0.85966 0.237 0.0
C1221 C 0.66005 0.91519 0.19124 0.0
H1222 H 0.62069 0.89018 0.27963 0.0
H1223 H 0.6811 0.92729 0.28855 0.0
H1224 H 0.62061 0.87838 0.21352 0.0
H1225 H 0.62163 0.85979 0.23044 0.0
H1226 H 0.60713 0.86878 0.24375 0.0
H1227 H 0.70324 0.92502 0.26089 0.0
H1228 H 0.69484 0.90316 0.24235 0.0
H1229 H 0.69551 0.92304 0.22676 0.0
H1230 H 0.66321 0.85082 0.18591 0.0
H1231 H 0.66607 0.89923 0.14823 0.0
H1232 H 0.64565 0.85378 0.24632 0.0
H1233 H 0.67059 0.86929 0.25189 0.0
H1234 H 0.6624 0.84777 0.23256 0.0
H1235 H 0.64638 0.91202 0.20059 0.0
H1236 H 0.66084 0.92102 0.17104 0.0
H1237 H 0.67172 0.9263 0.20363 0.0
C1238 C 0.0947 0.75104 0.26288 0.0
C1239 C 0.07645 0.74868 0.265 0.0
C1240 C 0.10587 0.75912 0.24006 0.0
C1241 C 0.09863 0.76501 0.21894 0.0
C1242 C 0.08056 0.7634 0.22147 0.0
C1243 C 0.06965 0.75519 0.24444 0.0
C1244 C 0.12505 0.76053 0.23803 0.0
C1245 C 0.07237 0.76957 0.1994 0.0
C1246 C 0.13145 0.79495 0.16274 0.0
C1247 C 0.12716 0.78105 0.14306 0.0
C1248 C 0.12237 0.79 0.18774 0.0
C1249 C 0.10886 0.77073 0.19305 0.0
C1250 C 0.10479 0.75666 0.17336 0.0
C1251 C 0.11401 0.76199 0.14869 0.0
C1252 C 0.12702 0.80537 0.2083 0.0
C1253 C 0.0906 0.73593 0.17827 0.0
H1254 H 0.10007 0.74613 0.27877 0.0
H1255 H 0.05563 0.75357 0.24606 0.0
H1256 H 0.12446 0.75052 0.22245 0.0
H1257 H 0.13614 0.77502 0.23194 0.0
H1258 H 0.12945 0.75713 0.25717 0.0
H1259 H 0.05905 0.76916 0.20555 0.0
H1260 H 0.0829 0.7842 0.19303 0.0
H1261 H 0.06917 0.76009 0.18178 0.0
H1262 H 0.14166 0.80969 0.15842 0.0
H1263 H 0.11101 0.75113 0.13376 0.0
H1264 H 0.13181 0.80205 0.22713 0.0
H1265 H 0.11403 0.80598 0.21299 0.0
H1266 H 0.13831 0.81957 0.20139 0.0
H1267 H 0.09498 0.73099 0.19595 0.0
H1268 H 0.08923 0.72676 0.16091 0.0
H1269 H 0.07636 0.73399 0.18263 0.0
C1270 C 0.24879 0.3427 0.29274 0.0
C1271 C 0.26295 0.33776 0.29156 0.0
C1272 C 0.23771 0.34084 0.27028 0.0
C1273 C 0.2411 0.33424 0.24587 0.0
C1274 C 0.255 0.32871 0.24472 0.0
C1275 C 0.26564 0.33038 0.26767 0.0
C1276 C 0.22281 0.34655 0.27246 0.0
C1277 C 0.25922 0.32186 0.21896 0.0
C1278 C 0.20622 0.3199 0.18768 0.0
C1279 C 0.21491 0.33646 0.17236 0.0
C1280 C 0.21433 0.31901 0.21201 0.0
C1281 C 0.23157 0.335 0.22099 0.0
C1282 C 0.24004 0.35189 0.20596 0.0
C1283 C 0.23151 0.35247 0.18207 0.0
C1284 C 0.20472 0.30087 0.22778 0.0
C1285 C 0.25841 0.36928 0.21477 0.0
H1286 H 0.24641 0.34814 0.31125 0.0
H1287 H 0.27653 0.32651 0.26664 0.0
H1288 H 0.22731 0.35958 0.26071 0.0
H1289 H 0.20905 0.33526 0.26403 0.0
H1290 H 0.22048 0.34939 0.29345 0.0
H1291 H 0.26948 0.31688 0.22179 0.0
H1292 H 0.24589 0.31009 0.2102 0.0
H1293 H 0.26529 0.33357 0.20429 0.0
H1294 H 0.19344 0.30746 0.18028 0.0
H1295 H 0.23806 0.36547 0.17066 0.0
H1296 H 0.20252 0.30387 0.24872 0.0
H1297 H 0.214 0.29461 0.22836 0.0
H1298 H 0.19072 0.29021 0.2191 0.0
H1299 H 0.25662 0.37402 0.23482 0.0
H1300 H 0.26316 0.38128 0.20072 0.0
H1301 H 0.26986 0.36577 0.21638 0.0
C1302 C 0.26641 0.33532 0.44205 0.0
C1303 C 0.26108 0.32194 0.42127 0.0
C1304 C 0.25361 0.33288 0.4626 0.0
C1305 C 0.23506 0.31664 0.46242 0.0
C1306 C 0.22947 0.3033 0.4412 0.0
C1307 C 0.24253 0.30612 0.42088 0.0
C1308 C 0.26011 0.34741 0.48489 0.0
C1309 C 0.20986 0.28576 0.44036 0.0
C1310 C 0.21139 0.29911 0.52959 0.0
C1311 C 0.19865 0.30587 0.53063 0.0
C1312 C 0.22318 0.30245 0.50747 0.0
C1313 C 0.22217 0.31273 0.48563 0.0
C1314 C 0.20905 0.31927 0.48622 0.0
C1315 C 0.19735 0.31568 0.50874 0.0
C1316 C 0.23683 0.29508 0.5076 0.0
C1317 C 0.20759 0.33026 0.46325 0.0
H1318 H 0.28067 0.34765 0.4424 0.0
H1319 H 0.23827 0.29576 0.40483 0.0
H1320 H 0.24981 0.35236 0.48761 0.0
H1321 H 0.26062 0.34084 0.50391 0.0
H1322 H 0.27445 0.35992 0.4811 0.0
H1323 H 0.20725 0.27749 0.42155 0.0
H1324 H 0.20818 0.27646 0.45739 0.0
H1325 H 0.19875 0.28971 0.44244 0.0
H1326 H 0.21213 0.29111 0.54621 0.0
H1327 H 0.18749 0.32088 0.50948 0.0
H1328 H 0.2517 0.30707 0.50578 0.0
H1329 H 0.23399 0.28551 0.4902 0.0
H1330 H 0.2357 0.28719 0.52609 0.0
H1331 H 0.22145 0.34357 0.46045 0.0
H1332 H 0.19635 0.33393 0.46649 0.0
H1333 H 0.20442 0.32188 0.44449 0.0
C1334 C 0.65177 0.91661 0.44144 0.0
C1335 C 0.665 0.9227 0.42052 0.0
C1336 C 0.65394 0.90785 0.46398 0.0
C1337 C 0.66971 0.9051 0.4656 0.0
C1338 C 0.68257 0.91033 0.44395 0.0
C1339 C 0.68008 0.91912 0.42167 0.0
C1340 C 0.63993 0.90248 0.48668 0.0
C1341 C 0.69953 0.90759 0.44491 0.0
C1342 C 0.68909 0.90808 0.53501 0.0
C1343 C 0.68165 0.88891 0.5413 0.0
C1344 C 0.68546 0.91343 0.51035 0.0
C1345 C 0.67418 0.89927 0.49128 0.0
C1346 C 0.66702 0.87988 0.49713 0.0
C1347 C 0.67091 0.8749 0.52216 0.0
C1348 C 0.69351 0.93429 0.50488 0.0
C1349 C 0.65501 0.86444 0.47718 0.0
H1350 H 0.63997 0.91918 0.44057 0.0
H1351 H 0.69026 0.92361 0.40544 0.0
H1352 H 0.63494 0.88776 0.49318 0.0
H1353 H 0.64708 0.91202 0.50403 0.0
H1354 H 0.62734 0.90358 0.48113 0.0
H1355 H 0.70673 0.91013 0.42525 0.0
H1356 H 0.71001 0.91759 0.45972 0.0
H1357 H 0.69512 0.893 0.45143 0.0
H1358 H 0.69783 0.91898 0.54952 0.0
H1359 H 0.66524 0.86009 0.52697 0.0
H1360 H 0.68174 0.93706 0.50109 0.0
H1361 H 0.70252 0.93845 0.48672 0.0
H1362 H 0.70224 0.94349 0.52176 0.0
H1363 H 0.64153 0.86431 0.47351 0.0
H1364 H 0.65149 0.85017 0.48416 0.0
H1365 H 0.66256 0.86727 0.4578 0.0
C1366 C 0.08808 0.78786 0.39774 0.0
C1367 C 0.07607 0.76803 0.39726 0.0
C1368 C 0.09966 0.79722 0.41999 0.0
C1369 C 0.09902 0.78651 0.44238 0.0
C1370 C 0.08688 0.76652 0.44204 0.0
C1371 C 0.07564 0.75753 0.41945 0.0
C1372 C 0.11259 0.81851 0.41954 0.0
C1373 C 0.08567 0.7546 0.46565 0.0
C1374 C 0.13748 0.80259 0.49518 0.0
C1375 C 0.1288 0.80623 0.5168 0.0
C1376 C 0.12863 0.79757 0.47002 0.0
C1377 C 0.11064 0.79602 0.46658 0.0
C1378 C 0.10267 0.80131 0.4877 0.0
C1379 C 0.11192 0.80648 0.51251 0.0
C1380 C 0.13779 0.79242 0.44782 0.0
C1381 C 0.08357 0.79996 0.48485 0.0
H1382 H 0.08861 0.79609 0.38059 0.0
H1383 H 0.0664 0.74223 0.41929 0.0
H1384 H 0.10881 0.82513 0.43603 0.0
H1385 H 0.12758 0.82229 0.4228 0.0
H1386 H 0.11169 0.82473 0.40037 0.0
H1387 H 0.07548 0.73923 0.46223 0.0
H1388 H 0.09992 0.75658 0.46997 0.0
H1389 H 0.08112 0.75925 0.48366 0.0
H1390 H 0.15049 0.8023 0.49834 0.0
H1391 H 0.10535 0.80963 0.52907 0.0
H1392 H 0.13684 0.79853 0.42862 0.0
H1393 H 0.13011 0.77675 0.44529 0.0
H1394 H 0.15301 0.79744 0.45211 0.0
H1395 H 0.08289 0.80659 0.46601 0.0
H1396 H 0.08056 0.80688 0.50181 0.0
H1397 H 0.07216 0.78479 0.48401 0.0
C1398 C 0.32148 0.07832 0.76626 0.0
C1399 C 0.33454 0.07202 0.7671 0.0
C1400 C 0.32135 0.09036 0.78636 0.0
C1401 C 0.33406 0.09548 0.80824 0.0
C1402 C 0.3469 0.08862 0.80942 0.0
C1403 C 0.34727 0.07731 0.78848 0.0
C1404 C 0.30805 0.09802 0.78382 0.0
C1405 C 0.36024 0.09319 0.83282 0.0
C1406 C 0.35115 0.13875 0.85288 0.0
C1407 C 0.34023 0.13078 0.876 0.0
C1408 C 0.34807 0.12775 0.82971 0.0
C1409 C 0.33427 0.10815 0.82994 0.0
C1410 C 0.32228 0.10032 0.85239 0.0
C1411 C 0.32507 0.11186 0.87483 0.0
C1412 C 0.36058 0.13686 0.80569 0.0
C1413 C 0.30762 0.07941 0.85373 0.0
H1414 H 0.3118 0.07432 0.74943 0.0
H1415 H 0.3573 0.07231 0.789 0.0
H1416 H 0.29873 0.09428 0.80161 0.0
H1417 H 0.31647 0.11375 0.78288 0.0
H1418 H 0.29892 0.09251 0.76571 0.0
H1419 H 0.36833 0.08563 0.83155 0.0
H1420 H 0.37058 0.10867 0.83371 0.0
H1421 H 0.35207 0.08926 0.85177 0.0
H1422 H 0.36296 0.15325 0.85322 0.0
H1423 H 0.31607 0.10566 0.89215 0.0
H1424 H 0.35209 0.13187 0.787 0.0
H1425 H 0.37162 0.13276 0.80461 0.0
H1426 H 0.36788 0.1526 0.8067 0.0
H1427 H 0.29882 0.07455 0.83535 0.0
H1428 H 0.29804 0.07597 0.87123 0.0
H1429 H 0.31503 0.07122 0.85523 0.0
C1430 C 0.89389 0.25611 0.74009 0.0
C1431 C 0.90699 0.25397 0.72454 0.0
C1432 C 0.88716 0.24642 0.76427 0.0
C1433 C 0.89318 0.23379 0.77258 0.0
C1434 C 0.90563 0.23082 0.75619 0.0
C1435 C 0.9127 0.24124 0.73258 0.0
C1436 C 0.87436 0.25043 0.78154 0.0
C1437 C 0.91185 0.21699 0.76388 0.0
C1438 C 0.89509 0.22826 0.84722 0.0
C1439 C 0.87723 0.21216 0.85238 0.0
C1440 C 0.90049 0.23523 0.82132 0.0
C1441 C 0.88813 0.22541 0.79971 0.0
C1442 C 0.87067 0.20837 0.80442 0.0
C1443 C 0.8653 0.20206 0.83077 0.0
C1444 C 0.91912 0.2536 0.81731 0.0
C1445 C 0.85742 0.19713 0.78177 0.0
H1446 H 0.8895 0.26597 0.73387 0.0
H1447 H 0.92262 0.23937 0.72032 0.0
H1448 H 0.86112 0.23701 0.78649 0.0
H1449 H 0.88171 0.25707 0.80064 0.0
H1450 H 0.8704 0.26007 0.77173 0.0
H1451 H 0.91939 0.2144 0.74735 0.0
H1452 H 0.92157 0.22261 0.78134 0.0
H1453 H 0.89933 0.20323 0.76981 0.0
H1454 H 0.90475 0.23579 0.8636 0.0
H1455 H 0.8515 0.18958 0.83447 0.0
H1456 H 0.91634 0.26432 0.80836 0.0
H1457 H 0.92834 0.25136 0.80325 0.0
H1458 H 0.92708 0.2595 0.83629 0.0
H1459 H 0.8508 0.20499 0.77362 0.0
H1460 H 0.84585 0.18293 0.78826 0.0
H1461 H 0.86546 0.19523 0.7653 0.0
C1462 C 0.76429 0.66356 0.72315 0.0
C1463 C 0.7468 0.66294 0.72457 0.0
C1464 C 0.7736 0.66309 0.74637 0.0
C1465 C 0.76488 0.66135 0.77147 0.0
C1466 C 0.74729 0.66091 0.77301 0.0
C1467 C 0.7386 0.66202 0.74952 0.0
C1468 C 0.79262 0.66419 0.74404 0.0
C1469 C 0.73731 0.65859 0.79937 0.0
C1470 C 0.77522 0.63762 0.82812 0.0
C1471 C 0.78595 0.65299 0.84538 0.0
C1472 C 0.76871 0.64024 0.80361 0.0
C1473 C 0.77344 0.65875 0.796 0.0
C1474 C 0.78523 0.67448 0.81271 0.0
C1475 C 0.7911 0.67136 0.83751 0.0
C1476 C 0.75582 0.62305 0.78664 0.0
C1477 C 0.79103 0.69447 0.80488 0.0
H1478 H 0.77076 0.66453 0.70384 0.0
H1479 H 0.72504 0.66148 0.75059 0.0
H1480 H 0.80318 0.6754 0.75759 0.0
H1481 H 0.79118 0.65054 0.75024 0.0
H1482 H 0.79827 0.66726 0.72335 0.0
H1483 H 0.72383 0.65874 0.79714 0.0
H1484 H 0.734 0.64496 0.80857 0.0
H1485 H 0.74677 0.67013 0.8134 0.0
H1486 H 0.77099 0.62338 0.83452 0.0
H1487 H 0.79933 0.68319 0.85104 0.0
H1488 H 0.76152 0.62483 0.76608 0.0
H1489 H 0.74152 0.62154 0.78519 0.0
H1490 H 0.75415 0.60974 0.79493 0.0
H1491 H 0.79653 0.69728 0.78413 0.0
H1492 H 0.80213 0.70523 0.8184 0.0
H1493 H 0.77842 0.69625 0.80551 0.0
C1494 C 0.75332 0.68704 0.57605 0.0
C1495 C 0.75808 0.69344 0.60246 0.0
C1496 C 0.7672 0.68857 0.55806 0.0
C1497 C 0.78633 0.69649 0.56679 0.0
C1498 C 0.79138 0.7036 0.59319 0.0
C1499 C 0.77717 0.70206 0.61074 0.0
C1500 C 0.76122 0.68114 0.52987 0.0
C1501 C 0.81154 0.71201 0.60332 0.0
C1502 C 0.80805 0.67619 0.52115 0.0
C1503 C 0.81433 0.6895 0.50056 0.0
C1504 C 0.80114 0.67945 0.54507 0.0
C1505 C 0.80047 0.69632 0.54816 0.0
C1506 C 0.80966 0.711 0.52928 0.0
C1507 C 0.81665 0.70745 0.50567 0.0
C1508 C 0.79214 0.66372 0.56524 0.0
C1509 C 0.80971 0.7294 0.53211 0.0
H1510 H 0.73861 0.6805 0.56955 0.0
H1511 H 0.78089 0.70692 0.63123 0.0
H1512 H 0.7701 0.69232 0.51528 0.0
H1513 H 0.76342 0.66899 0.52623 0.0
H1514 H 0.746 0.67632 0.52594 0.0
H1515 H 0.81398 0.72051 0.62186 0.0
H1516 H 0.81429 0.70036 0.60782 0.0
H1517 H 0.82204 0.72112 0.58807 0.0
H1518 H 0.80638 0.66234 0.51745 0.0
H1519 H 0.82192 0.71793 0.48995 0.0
H1520 H 0.77643 0.65583 0.56247 0.0
H1521 H 0.7952 0.66954 0.58588 0.0
H1522 H 0.79726 0.65353 0.5629 0.0
H1523 H 0.79563 0.72708 0.5258 0.0
H1524 H 0.82084 0.74069 0.51943 0.0
H1525 H 0.81208 0.7344 0.55316 0.0
C1526 C 0.34873 0.09078 0.62591 0.0
C1527 C 0.3298 0.07749 0.63236 0.0
C1528 C 0.35305 0.10229 0.60328 0.0
C1529 C 0.33812 0.09983 0.5862 0.0
C1530 C 0.31897 0.08646 0.5928 0.0
C1531 C 0.31503 0.07572 0.61608 0.0
C1532 C 0.37357 0.11688 0.59747 0.0
C1533 C 0.30266 0.08292 0.57471 0.0
C1534 C 0.34261 0.13385 0.53155 0.0
C1535 C 0.34497 0.12503 0.50891 0.0
C1536 C 0.34157 0.12654 0.55722 0.0
C1537 C 0.34243 0.10977 0.56015 0.0
C1538 C 0.34578 0.10141 0.53753 0.0
C1539 C 0.34743 0.10939 0.51238 0.0
C1540 C 0.33876 0.13627 0.58103 0.0
C1541 C 0.34649 0.08336 0.53959 0.0
H1542 H 0.36013 0.09234 0.63877 0.0
H1543 H 0.30039 0.0654 0.62107 0.0
H1544 H 0.37845 0.11254 0.57951 0.0
H1545 H 0.37496 0.13081 0.59314 0.0
H1546 H 0.38317 0.11868 0.61437 0.0
H1547 H 0.28858 0.07222 0.58293 0.0
H1548 H 0.30267 0.09631 0.57149 0.0
H1549 H 0.30444 0.07784 0.5549 0.0
H1550 H 0.34082 0.14601 0.52916 0.0
H1551 H 0.35002 0.10289 0.49517 0.0
H1552 H 0.34829 0.13749 0.59767 0.0
H1553 H 0.32387 0.12771 0.58823 0.0
H1554 H 0.34156 0.15068 0.57609 0.0
H1555 H 0.35748 0.0852 0.55424 0.0
H1556 H 0.34967 0.07895 0.52014 0.0
H1557 H 0.33257 0.0717 0.54685 0.0
C1558 C 0.90986 0.26051 0.56752 0.0
C1559 C 0.91697 0.25357 0.58707 0.0
C1560 C 0.90169 0.25019 0.54389 0.0
C1561 C 0.90076 0.2326 0.53968 0.0
C1562 C 0.90716 0.22516 0.55985 0.0
C1563 C 0.91515 0.23572 0.58334 0.0
C1564 C 0.89489 0.25853 0.52291 0.0
C1565 C 0.90651 0.2065 0.55606 0.0
C1566 C 0.87174 0.19978 0.48225 0.0
C1567 C 0.88589 0.20462 0.46286 0.0
C1568 C 0.87622 0.20895 0.50732 0.0
C1569 C 0.89531 0.22314 0.51305 0.0
C1570 C 0.9096 0.22808 0.49348 0.0
C1571 C 0.90472 0.21875 0.46872 0.0
C1572 C 0.86063 0.20337 0.5277 0.0
C1573 C 0.93016 0.243 0.49884 0.0
H1574 H 0.91105 0.27423 0.57038 0.0
H1575 H 0.92052 0.23021 0.59843 0.0
H1576 H 0.90454 0.26283 0.50541 0.0
H1577 H 0.88042 0.24778 0.51585 0.0
H1578 H 0.89454 0.27116 0.53045 0.0
H1579 H 0.91029 0.20181 0.5746 0.0
H1580 H 0.8921 0.19526 0.54952 0.0
H1581 H 0.91667 0.20796 0.54016 0.0
H1582 H 0.85717 0.18886 0.47779 0.0
H1583 H 0.91583 0.22222 0.4541 0.0
H1584 H 0.85995 0.21603 0.5341 0.0
H1585 H 0.86382 0.1977 0.54572 0.0
H1586 H 0.84643 0.19246 0.51987 0.0
H1587 H 0.93124 0.25665 0.50453 0.0
H1588 H 0.93944 0.24544 0.48126 0.0
H1589 H 0.93571 0.23861 0.51583 0.0
C1590 C 0.30822 0.22099 0.62264 0.0
C1591 C 0.3142 0.24036 0.62081 0.0
C1592 C 0.30998 0.21107 0.60085 0.0
C1593 C 0.31769 0.22068 0.5766 0.0
C1594 C 0.32345 0.24013 0.57449 0.0
C1595 C 0.32174 0.24975 0.59666 0.0
C1596 C 0.30387 0.1904 0.6039 0.0
C1597 C 0.33152 0.25082 0.54882 0.0
C1598 C 0.34009 0.20448 0.52408 0.0
C1599 C 0.32586 0.19705 0.50438 0.0
C1600 C 0.33719 0.21117 0.54852 0.0
C1601 C 0.31972 0.21054 0.55319 0.0
C1602 C 0.30486 0.20185 0.53414 0.0
C1603 C 0.30807 0.1951 0.51004 0.0
C1604 C 0.35327 0.22007 0.56855 0.0
C1605 C 0.28601 0.20085 0.53837 0.0
H1606 H 0.3025 0.21365 0.64129 0.0
H1607 H 0.32634 0.26468 0.59505 0.0
H1608 H 0.29291 0.18168 0.58873 0.0
H1609 H 0.31622 0.18843 0.60039 0.0
H1610 H 0.29799 0.18494 0.62402 0.0
H1611 H 0.335 0.26581 0.55034 0.0
H1612 H 0.34466 0.25071 0.54338 0.0
H1613 H 0.32114 0.24374 0.53232 0.0
H1614 H 0.3539 0.20614 0.51981 0.0
H1615 H 0.29692 0.18906 0.49503 0.0
H1616 H 0.34795 0.21471 0.58889 0.0
H1617 H 0.35936 0.23567 0.56903 0.0
H1618 H 0.36486 0.21718 0.56358 0.0
H1619 H 0.28018 0.19509 0.55837 0.0
H1620 H 0.2753 0.1919 0.52301 0.0
H1621 H 0.28818 0.21537 0.53754 0.0
C1622 C 0.77085 0.08675 0.59224 0.0
C1623 C 0.75265 0.08457 0.59357 0.0
C1624 C 0.78239 0.09462 0.56965 0.0
C1625 C 0.77556 0.10048 0.54799 0.0
C1626 C 0.75757 0.09912 0.54976 0.0
C1627 C 0.7463 0.09112 0.5725 0.0
C1628 C 0.80148 0.09579 0.56845 0.0
C1629 C 0.74982 0.10528 0.52711 0.0
C1630 C 0.80836 0.12966 0.49129 0.0
C1631 C 0.80368 0.11555 0.4718 0.0
C1632 C 0.79962 0.125 0.51653 0.0
C1633 C 0.78606 0.10581 0.52226 0.0
C1634 C 0.78183 0.0915 0.50289 0.0
C1635 C 0.7907 0.09655 0.47797 0.0
C1636 C 0.80447 0.14061 0.53673 0.0
C1637 C 0.76759 0.07085 0.50825 0.0
H1638 H 0.77589 0.08181 0.60853 0.0
H1639 H 0.73232 0.08966 0.57352 0.0
H1640 H 0.8009 0.08545 0.55343 0.0
H1641 H 0.81274 0.11012 0.56203 0.0
H1642 H 0.80563 0.09265 0.58798 0.0
H1643 H 0.73651 0.10509 0.53269 0.0
H1644 H 0.76055 0.11981 0.52067 0.0
H1645 H 0.74672 0.09565 0.50971 0.0
H1646 H 0.81844 0.14435 0.48653 0.0
H1647 H 0.7874 0.08557 0.46311 0.0
H1648 H 0.80852 0.13712 0.55605 0.0
H1649 H 0.79176 0.14192 0.54044 0.0
H1650 H 0.81633 0.15456 0.52994 0.0
H1651 H 0.77173 0.06617 0.52644 0.0
H1652 H 0.76643 0.06143 0.49134 0.0
H1653 H 0.75331 0.06899 0.51193 0.0
C1654 C 0.91339 0.64586 0.60418 0.0
C1655 C 0.92664 0.66466 0.61144 0.0
C1656 C 0.90124 0.64183 0.5821 0.0
C1657 C 0.90293 0.65694 0.56646 0.0
C1658 C 0.91655 0.67593 0.57355 0.0
C1659 C 0.92798 0.67955 0.59622 0.0
C1660 C 0.88648 0.62147 0.57569 0.0
C1661 C 0.91925 0.69245 0.55697 0.0
C1662 C 0.889 0.65048 0.49351 0.0
C1663 C 0.87353 0.65354 0.49371 0.0
C1664 C 0.89816 0.65061 0.51719 0.0
C1665 C 0.89124 0.65314 0.54188 0.0
C1666 C 0.87447 0.65431 0.54245 0.0
C1667 C 0.8659 0.65471 0.5183 0.0
C1668 C 0.91613 0.6496 0.51553 0.0
C1669 C 0.86625 0.65633 0.56846 0.0
H1670 H 0.91215 0.63435 0.61623 0.0
H1671 H 0.93826 0.69408 0.60183 0.0
H1672 H 0.87209 0.61981 0.57523 0.0
H1673 H 0.88914 0.61749 0.5556 0.0
H1674 H 0.88647 0.61143 0.59047 0.0
H1675 H 0.93078 0.7063 0.56486 0.0
H1676 H 0.92278 0.69072 0.5361 0.0
H1677 H 0.90583 0.69279 0.55639 0.0
H1678 H 0.89462 0.64895 0.47461 0.0
H1679 H 0.85391 0.65699 0.5187 0.0
H1680 H 0.91548 0.63887 0.52951 0.0
H1681 H 0.92853 0.66353 0.52149 0.0
H1682 H 0.9187 0.64603 0.49507 0.0
H1683 H 0.86603 0.64636 0.5835 0.0
H1684 H 0.85155 0.65368 0.5659 0.0
H1685 H 0.87534 0.67094 0.57649 0.0
C1686 C 0.90713 0.64242 0.74879 0.0
C1687 C 0.92578 0.65791 0.74675 0.0
C1688 C 0.89532 0.64103 0.77015 0.0
C1689 C 0.90234 0.65547 0.78999 0.0
C1690 C 0.92093 0.67145 0.78758 0.0
C1691 C 0.93244 0.67247 0.76599 0.0
C1692 C 0.8756 0.62375 0.77203 0.0
C1693 C 0.92892 0.68712 0.80835 0.0
C1694 C 0.86731 0.65652 0.83965 0.0
C1695 C 0.8695 0.64722 0.86151 0.0
C1696 C 0.87798 0.65946 0.81618 0.0
C1697 C 0.89101 0.65284 0.81461 0.0
C1698 C 0.89313 0.64333 0.83656 0.0
C1699 C 0.88231 0.64057 0.85961 0.0
C1700 C 0.87535 0.66963 0.79311 0.0
C1701 C 0.90675 0.63593 0.83569 0.0
H1702 H 0.90183 0.63116 0.73391 0.0
H1703 H 0.9468 0.68455 0.76445 0.0
H1704 H 0.87488 0.61515 0.78946 0.0
H1705 H 0.86484 0.62806 0.77519 0.0
H1706 H 0.87167 0.61464 0.75383 0.0
H1707 H 0.94291 0.69935 0.80236 0.0
H1708 H 0.91884 0.69223 0.81203 0.0
H1709 H 0.93079 0.68155 0.82751 0.0
H1710 H 0.85741 0.66164 0.84102 0.0
H1711 H 0.88372 0.63291 0.87614 0.0
H1712 H 0.87064 0.66033 0.77512 0.0
H1713 H 0.88914 0.68249 0.78817 0.0
H1714 H 0.8647 0.67394 0.79752 0.0
H1715 H 0.9027 0.62538 0.81924 0.0
H1716 H 0.90691 0.6291 0.85467 0.0
H1717 H 0.92142 0.64771 0.83159 0.0
C1718 C 0.33634 0.26268 0.771 0.0
C1719 C 0.34391 0.26412 0.74541 0.0
C1720 C 0.34045 0.25389 0.79165 0.0
C1721 C 0.35225 0.24616 0.78651 0.0
C1722 C 0.35965 0.24723 0.76059 0.0
C1723 C 0.3555 0.25634 0.74034 0.0
C1724 C 0.33244 0.25322 0.81914 0.0
C1725 C 0.37212 0.23898 0.75437 0.0
C1726 C 0.37626 0.24372 0.8493 0.0
C1727 C 0.36357 0.2252 0.8577 0.0
C1728 C 0.37355 0.25032 0.82502 0.0
C1729 C 0.35766 0.23807 0.8089 0.0
C1730 C 0.34564 0.21887 0.81637 0.0
C1731 C 0.34876 0.21262 0.84084 0.0
C1732 C 0.38676 0.27085 0.81776 0.0
C1733 C 0.32865 0.20537 0.79959 0.0
H1734 H 0.32738 0.26867 0.77502 0.0
H1735 H 0.36125 0.25729 0.72051 0.0
H1736 H 0.32411 0.23833 0.82605 0.0
H1737 H 0.34427 0.26116 0.83356 0.0
H1738 H 0.32309 0.25943 0.81961 0.0
H1739 H 0.37579 0.23997 0.73284 0.0
H1740 H 0.38553 0.24658 0.76609 0.0
H1741 H 0.36483 0.22385 0.76029 0.0
H1742 H 0.38772 0.25337 0.86251 0.0
H1743 H 0.33893 0.19832 0.84755 0.0
H1744 H 0.37914 0.27879 0.8201 0.0
H1745 H 0.39126 0.27205 0.79661 0.0
H1746 H 0.3997 0.27774 0.83059 0.0
H1747 H 0.31737 0.20908 0.80162 0.0
H1748 H 0.32264 0.19039 0.80579 0.0
H1749 H 0.33258 0.2066 0.77818 0.0
C1750 C 0.74593 0.0922 0.74898 0.0
C1751 C 0.74708 0.10288 0.7266 0.0
C1752 C 0.75545 0.10108 0.77278 0.0
C1753 C 0.76657 0.12115 0.77418 0.0
C1754 C 0.76806 0.13204 0.75156 0.0
C1755 C 0.75819 0.12278 0.72808 0.0
C1756 C 0.75339 0.08896 0.79655 0.0
C1757 C 0.78 0.15344 0.75223 0.0
C1758 C 0.77376 0.14028 0.84488 0.0
C1759 C 0.79097 0.1414 0.85183 0.0
C1760 C 0.76615 0.13476 0.81911 0.0
C1761 C 0.77615 0.13056 0.79969 0.0
C1762 C 0.79434 0.13334 0.80587 0.0
C1763 C 0.8015 0.13862 0.83195 0.0
C1764 C 0.74674 0.13206 0.8133 0.0
C1765 C 0.80564 0.12939 0.78556 0.0
H1766 H 0.73737 0.07684 0.74806 0.0
H1767 H 0.75929 0.13115 0.71081 0.0
H1768 H 0.76762 0.09181 0.80305 0.0
H1769 H 0.74707 0.09264 0.81355 0.0
H1770 H 0.74427 0.07354 0.79215 0.0
H1771 H 0.78023 0.15981 0.73264 0.0
H1772 H 0.77435 0.15921 0.76748 0.0
H1773 H 0.79486 0.158 0.75805 0.0
H1774 H 0.76575 0.14279 0.86003 0.0
H1775 H 0.81477 0.13936 0.83712 0.0
H1776 H 0.73621 0.11668 0.81106 0.0
H1777 H 0.74692 0.13895 0.79427 0.0
H1778 H 0.74182 0.13793 0.82948 0.0
H1779 H 0.79896 0.11382 0.78263 0.0
H1780 H 0.82065 0.13518 0.792 0.0
H1781 H 0.80559 0.13557 0.76597 0.0
C1782 C 0.06064 0.3749 0.04441 0.0
C1783 C 0.04168 0.36004 0.04239 0.0
C1784 C 0.07529 0.37133 0.05082 0.0
C1785 C 0.07096 0.35238 0.05435 0.0
C1786 C 0.05206 0.33724 0.05011 0.0
C1787 C 0.03754 0.34126 0.04476 0.0
C1788 C 0.09509 0.38795 0.05588 0.0
C1789 C 0.04697 0.31682 0.05252 0.0
C1790 C 0.11448 0.347 0.06395 0.0
C1791 C 0.11544 0.34682 0.09189 0.0
C1792 C 0.09944 0.34771 0.05116 0.0
C1793 C 0.08542 0.34875 0.06674 0.0
C1794 C 0.08589 0.34764 0.09485 0.0
C1795 C 0.10054 0.34621 0.10693 0.0
C1796 C 0.09894 0.34798 0.02109 0.0
C1797 C 0.07145 0.34892 0.11242 0.0
H1798 H 0.06386 0.38944 0.04264 0.0
H1799 H 0.02291 0.32972 0.04283 0.0
H1800 H 0.09864 0.38854 0.07737 0.0
H1801 H 0.10578 0.38619 0.04446 0.0
H1802 H 0.09644 0.4017 0.05036 0.0
H1803 H 0.03289 0.30691 0.04334 0.0
H1804 H 0.05797 0.31459 0.04288 0.0
H1805 H 0.04636 0.31316 0.0739 0.0
H1806 H 0.12574 0.34721 0.05214 0.0
H1807 H 0.10064 0.34519 0.12848 0.0
H1808 H 0.10365 0.36257 0.0143 0.0
H1809 H 0.0842 0.33856 0.0136 0.0
H1810 H 0.10844 0.34343 0.01197 0.0
H1811 H 0.07188 0.36249 0.10879 0.0
H1812 H 0.07406 0.34816 0.13401 0.0
H1813 H 0.05686 0.33723 0.10751 0.0
C1814 C 0.64081 0.70105 -0.00037 0.0
C1815 C 0.62211 0.68733 0.00655 0.0
C1816 C 0.64936 0.71961 0.01012 0.0
C1817 C 0.63923 0.72424 0.02878 0.0
C1818 C 0.62017 0.71053 0.03527 0.0
C1819 C 0.61174 0.69234 0.02371 0.0
C1820 C 0.66943 0.73403 0.00191 0.0
C1821 C 0.60903 0.71467 0.05566 0.0
C1822 C 0.66603 0.75958 0.08417 0.0
C1823 C 0.66288 0.7745 0.07814 0.0
C1824 C 0.65893 0.74344 0.0678 0.0
C1825 C 0.64911 0.74245 0.04406 0.0
C1826 C 0.64735 0.75815 0.03655 0.0
C1827 C 0.65405 0.77394 0.05388 0.0
C1828 C 0.66095 0.72697 0.07683 0.0
C1829 C 0.63764 0.75793 0.01085 0.0
H1830 H 0.64876 0.69726 0.98609 0.0
H1831 H 0.5973 0.68173 0.02916 0.0
H1832 H 0.67058 0.74786 -0.00245 0.0
H1833 H 0.67942 0.73644 0.01849 0.0
H1834 H 0.67405 0.72929 0.98404 0.0
H1835 H 0.59411 0.70274 0.05764 0.0
H1836 H 0.61611 0.71741 0.07543 0.0
H1837 H 0.60875 0.72761 0.05016 0.0
H1838 H 0.6735 0.7602 0.10236 0.0
H1839 H 0.65168 0.78544 0.04892 0.0
H1840 H 0.66796 0.72303 0.06114 0.0
H1841 H 0.64662 0.71439 0.08027 0.0
H1842 H 0.66937 0.73021 0.09554 0.0
H1843 H 0.64251 0.75243 0.99416 0.0
H1844 H 0.64043 0.77229 0.00564 0.0
H1845 H 0.62203 0.74834 0.01283 0.0
C1846 C 0.30978 0.92727 0.97754 0.0
C1847 C 0.32034 0.94194 -0.00404 0.0
C1848 C 0.29091 0.91312 0.98302 0.0
C1849 C 0.28279 0.91325 0.00797 0.0
C1850 C 0.29332 0.9283 0.02639 0.0
C1851 C 0.31186 0.94267 0.01991 0.0
C1852 C 0.27985 0.8978 0.96244 0.0
C1853 C 0.28538 0.92873 0.05352 0.0
C1854 C 0.23073 0.88467 0.02754 0.0
C1855 C 0.23046 0.8699 0.04181 0.0
C1856 C 0.24727 0.89803 0.01411 0.0
C1857 C 0.26403 0.89694 0.01606 0.0
C1858 C 0.26337 0.8813 0.029 0.0
C1859 C 0.24647 0.86781 0.0414 0.0
C1860 C 0.24718 0.91404 -0.00043 0.0
C1861 C 0.28098 0.87979 0.03212 0.0
H1862 H 0.31632 0.92685 0.95885 0.0
H1863 H 0.32009 0.95398 0.03418 0.0
H1864 H 0.27807 0.88414 0.9693 0.0
H1865 H 0.26538 0.8957 0.95984 0.0
H1866 H 0.28714 0.90121 0.94278 0.0
H1867 H 0.29536 0.94149 0.06542 0.0
H1868 H 0.27174 0.92851 0.05133 0.0
H1869 H 0.28233 0.91589 0.06486 0.0
H1870 H 0.21836 0.88633 0.02813 0.0
H1871 H 0.24632 0.85657 0.05292 0.0
H1872 H 0.25527 0.91715 0.98061 0.0
H1873 H 0.2542 0.92709 0.01211 0.0
H1874 H 0.23245 0.91072 0.9951 0.0
H1875 H 0.28809 0.88148 0.01261 0.0
H1876 H 0.2777 0.866 0.04077 0.0
H1877 H 0.29129 0.89139 0.04546 0.0
C1878 C 0.35954 0.05346 0.97386 0.0
C1879 C 0.36491 0.0489 -0.00208 0.0
C1880 C 0.35776 0.06954 0.97184 0.0
C1881 C 0.361 0.08119 0.99465 0.0
C1882 C 0.36562 0.07623 0.01934 0.0
C1883 C 0.36779 0.06025 0.02061 0.0
C1884 C 0.35302 0.0744 0.94498 0.0
C1885 C 0.36863 0.08798 0.04422 0.0
C1886 C 0.37522 0.13051 0.97244 0.0
C1887 C 0.35728 0.12865 0.96931 0.0
C1888 C 0.37697 0.11575 0.98338 0.0
C1889 C 0.36039 0.09895 0.99173 0.0
C1890 C 0.3426 0.09813 0.99179 0.0
C1891 C 0.34121 0.11293 0.98019 0.0
C1892 C 0.3962 0.11722 0.98275 0.0
C1893 C 0.32469 0.08078 0.00136 0.0
H1894 H 0.35736 0.04479 0.95623 0.0
H1895 H 0.37184 0.05672 0.03931 0.0
H1896 H 0.33974 0.07498 0.94637 0.0
H1897 H 0.3646 0.08862 0.93871 0.0
H1898 H 0.35106 0.06391 0.92921 0.0
H1899 H 0.3694 0.08076 0.06244 0.0
H1900 H 0.38212 0.10178 0.04252 0.0
H1901 H 0.35693 0.09106 0.04662 0.0
H1902 H 0.38761 0.1426 0.96374 0.0
H1903 H 0.32732 0.11151 0.97768 0.0
H1904 H 0.39654 0.10847 0.96594 0.0
H1905 H 0.39879 0.1117 0.0014 0.0
H1906 H 0.40797 0.13209 0.97997 0.0
H1907 H 0.3194 0.06961 0.98561 0.0
H1908 H 0.31325 0.08399 0.00583 0.0
H1909 H 0.32755 0.07494 0.0195 0.0
C1910 C 0.93854 0.30357 0.02632 0.0
C1911 C 0.93562 0.31858 0.02023 0.0
C1912 C 0.92648 0.28525 0.01584 0.0
C1913 C 0.91173 0.28213 -0.00211 0.0
C1914 C 0.90836 0.29714 0.99244 0.0
C1915 C 0.92014 0.31509 0.00408 0.0
C1916 C 0.93007 0.26947 0.02304 0.0
C1917 C 0.89326 0.29467 0.97274 0.0
C1918 C 0.90122 0.24717 0.94133 0.0
C1919 C 0.88258 0.23248 0.947 0.0
C1920 C 0.91076 0.26322 0.95779 0.0
C1921 C 0.90196 0.26434 0.98154 0.0
C1922 C 0.88373 0.24901 0.98858 0.0
C1923 C 0.87411 0.23333 0.97102 0.0
C1924 C 0.93003 0.27929 0.94916 0.0
C1925 C 0.87425 0.24933 0.01431 0.0
H1926 H 0.95035 0.30619 0.03914 0.0
H1927 H 0.9179 0.32671 -0.00071 0.0
H1928 H 0.91642 0.25615 0.02694 0.0
H1929 H 0.93712 0.26665 0.00613 0.0
H1930 H 0.93938 0.27313 0.0409 0.0
H1931 H 0.89148 0.30725 0.97223 0.0
H1932 H 0.89722 0.29232 0.95245 0.0
H1933 H 0.87934 0.28201 0.97771 0.0
H1934 H 0.90836 0.24635 0.92353 0.0
H1935 H 0.85983 0.22204 0.97582 0.0
H1936 H 0.941 0.28177 0.96425 0.0
H1937 H 0.92964 0.2926 0.94757 0.0
H1938 H 0.93457 0.27641 0.9296 0.0
H1939 H 0.88449 0.25381 0.03118 0.0
H1940 H 0.86165 0.23524 0.01886 0.0
H1941 H 0.86949 0.25981 0.01291 0.0
C1942 C 0.68549 0.64236 0.9478 0.0
C1943 C 0.67783 0.63951 0.97356 0.0
C1944 C 0.70323 0.64395 0.94321 0.0
C1945 C 0.71386 0.64319 0.96502 0.0
C1946 C 0.70652 0.64102 0.99123 0.0
C1947 C 0.68843 0.63891 0.99516 0.0
C1948 C 0.71035 0.64588 0.91486 0.0
C1949 C 0.71767 0.64074 0.01503 0.0
C1950 C 0.74852 0.62762 0.94392 0.0
C1951 C 0.76476 0.64509 0.93805 0.0
C1952 C 0.73215 0.62677 0.95452 0.0
C1953 C 0.73221 0.64384 0.95985 0.0
C1954 C 0.74923 0.66152 0.95641 0.0
C1955 C 0.76525 0.66194 0.94514 0.0
C1956 C 0.71425 0.60763 0.95743 0.0
C1957 C 0.7501 0.68002 0.96263 0.0
H1958 H 0.67731 0.64273 0.93104 0.0
H1959 H 0.68261 0.63686 0.01514 0.0
H1960 H 0.72431 0.65917 0.9128 0.0
H1961 H 0.71255 0.6339 0.90979 0.0
H1962 H 0.70027 0.64606 0.90014 0.0
H1963 H 0.7107 0.64051 0.03422 0.0
H1964 H 0.71921 0.62804 0.01396 0.0
H1965 H 0.73225 0.65339 0.01488 0.0
H1966 H 0.74804 0.61459 0.93803 0.0
H1967 H 0.7778 0.67545 0.94045 0.0
H1968 H 0.70391 0.60586 0.94167 0.0
H1969 H 0.70739 0.60658 0.97698 0.0
H1970 H 0.71713 0.59578 0.95557 0.0
H1971 H 0.74262 0.68307 0.94671 0.0
H1972 H 0.76503 0.69207 0.9638 0.0
H1973 H 0.74282 0.67914 0.98177 0.0
C1974 C 0.93508 0.62496 0.98979 0.0
C1975 C 0.93361 0.61746 0.01524 0.0
C1976 C 0.92168 0.62963 0.98088 0.0
C1977 C 0.90695 0.62744 -0.0017 0.0
C1978 C 0.90622 0.62108 0.02467 0.0
C1979 C 0.91932 0.61572 0.03264 0.0
C1980 C 0.92269 0.63589 0.95235 0.0
C1981 C 0.89129 0.61939 0.04418 0.0
C1982 C 0.88135 0.6513 0.97032 0.0
C1983 C 0.86594 0.63596 0.95736 0.0
C1984 C 0.89394 0.64852 0.98609 0.0
C1985 C 0.89141 0.6301 0.98782 0.0
C1986 C 0.87509 0.61442 0.9762 0.0
C1987 C 0.86239 0.61754 0.96143 0.0
C1988 C 0.91068 0.66546 -0.00085 0.0
C1989 C 0.87205 0.59462 0.97697 0.0
H1990 H 0.94609 0.62618 0.97633 0.0
H1991 H 0.91835 0.61009 0.05246 0.0
H1992 H 0.90949 0.62561 0.94154 0.0
H1993 H 0.92364 0.64989 0.95181 0.0
H1994 H 0.93513 0.63701 0.9415 0.0
H1995 H 0.89451 0.61717 0.06491 0.0
H1996 H 0.89018 0.63236 0.04378 0.0
H1997 H 0.87717 0.60722 0.03842 0.0
H1998 H 0.88416 0.66556 0.96688 0.0
H1999 H 0.85065 0.60576 0.95091 0.0
H2000 H 0.92366 0.66996 0.98698 0.0
H2001 H 0.91341 0.66184 0.0193 0.0
H2002 H 0.90835 0.67768 0.00094 0.0
H2003 H 0.88327 0.59412 0.96498 0.0
H2004 H 0.85791 0.58381 0.96885 0.0
H2005 H 0.87325 0.5907 -0.00232 0.0
C2006 C 0.36933 0.31723 0.01018 0.0
C2007 C 0.36085 0.32343 0.9916 0.0
C2008 C 0.36864 0.29982 0.00662 0.0
C2009 C 0.35958 0.28857 0.98371 0.0
C2010 C 0.34996 0.29421 0.96584 0.0
C2011 C 0.35061 0.31149 0.97012 0.0
C2012 C 0.37859 0.29405 0.0265 0.0
C2013 C 0.34019 0.2827 0.94106 0.0
C2014 C 0.37951 0.26166 0.94793 0.0
C2015 C 0.36498 0.24281 0.95147 0.0
C2016 C 0.37848 0.27665 0.95979 0.0
C2017 C 0.3626 0.27267 0.97593 0.0
C2018 C 0.34869 0.25354 0.9815 0.0
C2019 C 0.34994 0.23873 0.96891 0.0
C2020 C 0.39357 0.29677 0.95307 0.0
C2021 C 0.33182 0.2487 -0.00085 0.0
H2022 H 0.37706 0.32627 0.02704 0.0
H2023 H 0.34389 0.31609 0.95577 0.0
H2024 H 0.36976 0.2787 0.031 0.0
H2025 H 0.39222 0.29652 0.01789 0.0
H2026 H 0.3818 0.3023 0.04544 0.0
H2027 H 0.332 0.28814 0.93047 0.0
H2028 H 0.35103 0.28311 0.92715 0.0
H2029 H 0.33033 0.26763 0.94622 0.0
H2030 H 0.39106 0.26471 0.93425 0.0
H2031 H 0.33863 0.22412 0.97139 0.0
H2032 H 0.39918 0.3055 0.9715 0.0
H2033 H 0.38719 0.30329 0.94064 0.0
H2034 H 0.4057 0.29743 0.94192 0.0
H2035 H 0.3362 0.25833 0.01679 0.0
H2036 H 0.32479 0.23378 0.00609 0.0
H2037 H 0.32121 0.25054 0.98781 0.0
C2038 C 0.69807 0.04788 0.00733 0.0
C2039 C 0.68349 0.05194 0.0033 0.0
C2040 C 0.71685 0.06058 -0.001 0.0
C2041 C 0.72093 0.07734 0.98537 0.0
C2042 C 0.70629 0.08162 0.98174 0.0
C2043 C 0.68786 0.06904 0.99114 0.0
C2044 C 0.73219 0.05584 0.00417 0.0
C2045 C 0.70982 0.09902 0.96664 0.0
C2046 C 0.77035 0.11899 0.96931 0.0
C2047 C 0.77241 0.11488 0.94269 0.0
C2048 C 0.75424 0.10625 0.98428 0.0
C2049 C 0.73974 0.08929 0.97211 0.0
C2050 C 0.7424 0.0846 0.94583 0.0
C2051 C 0.75883 0.09722 0.93174 0.0
C2052 C 0.7523 0.11139 0.01264 0.0
C2053 C 0.72729 0.06684 0.93183 0.0
H2054 H 0.6948 0.03478 0.01705 0.0
H2055 H 0.67661 0.0722 0.98791 0.0
H2056 H 0.736 0.05147 0.98522 0.0
H2057 H 0.74528 0.0685 0.01191 0.0
H2058 H 0.72751 0.04411 0.01867 0.0
H2059 H 0.69709 0.10063 0.96629 0.0
H2060 H 0.72185 0.11198 0.97575 0.0
H2061 H 0.71387 0.09808 0.94575 0.0
H2062 H 0.78085 0.13249 0.97804 0.0
H2063 H 0.76065 0.09359 0.91152 0.0
H2064 H 0.74701 0.09884 0.02575 0.0
H2065 H 0.74176 0.11614 0.0134 0.0
H2066 H 0.76606 0.123 0.02071 0.0
H2067 H 0.72363 0.05412 0.94382 0.0
H2068 H 0.73187 0.06496 0.91169 0.0
H2069 H 0.71409 0.06751 0.92964 0.0
C2070 C 0.64852 0.945 0.04661 0.0
C2071 C 0.64009 0.94599 0.02281 0.0
C2072 C 0.65142 0.92982 0.05156 0.0
C2073 C 0.64605 0.91532 0.03203 0.0
C2074 C 0.6382 0.91657 0.00748 0.0
C2075 C 0.63512 0.93181 0.00326 0.0
C2076 C 0.65972 0.92904 0.07815 0.0
C2077 C 0.63264 0.90162 0.98598 0.0
C2078 C 0.66893 0.88663 0.04972 0.0
C2079 C 0.65493 0.873 0.06644 0.0
C2080 C 0.66551 0.89938 0.03558 0.0
C2081 C 0.64776 0.89849 0.03852 0.0
C2082 C 0.63286 0.8832 0.05264 0.0
C2083 C 0.6366 0.87055 0.06629 0.0
C2084 C 0.6816 0.91509 0.02005 0.0
C2085 C 0.61367 0.88155 0.05623 0.0
H2086 H 0.6524 0.95587 0.06184 0.0
H2087 H 0.62868 0.93252 0.98474 0.0
H2088 H 0.64936 0.91604 0.08897 0.0
H2089 H 0.67281 0.92831 0.07502 0.0
H2090 H 0.66335 0.94156 0.09103 0.0
H2091 H 0.62946 0.90606 0.96674 0.0
H2092 H 0.64418 0.89839 0.98277 0.0
H2093 H 0.61978 0.88828 0.99231 0.0
H2094 H 0.68313 0.88859 0.04976 0.0
H2095 H 0.6257 0.85989 0.07904 0.0
H2096 H 0.68847 0.92824 0.03241 0.0
H2097 H 0.67624 0.91816 0.00156 0.0
H2098 H 0.69262 0.91147 0.01464 0.0
H2099 H 0.61503 0.89244 0.07088 0.0
H2100 H 0.6028 0.86735 0.06371 0.0
H2101 H 0.60855 0.88418 0.03719 0.0
C2102 C 0.04685 0.68544 0.04705 0.0
C2103 C 0.04087 0.67541 0.02283 0.0
C2104 C 0.06323 0.7035 0.04846 0.0
C2105 C 0.07369 0.71202 0.0249 0.0
C2106 C 0.0674 0.70223 0.00018 0.0
C2107 C 0.05118 0.68388 -0.00051 0.0
C2108 C 0.06956 0.7133 0.07536 0.0
C2109 C 0.07786 0.71107 0.9746 0.0
C2110 C 0.10557 0.76424 0.03921 0.0
C2111 C 0.12203 0.76461 0.04817 0.0
C2112 C 0.09033 0.74759 0.0282 0.0
C2113 C 0.09148 0.7309 0.0269 0.0
C2114 C 0.10892 0.73189 0.03312 0.0
C2115 C 0.12409 0.74886 0.04349 0.0
C2116 C 0.07225 0.74733 0.02092 0.0
C2117 C 0.11079 0.71446 0.03227 0.0
H2118 H 0.039 0.67893 0.06516 0.0
H2119 H 0.04651 0.67621 0.98068 0.0
H2120 H 0.08425 0.71651 0.07983 0.0
H2121 H 0.06985 0.727 0.0751 0.0
H2122 H 0.06004 0.70456 0.09179 0.0
H2123 H 0.07021 0.70232 0.95679 0.0
H2124 H 0.07979 0.72542 0.97231 0.0
H2125 H 0.09228 0.71283 0.97523 0.0
H2126 H 0.10398 0.77643 0.04295 0.0
H2127 H 0.13674 0.7491 0.05073 0.0
H2128 H 0.06195 0.74123 0.03762 0.0
H2129 H 0.0655 0.73835 0.00296 0.0
H2130 H 0.07498 0.76187 0.01712 0.0
H2131 H 0.10331 0.70545 0.04974 0.0
H2132 H 0.12594 0.7182 0.03299 0.0
H2133 H 0.10408 0.70588 0.01403 0.0
C2134 C 0.30482 0.39221 -0.00061 0.0
C2135 C 0.31507 0.38374 0.00821 0.0
C2136 C 0.28665 0.38662 0.00963 0.0
C2137 C 0.27879 0.37257 0.02961 0.0
C2138 C 0.28882 0.36356 0.03794 0.0
C2139 C 0.30674 0.36912 0.02695 0.0
C2140 C 0.27617 0.3962 -0.00024 0.0
C2141 C 0.28106 0.34867 0.05946 0.0
C2142 C 0.24669 0.373 0.08376 0.0
C2143 C 0.22943 0.35635 0.07788 0.0
C2144 C 0.2626 0.37913 0.06722 0.0
C2145 C 0.26111 0.36854 0.04392 0.0
C2146 C 0.24319 0.3528 0.03648 0.0
C2147 C 0.22752 0.3468 0.05369 0.0
C2148 C 0.28139 0.39598 0.07598 0.0
C2149 C 0.24091 0.34147 0.01141 0.0
H2150 H 0.31107 0.40336 0.98465 0.0
H2151 H 0.31457 0.36251 0.03386 0.0
H2152 H 0.26112 0.38549 0.9951 0.0
H2153 H 0.27604 0.40568 0.01561 0.0
H2154 H 0.28292 0.4048 0.98167 0.0
H2155 H 0.29021 0.34244 0.06282 0.0
H2156 H 0.27994 0.35508 0.0785 0.0
H2157 H 0.26652 0.33706 0.0541 0.0
H2158 H 0.24807 0.38059 0.10227 0.0
H2159 H 0.21419 0.33392 0.04908 0.0
H2160 H 0.28813 0.40609 0.05934 0.0
H2161 H 0.29129 0.39106 0.08182 0.0
H2162 H 0.27975 0.40366 0.09323 0.0
H2163 H 0.24854 0.35101 0.99447 0.0
H2164 H 0.22568 0.33214 0.00588 0.0
H2165 H 0.24724 0.33242 0.01457 0.0
C2166 C 0.72588 0.70623 0.37052 0.0
C2167 C 0.70683 0.69171 0.36772 0.0
C2168 C 0.74014 0.70209 0.37694 0.0
C2169 C 0.73533 0.68293 0.37974 0.0
C2170 C 0.71635 0.66818 0.37474 0.0
C2171 C 0.70224 0.67275 0.36935 0.0
C2172 C 0.76004 0.71828 0.3828 0.0
C2173 C 0.71075 0.64757 0.37644 0.0
C2174 C 0.77759 0.67547 0.38921 0.0
C2175 C 0.77812 0.67454 0.41713 0.0
C2176 C 0.76316 0.67724 0.37645 0.0
C2177 C 0.74931 0.67857 0.39204 0.0
C2178 C 0.74936 0.6768 0.42008 0.0
C2179 C 0.76341 0.67435 0.43211 0.0
C2180 C 0.76309 0.67826 0.34641 0.0
C2181 C 0.73506 0.67831 0.43765 0.0
H2182 H 0.72946 0.72091 0.36933 0.0
H2183 H 0.68754 0.66148 0.36683 0.0
H2184 H 0.76319 0.71841 0.40437 0.0
H2185 H 0.77071 0.71639 0.37156 0.0
H2186 H 0.76185 0.73228 0.37765 0.0
H2187 H 0.69667 0.63807 0.36697 0.0
H2188 H 0.7216 0.64518 0.36667 0.0
H2189 H 0.7099 0.64351 0.39767 0.0
H2190 H 0.78873 0.6754 0.37743 0.0
H2191 H 0.76316 0.67279 0.4536 0.0
H2192 H 0.76798 0.69303 0.34032 0.0
H2193 H 0.74843 0.66912 0.33848 0.0
H2194 H 0.77262 0.67382 0.3371 0.0
H2195 H 0.73604 0.69219 0.43454 0.0
H2196 H 0.73733 0.677 0.4592 0.0
H2197 H 0.72037 0.66706 0.43226 0.0
C2198 C 0.27414 0.02437 0.36037 0.0
C2199 C 0.28391 0.01976 0.34154 0.0
C2200 C 0.28266 0.04257 0.3719 0.0
C2201 C 0.30113 0.0567 0.36362 0.0
C2202 C 0.31045 0.05248 0.34311 0.0
C2203 C 0.30191 0.0339 0.33273 0.0
C2204 C 0.27246 0.04623 0.3943 0.0
C2205 C 0.32977 0.06735 0.33291 0.0
C2206 C 0.31726 0.10609 0.39174 0.0
C2207 C 0.32788 0.10655 0.41403 0.0
C2208 C 0.30934 0.09041 0.37404 0.0
C2209 C 0.31166 0.07471 0.37927 0.0
C2210 C 0.32308 0.07554 0.40102 0.0
C2211 C 0.33139 0.09159 0.41763 0.0
C2212 C 0.29796 0.09039 0.35033 0.0
C2213 C 0.32577 0.05906 0.40769 0.0
H2214 H 0.26024 0.0134 0.36724 0.0
H2215 H 0.30936 0.03039 0.31787 0.0
H2216 H 0.28054 0.04877 0.41318 0.0
H2217 H 0.27175 0.05916 0.39028 0.0
H2218 H 0.25774 0.03414 0.39726 0.0
H2219 H 0.33331 0.06299 0.31369 0.0
H2220 H 0.33035 0.08108 0.33012 0.0
H2221 H 0.34089 0.06976 0.34772 0.0
H2222 H 0.3146 0.11762 0.38858 0.0
H2223 H 0.34026 0.09214 0.43409 0.0
H2224 H 0.28254 0.08082 0.35421 0.0
H2225 H 0.30162 0.08499 0.33224 0.0
H2226 H 0.30045 0.1048 0.34623 0.0
H2227 H 0.31171 0.0462 0.41153 0.0
H2228 H 0.33495 0.06196 0.42553 0.0
H2229 H 0.33231 0.05576 0.39061 0.0
C2230 C 0.98254 0.28285 0.34944 0.0
C2231 C 0.99113 0.28397 0.32475 0.0
C2232 C 0.96452 0.26735 0.3555 0.0
C2233 C 0.95456 0.25295 0.33601 0.0
C2234 C 0.96271 0.25457 0.31048 0.0
C2235 C 0.9811 0.26989 0.30532 0.0
C2236 C 0.95656 0.26596 0.38321 0.0
C2237 C 0.95222 0.23993 0.28887 0.0
C2238 C 0.92042 0.20559 0.36704 0.0
C2239 C 0.90387 0.20668 0.36909 0.0
C2240 C 0.93677 0.22002 0.35462 0.0
C2241 C 0.93634 0.23562 0.3434 0.0
C2242 C 0.919 0.23572 0.343 0.0
C2243 C 0.90302 0.2214 0.35637 0.0
C2244 C 0.95501 0.2195 0.35605 0.0
C2245 C 0.91773 0.25169 0.33034 0.0
H2246 H 0.99033 0.29366 0.36454 0.0
H2247 H 0.98768 0.27085 0.2861 0.0
H2248 H 0.94248 0.26493 0.38209 0.0
H2249 H 0.95438 0.25289 0.393 0.0
H2250 H 0.96612 0.27837 0.39601 0.0
H2251 H 0.95932 0.24459 0.26916 0.0
H2252 H 0.95146 0.22643 0.29411 0.0
H2253 H 0.93736 0.23692 0.2871 0.0
H2254 H 0.92112 0.19436 0.37735 0.0
H2255 H 0.89023 0.22228 0.35822 0.0
H2256 H 0.96502 0.23065 0.37017 0.0
H2257 H 0.96208 0.22255 0.3363 0.0
H2258 H 0.95253 0.20555 0.36294 0.0
H2259 H 0.92436 0.2643 0.34377 0.0
H2260 H 0.9027 0.24773 0.32671 0.0
H2261 H 0.92557 0.25585 0.31114 0.0
C2262 C 0.0326 0.39893 0.36608 0.0
C2263 C 0.03224 0.39014 0.34172 0.0
C2264 C 0.0297 0.41448 0.36695 0.0
C2265 C 0.0271 0.42176 0.3428 0.0
C2266 C 0.02648 0.41271 0.31823 0.0
C2267 C 0.02877 0.39689 0.31808 0.0
C2268 C 0.02992 0.42331 0.39362 0.0
C2269 C 0.024 0.42008 0.29185 0.0
C2270 C 0.00714 0.4528 0.32685 0.0
C2271 C 0.02383 0.4692 0.31878 0.0
C2272 C 0.00805 0.43789 0.33899 0.0
C2273 C 0.026 0.43935 0.34224 0.0
C2274 C 0.04286 0.45699 0.33783 0.0
C2275 C 0.04155 0.47184 0.32633 0.0
C2276 C 0.98976 0.41969 0.34491 0.0
C2277 C 0.06231 0.45929 0.34136 0.0
H2278 H 0.03518 0.39369 0.38444 0.0
H2279 H 0.02855 0.39021 0.29919 0.0
H2280 H 0.04449 0.43535 0.39771 0.0
H2281 H 0.02001 0.42885 0.3939 0.0
H2282 H 0.02601 0.41293 0.41003 0.0
H2283 H 0.02432 0.41166 0.27454 0.0
H2284 H 0.01021 0.41971 0.29153 0.0
H2285 H 0.03548 0.43507 0.28921 0.0
H2286 H 0.99341 0.45083 0.32116 0.0
H2287 H 0.05447 0.48453 0.32007 0.0
H2288 H 0.99127 0.41292 0.3631 0.0
H2289 H 0.98626 0.4096 0.32797 0.0
H2290 H 0.97768 0.4222 0.34767 0.0
H2291 H 0.06307 0.45275 0.36024 0.0
H2292 H 0.07379 0.47446 0.34141 0.0
H2293 H 0.06502 0.45193 0.32468 0.0
C2294 C 0.60506 0.63571 0.35278 0.0
C2295 C 0.60201 0.65043 0.34534 0.0
C2296 C 0.59352 0.61723 0.34255 0.0
C2297 C 0.57923 0.61364 0.3235 0.0
C2298 C 0.57571 0.62836 0.31667 0.0
C2299 C 0.58693 0.6465 0.32809 0.0
C2300 C 0.59719 0.60176 0.35124 0.0
C2301 C 0.56108 0.62538 0.2958 0.0
C2302 C 0.57079 0.57834 0.26834 0.0
C2303 C 0.55203 0.56362 0.27323 0.0
C2304 C 0.57975 0.59448 0.28471 0.0
C2305 C 0.57019 0.59567 0.30756 0.0
C2306 C 0.55185 0.58026 0.31396 0.0
C2307 C 0.54284 0.56447 0.29648 0.0
C2308 C 0.59919 0.61062 0.27679 0.0
C2309 C 0.54156 0.58065 0.3388 0.0
H2310 H 0.61657 0.6387 0.36645 0.0
H2311 H 0.58461 0.65791 0.32231 0.0
H2312 H 0.58355 0.58836 0.3548 0.0
H2313 H 0.60488 0.59892 0.33524 0.0
H2314 H 0.60597 0.60577 0.3697 0.0
H2315 H 0.55914 0.63782 0.29413 0.0
H2316 H 0.56565 0.62279 0.27608 0.0
H2317 H 0.54712 0.61268 0.30048 0.0
H2318 H 0.57841 0.5775 0.2511 0.0
H2319 H 0.52846 0.55312 0.30064 0.0
H2320 H 0.60972 0.61348 0.29278 0.0
H2321 H 0.59863 0.62378 0.27411 0.0
H2322 H 0.60443 0.6076 0.25796 0.0
H2323 H 0.55136 0.58566 0.35622 0.0
H2324 H 0.5291 0.56646 0.34331 0.0
H2325 H 0.53641 0.59074 0.33614 0.0
C2326 C 0.35118 0.97249 0.33096 0.0
C2327 C 0.34019 0.97187 0.30904 0.0
C2328 C 0.36939 0.97486 0.32735 0.0
C2329 C 0.37652 0.97609 0.30118 0.0
C2330 C 0.36549 0.97559 0.27901 0.0
C2331 C 0.34759 0.97373 0.28325 0.0
C2332 C 0.38094 0.97589 0.35147 0.0
C2333 C 0.37239 0.97653 0.25073 0.0
C2334 C 0.42818 0.99559 0.28186 0.0
C2335 C 0.42833 0.97883 0.27653 0.0
C2336 C 0.41183 0.995 0.29219 0.0
C2337 C 0.39514 0.9772 0.29654 0.0
C2338 C 0.39571 0.9603 0.29295 0.0
C2339 C 0.41239 0.96134 0.28322 0.0
C2340 C 0.41202 0.01337 0.29649 0.0
C2341 C 0.37819 0.94102 0.29693 0.0
H2342 H 0.34557 0.97122 0.35097 0.0
H2343 H 0.33912 0.97317 0.26624 0.0
H2344 H 0.38307 0.96354 0.35149 0.0
H2345 H 0.39527 0.98887 0.35068 0.0
H2346 H 0.37394 0.97601 0.37047 0.0
H2347 H 0.36202 0.97578 0.23571 0.0
H2348 H 0.38613 0.98993 0.24779 0.0
H2349 H 0.37496 0.96463 0.24691 0.0
H2350 H 0.44049 0.00911 0.27654 0.0
H2351 H 0.41239 0.94836 0.27868 0.0
H2352 H 0.4048 0.01305 0.31547 0.0
H2353 H 0.40411 0.01534 0.28005 0.0
H2354 H 0.42676 0.02581 0.29691 0.0
H2355 H 0.37131 0.94046 0.31629 0.0
H2356 H 0.38153 0.92944 0.29629 0.0
H2357 H 0.36767 0.93833 0.28096 0.0
C2358 C 0.59286 0.95043 0.31826 0.0
C2359 C 0.60264 0.95615 0.34253 0.0
C2360 C 0.58038 0.95663 0.3108 0.0
C2361 C 0.57727 0.96845 0.32844 0.0
C2362 C 0.58725 0.97435 0.35303 0.0
C2363 C 0.6 0.9682 0.35973 0.0
C2364 C 0.57037 0.95031 0.28411 0.0
C2365 C 0.58401 0.98657 0.37257 0.0
C2366 C 0.55567 0.99203 0.28971 0.0
C2367 C 0.53637 0.97772 0.29015 0.0
C2368 C 0.56927 0.99033 0.30455 0.0
C2369 C 0.5633 0.97417 0.32071 0.0
C2370 C 0.54357 0.96134 0.32445 0.0
C2371 C 0.53029 0.96317 0.30892 0.0
C2372 C 0.59013 0.00447 0.3001 0.0
C2373 C 0.53656 0.94433 0.34232 0.0
H2374 H 0.59498 0.94106 0.30512 0.0
H2375 H 0.60751 0.97239 0.37866 0.0
H2376 H 0.55475 0.94144 0.28717 0.0
H2377 H 0.57303 0.96283 0.27231 0.0
H2378 H 0.57514 0.94195 0.27223 0.0
H2379 H 0.59453 0.99183 0.38917 0.0
H2380 H 0.58478 0.99892 0.36238 0.0
H2381 H 0.5695 0.97817 0.38116 0.0
H2382 H 0.56038 0.00358 0.27569 0.0
H2383 H 0.5154 0.9521 0.30958 0.0
H2384 H 0.59601 0.99832 0.28581 0.0
H2385 H 0.59835 0.00768 0.31894 0.0
H2386 H 0.59232 0.01795 0.29167 0.0
H2387 H 0.53812 0.93319 0.33183 0.0
H2388 H 0.5213 0.93825 0.34758 0.0
H2389 H 0.5451 0.94815 0.36095 0.0
C2390 C 0.03451 0.6545 0.35669 0.0
C2391 C 0.03162 0.66247 0.33378 0.0
C2392 C 0.03331 0.63671 0.35553 0.0
C2393 C 0.02971 0.627 0.33075 0.0
C2394 C 0.02666 0.63497 0.30763 0.0
C2395 C 0.02741 0.65245 0.30952 0.0
C2396 C 0.03609 0.62842 0.3807 0.0
C2397 C 0.02306 0.62528 0.28067 0.0
C2398 C 0.04584 0.59263 0.3114 0.0
C2399 C 0.02827 0.57588 0.30795 0.0
C2400 C 0.04677 0.60921 0.32125 0.0
C2401 C 0.02971 0.60882 0.32823 0.0
C2402 C 0.01221 0.59131 0.32783 0.0
C2403 C 0.01165 0.57507 0.31728 0.0
C2404 C 0.06572 0.62755 0.32102 0.0
C2405 C 0.99377 0.59011 0.33589 0.0
H2406 H 0.03766 0.66214 0.37553 0.0
H2407 H 0.02528 0.65857 0.29172 0.0
H2408 H 0.02405 0.61369 0.38336 0.0
H2409 H 0.04928 0.6277 0.37915 0.0
H2410 H 0.03716 0.63694 0.39871 0.0
H2411 H 0.0213 0.63352 0.2646 0.0
H2412 H 0.03512 0.62321 0.27531 0.0
H2413 H 0.01002 0.61103 0.28138 0.0
H2414 H 0.05864 0.59332 0.30374 0.0
H2415 H 0.99803 0.56213 0.31435 0.0
H2416 H 0.06763 0.63604 0.33935 0.0
H2417 H 0.06617 0.63615 0.30373 0.0
H2418 H 0.07785 0.62503 0.31929 0.0
H2419 H 0.99583 0.59897 0.35388 0.0
H2420 H 0.98243 0.57525 0.33999 0.0
H2421 H 0.98879 0.59555 0.31948 0.0
C2422 C 0.36866 0.40939 0.35456 0.0
C2423 C 0.35783 0.39151 0.34229 0.0
C2424 C 0.38672 0.42283 0.34474 0.0
C2425 C 0.39385 0.41851 0.3216 0.0
C2426 C 0.38318 0.40027 0.30958 0.0
C2427 C 0.36543 0.38691 0.3203 0.0
C2428 C 0.39791 0.44186 0.35865 0.0
C2429 C 0.39006 0.39518 0.28456 0.0
C2430 C 0.42593 0.45741 0.27375 0.0
C2431 C 0.44324 0.45774 0.27644 0.0
C2432 C 0.40997 0.44525 0.28908 0.0
C2433 C 0.41145 0.43349 0.30829 0.0
C2434 C 0.42934 0.435 0.31285 0.0
C2435 C 0.44501 0.44699 0.29668 0.0
C2436 C 0.39119 0.44405 0.28335 0.0
C2437 C 0.43166 0.42318 0.33375 0.0
H2438 H 0.36294 0.41293 0.37178 0.0
H2439 H 0.3571 0.37314 0.31069 0.0
H2440 H 0.41291 0.44557 0.3617 0.0
H2441 H 0.39818 0.45304 0.34602 0.0
H2442 H 0.39166 0.44206 0.3783 0.0
H2443 H 0.38045 0.38019 0.27827 0.0
H2444 H 0.39099 0.40456 0.26804 0.0
H2445 H 0.40456 0.3975 0.28772 0.0
H2446 H 0.42458 0.46601 0.25856 0.0
H2447 H 0.4583 0.44712 0.29892 0.0
H2448 H 0.385 0.446 0.30199 0.0
H2449 H 0.3809 0.42974 0.27524 0.0
H2450 H 0.39266 0.45483 0.26873 0.0
H2451 H 0.42457 0.42333 0.35262 0.0
H2452 H 0.44691 0.42829 0.33796 0.0
H2453 H 0.42478 0.40822 0.32673 0.0
C2454 C 0.31156 0.27249 0.34469 0.0
C2455 C 0.3159 0.28647 0.36434 0.0
C2456 C 0.31463 0.25729 0.34932 0.0
C2457 C 0.32174 0.25583 0.37439 0.0
C2458 C 0.3266 0.2702 0.39398 0.0
C2459 C 0.32381 0.28539 0.38861 0.0
C2460 C 0.30974 0.24255 0.3277 0.0
C2461 C 0.33402 0.26913 0.42113 0.0
C2462 C 0.30938 0.20962 0.40723 0.0
C2463 C 0.32728 0.21108 0.40835 0.0
C2464 C 0.30694 0.22332 0.39417 0.0
C2465 C 0.32272 0.23868 0.38145 0.0
C2466 C 0.34023 0.23895 0.37979 0.0
C2467 C 0.34236 0.22518 0.39345 0.0
C2468 C 0.28801 0.2224 0.39653 0.0
C2469 C 0.35723 0.25473 0.36572 0.0
H2470 H 0.30558 0.27332 0.32581 0.0
H2471 H 0.3272 0.29611 0.40391 0.0
H2472 H 0.32138 0.23935 0.32537 0.0
H2473 H 0.29668 0.22916 0.33331 0.0
H2474 H 0.30719 0.2472 0.30817 0.0
H2475 H 0.33754 0.28168 0.43389 0.0
H2476 H 0.32316 0.25618 0.43157 0.0
H2477 H 0.347 0.26808 0.41897 0.0
H2478 H 0.29761 0.19855 0.41841 0.0
H2479 H 0.35623 0.22639 0.3942 0.0
H2480 H 0.28355 0.22514 0.37702 0.0
H2481 H 0.28944 0.23357 0.41071 0.0
H2482 H 0.27659 0.20841 0.40391 0.0
H2483 H 0.35287 0.25842 0.34682 0.0
H2484 H 0.36818 0.25083 0.36124 0.0
H2485 H 0.36384 0.26761 0.37865 0.0
C2486 C 0.71752 0.02149 0.37868 0.0
C2487 C 0.7104 0.01183 0.35439 0.0
C2488 C 0.73432 0.03927 0.37967 0.0
C2489 C 0.74404 0.04785 0.35568 0.0
C2490 C 0.73664 0.03844 0.33097 0.0
C2491 C 0.72001 0.02039 0.33065 0.0
C2492 C 0.74185 0.04868 0.40654 0.0
C2493 C 0.74632 0.04737 0.30498 0.0
C2494 C 0.77775 0.09986 0.36966 0.0
C2495 C 0.79429 0.09967 0.37664 0.0
C2496 C 0.76173 0.08345 0.35955 0.0
C2497 C 0.76222 0.06644 0.35709 0.0
C2498 C 0.77961 0.06684 0.36129 0.0
C2499 C 0.79554 0.08357 0.37082 0.0
C2500 C 0.74369 0.08382 0.35446 0.0
C2501 C 0.78078 0.04905 0.35913 0.0
H2502 H 0.71021 0.01491 0.39709 0.0
H2503 H 0.71447 0.01302 0.31179 0.0
H2504 H 0.75649 0.05134 0.40961 0.0
H2505 H 0.74267 0.06263 0.4073 0.0
H2506 H 0.73277 0.03994 0.42331 0.0
H2507 H 0.73806 0.03879 0.28739 0.0
H2508 H 0.74833 0.06179 0.3034 0.0
H2509 H 0.76068 0.04898 0.30437 0.0
H2510 H 0.77679 0.11231 0.37434 0.0
H2511 H 0.80825 0.08337 0.37657 0.0
H2512 H 0.73407 0.0778 0.37189 0.0
H2513 H 0.73603 0.07505 0.3367 0.0
H2514 H 0.74668 0.09852 0.35142 0.0
H2515 H 0.77381 0.04005 0.37679 0.0
H2516 H 0.79578 0.05232 0.35839 0.0
H2517 H 0.77318 0.04064 0.34112 0.0
C2518 C 0.97161 0.70309 0.36125 0.0
C2519 C 0.98051 0.71862 0.34401 0.0
C2520 C 0.9531 0.69661 0.37071 0.0
C2521 C 0.9431 0.70566 0.36242 0.0
C2522 C 0.95164 0.72075 0.34403 0.0
C2523 C 0.97032 0.72717 0.33522 0.0
C2524 C 0.94457 0.68056 0.39051 0.0
C2525 C 0.94128 0.73049 0.33432 0.0
C2526 C 0.89068 0.67718 0.38053 0.0
C2527 C 0.89093 0.68492 0.40568 0.0
C2528 C 0.90732 0.68477 0.36496 0.0
C2529 C 0.92448 0.70031 0.37501 0.0
C2530 C 0.92427 0.70921 0.39927 0.0
C2531 C 0.90744 0.70146 0.41422 0.0
C2532 C 0.90687 0.67518 0.33888 0.0
C2533 C 0.9422 0.72581 0.41074 0.0
H2534 H 0.97936 0.69639 0.36812 0.0
H2535 H 0.97702 0.73905 0.32165 0.0
H2536 H 0.94218 0.68575 0.40985 0.0
H2537 H 0.93051 0.66903 0.38328 0.0
H2538 H 0.95387 0.67452 0.39407 0.0
H2539 H 0.94889 0.74033 0.31762 0.0
H2540 H 0.92667 0.71984 0.32761 0.0
H2541 H 0.93986 0.73874 0.35094 0.0
H2542 H 0.87793 0.66435 0.37394 0.0
H2543 H 0.90755 0.70754 0.43359 0.0
H2544 H 0.91343 0.6663 0.34172 0.0
H2545 H 0.91524 0.68583 0.3234 0.0
H2546 H 0.89206 0.66589 0.33149 0.0
H2547 H 0.95198 0.72091 0.41725 0.0
H2548 H 0.93919 0.73236 0.42818 0.0
H2549 H 0.94976 0.73685 0.39542 0.0
C2550 C 0.39421 0.03267 0.67522 0.0
C2551 C 0.38282 0.02886 0.69806 0.0
C2552 C 0.41048 0.03085 0.67551 0.0
C2553 C 0.41573 0.02555 0.69938 0.0
C2554 C 0.40412 0.02145 0.72238 0.0
C2555 C 0.38773 0.02296 0.72133 0.0
C2556 C 0.4222 0.0349 0.65044 0.0
C2557 C 0.40928 0.01595 0.7484 0.0
C2558 C 0.44843 0.00598 0.70906 0.0
C2559 C 0.46401 0.02154 0.7215 0.0
C2560 C 0.43328 0.00757 0.69875 0.0
C2561 C 0.43375 0.02506 0.70122 0.0
C2562 C 0.4506 0.04136 0.71045 0.0
C2563 C 0.46564 0.03942 0.72021 0.0
C2564 C 0.41588 0.98998 0.68817 0.0
C2565 C 0.45184 0.06034 0.71336 0.0
H2566 H 0.39042 0.03713 0.6571 0.0
H2567 H 0.37905 0.02005 0.73906 0.0
H2568 H 0.43617 0.04812 0.6532 0.0
H2569 H 0.42511 0.02327 0.64628 0.0
H2570 H 0.41501 0.03662 0.6328 0.0
H2571 H 0.39877 0.01326 0.76443 0.0
H2572 H 0.41016 0.00296 0.74549 0.0
H2573 H 0.42351 0.02743 0.75524 0.0
H2574 H 0.44707 0.9921 0.70999 0.0
H2575 H 0.47775 0.0515 0.72965 0.0
H2576 H 0.40966 0.99339 0.67093 0.0
H2577 H 0.40488 0.98397 0.70404 0.0
H2578 H 0.41925 0.97895 0.68196 0.0
H2579 H 0.44589 0.06346 0.69557 0.0
H2580 H 0.46677 0.07208 0.71639 0.0
H2581 H 0.4433 0.05997 0.73089 0.0
C2582 C 0.94506 0.35981 0.6671 0.0
C2583 C 0.95252 0.34852 0.67527 0.0
C2584 C 0.95166 0.37792 0.67827 0.0
C2585 C 0.9657 0.38469 0.69858 0.0
C2586 C 0.97377 0.37364 0.70621 0.0
C2587 C 0.96723 0.35578 0.69425 0.0
C2588 C 0.94308 0.38948 0.66908 0.0
C2589 C 0.98858 0.38022 0.72806 0.0
C2590 C 0.99244 0.43578 0.72403 0.0
C2591 C 0.98233 0.43429 0.74749 0.0
C2592 C 0.98663 0.41999 0.70701 0.0
C2593 C 0.97055 0.40229 0.71387 0.0
C2594 C 0.95972 0.40103 0.73672 0.0
C2595 C 0.96561 0.41708 0.75301 0.0
C2596 C 0.99825 0.42201 0.68243 0.0
C2597 C 0.9425 0.38245 0.74486 0.0
H2598 H 0.93385 0.35437 0.65218 0.0
H2599 H 0.97303 0.34713 0.70069 0.0
H2600 H 0.93389 0.38999 0.68506 0.0
H2601 H 0.95445 0.40431 0.66508 0.0
H2602 H 0.9343 0.38342 0.65076 0.0
H2603 H 0.99423 0.37051 0.73057 0.0
H2604 H 0.00066 0.39464 0.72373 0.0
H2605 H 0.98222 0.38109 0.74727 0.0
H2606 H 0.0054 0.44901 0.71964 0.0
H2607 H 0.95748 0.41595 0.77079 0.0
H2608 H 0.9888 0.41521 0.66492 0.0
H2609 H 0.0064 0.4147 0.68556 0.0
H2610 H 0.00849 0.43713 0.67777 0.0
H2611 H 0.93212 0.37641 0.72819 0.0
H2612 H 0.9352 0.38406 0.76259 0.0
H2613 H 0.94695 0.37204 0.74961 0.0
C2614 C 0.65254 0.59474 0.65289 0.0
C2615 C 0.65825 0.6137 0.659 0.0
C2616 C 0.63472 0.57976 0.66101 0.0
C2617 C 0.62229 0.58382 0.67559 0.0
C2618 C 0.62747 0.60294 0.68036 0.0
C2619 C 0.64538 0.61765 0.67203 0.0
C2620 C 0.6297 0.55956 0.65543 0.0
C2621 C 0.61457 0.60788 0.69572 0.0
C2622 C 0.57087 0.54626 0.69106 0.0
C2623 C 0.57264 0.54203 0.71752 0.0
C2624 C 0.58703 0.55937 0.67658 0.0
C2625 C 0.60522 0.56828 0.689 0.0
C2626 C 0.60705 0.56321 0.71529 0.0
C2627 C 0.59074 0.55017 0.7292 0.0
C2628 C 0.58455 0.56436 0.64857 0.0
C2629 C 0.62615 0.57221 0.72925 0.0
H2630 H 0.66229 0.5915 0.64262 0.0
H2631 H 0.64954 0.63223 0.67663 0.0
H2632 H 0.63045 0.55294 0.67426 0.0
H2633 H 0.6149 0.55102 0.64775 0.0
H2634 H 0.63954 0.5588 0.64075 0.0
H2635 H 0.61967 0.62331 0.69517 0.0
H2636 H 0.59987 0.59994 0.68756 0.0
H2637 H 0.61387 0.60367 0.71687 0.0
H2638 H 0.5568 0.54 0.68217 0.0
H2639 H 0.59202 0.54678 0.74968 0.0
H2640 H 0.5951 0.56395 0.63495 0.0
H2641 H 0.58716 0.57906 0.64837 0.0
H2642 H 0.56999 0.55461 0.64068 0.0
H2643 H 0.63659 0.57068 0.71684 0.0
H2644 H 0.62525 0.56585 0.74908 0.0
H2645 H 0.63176 0.58764 0.73212 0.0
C2646 C 0.69825 0.72997 0.69189 0.0
C2647 C 0.69781 0.72094 0.66771 0.0
C2648 C 0.69501 0.7453 0.69249 0.0
C2649 C 0.69192 0.75211 0.66825 0.0
C2650 C 0.6912 0.74282 0.64386 0.0
C2651 C 0.6939 0.72723 0.64398 0.0
C2652 C 0.69536 0.75442 0.71896 0.0
C2653 C 0.68816 0.74968 0.61742 0.0
C2654 C 0.67073 0.78238 0.65342 0.0
C2655 C 0.68708 0.79899 0.645 0.0
C2656 C 0.6722 0.76761 0.66499 0.0
C2657 C 0.69037 0.76946 0.66746 0.0
C2658 C 0.70694 0.78724 0.66258 0.0
C2659 C 0.70507 0.80192 0.65161 0.0
C2660 C 0.65421 0.7492 0.67124 0.0
C2661 C 0.72662 0.78993 0.66514 0.0
H2662 H 0.70117 0.72508 0.71033 0.0
H2663 H 0.69361 0.72037 0.62523 0.0
H2664 H 0.70952 0.76737 0.72189 0.0
H2665 H 0.68447 0.75874 0.71963 0.0
H2666 H 0.69285 0.74472 0.73585 0.0
H2667 H 0.68829 0.74103 0.60027 0.0
H2668 H 0.6743 0.74918 0.61745 0.0
H2669 H 0.69949 0.76467 0.61424 0.0
H2670 H 0.65679 0.78015 0.64843 0.0
H2671 H 0.71773 0.81474 0.64503 0.0
H2672 H 0.65614 0.74255 0.68924 0.0
H2673 H 0.65069 0.73914 0.65425 0.0
H2674 H 0.64196 0.75138 0.67446 0.0
H2675 H 0.72791 0.78345 0.68373 0.0
H2676 H 0.73788 0.80519 0.66507 0.0
H2677 H 0.72919 0.78277 0.64808 0.0
C2678 C 0.26076 0.97603 0.66148 0.0
C2679 C 0.27568 0.98047 0.67933 0.0
C2680 C 0.24977 0.95767 0.65073 0.0
C2681 C 0.25331 0.94319 0.65887 0.0
C2682 C 0.26755 0.94734 0.67828 0.0
C2683 C 0.2789 0.96607 0.68783 0.0
C2684 C 0.23521 0.95409 0.62942 0.0
C2685 C 0.27121 0.93215 0.68834 0.0
C2686 C 0.21584 0.89396 0.63366 0.0
C2687 C 0.22464 0.89251 0.61038 0.0
C2688 C 0.22547 0.90983 0.65085 0.0
C2689 C 0.24404 0.92471 0.64414 0.0
C2690 C 0.25329 0.92272 0.62149 0.0
C2691 C 0.24368 0.90649 0.60538 0.0
C2692 C 0.21549 0.91104 0.67553 0.0
C2693 C 0.27294 0.93827 0.6132 0.0
H2694 H 0.2583 0.98719 0.65488 0.0
H2695 H 0.29026 0.96945 0.70198 0.0
H2696 H 0.23954 0.95042 0.6103 0.0
H2697 H 0.22112 0.94186 0.63488 0.0
H2698 H 0.23363 0.96663 0.62617 0.0
H2699 H 0.27998 0.9367 0.70683 0.0
H2700 H 0.25756 0.91887 0.69238 0.0
H2701 H 0.27889 0.92884 0.6729 0.0
H2702 H 0.20125 0.88313 0.6379 0.0
H2703 H 0.25089 0.90514 0.58803 0.0
H2704 H 0.21034 0.92106 0.67209 0.0
H2705 H 0.22545 0.91654 0.69276 0.0
H2706 H 0.20304 0.89702 0.68078 0.0
H2707 H 0.27267 0.95143 0.60901 0.0
H2708 H 0.27816 0.93438 0.59509 0.0
H2709 H 0.28331 0.94158 0.62956 0.0
C2710 C 0.01751 0.29721 0.66539 0.0
C2711 C 0.00697 0.2984 0.64419 0.0
C2712 C 0.03541 0.29897 0.66096 0.0
C2713 C 0.04259 0.30139 0.63462 0.0
C2714 C 0.03201 0.30269 0.61321 0.0
C2715 C 0.01448 0.30145 0.61832 0.0
C2716 C 0.04655 0.29812 0.68436 0.0
C2717 C 0.03893 0.30489 0.58472 0.0
C2718 C 0.09374 0.3197 0.61382 0.0
C2719 C 0.09294 0.30282 0.60604 0.0
C2720 C 0.07792 0.31939 0.62562 0.0
C2721 C 0.06076 0.3018 0.62887 0.0
C2722 C 0.06038 0.28466 0.62275 0.0
C2723 C 0.07657 0.28539 0.61165 0.0
C2724 C 0.07913 0.33795 0.63264 0.0
C2725 C 0.04232 0.26562 0.6254 0.0
H2726 H 0.0118 0.29499 0.68546 0.0
H2727 H 0.00634 0.30227 0.60184 0.0
H2728 H 0.04787 0.28532 0.68261 0.0
H2729 H 0.0612 0.31065 0.68437 0.0
H2730 H 0.03968 0.29766 0.70376 0.0
H2731 H 0.02887 0.30543 0.57034 0.0
H2732 H 0.05298 0.31809 0.58276 0.0
H2733 H 0.04089 0.29284 0.57909 0.0
H2734 H 0.10639 0.33318 0.60933 0.0
H2735 H 0.07586 0.27235 0.60523 0.0
H2736 H 0.07203 0.33691 0.652 0.0
H2737 H 0.07166 0.34136 0.61715 0.0
H2738 H 0.09414 0.34984 0.63381 0.0
H2739 H 0.0356 0.2644 0.64512 0.0
H2740 H 0.04496 0.25364 0.62291 0.0
H2741 H 0.03196 0.26423 0.60992 0.0
C2742 C 0.25318 0.2824 0.69968 0.0
C2743 C 0.2672 0.28499 0.68111 0.0
C2744 C 0.23867 0.28608 0.69283 0.0
C2745 C 0.23772 0.29161 0.66646 0.0
C2746 C 0.2521 0.29458 0.64782 0.0
C2747 C 0.26688 0.29159 0.65558 0.0
C2748 C 0.22412 0.28362 0.71356 0.0
C2749 C 0.2514 0.30002 0.61928 0.0
C2750 C 0.19154 0.27842 0.63172 0.0
C2751 C 0.1941 0.29639 0.6269 0.0
C2752 C 0.20498 0.27645 0.64653 0.0
C2753 C 0.22103 0.29283 0.65734 0.0
C2754 C 0.22238 0.31073 0.65522 0.0
C2755 C 0.20906 0.31237 0.63948 0.0
C2756 C 0.20314 0.25714 0.64777 0.0
C2757 C 0.23879 0.32839 0.66746 0.0
H2758 H 0.25357 0.27747 0.71955 0.0
H2759 H 0.27768 0.29348 0.64121 0.0
H2760 H 0.22171 0.2958 0.71324 0.0
H2761 H 0.2103 0.27062 0.70904 0.0
H2762 H 0.2286 0.28234 0.73399 0.0
H2763 H 0.26362 0.30163 0.60729 0.0
H2764 H 0.23799 0.28902 0.60964 0.0
H2765 H 0.25147 0.31359 0.61877 0.0
H2766 H 0.18013 0.26614 0.62154 0.0
H2767 H 0.21109 0.32628 0.63548 0.0
H2768 H 0.20569 0.25405 0.66833 0.0
H2769 H 0.21407 0.25697 0.63469 0.0
H2770 H 0.18886 0.24562 0.6411 0.0
H2771 H 0.24244 0.32539 0.68744 0.0
H2772 H 0.2355 0.33996 0.66942 0.0
H2773 H 0.25156 0.33351 0.6546 0.0
C2774 C 0.70658 0.98892 0.6834 0.0
C2775 C 0.70451 0.99737 0.66038 0.0
C2776 C 0.70412 0.97059 0.68236 0.0
C2777 C 0.70001 0.96077 0.65761 0.0
C2778 C 0.69792 0.96928 0.63436 0.0
C2779 C 0.69996 0.98734 0.63612 0.0
C2780 C 0.70594 0.96177 0.70765 0.0
C2781 C 0.69385 0.95947 0.60742 0.0
C2782 C 0.71209 0.9233 0.63873 0.0
C2783 C 0.69382 0.90746 0.6352 0.0
C2784 C 0.71453 0.94054 0.64851 0.0
C2785 C 0.6983 0.94178 0.65532 0.0
C2786 C 0.68003 0.92514 0.65489 0.0
C2787 C 0.67797 0.9082 0.64446 0.0
C2788 C 0.73426 0.9579 0.64835 0.0
C2789 C 0.66241 0.92567 0.66271 0.0
H2790 H 0.70998 0.99658 0.70224 0.0
H2791 H 0.69845 0.99382 0.61824 0.0
H2792 H 0.69293 0.94771 0.71065 0.0
H2793 H 0.71812 0.95935 0.70598 0.0
H2794 H 0.70815 0.97082 0.7255 0.0
H2795 H 0.69306 0.96823 0.59122 0.0
H2796 H 0.70515 0.95621 0.60236 0.0
H2797 H 0.68013 0.9458 0.60802 0.0
H2798 H 0.72431 0.9228 0.63117 0.0
H2799 H 0.66383 0.89597 0.64151 0.0
H2800 H 0.73677 0.96671 0.66652 0.0
H2801 H 0.73564 0.96674 0.63086 0.0
H2802 H 0.74552 0.95409 0.647 0.0
H2803 H 0.66513 0.93475 0.68066 0.0
H2804 H 0.6502 0.91123 0.66678 0.0
H2805 H 0.6583 0.93182 0.64619 0.0
C2806 C 0.03631 0.71265 0.66975 0.0
C2807 C 0.02273 0.71798 0.66486 0.0
C2808 C 0.0554 0.72426 0.66171 0.0
C2809 C 0.06082 0.7412 0.64762 0.0
C2810 C 0.04716 0.7467 0.64297 0.0
C2811 C 0.02841 0.73519 0.652 0.0
C2812 C 0.06966 0.71823 0.66784 0.0
C2813 C 0.05213 0.76436 0.6274 0.0
C2814 C 0.11109 0.78151 0.63288 0.0
C2815 C 0.11307 0.77745 0.60623 0.0
C2816 C 0.09475 0.76897 0.64762 0.0
C2817 C 0.08005 0.75227 0.63517 0.0
C2818 C 0.08278 0.74747 0.609 0.0
C2819 C 0.09937 0.75994 0.59509 0.0
C2820 C 0.09269 0.77423 0.67585 0.0
C2821 C 0.06749 0.72998 0.59473 0.0
H2822 H 0.03203 0.69947 0.68 0.0
H2823 H 0.01797 0.73935 0.6481 0.0
H2824 H 0.07351 0.71356 0.64921 0.0
H2825 H 0.08296 0.73037 0.67612 0.0
H2826 H 0.06396 0.70636 0.68227 0.0
H2827 H 0.03997 0.76684 0.62598 0.0
H2828 H 0.06431 0.77698 0.63692 0.0
H2829 H 0.05658 0.7631 0.60689 0.0
H2830 H 0.12171 0.79493 0.64168 0.0
H2831 H 0.10111 0.7565 0.57471 0.0
H2832 H 0.08655 0.76157 0.68887 0.0
H2833 H 0.08281 0.7798 0.67614 0.0
H2834 H 0.10658 0.78529 0.68433 0.0
H2835 H 0.06263 0.71721 0.60719 0.0
H2836 H 0.07245 0.72752 0.57524 0.0
H2837 H 0.05495 0.73158 0.59108 0.0
C2838 C 0.96754 0.59812 0.67386 0.0
C2839 C 0.97276 0.61242 0.69329 0.0
C2840 C 0.96952 0.58228 0.67868 0.0
C2841 C 0.97656 0.58058 0.70366 0.0
C2842 C 0.98214 0.59515 0.72313 0.0
C2843 C 0.9803 0.61092 0.71762 0.0
C2844 C 0.96374 0.56722 0.65728 0.0
C2845 C 0.98959 0.59388 0.75015 0.0
C2846 C 0.96435 0.53471 0.73735 0.0
C2847 C 0.98222 0.53608 0.73782 0.0
C2848 C 0.96172 0.5482 0.724 0.0
C2849 C 0.97729 0.56326 0.71049 0.0
C2850 C 0.99462 0.56325 0.70803 0.0
C2851 C 0.99691 0.54966 0.72184 0.0
C2852 C 0.94296 0.54754 0.72707 0.0
C2853 C 0.01141 0.57875 0.69324 0.0
H2854 H 0.96179 0.59924 0.65493 0.0
H2855 H 0.98436 0.62188 0.73275 0.0
H2856 H 0.97525 0.56395 0.65399 0.0
H2857 H 0.95092 0.55392 0.66378 0.0
H2858 H 0.96048 0.57159 0.63803 0.0
H2859 H 0.99353 0.60653 0.76293 0.0
H2860 H 0.97861 0.58107 0.76071 0.0
H2861 H 0.00234 0.59244 0.74773 0.0
H2862 H 0.95291 0.52408 0.74948 0.0
H2863 H 0.01077 0.55082 0.72216 0.0
H2864 H 0.93841 0.55066 0.7079 0.0
H2865 H 0.94467 0.55855 0.74176 0.0
H2866 H 0.9315 0.5335 0.73424 0.0
H2867 H 0.00675 0.58235 0.67454 0.0
H2868 H 0.02212 0.57461 0.6883 0.0
H2869 H 0.01843 0.59174 0.70591 0.0
C2870 C 0.38114 0.35924 0.70254 0.0
C2871 C 0.37472 0.34939 0.67824 0.0
C2872 C 0.39721 0.37751 0.70372 0.0
C2873 C 0.40685 0.38648 0.67985 0.0
C2874 C 0.4 0.37693 0.65506 0.0
C2875 C 0.38418 0.35831 0.65459 0.0
C2876 C 0.40414 0.387 0.73072 0.0
C2877 C 0.40951 0.38616 0.62913 0.0
C2878 C 0.43812 0.43817 0.69708 0.0
C2879 C 0.45475 0.43847 0.70498 0.0
C2880 C 0.42303 0.4219 0.68503 0.0
C2881 C 0.42451 0.40549 0.68171 0.0
C2882 C 0.4422 0.40664 0.68653 0.0
C2883 C 0.45722 0.42327 0.69789 0.0
C2884 C 0.40474 0.42155 0.67896 0.0
C2885 C 0.44445 0.38954 0.68332 0.0
H2886 H 0.37396 0.35239 0.7209 0.0
H2887 H 0.3792 0.35076 0.63573 0.0
H2888 H 0.41908 0.39061 0.73402 0.0
H2889 H 0.40394 0.40045 0.73152 0.0
H2890 H 0.39527 0.37787 0.74736 0.0
H2891 H 0.40008 0.37891 0.61171 0.0
H2892 H 0.41368 0.40136 0.62907 0.0
H2893 H 0.42267 0.38547 0.62663 0.0
H2894 H 0.43623 0.44997 0.70257 0.0
H2895 H 0.47004 0.42345 0.7042 0.0
H2896 H 0.39459 0.41472 0.69567 0.0
H2897 H 0.39798 0.41316 0.66055 0.0
H2898 H 0.40721 0.43611 0.67652 0.0
H2899 H 0.43712 0.37964 0.70005 0.0
H2900 H 0.45968 0.39352 0.68348 0.0
H2901 H 0.43782 0.3818 0.66448 0.0
C2902 C 0.64424 0.06154 0.65966 0.0
C2903 C 0.65477 0.05353 0.66913 0.0
C2904 C 0.62564 0.05518 0.66879 0.0
C2905 C 0.61757 0.04077 0.68823 0.0
C2906 C 0.62787 0.03217 0.69713 0.0
C2907 C 0.64627 0.03854 0.68729 0.0
C2908 C 0.61493 0.06437 0.65837 0.0
C2909 C 0.61986 0.01688 0.71807 0.0
C2910 C 0.583 0.03918 0.74004 0.0
C2911 C 0.56615 0.02251 0.73278 0.0
C2912 C 0.59961 0.0459 0.72481 0.0
C2913 C 0.59927 0.03589 0.70143 0.0
C2914 C 0.58186 0.02004 0.69267 0.0
C2915 C 0.56546 0.01344 0.70857 0.0
C2916 C 0.61784 0.06285 0.73492 0.0
C2917 C 0.58082 0.00927 0.6675 0.0
H2918 H 0.65063 0.07299 0.64537 0.0
H2919 H 0.65428 0.03227 0.6947 0.0
H2920 H 0.60016 0.0534 0.65274 0.0
H2921 H 0.61392 0.07334 0.67428 0.0
H2922 H 0.62204 0.07343 0.64078 0.0
H2923 H 0.62926 0.01098 0.72183 0.0
H2924 H 0.61798 0.02279 0.73711 0.0
H2925 H 0.60562 0.00511 0.71187 0.0
H2926 H 0.58347 0.04642 0.75851 0.0
H2927 H 0.55247 0.00054 0.70288 0.0
H2928 H 0.62488 0.07339 0.71884 0.0
H2929 H 0.62787 0.05821 0.74123 0.0
H2930 H 0.61535 0.06995 0.75217 0.0
H2931 H 0.58874 0.01921 0.65107 0.0
H2932 H 0.56587 -0.00041 0.661 0.0
H2933 H 0.58758 0.00066 0.67108 0.0
loop_
_geom_bond_atom_site_label_1
_geom_bond_atom_site_label_2
_geom_bond_distance
_geom_bond_site_symmetry_2
_ccdc_geom_bond_type
C0 O1 1.306 1_556 S
C0 O3 1.160 . S
O1 C0 1.306 1_554 S
O1 Cd2 2.228 . S
Cd2 O1 2.228 . S
Cd2 O6 2.273 . S
Cd2 O10 2.277 1_554 S
O3 C0 1.160 . S
O3 Cd4 2.203 1_656 S
Cd4 O3 2.203 1_454 S
Cd4 O6 2.411 1_455 S
Cd4 O7 2.333 . S
Cd4 O8 2.352 . S
Cd4 O12 2.277 1_554 S
Cd4 O13 2.356 . S
C5 O10 1.209 1_455 S
C5 O12 1.226 . S
O6 Cd2 2.273 . S
O6 Cd4 2.411 1_655 S
O6 C9 1.320 1_655 S
O7 Cd4 2.333 . S
O7 C9 1.214 . S
O8 Cd4 2.352 . S
O8 C11 1.258 . S
C9 O6 1.320 1_455 S
C9 O7 1.214 . S
O10 Cd2 2.277 1_556 S
O10 C5 1.209 1_655 S
C11 O8 1.258 . S
C11 O13 1.282 . S
O12 Cd4 2.277 1_556 S
O12 C5 1.226 . S
O13 Cd4 2.356 . S
O13 C11 1.282 . S
C14 O15 1.306 . S
C14 O17 1.160 . S
O15 C14 1.306 . S
O15 Cd16 2.228 . S
Cd16 O15 2.228 . S
Cd16 O20 2.273 1_554 S
Cd16 O24 2.277 . S
O17 C14 1.160 . S
O17 Cd18 2.203 . S
Cd18 O17 2.203 . S
Cd18 O20 2.411 1_554 S
Cd18 O21 2.333 1_554 S
Cd18 O22 2.352 1_554 S
Cd18 O26 2.277 . S
Cd18 O27 2.356 . S
C19 O24 1.209 . S
C19 O26 1.226 . S
O20 Cd16 2.273 1_556 S
O20 Cd18 2.411 1_556 S
O20 C23 1.320 . S
O21 Cd18 2.333 1_556 S
O21 C23 1.214 . S
O22 Cd18 2.352 1_556 S
O22 C25 1.258 . S
C23 O20 1.320 . S
C23 O21 1.214 . S
O24 Cd16 2.277 . S
O24 C19 1.209 . S
C25 O22 1.258 . S
C25 O27 1.282 1_556 S
O26 Cd18 2.277 . S
O26 C19 1.226 . S
O27 Cd18 2.356 . S
O27 C25 1.282 1_554 S
C28 O29 1.306 . S
C28 O31 1.160 . S
O29 C28 1.306 . S
O29 Cd30 2.228 . S
Cd30 O29 2.228 . S
Cd30 O34 2.273 1_554 S
Cd30 O38 2.277 . S
O31 C28 1.160 . S
O31 Cd32 2.203 1_565 S
Cd32 O31 2.203 1_545 S
Cd32 O34 2.411 1_544 S
Cd32 O35 2.333 1_554 S
Cd32 O36 2.352 1_554 S
Cd32 O40 2.277 . S
Cd32 O41 2.356 . S
C33 O38 1.209 1_545 S
C33 O40 1.226 . S
O34 Cd30 2.273 1_556 S
O34 Cd32 2.411 1_566 S
O34 C37 1.320 1_565 S
O35 Cd32 2.333 1_556 S
O35 C37 1.214 . S
O36 Cd32 2.352 1_556 S
O36 C39 1.258 . S
C37 O34 1.320 1_545 S
C37 O35 1.214 . S
O38 Cd30 2.277 . S
O38 C33 1.209 1_565 S
C39 O36 1.258 . S
C39 O41 1.282 1_556 S
O40 Cd32 2.277 . S
O40 C33 1.226 . S
O41 Cd32 2.356 . S
O41 C39 1.282 1_554 S
C42 O43 1.306 1_556 S
C42 O45 1.160 . S
O43 C42 1.306 1_554 S
O43 Cd44 2.228 . S
Cd44 O43 2.228 . S
Cd44 O48 2.273 . S
Cd44 O52 2.277 1_554 S
O45 C42 1.160 . S
O45 Cd46 2.203 1_656 S
Cd46 O45 2.203 1_454 S
Cd46 O48 2.411 1_455 S
Cd46 O49 2.333 . S
Cd46 O50 2.352 . S
Cd46 O54 2.277 1_554 S
Cd46 O55 2.356 . S
C47 O52 1.209 1_455 S
C47 O54 1.226 . S
O48 Cd44 2.273 . S
O48 Cd46 2.411 1_655 S
O48 C51 1.320 1_655 S
O49 Cd46 2.333 . S
O49 C51 1.214 . S
O50 Cd46 2.352 . S
O50 C53 1.258 . S
C51 O48 1.320 1_455 S
C51 O49 1.214 . S
O52 Cd44 2.277 1_556 S
O52 C47 1.209 1_655 S
C53 O50 1.258 . S
C53 O55 1.282 . S
O54 Cd46 2.277 1_556 S
O54 C47 1.226 . S
O55 Cd46 2.356 . S
O55 C53 1.282 . S
C56 O57 1.306 . S
C56 O59 1.160 . S
O57 C56 1.306 . S
O57 Cd58 2.228 . S
Cd58 O57 2.228 . S
Cd58 O62 2.273 1_554 S
Cd58 O66 2.277 . S
O59 C56 1.160 . S
O59 Cd60 2.203 . S
Cd60 O59 2.203 . S
Cd60 O62 2.411 1_554 S
Cd60 O63 2.333 1_554 S
Cd60 O64 2.352 1_554 S
Cd60 O68 2.277 . S
Cd60 O69 2.356 . S
C61 O66 1.209 . S
C61 O68 1.226 . S
O62 Cd58 2.273 1_556 S
O62 Cd60 2.411 1_556 S
O62 C65 1.320 . S
O63 Cd60 2.333 1_556 S
O63 C65 1.214 . S
O64 Cd60 2.352 1_556 S
O64 C67 1.258 . S
C65 O62 1.320 . S
C65 O63 1.214 . S
O66 Cd58 2.277 . S
O66 C61 1.209 . S
C67 O64 1.258 . S
C67 O69 1.282 1_556 S
O68 Cd60 2.277 . S
O68 C61 1.226 . S
O69 Cd60 2.356 . S
O69 C67 1.282 1_554 S
C70 O71 1.306 1_556 S
C70 O73 1.160 . S
O71 C70 1.306 1_554 S
O71 Cd72 2.228 . S
Cd72 O71 2.228 . S
Cd72 O76 2.273 . S
Cd72 O80 2.277 1_554 S
O73 C70 1.160 . S
O73 Cd74 2.203 1_546 S
Cd74 O73 2.203 1_564 S
Cd74 O76 2.411 1_565 S
Cd74 O77 2.333 . S
Cd74 O78 2.352 . S
Cd74 O82 2.277 1_554 S
Cd74 O83 2.356 . S
C75 O80 1.181 1_565 S
C75 O82 1.266 . S
O76 Cd72 2.273 . S
O76 Cd74 2.411 1_545 S
O76 C79 1.340 . S
O77 Cd74 2.333 . S
O77 C79 1.173 1_565 S
O78 Cd74 2.352 . S
O78 C81 1.258 . S
C79 O76 1.340 . S
C79 O77 1.173 1_545 S
O80 Cd72 2.277 1_556 S
O80 C75 1.181 1_545 S
C81 O78 1.258 . S
C81 O83 1.282 . S
O82 Cd74 2.277 1_556 S
O82 C75 1.266 . S
O83 Cd74 2.356 . S
O83 C81 1.282 . S
C84 O85 1.306 . S
C84 O87 1.160 . S
O85 C84 1.306 . S
O85 Cd86 2.228 . S
Cd86 O85 2.228 . S
Cd86 O90 2.273 . S
Cd86 O94 2.277 . S
O87 C84 1.160 . S
O87 Cd88 2.203 . S
Cd88 O87 2.203 . S
Cd88 O90 2.411 . S
Cd88 O91 2.333 . S
Cd88 O92 2.352 . S
Cd88 O96 2.277 . S
Cd88 O97 2.356 . S
C89 O94 1.209 . S
C89 O96 1.226 . S
O90 Cd86 2.273 . S
O90 Cd88 2.411 . S
O90 C93 1.320 . S
O91 Cd88 2.333 . S
O91 C93 1.214 . S
O92 Cd88 2.352 . S
O92 C95 1.258 . S
C93 O90 1.320 . S
C93 O91 1.214 . S
O94 Cd86 2.277 . S
O94 C89 1.209 . S
C95 O92 1.258 . S
C95 O97 1.282 . S
O96 Cd88 2.277 . S
O96 C89 1.226 . S
O97 Cd88 2.356 . S
O97 C95 1.282 . S
C98 O99 1.306 . S
C98 O101 1.160 . S
O99 C98 1.306 . S
O99 Cd100 2.228 1_545 S
Cd100 O99 2.228 1_565 S
Cd100 O104 2.273 . S
Cd100 O108 2.277 . S
O101 C98 1.160 . S
O101 Cd102 2.203 1_545 S
Cd102 O101 2.203 1_565 S
Cd102 O104 2.411 . S
Cd102 O105 2.333 . S
Cd102 O106 2.365 . S
Cd102 O110 2.277 . S
Cd102 O111 2.356 . S
C103 O108 1.209 . S
C103 O110 1.226 . S
O104 Cd100 2.273 . S
O104 Cd102 2.411 . S
O104 C107 1.320 . S
O105 Cd102 2.333 . S
O105 C107 1.214 . S
O106 Cd102 2.365 . S
O106 C109 1.318 . S
C107 O104 1.320 . S
C107 O105 1.214 . S
O108 Cd100 2.277 . S
O108 C103 1.209 . S
C109 O106 1.318 . S
C109 O111 1.282 . S
O110 Cd102 2.277 . S
O110 C103 1.226 . S
O111 Cd102 2.356 . S
O111 C109 1.282 . S
C112 O113 1.306 . S
C112 O115 1.160 . S
O113 C112 1.306 . S
O113 Cd114 2.228 1_655 S
Cd114 O113 2.228 1_455 S
Cd114 O118 2.273 . S
Cd114 O122 2.277 . S
O115 C112 1.160 . S
O115 Cd116 2.203 1_655 S
Cd116 O115 2.203 1_455 S
Cd116 O118 2.411 . S
Cd116 O119 2.333 . S
Cd116 O120 2.352 . S
Cd116 O124 2.277 . S
Cd116 O125 2.356 . S
C117 O122 1.209 . S
C117 O124 1.226 . S
O118 Cd114 2.273 . S
O118 Cd116 2.411 . S
O118 C121 1.320 . S
O119 Cd116 2.333 . S
O119 C121 1.214 . S
O120 Cd116 2.352 . S
O120 C123 1.258 . S
C121 O118 1.320 . S
C121 O119 1.214 . S
O122 Cd114 2.277 . S
O122 C117 1.209 . S
C123 O120 1.258 . S
C123 O125 1.282 . S
O124 Cd116 2.277 . S
O124 C117 1.226 . S
O125 Cd116 2.356 . S
O125 C123 1.282 . S
C126 O127 1.306 . S
C126 O129 1.160 . S
O127 C126 1.306 . S
O127 Cd128 2.228 . S
Cd128 O127 2.228 . S
Cd128 O132 2.273 . S
Cd128 O136 2.277 . S
O129 C126 1.160 . S
O129 Cd130 2.203 . S
Cd130 O129 2.203 . S
Cd130 O132 2.411 . S
Cd130 O133 2.333 . S
Cd130 O134 2.352 1_565 S
Cd130 O138 2.277 . S
Cd130 O139 2.356 1_565 S
C131 O136 1.209 . S
C131 O138 1.226 . S
O132 Cd128 2.273 . S
O132 Cd130 2.411 . S
O132 C135 1.320 . S
O133 Cd130 2.333 . S
O133 C135 1.214 . S
O134 Cd130 2.352 1_545 S
O134 C137 1.258 . S
C135 O132 1.320 . S
C135 O133 1.214 . S
O136 Cd128 2.277 . S
O136 C131 1.209 . S
C137 O134 1.258 . S
C137 O139 1.282 . S
O138 Cd130 2.277 . S
O138 C131 1.226 . S
O139 Cd130 2.356 1_545 S
O139 C137 1.282 . S
C140 O141 1.306 . S
C140 O143 1.160 . S
O141 C140 1.306 . S
O141 Cd142 2.228 1_655 S
Cd142 O141 2.228 1_455 S
Cd142 O146 2.273 . S
Cd142 O150 2.277 . S
O143 C140 1.160 . S
O143 Cd144 2.203 1_655 S
Cd144 O143 2.203 1_455 S
Cd144 O146 2.411 . S
Cd144 O147 2.333 . S
Cd144 O148 2.352 . S
Cd144 O152 2.277 . S
Cd144 O153 2.356 . S
C145 O150 1.209 . S
C145 O152 1.226 . S
O146 Cd142 2.273 . S
O146 Cd144 2.411 . S
O146 C149 1.320 . S
O147 Cd144 2.333 . S
O147 C149 1.214 . S
O148 Cd144 2.352 . S
O148 C151 1.258 . S
C149 O146 1.320 . S
C149 O147 1.214 . S
O150 Cd142 2.277 . S
O150 C145 1.209 . S
C151 O148 1.258 . S
C151 O153 1.282 . S
O152 Cd144 2.277 . S
O152 C145 1.226 . S
O153 Cd144 2.356 . S
O153 C151 1.282 . S
C154 O155 1.306 . S
C154 O157 1.160 . S
O155 C154 1.306 . S
O155 Cd156 2.228 . S
Cd156 O155 2.228 . S
Cd156 O160 2.273 . S
Cd156 O164 2.277 . S
O157 C154 1.160 . S
O157 Cd158 2.203 . S
Cd158 O157 2.203 . S
Cd158 O160 2.411 . S
Cd158 O161 2.333 . S
Cd158 O162 2.352 . S
Cd158 O166 2.277 . S
Cd158 O167 2.356 . S
C159 O164 1.209 . S
C159 O166 1.226 . S
O160 Cd156 2.273 . S
O160 Cd158 2.411 . S
O160 C163 1.320 . S
O161 Cd158 2.333 . S
O161 C163 1.214 . S
O162 Cd158 2.352 . S
O162 C165 1.258 . S
C163 O160 1.320 . S
C163 O161 1.214 . S
O164 Cd156 2.277 . S
O164 C159 1.209 . S
C165 O162 1.258 . S
C165 O167 1.282 . S
O166 Cd158 2.277 . S
O166 C159 1.226 . S
O167 Cd158 2.356 . S
O167 C165 1.282 . S
C168 O169 1.306 . S
C168 O171 1.160 . S
O169 C168 1.306 . S
O169 Cd170 2.228 1_565 S
Cd170 O169 2.228 1_545 S
Cd170 O174 2.273 . S
Cd170 O178 2.277 . S
O171 C168 1.160 . S
O171 Cd172 2.203 1_565 S
Cd172 O171 2.203 1_545 S
Cd172 O174 2.411 . S
Cd172 O175 2.333 . S
Cd172 O176 2.352 . S
Cd172 O180 2.277 . S
Cd172 O181 2.356 . S
C173 O178 1.209 . S
C173 O180 1.226 . S
O174 Cd170 2.273 . S
O174 Cd172 2.411 . S
O174 C177 1.320 . S
O175 Cd172 2.333 . S
O175 C177 1.214 . S
O176 Cd172 2.352 . S
O176 C179 1.258 . S
C177 O174 1.320 . S
C177 O175 1.214 . S
O178 Cd170 2.277 . S
O178 C173 1.209 . S
C179 O176 1.258 . S
C179 O181 1.282 . S
O180 Cd172 2.277 . S
O180 C173 1.226 . S
O181 Cd172 2.356 . S
O181 C179 1.282 . S
C182 O183 1.306 . S
C182 O185 1.160 . S
O183 C182 1.306 . S
O183 Cd184 2.228 . S
Cd184 O183 2.228 . S
Cd184 O188 2.273 . S
Cd184 O192 2.277 . S
O185 C182 1.160 . S
O185 Cd186 2.203 . S
Cd186 O185 2.203 . S
Cd186 O188 2.411 . S
Cd186 O189 2.333 . S
Cd186 O190 2.352 1_655 S
Cd186 O194 2.277 . S
Cd186 O195 2.356 1_655 S
C187 O192 1.209 . S
C187 O194 1.226 . S
O188 Cd184 2.273 . S
O188 Cd186 2.411 . S
O188 C191 1.320 . S
O189 Cd186 2.333 . S
O189 C191 1.214 . S
O190 Cd186 2.352 1_455 S
O190 C193 1.258 . S
C191 O188 1.320 . S
C191 O189 1.214 . S
O192 Cd184 2.277 . S
O192 C187 1.209 . S
C193 O190 1.258 . S
C193 O195 1.282 . S
O194 Cd186 2.277 . S
O194 C187 1.226 . S
O195 Cd186 2.356 1_455 S
O195 C193 1.282 . S
C196 O197 1.306 . S
C196 O199 1.160 . S
O197 C196 1.306 . S
O197 Cd198 2.228 . S
Cd198 O197 2.228 . S
Cd198 O202 2.273 . S
Cd198 O206 2.277 . S
O199 C196 1.160 . S
O199 Cd200 2.203 . S
Cd200 O199 2.203 . S
Cd200 O202 2.411 . S
Cd200 O203 2.333 . S
Cd200 O204 2.352 . S
Cd200 O208 2.277 . S
Cd200 O209 2.356 . S
C201 O206 1.209 . S
C201 O208 1.226 . S
O202 Cd198 2.273 . S
O202 Cd200 2.411 . S
O202 C205 1.320 . S
O203 Cd200 2.333 . S
O203 C205 1.214 . S
O204 Cd200 2.352 . S
O204 C207 1.258 . S
C205 O202 1.320 . S
C205 O203 1.214 . S
O206 Cd198 2.277 . S
O206 C201 1.209 . S
C207 O204 1.258 . S
C207 O209 1.282 . S
O208 Cd200 2.277 . S
O208 C201 1.226 . S
O209 Cd200 2.356 . S
O209 C207 1.282 . S
C210 O211 1.306 . S
C210 O213 1.160 . S
O211 C210 1.306 . S
O211 Cd212 2.228 . S
Cd212 O211 2.228 . S
Cd212 O216 2.273 . S
Cd212 O220 2.277 . S
O213 C210 1.160 . S
O213 Cd214 2.203 . S
Cd214 O213 2.203 . S
Cd214 O216 2.411 . S
Cd214 O217 2.333 . S
Cd214 O218 2.352 . S
Cd214 O222 2.277 . S
Cd214 O223 2.356 . S
C215 O220 1.209 . S
C215 O222 1.226 . S
O216 Cd212 2.273 . S
O216 Cd214 2.411 . S
O216 C219 1.320 . S
O217 Cd214 2.333 . S
O217 C219 1.214 . S
O218 Cd214 2.352 . S
O218 C221 1.258 . S
C219 O216 1.320 . S
C219 O217 1.214 . S
O220 Cd212 2.277 . S
O220 C215 1.209 . S
C221 O218 1.258 . S
C221 O223 1.282 . S
O222 Cd214 2.277 . S
O222 C215 1.226 . S
O223 Cd214 2.356 . S
O223 C221 1.282 . S
C224 O225 1.306 . S
C224 O227 1.160 . S
O225 C224 1.306 . S
O225 Cd226 2.228 . S
Cd226 O225 2.228 . S
Cd226 O230 2.273 . S
Cd226 O234 2.277 . S
O227 C224 1.160 . S
O227 Cd228 2.203 . S
Cd228 O227 2.203 . S
Cd228 O230 2.411 . S
Cd228 O231 2.333 . S
Cd228 O232 2.352 1_545 S
Cd228 O236 2.277 . S
Cd228 O237 2.356 1_545 S
C229 O234 1.209 . S
C229 O236 1.226 . S
O230 Cd226 2.273 . S
O230 Cd228 2.411 . S
O230 C233 1.320 . S
O231 Cd228 2.333 . S
O231 C233 1.214 . S
O232 Cd228 2.352 1_565 S
O232 C235 1.258 . S
C233 O230 1.320 . S
C233 O231 1.214 . S
O234 Cd226 2.277 . S
O234 C229 1.209 . S
C235 O232 1.258 . S
C235 O237 1.282 . S
O236 Cd228 2.277 . S
O236 C229 1.226 . S
O237 Cd228 2.356 1_565 S
O237 C235 1.282 . S
C238 O239 1.306 . S
C238 O241 1.160 . S
O239 C238 1.306 . S
O239 Cd240 2.228 1_455 S
Cd240 O239 2.228 1_655 S
Cd240 O244 2.273 . S
Cd240 O248 2.277 . S
O241 C238 1.160 . S
O241 Cd242 2.203 1_455 S
Cd242 O241 2.203 1_655 S
Cd242 O244 2.411 . S
Cd242 O245 2.333 . S
Cd242 O246 2.352 . S
Cd242 O250 2.277 . S
Cd242 O251 2.356 . S
C243 O248 1.209 . S
C243 O250 1.226 . S
O244 Cd240 2.273 . S
O244 Cd242 2.411 . S
O244 C247 1.320 . S
O245 Cd242 2.333 . S
O245 C247 1.214 . S
O246 Cd242 2.352 . S
O246 C249 1.258 . S
C247 O244 1.320 . S
C247 O245 1.214 . S
O248 Cd240 2.277 . S
O248 C243 1.209 . S
C249 O246 1.258 . S
C249 O251 1.282 . S
O250 Cd242 2.277 . S
O250 C243 1.226 . S
O251 Cd242 2.356 . S
O251 C249 1.282 . S
H252 C260 0.930 . S
H253 C263 0.930 . S
H254 C265 0.930 . S
H255 C266 0.970 . S
H256 C266 0.970 . S
H257 C268 0.930 . S
H258 C270 0.930 . S
H259 C272 0.930 . S
C260 H252 0.930 . S
C260 C261 1.382 . S
C260 C262 1.426 . S
C261 C260 1.382 . S
C261 C265 1.389 . S
C262 C260 1.426 . S
C262 C263 1.375 . S
C262 C266 1.532 . S
C263 H253 0.930 . S
C263 C262 1.375 . S
C263 C264 1.416 . S
C264 C263 1.416 . S
C264 C265 1.371 . S
C265 H254 0.930 . S
C265 C261 1.389 . S
C265 C264 1.371 . S
C266 H255 0.970 . S
C266 H256 0.970 . S
C266 C262 1.532 . S
C266 C267 1.499 . S
C267 C266 1.499 . S
C267 C268 1.370 . S
C267 C272 1.415 . S
C268 H257 0.930 . S
C268 C267 1.370 . S
C268 C269 1.407 . S
C269 C268 1.407 . S
C269 C270 1.365 . S
C270 H258 0.930 . S
C270 C269 1.365 . S
C270 C271 1.393 . S
C271 C270 1.393 . S
C271 C272 1.387 . S
C272 H259 0.930 . S
C272 C267 1.415 . S
C272 C271 1.387 . S
H273 C281 0.930 . S
H274 C284 0.930 . S
H275 C286 0.930 . S
H276 C287 0.970 . S
H277 C287 0.970 . S
H278 C289 0.930 . S
H279 C291 0.930 . S
H280 C293 0.930 . S
C281 H273 0.930 . S
C281 C282 1.382 . S
C281 C283 1.426 . S
C282 C281 1.382 . S
C282 C286 1.389 . S
C283 C281 1.426 . S
C283 C284 1.375 . S
C283 C287 1.532 . S
C284 H274 0.930 . S
C284 C283 1.375 . S
C284 C285 1.416 . S
C285 C284 1.416 . S
C285 C286 1.371 . S
C286 H275 0.930 . S
C286 C282 1.389 . S
C286 C285 1.371 . S
C287 H276 0.970 . S
C287 H277 0.970 . S
C287 C283 1.532 . S
C287 C288 1.499 . S
C288 C287 1.499 . S
C288 C289 1.370 . S
C288 C293 1.415 . S
C289 H278 0.930 . S
C289 C288 1.370 . S
C289 C290 1.407 . S
C290 C289 1.407 . S
C290 C291 1.365 . S
C291 H279 0.930 . S
C291 C290 1.365 . S
C291 C292 1.393 . S
C292 C291 1.393 . S
C292 C293 1.387 . S
C293 H280 0.930 . S
C293 C288 1.415 . S
C293 C292 1.387 . S
H294 C302 0.930 . S
H295 C305 0.930 . S
H296 C307 0.930 . S
H297 C308 0.970 . S
H298 C308 0.970 . S
H299 C310 0.930 . S
H300 C312 0.930 . S
H301 C314 0.930 . S
C302 H294 0.930 . S
C302 C303 1.382 . S
C302 C304 1.426 . S
C303 C302 1.382 . S
C303 C307 1.389 . S
C304 C302 1.426 . S
C304 C305 1.375 . S
C304 C308 1.532 . S
C305 H295 0.930 . S
C305 C304 1.375 . S
C305 C306 1.416 . S
C306 C305 1.416 . S
C306 C307 1.371 . S
C307 H296 0.930 . S
C307 C303 1.389 . S
C307 C306 1.371 . S
C308 H297 0.970 . S
C308 H298 0.970 . S
C308 C304 1.532 . S
C308 C309 1.499 . S
C309 C308 1.499 . S
C309 C310 1.370 . S
C309 C314 1.415 . S
C310 H299 0.930 . S
C310 C309 1.370 . S
C310 C311 1.407 . S
C311 C310 1.407 . S
C311 C312 1.365 . S
C312 H300 0.930 . S
C312 C311 1.365 . S
C312 C313 1.393 . S
C313 C312 1.393 . S
C313 C314 1.387 . S
C314 H301 0.930 . S
C314 C309 1.415 . S
C314 C313 1.387 . S
H315 C323 0.930 . S
H316 C326 0.930 . S
H317 C328 0.930 . S
H318 C329 0.970 . S
H319 C329 0.970 . S
H320 C331 0.930 . S
H321 C333 0.930 . S
H322 C335 0.930 . S
C323 H315 0.930 . S
C323 C324 1.382 . S
C323 C325 1.426 . S
C324 C323 1.382 . S
C324 C328 1.389 . S
C325 C323 1.426 . S
C325 C326 1.375 . S
C325 C329 1.532 . S
C326 H316 0.930 . S
C326 C325 1.375 . S
C326 C327 1.416 . S
C327 C326 1.416 . S
C327 C328 1.371 . S
C328 H317 0.930 . S
C328 C324 1.389 . S
C328 C327 1.371 . S
C329 H318 0.970 . S
C329 H319 0.970 . S
C329 C325 1.532 . S
C329 C330 1.499 . S
C330 C329 1.499 . S
C330 C331 1.370 . S
C330 C335 1.415 . S
C331 H320 0.930 . S
C331 C330 1.370 . S
C331 C332 1.407 . S
C332 C331 1.407 . S
C332 C333 1.365 . S
C333 H321 0.930 . S
C333 C332 1.365 . S
C333 C334 1.393 . S
C334 C333 1.393 . S
C334 C335 1.387 . S
C335 H322 0.930 . S
C335 C330 1.415 . S
C335 C334 1.387 . S
H336 C344 0.930 . S
H337 C347 0.930 . S
H338 C349 0.930 . S
H339 C350 0.970 . S
H340 C350 0.970 . S
H341 C352 0.930 . S
H342 C354 0.930 . S
H343 C356 0.930 . S
C344 H336 0.930 . S
C344 C345 1.382 . S
C344 C346 1.426 . S
C345 C344 1.382 . S
C345 C349 1.389 . S
C346 C344 1.426 . S
C346 C347 1.375 . S
C346 C350 1.532 . S
C347 H337 0.930 . S
C347 C346 1.375 . S
C347 C348 1.416 . S
C348 C347 1.416 . S
C348 C349 1.371 . S
C349 H338 0.930 . S
C349 C345 1.389 . S
C349 C348 1.371 . S
C350 H339 0.970 . S
C350 H340 0.970 . S
C350 C346 1.532 . S
C350 C351 1.499 . S
C351 C350 1.499 . S
C351 C352 1.370 . S
C351 C356 1.415 . S
C352 H341 0.930 . S
C352 C351 1.370 . S
C352 C353 1.407 . S
C353 C352 1.407 . S
C353 C354 1.365 . S
C354 H342 0.930 . S
C354 C353 1.365 . S
C354 C355 1.393 . S
C355 C354 1.393 . S
C355 C356 1.387 . S
C356 H343 0.930 . S
C356 C351 1.415 . S
C356 C355 1.387 . S
H357 C365 0.930 . S
H358 C368 0.930 . S
H359 C370 0.930 . S
H360 C371 0.970 . S
H361 C371 0.970 . S
H362 C373 0.930 . S
H363 C375 0.930 . S
H364 C377 0.930 . S
C365 H357 0.930 . S
C365 C366 1.382 . S
C365 C367 1.426 . S
C366 C365 1.382 . S
C366 C370 1.389 . S
C367 C365 1.426 . S
C367 C368 1.375 . S
C367 C371 1.532 . S
C368 H358 0.930 . S
C368 C367 1.375 . S
C368 C369 1.416 . S
C369 C368 1.416 . S
C369 C370 1.371 . S
C370 H359 0.930 . S
C370 C366 1.389 . S
C370 C369 1.371 . S
C371 H360 0.970 . S
C371 H361 0.970 . S
C371 C367 1.532 . S
C371 C372 1.499 . S
C372 C371 1.499 . S
C372 C373 1.370 . S
C372 C377 1.415 . S
C373 H362 0.930 . S
C373 C372 1.370 . S
C373 C374 1.407 . S
C374 C373 1.407 . S
C374 C375 1.365 . S
C375 H363 0.930 . S
C375 C374 1.365 . S
C375 C376 1.393 . S
C376 C375 1.393 . S
C376 C377 1.387 . S
C377 H364 0.930 . S
C377 C372 1.415 . S
C377 C376 1.387 . S
H378 C386 0.930 . S
H379 C389 0.930 . S
H380 C391 0.930 . S
H381 C392 0.970 . S
H382 C392 0.970 . S
H383 C394 0.930 . S
H384 C396 0.930 . S
H385 C398 0.930 . S
C386 H378 0.930 . S
C386 C387 1.382 . S
C386 C388 1.426 . S
C387 C386 1.382 . S
C387 C391 1.389 . S
C388 C386 1.426 . S
C388 C389 1.375 . S
C388 C392 1.532 . S
C389 H379 0.930 . S
C389 C388 1.375 . S
C389 C390 1.416 . S
C390 C389 1.416 . S
C390 C391 1.371 . S
C391 H380 0.930 . S
C391 C387 1.389 . S
C391 C390 1.371 . S
C392 H381 0.970 . S
C392 H382 0.970 . S
C392 C388 1.532 . S
C392 C393 1.499 . S
C393 C392 1.499 . S
C393 C394 1.370 . S
C393 C398 1.415 . S
C394 H383 0.930 . S
C394 C393 1.370 . S
C394 C395 1.407 . S
C395 C394 1.407 . S
C395 C396 1.365 . S
C396 H384 0.930 . S
C396 C395 1.365 . S
C396 C397 1.393 . S
C397 C396 1.393 . S
C397 C398 1.387 . S
C398 H385 0.930 . S
C398 C393 1.415 . S
C398 C397 1.387 . S
H399 C407 0.930 . S
H400 C410 0.930 . S
H401 C412 0.930 . S
H402 C413 0.970 . S
H403 C413 0.970 . S
H404 C415 0.930 . S
H405 C417 0.930 . S
H406 C419 0.930 . S
C407 H399 0.930 . S
C407 C408 1.382 . S
C407 C409 1.426 . S
C408 C407 1.382 . S
C408 C412 1.389 . S
C409 C407 1.426 . S
C409 C410 1.375 . S
C409 C413 1.532 . S
C410 H400 0.930 . S
C410 C409 1.375 . S
C410 C411 1.416 . S
C411 C410 1.416 . S
C411 C412 1.371 . S
C412 H401 0.930 . S
C412 C408 1.389 . S
C412 C411 1.371 . S
C413 H402 0.970 . S
C413 H403 0.970 . S
C413 C409 1.532 . S
C413 C414 1.499 . S
C414 C413 1.499 . S
C414 C415 1.370 . S
C414 C419 1.415 . S
C415 H404 0.930 . S
C415 C414 1.370 . S
C415 C416 1.407 . S
C416 C415 1.407 . S
C416 C417 1.365 . S
C417 H405 0.930 . S
C417 C416 1.365 . S
C417 C418 1.393 . S
C418 C417 1.393 . S
C418 C419 1.387 . S
C419 H406 0.930 . S
C419 C414 1.415 . S
C419 C418 1.387 . S
H420 C428 0.930 . S
H421 C431 0.930 . S
H422 C433 0.930 . S
H423 C434 0.970 . S
H424 C434 0.970 . S
H425 C436 0.930 . S
H426 C438 0.930 . S
H427 C440 0.930 . S
C428 H420 0.930 . S
C428 C429 1.382 . S
C428 C430 1.426 . S
C429 C428 1.382 . S
C429 C433 1.389 . S
C430 C428 1.426 . S
C430 C431 1.375 . S
C430 C434 1.532 . S
C431 H421 0.930 . S
C431 C430 1.375 . S
C431 C432 1.416 . S
C432 C431 1.416 . S
C432 C433 1.371 . S
C433 H422 0.930 . S
C433 C429 1.389 . S
C433 C432 1.371 . S
C434 H423 0.970 . S
C434 H424 0.970 . S
C434 C430 1.532 . S
C434 C435 1.499 . S
C435 C434 1.499 . S
C435 C436 1.370 . S
C435 C440 1.415 . S
C436 H425 0.930 . S
C436 C435 1.370 . S
C436 C437 1.407 . S
C437 C436 1.407 . S
C437 C438 1.365 . S
C438 H426 0.930 . S
C438 C437 1.365 . S
C438 C439 1.393 . S
C439 C438 1.393 . S
C439 C440 1.387 . S
C440 H427 0.930 . S
C440 C435 1.415 . S
C440 C439 1.387 . S
H441 C449 0.930 . S
H442 C452 0.930 . S
H443 C454 0.930 . S
H444 C455 0.970 . S
H445 C455 0.970 . S
H446 C457 0.930 . S
H447 C459 0.930 . S
H448 C461 0.930 . S
C449 H441 0.930 . S
C449 C450 1.382 . S
C449 C451 1.426 . S
C450 C449 1.382 . S
C450 C454 1.389 1_455 S
C451 C449 1.426 . S
C451 C452 1.375 . S
C451 C455 1.532 . S
C452 H442 0.930 . S
C452 C451 1.375 . S
C452 C453 1.416 . S
C453 C452 1.416 . S
C453 C454 1.371 1_455 S
C454 H443 0.930 . S
C454 C450 1.389 1_655 S
C454 C453 1.371 1_655 S
C455 H444 0.970 . S
C455 H445 0.970 . S
C455 C451 1.532 . S
C455 C456 1.499 . S
C456 C455 1.499 . S
C456 C457 1.370 . S
C456 C461 1.415 . S
C457 H446 0.930 . S
C457 C456 1.370 . S
C457 C458 1.410 . S
C458 C457 1.410 . S
C458 C459 1.370 1_455 S
C459 H447 0.930 . S
C459 C458 1.370 1_655 S
C459 C460 1.393 1_655 S
C460 C459 1.393 1_455 S
C460 C461 1.387 . S
C461 H448 0.930 . S
C461 C456 1.415 . S
C461 C460 1.387 . S
H462 C470 0.930 . S
H463 C473 0.930 . S
H464 C475 0.930 . S
H465 C476 0.970 . S
H466 C476 0.970 . S
H467 C478 0.930 . S
H468 C480 0.930 . S
H469 C482 0.930 . S
C470 H462 0.930 . S
C470 C471 1.382 . S
C470 C472 1.426 . S
C471 C470 1.382 . S
C471 C475 1.389 . S
C472 C470 1.426 . S
C472 C473 1.375 . S
C472 C476 1.532 . S
C473 H463 0.930 . S
C473 C472 1.375 . S
C473 C474 1.416 . S
C474 C473 1.416 . S
C474 C475 1.371 . S
C475 H464 0.930 . S
C475 C471 1.389 . S
C475 C474 1.371 . S
C476 H465 0.970 . S
C476 H466 0.970 . S
C476 C472 1.532 . S
C476 C477 1.499 . S
C477 C476 1.499 . S
C477 C478 1.370 . S
C477 C482 1.415 . S
C478 H467 0.930 . S
C478 C477 1.370 . S
C478 C479 1.407 . S
C479 C478 1.407 . S
C479 C480 1.365 . S
C480 H468 0.930 . S
C480 C479 1.365 . S
C480 C481 1.393 . S
C481 C480 1.393 . S
C481 C482 1.387 . S
C482 H469 0.930 . S
C482 C477 1.415 . S
C482 C481 1.387 . S
H483 C491 0.930 . S
H484 C494 0.930 . S
H485 C496 0.930 . S
H486 C497 0.970 . S
H487 C497 0.970 . S
H488 C499 0.930 . S
H489 C501 0.930 . S
H490 C503 0.930 . S
C491 H483 0.930 . S
C491 C492 1.382 . S
C491 C493 1.426 . S
C492 C491 1.382 . S
C492 C496 1.389 1_565 S
C493 C491 1.426 . S
C493 C494 1.375 . S
C493 C497 1.532 . S
C494 H484 0.930 . S
C494 C493 1.375 . S
C494 C495 1.416 . S
C495 C494 1.416 . S
C495 C496 1.371 1_565 S
C496 H485 0.930 . S
C496 C492 1.389 1_545 S
C496 C495 1.371 1_545 S
C497 H486 0.970 . S
C497 H487 0.970 . S
C497 C493 1.532 . S
C497 C498 1.499 . S
C498 C497 1.499 . S
C498 C499 1.370 . S
C498 C503 1.415 . S
C499 H488 0.930 . S
C499 C498 1.370 . S
C499 C500 1.429 . S
C500 C499 1.429 . S
C500 C501 1.356 1_565 S
C501 H489 0.930 . S
C501 C500 1.356 1_545 S
C501 C502 1.393 1_545 S
C502 C501 1.393 1_565 S
C502 C503 1.387 . S
C503 H490 0.930 . S
C503 C498 1.415 . S
C503 C502 1.387 . S
H504 C512 0.930 . S
H505 C515 0.930 . S
H506 C517 0.930 . S
H507 C518 0.970 . S
H508 C518 0.970 . S
H509 C520 0.930 . S
H510 C522 0.930 . S
H511 C524 0.930 . S
C512 H504 0.930 . S
C512 C513 1.382 . S
C512 C514 1.426 . S
C513 C512 1.382 . S
C513 C517 1.389 1_565 S
C514 C512 1.426 . S
C514 C515 1.375 . S
C514 C518 1.532 . S
C515 H505 0.930 . S
C515 C514 1.375 . S
C515 C516 1.416 . S
C516 C515 1.416 . S
C516 C517 1.371 1_565 S
C517 H506 0.930 . S
C517 C513 1.389 1_545 S
C517 C516 1.371 1_545 S
C518 H507 0.970 . S
C518 H508 0.970 . S
C518 C514 1.532 . S
C518 C519 1.499 . S
C519 C518 1.499 . S
C519 C520 1.370 . S
C519 C524 1.415 . S
C520 H509 0.930 . S
C520 C519 1.370 . S
C520 C521 1.407 . S
C521 C520 1.407 . S
C521 C522 1.365 1_565 S
C522 H510 0.930 . S
C522 C521 1.365 1_545 S
C522 C523 1.393 1_545 S
C523 C522 1.393 1_565 S
C523 C524 1.387 . S
C524 H511 0.930 . S
C524 C519 1.415 . S
C524 C523 1.387 . S
H525 C533 0.930 . S
H526 C536 0.930 . S
H527 C538 0.930 . S
H528 C539 0.970 . S
H529 C539 0.970 . S
H530 C541 0.930 . S
H531 C543 0.930 . S
H532 C545 0.930 . S
C533 H525 0.930 . S
C533 C534 1.382 . S
C533 C535 1.426 . S
C534 C533 1.382 . S
C534 C538 1.389 1_455 S
C535 C533 1.426 . S
C535 C536 1.375 . S
C535 C539 1.532 . S
C536 H526 0.930 . S
C536 C535 1.375 . S
C536 C537 1.416 . S
C537 C536 1.416 . S
C537 C538 1.371 1_455 S
C538 H527 0.930 . S
C538 C534 1.389 1_655 S
C538 C537 1.371 1_655 S
C539 H528 0.970 . S
C539 H529 0.970 . S
C539 C535 1.532 . S
C539 C540 1.499 . S
C540 C539 1.499 . S
C540 C541 1.370 . S
C540 C545 1.415 . S
C541 H530 0.930 . S
C541 C540 1.370 . S
C541 C542 1.407 . S
C542 C541 1.407 . S
C542 C543 1.365 1_455 S
C543 H531 0.930 . S
C543 C542 1.365 1_655 S
C543 C544 1.393 1_655 S
C544 C543 1.393 1_455 S
C544 C545 1.387 . S
C545 H532 0.930 . S
C545 C540 1.415 . S
C545 C544 1.387 . S
H546 C554 0.930 . S
H547 C557 0.930 . S
H548 C559 0.930 . S
H549 C560 0.970 . S
H550 C560 0.970 . S
H551 C562 0.930 . S
H552 C564 0.930 . S
H553 C566 0.930 . S
C554 H546 0.930 . S
C554 C555 1.382 . S
C554 C556 1.426 . S
C555 C554 1.382 . S
C555 C559 1.389 . S
C556 C554 1.426 . S
C556 C557 1.375 . S
C556 C560 1.532 . S
C557 H547 0.930 . S
C557 C556 1.375 . S
C557 C558 1.416 . S
C558 C557 1.416 . S
C558 C559 1.371 . S
C559 H548 0.930 . S
C559 C555 1.389 . S
C559 C558 1.371 . S
C560 H549 0.970 . S
C560 H550 0.970 . S
C560 C556 1.532 . S
C560 C561 1.499 . S
C561 C560 1.499 . S
C561 C562 1.370 . S
C561 C566 1.415 . S
C562 H551 0.930 . S
C562 C561 1.370 . S
C562 C563 1.407 . S
C563 C562 1.407 . S
C563 C564 1.365 . S
C564 H552 0.930 . S
C564 C563 1.365 . S
C564 C565 1.393 . S
C565 C564 1.393 . S
C565 C566 1.387 . S
C566 H553 0.930 . S
C566 C561 1.415 . S
C566 C565 1.387 . S
H567 C575 0.930 . S
H568 C578 0.930 . S
H569 C580 0.930 . S
H570 C581 0.970 . S
H571 C581 0.970 . S
H572 C583 0.930 . S
H573 C585 0.930 . S
H574 C587 0.930 . S
C575 H567 0.930 . S
C575 C576 1.382 . S
C575 C577 1.426 . S
C576 C575 1.382 . S
C576 C580 1.389 . S
C577 C575 1.426 . S
C577 C578 1.375 . S
C577 C581 1.532 . S
C578 H568 0.930 . S
C578 C577 1.375 . S
C578 C579 1.416 . S
C579 C578 1.416 . S
C579 C580 1.371 . S
C580 H569 0.930 . S
C580 C576 1.389 . S
C580 C579 1.371 . S
C581 H570 0.970 . S
C581 H571 0.970 . S
C581 C577 1.532 . S
C581 C582 1.499 . S
C582 C581 1.499 . S
C582 C583 1.370 . S
C582 C587 1.415 . S
C583 H572 0.930 . S
C583 C582 1.370 . S
C583 C584 1.407 . S
C584 C583 1.407 . S
C584 C585 1.365 . S
C585 H573 0.930 . S
C585 C584 1.365 . S
C585 C586 1.393 . S
C586 C585 1.393 . S
C586 C587 1.387 . S
C587 H574 0.930 . S
C587 C582 1.415 . S
C587 C586 1.387 . S
H588 C596 0.930 . S
H589 C599 0.930 . S
H590 C601 0.930 . S
H591 C602 0.970 . S
H592 C602 0.970 . S
H593 C604 0.930 . S
H594 C606 0.930 . S
H595 C608 0.930 . S
C596 H588 0.930 . S
C596 C597 1.382 . S
C596 C598 1.426 . S
C597 C596 1.382 . S
C597 C601 1.389 . S
C598 C596 1.426 . S
C598 C599 1.375 . S
C598 C602 1.532 . S
C599 H589 0.930 . S
C599 C598 1.375 . S
C599 C600 1.416 . S
C600 C599 1.416 . S
C600 C601 1.371 . S
C601 H590 0.930 . S
C601 C597 1.389 . S
C601 C600 1.371 . S
C602 H591 0.970 . S
C602 H592 0.970 . S
C602 C598 1.532 . S
C602 C603 1.499 . S
C603 C602 1.499 . S
C603 C604 1.370 . S
C603 C608 1.415 . S
C604 H593 0.930 . S
C604 C603 1.370 . S
C604 C605 1.407 . S
C605 C604 1.407 . S
C605 C606 1.365 . S
C606 H594 0.930 . S
C606 C605 1.365 . S
C606 C607 1.393 . S
C607 C606 1.393 . S
C607 C608 1.387 . S
C608 H595 0.930 . S
C608 C603 1.415 . S
C608 C607 1.387 . S
H609 C617 0.930 . S
H610 C620 0.930 . S
H611 C622 0.930 . S
H612 C623 0.970 . S
H613 C623 0.970 . S
H614 C625 0.930 . S
H615 C627 0.930 . S
H616 C629 0.930 . S
C617 H609 0.930 . S
C617 C618 1.382 . S
C617 C619 1.426 . S
C618 C617 1.382 . S
C618 C622 1.389 . S
C619 C617 1.426 . S
C619 C620 1.375 . S
C619 C623 1.532 . S
C620 H610 0.930 . S
C620 C619 1.375 . S
C620 C621 1.416 . S
C621 C620 1.416 . S
C621 C622 1.371 . S
C622 H611 0.930 . S
C622 C618 1.389 . S
C622 C621 1.371 . S
C623 H612 0.970 . S
C623 H613 0.970 . S
C623 C619 1.532 . S
C623 C624 1.499 . S
C624 C623 1.499 . S
C624 C625 1.370 . S
C624 C629 1.415 . S
C625 H614 0.930 . S
C625 C624 1.370 . S
C625 C626 1.407 . S
C626 C625 1.407 . S
C626 C627 1.365 . S
C627 H615 0.930 . S
C627 C626 1.365 . S
C627 C628 1.393 . S
C628 C627 1.393 . S
C628 C629 1.387 . S
C629 H616 0.930 . S
C629 C624 1.415 . S
C629 C628 1.387 . S
C630 C631 1.391 1_455 S
C630 C632 1.394 . S
C630 H646 0.931 . S
C631 C630 1.391 1_655 S
C631 C635 1.376 . S
C632 C630 1.394 . S
C632 C633 1.369 1_455 S
C632 C636 1.531 . S
C633 C632 1.369 1_655 S
C633 C634 1.410 . S
C633 C641 1.503 . S
C634 C633 1.410 . S
C634 C635 1.392 . S
C634 C637 1.511 . S
C635 C631 1.376 . S
C635 C634 1.392 . S
C635 H647 0.929 . S
C636 C632 1.531 . S
C636 H648 0.960 . S
C636 H649 0.962 . S
C636 H650 0.960 . S
C637 C634 1.511 . S
C637 H651 0.961 . S
C637 H652 0.961 . S
C637 H653 0.961 . S
C638 C639 1.370 1_455 S
C638 C640 1.363 . S
C638 H654 0.931 . S
C639 C638 1.370 1_655 S
C639 C643 1.408 . S
C640 C638 1.363 . S
C640 C641 1.370 1_455 S
C640 C644 1.524 . S
C641 C633 1.503 . S
C641 C640 1.370 1_655 S
C641 C642 1.403 . S
C642 C641 1.403 . S
C642 C643 1.404 . S
C642 C645 1.539 . S
C643 C639 1.408 . S
C643 C642 1.404 . S
C643 H655 0.930 . S
C644 C640 1.524 . S
C644 H656 0.956 . S
C644 H657 0.947 1_455 S
C644 H658 0.961 . S
C645 C642 1.539 . S
C645 H659 0.958 . S
C645 H660 0.961 . S
C645 H661 0.960 . S
H646 C630 0.931 . S
H647 C635 0.929 . S
H648 C636 0.960 . S
H649 C636 0.962 . S
H650 C636 0.960 . S
H651 C637 0.961 . S
H652 C637 0.961 . S
H653 C637 0.961 . S
H654 C638 0.931 . S
H655 C643 0.930 . S
H656 C644 0.956 . S
H657 C644 0.947 1_655 S
H658 C644 0.961 . S
H659 C645 0.958 . S
H660 C645 0.961 . S
H661 C645 0.960 . S
C662 C663 1.391 . S
C662 C664 1.394 . S
C662 H678 0.931 . S
C663 C662 1.391 . S
C663 C667 1.376 . S
C664 C662 1.394 . S
C664 C665 1.369 . S
C664 C668 1.531 . S
C665 C664 1.369 . S
C665 C666 1.410 . S
C665 C673 1.503 . S
C666 C665 1.410 . S
C666 C667 1.392 . S
C666 C669 1.511 . S
C667 C663 1.376 . S
C667 C666 1.392 . S
C667 H679 0.929 . S
C668 C664 1.531 . S
C668 H680 0.960 . S
C668 H681 0.962 . S
C668 H682 0.960 . S
C669 C666 1.511 . S
C669 H683 0.961 . S
C669 H684 0.961 . S
C669 H685 0.961 . S
C670 C671 1.370 . S
C670 C672 1.363 . S
C670 H686 0.931 . S
C671 C670 1.370 . S
C671 C675 1.408 . S
C672 C670 1.363 . S
C672 C673 1.370 . S
C672 C676 1.524 . S
C673 C665 1.503 . S
C673 C672 1.370 . S
C673 C674 1.403 . S
C674 C673 1.403 . S
C674 C675 1.404 . S
C674 C677 1.539 . S
C675 C671 1.408 . S
C675 C674 1.404 . S
C675 H687 0.930 . S
C676 C672 1.524 . S
C676 H688 0.956 . S
C676 H689 0.961 . S
C676 H690 0.961 . S
C677 C674 1.539 . S
C677 H691 0.958 . S
C677 H692 0.961 . S
C677 H693 0.960 . S
H678 C662 0.931 . S
H679 C667 0.929 . S
H680 C668 0.960 . S
H681 C668 0.962 . S
H682 C668 0.960 . S
H683 C669 0.961 . S
H684 C669 0.961 . S
H685 C669 0.961 . S
H686 C670 0.931 . S
H687 C675 0.930 . S
H688 C676 0.956 . S
H689 C676 0.961 . S
H690 C676 0.961 . S
H691 C677 0.958 . S
H692 C677 0.961 . S
H693 C677 0.960 . S
C694 C695 1.391 . S
C694 C696 1.394 . S
C694 H710 0.931 . S
C695 C694 1.391 . S
C695 C699 1.358 1_545 S
C696 C694 1.394 . S
C696 C697 1.369 . S
C696 C700 1.531 . S
C697 C696 1.369 . S
C697 C698 1.410 . S
C697 C705 1.503 . S
C698 C697 1.410 . S
C698 C699 1.416 1_545 S
C698 C701 1.513 1_545 S
C699 C695 1.358 1_565 S
C699 C698 1.416 1_565 S
C699 H711 0.927 . S
C700 C696 1.531 . S
C700 H712 0.960 . S
C700 H713 0.962 . S
C700 H714 0.960 . S
C701 C698 1.513 1_565 S
C701 H715 0.961 . S
C701 H716 0.961 . S
C701 H717 0.961 1_565 S
C702 C703 1.370 1_565 S
C702 C704 1.363 . S
C702 H718 0.931 . S
C703 C702 1.370 1_545 S
C703 C707 1.408 . S
C704 C702 1.363 . S
C704 C705 1.370 1_565 S
C704 C708 1.524 . S
C705 C697 1.503 . S
C705 C704 1.370 1_545 S
C705 C706 1.403 . S
C706 C705 1.403 . S
C706 C707 1.404 . S
C706 C709 1.539 . S
C707 C703 1.408 . S
C707 C706 1.404 . S
C707 H719 0.930 . S
C708 C704 1.524 . S
C708 H720 0.956 . S
C708 H721 0.961 . S
C708 H722 0.961 . S
C709 C706 1.539 . S
C709 H723 0.958 . S
C709 H724 0.961 . S
C709 H725 0.960 . S
H710 C694 0.931 . S
H711 C699 0.927 . S
H712 C700 0.960 . S
H713 C700 0.962 . S
H714 C700 0.960 . S
H715 C701 0.961 . S
H716 C701 0.961 . S
H717 C701 0.961 1_545 S
H718 C702 0.931 . S
H719 C707 0.930 . S
H720 C708 0.956 . S
H721 C708 0.961 . S
H722 C708 0.961 . S
H723 C709 0.958 . S
H724 C709 0.961 . S
H725 C709 0.960 . S
C726 C727 1.380 1_565 S
C726 C728 1.394 . S
C726 H742 0.931 . S
C727 C726 1.380 1_545 S
C727 C731 1.381 . S
C728 C726 1.394 . S
C728 C729 1.366 1_565 S
C728 C732 1.531 . S
C729 C728 1.366 1_545 S
C729 C730 1.416 . S
C729 C737 1.477 1_545 S
C730 C729 1.416 . S
C730 C731 1.392 . S
C730 C733 1.511 . S
C731 C727 1.381 . S
C731 C730 1.392 . S
C731 H743 0.929 . S
C732 C728 1.531 . S
C732 H744 0.960 . S
C732 H745 0.962 . S
C732 H746 0.960 . S
C733 C730 1.511 . S
C733 H747 0.961 . S
C733 H748 0.961 . S
C733 H749 0.961 . S
C734 C735 1.370 . S
C734 C736 1.363 . S
C734 H750 0.931 . S
C735 C734 1.370 . S
C735 C739 1.408 1_565 S
C736 C734 1.363 . S
C736 C737 1.413 . S
C736 C740 1.524 . S
C737 C729 1.477 1_565 S
C737 C736 1.413 . S
C737 C738 1.386 1_565 S
C738 C737 1.386 1_545 S
C738 C739 1.404 . S
C738 C741 1.539 . S
C739 C735 1.408 1_545 S
C739 C738 1.404 . S
C739 H751 0.930 . S
C740 C736 1.524 . S
C740 H752 0.956 . S
C740 H753 0.961 . S
C740 H754 0.961 . S
C741 C738 1.539 . S
C741 H755 0.958 . S
C741 H756 0.961 . S
C741 H757 0.960 . S
H742 C726 0.931 . S
H743 C731 0.929 . S
H744 C732 0.960 . S
H745 C732 0.962 . S
H746 C732 0.960 . S
H747 C733 0.961 . S
H748 C733 0.961 . S
H749 C733 0.961 . S
H750 C734 0.931 . S
H751 C739 0.930 . S
H752 C740 0.956 . S
H753 C740 0.961 . S
H754 C740 0.961 . S
H755 C741 0.958 . S
H756 C741 0.961 . S
H757 C741 0.960 . S
C758 C759 1.391 1_655 S
C758 C760 1.394 . S
C758 H774 0.931 . S
C759 C758 1.391 1_455 S
C759 C763 1.376 . S
C760 C758 1.394 . S
C760 C761 1.369 1_655 S
C760 C764 1.531 . S
C761 C760 1.369 1_455 S
C761 C762 1.410 . S
C761 C769 1.503 . S
C762 C761 1.410 . S
C762 C763 1.392 . S
C762 C765 1.511 . S
C763 C759 1.376 . S
C763 C762 1.392 . S
C763 H775 0.929 . S
C764 C760 1.531 . S
C764 H776 0.960 . S
C764 H777 0.962 . S
C764 H778 0.960 . S
C765 C762 1.511 . S
C765 H779 0.961 . S
C765 H780 0.961 . S
C765 H781 0.961 . S
C766 C767 1.370 1_655 S
C766 C768 1.363 . S
C766 H782 0.931 . S
C767 C766 1.370 1_455 S
C767 C771 1.408 . S
C768 C766 1.363 . S
C768 C769 1.370 1_655 S
C768 C772 1.524 . S
C769 C761 1.503 . S
C769 C768 1.370 1_455 S
C769 C770 1.403 . S
C770 C769 1.403 . S
C770 C771 1.404 . S
C770 C773 1.539 . S
C771 C767 1.408 . S
C771 C770 1.404 . S
C771 H783 0.930 . S
C772 C768 1.524 . S
C772 H784 0.956 . S
C772 H785 0.961 . S
C772 H786 0.961 . S
C773 C770 1.539 . S
C773 H787 0.958 . S
C773 H788 0.961 . S
C773 H789 0.960 . S
H774 C758 0.931 . S
H775 C763 0.929 . S
H776 C764 0.960 . S
H777 C764 0.962 . S
H778 C764 0.960 . S
H779 C765 0.961 . S
H780 C765 0.961 . S
H781 C765 0.961 . S
H782 C766 0.931 . S
H783 C771 0.930 . S
H784 C772 0.956 . S
H785 C772 0.961 . S
H786 C772 0.961 . S
H787 C773 0.958 . S
H788 C773 0.961 . S
H789 C773 0.960 . S
C790 C791 1.391 . S
C790 C792 1.394 . S
C790 H806 0.931 . S
C791 C790 1.391 . S
C791 C795 1.376 . S
C792 C790 1.394 . S
C792 C793 1.369 . S
C792 C796 1.531 . S
C793 C792 1.369 . S
C793 C794 1.410 . S
C793 C801 1.503 . S
C794 C793 1.410 . S
C794 C795 1.392 . S
C794 C797 1.511 . S
C795 C791 1.376 . S
C795 C794 1.392 . S
C795 H807 0.929 . S
C796 C792 1.531 . S
C796 H808 0.960 . S
C796 H809 0.962 . S
C796 H810 0.960 . S
C797 C794 1.511 . S
C797 H811 0.961 . S
C797 H812 0.961 . S
C797 H813 0.961 . S
C798 C799 1.370 . S
C798 C800 1.363 . S
C798 H814 0.931 . S
C799 C798 1.370 . S
C799 C803 1.408 . S
C800 C798 1.363 . S
C800 C801 1.370 . S
C800 C804 1.524 . S
C801 C793 1.503 . S
C801 C800 1.370 . S
C801 C802 1.403 . S
C802 C801 1.403 . S
C802 C803 1.404 . S
C802 C805 1.539 . S
C803 C799 1.408 . S
C803 C802 1.404 . S
C803 H815 0.930 . S
C804 C800 1.524 . S
C804 H816 0.956 . S
C804 H817 0.961 . S
C804 H818 0.961 . S
C805 C802 1.539 . S
C805 H819 0.958 . S
C805 H820 0.961 . S
C805 H821 0.960 . S
H806 C790 0.931 . S
H807 C795 0.929 . S
H808 C796 0.960 . S
H809 C796 0.962 . S
H810 C796 0.960 . S
H811 C797 0.961 . S
H812 C797 0.961 . S
H813 C797 0.961 . S
H814 C798 0.931 . S
H815 C803 0.930 . S
H816 C804 0.956 . S
H817 C804 0.961 . S
H818 C804 0.961 . S
H819 C805 0.958 . S
H820 C805 0.961 . S
H821 C805 0.960 . S
C822 C823 1.391 1_655 S
C822 C824 1.394 . S
C822 H838 0.931 . S
C823 C822 1.391 1_455 S
C823 C827 1.376 . S
C824 C822 1.394 . S
C824 C825 1.335 1_655 S
C824 C828 1.531 . S
C825 C824 1.335 1_455 S
C825 C826 1.430 . S
C825 C833 1.505 . S
C826 C825 1.430 . S
C826 C827 1.392 . S
C826 C829 1.511 . S
C827 C823 1.376 . S
C827 C826 1.392 . S
C827 H839 0.929 . S
C828 C824 1.531 . S
C828 H840 0.960 . S
C828 H841 0.962 . S
C828 H842 0.960 . S
C829 C826 1.511 . S
C829 H843 0.961 . S
C829 H844 0.961 . S
C829 H845 0.961 . S
C830 C831 1.378 . S
C830 C832 1.363 . S
C830 H846 0.931 . S
C831 C830 1.378 . S
C831 C835 1.385 1_455 S
C832 C830 1.363 . S
C832 C833 1.396 . S
C832 C836 1.524 . S
C833 C825 1.505 . S
C833 C832 1.396 . S
C833 C834 1.393 1_455 S
C834 C833 1.393 1_655 S
C834 C835 1.404 . S
C834 C837 1.539 . S
C835 C831 1.385 1_655 S
C835 C834 1.404 . S
C835 H847 0.930 . S
C836 C832 1.524 . S
C836 H848 0.956 1_455 S
C836 H849 0.961 . S
C836 H850 0.961 . S
C837 C834 1.539 . S
C837 H851 0.958 . S
C837 H852 0.961 . S
C837 H853 0.960 . S
H838 C822 0.931 . S
H839 C827 0.929 . S
H840 C828 0.960 . S
H841 C828 0.962 . S
H842 C828 0.960 . S
H843 C829 0.961 . S
H844 C829 0.961 . S
H845 C829 0.961 . S
H846 C830 0.931 . S
H847 C835 0.930 . S
H848 C836 0.956 1_655 S
H849 C836 0.961 . S
H850 C836 0.961 . S
H851 C837 0.958 . S
H852 C837 0.961 . S
H853 C837 0.960 . S
C854 C855 1.391 . S
C854 C856 1.394 . S
C854 H870 0.931 . S
C855 C854 1.391 . S
C855 C859 1.376 . S
C856 C854 1.394 . S
C856 C857 1.369 . S
C856 C860 1.531 . S
C857 C856 1.369 . S
C857 C858 1.410 . S
C857 C865 1.503 . S
C858 C857 1.410 . S
C858 C859 1.392 . S
C858 C861 1.511 . S
C859 C855 1.376 . S
C859 C858 1.392 . S
C859 H871 0.929 . S
C860 C856 1.531 . S
C860 H872 0.960 . S
C860 H873 0.962 . S
C860 H874 0.960 . S
C861 C858 1.511 . S
C861 H875 0.961 . S
C861 H876 0.961 . S
C861 H877 0.961 . S
C862 C863 1.370 . S
C862 C864 1.363 . S
C862 H878 0.931 . S
C863 C862 1.370 . S
C863 C867 1.408 . S
C864 C862 1.363 . S
C864 C865 1.370 . S
C864 C868 1.524 . S
C865 C857 1.503 . S
C865 C864 1.370 . S
C865 C866 1.403 . S
C866 C865 1.403 . S
C866 C867 1.404 . S
C866 C869 1.539 . S
C867 C863 1.408 . S
C867 C866 1.404 . S
C867 H879 0.930 . S
C868 C864 1.524 . S
C868 H880 0.956 . S
C868 H881 0.961 . S
C868 H882 0.961 . S
C869 C866 1.539 . S
C869 H883 0.958 . S
C869 H884 0.961 . S
C869 H885 0.960 . S
H870 C854 0.931 . S
H871 C859 0.929 . S
H872 C860 0.960 . S
H873 C860 0.962 . S
H874 C860 0.960 . S
H875 C861 0.961 . S
H876 C861 0.961 . S
H877 C861 0.961 . S
H878 C862 0.931 . S
H879 C867 0.930 . S
H880 C868 0.956 . S
H881 C868 0.961 . S
H882 C868 0.961 . S
H883 C869 0.958 . S
H884 C869 0.961 . S
H885 C869 0.960 . S
C886 C887 1.405 . S
C886 C888 1.394 . S
C886 H902 0.931 . S
C887 C886 1.405 . S
C887 C891 1.376 . S
C888 C886 1.394 . S
C888 C889 1.369 . S
C888 C892 1.531 . S
C889 C888 1.369 . S
C889 C890 1.410 . S
C889 C897 1.503 . S
C890 C889 1.410 . S
C890 C891 1.392 . S
C890 C893 1.511 . S
C891 C887 1.376 . S
C891 C890 1.392 . S
C891 H903 0.960 . S
C892 C888 1.531 . S
C892 H904 0.960 . S
C892 H905 0.962 1_545 S
C892 H906 0.960 . S
C893 C890 1.511 . S
C893 H907 0.961 1_545 S
C893 H908 0.961 1_545 S
C893 H909 0.961 . S
C894 C895 1.366 1_565 S
C894 C896 1.363 . S
C894 H910 0.931 . S
C895 C894 1.366 1_545 S
C895 C899 1.411 . S
C896 C894 1.363 . S
C896 C897 1.370 1_565 S
C896 C900 1.524 . S
C897 C889 1.503 . S
C897 C896 1.370 1_545 S
C897 C898 1.403 . S
C898 C897 1.403 . S
C898 C899 1.404 . S
C898 C901 1.539 . S
C899 C895 1.411 . S
C899 C898 1.404 . S
C899 H911 0.930 . S
C900 C896 1.524 . S
C900 H912 0.956 . S
C900 H913 0.961 . S
C900 H914 0.961 . S
C901 C898 1.539 . S
C901 H915 0.958 . S
C901 H916 0.961 . S
C901 H917 0.960 . S
H902 C886 0.931 . S
H903 C891 0.960 . S
H904 C892 0.960 . S
H905 C892 0.962 1_565 S
H906 C892 0.960 . S
H907 C893 0.961 1_565 S
H908 C893 0.961 1_565 S
H909 C893 0.961 . S
H910 C894 0.931 . S
H911 C899 0.930 . S
H912 C900 0.956 . S
H913 C900 0.961 . S
H914 C900 0.961 . S
H915 C901 0.958 . S
H916 C901 0.961 . S
H917 C901 0.960 . S
C918 C919 1.391 . S
C918 C920 1.394 . S
C918 H934 0.931 . S
C919 C918 1.391 . S
C919 C923 1.376 1_545 S
C920 C918 1.394 . S
C920 C921 1.359 1_545 S
C920 C924 1.531 . S
C921 C920 1.359 1_565 S
C921 C922 1.426 . S
C921 C929 1.501 . S
C922 C921 1.426 . S
C922 C923 1.392 . S
C922 C925 1.511 . S
C923 C919 1.376 1_565 S
C923 C922 1.392 . S
C923 H935 0.929 . S
C924 C920 1.531 . S
C924 H936 0.960 . S
C924 H937 0.962 . S
C924 H938 0.960 . S
C925 C922 1.511 . S
C925 H939 0.961 . S
C925 H940 0.961 . S
C925 H941 0.961 . S
C926 C927 1.370 . S
C926 C928 1.363 . S
C926 H942 0.931 . S
C927 C926 1.370 . S
C927 C931 1.408 1_545 S
C928 C926 1.363 . S
C928 C929 1.367 1_545 S
C928 C932 1.524 . S
C929 C921 1.501 . S
C929 C928 1.367 1_565 S
C929 C930 1.402 . S
C930 C929 1.402 . S
C930 C931 1.404 . S
C930 C933 1.539 . S
C931 C927 1.408 1_565 S
C931 C930 1.404 . S
C931 H943 0.930 . S
C932 C928 1.524 . S
C932 H944 0.956 . S
C932 H945 0.961 . S
C932 H946 0.961 . S
C933 C930 1.539 . S
C933 H947 0.958 . S
C933 H948 0.961 . S
C933 H949 0.960 . S
H934 C918 0.931 . S
H935 C923 0.929 . S
H936 C924 0.960 . S
H937 C924 0.962 . S
H938 C924 0.960 . S
H939 C925 0.961 . S
H940 C925 0.961 . S
H941 C925 0.961 . S
H942 C926 0.931 . S
H943 C931 0.930 . S
H944 C932 0.956 . S
H945 C932 0.961 . S
H946 C932 0.961 . S
H947 C933 0.958 . S
H948 C933 0.961 . S
H949 C933 0.960 . S
C950 C951 1.391 . S
C950 C952 1.394 . S
C950 H966 0.931 . S
C951 C950 1.391 . S
C951 C955 1.376 1_655 S
C952 C950 1.394 . S
C952 C953 1.369 . S
C952 C956 1.531 . S
C953 C952 1.369 . S
C953 C954 1.410 1_655 S
C953 C961 1.503 . S
C954 C953 1.410 1_455 S
C954 C955 1.392 . S
C954 C957 1.511 . S
C955 C951 1.376 1_455 S
C955 C954 1.392 . S
C955 H967 0.929 . S
C956 C952 1.531 . S
C956 H968 0.960 . S
C956 H969 0.962 . S
C956 H970 0.960 . S
C957 C954 1.511 . S
C957 H971 0.961 . S
C957 H972 0.961 . S
C957 H973 0.961 . S
C958 C959 1.389 1_455 S
C958 C960 1.363 . S
C958 H974 0.931 . S
C959 C958 1.389 1_655 S
C959 C963 1.416 . S
C960 C958 1.363 . S
C960 C961 1.370 1_455 S
C960 C964 1.524 . S
C961 C953 1.503 . S
C961 C960 1.370 1_655 S
C961 C962 1.403 . S
C962 C961 1.403 . S
C962 C963 1.404 . S
C962 C965 1.539 . S
C963 C959 1.416 . S
C963 C962 1.404 . S
C963 H975 0.930 . S
C964 C960 1.524 . S
C964 H976 0.956 1_455 S
C964 H977 0.961 . S
C964 H978 0.961 . S
C965 C962 1.539 . S
C965 H979 0.958 . S
C965 H980 0.961 . S
C965 H981 0.960 . S
H966 C950 0.931 . S
H967 C955 0.929 . S
H968 C956 0.960 . S
H969 C956 0.962 . S
H970 C956 0.960 . S
H971 C957 0.961 . S
H972 C957 0.961 . S
H973 C957 0.961 . S
H974 C958 0.931 . S
H975 C963 0.930 . S
H976 C964 0.956 1_655 S
H977 C964 0.961 . S
H978 C964 0.961 . S
H979 C965 0.958 . S
H980 C965 0.961 . S
H981 C965 0.960 . S
C982 C983 1.391 . S
C982 C984 1.394 . S
C982 H998 0.931 . S
C983 C982 1.391 . S
C983 C987 1.376 . S
C984 C982 1.394 . S
C984 C985 1.369 . S
C984 C988 1.531 . S
C985 C984 1.369 . S
C985 C986 1.410 . S
C985 C993 1.503 . S
C986 C985 1.410 . S
C986 C987 1.392 . S
C986 C989 1.511 . S
C987 C983 1.376 . S
C987 C986 1.392 . S
C987 H999 0.929 . S
C988 C984 1.531 . S
C988 H1000 0.960 . S
C988 H1001 0.962 . S
C988 H1002 0.960 . S
C989 C986 1.511 . S
C989 H1003 0.961 . S
C989 H1004 0.961 . S
C989 H1005 0.961 . S
C990 C991 1.370 . S
C990 C992 1.363 . S
C990 H1006 0.931 . S
C991 C990 1.370 . S
C991 C995 1.408 . S
C992 C990 1.363 . S
C992 C993 1.370 . S
C992 C996 1.524 . S
C993 C985 1.503 . S
C993 C992 1.370 . S
C993 C994 1.403 . S
C994 C993 1.403 . S
C994 C995 1.404 . S
C994 C997 1.539 . S
C995 C991 1.408 . S
C995 C994 1.404 . S
C995 H1007 0.930 . S
C996 C992 1.524 . S
C996 H1008 0.956 . S
C996 H1009 0.961 . S
C996 H1010 0.961 . S
C997 C994 1.539 . S
C997 H1011 0.958 . S
C997 H1012 0.961 . S
C997 H1013 0.960 . S
H998 C982 0.931 . S
H999 C987 0.929 . S
H1000 C988 0.960 . S
H1001 C988 0.962 . S
H1002 C988 0.960 . S
H1003 C989 0.961 . S
H1004 C989 0.961 . S
H1005 C989 0.961 . S
H1006 C990 0.931 . S
H1007 C995 0.930 . S
H1008 C996 0.956 . S
H1009 C996 0.961 . S
H1010 C996 0.961 . S
H1011 C997 0.958 . S
H1012 C997 0.961 . S
H1013 C997 0.960 . S
C1014 C1015 1.391 . S
C1014 C1016 1.394 . S
C1014 H1030 0.931 . S
C1015 C1014 1.391 . S
C1015 C1019 1.376 . S
C1016 C1014 1.394 . S
C1016 C1017 1.369 . S
C1016 C1020 1.531 . S
C1017 C1016 1.369 . S
C1017 C1018 1.410 . S
C1017 C1025 1.503 . S
C1018 C1017 1.410 . S
C1018 C1019 1.392 . S
C1018 C1021 1.511 . S
C1019 C1015 1.376 . S
C1019 C1018 1.392 . S
C1019 H1031 0.929 . S
C1020 C1016 1.531 . S
C1020 H1032 0.960 . S
C1020 H1033 0.962 . S
C1020 H1034 0.960 . S
C1021 C1018 1.511 . S
C1021 H1035 0.961 . S
C1021 H1036 0.961 . S
C1021 H1037 0.961 . S
C1022 C1023 1.370 . S
C1022 C1024 1.363 . S
C1022 H1038 0.931 . S
C1023 C1022 1.370 . S
C1023 C1027 1.408 . S
C1024 C1022 1.363 . S
C1024 C1025 1.370 . S
C1024 C1028 1.524 . S
C1025 C1017 1.503 . S
C1025 C1024 1.370 . S
C1025 C1026 1.403 . S
C1026 C1025 1.403 . S
C1026 C1027 1.404 . S
C1026 C1029 1.539 . S
C1027 C1023 1.408 . S
C1027 C1026 1.404 . S
C1027 H1039 0.930 . S
C1028 C1024 1.524 . S
C1028 H1040 0.956 . S
C1028 H1041 0.961 . S
C1028 H1042 0.961 . S
C1029 C1026 1.539 . S
C1029 H1043 0.958 . S
C1029 H1044 0.961 . S
C1029 H1045 0.960 . S
H1030 C1014 0.931 . S
H1031 C1019 0.929 . S
H1032 C1020 0.960 . S
H1033 C1020 0.962 . S
H1034 C1020 0.960 . S
H1035 C1021 0.961 . S
H1036 C1021 0.961 . S
H1037 C1021 0.961 . S
H1038 C1022 0.931 . S
H1039 C1027 0.930 . S
H1040 C1028 0.956 . S
H1041 C1028 0.961 . S
H1042 C1028 0.961 . S
H1043 C1029 0.958 . S
H1044 C1029 0.961 . S
H1045 C1029 0.960 . S
C1046 C1047 1.391 . S
C1046 C1048 1.394 . S
C1046 H1062 0.931 . S
C1047 C1046 1.391 . S
C1047 C1051 1.376 . S
C1048 C1046 1.394 . S
C1048 C1049 1.369 . S
C1048 C1052 1.531 . S
C1049 C1048 1.369 . S
C1049 C1050 1.410 . S
C1049 C1057 1.503 . S
C1050 C1049 1.410 . S
C1050 C1051 1.392 . S
C1050 C1053 1.511 . S
C1051 C1047 1.376 . S
C1051 C1050 1.392 . S
C1051 H1063 0.929 . S
C1052 C1048 1.531 . S
C1052 H1064 0.960 . S
C1052 H1065 0.962 . S
C1052 H1066 0.960 . S
C1053 C1050 1.511 . S
C1053 H1067 0.961 . S
C1053 H1068 0.961 . S
C1053 H1069 0.961 . S
C1054 C1055 1.370 . S
C1054 C1056 1.363 . S
C1054 H1070 0.931 . S
C1055 C1054 1.370 . S
C1055 C1059 1.408 . S
C1056 C1054 1.363 . S
C1056 C1057 1.370 . S
C1056 C1060 1.524 . S
C1057 C1049 1.503 . S
C1057 C1056 1.370 . S
C1057 C1058 1.403 . S
C1058 C1057 1.403 . S
C1058 C1059 1.404 . S
C1058 C1061 1.539 . S
C1059 C1055 1.408 . S
C1059 C1058 1.404 . S
C1059 H1071 0.930 . S
C1060 C1056 1.524 . S
C1060 H1072 0.956 . S
C1060 H1073 0.961 . S
C1060 H1074 0.961 . S
C1061 C1058 1.539 . S
C1061 H1075 0.958 . S
C1061 H1076 0.961 . S
C1061 H1077 0.960 . S
H1062 C1046 0.931 . S
H1063 C1051 0.929 . S
H1064 C1052 0.960 . S
H1065 C1052 0.962 . S
H1066 C1052 0.960 . S
H1067 C1053 0.961 . S
H1068 C1053 0.961 . S
H1069 C1053 0.961 . S
H1070 C1054 0.931 . S
H1071 C1059 0.930 . S
H1072 C1060 0.956 . S
H1073 C1060 0.961 . S
H1074 C1060 0.961 . S
H1075 C1061 0.958 . S
H1076 C1061 0.961 . S
H1077 C1061 0.960 . S
C1078 C1079 1.391 . S
C1078 C1080 1.394 . S
C1078 H1094 0.931 . S
C1079 C1078 1.391 . S
C1079 C1083 1.376 . S
C1080 C1078 1.394 . S
C1080 C1081 1.369 . S
C1080 C1084 1.531 . S
C1081 C1080 1.369 . S
C1081 C1082 1.410 . S
C1081 C1089 1.503 . S
C1082 C1081 1.410 . S
C1082 C1083 1.392 . S
C1082 C1085 1.511 . S
C1083 C1079 1.376 . S
C1083 C1082 1.392 . S
C1083 H1095 0.929 . S
C1084 C1080 1.531 . S
C1084 H1096 0.960 . S
C1084 H1097 0.962 . S
C1084 H1098 0.960 . S
C1085 C1082 1.511 . S
C1085 H1099 0.961 . S
C1085 H1100 0.961 . S
C1085 H1101 0.961 . S
C1086 C1087 1.370 . S
C1086 C1088 1.363 . S
C1086 H1102 0.931 . S
C1087 C1086 1.370 . S
C1087 C1091 1.408 . S
C1088 C1086 1.363 . S
C1088 C1089 1.370 . S
C1088 C1092 1.524 . S
C1089 C1081 1.503 . S
C1089 C1088 1.370 . S
C1089 C1090 1.403 . S
C1090 C1089 1.403 . S
C1090 C1091 1.404 . S
C1090 C1093 1.539 . S
C1091 C1087 1.408 . S
C1091 C1090 1.404 . S
C1091 H1103 0.930 . S
C1092 C1088 1.524 . S
C1092 H1104 0.956 . S
C1092 H1105 0.961 . S
C1092 H1106 0.961 . S
C1093 C1090 1.539 . S
C1093 H1107 0.958 . S
C1093 H1108 0.961 . S
C1093 H1109 0.960 . S
H1094 C1078 0.931 . S
H1095 C1083 0.929 . S
H1096 C1084 0.960 . S
H1097 C1084 0.962 . S
H1098 C1084 0.960 . S
H1099 C1085 0.961 . S
H1100 C1085 0.961 . S
H1101 C1085 0.961 . S
H1102 C1086 0.931 . S
H1103 C1091 0.930 . S
H1104 C1092 0.956 . S
H1105 C1092 0.961 . S
H1106 C1092 0.961 . S
H1107 C1093 0.958 . S
H1108 C1093 0.961 . S
H1109 C1093 0.960 . S
C1110 C1111 1.391 . S
C1110 C1112 1.394 . S
C1110 H1126 0.931 . S
C1111 C1110 1.391 . S
C1111 C1115 1.376 . S
C1112 C1110 1.394 . S
C1112 C1113 1.369 . S
C1112 C1116 1.531 . S
C1113 C1112 1.369 . S
C1113 C1114 1.410 . S
C1113 C1121 1.503 . S
C1114 C1113 1.410 . S
C1114 C1115 1.392 . S
C1114 C1117 1.511 . S
C1115 C1111 1.376 . S
C1115 C1114 1.392 . S
C1115 H1127 0.929 . S
C1116 C1112 1.531 . S
C1116 H1128 0.960 . S
C1116 H1129 0.962 . S
C1116 H1130 0.960 . S
C1117 C1114 1.511 . S
C1117 H1131 0.961 . S
C1117 H1132 0.961 . S
C1117 H1133 0.961 . S
C1118 C1119 1.370 . S
C1118 C1120 1.363 . S
C1118 H1134 0.931 . S
C1119 C1118 1.370 . S
C1119 C1123 1.408 . S
C1120 C1118 1.363 . S
C1120 C1121 1.370 . S
C1120 C1124 1.524 . S
C1121 C1113 1.503 . S
C1121 C1120 1.370 . S
C1121 C1122 1.403 . S
C1122 C1121 1.403 . S
C1122 C1123 1.404 . S
C1122 C1125 1.539 . S
C1123 C1119 1.408 . S
C1123 C1122 1.404 . S
C1123 H1135 0.930 . S
C1124 C1120 1.524 . S
C1124 H1136 0.956 . S
C1124 H1137 0.961 . S
C1124 H1138 0.961 . S
C1125 C1122 1.539 . S
C1125 H1139 0.958 . S
C1125 H1140 0.961 . S
C1125 H1141 0.960 . S
H1126 C1110 0.931 . S
H1127 C1115 0.929 . S
H1128 C1116 0.960 . S
H1129 C1116 0.962 . S
H1130 C1116 0.960 . S
H1131 C1117 0.961 . S
H1132 C1117 0.961 . S
H1133 C1117 0.961 . S
H1134 C1118 0.931 . S
H1135 C1123 0.930 . S
H1136 C1124 0.956 . S
H1137 C1124 0.961 . S
H1138 C1124 0.961 . S
H1139 C1125 0.958 . S
H1140 C1125 0.961 . S
H1141 C1125 0.960 . S
C1142 C1143 1.391 . S
C1142 C1144 1.394 . S
C1142 H1158 0.931 . S
C1143 C1142 1.391 . S
C1143 C1147 1.376 . S
C1144 C1142 1.394 . S
C1144 C1145 1.369 . S
C1144 C1148 1.531 . S
C1145 C1144 1.369 . S
C1145 C1146 1.410 . S
C1145 C1153 1.503 . S
C1146 C1145 1.410 . S
C1146 C1147 1.392 . S
C1146 C1149 1.511 . S
C1147 C1143 1.376 . S
C1147 C1146 1.392 . S
C1147 H1159 0.929 . S
C1148 C1144 1.531 . S
C1148 H1160 0.960 . S
C1148 H1161 0.962 . S
C1148 H1162 0.960 . S
C1149 C1146 1.511 . S
C1149 H1163 0.961 . S
C1149 H1164 0.961 . S
C1149 H1165 0.961 . S
C1150 C1151 1.370 . S
C1150 C1152 1.363 . S
C1150 H1166 0.931 . S
C1151 C1150 1.370 . S
C1151 C1155 1.408 . S
C1152 C1150 1.363 . S
C1152 C1153 1.370 . S
C1152 C1156 1.524 . S
C1153 C1145 1.503 . S
C1153 C1152 1.370 . S
C1153 C1154 1.403 . S
C1154 C1153 1.403 . S
C1154 C1155 1.404 . S
C1154 C1157 1.539 . S
C1155 C1151 1.408 . S
C1155 C1154 1.404 . S
C1155 H1167 0.930 . S
C1156 C1152 1.524 . S
C1156 H1168 0.956 . S
C1156 H1169 0.961 . S
C1156 H1170 0.961 . S
C1157 C1154 1.539 . S
C1157 H1171 0.958 . S
C1157 H1172 0.961 . S
C1157 H1173 0.960 . S
H1158 C1142 0.931 . S
H1159 C1147 0.929 . S
H1160 C1148 0.960 . S
H1161 C1148 0.962 . S
H1162 C1148 0.960 . S
H1163 C1149 0.961 . S
H1164 C1149 0.961 . S
H1165 C1149 0.961 . S
H1166 C1150 0.931 . S
H1167 C1155 0.930 . S
H1168 C1156 0.956 . S
H1169 C1156 0.961 . S
H1170 C1156 0.961 . S
H1171 C1157 0.958 . S
H1172 C1157 0.961 . S
H1173 C1157 0.960 . S
C1174 C1175 1.391 . S
C1174 C1176 1.394 . S
C1174 H1190 0.931 . S
C1175 C1174 1.391 . S
C1175 C1179 1.376 . S
C1176 C1174 1.394 . S
C1176 C1177 1.369 . S
C1176 C1180 1.531 . S
C1177 C1176 1.369 . S
C1177 C1178 1.410 . S
C1177 C1185 1.503 . S
C1178 C1177 1.410 . S
C1178 C1179 1.392 . S
C1178 C1181 1.511 . S
C1179 C1175 1.376 . S
C1179 C1178 1.392 . S
C1179 H1191 0.929 . S
C1180 C1176 1.531 . S
C1180 H1192 0.960 . S
C1180 H1193 0.962 . S
C1180 H1194 0.960 . S
C1181 C1178 1.511 . S
C1181 H1195 0.961 . S
C1181 H1196 0.961 . S
C1181 H1197 0.961 . S
C1182 C1183 1.370 . S
C1182 C1184 1.363 . S
C1182 H1198 0.931 . S
C1183 C1182 1.370 . S
C1183 C1187 1.408 . S
C1184 C1182 1.363 . S
C1184 C1185 1.370 . S
C1184 C1188 1.524 . S
C1185 C1177 1.503 . S
C1185 C1184 1.370 . S
C1185 C1186 1.403 . S
C1186 C1185 1.403 . S
C1186 C1187 1.404 . S
C1186 C1189 1.539 . S
C1187 C1183 1.408 . S
C1187 C1186 1.404 . S
C1187 H1199 0.930 . S
C1188 C1184 1.524 . S
C1188 H1200 0.956 . S
C1188 H1201 0.961 . S
C1188 H1202 0.961 . S
C1189 C1186 1.539 . S
C1189 H1203 0.958 . S
C1189 H1204 0.961 . S
C1189 H1205 0.960 . S
H1190 C1174 0.931 . S
H1191 C1179 0.929 . S
H1192 C1180 0.960 . S
H1193 C1180 0.962 . S
H1194 C1180 0.960 . S
H1195 C1181 0.961 . S
H1196 C1181 0.961 . S
H1197 C1181 0.961 . S
H1198 C1182 0.931 . S
H1199 C1187 0.930 . S
H1200 C1188 0.956 . S
H1201 C1188 0.961 . S
H1202 C1188 0.961 . S
H1203 C1189 0.958 . S
H1204 C1189 0.961 . S
H1205 C1189 0.960 . S
C1206 C1207 1.391 . S
C1206 C1208 1.394 . S
C1206 H1222 0.931 . S
C1207 C1206 1.391 . S
C1207 C1211 1.376 . S
C1208 C1206 1.394 . S
C1208 C1209 1.369 . S
C1208 C1212 1.531 . S
C1209 C1208 1.369 . S
C1209 C1210 1.410 . S
C1209 C1217 1.503 . S
C1210 C1209 1.410 . S
C1210 C1211 1.392 . S
C1210 C1213 1.511 . S
C1211 C1207 1.376 . S
C1211 C1210 1.392 . S
C1211 H1223 0.929 . S
C1212 C1208 1.531 . S
C1212 H1224 0.960 . S
C1212 H1225 0.962 . S
C1212 H1226 0.960 . S
C1213 C1210 1.511 . S
C1213 H1227 0.961 . S
C1213 H1228 0.961 . S
C1213 H1229 0.961 . S
C1214 C1215 1.370 . S
C1214 C1216 1.363 . S
C1214 H1230 0.931 . S
C1215 C1214 1.370 . S
C1215 C1219 1.408 . S
C1216 C1214 1.363 . S
C1216 C1217 1.370 . S
C1216 C1220 1.524 . S
C1217 C1209 1.503 . S
C1217 C1216 1.370 . S
C1217 C1218 1.403 . S
C1218 C1217 1.403 . S
C1218 C1219 1.404 . S
C1218 C1221 1.539 . S
C1219 C1215 1.408 . S
C1219 C1218 1.404 . S
C1219 H1231 0.930 . S
C1220 C1216 1.524 . S
C1220 H1232 0.956 . S
C1220 H1233 0.961 . S
C1220 H1234 0.961 . S
C1221 C1218 1.539 . S
C1221 H1235 0.958 . S
C1221 H1236 0.961 . S
C1221 H1237 0.960 . S
H1222 C1206 0.931 . S
H1223 C1211 0.929 . S
H1224 C1212 0.960 . S
H1225 C1212 0.962 . S
H1226 C1212 0.960 . S
H1227 C1213 0.961 . S
H1228 C1213 0.961 . S
H1229 C1213 0.961 . S
H1230 C1214 0.931 . S
H1231 C1219 0.930 . S
H1232 C1220 0.956 . S
H1233 C1220 0.961 . S
H1234 C1220 0.961 . S
H1235 C1221 0.958 . S
H1236 C1221 0.961 . S
H1237 C1221 0.960 . S
C1238 C1239 1.391 . S
C1238 C1240 1.394 . S
C1238 H1254 0.931 . S
C1239 C1238 1.391 . S
C1239 C1243 1.376 . S
C1240 C1238 1.394 . S
C1240 C1241 1.369 . S
C1240 C1244 1.531 . S
C1241 C1240 1.369 . S
C1241 C1242 1.410 . S
C1241 C1249 1.503 . S
C1242 C1241 1.410 . S
C1242 C1243 1.392 . S
C1242 C1245 1.511 . S
C1243 C1239 1.376 . S
C1243 C1242 1.392 . S
C1243 H1255 0.929 . S
C1244 C1240 1.531 . S
C1244 H1256 0.960 . S
C1244 H1257 0.962 . S
C1244 H1258 0.960 . S
C1245 C1242 1.511 . S
C1245 H1259 0.961 . S
C1245 H1260 0.961 . S
C1245 H1261 0.961 . S
C1246 C1247 1.370 . S
C1246 C1248 1.363 . S
C1246 H1262 0.931 . S
C1247 C1246 1.370 . S
C1247 C1251 1.408 . S
C1248 C1246 1.363 . S
C1248 C1249 1.370 . S
C1248 C1252 1.524 . S
C1249 C1241 1.503 . S
C1249 C1248 1.370 . S
C1249 C1250 1.403 . S
C1250 C1249 1.403 . S
C1250 C1251 1.404 . S
C1250 C1253 1.539 . S
C1251 C1247 1.408 . S
C1251 C1250 1.404 . S
C1251 H1263 0.930 . S
C1252 C1248 1.524 . S
C1252 H1264 0.956 . S
C1252 H1265 0.961 . S
C1252 H1266 0.961 . S
C1253 C1250 1.539 . S
C1253 H1267 0.958 . S
C1253 H1268 0.961 . S
C1253 H1269 0.960 . S
H1254 C1238 0.931 . S
H1255 C1243 0.929 . S
H1256 C1244 0.960 . S
H1257 C1244 0.962 . S
H1258 C1244 0.960 . S
H1259 C1245 0.961 . S
H1260 C1245 0.961 . S
H1261 C1245 0.961 . S
H1262 C1246 0.931 . S
H1263 C1251 0.930 . S
H1264 C1252 0.956 . S
H1265 C1252 0.961 . S
H1266 C1252 0.961 . S
H1267 C1253 0.958 . S
H1268 C1253 0.961 . S
H1269 C1253 0.960 . S
C1270 C1271 1.391 . S
C1270 C1272 1.394 . S
C1270 H1286 0.931 . S
C1271 C1270 1.391 . S
C1271 C1275 1.376 . S
C1272 C1270 1.394 . S
C1272 C1273 1.369 . S
C1272 C1276 1.531 . S
C1273 C1272 1.369 . S
C1273 C1274 1.410 . S
C1273 C1281 1.503 . S
C1274 C1273 1.410 . S
C1274 C1275 1.392 . S
C1274 C1277 1.511 . S
C1275 C1271 1.376 . S
C1275 C1274 1.392 . S
C1275 H1287 0.929 . S
C1276 C1272 1.531 . S
C1276 H1288 0.960 . S
C1276 H1289 0.962 . S
C1276 H1290 0.960 . S
C1277 C1274 1.511 . S
C1277 H1291 0.961 . S
C1277 H1292 0.961 . S
C1277 H1293 0.961 . S
C1278 C1279 1.370 . S
C1278 C1280 1.363 . S
C1278 H1294 0.931 . S
C1279 C1278 1.370 . S
C1279 C1283 1.408 . S
C1280 C1278 1.363 . S
C1280 C1281 1.370 . S
C1280 C1284 1.524 . S
C1281 C1273 1.503 . S
C1281 C1280 1.370 . S
C1281 C1282 1.403 . S
C1282 C1281 1.403 . S
C1282 C1283 1.404 . S
C1282 C1285 1.539 . S
C1283 C1279 1.408 . S
C1283 C1282 1.404 . S
C1283 H1295 0.930 . S
C1284 C1280 1.524 . S
C1284 H1296 0.956 . S
C1284 H1297 0.961 . S
C1284 H1298 0.961 . S
C1285 C1282 1.539 . S
C1285 H1299 0.958 . S
C1285 H1300 0.961 . S
C1285 H1301 0.960 . S
H1286 C1270 0.931 . S
H1287 C1275 0.929 . S
H1288 C1276 0.960 . S
H1289 C1276 0.962 . S
H1290 C1276 0.960 . S
H1291 C1277 0.961 . S
H1292 C1277 0.961 . S
H1293 C1277 0.961 . S
H1294 C1278 0.931 . S
H1295 C1283 0.930 . S
H1296 C1284 0.956 . S
H1297 C1284 0.961 . S
H1298 C1284 0.961 . S
H1299 C1285 0.958 . S
H1300 C1285 0.961 . S
H1301 C1285 0.960 . S
C1302 C1303 1.391 . S
C1302 C1304 1.394 . S
C1302 H1318 0.931 . S
C1303 C1302 1.391 . S
C1303 C1307 1.376 . S
C1304 C1302 1.394 . S
C1304 C1305 1.369 . S
C1304 C1308 1.531 . S
C1305 C1304 1.369 . S
C1305 C1306 1.410 . S
C1305 C1313 1.503 . S
C1306 C1305 1.410 . S
C1306 C1307 1.392 . S
C1306 C1309 1.511 . S
C1307 C1303 1.376 . S
C1307 C1306 1.392 . S
C1307 H1319 0.929 . S
C1308 C1304 1.531 . S
C1308 H1320 0.960 . S
C1308 H1321 0.962 . S
C1308 H1322 0.960 . S
C1309 C1306 1.511 . S
C1309 H1323 0.961 . S
C1309 H1324 0.961 . S
C1309 H1325 0.961 . S
C1310 C1311 1.370 . S
C1310 C1312 1.363 . S
C1310 H1326 0.931 . S
C1311 C1310 1.370 . S
C1311 C1315 1.408 . S
C1312 C1310 1.363 . S
C1312 C1313 1.370 . S
C1312 C1316 1.524 . S
C1313 C1305 1.503 . S
C1313 C1312 1.370 . S
C1313 C1314 1.403 . S
C1314 C1313 1.403 . S
C1314 C1315 1.404 . S
C1314 C1317 1.539 . S
C1315 C1311 1.408 . S
C1315 C1314 1.404 . S
C1315 H1327 0.930 . S
C1316 C1312 1.524 . S
C1316 H1328 0.956 . S
C1316 H1329 0.961 . S
C1316 H1330 0.961 . S
C1317 C1314 1.539 . S
C1317 H1331 0.958 . S
C1317 H1332 0.961 . S
C1317 H1333 0.960 . S
H1318 C1302 0.931 . S
H1319 C1307 0.929 . S
H1320 C1308 0.960 . S
H1321 C1308 0.962 . S
H1322 C1308 0.960 . S
H1323 C1309 0.961 . S
H1324 C1309 0.961 . S
H1325 C1309 0.961 . S
H1326 C1310 0.931 . S
H1327 C1315 0.930 . S
H1328 C1316 0.956 . S
H1329 C1316 0.961 . S
H1330 C1316 0.961 . S
H1331 C1317 0.958 . S
H1332 C1317 0.961 . S
H1333 C1317 0.960 . S
C1334 C1335 1.391 . S
C1334 C1336 1.394 . S
C1334 H1350 0.931 . S
C1335 C1334 1.391 . S
C1335 C1339 1.376 . S
C1336 C1334 1.394 . S
C1336 C1337 1.369 . S
C1336 C1340 1.531 . S
C1337 C1336 1.369 . S
C1337 C1338 1.410 . S
C1337 C1345 1.503 . S
C1338 C1337 1.410 . S
C1338 C1339 1.392 . S
C1338 C1341 1.511 . S
C1339 C1335 1.376 . S
C1339 C1338 1.392 . S
C1339 H1351 0.929 . S
C1340 C1336 1.531 . S
C1340 H1352 0.960 . S
C1340 H1353 0.962 . S
C1340 H1354 0.960 . S
C1341 C1338 1.511 . S
C1341 H1355 0.961 . S
C1341 H1356 0.961 . S
C1341 H1357 0.961 . S
C1342 C1343 1.370 . S
C1342 C1344 1.363 . S
C1342 H1358 0.931 . S
C1343 C1342 1.370 . S
C1343 C1347 1.408 . S
C1344 C1342 1.363 . S
C1344 C1345 1.370 . S
C1344 C1348 1.524 . S
C1345 C1337 1.503 . S
C1345 C1344 1.370 . S
C1345 C1346 1.403 . S
C1346 C1345 1.403 . S
C1346 C1347 1.404 . S
C1346 C1349 1.539 . S
C1347 C1343 1.408 . S
C1347 C1346 1.404 . S
C1347 H1359 0.930 . S
C1348 C1344 1.524 . S
C1348 H1360 0.956 . S
C1348 H1361 0.961 . S
C1348 H1362 0.961 . S
C1349 C1346 1.539 . S
C1349 H1363 0.958 . S
C1349 H1364 0.961 . S
C1349 H1365 0.960 . S
H1350 C1334 0.931 . S
H1351 C1339 0.929 . S
H1352 C1340 0.960 . S
H1353 C1340 0.962 . S
H1354 C1340 0.960 . S
H1355 C1341 0.961 . S
H1356 C1341 0.961 . S
H1357 C1341 0.961 . S
H1358 C1342 0.931 . S
H1359 C1347 0.930 . S
H1360 C1348 0.956 . S
H1361 C1348 0.961 . S
H1362 C1348 0.961 . S
H1363 C1349 0.958 . S
H1364 C1349 0.961 . S
H1365 C1349 0.960 . S
C1366 C1367 1.391 . S
C1366 C1368 1.394 . S
C1366 H1382 0.931 . S
C1367 C1366 1.391 . S
C1367 C1371 1.376 . S
C1368 C1366 1.394 . S
C1368 C1369 1.369 . S
C1368 C1372 1.531 . S
C1369 C1368 1.369 . S
C1369 C1370 1.410 . S
C1369 C1377 1.503 . S
C1370 C1369 1.410 . S
C1370 C1371 1.392 . S
C1370 C1373 1.511 . S
C1371 C1367 1.376 . S
C1371 C1370 1.392 . S
C1371 H1383 0.929 . S
C1372 C1368 1.531 . S
C1372 H1384 0.960 . S
C1372 H1385 0.962 . S
C1372 H1386 0.960 . S
C1373 C1370 1.511 . S
C1373 H1387 0.961 . S
C1373 H1388 0.961 . S
C1373 H1389 0.961 . S
C1374 C1375 1.370 . S
C1374 C1376 1.363 . S
C1374 H1390 0.931 . S
C1375 C1374 1.370 . S
C1375 C1379 1.408 . S
C1376 C1374 1.363 . S
C1376 C1377 1.370 . S
C1376 C1380 1.524 . S
C1377 C1369 1.503 . S
C1377 C1376 1.370 . S
C1377 C1378 1.403 . S
C1378 C1377 1.403 . S
C1378 C1379 1.404 . S
C1378 C1381 1.539 . S
C1379 C1375 1.408 . S
C1379 C1378 1.404 . S
C1379 H1391 0.930 . S
C1380 C1376 1.524 . S
C1380 H1392 0.956 . S
C1380 H1393 0.961 . S
C1380 H1394 0.961 . S
C1381 C1378 1.539 . S
C1381 H1395 0.958 . S
C1381 H1396 0.961 . S
C1381 H1397 0.960 . S
H1382 C1366 0.931 . S
H1383 C1371 0.929 . S
H1384 C1372 0.960 . S
H1385 C1372 0.962 . S
H1386 C1372 0.960 . S
H1387 C1373 0.961 . S
H1388 C1373 0.961 . S
H1389 C1373 0.961 . S
H1390 C1374 0.931 . S
H1391 C1379 0.930 . S
H1392 C1380 0.956 . S
H1393 C1380 0.961 . S
H1394 C1380 0.961 . S
H1395 C1381 0.958 . S
H1396 C1381 0.961 . S
H1397 C1381 0.960 . S
C1398 C1399 1.391 . S
C1398 C1400 1.394 . S
C1398 H1414 0.931 . S
C1399 C1398 1.391 . S
C1399 C1403 1.376 . S
C1400 C1398 1.394 . S
C1400 C1401 1.369 . S
C1400 C1404 1.531 . S
C1401 C1400 1.369 . S
C1401 C1402 1.410 . S
C1401 C1409 1.503 . S
C1402 C1401 1.410 . S
C1402 C1403 1.392 . S
C1402 C1405 1.511 . S
C1403 C1399 1.376 . S
C1403 C1402 1.392 . S
C1403 H1415 0.929 . S
C1404 C1400 1.531 . S
C1404 H1416 0.960 . S
C1404 H1417 0.962 . S
C1404 H1418 0.960 . S
C1405 C1402 1.511 . S
C1405 H1419 0.961 . S
C1405 H1420 0.961 . S
C1405 H1421 0.961 . S
C1406 C1407 1.370 . S
C1406 C1408 1.363 . S
C1406 H1422 0.931 . S
C1407 C1406 1.370 . S
C1407 C1411 1.408 . S
C1408 C1406 1.363 . S
C1408 C1409 1.370 . S
C1408 C1412 1.524 . S
C1409 C1401 1.503 . S
C1409 C1408 1.370 . S
C1409 C1410 1.403 . S
C1410 C1409 1.403 . S
C1410 C1411 1.404 . S
C1410 C1413 1.539 . S
C1411 C1407 1.408 . S
C1411 C1410 1.404 . S
C1411 H1423 0.930 . S
C1412 C1408 1.524 . S
C1412 H1424 0.956 . S
C1412 H1425 0.961 . S
C1412 H1426 0.961 . S
C1413 C1410 1.539 . S
C1413 H1427 0.958 . S
C1413 H1428 0.961 . S
C1413 H1429 0.960 . S
H1414 C1398 0.931 . S
H1415 C1403 0.929 . S
H1416 C1404 0.960 . S
H1417 C1404 0.962 . S
H1418 C1404 0.960 . S
H1419 C1405 0.961 . S
H1420 C1405 0.961 . S
H1421 C1405 0.961 . S
H1422 C1406 0.931 . S
H1423 C1411 0.930 . S
H1424 C1412 0.956 . S
H1425 C1412 0.961 . S
H1426 C1412 0.961 . S
H1427 C1413 0.958 . S
H1428 C1413 0.961 . S
H1429 C1413 0.960 . S
C1430 C1431 1.391 . S
C1430 C1432 1.394 . S
C1430 H1446 0.931 . S
C1431 C1430 1.391 . S
C1431 C1435 1.376 . S
C1432 C1430 1.394 . S
C1432 C1433 1.369 . S
C1432 C1436 1.531 . S
C1433 C1432 1.369 . S
C1433 C1434 1.410 . S
C1433 C1441 1.503 . S
C1434 C1433 1.410 . S
C1434 C1435 1.392 . S
C1434 C1437 1.511 . S
C1435 C1431 1.376 . S
C1435 C1434 1.392 . S
C1435 H1447 0.929 . S
C1436 C1432 1.531 . S
C1436 H1448 0.960 . S
C1436 H1449 0.962 . S
C1436 H1450 0.960 . S
C1437 C1434 1.511 . S
C1437 H1451 0.961 . S
C1437 H1452 0.961 . S
C1437 H1453 0.961 . S
C1438 C1439 1.370 . S
C1438 C1440 1.363 . S
C1438 H1454 0.931 . S
C1439 C1438 1.370 . S
C1439 C1443 1.408 . S
C1440 C1438 1.363 . S
C1440 C1441 1.370 . S
C1440 C1444 1.524 . S
C1441 C1433 1.503 . S
C1441 C1440 1.370 . S
C1441 C1442 1.403 . S
C1442 C1441 1.403 . S
C1442 C1443 1.404 . S
C1442 C1445 1.539 . S
C1443 C1439 1.408 . S
C1443 C1442 1.404 . S
C1443 H1455 0.930 . S
C1444 C1440 1.524 . S
C1444 H1456 0.956 . S
C1444 H1457 0.961 . S
C1444 H1458 0.961 . S
C1445 C1442 1.539 . S
C1445 H1459 0.958 . S
C1445 H1460 0.961 . S
C1445 H1461 0.960 . S
H1446 C1430 0.931 . S
H1447 C1435 0.929 . S
H1448 C1436 0.960 . S
H1449 C1436 0.962 . S
H1450 C1436 0.960 . S
H1451 C1437 0.961 . S
H1452 C1437 0.961 . S
H1453 C1437 0.961 . S
H1454 C1438 0.931 . S
H1455 C1443 0.930 . S
H1456 C1444 0.956 . S
H1457 C1444 0.961 . S
H1458 C1444 0.961 . S
H1459 C1445 0.958 . S
H1460 C1445 0.961 . S
H1461 C1445 0.960 . S
C1462 C1463 1.391 . S
C1462 C1464 1.394 . S
C1462 H1478 0.931 . S
C1463 C1462 1.391 . S
C1463 C1467 1.376 . S
C1464 C1462 1.394 . S
C1464 C1465 1.369 . S
C1464 C1468 1.531 . S
C1465 C1464 1.369 . S
C1465 C1466 1.410 . S
C1465 C1473 1.503 . S
C1466 C1465 1.410 . S
C1466 C1467 1.392 . S
C1466 C1469 1.511 . S
C1467 C1463 1.376 . S
C1467 C1466 1.392 . S
C1467 H1479 0.929 . S
C1468 C1464 1.531 . S
C1468 H1480 0.960 . S
C1468 H1481 0.962 . S
C1468 H1482 0.960 . S
C1469 C1466 1.511 . S
C1469 H1483 0.961 . S
C1469 H1484 0.961 . S
C1469 H1485 0.961 . S
C1470 C1471 1.370 . S
C1470 C1472 1.363 . S
C1470 H1486 0.931 . S
C1471 C1470 1.370 . S
C1471 C1475 1.408 . S
C1472 C1470 1.363 . S
C1472 C1473 1.370 . S
C1472 C1476 1.524 . S
C1473 C1465 1.503 . S
C1473 C1472 1.370 . S
C1473 C1474 1.403 . S
C1474 C1473 1.403 . S
C1474 C1475 1.404 . S
C1474 C1477 1.539 . S
C1475 C1471 1.408 . S
C1475 C1474 1.404 . S
C1475 H1487 0.930 . S
C1476 C1472 1.524 . S
C1476 H1488 0.956 . S
C1476 H1489 0.961 . S
C1476 H1490 0.961 . S
C1477 C1474 1.539 . S
C1477 H1491 0.958 . S
C1477 H1492 0.961 . S
C1477 H1493 0.960 . S
H1478 C1462 0.931 . S
H1479 C1467 0.929 . S
H1480 C1468 0.960 . S
H1481 C1468 0.962 . S
H1482 C1468 0.960 . S
H1483 C1469 0.961 . S
H1484 C1469 0.961 . S
H1485 C1469 0.961 . S
H1486 C1470 0.931 . S
H1487 C1475 0.930 . S
H1488 C1476 0.956 . S
H1489 C1476 0.961 . S
H1490 C1476 0.961 . S
H1491 C1477 0.958 . S
H1492 C1477 0.961 . S
H1493 C1477 0.960 . S
C1494 C1495 1.391 . S
C1494 C1496 1.394 . S
C1494 H1510 0.931 . S
C1495 C1494 1.391 . S
C1495 C1499 1.376 . S
C1496 C1494 1.394 . S
C1496 C1497 1.369 . S
C1496 C1500 1.531 . S
C1497 C1496 1.369 . S
C1497 C1498 1.410 . S
C1497 C1505 1.503 . S
C1498 C1497 1.410 . S
C1498 C1499 1.392 . S
C1498 C1501 1.511 . S
C1499 C1495 1.376 . S
C1499 C1498 1.392 . S
C1499 H1511 0.929 . S
C1500 C1496 1.531 . S
C1500 H1512 0.960 . S
C1500 H1513 0.962 . S
C1500 H1514 0.960 . S
C1501 C1498 1.511 . S
C1501 H1515 0.961 . S
C1501 H1516 0.961 . S
C1501 H1517 0.961 . S
C1502 C1503 1.370 . S
C1502 C1504 1.363 . S
C1502 H1518 0.931 . S
C1503 C1502 1.370 . S
C1503 C1507 1.408 . S
C1504 C1502 1.363 . S
C1504 C1505 1.370 . S
C1504 C1508 1.524 . S
C1505 C1497 1.503 . S
C1505 C1504 1.370 . S
C1505 C1506 1.403 . S
C1506 C1505 1.403 . S
C1506 C1507 1.404 . S
C1506 C1509 1.539 . S
C1507 C1503 1.408 . S
C1507 C1506 1.404 . S
C1507 H1519 0.930 . S
C1508 C1504 1.524 . S
C1508 H1520 0.956 . S
C1508 H1521 0.961 . S
C1508 H1522 0.961 . S
C1509 C1506 1.539 . S
C1509 H1523 0.958 . S
C1509 H1524 0.961 . S
C1509 H1525 0.960 . S
H1510 C1494 0.931 . S
H1511 C1499 0.929 . S
H1512 C1500 0.960 . S
H1513 C1500 0.962 . S
H1514 C1500 0.960 . S
H1515 C1501 0.961 . S
H1516 C1501 0.961 . S
H1517 C1501 0.961 . S
H1518 C1502 0.931 . S
H1519 C1507 0.930 . S
H1520 C1508 0.956 . S
H1521 C1508 0.961 . S
H1522 C1508 0.961 . S
H1523 C1509 0.958 . S
H1524 C1509 0.961 . S
H1525 C1509 0.960 . S
C1526 C1527 1.391 . S
C1526 C1528 1.394 . S
C1526 H1542 0.931 . S
C1527 C1526 1.391 . S
C1527 C1531 1.376 . S
C1528 C1526 1.394 . S
C1528 C1529 1.369 . S
C1528 C1532 1.531 . S
C1529 C1528 1.369 . S
C1529 C1530 1.410 . S
C1529 C1537 1.503 . S
C1530 C1529 1.410 . S
C1530 C1531 1.392 . S
C1530 C1533 1.511 . S
C1531 C1527 1.376 . S
C1531 C1530 1.392 . S
C1531 H1543 0.929 . S
C1532 C1528 1.531 . S
C1532 H1544 0.960 . S
C1532 H1545 0.962 . S
C1532 H1546 0.960 . S
C1533 C1530 1.511 . S
C1533 H1547 0.961 . S
C1533 H1548 0.961 . S
C1533 H1549 0.961 . S
C1534 C1535 1.370 . S
C1534 C1536 1.363 . S
C1534 H1550 0.931 . S
C1535 C1534 1.370 . S
C1535 C1539 1.408 . S
C1536 C1534 1.363 . S
C1536 C1537 1.370 . S
C1536 C1540 1.524 . S
C1537 C1529 1.503 . S
C1537 C1536 1.370 . S
C1537 C1538 1.403 . S
C1538 C1537 1.403 . S
C1538 C1539 1.404 . S
C1538 C1541 1.539 . S
C1539 C1535 1.408 . S
C1539 C1538 1.404 . S
C1539 H1551 0.930 . S
C1540 C1536 1.524 . S
C1540 H1552 0.956 . S
C1540 H1553 0.961 . S
C1540 H1554 0.961 . S
C1541 C1538 1.539 . S
C1541 H1555 0.958 . S
C1541 H1556 0.961 . S
C1541 H1557 0.960 . S
H1542 C1526 0.931 . S
H1543 C1531 0.929 . S
H1544 C1532 0.960 . S
H1545 C1532 0.962 . S
H1546 C1532 0.960 . S
H1547 C1533 0.961 . S
H1548 C1533 0.961 . S
H1549 C1533 0.961 . S
H1550 C1534 0.931 . S
H1551 C1539 0.930 . S
H1552 C1540 0.956 . S
H1553 C1540 0.961 . S
H1554 C1540 0.961 . S
H1555 C1541 0.958 . S
H1556 C1541 0.961 . S
H1557 C1541 0.960 . S
C1558 C1559 1.391 . S
C1558 C1560 1.394 . S
C1558 H1574 0.931 . S
C1559 C1558 1.391 . S
C1559 C1563 1.376 . S
C1560 C1558 1.394 . S
C1560 C1561 1.369 . S
C1560 C1564 1.531 . S
C1561 C1560 1.369 . S
C1561 C1562 1.410 . S
C1561 C1569 1.503 . S
C1562 C1561 1.410 . S
C1562 C1563 1.392 . S
C1562 C1565 1.511 . S
C1563 C1559 1.376 . S
C1563 C1562 1.392 . S
C1563 H1575 0.929 . S
C1564 C1560 1.531 . S
C1564 H1576 0.960 . S
C1564 H1577 0.962 . S
C1564 H1578 0.960 . S
C1565 C1562 1.511 . S
C1565 H1579 0.961 . S
C1565 H1580 0.961 . S
C1565 H1581 0.961 . S
C1566 C1567 1.370 . S
C1566 C1568 1.363 . S
C1566 H1582 0.931 . S
C1567 C1566 1.370 . S
C1567 C1571 1.408 . S
C1568 C1566 1.363 . S
C1568 C1569 1.370 . S
C1568 C1572 1.524 . S
C1569 C1561 1.503 . S
C1569 C1568 1.370 . S
C1569 C1570 1.403 . S
C1570 C1569 1.403 . S
C1570 C1571 1.404 . S
C1570 C1573 1.539 . S
C1571 C1567 1.408 . S
C1571 C1570 1.404 . S
C1571 H1583 0.930 . S
C1572 C1568 1.524 . S
C1572 H1584 0.956 . S
C1572 H1585 0.961 . S
C1572 H1586 0.961 . S
C1573 C1570 1.539 . S
C1573 H1587 0.958 . S
C1573 H1588 0.961 . S
C1573 H1589 0.960 . S
H1574 C1558 0.931 . S
H1575 C1563 0.929 . S
H1576 C1564 0.960 . S
H1577 C1564 0.962 . S
H1578 C1564 0.960 . S
H1579 C1565 0.961 . S
H1580 C1565 0.961 . S
H1581 C1565 0.961 . S
H1582 C1566 0.931 . S
H1583 C1571 0.930 . S
H1584 C1572 0.956 . S
H1585 C1572 0.961 . S
H1586 C1572 0.961 . S
H1587 C1573 0.958 . S
H1588 C1573 0.961 . S
H1589 C1573 0.960 . S
C1590 C1591 1.391 . S
C1590 C1592 1.394 . S
C1590 H1606 0.931 . S
C1591 C1590 1.391 . S
C1591 C1595 1.376 . S
C1592 C1590 1.394 . S
C1592 C1593 1.369 . S
C1592 C1596 1.531 . S
C1593 C1592 1.369 . S
C1593 C1594 1.410 . S
C1593 C1601 1.503 . S
C1594 C1593 1.410 . S
C1594 C1595 1.392 . S
C1594 C1597 1.511 . S
C1595 C1591 1.376 . S
C1595 C1594 1.392 . S
C1595 H1607 0.929 . S
C1596 C1592 1.531 . S
C1596 H1608 0.960 . S
C1596 H1609 0.962 . S
C1596 H1610 0.960 . S
C1597 C1594 1.511 . S
C1597 H1611 0.961 . S
C1597 H1612 0.961 . S
C1597 H1613 0.961 . S
C1598 C1599 1.370 . S
C1598 C1600 1.363 . S
C1598 H1614 0.931 . S
C1599 C1598 1.370 . S
C1599 C1603 1.408 . S
C1600 C1598 1.363 . S
C1600 C1601 1.370 . S
C1600 C1604 1.524 . S
C1601 C1593 1.503 . S
C1601 C1600 1.370 . S
C1601 C1602 1.403 . S
C1602 C1601 1.403 . S
C1602 C1603 1.404 . S
C1602 C1605 1.539 . S
C1603 C1599 1.408 . S
C1603 C1602 1.404 . S
C1603 H1615 0.930 . S
C1604 C1600 1.524 . S
C1604 H1616 0.956 . S
C1604 H1617 0.961 . S
C1604 H1618 0.961 . S
C1605 C1602 1.539 . S
C1605 H1619 0.958 . S
C1605 H1620 0.961 . S
C1605 H1621 0.960 . S
H1606 C1590 0.931 . S
H1607 C1595 0.929 . S
H1608 C1596 0.960 . S
H1609 C1596 0.962 . S
H1610 C1596 0.960 . S
H1611 C1597 0.961 . S
H1612 C1597 0.961 . S
H1613 C1597 0.961 . S
H1614 C1598 0.931 . S
H1615 C1603 0.930 . S
H1616 C1604 0.956 . S
H1617 C1604 0.961 . S
H1618 C1604 0.961 . S
H1619 C1605 0.958 . S
H1620 C1605 0.961 . S
H1621 C1605 0.960 . S
C1622 C1623 1.391 . S
C1622 C1624 1.394 . S
C1622 H1638 0.931 . S
C1623 C1622 1.391 . S
C1623 C1627 1.376 . S
C1624 C1622 1.394 . S
C1624 C1625 1.369 . S
C1624 C1628 1.531 . S
C1625 C1624 1.369 . S
C1625 C1626 1.410 . S
C1625 C1633 1.503 . S
C1626 C1625 1.410 . S
C1626 C1627 1.392 . S
C1626 C1629 1.511 . S
C1627 C1623 1.376 . S
C1627 C1626 1.392 . S
C1627 H1639 0.929 . S
C1628 C1624 1.531 . S
C1628 H1640 0.960 . S
C1628 H1641 0.962 . S
C1628 H1642 0.960 . S
C1629 C1626 1.511 . S
C1629 H1643 0.961 . S
C1629 H1644 0.961 . S
C1629 H1645 0.961 . S
C1630 C1631 1.370 . S
C1630 C1632 1.363 . S
C1630 H1646 0.931 . S
C1631 C1630 1.370 . S
C1631 C1635 1.408 . S
C1632 C1630 1.363 . S
C1632 C1633 1.370 . S
C1632 C1636 1.524 . S
C1633 C1625 1.503 . S
C1633 C1632 1.370 . S
C1633 C1634 1.403 . S
C1634 C1633 1.403 . S
C1634 C1635 1.404 . S
C1634 C1637 1.539 . S
C1635 C1631 1.408 . S
C1635 C1634 1.404 . S
C1635 H1647 0.930 . S
C1636 C1632 1.524 . S
C1636 H1648 0.956 . S
C1636 H1649 0.961 . S
C1636 H1650 0.961 . S
C1637 C1634 1.539 . S
C1637 H1651 0.958 . S
C1637 H1652 0.961 . S
C1637 H1653 0.960 . S
H1638 C1622 0.931 . S
H1639 C1627 0.929 . S
H1640 C1628 0.960 . S
H1641 C1628 0.962 . S
H1642 C1628 0.960 . S
H1643 C1629 0.961 . S
H1644 C1629 0.961 . S
H1645 C1629 0.961 . S
H1646 C1630 0.931 . S
H1647 C1635 0.930 . S
H1648 C1636 0.956 . S
H1649 C1636 0.961 . S
H1650 C1636 0.961 . S
H1651 C1637 0.958 . S
H1652 C1637 0.961 . S
H1653 C1637 0.960 . S
C1654 C1655 1.391 . S
C1654 C1656 1.394 . S
C1654 H1670 0.931 . S
C1655 C1654 1.391 . S
C1655 C1659 1.376 . S
C1656 C1654 1.394 . S
C1656 C1657 1.369 . S
C1656 C1660 1.531 . S
C1657 C1656 1.369 . S
C1657 C1658 1.410 . S
C1657 C1665 1.503 . S
C1658 C1657 1.410 . S
C1658 C1659 1.392 . S
C1658 C1661 1.511 . S
C1659 C1655 1.376 . S
C1659 C1658 1.392 . S
C1659 H1671 0.929 . S
C1660 C1656 1.531 . S
C1660 H1672 0.960 . S
C1660 H1673 0.962 . S
C1660 H1674 0.960 . S
C1661 C1658 1.511 . S
C1661 H1675 0.961 . S
C1661 H1676 0.961 . S
C1661 H1677 0.961 . S
C1662 C1663 1.370 . S
C1662 C1664 1.363 . S
C1662 H1678 0.931 . S
C1663 C1662 1.370 . S
C1663 C1667 1.408 . S
C1664 C1662 1.363 . S
C1664 C1665 1.370 . S
C1664 C1668 1.524 . S
C1665 C1657 1.503 . S
C1665 C1664 1.370 . S
C1665 C1666 1.403 . S
C1666 C1665 1.403 . S
C1666 C1667 1.404 . S
C1666 C1669 1.539 . S
C1667 C1663 1.408 . S
C1667 C1666 1.404 . S
C1667 H1679 0.930 . S
C1668 C1664 1.524 . S
C1668 H1680 0.956 . S
C1668 H1681 0.961 . S
C1668 H1682 0.961 . S
C1669 C1666 1.539 . S
C1669 H1683 0.958 . S
C1669 H1684 0.961 . S
C1669 H1685 0.960 . S
H1670 C1654 0.931 . S
H1671 C1659 0.929 . S
H1672 C1660 0.960 . S
H1673 C1660 0.962 . S
H1674 C1660 0.960 . S
H1675 C1661 0.961 . S
H1676 C1661 0.961 . S
H1677 C1661 0.961 . S
H1678 C1662 0.931 . S
H1679 C1667 0.930 . S
H1680 C1668 0.956 . S
H1681 C1668 0.961 . S
H1682 C1668 0.961 . S
H1683 C1669 0.958 . S
H1684 C1669 0.961 . S
H1685 C1669 0.960 . S
C1686 C1687 1.391 . S
C1686 C1688 1.394 . S
C1686 H1702 0.931 . S
C1687 C1686 1.391 . S
C1687 C1691 1.376 . S
C1688 C1686 1.394 . S
C1688 C1689 1.369 . S
C1688 C1692 1.531 . S
C1689 C1688 1.369 . S
C1689 C1690 1.410 . S
C1689 C1697 1.503 . S
C1690 C1689 1.410 . S
C1690 C1691 1.392 . S
C1690 C1693 1.511 . S
C1691 C1687 1.376 . S
C1691 C1690 1.392 . S
C1691 H1703 0.929 . S
C1692 C1688 1.531 . S
C1692 H1704 0.960 . S
C1692 H1705 0.962 . S
C1692 H1706 0.960 . S
C1693 C1690 1.511 . S
C1693 H1707 0.961 . S
C1693 H1708 0.961 . S
C1693 H1709 0.961 . S
C1694 C1695 1.370 . S
C1694 C1696 1.363 . S
C1694 H1710 0.931 . S
C1695 C1694 1.370 . S
C1695 C1699 1.408 . S
C1696 C1694 1.363 . S
C1696 C1697 1.370 . S
C1696 C1700 1.524 . S
C1697 C1689 1.503 . S
C1697 C1696 1.370 . S
C1697 C1698 1.403 . S
C1698 C1697 1.403 . S
C1698 C1699 1.404 . S
C1698 C1701 1.539 . S
C1699 C1695 1.408 . S
C1699 C1698 1.404 . S
C1699 H1711 0.930 . S
C1700 C1696 1.524 . S
C1700 H1712 0.956 . S
C1700 H1713 0.961 . S
C1700 H1714 0.961 . S
C1701 C1698 1.539 . S
C1701 H1715 0.958 . S
C1701 H1716 0.961 . S
C1701 H1717 0.960 . S
H1702 C1686 0.931 . S
H1703 C1691 0.929 . S
H1704 C1692 0.960 . S
H1705 C1692 0.962 . S
H1706 C1692 0.960 . S
H1707 C1693 0.961 . S
H1708 C1693 0.961 . S
H1709 C1693 0.961 . S
H1710 C1694 0.931 . S
H1711 C1699 0.930 . S
H1712 C1700 0.956 . S
H1713 C1700 0.961 . S
H1714 C1700 0.961 . S
H1715 C1701 0.958 . S
H1716 C1701 0.961 . S
H1717 C1701 0.960 . S
C1718 C1719 1.391 . S
C1718 C1720 1.394 . S
C1718 H1734 0.931 . S
C1719 C1718 1.391 . S
C1719 C1723 1.376 . S
C1720 C1718 1.394 . S
C1720 C1721 1.369 . S
C1720 C1724 1.531 . S
C1721 C1720 1.369 . S
C1721 C1722 1.410 . S
C1721 C1729 1.503 . S
C1722 C1721 1.410 . S
C1722 C1723 1.392 . S
C1722 C1725 1.511 . S
C1723 C1719 1.376 . S
C1723 C1722 1.392 . S
C1723 H1735 0.929 . S
C1724 C1720 1.531 . S
C1724 H1736 0.960 . S
C1724 H1737 0.962 . S
C1724 H1738 0.960 . S
C1725 C1722 1.511 . S
C1725 H1739 0.961 . S
C1725 H1740 0.961 . S
C1725 H1741 0.961 . S
C1726 C1727 1.370 . S
C1726 C1728 1.363 . S
C1726 H1742 0.931 . S
C1727 C1726 1.370 . S
C1727 C1731 1.408 . S
C1728 C1726 1.363 . S
C1728 C1729 1.370 . S
C1728 C1732 1.524 . S
C1729 C1721 1.503 . S
C1729 C1728 1.370 . S
C1729 C1730 1.403 . S
C1730 C1729 1.403 . S
C1730 C1731 1.404 . S
C1730 C1733 1.539 . S
C1731 C1727 1.408 . S
C1731 C1730 1.404 . S
C1731 H1743 0.930 . S
C1732 C1728 1.524 . S
C1732 H1744 0.956 . S
C1732 H1745 0.961 . S
C1732 H1746 0.961 . S
C1733 C1730 1.539 . S
C1733 H1747 0.958 . S
C1733 H1748 0.961 . S
C1733 H1749 0.960 . S
H1734 C1718 0.931 . S
H1735 C1723 0.929 . S
H1736 C1724 0.960 . S
H1737 C1724 0.962 . S
H1738 C1724 0.960 . S
H1739 C1725 0.961 . S
H1740 C1725 0.961 . S
H1741 C1725 0.961 . S
H1742 C1726 0.931 . S
H1743 C1731 0.930 . S
H1744 C1732 0.956 . S
H1745 C1732 0.961 . S
H1746 C1732 0.961 . S
H1747 C1733 0.958 . S
H1748 C1733 0.961 . S
H1749 C1733 0.960 . S
C1750 C1751 1.391 . S
C1750 C1752 1.394 . S
C1750 H1766 0.931 . S
C1751 C1750 1.391 . S
C1751 C1755 1.376 . S
C1752 C1750 1.394 . S
C1752 C1753 1.369 . S
C1752 C1756 1.531 . S
C1753 C1752 1.369 . S
C1753 C1754 1.410 . S
C1753 C1761 1.503 . S
C1754 C1753 1.410 . S
C1754 C1755 1.392 . S
C1754 C1757 1.511 . S
C1755 C1751 1.376 . S
C1755 C1754 1.392 . S
C1755 H1767 0.929 . S
C1756 C1752 1.531 . S
C1756 H1768 0.960 . S
C1756 H1769 0.962 . S
C1756 H1770 0.960 . S
C1757 C1754 1.511 . S
C1757 H1771 0.961 . S
C1757 H1772 0.961 . S
C1757 H1773 0.961 . S
C1758 C1759 1.370 . S
C1758 C1760 1.363 . S
C1758 H1774 0.931 . S
C1759 C1758 1.370 . S
C1759 C1763 1.408 . S
C1760 C1758 1.363 . S
C1760 C1761 1.370 . S
C1760 C1764 1.524 . S
C1761 C1753 1.503 . S
C1761 C1760 1.370 . S
C1761 C1762 1.403 . S
C1762 C1761 1.403 . S
C1762 C1763 1.404 . S
C1762 C1765 1.539 . S
C1763 C1759 1.408 . S
C1763 C1762 1.404 . S
C1763 H1775 0.930 . S
C1764 C1760 1.524 . S
C1764 H1776 0.956 . S
C1764 H1777 0.961 . S
C1764 H1778 0.961 . S
C1765 C1762 1.539 . S
C1765 H1779 0.958 . S
C1765 H1780 0.961 . S
C1765 H1781 0.960 . S
H1766 C1750 0.931 . S
H1767 C1755 0.929 . S
H1768 C1756 0.960 . S
H1769 C1756 0.962 . S
H1770 C1756 0.960 . S
H1771 C1757 0.961 . S
H1772 C1757 0.961 . S
H1773 C1757 0.961 . S
H1774 C1758 0.931 . S
H1775 C1763 0.930 . S
H1776 C1764 0.956 . S
H1777 C1764 0.961 . S
H1778 C1764 0.961 . S
H1779 C1765 0.958 . S
H1780 C1765 0.961 . S
H1781 C1765 0.960 . S
C1782 C1783 1.391 . S
C1782 C1784 1.394 . S
C1782 H1798 0.931 . S
C1783 C1782 1.391 . S
C1783 C1787 1.376 . S
C1784 C1782 1.394 . S
C1784 C1785 1.369 . S
C1784 C1788 1.531 . S
C1785 C1784 1.369 . S
C1785 C1786 1.410 . S
C1785 C1793 1.503 . S
C1786 C1785 1.410 . S
C1786 C1787 1.392 . S
C1786 C1789 1.511 . S
C1787 C1783 1.376 . S
C1787 C1786 1.392 . S
C1787 H1799 0.929 . S
C1788 C1784 1.531 . S
C1788 H1800 0.960 . S
C1788 H1801 0.962 . S
C1788 H1802 0.960 . S
C1789 C1786 1.511 . S
C1789 H1803 0.961 . S
C1789 H1804 0.961 . S
C1789 H1805 0.961 . S
C1790 C1791 1.370 . S
C1790 C1792 1.363 . S
C1790 H1806 0.931 . S
C1791 C1790 1.370 . S
C1791 C1795 1.408 . S
C1792 C1790 1.363 . S
C1792 C1793 1.370 . S
C1792 C1796 1.524 . S
C1793 C1785 1.503 . S
C1793 C1792 1.370 . S
C1793 C1794 1.403 . S
C1794 C1793 1.403 . S
C1794 C1795 1.404 . S
C1794 C1797 1.539 . S
C1795 C1791 1.408 . S
C1795 C1794 1.404 . S
C1795 H1807 0.930 . S
C1796 C1792 1.524 . S
C1796 H1808 0.956 . S
C1796 H1809 0.961 . S
C1796 H1810 0.961 . S
C1797 C1794 1.539 . S
C1797 H1811 0.958 . S
C1797 H1812 0.961 . S
C1797 H1813 0.960 . S
H1798 C1782 0.931 . S
H1799 C1787 0.929 . S
H1800 C1788 0.960 . S
H1801 C1788 0.962 . S
H1802 C1788 0.960 . S
H1803 C1789 0.961 . S
H1804 C1789 0.961 . S
H1805 C1789 0.961 . S
H1806 C1790 0.931 . S
H1807 C1795 0.930 . S
H1808 C1796 0.956 . S
H1809 C1796 0.961 . S
H1810 C1796 0.961 . S
H1811 C1797 0.958 . S
H1812 C1797 0.961 . S
H1813 C1797 0.960 . S
C1814 C1815 1.391 . S
C1814 C1816 1.394 . S
C1814 H1830 0.931 . S
C1815 C1814 1.391 . S
C1815 C1819 1.376 . S
C1816 C1814 1.394 . S
C1816 C1817 1.369 . S
C1816 C1820 1.531 . S
C1817 C1816 1.369 . S
C1817 C1818 1.410 . S
C1817 C1825 1.503 . S
C1818 C1817 1.410 . S
C1818 C1819 1.392 . S
C1818 C1821 1.511 . S
C1819 C1815 1.376 . S
C1819 C1818 1.392 . S
C1819 H1831 0.929 . S
C1820 C1816 1.531 . S
C1820 H1832 0.960 . S
C1820 H1833 0.962 . S
C1820 H1834 0.960 . S
C1821 C1818 1.511 . S
C1821 H1835 0.961 . S
C1821 H1836 0.961 . S
C1821 H1837 0.961 . S
C1822 C1823 1.370 . S
C1822 C1824 1.363 . S
C1822 H1838 0.931 . S
C1823 C1822 1.370 . S
C1823 C1827 1.408 . S
C1824 C1822 1.363 . S
C1824 C1825 1.370 . S
C1824 C1828 1.524 . S
C1825 C1817 1.503 . S
C1825 C1824 1.370 . S
C1825 C1826 1.403 . S
C1826 C1825 1.403 . S
C1826 C1827 1.404 . S
C1826 C1829 1.539 . S
C1827 C1823 1.408 . S
C1827 C1826 1.404 . S
C1827 H1839 0.930 . S
C1828 C1824 1.524 . S
C1828 H1840 0.956 . S
C1828 H1841 0.961 . S
C1828 H1842 0.961 . S
C1829 C1826 1.539 . S
C1829 H1843 0.958 . S
C1829 H1844 0.961 . S
C1829 H1845 0.960 . S
H1830 C1814 0.931 . S
H1831 C1819 0.929 . S
H1832 C1820 0.960 . S
H1833 C1820 0.962 . S
H1834 C1820 0.960 . S
H1835 C1821 0.961 . S
H1836 C1821 0.961 . S
H1837 C1821 0.961 . S
H1838 C1822 0.931 . S
H1839 C1827 0.930 . S
H1840 C1828 0.956 . S
H1841 C1828 0.961 . S
H1842 C1828 0.961 . S
H1843 C1829 0.958 . S
H1844 C1829 0.961 . S
H1845 C1829 0.960 . S
C1846 C1847 1.391 . S
C1846 C1848 1.394 . S
C1846 H1862 0.931 . S
C1847 C1846 1.391 . S
C1847 C1851 1.376 . S
C1848 C1846 1.394 . S
C1848 C1849 1.369 . S
C1848 C1852 1.531 . S
C1849 C1848 1.369 . S
C1849 C1850 1.410 . S
C1849 C1857 1.503 . S
C1850 C1849 1.410 . S
C1850 C1851 1.392 . S
C1850 C1853 1.511 . S
C1851 C1847 1.376 . S
C1851 C1850 1.392 . S
C1851 H1863 0.929 . S
C1852 C1848 1.531 . S
C1852 H1864 0.960 . S
C1852 H1865 0.962 . S
C1852 H1866 0.960 . S
C1853 C1850 1.511 . S
C1853 H1867 0.961 . S
C1853 H1868 0.961 . S
C1853 H1869 0.961 . S
C1854 C1855 1.370 . S
C1854 C1856 1.363 . S
C1854 H1870 0.931 . S
C1855 C1854 1.370 . S
C1855 C1859 1.408 . S
C1856 C1854 1.363 . S
C1856 C1857 1.370 . S
C1856 C1860 1.524 . S
C1857 C1849 1.503 . S
C1857 C1856 1.370 . S
C1857 C1858 1.403 . S
C1858 C1857 1.403 . S
C1858 C1859 1.404 . S
C1858 C1861 1.539 . S
C1859 C1855 1.408 . S
C1859 C1858 1.404 . S
C1859 H1871 0.930 . S
C1860 C1856 1.524 . S
C1860 H1872 0.956 . S
C1860 H1873 0.961 . S
C1860 H1874 0.961 . S
C1861 C1858 1.539 . S
C1861 H1875 0.958 . S
C1861 H1876 0.961 . S
C1861 H1877 0.960 . S
H1862 C1846 0.931 . S
H1863 C1851 0.929 . S
H1864 C1852 0.960 . S
H1865 C1852 0.962 . S
H1866 C1852 0.960 . S
H1867 C1853 0.961 . S
H1868 C1853 0.961 . S
H1869 C1853 0.961 . S
H1870 C1854 0.931 . S
H1871 C1859 0.930 . S
H1872 C1860 0.956 . S
H1873 C1860 0.961 . S
H1874 C1860 0.961 . S
H1875 C1861 0.958 . S
H1876 C1861 0.961 . S
H1877 C1861 0.960 . S
C1878 C1879 1.391 . S
C1878 C1880 1.394 . S
C1878 H1894 0.931 . S
C1879 C1878 1.391 . S
C1879 C1883 1.376 . S
C1880 C1878 1.394 . S
C1880 C1881 1.369 . S
C1880 C1884 1.531 . S
C1881 C1880 1.369 . S
C1881 C1882 1.410 . S
C1881 C1889 1.503 . S
C1882 C1881 1.410 . S
C1882 C1883 1.392 . S
C1882 C1885 1.511 1_556 S
C1883 C1879 1.376 . S
C1883 C1882 1.392 . S
C1883 H1895 0.929 1_556 S
C1884 C1880 1.531 . S
C1884 H1896 0.960 . S
C1884 H1897 0.962 . S
C1884 H1898 0.960 . S
C1885 C1882 1.511 1_554 S
C1885 H1899 0.961 . S
C1885 H1900 0.961 1_554 S
C1885 H1901 0.961 . S
C1886 C1887 1.370 . S
C1886 C1888 1.363 . S
C1886 H1902 0.931 . S
C1887 C1886 1.370 . S
C1887 C1891 1.408 . S
C1888 C1886 1.363 . S
C1888 C1889 1.370 . S
C1888 C1892 1.524 . S
C1889 C1881 1.503 . S
C1889 C1888 1.370 . S
C1889 C1890 1.403 . S
C1890 C1889 1.403 . S
C1890 C1891 1.404 . S
C1890 C1893 1.539 . S
C1891 C1887 1.408 . S
C1891 C1890 1.404 . S
C1891 H1903 0.930 . S
C1892 C1888 1.524 . S
C1892 H1904 0.956 . S
C1892 H1905 0.961 . S
C1892 H1906 0.961 . S
C1893 C1890 1.539 . S
C1893 H1907 0.958 . S
C1893 H1908 0.961 . S
C1893 H1909 0.960 . S
H1894 C1878 0.931 . S
H1895 C1883 0.929 1_554 S
H1896 C1884 0.960 . S
H1897 C1884 0.962 . S
H1898 C1884 0.960 . S
H1899 C1885 0.961 . S
H1900 C1885 0.961 1_556 S
H1901 C1885 0.961 . S
H1902 C1886 0.931 . S
H1903 C1891 0.930 . S
H1904 C1892 0.956 . S
H1905 C1892 0.961 . S
H1906 C1892 0.961 . S
H1907 C1893 0.958 . S
H1908 C1893 0.961 . S
H1909 C1893 0.960 . S
C1910 C1911 1.391 . S
C1910 C1912 1.394 . S
C1910 H1926 0.931 . S
C1911 C1910 1.391 . S
C1911 C1915 1.376 . S
C1912 C1910 1.394 . S
C1912 C1913 1.369 . S
C1912 C1916 1.531 . S
C1913 C1912 1.369 . S
C1913 C1914 1.410 . S
C1913 C1921 1.503 . S
C1914 C1913 1.410 . S
C1914 C1915 1.392 . S
C1914 C1917 1.511 . S
C1915 C1911 1.376 . S
C1915 C1914 1.392 . S
C1915 H1927 0.929 . S
C1916 C1912 1.531 . S
C1916 H1928 0.960 . S
C1916 H1929 0.962 . S
C1916 H1930 0.960 . S
C1917 C1914 1.511 . S
C1917 H1931 0.961 . S
C1917 H1932 0.961 . S
C1917 H1933 0.961 . S
C1918 C1919 1.370 . S
C1918 C1920 1.363 . S
C1918 H1934 0.931 . S
C1919 C1918 1.370 . S
C1919 C1923 1.408 . S
C1920 C1918 1.363 . S
C1920 C1921 1.370 . S
C1920 C1924 1.524 . S
C1921 C1913 1.503 . S
C1921 C1920 1.370 . S
C1921 C1922 1.403 . S
C1922 C1921 1.403 . S
C1922 C1923 1.404 . S
C1922 C1925 1.539 . S
C1923 C1919 1.408 . S
C1923 C1922 1.404 . S
C1923 H1935 0.930 . S
C1924 C1920 1.524 . S
C1924 H1936 0.956 . S
C1924 H1937 0.961 . S
C1924 H1938 0.961 . S
C1925 C1922 1.539 . S
C1925 H1939 0.958 1_556 S
C1925 H1940 0.961 1_556 S
C1925 H1941 0.960 1_556 S
H1926 C1910 0.931 . S
H1927 C1915 0.929 . S
H1928 C1916 0.960 . S
H1929 C1916 0.962 . S
H1930 C1916 0.960 . S
H1931 C1917 0.961 . S
H1932 C1917 0.961 . S
H1933 C1917 0.961 . S
H1934 C1918 0.931 . S
H1935 C1923 0.930 . S
H1936 C1924 0.956 . S
H1937 C1924 0.961 . S
H1938 C1924 0.961 . S
H1939 C1925 0.958 1_554 S
H1940 C1925 0.961 1_554 S
H1941 C1925 0.960 1_554 S
C1942 C1943 1.391 . S
C1942 C1944 1.394 . S
C1942 H1958 0.931 . S
C1943 C1942 1.391 . S
C1943 C1947 1.376 . S
C1944 C1942 1.394 . S
C1944 C1945 1.369 . S
C1944 C1948 1.531 . S
C1945 C1944 1.369 . S
C1945 C1946 1.410 . S
C1945 C1953 1.503 . S
C1946 C1945 1.410 . S
C1946 C1947 1.392 . S
C1946 C1949 1.511 1_556 S
C1947 C1943 1.376 . S
C1947 C1946 1.392 . S
C1947 H1959 0.929 1_556 S
C1948 C1944 1.531 . S
C1948 H1960 0.960 . S
C1948 H1961 0.962 . S
C1948 H1962 0.960 . S
C1949 C1946 1.511 1_554 S
C1949 H1963 0.961 . S
C1949 H1964 0.961 1_554 S
C1949 H1965 0.961 . S
C1950 C1951 1.370 . S
C1950 C1952 1.363 . S
C1950 H1966 0.931 . S
C1951 C1950 1.370 . S
C1951 C1955 1.408 . S
C1952 C1950 1.363 . S
C1952 C1953 1.370 . S
C1952 C1956 1.524 . S
C1953 C1945 1.503 . S
C1953 C1952 1.370 . S
C1953 C1954 1.403 . S
C1954 C1953 1.403 . S
C1954 C1955 1.404 . S
C1954 C1957 1.539 . S
C1955 C1951 1.408 . S
C1955 C1954 1.404 . S
C1955 H1967 0.930 . S
C1956 C1952 1.524 . S
C1956 H1968 0.956 . S
C1956 H1969 0.961 . S
C1956 H1970 0.961 . S
C1957 C1954 1.539 . S
C1957 H1971 0.958 . S
C1957 H1972 0.961 . S
C1957 H1973 0.960 . S
H1958 C1942 0.931 . S
H1959 C1947 0.929 1_554 S
H1960 C1948 0.960 . S
H1961 C1948 0.962 . S
H1962 C1948 0.960 . S
H1963 C1949 0.961 . S
H1964 C1949 0.961 1_556 S
H1965 C1949 0.961 . S
H1966 C1950 0.931 . S
H1967 C1955 0.930 . S
H1968 C1956 0.956 . S
H1969 C1956 0.961 . S
H1970 C1956 0.961 . S
H1971 C1957 0.958 . S
H1972 C1957 0.961 . S
H1973 C1957 0.960 . S
C1974 C1975 1.391 . S
C1974 C1976 1.394 . S
C1974 H1990 0.931 . S
C1975 C1974 1.391 . S
C1975 C1979 1.376 . S
C1976 C1974 1.394 . S
C1976 C1977 1.369 . S
C1976 C1980 1.531 . S
C1977 C1976 1.369 . S
C1977 C1978 1.410 . S
C1977 C1985 1.503 . S
C1978 C1977 1.410 . S
C1978 C1979 1.392 . S
C1978 C1981 1.511 1_556 S
C1979 C1975 1.376 . S
C1979 C1978 1.392 . S
C1979 H1991 0.929 1_556 S
C1980 C1976 1.531 . S
C1980 H1992 0.960 . S
C1980 H1993 0.962 . S
C1980 H1994 0.960 . S
C1981 C1978 1.511 1_554 S
C1981 H1995 0.961 . S
C1981 H1996 0.961 1_554 S
C1981 H1997 0.961 . S
C1982 C1983 1.370 . S
C1982 C1984 1.363 . S
C1982 H1998 0.931 . S
C1983 C1982 1.370 . S
C1983 C1987 1.408 . S
C1984 C1982 1.363 . S
C1984 C1985 1.370 . S
C1984 C1988 1.524 . S
C1985 C1977 1.503 . S
C1985 C1984 1.370 . S
C1985 C1986 1.403 . S
C1986 C1985 1.403 . S
C1986 C1987 1.404 . S
C1986 C1989 1.539 . S
C1987 C1983 1.408 . S
C1987 C1986 1.404 . S
C1987 H1999 0.930 . S
C1988 C1984 1.524 . S
C1988 H2000 0.956 . S
C1988 H2001 0.961 . S
C1988 H2002 0.961 . S
C1989 C1986 1.539 . S
C1989 H2003 0.958 . S
C1989 H2004 0.961 . S
C1989 H2005 0.960 . S
H1990 C1974 0.931 . S
H1991 C1979 0.929 1_554 S
H1992 C1980 0.960 . S
H1993 C1980 0.962 . S
H1994 C1980 0.960 . S
H1995 C1981 0.961 . S
H1996 C1981 0.961 1_556 S
H1997 C1981 0.961 . S
H1998 C1982 0.931 . S
H1999 C1987 0.930 . S
H2000 C1988 0.956 . S
H2001 C1988 0.961 . S
H2002 C1988 0.961 . S
H2003 C1989 0.958 . S
H2004 C1989 0.961 . S
H2005 C1989 0.960 . S
C2006 C2007 1.391 . S
C2006 C2008 1.394 . S
C2006 H2022 0.931 . S
C2007 C2006 1.391 . S
C2007 C2011 1.376 . S
C2008 C2006 1.394 . S
C2008 C2009 1.369 . S
C2008 C2012 1.531 . S
C2009 C2008 1.369 . S
C2009 C2010 1.410 . S
C2009 C2017 1.503 . S
C2010 C2009 1.410 . S
C2010 C2011 1.392 . S
C2010 C2013 1.511 . S
C2011 C2007 1.376 . S
C2011 C2010 1.392 . S
C2011 H2023 0.929 . S
C2012 C2008 1.531 . S
C2012 H2024 0.960 . S
C2012 H2025 0.962 . S
C2012 H2026 0.960 . S
C2013 C2010 1.511 . S
C2013 H2027 0.961 . S
C2013 H2028 0.961 . S
C2013 H2029 0.961 . S
C2014 C2015 1.370 . S
C2014 C2016 1.363 . S
C2014 H2030 0.931 . S
C2015 C2014 1.370 . S
C2015 C2019 1.408 . S
C2016 C2014 1.363 . S
C2016 C2017 1.370 . S
C2016 C2020 1.524 . S
C2017 C2009 1.503 . S
C2017 C2016 1.370 . S
C2017 C2018 1.403 . S
C2018 C2017 1.403 . S
C2018 C2019 1.404 . S
C2018 C2021 1.539 . S
C2019 C2015 1.408 . S
C2019 C2018 1.404 . S
C2019 H2031 0.930 . S
C2020 C2016 1.524 . S
C2020 H2032 0.956 . S
C2020 H2033 0.961 . S
C2020 H2034 0.961 . S
C2021 C2018 1.539 . S
C2021 H2035 0.958 1_556 S
C2021 H2036 0.961 . S
C2021 H2037 0.960 . S
H2022 C2006 0.931 . S
H2023 C2011 0.929 . S
H2024 C2012 0.960 . S
H2025 C2012 0.962 . S
H2026 C2012 0.960 . S
H2027 C2013 0.961 . S
H2028 C2013 0.961 . S
H2029 C2013 0.961 . S
H2030 C2014 0.931 . S
H2031 C2019 0.930 . S
H2032 C2020 0.956 . S
H2033 C2020 0.961 . S
H2034 C2020 0.961 . S
H2035 C2021 0.958 1_554 S
H2036 C2021 0.961 . S
H2037 C2021 0.960 . S
C2038 C2039 1.391 . S
C2038 C2040 1.394 . S
C2038 H2054 0.931 . S
C2039 C2038 1.391 . S
C2039 C2043 1.376 . S
C2040 C2038 1.394 . S
C2040 C2041 1.369 . S
C2040 C2044 1.531 . S
C2041 C2040 1.369 . S
C2041 C2042 1.410 . S
C2041 C2049 1.503 . S
C2042 C2041 1.410 . S
C2042 C2043 1.392 . S
C2042 C2045 1.511 . S
C2043 C2039 1.376 . S
C2043 C2042 1.392 . S
C2043 H2055 0.929 . S
C2044 C2040 1.531 . S
C2044 H2056 0.960 . S
C2044 H2057 0.962 . S
C2044 H2058 0.960 . S
C2045 C2042 1.511 . S
C2045 H2059 0.961 . S
C2045 H2060 0.961 . S
C2045 H2061 0.961 . S
C2046 C2047 1.370 . S
C2046 C2048 1.363 . S
C2046 H2062 0.931 . S
C2047 C2046 1.370 . S
C2047 C2051 1.408 . S
C2048 C2046 1.363 . S
C2048 C2049 1.370 . S
C2048 C2052 1.524 . S
C2049 C2041 1.503 . S
C2049 C2048 1.370 . S
C2049 C2050 1.403 . S
C2050 C2049 1.403 . S
C2050 C2051 1.404 . S
C2050 C2053 1.539 . S
C2051 C2047 1.408 . S
C2051 C2050 1.404 . S
C2051 H2063 0.930 . S
C2052 C2048 1.524 . S
C2052 H2064 0.961 . S
C2052 H2065 0.961 . S
C2052 H2066 0.961 1_556 S
C2053 C2050 1.539 . S
C2053 H2067 0.958 . S
C2053 H2068 0.961 . S
C2053 H2069 0.960 . S
H2054 C2038 0.931 . S
H2055 C2043 0.929 . S
H2056 C2044 0.960 . S
H2057 C2044 0.962 . S
H2058 C2044 0.960 . S
H2059 C2045 0.961 . S
H2060 C2045 0.961 . S
H2061 C2045 0.961 . S
H2062 C2046 0.931 . S
H2063 C2051 0.930 . S
H2064 C2052 0.961 . S
H2065 C2052 0.961 . S
H2066 C2052 0.961 1_554 S
H2067 C2053 0.958 . S
H2068 C2053 0.961 . S
H2069 C2053 0.960 . S
C2070 C2071 1.391 . S
C2070 C2072 1.394 . S
C2070 H2086 0.931 . S
C2071 C2070 1.391 . S
C2071 C2075 1.376 . S
C2072 C2070 1.394 . S
C2072 C2073 1.369 . S
C2072 C2076 1.531 . S
C2073 C2072 1.369 . S
C2073 C2074 1.410 . S
C2073 C2081 1.503 . S
C2074 C2073 1.410 . S
C2074 C2075 1.392 . S
C2074 C2077 1.511 . S
C2075 C2071 1.376 . S
C2075 C2074 1.392 . S
C2075 H2087 0.929 . S
C2076 C2072 1.531 . S
C2076 H2088 0.960 . S
C2076 H2089 0.962 . S
C2076 H2090 0.960 . S
C2077 C2074 1.511 . S
C2077 H2091 0.961 . S
C2077 H2092 0.961 . S
C2077 H2093 0.961 . S
C2078 C2079 1.370 . S
C2078 C2080 1.363 . S
C2078 H2094 0.931 . S
C2079 C2078 1.370 . S
C2079 C2083 1.408 . S
C2080 C2078 1.363 . S
C2080 C2081 1.370 . S
C2080 C2084 1.524 . S
C2081 C2073 1.503 . S
C2081 C2080 1.370 . S
C2081 C2082 1.403 . S
C2082 C2081 1.403 . S
C2082 C2083 1.404 . S
C2082 C2085 1.539 . S
C2083 C2079 1.408 . S
C2083 C2082 1.404 . S
C2083 H2095 0.930 . S
C2084 C2080 1.524 . S
C2084 H2096 0.956 . S
C2084 H2097 0.961 . S
C2084 H2098 0.961 . S
C2085 C2082 1.539 . S
C2085 H2099 0.958 . S
C2085 H2100 0.961 . S
C2085 H2101 0.960 . S
H2086 C2070 0.931 . S
H2087 C2075 0.929 . S
H2088 C2076 0.960 . S
H2089 C2076 0.962 . S
H2090 C2076 0.960 . S
H2091 C2077 0.961 . S
H2092 C2077 0.961 . S
H2093 C2077 0.961 . S
H2094 C2078 0.931 . S
H2095 C2083 0.930 . S
H2096 C2084 0.956 . S
H2097 C2084 0.961 . S
H2098 C2084 0.961 . S
H2099 C2085 0.958 . S
H2100 C2085 0.961 . S
H2101 C2085 0.960 . S
C2102 C2103 1.391 . S
C2102 C2104 1.394 . S
C2102 H2118 0.931 . S
C2103 C2102 1.391 . S
C2103 C2107 1.376 . S
C2104 C2102 1.394 . S
C2104 C2105 1.369 . S
C2104 C2108 1.531 . S
C2105 C2104 1.369 . S
C2105 C2106 1.410 . S
C2105 C2113 1.503 . S
C2106 C2105 1.410 . S
C2106 C2107 1.392 . S
C2106 C2109 1.511 . S
C2107 C2103 1.376 . S
C2107 C2106 1.392 . S
C2107 H2119 0.929 . S
C2108 C2104 1.531 . S
C2108 H2120 0.960 . S
C2108 H2121 0.962 . S
C2108 H2122 0.960 . S
C2109 C2106 1.511 . S
C2109 H2123 0.961 . S
C2109 H2124 0.961 . S
C2109 H2125 0.961 . S
C2110 C2111 1.370 . S
C2110 C2112 1.363 . S
C2110 H2126 0.931 . S
C2111 C2110 1.370 . S
C2111 C2115 1.408 . S
C2112 C2110 1.363 . S
C2112 C2113 1.370 . S
C2112 C2116 1.524 . S
C2113 C2105 1.503 . S
C2113 C2112 1.370 . S
C2113 C2114 1.403 . S
C2114 C2113 1.403 . S
C2114 C2115 1.404 . S
C2114 C2117 1.539 . S
C2115 C2111 1.408 . S
C2115 C2114 1.404 . S
C2115 H2127 0.930 . S
C2116 C2112 1.524 . S
C2116 H2128 0.956 . S
C2116 H2129 0.961 . S
C2116 H2130 0.961 . S
C2117 C2114 1.539 . S
C2117 H2131 0.958 . S
C2117 H2132 0.961 . S
C2117 H2133 0.960 . S
H2118 C2102 0.931 . S
H2119 C2107 0.929 . S
H2120 C2108 0.960 . S
H2121 C2108 0.962 . S
H2122 C2108 0.960 . S
H2123 C2109 0.961 . S
H2124 C2109 0.961 . S
H2125 C2109 0.961 . S
H2126 C2110 0.931 . S
H2127 C2115 0.930 . S
H2128 C2116 0.956 . S
H2129 C2116 0.961 . S
H2130 C2116 0.961 . S
H2131 C2117 0.958 . S
H2132 C2117 0.961 . S
H2133 C2117 0.960 . S
C2134 C2135 1.391 . S
C2134 C2136 1.394 . S
C2134 H2150 0.931 . S
C2135 C2134 1.391 . S
C2135 C2139 1.376 . S
C2136 C2134 1.394 . S
C2136 C2137 1.369 . S
C2136 C2140 1.531 . S
C2137 C2136 1.369 . S
C2137 C2138 1.410 . S
C2137 C2145 1.503 . S
C2138 C2137 1.410 . S
C2138 C2139 1.392 . S
C2138 C2141 1.511 . S
C2139 C2135 1.376 . S
C2139 C2138 1.392 . S
C2139 H2151 0.929 . S
C2140 C2136 1.531 . S
C2140 H2152 0.960 . S
C2140 H2153 0.962 . S
C2140 H2154 0.960 . S
C2141 C2138 1.511 . S
C2141 H2155 0.961 . S
C2141 H2156 0.961 . S
C2141 H2157 0.961 . S
C2142 C2143 1.370 . S
C2142 C2144 1.363 . S
C2142 H2158 0.931 . S
C2143 C2142 1.370 . S
C2143 C2147 1.408 . S
C2144 C2142 1.363 . S
C2144 C2145 1.370 . S
C2144 C2148 1.524 . S
C2145 C2137 1.503 . S
C2145 C2144 1.370 . S
C2145 C2146 1.403 . S
C2146 C2145 1.403 . S
C2146 C2147 1.404 . S
C2146 C2149 1.539 . S
C2147 C2143 1.408 . S
C2147 C2146 1.404 . S
C2147 H2159 0.930 . S
C2148 C2144 1.524 . S
C2148 H2160 0.956 . S
C2148 H2161 0.961 . S
C2148 H2162 0.961 . S
C2149 C2146 1.539 . S
C2149 H2163 0.958 . S
C2149 H2164 0.961 . S
C2149 H2165 0.960 . S
H2150 C2134 0.931 . S
H2151 C2139 0.929 . S
H2152 C2140 0.960 . S
H2153 C2140 0.962 . S
H2154 C2140 0.960 . S
H2155 C2141 0.961 . S
H2156 C2141 0.961 . S
H2157 C2141 0.961 . S
H2158 C2142 0.931 . S
H2159 C2147 0.930 . S
H2160 C2148 0.956 . S
H2161 C2148 0.961 . S
H2162 C2148 0.961 . S
H2163 C2149 0.958 . S
H2164 C2149 0.961 . S
H2165 C2149 0.960 . S
C2166 C2167 1.391 . S
C2166 C2168 1.394 . S
C2166 H2182 0.931 . S
C2167 C2166 1.391 . S
C2167 C2171 1.376 . S
C2168 C2166 1.394 . S
C2168 C2169 1.369 . S
C2168 C2172 1.531 . S
C2169 C2168 1.369 . S
C2169 C2170 1.410 . S
C2169 C2177 1.503 . S
C2170 C2169 1.410 . S
C2170 C2171 1.392 . S
C2170 C2173 1.511 . S
C2171 C2167 1.376 . S
C2171 C2170 1.392 . S
C2171 H2183 0.929 . S
C2172 C2168 1.531 . S
C2172 H2184 0.960 . S
C2172 H2185 0.962 . S
C2172 H2186 0.960 . S
C2173 C2170 1.511 . S
C2173 H2187 0.961 . S
C2173 H2188 0.961 . S
C2173 H2189 0.961 . S
C2174 C2175 1.370 . S
C2174 C2176 1.363 . S
C2174 H2190 0.931 . S
C2175 C2174 1.370 . S
C2175 C2179 1.408 . S
C2176 C2174 1.363 . S
C2176 C2177 1.370 . S
C2176 C2180 1.524 . S
C2177 C2169 1.503 . S
C2177 C2176 1.370 . S
C2177 C2178 1.403 . S
C2178 C2177 1.403 . S
C2178 C2179 1.404 . S
C2178 C2181 1.539 . S
C2179 C2175 1.408 . S
C2179 C2178 1.404 . S
C2179 H2191 0.930 . S
C2180 C2176 1.524 . S
C2180 H2192 0.956 . S
C2180 H2193 0.961 . S
C2180 H2194 0.961 . S
C2181 C2178 1.539 . S
C2181 H2195 0.958 . S
C2181 H2196 0.961 . S
C2181 H2197 0.960 . S
H2182 C2166 0.931 . S
H2183 C2171 0.929 . S
H2184 C2172 0.960 . S
H2185 C2172 0.962 . S
H2186 C2172 0.960 . S
H2187 C2173 0.961 . S
H2188 C2173 0.961 . S
H2189 C2173 0.961 . S
H2190 C2174 0.931 . S
H2191 C2179 0.930 . S
H2192 C2180 0.956 . S
H2193 C2180 0.961 . S
H2194 C2180 0.961 . S
H2195 C2181 0.958 . S
H2196 C2181 0.961 . S
H2197 C2181 0.960 . S
C2198 C2199 1.391 . S
C2198 C2200 1.394 . S
C2198 H2214 0.931 . S
C2199 C2198 1.391 . S
C2199 C2203 1.376 . S
C2200 C2198 1.394 . S
C2200 C2201 1.369 . S
C2200 C2204 1.531 . S
C2201 C2200 1.369 . S
C2201 C2202 1.410 . S
C2201 C2209 1.503 . S
C2202 C2201 1.410 . S
C2202 C2203 1.392 . S
C2202 C2205 1.511 . S
C2203 C2199 1.376 . S
C2203 C2202 1.392 . S
C2203 H2215 0.929 . S
C2204 C2200 1.531 . S
C2204 H2216 0.960 . S
C2204 H2217 0.962 . S
C2204 H2218 0.960 . S
C2205 C2202 1.511 . S
C2205 H2219 0.961 . S
C2205 H2220 0.961 . S
C2205 H2221 0.961 . S
C2206 C2207 1.370 . S
C2206 C2208 1.363 . S
C2206 H2222 0.931 . S
C2207 C2206 1.370 . S
C2207 C2211 1.408 . S
C2208 C2206 1.363 . S
C2208 C2209 1.370 . S
C2208 C2212 1.524 . S
C2209 C2201 1.503 . S
C2209 C2208 1.370 . S
C2209 C2210 1.403 . S
C2210 C2209 1.403 . S
C2210 C2211 1.404 . S
C2210 C2213 1.539 . S
C2211 C2207 1.408 . S
C2211 C2210 1.404 . S
C2211 H2223 0.930 . S
C2212 C2208 1.524 . S
C2212 H2224 0.956 . S
C2212 H2225 0.961 . S
C2212 H2226 0.961 . S
C2213 C2210 1.539 . S
C2213 H2227 0.958 . S
C2213 H2228 0.961 . S
C2213 H2229 0.960 . S
H2214 C2198 0.931 . S
H2215 C2203 0.929 . S
H2216 C2204 0.960 . S
H2217 C2204 0.962 . S
H2218 C2204 0.960 . S
H2219 C2205 0.961 . S
H2220 C2205 0.961 . S
H2221 C2205 0.961 . S
H2222 C2206 0.931 . S
H2223 C2211 0.930 . S
H2224 C2212 0.956 . S
H2225 C2212 0.961 . S
H2226 C2212 0.961 . S
H2227 C2213 0.958 . S
H2228 C2213 0.961 . S
H2229 C2213 0.960 . S
C2230 C2231 1.391 . S
C2230 C2232 1.394 . S
C2230 H2246 0.931 . S
C2231 C2230 1.391 . S
C2231 C2235 1.376 . S
C2232 C2230 1.394 . S
C2232 C2233 1.369 . S
C2232 C2236 1.531 . S
C2233 C2232 1.369 . S
C2233 C2234 1.410 . S
C2233 C2241 1.503 . S
C2234 C2233 1.410 . S
C2234 C2235 1.392 . S
C2234 C2237 1.511 . S
C2235 C2231 1.376 . S
C2235 C2234 1.392 . S
C2235 H2247 0.929 . S
C2236 C2232 1.531 . S
C2236 H2248 0.960 . S
C2236 H2249 0.962 . S
C2236 H2250 0.960 . S
C2237 C2234 1.511 . S
C2237 H2251 0.961 . S
C2237 H2252 0.961 . S
C2237 H2253 0.961 . S
C2238 C2239 1.370 . S
C2238 C2240 1.363 . S
C2238 H2254 0.931 . S
C2239 C2238 1.370 . S
C2239 C2243 1.408 . S
C2240 C2238 1.363 . S
C2240 C2241 1.370 . S
C2240 C2244 1.524 . S
C2241 C2233 1.503 . S
C2241 C2240 1.370 . S
C2241 C2242 1.403 . S
C2242 C2241 1.403 . S
C2242 C2243 1.404 . S
C2242 C2245 1.539 . S
C2243 C2239 1.408 . S
C2243 C2242 1.404 . S
C2243 H2255 0.930 . S
C2244 C2240 1.524 . S
C2244 H2256 0.956 . S
C2244 H2257 0.961 . S
C2244 H2258 0.961 . S
C2245 C2242 1.539 . S
C2245 H2259 0.958 . S
C2245 H2260 0.961 . S
C2245 H2261 0.960 . S
H2246 C2230 0.931 . S
H2247 C2235 0.929 . S
H2248 C2236 0.960 . S
H2249 C2236 0.962 . S
H2250 C2236 0.960 . S
H2251 C2237 0.961 . S
H2252 C2237 0.961 . S
H2253 C2237 0.961 . S
H2254 C2238 0.931 . S
H2255 C2243 0.930 . S
H2256 C2244 0.956 . S
H2257 C2244 0.961 . S
H2258 C2244 0.961 . S
H2259 C2245 0.958 . S
H2260 C2245 0.961 . S
H2261 C2245 0.960 . S
C2262 C2263 1.391 . S
C2262 C2264 1.394 . S
C2262 H2278 0.931 . S
C2263 C2262 1.391 . S
C2263 C2267 1.376 . S
C2264 C2262 1.394 . S
C2264 C2265 1.369 . S
C2264 C2268 1.531 . S
C2265 C2264 1.369 . S
C2265 C2266 1.410 . S
C2265 C2273 1.503 . S
C2266 C2265 1.410 . S
C2266 C2267 1.392 . S
C2266 C2269 1.511 . S
C2267 C2263 1.376 . S
C2267 C2266 1.392 . S
C2267 H2279 0.929 . S
C2268 C2264 1.531 . S
C2268 H2280 0.960 . S
C2268 H2281 0.962 1_455 S
C2268 H2282 0.960 . S
C2269 C2266 1.511 . S
C2269 H2283 0.961 . S
C2269 H2284 0.961 . S
C2269 H2285 0.961 . S
C2270 C2271 1.370 1_655 S
C2270 C2272 1.363 . S
C2270 H2286 0.931 . S
C2271 C2270 1.370 1_455 S
C2271 C2275 1.408 . S
C2272 C2270 1.363 . S
C2272 C2273 1.370 1_655 S
C2272 C2276 1.524 . S
C2273 C2265 1.503 . S
C2273 C2272 1.370 1_455 S
C2273 C2274 1.403 . S
C2274 C2273 1.403 . S
C2274 C2275 1.404 . S
C2274 C2277 1.539 . S
C2275 C2271 1.408 . S
C2275 C2274 1.404 . S
C2275 H2287 0.930 . S
C2276 C2272 1.524 . S
C2276 H2288 0.956 . S
C2276 H2289 0.961 . S
C2276 H2290 0.961 . S
C2277 C2274 1.539 . S
C2277 H2291 0.958 . S
C2277 H2292 0.961 . S
C2277 H2293 0.960 . S
H2278 C2262 0.931 . S
H2279 C2267 0.929 . S
H2280 C2268 0.960 . S
H2281 C2268 0.962 1_655 S
H2282 C2268 0.960 . S
H2283 C2269 0.961 . S
H2284 C2269 0.961 . S
H2285 C2269 0.961 . S
H2286 C2270 0.931 . S
H2287 C2275 0.930 . S
H2288 C2276 0.956 . S
H2289 C2276 0.961 . S
H2290 C2276 0.961 . S
H2291 C2277 0.958 . S
H2292 C2277 0.961 . S
H2293 C2277 0.960 . S
C2294 C2295 1.391 . S
C2294 C2296 1.394 . S
C2294 H2310 0.931 . S
C2295 C2294 1.391 . S
C2295 C2299 1.376 . S
C2296 C2294 1.394 . S
C2296 C2297 1.369 . S
C2296 C2300 1.531 . S
C2297 C2296 1.369 . S
C2297 C2298 1.410 . S
C2297 C2305 1.503 . S
C2298 C2297 1.410 . S
C2298 C2299 1.392 . S
C2298 C2301 1.511 . S
C2299 C2295 1.376 . S
C2299 C2298 1.392 . S
C2299 H2311 0.929 . S
C2300 C2296 1.531 . S
C2300 H2312 0.960 . S
C2300 H2313 0.962 . S
C2300 H2314 0.960 . S
C2301 C2298 1.511 . S
C2301 H2315 0.961 . S
C2301 H2316 0.961 . S
C2301 H2317 0.961 . S
C2302 C2303 1.370 . S
C2302 C2304 1.363 . S
C2302 H2318 0.931 . S
C2303 C2302 1.370 . S
C2303 C2307 1.408 . S
C2304 C2302 1.363 . S
C2304 C2305 1.370 . S
C2304 C2308 1.524 . S
C2305 C2297 1.503 . S
C2305 C2304 1.370 . S
C2305 C2306 1.403 . S
C2306 C2305 1.403 . S
C2306 C2307 1.404 . S
C2306 C2309 1.539 . S
C2307 C2303 1.408 . S
C2307 C2306 1.404 . S
C2307 H2319 0.930 . S
C2308 C2304 1.524 . S
C2308 H2320 0.956 . S
C2308 H2321 0.961 . S
C2308 H2322 0.961 . S
C2309 C2306 1.539 . S
C2309 H2323 0.958 . S
C2309 H2324 0.961 . S
C2309 H2325 0.960 . S
H2310 C2294 0.931 . S
H2311 C2299 0.929 . S
H2312 C2300 0.960 . S
H2313 C2300 0.962 . S
H2314 C2300 0.960 . S
H2315 C2301 0.961 . S
H2316 C2301 0.961 . S
H2317 C2301 0.961 . S
H2318 C2302 0.931 . S
H2319 C2307 0.930 . S
H2320 C2308 0.956 . S
H2321 C2308 0.961 . S
H2322 C2308 0.961 . S
H2323 C2309 0.958 . S
H2324 C2309 0.961 . S
H2325 C2309 0.960 . S
C2326 C2327 1.391 . S
C2326 C2328 1.394 . S
C2326 H2342 0.931 . S
C2327 C2326 1.391 . S
C2327 C2331 1.376 . S
C2328 C2326 1.394 . S
C2328 C2329 1.369 . S
C2328 C2332 1.531 . S
C2329 C2328 1.369 . S
C2329 C2330 1.410 . S
C2329 C2337 1.503 . S
C2330 C2329 1.410 . S
C2330 C2331 1.392 . S
C2330 C2333 1.511 . S
C2331 C2327 1.376 . S
C2331 C2330 1.392 . S
C2331 H2343 0.929 . S
C2332 C2328 1.531 . S
C2332 H2344 0.960 . S
C2332 H2345 0.962 1_565 S
C2332 H2346 0.960 . S
C2333 C2330 1.511 . S
C2333 H2347 0.961 . S
C2333 H2348 0.961 . S
C2333 H2349 0.961 . S
C2334 C2335 1.370 1_545 S
C2334 C2336 1.363 . S
C2334 H2350 0.931 . S
C2335 C2334 1.370 1_565 S
C2335 C2339 1.408 . S
C2336 C2334 1.363 . S
C2336 C2337 1.370 1_545 S
C2336 C2340 1.524 . S
C2337 C2329 1.503 . S
C2337 C2336 1.370 1_565 S
C2337 C2338 1.403 . S
C2338 C2337 1.403 . S
C2338 C2339 1.404 . S
C2338 C2341 1.539 . S
C2339 C2335 1.408 . S
C2339 C2338 1.404 . S
C2339 H2351 0.930 . S
C2340 C2336 1.524 . S
C2340 H2352 0.956 . S
C2340 H2353 0.961 . S
C2340 H2354 0.961 . S
C2341 C2338 1.539 . S
C2341 H2355 0.958 . S
C2341 H2356 0.961 . S
C2341 H2357 0.960 . S
H2342 C2326 0.931 . S
H2343 C2331 0.929 . S
H2344 C2332 0.960 . S
H2345 C2332 0.962 1_545 S
H2346 C2332 0.960 . S
H2347 C2333 0.961 . S
H2348 C2333 0.961 . S
H2349 C2333 0.961 . S
H2350 C2334 0.931 . S
H2351 C2339 0.930 . S
H2352 C2340 0.956 . S
H2353 C2340 0.961 . S
H2354 C2340 0.961 . S
H2355 C2341 0.958 . S
H2356 C2341 0.961 . S
H2357 C2341 0.960 . S
C2358 C2359 1.391 . S
C2358 C2360 1.394 . S
C2358 H2374 0.931 . S
C2359 C2358 1.391 . S
C2359 C2363 1.376 1_565 S
C2360 C2358 1.394 . S
C2360 C2361 1.369 . S
C2360 C2364 1.531 . S
C2361 C2360 1.369 . S
C2361 C2362 1.410 1_565 S
C2361 C2369 1.503 . S
C2362 C2361 1.410 1_545 S
C2362 C2363 1.392 . S
C2362 C2365 1.511 . S
C2363 C2359 1.376 1_545 S
C2363 C2362 1.392 . S
C2363 H2375 0.929 . S
C2364 C2360 1.531 . S
C2364 H2376 0.960 . S
C2364 H2377 0.962 . S
C2364 H2378 0.960 . S
C2365 C2362 1.511 . S
C2365 H2379 0.961 . S
C2365 H2380 0.961 . S
C2365 H2381 0.961 . S
C2366 C2367 1.370 1_545 S
C2366 C2368 1.363 . S
C2366 H2382 0.931 . S
C2367 C2366 1.370 1_565 S
C2367 C2371 1.408 . S
C2368 C2366 1.363 . S
C2368 C2369 1.370 1_545 S
C2368 C2372 1.524 . S
C2369 C2361 1.503 . S
C2369 C2368 1.370 1_565 S
C2369 C2370 1.403 . S
C2370 C2369 1.403 . S
C2370 C2371 1.404 . S
C2370 C2373 1.539 . S
C2371 C2367 1.408 . S
C2371 C2370 1.404 . S
C2371 H2383 0.930 . S
C2372 C2368 1.524 . S
C2372 H2384 0.956 . S
C2372 H2385 0.961 . S
C2372 H2386 0.961 . S
C2373 C2370 1.539 . S
C2373 H2387 0.958 . S
C2373 H2388 0.961 . S
C2373 H2389 0.960 . S
H2374 C2358 0.931 . S
H2375 C2363 0.929 . S
H2376 C2364 0.960 . S
H2377 C2364 0.962 . S
H2378 C2364 0.960 . S
H2379 C2365 0.961 . S
H2380 C2365 0.961 . S
H2381 C2365 0.961 . S
H2382 C2366 0.931 . S
H2383 C2371 0.930 . S
H2384 C2372 0.956 . S
H2385 C2372 0.961 . S
H2386 C2372 0.961 . S
H2387 C2373 0.958 . S
H2388 C2373 0.961 . S
H2389 C2373 0.960 . S
C2390 C2391 1.391 . S
C2390 C2392 1.394 . S
C2390 H2406 0.931 . S
C2391 C2390 1.391 . S
C2391 C2395 1.376 1_455 S
C2392 C2390 1.394 . S
C2392 C2393 1.369 . S
C2392 C2396 1.531 . S
C2393 C2392 1.369 . S
C2393 C2394 1.410 1_455 S
C2393 C2401 1.503 . S
C2394 C2393 1.410 1_655 S
C2394 C2395 1.392 . S
C2394 C2397 1.511 . S
C2395 C2391 1.376 1_655 S
C2395 C2394 1.392 . S
C2395 H2407 0.929 . S
C2396 C2392 1.531 . S
C2396 H2408 0.960 . S
C2396 H2409 0.962 . S
C2396 H2410 0.960 . S
C2397 C2394 1.511 . S
C2397 H2411 0.961 . S
C2397 H2412 0.961 . S
C2397 H2413 0.961 . S
C2398 C2399 1.385 . S
C2398 C2400 1.363 . S
C2398 H2414 0.931 . S
C2399 C2398 1.385 . S
C2399 C2403 1.377 1_455 S
C2400 C2398 1.363 . S
C2400 C2401 1.370 . S
C2400 C2404 1.524 . S
C2401 C2393 1.503 . S
C2401 C2400 1.370 . S
C2401 C2402 1.403 1_455 S
C2402 C2401 1.403 1_655 S
C2402 C2403 1.404 . S
C2402 C2405 1.539 . S
C2403 C2399 1.377 1_655 S
C2403 C2402 1.404 . S
C2403 H2415 0.930 . S
C2404 C2400 1.524 . S
C2404 H2416 0.956 . S
C2404 H2417 0.961 . S
C2404 H2418 0.961 . S
C2405 C2402 1.539 . S
C2405 H2419 0.958 . S
C2405 H2420 0.961 . S
C2405 H2421 0.960 . S
H2406 C2390 0.931 . S
H2407 C2395 0.929 . S
H2408 C2396 0.960 . S
H2409 C2396 0.962 . S
H2410 C2396 0.960 . S
H2411 C2397 0.961 . S
H2412 C2397 0.961 . S
H2413 C2397 0.961 . S
H2414 C2398 0.931 . S
H2415 C2403 0.930 . S
H2416 C2404 0.956 . S
H2417 C2404 0.961 . S
H2418 C2404 0.961 . S
H2419 C2405 0.958 . S
H2420 C2405 0.961 . S
H2421 C2405 0.960 . S
C2422 C2423 1.391 . S
C2422 C2424 1.394 . S
C2422 H2438 0.931 . S
C2423 C2422 1.391 . S
C2423 C2427 1.376 . S
C2424 C2422 1.394 . S
C2424 C2425 1.369 . S
C2424 C2428 1.531 . S
C2425 C2424 1.369 . S
C2425 C2426 1.410 . S
C2425 C2433 1.503 . S
C2426 C2425 1.410 . S
C2426 C2427 1.392 . S
C2426 C2429 1.511 . S
C2427 C2423 1.376 . S
C2427 C2426 1.392 . S
C2427 H2439 0.929 . S
C2428 C2424 1.531 . S
C2428 H2440 0.960 . S
C2428 H2441 0.962 . S
C2428 H2442 0.960 . S
C2429 C2426 1.511 . S
C2429 H2443 0.961 . S
C2429 H2444 0.961 . S
C2429 H2445 0.961 . S
C2430 C2431 1.370 . S
C2430 C2432 1.363 . S
C2430 H2446 0.931 . S
C2431 C2430 1.370 . S
C2431 C2435 1.408 . S
C2432 C2430 1.363 . S
C2432 C2433 1.370 . S
C2432 C2436 1.524 . S
C2433 C2425 1.503 . S
C2433 C2432 1.370 . S
C2433 C2434 1.403 . S
C2434 C2433 1.403 . S
C2434 C2435 1.404 . S
C2434 C2437 1.539 . S
C2435 C2431 1.408 . S
C2435 C2434 1.404 . S
C2435 H2447 0.930 . S
C2436 C2432 1.524 . S
C2436 H2448 0.956 . S
C2436 H2449 0.961 . S
C2436 H2450 0.961 . S
C2437 C2434 1.539 . S
C2437 H2451 0.958 . S
C2437 H2452 0.961 . S
C2437 H2453 0.960 . S
H2438 C2422 0.931 . S
H2439 C2427 0.929 . S
H2440 C2428 0.960 . S
H2441 C2428 0.962 . S
H2442 C2428 0.960 . S
H2443 C2429 0.961 . S
H2444 C2429 0.961 . S
H2445 C2429 0.961 . S
H2446 C2430 0.931 . S
H2447 C2435 0.930 . S
H2448 C2436 0.956 . S
H2449 C2436 0.961 . S
H2450 C2436 0.961 . S
H2451 C2437 0.958 . S
H2452 C2437 0.961 . S
H2453 C2437 0.960 . S
C2454 C2455 1.391 . S
C2454 C2456 1.394 . S
C2454 H2470 0.931 . S
C2455 C2454 1.391 . S
C2455 C2459 1.376 . S
C2456 C2454 1.394 . S
C2456 C2457 1.369 . S
C2456 C2460 1.531 . S
C2457 C2456 1.369 . S
C2457 C2458 1.410 . S
C2457 C2465 1.503 . S
C2458 C2457 1.410 . S
C2458 C2459 1.392 . S
C2458 C2461 1.511 . S
C2459 C2455 1.376 . S
C2459 C2458 1.392 . S
C2459 H2471 0.929 . S
C2460 C2456 1.531 . S
C2460 H2472 0.960 . S
C2460 H2473 0.962 . S
C2460 H2474 0.960 . S
C2461 C2458 1.511 . S
C2461 H2475 0.961 . S
C2461 H2476 0.961 . S
C2461 H2477 0.961 . S
C2462 C2463 1.370 . S
C2462 C2464 1.363 . S
C2462 H2478 0.931 . S
C2463 C2462 1.370 . S
C2463 C2467 1.408 . S
C2464 C2462 1.363 . S
C2464 C2465 1.370 . S
C2464 C2468 1.524 . S
C2465 C2457 1.503 . S
C2465 C2464 1.370 . S
C2465 C2466 1.403 . S
C2466 C2465 1.403 . S
C2466 C2467 1.404 . S
C2466 C2469 1.539 . S
C2467 C2463 1.408 . S
C2467 C2466 1.404 . S
C2467 H2479 0.930 . S
C2468 C2464 1.524 . S
C2468 H2480 0.956 . S
C2468 H2481 0.961 . S
C2468 H2482 0.961 . S
C2469 C2466 1.539 . S
C2469 H2483 0.958 . S
C2469 H2484 0.961 . S
C2469 H2485 0.960 . S
H2470 C2454 0.931 . S
H2471 C2459 0.929 . S
H2472 C2460 0.960 . S
H2473 C2460 0.962 . S
H2474 C2460 0.960 . S
H2475 C2461 0.961 . S
H2476 C2461 0.961 . S
H2477 C2461 0.961 . S
H2478 C2462 0.931 . S
H2479 C2467 0.930 . S
H2480 C2468 0.956 . S
H2481 C2468 0.961 . S
H2482 C2468 0.961 . S
H2483 C2469 0.958 . S
H2484 C2469 0.961 . S
H2485 C2469 0.960 . S
C2486 C2487 1.391 . S
C2486 C2488 1.394 . S
C2486 H2502 0.931 . S
C2487 C2486 1.391 . S
C2487 C2491 1.376 . S
C2488 C2486 1.394 . S
C2488 C2489 1.369 . S
C2488 C2492 1.531 . S
C2489 C2488 1.369 . S
C2489 C2490 1.410 . S
C2489 C2497 1.503 . S
C2490 C2489 1.410 . S
C2490 C2491 1.392 . S
C2490 C2493 1.511 . S
C2491 C2487 1.376 . S
C2491 C2490 1.392 . S
C2491 H2503 0.929 . S
C2492 C2488 1.531 . S
C2492 H2504 0.960 . S
C2492 H2505 0.962 . S
C2492 H2506 0.960 . S
C2493 C2490 1.511 . S
C2493 H2507 0.961 . S
C2493 H2508 0.961 . S
C2493 H2509 0.961 . S
C2494 C2495 1.370 . S
C2494 C2496 1.363 . S
C2494 H2510 0.931 . S
C2495 C2494 1.370 . S
C2495 C2499 1.408 . S
C2496 C2494 1.363 . S
C2496 C2497 1.370 . S
C2496 C2500 1.524 . S
C2497 C2489 1.503 . S
C2497 C2496 1.370 . S
C2497 C2498 1.403 . S
C2498 C2497 1.403 . S
C2498 C2499 1.404 . S
C2498 C2501 1.539 . S
C2499 C2495 1.408 . S
C2499 C2498 1.404 . S
C2499 H2511 0.930 . S
C2500 C2496 1.524 . S
C2500 H2512 0.956 . S
C2500 H2513 0.961 . S
C2500 H2514 0.961 . S
C2501 C2498 1.539 . S
C2501 H2515 0.958 . S
C2501 H2516 0.961 . S
C2501 H2517 0.960 . S
H2502 C2486 0.931 . S
H2503 C2491 0.929 . S
H2504 C2492 0.960 . S
H2505 C2492 0.962 . S
H2506 C2492 0.960 . S
H2507 C2493 0.961 . S
H2508 C2493 0.961 . S
H2509 C2493 0.961 . S
H2510 C2494 0.931 . S
H2511 C2499 0.930 . S
H2512 C2500 0.956 . S
H2513 C2500 0.961 . S
H2514 C2500 0.961 . S
H2515 C2501 0.958 . S
H2516 C2501 0.961 . S
H2517 C2501 0.960 . S
C2518 C2519 1.391 . S
C2518 C2520 1.394 . S
C2518 H2534 0.931 . S
C2519 C2518 1.391 . S
C2519 C2523 1.376 . S
C2520 C2518 1.394 . S
C2520 C2521 1.369 . S
C2520 C2524 1.531 . S
C2521 C2520 1.369 . S
C2521 C2522 1.410 . S
C2521 C2529 1.503 . S
C2522 C2521 1.410 . S
C2522 C2523 1.392 . S
C2522 C2525 1.511 . S
C2523 C2519 1.376 . S
C2523 C2522 1.392 . S
C2523 H2535 0.929 . S
C2524 C2520 1.531 . S
C2524 H2536 0.960 . S
C2524 H2537 0.962 . S
C2524 H2538 0.960 . S
C2525 C2522 1.511 . S
C2525 H2539 0.961 . S
C2525 H2540 0.961 . S
C2525 H2541 0.961 . S
C2526 C2527 1.370 . S
C2526 C2528 1.363 . S
C2526 H2542 0.931 . S
C2527 C2526 1.370 . S
C2527 C2531 1.408 . S
C2528 C2526 1.363 . S
C2528 C2529 1.370 . S
C2528 C2532 1.524 . S
C2529 C2521 1.503 . S
C2529 C2528 1.370 . S
C2529 C2530 1.403 . S
C2530 C2529 1.403 . S
C2530 C2531 1.404 . S
C2530 C2533 1.539 . S
C2531 C2527 1.408 . S
C2531 C2530 1.404 . S
C2531 H2543 0.930 . S
C2532 C2528 1.524 . S
C2532 H2544 0.956 . S
C2532 H2545 0.961 . S
C2532 H2546 0.961 . S
C2533 C2530 1.539 . S
C2533 H2547 0.958 . S
C2533 H2548 0.961 . S
C2533 H2549 0.960 . S
H2534 C2518 0.931 . S
H2535 C2523 0.929 . S
H2536 C2524 0.960 . S
H2537 C2524 0.962 . S
H2538 C2524 0.960 . S
H2539 C2525 0.961 . S
H2540 C2525 0.961 . S
H2541 C2525 0.961 . S
H2542 C2526 0.931 . S
H2543 C2531 0.930 . S
H2544 C2532 0.956 . S
H2545 C2532 0.961 . S
H2546 C2532 0.961 . S
H2547 C2533 0.958 . S
H2548 C2533 0.961 . S
H2549 C2533 0.960 . S
C2550 C2551 1.391 . S
C2550 C2552 1.394 . S
C2550 H2566 0.931 . S
C2551 C2550 1.391 . S
C2551 C2555 1.376 . S
C2552 C2550 1.394 . S
C2552 C2553 1.369 . S
C2552 C2556 1.531 . S
C2553 C2552 1.369 . S
C2553 C2554 1.410 . S
C2553 C2561 1.503 . S
C2554 C2553 1.410 . S
C2554 C2555 1.392 . S
C2554 C2557 1.511 . S
C2555 C2551 1.376 . S
C2555 C2554 1.392 . S
C2555 H2567 0.929 . S
C2556 C2552 1.531 . S
C2556 H2568 0.960 . S
C2556 H2569 0.962 . S
C2556 H2570 0.960 . S
C2557 C2554 1.511 . S
C2557 H2571 0.961 1_545 S
C2557 H2572 0.940 1_545 S
C2557 H2573 0.961 . S
C2558 C2559 1.370 1_565 S
C2558 C2560 1.363 . S
C2558 H2574 0.931 . S
C2559 C2558 1.370 1_545 S
C2559 C2563 1.408 . S
C2560 C2558 1.363 . S
C2560 C2561 1.370 1_565 S
C2560 C2564 1.524 . S
C2561 C2553 1.503 . S
C2561 C2560 1.370 1_545 S
C2561 C2562 1.403 . S
C2562 C2561 1.403 . S
C2562 C2563 1.404 . S
C2562 C2565 1.539 . S
C2563 C2559 1.408 . S
C2563 C2562 1.404 . S
C2563 H2575 0.930 . S
C2564 C2560 1.524 . S
C2564 H2576 0.956 . S
C2564 H2577 0.961 . S
C2564 H2578 0.961 . S
C2565 C2562 1.539 . S
C2565 H2579 0.958 . S
C2565 H2580 0.961 . S
C2565 H2581 0.960 . S
H2566 C2550 0.931 . S
H2567 C2555 0.929 . S
H2568 C2556 0.960 . S
H2569 C2556 0.962 . S
H2570 C2556 0.960 . S
H2571 C2557 0.961 1_565 S
H2572 C2557 0.940 1_565 S
H2573 C2557 0.961 . S
H2574 C2558 0.931 . S
H2575 C2563 0.930 . S
H2576 C2564 0.956 . S
H2577 C2564 0.961 . S
H2578 C2564 0.961 . S
H2579 C2565 0.958 . S
H2580 C2565 0.961 . S
H2581 C2565 0.960 . S
C2582 C2583 1.391 . S
C2582 C2584 1.394 . S
C2582 H2598 0.931 . S
C2583 C2582 1.391 . S
C2583 C2587 1.376 1_655 S
C2584 C2582 1.394 . S
C2584 C2585 1.369 . S
C2584 C2588 1.531 . S
C2585 C2584 1.369 . S
C2585 C2586 1.410 1_655 S
C2585 C2593 1.503 . S
C2586 C2585 1.410 1_455 S
C2586 C2587 1.392 . S
C2586 C2589 1.511 . S
C2587 C2583 1.376 1_455 S
C2587 C2586 1.392 . S
C2587 H2599 0.929 . S
C2588 C2584 1.531 . S
C2588 H2600 0.960 . S
C2588 H2601 0.962 . S
C2588 H2602 0.960 . S
C2589 C2586 1.511 . S
C2589 H2603 0.961 . S
C2589 H2604 0.961 . S
C2589 H2605 0.961 . S
C2590 C2591 1.370 1_455 S
C2590 C2592 1.363 . S
C2590 H2606 0.931 . S
C2591 C2590 1.370 1_655 S
C2591 C2595 1.408 . S
C2592 C2590 1.363 . S
C2592 C2593 1.370 1_455 S
C2592 C2596 1.524 . S
C2593 C2585 1.503 . S
C2593 C2592 1.370 1_655 S
C2593 C2594 1.403 . S
C2594 C2593 1.403 . S
C2594 C2595 1.404 . S
C2594 C2597 1.539 . S
C2595 C2591 1.408 . S
C2595 C2594 1.404 . S
C2595 H2607 0.930 . S
C2596 C2592 1.524 . S
C2596 H2608 0.956 . S
C2596 H2609 0.961 . S
C2596 H2610 0.961 . S
C2597 C2594 1.539 . S
C2597 H2611 0.958 . S
C2597 H2612 0.961 . S
C2597 H2613 0.960 . S
H2598 C2582 0.931 . S
H2599 C2587 0.929 . S
H2600 C2588 0.960 . S
H2601 C2588 0.962 . S
H2602 C2588 0.960 . S
H2603 C2589 0.961 . S
H2604 C2589 0.961 . S
H2605 C2589 0.961 . S
H2606 C2590 0.931 . S
H2607 C2595 0.930 . S
H2608 C2596 0.956 . S
H2609 C2596 0.961 . S
H2610 C2596 0.961 . S
H2611 C2597 0.958 . S
H2612 C2597 0.961 . S
H2613 C2597 0.960 . S
C2614 C2615 1.391 . S
C2614 C2616 1.394 . S
C2614 H2630 0.931 . S
C2615 C2614 1.391 . S
C2615 C2619 1.376 . S
C2616 C2614 1.394 . S
C2616 C2617 1.369 . S
C2616 C2620 1.531 . S
C2617 C2616 1.369 . S
C2617 C2618 1.410 . S
C2617 C2625 1.503 . S
C2618 C2617 1.410 . S
C2618 C2619 1.392 . S
C2618 C2621 1.511 . S
C2619 C2615 1.376 . S
C2619 C2618 1.392 . S
C2619 H2631 0.929 . S
C2620 C2616 1.531 . S
C2620 H2632 0.960 . S
C2620 H2633 0.962 . S
C2620 H2634 0.960 . S
C2621 C2618 1.511 . S
C2621 H2635 0.961 . S
C2621 H2636 0.961 . S
C2621 H2637 0.961 . S
C2622 C2623 1.370 . S
C2622 C2624 1.363 . S
C2622 H2638 0.931 . S
C2623 C2622 1.370 . S
C2623 C2627 1.408 . S
C2624 C2622 1.363 . S
C2624 C2625 1.370 . S
C2624 C2628 1.524 . S
C2625 C2617 1.503 . S
C2625 C2624 1.370 . S
C2625 C2626 1.403 . S
C2626 C2625 1.403 . S
C2626 C2627 1.404 . S
C2626 C2629 1.539 . S
C2627 C2623 1.408 . S
C2627 C2626 1.404 . S
C2627 H2639 0.930 . S
C2628 C2624 1.524 . S
C2628 H2640 0.956 . S
C2628 H2641 0.961 . S
C2628 H2642 0.961 . S
C2629 C2626 1.539 . S
C2629 H2643 0.958 . S
C2629 H2644 0.961 . S
C2629 H2645 0.960 . S
H2630 C2614 0.931 . S
H2631 C2619 0.929 . S
H2632 C2620 0.960 . S
H2633 C2620 0.962 . S
H2634 C2620 0.960 . S
H2635 C2621 0.961 . S
H2636 C2621 0.961 . S
H2637 C2621 0.961 . S
H2638 C2622 0.931 . S
H2639 C2627 0.930 . S
H2640 C2628 0.956 . S
H2641 C2628 0.961 . S
H2642 C2628 0.961 . S
H2643 C2629 0.958 . S
H2644 C2629 0.961 . S
H2645 C2629 0.960 . S
C2646 C2647 1.391 . S
C2646 C2648 1.394 . S
C2646 H2662 0.931 . S
C2647 C2646 1.391 . S
C2647 C2651 1.376 . S
C2648 C2646 1.394 . S
C2648 C2649 1.369 . S
C2648 C2652 1.531 . S
C2649 C2648 1.369 . S
C2649 C2650 1.410 . S
C2649 C2657 1.503 . S
C2650 C2649 1.410 . S
C2650 C2651 1.392 . S
C2650 C2653 1.511 . S
C2651 C2647 1.376 . S
C2651 C2650 1.392 . S
C2651 H2663 0.929 . S
C2652 C2648 1.531 . S
C2652 H2664 0.960 . S
C2652 H2665 0.962 . S
C2652 H2666 0.960 . S
C2653 C2650 1.511 . S
C2653 H2667 0.961 . S
C2653 H2668 0.961 . S
C2653 H2669 0.961 . S
C2654 C2655 1.370 . S
C2654 C2656 1.363 . S
C2654 H2670 0.931 . S
C2655 C2654 1.370 . S
C2655 C2659 1.408 . S
C2656 C2654 1.363 . S
C2656 C2657 1.370 . S
C2656 C2660 1.524 . S
C2657 C2649 1.503 . S
C2657 C2656 1.370 . S
C2657 C2658 1.403 . S
C2658 C2657 1.403 . S
C2658 C2659 1.404 . S
C2658 C2661 1.539 . S
C2659 C2655 1.408 . S
C2659 C2658 1.404 . S
C2659 H2671 0.930 . S
C2660 C2656 1.524 . S
C2660 H2672 0.956 . S
C2660 H2673 0.961 . S
C2660 H2674 0.961 . S
C2661 C2658 1.539 . S
C2661 H2675 0.958 . S
C2661 H2676 0.961 . S
C2661 H2677 0.960 . S
H2662 C2646 0.931 . S
H2663 C2651 0.929 . S
H2664 C2652 0.960 . S
H2665 C2652 0.962 . S
H2666 C2652 0.960 . S
H2667 C2653 0.961 . S
H2668 C2653 0.961 . S
H2669 C2653 0.961 . S
H2670 C2654 0.931 . S
H2671 C2659 0.930 . S
H2672 C2660 0.956 . S
H2673 C2660 0.961 . S
H2674 C2660 0.961 . S
H2675 C2661 0.958 . S
H2676 C2661 0.961 . S
H2677 C2661 0.960 . S
C2678 C2679 1.391 . S
C2678 C2680 1.394 . S
C2678 H2694 0.931 . S
C2679 C2678 1.391 . S
C2679 C2683 1.376 . S
C2680 C2678 1.394 . S
C2680 C2681 1.369 . S
C2680 C2684 1.531 . S
C2681 C2680 1.369 . S
C2681 C2682 1.410 . S
C2681 C2689 1.503 . S
C2682 C2681 1.410 . S
C2682 C2683 1.392 . S
C2682 C2685 1.511 . S
C2683 C2679 1.376 . S
C2683 C2682 1.392 . S
C2683 H2695 0.929 . S
C2684 C2680 1.531 . S
C2684 H2696 0.960 . S
C2684 H2697 0.962 . S
C2684 H2698 0.960 . S
C2685 C2682 1.511 . S
C2685 H2699 0.961 . S
C2685 H2700 0.961 . S
C2685 H2701 0.961 . S
C2686 C2687 1.370 . S
C2686 C2688 1.363 . S
C2686 H2702 0.931 . S
C2687 C2686 1.370 . S
C2687 C2691 1.408 . S
C2688 C2686 1.363 . S
C2688 C2689 1.370 . S
C2688 C2692 1.524 . S
C2689 C2681 1.503 . S
C2689 C2688 1.370 . S
C2689 C2690 1.403 . S
C2690 C2689 1.403 . S
C2690 C2691 1.404 . S
C2690 C2693 1.539 . S
C2691 C2687 1.408 . S
C2691 C2690 1.404 . S
C2691 H2703 0.930 . S
C2692 C2688 1.524 . S
C2692 H2704 0.956 . S
C2692 H2705 0.961 . S
C2692 H2706 0.961 . S
C2693 C2690 1.539 . S
C2693 H2707 0.958 . S
C2693 H2708 0.961 . S
C2693 H2709 0.960 . S
H2694 C2678 0.931 . S
H2695 C2683 0.929 . S
H2696 C2684 0.960 . S
H2697 C2684 0.962 . S
H2698 C2684 0.960 . S
H2699 C2685 0.961 . S
H2700 C2685 0.961 . S
H2701 C2685 0.961 . S
H2702 C2686 0.931 . S
H2703 C2691 0.930 . S
H2704 C2692 0.956 . S
H2705 C2692 0.961 . S
H2706 C2692 0.961 . S
H2707 C2693 0.958 . S
H2708 C2693 0.961 . S
H2709 C2693 0.960 . S
C2710 C2711 1.391 . S
C2710 C2712 1.394 . S
C2710 H2726 0.931 . S
C2711 C2710 1.391 . S
C2711 C2715 1.376 . S
C2712 C2710 1.394 . S
C2712 C2713 1.369 . S
C2712 C2716 1.531 . S
C2713 C2712 1.369 . S
C2713 C2714 1.410 . S
C2713 C2721 1.503 . S
C2714 C2713 1.410 . S
C2714 C2715 1.392 . S
C2714 C2717 1.511 . S
C2715 C2711 1.376 . S
C2715 C2714 1.392 . S
C2715 H2727 0.929 . S
C2716 C2712 1.531 . S
C2716 H2728 0.960 . S
C2716 H2729 0.962 . S
C2716 H2730 0.960 . S
C2717 C2714 1.511 . S
C2717 H2731 0.961 . S
C2717 H2732 0.961 . S
C2717 H2733 0.961 . S
C2718 C2719 1.370 . S
C2718 C2720 1.363 . S
C2718 H2734 0.931 . S
C2719 C2718 1.370 . S
C2719 C2723 1.408 . S
C2720 C2718 1.363 . S
C2720 C2721 1.370 . S
C2720 C2724 1.524 . S
C2721 C2713 1.503 . S
C2721 C2720 1.370 . S
C2721 C2722 1.403 . S
C2722 C2721 1.403 . S
C2722 C2723 1.404 . S
C2722 C2725 1.539 . S
C2723 C2719 1.408 . S
C2723 C2722 1.404 . S
C2723 H2735 0.930 . S
C2724 C2720 1.524 . S
C2724 H2736 0.956 . S
C2724 H2737 0.961 . S
C2724 H2738 0.961 . S
C2725 C2722 1.539 . S
C2725 H2739 0.958 . S
C2725 H2740 0.961 . S
C2725 H2741 0.960 . S
H2726 C2710 0.931 . S
H2727 C2715 0.929 . S
H2728 C2716 0.960 . S
H2729 C2716 0.962 . S
H2730 C2716 0.960 . S
H2731 C2717 0.961 . S
H2732 C2717 0.961 . S
H2733 C2717 0.961 . S
H2734 C2718 0.931 . S
H2735 C2723 0.930 . S
H2736 C2724 0.956 . S
H2737 C2724 0.961 . S
H2738 C2724 0.961 . S
H2739 C2725 0.958 . S
H2740 C2725 0.961 . S
H2741 C2725 0.960 . S
C2742 C2743 1.391 . S
C2742 C2744 1.394 . S
C2742 H2758 0.931 . S
C2743 C2742 1.391 . S
C2743 C2747 1.376 . S
C2744 C2742 1.394 . S
C2744 C2745 1.369 . S
C2744 C2748 1.531 . S
C2745 C2744 1.369 . S
C2745 C2746 1.410 . S
C2745 C2753 1.503 . S
C2746 C2745 1.410 . S
C2746 C2747 1.392 . S
C2746 C2749 1.511 . S
C2747 C2743 1.376 . S
C2747 C2746 1.392 . S
C2747 H2759 0.929 . S
C2748 C2744 1.531 . S
C2748 H2760 0.960 . S
C2748 H2761 0.962 . S
C2748 H2762 0.960 . S
C2749 C2746 1.511 . S
C2749 H2763 0.961 . S
C2749 H2764 0.961 . S
C2749 H2765 0.961 . S
C2750 C2751 1.370 . S
C2750 C2752 1.363 . S
C2750 H2766 0.931 . S
C2751 C2750 1.370 . S
C2751 C2755 1.408 . S
C2752 C2750 1.363 . S
C2752 C2753 1.370 . S
C2752 C2756 1.524 . S
C2753 C2745 1.503 . S
C2753 C2752 1.370 . S
C2753 C2754 1.403 . S
C2754 C2753 1.403 . S
C2754 C2755 1.404 . S
C2754 C2757 1.539 . S
C2755 C2751 1.408 . S
C2755 C2754 1.404 . S
C2755 H2767 0.930 . S
C2756 C2752 1.524 . S
C2756 H2768 0.956 . S
C2756 H2769 0.961 . S
C2756 H2770 0.961 . S
C2757 C2754 1.539 . S
C2757 H2771 0.958 . S
C2757 H2772 0.961 . S
C2757 H2773 0.960 . S
H2758 C2742 0.931 . S
H2759 C2747 0.929 . S
H2760 C2748 0.960 . S
H2761 C2748 0.962 . S
H2762 C2748 0.960 . S
H2763 C2749 0.961 . S
H2764 C2749 0.961 . S
H2765 C2749 0.961 . S
H2766 C2750 0.931 . S
H2767 C2755 0.930 . S
H2768 C2756 0.956 . S
H2769 C2756 0.961 . S
H2770 C2756 0.961 . S
H2771 C2757 0.958 . S
H2772 C2757 0.961 . S
H2773 C2757 0.960 . S
C2774 C2775 1.391 . S
C2774 C2776 1.394 . S
C2774 H2790 0.931 . S
C2775 C2774 1.391 . S
C2775 C2779 1.376 . S
C2776 C2774 1.394 . S
C2776 C2777 1.369 . S
C2776 C2780 1.531 . S
C2777 C2776 1.369 . S
C2777 C2778 1.410 . S
C2777 C2785 1.503 . S
C2778 C2777 1.410 . S
C2778 C2779 1.392 . S
C2778 C2781 1.511 . S
C2779 C2775 1.376 . S
C2779 C2778 1.392 . S
C2779 H2791 0.929 . S
C2780 C2776 1.531 . S
C2780 H2792 0.960 . S
C2780 H2793 0.962 . S
C2780 H2794 0.960 . S
C2781 C2778 1.511 . S
C2781 H2795 0.961 . S
C2781 H2796 0.961 . S
C2781 H2797 0.961 . S
C2782 C2783 1.370 . S
C2782 C2784 1.363 . S
C2782 H2798 0.931 . S
C2783 C2782 1.370 . S
C2783 C2787 1.408 . S
C2784 C2782 1.363 . S
C2784 C2785 1.370 . S
C2784 C2788 1.524 . S
C2785 C2777 1.503 . S
C2785 C2784 1.370 . S
C2785 C2786 1.403 . S
C2786 C2785 1.403 . S
C2786 C2787 1.404 . S
C2786 C2789 1.539 . S
C2787 C2783 1.408 . S
C2787 C2786 1.404 . S
C2787 H2799 0.930 . S
C2788 C2784 1.524 . S
C2788 H2800 0.956 . S
C2788 H2801 0.961 . S
C2788 H2802 0.961 . S
C2789 C2786 1.539 . S
C2789 H2803 0.958 . S
C2789 H2804 0.961 . S
C2789 H2805 0.960 . S
H2790 C2774 0.931 . S
H2791 C2779 0.929 . S
H2792 C2780 0.960 . S
H2793 C2780 0.962 . S
H2794 C2780 0.960 . S
H2795 C2781 0.961 . S
H2796 C2781 0.961 . S
H2797 C2781 0.961 . S
H2798 C2782 0.931 . S
H2799 C2787 0.930 . S
H2800 C2788 0.956 . S
H2801 C2788 0.961 . S
H2802 C2788 0.961 . S
H2803 C2789 0.958 . S
H2804 C2789 0.961 . S
H2805 C2789 0.960 . S
C2806 C2807 1.391 . S
C2806 C2808 1.394 . S
C2806 H2822 0.931 . S
C2807 C2806 1.391 . S
C2807 C2811 1.376 . S
C2808 C2806 1.394 . S
C2808 C2809 1.369 . S
C2808 C2812 1.531 . S
C2809 C2808 1.369 . S
C2809 C2810 1.410 . S
C2809 C2817 1.503 . S
C2810 C2809 1.410 . S
C2810 C2811 1.392 . S
C2810 C2813 1.511 . S
C2811 C2807 1.376 . S
C2811 C2810 1.392 . S
C2811 H2823 0.929 . S
C2812 C2808 1.531 . S
C2812 H2824 0.960 . S
C2812 H2825 0.962 . S
C2812 H2826 0.960 . S
C2813 C2810 1.511 . S
C2813 H2827 0.961 . S
C2813 H2828 0.961 . S
C2813 H2829 0.961 . S
C2814 C2815 1.370 . S
C2814 C2816 1.363 . S
C2814 H2830 0.931 . S
C2815 C2814 1.370 . S
C2815 C2819 1.408 . S
C2816 C2814 1.363 . S
C2816 C2817 1.370 . S
C2816 C2820 1.524 . S
C2817 C2809 1.503 . S
C2817 C2816 1.370 . S
C2817 C2818 1.403 . S
C2818 C2817 1.403 . S
C2818 C2819 1.404 . S
C2818 C2821 1.539 . S
C2819 C2815 1.408 . S
C2819 C2818 1.404 . S
C2819 H2831 0.930 . S
C2820 C2816 1.524 . S
C2820 H2832 0.956 . S
C2820 H2833 0.961 . S
C2820 H2834 0.961 . S
C2821 C2818 1.539 . S
C2821 H2835 0.958 . S
C2821 H2836 0.961 . S
C2821 H2837 0.960 . S
H2822 C2806 0.931 . S
H2823 C2811 0.929 . S
H2824 C2812 0.960 . S
H2825 C2812 0.962 . S
H2826 C2812 0.960 . S
H2827 C2813 0.961 . S
H2828 C2813 0.961 . S
H2829 C2813 0.961 . S
H2830 C2814 0.931 . S
H2831 C2819 0.930 . S
H2832 C2820 0.956 . S
H2833 C2820 0.961 . S
H2834 C2820 0.961 . S
H2835 C2821 0.958 . S
H2836 C2821 0.961 . S
H2837 C2821 0.960 . S
C2838 C2839 1.391 . S
C2838 C2840 1.394 . S
C2838 H2854 0.931 . S
C2839 C2838 1.391 . S
C2839 C2843 1.376 1_655 S
C2840 C2838 1.394 . S
C2840 C2841 1.391 . S
C2840 C2844 1.531 . S
C2841 C2840 1.391 . S
C2841 C2842 1.412 1_655 S
C2841 C2849 1.499 . S
C2842 C2841 1.412 1_455 S
C2842 C2843 1.392 . S
C2842 C2845 1.511 . S
C2843 C2839 1.376 1_455 S
C2843 C2842 1.392 . S
C2843 H2855 0.929 . S
C2844 C2840 1.531 . S
C2844 H2856 0.960 . S
C2844 H2857 0.962 . S
C2844 H2858 0.960 . S
C2845 C2842 1.511 . S
C2845 H2859 0.961 . S
C2845 H2860 0.961 . S
C2845 H2861 0.961 . S
C2846 C2847 1.406 . S
C2846 C2848 1.363 . S
C2846 H2862 0.931 . S
C2847 C2846 1.406 . S
C2847 C2851 1.389 1_655 S
C2848 C2846 1.363 . S
C2848 C2849 1.388 . S
C2848 C2852 1.524 . S
C2849 C2841 1.499 . S
C2849 C2848 1.388 . S
C2849 C2850 1.369 1_655 S
C2850 C2849 1.369 1_455 S
C2850 C2851 1.404 . S
C2850 C2853 1.539 . S
C2851 C2847 1.389 1_455 S
C2851 C2850 1.404 . S
C2851 H2863 0.930 . S
C2852 C2848 1.524 . S
C2852 H2864 0.956 . S
C2852 H2865 0.961 . S
C2852 H2866 0.961 . S
C2853 C2850 1.539 . S
C2853 H2867 0.958 . S
C2853 H2868 0.961 . S
C2853 H2869 0.960 . S
H2854 C2838 0.931 . S
H2855 C2843 0.929 . S
H2856 C2844 0.960 . S
H2857 C2844 0.962 . S
H2858 C2844 0.960 . S
H2859 C2845 0.961 . S
H2860 C2845 0.961 . S
H2861 C2845 0.961 . S
H2862 C2846 0.931 . S
H2863 C2851 0.930 . S
H2864 C2852 0.956 . S
H2865 C2852 0.961 . S
H2866 C2852 0.961 . S
H2867 C2853 0.958 . S
H2868 C2853 0.961 . S
H2869 C2853 0.960 . S
C2870 C2871 1.391 . S
C2870 C2872 1.394 . S
C2870 H2886 0.931 . S
C2871 C2870 1.391 . S
C2871 C2875 1.376 . S
C2872 C2870 1.394 . S
C2872 C2873 1.369 . S
C2872 C2876 1.531 . S
C2873 C2872 1.369 . S
C2873 C2874 1.410 . S
C2873 C2881 1.503 . S
C2874 C2873 1.410 . S
C2874 C2875 1.392 . S
C2874 C2877 1.511 . S
C2875 C2871 1.376 . S
C2875 C2874 1.392 . S
C2875 H2887 0.929 . S
C2876 C2872 1.531 . S
C2876 H2888 0.960 . S
C2876 H2889 0.962 . S
C2876 H2890 0.960 . S
C2877 C2874 1.511 . S
C2877 H2891 0.961 . S
C2877 H2892 0.961 . S
C2877 H2893 0.961 . S
C2878 C2879 1.370 . S
C2878 C2880 1.363 . S
C2878 H2894 0.931 . S
C2879 C2878 1.370 . S
C2879 C2883 1.408 . S
C2880 C2878 1.363 . S
C2880 C2881 1.370 . S
C2880 C2884 1.524 . S
C2881 C2873 1.503 . S
C2881 C2880 1.370 . S
C2881 C2882 1.403 . S
C2882 C2881 1.403 . S
C2882 C2883 1.404 . S
C2882 C2885 1.539 . S
C2883 C2879 1.408 . S
C2883 C2882 1.404 . S
C2883 H2895 0.930 . S
C2884 C2880 1.524 . S
C2884 H2896 0.956 . S
C2884 H2897 0.961 . S
C2884 H2898 0.961 . S
C2885 C2882 1.539 . S
C2885 H2899 0.958 . S
C2885 H2900 0.961 . S
C2885 H2901 0.960 . S
H2886 C2870 0.931 . S
H2887 C2875 0.929 . S
H2888 C2876 0.960 . S
H2889 C2876 0.962 . S
H2890 C2876 0.960 . S
H2891 C2877 0.961 . S
H2892 C2877 0.961 . S
H2893 C2877 0.961 . S
H2894 C2878 0.931 . S
H2895 C2883 0.930 . S
H2896 C2884 0.956 . S
H2897 C2884 0.961 . S
H2898 C2884 0.961 . S
H2899 C2885 0.958 . S
H2900 C2885 0.961 . S
H2901 C2885 0.960 . S
C2902 C2903 1.391 . S
C2902 C2904 1.394 . S
C2902 H2918 0.931 . S
C2903 C2902 1.391 . S
C2903 C2907 1.376 . S
C2904 C2902 1.394 . S
C2904 C2905 1.369 . S
C2904 C2908 1.531 . S
C2905 C2904 1.369 . S
C2905 C2906 1.410 . S
C2905 C2913 1.503 . S
C2906 C2905 1.410 . S
C2906 C2907 1.392 . S
C2906 C2909 1.511 1_545 S
C2907 C2903 1.376 . S
C2907 C2906 1.392 . S
C2907 H2919 0.929 . S
C2908 C2904 1.531 . S
C2908 H2920 0.960 1_545 S
C2908 H2921 0.962 . S
C2908 H2922 0.960 . S
C2909 C2906 1.511 1_565 S
C2909 H2923 0.961 1_565 S
C2909 H2924 0.961 1_565 S
C2909 H2925 0.961 . S
C2910 C2911 1.395 . S
C2910 C2912 1.363 . S
C2910 H2926 0.931 . S
C2911 C2910 1.395 . S
C2911 C2915 1.363 1_545 S
C2912 C2910 1.363 . S
C2912 C2913 1.370 . S
C2912 C2916 1.524 . S
C2913 C2905 1.503 . S
C2913 C2912 1.370 . S
C2913 C2914 1.403 1_545 S
C2914 C2913 1.403 1_565 S
C2914 C2915 1.404 . S
C2914 C2917 1.539 . S
C2915 C2911 1.363 1_565 S
C2915 C2914 1.404 . S
C2915 H2927 0.930 . S
C2916 C2912 1.524 . S
C2916 H2928 0.956 . S
C2916 H2929 0.961 . S
C2916 H2930 0.961 . S
C2917 C2914 1.539 . S
C2917 H2931 0.958 . S
C2917 H2932 0.961 . S
C2917 H2933 0.960 . S
H2918 C2902 0.931 . S
H2919 C2907 0.929 . S
H2920 C2908 0.960 1_565 S
H2921 C2908 0.962 . S
H2922 C2908 0.960 . S
H2923 C2909 0.961 1_545 S
H2924 C2909 0.961 1_545 S
H2925 C2909 0.961 . S
H2926 C2910 0.931 . S
H2927 C2915 0.930 . S
H2928 C2916 0.956 . S
H2929 C2916 0.961 . S
H2930 C2916 0.961 . S
H2931 C2917 0.958 . S
H2932 C2917 0.961 . S
H2933 C2917 0.960 . S
C631 C9 1.550 1_655 S
C639 C458 1.511 1_655 S
C663 C19 1.566 . S
C671 C471 1.517 . S
C703 C500 1.492 1_545 S
C695 C33 1.578 . S
C727 C37 1.552 . S
C735 C513 1.501 . S
C759 C5 1.531 . S
C767 C534 1.499 . S
C791 C23 1.575 . S
C799 C563 1.496 . S
C823 C47 1.562 . S
C831 C542 1.501 . S
C863 C555 1.517 . S
C855 C65 1.572 . S
C895 C521 1.490 1_545 S
C887 C75 1.502 1_545 S
C919 C79 1.499 . S
C927 C492 1.452 1_545 S
C959 C450 1.501 1_655 S
C951 C51 1.560 1_655 S
C983 C61 1.563 . S
C991 C479 1.512 . S
C1015 C93 1.643 . S
C1023 C584 1.565 . S
C1047 C103 1.582 . S
C1055 C597 1.571 . S
C1087 C626 1.543 . S
C1079 C117 1.617 . S
C1111 C121 1.585 . S
C1119 C261 1.574 . S
C1143 C89 1.593 . S
C1151 C282 1.575 . S
C1175 C107 1.612 . S
C1183 C311 1.508 . S
C1207 C131 1.589 . S
C1215 C290 1.527 . S
C1239 C149 1.608 . S
C1247 C303 1.530 . S
C1279 C269 1.525 . S
C1271 C159 1.578 . S
C1311 C618 1.525 . S
C1303 C163 1.579 . S
C1343 C576 1.556 . S
C1335 C135 1.627 . S
C1375 C605 1.560 . S
C1367 C145 1.587 . S
C1399 C177 1.617 . S
C1407 C332 1.510 . S
C1431 C187 1.567 . S
C1439 C345 1.549 . S
C1463 C201 1.630 . S
C1471 C374 1.529 . S
C1495 C205 1.625 . S
C1503 C387 1.602 . S
C1535 C408 1.568 . S
C1527 C173 1.610 . S
C1567 C437 1.526 . S
C1559 C191 1.632 . S
C1599 C416 1.584 . S
C1591 C215 1.616 . S
C1631 C429 1.546 . S
C1623 C233 1.628 . S
C1655 C243 1.557 . S
C1663 C395 1.540 . S
C1695 C366 1.459 . S
C1687 C247 1.529 . S
C1719 C219 1.630 . S
C1727 C324 1.559 . S
C1759 C353 1.537 . S
C1751 C229 1.586 . S
C1791 C264 1.381 . S
C1783 C11 1.504 . S
C1815 C14 1.451 . S
C1823 C285 1.377 . S
C1855 C313 1.410 . S
C1847 C28 1.527 . S
C1887 C334 1.432 . S
C1879 C39 1.530 . S
C1919 C348 1.419 . S
C1911 C0 1.501 . S
C1951 C376 1.350 . S
C1943 C25 1.443 . S
C1975 C42 1.560 . S
C1983 C369 1.402 . S
C2007 C67 1.489 . S
C2015 C327 1.359 . S
C2039 C70 1.471 . S
C2047 C355 1.383 . S
C2071 C81 1.484 . S
C2079 C292 1.422 . S
C2111 C306 1.357 . S
C2103 C53 1.534 . S
C2135 C56 1.512 . S
C2143 C271 1.442 . S
C2175 C390 1.368 . S
C2167 C95 1.498 . S
C2199 C98 1.521 . S
C2207 C411 1.405 . S
C2231 C112 1.587 . S
C2239 C439 1.485 . S
C2271 C460 1.372 . S
C2263 C123 1.440 . S
C2295 C84 1.497 . S
C2303 C474 1.415 . S
C2327 C109 1.403 . S
C2335 C502 1.340 . S
C2359 C126 1.489 . S
C2367 C495 1.387 . S
C2391 C151 1.462 . S
C2399 C453 1.371 . S
C2431 C481 1.414 . S
C2423 C154 1.498 . S
C2455 C165 1.482 . S
C2463 C418 1.396 . S
C2487 C137 1.558 . S
C2495 C432 1.413 . S
C2527 C397 1.504 . S
C2519 C140 1.558 . S
C2559 C516 1.351 1_545 S
C2551 C179 1.437 . S
C2583 C182 1.424 . S
C2591 C537 1.331 1_655 S
C2615 C196 1.532 . S
C2623 C565 1.416 . S
C2655 C586 1.389 . S
C2647 C207 1.507 . S
C2687 C600 1.410 . S
C2679 C168 1.535 . S
C2711 C193 1.493 . S
C2719 C628 1.405 . S
C2743 C210 1.573 . S
C2751 C621 1.408 . S
C2775 C235 1.559 . S
C2783 C579 1.411 . S
C2815 C607 1.426 . S
C2807 C238 1.530 . S
C2847 C544 1.315 1_655 S
C2839 C249 1.418 . S
C2879 C558 1.356 . S
C2871 C221 1.530 . S
C2903 C224 1.487 . S
C2911 C523 1.405 1_545 S
