# Generated by pormake.
# Topology zzz, (3,6)-cn, num edge types: 1
# Building blocks:
#     Node 0, Type 0, BuildingBlock: BETDIP_clean_linker_0, # of connection points: 3
#     Node 1, Type 0, BuildingBlock: BETDIP_clean_linker_0, # of connection points: 3
#     Node 2, Type 0, BuildingBlock: BETDIP_clean_linker_0, # of connection points: 3
#     Node 3, Type 0, BuildingBlock: BETDIP_clean_linker_0, # of connection points: 3
#     Node 4, Type 0, BuildingBlock: BETDIP_clean_linker_0, # of connection points: 3
#     Node 5, Type 0, BuildingBlock: BETDIP_clean_linker_0, # of connection points: 3
#     Node 6, Type 0, BuildingBlock: BETDIP_clean_linker_0, # of connection points: 3
#     Node 7, Type 0, BuildingBlock: BETDIP_clean_linker_0, # of connection points: 3
#     Node 8, Type 1, BuildingBlock: GEDQOX_clean_sbu_0, # of connection points: 6
#     Node 9, Type 1, BuildingBlock: GEDQOX_clean_sbu_0, # of connection points: 6
#     Node 10, Type 1, BuildingBlock: GEDQOX_clean_sbu_0, # of connection points: 6
#     Node 11, Type 1, BuildingBlock: GEDQOX_clean_sbu_0, # of connection points: 6
#     Edge 12, Type (0, 1), BuildingBlock: MIFKUJ_clean_linker_0, # of connection points: 2
#     Edge 13, Type (0, 1), BuildingBlock: MIFKUJ_clean_linker_0, # of connection points: 2
#     Edge 14, Type (0, 1), BuildingBlock: MIFKUJ_clean_linker_0, # of connection points: 2
#     Edge 15, Type (0, 1), BuildingBlock: MIFKUJ_clean_linker_0, # of connection points: 2
#     Edge 16, Type (0, 1), BuildingBlock: MIFKUJ_clean_linker_0, # of connection points: 2
#     Edge 17, Type (0, 1), BuildingBlock: MIFKUJ_clean_linker_0, # of connection points: 2
#     Edge 18, Type (0, 1), BuildingBlock: MIFKUJ_clean_linker_0, # of connection points: 2
#     Edge 19, Type (0, 1), BuildingBlock: MIFKUJ_clean_linker_0, # of connection points: 2
#     Edge 20, Type (0, 1), BuildingBlock: MIFKUJ_clean_linker_0, # of connection points: 2
#     Edge 21, Type (0, 1), BuildingBlock: MIFKUJ_clean_linker_0, # of connection points: 2
#     Edge 22, Type (0, 1), BuildingBlock: MIFKUJ_clean_linker_0, # of connection points: 2
#     Edge 23, Type (0, 1), BuildingBlock: MIFKUJ_clean_linker_0, # of connection points: 2
#     Edge 24, Type (0, 1), BuildingBlock: MIFKUJ_clean_linker_0, # of connection points: 2
#     Edge 25, Type (0, 1), BuildingBlock: MIFKUJ_clean_linker_0, # of connection points: 2
#     Edge 26, Type (0, 1), BuildingBlock: MIFKUJ_clean_linker_0, # of connection points: 2
#     Edge 27, Type (0, 1), BuildingBlock: MIFKUJ_clean_linker_0, # of connection points: 2
#     Edge 28, Type (0, 1), BuildingBlock: MIFKUJ_clean_linker_0, # of connection points: 2
#     Edge 29, Type (0, 1), BuildingBlock: MIFKUJ_clean_linker_0, # of connection points: 2
#     Edge 30, Type (0, 1), BuildingBlock: MIFKUJ_clean_linker_0, # of connection points: 2
#     Edge 31, Type (0, 1), BuildingBlock: MIFKUJ_clean_linker_0, # of connection points: 2
#     Edge 32, Type (0, 1), BuildingBlock: MIFKUJ_clean_linker_0, # of connection points: 2
#     Edge 33, Type (0, 1), BuildingBlock: MIFKUJ_clean_linker_0, # of connection points: 2
#     Edge 34, Type (0, 1), BuildingBlock: MIFKUJ_clean_linker_0, # of connection points: 2
#     Edge 35, Type (0, 1), BuildingBlock: MIFKUJ_clean_linker_0, # of connection points: 2
# Relax obj value: 0.121
# Max RMSD: 0.169
# Mean RMSD: 0.091
data_MOF--net-zzz--node1-GEDQOX_clean_sbu_0--node2-BETDIP_clean_linker_0--edge1-MIFKUJ_clean_linker_0
_symmetry_space_group_name_H-M    P1
_symmetry_Int_Tables_number       1
_symmetry_cell_setting            triclinic
loop_
_symmetry_equiv_pos_as_xyz
'x, y, z'
_cell_length_a     70.202047
_cell_length_b     69.733333
_cell_length_c     21.160537
_cell_angle_alpha  81.106112
_cell_angle_beta   88.837017
_cell_angle_gamma 98.024301
loop_
_atom_site_label
_atom_site_type_symbol
_atom_site_fract_x
_atom_site_fract_y
_atom_site_fract_z
_atom_type_partial_charge
H0 H 0.75819 0.55237 0.23865 0.0
H1 H 0.76528 0.5345 0.05401 0.0
H2 H 0.81262 0.53807 0.17891 0.0
H3 H 0.74178 0.55451 0.03061 0.0
C4 C 0.73204 0.54944 0.07225 0.0
C5 C 0.76707 0.54766 0.20317 0.0
C6 C 0.78633 0.54563 0.21522 0.0
C7 C 0.75935 0.54399 0.14461 0.0
C8 C 0.77108 0.53792 0.09863 0.0
C9 C 0.79021 0.53547 0.1113 0.0
C10 C 0.79769 0.53946 0.16947 0.0
N11 N 0.73968 0.54586 0.13406 0.0
H12 H 0.99811 0.74674 0.3353 0.0
H13 H 0.01983 0.76431 0.13906 0.0
H14 H 0.01954 0.8072 0.26398 0.0
H15 H 0.99205 0.73781 0.13422 0.0
C16 C 0.99872 0.72741 0.16713 0.0
C17 C 0.00461 0.75797 0.2968 0.0
C18 C 0.0084 0.7777 0.30665 0.0
C19 C 0.00871 0.75292 0.23612 0.0
C20 C 0.01664 0.76784 0.18587 0.0
C21 C 0.02093 0.78731 0.1965 0.0
C22 C 0.01685 0.792 0.25667 0.0
N23 N 0.00512 0.73292 0.22629 0.0
H24 H 0.74364 0.95839 0.26243 0.0
H25 H 0.74513 0.98436 0.06294 0.0
H26 H 0.69435 0.98174 0.18159 0.0
H27 H 0.7645 0.95842 0.06019 0.0
C28 C 0.77398 0.96316 0.09653 0.0
C29 C 0.73671 0.96549 0.22179 0.0
C30 C 0.71765 0.96913 0.22866 0.0
C31 C 0.7466 0.97044 0.1616 0.0
C32 C 0.73753 0.97983 0.10906 0.0
C33 C 0.71884 0.98413 0.11674 0.0
C34 C 0.70895 0.97857 0.17613 0.0
N35 N 0.76585 0.9666 0.15516 0.0
H36 H 0.50156 0.76815 0.47052 0.0
H37 H 0.4879 0.76927 0.27232 0.0
H38 H 0.48122 0.71452 0.40058 0.0
H39 H 0.52013 0.79236 0.27626 0.0
C40 C 0.51181 0.80106 0.30158 0.0
C41 C 0.49625 0.76057 0.432 0.0
C42 C 0.49111 0.74005 0.44313 0.0
C43 C 0.49514 0.77119 0.37025 0.0
C44 C 0.48866 0.7612 0.32006 0.0
C45 C 0.48372 0.74079 0.33083 0.0
C46 C 0.48477 0.73038 0.39245 0.0
N47 N 0.50093 0.79182 0.35828 0.0
H48 H 0.25002 0.48768 0.50068 0.0
H49 H 0.24846 0.50346 0.68996 0.0
H50 H 0.19629 0.49439 0.58992 0.0
H51 H 0.27766 0.52273 0.64167 0.0
C52 C 0.28376 0.51043 0.62776 0.0
C53 C 0.24196 0.49068 0.54134 0.0
C54 C 0.22194 0.49062 0.53872 0.0
C55 C 0.25173 0.49579 0.5952 0.0
C56 C 0.24118 0.49994 0.64768 0.0
C57 C 0.22113 0.49909 0.64639 0.0
C58 C 0.21174 0.49453 0.59176 0.0
N59 N 0.27212 0.49682 0.59591 0.0
H60 H 0.01942 0.29127 0.39147 0.0
H61 H 0.00795 0.2726 0.59535 0.0
H62 H 0.01675 0.23056 0.47448 0.0
H63 H 0.99158 0.29863 0.58238 0.0
C64 C 0.00198 0.3098 0.55395 0.0
C65 C 0.01733 0.27985 0.43299 0.0
C66 C 0.01867 0.26022 0.42596 0.0
C67 C 0.0132 0.28463 0.49417 0.0
C68 C 0.0106 0.26945 0.54772 0.0
C69 C 0.01207 0.25008 0.54044 0.0
C70 C 0.01602 0.24568 0.47989 0.0
N71 N 0.01228 0.3046 0.50157 0.0
H72 H 0.26228 0.07213 0.47126 0.0
H73 H 0.26777 0.05233 0.67281 0.0
H74 H 0.31256 0.04769 0.53807 0.0
H75 H 0.24752 0.0741 0.68302 0.0
C76 C 0.23746 0.07166 0.64577 0.0
C77 C 0.27037 0.06573 0.51012 0.0
C78 C 0.28821 0.05987 0.49694 0.0
C79 C 0.26287 0.06327 0.57348 0.0
C80 C 0.27344 0.05486 0.62385 0.0
C81 C 0.29127 0.04906 0.61112 0.0
C82 C 0.29847 0.05158 0.54775 0.0
N83 N 0.24438 0.06858 0.58496 0.0
H84 H 0.52205 0.2706 0.25573 0.0
H85 H 0.54085 0.26593 0.44974 0.0
H86 H 0.53527 0.32225 0.3444 0.0
H87 H 0.5569 0.24196 0.40238 0.0
C88 C 0.54294 0.23428 0.39282 0.0
C89 C 0.5265 0.27742 0.29671 0.0
C90 C 0.52847 0.29799 0.29258 0.0
C91 C 0.53133 0.26576 0.35296 0.0
C92 C 0.53743 0.27473 0.40575 0.0
C93 C 0.53861 0.29501 0.40281 0.0
C94 C 0.53409 0.30648 0.34649 0.0
N95 N 0.52994 0.24505 0.35664 0.0
Nd96 Nd 0.99747 0.00891 0.81009 0.0
Nd97 Nd 0.01602 0.02804 0.93086 0.0
C98 C 0.9801 0.98534 0.7347 0.0
C99 C 0.98249 0.96711 0.70904 0.0
C100 C 0.98986 0.95142 0.74568 0.0
C101 C 0.99157 0.93423 0.72032 0.0
C102 C 0.98599 0.93233 0.65764 0.0
C103 C 0.97888 0.94826 0.62103 0.0
C104 C 0.97714 0.96537 0.64646 0.0
C105 C 0.03477 0.02761 0.79363 0.0
C106 C 0.01758 0.98174 0.9279 0.0
C107 C 0.03806 0.05189 0.99405 0.0
C108 C 0.0361 0.06981 0.02196 0.0
C109 C 0.0526 0.08225 0.03426 0.0
C110 C 0.05104 0.09944 0.05963 0.0
C111 C 0.03288 0.10464 0.07365 0.0
C112 C 0.01633 0.09206 0.06083 0.0
C113 C 0.01793 0.07492 0.03507 0.0
C114 C 0.97678 0.01636 0.95096 0.0
C115 C 0.99199 0.0532 0.82107 0.0
O116 O 0.97569 0.98377 0.79592 0.0
O117 O 0.99245 1.00097 0.7133 0.0
O118 O 0.02281 0.02721 0.7477 0.0
O119 O 0.02734 0.01718 0.84447 0.0
O120 O 0.00703 0.98308 0.87658 0.0
O121 O 0.02443 0.99708 0.95512 0.0
O122 O 0.03837 0.05387 0.93134 0.0
O123 O 0.02782 0.03542 0.02198 0.0
O124 O 0.98758 0.02368 0.99305 0.0
O125 O 0.98721 0.01542 0.90303 0.0
O126 O 0.00584 0.05315 0.86262 0.0
O127 O 0.98418 0.03734 0.79861 0.0
H128 H 0.9942 0.95241 0.79399 0.0
H129 H 0.99696 0.9223 0.7503 0.0
H130 H 0.97481 0.94763 0.57223 0.0
H131 H 0.97155 0.9773 0.61705 0.0
H132 H 0.06677 0.07876 0.02372 0.0
H133 H 0.06417 0.10882 0.067 0.0
H134 H 0.00207 0.09524 0.0715 0.0
H135 H 0.00496 0.06562 0.02553 0.0
Nd136 Nd 0.50424 1.00487 0.83292 0.0
Nd137 Nd 0.50505 0.03534 0.91983 0.0
C138 C 0.51173 0.97565 0.7747 0.0
C139 C 0.52893 0.97103 0.74181 0.0
C140 C 0.54631 0.96972 0.77307 0.0
C141 C 0.56281 0.96685 0.73962 0.0
C142 C 0.56232 0.96525 0.67416 0.0
C143 C 0.54479 0.96615 0.64348 0.0
C144 C 0.52829 0.96895 0.67699 0.0
C145 C 0.50347 0.04236 0.77074 0.0
C146 C 0.54597 0.02658 0.87646 0.0
C147 C 0.49669 0.06472 0.97516 0.0
C148 C 0.47903 0.06815 0.00866 0.0
C149 C 0.4686 0.08292 0.98136 0.0
C150 C 0.45118 0.08541 0.01029 0.0
C151 C 0.44393 0.07325 0.06744 0.0
C152 C 0.45449 0.05862 0.095 0.0
C153 C 0.47181 0.05607 0.06597 0.0
C154 C 0.50635 0.99817 0.98256 0.0
C155 C 0.46323 0.01299 0.87871 0.0
O156 O 0.51209 0.975 0.83682 0.0
O157 O 0.50416 0.99061 0.74614 0.0
O158 O 0.4933 0.02699 0.75466 0.0
O159 O 0.51399 0.03762 0.81643 0.0
O160 O 0.53616 0.01097 0.85792 0.0
O161 O 0.53721 0.0405 0.89455 0.0
O162 O 0.4956 0.06463 0.91353 0.0
O163 O 0.50593 0.05095 0.00354 0.0
O164 O 0.51602 0.01375 0.99906 0.0
O165 O 0.49566 1.00255 0.93688 0.0
O166 O 0.47297 0.02844 0.89824 0.0
O167 O 0.47203 0.99953 0.85784 0.0
H168 H 0.54726 0.9712 0.82315 0.0
H169 H 0.57597 0.96595 0.76505 0.0
H170 H 0.54389 0.96527 0.59297 0.0
H171 H 0.5151 0.96996 0.65177 0.0
H172 H 0.4738 0.09241 0.93713 0.0
H173 H 0.44347 0.09692 0.98815 0.0
H174 H 0.44918 0.04881 0.13847 0.0
H175 H 0.47934 0.0444 0.08808 0.0
Nd176 Nd 0.49195 0.51808 0.91423 0.0
Nd177 Nd 0.52097 0.51544 0.80833 0.0
C178 C 0.46278 0.52623 0.98112 0.0
C179 C 0.45645 0.54475 0.9919 0.0
C180 C 0.45718 0.56061 0.94165 0.0
C181 C 0.454 0.57903 0.95404 0.0
C182 C 0.45033 0.58192 0.01706 0.0
C183 C 0.44872 0.56583 0.06686 0.0
C184 C 0.45169 0.54736 0.0543 0.0
C185 C 0.52981 0.52356 0.94661 0.0
C186 C 0.50845 0.55756 0.80942 0.0
C187 C 0.55094 0.50822 0.74348 0.0
C188 C 0.55665 0.49072 0.72151 0.0
C189 C 0.57415 0.48445 0.74012 0.0
C190 C 0.57914 0.46711 0.72341 0.0
C191 C 0.56678 0.45591 0.68721 0.0
C192 C 0.5494 0.46236 0.66792 0.0
C193 C 0.54433 0.47954 0.68511 0.0
C194 C 0.48332 0.51049 0.77442 0.0
C195 C 0.50378 0.47543 0.91227 0.0
O196 O 0.46124 0.52187 0.92328 0.0
O197 O 0.47911 0.52286 0.00604 0.0
O198 O 0.516 0.51417 0.98594 0.0
O199 O 0.52331 0.53045 0.89426 0.0
O200 O 0.49389 0.54802 0.84752 0.0
O201 O 0.52309 0.54881 0.79514 0.0
O202 O 0.55058 0.50791 0.8055 0.0
O203 O 0.53634 0.51542 0.71606 0.0
O204 O 0.49741 0.5195 0.7354 0.0
O205 O 0.4895 0.50336 0.82719 0.0
O206 O 0.51714 0.48421 0.86813 0.0
O207 O 0.49064 0.48485 0.93406 0.0
H208 H 0.46085 0.55895 0.8931 0.0
H209 H 0.45547 0.59123 0.91491 0.0
H210 H 0.44581 0.5677 0.11584 0.0
H211 H 0.45112 0.53533 0.09373 0.0
H212 H 0.58381 0.49281 0.76845 0.0
H213 H 0.59265 0.46247 0.73863 0.0
H214 H 0.53946 0.45384 0.64083 0.0
H215 H 0.53062 0.48385 0.67076 0.0
Nd216 Nd 0.00804 0.53397 0.80032 0.0
Nd217 Nd 0.01028 0.50386 0.92606 0.0
C218 C 0.99725 0.56069 0.71081 0.0
C219 C 0.9788 0.56318 0.68068 0.0
C220 C 0.9612 0.5574 0.71592 0.0
C221 C 0.94376 0.55794 0.68539 0.0
C222 C 0.94356 0.56446 0.61915 0.0
C223 C 0.96122 0.57072 0.58436 0.0
C224 C 0.97866 0.57001 0.61485 0.0
C225 C 0.01457 0.49715 0.7819 0.0
C226 C 0.96782 0.50973 0.87746 0.0
C227 C 0.01951 0.47303 1.00127 0.0
C228 C 0.03534 0.47125 0.04536 0.0
C229 C 0.03943 0.4528 0.07344 0.0
C230 C 0.05516 0.45134 0.11283 0.0
C231 C 0.067 0.46834 0.12471 0.0
C232 C 0.06278 0.48678 0.09615 0.0
C233 C 0.04713 0.48821 0.05687 0.0
C234 C 0.01114 0.54094 0.95902 0.0
C235 C 0.04965 0.53201 0.85775 0.0
O236 O 0.9983 0.56283 0.77108 0.0
O237 O 0.00511 0.54573 0.69795 0.0
O238 O 0.02282 0.51337 0.74752 0.0
O239 O 0.00299 0.5007 0.82399 0.0
O240 O 0.97629 0.52297 0.83015 0.0
O241 O 0.97751 0.49948 0.92007 0.0
O242 O 0.02497 0.47753 0.94055 0.0
O243 O 0.00623 0.48309 0.01746 0.0
O244 O 0.01149 0.52516 1.00025 0.0
O245 O 0.01018 0.53638 0.9036 0.0
O246 O 0.04184 0.51567 0.89488 0.0
O247 O 0.03946 0.54331 0.82046 0.0
H248 H 0.96087 0.55216 0.76686 0.0
H249 H 0.93043 0.55319 0.71364 0.0
H250 H 0.96158 0.57558 0.53315 0.0
H251 H 0.99207 0.57438 0.58672 0.0
H252 H 0.03056 0.43956 0.06461 0.0
H253 H 0.05795 0.43694 0.13445 0.0
H254 H 0.07178 0.50015 0.10327 0.0
H255 H 0.04435 0.50259 0.03483 0.0
H256 H 0.22068 0.07027 0.7627 0.0
H257 H 0.18623 0.06579 0.79221 0.0
H258 H 0.17283 0.06558 0.59433 0.0
H259 H 0.20731 0.06981 0.56456 0.0
H260 H 0.15053 0.0888 0.66392 0.0
H261 H 0.16955 0.02387 0.68263 0.0
H262 H 0.18962 0.99861 0.72254 0.0
H263 H 0.17329 1.00249 0.91633 0.0
H264 H 0.15334 0.028 0.87752 0.0
H265 H 0.05367 0.0445 0.68125 0.0
H266 H 0.08816 0.05505 0.66174 0.0
H267 H 0.09706 0.03968 0.86344 0.0
H268 H 0.06246 0.02832 0.88275 0.0
H269 H 0.12235 0.02623 0.79905 0.0
H270 H 0.10169 0.08855 0.78617 0.0
H271 H 0.08197 0.11459 0.75189 0.0
H272 H 0.10158 0.11746 0.55669 0.0
H273 H 0.12124 0.09123 0.58964 0.0
C274 C 0.21037 0.06941 0.72546 0.0
C275 C 0.21663 0.07026 0.6615 0.0
C276 C 0.19074 0.06685 0.74237 0.0
C277 C 0.17702 0.06527 0.69548 0.0
C278 C 0.18322 0.06679 0.63116 0.0
C279 C 0.2029 0.06912 0.61429 0.0
C280 C 0.1562 0.06104 0.71406 0.0
C281 C 0.14427 0.07506 0.69292 0.0
C282 C 0.14825 0.04343 0.75389 0.0
C283 C 0.16013 0.02799 0.77719 0.0
C284 C 0.17037 0.01946 0.73376 0.0
C285 C 0.1817 1.00507 0.75617 0.0
C286 C 0.18277 0.99899 0.82193 0.0
C287 C 0.17247 0.00724 0.86541 0.0
C288 C 0.16114 0.02165 0.84323 0.0
C289 C 0.06294 0.04354 0.72156 0.0
C290 C 0.0554 0.03559 0.78351 0.0
C291 C 0.08268 0.04971 0.71042 0.0
C292 C 0.09526 0.04844 0.7612 0.0
C293 C 0.08766 0.04085 0.82347 0.0
C294 C 0.0679 0.03444 0.83453 0.0
C295 C 0.11641 0.0539 0.74836 0.0
C296 C 0.12849 0.04009 0.77055 0.0
C297 C 0.12451 0.07188 0.71044 0.0
C298 C 0.11284 0.0878 0.69036 0.0
C299 C 0.10171 0.09463 0.73587 0.0
C300 C 0.09055 0.10944 0.71668 0.0
C301 C 0.09048 0.11764 0.65214 0.0
C302 C 0.10163 0.11108 0.60667 0.0
C303 C 0.11282 0.09626 0.62559 0.0
H304 H 0.08182 0.12909 0.63738 0.0
H305 H 0.19155 0.98785 0.8392 0.0
H306 H 0.50949 0.20882 0.384 0.0
H307 H 0.5007 0.17555 0.44405 0.0
H308 H 0.55471 0.18112 0.53829 0.0
H309 H 0.5637 0.21392 0.47718 0.0
H310 H 0.54826 0.14673 0.50675 0.0
H311 H 0.51038 0.18609 0.61114 0.0
H312 H 0.48673 0.20879 0.61833 0.0
H313 H 0.44279 0.16791 0.55365 0.0
H314 H 0.46625 0.14506 0.54527 0.0
H315 H 0.53034 0.07386 0.78033 0.0
H316 H 0.53474 0.10604 0.71222 0.0
H317 H 0.48492 0.08804 0.60815 0.0
H318 H 0.48054 0.05567 0.6759 0.0
H319 H 0.48728 0.12714 0.63799 0.0
H320 H 0.5262 0.08692 0.54165 0.0
H321 H 0.55041 0.0645 0.54132 0.0
H322 H 0.59332 0.10798 0.59816 0.0
H323 H 0.56927 0.13057 0.59976 0.0
C324 C 0.51949 0.20285 0.41728 0.0
C325 C 0.53729 0.21391 0.42603 0.0
C326 C 0.51441 0.18389 0.45191 0.0
C327 C 0.52694 0.17585 0.49641 0.0
C328 C 0.54479 0.18691 0.50428 0.0
C329 C 0.54991 0.20567 0.46939 0.0
C330 C 0.52173 0.15596 0.535 0.0
C331 C 0.53498 0.14257 0.53579 0.0
C332 C 0.50422 0.15024 0.57202 0.0
C333 C 0.49012 0.16398 0.57681 0.0
C334 C 0.49571 0.18202 0.59791 0.0
C335 C 0.48234 0.1949 0.6023 0.0
C336 C 0.46329 0.18983 0.58624 0.0
C337 C 0.45756 0.17184 0.56592 0.0
C338 C 0.47089 0.15892 0.56136 0.0
C339 C 0.52025 0.0768 0.74321 0.0
C340 C 0.50522 0.06222 0.73285 0.0
C341 C 0.5228 0.09516 0.70432 0.0
C342 C 0.51028 0.09933 0.65471 0.0
C343 C 0.49477 0.08508 0.64602 0.0
C344 C 0.49234 0.0666 0.68452 0.0
C345 C 0.51398 0.11827 0.6104 0.0
C346 C 0.50046 0.13136 0.60846 0.0
C347 C 0.53135 0.12386 0.57291 0.0
C348 C 0.54589 0.11037 0.57134 0.0
C349 C 0.54076 0.09165 0.55454 0.0
C350 C 0.55446 0.07892 0.55406 0.0
C351 C 0.57338 0.0848 0.56985 0.0
C352 C 0.57865 0.10344 0.58599 0.0
C353 C 0.565 0.11622 0.58663 0.0
H354 H 0.58397 0.07492 0.56946 0.0
H355 H 0.45295 0.19981 0.58972 0.0
H356 H 0.30966 0.53803 0.66659 0.0
H357 H 0.3434 0.53649 0.68977 0.0
H358 H 0.33765 0.47785 0.64346 0.0
H359 H 0.30396 0.4797 0.6178 0.0
H360 H 0.35999 0.5156 0.77494 0.0
H361 H 0.38093 0.46844 0.58937 0.0
H362 H 0.37208 0.46156 0.48198 0.0
H363 H 0.35306 0.51786 0.43843 0.0
H364 H 0.36202 0.52516 0.5452 0.0
H365 H 0.45231 0.48992 0.84716 0.0
H366 H 0.41828 0.48805 0.8216 0.0
H367 H 0.43404 0.52581 0.64129 0.0
H368 H 0.46805 0.52742 0.66622 0.0
H369 H 0.40675 0.49741 0.62379 0.0
H370 H 0.41464 0.5449 0.76643 0.0
H371 H 0.42438 0.55798 0.86442 0.0
H372 H 0.38803 0.50993 0.9788 0.0
H373 H 0.37779 0.49677 0.88099 0.0
C374 C 0.31566 0.52487 0.66085 0.0
C375 C 0.30427 0.50907 0.63993 0.0
C376 C 0.33492 0.52395 0.67448 0.0
C377 C 0.34321 0.5071 0.66808 0.0
C378 C 0.33175 0.49116 0.6477 0.0
C379 C 0.31247 0.4922 0.63318 0.0
C380 C 0.36378 0.5064 0.68329 0.0
C381 C 0.37013 0.5115 0.74187 0.0
C382 C 0.37724 0.50141 0.64 0.0
C383 C 0.37193 0.49723 0.57554 0.0
C384 C 0.3749 0.47936 0.55679 0.0
C385 C 0.36986 0.47539 0.49605 0.0
C386 C 0.36194 0.48923 0.45351 0.0
C387 C 0.35912 0.50711 0.47153 0.0
C388 C 0.36415 0.51116 0.53217 0.0
C389 C 0.44849 0.49776 0.80203 0.0
C390 C 0.4628 0.50886 0.75874 0.0
C391 C 0.42904 0.49675 0.78754 0.0
C392 C 0.42354 0.50694 0.72973 0.0
C393 C 0.43789 0.51777 0.68607 0.0
C394 C 0.45732 0.51873 0.70045 0.0
C395 C 0.40285 0.50666 0.71513 0.0
C396 C 0.3965 0.50129 0.65696 0.0
C397 C 0.3895 0.51207 0.75766 0.0
C398 C 0.39562 0.51977 0.81661 0.0
C399 C 0.40882 0.53708 0.81254 0.0
C400 C 0.4144 0.54452 0.86803 0.0
C401 C 0.40699 0.53469 0.92795 0.0
C402 C 0.39381 0.5175 0.93238 0.0
C403 C 0.38803 0.5101 0.87691 0.0
H404 H 0.41138 0.54046 0.97089 0.0
H405 H 0.35804 0.48612 0.40653 0.0
H406 H 0.02387 0.34455 0.49365 0.0
H407 H 0.02705 0.37682 0.52906 0.0
H408 H 0.98962 0.35186 0.69425 0.0
H409 H 0.986 0.32007 0.65806 0.0
H410 H 0.97966 0.38508 0.64818 0.0
H411 H 0.04159 0.3639 0.69662 0.0
H412 H 0.07249 0.35334 0.6702 0.0
H413 H 0.08799 0.40658 0.53675 0.0
H414 H 0.05707 0.41733 0.56193 0.0
H415 H 0.99542 0.46105 0.83772 0.0
H416 H 0.99455 0.42963 0.79825 0.0
H417 H 0.03286 0.45799 0.6388 0.0
H418 H 0.03423 0.4891 0.67911 0.0
H419 H 0.04268 0.42406 0.67634 0.0
H420 H 0.98242 0.446 0.62627 0.0
H421 H 0.95167 0.45758 0.64791 0.0
H422 H 0.93288 0.40409 0.77694 0.0
H423 H 0.96364 0.3923 0.75674 0.0
C424 C 0.01635 0.34601 0.53744 0.0
C425 C 0.00466 0.32973 0.57305 0.0
C426 C 0.01825 0.36446 0.55799 0.0
C427 C 0.00874 0.36693 0.61502 0.0
C428 C 0.9971 0.35057 0.65014 0.0
C429 C 0.99507 0.33231 0.62943 0.0
C430 C 0.01044 0.38637 0.63844 0.0
C431 C 0.99349 0.39343 0.65504 0.0
C432 C 0.02839 0.39782 0.64564 0.0
C433 C 0.04695 0.39132 0.63066 0.0
C434 C 0.05153 0.37328 0.66133 0.0
C435 C 0.06906 0.36727 0.64664 0.0
C436 C 0.08217 0.37925 0.6017 0.0
C437 C 0.07781 0.39729 0.57147 0.0
C438 C 0.0603 0.40336 0.58596 0.0
C439 C 0.00376 0.46052 0.79455 0.0
C440 C 0.01479 0.47764 0.76141 0.0
C441 C 0.00316 0.44255 0.77163 0.0
C442 C 0.01335 0.44134 0.71454 0.0
C443 C 0.0248 0.45837 0.68269 0.0
C444 C 0.02553 0.47624 0.70581 0.0
C445 C 0.0119 0.42254 0.68725 0.0
C446 C 0.02886 0.41567 0.66963 0.0
C447 C 0.99395 0.41135 0.67841 0.0
C448 C 0.97541 0.41835 0.69048 0.0
C449 C 0.97178 0.43676 0.65961 0.0
C450 C 0.95434 0.44336 0.67157 0.0
C451 C 0.94035 0.4316 0.71391 0.0
C452 C 0.94375 0.41319 0.74424 0.0
C453 C 0.96117 0.40654 0.73252 0.0
H454 H 0.92686 0.43673 0.7231 0.0
H455 H 0.09574 0.37457 0.59041 0.0
H456 H 0.79269 0.95556 0.9923 0.0
H457 H 0.82719 0.96321 0.96329 0.0
H458 H 0.83709 0.98679 0.13854 0.0
H459 H 0.80261 0.97917 0.16772 0.0
H460 H 0.85453 0.01149 0.03367 0.0
H461 H 0.85017 0.94321 0.12293 0.0
H462 H 0.83761 0.90797 0.13423 0.0
H463 H 0.85517 0.90761 0.93891 0.0
H464 H 0.86761 0.94294 0.92617 0.0
H465 H 0.95457 0.01865 0.05436 0.0
H466 H 0.91996 0.0086 0.07234 0.0
H467 H 0.91695 0.98919 0.88841 0.0
H468 H 0.95189 0.99941 0.86993 0.0
H469 H 0.89569 0.96247 0.98803 0.0
H470 H 0.90158 0.03029 0.90014 0.0
H471 H 0.91465 0.06539 0.88918 0.0
H472 H 0.89418 0.06668 0.08087 0.0
H473 H 0.88127 0.03148 0.09339 0.0
C474 C 0.80229 0.9622 0.02488 0.0
C475 C 0.79501 0.96672 0.08225 0.0
C476 C 0.82197 0.96652 0.00834 0.0
C477 C 0.83472 0.97548 0.0489 0.0
C478 C 0.82749 0.97987 0.10657 0.0
C479 C 0.8078 0.97543 0.12331 0.0
C480 C 0.85549 0.98094 0.03014 0.0
C481 C 0.86357 1.00073 0.02443 0.0
C482 C 0.86713 0.967 0.01588 0.0
C483 C 0.85962 0.94577 0.02338 0.0
C484 C 0.85119 0.93566 0.0822 0.0
C485 C 0.84413 0.91566 0.08891 0.0
C486 C 0.84553 0.90557 0.03726 0.0
C487 C 0.85406 0.91545 0.97884 0.0
C488 C 0.86113 0.93546 0.97186 0.0
C489 C 0.94657 0.01222 0.01769 0.0
C490 C 0.95589 0.00979 0.96071 0.0
C491 C 0.92679 0.00652 0.028 0.0
C492 C 0.91587 0.99831 0.9815 0.0
C493 C 0.92515 0.99552 0.92485 0.0
C494 C 0.94505 1.00136 0.91431 0.0
C495 C 0.89474 0.99294 0.99267 0.0
C496 C 0.88659 0.97322 0.99682 0.0
C497 C 0.88299 0.00695 0.00534 0.0
C498 C 0.89058 0.02819 0.99787 0.0
C499 C 0.89999 0.03801 0.94015 0.0
C500 C 0.90736 0.05794 0.93363 0.0
C501 C 0.90528 0.06825 0.98434 0.0
C502 C 0.89579 0.05867 0.04164 0.0
C503 C 0.88843 0.03873 0.04846 0.0
H504 H 0.91099 0.08368 0.9792 0.0
H505 H 0.84007 0.89008 0.04257 0.0
H506 H 0.53588 0.82274 0.20832 0.0
H507 H 0.53535 0.85658 0.15735 0.0
H508 H 0.48605 0.85972 0.27869 0.0
H509 H 0.48712 0.82607 0.33162 0.0
H510 H 0.51128 0.8729 0.0875 0.0
H511 H 0.4843 0.90628 0.30154 0.0
H512 H 0.48635 0.90223 0.41903 0.0
H513 H 0.53946 0.87884 0.4058 0.0
H514 H 0.53785 0.88296 0.28824 0.0
H515 H 0.48281 0.96464 0.96774 0.0
H516 H 0.48353 0.93145 0.02514 0.0
H517 H 0.53183 0.95325 0.12993 0.0
H518 H 0.53076 0.9865 0.07409 0.0
H519 H 0.50799 0.92803 0.20813 0.0
H520 H 0.53778 0.9287 0.00299 0.0
H521 H 0.54022 0.93452 0.88498 0.0
H522 H 0.49009 0.89187 0.87981 0.0
H523 H 0.48723 0.88595 0.99791 0.0
C524 C 0.52509 0.83078 0.22462 0.0
C525 C 0.51168 0.82189 0.27425 0.0
C526 C 0.52471 0.85007 0.19518 0.0
C527 C 0.51075 0.86085 0.21427 0.0
C528 C 0.49723 0.85191 0.26385 0.0
C529 C 0.49781 0.83266 0.29405 0.0
C530 C 0.51025 0.88128 0.18135 0.0
C531 C 0.51055 0.88491 0.11404 0.0
C532 C 0.50964 0.89714 0.21554 0.0
C533 C 0.51083 0.89474 0.28617 0.0
C534 C 0.49644 0.90032 0.32372 0.0
C535 C 0.49753 0.89801 0.39031 0.0
C536 C 0.51299 0.89022 0.41987 0.0
C537 C 0.52745 0.88479 0.38287 0.0
C538 C 0.52644 0.88709 0.31627 0.0
C539 C 0.49354 0.96232 0.00314 0.0
C540 C 0.50673 0.9781 0.01653 0.0
C541 C 0.49399 0.94335 0.03577 0.0
C542 C 0.50786 0.93978 0.0815 0.0
C543 C 0.52095 0.95561 0.0951 0.0
C544 C 0.52038 0.97459 0.06297 0.0
C545 C 0.50892 0.91954 0.11459 0.0
C546 C 0.50867 0.91596 0.18177 0.0
C547 C 0.51027 0.90386 0.08027 0.0
C548 C 0.51219 0.90701 0.00928 0.0
C549 C 0.52722 0.92063 0.97668 0.0
C550 C 0.52868 0.92395 0.90978 0.0
C551 C 0.51527 0.91364 0.8749 0.0
C552 C 0.50045 0.89988 0.90689 0.0
C553 C 0.49891 0.89651 0.97383 0.0
H554 H 0.5164 0.91627 0.82309 0.0
H555 H 0.5138 0.88843 0.47143 0.0
H556 H 0.70237 0.53448 0.16129 0.0
H557 H 0.66782 0.52968 0.14231 0.0
H558 H 0.67981 0.55498 0.94377 0.0
H559 H 0.71432 0.55929 0.96221 0.0
H560 H 0.64272 0.5537 0.10461 0.0
H561 H 0.64806 0.53372 0.84923 0.0
H562 H 0.66911 0.51782 0.78522 0.0
H563 H 0.68738 0.48546 0.95718 0.0
H564 H 0.66625 0.50094 0.02215 0.0
H565 H 0.56016 0.54207 0.86739 0.0
H566 H 0.59431 0.54648 0.89169 0.0
H567 H 0.58011 0.51601 0.0838 0.0
H568 H 0.54592 0.51146 0.05959 0.0
H569 H 0.61795 0.51886 0.92893 0.0
H570 H 0.61208 0.53747 0.18436 0.0
H571 H 0.59079 0.55275 0.24958 0.0
H572 H 0.57329 0.58672 0.07942 0.0
H573 H 0.59467 0.57186 0.01331 0.0
C574 C 0.69762 0.53903 0.11365 0.0
C575 C 0.71102 0.54718 0.06305 0.0
C576 C 0.67786 0.53631 0.10287 0.0
C577 C 0.67118 0.54167 0.04137 0.0
C578 C 0.68458 0.55031 0.99132 0.0
C579 C 0.70429 0.55288 0.00196 0.0
C580 C 0.65024 0.53822 0.02927 0.0
C581 C 0.63729 0.54582 0.06682 0.0
C582 C 0.64311 0.52823 0.97922 0.0
C583 C 0.65572 0.51866 0.94055 0.0
C584 C 0.65652 0.52316 0.87336 0.0
C585 C 0.66847 0.51423 0.83692 0.0
C586 C 0.67963 0.50069 0.86713 0.0
C587 C 0.67879 0.496 0.93385 0.0
C588 C 0.66685 0.50487 0.97051 0.0
C589 C 0.56433 0.53632 0.91481 0.0
C590 C 0.5504 0.52643 0.96164 0.0
C591 C 0.58383 0.53881 0.92858 0.0
C592 C 0.58976 0.53171 0.98968 0.0
C593 C 0.57585 0.52182 0.03656 0.0
C594 C 0.55634 0.51919 0.02264 0.0
C595 C 0.61053 0.53445 0.00394 0.0
C596 C 0.62342 0.52669 0.96683 0.0
C597 C 0.61756 0.54417 0.05459 0.0
C598 C 0.60481 0.55337 0.09389 0.0
C599 C 0.60373 0.54824 0.16091 0.0
C600 C 0.59164 0.55683 0.19802 0.0
C601 C 0.58064 0.57064 0.16864 0.0
C602 C 0.58175 0.57595 0.1021 0.0
C603 C 0.59383 0.56743 0.06478 0.0
H604 H 0.57128 0.57726 0.19745 0.0
H605 H 0.68888 0.49381 0.83883 0.0
H606 H 0.02289 0.70048 0.21014 0.0
H607 H 0.02515 0.66907 0.17265 0.0
H608 H 0.9783 0.6782 0.0483 0.0
H609 H 0.97647 0.70979 0.08368 0.0
H610 H 0.97689 0.63797 0.13039 0.0
H611 H 0.01609 0.68684 0.97524 0.0
H612 H 0.04224 0.71437 0.943 0.0
H613 H 0.08343 0.67929 0.02852 0.0
H614 H 0.05745 0.65163 0.06216 0.0
H615 H 0.01055 0.57657 0.881 0.0
H616 H 0.0084 0.60848 0.91495 0.0
H617 H 0.00838 0.58152 0.11254 0.0
H618 H 0.01042 0.54988 0.07914 0.0
H619 H 0.03218 0.63136 0.9894 0.0
H620 H 0.9764 0.60381 0.20033 0.0
H621 H 0.95102 0.57579 0.23581 0.0
H622 H 0.9434 0.56711 0.04106 0.0
H623 H 0.9679 0.59577 0.00385 0.0
C624 C 0.01298 0.69568 0.17528 0.0
C625 C 0.99943 0.70755 0.15006 0.0
C626 C 0.01433 0.67778 0.1537 0.0
C627 C 0.00188 0.67126 0.1076 0.0
C628 C 0.98801 0.68287 0.08391 0.0
C629 C 0.98699 0.70092 0.10419 0.0
C630 C 0.00351 0.6526 0.08277 0.0
C631 C 0.989 0.63647 0.09979 0.0
C632 C 0.01919 0.6507 0.0422 0.0
C633 C 0.0348 0.66727 0.02188 0.0
C634 C 0.03069 0.68507 0.98777 0.0
C635 C 0.04549 0.70068 0.9691 0.0
C636 C 0.06448 0.6986 0.98389 0.0
C637 C 0.06871 0.68089 0.01722 0.0
C638 C 0.05396 0.66524 0.03606 0.0
C639 C 0.0101 0.5775 0.93157 0.0
C640 C 0.01049 0.56064 0.97729 0.0
C641 C 0.00896 0.59575 0.95099 0.0
C642 C 0.00801 0.59743 0.01646 0.0
C643 C 0.00884 0.58065 0.06187 0.0
C644 C 0.01004 0.56252 0.04257 0.0
C645 C 0.00569 0.6165 0.03784 0.0
C646 C 0.02006 0.63275 0.02014 0.0
C647 C 0.9899 0.61844 0.07827 0.0
C648 C 0.97423 0.60185 0.09936 0.0
C649 C 0.96912 0.59612 0.16489 0.0
C650 C 0.95482 0.58017 0.18529 0.0
C651 C 0.94555 0.56973 0.14065 0.0
C652 C 0.95046 0.57534 0.07547 0.0
C653 C 0.96452 0.59148 0.05468 0.0
H654 H 0.9346 0.55728 0.15656 0.0
H655 H 0.07592 0.7107 0.96937 0.0
H656 H 0.03788 0.22652 0.5851 0.0
H657 H 0.03044 0.1938 0.64819 0.0
H658 H 0.97167 0.2033 0.67742 0.0
H659 H 0.97914 0.23612 0.61306 0.0
H660 H 0.01733 0.17532 0.7607 0.0
H661 H 0.94237 0.16157 0.65099 0.0
H662 H 0.92562 0.1745 0.5556 0.0
H663 H 0.97993 0.19369 0.45219 0.0
H664 H 0.99693 0.1806 0.54649 0.0
H665 H 0.98318 0.07954 0.89356 0.0
H666 H 0.98117 0.11416 0.85702 0.0
H667 H 0.98726 0.10506 0.66082 0.0
H668 H 0.98834 0.07008 0.69759 0.0
H669 H 0.96642 0.13323 0.66529 0.0
H670 H 0.02634 0.11866 0.74377 0.0
H671 H 0.04884 0.10467 0.81965 0.0
H672 H 0.03402 0.14072 0.95492 0.0
H673 H 0.01096 0.15453 0.88055 0.0
C674 C 0.02358 0.22186 0.60711 0.0
C675 C 0.00906 0.2337 0.59445 0.0
C676 C 0.01931 0.20316 0.643 0.0
C677 C 1.00041 0.19596 0.66645 0.0
C678 C 0.98628 0.2085 0.65896 0.0
C679 C 0.99058 0.22728 0.62293 0.0
C680 C 0.99525 0.17474 0.69162 0.0
C681 C 0.00598 0.16618 0.74063 0.0
C682 C 0.98105 0.16264 0.6633 0.0
C683 C 0.9709 0.17037 0.60614 0.0
C684 C 0.95071 0.16852 0.60784 0.0
C685 C 0.94118 0.17586 0.55395 0.0
C686 C 0.95171 0.18498 0.49797 0.0
C687 C 0.97179 0.1867 0.49564 0.0
C688 C 0.98137 0.17933 0.54931 0.0
C689 C 0.98341 0.08485 0.84258 0.0
C690 C 0.986 0.07232 0.7982 0.0
C691 C 0.98238 0.10462 0.82176 0.0
C692 C 0.98461 0.11232 0.75629 0.0
C693 C 0.98559 0.09946 0.71161 0.0
C694 C 0.98617 0.0795 0.73251 0.0
C695 C 0.98825 0.13388 0.73531 0.0
C696 C 0.97738 0.14246 0.68671 0.0
C697 C 0.00307 0.14587 0.76151 0.0
C698 C 0.01675 0.13747 0.80686 0.0
C699 C 0.0277 0.12345 0.79 0.0
C700 C 0.04055 0.11554 0.83273 0.0
C701 C 0.04281 0.12177 0.89212 0.0
C702 C 0.03216 0.13584 0.90904 0.0
C703 C 0.01918 0.1437 0.86664 0.0
H704 H 0.05292 0.11579 0.92476 0.0
H705 H 0.9443 0.19067 0.45635 0.0
H706 H 0.30892 0.01645 0.61921 0.0
H707 H 0.33329 0.00701 0.69388 0.0
H708 H 0.32509 0.05461 0.79515 0.0
H709 H 0.30078 0.06429 0.7196 0.0
H710 H 0.36205 0.05603 0.75864 0.0
H711 H 0.31409 0.00747 0.8702 0.0
H712 H 0.28701 0.98036 0.88465 0.0
H713 H 0.32232 0.94346 0.80648 0.0
H714 H 0.34955 0.97043 0.79063 0.0
H715 H 0.44016 0.0332 0.94029 0.0
H716 H 0.4062 0.03538 0.92359 0.0
H717 H 0.40451 0.99262 0.7959 0.0
H718 H 0.43849 0.99003 0.81334 0.0
H719 H 0.37 0.98938 0.8668 0.0
H720 H 0.41469 0.0403 0.73472 0.0
H721 H 0.44223 0.06699 0.7204 0.0
H722 H 0.41253 0.09914 0.8385 0.0
H723 H 0.38489 0.07252 0.854 0.0
C724 C 0.31204 0.02465 0.65822 0.0
C725 C 0.30311 0.04118 0.66344 0.0
C726 C 0.32585 0.01915 0.70119 0.0
C727 C 0.33096 0.03006 0.7503 0.0
C728 C 0.3213 0.04596 0.75772 0.0
C729 C 0.30737 0.05141 0.71482 0.0
C730 C 0.34803 0.02632 0.78787 0.0
C731 C 0.36355 0.04157 0.78383 0.0
C732 C 0.35018 0.00736 0.81953 0.0
C733 C 0.33385 0.99104 0.82888 0.0
C734 C 0.31605 0.99362 0.85561 0.0
C735 C 0.30067 0.97827 0.86414 0.0
C736 C 0.30294 0.96021 0.84641 0.0
C737 C 0.32059 0.95746 0.8202 0.0
C738 C 0.33602 0.97277 0.81153 0.0
C739 C 0.43249 0.02395 0.90959 0.0
C740 C 0.44207 0.01169 0.87714 0.0
C741 C 0.41306 0.0252 0.90028 0.0
C742 C 0.40297 0.01444 0.8576 0.0
C743 C 0.41208 1.00107 0.82896 0.0
C744 C 0.43151 0.99967 0.83875 0.0
C745 C 0.38391 0.01897 0.83633 0.0
C746 C 0.36818 1.00391 0.84304 0.0
C747 C 0.3815 0.03809 0.80691 0.0
C748 C 0.39781 0.05439 0.79587 0.0
C749 C 0.41407 0.05305 0.7577 0.0
C750 C 0.42969 0.06815 0.7494 0.0
C751 C 0.42914 0.08474 0.7786 0.0
C752 C 0.41293 0.08629 0.81592 0.0
C753 C 0.39728 0.07121 0.8244 0.0
H754 H 0.44127 0.09639 0.77224 0.0
H755 H 0.29101 0.94833 0.85307 0.0
H756 H 0.57314 0.29518 0.4593 0.0
H757 H 0.58584 0.3164 0.53608 0.0
H758 H 0.53127 0.33799 0.54367 0.0
H759 H 0.51877 0.31711 0.46681 0.0
H760 H 0.5893 0.35626 0.50712 0.0
H761 H 0.52329 0.35052 0.68692 0.0
H762 H 0.49959 0.32459 0.74835 0.0
H763 H 0.53814 0.28243 0.73725 0.0
H764 H 0.56223 0.30815 0.67665 0.0
H765 H 0.56442 0.44378 0.57122 0.0
H766 H 0.56836 0.41154 0.54637 0.0
H767 H 0.58378 0.39348 0.7407 0.0
H768 H 0.57948 0.42583 0.76622 0.0
H769 H 0.5561 0.36741 0.70459 0.0
H770 H 0.61757 0.3975 0.62091 0.0
H771 H 0.64183 0.42325 0.56126 0.0
H772 H 0.61442 0.4156 0.38553 0.0
H773 H 0.58982 0.39002 0.44414 0.0
C774 C 0.56378 0.30408 0.479 0.0
C775 C 0.54504 0.30465 0.45748 0.0
C776 C 0.57102 0.31617 0.52255 0.0
C777 C 0.55945 0.32863 0.54588 0.0
C778 C 0.54035 0.32826 0.52713 0.0
C779 C 0.53323 0.31644 0.48304 0.0
C780 C 0.56776 0.34415 0.58191 0.0
C781 C 0.58233 0.35857 0.55099 0.0
C782 C 0.55901 0.34683 0.64005 0.0
C783 C 0.54458 0.3313 0.67698 0.0
C784 C 0.5268 0.33576 0.69795 0.0
C785 C 0.51327 0.32108 0.73256 0.0
C786 C 0.51735 0.30187 0.74664 0.0
C787 C 0.53498 0.29731 0.72619 0.0
C788 C 0.54857 0.31193 0.6916 0.0
C789 C 0.56887 0.43302 0.60846 0.0
C790 C 0.57155 0.43723 0.67067 0.0
C791 C 0.57132 0.41467 0.59408 0.0
C792 C 0.57659 0.40018 0.64152 0.0
C793 C 0.57985 0.40452 0.70334 0.0
C794 C 0.57748 0.42299 0.71772 0.0
C795 C 0.57662 0.38007 0.62718 0.0
C796 C 0.56359 0.36483 0.66206 0.0
C797 C 0.58691 0.37656 0.57295 0.0
C798 C 0.60182 0.3918 0.53706 0.0
C799 C 0.61666 0.40136 0.56958 0.0
C800 C 0.63048 0.41593 0.53593 0.0
C801 C 0.62967 0.42106 0.46965 0.0
C802 C 0.61505 0.41159 0.43686 0.0
C803 C 0.60119 0.39701 0.47027 0.0
H804 H 0.64037 0.43236 0.44369 0.0
H805 H 0.50685 0.29053 0.77342 0.0
H806 H 0.22773 0.53101 0.7081 0.0
H807 H 0.20484 0.54185 0.7795 0.0
H808 H 0.16526 0.48902 0.77234 0.0
H809 H 0.18822 0.47798 0.70364 0.0
H810 H 0.17258 0.55178 0.74797 0.0
H811 H 0.13394 0.47627 0.89017 0.0
H812 H 0.14323 0.44676 0.95477 0.0
H813 H 0.19828 0.47881 0.98405 0.0
H814 H 0.18926 0.50862 0.92035 0.0
H815 H 0.07329 0.54476 0.75207 0.0
H816 H 0.10807 0.54536 0.74523 0.0
H817 H 0.10847 0.53065 0.95123 0.0
H818 H 0.07339 0.52852 0.95719 0.0
H819 H 0.12757 0.50876 0.91073 0.0
H820 H 0.13268 0.57677 0.85906 0.0
H821 H 0.12566 0.60921 0.80897 0.0
H822 H 0.14194 0.59723 0.62393 0.0
H823 H 0.14879 0.5646 0.67267 0.0
C824 C 0.21443 0.52144 0.72391 0.0
C825 C 0.20962 0.50375 0.7 0.0
C826 C 0.2013 0.52769 0.76429 0.0
C827 C 0.18328 0.51627 0.78161 0.0
C828 C 0.17914 0.49799 0.76101 0.0
C829 C 0.19221 0.49175 0.72106 0.0
C830 C 0.16761 0.52431 0.81261 0.0
C831 C 0.16287 0.54253 0.78436 0.0
C832 C 0.15537 0.51276 0.8623 0.0
C833 C 0.16092 0.49473 0.9002 0.0
C834 C 0.14799 0.47709 0.91065 0.0
C835 C 0.15323 0.46028 0.94705 0.0
C836 C 0.17134 0.4609 0.97343 0.0
C837 C 0.18428 0.47834 0.96341 0.0
C838 C 0.17912 0.49519 0.92703 0.0
C839 C 0.08091 0.54217 0.79588 0.0
C840 C 0.07077 0.53659 0.85506 0.0
C841 C 0.10087 0.54265 0.79215 0.0
C842 C 0.11115 0.53827 0.84782 0.0
C843 C 0.101 0.53398 0.90747 0.0
C844 C 0.08098 0.53287 0.91095 0.0
C845 C 0.1318 0.53559 0.84259 0.0
C846 C 0.13748 0.51837 0.87579 0.0
C847 C 0.14527 0.54851 0.79958 0.0
C848 C 0.14122 0.56817 0.76965 0.0
C849 C 0.13467 0.581 0.80764 0.0
C850 C 0.13073 0.59943 0.77947 0.0
C851 C 0.13335 0.60528 0.71332 0.0
C852 C 0.13994 0.5927 0.67519 0.0
C853 C 0.1439 0.57424 0.7031 0.0
H854 H 0.13028 0.61955 0.6916 0.0
H855 H 0.17535 0.44788 0.00168 0.0
H856 H 0.00259 0.80084 0.09069 0.0
H857 H 0.00935 0.83404 0.02976 0.0
H858 H 0.06199 0.84437 0.12904 0.0
H859 H 0.05496 0.81133 0.19086 0.0
H860 H 0.03899 0.86983 0.14763 0.0
H861 H 0.06183 0.84645 0.96376 0.0
H862 H 0.06129 0.82584 0.8789 0.0
H863 H 0.00996 0.84695 0.80784 0.0
H864 H 0.00996 0.86743 0.89294 0.0
H865 H 0.0476 0.97138 0.00185 0.0
H866 H 0.0549 0.93799 0.03714 0.0
H867 H 0.00407 0.91424 0.94794 0.0
H868 H 0.99691 0.94714 0.91247 0.0
H869 H 0.03301 0.89674 0.91922 0.0
H870 H 0.00589 0.91376 0.11134 0.0
H871 H 0.0038 0.93332 0.19821 0.0
H872 H 0.0603 0.92288 0.255 0.0
H873 H 0.06283 0.90347 0.16778 0.0
C874 C 0.01605 0.8099 0.09707 0.0
C875 C 0.02831 0.80362 0.14507 0.0
C876 C 0.0199 0.8289 0.06244 0.0
C877 C 0.03616 0.84177 0.07502 0.0
C878 C 0.04935 0.83475 0.11865 0.0
C879 C 0.04543 0.81584 0.15353 0.0
C880 C 0.03759 0.86314 0.05149 0.0
C881 C 0.0382 0.87578 0.09739 0.0
C882 C 0.03596 0.87083 0.98626 0.0
C883 C 0.03584 0.8584 0.93515 0.0
C884 C 0.05032 0.84657 0.93044 0.0
C885 C 0.05012 0.83493 0.8822 0.0
C886 C 0.03558 0.83505 0.83809 0.0
C887 C 0.02121 0.84685 0.84208 0.0
C888 C 0.02132 0.85849 0.89028 0.0
C889 C 0.03798 0.95899 0.99025 0.0
C890 C 0.0218 0.96191 0.95388 0.0
C891 C 0.04216 0.93994 0.01026 0.0
C892 C 0.03007 0.92359 0.99487 0.0
C893 C 0.01377 0.92659 0.95962 0.0
C894 C 0.00968 0.94547 0.93943 0.0
C895 C 0.03394 0.90321 0.01554 0.0
C896 C 0.03428 0.8908 0.96921 0.0
C897 C 0.03609 0.8956 0.08049 0.0
C898 C 0.03467 0.90744 0.13244 0.0
C899 C 0.01795 0.91581 0.14193 0.0
C900 C 0.01666 0.92683 0.19132 0.0
C901 C 0.03195 0.92942 0.23192 0.0
C902 C 0.04851 0.92092 0.22336 0.0
C903 C 0.04988 0.90992 0.17395 0.0
H904 H 0.03094 0.93796 0.27009 0.0
H905 H 0.03546 0.82604 0.80075 0.0
H906 H 0.70351 0.96996 0.01337 0.0
H907 H 0.67892 0.98383 0.94707 0.0
H908 H 0.68698 0.0353 0.03899 0.0
H909 H 0.71125 0.0213 0.10566 0.0
H910 H 0.65128 0.01478 0.05959 0.0
H911 H 0.69526 0.03868 0.87981 0.0
H912 H 0.71949 0.03689 0.79587 0.0
H913 H 0.67951 0.99554 0.71672 0.0
H914 H 0.6552 0.99656 0.80135 0.0
H915 H 0.57079 0.05272 0.9306 0.0
H916 H 0.60478 0.05118 0.95057 0.0
H917 H 0.60271 1.001 0.85316 0.0
H918 H 0.56894 1.00265 0.83197 0.0
H919 H 0.63693 0.02396 0.82933 0.0
H920 H 0.5961 0.99448 0.01139 0.0
H921 H 0.57147 0.99171 0.0983 0.0
H922 H 0.60511 0.03825 0.1756 0.0
H923 H 0.62978 0.04154 0.08837 0.0
C924 C 0.70058 0.9846 0.01707 0.0
C925 C 0.70914 0.99467 0.0641 0.0
C926 C 0.68658 0.99252 0.97929 0.0
C927 C 0.68112 0.01058 0.98827 0.0
C928 C 0.69103 0.02138 0.03125 0.0
C929 C 0.7049 0.01344 0.0691 0.0
C930 C 0.66278 0.01622 0.96355 0.0
C931 C 0.64832 0.01728 0.00907 0.0
C932 C 0.65869 0.0185 0.89786 0.0
C933 C 0.67344 0.01757 0.8475 0.0
C934 C 0.6917 0.02897 0.84513 0.0
C935 C 0.70546 0.0281 0.79735 0.0
C936 C 0.70108 0.01601 0.75122 0.0
C937 C 0.68292 1.00478 0.75276 0.0
C938 C 0.66915 1.0055 0.80066 0.0
C939 C 0.57765 0.04159 0.91239 0.0
C940 C 0.56707 0.02759 0.88068 0.0
C941 C 0.59706 0.0407 0.92397 0.0
C942 C 0.60615 0.02576 0.90429 0.0
C943 C 0.59596 0.0126 0.86896 0.0
C944 C 0.57659 0.01348 0.85734 0.0
C945 C 0.62563 0.02272 0.9255 0.0
C946 C 0.64013 0.02187 0.87966 0.0
C947 C 0.62972 0.02004 0.99119 0.0
C948 C 0.61463 0.01849 0.04266 0.0
C949 C 0.59812 1.00432 0.04636 0.0
C950 C 0.58418 1.00261 0.09582 0.0
C951 C 0.58669 0.01485 0.14229 0.0
C952 C 0.60315 0.02883 0.13942 0.0
C953 C 0.6171 0.03064 0.08993 0.0
H954 H 0.57591 0.01347 0.18066 0.0
H955 H 0.71173 0.01541 0.71414 0.0
H956 H 0.45573 0.74585 0.24373 0.0
H957 H 0.4464 0.72539 0.16109 0.0
H958 H 0.49174 0.69108 0.21612 0.0
H959 H 0.50095 0.71127 0.29799 0.0
H960 H 0.48903 0.69918 0.08484 0.0
H961 H 0.44715 0.67612 0.27786 0.0
H962 H 0.42282 0.68016 0.35867 0.0
H963 H 0.38359 0.69339 0.21042 0.0
H964 H 0.40783 0.68967 0.12865 0.0
H965 H 0.47149 0.59853 0.10488 0.0
H966 H 0.47338 0.63201 0.12741 0.0
H967 H 0.43179 0.64433 0.98505 0.0
H968 H 0.43005 0.61059 0.96125 0.0
H969 H 0.42694 0.65463 0.12503 0.0
H970 H 0.46775 0.66786 0.93596 0.0
H971 H 0.49282 0.66184 0.86139 0.0
H972 H 0.53461 0.6658 0.00562 0.0
H973 H 0.50975 0.67159 0.08165 0.0
C974 C 0.46379 0.73408 0.23726 0.0
C975 C 0.4789 0.72992 0.27735 0.0
C976 C 0.45847 0.72245 0.19033 0.0
C977 C 0.46837 0.70673 0.18273 0.0
C978 C 0.48397 0.70319 0.22103 0.0
C979 C 0.48912 0.7146 0.26807 0.0
C980 C 0.46196 0.69278 0.13882 0.0
C981 C 0.47534 0.68962 0.09281 0.0
C982 C 0.44388 0.68066 0.14813 0.0
C983 C 0.42937 0.68291 0.19718 0.0
C984 C 0.4334 0.68007 0.2625 0.0
C985 C 0.41962 0.68227 0.30846 0.0
C986 C 0.4017 0.68711 0.28967 0.0
C987 C 0.3975 0.68971 0.22488 0.0
C988 C 0.41125 0.68756 0.17872 0.0
C989 C 0.46261 0.60829 0.07875 0.0
C990 C 0.45048 0.60198 0.03182 0.0
C991 C 0.46381 0.62742 0.09127 0.0
C992 C 0.45279 0.64055 0.05762 0.0
C993 C 0.44042 0.63433 0.01125 0.0
C994 C 0.43945 0.61516 0.9978 0.0
C995 C 0.45437 0.6606 0.07319 0.0
C996 C 0.44019 0.66481 0.11442 0.0
C997 C 0.47178 0.67361 0.0599 0.0
C998 C 0.48684 0.67009 0.01458 0.0
C999 C 0.48225 0.6673 0.95198 0.0
C1000 C 0.49644 0.66396 0.90937 0.0
C1001 C 0.51529 0.66342 0.92864 0.0
C1002 C 0.52 0.66624 0.99069 0.0
C1003 C 0.50587 0.66959 0.03356 0.0
H1004 H 0.52623 0.66083 0.89547 0.0
H1005 H 0.39104 0.68879 0.32532 0.0
H1006 H 0.79844 0.55164 0.98583 0.0
H1007 H 0.82413 0.54469 0.91563 0.0
H1008 H 0.83664 0.49856 0.06284 0.0
H1009 H 0.81111 0.50539 0.13236 0.0
H1010 H 0.86147 0.54938 0.94442 0.0
H1011 H 0.85501 0.4638 1.00059 0.0
H1012 H 0.82941 0.43527 0.01306 0.0
H1013 H 0.7925 0.46955 0.89916 0.0
H1014 H 0.81796 0.4982 0.88516 0.0
H1015 H 0.94564 0.50167 0.98811 0.0
H1016 H 0.91135 0.50449 0.99991 0.0
H1017 H 0.90796 0.51616 0.79467 0.0
H1018 H 0.9424 0.51409 0.78249 0.0
H1019 H 0.87572 0.48419 0.90721 0.0
H1020 H 0.9038 0.55011 0.80445 0.0
H1021 H 0.92856 0.57942 0.78958 0.0
H1022 H 0.91921 0.58632 0.98535 0.0
H1023 H 0.89514 0.55644 0.00234 0.0
C1024 C 0.80633 0.53964 0.00216 0.0
C1025 C 0.8029 0.52906 0.06439 0.0
C1026 C 0.82102 0.53575 0.96228 0.0
C1027 C 0.83223 0.52103 0.98383 0.0
C1028 C 0.82801 0.50976 0.04469 0.0
C1029 C 0.81351 0.51375 0.08456 0.0
C1030 C 0.84989 0.51894 0.94736 0.0
C1031 C 0.8644 0.5352 0.93484 0.0
C1032 C 0.85371 0.50049 0.93442 0.0
C1033 C 0.8384 0.4832 0.94209 0.0
C1034 C 0.84149 0.46523 0.97782 0.0
C1035 C 0.82698 0.44904 0.98526 0.0
C1036 C 0.80933 0.45061 0.95702 0.0
C1037 C 0.80616 0.46836 0.92117 0.0
C1038 C 0.82062 0.4846 0.91357 0.0
C1039 C 0.9375 0.50446 0.94554 0.0
C1040 C 0.94665 0.50773 0.88445 0.0
C1041 C 0.91799 0.50619 0.95232 0.0
C1042 C 0.90731 0.51085 0.89815 0.0
C1043 C 0.91608 0.51285 0.83699 0.0
C1044 C 0.93569 0.51158 0.83018 0.0
C1045 C 0.88725 0.51446 0.90651 0.0
C1046 C 0.87246 0.49844 0.91468 0.0
C1047 C 0.88304 0.53321 0.91436 0.0
C1048 C 0.89804 0.55073 0.90503 0.0
C1049 C 0.90743 0.55753 0.84481 0.0
C1050 C 0.92132 0.57427 0.83598 0.0
C1051 C 0.92566 0.58456 0.88675 0.0
C1052 C 0.91606 0.57816 0.94636 0.0
C1053 C 0.90237 0.56127 0.9557 0.0
H1054 H 0.93632 0.59758 0.87975 0.0
H1055 H 0.79811 0.43805 0.96286 0.0
H1056 H 0.05142 0.24843 0.38688 0.0
H1057 H 0.05375 0.22565 0.31144 0.0
H1058 H 0.99598 0.2318 0.25423 0.0
H1059 H 0.99353 0.25422 0.33188 0.0
H1060 H 0.99826 0.19508 0.2825 0.0
H1061 H 0.03798 0.247 0.14858 0.0
H1062 H 0.06433 0.27455 0.12035 0.0
H1063 H 0.10589 0.23612 0.17628 0.0
H1064 H 0.07977 0.20837 0.20569 0.0
H1065 H 0.00507 0.12927 0.05454 0.0
H1066 H 0.0025 0.15883 0.10112 0.0
H1067 H 0.05473 0.1521 0.20024 0.0
H1068 H 0.05705 0.12211 0.15646 0.0
H1069 H 0.05382 0.1908 0.13945 0.0
H1070 H 0.01321 0.13984 0.28114 0.0
H1071 H 0.98655 0.11256 0.30861 0.0
H1072 H 0.94611 0.15023 0.23392 0.0
H1073 H 0.97259 0.17769 0.20515 0.0
C1074 C 0.03959 0.2457 0.35582 0.0
C1075 C 0.02248 0.25354 0.36413 0.0
C1076 C 0.04085 0.2325 0.31281 0.0
C1077 C 0.02508 0.2269 0.27636 0.0
C1078 C 0.0084 0.2358 0.2815 0.0
C1079 C 0.0071 0.24894 0.32502 0.0
C1080 C 0.02534 0.21029 0.23896 0.0
C1081 C 0.01023 0.19445 0.25003 0.0
C1082 C 0.04111 0.20899 0.19756 0.0
C1083 C 0.05689 0.22562 0.17976 0.0
C1084 C 0.05273 0.24444 0.15529 0.0
C1085 C 0.06763 0.2601 0.139 0.0
C1086 C 0.08677 0.2571 0.14663 0.0
C1087 C 0.09105 0.23842 0.17042 0.0
C1088 C 0.07621 0.22272 0.18681 0.0
C1089 C 0.0159 0.1338 0.08701 0.0
C1090 C 0.03128 0.12302 0.10145 0.0
C1091 C 0.01446 0.15089 0.11326 0.0
C1092 C 0.02841 0.15776 0.15433 0.0
C1093 C 0.04385 0.14722 0.16834 0.0
C1094 C 0.04519 0.13004 0.14277 0.0
C1095 C 0.02685 0.17575 0.18348 0.0
C1096 C 0.04174 0.19171 0.17109 0.0
C1097 C 0.01082 0.17725 0.2232 0.0
C1098 C 0.99491 0.16074 0.24023 0.0
C1099 C 0.99866 0.14225 0.26997 0.0
C1100 C 0.98357 0.12677 0.28591 0.0
C1101 C 0.96466 0.12964 0.27281 0.0
C1102 C 0.96078 0.14802 0.2439 0.0
C1103 C 0.97582 0.16355 0.22778 0.0
H1104 H 0.953 0.11764 0.28523 0.0
H1105 H 0.09828 0.26923 0.13401 0.0
H1106 H 0.29377 0.09374 0.40976 0.0
H1107 H 0.31481 0.10042 0.31238 0.0
H1108 H 0.32472 0.04003 0.34187 0.0
H1109 H 0.30345 0.03329 0.43752 0.0
H1110 H 0.35162 0.09899 0.31188 0.0
H1111 H 0.33819 0.02524 0.20905 0.0
H1112 H 0.31065 1.00124 0.18872 0.0
H1113 H 0.27334 0.04526 0.18226 0.0
H1114 H 0.30069 0.06962 0.20159 0.0
H1115 H 0.43575 0.07205 0.19483 0.0
H1116 H 0.40499 0.07422 0.24681 0.0
H1117 H 0.37936 0.0825 0.06278 0.0
H1118 H 0.41011 0.07969 0.01032 0.0
H1119 H 0.35625 0.05665 0.14576 0.0
H1120 H 0.38848 0.1209 0.14527 0.0
H1121 H 0.41522 0.14651 0.1603 0.0
H1122 H 0.41283 0.12493 0.36207 0.0
H1123 H 0.38626 0.099 0.34817 0.0
C1124 C 0.2999 0.08178 0.39395 0.0
C1125 C 0.29708 0.06303 0.43123 0.0
C1126 C 0.31204 0.08563 0.33865 0.0
C1127 C 0.32136 0.07074 0.31955 0.0
C1128 C 0.3175 0.05172 0.3547 0.0
C1129 C 0.30543 0.0479 0.40972 0.0
C1130 C 0.337 0.07534 0.26862 0.0
C1131 C 0.35249 0.0899 0.27501 0.0
C1132 C 0.33802 0.06381 0.21943 0.0
C1133 C 0.32152 0.04925 0.20709 0.0
C1134 C 0.32414 0.02985 0.20286 0.0
C1135 C 0.30855 0.01616 0.19162 0.0
C1136 C 0.29025 0.02171 0.18431 0.0
C1137 C 0.28751 0.04097 0.18811 0.0
C1138 C 0.30305 0.05472 0.19931 0.0
C1139 C 0.42357 0.07429 0.16532 0.0
C1140 C 0.42539 0.07567 0.09843 0.0
C1141 C 0.40603 0.07574 0.19507 0.0
C1142 C 0.3899 0.0788 0.15868 0.0
C1143 C 0.39164 0.08027 0.0918 0.0
C1144 C 0.40925 0.07881 0.06189 0.0
C1145 C 0.37114 0.07959 0.1914 0.0
C1146 C 0.35514 0.06603 0.18167 0.0
C1147 C 0.36949 0.09227 0.23675 0.0
C1148 C 0.3854 0.10794 0.24558 0.0
C1149 C 0.39372 0.12154 0.19281 0.0
C1150 C 0.40885 0.13612 0.20113 0.0
C1151 C 0.41573 0.13734 0.26209 0.0
C1152 C 0.40747 0.12398 0.31488 0.0
C1153 C 0.39235 0.10936 0.30682 0.0
H1154 H 0.42744 0.14864 0.26844 0.0
H1155 H 0.2782 0.01109 0.17565 0.0
H1156 H 0.49778 0.29574 0.21352 0.0
H1157 H 0.49112 0.32103 0.12532 0.0
H1158 H 0.54535 0.35581 0.15218 0.0
H1159 H 0.55229 0.33047 0.23719 0.0
H1160 H 0.4848 0.35585 0.13002 0.0
H1161 H 0.5635 0.38641 0.02686 0.0
H1162 H 0.59254 0.37328 0.99587 0.0
H1163 H 0.55811 0.3188 0.97578 0.0
H1164 H 0.52881 0.33168 0.00575 0.0
H1165 H 0.49351 0.45701 0.0334 0.0
H1166 H 0.49523 0.42298 0.07866 0.0
H1167 H 0.51448 0.41217 0.89387 0.0
H1168 H 0.51419 0.44673 0.84991 0.0
H1169 H 0.53371 0.39468 0.97079 0.0
H1170 H 0.46655 0.39343 0.97001 0.0
H1171 H 0.43502 0.40398 0.98724 0.0
H1172 H 0.44186 0.39492 0.19037 0.0
H1173 H 0.47356 0.38458 0.17438 0.0
C1174 C 0.50847 0.30853 0.19901 0.0
C1175 C 0.52547 0.31121 0.23253 0.0
C1176 C 0.50461 0.32305 0.14903 0.0
C1177 C 0.51776 0.34038 0.13153 0.0
C1178 C 0.5351 0.34251 0.16336 0.0
C1179 C 0.53898 0.32806 0.21265 0.0
C1180 C 0.51287 0.35719 0.08512 0.0
C1181 C 0.4954 0.36421 0.09461 0.0
C1182 C 0.52631 0.36782 0.03704 0.0
C1183 C 0.54394 0.36 0.01893 0.0
C1184 C 0.56209 0.37167 0.01549 0.0
C1185 C 0.57861 0.36426 0.99819 0.0
C1186 C 0.57718 0.34521 0.98399 0.0
C1187 C 0.55921 0.33354 0.987 0.0
C1188 C 0.54264 0.34087 0.00426 0.0
C1189 C 0.49796 0.4473 0.00239 0.0
C1190 C 0.50365 0.45447 0.93815 0.0
C1191 C 0.49877 0.42774 0.02813 0.0
C1192 C 0.50453 0.41464 0.98959 0.0
C1193 C 0.50996 0.42182 0.92491 0.0
C1194 C 0.50974 0.44158 0.89968 0.0
C1195 C 0.50603 0.39391 0.01796 0.0
C1196 C 0.52289 0.38616 0.0051 0.0
C1197 C 0.49163 0.38221 0.06083 0.0
C1198 C 0.47249 0.3883 0.07091 0.0
C1199 C 0.46138 0.39378 0.01834 0.0
C1200 C 0.44347 0.39972 0.0279 0.0
C1201 C 0.43645 0.40014 0.08985 0.0
C1202 C 0.44731 0.39458 0.14241 0.0
C1203 C 0.46524 0.38864 0.13313 0.0
H1204 H 0.42258 0.40475 0.09715 0.0
H1205 H 0.58998 0.3395 0.97059 0.0
H1206 H 0.21986 0.4593 0.47293 0.0
H1207 H 0.19594 0.45137 0.39343 0.0
H1208 H 0.17512 0.50645 0.39831 0.0
H1209 H 0.19899 0.51453 0.47588 0.0
H1210 H 0.14753 0.46901 0.43514 0.0
H1211 H 0.19581 0.50419 0.27375 0.0
H1212 H 0.22714 0.50951 0.2142 0.0
H1213 H 0.21474 0.45266 0.1578 0.0
H1214 H 0.18346 0.44686 0.21807 0.0
H1215 H 0.07825 0.49101 0.21541 0.0
H1216 H 0.10643 0.49016 0.28058 0.0
H1217 H 0.12172 0.4417 0.19569 0.0
H1218 H 0.09368 0.44286 0.12851 0.0
H1219 H 0.15288 0.46831 0.20146 0.0
H1220 H 0.10392 0.4337 0.35026 0.0
H1221 H 0.07267 0.42656 0.41073 0.0
H1222 H 0.08617 0.47907 0.49327 0.0
H1223 H 0.11743 0.48663 0.43287 0.0
C1224 C 0.21059 0.46993 0.45522 0.0
C1225 C 0.21111 0.48743 0.48084 0.0
C1226 C 0.1969 0.46537 0.41023 0.0
C1227 C 0.18368 0.47827 0.39067 0.0
C1228 C 0.18513 0.49627 0.4131 0.0
C1229 C 0.19878 0.50087 0.45729 0.0
C1230 C 0.16692 0.47249 0.3528 0.0
C1231 C 0.14865 0.46888 0.38399 0.0
C1232 C 0.16853 0.47154 0.28673 0.0
C1233 C 0.18745 0.47495 0.25138 0.0
C1234 C 0.19988 0.4927 0.24951 0.0
C1235 C 0.2176 0.49583 0.2154 0.0
C1236 C 0.22297 0.48139 0.1825 0.0
C1237 C 0.2106 0.46381 0.18351 0.0
C1238 C 0.19288 0.46059 0.21766 0.0
C1239 C 0.08761 0.48019 0.21034 0.0
C1240 C 0.08371 0.46703 0.16662 0.0
C1241 C 0.10363 0.47958 0.24819 0.0
C1242 C 0.11608 0.46569 0.24374 0.0
C1243 C 0.11226 0.45247 0.20021 0.0
C1244 C 0.09615 0.45306 0.16224 0.0
C1245 C 0.13334 0.46559 0.28338 0.0
C1246 C 0.15169 0.46803 0.2528 0.0
C1247 C 0.13186 0.4652 0.35042 0.0
C1248 C 0.11298 0.4608 0.3866 0.0
C1249 C 0.10017 0.44381 0.38091 0.0
C1250 C 0.08246 0.43967 0.41527 0.0
C1251 C 0.07741 0.45239 0.45564 0.0
C1252 C 0.09009 0.46924 0.46193 0.0
C1253 C 0.10783 0.47344 0.42774 0.0
H1254 H 0.06368 0.44919 0.48208 0.0
H1255 H 0.23667 0.48386 0.15602 0.0
H1256 H 0.03035 0.78497 0.40748 0.0
H1257 H 0.02479 0.80785 0.48101 0.0
H1258 H 0.96871 0.81212 0.40541 0.0
H1259 H 0.9742 0.78907 0.33275 0.0
H1260 H 0.99234 0.84803 0.39413 0.0
H1261 H 0.97228 0.79258 0.5575 0.0
H1262 H 0.97532 0.76156 0.6276 0.0
H1263 H 0.0253 0.78956 0.70873 0.0
H1264 H 0.02277 0.82069 0.6383 0.0
H1265 H 0.9609 0.91431 0.57942 0.0
H1266 H 0.96382 0.88527 0.53092 0.0
H1267 H 0.01687 0.87892 0.62575 0.0
H1268 H 0.0142 0.90823 0.67406 0.0
H1269 H 0.99542 0.84358 0.62979 0.0
H1270 H 0.01741 0.89777 0.46766 0.0
H1271 H 0.01658 0.92918 0.39669 0.0
H1272 H 0.9661 0.90402 0.31105 0.0
H1273 H 0.96642 0.87252 0.38232 0.0
C1274 C 0.01645 0.78998 0.40917 0.0
C1275 C 0.00249 0.78481 0.36567 0.0
C1276 C 0.01335 0.80324 0.45068 0.0
C1277 C 0.99634 0.81182 0.44871 0.0
C1278 C 0.98192 0.8057 0.40802 0.0
C1279 C 0.98493 0.79229 0.36716 0.0
C1280 C 0.99454 0.8288 0.48278 0.0
C1281 C 0.99266 0.84694 0.44579 0.0
C1282 C 0.99583 0.82768 0.54995 0.0
C1283 C 0.99747 0.80893 0.59199 0.0
C1284 C 0.98406 0.79208 0.58972 0.0
C1285 C 0.98566 0.77448 0.62965 0.0
C1286 C 1.00053 0.77357 0.67242 0.0
C1287 C 0.01381 0.79027 0.67546 0.0
C1288 C 0.0123 0.8079 0.63555 0.0
C1289 C 0.97333 0.90692 0.58966 0.0
C1290 C 0.98743 0.91392 0.63028 0.0
C1291 C 0.97494 0.89019 0.56195 0.0
C1292 C 0.99072 0.87996 0.57372 0.0
C1293 C 0.00455 0.88651 0.61571 0.0
C1294 C 0.00297 0.90331 0.64349 0.0
C1295 C 0.99287 0.86272 0.54114 0.0
C1296 C 0.99498 0.84463 0.57818 0.0
C1297 C 0.99212 0.86391 0.47376 0.0
C1298 C 0.99179 0.88285 0.43096 0.0
C1299 C 0.00601 0.89899 0.43417 0.0
C1300 C 0.00565 0.9168 0.39383 0.0
C1301 C 0.99123 0.91862 0.34966 0.0
C1302 C 0.97721 0.9026 0.3455 0.0
C1303 C 0.97747 0.88476 0.38585 0.0
H1304 H 0.99098 0.93243 0.31849 0.0
H1305 H 0.00173 0.75994 0.70335 0.0
H1306 H 0.68557 0.94241 0.25127 0.0
H1307 H 0.66141 0.9394 0.3385 0.0
H1308 H 0.69864 0.98105 0.42777 0.0
H1309 H 0.72303 0.9839 0.3403 0.0
H1310 H 0.6768 0.95164 0.51721 0.0
H1311 H 0.66709 0.99715 0.33136 0.0
H1312 H 0.66318 0.00869 0.21686 0.0
H1313 H 0.61239 0.96639 0.21923 0.0
H1314 H 0.61628 0.95421 0.33336 0.0
H1315 H 0.59926 0.9834 0.68392 0.0
H1316 H 0.62792 0.98153 0.61875 0.0
H1317 H 0.59427 0.94125 0.51465 0.0
H1318 H 0.56566 0.94267 0.58036 0.0
H1319 H 0.61551 0.97141 0.43531 0.0
H1320 H 0.62577 0.92552 0.62097 0.0
H1321 H 0.62948 0.91451 0.73589 0.0
H1322 H 0.67889 0.95848 0.73437 0.0
H1323 H 0.67522 0.97008 0.61962 0.0
C1324 C 0.68885 0.95036 0.29078 0.0
C1325 C 0.7061 0.96333 0.28947 0.0
C1326 C 0.67501 0.94876 0.34025 0.0
C1327 C 0.67807 0.96031 0.38885 0.0
C1328 C 0.69598 0.97206 0.39056 0.0
C1329 C 0.70993 0.97361 0.34093 0.0
C1330 C 0.66183 0.96159 0.43333 0.0
C1331 C 0.66347 0.95619 0.49948 0.0
C1332 C 0.64438 0.96739 0.40995 0.0
C1333 C 0.64211 0.9746 0.34094 0.0
C1334 C 0.65522 0.99013 0.30736 0.0
C1335 C 0.65299 0.99681 0.24249 0.0
C1336 C 0.63756 0.98825 0.21079 0.0
C1337 C 0.62435 0.97298 0.24384 0.0
C1338 C 0.62658 0.96616 0.30861 0.0
C1339 C 0.59801 0.97384 0.64801 0.0
C1340 C 0.58008 0.96324 0.63731 0.0
C1341 C 0.61442 0.97285 0.61063 0.0
C1342 C 0.61325 0.96123 0.56188 0.0
C1343 C 0.59548 0.95039 0.5518 0.0
C1344 C 0.57911 0.9513 0.58926 0.0
C1345 C 0.63027 0.96102 0.51917 0.0
C1346 C 0.62882 0.96682 0.45315 0.0
C1347 C 0.64786 0.95571 0.54277 0.0
C1348 C 0.65007 0.94882 0.61181 0.0
C1349 C 0.6373 0.933 0.64526 0.0
C1350 C 0.63941 0.92664 0.71037 0.0
C1351 C 0.65436 0.93586 0.74247 0.0
C1352 C 0.66726 0.95143 0.70947 0.0
C1353 C 0.66517 0.9579 0.64439 0.0
H1354 H 0.65598 0.9309 0.79285 0.0
H1355 H 0.6358 0.99348 0.16068 0.0
H1356 H 0.46382 0.71608 0.52215 0.0
H1357 H 0.46932 0.68869 0.60375 0.0
H1358 H 0.53057 0.70768 0.58027 0.0
H1359 H 0.525 0.73527 0.49895 0.0
H1360 H 0.51988 0.67025 0.55583 0.0
H1361 H 0.50889 0.70603 0.72461 0.0
H1362 H 0.49241 0.72591 0.78889 0.0
H1363 H 0.44307 0.68112 0.81844 0.0
H1364 H 0.45913 0.66108 0.75356 0.0
H1365 H 0.53893 0.58516 0.76068 0.0
H1366 H 0.53816 0.61935 0.71349 0.0
H1367 H 0.47649 0.61096 0.74712 0.0
H1368 H 0.47729 0.57704 0.79597 0.0
H1369 H 0.49022 0.64486 0.77249 0.0
H1370 H 0.49891 0.61099 0.59626 0.0
H1371 H 0.51443 0.59019 0.53274 0.0
H1372 H 0.56669 0.63112 0.51502 0.0
H1373 H 0.55155 0.65205 0.57921 0.0
C1374 C 0.47838 0.71488 0.53663 0.0
C1375 C 0.49399 0.72783 0.50489 0.0
C1376 C 0.48153 0.69921 0.58311 0.0
C1377 C 0.50037 0.6961 0.59811 0.0
C1378 C 0.51592 0.70985 0.56961 0.0
C1379 C 0.51274 0.72569 0.52364 0.0
C1380 C 0.50376 0.67705 0.63515 0.0
C1381 C 0.51384 0.66491 0.60398 0.0
C1382 C 0.49522 0.66977 0.69686 0.0
C1383 C 0.48516 0.68214 0.73359 0.0
C1384 C 0.49442 0.70053 0.74404 0.0
C1385 C 0.48518 0.7118 0.78081 0.0
C1386 C 0.46668 0.70481 0.80758 0.0
C1387 C 0.45737 0.68655 0.79751 0.0
C1388 C 0.46654 0.67523 0.76075 0.0
C1389 C 0.52523 0.59063 0.75813 0.0
C1390 C 0.50817 0.57838 0.78206 0.0
C1391 C 0.52478 0.61017 0.73092 0.0
C1392 C 0.50722 0.61772 0.7257 0.0
C1393 C 0.49023 0.60556 0.7506 0.0
C1394 C 0.49071 0.58613 0.7786 0.0
C1395 C 0.50641 0.63814 0.69343 0.0
C1396 C 0.49665 0.65042 0.72505 0.0
C1397 C 0.51503 0.64551 0.63176 0.0
C1398 C 0.52417 0.63296 0.59317 0.0
C1399 C 0.51376 0.61547 0.57925 0.0
C1400 C 0.52248 0.60368 0.54306 0.0
C1401 C 0.54156 0.6093 0.52003 0.0
C1402 C 0.55193 0.62676 0.53301 0.0
C1403 C 0.54329 0.6386 0.56927 0.0
H1404 H 0.54828 0.60015 0.492 0.0
H1405 H 0.45959 0.71352 0.83625 0.0
H1406 H 0.80614 0.58045 0.23157 0.0
H1407 H 0.82974 0.58574 0.31323 0.0
H1408 H 0.81232 0.52642 0.40893 0.0
H1409 H 0.78868 0.52116 0.32697 0.0
H1410 H 0.82359 0.55352 0.49485 0.0
H1411 H 0.84639 0.53309 0.30443 0.0
H1412 H 0.85168 0.53458 0.18816 0.0
H1413 H 0.88503 0.59164 0.17573 0.0
H1414 H 0.87953 0.5907 0.29181 0.0
H1415 H 0.9122 0.53575 0.63733 0.0
H1416 H 0.88246 0.53446 0.57908 0.0
H1417 H 0.90329 0.59097 0.46753 0.0
H1418 H 0.93312 0.5923 0.52543 0.0
H1419 H 0.88933 0.56567 0.3925 0.0
H1420 H 0.86746 0.58469 0.58768 0.0
H1421 H 0.86301 0.58129 0.70499 0.0
H1422 H 0.82885 0.52494 0.70993 0.0
H1423 H 0.83335 0.52787 0.59269 0.0
C1424 C 0.8068 0.56888 0.27169 0.0
C1425 C 0.79552 0.55051 0.27382 0.0
C1426 C 0.82035 0.57183 0.31797 0.0
C1427 C 0.82292 0.55638 0.36667 0.0
C1428 C 0.8105 0.53853 0.37191 0.0
C1429 C 0.79697 0.53556 0.32537 0.0
C1430 C 0.84021 0.55795 0.40583 0.0
C1431 C 0.83798 0.55607 0.47268 0.0
C1432 C 0.85897 0.56133 0.37669 0.0
C1433 C 0.86232 0.56194 0.30677 0.0
C1434 C 0.85466 0.54606 0.27684 0.0
C1435 C 0.85772 0.54679 0.21095 0.0
C1436 C 0.86864 0.56322 0.17454 0.0
C1437 C 0.87653 0.57895 0.20397 0.0
C1438 C 0.87343 0.57833 0.26981 0.0
C1439 C 0.91033 0.54804 0.60106 0.0
C1440 C 0.92505 0.56414 0.58601 0.0
C1441 C 0.8933 0.54729 0.56777 0.0
C1442 C 0.89052 0.56271 0.5193 0.0
C1443 C 0.90511 0.57889 0.50468 0.0
C1444 C 0.92218 0.5796 0.53769 0.0
C1445 C 0.87283 0.56162 0.48173 0.0
C1446 C 0.87498 0.56339 0.4149 0.0
C1447 C 0.85407 0.55797 0.51108 0.0
C1448 C 0.85087 0.55644 0.58139 0.0
C1449 C 0.85907 0.57153 0.61379 0.0
C1450 C 0.85655 0.56969 0.68029 0.0
C1451 C 0.8457 0.55289 0.71492 0.0
C1452 C 0.83727 0.53794 0.68305 0.0
C1453 C 0.83978 0.5397 0.61656 0.0
H1454 H 0.8438 0.55146 0.76643 0.0
H1455 H 0.87103 0.56374 0.12356 0.0
loop_
_geom_bond_atom_site_label_1
_geom_bond_atom_site_label_2
_geom_bond_distance
_geom_bond_site_symmetry_2
_ccdc_geom_bond_type
H0 C5 0.930 . S
H1 C8 0.930 . S
H2 C10 0.930 . S
H3 C4 1.016 . S
C4 H3 1.016 . S
C4 N11 1.286 1_556 S
C5 H0 0.930 . S
C5 C6 1.397 . S
C5 C7 1.361 . S
C6 C5 1.397 . S
C6 C10 1.390 . S
C7 C5 1.361 . S
C7 C8 1.393 1_554 S
C7 N11 1.413 . S
C8 H1 0.930 . S
C8 C7 1.393 1_556 S
C8 C9 1.399 . S
C9 C8 1.399 . S
C9 C10 1.381 1_556 S
C10 H2 0.930 . S
C10 C6 1.390 . S
C10 C9 1.381 1_554 S
N11 C4 1.286 1_554 S
N11 C7 1.413 . S
H12 C17 0.945 . S
H13 C20 0.926 1_455 S
H14 C22 0.930 . S
H15 C16 1.016 . S
C16 H15 1.016 . S
C16 N23 1.286 1_655 S
C17 H12 0.945 . S
C17 C18 1.381 1_455 S
C17 C19 1.366 . S
C18 C17 1.381 1_655 S
C18 C22 1.390 . S
C19 C17 1.366 . S
C19 C20 1.394 1_455 S
C19 N23 1.413 . S
C20 H13 0.926 1_655 S
C20 C19 1.394 1_655 S
C20 C21 1.398 . S
C21 C20 1.398 . S
C21 C22 1.381 . S
C22 H14 0.930 . S
C22 C18 1.390 . S
C22 C21 1.381 . S
N23 C16 1.286 1_455 S
N23 C19 1.413 . S
H24 C29 0.930 . S
H25 C32 0.930 . S
H26 C34 0.930 . S
H27 C28 1.016 . S
C28 H27 1.016 . S
C28 N35 1.286 . S
C29 H24 0.930 . S
C29 C30 1.397 . S
C29 C31 1.361 . S
C30 C29 1.397 . S
C30 C34 1.390 . S
C31 C29 1.361 . S
C31 C32 1.393 . S
C31 N35 1.413 . S
C32 H25 0.930 . S
C32 C31 1.393 . S
C32 C33 1.399 . S
C33 C32 1.399 . S
C33 C34 1.381 . S
C34 H26 0.930 . S
C34 C30 1.390 . S
C34 C33 1.381 . S
N35 C28 1.286 . S
N35 C31 1.413 . S
H36 C41 0.930 . S
H37 C44 0.930 . S
H38 C46 0.930 . S
H39 C40 1.016 . S
C40 H39 1.016 . S
C40 N47 1.286 . S
C41 H36 0.930 . S
C41 C42 1.397 . S
C41 C43 1.361 . S
C42 C41 1.397 . S
C42 C46 1.390 . S
C43 C41 1.361 . S
C43 C44 1.393 . S
C43 N47 1.413 . S
C44 H37 0.930 . S
C44 C43 1.393 . S
C44 C45 1.399 . S
C45 C44 1.399 . S
C45 C46 1.381 . S
C46 H38 0.930 . S
C46 C42 1.390 . S
C46 C45 1.381 . S
N47 C40 1.286 . S
N47 C43 1.413 . S
H48 C53 0.930 . S
H49 C56 0.930 . S
H50 C58 0.930 . S
H51 C52 1.016 . S
C52 H51 1.016 . S
C52 N59 1.286 . S
C53 H48 0.930 . S
C53 C54 1.397 . S
C53 C55 1.361 . S
C54 C53 1.397 . S
C54 C58 1.390 . S
C55 C53 1.361 . S
C55 C56 1.393 . S
C55 N59 1.413 . S
C56 H49 0.930 . S
C56 C55 1.393 . S
C56 C57 1.399 . S
C57 C56 1.399 . S
C57 C58 1.381 . S
C58 H50 0.930 . S
C58 C54 1.390 . S
C58 C57 1.381 . S
N59 C52 1.286 . S
N59 C55 1.413 . S
H60 C65 0.930 . S
H61 C68 0.930 . S
H62 C70 0.930 . S
H63 C64 1.016 . S
C64 H63 1.016 . S
C64 N71 1.286 . S
C65 H60 0.930 . S
C65 C66 1.397 . S
C65 C67 1.361 . S
C66 C65 1.397 . S
C66 C70 1.390 . S
C67 C65 1.361 . S
C67 C68 1.393 . S
C67 N71 1.413 . S
C68 H61 0.930 . S
C68 C67 1.393 . S
C68 C69 1.399 . S
C69 C68 1.399 . S
C69 C70 1.381 . S
C70 H62 0.930 . S
C70 C66 1.390 . S
C70 C69 1.381 . S
N71 C64 1.286 . S
N71 C67 1.413 . S
H72 C77 0.930 . S
H73 C80 0.930 . S
H74 C82 0.930 . S
H75 C76 1.016 . S
C76 H75 1.016 . S
C76 N83 1.286 . S
C77 H72 0.930 . S
C77 C78 1.397 . S
C77 C79 1.361 . S
C78 C77 1.397 . S
C78 C82 1.390 . S
C79 C77 1.361 . S
C79 C80 1.393 . S
C79 N83 1.413 . S
C80 H73 0.930 . S
C80 C79 1.393 . S
C80 C81 1.399 . S
C81 C80 1.399 . S
C81 C82 1.381 . S
C82 H74 0.930 . S
C82 C78 1.390 . S
C82 C81 1.381 . S
N83 C76 1.286 . S
N83 C79 1.413 . S
H84 C89 0.930 . S
H85 C92 0.930 . S
H86 C94 0.930 . S
H87 C88 1.016 . S
C88 H87 1.016 . S
C88 N95 1.286 . S
C89 H84 0.930 . S
C89 C90 1.397 . S
C89 C91 1.361 . S
C90 C89 1.397 . S
C90 C94 1.390 . S
C91 C89 1.361 . S
C91 C92 1.393 . S
C91 N95 1.413 . S
C92 H85 0.930 . S
C92 C91 1.393 . S
C92 C93 1.399 . S
C93 C92 1.399 . S
C93 C94 1.381 . S
C94 H86 0.930 . S
C94 C90 1.390 . S
C94 C93 1.381 . S
N95 C88 1.286 . S
N95 C91 1.413 . S
Nd96 C98 2.836 1_545 S
Nd96 O116 2.500 1_445 S
Nd96 O117 2.492 1_545 S
Nd96 O118 2.487 . S
Nd96 O119 2.682 . S
Nd96 O120 2.410 1_545 S
Nd96 O125 2.414 1_455 S
Nd96 O127 2.424 . S
Nd97 C107 2.836 1_556 S
Nd97 O119 2.414 . S
Nd97 O121 2.424 1_545 S
Nd97 O122 2.500 . S
Nd97 O123 2.492 1_456 S
Nd97 O124 2.487 1_455 S
Nd97 O125 2.682 1_455 S
Nd97 O126 2.392 1_455 S
C98 Nd96 2.836 1_565 S
C98 C99 1.499 1_455 S
C98 O116 1.258 1_455 S
C98 O117 1.239 . S
C99 C98 1.499 1_655 S
C99 C100 1.386 . S
C99 C104 1.387 1_655 S
C100 C99 1.386 . S
C100 C101 1.392 . S
C100 H128 0.930 . S
C101 C100 1.392 . S
C101 C102 1.398 . S
C101 H129 0.929 . S
C102 C101 1.398 . S
C102 C103 1.352 1_655 S
C103 C102 1.352 1_455 S
C103 C104 1.384 . S
C103 H130 0.930 . S
C104 C99 1.387 1_455 S
C104 C103 1.384 . S
C104 H131 0.929 . S
C105 O118 1.241 . S
C105 O119 1.273 . S
C106 O120 1.251 . S
C106 O121 1.268 . S
C107 Nd97 2.836 1_554 S
C107 C108 1.498 . S
C107 O122 1.258 1_554 S
C107 O123 1.239 1_455 S
C108 C107 1.498 . S
C108 C109 1.366 . S
C108 C113 1.410 1_455 S
C109 C108 1.366 . S
C109 C110 1.392 . S
C109 H132 0.930 . S
C110 C109 1.392 . S
C110 C111 1.398 . S
C110 H133 0.929 . S
C111 C110 1.398 . S
C111 C112 1.352 . S
C112 C111 1.352 . S
C112 C113 1.384 1_455 S
C112 H134 0.930 1_455 S
C113 C108 1.410 1_655 S
C113 C112 1.384 1_655 S
C113 H135 0.925 . S
C114 O124 1.241 . S
C114 O125 1.273 . S
C115 O126 1.243 1_455 S
C115 O127 1.268 . S
O116 Nd96 2.500 1_665 S
O116 C98 1.258 1_655 S
O117 Nd96 2.492 1_565 S
O117 C98 1.239 . S
O118 Nd96 2.487 . S
O118 C105 1.241 . S
O119 Nd96 2.682 . S
O119 Nd97 2.414 . S
O119 C105 1.273 . S
O120 Nd96 2.410 1_565 S
O120 C106 1.251 . S
O121 Nd97 2.424 1_565 S
O121 C106 1.268 . S
O122 Nd97 2.500 . S
O122 C107 1.258 1_556 S
O123 Nd97 2.492 1_654 S
O123 C107 1.239 1_655 S
O124 Nd97 2.487 1_655 S
O124 C114 1.241 . S
O125 Nd96 2.414 1_655 S
O125 Nd97 2.682 1_655 S
O125 C114 1.273 . S
O126 Nd97 2.392 1_655 S
O126 C115 1.243 1_655 S
O127 Nd96 2.424 . S
O127 C115 1.268 . S
H128 C100 0.930 . S
H129 C101 0.929 . S
H130 C103 0.930 . S
H131 C104 0.929 . S
H132 C109 0.930 . S
H133 C110 0.929 . S
H134 C112 0.930 1_655 S
H135 C113 0.925 . S
Nd136 C138 2.836 1_545 S
Nd136 O156 2.500 1_545 S
Nd136 O157 2.492 . S
Nd136 O158 2.487 . S
Nd136 O159 2.682 . S
Nd136 O160 2.410 . S
Nd136 O165 2.414 1_545 S
Nd136 O167 2.424 . S
Nd137 C147 2.836 1_556 S
Nd137 O159 2.414 . S
Nd137 O161 2.424 . S
Nd137 O162 2.500 . S
Nd137 O163 2.492 1_556 S
Nd137 O164 2.487 1_545 S
Nd137 O165 2.682 1_545 S
Nd137 O166 2.410 . S
C138 Nd136 2.836 1_565 S
C138 C139 1.498 . S
C138 O156 1.258 . S
C138 O157 1.239 1_565 S
C139 C138 1.498 . S
C139 C140 1.366 . S
C139 C144 1.407 . S
C140 C139 1.366 . S
C140 C141 1.392 . S
C140 H168 0.930 . S
C141 C140 1.392 . S
C141 C142 1.398 . S
C141 H169 0.929 . S
C142 C141 1.398 . S
C142 C143 1.352 . S
C143 C142 1.352 . S
C143 C144 1.384 . S
C143 H170 0.930 . S
C144 C139 1.407 . S
C144 C143 1.384 . S
C144 H171 0.929 1_565 S
C145 O158 1.241 . S
C145 O159 1.273 . S
C146 O160 1.251 . S
C146 O161 1.268 . S
C147 Nd137 2.836 1_554 S
C147 C148 1.498 . S
C147 O162 1.258 1_554 S
C147 O163 1.239 . S
C148 C147 1.498 . S
C148 C149 1.366 . S
C148 C153 1.407 . S
C149 C148 1.366 . S
C149 C150 1.392 . S
C149 H172 0.930 1_554 S
C150 C149 1.392 . S
C150 C151 1.398 . S
C150 H173 0.929 . S
C151 C150 1.398 . S
C151 C152 1.352 . S
C152 C151 1.352 . S
C152 C153 1.384 . S
C152 H174 0.930 . S
C153 C148 1.407 . S
C153 C152 1.384 . S
C153 H175 0.929 . S
C154 O164 1.241 . S
C154 O165 1.273 . S
C155 O166 1.251 . S
C155 O167 1.268 . S
O156 Nd136 2.500 1_565 S
O156 C138 1.258 . S
O157 Nd136 2.492 . S
O157 C138 1.239 1_545 S
O158 Nd136 2.487 . S
O158 C145 1.241 . S
O159 Nd136 2.682 . S
O159 Nd137 2.414 . S
O159 C145 1.273 . S
O160 Nd136 2.410 . S
O160 C146 1.251 . S
O161 Nd137 2.424 . S
O161 C146 1.268 . S
O162 Nd137 2.500 . S
O162 C147 1.258 1_556 S
O163 Nd137 2.492 1_554 S
O163 C147 1.239 . S
O164 Nd137 2.487 1_565 S
O164 C154 1.241 . S
O165 Nd136 2.414 1_565 S
O165 Nd137 2.682 1_565 S
O165 C154 1.273 . S
O166 Nd137 2.410 . S
O166 C155 1.251 . S
O167 Nd136 2.424 . S
O167 C155 1.268 . S
H168 C140 0.930 . S
H169 C141 0.929 . S
H170 C143 0.930 . S
H171 C144 0.929 1_545 S
H172 C149 0.930 1_556 S
H173 C150 0.929 . S
H174 C152 0.930 . S
H175 C153 0.929 . S
Nd176 C178 2.836 . S
Nd176 O196 2.500 . S
Nd176 O197 2.492 . S
Nd176 O198 2.487 . S
Nd176 O199 2.682 . S
Nd176 O200 2.410 . S
Nd176 O205 2.414 . S
Nd176 O207 2.424 . S
Nd177 C187 2.836 . S
Nd177 O199 2.414 . S
Nd177 O201 2.424 . S
Nd177 O202 2.500 . S
Nd177 O203 2.492 . S
Nd177 O204 2.487 . S
Nd177 O205 2.682 . S
Nd177 O206 2.410 . S
C178 Nd176 2.836 . S
C178 C179 1.498 1_556 S
C178 O196 1.258 . S
C178 O197 1.239 . S
C179 C178 1.498 1_554 S
C179 C180 1.366 1_554 S
C179 C184 1.407 . S
C180 C179 1.366 1_556 S
C180 C181 1.392 1_556 S
C180 H208 0.930 . S
C181 C180 1.392 1_554 S
C181 C182 1.398 . S
C181 H209 0.929 1_554 S
C182 C181 1.398 . S
C182 C183 1.352 . S
C183 C182 1.352 . S
C183 C184 1.384 . S
C183 H210 0.930 . S
C184 C179 1.407 . S
C184 C183 1.384 . S
C184 H211 0.929 . S
C185 O198 1.241 . S
C185 O199 1.273 . S
C186 O200 1.251 . S
C186 O201 1.268 . S
C187 Nd177 2.836 . S
C187 C188 1.498 . S
C187 O202 1.258 . S
C187 O203 1.239 . S
C188 C187 1.498 . S
C188 C189 1.366 . S
C188 C193 1.407 . S
C189 C188 1.366 . S
C189 C190 1.392 . S
C189 H212 0.930 . S
C190 C189 1.392 . S
C190 C191 1.398 . S
C190 H213 0.929 . S
C191 C190 1.398 . S
C191 C192 1.352 . S
C192 C191 1.352 . S
C192 C193 1.384 . S
C192 H214 0.930 . S
C193 C188 1.407 . S
C193 C192 1.384 . S
C193 H215 0.929 . S
C194 O204 1.241 . S
C194 O205 1.273 . S
C195 O206 1.251 . S
C195 O207 1.268 . S
O196 Nd176 2.500 . S
O196 C178 1.258 . S
O197 Nd176 2.492 . S
O197 C178 1.239 . S
O198 Nd176 2.487 . S
O198 C185 1.241 . S
O199 Nd176 2.682 . S
O199 Nd177 2.414 . S
O199 C185 1.273 . S
O200 Nd176 2.410 . S
O200 C186 1.251 . S
O201 Nd177 2.424 . S
O201 C186 1.268 . S
O202 Nd177 2.500 . S
O202 C187 1.258 . S
O203 Nd177 2.492 . S
O203 C187 1.239 . S
O204 Nd177 2.487 . S
O204 C194 1.241 . S
O205 Nd176 2.414 . S
O205 Nd177 2.682 . S
O205 C194 1.273 . S
O206 Nd177 2.410 . S
O206 C195 1.251 . S
O207 Nd176 2.424 . S
O207 C195 1.268 . S
H208 C180 0.930 . S
H209 C181 0.929 1_556 S
H210 C183 0.930 . S
H211 C184 0.929 . S
H212 C189 0.930 . S
H213 C190 0.929 . S
H214 C192 0.930 . S
H215 C193 0.929 . S
Nd216 C218 2.836 1_455 S
Nd216 O236 2.500 1_455 S
Nd216 O237 2.492 1_455 S
Nd216 O238 2.487 1_455 S
Nd216 O239 2.682 . S
Nd216 O240 2.410 1_455 S
Nd216 O245 2.414 . S
Nd216 O247 2.424 . S
Nd217 C227 2.836 1_556 S
Nd217 O239 2.414 . S
Nd217 O241 2.424 1_455 S
Nd217 O242 2.500 1_556 S
Nd217 O243 2.492 1_556 S
Nd217 O244 2.487 . S
Nd217 O245 2.682 . S
Nd217 O246 2.410 . S
C218 Nd216 2.836 1_655 S
C218 C219 1.498 . S
C218 O236 1.258 . S
C218 O237 1.239 . S
C219 C218 1.498 . S
C219 C220 1.366 . S
C219 C224 1.407 . S
C220 C219 1.366 . S
C220 C221 1.392 . S
C220 H248 0.930 . S
C221 C220 1.392 . S
C221 C222 1.398 . S
C221 H249 0.929 . S
C222 C221 1.398 . S
C222 C223 1.352 . S
C223 C222 1.352 . S
C223 C224 1.384 . S
C223 H250 0.930 . S
C224 C219 1.407 . S
C224 C223 1.384 . S
C224 H251 0.929 . S
C225 O238 1.241 1_455 S
C225 O239 1.273 . S
C226 O240 1.251 . S
C226 O241 1.268 . S
C227 Nd217 2.836 1_554 S
C227 C228 1.498 . S
C227 O242 1.258 . S
C227 O243 1.239 . S
C228 C227 1.498 . S
C228 C229 1.366 . S
C228 C233 1.407 . S
C229 C228 1.366 . S
C229 C230 1.392 . S
C229 H252 0.930 . S
C230 C229 1.392 . S
C230 C231 1.398 . S
C230 H253 0.929 . S
C231 C230 1.398 . S
C231 C232 1.352 . S
C232 C231 1.352 . S
C232 C233 1.384 . S
C232 H254 0.930 . S
C233 C228 1.407 . S
C233 C232 1.384 . S
C233 H255 0.929 . S
C234 O244 1.241 . S
C234 O245 1.273 . S
C235 O246 1.251 . S
C235 O247 1.268 . S
O236 Nd216 2.500 1_655 S
O236 C218 1.258 . S
O237 Nd216 2.492 1_655 S
O237 C218 1.239 . S
O238 Nd216 2.487 1_655 S
O238 C225 1.241 1_655 S
O239 Nd216 2.682 . S
O239 Nd217 2.414 . S
O239 C225 1.273 . S
O240 Nd216 2.410 1_655 S
O240 C226 1.251 . S
O241 Nd217 2.424 1_655 S
O241 C226 1.268 . S
O242 Nd217 2.500 1_554 S
O242 C227 1.258 . S
O243 Nd217 2.492 1_554 S
O243 C227 1.239 . S
O244 Nd217 2.487 . S
O244 C234 1.241 . S
O245 Nd216 2.414 . S
O245 Nd217 2.682 . S
O245 C234 1.273 . S
O246 Nd217 2.410 . S
O246 C235 1.251 . S
O247 Nd216 2.424 . S
O247 C235 1.268 . S
H248 C220 0.930 . S
H249 C221 0.929 . S
H250 C223 0.930 . S
H251 C224 0.929 . S
H252 C229 0.930 . S
H253 C230 0.929 . S
H254 C232 0.930 . S
H255 C233 0.929 . S
H256 C274 0.951 . S
H257 C276 0.951 . S
H258 C278 0.950 . S
H259 C279 0.950 . S
H260 C281 0.950 . S
H261 C284 0.950 . S
H262 C285 0.950 . S
H263 C287 0.950 . S
H264 C288 0.950 . S
H265 C289 0.951 . S
H266 C291 0.951 . S
H267 C293 0.950 . S
H268 C294 0.950 . S
H269 C296 0.950 . S
H270 C299 0.950 . S
H271 C300 0.950 . S
H272 C302 0.950 . S
H273 C303 0.950 . S
C274 H256 0.951 . S
C274 C275 1.366 . S
C274 C276 1.388 . S
C275 C274 1.366 . S
C275 C279 1.385 . S
C276 H257 0.951 . S
C276 C274 1.388 . S
C276 C277 1.366 . S
C277 C276 1.366 . S
C277 C278 1.414 . S
C277 C280 1.499 . S
C278 H258 0.950 . S
C278 C277 1.414 . S
C278 C279 1.374 . S
C279 H259 0.950 . S
C279 C275 1.385 . S
C279 C278 1.374 . S
C280 C277 1.499 . S
C280 C281 1.373 . S
C280 C282 1.389 . S
C281 H260 0.950 . S
C281 C280 1.373 . S
C281 C297 1.377 . S
C282 C280 1.389 . S
C282 C283 1.524 . S
C282 C296 1.377 . S
C283 C282 1.524 . S
C283 C284 1.397 . S
C283 C288 1.363 . S
C284 H261 0.950 . S
C284 C283 1.397 . S
C284 C285 1.334 . S
C285 H262 0.950 . S
C285 C284 1.334 . S
C285 C286 1.287 . S
C286 C285 1.287 . S
C286 C287 1.524 . S
C286 H305 0.913 . S
C287 H263 0.950 . S
C287 C286 1.524 . S
C287 C288 1.415 . S
C288 H264 0.950 . S
C288 C283 1.363 . S
C288 C287 1.415 . S
C289 H265 0.951 . S
C289 C290 1.366 . S
C289 C291 1.388 . S
C290 C289 1.366 . S
C290 C294 1.385 . S
C291 H266 0.951 . S
C291 C289 1.388 . S
C291 C292 1.366 . S
C292 C291 1.366 . S
C292 C293 1.414 . S
C292 C295 1.499 . S
C293 H267 0.950 . S
C293 C292 1.414 . S
C293 C294 1.374 . S
C294 H268 0.950 . S
C294 C290 1.385 . S
C294 C293 1.374 . S
C295 C292 1.499 . S
C295 C296 1.373 . S
C295 C297 1.389 . S
C296 H269 0.950 . S
C296 C282 1.377 . S
C296 C295 1.373 . S
C297 C281 1.377 . S
C297 C295 1.389 . S
C297 C298 1.524 . S
C298 C297 1.524 . S
C298 C299 1.397 . S
C298 C303 1.363 . S
C299 H270 0.950 . S
C299 C298 1.397 . S
C299 C300 1.334 . S
C300 H271 0.950 . S
C300 C299 1.334 . S
C300 C301 1.287 . S
C301 C300 1.287 . S
C301 C302 1.524 . S
C301 H304 0.999 . S
C302 H272 0.950 . S
C302 C301 1.524 . S
C302 C303 1.415 . S
C303 H273 0.950 . S
C303 C298 1.363 . S
C303 C302 1.415 . S
H304 C301 0.999 . S
H305 C286 0.913 . S
H306 C324 0.951 . S
H307 C326 0.951 . S
H308 C328 0.950 . S
H309 C329 0.950 . S
H310 C331 0.950 . S
H311 C334 0.950 . S
H312 C335 0.950 . S
H313 C337 0.950 . S
H314 C338 0.950 . S
H315 C339 0.951 . S
H316 C341 0.951 . S
H317 C343 0.950 . S
H318 C344 0.950 . S
H319 C346 0.950 . S
H320 C349 0.950 . S
H321 C350 0.950 . S
H322 C352 0.950 . S
H323 C353 0.950 . S
C324 H306 0.951 . S
C324 C325 1.366 . S
C324 C326 1.388 . S
C325 C324 1.366 . S
C325 C329 1.385 . S
C326 H307 0.951 . S
C326 C324 1.388 . S
C326 C327 1.366 . S
C327 C326 1.366 . S
C327 C328 1.414 . S
C327 C330 1.499 . S
C328 H308 0.950 . S
C328 C327 1.414 . S
C328 C329 1.374 . S
C329 H309 0.950 . S
C329 C325 1.385 . S
C329 C328 1.374 . S
C330 C327 1.499 . S
C330 C331 1.373 . S
C330 C332 1.389 . S
C331 H310 0.950 . S
C331 C330 1.373 . S
C331 C347 1.377 . S
C332 C330 1.389 . S
C332 C333 1.524 . S
C332 C346 1.377 . S
C333 C332 1.524 . S
C333 C334 1.397 . S
C333 C338 1.363 . S
C334 H311 0.950 . S
C334 C333 1.397 . S
C334 C335 1.334 . S
C335 H312 0.950 . S
C335 C334 1.334 . S
C335 C336 1.287 . S
C336 C335 1.287 . S
C336 C337 1.524 . S
C336 H355 0.913 . S
C337 H313 0.950 . S
C337 C336 1.524 . S
C337 C338 1.415 . S
C338 H314 0.950 . S
C338 C333 1.363 . S
C338 C337 1.415 . S
C339 H315 0.951 . S
C339 C340 1.366 . S
C339 C341 1.388 . S
C340 C339 1.366 . S
C340 C344 1.385 . S
C341 H316 0.951 . S
C341 C339 1.388 . S
C341 C342 1.366 . S
C342 C341 1.366 . S
C342 C343 1.414 . S
C342 C345 1.499 . S
C343 H317 0.950 . S
C343 C342 1.414 . S
C343 C344 1.374 . S
C344 H318 0.950 . S
C344 C340 1.385 . S
C344 C343 1.374 . S
C345 C342 1.499 . S
C345 C346 1.373 . S
C345 C347 1.389 . S
C346 H319 0.950 . S
C346 C332 1.377 . S
C346 C345 1.373 . S
C347 C331 1.377 . S
C347 C345 1.389 . S
C347 C348 1.524 . S
C348 C347 1.524 . S
C348 C349 1.397 . S
C348 C353 1.363 . S
C349 H320 0.950 . S
C349 C348 1.397 . S
C349 C350 1.334 . S
C350 H321 0.950 . S
C350 C349 1.334 . S
C350 C351 1.287 . S
C351 C350 1.287 . S
C351 C352 1.524 . S
C351 H354 0.999 . S
C352 H322 0.950 . S
C352 C351 1.524 . S
C352 C353 1.415 . S
C353 H323 0.950 . S
C353 C348 1.363 . S
C353 C352 1.415 . S
H354 C351 0.999 . S
H355 C336 0.913 . S
H356 C374 0.951 . S
H357 C376 0.951 . S
H358 C378 0.950 . S
H359 C379 0.950 . S
H360 C381 0.950 . S
H361 C384 0.950 . S
H362 C385 0.950 . S
H363 C387 0.950 . S
H364 C388 0.950 . S
H365 C389 0.951 . S
H366 C391 0.951 . S
H367 C393 0.950 . S
H368 C394 0.950 . S
H369 C396 0.950 . S
H370 C399 0.950 . S
H371 C400 0.950 . S
H372 C402 0.950 1_554 S
H373 C403 0.950 . S
C374 H356 0.951 . S
C374 C375 1.366 . S
C374 C376 1.388 . S
C375 C374 1.366 . S
C375 C379 1.385 . S
C376 H357 0.951 . S
C376 C374 1.388 . S
C376 C377 1.366 . S
C377 C376 1.366 . S
C377 C378 1.414 . S
C377 C380 1.499 . S
C378 H358 0.950 . S
C378 C377 1.414 . S
C378 C379 1.374 . S
C379 H359 0.950 . S
C379 C375 1.385 . S
C379 C378 1.374 . S
C380 C377 1.499 . S
C380 C381 1.373 . S
C380 C382 1.389 . S
C381 H360 0.950 . S
C381 C380 1.373 . S
C381 C397 1.377 . S
C382 C380 1.389 . S
C382 C383 1.524 . S
C382 C396 1.377 . S
C383 C382 1.524 . S
C383 C384 1.397 . S
C383 C388 1.363 . S
C384 H361 0.950 . S
C384 C383 1.397 . S
C384 C385 1.334 . S
C385 H362 0.950 . S
C385 C384 1.334 . S
C385 C386 1.287 . S
C386 C385 1.287 . S
C386 C387 1.524 . S
C386 H405 0.913 . S
C387 H363 0.950 . S
C387 C386 1.524 . S
C387 C388 1.415 . S
C388 H364 0.950 . S
C388 C383 1.363 . S
C388 C387 1.415 . S
C389 H365 0.951 . S
C389 C390 1.366 . S
C389 C391 1.388 . S
C390 C389 1.366 . S
C390 C394 1.385 . S
C391 H366 0.951 . S
C391 C389 1.388 . S
C391 C392 1.366 . S
C392 C391 1.366 . S
C392 C393 1.414 . S
C392 C395 1.499 . S
C393 H367 0.950 . S
C393 C392 1.414 . S
C393 C394 1.374 . S
C394 H368 0.950 . S
C394 C390 1.385 . S
C394 C393 1.374 . S
C395 C392 1.499 . S
C395 C396 1.373 . S
C395 C397 1.389 . S
C396 H369 0.950 . S
C396 C382 1.377 . S
C396 C395 1.373 . S
C397 C381 1.377 . S
C397 C395 1.389 . S
C397 C398 1.524 . S
C398 C397 1.524 . S
C398 C399 1.397 . S
C398 C403 1.363 . S
C399 H370 0.950 . S
C399 C398 1.397 . S
C399 C400 1.334 1_556 S
C400 H371 0.950 . S
C400 C399 1.334 1_554 S
C400 C401 1.287 . S
C401 C400 1.287 . S
C401 C402 1.524 1_554 S
C401 H404 0.999 . S
C402 H372 0.950 1_556 S
C402 C401 1.524 1_556 S
C402 C403 1.415 . S
C403 H373 0.950 . S
C403 C398 1.363 . S
C403 C402 1.415 . S
H404 C401 0.999 . S
H405 C386 0.913 . S
H406 C424 0.951 . S
H407 C426 0.951 . S
H408 C428 0.918 1_655 S
H409 C429 0.950 1_655 S
H410 C431 0.950 . S
H411 C434 0.950 . S
H412 C435 0.950 . S
H413 C437 0.950 . S
H414 C438 0.950 . S
H415 C439 0.951 . S
H416 C441 0.951 . S
H417 C443 0.950 . S
H418 C444 0.950 . S
H419 C446 0.950 . S
H420 C449 0.950 . S
H421 C450 0.950 . S
H422 C452 0.950 . S
H423 C453 0.950 . S
C424 H406 0.951 . S
C424 C425 1.366 . S
C424 C426 1.388 . S
C425 C424 1.366 . S
C425 C429 1.385 . S
C426 H407 0.951 . S
C426 C424 1.388 . S
C426 C427 1.366 . S
C427 C426 1.366 . S
C427 C428 1.439 . S
C427 C430 1.499 . S
C428 H408 0.918 1_455 S
C428 C427 1.439 . S
C428 C429 1.383 . S
C429 H409 0.950 1_455 S
C429 C425 1.385 . S
C429 C428 1.383 . S
C430 C427 1.499 . S
C430 C431 1.373 1_455 S
C430 C432 1.389 . S
C431 H410 0.950 . S
C431 C430 1.373 1_655 S
C431 C447 1.377 . S
C432 C430 1.389 . S
C432 C433 1.524 . S
C432 C446 1.377 . S
C433 C432 1.524 . S
C433 C434 1.397 . S
C433 C438 1.363 . S
C434 H411 0.950 . S
C434 C433 1.397 . S
C434 C435 1.334 . S
C435 H412 0.950 . S
C435 C434 1.334 . S
C435 C436 1.287 . S
C436 C435 1.287 . S
C436 C437 1.524 . S
C436 H455 0.913 . S
C437 H413 0.950 . S
C437 C436 1.524 . S
C437 C438 1.415 . S
C438 H414 0.950 . S
C438 C433 1.363 . S
C438 C437 1.415 . S
C439 H415 0.951 . S
C439 C440 1.366 1_655 S
C439 C441 1.388 . S
C440 C439 1.366 1_455 S
C440 C444 1.385 . S
C441 H416 0.951 . S
C441 C439 1.388 . S
C441 C442 1.366 1_655 S
C442 C441 1.366 1_455 S
C442 C443 1.414 . S
C442 C445 1.499 . S
C443 H417 0.950 . S
C443 C442 1.414 . S
C443 C444 1.374 . S
C444 H418 0.950 . S
C444 C440 1.385 . S
C444 C443 1.374 . S
C445 C442 1.499 . S
C445 C446 1.373 . S
C445 C447 1.389 1_455 S
C446 H419 0.950 . S
C446 C432 1.377 . S
C446 C445 1.373 . S
C447 C431 1.377 . S
C447 C445 1.389 1_655 S
C447 C448 1.524 . S
C448 C447 1.524 . S
C448 C449 1.397 . S
C448 C453 1.363 . S
C449 H420 0.950 . S
C449 C448 1.397 . S
C449 C450 1.334 . S
C450 H421 0.950 . S
C450 C449 1.334 . S
C450 C451 1.287 . S
C451 C450 1.287 . S
C451 C452 1.524 . S
C451 H454 0.999 . S
C452 H422 0.950 . S
C452 C451 1.524 . S
C452 C453 1.415 . S
C453 H423 0.950 . S
C453 C448 1.363 . S
C453 C452 1.415 . S
H454 C451 0.999 . S
H455 C436 0.913 . S
H456 C474 0.951 . S
H457 C476 0.951 1_556 S
H458 C478 0.950 . S
H459 C479 0.950 . S
H460 C481 0.950 . S
H461 C484 0.950 . S
H462 C485 0.950 . S
H463 C487 0.950 . S
H464 C488 0.950 . S
H465 C489 0.951 . S
H466 C491 0.951 1_545 S
H467 C493 0.950 . S
H468 C494 0.950 . S
H469 C496 0.950 1_554 S
H470 C499 0.950 . S
H471 C500 0.950 . S
H472 C502 0.950 . S
H473 C503 0.950 . S
C474 H456 0.951 . S
C474 C475 1.366 . S
C474 C476 1.388 . S
C475 C474 1.366 . S
C475 C479 1.385 . S
C476 H457 0.951 1_554 S
C476 C474 1.388 . S
C476 C477 1.366 . S
C477 C476 1.366 . S
C477 C478 1.414 . S
C477 C480 1.499 1_554 S
C478 H458 0.950 . S
C478 C477 1.414 . S
C478 C479 1.374 . S
C479 H459 0.950 . S
C479 C475 1.385 . S
C479 C478 1.374 . S
C480 C477 1.499 1_556 S
C480 C481 1.373 . S
C480 C482 1.389 1_556 S
C481 H460 0.950 . S
C481 C480 1.373 . S
C481 C497 1.377 . S
C482 C480 1.389 1_554 S
C482 C483 1.524 . S
C482 C496 1.377 1_554 S
C483 C482 1.524 . S
C483 C484 1.397 . S
C483 C488 1.363 . S
C484 H461 0.950 . S
C484 C483 1.397 . S
C484 C485 1.334 . S
C485 H462 0.950 . S
C485 C484 1.334 . S
C485 C486 1.287 . S
C486 C485 1.287 . S
C486 C487 1.524 . S
C486 H505 0.913 . S
C487 H463 0.950 . S
C487 C486 1.524 . S
C487 C488 1.415 . S
C488 H464 0.950 . S
C488 C483 1.363 . S
C488 C487 1.415 . S
C489 H465 0.951 . S
C489 C490 1.366 1_545 S
C489 C491 1.388 1_545 S
C490 C489 1.366 1_565 S
C490 C494 1.385 . S
C491 H466 0.951 1_565 S
C491 C489 1.388 1_565 S
C491 C492 1.366 . S
C492 C491 1.366 . S
C492 C493 1.414 . S
C492 C495 1.499 . S
C493 H467 0.950 . S
C493 C492 1.414 . S
C493 C494 1.374 . S
C494 H468 0.950 . S
C494 C490 1.385 . S
C494 C493 1.374 . S
C495 C492 1.499 . S
C495 C496 1.373 . S
C495 C497 1.389 . S
C496 H469 0.950 1_556 S
C496 C482 1.377 1_556 S
C496 C495 1.373 . S
C497 C481 1.377 . S
C497 C495 1.389 . S
C497 C498 1.524 . S
C498 C497 1.524 . S
C498 C499 1.397 . S
C498 C503 1.363 1_565 S
C499 H470 0.950 . S
C499 C498 1.397 . S
C499 C500 1.334 1_565 S
C500 H471 0.950 . S
C500 C499 1.334 1_545 S
C500 C501 1.287 . S
C501 C500 1.287 . S
C501 C502 1.524 . S
C501 H504 0.999 . S
C502 H472 0.950 . S
C502 C501 1.524 . S
C502 C503 1.415 . S
C503 H473 0.950 . S
C503 C498 1.363 1_545 S
C503 C502 1.415 . S
H504 C501 0.999 . S
H505 C486 0.913 . S
H506 C524 0.951 . S
H507 C526 0.951 . S
H508 C528 0.950 . S
H509 C529 0.950 . S
H510 C531 0.950 . S
H511 C534 0.950 . S
H512 C535 0.950 . S
H513 C537 0.950 . S
H514 C538 0.950 . S
H515 C539 0.951 . S
H516 C541 0.951 . S
H517 C543 0.950 . S
H518 C544 0.950 . S
H519 C546 0.950 . S
H520 C549 0.950 . S
H521 C550 0.950 . S
H522 C552 0.950 . S
H523 C553 0.950 1_554 S
C524 H506 0.951 . S
C524 C525 1.366 . S
C524 C526 1.388 . S
C525 C524 1.366 . S
C525 C529 1.385 . S
C526 H507 0.951 . S
C526 C524 1.388 . S
C526 C527 1.366 . S
C527 C526 1.366 . S
C527 C528 1.414 . S
C527 C530 1.499 . S
C528 H508 0.950 . S
C528 C527 1.414 . S
C528 C529 1.374 . S
C529 H509 0.950 . S
C529 C525 1.385 . S
C529 C528 1.374 . S
C530 C527 1.499 . S
C530 C531 1.373 . S
C530 C532 1.389 . S
C531 H510 0.950 . S
C531 C530 1.373 . S
C531 C547 1.377 . S
C532 C530 1.389 . S
C532 C533 1.524 . S
C532 C546 1.377 . S
C533 C532 1.524 . S
C533 C534 1.397 . S
C533 C538 1.363 . S
C534 H511 0.950 . S
C534 C533 1.397 . S
C534 C535 1.334 . S
C535 H512 0.950 . S
C535 C534 1.334 . S
C535 C536 1.287 . S
C536 C535 1.287 . S
C536 C537 1.524 . S
C536 H555 0.913 . S
C537 H513 0.950 . S
C537 C536 1.524 . S
C537 C538 1.415 . S
C538 H514 0.950 . S
C538 C533 1.363 . S
C538 C537 1.415 . S
C539 H515 0.951 . S
C539 C540 1.366 . S
C539 C541 1.388 1_556 S
C540 C539 1.366 . S
C540 C544 1.385 . S
C541 H516 0.951 . S
C541 C539 1.388 1_554 S
C541 C542 1.366 . S
C542 C541 1.366 . S
C542 C543 1.414 . S
C542 C545 1.499 . S
C543 H517 0.950 . S
C543 C542 1.414 . S
C543 C544 1.374 1_554 S
C544 H518 0.950 . S
C544 C540 1.385 . S
C544 C543 1.374 1_556 S
C545 C542 1.499 . S
C545 C546 1.373 . S
C545 C547 1.389 . S
C546 H519 0.950 . S
C546 C532 1.377 . S
C546 C545 1.373 . S
C547 C531 1.377 . S
C547 C545 1.389 . S
C547 C548 1.539 . S
C548 C547 1.539 . S
C548 C549 1.388 1_554 S
C548 C553 1.358 1_554 S
C549 H520 0.950 . S
C549 C548 1.388 1_556 S
C549 C550 1.334 . S
C550 H521 0.950 . S
C550 C549 1.334 . S
C550 C551 1.287 . S
C551 C550 1.287 . S
C551 C552 1.524 . S
C551 H554 0.999 . S
C552 H522 0.950 . S
C552 C551 1.524 . S
C552 C553 1.415 . S
C553 H523 0.950 1_556 S
C553 C548 1.358 1_556 S
C553 C552 1.415 . S
H554 C551 0.999 . S
H555 C536 0.913 . S
H556 C574 0.951 . S
H557 C576 0.951 . S
H558 C578 0.950 . S
H559 C579 0.950 . S
H560 C581 0.950 . S
H561 C584 0.950 . S
H562 C585 0.950 . S
H563 C587 0.950 . S
H564 C588 0.950 . S
H565 C589 0.951 . S
H566 C591 0.951 . S
H567 C593 0.950 . S
H568 C594 0.950 . S
H569 C596 0.950 . S
H570 C599 0.950 . S
H571 C600 0.950 . S
H572 C602 0.950 . S
H573 C603 0.950 . S
C574 H556 0.951 . S
C574 C575 1.366 . S
C574 C576 1.388 . S
C575 C574 1.366 . S
C575 C579 1.385 . S
C576 H557 0.951 . S
C576 C574 1.388 . S
C576 C577 1.366 . S
C577 C576 1.366 . S
C577 C578 1.414 . S
C577 C580 1.499 . S
C578 H558 0.950 . S
C578 C577 1.414 . S
C578 C579 1.374 . S
C579 H559 0.950 . S
C579 C575 1.385 . S
C579 C578 1.374 . S
C580 C577 1.499 . S
C580 C581 1.373 . S
C580 C582 1.389 . S
C581 H560 0.950 . S
C581 C580 1.373 . S
C581 C597 1.377 . S
C582 C580 1.389 . S
C582 C583 1.524 . S
C582 C596 1.377 . S
C583 C582 1.524 . S
C583 C584 1.397 . S
C583 C588 1.363 . S
C584 H561 0.950 . S
C584 C583 1.397 . S
C584 C585 1.334 . S
C585 H562 0.950 . S
C585 C584 1.334 . S
C585 C586 1.287 . S
C586 C585 1.287 . S
C586 C587 1.524 . S
C586 H605 0.913 . S
C587 H563 0.950 . S
C587 C586 1.524 . S
C587 C588 1.415 . S
C588 H564 0.950 . S
C588 C583 1.363 . S
C588 C587 1.415 . S
C589 H565 0.951 . S
C589 C590 1.366 . S
C589 C591 1.388 . S
C590 C589 1.366 . S
C590 C594 1.385 . S
C591 H566 0.951 . S
C591 C589 1.388 . S
C591 C592 1.366 . S
C592 C591 1.366 . S
C592 C593 1.414 . S
C592 C595 1.499 . S
C593 H567 0.950 . S
C593 C592 1.414 . S
C593 C594 1.374 . S
C594 H568 0.950 . S
C594 C590 1.385 . S
C594 C593 1.374 . S
C595 C592 1.499 . S
C595 C596 1.373 . S
C595 C597 1.389 . S
C596 H569 0.950 . S
C596 C582 1.377 . S
C596 C595 1.373 . S
C597 C581 1.377 . S
C597 C595 1.389 . S
C597 C598 1.524 1_556 S
C598 C597 1.524 1_554 S
C598 C599 1.397 . S
C598 C603 1.363 . S
C599 H570 0.950 . S
C599 C598 1.397 . S
C599 C600 1.334 . S
C600 H571 0.950 . S
C600 C599 1.334 . S
C600 C601 1.287 . S
C601 C600 1.287 . S
C601 C602 1.524 . S
C601 H604 0.999 . S
C602 H572 0.950 . S
C602 C601 1.524 . S
C602 C603 1.415 . S
C603 H573 0.950 . S
C603 C598 1.363 . S
C603 C602 1.415 . S
H604 C601 0.999 . S
H605 C586 0.913 . S
H606 C624 0.951 . S
H607 C626 0.951 . S
H608 C628 0.950 . S
H609 C629 0.950 . S
H610 C631 0.950 . S
H611 C634 0.950 1_655 S
H612 C635 0.950 . S
H613 C637 0.950 . S
H614 C638 0.950 . S
H615 C639 0.951 . S
H616 C641 0.951 . S
H617 C643 0.950 . S
H618 C644 0.950 . S
H619 C646 0.950 . S
H620 C649 0.926 1_455 S
H621 C650 0.950 1_455 S
H622 C652 0.950 . S
H623 C653 0.950 . S
C624 H606 0.951 . S
C624 C625 1.366 1_455 S
C624 C626 1.388 . S
C625 C624 1.366 1_655 S
C625 C629 1.385 . S
C626 H607 0.951 . S
C626 C624 1.388 . S
C626 C627 1.368 1_455 S
C627 C626 1.368 1_655 S
C627 C628 1.410 . S
C627 C630 1.496 1_655 S
C628 H608 0.950 . S
C628 C627 1.410 . S
C628 C629 1.374 . S
C629 H609 0.950 . S
C629 C625 1.385 . S
C629 C628 1.374 . S
C630 C627 1.496 1_455 S
C630 C631 1.363 1_455 S
C630 C632 1.411 1_554 S
C631 H610 0.950 . S
C631 C630 1.363 1_655 S
C631 C647 1.377 . S
C632 C630 1.411 1_556 S
C632 C633 1.524 . S
C632 C646 1.377 . S
C633 C632 1.524 . S
C633 C634 1.397 . S
C633 C638 1.363 . S
C634 H611 0.950 1_455 S
C634 C633 1.397 . S
C634 C635 1.334 . S
C635 H612 0.950 . S
C635 C634 1.334 . S
C635 C636 1.287 . S
C636 C635 1.287 . S
C636 C637 1.524 . S
C636 H655 0.913 . S
C637 H613 0.950 . S
C637 C636 1.524 . S
C637 C638 1.415 . S
C638 H614 0.950 . S
C638 C633 1.363 . S
C638 C637 1.415 . S
C639 H615 0.951 . S
C639 C640 1.366 1_655 S
C639 C641 1.388 . S
C640 C639 1.366 1_455 S
C640 C644 1.385 . S
C641 H616 0.951 . S
C641 C639 1.388 . S
C641 C642 1.366 1_655 S
C642 C641 1.366 1_455 S
C642 C643 1.414 . S
C642 C645 1.499 . S
C643 H617 0.950 . S
C643 C642 1.414 . S
C643 C644 1.374 . S
C644 H618 0.950 . S
C644 C640 1.385 . S
C644 C643 1.374 . S
C645 C642 1.499 . S
C645 C646 1.373 . S
C645 C647 1.389 1_456 S
C646 H619 0.950 . S
C646 C632 1.377 . S
C646 C645 1.373 . S
C647 C631 1.377 . S
C647 C645 1.389 1_654 S
C647 C648 1.524 . S
C648 C647 1.524 . S
C648 C649 1.415 . S
C648 C653 1.363 . S
C649 H620 0.926 1_655 S
C649 C648 1.415 . S
C649 C650 1.339 . S
C650 H621 0.950 1_655 S
C650 C649 1.339 . S
C650 C651 1.287 . S
C651 C650 1.287 . S
C651 C652 1.524 . S
C651 H654 0.999 . S
C652 H622 0.950 . S
C652 C651 1.524 . S
C652 C653 1.415 . S
C653 H623 0.950 . S
C653 C648 1.363 . S
C653 C652 1.415 . S
H654 C651 0.999 . S
H655 C636 0.913 . S
H656 C674 0.951 . S
H657 C676 0.951 . S
H658 C678 0.950 1_655 S
H659 C679 0.950 1_655 S
H660 C681 0.950 . S
H661 C684 0.950 . S
H662 C685 0.950 . S
H663 C687 0.950 . S
H664 C688 0.950 . S
H665 C689 0.951 . S
H666 C691 0.951 . S
H667 C693 0.950 . S
H668 C694 0.950 . S
H669 C696 0.950 . S
H670 C699 0.950 . S
H671 C700 0.950 . S
H672 C702 0.950 1_554 S
H673 C703 0.969 . S
C674 H656 0.951 . S
C674 C675 1.366 . S
C674 C676 1.388 . S
C675 C674 1.366 . S
C675 C679 1.385 . S
C676 H657 0.951 . S
C676 C674 1.388 . S
C676 C677 1.366 . S
C677 C676 1.366 . S
C677 C678 1.414 . S
C677 C680 1.499 . S
C678 H658 0.950 1_455 S
C678 C677 1.414 . S
C678 C679 1.374 . S
C679 H659 0.950 1_455 S
C679 C675 1.385 . S
C679 C678 1.374 . S
C680 C677 1.499 . S
C680 C681 1.373 . S
C680 C682 1.389 . S
C681 H660 0.950 . S
C681 C680 1.373 . S
C681 C697 1.377 . S
C682 C680 1.389 . S
C682 C683 1.524 . S
C682 C696 1.377 . S
C683 C682 1.524 . S
C683 C684 1.397 1_455 S
C683 C688 1.363 . S
C684 H661 0.950 . S
C684 C683 1.397 1_655 S
C684 C685 1.334 . S
C685 H662 0.950 . S
C685 C684 1.334 . S
C685 C686 1.287 . S
C686 C685 1.287 . S
C686 C687 1.524 1_655 S
C686 H705 0.913 . S
C687 H663 0.950 . S
C687 C686 1.524 1_455 S
C687 C688 1.415 . S
C688 H664 0.950 . S
C688 C683 1.363 . S
C688 C687 1.415 . S
C689 H665 0.951 . S
C689 C690 1.366 1_655 S
C689 C691 1.388 . S
C690 C689 1.366 1_455 S
C690 C694 1.385 . S
C691 H666 0.951 . S
C691 C689 1.388 . S
C691 C692 1.366 1_655 S
C692 C691 1.366 1_455 S
C692 C693 1.414 . S
C692 C695 1.499 . S
C693 H667 0.950 . S
C693 C692 1.414 . S
C693 C694 1.374 . S
C694 H668 0.950 . S
C694 C690 1.385 . S
C694 C693 1.374 . S
C695 C692 1.499 . S
C695 C696 1.373 . S
C695 C697 1.389 . S
C696 H669 0.950 . S
C696 C682 1.377 . S
C696 C695 1.373 . S
C697 C681 1.377 . S
C697 C695 1.389 . S
C697 C698 1.524 . S
C698 C697 1.524 . S
C698 C699 1.397 . S
C698 C703 1.363 . S
C699 H670 0.950 . S
C699 C698 1.397 . S
C699 C700 1.334 . S
C700 H671 0.950 . S
C700 C699 1.334 . S
C700 C701 1.287 . S
C701 C700 1.287 . S
C701 C702 1.524 . S
C701 H704 0.999 1_556 S
C702 H672 0.950 1_556 S
C702 C701 1.524 . S
C702 C703 1.415 . S
C703 H673 0.969 . S
C703 C698 1.363 . S
C703 C702 1.415 . S
H704 C701 0.999 1_554 S
H705 C686 0.913 . S
H706 C724 0.951 . S
H707 C726 0.951 . S
H708 C728 0.950 . S
H709 C729 0.950 . S
H710 C731 0.950 . S
H711 C734 0.950 . S
H712 C735 0.950 . S
H713 C737 0.950 1_565 S
H714 C738 0.950 . S
H715 C739 0.951 . S
H716 C741 0.951 . S
H717 C743 0.950 . S
H718 C744 0.950 . S
H719 C746 0.950 . S
H720 C749 0.950 . S
H721 C750 0.950 . S
H722 C752 0.950 . S
H723 C753 0.950 . S
C724 H706 0.951 . S
C724 C725 1.366 . S
C724 C726 1.388 . S
C725 C724 1.366 . S
C725 C729 1.385 . S
C726 H707 0.951 . S
C726 C724 1.388 . S
C726 C727 1.366 . S
C727 C726 1.366 . S
C727 C728 1.414 . S
C727 C730 1.499 . S
C728 H708 0.950 . S
C728 C727 1.414 . S
C728 C729 1.374 . S
C729 H709 0.950 . S
C729 C725 1.385 . S
C729 C728 1.374 . S
C730 C727 1.499 . S
C730 C731 1.373 . S
C730 C732 1.389 . S
C731 H710 0.950 . S
C731 C730 1.373 . S
C731 C747 1.377 . S
C732 C730 1.389 . S
C732 C733 1.524 . S
C732 C746 1.377 . S
C733 C732 1.524 . S
C733 C734 1.397 . S
C733 C738 1.363 . S
C734 H711 0.950 . S
C734 C733 1.397 . S
C734 C735 1.334 . S
C735 H712 0.950 . S
C735 C734 1.334 . S
C735 C736 1.287 . S
C736 C735 1.287 . S
C736 C737 1.524 . S
C736 H755 0.913 . S
C737 H713 0.950 1_545 S
C737 C736 1.524 . S
C737 C738 1.415 . S
C738 H714 0.950 . S
C738 C733 1.363 . S
C738 C737 1.415 . S
C739 H715 0.951 . S
C739 C740 1.366 . S
C739 C741 1.388 . S
C740 C739 1.366 . S
C740 C744 1.385 . S
C741 H716 0.951 . S
C741 C739 1.388 . S
C741 C742 1.366 . S
C742 C741 1.366 . S
C742 C743 1.414 . S
C742 C745 1.499 . S
C743 H717 0.950 . S
C743 C742 1.414 . S
C743 C744 1.374 . S
C744 H718 0.950 . S
C744 C740 1.385 . S
C744 C743 1.374 . S
C745 C742 1.499 . S
C745 C746 1.373 . S
C745 C747 1.389 . S
C746 H719 0.950 . S
C746 C732 1.377 . S
C746 C745 1.373 . S
C747 C731 1.377 . S
C747 C745 1.389 . S
C747 C748 1.524 . S
C748 C747 1.524 . S
C748 C749 1.397 . S
C748 C753 1.363 . S
C749 H720 0.950 . S
C749 C748 1.397 . S
C749 C750 1.334 . S
C750 H721 0.950 . S
C750 C749 1.334 . S
C750 C751 1.287 . S
C751 C750 1.287 . S
C751 C752 1.524 . S
C751 H754 0.999 . S
C752 H722 0.950 . S
C752 C751 1.524 . S
C752 C753 1.415 . S
C753 H723 0.950 . S
C753 C748 1.363 . S
C753 C752 1.415 . S
H754 C751 0.999 . S
H755 C736 0.913 . S
H756 C774 0.951 . S
H757 C776 0.951 . S
H758 C778 0.950 . S
H759 C779 0.950 . S
H760 C781 0.950 . S
H761 C784 0.950 . S
H762 C785 0.950 . S
H763 C787 0.950 . S
H764 C788 0.950 . S
H765 C789 0.951 . S
H766 C791 0.951 . S
H767 C793 0.950 . S
H768 C794 0.950 . S
H769 C796 0.950 . S
H770 C799 0.950 . S
H771 C800 0.950 . S
H772 C802 0.950 . S
H773 C803 0.950 . S
C774 H756 0.951 . S
C774 C775 1.366 . S
C774 C776 1.388 . S
C775 C774 1.366 . S
C775 C779 1.385 . S
C776 H757 0.951 . S
C776 C774 1.388 . S
C776 C777 1.366 . S
C777 C776 1.366 . S
C777 C778 1.414 . S
C777 C780 1.499 . S
C778 H758 0.950 . S
C778 C777 1.414 . S
C778 C779 1.374 . S
C779 H759 0.950 . S
C779 C775 1.385 . S
C779 C778 1.374 . S
C780 C777 1.499 . S
C780 C781 1.373 . S
C780 C782 1.389 . S
C781 H760 0.950 . S
C781 C780 1.373 . S
C781 C797 1.377 . S
C782 C780 1.389 . S
C782 C783 1.524 . S
C782 C796 1.377 . S
C783 C782 1.524 . S
C783 C784 1.397 . S
C783 C788 1.363 . S
C784 H761 0.950 . S
C784 C783 1.397 . S
C784 C785 1.334 . S
C785 H762 0.950 . S
C785 C784 1.334 . S
C785 C786 1.287 . S
C786 C785 1.287 . S
C786 C787 1.524 . S
C786 H805 0.913 . S
C787 H763 0.950 . S
C787 C786 1.524 . S
C787 C788 1.415 . S
C788 H764 0.950 . S
C788 C783 1.363 . S
C788 C787 1.415 . S
C789 H765 0.951 . S
C789 C790 1.366 . S
C789 C791 1.388 . S
C790 C789 1.366 . S
C790 C794 1.385 . S
C791 H766 0.951 . S
C791 C789 1.388 . S
C791 C792 1.366 . S
C792 C791 1.366 . S
C792 C793 1.414 . S
C792 C795 1.499 . S
C793 H767 0.950 . S
C793 C792 1.414 . S
C793 C794 1.374 . S
C794 H768 0.950 . S
C794 C790 1.385 . S
C794 C793 1.374 . S
C795 C792 1.499 . S
C795 C796 1.373 . S
C795 C797 1.389 . S
C796 H769 0.950 . S
C796 C782 1.377 . S
C796 C795 1.373 . S
C797 C781 1.377 . S
C797 C795 1.389 . S
C797 C798 1.524 . S
C798 C797 1.524 . S
C798 C799 1.397 . S
C798 C803 1.363 . S
C799 H770 0.950 . S
C799 C798 1.397 . S
C799 C800 1.334 . S
C800 H771 0.950 . S
C800 C799 1.334 . S
C800 C801 1.287 . S
C801 C800 1.287 . S
C801 C802 1.524 . S
C801 H804 0.999 . S
C802 H772 0.950 . S
C802 C801 1.524 . S
C802 C803 1.415 . S
C803 H773 0.950 . S
C803 C798 1.363 . S
C803 C802 1.415 . S
H804 C801 0.999 . S
H805 C786 0.913 . S
H806 C824 0.951 . S
H807 C826 0.951 . S
H808 C828 0.950 . S
H809 C829 0.950 . S
H810 C831 0.950 . S
H811 C834 0.950 . S
H812 C835 0.950 . S
H813 C837 0.950 . S
H814 C838 0.950 . S
H815 C839 0.951 . S
H816 C841 0.951 . S
H817 C843 0.950 . S
H818 C844 0.950 . S
H819 C846 0.950 . S
H820 C849 0.950 . S
H821 C850 0.950 . S
H822 C852 0.950 . S
H823 C853 0.950 . S
C824 H806 0.951 . S
C824 C825 1.366 . S
C824 C826 1.388 . S
C825 C824 1.366 . S
C825 C829 1.385 . S
C826 H807 0.951 . S
C826 C824 1.388 . S
C826 C827 1.366 . S
C827 C826 1.366 . S
C827 C828 1.414 . S
C827 C830 1.499 . S
C828 H808 0.950 . S
C828 C827 1.414 . S
C828 C829 1.374 . S
C829 H809 0.950 . S
C829 C825 1.385 . S
C829 C828 1.374 . S
C830 C827 1.499 . S
C830 C831 1.373 . S
C830 C832 1.389 . S
C831 H810 0.950 . S
C831 C830 1.373 . S
C831 C847 1.377 . S
C832 C830 1.389 . S
C832 C833 1.524 . S
C832 C846 1.377 . S
C833 C832 1.524 . S
C833 C834 1.397 . S
C833 C838 1.363 . S
C834 H811 0.950 . S
C834 C833 1.397 . S
C834 C835 1.321 1_556 S
C835 H812 0.950 . S
C835 C834 1.321 1_554 S
C835 C836 1.300 . S
C836 C835 1.300 . S
C836 C837 1.524 . S
C836 H855 0.913 . S
C837 H813 0.950 . S
C837 C836 1.524 . S
C837 C838 1.415 1_554 S
C838 H814 0.950 . S
C838 C833 1.363 . S
C838 C837 1.415 1_556 S
C839 H815 0.951 . S
C839 C840 1.366 . S
C839 C841 1.388 . S
C840 C839 1.366 . S
C840 C844 1.385 . S
C841 H816 0.951 . S
C841 C839 1.388 . S
C841 C842 1.366 . S
C842 C841 1.366 . S
C842 C843 1.414 . S
C842 C845 1.499 . S
C843 H817 0.950 . S
C843 C842 1.414 . S
C843 C844 1.374 . S
C844 H818 0.950 . S
C844 C840 1.385 . S
C844 C843 1.374 . S
C845 C842 1.499 . S
C845 C846 1.373 . S
C845 C847 1.389 . S
C846 H819 0.950 . S
C846 C832 1.377 . S
C846 C845 1.373 . S
C847 C831 1.377 . S
C847 C845 1.389 . S
C847 C848 1.524 . S
C848 C847 1.524 . S
C848 C849 1.397 . S
C848 C853 1.363 . S
C849 H820 0.950 . S
C849 C848 1.397 . S
C849 C850 1.334 . S
C850 H821 0.950 . S
C850 C849 1.334 . S
C850 C851 1.287 . S
C851 C850 1.287 . S
C851 C852 1.524 . S
C851 H854 0.999 . S
C852 H822 0.950 . S
C852 C851 1.524 . S
C852 C853 1.415 . S
C853 H823 0.950 . S
C853 C848 1.363 . S
C853 C852 1.415 . S
H854 C851 0.999 . S
H855 C836 0.913 . S
H856 C874 0.951 . S
H857 C876 0.951 . S
H858 C878 0.950 . S
H859 C879 0.950 . S
H860 C881 0.950 . S
H861 C884 0.950 . S
H862 C885 0.950 . S
H863 C887 0.950 . S
H864 C888 0.950 . S
H865 C889 0.951 . S
H866 C891 0.951 . S
H867 C893 0.950 . S
H868 C894 0.950 . S
H869 C896 0.950 . S
H870 C899 0.950 . S
H871 C900 0.950 . S
H872 C902 0.950 . S
H873 C903 0.950 . S
C874 H856 0.951 . S
C874 C875 1.366 . S
C874 C876 1.388 . S
C875 C874 1.366 . S
C875 C879 1.385 1_655 S
C876 H857 0.951 . S
C876 C874 1.388 . S
C876 C877 1.410 . S
C877 C876 1.410 . S
C877 C878 1.366 1_655 S
C877 C880 1.502 1_654 S
C878 H858 0.950 . S
C878 C877 1.366 1_455 S
C878 C879 1.374 . S
C879 H859 0.950 . S
C879 C875 1.385 1_455 S
C879 C878 1.374 . S
C880 C877 1.502 1_456 S
C880 C881 1.373 1_556 S
C880 C882 1.389 1_455 S
C881 H860 0.950 . S
C881 C880 1.373 1_554 S
C881 C897 1.377 . S
C882 C880 1.389 1_655 S
C882 C883 1.524 . S
C882 C896 1.377 . S
C883 C882 1.524 . S
C883 C884 1.397 . S
C883 C888 1.363 . S
C884 H861 0.950 . S
C884 C883 1.397 . S
C884 C885 1.334 . S
C885 H862 0.950 . S
C885 C884 1.334 . S
C885 C886 1.287 . S
C886 C885 1.287 . S
C886 C887 1.524 . S
C886 H905 0.913 . S
C887 H863 0.950 . S
C887 C886 1.524 . S
C887 C888 1.415 . S
C888 H864 0.950 . S
C888 C883 1.363 . S
C888 C887 1.415 . S
C889 H865 0.951 . S
C889 C890 1.366 . S
C889 C891 1.388 . S
C890 C889 1.366 . S
C890 C894 1.385 1_455 S
C891 H866 0.951 . S
C891 C889 1.388 . S
C891 C892 1.366 . S
C892 C891 1.366 . S
C892 C893 1.414 1_455 S
C892 C895 1.499 . S
C893 H867 0.950 . S
C893 C892 1.414 1_655 S
C893 C894 1.374 . S
C894 H868 0.950 . S
C894 C890 1.385 1_655 S
C894 C893 1.374 . S
C895 C892 1.499 . S
C895 C896 1.373 1_455 S
C895 C897 1.389 1_556 S
C896 H869 0.950 . S
C896 C882 1.377 . S
C896 C895 1.373 1_655 S
C897 C881 1.377 . S
C897 C895 1.389 1_554 S
C897 C898 1.524 . S
C898 C897 1.524 . S
C898 C899 1.397 . S
C898 C903 1.363 . S
C899 H870 0.950 . S
C899 C898 1.397 . S
C899 C900 1.334 . S
C900 H871 0.950 . S
C900 C899 1.334 . S
C900 C901 1.287 . S
C901 C900 1.287 . S
C901 C902 1.524 . S
C901 H904 0.999 . S
C902 H872 0.950 . S
C902 C901 1.524 . S
C902 C903 1.415 . S
C903 H873 0.950 . S
C903 C898 1.363 . S
C903 C902 1.415 . S
H904 C901 0.999 . S
H905 C886 0.913 . S
H906 C924 0.951 . S
H907 C926 0.951 . S
H908 C928 0.950 . S
H909 C929 0.950 . S
H910 C931 0.950 . S
H911 C934 0.950 . S
H912 C935 0.950 . S
H913 C937 0.950 . S
H914 C938 0.950 . S
H915 C939 0.951 . S
H916 C941 0.951 1_545 S
H917 C943 0.950 . S
H918 C944 0.950 . S
H919 C946 0.950 . S
H920 C949 0.950 . S
H921 C950 0.950 . S
H922 C952 0.950 . S
H923 C953 0.950 . S
C924 H906 0.951 . S
C924 C925 1.366 1_556 S
C924 C926 1.388 . S
C925 C924 1.366 1_554 S
C925 C929 1.385 . S
C926 H907 0.951 . S
C926 C924 1.388 . S
C926 C927 1.366 . S
C927 C926 1.366 . S
C927 C928 1.414 1_556 S
C927 C930 1.499 . S
C928 H908 0.950 . S
C928 C927 1.414 1_554 S
C928 C929 1.374 . S
C929 H909 0.950 . S
C929 C925 1.385 . S
C929 C928 1.374 . S
C930 C927 1.499 . S
C930 C931 1.373 1_556 S
C930 C932 1.389 . S
C931 H910 0.950 . S
C931 C930 1.373 1_554 S
C931 C947 1.377 . S
C932 C930 1.389 . S
C932 C933 1.524 . S
C932 C946 1.377 . S
C933 C932 1.524 . S
C933 C934 1.397 . S
C933 C938 1.363 . S
C934 H911 0.950 . S
C934 C933 1.397 . S
C934 C935 1.334 . S
C935 H912 0.950 . S
C935 C934 1.334 . S
C935 C936 1.287 . S
C936 C935 1.287 . S
C936 C937 1.524 . S
C936 H955 0.913 . S
C937 H913 0.950 . S
C937 C936 1.524 . S
C937 C938 1.415 . S
C938 H914 0.950 . S
C938 C933 1.363 . S
C938 C937 1.415 . S
C939 H915 0.951 . S
C939 C940 1.351 1_545 S
C939 C941 1.388 1_545 S
C940 C939 1.351 1_565 S
C940 C944 1.420 . S
C941 H916 0.951 1_565 S
C941 C939 1.388 1_565 S
C941 C942 1.366 . S
C942 C941 1.366 . S
C942 C943 1.414 . S
C942 C945 1.499 . S
C943 H917 0.950 . S
C943 C942 1.414 . S
C943 C944 1.374 . S
C944 H918 0.950 . S
C944 C940 1.420 . S
C944 C943 1.374 . S
C945 C942 1.499 . S
C945 C946 1.373 . S
C945 C947 1.389 1_556 S
C946 H919 0.950 . S
C946 C932 1.377 . S
C946 C945 1.373 . S
C947 C931 1.377 . S
C947 C945 1.389 1_554 S
C947 C948 1.524 . S
C948 C947 1.524 . S
C948 C949 1.397 . S
C948 C953 1.363 . S
C949 H920 0.950 . S
C949 C948 1.397 . S
C949 C950 1.334 . S
C950 H921 0.950 . S
C950 C949 1.334 . S
C950 C951 1.287 . S
C951 C950 1.287 . S
C951 C952 1.524 . S
C951 H954 0.999 . S
C952 H922 0.950 . S
C952 C951 1.524 . S
C952 C953 1.415 . S
C953 H923 0.950 . S
C953 C948 1.363 . S
C953 C952 1.415 . S
H954 C951 0.999 . S
H955 C936 0.913 . S
H956 C974 0.951 . S
H957 C976 0.951 . S
H958 C978 0.950 . S
H959 C979 0.950 . S
H960 C981 0.950 . S
H961 C984 0.950 . S
H962 C985 0.950 . S
H963 C987 0.950 . S
H964 C988 0.950 . S
H965 C989 0.951 . S
H966 C991 0.951 . S
H967 C993 0.950 . S
H968 C994 0.950 . S
H969 C996 0.950 . S
H970 C999 0.950 . S
H971 C1000 0.950 . S
H972 C1002 0.950 . S
H973 C1003 0.950 . S
C974 H956 0.951 . S
C974 C975 1.366 . S
C974 C976 1.388 . S
C975 C974 1.366 . S
C975 C979 1.385 . S
C976 H957 0.951 . S
C976 C974 1.388 . S
C976 C977 1.366 . S
C977 C976 1.366 . S
C977 C978 1.414 . S
C977 C980 1.499 . S
C978 H958 0.950 . S
C978 C977 1.414 . S
C978 C979 1.374 . S
C979 H959 0.950 . S
C979 C975 1.385 . S
C979 C978 1.374 . S
C980 C977 1.499 . S
C980 C981 1.373 . S
C980 C982 1.389 . S
C981 H960 0.950 . S
C981 C980 1.373 . S
C981 C997 1.377 . S
C982 C980 1.389 . S
C982 C983 1.524 . S
C982 C996 1.377 . S
C983 C982 1.524 . S
C983 C984 1.397 . S
C983 C988 1.363 . S
C984 H961 0.950 . S
C984 C983 1.397 . S
C984 C985 1.334 . S
C985 H962 0.950 . S
C985 C984 1.334 . S
C985 C986 1.287 . S
C986 C985 1.287 . S
C986 C987 1.524 . S
C986 H1005 0.913 . S
C987 H963 0.950 . S
C987 C986 1.524 . S
C987 C988 1.415 . S
C988 H964 0.950 . S
C988 C983 1.363 . S
C988 C987 1.415 . S
C989 H965 0.951 . S
C989 C990 1.366 . S
C989 C991 1.388 . S
C990 C989 1.366 . S
C990 C994 1.385 . S
C991 H966 0.951 . S
C991 C989 1.388 . S
C991 C992 1.366 . S
C992 C991 1.366 . S
C992 C993 1.414 . S
C992 C995 1.499 . S
C993 H967 0.950 . S
C993 C992 1.414 . S
C993 C994 1.374 . S
C994 H968 0.950 . S
C994 C990 1.385 . S
C994 C993 1.374 . S
C995 C992 1.499 . S
C995 C996 1.373 . S
C995 C997 1.389 . S
C996 H969 0.950 . S
C996 C982 1.377 . S
C996 C995 1.373 . S
C997 C981 1.377 . S
C997 C995 1.389 . S
C997 C998 1.524 . S
C998 C997 1.524 . S
C998 C999 1.397 . S
C998 C1003 1.363 . S
C999 H970 0.950 . S
C999 C998 1.397 . S
C999 C1000 1.334 1_554 S
C1000 H971 0.950 . S
C1000 C999 1.334 1_556 S
C1000 C1001 1.287 1_556 S
C1001 C1000 1.287 1_554 S
C1001 C1002 1.524 . S
C1001 H1004 0.999 1_554 S
C1002 H972 0.950 . S
C1002 C1001 1.524 . S
C1002 C1003 1.415 . S
C1003 H973 0.950 . S
C1003 C998 1.363 . S
C1003 C1002 1.415 . S
H1004 C1001 0.999 1_556 S
H1005 C986 0.913 . S
H1006 C1024 0.951 . S
H1007 C1026 0.951 . S
H1008 C1028 0.950 1_554 S
H1009 C1029 0.950 1_554 S
H1010 C1031 0.950 . S
H1011 C1034 0.950 . S
H1012 C1035 0.950 . S
H1013 C1037 0.950 . S
H1014 C1038 0.950 . S
H1015 C1039 0.951 . S
H1016 C1041 0.951 . S
H1017 C1043 0.950 . S
H1018 C1044 0.950 . S
H1019 C1046 0.950 . S
H1020 C1049 0.950 . S
H1021 C1050 0.950 . S
H1022 C1052 0.950 . S
H1023 C1053 0.950 . S
C1024 H1006 0.951 . S
C1024 C1025 1.366 . S
C1024 C1026 1.388 . S
C1025 C1024 1.366 . S
C1025 C1029 1.385 . S
C1026 H1007 0.951 . S
C1026 C1024 1.388 . S
C1026 C1027 1.366 . S
C1027 C1026 1.366 . S
C1027 C1028 1.414 . S
C1027 C1030 1.499 . S
C1028 H1008 0.950 1_556 S
C1028 C1027 1.414 . S
C1028 C1029 1.374 . S
C1029 H1009 0.950 1_556 S
C1029 C1025 1.385 . S
C1029 C1028 1.374 . S
C1030 C1027 1.499 . S
C1030 C1031 1.373 . S
C1030 C1032 1.389 . S
C1031 H1010 0.950 . S
C1031 C1030 1.373 . S
C1031 C1047 1.377 . S
C1032 C1030 1.389 . S
C1032 C1033 1.524 . S
C1032 C1046 1.377 . S
C1033 C1032 1.524 . S
C1033 C1034 1.397 . S
C1033 C1038 1.363 . S
C1034 H1011 0.950 . S
C1034 C1033 1.397 . S
C1034 C1035 1.334 . S
C1035 H1012 0.950 . S
C1035 C1034 1.334 . S
C1035 C1036 1.287 . S
C1036 C1035 1.287 . S
C1036 C1037 1.524 . S
C1036 H1055 0.913 . S
C1037 H1013 0.950 . S
C1037 C1036 1.524 . S
C1037 C1038 1.415 . S
C1038 H1014 0.950 . S
C1038 C1033 1.363 . S
C1038 C1037 1.415 . S
C1039 H1015 0.951 . S
C1039 C1040 1.366 . S
C1039 C1041 1.388 . S
C1040 C1039 1.366 . S
C1040 C1044 1.385 . S
C1041 H1016 0.951 . S
C1041 C1039 1.388 . S
C1041 C1042 1.366 . S
C1042 C1041 1.366 . S
C1042 C1043 1.414 . S
C1042 C1045 1.499 . S
C1043 H1017 0.950 . S
C1043 C1042 1.414 . S
C1043 C1044 1.374 . S
C1044 H1018 0.950 . S
C1044 C1040 1.385 . S
C1044 C1043 1.374 . S
C1045 C1042 1.499 . S
C1045 C1046 1.373 . S
C1045 C1047 1.389 . S
C1046 H1019 0.950 . S
C1046 C1032 1.377 . S
C1046 C1045 1.373 . S
C1047 C1031 1.377 . S
C1047 C1045 1.389 . S
C1047 C1048 1.524 . S
C1048 C1047 1.524 . S
C1048 C1049 1.397 . S
C1048 C1053 1.363 1_556 S
C1049 H1020 0.950 . S
C1049 C1048 1.397 . S
C1049 C1050 1.334 . S
C1050 H1021 0.950 . S
C1050 C1049 1.334 . S
C1050 C1051 1.287 . S
C1051 C1050 1.287 . S
C1051 C1052 1.524 1_556 S
C1051 H1054 0.999 . S
C1052 H1022 0.950 . S
C1052 C1051 1.524 1_554 S
C1052 C1053 1.415 . S
C1053 H1023 0.950 . S
C1053 C1048 1.363 1_554 S
C1053 C1052 1.415 . S
H1054 C1051 0.999 . S
H1055 C1036 0.913 . S
H1056 C1074 0.951 . S
H1057 C1076 0.951 . S
H1058 C1078 0.950 1_655 S
H1059 C1079 0.950 1_655 S
H1060 C1081 0.950 1_655 S
H1061 C1084 0.950 . S
H1062 C1085 0.950 . S
H1063 C1087 0.950 . S
H1064 C1088 0.950 . S
H1065 C1089 0.951 1_655 S
H1066 C1091 0.951 1_655 S
H1067 C1093 0.950 . S
H1068 C1094 0.950 . S
H1069 C1096 0.950 . S
H1070 C1099 0.950 1_455 S
H1071 C1100 0.950 . S
H1072 C1102 0.950 . S
H1073 C1103 0.950 . S
C1074 H1056 0.951 . S
C1074 C1075 1.366 . S
C1074 C1076 1.388 . S
C1075 C1074 1.366 . S
C1075 C1079 1.385 . S
C1076 H1057 0.951 . S
C1076 C1074 1.388 . S
C1076 C1077 1.366 . S
C1077 C1076 1.366 . S
C1077 C1078 1.414 . S
C1077 C1080 1.499 . S
C1078 H1058 0.950 1_455 S
C1078 C1077 1.414 . S
C1078 C1079 1.374 . S
C1079 H1059 0.950 1_455 S
C1079 C1075 1.385 . S
C1079 C1078 1.374 . S
C1080 C1077 1.499 . S
C1080 C1081 1.373 . S
C1080 C1082 1.389 . S
C1081 H1060 0.950 1_455 S
C1081 C1080 1.373 . S
C1081 C1097 1.377 . S
C1082 C1080 1.389 . S
C1082 C1083 1.524 . S
C1082 C1096 1.377 . S
C1083 C1082 1.524 . S
C1083 C1084 1.397 . S
C1083 C1088 1.363 . S
C1084 H1061 0.950 . S
C1084 C1083 1.397 . S
C1084 C1085 1.334 . S
C1085 H1062 0.950 . S
C1085 C1084 1.334 . S
C1085 C1086 1.287 . S
C1086 C1085 1.287 . S
C1086 C1087 1.524 . S
C1086 H1105 0.913 . S
C1087 H1063 0.950 . S
C1087 C1086 1.524 . S
C1087 C1088 1.415 . S
C1088 H1064 0.950 . S
C1088 C1083 1.363 . S
C1088 C1087 1.415 . S
C1089 H1065 0.951 1_455 S
C1089 C1090 1.366 . S
C1089 C1091 1.388 . S
C1090 C1089 1.366 . S
C1090 C1094 1.385 . S
C1091 H1066 0.951 1_455 S
C1091 C1089 1.388 . S
C1091 C1092 1.366 . S
C1092 C1091 1.366 . S
C1092 C1093 1.414 . S
C1092 C1095 1.499 . S
C1093 H1067 0.950 . S
C1093 C1092 1.414 . S
C1093 C1094 1.374 . S
C1094 H1068 0.950 . S
C1094 C1090 1.385 . S
C1094 C1093 1.374 . S
C1095 C1092 1.499 . S
C1095 C1096 1.373 . S
C1095 C1097 1.389 . S
C1096 H1069 0.950 . S
C1096 C1082 1.377 . S
C1096 C1095 1.373 . S
C1097 C1081 1.377 . S
C1097 C1095 1.389 . S
C1097 C1098 1.524 1_455 S
C1098 C1097 1.524 1_655 S
C1098 C1099 1.397 . S
C1098 C1103 1.363 . S
C1099 H1070 0.950 1_655 S
C1099 C1098 1.397 . S
C1099 C1100 1.334 . S
C1100 H1071 0.950 . S
C1100 C1099 1.334 . S
C1100 C1101 1.287 . S
C1101 C1100 1.287 . S
C1101 C1102 1.524 . S
C1101 H1104 0.999 . S
C1102 H1072 0.950 . S
C1102 C1101 1.524 . S
C1102 C1103 1.415 . S
C1103 H1073 0.950 . S
C1103 C1098 1.363 . S
C1103 C1102 1.415 . S
H1104 C1101 0.999 . S
H1105 C1086 0.913 . S
H1106 C1124 0.951 . S
H1107 C1126 0.951 . S
H1108 C1128 0.950 . S
H1109 C1129 0.950 . S
H1110 C1131 0.950 . S
H1111 C1134 0.950 . S
H1112 C1135 0.950 . S
H1113 C1137 0.950 . S
H1114 C1138 0.950 . S
H1115 C1139 0.951 . S
H1116 C1141 0.951 . S
H1117 C1143 0.950 . S
H1118 C1144 0.950 . S
H1119 C1146 0.950 . S
H1120 C1149 0.950 . S
H1121 C1150 0.950 . S
H1122 C1152 0.950 . S
H1123 C1153 0.950 . S
C1124 H1106 0.951 . S
C1124 C1125 1.366 . S
C1124 C1126 1.388 . S
C1125 C1124 1.366 . S
C1125 C1129 1.385 . S
C1126 H1107 0.951 . S
C1126 C1124 1.388 . S
C1126 C1127 1.366 . S
C1127 C1126 1.366 . S
C1127 C1128 1.414 . S
C1127 C1130 1.499 . S
C1128 H1108 0.950 . S
C1128 C1127 1.414 . S
C1128 C1129 1.374 . S
C1129 H1109 0.950 . S
C1129 C1125 1.385 . S
C1129 C1128 1.374 . S
C1130 C1127 1.499 . S
C1130 C1131 1.373 . S
C1130 C1132 1.389 . S
C1131 H1110 0.950 . S
C1131 C1130 1.373 . S
C1131 C1147 1.377 . S
C1132 C1130 1.389 . S
C1132 C1133 1.524 . S
C1132 C1146 1.377 . S
C1133 C1132 1.524 . S
C1133 C1134 1.397 . S
C1133 C1138 1.363 . S
C1134 H1111 0.950 . S
C1134 C1133 1.397 . S
C1134 C1135 1.334 . S
C1135 H1112 0.950 . S
C1135 C1134 1.334 . S
C1135 C1136 1.287 . S
C1136 C1135 1.287 . S
C1136 C1137 1.524 . S
C1136 H1155 0.913 . S
C1137 H1113 0.950 . S
C1137 C1136 1.524 . S
C1137 C1138 1.415 . S
C1138 H1114 0.950 . S
C1138 C1133 1.363 . S
C1138 C1137 1.415 . S
C1139 H1115 0.951 . S
C1139 C1140 1.366 . S
C1139 C1141 1.388 . S
C1140 C1139 1.366 . S
C1140 C1144 1.385 . S
C1141 H1116 0.951 . S
C1141 C1139 1.388 . S
C1141 C1142 1.366 . S
C1142 C1141 1.366 . S
C1142 C1143 1.414 . S
C1142 C1145 1.499 . S
C1143 H1117 0.950 . S
C1143 C1142 1.414 . S
C1143 C1144 1.374 . S
C1144 H1118 0.950 . S
C1144 C1140 1.385 . S
C1144 C1143 1.374 . S
C1145 C1142 1.499 . S
C1145 C1146 1.373 . S
C1145 C1147 1.389 . S
C1146 H1119 0.950 . S
C1146 C1132 1.377 . S
C1146 C1145 1.373 . S
C1147 C1131 1.377 . S
C1147 C1145 1.389 . S
C1147 C1148 1.524 . S
C1148 C1147 1.524 . S
C1148 C1149 1.397 . S
C1148 C1153 1.363 . S
C1149 H1120 0.950 . S
C1149 C1148 1.397 . S
C1149 C1150 1.334 . S
C1150 H1121 0.950 . S
C1150 C1149 1.334 . S
C1150 C1151 1.287 . S
C1151 C1150 1.287 . S
C1151 C1152 1.524 . S
C1151 H1154 0.999 . S
C1152 H1122 0.950 . S
C1152 C1151 1.524 . S
C1152 C1153 1.415 . S
C1153 H1123 0.950 . S
C1153 C1148 1.363 . S
C1153 C1152 1.415 . S
H1154 C1151 0.999 . S
H1155 C1136 0.913 . S
H1156 C1174 0.951 . S
H1157 C1176 0.951 . S
H1158 C1178 0.950 . S
H1159 C1179 0.950 . S
H1160 C1181 0.950 . S
H1161 C1184 0.950 . S
H1162 C1185 0.950 . S
H1163 C1187 0.950 . S
H1164 C1188 0.950 . S
H1165 C1189 0.951 . S
H1166 C1191 0.951 . S
H1167 C1193 0.950 . S
H1168 C1194 0.950 . S
H1169 C1196 0.950 1_556 S
H1170 C1199 0.950 . S
H1171 C1200 0.950 . S
H1172 C1202 0.950 . S
H1173 C1203 0.950 . S
C1174 H1156 0.951 . S
C1174 C1175 1.366 . S
C1174 C1176 1.388 . S
C1175 C1174 1.366 . S
C1175 C1179 1.385 . S
C1176 H1157 0.951 . S
C1176 C1174 1.388 . S
C1176 C1177 1.366 . S
C1177 C1176 1.366 . S
C1177 C1178 1.414 . S
C1177 C1180 1.499 . S
C1178 H1158 0.950 . S
C1178 C1177 1.414 . S
C1178 C1179 1.374 . S
C1179 H1159 0.950 . S
C1179 C1175 1.385 . S
C1179 C1178 1.374 . S
C1180 C1177 1.499 . S
C1180 C1181 1.373 . S
C1180 C1182 1.389 . S
C1181 H1160 0.950 . S
C1181 C1180 1.373 . S
C1181 C1197 1.377 . S
C1182 C1180 1.389 . S
C1182 C1183 1.524 . S
C1182 C1196 1.377 . S
C1183 C1182 1.524 . S
C1183 C1184 1.397 . S
C1183 C1188 1.363 1_554 S
C1184 H1161 0.950 . S
C1184 C1183 1.397 . S
C1184 C1185 1.334 1_554 S
C1185 H1162 0.950 . S
C1185 C1184 1.334 1_556 S
C1185 C1186 1.287 . S
C1186 C1185 1.287 . S
C1186 C1187 1.524 . S
C1186 H1205 0.913 . S
C1187 H1163 0.950 . S
C1187 C1186 1.524 . S
C1187 C1188 1.415 . S
C1188 H1164 0.950 . S
C1188 C1183 1.363 1_556 S
C1188 C1187 1.415 . S
C1189 H1165 0.951 . S
C1189 C1190 1.366 1_554 S
C1189 C1191 1.388 . S
C1190 C1189 1.366 1_556 S
C1190 C1194 1.385 . S
C1191 H1166 0.951 . S
C1191 C1189 1.388 . S
C1191 C1192 1.366 . S
C1192 C1191 1.366 . S
C1192 C1193 1.414 1_554 S
C1192 C1195 1.499 . S
C1193 H1167 0.950 . S
C1193 C1192 1.414 1_556 S
C1193 C1194 1.374 . S
C1194 H1168 0.950 . S
C1194 C1190 1.385 . S
C1194 C1193 1.374 . S
C1195 C1192 1.499 . S
C1195 C1196 1.373 . S
C1195 C1197 1.389 . S
C1196 H1169 0.950 1_554 S
C1196 C1182 1.377 . S
C1196 C1195 1.373 . S
C1197 C1181 1.377 . S
C1197 C1195 1.389 . S
C1197 C1198 1.524 . S
C1198 C1197 1.524 . S
C1198 C1199 1.397 . S
C1198 C1203 1.363 . S
C1199 H1170 0.950 . S
C1199 C1198 1.397 . S
C1199 C1200 1.334 . S
C1200 H1171 0.950 . S
C1200 C1199 1.334 . S
C1200 C1201 1.287 . S
C1201 C1200 1.287 . S
C1201 C1202 1.524 . S
C1201 H1204 0.999 . S
C1202 H1172 0.950 . S
C1202 C1201 1.524 . S
C1202 C1203 1.415 . S
C1203 H1173 0.950 . S
C1203 C1198 1.363 . S
C1203 C1202 1.415 . S
H1204 C1201 0.999 . S
H1205 C1186 0.913 . S
H1206 C1224 0.951 . S
H1207 C1226 0.951 . S
H1208 C1228 0.950 . S
H1209 C1229 0.950 . S
H1210 C1231 0.950 . S
H1211 C1234 0.950 . S
H1212 C1235 0.950 . S
H1213 C1237 0.950 . S
H1214 C1238 0.950 . S
H1215 C1239 0.951 . S
H1216 C1241 0.951 . S
H1217 C1243 0.950 . S
H1218 C1244 0.950 . S
H1219 C1246 0.950 . S
H1220 C1249 0.950 . S
H1221 C1250 0.950 . S
H1222 C1252 0.950 . S
H1223 C1253 0.950 . S
C1224 H1206 0.951 . S
C1224 C1225 1.366 . S
C1224 C1226 1.388 . S
C1225 C1224 1.366 . S
C1225 C1229 1.385 . S
C1226 H1207 0.951 . S
C1226 C1224 1.388 . S
C1226 C1227 1.366 . S
C1227 C1226 1.366 . S
C1227 C1228 1.414 . S
C1227 C1230 1.499 . S
C1228 H1208 0.950 . S
C1228 C1227 1.414 . S
C1228 C1229 1.374 . S
C1229 H1209 0.950 . S
C1229 C1225 1.385 . S
C1229 C1228 1.374 . S
C1230 C1227 1.499 . S
C1230 C1231 1.373 . S
C1230 C1232 1.389 . S
C1231 H1210 0.950 . S
C1231 C1230 1.373 . S
C1231 C1247 1.377 . S
C1232 C1230 1.389 . S
C1232 C1233 1.524 . S
C1232 C1246 1.377 . S
C1233 C1232 1.524 . S
C1233 C1234 1.397 . S
C1233 C1238 1.363 . S
C1234 H1211 0.950 . S
C1234 C1233 1.397 . S
C1234 C1235 1.334 . S
C1235 H1212 0.950 . S
C1235 C1234 1.334 . S
C1235 C1236 1.287 . S
C1236 C1235 1.287 . S
C1236 C1237 1.524 . S
C1236 H1255 0.913 . S
C1237 H1213 0.950 . S
C1237 C1236 1.524 . S
C1237 C1238 1.415 . S
C1238 H1214 0.950 . S
C1238 C1233 1.363 . S
C1238 C1237 1.415 . S
C1239 H1215 0.951 . S
C1239 C1240 1.366 . S
C1239 C1241 1.388 . S
C1240 C1239 1.366 . S
C1240 C1244 1.385 . S
C1241 H1216 0.951 . S
C1241 C1239 1.388 . S
C1241 C1242 1.366 . S
C1242 C1241 1.366 . S
C1242 C1243 1.414 . S
C1242 C1245 1.499 . S
C1243 H1217 0.950 . S
C1243 C1242 1.414 . S
C1243 C1244 1.374 . S
C1244 H1218 0.950 . S
C1244 C1240 1.385 . S
C1244 C1243 1.374 . S
C1245 C1242 1.499 . S
C1245 C1246 1.373 . S
C1245 C1247 1.389 . S
C1246 H1219 0.950 . S
C1246 C1232 1.377 . S
C1246 C1245 1.373 . S
C1247 C1231 1.377 . S
C1247 C1245 1.389 . S
C1247 C1248 1.524 . S
C1248 C1247 1.524 . S
C1248 C1249 1.397 . S
C1248 C1253 1.363 . S
C1249 H1220 0.950 . S
C1249 C1248 1.397 . S
C1249 C1250 1.334 . S
C1250 H1221 0.950 . S
C1250 C1249 1.334 . S
C1250 C1251 1.287 . S
C1251 C1250 1.287 . S
C1251 C1252 1.524 . S
C1251 H1254 0.999 . S
C1252 H1222 0.950 . S
C1252 C1251 1.524 . S
C1252 C1253 1.415 . S
C1253 H1223 0.950 . S
C1253 C1248 1.363 . S
C1253 C1252 1.415 . S
H1254 C1251 0.999 . S
H1255 C1236 0.913 . S
H1256 C1274 0.968 . S
H1257 C1276 0.949 . S
H1258 C1278 0.950 . S
H1259 C1279 0.950 . S
H1260 C1281 0.950 . S
H1261 C1284 0.950 . S
H1262 C1285 0.950 . S
H1263 C1287 0.950 . S
H1264 C1288 0.950 . S
H1265 C1289 0.951 . S
H1266 C1291 0.951 . S
H1267 C1293 0.956 . S
H1268 C1294 0.948 1_455 S
H1269 C1296 0.950 . S
H1270 C1299 0.950 . S
H1271 C1300 0.950 . S
H1272 C1302 0.950 . S
H1273 C1303 0.950 . S
C1274 H1256 0.968 . S
C1274 C1275 1.355 1_455 S
C1274 C1276 1.383 . S
C1275 C1274 1.355 1_655 S
C1275 C1279 1.385 . S
C1276 H1257 0.949 . S
C1276 C1274 1.383 . S
C1276 C1277 1.368 1_455 S
C1277 C1276 1.368 1_655 S
C1277 C1278 1.414 . S
C1277 C1280 1.499 . S
C1278 H1258 0.950 . S
C1278 C1277 1.414 . S
C1278 C1279 1.374 . S
C1279 H1259 0.950 . S
C1279 C1275 1.385 . S
C1279 C1278 1.374 . S
C1280 C1277 1.499 . S
C1280 C1281 1.373 1_655 S
C1280 C1282 1.389 . S
C1281 H1260 0.950 . S
C1281 C1280 1.373 1_455 S
C1281 C1297 1.377 . S
C1282 C1280 1.389 . S
C1282 C1283 1.524 . S
C1282 C1296 1.377 . S
C1283 C1282 1.524 . S
C1283 C1284 1.397 . S
C1283 C1288 1.363 . S
C1284 H1261 0.950 . S
C1284 C1283 1.397 . S
C1284 C1285 1.334 . S
C1285 H1262 0.950 . S
C1285 C1284 1.334 . S
C1285 C1286 1.287 . S
C1286 C1285 1.287 . S
C1286 C1287 1.524 . S
C1286 H1305 0.913 . S
C1287 H1263 0.950 . S
C1287 C1286 1.524 . S
C1287 C1288 1.415 . S
C1288 H1264 0.950 . S
C1288 C1283 1.363 . S
C1288 C1287 1.415 . S
C1289 H1265 0.951 . S
C1289 C1290 1.366 . S
C1289 C1291 1.388 . S
C1290 C1289 1.366 . S
C1290 C1294 1.387 . S
C1291 H1266 0.951 . S
C1291 C1289 1.388 . S
C1291 C1292 1.366 . S
C1292 C1291 1.366 . S
C1292 C1293 1.410 1_655 S
C1292 C1295 1.499 . S
C1293 H1267 0.956 . S
C1293 C1292 1.410 1_455 S
C1293 C1294 1.371 1_455 S
C1294 H1268 0.948 1_655 S
C1294 C1290 1.387 . S
C1294 C1293 1.371 1_655 S
C1295 C1292 1.499 . S
C1295 C1296 1.373 . S
C1295 C1297 1.389 1_655 S
C1296 H1269 0.950 . S
C1296 C1282 1.377 . S
C1296 C1295 1.373 . S
C1297 C1281 1.377 . S
C1297 C1295 1.389 1_455 S
C1297 C1298 1.524 . S
C1298 C1297 1.524 . S
C1298 C1299 1.397 . S
C1298 C1303 1.363 . S
C1299 H1270 0.950 . S
C1299 C1298 1.397 . S
C1299 C1300 1.334 . S
C1300 H1271 0.950 . S
C1300 C1299 1.334 . S
C1300 C1301 1.287 . S
C1301 C1300 1.287 . S
C1301 C1302 1.524 . S
C1301 H1304 0.999 . S
C1302 H1272 0.950 . S
C1302 C1301 1.524 . S
C1302 C1303 1.415 . S
C1303 H1273 0.950 . S
C1303 C1298 1.363 . S
C1303 C1302 1.415 . S
H1304 C1301 0.999 . S
H1305 C1286 0.913 . S
H1306 C1324 0.951 . S
H1307 C1326 0.951 . S
H1308 C1328 0.950 . S
H1309 C1329 0.950 . S
H1310 C1331 0.950 . S
H1311 C1334 0.950 . S
H1312 C1335 0.950 . S
H1313 C1337 0.950 . S
H1314 C1338 0.950 . S
H1315 C1339 0.951 . S
H1316 C1341 0.951 . S
H1317 C1343 0.950 . S
H1318 C1344 0.950 . S
H1319 C1346 0.950 . S
H1320 C1349 0.950 . S
H1321 C1350 0.950 . S
H1322 C1352 0.950 . S
H1323 C1353 0.950 . S
C1324 H1306 0.951 . S
C1324 C1325 1.366 . S
C1324 C1326 1.388 . S
C1325 C1324 1.366 . S
C1325 C1329 1.385 . S
C1326 H1307 0.951 . S
C1326 C1324 1.388 . S
C1326 C1327 1.366 . S
C1327 C1326 1.366 . S
C1327 C1328 1.414 . S
C1327 C1330 1.499 . S
C1328 H1308 0.950 . S
C1328 C1327 1.414 . S
C1328 C1329 1.374 . S
C1329 H1309 0.950 . S
C1329 C1325 1.385 . S
C1329 C1328 1.374 . S
C1330 C1327 1.499 . S
C1330 C1331 1.373 . S
C1330 C1332 1.389 . S
C1331 H1310 0.950 . S
C1331 C1330 1.373 . S
C1331 C1347 1.377 . S
C1332 C1330 1.389 . S
C1332 C1333 1.524 . S
C1332 C1346 1.377 . S
C1333 C1332 1.524 . S
C1333 C1334 1.397 . S
C1333 C1338 1.363 . S
C1334 H1311 0.950 . S
C1334 C1333 1.397 . S
C1334 C1335 1.334 . S
C1335 H1312 0.950 . S
C1335 C1334 1.334 . S
C1335 C1336 1.287 . S
C1336 C1335 1.287 . S
C1336 C1337 1.524 . S
C1336 H1355 0.913 . S
C1337 H1313 0.950 . S
C1337 C1336 1.524 . S
C1337 C1338 1.415 . S
C1338 H1314 0.950 . S
C1338 C1333 1.363 . S
C1338 C1337 1.415 . S
C1339 H1315 0.951 . S
C1339 C1340 1.366 . S
C1339 C1341 1.388 . S
C1340 C1339 1.366 . S
C1340 C1344 1.385 . S
C1341 H1316 0.951 . S
C1341 C1339 1.388 . S
C1341 C1342 1.366 . S
C1342 C1341 1.366 . S
C1342 C1343 1.414 . S
C1342 C1345 1.499 . S
C1343 H1317 0.950 . S
C1343 C1342 1.414 . S
C1343 C1344 1.374 . S
C1344 H1318 0.950 . S
C1344 C1340 1.385 . S
C1344 C1343 1.374 . S
C1345 C1342 1.499 . S
C1345 C1346 1.373 . S
C1345 C1347 1.389 . S
C1346 H1319 0.950 . S
C1346 C1332 1.377 . S
C1346 C1345 1.373 . S
C1347 C1331 1.377 . S
C1347 C1345 1.389 . S
C1347 C1348 1.524 . S
C1348 C1347 1.524 . S
C1348 C1349 1.397 . S
C1348 C1353 1.363 . S
C1349 H1320 0.950 . S
C1349 C1348 1.397 . S
C1349 C1350 1.334 . S
C1350 H1321 0.950 . S
C1350 C1349 1.334 . S
C1350 C1351 1.287 . S
C1351 C1350 1.287 . S
C1351 C1352 1.524 . S
C1351 H1354 0.999 . S
C1352 H1322 0.950 . S
C1352 C1351 1.524 . S
C1352 C1353 1.415 . S
C1353 H1323 0.950 . S
C1353 C1348 1.363 . S
C1353 C1352 1.415 . S
H1354 C1351 0.999 . S
H1355 C1336 0.913 . S
H1356 C1374 0.951 . S
H1357 C1376 0.951 . S
H1358 C1378 0.950 . S
H1359 C1379 0.950 . S
H1360 C1381 0.950 . S
H1361 C1384 0.950 . S
H1362 C1385 0.950 . S
H1363 C1387 0.950 . S
H1364 C1388 0.950 . S
H1365 C1389 0.951 . S
H1366 C1391 0.951 . S
H1367 C1393 0.950 . S
H1368 C1394 0.950 . S
H1369 C1396 0.950 . S
H1370 C1399 0.950 . S
H1371 C1400 0.950 . S
H1372 C1402 0.950 . S
H1373 C1403 0.950 . S
C1374 H1356 0.951 . S
C1374 C1375 1.366 . S
C1374 C1376 1.388 . S
C1375 C1374 1.366 . S
C1375 C1379 1.385 . S
C1376 H1357 0.951 . S
C1376 C1374 1.388 . S
C1376 C1377 1.366 . S
C1377 C1376 1.366 . S
C1377 C1378 1.414 . S
C1377 C1380 1.499 . S
C1378 H1358 0.950 . S
C1378 C1377 1.414 . S
C1378 C1379 1.374 . S
C1379 H1359 0.950 . S
C1379 C1375 1.385 . S
C1379 C1378 1.374 . S
C1380 C1377 1.499 . S
C1380 C1381 1.373 . S
C1380 C1382 1.389 . S
C1381 H1360 0.950 . S
C1381 C1380 1.373 . S
C1381 C1397 1.377 . S
C1382 C1380 1.389 . S
C1382 C1383 1.524 . S
C1382 C1396 1.377 . S
C1383 C1382 1.524 . S
C1383 C1384 1.397 . S
C1383 C1388 1.363 . S
C1384 H1361 0.950 . S
C1384 C1383 1.397 . S
C1384 C1385 1.334 . S
C1385 H1362 0.950 . S
C1385 C1384 1.334 . S
C1385 C1386 1.287 . S
C1386 C1385 1.287 . S
C1386 C1387 1.524 . S
C1386 H1405 0.913 . S
C1387 H1363 0.950 . S
C1387 C1386 1.524 . S
C1387 C1388 1.415 . S
C1388 H1364 0.950 . S
C1388 C1383 1.363 . S
C1388 C1387 1.415 . S
C1389 H1365 0.951 . S
C1389 C1390 1.366 . S
C1389 C1391 1.388 . S
C1390 C1389 1.366 . S
C1390 C1394 1.385 . S
C1391 H1366 0.951 . S
C1391 C1389 1.388 . S
C1391 C1392 1.366 . S
C1392 C1391 1.366 . S
C1392 C1393 1.414 . S
C1392 C1395 1.499 . S
C1393 H1367 0.950 . S
C1393 C1392 1.414 . S
C1393 C1394 1.374 . S
C1394 H1368 0.950 . S
C1394 C1390 1.385 . S
C1394 C1393 1.374 . S
C1395 C1392 1.499 . S
C1395 C1396 1.373 . S
C1395 C1397 1.389 . S
C1396 H1369 0.950 . S
C1396 C1382 1.377 . S
C1396 C1395 1.373 . S
C1397 C1381 1.377 . S
C1397 C1395 1.389 . S
C1397 C1398 1.524 . S
C1398 C1397 1.524 . S
C1398 C1399 1.397 . S
C1398 C1403 1.363 . S
C1399 H1370 0.950 . S
C1399 C1398 1.397 . S
C1399 C1400 1.334 . S
C1400 H1371 0.950 . S
C1400 C1399 1.334 . S
C1400 C1401 1.287 . S
C1401 C1400 1.287 . S
C1401 C1402 1.524 . S
C1401 H1404 0.999 . S
C1402 H1372 0.950 . S
C1402 C1401 1.524 . S
C1402 C1403 1.415 . S
C1403 H1373 0.950 . S
C1403 C1398 1.363 . S
C1403 C1402 1.415 . S
H1404 C1401 0.999 . S
H1405 C1386 0.913 . S
H1406 C1424 0.951 . S
H1407 C1426 0.951 . S
H1408 C1428 0.950 . S
H1409 C1429 0.950 . S
H1410 C1431 0.950 . S
H1411 C1434 0.950 . S
H1412 C1435 0.950 . S
H1413 C1437 0.950 . S
H1414 C1438 0.950 . S
H1415 C1439 0.951 . S
H1416 C1441 0.951 . S
H1417 C1443 0.950 . S
H1418 C1444 0.950 . S
H1419 C1446 0.950 . S
H1420 C1449 0.950 . S
H1421 C1450 0.950 . S
H1422 C1452 0.950 . S
H1423 C1453 0.950 . S
C1424 H1406 0.951 . S
C1424 C1425 1.366 . S
C1424 C1426 1.388 . S
C1425 C1424 1.366 . S
C1425 C1429 1.385 . S
C1426 H1407 0.951 . S
C1426 C1424 1.388 . S
C1426 C1427 1.366 . S
C1427 C1426 1.366 . S
C1427 C1428 1.414 . S
C1427 C1430 1.499 . S
C1428 H1408 0.950 . S
C1428 C1427 1.414 . S
C1428 C1429 1.374 . S
C1429 H1409 0.950 . S
C1429 C1425 1.385 . S
C1429 C1428 1.374 . S
C1430 C1427 1.499 . S
C1430 C1431 1.373 . S
C1430 C1432 1.389 . S
C1431 H1410 0.950 . S
C1431 C1430 1.373 . S
C1431 C1447 1.377 . S
C1432 C1430 1.389 . S
C1432 C1433 1.524 . S
C1432 C1446 1.377 . S
C1433 C1432 1.524 . S
C1433 C1434 1.397 . S
C1433 C1438 1.363 . S
C1434 H1411 0.950 . S
C1434 C1433 1.397 . S
C1434 C1435 1.334 . S
C1435 H1412 0.950 . S
C1435 C1434 1.334 . S
C1435 C1436 1.287 . S
C1436 C1435 1.287 . S
C1436 C1437 1.524 . S
C1436 H1455 0.913 . S
C1437 H1413 0.950 . S
C1437 C1436 1.524 . S
C1437 C1438 1.415 . S
C1438 H1414 0.950 . S
C1438 C1433 1.363 . S
C1438 C1437 1.415 . S
C1439 H1415 0.951 . S
C1439 C1440 1.366 . S
C1439 C1441 1.388 . S
C1440 C1439 1.366 . S
C1440 C1444 1.385 . S
C1441 H1416 0.951 . S
C1441 C1439 1.388 . S
C1441 C1442 1.366 . S
C1442 C1441 1.366 . S
C1442 C1443 1.414 . S
C1442 C1445 1.499 . S
C1443 H1417 0.950 . S
C1443 C1442 1.414 . S
C1443 C1444 1.374 . S
C1444 H1418 0.950 . S
C1444 C1440 1.385 . S
C1444 C1443 1.374 . S
C1445 C1442 1.499 . S
C1445 C1446 1.373 . S
C1445 C1447 1.389 . S
C1446 H1419 0.950 . S
C1446 C1432 1.377 . S
C1446 C1445 1.373 . S
C1447 C1431 1.377 . S
C1447 C1445 1.389 . S
C1447 C1448 1.524 . S
C1448 C1447 1.524 . S
C1448 C1449 1.397 . S
C1448 C1453 1.363 . S
C1449 H1420 0.950 . S
C1449 C1448 1.397 . S
C1449 C1450 1.334 . S
C1450 H1421 0.950 . S
C1450 C1449 1.334 . S
C1450 C1451 1.287 . S
C1451 C1450 1.287 . S
C1451 C1452 1.524 . S
C1451 H1454 0.999 . S
C1452 H1422 0.950 . S
C1452 C1451 1.524 . S
C1452 C1453 1.415 . S
C1453 H1423 0.950 . S
C1453 C1448 1.363 . S
C1453 C1452 1.415 . S
H1454 C1451 0.999 . S
H1455 C1436 0.913 . S
C275 C76 1.724 . S
C290 C105 1.710 . S
C340 C145 1.321 . S
C325 C88 1.344 . S
C390 C194 1.296 . S
C375 C52 1.334 . S
C440 C225 1.548 . S
C425 C64 1.612 . S
C490 C114 1.709 1_565 S
C475 C28 1.742 . S
C525 C40 1.335 . S
C540 C154 1.320 . S
C575 C4 1.342 . S
C590 C185 1.297 . S
C625 C16 1.615 . S
C640 C234 1.548 . S
C690 C115 0.697 . S
C675 C69 0.712 . S
C740 C155 1.300 . S
C725 C81 1.193 . S
C790 C191 0.592 . S
C775 C93 0.602 . S
C825 C57 0.855 . S
C840 C235 0.894 . S
C875 C21 0.710 . S
C890 C106 0.697 . S
C940 C146 1.281 1_565 S
C925 C33 1.179 . S
C990 C182 0.592 . S
C975 C45 0.600 . S
C1025 C9 0.853 . S
C1040 C226 0.894 . S
C1075 C66 1.621 . S
C1090 C111 1.662 . S
C1125 C78 1.397 . S
C1140 C151 1.410 . S
C1190 C195 1.931 . S
C1175 C90 1.793 . S
C1240 C231 1.427 . S
C1225 C54 1.418 . S
C1275 C18 1.622 . S
C1290 C102 1.662 . S
C1340 C142 1.410 . S
C1325 C30 1.386 . S
C1390 C186 1.931 . S
C1375 C42 1.812 . S
C1425 C6 1.414 . S
C1440 C222 1.426 . S
