# Generated by pormake.
# Topology ctn, (3,4)-cn, num edge types: 1
# Building blocks:
#     Node 0, Type 0, BuildingBlock: BETDIP_clean_linker_0, # of connection points: 3
#     Node 1, Type 0, BuildingBlock: BETDIP_clean_linker_0, # of connection points: 3
#     Node 2, Type 0, BuildingBlock: BETDIP_clean_linker_0, # of connection points: 3
#     Node 3, Type 0, BuildingBlock: BETDIP_clean_linker_0, # of connection points: 3
#     Node 4, Type 0, BuildingBlock: BETDIP_clean_linker_0, # of connection points: 3
#     Node 5, Type 0, BuildingBlock: BETDIP_clean_linker_0, # of connection points: 3
#     Node 6, Type 0, BuildingBlock: BETDIP_clean_linker_0, # of connection points: 3
#     Node 7, Type 0, BuildingBlock: BETDIP_clean_linker_0, # of connection points: 3
#     Node 8, Type 0, BuildingBlock: BETDIP_clean_linker_0, # of connection points: 3
#     Node 9, Type 0, BuildingBlock: BETDIP_clean_linker_0, # of connection points: 3
#     Node 10, Type 0, BuildingBlock: BETDIP_clean_linker_0, # of connection points: 3
#     Node 11, Type 0, BuildingBlock: BETDIP_clean_linker_0, # of connection points: 3
#     Node 12, Type 0, BuildingBlock: BETDIP_clean_linker_0, # of connection points: 3
#     Node 13, Type 0, BuildingBlock: BETDIP_clean_linker_0, # of connection points: 3
#     Node 14, Type 0, BuildingBlock: BETDIP_clean_linker_0, # of connection points: 3
#     Node 15, Type 0, BuildingBlock: BETDIP_clean_linker_0, # of connection points: 3
#     Node 16, Type 1, BuildingBlock: AZAVOO_clean_sbu_0, # of connection points: 4
#     Node 17, Type 1, BuildingBlock: AZAVOO_clean_sbu_0, # of connection points: 4
#     Node 18, Type 1, BuildingBlock: AZAVOO_clean_sbu_0, # of connection points: 4
#     Node 19, Type 1, BuildingBlock: AZAVOO_clean_sbu_0, # of connection points: 4
#     Node 20, Type 1, BuildingBlock: AZAVOO_clean_sbu_0, # of connection points: 4
#     Node 21, Type 1, BuildingBlock: AZAVOO_clean_sbu_0, # of connection points: 4
#     Node 22, Type 1, BuildingBlock: AZAVOO_clean_sbu_0, # of connection points: 4
#     Node 23, Type 1, BuildingBlock: AZAVOO_clean_sbu_0, # of connection points: 4
#     Node 24, Type 1, BuildingBlock: AZAVOO_clean_sbu_0, # of connection points: 4
#     Node 25, Type 1, BuildingBlock: AZAVOO_clean_sbu_0, # of connection points: 4
#     Node 26, Type 1, BuildingBlock: AZAVOO_clean_sbu_0, # of connection points: 4
#     Node 27, Type 1, BuildingBlock: AZAVOO_clean_sbu_0, # of connection points: 4
#     Edge 28, Type (0, 1), BuildingBlock: AJUNOK_clean_linker_0, # of connection points: 2
#     Edge 29, Type (0, 1), BuildingBlock: AJUNOK_clean_linker_0, # of connection points: 2
#     Edge 30, Type (0, 1), BuildingBlock: AJUNOK_clean_linker_0, # of connection points: 2
#     Edge 31, Type (0, 1), BuildingBlock: AJUNOK_clean_linker_0, # of connection points: 2
#     Edge 32, Type (0, 1), BuildingBlock: AJUNOK_clean_linker_0, # of connection points: 2
#     Edge 33, Type (0, 1), BuildingBlock: AJUNOK_clean_linker_0, # of connection points: 2
#     Edge 34, Type (0, 1), BuildingBlock: AJUNOK_clean_linker_0, # of connection points: 2
#     Edge 35, Type (0, 1), BuildingBlock: AJUNOK_clean_linker_0, # of connection points: 2
#     Edge 36, Type (0, 1), BuildingBlock: AJUNOK_clean_linker_0, # of connection points: 2
#     Edge 37, Type (0, 1), BuildingBlock: AJUNOK_clean_linker_0, # of connection points: 2
#     Edge 38, Type (0, 1), BuildingBlock: AJUNOK_clean_linker_0, # of connection points: 2
#     Edge 39, Type (0, 1), BuildingBlock: AJUNOK_clean_linker_0, # of connection points: 2
#     Edge 40, Type (0, 1), BuildingBlock: AJUNOK_clean_linker_0, # of connection points: 2
#     Edge 41, Type (0, 1), BuildingBlock: AJUNOK_clean_linker_0, # of connection points: 2
#     Edge 42, Type (0, 1), BuildingBlock: AJUNOK_clean_linker_0, # of connection points: 2
#     Edge 43, Type (0, 1), BuildingBlock: AJUNOK_clean_linker_0, # of connection points: 2
#     Edge 44, Type (0, 1), BuildingBlock: AJUNOK_clean_linker_0, # of connection points: 2
#     Edge 45, Type (0, 1), BuildingBlock: AJUNOK_clean_linker_0, # of connection points: 2
#     Edge 46, Type (0, 1), BuildingBlock: AJUNOK_clean_linker_0, # of connection points: 2
#     Edge 47, Type (0, 1), BuildingBlock: AJUNOK_clean_linker_0, # of connection points: 2
#     Edge 48, Type (0, 1), BuildingBlock: AJUNOK_clean_linker_0, # of connection points: 2
#     Edge 49, Type (0, 1), BuildingBlock: AJUNOK_clean_linker_0, # of connection points: 2
#     Edge 50, Type (0, 1), BuildingBlock: AJUNOK_clean_linker_0, # of connection points: 2
#     Edge 51, Type (0, 1), BuildingBlock: AJUNOK_clean_linker_0, # of connection points: 2
#     Edge 52, Type (0, 1), BuildingBlock: AJUNOK_clean_linker_0, # of connection points: 2
#     Edge 53, Type (0, 1), BuildingBlock: AJUNOK_clean_linker_0, # of connection points: 2
#     Edge 54, Type (0, 1), BuildingBlock: AJUNOK_clean_linker_0, # of connection points: 2
#     Edge 55, Type (0, 1), BuildingBlock: AJUNOK_clean_linker_0, # of connection points: 2
#     Edge 56, Type (0, 1), BuildingBlock: AJUNOK_clean_linker_0, # of connection points: 2
#     Edge 57, Type (0, 1), BuildingBlock: AJUNOK_clean_linker_0, # of connection points: 2
#     Edge 58, Type (0, 1), BuildingBlock: AJUNOK_clean_linker_0, # of connection points: 2
#     Edge 59, Type (0, 1), BuildingBlock: AJUNOK_clean_linker_0, # of connection points: 2
#     Edge 60, Type (0, 1), BuildingBlock: AJUNOK_clean_linker_0, # of connection points: 2
#     Edge 61, Type (0, 1), BuildingBlock: AJUNOK_clean_linker_0, # of connection points: 2
#     Edge 62, Type (0, 1), BuildingBlock: AJUNOK_clean_linker_0, # of connection points: 2
#     Edge 63, Type (0, 1), BuildingBlock: AJUNOK_clean_linker_0, # of connection points: 2
#     Edge 64, Type (0, 1), BuildingBlock: AJUNOK_clean_linker_0, # of connection points: 2
#     Edge 65, Type (0, 1), BuildingBlock: AJUNOK_clean_linker_0, # of connection points: 2
#     Edge 66, Type (0, 1), BuildingBlock: AJUNOK_clean_linker_0, # of connection points: 2
#     Edge 67, Type (0, 1), BuildingBlock: AJUNOK_clean_linker_0, # of connection points: 2
#     Edge 68, Type (0, 1), BuildingBlock: AJUNOK_clean_linker_0, # of connection points: 2
#     Edge 69, Type (0, 1), BuildingBlock: AJUNOK_clean_linker_0, # of connection points: 2
#     Edge 70, Type (0, 1), BuildingBlock: AJUNOK_clean_linker_0, # of connection points: 2
#     Edge 71, Type (0, 1), BuildingBlock: AJUNOK_clean_linker_0, # of connection points: 2
#     Edge 72, Type (0, 1), BuildingBlock: AJUNOK_clean_linker_0, # of connection points: 2
#     Edge 73, Type (0, 1), BuildingBlock: AJUNOK_clean_linker_0, # of connection points: 2
#     Edge 74, Type (0, 1), BuildingBlock: AJUNOK_clean_linker_0, # of connection points: 2
#     Edge 75, Type (0, 1), BuildingBlock: AJUNOK_clean_linker_0, # of connection points: 2
# Relax obj value: 0.071
# Max RMSD: 0.209
# Mean RMSD: 0.112
data_MOF--net-ctn--node1-AZAVOO_clean_sbu_0--node2-BETDIP_clean_linker_0--edge1-AJUNOK_clean_linker_0
_symmetry_space_group_name_H-M    P1
_symmetry_Int_Tables_number       1
_symmetry_cell_setting            triclinic
loop_
_symmetry_equiv_pos_as_xyz
'x, y, z'
_cell_length_a     37.179301
_cell_length_b     38.454376
_cell_length_c     42.384907
_cell_angle_alpha  93.380329
_cell_angle_beta   97.580695
_cell_angle_gamma 96.609477
loop_
_atom_site_label
_atom_site_type_symbol
_atom_site_fract_x
_atom_site_fract_y
_atom_site_fract_z
_atom_type_partial_charge
H0 H 1.00242 0.04511 0.04514 0.0
H1 H 0.0782 1.0006 0.99142 0.0
H2 H 0.07623 0.97743 0.08893 0.0
H3 H 0.06164 0.03398 0.95471 0.0
C4 C 0.0423 0.05087 0.96184 0.0
C5 C 0.02386 0.02846 0.04387 0.0
C6 C 0.03711 0.01166 0.07086 0.0
C7 C 0.03864 0.02519 0.01533 0.0
C8 C 0.06607 0.00331 0.01309 0.0
C9 C 0.07913 0.98527 0.03922 0.0
C10 C 0.06504 0.99007 0.06832 0.0
N11 N 0.02665 0.04617 0.9904 0.0
H12 H 0.27285 0.69165 0.20688 0.0
H13 H 0.37217 0.75662 0.24651 0.0
H14 H 0.32392 0.67746 0.30139 0.0
H15 H 0.34398 0.79552 0.21084 0.0
C16 C 0.33416 0.77722 0.19017 0.0
C17 C 0.29452 0.6992 0.22667 0.0
C18 C 0.29448 0.68213 0.25489 0.0
C19 C 0.32188 0.72638 0.22374 0.0
C20 C 0.35037 0.73614 0.24901 0.0
C21 C 0.35119 0.71869 0.27729 0.0
C22 C 0.32299 0.6918 0.28009 0.0
N23 N 0.32044 0.74211 0.19436 0.0
H24 H 0.94342 0.51099 0.00638 0.0
H25 H 0.03131 0.47066 0.06266 0.0
H26 H 0.98783 0.56119 0.09949 0.0
H27 H 0.04539 0.46277 0.00752 0.0
C28 C 0.01877 0.44757 1.00012 0.0
C29 C 0.96191 0.5122 0.02854 0.0
C30 C 0.96165 0.53878 0.05272 0.0
C31 C 0.98723 0.48812 0.03179 0.0
C32 C 0.01219 0.48986 0.0598 0.0
C33 C 0.01271 0.51611 0.08433 0.0
C34 C 0.98723 0.54054 0.08081 0.0
N35 N 0.98684 0.4619 0.00677 0.0
H36 H 0.71746 0.78462 0.18218 0.0
H37 H 0.76102 0.8768 0.24444 0.0
H38 H 0.81995 0.84209 0.17017 0.0
H39 H 0.70561 0.87055 0.26162 0.0
C40 C 0.69475 0.84304 0.25697 0.0
C41 C 0.73838 0.8068 0.18914 0.0
C42 C 0.76919 0.81068 0.17348 0.0
C43 C 0.73493 0.83039 0.21466 0.0
C44 C 0.76259 0.85884 0.22419 0.0
C45 C 0.79345 0.86315 0.20811 0.0
C46 C 0.79636 0.83894 0.18279 0.0
N47 N 0.70463 0.82255 0.23129 0.0
H48 H 0.02057 0.97837 0.45129 0.0
H49 H 0.10979 0.02704 0.52078 0.0
H50 H 0.08695 0.07107 0.43045 0.0
H51 H 0.11013 0.96853 0.53274 0.0
C52 C 0.08127 0.95879 0.53102 0.0
C53 C 0.04311 0.99905 0.4583 0.0
C54 C 0.05132 0.0246 0.43711 0.0
C55 C 0.06448 0.99915 0.48815 0.0
C56 C 0.09374 0.02603 0.49742 0.0
C57 C 0.10151 0.05243 0.47683 0.0
C58 C 0.0802 0.05144 0.44679 0.0
N59 N 0.05572 0.97176 0.50803 0.0
H60 H 0.2038 0.74795 0.80587 0.0
H61 H 0.25719 0.68629 0.74237 0.0
H62 H 0.30332 0.70685 0.8407 0.0
H63 H 0.20612 0.68193 0.71049 0.0
C64 C 0.19048 0.703 0.71606 0.0
C65 C 0.22604 0.73314 0.80177 0.0
C66 C 0.25333 0.72927 0.82711 0.0
C67 C 0.22651 0.71721 0.77123 0.0
C68 C 0.25531 0.69766 0.76594 0.0
C69 C 0.28287 0.69337 0.791 0.0
C70 C 0.28189 0.70967 0.82139 0.0
N71 N 0.19771 0.72175 0.74664 0.0
H72 H 0.9992 0.57896 0.46709 0.0
H73 H 0.9415 0.47547 0.44512 0.0
H74 H 0.91017 0.54425 0.51771 0.0
H75 H 0.96614 0.47856 0.3988 0.0
C76 C 0.99174 0.49572 0.40463 0.0
C77 C 0.97706 0.55938 0.47078 0.0
C78 C 0.95442 0.56622 0.49381 0.0
C79 C 0.97205 0.5273 0.45258 0.0
C80 C 0.94483 0.5009 0.45828 0.0
C81 C 0.92246 0.5068 0.4819 0.0
C82 C 0.92716 0.53965 0.49936 0.0
N83 N 0.99636 0.52237 0.43002 0.0
H84 H 0.76584 0.8042 0.73514 0.0
H85 H 0.81397 0.74115 0.805 0.0
H86 H 0.73545 0.80931 0.82948 0.0
H87 H 0.86634 0.768 0.77458 0.0
C88 C 0.85215 0.76438 0.75029 0.0
C89 C 0.76751 0.79519 0.75901 0.0
C90 C 0.7487 0.8106 0.78161 0.0
C91 C 0.7915 0.77099 0.76757 0.0
C92 C 0.79467 0.75943 0.79845 0.0
C93 C 0.77328 0.77185 0.82078 0.0
C94 C 0.75059 0.79794 0.81217 0.0
N95 N 0.81336 0.76021 0.74482 0.0
H96 H 0.26789 0.3001 0.22984 0.0
H97 H 0.32125 0.24404 0.30276 0.0
H98 H 0.23936 0.30895 0.32489 0.0
H99 H 0.37152 0.2653 0.27258 0.0
C100 C 0.35805 0.26368 0.24809 0.0
C101 C 0.27065 0.29291 0.25432 0.0
C102 C 0.25088 0.30822 0.27628 0.0
C103 C 0.29667 0.27095 0.26399 0.0
C104 C 0.30084 0.26098 0.29541 0.0
C105 C 0.27884 0.27317 0.31727 0.0
C106 C 0.25452 0.29754 0.30766 0.0
N107 N 0.31936 0.26095 0.24162 0.0
H108 H 0.44644 0.02414 0.50306 0.0
H109 H 0.53242 0.97842 0.55654 0.0
H110 H 0.4851 0.06245 0.60086 0.0
H111 H 0.54924 0.97823 0.50087 0.0
C112 C 0.5229 0.96278 0.49284 0.0
C113 C 0.46392 0.02283 0.52543 0.0
C114 C 0.46183 0.04584 0.55193 0.0
C115 C 0.48964 0.99915 0.52682 0.0
C116 C 0.51318 0.99759 0.55523 0.0
C117 C 0.51172 0.02009 0.58222 0.0
C118 C 0.48596 0.04439 0.58043 0.0
N119 N 0.49058 0.97616 0.49965 0.0
H120 H 0.20984 0.28604 0.68119 0.0
H121 H 0.25561 0.37192 0.7504 0.0
H122 H 0.31137 0.34685 0.67116 0.0
H123 H 0.20484 0.36021 0.77206 0.0
C124 C 0.18907 0.33584 0.76156 0.0
C125 C 0.23107 0.30756 0.68968 0.0
C126 C 0.26059 0.31447 0.67278 0.0
C127 C 0.22848 0.32821 0.71744 0.0
C128 C 0.25639 0.356 0.72868 0.0
C129 C 0.2865 0.36247 0.71201 0.0
C130 C 0.28814 0.34187 0.68402 0.0
N131 N 0.19796 0.31889 0.73347 0.0
H132 H 0.75207 0.20877 0.71075 0.0
H133 H 0.85546 0.26874 0.74826 0.0
H134 H 0.81789 0.17554 0.7918 0.0
H135 H 0.85204 0.28155 0.69423 0.0
C136 C 0.82329 0.28401 0.68753 0.0
C137 C 0.77659 0.21266 0.72813 0.0
C138 C 0.78197 0.18871 0.75136 0.0
C139 C 0.80331 0.24092 0.72626 0.0
C140 C 0.83529 0.24614 0.74869 0.0
C141 C 0.84021 0.22296 0.77287 0.0
C142 C 0.81385 0.1939 0.77356 0.0
N143 N 0.79634 0.2639 0.7019 0.0
H144 H 0.50651 0.55158 0.55407 0.0
H145 H 0.5743 0.50548 0.49311 0.0
H146 H 0.55687 0.46046 0.5813 0.0
H147 H 0.55472 0.54282 0.45805 0.0
C148 C 0.54689 0.56457 0.472 0.0
C149 C 0.52292 0.53092 0.54899 0.0
C150 C 0.52908 0.50573 0.57105 0.0
C151 C 0.5389 0.5311 0.52101 0.0
C152 C 0.56147 0.50544 0.51457 0.0
C153 C 0.56793 0.47955 0.53601 0.0
C154 C 0.55164 0.47991 0.56435 0.0
N155 N 0.53344 0.5592 0.50138 0.0
H156 H 0.52637 0.47098 0.94374 0.0
H157 H 0.61164 0.51649 0.01819 0.0
H158 H 0.58372 0.57291 0.93555 0.0
H159 H 0.57943 0.47584 0.04825 0.0
C160 C 0.57178 0.45341 0.0309 0.0
C161 C 0.54652 0.49289 0.95361 0.0
C162 C 0.5517 0.52269 0.9364 0.0
C163 C 0.56741 0.49054 0.98322 0.0
C164 C 0.59444 0.51839 0.99583 0.0
C165 C 0.59988 0.54851 0.97884 0.0
C166 C 0.57836 0.55044 0.94928 0.0
N167 N 0.56205 0.45856 0.9981 0.0
H168 H 0.71284 0.25303 0.30454 0.0
H169 H 0.76154 0.18119 0.24645 0.0
H170 H 0.81025 0.21059 0.34313 0.0
H171 H 0.72926 0.20167 0.20672 0.0
C172 C 0.70515 0.21071 0.21461 0.0
C173 C 0.73396 0.23631 0.30192 0.0
C174 C 0.76179 0.23462 0.32744 0.0
C175 C 0.73367 0.21754 0.27253 0.0
C176 C 0.76128 0.19601 0.26887 0.0
C177 C 0.7892 0.19357 0.29417 0.0
C178 C 0.78915 0.2129 0.32339 0.0
N179 N 0.70515 0.22105 0.2474 0.0
H180 H 0.48262 0.07813 0.95922 0.0
H181 H 0.42571 0.97416 0.93674 0.0
H182 H 0.42138 0.02856 0.02742 0.0
H183 H 0.46634 0.97018 0.90143 0.0
C184 C 0.47591 0.99647 0.89567 0.0
C185 C 0.46599 0.05571 0.96634 0.0
C186 C 0.45387 0.05699 0.99633 0.0
C187 C 0.457 0.02579 0.94513 0.0
C188 C 0.43387 0.99717 0.95323 0.0
C189 C 0.42077 0.99838 0.98282 0.0
C190 C 0.43116 0.02804 0.00443 0.0
N191 N 0.47186 0.02607 0.91598 0.0
Mg192 Mg 0.24095 0.83964 0.01694 0.0
O193 O 0.29078 0.87925 0.01109 0.0
O194 O 0.33941 0.84956 0.01553 0.0
Mg195 Mg 0.32204 0.79219 0.02324 0.0
C196 C 0.32507 0.87787 0.01153 0.0
C197 C 0.20109 0.90447 0.02627 0.0
O198 O 0.22878 0.90923 0.04942 0.0
O199 O 0.24015 0.81598 0.96504 0.0
O200 O 0.28764 0.78508 0.97397 0.0
O201 O 0.2523 0.84851 0.07042 0.0
O202 O 0.27481 0.80826 0.04265 0.0
C203 C 0.26072 0.79403 0.9556 0.0
C204 C 0.27294 0.82375 0.06991 0.0
O205 O 0.19992 0.87924 0.00507 0.0
Mg206 Mg 0.15107 0.50406 0.27069 0.0
O207 O 0.11754 0.50655 0.22062 0.0
O208 O 0.15933 0.51052 0.18737 0.0
Mg209 Mg 0.21718 0.5122 0.21396 0.0
C210 C 0.12615 0.50924 0.19251 0.0
C211 C 0.10568 0.49895 0.32259 0.0
O212 O 0.13803 0.51562 0.33419 0.0
O213 O 0.16201 0.44697 0.26071 0.0
O214 O 0.20635 0.45689 0.23053 0.0
O215 O 0.15874 0.56292 0.27856 0.0
O216 O 0.19662 0.53228 0.25642 0.0
C217 C 0.18711 0.43626 0.2461 0.0
C218 C 0.18807 0.56241 0.26527 0.0
O219 O 0.10015 0.48783 0.29332 0.0
Mg220 Mg 0.80712 0.69138 0.01517 0.0
O221 O 0.75071 0.65748 0.00999 0.0
O222 O 0.70972 0.69569 0.00883 0.0
Mg223 Mg 0.73793 0.75221 0.015 0.0
C224 C 0.71756 0.66421 0.00788 0.0
C225 C 0.86868 0.64865 0.02454 0.0
O226 O 0.87948 0.67972 0.03958 0.0
O227 O 0.79674 0.7042 0.96218 0.0
O228 O 0.75907 0.74512 0.96704 0.0
O229 O 0.81143 0.69427 0.06826 0.0
O230 O 0.78631 0.7324 0.03831 0.0
C231 C 0.77834 0.72785 0.95053 0.0
C232 C 0.79447 0.72171 0.06622 0.0
O233 O 0.83743 0.64376 0.00736 0.0
Mg234 Mg 0.95262 0.0569 0.24088 0.0
O235 O 0.91436 0.0048 0.2332 0.0
O236 O 0.94913 0.96162 0.22886 0.0
Mg237 Mg 0.0089 0.98523 0.23195 0.0
C238 C 0.91792 0.97222 0.22975 0.0
C239 C 0.91029 0.1156 0.27003 0.0
O240 O 0.94385 0.13156 0.27706 0.0
O241 O 0.97128 0.0444 0.29237 0.0
O242 O 1.00691 0.0026 0.28435 0.0
O243 O 0.94981 0.06181 0.18795 0.0
O244 O 0.99054 0.03426 0.21577 0.0
C245 C 0.99265 0.02264 0.30298 0.0
C246 C 0.97667 0.04315 0.18843 0.0
O247 O 0.90531 0.08497 0.25586 0.0
Mg248 Mg 0.30751 0.1997 0.51472 0.0
O249 O 0.2522 0.16439 0.50752 0.0
O250 O 0.20894 0.20021 0.50298 0.0
Mg251 Mg 0.23529 0.25747 0.50868 0.0
C252 C 0.21856 0.16938 0.50345 0.0
C253 C 0.36841 0.15625 0.52934 0.0
O254 O 0.3779 0.18647 0.5462 0.0
O255 O 0.30028 0.21079 0.4612 0.0
O256 O 0.25996 0.24982 0.4625 0.0
O257 O 0.30694 0.20455 0.56753 0.0
O258 O 0.28437 0.24111 0.53436 0.0
C259 C 0.28134 0.23312 0.44782 0.0
C260 C 0.29022 0.23189 0.563 0.0
O261 O 0.33885 0.15236 0.50979 0.0
Mg262 Mg 0.44532 0.55387 0.7405 0.0
O263 O 0.40835 0.50106 0.73652 0.0
O264 O 0.44388 0.45853 0.73225 0.0
Mg265 Mg 0.50299 0.48301 0.73308 0.0
C266 C 0.41261 0.46857 0.73404 0.0
C267 C 0.4029 0.61345 0.76755 0.0
O268 O 0.43655 0.62934 0.77396 0.0
O269 O 0.46675 0.54526 0.79263 0.0
O270 O 0.50248 0.50347 0.78476 0.0
O271 O 0.44028 0.55366 0.68679 0.0
O272 O 0.48377 0.53124 0.7162 0.0
C273 C 0.48918 0.52442 0.80332 0.0
C274 C 0.46877 0.53704 0.68827 0.0
O275 O 0.39773 0.58218 0.75469 0.0
Mg276 Mg 0.73848 0.34766 0.51294 0.0
O277 O 0.78823 0.38873 0.50893 0.0
O278 O 0.83734 0.35995 0.51582 0.0
Mg279 Mg 0.82082 0.30269 0.5239 0.0
C280 C 0.82279 0.38794 0.51052 0.0
C281 C 0.66823 0.37774 0.51211 0.0
O282 O 0.66615 0.34916 0.52763 0.0
O283 O 0.74182 0.32408 0.46199 0.0
O284 O 0.79183 0.29698 0.47251 0.0
O285 O 0.74468 0.35852 0.56567 0.0
O286 O 0.77259 0.31907 0.54174 0.0
C287 C 0.76547 0.30525 0.45307 0.0
C288 C 0.7675 0.33559 0.56778 0.0
O289 O 0.69649 0.38525 0.49852 0.0
Mg290 Mg 0.64611 0.00588 0.77093 0.0
O291 O 0.61297 0.00451 0.72051 0.0
O292 O 0.65414 0.00965 0.68679 0.0
Mg293 Mg 0.71213 0.01379 0.71376 0.0
C294 C 0.621 0.007 0.69226 0.0
C295 C 0.58698 0.0134 0.81202 0.0
O296 O 0.60988 0.0424 0.81782 0.0
O297 O 0.66042 0.94905 0.76457 0.0
O298 O 0.70362 0.95983 0.73336 0.0
O299 O 0.65143 0.06512 0.77375 0.0
O300 O 0.69171 0.03408 0.75617 0.0
C301 C 0.68627 0.93927 0.75031 0.0
C302 C 0.68168 0.0643 0.76199 0.0
O303 O 0.59393 0.98951 0.79249 0.0
Mg304 Mg 0.05332 0.25086 0.89869 0.0
O305 O 0.99621 0.244 0.86834 0.0
O306 O 0.95695 0.22701 0.90181 0.0
Mg307 Mg 0.98728 0.22172 0.95127 0.0
C308 C 0.9636 0.23542 0.87426 0.0
C309 C 0.08324 0.26742 0.83492 0.0
O310 O 0.0692 0.23454 0.82766 0.0
O311 O 0.04014 0.30115 0.92289 0.0
O312 O 1.00142 0.28153 0.95577 0.0
O313 O 0.06104 0.19517 0.88671 0.0
O314 O 0.03508 0.21265 0.92779 0.0
C315 C 0.01975 0.30657 0.94414 0.0
C316 C 0.04448 0.18717 0.91079 0.0
O317 O 0.07951 0.28194 0.86179 0.0
Mg318 Mg 0.56432 0.76302 0.40172 0.0
O319 O 0.50656 0.75086 0.37288 0.0
O320 O 0.46847 0.73519 0.40765 0.0
Mg321 Mg 0.50062 0.73624 0.45732 0.0
C322 C 0.4744 0.74142 0.37942 0.0
C323 C 0.60231 0.77401 0.34118 0.0
O324 O 0.60248 0.74003 0.34285 0.0
O325 O 0.54891 0.81419 0.42203 0.0
O326 O 0.51136 0.79615 0.45657 0.0
O327 O 0.5741 0.70671 0.39532 0.0
O328 O 0.54982 0.7292 0.43538 0.0
C329 C 0.52829 0.8205 0.44292 0.0
C330 C 0.5598 0.70215 0.42125 0.0
O331 O 0.58674 0.79071 0.36109 0.0
Mg332 Mg 0.99081 0.75852 0.60192 0.0
O333 O 0.04529 0.74438 0.62788 0.0
O334 O 0.07867 0.7307 0.58986 0.0
Mg335 Mg 0.04759 0.73776 0.54096 0.0
C336 C 0.0743 0.73421 0.61919 0.0
C337 C 0.9376 0.77254 0.6446 0.0
O338 O 0.92064 0.76249 0.61575 0.0
O339 O 0.01824 0.8127 0.59216 0.0
O340 O 0.05101 0.79723 0.55404 0.0
O341 O 0.96737 0.70225 0.59707 0.0
O342 O 0.99607 0.72814 0.56074 0.0
C343 C 0.04004 0.82057 0.57197 0.0
C344 C 0.97966 0.69998 0.56998 0.0
O345 O 0.97239 0.77672 0.64873 0.0
Mg346 Mg 0.49747 0.2496 0.10244 0.0
O347 O 0.55269 0.23712 0.1279 0.0
O348 O 0.5854 0.22438 0.08911 0.0
Mg349 Mg 0.55157 0.22616 0.04018 0.0
C350 C 0.58208 0.22847 0.11866 0.0
C351 C 0.44568 0.27042 0.14417 0.0
O352 O 0.42836 0.26199 0.11516 0.0
O353 O 0.52452 0.30298 0.09015 0.0
O354 O 0.55213 0.28587 0.04918 0.0
O355 O 0.473 0.19374 0.1007 0.0
O356 O 0.50248 0.21602 0.06315 0.0
C357 C 0.5429 0.31004 0.06736 0.0
C358 C 0.48587 0.18903 0.07412 0.0
O359 O 0.48024 0.27101 0.14857 0.0
C360 C 0.2462 0.78052 0.86491 0.0
C361 C 0.25162 0.745 0.85978 0.0
C362 C 0.24711 0.79619 0.89596 0.0
C363 C 0.2536 0.77683 0.92281 0.0
H364 H 0.24251 0.79661 0.84488 0.0
H365 H 0.2444 0.82389 0.89902 0.0
S366 S 0.26362 0.68186 0.92206 0.0
N367 N 0.2592 0.69016 0.88407 0.0
N368 N 0.26164 0.71956 0.9421 0.0
C369 C 0.25711 0.74094 0.91783 0.0
C370 C 0.25596 0.72505 0.88642 0.0
C371 C 0.05498 0.51426 0.39298 0.0
C372 C 0.02059 0.49447 0.38371 0.0
C373 C 0.08222 0.51486 0.37319 0.0
C374 C 0.07629 0.49588 0.34315 0.0
H375 H 0.06107 0.52968 0.41567 0.0
H376 H 0.10802 0.53092 0.38147 0.0
S377 S 0.99141 0.43854 0.30836 0.0
N378 N 0.98234 0.45431 0.34315 0.0
N379 N 0.03364 0.4556 0.30558 0.0
C380 C 0.04222 0.47539 0.33377 0.0
C381 C 0.01442 0.47462 0.35417 0.0
C382 C 0.77832 0.78393 0.88009 0.0
C383 C 0.77639 0.7595 0.8537 0.0
C384 C 0.77982 0.77324 0.91117 0.0
C385 C 0.78007 0.73771 0.91743 0.0
H386 H 0.77864 0.81167 0.87679 0.0
H387 H 0.78069 0.79312 0.93057 0.0
S388 S 0.77562 0.66303 0.85715 0.0
N389 N 0.77454 0.69776 0.83605 0.0
N390 N 0.77873 0.67803 0.89488 0.0
C391 C 0.77923 0.713 0.89155 0.0
C392 C 0.77708 0.72379 0.85963 0.0
C393 C 0.0185 0.052 0.39109 0.0
C394 C 0.03178 0.02223 0.40396 0.0
C395 C 1.00406 0.05147 0.35869 0.0
C396 C 1.00293 0.02133 0.3379 0.0
H397 H 0.02009 0.07612 0.40603 0.0
H398 H 0.99525 0.07533 0.34963 0.0
S399 S 0.03197 0.93579 0.36031 0.0
N400 N 0.04117 0.96133 0.39377 0.0
N401 N 0.01393 0.96017 0.33312 0.0
C402 C 0.01474 0.99097 0.35083 0.0
C403 C 0.02915 0.99146 0.38379 0.0
C404 C 0.26768 0.25699 0.64534 0.0
C405 C 0.26361 0.29272 0.64369 0.0
C406 C 0.27542 0.23709 0.61882 0.0
C407 C 0.27877 0.25225 0.58976 0.0
H408 H 0.26629 0.24475 0.6676 0.0
H409 H 0.27942 0.20987 0.62128 0.0
S410 S 0.26836 0.34464 0.57321 0.0
N411 N 0.26187 0.3422 0.61084 0.0
N412 N 0.27611 0.30503 0.56083 0.0
C413 C 0.27334 0.28773 0.58762 0.0
C414 C 0.26586 0.30794 0.61468 0.0
C415 C 0.47641 0.51508 0.60083 0.0
C416 C 0.51302 0.50844 0.60148 0.0
C417 C 0.46205 0.52337 0.62898 0.0
C418 C 0.48356 0.52507 0.65904 0.0
H419 H 0.45894 0.51483 0.57823 0.0
H420 H 0.43401 0.52909 0.62705 0.0
S421 S 0.5809 0.50924 0.67408 0.0
N422 N 0.57029 0.50366 0.6349 0.0
N423 N 0.5433 0.51857 0.68778 0.0
C424 C 0.51983 0.5172 0.66017 0.0
C425 C 0.53452 0.50898 0.63143 0.0
C426 C 0.77515 0.30917 0.65232 0.0
C427 C 0.81137 0.30138 0.65843 0.0
C428 C 0.76188 0.32179 0.62332 0.0
C429 C 0.78414 0.32657 0.59924 0.0
H430 H 0.75658 0.30477 0.66974 0.0
H431 H 0.73348 0.32641 0.61922 0.0
S432 S 0.88223 0.31458 0.605 0.0
N433 N 0.87028 0.30263 0.63935 0.0
N434 N 0.84512 0.3263 0.58459 0.0
C435 C 0.82087 0.32063 0.60559 0.0
C436 C 0.83457 0.30815 0.63535 0.0
C437 C 0.57576 0.0185 0.60823 0.0
C438 C 0.53856 0.01842 0.61133 0.0
C439 C 0.6017 0.01426 0.63435 0.0
C440 C 0.5918 0.00972 0.66497 0.0
H441 H 0.58496 0.0218 0.58526 0.0
H442 H 0.62992 0.01469 0.6303 0.0
S443 S 0.49747 0.00717 0.68573 0.0
N444 N 0.49275 0.01311 0.6472 0.0
N445 N 0.54152 0.00544 0.69665 0.0
C446 C 0.55454 0.00975 0.66848 0.0
C447 C 0.52801 0.01414 0.64165 0.0
C448 C 0.90781 0.23125 0.79159 0.0
C449 C 0.87176 0.22947 0.79859 0.0
C450 C 0.93757 0.23393 0.81617 0.0
C451 C 0.9322 0.23495 0.84852 0.0
H452 H 0.91292 0.22944 0.76701 0.0
H453 H 0.96484 0.23426 0.80971 0.0
S454 S 0.84287 0.23578 0.8789 0.0
N455 N 0.83234 0.23215 0.8397 0.0
N456 N 0.88778 0.23731 0.88588 0.0
C457 C 0.89617 0.23479 0.85562 0.0
C458 C 0.8661 0.23203 0.83066 0.0
C459 C 0.55367 0.91751 0.46645 0.0
C460 C 0.52181 0.92724 0.47719 0.0
C461 C 0.55509 0.88318 0.45409 0.0
C462 C 0.52491 0.85726 0.45272 0.0
H463 H 0.57793 0.93643 0.46814 0.0
H464 H 0.58047 0.87661 0.44676 0.0
S465 S 0.43413 0.86968 0.47575 0.0
N466 N 0.45854 0.90858 0.48389 0.0
N467 N 0.46154 0.84395 0.46119 0.0
C468 C 0.49251 0.86685 0.46249 0.0
C469 C 0.49085 0.90192 0.47459 0.0
C470 C 0.15482 0.33378 0.80825 0.0
C471 C 0.15955 0.31913 0.77816 0.0
C472 C 0.12916 0.31757 0.8259 0.0
C473 C 0.10719 0.28593 0.81417 0.0
H474 H 0.17174 0.35759 0.81863 0.0
H475 H 0.12736 0.32949 0.84935 0.0
S476 S 0.10612 0.23862 0.73504 0.0
N477 N 0.13801 0.27245 0.7362 0.0
N478 N 0.08999 0.242 0.7694 0.0
C479 C 0.11058 0.27174 0.7835 0.0
C480 C 0.1367 0.2883 0.76548 0.0
C481 C 0.55556 0.60363 0.42791 0.0
C482 C 0.54892 0.59985 0.45949 0.0
C483 C 0.55855 0.63673 0.4155 0.0
C484 C 0.5551 0.66726 0.43429 0.0
H485 H 0.55855 0.58082 0.41267 0.0
H486 H 0.56373 0.63836 0.39104 0.0
S487 S 0.5399 0.67192 0.51927 0.0
N488 N 0.54019 0.62977 0.50971 0.0
N489 N 0.54632 0.69168 0.48663 0.0
C490 C 0.54874 0.66384 0.46604 0.0
C491 C 0.54554 0.63021 0.4786 0.0
C492 C 0.91167 0.76799 0.72836 0.0
C493 C 0.87352 0.76808 0.72311 0.0
C494 C 0.93267 0.77087 0.70314 0.0
C495 C 0.9162 0.77407 0.67175 0.0
H496 H 0.92535 0.76502 0.75207 0.0
H497 H 0.96179 0.76953 0.70816 0.0
S498 S 0.81783 0.78011 0.64588 0.0
N499 N 0.8206 0.77467 0.68439 0.0
N500 N 0.85986 0.78022 0.63736 0.0
C501 C 0.87827 0.77569 0.66646 0.0
C502 C 0.85695 0.77264 0.69202 0.0
C503 C 0.09681 0.9019 0.55087 0.0
C504 C 0.07093 0.92558 0.54551 0.0
C505 C 0.08693 0.8684 0.56083 0.0
C506 C 0.0511 0.85778 0.56678 0.0
H507 H 0.12449 0.90867 0.54587 0.0
H508 H 0.10728 0.85033 0.56315 0.0
S509 S 0.97404 0.91135 0.55932 0.0
N510 N 0.0085 0.93699 0.5487 0.0
N511 N 0.99025 0.87442 0.56846 0.0
C512 C 0.02551 0.88197 0.56331 0.0
C513 C 0.03533 0.91579 0.55237 0.0
C514 C 0.13551 0.73363 0.69873 0.0
C515 C 0.16091 0.71095 0.69143 0.0
C516 C 0.10734 0.74075 0.67537 0.0
C517 C 0.10383 0.72587 0.64378 0.0
H518 H 0.13718 0.74584 0.72264 0.0
H519 H 0.08845 0.75842 0.68207 0.0
S520 S 0.16311 0.66413 0.61282 0.0
N521 N 0.18041 0.67318 0.6507 0.0
N522 N 0.12798 0.68671 0.6068 0.0
C523 C 0.12911 0.70308 0.63629 0.0
C524 C 0.15747 0.69561 0.66013 0.0
C525 C 0.96152 0.6022 0.54613 0.0
C526 C 0.9604 0.6007 0.51276 0.0
C527 C 0.96822 0.6344 0.56452 0.0
C528 C 0.9745 0.66627 0.55027 0.0
H529 H 0.95762 0.57828 0.55821 0.0
H530 H 0.96872 0.63428 0.59013 0.0
S531 S 0.97196 0.67696 0.46361 0.0
N532 N 0.96395 0.63416 0.46606 0.0
N533 N 0.9777 0.69448 0.5007 0.0
C534 C 0.97334 0.66519 0.51695 0.0
C535 C 0.96599 0.63248 0.49818 0.0
C536 C 0.85997 0.88343 0.22234 0.0
C537 C 0.82392 0.89177 0.21776 0.0
C538 C 0.88988 0.90963 0.22677 0.0
C539 C 0.88514 0.94545 0.22687 0.0
H540 H 0.86513 0.85625 0.22169 0.0
H541 H 0.91701 0.90151 0.22961 0.0
S542 S 0.79584 0.98116 0.21779 0.0
N543 N 0.78475 0.93814 0.21492 0.0
N544 N 0.84099 0.98783 0.22365 0.0
C545 C 0.84905 0.95425 0.22363 0.0
C546 C 0.81847 0.92732 0.21905 0.0
C547 C 0.85603 0.18711 0.29787 0.0
C548 C 0.8194 0.17217 0.28952 0.0
C549 C 0.88504 0.16845 0.29187 0.0
C550 C 0.87873 0.13395 0.27735 0.0
H551 H 0.86236 0.21384 0.30841 0.0
H552 H 0.91267 0.18152 0.29833 0.0
S553 S 0.78761 0.08184 0.25322 0.0
N554 N 0.77832 0.12007 0.26774 0.0
N555 N 0.83262 0.08502 0.25624 0.0
C556 C 0.84213 0.11834 0.26964 0.0
C557 C 0.81259 0.13743 0.27574 0.0
C558 C 0.3597 0.96222 0.977 0.0
C559 C 0.39636 0.96843 0.99133 0.0
C560 C 0.33631 0.93348 0.9845 0.0
C561 C 0.34913 0.90971 0.00606 0.0
H562 H 0.34914 0.97963 0.95985 0.0
H563 H 0.30834 0.92928 0.97264 0.0
S564 S 0.44277 0.91567 0.05073 0.0
N565 N 0.44416 0.94976 0.02878 0.0
N566 N 0.40067 0.89524 0.04244 0.0
C567 C 0.38573 0.91607 0.02078 0.0
C568 C 0.40925 0.9456 0.01353 0.0
C569 C 0.248 0.36382 0.24906 0.0
C570 C 0.2312 0.33872 0.26709 0.0
C571 C 0.2322 0.39382 0.24097 0.0
C572 C 0.19905 0.401 0.25111 0.0
H573 H 0.27447 0.36102 0.24184 0.0
H574 H 0.24727 0.41227 0.22769 0.0
S575 S 0.14214 0.34263 0.29698 0.0
N576 N 0.1779 0.32174 0.293 0.0
N577 N 0.14871 0.3793 0.27892 0.0
C578 C 0.18123 0.37579 0.26854 0.0
C579 C 0.19724 0.34459 0.27641 0.0
C580 C 0.12456 0.11634 0.4835 0.0
C581 C 0.1317 0.08147 0.48614 0.0
C582 C 0.15271 0.14435 0.48965 0.0
C583 C 0.18939 0.13875 0.49845 0.0
H584 H 0.0969 0.12202 0.47632 0.0
H585 H 0.14552 0.17062 0.48691 0.0
S586 S 0.22238 0.05191 0.50896 0.0
N587 N 0.17777 0.04253 0.49843 0.0
N588 N 0.231 0.0951 0.51005 0.0
C589 C 0.19683 0.10385 0.50163 0.0
C590 C 0.16794 0.07527 0.49553 0.0
C591 C 0.7662 0.12405 0.75026 0.0
C592 C 0.75491 0.15759 0.75208 0.0
C593 C 0.7418 0.09408 0.75232 0.0
C594 C 0.70524 0.09652 0.75671 0.0
H595 H 0.79425 0.121 0.74746 0.0
H596 H 0.75211 0.06887 0.7514 0.0
S597 S 0.66205 0.17859 0.76198 0.0
N598 N 0.70482 0.19186 0.75752 0.0
N599 N 0.65872 0.13536 0.76181 0.0
C600 C 0.69341 0.12996 0.75795 0.0
C601 C 0.71829 0.16055 0.75549 0.0
C602 C 0.44947 0.10844 0.55718 0.0
C603 C 0.43637 0.07299 0.54837 0.0
C604 C 0.4273 0.13501 0.55067 0.0
C605 C 0.39115 0.12728 0.53492 0.0
H606 H 0.47746 0.11585 0.56834 0.0
H607 H 0.43887 0.16193 0.55769 0.0
S608 S 0.34257 0.03823 0.50965 0.0
N609 N 0.38399 0.03125 0.52524 0.0
N610 N 0.34256 0.08124 0.5125 0.0
C611 C 0.37739 0.09185 0.52664 0.0
C612 C 0.3999 0.06473 0.53352 0.0
C613 C 0.62644 0.46334 0.51859 0.0
C614 C 0.5925 0.45289 0.52884 0.0
C615 C 0.65015 0.4388 0.51181 0.0
C616 C 0.64096 0.4028 0.51514 0.0
H617 H 0.63514 0.49086 0.51644 0.0
H618 H 0.67637 0.4483 0.50496 0.0
S619 S 0.55374 0.3614 0.53805 0.0
N620 N 0.5498 0.40376 0.53953 0.0
N621 N 0.59432 0.35772 0.52733 0.0
C622 C 0.60662 0.39191 0.52445 0.0
C623 C 0.58248 0.41689 0.53123 0.0
C624 C 0.73008 0.25642 0.37248 0.0
C625 C 0.76228 0.25569 0.35825 0.0
C626 C 0.73057 0.27438 0.40248 0.0
C627 C 0.76332 0.29195 0.41932 0.0
H628 H 0.70457 0.242 0.36088 0.0
H629 H 0.7056 0.27303 0.4132 0.0
S630 S 0.85376 0.30257 0.39073 0.0
N631 N 0.82675 0.27789 0.36186 0.0
N632 N 0.82785 0.31051 0.41845 0.0
C633 C 0.79522 0.29285 0.40473 0.0
C634 C 0.79467 0.27499 0.37418 0.0
C635 C 0.51436 0.97145 0.85794 0.0
C636 C 0.5004 1.00084 0.87083 0.0
C637 C 0.54121 0.9753 0.83752 0.0
C638 C 0.55509 0.00873 0.82953 0.0
H639 H 0.50551 0.94543 0.86467 0.0
H640 H 0.55233 0.95217 0.82918 0.0
S641 S 0.52345 0.09348 0.85264 0.0
N642 N 0.49933 0.06408 0.87076 0.0
N643 N 0.54994 0.07124 0.83299 0.0
C644 C 0.53977 0.03805 0.8407 0.0
C645 C 0.51235 0.03414 0.86119 0.0
C646 C 0.28336 0.28715 0.37627 0.0
C647 C 0.28244 0.26205 0.35058 0.0
C648 C 0.28421 0.27739 0.4076 0.0
C649 C 0.28476 0.24217 0.41479 0.0
H650 H 0.2831 0.31467 0.37216 0.0
H651 H 0.28405 0.29768 0.42642 0.0
S652 S 0.28353 0.16612 0.35668 0.0
N653 N 0.28242 0.20011 0.33463 0.0
N654 N 0.28527 0.18212 0.39396 0.0
C655 C 0.28527 0.21685 0.38968 0.0
C656 C 0.28381 0.2267 0.3575 0.0
C657 C 0.53187 0.49421 0.88154 0.0
C658 C 0.53221 0.52309 0.9035 0.0
C659 C 0.51679 0.49469 0.8496 0.0
C660 C 0.50123 0.52406 0.83813 0.0
H661 H 0.54453 0.4714 0.8888 0.0
H662 H 0.518 0.47193 0.83364 0.0
S663 S 0.49265 0.60547 0.88666 0.0
N664 N 0.51371 0.58112 0.91224 0.0
N665 N 0.48536 0.58217 0.8519 0.0
C666 C 0.50008 0.55268 0.86011 0.0
C667 C 0.51568 0.55222 0.89279 0.0
C668 C 0.74906 0.78074 0.11925 0.0
C669 C 0.77371 0.78489 0.14766 0.0
C670 C 0.75527 0.75924 0.09317 0.0
C671 C 0.78601 0.74089 0.09492 0.0
H672 H 0.72558 0.79515 0.11681 0.0
H673 H 0.73604 0.75733 0.07149 0.0
S674 S 0.85695 0.74104 0.16525 0.0
N675 N 0.82867 0.76769 0.17695 0.0
N676 N 0.84019 0.72681 0.1281 0.0
C677 C 0.80986 0.74358 0.12382 0.0
C678 C 0.80379 0.76581 0.15016 0.0
C679 C 0.01616 0.05293 0.11098 0.0
C680 C 0.02253 0.01857 0.10166 0.0
C681 C 1.00076 0.0603 0.13874 0.0
C682 C 0.99179 0.03386 0.15883 0.0
H683 H 0.02325 0.07451 0.09675 0.0
H684 H 0.99644 0.08713 0.14483 0.0
S685 S 1.00082 0.93935 0.14499 0.0
N686 N 0.01678 0.95749 0.11445 0.0
N687 N 0.98898 0.97177 0.16717 0.0
C688 C 0.99805 0.99946 0.15011 0.0
C689 C 0.01322 0.99174 0.12148 0.0
C690 C 0.31429 0.82466 0.15679 0.0
C691 C 0.32439 0.79069 0.15871 0.0
C692 C 0.29863 0.83569 0.12768 0.0
C693 C 0.29317 0.81325 0.09953 0.0
H694 H 0.31673 0.84214 0.17817 0.0
H695 H 0.28991 0.86161 0.12742 0.0
S696 S 0.31879 0.7229 0.0917 0.0
N697 N 0.33081 0.73576 0.12985 0.0
N698 N 0.30136 0.75621 0.07528 0.0
C699 C 0.30512 0.77989 0.10096 0.0
C700 C 0.32078 0.76868 0.13055 0.0
C701 C 0.03271 0.5136 0.14329 0.0
C702 C 0.04159 0.51821 0.11245 0.0
C703 C 0.06006 0.51078 0.1691 0.0
C704 C 0.09732 0.51253 0.16499 0.0
H705 H 1.00436 0.51101 0.14727 0.0
H706 H 0.05183 0.50673 0.19231 0.0
S707 S 0.13448 0.52729 0.08878 0.0
N708 N 0.08989 0.52648 0.0794 0.0
N709 N 0.1412 0.52125 0.12722 0.0
C710 C 0.10635 0.51825 0.13419 0.0
C711 C 0.07856 0.5211 0.10815 0.0
C712 C 0.41849 0.72797 0.29676 0.0
C713 C 0.38231 0.72712 0.30338 0.0
C714 C 0.44818 0.73317 0.3214 0.0
C715 C 0.44276 0.7376 0.35358 0.0
H716 H 0.42384 0.72359 0.27243 0.0
H717 H 0.47549 0.73288 0.31517 0.0
S718 S 0.35331 0.74156 0.38301 0.0
N719 N 0.34278 0.73407 0.34396 0.0
N720 N 0.39825 0.74358 0.39034 0.0
C721 C 0.40665 0.73799 0.36034 0.0
C722 C 0.37654 0.7328 0.33524 0.0
C723 C 0.04811 0.40234 0.97208 0.0
C724 C 0.01682 0.41225 0.98374 0.0
C725 C 0.04847 0.36839 0.9583 0.0
C726 C 0.01776 0.34295 0.95634 0.0
H727 H 0.07269 0.42088 0.97395 0.0
H728 H 0.07339 0.36172 0.95009 0.0
S729 S 0.92827 0.35604 0.98192 0.0
N730 N 0.95367 0.39431 0.99114 0.0
N731 N 0.95459 0.33036 0.9657 0.0
C732 C 0.986 0.35272 0.9673 0.0
C733 C 0.98544 0.38744 0.98089 0.0
C734 C 0.65954 0.7898 0.27453 0.0
C735 C 0.66918 0.82646 0.27734 0.0
C736 C 0.63713 0.77334 0.29471 0.0
C737 C 0.6232 0.7928 0.31845 0.0
H738 H 0.66995 0.77339 0.25706 0.0
H739 H 0.63117 0.74499 0.29192 0.0
S740 S 0.63893 0.88982 0.33451 0.0
N741 N 0.66223 0.88192 0.30485 0.0
N742 N 0.6197 0.85114 0.34276 0.0
C743 C 0.63177 0.82965 0.32092 0.0
C744 C 0.6549 0.84639 0.30042 0.0
C745 C 0.06651 0.09588 0.92763 0.0
C746 C 0.03902 0.08349 0.94542 0.0
C747 C 0.06695 0.12886 0.91515 0.0
C748 C 0.03986 0.15055 0.91998 0.0
H749 H 0.08875 0.08068 0.92452 0.0
H750 H 0.08964 0.13808 0.90293 0.0
S751 S 0.9576 0.12674 0.95882 0.0
N752 N 0.98123 0.09313 0.96335 0.0
N753 N 0.98164 0.15465 0.93918 0.0
C754 C 0.01074 0.13725 0.93561 0.0
C755 C 0.0104 0.10378 0.94852 0.0
C756 C 0.41786 0.26404 0.22702 0.0
C757 C 0.38042 0.26787 0.22167 0.0
C758 C 0.43948 0.26658 0.20223 0.0
C759 C 0.42439 0.27319 0.17124 0.0
H760 H 0.43033 0.25816 0.25035 0.0
H761 H 0.46784 0.26205 0.20715 0.0
S762 S 0.32907 0.29054 0.14585 0.0
N763 N 0.33015 0.28229 0.18369 0.0
N764 N 0.37065 0.28711 0.13745 0.0
C765 C 0.38745 0.2789 0.16604 0.0
C766 C 0.36547 0.27621 0.19115 0.0
C767 C 0.56481 0.38828 0.0196 0.0
C768 C 0.56611 0.41736 0.0416 0.0
C769 C 0.55806 0.35394 0.02853 0.0
C770 C 0.55182 0.34707 0.05977 0.0
H771 H 0.56897 0.39195 0.99513 0.0
H772 H 0.55697 0.3326 0.01043 0.0
S773 S 0.55354 0.41421 0.12676 0.0
N774 N 0.5619 0.43729 0.09628 0.0
N775 N 0.54843 0.37255 0.11307 0.0
C776 C 0.55347 0.37595 0.08218 0.0
C777 C 0.56092 0.41109 0.07313 0.0
C778 C 0.64273 0.22892 0.19865 0.0
C779 C 0.67361 0.21456 0.19024 0.0
C780 C 0.61321 0.23309 0.17544 0.0
C781 C 0.61341 0.22313 0.14293 0.0
H782 H 0.64133 0.23723 0.22326 0.0
H783 H 0.59021 0.24455 0.18312 0.0
S784 S 0.68754 0.18278 0.10898 0.0
N785 N 0.70237 0.18951 0.14755 0.0
N786 N 0.64716 0.1971 0.10393 0.0
C787 C 0.6441 0.20831 0.13437 0.0
C788 C 0.67406 0.2041 0.15803 0.0
C789 C 0.43655 0.10351 0.03335 0.0
C790 C 0.46372 0.08921 0.0184 0.0
C791 C 0.44443 0.13536 0.05217 0.0
C792 C 0.47957 0.15431 0.05633 0.0
H793 H 0.4087 0.09058 0.0297 0.0
H794 H 0.4225 0.14586 0.06263 0.0
S795 S 0.56164 0.12597 0.02653 0.0
N796 N 0.5283 0.09461 0.01226 0.0
N797 N 0.5426 0.15502 0.04695 0.0
C798 C 0.50732 0.1398 0.04265 0.0
C799 C 0.49951 0.1071 0.02385 0.0
C800 C 0.31368 0.42542 0.72176 0.0
C801 C 0.31758 0.38969 0.72358 0.0
C802 C 0.34448 0.45099 0.72627 0.0
C803 C 0.38021 0.44159 0.73255 0.0
H804 H 0.28685 0.43345 0.71526 0.0
H805 H 0.34028 0.47811 0.72352 0.0
S806 S 0.40391 0.35133 0.74351 0.0
N807 N 0.35894 0.34624 0.73478 0.0
N808 N 0.41684 0.39386 0.74349 0.0
C809 C 0.38401 0.40593 0.73617 0.0
C810 C 0.3527 0.3801 0.73161 0.0
C811 C 0.34959 0.68583 0.79531 0.0
C812 C 0.31285 0.67205 0.78541 0.0
C813 C 0.3783 0.66657 0.78967 0.0
C814 C 0.37156 0.63255 0.7741 0.0
H815 H 0.35625 0.71201 0.80705 0.0
H816 H 0.40607 0.67869 0.79749 0.0
S817 S 0.27984 0.58367 0.74513 0.0
N818 N 0.2711 0.62173 0.76053 0.0
N819 N 0.32484 0.58553 0.74982 0.0
C820 C 0.33481 0.61819 0.7646 0.0
C821 C 0.30558 0.63793 0.77023 0.0
C822 C 0.9084 0.44519 0.49594 0.0
C823 C 0.89617 0.47764 0.4898 0.0
C824 C 0.88457 0.41689 0.50319 0.0
C825 C 0.84726 0.41962 0.50445 0.0
H826 H 0.9368 0.44165 0.49529 0.0
H827 H 0.89569 0.3925 0.50747 0.0
S828 S 0.80164 0.49946 0.49029 0.0
N829 N 0.8446 0.51137 0.48554 0.0
N830 N 0.79944 0.45808 0.49919 0.0
C831 C 0.8347 0.4522 0.49864 0.0
C832 C 0.85921 0.4812 0.49137 0.0
C833 C 0.69578 0.8471 0.77799 0.0
C834 C 0.73222 0.84321 0.77421 0.0
C835 C 0.68055 0.87792 0.7698 0.0
C836 C 0.70121 0.90571 0.75742 0.0
H837 H 0.67892 0.82612 0.78699 0.0
H838 H 0.65244 0.87992 0.77311 0.0
S839 S 0.79949 0.90964 0.74686 0.0
N840 N 0.78942 0.87082 0.7602 0.0
N841 N 0.76125 0.92778 0.74426 0.0
C842 C 0.73802 0.90212 0.75431 0.0
C843 C 0.75338 0.87118 0.7629 0.0
C844 C 0.66609 0.57149 0.99498 0.0
C845 C 0.62927 0.57759 0.99047 0.0
C846 C 0.69447 0.59954 1.00127 0.0
C847 C 0.68705 0.63471 0.00343 0.0
H848 H 0.67302 0.54498 0.99234 0.0
H849 H 0.72242 0.59353 0.0037 0.0
S850 S 0.59438 0.6638 0.99646 0.0
N851 N 0.58655 0.62064 0.99067 0.0
N852 N 0.6393 0.67338 0.00271 0.0
C853 C 0.65002 0.64082 1.00031 0.0
C854 C 0.62133 0.61227 0.99377 0.0
C855 C 0.25855 0.6249 0.23362 0.0
C856 C 0.26552 0.65299 0.25721 0.0
C857 C 0.23241 0.59625 0.23581 0.0
C858 C 0.21199 0.59482 0.26145 0.0
H859 H 0.27408 0.62466 0.21371 0.0
H860 H 0.22841 0.57503 0.21733 0.0
S861 S 0.2182 0.66299 0.32827 0.0
N862 N 0.24882 0.67865 0.30614 0.0
N863 N 0.19935 0.62473 0.31021 0.0
C864 C 0.21771 0.62338 0.28458 0.0
C865 C 0.24469 0.65242 0.28255 0.0
C866 C 0.95056 0.60182 0.05213 0.0
C867 C 0.93664 0.56609 0.04696 0.0
C868 C 0.92847 0.62809 0.04417 0.0
C869 C 0.89155 0.61981 0.03055 0.0
H870 H 0.97902 0.60959 0.06173 0.0
H871 H 0.94063 0.65521 0.04863 0.0
S872 S 0.84107 0.53017 0.01427 0.0
N873 N 0.88295 0.52374 0.02901 0.0
N874 N 0.84166 0.57312 0.01354 0.0
C875 C 0.87712 0.58416 0.02555 0.0
C876 C 0.89957 0.55736 0.03391 0.0
C877 C 0.14143 0.96895 0.05792 0.0
C878 C 0.1091 0.96321 0.03609 0.0
C879 C 0.17115 0.95045 0.05395 0.0
C880 C 0.16979 0.92524 0.02807 0.0
H881 H 0.14408 0.9884 0.07791 0.0
H882 H 0.19536 0.95597 0.07158 0.0
S883 S 0.09049 0.89957 0.9648 0.0
N884 N 0.07687 0.92992 0.9881 0.0
N885 N 0.13265 0.89523 0.98054 0.0
C886 C 0.1374 0.9191 0.00615 0.0
C887 C 0.10714 0.93802 0.0102 0.0
loop_
_geom_bond_atom_site_label_1
_geom_bond_atom_site_label_2
_geom_bond_distance
_geom_bond_site_symmetry_2
_ccdc_geom_bond_type
H0 C5 0.930 1_655 S
H1 C8 0.930 1_556 S
H2 C10 0.930 1_565 S
H3 C4 1.016 . S
C4 H3 1.016 . S
C4 N11 1.286 . S
C5 H0 0.930 1_455 S
C5 C6 1.397 . S
C5 C7 1.361 . S
C6 C5 1.397 . S
C6 C10 1.390 . S
C7 C5 1.361 . S
C7 C8 1.393 . S
C7 N11 1.413 1_554 S
C8 H1 0.930 1_554 S
C8 C7 1.393 . S
C8 C9 1.399 . S
C9 C8 1.399 . S
C9 C10 1.381 . S
C10 H2 0.930 1_545 S
C10 C6 1.390 . S
C10 C9 1.381 . S
N11 C4 1.286 . S
N11 C7 1.413 1_556 S
H12 C17 0.930 . S
H13 C20 0.930 . S
H14 C22 0.930 . S
H15 C16 1.016 . S
C16 H15 1.016 . S
C16 N23 1.286 . S
C17 H12 0.930 . S
C17 C18 1.397 . S
C17 C19 1.361 . S
C18 C17 1.397 . S
C18 C22 1.390 . S
C19 C17 1.361 . S
C19 C20 1.393 . S
C19 N23 1.413 . S
C20 H13 0.930 . S
C20 C19 1.393 . S
C20 C21 1.399 . S
C21 C20 1.399 . S
C21 C22 1.381 . S
C22 H14 0.930 . S
C22 C18 1.390 . S
C22 C21 1.381 . S
N23 C16 1.286 . S
N23 C19 1.413 . S
H24 C29 0.930 . S
H25 C32 0.930 1_455 S
H26 C34 0.930 . S
H27 C28 1.016 1_455 S
C28 H27 1.016 1_655 S
C28 N35 1.286 . S
C29 H24 0.930 . S
C29 C30 1.397 . S
C29 C31 1.361 . S
C30 C29 1.397 . S
C30 C34 1.390 . S
C31 C29 1.361 . S
C31 C32 1.393 . S
C31 N35 1.413 . S
C32 H25 0.930 1_655 S
C32 C31 1.393 . S
C32 C33 1.399 . S
C33 C32 1.399 . S
C33 C34 1.381 . S
C34 H26 0.930 . S
C34 C30 1.390 . S
C34 C33 1.381 . S
N35 C28 1.286 . S
N35 C31 1.413 . S
H36 C41 0.930 . S
H37 C44 0.930 . S
H38 C46 0.930 . S
H39 C40 1.016 . S
C40 H39 1.016 . S
C40 N47 1.286 . S
C41 H36 0.930 . S
C41 C42 1.397 . S
C41 C43 1.361 . S
C42 C41 1.397 . S
C42 C46 1.390 . S
C43 C41 1.361 . S
C43 C44 1.393 . S
C43 N47 1.413 . S
C44 H37 0.930 . S
C44 C43 1.393 . S
C44 C45 1.399 . S
C45 C44 1.399 . S
C45 C46 1.381 . S
C46 H38 0.930 . S
C46 C42 1.390 . S
C46 C45 1.381 . S
N47 C40 1.286 . S
N47 C43 1.413 . S
H48 C53 0.930 . S
H49 C56 0.930 . S
H50 C58 0.930 . S
H51 C52 1.016 . S
C52 H51 1.016 . S
C52 N59 1.286 . S
C53 H48 0.930 . S
C53 C54 1.397 1_565 S
C53 C55 1.361 . S
C54 C53 1.397 1_545 S
C54 C58 1.390 . S
C55 C53 1.361 . S
C55 C56 1.393 . S
C55 N59 1.413 . S
C56 H49 0.930 . S
C56 C55 1.393 . S
C56 C57 1.399 1_565 S
C57 C56 1.399 1_545 S
C57 C58 1.381 . S
C58 H50 0.930 . S
C58 C54 1.390 . S
C58 C57 1.381 . S
N59 C52 1.286 . S
N59 C55 1.413 . S
H60 C65 0.930 . S
H61 C68 0.930 . S
H62 C70 0.930 . S
H63 C64 1.016 . S
C64 H63 1.016 . S
C64 N71 1.286 . S
C65 H60 0.930 . S
C65 C66 1.397 . S
C65 C67 1.361 . S
C66 C65 1.397 . S
C66 C70 1.390 . S
C67 C65 1.361 . S
C67 C68 1.393 . S
C67 N71 1.413 . S
C68 H61 0.930 . S
C68 C67 1.393 . S
C68 C69 1.399 . S
C69 C68 1.399 . S
C69 C70 1.381 . S
C70 H62 0.930 . S
C70 C66 1.390 . S
C70 C69 1.381 . S
N71 C64 1.286 . S
N71 C67 1.413 . S
H72 C77 0.930 1_455 S
H73 C80 0.930 . S
H74 C82 0.930 . S
H75 C76 1.020 . S
C76 H75 1.020 . S
C76 N83 1.286 . S
C77 H72 0.930 1_655 S
C77 C78 1.397 . S
C77 C79 1.361 . S
C78 C77 1.397 . S
C78 C82 1.390 . S
C79 C77 1.361 . S
C79 C80 1.393 . S
C79 N83 1.413 1_655 S
C80 H73 0.930 . S
C80 C79 1.393 . S
C80 C81 1.399 . S
C81 C80 1.399 . S
C81 C82 1.381 . S
C82 H74 0.930 . S
C82 C78 1.390 . S
C82 C81 1.381 . S
N83 C76 1.286 . S
N83 C79 1.413 1_455 S
H84 C89 0.930 . S
H85 C92 0.930 . S
H86 C94 0.930 . S
H87 C88 1.016 . S
C88 H87 1.016 . S
C88 N95 1.286 . S
C89 H84 0.930 . S
C89 C90 1.397 . S
C89 C91 1.361 . S
C90 C89 1.397 . S
C90 C94 1.390 . S
C91 C89 1.361 . S
C91 C92 1.393 . S
C91 N95 1.413 . S
C92 H85 0.930 . S
C92 C91 1.393 . S
C92 C93 1.399 . S
C93 C92 1.399 . S
C93 C94 1.381 . S
C94 H86 0.930 . S
C94 C90 1.390 . S
C94 C93 1.381 . S
N95 C88 1.286 . S
N95 C91 1.413 . S
H96 C101 0.930 . S
H97 C104 0.930 . S
H98 C106 0.930 . S
H99 C100 1.016 . S
C100 H99 1.016 . S
C100 N107 1.286 . S
C101 H96 0.930 . S
C101 C102 1.397 . S
C101 C103 1.361 . S
C102 C101 1.397 . S
C102 C106 1.390 . S
C103 C101 1.361 . S
C103 C104 1.393 . S
C103 N107 1.413 . S
C104 H97 0.930 . S
C104 C103 1.393 . S
C104 C105 1.399 . S
C105 C104 1.399 . S
C105 C106 1.381 . S
C106 H98 0.930 . S
C106 C102 1.390 . S
C106 C105 1.381 . S
N107 C100 1.286 . S
N107 C103 1.413 . S
H108 C113 0.930 . S
H109 C116 0.930 . S
H110 C118 0.930 . S
H111 C112 1.016 . S
C112 H111 1.016 . S
C112 N119 1.286 . S
C113 H108 0.930 . S
C113 C114 1.397 1_565 S
C113 C115 1.361 . S
C114 C113 1.397 1_545 S
C114 C118 1.390 . S
C115 C113 1.361 . S
C115 C116 1.393 . S
C115 N119 1.413 . S
C116 H109 0.930 . S
C116 C115 1.393 . S
C116 C117 1.399 . S
C117 C116 1.399 . S
C117 C118 1.381 1_565 S
C118 H110 0.930 . S
C118 C114 1.390 . S
C118 C117 1.381 1_545 S
N119 C112 1.286 . S
N119 C115 1.413 . S
H120 C125 0.930 . S
H121 C128 0.930 . S
H122 C130 0.930 . S
H123 C124 1.016 . S
C124 H123 1.016 . S
C124 N131 1.286 . S
C125 H120 0.930 . S
C125 C126 1.397 . S
C125 C127 1.361 . S
C126 C125 1.397 . S
C126 C130 1.390 . S
C127 C125 1.361 . S
C127 C128 1.393 . S
C127 N131 1.413 . S
C128 H121 0.930 . S
C128 C127 1.393 . S
C128 C129 1.399 . S
C129 C128 1.399 . S
C129 C130 1.381 . S
C130 H122 0.930 . S
C130 C126 1.390 . S
C130 C129 1.381 . S
N131 C124 1.286 . S
N131 C127 1.413 . S
H132 C137 0.930 . S
H133 C140 0.930 . S
H134 C142 0.930 . S
H135 C136 1.016 . S
C136 H135 1.016 . S
C136 N143 1.286 . S
C137 H132 0.930 . S
C137 C138 1.397 . S
C137 C139 1.361 . S
C138 C137 1.397 . S
C138 C142 1.390 . S
C139 C137 1.361 . S
C139 C140 1.393 . S
C139 N143 1.413 . S
C140 H133 0.930 . S
C140 C139 1.393 . S
C140 C141 1.399 . S
C141 C140 1.399 . S
C141 C142 1.381 . S
C142 H134 0.930 . S
C142 C138 1.390 . S
C142 C141 1.381 . S
N143 C136 1.286 . S
N143 C139 1.413 . S
H144 C149 0.930 . S
H145 C152 0.930 . S
H146 C154 0.930 . S
H147 C148 1.016 . S
C148 H147 1.016 . S
C148 N155 1.286 . S
C149 H144 0.930 . S
C149 C150 1.397 . S
C149 C151 1.361 . S
C150 C149 1.397 . S
C150 C154 1.390 . S
C151 C149 1.361 . S
C151 C152 1.393 . S
C151 N155 1.413 . S
C152 H145 0.930 . S
C152 C151 1.393 . S
C152 C153 1.399 . S
C153 C152 1.399 . S
C153 C154 1.381 . S
C154 H146 0.930 . S
C154 C150 1.390 . S
C154 C153 1.381 . S
N155 C148 1.286 . S
N155 C151 1.413 . S
H156 C161 0.930 . S
H157 C164 0.930 1_554 S
H158 C166 0.930 . S
H159 C160 1.016 . S
C160 H159 1.016 . S
C160 N167 1.286 1_554 S
C161 H156 0.930 . S
C161 C162 1.397 . S
C161 C163 1.361 . S
C162 C161 1.397 . S
C162 C166 1.390 . S
C163 C161 1.361 . S
C163 C164 1.393 . S
C163 N167 1.413 . S
C164 H157 0.930 1_556 S
C164 C163 1.393 . S
C164 C165 1.399 . S
C165 C164 1.399 . S
C165 C166 1.381 . S
C166 H158 0.930 . S
C166 C162 1.390 . S
C166 C165 1.381 . S
N167 C160 1.286 1_556 S
N167 C163 1.413 . S
H168 C173 0.930 . S
H169 C176 0.930 . S
H170 C178 0.930 . S
H171 C172 1.016 . S
C172 H171 1.016 . S
C172 N179 1.286 . S
C173 H168 0.930 . S
C173 C174 1.397 . S
C173 C175 1.361 . S
C174 C173 1.397 . S
C174 C178 1.390 . S
C175 C173 1.361 . S
C175 C176 1.393 . S
C175 N179 1.413 . S
C176 H169 0.930 . S
C176 C175 1.393 . S
C176 C177 1.399 . S
C177 C176 1.399 . S
C177 C178 1.381 . S
C178 H170 0.930 . S
C178 C174 1.390 . S
C178 C177 1.381 . S
N179 C172 1.286 . S
N179 C175 1.413 . S
H180 C185 0.930 . S
H181 C188 0.930 1_565 S
H182 C190 0.930 . S
H183 C184 1.016 1_565 S
C184 H183 1.016 1_545 S
C184 N191 1.286 . S
C185 H180 0.930 . S
C185 C186 1.397 1_556 S
C185 C187 1.361 . S
C186 C185 1.397 1_554 S
C186 C190 1.390 . S
C187 C185 1.361 . S
C187 C188 1.393 . S
C187 N191 1.413 . S
C188 H181 0.930 1_545 S
C188 C187 1.393 . S
C188 C189 1.399 . S
C189 C188 1.399 . S
C189 C190 1.381 1_556 S
C190 H182 0.930 . S
C190 C186 1.390 . S
C190 C189 1.381 1_554 S
N191 C184 1.286 . S
N191 C187 1.413 . S
Mg192 O193 2.028 . S
Mg192 O199 1.986 1_554 S
Mg192 O201 2.114 . S
Mg192 O202 2.251 . S
Mg192 O205 2.010 . S
O193 Mg192 2.028 . S
O193 C196 1.250 . S
O194 Mg195 2.028 . S
O194 C196 1.248 . S
Mg195 O194 2.028 . S
Mg195 O200 2.032 1_554 S
Mg195 O202 2.079 . S
C196 O193 1.250 . S
C196 O194 1.248 . S
C197 O198 1.264 . S
C197 O205 1.249 . S
O198 C197 1.264 . S
O199 Mg192 1.986 1_556 S
O199 C203 1.246 . S
O200 Mg195 2.032 1_556 S
O200 C203 1.259 . S
O201 Mg192 2.114 . S
O201 C204 1.252 . S
O202 Mg192 2.251 . S
O202 Mg195 2.079 . S
O202 C204 1.273 . S
C203 O199 1.246 . S
C203 O200 1.259 . S
C204 O201 1.252 . S
C204 O202 1.273 . S
O205 Mg192 2.010 . S
O205 C197 1.249 . S
Mg206 O207 2.028 . S
Mg206 O213 1.986 . S
Mg206 O215 2.114 . S
Mg206 O216 2.251 . S
Mg206 O219 2.010 . S
O207 Mg206 2.028 . S
O207 C210 1.250 . S
O208 Mg209 2.028 . S
O208 C210 1.248 . S
Mg209 O208 2.028 . S
Mg209 O214 2.032 . S
Mg209 O216 2.079 . S
C210 O207 1.250 . S
C210 O208 1.248 . S
C211 O212 1.264 . S
C211 O219 1.249 . S
O212 C211 1.264 . S
O213 Mg206 1.986 . S
O213 C217 1.246 . S
O214 Mg209 2.032 . S
O214 C217 1.259 . S
O215 Mg206 2.114 . S
O215 C218 1.252 . S
O216 Mg206 2.251 . S
O216 Mg209 2.079 . S
O216 C218 1.273 . S
C217 O213 1.246 . S
C217 O214 1.259 . S
C218 O215 1.252 . S
C218 O216 1.273 . S
O219 Mg206 2.010 . S
O219 C211 1.249 . S
Mg220 O221 2.028 . S
Mg220 O227 1.986 1_554 S
Mg220 O229 2.114 . S
Mg220 O230 2.251 . S
Mg220 O233 2.010 . S
O221 Mg220 2.028 . S
O221 C224 1.250 1_554 S
O222 Mg223 2.028 . S
O222 C224 1.248 . S
Mg223 O222 2.028 . S
Mg223 O228 2.032 . S
Mg223 O230 2.079 1_556 S
C224 O221 1.250 1_556 S
C224 O222 1.248 . S
C225 O226 1.264 . S
C225 O233 1.249 . S
O226 C225 1.264 . S
O227 Mg220 1.986 1_556 S
O227 C231 1.246 . S
O228 Mg223 2.032 . S
O228 C231 1.259 . S
O229 Mg220 2.114 . S
O229 C232 1.252 . S
O230 Mg220 2.251 . S
O230 Mg223 2.079 1_554 S
O230 C232 1.273 . S
C231 O227 1.246 . S
C231 O228 1.259 . S
C232 O229 1.252 . S
C232 O230 1.273 . S
O233 Mg220 2.010 . S
O233 C225 1.249 . S
Mg234 O235 2.028 . S
Mg234 O241 1.986 . S
Mg234 O243 2.114 . S
Mg234 O244 2.251 . S
Mg234 O247 2.010 . S
O235 Mg234 2.028 . S
O235 C238 1.250 1_545 S
O236 Mg237 2.028 . S
O236 C238 1.248 . S
Mg237 O236 2.028 . S
Mg237 O242 2.032 . S
Mg237 O244 2.079 1_565 S
C238 O235 1.250 1_565 S
C238 O236 1.248 . S
C239 O240 1.264 . S
C239 O247 1.249 . S
O240 C239 1.264 . S
O241 Mg234 1.986 . S
O241 C245 1.246 . S
O242 Mg237 2.032 . S
O242 C245 1.259 1_565 S
O243 Mg234 2.114 . S
O243 C246 1.252 . S
O244 Mg234 2.251 . S
O244 Mg237 2.079 1_545 S
O244 C246 1.273 . S
C245 O241 1.246 . S
C245 O242 1.259 1_545 S
C246 O243 1.252 . S
C246 O244 1.273 . S
O247 Mg234 2.010 . S
O247 C239 1.249 . S
Mg248 O249 2.028 . S
Mg248 O255 1.986 . S
Mg248 O257 2.114 . S
Mg248 O258 2.251 . S
Mg248 O261 2.010 . S
O249 Mg248 2.028 . S
O249 C252 1.250 . S
O250 Mg251 2.028 . S
O250 C252 1.248 . S
Mg251 O250 2.028 . S
Mg251 O256 2.032 . S
Mg251 O258 2.079 . S
C252 O249 1.250 . S
C252 O250 1.248 . S
C253 O254 1.264 . S
C253 O261 1.249 . S
O254 C253 1.264 . S
O255 Mg248 1.986 . S
O255 C259 1.246 . S
O256 Mg251 2.032 . S
O256 C259 1.259 . S
O257 Mg248 2.114 . S
O257 C260 1.252 . S
O258 Mg248 2.251 . S
O258 Mg251 2.079 . S
O258 C260 1.273 . S
C259 O255 1.246 . S
C259 O256 1.259 . S
C260 O257 1.252 . S
C260 O258 1.273 . S
O261 Mg248 2.010 . S
O261 C253 1.249 . S
Mg262 O263 2.028 . S
Mg262 O269 1.986 . S
Mg262 O271 2.114 . S
Mg262 O272 2.251 . S
Mg262 O275 2.010 . S
O263 Mg262 2.028 . S
O263 C266 1.250 . S
O264 Mg265 2.028 . S
O264 C266 1.248 . S
Mg265 O264 2.028 . S
Mg265 O270 2.032 . S
Mg265 O272 2.079 . S
C266 O263 1.250 . S
C266 O264 1.248 . S
C267 O268 1.264 . S
C267 O275 1.249 . S
O268 C267 1.264 . S
O269 Mg262 1.986 . S
O269 C273 1.246 . S
O270 Mg265 2.032 . S
O270 C273 1.259 . S
O271 Mg262 2.114 . S
O271 C274 1.252 . S
O272 Mg262 2.251 . S
O272 Mg265 2.079 . S
O272 C274 1.273 . S
C273 O269 1.246 . S
C273 O270 1.259 . S
C274 O271 1.252 . S
C274 O272 1.273 . S
O275 Mg262 2.010 . S
O275 C267 1.249 . S
Mg276 O277 2.028 . S
Mg276 O283 1.986 . S
Mg276 O285 2.114 . S
Mg276 O286 2.251 . S
Mg276 O289 2.010 . S
O277 Mg276 2.028 . S
O277 C280 1.250 . S
O278 Mg279 2.028 . S
O278 C280 1.248 . S
Mg279 O278 2.028 . S
Mg279 O284 2.032 . S
Mg279 O286 2.079 . S
C280 O277 1.250 . S
C280 O278 1.248 . S
C281 O282 1.264 . S
C281 O289 1.249 . S
O282 C281 1.264 . S
O283 Mg276 1.986 . S
O283 C287 1.246 . S
O284 Mg279 2.032 . S
O284 C287 1.259 . S
O285 Mg276 2.114 . S
O285 C288 1.252 . S
O286 Mg276 2.251 . S
O286 Mg279 2.079 . S
O286 C288 1.273 . S
C287 O283 1.246 . S
C287 O284 1.259 . S
C288 O285 1.252 . S
C288 O286 1.273 . S
O289 Mg276 2.010 . S
O289 C281 1.249 . S
Mg290 O291 2.028 1_545 S
Mg290 O297 1.986 1_545 S
Mg290 O299 2.114 . S
Mg290 O300 2.251 . S
Mg290 O303 2.010 . S
O291 Mg290 2.028 1_565 S
O291 C294 1.250 . S
O292 Mg293 2.028 . S
O292 C294 1.248 . S
Mg293 O292 2.028 . S
Mg293 O298 2.032 . S
Mg293 O300 2.079 1_565 S
C294 O291 1.250 . S
C294 O292 1.248 . S
C295 O296 1.264 . S
C295 O303 1.249 . S
O296 C295 1.264 . S
O297 Mg290 1.986 1_565 S
O297 C301 1.246 . S
O298 Mg293 2.032 . S
O298 C301 1.259 . S
O299 Mg290 2.114 . S
O299 C302 1.252 . S
O300 Mg290 2.251 . S
O300 Mg293 2.079 1_545 S
O300 C302 1.273 . S
C301 O297 1.246 . S
C301 O298 1.259 . S
C302 O299 1.252 . S
C302 O300 1.273 . S
O303 Mg290 2.010 . S
O303 C295 1.249 . S
Mg304 O305 2.028 1_455 S
Mg304 O311 1.986 . S
Mg304 O313 2.114 . S
Mg304 O314 2.251 1_455 S
Mg304 O317 2.010 . S
O305 Mg304 2.028 1_655 S
O305 C308 1.250 . S
O306 Mg307 2.028 . S
O306 C308 1.248 . S
Mg307 O306 2.028 . S
Mg307 O312 2.032 . S
Mg307 O314 2.079 . S
C308 O305 1.250 . S
C308 O306 1.248 . S
C309 O310 1.264 . S
C309 O317 1.249 . S
O310 C309 1.264 . S
O311 Mg304 1.986 . S
O311 C315 1.246 1_455 S
O312 Mg307 2.032 . S
O312 C315 1.259 . S
O313 Mg304 2.114 . S
O313 C316 1.252 . S
O314 Mg304 2.251 1_655 S
O314 Mg307 2.079 . S
O314 C316 1.273 1_655 S
C315 O311 1.246 1_655 S
C315 O312 1.259 . S
C316 O313 1.252 . S
C316 O314 1.273 1_455 S
O317 Mg304 2.010 . S
O317 C309 1.249 . S
Mg318 O319 2.028 . S
Mg318 O325 1.986 . S
Mg318 O327 2.114 . S
Mg318 O328 2.251 . S
Mg318 O331 2.010 . S
O319 Mg318 2.028 . S
O319 C322 1.250 . S
O320 Mg321 2.028 . S
O320 C322 1.248 . S
Mg321 O320 2.028 . S
Mg321 O326 2.032 . S
Mg321 O328 2.079 . S
C322 O319 1.250 . S
C322 O320 1.248 . S
C323 O324 1.264 . S
C323 O331 1.249 . S
O324 C323 1.264 . S
O325 Mg318 1.986 . S
O325 C329 1.246 . S
O326 Mg321 2.032 . S
O326 C329 1.259 . S
O327 Mg318 2.114 . S
O327 C330 1.252 . S
O328 Mg318 2.251 . S
O328 Mg321 2.079 . S
O328 C330 1.273 . S
C329 O325 1.246 . S
C329 O326 1.259 . S
C330 O327 1.252 . S
C330 O328 1.273 . S
O331 Mg318 2.010 . S
O331 C323 1.249 . S
Mg332 O333 2.028 1_655 S
Mg332 O339 1.986 . S
Mg332 O341 2.114 . S
Mg332 O342 2.251 1_655 S
Mg332 O345 2.010 . S
O333 Mg332 2.028 1_455 S
O333 C336 1.250 . S
O334 Mg335 2.028 . S
O334 C336 1.248 . S
Mg335 O334 2.028 . S
Mg335 O340 2.032 . S
Mg335 O342 2.079 . S
C336 O333 1.250 . S
C336 O334 1.248 . S
C337 O338 1.264 . S
C337 O345 1.249 . S
O338 C337 1.264 . S
O339 Mg332 1.986 . S
O339 C343 1.247 1_655 S
O340 Mg335 2.032 . S
O340 C343 1.259 . S
O341 Mg332 2.114 . S
O341 C344 1.252 . S
O342 Mg332 2.251 1_455 S
O342 Mg335 2.079 . S
O342 C344 1.273 1_455 S
C343 O339 1.247 1_455 S
C343 O340 1.259 . S
C344 O341 1.252 . S
C344 O342 1.273 1_655 S
O345 Mg332 2.010 . S
O345 C337 1.249 . S
Mg346 O347 2.028 . S
Mg346 O353 1.986 . S
Mg346 O355 2.114 . S
Mg346 O356 2.251 . S
Mg346 O359 2.010 . S
O347 Mg346 2.028 . S
O347 C350 1.250 . S
O348 Mg349 2.028 . S
O348 C350 1.248 . S
Mg349 O348 2.028 . S
Mg349 O354 2.032 . S
Mg349 O356 2.079 . S
C350 O347 1.250 . S
C350 O348 1.248 . S
C351 O352 1.264 . S
C351 O359 1.249 . S
O352 C351 1.264 . S
O353 Mg346 1.986 . S
O353 C357 1.246 . S
O354 Mg349 2.032 . S
O354 C357 1.259 . S
O355 Mg346 2.114 . S
O355 C358 1.252 . S
O356 Mg346 2.251 . S
O356 Mg349 2.079 . S
O356 C358 1.273 . S
C357 O353 1.246 . S
C357 O354 1.259 . S
C358 O355 1.252 . S
C358 O356 1.273 . S
O359 Mg346 2.010 . S
O359 C351 1.249 . S
C360 C361 1.369 . S
C360 C362 1.419 . S
C360 H364 0.930 . S
C361 C360 1.369 . S
C361 C370 1.429 . S
C362 C360 1.419 . S
C362 C363 1.363 . S
C362 H365 0.929 . S
C363 C362 1.363 . S
C363 C369 1.428 . S
H364 C360 0.930 . S
H365 C362 0.929 . S
S366 N367 1.613 . S
S366 N368 1.610 . S
N367 S366 1.613 . S
N367 C370 1.350 . S
N368 S366 1.610 . S
N368 C369 1.351 . S
C369 C363 1.428 . S
C369 N368 1.351 . S
C369 C370 1.434 . S
C370 C361 1.429 . S
C370 N367 1.350 . S
C370 C369 1.434 . S
C371 C372 1.369 . S
C371 C373 1.419 . S
C371 H375 0.930 . S
C372 C371 1.369 . S
C372 C381 1.429 . S
C373 C371 1.419 . S
C373 C374 1.363 . S
C373 H376 0.929 . S
C374 C373 1.363 . S
C374 C380 1.428 . S
H375 C371 0.930 . S
H376 C373 0.929 . S
S377 N378 1.613 . S
S377 N379 1.610 . S
N378 S377 1.613 . S
N378 C381 1.350 . S
N379 S377 1.610 . S
N379 C380 1.351 . S
C380 C374 1.428 . S
C380 N379 1.351 . S
C380 C381 1.434 . S
C381 C372 1.429 . S
C381 N378 1.350 . S
C381 C380 1.434 . S
C382 C383 1.369 . S
C382 C384 1.419 . S
C382 H386 0.930 . S
C383 C382 1.369 . S
C383 C392 1.429 . S
C384 C382 1.419 . S
C384 C385 1.363 . S
C384 H387 0.929 . S
C385 C384 1.363 . S
C385 C391 1.428 . S
H386 C382 0.930 . S
H387 C384 0.929 . S
S388 N389 1.613 . S
S388 N390 1.610 . S
N389 S388 1.613 . S
N389 C392 1.350 . S
N390 S388 1.610 . S
N390 C391 1.351 . S
C391 C385 1.428 . S
C391 N390 1.351 . S
C391 C392 1.434 . S
C392 C383 1.429 . S
C392 N389 1.350 . S
C392 C391 1.434 . S
C393 C394 1.369 . S
C393 C395 1.419 . S
C393 H397 0.930 . S
C394 C393 1.369 . S
C394 C403 1.429 1_545 S
C395 C393 1.419 . S
C395 C396 1.356 1_455 S
C395 H398 0.929 . S
C396 C395 1.356 1_655 S
C396 C402 1.425 1_645 S
H397 C393 0.930 . S
H398 C395 0.929 . S
S399 N400 1.613 1_655 S
S399 N401 1.610 . S
N400 S399 1.613 1_455 S
N400 C403 1.350 . S
N401 S399 1.610 . S
N401 C402 1.351 1_655 S
C402 C396 1.425 1_465 S
C402 N401 1.351 1_455 S
C402 C403 1.434 . S
C403 C394 1.429 1_565 S
C403 N400 1.350 . S
C403 C402 1.434 . S
C404 C405 1.369 . S
C404 C406 1.419 . S
C404 H408 0.930 . S
C405 C404 1.369 . S
C405 C414 1.429 . S
C406 C404 1.419 . S
C406 C407 1.363 . S
C406 H409 0.929 . S
C407 C406 1.363 . S
C407 C413 1.428 . S
H408 C404 0.930 . S
H409 C406 0.929 . S
S410 N411 1.613 . S
S410 N412 1.610 . S
N411 S410 1.613 . S
N411 C414 1.350 . S
N412 S410 1.610 . S
N412 C413 1.351 . S
C413 C407 1.428 . S
C413 N412 1.351 . S
C413 C414 1.434 . S
C414 C405 1.429 . S
C414 N411 1.350 . S
C414 C413 1.434 . S
C415 C416 1.369 . S
C415 C417 1.419 . S
C415 H419 0.930 . S
C416 C415 1.369 . S
C416 C425 1.429 . S
C417 C415 1.419 . S
C417 C418 1.363 . S
C417 H420 0.929 . S
C418 C417 1.363 . S
C418 C424 1.428 . S
H419 C415 0.930 . S
H420 C417 0.929 . S
S421 N422 1.613 . S
S421 N423 1.610 . S
N422 S421 1.613 . S
N422 C425 1.350 . S
N423 S421 1.610 . S
N423 C424 1.351 . S
C424 C418 1.428 . S
C424 N423 1.351 . S
C424 C425 1.434 . S
C425 C416 1.429 . S
C425 N422 1.350 . S
C425 C424 1.434 . S
C426 C427 1.369 . S
C426 C428 1.419 . S
C426 H430 0.930 . S
C427 C426 1.369 . S
C427 C436 1.429 . S
C428 C426 1.419 . S
C428 C429 1.363 . S
C428 H431 0.929 . S
C429 C428 1.363 . S
C429 C435 1.428 . S
H430 C426 0.930 . S
H431 C428 0.929 . S
S432 N433 1.613 . S
S432 N434 1.610 . S
N433 S432 1.613 . S
N433 C436 1.350 . S
N434 S432 1.610 . S
N434 C435 1.351 . S
C435 C429 1.428 . S
C435 N434 1.351 . S
C435 C436 1.434 . S
C436 C427 1.429 . S
C436 N433 1.350 . S
C436 C435 1.434 . S
C437 C438 1.369 1_545 S
C437 C439 1.419 . S
C437 H441 0.930 . S
C438 C437 1.369 1_565 S
C438 C447 1.429 . S
C439 C437 1.419 . S
C439 C440 1.363 1_545 S
C439 H442 0.929 . S
C440 C439 1.363 1_565 S
C440 C446 1.428 . S
H441 C437 0.930 . S
H442 C439 0.929 . S
S443 N444 1.613 . S
S443 N445 1.610 . S
N444 S443 1.613 . S
N444 C447 1.350 . S
N445 S443 1.610 . S
N445 C446 1.351 . S
C446 C440 1.428 . S
C446 N445 1.351 . S
C446 C447 1.434 . S
C447 C438 1.429 . S
C447 N444 1.350 . S
C447 C446 1.434 . S
C448 C449 1.369 . S
C448 C450 1.419 . S
C448 H452 0.930 . S
C449 C448 1.369 . S
C449 C458 1.429 . S
C450 C448 1.419 . S
C450 C451 1.363 . S
C450 H453 0.929 . S
C451 C450 1.363 . S
C451 C457 1.428 . S
H452 C448 0.930 . S
H453 C450 0.929 . S
S454 N455 1.613 . S
S454 N456 1.610 . S
N455 S454 1.613 . S
N455 C458 1.350 . S
N456 S454 1.610 . S
N456 C457 1.351 . S
C457 C451 1.428 . S
C457 N456 1.351 . S
C457 C458 1.434 . S
C458 C449 1.429 . S
C458 N455 1.350 . S
C458 C457 1.434 . S
C459 C460 1.369 . S
C459 C461 1.419 . S
C459 H463 0.930 . S
C460 C459 1.369 . S
C460 C469 1.429 . S
C461 C459 1.419 . S
C461 C462 1.363 . S
C461 H464 0.929 . S
C462 C461 1.363 . S
C462 C468 1.428 . S
H463 C459 0.930 . S
H464 C461 0.929 . S
S465 N466 1.613 . S
S465 N467 1.610 . S
N466 S465 1.613 . S
N466 C469 1.350 . S
N467 S465 1.610 . S
N467 C468 1.351 . S
C468 C462 1.428 . S
C468 N467 1.351 . S
C468 C469 1.434 . S
C469 C460 1.429 . S
C469 N466 1.350 . S
C469 C468 1.434 . S
C470 C471 1.369 . S
C470 C472 1.419 . S
C470 H474 0.930 . S
C471 C470 1.369 . S
C471 C480 1.429 . S
C472 C470 1.419 . S
C472 C473 1.363 . S
C472 H475 0.929 . S
C473 C472 1.363 . S
C473 C479 1.428 . S
H474 C470 0.930 . S
H475 C472 0.929 . S
S476 N477 1.613 . S
S476 N478 1.610 . S
N477 S476 1.613 . S
N477 C480 1.350 . S
N478 S476 1.610 . S
N478 C479 1.351 . S
C479 C473 1.428 . S
C479 N478 1.351 . S
C479 C480 1.434 . S
C480 C471 1.429 . S
C480 N477 1.350 . S
C480 C479 1.434 . S
C481 C482 1.369 . S
C481 C483 1.419 . S
C481 H485 0.930 . S
C482 C481 1.369 . S
C482 C491 1.429 . S
C483 C481 1.419 . S
C483 C484 1.363 . S
C483 H486 0.929 . S
C484 C483 1.363 . S
C484 C490 1.428 . S
H485 C481 0.930 . S
H486 C483 0.929 . S
S487 N488 1.613 . S
S487 N489 1.610 . S
N488 S487 1.613 . S
N488 C491 1.350 . S
N489 S487 1.610 . S
N489 C490 1.351 . S
C490 C484 1.428 . S
C490 N489 1.351 . S
C490 C491 1.434 . S
C491 C482 1.429 . S
C491 N488 1.350 . S
C491 C490 1.434 . S
C492 C493 1.369 . S
C492 C494 1.419 . S
C492 H496 0.930 . S
C493 C492 1.369 . S
C493 C502 1.429 . S
C494 C492 1.419 . S
C494 C495 1.363 . S
C494 H497 0.929 . S
C495 C494 1.363 . S
C495 C501 1.428 . S
H496 C492 0.930 . S
H497 C494 0.929 . S
S498 N499 1.613 . S
S498 N500 1.610 . S
N499 S498 1.613 . S
N499 C502 1.350 . S
N500 S498 1.610 . S
N500 C501 1.351 . S
C501 C495 1.428 . S
C501 N500 1.351 . S
C501 C502 1.434 . S
C502 C493 1.429 . S
C502 N499 1.350 . S
C502 C501 1.434 . S
C503 C504 1.369 . S
C503 C505 1.419 . S
C503 H507 0.930 . S
C504 C503 1.369 . S
C504 C513 1.429 . S
C505 C503 1.419 . S
C505 C506 1.363 . S
C505 H508 0.929 . S
C506 C505 1.363 . S
C506 C512 1.428 . S
H507 C503 0.930 . S
H508 C505 0.929 . S
S509 N510 1.613 . S
S509 N511 1.610 . S
N510 S509 1.613 . S
N510 C513 1.350 1_655 S
N511 S509 1.610 . S
N511 C512 1.351 1_655 S
C512 C506 1.428 . S
C512 N511 1.351 1_455 S
C512 C513 1.434 . S
C513 C504 1.429 . S
C513 N510 1.350 1_455 S
C513 C512 1.434 . S
C514 C515 1.369 . S
C514 C516 1.419 . S
C514 H518 0.930 . S
C515 C514 1.369 . S
C515 C524 1.429 . S
C516 C514 1.419 . S
C516 C517 1.363 . S
C516 H519 0.929 . S
C517 C516 1.363 . S
C517 C523 1.428 . S
H518 C514 0.930 . S
H519 C516 0.929 . S
S520 N521 1.613 . S
S520 N522 1.610 . S
N521 S520 1.613 . S
N521 C524 1.350 . S
N522 S520 1.610 . S
N522 C523 1.351 . S
C523 C517 1.428 . S
C523 N522 1.351 . S
C523 C524 1.434 . S
C524 C515 1.429 . S
C524 N521 1.350 . S
C524 C523 1.434 . S
C525 C526 1.369 . S
C525 C527 1.419 . S
C525 H529 0.930 . S
C526 C525 1.369 . S
C526 C535 1.429 . S
C527 C525 1.419 . S
C527 C528 1.363 . S
C527 H530 0.929 . S
C528 C527 1.363 . S
C528 C534 1.428 . S
H529 C525 0.930 . S
H530 C527 0.929 . S
S531 N532 1.613 . S
S531 N533 1.610 . S
N532 S531 1.613 . S
N532 C535 1.350 . S
N533 S531 1.610 . S
N533 C534 1.351 . S
C534 C528 1.428 . S
C534 N533 1.351 . S
C534 C535 1.434 . S
C535 C526 1.429 . S
C535 N532 1.350 . S
C535 C534 1.434 . S
C536 C537 1.369 . S
C536 C538 1.419 . S
C536 H540 0.930 . S
C537 C536 1.369 . S
C537 C546 1.429 . S
C538 C536 1.419 . S
C538 C539 1.363 . S
C538 H541 0.929 . S
C539 C538 1.363 . S
C539 C545 1.428 . S
H540 C536 0.930 . S
H541 C538 0.929 . S
S542 N543 1.613 . S
S542 N544 1.610 . S
N543 S542 1.613 . S
N543 C546 1.350 . S
N544 S542 1.610 . S
N544 C545 1.351 . S
C545 C539 1.428 . S
C545 N544 1.351 . S
C545 C546 1.434 . S
C546 C537 1.429 . S
C546 N543 1.350 . S
C546 C545 1.434 . S
C547 C548 1.369 . S
C547 C549 1.419 . S
C547 H551 0.930 . S
C548 C547 1.369 . S
C548 C557 1.429 . S
C549 C547 1.419 . S
C549 C550 1.363 . S
C549 H552 0.929 . S
C550 C549 1.363 . S
C550 C556 1.428 . S
H551 C547 0.930 . S
H552 C549 0.929 . S
S553 N554 1.613 . S
S553 N555 1.610 . S
N554 S553 1.613 . S
N554 C557 1.350 . S
N555 S553 1.610 . S
N555 C556 1.351 . S
C556 C550 1.428 . S
C556 N555 1.351 . S
C556 C557 1.434 . S
C557 C548 1.429 . S
C557 N554 1.350 . S
C557 C556 1.434 . S
C558 C559 1.369 . S
C558 C560 1.419 . S
C558 H562 0.930 . S
C559 C558 1.369 . S
C559 C568 1.429 1_556 S
C560 C558 1.419 . S
C560 C561 1.363 1_556 S
C560 H563 0.929 . S
C561 C560 1.363 1_554 S
C561 C567 1.428 . S
H562 C558 0.930 . S
H563 C560 0.929 . S
S564 N565 1.613 . S
S564 N566 1.610 1_545 S
N565 S564 1.613 . S
N565 C568 1.350 1_545 S
N566 S564 1.610 1_565 S
N566 C567 1.351 . S
C567 C561 1.428 . S
C567 N566 1.351 . S
C567 C568 1.434 . S
C568 C559 1.429 1_554 S
C568 N565 1.350 1_565 S
C568 C567 1.434 . S
C569 C570 1.369 . S
C569 C571 1.419 . S
C569 H573 0.930 . S
C570 C569 1.369 . S
C570 C579 1.429 . S
C571 C569 1.419 . S
C571 C572 1.363 . S
C571 H574 0.929 . S
C572 C571 1.363 . S
C572 C578 1.428 . S
H573 C569 0.930 . S
H574 C571 0.929 . S
S575 N576 1.613 . S
S575 N577 1.610 . S
N576 S575 1.613 . S
N576 C579 1.350 . S
N577 S575 1.610 . S
N577 C578 1.351 . S
C578 C572 1.428 . S
C578 N577 1.351 . S
C578 C579 1.434 . S
C579 C570 1.429 . S
C579 N576 1.350 . S
C579 C578 1.434 . S
C580 C581 1.369 . S
C580 C582 1.419 . S
C580 H584 0.930 . S
C581 C580 1.369 . S
C581 C590 1.429 . S
C582 C580 1.419 . S
C582 C583 1.363 . S
C582 H585 0.929 . S
C583 C582 1.363 . S
C583 C589 1.428 . S
H584 C580 0.930 . S
H585 C582 0.929 . S
S586 N587 1.613 . S
S586 N588 1.610 . S
N587 S586 1.613 . S
N587 C590 1.350 . S
N588 S586 1.610 . S
N588 C589 1.351 . S
C589 C583 1.428 . S
C589 N588 1.351 . S
C589 C590 1.434 . S
C590 C581 1.429 . S
C590 N587 1.350 . S
C590 C589 1.434 . S
C591 C592 1.369 . S
C591 C593 1.419 . S
C591 H595 0.930 . S
C592 C591 1.369 . S
C592 C601 1.429 . S
C593 C591 1.419 . S
C593 C594 1.363 . S
C593 H596 0.929 . S
C594 C593 1.363 . S
C594 C600 1.428 . S
H595 C591 0.930 . S
H596 C593 0.929 . S
S597 N598 1.613 . S
S597 N599 1.610 . S
N598 S597 1.613 . S
N598 C601 1.350 . S
N599 S597 1.610 . S
N599 C600 1.351 . S
C600 C594 1.428 . S
C600 N599 1.351 . S
C600 C601 1.434 . S
C601 C592 1.429 . S
C601 N598 1.350 . S
C601 C600 1.434 . S
C602 C603 1.369 . S
C602 C604 1.419 . S
C602 H606 0.930 . S
C603 C602 1.369 . S
C603 C612 1.429 . S
C604 C602 1.419 . S
C604 C605 1.363 . S
C604 H607 0.929 . S
C605 C604 1.363 . S
C605 C611 1.428 . S
H606 C602 0.930 . S
H607 C604 0.929 . S
S608 N609 1.613 . S
S608 N610 1.610 . S
N609 S608 1.613 . S
N609 C612 1.350 . S
N610 S608 1.610 . S
N610 C611 1.351 . S
C611 C605 1.428 . S
C611 N610 1.351 . S
C611 C612 1.434 . S
C612 C603 1.429 . S
C612 N609 1.350 . S
C612 C611 1.434 . S
C613 C614 1.369 . S
C613 C615 1.419 . S
C613 H617 0.930 . S
C614 C613 1.369 . S
C614 C623 1.429 . S
C615 C613 1.419 . S
C615 C616 1.363 . S
C615 H618 0.929 . S
C616 C615 1.363 . S
C616 C622 1.428 . S
H617 C613 0.930 . S
H618 C615 0.929 . S
S619 N620 1.613 . S
S619 N621 1.610 . S
N620 S619 1.613 . S
N620 C623 1.350 . S
N621 S619 1.610 . S
N621 C622 1.351 . S
C622 C616 1.428 . S
C622 N621 1.351 . S
C622 C623 1.434 . S
C623 C614 1.429 . S
C623 N620 1.350 . S
C623 C622 1.434 . S
C624 C625 1.369 . S
C624 C626 1.419 . S
C624 H628 0.930 . S
C625 C624 1.369 . S
C625 C634 1.429 . S
C626 C624 1.419 . S
C626 C627 1.363 . S
C626 H629 0.929 . S
C627 C626 1.363 . S
C627 C633 1.428 . S
H628 C624 0.930 . S
H629 C626 0.929 . S
S630 N631 1.613 . S
S630 N632 1.610 . S
N631 S630 1.613 . S
N631 C634 1.350 . S
N632 S630 1.610 . S
N632 C633 1.351 . S
C633 C627 1.428 . S
C633 N632 1.351 . S
C633 C634 1.434 . S
C634 C625 1.429 . S
C634 N631 1.350 . S
C634 C633 1.434 . S
C635 C636 1.369 1_565 S
C635 C637 1.419 . S
C635 H639 0.930 . S
C636 C635 1.369 1_545 S
C636 C645 1.429 . S
C637 C635 1.419 . S
C637 C638 1.363 1_565 S
C637 H640 0.929 . S
C638 C637 1.363 1_545 S
C638 C644 1.428 . S
H639 C635 0.930 . S
H640 C637 0.929 . S
S641 N642 1.613 . S
S641 N643 1.610 . S
N642 S641 1.613 . S
N642 C645 1.350 . S
N643 S641 1.610 . S
N643 C644 1.351 . S
C644 C638 1.428 . S
C644 N643 1.351 . S
C644 C645 1.434 . S
C645 C636 1.429 . S
C645 N642 1.350 . S
C645 C644 1.434 . S
C646 C647 1.369 . S
C646 C648 1.419 . S
C646 H650 0.930 . S
C647 C646 1.369 . S
C647 C656 1.429 . S
C648 C646 1.419 . S
C648 C649 1.363 . S
C648 H651 0.929 . S
C649 C648 1.363 . S
C649 C655 1.428 . S
H650 C646 0.930 . S
H651 C648 0.929 . S
S652 N653 1.613 . S
S652 N654 1.610 . S
N653 S652 1.613 . S
N653 C656 1.350 . S
N654 S652 1.610 . S
N654 C655 1.351 . S
C655 C649 1.428 . S
C655 N654 1.351 . S
C655 C656 1.434 . S
C656 C647 1.429 . S
C656 N653 1.350 . S
C656 C655 1.434 . S
C657 C658 1.369 . S
C657 C659 1.419 . S
C657 H661 0.930 . S
C658 C657 1.369 . S
C658 C667 1.429 . S
C659 C657 1.419 . S
C659 C660 1.363 . S
C659 H662 0.929 . S
C660 C659 1.363 . S
C660 C666 1.428 . S
H661 C657 0.930 . S
H662 C659 0.929 . S
S663 N664 1.613 . S
S663 N665 1.610 . S
N664 S663 1.613 . S
N664 C667 1.350 . S
N665 S663 1.610 . S
N665 C666 1.351 . S
C666 C660 1.428 . S
C666 N665 1.351 . S
C666 C667 1.434 . S
C667 C658 1.429 . S
C667 N664 1.350 . S
C667 C666 1.434 . S
C668 C669 1.369 . S
C668 C670 1.419 . S
C668 H672 0.930 . S
C669 C668 1.369 . S
C669 C678 1.429 . S
C670 C668 1.419 . S
C670 C671 1.363 . S
C670 H673 0.929 . S
C671 C670 1.363 . S
C671 C677 1.428 . S
H672 C668 0.930 . S
H673 C670 0.929 . S
S674 N675 1.613 . S
S674 N676 1.610 . S
N675 S674 1.613 . S
N675 C678 1.350 . S
N676 S674 1.610 . S
N676 C677 1.351 . S
C677 C671 1.428 . S
C677 N676 1.351 . S
C677 C678 1.434 . S
C678 C669 1.429 . S
C678 N675 1.350 . S
C678 C677 1.434 . S
C679 C680 1.369 . S
C679 C681 1.419 . S
C679 H683 0.930 . S
C680 C679 1.369 . S
C680 C689 1.434 1_455 S
C681 C679 1.419 . S
C681 C682 1.363 1_455 S
C681 H684 0.929 . S
C682 C681 1.363 1_655 S
C682 C688 1.428 . S
H683 C679 0.930 . S
H684 C681 0.929 . S
S685 N686 1.613 . S
S685 N687 1.610 . S
N686 S685 1.613 . S
N686 C689 1.343 1_565 S
N687 S685 1.610 . S
N687 C688 1.351 1_565 S
C688 C682 1.428 . S
C688 N687 1.351 1_545 S
C688 C689 1.435 . S
C689 C680 1.434 1_655 S
C689 N686 1.343 1_545 S
C689 C688 1.435 . S
C690 C691 1.369 . S
C690 C692 1.419 . S
C690 H694 0.930 . S
C691 C690 1.369 . S
C691 C700 1.429 . S
C692 C690 1.419 . S
C692 C693 1.363 . S
C692 H695 0.929 . S
C693 C692 1.363 . S
C693 C699 1.428 . S
H694 C690 0.930 . S
H695 C692 0.929 . S
S696 N697 1.613 . S
S696 N698 1.610 . S
N697 S696 1.613 . S
N697 C700 1.350 . S
N698 S696 1.610 . S
N698 C699 1.351 . S
C699 C693 1.428 . S
C699 N698 1.351 . S
C699 C700 1.434 . S
C700 C691 1.429 . S
C700 N697 1.350 . S
C700 C699 1.434 . S
C701 C702 1.369 . S
C701 C703 1.419 . S
C701 H705 0.930 1_455 S
C702 C701 1.369 . S
C702 C711 1.429 . S
C703 C701 1.419 . S
C703 C704 1.363 . S
C703 H706 0.929 . S
C704 C703 1.363 . S
C704 C710 1.428 . S
H705 C701 0.930 1_655 S
H706 C703 0.929 . S
S707 N708 1.613 . S
S707 N709 1.610 . S
N708 S707 1.613 . S
N708 C711 1.350 . S
N709 S707 1.610 . S
N709 C710 1.351 . S
C710 C704 1.428 . S
C710 N709 1.351 . S
C710 C711 1.434 . S
C711 C702 1.429 . S
C711 N708 1.350 . S
C711 C710 1.434 . S
C712 C713 1.369 . S
C712 C714 1.419 . S
C712 H716 0.930 . S
C713 C712 1.369 . S
C713 C722 1.429 . S
C714 C712 1.419 . S
C714 C715 1.363 . S
C714 H717 0.929 . S
C715 C714 1.363 . S
C715 C721 1.428 . S
H716 C712 0.930 . S
H717 C714 0.929 . S
S718 N719 1.613 . S
S718 N720 1.610 . S
N719 S718 1.613 . S
N719 C722 1.350 . S
N720 S718 1.610 . S
N720 C721 1.351 . S
C721 C715 1.428 . S
C721 N720 1.351 . S
C721 C722 1.434 . S
C722 C713 1.429 . S
C722 N719 1.350 . S
C722 C721 1.434 . S
C723 C724 1.369 1_455 S
C723 C725 1.419 . S
C723 H727 0.930 . S
C724 C723 1.369 1_655 S
C724 C733 1.429 . S
C725 C723 1.419 . S
C725 C726 1.358 1_455 S
C725 H728 0.929 . S
C726 C725 1.358 1_655 S
C726 C732 1.437 . S
H727 C723 0.930 . S
H728 C725 0.929 . S
S729 N730 1.613 1_556 S
S729 N731 1.610 . S
N730 S729 1.613 1_554 S
N730 C733 1.350 1_554 S
N731 S729 1.610 . S
N731 C732 1.351 . S
C732 C726 1.437 . S
C732 N731 1.351 . S
C732 C733 1.434 . S
C733 C724 1.429 . S
C733 N730 1.350 1_556 S
C733 C732 1.434 . S
C734 C735 1.369 . S
C734 C736 1.419 . S
C734 H738 0.930 . S
C735 C734 1.369 . S
C735 C744 1.429 . S
C736 C734 1.419 . S
C736 C737 1.363 . S
C736 H739 0.929 . S
C737 C736 1.363 . S
C737 C743 1.428 . S
H738 C734 0.930 . S
H739 C736 0.929 . S
S740 N741 1.613 . S
S740 N742 1.610 . S
N741 S740 1.613 . S
N741 C744 1.350 . S
N742 S740 1.610 . S
N742 C743 1.351 . S
C743 C737 1.428 . S
C743 N742 1.351 . S
C743 C744 1.434 . S
C744 C735 1.429 . S
C744 N741 1.350 . S
C744 C743 1.434 . S
C745 C746 1.369 . S
C745 C747 1.419 . S
C745 H749 0.930 . S
C746 C745 1.369 . S
C746 C755 1.429 1_455 S
C747 C745 1.419 . S
C747 C748 1.363 . S
C747 H750 0.929 . S
C748 C747 1.363 . S
C748 C754 1.428 1_455 S
H749 C745 0.930 . S
H750 C747 0.929 . S
S751 N752 1.613 . S
S751 N753 1.610 . S
N752 S751 1.613 . S
N752 C755 1.350 . S
N753 S751 1.610 . S
N753 C754 1.351 . S
C754 C748 1.428 1_655 S
C754 N753 1.351 . S
C754 C755 1.434 . S
C755 C746 1.429 1_655 S
C755 N752 1.350 . S
C755 C754 1.434 . S
C756 C757 1.369 . S
C756 C758 1.419 . S
C756 H760 0.930 . S
C757 C756 1.369 . S
C757 C766 1.429 . S
C758 C756 1.419 . S
C758 C759 1.363 . S
C758 H761 0.929 . S
C759 C758 1.363 . S
C759 C765 1.428 . S
H760 C756 0.930 . S
H761 C758 0.929 . S
S762 N763 1.613 . S
S762 N764 1.610 . S
N763 S762 1.613 . S
N763 C766 1.350 . S
N764 S762 1.610 . S
N764 C765 1.351 . S
C765 C759 1.428 . S
C765 N764 1.351 . S
C765 C766 1.434 . S
C766 C757 1.429 . S
C766 N763 1.350 . S
C766 C765 1.434 . S
C767 C768 1.369 . S
C767 C769 1.419 . S
C767 H771 0.930 1_554 S
C768 C767 1.369 . S
C768 C777 1.429 . S
C769 C767 1.419 . S
C769 C770 1.363 . S
C769 H772 0.929 . S
C770 C769 1.363 . S
C770 C776 1.428 . S
H771 C767 0.930 1_556 S
H772 C769 0.929 . S
S773 N774 1.613 . S
S773 N775 1.610 . S
N774 S773 1.613 . S
N774 C777 1.350 . S
N775 S773 1.610 . S
N775 C776 1.351 . S
C776 C770 1.428 . S
C776 N775 1.351 . S
C776 C777 1.434 . S
C777 C768 1.429 . S
C777 N774 1.350 . S
C777 C776 1.434 . S
C778 C779 1.369 . S
C778 C780 1.419 . S
C778 H782 0.930 . S
C779 C778 1.369 . S
C779 C788 1.429 . S
C780 C778 1.419 . S
C780 C781 1.363 . S
C780 H783 0.929 . S
C781 C780 1.363 . S
C781 C787 1.428 . S
H782 C778 0.930 . S
H783 C780 0.929 . S
S784 N785 1.613 . S
S784 N786 1.610 . S
N785 S784 1.613 . S
N785 C788 1.350 . S
N786 S784 1.610 . S
N786 C787 1.351 . S
C787 C781 1.428 . S
C787 N786 1.351 . S
C787 C788 1.434 . S
C788 C779 1.429 . S
C788 N785 1.350 . S
C788 C787 1.434 . S
C789 C790 1.369 . S
C789 C791 1.419 . S
C789 H793 0.930 . S
C790 C789 1.369 . S
C790 C799 1.429 . S
C791 C789 1.419 . S
C791 C792 1.363 . S
C791 H794 0.929 . S
C792 C791 1.363 . S
C792 C798 1.428 . S
H793 C789 0.930 . S
H794 C791 0.929 . S
S795 N796 1.613 . S
S795 N797 1.610 . S
N796 S795 1.613 . S
N796 C799 1.350 . S
N797 S795 1.610 . S
N797 C798 1.351 . S
C798 C792 1.428 . S
C798 N797 1.351 . S
C798 C799 1.434 . S
C799 C790 1.429 . S
C799 N796 1.350 . S
C799 C798 1.434 . S
C800 C801 1.369 . S
C800 C802 1.419 . S
C800 H804 0.930 . S
C801 C800 1.369 . S
C801 C810 1.429 . S
C802 C800 1.419 . S
C802 C803 1.363 . S
C802 H805 0.929 . S
C803 C802 1.363 . S
C803 C809 1.428 . S
H804 C800 0.930 . S
H805 C802 0.929 . S
S806 N807 1.613 . S
S806 N808 1.610 . S
N807 S806 1.613 . S
N807 C810 1.350 . S
N808 S806 1.610 . S
N808 C809 1.351 . S
C809 C803 1.428 . S
C809 N808 1.351 . S
C809 C810 1.434 . S
C810 C801 1.429 . S
C810 N807 1.350 . S
C810 C809 1.434 . S
C811 C812 1.369 . S
C811 C813 1.419 . S
C811 H815 0.930 . S
C812 C811 1.369 . S
C812 C821 1.429 . S
C813 C811 1.419 . S
C813 C814 1.363 . S
C813 H816 0.929 . S
C814 C813 1.363 . S
C814 C820 1.428 . S
H815 C811 0.930 . S
H816 C813 0.929 . S
S817 N818 1.613 . S
S817 N819 1.610 . S
N818 S817 1.613 . S
N818 C821 1.350 . S
N819 S817 1.610 . S
N819 C820 1.351 . S
C820 C814 1.428 . S
C820 N819 1.351 . S
C820 C821 1.434 . S
C821 C812 1.429 . S
C821 N818 1.350 . S
C821 C820 1.434 . S
C822 C823 1.369 . S
C822 C824 1.419 . S
C822 H826 0.930 . S
C823 C822 1.369 . S
C823 C832 1.429 . S
C824 C822 1.419 . S
C824 C825 1.363 . S
C824 H827 0.929 . S
C825 C824 1.363 . S
C825 C831 1.428 . S
H826 C822 0.930 . S
H827 C824 0.929 . S
S828 N829 1.613 . S
S828 N830 1.610 . S
N829 S828 1.613 . S
N829 C832 1.350 . S
N830 S828 1.610 . S
N830 C831 1.351 . S
C831 C825 1.428 . S
C831 N830 1.351 . S
C831 C832 1.434 . S
C832 C823 1.429 . S
C832 N829 1.350 . S
C832 C831 1.434 . S
C833 C834 1.369 . S
C833 C835 1.419 . S
C833 H837 0.930 . S
C834 C833 1.369 . S
C834 C843 1.429 . S
C835 C833 1.419 . S
C835 C836 1.363 . S
C835 H838 0.929 . S
C836 C835 1.363 . S
C836 C842 1.428 . S
H837 C833 0.930 . S
H838 C835 0.929 . S
S839 N840 1.613 . S
S839 N841 1.610 . S
N840 S839 1.613 . S
N840 C843 1.350 . S
N841 S839 1.610 . S
N841 C842 1.351 . S
C842 C836 1.428 . S
C842 N841 1.351 . S
C842 C843 1.434 . S
C843 C834 1.429 . S
C843 N840 1.350 . S
C843 C842 1.434 . S
C844 C845 1.369 . S
C844 C846 1.419 . S
C844 H848 0.930 . S
C845 C844 1.369 . S
C845 C854 1.429 1_556 S
C846 C844 1.419 . S
C846 C847 1.363 . S
C846 H849 0.929 . S
C847 C846 1.363 . S
C847 C853 1.428 1_556 S
H848 C844 0.930 . S
H849 C846 0.929 . S
S850 N851 1.613 . S
S850 N852 1.610 . S
N851 S850 1.613 . S
N851 C854 1.350 . S
N852 S850 1.610 . S
N852 C853 1.351 . S
C853 C847 1.428 1_554 S
C853 N852 1.351 . S
C853 C854 1.434 . S
C854 C845 1.429 1_554 S
C854 N851 1.350 . S
C854 C853 1.434 . S
C855 C856 1.369 . S
C855 C857 1.419 . S
C855 H859 0.930 . S
C856 C855 1.369 . S
C856 C865 1.429 . S
C857 C855 1.419 . S
C857 C858 1.363 . S
C857 H860 0.929 . S
C858 C857 1.363 . S
C858 C864 1.428 . S
H859 C855 0.930 . S
H860 C857 0.929 . S
S861 N862 1.613 . S
S861 N863 1.610 . S
N862 S861 1.613 . S
N862 C865 1.350 . S
N863 S861 1.610 . S
N863 C864 1.351 . S
C864 C858 1.428 . S
C864 N863 1.351 . S
C864 C865 1.434 . S
C865 C856 1.429 . S
C865 N862 1.350 . S
C865 C864 1.434 . S
C866 C867 1.369 . S
C866 C868 1.419 . S
C866 H870 0.930 . S
C867 C866 1.369 . S
C867 C876 1.429 . S
C868 C866 1.419 . S
C868 C869 1.363 . S
C868 H871 0.929 . S
C869 C868 1.363 . S
C869 C875 1.428 . S
H870 C866 0.930 . S
H871 C868 0.929 . S
S872 N873 1.613 . S
S872 N874 1.610 . S
N873 S872 1.613 . S
N873 C876 1.350 . S
N874 S872 1.610 . S
N874 C875 1.351 . S
C875 C869 1.428 . S
C875 N874 1.351 . S
C875 C876 1.434 . S
C876 C867 1.429 . S
C876 N873 1.350 . S
C876 C875 1.434 . S
C877 C878 1.364 1_545 S
C877 C879 1.408 1_545 S
C877 H881 0.946 . S
C878 C877 1.364 1_565 S
C878 C887 1.429 . S
C879 C877 1.408 1_565 S
C879 C880 1.363 . S
C879 H882 0.929 . S
C880 C879 1.363 . S
C880 C886 1.428 . S
H881 C877 0.946 . S
H882 C879 0.929 . S
S883 N884 1.613 . S
S883 N885 1.610 . S
N884 S883 1.613 . S
N884 C887 1.350 1_556 S
N885 S883 1.610 . S
N885 C886 1.351 1_556 S
C886 C880 1.428 . S
C886 N885 1.351 1_554 S
C886 C887 1.434 . S
C887 C878 1.429 . S
C887 N884 1.350 1_554 S
C887 C886 1.434 . S
C363 C203 1.658 . S
C361 C66 1.700 . S
C374 C211 1.054 . S
C372 C76 1.294 . S
C383 C93 1.741 . S
C385 C231 1.701 . S
C396 C245 1.490 . S
C394 C54 1.505 . S
C407 C260 1.512 . S
C405 C126 1.512 . S
C418 C274 1.803 . S
C416 C150 1.806 . S
C427 C136 1.314 . S
C429 C288 1.322 . S
C440 C294 1.669 . S
C438 C117 1.740 . S
C449 C141 1.363 . S
C451 C308 1.332 . S
C462 C329 1.379 . S
C460 C112 1.404 . S
C471 C124 1.481 . S
C473 C309 1.259 . S
C484 C330 1.356 . S
C482 C148 1.351 . S
C493 C88 1.343 . S
C495 C337 1.161 . S
C504 C52 1.567 . S
C506 C343 1.541 . S
C515 C64 1.328 . S
C517 C336 1.282 . S
C526 C78 1.256 . S
C528 C344 1.266 . S
C537 C45 1.672 . S
C539 C238 1.644 . S
C548 C177 1.806 . S
C550 C239 1.605 . S
C561 C196 1.398 . S
C559 C189 1.435 1_565 S
C572 C217 1.566 . S
C570 C102 1.573 . S
C581 C57 1.673 . S
C583 C252 1.664 . S
C594 C302 1.488 . S
C592 C138 1.487 . S
C605 C253 1.517 . S
C603 C114 1.694 . S
C616 C281 1.388 . S
C614 C153 1.730 . S
C627 C287 1.655 . S
C625 C174 1.703 . S
C636 C184 1.292 . S
C638 C295 1.061 . S
C647 C105 1.741 . S
C649 C259 1.703 . S
C660 C273 1.485 . S
C658 C162 1.505 . S
C669 C42 1.513 . S
C671 C232 1.512 . S
C682 C246 1.802 . S
C680 C6 1.806 . S
C693 C204 1.321 . S
C691 C16 1.316 . S
C704 C210 1.667 . S
C702 C33 1.740 1_455 S
C713 C21 1.362 . S
C715 C322 1.332 . S
C724 C28 1.403 1_556 S
C726 C315 1.377 . S
C735 C40 1.479 . S
C737 C323 1.252 . S
C746 C4 1.352 . S
C748 C316 1.358 . S
C759 C351 1.161 . S
C757 C100 1.343 . S
C770 C357 1.539 . S
C768 C160 1.566 . S
C781 C350 1.285 . S
C779 C172 1.328 . S
C790 C186 1.259 . S
C792 C358 1.266 . S
C801 C129 1.673 . S
C803 C266 1.644 . S
C814 C267 1.604 . S
C812 C69 1.806 . S
C825 C280 1.400 . S
C823 C81 1.434 . S
C836 C301 1.565 . S
C834 C90 1.572 . S
C845 C165 1.675 . S
C847 C224 1.664 . S
C858 C218 1.487 . S
C856 C18 1.487 . S
C867 C30 1.694 . S
C869 C225 1.516 . S
C880 C197 1.385 . S
C878 C9 1.732 1_565 S
