# Generated by pormake.
# Topology zzz, (3,6)-cn, num edge types: 1
# Building blocks:
#     Node 0, Type 0, BuildingBlock: MIDCAF_clean_linker_0, # of connection points: 3
#     Node 1, Type 0, BuildingBlock: MIDCAF_clean_linker_0, # of connection points: 3
#     Node 2, Type 0, BuildingBlock: MIDCAF_clean_linker_0, # of connection points: 3
#     Node 3, Type 0, BuildingBlock: MIDCAF_clean_linker_0, # of connection points: 3
#     Node 4, Type 0, BuildingBlock: MIDCAF_clean_linker_0, # of connection points: 3
#     Node 5, Type 0, BuildingBlock: MIDCAF_clean_linker_0, # of connection points: 3
#     Node 6, Type 0, BuildingBlock: MIDCAF_clean_linker_0, # of connection points: 3
#     Node 7, Type 0, BuildingBlock: MIDCAF_clean_linker_0, # of connection points: 3
#     Node 8, Type 1, BuildingBlock: LEVNOQ01_clean_sbu_1, # of connection points: 6
#     Node 9, Type 1, BuildingBlock: LEVNOQ01_clean_sbu_1, # of connection points: 6
#     Node 10, Type 1, BuildingBlock: LEVNOQ01_clean_sbu_1, # of connection points: 6
#     Node 11, Type 1, BuildingBlock: LEVNOQ01_clean_sbu_1, # of connection points: 6
#     Edge 12, Type (0, 1), BuildingBlock: MIFKUJ_clean_linker_0, # of connection points: 2
#     Edge 13, Type (0, 1), BuildingBlock: MIFKUJ_clean_linker_0, # of connection points: 2
#     Edge 14, Type (0, 1), BuildingBlock: MIFKUJ_clean_linker_0, # of connection points: 2
#     Edge 15, Type (0, 1), BuildingBlock: MIFKUJ_clean_linker_0, # of connection points: 2
#     Edge 16, Type (0, 1), BuildingBlock: MIFKUJ_clean_linker_0, # of connection points: 2
#     Edge 17, Type (0, 1), BuildingBlock: MIFKUJ_clean_linker_0, # of connection points: 2
#     Edge 18, Type (0, 1), BuildingBlock: MIFKUJ_clean_linker_0, # of connection points: 2
#     Edge 19, Type (0, 1), BuildingBlock: MIFKUJ_clean_linker_0, # of connection points: 2
#     Edge 20, Type (0, 1), BuildingBlock: MIFKUJ_clean_linker_0, # of connection points: 2
#     Edge 21, Type (0, 1), BuildingBlock: MIFKUJ_clean_linker_0, # of connection points: 2
#     Edge 22, Type (0, 1), BuildingBlock: MIFKUJ_clean_linker_0, # of connection points: 2
#     Edge 23, Type (0, 1), BuildingBlock: MIFKUJ_clean_linker_0, # of connection points: 2
#     Edge 24, Type (0, 1), BuildingBlock: MIFKUJ_clean_linker_0, # of connection points: 2
#     Edge 25, Type (0, 1), BuildingBlock: MIFKUJ_clean_linker_0, # of connection points: 2
#     Edge 26, Type (0, 1), BuildingBlock: MIFKUJ_clean_linker_0, # of connection points: 2
#     Edge 27, Type (0, 1), BuildingBlock: MIFKUJ_clean_linker_0, # of connection points: 2
#     Edge 28, Type (0, 1), BuildingBlock: MIFKUJ_clean_linker_0, # of connection points: 2
#     Edge 29, Type (0, 1), BuildingBlock: MIFKUJ_clean_linker_0, # of connection points: 2
#     Edge 30, Type (0, 1), BuildingBlock: MIFKUJ_clean_linker_0, # of connection points: 2
#     Edge 31, Type (0, 1), BuildingBlock: MIFKUJ_clean_linker_0, # of connection points: 2
#     Edge 32, Type (0, 1), BuildingBlock: MIFKUJ_clean_linker_0, # of connection points: 2
#     Edge 33, Type (0, 1), BuildingBlock: MIFKUJ_clean_linker_0, # of connection points: 2
#     Edge 34, Type (0, 1), BuildingBlock: MIFKUJ_clean_linker_0, # of connection points: 2
#     Edge 35, Type (0, 1), BuildingBlock: MIFKUJ_clean_linker_0, # of connection points: 2
# Relax obj value: 0.307
# Max RMSD: 0.219
# Mean RMSD: 0.208
data_MOF--net-zzz--node1-LEVNOQ01_clean_sbu_1--node2-MIDCAF_clean_linker_0--edge1-MIFKUJ_clean_linker_0
_symmetry_space_group_name_H-M    P1
_symmetry_Int_Tables_number       1
_symmetry_cell_setting            triclinic
loop_
_symmetry_equiv_pos_as_xyz
'x, y, z'
_cell_length_a     67.785498
_cell_length_b     72.382027
_cell_length_c     26.054676
_cell_angle_alpha  90.045152
_cell_angle_beta   90.036086
_cell_angle_gamma 88.613068
loop_
_atom_site_label
_atom_site_type_symbol
_atom_site_fract_x
_atom_site_fract_y
_atom_site_fract_z
_atom_type_partial_charge
C0 C 0.82324 0.59234 0.2776 0.0
C1 C 0.81541 0.58525 0.32309 0.0
C2 C 0.7949 0.58215 0.32503 0.0
C3 C 0.78269 0.58597 0.28215 0.0
H4 H 0.72626 0.57129 0.16877 0.0
H5 H 0.69412 0.56424 0.13043 0.0
H6 H 0.69366 0.61639 0.05071 0.0
H7 H 0.72583 0.62326 0.08779 0.0
H8 H 0.77747 0.62751 0.01902 0.0
H9 H 0.80286 0.63256 0.95239 0.0
H10 H 0.83713 0.58647 0.01297 0.0
H11 H 0.81251 0.5817 0.07852 0.0
H12 H 0.81834 0.60161 0.20172 0.0
H13 H 0.83892 0.59447 0.27352 0.0
H14 H 0.78829 0.57675 0.35954 0.0
H15 H 0.76709 0.58324 0.28443 0.0
N16 N 0.75908 0.59567 0.18521 0.0
N17 N 0.76099 0.60304 0.09678 0.0
N18 N 0.78966 0.59955 0.14532 0.0
C19 C 0.74996 0.5994 0.13908 0.0
C20 C 0.78086 0.60292 0.09983 0.0
C21 C 0.77924 0.59619 0.18839 0.0
C22 C 0.72846 0.59785 0.13144 0.0
C23 C 0.71887 0.58157 0.14491 0.0
C24 C 0.70061 0.57748 0.1227 0.0
C25 C 0.69154 0.58982 0.08776 0.0
C26 C 0.70029 0.60679 0.07794 0.0
C27 C 0.71865 0.61071 0.09928 0.0
C28 C 0.79338 0.6045 0.05426 0.0
C29 C 0.79034 0.61839 0.01715 0.0
C30 C 0.80478 0.62131 0.97948 0.0
C31 C 0.82208 0.61025 0.97905 0.0
C32 C 0.82413 0.5955 0.01364 0.0
C33 C 0.81004 0.59274 0.05099 0.0
C34 C 0.79082 0.5929 0.23656 0.0
C35 C 0.81124 0.59622 0.23559 0.0
C36 C 0.98485 0.80375 0.29768 0.0
C37 C 0.99394 0.79889 0.34426 0.0
C38 C 0.00492 0.78211 0.34701 0.0
C39 C 0.00706 0.7707 0.30347 0.0
H40 H 0.99499 0.71119 0.21011 0.0
H41 H 0.99293 0.67954 0.1775 0.0
H42 H 0.03436 0.69256 0.05741 0.0
H43 H 0.03681 0.72356 0.09102 0.0
H44 H 0.02051 0.76283 0.02271 0.0
H45 H 0.01738 0.78385 0.94902 0.0
H46 H 0.97472 0.81723 0.03308 0.0
H47 H 0.97795 0.79671 0.10601 0.0
H48 H 0.98001 0.79715 0.21941 0.0
H49 H 0.97667 0.81671 0.2936 0.0
H50 H 0.01208 0.77798 0.38248 0.0
H51 H 0.01603 0.75815 0.30606 0.0
N52 N 0.00819 0.74783 0.20559 0.0
N53 N 0.00956 0.74986 0.11526 0.0
N54 N 1.00002 0.77563 0.16343 0.0
C55 C 0.01189 0.73979 0.1589 0.0
C56 C 0.00344 0.7677 0.11733 0.0
C57 C 0.00244 0.76605 0.20771 0.0
C58 C 0.01592 0.71981 0.15278 0.0
C59 C 0.00434 0.70691 0.17835 0.0
C60 C 0.00293 0.6889 0.15905 0.0
C61 C 0.01311 0.68356 0.11404 0.0
C62 C 0.02634 0.69599 0.0922 0.0
C63 C 0.02774 0.71386 0.11143 0.0
C64 C 0.99977 0.77841 0.07027 0.0
C65 C 0.01014 0.77444 0.02473 0.0
C66 C 0.00827 0.78631 0.9826 0.0
C67 C 0.99566 0.80196 0.98536 0.0
C68 C 0.98422 0.80504 0.02952 0.0
C69 C 0.98635 0.79346 0.07165 0.0
C70 C 0.99844 0.77606 0.25651 0.0
C71 C 0.98699 0.79252 0.2547 0.0
C72 C 0.68632 0.89509 0.29789 0.0
C73 C 0.69204 0.9088 0.3327 0.0
C74 C 0.71045 0.91712 0.32492 0.0
C75 C 0.72225 0.91246 0.28211 0.0
H76 H 0.78775 0.90021 0.18938 0.0
H77 H 0.82023 0.90728 0.15213 0.0
H78 H 0.79163 0.92396 0.01097 0.0
H79 H 0.75978 0.91714 0.0475 0.0
H80 H 0.73218 0.88287 0.00777 0.0
H81 H 0.70894 0.88274 0.93646 0.0
H82 H 0.66072 0.87817 0.0438 0.0
H83 H 0.68375 0.87781 0.11451 0.0
H84 H 0.69266 0.88003 0.2296 0.0
H85 H 0.67223 0.88849 0.30141 0.0
H86 H 0.7156 0.92752 0.35129 0.0
H87 H 0.73587 0.91965 0.27609 0.0
N88 N 0.74452 0.90241 0.18559 0.0
N89 N 0.74098 0.8926 0.09992 0.0
N90 N 0.71542 0.88837 0.15781 0.0
C91 C 0.75204 0.90045 0.13705 0.0
C92 C 0.72274 0.88645 0.10982 0.0
C93 C 0.72602 0.89616 0.19607 0.0
C94 C 0.77127 0.90788 0.12114 0.0
C95 C 0.78849 0.90579 0.15089 0.0
C96 C 0.80702 0.9097 0.12947 0.0
C97 C 0.80845 0.91566 0.07811 0.0
C98 C 0.79107 0.91887 0.05003 0.0
C99 C 0.77279 0.91506 0.0712 0.0
C100 C 0.70976 0.88097 0.06701 0.0
C101 C 0.71667 0.88121 0.01608 0.0
C102 C 0.70337 0.88112 0.97511 0.0
C103 C 0.68297 0.88083 0.9844 0.0
C104 C 0.67633 0.8783 0.03501 0.0
C105 C 0.6896 0.87832 0.07587 0.0
C106 C 0.71591 0.89933 0.24628 0.0
C107 C 0.69809 0.89034 0.25586 0.0
C108 C 0.5092 0.69471 0.04284 0.0
C109 C 0.50104 0.70162 0.99708 0.0
C110 C 0.49436 0.72 0.99423 0.0
C111 C 0.49459 0.73108 0.03809 0.0
H112 H 0.45893 0.77582 0.1175 0.0
H113 H 0.46069 0.80577 0.0752 0.0
H114 H 0.50841 0.82064 0.17538 0.0
H115 H 0.50689 0.79029 0.21741 0.0
H116 H 0.49966 0.74159 0.3233 0.0
H117 H 0.50177 0.71928 0.39485 0.0
H118 H 0.47855 0.67709 0.29616 0.0
H119 H 0.47652 0.69895 0.2258 0.0
H120 H 0.51443 0.6996 0.12242 0.0
H121 H 0.51418 0.6804 0.04553 0.0
H122 H 0.48781 0.72537 0.95918 0.0
H123 H 0.48834 0.74497 0.03574 0.0
N124 N 0.49278 0.75199 0.13265 0.0
N125 N 0.48667 0.75189 0.2217 0.0
N126 N 0.49593 0.72449 0.17829 0.0
C127 C 0.48766 0.76115 0.17617 0.0
C128 C 0.49066 0.7333 0.22239 0.0
C129 C 0.49719 0.73374 0.13346 0.0
C130 C 0.48273 0.78088 0.17076 0.0
C131 C 0.46903 0.78589 0.13247 0.0
C132 C 0.47015 0.80291 0.10793 0.0
C133 C 0.48483 0.81526 0.12184 0.0
C134 C 0.49694 0.81125 0.16436 0.0
C135 C 0.49593 0.79404 0.18874 0.0
C136 C 0.48833 0.72187 0.26885 0.0
C137 C 0.4946 0.72766 0.31757 0.0
C138 C 0.49584 0.71493 0.3583 0.0
C139 C 0.49081 0.69638 0.35042 0.0
C140 C 0.48301 0.69117 0.30288 0.0
C141 C 0.48182 0.70372 0.26265 0.0
C142 C 0.50104 0.72365 0.08531 0.0
C143 C 0.50914 0.70562 0.08678 0.0
C144 C 0.18147 0.4156 0.19278 0.0
C145 C 0.18672 0.41134 0.14187 0.0
C146 C 0.20547 0.40304 0.13269 0.0
C147 C 0.21813 0.39831 0.17378 0.0
H148 H 0.27546 0.41835 0.28803 0.0
H149 H 0.30669 0.42731 0.32791 0.0
H150 H 0.30712 0.37743 0.41855 0.0
H151 H 0.2763 0.36851 0.379 0.0
H152 H 0.23271 0.37916 0.45266 0.0
H153 H 0.21069 0.38213 0.52623 0.0
H154 H 0.16053 0.37501 0.4266 0.0
H155 H 0.18236 0.37214 0.35312 0.0
H156 H 0.18901 0.41371 0.27221 0.0
H157 H 0.16754 0.42253 0.20149 0.0
H158 H 0.21004 0.39955 0.09401 0.0
H159 H 0.23206 0.39122 0.16595 0.0
N160 N 0.2432 0.39582 0.27494 0.0
N161 N 0.24115 0.38218 0.35674 0.0
N162 N 0.21263 0.3867 0.30804 0.0
C163 C 0.25222 0.38958 0.31891 0.0
C164 C 0.22142 0.38063 0.35171 0.0
C165 C 0.22325 0.39411 0.26935 0.0
C166 C 0.27329 0.39283 0.33073 0.0
C167 C 0.28261 0.40903 0.3151 0.0
C168 C 0.30043 0.41419 0.33817 0.0
C169 C 0.30912 0.40325 0.37721 0.0
C170 C 0.30059 0.38635 0.38945 0.0
C171 C 0.28296 0.38119 0.36647 0.0
C172 C 0.20921 0.37606 0.39676 0.0
C173 C 0.21705 0.37751 0.44661 0.0
C174 C 0.20447 0.37917 0.48889 0.0
C175 C 0.18394 0.37914 0.48196 0.0
C176 C 0.17631 0.37506 0.43318 0.0
C177 C 0.18884 0.37361 0.39088 0.0
C178 C 0.21218 0.40168 0.22464 0.0
C179 C 0.19392 0.41071 0.23343 0.0
C180 C 0.99956 0.18944 0.15375 0.0
C181 C 0.00707 0.1952 0.10659 0.0
C182 C 0.0145 0.21311 0.10205 0.0
C183 C 0.01548 0.22469 0.14539 0.0
H184 H 0.0196 0.28546 0.23043 0.0
H185 H 0.01661 0.31828 0.25707 0.0
H186 H 0.99803 0.30117 0.4077 0.0
H187 H 1.0009 0.26925 0.38225 0.0
H188 H 0.02576 0.23684 0.43005 0.0
H189 H 0.01809 0.21924 0.50751 0.0
H190 H 0.00788 0.17112 0.41445 0.0
H191 H 0.01574 0.18824 0.33744 0.0
H192 H 0.99518 0.19566 0.23287 0.0
H193 H 0.99363 0.17575 0.15792 0.0
H194 H 0.02037 0.21776 0.06575 0.0
H195 H 0.02221 0.23805 0.14194 0.0
N196 N 0.01199 0.24701 0.24659 0.0
N197 N 0.01888 0.244 0.33475 0.0
N198 N 0.01735 0.2177 0.28409 0.0
C199 C 0.01469 0.25491 0.29374 0.0
C200 C 0.02027 0.22549 0.33051 0.0
C201 C 0.0134 0.22818 0.24194 0.0
C202 C 0.01079 0.27476 0.30434 0.0
C203 C 0.01461 0.28885 0.26884 0.0
C204 C 0.01298 0.30751 0.28405 0.0
C205 C 0.00703 0.31211 0.33434 0.0
C206 C 0.0024 0.29801 0.36859 0.0
C207 C 0.00425 0.27966 0.3539 0.0
C208 C 0.02087 0.21405 0.37738 0.0
C209 C 0.02236 0.22237 0.4262 0.0
C210 C 0.01796 0.2124 0.47052 0.0
C211 C 0.01195 0.19413 0.46625 0.0
C212 C 0.01221 0.18536 0.41821 0.0
C213 C 0.01679 0.19517 0.37416 0.0
C214 C 0.00915 0.21833 0.19347 0.0
C215 C 1.00052 0.20087 0.19659 0.0
C216 C 0.32346 0.08187 0.18176 0.0
C217 C 0.3184 0.08692 0.13128 0.0
C218 C 0.30017 0.09626 0.12278 0.0
C219 C 0.28788 0.10128 0.16427 0.0
H220 H 0.23302 0.07956 0.28109 0.0
H221 H 0.20297 0.06883 0.32232 0.0
H222 H 0.20067 0.11815 0.41584 0.0
H223 H 0.23075 0.12861 0.37551 0.0
H224 H 0.27596 0.12161 0.44377 0.0
H225 H 0.2988 0.11989 0.51598 0.0
H226 H 0.34784 0.12396 0.41095 0.0
H227 H 0.32522 0.12608 0.3395 0.0
H228 H 0.31617 0.0835 0.2614 0.0
H229 H 0.33699 0.07415 0.18979 0.0
H230 H 0.29579 0.10036 0.08439 0.0
H231 H 0.27438 0.10917 0.15714 0.0
N232 N 0.26352 0.10287 0.26728 0.0
N233 N 0.26639 0.11661 0.34881 0.0
N234 N 0.29429 0.11254 0.29746 0.0
C235 C 0.255 0.10896 0.31193 0.0
C236 C 0.28601 0.11851 0.34192 0.0
C237 C 0.28328 0.10494 0.25985 0.0
C238 C 0.23437 0.10481 0.32549 0.0
C239 C 0.22574 0.08834 0.30932 0.0
C240 C 0.20856 0.08217 0.33316 0.0
C241 C 0.1997 0.09242 0.37334 0.0
C242 C 0.20744 0.10965 0.38614 0.0
C243 C 0.22458 0.11574 0.36263 0.0
C244 C 0.29882 0.12335 0.38567 0.0
C245 C 0.29159 0.12282 0.43627 0.0
C246 C 0.30467 0.12178 0.47774 0.0
C247 C 0.32515 0.12133 0.46926 0.0
C248 C 0.33218 0.12429 0.4192 0.0
C249 C 0.31915 0.12531 0.37788 0.0
C250 C 0.29375 0.09714 0.21474 0.0
C251 C 0.31141 0.08705 0.22285 0.0
C252 C 0.54095 0.30998 0.39628 0.0
C253 C 0.53532 0.30248 0.44353 0.0
C254 C 0.53764 0.2835 0.45214 0.0
C255 C 0.54312 0.27185 0.41158 0.0
H256 H 0.50373 0.2353 0.35507 0.0
H257 H 0.49367 0.20653 0.39258 0.0
H258 H 0.5265 0.1762 0.27626 0.0
H259 H 0.5372 0.20563 0.23941 0.0
H260 H 0.50954 0.26013 0.15279 0.0
H261 H 0.50049 0.28232 0.08505 0.0
H262 H 0.55022 0.3154 0.12621 0.0
H263 H 0.55924 0.29345 0.19328 0.0
H264 H 0.54915 0.30456 0.31871 0.0
H265 H 0.53959 0.32472 0.38948 0.0
H266 H 0.53361 0.27756 0.48872 0.0
H267 H 0.54317 0.25706 0.418 0.0
N268 N 0.53761 0.24991 0.32274 0.0
N269 N 0.53055 0.24765 0.23467 0.0
N270 N 0.54426 0.27458 0.26887 0.0
C271 C 0.53092 0.24002 0.28251 0.0
C272 C 0.53762 0.26499 0.2277 0.0
C273 C 0.54431 0.26716 0.31653 0.0
C274 C 0.52125 0.22259 0.29451 0.0
C275 C 0.50838 0.22248 0.33664 0.0
C276 C 0.50252 0.20592 0.35801 0.0
C277 C 0.50932 0.18896 0.33768 0.0
C278 C 0.5212 0.18905 0.29321 0.0
C279 C 0.52711 0.20581 0.27164 0.0
C280 C 0.53496 0.27516 0.17879 0.0
C281 C 0.51887 0.27183 0.14624 0.0
C282 C 0.51362 0.28458 0.10771 0.0
C283 C 0.52437 0.30081 0.10137 0.0
C284 C 0.54136 0.30327 0.13115 0.0
C285 C 0.54661 0.2906 0.16931 0.0
C286 C 0.5462 0.27915 0.36211 0.0
C287 C 0.54651 0.29841 0.35588 0.0
O288 O 0.03964 0.97619 0.79718 0.0
Mg289 Mg 0.03983 0.9817 0.718 0.0
O290 O 0.00831 0.9834 0.7886 0.0
Mg291 Mg 1.00091 -0.00021 0.71512 0.0
O292 O 0.03369 0.00782 0.69037 0.0
O293 O 0.06417 -0.00525 0.69626 0.0
O294 O 0.99253 0.01686 0.64347 0.0
O295 O 1.00062 0.02671 0.76446 0.0
Mg296 Mg 0.95955 0.01656 0.70767 0.0
O297 O 0.96891 -0.00759 0.74144 0.0
O298 O 0.96088 0.01717 0.62708 0.0
O299 O 0.97108 0.03945 0.74938 0.0
O300 O 0.93721 0.00185 0.73881 0.0
C301 C 0.01317 0.96091 0.64903 0.0
C302 C 0.0224 0.97663 0.81531 0.0
C303 C 0.05274 0.00834 0.68239 0.0
C304 C 0.97817 0.02117 0.6139 0.0
C305 C 0.98809 0.04005 0.77 0.0
C306 C 0.95049 0.9899 0.75324 0.0
O307 O 0.03073 0.96134 0.66562 0.0
O308 O 1.00034 0.97305 0.66352 0.0
O309 O 0.45034 -0.00561 0.75182 0.0
Mg310 Mg 0.46537 0.97377 0.70549 0.0
O311 O 0.47645 0.01048 0.77523 0.0
Mg312 Mg 0.50162 -0.00101 0.72205 0.0
O313 O 0.49241 0.969 0.73727 0.0
O314 O 0.4701 0.94701 0.73014 0.0
O315 O 0.52697 0.98803 0.66756 0.0
O316 O 0.52233 -0.00596 0.79219 0.0
Mg317 Mg 0.53861 0.02622 0.73369 0.0
O318 O 0.51049 0.02878 0.70908 0.0
O319 O 0.55161 0.00754 0.67876 0.0
O320 O 0.54023 0.0182 0.81115 0.0
O321 O 0.53006 0.05281 0.71182 0.0
C322 C 0.47072 -0.00434 0.61918 0.0
C323 C 0.45794 0.00746 0.77739 0.0
C324 C 0.48717 0.95215 0.74573 0.0
C325 C 0.54443 -0.00663 0.65717 0.0
C326 C 0.53456 0.00208 0.8215 0.0
C327 C 0.51353 0.04588 0.69812 0.0
O328 O 0.46695 0.97887 0.62656 0.0
O329 O 0.48116 0.00426 0.65169 0.0
O330 O 0.52695 0.45662 0.74898 0.0
Mg331 Mg 0.5385 0.4802 0.71081 0.0
O332 O 0.50162 0.47264 0.78082 0.0
Mg333 Mg 0.50239 0.49775 0.72613 0.0
O334 O 0.53556 0.50476 0.75012 0.0
O335 O 0.56432 0.48921 0.73867 0.0
O336 O 0.50286 0.52306 0.67173 0.0
O337 O 0.4972 0.51695 0.7938 0.0
Mg338 Mg 0.46393 0.51589 0.73993 0.0
O339 O 0.46952 0.49089 0.70454 0.0
O340 O 0.47568 0.53823 0.69674 0.0
O341 O 0.46677 0.51752 0.82049 0.0
O342 O 0.4392 0.50353 0.7139 0.0
C343 C 0.51991 0.47528 0.62326 0.0
C344 C 0.51199 0.45776 0.77817 0.0
C345 C 0.55468 0.50338 0.75664 0.0
C346 C 0.4915 0.53737 0.67056 0.0
C347 C 0.48444 0.52211 0.82669 0.0
C348 C 0.45052 0.49025 0.69729 0.0
O349 O 0.53705 0.48113 0.63028 0.0
O350 O 0.50698 0.47857 0.65732 0.0
O351 O 0.96566 0.47994 0.82281 0.0
Mg352 Mg 0.96845 0.47507 0.74317 0.0
O353 O 0.98152 0.50347 0.79438 0.0
Mg354 Mg 0.00237 0.49723 0.72705 0.0
O355 O 0.99445 0.46606 0.70984 0.0
O356 O 0.96856 0.44809 0.7252 0.0
O357 O 0.02345 0.49224 0.6575 0.0
O358 O 0.02652 0.48504 0.78364 0.0
Mg359 Mg 0.03625 0.52022 0.71584 0.0
O360 O 0.00965 0.52805 0.74697 0.0
O361 O 0.03761 0.51796 0.63611 0.0
O362 O 0.05277 0.50055 0.76034 0.0
O363 O 0.0355 0.54662 0.74072 0.0
C364 C 0.95968 0.50527 0.66531 0.0
C365 C 0.97013 0.49663 0.82751 0.0
C366 C 0.986 0.45007 0.70647 0.0
C367 C 0.03394 0.50135 0.62626 0.0
C368 C 0.04508 0.48772 0.7862 0.0
C369 C 0.01742 0.54414 0.75413 0.0
O370 O 0.95225 0.49242 0.69166 0.0
O371 O 0.97797 0.509 0.67016 0.0
H372 H 0.19517 0.09398 0.47754 0.0
H373 H 0.16893 0.08111 0.52945 0.0
H374 H 0.1418 0.05955 0.39282 0.0
H375 H 0.1677 0.07303 0.34026 0.0
H376 H 0.11492 0.07489 0.45186 0.0
H377 H 0.16756 0.03153 0.47714 0.0
H378 H 0.20131 0.02063 0.49827 0.0
H379 H 0.19445 0.04113 0.65206 0.0
H380 H 0.16073 0.05246 0.63161 0.0
H381 H 0.04882 0.01486 0.58074 0.0
H382 H 0.07285 0.03038 0.527 0.0
H383 H 0.10273 0.04943 0.66284 0.0
H384 H 0.07934 0.0328 0.71626 0.0
H385 H 0.1286 0.035 0.60297 0.0
H386 H 0.0748 0.07925 0.57062 0.0
H387 H 0.04127 0.0883 0.54432 0.0
H388 H 0.0507 0.06305 0.39668 0.0
H389 H 0.08444 0.05361 0.42272 0.0
C390 C 0.1835 0.0867 0.45835 0.0
C391 C 0.18349 0.08464 0.40458 0.0
C392 C 0.16864 0.07911 0.48825 0.0
C393 C 0.15352 0.06912 0.4652 0.0
C394 C 0.15337 0.06712 0.41153 0.0
C395 C 0.16824 0.07475 0.38152 0.0
C396 C 0.13751 0.06127 0.49694 0.0
C397 C 0.11793 0.06598 0.48455 0.0
C398 C 0.14139 0.04984 0.54005 0.0
C399 C 0.16167 0.04303 0.55265 0.0
C400 C 0.17329 0.03387 0.51534 0.0
C401 C 0.19242 0.02759 0.52721 0.0
C402 C 0.20004 0.03023 0.57643 0.0
C403 C 0.18853 0.03913 0.61392 0.0
C404 C 0.1694 0.04548 0.60221 0.0
C405 C 0.05999 0.02307 0.59899 0.0
C406 C 0.06193 0.02309 0.65259 0.0
C407 C 0.07387 0.03189 0.56824 0.0
C408 C 0.08967 0.04131 0.59059 0.0
C409 C 0.09078 0.04227 0.64443 0.0
C410 C 0.0772 0.03307 0.67505 0.0
C411 C 0.10587 0.04883 0.55831 0.0
C412 C 0.12557 0.04401 0.57052 0.0
C413 C 0.10215 0.05987 0.51434 0.0
C414 C 0.082 0.06563 0.49874 0.0
C415 C 0.06967 0.07556 0.53266 0.0
C416 C 0.0506 0.08077 0.51765 0.0
C417 C 0.04374 0.07626 0.46865 0.0
C418 C 0.05601 0.06653 0.43457 0.0
C419 C 0.07511 0.06127 0.44942 0.0
H420 H 0.02898 0.08025 0.45672 0.0
H421 H 0.21485 0.02534 0.58556 0.0
H422 H 0.53463 0.15936 0.35398 0.0
H423 H 0.52979 0.13317 0.41178 0.0
H424 H 0.47127 0.15387 0.44746 0.0
H425 H 0.47546 0.17953 0.38793 0.0
H426 H 0.50466 0.14467 0.53512 0.0
H427 H 0.46772 0.12111 0.38331 0.0
H428 H 0.46805 0.1133 0.29106 0.0
H429 H 0.51824 0.07692 0.31443 0.0
H430 H 0.51831 0.08469 0.40666 0.0
H431 H 0.48695 0.0746 0.71058 0.0
H432 H 0.47864 0.09746 0.64398 0.0
H433 H 0.51035 0.06384 0.53263 0.0
H434 H 0.51652 0.04044 0.59758 0.0
H435 H 0.48798 0.08115 0.48169 0.0
H436 H 0.53068 0.10103 0.61535 0.0
H437 H 0.54165 0.10905 0.70267 0.0
H438 H 0.49639 0.15146 0.71182 0.0
H439 H 0.48492 0.14346 0.62486 0.0
C440 C 0.52051 0.15808 0.37288 0.0
C441 C 0.50547 0.17164 0.36639 0.0
C442 C 0.51788 0.14324 0.40636 0.0
C443 C 0.50027 0.14181 0.43409 0.0
C444 C 0.48503 0.15491 0.42663 0.0
C445 C 0.48749 0.16956 0.39264 0.0
C446 C 0.49785 0.12686 0.4719 0.0
C447 C 0.50072 0.13079 0.52394 0.0
C448 C 0.49376 0.1087 0.45658 0.0
C449 C 0.49303 0.10349 0.4017 0.0
C450 C 0.47883 0.11147 0.36869 0.0
C451 C 0.47895 0.10706 0.31644 0.0
C452 C 0.49316 0.09463 0.29689 0.0
C453 C 0.50722 0.08652 0.3296 0.0
C454 C 0.50716 0.09089 0.38186 0.0
C455 C 0.49106 0.07175 0.67113 0.0
C456 C 0.50213 0.05577 0.65871 0.0
C457 C 0.48676 0.08499 0.63326 0.0
C458 C 0.49463 0.0829 0.58345 0.0
C459 C 0.50414 0.06606 0.57048 0.0
C460 C 0.50764 0.05256 0.60767 0.0
C461 C 0.49491 0.09862 0.54633 0.0
C462 C 0.49168 0.09496 0.49393 0.0
C463 C 0.5001 0.1168 0.5612 0.0
C464 C 0.50673 0.12143 0.61391 0.0
C465 C 0.52294 0.11194 0.63618 0.0
C466 C 0.52926 0.11649 0.68559 0.0
C467 C 0.51967 0.1307 0.71286 0.0
C468 C 0.50375 0.1404 0.69074 0.0
C469 C 0.49731 0.13584 0.64143 0.0
H470 H 0.52461 0.13424 0.75105 0.0
H471 H 0.49327 0.09128 0.2564 0.0
H472 H 0.34371 0.41876 0.34491 0.0
H473 H 0.37062 0.43025 0.39887 0.0
H474 H 0.33863 0.41489 0.53469 0.0
H475 H 0.31194 0.4034 0.48135 0.0
H476 H 0.35214 0.45065 0.53834 0.0
H477 H 0.37721 0.3896 0.50119 0.0
H478 H 0.38707 0.36373 0.44442 0.0
H479 H 0.43103 0.39724 0.37452 0.0
H480 H 0.42122 0.42342 0.43045 0.0
H481 H 0.41988 0.46979 0.72753 0.0
H482 H 0.39896 0.45092 0.67329 0.0
H483 H 0.43798 0.45953 0.54514 0.0
H484 H 0.45965 0.47759 0.60078 0.0
H485 H 0.42149 0.42704 0.53457 0.0
H486 H 0.39569 0.48845 0.56998 0.0
H487 H 0.38521 0.51449 0.62556 0.0
H488 H 0.34182 0.48062 0.69649 0.0
H489 H 0.35221 0.45431 0.64174 0.0
C490 C 0.3425 0.41781 0.38626 0.0
C491 C 0.32577 0.41006 0.40883 0.0
C492 C 0.35791 0.42426 0.41703 0.0
C493 C 0.35671 0.42331 0.47086 0.0
C494 C 0.33995 0.41569 0.49331 0.0
C495 C 0.32474 0.40904 0.46271 0.0
C496 C 0.37242 0.43093 0.50421 0.0
C497 C 0.36725 0.44535 0.53786 0.0
C498 C 0.39224 0.4243 0.50282 0.0
C499 C 0.39834 0.40853 0.46962 0.0
C500 C 0.38887 0.39151 0.47343 0.0
C501 C 0.39447 0.37678 0.44147 0.0
C502 C 0.40963 0.37886 0.40578 0.0
C503 C 0.41927 0.39566 0.40214 0.0
C504 C 0.41371 0.41044 0.434 0.0
C505 C 0.42432 0.46713 0.68821 0.0
C506 C 0.44129 0.47518 0.66822 0.0
C507 C 0.41222 0.45654 0.65697 0.0
C508 C 0.41636 0.45443 0.60439 0.0
C509 C 0.43426 0.46116 0.58534 0.0
C510 C 0.44671 0.4714 0.61716 0.0
C511 C 0.40117 0.44677 0.56906 0.0
C512 C 0.4064 0.43239 0.53496 0.0
C513 C 0.38131 0.45349 0.56971 0.0
C514 C 0.37482 0.46939 0.60203 0.0
C515 C 0.38396 0.48655 0.59756 0.0
C516 C 0.37804 0.50135 0.62892 0.0
C517 C 0.36288 0.4992 0.6646 0.0
C518 C 0.35357 0.48226 0.66887 0.0
C519 C 0.35945 0.46741 0.63765 0.0
H520 H 0.35834 0.51067 0.68888 0.0
H521 H 0.41394 0.36744 0.38104 0.0
H522 H 0.97596 0.33113 0.37513 0.0
H523 H 0.97768 0.35766 0.43267 0.0
H524 H 0.03986 0.36185 0.40068 0.0
H525 H 0.03815 0.33498 0.34318 0.0
H526 H 0.03156 0.35912 0.50485 0.0
H527 H 0.00743 0.39612 0.36227 0.0
H528 H 0.98467 0.40314 0.29057 0.0
H529 H 0.93576 0.40548 0.39519 0.0
H530 H 0.95814 0.3982 0.46735 0.0
H531 H 0.0219 0.44809 0.65647 0.0
H532 H 0.03139 0.42567 0.58878 0.0
H533 H 0.97854 0.39563 0.61721 0.0
H534 H 0.96909 0.41734 0.6844 0.0
H535 H 0.98774 0.41498 0.50875 0.0
H536 H 0.00575 0.36974 0.63903 0.0
H537 H 0.02382 0.35891 0.7159 0.0
H538 H 0.07895 0.36899 0.64101 0.0
H539 H 0.06111 0.3801 0.56379 0.0
C540 C 0.9898 0.3382 0.37879 0.0
C541 C 0.00688 0.33119 0.35444 0.0
C542 C 0.99082 0.35331 0.41184 0.0
C543 C 0.00891 0.36177 0.42094 0.0
C544 C 0.02576 0.35553 0.39408 0.0
C545 C 0.02473 0.34038 0.36076 0.0
C546 C 0.01037 0.37577 0.46232 0.0
C547 C 0.02241 0.37163 0.505 0.0
C548 C 0.99787 0.39171 0.46346 0.0
C549 C 0.98448 0.39657 0.42019 0.0
C550 C 0.99181 0.39807 0.36994 0.0
C551 C 0.97897 0.40209 0.32922 0.0
C552 C 0.95879 0.40475 0.33831 0.0
C553 C 0.9514 0.40345 0.38818 0.0
C554 C 0.96416 0.39941 0.42902 0.0
C555 C 0.01253 0.43652 0.64876 0.0
C556 C 0.99448 0.43485 0.6747 0.0
C557 C 0.018 0.42377 0.61041 0.0
C558 C 0.00551 0.40927 0.59785 0.0
C559 C 0.98832 0.40679 0.62635 0.0
C560 C 0.98296 0.4193 0.66477 0.0
C561 C 0.0087 0.39816 0.55094 0.0
C562 C 0.99744 0.40283 0.50754 0.0
C563 C 0.02133 0.38241 0.5498 0.0
C564 C 0.03213 0.37605 0.59612 0.0
C565 C 0.02172 0.36989 0.63926 0.0
C566 C 0.03191 0.36362 0.68278 0.0
C567 C 0.05253 0.36334 0.68344 0.0
C568 C 0.06298 0.36928 0.64049 0.0
C569 C 0.05284 0.37556 0.59684 0.0
H570 H 0.0604 0.35847 0.71715 0.0
H571 H 0.94887 0.40783 0.30672 0.0
H572 H 0.84045 0.93479 0.11222 0.0
H573 H 0.86988 0.94262 0.06251 0.0
H574 H 0.84901 0.91029 0.93528 0.0
H575 H 0.81988 0.90225 0.98492 0.0
H576 H 0.88852 0.90723 0.94126 0.0
H577 H 0.83981 0.95532 0.93642 0.0
H578 H 0.81571 0.97807 0.97123 0.0
H579 H 0.86227 0.00604 0.04882 0.0
H580 H 0.88665 0.98323 0.01508 0.0
H581 H 0.92899 0.95972 0.73145 0.0
H582 H 0.91014 0.94176 0.7935 0.0
H583 H 0.93732 0.9712 0.91781 0.0
H584 H 0.95617 0.98908 0.85569 0.0
H585 H 0.89634 0.97459 0.91598 0.0
H586 H 0.94519 0.92441 0.91268 0.0
H587 H 0.96689 0.9014 0.87015 0.0
H588 H 0.91701 0.87812 0.79453 0.0
H589 H 0.89488 0.901 0.83711 0.0
C590 C 0.8424 0.92904 0.07412 0.0
C591 C 0.82774 0.91816 0.05216 0.0
C592 C 0.85915 0.93358 0.04562 0.0
C593 C 0.8615 0.92729 0.99477 0.0
C594 C 0.84753 0.91538 0.97424 0.0
C595 C 0.83081 0.91091 0.00255 0.0
C596 C 0.87742 0.93445 0.96136 0.0
C597 C 0.8902 0.92196 0.9357 0.0
C598 C 0.87957 0.95364 0.95349 0.0
C599 C 0.86502 0.96743 0.9738 0.0
C600 C 0.84489 0.96622 0.96129 0.0
C601 C 0.83118 0.97914 0.98076 0.0
C602 C 0.83744 -0.00654 0.01237 0.0
C603 C 0.85744 -0.00509 0.02444 0.0
C604 C 0.87121 0.98199 0.00516 0.0
C605 C 0.93159 0.96168 0.7721 0.0
C606 C 0.9444 0.97537 0.78898 0.0
C607 C 0.92077 0.95149 0.80755 0.0
C608 C 0.92234 0.95509 0.8604 0.0
C609 C 0.93597 0.96809 0.87729 0.0
C610 C 0.94689 0.97816 0.84186 0.0
C611 C 0.9078 0.94743 0.89699 0.0
C612 C 0.89497 0.95987 0.92251 0.0
C613 C 0.90528 0.92822 0.90342 0.0
C614 C 0.91844 0.91447 0.87775 0.0
C615 C 0.93887 0.91445 0.88676 0.0
C616 C 0.95125 0.90139 0.86275 0.0
C617 C 0.94341 0.88833 0.82941 0.0
C618 C 0.92309 0.88824 0.82032 0.0
C619 C 0.9106 0.9012 0.84457 0.0
H620 H 0.95308 0.87828 0.81077 0.0
H621 H 0.82681 0.00346 0.02738 0.0
H622 H 0.49953 0.81125 0.02644 0.0
H623 H 0.50681 0.83551 0.96421 0.0
H624 H 0.48816 0.87701 0.07404 0.0
H625 H 0.48116 0.85261 0.13693 0.0
H626 H 0.47012 0.87997 0.97584 0.0
H627 H 0.53491 0.87226 0.04895 0.0
H628 H 0.5648 0.85469 0.07545 0.0
H629 H 0.5754 0.83846 0.91917 0.0
H630 H 0.54535 0.85564 0.89179 0.0
H631 H 0.49385 0.95884 0.84519 0.0
H632 H 0.50143 0.93565 0.91101 0.0
H633 H 0.50943 0.89418 0.79355 0.0
H634 H 0.50195 0.91753 0.72747 0.0
H635 H 0.5351 0.89121 0.89503 0.0
H636 H 0.4694 0.89325 0.82333 0.0
H637 H 0.43927 0.9093 0.79189 0.0
H638 H 0.42993 0.93349 0.94072 0.0
H639 H 0.46033 0.91788 0.97269 0.0
C640 C 0.49717 0.82559 0.0373 0.0
C641 C 0.48977 0.83021 0.08612 0.0
C642 C 0.50143 0.83939 0.00196 0.0
C643 C 0.49818 0.85802 0.01475 0.0
C644 C 0.49088 0.86268 0.06371 0.0
C645 C 0.48689 0.84883 0.09947 0.0
C646 C 0.50107 0.87251 0.97562 0.0
C647 C 0.48439 0.88262 0.95891 0.0
C648 C 0.51959 0.8754 0.95202 0.0
C649 C 0.53773 0.8651 0.96839 0.0
C650 C 0.54349 0.86479 0.02027 0.0
C651 C 0.56049 0.85493 0.03545 0.0
C652 C 0.57197 0.84543 -0.00096 0.0
C653 C 0.56648 0.8458 0.94735 0.0
C654 C 0.54946 0.85561 0.93197 0.0
C655 C 0.49847 0.94505 0.83336 0.0
C656 C 0.49797 0.94002 0.78149 0.0
C657 C 0.5026 0.93178 0.87092 0.0
C658 C 0.50603 0.91326 0.85699 0.0
C659 C 0.50709 0.90847 0.80489 0.0
C660 C 0.50282 0.92177 0.76728 0.0
C661 C 0.5042 0.89872 0.89631 0.0
C662 C 0.52092 0.88857 0.91254 0.0
C663 C 0.48567 0.89541 0.91893 0.0
C664 C 0.4673 0.90467 0.90013 0.0
C665 C 0.46107 0.90219 0.84915 0.0
C666 C 0.44392 0.91117 0.83126 0.0
C667 C 0.43274 0.92247 0.86423 0.0
C668 C 0.43865 0.92477 0.91519 0.0
C669 C 0.45585 0.91588 0.9332 0.0
H670 H 0.41945 0.9294 0.85035 0.0
H671 H 0.58513 0.83781 0.01087 0.0
H672 H 0.65273 0.60149 0.09111 0.0
H673 H 0.62589 0.59207 0.0334 0.0
H674 H 0.66688 0.55624 0.95181 0.0
H675 H 0.69342 0.56536 0.0098 0.0
H676 H 0.64264 0.57766 0.88648 0.0
H677 H 0.63672 0.53785 0.0355 0.0
H678 H 0.63273 0.53246 0.12833 0.0
H679 H 0.57752 0.56284 0.1263 0.0
H680 H 0.58133 0.5686 0.03347 0.0
H681 H 0.59422 0.50842 0.75568 0.0
H682 H 0.61349 0.52831 0.81019 0.0
H683 H 0.56011 0.54989 0.88047 0.0
H684 H 0.54063 0.52901 0.82703 0.0
H685 H 0.58619 0.54225 0.95199 0.0
H686 H 0.58952 0.57725 0.79821 0.0
H687 H 0.59414 0.58304 0.7059 0.0
H688 H 0.65409 0.5629 0.71576 0.0
H689 H 0.64982 0.55681 0.80814 0.0
C690 C 0.65584 0.59149 0.06105 0.0
C691 C 0.67495 0.58386 0.05521 0.0
C692 C 0.64059 0.58618 0.02807 0.0
C693 C 0.64438 0.57341 0.9883 0.0
C694 C 0.6636 0.5661 0.98212 0.0
C695 C 0.67869 0.57117 0.01546 0.0
C696 C 0.62839 0.56711 0.95369 0.0
C697 C 0.63029 0.5699 0.90067 0.0
C698 C 0.61191 0.55756 0.97234 0.0
C699 C 0.6094 0.5538 0.02777 0.0
C700 C 0.62379 0.54346 0.05495 0.0
C701 C 0.62155 0.54033 0.10752 0.0
C702 C 0.6049 0.54734 0.13323 0.0
C703 C 0.59042 0.55744 0.10635 0.0
C704 C 0.5926 0.56063 0.05375 0.0
C705 C 0.58646 0.51752 0.78227 0.0
C706 C 0.56578 0.51726 0.78647 0.0
C707 C 0.59756 0.52909 0.81323 0.0
C708 C 0.58834 0.541 0.84893 0.0
C709 C 0.56761 0.54101 0.85288 0.0
C710 C 0.55644 0.52925 0.82189 0.0
C711 C 0.60071 0.55223 0.88416 0.0
C712 C 0.59819 0.55039 0.93747 0.0
C713 C 0.61661 0.56276 0.8657 0.0
C714 C 0.61931 0.56649 0.81014 0.0
C715 C 0.60366 0.57396 0.78068 0.0
C716 C 0.60622 0.57731 0.72831 0.0
C717 C 0.62437 0.57331 0.70492 0.0
C718 C 0.64003 0.566 0.73392 0.0
C719 C 0.63757 0.56264 0.78633 0.0
H720 H 0.62629 0.5759 0.66434 0.0
H721 H 0.60321 0.54492 0.17396 0.0
H722 H 0.03783 0.6603 0.05888 0.0
H723 H 0.02817 0.63665 0.99744 0.0
H724 H 0.9674 0.64411 0.0428 0.0
H725 H 0.97667 0.6684 0.10253 0.0
H726 H 0.98854 0.60314 0.02471 0.0
H727 H 0.97355 0.66476 0.95195 0.0
H728 H 0.98323 0.69626 0.92891 0.0
H729 H 0.03035 0.67413 0.83563 0.0
H730 H 0.02116 0.64249 0.85875 0.0
H731 H 0.98236 0.54317 0.80906 0.0
H732 H 0.96954 0.56722 0.86764 0.0
H733 H 0.01695 0.60259 0.82245 0.0
H734 H 0.02879 0.57951 0.76279 0.0
H735 H 0.98945 0.62346 0.84306 0.0
H736 H 0.01707 0.56871 0.92839 0.0
H737 H 0.01769 0.53581 0.95315 0.0
H738 H 0.96095 0.54289 0.02464 0.0
H739 H 0.95981 0.57571 -0.00091 0.0
C740 C 0.02241 0.65685 0.0562 0.0
C741 C 0.00803 0.66647 0.08544 0.0
C742 C 0.01695 0.64325 0.02124 0.0
C743 C 0.99707 0.63879 0.01537 0.0
C744 C 0.98282 0.64734 0.04689 0.0
C745 C 0.98822 0.66115 0.08139 0.0
C746 C 0.99128 0.62621 0.97353 0.0
C747 C 0.98834 0.60756 0.98492 0.0
C748 C 0.99149 0.63203 0.92178 0.0
C749 C 0.99662 0.65118 0.90719 0.0
C750 C 0.986 0.66657 0.92669 0.0
C751 C 0.99142 0.68448 0.91361 0.0
C752 C 0.00739 0.6872 0.88082 0.0
C753 C 0.01796 0.67202 0.86097 0.0
C754 C 0.01263 0.65409 0.87401 0.0
C755 C 0.98963 0.55631 0.81074 0.0
C756 C 0.0069 0.55924 0.78217 0.0
C757 C 0.98236 0.57004 0.8445 0.0
C758 C 0.99252 0.58667 0.85081 0.0
C759 C 0.00874 0.58999 0.81892 0.0
C760 C 0.0157 0.57658 0.7849 0.0
C761 C 0.98831 0.59994 0.8936 0.0
C762 C 0.98905 0.61894 0.88274 0.0
C763 C 0.9875 0.59425 0.94569 0.0
C764 C 0.98815 0.57454 0.96088 0.0
C765 C 0.00464 0.56318 0.94891 0.0
C766 C 0.00508 0.54455 0.96304 0.0
C767 C 0.98931 0.53723 0.99014 0.0
C768 C 0.97309 0.54854 0.00331 0.0
C769 C 0.97248 0.56713 0.98877 0.0
H770 H 0.98968 0.52281 0.00114 0.0
H771 H 0.01157 0.70108 0.87079 0.0
H772 H 0.03108 0.18289 0.55352 0.0
H773 H 0.02123 0.15642 0.60547 0.0
H774 H 0.96536 0.15586 0.52616 0.0
H775 H 0.9748 0.18259 0.47624 0.0
H776 H 0.96499 0.13498 0.61824 0.0
H777 H 0.00803 0.13675 0.44984 0.0
H778 H 0.03851 0.1473 0.40796 0.0
H779 H 0.07204 0.13261 0.54241 0.0
H780 H 0.04175 0.12206 0.58484 0.0
H781 H 0.94963 0.0413 0.56143 0.0
H782 H 0.95233 0.07425 0.54307 0.0
H783 H 0.01465 0.07042 0.57738 0.0
H784 H 0.0125 0.03762 0.58968 0.0
H785 H 0.01004 0.09496 0.5156 0.0
H786 H 0.97193 0.08003 0.66901 0.0
H787 H 0.94288 0.06716 0.71222 0.0
H788 H 0.90465 0.10464 0.6293 0.0
H789 H 0.9333 0.11727 0.58418 0.0
C790 C 0.01627 0.17777 0.54965 0.0
C791 C 0.00386 0.18418 0.51016 0.0
C792 C 0.01062 0.1627 0.57928 0.0
C793 C 0.99293 0.15379 0.56789 0.0
C794 C 0.97917 0.16239 0.53507 0.0
C795 C 0.98466 0.17753 0.50611 0.0
C796 C 0.99169 0.1336 0.57361 0.0
C797 C 0.97523 0.12597 0.59751 0.0
C798 C 0.00477 0.12199 0.54552 0.0
C799 C 0.02273 0.12878 0.5204 0.0
C800 C 0.02192 0.13586 0.47034 0.0
C801 C 0.03914 0.14182 0.44658 0.0
C802 C 0.05718 0.14068 0.47256 0.0
C803 C 0.05806 0.13355 0.52237 0.0
C804 C 0.0409 0.1276 0.54627 0.0
C805 C 0.96409 0.04735 0.56228 0.0
C806 C 0.98073 0.03705 0.57936 0.0
C807 C 0.96551 0.06629 0.55305 0.0
C808 C 0.98343 0.07506 0.56199 0.0
C809 C 1.00051 0.06417 0.57117 0.0
C810 C 0.99926 0.04525 0.57818 0.0
C811 C 0.98477 0.09546 0.56488 0.0
C812 C 1.00067 0.10341 0.53991 0.0
C813 C 0.97187 0.10688 0.59479 0.0
C814 C 0.95475 0.0995 0.62291 0.0
C815 C 0.95732 0.08548 0.65985 0.0
C816 C 0.94093 0.07821 0.68464 0.0
C817 C 0.92198 0.08513 0.67368 0.0
C818 C 0.91934 0.09929 0.63777 0.0
C819 C 0.93563 0.10647 0.61245 0.0
H820 H 0.90934 0.0795 0.69299 0.0
H821 H 0.07048 0.14527 0.45407 0.0
H822 H 0.31908 0.09278 0.53537 0.0
H823 H 0.34481 0.07331 0.57378 0.0
H824 H 0.38861 0.1122 0.52794 0.0
H825 H 0.36282 0.13219 0.49071 0.0
H826 H 0.39012 0.07749 0.47658 0.0
H827 H 0.38596 0.10186 0.64749 0.0
H828 H 0.37126 0.11078 0.73062 0.0
H829 H 0.35507 0.05462 0.75733 0.0
H830 H 0.36928 0.0454 0.67382 0.0
H831 H 0.47675 0.02926 0.57582 0.0
H832 H 0.45061 0.05176 0.55299 0.0
H833 H 0.40694 0.01012 0.57439 0.0
H834 H 0.43288 0.98749 0.59563 0.0
H835 H 0.40529 0.04556 0.64075 0.0
H836 H 0.40348 0.02179 0.4695 0.0
H837 H 0.4189 0.01042 0.38943 0.0
H838 H 0.44533 0.06313 0.3666 0.0
H839 H 0.43012 0.07475 0.44687 0.0
C840 C 0.334 0.09779 0.53588 0.0
C841 C 0.33898 0.11383 0.50869 0.0
C842 C 0.34874 0.08654 0.55779 0.0
C843 C 0.36858 0.09119 0.55275 0.0
C844 C 0.37333 0.10835 0.53174 0.0
C845 C 0.35859 0.11971 0.51031 0.0
C846 C 0.38407 0.07667 0.55798 0.0
C847 C 0.39367 0.07078 0.51277 0.0
C848 C 0.38791 0.0673 0.60469 0.0
C849 C 0.37847 0.07299 0.65387 0.0
C850 C 0.37895 0.09145 0.67058 0.0
C851 C 0.37077 0.09655 0.71793 0.0
C852 C 0.36217 0.08329 0.74915 0.0
C853 C 0.36168 0.0649 0.73303 0.0
C854 C 0.36978 0.05974 0.68566 0.0
C855 C 0.46167 0.02476 0.57351 0.0
C856 C 0.45686 0.00673 0.58779 0.0
C857 C 0.44678 0.03759 0.56097 0.0
C858 C 0.42697 0.03253 0.56319 0.0
C859 C 0.42221 0.01419 0.57303 0.0
C860 C 0.4371 0.00125 0.58443 0.0
C861 C 0.41128 0.04682 0.55975 0.0
C862 C 0.40164 0.05246 0.6049 0.0
C863 C 0.40701 0.05576 0.51309 0.0
C864 C 0.41578 0.04909 0.46422 0.0
C865 C 0.41264 0.03092 0.44747 0.0
C866 C 0.42132 0.02444 0.40205 0.0
C867 C 0.43311 0.03604 0.37297 0.0
C868 C 0.43617 0.05417 0.38915 0.0
C869 C 0.42749 0.06073 0.43453 0.0
H870 H 0.43986 0.03098 0.33788 0.0
H871 H 0.35594 0.08726 0.7859 0.0
H872 H 0.50086 0.32045 0.42636 0.0
H873 H 0.48774 0.34683 0.47471 0.0
H874 H 0.53218 0.33765 0.59099 0.0
H875 H 0.54554 0.3111 0.54214 0.0
H876 H 0.48599 0.36115 0.60705 0.0
H877 H 0.55495 0.36066 0.5415 0.0
H878 H 0.58096 0.3506 0.48071 0.0
H879 H 0.54461 0.36839 0.35415 0.0
H880 H 0.51821 0.37818 0.41443 0.0
H881 H 0.54159 0.44517 0.64381 0.0
H882 H 0.5326 0.41348 0.62577 0.0
H883 H 0.48431 0.43316 0.53094 0.0
H884 H 0.4923 0.46531 0.55286 0.0
H885 H 0.52575 0.40447 0.50439 0.0
H886 H 0.46362 0.41655 0.59004 0.0
H887 H 0.44222 0.42757 0.66035 0.0
H888 H 0.46948 0.38829 0.76281 0.0
H889 H 0.49202 0.37774 0.69396 0.0
C890 C 0.5073 0.32363 0.46332 0.0
C891 C 0.52451 0.31432 0.48012 0.0
C892 C 0.49959 0.33845 0.49127 0.0
C893 C 0.50916 0.34417 0.5359 0.0
C894 C 0.5246 0.33325 0.55664 0.0
C895 C 0.53236 0.3183 0.52853 0.0
C896 C 0.50794 0.36391 0.54809 0.0
C897 C 0.49474 0.37073 0.58526 0.0
C898 C 0.51914 0.37621 0.51868 0.0
C899 C 0.53452 0.36973 0.4822 0.0
C900 C 0.55241 0.36213 0.50064 0.0
C901 C 0.56723 0.35654 0.46634 0.0
C902 C 0.5644 0.35877 0.41357 0.0
C903 C 0.54673 0.36658 0.39502 0.0
C904 C 0.53181 0.37208 0.4292 0.0
C905 C 0.52929 0.44276 0.61825 0.0
C906 C 0.51794 0.45752 0.5982 0.0
C907 C 0.52384 0.42473 0.60931 0.0
C908 C 0.50735 0.42117 0.57894 0.0
C909 C 0.49659 0.43582 0.55628 0.0
C910 C 0.50152 0.45402 0.56724 0.0
C911 C 0.50415 0.40201 0.56434 0.0
C912 C 0.51666 0.39509 0.52604 0.0
C913 C 0.49297 0.38985 0.59467 0.0
C914 C 0.47989 0.39663 0.63682 0.0
C915 C 0.46555 0.41064 0.62786 0.0
C916 C 0.45316 0.41679 0.66752 0.0
C917 C 0.45465 0.40882 0.71619 0.0
C918 C 0.46853 0.39463 0.72526 0.0
C919 C 0.4812 0.38862 0.68597 0.0
H920 H 0.44494 0.41352 0.74672 0.0
H921 H 0.57593 0.35451 0.38705 0.0
H922 H 0.1892 0.41163 0.53074 0.0
H923 H 0.16318 0.43153 0.56524 0.0
H924 H 0.1222 0.38697 0.55338 0.0
H925 H 0.14829 0.36709 0.51662 0.0
H926 H 0.11004 0.41388 0.49784 0.0
H927 H 0.13286 0.41045 0.67088 0.0
H928 H 0.15613 0.41131 0.74356 0.0
H929 H 0.16879 0.46779 0.70921 0.0
H930 H 0.1458 0.46723 0.63589 0.0
H931 H 0.02846 0.46741 0.58537 0.0
H932 H 0.05521 0.44569 0.56419 0.0
H933 H 0.0967 0.48987 0.56779 0.0
H934 H 0.07019 0.51152 0.59206 0.0
H935 H 0.10798 0.46288 0.63087 0.0
H936 H 0.08654 0.46475 0.45343 0.0
H937 H 0.06018 0.46461 0.38808 0.0
H938 H 0.04315 0.41074 0.43797 0.0
H939 H 0.06941 0.4106 0.50364 0.0
C940 C 0.17492 0.40574 0.5378 0.0
C941 C 0.17067 0.38789 0.52036 0.0
C942 C 0.15997 0.41719 0.55766 0.0
C943 C 0.14064 0.41083 0.5614 0.0
C944 C 0.13699 0.39222 0.55025 0.0
C945 C 0.15188 0.38084 0.52951 0.0
C946 C 0.12397 0.42433 0.56631 0.0
C947 C 0.10946 0.42435 0.52767 0.0
C948 C 0.12351 0.43845 0.60398 0.0
C949 C 0.1377 0.43873 0.6475 0.0
C950 C 0.14076 0.423 0.67844 0.0
C951 C 0.15386 0.42345 0.71987 0.0
C952 C 0.16396 0.43958 0.73092 0.0
C953 C 0.16097 0.4553 0.70058 0.0
C954 C 0.14788 0.45493 0.65911 0.0
C955 C 0.04319 0.47255 0.58029 0.0
C956 C 0.04735 0.49094 0.59201 0.0
C957 C 0.05845 0.46015 0.56798 0.0
C958 C 0.07796 0.4661 0.5652 0.0
C959 C 0.08176 0.48496 0.57049 0.0
C960 C 0.06651 0.49736 0.58355 0.0
C961 C 0.09438 0.45234 0.5624 0.0
C962 C 0.10876 0.45234 0.60123 0.0
C963 C 0.09474 0.43817 0.52519 0.0
C964 C 0.07996 0.43764 0.48324 0.0
C965 C 0.07726 0.45283 0.45016 0.0
C966 C 0.06232 0.45282 0.41316 0.0
C967 C 0.05002 0.43767 0.40882 0.0
C968 C 0.05275 0.42243 0.4412 0.0
C969 C 0.06772 0.42234 0.47813 0.0
H970 H 0.03837 0.43774 0.38041 0.0
H971 H 0.17408 0.4399 0.76306 0.0
H972 H 0.02923 0.81826 0.95653 0.0
H973 H 0.03118 0.85048 0.92995 0.0
H974 H 0.96814 0.85321 0.90819 0.0
H975 H 0.96597 0.82092 0.93587 0.0
H976 H 0.00564 0.87436 0.8361 0.0
H977 H 0.96678 0.86816 -0.00124 0.0
H978 H 0.96259 0.85291 0.08262 0.0
H979 H 0.02137 0.86745 0.12581 0.0
H980 H 0.02602 0.8824 0.04166 0.0
H981 H 0.98613 0.96715 0.84878 0.0
H982 H 0.97928 0.93835 0.89216 0.0
H983 H 0.04114 0.93052 0.9261 0.0
H984 H 0.04826 0.95925 0.88142 0.0
H985 H 1.00215 0.9122 0.99547 0.0
H986 H 0.04464 0.91159 0.83918 0.0
H987 H 0.05481 0.92214 0.75341 0.0
H988 H 0.99512 0.91815 0.69994 0.0
H989 H 0.98458 0.90809 0.78563 0.0
C990 C 0.0159 0.82541 0.9436 0.0
C991 C 0.99741 0.81731 0.94889 0.0
C992 C 0.01703 0.84383 0.92905 0.0
C993 C 0.99972 0.8541 0.91892 0.0
C994 C 0.98154 0.84538 0.9169 0.0
C995 C 0.98036 0.82698 0.93216 0.0
C996 C 1.00056 0.87427 0.91745 0.0
C997 C 0.00457 0.88267 0.8707 0.0
C998 C 0.99976 0.88486 0.96312 0.0
C999 C 0.99681 0.87616 0.01383 0.0
C1000 C 0.97887 0.86791 0.02595 0.0
C1001 C 0.9764 0.85936 0.07355 0.0
C1002 C 0.99173 0.85916 0.10947 0.0
C1003 C 0.00953 0.86756 0.09791 0.0
C1004 C 0.01209 0.87607 0.05029 0.0
C1005 C 0.99817 0.95988 0.86778 0.0
C1006 C 0.0178 0.96504 0.85997 0.0
C1007 C 0.99419 0.94342 0.89279 0.0
C1008 C 0.00979 0.93227 0.9111 0.0
C1009 C 0.02898 0.93904 0.91177 0.0
C1010 C 0.03302 0.9554 0.88599 0.0
C1011 C 0.00702 0.91228 0.91385 0.0
C1012 C 0.00284 0.90392 0.96077 0.0
C1013 C 0.0081 0.90154 0.86857 0.0
C1014 C 0.01381 0.90943 0.81878 0.0
C1015 C 0.03364 0.91345 0.80937 0.0
C1016 C 0.03947 0.9193 0.76082 0.0
C1017 C 0.02562 0.92093 0.72137 0.0
C1018 C 0.0058 0.91719 0.73065 0.0
C1019 C 0.99987 0.91143 0.77925 0.0
H1020 H 0.03045 0.9246 0.68343 0.0
H1021 H 0.98978 0.85255 0.14632 0.0
H1022 H 0.68755 0.9089 0.91614 0.0
H1023 H 0.66084 0.92722 0.87821 0.0
H1024 H 0.61893 0.88712 0.92792 0.0
H1025 H 0.64577 0.86822 0.96472 0.0
H1026 H 0.60771 0.90865 0.83595 0.0
H1027 H 0.6327 0.91672 0.01196 0.0
H1028 H 0.65972 0.9223 0.07308 0.0
H1029 H 0.67185 0.97356 0.99782 0.0
H1030 H 0.64521 0.96804 0.9355 0.0
H1031 H 0.52614 0.96861 0.86293 0.0
H1032 H 0.55065 0.94522 0.88994 0.0
H1033 H 0.59589 0.98611 0.88235 0.0
H1034 H 0.57145 0.00934 0.8568 0.0
H1035 H 0.60526 0.96315 0.95195 0.0
H1036 H 0.58326 0.9587 0.77986 0.0
H1037 H 0.56005 0.95525 0.70821 0.0
H1038 H 0.54675 0.90059 0.75931 0.0
H1039 H 0.56914 0.90407 0.83316 0.0
C1040 C 0.67285 0.90335 0.9166 0.0
C1041 C 0.66868 0.88735 0.94487 0.0
C1042 C 0.65756 0.91397 0.8951 0.0
C1043 C 0.63796 0.90877 0.90195 0.0
C1044 C 0.63401 0.89144 0.92299 0.0
C1045 C 0.64934 0.88072 0.94427 0.0
C1046 C 0.6219 0.92279 0.89785 0.0
C1047 C 0.60694 0.92048 0.86155 0.0
C1048 C 0.62139 0.93844 0.93049 0.0
C1049 C 0.63708 0.94188 0.96882 0.0
C1050 C 0.64121 0.92911 0.00826 0.0
C1051 C 0.65647 0.93226 0.0431 0.0
C1052 C 0.66751 0.94826 0.0393 0.0
C1053 C 0.66331 0.96116 0.00069 0.0
C1054 C 0.64815 0.95802 0.96558 0.0
C1055 C 0.54117 0.97263 0.86865 0.0
C1056 C 0.54691 0.99057 0.85615 0.0
C1057 C 0.55521 0.95929 0.88369 0.0
C1058 C 0.57522 0.96376 0.88601 0.0
C1059 C 0.58057 0.98225 0.88001 0.0
C1060 C 0.56649 -0.00441 0.86561 0.0
C1061 C 0.59082 0.94916 0.88989 0.0
C1062 C 0.60577 0.95131 0.92638 0.0
C1063 C 0.59164 0.93375 0.8561 0.0
C1064 C 0.57769 0.93177 0.81257 0.0
C1065 C 0.57514 0.94606 0.77641 0.0
C1066 C 0.56211 0.9441 0.73534 0.0
C1067 C 0.55187 0.92773 0.72917 0.0
C1068 C 0.55458 0.91332 0.76431 0.0
C1069 C 0.56735 0.91532 0.806 0.0
H1070 H 0.54187 0.92621 0.69711 0.0
H1071 H 0.6793 0.95068 0.06634 0.0
H1072 H 0.46732 0.68354 0.99299 0.0
H1073 H 0.46277 0.65387 0.95053 0.0
H1074 H 0.51824 0.65961 0.87183 0.0
H1075 H 0.52326 0.68912 0.9164 0.0
H1076 H 0.47287 0.63696 0.83182 0.0
H1077 H 0.53561 0.63876 0.934 0.0
H1078 H 0.55459 0.6502 0.0078 0.0
H1079 H 0.50948 0.63222 0.11072 0.0
H1080 H 0.48997 0.62118 0.03718 0.0
H1081 H 0.51261 0.54655 0.80399 0.0
H1082 H 0.51276 0.57867 0.82859 0.0
H1083 H 0.46503 0.5699 0.93438 0.0
H1084 H 0.46419 0.5372 0.90848 0.0
H1085 H 0.50474 0.59438 0.95824 0.0
H1086 H 0.44831 0.58348 0.85112 0.0
H1087 H 0.43058 0.57186 0.7759 0.0
H1088 H 0.46275 0.60798 0.67806 0.0
H1089 H 0.48228 0.61843 0.75197 0.0
C1090 C 0.47805 0.67885 0.96473 0.0
C1091 C 0.49563 0.68832 0.95769 0.0
C1092 C 0.47544 0.66198 0.94056 0.0
C1093 C 0.49031 0.65464 0.90888 0.0
C1094 C 0.50672 0.66521 0.89654 0.0
C1095 C 0.50955 0.68198 0.92169 0.0
C1096 C 0.49074 0.63469 0.89975 0.0
C1097 C 0.48008 0.62754 0.85864 0.0
C1098 C 0.49968 0.62267 0.93611 0.0
C1099 C 0.51116 0.62958 0.98015 0.0
C1100 C 0.52959 0.63757 0.97231 0.0
C1101 C 0.54047 0.64392 0.01406 0.0
C1102 C 0.5332 0.64203 0.06391 0.0
C1103 C 0.51503 0.63379 0.07207 0.0
C1104 C 0.50403 0.62755 0.03037 0.0
C1105 C 0.50261 0.55105 0.83411 0.0
C1106 C 0.48835 0.53926 0.85449 0.0
C1107 C 0.50254 0.56956 0.84732 0.0
C1108 C 0.48851 0.57651 0.88177 0.0
C1109 C 0.47567 0.56457 0.90677 0.0
C1110 C 0.47534 0.54597 0.89245 0.0
C1111 C 0.48716 0.59647 0.8896 0.0
C1112 C 0.4976 0.60367 0.9309 0.0
C1113 C 0.47831 0.6084 0.85255 0.0
C1114 C 0.46726 0.60136 0.80737 0.0
C1115 C 0.4523 0.58839 0.81345 0.0
C1116 C 0.44191 0.58199 0.77089 0.0
C1117 C 0.4458 0.58894 0.72208 0.0
C1118 C 0.46009 0.60231 0.71576 0.0
C1119 C 0.47099 0.60832 0.75794 0.0
H1120 H 0.43758 0.58414 0.68924 0.0
H1121 H 0.54168 0.64689 0.09622 0.0
H1122 H 0.85805 0.62054 0.00847 0.0
H1123 H 0.88726 0.60705 0.97058 0.0
H1124 H 0.85441 0.59481 0.83277 0.0
H1125 H 0.82426 0.60617 0.87486 0.0
H1126 H 0.86477 0.5654 0.86603 0.0
H1127 H 0.90724 0.61736 0.83987 0.0
H1128 H 0.92356 0.64665 0.86005 0.0
H1129 H 0.9465 0.62307 -0.00031 0.0
H1130 H 0.93043 0.59378 0.98024 0.0
H1131 H 0.94233 0.51143 0.76887 0.0
H1132 H 0.91882 0.53596 0.78932 0.0
H1133 H 0.93912 0.53571 0.94637 0.0
H1134 H 0.96394 0.51122 0.92465 0.0
H1135 H 0.9362 0.5709 0.90126 0.0
H1136 H 0.89578 0.51719 0.91471 0.0
H1137 H 0.88285 0.48778 0.8827 0.0
H1138 H 0.85711 0.51587 0.75297 0.0
H1139 H 0.86998 0.54536 0.78413 0.0
C1140 C 0.8573 0.6159 0.96895 0.0
C1141 C 0.83894 0.61371 0.9452 0.0
C1142 C 0.87424 0.60821 0.94675 0.0
C1143 C 0.87319 0.59929 0.89894 0.0
C1144 C 0.85553 0.60104 0.87046 0.0
C1145 C 0.83829 0.60784 0.89403 0.0
C1146 C 0.88784 0.58427 0.88647 0.0
C1147 C 0.88045 0.56696 0.87223 0.0
C1148 C 0.90831 0.58566 0.89664 0.0
C1149 C 0.91765 0.60342 0.90863 0.0
C1150 C 0.91573 0.61849 0.87494 0.0
C1151 C 0.925 0.63507 0.88615 0.0
C1152 C 0.9361 0.63673 0.93108 0.0
C1153 C 0.93804 0.62179 0.96475 0.0
C1154 C 0.92896 0.60517 0.95352 0.0
C1155 C 0.94166 0.5164 0.80793 0.0
C1156 C 0.95469 0.50943 0.84539 0.0
C1157 C 0.9282 0.53039 0.81958 0.0
C1158 C 0.9271 0.53741 0.86945 0.0
C1159 C 0.93987 0.53032 0.90765 0.0
C1160 C 0.95378 0.51632 0.89557 0.0
C1161 C 0.913 0.5527 0.87992 0.0
C1162 C 0.9205 0.56978 0.89422 0.0
C1163 C 0.89274 0.55123 0.86833 0.0
C1164 C 0.88408 0.53352 0.85139 0.0
C1165 C 0.88743 0.5171 0.87927 0.0
C1166 C 0.88008 0.50039 0.86131 0.0
C1167 C 0.86923 0.49993 0.81573 0.0
C1168 C 0.86555 0.51621 0.78823 0.0
C1169 C 0.87284 0.53293 0.80607 0.0
H1170 H 0.86363 0.48698 0.80179 0.0
H1171 H 0.94309 0.64961 0.9399 0.0
H1172 H 0.03288 0.16636 0.10036 0.0
H1173 H 0.03257 0.14062 0.03926 0.0
H1174 H 0.9837 0.16686 0.95929 0.0
H1175 H 0.98405 0.19272 0.02079 0.0
H1176 H 0.9773 0.13006 0.98557 0.0
H1177 H 0.02922 0.16488 0.90471 0.0
H1178 H 0.06081 0.18108 0.90632 0.0
H1179 H 0.09093 0.13117 0.95441 0.0
H1180 H 0.05947 0.11471 0.95362 0.0
H1181 H 0.96809 0.07312 0.77413 0.0
H1182 H 0.97486 0.09979 0.82732 0.0
H1183 H 0.02609 0.07147 0.89021 0.0
H1184 H 0.01963 0.04461 0.83543 0.0
H1185 H 0.03305 0.10818 0.87604 0.0
H1186 H 0.98487 0.07294 0.95905 0.0
H1187 H 0.95471 0.05478 0.96646 0.0
H1188 H 0.9193 0.1027 0.9272 0.0
H1189 H 0.94931 0.1211 0.91881 0.0
C1190 C 0.02242 0.1668 0.0689 0.0
C1191 C 0.00868 0.18155 0.06456 0.0
C1192 C 0.02222 0.1521 0.03412 0.0
C1193 C 0.0082 0.15186 0.99447 0.0
C1194 C 0.9947 0.16682 0.98947 0.0
C1195 C 0.99499 0.18162 0.02419 0.0
C1196 C 0.00685 0.13544 0.96042 0.0
C1197 C 0.98936 0.12549 0.96092 0.0
C1198 C 0.02299 0.12886 0.93045 0.0
C1199 C 0.04198 0.1386 0.92936 0.0
C1200 C 0.04257 0.15738 0.91578 0.0
C1201 C 0.06045 0.1666 0.91654 0.0
C1202 C 0.07786 0.15717 0.93054 0.0
C1203 C 0.07743 0.13846 0.94356 0.0
C1204 C 0.05959 0.12916 0.94286 0.0
C1205 C 0.98088 0.0725 0.79891 0.0
C1206 C 0.99314 0.05656 0.80088 0.0
C1207 C 0.98473 0.08781 0.82945 0.0
C1208 C 1.00076 0.08753 0.86356 0.0
C1209 C 0.01357 0.07197 0.86433 0.0
C1210 C 0.00981 0.05661 0.83318 0.0
C1211 C 0.00323 0.10318 0.89996 0.0
C1212 C 0.02095 0.11284 0.90041 0.0
C1213 C 0.98751 0.10924 0.93209 0.0
C1214 C 0.96935 0.09837 0.9379 0.0
C1215 C 0.97066 0.07958 0.9517 0.0
C1216 C 0.95359 0.06925 0.9561 0.0
C1217 C 0.9351 0.07757 0.9472 0.0
C1218 C 0.93364 0.09627 0.93405 0.0
C1219 C 0.95067 0.10667 0.92952 0.0
H1220 H 0.9219 0.06954 0.95058 0.0
H1221 H 0.09168 0.16435 0.93123 0.0
H1222 H 0.35863 0.08929 0.13306 0.0
H1223 H 0.38218 0.07969 0.06729 0.0
H1224 H 0.33423 0.06656 0.96568 0.0
H1225 H 0.31043 0.07532 0.03272 0.0
H1226 H 0.36026 0.03914 0.968 0.0
H1227 H 0.36499 0.10459 0.94504 0.0
H1228 H 0.36908 0.13672 0.97397 0.0
H1229 H 0.42688 0.12265 0.03146 0.0
H1230 H 0.42306 0.09037 0.00337 0.0
H1231 H 0.4194 0.01612 0.75877 0.0
H1232 H 0.39659 0.03444 0.81169 0.0
H1233 H 0.44333 0.04462 0.91975 0.0
H1234 H 0.46658 0.0268 0.86536 0.0
H1235 H 0.41783 0.07495 0.91113 0.0
H1236 H 0.41209 0.00978 0.94296 0.0
H1237 H 0.40867 0.97733 0.91605 0.0
H1238 H 0.35308 0.99104 0.84481 0.0
H1239 H 0.35629 0.02363 0.87089 0.0
C1240 C 0.35301 0.0843 0.09682 0.0
C1241 C 0.33256 0.08281 0.08862 0.0
C1242 C 0.36656 0.07908 0.05881 0.0
C1243 C 0.36006 0.07255 0.01114 0.0
C1244 C 0.33964 0.07159 0.0021 0.0
C1245 C 0.32602 0.07672 0.04037 0.0
C1246 C 0.37458 0.06534 0.97255 0.0
C1247 C 0.37259 0.04717 0.95485 0.0
C1248 C 0.39113 0.07552 0.95653 0.0
C1249 C 0.39368 0.09503 0.97234 0.0
C1250 C 0.37855 0.10833 0.96402 0.0
C1251 C 0.38082 0.12657 0.98026 0.0
C1252 C 0.39822 0.13172 0.00461 0.0
C1253 C 0.41342 0.11865 0.01258 0.0
C1254 C 0.41122 0.10038 0.9964 0.0
C1255 C 0.42489 0.02234 0.79365 0.0
C1256 C 0.4447 0.01967 0.8085 0.0
C1257 C 0.41183 0.03287 0.82382 0.0
C1258 C 0.41809 0.04057 0.8704 0.0
C1259 C 0.43812 0.03876 0.88411 0.0
C1260 C 0.45136 0.02848 0.85321 0.0
C1261 C 0.40329 0.04887 0.90652 0.0
C1262 C 0.40533 0.0671 0.92396 0.0
C1263 C 0.38679 0.03878 0.92279 0.0
C1264 C 0.38447 0.01911 0.90864 0.0
C1265 C 0.39915 0.00586 0.92151 0.0
C1266 C 0.39726 0.98745 0.90638 0.0
C1267 C 0.38068 0.98213 0.87868 0.0
C1268 C 0.36591 -0.00481 0.86628 0.0
C1269 C 0.36773 0.01361 0.88131 0.0
H1270 H 0.37926 0.96789 0.86688 0.0
H1271 H 0.39993 0.14584 0.01726 0.0
H1272 H 0.5208 0.33743 0.12355 0.0
H1273 H 0.51191 0.36277 0.06557 0.0
H1274 H 0.50299 0.32372 0.94306 0.0
H1275 H 0.51208 0.29816 0.00122 0.0
H1276 H 0.52812 0.3517 0.91737 0.0
H1277 H 0.46397 0.34707 0.99385 0.0
H1278 H 0.44036 0.34547 0.06557 0.0
H1279 H 0.45767 0.39896 0.11784 0.0
H1280 H 0.48159 0.40078 0.04687 0.0
H1281 H 0.50815 0.42276 0.74404 0.0
H1282 H 0.50308 0.39507 0.79541 0.0
H1283 H 0.50027 0.42845 0.93278 0.0
H1284 H 0.50403 0.45637 0.88059 0.0
H1285 H 0.47768 0.40142 0.94667 0.0
H1286 H 0.54479 0.40458 0.88738 0.0
H1287 H 0.57046 0.40794 0.82117 0.0
H1288 H 0.55064 0.35907 0.74528 0.0
H1289 H 0.52474 0.35552 0.81088 0.0
C1290 C 0.51685 0.33422 0.0843 0.0
C1291 C 0.51738 0.31584 0.06665 0.0
C1292 C 0.51155 0.3487 0.05139 0.0
C1293 C 0.50664 0.34513 0.00011 0.0
C1294 C 0.50663 0.32675 0.98262 0.0
C1295 C 0.51179 0.31219 0.01579 0.0
C1296 C 0.50349 0.36074 0.9639 0.0
C1297 C 0.51679 0.36236 0.92309 0.0
C1298 C 0.48921 0.37501 0.97264 0.0
C1299 C 0.47468 0.374 0.01514 0.0
C1300 C 0.46285 0.35844 0.02082 0.0
C1301 C 0.44939 0.3575 0.06133 0.0
C1302 C 0.44754 0.37209 0.09629 0.0
C1303 C 0.45912 0.38767 0.09074 0.0
C1304 C 0.47261 0.38867 0.05032 0.0
C1305 C 0.50612 0.42415 0.78515 0.0
C1306 C 0.50674 0.44155 0.8087 0.0
C1307 C 0.50328 0.40834 0.81454 0.0
C1308 C 0.50187 0.40952 0.86829 0.0
C1309 C 0.50142 0.42709 0.89148 0.0
C1310 C 0.50364 0.44302 0.86178 0.0
C1311 C 0.50245 0.39246 0.90034 0.0
C1312 C 0.48879 0.39061 0.94047 0.0
C1313 C 0.51678 0.37816 0.89209 0.0
C1314 C 0.53279 0.37985 0.85378 0.0
C1315 C 0.54593 0.39455 0.85656 0.0
C1316 C 0.56049 0.3965 0.81913 0.0
C1317 C 0.56216 0.38374 0.779 0.0
C1318 C 0.54933 0.36894 0.77639 0.0
C1319 C 0.53474 0.36692 0.81373 0.0
H1320 H 0.5734 0.38531 0.74996 0.0
H1321 H 0.43712 0.37133 0.12763 0.0
H1322 H 0.14657 0.40754 0.14337 0.0
H1323 H 0.12259 0.41681 0.07827 0.0
H1324 H 0.16981 0.43239 0.97745 0.0
H1325 H 0.194 0.42402 0.04391 0.0
H1326 H 0.14307 0.4586 0.97917 0.0
H1327 H 0.1403 0.3933 0.95575 0.0
H1328 H 0.1372 0.36085 0.9826 0.0
H1329 H 0.07884 0.37281 0.03944 0.0
H1330 H 0.08167 0.40541 0.01351 0.0
H1331 H 0.08365 0.47923 0.76847 0.0
H1332 H 0.10668 0.46178 0.82267 0.0
H1333 H 0.05999 0.45158 0.93062 0.0
H1334 H 0.03647 0.46863 0.87495 0.0
H1335 H 0.08638 0.42147 0.92278 0.0
H1336 H 0.09073 0.48716 0.95176 0.0
H1337 H 0.0938 0.51943 0.92302 0.0
H1338 H 0.14983 0.50583 0.85406 0.0
H1339 H 0.14697 0.47342 0.88196 0.0
C1340 C 0.15195 0.41302 0.10749 0.0
C1341 C 0.17231 0.41528 0.09943 0.0
C1342 C 0.13814 0.41805 0.06979 0.0
C1343 C 0.14428 0.42517 0.02248 0.0
C1344 C 0.16464 0.42691 0.01357 0.0
C1345 C 0.1785 0.42199 0.05153 0.0
C1346 C 0.12943 0.43208 0.98412 0.0
C1347 C 0.13092 0.45028 0.96625 0.0
C1348 C 0.11315 0.42152 0.96803 0.0
C1349 C 0.11127 0.40185 0.98303 0.0
C1350 C 0.12684 0.38905 0.97424 0.0
C1351 C 0.12513 0.37061 0.98926 0.0
C1352 C 0.10785 0.36478 0.01281 0.0
C1353 C 0.09222 0.37735 0.02121 0.0
C1354 C 0.09386 0.39581 0.00628 0.0
C1355 C 0.07818 0.47318 0.80356 0.0
C1356 C 0.05829 0.47565 0.81793 0.0
C1357 C 0.0914 0.46314 0.83451 0.0
C1358 C 0.08524 0.45572 0.88145 0.0
C1359 C 0.06514 0.45727 0.89474 0.0
C1360 C 0.05173 0.46708 0.86306 0.0
C1361 C 0.1002 0.44787 0.91804 0.0
C1362 C 0.09866 0.42962 0.93565 0.0
C1363 C 0.11653 0.45831 0.93397 0.0
C1364 C 0.1186 0.47789 0.91873 0.0
C1365 C 0.10369 0.49107 0.93042 0.0
C1366 C 0.10539 0.50937 0.91425 0.0
C1367 C 0.12199 0.51467 0.88668 0.0
C1368 C 0.13698 0.5017 0.87543 0.0
C1369 C 0.13535 0.48338 0.8915 0.0
H1370 H 0.12326 0.52884 0.87408 0.0
H1371 H 0.10656 0.35051 0.02448 0.0
H1372 H 0.96189 0.8193 0.37722 0.0
H1373 H 0.96198 0.84619 0.43391 0.0
H1374 H 0.02363 0.83591 0.46643 0.0
H1375 H 0.02382 0.80919 0.40858 0.0
H1376 H 1.00195 0.84847 0.55261 0.0
H1377 H 0.0126 0.8648 0.37618 0.0
H1378 H 0.00473 0.86545 0.2838 0.0
H1379 H 0.94997 0.89426 0.31561 0.0
H1380 H 0.95737 0.89347 0.40838 0.0
H1381 H 0.03763 0.94152 0.58528 0.0
H1382 H 0.0306 0.91331 0.5379 0.0
H1383 H 0.96991 0.91704 0.5866 0.0
H1384 H 0.97677 0.94565 0.63406 0.0
H1385 H 0.98842 0.90789 0.46251 0.0
H1386 H 0.97805 0.8706 0.64331 0.0
H1387 H 0.98954 0.86702 0.73295 0.0
H1388 H 0.04847 0.87972 0.68663 0.0
H1389 H 0.03726 0.8834 0.59691 0.0
C1390 C 0.97544 0.8226 0.39694 0.0
C1391 C 0.99296 0.81229 0.38762 0.0
C1392 C 0.97542 0.83795 0.42941 0.0
C1393 C 0.99289 0.84323 0.45357 0.0
C1394 C 0.01001 0.83209 0.44792 0.0
C1395 C 0.01007 0.81676 0.41504 0.0
C1396 C 0.99372 0.86121 0.4808 0.0
C1397 C 0.99885 0.86142 0.5329 0.0
C1398 C 0.9898 0.87817 0.45508 0.0
C1399 C 0.98543 0.87888 0.39929 0.0
C1400 C 0.9988 0.87113 0.36353 0.0
C1401 C 0.99444 0.87154 0.31109 0.0
C1402 C 0.97683 0.87984 0.29385 0.0
C1403 C 0.96359 0.8878 0.32903 0.0
C1404 C 0.96785 0.88738 0.38156 0.0
C1405 C 0.02269 0.93652 0.58539 0.0
C1406 C 0.0078 0.94567 0.61402 0.0
C1407 C 0.01875 0.92036 0.55847 0.0
C1408 C 0.99987 0.91297 0.55964 0.0
C1409 C 0.98463 0.92252 0.58573 0.0
C1410 C 0.98853 0.9389 0.61241 0.0
C1411 C 0.99649 0.89504 0.53422 0.0
C1412 C 0.99099 0.89488 0.48235 0.0
C1413 C 1.00039 0.87814 0.55972 0.0
C1414 C 0.00681 0.87744 0.61383 0.0
C1415 C 0.99341 0.87277 0.65249 0.0
C1416 C 0.99989 0.87061 0.70317 0.0
C1417 C 0.01976 0.87299 0.71536 0.0
C1418 C 0.03312 0.87779 0.67706 0.0
C1419 C 0.02669 0.88001 0.6264 0.0
H1420 H 0.02479 0.87127 0.75452 0.0
H1421 H 0.97348 0.88015 0.25323 0.0
H1422 H 0.6864 0.94384 0.37268 0.0
H1423 H 0.66089 0.95454 0.43264 0.0
H1424 H 0.63932 0.89922 0.44443 0.0
H1425 H 0.6655 0.88807 0.38718 0.0
H1426 H 0.60959 0.92751 0.41915 0.0
H1427 H 0.65889 0.91334 0.54365 0.0
H1428 H 0.69156 0.91328 0.58528 0.0
H1429 H 0.68771 0.97233 0.60043 0.0
H1430 H 0.65513 0.97278 0.55813 0.0
H1431 H 0.53988 0.95814 0.61786 0.0
H1432 H 0.56352 0.94051 0.56415 0.0
H1433 H 0.60095 0.98781 0.55792 0.0
H1434 H 0.57795 0.00514 0.61189 0.0
H1435 H 0.62166 0.95844 0.58564 0.0
H1436 H 0.57294 0.97243 0.45378 0.0
H1437 H 0.54039 0.97184 0.41151 0.0
H1438 H 0.5429 0.91251 0.41067 0.0
H1439 H 0.57535 0.91274 0.45355 0.0
C1440 C 0.67666 0.93377 0.38897 0.0
C1441 C 0.67805 0.91505 0.3742 0.0
C1442 C 0.66192 0.93998 0.42298 0.0
C1443 C 0.64807 0.9277 0.44254 0.0
C1444 C 0.6497 0.90897 0.4293 0.0
C1445 C 0.66467 0.90267 0.39618 0.0
C1446 C 0.63149 0.93466 0.47515 0.0
C1447 C 0.61214 0.93403 0.45599 0.0
C1448 C 0.63485 0.94324 0.52295 0.0
C1449 C 0.65467 0.94311 0.54713 0.0
C1450 C 0.66512 0.92634 0.55521 0.0
C1451 C 0.68359 0.92623 0.57911 0.0
C1452 C 0.69173 0.9428 0.59535 0.0
C1453 C 0.68141 0.95951 0.58773 0.0
C1454 C 0.66294 0.9597 0.56381 0.0
C1455 C 0.55305 0.96481 0.60448 0.0
C1456 C 0.55715 0.98297 0.61999 0.0
C1457 C 0.56654 0.95473 0.57368 0.0
C1458 C 0.58414 0.96277 0.55718 0.0
C1459 C 0.58765 0.98117 0.57063 0.0
C1460 C 0.57441 0.9911 0.60161 0.0
C1461 C 0.59974 0.95207 0.52877 0.0
C1462 C 0.61899 0.95185 0.54895 0.0
C1463 C 0.59621 0.94272 0.48197 0.0
C1464 C 0.57644 0.94261 0.45759 0.0
C1465 C 0.56644 0.95926 0.44521 0.0
C1466 C 0.54803 0.95899 0.42097 0.0
C1467 C 0.53955 0.94215 0.4086 0.0
C1468 C 0.54945 0.92554 0.42042 0.0
C1469 C 0.56785 0.92574 0.44469 0.0
H1470 H 0.52533 0.94198 0.38971 0.0
H1471 H 0.70601 0.94268 0.61396 0.0
H1472 H 0.51093 0.66419 0.33492 0.0
H1473 H 0.51486 0.63816 0.39375 0.0
H1474 H 0.48453 0.66937 0.51201 0.0
H1475 H 0.48043 0.69571 0.45259 0.0
H1476 H 0.52016 0.64654 0.54412 0.0
H1477 H 0.45775 0.64136 0.45467 0.0
H1478 H 0.43702 0.6417 0.37683 0.0
H1479 H 0.47203 0.59706 0.31324 0.0
H1480 H 0.49311 0.5966 0.39055 0.0
H1481 H 0.48993 0.5729 0.70141 0.0
H1482 H 0.49536 0.60048 0.64967 0.0
H1483 H 0.51044 0.5661 0.5195 0.0
H1484 H 0.50533 0.53835 0.5719 0.0
H1485 H 0.48361 0.59087 0.49252 0.0
H1486 H 0.54534 0.59437 0.57741 0.0
H1487 H 0.56847 0.59367 0.65019 0.0
H1488 H 0.53798 0.64032 0.71796 0.0
H1489 H 0.51454 0.64123 0.64538 0.0
C1490 C 0.50521 0.66558 0.37359 0.0
C1491 C 0.49511 0.68183 0.38907 0.0
C1492 C 0.50754 0.65073 0.40715 0.0
C1493 C 0.4998 0.65179 0.4569 0.0
C1494 C 0.49062 0.66834 0.47366 0.0
C1495 C 0.48828 0.68333 0.43984 0.0
C1496 C 0.5001 0.63502 0.48939 0.0
C1497 C 0.51194 0.63444 0.53349 0.0
C1498 C 0.48999 0.61906 0.47418 0.0
C1499 C 0.47707 0.61903 0.4282 0.0
C1500 C 0.46108 0.63168 0.42397 0.0
C1501 C 0.44926 0.63188 0.37998 0.0
C1502 C 0.45323 0.61943 0.34007 0.0
C1503 C 0.46898 0.6067 0.34418 0.0
C1504 C 0.48084 0.60644 0.38811 0.0
C1505 C 0.49453 0.57129 0.66181 0.0
C1506 C 0.4969 0.55363 0.64021 0.0
C1507 C 0.49775 0.58702 0.63239 0.0
C1508 C 0.50312 0.58542 0.58055 0.0
C1509 C 0.50621 0.56769 0.55938 0.0
C1510 C 0.50336 0.55188 0.58923 0.0
C1511 C 0.50366 0.60223 0.54783 0.0
C1512 C 0.49191 0.60288 0.50348 0.0
C1513 C 0.51409 0.61814 0.5625 0.0
C1514 C 0.52812 0.61778 0.60617 0.0
C1515 C 0.5435 0.60441 0.60798 0.0
C1516 C 0.55669 0.604 0.64918 0.0
C1517 C 0.5547 0.61692 0.68884 0.0
C1518 C 0.53952 0.63033 0.68722 0.0
C1519 C 0.5263 0.63083 0.64596 0.0
H1520 H 0.56493 0.61655 0.72075 0.0
H1521 H 0.44408 0.61963 0.30601 0.0
H1522 H 0.84832 0.60376 0.35437 0.0
H1523 H 0.87404 0.593 0.41346 0.0
H1524 H 0.83952 0.54582 0.45204 0.0
H1525 H 0.81408 0.55581 0.39033 0.0
H1526 H 0.86241 0.57212 0.53818 0.0
H1527 H 0.86826 0.53255 0.38267 0.0
H1528 H 0.87107 0.52985 0.28856 0.0
H1529 H 0.9228 0.56294 0.29095 0.0
H1530 H 0.92006 0.5661 0.38508 0.0
H1531 H 0.91961 0.50453 0.66119 0.0
H1532 H 0.89723 0.52188 0.60548 0.0
H1533 H 0.94656 0.54815 0.53396 0.0
H1534 H 0.96941 0.53063 0.59037 0.0
H1535 H 0.91921 0.53718 0.4624 0.0
H1536 H 0.91957 0.57167 0.61304 0.0
H1537 H 0.91831 0.57974 0.7048 0.0
H1538 H 0.85771 0.56401 0.71147 0.0
H1539 H 0.85886 0.55492 0.62046 0.0
C1540 C 0.84611 0.59102 0.37508 0.0
C1541 C 0.82918 0.58045 0.36641 0.0
C1542 C 0.86083 0.585 0.40923 0.0
C1543 C 0.85878 0.56853 0.4366 0.0
C1544 C 0.84138 0.55857 0.43101 0.0
C1545 C 0.82676 0.56439 0.39597 0.0
C1546 C 0.87527 0.56125 0.46888 0.0
C1547 C 0.87469 0.56421 0.522 0.0
C1548 C 0.8919 0.55207 0.44702 0.0
C1549 C 0.89383 0.54972 0.39075 0.0
C1550 C 0.88013 0.53938 0.36306 0.0
C1551 C 0.88173 0.53774 0.30974 0.0
C1552 C 0.89707 0.54626 0.28377 0.0
C1553 C 0.9109 0.55637 0.31111 0.0
C1554 C 0.90934 0.55807 0.36443 0.0
C1555 C 0.92586 0.51395 0.63367 0.0
C1556 C 0.94641 0.51613 0.63037 0.0
C1557 C 0.91294 0.52396 0.6019 0.0
C1558 C 0.92013 0.53648 0.56579 0.0
C1559 C 0.94066 0.53859 0.56165 0.0
C1560 C 0.95369 0.52862 0.594 0.0
C1561 C 0.90588 0.54705 0.5327 0.0
C1562 C 0.90696 0.54498 0.47914 0.0
C1563 C 0.88998 0.55757 0.55419 0.0
C1564 C 0.88938 0.56238 0.60974 0.0
C1565 C 0.90607 0.56956 0.63422 0.0
C1566 C 0.90539 0.57432 0.68621 0.0
C1567 C 0.88798 0.57231 0.71406 0.0
C1568 C 0.87125 0.56545 0.68999 0.0
C1569 C 0.87193 0.5604 0.63821 0.0
H1570 H 0.88744 0.57613 0.75423 0.0
H1571 H 0.89827 0.545 0.24248 0.0
loop_
_geom_bond_atom_site_label_1
_geom_bond_atom_site_label_2
_geom_bond_distance
_geom_bond_site_symmetry_2
_ccdc_geom_bond_type
C0 C1 1.384 . S
C0 H13 0.947 . S
C0 C35 1.382 . S
C1 C0 1.384 . S
C1 C2 1.378 . S
C2 C1 1.378 . S
C2 C3 1.378 . S
C2 H14 0.952 . S
C3 C2 1.378 . S
C3 H15 0.950 . S
C3 C34 1.383 . S
H4 C23 0.947 . S
H5 C24 0.946 . S
H6 C26 0.953 1_556 S
H7 C27 0.945 . S
H8 C29 0.952 . S
H9 C30 0.949 . S
H10 C32 0.950 . S
H11 C33 0.948 . S
H12 C35 0.951 . S
H13 C0 0.947 . S
H14 C2 0.952 . S
H15 C3 0.950 . S
N16 C19 1.382 . S
N16 C21 1.363 . S
N17 C19 1.371 . S
N17 C20 1.372 . S
N18 C20 1.361 . S
N18 C21 1.377 . S
C19 N16 1.382 . S
C19 N17 1.371 . S
C19 C22 1.480 . S
C20 N17 1.372 . S
C20 N18 1.361 . S
C20 C28 1.457 . S
C21 N16 1.363 . S
C21 N18 1.377 . S
C21 C34 1.479 . S
C22 C19 1.480 . S
C22 C23 1.383 . S
C22 C27 1.385 . S
C23 H4 0.947 . S
C23 C22 1.383 . S
C23 C24 1.388 . S
C24 H5 0.946 . S
C24 C23 1.388 . S
C24 C25 1.384 . S
C25 C24 1.384 . S
C25 C26 1.377 . S
C26 H6 0.953 1_554 S
C26 C25 1.377 . S
C26 C27 1.369 . S
C27 H7 0.945 . S
C27 C22 1.385 . S
C27 C26 1.369 . S
C28 C20 1.457 . S
C28 C29 1.372 1_554 S
C28 C33 1.364 . S
C29 H8 0.952 . S
C29 C28 1.372 1_556 S
C29 C30 1.389 . S
C30 H9 0.949 . S
C30 C29 1.389 . S
C30 C31 1.387 . S
C31 C30 1.387 . S
C31 C32 1.372 1_556 S
C32 H10 0.950 . S
C32 C31 1.372 1_554 S
C32 C33 1.379 . S
C33 H11 0.948 . S
C33 C28 1.364 . S
C33 C32 1.379 . S
C34 C3 1.383 . S
C34 C21 1.479 . S
C34 C35 1.398 . S
C35 C0 1.382 . S
C35 H12 0.951 . S
C35 C34 1.398 . S
C36 C37 1.384 1_655 S
C36 H49 0.948 . S
C36 C71 1.382 1_655 S
C37 C36 1.384 1_455 S
C37 C38 1.378 . S
C38 C37 1.378 . S
C38 C39 1.378 . S
C38 H50 0.952 . S
C39 C38 1.378 . S
C39 H51 0.950 . S
C39 C70 1.383 . S
H40 C59 0.947 . S
H41 C60 0.951 . S
H42 C62 0.953 . S
H43 C63 0.945 . S
H44 C65 0.949 1_656 S
H45 C66 0.957 . S
H46 C68 0.950 . S
H47 C69 0.948 . S
H48 C71 0.952 1_655 S
H49 C36 0.948 . S
H50 C38 0.952 . S
H51 C39 0.950 . S
N52 C55 1.382 . S
N52 C57 1.363 . S
N53 C55 1.371 . S
N53 C56 1.372 . S
N54 C56 1.361 . S
N54 C57 1.377 . S
C55 N52 1.382 . S
C55 N53 1.371 . S
C55 C58 1.480 . S
C56 N53 1.372 . S
C56 N54 1.361 . S
C56 C64 1.457 . S
C57 N52 1.363 . S
C57 N54 1.377 . S
C57 C70 1.479 . S
C58 C55 1.480 . S
C58 C59 1.383 . S
C58 C63 1.385 . S
C59 H40 0.947 . S
C59 C58 1.383 . S
C59 C60 1.386 1_455 S
C60 H41 0.951 . S
C60 C59 1.386 1_655 S
C60 C61 1.382 1_655 S
C61 C60 1.382 1_455 S
C61 C62 1.377 . S
C62 H42 0.953 . S
C62 C61 1.377 . S
C62 C63 1.369 . S
C63 H43 0.945 . S
C63 C58 1.385 . S
C63 C62 1.369 . S
C64 C56 1.457 . S
C64 C65 1.376 . S
C64 C69 1.364 . S
C65 H44 0.949 1_454 S
C65 C64 1.376 . S
C65 C66 1.388 1_454 S
C66 H45 0.957 . S
C66 C65 1.388 1_656 S
C66 C67 1.381 1_655 S
C67 C66 1.381 1_455 S
C67 C68 1.372 1_556 S
C68 H46 0.950 . S
C68 C67 1.372 1_554 S
C68 C69 1.379 . S
C69 H47 0.948 . S
C69 C64 1.364 . S
C69 C68 1.379 . S
C70 C39 1.383 . S
C70 C57 1.479 . S
C70 C71 1.398 . S
C71 C36 1.382 1_455 S
C71 H48 0.952 1_455 S
C71 C70 1.398 . S
C72 C73 1.384 . S
C72 H85 0.947 . S
C72 C107 1.382 . S
C73 C72 1.384 . S
C73 C74 1.378 . S
C74 C73 1.378 . S
C74 C75 1.378 . S
C74 H86 0.952 . S
C75 C74 1.378 . S
C75 H87 0.950 . S
C75 C106 1.383 . S
H76 C95 0.947 . S
H77 C96 0.946 . S
H78 C98 0.953 1_556 S
H79 C99 0.945 . S
H80 C101 0.952 . S
H81 C102 0.949 . S
H82 C104 0.950 . S
H83 C105 0.948 . S
H84 C107 0.951 . S
H85 C72 0.947 . S
H86 C74 0.952 . S
H87 C75 0.950 . S
N88 C91 1.382 . S
N88 C93 1.363 . S
N89 C91 1.371 . S
N89 C92 1.372 . S
N90 C92 1.361 . S
N90 C93 1.377 . S
C91 N88 1.382 . S
C91 N89 1.371 . S
C91 C94 1.480 . S
C92 N89 1.372 . S
C92 N90 1.361 . S
C92 C100 1.457 . S
C93 N88 1.363 . S
C93 N90 1.377 . S
C93 C106 1.479 . S
C94 C91 1.480 . S
C94 C95 1.383 . S
C94 C99 1.385 . S
C95 H76 0.947 . S
C95 C94 1.383 . S
C95 C96 1.388 . S
C96 H77 0.946 . S
C96 C95 1.388 . S
C96 C97 1.384 . S
C97 C96 1.384 . S
C97 C98 1.377 . S
C98 H78 0.953 1_554 S
C98 C97 1.377 . S
C98 C99 1.369 . S
C99 H79 0.945 . S
C99 C94 1.385 . S
C99 C98 1.369 . S
C100 C92 1.457 . S
C100 C101 1.372 1_554 S
C100 C105 1.364 . S
C101 H80 0.952 . S
C101 C100 1.372 1_556 S
C101 C102 1.389 . S
C102 H81 0.949 . S
C102 C101 1.389 . S
C102 C103 1.387 . S
C103 C102 1.387 . S
C103 C104 1.372 1_556 S
C104 H82 0.950 . S
C104 C103 1.372 1_554 S
C104 C105 1.379 . S
C105 H83 0.948 . S
C105 C100 1.364 . S
C105 C104 1.379 . S
C106 C75 1.383 . S
C106 C93 1.479 . S
C106 C107 1.398 . S
C107 C72 1.382 . S
C107 H84 0.951 . S
C107 C106 1.398 . S
C108 C109 1.384 1_554 S
C108 H121 0.947 . S
C108 C143 1.382 . S
C109 C108 1.384 1_556 S
C109 C110 1.378 . S
C110 C109 1.378 . S
C110 C111 1.378 1_556 S
C110 H122 0.952 . S
C111 C110 1.378 1_554 S
C111 H123 0.950 1_554 S
C111 C142 1.383 . S
H112 C131 0.947 . S
H113 C132 0.946 . S
H114 C134 0.953 . S
H115 C135 0.945 . S
H116 C137 0.952 . S
H117 C138 0.949 . S
H118 C140 0.950 . S
H119 C141 0.948 . S
H120 C143 0.951 . S
H121 C108 0.947 . S
H122 C110 0.952 . S
H123 C111 0.950 1_556 S
N124 C127 1.382 . S
N124 C129 1.363 . S
N125 C127 1.371 . S
N125 C128 1.372 . S
N126 C128 1.361 . S
N126 C129 1.377 . S
C127 N124 1.382 . S
C127 N125 1.371 . S
C127 C130 1.480 . S
C128 N125 1.372 . S
C128 N126 1.361 . S
C128 C136 1.457 . S
C129 N124 1.363 . S
C129 N126 1.377 . S
C129 C142 1.479 . S
C130 C127 1.480 . S
C130 C131 1.383 . S
C130 C135 1.385 . S
C131 H112 0.947 . S
C131 C130 1.383 . S
C131 C132 1.388 . S
C132 H113 0.946 . S
C132 C131 1.388 . S
C132 C133 1.384 . S
C133 C132 1.384 . S
C133 C134 1.377 . S
C134 H114 0.953 . S
C134 C133 1.377 . S
C134 C135 1.369 . S
C135 H115 0.945 . S
C135 C130 1.385 . S
C135 C134 1.369 . S
C136 C128 1.457 . S
C136 C137 1.372 . S
C136 C141 1.364 . S
C137 H116 0.952 . S
C137 C136 1.372 . S
C137 C138 1.389 . S
C138 H117 0.949 . S
C138 C137 1.389 . S
C138 C139 1.387 . S
C139 C138 1.387 . S
C139 C140 1.372 . S
C140 H118 0.950 . S
C140 C139 1.372 . S
C140 C141 1.379 . S
C141 H119 0.948 . S
C141 C136 1.364 . S
C141 C140 1.379 . S
C142 C111 1.383 . S
C142 C129 1.479 . S
C142 C143 1.398 . S
C143 C108 1.382 . S
C143 H120 0.951 . S
C143 C142 1.398 . S
C144 C145 1.384 . S
C144 H157 0.947 . S
C144 C179 1.382 . S
C145 C144 1.384 . S
C145 C146 1.378 . S
C146 C145 1.378 . S
C146 C147 1.378 . S
C146 H158 0.952 . S
C147 C146 1.378 . S
C147 H159 0.950 . S
C147 C178 1.383 . S
H148 C167 0.947 . S
H149 C168 0.946 . S
H150 C170 0.953 . S
H151 C171 0.945 . S
H152 C173 0.952 . S
H153 C174 0.949 . S
H154 C176 0.950 . S
H155 C177 0.948 . S
H156 C179 0.951 . S
H157 C144 0.947 . S
H158 C146 0.952 . S
H159 C147 0.950 . S
N160 C163 1.382 . S
N160 C165 1.363 . S
N161 C163 1.371 . S
N161 C164 1.372 . S
N162 C164 1.361 . S
N162 C165 1.377 . S
C163 N160 1.382 . S
C163 N161 1.371 . S
C163 C166 1.480 . S
C164 N161 1.372 . S
C164 N162 1.361 . S
C164 C172 1.457 . S
C165 N160 1.363 . S
C165 N162 1.377 . S
C165 C178 1.479 . S
C166 C163 1.480 . S
C166 C167 1.383 . S
C166 C171 1.385 . S
C167 H148 0.947 . S
C167 C166 1.383 . S
C167 C168 1.388 . S
C168 H149 0.946 . S
C168 C167 1.388 . S
C168 C169 1.384 . S
C169 C168 1.384 . S
C169 C170 1.377 . S
C170 H150 0.953 . S
C170 C169 1.377 . S
C170 C171 1.369 . S
C171 H151 0.945 . S
C171 C166 1.385 . S
C171 C170 1.369 . S
C172 C164 1.457 . S
C172 C173 1.372 . S
C172 C177 1.364 . S
C173 H152 0.952 . S
C173 C172 1.372 . S
C173 C174 1.389 . S
C174 H153 0.949 . S
C174 C173 1.389 . S
C174 C175 1.387 . S
C175 C174 1.387 . S
C175 C176 1.372 . S
C176 H154 0.950 . S
C176 C175 1.372 . S
C176 C177 1.379 . S
C177 H155 0.948 . S
C177 C172 1.364 . S
C177 C176 1.379 . S
C178 C147 1.383 . S
C178 C165 1.479 . S
C178 C179 1.398 . S
C179 C144 1.382 . S
C179 H156 0.951 . S
C179 C178 1.398 . S
C180 C181 1.384 1_655 S
C180 H193 0.947 . S
C180 C215 1.382 1_655 S
C181 C180 1.384 1_455 S
C181 C182 1.378 . S
C182 C181 1.378 . S
C182 C183 1.378 . S
C182 H194 0.952 . S
C183 C182 1.378 . S
C183 H195 0.950 . S
C183 C214 1.383 . S
H184 C203 0.947 . S
H185 C204 0.947 . S
H186 C206 0.953 . S
H187 C207 0.945 . S
H188 C209 0.949 1_655 S
H189 C210 0.954 . S
H190 C212 0.950 . S
H191 C213 0.948 . S
H192 C215 0.950 1_655 S
H193 C180 0.947 . S
H194 C182 0.952 . S
H195 C183 0.950 . S
N196 C199 1.382 . S
N196 C201 1.363 . S
N197 C199 1.371 . S
N197 C200 1.372 . S
N198 C200 1.361 . S
N198 C201 1.377 . S
C199 N196 1.382 . S
C199 N197 1.371 . S
C199 C202 1.480 . S
C200 N197 1.372 . S
C200 N198 1.361 . S
C200 C208 1.457 . S
C201 N196 1.363 . S
C201 N198 1.377 . S
C201 C214 1.479 . S
C202 C199 1.480 . S
C202 C203 1.383 . S
C202 C207 1.385 . S
C203 H184 0.947 . S
C203 C202 1.383 . S
C203 C204 1.388 1_455 S
C204 H185 0.947 . S
C204 C203 1.388 1_655 S
C204 C205 1.383 1_655 S
C205 C204 1.383 1_455 S
C205 C206 1.377 . S
C206 H186 0.953 . S
C206 C205 1.377 . S
C206 C207 1.369 . S
C207 H187 0.945 . S
C207 C202 1.385 . S
C207 C206 1.369 . S
C208 C200 1.457 . S
C208 C209 1.378 . S
C208 C213 1.364 . S
C209 H188 0.949 1_455 S
C209 C208 1.378 . S
C209 C210 1.385 1_455 S
C210 H189 0.954 . S
C210 C209 1.385 1_655 S
C210 C211 1.385 1_655 S
C211 C210 1.385 1_455 S
C211 C212 1.372 . S
C212 H190 0.950 . S
C212 C211 1.372 . S
C212 C213 1.379 . S
C213 H191 0.948 . S
C213 C208 1.364 . S
C213 C212 1.379 . S
C214 C183 1.383 . S
C214 C201 1.479 . S
C214 C215 1.399 . S
C215 C180 1.382 1_455 S
C215 H192 0.950 1_455 S
C215 C214 1.399 . S
C216 C217 1.384 . S
C216 H229 0.947 . S
C216 C251 1.382 . S
C217 C216 1.384 . S
C217 C218 1.378 . S
C218 C217 1.378 . S
C218 C219 1.378 . S
C218 H230 0.952 . S
C219 C218 1.378 . S
C219 H231 0.950 . S
C219 C250 1.383 . S
H220 C239 0.947 . S
H221 C240 0.946 . S
H222 C242 0.953 . S
H223 C243 0.945 . S
H224 C245 0.952 . S
H225 C246 0.949 . S
H226 C248 0.950 . S
H227 C249 0.948 . S
H228 C251 0.951 . S
H229 C216 0.947 . S
H230 C218 0.952 . S
H231 C219 0.950 . S
N232 C235 1.382 . S
N232 C237 1.363 . S
N233 C235 1.371 . S
N233 C236 1.372 . S
N234 C236 1.361 . S
N234 C237 1.377 . S
C235 N232 1.382 . S
C235 N233 1.371 . S
C235 C238 1.480 . S
C236 N233 1.372 . S
C236 N234 1.361 . S
C236 C244 1.457 . S
C237 N232 1.363 . S
C237 N234 1.377 . S
C237 C250 1.479 . S
C238 C235 1.480 . S
C238 C239 1.383 . S
C238 C243 1.385 . S
C239 H220 0.947 . S
C239 C238 1.383 . S
C239 C240 1.388 . S
C240 H221 0.946 . S
C240 C239 1.388 . S
C240 C241 1.384 . S
C241 C240 1.384 . S
C241 C242 1.377 . S
C242 H222 0.953 . S
C242 C241 1.377 . S
C242 C243 1.369 . S
C243 H223 0.945 . S
C243 C238 1.385 . S
C243 C242 1.369 . S
C244 C236 1.457 . S
C244 C245 1.372 . S
C244 C249 1.364 . S
C245 H224 0.952 . S
C245 C244 1.372 . S
C245 C246 1.389 . S
C246 H225 0.949 . S
C246 C245 1.389 . S
C246 C247 1.387 . S
C247 C246 1.387 . S
C247 C248 1.372 . S
C248 H226 0.950 . S
C248 C247 1.372 . S
C248 C249 1.379 . S
C249 H227 0.948 . S
C249 C244 1.364 . S
C249 C248 1.379 . S
C250 C219 1.383 . S
C250 C237 1.479 . S
C250 C251 1.398 . S
C251 C216 1.382 . S
C251 H228 0.951 . S
C251 C250 1.398 . S
C252 C253 1.384 . S
C252 H265 0.947 . S
C252 C287 1.382 . S
C253 C252 1.384 . S
C253 C254 1.378 . S
C254 C253 1.378 . S
C254 C255 1.378 . S
C254 H266 0.952 . S
C255 C254 1.378 . S
C255 H267 0.950 . S
C255 C286 1.383 . S
H256 C275 0.947 . S
H257 C276 0.946 . S
H258 C278 0.953 . S
H259 C279 0.945 . S
H260 C281 0.952 . S
H261 C282 0.949 . S
H262 C284 0.950 . S
H263 C285 0.948 . S
H264 C287 0.951 . S
H265 C252 0.947 . S
H266 C254 0.952 . S
H267 C255 0.950 . S
N268 C271 1.382 . S
N268 C273 1.363 . S
N269 C271 1.371 . S
N269 C272 1.372 . S
N270 C272 1.361 . S
N270 C273 1.377 . S
C271 N268 1.382 . S
C271 N269 1.371 . S
C271 C274 1.480 . S
C272 N269 1.372 . S
C272 N270 1.361 . S
C272 C280 1.457 . S
C273 N268 1.363 . S
C273 N270 1.377 . S
C273 C286 1.479 . S
C274 C271 1.480 . S
C274 C275 1.383 . S
C274 C279 1.385 . S
C275 H256 0.947 . S
C275 C274 1.383 . S
C275 C276 1.388 . S
C276 H257 0.946 . S
C276 C275 1.388 . S
C276 C277 1.384 . S
C277 C276 1.384 . S
C277 C278 1.377 . S
C278 H258 0.953 . S
C278 C277 1.377 . S
C278 C279 1.369 . S
C279 H259 0.945 . S
C279 C274 1.385 . S
C279 C278 1.369 . S
C280 C272 1.457 . S
C280 C281 1.372 . S
C280 C285 1.364 . S
C281 H260 0.952 . S
C281 C280 1.372 . S
C281 C282 1.389 . S
C282 H261 0.949 . S
C282 C281 1.389 . S
C282 C283 1.387 . S
C283 C282 1.387 . S
C283 C284 1.372 . S
C284 H262 0.950 . S
C284 C283 1.372 . S
C284 C285 1.379 . S
C285 H263 0.948 . S
C285 C280 1.364 . S
C285 C284 1.379 . S
C286 C255 1.383 . S
C286 C273 1.479 . S
C286 C287 1.398 . S
C287 C252 1.382 . S
C287 H264 0.951 . S
C287 C286 1.398 . S
O288 Mg289 1.990 . S
O288 C302 1.253 . S
Mg289 O288 1.990 . S
Mg289 O292 2.180 1_565 S
Mg289 O293 2.117 . S
Mg289 O307 2.030 . S
O290 Mg291 2.070 1_465 S
O290 C302 1.260 . S
Mg291 O290 2.070 1_645 S
Mg291 O292 2.048 1_655 S
Mg291 O294 2.088 . S
Mg291 O295 2.056 1_655 S
Mg291 O297 2.150 . S
Mg291 O308 2.091 1_545 S
O292 Mg289 2.180 1_545 S
O292 Mg291 2.048 1_455 S
O292 C303 1.279 . S
O293 Mg289 2.117 . S
O293 C303 1.250 1_565 S
O294 Mg291 2.088 . S
O294 C304 1.264 . S
O295 Mg291 2.056 1_455 S
O295 C305 1.283 . S
Mg296 O297 2.180 . S
Mg296 O298 2.030 . S
Mg296 O299 1.990 . S
Mg296 O300 2.117 . S
O297 Mg291 2.150 . S
O297 Mg296 2.180 . S
O297 C306 1.279 . S
O298 Mg296 2.030 . S
O298 C304 1.248 . S
O299 Mg296 1.990 . S
O299 C305 1.199 1_655 S
O300 Mg296 2.117 . S
O300 C306 1.250 . S
C301 O307 1.204 1_655 S
C301 O308 1.281 . S
C302 O288 1.253 . S
C302 O290 1.260 . S
C303 O292 1.279 . S
C303 O293 1.250 1_545 S
C304 O294 1.264 . S
C304 O298 1.248 . S
C305 O295 1.283 . S
C305 O299 1.199 1_455 S
C306 O297 1.279 . S
C306 O300 1.250 . S
O307 Mg289 2.030 . S
O307 C301 1.204 1_455 S
O308 Mg291 2.091 1_565 S
O308 C301 1.281 . S
O309 Mg310 1.990 1_545 S
O309 C323 1.253 . S
Mg310 O309 1.990 1_565 S
Mg310 O313 2.180 . S
Mg310 O314 2.117 . S
Mg310 O328 2.030 1_565 S
O311 Mg312 2.072 . S
O311 C323 1.260 . S
Mg312 O311 2.072 . S
Mg312 O313 2.099 1_545 S
Mg312 O315 2.079 1_545 S
Mg312 O316 2.066 1_545 S
Mg312 O318 2.099 . S
Mg312 O329 2.079 . S
O313 Mg310 2.180 . S
O313 Mg312 2.099 1_565 S
O313 C324 1.279 . S
O314 Mg310 2.117 . S
O314 C324 1.250 . S
O315 Mg312 2.079 1_565 S
O315 C325 1.264 . S
O316 Mg312 2.066 1_565 S
O316 C326 1.251 1_565 S
Mg317 O318 2.180 . S
Mg317 O319 2.030 . S
Mg317 O320 1.990 . S
Mg317 O321 2.117 . S
O318 Mg312 2.099 . S
O318 Mg317 2.180 . S
O318 C327 1.279 . S
O319 Mg317 2.030 . S
O319 C325 1.248 1_545 S
O320 Mg317 1.990 . S
O320 C326 1.253 . S
O321 Mg317 2.117 . S
O321 C327 1.250 . S
C322 O328 1.248 . S
C322 O329 1.264 . S
C323 O309 1.253 . S
C323 O311 1.260 . S
C324 O313 1.279 . S
C324 O314 1.250 . S
C325 O315 1.264 . S
C325 O319 1.248 1_565 S
C326 O316 1.251 1_545 S
C326 O320 1.253 . S
C327 O318 1.279 . S
C327 O321 1.250 . S
O328 Mg310 2.030 1_545 S
O328 C322 1.248 . S
O329 Mg312 2.079 . S
O329 C322 1.264 . S
O330 Mg331 1.990 . S
O330 C344 1.253 . S
Mg331 O330 1.990 . S
Mg331 O334 2.180 . S
Mg331 O335 2.117 . S
Mg331 O349 2.030 . S
O332 Mg333 2.072 . S
O332 C344 1.260 . S
Mg333 O332 2.072 . S
Mg333 O334 2.099 . S
Mg333 O336 2.079 . S
Mg333 O337 2.072 . S
Mg333 O339 2.099 . S
Mg333 O350 2.079 . S
O334 Mg331 2.180 . S
O334 Mg333 2.099 . S
O334 C345 1.279 . S
O335 Mg331 2.117 . S
O335 C345 1.250 . S
O336 Mg333 2.079 . S
O336 C346 1.264 . S
O337 Mg333 2.072 . S
O337 C347 1.260 . S
Mg338 O339 2.180 . S
Mg338 O340 2.030 . S
Mg338 O341 1.990 . S
Mg338 O342 2.117 . S
O339 Mg333 2.099 . S
O339 Mg338 2.180 . S
O339 C348 1.279 . S
O340 Mg338 2.030 . S
O340 C346 1.248 . S
O341 Mg338 1.990 . S
O341 C347 1.253 . S
O342 Mg338 2.117 . S
O342 C348 1.250 . S
C343 O349 1.248 . S
C343 O350 1.264 . S
C344 O330 1.253 . S
C344 O332 1.260 . S
C345 O334 1.279 . S
C345 O335 1.250 . S
C346 O336 1.264 . S
C346 O340 1.248 . S
C347 O337 1.260 . S
C347 O341 1.253 . S
C348 O339 1.279 . S
C348 O342 1.250 . S
O349 Mg331 2.030 . S
O349 C343 1.248 . S
O350 Mg333 2.079 . S
O350 C343 1.264 . S
O351 Mg352 1.990 . S
O351 C365 1.253 . S
Mg352 O351 1.990 . S
Mg352 O355 2.180 . S
Mg352 O356 2.117 . S
Mg352 O370 2.030 . S
O353 Mg354 2.072 1_655 S
O353 C365 1.260 . S
Mg354 O353 2.072 1_455 S
Mg354 O355 2.099 1_455 S
Mg354 O357 2.079 . S
Mg354 O358 2.072 . S
Mg354 O360 2.099 . S
Mg354 O371 2.079 1_455 S
O355 Mg352 2.180 . S
O355 Mg354 2.099 1_655 S
O355 C366 1.279 . S
O356 Mg352 2.117 . S
O356 C366 1.250 . S
O357 Mg354 2.079 . S
O357 C367 1.264 . S
O358 Mg354 2.072 . S
O358 C368 1.260 . S
Mg359 O360 2.180 . S
Mg359 O361 2.030 . S
Mg359 O362 1.990 . S
Mg359 O363 2.117 . S
O360 Mg354 2.099 . S
O360 Mg359 2.180 . S
O360 C369 1.279 . S
O361 Mg359 2.030 . S
O361 C367 1.248 . S
O362 Mg359 1.990 . S
O362 C368 1.253 . S
O363 Mg359 2.117 . S
O363 C369 1.250 . S
C364 O370 1.248 . S
C364 O371 1.264 . S
C365 O351 1.253 . S
C365 O353 1.260 . S
C366 O355 1.279 . S
C366 O356 1.250 . S
C367 O357 1.264 . S
C367 O361 1.248 . S
C368 O358 1.260 . S
C368 O362 1.253 . S
C369 O360 1.279 . S
C369 O363 1.250 . S
O370 Mg352 2.030 . S
O370 C364 1.248 . S
O371 Mg354 2.079 1_655 S
O371 C364 1.264 . S
H372 C390 0.951 . S
H373 C392 0.951 . S
H374 C394 0.950 . S
H375 C395 0.950 . S
H376 C397 0.950 . S
H377 C400 0.950 . S
H378 C401 0.950 . S
H379 C403 0.950 . S
H380 C404 0.950 . S
H381 C405 0.951 . S
H382 C407 0.951 . S
H383 C409 0.950 . S
H384 C410 0.950 . S
H385 C412 0.950 . S
H386 C415 0.950 . S
H387 C416 0.950 . S
H388 C418 0.950 . S
H389 C419 0.950 . S
C390 H372 0.951 . S
C390 C391 1.366 . S
C390 C392 1.388 . S
C391 C390 1.366 . S
C391 C395 1.385 . S
C392 H373 0.951 . S
C392 C390 1.388 . S
C392 C393 1.366 . S
C393 C392 1.366 . S
C393 C394 1.414 . S
C393 C396 1.499 . S
C394 H374 0.950 . S
C394 C393 1.414 . S
C394 C395 1.374 . S
C395 H375 0.950 . S
C395 C391 1.385 . S
C395 C394 1.374 . S
C396 C393 1.499 . S
C396 C397 1.373 . S
C396 C398 1.389 . S
C397 H376 0.950 . S
C397 C396 1.373 . S
C397 C413 1.377 . S
C398 C396 1.389 . S
C398 C399 1.524 . S
C398 C412 1.377 . S
C399 C398 1.524 . S
C399 C400 1.397 . S
C399 C404 1.363 . S
C400 H377 0.950 . S
C400 C399 1.397 . S
C400 C401 1.334 . S
C401 H378 0.950 . S
C401 C400 1.334 . S
C401 C402 1.287 . S
C402 C401 1.287 . S
C402 C403 1.524 . S
C402 H421 0.913 . S
C403 H379 0.950 . S
C403 C402 1.524 . S
C403 C404 1.415 . S
C404 H380 0.950 . S
C404 C399 1.363 . S
C404 C403 1.415 . S
C405 H381 0.951 . S
C405 C406 1.366 . S
C405 C407 1.388 . S
C406 C405 1.366 . S
C406 C410 1.385 . S
C407 H382 0.951 . S
C407 C405 1.388 . S
C407 C408 1.366 . S
C408 C407 1.366 . S
C408 C409 1.414 . S
C408 C411 1.499 . S
C409 H383 0.950 . S
C409 C408 1.414 . S
C409 C410 1.374 . S
C410 H384 0.950 . S
C410 C406 1.385 . S
C410 C409 1.374 . S
C411 C408 1.499 . S
C411 C412 1.373 . S
C411 C413 1.389 . S
C412 H385 0.950 . S
C412 C398 1.377 . S
C412 C411 1.373 . S
C413 C397 1.377 . S
C413 C411 1.389 . S
C413 C414 1.524 . S
C414 C413 1.524 . S
C414 C415 1.397 . S
C414 C419 1.363 . S
C415 H386 0.950 . S
C415 C414 1.397 . S
C415 C416 1.334 . S
C416 H387 0.950 . S
C416 C415 1.334 . S
C416 C417 1.287 . S
C417 C416 1.287 . S
C417 C418 1.524 . S
C417 H420 0.999 . S
C418 H388 0.950 . S
C418 C417 1.524 . S
C418 C419 1.415 . S
C419 H389 0.950 . S
C419 C414 1.363 . S
C419 C418 1.415 . S
H420 C417 0.999 . S
H421 C402 0.913 . S
H422 C440 0.951 . S
H423 C442 0.951 . S
H424 C444 0.950 . S
H425 C445 0.950 . S
H426 C447 0.950 . S
H427 C450 0.950 . S
H428 C451 0.950 . S
H429 C453 0.950 . S
H430 C454 0.950 . S
H431 C455 0.951 . S
H432 C457 0.951 . S
H433 C459 0.950 . S
H434 C460 0.950 . S
H435 C462 0.950 . S
H436 C465 0.950 . S
H437 C466 0.950 . S
H438 C468 0.950 . S
H439 C469 0.950 . S
C440 H422 0.951 . S
C440 C441 1.366 . S
C440 C442 1.388 . S
C441 C440 1.366 . S
C441 C445 1.385 . S
C442 H423 0.951 . S
C442 C440 1.388 . S
C442 C443 1.366 . S
C443 C442 1.366 . S
C443 C444 1.414 . S
C443 C446 1.499 . S
C444 H424 0.950 . S
C444 C443 1.414 . S
C444 C445 1.374 . S
C445 H425 0.950 . S
C445 C441 1.385 . S
C445 C444 1.374 . S
C446 C443 1.499 . S
C446 C447 1.373 . S
C446 C448 1.389 . S
C447 H426 0.950 . S
C447 C446 1.373 . S
C447 C463 1.377 . S
C448 C446 1.389 . S
C448 C449 1.524 . S
C448 C462 1.377 . S
C449 C448 1.524 . S
C449 C450 1.397 . S
C449 C454 1.363 . S
C450 H427 0.950 . S
C450 C449 1.397 . S
C450 C451 1.334 . S
C451 H428 0.950 . S
C451 C450 1.334 . S
C451 C452 1.287 . S
C452 C451 1.287 . S
C452 C453 1.524 . S
C452 H471 0.913 . S
C453 H429 0.950 . S
C453 C452 1.524 . S
C453 C454 1.415 . S
C454 H430 0.950 . S
C454 C449 1.363 . S
C454 C453 1.415 . S
C455 H431 0.951 . S
C455 C456 1.366 . S
C455 C457 1.388 . S
C456 C455 1.366 . S
C456 C460 1.385 . S
C457 H432 0.951 . S
C457 C455 1.388 . S
C457 C458 1.366 . S
C458 C457 1.366 . S
C458 C459 1.414 . S
C458 C461 1.499 . S
C459 H433 0.950 . S
C459 C458 1.414 . S
C459 C460 1.374 . S
C460 H434 0.950 . S
C460 C456 1.385 . S
C460 C459 1.374 . S
C461 C458 1.499 . S
C461 C462 1.373 . S
C461 C463 1.389 . S
C462 H435 0.950 . S
C462 C448 1.377 . S
C462 C461 1.373 . S
C463 C447 1.377 . S
C463 C461 1.389 . S
C463 C464 1.524 . S
C464 C463 1.524 . S
C464 C465 1.397 . S
C464 C469 1.363 . S
C465 H436 0.950 . S
C465 C464 1.397 . S
C465 C466 1.334 . S
C466 H437 0.950 . S
C466 C465 1.334 . S
C466 C467 1.287 . S
C467 C466 1.287 . S
C467 C468 1.524 . S
C467 H470 0.999 . S
C468 H438 0.950 . S
C468 C467 1.524 . S
C468 C469 1.415 . S
C469 H439 0.950 . S
C469 C464 1.363 . S
C469 C468 1.415 . S
H470 C467 0.999 . S
H471 C452 0.913 . S
H472 C490 0.951 . S
H473 C492 0.951 . S
H474 C494 0.950 . S
H475 C495 0.950 . S
H476 C497 0.950 . S
H477 C500 0.950 . S
H478 C501 0.950 . S
H479 C503 0.950 . S
H480 C504 0.950 . S
H481 C505 0.951 . S
H482 C507 0.951 . S
H483 C509 0.950 . S
H484 C510 0.950 . S
H485 C512 0.950 . S
H486 C515 0.950 . S
H487 C516 0.950 . S
H488 C518 0.950 . S
H489 C519 0.950 . S
C490 H472 0.951 . S
C490 C491 1.366 . S
C490 C492 1.388 . S
C491 C490 1.366 . S
C491 C495 1.385 . S
C492 H473 0.951 . S
C492 C490 1.388 . S
C492 C493 1.366 . S
C493 C492 1.366 . S
C493 C494 1.414 . S
C493 C496 1.499 . S
C494 H474 0.950 . S
C494 C493 1.414 . S
C494 C495 1.374 . S
C495 H475 0.950 . S
C495 C491 1.385 . S
C495 C494 1.374 . S
C496 C493 1.499 . S
C496 C497 1.373 . S
C496 C498 1.389 . S
C497 H476 0.950 . S
C497 C496 1.373 . S
C497 C513 1.377 . S
C498 C496 1.389 . S
C498 C499 1.524 . S
C498 C512 1.377 . S
C499 C498 1.524 . S
C499 C500 1.397 . S
C499 C504 1.363 . S
C500 H477 0.950 . S
C500 C499 1.397 . S
C500 C501 1.334 . S
C501 H478 0.950 . S
C501 C500 1.334 . S
C501 C502 1.287 . S
C502 C501 1.287 . S
C502 C503 1.524 . S
C502 H521 0.913 . S
C503 H479 0.950 . S
C503 C502 1.524 . S
C503 C504 1.415 . S
C504 H480 0.950 . S
C504 C499 1.363 . S
C504 C503 1.415 . S
C505 H481 0.951 . S
C505 C506 1.366 . S
C505 C507 1.388 . S
C506 C505 1.366 . S
C506 C510 1.385 . S
C507 H482 0.951 . S
C507 C505 1.388 . S
C507 C508 1.366 . S
C508 C507 1.366 . S
C508 C509 1.414 . S
C508 C511 1.499 . S
C509 H483 0.950 . S
C509 C508 1.414 . S
C509 C510 1.374 . S
C510 H484 0.950 . S
C510 C506 1.385 . S
C510 C509 1.374 . S
C511 C508 1.499 . S
C511 C512 1.373 . S
C511 C513 1.389 . S
C512 H485 0.950 . S
C512 C498 1.377 . S
C512 C511 1.373 . S
C513 C497 1.377 . S
C513 C511 1.389 . S
C513 C514 1.524 . S
C514 C513 1.524 . S
C514 C515 1.397 . S
C514 C519 1.363 . S
C515 H486 0.950 . S
C515 C514 1.397 . S
C515 C516 1.334 . S
C516 H487 0.950 . S
C516 C515 1.334 . S
C516 C517 1.287 . S
C517 C516 1.287 . S
C517 C518 1.524 . S
C517 H520 0.999 . S
C518 H488 0.950 . S
C518 C517 1.524 . S
C518 C519 1.415 . S
C519 H489 0.950 . S
C519 C514 1.363 . S
C519 C518 1.415 . S
H520 C517 0.999 . S
H521 C502 0.913 . S
H522 C540 0.951 . S
H523 C542 0.951 . S
H524 C544 0.950 . S
H525 C545 0.950 . S
H526 C547 0.950 . S
H527 C550 0.950 . S
H528 C551 0.950 . S
H529 C553 0.950 . S
H530 C554 0.950 . S
H531 C555 0.951 . S
H532 C557 0.951 . S
H533 C559 0.950 . S
H534 C560 0.950 . S
H535 C562 0.950 . S
H536 C565 0.950 1_655 S
H537 C566 0.950 . S
H538 C568 0.950 . S
H539 C569 0.950 . S
C540 H522 0.951 . S
C540 C541 1.373 . S
C540 C542 1.388 . S
C541 C540 1.373 . S
C541 C545 1.377 1_655 S
C542 H523 0.951 . S
C542 C540 1.388 . S
C542 C543 1.366 . S
C543 C542 1.366 . S
C543 C544 1.414 1_655 S
C543 C546 1.499 . S
C544 H524 0.950 . S
C544 C543 1.414 1_455 S
C544 C545 1.374 . S
C545 H525 0.950 . S
C545 C541 1.377 1_455 S
C545 C544 1.374 . S
C546 C543 1.499 . S
C546 C547 1.373 1_655 S
C546 C548 1.389 . S
C547 H526 0.950 . S
C547 C546 1.373 1_455 S
C547 C563 1.377 . S
C548 C546 1.389 . S
C548 C549 1.524 . S
C548 C562 1.377 . S
C549 C548 1.524 . S
C549 C550 1.397 . S
C549 C554 1.363 . S
C550 H527 0.950 . S
C550 C549 1.397 . S
C550 C551 1.334 . S
C551 H528 0.950 . S
C551 C550 1.334 . S
C551 C552 1.287 . S
C552 C551 1.287 . S
C552 C553 1.524 . S
C552 H571 0.913 . S
C553 H529 0.950 . S
C553 C552 1.524 . S
C553 C554 1.415 . S
C554 H530 0.950 . S
C554 C549 1.363 . S
C554 C553 1.415 . S
C555 H531 0.951 . S
C555 C556 1.366 1_455 S
C555 C557 1.388 . S
C556 C555 1.366 1_655 S
C556 C560 1.385 . S
C557 H532 0.951 . S
C557 C555 1.388 . S
C557 C558 1.366 1_455 S
C558 C557 1.366 1_655 S
C558 C559 1.414 . S
C558 C561 1.499 . S
C559 H533 0.950 . S
C559 C558 1.414 . S
C559 C560 1.374 . S
C560 H534 0.950 . S
C560 C556 1.385 . S
C560 C559 1.374 . S
C561 C558 1.499 . S
C561 C562 1.373 . S
C561 C563 1.389 1_655 S
C562 H535 0.950 . S
C562 C548 1.377 . S
C562 C561 1.373 . S
C563 C547 1.377 . S
C563 C561 1.389 1_455 S
C563 C564 1.524 . S
C564 C563 1.524 . S
C564 C565 1.397 . S
C564 C569 1.363 . S
C565 H536 0.950 1_455 S
C565 C564 1.397 . S
C565 C566 1.334 . S
C566 H537 0.950 . S
C566 C565 1.334 . S
C566 C567 1.287 . S
C567 C566 1.287 . S
C567 C568 1.524 . S
C567 H570 0.999 . S
C568 H538 0.950 . S
C568 C567 1.524 . S
C568 C569 1.415 . S
C569 H539 0.950 . S
C569 C564 1.363 . S
C569 C568 1.415 . S
H570 C567 0.999 . S
H571 C552 0.913 . S
H572 C590 0.951 . S
H573 C592 0.951 . S
H574 C594 0.950 . S
H575 C595 0.950 . S
H576 C597 0.950 . S
H577 C600 0.950 . S
H578 C601 0.950 . S
H579 C603 0.950 . S
H580 C604 0.953 . S
H581 C605 0.951 . S
H582 C607 0.951 . S
H583 C609 0.950 . S
H584 C610 0.950 1_545 S
H585 C612 0.950 . S
H586 C615 0.950 . S
H587 C616 0.950 . S
H588 C618 0.950 . S
H589 C619 0.950 . S
C590 H572 0.951 . S
C590 C591 1.366 . S
C590 C592 1.388 . S
C591 C590 1.366 . S
C591 C595 1.385 1_554 S
C592 H573 0.951 . S
C592 C590 1.388 . S
C592 C593 1.366 1_554 S
C593 C592 1.366 1_556 S
C593 C594 1.414 . S
C593 C596 1.499 . S
C594 H574 0.950 . S
C594 C593 1.414 . S
C594 C595 1.374 . S
C595 H575 0.950 . S
C595 C591 1.385 1_556 S
C595 C594 1.374 . S
C596 C593 1.499 . S
C596 C597 1.373 . S
C596 C598 1.389 . S
C597 H576 0.950 . S
C597 C596 1.373 . S
C597 C613 1.377 . S
C598 C596 1.389 . S
C598 C599 1.524 . S
C598 C612 1.377 . S
C599 C598 1.524 . S
C599 C600 1.397 . S
C599 C604 1.356 1_556 S
C600 H577 0.950 . S
C600 C599 1.397 . S
C600 C601 1.334 . S
C601 H578 0.950 . S
C601 C600 1.334 . S
C601 C602 1.287 1_566 S
C602 C601 1.287 1_544 S
C602 C603 1.524 . S
C602 H621 0.913 . S
C603 H579 0.950 . S
C603 C602 1.524 . S
C603 C604 1.420 1_545 S
C604 H580 0.953 . S
C604 C599 1.356 1_554 S
C604 C603 1.420 1_565 S
C605 H581 0.951 . S
C605 C606 1.366 . S
C605 C607 1.388 . S
C606 C605 1.366 . S
C606 C610 1.385 . S
C607 H582 0.951 . S
C607 C605 1.388 . S
C607 C608 1.366 . S
C608 C607 1.366 . S
C608 C609 1.414 . S
C608 C611 1.499 . S
C609 H583 0.950 . S
C609 C608 1.414 . S
C609 C610 1.374 . S
C610 H584 0.950 1_565 S
C610 C606 1.385 . S
C610 C609 1.374 . S
C611 C608 1.499 . S
C611 C612 1.373 . S
C611 C613 1.389 . S
C612 H585 0.950 . S
C612 C598 1.377 . S
C612 C611 1.373 . S
C613 C597 1.377 . S
C613 C611 1.389 . S
C613 C614 1.524 . S
C614 C613 1.524 . S
C614 C615 1.397 . S
C614 C619 1.363 . S
C615 H586 0.950 . S
C615 C614 1.397 . S
C615 C616 1.334 . S
C616 H587 0.950 . S
C616 C615 1.334 . S
C616 C617 1.287 . S
C617 C616 1.287 . S
C617 C618 1.524 . S
C617 H620 0.999 . S
C618 H588 0.950 . S
C618 C617 1.524 . S
C618 C619 1.415 . S
C619 H589 0.950 . S
C619 C614 1.363 . S
C619 C618 1.415 . S
H620 C617 0.999 . S
H621 C602 0.913 . S
H622 C640 0.951 . S
H623 C642 0.951 . S
H624 C644 0.950 . S
H625 C645 0.950 . S
H626 C647 0.950 . S
H627 C650 0.950 . S
H628 C651 0.950 . S
H629 C653 0.950 . S
H630 C654 0.950 . S
H631 C655 0.951 . S
H632 C657 0.951 . S
H633 C659 0.950 . S
H634 C660 0.950 . S
H635 C662 0.950 . S
H636 C665 0.950 . S
H637 C666 0.950 . S
H638 C668 0.950 . S
H639 C669 0.950 . S
C640 H622 0.951 . S
C640 C641 1.366 . S
C640 C642 1.388 1_554 S
C641 C640 1.366 . S
C641 C645 1.385 . S
C642 H623 0.951 . S
C642 C640 1.388 1_556 S
C642 C643 1.366 . S
C643 C642 1.366 . S
C643 C644 1.414 1_556 S
C643 C646 1.499 . S
C644 H624 0.950 . S
C644 C643 1.414 1_554 S
C644 C645 1.374 . S
C645 H625 0.950 . S
C645 C641 1.385 . S
C645 C644 1.374 . S
C646 C643 1.499 . S
C646 C647 1.373 . S
C646 C648 1.389 . S
C647 H626 0.950 . S
C647 C646 1.373 . S
C647 C663 1.377 . S
C648 C646 1.389 . S
C648 C649 1.524 . S
C648 C662 1.377 . S
C649 C648 1.524 . S
C649 C650 1.397 1_556 S
C649 C654 1.363 . S
C650 H627 0.950 . S
C650 C649 1.397 1_554 S
C650 C651 1.334 . S
C651 H628 0.950 . S
C651 C650 1.334 . S
C651 C652 1.287 1_554 S
C652 C651 1.287 1_556 S
C652 C653 1.524 . S
C652 H671 0.913 . S
C653 H629 0.950 . S
C653 C652 1.524 . S
C653 C654 1.415 . S
C654 H630 0.950 . S
C654 C649 1.363 . S
C654 C653 1.415 . S
C655 H631 0.951 . S
C655 C656 1.366 . S
C655 C657 1.388 . S
C656 C655 1.366 . S
C656 C660 1.385 . S
C657 H632 0.951 . S
C657 C655 1.388 . S
C657 C658 1.366 . S
C658 C657 1.366 . S
C658 C659 1.414 . S
C658 C661 1.499 . S
C659 H633 0.950 . S
C659 C658 1.414 . S
C659 C660 1.374 . S
C660 H634 0.950 . S
C660 C656 1.385 . S
C660 C659 1.374 . S
C661 C658 1.499 . S
C661 C662 1.373 . S
C661 C663 1.389 . S
C662 H635 0.950 . S
C662 C648 1.377 . S
C662 C661 1.373 . S
C663 C647 1.377 . S
C663 C661 1.389 . S
C663 C664 1.524 . S
C664 C663 1.524 . S
C664 C665 1.397 . S
C664 C669 1.363 . S
C665 H636 0.950 . S
C665 C664 1.397 . S
C665 C666 1.334 . S
C666 H637 0.950 . S
C666 C665 1.334 . S
C666 C667 1.287 . S
C667 C666 1.287 . S
C667 C668 1.524 . S
C667 H670 0.999 . S
C668 H638 0.950 . S
C668 C667 1.524 . S
C668 C669 1.415 . S
C669 H639 0.950 . S
C669 C664 1.363 . S
C669 C668 1.415 . S
H670 C667 0.999 . S
H671 C652 0.913 . S
H672 C690 0.951 . S
H673 C692 0.951 . S
H674 C694 0.950 . S
H675 C695 0.950 . S
H676 C697 0.950 . S
H677 C700 0.950 . S
H678 C701 0.950 . S
H679 C703 0.950 . S
H680 C704 0.950 . S
H681 C705 0.951 . S
H682 C707 0.951 . S
H683 C709 0.950 . S
H684 C710 0.950 . S
H685 C712 0.950 . S
H686 C715 0.950 . S
H687 C716 0.950 . S
H688 C718 0.950 . S
H689 C719 0.950 . S
C690 H672 0.951 . S
C690 C691 1.366 . S
C690 C692 1.388 . S
C691 C690 1.366 . S
C691 C695 1.385 1_554 S
C692 H673 0.951 . S
C692 C690 1.388 . S
C692 C693 1.366 1_554 S
C693 C692 1.366 1_556 S
C693 C694 1.414 . S
C693 C696 1.499 . S
C694 H674 0.950 . S
C694 C693 1.414 . S
C694 C695 1.374 . S
C695 H675 0.950 . S
C695 C691 1.385 1_556 S
C695 C694 1.374 . S
C696 C693 1.499 . S
C696 C697 1.373 . S
C696 C698 1.389 . S
C697 H676 0.950 . S
C697 C696 1.373 . S
C697 C713 1.377 . S
C698 C696 1.389 . S
C698 C699 1.524 1_556 S
C698 C712 1.377 . S
C699 C698 1.524 1_554 S
C699 C700 1.397 . S
C699 C704 1.363 . S
C700 H677 0.950 . S
C700 C699 1.397 . S
C700 C701 1.334 . S
C701 H678 0.950 . S
C701 C700 1.334 . S
C701 C702 1.287 . S
C702 C701 1.287 . S
C702 C703 1.524 . S
C702 H721 0.913 . S
C703 H679 0.950 . S
C703 C702 1.524 . S
C703 C704 1.415 . S
C704 H680 0.950 . S
C704 C699 1.363 . S
C704 C703 1.415 . S
C705 H681 0.951 . S
C705 C706 1.366 . S
C705 C707 1.388 . S
C706 C705 1.366 . S
C706 C710 1.385 . S
C707 H682 0.951 . S
C707 C705 1.388 . S
C707 C708 1.366 . S
C708 C707 1.366 . S
C708 C709 1.414 . S
C708 C711 1.499 . S
C709 H683 0.950 . S
C709 C708 1.414 . S
C709 C710 1.374 . S
C710 H684 0.950 . S
C710 C706 1.385 . S
C710 C709 1.374 . S
C711 C708 1.499 . S
C711 C712 1.373 . S
C711 C713 1.389 . S
C712 H685 0.950 . S
C712 C698 1.377 . S
C712 C711 1.373 . S
C713 C697 1.377 . S
C713 C711 1.389 . S
C713 C714 1.524 . S
C714 C713 1.524 . S
C714 C715 1.397 . S
C714 C719 1.363 . S
C715 H686 0.950 . S
C715 C714 1.397 . S
C715 C716 1.334 . S
C716 H687 0.950 . S
C716 C715 1.334 . S
C716 C717 1.287 . S
C717 C716 1.287 . S
C717 C718 1.524 . S
C717 H720 0.999 . S
C718 H688 0.950 . S
C718 C717 1.524 . S
C718 C719 1.415 . S
C719 H689 0.950 . S
C719 C714 1.363 . S
C719 C718 1.415 . S
H720 C717 0.999 . S
H721 C702 0.913 . S
H722 C740 0.951 . S
H723 C742 0.951 . S
H724 C744 0.950 . S
H725 C745 0.950 . S
H726 C747 0.950 1_554 S
H727 C750 0.950 . S
H728 C751 0.950 . S
H729 C753 0.950 . S
H730 C754 0.950 . S
H731 C755 0.951 . S
H732 C757 0.951 . S
H733 C759 0.950 . S
H734 C760 0.950 . S
H735 C762 0.950 . S
H736 C765 0.950 . S
H737 C766 0.950 . S
H738 C768 0.950 . S
H739 C769 0.950 . S
C740 H722 0.951 . S
C740 C741 1.374 . S
C740 C742 1.388 1_554 S
C741 C740 1.374 . S
C741 C745 1.376 1_455 S
C742 H723 0.951 . S
C742 C740 1.388 1_556 S
C742 C743 1.408 . S
C743 C742 1.408 . S
C743 C744 1.373 1_456 S
C743 C746 1.499 . S
C744 H724 0.950 . S
C744 C743 1.373 1_654 S
C744 C745 1.374 . S
C745 H725 0.950 . S
C745 C741 1.376 1_655 S
C745 C744 1.374 . S
C746 C743 1.499 . S
C746 C747 1.360 1_455 S
C746 C748 1.406 . S
C747 H726 0.950 1_556 S
C747 C746 1.360 1_655 S
C747 C763 1.377 . S
C748 C746 1.406 . S
C748 C749 1.524 . S
C748 C762 1.377 . S
C749 C748 1.524 . S
C749 C750 1.397 1_455 S
C749 C754 1.363 . S
C750 H727 0.950 . S
C750 C749 1.397 1_655 S
C750 C751 1.334 . S
C751 H728 0.950 . S
C751 C750 1.334 . S
C751 C752 1.287 1_655 S
C752 C751 1.287 1_455 S
C752 C753 1.524 . S
C752 H771 0.913 . S
C753 H729 0.950 . S
C753 C752 1.524 . S
C753 C754 1.415 . S
C754 H730 0.950 . S
C754 C749 1.363 . S
C754 C753 1.415 . S
C755 H731 0.951 . S
C755 C756 1.366 1_655 S
C755 C757 1.388 . S
C756 C755 1.366 1_455 S
C756 C760 1.385 . S
C757 H732 0.951 . S
C757 C755 1.388 . S
C757 C758 1.366 1_655 S
C758 C757 1.366 1_455 S
C758 C759 1.414 . S
C758 C761 1.499 . S
C759 H733 0.950 . S
C759 C758 1.414 . S
C759 C760 1.374 . S
C760 H734 0.950 . S
C760 C756 1.385 . S
C760 C759 1.374 . S
C761 C758 1.499 . S
C761 C762 1.373 . S
C761 C763 1.389 1_455 S
C762 H735 0.950 . S
C762 C748 1.377 . S
C762 C761 1.373 . S
C763 C747 1.377 . S
C763 C761 1.389 1_655 S
C763 C764 1.524 . S
C764 C763 1.524 . S
C764 C765 1.397 1_655 S
C764 C769 1.363 . S
C765 H736 0.950 . S
C765 C764 1.397 1_455 S
C765 C766 1.334 . S
C766 H737 0.950 . S
C766 C765 1.334 . S
C766 C767 1.287 1_456 S
C767 C766 1.287 1_654 S
C767 C768 1.524 . S
C767 H770 0.999 . S
C768 H738 0.950 . S
C768 C767 1.524 . S
C768 C769 1.415 1_554 S
C769 H739 0.950 . S
C769 C764 1.363 . S
C769 C768 1.415 1_556 S
H770 C767 0.999 . S
H771 C752 0.913 . S
H772 C790 0.951 . S
H773 C792 0.951 . S
H774 C794 0.950 . S
H775 C795 0.950 . S
H776 C797 0.950 . S
H777 C800 0.950 . S
H778 C801 0.950 . S
H779 C803 0.950 . S
H780 C804 0.950 . S
H781 C805 0.951 . S
H782 C807 0.951 . S
H783 C809 0.950 . S
H784 C810 0.950 . S
H785 C812 0.950 . S
H786 C815 0.950 . S
H787 C816 0.950 . S
H788 C818 0.950 . S
H789 C819 0.950 . S
C790 H772 0.951 . S
C790 C791 1.366 . S
C790 C792 1.388 . S
C791 C790 1.366 . S
C791 C795 1.385 1_455 S
C792 H773 0.951 . S
C792 C790 1.388 . S
C792 C793 1.366 1_455 S
C793 C792 1.366 1_655 S
C793 C794 1.414 . S
C793 C796 1.499 . S
C794 H774 0.950 . S
C794 C793 1.414 . S
C794 C795 1.374 . S
C795 H775 0.950 . S
C795 C791 1.385 1_655 S
C795 C794 1.374 . S
C796 C793 1.499 . S
C796 C797 1.373 . S
C796 C798 1.389 1_655 S
C797 H776 0.950 . S
C797 C796 1.373 . S
C797 C813 1.377 . S
C798 C796 1.389 1_455 S
C798 C799 1.524 . S
C798 C812 1.377 . S
C799 C798 1.524 . S
C799 C800 1.397 . S
C799 C804 1.363 . S
C800 H777 0.950 . S
C800 C799 1.397 . S
C800 C801 1.334 . S
C801 H778 0.950 . S
C801 C800 1.334 . S
C801 C802 1.287 . S
C802 C801 1.287 . S
C802 C803 1.524 . S
C802 H821 0.913 . S
C803 H779 0.950 . S
C803 C802 1.524 . S
C803 C804 1.415 . S
C804 H780 0.950 . S
C804 C799 1.363 . S
C804 C803 1.415 . S
C805 H781 0.951 . S
C805 C806 1.366 . S
C805 C807 1.388 . S
C806 C805 1.366 . S
C806 C810 1.385 1_655 S
C807 H782 0.951 . S
C807 C805 1.388 . S
C807 C808 1.366 . S
C808 C807 1.366 . S
C808 C809 1.414 1_655 S
C808 C811 1.499 . S
C809 H783 0.950 . S
C809 C808 1.414 1_455 S
C809 C810 1.374 . S
C810 H784 0.950 . S
C810 C806 1.385 1_455 S
C810 C809 1.374 . S
C811 C808 1.499 . S
C811 C812 1.373 1_655 S
C811 C813 1.389 . S
C812 H785 0.950 . S
C812 C798 1.377 . S
C812 C811 1.373 1_455 S
C813 C797 1.377 . S
C813 C811 1.389 . S
C813 C814 1.524 . S
C814 C813 1.524 . S
C814 C815 1.397 . S
C814 C819 1.363 . S
C815 H786 0.950 . S
C815 C814 1.397 . S
C815 C816 1.334 . S
C816 H787 0.950 . S
C816 C815 1.334 . S
C816 C817 1.287 . S
C817 C816 1.287 . S
C817 C818 1.524 . S
C817 H820 0.999 . S
C818 H788 0.950 . S
C818 C817 1.524 . S
C818 C819 1.415 . S
C819 H789 0.950 . S
C819 C814 1.363 . S
C819 C818 1.415 . S
H820 C817 0.999 . S
H821 C802 0.913 . S
H822 C840 0.951 . S
H823 C842 0.951 . S
H824 C844 0.950 . S
H825 C845 0.950 . S
H826 C847 0.950 . S
H827 C850 0.950 . S
H828 C851 0.950 . S
H829 C853 0.950 . S
H830 C854 0.950 . S
H831 C855 0.951 . S
H832 C857 0.951 . S
H833 C859 0.950 . S
H834 C860 0.950 1_565 S
H835 C862 0.950 . S
H836 C865 0.950 . S
H837 C866 0.944 1_565 S
H838 C868 0.950 . S
H839 C869 0.950 . S
C840 H822 0.951 . S
C840 C841 1.366 . S
C840 C842 1.388 . S
C841 C840 1.366 . S
C841 C845 1.385 . S
C842 H823 0.951 . S
C842 C840 1.388 . S
C842 C843 1.366 . S
C843 C842 1.366 . S
C843 C844 1.414 . S
C843 C846 1.499 . S
C844 H824 0.950 . S
C844 C843 1.414 . S
C844 C845 1.374 . S
C845 H825 0.950 . S
C845 C841 1.385 . S
C845 C844 1.374 . S
C846 C843 1.499 . S
C846 C847 1.373 . S
C846 C848 1.389 . S
C847 H826 0.950 . S
C847 C846 1.373 . S
C847 C863 1.377 . S
C848 C846 1.389 . S
C848 C849 1.524 . S
C848 C862 1.377 . S
C849 C848 1.524 . S
C849 C850 1.397 . S
C849 C854 1.363 . S
C850 H827 0.950 . S
C850 C849 1.397 . S
C850 C851 1.334 . S
C851 H828 0.950 . S
C851 C850 1.334 . S
C851 C852 1.287 . S
C852 C851 1.287 . S
C852 C853 1.524 . S
C852 H871 0.913 . S
C853 H829 0.950 . S
C853 C852 1.524 . S
C853 C854 1.415 . S
C854 H830 0.950 . S
C854 C849 1.363 . S
C854 C853 1.415 . S
C855 H831 0.951 . S
C855 C856 1.366 . S
C855 C857 1.388 . S
C856 C855 1.366 . S
C856 C860 1.385 . S
C857 H832 0.951 . S
C857 C855 1.388 . S
C857 C858 1.366 . S
C858 C857 1.366 . S
C858 C859 1.414 . S
C858 C861 1.499 . S
C859 H833 0.950 . S
C859 C858 1.414 . S
C859 C860 1.374 . S
C860 H834 0.950 1_545 S
C860 C856 1.385 . S
C860 C859 1.374 . S
C861 C858 1.499 . S
C861 C862 1.373 . S
C861 C863 1.389 . S
C862 H835 0.950 . S
C862 C848 1.377 . S
C862 C861 1.373 . S
C863 C847 1.377 . S
C863 C861 1.389 . S
C863 C864 1.524 . S
C864 C863 1.524 . S
C864 C865 1.397 . S
C864 C869 1.363 . S
C865 H836 0.950 . S
C865 C864 1.397 . S
C865 C866 1.334 . S
C866 H837 0.944 1_545 S
C866 C865 1.334 . S
C866 C867 1.287 . S
C867 C866 1.287 . S
C867 C868 1.524 . S
C867 H870 0.999 . S
C868 H838 0.950 . S
C868 C867 1.524 . S
C868 C869 1.415 . S
C869 H839 0.950 . S
C869 C864 1.363 . S
C869 C868 1.415 . S
H870 C867 0.999 . S
H871 C852 0.913 . S
H872 C890 0.951 . S
H873 C892 0.951 . S
H874 C894 0.950 . S
H875 C895 0.950 . S
H876 C897 0.950 . S
H877 C900 0.950 . S
H878 C901 0.950 . S
H879 C903 0.950 . S
H880 C904 0.950 . S
H881 C905 0.951 . S
H882 C907 0.951 . S
H883 C909 0.950 . S
H884 C910 0.950 . S
H885 C912 0.950 . S
H886 C915 0.950 . S
H887 C916 0.950 . S
H888 C918 0.950 . S
H889 C919 0.950 . S
C890 H872 0.951 . S
C890 C891 1.366 . S
C890 C892 1.388 . S
C891 C890 1.366 . S
C891 C895 1.385 . S
C892 H873 0.951 . S
C892 C890 1.388 . S
C892 C893 1.366 . S
C893 C892 1.366 . S
C893 C894 1.414 . S
C893 C896 1.499 . S
C894 H874 0.950 . S
C894 C893 1.414 . S
C894 C895 1.374 . S
C895 H875 0.950 . S
C895 C891 1.385 . S
C895 C894 1.374 . S
C896 C893 1.499 . S
C896 C897 1.373 . S
C896 C898 1.389 . S
C897 H876 0.950 . S
C897 C896 1.373 . S
C897 C913 1.377 . S
C898 C896 1.389 . S
C898 C899 1.524 . S
C898 C912 1.377 . S
C899 C898 1.524 . S
C899 C900 1.397 . S
C899 C904 1.363 . S
C900 H877 0.950 . S
C900 C899 1.397 . S
C900 C901 1.334 . S
C901 H878 0.950 . S
C901 C900 1.334 . S
C901 C902 1.287 . S
C902 C901 1.287 . S
C902 C903 1.524 . S
C902 H921 0.913 . S
C903 H879 0.950 . S
C903 C902 1.524 . S
C903 C904 1.415 . S
C904 H880 0.950 . S
C904 C899 1.363 . S
C904 C903 1.415 . S
C905 H881 0.951 . S
C905 C906 1.366 . S
C905 C907 1.388 . S
C906 C905 1.366 . S
C906 C910 1.385 . S
C907 H882 0.951 . S
C907 C905 1.388 . S
C907 C908 1.366 . S
C908 C907 1.366 . S
C908 C909 1.414 . S
C908 C911 1.499 . S
C909 H883 0.950 . S
C909 C908 1.414 . S
C909 C910 1.374 . S
C910 H884 0.950 . S
C910 C906 1.385 . S
C910 C909 1.374 . S
C911 C908 1.499 . S
C911 C912 1.373 . S
C911 C913 1.389 . S
C912 H885 0.950 . S
C912 C898 1.377 . S
C912 C911 1.373 . S
C913 C897 1.377 . S
C913 C911 1.389 . S
C913 C914 1.524 . S
C914 C913 1.524 . S
C914 C915 1.397 . S
C914 C919 1.363 . S
C915 H886 0.950 . S
C915 C914 1.397 . S
C915 C916 1.334 . S
C916 H887 0.950 . S
C916 C915 1.334 . S
C916 C917 1.287 . S
C917 C916 1.287 . S
C917 C918 1.524 . S
C917 H920 0.999 . S
C918 H888 0.950 . S
C918 C917 1.524 . S
C918 C919 1.415 . S
C919 H889 0.950 . S
C919 C914 1.363 . S
C919 C918 1.415 . S
H920 C917 0.999 . S
H921 C902 0.913 . S
H922 C940 0.951 . S
H923 C942 0.951 . S
H924 C944 0.950 . S
H925 C945 0.950 . S
H926 C947 0.950 . S
H927 C950 0.950 . S
H928 C951 0.950 . S
H929 C953 0.950 . S
H930 C954 0.950 . S
H931 C955 0.951 . S
H932 C957 0.951 . S
H933 C959 0.950 . S
H934 C960 0.950 . S
H935 C962 0.950 . S
H936 C965 0.950 . S
H937 C966 0.950 . S
H938 C968 0.950 . S
H939 C969 0.950 . S
C940 H922 0.951 . S
C940 C941 1.366 . S
C940 C942 1.388 . S
C941 C940 1.366 . S
C941 C945 1.385 . S
C942 H923 0.951 . S
C942 C940 1.388 . S
C942 C943 1.366 . S
C943 C942 1.366 . S
C943 C944 1.414 . S
C943 C946 1.499 . S
C944 H924 0.950 . S
C944 C943 1.414 . S
C944 C945 1.374 . S
C945 H925 0.950 . S
C945 C941 1.385 . S
C945 C944 1.374 . S
C946 C943 1.499 . S
C946 C947 1.373 . S
C946 C948 1.389 . S
C947 H926 0.950 . S
C947 C946 1.373 . S
C947 C963 1.377 . S
C948 C946 1.389 . S
C948 C949 1.524 . S
C948 C962 1.377 . S
C949 C948 1.524 . S
C949 C950 1.397 . S
C949 C954 1.363 . S
C950 H927 0.950 . S
C950 C949 1.397 . S
C950 C951 1.334 . S
C951 H928 0.950 . S
C951 C950 1.334 . S
C951 C952 1.287 . S
C952 C951 1.287 . S
C952 C953 1.524 . S
C952 H971 0.913 . S
C953 H929 0.950 . S
C953 C952 1.524 . S
C953 C954 1.415 . S
C954 H930 0.950 . S
C954 C949 1.363 . S
C954 C953 1.415 . S
C955 H931 0.951 . S
C955 C956 1.366 . S
C955 C957 1.388 . S
C956 C955 1.366 . S
C956 C960 1.385 . S
C957 H932 0.951 . S
C957 C955 1.388 . S
C957 C958 1.366 . S
C958 C957 1.366 . S
C958 C959 1.414 . S
C958 C961 1.499 . S
C959 H933 0.950 . S
C959 C958 1.414 . S
C959 C960 1.374 . S
C960 H934 0.950 . S
C960 C956 1.385 . S
C960 C959 1.374 . S
C961 C958 1.499 . S
C961 C962 1.373 . S
C961 C963 1.389 . S
C962 H935 0.950 . S
C962 C948 1.377 . S
C962 C961 1.373 . S
C963 C947 1.377 . S
C963 C961 1.389 . S
C963 C964 1.524 . S
C964 C963 1.524 . S
C964 C965 1.397 . S
C964 C969 1.363 . S
C965 H936 0.950 . S
C965 C964 1.397 . S
C965 C966 1.334 . S
C966 H937 0.950 . S
C966 C965 1.334 . S
C966 C967 1.287 . S
C967 C966 1.287 . S
C967 C968 1.524 . S
C967 H970 0.999 . S
C968 H938 0.950 . S
C968 C967 1.524 . S
C968 C969 1.415 . S
C969 H939 0.950 . S
C969 C964 1.363 . S
C969 C968 1.415 . S
H970 C967 0.999 . S
H971 C952 0.913 . S
H972 C990 0.951 1_554 S
H973 C992 0.951 . S
H974 C994 0.950 . S
H975 C995 0.950 . S
H976 C997 0.950 . S
H977 C1000 0.950 1_556 S
H978 C1001 0.950 . S
H979 C1003 0.950 . S
H980 C1004 0.950 . S
H981 C1005 0.951 . S
H982 C1007 0.951 . S
H983 C1009 0.950 . S
H984 C1010 0.950 . S
H985 C1012 0.950 . S
H986 C1015 0.950 . S
H987 C1016 0.950 . S
H988 C1018 0.950 . S
H989 C1019 0.950 . S
C990 H972 0.951 1_556 S
C990 C991 1.323 1_455 S
C990 C992 1.388 . S
C991 C990 1.323 1_655 S
C991 C995 1.424 . S
C992 H973 0.951 . S
C992 C990 1.388 . S
C992 C993 1.366 . S
C993 C992 1.366 . S
C993 C994 1.414 1_455 S
C993 C996 1.499 . S
C994 H974 0.950 . S
C994 C993 1.414 1_655 S
C994 C995 1.374 . S
C995 H975 0.950 . S
C995 C991 1.424 . S
C995 C994 1.374 . S
C996 C993 1.499 . S
C996 C997 1.373 . S
C996 C998 1.389 . S
C997 H976 0.950 . S
C997 C996 1.373 . S
C997 C1013 1.377 . S
C998 C996 1.389 . S
C998 C999 1.524 . S
C998 C1012 1.377 . S
C999 C998 1.524 . S
C999 C1000 1.397 1_456 S
C999 C1004 1.363 1_556 S
C1000 H977 0.950 1_554 S
C1000 C999 1.397 1_654 S
C1000 C1001 1.334 . S
C1001 H978 0.950 . S
C1001 C1000 1.334 . S
C1001 C1002 1.287 . S
C1002 C1001 1.287 . S
C1002 C1003 1.524 1_655 S
C1002 H1021 0.913 . S
C1003 H979 0.950 . S
C1003 C1002 1.524 1_455 S
C1003 C1004 1.415 . S
C1004 H980 0.950 . S
C1004 C999 1.363 1_554 S
C1004 C1003 1.415 . S
C1005 H981 0.951 . S
C1005 C1006 1.366 1_655 S
C1005 C1007 1.388 . S
C1006 C1005 1.366 1_455 S
C1006 C1010 1.385 . S
C1007 H982 0.951 . S
C1007 C1005 1.388 . S
C1007 C1008 1.366 1_655 S
C1008 C1007 1.366 1_455 S
C1008 C1009 1.414 . S
C1008 C1011 1.499 . S
C1009 H983 0.950 . S
C1009 C1008 1.414 . S
C1009 C1010 1.374 . S
C1010 H984 0.950 . S
C1010 C1006 1.385 . S
C1010 C1009 1.374 . S
C1011 C1008 1.499 . S
C1011 C1012 1.373 . S
C1011 C1013 1.389 . S
C1012 H985 0.950 . S
C1012 C998 1.377 . S
C1012 C1011 1.373 . S
C1013 C997 1.377 . S
C1013 C1011 1.389 . S
C1013 C1014 1.524 . S
C1014 C1013 1.524 . S
C1014 C1015 1.397 . S
C1014 C1019 1.363 1_455 S
C1015 H986 0.950 . S
C1015 C1014 1.397 . S
C1015 C1016 1.334 . S
C1016 H987 0.950 . S
C1016 C1015 1.334 . S
C1016 C1017 1.287 . S
C1017 C1016 1.287 . S
C1017 C1018 1.524 1_455 S
C1017 H1020 0.999 . S
C1018 H988 0.950 . S
C1018 C1017 1.524 1_655 S
C1018 C1019 1.415 . S
C1019 H989 0.950 . S
C1019 C1014 1.363 1_655 S
C1019 C1018 1.415 . S
H1020 C1017 0.999 . S
H1021 C1002 0.913 . S
H1022 C1040 0.951 . S
H1023 C1042 0.951 . S
H1024 C1044 0.950 . S
H1025 C1045 0.950 . S
H1026 C1047 0.950 . S
H1027 C1050 0.949 1_554 S
H1028 C1051 0.950 . S
H1029 C1053 0.950 1_545 S
H1030 C1054 0.950 . S
H1031 C1055 0.951 . S
H1032 C1057 0.951 . S
H1033 C1059 0.950 1_545 S
H1034 C1060 0.950 . S
H1035 C1062 0.950 . S
H1036 C1065 0.950 . S
H1037 C1066 0.950 . S
H1038 C1068 0.950 . S
H1039 C1069 0.950 . S
C1040 H1022 0.951 . S
C1040 C1041 1.366 . S
C1040 C1042 1.388 . S
C1041 C1040 1.366 . S
C1041 C1045 1.385 . S
C1042 H1023 0.951 . S
C1042 C1040 1.388 . S
C1042 C1043 1.366 . S
C1043 C1042 1.366 . S
C1043 C1044 1.414 . S
C1043 C1046 1.499 . S
C1044 H1024 0.950 . S
C1044 C1043 1.414 . S
C1044 C1045 1.374 . S
C1045 H1025 0.950 . S
C1045 C1041 1.385 . S
C1045 C1044 1.374 . S
C1046 C1043 1.499 . S
C1046 C1047 1.373 . S
C1046 C1048 1.389 . S
C1047 H1026 0.950 . S
C1047 C1046 1.373 . S
C1047 C1063 1.377 . S
C1048 C1046 1.389 . S
C1048 C1049 1.524 . S
C1048 C1062 1.377 . S
C1049 C1048 1.524 . S
C1049 C1050 1.397 . S
C1049 C1054 1.363 . S
C1050 H1027 0.949 1_556 S
C1050 C1049 1.397 . S
C1050 C1051 1.334 1_556 S
C1051 H1028 0.950 . S
C1051 C1050 1.334 1_554 S
C1051 C1052 1.287 . S
C1052 C1051 1.287 . S
C1052 C1053 1.524 1_554 S
C1052 H1071 0.913 . S
C1053 H1029 0.950 1_565 S
C1053 C1052 1.524 1_556 S
C1053 C1054 1.415 . S
C1054 H1030 0.950 . S
C1054 C1049 1.363 . S
C1054 C1053 1.415 . S
C1055 H1031 0.951 . S
C1055 C1056 1.366 1_565 S
C1055 C1057 1.388 . S
C1056 C1055 1.366 1_545 S
C1056 C1060 1.385 . S
C1057 H1032 0.951 . S
C1057 C1055 1.388 . S
C1057 C1058 1.366 . S
C1058 C1057 1.366 . S
C1058 C1059 1.414 . S
C1058 C1061 1.499 . S
C1059 H1033 0.950 1_565 S
C1059 C1058 1.414 . S
C1059 C1060 1.374 1_565 S
C1060 H1034 0.950 . S
C1060 C1056 1.385 . S
C1060 C1059 1.374 1_545 S
C1061 C1058 1.499 . S
C1061 C1062 1.373 . S
C1061 C1063 1.389 . S
C1062 H1035 0.950 . S
C1062 C1048 1.377 . S
C1062 C1061 1.373 . S
C1063 C1047 1.377 . S
C1063 C1061 1.389 . S
C1063 C1064 1.524 . S
C1064 C1063 1.524 . S
C1064 C1065 1.397 . S
C1064 C1069 1.363 . S
C1065 H1036 0.950 . S
C1065 C1064 1.397 . S
C1065 C1066 1.334 . S
C1066 H1037 0.950 . S
C1066 C1065 1.334 . S
C1066 C1067 1.287 . S
C1067 C1066 1.287 . S
C1067 C1068 1.524 . S
C1067 H1070 0.999 . S
C1068 H1038 0.950 . S
C1068 C1067 1.524 . S
C1068 C1069 1.415 . S
C1069 H1039 0.950 . S
C1069 C1064 1.363 . S
C1069 C1068 1.415 . S
H1070 C1067 0.999 . S
H1071 C1052 0.913 . S
H1072 C1090 0.951 1_554 S
H1073 C1092 0.951 . S
H1074 C1094 0.950 . S
H1075 C1095 0.950 . S
H1076 C1097 0.950 . S
H1077 C1100 0.950 . S
H1078 C1101 0.950 . S
H1079 C1103 0.950 . S
H1080 C1104 0.950 . S
H1081 C1105 0.951 . S
H1082 C1107 0.951 . S
H1083 C1109 0.950 . S
H1084 C1110 0.950 . S
H1085 C1112 0.950 . S
H1086 C1115 0.950 . S
H1087 C1116 0.950 . S
H1088 C1118 0.950 . S
H1089 C1119 0.950 . S
C1090 H1072 0.951 1_556 S
C1090 C1091 1.366 . S
C1090 C1092 1.388 . S
C1091 C1090 1.366 . S
C1091 C1095 1.385 . S
C1092 H1073 0.951 . S
C1092 C1090 1.388 . S
C1092 C1093 1.366 . S
C1093 C1092 1.366 . S
C1093 C1094 1.414 . S
C1093 C1096 1.499 . S
C1094 H1074 0.950 . S
C1094 C1093 1.414 . S
C1094 C1095 1.374 . S
C1095 H1075 0.950 . S
C1095 C1091 1.385 . S
C1095 C1094 1.374 . S
C1096 C1093 1.499 . S
C1096 C1097 1.373 . S
C1096 C1098 1.389 . S
C1097 H1076 0.950 . S
C1097 C1096 1.373 . S
C1097 C1113 1.377 . S
C1098 C1096 1.389 . S
C1098 C1099 1.524 . S
C1098 C1112 1.377 . S
C1099 C1098 1.524 . S
C1099 C1100 1.397 . S
C1099 C1104 1.363 1_556 S
C1100 H1077 0.950 . S
C1100 C1099 1.397 . S
C1100 C1101 1.334 1_556 S
C1101 H1078 0.950 . S
C1101 C1100 1.334 1_554 S
C1101 C1102 1.287 . S
C1102 C1101 1.287 . S
C1102 C1103 1.524 . S
C1102 H1121 0.913 . S
C1103 H1079 0.950 . S
C1103 C1102 1.524 . S
C1103 C1104 1.415 . S
C1104 H1080 0.950 . S
C1104 C1099 1.363 1_554 S
C1104 C1103 1.415 . S
C1105 H1081 0.951 . S
C1105 C1106 1.366 . S
C1105 C1107 1.388 . S
C1106 C1105 1.366 . S
C1106 C1110 1.385 . S
C1107 H1082 0.951 . S
C1107 C1105 1.388 . S
C1107 C1108 1.366 . S
C1108 C1107 1.366 . S
C1108 C1109 1.414 . S
C1108 C1111 1.499 . S
C1109 H1083 0.950 . S
C1109 C1108 1.414 . S
C1109 C1110 1.374 . S
C1110 H1084 0.950 . S
C1110 C1106 1.385 . S
C1110 C1109 1.374 . S
C1111 C1108 1.499 . S
C1111 C1112 1.373 . S
C1111 C1113 1.389 . S
C1112 H1085 0.950 . S
C1112 C1098 1.377 . S
C1112 C1111 1.373 . S
C1113 C1097 1.377 . S
C1113 C1111 1.389 . S
C1113 C1114 1.524 . S
C1114 C1113 1.524 . S
C1114 C1115 1.397 . S
C1114 C1119 1.363 . S
C1115 H1086 0.950 . S
C1115 C1114 1.397 . S
C1115 C1116 1.334 . S
C1116 H1087 0.950 . S
C1116 C1115 1.334 . S
C1116 C1117 1.287 . S
C1117 C1116 1.287 . S
C1117 C1118 1.524 . S
C1117 H1120 0.999 . S
C1118 H1088 0.950 . S
C1118 C1117 1.524 . S
C1118 C1119 1.415 . S
C1119 H1089 0.950 . S
C1119 C1114 1.363 . S
C1119 C1118 1.415 . S
H1120 C1117 0.999 . S
H1121 C1102 0.913 . S
H1122 C1140 0.951 1_554 S
H1123 C1142 0.951 . S
H1124 C1144 0.950 . S
H1125 C1145 0.950 . S
H1126 C1147 0.950 . S
H1127 C1150 0.950 . S
H1128 C1151 0.950 . S
H1129 C1153 0.950 1_554 S
H1130 C1154 0.950 . S
H1131 C1155 0.951 . S
H1132 C1157 0.951 . S
H1133 C1159 0.950 . S
H1134 C1160 0.950 . S
H1135 C1162 0.950 . S
H1136 C1165 0.950 . S
H1137 C1166 0.950 . S
H1138 C1168 0.950 . S
H1139 C1169 0.950 . S
C1140 H1122 0.951 1_556 S
C1140 C1141 1.366 . S
C1140 C1142 1.388 . S
C1141 C1140 1.366 . S
C1141 C1145 1.385 . S
C1142 H1123 0.951 . S
C1142 C1140 1.388 . S
C1142 C1143 1.366 . S
C1143 C1142 1.366 . S
C1143 C1144 1.414 . S
C1143 C1146 1.499 . S
C1144 H1124 0.950 . S
C1144 C1143 1.414 . S
C1144 C1145 1.374 . S
C1145 H1125 0.950 . S
C1145 C1141 1.385 . S
C1145 C1144 1.374 . S
C1146 C1143 1.499 . S
C1146 C1147 1.373 . S
C1146 C1148 1.389 . S
C1147 H1126 0.950 . S
C1147 C1146 1.373 . S
C1147 C1163 1.377 . S
C1148 C1146 1.389 . S
C1148 C1149 1.524 . S
C1148 C1162 1.377 . S
C1149 C1148 1.524 . S
C1149 C1150 1.397 . S
C1149 C1154 1.363 . S
C1150 H1127 0.950 . S
C1150 C1149 1.397 . S
C1150 C1151 1.334 . S
C1151 H1128 0.950 . S
C1151 C1150 1.334 . S
C1151 C1152 1.287 . S
C1152 C1151 1.287 . S
C1152 C1153 1.524 . S
C1152 H1171 0.913 . S
C1153 H1129 0.950 1_556 S
C1153 C1152 1.524 . S
C1153 C1154 1.415 . S
C1154 H1130 0.950 . S
C1154 C1149 1.363 . S
C1154 C1153 1.415 . S
C1155 H1131 0.951 . S
C1155 C1156 1.366 . S
C1155 C1157 1.388 . S
C1156 C1155 1.366 . S
C1156 C1160 1.385 . S
C1157 H1132 0.951 . S
C1157 C1155 1.388 . S
C1157 C1158 1.366 . S
C1158 C1157 1.366 . S
C1158 C1159 1.414 . S
C1158 C1161 1.499 . S
C1159 H1133 0.950 . S
C1159 C1158 1.414 . S
C1159 C1160 1.374 . S
C1160 H1134 0.950 . S
C1160 C1156 1.385 . S
C1160 C1159 1.374 . S
C1161 C1158 1.499 . S
C1161 C1162 1.373 . S
C1161 C1163 1.389 . S
C1162 H1135 0.950 . S
C1162 C1148 1.377 . S
C1162 C1161 1.373 . S
C1163 C1147 1.377 . S
C1163 C1161 1.389 . S
C1163 C1164 1.524 . S
C1164 C1163 1.524 . S
C1164 C1165 1.397 . S
C1164 C1169 1.363 . S
C1165 H1136 0.950 . S
C1165 C1164 1.397 . S
C1165 C1166 1.334 . S
C1166 H1137 0.950 . S
C1166 C1165 1.334 . S
C1166 C1167 1.287 . S
C1167 C1166 1.287 . S
C1167 C1168 1.524 . S
C1167 H1170 0.999 . S
C1168 H1138 0.950 . S
C1168 C1167 1.524 . S
C1168 C1169 1.415 . S
C1169 H1139 0.950 . S
C1169 C1164 1.363 . S
C1169 C1168 1.415 . S
H1170 C1167 0.999 . S
H1171 C1152 0.913 . S
H1172 C1190 0.951 . S
H1173 C1192 0.951 . S
H1174 C1194 0.950 1_556 S
H1175 C1195 0.950 . S
H1176 C1197 0.950 . S
H1177 C1200 0.950 . S
H1178 C1201 0.950 . S
H1179 C1203 0.950 . S
H1180 C1204 0.950 . S
H1181 C1205 0.951 . S
H1182 C1207 0.951 . S
H1183 C1209 0.950 . S
H1184 C1210 0.950 . S
H1185 C1212 0.950 . S
H1186 C1215 0.950 . S
H1187 C1216 0.950 . S
H1188 C1218 0.950 . S
H1189 C1219 0.950 . S
C1190 H1172 0.951 . S
C1190 C1191 1.395 . S
C1190 C1192 1.388 . S
C1191 C1190 1.395 . S
C1191 C1195 1.357 1_455 S
C1192 H1173 0.951 . S
C1192 C1190 1.388 . S
C1192 C1193 1.366 . S
C1193 C1192 1.366 . S
C1193 C1194 1.414 1_455 S
C1193 C1196 1.499 1_554 S
C1194 H1174 0.950 1_554 S
C1194 C1193 1.414 1_655 S
C1194 C1195 1.374 . S
C1195 H1175 0.950 . S
C1195 C1191 1.357 1_655 S
C1195 C1194 1.374 . S
C1196 C1193 1.499 1_556 S
C1196 C1197 1.373 1_455 S
C1196 C1198 1.389 . S
C1197 H1176 0.950 . S
C1197 C1196 1.373 1_655 S
C1197 C1213 1.377 . S
C1198 C1196 1.389 . S
C1198 C1199 1.524 . S
C1198 C1212 1.377 . S
C1199 C1198 1.524 . S
C1199 C1200 1.397 . S
C1199 C1204 1.363 . S
C1200 H1177 0.950 . S
C1200 C1199 1.397 . S
C1200 C1201 1.334 . S
C1201 H1178 0.950 . S
C1201 C1200 1.334 . S
C1201 C1202 1.287 . S
C1202 C1201 1.287 . S
C1202 C1203 1.524 . S
C1202 H1221 0.913 . S
C1203 H1179 0.950 . S
C1203 C1202 1.524 . S
C1203 C1204 1.415 . S
C1204 H1180 0.950 . S
C1204 C1199 1.363 . S
C1204 C1203 1.415 . S
C1205 H1181 0.951 . S
C1205 C1206 1.366 1_655 S
C1205 C1207 1.388 . S
C1206 C1205 1.366 1_455 S
C1206 C1210 1.385 . S
C1207 H1182 0.951 . S
C1207 C1205 1.388 . S
C1207 C1208 1.366 1_655 S
C1208 C1207 1.366 1_455 S
C1208 C1209 1.414 . S
C1208 C1211 1.499 . S
C1209 H1183 0.950 . S
C1209 C1208 1.414 . S
C1209 C1210 1.374 . S
C1210 H1184 0.950 . S
C1210 C1206 1.385 . S
C1210 C1209 1.374 . S
C1211 C1208 1.499 . S
C1211 C1212 1.373 . S
C1211 C1213 1.389 1_455 S
C1212 H1185 0.950 . S
C1212 C1198 1.377 . S
C1212 C1211 1.373 . S
C1213 C1197 1.377 . S
C1213 C1211 1.389 1_655 S
C1213 C1214 1.524 . S
C1214 C1213 1.524 . S
C1214 C1215 1.397 . S
C1214 C1219 1.363 . S
C1215 H1186 0.950 . S
C1215 C1214 1.397 . S
C1215 C1216 1.334 . S
C1216 H1187 0.950 . S
C1216 C1215 1.334 . S
C1216 C1217 1.287 . S
C1217 C1216 1.287 . S
C1217 C1218 1.524 . S
C1217 H1220 0.999 . S
C1218 H1188 0.950 . S
C1218 C1217 1.524 . S
C1218 C1219 1.415 . S
C1219 H1189 0.950 . S
C1219 C1214 1.363 . S
C1219 C1218 1.415 . S
H1220 C1217 0.999 . S
H1221 C1202 0.913 . S
H1222 C1240 0.951 . S
H1223 C1242 0.951 . S
H1224 C1244 0.950 . S
H1225 C1245 0.950 . S
H1226 C1247 0.950 . S
H1227 C1250 0.950 . S
H1228 C1251 0.950 . S
H1229 C1253 0.950 . S
H1230 C1254 0.950 . S
H1231 C1255 0.951 . S
H1232 C1257 0.951 . S
H1233 C1259 0.950 . S
H1234 C1260 0.950 . S
H1235 C1262 0.950 . S
H1236 C1265 0.950 . S
H1237 C1266 0.950 . S
H1238 C1268 0.950 . S
H1239 C1269 0.950 . S
C1240 H1222 0.951 . S
C1240 C1241 1.366 . S
C1240 C1242 1.388 . S
C1241 C1240 1.366 . S
C1241 C1245 1.385 . S
C1242 H1223 0.951 . S
C1242 C1240 1.388 . S
C1242 C1243 1.366 . S
C1243 C1242 1.366 . S
C1243 C1244 1.414 1_554 S
C1243 C1246 1.499 1_554 S
C1244 H1224 0.950 . S
C1244 C1243 1.414 1_556 S
C1244 C1245 1.374 1_556 S
C1245 H1225 0.950 . S
C1245 C1241 1.385 . S
C1245 C1244 1.374 1_554 S
C1246 C1243 1.499 1_556 S
C1246 C1247 1.373 . S
C1246 C1248 1.389 . S
C1247 H1226 0.950 . S
C1247 C1246 1.373 . S
C1247 C1263 1.377 . S
C1248 C1246 1.389 . S
C1248 C1249 1.524 1_556 S
C1248 C1262 1.377 . S
C1249 C1248 1.524 1_554 S
C1249 C1250 1.397 1_554 S
C1249 C1254 1.363 . S
C1250 H1227 0.950 . S
C1250 C1249 1.397 1_556 S
C1250 C1251 1.334 . S
C1251 H1228 0.950 . S
C1251 C1250 1.334 . S
C1251 C1252 1.287 1_556 S
C1252 C1251 1.287 1_554 S
C1252 C1253 1.524 . S
C1252 H1271 0.913 . S
C1253 H1229 0.950 . S
C1253 C1252 1.524 . S
C1253 C1254 1.415 . S
C1254 H1230 0.950 . S
C1254 C1249 1.363 . S
C1254 C1253 1.415 . S
C1255 H1231 0.951 . S
C1255 C1256 1.366 . S
C1255 C1257 1.388 . S
C1256 C1255 1.366 . S
C1256 C1260 1.385 . S
C1257 H1232 0.951 . S
C1257 C1255 1.388 . S
C1257 C1258 1.366 . S
C1258 C1257 1.366 . S
C1258 C1259 1.414 . S
C1258 C1261 1.499 . S
C1259 H1233 0.950 . S
C1259 C1258 1.414 . S
C1259 C1260 1.374 . S
C1260 H1234 0.950 . S
C1260 C1256 1.385 . S
C1260 C1259 1.374 . S
C1261 C1258 1.499 . S
C1261 C1262 1.373 . S
C1261 C1263 1.389 . S
C1262 H1235 0.950 . S
C1262 C1248 1.377 . S
C1262 C1261 1.373 . S
C1263 C1247 1.377 . S
C1263 C1261 1.389 . S
C1263 C1264 1.524 . S
C1264 C1263 1.524 . S
C1264 C1265 1.397 . S
C1264 C1269 1.363 . S
C1265 H1236 0.950 . S
C1265 C1264 1.397 . S
C1265 C1266 1.334 1_545 S
C1266 H1237 0.950 . S
C1266 C1265 1.334 1_565 S
C1266 C1267 1.287 . S
C1267 C1266 1.287 . S
C1267 C1268 1.524 1_565 S
C1267 H1270 0.999 . S
C1268 H1238 0.950 . S
C1268 C1267 1.524 1_545 S
C1268 C1269 1.415 . S
C1269 H1239 0.950 . S
C1269 C1264 1.363 . S
C1269 C1268 1.415 . S
H1270 C1267 0.999 . S
H1271 C1252 0.913 . S
H1272 C1290 0.951 . S
H1273 C1292 0.951 . S
H1274 C1294 0.950 . S
H1275 C1295 0.949 1_556 S
H1276 C1297 0.950 . S
H1277 C1300 0.950 . S
H1278 C1301 0.950 . S
H1279 C1303 0.950 . S
H1280 C1304 0.950 . S
H1281 C1305 0.951 . S
H1282 C1307 0.951 . S
H1283 C1309 0.950 . S
H1284 C1310 0.950 . S
H1285 C1312 0.950 . S
H1286 C1315 0.950 . S
H1287 C1316 0.950 . S
H1288 C1318 0.950 . S
H1289 C1319 0.950 . S
C1290 H1272 0.951 . S
C1290 C1291 1.366 . S
C1290 C1292 1.388 . S
C1291 C1290 1.366 . S
C1291 C1295 1.385 . S
C1292 H1273 0.951 . S
C1292 C1290 1.388 . S
C1292 C1293 1.366 . S
C1293 C1292 1.366 . S
C1293 C1294 1.414 1_554 S
C1293 C1296 1.499 1_554 S
C1294 H1274 0.950 . S
C1294 C1293 1.414 1_556 S
C1294 C1295 1.374 1_556 S
C1295 H1275 0.949 1_554 S
C1295 C1291 1.385 . S
C1295 C1294 1.374 1_554 S
C1296 C1293 1.499 1_556 S
C1296 C1297 1.373 . S
C1296 C1298 1.389 . S
C1297 H1276 0.950 . S
C1297 C1296 1.373 . S
C1297 C1313 1.377 . S
C1298 C1296 1.389 . S
C1298 C1299 1.524 1_556 S
C1298 C1312 1.377 . S
C1299 C1298 1.524 1_554 S
C1299 C1300 1.397 . S
C1299 C1304 1.363 . S
C1300 H1277 0.950 . S
C1300 C1299 1.397 . S
C1300 C1301 1.334 . S
C1301 H1278 0.950 . S
C1301 C1300 1.334 . S
C1301 C1302 1.287 . S
C1302 C1301 1.287 . S
C1302 C1303 1.524 . S
C1302 H1321 0.913 . S
C1303 H1279 0.950 . S
C1303 C1302 1.524 . S
C1303 C1304 1.415 . S
C1304 H1280 0.950 . S
C1304 C1299 1.363 . S
C1304 C1303 1.415 . S
C1305 H1281 0.951 . S
C1305 C1306 1.366 . S
C1305 C1307 1.388 . S
C1306 C1305 1.366 . S
C1306 C1310 1.385 . S
C1307 H1282 0.951 . S
C1307 C1305 1.388 . S
C1307 C1308 1.366 . S
C1308 C1307 1.366 . S
C1308 C1309 1.414 . S
C1308 C1311 1.499 . S
C1309 H1283 0.950 . S
C1309 C1308 1.414 . S
C1309 C1310 1.374 . S
C1310 H1284 0.950 . S
C1310 C1306 1.385 . S
C1310 C1309 1.374 . S
C1311 C1308 1.499 . S
C1311 C1312 1.373 . S
C1311 C1313 1.389 . S
C1312 H1285 0.950 . S
C1312 C1298 1.377 . S
C1312 C1311 1.373 . S
C1313 C1297 1.377 . S
C1313 C1311 1.389 . S
C1313 C1314 1.524 . S
C1314 C1313 1.524 . S
C1314 C1315 1.397 . S
C1314 C1319 1.363 . S
C1315 H1286 0.950 . S
C1315 C1314 1.397 . S
C1315 C1316 1.334 . S
C1316 H1287 0.950 . S
C1316 C1315 1.334 . S
C1316 C1317 1.287 . S
C1317 C1316 1.287 . S
C1317 C1318 1.524 . S
C1317 H1320 0.999 . S
C1318 H1288 0.950 . S
C1318 C1317 1.524 . S
C1318 C1319 1.415 . S
C1319 H1289 0.950 . S
C1319 C1314 1.363 . S
C1319 C1318 1.415 . S
H1320 C1317 0.999 . S
H1321 C1302 0.913 . S
H1322 C1340 0.951 . S
H1323 C1342 0.951 . S
H1324 C1344 0.950 1_556 S
H1325 C1345 0.950 . S
H1326 C1347 0.950 . S
H1327 C1350 0.950 . S
H1328 C1351 0.950 1_556 S
H1329 C1353 0.950 . S
H1330 C1354 0.950 . S
H1331 C1355 0.951 . S
H1332 C1357 0.951 . S
H1333 C1359 0.950 . S
H1334 C1360 0.950 . S
H1335 C1362 0.950 . S
H1336 C1365 0.950 . S
H1337 C1366 0.950 . S
H1338 C1368 0.950 . S
H1339 C1369 0.950 . S
C1340 H1322 0.951 . S
C1340 C1341 1.366 . S
C1340 C1342 1.388 . S
C1341 C1340 1.366 . S
C1341 C1345 1.385 . S
C1342 H1323 0.951 . S
C1342 C1340 1.388 . S
C1342 C1343 1.366 . S
C1343 C1342 1.366 . S
C1343 C1344 1.414 . S
C1343 C1346 1.499 1_554 S
C1344 H1324 0.950 1_554 S
C1344 C1343 1.414 . S
C1344 C1345 1.374 . S
C1345 H1325 0.950 . S
C1345 C1341 1.385 . S
C1345 C1344 1.374 . S
C1346 C1343 1.499 1_556 S
C1346 C1347 1.373 . S
C1346 C1348 1.389 . S
C1347 H1326 0.950 . S
C1347 C1346 1.373 . S
C1347 C1363 1.377 . S
C1348 C1346 1.389 . S
C1348 C1349 1.524 1_556 S
C1348 C1362 1.377 . S
C1349 C1348 1.524 1_554 S
C1349 C1350 1.397 1_554 S
C1349 C1354 1.363 . S
C1350 H1327 0.950 . S
C1350 C1349 1.397 1_556 S
C1350 C1351 1.334 1_556 S
C1351 H1328 0.950 1_554 S
C1351 C1350 1.334 1_554 S
C1351 C1352 1.287 . S
C1352 C1351 1.287 . S
C1352 C1353 1.524 . S
C1352 H1371 0.913 . S
C1353 H1329 0.950 . S
C1353 C1352 1.524 . S
C1353 C1354 1.415 . S
C1354 H1330 0.950 . S
C1354 C1349 1.363 . S
C1354 C1353 1.415 . S
C1355 H1331 0.951 . S
C1355 C1356 1.366 . S
C1355 C1357 1.388 . S
C1356 C1355 1.366 . S
C1356 C1360 1.385 . S
C1357 H1332 0.951 . S
C1357 C1355 1.388 . S
C1357 C1358 1.366 . S
C1358 C1357 1.366 . S
C1358 C1359 1.414 . S
C1358 C1361 1.499 . S
C1359 H1333 0.950 . S
C1359 C1358 1.414 . S
C1359 C1360 1.374 . S
C1360 H1334 0.950 . S
C1360 C1356 1.385 . S
C1360 C1359 1.374 . S
C1361 C1358 1.499 . S
C1361 C1362 1.373 . S
C1361 C1363 1.389 . S
C1362 H1335 0.950 . S
C1362 C1348 1.377 . S
C1362 C1361 1.373 . S
C1363 C1347 1.377 . S
C1363 C1361 1.389 . S
C1363 C1364 1.524 . S
C1364 C1363 1.524 . S
C1364 C1365 1.397 . S
C1364 C1369 1.363 . S
C1365 H1336 0.950 . S
C1365 C1364 1.397 . S
C1365 C1366 1.334 . S
C1366 H1337 0.950 . S
C1366 C1365 1.334 . S
C1366 C1367 1.287 . S
C1367 C1366 1.287 . S
C1367 C1368 1.524 . S
C1367 H1370 0.999 . S
C1368 H1338 0.950 . S
C1368 C1367 1.524 . S
C1368 C1369 1.415 . S
C1369 H1339 0.950 . S
C1369 C1364 1.363 . S
C1369 C1368 1.415 . S
H1370 C1367 0.999 . S
H1371 C1352 0.913 . S
H1372 C1390 0.951 . S
H1373 C1392 0.951 . S
H1374 C1394 0.950 . S
H1375 C1395 0.950 . S
H1376 C1397 0.950 . S
H1377 C1400 0.950 1_455 S
H1378 C1401 0.950 1_455 S
H1379 C1403 0.950 . S
H1380 C1404 0.950 . S
H1381 C1405 0.951 . S
H1382 C1407 0.951 . S
H1383 C1409 0.950 . S
H1384 C1410 0.950 . S
H1385 C1412 0.950 . S
H1386 C1415 0.950 . S
H1387 C1416 0.950 . S
H1388 C1418 0.950 . S
H1389 C1419 0.950 . S
C1390 H1372 0.951 . S
C1390 C1391 1.399 . S
C1390 C1392 1.388 . S
C1391 C1390 1.399 . S
C1391 C1395 1.351 1_655 S
C1392 H1373 0.951 . S
C1392 C1390 1.388 . S
C1392 C1393 1.366 . S
C1393 C1392 1.366 . S
C1393 C1394 1.414 1_655 S
C1393 C1396 1.499 . S
C1394 H1374 0.950 . S
C1394 C1393 1.414 1_455 S
C1394 C1395 1.374 . S
C1395 H1375 0.950 . S
C1395 C1391 1.351 1_455 S
C1395 C1394 1.374 . S
C1396 C1393 1.499 . S
C1396 C1397 1.373 1_655 S
C1396 C1398 1.389 . S
C1397 H1376 0.950 . S
C1397 C1396 1.373 1_455 S
C1397 C1413 1.377 . S
C1398 C1396 1.389 . S
C1398 C1399 1.524 . S
C1398 C1412 1.377 . S
C1399 C1398 1.524 . S
C1399 C1400 1.397 . S
C1399 C1404 1.363 . S
C1400 H1377 0.950 1_655 S
C1400 C1399 1.397 . S
C1400 C1401 1.334 . S
C1401 H1378 0.950 1_655 S
C1401 C1400 1.334 . S
C1401 C1402 1.287 . S
C1402 C1401 1.287 . S
C1402 C1403 1.524 . S
C1402 H1421 0.913 . S
C1403 H1379 0.950 . S
C1403 C1402 1.524 . S
C1403 C1404 1.415 . S
C1404 H1380 0.950 . S
C1404 C1399 1.363 . S
C1404 C1403 1.415 . S
C1405 H1381 0.951 . S
C1405 C1406 1.366 1_455 S
C1405 C1407 1.388 . S
C1406 C1405 1.366 1_655 S
C1406 C1410 1.385 . S
C1407 H1382 0.951 . S
C1407 C1405 1.388 . S
C1407 C1408 1.366 1_455 S
C1408 C1407 1.366 1_655 S
C1408 C1409 1.414 . S
C1408 C1411 1.499 . S
C1409 H1383 0.950 . S
C1409 C1408 1.414 . S
C1409 C1410 1.374 . S
C1410 H1384 0.950 . S
C1410 C1406 1.385 . S
C1410 C1409 1.374 . S
C1411 C1408 1.499 . S
C1411 C1412 1.373 . S
C1411 C1413 1.389 1_655 S
C1412 H1385 0.950 . S
C1412 C1398 1.377 . S
C1412 C1411 1.373 . S
C1413 C1397 1.377 . S
C1413 C1411 1.389 1_455 S
C1413 C1414 1.524 . S
C1414 C1413 1.524 . S
C1414 C1415 1.397 1_455 S
C1414 C1419 1.363 . S
C1415 H1386 0.950 . S
C1415 C1414 1.397 1_655 S
C1415 C1416 1.334 . S
C1416 H1387 0.950 . S
C1416 C1415 1.334 . S
C1416 C1417 1.287 1_655 S
C1417 C1416 1.287 1_455 S
C1417 C1418 1.524 . S
C1417 H1420 0.999 . S
C1418 H1388 0.950 . S
C1418 C1417 1.524 . S
C1418 C1419 1.415 . S
C1419 H1389 0.950 . S
C1419 C1414 1.363 . S
C1419 C1418 1.415 . S
H1420 C1417 0.999 . S
H1421 C1402 0.913 . S
H1422 C1440 0.951 . S
H1423 C1442 0.951 . S
H1424 C1444 0.950 . S
H1425 C1445 0.950 . S
H1426 C1447 0.950 . S
H1427 C1450 0.950 . S
H1428 C1451 0.950 . S
H1429 C1453 0.950 . S
H1430 C1454 0.950 . S
H1431 C1455 0.951 . S
H1432 C1457 0.951 . S
H1433 C1459 0.950 . S
H1434 C1460 0.928 1_545 S
H1435 C1462 0.950 . S
H1436 C1465 0.950 . S
H1437 C1466 0.950 . S
H1438 C1468 0.950 . S
H1439 C1469 0.950 . S
C1440 H1422 0.951 . S
C1440 C1441 1.366 . S
C1440 C1442 1.388 . S
C1441 C1440 1.366 . S
C1441 C1445 1.385 . S
C1442 H1423 0.951 . S
C1442 C1440 1.388 . S
C1442 C1443 1.366 . S
C1443 C1442 1.366 . S
C1443 C1444 1.414 . S
C1443 C1446 1.499 . S
C1444 H1424 0.950 . S
C1444 C1443 1.414 . S
C1444 C1445 1.374 . S
C1445 H1425 0.950 . S
C1445 C1441 1.385 . S
C1445 C1444 1.374 . S
C1446 C1443 1.499 . S
C1446 C1447 1.373 . S
C1446 C1448 1.389 . S
C1447 H1426 0.950 . S
C1447 C1446 1.373 . S
C1447 C1463 1.377 . S
C1448 C1446 1.389 . S
C1448 C1449 1.524 . S
C1448 C1462 1.377 . S
C1449 C1448 1.524 . S
C1449 C1450 1.397 . S
C1449 C1454 1.363 . S
C1450 H1427 0.950 . S
C1450 C1449 1.397 . S
C1450 C1451 1.334 . S
C1451 H1428 0.950 . S
C1451 C1450 1.334 . S
C1451 C1452 1.287 . S
C1452 C1451 1.287 . S
C1452 C1453 1.524 . S
C1452 H1471 0.913 . S
C1453 H1429 0.950 . S
C1453 C1452 1.524 . S
C1453 C1454 1.415 . S
C1454 H1430 0.950 . S
C1454 C1449 1.363 . S
C1454 C1453 1.415 . S
C1455 H1431 0.951 . S
C1455 C1456 1.366 . S
C1455 C1457 1.388 . S
C1456 C1455 1.366 . S
C1456 C1460 1.385 . S
C1457 H1432 0.951 . S
C1457 C1455 1.388 . S
C1457 C1458 1.366 . S
C1458 C1457 1.366 . S
C1458 C1459 1.414 . S
C1458 C1461 1.499 . S
C1459 H1433 0.950 . S
C1459 C1458 1.414 . S
C1459 C1460 1.374 . S
C1460 H1434 0.928 1_565 S
C1460 C1456 1.385 . S
C1460 C1459 1.374 . S
C1461 C1458 1.499 . S
C1461 C1462 1.373 . S
C1461 C1463 1.389 . S
C1462 H1435 0.950 . S
C1462 C1448 1.377 . S
C1462 C1461 1.373 . S
C1463 C1447 1.377 . S
C1463 C1461 1.389 . S
C1463 C1464 1.524 . S
C1464 C1463 1.524 . S
C1464 C1465 1.397 . S
C1464 C1469 1.363 . S
C1465 H1436 0.950 . S
C1465 C1464 1.397 . S
C1465 C1466 1.334 . S
C1466 H1437 0.950 . S
C1466 C1465 1.334 . S
C1466 C1467 1.287 . S
C1467 C1466 1.287 . S
C1467 C1468 1.524 . S
C1467 H1470 0.999 . S
C1468 H1438 0.950 . S
C1468 C1467 1.524 . S
C1468 C1469 1.415 . S
C1469 H1439 0.950 . S
C1469 C1464 1.363 . S
C1469 C1468 1.415 . S
H1470 C1467 0.999 . S
H1471 C1452 0.913 . S
H1472 C1490 0.951 . S
H1473 C1492 0.951 . S
H1474 C1494 0.950 . S
H1475 C1495 0.950 . S
H1476 C1497 0.950 . S
H1477 C1500 0.950 . S
H1478 C1501 0.950 . S
H1479 C1503 0.950 . S
H1480 C1504 0.950 . S
H1481 C1505 0.951 . S
H1482 C1507 0.951 . S
H1483 C1509 0.950 . S
H1484 C1510 0.950 . S
H1485 C1512 0.950 . S
H1486 C1515 0.950 . S
H1487 C1516 0.950 . S
H1488 C1518 0.950 . S
H1489 C1519 0.950 . S
C1490 H1472 0.951 . S
C1490 C1491 1.366 . S
C1490 C1492 1.388 . S
C1491 C1490 1.366 . S
C1491 C1495 1.385 . S
C1492 H1473 0.951 . S
C1492 C1490 1.388 . S
C1492 C1493 1.366 . S
C1493 C1492 1.366 . S
C1493 C1494 1.414 . S
C1493 C1496 1.499 . S
C1494 H1474 0.950 . S
C1494 C1493 1.414 . S
C1494 C1495 1.374 . S
C1495 H1475 0.950 . S
C1495 C1491 1.385 . S
C1495 C1494 1.374 . S
C1496 C1493 1.499 . S
C1496 C1497 1.373 . S
C1496 C1498 1.389 . S
C1497 H1476 0.950 . S
C1497 C1496 1.373 . S
C1497 C1513 1.377 . S
C1498 C1496 1.389 . S
C1498 C1499 1.524 . S
C1498 C1512 1.377 . S
C1499 C1498 1.524 . S
C1499 C1500 1.397 . S
C1499 C1504 1.363 . S
C1500 H1477 0.950 . S
C1500 C1499 1.397 . S
C1500 C1501 1.334 . S
C1501 H1478 0.950 . S
C1501 C1500 1.334 . S
C1501 C1502 1.287 . S
C1502 C1501 1.287 . S
C1502 C1503 1.524 . S
C1502 H1521 0.913 . S
C1503 H1479 0.950 . S
C1503 C1502 1.524 . S
C1503 C1504 1.415 . S
C1504 H1480 0.950 . S
C1504 C1499 1.363 . S
C1504 C1503 1.415 . S
C1505 H1481 0.951 . S
C1505 C1506 1.366 . S
C1505 C1507 1.388 . S
C1506 C1505 1.366 . S
C1506 C1510 1.385 . S
C1507 H1482 0.951 . S
C1507 C1505 1.388 . S
C1507 C1508 1.366 . S
C1508 C1507 1.366 . S
C1508 C1509 1.414 . S
C1508 C1511 1.499 . S
C1509 H1483 0.950 . S
C1509 C1508 1.414 . S
C1509 C1510 1.374 . S
C1510 H1484 0.950 . S
C1510 C1506 1.385 . S
C1510 C1509 1.374 . S
C1511 C1508 1.499 . S
C1511 C1512 1.373 . S
C1511 C1513 1.389 . S
C1512 H1485 0.950 . S
C1512 C1498 1.377 . S
C1512 C1511 1.373 . S
C1513 C1497 1.377 . S
C1513 C1511 1.389 . S
C1513 C1514 1.524 . S
C1514 C1513 1.524 . S
C1514 C1515 1.397 . S
C1514 C1519 1.363 . S
C1515 H1486 0.950 . S
C1515 C1514 1.397 . S
C1515 C1516 1.334 . S
C1516 H1487 0.950 . S
C1516 C1515 1.334 . S
C1516 C1517 1.287 . S
C1517 C1516 1.287 . S
C1517 C1518 1.524 . S
C1517 H1520 0.999 . S
C1518 H1488 0.950 . S
C1518 C1517 1.524 . S
C1518 C1519 1.415 . S
C1519 H1489 0.950 . S
C1519 C1514 1.363 . S
C1519 C1518 1.415 . S
H1520 C1517 0.999 . S
H1521 C1502 0.913 . S
H1522 C1540 0.951 . S
H1523 C1542 0.951 . S
H1524 C1544 0.950 . S
H1525 C1545 0.950 . S
H1526 C1547 0.950 . S
H1527 C1550 0.950 . S
H1528 C1551 0.950 . S
H1529 C1553 0.950 . S
H1530 C1554 0.950 . S
H1531 C1555 0.951 . S
H1532 C1557 0.951 . S
H1533 C1559 0.950 . S
H1534 C1560 0.950 . S
H1535 C1562 0.950 . S
H1536 C1565 0.950 . S
H1537 C1566 0.950 . S
H1538 C1568 0.950 . S
H1539 C1569 0.950 . S
C1540 H1522 0.951 . S
C1540 C1541 1.366 . S
C1540 C1542 1.388 . S
C1541 C1540 1.366 . S
C1541 C1545 1.385 . S
C1542 H1523 0.951 . S
C1542 C1540 1.388 . S
C1542 C1543 1.366 . S
C1543 C1542 1.366 . S
C1543 C1544 1.414 . S
C1543 C1546 1.499 . S
C1544 H1524 0.950 . S
C1544 C1543 1.414 . S
C1544 C1545 1.374 . S
C1545 H1525 0.950 . S
C1545 C1541 1.385 . S
C1545 C1544 1.374 . S
C1546 C1543 1.499 . S
C1546 C1547 1.373 . S
C1546 C1548 1.389 . S
C1547 H1526 0.950 . S
C1547 C1546 1.373 . S
C1547 C1563 1.377 . S
C1548 C1546 1.389 . S
C1548 C1549 1.524 . S
C1548 C1562 1.377 . S
C1549 C1548 1.524 . S
C1549 C1550 1.397 . S
C1549 C1554 1.363 . S
C1550 H1527 0.950 . S
C1550 C1549 1.397 . S
C1550 C1551 1.334 . S
C1551 H1528 0.950 . S
C1551 C1550 1.334 . S
C1551 C1552 1.287 . S
C1552 C1551 1.287 . S
C1552 C1553 1.524 . S
C1552 H1571 0.913 . S
C1553 H1529 0.950 . S
C1553 C1552 1.524 . S
C1553 C1554 1.415 . S
C1554 H1530 0.950 . S
C1554 C1549 1.363 . S
C1554 C1553 1.415 . S
C1555 H1531 0.951 . S
C1555 C1556 1.366 . S
C1555 C1557 1.388 . S
C1556 C1555 1.366 . S
C1556 C1560 1.385 . S
C1557 H1532 0.951 . S
C1557 C1555 1.388 . S
C1557 C1558 1.366 . S
C1558 C1557 1.366 . S
C1558 C1559 1.414 . S
C1558 C1561 1.499 . S
C1559 H1533 0.950 . S
C1559 C1558 1.414 . S
C1559 C1560 1.374 . S
C1560 H1534 0.950 . S
C1560 C1556 1.385 . S
C1560 C1559 1.374 . S
C1561 C1558 1.499 . S
C1561 C1562 1.373 . S
C1561 C1563 1.389 . S
C1562 H1535 0.950 . S
C1562 C1548 1.377 . S
C1562 C1561 1.373 . S
C1563 C1547 1.377 . S
C1563 C1561 1.389 . S
C1563 C1564 1.524 . S
C1564 C1563 1.524 . S
C1564 C1565 1.397 . S
C1564 C1569 1.363 . S
C1565 H1536 0.950 . S
C1565 C1564 1.397 . S
C1565 C1566 1.334 . S
C1566 H1537 0.950 . S
C1566 C1565 1.334 . S
C1566 C1567 1.287 . S
C1567 C1566 1.287 . S
C1567 C1568 1.524 . S
C1567 H1570 0.999 . S
C1568 H1538 0.950 . S
C1568 C1567 1.524 . S
C1568 C1569 1.415 . S
C1569 H1539 0.950 . S
C1569 C1564 1.363 . S
C1569 C1568 1.415 . S
H1570 C1567 0.999 . S
H1571 C1552 0.913 . S
C391 C241 1.902 . S
C406 C303 1.794 . S
C456 C327 1.290 . S
C441 C277 1.477 . S
C506 C348 1.766 . S
C491 C169 1.879 . S
C556 C366 1.323 . S
C541 C205 1.472 1_655 S
C606 C306 1.710 1_565 S
C591 C97 1.760 . S
C641 C133 1.382 . S
C656 C324 1.212 . S
C691 C25 1.736 . S
C706 C345 1.681 . S
C741 C61 1.381 . S
C756 C369 1.245 . S
C806 C304 0.497 . S
C791 C211 0.435 . S
C856 C322 0.427 . S
C841 C247 0.460 . S
C906 C343 0.488 . S
C891 C253 0.341 . S
C941 C175 0.467 . S
C956 C367 0.427 . S
C991 C67 0.355 1_655 S
C1006 C302 0.336 . S
C1056 C326 0.405 . S
C1041 C103 0.574 . S
C1106 C347 0.344 . S
C1091 C109 0.255 . S
C1141 C31 0.574 . S
C1156 C365 0.387 . S
C1191 C181 1.847 . S
C1206 C305 1.840 . S
C1241 C217 2.118 . S
C1256 C323 2.100 . S
C1306 C344 1.786 . S
C1291 C283 1.780 . S
C1356 C368 2.134 . S
C1341 C145 2.149 . S
C1391 C37 1.695 1_655 S
C1406 C301 1.690 . S
C1456 C325 1.938 . S
C1441 C73 1.921 . S
C1506 C346 1.631 . S
C1491 C139 1.616 . S
C1541 C1 1.953 . S
C1556 C364 1.971 . S
