# Generated by pormake.
# Topology tsx, (6,3)-cn, num edge types: 1
# Building blocks:
#     Node 0, Type 0, BuildingBlock: JUFBIX_clean_sbu_0, # of connection points: 6
#     Node 1, Type 0, BuildingBlock: JUFBIX_clean_sbu_0, # of connection points: 6
#     Node 2, Type 1, BuildingBlock: CUQRIR_clean_linker_1, # of connection points: 3
#     Node 3, Type 1, BuildingBlock: CUQRIR_clean_linker_1, # of connection points: 3
#     Node 4, Type 1, BuildingBlock: CUQRIR_clean_linker_1, # of connection points: 3
#     Node 5, Type 1, BuildingBlock: CUQRIR_clean_linker_1, # of connection points: 3
#     Edge 6, Type (0, 1), BuildingBlock: UVAHIK_clean_linker_0, # of connection points: 2
#     Edge 7, Type (0, 1), BuildingBlock: UVAHIK_clean_linker_0, # of connection points: 2
#     Edge 8, Type (0, 1), BuildingBlock: UVAHIK_clean_linker_0, # of connection points: 2
#     Edge 9, Type (0, 1), BuildingBlock: UVAHIK_clean_linker_0, # of connection points: 2
#     Edge 10, Type (0, 1), BuildingBlock: UVAHIK_clean_linker_0, # of connection points: 2
#     Edge 11, Type (0, 1), BuildingBlock: UVAHIK_clean_linker_0, # of connection points: 2
#     Edge 12, Type (0, 1), BuildingBlock: UVAHIK_clean_linker_0, # of connection points: 2
#     Edge 13, Type (0, 1), BuildingBlock: UVAHIK_clean_linker_0, # of connection points: 2
#     Edge 14, Type (0, 1), BuildingBlock: UVAHIK_clean_linker_0, # of connection points: 2
#     Edge 15, Type (0, 1), BuildingBlock: UVAHIK_clean_linker_0, # of connection points: 2
#     Edge 16, Type (0, 1), BuildingBlock: UVAHIK_clean_linker_0, # of connection points: 2
#     Edge 17, Type (0, 1), BuildingBlock: UVAHIK_clean_linker_0, # of connection points: 2
# Relax obj value: 0.139
# Max RMSD: 0.157
# Mean RMSD: 0.146
data_MOF--net-tsx--node1-JUFBIX_clean_sbu_0--node2-CUQRIR_clean_linker_1--edge1-UVAHIK_clean_linker_0
_symmetry_space_group_name_H-M    P1
_symmetry_Int_Tables_number       1
_symmetry_cell_setting            triclinic
loop_
_symmetry_equiv_pos_as_xyz
'x, y, z'
_cell_length_a     24.166062
_cell_length_b     28.579852
_cell_length_c     41.389306
_cell_angle_alpha  82.202716
_cell_angle_beta   89.156768
_cell_angle_gamma 97.504486
loop_
_atom_site_label
_atom_site_type_symbol
_atom_site_fract_x
_atom_site_fract_y
_atom_site_fract_z
_atom_type_partial_charge
Co0 Co 0.10606 0.03617 0.98806 0.0
C1 C 0.06136 0.07885 0.93068 0.0
Co2 Co 0.03497 0.07588 -0.00503 0.0
C3 C 0.1761 0.96024 0.98658 0.0
C4 C 0.21193 0.02696 0.95982 0.0
N5 N 0.16708 1.0061 0.97863 0.0
N6 N 0.22498 0.95186 0.97351 0.0
C7 C 0.24744 0.99396 0.9567 0.0
H8 H 0.14715 0.93352 0.00143 0.0
H9 H 0.21781 0.06365 0.9483 0.0
C10 C 0.08032 0.03292 0.05228 0.0
N11 N 0.97368 0.1051 0.00436 0.0
C12 C 0.95631 0.1456 -0.01027 0.0
C13 C 0.93504 0.08777 0.02831 0.0
N14 N 0.90851 0.15421 0.00385 0.0
C15 C 0.89518 0.11781 0.02812 0.0
C16 C 1.00347 0.97984 -0.00996 0.0
O17 O 0.11424 0.01893 0.03315 0.0
O18 O 0.04374 0.05798 0.04044 0.0
O19 O 0.98711 0.01929 -0.00657 0.0
O20 O 0.05565 0.9778 0.98708 0.0
O21 O 0.02722 0.09308 0.9496 0.0
H22 H 0.93529 0.05483 0.0446 0.0
H23 H 0.97828 0.16822 0.96917 0.0
O24 O 0.09769 0.05374 0.94275 0.0
O25 O 0.15476 0.09528 -0.01041 0.0
O26 O 0.08272 0.13283 -0.00371 0.0
C27 C 0.13518 0.13366 -0.00682 0.0
H28 H 0.2859 1.00021 0.94211 0.0
H29 H 0.85827 0.11244 0.04401 0.0
Co30 Co 0.58229 0.48757 0.49972 0.0
C31 C 0.55364 0.53306 0.43889 0.0
Co32 Co 0.51099 0.52913 0.5005 0.0
C33 C 0.65173 0.41071 0.50329 0.0
C34 C 0.69516 0.47854 0.48266 0.0
N35 N 0.64537 0.4573 0.49593 0.0
N36 N 0.70363 0.40224 0.49517 0.0
C37 C 0.7309 0.44502 0.48225 0.0
H38 H 0.61876 0.38351 0.51403 0.0
H39 H 0.7045 0.51588 0.47293 0.0
C40 C 0.54045 0.48311 0.56133 0.0
N41 N 0.44667 0.55785 0.50447 0.0
C42 C 0.4288 0.5966 0.48738 0.0
C43 C 0.40391 0.53892 0.52556 0.0
N44 N 0.3764 0.60199 0.49695 0.0
C45 C 0.36107 0.56585 0.5211 0.0
C46 C 0.48259 0.43303 0.4929 0.0
O47 O 0.57809 0.46833 0.54519 0.0
O48 O 0.50835 0.5101 0.54648 0.0
O49 O 0.46532 0.47258 0.49495 0.0
O50 O 0.53468 0.43051 0.49397 0.0
O51 O 0.5152 0.54759 0.45467 0.0
H52 H 0.40317 0.50661 0.54262 0.0
H53 H 0.45279 0.61926 0.46757 0.0
O54 O 0.58613 0.50681 0.45411 0.0
O55 O 0.62848 0.54564 0.50592 0.0
O56 O 0.55673 0.58559 0.50597 0.0
C57 C 0.60901 0.58459 0.50778 0.0
H58 H 0.77306 0.45147 0.47193 0.0
H59 H 0.32139 0.55904 0.5345 0.0
C60 C 0.9661 0.9584 0.4397 0.0
N61 N 0.99893 0.9433 0.41752 0.0
N62 N 0.94513 0.99825 0.42657 0.0
C63 C 0.95635 0.93524 0.47433 0.0
C64 C 0.9661 1.00653 0.39555 0.0
N65 N 0.99894 0.97338 0.39011 0.0
C66 C 0.95351 0.04679 0.37057 0.0
H67 H 0.92603 0.95263 0.48721 0.0
H68 H 0.99657 0.93687 0.48698 0.0
H69 H 0.93961 0.89712 0.47488 0.0
H70 H 0.98766 0.07694 0.36984 0.0
H71 H 0.91375 0.0594 0.37695 0.0
H72 H 0.95079 0.03551 0.34596 0.0
C73 C 0.99712 0.03798 0.54943 0.0
N74 N 0.02019 0.07023 0.56801 0.0
N75 N 0.94995 0.01311 0.56415 0.0
C76 C 0.02048 0.03055 0.51704 0.0
C77 C 0.94534 0.0311 0.59251 0.0
N78 N 0.98788 0.06631 0.59476 0.0
C79 C 0.90348 0.01028 0.61968 0.0
H80 H 0.04452 0.06386 0.50433 0.0
H81 H 0.98621 0.01836 0.5016 0.0
H82 H 0.04858 1.00268 0.52086 0.0
H83 H 0.92454 1.00593 0.64334 0.0
H84 H 0.88118 0.97529 0.61552 0.0
H85 H 0.87232 0.03518 0.6214 0.0
C86 C 0.49547 0.50612 0.93881 0.0
N87 N 0.50882 0.47341 0.92038 0.0
N88 N 0.45138 0.52664 0.92656 0.0
C89 C 0.52512 0.5179 0.96876 0.0
C90 C 0.43877 0.50542 0.89977 0.0
N91 N 0.47344 0.47276 0.89618 0.0
C92 C 0.39722 0.52042 0.87501 0.0
H93 H 0.54185 0.48637 0.98164 0.0
H94 H 0.49608 0.53056 0.98528 0.0
H95 H 0.5603 0.5467 0.96168 0.0
H96 H 0.4162 0.5249 0.85002 0.0
H97 H 0.38208 0.55415 0.87919 0.0
H98 H 0.36103 0.49193 0.87642 0.0
C99 C 0.50612 0.5933 0.04762 0.0
N100 N 0.54063 0.61226 0.0694 0.0
N101 N 0.4768 0.55136 0.06141 0.0
C102 C 0.50348 0.61449 0.0126 0.0
C103 C 0.49421 0.54597 0.0924 0.0
N104 N 0.53302 0.5826 0.09712 0.0
C105 C 0.47307 0.50487 0.11815 0.0
H106 H 0.46614 0.59779 0.0013 0.0
H107 H 0.54186 0.60959 -0.00086 0.0
H108 H 0.5015 0.65326 0.01071 0.0
H109 H 0.50319 0.47853 0.11989 0.0
H110 H 0.43171 0.48708 0.11202 0.0
H111 H 0.46978 0.51719 0.14232 0.0
C112 C 0.14916 0.22212 -0.00821 0.0
C113 C 0.17225 0.17919 -0.00627 0.0
C114 C 0.18293 0.26519 -0.00654 0.0
C115 C 0.33065 0.32351 0.98839 0.0
H116 H 0.27089 0.41 0.04006 0.0
C117 C 0.46572 0.4715 0.04485 0.0
C118 C 0.4453 0.51507 0.04574 0.0
C119 C 0.43357 0.43412 0.03253 0.0
C120 C 0.28788 0.38672 0.02505 0.0
H121 H 0.24934 0.14806 -0.00175 0.0
H122 H 0.30843 0.22329 0.00208 0.0
H123 H 0.21321 0.33702 0.03099 0.0
H124 H 0.37625 0.55458 0.03407 0.0
H125 H 0.31883 0.48864 0.01276 0.0
H126 H 0.40621 0.37292 0.98357 0.0
C127 C 0.26415 0.22373 -0.00132 0.0
C128 C 0.25479 0.34472 0.01983 0.0
C129 C 0.23027 0.18051 -0.00329 0.0
C130 C 0.39263 0.5212 0.03343 0.0
C131 C 0.35997 0.48351 0.02144 0.0
C132 C 0.36395 0.36549 -0.00619 0.0
C133 C 0.24077 0.26659 -0.00253 0.0
C134 C 0.2758 0.31228 0.00168 0.0
C135 C 0.37979 0.43929 0.02135 0.0
C136 C 0.34307 0.3973 0.01251 0.0
H137 H 0.1047 0.22256 -0.01095 0.0
H138 H 0.1635 0.29747 -0.00832 0.0
H139 H 0.34795 0.29984 0.97383 0.0
H140 H 0.50638 0.46631 0.05426 0.0
H141 H 0.44985 0.40047 0.03313 0.0
C142 C 0.21254 0.86334 0.97907 0.0
C143 C 0.24759 0.90725 0.97484 0.0
C144 C 0.23455 0.82068 0.97717 0.0
C145 C 0.35463 0.77753 0.94044 0.0
H146 H 0.30857 0.65959 -0.00208 0.0
C147 C 0.46341 0.61163 0.93288 0.0
C148 C 0.42966 0.56743 0.93602 0.0
C149 C 0.44142 0.65215 0.93991 0.0
C150 C 0.32146 0.69212 0.98143 0.0
H151 H 0.33379 0.94006 0.96751 0.0
H152 H 0.37182 0.86619 0.96402 0.0
H153 H 0.26889 0.7317 0.00637 0.0
H154 H 0.34716 0.53012 0.94884 0.0
H155 H 0.30801 0.60093 0.96124 0.0
H156 H 0.40627 0.73831 0.91507 0.0
C157 C 0.3272 0.86473 0.96808 0.0
C158 C 0.29875 0.73343 0.98633 0.0
C159 C 0.30533 0.90715 0.97006 0.0
C160 C 0.37377 0.56403 0.94662 0.0
C161 C 0.35167 0.6045 0.95381 0.0
C162 C 0.37701 0.73633 0.93543 0.0
C163 C 0.29203 0.82106 0.97094 0.0
C164 C 0.31534 0.7767 0.96597 0.0
C165 C 0.38508 0.64926 0.95019 0.0
C166 C 0.36099 0.69307 0.95592 0.0
H167 H 0.16788 0.86205 0.9826 0.0
H168 H 0.20628 0.78764 0.97936 0.0
H169 H 0.3675 0.81 0.92388 0.0
H170 H 0.5066 0.61478 0.92457 0.0
H171 H 0.46873 0.68572 0.9374 0.0
C172 C 0.97254 0.89133 0.00315 0.0
C173 C 0.96075 0.9374 -0.00841 0.0
C174 C 0.92886 0.85343 0.01 0.0
C175 C 0.77873 0.83478 0.03267 0.0
H176 H 0.78014 0.70615 0.01315 0.0
C177 C 0.58127 0.69547 0.05012 0.0
C178 C 0.58812 0.64835 0.06189 0.0
C179 C 0.62797 0.72961 0.04144 0.0
C180 C 0.77936 0.74178 0.01914 0.0
H181 H 0.8948 0.97911 0.97564 0.0
H182 H 0.81964 0.9135 0.98693 0.0
H183 H 0.86076 0.76653 -0.00298 0.0
H184 H 0.64814 0.59963 0.07438 0.0
H185 H 0.73007 0.6593 0.06006 0.0
H186 H 0.69791 0.81043 0.05497 0.0
C187 C 0.86201 0.9066 -0.00832 0.0
C188 C 0.82556 0.77634 0.00984 0.0
C189 C 0.90523 0.94416 0.985 0.0
C190 C 0.6422 0.63596 0.06541 0.0
C191 C 0.68891 0.66998 0.05684 0.0
C192 C 0.73281 0.80035 0.04203 0.0
C193 C 0.87294 0.86118 0.00532 0.0
C194 C 0.82543 0.82338 0.01617 0.0
C195 C 0.68245 0.71724 0.04456 0.0
C196 C 0.73221 0.7535 0.03515 0.0
H197 H 0.01492 0.88514 0.00855 0.0
H198 H 0.93858 0.81872 0.02043 0.0
H199 H 0.77779 0.87045 0.03859 0.0
H200 H 0.53983 0.70575 0.04761 0.0
H201 H 0.62134 0.76553 0.03182 0.0
C202 C 0.84194 0.20738 0.01771 0.0
C203 C 0.87591 0.19229 -0.00562 0.0
C204 C 0.80576 0.24062 0.00837 0.0
C205 C 0.77331 0.33249 0.94236 0.0
H206 H 0.624 0.30159 0.98167 0.0
C207 C 0.53885 0.39388 0.92745 0.0
C208 C 0.55209 0.44336 0.92582 0.0
C209 C 0.58009 0.36421 0.93383 0.0
C210 C 0.66533 0.31057 0.97024 0.0
H211 H 0.90015 0.2018 0.94305 0.0
H212 H 0.83666 0.26018 0.92661 0.0
H213 H 0.69383 0.24921 -0.00332 0.0
H214 H 0.61861 0.5012 0.92788 0.0
H215 H 0.69108 0.44934 0.93968 0.0
H216 H 0.74423 0.39372 0.91562 0.0
C217 C 0.83834 0.24629 0.95221 0.0
C218 C 0.70559 0.28085 0.97916 0.0
C219 C 0.87473 0.21291 0.9616 0.0
C220 C 0.60751 0.46298 0.92967 0.0
C221 C 0.6489 0.43335 0.936 0.0
C222 C 0.73294 0.36242 0.9335 0.0
C223 C 0.80256 0.25965 0.97544 0.0
C224 C 0.76011 0.29153 0.96546 0.0
C225 C 0.63548 0.38355 0.93857 0.0
C226 C 0.67849 0.35174 0.94737 0.0
H227 H 0.84283 0.19301 0.04324 0.0
H228 H 0.77976 0.25105 0.02698 0.0
H229 H 0.81501 0.34176 0.93148 0.0
H230 H 0.49629 0.37827 0.92435 0.0
H231 H 0.56855 0.32606 0.93515 0.0
C232 C 0.7039 0.6273 0.51669 0.0
C233 C 0.64664 0.62848 0.51173 0.0
C234 C 0.73908 0.66893 0.5206 0.0
C235 C 0.75052 0.8 0.50417 0.0
H236 H 0.85435 0.7968 0.5747 0.0
C237 C 0.86318 0.97117 0.54607 0.0
C238 C 0.91868 0.97096 0.5552 0.0
C239 C 0.83177 0.92932 0.53909 0.0
C240 C 0.82622 0.79822 0.55458 0.0
H241 H 0.58156 0.6744 0.5067 0.0
H242 H 0.64292 0.74681 0.51354 0.0
H243 H 0.79691 0.7236 0.56519 0.0
H244 H 0.9855 0.92819 0.56451 0.0
H245 H 0.93106 0.85464 0.55206 0.0
H246 H 0.77986 0.87458 0.49348 0.0
C247 C 0.66066 0.7138 0.5142 0.0
C248 C 0.79326 0.75625 0.54916 0.0
C249 C 0.62546 0.67221 0.51051 0.0
C250 C 0.94266 0.92867 0.55731 0.0
C251 C 0.91131 0.88673 0.55052 0.0
C252 C 0.78371 0.84194 0.50946 0.0
C253 C 0.71781 0.71262 0.51938 0.0
C254 C 0.7547 0.75677 0.5241 0.0
C255 C 0.8554 0.8865 0.5414 0.0
C256 C 0.82159 0.84164 0.53492 0.0
H257 H 0.72154 0.59421 0.51767 0.0
H258 H 0.78305 0.66702 0.5243 0.0
H259 H 0.72174 0.80136 0.48435 0.0
H260 H 0.84424 1.00368 0.54465 0.0
H261 H 0.78865 0.93029 0.5326 0.0
C262 C 0.78288 0.35549 0.49844 0.0
C263 C 0.72507 0.35709 0.49695 0.0
C264 C 0.80487 0.31321 0.49621 0.0
C265 C 0.77361 0.18238 0.50191 0.0
H266 H 0.89693 0.19882 0.43866 0.0
C267 C 0.86359 0.02497 0.45183 0.0
C268 C 0.92064 0.03199 0.44312 0.0
C269 C 0.83859 0.0617 0.46303 0.0
C270 C 0.86328 0.19344 0.4569 0.0
H271 H 0.64477 0.31446 0.49367 0.0
H272 H 0.6834 0.24016 0.48997 0.0
H273 H 0.85521 0.26764 0.45014 0.0
H274 H 0.9971 0.08073 0.44078 0.0
H275 H 0.95477 0.14403 0.46169 0.0
H276 H 0.78215 0.10783 0.50867 0.0
C277 C 0.71157 0.27194 0.49287 0.0
C278 C 0.83916 0.23306 0.46337 0.0
C279 C 0.68946 0.3145 0.49501 0.0
C280 C 0.95293 0.07497 0.44731 0.0
C281 C 0.92843 0.11121 0.45895 0.0
C282 C 0.79822 0.1425 0.49562 0.0
C283 C 0.76967 0.27122 0.49254 0.0
C284 C 0.79429 0.22817 0.48605 0.0
C285 C 0.87053 0.10589 0.46577 0.0
C286 C 0.8437 0.14762 0.47315 0.0
H287 H 0.81143 0.38725 0.50076 0.0
H288 H 0.84973 0.3136 0.49675 0.0
H289 H 0.7391 0.17755 0.51956 0.0
H290 H 0.83811 0.99199 0.44849 0.0
H291 H 0.79393 0.05628 0.46797 0.0
C292 C 0.45515 0.34406 0.50068 0.0
C293 C 0.44088 0.39035 0.49297 0.0
C294 C 0.41314 0.30486 0.50681 0.0
C295 C 0.27385 0.27905 0.54163 0.0
H296 H 0.25194 0.16493 0.49983 0.0
C297 C 0.0686 0.15208 0.55951 0.0
C298 C 0.07032 0.1032 0.56055 0.0
C299 C 0.11679 0.18445 0.55147 0.0
C300 C 0.25801 0.1962 0.51216 0.0
H301 H 0.3719 0.43137 0.48295 0.0
H302 H 0.29947 0.36342 0.49393 0.0
H303 H 0.33285 0.22526 0.48371 0.0
H304 H 0.123 0.04899 0.55527 0.0
H305 H 0.20819 0.1054 0.54188 0.0
H306 H 0.2002 0.25051 0.57043 0.0
C307 C 0.34278 0.35747 0.49559 0.0
C308 C 0.30419 0.23066 0.50281 0.0
C309 C 0.38437 0.39629 0.48926 0.0
C310 C 0.121 0.08681 0.55405 0.0
C311 C 0.16947 0.11909 0.54632 0.0
C312 C 0.22835 0.24452 0.55126 0.0
C313 C 0.35666 0.31173 0.50547 0.0
C314 C 0.31163 0.27276 0.51702 0.0
C315 C 0.16792 0.16838 0.54481 0.0
C316 C 0.21905 0.20313 0.53616 0.0
H317 H 0.49835 0.33843 0.50371 0.0
H318 H 0.42461 0.26971 0.51434 0.0
H319 H 0.27934 0.31104 0.55325 0.0
H320 H 0.02962 0.16512 0.56435 0.0
H321 H 0.11367 0.22212 0.54995 0.0
C322 C 0.2834 0.62489 0.48435 0.0
C323 C 0.34175 0.63692 0.48371 0.0
C324 C 0.24884 0.65903 0.47399 0.0
C325 C 0.24469 0.7883 0.46331 0.0
H326 H 0.10935 0.75453 0.41766 0.0
C327 C 0.09543 0.92494 0.41956 0.0
C328 C 0.03799 0.9095 0.42404 0.0
C329 C 0.134 0.89257 0.42516 0.0
C330 C 0.14669 0.76439 0.43068 0.0
H331 H 0.40966 0.69406 0.47076 0.0
H332 H 0.34898 0.7542 0.45221 0.0
H333 H 0.17537 0.69714 0.42847 0.0
H334 H 0.97524 0.84855 0.43733 0.0
H335 H 0.04264 0.79145 0.44776 0.0
H336 H 0.2157 0.85547 0.46572 0.0
C337 C 0.3301 0.71821 0.46115 0.0
C338 C 0.18464 0.73154 0.43681 0.0
C339 C 0.36489 0.68376 0.47146 0.0
C340 C 0.01947 0.86113 0.43417 0.0
C341 C 0.05803 0.82858 0.43971 0.0
C342 C 0.20674 0.82123 0.45712 0.0
C343 C 0.27158 0.70626 0.4626 0.0
C344 C 0.23378 0.74283 0.45357 0.0
C345 C 0.11581 0.84395 0.43525 0.0
C346 C 0.15696 0.80946 0.44105 0.0
H347 H 0.26423 0.58896 0.49314 0.0
H348 H 0.20406 0.64858 0.4758 0.0
H349 H 0.28169 0.79795 0.47667 0.0
H350 H 0.11033 0.96222 0.41172 0.0
H351 H 0.17803 0.90555 0.42111 0.0
C352 C 0.0369 0.02614 0.10793 0.0
C353 C 0.0816 0.01907 0.08789 0.0
C354 C 0.03667 0.0121 0.14148 0.0
C355 C 0.12584 0.99218 0.21007 0.0
H356 H 0.98767 0.92778 0.25315 0.0
C357 C 0.01286 0.9255 0.34646 0.0
C358 C 0.02489 0.96822 0.35958 0.0
C359 C 0.03116 0.92242 0.31477 0.0
C360 C 0.02701 0.94488 0.2416 0.0
H361 H 0.16151 0.99222 0.08733 0.0
H362 H 0.16143 0.96836 0.14655 0.0
H363 H 0.9961 0.9397 0.1939 0.0
H364 H 0.06963 0.03958 0.35177 0.0
H365 H 0.10066 0.03503 0.29589 0.0
H366 H 0.156 0.9988 0.25792 0.0
C367 C 0.12652 0.98451 0.13599 0.0
C368 C 0.03156 0.95213 0.20765 0.0
C369 C 0.12646 0.99806 0.1022 0.0
C370 C 0.05903 1.00669 0.34165 0.0
C371 C 0.07731 1.00374 0.30993 0.0
C372 C 0.12118 0.98516 0.24416 0.0
C373 C 0.08132 0.99106 0.15584 0.0
C374 C 0.08033 0.97708 0.19157 0.0
C375 C 0.06184 0.96212 0.29575 0.0
C376 C 0.07112 0.96256 0.26022 0.0
H377 H 1.00167 0.04216 0.09769 0.0
H378 H 1.0017 0.01824 0.15632 0.0
H379 H 0.16388 0.01156 0.19819 0.0
H380 H 0.98683 0.89539 0.36014 0.0
H381 H 0.01932 0.88966 0.30466 0.0
C382 C 0.01289 0.10867 0.88022 0.0
C383 C 0.05907 0.09035 0.89491 0.0
C384 C 1.00962 0.11574 0.8462 0.0
C385 C 0.06231 0.06926 0.77517 0.0
H386 H 1.00324 0.17463 0.72422 0.0
C387 C 0.05528 0.07781 0.63767 0.0
C388 C 1.00391 0.08551 0.62412 0.0
C389 C 0.06713 0.08826 0.66894 0.0
C390 C 0.01967 0.14497 0.7382 0.0
H391 H 0.1396 0.06801 0.88556 0.0
H392 H 0.13423 0.08097 0.82657 0.0
H393 H 0.01339 0.17388 0.78316 0.0
H394 H 0.92622 0.11312 0.63122 0.0
H395 H 0.94589 0.13011 0.68671 0.0
H396 H 0.06757 0.0396 0.73088 0.0
C397 C 0.09988 0.08873 0.84118 0.0
C398 C 0.02538 0.1445 0.77188 0.0
C399 C 0.10298 0.0814 0.87501 0.0
C400 C 0.96591 0.10664 0.64148 0.0
C401 C 0.97744 0.11666 0.67303 0.0
C402 C 0.05663 0.06971 0.74174 0.0
C403 C 0.0526 0.10478 0.8264 0.0
C404 C 0.04691 0.10661 0.79065 0.0
C405 C 0.02735 0.10586 0.68751 0.0
C406 C 0.0354 0.10754 0.72281 0.0
H407 H 0.97853 0.11607 0.89498 0.0
H408 H 0.97254 0.12795 0.83548 0.0
H409 H 0.07767 0.03894 0.78904 0.0
H410 H 0.08489 0.06102 0.62485 0.0
H411 H 0.10643 0.08043 0.67918 0.0
C412 C 0.5612 0.43282 0.61309 0.0
C413 C 0.53278 0.46854 0.59687 0.0
C414 C 0.55274 0.4188 0.64671 0.0
C415 C 0.45635 0.42754 0.71609 0.0
H416 H 0.58632 0.41241 0.76825 0.0
C417 C 0.53231 0.4677 0.84853 0.0
C418 C 0.48233 0.45304 0.86674 0.0
C419 C 0.53859 0.45469 0.81759 0.0
C420 C 0.54954 0.41643 0.75405 0.0
H421 H 0.47342 0.51767 0.6031 0.0
H422 H 0.46011 0.4945 0.6615 0.0
H423 H 0.59574 0.42058 0.70908 0.0
H424 H 0.40101 0.41118 0.86853 0.0
H425 H 0.41199 0.387 0.81436 0.0
H426 H 0.41102 0.4273 0.7607 0.0
C427 C 0.4877 0.4762 0.64834 0.0
C428 C 0.55482 0.42054 0.72009 0.0
C429 C 0.4958 0.4899 0.61484 0.0
C430 C 0.4397 0.42292 0.85452 0.0
C431 C 0.44606 0.40942 0.82359 0.0
C432 C 0.45122 0.42404 0.74996 0.0
C433 C 0.51591 0.44043 0.66472 0.0
C434 C 0.50867 0.42793 0.70069 0.0
C435 C 0.49495 0.42644 0.80432 0.0
C436 C 0.49819 0.42019 0.7693 0.0
H437 H 0.58965 0.41545 0.59982 0.0
H438 H 0.57482 0.39091 0.65853 0.0
H439 H 0.41963 0.43192 0.70189 0.0
H440 H 0.56528 0.49149 0.85756 0.0
H441 H 0.57639 0.46928 0.80339 0.0
C442 C 0.52952 0.57814 0.38569 0.0
C443 C 0.56108 0.54584 0.40317 0.0
C444 C 0.5364 0.58888 0.35174 0.0
C445 C 0.57672 0.53536 0.28177 0.0
H446 H 0.58998 0.66297 0.23398 0.0
C447 C 0.59094 0.55994 0.14322 0.0
C448 C 0.55641 0.59106 0.12769 0.0
C449 C 0.60344 0.5613 0.1759 0.0
C450 C 0.58602 0.6271 0.24697 0.0
H451 H 0.62556 0.50048 0.39888 0.0
H452 H 0.63683 0.51884 0.3399 0.0
H453 H 0.58536 0.65173 0.29372 0.0
H454 H 0.51028 0.64954 0.13252 0.0
H455 H 0.53014 0.65128 0.19013 0.0
H456 H 0.57469 0.51012 0.23567 0.0
C457 C 0.60677 0.53569 0.35237 0.0
C458 C 0.58339 0.62075 0.28111 0.0
C459 C 0.60028 0.52527 0.38616 0.0
C460 C 0.53746 0.62565 0.14435 0.0
C461 C 0.54901 0.62655 0.17723 0.0
C462 C 0.57867 0.54159 0.24781 0.0
C463 C 0.57452 0.56715 0.33479 0.0
C464 C 0.57857 0.57477 0.29875 0.0
C465 C 0.58032 0.59307 0.19375 0.0
C466 C 0.58316 0.5875 0.2299 0.0
H467 H 0.49923 0.59474 0.39816 0.0
H468 H 0.51077 0.61303 0.33866 0.0
H469 H 0.57211 0.49945 0.29479 0.0
H470 H 0.60582 0.53313 0.13044 0.0
H471 H 0.629 0.5359 0.18757 0.0
loop_
_geom_bond_atom_site_label_1
_geom_bond_atom_site_label_2
_geom_bond_distance
_geom_bond_site_symmetry_2
_ccdc_geom_bond_type
Co0 N5 2.057 . S
Co0 O17 2.021 . S
Co0 O20 2.062 . S
Co0 O24 2.117 1_564 S
Co0 O25 2.020 1_565 S
C1 O21 1.259 1_455 S
C1 O24 1.258 . S
Co2 N11 2.057 . S
Co2 O18 2.117 1_655 S
Co2 O19 2.020 1_545 S
Co2 O21 2.021 1_554 S
Co2 O26 2.062 1_654 S
C3 N5 1.316 . S
C3 N6 1.347 . S
C3 H8 0.931 . S
C4 N5 1.375 1_556 S
C4 C7 1.350 . S
C4 H9 0.930 . S
N5 Co0 2.057 . S
N5 C3 1.316 . S
N5 C4 1.375 1_554 S
N6 C3 1.347 . S
N6 C7 1.373 1_554 S
C7 C4 1.350 . S
C7 N6 1.373 1_556 S
C7 H28 0.931 . S
H8 C3 0.931 . S
H9 C4 0.930 . S
C10 O17 1.259 1_545 S
C10 O18 1.258 . S
N11 Co2 2.057 . S
N11 C12 1.316 1_554 S
N11 C13 1.375 . S
C12 N11 1.316 1_556 S
C12 N14 1.347 1_556 S
C12 H23 0.931 . S
C13 N11 1.375 . S
C13 C15 1.350 . S
C13 H22 0.930 . S
N14 C12 1.347 1_554 S
N14 C15 1.373 . S
C15 C13 1.350 . S
C15 N14 1.373 . S
C15 H29 0.931 . S
C16 O19 1.256 . S
C16 O20 1.255 1_655 S
O17 Co0 2.021 . S
O17 C10 1.259 1_565 S
O18 Co2 2.117 1_455 S
O18 C10 1.258 . S
O19 Co2 2.020 1_565 S
O19 C16 1.256 . S
O20 Co0 2.062 . S
O20 C16 1.255 1_455 S
O21 C1 1.259 1_655 S
O21 Co2 2.021 1_556 S
H22 C13 0.930 . S
H23 C12 0.931 . S
O24 Co0 2.117 1_546 S
O24 C1 1.258 . S
O25 Co0 2.020 1_545 S
O25 C27 1.256 . S
O26 Co2 2.062 1_456 S
O26 C27 1.255 1_556 S
C27 O25 1.256 . S
C27 O26 1.255 1_554 S
H28 C7 0.931 . S
H29 C15 0.931 . S
Co30 N35 2.057 . S
Co30 O47 2.021 . S
Co30 O50 2.062 . S
Co30 O54 2.117 . S
Co30 O55 2.020 . S
C31 O51 1.259 . S
C31 O54 1.258 . S
Co32 N41 2.057 . S
Co32 O48 2.117 . S
Co32 O49 2.020 . S
Co32 O51 2.021 . S
Co32 O56 2.062 . S
C33 N35 1.316 . S
C33 N36 1.347 . S
C33 H38 0.931 . S
C34 N35 1.375 . S
C34 C37 1.350 . S
C34 H39 0.930 . S
N35 Co30 2.057 . S
N35 C33 1.316 . S
N35 C34 1.375 . S
N36 C33 1.347 . S
N36 C37 1.373 . S
C37 C34 1.350 . S
C37 N36 1.373 . S
C37 H58 0.931 . S
H38 C33 0.931 . S
H39 C34 0.930 . S
C40 O47 1.259 . S
C40 O48 1.258 . S
N41 Co32 2.057 . S
N41 C42 1.316 . S
N41 C43 1.375 . S
C42 N41 1.316 . S
C42 N44 1.347 . S
C42 H53 0.931 . S
C43 N41 1.375 . S
C43 C45 1.350 . S
C43 H52 0.930 . S
N44 C42 1.347 . S
N44 C45 1.373 . S
C45 C43 1.350 . S
C45 N44 1.373 . S
C45 H59 0.931 . S
C46 O49 1.256 . S
C46 O50 1.255 . S
O47 Co30 2.021 . S
O47 C40 1.259 . S
O48 Co32 2.117 . S
O48 C40 1.258 . S
O49 Co32 2.020 . S
O49 C46 1.256 . S
O50 Co30 2.062 . S
O50 C46 1.255 . S
O51 C31 1.259 . S
O51 Co32 2.021 . S
H52 C43 0.930 . S
H53 C42 0.931 . S
O54 Co30 2.117 . S
O54 C31 1.258 . S
O55 Co30 2.020 . S
O55 C57 1.256 . S
O56 Co32 2.062 . S
O56 C57 1.255 . S
C57 O55 1.256 . S
C57 O56 1.255 . S
H58 C37 0.931 . S
H59 C45 0.931 . S
C60 N61 1.317 1_545 S
C60 N62 1.348 1_455 S
C60 C63 1.485 1_545 S
N61 C60 1.317 1_565 S
N61 N65 1.370 1_565 S
N62 C60 1.348 1_655 S
N62 C64 1.346 . S
C63 C60 1.485 1_565 S
C63 H67 0.960 1_455 S
C63 H68 0.961 1_565 S
C63 H69 0.960 . S
C64 N62 1.346 . S
C64 N65 1.307 1_655 S
C64 C66 1.486 . S
N65 N61 1.370 1_545 S
N65 C64 1.307 1_455 S
C66 C64 1.486 . S
C66 H70 0.960 . S
C66 H71 0.960 . S
C66 H72 0.959 . S
H67 C63 0.960 1_655 S
H68 C63 0.961 1_545 S
H69 C63 0.960 . S
H70 C66 0.960 . S
H71 C66 0.960 . S
H72 C66 0.959 . S
C73 N74 1.317 . S
C73 N75 1.348 1_445 S
C73 C76 1.485 . S
N74 C73 1.317 . S
N74 N78 1.370 . S
N75 C73 1.348 1_665 S
N75 C77 1.348 . S
C76 C73 1.485 . S
C76 H80 0.949 1_455 S
C76 H81 0.961 . S
C76 H82 0.960 . S
C77 N75 1.348 . S
C77 N78 1.300 1_665 S
C77 C79 1.490 . S
N78 N74 1.370 . S
N78 C77 1.300 1_445 S
C79 C77 1.490 . S
C79 H83 0.960 . S
C79 H84 0.960 . S
C79 H85 0.959 . S
H80 C76 0.949 1_655 S
H81 C76 0.961 . S
H82 C76 0.960 . S
H83 C79 0.960 . S
H84 C79 0.960 . S
H85 C79 0.959 . S
C86 N87 1.317 . S
C86 N88 1.348 . S
C86 C89 1.485 1_556 S
N87 C86 1.317 . S
N87 N91 1.370 . S
N88 C86 1.348 . S
N88 C90 1.346 . S
C89 C86 1.485 1_554 S
C89 H93 0.960 . S
C89 H94 0.961 . S
C89 H95 0.960 . S
C90 N88 1.346 . S
C90 N91 1.307 . S
C90 C92 1.486 . S
N91 N87 1.370 . S
N91 C90 1.307 . S
C92 C90 1.486 . S
C92 H96 0.960 . S
C92 H97 0.960 . S
C92 H98 0.959 . S
H93 C89 0.960 . S
H94 C89 0.961 . S
H95 C89 0.960 . S
H96 C92 0.960 . S
H97 C92 0.960 . S
H98 C92 0.959 . S
C99 N100 1.317 . S
C99 N101 1.348 . S
C99 C102 1.485 1_554 S
N100 C99 1.317 . S
N100 N104 1.370 . S
N101 C99 1.348 . S
N101 C103 1.346 . S
C102 C99 1.485 1_556 S
C102 H106 0.960 . S
C102 H107 0.961 . S
C102 H108 0.960 . S
C103 N101 1.346 . S
C103 N104 1.307 . S
C103 C105 1.486 . S
N104 N100 1.370 . S
N104 C103 1.307 . S
C105 C103 1.486 . S
C105 H109 0.960 . S
C105 H110 0.960 . S
C105 H111 0.959 . S
H106 C102 0.960 . S
H107 C102 0.961 . S
H108 C102 0.960 . S
H109 C105 0.960 . S
H110 C105 0.960 . S
H111 C105 0.959 . S
C112 C113 1.349 1_556 S
C112 C114 1.327 . S
C112 H137 0.950 . S
C113 C112 1.349 1_554 S
C113 C129 1.349 . S
C114 C112 1.327 . S
C114 C133 1.429 1_556 S
C114 H138 0.950 . S
C115 C132 1.574 . S
C115 C134 1.368 . S
C115 H139 0.949 . S
H116 C120 0.949 1_556 S
C117 C118 1.349 . S
C117 C119 1.327 . S
C117 H140 0.950 . S
C118 C117 1.349 . S
C118 C130 1.349 . S
C119 C117 1.327 . S
C119 C135 1.429 . S
C119 H141 0.950 . S
C120 H116 0.949 1_554 S
C120 C128 1.574 1_554 S
C120 C136 1.368 . S
H121 C129 0.950 . S
H122 C127 0.950 . S
H123 C128 0.949 . S
H124 C130 0.950 . S
H125 C131 0.950 1_556 S
H126 C132 0.949 . S
C127 H122 0.950 . S
C127 C129 1.327 . S
C127 C133 1.429 . S
C128 C120 1.574 1_556 S
C128 H123 0.949 . S
C128 C134 1.368 1_556 S
C129 C113 1.349 . S
C129 H121 0.950 . S
C129 C127 1.327 . S
C130 C118 1.349 . S
C130 H124 0.950 . S
C130 C131 1.327 . S
C131 H125 0.950 1_554 S
C131 C130 1.327 . S
C131 C135 1.429 . S
C132 C115 1.574 . S
C132 H126 0.949 . S
C132 C136 1.368 . S
C133 C114 1.429 1_554 S
C133 C127 1.429 . S
C133 C134 1.523 . S
C134 C115 1.368 . S
C134 C128 1.368 1_554 S
C134 C133 1.523 . S
C135 C119 1.429 . S
C135 C131 1.429 . S
C135 C136 1.523 . S
C136 C120 1.368 . S
C136 C132 1.368 . S
C136 C135 1.523 . S
H137 C112 0.950 . S
H138 C114 0.950 . S
H139 C115 0.949 . S
H140 C117 0.950 . S
H141 C119 0.950 . S
C142 C143 1.349 . S
C142 C144 1.327 . S
C142 H167 0.950 . S
C143 C142 1.349 . S
C143 C159 1.349 1_554 S
C144 C142 1.327 . S
C144 C163 1.429 . S
C144 H168 0.950 . S
C145 C162 1.574 . S
C145 C164 1.368 . S
C145 H169 0.949 . S
H146 C150 0.949 . S
C147 C148 1.349 . S
C147 C149 1.327 . S
C147 H170 0.950 . S
C148 C147 1.349 . S
C148 C160 1.349 . S
C149 C147 1.327 . S
C149 C165 1.429 . S
C149 H171 0.950 . S
C150 H146 0.949 . S
C150 C158 1.574 . S
C150 C166 1.368 1_554 S
H151 C159 0.950 . S
H152 C157 0.950 . S
H153 C158 0.949 . S
H154 C160 0.950 1_554 S
H155 C161 0.959 . S
H156 C162 0.949 . S
C157 H152 0.950 . S
C157 C159 1.327 . S
C157 C163 1.429 1_556 S
C158 C150 1.574 . S
C158 H153 0.949 . S
C158 C164 1.368 1_554 S
C159 C143 1.349 1_556 S
C159 H151 0.950 . S
C159 C157 1.327 . S
C160 C148 1.349 . S
C160 H154 0.950 1_556 S
C160 C161 1.324 1_556 S
C161 H155 0.959 . S
C161 C160 1.324 1_554 S
C161 C165 1.423 1_554 S
C162 C145 1.574 . S
C162 H156 0.949 . S
C162 C166 1.368 . S
C163 C144 1.429 . S
C163 C157 1.429 1_554 S
C163 C164 1.523 1_554 S
C164 C145 1.368 . S
C164 C158 1.368 1_556 S
C164 C163 1.523 1_556 S
C165 C149 1.429 . S
C165 C161 1.423 1_556 S
C165 C166 1.523 . S
C166 C150 1.368 1_556 S
C166 C162 1.368 . S
C166 C165 1.523 . S
H167 C142 0.950 . S
H168 C144 0.950 . S
H169 C145 0.949 . S
H170 C147 0.950 . S
H171 C149 0.950 . S
C172 C173 1.349 1_556 S
C172 C174 1.327 . S
C172 H197 0.950 . S
C173 C172 1.349 1_554 S
C173 C189 1.349 . S
C174 C172 1.327 . S
C174 C193 1.425 1_556 S
C174 H198 0.953 . S
C175 C192 1.574 . S
C175 C194 1.368 . S
C175 H199 0.949 . S
H176 C180 0.949 . S
C177 C178 1.349 . S
C177 C179 1.327 . S
C177 H200 0.950 . S
C178 C177 1.349 . S
C178 C190 1.349 . S
C179 C177 1.327 . S
C179 C195 1.429 . S
C179 H201 0.950 . S
C180 H176 0.949 . S
C180 C188 1.574 . S
C180 C196 1.368 . S
H181 C189 0.950 . S
H182 C187 0.950 . S
H183 C188 0.949 1_556 S
H184 C190 0.950 . S
H185 C191 0.950 . S
H186 C192 0.949 . S
C187 H182 0.950 . S
C187 C189 1.327 . S
C187 C193 1.429 . S
C188 C180 1.574 . S
C188 H183 0.949 1_554 S
C188 C194 1.368 . S
C189 C173 1.349 . S
C189 H181 0.950 . S
C189 C187 1.327 . S
C190 C178 1.349 . S
C190 H184 0.950 . S
C190 C191 1.327 . S
C191 H185 0.950 . S
C191 C190 1.327 . S
C191 C195 1.429 . S
C192 C175 1.574 . S
C192 H186 0.949 . S
C192 C196 1.368 . S
C193 C174 1.425 1_554 S
C193 C187 1.429 . S
C193 C194 1.523 . S
C194 C175 1.368 . S
C194 C188 1.368 . S
C194 C193 1.523 . S
C195 C179 1.429 . S
C195 C191 1.429 . S
C195 C196 1.523 . S
C196 C180 1.368 . S
C196 C192 1.368 . S
C196 C195 1.523 . S
H197 C172 0.950 . S
H198 C174 0.953 . S
H199 C175 0.949 . S
H200 C177 0.950 . S
H201 C179 0.950 . S
C202 C203 1.349 1_554 S
C202 C204 1.327 . S
C202 H227 0.950 . S
C203 C202 1.349 1_556 S
C203 C219 1.349 . S
C204 C202 1.327 . S
C204 C223 1.429 1_554 S
C204 H228 0.950 . S
C205 C222 1.574 . S
C205 C224 1.368 . S
C205 H229 0.949 . S
H206 C210 0.929 1_554 S
C207 C208 1.349 . S
C207 C209 1.327 . S
C207 H230 0.950 . S
C208 C207 1.349 . S
C208 C220 1.349 . S
C209 C207 1.327 . S
C209 C225 1.429 . S
C209 H231 0.950 . S
C210 H206 0.929 1_556 S
C210 C218 1.573 1_556 S
C210 C226 1.392 . S
H211 C219 0.950 . S
H212 C217 0.950 . S
H213 C218 0.949 . S
H214 C220 0.977 . S
H215 C221 0.950 1_554 S
H216 C222 0.949 . S
C217 H212 0.950 . S
C217 C219 1.327 . S
C217 C223 1.429 . S
C218 C210 1.573 1_554 S
C218 H213 0.949 . S
C218 C224 1.368 1_554 S
C219 C203 1.349 . S
C219 H211 0.950 . S
C219 C217 1.327 . S
C220 C208 1.349 . S
C220 H214 0.977 . S
C220 C221 1.327 . S
C221 H215 0.950 1_556 S
C221 C220 1.327 . S
C221 C225 1.429 . S
C222 C205 1.574 . S
C222 H216 0.949 . S
C222 C226 1.368 . S
C223 C204 1.429 1_556 S
C223 C217 1.429 . S
C223 C224 1.523 . S
C224 C205 1.368 . S
C224 C218 1.368 1_556 S
C224 C223 1.523 . S
C225 C209 1.429 . S
C225 C221 1.429 . S
C225 C226 1.523 . S
C226 C210 1.392 . S
C226 C222 1.368 . S
C226 C225 1.523 . S
H227 C202 0.950 . S
H228 C204 0.950 . S
H229 C205 0.949 . S
H230 C207 0.950 . S
H231 C209 0.950 . S
C232 C233 1.349 . S
C232 C234 1.327 . S
C232 H257 0.950 . S
C233 C232 1.349 . S
C233 C249 1.349 . S
C234 C232 1.327 . S
C234 C253 1.429 . S
C234 H258 0.950 . S
C235 C252 1.574 . S
C235 C254 1.368 . S
C235 H259 0.949 . S
H236 C240 0.949 . S
C237 C238 1.349 . S
C237 C239 1.327 . S
C237 H260 0.950 . S
C238 C237 1.349 . S
C238 C250 1.349 . S
C239 C237 1.327 . S
C239 C255 1.429 . S
C239 H261 0.950 . S
C240 H236 0.949 . S
C240 C248 1.574 . S
C240 C256 1.368 . S
H241 C249 0.950 . S
H242 C247 0.950 . S
H243 C248 0.949 . S
H244 C250 0.950 . S
H245 C251 0.950 . S
H246 C252 0.949 . S
C247 H242 0.950 . S
C247 C249 1.327 . S
C247 C253 1.429 . S
C248 C240 1.574 . S
C248 H243 0.949 . S
C248 C254 1.368 . S
C249 C233 1.349 . S
C249 H241 0.950 . S
C249 C247 1.327 . S
C250 C238 1.349 . S
C250 H244 0.950 . S
C250 C251 1.327 . S
C251 H245 0.950 . S
C251 C250 1.327 . S
C251 C255 1.429 . S
C252 C235 1.574 . S
C252 H246 0.949 . S
C252 C256 1.368 . S
C253 C234 1.429 . S
C253 C247 1.429 . S
C253 C254 1.523 . S
C254 C235 1.368 . S
C254 C248 1.368 . S
C254 C253 1.523 . S
C255 C239 1.429 . S
C255 C251 1.429 . S
C255 C256 1.523 . S
C256 C240 1.368 . S
C256 C252 1.368 . S
C256 C255 1.523 . S
H257 C232 0.950 . S
H258 C234 0.950 . S
H259 C235 0.949 . S
H260 C237 0.950 . S
H261 C239 0.950 . S
C262 C263 1.349 . S
C262 C264 1.327 . S
C262 H287 0.950 . S
C263 C262 1.349 . S
C263 C279 1.349 . S
C264 C262 1.327 . S
C264 C283 1.429 . S
C264 H288 0.950 . S
C265 C282 1.574 . S
C265 C284 1.368 . S
C265 H289 0.949 . S
H266 C270 0.949 . S
C267 C268 1.349 . S
C267 C269 1.327 . S
C267 H290 0.950 . S
C268 C267 1.349 . S
C268 C280 1.349 . S
C269 C267 1.327 . S
C269 C285 1.429 . S
C269 H291 0.950 . S
C270 H266 0.949 . S
C270 C278 1.574 . S
C270 C286 1.368 . S
H271 C279 0.950 . S
H272 C277 0.950 . S
H273 C278 0.949 . S
H274 C280 0.950 . S
H275 C281 0.950 . S
H276 C282 0.949 . S
C277 H272 0.950 . S
C277 C279 1.327 . S
C277 C283 1.429 . S
C278 C270 1.574 . S
C278 H273 0.949 . S
C278 C284 1.368 . S
C279 C263 1.349 . S
C279 H271 0.950 . S
C279 C277 1.327 . S
C280 C268 1.349 . S
C280 H274 0.950 . S
C280 C281 1.327 . S
C281 H275 0.950 . S
C281 C280 1.327 . S
C281 C285 1.429 . S
C282 C265 1.574 . S
C282 H276 0.949 . S
C282 C286 1.368 . S
C283 C264 1.429 . S
C283 C277 1.429 . S
C283 C284 1.523 . S
C284 C265 1.368 . S
C284 C278 1.368 . S
C284 C283 1.523 . S
C285 C269 1.429 . S
C285 C281 1.429 . S
C285 C286 1.523 . S
C286 C270 1.368 . S
C286 C282 1.368 . S
C286 C285 1.523 . S
H287 C262 0.950 . S
H288 C264 0.950 . S
H289 C265 0.949 . S
H290 C267 0.950 . S
H291 C269 0.950 . S
C292 C293 1.349 . S
C292 C294 1.327 . S
C292 H317 0.950 . S
C293 C292 1.349 . S
C293 C309 1.349 . S
C294 C292 1.327 . S
C294 C313 1.429 . S
C294 H318 0.950 . S
C295 C312 1.574 . S
C295 C314 1.368 . S
C295 H319 0.949 . S
H296 C300 0.949 . S
C297 C298 1.349 . S
C297 C299 1.327 . S
C297 H320 0.950 . S
C298 C297 1.349 . S
C298 C310 1.349 . S
C299 C297 1.327 . S
C299 C315 1.429 . S
C299 H321 0.950 . S
C300 H296 0.949 . S
C300 C308 1.574 . S
C300 C316 1.368 . S
H301 C309 0.950 . S
H302 C307 0.950 . S
H303 C308 0.949 . S
H304 C310 0.950 . S
H305 C311 0.950 . S
H306 C312 0.949 . S
C307 H302 0.950 . S
C307 C309 1.327 . S
C307 C313 1.429 . S
C308 C300 1.574 . S
C308 H303 0.949 . S
C308 C314 1.368 . S
C309 C293 1.349 . S
C309 H301 0.950 . S
C309 C307 1.327 . S
C310 C298 1.349 . S
C310 H304 0.950 . S
C310 C311 1.327 . S
C311 H305 0.950 . S
C311 C310 1.327 . S
C311 C315 1.429 . S
C312 C295 1.574 . S
C312 H306 0.949 . S
C312 C316 1.368 . S
C313 C294 1.429 . S
C313 C307 1.429 . S
C313 C314 1.523 . S
C314 C295 1.368 . S
C314 C308 1.368 . S
C314 C313 1.523 . S
C315 C299 1.429 . S
C315 C311 1.429 . S
C315 C316 1.523 . S
C316 C300 1.368 . S
C316 C312 1.368 . S
C316 C315 1.523 . S
H317 C292 0.950 . S
H318 C294 0.950 . S
H319 C295 0.949 . S
H320 C297 0.950 . S
H321 C299 0.950 . S
C322 C323 1.349 . S
C322 C324 1.327 . S
C322 H347 0.950 . S
C323 C322 1.349 . S
C323 C339 1.349 . S
C324 C322 1.327 . S
C324 C343 1.429 . S
C324 H348 0.950 . S
C325 C342 1.574 . S
C325 C344 1.368 . S
C325 H349 0.949 . S
H326 C330 0.949 . S
C327 C328 1.349 . S
C327 C329 1.327 . S
C327 H350 0.950 . S
C328 C327 1.349 . S
C328 C340 1.349 . S
C329 C327 1.327 . S
C329 C345 1.429 . S
C329 H351 0.950 . S
C330 H326 0.949 . S
C330 C338 1.574 . S
C330 C346 1.368 . S
H331 C339 0.950 . S
H332 C337 0.950 . S
H333 C338 0.949 . S
H334 C340 0.950 . S
H335 C341 0.950 . S
H336 C342 0.949 . S
C337 H332 0.950 . S
C337 C339 1.327 . S
C337 C343 1.429 . S
C338 C330 1.574 . S
C338 H333 0.949 . S
C338 C344 1.368 . S
C339 C323 1.349 . S
C339 H331 0.950 . S
C339 C337 1.327 . S
C340 C328 1.349 . S
C340 H334 0.950 . S
C340 C341 1.327 . S
C341 H335 0.950 . S
C341 C340 1.327 . S
C341 C345 1.429 . S
C342 C325 1.574 . S
C342 H336 0.949 . S
C342 C346 1.368 . S
C343 C324 1.429 . S
C343 C337 1.429 . S
C343 C344 1.523 . S
C344 C325 1.368 . S
C344 C338 1.368 . S
C344 C343 1.523 . S
C345 C329 1.429 . S
C345 C341 1.429 . S
C345 C346 1.523 . S
C346 C330 1.368 . S
C346 C342 1.368 . S
C346 C345 1.523 . S
H347 C322 0.950 . S
H348 C324 0.950 . S
H349 C325 0.949 . S
H350 C327 0.950 . S
H351 C329 0.950 . S
C352 C353 1.349 . S
C352 C354 1.328 . S
C352 H377 0.950 1_455 S
C353 C352 1.349 . S
C353 C369 1.349 1_545 S
C354 C352 1.328 . S
C354 C373 1.435 . S
C354 H378 0.942 1_455 S
C355 C372 1.574 . S
C355 C374 1.368 1_565 S
C355 H379 0.949 . S
H356 C360 0.949 . S
C357 C358 1.349 . S
C357 C359 1.327 . S
C357 H380 0.950 . S
C358 C357 1.349 . S
C358 C370 1.349 1_465 S
C359 C357 1.327 . S
C359 C375 1.429 . S
C359 H381 0.950 . S
C360 H356 0.949 . S
C360 C368 1.574 . S
C360 C376 1.358 1_645 S
H361 C369 0.950 . S
H362 C367 0.950 . S
H363 C368 0.949 . S
H364 C370 0.950 . S
H365 C371 0.950 . S
H366 C372 0.949 . S
C367 H362 0.950 . S
C367 C369 1.327 . S
C367 C373 1.429 1_565 S
C368 C360 1.574 . S
C368 H363 0.949 . S
C368 C374 1.368 1_655 S
C369 C353 1.349 1_565 S
C369 H361 0.950 . S
C369 C367 1.327 . S
C370 C358 1.349 1_645 S
C370 H364 0.950 . S
C370 C371 1.327 . S
C371 H365 0.950 . S
C371 C370 1.327 . S
C371 C375 1.429 1_645 S
C372 C355 1.574 . S
C372 H366 0.949 . S
C372 C376 1.380 . S
C373 C354 1.435 . S
C373 C367 1.429 1_545 S
C373 C374 1.523 . S
C374 C355 1.368 1_545 S
C374 C368 1.368 1_455 S
C374 C373 1.523 . S
C375 C359 1.429 . S
C375 C371 1.429 1_465 S
C375 C376 1.521 . S
C376 C360 1.358 1_465 S
C376 C372 1.380 . S
C376 C375 1.521 . S
H377 C352 0.950 1_655 S
H378 C354 0.942 1_655 S
H379 C355 0.949 . S
H380 C357 0.950 . S
H381 C359 0.950 . S
C382 C383 1.349 . S
C382 C384 1.327 . S
C382 H407 0.950 . S
C383 C382 1.349 . S
C383 C399 1.332 1_545 S
C384 C382 1.327 . S
C384 C403 1.429 . S
C384 H408 0.950 . S
C385 C402 1.577 1_565 S
C385 C404 1.353 1_665 S
C385 H409 0.961 . S
H386 C390 0.949 . S
C387 C388 1.349 1_655 S
C387 C389 1.327 . S
C387 H410 0.950 1_545 S
C388 C387 1.349 1_455 S
C388 C400 1.349 . S
C389 C387 1.327 . S
C389 C405 1.429 1_655 S
C389 H411 0.950 1_545 S
C390 H386 0.949 . S
C390 C398 1.574 . S
C390 C406 1.368 . S
H391 C399 0.964 1_655 S
H392 C397 0.970 . S
H393 C398 0.949 . S
H394 C400 0.950 . S
H395 C401 0.950 . S
H396 C402 0.945 1_565 S
C397 H392 0.970 . S
C397 C399 1.327 1_655 S
C397 C403 1.412 1_665 S
C398 C390 1.574 . S
C398 H393 0.949 . S
C398 C404 1.368 . S
C399 C383 1.332 1_565 S
C399 H391 0.964 1_455 S
C399 C397 1.327 1_455 S
C400 C388 1.349 . S
C400 H394 0.950 . S
C400 C401 1.327 . S
C401 H395 0.950 . S
C401 C400 1.327 . S
C401 C405 1.429 . S
C402 C385 1.577 1_545 S
C402 H396 0.945 1_545 S
C402 C406 1.372 1_655 S
C403 C384 1.429 . S
C403 C397 1.412 1_445 S
C403 C404 1.523 . S
C404 C385 1.353 1_445 S
C404 C398 1.368 . S
C404 C403 1.523 . S
C405 C389 1.429 1_455 S
C405 C401 1.429 . S
C405 C406 1.523 . S
C406 C390 1.368 . S
C406 C402 1.372 1_455 S
C406 C405 1.523 . S
H407 C382 0.950 . S
H408 C384 0.950 . S
H409 C385 0.961 . S
H410 C387 0.950 1_565 S
H411 C389 0.950 1_565 S
C412 C413 1.349 . S
C412 C414 1.327 . S
C412 H437 0.950 . S
C413 C412 1.349 . S
C413 C429 1.349 . S
C414 C412 1.327 . S
C414 C433 1.429 . S
C414 H438 0.950 . S
C415 C432 1.574 . S
C415 C434 1.368 . S
C415 H439 0.949 . S
H416 C420 0.949 . S
C417 C418 1.349 . S
C417 C419 1.327 . S
C417 H440 0.950 . S
C418 C417 1.349 . S
C418 C430 1.349 . S
C419 C417 1.327 . S
C419 C435 1.429 . S
C419 H441 0.950 . S
C420 H416 0.949 . S
C420 C428 1.574 . S
C420 C436 1.368 . S
H421 C429 0.950 . S
H422 C427 0.950 . S
H423 C428 0.949 . S
H424 C430 0.950 . S
H425 C431 0.950 . S
H426 C432 0.949 . S
C427 H422 0.950 . S
C427 C429 1.327 . S
C427 C433 1.429 . S
C428 C420 1.574 . S
C428 H423 0.949 . S
C428 C434 1.368 . S
C429 C413 1.349 . S
C429 H421 0.950 . S
C429 C427 1.327 . S
C430 C418 1.349 . S
C430 H424 0.950 . S
C430 C431 1.327 . S
C431 H425 0.950 . S
C431 C430 1.327 . S
C431 C435 1.429 . S
C432 C415 1.574 . S
C432 H426 0.949 . S
C432 C436 1.368 . S
C433 C414 1.429 . S
C433 C427 1.429 . S
C433 C434 1.523 . S
C434 C415 1.368 . S
C434 C428 1.368 . S
C434 C433 1.523 . S
C435 C419 1.429 . S
C435 C431 1.429 . S
C435 C436 1.523 . S
C436 C420 1.368 . S
C436 C432 1.368 . S
C436 C435 1.523 . S
H437 C412 0.950 . S
H438 C414 0.950 . S
H439 C415 0.949 . S
H440 C417 0.950 . S
H441 C419 0.950 . S
C442 C443 1.349 . S
C442 C444 1.327 . S
C442 H467 0.950 . S
C443 C442 1.349 . S
C443 C459 1.349 . S
C444 C442 1.327 . S
C444 C463 1.429 . S
C444 H468 0.950 . S
C445 C462 1.574 . S
C445 C464 1.368 . S
C445 H469 0.949 . S
H446 C450 0.949 . S
C447 C448 1.349 . S
C447 C449 1.327 . S
C447 H470 0.950 . S
C448 C447 1.349 . S
C448 C460 1.349 . S
C449 C447 1.327 . S
C449 C465 1.429 . S
C449 H471 0.950 . S
C450 H446 0.949 . S
C450 C458 1.574 . S
C450 C466 1.368 . S
H451 C459 0.950 . S
H452 C457 0.950 . S
H453 C458 0.949 . S
H454 C460 0.950 . S
H455 C461 0.950 . S
H456 C462 0.949 . S
C457 H452 0.950 . S
C457 C459 1.327 . S
C457 C463 1.429 . S
C458 C450 1.574 . S
C458 H453 0.949 . S
C458 C464 1.368 . S
C459 C443 1.349 . S
C459 H451 0.950 . S
C459 C457 1.327 . S
C460 C448 1.349 . S
C460 H454 0.950 . S
C460 C461 1.327 . S
C461 H455 0.950 . S
C461 C460 1.327 . S
C461 C465 1.429 . S
C462 C445 1.574 . S
C462 H456 0.949 . S
C462 C466 1.368 . S
C463 C444 1.429 . S
C463 C457 1.429 . S
C463 C464 1.523 . S
C464 C445 1.368 . S
C464 C458 1.368 . S
C464 C463 1.523 . S
C465 C449 1.429 . S
C465 C461 1.429 . S
C465 C466 1.523 . S
C466 C450 1.368 . S
C466 C462 1.368 . S
C466 C465 1.523 . S
H467 C442 0.950 . S
H468 C444 0.950 . S
H469 C445 0.949 . S
H470 C447 0.950 . S
H471 C449 0.950 . S
C118 N101 1.327 . S
C113 C27 1.341 . S
C143 N6 1.278 . S
C148 N88 1.322 . S
C173 C16 1.469 . S
C178 N100 1.467 . S
C203 N14 1.413 1_556 S
C208 N87 1.439 . S
C233 C57 1.341 . S
C238 N75 1.327 . S
C263 N36 1.278 . S
C268 N62 1.322 . S
C298 N74 1.467 . S
C293 C46 1.469 . S
C328 N61 1.439 . S
C323 N44 1.413 . S
C353 C10 1.472 . S
C358 N65 1.451 1_565 S
C383 C1 1.554 . S
C388 N78 1.537 . S
C418 N91 1.451 . S
C413 C40 1.472 . S
C443 C31 1.554 . S
C448 N104 1.536 . S
