# Generated by pormake.
# Topology pyr, (3,6)-cn, num edge types: 1
# Building blocks:
#     Node 0, Type 0, BuildingBlock: BETDAH_clean_linker_0, # of connection points: 3
#     Node 1, Type 0, BuildingBlock: BETDAH_clean_linker_0, # of connection points: 3
#     Node 2, Type 0, BuildingBlock: BETDAH_clean_linker_0, # of connection points: 3
#     Node 3, Type 0, BuildingBlock: BETDAH_clean_linker_0, # of connection points: 3
#     Node 4, Type 0, BuildingBlock: BETDAH_clean_linker_0, # of connection points: 3
#     Node 5, Type 0, BuildingBlock: BETDAH_clean_linker_0, # of connection points: 3
#     Node 6, Type 0, BuildingBlock: BETDAH_clean_linker_0, # of connection points: 3
#     Node 7, Type 0, BuildingBlock: BETDAH_clean_linker_0, # of connection points: 3
#     Node 8, Type 1, BuildingBlock: BETFEN_clean_sbu_0, # of connection points: 6
#     Node 9, Type 1, BuildingBlock: BETFEN_clean_sbu_0, # of connection points: 6
#     Node 10, Type 1, BuildingBlock: BETFEN_clean_sbu_0, # of connection points: 6
#     Node 11, Type 1, BuildingBlock: BETFEN_clean_sbu_0, # of connection points: 6
#     Edge 12, Type (0, 1), BuildingBlock: ZUJKAS_clean_linker_0, # of connection points: 2
#     Edge 13, Type (0, 1), BuildingBlock: ZUJKAS_clean_linker_0, # of connection points: 2
#     Edge 14, Type (0, 1), BuildingBlock: ZUJKAS_clean_linker_0, # of connection points: 2
#     Edge 15, Type (0, 1), BuildingBlock: ZUJKAS_clean_linker_0, # of connection points: 2
#     Edge 16, Type (0, 1), BuildingBlock: ZUJKAS_clean_linker_0, # of connection points: 2
#     Edge 17, Type (0, 1), BuildingBlock: ZUJKAS_clean_linker_0, # of connection points: 2
#     Edge 18, Type (0, 1), BuildingBlock: ZUJKAS_clean_linker_0, # of connection points: 2
#     Edge 19, Type (0, 1), BuildingBlock: ZUJKAS_clean_linker_0, # of connection points: 2
#     Edge 20, Type (0, 1), BuildingBlock: ZUJKAS_clean_linker_0, # of connection points: 2
#     Edge 21, Type (0, 1), BuildingBlock: ZUJKAS_clean_linker_0, # of connection points: 2
#     Edge 22, Type (0, 1), BuildingBlock: ZUJKAS_clean_linker_0, # of connection points: 2
#     Edge 23, Type (0, 1), BuildingBlock: ZUJKAS_clean_linker_0, # of connection points: 2
#     Edge 24, Type (0, 1), BuildingBlock: ZUJKAS_clean_linker_0, # of connection points: 2
#     Edge 25, Type (0, 1), BuildingBlock: ZUJKAS_clean_linker_0, # of connection points: 2
#     Edge 26, Type (0, 1), BuildingBlock: ZUJKAS_clean_linker_0, # of connection points: 2
#     Edge 27, Type (0, 1), BuildingBlock: ZUJKAS_clean_linker_0, # of connection points: 2
#     Edge 28, Type (0, 1), BuildingBlock: ZUJKAS_clean_linker_0, # of connection points: 2
#     Edge 29, Type (0, 1), BuildingBlock: ZUJKAS_clean_linker_0, # of connection points: 2
#     Edge 30, Type (0, 1), BuildingBlock: ZUJKAS_clean_linker_0, # of connection points: 2
#     Edge 31, Type (0, 1), BuildingBlock: ZUJKAS_clean_linker_0, # of connection points: 2
#     Edge 32, Type (0, 1), BuildingBlock: ZUJKAS_clean_linker_0, # of connection points: 2
#     Edge 33, Type (0, 1), BuildingBlock: ZUJKAS_clean_linker_0, # of connection points: 2
#     Edge 34, Type (0, 1), BuildingBlock: ZUJKAS_clean_linker_0, # of connection points: 2
#     Edge 35, Type (0, 1), BuildingBlock: ZUJKAS_clean_linker_0, # of connection points: 2
# Relax obj value: 0.127
# Max RMSD: 0.272
# Mean RMSD: 0.129
data_MOF--net-pyr--node1-BETFEN_clean_sbu_0--node2-BETDAH_clean_linker_0--edge1-ZUJKAS_clean_linker_0
_symmetry_space_group_name_H-M    P1
_symmetry_Int_Tables_number       1
_symmetry_cell_setting            triclinic
loop_
_symmetry_equiv_pos_as_xyz
'x, y, z'
_cell_length_a     46.376727
_cell_length_b     50.957121
_cell_length_c     50.893562
_cell_angle_alpha  91.161434
_cell_angle_beta   100.55947
_cell_angle_gamma 112.84034
loop_
_atom_site_label
_atom_site_type_symbol
_atom_site_fract_x
_atom_site_fract_y
_atom_site_fract_z
_atom_type_partial_charge
H0 H 0.3185 0.28192 0.25744 0.0
H1 H 0.36215 0.36063 0.22355 0.0
H2 H 0.30437 0.35677 0.28165 0.0
C3 C 0.32253 0.30427 0.25611 0.0
C4 C 0.30885 0.31729 0.27151 0.0
C5 C 0.3417 0.3199 0.23903 0.0
C6 C 0.34696 0.3485 0.23668 0.0
C7 C 0.33364 0.36178 0.25226 0.0
C8 C 0.31461 0.34627 0.26967 0.0
N9 N 0.33954 0.39088 0.25063 0.0
C10 C 0.32559 0.39905 0.22769 0.0
H11 H 0.30372 0.79839 0.77603 0.0
H12 H 0.23388 0.83566 0.75934 0.0
H13 H 0.23727 0.77535 0.70033 0.0
C14 C 0.28354 0.80018 0.76274 0.0
C15 C 0.27223 0.78475 0.73738 0.0
C16 C 0.27011 0.81858 0.77097 0.0
C17 C 0.24426 0.8214 0.75325 0.0
C18 C 0.2322 0.80578 0.72751 0.0
C19 C 0.24614 0.7872 0.72007 0.0
N20 N 0.20534 0.80666 0.70892 0.0
C21 C 0.1952 0.82924 0.70469 0.0
H22 H 0.69573 0.3187 0.87644 0.0
H23 H 0.68302 0.36568 0.80901 0.0
H24 H 0.60659 0.28743 0.81885 0.0
C25 C 0.68126 0.32058 0.85787 0.0
C26 C 0.65008 0.29966 0.8492 0.0
C27 C 0.69334 0.34459 0.84369 0.0
C28 C 0.67377 0.34756 0.82032 0.0
C29 C 0.64238 0.32715 0.8114 0.0
C30 C 0.63076 0.30324 0.82587 0.0
N31 N 0.62188 0.32999 0.78808 0.0
C32 C 0.62826 0.35407 0.77374 0.0
H33 H 0.79772 0.72827 0.35004 0.0
H34 H 0.85142 0.72521 0.29024 0.0
H35 H 0.78072 0.64731 0.30982 0.0
C36 C 0.80285 0.71589 0.33538 0.0
C37 C 0.78707 0.68604 0.33281 0.0
C38 C 0.8266 0.73035 0.32111 0.0
C39 C 0.83311 0.71436 0.30137 0.0
C40 C 0.81558 0.68419 0.29632 0.0
C41 C 0.793 0.67041 0.31257 0.0
N42 N 0.81998 0.66625 0.27632 0.0
C43 C 0.83934 0.67217 0.2568 0.0
H44 H 0.75315 0.75088 0.79396 0.0
H45 H 0.68784 0.7472 0.84565 0.0
H46 H 0.70303 0.80575 0.78536 0.0
C47 C 0.73442 0.75631 0.79928 0.0
C48 C 0.7274 0.77751 0.7862 0.0
C49 C 0.721 0.74562 0.82145 0.0
C50 C 0.69849 0.75503 0.82862 0.0
C51 C 0.69232 0.77679 0.8154 0.0
C52 C 0.70673 0.78789 0.79442 0.0
N53 N 0.67422 0.79022 0.8242 0.0
C54 C 0.65344 0.77869 0.84085 0.0
H55 H 0.80586 0.22342 0.33435 0.0
H56 H 0.84041 0.2851 0.40384 0.0
H57 H 0.7669 0.28704 0.33959 0.0
C58 C 0.80504 0.24131 0.34557 0.0
C59 C 0.78345 0.25334 0.33417 0.0
C60 C 0.82524 0.25167 0.3711 0.0
C61 C 0.82512 0.27635 0.38426 0.0
C62 C 0.80431 0.28934 0.37302 0.0
C63 C 0.78337 0.27758 0.34803 0.0
N64 N 0.80562 0.31427 0.38751 0.0
C65 C 0.78208 0.32548 0.38509 0.0
H66 H 0.33846 0.7911 0.24843 0.0
H67 H 0.35153 0.72397 0.29261 0.0
H68 H 0.42876 0.8067 0.2994 0.0
C69 C 0.35274 0.78408 0.26374 0.0
C70 C 0.3846 0.80214 0.27339 0.0
C71 C 0.34136 0.75524 0.26881 0.0
C72 C 0.36002 0.74621 0.2886 0.0
C73 C 0.39122 0.76559 0.30093 0.0
C74 C 0.40369 0.79301 0.2923 0.0
N75 N 0.41233 0.75767 0.31964 0.0
C76 C 0.40413 0.73338 0.33332 0.0
H77 H 0.2443 0.37192 0.71891 0.0
H78 H 0.24813 0.4353 0.77862 0.0
H79 H 0.17034 0.35178 0.76404 0.0
C80 C 0.23411 0.37815 0.73417 0.0
C81 C 0.2052 0.3583 0.73924 0.0
C82 C 0.25018 0.40589 0.74795 0.0
C83 C 0.23631 0.41415 0.76779 0.0
C84 C 0.20742 0.39435 0.77393 0.0
C85 C 0.19253 0.36668 0.75957 0.0
N86 N 0.19217 0.39992 0.79447 0.0
C87 C 0.19678 0.42492 0.81024 0.0
Pr88 Pr 0.99315 0.03266 0.54594 0.0
Pr89 Pr 0.04558 0.05295 0.5148 0.0
C90 C 0.94241 0.99839 0.56372 0.0
C91 C 0.94017 0.98008 0.58573 0.0
C92 C 0.93778 0.98966 0.61095 0.0
C93 C 0.93378 0.9716 0.63131 0.0
C94 C 0.93203 0.94372 0.62661 0.0
C95 C 0.93727 0.93508 0.60225 0.0
C96 C 0.94104 0.95302 0.58186 0.0
C97 C 0.04057 0.08226 0.57687 0.0
C98 C 0.05243 0.01003 0.56238 0.0
C99 C 0.09611 0.08643 0.49603 0.0
C100 C 0.0987 0.1006 0.47122 0.0
C101 C 0.09419 0.08518 0.44654 0.0
C102 C 0.09852 0.09939 0.42357 0.0
C103 C 0.10731 0.12909 0.425 0.0
C104 C 0.10934 0.14407 0.44913 0.0
C105 C 0.10526 0.12995 0.47212 0.0
C106 C 0.99976 1.00216 0.48477 0.0
C107 C 0.98623 0.07634 0.49989 0.0
O108 O 0.95138 0.99059 0.54307 0.0
O109 O 0.95545 0.02604 0.57049 0.0
O110 O 0.04238 0.0718 0.55468 0.0
O111 O 1.01408 0.06651 0.58367 0.0
O112 O 0.06664 0.02653 0.54482 0.0
O113 O 0.0244 0.00839 0.56626 0.0
O114 O 0.08386 0.0962 0.51308 0.0
O115 O 0.08615 0.05852 0.49382 0.0
O116 O 0.99719 0.01284 0.50658 0.0
O117 O 0.02547 0.0189 0.47747 0.0
O118 O 0.97132 0.05838 0.5161 0.0
O119 O 1.01484 0.0789 0.49666 0.0
H120 H 0.93773 0.01066 0.61461 0.0
H121 H 0.92959 0.97871 0.64991 0.0
H122 H 0.93638 0.91376 0.59839 0.0
H123 H 0.94357 0.94522 0.56282 0.0
H124 H 0.08836 0.06239 0.44509 0.0
H125 H 0.0967 0.08748 0.40502 0.0
H126 H 0.11641 0.16706 0.45074 0.0
H127 H 0.10833 0.14223 0.49081 0.0
Pr128 Pr 0.48172 0.05028 0.06028 0.0
Pr129 Pr 0.53985 0.03395 0.05031 0.0
C130 C 0.43732 0.05419 0.08407 0.0
C131 C 0.43912 0.07796 0.10148 0.0
C132 C 0.44694 0.10531 0.09262 0.0
C133 C 0.44913 0.12779 0.10971 0.0
C134 C 0.44379 0.12311 0.13574 0.0
C135 C 0.43876 0.09655 0.14539 0.0
C136 C 0.4363 0.07394 0.12821 0.0
C137 C 0.5166 0.0886 0.02709 0.0
C138 C 0.55436 0.08264 0.10081 0.0
C139 C 0.58737 0.03101 0.03084 0.0
C140 C 0.58675 1.00646 0.01578 0.0
C141 C 0.57346 0.97903 0.02432 0.0
C142 C 0.56908 0.95526 1.00788 0.0
C143 C 0.57778 0.95886 0.98286 0.0
C144 C 0.58947 0.98609 0.97385 0.0
C145 C 0.59403 0.00982 0.99033 0.0
C146 C 0.50405 0.99533 0.08222 0.0
C147 C 0.46649 0.99872 0.01171 0.0
O148 O 0.45637 0.04207 0.09449 0.0
O149 O 0.43672 0.05787 0.05852 0.0
O150 O 0.52196 0.06817 0.03735 0.0
O151 O 0.49133 0.0895 0.03403 0.0
O152 O 0.56621 0.06907 0.08643 0.0
O153 O 0.52399 0.07918 0.09533 0.0
O154 O 0.56812 0.0419 0.01805 0.0
O155 O 0.58643 0.02861 0.05632 0.0
O156 O 0.49979 0.01635 0.07252 0.0
O157 O 0.52802 0.9928 0.07431 0.0
O158 O 0.45449 0.01121 0.02726 0.0
O159 O 0.49768 1.00528 0.01493 0.0
H160 H 0.45064 0.10924 0.07241 0.0
H161 H 0.45312 0.14841 0.10219 0.0
H162 H 0.43453 0.0928 0.16549 0.0
H163 H 0.43155 0.05317 0.13558 0.0
H164 H 0.56624 0.9759 0.04349 0.0
H165 H 0.55963 0.93423 0.01488 0.0
H166 H 0.59645 0.98922 0.95459 0.0
H167 H 0.60293 0.03078 0.98315 0.0
Pr168 Pr 0.55434 0.60181 0.58575 0.0
Pr169 Pr 0.53819 0.53956 0.55056 0.0
C170 C 0.54372 0.64415 0.61024 0.0
C171 C 0.52143 0.64918 0.62579 0.0
C172 C 0.53348 0.66477 0.65137 0.0
C173 C 0.51363 0.67254 0.66494 0.0
C174 C 0.48104 0.66457 0.65345 0.0
C175 C 0.4687 0.64818 0.62831 0.0
C176 C 0.48862 0.64075 0.61458 0.0
C177 C 0.58334 0.56619 0.6086 0.0
C178 C 0.49035 0.53983 0.59168 0.0
C179 C 0.55255 0.49677 0.53276 0.0
C180 C 0.57187 0.49087 0.51456 0.0
C181 C 0.55838 0.4789 0.48768 0.0
C182 C 0.57593 0.47008 0.47217 0.0
C183 C 0.60723 0.47272 0.48327 0.0
C184 C 0.62114 0.48615 0.50957 0.0
C185 C 0.60379 0.495 0.52493 0.0
C186 C 0.5131 0.57439 0.52083 0.0
C187 C 0.59641 0.60114 0.53965 0.0
O188 O 0.5328 0.63489 0.58472 0.0
O189 O 0.56375 0.63348 0.62203 0.0
O190 O 0.55554 0.5585 0.59456 0.0
O191 O 0.59744 0.59413 0.61265 0.0
O192 O 0.49825 0.52303 0.57651 0.0
O193 O 0.50605 0.56817 0.59519 0.0
O194 O 0.56862 0.51399 0.55471 0.0
O195 O 0.52582 0.4995 0.52236 0.0
O196 O 0.52855 0.57926 0.54461 0.0
O197 O 0.50904 0.54907 0.5111 0.0
O198 O 0.58719 0.61804 0.55337 0.0
O199 O 0.58626 0.5733 0.54191 0.0
H200 H 0.55857 0.67165 0.66061 0.0
H201 H 0.52383 0.68503 0.68434 0.0
H202 H 0.44378 0.6419 0.61884 0.0
H203 H 0.47836 0.6289 0.59489 0.0
H204 H 0.53392 0.47543 0.47893 0.0
H205 H 0.56443 0.45993 0.45196 0.0
H206 H 0.64538 0.48918 0.51864 0.0
H207 H 0.61523 0.50423 0.54541 0.0
Pr208 Pr 0.0329 0.60484 1.00306 0.0
Pr209 Pr 0.03967 0.56483 0.04273 0.0
C210 C 1.01341 0.63708 0.96949 0.0
C211 C 0.99978 0.65835 0.97206 0.0
C212 C 0.01755 0.68705 0.96884 0.0
C213 C 1.00361 0.70685 0.96836 0.0
C214 C 0.97184 0.69811 0.97121 0.0
C215 C 0.95486 0.66995 0.97645 0.0
C216 C 0.9687 0.65014 0.97682 0.0
C217 C 0.08595 0.62863 0.04458 0.0
C218 C 0.99879 0.60056 0.05823 0.0
C219 C 0.06511 0.536 0.07546 0.0
C220 C 0.07731 0.51425 0.07004 0.0
C221 C 0.05706 0.48505 0.06718 0.0
C222 C 0.06944 0.46441 0.06504 0.0
C223 C 0.10205 0.4728 0.06556 0.0
C224 C 0.12168 0.50177 0.06568 0.0
C225 C 0.10943 0.52245 0.06808 0.0
C226 C 0.98415 0.54031 1.00438 0.0
C227 C 0.07133 0.56588 0.98727 0.0
O228 O 0.9953 0.61055 0.97188 0.0
O229 O 0.04337 0.64466 0.98128 0.0
O230 O 0.05818 0.61301 0.04671 0.0
O231 O 0.08779 0.63318 0.01981 0.0
O232 O 1.0158 0.58619 0.06854 0.0
O233 O 0.99909 0.6079 0.03322 0.0
O234 O 0.08189 0.562 0.07035 0.0
O235 O 0.03413 0.52834 0.06828 0.0
O236 O 1.01085 0.55594 0.99924 0.0
O237 O 0.98615 0.5351 0.02937 0.0
O238 O 0.05609 0.58191 0.97732 0.0
O239 O 0.07079 0.55899 0.01218 0.0
H240 H 0.04168 0.69387 0.96547 0.0
H241 H 0.01684 0.72849 0.96407 0.0
H242 H 0.93005 0.66269 0.97814 0.0
H243 H 0.95449 0.6282 0.97963 0.0
H244 H 0.03206 0.47811 0.06805 0.0
H245 H 0.05418 0.44207 0.06519 0.0
H246 H 0.1471 0.50853 0.06652 0.0
H247 H 0.12552 0.5448 0.06977 0.0
H248 H 0.25001 0.3142 0.27517 0.0
H249 H 0.21358 0.28238 0.30104 0.0
H250 H 0.28397 0.24859 0.33135 0.0
H251 H 0.32084 0.28096 0.3062 0.0
H252 H 0.18979 0.223 0.29546 0.0
H253 H 0.25836 0.26801 0.39915 0.0
H254 H 0.26793 0.28671 0.3701 0.0
H255 H 0.28022 0.25791 0.37808 0.0
C256 C 0.25792 0.30047 0.28788 0.0
C257 C 0.28818 0.30012 0.28894 0.0
C258 C 0.23708 0.28218 0.30238 0.0
C259 C 0.24632 0.26347 0.3182 0.0
C260 C 0.27669 0.26327 0.31956 0.0
H261 H 0.15263 0.12348 0.40207 0.0
H262 H 0.18397 0.15627 0.37388 0.0
C263 C 0.29756 0.28158 0.30509 0.0
C264 C 0.22359 0.24338 0.33243 0.0
H265 H 0.21258 0.2241 0.39472 0.0
C266 C 0.19459 0.22338 0.31718 0.0
C267 C 0.23021 0.244 0.36072 0.0
C268 C 0.26075 0.26546 0.37802 0.0
C269 C 0.17205 0.20362 0.32958 0.0
C270 C 0.17881 0.2042 0.35772 0.0
C271 C 0.20765 0.22417 0.37304 0.0
C272 C 0.15713 0.1829 0.3716 0.0
C273 C 0.14142 0.18186 0.31275 0.0
C274 C 0.13131 0.18697 0.37882 0.0
C275 C 0.11326 0.16822 0.39492 0.0
C276 C 0.12092 0.14527 0.40359 0.0
C277 C 0.14581 0.14061 0.39508 0.0
C278 C 0.16391 0.15941 0.37928 0.0
H279 H 0.14046 0.18331 0.29089 0.0
H280 H 0.13886 0.15993 0.31731 0.0
H281 H 0.12075 0.18516 0.31794 0.0
H282 H 0.12601 0.20518 0.37291 0.0
H283 H 0.09427 0.17224 0.40148 0.0
H284 H 0.24363 0.82224 0.81471 0.0
H285 H 0.27226 0.84908 0.85922 0.0
H286 H 0.36075 0.87963 0.83116 0.0
H287 H 0.33256 0.85339 0.78722 0.0
H288 H 0.33177 0.84808 0.89692 0.0
H289 H 0.34945 0.9527 0.85755 0.0
H290 H 0.31892 0.91932 0.84064 0.0
H291 H 0.35978 0.9295 0.83758 0.0
C292 C 0.26909 0.83508 0.81807 0.0
C293 C 0.28578 0.83619 0.79735 0.0
C294 C 0.28549 0.85006 0.84354 0.0
C295 C 0.31869 0.86655 0.84847 0.0
C296 C 0.33517 0.86728 0.82782 0.0
H297 H 0.48004 0.97872 0.96704 0.0
H298 H 0.44251 0.94446 0.92952 0.0
C299 C 0.31899 0.85237 0.80266 0.0
C300 C 0.33656 0.88438 0.87447 0.0
H301 H 0.38231 0.95393 0.8998 0.0
C302 C 0.34238 0.87124 0.89773 0.0
C303 C 0.35057 0.91459 0.87555 0.0
C304 C 0.3442 0.92996 0.85158 0.0
C305 C 0.36279 0.88762 0.92166 0.0
C306 C 0.3777 0.91777 0.92228 0.0
C307 C 0.37113 0.93082 0.89926 0.0
C308 C 0.40065 0.9364 0.94635 0.0
C309 C 0.36924 0.87271 0.94591 0.0
C310 C 0.38965 0.94335 0.96832 0.0
C311 C 0.41101 0.96333 0.98964 0.0
C312 C 0.44394 0.97661 0.98958 0.0
C313 C 0.45494 0.96895 0.96784 0.0
C314 C 0.4335 0.9493 0.94637 0.0
H315 H 0.35801 0.84904 0.9416 0.0
H316 H 0.39543 0.87958 0.95312 0.0
H317 H 0.35975 0.87895 0.9624 0.0
H318 H 0.36439 0.93387 0.96864 0.0
H319 H 0.40164 0.96849 1.0061 0.0
H320 H 0.67203 0.40963 0.78062 0.0
H321 H 0.66997 0.44813 0.75258 0.0
H322 H 0.58453 0.3877 0.70029 0.0
H323 H 0.58647 0.34958 0.72823 0.0
H324 H 0.66791 0.45421 0.69563 0.0
H325 H 0.55697 0.45001 0.72494 0.0
H326 H 0.58193 0.43376 0.74305 0.0
H327 H 0.5544 0.4159 0.71215 0.0
C328 C 0.65301 0.40468 0.76301 0.0
C329 C 0.62925 0.37677 0.75658 0.0
C330 C 0.65185 0.42661 0.74699 0.0
C331 C 0.62678 0.42096 0.7245 0.0
C332 C 0.60378 0.39277 0.71773 0.0
H333 H 0.55234 0.50831 0.60506 0.0
H334 H 0.5661 0.4748 0.63294 0.0
C335 C 0.60497 0.37097 0.73364 0.0
C336 C 0.62355 0.4444 0.70861 0.0
H337 H 0.57186 0.47651 0.68825 0.0
C338 C 0.6471 0.45933 0.69423 0.0
C339 C 0.59645 0.45121 0.70676 0.0
C340 C 0.57111 0.4371 0.72273 0.0
C341 C 0.64357 0.48 0.67729 0.0
C342 C 0.61602 0.48622 0.67498 0.0
C343 C 0.59291 0.47172 0.68985 0.0
C344 C 0.60982 0.50682 0.65657 0.0
C345 C 0.66868 0.49422 0.6612 0.0
C346 C 0.62997 0.53616 0.66023 0.0
C347 C 0.62218 0.55553 0.64407 0.0
C348 C 0.59401 0.54592 0.62405 0.0
C349 C 0.57433 0.51648 0.62013 0.0
C350 C 0.58211 0.49724 0.63617 0.0
H351 H 0.68489 0.48295 0.66091 0.0
H352 H 0.65737 0.49503 0.64018 0.0
H353 H 0.68335 0.51654 0.67023 0.0
H354 H 0.65118 0.54424 0.67612 0.0
H355 H 0.63767 0.57808 0.64778 0.0
H356 H 0.81323 0.63059 0.21484 0.0
H357 H 0.83856 0.61994 0.17999 0.0
H358 H 0.92507 0.69363 0.21255 0.0
H359 H 0.89987 0.70382 0.24784 0.0
H360 H 0.86341 0.64404 0.13908 0.0
H361 H 0.96308 0.63602 0.2118 0.0
H362 H 0.92901 0.63862 0.22204 0.0
H363 H 0.96125 0.67031 0.21602 0.0
C364 C 0.83765 0.64468 0.21452 0.0
C365 C 0.8544 0.66811 0.23439 0.0
C366 C 0.85225 0.63851 0.19443 0.0
C367 C 0.88439 0.65537 0.19351 0.0
C368 C 0.90073 0.67947 0.21287 0.0
H369 H 0.01965 0.64944 0.09282 0.0
H370 H 0.99142 0.66257 0.12392 0.0
C371 C 0.88612 0.68559 0.23305 0.0
C372 C 0.90072 0.64749 0.17281 0.0
H373 H 0.96757 0.63584 0.16619 0.0
C374 C 0.88614 0.64219 0.1452 0.0
C375 C 0.93041 0.64457 0.18008 0.0
C376 C 0.94672 0.64736 0.2091 0.0
C377 C 0.9005 0.63505 0.1252 0.0
C378 C 0.93046 0.63266 0.13254 0.0
C379 C 0.94489 0.63779 0.16008 0.0
C380 C 0.94725 0.62493 0.11225 0.0
C381 C 0.88374 0.63089 0.09616 0.0
C382 C 0.93249 0.59922 0.09491 0.0
C383 C 0.94879 0.59169 0.077 0.0
C384 C 0.98042 0.60961 0.07567 0.0
C385 C 0.99522 0.63526 0.09293 0.0
C386 C 0.979 0.64274 0.11091 0.0
H387 H 0.86564 0.64039 0.0931 0.0
H388 H 0.90116 0.64059 0.08317 0.0
H389 H 0.87122 0.60764 0.08959 0.0
H390 H 0.90851 0.58446 0.09566 0.0
H391 H 0.93677 0.57151 0.06447 0.0
H392 H 0.39546 0.3149 0.26211 0.0
H393 H 0.41738 0.28272 0.24546 0.0
H394 H 0.3462 0.26101 0.17182 0.0
H395 H 0.32401 0.29327 0.18862 0.0
H396 H 0.3665 0.21865 0.22513 0.0
H397 H 0.44393 0.28154 0.1572 0.0
H398 H 0.43685 0.29884 0.18525 0.0
H399 H 0.40544 0.28289 0.15621 0.0
C400 C 0.38535 0.30397 0.24202 0.0
C401 C 0.35868 0.30654 0.22624 0.0
C402 C 0.3976 0.28561 0.23271 0.0
C403 C 0.38319 0.26987 0.20763 0.0
C404 C 0.35748 0.27341 0.1912 0.0
H405 H 0.39651 0.1394 0.11766 0.0
H406 H 0.38211 0.17375 0.14014 0.0
C407 C 0.3451 0.29179 0.20059 0.0
C408 C 0.39342 0.24788 0.19987 0.0
H409 H 0.43925 0.23416 0.16126 0.0
C410 C 0.38259 0.22193 0.21133 0.0
C411 C 0.41428 0.25277 0.18197 0.0
C412 C 0.42601 0.28052 0.16939 0.0
C413 C 0.39184 0.20012 0.20468 0.0
C414 C 0.4126 0.20503 0.18667 0.0
C415 C 0.4238 0.23112 0.17558 0.0
C416 C 0.41921 0.18206 0.17572 0.0
C417 C 0.37868 0.17169 0.21595 0.0
C418 C 0.44457 0.17558 0.18885 0.0
C419 C 0.45288 0.15595 0.17603 0.0
C420 C 0.43603 0.14348 0.15007 0.0
C421 C 0.41013 0.14949 0.13749 0.0
C422 C 0.40171 0.16869 0.15031 0.0
H423 H 0.36309 0.17158 0.23016 0.0
H424 H 0.36462 0.15455 0.19928 0.0
H425 H 0.3987 0.16652 0.22651 0.0
H426 H 0.45821 0.18616 0.20852 0.0
H427 H 0.47268 0.15103 0.18593 0.0
H428 H 0.18953 0.87608 0.72785 0.0
H429 H 0.16273 0.90558 0.70551 0.0
H430 H 0.13836 0.85269 0.63096 0.0
H431 H 0.16441 0.82319 0.65331 0.0
H432 H 0.17472 0.93879 0.66594 0.0
H433 H 0.0535 0.85514 0.62967 0.0
H434 H 0.08341 0.84899 0.65375 0.0
H435 H 0.08298 0.84584 0.61833 0.0
C436 C 0.1783 0.87075 0.70673 0.0
C437 C 0.17932 0.84738 0.69233 0.0
C438 C 0.16288 0.88762 0.69389 0.0
C439 C 0.14778 0.8814 0.66637 0.0
C440 C 0.14883 0.85785 0.65221 0.0
H441 H 0.07929 0.97557 0.54372 0.0
H442 H 0.10135 0.94439 0.56894 0.0
C443 C 0.16416 0.84108 0.665 0.0
C444 C 0.13262 0.90025 0.65207 0.0
H445 H 0.06537 0.89906 0.60914 0.0
C446 C 0.15069 0.92997 0.65377 0.0
C447 C 0.10107 0.88924 0.63602 0.0
C448 C 0.079 0.85811 0.63454 0.0
C449 C 0.13871 0.94848 0.63955 0.0
C450 C 0.10766 0.93736 0.62295 0.0
C451 C 0.08932 0.90776 0.62149 0.0
C452 C 0.09389 0.95629 0.60738 0.0
C453 C 0.15958 0.97996 0.64196 0.0
C454 C 0.08195 0.97342 0.62026 0.0
C455 C 0.0687 0.99082 0.60572 0.0
C456 C 0.06774 0.99227 0.57796 0.0
C457 C 0.08006 0.9754 0.56512 0.0
C458 C 0.09256 0.9574 0.57954 0.0
H459 H 0.18432 0.98496 0.65317 0.0
H460 H 0.16058 0.98748 0.62169 0.0
H461 H 0.14904 0.99207 0.65263 0.0
H462 H 0.08261 0.97313 0.64163 0.0
H463 H 0.0594 1.00341 0.61631 0.0
H464 H 0.71268 0.40276 0.84368 0.0
H465 H 0.7649 0.43983 0.8639 0.0
H466 H 0.79904 0.37498 0.88947 0.0
H467 H 0.74763 0.33773 0.86784 0.0
H468 H 0.7912 0.44878 0.91639 0.0
H469 H 0.87313 0.42831 0.86036 0.0
H470 H 0.83025 0.41279 0.84858 0.0
H471 H 0.8491 0.39676 0.87368 0.0
C472 C 0.73154 0.39629 0.85286 0.0
C473 C 0.72584 0.36717 0.85413 0.0
C474 C 0.76132 0.41756 0.86459 0.0
C475 C 0.78595 0.41016 0.87787 0.0
C476 C 0.78061 0.38118 0.87878 0.0
H477 H 0.95106 0.48329 1.00097 0.0
H478 H 0.9032 0.454 0.9674 0.0
C479 C 0.75098 0.3599 0.86678 0.0
C480 C 0.81614 0.43259 0.89297 0.0
H481 H 0.89739 0.45601 0.90339 0.0
C482 C 0.8144 0.45074 0.91319 0.0
C483 C 0.84639 0.43511 0.88876 0.0
C484 C 0.84986 0.41737 0.86646 0.0
C485 C 0.84215 0.47041 0.93011 0.0
C486 C 0.87217 0.47192 0.92658 0.0
C487 C 0.87411 0.4546 0.90589 0.0
C488 C 0.90165 0.48965 0.9457 0.0
C489 C 0.83937 0.48868 0.95237 0.0
C490 C 0.91653 0.51915 0.94408 0.0
C491 C 0.94412 0.53575 0.9629 0.0
C492 C 0.95651 0.52299 0.98365 0.0
C493 C 0.94163 0.49346 0.98512 0.0
C494 C 0.91451 0.47681 0.96605 0.0
H495 H 0.81408 0.48384 0.95329 0.0
H496 H 0.85187 0.48535 0.972 0.0
H497 H 0.85122 0.5116 0.94927 0.0
H498 H 0.90665 0.52926 0.92845 0.0
H499 H 0.95518 0.55854 0.96168 0.0
H500 H 0.79904 0.70334 0.38645 0.0
H501 H 0.7642 0.68825 0.41829 0.0
H502 H 0.69397 0.62176 0.35942 0.0
H503 H 0.72837 0.6381 0.32608 0.0
H504 H 0.68991 0.6803 0.40539 0.0
H505 H 0.71997 0.58884 0.43815 0.0
H506 H 0.74741 0.61825 0.42418 0.0
H507 H 0.71162 0.59312 0.40279 0.0
C508 C 0.776 0.68576 0.37974 0.0
C509 C 0.76645 0.67271 0.35301 0.0
C510 C 0.7561 0.677 0.39831 0.0
C511 C 0.72618 0.65412 0.39139 0.0
C512 C 0.71686 0.63974 0.36526 0.0
H513 H 0.59755 0.56921 0.49697 0.0
H514 H 0.62773 0.5831 0.46191 0.0
C515 C 0.73673 0.64896 0.34623 0.0
C516 C 0.70541 0.64589 0.41193 0.0
H517 H 0.687 0.60112 0.46123 0.0
C518 C 0.689 0.6628 0.41745 0.0
C519 C 0.70434 0.62331 0.42796 0.0
C520 C 0.72177 0.60472 0.42323 0.0
C521 C 0.67141 0.65756 0.43819 0.0
C522 C 0.67088 0.6353 0.45472 0.0
C523 C 0.68728 0.61835 0.44898 0.0
C524 C 0.65208 0.62787 0.47689 0.0
C525 C 0.65291 0.67557 0.44163 0.0
C526 C 0.65516 0.64824 0.49773 0.0
C527 C 0.63717 0.64028 0.51817 0.0
C528 C 0.61626 0.61159 0.51864 0.0
C529 C 0.61362 0.59147 0.49785 0.0
C530 C 0.63101 0.59942 0.47748 0.0
H531 H 0.64833 0.68575 0.4231 0.0
H532 H 0.62962 0.66258 0.44684 0.0
H533 H 0.66706 0.69291 0.45808 0.0
H534 H 0.67178 0.67025 0.49847 0.0
H535 H 0.64006 0.65642 0.53375 0.0
H536 H 0.30814 0.37519 0.17628 0.0
H537 H 0.2704 0.38359 0.14005 0.0
H538 H 0.26265 0.44565 0.19428 0.0
H539 H 0.30065 0.43775 0.22999 0.0
H540 H 0.20745 0.37419 0.14331 0.0
H541 H 0.27502 0.48747 0.12781 0.0
H542 H 0.29436 0.46595 0.14473 0.0
H543 H 0.27395 0.48191 0.16235 0.0
C544 C 0.29888 0.39113 0.18002 0.0
C545 C 0.30722 0.40622 0.20547 0.0
C546 C 0.27737 0.39579 0.15951 0.0
C547 C 0.26422 0.41553 0.16448 0.0
C548 C 0.2732 0.4309 0.18988 0.0
H549 H 0.10671 0.4544 0.11399 0.0
H550 H 0.14373 0.43344 0.13404 0.0
C551 C 0.29472 0.42635 0.21023 0.0
C552 C 0.23904 0.41851 0.14409 0.0
H553 H 0.21811 0.46844 0.11197 0.0
C554 C 0.20995 0.39461 0.13591 0.0
C555 C 0.24243 0.44529 0.13482 0.0
C556 C 0.27324 0.47156 0.14271 0.0
C557 C 0.18355 0.39722 0.11962 0.0
C558 C 0.18684 0.42412 0.11107 0.0
C559 C 0.21614 0.44773 0.11837 0.0
C560 C 0.15937 0.42938 0.09722 0.0
C561 C 0.15199 0.37172 0.11241 0.0
C562 C 0.15573 0.43333 0.06981 0.0
C563 C 0.13478 0.44553 0.05836 0.0
C564 C 0.11731 0.45342 0.07434 0.0
C565 C 0.11944 0.44762 0.10127 0.0
C566 C 0.1405 0.43575 0.1127 0.0
H567 H 0.15388 0.35175 0.11916 0.0
H568 H 0.13411 0.37569 0.12189 0.0
H569 H 0.14293 0.36869 0.09032 0.0
H570 H 0.17057 0.42872 0.05784 0.0
H571 H 0.13359 0.45035 0.03765 0.0
H572 H 0.5919 0.27716 0.86411 0.0
H573 H 0.57365 0.23906 0.89334 0.0
H574 H 0.66204 0.22771 0.89994 0.0
H575 H 0.68064 0.2662 0.87123 0.0
H576 H 0.56216 0.18366 0.8885 0.0
H577 H 0.66009 0.23466 0.97776 0.0
H578 H 0.65414 0.25374 0.9492 0.0
H579 H 0.67353 0.22938 0.94799 0.0
C580 C 0.60737 0.26642 0.87163 0.0
C581 C 0.63781 0.27491 0.86537 0.0
C582 C 0.59698 0.24468 0.8885 0.0
C583 C 0.61665 0.23073 0.8995 0.0
C584 C 0.64669 0.23859 0.89257 0.0
H585 H 0.57183 0.09279 1.00984 0.0
H586 H 0.59805 0.1249 0.97785 0.0
C587 C 0.65723 0.26053 0.87593 0.0
C588 C 0.60523 0.20768 0.91767 0.0
H589 H 0.62245 0.18812 0.98085 0.0
C590 C 0.57549 0.18471 0.90865 0.0
C591 C 0.62262 0.2086 0.94399 0.0
C592 C 0.65423 0.23302 0.95546 0.0
C593 C 0.56244 0.16318 0.92516 0.0
C594 C 0.57925 0.1646 0.95172 0.0
C595 C 0.60954 0.18692 0.9605 0.0
C596 C 0.56411 0.14486 0.97129 0.0
C597 C 0.5305 0.13908 0.91405 0.0
C598 C 0.53666 0.14552 0.97859 0.0
C599 C 0.52175 0.12728 0.99666 0.0
C600 C 0.5338 0.10775 1.00812 0.0
C601 C 0.56164 0.10724 1.00117 0.0
C602 C 0.57674 0.12572 0.98297 0.0
H603 H 0.52506 0.13648 0.89173 0.0
H604 H 0.52978 0.11852 0.92146 0.0
H605 H 0.51142 0.14384 0.92074 0.0
H606 H 0.52671 0.16036 0.97033 0.0
H607 H 0.50055 0.12851 1.00162 0.0
H608 H 0.80395 0.77196 0.32676 0.0
H609 H 0.83145 0.8174 0.35539 0.0
H610 H 0.91944 0.80502 0.36695 0.0
H611 H 0.89173 0.75889 0.33876 0.0
H612 H 0.88383 0.81844 0.41774 0.0
H613 H 0.91813 0.89427 0.34066 0.0
H614 H 0.88102 0.86289 0.33344 0.0
H615 H 0.91823 0.85898 0.3367 0.0
C616 C 0.82941 0.77925 0.33473 0.0
C617 C 0.84561 0.76164 0.33026 0.0
C618 C 0.84501 0.80513 0.35143 0.0
C619 C 0.87743 0.81449 0.3638 0.0
C620 C 0.89431 0.7981 0.35791 0.0
H621 H 0.01686 0.97315 0.45001 0.0
H622 H 0.98594 0.92715 0.42379 0.0
C623 C 0.87859 0.77196 0.34133 0.0
C624 C 0.89341 0.84116 0.38306 0.0
H625 H 0.93311 0.91377 0.38559 0.0
C626 C 0.8946 0.83934 0.41077 0.0
C627 C 0.90721 0.86843 0.37407 0.0
C628 C 0.90626 0.8716 0.34461 0.0
C629 C 0.90981 0.86399 0.42962 0.0
C630 C 0.92408 0.8914 0.4206 0.0
C631 C 0.92232 0.89301 0.39278 0.0
C632 C 0.94311 0.91853 0.43929 0.0
C633 C 0.91133 0.86034 0.45907 0.0
C634 C 0.92992 0.92946 0.45756 0.0
C635 C 0.94802 0.95624 0.47308 0.0
C636 C 0.97953 0.97285 0.47031 0.0
C637 C 0.9926 0.9614 0.4525 0.0
C638 C 0.97484 0.93484 0.43739 0.0
H639 H 0.90493 0.83762 0.46309 0.0
H640 H 0.93565 0.87344 0.47095 0.0
H641 H 0.89421 0.8677 0.46613 0.0
H642 H 0.90536 0.91773 0.45927 0.0
H643 H 0.93708 0.96425 0.48657 0.0
H644 H 0.25765 0.72666 0.73386 0.0
H645 H 0.2921 0.70249 0.72418 0.0
H646 H 0.3632 0.78376 0.71249 0.0
H647 H 0.32926 0.80769 0.7226 0.0
H648 H 0.31684 0.69859 0.67995 0.0
H649 H 0.41754 0.75482 0.76506 0.0
H650 H 0.37834 0.75497 0.76309 0.0
H651 H 0.40607 0.77925 0.74527 0.0
C652 C 0.28049 0.73918 0.72889 0.0
C653 C 0.29064 0.76901 0.72859 0.0
C654 C 0.3003 0.72543 0.72356 0.0
C655 C 0.33077 0.7413 0.71814 0.0
C656 C 0.34037 0.771 0.71731 0.0
H657 H 0.48918 0.71952 0.66758 0.0
H658 H 0.45245 0.73578 0.68527 0.0
C659 C 0.32073 0.78466 0.7227 0.0
C660 C 0.35234 0.72712 0.71249 0.0
H661 H 0.42927 0.73159 0.72965 0.0
C662 C 0.3413 0.70556 0.69104 0.0
C663 C 0.38431 0.7359 0.72701 0.0
C664 C 0.3972 0.75728 0.75158 0.0
C665 C 0.36163 0.69383 0.68275 0.0
C666 C 0.39406 0.70345 0.69656 0.0
C667 C 0.40472 0.72429 0.7187 0.0
C668 C 0.41756 0.69323 0.68764 0.0
C669 C 0.34834 0.67218 0.65837 0.0
C670 C 0.41114 0.66387 0.68378 0.0
C671 C 0.43187 0.65456 0.67309 0.0
C672 C 0.46017 0.67436 0.66682 0.0
C673 C 0.46759 0.70372 0.67217 0.0
C674 C 0.44652 0.71302 0.68232 0.0
H675 H 0.32623 0.67282 0.64611 0.0
H676 H 0.36612 0.67586 0.64545 0.0
H677 H 0.34212 0.6504 0.66498 0.0
H678 H 0.38982 0.64803 0.6887 0.0
H679 H 0.42573 0.63181 0.66961 0.0
H680 H 0.71955 0.7656 0.73275 0.0
H681 H 0.75576 0.79321 0.70406 0.0
H682 H 0.81503 0.85344 0.77265 0.0
H683 H 0.77913 0.82594 0.80113 0.0
H684 H 0.77919 0.85705 0.69857 0.0
H685 H 0.87206 0.81745 0.74224 0.0
H686 H 0.83067 0.79977 0.74473 0.0
H687 H 0.85648 0.83195 0.76604 0.0
C688 C 0.74037 0.78477 0.74137 0.0
C689 C 0.74744 0.79379 0.76874 0.0
C690 C 0.7607 0.80044 0.72519 0.0
C691 C 0.78792 0.82483 0.73666 0.0
C692 C 0.79416 0.83437 0.76385 0.0
H693 H 0.94575 0.9482 0.68157 0.0
H694 H 0.91132 0.91741 0.70959 0.0
C695 C 0.77393 0.8188 0.77993 0.0
C696 C 0.81094 0.83987 0.72066 0.0
H697 H 0.88714 0.85477 0.71388 0.0
C698 C 0.80272 0.85648 0.70162 0.0
C699 C 0.84145 0.83897 0.7253 0.0
C700 C 0.85072 0.82091 0.74556 0.0
C701 C 0.82488 0.87287 0.68708 0.0
C702 C 0.85541 0.87186 0.69162 0.0
C703 C 0.86357 0.85524 0.71068 0.0
C704 C 0.87882 0.88743 0.67604 0.0
C705 C 0.81573 0.89143 0.66733 0.0
C706 C 0.87244 0.87946 0.64852 0.0
C707 C 0.89176 0.89678 0.63266 0.0
C708 C 0.91776 0.92219 0.64428 0.0
C709 C 0.92568 0.92879 0.67226 0.0
C710 C 0.90617 0.91137 0.68816 0.0
H711 H 0.79456 0.89498 0.67099 0.0
H712 H 0.83591 0.91253 0.66839 0.0
H713 H 0.80971 0.88076 0.64666 0.0
H714 H 0.85146 0.86074 0.63914 0.0
H715 H 0.88477 0.89139 0.6111 0.0
H716 H 0.74998 0.19608 0.32033 0.0
H717 H 0.71192 0.17153 0.27911 0.0
H718 H 0.72312 0.25269 0.24907 0.0
H719 H 0.76259 0.27771 0.29034 0.0
H720 H 0.65474 0.17366 0.25976 0.0
H721 H 0.73275 0.20904 0.18539 0.0
H722 H 0.74861 0.21395 0.22112 0.0
H723 H 0.73126 0.2374 0.20595 0.0
C724 C 0.7449 0.20886 0.30485 0.0
C725 C 0.75975 0.23895 0.30867 0.0
C726 C 0.72284 0.19471 0.28129 0.0
C727 C 0.71475 0.21012 0.26078 0.0
C728 C 0.7293 0.24024 0.2644 0.0
H729 H 0.56299 0.1376 0.11496 0.0
H730 H 0.6015 0.17032 0.15343 0.0
C731 C 0.7516 0.25454 0.28814 0.0
C732 C 0.69013 0.19416 0.23634 0.0
H733 H 0.67829 0.1793 0.16834 0.0
C734 C 0.6599 0.1751 0.23977 0.0
C735 C 0.69681 0.19582 0.2102 0.0
C736 C 0.72917 0.21494 0.20532 0.0
C737 C 0.63647 0.15752 0.21798 0.0
C738 C 0.64327 0.15899 0.19201 0.0
C739 C 0.67315 0.17838 0.18833 0.0
C740 C 0.62006 0.13945 0.16873 0.0
C741 C 0.60467 0.13701 0.2228 0.0
C742 C 0.61779 0.11133 0.1647 0.0
C743 C 0.59633 0.09291 0.14259 0.0
C744 C 0.57625 0.10207 0.12447 0.0
C745 C 0.57806 0.13002 0.1288 0.0
C746 C 0.60008 0.1487 0.15063 0.0
H747 H 0.60151 0.14092 0.24343 0.0
H748 H 0.58482 0.13881 0.20806 0.0
H749 H 0.60291 0.11475 0.21985 0.0
H750 H 0.63281 0.10374 0.17857 0.0
H751 H 0.59522 0.07137 0.13975 0.0
H752 H 0.42506 0.69187 0.32696 0.0
H753 H 0.43954 0.66473 0.36255 0.0
H754 H 0.40127 0.70196 0.41692 0.0
H755 H 0.38666 0.72903 0.38121 0.0
H756 H 0.48358 0.69638 0.41136 0.0
H757 H 0.36986 0.61591 0.43144 0.0
H758 H 0.37232 0.63083 0.39961 0.0
H759 H 0.37258 0.65189 0.42838 0.0
C760 C 0.41866 0.69334 0.34621 0.0
C761 C 0.40446 0.7121 0.35145 0.0
C762 C 0.42713 0.67805 0.36655 0.0
C763 C 0.42144 0.68133 0.39234 0.0
C764 C 0.40546 0.69882 0.39707 0.0
H765 H 0.49238 0.61415 0.53808 0.0
H766 H 0.47181 0.64451 0.50994 0.0
C767 C 0.39705 0.71418 0.3767 0.0
C768 C 0.43572 0.66925 0.41485 0.0
H769 H 0.41787 0.61877 0.4592 0.0
C770 C 0.46921 0.67951 0.42192 0.0
C771 C 0.41693 0.6476 0.42884 0.0
C772 C 0.3809 0.63567 0.42171 0.0
C773 C 0.48439 0.66809 0.4421 0.0
C774 C 0.4656 0.64565 0.45533 0.0
C775 C 0.43216 0.63612 0.44905 0.0
C776 C 0.48002 0.6294 0.4731 0.0
C777 C 0.52042 0.67968 0.44883 0.0
C778 C 0.49145 0.61111 0.46167 0.0
C779 C 0.50266 0.59366 0.4775 0.0
C780 C 0.50309 0.59449 0.50514 0.0
C781 C 0.49263 0.61346 0.51686 0.0
C782 C 0.48075 0.63061 0.50083 0.0
H783 H 0.53138 0.70109 0.44165 0.0
H784 H 0.52934 0.68133 0.47085 0.0
H785 H 0.52844 0.66483 0.43902 0.0
H786 H 0.49091 0.60978 0.4403 0.0
H787 H 0.5108 0.57933 0.46807 0.0
H788 H 0.20574 0.4257 0.86491 0.0
H789 H 0.18843 0.45146 0.89599 0.0
H790 H 0.15687 0.4924 0.83022 0.0
H791 H 0.17373 0.46635 0.79919 0.0
H792 H 0.20138 0.5074 0.91299 0.0
H793 H 0.07565 0.45713 0.85802 0.0
H794 H 0.10567 0.44493 0.85177 0.0
H795 H 0.10245 0.47569 0.83686 0.0
C796 C 0.19566 0.44063 0.85715 0.0
C797 C 0.19155 0.44412 0.82945 0.0
C798 C 0.18555 0.45534 0.87501 0.0
C799 C 0.17046 0.47371 0.86573 0.0
C800 C 0.16757 0.47799 0.83817 0.0
H801 H 0.0755 0.57186 0.93368 0.0
H802 H 0.1008 0.55084 0.90595 0.0
C803 C 0.17769 0.46331 0.82035 0.0
C804 C 0.15683 0.48754 0.88438 0.0
H805 H 0.08795 0.49515 0.89131 0.0
C806 C 0.17652 0.50456 0.9082 0.0
C807 C 0.12424 0.48393 0.87883 0.0
C808 C 0.10065 0.4642 0.85516 0.0
C809 C 0.165 0.51855 0.92569 0.0
C810 C 0.13253 0.51544 0.91972 0.0
C811 C 0.11285 0.49814 0.8961 0.0
C812 C 0.11827 0.52957 0.9375 0.0
C813 C 0.18813 0.53724 0.9501 0.0
C814 C 0.11906 0.52493 0.96482 0.0
C815 C 0.1044 0.53695 0.9808 0.0
C816 C 0.08821 0.55412 0.97016 0.0
C817 C 0.08761 0.55893 0.94287 0.0
C818 C 0.10217 0.54677 0.92686 0.0
H819 H 0.21337 0.54367 0.94811 0.0
H820 H 0.18379 0.55683 0.95366 0.0
H821 H 0.18488 0.52517 0.96799 0.0
H822 H 0.1304 0.51134 0.97378 0.0
H823 H 0.10546 0.53241 1.00156 0.0
H824 H 0.65613 0.77065 0.89323 0.0
H825 H 0.63234 0.79348 0.9206 0.0
H826 H 0.58047 0.81055 0.84798 0.0
H827 H 0.60133 0.7854 0.82129 0.0
H828 H 0.65227 0.84827 0.91523 0.0
H829 H 0.51984 0.80342 0.89351 0.0
H830 H 0.54156 0.78306 0.88463 0.0
H831 H 0.53468 0.80873 0.86317 0.0
C832 C 0.63741 0.77706 0.88348 0.0
C833 C 0.62989 0.77631 0.85555 0.0
C834 C 0.6243 0.79043 0.89895 0.0
C835 C 0.60467 0.80355 0.88621 0.0
C836 C 0.59453 0.79967 0.85824 0.0
H837 H 0.55845 0.94388 0.92911 0.0
H838 H 0.57061 0.90962 0.90367 0.0
C839 C 0.60648 0.78528 0.84296 0.0
C840 C 0.60105 0.82644 0.90093 0.0
H841 H 0.54666 0.8533 0.9094 0.0
C842 C 0.62912 0.84913 0.91448 0.0
C843 C 0.57101 0.82792 0.89875 0.0
C844 C 0.54014 0.80429 0.88436 0.0
C845 C 0.62775 0.87334 0.9263 0.0
C846 C 0.59754 0.87434 0.92446 0.0
C847 C 0.56971 0.85211 0.91047 0.0
C848 C 0.59346 0.89675 0.93911 0.0
C849 C 0.65841 0.8976 0.94031 0.0
C850 C 0.60163 0.89971 0.96714 0.0
C851 C 0.59485 0.91905 0.98153 0.0
C852 C 0.57957 0.93526 0.9679 0.0
C853 C 0.57043 0.93155 0.93982 0.0
C854 C 0.57759 0.91242 0.9254 0.0
H855 H 0.67924 0.89772 0.93237 0.0
H856 H 0.65685 0.91868 0.93812 0.0
H857 H 0.66296 0.89487 0.96206 0.0
H858 H 0.61294 0.88689 0.97783 0.0
H859 H 0.60253 0.922 1.0032 0.0
H860 H 0.88467 0.27226 0.40684 0.0
H861 H 0.9146 0.24483 0.42775 0.0
H862 H 0.84012 0.16684 0.38608 0.0
H863 H 0.80989 0.19353 0.3659 0.0
H864 H 0.89956 0.20167 0.46133 0.0
H865 H 0.91768 0.15879 0.36802 0.0
H866 H 0.90503 0.18805 0.36903 0.0
H867 H 0.8764 0.15166 0.36691 0.0
C868 C 0.87449 0.24927 0.40211 0.0
C869 C 0.8447 0.2355 0.38411 0.0
C870 C 0.89184 0.23353 0.41407 0.0
C871 C 0.88017 0.20358 0.40823 0.0
C872 C 0.85042 0.18989 0.3905 0.0
H873 H 0.92339 0.06191 0.47439 0.0
H874 H 0.89909 0.09307 0.45203 0.0
C875 C 0.83304 0.20544 0.37877 0.0
C876 C 0.89808 0.1863 0.42123 0.0
H877 H 0.92644 0.13554 0.40732 0.0
C878 C 0.90568 0.18747 0.44944 0.0
C879 C 0.90645 0.16764 0.40602 0.0
C880 C 0.9013 0.16662 0.37583 0.0
C881 C 0.92014 0.17002 0.46256 0.0
C882 C 0.92754 0.15075 0.44734 0.0
C883 C 0.92055 0.14994 0.41918 0.0
C884 C 0.94264 0.13149 0.46044 0.0
C885 C 0.92691 0.17178 0.49277 0.0
C886 C 0.97541 0.14233 0.47247 0.0
C887 C 0.98953 0.12435 0.48467 0.0
C888 C 0.97117 0.09508 0.48584 0.0
C889 C 0.93829 0.08429 0.47401 0.0
C890 C 0.92435 0.10214 0.46116 0.0
H891 H 0.91651 0.18522 0.50173 0.0
H892 H 0.91713 0.15 0.49945 0.0
H893 H 0.95318 0.18108 0.50053 0.0
H894 H 0.99017 0.16481 0.47237 0.0
H895 H 1.0148 0.13353 0.49376 0.0
H896 H 0.28673 0.7092 0.27508 0.0
H897 H 0.24168 0.67949 0.23853 0.0
H898 H 0.29194 0.72762 0.18025 0.0
H899 H 0.33691 0.75498 0.21553 0.0
H900 H 0.20463 0.69814 0.20351 0.0
H901 H 0.26367 0.65007 0.1448 0.0
H902 H 0.28209 0.66677 0.17864 0.0
H903 H 0.28594 0.68796 0.15046 0.0
C904 C 0.28824 0.71272 0.25437 0.0
C905 C 0.31496 0.73471 0.24815 0.0
C906 C 0.26261 0.69593 0.2336 0.0
C907 C 0.26379 0.70103 0.20664 0.0
C908 C 0.29082 0.72256 0.2007 0.0
H909 H 0.14606 0.67065 0.04819 0.0
H910 H 0.18885 0.68837 0.08891 0.0
C911 C 0.31633 0.73863 0.22106 0.0
C912 C 0.23614 0.6862 0.1844 0.0
H913 H 0.21777 0.65702 0.11947 0.0
C914 C 0.2072 0.68854 0.18534 0.0
C915 C 0.2397 0.67397 0.1606 0.0
C916 C 0.2695 0.66933 0.15872 0.0
C917 C 0.18233 0.6804 0.1626 0.0
C918 C 0.18651 0.66929 0.13855 0.0
C919 C 0.21496 0.66604 0.13786 0.0
C920 C 0.161 0.65956 0.11422 0.0
C921 C 0.1523 0.68478 0.16422 0.0
C922 C 0.13169 0.63752 0.11516 0.0
C923 C 0.10742 0.62794 0.0924 0.0
C924 C 0.11234 0.63957 0.06802 0.0
C925 C 0.14188 0.66132 0.06679 0.0
C926 C 0.16615 0.67139 0.08991 0.0
H927 H 0.15649 0.70085 0.18111 0.0
H928 H 0.14286 0.69182 0.14526 0.0
H929 H 0.13372 0.66424 0.16768 0.0
H930 H 0.1276 0.62758 0.1335 0.0
H931 H 0.08483 0.61113 0.0939 0.0
H932 H 0.27149 0.46386 0.74036 0.0
H933 H 0.31448 0.49096 0.71701 0.0
H934 H 0.33983 0.41849 0.71223 0.0
H935 H 0.2986 0.39202 0.73651 0.0
H936 H 0.39322 0.49001 0.72711 0.0
H937 H 0.30294 0.45115 0.63119 0.0
H938 H 0.29225 0.4567 0.66259 0.0
H939 H 0.30156 0.42645 0.65632 0.0
C940 C 0.28679 0.45397 0.73508 0.0
C941 C 0.28068 0.42532 0.73983 0.0
C942 C 0.31125 0.46944 0.72149 0.0
C943 C 0.33008 0.4566 0.71237 0.0
C944 C 0.32556 0.42886 0.7188 0.0
H945 H 0.45306 0.48265 0.59544 0.0
H946 H 0.41446 0.46347 0.62476 0.0
C947 C 0.30165 0.41366 0.73261 0.0
C948 C 0.35272 0.47077 0.69437 0.0
H949 H 0.35712 0.47373 0.62791 0.0
C950 C 0.38527 0.48677 0.70544 0.0
C951 C 0.34255 0.46634 0.66605 0.0
C952 C 0.30791 0.44935 0.65312 0.0
C953 C 0.40781 0.49813 0.68895 0.0
C954 C 0.39766 0.49332 0.66057 0.0
C955 C 0.36507 0.47741 0.64957 0.0
C956 C 0.42048 0.50487 0.64206 0.0
C957 C 0.44254 0.51458 0.70202 0.0
C958 C 0.43628 0.5345 0.64143 0.0
C959 C 0.45802 0.54548 0.62455 0.0
C960 C 0.46484 0.52721 0.6077 0.0
C961 C 0.4485 0.49745 0.60795 0.0
C962 C 0.42645 0.48644 0.62481 0.0
H963 H 0.44757 0.51135 0.72363 0.0
H964 H 0.45819 0.5081 0.69165 0.0
H965 H 0.4489 0.53777 0.70047 0.0
H966 H 0.43183 0.54926 0.65408 0.0
H967 H 0.46984 0.56852 0.62508 0.0
H968 H 0.74712 0.70774 0.80988 0.0
H969 H 0.79057 0.70109 0.84021 0.0
H970 H 0.77335 0.74289 0.90646 0.0
H971 H 0.73197 0.75177 0.87647 0.0
H972 H 0.84215 0.76131 0.87351 0.0
H973 H 0.79171 0.66699 0.92979 0.0
H974 H 0.77205 0.66955 0.8964 0.0
H975 H 0.7716 0.69104 0.92449 0.0
C976 C 0.75211 0.71504 0.831 0.0
C977 C 0.73671 0.73118 0.84044 0.0
C978 C 0.77678 0.71107 0.84824 0.0
C979 C 0.78513 0.72199 0.87524 0.0
C980 C 0.76704 0.73451 0.88551 0.0
H981 H 0.93591 0.71542 0.99859 0.0
H982 H 0.89352 0.73054 0.97786 0.0
C983 C 0.74302 0.73921 0.86823 0.0
C984 C 0.81541 0.72434 0.89187 0.0
H985 H 0.84709 0.69479 0.94229 0.0
C986 C 0.84346 0.74684 0.8886 0.0
C987 C 0.81643 0.70585 0.91178 0.0
C988 C 0.78642 0.68186 0.91594 0.0
C989 C 0.87305 0.75114 0.90479 0.0
C990 C 0.87439 0.73186 0.9241 0.0
C991 C 0.84602 0.70975 0.92766 0.0
C992 C 0.90491 0.73164 0.93835 0.0
C993 C 0.90238 0.77629 0.90106 0.0
C994 C 0.92626 0.72888 0.92333 0.0
C995 C 0.95087 0.72125 0.9353 0.0
C996 C 0.95384 0.71544 0.96222 0.0
C997 C 0.93407 0.72018 0.97784 0.0
C998 C 0.90987 0.7286 0.96599 0.0
H999 H 0.89621 0.79446 0.89449 0.0
H1000 H 0.92107 0.78377 0.9198 0.0
H1001 H 0.91243 0.76993 0.88505 0.0
H1002 H 0.92231 0.73009 0.90184 0.0
H1003 H 0.96542 0.71698 0.92278 0.0
H1004 H 0.38779 0.85698 0.27737 0.0
H1005 H 0.4037 0.89223 0.2446 0.0
H1006 H 0.42605 0.83307 0.19886 0.0
H1007 H 0.4108 0.79833 0.23164 0.0
H1008 H 0.46529 0.91536 0.22657 0.0
H1009 H 0.36114 0.85465 0.14454 0.0
H1010 H 0.36167 0.84819 0.17938 0.0
H1011 H 0.38225 0.83411 0.16018 0.0
C1012 C 0.39693 0.85202 0.26066 0.0
C1013 C 0.39905 0.8255 0.25724 0.0
C1014 C 0.40563 0.87189 0.24188 0.0
C1015 C 0.41565 0.86504 0.2192 0.0
C1016 C 0.41812 0.83865 0.21609 0.0
H1017 H 0.49227 0.93931 0.08555 0.0
H1018 H 0.4675 0.9087 0.11859 0.0
C1019 C 0.40991 0.81906 0.23497 0.0
C1020 C 0.42415 0.8855 0.19884 0.0
H1021 H 0.40437 0.89314 0.13224 0.0
C1022 C 0.45174 0.91081 0.20604 0.0
C1023 C 0.40644 0.87927 0.17207 0.0
C1024 C 0.37605 0.8527 0.16354 0.0
C1025 C 0.46287 0.92961 0.18689 0.0
C1026 C 0.44555 0.92316 0.15997 0.0
C1027 C 0.4175 0.89812 0.15291 0.0
C1028 C 0.45759 0.94115 0.13858 0.0
C1029 C 0.49388 0.95557 0.19529 0.0
C1030 C 0.45956 0.96937 0.13849 0.0
C1031 C 0.47346 0.98682 0.11941 0.0
C1032 C 0.48567 0.97633 0.10026 0.0
C1033 C 0.48293 0.94789 0.10003 0.0
C1034 C 0.46876 0.93039 0.11885 0.0
H1035 H 0.50701 0.95488 0.21567 0.0
H1036 H 0.50961 0.95737 0.18078 0.0
H1037 H 0.48876 0.9751 0.19543 0.0
H1038 H 0.45104 0.97808 0.15354 0.0
H1039 H 0.47613 0.00886 0.12058 0.0
H1040 H 0.20335 0.34493 0.68581 0.0
H1041 H 0.18044 0.29843 0.6597 0.0
H1042 H 0.14481 0.25828 0.72737 0.0
H1043 H 0.16912 0.30493 0.75443 0.0
H1044 H 0.19021 0.24672 0.66803 0.0
H1045 H 0.06453 0.23099 0.66551 0.0
H1046 H 0.09757 0.26527 0.67555 0.0
H1047 H 0.08941 0.23828 0.69859 0.0
C1048 C 0.19126 0.32634 0.69562 0.0
C1049 C 0.18877 0.32925 0.72274 0.0
C1050 C 0.17786 0.29954 0.68037 0.0
C1051 C 0.16065 0.27455 0.69128 0.0
C1052 C 0.15766 0.27715 0.7182 0.0
H1053 H 0.04612 0.097 0.62944 0.0
H1054 H 0.07794 0.14284 0.65609 0.0
C1055 C 0.1715 0.30405 0.7337 0.0
C1056 C 0.1453 0.24613 0.67418 0.0
H1057 H 0.07263 0.1925 0.64673 0.0
C1058 C 0.16448 0.23488 0.66336 0.0
C1059 C 0.1117 0.23057 0.66764 0.0
C1060 C 0.08947 0.24191 0.67718 0.0
C1061 C 0.1511 0.20838 0.64704 0.0
C1062 C 0.11743 0.19264 0.64082 0.0
C1063 C 0.09838 0.20418 0.6514 0.0
C1064 C 0.1011 0.16368 0.62454 0.0
C1065 C 0.17323 0.19709 0.63726 0.0
C1066 C 0.10359 0.15929 0.59767 0.0
C1067 C 0.08529 0.13255 0.5822 0.0
C1068 C 0.06379 0.10971 0.59317 0.0
C1069 C 0.0622 0.11403 0.62018 0.0
C1070 C 0.08048 0.14042 0.63555 0.0
H1071 H 0.1983 0.20826 0.64857 0.0
H1072 H 0.16536 0.17379 0.63911 0.0
H1073 H 0.17281 0.20045 0.61574 0.0
H1074 H 0.11872 0.17682 0.58829 0.0
H1075 H 0.08697 0.13019 0.56141 0.0
H1076 H 0.76663 0.33325 0.43189 0.0
H1077 H 0.7369 0.36119 0.4426 0.0
H1078 H 0.72401 0.38144 0.36056 0.0
H1079 H 0.75387 0.35311 0.34978 0.0
H1080 H 0.75143 0.41851 0.43935 0.0
H1081 H 0.6329 0.3552 0.37343 0.0
H1082 H 0.66384 0.34162 0.38066 0.0
H1083 H 0.66644 0.36791 0.3572 0.0
C1084 C 0.75702 0.34328 0.41602 0.0
C1085 C 0.76204 0.34053 0.38992 0.0
C1086 C 0.74014 0.35942 0.42218 0.0
C1087 C 0.7276 0.37321 0.40238 0.0
C1088 C 0.73268 0.37055 0.37614 0.0
H1089 H 0.61254 0.47314 0.42969 0.0
H1090 H 0.64237 0.45172 0.40742 0.0
C1091 C 0.7498 0.35438 0.36997 0.0
C1092 C 0.71038 0.39096 0.40994 0.0
H1093 H 0.63712 0.39508 0.40041 0.0
C1094 C 0.72648 0.41341 0.43065 0.0
C1095 C 0.67789 0.38485 0.39845 0.0
C1096 C 0.65905 0.36098 0.37632 0.0
C1097 C 0.71098 0.42918 0.44061 0.0
C1098 C 0.67804 0.42204 0.43019 0.0
C1099 C 0.66225 0.40051 0.40862 0.0
C1100 C 0.6593 0.435 0.44304 0.0
C1101 C 0.73018 0.45345 0.46235 0.0
C1102 C 0.65814 0.43234 0.47027 0.0
C1103 C 0.64133 0.44455 0.48296 0.0
C1104 C 0.62471 0.45965 0.46881 0.0
C1105 C 0.62504 0.46171 0.44126 0.0
C1106 C 0.64216 0.44951 0.42851 0.0
H1107 H 0.75608 0.462 0.462 0.0
H1108 H 0.72194 0.47121 0.4602 0.0
H1109 H 0.72732 0.44552 0.48225 0.0
H1110 H 0.67017 0.42054 0.48182 0.0
H1111 H 0.641 0.44178 0.50396 0.0
loop_
_geom_bond_atom_site_label_1
_geom_bond_atom_site_label_2
_geom_bond_distance
_geom_bond_site_symmetry_2
_ccdc_geom_bond_type
H0 C3 0.929 . S
H1 C6 0.929 . S
H2 C8 0.930 . S
C3 H0 0.929 . S
C3 C4 1.398 . S
C3 C5 1.396 . S
C4 C3 1.398 . S
C4 C8 1.407 . S
C5 C3 1.396 . S
C5 C6 1.394 . S
C6 H1 0.929 . S
C6 C5 1.394 . S
C6 C7 1.382 . S
C7 C6 1.382 . S
C7 C8 1.392 . S
C7 N9 1.420 . S
C8 H2 0.930 . S
C8 C4 1.407 . S
C8 C7 1.392 . S
N9 C7 1.420 . S
N9 C10 1.244 . S
C10 N9 1.244 . S
H11 C14 0.929 . S
H12 C17 0.929 . S
H13 C19 0.930 . S
C14 H11 0.929 . S
C14 C15 1.398 . S
C14 C16 1.396 . S
C15 C14 1.398 . S
C15 C19 1.407 . S
C16 C14 1.396 . S
C16 C17 1.394 . S
C17 H12 0.929 . S
C17 C16 1.394 . S
C17 C18 1.382 . S
C18 C17 1.382 . S
C18 C19 1.392 . S
C18 N20 1.420 . S
C19 H13 0.930 . S
C19 C15 1.407 . S
C19 C18 1.392 . S
N20 C18 1.420 . S
N20 C21 1.244 . S
C21 N20 1.244 . S
H22 C25 0.929 . S
H23 C28 0.929 . S
H24 C30 0.930 . S
C25 H22 0.929 . S
C25 C26 1.398 . S
C25 C27 1.396 . S
C26 C25 1.398 . S
C26 C30 1.407 . S
C27 C25 1.396 . S
C27 C28 1.394 . S
C28 H23 0.929 . S
C28 C27 1.394 . S
C28 C29 1.382 . S
C29 C28 1.382 . S
C29 C30 1.392 . S
C29 N31 1.420 . S
C30 H24 0.930 . S
C30 C26 1.407 . S
C30 C29 1.392 . S
N31 C29 1.420 . S
N31 C32 1.244 . S
C32 N31 1.244 . S
H33 C36 0.929 . S
H34 C39 0.929 . S
H35 C41 0.930 . S
C36 H33 0.929 . S
C36 C37 1.398 . S
C36 C38 1.396 . S
C37 C36 1.398 . S
C37 C41 1.407 . S
C38 C36 1.396 . S
C38 C39 1.394 . S
C39 H34 0.929 . S
C39 C38 1.394 . S
C39 C40 1.382 . S
C40 C39 1.382 . S
C40 C41 1.392 . S
C40 N42 1.420 . S
C41 H35 0.930 . S
C41 C37 1.407 . S
C41 C40 1.392 . S
N42 C40 1.420 . S
N42 C43 1.244 . S
C43 N42 1.244 . S
H44 C47 0.929 . S
H45 C50 0.929 . S
H46 C52 0.930 . S
C47 H44 0.929 . S
C47 C48 1.398 . S
C47 C49 1.396 . S
C48 C47 1.398 . S
C48 C52 1.407 . S
C49 C47 1.396 . S
C49 C50 1.394 . S
C50 H45 0.929 . S
C50 C49 1.394 . S
C50 C51 1.382 . S
C51 C50 1.382 . S
C51 C52 1.392 . S
C51 N53 1.420 . S
C52 H46 0.930 . S
C52 C48 1.407 . S
C52 C51 1.392 . S
N53 C51 1.420 . S
N53 C54 1.244 . S
C54 N53 1.244 . S
H55 C58 0.929 . S
H56 C61 0.929 . S
H57 C63 0.930 . S
C58 H55 0.929 . S
C58 C59 1.398 . S
C58 C60 1.396 . S
C59 C58 1.398 . S
C59 C63 1.407 . S
C60 C58 1.396 . S
C60 C61 1.394 . S
C61 H56 0.929 . S
C61 C60 1.394 . S
C61 C62 1.382 . S
C62 C61 1.382 . S
C62 C63 1.392 . S
C62 N64 1.420 . S
C63 H57 0.930 . S
C63 C59 1.407 . S
C63 C62 1.392 . S
N64 C62 1.420 . S
N64 C65 1.244 . S
C65 N64 1.244 . S
H66 C69 0.929 . S
H67 C72 0.929 . S
H68 C74 0.930 . S
C69 H66 0.929 . S
C69 C70 1.398 . S
C69 C71 1.396 . S
C70 C69 1.398 . S
C70 C74 1.407 . S
C71 C69 1.396 . S
C71 C72 1.394 . S
C72 H67 0.929 . S
C72 C71 1.394 . S
C72 C73 1.382 . S
C73 C72 1.382 . S
C73 C74 1.392 . S
C73 N75 1.420 . S
C74 H68 0.930 . S
C74 C70 1.407 . S
C74 C73 1.392 . S
N75 C73 1.420 . S
N75 C76 1.244 . S
C76 N75 1.244 . S
H77 C80 0.929 . S
H78 C83 0.929 . S
H79 C85 0.930 . S
C80 H77 0.929 . S
C80 C81 1.398 . S
C80 C82 1.396 . S
C81 C80 1.398 . S
C81 C85 1.407 . S
C82 C80 1.396 . S
C82 C83 1.394 . S
C83 H78 0.929 . S
C83 C82 1.394 . S
C83 C84 1.382 . S
C84 C83 1.382 . S
C84 C85 1.392 . S
C84 N86 1.420 . S
C85 H79 0.930 . S
C85 C81 1.407 . S
C85 C84 1.392 . S
N86 C84 1.420 . S
N86 C87 1.244 . S
C87 N86 1.244 . S
Pr88 C90 2.880 1_545 S
Pr88 O108 2.562 1_545 S
Pr88 O109 2.490 . S
Pr88 O110 2.695 1_655 S
Pr88 O111 2.512 1_655 S
Pr88 O113 2.437 1_655 S
Pr88 O116 2.436 1_545 S
Pr88 O118 2.438 . S
Pr89 C99 2.880 . S
Pr89 O110 2.436 . S
Pr89 O112 2.438 . S
Pr89 O114 2.562 . S
Pr89 O115 2.490 . S
Pr89 O116 2.695 1_445 S
Pr89 O117 2.512 1_545 S
Pr89 O119 2.437 1_455 S
C90 Pr88 2.880 1_565 S
C90 C91 1.491 . S
C90 O108 1.254 . S
C90 O109 1.225 1_565 S
C91 C90 1.491 . S
C91 C92 1.392 . S
C91 C96 1.356 . S
C92 C91 1.392 . S
C92 C93 1.368 . S
C92 H120 0.929 . S
C93 C92 1.368 . S
C93 C94 1.386 . S
C93 H121 0.929 . S
C94 C93 1.386 . S
C94 C95 1.373 . S
C95 C94 1.373 . S
C95 C96 1.409 . S
C95 H122 0.931 . S
C96 C91 1.356 . S
C96 C95 1.409 . S
C96 H123 0.930 . S
C97 O110 1.270 . S
C97 O111 1.248 . S
C98 O112 1.262 1_565 S
C98 O113 1.262 1_565 S
C99 Pr89 2.880 . S
C99 C100 1.491 . S
C99 O114 1.254 . S
C99 O115 1.225 . S
C100 C99 1.491 . S
C100 C101 1.392 . S
C100 C105 1.356 . S
C101 C100 1.392 . S
C101 C102 1.368 . S
C101 H124 0.929 . S
C102 C101 1.368 . S
C102 C103 1.386 . S
C102 H125 0.929 . S
C103 C102 1.386 . S
C103 C104 1.373 . S
C104 C103 1.373 . S
C104 C105 1.409 . S
C104 H126 0.931 . S
C105 C100 1.356 . S
C105 C104 1.409 . S
C105 H127 0.930 . S
C106 O116 1.270 . S
C106 O117 1.248 1_655 S
C107 O118 1.267 . S
C107 O119 1.278 . S
O108 Pr88 2.562 1_565 S
O108 C90 1.254 . S
O109 Pr88 2.490 . S
O109 C90 1.225 1_545 S
O110 Pr88 2.695 1_455 S
O110 Pr89 2.436 . S
O110 C97 1.270 . S
O111 Pr88 2.512 1_455 S
O111 C97 1.248 . S
O112 Pr89 2.438 . S
O112 C98 1.262 1_545 S
O113 Pr88 2.437 1_455 S
O113 C98 1.262 1_545 S
O114 Pr89 2.562 . S
O114 C99 1.254 . S
O115 Pr89 2.490 . S
O115 C99 1.225 . S
O116 Pr88 2.436 1_565 S
O116 Pr89 2.695 1_665 S
O116 C106 1.270 . S
O117 Pr89 2.512 1_565 S
O117 C106 1.248 1_455 S
O118 Pr88 2.438 . S
O118 C107 1.267 . S
O119 Pr89 2.437 1_655 S
O119 C107 1.278 . S
H120 C92 0.929 . S
H121 C93 0.929 . S
H122 C95 0.931 . S
H123 C96 0.930 . S
H124 C101 0.929 . S
H125 C102 0.929 . S
H126 C104 0.931 . S
H127 C105 0.930 . S
Pr128 C130 2.880 . S
Pr128 O148 2.562 . S
Pr128 O149 2.490 . S
Pr128 O150 2.695 . S
Pr128 O151 2.512 . S
Pr128 O153 2.437 . S
Pr128 O156 2.436 . S
Pr128 O158 2.438 . S
Pr129 C139 2.880 1_545 S
Pr129 O150 2.436 . S
Pr129 O152 2.438 . S
Pr129 O154 2.562 . S
Pr129 O155 2.490 1_545 S
Pr129 O156 2.695 . S
Pr129 O157 2.512 1_545 S
Pr129 O159 2.437 1_545 S
C130 Pr128 2.880 . S
C130 C131 1.491 . S
C130 O148 1.254 . S
C130 O149 1.225 . S
C131 C130 1.491 . S
C131 C132 1.392 . S
C131 C136 1.356 . S
C132 C131 1.392 . S
C132 C133 1.368 . S
C132 H160 0.929 . S
C133 C132 1.368 . S
C133 C134 1.386 . S
C133 H161 0.929 . S
C134 C133 1.386 . S
C134 C135 1.373 . S
C135 C134 1.373 . S
C135 C136 1.409 . S
C135 H162 0.931 . S
C136 C131 1.356 . S
C136 C135 1.409 . S
C136 H163 0.930 . S
C137 O150 1.270 . S
C137 O151 1.248 . S
C138 O152 1.267 . S
C138 O153 1.278 . S
C139 Pr129 2.880 1_565 S
C139 C140 1.491 1_554 S
C139 O154 1.254 1_565 S
C139 O155 1.225 . S
C140 C139 1.491 1_556 S
C140 C141 1.392 1_556 S
C140 C145 1.356 . S
C141 C140 1.392 1_554 S
C141 C142 1.368 1_554 S
C141 H164 0.929 . S
C142 C141 1.368 1_556 S
C142 C143 1.386 . S
C142 H165 0.929 . S
C143 C142 1.386 . S
C143 C144 1.373 . S
C144 C143 1.373 . S
C144 C145 1.409 . S
C144 H166 0.931 . S
C145 C140 1.356 . S
C145 C144 1.409 . S
C145 H167 0.930 . S
C146 O156 1.270 1_565 S
C146 O157 1.248 . S
C147 O158 1.267 1_565 S
C147 O159 1.278 . S
O148 Pr128 2.562 . S
O148 C130 1.254 . S
O149 Pr128 2.490 . S
O149 C130 1.225 . S
O150 Pr128 2.695 . S
O150 Pr129 2.436 . S
O150 C137 1.270 . S
O151 Pr128 2.512 . S
O151 C137 1.248 . S
O152 Pr129 2.438 . S
O152 C138 1.267 . S
O153 Pr128 2.437 . S
O153 C138 1.278 . S
O154 Pr129 2.562 . S
O154 C139 1.254 1_545 S
O155 Pr129 2.490 1_565 S
O155 C139 1.225 . S
O156 Pr128 2.436 . S
O156 Pr129 2.695 . S
O156 C146 1.270 1_545 S
O157 Pr129 2.512 1_565 S
O157 C146 1.248 . S
O158 Pr128 2.438 . S
O158 C147 1.267 1_545 S
O159 Pr129 2.437 1_565 S
O159 C147 1.278 . S
H160 C132 0.929 . S
H161 C133 0.929 . S
H162 C135 0.931 . S
H163 C136 0.930 . S
H164 C141 0.929 . S
H165 C142 0.929 . S
H166 C144 0.931 . S
H167 C145 0.930 . S
Pr168 C170 2.880 . S
Pr168 O188 2.562 . S
Pr168 O189 2.490 . S
Pr168 O190 2.695 . S
Pr168 O191 2.512 . S
Pr168 O193 2.437 . S
Pr168 O196 2.436 . S
Pr168 O198 2.438 . S
Pr169 C179 2.880 . S
Pr169 O190 2.436 . S
Pr169 O192 2.438 . S
Pr169 O194 2.562 . S
Pr169 O195 2.490 . S
Pr169 O196 2.695 . S
Pr169 O197 2.512 . S
Pr169 O199 2.437 . S
C170 Pr168 2.880 . S
C170 C171 1.491 . S
C170 O188 1.254 . S
C170 O189 1.225 . S
C171 C170 1.491 . S
C171 C172 1.392 . S
C171 C176 1.356 . S
C172 C171 1.392 . S
C172 C173 1.368 . S
C172 H200 0.929 . S
C173 C172 1.368 . S
C173 C174 1.386 . S
C173 H201 0.929 . S
C174 C173 1.386 . S
C174 C175 1.373 . S
C175 C174 1.373 . S
C175 C176 1.409 . S
C175 H202 0.931 . S
C176 C171 1.356 . S
C176 C175 1.409 . S
C176 H203 0.930 . S
C177 O190 1.270 . S
C177 O191 1.248 . S
C178 O192 1.267 . S
C178 O193 1.278 . S
C179 Pr169 2.880 . S
C179 C180 1.491 . S
C179 O194 1.254 . S
C179 O195 1.225 . S
C180 C179 1.491 . S
C180 C181 1.392 . S
C180 C185 1.356 . S
C181 C180 1.392 . S
C181 C182 1.368 . S
C181 H204 0.929 . S
C182 C181 1.368 . S
C182 C183 1.386 . S
C182 H205 0.929 . S
C183 C182 1.386 . S
C183 C184 1.373 . S
C184 C183 1.373 . S
C184 C185 1.409 . S
C184 H206 0.931 . S
C185 C180 1.356 . S
C185 C184 1.409 . S
C185 H207 0.930 . S
C186 O196 1.270 . S
C186 O197 1.248 . S
C187 O198 1.267 . S
C187 O199 1.278 . S
O188 Pr168 2.562 . S
O188 C170 1.254 . S
O189 Pr168 2.490 . S
O189 C170 1.225 . S
O190 Pr168 2.695 . S
O190 Pr169 2.436 . S
O190 C177 1.270 . S
O191 Pr168 2.512 . S
O191 C177 1.248 . S
O192 Pr169 2.438 . S
O192 C178 1.267 . S
O193 Pr168 2.437 . S
O193 C178 1.278 . S
O194 Pr169 2.562 . S
O194 C179 1.254 . S
O195 Pr169 2.490 . S
O195 C179 1.225 . S
O196 Pr168 2.436 . S
O196 Pr169 2.695 . S
O196 C186 1.270 . S
O197 Pr169 2.512 . S
O197 C186 1.248 . S
O198 Pr168 2.438 . S
O198 C187 1.267 . S
O199 Pr169 2.437 . S
O199 C187 1.278 . S
H200 C172 0.929 . S
H201 C173 0.929 . S
H202 C175 0.931 . S
H203 C176 0.930 . S
H204 C181 0.929 . S
H205 C182 0.929 . S
H206 C184 0.931 . S
H207 C185 0.930 . S
Pr208 C210 2.880 1_455 S
Pr208 O228 2.562 1_455 S
Pr208 O229 2.490 . S
Pr208 O230 2.695 1_556 S
Pr208 O231 2.512 1_556 S
Pr208 O233 2.437 1_556 S
Pr208 O236 2.436 1_455 S
Pr208 O238 2.438 . S
Pr209 C219 2.880 . S
Pr209 O230 2.436 . S
Pr209 O232 2.438 1_455 S
Pr209 O234 2.562 . S
Pr209 O235 2.490 . S
Pr209 O236 2.695 1_454 S
Pr209 O237 2.513 1_454 S
Pr209 O239 2.437 1_554 S
C210 Pr208 2.880 1_655 S
C210 C211 1.491 . S
C210 O228 1.254 . S
C210 O229 1.225 1_655 S
C211 C210 1.491 . S
C211 C212 1.392 . S
C211 C216 1.356 . S
C212 C211 1.392 . S
C212 C213 1.368 . S
C212 H240 0.929 1_655 S
C213 C212 1.368 . S
C213 C214 1.386 . S
C213 H241 0.929 . S
C214 C213 1.386 . S
C214 C215 1.373 . S
C215 C214 1.373 . S
C215 C216 1.409 . S
C215 H242 0.931 . S
C216 C211 1.356 . S
C216 C215 1.409 . S
C216 H243 0.930 . S
C217 O230 1.270 . S
C217 O231 1.248 . S
C218 O232 1.267 . S
C218 O233 1.278 1_655 S
C219 Pr209 2.880 . S
C219 C220 1.491 . S
C219 O234 1.254 . S
C219 O235 1.225 . S
C220 C219 1.491 . S
C220 C221 1.392 . S
C220 C225 1.356 . S
C221 C220 1.392 . S
C221 C222 1.368 . S
C221 H244 0.929 . S
C222 C221 1.368 . S
C222 C223 1.386 . S
C222 H245 0.929 . S
C223 C222 1.386 . S
C223 C224 1.373 . S
C224 C223 1.373 . S
C224 C225 1.409 . S
C224 H246 0.931 . S
C225 C220 1.356 . S
C225 C224 1.409 . S
C225 H247 0.930 . S
C226 O236 1.270 . S
C226 O237 1.248 . S
C227 O238 1.267 . S
C227 O239 1.278 . S
O228 Pr208 2.562 1_655 S
O228 C210 1.254 . S
O229 Pr208 2.490 . S
O229 C210 1.225 1_455 S
O230 Pr208 2.695 1_554 S
O230 Pr209 2.436 . S
O230 C217 1.270 . S
O231 Pr208 2.512 1_554 S
O231 C217 1.248 . S
O232 Pr209 2.438 1_655 S
O232 C218 1.267 . S
O233 Pr208 2.437 1_554 S
O233 C218 1.278 1_455 S
O234 Pr209 2.562 . S
O234 C219 1.254 . S
O235 Pr209 2.490 . S
O235 C219 1.225 . S
O236 Pr208 2.436 1_655 S
O236 Pr209 2.695 1_656 S
O236 C226 1.270 . S
O237 Pr209 2.513 1_656 S
O237 C226 1.248 . S
O238 Pr208 2.438 . S
O238 C227 1.267 . S
O239 Pr209 2.437 1_556 S
O239 C227 1.278 . S
H240 C212 0.929 1_455 S
H241 C213 0.929 . S
H242 C215 0.931 . S
H243 C216 0.930 . S
H244 C221 0.929 . S
H245 C222 0.929 . S
H246 C224 0.931 . S
H247 C225 0.930 . S
H248 C256 0.929 . S
H249 C258 0.930 . S
H250 C260 0.930 . S
H251 C263 0.929 . S
H252 C266 0.930 . S
H253 C268 0.960 . S
H254 C268 0.960 . S
H255 C268 0.960 . S
C256 H248 0.929 . S
C256 C257 1.377 . S
C256 C258 1.384 . S
C257 C256 1.377 . S
C257 C263 1.390 . S
C258 H249 0.930 . S
C258 C256 1.384 . S
C258 C259 1.372 . S
C259 C258 1.372 . S
C259 C260 1.400 . S
C259 C264 1.490 . S
C260 H250 0.930 . S
C260 C259 1.400 . S
C260 C263 1.386 . S
H261 C277 0.930 . S
H262 C278 0.931 . S
C263 H251 0.929 . S
C263 C257 1.390 . S
C263 C260 1.386 . S
C264 C259 1.490 . S
C264 C266 1.395 . S
C264 C267 1.403 . S
H265 C271 0.930 . S
C266 H252 0.930 . S
C266 C264 1.395 . S
C266 C269 1.403 . S
C267 C264 1.403 . S
C267 C268 1.524 . S
C267 C271 1.400 . S
C268 H253 0.960 . S
C268 H254 0.960 . S
C268 H255 0.960 . S
C268 C267 1.524 . S
C269 C266 1.403 . S
C269 C270 1.392 . S
C269 C273 1.495 . S
C270 C269 1.392 . S
C270 C271 1.385 . S
C270 C272 1.478 . S
C271 H265 0.930 . S
C271 C267 1.400 . S
C271 C270 1.385 . S
C272 C270 1.478 . S
C272 C274 1.381 . S
C272 C278 1.383 . S
C273 C269 1.495 . S
C273 H279 0.959 . S
C273 H280 0.961 . S
C273 H281 0.960 . S
C274 C272 1.381 . S
C274 C275 1.394 . S
C274 H282 0.930 . S
C275 C274 1.394 . S
C275 C276 1.383 . S
C275 H283 0.929 . S
C276 C275 1.383 . S
C276 C277 1.377 . S
C277 H261 0.930 . S
C277 C276 1.377 . S
C277 C278 1.379 . S
C278 H262 0.931 . S
C278 C272 1.383 . S
C278 C277 1.379 . S
H279 C273 0.959 . S
H280 C273 0.961 . S
H281 C273 0.960 . S
H282 C274 0.930 . S
H283 C275 0.929 . S
H284 C292 0.929 . S
H285 C294 0.930 . S
H286 C296 0.930 . S
H287 C299 0.929 . S
H288 C302 0.930 . S
H289 C304 0.960 . S
H290 C304 0.960 . S
H291 C304 0.960 . S
C292 H284 0.929 . S
C292 C293 1.377 . S
C292 C294 1.384 . S
C293 C292 1.377 . S
C293 C299 1.390 . S
C294 H285 0.930 . S
C294 C292 1.384 . S
C294 C295 1.372 . S
C295 C294 1.372 . S
C295 C296 1.400 . S
C295 C300 1.490 . S
C296 H286 0.930 . S
C296 C295 1.400 . S
C296 C299 1.386 . S
H297 C313 0.930 . S
H298 C314 0.931 . S
C299 H287 0.929 . S
C299 C293 1.390 . S
C299 C296 1.386 . S
C300 C295 1.490 . S
C300 C302 1.395 . S
C300 C303 1.403 . S
H301 C307 0.930 . S
C302 H288 0.930 . S
C302 C300 1.395 . S
C302 C305 1.403 . S
C303 C300 1.403 . S
C303 C304 1.524 . S
C303 C307 1.400 . S
C304 H289 0.960 . S
C304 H290 0.960 . S
C304 H291 0.960 . S
C304 C303 1.524 . S
C305 C302 1.403 . S
C305 C306 1.392 . S
C305 C309 1.495 . S
C306 C305 1.392 . S
C306 C307 1.385 . S
C306 C308 1.478 . S
C307 H301 0.930 . S
C307 C303 1.400 . S
C307 C306 1.385 . S
C308 C306 1.478 . S
C308 C310 1.381 . S
C308 C314 1.383 . S
C309 C305 1.495 . S
C309 H315 0.959 . S
C309 H316 0.961 . S
C309 H317 0.960 . S
C310 C308 1.381 . S
C310 C311 1.394 . S
C310 H318 0.930 . S
C311 C310 1.394 . S
C311 C312 1.383 . S
C311 H319 0.929 . S
C312 C311 1.383 . S
C312 C313 1.377 . S
C313 H297 0.930 . S
C313 C312 1.377 . S
C313 C314 1.379 . S
C314 H298 0.931 . S
C314 C308 1.383 . S
C314 C313 1.379 . S
H315 C309 0.959 . S
H316 C309 0.961 . S
H317 C309 0.960 . S
H318 C310 0.930 . S
H319 C311 0.929 . S
H320 C328 0.929 . S
H321 C330 0.930 . S
H322 C332 0.930 . S
H323 C335 0.929 . S
H324 C338 0.930 . S
H325 C340 0.960 . S
H326 C340 0.960 . S
H327 C340 0.960 . S
C328 H320 0.929 . S
C328 C329 1.377 . S
C328 C330 1.384 . S
C329 C328 1.377 . S
C329 C335 1.390 . S
C330 H321 0.930 . S
C330 C328 1.384 . S
C330 C331 1.372 . S
C331 C330 1.372 . S
C331 C332 1.400 . S
C331 C336 1.490 . S
C332 H322 0.930 . S
C332 C331 1.400 . S
C332 C335 1.386 . S
H333 C349 0.930 . S
H334 C350 0.931 . S
C335 H323 0.929 . S
C335 C329 1.390 . S
C335 C332 1.386 . S
C336 C331 1.490 . S
C336 C338 1.395 . S
C336 C339 1.403 . S
H337 C343 0.930 . S
C338 H324 0.930 . S
C338 C336 1.395 . S
C338 C341 1.403 . S
C339 C336 1.403 . S
C339 C340 1.524 . S
C339 C343 1.400 . S
C340 H325 0.960 . S
C340 H326 0.960 . S
C340 H327 0.960 . S
C340 C339 1.524 . S
C341 C338 1.403 . S
C341 C342 1.392 . S
C341 C345 1.495 . S
C342 C341 1.392 . S
C342 C343 1.385 . S
C342 C344 1.478 . S
C343 H337 0.930 . S
C343 C339 1.400 . S
C343 C342 1.385 . S
C344 C342 1.478 . S
C344 C346 1.381 . S
C344 C350 1.383 . S
C345 C341 1.495 . S
C345 H351 0.959 . S
C345 H352 0.961 . S
C345 H353 0.960 . S
C346 C344 1.381 . S
C346 C347 1.394 . S
C346 H354 0.930 . S
C347 C346 1.394 . S
C347 C348 1.383 . S
C347 H355 0.929 . S
C348 C347 1.383 . S
C348 C349 1.377 . S
C349 H333 0.930 . S
C349 C348 1.377 . S
C349 C350 1.379 . S
C350 H334 0.931 . S
C350 C344 1.383 . S
C350 C349 1.379 . S
H351 C345 0.959 . S
H352 C345 0.961 . S
H353 C345 0.960 . S
H354 C346 0.930 . S
H355 C347 0.929 . S
H356 C364 0.929 . S
H357 C366 0.930 . S
H358 C368 0.930 . S
H359 C371 0.929 . S
H360 C374 0.930 . S
H361 C376 0.960 . S
H362 C376 0.960 . S
H363 C376 0.960 . S
C364 H356 0.929 . S
C364 C365 1.377 . S
C364 C366 1.384 . S
C365 C364 1.377 . S
C365 C371 1.390 . S
C366 H357 0.930 . S
C366 C364 1.384 . S
C366 C367 1.372 . S
C367 C366 1.372 . S
C367 C368 1.400 . S
C367 C372 1.490 . S
C368 H358 0.930 . S
C368 C367 1.400 . S
C368 C371 1.386 . S
H369 C385 0.930 . S
H370 C386 0.931 . S
C371 H359 0.929 . S
C371 C365 1.390 . S
C371 C368 1.386 . S
C372 C367 1.490 . S
C372 C374 1.395 . S
C372 C375 1.403 . S
H373 C379 0.930 . S
C374 H360 0.930 . S
C374 C372 1.395 . S
C374 C377 1.403 . S
C375 C372 1.403 . S
C375 C376 1.524 . S
C375 C379 1.400 . S
C376 H361 0.960 . S
C376 H362 0.960 . S
C376 H363 0.960 . S
C376 C375 1.524 . S
C377 C374 1.403 . S
C377 C378 1.392 . S
C377 C381 1.495 . S
C378 C377 1.392 . S
C378 C379 1.385 . S
C378 C380 1.478 . S
C379 H373 0.930 . S
C379 C375 1.400 . S
C379 C378 1.385 . S
C380 C378 1.478 . S
C380 C382 1.381 . S
C380 C386 1.383 . S
C381 C377 1.495 . S
C381 H387 0.959 . S
C381 H388 0.961 . S
C381 H389 0.960 . S
C382 C380 1.381 . S
C382 C383 1.394 . S
C382 H390 0.930 . S
C383 C382 1.394 . S
C383 C384 1.383 . S
C383 H391 0.929 . S
C384 C383 1.383 . S
C384 C385 1.377 . S
C385 H369 0.930 . S
C385 C384 1.377 . S
C385 C386 1.379 . S
C386 H370 0.931 . S
C386 C380 1.383 . S
C386 C385 1.379 . S
H387 C381 0.959 . S
H388 C381 0.961 . S
H389 C381 0.960 . S
H390 C382 0.930 . S
H391 C383 0.929 . S
H392 C400 0.929 . S
H393 C402 0.930 . S
H394 C404 0.930 . S
H395 C407 0.929 . S
H396 C410 0.930 . S
H397 C412 0.960 . S
H398 C412 0.960 . S
H399 C412 0.960 . S
C400 H392 0.929 . S
C400 C401 1.377 . S
C400 C402 1.384 . S
C401 C400 1.377 . S
C401 C407 1.390 . S
C402 H393 0.930 . S
C402 C400 1.384 . S
C402 C403 1.372 . S
C403 C402 1.372 . S
C403 C404 1.400 . S
C403 C408 1.490 . S
C404 H394 0.930 . S
C404 C403 1.400 . S
C404 C407 1.386 . S
H405 C421 0.930 . S
H406 C422 0.931 . S
C407 H395 0.929 . S
C407 C401 1.390 . S
C407 C404 1.386 . S
C408 C403 1.490 . S
C408 C410 1.395 . S
C408 C411 1.403 . S
H409 C415 0.930 . S
C410 H396 0.930 . S
C410 C408 1.395 . S
C410 C413 1.403 . S
C411 C408 1.403 . S
C411 C412 1.524 . S
C411 C415 1.400 . S
C412 H397 0.960 . S
C412 H398 0.960 . S
C412 H399 0.960 . S
C412 C411 1.524 . S
C413 C410 1.403 . S
C413 C414 1.392 . S
C413 C417 1.495 . S
C414 C413 1.392 . S
C414 C415 1.385 . S
C414 C416 1.478 . S
C415 H409 0.930 . S
C415 C411 1.400 . S
C415 C414 1.385 . S
C416 C414 1.478 . S
C416 C418 1.381 . S
C416 C422 1.383 . S
C417 C413 1.495 . S
C417 H423 0.959 . S
C417 H424 0.961 . S
C417 H425 0.960 . S
C418 C416 1.381 . S
C418 C419 1.394 . S
C418 H426 0.930 . S
C419 C418 1.394 . S
C419 C420 1.383 . S
C419 H427 0.929 . S
C420 C419 1.383 . S
C420 C421 1.377 . S
C421 H405 0.930 . S
C421 C420 1.377 . S
C421 C422 1.379 . S
C422 H406 0.931 . S
C422 C416 1.383 . S
C422 C421 1.379 . S
H423 C417 0.959 . S
H424 C417 0.961 . S
H425 C417 0.960 . S
H426 C418 0.930 . S
H427 C419 0.929 . S
H428 C436 0.929 . S
H429 C438 0.930 . S
H430 C440 0.930 . S
H431 C443 0.929 . S
H432 C446 0.930 . S
H433 C448 0.960 . S
H434 C448 0.960 . S
H435 C448 0.960 . S
C436 H428 0.929 . S
C436 C437 1.377 . S
C436 C438 1.384 . S
C437 C436 1.377 . S
C437 C443 1.390 . S
C438 H429 0.930 . S
C438 C436 1.384 . S
C438 C439 1.372 . S
C439 C438 1.372 . S
C439 C440 1.400 . S
C439 C444 1.490 . S
C440 H430 0.930 . S
C440 C439 1.400 . S
C440 C443 1.386 . S
H441 C457 0.930 . S
H442 C458 0.931 . S
C443 H431 0.929 . S
C443 C437 1.390 . S
C443 C440 1.386 . S
C444 C439 1.490 . S
C444 C446 1.395 . S
C444 C447 1.403 . S
H445 C451 0.930 . S
C446 H432 0.930 . S
C446 C444 1.395 . S
C446 C449 1.403 . S
C447 C444 1.403 . S
C447 C448 1.524 . S
C447 C451 1.400 . S
C448 H433 0.960 . S
C448 H434 0.960 . S
C448 H435 0.960 . S
C448 C447 1.524 . S
C449 C446 1.403 . S
C449 C450 1.392 . S
C449 C453 1.495 . S
C450 C449 1.392 . S
C450 C451 1.385 . S
C450 C452 1.478 . S
C451 H445 0.930 . S
C451 C447 1.400 . S
C451 C450 1.385 . S
C452 C450 1.478 . S
C452 C454 1.381 . S
C452 C458 1.383 . S
C453 C449 1.495 . S
C453 H459 0.959 . S
C453 H460 0.961 . S
C453 H461 0.960 . S
C454 C452 1.381 . S
C454 C455 1.394 . S
C454 H462 0.930 . S
C455 C454 1.394 . S
C455 C456 1.383 . S
C455 H463 0.929 . S
C456 C455 1.383 . S
C456 C457 1.377 . S
C457 H441 0.930 . S
C457 C456 1.377 . S
C457 C458 1.379 . S
C458 H442 0.931 . S
C458 C452 1.383 . S
C458 C457 1.379 . S
H459 C453 0.959 . S
H460 C453 0.961 . S
H461 C453 0.960 . S
H462 C454 0.930 . S
H463 C455 0.929 . S
H464 C472 0.929 . S
H465 C474 0.930 . S
H466 C476 0.930 . S
H467 C479 0.929 . S
H468 C482 0.930 . S
H469 C484 0.960 . S
H470 C484 0.960 . S
H471 C484 0.960 . S
C472 H464 0.929 . S
C472 C473 1.377 . S
C472 C474 1.384 . S
C473 C472 1.377 . S
C473 C479 1.390 . S
C474 H465 0.930 . S
C474 C472 1.384 . S
C474 C475 1.372 . S
C475 C474 1.372 . S
C475 C476 1.400 . S
C475 C480 1.490 . S
C476 H466 0.930 . S
C476 C475 1.400 . S
C476 C479 1.386 . S
H477 C493 0.930 . S
H478 C494 0.931 . S
C479 H467 0.929 . S
C479 C473 1.390 . S
C479 C476 1.386 . S
C480 C475 1.490 . S
C480 C482 1.395 . S
C480 C483 1.403 . S
H481 C487 0.930 . S
C482 H468 0.930 . S
C482 C480 1.395 . S
C482 C485 1.403 . S
C483 C480 1.403 . S
C483 C484 1.524 . S
C483 C487 1.400 . S
C484 H469 0.960 . S
C484 H470 0.960 . S
C484 H471 0.960 . S
C484 C483 1.524 . S
C485 C482 1.403 . S
C485 C486 1.392 . S
C485 C489 1.495 . S
C486 C485 1.392 . S
C486 C487 1.385 . S
C486 C488 1.478 . S
C487 H481 0.930 . S
C487 C483 1.400 . S
C487 C486 1.385 . S
C488 C486 1.478 . S
C488 C490 1.381 . S
C488 C494 1.383 . S
C489 C485 1.495 . S
C489 H495 0.959 . S
C489 H496 0.961 . S
C489 H497 0.960 . S
C490 C488 1.381 . S
C490 C491 1.394 . S
C490 H498 0.930 . S
C491 C490 1.394 . S
C491 C492 1.383 . S
C491 H499 0.929 . S
C492 C491 1.383 . S
C492 C493 1.377 . S
C493 H477 0.930 . S
C493 C492 1.377 . S
C493 C494 1.379 . S
C494 H478 0.931 . S
C494 C488 1.383 . S
C494 C493 1.379 . S
H495 C489 0.959 . S
H496 C489 0.961 . S
H497 C489 0.960 . S
H498 C490 0.930 . S
H499 C491 0.929 . S
H500 C508 0.929 . S
H501 C510 0.930 . S
H502 C512 0.930 . S
H503 C515 0.929 . S
H504 C518 0.930 . S
H505 C520 0.960 . S
H506 C520 0.960 . S
H507 C520 0.960 . S
C508 H500 0.929 . S
C508 C509 1.377 . S
C508 C510 1.384 . S
C509 C508 1.377 . S
C509 C515 1.390 . S
C510 H501 0.930 . S
C510 C508 1.384 . S
C510 C511 1.372 . S
C511 C510 1.372 . S
C511 C512 1.400 . S
C511 C516 1.490 . S
C512 H502 0.930 . S
C512 C511 1.400 . S
C512 C515 1.386 . S
H513 C529 0.930 . S
H514 C530 0.931 . S
C515 H503 0.929 . S
C515 C509 1.390 . S
C515 C512 1.386 . S
C516 C511 1.490 . S
C516 C518 1.395 . S
C516 C519 1.403 . S
H517 C523 0.930 . S
C518 H504 0.930 . S
C518 C516 1.395 . S
C518 C521 1.403 . S
C519 C516 1.403 . S
C519 C520 1.524 . S
C519 C523 1.400 . S
C520 H505 0.960 . S
C520 H506 0.960 . S
C520 H507 0.960 . S
C520 C519 1.524 . S
C521 C518 1.403 . S
C521 C522 1.392 . S
C521 C525 1.495 . S
C522 C521 1.392 . S
C522 C523 1.385 . S
C522 C524 1.478 . S
C523 H517 0.930 . S
C523 C519 1.400 . S
C523 C522 1.385 . S
C524 C522 1.478 . S
C524 C526 1.381 . S
C524 C530 1.383 . S
C525 C521 1.495 . S
C525 H531 0.959 . S
C525 H532 0.961 . S
C525 H533 0.960 . S
C526 C524 1.381 . S
C526 C527 1.394 . S
C526 H534 0.930 . S
C527 C526 1.394 . S
C527 C528 1.383 . S
C527 H535 0.929 . S
C528 C527 1.383 . S
C528 C529 1.377 . S
C529 H513 0.930 . S
C529 C528 1.377 . S
C529 C530 1.379 . S
C530 H514 0.931 . S
C530 C524 1.383 . S
C530 C529 1.379 . S
H531 C525 0.959 . S
H532 C525 0.961 . S
H533 C525 0.960 . S
H534 C526 0.930 . S
H535 C527 0.929 . S
H536 C544 0.929 . S
H537 C546 0.930 . S
H538 C548 0.930 . S
H539 C551 0.929 . S
H540 C554 0.930 . S
H541 C556 0.960 . S
H542 C556 0.960 . S
H543 C556 0.960 . S
C544 H536 0.929 . S
C544 C545 1.377 . S
C544 C546 1.384 . S
C545 C544 1.377 . S
C545 C551 1.390 . S
C546 H537 0.930 . S
C546 C544 1.384 . S
C546 C547 1.372 . S
C547 C546 1.372 . S
C547 C548 1.400 . S
C547 C552 1.490 . S
C548 H538 0.930 . S
C548 C547 1.400 . S
C548 C551 1.386 . S
H549 C565 0.930 . S
H550 C566 0.931 . S
C551 H539 0.929 . S
C551 C545 1.390 . S
C551 C548 1.386 . S
C552 C547 1.490 . S
C552 C554 1.395 . S
C552 C555 1.403 . S
H553 C559 0.930 . S
C554 H540 0.930 . S
C554 C552 1.395 . S
C554 C557 1.403 . S
C555 C552 1.403 . S
C555 C556 1.524 . S
C555 C559 1.400 . S
C556 H541 0.960 . S
C556 H542 0.960 . S
C556 H543 0.960 . S
C556 C555 1.524 . S
C557 C554 1.403 . S
C557 C558 1.392 . S
C557 C561 1.495 . S
C558 C557 1.392 . S
C558 C559 1.385 . S
C558 C560 1.478 . S
C559 H553 0.930 . S
C559 C555 1.400 . S
C559 C558 1.385 . S
C560 C558 1.478 . S
C560 C562 1.381 . S
C560 C566 1.383 . S
C561 C557 1.495 . S
C561 H567 0.959 . S
C561 H568 0.961 . S
C561 H569 0.960 . S
C562 C560 1.381 . S
C562 C563 1.394 . S
C562 H570 0.930 . S
C563 C562 1.394 . S
C563 C564 1.383 . S
C563 H571 0.929 . S
C564 C563 1.383 . S
C564 C565 1.377 . S
C565 H549 0.930 . S
C565 C564 1.377 . S
C565 C566 1.379 . S
C566 H550 0.931 . S
C566 C560 1.383 . S
C566 C565 1.379 . S
H567 C561 0.959 . S
H568 C561 0.961 . S
H569 C561 0.960 . S
H570 C562 0.930 . S
H571 C563 0.929 . S
H572 C580 0.929 . S
H573 C582 0.930 . S
H574 C584 0.930 . S
H575 C587 0.929 . S
H576 C590 0.930 . S
H577 C592 0.960 . S
H578 C592 0.960 . S
H579 C592 0.960 . S
C580 H572 0.929 . S
C580 C581 1.377 . S
C580 C582 1.384 . S
C581 C580 1.377 . S
C581 C587 1.390 . S
C582 H573 0.930 . S
C582 C580 1.384 . S
C582 C583 1.372 . S
C583 C582 1.372 . S
C583 C584 1.400 . S
C583 C588 1.490 . S
C584 H574 0.930 . S
C584 C583 1.400 . S
C584 C587 1.386 . S
H585 C601 0.930 . S
H586 C602 0.931 . S
C587 H575 0.929 . S
C587 C581 1.390 . S
C587 C584 1.386 . S
C588 C583 1.490 . S
C588 C590 1.395 . S
C588 C591 1.403 . S
H589 C595 0.930 . S
C590 H576 0.930 . S
C590 C588 1.395 . S
C590 C593 1.403 . S
C591 C588 1.403 . S
C591 C592 1.524 . S
C591 C595 1.400 . S
C592 H577 0.960 . S
C592 H578 0.960 . S
C592 H579 0.960 . S
C592 C591 1.524 . S
C593 C590 1.403 . S
C593 C594 1.392 . S
C593 C597 1.495 . S
C594 C593 1.392 . S
C594 C595 1.385 . S
C594 C596 1.478 . S
C595 H589 0.930 . S
C595 C591 1.400 . S
C595 C594 1.385 . S
C596 C594 1.478 . S
C596 C598 1.381 . S
C596 C602 1.383 . S
C597 C593 1.495 . S
C597 H603 0.959 . S
C597 H604 0.961 . S
C597 H605 0.960 . S
C598 C596 1.381 . S
C598 C599 1.394 . S
C598 H606 0.930 . S
C599 C598 1.394 . S
C599 C600 1.383 . S
C599 H607 0.929 . S
C600 C599 1.383 . S
C600 C601 1.377 . S
C601 H585 0.930 . S
C601 C600 1.377 . S
C601 C602 1.379 . S
C602 H586 0.931 . S
C602 C596 1.383 . S
C602 C601 1.379 . S
H603 C597 0.959 . S
H604 C597 0.961 . S
H605 C597 0.960 . S
H606 C598 0.930 . S
H607 C599 0.929 . S
H608 C616 0.929 . S
H609 C618 0.930 . S
H610 C620 0.930 . S
H611 C623 0.929 . S
H612 C626 0.930 . S
H613 C628 0.960 . S
H614 C628 0.960 . S
H615 C628 0.960 . S
C616 H608 0.929 . S
C616 C617 1.377 . S
C616 C618 1.384 . S
C617 C616 1.377 . S
C617 C623 1.390 . S
C618 H609 0.930 . S
C618 C616 1.384 . S
C618 C619 1.372 . S
C619 C618 1.372 . S
C619 C620 1.400 . S
C619 C624 1.490 . S
C620 H610 0.930 . S
C620 C619 1.400 . S
C620 C623 1.386 . S
H621 C637 0.930 . S
H622 C638 0.931 . S
C623 H611 0.929 . S
C623 C617 1.390 . S
C623 C620 1.386 . S
C624 C619 1.490 . S
C624 C626 1.395 . S
C624 C627 1.403 . S
H625 C631 0.930 . S
C626 H612 0.930 . S
C626 C624 1.395 . S
C626 C629 1.403 . S
C627 C624 1.403 . S
C627 C628 1.524 . S
C627 C631 1.400 . S
C628 H613 0.960 . S
C628 H614 0.960 . S
C628 H615 0.960 . S
C628 C627 1.524 . S
C629 C626 1.403 . S
C629 C630 1.392 . S
C629 C633 1.495 . S
C630 C629 1.392 . S
C630 C631 1.385 . S
C630 C632 1.478 . S
C631 H625 0.930 . S
C631 C627 1.400 . S
C631 C630 1.385 . S
C632 C630 1.478 . S
C632 C634 1.381 . S
C632 C638 1.383 . S
C633 C629 1.495 . S
C633 H639 0.959 . S
C633 H640 0.961 . S
C633 H641 0.960 . S
C634 C632 1.381 . S
C634 C635 1.394 . S
C634 H642 0.930 . S
C635 C634 1.394 . S
C635 C636 1.383 . S
C635 H643 0.929 . S
C636 C635 1.383 . S
C636 C637 1.377 . S
C637 H621 0.930 . S
C637 C636 1.377 . S
C637 C638 1.379 . S
C638 H622 0.931 . S
C638 C632 1.383 . S
C638 C637 1.379 . S
H639 C633 0.959 . S
H640 C633 0.961 . S
H641 C633 0.960 . S
H642 C634 0.930 . S
H643 C635 0.929 . S
H644 C652 0.929 . S
H645 C654 0.930 . S
H646 C656 0.930 . S
H647 C659 0.929 . S
H648 C662 0.930 . S
H649 C664 0.960 . S
H650 C664 0.960 . S
H651 C664 0.960 . S
C652 H644 0.929 . S
C652 C653 1.377 . S
C652 C654 1.384 . S
C653 C652 1.377 . S
C653 C659 1.390 . S
C654 H645 0.930 . S
C654 C652 1.384 . S
C654 C655 1.372 . S
C655 C654 1.372 . S
C655 C656 1.400 . S
C655 C660 1.490 . S
C656 H646 0.930 . S
C656 C655 1.400 . S
C656 C659 1.386 . S
H657 C673 0.930 . S
H658 C674 0.931 . S
C659 H647 0.929 . S
C659 C653 1.390 . S
C659 C656 1.386 . S
C660 C655 1.490 . S
C660 C662 1.395 . S
C660 C663 1.403 . S
H661 C667 0.930 . S
C662 H648 0.930 . S
C662 C660 1.395 . S
C662 C665 1.403 . S
C663 C660 1.403 . S
C663 C664 1.524 . S
C663 C667 1.400 . S
C664 H649 0.960 . S
C664 H650 0.960 . S
C664 H651 0.960 . S
C664 C663 1.524 . S
C665 C662 1.403 . S
C665 C666 1.392 . S
C665 C669 1.495 . S
C666 C665 1.392 . S
C666 C667 1.385 . S
C666 C668 1.478 . S
C667 H661 0.930 . S
C667 C663 1.400 . S
C667 C666 1.385 . S
C668 C666 1.478 . S
C668 C670 1.381 . S
C668 C674 1.383 . S
C669 C665 1.495 . S
C669 H675 0.959 . S
C669 H676 0.961 . S
C669 H677 0.960 . S
C670 C668 1.381 . S
C670 C671 1.394 . S
C670 H678 0.930 . S
C671 C670 1.394 . S
C671 C672 1.383 . S
C671 H679 0.929 . S
C672 C671 1.383 . S
C672 C673 1.377 . S
C673 H657 0.930 . S
C673 C672 1.377 . S
C673 C674 1.379 . S
C674 H658 0.931 . S
C674 C668 1.383 . S
C674 C673 1.379 . S
H675 C669 0.959 . S
H676 C669 0.961 . S
H677 C669 0.960 . S
H678 C670 0.930 . S
H679 C671 0.929 . S
H680 C688 0.929 . S
H681 C690 0.930 . S
H682 C692 0.930 . S
H683 C695 0.929 . S
H684 C698 0.930 . S
H685 C700 0.960 . S
H686 C700 0.960 . S
H687 C700 0.960 . S
C688 H680 0.929 . S
C688 C689 1.377 . S
C688 C690 1.384 . S
C689 C688 1.377 . S
C689 C695 1.390 . S
C690 H681 0.930 . S
C690 C688 1.384 . S
C690 C691 1.372 . S
C691 C690 1.372 . S
C691 C692 1.400 . S
C691 C696 1.490 . S
C692 H682 0.930 . S
C692 C691 1.400 . S
C692 C695 1.386 . S
H693 C709 0.930 . S
H694 C710 0.931 . S
C695 H683 0.929 . S
C695 C689 1.390 . S
C695 C692 1.386 . S
C696 C691 1.490 . S
C696 C698 1.395 . S
C696 C699 1.403 . S
H697 C703 0.930 . S
C698 H684 0.930 . S
C698 C696 1.395 . S
C698 C701 1.403 . S
C699 C696 1.403 . S
C699 C700 1.524 . S
C699 C703 1.400 . S
C700 H685 0.960 . S
C700 H686 0.960 . S
C700 H687 0.960 . S
C700 C699 1.524 . S
C701 C698 1.403 . S
C701 C702 1.392 . S
C701 C705 1.495 . S
C702 C701 1.392 . S
C702 C703 1.385 . S
C702 C704 1.478 . S
C703 H697 0.930 . S
C703 C699 1.400 . S
C703 C702 1.385 . S
C704 C702 1.478 . S
C704 C706 1.381 . S
C704 C710 1.383 . S
C705 C701 1.495 . S
C705 H711 0.959 . S
C705 H712 0.961 . S
C705 H713 0.960 . S
C706 C704 1.381 . S
C706 C707 1.394 . S
C706 H714 0.930 . S
C707 C706 1.394 . S
C707 C708 1.383 . S
C707 H715 0.929 . S
C708 C707 1.383 . S
C708 C709 1.377 . S
C709 H693 0.930 . S
C709 C708 1.377 . S
C709 C710 1.379 . S
C710 H694 0.931 . S
C710 C704 1.383 . S
C710 C709 1.379 . S
H711 C705 0.959 . S
H712 C705 0.961 . S
H713 C705 0.960 . S
H714 C706 0.930 . S
H715 C707 0.929 . S
H716 C724 0.929 . S
H717 C726 0.930 . S
H718 C728 0.930 . S
H719 C731 0.929 . S
H720 C734 0.930 . S
H721 C736 0.960 . S
H722 C736 0.960 . S
H723 C736 0.960 . S
C724 H716 0.929 . S
C724 C725 1.377 . S
C724 C726 1.384 . S
C725 C724 1.377 . S
C725 C731 1.390 . S
C726 H717 0.930 . S
C726 C724 1.384 . S
C726 C727 1.372 . S
C727 C726 1.372 . S
C727 C728 1.400 . S
C727 C732 1.490 . S
C728 H718 0.930 . S
C728 C727 1.400 . S
C728 C731 1.386 . S
H729 C745 0.930 . S
H730 C746 0.931 . S
C731 H719 0.929 . S
C731 C725 1.390 . S
C731 C728 1.386 . S
C732 C727 1.490 . S
C732 C734 1.395 . S
C732 C735 1.403 . S
H733 C739 0.930 . S
C734 H720 0.930 . S
C734 C732 1.395 . S
C734 C737 1.403 . S
C735 C732 1.403 . S
C735 C736 1.524 . S
C735 C739 1.400 . S
C736 H721 0.960 . S
C736 H722 0.960 . S
C736 H723 0.960 . S
C736 C735 1.524 . S
C737 C734 1.403 . S
C737 C738 1.392 . S
C737 C741 1.495 . S
C738 C737 1.392 . S
C738 C739 1.385 . S
C738 C740 1.478 . S
C739 H733 0.930 . S
C739 C735 1.400 . S
C739 C738 1.385 . S
C740 C738 1.478 . S
C740 C742 1.381 . S
C740 C746 1.383 . S
C741 C737 1.495 . S
C741 H747 0.959 . S
C741 H748 0.961 . S
C741 H749 0.960 . S
C742 C740 1.381 . S
C742 C743 1.394 . S
C742 H750 0.930 . S
C743 C742 1.394 . S
C743 C744 1.383 . S
C743 H751 0.929 . S
C744 C743 1.383 . S
C744 C745 1.377 . S
C745 H729 0.930 . S
C745 C744 1.377 . S
C745 C746 1.379 . S
C746 H730 0.931 . S
C746 C740 1.383 . S
C746 C745 1.379 . S
H747 C741 0.959 . S
H748 C741 0.961 . S
H749 C741 0.960 . S
H750 C742 0.930 . S
H751 C743 0.929 . S
H752 C760 0.929 . S
H753 C762 0.930 . S
H754 C764 0.930 . S
H755 C767 0.929 . S
H756 C770 0.930 . S
H757 C772 0.960 . S
H758 C772 0.960 . S
H759 C772 0.960 . S
C760 H752 0.929 . S
C760 C761 1.377 . S
C760 C762 1.384 . S
C761 C760 1.377 . S
C761 C767 1.390 . S
C762 H753 0.930 . S
C762 C760 1.384 . S
C762 C763 1.372 . S
C763 C762 1.372 . S
C763 C764 1.400 . S
C763 C768 1.490 . S
C764 H754 0.930 . S
C764 C763 1.400 . S
C764 C767 1.386 . S
H765 C781 0.930 . S
H766 C782 0.931 . S
C767 H755 0.929 . S
C767 C761 1.390 . S
C767 C764 1.386 . S
C768 C763 1.490 . S
C768 C770 1.395 . S
C768 C771 1.403 . S
H769 C775 0.930 . S
C770 H756 0.930 . S
C770 C768 1.395 . S
C770 C773 1.403 . S
C771 C768 1.403 . S
C771 C772 1.524 . S
C771 C775 1.400 . S
C772 H757 0.960 . S
C772 H758 0.960 . S
C772 H759 0.960 . S
C772 C771 1.524 . S
C773 C770 1.403 . S
C773 C774 1.392 . S
C773 C777 1.495 . S
C774 C773 1.392 . S
C774 C775 1.385 . S
C774 C776 1.478 . S
C775 H769 0.930 . S
C775 C771 1.400 . S
C775 C774 1.385 . S
C776 C774 1.478 . S
C776 C778 1.381 . S
C776 C782 1.383 . S
C777 C773 1.495 . S
C777 H783 0.959 . S
C777 H784 0.961 . S
C777 H785 0.960 . S
C778 C776 1.381 . S
C778 C779 1.394 . S
C778 H786 0.930 . S
C779 C778 1.394 . S
C779 C780 1.383 . S
C779 H787 0.929 . S
C780 C779 1.383 . S
C780 C781 1.377 . S
C781 H765 0.930 . S
C781 C780 1.377 . S
C781 C782 1.379 . S
C782 H766 0.931 . S
C782 C776 1.383 . S
C782 C781 1.379 . S
H783 C777 0.959 . S
H784 C777 0.961 . S
H785 C777 0.960 . S
H786 C778 0.930 . S
H787 C779 0.929 . S
H788 C796 0.929 . S
H789 C798 0.930 . S
H790 C800 0.930 . S
H791 C803 0.929 . S
H792 C806 0.930 . S
H793 C808 0.960 . S
H794 C808 0.960 . S
H795 C808 0.960 . S
C796 H788 0.929 . S
C796 C797 1.377 . S
C796 C798 1.384 . S
C797 C796 1.377 . S
C797 C803 1.390 . S
C798 H789 0.930 . S
C798 C796 1.384 . S
C798 C799 1.372 . S
C799 C798 1.372 . S
C799 C800 1.400 . S
C799 C804 1.490 . S
C800 H790 0.930 . S
C800 C799 1.400 . S
C800 C803 1.386 . S
H801 C817 0.930 . S
H802 C818 0.931 . S
C803 H791 0.929 . S
C803 C797 1.390 . S
C803 C800 1.386 . S
C804 C799 1.490 . S
C804 C806 1.395 . S
C804 C807 1.403 . S
H805 C811 0.930 . S
C806 H792 0.930 . S
C806 C804 1.395 . S
C806 C809 1.403 . S
C807 C804 1.403 . S
C807 C808 1.524 . S
C807 C811 1.400 . S
C808 H793 0.960 . S
C808 H794 0.960 . S
C808 H795 0.960 . S
C808 C807 1.524 . S
C809 C806 1.403 . S
C809 C810 1.392 . S
C809 C813 1.495 . S
C810 C809 1.392 . S
C810 C811 1.385 . S
C810 C812 1.478 . S
C811 H805 0.930 . S
C811 C807 1.400 . S
C811 C810 1.385 . S
C812 C810 1.478 . S
C812 C814 1.381 . S
C812 C818 1.383 . S
C813 C809 1.495 . S
C813 H819 0.959 . S
C813 H820 0.961 . S
C813 H821 0.960 . S
C814 C812 1.381 . S
C814 C815 1.394 . S
C814 H822 0.930 . S
C815 C814 1.394 . S
C815 C816 1.383 . S
C815 H823 0.929 . S
C816 C815 1.383 . S
C816 C817 1.377 . S
C817 H801 0.930 . S
C817 C816 1.377 . S
C817 C818 1.379 . S
C818 H802 0.931 . S
C818 C812 1.383 . S
C818 C817 1.379 . S
H819 C813 0.959 . S
H820 C813 0.961 . S
H821 C813 0.960 . S
H822 C814 0.930 . S
H823 C815 0.929 . S
H824 C832 0.929 . S
H825 C834 0.930 . S
H826 C836 0.930 . S
H827 C839 0.929 . S
H828 C842 0.930 . S
H829 C844 0.960 . S
H830 C844 0.960 . S
H831 C844 0.960 . S
C832 H824 0.929 . S
C832 C833 1.377 . S
C832 C834 1.384 . S
C833 C832 1.377 . S
C833 C839 1.390 . S
C834 H825 0.930 . S
C834 C832 1.384 . S
C834 C835 1.372 . S
C835 C834 1.372 . S
C835 C836 1.400 . S
C835 C840 1.490 . S
C836 H826 0.930 . S
C836 C835 1.400 . S
C836 C839 1.386 . S
H837 C853 0.930 . S
H838 C854 0.931 . S
C839 H827 0.929 . S
C839 C833 1.390 . S
C839 C836 1.386 . S
C840 C835 1.490 . S
C840 C842 1.395 . S
C840 C843 1.403 . S
H841 C847 0.930 . S
C842 H828 0.930 . S
C842 C840 1.395 . S
C842 C845 1.403 . S
C843 C840 1.403 . S
C843 C844 1.524 . S
C843 C847 1.400 . S
C844 H829 0.960 . S
C844 H830 0.960 . S
C844 H831 0.960 . S
C844 C843 1.524 . S
C845 C842 1.403 . S
C845 C846 1.392 . S
C845 C849 1.495 . S
C846 C845 1.392 . S
C846 C847 1.385 . S
C846 C848 1.478 . S
C847 H841 0.930 . S
C847 C843 1.400 . S
C847 C846 1.385 . S
C848 C846 1.478 . S
C848 C850 1.381 . S
C848 C854 1.383 . S
C849 C845 1.495 . S
C849 H855 0.959 . S
C849 H856 0.961 . S
C849 H857 0.960 . S
C850 C848 1.381 . S
C850 C851 1.394 . S
C850 H858 0.930 . S
C851 C850 1.394 . S
C851 C852 1.383 . S
C851 H859 0.929 . S
C852 C851 1.383 . S
C852 C853 1.377 . S
C853 H837 0.930 . S
C853 C852 1.377 . S
C853 C854 1.379 . S
C854 H838 0.931 . S
C854 C848 1.383 . S
C854 C853 1.379 . S
H855 C849 0.959 . S
H856 C849 0.961 . S
H857 C849 0.960 . S
H858 C850 0.930 . S
H859 C851 0.929 . S
H860 C868 0.929 . S
H861 C870 0.930 . S
H862 C872 0.930 . S
H863 C875 0.929 . S
H864 C878 0.930 . S
H865 C880 0.960 . S
H866 C880 0.960 . S
H867 C880 0.960 . S
C868 H860 0.929 . S
C868 C869 1.377 . S
C868 C870 1.384 . S
C869 C868 1.377 . S
C869 C875 1.390 . S
C870 H861 0.930 . S
C870 C868 1.384 . S
C870 C871 1.372 . S
C871 C870 1.372 . S
C871 C872 1.400 . S
C871 C876 1.490 . S
C872 H862 0.930 . S
C872 C871 1.400 . S
C872 C875 1.386 . S
H873 C889 0.930 . S
H874 C890 0.931 . S
C875 H863 0.929 . S
C875 C869 1.390 . S
C875 C872 1.386 . S
C876 C871 1.490 . S
C876 C878 1.395 . S
C876 C879 1.403 . S
H877 C883 0.930 . S
C878 H864 0.930 . S
C878 C876 1.395 . S
C878 C881 1.403 . S
C879 C876 1.403 . S
C879 C880 1.524 . S
C879 C883 1.400 . S
C880 H865 0.960 . S
C880 H866 0.960 . S
C880 H867 0.960 . S
C880 C879 1.524 . S
C881 C878 1.403 . S
C881 C882 1.392 . S
C881 C885 1.495 . S
C882 C881 1.392 . S
C882 C883 1.385 . S
C882 C884 1.478 . S
C883 H877 0.930 . S
C883 C879 1.400 . S
C883 C882 1.385 . S
C884 C882 1.478 . S
C884 C886 1.381 . S
C884 C890 1.383 . S
C885 C881 1.495 . S
C885 H891 0.959 . S
C885 H892 0.961 . S
C885 H893 0.960 . S
C886 C884 1.381 . S
C886 C887 1.394 . S
C886 H894 0.930 . S
C887 C886 1.394 . S
C887 C888 1.383 . S
C887 H895 0.929 . S
C888 C887 1.383 . S
C888 C889 1.377 . S
C889 H873 0.930 . S
C889 C888 1.377 . S
C889 C890 1.379 . S
C890 H874 0.931 . S
C890 C884 1.383 . S
C890 C889 1.379 . S
H891 C885 0.959 . S
H892 C885 0.961 . S
H893 C885 0.960 . S
H894 C886 0.930 . S
H895 C887 0.929 . S
H896 C904 0.929 . S
H897 C906 0.930 . S
H898 C908 0.930 . S
H899 C911 0.929 . S
H900 C914 0.930 . S
H901 C916 0.960 . S
H902 C916 0.960 . S
H903 C916 0.960 . S
C904 H896 0.929 . S
C904 C905 1.377 . S
C904 C906 1.384 . S
C905 C904 1.377 . S
C905 C911 1.390 . S
C906 H897 0.930 . S
C906 C904 1.384 . S
C906 C907 1.372 . S
C907 C906 1.372 . S
C907 C908 1.400 . S
C907 C912 1.490 . S
C908 H898 0.930 . S
C908 C907 1.400 . S
C908 C911 1.386 . S
H909 C925 0.930 . S
H910 C926 0.931 . S
C911 H899 0.929 . S
C911 C905 1.390 . S
C911 C908 1.386 . S
C912 C907 1.490 . S
C912 C914 1.395 . S
C912 C915 1.403 . S
H913 C919 0.930 . S
C914 H900 0.930 . S
C914 C912 1.395 . S
C914 C917 1.403 . S
C915 C912 1.403 . S
C915 C916 1.524 . S
C915 C919 1.400 . S
C916 H901 0.960 . S
C916 H902 0.960 . S
C916 H903 0.960 . S
C916 C915 1.524 . S
C917 C914 1.403 . S
C917 C918 1.392 . S
C917 C921 1.495 . S
C918 C917 1.392 . S
C918 C919 1.385 . S
C918 C920 1.478 . S
C919 H913 0.930 . S
C919 C915 1.400 . S
C919 C918 1.385 . S
C920 C918 1.478 . S
C920 C922 1.381 . S
C920 C926 1.383 . S
C921 C917 1.495 . S
C921 H927 0.959 . S
C921 H928 0.961 . S
C921 H929 0.960 . S
C922 C920 1.381 . S
C922 C923 1.394 . S
C922 H930 0.930 . S
C923 C922 1.394 . S
C923 C924 1.383 . S
C923 H931 0.929 . S
C924 C923 1.383 . S
C924 C925 1.377 . S
C925 H909 0.930 . S
C925 C924 1.377 . S
C925 C926 1.379 . S
C926 H910 0.931 . S
C926 C920 1.383 . S
C926 C925 1.379 . S
H927 C921 0.959 . S
H928 C921 0.961 . S
H929 C921 0.960 . S
H930 C922 0.930 . S
H931 C923 0.929 . S
H932 C940 0.929 . S
H933 C942 0.930 . S
H934 C944 0.930 . S
H935 C947 0.929 . S
H936 C950 0.930 . S
H937 C952 0.960 . S
H938 C952 0.960 . S
H939 C952 0.960 . S
C940 H932 0.929 . S
C940 C941 1.377 . S
C940 C942 1.384 . S
C941 C940 1.377 . S
C941 C947 1.390 . S
C942 H933 0.930 . S
C942 C940 1.384 . S
C942 C943 1.372 . S
C943 C942 1.372 . S
C943 C944 1.400 . S
C943 C948 1.490 . S
C944 H934 0.930 . S
C944 C943 1.400 . S
C944 C947 1.386 . S
H945 C961 0.930 . S
H946 C962 0.931 . S
C947 H935 0.929 . S
C947 C941 1.390 . S
C947 C944 1.386 . S
C948 C943 1.490 . S
C948 C950 1.395 . S
C948 C951 1.403 . S
H949 C955 0.930 . S
C950 H936 0.930 . S
C950 C948 1.395 . S
C950 C953 1.403 . S
C951 C948 1.403 . S
C951 C952 1.524 . S
C951 C955 1.400 . S
C952 H937 0.960 . S
C952 H938 0.960 . S
C952 H939 0.960 . S
C952 C951 1.524 . S
C953 C950 1.403 . S
C953 C954 1.392 . S
C953 C957 1.495 . S
C954 C953 1.392 . S
C954 C955 1.385 . S
C954 C956 1.478 . S
C955 H949 0.930 . S
C955 C951 1.400 . S
C955 C954 1.385 . S
C956 C954 1.478 . S
C956 C958 1.381 . S
C956 C962 1.383 . S
C957 C953 1.495 . S
C957 H963 0.959 . S
C957 H964 0.961 . S
C957 H965 0.960 . S
C958 C956 1.381 . S
C958 C959 1.394 . S
C958 H966 0.930 . S
C959 C958 1.394 . S
C959 C960 1.383 . S
C959 H967 0.929 . S
C960 C959 1.383 . S
C960 C961 1.377 . S
C961 H945 0.930 . S
C961 C960 1.377 . S
C961 C962 1.379 . S
C962 H946 0.931 . S
C962 C956 1.383 . S
C962 C961 1.379 . S
H963 C957 0.959 . S
H964 C957 0.961 . S
H965 C957 0.960 . S
H966 C958 0.930 . S
H967 C959 0.929 . S
H968 C976 0.929 . S
H969 C978 0.930 . S
H970 C980 0.930 . S
H971 C983 0.929 . S
H972 C986 0.930 . S
H973 C988 0.960 . S
H974 C988 0.960 . S
H975 C988 0.960 . S
C976 H968 0.929 . S
C976 C977 1.377 . S
C976 C978 1.384 . S
C977 C976 1.377 . S
C977 C983 1.390 . S
C978 H969 0.930 . S
C978 C976 1.384 . S
C978 C979 1.372 . S
C979 C978 1.372 . S
C979 C980 1.400 . S
C979 C984 1.490 . S
C980 H970 0.930 . S
C980 C979 1.400 . S
C980 C983 1.386 . S
H981 C997 0.930 . S
H982 C998 0.931 . S
C983 H971 0.929 . S
C983 C977 1.390 . S
C983 C980 1.386 . S
C984 C979 1.490 . S
C984 C986 1.395 . S
C984 C987 1.403 . S
H985 C991 0.930 . S
C986 H972 0.930 . S
C986 C984 1.395 . S
C986 C989 1.403 . S
C987 C984 1.403 . S
C987 C988 1.524 . S
C987 C991 1.400 . S
C988 H973 0.960 . S
C988 H974 0.960 . S
C988 H975 0.960 . S
C988 C987 1.524 . S
C989 C986 1.403 . S
C989 C990 1.392 . S
C989 C993 1.495 . S
C990 C989 1.392 . S
C990 C991 1.385 . S
C990 C992 1.478 . S
C991 H985 0.930 . S
C991 C987 1.400 . S
C991 C990 1.385 . S
C992 C990 1.478 . S
C992 C994 1.381 . S
C992 C998 1.383 . S
C993 C989 1.495 . S
C993 H999 0.959 . S
C993 H1000 0.961 . S
C993 H1001 0.960 . S
C994 C992 1.381 . S
C994 C995 1.394 . S
C994 H1002 0.930 . S
C995 C994 1.394 . S
C995 C996 1.383 . S
C995 H1003 0.929 . S
C996 C995 1.383 . S
C996 C997 1.377 . S
C997 H981 0.930 . S
C997 C996 1.377 . S
C997 C998 1.379 . S
C998 H982 0.931 . S
C998 C992 1.383 . S
C998 C997 1.379 . S
H999 C993 0.959 . S
H1000 C993 0.961 . S
H1001 C993 0.960 . S
H1002 C994 0.930 . S
H1003 C995 0.929 . S
H1004 C1012 0.929 . S
H1005 C1014 0.930 . S
H1006 C1016 0.930 . S
H1007 C1019 0.929 . S
H1008 C1022 0.930 . S
H1009 C1024 0.960 . S
H1010 C1024 0.960 . S
H1011 C1024 0.960 . S
C1012 H1004 0.929 . S
C1012 C1013 1.377 . S
C1012 C1014 1.384 . S
C1013 C1012 1.377 . S
C1013 C1019 1.390 . S
C1014 H1005 0.930 . S
C1014 C1012 1.384 . S
C1014 C1015 1.372 . S
C1015 C1014 1.372 . S
C1015 C1016 1.400 . S
C1015 C1020 1.490 . S
C1016 H1006 0.930 . S
C1016 C1015 1.400 . S
C1016 C1019 1.386 . S
H1017 C1033 0.930 . S
H1018 C1034 0.931 . S
C1019 H1007 0.929 . S
C1019 C1013 1.390 . S
C1019 C1016 1.386 . S
C1020 C1015 1.490 . S
C1020 C1022 1.395 . S
C1020 C1023 1.403 . S
H1021 C1027 0.930 . S
C1022 H1008 0.930 . S
C1022 C1020 1.395 . S
C1022 C1025 1.403 . S
C1023 C1020 1.403 . S
C1023 C1024 1.524 . S
C1023 C1027 1.400 . S
C1024 H1009 0.960 . S
C1024 H1010 0.960 . S
C1024 H1011 0.960 . S
C1024 C1023 1.524 . S
C1025 C1022 1.403 . S
C1025 C1026 1.392 . S
C1025 C1029 1.495 . S
C1026 C1025 1.392 . S
C1026 C1027 1.385 . S
C1026 C1028 1.478 . S
C1027 H1021 0.930 . S
C1027 C1023 1.400 . S
C1027 C1026 1.385 . S
C1028 C1026 1.478 . S
C1028 C1030 1.381 . S
C1028 C1034 1.383 . S
C1029 C1025 1.495 . S
C1029 H1035 0.959 . S
C1029 H1036 0.961 . S
C1029 H1037 0.960 . S
C1030 C1028 1.381 . S
C1030 C1031 1.394 . S
C1030 H1038 0.930 . S
C1031 C1030 1.394 . S
C1031 C1032 1.383 . S
C1031 H1039 0.929 . S
C1032 C1031 1.383 . S
C1032 C1033 1.377 . S
C1033 H1017 0.930 . S
C1033 C1032 1.377 . S
C1033 C1034 1.379 . S
C1034 H1018 0.931 . S
C1034 C1028 1.383 . S
C1034 C1033 1.379 . S
H1035 C1029 0.959 . S
H1036 C1029 0.961 . S
H1037 C1029 0.960 . S
H1038 C1030 0.930 . S
H1039 C1031 0.929 . S
H1040 C1048 0.929 . S
H1041 C1050 0.930 . S
H1042 C1052 0.930 . S
H1043 C1055 0.929 . S
H1044 C1058 0.930 . S
H1045 C1060 0.960 . S
H1046 C1060 0.960 . S
H1047 C1060 0.960 . S
C1048 H1040 0.929 . S
C1048 C1049 1.377 . S
C1048 C1050 1.384 . S
C1049 C1048 1.377 . S
C1049 C1055 1.390 . S
C1050 H1041 0.930 . S
C1050 C1048 1.384 . S
C1050 C1051 1.372 . S
C1051 C1050 1.372 . S
C1051 C1052 1.400 . S
C1051 C1056 1.490 . S
C1052 H1042 0.930 . S
C1052 C1051 1.400 . S
C1052 C1055 1.386 . S
H1053 C1069 0.930 . S
H1054 C1070 0.931 . S
C1055 H1043 0.929 . S
C1055 C1049 1.390 . S
C1055 C1052 1.386 . S
C1056 C1051 1.490 . S
C1056 C1058 1.395 . S
C1056 C1059 1.403 . S
H1057 C1063 0.930 . S
C1058 H1044 0.930 . S
C1058 C1056 1.395 . S
C1058 C1061 1.403 . S
C1059 C1056 1.403 . S
C1059 C1060 1.524 . S
C1059 C1063 1.400 . S
C1060 H1045 0.960 . S
C1060 H1046 0.960 . S
C1060 H1047 0.960 . S
C1060 C1059 1.524 . S
C1061 C1058 1.403 . S
C1061 C1062 1.392 . S
C1061 C1065 1.495 . S
C1062 C1061 1.392 . S
C1062 C1063 1.385 . S
C1062 C1064 1.478 . S
C1063 H1057 0.930 . S
C1063 C1059 1.400 . S
C1063 C1062 1.385 . S
C1064 C1062 1.478 . S
C1064 C1066 1.381 . S
C1064 C1070 1.383 . S
C1065 C1061 1.495 . S
C1065 H1071 0.959 . S
C1065 H1072 0.961 . S
C1065 H1073 0.960 . S
C1066 C1064 1.381 . S
C1066 C1067 1.394 . S
C1066 H1074 0.930 . S
C1067 C1066 1.394 . S
C1067 C1068 1.383 . S
C1067 H1075 0.929 . S
C1068 C1067 1.383 . S
C1068 C1069 1.377 . S
C1069 H1053 0.930 . S
C1069 C1068 1.377 . S
C1069 C1070 1.379 . S
C1070 H1054 0.931 . S
C1070 C1064 1.383 . S
C1070 C1069 1.379 . S
H1071 C1065 0.959 . S
H1072 C1065 0.961 . S
H1073 C1065 0.960 . S
H1074 C1066 0.930 . S
H1075 C1067 0.929 . S
H1076 C1084 0.929 . S
H1077 C1086 0.930 . S
H1078 C1088 0.930 . S
H1079 C1091 0.929 . S
H1080 C1094 0.930 . S
H1081 C1096 0.960 . S
H1082 C1096 0.960 . S
H1083 C1096 0.960 . S
C1084 H1076 0.929 . S
C1084 C1085 1.377 . S
C1084 C1086 1.384 . S
C1085 C1084 1.377 . S
C1085 C1091 1.390 . S
C1086 H1077 0.930 . S
C1086 C1084 1.384 . S
C1086 C1087 1.372 . S
C1087 C1086 1.372 . S
C1087 C1088 1.400 . S
C1087 C1092 1.490 . S
C1088 H1078 0.930 . S
C1088 C1087 1.400 . S
C1088 C1091 1.386 . S
H1089 C1105 0.930 . S
H1090 C1106 0.931 . S
C1091 H1079 0.929 . S
C1091 C1085 1.390 . S
C1091 C1088 1.386 . S
C1092 C1087 1.490 . S
C1092 C1094 1.395 . S
C1092 C1095 1.403 . S
H1093 C1099 0.930 . S
C1094 H1080 0.930 . S
C1094 C1092 1.395 . S
C1094 C1097 1.403 . S
C1095 C1092 1.403 . S
C1095 C1096 1.524 . S
C1095 C1099 1.400 . S
C1096 H1081 0.960 . S
C1096 H1082 0.960 . S
C1096 H1083 0.960 . S
C1096 C1095 1.524 . S
C1097 C1094 1.403 . S
C1097 C1098 1.392 . S
C1097 C1101 1.495 . S
C1098 C1097 1.392 . S
C1098 C1099 1.385 . S
C1098 C1100 1.478 . S
C1099 H1093 0.930 . S
C1099 C1095 1.400 . S
C1099 C1098 1.385 . S
C1100 C1098 1.478 . S
C1100 C1102 1.381 . S
C1100 C1106 1.383 . S
C1101 C1097 1.495 . S
C1101 H1107 0.959 . S
C1101 H1108 0.961 . S
C1101 H1109 0.960 . S
C1102 C1100 1.381 . S
C1102 C1103 1.394 . S
C1102 H1110 0.930 . S
C1103 C1102 1.394 . S
C1103 C1104 1.383 . S
C1103 H1111 0.929 . S
C1104 C1103 1.383 . S
C1104 C1105 1.377 . S
C1105 H1089 0.930 . S
C1105 C1104 1.377 . S
C1105 C1106 1.379 . S
C1106 H1090 0.931 . S
C1106 C1100 1.383 . S
C1106 C1105 1.379 . S
H1107 C1101 0.959 . S
H1108 C1101 0.961 . S
H1109 C1101 0.960 . S
H1110 C1102 0.930 . S
H1111 C1103 0.929 . S
C257 C4 0.985 . S
C276 C103 1.001 . S
C293 C16 1.774 . S
C312 C147 1.784 1_556 S
C348 C177 1.643 . S
C329 C32 1.586 . S
C365 C43 2.633 . S
C384 C218 2.619 . S
C420 C134 1.252 . S
C401 C5 1.229 . S
C456 C98 2.202 . S
C437 C21 2.161 . S
C492 C226 1.024 . S
C473 C27 1.050 . S
C528 C187 2.039 . S
C509 C37 2.106 . S
C545 C10 0.704 . S
C564 C223 0.734 . S
C600 C137 2.178 1_556 S
C581 C26 2.248 . S
C617 C38 1.765 . S
C636 C106 1.752 . S
C653 C15 2.184 . S
C672 C174 2.162 . S
C708 C94 1.216 . S
C689 C48 1.234 . S
C725 C59 1.379 . S
C744 C138 1.387 . S
C761 C76 1.818 . S
C780 C186 1.807 . S
C797 C87 2.384 . S
C816 C227 2.350 . S
C833 C54 0.566 . S
C852 C143 0.547 . S
C888 C107 3.030 . S
C869 C60 3.018 . S
C924 C217 0.962 . S
C905 C71 0.955 . S
C960 C178 1.804 . S
C941 C82 1.841 . S
C977 C49 1.121 . S
C996 C214 1.157 . S
C1032 C146 1.412 . S
C1013 C70 1.455 . S
C1068 C97 2.201 . S
C1049 C81 2.246 . S
C1085 C65 1.864 . S
C1104 C183 1.852 . S
