# Generated by pormake.
# Topology anh, (6,3)-cn, num edge types: 1
# Building blocks:
#     Node 0, Type 0, BuildingBlock: BETFEN_clean_sbu_0, # of connection points: 6
#     Node 1, Type 0, BuildingBlock: BETFEN_clean_sbu_0, # of connection points: 6
#     Node 2, Type 0, BuildingBlock: BETFEN_clean_sbu_0, # of connection points: 6
#     Node 3, Type 1, BuildingBlock: KAKCAD_clean_linker_0, # of connection points: 3
#     Node 4, Type 1, BuildingBlock: KAKCAD_clean_linker_0, # of connection points: 3
#     Node 5, Type 1, BuildingBlock: KAKCAD_clean_linker_0, # of connection points: 3
#     Node 6, Type 1, BuildingBlock: KAKCAD_clean_linker_0, # of connection points: 3
#     Node 7, Type 1, BuildingBlock: KAKCAD_clean_linker_0, # of connection points: 3
#     Node 8, Type 1, BuildingBlock: KAKCAD_clean_linker_0, # of connection points: 3
#     Edge 9, Type (0, 1), BuildingBlock: XIVTED_clean_linker_0, # of connection points: 2
#     Edge 10, Type (0, 1), BuildingBlock: XIVTED_clean_linker_0, # of connection points: 2
#     Edge 11, Type (0, 1), BuildingBlock: XIVTED_clean_linker_0, # of connection points: 2
#     Edge 12, Type (0, 1), BuildingBlock: XIVTED_clean_linker_0, # of connection points: 2
#     Edge 13, Type (0, 1), BuildingBlock: XIVTED_clean_linker_0, # of connection points: 2
#     Edge 14, Type (0, 1), BuildingBlock: XIVTED_clean_linker_0, # of connection points: 2
#     Edge 15, Type (0, 1), BuildingBlock: XIVTED_clean_linker_0, # of connection points: 2
#     Edge 16, Type (0, 1), BuildingBlock: XIVTED_clean_linker_0, # of connection points: 2
#     Edge 17, Type (0, 1), BuildingBlock: XIVTED_clean_linker_0, # of connection points: 2
#     Edge 18, Type (0, 1), BuildingBlock: XIVTED_clean_linker_0, # of connection points: 2
#     Edge 19, Type (0, 1), BuildingBlock: XIVTED_clean_linker_0, # of connection points: 2
#     Edge 20, Type (0, 1), BuildingBlock: XIVTED_clean_linker_0, # of connection points: 2
#     Edge 21, Type (0, 1), BuildingBlock: XIVTED_clean_linker_0, # of connection points: 2
#     Edge 22, Type (0, 1), BuildingBlock: XIVTED_clean_linker_0, # of connection points: 2
#     Edge 23, Type (0, 1), BuildingBlock: XIVTED_clean_linker_0, # of connection points: 2
#     Edge 24, Type (0, 1), BuildingBlock: XIVTED_clean_linker_0, # of connection points: 2
#     Edge 25, Type (0, 1), BuildingBlock: XIVTED_clean_linker_0, # of connection points: 2
#     Edge 26, Type (0, 1), BuildingBlock: XIVTED_clean_linker_0, # of connection points: 2
# Relax obj value: 0.182
# Max RMSD: 0.207
# Mean RMSD: 0.155
data_MOF--net-anh--node1-BETFEN_clean_sbu_0--node2-KAKCAD_clean_linker_0--edge1-XIVTED_clean_linker_0
_symmetry_space_group_name_H-M    P1
_symmetry_Int_Tables_number       1
_symmetry_cell_setting            triclinic
loop_
_symmetry_equiv_pos_as_xyz
'x, y, z'
_cell_length_a     36.224624
_cell_length_b     37.607628
_cell_length_c     67.226805
_cell_angle_alpha  90.447127
_cell_angle_beta   92.106178
_cell_angle_gamma 106.8724
loop_
_atom_site_label
_atom_site_type_symbol
_atom_site_fract_x
_atom_site_fract_y
_atom_site_fract_z
_atom_type_partial_charge
Pr0 Pr 0.04554 0.53071 0.14972 0.0
Pr1 Pr 0.06678 0.61265 0.14227 0.0
C2 C 1.01522 0.46081 0.16243 0.0
C3 C 0.97751 0.43493 0.16695 0.0
C4 C 0.96985 0.39717 0.16194 0.0
C5 C 0.93459 0.37185 0.16636 0.0
C6 C 0.90636 0.38383 0.17597 0.0
C7 C 0.91396 0.42183 0.18077 0.0
C8 C 0.94917 0.44722 0.17621 0.0
C9 C 0.05865 0.54821 0.10991 0.0
C10 C 0.97565 0.57097 0.14155 0.0
C11 C 0.09917 0.6835 0.13171 0.0
C12 C 0.13319 0.71343 0.13921 0.0
C13 C 0.1411 0.71977 0.15975 0.0
C14 C 0.17435 0.74683 0.16678 0.0
C15 C 0.20081 0.76789 0.15347 0.0
C16 C 0.19261 0.7617 0.13287 0.0
C17 C 0.15909 0.73473 0.12583 0.0
C18 C 0.05602 0.5946 0.18223 0.0
C19 C 0.13753 0.57156 0.14832 0.0
O20 O 0.02913 0.48946 0.17448 0.0
O21 O 1.02103 0.46876 0.14371 0.0
O22 O 0.03978 0.56317 0.12105 0.0
O23 O 0.07034 0.52292 0.11906 0.0
O24 O 1.00144 0.59805 0.13299 0.0
O25 O 0.9863 0.54497 0.15132 0.0
O26 O 0.10634 0.65524 0.1229 0.0
O27 O 0.07009 0.67356 0.14347 0.0
O28 O 0.07419 0.58024 0.17048 0.0
O29 O 0.04411 0.62027 0.17373 0.0
O30 O 0.11203 0.54157 0.15465 0.0
O31 O 0.12687 0.60019 0.14165 0.0
H32 H 0.99133 0.38718 0.15476 0.0
H33 H 0.92979 0.34273 0.16266 0.0
H34 H 0.8926 0.43194 0.18798 0.0
H35 H 0.95431 0.47635 0.18001 0.0
H36 H 0.12177 0.70357 0.17044 0.0
H37 H 0.17925 0.75122 0.18272 0.0
H38 H 0.21251 0.77703 0.12218 0.0
H39 H 0.1537 0.73006 0.10993 0.0
Pr40 Pr 0.57889 0.06841 0.522 0.0
Pr41 Pr 0.49192 0.04428 0.52333 0.0
C42 C 0.65366 0.09847 0.51343 0.0
C43 C 0.68142 0.13465 0.50952 0.0
C44 C 0.67412 0.16812 0.51469 0.0
C45 C 0.70063 0.20221 0.51032 0.0
C46 C 0.73486 0.20334 0.50071 0.0
C47 C 0.74185 0.16956 0.49561 0.0
C48 C 0.71539 0.1356 0.49999 0.0
C49 C 0.55012 0.05668 0.56003 0.0
C50 C 0.53292 0.13531 0.52405 0.0
C51 C 0.41727 1.01141 0.53081 0.0
C52 C 0.38759 0.97618 0.52497 0.0
C53 C 0.3583 0.97651 0.51075 0.0
C54 C 0.33134 0.94339 0.50421 0.0
C55 C 0.33275 0.90914 0.51191 0.0
C56 C 0.36129 0.90884 0.5266 0.0
C57 C 0.38851 0.942 0.53304 0.0
C58 C 0.518 0.05432 0.48479 0.0
C59 C 0.53876 0.97725 0.523 0.0
O60 O 0.6261 0.0857 0.49985 0.0
O61 O 0.64187 0.09265 0.5316 0.0
O62 O 0.53812 0.07369 0.54637 0.0
O63 O 0.57915 0.04566 0.55458 0.0
O64 O 0.50212 0.10876 0.52942 0.0
O65 O 0.56399 0.1264 0.51843 0.0
O66 O 0.44589 1.00942 0.54281 0.0
O67 O 0.42822 1.03557 0.51673 0.0
O68 O 0.53244 1.03878 0.49837 0.0
O69 O 0.48824 0.0634 0.49072 0.0
O70 O 0.57076 1.00371 0.51914 0.0
O71 O 0.50648 0.98603 0.52634 0.0
H72 H 0.64793 0.16788 0.52203 0.0
H73 H 0.69445 0.22764 0.51462 0.0
H74 H 0.76747 0.16928 0.48788 0.0
H75 H 0.72133 0.11 0.49575 0.0
H76 H 0.35655 1.00242 0.50443 0.0
H77 H 0.30933 0.94459 0.4931 0.0
H78 H 0.36325 0.88287 0.53273 0.0
H79 H 0.41057 0.9407 0.54409 0.0
Pr80 Pr 0.56065 0.53759 0.81969 0.0
Pr81 Pr 0.58962 0.62531 0.83135 0.0
C82 C 0.52697 0.46941 0.80409 0.0
C83 C 0.49159 0.43871 0.80693 0.0
C84 C 0.45461 0.44363 0.80469 0.0
C85 C 0.42163 0.41381 0.80739 0.0
C86 C 0.42513 0.37878 0.8126 0.0
C87 C 0.46217 0.37419 0.81509 0.0
C88 C 0.49501 0.4038 0.81221 0.0
C89 C 0.57198 0.55534 0.86007 0.0
C90 C 0.65403 0.57917 0.8242 0.0
C91 C 0.61024 0.68912 0.85283 0.0
C92 C 0.58918 0.71098 0.86329 0.0
C93 C 0.54881 0.70078 0.86146 0.0
C94 C 0.5289 0.72541 0.86747 0.0
C95 C 0.54904 0.76064 0.87559 0.0
C96 C 0.58931 0.76922 0.87906 0.0
C97 C 0.60926 0.74466 0.87278 0.0
C98 C 0.59288 0.61438 0.79005 0.0
C99 C 0.49485 0.58491 0.82468 0.0
O100 O 0.55309 0.47581 0.8187 0.0
O101 O 0.52309 0.49974 0.79595 0.0
O102 O 0.55712 0.57221 0.8474 0.0
O103 O 0.57947 0.52669 0.85217 0.0
O104 O 0.64569 0.60599 0.83438 0.0
O105 O 0.62707 0.55289 0.81425 0.0
O106 O 0.60998 0.65709 0.86047 0.0
O107 O 0.60459 0.68762 0.83346 0.0
O108 O 0.58247 0.59041 0.80313 0.0
O109 O 0.60316 0.64723 0.79843 0.0
O110 O 0.50191 0.55294 0.82066 0.0
O111 O 0.52271 0.61587 0.82917 0.0
H112 H 0.45111 0.47038 0.80077 0.0
H113 H 0.39344 0.41811 0.80538 0.0
H114 H 0.4658 0.34735 0.8187 0.0
H115 H 0.52318 0.39934 0.81398 0.0
H116 H 0.53287 0.6748 0.85418 0.0
H117 H 0.49805 0.71776 0.86431 0.0
H118 H 0.60569 0.79569 0.88569 0.0
H119 H 0.64048 0.75282 0.87439 0.0
C120 C 0.57177 0.08762 0.32999 0.0
C121 C 0.55933 0.05261 0.33868 0.0
C122 C 0.57259 0.09071 0.30929 0.0
C123 C 0.56172 0.05874 0.29683 0.0
C124 C 0.55059 1.02363 0.30574 0.0
C125 C 0.54895 1.02064 0.32642 0.0
C126 C 0.5609 0.06206 0.2747 0.0
C127 C 0.58775 0.09127 0.26543 0.0
C128 C 0.58628 0.09532 0.24467 0.0
C129 C 0.55798 0.06927 0.23296 0.0
C130 C 0.53119 1.03961 0.24192 0.0
C131 C 0.53267 1.03643 0.26272 0.0
C132 C 0.50102 1.01193 0.22983 0.0
C133 C 0.47697 1.02324 0.21595 0.0
C134 C 0.4947 0.97382 0.23301 0.0
C135 C 0.46426 0.94755 0.22299 0.0
C136 C 0.43896 0.95873 0.20973 0.0
C137 C 0.6147 0.12688 0.23546 0.0
C138 C 0.62219 0.16296 0.24352 0.0
C139 C 0.6358 0.12103 0.21928 0.0
C140 C 0.66491 0.15048 0.21181 0.0
C141 C 0.67325 0.18648 0.22026 0.0
C142 C 0.65094 0.19242 0.23595 0.0
C143 C 0.44612 0.99692 0.20607 0.0
H144 H 0.57945 0.11267 0.3392 0.0
H145 H 0.58064 0.11826 0.30311 0.0
H146 H 0.54293 0.99832 0.29677 0.0
H147 H 0.53943 0.99332 0.33286 0.0
H148 H 0.61043 0.1107 0.2743 0.0
H149 H 0.51091 1.0144 0.26957 0.0
H150 H 0.55676 0.0721 0.21693 0.0
H151 H 0.48109 0.0525 0.21333 0.0
H152 H 0.51319 0.96435 0.24343 0.0
H153 H 0.4604 0.91841 0.22581 0.0
H154 H 0.60591 0.16834 0.25581 0.0
H155 H 0.63076 0.09342 0.21288 0.0
H156 H 0.42711 1.00666 0.19611 0.0
H157 H 0.65581 0.21986 0.24251 0.0
H158 H 0.68172 0.1447 0.19987 0.0
C159 C 0.53238 0.57937 0.63249 0.0
C160 C 0.56435 0.57219 0.64225 0.0
C161 C 0.52783 0.57656 0.61173 0.0
C162 C 0.5547 0.56571 0.60043 0.0
C163 C 0.58636 0.55796 0.61019 0.0
C164 C 0.59139 0.5616 0.63093 0.0
C165 C 0.54981 0.56285 0.57846 0.0
C166 C 0.54807 0.59386 0.56755 0.0
C167 C 0.54333 0.59225 0.54671 0.0
C168 C 0.53937 0.55733 0.53668 0.0
C169 C 0.5406 0.52512 0.54779 0.0
C170 C 0.54643 0.5291 0.5686 0.0
C171 C 0.53501 0.48625 0.53919 0.0
C172 C 0.50633 0.45606 0.54681 0.0
C173 C 0.5624 0.4775 0.52718 0.0
C174 C 0.56179 0.44 0.52355 0.0
C175 C 0.53382 0.40971 0.53185 0.0
C176 C 0.54324 0.62846 0.53688 0.0
C177 C 0.50844 0.63594 0.53115 0.0
C178 C 0.57677 0.65912 0.53845 0.0
C179 C 0.57554 0.69581 0.535 0.0
C180 C 0.54055 0.70378 0.53 0.0
C181 C 0.50713 0.67277 0.52769 0.0
C182 C 0.5057 0.41884 0.54325 0.0
H183 H 0.51128 0.58779 0.6409 0.0
H184 H 0.50316 0.58258 0.60449 0.0
H185 H 0.60747 0.54965 0.60173 0.0
H186 H 0.6162 0.55581 0.63815 0.0
H187 H 0.55084 0.61985 0.57544 0.0
H188 H 0.54774 0.50534 0.57735 0.0
H189 H 0.53519 0.55521 0.52064 0.0
H190 H 0.48516 0.46136 0.55648 0.0
H191 H 0.58552 0.49969 0.52139 0.0
H192 H 0.58382 0.43493 0.51444 0.0
H193 H 0.48174 0.61348 0.53039 0.0
H194 H 0.60391 0.65492 0.54351 0.0
H195 H 0.48389 0.39732 0.55034 0.0
H196 H 0.47951 0.67689 0.5236 0.0
H197 H 0.60205 0.71813 0.53734 0.0
C198 C 0.09509 0.59823 0.95237 0.0
C199 C 0.06845 0.56848 0.96136 0.0
C200 C 0.09676 0.59984 0.93162 0.0
C201 C 0.0714 0.57206 0.91949 0.0
C202 C 0.04449 0.54255 0.92849 0.0
C203 C 0.04322 0.54064 0.94921 0.0
C204 C 0.07273 0.57393 0.89748 0.0
C205 C 0.1079 0.58044 0.88807 0.0
C206 C 0.10949 0.58203 0.86719 0.0
C207 C 0.0749 0.57756 0.85568 0.0
C208 C 0.03932 0.57108 0.86503 0.0
C209 C 0.03868 0.56906 0.88587 0.0
C210 C 1.00232 0.56753 0.85368 0.0
C211 C 0.99786 0.59636 0.84154 0.0
C212 C 0.96962 0.53771 0.85736 0.0
C213 C 0.93298 0.53758 0.84996 0.0
C214 C 0.92799 0.56749 0.83884 0.0
C215 C 0.14752 0.58735 0.85792 0.0
C216 C 0.18078 0.61344 0.86618 0.0
C217 C 0.15172 0.56413 0.84219 0.0
C218 C 0.18853 0.56578 0.83559 0.0
C219 C 0.22198 0.5909 0.84445 0.0
C220 C 0.21741 0.61518 0.85957 0.0
C221 C 0.96103 0.59645 0.83429 0.0
H222 H 0.11504 0.61991 0.96139 0.0
H223 H 0.11759 0.62302 0.92504 0.0
H224 H 0.02474 0.52068 0.91948 0.0
H225 H 1.02224 0.51752 0.95575 0.0
H226 H 0.13404 0.58313 0.89709 0.0
H227 H 1.01156 0.56474 0.89317 0.0
H228 H 0.07564 0.57911 0.83961 0.0
H229 H 1.02251 0.61984 0.83862 0.0
H230 H 0.97222 0.51516 0.86672 0.0
H231 H 0.9083 0.51497 0.85391 0.0
H232 H 0.17857 0.63196 0.87821 0.0
H233 H 0.12672 0.54361 0.83558 0.0
H234 H 0.95829 0.61972 0.82558 0.0
H235 H 0.2423 0.63466 0.86693 0.0
H236 H 0.19082 0.547 0.82372 0.0
C237 C 1.00218 0.54523 0.33922 0.0
C238 C 0.03705 0.5532 0.32927 0.0
C239 C 1.00211 0.5437 0.36 0.0
C240 C 0.03694 0.55034 0.3713 0.0
C241 C 0.07175 0.55768 0.36134 0.0
C242 C 0.0718 0.559 0.34057 0.0
C243 C 0.03714 0.55077 0.39342 0.0
C244 C 1.01001 0.52337 0.40362 0.0
C245 C 1.00976 0.52396 0.42455 0.0
C246 C 0.03733 0.55256 0.43528 0.0
C247 C 0.06483 0.58018 0.4253 0.0
C248 C 0.06433 0.57901 0.40438 0.0
C249 C 0.09384 0.61081 0.43643 0.0
C250 C 0.08327 0.62926 0.45257 0.0
C251 C 0.13209 0.62307 0.43027 0.0
C252 C 0.15867 0.6539 0.43945 0.0
C253 C 0.14777 0.67321 0.4551 0.0
C254 C 0.981 0.49427 0.43506 0.0
C255 C 0.94268 0.48081 0.42748 0.0
C256 C 0.99185 0.47826 0.45232 0.0
C257 C 0.96528 0.44894 0.46148 0.0
C258 C 0.9272 0.43487 0.4536 0.0
C259 C 0.91617 0.45148 0.4366 0.0
C260 C 0.10999 0.66012 0.46183 0.0
H261 H 0.97489 0.54027 0.33093 0.0
H262 H 0.97485 0.53821 0.36724 0.0
H263 H 0.09903 0.56255 0.36963 0.0
H264 H 0.09918 0.56552 0.33339 0.0
H265 H 0.98963 0.50099 0.3952 0.0
H266 H 0.08455 0.60084 0.39653 0.0
H267 H 0.0374 0.55336 0.45139 0.0
H268 H 0.05398 0.62073 0.45758 0.0
H269 H 0.14143 0.609 0.41817 0.0
H270 H 0.18777 0.66279 0.43419 0.0
H271 H 0.93316 0.49282 0.41438 0.0
H272 H 1.02117 0.48773 0.45848 0.0
H273 H 0.10063 0.67456 0.47376 0.0
H274 H 0.88726 0.4412 0.42998 0.0
H275 H 0.97468 0.43719 0.4747 0.0
C276 C 0.40373 0.97529 0.69872 0.0
C277 C 0.41594 1.0096 0.68916 0.0
C278 C 0.38668 0.97284 0.71725 0.0
C279 C 0.38181 1.00473 0.72658 0.0
C280 C 0.39478 1.03904 0.71706 0.0
C281 C 0.41141 0.0414 0.69859 0.0
C282 C 0.36493 1.00325 0.74654 0.0
C283 C 0.37508 0.98216 0.7618 0.0
C284 C 0.36432 0.98572 0.78143 0.0
C285 C 0.34371 1.01103 0.78579 0.0
C286 C 0.33278 1.03201 0.77067 0.0
C287 C 0.34202 1.02645 0.75098 0.0
C288 C 0.31667 0.06313 0.77569 0.0
C289 C 0.29327 0.06163 0.79214 0.0
C290 C 0.32798 0.09638 0.76504 0.0
C291 C 0.31775 0.12755 0.77111 0.0
C292 C 0.29655 0.12676 0.78824 0.0
C293 C 0.3775 0.96522 0.79761 0.0
C294 C 0.37317 0.92708 0.79533 0.0
C295 C 0.39587 0.98394 0.81509 0.0
C296 C 0.4107 0.96508 0.82973 0.0
C297 C 0.40707 0.92708 0.82725 0.0
C298 C 0.38763 0.90815 0.81005 0.0
C299 C 0.28368 0.0933 0.7985 0.0
H300 H 0.4068 0.95031 0.69174 0.0
H301 H 0.37701 0.94598 0.72417 0.0
H302 H 0.39278 0.06444 0.72404 0.0
H303 H 0.42134 0.06837 0.69181 0.0
H304 H 0.39333 0.96466 0.75871 0.0
H305 H 0.33278 0.04153 0.73907 0.0
H306 H 0.3375 1.0152 0.80112 0.0
H307 H 0.28338 1.0364 0.80052 0.0
H308 H 0.34684 0.09936 0.75266 0.0
H309 H 0.32893 0.15313 0.76315 0.0
H310 H 0.35898 0.912 0.78203 0.0
H311 H 0.3999 1.01344 0.81715 0.0
H312 H 0.26728 0.09199 0.81176 0.0
H313 H 0.38486 0.87897 0.8076 0.0
H314 H 0.4255 0.98032 0.84285 0.0
C315 C 0.56599 0.54403 0.01891 0.0
C316 C 0.55765 0.57284 0.00808 0.0
C317 C 0.56372 0.54305 0.03959 0.0
C318 C 0.55261 0.57057 0.04994 0.0
C319 C 0.54316 0.5988 0.03917 0.0
C320 C 0.54582 0.60003 0.01846 0.0
C321 C 0.55236 0.57049 0.07199 0.0
C322 C 0.58406 0.56584 0.08306 0.0
C323 C 0.58493 0.56635 0.10394 0.0
C324 C 0.55308 0.57117 0.11391 0.0
C325 C 0.52059 0.57537 0.10295 0.0
C326 C 0.52082 0.57526 0.082 0.0
C327 C 0.48565 0.57894 0.11289 0.0
C328 C 0.46884 0.55476 0.12807 0.0
C329 C 0.46677 0.60449 0.10587 0.0
C330 C 0.43122 0.60478 0.11315 0.0
C331 C 0.41344 0.57959 0.12773 0.0
C332 C 0.62029 0.56303 0.11469 0.0
C333 C 0.63476 0.53322 0.11008 0.0
C334 C 0.64296 0.59226 0.12692 0.0
C335 C 0.6804 0.59276 0.13336 0.0
C336 C 0.69567 0.5638 0.12788 0.0
C337 C 0.67189 0.53348 0.11669 0.0
C338 C 0.43308 0.55499 0.13536 0.0
H339 H 0.5742 0.52205 0.01142 0.0
H340 H 0.57061 0.52066 0.04751 0.0
H341 H 0.53481 0.62055 0.04683 0.0
H342 H 0.53954 0.62283 0.01067 0.0
H343 H 0.60884 0.56289 0.07536 0.0
H344 H 0.49588 0.57782 0.07337 0.0
H345 H 0.55361 0.57163 0.13004 0.0
H346 H 0.48254 0.53462 0.13372 0.0
H347 H 0.47909 0.62376 0.09432 0.0
H348 H 0.41699 0.62388 0.10672 0.0
H349 H 0.61792 0.51046 0.10056 0.0
H350 H 0.63262 0.61576 0.13049 0.0
H351 H 0.42056 0.53553 0.14678 0.0
H352 H 0.68272 0.51088 0.11204 0.0
H353 H 0.69783 0.61633 0.14215 0.0
H354 H 0.19905 0.63229 0.14211 0.0
H355 H 0.35323 0.51796 0.13594 0.0
H356 H 0.17088 0.51488 0.1536 0.0
H357 H 0.38279 0.63759 0.13377 0.0
H358 H 0.287 0.51593 0.1433 0.0
H359 H 0.26659 0.63442 0.13952 0.0
C360 C 0.20704 0.60691 0.14418 0.0
C361 C 0.17905 0.57329 0.14801 0.0
C362 C 0.30806 0.54263 0.14135 0.0
C363 C 0.25682 0.57554 0.14492 0.0
C364 C 0.34605 0.54386 0.13727 0.0
C365 C 0.37384 0.57801 0.13405 0.0
C366 C 0.29756 0.57575 0.14215 0.0
C367 C 0.36237 0.61054 0.13572 0.0
C368 C 0.24576 0.60818 0.14272 0.0
C369 C 0.19139 0.54142 0.15064 0.0
N370 N 0.32521 0.60857 0.1395 0.0
N371 N 0.22928 0.54327 0.1489 0.0
H372 H 0.71991 0.26671 0.48695 0.0
H373 H 0.94169 0.37264 0.46908 0.0
H374 H 0.81409 0.22232 0.50288 0.0
H375 H 0.84928 0.42213 0.45846 0.0
H376 H 0.89542 0.31807 0.48227 0.0
H377 H 0.7667 0.32442 0.47723 0.0
C378 C 0.75041 0.26917 0.4886 0.0
C379 C 0.76297 0.23939 0.49566 0.0
C380 C 0.88525 0.34093 0.47715 0.0
C381 C 0.81679 0.30537 0.48427 0.0
C382 C 0.91176 0.37229 0.46972 0.0
C383 C 0.89948 0.40217 0.46258 0.0
C384 C 0.846 0.33917 0.47741 0.0
C385 C 0.86007 0.39961 0.46349 0.0
C386 C 0.77713 0.3021 0.48293 0.0
C387 C 0.80293 0.24417 0.49719 0.0
N388 N 0.83477 0.36866 0.47067 0.0
N389 N 0.82832 0.27638 0.49147 0.0
H390 H 0.47436 0.75311 0.88649 0.0
H391 H 0.48018 0.95194 0.84385 0.0
H392 H 0.57744 0.83508 0.86818 0.0
H393 H 0.37772 0.85807 0.84306 0.0
H394 H 0.51479 0.91585 0.86307 0.0
H395 H 0.43818 0.79807 0.88079 0.0
C396 C 0.48959 0.78065 0.8816 0.0
C397 C 0.52893 0.78984 0.87734 0.0
C398 C 0.48455 0.90339 0.85898 0.0
C399 C 0.48774 0.84151 0.87115 0.0
C400 C 0.46472 0.92402 0.84812 0.0
C401 C 0.42618 0.90774 0.84162 0.0
C402 C 0.46567 0.8663 0.86343 0.0
C403 C 0.40764 0.87137 0.84746 0.0
C404 C 0.4689 0.80631 0.87844 0.0
C405 C 0.54726 0.82645 0.87168 0.0
N406 N 0.42768 0.8517 0.85786 0.0
N407 N 0.5264 0.85072 0.86848 0.0
H408 H 0.91321 0.51552 0.15361 0.0
H409 H 0.75905 0.62453 0.12489 0.0
H410 H 0.94347 0.62383 0.1271 0.0
H411 H 0.72687 0.50876 0.1404 0.0
H412 H 0.82708 0.6269 0.12915 0.0
H413 H 0.84531 0.51443 0.15185 0.0
C414 C 0.90565 0.53911 0.14742 0.0
C415 C 0.93423 0.56979 0.14043 0.0
C416 C 0.80515 0.60101 0.13172 0.0
C417 C 0.85632 0.56877 0.13852 0.0
C418 C 0.76624 0.59972 0.12948 0.0
C419 C 0.73707 0.56638 0.13228 0.0
C420 C 0.81517 0.56879 0.13692 0.0
C421 C 0.74831 0.53498 0.13789 0.0
C422 C 0.8668 0.53843 0.14642 0.0
C423 C 0.92252 0.59951 0.13259 0.0
N424 N 0.78639 0.53695 0.14 0.0
N425 N 0.88456 0.59828 0.13189 0.0
H426 H 0.29272 0.84863 0.53293 0.0
H427 H 0.19626 0.72989 0.43517 0.0
H428 H 0.31034 0.88922 0.47314 0.0
H429 H 0.16186 0.69558 0.49447 0.0
H430 H 0.24135 0.78668 0.44916 0.0
H431 H 0.24771 0.79073 0.51948 0.0
C432 C 0.2872 0.84531 0.51698 0.0
C433 C 0.30521 0.87386 0.50414 0.0
C434 C 0.22398 0.76678 0.45915 0.0
C435 C 0.25383 0.80779 0.48866 0.0
C436 C 0.19839 0.73418 0.45117 0.0
C437 C 0.17534 0.7078 0.46367 0.0
C438 C 0.22683 0.77318 0.47984 0.0
C439 C 0.17888 0.71526 0.48427 0.0
C440 C 0.26138 0.81236 0.50933 0.0
C441 C 0.29674 0.86819 0.48361 0.0
N442 N 0.20425 0.7472 0.49173 0.0
N443 N 0.27181 0.83583 0.47653 0.0
H444 H 0.36151 0.35763 0.78716 0.0
H445 H 0.31293 0.1527 0.82655 0.0
H446 H 0.41056 0.32535 0.84106 0.0
H447 H 0.27577 0.18243 0.76898 0.0
H448 H 0.32955 0.21782 0.83722 0.0
H449 H 0.3126 0.29708 0.78566 0.0
C450 C 0.36136 0.33818 0.79897 0.0
C451 C 0.39067 0.34611 0.81399 0.0
C452 C 0.31678 0.21 0.82242 0.0
C453 C 0.33522 0.27668 0.81221 0.0
C454 C 0.30691 0.17272 0.81638 0.0
C455 C 0.29387 0.16238 0.79669 0.0
C456 C 0.31383 0.23699 0.8086 0.0
C457 C 0.28669 0.1895 0.78415 0.0
C458 C 0.33354 0.30353 0.79806 0.0
C459 C 0.38907 0.31989 0.82891 0.0
N460 N 0.29761 0.22573 0.79016 0.0
N461 N 0.36227 0.28609 0.82746 0.0
H462 H 0.59857 0.94716 0.51559 0.0
H463 H 0.48041 0.73406 0.53789 0.0
H464 H 0.47954 0.91393 0.53176 0.0
H465 H 0.5971 0.76711 0.5179 0.0
H466 H 0.47943 0.79882 0.53579 0.0
H467 H 0.59856 0.88192 0.51675 0.0
C468 C 0.57232 0.92631 0.51939 0.0
C469 C 0.539 0.9368 0.52357 0.0
C470 C 0.50527 0.79194 0.53183 0.0
C471 C 0.53885 0.8607 0.52498 0.0
C472 C 0.50583 0.75454 0.53287 0.0
C473 C 0.53893 0.74399 0.5281 0.0
C474 C 0.53806 0.81992 0.52598 0.0
C475 C 0.57094 0.77304 0.5221 0.0
C476 C 0.57236 0.88876 0.52004 0.0
C477 C 0.50604 0.90777 0.52839 0.0
N478 N 0.56967 0.80913 0.52126 0.0
N479 N 0.50686 0.87148 0.52898 0.0
H480 H 0.71851 0.63369 0.83758 0.0
H481 H 0.86431 0.51167 0.82491 0.0
H482 H 0.68323 0.52332 0.81128 0.0
H483 H 0.9007 0.62819 0.84123 0.0
H484 H 0.79804 0.5149 0.81972 0.0
H485 H 0.78525 0.63171 0.83905 0.0
C486 C 0.72473 0.609 0.83206 0.0
C487 C 0.69497 0.57856 0.82435 0.0
C488 C 0.82059 0.53983 0.82426 0.0
C489 C 0.77187 0.57607 0.82608 0.0
C490 C 0.85845 0.53799 0.82729 0.0
C491 C 0.88828 0.5697 0.83356 0.0
C492 C 0.81224 0.57353 0.82773 0.0
C493 C 0.87888 0.60311 0.8362 0.0
C494 C 0.763 0.60795 0.83286 0.0
C495 C 0.70511 0.54747 0.81734 0.0
N496 N 0.84176 0.60405 0.83345 0.0
N497 N 0.74261 0.54692 0.8185 0.0
H498 H 0.24675 0.76233 0.18595 0.0
H499 H 0.40563 0.9576 0.17198 0.0
H500 H 0.23807 0.83655 0.13848 0.0
H501 H 0.39296 0.89586 0.22647 0.0
H502 H 0.34819 0.91135 0.15772 0.0
H503 H 0.30465 0.80852 0.19913 0.0
C504 C 0.25679 0.78844 0.17834 0.0
C505 C 0.23704 0.79559 0.16116 0.0
C506 C 0.35813 0.908 0.17278 0.0
C507 C 0.30417 0.84856 0.17606 0.0
C508 C 0.39083 0.93447 0.18099 0.0
C509 C 0.40448 0.93069 0.20049 0.0
C510 C 0.33903 0.87736 0.18408 0.0
C511 C 0.38424 0.89972 0.21127 0.0
C512 C 0.29007 0.81476 0.18584 0.0
C513 C 0.25236 0.82962 0.15167 0.0
N514 N 0.35271 0.87432 0.20292 0.0
N515 N 0.28498 0.85485 0.15925 0.0
H516 H 0.47285 0.16459 0.53199 0.0
H517 H 0.59625 0.38111 0.52634 0.0
H518 H 0.59287 0.19962 0.51765 0.0
H519 H 0.47268 0.3439 0.53183 0.0
H520 H 0.5963 0.316 0.52388 0.0
H521 H 0.47319 0.22993 0.53316 0.0
C522 C 0.49939 0.18586 0.52908 0.0
C523 C 0.53288 0.17583 0.5247 0.0
C524 C 0.56915 0.32208 0.52562 0.0
C525 C 0.53349 0.25211 0.52613 0.0
C526 C 0.56896 0.35963 0.52689 0.0
C527 C 0.5344 0.36919 0.52942 0.0
C528 C 0.53456 0.293 0.52695 0.0
C529 C 0.50039 0.33895 0.53033 0.0
C530 C 0.49952 0.22346 0.52973 0.0
C531 C 0.56621 0.20541 0.52108 0.0
N532 N 0.50142 0.30281 0.52918 0.0
N533 N 0.56567 0.24179 0.52194 0.0
H534 H 0.42837 0.52657 0.81953 0.0
H535 H 0.28681 0.65059 0.84099 0.0
H536 H 0.46765 0.64487 0.83145 0.0
H537 H 0.248 0.53097 0.83519 0.0
H538 H 0.35243 0.64939 0.83474 0.0
H539 H 0.3617 0.52811 0.82239 0.0
C540 C 0.42309 0.55293 0.82263 0.0
C541 C 0.45395 0.58563 0.8253 0.0
C542 C 0.32955 0.62339 0.83474 0.0
C543 C 0.3773 0.58752 0.82863 0.0
C544 C 0.29197 0.62402 0.83839 0.0
C545 C 0.26158 0.5908 0.8388 0.0
C546 C 0.33713 0.58928 0.83142 0.0
C547 C 0.27023 0.55735 0.83487 0.0
C548 C 0.38491 0.55375 0.8243 0.0
C549 C 0.44501 0.6189 0.82931 0.0
N550 N 0.30713 0.55744 0.83147 0.0
N551 N 0.40765 0.61894 0.83089 0.0
H552 H 0.85979 0.32577 0.15344 0.0
H553 H 0.72367 0.24218 0.24275 0.0
H554 H 0.86975 0.37939 0.21117 0.0
H555 H 0.69826 0.20124 0.18208 0.0
H556 H 0.77799 0.29179 0.23149 0.0
H557 H 0.8016 0.27888 0.16368 0.0
C558 C 0.84969 0.32769 0.16826 0.0
C559 C 0.86973 0.35648 0.1815 0.0
C560 C 0.76042 0.27208 0.22061 0.0
C561 C 0.8032 0.30291 0.19332 0.0
C562 C 0.72914 0.24378 0.22701 0.0
C563 C 0.70604 0.21737 0.21336 0.0
C564 C 0.76913 0.27398 0.20041 0.0
C565 C 0.71544 0.22057 0.19321 0.0
C566 C 0.81638 0.30103 0.17406 0.0
C567 C 0.85506 0.35788 0.20043 0.0
N568 N 0.74632 0.24824 0.18737 0.0
N569 N 0.82288 0.33134 0.20582 0.0
H570 H 0.04053 0.60201 0.08748 0.0
H571 H 0.06693 0.50833 0.98408 0.0
H572 H 0.08197 0.50577 0.083 0.0
H573 H 0.06751 0.62295 0.98858 0.0
H574 H 0.06494 0.50434 0.02032 0.0
H575 H 0.04341 0.60811 0.05111 0.0
C576 C 0.05023 0.58223 0.07884 0.0
C577 C 0.06093 0.55329 0.0882 0.0
C578 C 0.06558 0.5304 0.0134 0.0
C579 C 0.06392 0.55984 0.04683 0.0
C580 C 0.06648 0.53261 0.99273 0.0
C581 C 0.06737 0.56601 0.98335 0.0
C582 C 0.06505 0.56167 0.02483 0.0
C583 C 0.06713 0.59677 0.99528 0.0
C584 C 0.05196 0.58577 0.05816 0.0
C585 C 0.07343 0.52848 0.07638 0.0
N586 N 0.06575 0.59382 0.01542 0.0
N587 N 0.07432 0.53216 0.05632 0.0
H588 H 0.58361 0.04685 0.46815 0.0
H589 H 0.49392 1.01929 0.35782 0.0
H590 H 0.47075 0.05805 0.45312 0.0
H591 H 0.6139 0.0796 0.36865 0.0
H592 H 0.48497 1.01814 0.39383 0.0
H593 H 0.59561 0.04495 0.43234 0.0
C594 C 0.56146 0.04889 0.45735 0.0
C595 C 0.52629 0.05289 0.46354 0.0
C596 C 0.51329 1.03138 0.38829 0.0
C597 C 0.53928 0.04963 0.42297 0.0
C598 C 0.51844 1.03186 0.36785 0.0
C599 C 0.55464 0.04962 0.3604 0.0
C600 C 0.54476 0.04808 0.40137 0.0
C601 C 0.58552 0.0658 0.37393 0.0
C602 C 0.56831 0.04783 0.43702 0.0
C603 C 0.49837 0.05518 0.44898 0.0
N604 N 0.57996 0.0645 0.39386 0.0
N605 N 0.50532 0.05317 0.42937 0.0
H606 H 0.63036 0.66047 0.76145 0.0
H607 H 0.51296 0.5399 0.67023 0.0
H608 H 0.55147 0.55164 0.76952 0.0
H609 H 0.6275 0.61391 0.66398 0.0
H610 H 0.52156 0.54849 0.70654 0.0
H611 H 0.62516 0.64874 0.72533 0.0
C612 C 0.61207 0.63405 0.7556 0.0
C613 C 0.59136 0.60689 0.76841 0.0
C614 C 0.54486 0.56266 0.69721 0.0
C615 C 0.58474 0.59362 0.72728 0.0
C616 C 0.5399 0.55792 0.67655 0.0
C617 C 0.5696 0.57622 0.66419 0.0
C618 C 0.5794 0.58655 0.7055 0.0
C619 C 0.60403 0.59917 0.67306 0.0
C620 C 0.60921 0.62736 0.73505 0.0
C621 C 0.56805 0.57315 0.76012 0.0
N622 N 0.60786 0.60403 0.69319 0.0
N623 N 0.565 0.56759 0.74003 0.0
H624 H 0.5671 1.01557 0.5908 0.0
H625 H 0.39952 0.04705 0.65713 0.0
H626 H 0.48906 0.07775 0.57242 0.0
H627 H 0.47212 0.9799 0.67627 0.0
H628 H 0.43175 0.057 0.62564 0.0
H629 H 0.53299 1.00106 0.62202 0.0
C630 C 0.54288 1.02621 0.59337 0.0
C631 C 0.53094 0.04801 0.5791 0.0
C632 C 0.44066 1.03995 0.63664 0.0
C633 C 0.49183 1.03146 0.61453 0.0
C634 C 0.42228 1.03434 0.65465 0.0
C635 C 0.43339 1.01288 0.66939 0.0
C636 C 0.47061 1.02415 0.63325 0.0
C637 C 0.46261 0.99653 0.66525 0.0
C638 C 0.52338 1.01785 0.61112 0.0
C639 C 0.49932 0.06096 0.58306 0.0
N640 N 0.48047 1.00273 0.6476 0.0
N641 N 0.48095 0.05253 0.60038 0.0
H642 H 0.60994 0.52692 0.88844 0.0
H643 H 0.51235 0.5947 0.97959 0.0
H644 H 0.53809 0.59978 0.88081 0.0
H645 H 0.61271 0.55516 0.98632 0.0
H646 H 0.51896 0.59504 0.94349 0.0
H647 H 0.60896 0.53476 0.92449 0.0
C648 C 0.59414 0.54476 0.8944 0.0
C649 C 0.5739 0.56257 0.88171 0.0
C650 C 0.53961 0.5865 0.95293 0.0
C651 C 0.57226 0.57136 0.92293 0.0
C652 C 0.53597 0.5864 0.97356 0.0
C653 C 0.56178 0.57452 0.98611 0.0
C654 C 0.56904 0.57431 0.94476 0.0
C655 C 0.5915 0.56365 0.9773 0.0
C656 C 0.59364 0.54929 0.91496 0.0
C657 C 0.55401 0.58551 0.89015 0.0
N658 N 0.59411 0.56354 0.95721 0.0
N659 N 0.55331 0.58895 0.91029 0.0
H660 H 0.08643 0.54759 0.20387 0.0
H661 H 0.9955 0.58786 0.30558 0.0
H662 H 1.01626 0.62205 0.20903 0.0
H663 H 0.07964 0.52709 0.30284 0.0
H664 H 0.99826 0.59575 0.26959 0.0
H665 H 0.0802 0.5352 0.23956 0.0
C666 C 0.06968 0.56126 0.21253 0.0
C667 C 0.05202 0.58604 0.20357 0.0
C668 C 1.01607 0.5806 0.27684 0.0
C669 C 0.04462 0.57196 0.24426 0.0
C670 C 1.01429 0.57584 0.29738 0.0
C671 C 0.0374 0.5568 0.30727 0.0
C672 C 0.04103 0.5661 0.26601 0.0
C673 C 0.06165 0.54234 0.29587 0.0
C674 C 0.06615 0.55423 0.23287 0.0
C675 C 0.03052 0.60292 0.21539 0.0
N676 N 0.06284 0.54729 0.27586 0.0
N677 N 0.02744 0.59558 0.23512 0.0
loop_
_geom_bond_atom_site_label_1
_geom_bond_atom_site_label_2
_geom_bond_distance
_geom_bond_site_symmetry_2
_ccdc_geom_bond_type
Pr0 C2 2.880 . S
Pr0 O20 2.562 . S
Pr0 O21 2.490 . S
Pr0 O22 2.695 1_655 S
Pr0 O23 2.512 . S
Pr0 O25 2.437 . S
Pr0 O28 2.432 . S
Pr0 O30 2.438 1_655 S
Pr1 C11 2.880 . S
Pr1 O22 2.436 . S
Pr1 O24 2.438 1_455 S
Pr1 O26 2.562 . S
Pr1 O27 2.490 . S
Pr1 O28 2.693 1_455 S
Pr1 O29 2.512 . S
Pr1 O31 2.437 . S
C2 Pr0 2.880 . S
C2 C3 1.491 . S
C2 O20 1.254 . S
C2 O21 1.225 . S
C3 C2 1.491 . S
C3 C4 1.392 . S
C3 C8 1.356 . S
C4 C3 1.392 . S
C4 C5 1.368 . S
C4 H32 0.929 . S
C5 C4 1.368 . S
C5 C6 1.386 . S
C5 H33 0.929 . S
C6 C5 1.386 . S
C6 C7 1.373 . S
C7 C6 1.373 . S
C7 C8 1.409 . S
C7 H34 0.931 . S
C8 C3 1.356 . S
C8 C7 1.409 . S
C8 H35 0.930 . S
C9 O22 1.270 . S
C9 O23 1.248 1_455 S
C10 O24 1.267 . S
C10 O25 1.278 . S
C11 Pr1 2.880 . S
C11 C12 1.491 . S
C11 O26 1.254 . S
C11 O27 1.225 . S
C12 C11 1.491 . S
C12 C13 1.392 . S
C12 C17 1.356 . S
C13 C12 1.392 . S
C13 C14 1.368 . S
C13 H36 0.929 . S
C14 C13 1.368 . S
C14 C15 1.386 . S
C14 H37 0.929 . S
C15 C14 1.386 . S
C15 C16 1.373 . S
C16 C15 1.373 . S
C16 C17 1.409 . S
C16 H38 0.931 . S
C17 C12 1.356 . S
C17 C16 1.409 . S
C17 H39 0.930 . S
C18 O28 1.268 1_455 S
C18 O29 1.248 . S
C19 O30 1.267 . S
C19 O31 1.278 . S
O20 Pr0 2.562 . S
O20 C2 1.254 . S
O21 Pr0 2.490 . S
O21 C2 1.225 . S
O22 Pr0 2.695 1_455 S
O22 Pr1 2.436 . S
O22 C9 1.270 . S
O23 Pr0 2.512 . S
O23 C9 1.248 1_655 S
O24 Pr1 2.438 1_655 S
O24 C10 1.267 . S
O25 Pr0 2.437 . S
O25 C10 1.278 . S
O26 Pr1 2.562 . S
O26 C11 1.254 . S
O27 Pr1 2.490 . S
O27 C11 1.225 . S
O28 Pr0 2.432 . S
O28 Pr1 2.693 1_655 S
O28 C18 1.268 1_655 S
O29 Pr1 2.512 . S
O29 C18 1.248 . S
O30 Pr0 2.438 1_455 S
O30 C19 1.267 . S
O31 Pr1 2.437 . S
O31 C19 1.278 . S
H32 C4 0.929 . S
H33 C5 0.929 . S
H34 C7 0.931 . S
H35 C8 0.930 . S
H36 C13 0.929 . S
H37 C14 0.929 . S
H38 C16 0.931 . S
H39 C17 0.930 . S
Pr40 C42 2.880 . S
Pr40 O60 2.562 . S
Pr40 O61 2.490 . S
Pr40 O62 2.695 . S
Pr40 O63 2.512 . S
Pr40 O65 2.437 . S
Pr40 O68 2.436 . S
Pr40 O70 2.438 1_545 S
Pr41 C51 2.880 . S
Pr41 O62 2.436 1_565 S
Pr41 O64 2.438 1_565 S
Pr41 O66 2.562 . S
Pr41 O67 2.490 . S
Pr41 O68 2.695 1_565 S
Pr41 O69 2.512 . S
Pr41 O71 2.437 . S
C42 Pr40 2.880 . S
C42 C43 1.491 . S
C42 O60 1.254 . S
C42 O61 1.225 . S
C43 C42 1.491 . S
C43 C44 1.392 . S
C43 C48 1.356 . S
C44 C43 1.392 . S
C44 C45 1.368 . S
C44 H72 0.929 . S
C45 C44 1.368 . S
C45 C46 1.386 . S
C45 H73 0.929 . S
C46 C45 1.386 . S
C46 C47 1.373 . S
C47 C46 1.373 . S
C47 C48 1.409 . S
C47 H74 0.931 . S
C48 C43 1.356 . S
C48 C47 1.409 . S
C48 H75 0.930 . S
C49 O62 1.270 . S
C49 O63 1.248 . S
C50 O64 1.267 . S
C50 O65 1.278 . S
C51 Pr41 2.880 . S
C51 C52 1.491 . S
C51 O66 1.254 . S
C51 O67 1.225 . S
C52 C51 1.491 . S
C52 C53 1.392 . S
C52 C57 1.356 . S
C53 C52 1.392 . S
C53 C54 1.368 . S
C53 H76 0.929 . S
C54 C53 1.368 . S
C54 C55 1.386 . S
C54 H77 0.929 . S
C55 C54 1.386 . S
C55 C56 1.373 . S
C56 C55 1.373 . S
C56 C57 1.409 . S
C56 H78 0.931 . S
C57 C52 1.356 . S
C57 C56 1.409 . S
C57 H79 0.930 . S
C58 O68 1.270 . S
C58 O69 1.248 1_545 S
C59 O70 1.267 . S
C59 O71 1.278 . S
O60 Pr40 2.562 . S
O60 C42 1.254 . S
O61 Pr40 2.490 . S
O61 C42 1.225 . S
O62 Pr40 2.695 . S
O62 Pr41 2.436 1_545 S
O62 C49 1.270 . S
O63 Pr40 2.512 . S
O63 C49 1.248 . S
O64 Pr41 2.438 1_545 S
O64 C50 1.267 . S
O65 Pr40 2.437 . S
O65 C50 1.278 . S
O66 Pr41 2.562 . S
O66 C51 1.254 . S
O67 Pr41 2.490 . S
O67 C51 1.225 . S
O68 Pr40 2.436 . S
O68 Pr41 2.695 1_545 S
O68 C58 1.270 . S
O69 Pr41 2.512 . S
O69 C58 1.248 1_565 S
O70 Pr40 2.438 1_565 S
O70 C59 1.267 . S
O71 Pr41 2.437 . S
O71 C59 1.278 . S
H72 C44 0.929 . S
H73 C45 0.929 . S
H74 C47 0.931 . S
H75 C48 0.930 . S
H76 C53 0.929 . S
H77 C54 0.929 . S
H78 C56 0.931 . S
H79 C57 0.930 . S
Pr80 C82 2.880 . S
Pr80 O100 2.562 . S
Pr80 O101 2.490 . S
Pr80 O102 2.695 . S
Pr80 O103 2.512 . S
Pr80 O105 2.437 . S
Pr80 O108 2.436 . S
Pr80 O110 2.438 . S
Pr81 C91 2.880 . S
Pr81 O102 2.436 . S
Pr81 O104 2.438 . S
Pr81 O106 2.562 . S
Pr81 O107 2.490 . S
Pr81 O108 2.695 . S
Pr81 O109 2.512 . S
Pr81 O111 2.437 . S
C82 Pr80 2.880 . S
C82 C83 1.491 . S
C82 O100 1.254 . S
C82 O101 1.225 . S
C83 C82 1.491 . S
C83 C84 1.392 . S
C83 C88 1.356 . S
C84 C83 1.392 . S
C84 C85 1.368 . S
C84 H112 0.929 . S
C85 C84 1.368 . S
C85 C86 1.386 . S
C85 H113 0.929 . S
C86 C85 1.386 . S
C86 C87 1.373 . S
C87 C86 1.373 . S
C87 C88 1.409 . S
C87 H114 0.931 . S
C88 C83 1.356 . S
C88 C87 1.409 . S
C88 H115 0.930 . S
C89 O102 1.270 . S
C89 O103 1.248 . S
C90 O104 1.267 . S
C90 O105 1.278 . S
C91 Pr81 2.880 . S
C91 C92 1.491 . S
C91 O106 1.254 . S
C91 O107 1.225 . S
C92 C91 1.491 . S
C92 C93 1.392 . S
C92 C97 1.356 . S
C93 C92 1.392 . S
C93 C94 1.368 . S
C93 H116 0.929 . S
C94 C93 1.368 . S
C94 C95 1.386 . S
C94 H117 0.929 . S
C95 C94 1.386 . S
C95 C96 1.373 . S
C96 C95 1.373 . S
C96 C97 1.409 . S
C96 H118 0.931 . S
C97 C92 1.356 . S
C97 C96 1.409 . S
C97 H119 0.930 . S
C98 O108 1.270 . S
C98 O109 1.248 . S
C99 O110 1.267 . S
C99 O111 1.278 . S
O100 Pr80 2.562 . S
O100 C82 1.254 . S
O101 Pr80 2.490 . S
O101 C82 1.225 . S
O102 Pr80 2.695 . S
O102 Pr81 2.436 . S
O102 C89 1.270 . S
O103 Pr80 2.512 . S
O103 C89 1.248 . S
O104 Pr81 2.438 . S
O104 C90 1.267 . S
O105 Pr80 2.437 . S
O105 C90 1.278 . S
O106 Pr81 2.562 . S
O106 C91 1.254 . S
O107 Pr81 2.490 . S
O107 C91 1.225 . S
O108 Pr80 2.436 . S
O108 Pr81 2.695 . S
O108 C98 1.270 . S
O109 Pr81 2.512 . S
O109 C98 1.248 . S
O110 Pr80 2.438 . S
O110 C99 1.267 . S
O111 Pr81 2.437 . S
O111 C99 1.278 . S
H112 C84 0.929 . S
H113 C85 0.929 . S
H114 C87 0.931 . S
H115 C88 0.930 . S
H116 C93 0.929 . S
H117 C94 0.929 . S
H118 C96 0.931 . S
H119 C97 0.930 . S
C120 C121 1.386 . S
C120 C122 1.397 . S
C120 H144 0.931 . S
C121 C120 1.386 . S
C121 C125 1.394 1_545 S
C122 C120 1.397 . S
C122 C123 1.384 . S
C122 H145 0.930 . S
C123 C122 1.384 . S
C123 C124 1.404 . S
C123 C126 1.481 . S
C124 C123 1.404 . S
C124 C125 1.388 1_545 S
C124 H146 0.903 1_545 S
C125 C121 1.394 1_565 S
C125 C124 1.388 1_565 S
C125 H147 0.934 . S
C126 C123 1.481 . S
C126 C127 1.387 . S
C126 C131 1.390 . S
C127 C126 1.387 . S
C127 C128 1.401 . S
C127 H148 0.930 . S
C128 C127 1.401 . S
C128 C129 1.376 . S
C128 C137 1.511 . S
C129 C128 1.376 . S
C129 C130 1.392 . S
C129 H150 0.931 . S
C130 C129 1.392 . S
C130 C131 1.361 . S
C130 C132 1.500 1_545 S
C131 C126 1.390 . S
C131 C130 1.361 . S
C131 H149 0.931 1_545 S
C132 C130 1.500 1_565 S
C132 C133 1.371 . S
C132 C134 1.365 . S
C133 C132 1.371 . S
C133 C143 1.386 . S
C133 H151 0.931 1_565 S
C134 C132 1.365 . S
C134 C135 1.409 . S
C134 H152 0.929 . S
C135 C134 1.409 . S
C135 C136 1.380 . S
C135 H153 0.930 . S
C136 C135 1.380 . S
C136 C143 1.357 . S
C137 C128 1.511 . S
C137 C138 1.341 . S
C137 C139 1.371 . S
C138 C137 1.341 . S
C138 C142 1.394 . S
C138 H154 0.930 . S
C139 C137 1.371 . S
C139 C140 1.392 . S
C139 H155 0.931 . S
C140 C139 1.392 . S
C140 C141 1.331 . S
C140 H158 0.932 . S
C141 C140 1.331 . S
C141 C142 1.336 . S
C142 C138 1.394 . S
C142 C141 1.336 . S
C142 H157 0.929 . S
C143 C133 1.386 . S
C143 C136 1.357 . S
C143 H156 0.928 . S
H144 C120 0.931 . S
H145 C122 0.930 . S
H146 C124 0.903 1_565 S
H147 C125 0.934 . S
H148 C127 0.930 . S
H149 C131 0.931 1_565 S
H150 C129 0.931 . S
H151 C133 0.931 1_545 S
H152 C134 0.929 . S
H153 C135 0.930 . S
H154 C138 0.930 . S
H155 C139 0.931 . S
H156 C143 0.928 . S
H157 C142 0.929 . S
H158 C140 0.932 . S
C159 C160 1.386 . S
C159 C161 1.397 . S
C159 H183 0.931 . S
C160 C159 1.386 . S
C160 C164 1.397 . S
C161 C159 1.397 . S
C161 C162 1.384 . S
C161 H184 0.930 . S
C162 C161 1.384 . S
C162 C163 1.377 . S
C162 C165 1.481 . S
C163 C162 1.377 . S
C163 C164 1.389 . S
C163 H185 0.929 . S
C164 C160 1.397 . S
C164 C163 1.389 . S
C164 H186 0.931 . S
C165 C162 1.481 . S
C165 C166 1.387 . S
C165 C170 1.390 . S
C166 C165 1.387 . S
C166 C167 1.401 . S
C166 H187 0.930 . S
C167 C166 1.401 . S
C167 C168 1.376 . S
C167 C176 1.511 . S
C168 C167 1.376 . S
C168 C169 1.392 . S
C168 H189 0.931 . S
C169 C168 1.392 . S
C169 C170 1.361 . S
C169 C171 1.500 . S
C170 C165 1.390 . S
C170 C169 1.361 . S
C170 H188 0.931 . S
C171 C169 1.500 . S
C171 C172 1.371 . S
C171 C173 1.365 . S
C172 C171 1.371 . S
C172 C182 1.386 . S
C172 H190 0.931 . S
C173 C171 1.365 . S
C173 C174 1.409 . S
C173 H191 0.929 . S
C174 C173 1.409 . S
C174 C175 1.380 . S
C174 H192 0.930 . S
C175 C174 1.380 . S
C175 C182 1.357 . S
C176 C167 1.511 . S
C176 C177 1.341 . S
C176 C178 1.371 . S
C177 C176 1.341 . S
C177 C181 1.394 . S
C177 H193 0.930 . S
C178 C176 1.371 . S
C178 C179 1.392 . S
C178 H194 0.931 . S
C179 C178 1.392 . S
C179 C180 1.331 . S
C179 H197 0.932 . S
C180 C179 1.331 . S
C180 C181 1.336 . S
C181 C177 1.394 . S
C181 C180 1.336 . S
C181 H196 0.929 . S
C182 C172 1.386 . S
C182 C175 1.357 . S
C182 H195 0.928 . S
H183 C159 0.931 . S
H184 C161 0.930 . S
H185 C163 0.929 . S
H186 C164 0.931 . S
H187 C166 0.930 . S
H188 C170 0.931 . S
H189 C168 0.931 . S
H190 C172 0.931 . S
H191 C173 0.929 . S
H192 C174 0.930 . S
H193 C177 0.930 . S
H194 C178 0.931 . S
H195 C182 0.928 . S
H196 C181 0.929 . S
H197 C179 0.932 . S
C198 C199 1.386 . S
C198 C200 1.397 . S
C198 H222 0.931 . S
C199 C198 1.386 . S
C199 C203 1.397 1_455 S
C200 C198 1.397 . S
C200 C201 1.384 . S
C200 H223 0.930 . S
C201 C200 1.384 . S
C201 C202 1.377 1_455 S
C201 C204 1.481 . S
C202 C201 1.377 1_655 S
C202 C203 1.389 . S
C202 H224 0.929 . S
C203 C199 1.397 1_655 S
C203 C202 1.389 . S
C203 H225 0.931 . S
C204 C201 1.481 . S
C204 C205 1.387 . S
C204 C209 1.390 1_455 S
C205 C204 1.387 . S
C205 C206 1.401 . S
C205 H226 0.930 . S
C206 C205 1.401 . S
C206 C207 1.376 . S
C206 C215 1.511 . S
C207 C206 1.376 . S
C207 C208 1.392 1_455 S
C207 H228 0.931 . S
C208 C207 1.392 1_655 S
C208 C209 1.361 . S
C208 C210 1.500 . S
C209 C204 1.390 1_655 S
C209 C208 1.361 . S
C209 H227 0.931 . S
C210 C208 1.500 . S
C210 C211 1.371 . S
C210 C212 1.365 . S
C211 C210 1.371 . S
C211 C221 1.386 . S
C211 H229 0.931 . S
C212 C210 1.365 . S
C212 C213 1.409 . S
C212 H230 0.929 . S
C213 C212 1.409 . S
C213 C214 1.380 . S
C213 H231 0.930 . S
C214 C213 1.380 . S
C214 C221 1.357 . S
C215 C206 1.511 . S
C215 C216 1.341 . S
C215 C217 1.371 . S
C216 C215 1.341 . S
C216 C220 1.394 . S
C216 H232 0.930 . S
C217 C215 1.371 . S
C217 C218 1.392 . S
C217 H233 0.931 . S
C218 C217 1.392 . S
C218 C219 1.331 . S
C218 H236 0.932 . S
C219 C218 1.331 . S
C219 C220 1.336 . S
C220 C216 1.394 . S
C220 C219 1.336 . S
C220 H235 0.929 . S
C221 C211 1.386 . S
C221 C214 1.357 . S
C221 H234 0.928 . S
H222 C198 0.931 . S
H223 C200 0.930 . S
H224 C202 0.929 . S
H225 C203 0.931 . S
H226 C205 0.930 . S
H227 C209 0.931 . S
H228 C207 0.931 . S
H229 C211 0.931 . S
H230 C212 0.929 . S
H231 C213 0.930 . S
H232 C216 0.930 . S
H233 C217 0.931 . S
H234 C221 0.928 . S
H235 C220 0.929 . S
H236 C218 0.932 . S
C237 C238 1.386 . S
C237 C239 1.397 . S
C237 H261 0.931 . S
C238 C237 1.386 . S
C238 C242 1.397 1_655 S
C239 C237 1.397 . S
C239 C240 1.384 . S
C239 H262 0.930 . S
C240 C239 1.384 . S
C240 C241 1.377 1_655 S
C240 C243 1.480 . S
C241 C240 1.377 1_455 S
C241 C242 1.389 . S
C241 H263 0.929 . S
C242 C238 1.397 1_455 S
C242 C241 1.389 . S
C242 H264 0.931 . S
C243 C240 1.480 . S
C243 C244 1.397 . S
C243 C248 1.381 1_655 S
C244 C243 1.397 . S
C244 C245 1.401 . S
C244 H265 0.930 . S
C245 C244 1.401 . S
C245 C246 1.376 1_655 S
C245 C254 1.511 . S
C246 C245 1.376 1_455 S
C246 C247 1.392 . S
C246 H267 0.931 . S
C247 C246 1.392 . S
C247 C248 1.361 . S
C247 C249 1.500 . S
C248 C243 1.381 1_455 S
C248 C247 1.361 . S
C248 H266 0.931 . S
C249 C247 1.500 . S
C249 C250 1.371 . S
C249 C251 1.365 . S
C250 C249 1.371 . S
C250 C260 1.386 . S
C250 H268 0.931 . S
C251 C249 1.365 . S
C251 C252 1.409 . S
C251 H269 0.929 . S
C252 C251 1.409 . S
C252 C253 1.380 . S
C252 H270 0.930 . S
C253 C252 1.380 . S
C253 C260 1.357 . S
C254 C245 1.511 . S
C254 C255 1.341 . S
C254 C256 1.371 . S
C255 C254 1.341 . S
C255 C259 1.394 . S
C255 H271 0.930 . S
C256 C254 1.371 . S
C256 C257 1.392 . S
C256 H272 0.931 . S
C257 C256 1.392 . S
C257 C258 1.331 . S
C257 H275 0.932 . S
C258 C257 1.331 . S
C258 C259 1.336 . S
C259 C255 1.394 . S
C259 C258 1.336 . S
C259 H274 0.929 . S
C260 C250 1.386 . S
C260 C253 1.357 . S
C260 H273 0.928 . S
H261 C237 0.931 . S
H262 C239 0.930 . S
H263 C241 0.929 . S
H264 C242 0.931 . S
H265 C244 0.930 . S
H266 C248 0.931 . S
H267 C246 0.931 . S
H268 C250 0.931 . S
H269 C251 0.929 . S
H270 C252 0.930 . S
H271 C255 0.930 . S
H272 C256 0.931 . S
H273 C260 0.928 . S
H274 C259 0.929 . S
H275 C257 0.932 . S
C276 C277 1.386 1_565 S
C276 C278 1.397 . S
C276 H300 0.931 . S
C277 C276 1.386 1_545 S
C277 C281 1.397 . S
C278 C276 1.397 . S
C278 C279 1.384 1_565 S
C278 H301 0.930 . S
C279 C278 1.384 1_545 S
C279 C280 1.377 . S
C279 C282 1.481 . S
C280 C279 1.377 . S
C280 C281 1.389 . S
C280 H302 0.929 . S
C281 C277 1.397 . S
C281 C280 1.389 . S
C281 H303 0.931 . S
C282 C279 1.481 . S
C282 C283 1.387 1_545 S
C282 C287 1.390 . S
C283 C282 1.387 1_565 S
C283 C284 1.401 . S
C283 H304 0.930 . S
C284 C283 1.401 . S
C284 C285 1.376 1_565 S
C284 C293 1.511 . S
C285 C284 1.376 1_545 S
C285 C286 1.392 . S
C285 H306 0.931 . S
C286 C285 1.392 . S
C286 C287 1.361 . S
C286 C288 1.500 . S
C287 C282 1.390 . S
C287 C286 1.361 . S
C287 H305 0.931 . S
C288 C286 1.500 . S
C288 C289 1.371 . S
C288 C290 1.365 . S
C289 C288 1.371 . S
C289 C299 1.386 . S
C289 H307 0.931 . S
C290 C288 1.365 . S
C290 C291 1.409 . S
C290 H308 0.929 . S
C291 C290 1.409 . S
C291 C292 1.380 . S
C291 H309 0.930 . S
C292 C291 1.380 . S
C292 C299 1.357 . S
C293 C284 1.511 . S
C293 C294 1.341 . S
C293 C295 1.371 . S
C294 C293 1.341 . S
C294 C298 1.394 . S
C294 H310 0.930 . S
C295 C293 1.371 . S
C295 C296 1.392 . S
C295 H311 0.931 . S
C296 C295 1.392 . S
C296 C297 1.331 . S
C296 H314 0.932 . S
C297 C296 1.331 . S
C297 C298 1.336 . S
C298 C294 1.394 . S
C298 C297 1.336 . S
C298 H313 0.929 . S
C299 C289 1.386 . S
C299 C292 1.357 . S
C299 H312 0.928 . S
H300 C276 0.931 . S
H301 C278 0.930 . S
H302 C280 0.929 . S
H303 C281 0.931 . S
H304 C283 0.930 . S
H305 C287 0.931 . S
H306 C285 0.931 . S
H307 C289 0.931 . S
H308 C290 0.929 . S
H309 C291 0.930 . S
H310 C294 0.930 . S
H311 C295 0.931 . S
H312 C299 0.928 . S
H313 C298 0.929 . S
H314 C296 0.932 . S
C315 C316 1.386 . S
C315 C317 1.397 . S
C315 H339 0.931 . S
C316 C315 1.386 . S
C316 C320 1.397 . S
C317 C315 1.397 . S
C317 C318 1.384 . S
C317 H340 0.930 . S
C318 C317 1.384 . S
C318 C319 1.377 . S
C318 C321 1.481 . S
C319 C318 1.377 . S
C319 C320 1.389 . S
C319 H341 0.929 . S
C320 C316 1.397 . S
C320 C319 1.389 . S
C320 H342 0.931 . S
C321 C318 1.481 . S
C321 C322 1.387 . S
C321 C326 1.390 . S
C322 C321 1.387 . S
C322 C323 1.401 . S
C322 H343 0.930 . S
C323 C322 1.401 . S
C323 C324 1.376 . S
C323 C332 1.511 . S
C324 C323 1.376 . S
C324 C325 1.392 . S
C324 H345 0.931 . S
C325 C324 1.392 . S
C325 C326 1.361 . S
C325 C327 1.500 . S
C326 C321 1.390 . S
C326 C325 1.361 . S
C326 H344 0.931 . S
C327 C325 1.500 . S
C327 C328 1.371 . S
C327 C329 1.365 . S
C328 C327 1.371 . S
C328 C338 1.386 . S
C328 H346 0.931 . S
C329 C327 1.365 . S
C329 C330 1.409 . S
C329 H347 0.929 . S
C330 C329 1.409 . S
C330 C331 1.380 . S
C330 H348 0.930 . S
C331 C330 1.380 . S
C331 C338 1.357 . S
C332 C323 1.511 . S
C332 C333 1.341 . S
C332 C334 1.371 . S
C333 C332 1.341 . S
C333 C337 1.394 . S
C333 H349 0.930 . S
C334 C332 1.371 . S
C334 C335 1.392 . S
C334 H350 0.931 . S
C335 C334 1.392 . S
C335 C336 1.331 . S
C335 H353 0.932 . S
C336 C335 1.331 . S
C336 C337 1.336 . S
C337 C333 1.394 . S
C337 C336 1.336 . S
C337 H352 0.929 . S
C338 C328 1.386 . S
C338 C331 1.357 . S
C338 H351 0.928 . S
H339 C315 0.931 . S
H340 C317 0.930 . S
H341 C319 0.929 . S
H342 C320 0.931 . S
H343 C322 0.930 . S
H344 C326 0.931 . S
H345 C324 0.931 . S
H346 C328 0.931 . S
H347 C329 0.929 . S
H348 C330 0.930 . S
H349 C333 0.930 . S
H350 C334 0.931 . S
H351 C338 0.928 . S
H352 C337 0.929 . S
H353 C335 0.932 . S
H354 C360 0.930 . S
H355 C364 0.930 . S
H356 C369 0.929 . S
H357 C367 0.929 . S
H358 C362 0.929 . S
H359 C368 0.929 . S
C360 H354 0.930 . S
C360 C361 1.367 . S
C360 C368 1.378 . S
C361 C360 1.367 . S
C361 C369 1.433 . S
C362 H358 0.929 . S
C362 C364 1.378 . S
C362 C366 1.350 . S
C363 C366 1.463 . S
C363 C368 1.350 . S
C363 N371 1.427 . S
C364 H355 0.930 . S
C364 C362 1.378 . S
C364 C365 1.367 . S
C365 C364 1.367 . S
C365 C367 1.433 . S
C366 C362 1.350 . S
C366 C363 1.463 . S
C366 N370 1.427 . S
C367 H357 0.929 . S
C367 C365 1.433 . S
C367 N370 1.384 . S
C368 H359 0.929 . S
C368 C360 1.378 . S
C368 C363 1.350 . S
C369 H356 0.929 . S
C369 C361 1.433 . S
C369 N371 1.384 . S
N370 C366 1.427 . S
N370 C367 1.384 . S
N371 C363 1.427 . S
N371 C369 1.384 . S
H372 C378 0.930 . S
H373 C382 0.930 . S
H374 C387 0.929 . S
H375 C385 0.929 . S
H376 C380 0.929 . S
H377 C386 0.929 . S
C378 H372 0.930 . S
C378 C379 1.367 . S
C378 C386 1.378 . S
C379 C378 1.367 . S
C379 C387 1.433 . S
C380 H376 0.929 . S
C380 C382 1.378 . S
C380 C384 1.350 . S
C381 C384 1.463 . S
C381 C386 1.350 . S
C381 N389 1.427 . S
C382 H373 0.930 . S
C382 C380 1.378 . S
C382 C383 1.367 . S
C383 C382 1.367 . S
C383 C385 1.433 . S
C384 C380 1.350 . S
C384 C381 1.463 . S
C384 N388 1.427 . S
C385 H375 0.929 . S
C385 C383 1.433 . S
C385 N388 1.384 . S
C386 H377 0.929 . S
C386 C378 1.378 . S
C386 C381 1.350 . S
C387 H374 0.929 . S
C387 C379 1.433 . S
C387 N389 1.384 . S
N388 C384 1.427 . S
N388 C385 1.384 . S
N389 C381 1.427 . S
N389 C387 1.384 . S
H390 C396 0.930 . S
H391 C400 0.930 . S
H392 C405 0.929 . S
H393 C403 0.929 . S
H394 C398 0.929 . S
H395 C404 0.929 . S
C396 H390 0.930 . S
C396 C397 1.367 . S
C396 C404 1.378 . S
C397 C396 1.367 . S
C397 C405 1.433 . S
C398 H394 0.929 . S
C398 C400 1.378 . S
C398 C402 1.350 . S
C399 C402 1.463 . S
C399 C404 1.350 . S
C399 N407 1.427 . S
C400 H391 0.930 . S
C400 C398 1.378 . S
C400 C401 1.367 . S
C401 C400 1.367 . S
C401 C403 1.433 . S
C402 C398 1.350 . S
C402 C399 1.463 . S
C402 N406 1.427 . S
C403 H393 0.929 . S
C403 C401 1.433 . S
C403 N406 1.384 . S
C404 H395 0.929 . S
C404 C396 1.378 . S
C404 C399 1.350 . S
C405 H392 0.929 . S
C405 C397 1.433 . S
C405 N407 1.384 . S
N406 C402 1.427 . S
N406 C403 1.384 . S
N407 C399 1.427 . S
N407 C405 1.384 . S
H408 C414 0.930 . S
H409 C418 0.930 . S
H410 C423 0.929 . S
H411 C421 0.929 . S
H412 C416 0.929 . S
H413 C422 0.929 . S
C414 H408 0.930 . S
C414 C415 1.367 . S
C414 C422 1.378 . S
C415 C414 1.367 . S
C415 C423 1.433 . S
C416 H412 0.929 . S
C416 C418 1.378 . S
C416 C420 1.350 . S
C417 C420 1.463 . S
C417 C422 1.350 . S
C417 N425 1.427 . S
C418 H409 0.930 . S
C418 C416 1.378 . S
C418 C419 1.367 . S
C419 C418 1.367 . S
C419 C421 1.433 . S
C420 C416 1.350 . S
C420 C417 1.463 . S
C420 N424 1.427 . S
C421 H411 0.929 . S
C421 C419 1.433 . S
C421 N424 1.384 . S
C422 H413 0.929 . S
C422 C414 1.378 . S
C422 C417 1.350 . S
C423 H410 0.929 . S
C423 C415 1.433 . S
C423 N425 1.384 . S
N424 C420 1.427 . S
N424 C421 1.384 . S
N425 C417 1.427 . S
N425 C423 1.384 . S
H426 C432 0.930 . S
H427 C436 0.930 . S
H428 C441 0.929 . S
H429 C439 0.929 . S
H430 C434 0.929 . S
H431 C440 0.929 . S
C432 H426 0.930 . S
C432 C433 1.367 . S
C432 C440 1.378 . S
C433 C432 1.367 . S
C433 C441 1.433 . S
C434 H430 0.929 . S
C434 C436 1.378 . S
C434 C438 1.350 . S
C435 C438 1.463 . S
C435 C440 1.350 . S
C435 N443 1.427 . S
C436 H427 0.930 . S
C436 C434 1.378 . S
C436 C437 1.367 . S
C437 C436 1.367 . S
C437 C439 1.433 . S
C438 C434 1.350 . S
C438 C435 1.463 . S
C438 N442 1.427 . S
C439 H429 0.929 . S
C439 C437 1.433 . S
C439 N442 1.384 . S
C440 H431 0.929 . S
C440 C432 1.378 . S
C440 C435 1.350 . S
C441 H428 0.929 . S
C441 C433 1.433 . S
C441 N443 1.384 . S
N442 C438 1.427 . S
N442 C439 1.384 . S
N443 C435 1.427 . S
N443 C441 1.384 . S
H444 C450 0.930 . S
H445 C454 0.930 . S
H446 C459 0.929 . S
H447 C457 0.929 . S
H448 C452 0.929 . S
H449 C458 0.929 . S
C450 H444 0.930 . S
C450 C451 1.367 . S
C450 C458 1.378 . S
C451 C450 1.367 . S
C451 C459 1.433 . S
C452 H448 0.929 . S
C452 C454 1.378 . S
C452 C456 1.350 . S
C453 C456 1.463 . S
C453 C458 1.350 . S
C453 N461 1.427 . S
C454 H445 0.930 . S
C454 C452 1.378 . S
C454 C455 1.367 . S
C455 C454 1.367 . S
C455 C457 1.433 . S
C456 C452 1.350 . S
C456 C453 1.463 . S
C456 N460 1.427 . S
C457 H447 0.929 . S
C457 C455 1.433 . S
C457 N460 1.384 . S
C458 H449 0.929 . S
C458 C450 1.378 . S
C458 C453 1.350 . S
C459 H446 0.929 . S
C459 C451 1.433 . S
C459 N461 1.384 . S
N460 C456 1.427 . S
N460 C457 1.384 . S
N461 C453 1.427 . S
N461 C459 1.384 . S
H462 C468 0.930 . S
H463 C472 0.930 . S
H464 C477 0.929 . S
H465 C475 0.929 . S
H466 C470 0.929 . S
H467 C476 0.929 . S
C468 H462 0.930 . S
C468 C469 1.367 . S
C468 C476 1.378 . S
C469 C468 1.367 . S
C469 C477 1.433 . S
C470 H466 0.929 . S
C470 C472 1.378 . S
C470 C474 1.350 . S
C471 C474 1.463 . S
C471 C476 1.350 . S
C471 N479 1.427 . S
C472 H463 0.930 . S
C472 C470 1.378 . S
C472 C473 1.367 . S
C473 C472 1.367 . S
C473 C475 1.433 . S
C474 C470 1.350 . S
C474 C471 1.463 . S
C474 N478 1.427 . S
C475 H465 0.929 . S
C475 C473 1.433 . S
C475 N478 1.384 . S
C476 H467 0.929 . S
C476 C468 1.378 . S
C476 C471 1.350 . S
C477 H464 0.929 . S
C477 C469 1.433 . S
C477 N479 1.384 . S
N478 C474 1.427 . S
N478 C475 1.384 . S
N479 C471 1.427 . S
N479 C477 1.384 . S
H480 C486 0.930 . S
H481 C490 0.930 . S
H482 C495 0.929 . S
H483 C493 0.929 . S
H484 C488 0.929 . S
H485 C494 0.929 . S
C486 H480 0.930 . S
C486 C487 1.367 . S
C486 C494 1.378 . S
C487 C486 1.367 . S
C487 C495 1.433 . S
C488 H484 0.929 . S
C488 C490 1.378 . S
C488 C492 1.350 . S
C489 C492 1.463 . S
C489 C494 1.350 . S
C489 N497 1.427 . S
C490 H481 0.930 . S
C490 C488 1.378 . S
C490 C491 1.367 . S
C491 C490 1.367 . S
C491 C493 1.433 . S
C492 C488 1.350 . S
C492 C489 1.463 . S
C492 N496 1.427 . S
C493 H483 0.929 . S
C493 C491 1.433 . S
C493 N496 1.384 . S
C494 H485 0.929 . S
C494 C486 1.378 . S
C494 C489 1.350 . S
C495 H482 0.929 . S
C495 C487 1.433 . S
C495 N497 1.384 . S
N496 C492 1.427 . S
N496 C493 1.384 . S
N497 C489 1.427 . S
N497 C495 1.384 . S
H498 C504 0.930 . S
H499 C508 0.930 . S
H500 C513 0.929 . S
H501 C511 0.929 . S
H502 C506 0.929 . S
H503 C512 0.929 . S
C504 H498 0.930 . S
C504 C505 1.367 . S
C504 C512 1.378 . S
C505 C504 1.367 . S
C505 C513 1.433 . S
C506 H502 0.929 . S
C506 C508 1.378 . S
C506 C510 1.350 . S
C507 C510 1.463 . S
C507 C512 1.350 . S
C507 N515 1.427 . S
C508 H499 0.930 . S
C508 C506 1.378 . S
C508 C509 1.367 . S
C509 C508 1.367 . S
C509 C511 1.433 . S
C510 C506 1.350 . S
C510 C507 1.463 . S
C510 N514 1.427 . S
C511 H501 0.929 . S
C511 C509 1.433 . S
C511 N514 1.384 . S
C512 H503 0.929 . S
C512 C504 1.378 . S
C512 C507 1.350 . S
C513 H500 0.929 . S
C513 C505 1.433 . S
C513 N515 1.384 . S
N514 C510 1.427 . S
N514 C511 1.384 . S
N515 C507 1.427 . S
N515 C513 1.384 . S
H516 C522 0.930 . S
H517 C526 0.930 . S
H518 C531 0.929 . S
H519 C529 0.929 . S
H520 C524 0.929 . S
H521 C530 0.929 . S
C522 H516 0.930 . S
C522 C523 1.367 . S
C522 C530 1.378 . S
C523 C522 1.367 . S
C523 C531 1.433 . S
C524 H520 0.929 . S
C524 C526 1.378 . S
C524 C528 1.350 . S
C525 C528 1.463 . S
C525 C530 1.350 . S
C525 N533 1.427 . S
C526 H517 0.930 . S
C526 C524 1.378 . S
C526 C527 1.367 . S
C527 C526 1.367 . S
C527 C529 1.433 . S
C528 C524 1.350 . S
C528 C525 1.463 . S
C528 N532 1.427 . S
C529 H519 0.929 . S
C529 C527 1.433 . S
C529 N532 1.384 . S
C530 H521 0.929 . S
C530 C522 1.378 . S
C530 C525 1.350 . S
C531 H518 0.929 . S
C531 C523 1.433 . S
C531 N533 1.384 . S
N532 C528 1.427 . S
N532 C529 1.384 . S
N533 C525 1.427 . S
N533 C531 1.384 . S
H534 C540 0.930 . S
H535 C544 0.930 . S
H536 C549 0.929 . S
H537 C547 0.929 . S
H538 C542 0.929 . S
H539 C548 0.929 . S
C540 H534 0.930 . S
C540 C541 1.367 . S
C540 C548 1.378 . S
C541 C540 1.367 . S
C541 C549 1.433 . S
C542 H538 0.929 . S
C542 C544 1.378 . S
C542 C546 1.350 . S
C543 C546 1.463 . S
C543 C548 1.350 . S
C543 N551 1.427 . S
C544 H535 0.930 . S
C544 C542 1.378 . S
C544 C545 1.367 . S
C545 C544 1.367 . S
C545 C547 1.433 . S
C546 C542 1.350 . S
C546 C543 1.463 . S
C546 N550 1.427 . S
C547 H537 0.929 . S
C547 C545 1.433 . S
C547 N550 1.384 . S
C548 H539 0.929 . S
C548 C540 1.378 . S
C548 C543 1.350 . S
C549 H536 0.929 . S
C549 C541 1.433 . S
C549 N551 1.384 . S
N550 C546 1.427 . S
N550 C547 1.384 . S
N551 C543 1.427 . S
N551 C549 1.384 . S
H552 C558 0.930 . S
H553 C562 0.930 . S
H554 C567 0.929 . S
H555 C565 0.929 . S
H556 C560 0.929 . S
H557 C566 0.929 . S
C558 H552 0.930 . S
C558 C559 1.367 . S
C558 C566 1.378 . S
C559 C558 1.367 . S
C559 C567 1.433 . S
C560 H556 0.929 . S
C560 C562 1.378 . S
C560 C564 1.350 . S
C561 C564 1.463 . S
C561 C566 1.350 . S
C561 N569 1.427 . S
C562 H553 0.930 . S
C562 C560 1.378 . S
C562 C563 1.367 . S
C563 C562 1.367 . S
C563 C565 1.433 . S
C564 C560 1.350 . S
C564 C561 1.463 . S
C564 N568 1.427 . S
C565 H555 0.929 . S
C565 C563 1.433 . S
C565 N568 1.384 . S
C566 H557 0.929 . S
C566 C558 1.378 . S
C566 C561 1.350 . S
C567 H554 0.929 . S
C567 C559 1.433 . S
C567 N569 1.384 . S
N568 C564 1.427 . S
N568 C565 1.384 . S
N569 C561 1.427 . S
N569 C567 1.384 . S
H570 C576 0.930 . S
H571 C580 0.930 1_556 S
H572 C585 0.929 . S
H573 C583 0.929 . S
H574 C578 0.929 . S
H575 C584 0.929 . S
C576 H570 0.930 . S
C576 C577 1.367 . S
C576 C584 1.378 . S
C577 C576 1.367 . S
C577 C585 1.433 1_455 S
C578 H574 0.929 . S
C578 C580 1.378 . S
C578 C582 1.350 1_655 S
C579 C582 1.463 . S
C579 C584 1.350 . S
C579 N587 1.427 1_455 S
C580 H571 0.930 1_554 S
C580 C578 1.378 . S
C580 C581 1.367 1_654 S
C581 C580 1.367 1_456 S
C581 C583 1.433 1_556 S
C582 C578 1.350 1_455 S
C582 C579 1.463 . S
C582 N586 1.427 . S
C583 H573 0.929 . S
C583 C581 1.433 1_554 S
C583 N586 1.384 . S
C584 H575 0.929 . S
C584 C576 1.378 . S
C584 C579 1.350 . S
C585 H572 0.929 . S
C585 C577 1.433 1_655 S
C585 N587 1.384 . S
N586 C582 1.427 . S
N586 C583 1.384 . S
N587 C579 1.427 1_655 S
N587 C585 1.384 . S
H588 C594 0.930 . S
H589 C598 0.930 1_565 S
H590 C603 0.929 . S
H591 C601 0.929 . S
H592 C596 0.929 1_565 S
H593 C602 0.929 . S
C594 H588 0.930 . S
C594 C595 1.367 . S
C594 C602 1.378 . S
C595 C594 1.367 . S
C595 C603 1.433 1_545 S
C596 H592 0.929 1_545 S
C596 C598 1.378 . S
C596 C600 1.350 . S
C597 C600 1.463 . S
C597 C602 1.350 . S
C597 N605 1.427 1_545 S
C598 H589 0.930 1_545 S
C598 C596 1.378 . S
C598 C599 1.367 . S
C599 C598 1.367 . S
C599 C601 1.433 . S
C600 C596 1.350 . S
C600 C597 1.463 . S
C600 N604 1.427 . S
C601 H591 0.929 . S
C601 C599 1.433 . S
C601 N604 1.384 . S
C602 H593 0.929 . S
C602 C594 1.378 . S
C602 C597 1.350 . S
C603 H590 0.929 . S
C603 C595 1.433 1_565 S
C603 N605 1.384 . S
N604 C600 1.427 . S
N604 C601 1.384 . S
N605 C597 1.427 1_565 S
N605 C603 1.384 . S
H606 C612 0.930 . S
H607 C616 0.930 . S
H608 C621 0.929 . S
H609 C619 0.929 . S
H610 C614 0.929 . S
H611 C620 0.929 . S
C612 H606 0.930 . S
C612 C613 1.367 . S
C612 C620 1.378 . S
C613 C612 1.367 . S
C613 C621 1.433 . S
C614 H610 0.929 . S
C614 C616 1.378 . S
C614 C618 1.350 . S
C615 C618 1.463 . S
C615 C620 1.350 . S
C615 N623 1.427 . S
C616 H607 0.930 . S
C616 C614 1.378 . S
C616 C617 1.367 . S
C617 C616 1.367 . S
C617 C619 1.433 . S
C618 C614 1.350 . S
C618 C615 1.463 . S
C618 N622 1.427 . S
C619 H609 0.929 . S
C619 C617 1.433 . S
C619 N622 1.384 . S
C620 H611 0.929 . S
C620 C612 1.378 . S
C620 C615 1.350 . S
C621 H608 0.929 . S
C621 C613 1.433 . S
C621 N623 1.384 . S
N622 C618 1.427 . S
N622 C619 1.384 . S
N623 C615 1.427 . S
N623 C621 1.384 . S
H624 C630 0.930 . S
H625 C634 0.930 . S
H626 C639 0.929 . S
H627 C637 0.929 . S
H628 C632 0.929 . S
H629 C638 0.929 . S
C630 H624 0.930 . S
C630 C631 1.367 1_565 S
C630 C638 1.378 . S
C631 C630 1.367 1_545 S
C631 C639 1.433 . S
C632 H628 0.929 . S
C632 C634 1.378 . S
C632 C636 1.350 . S
C633 C636 1.463 . S
C633 C638 1.350 1_545 S
C633 N641 1.427 . S
C634 H625 0.930 . S
C634 C632 1.378 . S
C634 C635 1.367 . S
C635 C634 1.367 . S
C635 C637 1.433 1_545 S
C636 C632 1.350 . S
C636 C633 1.463 . S
C636 N640 1.427 1_545 S
C637 H627 0.929 . S
C637 C635 1.433 1_565 S
C637 N640 1.384 . S
C638 H629 0.929 . S
C638 C630 1.378 . S
C638 C633 1.350 1_565 S
C639 H626 0.929 . S
C639 C631 1.433 . S
C639 N641 1.384 . S
N640 C636 1.427 1_565 S
N640 C637 1.384 . S
N641 C633 1.427 . S
N641 C639 1.384 . S
H642 C648 0.930 . S
H643 C652 0.945 . S
H644 C657 0.929 . S
H645 C655 0.929 1_554 S
H646 C650 0.929 . S
H647 C656 0.929 . S
C648 H642 0.930 . S
C648 C649 1.367 . S
C648 C656 1.378 . S
C649 C648 1.367 . S
C649 C657 1.433 . S
C650 H646 0.929 . S
C650 C652 1.378 . S
C650 C654 1.350 . S
C651 C654 1.463 . S
C651 C656 1.350 . S
C651 N659 1.427 . S
C652 H643 0.945 . S
C652 C650 1.378 . S
C652 C653 1.367 1_556 S
C653 C652 1.367 1_554 S
C653 C655 1.433 1_554 S
C654 C650 1.350 . S
C654 C651 1.463 . S
C654 N658 1.427 . S
C655 H645 0.929 1_556 S
C655 C653 1.433 1_556 S
C655 N658 1.384 . S
C656 H647 0.929 . S
C656 C648 1.378 . S
C656 C651 1.350 . S
C657 H644 0.929 . S
C657 C649 1.433 . S
C657 N659 1.384 . S
N658 C654 1.427 . S
N658 C655 1.384 . S
N659 C651 1.427 . S
N659 C657 1.384 . S
H660 C666 0.930 . S
H661 C670 0.930 . S
H662 C675 0.929 . S
H663 C673 0.929 . S
H664 C668 0.929 . S
H665 C674 0.929 . S
C666 H660 0.930 . S
C666 C667 1.367 . S
C666 C674 1.378 . S
C667 C666 1.367 . S
C667 C675 1.433 1_455 S
C668 H664 0.929 . S
C668 C670 1.378 . S
C668 C672 1.345 1_655 S
C669 C672 1.463 . S
C669 C674 1.350 . S
C669 N677 1.427 1_455 S
C670 H661 0.930 . S
C670 C668 1.378 . S
C670 C671 1.367 . S
C671 C670 1.367 . S
C671 C673 1.433 1_655 S
C672 C668 1.345 1_455 S
C672 C669 1.463 . S
C672 N676 1.431 . S
C673 H663 0.929 . S
C673 C671 1.433 1_455 S
C673 N676 1.384 . S
C674 H665 0.929 . S
C674 C666 1.378 . S
C674 C669 1.350 . S
C675 H662 0.929 . S
C675 C667 1.433 1_655 S
C675 N677 1.384 . S
N676 C672 1.431 . S
N676 C673 1.384 . S
N677 C669 1.427 1_655 S
N677 C675 1.384 . S
C361 C19 1.939 . S
C365 C331 1.895 . S
C379 C46 1.233 . S
C383 C258 1.237 . S
C397 C95 0.427 . S
C401 C297 0.341 . S
C415 C10 2.033 . S
C419 C336 1.983 . S
C437 C253 1.298 . S
C433 C55 1.300 . S
C455 C292 0.539 . S
C451 C86 0.555 . S
C469 C59 3.118 . S
C473 C180 3.067 . S
C487 C90 2.065 . S
C491 C214 2.027 . S
C505 C15 1.278 . S
C509 C136 1.301 . S
C527 C175 2.975 . S
C523 C50 3.015 . S
C545 C219 1.890 . S
C541 C99 1.918 . S
C559 C6 1.220 . S
C563 C141 1.218 . S
C581 C199 1.377 . S
C577 C9 1.336 . S
C595 C58 1.458 . S
C599 C121 1.507 . S
C613 C98 1.700 . S
C617 C160 1.774 . S
C635 C277 1.092 . S
C631 C49 1.070 . S
C653 C316 1.369 . S
C649 C89 1.325 . S
C667 C18 1.446 . S
C671 C238 1.488 . S
