# Generated by pormake.
# Topology wbl, (4,4)-cn, num edge types: 1
# Building blocks:
#     Node 0, Type 0, BuildingBlock: NAWXER_clean_linker_0, # of connection points: 4
#     Node 1, Type 0, BuildingBlock: NAWXER_clean_linker_0, # of connection points: 4
#     Node 2, Type 0, BuildingBlock: NAWXER_clean_linker_0, # of connection points: 4
#     Node 3, Type 0, BuildingBlock: NAWXER_clean_linker_0, # of connection points: 4
#     Node 4, Type 0, BuildingBlock: NAWXER_clean_linker_0, # of connection points: 4
#     Node 5, Type 0, BuildingBlock: NAWXER_clean_linker_0, # of connection points: 4
#     Node 6, Type 0, BuildingBlock: NAWXER_clean_linker_0, # of connection points: 4
#     Node 7, Type 0, BuildingBlock: NAWXER_clean_linker_0, # of connection points: 4
#     Node 8, Type 1, BuildingBlock: CEKHIL_clean_sbu_0, # of connection points: 4
#     Node 9, Type 1, BuildingBlock: CEKHIL_clean_sbu_0, # of connection points: 4
#     Node 10, Type 1, BuildingBlock: CEKHIL_clean_sbu_0, # of connection points: 4
#     Node 11, Type 1, BuildingBlock: CEKHIL_clean_sbu_0, # of connection points: 4
#     Node 12, Type 1, BuildingBlock: CEKHIL_clean_sbu_0, # of connection points: 4
#     Node 13, Type 1, BuildingBlock: CEKHIL_clean_sbu_0, # of connection points: 4
#     Node 14, Type 1, BuildingBlock: CEKHIL_clean_sbu_0, # of connection points: 4
#     Node 15, Type 1, BuildingBlock: CEKHIL_clean_sbu_0, # of connection points: 4
#     Edge 16, Type (0, 1), BuildingBlock: EZIPEK_clean_linker_0, # of connection points: 2
#     Edge 17, Type (0, 1), BuildingBlock: EZIPEK_clean_linker_0, # of connection points: 2
#     Edge 18, Type (0, 1), BuildingBlock: EZIPEK_clean_linker_0, # of connection points: 2
#     Edge 19, Type (0, 1), BuildingBlock: EZIPEK_clean_linker_0, # of connection points: 2
#     Edge 20, Type (0, 1), BuildingBlock: EZIPEK_clean_linker_0, # of connection points: 2
#     Edge 21, Type (0, 1), BuildingBlock: EZIPEK_clean_linker_0, # of connection points: 2
#     Edge 22, Type (0, 1), BuildingBlock: EZIPEK_clean_linker_0, # of connection points: 2
#     Edge 23, Type (0, 1), BuildingBlock: EZIPEK_clean_linker_0, # of connection points: 2
#     Edge 24, Type (0, 1), BuildingBlock: EZIPEK_clean_linker_0, # of connection points: 2
#     Edge 25, Type (0, 1), BuildingBlock: EZIPEK_clean_linker_0, # of connection points: 2
#     Edge 26, Type (0, 1), BuildingBlock: EZIPEK_clean_linker_0, # of connection points: 2
#     Edge 27, Type (0, 1), BuildingBlock: EZIPEK_clean_linker_0, # of connection points: 2
#     Edge 28, Type (0, 1), BuildingBlock: EZIPEK_clean_linker_0, # of connection points: 2
#     Edge 29, Type (0, 1), BuildingBlock: EZIPEK_clean_linker_0, # of connection points: 2
#     Edge 30, Type (0, 1), BuildingBlock: EZIPEK_clean_linker_0, # of connection points: 2
#     Edge 31, Type (0, 1), BuildingBlock: EZIPEK_clean_linker_0, # of connection points: 2
#     Edge 32, Type (0, 1), BuildingBlock: EZIPEK_clean_linker_0, # of connection points: 2
#     Edge 33, Type (0, 1), BuildingBlock: EZIPEK_clean_linker_0, # of connection points: 2
#     Edge 34, Type (0, 1), BuildingBlock: EZIPEK_clean_linker_0, # of connection points: 2
#     Edge 35, Type (0, 1), BuildingBlock: EZIPEK_clean_linker_0, # of connection points: 2
#     Edge 36, Type (0, 1), BuildingBlock: EZIPEK_clean_linker_0, # of connection points: 2
#     Edge 37, Type (0, 1), BuildingBlock: EZIPEK_clean_linker_0, # of connection points: 2
#     Edge 38, Type (0, 1), BuildingBlock: EZIPEK_clean_linker_0, # of connection points: 2
#     Edge 39, Type (0, 1), BuildingBlock: EZIPEK_clean_linker_0, # of connection points: 2
#     Edge 40, Type (0, 1), BuildingBlock: EZIPEK_clean_linker_0, # of connection points: 2
#     Edge 41, Type (0, 1), BuildingBlock: EZIPEK_clean_linker_0, # of connection points: 2
#     Edge 42, Type (0, 1), BuildingBlock: EZIPEK_clean_linker_0, # of connection points: 2
#     Edge 43, Type (0, 1), BuildingBlock: EZIPEK_clean_linker_0, # of connection points: 2
#     Edge 44, Type (0, 1), BuildingBlock: EZIPEK_clean_linker_0, # of connection points: 2
#     Edge 45, Type (0, 1), BuildingBlock: EZIPEK_clean_linker_0, # of connection points: 2
#     Edge 46, Type (0, 1), BuildingBlock: EZIPEK_clean_linker_0, # of connection points: 2
#     Edge 47, Type (0, 1), BuildingBlock: EZIPEK_clean_linker_0, # of connection points: 2
# Relax obj value: 0.169
# Max RMSD: 0.173
# Mean RMSD: 0.146
data_MOF--net-wbl--node1-CEKHIL_clean_sbu_0--node2-NAWXER_clean_linker_0--edge1-EZIPEK_clean_linker_0
_symmetry_space_group_name_H-M    P1
_symmetry_Int_Tables_number       1
_symmetry_cell_setting            triclinic
loop_
_symmetry_equiv_pos_as_xyz
'x, y, z'
_cell_length_a     34.774143
_cell_length_b     34.962603
_cell_length_c     60.827795
_cell_angle_alpha  90.284665
_cell_angle_beta   90.130266
_cell_angle_gamma 90.008637
loop_
_atom_site_label
_atom_site_type_symbol
_atom_site_fract_x
_atom_site_fract_y
_atom_site_fract_z
_atom_type_partial_charge
C0 C 0.11497 0.92805 0.37411 0.0
C1 C 0.13378 0.94343 0.39254 0.0
C2 C 0.0982 0.95226 0.35861 0.0
C3 C 0.10046 0.99223 0.36117 0.0
C4 C 0.1371 0.98322 0.39484 0.0
C5 C 0.12039 0.00746 0.37931 0.0
C6 C 0.07809 0.01792 0.34665 0.0
C7 C 0.16896 0.96624 0.3055 0.0
C8 C 0.15491 0.93688 0.29191 0.0
C9 C 0.14366 0.99193 0.31538 0.0
C10 C 0.10393 0.98864 0.31178 0.0
C11 C 0.11522 0.93378 0.28803 0.0
C12 C 0.08986 0.95989 0.29772 0.0
C13 C 0.0772 0.01413 0.32356 0.0
C14 C 0.95704 0.13545 0.30115 0.0
C15 C 0.93196 0.11243 0.28874 0.0
C16 C 0.99031 0.11962 0.31036 0.0
C17 C 0.99817 0.08036 0.30777 0.0
C18 C 0.94207 0.0744 0.28414 0.0
C19 C 0.97501 0.05848 0.29356 0.0
C20 C 0.02724 0.06072 0.32158 0.0
C21 C 0.93683 0.10678 0.36781 0.0
C22 C 0.95118 0.13061 0.38456 0.0
C23 C 0.96203 0.08527 0.35489 0.0
C24 C 0.00196 0.08915 0.35752 0.0
C25 C 0.9911 0.13402 0.38746 0.0
C26 C 0.01629 0.11359 0.37397 0.0
C27 C 0.02889 0.06516 0.34474 0.0
H28 H 0.11178 0.89737 0.37228 0.0
H29 H 0.08186 0.93967 0.34524 0.0
H30 H 0.15128 0.99547 0.4091 0.0
H31 H 0.1221 0.03813 0.38178 0.0
H32 H 0.19954 0.96904 0.30858 0.0
H33 H 0.15506 0.01416 0.32602 0.0
H34 H 0.10403 0.91121 0.27756 0.0
H35 H 0.05924 0.95695 0.29483 0.0
H36 H 0.94959 0.16486 0.30486 0.0
H37 H 0.00838 0.13736 0.32075 0.0
H38 H 0.92293 0.05626 0.27464 0.0
H39 H 0.98071 0.0283 0.29109 0.0
H40 H 0.90611 0.10351 0.36549 0.0
H41 H 0.95039 0.06497 0.34316 0.0
H42 H 0.00273 0.15205 0.40039 0.0
H43 H 0.04699 0.11639 0.3766 0.0
N44 N 0.05426 0.04365 0.35629 0.0
N45 N 0.05152 0.03523 0.31186 0.0
C46 C 0.88488 0.48115 0.62405 0.0
C47 C 0.89737 0.46281 0.64326 0.0
C48 C 0.91169 0.49811 0.61 0.0
C49 C 0.95109 0.49716 0.6152 0.0
C50 C 0.9367 0.46149 0.64826 0.0
C51 C 0.96332 0.47884 0.63444 0.0
C52 C 0.97972 0.517 0.60148 0.0
C53 C 0.94214 0.41465 0.56365 0.0
C54 C 0.931 0.41998 0.54171 0.0
C55 C 0.95917 0.44428 0.57549 0.0
C56 C 0.9633 0.48082 0.56619 0.0
C57 C 0.9359 0.45604 0.53204 0.0
C58 C 0.95158 0.48634 0.54428 0.0
C59 C 0.98314 0.51196 0.57849 0.0
C60 C 0.11846 0.61647 0.55908 0.0
C61 C 0.10161 0.64029 0.54329 0.0
C62 C 0.09643 0.58845 0.56942 0.0
C63 C 0.05713 0.58466 0.56441 0.0
C64 C 0.06332 0.63427 0.53689 0.0
C65 C 0.04121 0.6065 0.54737 0.0
C66 C 0.03164 0.56041 0.57781 0.0
C67 C 0.0778 0.65138 0.62569 0.0
C68 C 0.09553 0.63516 0.64421 0.0
C69 C 0.05707 0.62815 0.61101 0.0
C70 C 0.05479 0.58846 0.61446 0.0
C71 C 0.0941 0.5955 0.64723 0.0
C72 C 0.07387 0.57239 0.63254 0.0
C73 C 0.02982 0.56342 0.60095 0.0
H74 H 0.85452 0.48276 0.62017 0.0
H75 H 0.90166 0.51268 0.5954 0.0
H76 H 0.94666 0.44775 0.66315 0.0
H77 H 0.99355 0.478 0.63879 0.0
H78 H 0.93932 0.38686 0.57129 0.0
H79 H 0.97024 0.4379 0.59168 0.0
H80 H 0.9281 0.46054 0.515 0.0
H81 H 0.95519 0.5139 0.53649 0.0
H82 H 0.14804 0.62083 0.56412 0.0
H83 H 0.10958 0.57108 0.58207 0.0
H84 H 0.04998 0.65256 0.52474 0.0
H85 H 0.01107 0.60369 0.54309 0.0
H86 H 0.07861 0.68202 0.62317 0.0
H87 H 0.04185 0.64128 0.59745 0.0
H88 H 0.10765 0.58254 0.66143 0.0
H89 H 0.07234 0.54191 0.63558 0.0
N90 N 0.00372 0.54183 0.61177 0.0
N91 N 0.00839 0.53463 0.56746 0.0
C92 C 0.57174 0.39061 0.87182 0.0
C93 C 0.59262 0.40714 0.88918 0.0
C94 C 0.54919 0.41352 0.85814 0.0
C95 C 0.54793 0.45337 0.86131 0.0
C96 C 0.59207 0.44695 0.8921 0.0
C97 C 0.56979 0.46989 0.8783 0.0
C98 C 0.52134 0.4775 0.84833 0.0
C99 C 0.61732 0.45572 0.8021 0.0
C100 C 0.61254 0.41841 0.79398 0.0
C101 C 0.58643 0.47514 0.81141 0.0
C102 C 0.55021 0.45777 0.81243 0.0
C103 C 0.57594 0.40139 0.79429 0.0
C104 C 0.54467 0.42133 0.80319 0.0
C105 C 0.51986 0.47674 0.82519 0.0
C106 C 0.42221 0.61069 0.80215 0.0
C107 C 0.38756 0.59503 0.7943 0.0
C108 C 0.44975 0.58709 0.81191 0.0
C109 C 0.44346 0.54753 0.81318 0.0
C110 C 0.38226 0.55521 0.79469 0.0
C111 C 0.41034 0.53154 0.80377 0.0
C112 C 0.46986 0.52314 0.82574 0.0
C113 C 0.38699 0.5749 0.87573 0.0
C114 C 0.40532 0.59275 0.89362 0.0
C115 C 0.40853 0.55359 0.86058 0.0
C116 C 0.44878 0.55104 0.86273 0.0
C117 C 0.44549 0.59142 0.89529 0.0
C118 C 0.46699 0.5708 0.88 0.0
C119 C 0.47212 0.52488 0.84891 0.0
H120 H 0.57151 0.35986 0.86954 0.0
H121 H 0.5314 0.39986 0.84579 0.0
H122 H 0.60787 0.4601 0.90553 0.0
H123 H 0.56901 0.50049 0.88118 0.0
H124 H 0.64537 0.46922 0.80199 0.0
H125 H 0.59107 0.50327 0.8185 0.0
H126 H 0.5719 0.37252 0.78818 0.0
H127 H 0.51678 0.40761 0.80395 0.0
H128 H 0.42698 0.6413 0.80171 0.0
H129 H 0.47542 0.59974 0.81899 0.0
H130 H 0.35586 0.54259 0.78854 0.0
H131 H 0.40524 0.50101 0.80458 0.0
H132 H 0.35595 0.57558 0.87427 0.0
H133 H 0.39344 0.53759 0.848 0.0
H134 H 0.46011 0.60512 0.90897 0.0
H135 H 0.49792 0.56926 0.88208 0.0
N136 N 0.49776 0.50186 0.85929 0.0
N137 N 0.49412 0.49947 0.81462 0.0
C138 C 0.49146 0.88199 0.04117 0.0
C139 C 0.45121 0.88238 0.03979 0.0
C140 C 0.51123 0.91431 0.04855 0.0
C141 C 0.49096 0.94731 0.05467 0.0
C142 C 0.43104 0.9162 0.04447 0.0
C143 C 0.45091 0.94864 0.05182 0.0
C144 C 0.51127 0.97723 0.06721 0.0
C145 C 0.4184 0.9496 0.11979 0.0
C146 C 0.43244 0.92018 0.13319 0.0
C147 C 0.4428 0.96751 0.10481 0.0
C148 C 0.4812 0.95574 0.10287 0.0
C149 C 0.47031 0.90721 0.13051 0.0
C150 C 0.49465 0.92504 0.11546 0.0
C151 C 0.50854 0.97891 0.09021 0.0
C152 C 0.61996 0.1046 0.11708 0.0
C153 C 0.63207 0.0871 0.13667 0.0
C154 C 0.59572 0.08505 0.10241 0.0
C155 C 0.58559 0.04667 0.10627 0.0
C156 C 0.62106 0.04923 0.14078 0.0
C157 C 0.59859 0.02915 0.12566 0.0
C158 C 0.55943 0.02451 0.09158 0.0
C159 C 0.6483 0.0792 0.04894 0.0
C160 C 0.63037 0.10773 0.03639 0.0
C161 C 0.62622 0.05024 0.0585 0.0
C162 C 0.5861 0.0498 0.05559 0.0
C163 C 0.59079 0.1055 0.03219 0.0
C164 C 0.56883 0.07659 0.04163 0.0
C165 C 0.56117 0.024 0.06827 0.0
H166 H 0.50733 0.856 0.0377 0.0
H167 H 0.54211 0.91276 0.0508 0.0
H168 H 0.39994 0.91682 0.04353 0.0
H169 H 0.4349 0.97403 0.05634 0.0
H170 H 0.38933 0.96012 0.12185 0.0
H171 H 0.43227 0.99179 0.09559 0.0
H172 H 0.48158 0.88471 0.14087 0.0
H173 H 0.52438 0.91601 0.11433 0.0
H174 H 0.6281 0.13384 0.11358 0.0
H175 H 0.58451 0.10029 0.08837 0.0
H176 H 0.62994 0.03509 0.15577 0.0
H177 H 0.59101 -0.0002 0.12931 0.0
H178 H 0.67891 0.08049 0.0522 0.0
H179 H 0.64006 0.02941 0.069 0.0
H180 H 0.57663 0.12719 0.02241 0.0
H181 H 0.53799 0.07648 0.03906 0.0
N182 N 0.53733 -5e-05 0.05696 0.0
N183 N 0.53293 0.00194 0.1015 0.0
C184 C 0.075 0.65249 0.88798 0.0
C185 C 0.09142 0.63736 0.86878 0.0
C186 C 0.05314 0.62906 0.90171 0.0
C187 C 0.04792 0.59011 0.89654 0.0
C188 C 0.08689 0.59843 0.86382 0.0
C189 C 0.06519 0.57503 0.87755 0.0
C190 C 0.022 0.56565 0.90969 0.0
C191 C 0.12167 0.5921 0.95226 0.0
C192 C 0.11355 0.6195 0.96849 0.0
C193 C 0.09187 0.57387 0.94104 0.0
C194 C 0.05342 0.58284 0.9458 0.0
C195 C 0.07513 0.62811 0.97361 0.0
C196 C 0.04515 0.60952 0.96245 0.0
C197 C 0.02233 0.56473 0.9329 0.0
C198 C 0.91759 0.45608 0.97154 0.0
C199 C 0.87923 0.46076 0.96484 0.0
C200 C 0.94675 0.47745 0.96159 0.0
C201 C 0.93777 0.50302 0.94461 0.0
C202 C 0.87014 0.48756 0.94861 0.0
C203 C 0.89919 0.50857 0.93857 0.0
C204 C 0.96851 0.52258 0.93234 0.0
C205 C 0.91734 0.47936 0.86055 0.0
C206 C 0.91772 0.44022 0.86542 0.0
C207 C 0.93243 0.50581 0.8755 0.0
C208 C 0.9479 0.49355 0.8956 0.0
C209 C 0.93128 0.42793 0.88592 0.0
C210 C 0.94644 0.45443 0.90091 0.0
C211 C 0.97059 0.5207 0.90918 0.0
H212 H 0.07808 0.68258 0.89191 0.0
H213 H 0.03928 0.6417 0.91591 0.0
H214 H 0.09935 0.58642 0.84901 0.0
H215 H 0.06143 0.54519 0.87315 0.0
H216 H 0.15116 0.58507 0.94818 0.0
H217 H 0.09884 0.55294 0.92847 0.0
H218 H 0.06849 0.64923 0.98612 0.0
H219 H 0.01564 0.61667 0.96637 0.0
H220 H 0.92493 0.43538 0.98406 0.0
H221 H 0.97636 0.47289 0.96648 0.0
H222 H 0.84063 0.49145 0.94332 0.0
H223 H 0.89163 0.52859 0.92572 0.0
H224 H 0.90731 0.48918 0.84467 0.0
H225 H 0.93353 0.53572 0.87096 0.0
H226 H 0.93226 0.39772 0.88975 0.0
H227 H 0.95919 0.44398 0.91598 0.0
N228 N 0.99669 0.54295 0.89876 0.0
N229 N 0.99502 0.54387 0.94348 0.0
C230 C 0.39802 0.5536 0.13396 0.0
C231 C 0.41152 0.58693 0.12376 0.0
C232 C 0.42186 0.53327 0.14822 0.0
C233 C 0.45897 0.54666 0.15298 0.0
C234 C 0.44805 0.60121 0.12928 0.0
C235 C 0.47165 0.58117 0.14387 0.0
C236 C 0.48602 0.52203 0.16497 0.0
C237 C 0.48294 0.61543 0.2202 0.0
C238 C 0.44334 0.62246 0.21878 0.0
C239 C 0.4983 0.58176 0.21152 0.0
C240 C 0.47423 0.55496 0.20117 0.0
C241 C 0.41884 0.59434 0.21008 0.0
C242 C 0.43422 0.56053 0.20147 0.0
C243 C 0.49178 0.52428 0.18785 0.0
C244 C 0.62662 0.41612 0.2001 0.0
C245 C 0.61067 0.39119 0.21561 0.0
C246 C 0.60407 0.44513 0.19099 0.0
C247 C 0.5653 0.44903 0.19712 0.0
C248 C 0.5729 0.39695 0.22291 0.0
C249 C 0.55042 0.42584 0.21381 0.0
C250 C 0.53909 0.47507 0.18536 0.0
C251 C 0.57797 0.38687 0.13411 0.0
C252 C 0.5945 0.40417 0.11559 0.0
C253 C 0.55879 0.4093 0.1498 0.0
C254 C 0.55672 0.44923 0.1473 0.0
C255 C 0.59307 0.44401 0.11341 0.0
C256 C 0.57428 0.4663 0.12907 0.0
C257 C 0.53398 0.47372 0.16231 0.0
H258 H 0.36995 0.54217 0.12984 0.0
H259 H 0.41189 0.50641 0.15495 0.0
H260 H 0.45893 0.62682 0.1215 0.0
H261 H 0.50041 0.59161 0.14725 0.0
H262 H 0.50217 0.63704 0.22679 0.0
H263 H 0.52922 0.57791 0.21152 0.0
H264 H 0.38819 0.59947 0.20887 0.0
H265 H 0.41508 0.53965 0.19412 0.0
H266 H 0.65575 0.41189 0.1943 0.0
H267 H 0.61634 0.46336 0.17848 0.0
H268 H 0.56025 0.3778 0.23483 0.0
H269 H 0.5207 0.42864 0.21889 0.0
H270 H 0.57874 0.35609 0.13595 0.0
H271 H 0.54473 0.39542 0.16348 0.0
H272 H 0.60566 0.45777 0.09922 0.0
H273 H 0.57291 0.49699 0.12676 0.0
N274 N 0.50755 0.49724 0.15305 0.0
N275 N 0.51803 0.50059 0.19729 0.0
C276 C 0.45208 0.90798 0.38573 0.0
C277 C 0.43959 0.9241 0.36585 0.0
C278 C 0.47157 0.93053 0.40125 0.0
C279 C 0.47756 0.9698 0.39743 0.0
C280 C 0.44417 0.96345 0.36245 0.0
C281 C 0.46287 0.98606 0.37808 0.0
C282 C 0.50284 0.99333 0.41185 0.0
C283 C 0.40608 0.95816 0.45407 0.0
C284 C 0.41575 0.93307 0.47107 0.0
C285 C 0.43472 0.97722 0.44258 0.0
C286 C 0.47362 0.97097 0.44764 0.0
C287 C 0.45448 0.92749 0.47671 0.0
C288 C 0.48335 0.94654 0.46506 0.0
C289 C 0.50369 0.99103 0.43508 0.0
C290 C 0.61178 0.11713 0.46055 0.0
C291 C 0.64546 0.09842 0.46733 0.0
C292 C 0.58168 0.09618 0.45116 0.0
C293 C 0.5847 0.05633 0.44891 0.0
C294 C 0.64757 0.05837 0.4661 0.0
C295 C 0.61721 0.0374 0.45704 0.0
C296 C 0.55605 0.03495 0.436 0.0
C297 C 0.63714 0.07563 0.38006 0.0
C298 C 0.61933 0.10542 0.36845 0.0
C299 C 0.61663 0.05555 0.39607 0.0
C300 C 0.57815 0.06498 0.40041 0.0
C301 C 0.58181 0.11654 0.37403 0.0
C302 C 0.56123 0.09617 0.38974 0.0
C303 C 0.55356 0.03898 0.41309 0.0
H304 H 0.44873 0.87761 0.38861 0.0
H305 H 0.48346 0.91681 0.41565 0.0
H306 H 0.43455 0.97642 0.34726 0.0
H307 H 0.46702 0.01617 0.37467 0.0
H308 H 0.37623 0.96307 0.44976 0.0
H309 H 0.42643 0.99692 0.42972 0.0
H310 H 0.46223 0.90839 0.48997 0.0
H311 H 0.5132 0.94182 0.46941 0.0
H312 H 0.60975 0.14801 0.46142 0.0
H313 H 0.55669 0.11113 0.4449 0.0
H314 H 0.67338 0.04355 0.47128 0.0
H315 H 0.61995 0.00666 0.45531 0.0
H316 H 0.66602 0.06662 0.37587 0.0
H317 H 0.62992 0.03124 0.40403 0.0
H318 H 0.56766 0.13942 0.36519 0.0
H319 H 0.53146 0.10358 0.39282 0.0
N320 N 0.52746 0.01778 0.40186 0.0
N321 N 0.53084 0.01137 0.44633 0.0
C322 C 0.1183 0.97861 0.61894 0.0
C323 C 0.11535 0.93887 0.62116 0.0
C324 C 0.09874 0.00283 0.63329 0.0
C325 C 0.07606 0.98776 0.6502 0.0
C326 C 0.09454 0.92354 0.63881 0.0
C327 C 0.07465 0.9479 0.65317 0.0
C328 C 0.05037 0.01394 0.66238 0.0
C329 C 0.07291 0.93454 0.72291 0.0
C330 C 0.11296 0.93267 0.72047 0.0
C331 C 0.05203 0.96357 0.71271 0.0
C332 C 0.07096 0.99056 0.69965 0.0
C333 C 0.13225 0.96142 0.70887 0.0
C334 C 0.11129 0.99015 0.69837 0.0
C335 C 0.0482 0.01603 0.68549 0.0
C336 C 0.91827 0.13145 0.69584 0.0
C337 C 0.93685 0.15838 0.70932 0.0
C338 C 0.9383 0.09937 0.68828 0.0
C339 C 0.97723 0.09432 0.69387 0.0
C340 C 0.97461 0.15164 0.71642 0.0
C341 C 0.99466 0.11969 0.70879 0.0
C342 C 0.00112 0.06539 0.68262 0.0
C343 C 0.96699 0.14887 0.62781 0.0
C344 C 0.94669 0.13053 0.61079 0.0
C345 C 0.9842 0.12718 0.64446 0.0
C346 C 0.9808 0.0871 0.64429 0.0
C347 C 0.94211 0.09074 0.61115 0.0
C348 C 0.95918 0.06919 0.6277 0.0
C349 C 0.00324 0.063 0.65948 0.0
H350 H 0.13427 0.99086 0.60541 0.0
H351 H 0.10012 0.03344 0.63066 0.0
H352 H 0.09194 0.89285 0.64066 0.0
H353 H 0.05667 0.93556 0.66579 0.0
H354 H 0.05771 0.91253 0.73187 0.0
H355 H 0.02094 0.96352 0.71384 0.0
H356 H 0.16318 0.96029 0.70689 0.0
H357 H 0.12634 0.01097 0.68845 0.0
H358 H 0.88905 0.13631 0.69031 0.0
H359 H 0.92404 0.0796 0.67718 0.0
H360 H 0.98923 0.17226 0.72684 0.0
H361 H 0.02455 0.11615 0.71342 0.0
H362 H 0.97092 0.1796 0.62764 0.0
H363 H 0.00143 0.14147 0.65687 0.0
H364 H 0.92663 0.07621 0.59807 0.0
H365 H 0.95648 0.03831 0.62719 0.0
N366 N 0.02774 0.03742 0.65033 0.0
N367 N 0.02371 0.04174 0.69485 0.0
Co368 Co 0.31763 0.67874 0.01587 0.0
O369 O 0.27734 0.6423 0.01059 0.0
O370 O 0.27195 0.70505 0.00597 0.0
C371 C 0.33657 0.65451 0.04846 0.0
O372 O 0.3524 0.72504 0.02056 0.0
Co373 Co 0.40291 0.65191 0.01884 0.0
O374 O 0.41374 0.70618 0.02587 0.0
C375 C 0.36227 0.65103 0.97645 0.0
C376 C 0.25636 0.67126 0.00483 0.0
C377 C 0.38804 0.73206 0.02474 0.0
O378 O 0.33535 0.67202 0.98448 0.0
O379 O 0.38944 0.63672 0.98797 0.0
O380 O 0.30712 0.67735 0.0475 0.0
O381 O 0.35109 0.64484 0.02973 0.0
Co382 Co 0.34285 0.84202 0.24495 0.0
O383 O 0.30837 0.88334 0.25102 0.0
O384 O 0.29553 0.82195 0.2569 0.0
C385 C 0.36004 0.86265 0.21133 0.0
O386 O 0.37097 0.79179 0.23966 0.0
Co387 Co 0.42992 0.85847 0.23835 0.0
O388 O 0.43322 0.80312 0.2316 0.0
C389 C 0.39585 0.86392 0.28248 0.0
C390 C 0.28449 0.85749 0.25776 0.0
C391 C 0.40485 0.78052 0.23413 0.0
O392 O 0.36531 0.84699 0.2755 0.0
O393 O 0.42332 0.8742 0.26985 0.0
O394 O 0.32835 0.84351 0.21386 0.0
O395 O 0.37814 0.87132 0.22924 0.0
Co396 Co 0.19677 0.83565 0.50231 0.0
O397 O 0.15095 0.80529 0.50532 0.0
O398 O 0.21016 0.78567 0.51322 0.0
C399 C 0.18257 0.85902 0.46877 0.0
O400 O 0.25085 0.85751 0.50096 0.0
Co401 Co 0.19294 0.92402 0.49827 0.0
O402 O 0.24853 0.91961 0.49168 0.0
C403 C 0.1759 0.88694 0.54043 0.0
C404 C 0.17352 0.77847 0.51243 0.0
C405 C 0.26716 0.88892 0.49537 0.0
O406 O 0.1897 0.8552 0.53324 0.0
O407 O 0.17134 0.91662 0.5285 0.0
O408 O 0.19821 0.82539 0.47059 0.0
O409 O 0.17355 0.87582 0.48695 0.0
Co410 Co 0.18605 0.73072 0.76335 0.0
O411 O 0.14631 0.76814 0.75904 0.0
O412 O 0.20839 0.77737 0.75227 0.0
C413 C 0.16575 0.71153 0.79671 0.0
O414 O 0.23557 0.70006 0.76638 0.0
Co415 Co 0.16657 0.64464 0.76784 0.0
O416 O 0.2219 0.63902 0.77495 0.0
C417 C 0.15847 0.68269 0.72514 0.0
C418 C 0.17345 0.79056 0.75223 0.0
C419 C 0.24575 0.66611 0.77191 0.0
O420 O 0.17761 0.71154 0.7324 0.0
O421 O 0.14785 0.65478 0.7372 0.0
O422 O 0.18717 0.74185 0.79497 0.0
O423 O 0.15516 0.69575 0.77848 0.0
Co424 Co 0.85771 0.22167 0.48989 0.0
O425 O 0.89998 0.25684 0.49138 0.0
O426 O 0.84069 0.2695 0.50256 0.0
C427 C 0.87022 0.20109 0.45541 0.0
O428 O 0.80637 0.19361 0.48985 0.0
Co429 Co 0.87252 0.13473 0.48509 0.0
O430 O 0.81579 0.13066 0.48384 0.0
C431 C 0.88942 0.17299 0.52683 0.0
C432 C 0.8762 0.28067 0.50051 0.0
C433 C 0.79386 0.1594 0.48665 0.0
O434 O 0.87095 0.20267 0.52028 0.0
O435 O 0.89682 0.14428 0.51446 0.0
O436 O 0.85098 0.23255 0.45853 0.0
O437 O 0.88329 0.18488 0.47291 0.0
Co438 Co 0.81786 0.36248 0.74892 0.0
O439 O 0.78027 0.39787 0.75998 0.0
O440 O 0.77512 0.33459 0.76131 0.0
C441 C 0.82611 0.392 0.71638 0.0
O442 O 0.8496 0.31705 0.73831 0.0
Co443 Co 0.90087 0.38904 0.73783 0.0
O444 O 0.908 0.33626 0.7268 0.0
C445 C 0.87935 0.3751 0.78421 0.0
C446 C 0.76004 0.36803 0.76501 0.0
C447 C 0.88285 0.31036 0.72985 0.0
O448 O 0.84601 0.36272 0.77819 0.0
O449 O 0.903 0.39026 0.7707 0.0
O450 O 0.79724 0.36905 0.71922 0.0
O451 O 0.84669 0.39896 0.73363 0.0
Co452 Co 0.6872 0.31422 0.99517 0.0
O453 O 0.65225 0.27208 0.99847 0.0
O454 O 0.71477 0.27034 0.0061 0.0
C455 C 0.66582 0.3319 0.9617 0.0
O456 O 0.73266 0.35068 0.99329 0.0
Co457 Co 0.65863 0.39785 0.99046 0.0
O458 O 0.71255 0.40828 0.98176 0.0
C459 C 0.65427 0.35897 0.03332 0.0
C460 C 0.68174 0.25296 0.00554 0.0
C461 C 0.73927 0.38459 0.98618 0.0
O462 O 0.67531 0.33138 0.02614 0.0
O463 O 0.64183 0.38617 0.02125 0.0
O464 O 0.6907 0.3043 0.96344 0.0
O465 O 0.65302 0.34581 0.97993 0.0
Co466 Co 0.70334 0.19259 0.25598 0.0
O467 O 0.65698 0.22062 0.25029 0.0
O468 O 0.7157 0.24308 0.24518 0.0
C469 C 0.68359 0.17014 0.28891 0.0
O470 O 0.75763 0.17256 0.26161 0.0
Co471 Co 0.70025 0.10418 0.25987 0.0
O472 O 0.75435 0.10961 0.26935 0.0
C473 C 0.696 0.13947 0.21609 0.0
C474 C 0.67871 0.24869 0.24419 0.0
C475 C 0.77313 0.1407 0.26748 0.0
O476 O 0.70382 0.17218 0.22475 0.0
O477 O 0.69015 0.10941 0.22754 0.0
O478 O 0.69784 0.20435 0.28727 0.0
O479 O 0.67917 0.15215 0.27045 0.0
C480 C 0.19201 0.9124 0.2594 0.0
C481 C 0.18247 0.90955 0.28199 0.0
C482 C 0.23645 0.86587 0.28811 0.0
C483 C 0.24611 0.86906 0.26556 0.0
N484 N 0.22748 0.88565 0.2287 0.0
N485 N 0.18848 0.87629 0.31642 0.0
C486 C 0.22187 0.88911 0.25086 0.0
C487 C 0.20234 0.88368 0.29586 0.0
N488 N 0.17427 0.93895 0.24643 0.0
N489 N 0.26099 0.848 0.30232 0.0
H490 H 0.16342 0.88891 0.32248 0.0
H491 H 0.19967 0.85519 0.32662 0.0
H492 H 0.28599 0.83415 0.29721 0.0
H493 H 0.2579 0.84897 0.31934 0.0
H494 H 0.18328 0.94542 0.23057 0.0
H495 H 0.15219 0.95663 0.25202 0.0
H496 H 0.20863 0.89671 0.21702 0.0
H497 H 0.24898 0.86833 0.22202 0.0
C498 C 0.14488 0.67366 0.51649 0.0
C499 C 0.12209 0.67492 0.53578 0.0
C500 C 0.13799 0.74252 0.54125 0.0
C501 C 0.15759 0.74228 0.52083 0.0
N502 N 0.17759 0.70935 0.48791 0.0
N503 N 0.09346 0.71065 0.56562 0.0
C504 C 0.16073 0.70823 0.50818 0.0
C505 C 0.11773 0.70939 0.54794 0.0
N506 N 0.15167 0.63934 0.50635 0.0
N507 N 0.13991 0.77404 0.55461 0.0
H508 H 0.07928 0.68667 0.5717 0.0
H509 H 0.08524 0.7359 0.57344 0.0
H510 H 0.15477 0.79875 0.55035 0.0
H511 H 0.12981 0.77471 0.5707 0.0
H512 H 0.17117 0.63569 0.49356 0.0
H513 H 0.13967 0.61372 0.51178 0.0
H514 H 0.17717 0.68663 0.47679 0.0
H515 H 0.19004 0.73405 0.48152 0.0
C516 C 0.34138 0.61577 0.76491 0.0
C517 C 0.35568 0.62 0.78666 0.0
C518 C 0.30623 0.66813 0.79401 0.0
C519 C 0.28704 0.65704 0.77449 0.0
N520 N 0.28647 0.62152 0.74048 0.0
N521 N 0.34817 0.64711 0.82317 0.0
C522 C 0.30486 0.63143 0.75954 0.0
C523 C 0.33759 0.64582 0.80152 0.0
N524 N 0.36296 0.59726 0.74941 0.0
N525 N 0.29456 0.69977 0.80538 0.0
H526 H 0.36956 0.62985 0.82987 0.0
H527 H 0.33297 0.66261 0.83497 0.0
H528 H 0.27253 0.71746 0.79976 0.0
H529 H 0.30958 0.71072 0.81886 0.0
H530 H 0.35555 0.59604 0.73283 0.0
H531 H 0.39024 0.58631 0.75282 0.0
H532 H 0.29575 0.59957 0.73014 0.0
H533 H 0.26081 0.63436 0.7355 0.0
C534 C 0.42671 0.82037 0.05412 0.0
C535 C 0.4304 0.84589 0.03622 0.0
C536 C 0.39969 0.79917 0.01163 0.0
C537 C 0.40016 0.77205 0.02898 0.0
N538 N 0.41708 0.75529 0.06627 0.0
N539 N 0.42296 0.86004 0.99778 0.0
C540 C 0.4144 0.78226 0.05013 0.0
C541 C 0.41719 0.8356 0.01495 0.0
N542 N 0.43439 0.83287 0.07504 0.0
N543 N 0.383 0.78992 0.99193 0.0
H544 H 0.43477 0.88727 -0.00019 0.0
H545 H 0.41822 0.85276 0.98139 0.0
H546 H 0.37202 0.76286 0.98836 0.0
H547 H 0.37788 0.8096 0.97948 0.0
H548 H 0.42855 0.81697 0.08905 0.0
H549 H 0.44361 0.86062 0.07863 0.0
H550 H 0.43162 0.75959 0.08105 0.0
H551 H 0.40695 0.72743 0.06442 0.0
C552 C 0.15682 0.62877 0.00125 0.0
C553 C 0.14597 0.63925 0.97962 0.0
C554 C 0.20587 0.67527 0.97525 0.0
C555 C 0.21654 0.66514 0.997 0.0
N556 N 0.19811 0.64155 0.0326 0.0
N557 N 0.15462 0.6802 0.94829 0.0
C558 C 0.19061 0.64487 0.01063 0.0
C559 C 0.16869 0.66523 0.9674 0.0
N560 N 0.13607 0.60193 0.01239 0.0
N561 N 0.23198 0.69205 0.96157 0.0
H562 H 0.12741 0.67334 0.94215 0.0
H563 H 0.16823 0.70202 0.93969 0.0
H564 H 0.2597 0.69958 0.96649 0.0
H565 H 0.22725 0.69583 0.94481 0.0
H566 H 0.14522 0.58981 0.02711 0.0
H567 H 0.11094 0.58967 0.00619 0.0
H568 H 0.17858 0.63024 0.04378 0.0
H569 H 0.22235 0.65366 0.04002 0.0
C570 C 0.42682 0.68666 0.205 0.0
C571 C 0.42893 0.66163 0.22303 0.0
C572 C 0.41012 0.71326 0.24814 0.0
C573 C 0.41147 0.73926 0.23021 0.0
N574 N 0.425 0.7521 0.19198 0.0
N575 N 0.42469 0.64948 0.26177 0.0
C576 C 0.42075 0.72634 0.20866 0.0
C577 C 0.42088 0.67438 0.24465 0.0
N578 N 0.4306 0.67109 0.18452 0.0
N579 N 0.39907 0.72591 0.26849 0.0
H580 H 0.43104 0.62056 0.25946 0.0
H581 H 0.42335 0.65746 0.27825 0.0
H582 H 0.39355 0.75457 0.27207 0.0
H583 H 0.39356 0.70794 0.28169 0.0
H584 H 0.42716 0.68591 0.16982 0.0
H585 H 0.42716 0.68591 0.16982 0.0
H586 H 0.43622 0.74538 0.17661 0.0
H587 H 0.41988 0.78125 0.19389 0.0
C588 C 0.36522 0.93264 0.50013 0.0
C589 C 0.38428 0.91342 0.48276 0.0
C590 C 0.33039 0.86896 0.47851 0.0
C591 C 0.30965 0.89092 0.49424 0.0
N592 N 0.31125 0.93361 0.52536 0.0
N593 N 0.39131 0.85756 0.45997 0.0
C594 C 0.32854 0.91947 0.50687 0.0
C595 C 0.36896 0.87937 0.47359 0.0
N596 N 0.3814 0.96459 0.50929 0.0
N597 N 0.31268 0.83976 0.46743 0.0
H598 H 0.41953 0.86503 0.45606 0.0
H599 H 0.38339 0.83074 0.45403 0.0
H600 H 0.28547 0.82964 0.47145 0.0
H601 H 0.32434 0.82608 0.45376 0.0
H602 H 0.36703 0.98275 0.52011 0.0
H603 H 0.40906 0.97381 0.50534 0.0
H604 H 0.3246 0.95228 0.53636 0.0
H605 H 0.28465 0.92361 0.53082 0.0
C606 C 0.14478 0.89499 0.75047 0.0
C607 C 0.13381 0.89825 0.72808 0.0
C608 C 0.1533 0.83199 0.72099 0.0
C609 C 0.16406 0.82865 0.7434 0.0
N610 N 0.17692 0.8575 0.77864 0.0
N611 N 0.1333 0.87301 0.69106 0.0
C612 C 0.16203 0.86044 0.75789 0.0
C613 C 0.14004 0.86773 0.71301 0.0
N614 N 0.13763 0.92456 0.76468 0.0
N615 N 0.15434 0.80051 0.70757 0.0
H616 H 0.12187 0.89814 0.68464 0.0
H617 H 0.14137 0.8536 0.6789 0.0
H618 H 0.16608 0.77449 0.71243 0.0
H619 H 0.142 0.79938 0.69198 0.0
H620 H 0.14081 0.92275 0.78165 0.0
H621 H 0.12661 0.9508 0.75954 0.0
H622 H 0.17959 0.88041 0.78952 0.0
H623 H 0.18938 0.83238 0.78452 0.0
C624 C 0.65371 0.38927 0.76423 0.0
C625 C 0.64706 0.39688 0.78683 0.0
C626 C 0.7137 0.3808 0.79559 0.0
C627 C 0.72034 0.37264 0.7731 0.0
N628 N 0.69511 0.36001 0.73685 0.0
N629 N 0.6667 0.38887 0.82456 0.0
C630 C 0.68967 0.3736 0.75771 0.0
C631 C 0.67579 0.3888 0.80271 0.0
N632 N 0.62675 0.39919 0.7489 0.0
N633 N 0.74386 0.38283 0.80993 0.0
H634 H 0.63889 0.39417 0.83024 0.0
H635 H 0.68566 0.37992 0.83678 0.0
H636 H 0.772 0.37755 0.80502 0.0
H637 H 0.74138 0.3927 0.82605 0.0
H638 H 0.6318 0.39851 0.73204 0.0
H639 H 0.60005 0.41069 0.75302 0.0
H640 H 0.67289 0.35662 0.7255 0.0
H641 H 0.72132 0.34884 0.73151 0.0
C642 C 0.66005 0.14659 0.00644 0.0
C643 C 0.65171 0.1421 0.02908 0.0
C644 C 0.67447 0.20726 0.03657 0.0
C645 C 0.67692 0.21355 0.01362 0.0
N646 N 0.67239 0.1903 0.97637 0.0
N647 N 0.64846 0.16838 0.06582 0.0
C648 C 0.67016 0.18338 0.99844 0.0
C649 C 0.65888 0.17227 0.04427 0.0
N650 N 0.6585 0.1155 0.99275 0.0
N651 N 0.68652 0.23495 0.05098 0.0
H652 H 0.63738 0.14312 0.07223 0.0
H653 H 0.64831 0.19085 0.0771 0.0
H654 H 0.69699 0.26143 0.04594 0.0
H655 H 0.68922 0.23063 0.06783 0.0
H656 H 0.66741 0.11588 0.97644 0.0
H657 H 0.65129 0.08823 0.99831 0.0
H658 H 0.66342 0.17098 0.96434 0.0
H659 H 0.68172 0.21638 0.97003 0.0
C660 C 0.86299 0.11748 0.2998 0.0
C661 C 0.8921 0.12534 0.28414 0.0
C662 C 0.84338 0.14696 0.25775 0.0
C663 C 0.81437 0.13965 0.27361 0.0
N664 N 0.79689 0.12571 0.31109 0.0
N665 N 0.91164 0.15412 0.25012 0.0
C666 C 0.82438 0.12741 0.29508 0.0
C667 C 0.88278 0.14238 0.26372 0.0
N668 N 0.87202 0.09887 0.31884 0.0
N669 N 0.83325 0.15594 0.23667 0.0
H670 H 0.94066 0.15042 0.25397 0.0
H671 H 0.90703 0.17015 0.23598 0.0
H672 H 0.80478 0.15932 0.23163 0.0
H673 H 0.85276 0.15741 0.22375 0.0
H674 H 0.85164 0.08774 0.32956 0.0
H675 H 0.90008 0.09211 0.32329 0.0
H676 H 0.80304 0.12176 0.32769 0.0
H677 H 0.76796 0.13131 0.3081 0.0
C678 C 0.94193 0.35399 0.52726 0.0
C679 C 0.91761 0.38637 0.52872 0.0
C680 C 0.86838 0.3516 0.50777 0.0
C681 C 0.89015 0.31741 0.50995 0.0
N682 N 0.94344 0.2853 0.52787 0.0
N683 N 0.85464 0.41405 0.52324 0.0
C684 C 0.92591 0.31831 0.52129 0.0
C685 C 0.87993 0.3848 0.51971 0.0
N686 N 0.9804 0.35724 0.53147 0.0
N687 N 0.83764 0.35296 0.49378 0.0
H688 H 0.86168 0.4385 0.53227 0.0
H689 H 0.82568 0.41241 0.5189 0.0
H690 H 0.82941 0.3299 0.48391 0.0
H691 H 0.82304 0.37822 0.49021 0.0
H692 H -0.00034 0.33482 0.52884 0.0
H693 H 0.99351 0.38335 0.53516 0.0
H694 H 0.96799 0.28514 0.53775 0.0
H695 H 0.93087 0.25842 0.52613 0.0
C696 C 0.70087 0.14086 0.45737 0.0
C697 C 0.68012 0.12062 0.4737 0.0
C698 C 0.73172 0.1325 0.50037 0.0
C699 C 0.75216 0.15284 0.48404 0.0
N700 N 0.75156 0.18612 0.44941 0.0
N701 N 0.67095 0.1048 0.51182 0.0
C702 C 0.735 0.1605 0.46339 0.0
C703 C 0.69401 0.11896 0.49562 0.0
N704 N 0.68963 0.13911 0.43581 0.0
N705 N 0.74887 0.12531 0.52017 0.0
H706 H 0.64311 0.09494 0.50876 0.0
H707 H 0.678 0.10582 0.52845 0.0
H708 H 0.77559 0.13672 0.52449 0.0
H709 H 0.7375 0.10685 0.53185 0.0
H710 H 0.70632 0.14946 0.42295 0.0
H711 H 0.66536 0.12429 0.4304 0.0
H712 H 0.73831 0.19556 0.43504 0.0
H713 H 0.77676 0.20087 0.45321 0.0
C714 C 0.92216 0.22535 0.69787 0.0
C715 C 0.91893 0.19599 0.71377 0.0
C716 C 0.89229 0.2415 0.74036 0.0
C717 C 0.89332 0.27049 0.72404 0.0
N718 N 0.90307 0.28857 0.68618 0.0
N719 N 0.89449 0.17361 0.74837 0.0
C720 C 0.90641 0.26195 0.70246 0.0
C721 C 0.9018 0.20329 0.73445 0.0
N722 N 0.9417 0.21871 0.67872 0.0
N723 N 0.88485 0.25082 0.7618 0.0
H724 H 0.90164 0.14535 0.74458 0.0
H725 H 0.8784 0.17648 0.7627 0.0
H726 H 0.87928 0.27865 0.76713 0.0
H727 H 0.88781 0.23161 0.77472 0.0
H728 H 0.94927 0.24018 0.66775 0.0
H729 H 0.95293 0.19207 0.67443 0.0
H730 H 0.90761 0.28254 0.66961 0.0
H731 H 0.89279 0.31612 0.68895 0.0
C732 C 0.83775 0.40252 0.96196 0.0
C733 C 0.84826 0.43616 0.97363 0.0
C734 C 0.79126 0.43057 0.99695 0.0
C735 C 0.77953 0.39821 0.98439 0.0
N736 N 0.79682 0.34656 0.95977 0.0
N737 N 0.84087 0.47779 0.00492 0.0
C738 C 0.80456 0.38183 0.96851 0.0
C739 C 0.82689 0.44867 0.99211 0.0
N740 N 0.85854 0.39142 0.94395 0.0
N741 N 0.76791 0.44411 0.0133 0.0
H742 H 0.86673 0.49169 0.00155 0.0
H743 H 0.82859 0.48659 0.01967 0.0
H744 H 0.74345 0.42949 0.01855 0.0
H745 H 0.77207 0.47001 0.02145 0.0
H746 H 0.84955 0.37037 0.93292 0.0
H747 H 0.88402 0.4048 0.93925 0.0
H748 H 0.81592 0.33156 0.94979 0.0
H749 H 0.77287 0.33042 0.96404 0.0
C750 C 0.65706 0.3558 0.23993 0.0
C751 C 0.63107 0.35578 0.22199 0.0
C752 C 0.63308 0.28599 0.22008 0.0
C753 C 0.66183 0.28563 0.23683 0.0
N754 N 0.70174 0.32043 0.26275 0.0
N755 N 0.6008 0.32241 0.19183 0.0
C756 C 0.67431 0.3207 0.24661 0.0
C757 C 0.62111 0.32134 0.21113 0.0
N758 N 0.66393 0.38916 0.2511 0.0
N759 N 0.61593 0.25292 0.21304 0.0
H760 H 0.59113 0.34776 0.18474 0.0
H761 H 0.59681 0.29857 0.18174 0.0
H762 H 0.62385 0.22574 0.21809 0.0
H763 H 0.59135 0.25254 0.20322 0.0
H764 H 0.67899 0.3908 0.26588 0.0
H765 H 0.65257 0.41539 0.24619 0.0
H766 H 0.71586 0.34488 0.26833 0.0
H767 H 0.71133 0.29557 0.27037 0.0
C768 C 0.11883 0.90527 0.42618 0.0
C769 C 0.14634 0.9181 0.41067 0.0
C770 C 0.19824 0.889 0.43221 0.0
C771 C 0.17056 0.87543 0.44742 0.0
N772 N 0.10433 0.86203 0.45603 0.0
N773 N 0.21076 0.91641 0.39629 0.0
C774 C 0.13076 0.88094 0.4435 0.0
C775 C 0.18566 0.90807 0.41286 0.0
N776 N 0.08155 0.91757 0.42487 0.0
N777 N 0.2365 0.88524 0.43678 0.0
H778 H 0.20241 0.93075 0.38205 0.0
H779 H 0.23901 0.90658 0.39582 0.0
H780 H 0.24649 0.87066 0.45051 0.0
H781 H 0.25818 0.89844 0.4278 0.0
H782 H 0.06132 0.91294 0.43716 0.0
H783 H 0.07137 0.935 0.41226 0.0
H784 H 0.07499 0.86174 0.45258 0.0
H785 H 0.1121 0.84339 0.46863 0.0
C786 C 0.15395 0.65722 0.6646 0.0
C787 C 0.11352 0.65897 0.66169 0.0
C788 C 0.10713 0.69144 0.69725 0.0
C789 C 0.14584 0.68211 0.70196 0.0
N790 N 0.20759 0.6588 0.69029 0.0
N791 N 0.0509 0.67775 0.67506 0.0
C792 C 0.16998 0.66646 0.68551 0.0
C793 C 0.08994 0.67696 0.67772 0.0
N794 N 0.17664 0.64635 0.64737 0.0
N795 N 0.0869 0.71384 0.71161 0.0
H796 H 0.0371 0.66794 0.66089 0.0
H797 H 0.03191 0.68608 0.68739 0.0
H798 H 0.09909 0.72474 0.72604 0.0
H799 H 0.05962 0.72462 0.70825 0.0
H800 H 0.20655 0.6471 0.64774 0.0
H801 H 0.16523 0.63971 0.63192 0.0
H802 H 0.22579 0.6434 0.67996 0.0
H803 H 0.22028 0.66679 0.70518 0.0
C804 C 0.38591 0.65008 0.91573 0.0
C805 C 0.38316 0.6101 0.91197 0.0
C806 C 0.35082 0.60255 0.94739 0.0
C807 C 0.3613 0.64044 0.95294 0.0
N808 N 0.38692 0.70167 0.94264 0.0
N809 N 0.36385 0.54739 0.9245 0.0
C810 C 0.37761 0.66495 0.93702 0.0
C811 C 0.36498 0.58613 0.92764 0.0
N812 N 0.39677 0.6735 0.89894 0.0
N813 N 0.32775 0.58225 0.96125 0.0
H814 H 0.374 0.53389 0.91036 0.0
H815 H 0.35524 0.52824 0.93658 0.0
H816 H 0.31708 0.59392 0.97585 0.0
H817 H 0.31612 0.55565 0.95727 0.0
H818 H 0.39658 0.70322 0.9 0.0
H819 H 0.4027 0.66303 0.8832 0.0
H820 H 0.40293 0.71978 0.93268 0.0
H821 H 0.37986 0.71352 0.95788 0.0
C822 C 0.39145 0.87016 0.15122 0.0
C823 C 0.40942 0.90653 0.15204 0.0
C824 C 0.38424 0.917 0.18902 0.0
C825 C 0.37259 0.87816 0.18985 0.0
N826 N 0.36527 0.81686 0.17166 0.0
N827 N 0.42683 0.96326 0.17265 0.0
C828 C 0.37568 0.85451 0.17082 0.0
C829 C 0.40674 0.92971 0.17116 0.0
N830 N 0.38916 0.85093 0.13165 0.0
N831 N 0.37235 0.94222 0.20486 0.0
H832 H 0.44376 0.97391 0.15994 0.0
H833 H 0.4293 0.97891 0.18721 0.0
H834 H 0.3537 0.93452 0.2175 0.0
H835 H 0.37707 0.9716 0.20393 0.0
H836 H 0.37323 0.826 0.12936 0.0
H837 H 0.40051 0.86186 0.11711 0.0
H838 H 0.37088 0.79733 0.1591 0.0
H839 H 0.35372 0.80409 0.18558 0.0
C840 C 0.15208 0.66138 0.8516 0.0
C841 C 0.11141 0.66239 0.85288 0.0
C842 C 0.10892 0.70527 0.8212 0.0
C843 C 0.14873 0.69911 0.81778 0.0
N844 N 0.20858 0.67061 0.82901 0.0
N845 N 0.05026 0.68322 0.83839 0.0
C846 C 0.17059 0.67742 0.83297 0.0
C847 C 0.08956 0.6842 0.83772 0.0
N848 N 0.17283 0.64525 0.86826 0.0
N849 N 0.08979 0.73168 0.80879 0.0
H850 H 0.03491 0.66862 0.85043 0.0
H851 H 0.03277 0.69468 0.82617 0.0
H852 H 0.10334 0.74783 0.79669 0.0
H853 H 0.06164 0.74027 0.81188 0.0
H854 H 0.20267 0.64666 0.86936 0.0
H855 H 0.1599 0.63322 0.88206 0.0
H856 H 0.22522 0.65136 0.83791 0.0
H857 H 0.22288 0.6828 0.8158 0.0
C858 C 0.38478 0.58305 0.08557 0.0
C859 C 0.38943 0.60411 0.10537 0.0
C860 C 0.35745 0.65931 0.08853 0.0
C861 C 0.35082 0.63712 0.06919 0.0
N862 N 0.34591 0.57394 0.05311 0.0
N863 N 0.37285 0.65895 0.12752 0.0
C864 C 0.36075 0.59777 0.06887 0.0
C865 C 0.3734 0.64126 0.10744 0.0
N866 N 0.40451 0.54972 0.08221 0.0
N867 N 0.35033 0.69773 0.08867 0.0
H868 H 0.38407 0.64631 0.14164 0.0
H869 H 0.35821 0.68441 0.13057 0.0
H870 H 0.3393 0.71242 0.07522 0.0
H871 H 0.35866 0.7158 0.10148 0.0
H872 H 0.40492 0.53554 0.06709 0.0
H873 H 0.4236 0.53829 0.09367 0.0
H874 H 0.34974 0.54438 0.05336 0.0
H875 H 0.32581 0.58297 0.04147 0.0
C876 C 0.38618 0.90599 0.34015 0.0
C877 C 0.4244 0.90009 0.34755 0.0
C878 C 0.43583 0.85761 0.31617 0.0
C879 C 0.40129 0.87064 0.30638 0.0
N880 N 0.34308 0.90823 0.30886 0.0
N881 N 0.48721 0.87203 0.34163 0.0
C882 C 0.37579 0.89446 0.31847 0.0
C883 C 0.44953 0.87575 0.33555 0.0
N884 N 0.36007 0.92289 0.35384 0.0
N885 N 0.4555 0.82785 0.30686 0.0
H886 H 0.49902 0.88529 0.35545 0.0
H887 H 0.50763 0.85822 0.33192 0.0
H888 H 0.44557 0.81354 0.29284 0.0
H889 H 0.47908 0.81484 0.31432 0.0
H890 H 0.33087 0.92496 0.35019 0.0
H891 H 0.36711 0.93139 0.36983 0.0
H892 H 0.32578 0.92912 0.31605 0.0
H893 H 0.33442 0.90077 0.29302 0.0
C894 C 0.10586 0.90122 0.58642 0.0
C895 C 0.13089 0.91432 0.60335 0.0
C896 C 0.18703 0.90011 0.58047 0.0
C897 C 0.16185 0.88905 0.56324 0.0
N898 N 0.09927 0.86768 0.55159 0.0
N899 N 0.19426 0.91689 0.61912 0.0
C900 C 0.12186 0.88559 0.56692 0.0
C901 C 0.17128 0.91041 0.60124 0.0
N902 N 0.067 0.90623 0.58829 0.0
N903 N 0.22564 0.90243 0.57659 0.0
H904 H 0.18303 0.92426 0.63448 0.0
H905 H 0.22375 0.91183 0.61931 0.0
H906 H 0.23793 0.89365 0.56176 0.0
H907 H 0.24527 0.91437 0.58759 0.0
H908 H 0.04778 0.90183 0.57538 0.0
H909 H 0.05391 0.91708 0.6024 0.0
H910 H 0.07048 0.8609 0.55419 0.0
H911 H 0.11036 0.8563 0.53704 0.0
C912 C 0.58982 0.36327 0.92162 0.0
C913 C 0.61213 0.38272 0.90568 0.0
C914 C 0.6714 0.364 0.92474 0.0
C915 C 0.64896 0.3443 0.94052 0.0
N916 N 0.58849 0.31562 0.95037 0.0
N917 N 0.67368 0.39477 0.88903 0.0
C918 C 0.60865 0.34088 0.93775 0.0
C919 C 0.65287 0.38081 0.90625 0.0
N920 N 0.55076 0.3678 0.92212 0.0
N921 N 0.71001 0.36832 0.92799 0.0
H922 H 0.66082 0.40743 0.87537 0.0
H923 H 0.70324 0.39097 0.88739 0.0
H924 H 0.72448 0.35546 0.94098 0.0
H925 H 0.72727 0.38626 0.91861 0.0
H926 H 0.53362 0.35798 0.93493 0.0
H927 H 0.53562 0.3841 0.91071 0.0
H928 H 0.55963 0.30907 0.94769 0.0
H929 H 0.60166 0.29815 0.96204 0.0
C930 C 0.69105 0.09096 0.16054 0.0
C931 C 0.65599 0.10769 0.15332 0.0
C932 C 0.66533 0.1587 0.18038 0.0
C933 C 0.69192 0.13552 0.19175 0.0
N934 N 0.73613 0.08266 0.19071 0.0
N935 N 0.6079 0.15736 0.1583 0.0
C936 C 0.707 0.1027 0.18105 0.0
C937 C 0.64287 0.142 0.16344 0.0
N938 N 0.70904 0.06432 0.14768 0.0
N939 N 0.66217 0.19663 0.18515 0.0
H940 H 0.58884 0.14495 0.14714 0.0
H941 H 0.5963 0.18048 0.16693 0.0
H942 H 0.68072 0.21042 0.19606 0.0
H943 H 0.64505 0.21501 0.17586 0.0
H944 H 0.73606 0.0531 0.15126 0.0
H945 H 0.69849 0.05632 0.13225 0.0
H946 H 0.74535 0.05595 0.18519 0.0
H947 H 0.75041 0.09275 0.2047 0.0
C948 C 0.92614 0.191 0.40204 0.0
C949 C 0.92468 0.15054 0.39995 0.0
C950 C 0.87429 0.14895 0.42775 0.0
C951 C 0.88237 0.1873 0.43342 0.0
N952 N 0.91792 0.24538 0.42634 0.0
N953 N 0.90062 0.0901 0.41367 0.0
C954 C 0.90839 0.20883 0.42047 0.0
C955 C 0.89933 0.12916 0.41341 0.0
N956 N 0.94411 0.21229 0.38634 0.0
N957 N 0.8421 0.13178 0.43571 0.0
H958 H 0.92013 0.07409 0.40448 0.0
H959 H 0.88495 0.07381 0.42482 0.0
H960 H 0.82172 0.14739 0.44446 0.0
H961 H 0.83328 0.10447 0.43095 0.0
H962 H 0.9431 0.24207 0.38603 0.0
H963 H 0.95662 0.20006 0.3724 0.0
H964 H 0.94017 0.26054 0.41895 0.0
H965 H 0.90535 0.25976 0.43953 0.0
C966 C 0.8607 0.46895 0.67832 0.0
C967 C 0.86965 0.44715 0.65932 0.0
C968 C 0.84017 0.39018 0.67552 0.0
C969 C 0.83428 0.41136 0.69526 0.0
N970 N 0.8254 0.4728 0.71256 0.0
N971 N 0.86009 0.39081 0.63713 0.0
C972 C 0.8403 0.45144 0.69572 0.0
C973 C 0.8564 0.409 0.65697 0.0
N974 N 0.87301 0.506 0.68002 0.0
N975 N 0.83225 0.35189 0.67485 0.0
H976 H 0.87276 0.40373 0.62353 0.0
H977 H 0.84827 0.3642 0.63348 0.0
H978 H 0.82048 0.33696 0.68796 0.0
H979 H 0.83912 0.334 0.66173 0.0
H980 H 0.87196 0.52186 0.69454 0.0
H981 H 0.88606 0.52048 0.66706 0.0
H982 H 0.82577 0.50256 0.71296 0.0
H983 H 0.80893 0.46082 0.7251 0.0
C984 C 0.66924 0.14675 0.35003 0.0
C985 C 0.63743 0.12154 0.34845 0.0
C986 C 0.63228 0.13444 0.30917 0.0
C987 C 0.66747 0.1551 0.30986 0.0
N988 N 0.72199 0.17764 0.33126 0.0
N989 N 0.59445 0.08435 0.32556 0.0
C990 C 0.68669 0.16054 0.3304 0.0
C991 C 0.62086 0.11311 0.3277 0.0
N992 N 0.68209 0.15835 0.37024 0.0
N993 N 0.60811 0.13734 0.29149 0.0
H994 H 0.58572 0.06738 0.33869 0.0
H995 H 0.58438 0.07486 0.31033 0.0
H996 H 0.61285 0.15614 0.27854 0.0
H997 H 0.58072 0.12521 0.2912 0.0
H998 H 0.70233 0.17999 0.37249 0.0
H999 H 0.67014 0.14853 0.38488 0.0
H1000 H 0.73894 0.17833 0.34539 0.0
H1001 H 0.73621 0.18811 0.31752 0.0
C1002 C 0.89335 0.15931 0.58879 0.0
C1003 C 0.93313 0.15167 0.59119 0.0
C1004 C 0.94428 0.17109 0.55312 0.0
C1005 C 0.90398 0.17177 0.54966 0.0
N1006 N 0.83943 0.1667 0.56377 0.0
N1007 N 0.9971 0.14957 0.57592 0.0
C1008 C 0.87821 0.16671 0.56748 0.0
C1009 C 0.95894 0.15808 0.57355 0.0
N1010 N 0.87025 0.15921 0.60693 0.0
N1011 N 0.96841 0.18307 0.53682 0.0
H1012 H 0.00922 0.14095 0.59079 0.0
H1013 H 0.01646 0.1489 0.56289 0.0
H1014 H 0.95841 0.19258 0.52161 0.0
H1015 H 0.99786 0.18695 0.53902 0.0
H1016 H 0.84158 0.16775 0.60674 0.0
H1017 H 0.88089 0.15377 0.62267 0.0
H1018 H 0.81923 0.15875 0.57549 0.0
H1019 H 0.82733 0.1726 0.54846 0.0
C1020 C 0.93948 0.40242 0.83276 0.0
C1021 C 0.90961 0.41224 0.84764 0.0
C1022 C 0.86366 0.37607 0.82519 0.0
C1023 C 0.89099 0.37542 0.808 0.0
N1024 N 0.95804 0.36592 0.80042 0.0
N1025 N 0.84378 0.40579 0.85942 0.0
C1026 C 0.93014 0.38167 0.81338 0.0
C1027 C 0.87192 0.39767 0.84449 0.0
N1028 N 0.97623 0.41471 0.83659 0.0
N1029 N 0.83199 0.35323 0.824 0.0
H1030 H 0.84928 0.42045 0.87408 0.0
H1031 H 0.81482 0.3997 0.85665 0.0
H1032 H 0.82811 0.33344 0.8113 0.0
H1033 H 0.81266 0.35008 0.83692 0.0
H1034 H 0.99822 0.41265 0.82506 0.0
H1035 H 0.98446 0.42867 0.85105 0.0
H1036 H 0.98725 0.36675 0.80417 0.0
H1037 H 0.95125 0.34798 0.78719 0.0
C1038 C 0.5869 0.36492 0.0812 0.0
C1039 C 0.6114 0.38134 0.09739 0.0
C1040 C 0.66701 0.37365 0.07308 0.0
C1041 C 0.64209 0.35921 0.05656 0.0
N1042 N 0.58189 0.32995 0.04672 0.0
N1043 N 0.67523 0.39166 0.11148 0.0
C1044 C 0.60317 0.35096 0.06133 0.0
C1045 C 0.65178 0.38224 0.09423 0.0
N1046 N 0.54794 0.36502 0.08415 0.0
N1047 N 0.70459 0.3811 0.06815 0.0
H1048 H 0.66446 0.39791 0.1271 0.0
H1049 H 0.70509 0.39001 0.11089 0.0
H1050 H 0.71674 0.37402 0.053 0.0
H1051 H 0.72325 0.39577 0.0786 0.0
H1052 H 0.52835 0.35792 0.07182 0.0
H1053 H 0.53487 0.37437 0.09861 0.0
H1054 H 0.5543 0.31996 0.05001 0.0
H1055 H 0.5934 0.31936 0.03206 0.0
loop_
_geom_bond_atom_site_label_1
_geom_bond_atom_site_label_2
_geom_bond_distance
_geom_bond_site_symmetry_2
_ccdc_geom_bond_type
C0 C1 1.384 . S
C0 C2 1.384 . S
C0 H28 0.931 . S
C1 C0 1.384 . S
C1 C4 1.382 . S
C2 C0 1.384 . S
C2 C3 1.381 . S
C2 H29 0.930 . S
C3 C2 1.381 . S
C3 C5 1.381 1_565 S
C3 C6 1.487 1_565 S
C4 C1 1.382 . S
C4 C5 1.387 1_565 S
C4 H30 0.930 1_565 S
C5 C3 1.381 1_545 S
C5 C4 1.387 1_545 S
C5 H31 0.931 . S
C6 C3 1.487 1_545 S
C6 C13 1.399 . S
C6 N44 1.343 . S
C7 C8 1.384 . S
C7 C9 1.384 . S
C7 H32 0.931 . S
C8 C7 1.384 . S
C8 C11 1.382 . S
C9 C7 1.384 . S
C9 C10 1.381 . S
C9 H33 0.930 1_565 S
C10 C9 1.381 . S
C10 C12 1.381 . S
C10 C13 1.487 1_565 S
C11 C8 1.382 . S
C11 C12 1.387 . S
C11 H34 0.930 . S
C12 C10 1.381 . S
C12 C11 1.387 . S
C12 H35 0.931 . S
C13 C6 1.399 . S
C13 C10 1.487 1_545 S
C13 N45 1.343 . S
C14 C15 1.384 . S
C14 C16 1.384 . S
C14 H36 0.931 . S
C15 C14 1.384 . S
C15 C18 1.382 . S
C16 C14 1.384 . S
C16 C17 1.381 . S
C16 H37 0.930 . S
C17 C16 1.381 . S
C17 C19 1.381 . S
C17 C20 1.487 1_655 S
C18 C15 1.382 . S
C18 C19 1.387 . S
C18 H38 0.930 . S
C19 C17 1.381 . S
C19 C18 1.387 . S
C19 H39 0.931 . S
C20 C17 1.487 1_455 S
C20 C27 1.399 . S
C20 N45 1.343 . S
C21 C22 1.384 . S
C21 C23 1.384 . S
C21 H40 0.931 . S
C22 C21 1.384 . S
C22 C25 1.382 . S
C23 C21 1.384 . S
C23 C24 1.381 . S
C23 H41 0.930 . S
C24 C23 1.381 . S
C24 C26 1.381 . S
C24 C27 1.487 1_655 S
C25 C22 1.382 . S
C25 C26 1.387 . S
C25 H42 0.930 . S
C26 C24 1.381 . S
C26 C25 1.387 . S
C26 H43 0.931 1_655 S
C27 C20 1.399 . S
C27 C24 1.487 1_455 S
C27 N44 1.343 . S
H28 C0 0.931 . S
H29 C2 0.930 . S
H30 C4 0.930 1_545 S
H31 C5 0.931 . S
H32 C7 0.931 . S
H33 C9 0.930 1_545 S
H34 C11 0.930 . S
H35 C12 0.931 . S
H36 C14 0.931 . S
H37 C16 0.930 . S
H38 C18 0.930 . S
H39 C19 0.931 . S
H40 C21 0.931 . S
H41 C23 0.930 . S
H42 C25 0.930 . S
H43 C26 0.931 1_455 S
N44 C6 1.343 . S
N44 C27 1.343 . S
N45 C13 1.343 . S
N45 C20 1.343 . S
C46 C47 1.384 . S
C46 C48 1.384 . S
C46 H74 0.931 . S
C47 C46 1.384 . S
C47 C50 1.382 . S
C48 C46 1.384 . S
C48 C49 1.381 . S
C48 H75 0.930 . S
C49 C48 1.381 . S
C49 C51 1.381 . S
C49 C52 1.487 . S
C50 C47 1.382 . S
C50 C51 1.387 . S
C50 H76 0.930 . S
C51 C49 1.381 . S
C51 C50 1.387 . S
C51 H77 0.931 1_655 S
C52 C49 1.487 . S
C52 C59 1.399 . S
C52 N90 1.343 1_655 S
C53 C54 1.384 . S
C53 C55 1.384 . S
C53 H78 0.931 . S
C54 C53 1.384 . S
C54 C57 1.382 . S
C55 C53 1.384 . S
C55 C56 1.381 . S
C55 H79 0.930 . S
C56 C55 1.381 . S
C56 C58 1.381 . S
C56 C59 1.487 . S
C57 C54 1.382 . S
C57 C58 1.387 . S
C57 H80 0.930 . S
C58 C56 1.381 . S
C58 C57 1.387 . S
C58 H81 0.931 . S
C59 C52 1.399 . S
C59 C56 1.487 . S
C59 N91 1.343 1_655 S
C60 C61 1.384 . S
C60 C62 1.384 . S
C60 H82 0.931 . S
C61 C60 1.384 . S
C61 C64 1.382 . S
C62 C60 1.384 . S
C62 C63 1.381 . S
C62 H83 0.930 . S
C63 C62 1.381 . S
C63 C65 1.381 . S
C63 C66 1.487 . S
C64 C61 1.382 . S
C64 C65 1.387 . S
C64 H84 0.930 . S
C65 C63 1.381 . S
C65 C64 1.387 . S
C65 H85 0.931 . S
C66 C63 1.487 . S
C66 C73 1.399 . S
C66 N91 1.343 . S
C67 C68 1.384 . S
C67 C69 1.384 . S
C67 H86 0.931 . S
C68 C67 1.384 . S
C68 C71 1.382 . S
C69 C67 1.384 . S
C69 C70 1.381 . S
C69 H87 0.930 . S
C70 C69 1.381 . S
C70 C72 1.381 . S
C70 C73 1.487 . S
C71 C68 1.382 . S
C71 C72 1.387 . S
C71 H88 0.930 . S
C72 C70 1.381 . S
C72 C71 1.387 . S
C72 H89 0.931 . S
C73 C66 1.399 . S
C73 C70 1.487 . S
C73 N90 1.343 . S
H74 C46 0.931 . S
H75 C48 0.930 . S
H76 C50 0.930 . S
H77 C51 0.931 1_455 S
H78 C53 0.931 . S
H79 C55 0.930 . S
H80 C57 0.930 . S
H81 C58 0.931 . S
H82 C60 0.931 . S
H83 C62 0.930 . S
H84 C64 0.930 . S
H85 C65 0.931 . S
H86 C67 0.931 . S
H87 C69 0.930 . S
H88 C71 0.930 . S
H89 C72 0.931 . S
N90 C52 1.343 1_455 S
N90 C73 1.343 . S
N91 C59 1.343 1_455 S
N91 C66 1.343 . S
C92 C93 1.384 . S
C92 C94 1.384 . S
C92 H120 0.931 . S
C93 C92 1.384 . S
C93 C96 1.382 . S
C94 C92 1.384 . S
C94 C95 1.381 . S
C94 H121 0.930 . S
C95 C94 1.381 . S
C95 C97 1.381 . S
C95 C98 1.487 . S
C96 C93 1.382 . S
C96 C97 1.387 . S
C96 H122 0.930 . S
C97 C95 1.381 . S
C97 C96 1.387 . S
C97 H123 0.931 . S
C98 C95 1.487 . S
C98 C105 1.399 . S
C98 N136 1.343 . S
C99 C100 1.384 . S
C99 C101 1.384 . S
C99 H124 0.931 . S
C100 C99 1.384 . S
C100 C103 1.382 . S
C101 C99 1.384 . S
C101 C102 1.381 . S
C101 H125 0.930 . S
C102 C101 1.381 . S
C102 C104 1.381 . S
C102 C105 1.487 . S
C103 C100 1.382 . S
C103 C104 1.387 . S
C103 H126 0.930 . S
C104 C102 1.381 . S
C104 C103 1.387 . S
C104 H127 0.931 . S
C105 C98 1.399 . S
C105 C102 1.487 . S
C105 N137 1.343 . S
C106 C107 1.384 . S
C106 C108 1.384 . S
C106 H128 0.931 . S
C107 C106 1.384 . S
C107 C110 1.382 . S
C108 C106 1.384 . S
C108 C109 1.381 . S
C108 H129 0.930 . S
C109 C108 1.381 . S
C109 C111 1.381 . S
C109 C112 1.487 . S
C110 C107 1.382 . S
C110 C111 1.387 . S
C110 H130 0.930 . S
C111 C109 1.381 . S
C111 C110 1.387 . S
C111 H131 0.931 . S
C112 C109 1.487 . S
C112 C119 1.399 . S
C112 N137 1.343 . S
C113 C114 1.384 . S
C113 C115 1.384 . S
C113 H132 0.931 . S
C114 C113 1.384 . S
C114 C117 1.382 . S
C115 C113 1.384 . S
C115 C116 1.381 . S
C115 H133 0.930 . S
C116 C115 1.381 . S
C116 C118 1.381 . S
C116 C119 1.487 . S
C117 C114 1.382 . S
C117 C118 1.387 . S
C117 H134 0.930 . S
C118 C116 1.381 . S
C118 C117 1.387 . S
C118 H135 0.931 . S
C119 C112 1.399 . S
C119 C116 1.487 . S
C119 N136 1.343 . S
H120 C92 0.931 . S
H121 C94 0.930 . S
H122 C96 0.930 . S
H123 C97 0.931 . S
H124 C99 0.931 . S
H125 C101 0.930 . S
H126 C103 0.930 . S
H127 C104 0.931 . S
H128 C106 0.931 . S
H129 C108 0.930 . S
H130 C110 0.930 . S
H131 C111 0.931 . S
H132 C113 0.931 . S
H133 C115 0.930 . S
H134 C117 0.930 . S
H135 C118 0.931 . S
N136 C98 1.343 . S
N136 C119 1.343 . S
N137 C105 1.343 . S
N137 C112 1.343 . S
C138 C139 1.384 . S
C138 C140 1.384 . S
C138 H166 0.931 . S
C139 C138 1.384 . S
C139 C142 1.382 . S
C140 C138 1.384 . S
C140 C141 1.381 . S
C140 H167 0.930 . S
C141 C140 1.381 . S
C141 C143 1.381 . S
C141 C144 1.487 . S
C142 C139 1.382 . S
C142 C143 1.387 . S
C142 H168 0.930 . S
C143 C141 1.381 . S
C143 C142 1.387 . S
C143 H169 0.931 . S
C144 C141 1.487 . S
C144 C151 1.399 . S
C144 N182 1.343 1_565 S
C145 C146 1.384 . S
C145 C147 1.384 . S
C145 H170 0.931 . S
C146 C145 1.384 . S
C146 C149 1.382 . S
C147 C145 1.384 . S
C147 C148 1.381 . S
C147 H171 0.930 . S
C148 C147 1.381 . S
C148 C150 1.381 . S
C148 C151 1.487 . S
C149 C146 1.382 . S
C149 C150 1.387 . S
C149 H172 0.930 . S
C150 C148 1.381 . S
C150 C149 1.387 . S
C150 H173 0.931 . S
C151 C144 1.399 . S
C151 C148 1.487 . S
C151 N183 1.343 . S
C152 C153 1.384 . S
C152 C154 1.384 . S
C152 H174 0.931 . S
C153 C152 1.384 . S
C153 C156 1.382 . S
C154 C152 1.384 . S
C154 C155 1.381 . S
C154 H175 0.930 . S
C155 C154 1.381 . S
C155 C157 1.381 . S
C155 C158 1.487 . S
C156 C153 1.382 . S
C156 C157 1.387 . S
C156 H176 0.930 . S
C157 C155 1.381 . S
C157 C156 1.387 . S
C157 H177 0.931 . S
C158 C155 1.487 . S
C158 C165 1.399 . S
C158 N183 1.343 1_545 S
C159 C160 1.384 . S
C159 C161 1.384 . S
C159 H178 0.931 . S
C160 C159 1.384 . S
C160 C163 1.382 . S
C161 C159 1.384 . S
C161 C162 1.381 . S
C161 H179 0.930 . S
C162 C161 1.381 . S
C162 C164 1.381 . S
C162 C165 1.487 . S
C163 C160 1.382 . S
C163 C164 1.387 . S
C163 H180 0.930 . S
C164 C162 1.381 . S
C164 C163 1.387 . S
C164 H181 0.931 . S
C165 C158 1.399 . S
C165 C162 1.487 . S
C165 N182 1.343 . S
H166 C138 0.931 . S
H167 C140 0.930 . S
H168 C142 0.930 . S
H169 C143 0.931 . S
H170 C145 0.931 . S
H171 C147 0.930 . S
H172 C149 0.930 . S
H173 C150 0.931 . S
H174 C152 0.931 . S
H175 C154 0.930 . S
H176 C156 0.930 . S
H177 C157 0.931 . S
H178 C159 0.931 . S
H179 C161 0.930 . S
H180 C163 0.930 . S
H181 C164 0.931 . S
N182 C144 1.343 1_545 S
N182 C165 1.343 . S
N183 C151 1.343 . S
N183 C158 1.343 1_565 S
C184 C185 1.384 . S
C184 C186 1.384 . S
C184 H212 0.931 . S
C185 C184 1.384 . S
C185 C188 1.382 . S
C186 C184 1.384 . S
C186 C187 1.381 . S
C186 H213 0.930 . S
C187 C186 1.381 . S
C187 C189 1.381 . S
C187 C190 1.487 . S
C188 C185 1.382 . S
C188 C189 1.387 . S
C188 H214 0.930 . S
C189 C187 1.381 . S
C189 C188 1.387 . S
C189 H215 0.931 . S
C190 C187 1.487 . S
C190 C197 1.399 . S
C190 N228 1.343 . S
C191 C192 1.384 . S
C191 C193 1.384 . S
C191 H216 0.931 . S
C192 C191 1.384 . S
C192 C195 1.382 . S
C193 C191 1.384 . S
C193 C194 1.381 . S
C193 H217 0.930 . S
C194 C193 1.381 . S
C194 C196 1.381 . S
C194 C197 1.487 . S
C195 C192 1.382 . S
C195 C196 1.387 . S
C195 H218 0.930 . S
C196 C194 1.381 . S
C196 C195 1.387 . S
C196 H219 0.931 . S
C197 C190 1.399 . S
C197 C194 1.487 . S
C197 N229 1.343 1_455 S
C198 C199 1.384 . S
C198 C200 1.384 . S
C198 H220 0.931 . S
C199 C198 1.384 . S
C199 C202 1.382 . S
C200 C198 1.384 . S
C200 C201 1.381 . S
C200 H221 0.930 . S
C201 C200 1.381 . S
C201 C203 1.381 . S
C201 C204 1.487 . S
C202 C199 1.382 . S
C202 C203 1.387 . S
C202 H222 0.930 . S
C203 C201 1.381 . S
C203 C202 1.387 . S
C203 H223 0.931 . S
C204 C201 1.487 . S
C204 C211 1.399 . S
C204 N229 1.343 . S
C205 C206 1.384 . S
C205 C207 1.384 . S
C205 H224 0.931 . S
C206 C205 1.384 . S
C206 C209 1.382 . S
C207 C205 1.384 . S
C207 C208 1.381 . S
C207 H225 0.930 . S
C208 C207 1.381 . S
C208 C210 1.381 . S
C208 C211 1.487 . S
C209 C206 1.382 . S
C209 C210 1.387 . S
C209 H226 0.930 . S
C210 C208 1.381 . S
C210 C209 1.387 . S
C210 H227 0.931 . S
C211 C204 1.399 . S
C211 C208 1.487 . S
C211 N228 1.343 1_655 S
H212 C184 0.931 . S
H213 C186 0.930 . S
H214 C188 0.930 . S
H215 C189 0.931 . S
H216 C191 0.931 . S
H217 C193 0.930 . S
H218 C195 0.930 . S
H219 C196 0.931 . S
H220 C198 0.931 . S
H221 C200 0.930 . S
H222 C202 0.930 . S
H223 C203 0.931 . S
H224 C205 0.931 . S
H225 C207 0.930 . S
H226 C209 0.930 . S
H227 C210 0.931 . S
N228 C190 1.343 . S
N228 C211 1.343 1_455 S
N229 C197 1.343 1_655 S
N229 C204 1.343 . S
C230 C231 1.384 . S
C230 C232 1.384 . S
C230 H258 0.931 . S
C231 C230 1.384 . S
C231 C234 1.382 . S
C232 C230 1.384 . S
C232 C233 1.381 . S
C232 H259 0.930 . S
C233 C232 1.381 . S
C233 C235 1.381 . S
C233 C236 1.487 . S
C234 C231 1.382 . S
C234 C235 1.387 . S
C234 H260 0.930 . S
C235 C233 1.381 . S
C235 C234 1.387 . S
C235 H261 0.931 . S
C236 C233 1.487 . S
C236 C243 1.399 . S
C236 N274 1.343 . S
C237 C238 1.384 . S
C237 C239 1.384 . S
C237 H262 0.931 . S
C238 C237 1.384 . S
C238 C241 1.382 . S
C239 C237 1.384 . S
C239 C240 1.381 . S
C239 H263 0.930 . S
C240 C239 1.381 . S
C240 C242 1.381 . S
C240 C243 1.487 . S
C241 C238 1.382 . S
C241 C242 1.387 . S
C241 H264 0.930 . S
C242 C240 1.381 . S
C242 C241 1.387 . S
C242 H265 0.931 . S
C243 C236 1.399 . S
C243 C240 1.487 . S
C243 N275 1.343 . S
C244 C245 1.384 . S
C244 C246 1.384 . S
C244 H266 0.931 . S
C245 C244 1.384 . S
C245 C248 1.382 . S
C246 C244 1.384 . S
C246 C247 1.381 . S
C246 H267 0.930 . S
C247 C246 1.381 . S
C247 C249 1.381 . S
C247 C250 1.487 . S
C248 C245 1.382 . S
C248 C249 1.387 . S
C248 H268 0.930 . S
C249 C247 1.381 . S
C249 C248 1.387 . S
C249 H269 0.931 . S
C250 C247 1.487 . S
C250 C257 1.399 . S
C250 N275 1.343 . S
C251 C252 1.384 . S
C251 C253 1.384 . S
C251 H270 0.931 . S
C252 C251 1.384 . S
C252 C255 1.382 . S
C253 C251 1.384 . S
C253 C254 1.381 . S
C253 H271 0.930 . S
C254 C253 1.381 . S
C254 C256 1.381 . S
C254 C257 1.487 . S
C255 C252 1.382 . S
C255 C256 1.387 . S
C255 H272 0.930 . S
C256 C254 1.381 . S
C256 C255 1.387 . S
C256 H273 0.931 . S
C257 C250 1.399 . S
C257 C254 1.487 . S
C257 N274 1.343 . S
H258 C230 0.931 . S
H259 C232 0.930 . S
H260 C234 0.930 . S
H261 C235 0.931 . S
H262 C237 0.931 . S
H263 C239 0.930 . S
H264 C241 0.930 . S
H265 C242 0.931 . S
H266 C244 0.931 . S
H267 C246 0.930 . S
H268 C248 0.930 . S
H269 C249 0.931 . S
H270 C251 0.931 . S
H271 C253 0.930 . S
H272 C255 0.930 . S
H273 C256 0.931 . S
N274 C236 1.343 . S
N274 C257 1.343 . S
N275 C243 1.343 . S
N275 C250 1.343 . S
C276 C277 1.384 . S
C276 C278 1.384 . S
C276 H304 0.931 . S
C277 C276 1.384 . S
C277 C280 1.382 . S
C278 C276 1.384 . S
C278 C279 1.381 . S
C278 H305 0.930 . S
C279 C278 1.381 . S
C279 C281 1.381 . S
C279 C282 1.487 . S
C280 C277 1.382 . S
C280 C281 1.387 . S
C280 H306 0.930 . S
C281 C279 1.381 . S
C281 C280 1.387 . S
C281 H307 0.931 1_565 S
C282 C279 1.487 . S
C282 C289 1.399 . S
C282 N320 1.343 1_565 S
C283 C284 1.384 . S
C283 C285 1.384 . S
C283 H308 0.931 . S
C284 C283 1.384 . S
C284 C287 1.382 . S
C285 C283 1.384 . S
C285 C286 1.381 . S
C285 H309 0.930 . S
C286 C285 1.381 . S
C286 C288 1.381 . S
C286 C289 1.487 . S
C287 C284 1.382 . S
C287 C288 1.387 . S
C287 H310 0.930 . S
C288 C286 1.381 . S
C288 C287 1.387 . S
C288 H311 0.931 . S
C289 C282 1.399 . S
C289 C286 1.487 . S
C289 N321 1.343 1_565 S
C290 C291 1.384 . S
C290 C292 1.384 . S
C290 H312 0.931 . S
C291 C290 1.384 . S
C291 C294 1.382 . S
C292 C290 1.384 . S
C292 C293 1.381 . S
C292 H313 0.930 . S
C293 C292 1.381 . S
C293 C295 1.381 . S
C293 C296 1.487 . S
C294 C291 1.382 . S
C294 C295 1.387 . S
C294 H314 0.930 . S
C295 C293 1.381 . S
C295 C294 1.387 . S
C295 H315 0.931 . S
C296 C293 1.487 . S
C296 C303 1.399 . S
C296 N321 1.343 . S
C297 C298 1.384 . S
C297 C299 1.384 . S
C297 H316 0.931 . S
C298 C297 1.384 . S
C298 C301 1.382 . S
C299 C297 1.384 . S
C299 C300 1.381 . S
C299 H317 0.930 . S
C300 C299 1.381 . S
C300 C302 1.381 . S
C300 C303 1.487 . S
C301 C298 1.382 . S
C301 C302 1.387 . S
C301 H318 0.930 . S
C302 C300 1.381 . S
C302 C301 1.387 . S
C302 H319 0.931 . S
C303 C296 1.399 . S
C303 C300 1.487 . S
C303 N320 1.343 . S
H304 C276 0.931 . S
H305 C278 0.930 . S
H306 C280 0.930 . S
H307 C281 0.931 1_545 S
H308 C283 0.931 . S
H309 C285 0.930 . S
H310 C287 0.930 . S
H311 C288 0.931 . S
H312 C290 0.931 . S
H313 C292 0.930 . S
H314 C294 0.930 . S
H315 C295 0.931 . S
H316 C297 0.931 . S
H317 C299 0.930 . S
H318 C301 0.930 . S
H319 C302 0.931 . S
N320 C282 1.343 1_545 S
N320 C303 1.343 . S
N321 C289 1.343 1_545 S
N321 C296 1.343 . S
C322 C323 1.384 . S
C322 C324 1.384 . S
C322 H350 0.931 . S
C323 C322 1.384 . S
C323 C326 1.382 . S
C324 C322 1.384 . S
C324 C325 1.381 . S
C324 H351 0.930 . S
C325 C324 1.381 . S
C325 C327 1.381 . S
C325 C328 1.487 1_565 S
C326 C323 1.382 . S
C326 C327 1.387 . S
C326 H352 0.930 . S
C327 C325 1.381 . S
C327 C326 1.387 . S
C327 H353 0.931 . S
C328 C325 1.487 1_545 S
C328 C335 1.399 . S
C328 N366 1.343 . S
C329 C330 1.384 . S
C329 C331 1.384 . S
C329 H354 0.931 . S
C330 C329 1.384 . S
C330 C333 1.382 . S
C331 C329 1.384 . S
C331 C332 1.381 . S
C331 H355 0.930 . S
C332 C331 1.381 . S
C332 C334 1.381 1_565 S
C332 C335 1.487 1_565 S
C333 C330 1.382 . S
C333 C334 1.387 1_565 S
C333 H356 0.930 . S
C334 C332 1.381 1_545 S
C334 C333 1.387 1_545 S
C334 H357 0.931 . S
C335 C328 1.399 . S
C335 C332 1.487 1_545 S
C335 N367 1.343 . S
C336 C337 1.384 . S
C336 C338 1.384 . S
C336 H358 0.931 . S
C337 C336 1.384 . S
C337 C340 1.382 . S
C338 C336 1.384 . S
C338 C339 1.381 . S
C338 H359 0.930 . S
C339 C338 1.381 . S
C339 C341 1.381 1_655 S
C339 C342 1.487 1_655 S
C340 C337 1.382 . S
C340 C341 1.387 1_655 S
C340 H360 0.930 1_655 S
C341 C339 1.381 1_455 S
C341 C340 1.387 1_455 S
C341 H361 0.931 . S
C342 C339 1.487 1_455 S
C342 C349 1.399 . S
C342 N367 1.343 . S
C343 C344 1.384 . S
C343 C345 1.384 . S
C343 H362 0.931 . S
C344 C343 1.384 . S
C344 C347 1.382 . S
C345 C343 1.384 . S
C345 C346 1.381 . S
C345 H363 0.930 1_655 S
C346 C345 1.381 . S
C346 C348 1.381 . S
C346 C349 1.487 1_655 S
C347 C344 1.382 . S
C347 C348 1.387 . S
C347 H364 0.930 . S
C348 C346 1.381 . S
C348 C347 1.387 . S
C348 H365 0.931 . S
C349 C342 1.399 . S
C349 C346 1.487 1_455 S
C349 N366 1.343 . S
H350 C322 0.931 . S
H351 C324 0.930 . S
H352 C326 0.930 . S
H353 C327 0.931 . S
H354 C329 0.931 . S
H355 C331 0.930 . S
H356 C333 0.930 . S
H357 C334 0.931 . S
H358 C336 0.931 . S
H359 C338 0.930 . S
H360 C340 0.930 1_455 S
H361 C341 0.931 . S
H362 C343 0.931 . S
H363 C345 0.930 1_455 S
H364 C347 0.930 . S
H365 C348 0.931 . S
N366 C328 1.343 . S
N366 C349 1.343 . S
N367 C335 1.343 . S
N367 C342 1.343 . S
Co368 O369 2.216 . S
Co368 O370 2.091 . S
Co368 O372 2.004 . S
Co368 O378 2.021 1_554 S
Co368 O380 2.137 . S
Co368 O381 2.244 . S
O369 Co368 2.216 . S
O369 C376 1.244 1_554 S
O370 Co368 2.091 . S
O370 C376 1.258 1_554 S
C371 O380 1.247 . S
C371 O381 1.272 . S
O372 Co368 2.004 . S
O372 C377 1.259 . S
Co373 O374 2.061 . S
Co373 O379 2.052 1_554 S
Co373 O381 2.135 . S
O374 Co373 2.061 . S
O374 C377 1.235 . S
C375 O378 1.238 . S
C375 O379 1.241 . S
C376 O369 1.244 1_556 S
C376 O370 1.258 1_556 S
C377 O372 1.259 . S
C377 O374 1.235 . S
O378 Co368 2.021 1_556 S
O378 C375 1.238 . S
O379 Co373 2.052 1_556 S
O379 C375 1.241 . S
O380 Co368 2.137 . S
O380 C371 1.247 . S
O381 Co368 2.244 . S
O381 C371 1.272 . S
O381 Co373 2.135 . S
Co382 O383 2.216 . S
Co382 O384 2.091 . S
Co382 O386 2.004 . S
Co382 O392 2.021 . S
Co382 O394 2.137 . S
Co382 O395 2.244 . S
O383 Co382 2.216 . S
O383 C390 1.247 . S
O384 Co382 2.091 . S
O384 C390 1.261 . S
C385 O394 1.247 . S
C385 O395 1.272 . S
O386 Co382 2.004 . S
O386 C391 1.259 . S
Co387 O388 2.061 . S
Co387 O393 2.052 . S
Co387 O395 2.135 . S
O388 Co387 2.061 . S
O388 C391 1.235 . S
C389 O392 1.238 . S
C389 O393 1.241 . S
C390 O383 1.247 . S
C390 O384 1.261 . S
C391 O386 1.259 . S
C391 O388 1.235 . S
O392 Co382 2.021 . S
O392 C389 1.238 . S
O393 Co387 2.052 . S
O393 C389 1.241 . S
O394 Co382 2.137 . S
O394 C385 1.247 . S
O395 Co382 2.244 . S
O395 C385 1.272 . S
O395 Co387 2.135 . S
Co396 O397 2.216 . S
Co396 O398 2.091 . S
Co396 O400 2.004 . S
Co396 O406 2.021 . S
Co396 O408 2.137 . S
Co396 O409 2.244 . S
O397 Co396 2.216 . S
O397 C404 1.247 . S
O398 Co396 2.091 . S
O398 C404 1.261 . S
C399 O408 1.247 . S
C399 O409 1.272 . S
O400 Co396 2.004 . S
O400 C405 1.259 . S
Co401 O402 2.061 . S
Co401 O407 2.052 . S
Co401 O409 2.135 . S
O402 Co401 2.061 . S
O402 C405 1.235 . S
C403 O406 1.238 . S
C403 O407 1.241 . S
C404 O397 1.247 . S
C404 O398 1.261 . S
C405 O400 1.259 . S
C405 O402 1.235 . S
O406 Co396 2.021 . S
O406 C403 1.238 . S
O407 Co401 2.052 . S
O407 C403 1.241 . S
O408 Co396 2.137 . S
O408 C399 1.247 . S
O409 Co396 2.244 . S
O409 C399 1.272 . S
O409 Co401 2.135 . S
Co410 O411 2.216 . S
Co410 O412 2.091 . S
Co410 O414 2.004 . S
Co410 O420 2.021 . S
Co410 O422 2.137 . S
Co410 O423 2.244 . S
O411 Co410 2.216 . S
O411 C418 1.247 . S
O412 Co410 2.091 . S
O412 C418 1.261 . S
C413 O422 1.247 . S
C413 O423 1.272 . S
O414 Co410 2.004 . S
O414 C419 1.259 . S
Co415 O416 2.061 . S
Co415 O421 2.052 . S
Co415 O423 2.135 . S
O416 Co415 2.061 . S
O416 C419 1.235 . S
C417 O420 1.238 . S
C417 O421 1.241 . S
C418 O411 1.247 . S
C418 O412 1.261 . S
C419 O414 1.259 . S
C419 O416 1.235 . S
O420 Co410 2.021 . S
O420 C417 1.238 . S
O421 Co415 2.052 . S
O421 C417 1.241 . S
O422 Co410 2.137 . S
O422 C413 1.247 . S
O423 Co410 2.244 . S
O423 C413 1.272 . S
O423 Co415 2.135 . S
Co424 O425 2.216 . S
Co424 O426 2.091 . S
Co424 O428 2.004 . S
Co424 O434 2.021 . S
Co424 O436 2.137 . S
Co424 O437 2.244 . S
O425 Co424 2.216 . S
O425 C432 1.247 . S
O426 Co424 2.091 . S
O426 C432 1.261 . S
C427 O436 1.247 . S
C427 O437 1.272 . S
O428 Co424 2.004 . S
O428 C433 1.259 . S
Co429 O430 2.061 . S
Co429 O435 2.052 . S
Co429 O437 2.135 . S
O430 Co429 2.061 . S
O430 C433 1.235 . S
C431 O434 1.238 . S
C431 O435 1.241 . S
C432 O425 1.247 . S
C432 O426 1.261 . S
C433 O428 1.259 . S
C433 O430 1.235 . S
O434 Co424 2.021 . S
O434 C431 1.238 . S
O435 Co429 2.052 . S
O435 C431 1.241 . S
O436 Co424 2.137 . S
O436 C427 1.247 . S
O437 Co424 2.244 . S
O437 C427 1.272 . S
O437 Co429 2.135 . S
Co438 O439 2.216 . S
Co438 O440 2.091 . S
Co438 O442 2.004 . S
Co438 O448 2.021 . S
Co438 O450 2.137 . S
Co438 O451 2.244 . S
O439 Co438 2.216 . S
O439 C446 1.247 . S
O440 Co438 2.091 . S
O440 C446 1.261 . S
C441 O450 1.247 . S
C441 O451 1.272 . S
O442 Co438 2.004 . S
O442 C447 1.259 . S
Co443 O444 2.061 . S
Co443 O449 2.052 . S
Co443 O451 2.135 . S
O444 Co443 2.061 . S
O444 C447 1.235 . S
C445 O448 1.238 . S
C445 O449 1.241 . S
C446 O439 1.247 . S
C446 O440 1.261 . S
C447 O442 1.259 . S
C447 O444 1.235 . S
O448 Co438 2.021 . S
O448 C445 1.238 . S
O449 Co443 2.052 . S
O449 C445 1.241 . S
O450 Co438 2.137 . S
O450 C441 1.247 . S
O451 Co438 2.244 . S
O451 C441 1.272 . S
O451 Co443 2.135 . S
Co452 O453 2.216 1_556 S
Co452 O454 2.091 1_556 S
Co452 O456 2.004 . S
Co452 O462 2.021 1_556 S
Co452 O464 2.137 . S
Co452 O465 2.244 . S
O453 Co452 2.216 1_554 S
O453 C460 1.247 . S
O454 Co452 2.091 1_554 S
O454 C460 1.261 . S
C455 O464 1.247 . S
C455 O465 1.272 . S
O456 Co452 2.004 . S
O456 C461 1.259 . S
Co457 O458 2.061 . S
Co457 O463 2.052 1_556 S
Co457 O465 2.135 . S
O458 Co457 2.061 . S
O458 C461 1.235 . S
C459 O462 1.238 . S
C459 O463 1.241 . S
C460 O453 1.247 . S
C460 O454 1.261 . S
C461 O456 1.259 . S
C461 O458 1.235 . S
O462 Co452 2.021 1_554 S
O462 C459 1.238 . S
O463 Co457 2.052 1_554 S
O463 C459 1.241 . S
O464 Co452 2.137 . S
O464 C455 1.247 . S
O465 Co452 2.244 . S
O465 C455 1.272 . S
O465 Co457 2.135 . S
Co466 O467 2.216 . S
Co466 O468 2.091 . S
Co466 O470 2.004 . S
Co466 O476 2.021 . S
Co466 O478 2.137 . S
Co466 O479 2.244 . S
O467 Co466 2.216 . S
O467 C474 1.247 . S
O468 Co466 2.091 . S
O468 C474 1.261 . S
C469 O478 1.247 . S
C469 O479 1.272 . S
O470 Co466 2.004 . S
O470 C475 1.259 . S
Co471 O472 2.061 . S
Co471 O477 2.052 . S
Co471 O479 2.135 . S
O472 Co471 2.061 . S
O472 C475 1.235 . S
C473 O476 1.238 . S
C473 O477 1.241 . S
C474 O467 1.247 . S
C474 O468 1.261 . S
C475 O470 1.259 . S
C475 O472 1.235 . S
O476 Co466 2.021 . S
O476 C473 1.238 . S
O477 Co471 2.052 . S
O477 C473 1.241 . S
O478 Co466 2.137 . S
O478 C469 1.247 . S
O479 Co466 2.244 . S
O479 C469 1.272 . S
O479 Co471 2.135 . S
C480 C481 1.363 . S
C480 C486 1.379 . S
C480 N488 1.356 . S
C481 C480 1.363 . S
C481 C487 1.363 . S
C482 C483 1.363 . S
C482 C487 1.379 . S
C482 N489 1.356 . S
C483 C482 1.363 . S
C483 C486 1.363 . S
N484 C486 1.356 . S
N484 H496 0.984 . S
N484 H497 0.985 . S
N485 C487 1.356 . S
N485 H490 0.984 . S
N485 H491 0.985 . S
C486 C480 1.379 . S
C486 C483 1.363 . S
C486 N484 1.356 . S
C487 C481 1.363 . S
C487 C482 1.379 . S
C487 N485 1.356 . S
N488 C480 1.356 . S
N488 H494 0.984 . S
N488 H495 0.984 . S
N489 C482 1.356 . S
N489 H492 0.984 . S
N489 H493 0.985 . S
H490 N485 0.984 . S
H491 N485 0.985 . S
H492 N489 0.984 . S
H493 N489 0.985 . S
H494 N488 0.984 . S
H495 N488 0.984 . S
H496 N484 0.984 . S
H497 N484 0.985 . S
C498 C499 1.363 . S
C498 C504 1.379 . S
C498 N506 1.356 . S
C499 C498 1.363 . S
C499 C505 1.363 . S
C500 C501 1.363 . S
C500 C505 1.379 . S
C500 N507 1.356 . S
C501 C500 1.363 . S
C501 C504 1.363 . S
N502 C504 1.356 . S
N502 H514 0.984 . S
N502 H515 0.985 . S
N503 C505 1.356 . S
N503 H508 0.984 . S
N503 H509 0.985 . S
C504 C498 1.379 . S
C504 C501 1.363 . S
C504 N502 1.356 . S
C505 C499 1.363 . S
C505 C500 1.379 . S
C505 N503 1.356 . S
N506 C498 1.356 . S
N506 H512 0.984 . S
N506 H513 0.984 . S
N507 C500 1.356 . S
N507 H510 0.984 . S
N507 H511 0.985 . S
H508 N503 0.984 . S
H509 N503 0.985 . S
H510 N507 0.984 . S
H511 N507 0.985 . S
H512 N506 0.984 . S
H513 N506 0.984 . S
H514 N502 0.984 . S
H515 N502 0.985 . S
C516 C517 1.363 . S
C516 C522 1.379 . S
C516 N524 1.356 . S
C517 C516 1.363 . S
C517 C523 1.363 . S
C518 C519 1.363 . S
C518 C523 1.379 . S
C518 N525 1.356 . S
C519 C518 1.363 . S
C519 C522 1.363 . S
N520 C522 1.356 . S
N520 H532 0.984 . S
N520 H533 0.985 . S
N521 C523 1.356 . S
N521 H526 0.984 . S
N521 H527 0.985 . S
C522 C516 1.379 . S
C522 C519 1.363 . S
C522 N520 1.356 . S
C523 C517 1.363 . S
C523 C518 1.379 . S
C523 N521 1.356 . S
N524 C516 1.356 . S
N524 H530 0.984 . S
N524 H531 0.984 . S
N525 C518 1.356 . S
N525 H528 0.984 . S
N525 H529 0.985 . S
H526 N521 0.984 . S
H527 N521 0.985 . S
H528 N525 0.984 . S
H529 N525 0.985 . S
H530 N524 0.984 . S
H531 N524 0.984 . S
H532 N520 0.984 . S
H533 N520 0.985 . S
C534 C535 1.363 . S
C534 C540 1.379 . S
C534 N542 1.356 . S
C535 C534 1.363 . S
C535 C541 1.363 . S
C536 C537 1.363 . S
C536 C541 1.379 . S
C536 N543 1.356 1_554 S
C537 C536 1.363 . S
C537 C540 1.363 . S
N538 C540 1.356 . S
N538 H550 0.984 . S
N538 H551 0.985 . S
N539 C541 1.356 1_556 S
N539 H544 0.984 1_556 S
N539 H545 0.985 . S
C540 C534 1.379 . S
C540 C537 1.363 . S
C540 N538 1.356 . S
C541 C535 1.363 . S
C541 C536 1.379 . S
C541 N539 1.356 1_554 S
N542 C534 1.356 . S
N542 H548 0.984 . S
N542 H549 0.984 . S
N543 C536 1.356 1_556 S
N543 H546 0.984 . S
N543 H547 0.985 . S
H544 N539 0.984 1_554 S
H545 N539 0.985 . S
H546 N543 0.984 . S
H547 N543 0.985 . S
H548 N542 0.984 . S
H549 N542 0.984 . S
H550 N538 0.984 . S
H551 N538 0.985 . S
C552 C553 1.363 1_554 S
C552 C558 1.379 . S
C552 N560 1.356 . S
C553 C552 1.363 1_556 S
C553 C559 1.363 . S
C554 C555 1.363 . S
C554 C559 1.379 . S
C554 N561 1.356 . S
C555 C554 1.363 . S
C555 C558 1.363 1_556 S
N556 C558 1.356 . S
N556 H568 0.984 . S
N556 H569 0.985 . S
N557 C559 1.356 . S
N557 H562 0.984 . S
N557 H563 0.985 . S
C558 C552 1.379 . S
C558 C555 1.363 1_554 S
C558 N556 1.356 . S
C559 C553 1.363 . S
C559 C554 1.379 . S
C559 N557 1.356 . S
N560 C552 1.356 . S
N560 H566 0.984 . S
N560 H567 0.984 . S
N561 C554 1.356 . S
N561 H564 0.984 . S
N561 H565 0.985 . S
H562 N557 0.984 . S
H563 N557 0.985 . S
H564 N561 0.984 . S
H565 N561 0.985 . S
H566 N560 0.984 . S
H567 N560 0.984 . S
H568 N556 0.984 . S
H569 N556 0.985 . S
C570 C571 1.363 . S
C570 C576 1.379 . S
C570 N578 1.356 . S
C571 C570 1.363 . S
C571 C577 1.363 . S
C572 C573 1.363 . S
C572 C577 1.379 . S
C572 N579 1.356 . S
C573 C572 1.363 . S
C573 C576 1.363 . S
N574 C576 1.356 . S
N574 H586 0.984 . S
N574 H587 0.985 . S
N575 C577 1.356 . S
N575 H580 0.984 . S
N575 H581 0.985 . S
C576 C570 1.379 . S
C576 C573 1.363 . S
C576 N574 1.356 . S
C577 C571 1.363 . S
C577 C572 1.379 . S
C577 N575 1.356 . S
N578 C570 1.356 . S
N578 H584 0.984 . S
N578 H585 0.984 . S
N579 C572 1.356 . S
N579 H582 0.984 . S
N579 H583 0.985 . S
H580 N575 0.984 . S
H581 N575 0.985 . S
H582 N579 0.984 . S
H583 N579 0.985 . S
H584 N578 0.984 . S
H585 N578 0.984 . S
H586 N574 0.984 . S
H587 N574 0.985 . S
C588 C589 1.363 . S
C588 C594 1.379 . S
C588 N596 1.356 . S
C589 C588 1.363 . S
C589 C595 1.363 . S
C590 C591 1.363 . S
C590 C595 1.379 . S
C590 N597 1.356 . S
C591 C590 1.363 . S
C591 C594 1.363 . S
N592 C594 1.356 . S
N592 H604 0.984 . S
N592 H605 0.985 . S
N593 C595 1.356 . S
N593 H598 0.984 . S
N593 H599 0.985 . S
C594 C588 1.379 . S
C594 C591 1.363 . S
C594 N592 1.356 . S
C595 C589 1.363 . S
C595 C590 1.379 . S
C595 N593 1.356 . S
N596 C588 1.356 . S
N596 H602 0.984 . S
N596 H603 0.984 . S
N597 C590 1.356 . S
N597 H600 0.984 . S
N597 H601 0.985 . S
H598 N593 0.984 . S
H599 N593 0.985 . S
H600 N597 0.984 . S
H601 N597 0.985 . S
H602 N596 0.984 . S
H603 N596 0.984 . S
H604 N592 0.984 . S
H605 N592 0.985 . S
C606 C607 1.363 . S
C606 C612 1.379 . S
C606 N614 1.356 . S
C607 C606 1.363 . S
C607 C613 1.363 . S
C608 C609 1.363 . S
C608 C613 1.379 . S
C608 N615 1.356 . S
C609 C608 1.363 . S
C609 C612 1.363 . S
N610 C612 1.356 . S
N610 H622 0.984 . S
N610 H623 0.985 . S
N611 C613 1.356 . S
N611 H616 0.984 . S
N611 H617 0.985 . S
C612 C606 1.379 . S
C612 C609 1.363 . S
C612 N610 1.356 . S
C613 C607 1.363 . S
C613 C608 1.379 . S
C613 N611 1.356 . S
N614 C606 1.356 . S
N614 H620 0.984 . S
N614 H621 0.984 . S
N615 C608 1.356 . S
N615 H618 0.984 . S
N615 H619 0.985 . S
H616 N611 0.984 . S
H617 N611 0.985 . S
H618 N615 0.984 . S
H619 N615 0.985 . S
H620 N614 0.984 . S
H621 N614 0.984 . S
H622 N610 0.984 . S
H623 N610 0.985 . S
C624 C625 1.363 . S
C624 C630 1.379 . S
C624 N632 1.356 . S
C625 C624 1.363 . S
C625 C631 1.363 . S
C626 C627 1.363 . S
C626 C631 1.379 . S
C626 N633 1.356 . S
C627 C626 1.363 . S
C627 C630 1.363 . S
N628 C630 1.356 . S
N628 H640 0.984 . S
N628 H641 0.985 . S
N629 C631 1.356 . S
N629 H634 0.984 . S
N629 H635 0.985 . S
C630 C624 1.379 . S
C630 C627 1.363 . S
C630 N628 1.356 . S
C631 C625 1.363 . S
C631 C626 1.379 . S
C631 N629 1.356 . S
N632 C624 1.356 . S
N632 H638 0.984 . S
N632 H639 0.984 . S
N633 C626 1.356 . S
N633 H636 0.984 . S
N633 H637 0.985 . S
H634 N629 0.984 . S
H635 N629 0.985 . S
H636 N633 0.984 . S
H637 N633 0.985 . S
H638 N632 0.984 . S
H639 N632 0.984 . S
H640 N628 0.984 . S
H641 N628 0.985 . S
C642 C643 1.404 . S
C642 C648 1.373 1_554 S
C642 N650 1.332 1_554 S
C643 C642 1.404 . S
C643 C649 1.363 . S
C644 C645 1.363 . S
C644 C649 1.379 . S
C644 N651 1.356 . S
C645 C644 1.363 . S
C645 C648 1.363 1_554 S
N646 C648 1.356 . S
N646 H658 0.984 . S
N646 H659 0.985 . S
N647 C649 1.356 . S
N647 H652 0.984 . S
N647 H653 0.985 . S
C648 C642 1.373 1_556 S
C648 C645 1.363 1_556 S
C648 N646 1.356 . S
C649 C643 1.363 . S
C649 C644 1.379 . S
C649 N647 1.356 . S
N650 C642 1.332 1_556 S
N650 H656 0.984 . S
N650 H657 0.984 . S
N651 C644 1.356 . S
N651 H654 0.984 . S
N651 H655 0.985 . S
H652 N647 0.984 . S
H653 N647 0.985 . S
H654 N651 0.984 . S
H655 N651 0.985 . S
H656 N650 0.984 . S
H657 N650 0.984 . S
H658 N646 0.984 . S
H659 N646 0.985 . S
C660 C661 1.363 . S
C660 C666 1.379 . S
C660 N668 1.356 . S
C661 C660 1.363 . S
C661 C667 1.363 . S
C662 C663 1.363 . S
C662 C667 1.379 . S
C662 N669 1.356 . S
C663 C662 1.363 . S
C663 C666 1.363 . S
N664 C666 1.356 . S
N664 H676 0.984 . S
N664 H677 0.985 . S
N665 C667 1.356 . S
N665 H670 0.984 . S
N665 H671 0.985 . S
C666 C660 1.379 . S
C666 C663 1.363 . S
C666 N664 1.356 . S
C667 C661 1.363 . S
C667 C662 1.379 . S
C667 N665 1.356 . S
N668 C660 1.356 . S
N668 H674 0.984 . S
N668 H675 0.984 . S
N669 C662 1.356 . S
N669 H672 0.984 . S
N669 H673 0.985 . S
H670 N665 0.984 . S
H671 N665 0.985 . S
H672 N669 0.984 . S
H673 N669 0.985 . S
H674 N668 0.984 . S
H675 N668 0.984 . S
H676 N664 0.984 . S
H677 N664 0.985 . S
C678 C679 1.363 . S
C678 C684 1.379 . S
C678 N686 1.356 . S
C679 C678 1.363 . S
C679 C685 1.363 . S
C680 C681 1.363 . S
C680 C685 1.379 . S
C680 N687 1.356 . S
C681 C680 1.363 . S
C681 C684 1.363 . S
N682 C684 1.356 . S
N682 H694 0.984 . S
N682 H695 0.985 . S
N683 C685 1.356 . S
N683 H688 0.984 . S
N683 H689 0.985 . S
C684 C678 1.379 . S
C684 C681 1.363 . S
C684 N682 1.356 . S
C685 C679 1.363 . S
C685 C680 1.379 . S
C685 N683 1.356 . S
N686 C678 1.356 . S
N686 H692 0.984 . S
N686 H693 0.984 . S
N687 C680 1.356 . S
N687 H690 0.984 . S
N687 H691 0.985 . S
H688 N683 0.984 . S
H689 N683 0.985 . S
H690 N687 0.984 . S
H691 N687 0.985 . S
H692 N686 0.984 . S
H693 N686 0.984 . S
H694 N682 0.984 . S
H695 N682 0.985 . S
C696 C697 1.363 . S
C696 C702 1.379 . S
C696 N704 1.356 . S
C697 C696 1.363 . S
C697 C703 1.363 . S
C698 C699 1.363 . S
C698 C703 1.379 . S
C698 N705 1.356 . S
C699 C698 1.363 . S
C699 C702 1.363 . S
N700 C702 1.356 . S
N700 H712 0.984 . S
N700 H713 0.985 . S
N701 C703 1.356 . S
N701 H706 0.984 . S
N701 H707 0.985 . S
C702 C696 1.379 . S
C702 C699 1.363 . S
C702 N700 1.356 . S
C703 C697 1.363 . S
C703 C698 1.379 . S
C703 N701 1.356 . S
N704 C696 1.356 . S
N704 H710 0.984 . S
N704 H711 0.984 . S
N705 C698 1.356 . S
N705 H708 0.984 . S
N705 H709 0.985 . S
H706 N701 0.984 . S
H707 N701 0.985 . S
H708 N705 0.984 . S
H709 N705 0.985 . S
H710 N704 0.984 . S
H711 N704 0.984 . S
H712 N700 0.984 . S
H713 N700 0.985 . S
C714 C715 1.363 . S
C714 C720 1.379 . S
C714 N722 1.356 . S
C715 C714 1.363 . S
C715 C721 1.363 . S
C716 C717 1.363 . S
C716 C721 1.379 . S
C716 N723 1.356 . S
C717 C716 1.363 . S
C717 C720 1.363 . S
N718 C720 1.356 . S
N718 H730 0.984 . S
N718 H731 0.985 . S
N719 C721 1.356 . S
N719 H724 0.984 . S
N719 H725 0.985 . S
C720 C714 1.379 . S
C720 C717 1.363 . S
C720 N718 1.356 . S
C721 C715 1.363 . S
C721 C716 1.379 . S
C721 N719 1.356 . S
N722 C714 1.356 . S
N722 H728 0.984 . S
N722 H729 0.984 . S
N723 C716 1.356 . S
N723 H726 0.984 . S
N723 H727 0.985 . S
H724 N719 0.984 . S
H725 N719 0.985 . S
H726 N723 0.984 . S
H727 N723 0.985 . S
H728 N722 0.984 . S
H729 N722 0.984 . S
H730 N718 0.984 . S
H731 N718 0.985 . S
C732 C733 1.363 . S
C732 C738 1.379 . S
C732 N740 1.356 . S
C733 C732 1.363 . S
C733 C739 1.363 . S
C734 C735 1.363 . S
C734 C739 1.379 . S
C734 N741 1.356 1_556 S
C735 C734 1.363 . S
C735 C738 1.363 . S
N736 C738 1.356 . S
N736 H748 0.984 . S
N736 H749 0.985 . S
N737 C739 1.356 1_554 S
N737 H742 0.983 1_554 S
N737 H743 0.985 . S
C738 C732 1.379 . S
C738 C735 1.363 . S
C738 N736 1.356 . S
C739 C733 1.363 . S
C739 C734 1.379 . S
C739 N737 1.356 1_556 S
N740 C732 1.356 . S
N740 H746 0.984 . S
N740 H747 0.984 . S
N741 C734 1.356 1_554 S
N741 H744 0.984 . S
N741 H745 0.985 . S
H742 N737 0.983 1_556 S
H743 N737 0.985 . S
H744 N741 0.984 . S
H745 N741 0.985 . S
H746 N740 0.984 . S
H747 N740 0.984 . S
H748 N736 0.984 . S
H749 N736 0.985 . S
C750 C751 1.363 . S
C750 C756 1.379 . S
C750 N758 1.356 . S
C751 C750 1.363 . S
C751 C757 1.363 . S
C752 C753 1.363 . S
C752 C757 1.379 . S
C752 N759 1.356 . S
C753 C752 1.363 . S
C753 C756 1.363 . S
N754 C756 1.356 . S
N754 H766 0.984 . S
N754 H767 0.985 . S
N755 C757 1.356 . S
N755 H760 0.984 . S
N755 H761 0.985 . S
C756 C750 1.379 . S
C756 C753 1.363 . S
C756 N754 1.356 . S
C757 C751 1.363 . S
C757 C752 1.379 . S
C757 N755 1.356 . S
N758 C750 1.356 . S
N758 H764 0.984 . S
N758 H765 0.984 . S
N759 C752 1.356 . S
N759 H762 0.984 . S
N759 H763 0.985 . S
H760 N755 0.984 . S
H761 N755 0.985 . S
H762 N759 0.984 . S
H763 N759 0.985 . S
H764 N758 0.984 . S
H765 N758 0.984 . S
H766 N754 0.984 . S
H767 N754 0.985 . S
C768 C769 1.363 . S
C768 C774 1.379 . S
C768 N776 1.356 . S
C769 C768 1.363 . S
C769 C775 1.363 . S
C770 C771 1.363 . S
C770 C775 1.379 . S
C770 N777 1.356 . S
C771 C770 1.363 . S
C771 C774 1.363 . S
N772 C774 1.356 . S
N772 H784 0.984 . S
N772 H785 0.985 . S
N773 C775 1.356 . S
N773 H778 0.984 . S
N773 H779 0.985 . S
C774 C768 1.379 . S
C774 C771 1.363 . S
C774 N772 1.356 . S
C775 C769 1.363 . S
C775 C770 1.379 . S
C775 N773 1.356 . S
N776 C768 1.356 . S
N776 H782 0.984 . S
N776 H783 0.984 . S
N777 C770 1.356 . S
N777 H780 0.984 . S
N777 H781 0.985 . S
H778 N773 0.984 . S
H779 N773 0.985 . S
H780 N777 0.984 . S
H781 N777 0.985 . S
H782 N776 0.984 . S
H783 N776 0.984 . S
H784 N772 0.984 . S
H785 N772 0.985 . S
C786 C787 1.363 . S
C786 C792 1.379 . S
C786 N794 1.356 . S
C787 C786 1.363 . S
C787 C793 1.363 . S
C788 C789 1.363 . S
C788 C793 1.379 . S
C788 N795 1.356 . S
C789 C788 1.363 . S
C789 C792 1.363 . S
N790 C792 1.356 . S
N790 H802 0.984 . S
N790 H803 0.985 . S
N791 C793 1.356 . S
N791 H796 0.984 . S
N791 H797 0.985 . S
C792 C786 1.379 . S
C792 C789 1.363 . S
C792 N790 1.356 . S
C793 C787 1.363 . S
C793 C788 1.379 . S
C793 N791 1.356 . S
N794 C786 1.356 . S
N794 H800 0.984 . S
N794 H801 0.984 . S
N795 C788 1.356 . S
N795 H798 0.984 . S
N795 H799 0.985 . S
H796 N791 0.984 . S
H797 N791 0.985 . S
H798 N795 0.984 . S
H799 N795 0.985 . S
H800 N794 0.984 . S
H801 N794 0.984 . S
H802 N790 0.984 . S
H803 N790 0.985 . S
C804 C805 1.363 . S
C804 C810 1.379 . S
C804 N812 1.356 . S
C805 C804 1.363 . S
C805 C811 1.363 . S
C806 C807 1.363 . S
C806 C811 1.379 . S
C806 N813 1.356 . S
C807 C806 1.363 . S
C807 C810 1.363 . S
N808 C810 1.356 . S
N808 H820 0.984 . S
N808 H821 0.985 . S
N809 C811 1.356 . S
N809 H814 0.984 . S
N809 H815 0.985 . S
C810 C804 1.379 . S
C810 C807 1.363 . S
C810 N808 1.356 . S
C811 C805 1.363 . S
C811 C806 1.379 . S
C811 N809 1.356 . S
N812 C804 1.356 . S
N812 H818 0.984 . S
N812 H819 0.984 . S
N813 C806 1.356 . S
N813 H816 0.984 . S
N813 H817 0.985 . S
H814 N809 0.984 . S
H815 N809 0.985 . S
H816 N813 0.984 . S
H817 N813 0.985 . S
H818 N812 0.984 . S
H819 N812 0.984 . S
H820 N808 0.984 . S
H821 N808 0.985 . S
C822 C823 1.363 . S
C822 C828 1.379 . S
C822 N830 1.356 . S
C823 C822 1.363 . S
C823 C829 1.363 . S
C824 C825 1.363 . S
C824 C829 1.379 . S
C824 N831 1.356 . S
C825 C824 1.363 . S
C825 C828 1.363 . S
N826 C828 1.356 . S
N826 H838 0.984 . S
N826 H839 0.985 . S
N827 C829 1.356 . S
N827 H832 0.984 . S
N827 H833 0.985 . S
C828 C822 1.379 . S
C828 C825 1.363 . S
C828 N826 1.356 . S
C829 C823 1.363 . S
C829 C824 1.379 . S
C829 N827 1.356 . S
N830 C822 1.356 . S
N830 H836 0.984 . S
N830 H837 0.984 . S
N831 C824 1.356 . S
N831 H834 0.984 . S
N831 H835 0.985 . S
H832 N827 0.984 . S
H833 N827 0.985 . S
H834 N831 0.984 . S
H835 N831 0.985 . S
H836 N830 0.984 . S
H837 N830 0.984 . S
H838 N826 0.984 . S
H839 N826 0.985 . S
C840 C841 1.363 . S
C840 C846 1.379 . S
C840 N848 1.356 . S
C841 C840 1.363 . S
C841 C847 1.363 . S
C842 C843 1.363 . S
C842 C847 1.379 . S
C842 N849 1.356 . S
C843 C842 1.363 . S
C843 C846 1.363 . S
N844 C846 1.356 . S
N844 H856 0.984 . S
N844 H857 0.985 . S
N845 C847 1.356 . S
N845 H850 0.984 . S
N845 H851 0.985 . S
C846 C840 1.379 . S
C846 C843 1.363 . S
C846 N844 1.356 . S
C847 C841 1.363 . S
C847 C842 1.379 . S
C847 N845 1.356 . S
N848 C840 1.356 . S
N848 H854 0.984 . S
N848 H855 0.984 . S
N849 C842 1.356 . S
N849 H852 0.984 . S
N849 H853 0.985 . S
H850 N845 0.984 . S
H851 N845 0.985 . S
H852 N849 0.984 . S
H853 N849 0.985 . S
H854 N848 0.984 . S
H855 N848 0.984 . S
H856 N844 0.984 . S
H857 N844 0.985 . S
C858 C859 1.363 . S
C858 C864 1.379 . S
C858 N866 1.356 . S
C859 C858 1.363 . S
C859 C865 1.363 . S
C860 C861 1.363 . S
C860 C865 1.379 . S
C860 N867 1.356 . S
C861 C860 1.363 . S
C861 C864 1.363 . S
N862 C864 1.356 . S
N862 H874 0.984 . S
N862 H875 0.985 . S
N863 C865 1.356 . S
N863 H868 0.984 . S
N863 H869 0.985 . S
C864 C858 1.379 . S
C864 C861 1.363 . S
C864 N862 1.356 . S
C865 C859 1.363 . S
C865 C860 1.379 . S
C865 N863 1.356 . S
N866 C858 1.356 . S
N866 H872 0.984 . S
N866 H873 0.984 . S
N867 C860 1.356 . S
N867 H870 0.984 . S
N867 H871 0.985 . S
H868 N863 0.984 . S
H869 N863 0.985 . S
H870 N867 0.984 . S
H871 N867 0.985 . S
H872 N866 0.984 . S
H873 N866 0.984 . S
H874 N862 0.984 . S
H875 N862 0.985 . S
C876 C877 1.363 . S
C876 C882 1.379 . S
C876 N884 1.356 . S
C877 C876 1.363 . S
C877 C883 1.363 . S
C878 C879 1.363 . S
C878 C883 1.379 . S
C878 N885 1.356 . S
C879 C878 1.363 . S
C879 C882 1.363 . S
N880 C882 1.356 . S
N880 H892 0.984 . S
N880 H893 0.985 . S
N881 C883 1.356 . S
N881 H886 0.984 . S
N881 H887 0.985 . S
C882 C876 1.379 . S
C882 C879 1.363 . S
C882 N880 1.356 . S
C883 C877 1.363 . S
C883 C878 1.379 . S
C883 N881 1.356 . S
N884 C876 1.356 . S
N884 H890 0.984 . S
N884 H891 0.984 . S
N885 C878 1.356 . S
N885 H888 0.984 . S
N885 H889 0.985 . S
H886 N881 0.984 . S
H887 N881 0.985 . S
H888 N885 0.984 . S
H889 N885 0.985 . S
H890 N884 0.984 . S
H891 N884 0.984 . S
H892 N880 0.984 . S
H893 N880 0.985 . S
C894 C895 1.363 . S
C894 C900 1.379 . S
C894 N902 1.356 . S
C895 C894 1.363 . S
C895 C901 1.363 . S
C896 C897 1.363 . S
C896 C901 1.379 . S
C896 N903 1.356 . S
C897 C896 1.363 . S
C897 C900 1.363 . S
N898 C900 1.356 . S
N898 H910 0.984 . S
N898 H911 0.985 . S
N899 C901 1.356 . S
N899 H904 0.984 . S
N899 H905 0.985 . S
C900 C894 1.379 . S
C900 C897 1.363 . S
C900 N898 1.356 . S
C901 C895 1.363 . S
C901 C896 1.379 . S
C901 N899 1.356 . S
N902 C894 1.356 . S
N902 H908 0.984 . S
N902 H909 0.984 . S
N903 C896 1.356 . S
N903 H906 0.984 . S
N903 H907 0.985 . S
H904 N899 0.984 . S
H905 N899 0.985 . S
H906 N903 0.984 . S
H907 N903 0.985 . S
H908 N902 0.984 . S
H909 N902 0.984 . S
H910 N898 0.984 . S
H911 N898 0.985 . S
C912 C913 1.363 . S
C912 C918 1.379 . S
C912 N920 1.356 . S
C913 C912 1.363 . S
C913 C919 1.363 . S
C914 C915 1.363 . S
C914 C919 1.379 . S
C914 N921 1.356 . S
C915 C914 1.363 . S
C915 C918 1.363 . S
N916 C918 1.356 . S
N916 H928 0.984 . S
N916 H929 0.985 . S
N917 C919 1.356 . S
N917 H922 0.984 . S
N917 H923 0.985 . S
C918 C912 1.379 . S
C918 C915 1.363 . S
C918 N916 1.356 . S
C919 C913 1.363 . S
C919 C914 1.379 . S
C919 N917 1.356 . S
N920 C912 1.356 . S
N920 H926 0.984 . S
N920 H927 0.984 . S
N921 C914 1.356 . S
N921 H924 0.984 . S
N921 H925 0.985 . S
H922 N917 0.984 . S
H923 N917 0.985 . S
H924 N921 0.984 . S
H925 N921 0.985 . S
H926 N920 0.984 . S
H927 N920 0.984 . S
H928 N916 0.984 . S
H929 N916 0.985 . S
C930 C931 1.363 . S
C930 C936 1.379 . S
C930 N938 1.356 . S
C931 C930 1.363 . S
C931 C937 1.363 . S
C932 C933 1.363 . S
C932 C937 1.379 . S
C932 N939 1.356 . S
C933 C932 1.363 . S
C933 C936 1.363 . S
N934 C936 1.356 . S
N934 H946 0.984 . S
N934 H947 0.985 . S
N935 C937 1.356 . S
N935 H940 0.984 . S
N935 H941 0.985 . S
C936 C930 1.379 . S
C936 C933 1.363 . S
C936 N934 1.356 . S
C937 C931 1.363 . S
C937 C932 1.379 . S
C937 N935 1.356 . S
N938 C930 1.356 . S
N938 H944 0.984 . S
N938 H945 0.984 . S
N939 C932 1.356 . S
N939 H942 0.984 . S
N939 H943 0.985 . S
H940 N935 0.984 . S
H941 N935 0.985 . S
H942 N939 0.984 . S
H943 N939 0.985 . S
H944 N938 0.984 . S
H945 N938 0.984 . S
H946 N934 0.984 . S
H947 N934 0.985 . S
C948 C949 1.363 . S
C948 C954 1.379 . S
C948 N956 1.356 . S
C949 C948 1.363 . S
C949 C955 1.363 . S
C950 C951 1.363 . S
C950 C955 1.379 . S
C950 N957 1.356 . S
C951 C950 1.363 . S
C951 C954 1.363 . S
N952 C954 1.356 . S
N952 H964 0.984 . S
N952 H965 0.985 . S
N953 C955 1.356 . S
N953 H958 0.984 . S
N953 H959 0.985 . S
C954 C948 1.379 . S
C954 C951 1.363 . S
C954 N952 1.356 . S
C955 C949 1.363 . S
C955 C950 1.379 . S
C955 N953 1.356 . S
N956 C948 1.356 . S
N956 H962 0.984 . S
N956 H963 0.984 . S
N957 C950 1.356 . S
N957 H960 0.984 . S
N957 H961 0.985 . S
H958 N953 0.984 . S
H959 N953 0.985 . S
H960 N957 0.984 . S
H961 N957 0.985 . S
H962 N956 0.984 . S
H963 N956 0.984 . S
H964 N952 0.984 . S
H965 N952 0.985 . S
C966 C967 1.363 . S
C966 C972 1.379 . S
C966 N974 1.356 . S
C967 C966 1.363 . S
C967 C973 1.363 . S
C968 C969 1.363 . S
C968 C973 1.379 . S
C968 N975 1.356 . S
C969 C968 1.363 . S
C969 C972 1.363 . S
N970 C972 1.356 . S
N970 H982 0.984 . S
N970 H983 0.985 . S
N971 C973 1.356 . S
N971 H976 0.984 . S
N971 H977 0.985 . S
C972 C966 1.379 . S
C972 C969 1.363 . S
C972 N970 1.356 . S
C973 C967 1.363 . S
C973 C968 1.379 . S
C973 N971 1.356 . S
N974 C966 1.356 . S
N974 H980 0.984 . S
N974 H981 0.984 . S
N975 C968 1.356 . S
N975 H978 0.984 . S
N975 H979 0.985 . S
H976 N971 0.984 . S
H977 N971 0.985 . S
H978 N975 0.984 . S
H979 N975 0.985 . S
H980 N974 0.984 . S
H981 N974 0.984 . S
H982 N970 0.984 . S
H983 N970 0.985 . S
C984 C985 1.363 . S
C984 C990 1.379 . S
C984 N992 1.356 . S
C985 C984 1.363 . S
C985 C991 1.363 . S
C986 C987 1.363 . S
C986 C991 1.379 . S
C986 N993 1.356 . S
C987 C986 1.363 . S
C987 C990 1.363 . S
N988 C990 1.356 . S
N988 H1000 0.984 . S
N988 H1001 0.985 . S
N989 C991 1.356 . S
N989 H994 0.984 . S
N989 H995 0.985 . S
C990 C984 1.379 . S
C990 C987 1.363 . S
C990 N988 1.356 . S
C991 C985 1.363 . S
C991 C986 1.379 . S
C991 N989 1.356 . S
N992 C984 1.356 . S
N992 H998 0.984 . S
N992 H999 0.984 . S
N993 C986 1.356 . S
N993 H996 0.984 . S
N993 H997 0.985 . S
H994 N989 0.984 . S
H995 N989 0.985 . S
H996 N993 0.984 . S
H997 N993 0.985 . S
H998 N992 0.984 . S
H999 N992 0.984 . S
H1000 N988 0.984 . S
H1001 N988 0.985 . S
C1002 C1003 1.363 . S
C1002 C1008 1.379 . S
C1002 N1010 1.356 . S
C1003 C1002 1.363 . S
C1003 C1009 1.363 . S
C1004 C1005 1.363 . S
C1004 C1009 1.379 . S
C1004 N1011 1.356 . S
C1005 C1004 1.363 . S
C1005 C1008 1.363 . S
N1006 C1008 1.356 . S
N1006 H1018 0.984 . S
N1006 H1019 0.985 . S
N1007 C1009 1.356 . S
N1007 H1012 0.984 . S
N1007 H1013 0.985 . S
C1008 C1002 1.379 . S
C1008 C1005 1.363 . S
C1008 N1006 1.356 . S
C1009 C1003 1.363 . S
C1009 C1004 1.379 . S
C1009 N1007 1.356 . S
N1010 C1002 1.356 . S
N1010 H1016 0.984 . S
N1010 H1017 0.984 . S
N1011 C1004 1.356 . S
N1011 H1014 0.984 . S
N1011 H1015 0.985 . S
H1012 N1007 0.984 . S
H1013 N1007 0.985 . S
H1014 N1011 0.984 . S
H1015 N1011 0.985 . S
H1016 N1010 0.984 . S
H1017 N1010 0.984 . S
H1018 N1006 0.984 . S
H1019 N1006 0.985 . S
C1020 C1021 1.363 . S
C1020 C1026 1.379 . S
C1020 N1028 1.356 . S
C1021 C1020 1.363 . S
C1021 C1027 1.363 . S
C1022 C1023 1.363 . S
C1022 C1027 1.379 . S
C1022 N1029 1.356 . S
C1023 C1022 1.363 . S
C1023 C1026 1.363 . S
N1024 C1026 1.356 . S
N1024 H1036 0.984 . S
N1024 H1037 0.985 . S
N1025 C1027 1.356 . S
N1025 H1030 0.984 . S
N1025 H1031 0.985 . S
C1026 C1020 1.379 . S
C1026 C1023 1.363 . S
C1026 N1024 1.356 . S
C1027 C1021 1.363 . S
C1027 C1022 1.379 . S
C1027 N1025 1.356 . S
N1028 C1020 1.356 . S
N1028 H1034 0.984 . S
N1028 H1035 0.984 . S
N1029 C1022 1.356 . S
N1029 H1032 0.984 . S
N1029 H1033 0.985 . S
H1030 N1025 0.984 . S
H1031 N1025 0.985 . S
H1032 N1029 0.984 . S
H1033 N1029 0.985 . S
H1034 N1028 0.984 . S
H1035 N1028 0.984 . S
H1036 N1024 0.984 . S
H1037 N1024 0.985 . S
C1038 C1039 1.363 . S
C1038 C1044 1.379 . S
C1038 N1046 1.356 . S
C1039 C1038 1.363 . S
C1039 C1045 1.363 . S
C1040 C1041 1.363 . S
C1040 C1045 1.379 . S
C1040 N1047 1.356 . S
C1041 C1040 1.363 . S
C1041 C1044 1.363 . S
N1042 C1044 1.356 . S
N1042 H1054 0.984 . S
N1042 H1055 0.985 . S
N1043 C1045 1.356 . S
N1043 H1048 0.984 . S
N1043 H1049 0.985 . S
C1044 C1038 1.379 . S
C1044 C1041 1.363 . S
C1044 N1042 1.356 . S
C1045 C1039 1.363 . S
C1045 C1040 1.379 . S
C1045 N1043 1.356 . S
N1046 C1038 1.356 . S
N1046 H1052 0.984 . S
N1046 H1053 0.984 . S
N1047 C1040 1.356 . S
N1047 H1050 0.984 . S
N1047 H1051 0.985 . S
H1048 N1043 0.984 . S
H1049 N1043 0.985 . S
H1050 N1047 0.984 . S
H1051 N1047 0.985 . S
H1052 N1046 0.984 . S
H1053 N1046 0.984 . S
H1054 N1042 0.984 . S
H1055 N1042 0.985 . S
C483 C390 1.441 . S
C481 C8 1.389 . S
C501 C404 1.440 . S
C499 C61 1.391 . S
C519 C419 1.421 . S
C517 C107 1.406 . S
C535 C139 1.394 . S
C537 C377 1.407 . S
C553 C192 1.362 . S
C555 C376 1.425 . S
C571 C238 1.360 . S
C573 C391 1.393 . S
C591 C405 1.444 . S
C589 C284 1.404 . S
C609 C418 1.448 . S
C607 C330 1.389 . S
C625 C100 1.367 . S
C627 C446 1.425 . S
C645 C460 1.461 . S
C643 C160 1.391 . S
C661 C15 1.358 . S
C663 C475 1.401 . S
C681 C432 1.402 . S
C679 C54 1.345 . S
C697 C291 1.400 . S
C699 C433 1.416 . S
C715 C337 1.407 . S
C717 C447 1.419 . S
C735 C461 1.419 . S
C733 C199 1.403 . S
C751 C245 1.405 . S
C753 C474 1.458 . S
C771 C399 1.745 . S
C769 C1 1.740 . S
C789 C417 1.736 . S
C787 C68 1.728 . S
C805 C114 1.740 . S
C807 C375 1.752 . S
C823 C146 1.763 . S
C825 C385 1.770 . S
C841 C185 1.666 . S
C843 C413 1.660 . S
C861 C371 1.670 . S
C859 C231 1.675 . S
C879 C389 1.649 . S
C877 C277 1.672 . S
C897 C403 1.645 . S
C895 C323 1.670 . S
C915 C455 1.660 . S
C913 C93 1.664 . S
C933 C473 1.640 . S
C931 C153 1.657 . S
C949 C22 1.658 . S
C951 C427 1.664 . S
C969 C441 1.659 . S
C967 C47 1.664 . S
C987 C469 1.765 . S
C985 C298 1.742 . S
C1003 C344 1.749 . S
C1005 C431 1.762 . S
C1023 C445 1.752 . S
C1021 C206 1.741 . S
C1041 C459 1.733 . S
C1039 C252 1.727 . S
