# Generated by pormake.
# Topology rtl, (3,6)-cn, num edge types: 1
# Building blocks:
#     Node 0, Type 0, BuildingBlock: MIDCAF_clean_linker_0, # of connection points: 3
#     Node 1, Type 0, BuildingBlock: MIDCAF_clean_linker_0, # of connection points: 3
#     Node 2, Type 0, BuildingBlock: MIDCAF_clean_linker_0, # of connection points: 3
#     Node 3, Type 0, BuildingBlock: MIDCAF_clean_linker_0, # of connection points: 3
#     Node 4, Type 1, BuildingBlock: LEVNOQ01_clean_sbu_1, # of connection points: 6
#     Node 5, Type 1, BuildingBlock: LEVNOQ01_clean_sbu_1, # of connection points: 6
#     Edge 6, Type (0, 1), BuildingBlock: XIVTED_clean_linker_0, # of connection points: 2
#     Edge 7, Type (0, 1), BuildingBlock: XIVTED_clean_linker_0, # of connection points: 2
#     Edge 8, Type (0, 1), BuildingBlock: XIVTED_clean_linker_0, # of connection points: 2
#     Edge 9, Type (0, 1), BuildingBlock: XIVTED_clean_linker_0, # of connection points: 2
#     Edge 10, Type (0, 1), BuildingBlock: XIVTED_clean_linker_0, # of connection points: 2
#     Edge 11, Type (0, 1), BuildingBlock: XIVTED_clean_linker_0, # of connection points: 2
#     Edge 12, Type (0, 1), BuildingBlock: XIVTED_clean_linker_0, # of connection points: 2
#     Edge 13, Type (0, 1), BuildingBlock: XIVTED_clean_linker_0, # of connection points: 2
#     Edge 14, Type (0, 1), BuildingBlock: XIVTED_clean_linker_0, # of connection points: 2
#     Edge 15, Type (0, 1), BuildingBlock: XIVTED_clean_linker_0, # of connection points: 2
#     Edge 16, Type (0, 1), BuildingBlock: XIVTED_clean_linker_0, # of connection points: 2
#     Edge 17, Type (0, 1), BuildingBlock: XIVTED_clean_linker_0, # of connection points: 2
# Relax obj value: 0.027
# Max RMSD: 0.061
# Mean RMSD: 0.047
data_MOF--net-rtl--node1-LEVNOQ01_clean_sbu_1--node2-MIDCAF_clean_linker_0--edge1-XIVTED_clean_linker_0
_symmetry_space_group_name_H-M    P1
_symmetry_Int_Tables_number       1
_symmetry_cell_setting            triclinic
loop_
_symmetry_equiv_pos_as_xyz
'x, y, z'
_cell_length_a     36.809365
_cell_length_b     42.63624
_cell_length_c     29.812146
_cell_angle_alpha  90.0068
_cell_angle_beta   98.23803
_cell_angle_gamma 90.124235
loop_
_atom_site_label
_atom_site_type_symbol
_atom_site_fract_x
_atom_site_fract_y
_atom_site_fract_z
_atom_type_partial_charge
C0 C 0.2299 0.96066 0.20305 0.0
C1 C 0.23176 0.94392 0.24394 0.0
C2 C 0.2558 0.91826 0.25122 0.0
C3 C 0.27581 0.90842 0.21726 0.0
H4 H 0.34976 0.84164 0.18691 0.0
H5 H 0.37739 0.78942 0.19537 0.0
H6 H 0.37604 0.78398 0.05071 0.0
H7 H 0.34898 0.836 0.04181 0.0
H8 H 0.30706 0.88529 0.97719 0.0
H9 H 0.27444 0.89384 0.90111 0.0
H10 H 0.19874 0.95554 0.95549 0.0
H11 H 0.23097 0.94693 0.03161 0.0
H12 H 0.24662 0.96367 0.13746 0.0
H13 H 0.21228 0.98097 0.19678 0.0
H14 H 0.25777 0.90476 0.28225 0.0
H15 H 0.29281 0.88772 0.22327 0.0
N16 N 0.31208 0.88616 0.14301 0.0
N17 N 0.31194 0.88234 0.06454 0.0
N18 N 0.27648 0.92072 0.09378 0.0
C19 C 0.32422 0.87198 0.10711 0.0
C20 C 0.28816 0.90672 0.05751 0.0
C21 C 0.28845 0.91076 0.13665 0.0
C22 C 0.34646 0.84289 0.11356 0.0
C23 C 0.35598 0.82962 0.15694 0.0
C24 C 0.37189 0.79978 0.16192 0.0
C25 C 0.37824 0.78267 0.12363 0.0
C26 C 0.37088 0.79663 0.08068 0.0
C27 C 0.35539 0.82648 0.07569 0.0
C28 C 0.27145 0.91511 0.01075 0.0
C29 C 0.28367 0.90092 0.97299 0.0
C30 C 0.26504 0.90586 0.92931 0.0
C31 C 0.23367 0.92494 0.92242 0.0
C32 C 0.22236 0.94015 0.95987 0.0
C33 C 0.2411 0.93541 0.00349 0.0
C34 C 0.27208 0.92398 0.17522 0.0
C35 C 0.24975 0.95079 0.16909 0.0
C36 C 0.68162 0.58378 0.45401 0.0
C37 C 0.69626 0.59067 0.41396 0.0
C38 C 0.73257 0.60188 0.41773 0.0
C39 C 0.75302 0.60735 0.46017 0.0
H40 H 0.8141 0.68132 0.51766 0.0
H41 H 0.84738 0.73074 0.52186 0.0
H42 H 0.87621 0.71961 0.66639 0.0
H43 H 0.84249 0.66987 0.66267 0.0
H44 H 0.79006 0.6264 0.71154 0.0
H45 H 0.76595 0.61074 0.77991 0.0
H46 H 0.69435 0.54367 0.70271 0.0
H47 H 0.71877 0.55895 0.6341 0.0
H48 H 0.68994 0.5839 0.5266 0.0
H49 H 0.65368 0.57548 0.45276 0.0
H50 H 0.74534 0.60658 0.3879 0.0
H51 H 0.78058 0.61666 0.46173 0.0
N52 N 0.78378 0.63333 0.54717 0.0
N53 N 0.79236 0.6304 0.62637 0.0
N54 N 0.75006 0.59696 0.58348 0.0
C55 C 0.80086 0.64374 0.58782 0.0
C56 C 0.7672 0.60683 0.62455 0.0
C57 C 0.75849 0.60996 0.54463 0.0
C58 C 0.82517 0.67167 0.58993 0.0
C59 C 0.82779 0.68903 0.5504 0.0
C60 C 0.84675 0.71746 0.55273 0.0
C61 C 0.86394 0.72909 0.59451 0.0
C62 C 0.86316 0.71109 0.63378 0.0
C63 C 0.84375 0.68269 0.63157 0.0
C64 C 0.75596 0.59434 0.667 0.0
C65 C 0.76958 0.60797 0.70904 0.0
C66 C 0.75567 0.59907 0.74834 0.0
C67 C 0.72791 0.57626 0.74666 0.0
C68 C 0.71586 0.56123 0.7052 0.0
C69 C 0.72968 0.5702 0.66577 0.0
C70 C 0.73803 0.60117 0.50001 0.0
C71 C 0.70239 0.58869 0.49652 0.0
C72 C 0.80864 0.06915 0.87733 0.0
C73 C 0.7967 0.08342 0.83532 0.0
C74 C 0.76931 0.10651 0.83278 0.0
C75 C 0.75556 0.11632 0.87178 0.0
H76 H 0.68733 0.18202 0.91622 0.0
H77 H 0.6514 0.23045 0.9126 0.0
H78 H 0.66877 0.23597 0.05859 0.0
H79 H 0.70428 0.1878 0.06267 0.0
H80 H 0.7634 0.14836 0.11893 0.0
H81 H 0.79919 0.13594 0.19185 0.0
H82 H 0.85882 0.06576 0.12786 0.0
H83 H 0.8229 0.07785 0.05476 0.0
H84 H 0.80592 0.06837 0.94847 0.0
H85 H 0.82993 0.05146 0.88047 0.0
H86 H 0.75924 0.11765 0.80077 0.0
H87 H 0.73536 0.13492 0.86869 0.0
N88 N 0.73281 0.14004 0.95413 0.0
N89 N 0.74315 0.14515 0.03316 0.0
N90 N 0.77633 0.10816 0.99759 0.0
C91 C 0.72488 0.15418 0.9924 0.0
C92 C 0.76885 0.12217 0.03616 0.0
C93 C 0.75835 0.11686 0.95642 0.0
C94 C 0.69925 0.18118 0.98973 0.0
C95 C 0.68305 0.19327 0.94761 0.0
C96 C 0.66236 0.22092 0.94544 0.0
C97 C 0.65778 0.23704 0.98528 0.0
C98 C 0.67238 0.22417 0.02733 0.0
C99 C 0.69272 0.19652 0.02958 0.0
C100 C 0.79013 0.11407 0.08078 0.0
C101 C 0.78413 0.13027 0.12021 0.0
C102 C 0.80488 0.1234 0.16204 0.0
C103 C 0.83197 0.10005 0.16553 0.0
C104 C 0.83799 0.08379 0.12624 0.0
C105 C 0.81737 0.09075 0.08433 0.0
C106 C 0.76909 0.10341 0.91432 0.0
C107 C 0.79505 0.07907 0.91641 0.0
C108 C 0.29326 0.43604 0.62034 0.0
C109 C 0.28838 0.41725 0.65767 0.0
C110 C 0.26744 0.38966 0.65053 0.0
C111 C 0.25133 0.38123 0.6067 0.0
H112 H 0.16398 0.32948 0.53216 0.0
H113 H 0.1259 0.28256 0.51962 0.0
H114 H 0.14263 0.28094 0.37928 0.0
H115 H 0.18065 0.32792 0.39145 0.0
H116 H 0.21518 0.39109 0.35229 0.0
H117 H 0.24271 0.413 0.28948 0.0
H118 H 0.32767 0.45612 0.38505 0.0
H119 H 0.2995 0.43544 0.44733 0.0
H120 H 0.28222 0.44256 0.54878 0.0
H121 H 0.30956 0.4573 0.62489 0.0
H122 H 0.26315 0.3749 0.67888 0.0
H123 H 0.23526 0.35986 0.60218 0.0
N124 N 0.21531 0.36767 0.51457 0.0
N125 N 0.21445 0.37353 0.43608 0.0
N126 N 0.25287 0.40523 0.48661 0.0
C127 C 0.2019 0.35893 0.47143 0.0
C128 C 0.23989 0.39676 0.4434 0.0
C129 C 0.24076 0.39092 0.52238 0.0
C130 C 0.17576 0.33234 0.46297 0.0
C131 C 0.15923 0.31941 0.49846 0.0
C132 C 0.13715 0.29266 0.49122 0.0
C133 C 0.1314 0.2781 0.44847 0.0
C134 C 0.14682 0.2916 0.41261 0.0
C135 C 0.16854 0.31856 0.41968 0.0
C136 C 0.25514 0.41139 0.40495 0.0
C137 C 0.23954 0.40551 0.35984 0.0
C138 C 0.25547 0.41795 0.32377 0.0
C139 C 0.28752 0.43636 0.33198 0.0
C140 C 0.30262 0.44263 0.37717 0.0
C141 C 0.28655 0.43049 0.4131 0.0
C142 C 0.25642 0.40002 0.56923 0.0
C143 C 0.27764 0.42749 0.57668 0.0
O144 O 0.00609 0.06499 0.63844 0.0
Mg145 Mg 0.05826 0.0597 0.6171 0.0
O146 O 0.97874 0.02653 0.59575 0.0
Mg147 Mg 0.01982 0.0076 0.54943 0.0
O148 O 0.04957 0.0549 0.54866 0.0
O149 O 0.07967 0.09559 0.58312 0.0
O150 O 0.06134 0.98941 0.50369 0.0
O151 O 0.98358 0.03344 0.48569 0.0
Mg152 Mg 0.98067 0.97762 0.49475 0.0
O153 O 0.99021 0.95679 0.55618 0.0
O154 O 0.01877 0.97807 0.44714 0.0
O155 O 0.93413 0.0061 0.48534 0.0
O156 O 0.96029 0.93422 0.49307 0.0
C157 C 0.08532 -0.00447 0.64121 0.0
C158 C 0.9781 0.04808 0.62543 0.0
C159 C 0.06595 0.08162 0.54616 0.0
C160 C 0.05238 0.98158 0.46244 0.0
C161 C 0.94952 0.02973 0.47148 0.0
C162 C 0.9713 0.93356 0.53601 0.0
O163 O 0.09319 0.02431 0.64663 0.0
O164 O 0.05886 0.98627 0.61162 0.0
O165 O 0.58057 0.50669 0.10602 0.0
Mg166 Mg 0.53383 0.47826 0.08904 0.0
O167 O 0.53149 0.53539 0.09409 0.0
Mg168 Mg 0.49668 0.51239 0.02883 0.0
O169 O 0.52484 0.46169 0.02385 0.0
O170 O 0.55039 0.43396 0.08475 0.0
O171 O 0.45728 0.49448 0.96416 0.0
O172 O 0.54208 0.52956 0.98619 0.0
Mg173 Mg 0.47001 0.56886 0.96432 0.0
O174 O 0.46958 0.56097 0.03141 0.0
O175 O 0.43478 0.53689 0.92688 0.0
O176 O 0.52395 0.57344 0.94997 0.0
O177 O 0.44746 0.60465 0.99635 0.0
C178 C 0.4586 0.48582 0.11219 0.0
C179 C 0.56438 0.5317 0.11319 0.0
C180 C 0.5411 0.43647 0.04157 0.0
C181 C 0.43553 0.50739 0.93211 0.0
C182 C 0.54819 0.55273 0.96109 0.0
C183 C 0.45435 0.58828 0.03295 0.0
O184 O 0.49115 0.48029 0.13037 0.0
O185 O 0.45239 0.49482 0.07115 0.0
H186 H 0.06619 0.26105 0.47583 0.0
H187 H 0.12078 0.08791 0.49503 0.0
H188 H 0.1539 0.22519 0.40898 0.0
H189 H 0.01074 0.11762 0.50593 0.0
H190 H 0.12938 0.13507 0.45105 0.0
H191 H 0.04125 0.20792 0.47775 0.0
C192 C 0.07979 0.24203 0.46084 0.0
C193 C 0.11237 0.24739 0.44276 0.0
C194 C 0.1028 0.13076 0.46141 0.0
C195 C 0.08433 0.18655 0.44521 0.0
C196 C 0.09779 0.10362 0.486 0.0
C197 C 0.06502 0.09903 0.50378 0.0
C198 C 0.07526 0.15382 0.4563 0.0
C199 C 0.03633 0.12039 0.49236 0.0
C200 C 0.06543 0.21174 0.46161 0.0
C201 C 0.12874 0.22202 0.42332 0.0
N202 N 0.04246 0.14743 0.47051 0.0
N203 N 0.11502 0.19257 0.42597 0.0
H204 H 0.43811 0.75621 0.17594 0.0
H205 H 0.38843 0.58967 0.06214 0.0
H206 H 0.34254 0.73349 0.08008 0.0
H207 H 0.49996 0.62195 0.09447 0.0
H208 H 0.36797 0.63449 0.1031 0.0
H209 H 0.45715 0.70067 0.1753 0.0
C210 C 0.42096 0.73943 0.15538 0.0
C211 C 0.3891 0.7493 0.12741 0.0
C212 C 0.3971 0.63109 0.10286 0.0
C213 C 0.40985 0.68632 0.12767 0.0
C214 C 0.4088 0.60526 0.08014 0.0
C215 C 0.44581 0.60238 0.07492 0.0
C216 C 0.42264 0.65423 0.11978 0.0
C217 C 0.47114 0.6235 0.098 0.0
C218 C 0.43171 0.70792 0.15515 0.0
C219 C 0.3676 0.72682 0.10154 0.0
N220 N 0.45901 0.64918 0.11851 0.0
N221 N 0.37843 0.69645 0.10217 0.0
H222 H 0.93274 0.74757 0.63462 0.0
H223 H 0.90057 0.92251 0.5407 0.0
H224 H 0.8321 0.78283 0.56006 0.0
H225 H 0.00874 0.8863 0.58612 0.0
H226 H 0.87384 0.87434 0.56531 0.0
H227 H 0.95983 0.80041 0.63252 0.0
C228 C 0.91631 0.76651 0.61826 0.0
C229 C 0.88038 0.76088 0.59689 0.0
C230 C 0.90342 0.87695 0.57075 0.0
C231 C 0.91077 0.82096 0.59484 0.0
C232 C 0.91864 0.90456 0.55708 0.0
C233 C 0.95677 0.90821 0.56162 0.0
C234 C 0.92653 0.85243 0.58845 0.0
C235 C 0.97914 0.88428 0.5825 0.0
C236 C 0.93175 0.79653 0.61701 0.0
C237 C 0.86013 0.78609 0.57623 0.0
N238 N 0.96365 0.85703 0.59465 0.0
N239 N 0.87562 0.81492 0.57562 0.0
H240 H 0.68601 0.29004 0.02664 0.0
H241 H 0.50363 0.38772 0.99544 0.0
H242 H 0.59066 0.25533 0.93977 0.0
H243 H 0.61088 0.4292 0.02857 0.0
H244 H 0.53252 0.33961 0.97123 0.0
H245 H 0.65714 0.34133 0.02736 0.0
C246 C 0.65892 0.29333 0.00761 0.0
C247 C 0.6405 0.26843 0.98349 0.0
C248 C 0.54958 0.35962 0.98252 0.0
C249 C 0.6071 0.32721 0.98405 0.0
C250 C 0.53309 0.38707 0.99586 0.0
C251 C 0.55506 0.41232 0.01349 0.0
C252 C 0.58812 0.35751 0.98808 0.0
C253 C 0.59312 0.41022 0.0147 0.0
C254 C 0.64254 0.32268 0.00767 0.0
C255 C 0.60564 0.27402 0.95887 0.0
N256 N 0.60848 0.38313 0.00293 0.0
N257 N 0.58973 0.30279 0.96031 0.0
H258 H 0.1593 0.95951 0.22565 0.0
H259 H 0.12745 0.97642 0.48481 0.0
H260 H 0.24602 0.94508 0.33742 0.0
H261 H 0.04101 0.97636 0.37047 0.0
H262 H 0.17246 0.96836 0.43248 0.0
H263 H 0.1169 0.96991 0.27929 0.0
C264 C 0.16959 0.95891 0.26154 0.0
C265 C 0.20641 0.9516 0.27698 0.0
C266 C 0.14362 0.97014 0.41898 0.0
C267 C 0.15753 0.96297 0.33899 0.0
C268 C 0.11795 0.97479 0.44878 0.0
C269 C 0.08039 0.97696 0.43201 0.0
C270 C 0.13159 0.968 0.37214 0.0
C271 C 0.06961 0.97463 0.38503 0.0
C272 C 0.14521 0.96457 0.29225 0.0
C273 C 0.21782 0.95044 0.32402 0.0
N274 N 0.09504 0.97036 0.35686 0.0
N275 N 0.19347 0.95609 0.35341 0.0
H276 H 0.70535 0.52009 0.77968 0.0
H277 H 0.5828 0.60593 0.94096 0.0
H278 H 0.70649 0.61986 0.8043 0.0
H279 H 0.59143 0.50518 0.93584 0.0
H280 H 0.63305 0.61055 0.89653 0.0
H281 H 0.66807 0.51295 0.84097 0.0
C282 C 0.69806 0.54043 0.79823 0.0
C283 C 0.70897 0.57063 0.78673 0.0
C284 C 0.62443 0.58736 0.9055 0.0
C285 C 0.66638 0.56267 0.85662 0.0
C286 C 0.59572 0.58474 0.93095 0.0
C287 C 0.58277 0.55514 0.94168 0.0
C288 C 0.63997 0.56016 0.88974 0.0
C289 C 0.60066 0.52844 0.9282 0.0
C290 C 0.67697 0.53633 0.83332 0.0
C291 C 0.6991 0.59611 0.81219 0.0
N292 N 0.62801 0.53156 0.90214 0.0
N293 N 0.67812 0.59157 0.8455 0.0
H294 H 0.84697 0.04143 0.19945 0.0
H295 H 0.96796 0.08553 0.43211 0.0
H296 H 0.86343 0.1393 0.23375 0.0
H297 H 0.89032 0.0088 0.41521 0.0
H298 H 0.941 0.10533 0.3566 0.0
H299 H 0.87712 0.02741 0.275 0.0
C300 C 0.85731 0.05998 0.2227 0.0
C301 C 0.8525 0.09157 0.21039 0.0
C302 C 0.92993 0.08433 0.37002 0.0
C303 C 0.88677 0.07565 0.29706 0.0
C304 C 0.94512 0.07314 0.41295 0.0
C305 C 0.93135 0.04553 0.43009 0.0
C306 C 0.90183 0.06711 0.34402 0.0
C307 C 0.9018 0.03026 0.40378 0.0
C308 C 0.87423 0.05197 0.2659 0.0
C309 C 0.86621 0.11465 0.24219 0.0
N310 N 0.88852 0.04096 0.36197 0.0
N311 N 0.88282 0.10625 0.28427 0.0
H312 H 0.28329 0.47429 0.69645 0.0
H313 H 0.44244 0.44641 0.90218 0.0
H314 H 0.33124 0.3828 0.72304 0.0
H315 H 0.36987 0.52627 0.88887 0.0
H316 H 0.40217 0.4207 0.83946 0.0
H317 H 0.31518 0.49258 0.76883 0.0
C318 C 0.30042 0.458 0.71785 0.0
C319 C 0.30489 0.42711 0.70372 0.0
C320 C 0.39493 0.44365 0.85089 0.0
C321 C 0.34189 0.44787 0.78685 0.0
C322 C 0.4178 0.45824 0.88664 0.0
C323 C 0.40983 0.48873 0.90001 0.0
C324 C 0.36413 0.45982 0.82882 0.0
C325 C 0.37756 0.50305 0.87895 0.0
C326 C 0.31856 0.46836 0.75931 0.0
C327 C 0.32713 0.40682 0.7329 0.0
N328 N 0.35621 0.48864 0.84426 0.0
N329 N 0.34529 0.41768 0.77298 0.0
H330 H 0.69791 0.62586 0.33659 0.0
H331 H 0.53207 0.53838 0.1882 0.0
H332 H 0.64265 0.54648 0.38708 0.0
H333 H 0.62931 0.56346 0.13118 0.0
H334 H 0.56163 0.55696 0.26254 0.0
H335 H 0.66268 0.61717 0.26165 0.0
C336 C 0.67859 0.60655 0.33217 0.0
C337 C 0.67377 0.58662 0.36854 0.0
C338 C 0.57606 0.55909 0.23346 0.0
C339 C 0.6323 0.57774 0.2832 0.0
C340 C 0.55916 0.54887 0.19113 0.0
C341 C 0.57839 0.54972 0.15385 0.0
C342 C 0.61201 0.57081 0.23803 0.0
C343 C 0.61372 0.56268 0.15932 0.0
C344 C 0.65829 0.60191 0.28944 0.0
C345 C 0.6472 0.56274 0.3606 0.0
N346 N 0.62953 0.57282 0.20084 0.0
N347 N 0.62743 0.55902 0.31882 0.0
H348 H 0.81733 0.0262 0.80436 0.0
H349 H 0.95372 0.10343 0.65445 0.0
H350 H 0.81992 0.12545 0.77657 0.0
H351 H 0.92713 0.00487 0.64469 0.0
H352 H 0.90309 0.1116 0.6976 0.0
H353 H 0.85575 0.01703 0.74484 0.0
C354 C 0.82562 0.04599 0.78539 0.0
C355 C 0.81557 0.07666 0.7956 0.0
C356 C 0.90794 0.08821 0.68564 0.0
C357 C 0.8596 0.06638 0.72792 0.0
C358 C 0.93693 0.08354 0.66113 0.0
C359 C 0.94474 0.0534 0.64642 0.0
C360 C 0.88705 0.06244 0.69652 0.0
C361 C 0.92194 0.02848 0.65554 0.0
C362 C 0.84735 0.04073 0.75132 0.0
C363 C 0.82675 0.10141 0.76969 0.0
N364 N 0.89443 0.03344 0.68077 0.0
N365 N 0.84854 0.09577 0.73753 0.0
H366 H 0.32407 0.49218 0.32584 0.0
H367 H 0.39032 0.46006 0.08707 0.0
H368 H 0.29414 0.40688 0.25115 0.0
H369 H 0.45905 0.50344 0.19943 0.0
H370 H 0.34321 0.45068 0.13676 0.0
H371 H 0.36193 0.5072 0.26844 0.0
C372 C 0.32527 0.47661 0.2974 0.0
C373 C 0.30638 0.44783 0.29404 0.0
C374 C 0.3685 0.46254 0.15016 0.0
C375 C 0.34888 0.46554 0.22753 0.0
C376 C 0.39517 0.46799 0.12194 0.0
C377 C 0.42852 0.48233 0.13949 0.0
C378 C 0.37502 0.47241 0.19556 0.0
C379 C 0.43376 0.49205 0.18487 0.0
C380 C 0.34672 0.48536 0.26455 0.0
C381 C 0.30806 0.42929 0.2553 0.0
N382 N 0.40722 0.48704 0.21131 0.0
N383 N 0.32916 0.43838 0.22365 0.0
H384 H 0.25953 0.93418 0.84158 0.0
H385 H 0.05916 0.95525 0.70004 0.0
H386 H 0.15902 0.92325 0.89883 0.0
H387 H 0.1589 0.98786 0.65547 0.0
H388 H 0.09587 0.93083 0.76623 0.0
H389 H 0.22337 0.94211 0.76697 0.0
C390 C 0.22987 0.93316 0.83837 0.0
C391 C 0.21225 0.92847 0.87657 0.0
C392 C 0.10974 0.94265 0.74134 0.0
C393 C 0.17072 0.93749 0.79134 0.0
C394 C 0.08884 0.9562 0.7034 0.0
C395 C 0.10624 0.9734 0.67254 0.0
C396 C 0.14814 0.94631 0.74797 0.0
C397 C 0.14465 0.97469 0.6787 0.0
C398 C 0.20924 0.93774 0.79582 0.0
C399 C 0.1737 0.92746 0.87043 0.0
N400 N 0.16434 0.96156 0.71591 0.0
N401 N 0.15422 0.93211 0.82869 0.0
loop_
_geom_bond_atom_site_label_1
_geom_bond_atom_site_label_2
_geom_bond_distance
_geom_bond_site_symmetry_2
_ccdc_geom_bond_type
C0 C1 1.384 . S
C0 H13 0.947 . S
C0 C35 1.382 . S
C1 C0 1.384 . S
C1 C2 1.378 . S
C2 C1 1.378 . S
C2 C3 1.378 . S
C2 H14 0.952 . S
C3 C2 1.378 . S
C3 H15 0.950 . S
C3 C34 1.383 . S
H4 C23 0.947 . S
H5 C24 0.946 . S
H6 C26 0.953 . S
H7 C27 0.945 . S
H8 C29 0.952 . S
H9 C30 0.949 . S
H10 C32 0.950 . S
H11 C33 0.948 . S
H12 C35 0.951 . S
H13 C0 0.947 . S
H14 C2 0.952 . S
H15 C3 0.950 . S
N16 C19 1.382 . S
N16 C21 1.363 . S
N17 C19 1.371 . S
N17 C20 1.372 . S
N18 C20 1.361 . S
N18 C21 1.377 . S
C19 N16 1.382 . S
C19 N17 1.371 . S
C19 C22 1.480 . S
C20 N17 1.372 . S
C20 N18 1.361 . S
C20 C28 1.465 . S
C21 N16 1.363 . S
C21 N18 1.377 . S
C21 C34 1.479 . S
C22 C19 1.480 . S
C22 C23 1.383 . S
C22 C27 1.385 . S
C23 H4 0.947 . S
C23 C22 1.383 . S
C23 C24 1.388 . S
C24 H5 0.946 . S
C24 C23 1.388 . S
C24 C25 1.384 . S
C25 C24 1.384 . S
C25 C26 1.377 . S
C26 H6 0.953 . S
C26 C25 1.377 . S
C26 C27 1.369 . S
C27 H7 0.945 . S
C27 C22 1.385 . S
C27 C26 1.369 . S
C28 C20 1.465 . S
C28 C29 1.364 1_554 S
C28 C33 1.365 . S
C29 H8 0.952 . S
C29 C28 1.364 1_556 S
C29 C30 1.389 . S
C30 H9 0.949 . S
C30 C29 1.389 . S
C30 C31 1.387 . S
C31 C30 1.387 . S
C31 C32 1.372 . S
C32 H10 0.950 . S
C32 C31 1.372 . S
C32 C33 1.379 1_556 S
C33 H11 0.948 . S
C33 C28 1.365 . S
C33 C32 1.379 1_554 S
C34 C3 1.383 . S
C34 C21 1.479 . S
C34 C35 1.398 . S
C35 C0 1.382 . S
C35 H12 0.951 . S
C35 C34 1.398 . S
C36 C37 1.384 . S
C36 H49 0.947 . S
C36 C71 1.382 . S
C37 C36 1.384 . S
C37 C38 1.378 . S
C38 C37 1.378 . S
C38 C39 1.378 . S
C38 H50 0.952 . S
C39 C38 1.378 . S
C39 H51 0.950 . S
C39 C70 1.383 . S
H40 C59 0.947 . S
H41 C60 0.946 . S
H42 C62 0.953 . S
H43 C63 0.945 . S
H44 C65 0.952 . S
H45 C66 0.949 . S
H46 C68 0.950 . S
H47 C69 0.948 . S
H48 C71 0.951 . S
H49 C36 0.947 . S
H50 C38 0.952 . S
H51 C39 0.950 . S
N52 C55 1.382 . S
N52 C57 1.363 . S
N53 C55 1.371 . S
N53 C56 1.372 . S
N54 C56 1.361 . S
N54 C57 1.377 . S
C55 N52 1.382 . S
C55 N53 1.371 . S
C55 C58 1.480 . S
C56 N53 1.372 . S
C56 N54 1.361 . S
C56 C64 1.457 . S
C57 N52 1.363 . S
C57 N54 1.377 . S
C57 C70 1.479 . S
C58 C55 1.480 . S
C58 C59 1.383 . S
C58 C63 1.385 . S
C59 H40 0.947 . S
C59 C58 1.383 . S
C59 C60 1.388 . S
C60 H41 0.946 . S
C60 C59 1.388 . S
C60 C61 1.384 . S
C61 C60 1.384 . S
C61 C62 1.377 . S
C62 H42 0.953 . S
C62 C61 1.377 . S
C62 C63 1.369 . S
C63 H43 0.945 . S
C63 C58 1.385 . S
C63 C62 1.369 . S
C64 C56 1.457 . S
C64 C65 1.372 . S
C64 C69 1.364 . S
C65 H44 0.952 . S
C65 C64 1.372 . S
C65 C66 1.389 . S
C66 H45 0.949 . S
C66 C65 1.389 . S
C66 C67 1.387 . S
C67 C66 1.387 . S
C67 C68 1.372 . S
C68 H46 0.950 . S
C68 C67 1.372 . S
C68 C69 1.379 . S
C69 H47 0.948 . S
C69 C64 1.364 . S
C69 C68 1.379 . S
C70 C39 1.383 . S
C70 C57 1.479 . S
C70 C71 1.398 . S
C71 C36 1.382 . S
C71 H48 0.951 . S
C71 C70 1.398 . S
C72 C73 1.384 . S
C72 H85 0.947 . S
C72 C107 1.382 . S
C73 C72 1.384 . S
C73 C74 1.378 . S
C74 C73 1.378 . S
C74 C75 1.378 . S
C74 H86 0.952 . S
C75 C74 1.378 . S
C75 H87 0.950 . S
C75 C106 1.383 . S
H76 C95 0.947 . S
H77 C96 0.946 . S
H78 C98 0.953 . S
H79 C99 0.945 . S
H80 C101 0.952 . S
H81 C102 0.949 . S
H82 C104 0.950 . S
H83 C105 0.948 . S
H84 C107 0.951 . S
H85 C72 0.947 . S
H86 C74 0.952 . S
H87 C75 0.950 . S
N88 C91 1.382 1_556 S
N88 C93 1.363 . S
N89 C91 1.371 . S
N89 C92 1.372 . S
N90 C92 1.361 . S
N90 C93 1.377 1_554 S
C91 N88 1.382 1_554 S
C91 N89 1.371 . S
C91 C94 1.480 . S
C92 N89 1.372 . S
C92 N90 1.361 . S
C92 C100 1.457 . S
C93 N88 1.363 . S
C93 N90 1.377 1_556 S
C93 C106 1.479 . S
C94 C91 1.480 . S
C94 C95 1.385 1_554 S
C94 C99 1.383 . S
C95 H76 0.947 . S
C95 C94 1.385 1_556 S
C95 C96 1.388 . S
C96 H77 0.946 . S
C96 C95 1.388 . S
C96 C97 1.384 . S
C97 C96 1.384 . S
C97 C98 1.377 1_556 S
C98 H78 0.953 . S
C98 C97 1.377 1_554 S
C98 C99 1.369 . S
C99 H79 0.945 . S
C99 C94 1.383 . S
C99 C98 1.369 . S
C100 C92 1.457 . S
C100 C101 1.372 . S
C100 C105 1.364 . S
C101 H80 0.952 . S
C101 C100 1.372 . S
C101 C102 1.389 . S
C102 H81 0.949 . S
C102 C101 1.389 . S
C102 C103 1.387 . S
C103 C102 1.387 . S
C103 C104 1.372 . S
C104 H82 0.950 . S
C104 C103 1.372 . S
C104 C105 1.379 . S
C105 H83 0.948 . S
C105 C100 1.364 . S
C105 C104 1.379 . S
C106 C75 1.383 . S
C106 C93 1.479 . S
C106 C107 1.398 . S
C107 C72 1.382 . S
C107 H84 0.951 . S
C107 C106 1.398 . S
C108 C109 1.384 . S
C108 H121 0.947 . S
C108 C143 1.382 . S
C109 C108 1.384 . S
C109 C110 1.378 . S
C110 C109 1.378 . S
C110 C111 1.378 . S
C110 H122 0.952 . S
C111 C110 1.378 . S
C111 H123 0.950 . S
C111 C142 1.383 . S
H112 C131 0.947 . S
H113 C132 0.946 . S
H114 C134 0.953 . S
H115 C135 0.945 . S
H116 C137 0.952 . S
H117 C138 0.949 . S
H118 C140 0.950 . S
H119 C141 0.948 . S
H120 C143 0.951 . S
H121 C108 0.947 . S
H122 C110 0.952 . S
H123 C111 0.950 . S
N124 C127 1.382 . S
N124 C129 1.363 . S
N125 C127 1.371 . S
N125 C128 1.372 . S
N126 C128 1.361 . S
N126 C129 1.377 . S
C127 N124 1.382 . S
C127 N125 1.371 . S
C127 C130 1.480 . S
C128 N125 1.372 . S
C128 N126 1.361 . S
C128 C136 1.457 . S
C129 N124 1.363 . S
C129 N126 1.377 . S
C129 C142 1.479 . S
C130 C127 1.480 . S
C130 C131 1.383 . S
C130 C135 1.385 . S
C131 H112 0.947 . S
C131 C130 1.383 . S
C131 C132 1.388 . S
C132 H113 0.946 . S
C132 C131 1.388 . S
C132 C133 1.384 . S
C133 C132 1.384 . S
C133 C134 1.377 . S
C134 H114 0.953 . S
C134 C133 1.377 . S
C134 C135 1.369 . S
C135 H115 0.945 . S
C135 C130 1.385 . S
C135 C134 1.369 . S
C136 C128 1.457 . S
C136 C137 1.372 . S
C136 C141 1.364 . S
C137 H116 0.952 . S
C137 C136 1.372 . S
C137 C138 1.389 . S
C138 H117 0.949 . S
C138 C137 1.389 . S
C138 C139 1.387 . S
C139 C138 1.387 . S
C139 C140 1.372 . S
C140 H118 0.950 . S
C140 C139 1.372 . S
C140 C141 1.379 . S
C141 H119 0.948 . S
C141 C136 1.364 . S
C141 C140 1.379 . S
C142 C111 1.383 . S
C142 C129 1.479 . S
C142 C143 1.398 . S
C143 C108 1.382 . S
C143 H120 0.951 . S
C143 C142 1.398 . S
O144 Mg145 1.990 1_655 S
O144 C158 1.253 . S
Mg145 O144 1.990 1_455 S
Mg145 O148 2.180 . S
Mg145 O149 2.117 . S
Mg145 O163 2.030 . S
O146 Mg147 2.072 1_655 S
O146 C158 1.260 . S
Mg147 O146 2.072 1_455 S
Mg147 O148 2.099 . S
Mg147 O150 2.079 1_545 S
Mg147 O151 2.072 1_455 S
Mg147 O153 2.099 1_445 S
Mg147 O164 2.079 1_545 S
O148 Mg145 2.180 . S
O148 Mg147 2.099 . S
O148 C159 1.279 . S
O149 Mg145 2.117 . S
O149 C159 1.250 . S
O150 Mg147 2.079 1_565 S
O150 C160 1.264 . S
O151 Mg147 2.072 1_655 S
O151 C161 1.260 . S
Mg152 O153 2.180 . S
Mg152 O154 2.030 1_655 S
Mg152 O155 1.990 1_565 S
Mg152 O156 2.117 . S
O153 Mg147 2.099 1_665 S
O153 Mg152 2.180 . S
O153 C162 1.279 . S
O154 Mg152 2.030 1_455 S
O154 C160 1.248 . S
O155 Mg152 1.990 1_545 S
O155 C161 1.253 . S
O156 Mg152 2.117 . S
O156 C162 1.250 . S
C157 O163 1.248 1_565 S
C157 O164 1.264 . S
C158 O144 1.253 . S
C158 O146 1.260 . S
C159 O148 1.279 . S
C159 O149 1.250 . S
C160 O150 1.264 . S
C160 O154 1.248 . S
C161 O151 1.260 . S
C161 O155 1.253 . S
C162 O153 1.279 . S
C162 O156 1.250 . S
O163 Mg145 2.030 . S
O163 C157 1.248 1_545 S
O164 Mg147 2.079 1_565 S
O164 C157 1.264 . S
O165 Mg166 1.990 . S
O165 C179 1.253 . S
Mg166 O165 1.990 . S
Mg166 O169 2.180 . S
Mg166 O170 2.117 . S
Mg166 O184 2.030 . S
O167 Mg168 2.072 . S
O167 C179 1.260 . S
Mg168 O167 2.072 . S
Mg168 O169 2.099 . S
Mg168 O171 2.079 1_554 S
Mg168 O172 2.072 1_554 S
Mg168 O174 2.099 . S
Mg168 O185 2.079 . S
O169 Mg166 2.180 . S
O169 Mg168 2.099 . S
O169 C180 1.279 . S
O170 Mg166 2.117 . S
O170 C180 1.250 . S
O171 Mg168 2.079 1_556 S
O171 C181 1.264 . S
O172 Mg168 2.072 1_556 S
O172 C182 1.260 . S
Mg173 O174 2.180 1_556 S
Mg173 O175 2.030 . S
Mg173 O176 1.990 . S
Mg173 O177 2.117 . S
O174 Mg168 2.099 . S
O174 Mg173 2.180 1_554 S
O174 C183 1.279 . S
O175 Mg173 2.030 . S
O175 C181 1.248 . S
O176 Mg173 1.990 . S
O176 C182 1.253 . S
O177 Mg173 2.117 . S
O177 C183 1.250 1_556 S
C178 O184 1.248 . S
C178 O185 1.264 . S
C179 O165 1.253 . S
C179 O167 1.260 . S
C180 O169 1.279 . S
C180 O170 1.250 . S
C181 O171 1.264 . S
C181 O175 1.248 . S
C182 O172 1.260 . S
C182 O176 1.253 . S
C183 O174 1.279 . S
C183 O177 1.250 1_554 S
O184 Mg166 2.030 . S
O184 C178 1.248 . S
O185 Mg168 2.079 . S
O185 C178 1.264 . S
H186 C192 0.930 . S
H187 C196 0.930 . S
H188 C201 0.929 . S
H189 C199 0.929 . S
H190 C194 0.929 . S
H191 C200 0.929 . S
C192 H186 0.930 . S
C192 C193 1.367 . S
C192 C200 1.378 . S
C193 C192 1.367 . S
C193 C201 1.433 . S
C194 H190 0.929 . S
C194 C196 1.378 . S
C194 C198 1.350 . S
C195 C198 1.463 . S
C195 C200 1.350 . S
C195 N203 1.427 . S
C196 H187 0.930 . S
C196 C194 1.378 . S
C196 C197 1.367 . S
C197 C196 1.367 . S
C197 C199 1.433 . S
C198 C194 1.350 . S
C198 C195 1.463 . S
C198 N202 1.427 . S
C199 H189 0.929 . S
C199 C197 1.433 . S
C199 N202 1.384 . S
C200 H191 0.929 . S
C200 C192 1.378 . S
C200 C195 1.350 . S
C201 H188 0.929 . S
C201 C193 1.433 . S
C201 N203 1.384 . S
N202 C198 1.427 . S
N202 C199 1.384 . S
N203 C195 1.427 . S
N203 C201 1.384 . S
H204 C210 0.930 . S
H205 C214 0.930 1_556 S
H206 C219 0.929 . S
H207 C217 0.929 . S
H208 C212 0.939 . S
H209 C218 0.929 . S
C210 H204 0.930 . S
C210 C211 1.367 . S
C210 C218 1.378 . S
C211 C210 1.367 . S
C211 C219 1.433 . S
C212 H208 0.939 . S
C212 C214 1.378 . S
C212 C216 1.350 . S
C213 C216 1.463 . S
C213 C218 1.350 . S
C213 N221 1.427 . S
C214 H205 0.930 1_554 S
C214 C212 1.378 . S
C214 C215 1.367 . S
C215 C214 1.367 . S
C215 C217 1.433 . S
C216 C212 1.350 . S
C216 C213 1.463 . S
C216 N220 1.427 . S
C217 H207 0.929 . S
C217 C215 1.433 . S
C217 N220 1.384 . S
C218 H209 0.929 . S
C218 C210 1.378 . S
C218 C213 1.350 . S
C219 H206 0.929 . S
C219 C211 1.433 . S
C219 N221 1.384 . S
N220 C216 1.427 . S
N220 C217 1.384 . S
N221 C213 1.427 . S
N221 C219 1.384 . S
H222 C228 0.930 . S
H223 C232 0.930 . S
H224 C237 0.929 . S
H225 C235 0.929 . S
H226 C230 0.929 . S
H227 C236 0.929 . S
C228 H222 0.930 . S
C228 C229 1.367 . S
C228 C236 1.378 . S
C229 C228 1.367 . S
C229 C237 1.433 . S
C230 H226 0.929 . S
C230 C232 1.378 . S
C230 C234 1.350 . S
C231 C234 1.463 . S
C231 C236 1.350 . S
C231 N239 1.427 . S
C232 H223 0.930 . S
C232 C230 1.378 . S
C232 C233 1.367 . S
C233 C232 1.367 . S
C233 C235 1.433 . S
C234 C230 1.350 . S
C234 C231 1.463 . S
C234 N238 1.427 . S
C235 H225 0.929 . S
C235 C233 1.433 . S
C235 N238 1.384 . S
C236 H227 0.929 . S
C236 C228 1.378 . S
C236 C231 1.350 . S
C237 H224 0.929 . S
C237 C229 1.433 . S
C237 N239 1.384 . S
N238 C234 1.427 . S
N238 C235 1.384 . S
N239 C231 1.427 . S
N239 C237 1.384 . S
H240 C246 0.930 . S
H241 C250 0.930 . S
H242 C255 0.929 . S
H243 C253 0.929 . S
H244 C248 0.929 . S
H245 C254 0.929 . S
C246 H240 0.930 . S
C246 C247 1.367 1_554 S
C246 C254 1.378 . S
C247 C246 1.367 1_556 S
C247 C255 1.433 . S
C248 H244 0.929 . S
C248 C250 1.378 . S
C248 C252 1.350 1_556 S
C249 C252 1.463 . S
C249 C254 1.350 . S
C249 N257 1.427 1_554 S
C250 H241 0.930 . S
C250 C248 1.378 . S
C250 C251 1.367 1_556 S
C251 C250 1.367 1_554 S
C251 C253 1.433 . S
C252 C248 1.350 1_554 S
C252 C249 1.463 . S
C252 N256 1.427 . S
C253 H243 0.929 . S
C253 C251 1.433 . S
C253 N256 1.384 . S
C254 H245 0.929 . S
C254 C246 1.378 . S
C254 C249 1.350 . S
C255 H242 0.929 . S
C255 C247 1.433 . S
C255 N257 1.384 . S
N256 C252 1.427 . S
N256 C253 1.384 . S
N257 C249 1.427 1_556 S
N257 C255 1.384 . S
H258 C264 0.930 . S
H259 C268 0.930 . S
H260 C273 0.929 . S
H261 C271 0.929 . S
H262 C266 0.929 . S
H263 C272 0.929 . S
C264 H258 0.930 . S
C264 C265 1.367 . S
C264 C272 1.378 . S
C265 C264 1.367 . S
C265 C273 1.433 . S
C266 H262 0.929 . S
C266 C268 1.378 . S
C266 C270 1.350 . S
C267 C270 1.463 . S
C267 C272 1.350 . S
C267 N275 1.427 . S
C268 H259 0.930 . S
C268 C266 1.378 . S
C268 C269 1.367 . S
C269 C268 1.367 . S
C269 C271 1.433 . S
C270 C266 1.350 . S
C270 C267 1.463 . S
C270 N274 1.427 . S
C271 H261 0.929 . S
C271 C269 1.433 . S
C271 N274 1.384 . S
C272 H263 0.929 . S
C272 C264 1.378 . S
C272 C267 1.350 . S
C273 H260 0.929 . S
C273 C265 1.433 . S
C273 N275 1.384 . S
N274 C270 1.427 . S
N274 C271 1.384 . S
N275 C267 1.427 . S
N275 C273 1.384 . S
H276 C282 0.930 . S
H277 C286 0.930 . S
H278 C291 0.929 . S
H279 C289 0.929 . S
H280 C284 0.929 . S
H281 C290 0.929 . S
C282 H276 0.930 . S
C282 C283 1.367 . S
C282 C290 1.378 . S
C283 C282 1.367 . S
C283 C291 1.433 . S
C284 H280 0.929 . S
C284 C286 1.378 . S
C284 C288 1.350 . S
C285 C288 1.463 . S
C285 C290 1.350 . S
C285 N293 1.427 . S
C286 H277 0.930 . S
C286 C284 1.378 . S
C286 C287 1.367 . S
C287 C286 1.367 . S
C287 C289 1.433 . S
C288 C284 1.350 . S
C288 C285 1.463 . S
C288 N292 1.427 . S
C289 H279 0.929 . S
C289 C287 1.433 . S
C289 N292 1.384 . S
C290 H281 0.929 . S
C290 C282 1.378 . S
C290 C285 1.350 . S
C291 H278 0.929 . S
C291 C283 1.433 . S
C291 N293 1.384 . S
N292 C288 1.427 . S
N292 C289 1.384 . S
N293 C285 1.427 . S
N293 C291 1.384 . S
H294 C300 0.930 . S
H295 C304 0.930 . S
H296 C309 0.929 . S
H297 C307 0.934 . S
H298 C302 0.929 . S
H299 C308 0.929 . S
C300 H294 0.930 . S
C300 C301 1.367 . S
C300 C308 1.378 . S
C301 C300 1.367 . S
C301 C309 1.433 . S
C302 H298 0.929 . S
C302 C304 1.378 . S
C302 C306 1.350 . S
C303 C306 1.463 . S
C303 C308 1.350 . S
C303 N311 1.427 . S
C304 H295 0.930 . S
C304 C302 1.378 . S
C304 C305 1.367 . S
C305 C304 1.367 . S
C305 C307 1.433 . S
C306 C302 1.350 . S
C306 C303 1.463 . S
C306 N310 1.427 . S
C307 H297 0.934 . S
C307 C305 1.433 . S
C307 N310 1.384 . S
C308 H299 0.929 . S
C308 C300 1.378 . S
C308 C303 1.350 . S
C309 H296 0.929 . S
C309 C301 1.433 . S
C309 N311 1.384 . S
N310 C306 1.427 . S
N310 C307 1.384 . S
N311 C303 1.427 . S
N311 C309 1.384 . S
H312 C318 0.930 . S
H313 C322 0.930 . S
H314 C327 0.929 . S
H315 C325 0.929 . S
H316 C320 0.929 . S
H317 C326 0.929 . S
C318 H312 0.930 . S
C318 C319 1.367 . S
C318 C326 1.378 . S
C319 C318 1.367 . S
C319 C327 1.433 . S
C320 H316 0.929 . S
C320 C322 1.378 . S
C320 C324 1.350 . S
C321 C324 1.463 . S
C321 C326 1.350 . S
C321 N329 1.427 . S
C322 H313 0.930 . S
C322 C320 1.378 . S
C322 C323 1.367 . S
C323 C322 1.367 . S
C323 C325 1.433 . S
C324 C320 1.350 . S
C324 C321 1.463 . S
C324 N328 1.427 . S
C325 H315 0.929 . S
C325 C323 1.433 . S
C325 N328 1.384 . S
C326 H317 0.929 . S
C326 C318 1.378 . S
C326 C321 1.350 . S
C327 H314 0.929 . S
C327 C319 1.433 . S
C327 N329 1.384 . S
N328 C324 1.427 . S
N328 C325 1.384 . S
N329 C321 1.427 . S
N329 C327 1.384 . S
H330 C336 0.930 . S
H331 C340 0.930 . S
H332 C345 0.929 . S
H333 C343 0.929 . S
H334 C338 0.929 . S
H335 C344 0.929 . S
C336 H330 0.930 . S
C336 C337 1.367 . S
C336 C344 1.378 . S
C337 C336 1.367 . S
C337 C345 1.433 . S
C338 H334 0.929 . S
C338 C340 1.378 . S
C338 C342 1.350 . S
C339 C342 1.463 . S
C339 C344 1.350 . S
C339 N347 1.427 . S
C340 H331 0.930 . S
C340 C338 1.378 . S
C340 C341 1.367 . S
C341 C340 1.367 . S
C341 C343 1.433 . S
C342 C338 1.350 . S
C342 C339 1.463 . S
C342 N346 1.427 . S
C343 H333 0.929 . S
C343 C341 1.433 . S
C343 N346 1.384 . S
C344 H335 0.929 . S
C344 C336 1.378 . S
C344 C339 1.350 . S
C345 H332 0.929 . S
C345 C337 1.433 . S
C345 N347 1.384 . S
N346 C342 1.427 . S
N346 C343 1.384 . S
N347 C339 1.427 . S
N347 C345 1.384 . S
H348 C354 0.930 . S
H349 C358 0.930 . S
H350 C363 0.929 . S
H351 C361 0.929 1_565 S
H352 C356 0.929 . S
H353 C362 0.929 . S
C354 H348 0.930 . S
C354 C355 1.367 . S
C354 C362 1.378 . S
C355 C354 1.367 . S
C355 C363 1.433 . S
C356 H352 0.929 . S
C356 C358 1.378 . S
C356 C360 1.350 . S
C357 C360 1.463 . S
C357 C362 1.350 . S
C357 N365 1.427 . S
C358 H349 0.930 . S
C358 C356 1.378 . S
C358 C359 1.367 . S
C359 C358 1.367 . S
C359 C361 1.433 . S
C360 C356 1.350 . S
C360 C357 1.463 . S
C360 N364 1.427 . S
C361 H351 0.929 1_545 S
C361 C359 1.433 . S
C361 N364 1.384 . S
C362 H353 0.929 . S
C362 C354 1.378 . S
C362 C357 1.350 . S
C363 H350 0.929 . S
C363 C355 1.433 . S
C363 N365 1.384 . S
N364 C360 1.427 . S
N364 C361 1.384 . S
N365 C357 1.427 . S
N365 C363 1.384 . S
H366 C372 0.930 . S
H367 C376 0.930 . S
H368 C381 0.929 . S
H369 C379 0.929 . S
H370 C374 0.929 . S
H371 C380 0.929 . S
C372 H366 0.930 . S
C372 C373 1.367 . S
C372 C380 1.378 . S
C373 C372 1.367 . S
C373 C381 1.433 . S
C374 H370 0.929 . S
C374 C376 1.378 . S
C374 C378 1.350 . S
C375 C378 1.463 . S
C375 C380 1.350 . S
C375 N383 1.427 . S
C376 H367 0.930 . S
C376 C374 1.378 . S
C376 C377 1.367 . S
C377 C376 1.367 . S
C377 C379 1.433 . S
C378 C374 1.350 . S
C378 C375 1.463 . S
C378 N382 1.427 . S
C379 H369 0.929 . S
C379 C377 1.433 . S
C379 N382 1.384 . S
C380 H371 0.929 . S
C380 C372 1.378 . S
C380 C375 1.350 . S
C381 H368 0.929 . S
C381 C373 1.433 . S
C381 N383 1.384 . S
N382 C378 1.427 . S
N382 C379 1.384 . S
N383 C375 1.427 . S
N383 C381 1.384 . S
H384 C390 0.930 . S
H385 C394 0.930 . S
H386 C399 0.929 . S
H387 C397 0.929 . S
H388 C392 0.929 . S
H389 C398 0.929 . S
C390 H384 0.930 . S
C390 C391 1.367 . S
C390 C398 1.378 . S
C391 C390 1.367 . S
C391 C399 1.433 . S
C392 H388 0.929 . S
C392 C394 1.378 . S
C392 C396 1.350 . S
C393 C396 1.463 . S
C393 C398 1.350 . S
C393 N401 1.427 . S
C394 H385 0.930 . S
C394 C392 1.378 . S
C394 C395 1.367 . S
C395 C394 1.367 . S
C395 C397 1.433 . S
C396 C392 1.350 . S
C396 C393 1.463 . S
C396 N400 1.427 . S
C397 H387 0.929 . S
C397 C395 1.433 . S
C397 N400 1.384 . S
C398 H389 0.929 . S
C398 C390 1.378 . S
C398 C393 1.350 . S
C399 H386 0.929 . S
C399 C391 1.433 . S
C399 N401 1.384 . S
N400 C396 1.427 . S
N400 C397 1.384 . S
N401 C393 1.427 . S
N401 C399 1.384 . S
C197 C159 1.365 . S
C193 C133 1.512 . S
C211 C25 1.541 . S
C215 C183 1.344 . S
C229 C61 1.684 . S
C233 C162 1.465 . S
C247 C97 1.630 . S
C251 C180 1.477 . S
C269 C160 1.619 . S
C265 C1 1.625 . S
C287 C182 1.575 . S
C283 C67 1.618 . S
C301 C103 1.572 . S
C305 C161 1.527 . S
C319 C109 1.582 . S
C323 C181 1.541 . S
C341 C179 1.513 . S
C337 C37 1.598 . S
C359 C158 1.574 . S
C355 C73 1.604 . S
C377 C178 1.620 . S
C373 C139 1.579 . S
C391 C31 1.616 . S
C395 C157 1.534 . S
