# Generated by pormake.
# Topology zzz, (3,6)-cn, num edge types: 1
# Building blocks:
#     Node 0, Type 0, BuildingBlock: BETDIP_clean_linker_0, # of connection points: 3
#     Node 1, Type 0, BuildingBlock: BETDIP_clean_linker_0, # of connection points: 3
#     Node 2, Type 0, BuildingBlock: BETDIP_clean_linker_0, # of connection points: 3
#     Node 3, Type 0, BuildingBlock: BETDIP_clean_linker_0, # of connection points: 3
#     Node 4, Type 0, BuildingBlock: BETDIP_clean_linker_0, # of connection points: 3
#     Node 5, Type 0, BuildingBlock: BETDIP_clean_linker_0, # of connection points: 3
#     Node 6, Type 0, BuildingBlock: BETDIP_clean_linker_0, # of connection points: 3
#     Node 7, Type 0, BuildingBlock: BETDIP_clean_linker_0, # of connection points: 3
#     Node 8, Type 1, BuildingBlock: JUFBIX_clean_sbu_0, # of connection points: 6
#     Node 9, Type 1, BuildingBlock: JUFBIX_clean_sbu_0, # of connection points: 6
#     Node 10, Type 1, BuildingBlock: JUFBIX_clean_sbu_0, # of connection points: 6
#     Node 11, Type 1, BuildingBlock: JUFBIX_clean_sbu_0, # of connection points: 6
#     Edge 12, Type (0, 1), BuildingBlock: KIFKEQ_clean_linker_1, # of connection points: 2
#     Edge 13, Type (0, 1), BuildingBlock: KIFKEQ_clean_linker_1, # of connection points: 2
#     Edge 14, Type (0, 1), BuildingBlock: KIFKEQ_clean_linker_1, # of connection points: 2
#     Edge 15, Type (0, 1), BuildingBlock: KIFKEQ_clean_linker_1, # of connection points: 2
#     Edge 16, Type (0, 1), BuildingBlock: KIFKEQ_clean_linker_1, # of connection points: 2
#     Edge 17, Type (0, 1), BuildingBlock: KIFKEQ_clean_linker_1, # of connection points: 2
#     Edge 18, Type (0, 1), BuildingBlock: KIFKEQ_clean_linker_1, # of connection points: 2
#     Edge 19, Type (0, 1), BuildingBlock: KIFKEQ_clean_linker_1, # of connection points: 2
#     Edge 20, Type (0, 1), BuildingBlock: KIFKEQ_clean_linker_1, # of connection points: 2
#     Edge 21, Type (0, 1), BuildingBlock: KIFKEQ_clean_linker_1, # of connection points: 2
#     Edge 22, Type (0, 1), BuildingBlock: KIFKEQ_clean_linker_1, # of connection points: 2
#     Edge 23, Type (0, 1), BuildingBlock: KIFKEQ_clean_linker_1, # of connection points: 2
#     Edge 24, Type (0, 1), BuildingBlock: KIFKEQ_clean_linker_1, # of connection points: 2
#     Edge 25, Type (0, 1), BuildingBlock: KIFKEQ_clean_linker_1, # of connection points: 2
#     Edge 26, Type (0, 1), BuildingBlock: KIFKEQ_clean_linker_1, # of connection points: 2
#     Edge 27, Type (0, 1), BuildingBlock: KIFKEQ_clean_linker_1, # of connection points: 2
#     Edge 28, Type (0, 1), BuildingBlock: KIFKEQ_clean_linker_1, # of connection points: 2
#     Edge 29, Type (0, 1), BuildingBlock: KIFKEQ_clean_linker_1, # of connection points: 2
#     Edge 30, Type (0, 1), BuildingBlock: KIFKEQ_clean_linker_1, # of connection points: 2
#     Edge 31, Type (0, 1), BuildingBlock: KIFKEQ_clean_linker_1, # of connection points: 2
#     Edge 32, Type (0, 1), BuildingBlock: KIFKEQ_clean_linker_1, # of connection points: 2
#     Edge 33, Type (0, 1), BuildingBlock: KIFKEQ_clean_linker_1, # of connection points: 2
#     Edge 34, Type (0, 1), BuildingBlock: KIFKEQ_clean_linker_1, # of connection points: 2
#     Edge 35, Type (0, 1), BuildingBlock: KIFKEQ_clean_linker_1, # of connection points: 2
# Relax obj value: 0.120
# Max RMSD: 0.176
# Mean RMSD: 0.086
data_MOF--net-zzz--node1-JUFBIX_clean_sbu_0--node2-BETDIP_clean_linker_0--edge1-KIFKEQ_clean_linker_1
_symmetry_space_group_name_H-M    P1
_symmetry_Int_Tables_number       1
_symmetry_cell_setting            triclinic
loop_
_symmetry_equiv_pos_as_xyz
'x, y, z'
_cell_length_a     52.593679
_cell_length_b     52.351708
_cell_length_c     17.826841
_cell_angle_alpha  81.694896
_cell_angle_beta   89.858843
_cell_angle_gamma 91.370895
loop_
_atom_site_label
_atom_site_type_symbol
_atom_site_fract_x
_atom_site_fract_y
_atom_site_fract_z
_atom_type_partial_charge
H0 H 0.79271 0.50712 0.3977 0.0
H1 H 0.79999 0.50413 0.15787 0.0
H2 H 0.86378 0.48701 0.30383 0.0
H3 H 0.77136 0.54604 0.18213 0.0
C4 C 0.75873 0.52997 0.20441 0.0
C5 C 0.80398 0.50342 0.34964 0.0
C6 C 0.82963 0.49659 0.3596 0.0
C7 C 0.7931 0.506 0.27677 0.0
C8 C 0.80808 0.50192 0.21423 0.0
C9 C 0.83333 0.49444 0.22462 0.0
C10 C 0.84383 0.49168 0.29698 0.0
N11 N 0.76701 0.512 0.26656 0.0
H12 H 0.99663 0.75341 0.38898 0.0
H13 H 0.01643 0.77204 0.15213 0.0
H14 H 0.02698 0.82884 0.30098 0.0
H15 H 0.96968 0.74632 0.17125 0.0
C16 C 0.98255 0.73106 0.19285 0.0
C17 C 1.00441 0.76688 0.34227 0.0
C18 C 0.01223 0.79194 0.35377 0.0
C19 C 1.00596 0.75963 0.26922 0.0
C20 C 0.01533 0.77753 0.20836 0.0
C21 C 0.0234 0.80237 0.21977 0.0
C22 C 0.02192 0.80924 0.29255 0.0
N23 N 0.99797 0.73451 0.25628 0.0
H24 H 0.76792 0.99619 0.29144 0.0
H25 H 0.75219 0.01808 0.05345 0.0
H26 H 0.69349 0.02103 0.21937 0.0
H27 H 0.78136 0.98167 0.05684 0.0
C28 C 0.79589 0.99133 0.08659 0.0
C29 C 0.75501 1.00345 0.24653 0.0
C30 C 0.72975 1.00869 0.26402 0.0
C31 C 0.76332 1.00685 0.17042 0.0
C32 C 0.74608 0.01547 0.11219 0.0
C33 C 0.72098 0.02109 0.12976 0.0
C34 C 0.71318 0.01784 0.20564 0.0
N35 N 0.78899 1.00169 0.15315 0.0
H36 H 0.52167 0.74298 0.30888 0.0
H37 H 0.51768 0.72976 0.07518 0.0
H38 H 0.52061 0.66571 0.25421 0.0
H39 H 0.54588 0.76702 0.06979 0.0
C40 C 0.53301 0.77856 0.09808 0.0
C41 C 0.52061 0.7299 0.26706 0.0
C42 C 0.52135 0.70309 0.29015 0.0
C43 C 0.51969 0.73979 0.18917 0.0
C44 C 0.51859 0.7225 0.13515 0.0
C45 C 0.51919 0.69578 0.15861 0.0
C46 C 0.52027 0.68641 0.23586 0.0
N47 N 0.52044 0.76701 0.16586 0.0
H48 H 0.24379 0.51575 0.16371 0.0
H49 H 0.23229 0.53046 0.39352 0.0
H50 H 0.16841 0.52625 0.24652 0.0
H51 H 0.27011 0.56047 0.33228 0.0
C52 C 0.27984 0.54242 0.33111 0.0
C53 C 0.2312 0.51921 0.20918 0.0
C54 C 0.20479 0.5208 0.1969 0.0
C55 C 0.24132 0.52338 0.27985 0.0
C56 C 0.22475 0.52787 0.33853 0.0
C57 C 0.1985 0.52909 0.3264 0.0
C58 C 0.18881 0.52561 0.25573 0.0
N59 N 0.26807 0.52344 0.29206 0.0
H60 H 0.0231 0.26513 0.16587 0.0
H61 H 1.00606 0.24128 0.40323 0.0
H62 H 0.01652 0.18451 0.2557 0.0
H63 H 0.97597 0.27888 0.35614 0.0
C64 C 0.99349 0.2904 0.34699 0.0
C65 C 0.0196 0.25002 0.21327 0.0
C66 C 0.02037 0.22388 0.20274 0.0
C67 C 0.0136 0.25641 0.28553 0.0
C68 C 1.00961 0.23653 0.34702 0.0
C69 C 0.01127 0.21061 0.33687 0.0
C70 C 0.016 0.2046 0.26443 0.0
N71 N 0.01217 0.28268 0.29732 0.0
H72 H 0.26135 1.0091 0.27603 0.0
H73 H 0.28218 1.00837 0.51114 0.0
H74 H 0.33992 0.0121 0.34017 0.0
H75 H 0.24599 0.98376 0.5287 0.0
C76 C 0.23315 0.99517 0.49046 0.0
C77 C 0.27566 1.00942 0.31949 0.0
C78 C 0.30164 0.01083 0.29958 0.0
C79 C 0.26831 1.00779 0.39641 0.0
C80 C 0.28728 1.00855 0.45222 0.0
C81 C 0.31307 0.01043 0.43186 0.0
C82 C 0.31993 0.01128 0.35592 0.0
N83 N 0.24196 1.00594 0.41664 0.0
H84 H 0.50855 0.27934 0.26196 0.0
H85 H 0.52306 0.29232 0.49253 0.0
H86 H 0.5155 0.35651 0.31689 0.0
H87 H 0.54355 0.25503 0.49625 0.0
C88 C 0.53035 0.24336 0.46792 0.0
C89 C 0.51176 0.2923 0.30336 0.0
C90 C 0.51113 0.3192 0.28104 0.0
C91 C 0.51667 0.28222 0.37965 0.0
C92 C 0.5203 0.29945 0.43313 0.0
C93 C 0.52042 0.32618 0.41009 0.0
C94 C 0.5158 0.33577 0.33443 0.0
N95 N 0.51742 0.25492 0.40184 0.0
Co96 Co 0.0229 0.01788 0.82657 0.0
C97 C 0.97174 1.00347 0.8474 0.0
Co98 Co 1.00751 0.99611 0.73761 0.0
C99 C 0.02707 0.06126 0.91001 0.0
C100 C 0.05735 0.03495 0.93613 0.0
N101 N 0.03555 0.03811 0.89673 0.0
N102 N 0.04289 0.07295 0.955 0.0
C103 C 0.06188 0.05621 0.97199 0.0
H104 H 1.00991 0.06969 0.88514 0.0
H105 H 0.06982 0.01883 0.93568 0.0
C106 C 0.05862 0.01031 0.71616 0.0
N107 N 0.99561 0.97629 0.66427 0.0
C108 C 0.99386 0.95021 0.66871 0.0
C109 C 0.99193 0.98506 0.59011 0.0
N110 N 0.98987 0.94256 0.60044 0.0
C111 C 0.98851 0.96447 0.551 0.0
C112 C 1.00215 0.04834 0.70123 0.0
O113 O 0.0555 0.01998 0.77703 0.0
O114 O 0.03983 0.99912 0.68876 0.0
O115 O 0.99745 0.02702 0.67745 0.0
O116 O 0.01326 0.04834 0.76419 0.0
O117 O 0.97519 0.99338 0.78729 0.0
H118 H 0.99351 1.00504 0.56452 0.0
H119 H 0.99746 0.93691 0.71959 0.0
O120 O 0.99022 0.0153 0.87471 0.0
O121 O 0.03244 0.98699 0.88872 0.0
O122 O 0.01794 0.96585 0.79945 0.0
C123 C 0.02843 0.96573 0.86354 0.0
H124 H 0.07858 0.05955 0.00489 0.0
H125 H 0.98672 0.96549 0.49015 0.0
Co126 Co 0.50701 0.01647 0.83344 0.0
C127 C 0.51831 0.96438 0.84971 0.0
Co128 Co 0.52711 1.00546 0.73353 0.0
C129 C 0.46403 0.01684 0.93429 0.0
C130 C 0.49271 0.04452 0.95519 0.0
N131 N 0.48776 0.02562 0.91311 0.0
N132 N 0.45363 0.02981 0.98671 0.0
C133 C 0.4719 0.04709 0.00046 0.0
H134 H 0.45419 1.0019 0.90903 0.0
H135 H 0.50993 0.05637 0.95112 0.0
C136 C 0.51589 0.05747 0.71667 0.0
N137 N 0.54605 0.99654 0.65231 0.0
C138 C 0.57128 0.99203 0.64994 0.0
C139 C 0.53802 0.99557 0.58088 0.0
N140 N 0.57927 0.98857 0.58017 0.0
C141 C 0.55831 0.99059 0.53667 0.0
C142 C 0.47551 1.00113 0.72045 0.0
O143 O 0.50664 0.05139 0.78316 0.0
O144 O 0.52583 0.04007 0.68395 0.0
O145 O 0.49608 0.99759 0.68642 0.0
O146 O 0.47649 1.0092 0.78404 0.0
O147 O 0.52813 0.97081 0.78406 0.0
H148 H 0.51888 0.9993 0.56102 0.0
H149 H 0.58379 0.99174 0.69804 0.0
O150 O 0.50775 0.98152 0.88233 0.0
O151 O 0.53802 0.02377 0.88202 0.0
O152 O 0.55761 0.01374 0.782 0.0
C153 C 0.55861 0.0213 0.84646 0.0
H154 H 0.47037 0.06108 0.03921 0.0
H155 H 0.5579 0.9899 0.47629 0.0
Co156 Co 0.53794 0.51047 0.79013 0.0
C157 C 0.51193 0.47213 0.8878 0.0
Co158 Co 0.49607 0.5108 0.77623 0.0
C159 C 0.58569 0.51216 0.86986 0.0
C160 C 0.59128 0.50631 0.75467 0.0
N161 N 0.57301 0.50995 0.80506 0.0
N162 N 0.61104 0.50987 0.862 0.0
C163 C 0.61464 0.5061 0.78962 0.0
H164 H 0.57647 0.51487 0.9224 0.0
H165 H 0.58786 0.50382 0.69633 0.0
C166 C 0.52201 0.5491 0.67867 0.0
N167 N 0.46105 0.51115 0.76202 0.0
C168 C 0.44804 0.51351 0.69608 0.0
C169 C 0.44303 0.50949 0.81646 0.0
N170 N 0.42259 0.51357 0.70722 0.0
C171 C 0.41944 0.51101 0.78308 0.0
C172 C 0.51392 0.54341 0.87429 0.0
O173 O 0.54174 0.53914 0.71103 0.0
O174 O 0.50027 0.5389 0.69684 0.0
O175 O 0.49357 0.53524 0.84627 0.0
O176 O 0.53498 0.53396 0.85915 0.0
O177 O 0.49231 0.48243 0.85598 0.0
H178 H 0.44683 0.50747 0.87661 0.0
H179 H 0.45713 0.51574 0.64091 0.0
O180 O 0.53377 0.48203 0.86905 0.0
O181 O 0.54045 0.4868 0.72008 0.0
O182 O 0.499 0.48673 0.70685 0.0
C183 C 0.52051 0.47815 0.69141 0.0
H184 H 0.63288 0.5037 0.76361 0.0
H185 H 0.40136 0.51018 0.81258 0.0
Co186 Co 0.01549 0.52872 0.78004 0.0
C187 C 0.05524 0.50584 0.8693 0.0
Co188 Co 0.01848 0.48641 0.78293 0.0
C189 C 0.01088 0.57465 0.85103 0.0
C190 C 0.0126 0.58359 0.73016 0.0
N191 N 0.01301 0.5637 0.78713 0.0
N192 N 1.00901 0.60064 0.83644 0.0
C193 C 1.01019 0.60625 0.76012 0.0
H194 H 1.01023 0.56358 0.90716 0.0
H195 H 0.01386 0.58174 0.67061 0.0
C196 C 0.97871 0.50922 0.69387 0.0
N197 N 0.02081 0.45151 0.77492 0.0
C198 C 0.01927 0.44084 0.71031 0.0
C199 C 0.02359 0.4314 0.83038 0.0
N200 N 0.0208 0.41485 0.72302 0.0
C201 C 0.02351 0.40885 0.79873 0.0
C202 C 0.98515 0.49813 0.8888 0.0
O203 O 0.98736 0.5304 0.71185 0.0
O204 O 0.99011 0.48843 0.71684 0.0
O205 O 0.99539 0.47891 0.86582 0.0
O206 O 0.99214 0.52089 0.86078 0.0
O207 O 0.04681 0.48477 0.84993 0.0
H208 H 0.02528 0.43301 0.88999 0.0
H209 H 0.01637 0.45197 0.65508 0.0
O210 O 0.04368 0.52668 0.8475 0.0
O211 O 0.03869 0.53611 0.69863 0.0
O212 O 0.04143 0.4943 0.70007 0.0
C213 C 0.04844 0.51718 0.67285 0.0
H214 H 1.0095 0.62534 0.72771 0.0
H215 H 0.02533 0.38955 0.82923 0.0
H216 H 0.19194 0.01763 0.4125 0.0
H217 H 0.21603 0.9819 0.63342 0.0
H218 H 0.14952 0.02361 0.46441 0.0
H219 H 0.174 0.98788 0.6851 0.0
H220 H 0.10454 0.02504 0.77069 0.0
H221 H 0.1465 0.0235 0.71261 0.0
H222 H 0.11214 0.9957 0.51912 0.0
H223 H 0.07017 0.99724 0.57698 0.0
C224 C 0.18819 0.01112 0.47204 0.0
C225 C 0.20726 0.99928 0.51901 0.0
C226 C 0.16392 0.01446 0.50173 0.0
C227 C 0.15843 1.00637 0.57905 0.0
C228 C 0.17766 0.99469 0.62566 0.0
C229 C 0.20169 0.9911 0.59592 0.0
C230 C 0.10589 0.0188 0.71549 0.0
C231 C 0.08398 0.01112 0.67879 0.0
C232 C 0.12995 0.01781 0.68234 0.0
C233 C 0.13268 1.00935 0.61136 0.0
C234 C 0.1107 1.00248 0.57353 0.0
C235 C 0.08665 1.00322 0.607 0.0
H236 H 0.50482 0.20409 0.40827 0.0
H237 H 0.5471 0.22081 0.60334 0.0
H238 H 0.49943 0.15885 0.46727 0.0
H239 H 0.5416 0.17599 0.66221 0.0
H240 H 0.50465 0.10087 0.7782 0.0
H241 H 0.50619 0.14564 0.71595 0.0
H242 H 0.5279 0.12027 0.50552 0.0
H243 H 0.52646 0.07546 0.56765 0.0
C244 C 0.51287 0.19813 0.46372 0.0
C245 C 0.52638 0.21593 0.50134 0.0
C246 C 0.50986 0.17226 0.49737 0.0
C247 C 0.51997 0.1639 0.56962 0.0
C248 C 0.53329 0.18186 0.60705 0.0
C249 C 0.53657 0.20749 0.57312 0.0
C250 C 0.5096 0.1048 0.71856 0.0
C251 C 0.51559 0.08458 0.67809 0.0
C252 C 0.51057 0.13046 0.68297 0.0
C253 C 0.51725 0.13649 0.60586 0.0
C254 C 0.52252 0.11623 0.56481 0.0
C255 C 0.52185 0.09058 0.60062 0.0
H256 H 0.30211 0.5754 0.41444 0.0
H257 H 0.30909 0.49863 0.35652 0.0
H258 H 0.33751 0.56801 0.50205 0.0
H259 H 0.34475 0.49106 0.44529 0.0
H260 H 0.42355 0.49979 0.5657 0.0
H261 H 0.39005 0.50613 0.46974 0.0
H262 H 0.34331 0.54072 0.62524 0.0
H263 H 0.37669 0.53488 0.71982 0.0
C264 C 0.31137 0.55696 0.42017 0.0
C265 C 0.30276 0.53758 0.37894 0.0
C266 C 0.33156 0.55266 0.47074 0.0
C267 C 0.34377 0.52884 0.48139 0.0
C268 C 0.33577 0.50965 0.43817 0.0
C269 C 0.31533 0.51394 0.38754 0.0
C270 C 0.40616 0.50887 0.5791 0.0
C271 C 0.40285 0.51686 0.65053 0.0
C272 C 0.3869 0.51227 0.52441 0.0
C273 C 0.36406 0.52405 0.53968 0.0
C274 C 0.36077 0.53185 0.61124 0.0
C275 C 0.37984 0.52826 0.66587 0.0
H276 H 0.96211 0.30312 0.45421 0.0
H277 H 0.03589 0.32259 0.35256 0.0
H278 H 0.96969 0.33352 0.54355 0.0
H279 H 0.04363 0.3532 0.44281 0.0
H280 H 0.03361 0.42421 0.5735 0.0
H281 H 0.02787 0.39493 0.4792 0.0
H282 H 0.99759 0.33605 0.65318 0.0
H283 H 1.00283 0.36536 0.74673 0.0
C284 C 0.97994 0.31405 0.4508 0.0
C285 C 0.99841 0.31043 0.39657 0.0
C286 C 0.98437 0.33133 0.50239 0.0
C287 C 1.00738 0.3456 0.50097 0.0
C288 C 0.02567 0.34254 0.44525 0.0
C289 C 0.02128 0.325 0.39369 0.0
C290 C 0.02565 0.40505 0.59153 0.0
C291 C 0.01855 0.39722 0.66777 0.0
C292 C 0.0226 0.38819 0.5376 0.0
C293 C 0.01213 0.3632 0.5585 0.0
C294 C 1.00543 0.35528 0.63492 0.0
C295 C 1.00867 0.37201 0.68882 0.0
H296 H 0.83617 0.02231 0.12025 0.0
H297 H 0.81527 0.96269 0.98694 0.0
H298 H 0.87866 0.02551 0.06337 0.0
H299 H 0.85794 0.96463 0.93317 0.0
H300 H 0.92603 0.99187 0.78676 0.0
H301 H 0.8843 0.98934 0.84641 0.0
H302 H 0.91832 1.00707 0.05404 0.0
H303 H 0.95996 0.01098 0.99238 0.0
C304 C 0.84084 1.00958 0.07971 0.0
C305 C 0.82244 0.99227 0.05784 0.0
C306 C 0.86527 0.01129 0.0472 0.0
C307 C 0.87194 0.99548 0.99283 0.0
C308 C 0.85354 0.97766 0.97306 0.0
C309 C 0.82908 0.9763 0.00451 0.0
C310 C 0.9246 0.99523 0.84516 0.0
C311 C 0.94635 1.00159 0.88477 0.0
C312 C 0.9006 0.99358 0.87983 0.0
C313 C 0.89768 0.99776 0.95572 0.0
C314 C 0.91957 1.00408 0.99534 0.0
C315 C 0.94355 1.00616 0.96013 0.0
H316 H 0.49835 0.81357 0.13564 0.0
H317 H 0.56224 0.80582 0.98913 0.0
H318 H 0.4939 0.8584 0.07626 0.0
H319 H 0.55869 0.85067 0.93214 0.0
H320 H 0.53106 0.92186 0.78681 0.0
H321 H 0.53353 0.87747 0.84841 0.0
H322 H 0.51154 0.90101 0.06153 0.0
H323 H 0.50802 0.9454 -0.00134 0.0
C324 C 0.51163 0.82157 0.0914 0.0
C325 C 0.53061 0.80622 0.06677 0.0
C326 C 0.50918 0.84732 0.05748 0.0
C327 C 0.52579 0.85829 -0.00134 0.0
C328 C 0.54511 0.84288 0.97573 0.0
C329 C 0.54733 0.81719 0.00891 0.0
C330 C 0.52669 0.91759 0.84679 0.0
C331 C 0.51944 0.93725 0.88777 0.0
C332 C 0.52829 0.89207 0.88245 0.0
C333 C 0.52302 0.88549 0.96047 0.0
C334 C 0.51548 0.90517 0.00132 0.0
C335 C 0.5136 0.93071 0.96533 0.0
H336 H 0.72972 0.48552 0.20477 0.0
H337 H 0.73339 0.56648 0.11339 0.0
H338 H 0.69213 0.4797 0.127 0.0
H339 H 0.69548 0.56081 0.03744 0.0
H340 H 0.61257 0.54207 0.96772 0.0
H341 H 0.64667 0.5464 0.05918 0.0
H342 H 0.68706 0.48532 0.976 0.0
H343 H 0.65323 0.48137 0.88372 0.0
C344 C 0.72219 0.50214 0.1693 0.0
C345 C 0.73436 0.5265 0.16519 0.0
C346 C 0.70081 0.49878 0.12456 0.0
C347 C 0.69092 0.51982 0.07635 0.0
C348 C 0.70257 0.54432 0.07455 0.0
C349 C 0.72425 0.54755 0.11784 0.0
C350 C 0.62863 0.52944 0.96962 0.0
C351 C 0.63034 0.51145 0.91854 0.0
C352 C 0.64815 0.53198 0.0216 0.0
C353 C 0.66944 0.51614 0.02472 0.0
C354 C 0.67077 0.49763 0.97517 0.0
C355 C 0.65155 0.4955 0.92208 0.0
H356 H 0.95238 0.71927 0.08038 0.0
H357 H 0.01984 0.69436 0.20447 0.0
H358 H 0.95829 0.68661 -0.00199 0.0
H359 H 0.02642 0.66206 0.12014 0.0
H360 H 0.01865 0.59276 0.98853 0.0
H361 H 0.01141 0.62248 0.07926 0.0
H362 H 0.98551 0.67952 0.89787 0.0
H363 H 0.99139 0.64955 0.80827 0.0
C364 C 0.96846 0.70667 0.09015 0.0
C365 C 0.98563 0.70937 0.14872 0.0
C366 C 0.97202 0.68809 0.04243 0.0
C367 C 0.99307 0.67186 0.05139 0.0
C368 C 1.0099 0.67406 0.11172 0.0
C369 C 1.00619 0.69262 0.16003 0.0
C370 C 0.01114 0.6115 0.96791 0.0
C371 C 1.00553 0.61851 0.89049 0.0
C372 C 1.00726 0.62872 0.02008 0.0
C373 C 0.9977 0.65343 0.99631 0.0
C374 C 0.99243 0.66051 0.91884 0.0
C375 C 0.99618 0.64333 0.86689 0.0
H376 H 0.97559 0.20402 0.45165 0.0
H377 H 0.04136 0.16913 0.36639 0.0
H378 H 0.96882 0.16531 0.54657 0.0
H379 H 0.03396 0.13059 0.45835 0.0
H380 H 0.99137 0.05638 0.55039 0.0
H381 H 0.9907 0.09789 0.46805 0.0
H382 H 1.00076 0.13771 0.66192 0.0
H383 H 1.00179 0.09619 0.74488 0.0
C384 C 0.9887 0.1883 0.45381 0.0
C385 C 1.0087 0.18932 0.40086 0.0
C386 C 0.98472 0.16622 0.50747 0.0
C387 C 1.00055 0.14499 0.50785 0.0
C388 C 0.02121 0.14659 0.45761 0.0
C389 C 0.02539 0.1686 0.40516 0.0
C390 C 0.99285 0.07394 0.57576 0.0
C391 C 0.99701 0.07307 0.65379 0.0
C392 C 0.99247 0.09762 0.52871 0.0
C393 C 0.99582 0.12074 0.55913 0.0
C394 C 0.99804 0.12003 0.63764 0.0
C395 C 0.99877 0.09632 0.68473 0.0
H396 H 0.31939 0.97739 0.56402 0.0
H397 H 0.35328 0.04402 0.42528 0.0
H398 H 0.35827 0.97281 0.64062 0.0
H399 H 0.39199 0.03913 0.50028 0.0
H400 H 0.46588 0.99941 0.57099 0.0
H401 H 0.4244 1.00159 0.50935 0.0
H402 H 0.38737 0.99916 0.7267 0.0
H403 H 0.42883 0.99717 0.78868 0.0
C404 C 0.33487 0.99138 0.55121 0.0
C405 C 0.33356 0.01084 0.48833 0.0
C406 C 0.3571 0.98864 0.59446 0.0
C407 C 0.37822 1.00523 0.57476 0.0
C408 C 0.37616 0.02573 0.51527 0.0
C409 C 0.354 0.0286 0.4728 0.0
C410 C 0.4489 0.99889 0.60574 0.0
C411 C 0.45059 0.99836 0.68446 0.0
C412 C 0.42522 1.00032 0.5705 0.0
C413 C 0.40284 1.00089 0.61345 0.0
C414 C 0.40439 0.99879 0.69253 0.0
C415 C 0.4281 0.99772 0.72776 0.0
H416 H 0.55579 0.36497 0.39886 0.0
H417 H 0.49382 0.32989 0.53937 0.0
H418 H 0.55708 0.40139 0.47006 0.0
H419 H 0.49525 0.36629 0.61193 0.0
H420 H 0.48123 0.4514 0.63641 0.0
H421 H 0.48361 0.41229 0.57763 0.0
H422 H 0.56553 0.41517 0.59396 0.0
H423 H 0.56326 0.45449 0.65193 0.0
C424 C 0.54289 0.36483 0.44641 0.0
C425 C 0.52465 0.3448 0.46374 0.0
C426 C 0.54363 0.38562 0.48719 0.0
C427 C 0.52605 0.38683 0.54587 0.0
C428 C 0.50877 0.36601 0.56611 0.0
C429 C 0.50814 0.34507 0.52546 0.0
C430 C 0.49977 0.44385 0.62681 0.0
C431 C 0.52206 0.45611 0.64855 0.0
C432 C 0.5011 0.42125 0.59411 0.0
C433 C 0.52473 0.41049 0.58218 0.0
C434 C 0.54705 0.42304 0.60239 0.0
C435 C 0.54574 0.4456 0.63537 0.0
H436 H 0.19473 0.50139 0.46756 0.0
H437 H 0.16116 0.56426 0.32053 0.0
H438 H 0.15889 0.50079 0.55572 0.0
H439 H 0.12519 0.56345 0.40767 0.0
H440 H 0.07136 0.5631 0.61247 0.0
H441 H 0.11048 0.56918 0.53702 0.0
H442 H 0.11385 0.48673 0.53901 0.0
H443 H 0.07504 0.48055 0.61445 0.0
C444 C 0.18004 0.51553 0.45533 0.0
C445 C 0.18048 0.53272 0.3873 0.0
C446 C 0.15942 0.515 0.5051 0.0
C447 C 0.13907 0.53176 0.48768 0.0
C448 C 0.14059 0.55032 0.42254 0.0
C449 C 0.1611 0.55075 0.37267 0.0
C450 C 0.08032 0.54631 0.59607 0.0
C451 C 0.07011 0.52135 0.6194 0.0
C452 C 0.10275 0.5498 0.55324 0.0
C453 C 0.11541 0.52839 0.53343 0.0
C454 C 0.10483 0.50353 0.55511 0.0
C455 C 0.0824 0.50004 0.59748 0.0
H456 H 0.06363 0.83663 0.21216 0.0
H457 H 0.9996 0.81371 0.08388 0.0
H458 H 0.07042 0.87519 0.11877 0.0
H459 H 1.00625 0.85218 0.99087 0.0
H460 H 0.02882 0.91849 0.81656 0.0
H461 H 0.03344 0.87668 0.89417 0.0
H462 H 0.04589 0.91458 0.09125 0.0
H463 H 0.04166 0.95654 0.01325 0.0
C464 C 0.05132 0.83963 0.16321 0.0
C465 C 0.03092 0.82235 0.15559 0.0
C466 C 0.05514 0.86172 0.11001 0.0
C467 C 0.03867 0.86691 0.0481 0.0
C468 C 0.01942 0.84864 0.03762 0.0
C469 C 0.01561 0.82655 0.09084 0.0
C470 C 0.0328 0.91795 0.87632 0.0
C471 C 0.03446 0.9408 0.90911 0.0
C472 C 0.03544 0.89396 0.92072 0.0
C473 C 0.03977 0.8923 -0.0011 0.0
C474 C 0.0428 0.91522 0.03098 0.0
C475 C 0.04022 0.93926 0.98644 0.0
H476 H 0.68734 0.0602 0.11979 0.0
H477 H 0.71038 0.99654 0.00824 0.0
H478 H 0.64906 0.06462 0.04227 0.0
H479 H 0.67202 1.00071 0.93112 0.0
H480 H 0.60518 0.02132 0.77868 0.0
H481 H 0.64675 0.02643 0.83501 0.0
H482 H 0.61056 0.03746 0.04544 0.0
H483 H 0.56887 0.0327 0.98871 0.0
C484 C 0.68444 0.04753 0.0774 0.0
C485 C 0.70166 0.02788 0.07036 0.0
C486 C 0.66246 0.04992 0.03351 0.0
C487 C 0.65726 0.0327 0.98165 0.0
C488 C 0.67551 0.01437 0.97036 0.0
C489 C 0.69755 0.012 0.01429 0.0
C490 C 0.60604 0.02499 0.83687 0.0
C491 C 0.58368 0.02632 0.87956 0.0
C492 C 0.62991 0.02788 0.8691 0.0
C493 C 0.632 0.03225 0.94471 0.0
C494 C 0.60962 0.03444 0.98666 0.0
C495 C 0.58571 0.03154 0.95439 0.0
H496 H 0.55364 0.65871 0.15496 0.0
H497 H 0.48611 0.68978 0.043 0.0
H498 H 0.55135 0.62236 0.08526 0.0
H499 H 0.48432 0.65356 0.96921 0.0
H500 H 0.47327 0.56796 0.92773 0.0
H501 H 0.47488 0.60717 0.98828 0.0
H502 H 0.5568 0.61021 0.96553 0.0
H503 H 0.55531 0.57091 0.90961 0.0
C504 C 0.53858 0.65797 0.11386 0.0
C505 C 0.51999 0.67692 0.10449 0.0
C506 C 0.53731 0.63718 0.0735 0.0
C507 C 0.51759 0.63493 0.02161 0.0
C508 C 0.49953 0.65454 0.00958 0.0
C509 C 0.50075 0.67544 0.05073 0.0
C510 C 0.49157 0.57691 0.93679 0.0
C511 C 0.51415 0.56605 0.91514 0.0
C512 C 0.4925 0.59954 0.97041 0.0
C513 C 0.51599 0.6118 0.98211 0.0
C514 C 0.53841 0.60104 0.95911 0.0
C515 C 0.53752 0.57839 0.9269 0.0
H516 H 0.84848 0.53216 0.11312 0.0
H517 H 0.85726 0.45141 0.19622 0.0
H518 H 0.88435 0.53113 0.02766 0.0
H519 H 0.89235 0.44957 0.10712 0.0
H520 H 0.97485 0.46547 0.02093 0.0
H521 H 0.93509 0.46241 0.09411 0.0
H522 H 0.90187 0.51841 0.9218 0.0
H523 H 0.94194 0.52269 0.85319 0.0
C524 C 0.85751 0.51392 0.11045 0.0
C525 C 0.85016 0.49185 0.16031 0.0
C526 C 0.87813 0.51322 0.06154 0.0
C527 C 0.89154 0.49025 0.0606 0.0
C528 C 0.88294 0.46772 0.1074 0.0
C529 C 0.86261 0.4686 0.15745 0.0
C530 C 0.95896 0.47712 -0.00039 0.0
C531 C 0.96147 0.49478 0.93301 0.0
C532 C 0.93608 0.47522 0.04074 0.0
C533 C 0.9152 0.49042 0.01445 0.0
C534 C 0.91764 0.50704 0.94539 0.0
C535 C 0.94059 0.50946 0.90585 0.0
H536 H 0.06665 0.2141 0.14836 0.0
H537 H 0.98653 0.2098 0.1012 0.0
H538 H 0.07419 0.17995 0.07147 0.0
H539 H 0.99377 0.17542 0.02526 0.0
H540 H 0.01584 0.11334 0.88411 0.0
H541 H 0.01268 0.15632 0.9206 0.0
H542 H 0.06302 0.1343 0.10853 0.0
H543 H 0.06596 0.09145 0.073 0.0
C544 C 0.05087 0.2069 0.11778 0.0
C545 C 0.02607 0.21481 0.12988 0.0
C546 C 0.05506 0.18691 0.07515 0.0
C547 C 0.03449 0.17442 0.0439 0.0
C548 C 1.01007 0.18455 0.04838 0.0
C549 C 1.00592 0.20453 0.09114 0.0
C550 C 0.02615 0.11754 0.93347 0.0
C551 C 0.0411 0.09864 0.97571 0.0
C552 C 0.02446 0.14233 0.95403 0.0
C553 C 0.03782 0.14896 0.01699 0.0
C554 C 0.05297 0.13018 0.05854 0.0
C555 C 0.05456 0.10542 0.03831 0.0
H556 H 0.32063 0.97138 0.23679 0.0
H557 H 0.3079 0.05309 0.19291 0.0
H558 H 0.35528 0.97632 0.14508 0.0
H559 H 0.342 0.05823 0.09819 0.0
H560 H 0.42876 0.063 0.06465 0.0
H561 H 0.38637 0.05796 0.11793 0.0
H562 H 0.37582 0.9864 0.0266 0.0
H563 H 0.41891 0.9906 0.9768 0.0
C564 C 0.32419 0.99017 0.20364 0.0
C565 C 0.31148 0.01181 0.22148 0.0
C566 C 0.34433 0.99312 0.15141 0.0
C567 C 0.35207 0.01784 0.11554 0.0
C568 C 0.3371 0.03901 0.12637 0.0
C569 C 0.31709 0.03603 0.17921 0.0
C570 C 0.41767 0.04605 0.05598 0.0
C571 C 0.42782 0.02713 0.01659 0.0
C572 C 0.39293 0.04339 0.08556 0.0
C573 C 0.37736 0.02184 0.07632 0.0
C574 C 0.38721 1.00319 0.03548 0.0
C575 C 0.41207 1.00574 0.00632 0.0
H576 H 0.46869 0.34369 0.22946 0.0
H577 H 0.54382 0.32508 0.16116 0.0
H578 H 0.46747 0.37919 0.12525 0.0
H579 H 0.54252 0.36013 0.05451 0.0
H580 H 0.54934 0.4474 0.97383 0.0
H581 H 0.54666 0.40561 0.05343 0.0
H582 H 0.46731 0.39804 0.99599 0.0
H583 H 0.46984 0.44038 0.91807 0.0
C584 C 0.48436 0.34634 0.18926 0.0
C585 C 0.50624 0.33156 0.20276 0.0
C586 C 0.4838 0.36687 0.12973 0.0
C587 C 0.50517 0.37302 0.08234 0.0
C588 C 0.52598 0.35638 0.09111 0.0
C589 C 0.52656 0.3359 0.15106 0.0
C590 C 0.53127 0.43691 0.97846 0.0
C591 C 0.50975 0.44739 0.94008 0.0
C592 C 0.52981 0.41268 0.02329 0.0
C593 C 0.50684 0.39814 0.03057 0.0
C594 C 0.48528 0.40868 0.99219 0.0
C595 C 0.48671 0.43303 0.94767 0.0
H596 H 0.18457 0.55927 0.10153 0.0
H597 H 0.19476 0.47708 0.13381 0.0
H598 H 0.15019 0.55476 0.01441 0.0
H599 H 0.16111 0.47223 0.04184 0.0
H600 H 0.07633 0.46926 0.97547 0.0
H601 H 0.11716 0.47223 0.03918 0.0
H602 H 0.13198 0.54693 0.90534 0.0
H603 H 0.09051 0.54463 0.84729 0.0
C604 C 0.18031 0.54033 0.0863 0.0
C605 C 0.19248 0.51859 0.1236 0.0
C606 C 0.16038 0.5376 0.03633 0.0
C607 C 0.15227 0.513 0.02127 0.0
C608 C 0.16622 0.49143 0.05331 0.0
C609 C 0.18598 0.49419 0.10458 0.0
C610 C 0.08835 0.48635 0.96052 0.0
C611 C 0.08 0.50698 0.90803 0.0
C612 C 0.11199 0.48797 0.99614 0.0
C613 C 0.12814 0.50997 0.97831 0.0
C614 C 0.12 0.53002 0.92289 0.0
C615 C 0.09614 0.52871 0.88926 0.0
H616 H 0.96732 0.80115 0.42017 0.0
H617 H 0.0486 0.80863 0.44356 0.0
H618 H 0.96152 0.83491 0.50051 0.0
H619 H 0.04287 0.8424 0.52296 0.0
H620 H 0.01789 0.92959 0.48629 0.0
H621 H 0.02322 0.8866 0.45205 0.0
H622 H 0.9736 0.85422 0.6364 0.0
H623 H 0.96876 0.89776 0.67211 0.0
C624 C 0.98384 0.80891 0.44616 0.0
C625 C 1.00841 0.80229 0.4259 0.0
C626 C 0.98053 0.82838 0.49161 0.0
C627 C 1.00178 0.84149 0.51678 0.0
C628 C 0.0262 0.83268 0.50385 0.0
C629 C 0.02948 0.81319 0.45908 0.0
C630 C 1.00812 0.91333 0.51953 0.0
C631 C 0.99276 0.91697 0.58138 0.0
C632 C 0.01137 0.8887 0.5005 0.0
C633 C 0.99899 0.86708 0.54204 0.0
C634 C 0.98344 0.87058 0.60382 0.0
C635 C 0.98067 0.89535 0.62413 0.0
H636 H 0.71687 0.96123 0.33754 0.0
H637 H 0.71492 0.04221 0.35725 0.0
H638 H 0.68336 0.95222 0.434 0.0
H639 H 0.68154 0.03341 0.45355 0.0
H640 H 0.62174 0.01035 0.63291 0.0
H641 H 0.66462 0.01158 0.57864 0.0
H642 H 0.63803 0.96443 0.41367 0.0
H643 H 0.59538 0.96305 0.46832 0.0
C644 C 0.71022 0.97687 0.36557 0.0
C645 C 0.71861 1.00235 0.34081 0.0
C646 C 0.69077 0.97181 0.41986 0.0
C647 C 0.6795 0.99215 0.45052 0.0
C648 C 0.68988 0.01728 0.4315 0.0
C649 C 0.70914 0.02234 0.37673 0.0
C650 C 0.62521 0.99975 0.58623 0.0
C651 C 0.60512 0.98672 0.55449 0.0
C652 C 0.64974 1.00057 0.55491 0.0
C653 C 0.65477 0.98809 0.49191 0.0
C654 C 0.63493 0.97398 0.4628 0.0
C655 C 0.6104 0.97342 0.49348 0.0
H656 H 0.48472 0.69304 0.39898 0.0
H657 H 0.56415 0.68322 0.35468 0.0
H658 H 0.4859 0.65778 0.50496 0.0
H659 H 0.56536 0.64735 0.45761 0.0
H660 H 0.56188 0.58414 0.65968 0.0
H661 H 0.5628 0.62691 0.58392 0.0
H662 H 0.4868 0.61277 0.50489 0.0
H663 H 0.48561 0.57065 0.5827 0.0
C664 C 0.5027 0.6841 0.41435 0.0
C665 C 0.52441 0.69098 0.36953 0.0
C666 C 0.50331 0.66347 0.47381 0.0
C667 C 0.52555 0.6491 0.48862 0.0
C668 C 0.5479 0.65785 0.44844 0.0
C669 C 0.54731 0.67861 0.38967 0.0
C670 C 0.54546 0.59015 0.62564 0.0
C671 C 0.52374 0.57392 0.62682 0.0
C672 C 0.54593 0.61474 0.58239 0.0
C673 C 0.52476 0.6236 0.53873 0.0
C674 C 0.50321 0.60708 0.53929 0.0
C675 C 0.50266 0.58267 0.58306 0.0
H676 H 0.83623 0.53631 0.44229 0.0
H677 H 0.85558 0.45713 0.4358 0.0
H678 H 0.86979 0.5399 0.53557 0.0
H679 H 0.88963 0.46076 0.52505 0.0
H680 H 0.94604 0.46812 0.7037 0.0
H681 H 0.90512 0.46497 0.64304 0.0
H682 H 0.91464 0.54385 0.5329 0.0
H683 H 0.95517 0.54737 0.59825 0.0
C684 C 0.84708 0.51942 0.46295 0.0
C685 C 0.84331 0.49641 0.43219 0.0
C686 C 0.86668 0.5216 0.51512 0.0
C687 C 0.88291 0.50081 0.53711 0.0
C688 C 0.87758 0.47719 0.51061 0.0
C689 C 0.85796 0.47501 0.45927 0.0
C690 C 0.93943 0.48481 0.66641 0.0
C691 C 0.95407 0.50785 0.6545 0.0
C692 C 0.91588 0.48301 0.63146 0.0
C693 C 0.9065 0.50401 0.58193 0.0
C694 C 0.92096 0.52732 0.57129 0.0
C695 C 0.94438 0.5293 0.60788 0.0
loop_
_geom_bond_atom_site_label_1
_geom_bond_atom_site_label_2
_geom_bond_distance
_geom_bond_site_symmetry_2
_ccdc_geom_bond_type
H0 C5 0.930 . S
H1 C8 0.930 . S
H2 C10 0.930 . S
H3 C4 1.016 . S
C4 H3 1.016 . S
C4 N11 1.286 . S
C5 H0 0.930 . S
C5 C6 1.397 . S
C5 C7 1.361 . S
C6 C5 1.397 . S
C6 C10 1.390 . S
C7 C5 1.361 . S
C7 C8 1.393 . S
C7 N11 1.413 . S
C8 H1 0.930 . S
C8 C7 1.393 . S
C8 C9 1.399 . S
C9 C8 1.399 . S
C9 C10 1.381 . S
C10 H2 0.930 . S
C10 C6 1.390 . S
C10 C9 1.381 . S
N11 C4 1.286 . S
N11 C7 1.413 . S
H12 C17 0.930 . S
H13 C20 0.930 . S
H14 C22 0.930 . S
H15 C16 1.016 . S
C16 H15 1.016 . S
C16 N23 1.286 . S
C17 H12 0.930 . S
C17 C18 1.397 . S
C17 C19 1.361 . S
C18 C17 1.397 . S
C18 C22 1.390 . S
C19 C17 1.361 . S
C19 C20 1.393 . S
C19 N23 1.413 . S
C20 H13 0.930 . S
C20 C19 1.393 . S
C20 C21 1.399 . S
C21 C20 1.399 . S
C21 C22 1.381 . S
C22 H14 0.930 . S
C22 C18 1.390 . S
C22 C21 1.381 . S
N23 C16 1.286 . S
N23 C19 1.413 . S
H24 C29 0.930 . S
H25 C32 0.930 1_556 S
H26 C34 0.930 . S
H27 C28 1.034 1_556 S
C28 H27 1.034 1_554 S
C28 N35 1.263 1_565 S
C29 H24 0.930 . S
C29 C30 1.397 . S
C29 C31 1.361 . S
C30 C29 1.397 . S
C30 C34 1.390 1_545 S
C31 C29 1.361 . S
C31 C32 1.393 . S
C31 N35 1.413 . S
C32 H25 0.930 1_554 S
C32 C31 1.393 . S
C32 C33 1.401 . S
C33 C32 1.401 . S
C33 C34 1.382 1_545 S
C34 H26 0.930 . S
C34 C30 1.390 1_565 S
C34 C33 1.382 1_565 S
N35 C28 1.263 1_545 S
N35 C31 1.413 . S
H36 C41 0.930 . S
H37 C44 0.930 . S
H38 C46 0.930 . S
H39 C40 1.016 . S
C40 H39 1.016 . S
C40 N47 1.286 . S
C41 H36 0.930 . S
C41 C42 1.397 . S
C41 C43 1.361 . S
C42 C41 1.397 . S
C42 C46 1.390 . S
C43 C41 1.361 . S
C43 C44 1.393 . S
C43 N47 1.413 . S
C44 H37 0.930 . S
C44 C43 1.393 . S
C44 C45 1.399 . S
C45 C44 1.399 . S
C45 C46 1.381 . S
C46 H38 0.930 . S
C46 C42 1.390 . S
C46 C45 1.381 . S
N47 C40 1.286 . S
N47 C43 1.413 . S
H48 C53 0.930 . S
H49 C56 0.930 . S
H50 C58 0.930 . S
H51 C52 1.016 . S
C52 H51 1.016 . S
C52 N59 1.286 . S
C53 H48 0.930 . S
C53 C54 1.397 . S
C53 C55 1.361 . S
C54 C53 1.397 . S
C54 C58 1.390 . S
C55 C53 1.361 . S
C55 C56 1.393 . S
C55 N59 1.413 . S
C56 H49 0.930 . S
C56 C55 1.393 . S
C56 C57 1.399 . S
C57 C56 1.399 . S
C57 C58 1.381 . S
C58 H50 0.930 . S
C58 C54 1.390 . S
C58 C57 1.381 . S
N59 C52 1.286 . S
N59 C55 1.413 . S
H60 C65 0.930 . S
H61 C68 0.930 . S
H62 C70 0.930 . S
H63 C64 1.016 . S
C64 H63 1.016 . S
C64 N71 1.286 . S
C65 H60 0.930 . S
C65 C66 1.397 . S
C65 C67 1.361 . S
C66 C65 1.397 . S
C66 C70 1.390 . S
C67 C65 1.361 . S
C67 C68 1.393 . S
C67 N71 1.413 . S
C68 H61 0.930 . S
C68 C67 1.393 . S
C68 C69 1.399 . S
C69 C68 1.399 . S
C69 C70 1.381 . S
C70 H62 0.930 . S
C70 C66 1.390 . S
C70 C69 1.381 . S
N71 C64 1.286 . S
N71 C67 1.413 . S
H72 C77 0.930 . S
H73 C80 0.930 . S
H74 C82 0.930 . S
H75 C76 1.022 . S
C76 H75 1.022 . S
C76 N83 1.276 1_565 S
C77 H72 0.930 . S
C77 C78 1.397 . S
C77 C79 1.361 . S
C78 C77 1.397 . S
C78 C82 1.390 1_545 S
C79 C77 1.361 . S
C79 C80 1.393 . S
C79 N83 1.413 . S
C80 H73 0.930 . S
C80 C79 1.393 . S
C80 C81 1.406 . S
C81 C80 1.406 . S
C81 C82 1.373 1_545 S
C82 H74 0.930 . S
C82 C78 1.390 1_565 S
C82 C81 1.373 1_565 S
N83 C76 1.276 1_545 S
N83 C79 1.413 . S
H84 C89 0.930 . S
H85 C92 0.930 . S
H86 C94 0.930 . S
H87 C88 1.016 . S
C88 H87 1.016 . S
C88 N95 1.286 . S
C89 H84 0.930 . S
C89 C90 1.397 . S
C89 C91 1.361 . S
C90 C89 1.397 . S
C90 C94 1.390 . S
C91 C89 1.361 . S
C91 C92 1.393 . S
C91 N95 1.413 . S
C92 H85 0.930 . S
C92 C91 1.393 . S
C92 C93 1.399 . S
C93 C92 1.399 . S
C93 C94 1.381 . S
C94 H86 0.930 . S
C94 C90 1.390 . S
C94 C93 1.381 . S
N95 C88 1.286 . S
N95 C91 1.413 . S
Co96 N101 2.057 . S
Co96 O113 2.021 . S
Co96 O116 2.062 . S
Co96 O120 2.117 1_455 S
Co96 O121 2.020 1_545 S
C97 O117 1.259 1_545 S
C97 O120 1.258 . S
Co98 N107 2.057 . S
Co98 O114 2.117 1_655 S
Co98 O115 2.020 1_665 S
Co98 O117 2.021 . S
Co98 O122 2.062 . S
C99 N101 1.316 . S
C99 N102 1.347 1_556 S
C99 H104 0.931 . S
C100 N101 1.375 1_655 S
C100 C103 1.350 1_656 S
C100 H105 0.930 . S
N101 Co96 2.057 . S
N101 C99 1.316 . S
N101 C100 1.375 1_455 S
N102 C99 1.347 1_554 S
N102 C103 1.373 . S
C103 C100 1.350 1_454 S
C103 N102 1.373 . S
C103 H124 0.931 1_455 S
H104 C99 0.931 . S
H105 C100 0.930 . S
C106 O113 1.259 1_565 S
C106 O114 1.258 . S
N107 Co98 2.057 . S
N107 C108 1.316 . S
N107 C109 1.375 1_655 S
C108 N107 1.316 . S
C108 N110 1.347 . S
C108 H119 0.931 . S
C109 N107 1.375 1_455 S
C109 C111 1.350 . S
C109 H118 0.930 . S
N110 C108 1.347 . S
N110 C111 1.373 1_655 S
C111 C109 1.350 . S
C111 N110 1.373 1_455 S
C111 H125 0.931 . S
C112 O115 1.256 . S
C112 O116 1.255 . S
O113 Co96 2.021 . S
O113 C106 1.259 1_545 S
O114 Co98 2.117 1_455 S
O114 C106 1.258 . S
O115 Co98 2.020 1_445 S
O115 C112 1.256 . S
O116 Co96 2.062 . S
O116 C112 1.255 . S
O117 C97 1.259 1_565 S
O117 Co98 2.021 . S
H118 C109 0.930 . S
H119 C108 0.931 . S
O120 Co96 2.117 1_655 S
O120 C97 1.258 . S
O121 Co96 2.020 1_565 S
O121 C123 1.256 . S
O122 Co98 2.062 . S
O122 C123 1.255 1_655 S
C123 O121 1.256 . S
C123 O122 1.255 1_455 S
H124 C103 0.931 1_655 S
H125 C111 0.931 . S
Co126 N131 2.057 1_545 S
Co126 O143 2.021 . S
Co126 O146 2.067 . S
Co126 O150 2.117 1_545 S
Co126 O151 2.020 . S
C127 O147 1.259 . S
C127 O150 1.258 . S
Co128 N137 2.057 1_565 S
Co128 O144 2.117 1_565 S
Co128 O145 2.020 . S
Co128 O147 2.021 . S
Co128 O152 2.065 . S
C129 N131 1.316 1_545 S
C129 N132 1.347 1_556 S
C129 H134 0.931 . S
C130 N131 1.373 1_554 S
C130 C133 1.352 . S
C130 H135 0.929 1_554 S
N131 Co126 2.057 1_565 S
N131 C129 1.316 1_565 S
N131 C130 1.373 1_556 S
N132 C129 1.347 1_554 S
N132 C133 1.373 1_545 S
C133 C130 1.352 . S
C133 N132 1.373 1_565 S
C133 H154 0.931 . S
H134 C129 0.931 . S
H135 C130 0.929 1_556 S
C136 O143 1.259 . S
C136 O144 1.258 . S
N137 Co128 2.057 1_545 S
N137 C138 1.316 1_545 S
N137 C139 1.375 . S
C138 N137 1.316 1_565 S
C138 N140 1.347 . S
C138 H149 0.931 . S
C139 N137 1.375 . S
C139 C141 1.350 . S
C139 H148 0.930 . S
N140 C138 1.347 . S
N140 C141 1.373 1_565 S
C141 C139 1.350 . S
C141 N140 1.373 1_545 S
C141 H155 0.931 . S
C142 O145 1.256 . S
C142 O146 1.245 1_565 S
O143 Co126 2.021 . S
O143 C136 1.259 . S
O144 Co128 2.117 1_545 S
O144 C136 1.258 . S
O145 Co128 2.020 . S
O145 C142 1.256 . S
O146 Co126 2.067 . S
O146 C142 1.245 1_545 S
O147 C127 1.259 . S
O147 Co128 2.021 . S
H148 C139 0.930 . S
H149 C138 0.931 . S
O150 Co126 2.117 1_565 S
O150 C127 1.258 . S
O151 Co126 2.020 . S
O151 C153 1.256 . S
O152 Co128 2.065 . S
O152 C153 1.248 1_565 S
C153 O151 1.256 . S
C153 O152 1.248 1_545 S
H154 C133 0.931 . S
H155 C141 0.931 . S
Co156 N161 2.057 . S
Co156 O173 2.021 . S
Co156 O176 2.062 . S
Co156 O180 2.117 . S
Co156 O181 2.020 . S
C157 O177 1.259 . S
C157 O180 1.258 . S
Co158 N167 2.057 . S
Co158 O174 2.117 . S
Co158 O175 2.020 . S
Co158 O177 2.021 . S
Co158 O182 2.062 . S
C159 N161 1.316 . S
C159 N162 1.347 . S
C159 H164 0.931 . S
C160 N161 1.375 . S
C160 C163 1.350 . S
C160 H165 0.930 . S
N161 Co156 2.057 . S
N161 C159 1.316 . S
N161 C160 1.375 . S
N162 C159 1.347 . S
N162 C163 1.373 . S
C163 C160 1.350 . S
C163 N162 1.373 . S
C163 H184 0.931 . S
H164 C159 0.931 . S
H165 C160 0.930 . S
C166 O173 1.259 . S
C166 O174 1.258 . S
N167 Co158 2.057 . S
N167 C168 1.316 . S
N167 C169 1.375 . S
C168 N167 1.316 . S
C168 N170 1.347 . S
C168 H179 0.931 . S
C169 N167 1.375 . S
C169 C171 1.350 . S
C169 H178 0.930 . S
N170 C168 1.347 . S
N170 C171 1.373 . S
C171 C169 1.350 . S
C171 N170 1.373 . S
C171 H185 0.931 . S
C172 O175 1.256 . S
C172 O176 1.255 . S
O173 Co156 2.021 . S
O173 C166 1.259 . S
O174 Co158 2.117 . S
O174 C166 1.258 . S
O175 Co158 2.020 . S
O175 C172 1.256 . S
O176 Co156 2.062 . S
O176 C172 1.255 . S
O177 C157 1.259 . S
O177 Co158 2.021 . S
H178 C169 0.930 . S
H179 C168 0.931 . S
O180 Co156 2.117 . S
O180 C157 1.258 . S
O181 Co156 2.020 . S
O181 C183 1.256 . S
O182 Co158 2.062 . S
O182 C183 1.255 . S
C183 O181 1.256 . S
C183 O182 1.255 . S
H184 C163 0.931 . S
H185 C171 0.931 . S
Co186 N191 2.057 . S
Co186 O203 2.021 1_455 S
Co186 O206 2.062 1_455 S
Co186 O210 2.117 . S
Co186 O211 2.020 . S
C187 O207 1.259 . S
C187 O210 1.258 . S
Co188 N197 2.057 . S
Co188 O204 2.117 1_455 S
Co188 O205 2.020 1_455 S
Co188 O207 2.021 . S
Co188 O212 2.062 . S
C189 N191 1.316 1_655 S
C189 N192 1.347 . S
C189 H194 0.931 . S
C190 N191 1.375 . S
C190 C193 1.350 . S
C190 H195 0.930 . S
N191 Co186 2.057 . S
N191 C189 1.316 1_455 S
N191 C190 1.375 . S
N192 C189 1.347 . S
N192 C193 1.370 1_655 S
C193 C190 1.350 . S
C193 N192 1.370 1_455 S
C193 H214 0.931 . S
H194 C189 0.931 . S
H195 C190 0.930 . S
C196 O203 1.259 . S
C196 O204 1.258 . S
N197 Co188 2.057 . S
N197 C198 1.316 . S
N197 C199 1.375 1_455 S
C198 N197 1.316 . S
C198 N200 1.347 . S
C198 H209 0.931 . S
C199 N197 1.375 1_655 S
C199 C201 1.350 . S
C199 H208 0.930 . S
N200 C198 1.347 . S
N200 C201 1.373 1_455 S
C201 C199 1.350 . S
C201 N200 1.373 1_655 S
C201 H215 0.931 . S
C202 O205 1.256 . S
C202 O206 1.255 . S
O203 Co186 2.021 1_655 S
O203 C196 1.259 . S
O204 Co188 2.117 1_655 S
O204 C196 1.258 . S
O205 Co188 2.020 1_655 S
O205 C202 1.256 . S
O206 Co186 2.062 1_655 S
O206 C202 1.255 . S
O207 C187 1.259 . S
O207 Co188 2.021 . S
H208 C199 0.930 . S
H209 C198 0.931 . S
O210 Co186 2.117 . S
O210 C187 1.258 . S
O211 Co186 2.020 . S
O211 C213 1.256 . S
O212 Co188 2.062 . S
O212 C213 1.255 . S
C213 O211 1.256 . S
C213 O212 1.255 . S
H214 C193 0.931 . S
H215 C201 0.931 . S
H216 C224 0.950 . S
H217 C229 0.950 . S
H218 C226 0.950 . S
H219 C228 0.950 . S
H220 C230 0.950 . S
H221 C232 0.950 . S
H222 C234 0.950 . S
H223 C235 0.950 . S
C224 H216 0.950 . S
C224 C225 1.386 . S
C224 C226 1.391 . S
C225 C224 1.386 . S
C225 C229 1.393 1_565 S
C226 H218 0.950 . S
C226 C224 1.391 . S
C226 C227 1.400 . S
C227 C226 1.400 . S
C227 C228 1.398 1_565 S
C227 C233 1.491 . S
C228 H219 0.950 . S
C228 C227 1.398 1_545 S
C228 C229 1.391 . S
C229 H217 0.950 . S
C229 C225 1.393 1_545 S
C229 C228 1.391 . S
C230 H220 0.950 . S
C230 C231 1.386 1_545 S
C230 C232 1.391 . S
C231 C230 1.386 1_565 S
C231 C235 1.393 . S
C232 H221 0.950 . S
C232 C230 1.391 . S
C232 C233 1.400 1_545 S
C233 C227 1.491 . S
C233 C232 1.400 1_565 S
C233 C234 1.398 . S
C234 H222 0.950 . S
C234 C233 1.398 . S
C234 C235 1.391 . S
C235 H223 0.950 . S
C235 C231 1.393 . S
C235 C234 1.391 . S
H236 C244 0.950 . S
H237 C249 0.950 . S
H238 C246 0.950 . S
H239 C248 0.950 . S
H240 C250 0.950 . S
H241 C252 0.950 . S
H242 C254 0.950 . S
H243 C255 0.950 . S
C244 H236 0.950 . S
C244 C245 1.386 . S
C244 C246 1.391 . S
C245 C244 1.386 . S
C245 C249 1.393 . S
C246 H238 0.950 . S
C246 C244 1.391 . S
C246 C247 1.400 . S
C247 C246 1.400 . S
C247 C248 1.398 . S
C247 C253 1.491 . S
C248 H239 0.950 . S
C248 C247 1.398 . S
C248 C249 1.391 . S
C249 H237 0.950 . S
C249 C245 1.393 . S
C249 C248 1.391 . S
C250 H240 0.950 . S
C250 C251 1.386 . S
C250 C252 1.391 . S
C251 C250 1.386 . S
C251 C255 1.393 . S
C252 H241 0.950 . S
C252 C250 1.391 . S
C252 C253 1.400 . S
C253 C247 1.491 . S
C253 C252 1.400 . S
C253 C254 1.398 . S
C254 H242 0.950 . S
C254 C253 1.398 . S
C254 C255 1.391 . S
C255 H243 0.950 . S
C255 C251 1.393 . S
C255 C254 1.391 . S
H256 C264 0.950 . S
H257 C269 0.950 . S
H258 C266 0.950 . S
H259 C268 0.950 . S
H260 C270 0.950 . S
H261 C272 0.950 . S
H262 C274 0.950 . S
H263 C275 0.950 . S
C264 H256 0.950 . S
C264 C265 1.386 . S
C264 C266 1.391 . S
C265 C264 1.386 . S
C265 C269 1.393 . S
C266 H258 0.950 . S
C266 C264 1.391 . S
C266 C267 1.400 . S
C267 C266 1.400 . S
C267 C268 1.398 . S
C267 C273 1.491 . S
C268 H259 0.950 . S
C268 C267 1.398 . S
C268 C269 1.391 . S
C269 H257 0.950 . S
C269 C265 1.393 . S
C269 C268 1.391 . S
C270 H260 0.950 . S
C270 C271 1.386 . S
C270 C272 1.391 . S
C271 C270 1.386 . S
C271 C275 1.393 . S
C272 H261 0.950 . S
C272 C270 1.391 . S
C272 C273 1.400 . S
C273 C267 1.491 . S
C273 C272 1.400 . S
C273 C274 1.398 . S
C274 H262 0.950 . S
C274 C273 1.398 . S
C274 C275 1.391 . S
C275 H263 0.950 . S
C275 C271 1.393 . S
C275 C274 1.391 . S
H276 C284 0.950 . S
H277 C289 0.950 . S
H278 C286 0.950 . S
H279 C288 0.950 . S
H280 C290 0.950 . S
H281 C292 0.950 . S
H282 C294 0.976 . S
H283 C295 0.950 1_655 S
C284 H276 0.950 . S
C284 C285 1.386 . S
C284 C286 1.391 . S
C285 C284 1.386 . S
C285 C289 1.393 . S
C286 H278 0.950 . S
C286 C284 1.391 . S
C286 C287 1.400 . S
C287 C286 1.400 . S
C287 C288 1.398 . S
C287 C293 1.491 . S
C288 H279 0.950 . S
C288 C287 1.398 . S
C288 C289 1.391 . S
C289 H277 0.950 . S
C289 C285 1.393 . S
C289 C288 1.391 . S
C290 H280 0.950 . S
C290 C291 1.386 . S
C290 C292 1.391 . S
C291 C290 1.386 . S
C291 C295 1.393 . S
C292 H281 0.950 . S
C292 C290 1.391 . S
C292 C293 1.400 . S
C293 C287 1.491 . S
C293 C292 1.400 . S
C293 C294 1.398 . S
C294 H282 0.976 . S
C294 C293 1.398 . S
C294 C295 1.391 . S
C295 H283 0.950 1_455 S
C295 C291 1.393 . S
C295 C294 1.391 . S
H296 C304 0.950 . S
H297 C309 0.950 . S
H298 C306 0.950 . S
H299 C308 0.950 . S
H300 C310 0.950 . S
H301 C312 0.950 . S
H302 C314 0.950 . S
H303 C315 0.950 . S
C304 H296 0.950 . S
C304 C305 1.386 1_554 S
C304 C306 1.391 . S
C305 C304 1.386 1_556 S
C305 C309 1.392 1_565 S
C306 H298 0.950 . S
C306 C304 1.391 . S
C306 C307 1.400 1_564 S
C307 C306 1.400 1_546 S
C307 C308 1.398 . S
C307 C313 1.491 . S
C308 H299 0.950 . S
C308 C307 1.398 . S
C308 C309 1.391 . S
C309 H297 0.950 . S
C309 C305 1.392 1_545 S
C309 C308 1.391 . S
C310 H300 0.950 . S
C310 C311 1.386 . S
C310 C312 1.391 . S
C311 C310 1.386 . S
C311 C315 1.393 1_545 S
C312 H301 0.950 . S
C312 C310 1.391 . S
C312 C313 1.400 . S
C313 C307 1.491 . S
C313 C312 1.400 . S
C313 C314 1.398 1_545 S
C314 H302 0.950 . S
C314 C313 1.398 1_565 S
C314 C315 1.391 . S
C315 H303 0.950 . S
C315 C311 1.393 1_565 S
C315 C314 1.391 . S
H316 C324 0.950 . S
H317 C329 0.950 . S
H318 C326 0.950 . S
H319 C328 0.950 . S
H320 C330 0.950 . S
H321 C332 0.950 . S
H322 C334 0.950 1_554 S
H323 C335 0.950 . S
C324 H316 0.950 . S
C324 C325 1.386 . S
C324 C326 1.391 . S
C325 C324 1.386 . S
C325 C329 1.393 1_554 S
C326 H318 0.950 . S
C326 C324 1.391 . S
C326 C327 1.400 1_554 S
C327 C326 1.400 1_556 S
C327 C328 1.398 . S
C327 C333 1.491 . S
C328 H319 0.950 . S
C328 C327 1.398 . S
C328 C329 1.391 . S
C329 H317 0.950 . S
C329 C325 1.393 1_556 S
C329 C328 1.391 . S
C330 H320 0.950 . S
C330 C331 1.386 . S
C330 C332 1.391 . S
C331 C330 1.386 . S
C331 C335 1.393 . S
C332 H321 0.950 . S
C332 C330 1.391 . S
C332 C333 1.400 . S
C333 C327 1.491 . S
C333 C332 1.400 . S
C333 C334 1.398 . S
C334 H322 0.950 1_556 S
C334 C333 1.398 . S
C334 C335 1.391 . S
C335 H323 0.950 . S
C335 C331 1.393 . S
C335 C334 1.391 . S
H336 C344 0.950 . S
H337 C349 0.950 . S
H338 C346 0.950 . S
H339 C348 0.950 . S
H340 C350 0.950 . S
H341 C352 0.950 . S
H342 C354 0.950 . S
H343 C355 0.950 . S
C344 H336 0.950 . S
C344 C345 1.386 . S
C344 C346 1.391 . S
C345 C344 1.386 . S
C345 C349 1.393 . S
C346 H338 0.950 . S
C346 C344 1.391 . S
C346 C347 1.400 . S
C347 C346 1.400 . S
C347 C348 1.398 . S
C347 C353 1.491 1_554 S
C348 H339 0.950 . S
C348 C347 1.398 . S
C348 C349 1.391 . S
C349 H337 0.950 . S
C349 C345 1.393 . S
C349 C348 1.391 . S
C350 H340 0.950 . S
C350 C351 1.386 . S
C350 C352 1.391 . S
C351 C350 1.386 . S
C351 C355 1.393 . S
C352 H341 0.950 . S
C352 C350 1.391 . S
C352 C353 1.400 . S
C353 C347 1.491 1_556 S
C353 C352 1.400 . S
C353 C354 1.398 . S
C354 H342 0.950 . S
C354 C353 1.398 . S
C354 C355 1.391 . S
C355 H343 0.950 . S
C355 C351 1.393 . S
C355 C354 1.391 . S
H356 C364 0.950 . S
H357 C369 0.950 . S
H358 C366 0.950 . S
H359 C368 0.950 . S
H360 C370 0.950 1_455 S
H361 C372 0.950 1_554 S
H362 C374 0.950 . S
H363 C375 0.950 . S
C364 H356 0.950 . S
C364 C365 1.386 1_556 S
C364 C366 1.391 . S
C365 C364 1.386 1_554 S
C365 C369 1.393 . S
C366 H358 0.950 . S
C366 C364 1.391 . S
C366 C367 1.400 . S
C367 C366 1.400 . S
C367 C368 1.398 1_556 S
C367 C373 1.491 . S
C368 H359 0.950 . S
C368 C367 1.398 1_554 S
C368 C369 1.391 . S
C369 H357 0.950 . S
C369 C365 1.393 . S
C369 C368 1.391 . S
C370 H360 0.950 1_655 S
C370 C371 1.386 . S
C370 C372 1.391 . S
C371 C370 1.386 . S
C371 C375 1.393 . S
C372 H361 0.950 1_556 S
C372 C370 1.391 . S
C372 C373 1.400 . S
C373 C367 1.491 . S
C373 C372 1.400 . S
C373 C374 1.398 . S
C374 H362 0.950 . S
C374 C373 1.398 . S
C374 C375 1.391 . S
C375 H363 0.950 . S
C375 C371 1.393 . S
C375 C374 1.391 . S
H376 C384 0.950 . S
H377 C389 0.950 . S
H378 C386 0.950 . S
H379 C388 0.950 . S
H380 C390 0.950 . S
H381 C392 0.950 . S
H382 C394 0.950 1_655 S
H383 C395 0.950 . S
C384 H376 0.950 . S
C384 C385 1.386 . S
C384 C386 1.391 . S
C385 C384 1.386 . S
C385 C389 1.393 . S
C386 H378 0.950 . S
C386 C384 1.391 . S
C386 C387 1.400 . S
C387 C386 1.400 . S
C387 C388 1.398 . S
C387 C393 1.491 . S
C388 H379 0.950 . S
C388 C387 1.398 . S
C388 C389 1.391 . S
C389 H377 0.950 . S
C389 C385 1.393 . S
C389 C388 1.391 . S
C390 H380 0.950 . S
C390 C391 1.386 . S
C390 C392 1.391 . S
C391 C390 1.386 . S
C391 C395 1.393 1_455 S
C392 H381 0.950 . S
C392 C390 1.391 . S
C392 C393 1.400 . S
C393 C387 1.491 . S
C393 C392 1.400 . S
C393 C394 1.398 . S
C394 H382 0.950 1_455 S
C394 C393 1.398 . S
C394 C395 1.391 1_455 S
C395 H383 0.950 . S
C395 C391 1.393 1_655 S
C395 C394 1.391 1_655 S
H396 C404 0.950 . S
H397 C409 0.950 . S
H398 C406 0.950 . S
H399 C408 0.950 . S
H400 C410 0.950 . S
H401 C412 0.950 . S
H402 C414 0.950 . S
H403 C415 0.950 . S
C404 H396 0.950 . S
C404 C405 1.396 . S
C404 C406 1.391 . S
C405 C404 1.396 . S
C405 C409 1.383 1_565 S
C406 H398 0.950 . S
C406 C404 1.391 . S
C406 C407 1.400 . S
C407 C406 1.400 . S
C407 C408 1.398 1_565 S
C407 C413 1.491 . S
C408 H399 0.950 . S
C408 C407 1.398 1_545 S
C408 C409 1.391 . S
C409 H397 0.950 . S
C409 C405 1.383 1_545 S
C409 C408 1.391 . S
C410 H400 0.950 . S
C410 C411 1.386 1_545 S
C410 C412 1.391 . S
C411 C410 1.386 1_565 S
C411 C415 1.393 . S
C412 H401 0.950 . S
C412 C410 1.391 . S
C412 C413 1.400 1_545 S
C413 C407 1.491 . S
C413 C412 1.400 1_565 S
C413 C414 1.398 . S
C414 H402 0.950 . S
C414 C413 1.398 . S
C414 C415 1.391 . S
C415 H403 0.950 . S
C415 C411 1.393 . S
C415 C414 1.391 . S
H416 C424 0.950 . S
H417 C429 0.950 . S
H418 C426 0.950 . S
H419 C428 0.950 . S
H420 C430 0.950 . S
H421 C432 0.950 . S
H422 C434 0.950 . S
H423 C435 0.950 . S
C424 H416 0.950 . S
C424 C425 1.386 . S
C424 C426 1.391 . S
C425 C424 1.386 . S
C425 C429 1.393 . S
C426 H418 0.950 . S
C426 C424 1.391 . S
C426 C427 1.400 . S
C427 C426 1.400 . S
C427 C428 1.398 . S
C427 C433 1.491 . S
C428 H419 0.950 . S
C428 C427 1.398 . S
C428 C429 1.391 . S
C429 H417 0.950 . S
C429 C425 1.393 . S
C429 C428 1.391 . S
C430 H420 0.950 . S
C430 C431 1.386 . S
C430 C432 1.391 . S
C431 C430 1.386 . S
C431 C435 1.393 . S
C432 H421 0.950 . S
C432 C430 1.391 . S
C432 C433 1.400 . S
C433 C427 1.491 . S
C433 C432 1.400 . S
C433 C434 1.398 . S
C434 H422 0.950 . S
C434 C433 1.398 . S
C434 C435 1.391 . S
C435 H423 0.950 . S
C435 C431 1.393 . S
C435 C434 1.391 . S
H436 C444 0.950 . S
H437 C449 0.950 . S
H438 C446 0.950 . S
H439 C448 0.950 . S
H440 C450 0.950 . S
H441 C452 0.950 . S
H442 C454 0.950 . S
H443 C455 0.950 . S
C444 H436 0.950 . S
C444 C445 1.386 . S
C444 C446 1.391 . S
C445 C444 1.386 . S
C445 C449 1.393 . S
C446 H438 0.950 . S
C446 C444 1.391 . S
C446 C447 1.400 . S
C447 C446 1.400 . S
C447 C448 1.398 . S
C447 C453 1.491 . S
C448 H439 0.950 . S
C448 C447 1.398 . S
C448 C449 1.391 . S
C449 H437 0.950 . S
C449 C445 1.393 . S
C449 C448 1.391 . S
C450 H440 0.950 . S
C450 C451 1.386 . S
C450 C452 1.391 . S
C451 C450 1.386 . S
C451 C455 1.393 . S
C452 H441 0.950 . S
C452 C450 1.391 . S
C452 C453 1.400 . S
C453 C447 1.491 . S
C453 C452 1.400 . S
C453 C454 1.398 . S
C454 H442 0.950 . S
C454 C453 1.398 . S
C454 C455 1.391 . S
C455 H443 0.950 . S
C455 C451 1.393 . S
C455 C454 1.391 . S
H456 C464 0.950 . S
H457 C469 0.950 . S
H458 C466 0.950 . S
H459 C468 0.950 . S
H460 C470 0.950 . S
H461 C472 0.950 . S
H462 C474 0.945 1_454 S
H463 C475 0.950 . S
C464 H456 0.950 . S
C464 C465 1.386 . S
C464 C466 1.391 . S
C465 C464 1.386 . S
C465 C469 1.393 1_554 S
C466 H458 0.950 . S
C466 C464 1.391 . S
C466 C467 1.400 1_554 S
C467 C466 1.400 1_556 S
C467 C468 1.398 . S
C467 C473 1.491 . S
C468 H459 0.950 . S
C468 C467 1.398 . S
C468 C469 1.391 . S
C469 H457 0.950 . S
C469 C465 1.393 1_556 S
C469 C468 1.391 . S
C470 H460 0.950 . S
C470 C471 1.386 1_655 S
C470 C472 1.391 . S
C471 C470 1.386 1_455 S
C471 C475 1.393 . S
C472 H461 0.950 . S
C472 C470 1.391 . S
C472 C473 1.400 . S
C473 C467 1.491 . S
C473 C472 1.400 . S
C473 C474 1.410 . S
C474 H462 0.945 1_656 S
C474 C473 1.410 . S
C474 C475 1.384 1_655 S
C475 H463 0.950 . S
C475 C471 1.393 . S
C475 C474 1.384 1_455 S
H476 C484 0.950 . S
H477 C489 0.950 . S
H478 C486 0.950 1_554 S
H479 C488 0.950 . S
H480 C490 0.950 . S
H481 C492 0.950 . S
H482 C494 0.950 . S
H483 C495 0.950 . S
C484 H476 0.950 . S
C484 C485 1.408 1_554 S
C484 C486 1.391 1_554 S
C485 C484 1.408 1_556 S
C485 C489 1.373 1_545 S
C486 H478 0.950 1_556 S
C486 C484 1.391 1_556 S
C486 C487 1.400 . S
C487 C486 1.400 . S
C487 C488 1.398 1_545 S
C487 C493 1.491 . S
C488 H479 0.950 . S
C488 C487 1.398 1_565 S
C488 C489 1.391 . S
C489 H477 0.950 . S
C489 C485 1.373 1_565 S
C489 C488 1.391 . S
C490 H480 0.950 . S
C490 C491 1.386 1_565 S
C490 C492 1.391 . S
C491 C490 1.386 1_545 S
C491 C495 1.393 . S
C492 H481 0.950 . S
C492 C490 1.391 . S
C492 C493 1.400 1_565 S
C493 C487 1.491 . S
C493 C492 1.400 1_545 S
C493 C494 1.398 . S
C494 H482 0.950 . S
C494 C493 1.398 . S
C494 C495 1.391 . S
C495 H483 0.950 . S
C495 C491 1.393 . S
C495 C494 1.391 . S
H496 C504 0.950 . S
H497 C509 0.950 . S
H498 C506 0.950 . S
H499 C508 0.950 . S
H500 C510 0.950 . S
H501 C512 0.950 1_554 S
H502 C514 0.950 . S
H503 C515 0.950 . S
C504 H496 0.950 . S
C504 C505 1.386 1_556 S
C504 C506 1.391 . S
C505 C504 1.386 1_554 S
C505 C509 1.393 . S
C506 H498 0.950 . S
C506 C504 1.391 . S
C506 C507 1.400 . S
C507 C506 1.400 . S
C507 C508 1.398 1_556 S
C507 C513 1.491 . S
C508 H499 0.950 . S
C508 C507 1.398 1_554 S
C508 C509 1.391 . S
C509 H497 0.950 . S
C509 C505 1.393 . S
C509 C508 1.391 . S
C510 H500 0.950 . S
C510 C511 1.386 . S
C510 C512 1.391 . S
C511 C510 1.386 . S
C511 C515 1.393 . S
C512 H501 0.950 1_556 S
C512 C510 1.391 . S
C512 C513 1.400 . S
C513 C507 1.491 . S
C513 C512 1.400 . S
C513 C514 1.398 . S
C514 H502 0.950 . S
C514 C513 1.398 . S
C514 C515 1.391 . S
C515 H503 0.950 . S
C515 C511 1.393 . S
C515 C514 1.391 . S
H516 C524 0.950 . S
H517 C529 0.950 . S
H518 C526 0.960 . S
H519 C528 0.950 . S
H520 C530 0.950 . S
H521 C532 0.950 1_554 S
H522 C534 0.950 . S
H523 C535 0.950 . S
C524 H516 0.950 . S
C524 C525 1.386 . S
C524 C526 1.383 1_554 S
C525 C524 1.386 . S
C525 C529 1.393 . S
C526 H518 0.960 . S
C526 C524 1.383 1_556 S
C526 C527 1.398 1_556 S
C527 C526 1.398 1_554 S
C527 C528 1.398 . S
C527 C533 1.491 1_554 S
C528 H519 0.950 . S
C528 C527 1.398 . S
C528 C529 1.391 . S
C529 H517 0.950 . S
C529 C525 1.393 . S
C529 C528 1.391 . S
C530 H520 0.950 . S
C530 C531 1.386 . S
C530 C532 1.391 . S
C531 C530 1.386 . S
C531 C535 1.393 . S
C532 H521 0.950 1_556 S
C532 C530 1.391 . S
C532 C533 1.400 . S
C533 C527 1.491 1_556 S
C533 C532 1.400 . S
C533 C534 1.398 . S
C534 H522 0.950 . S
C534 C533 1.398 . S
C534 C535 1.391 . S
C535 H523 0.950 . S
C535 C531 1.393 . S
C535 C534 1.391 . S
H536 C544 0.950 . S
H537 C549 0.950 . S
H538 C546 0.950 . S
H539 C548 0.950 . S
H540 C550 0.950 . S
H541 C552 0.950 . S
H542 C554 0.950 . S
H543 C555 0.950 . S
C544 H536 0.950 . S
C544 C545 1.386 . S
C544 C546 1.391 . S
C545 C544 1.386 . S
C545 C549 1.393 . S
C546 H538 0.950 . S
C546 C544 1.391 . S
C546 C547 1.400 . S
C547 C546 1.400 . S
C547 C548 1.398 . S
C547 C553 1.491 . S
C548 H539 0.950 . S
C548 C547 1.398 . S
C548 C549 1.391 . S
C549 H537 0.950 . S
C549 C545 1.393 . S
C549 C548 1.391 . S
C550 H540 0.950 . S
C550 C551 1.386 . S
C550 C552 1.391 . S
C551 C550 1.386 . S
C551 C555 1.393 . S
C552 H541 0.950 . S
C552 C550 1.391 . S
C552 C553 1.400 . S
C553 C547 1.491 . S
C553 C552 1.400 . S
C553 C554 1.398 . S
C554 H542 0.950 . S
C554 C553 1.398 . S
C554 C555 1.391 . S
C555 H543 0.950 . S
C555 C551 1.393 . S
C555 C554 1.391 . S
H556 C564 0.950 . S
H557 C569 0.950 . S
H558 C566 0.950 . S
H559 C568 0.950 . S
H560 C570 0.950 . S
H561 C572 0.950 . S
H562 C574 0.950 . S
H563 C575 0.950 . S
C564 H556 0.950 . S
C564 C565 1.386 1_565 S
C564 C566 1.391 . S
C565 C564 1.386 1_545 S
C565 C569 1.393 . S
C566 H558 0.950 . S
C566 C564 1.391 . S
C566 C567 1.400 1_565 S
C567 C566 1.400 1_545 S
C567 C568 1.398 . S
C567 C573 1.491 . S
C568 H559 0.950 . S
C568 C567 1.398 . S
C568 C569 1.391 . S
C569 H557 0.950 . S
C569 C565 1.393 . S
C569 C568 1.391 . S
C570 H560 0.950 . S
C570 C571 1.386 . S
C570 C572 1.391 . S
C571 C570 1.386 . S
C571 C575 1.393 1_545 S
C572 H561 0.950 . S
C572 C570 1.391 . S
C572 C573 1.400 . S
C573 C567 1.491 . S
C573 C572 1.400 . S
C573 C574 1.398 1_545 S
C574 H562 0.950 . S
C574 C573 1.398 1_565 S
C574 C575 1.391 . S
C575 H563 0.950 . S
C575 C571 1.393 1_565 S
C575 C574 1.391 . S
H576 C584 0.950 . S
H577 C589 0.950 . S
H578 C586 0.950 . S
H579 C588 0.950 . S
H580 C590 0.950 . S
H581 C592 0.950 . S
H582 C594 0.950 . S
H583 C595 0.950 . S
C584 H576 0.950 . S
C584 C585 1.386 . S
C584 C586 1.391 . S
C585 C584 1.386 . S
C585 C589 1.393 . S
C586 H578 0.950 . S
C586 C584 1.391 . S
C586 C587 1.400 . S
C587 C586 1.400 . S
C587 C588 1.398 . S
C587 C593 1.491 . S
C588 H579 0.950 . S
C588 C587 1.398 . S
C588 C589 1.391 . S
C589 H577 0.950 . S
C589 C585 1.393 . S
C589 C588 1.391 . S
C590 H580 0.950 . S
C590 C591 1.386 1_554 S
C590 C592 1.391 . S
C591 C590 1.386 1_556 S
C591 C595 1.393 . S
C592 H581 0.950 . S
C592 C590 1.391 . S
C592 C593 1.400 . S
C593 C587 1.491 . S
C593 C592 1.400 . S
C593 C594 1.398 . S
C594 H582 0.950 . S
C594 C593 1.398 . S
C594 C595 1.391 1_554 S
C595 H583 0.950 . S
C595 C591 1.393 . S
C595 C594 1.391 1_556 S
H596 C604 0.950 . S
H597 C609 0.950 . S
H598 C606 0.950 . S
H599 C608 0.950 . S
H600 C610 0.950 . S
H601 C612 0.950 . S
H602 C614 0.950 . S
H603 C615 0.950 . S
C604 H596 0.950 . S
C604 C605 1.386 . S
C604 C606 1.391 . S
C605 C604 1.386 . S
C605 C609 1.393 . S
C606 H598 0.950 . S
C606 C604 1.391 . S
C606 C607 1.400 . S
C607 C606 1.400 . S
C607 C608 1.398 . S
C607 C613 1.491 . S
C608 H599 0.950 . S
C608 C607 1.398 . S
C608 C609 1.391 . S
C609 H597 0.950 . S
C609 C605 1.393 . S
C609 C608 1.391 . S
C610 H600 0.950 . S
C610 C611 1.386 1_554 S
C610 C612 1.391 . S
C611 C610 1.386 1_556 S
C611 C615 1.393 . S
C612 H601 0.950 . S
C612 C610 1.391 . S
C612 C613 1.400 . S
C613 C607 1.491 . S
C613 C612 1.400 . S
C613 C614 1.398 1_554 S
C614 H602 0.950 . S
C614 C613 1.398 1_556 S
C614 C615 1.391 . S
C615 H603 0.950 . S
C615 C611 1.393 . S
C615 C614 1.391 . S
H616 C624 0.950 . S
H617 C629 0.950 . S
H618 C626 0.950 . S
H619 C628 0.950 . S
H620 C630 0.950 1_455 S
H621 C632 0.983 . S
H622 C634 0.950 . S
H623 C635 0.950 . S
C624 H616 0.950 . S
C624 C625 1.386 . S
C624 C626 1.391 . S
C625 C624 1.386 . S
C625 C629 1.393 . S
C626 H618 0.950 . S
C626 C624 1.391 . S
C626 C627 1.400 . S
C627 C626 1.400 . S
C627 C628 1.398 . S
C627 C633 1.491 . S
C628 H619 0.950 . S
C628 C627 1.398 . S
C628 C629 1.391 . S
C629 H617 0.950 . S
C629 C625 1.393 . S
C629 C628 1.391 . S
C630 H620 0.950 1_655 S
C630 C631 1.386 . S
C630 C632 1.391 . S
C631 C630 1.386 . S
C631 C635 1.393 . S
C632 H621 0.983 . S
C632 C630 1.391 . S
C632 C633 1.400 . S
C633 C627 1.491 . S
C633 C632 1.400 . S
C633 C634 1.398 . S
C634 H622 0.950 . S
C634 C633 1.398 . S
C634 C635 1.391 . S
C635 H623 0.950 . S
C635 C631 1.393 . S
C635 C634 1.391 . S
H636 C644 0.950 . S
H637 C649 0.950 . S
H638 C646 0.950 . S
H639 C648 0.950 . S
H640 C650 0.950 . S
H641 C652 0.950 . S
H642 C654 0.950 . S
H643 C655 0.950 . S
C644 H636 0.950 . S
C644 C645 1.386 . S
C644 C646 1.391 . S
C645 C644 1.386 . S
C645 C649 1.393 1_565 S
C646 H638 0.950 . S
C646 C644 1.391 . S
C646 C647 1.400 . S
C647 C646 1.400 . S
C647 C648 1.398 1_565 S
C647 C653 1.491 . S
C648 H639 0.950 . S
C648 C647 1.398 1_545 S
C648 C649 1.391 . S
C649 H637 0.950 . S
C649 C645 1.393 1_545 S
C649 C648 1.391 . S
C650 H640 0.950 . S
C650 C651 1.386 1_545 S
C650 C652 1.391 . S
C651 C650 1.386 1_565 S
C651 C655 1.393 . S
C652 H641 0.950 . S
C652 C650 1.391 . S
C652 C653 1.400 1_545 S
C653 C647 1.491 . S
C653 C652 1.400 1_565 S
C653 C654 1.398 . S
C654 H642 0.950 . S
C654 C653 1.398 . S
C654 C655 1.391 . S
C655 H643 0.950 . S
C655 C651 1.393 . S
C655 C654 1.391 . S
H656 C664 0.950 . S
H657 C669 0.950 . S
H658 C666 0.950 . S
H659 C668 0.950 . S
H660 C670 0.950 . S
H661 C672 0.950 . S
H662 C674 0.950 . S
H663 C675 0.950 . S
C664 H656 0.950 . S
C664 C665 1.386 . S
C664 C666 1.391 . S
C665 C664 1.386 . S
C665 C669 1.393 . S
C666 H658 0.950 . S
C666 C664 1.391 . S
C666 C667 1.400 . S
C667 C666 1.400 . S
C667 C668 1.398 . S
C667 C673 1.491 . S
C668 H659 0.950 . S
C668 C667 1.398 . S
C668 C669 1.391 . S
C669 H657 0.950 . S
C669 C665 1.393 . S
C669 C668 1.391 . S
C670 H660 0.950 . S
C670 C671 1.386 . S
C670 C672 1.391 . S
C671 C670 1.386 . S
C671 C675 1.393 . S
C672 H661 0.950 . S
C672 C670 1.391 . S
C672 C673 1.400 . S
C673 C667 1.491 . S
C673 C672 1.400 . S
C673 C674 1.398 . S
C674 H662 0.950 . S
C674 C673 1.398 . S
C674 C675 1.391 . S
C675 H663 0.950 . S
C675 C671 1.393 . S
C675 C674 1.391 . S
H676 C684 0.950 . S
H677 C689 0.950 . S
H678 C686 0.950 . S
H679 C688 0.950 . S
H680 C690 0.950 . S
H681 C692 0.950 . S
H682 C694 0.950 . S
H683 C695 0.950 . S
C684 H676 0.950 . S
C684 C685 1.386 . S
C684 C686 1.391 . S
C685 C684 1.386 . S
C685 C689 1.393 . S
C686 H678 0.950 . S
C686 C684 1.391 . S
C686 C687 1.400 . S
C687 C686 1.400 . S
C687 C688 1.398 . S
C687 C693 1.491 . S
C688 H679 0.950 . S
C688 C687 1.398 . S
C688 C689 1.391 . S
C689 H677 0.950 . S
C689 C685 1.393 . S
C689 C688 1.391 . S
C690 H680 0.950 . S
C690 C691 1.386 . S
C690 C692 1.391 . S
C691 C690 1.386 . S
C691 C695 1.393 . S
C692 H681 0.950 . S
C692 C690 1.391 . S
C692 C693 1.400 . S
C693 C687 1.491 . S
C693 C692 1.400 . S
C693 C694 1.398 . S
C694 H682 0.950 . S
C694 C693 1.398 . S
C694 C695 1.391 . S
C695 H683 0.950 . S
C695 C691 1.393 . S
C695 C694 1.391 . S
C225 C76 1.650 . S
C231 C106 1.675 . S
C251 C136 1.805 . S
C245 C88 1.766 . S
C271 N170 1.373 . S
C265 C52 1.394 . S
C291 N200 1.392 . S
C285 C64 1.380 . S
C311 C97 1.679 . S
C305 C28 1.657 1_556 S
C325 C40 1.786 . S
C331 C127 1.814 . S
C345 C4 1.397 . S
C351 N162 1.384 . S
C365 C16 1.395 . S
C371 N192 1.406 . S
C391 C112 0.414 . S
C385 C69 0.466 . S
C411 C142 0.735 . S
C405 C81 0.728 1_565 S
C431 C183 1.021 . S
C425 C93 1.002 . S
C445 C57 0.590 . S
C451 C213 0.583 . S
C465 C21 0.523 . S
C471 C123 0.403 . S
C491 C153 0.747 . S
C485 C33 0.763 1_556 S
C511 C172 1.028 . S
C505 C45 0.999 . S
C525 C9 0.560 . S
C531 C202 0.568 . S
C545 C66 1.462 . S
C551 N102 1.480 . S
C565 C78 1.431 . S
C571 N132 1.417 . S
C591 C157 1.656 . S
C585 C90 1.620 . S
C611 C187 1.597 . S
C605 C54 1.560 . S
C625 C18 1.466 . S
C631 N110 1.483 . S
C651 N140 1.420 . S
C645 C30 1.444 1_565 S
C671 C166 1.659 . S
C665 C42 1.626 . S
C685 C6 1.569 . S
C691 C196 1.598 . S
